# Generated by pormake.
# Topology zzz, (3,6)-cn, num edge types: 1
# Building blocks:
#     Node 0, Type 0, BuildingBlock: BETDAH_clean_linker_0, # of connection points: 3
#     Node 1, Type 0, BuildingBlock: BETDAH_clean_linker_0, # of connection points: 3
#     Node 2, Type 0, BuildingBlock: BETDAH_clean_linker_0, # of connection points: 3
#     Node 3, Type 0, BuildingBlock: BETDAH_clean_linker_0, # of connection points: 3
#     Node 4, Type 0, BuildingBlock: BETDAH_clean_linker_0, # of connection points: 3
#     Node 5, Type 0, BuildingBlock: BETDAH_clean_linker_0, # of connection points: 3
#     Node 6, Type 0, BuildingBlock: BETDAH_clean_linker_0, # of connection points: 3
#     Node 7, Type 0, BuildingBlock: BETDAH_clean_linker_0, # of connection points: 3
#     Node 8, Type 1, BuildingBlock: KUMBUR_clean_sbu_0, # of connection points: 6
#     Node 9, Type 1, BuildingBlock: KUMBUR_clean_sbu_0, # of connection points: 6
#     Node 10, Type 1, BuildingBlock: KUMBUR_clean_sbu_0, # of connection points: 6
#     Node 11, Type 1, BuildingBlock: KUMBUR_clean_sbu_0, # of connection points: 6
#     Edge 12, Type (0, 1), BuildingBlock: XIVTED_clean_linker_0, # of connection points: 2
#     Edge 13, Type (0, 1), BuildingBlock: XIVTED_clean_linker_0, # of connection points: 2
#     Edge 14, Type (0, 1), BuildingBlock: XIVTED_clean_linker_0, # of connection points: 2
#     Edge 15, Type (0, 1), BuildingBlock: XIVTED_clean_linker_0, # of connection points: 2
#     Edge 16, Type (0, 1), BuildingBlock: XIVTED_clean_linker_0, # of connection points: 2
#     Edge 17, Type (0, 1), BuildingBlock: XIVTED_clean_linker_0, # of connection points: 2
#     Edge 18, Type (0, 1), BuildingBlock: XIVTED_clean_linker_0, # of connection points: 2
#     Edge 19, Type (0, 1), BuildingBlock: XIVTED_clean_linker_0, # of connection points: 2
#     Edge 20, Type (0, 1), BuildingBlock: XIVTED_clean_linker_0, # of connection points: 2
#     Edge 21, Type (0, 1), BuildingBlock: XIVTED_clean_linker_0, # of connection points: 2
#     Edge 22, Type (0, 1), BuildingBlock: XIVTED_clean_linker_0, # of connection points: 2
#     Edge 23, Type (0, 1), BuildingBlock: XIVTED_clean_linker_0, # of connection points: 2
#     Edge 24, Type (0, 1), BuildingBlock: XIVTED_clean_linker_0, # of connection points: 2
#     Edge 25, Type (0, 1), BuildingBlock: XIVTED_clean_linker_0, # of connection points: 2
#     Edge 26, Type (0, 1), BuildingBlock: XIVTED_clean_linker_0, # of connection points: 2
#     Edge 27, Type (0, 1), BuildingBlock: XIVTED_clean_linker_0, # of connection points: 2
#     Edge 28, Type (0, 1), BuildingBlock: XIVTED_clean_linker_0, # of connection points: 2
#     Edge 29, Type (0, 1), BuildingBlock: XIVTED_clean_linker_0, # of connection points: 2
#     Edge 30, Type (0, 1), BuildingBlock: XIVTED_clean_linker_0, # of connection points: 2
#     Edge 31, Type (0, 1), BuildingBlock: XIVTED_clean_linker_0, # of connection points: 2
#     Edge 32, Type (0, 1), BuildingBlock: XIVTED_clean_linker_0, # of connection points: 2
#     Edge 33, Type (0, 1), BuildingBlock: XIVTED_clean_linker_0, # of connection points: 2
#     Edge 34, Type (0, 1), BuildingBlock: XIVTED_clean_linker_0, # of connection points: 2
#     Edge 35, Type (0, 1), BuildingBlock: XIVTED_clean_linker_0, # of connection points: 2
# Relax obj value: 0.176
# Max RMSD: 0.164
# Mean RMSD: 0.117
data_MOF--net-zzz--node1-KUMBUR_clean_sbu_0--node2-BETDAH_clean_linker_0--edge1-XIVTED_clean_linker_0
_symmetry_space_group_name_H-M    P1
_symmetry_Int_Tables_number       1
_symmetry_cell_setting            triclinic
loop_
_symmetry_equiv_pos_as_xyz
'x, y, z'
_cell_length_a     50.783295
_cell_length_b     50.704573
_cell_length_c     14.751615
_cell_angle_alpha  91.149856
_cell_angle_beta   90.106727
_cell_angle_gamma 90.0325
loop_
_atom_site_label
_atom_site_type_symbol
_atom_site_fract_x
_atom_site_fract_y
_atom_site_fract_z
_atom_type_partial_charge
H0 H 0.81899 0.56942 0.21051 0.0
H1 H 0.7416 0.55333 0.10698 0.0
H2 H 0.76368 0.52696 0.37313 0.0
C3 C 0.79931 0.56179 0.22123 0.0
C4 C 0.79377 0.54866 0.30188 0.0
C5 C 0.7807 0.56333 0.15093 0.0
C6 C 0.75569 0.55228 0.16199 0.0
C7 C 0.74915 0.53939 0.24233 0.0
C8 C 0.76844 0.53731 0.31177 0.0
N9 N 0.72364 0.52796 0.25385 0.0
C10 C 0.70335 0.52811 0.18897 0.0
H11 H 0.96588 0.83292 0.2032 0.0
H12 H 0.97809 0.75485 0.0927 0.0
H13 H 0.01609 0.77897 0.34288 0.0
C14 C 0.97399 0.81327 0.20977 0.0
C15 C 0.99063 0.8083 0.28351 0.0
C16 C 0.9696 0.79434 0.14033 0.0
C17 C 0.98139 0.76939 0.14629 0.0
C18 C 0.99814 0.76352 0.21908 0.0
C19 C 1.00289 0.78321 0.28728 0.0
N20 N 1.01091 0.73839 0.22406 0.0
C21 C 1.0095 0.7178 0.1587 0.0
H22 H 0.70338 0.96796 0.22261 0.0
H23 H 0.78266 0.9716 0.12137 0.0
H24 H 0.76312 1.00753 0.38001 0.0
C25 C 0.72393 0.97309 0.23244 0.0
C26 C 0.73099 0.98733 0.31123 0.0
C27 C 0.74221 0.96773 0.1628 0.0
C28 C 0.7685 0.97581 0.17447 0.0
C29 C 0.77633 0.99014 0.25255 0.0
C30 C 0.75736 0.99606 0.32048 0.0
N31 N 0.80279 0.99951 0.26314 0.0
C32 C 0.82294 0.99696 0.19834 0.0
H33 H 0.57014 0.7206 0.25111 0.0
H34 H 0.56134 0.79945 0.15625 0.0
H35 H 0.53765 0.78048 0.42837 0.0
C36 C 0.56503 0.74108 0.26458 0.0
C37 C 0.55428 0.74814 0.3491 0.0
C38 C 0.56734 0.75938 0.19484 0.0
C39 C 0.55958 0.78555 0.21056 0.0
C40 C 0.54914 0.79356 0.29493 0.0
C41 C 0.54614 0.7746 0.36377 0.0
N42 N 0.54113 0.82028 0.31127 0.0
C43 C 0.54279 0.84049 0.24774 0.0
H44 H 0.21888 0.47217 0.1136 0.0
H45 H 0.29582 0.48896 0.21985 0.0
H46 H 0.27378 0.51633 0.95485 0.0
C47 C 0.23845 0.48017 0.10385 0.0
C48 C 0.24392 0.4938 0.02419 0.0
C49 C 0.25697 0.47856 0.17442 0.0
C50 C 0.28182 0.49006 0.1646 0.0
C51 C 0.2883 0.50344 0.08517 0.0
C52 C 0.26908 0.5056 0.01549 0.0
N53 N 0.31366 0.51528 0.0748 0.0
C54 C 0.33391 0.515 0.13985 0.0
H55 H 0.06872 0.21111 0.13101 0.0
H56 H 0.06026 0.29101 0.22911 0.0
H57 H 0.02295 0.26612 0.97898 0.0
C58 C 0.06196 0.23108 0.12058 0.0
C59 C 0.04631 0.23609 0.04426 0.0
C60 C 0.06686 0.25057 0.18795 0.0
C61 C 0.05651 0.27599 0.17746 0.0
C62 C 0.04056 0.28184 0.1027 0.0
C63 C 0.03548 0.26176 0.03624 0.0
N64 N 0.02884 0.30738 0.09417 0.0
C65 C 0.02962 0.32803 0.15946 0.0
H66 H 0.33303 0.07276 0.10877 0.0
H67 H 0.25341 0.06865 0.20631 0.0
H68 H 0.27409 0.033 0.94824 0.0
C69 C 0.31255 0.06753 0.09789 0.0
C70 C 0.30586 0.05334 0.01866 0.0
C71 C 0.29398 0.07271 0.16673 0.0
C72 C 0.26777 0.06456 0.15375 0.0
C73 C 0.26029 0.05026 0.07523 0.0
C74 C 0.27956 0.04447 1.0081 0.0
N75 N 0.23391 0.04077 0.06361 0.0
C76 C 0.21355 0.04332 0.12768 0.0
H77 H 0.46376 0.32282 0.08191 0.0
H78 H 0.47527 0.24527 0.18471 0.0
H79 H 0.50205 0.26378 0.91554 0.0
C80 C 0.4701 0.30259 0.07075 0.0
C81 C 0.48257 0.29565 0.98899 0.0
C82 C 0.46768 0.28461 0.14138 0.0
C83 C 0.47702 0.25884 0.12938 0.0
C84 C 0.48909 0.25087 0.04759 0.0
C85 C 0.49223 0.26957 0.97793 0.0
N86 N 0.49866 0.22453 0.03482 0.0
C87 C 0.49686 0.20459 0.09925 0.0
Tb88 Tb 0.04323 0.01465 0.75241 0.0
C89 C 0.94588 0.99592 0.51054 0.0
C90 C 0.96059 0.96603 0.39153 0.0
C91 C 0.91454 0.96642 0.4353 0.0
C92 C 0.96595 0.98594 0.45753 0.0
C93 C 0.91981 0.98672 0.49882 0.0
C94 C 0.93493 0.95603 0.3819 0.0
C95 C 0.90568 0.01963 0.60857 0.0
N96 N 0.95168 0.01551 0.57094 0.0
C97 C 0.93179 0.02799 0.61801 0.0
C98 C 0.89969 0.99866 0.54956 0.0
Tb99 Tb 0.99514 0.02819 0.5827 0.0
N100 N 0.9905 0.99627 0.46859 0.0
C101 C 1.01022 0.98812 0.41094 0.0
C102 C 0.98103 0.95706 0.33591 0.0
C103 C 1.00587 0.96836 0.34513 0.0
H104 H 0.93617 0.04415 0.66446 0.0
H105 H 0.02184 0.96172 0.30188 0.0
H106 H 0.93054 0.94066 0.33205 0.0
H107 H 0.89023 0.0293 0.64719 0.0
H108 H 0.0299 0.99554 0.41615 0.0
H109 H 0.01692 0.08036 0.03485 0.0
H110 H 0.97776 0.94174 0.28486 0.0
H111 H 0.10196 0.99893 0.66861 0.0
H112 H 1.00884 0.04654 0.92003 0.0
H113 H 0.14798 0.0138 0.68514 0.0
H114 H 0.8947 0.95897 0.42576 0.0
H115 H 0.06091 0.10064 0.05093 0.0
H116 H 0.1081 0.10193 1.00276 0.0
H117 H 0.87944 0.99219 0.54231 0.0
H118 H 0.14381 0.08384 0.90789 0.0
N119 N 0.04802 0.04656 0.86598 0.0
C120 C 0.02842 0.05431 0.92466 0.0
C121 C 0.05759 0.08544 0.99946 0.0
C122 C 0.07796 0.07672 0.94301 0.0
C123 C 0.0328 0.07398 0.99079 0.0
C124 C 0.07253 0.05698 0.87656 0.0
H125 H 0.15891 0.05082 0.79028 0.0
N126 N 0.08664 0.02754 0.76251 0.0
C127 C 0.13258 0.02344 0.72412 0.0
C128 C 0.09252 0.04709 0.82299 0.0
C129 C 0.10646 0.01506 0.7151 0.0
C130 C 0.13865 0.04437 0.78326 0.0
C131 C 0.11861 0.05626 0.83449 0.0
O132 O 0.06893 0.98619 0.80364 0.0
O133 O 0.01731 0.99807 0.64898 0.0
O134 O 0.97502 1.00675 0.69152 0.0
O135 O 1.00333 0.01411 0.81363 0.0
O136 O 0.05432 0.98333 0.65347 0.0
O137 O 0.02955 0.98938 0.85422 0.0
O138 O 0.96943 0.05599 0.52678 0.0
O139 O 0.02075 0.04499 0.68738 0.0
O140 O 0.06308 0.03626 0.64362 0.0
O141 O 0.03506 0.02793 0.52152 0.0
O142 O 0.98315 0.05837 0.68357 0.0
O143 O 1.00996 0.05521 0.4884 0.0
C144 C 0.03194 0.9805 0.61413 0.0
C145 C 0.0463 0.94641 0.8207 0.0
C146 C 0.0173 0.90915 0.78281 0.0
C147 C 0.02088 0.93549 0.81283 0.0
C148 C 0.03965 0.89441 0.75633 0.0
C149 C 0.06817 0.93098 0.79568 0.0
C150 C 0.06477 0.90533 0.76242 0.0
C151 C 0.97983 1.00757 0.77995 0.0
C152 C 0.05031 0.97443 0.847 0.0
C153 C 0.12396 0.07643 0.89844 0.0
C154 C 0.10364 0.0867 0.95247 0.0
C155 C 1.00541 0.06186 0.7231 0.0
C156 C 0.99099 0.09698 0.5235 0.0
C157 C 0.01567 0.10959 0.52647 0.0
C158 C 0.01823 0.13561 0.56097 0.0
C159 C 0.99575 0.14825 0.59711 0.0
C160 C 0.96885 0.11036 0.55828 0.0
C161 C 0.97137 0.13562 0.59607 0.0
C162 C 0.05849 0.03474 0.55514 0.0
C163 C 0.98854 0.06921 0.49158 0.0
H164 H 1.00392 0.94746 0.83043 0.0
H165 H 0.03806 0.87395 0.73483 0.0
H166 H 0.08795 0.93894 0.80025 0.0
H167 H 0.08175 0.89366 0.74288 0.0
H168 H 0.03285 0.09913 0.50151 0.0
H169 H 0.99653 0.16838 0.62266 0.0
H170 H 0.94962 0.10112 0.55783 0.0
H171 H 0.95423 0.14568 0.62318 0.0
Tb172 Tb 0.52409 0.04848 0.75028 0.0
C173 C 0.54911 0.94485 0.53959 0.0
C174 C 0.57864 0.95668 0.41873 0.0
C175 C 0.57937 0.91217 0.47629 0.0
C176 C 0.55857 0.96347 0.48126 0.0
C177 C 0.55904 0.91883 0.53683 0.0
C178 C 0.58919 0.93108 0.41743 0.0
C179 C 0.52678 0.90732 0.64921 0.0
N180 N 0.52942 0.95194 0.59676 0.0
C181 C 0.51758 0.93329 0.64936 0.0
C182 C 0.54781 0.90011 0.59342 0.0
Tb183 Tb 0.5149 0.99488 0.59117 0.0
N184 N 0.54778 0.98802 0.48444 0.0
C185 C 0.55582 1.0063 0.42294 0.0
C186 C 0.58732 0.97567 0.35848 0.0
C187 C 0.57573 1.00052 0.36031 0.0
H188 H 0.5013 0.93865 0.693 0.0
H189 H 0.58224 0.0154 0.31373 0.0
H190 H 0.60466 0.92561 0.37018 0.0
H191 H 0.51766 0.89291 0.69228 0.0
H192 H 0.54811 0.02593 0.42269 0.0
H193 H 0.45637 0.02767 0.02562 0.0
H194 H 0.60276 0.97129 0.30985 0.0
H195 H 0.53798 0.1049 0.65023 0.0
H196 H 0.4916 0.01771 0.91968 0.0
H197 H 0.52102 0.15046 0.64924 0.0
H198 H 0.58733 0.89234 0.47345 0.0
H199 H 0.43442 0.07109 0.02504 0.0
H200 H 0.43171 0.1165 0.96221 0.0
H201 H 0.55488 0.87995 0.59321 0.0
H202 H 0.44917 0.14991 0.85968 0.0
N203 N 0.4907 0.05513 0.85486 0.0
C204 C 0.48305 0.03698 0.91734 0.0
C205 C 0.45024 0.06693 0.97767 0.0
C206 C 0.45874 0.0859 0.91701 0.0
C207 C 0.46262 0.04246 0.97832 0.0
C208 C 0.47932 0.0794 0.85621 0.0
H209 H 0.4826 0.16284 0.74368 0.0
N210 N 0.50913 0.09124 0.74318 0.0
C211 C 0.51168 0.13591 0.69119 0.0
C212 C 0.48885 0.09807 0.79824 0.0
C213 C 0.52123 0.11007 0.69207 0.0
C214 C 0.48997 0.14279 0.74435 0.0
C215 C 0.47849 0.1239 0.79969 0.0
O216 O 0.55077 0.07702 0.79839 0.0
O217 O 0.54292 0.02052 0.65785 0.0
O218 O 0.53675 0.97975 0.70835 0.0
O219 O 0.5254 1.01029 0.82134 0.0
O220 O 0.55666 0.05802 0.65759 0.0
O221 O 0.54728 0.03991 0.86487 0.0
O222 O 0.48859 0.96626 0.54055 0.0
O223 O 0.49607 0.02265 0.68429 0.0
O224 O 0.50257 0.06361 0.63233 0.0
O225 O 0.51436 0.03302 0.52 0.0
O226 O 0.48316 0.98489 0.68654 0.0
O227 O 0.48965 1.00471 0.4831 0.0
C228 C 0.5605 0.03484 0.62395 0.0
C229 C 0.5901 0.05803 0.84428 0.0
C230 C 0.62887 0.03104 0.81049 0.0
C231 C 0.60165 0.0332 0.82718 0.0
C232 C 0.64407 0.05429 0.80773 0.0
C233 C 0.6058 0.08078 0.84249 0.0
C234 C 0.63256 0.07889 0.82333 0.0
C235 C 0.53398 0.98657 0.79506 0.0
C236 C 0.56145 0.06111 0.85531 0.0
C237 C 0.45752 0.13025 0.85802 0.0
C238 C 0.44762 0.11125 0.91646 0.0
C239 C 0.4789 1.00808 0.71941 0.0
C240 C 0.44771 0.98547 0.51129 0.0
C241 C 0.43523 1.01024 0.51602 0.0
C242 C 0.40853 1.01236 0.54096 0.0
C243 C 0.39485 0.98934 0.56485 0.0
C244 C 0.43338 0.96281 0.53362 0.0
C245 C 0.40725 0.96484 0.56136 0.0
C246 C 0.50574 0.05679 0.54578 0.0
C247 C 0.47613 0.98306 0.49136 0.0
H248 H 0.58953 0.01561 0.82697 0.0
H249 H 0.66516 0.05355 0.7975 0.0
H250 H 0.59721 0.10011 0.85428 0.0
H251 H 0.64453 0.09655 0.82191 0.0
H252 H 0.44626 0.02785 0.50029 0.0
H253 H 0.37418 0.98994 0.58245 0.0
H254 H 0.44256 0.94353 0.53127 0.0
H255 H 0.39643 0.94727 0.57885 0.0
Tb256 Tb 0.54494 0.51364 0.58959 0.0
C257 C 0.43513 0.50459 0.76239 0.0
C258 C 0.40558 0.52811 0.66429 0.0
C259 C 0.38911 0.49159 0.7521 0.0
C260 C 0.43097 0.52402 0.70047 0.0
C261 C 0.41419 0.48846 0.79072 0.0
C262 C 0.38481 0.5114 0.68883 0.0
C263 C 0.44388 0.46892 0.89822 0.0
N264 N 0.45955 0.50238 0.7982 0.0
C265 C 0.46397 0.48542 0.86785 0.0
C266 C 0.41894 0.4702 0.85866 0.0
Tb267 Tb 0.49177 0.52935 0.74176 0.0
N268 N 0.45155 0.53978 0.67929 0.0
C269 C 0.44735 0.56148 0.62741 0.0
C270 C 0.40169 0.5493 0.60671 0.0
C271 C 0.42259 0.5663 0.58939 0.0
H272 H 0.48323 0.48395 0.89833 0.0
H273 H 0.4197 0.58309 0.54633 0.0
H274 H 0.36524 0.51406 0.66109 0.0
H275 H 0.4477 0.45514 0.95178 0.0
H276 H 0.46303 0.57486 0.61203 0.0
H277 H 0.61686 0.45933 0.78408 0.0
H278 H 0.38254 0.55309 0.5772 0.0
H279 H 0.55367 0.55933 0.43409 0.0
H280 H 0.57359 0.4678 0.71865 0.0
H281 H 0.58931 0.58808 0.38122 0.0
H282 H 0.3728 0.47925 0.77228 0.0
H283 H 0.65413 0.48921 0.75357 0.0
H284 H 0.67157 0.52829 0.67036 0.0
H285 H 0.40339 0.45743 0.88233 0.0
H286 H 0.66414 0.56332 0.5599 0.0
N287 N 0.58516 0.50291 0.6517 0.0
C288 C 0.58929 0.48115 0.70334 0.0
C289 C 0.635 0.49311 0.72413 0.0
C290 C 0.63118 0.51439 0.66689 0.0
C291 C 0.61404 0.47618 0.74124 0.0
C292 C 0.60581 0.51863 0.63079 0.0
H293 H 0.63362 0.58547 0.45045 0.0
N294 N 0.57729 0.54056 0.53366 0.0
C295 C 0.59309 0.57418 0.43442 0.0
C296 C 0.60171 0.53818 0.56934 0.0
C297 C 0.57293 0.5577 0.46446 0.0
C298 C 0.61803 0.57272 0.47386 0.0
C299 C 0.62272 0.5543 0.54134 0.0
O300 O 0.54799 0.5058 0.44979 0.0
O301 O 0.50273 0.51727 0.60692 0.0
O302 O 0.48836 0.48725 0.70443 0.0
O303 O 0.53186 0.47827 0.66512 0.0
O304 O 0.51808 0.53112 0.49014 0.0
O305 O 0.54998 0.47424 0.54504 0.0
O306 O 0.48923 0.53748 0.8815 0.0
O307 O 0.53393 0.52572 0.72423 0.0
O308 O 0.5484 0.55571 0.62753 0.0
O309 O 0.50492 0.56476 0.66666 0.0
O310 O 0.51875 0.51222 0.8417 0.0
O311 O 0.48572 0.56868 0.78519 0.0
C312 C 0.49644 0.5273 0.53235 0.0
C313 C 0.52226 0.4682 0.41676 0.0
C314 C 0.48765 0.43466 0.4152 0.0
C315 C 0.51143 0.4448 0.45037 0.0
C316 C 0.47452 0.44853 0.34685 0.0
C317 C 0.5091 0.48122 0.3465 0.0
C318 C 0.48526 0.47159 0.31277 0.0
C319 C 0.50812 0.47044 0.69207 0.0
C320 C 0.54549 0.48054 0.46107 0.0
C321 C 0.64778 0.551 0.57983 0.0
C322 C 0.65201 0.53107 0.64267 0.0
C323 C 0.54034 0.51589 0.799 0.0
C324 C 0.51374 0.57609 0.91181 0.0
C325 C 0.52353 0.59977 0.87688 0.0
C326 C 0.5468 0.6112 0.91156 0.0
C327 C 0.56054 0.59817 0.98061 0.0
C328 C 0.52757 0.56387 0.98226 0.0
C329 C 0.55096 0.57471 0.01542 0.0
C330 C 0.52869 0.57257 0.64012 0.0
C331 C 0.4908 0.56277 0.86914 0.0
H332 H 0.52139 0.43456 0.5043 0.0
H333 H 0.45647 0.44104 0.31683 0.0
H334 H 0.51684 0.4993 0.31911 0.0
H335 H 0.47513 0.48196 0.25959 0.0
H336 H 0.51307 0.60926 0.8224 0.0
H337 H 0.57818 0.60657 1.01072 0.0
H338 H 0.52067 0.54557 1.0105 0.0
H339 H 0.56159 0.565 0.06899 0.0
Tb340 Tb 0.02724 0.547 0.58195 0.0
C341 C 0.03556 0.4418 0.78012 0.0
C342 C 0.01329 0.40978 0.68394 0.0
C343 C 0.04888 0.39576 0.78215 0.0
C344 C 0.01685 0.43601 0.71547 0.0
C345 C 0.05146 0.42172 0.81599 0.0
C346 C 0.02981 0.3898 0.71605 0.0
C347 C 0.06965 0.45404 0.92089 0.0
N348 N 0.03725 0.46704 0.81114 0.0
C349 C 0.05343 0.47323 0.88305 0.0
C350 C 0.06892 0.42822 0.88642 0.0
Tb351 Tb 1.01078 0.49765 0.7428 0.0
N352 N 1.00122 0.45589 0.68698 0.0
C353 C 0.98016 0.45022 0.63181 0.0
C354 C 0.99278 0.40431 0.6232 0.0
C355 C 0.9759 0.42457 0.59815 0.0
H356 H 0.05449 0.49318 0.90969 0.0
H357 H 0.95962 0.4205 0.55249 0.0
H358 H 0.02756 0.36959 0.69199 0.0
H359 H 0.08278 0.45923 0.9763 0.0
H360 H 0.96686 0.46532 0.6104 0.0
H361 H 0.07855 0.62462 0.7694 0.0
H362 H 0.98942 0.38446 0.59708 0.0
H363 H 0.98322 0.55109 0.41573 0.0
H364 H 0.07139 0.5797 0.71225 0.0
H365 H 0.95459 0.58482 0.34954 0.0
H366 H 0.06106 0.38008 0.80815 0.0
H367 H 0.04843 0.66045 0.72537 0.0
H368 H 1.00999 0.67503 0.63131 0.0
H369 H 0.08146 0.41337 0.91588 0.0
H370 H 0.97628 0.66424 0.51615 0.0
N371 N 0.03678 0.58887 0.6367 0.0
C372 C 0.05797 0.59471 0.6911 0.0
C373 C 0.04511 0.64056 0.69958 0.0
C374 C 0.02448 0.63492 0.63949 0.0
C375 C 0.06218 0.62041 0.7243 0.0
C376 C 0.02099 0.60864 0.60838 0.0
H377 H 0.9558 0.63073 0.4094 0.0
N378 N 1.00055 0.57742 0.51353 0.0
C379 C 0.96784 0.59013 0.4045 0.0
C380 C 1.00218 0.60269 0.54422 0.0
C381 C 0.98424 0.57107 0.44211 0.0
C382 C 0.9685 0.61599 0.43866 0.0
C383 C 0.98609 0.62265 0.50853 0.0
O384 O 0.03628 0.54686 0.44321 0.0
O385 O 0.02418 0.50511 0.60789 0.0
O386 O 0.05327 0.49413 0.71532 0.0
O387 O 0.06204 0.53659 0.66668 0.0
O388 O 1.01096 0.51739 0.48599 0.0
O389 O 0.06686 0.55167 0.54347 0.0
O390 O 1.00165 0.49768 0.88143 0.0
O391 O 0.01401 0.53949 0.71699 0.0
O392 O 0.98489 0.55076 0.61083 0.0
O393 O 0.97598 0.50824 0.65827 0.0
O394 O 0.02693 0.52719 0.83928 0.0
O395 O 0.97114 0.49294 0.78086 0.0
C396 C 0.01484 0.49681 0.53317 0.0
C397 C 0.07437 0.52105 0.42263 0.0
C398 C 0.10862 0.48733 0.43315 0.0
C399 C 0.09749 0.51141 0.46276 0.0
C400 C 0.0957 0.47255 0.36447 0.0
C401 C 0.06232 0.50618 0.35242 0.0
C402 C 0.07275 0.48195 0.32465 0.0
C403 C 0.0699 0.51382 0.70122 0.0
C404 C 0.06138 0.54507 0.45957 0.0
C405 C 0.98861 0.64865 0.54202 0.0
C406 C 1.00778 0.65478 0.60756 0.0
C407 C 0.02327 0.54776 0.79191 0.0
C408 C 0.96341 0.52323 0.90261 0.0
C409 C 0.94048 0.53313 0.86192 0.0
C410 C 0.9289 0.55678 0.89377 0.0
C411 C 0.94134 0.57092 0.96515 0.0
C412 C 0.97503 0.53753 0.97496 0.0
C413 C 0.96424 0.56138 1.00491 0.0
C414 C 0.96818 0.53111 0.62442 0.0
C415 C 0.97655 0.4994 0.86493 0.0
H416 H 0.10685 0.52267 0.51707 0.0
H417 H 0.10388 0.45421 0.33834 0.0
H418 H 0.04442 0.51294 0.32027 0.0
H419 H 0.06315 0.47054 0.27131 0.0
H420 H 0.93163 0.52236 0.80553 0.0
H421 H 0.93286 0.58883 0.99348 0.0
H422 H 0.99279 0.53057 1.00745 0.0
H423 H 0.97345 0.57233 0.06018 0.0
H424 H 0.16254 0.03425 0.08318 0.0
H425 H 0.10768 0.05606 0.59142 0.0
H426 H 0.21261 0.05441 0.30999 0.0
H427 H 0.0605 0.02586 0.36944 0.0
H428 H 0.14538 0.059 0.48871 0.0
H429 H 0.12435 0.03438 0.18518 0.0
C430 C 0.16544 0.0388 0.15459 0.0
C431 C 0.19075 0.04431 0.18824 0.0
C432 C 0.12681 0.05159 0.46251 0.0
C433 C 0.14703 0.04449 0.30613 0.0
C434 C 0.10522 0.04966 0.52155 0.0
C435 C 0.08089 0.03955 0.49081 0.0
C436 C 0.12414 0.04383 0.37085 0.0
C437 C 0.07883 0.03304 0.39776 0.0
C438 C 0.14363 0.03884 0.21295 0.0
C439 C 0.19341 0.05008 0.28132 0.0
N440 N 0.10007 0.03513 0.34168 0.0
N441 N 0.17188 0.05 0.33692 0.0
H442 H 0.48074 0.20623 0.27564 0.0
H443 H 0.51865 0.055 0.36371 0.0
H444 H 0.51091 0.1536 0.06803 0.0
H445 H 0.48046 0.10489 0.56358 0.0
H446 H 0.51514 0.09033 0.25441 0.0
H447 H 0.48031 0.16954 0.38198 0.0
C448 C 0.48719 0.18691 0.25239 0.0
C449 C 0.4959 0.18292 0.163 0.0
C450 C 0.50763 0.09365 0.32233 0.0
C451 C 0.49558 0.14072 0.28446 0.0
C452 C 0.50968 0.07338 0.38531 0.0
C453 C 0.50089 0.07713 0.47505 0.0
C454 C 0.49655 0.11805 0.34846 0.0
C455 C 0.48862 0.10133 0.49682 0.0
C456 C 0.48693 0.16592 0.31312 0.0
C457 C 0.50409 0.15749 0.13652 0.0
N458 N 0.48708 0.12087 0.43464 0.0
N459 N 0.50383 0.13743 0.19689 0.0
H460 H 0.3459 0.48191 0.27861 0.0
H461 H 0.47996 0.55982 0.40166 0.0
H462 H 0.37291 0.55123 0.14294 0.0
H463 H 0.4554 0.49113 0.54627 0.0
H464 H 0.44001 0.55694 0.30971 0.0
H465 H 0.38459 0.48477 0.38009 0.0
C466 C 0.35995 0.49776 0.27045 0.0
C467 C 0.35626 0.51639 0.20241 0.0
C468 C 0.44307 0.54255 0.36192 0.0
C469 C 0.40055 0.5198 0.3178 0.0
C470 C 0.46592 0.54425 0.4147 0.0
C471 C 0.47074 0.52613 0.48337 0.0
C472 C 0.42479 0.52223 0.37616 0.0
C473 C 0.4521 0.50599 0.49585 0.0
C474 C 0.38203 0.49939 0.3283 0.0
C475 C 0.37502 0.53648 0.19454 0.0
N476 N 0.42995 0.50458 0.44284 0.0
N477 N 0.39626 0.53762 0.25118 0.0
H478 H 0.99253 0.36594 0.15301 0.0
H479 H 0.05134 0.45665 0.56214 0.0
H480 H 0.06181 0.34363 0.3014 0.0
H481 H 0.98424 0.47679 0.39876 0.0
H482 H 0.05527 0.4146 0.4753 0.0
H483 H 0.98882 0.40577 0.24867 0.0
C484 C 1.00696 0.36944 0.20613 0.0
C485 C 0.02748 0.35144 0.21918 0.0
C486 C 0.03955 0.42813 0.45904 0.0
C487 C 0.0235 0.39741 0.33002 0.0
C488 C 0.03717 0.45203 0.50921 0.0
C489 C 0.017 0.47004 0.4892 0.0
C490 C 0.02174 0.42225 0.38784 0.0
C491 C 0.99983 0.4634 0.41755 0.0
C492 C 1.00488 0.39226 0.26094 0.0
C493 C 0.04566 0.35702 0.28909 0.0
N494 N 1.00252 0.44022 0.37018 0.0
N495 N 0.04329 0.37949 0.34178 0.0
H496 H 0.82339 0.9858 0.01623 0.0
H497 H 0.9785 0.01513 0.96602 0.0
H498 H 0.87405 1.00631 0.24112 0.0
H499 H 0.93018 0.98731 0.74339 0.0
H500 H 0.94079 1.01114 0.06725 0.0
H501 H 0.86193 0.98597 0.91489 0.0
C502 C 0.84267 0.99021 0.04424 0.0
C503 C 0.84558 0.99603 0.1371 0.0
C504 C 0.93833 1.00603 0.99612 0.0
C505 C 0.88984 0.99642 0.02165 0.0
C506 C 0.95998 1.00835 0.93778 0.0
C507 C 0.95753 1.00257 0.84443 0.0
C508 C 0.91377 0.99771 0.96169 0.0
C509 C 0.93293 0.9931 0.81365 0.0
C510 C 0.86469 0.99031 0.98643 0.0
C511 C 0.87097 1.00171 0.16987 0.0
N512 N 0.91206 0.99122 0.8716 0.0
N513 N 0.89202 1.00185 0.11242 0.0
H514 H 0.5309 0.89178 0.28372 0.0
H515 H 0.55951 0.93878 0.77508 0.0
H516 H 0.55668 0.83915 0.06903 0.0
H517 H 0.52144 0.98787 0.97756 0.0
H518 H 0.56285 0.90353 0.88544 0.0
H519 H 0.53124 0.92839 0.17681 0.0
C520 C 0.53668 0.88797 0.214 0.0
C521 C 0.54367 0.86242 0.18502 0.0
C522 C 0.55369 0.922 0.90575 0.0
C523 C 0.54422 0.90421 0.06198 0.0
C524 C 0.5516 0.94216 0.84236 0.0
C525 C 0.53919 0.96618 0.86525 0.0
C526 C 0.54372 0.92585 0.99391 0.0
C527 C 0.53056 0.96963 0.95538 0.0
C528 C 0.53688 0.90886 0.15293 0.0
C529 C 0.55112 0.85855 0.09415 0.0
N530 N 0.53282 0.94972 0.01587 0.0
N531 N 0.55117 0.87917 0.03596 0.0
H532 H 0.69132 0.56104 0.04983 0.0
H533 H 0.55704 0.48323 0.92891 0.0
H534 H 0.66432 0.4919 0.18661 0.0
H535 H 0.58141 0.55199 0.78432 0.0
H536 H 0.59716 0.48601 0.02007 0.0
H537 H 0.65255 0.55812 0.94872 0.0
C538 C 0.67725 0.54522 0.05831 0.0
C539 C 0.68096 0.52666 0.12657 0.0
C540 C 0.59401 0.50043 0.96803 0.0
C541 C 0.63659 0.52319 0.01161 0.0
C542 C 0.57108 0.49879 0.91569 0.0
C543 C 0.56615 0.51695 0.84726 0.0
C544 C 0.61228 0.52076 0.95359 0.0
C545 C 0.58478 0.53709 0.83455 0.0
C546 C 0.65513 0.54355 1.00068 0.0
C547 C 0.66219 0.50659 0.13484 0.0
N548 N 0.60702 0.53846 0.88714 0.0
N549 N 0.64091 0.50542 0.0784 0.0
H550 H 0.97642 0.70307 0.01845 0.0
H551 H 0.05528 0.56739 0.92241 0.0
H552 H 0.04591 0.6791 0.16245 0.0
H553 H 0.98714 0.58856 0.76586 0.0
H554 H 0.05198 0.60908 1.00705 0.0
H555 H 0.97962 0.66264 0.92234 0.0
C556 C 0.99237 0.68934 0.0296 0.0
C557 C 1.01095 0.69443 0.09854 0.0
C558 C 0.03779 0.60492 0.95379 0.0
C559 C 0.01475 0.64812 0.98914 0.0
C560 C 0.03974 0.58104 0.9051 0.0
C561 C 0.02189 0.57465 0.83531 0.0
C562 C 0.01745 0.62277 0.93447 0.0
C563 C 1.00179 0.59296 0.81737 0.0
C564 C 0.9942 0.66627 0.97477 0.0
C565 C 0.03118 0.67599 0.11014 0.0
N566 N 1.00009 0.61615 0.86659 0.0
N567 N 0.03249 0.6538 0.05646 0.0
H568 H 0.05209 0.266 0.35978 0.0
H569 H 0.03913 0.17667 0.66615 0.0
H570 H 0.10825 0.21655 0.21782 0.0
H571 H 0.05494 0.12962 0.42468 0.0
H572 H 0.06879 0.21059 0.60962 0.0
H573 H 0.05803 0.23997 0.49353 0.0
C574 C 0.06663 0.25038 0.3576 0.0
C575 C 0.07863 0.24259 0.27568 0.0
C576 C 0.06618 0.19248 0.57049 0.0
C577 C 0.08502 0.21207 0.42899 0.0
C578 C 0.04907 0.17315 0.60219 0.0
C579 C 0.04295 0.15094 0.54729 0.0
C580 C 0.07725 0.18933 0.48381 0.0
C581 C 0.05803 0.14667 0.46856 0.0
C582 C 0.07009 0.23538 0.43487 0.0
C583 C 0.09748 0.22235 0.27827 0.0
N584 N 0.07396 0.166 0.43821 0.0
N585 N 0.09927 0.20704 0.35249 0.0
H586 H 0.27829 0.05605 0.33391 0.0
H587 H 0.36696 0.03232 0.64248 0.0
H588 H 0.33171 0.11035 0.20765 0.0
H589 H 0.41651 0.05056 0.41434 0.0
H590 H 0.33456 0.06401 0.58837 0.0
H591 H 0.30515 0.05749 0.46903 0.0
C592 C 0.29505 0.06926 0.33569 0.0
C593 C 0.30344 0.08208 0.25734 0.0
C594 C 0.3528 0.06141 0.55142 0.0
C595 C 0.33489 0.08332 0.41237 0.0
C596 C 0.37131 0.04327 0.58203 0.0
C597 C 0.39384 0.0375 0.52992 0.0
C598 C 0.35693 0.07367 0.4681 0.0
C599 C 0.39914 0.05353 0.45557 0.0
C600 C 0.31055 0.0701 0.41376 0.0
C601 C 0.32525 0.09905 0.26499 0.0
N602 N 0.38048 0.07037 0.4256 0.0
N603 N 0.34087 0.09833 0.33973 0.0
H604 H 0.42308 0.31227 0.18396 0.0
H605 H 0.4366 0.41771 0.44079 0.0
H606 H 0.49364 0.28066 0.30224 0.0
H607 H 0.51712 0.39066 0.44807 0.0
H608 H 0.42191 0.37187 0.4286 0.0
H609 H 0.41945 0.34336 0.3103 0.0
C610 C 0.43717 0.31117 0.239 0.0
C611 C 0.45918 0.29463 0.23142 0.0
C612 C 0.44278 0.37593 0.43395 0.0
C613 C 0.45564 0.33051 0.37613 0.0
C614 C 0.45117 0.40211 0.44129 0.0
C615 C 0.47819 0.40807 0.44018 0.0
C616 C 0.46163 0.35581 0.42355 0.0
C617 C 0.49611 0.38714 0.44605 0.0
C618 C 0.43512 0.32895 0.31189 0.0
C619 C 0.47667 0.29358 0.30479 0.0
N620 N 0.48754 0.36196 0.43485 0.0
N621 N 0.47507 0.31198 0.37269 0.0
H622 H 0.23238 0.43183 0.20887 0.0
H623 H 0.12813 0.43721 0.46136 0.0
H624 H 0.26091 0.50292 0.34027 0.0
H625 H 0.15063 0.51931 0.47618 0.0
H626 H 0.17467 0.42515 0.45398 0.0
H627 H 0.20261 0.42511 0.33467 0.0
C628 C 0.23313 0.44542 0.26648 0.0
C629 C 0.24825 0.46849 0.26282 0.0
C630 C 0.16941 0.44579 0.46026 0.0
C631 C 0.21389 0.46137 0.40694 0.0
C632 C 0.14282 0.4527 0.46458 0.0
C633 C 0.13536 0.47939 0.46337 0.0
C634 C 0.18843 0.46579 0.45332 0.0
C635 C 0.15522 0.49849 0.47366 0.0
C636 C 0.21614 0.44156 0.3391 0.0
C637 C 0.249 0.4852 0.33959 0.0
N638 N 0.18082 0.49133 0.46555 0.0
N639 N 0.23129 0.48184 0.40721 0.0
H640 H 0.92524 0.82503 0.11919 0.0
H641 H 0.97814 0.9194 0.9078 0.0
H642 H 0.9849 0.78335 0.96571 0.0
H643 H 0.99618 0.8679 0.67942 0.0
H644 H 0.94649 0.88791 0.959 0.0
H645 H 0.91778 0.85346 0.98961 0.0
C646 C 0.9362 0.82131 0.0573 0.0
C647 C 0.95683 0.80284 0.05506 0.0
C648 C 0.9565 0.88369 0.89564 0.0
C649 C 0.94883 0.8355 0.90832 0.0
C650 C 0.97489 0.90194 0.86593 0.0
C651 C 0.99134 0.89567 0.7921 0.0
C652 C 0.9552 0.85865 0.85314 0.0
C653 C 0.98537 0.87276 0.74065 0.0
C654 C 0.93197 0.8376 0.98351 0.0
C655 C 0.96946 0.79798 0.9719 0.0
N656 N 0.96867 0.85448 0.77444 0.0
N657 N 0.96586 0.81482 0.90266 0.0
H658 H 0.75764 0.98337 0.99371 0.0
H659 H 0.61618 0.98698 0.90731 0.0
H660 H 0.70399 0.93028 0.12481 0.0
H661 H 0.67225 0.01468 0.71118 0.0
H662 H 0.64702 0.95321 0.95081 0.0
H663 H 0.73029 0.98154 0.85925 0.0
C664 C 0.74063 0.97049 0.99349 0.0
C665 C 0.73233 0.95814 0.07289 0.0
C666 C 0.65245 0.96613 0.89632 0.0
C667 C 0.70015 0.95698 0.91965 0.0
C668 C 0.63462 0.98554 0.87089 0.0
C669 C 0.64229 1.00493 0.8096 0.0
C670 C 0.6783 0.96678 0.86252 0.0
C671 C 0.66624 1.00127 0.76346 0.0
C672 C 0.72479 0.96956 0.91616 0.0
C673 C 0.71031 0.94139 0.06683 0.0
N674 N 0.68389 0.98331 0.79344 0.0
N675 N 0.69437 0.94211 0.99291 0.0
H676 H 0.54178 0.76871 0.03516 0.0
H677 H 0.51527 0.65314 0.86872 0.0
H678 H 0.60868 0.72775 0.14448 0.0
H679 H 0.59707 0.63125 0.8934 0.0
H680 H 0.52756 0.69888 0.87998 0.0
H681 H 0.54337 0.73989 0.90077 0.0
C682 C 0.55732 0.75415 0.02963 0.0
C683 C 0.57436 0.74969 0.10271 0.0
C684 C 0.54316 0.68438 0.87956 0.0
C685 C 0.5753 0.71575 0.95228 0.0
C686 C 0.53603 0.65788 0.87308 0.0
C687 C 0.55501 0.63814 0.88517 0.0
C688 C 0.56938 0.69114 0.90051 0.0
C689 C 0.58157 0.64583 0.88922 0.0
C690 C 0.55797 0.73739 0.9534 0.0
C691 C 0.59447 0.73102 0.09105 0.0
N692 N 0.5879 0.67172 0.90035 0.0
N693 N 0.59392 0.71419 0.0185 0.0
H694 H 0.77591 0.5382 0.9867 0.0
H695 H 0.90827 0.60706 0.87849 0.0
H696 H 0.80586 0.60958 0.11261 0.0
H697 H 0.88794 0.52499 0.83541 0.0
H698 H 0.86141 0.61762 0.88719 0.0
H699 H 0.80527 0.54487 0.85829 0.0
C700 C 0.78781 0.55593 0.98544 0.0
C701 C 0.78935 0.57283 0.06168 0.0
C702 C 0.86731 0.59746 0.87245 0.0
C703 C 0.82324 0.58019 0.91663 0.0
C704 C 0.89408 0.59131 0.86863 0.0
C705 C 0.90221 0.56482 0.86257 0.0
C706 C 0.84873 0.57697 0.86965 0.0
C707 C 0.88289 0.5456 0.84375 0.0
C708 C 0.80464 0.55969 0.91221 0.0
C709 C 0.80487 0.59562 0.0562 0.0
N710 N 0.85704 0.55196 0.85058 0.0
N711 N 0.82185 0.59826 0.98605 0.0
H712 H 0.99864 0.22222 0.96455 0.0
H713 H 0.97233 0.09398 0.81647 0.0
H714 H 0.07969 0.19736 0.97691 0.0
H715 H 0.05294 0.09002 0.72733 0.0
H716 H 0.98069 0.13748 0.88348 0.0
H717 H 0.98801 0.18154 0.87987 0.0
C718 C 0.01429 0.20839 0.94881 0.0
C719 C 0.04007 0.21335 0.9796 0.0
C720 C 0.99663 0.12747 0.84861 0.0
C721 C 0.0278 0.1656 0.88484 0.0
C722 C 0.99191 0.1023 0.81114 0.0
C723 C 0.01204 0.08792 0.76763 0.0
C724 C 0.02179 0.13891 0.84248 0.0
C725 C 0.03695 0.1 0.76217 0.0
C726 C 1.00812 0.18475 0.90167 0.0
C727 C 0.05941 0.19434 0.9565 0.0
N728 N 0.04117 0.12461 0.79985 0.0
N729 N 0.0529 0.17144 0.91131 0.0
H730 H 0.32162 1.00421 0.95638 0.0
H731 H 0.45182 0.05536 0.70202 0.0
H732 H 0.34079 0.08665 0.93701 0.0
H733 H 0.44448 0.97765 0.81175 0.0
H734 H 0.40791 0.0664 0.76268 0.0
H735 H 0.36264 0.99321 0.87536 0.0
C736 C 0.33407 0.02001 0.933 0.0
C737 C 0.32759 0.0464 0.95329 0.0
C738 C 0.41596 0.04696 0.77376 0.0
C739 C 0.37494 0.03396 0.86139 0.0
C740 C 0.44115 0.04075 0.73987 0.0
C741 C 0.45237 0.01589 0.75508 0.0
C742 C 0.40144 0.0279 0.82074 0.0
C743 C 0.43694 0.99728 0.80043 0.0
C744 C 0.35769 0.01373 0.8877 0.0
C745 C 0.34491 0.06604 0.92269 0.0
N746 N 0.41244 1.00364 0.83171 0.0
N747 N 0.3677 0.05947 0.8787 0.0
H748 H 0.52837 0.31188 0.90523 0.0
H749 H 0.46134 0.4443 0.71939 0.0
H750 H 0.44539 0.32888 0.92049 0.0
H751 H 0.54522 0.43128 0.71869 0.0
H752 H 0.45497 0.39975 0.77584 0.0
H753 H 0.53472 0.35254 0.81902 0.0
C754 C 0.5114 0.32377 0.88848 0.0
C755 C 0.4863 0.31685 0.92033 0.0
C756 C 0.47481 0.40655 0.76314 0.0
C757 C 0.49345 0.36382 0.82293 0.0
C758 C 0.47849 0.43216 0.73114 0.0
C759 C 0.50394 0.44211 0.71631 0.0
C760 C 0.49671 0.39037 0.7804 0.0
C761 C 0.52525 0.42485 0.73031 0.0
C762 C 0.51506 0.34717 0.84006 0.0
C763 C 0.46511 0.33339 0.89772 0.0
N764 N 0.52119 0.40005 0.76224 0.0
N765 N 0.46918 0.35602 0.85136 0.0
H766 H 0.21236 0.45462 0.95374 0.0
H767 H 0.10821 0.55232 0.72422 0.0
H768 H 0.22495 0.53846 0.93982 0.0
H769 H 0.0965 0.46851 0.74691 0.0
H770 H 0.1524 0.54754 0.78877 0.0
H771 H 0.1721 0.45918 0.86448 0.0
C772 C 0.20687 0.47401 0.93071 0.0
C773 C 0.22223 0.49619 0.95495 0.0
C774 C 0.1402 0.53017 0.77948 0.0
C775 C 0.17539 0.50168 0.85256 0.0
C776 C 0.11482 0.53287 0.74239 0.0
C777 C 0.09802 0.5109 0.7318 0.0
C778 C 0.14919 0.50524 0.80598 0.0
C779 C 0.10824 0.48619 0.75572 0.0
C780 C 0.18372 0.47662 0.87982 0.0
C781 C 0.21397 0.52077 0.92246 0.0
N782 N 0.1329 0.48409 0.79202 0.0
N783 N 0.19105 0.52289 0.87397 0.0
H784 H 0.95436 0.84026 0.36821 0.0
H785 H 0.98356 0.95526 0.62022 0.0
H786 H 0.03812 0.82831 0.3489 0.0
H787 H 0.06238 0.9456 0.51825 0.0
H788 H 0.97195 0.91209 0.55497 0.0
H789 H 0.96195 0.88113 0.45323 0.0
C790 C 0.97446 0.84597 0.3837 0.0
C791 C 0.99559 0.83052 0.35111 0.0
C792 C 0.99168 0.91939 0.54472 0.0
C793 C 1.00475 0.87813 0.45077 0.0
C794 C 0.99829 0.94425 0.58238 0.0
C795 C 0.02374 0.95459 0.57211 0.0
C796 C 1.01071 0.90444 0.49632 0.0
C797 C 0.04234 0.93873 0.52607 0.0
C798 C 0.97885 0.86951 0.43305 0.0
C799 C 0.02116 0.83924 0.37326 0.0
N800 N 0.03546 0.9147 0.4897 0.0
N801 N 0.02498 0.86248 0.42052 0.0
H802 H 0.71636 0.03654 0.37617 0.0
H803 H 0.5867 0.98693 0.63724 0.0
H804 H 0.69572 0.95438 0.39308 0.0
H805 H 0.59491 0.06491 0.53039 0.0
H806 H 0.63003 0.97527 0.57308 0.0
H807 H 0.676 0.04801 0.46031 0.0
C808 C 0.70372 0.02088 0.39956 0.0
C809 C 0.70959 0.99444 0.37768 0.0
C810 C 0.6223 0.99491 0.56343 0.0
C811 C 0.66301 1.00743 0.47331 0.0
C812 C 0.59744 1.00149 0.59936 0.0
C813 C 0.58663 0.02663 0.58606 0.0
C814 C 0.6369 0.01385 0.51618 0.0
C815 C 0.60214 0.0451 0.54038 0.0
C816 C 0.68049 0.02743 0.44669 0.0
C817 C 0.69206 0.97502 0.40848 0.0
N818 N 0.62631 0.03836 0.50702 0.0
N819 N 0.66966 0.98186 0.45431 0.0
H820 H 0.5091 0.7326 0.43807 0.0
H821 H 0.57556 0.59855 0.61296 0.0
H822 H 0.59144 0.71382 0.41083 0.0
H823 H 0.49175 0.612 0.61575 0.0
H824 H 0.58209 0.64326 0.55823 0.0
H825 H 0.50281 0.6917 0.52311 0.0
C826 C 0.52597 0.72027 0.45201 0.0
C827 C 0.55085 0.72677 0.41725 0.0
C828 C 0.56223 0.63653 0.57101 0.0
C829 C 0.54375 0.67956 0.51327 0.0
C830 C 0.55846 0.61083 0.602 0.0
C831 C 0.53298 0.60095 0.61684 0.0
C832 C 0.5404 0.65289 0.55492 0.0
C833 C 0.51174 0.61838 0.60404 0.0
C834 C 0.52233 0.69674 0.49973 0.0
C835 C 0.5719 0.70966 0.43614 0.0
N836 N 0.51589 0.64329 0.57316 0.0
N837 N 0.56785 0.68694 0.482 0.0
H838 H 0.81136 0.50418 0.39032 0.0
H839 H 0.94187 0.57679 0.58254 0.0
H840 H 0.82682 0.58735 0.36786 0.0
H841 H 0.9297 0.49286 0.59802 0.0
H842 H 0.89781 0.58127 0.51762 0.0
H843 H 0.85196 0.49991 0.48071 0.0
C844 C 0.82293 0.52164 0.40594 0.0
C845 C 0.81555 0.54615 0.3708 0.0
C846 C 0.90468 0.56182 0.53536 0.0
C847 C 0.86248 0.54136 0.47342 0.0
C848 C 0.93002 0.55922 0.57227 0.0
C849 C 0.94008 0.5343 0.59406 0.0
C850 C 0.88885 0.53936 0.52 0.0
C851 C 0.92318 0.51246 0.58134 0.0
C852 C 0.8463 0.51916 0.45689 0.0
C853 C 0.83171 0.56799 0.39257 0.0
N854 N 0.89863 0.51545 0.54458 0.0
N855 N 0.85429 0.56505 0.44151 0.0
loop_
_geom_bond_atom_site_label_1
_geom_bond_atom_site_label_2
_geom_bond_distance
_geom_bond_site_symmetry_2
_ccdc_geom_bond_type
H0 C3 0.929 . S
H1 C6 0.929 . S
H2 C8 0.930 . S
C3 H0 0.929 . S
C3 C4 1.398 . S
C3 C5 1.396 . S
C4 C3 1.398 . S
C4 C8 1.407 . S
C5 C3 1.396 . S
C5 C6 1.394 . S
C6 H1 0.929 . S
C6 C5 1.394 . S
C6 C7 1.382 . S
C7 C6 1.382 . S
C7 C8 1.392 . S
C7 N9 1.420 . S
C8 H2 0.930 . S
C8 C4 1.407 . S
C8 C7 1.392 . S
N9 C7 1.420 . S
N9 C10 1.244 . S
C10 N9 1.244 . S
H11 C14 0.929 . S
H12 C17 0.929 . S
H13 C19 0.930 . S
C14 H11 0.929 . S
C14 C15 1.398 . S
C14 C16 1.396 . S
C15 C14 1.398 . S
C15 C19 1.407 . S
C16 C14 1.396 . S
C16 C17 1.394 . S
C17 H12 0.929 . S
C17 C16 1.394 . S
C17 C18 1.382 . S
C18 C17 1.382 . S
C18 C19 1.392 . S
C18 N20 1.420 . S
C19 H13 0.930 . S
C19 C15 1.407 . S
C19 C18 1.392 . S
N20 C18 1.420 . S
N20 C21 1.244 . S
C21 N20 1.244 . S
H22 C25 0.929 . S
H23 C28 0.929 . S
H24 C30 0.930 . S
C25 H22 0.929 . S
C25 C26 1.398 . S
C25 C27 1.396 . S
C26 C25 1.398 . S
C26 C30 1.407 . S
C27 C25 1.396 . S
C27 C28 1.394 . S
C28 H23 0.929 . S
C28 C27 1.394 . S
C28 C29 1.382 . S
C29 C28 1.382 . S
C29 C30 1.392 . S
C29 N31 1.420 . S
C30 H24 0.930 . S
C30 C26 1.407 . S
C30 C29 1.392 . S
N31 C29 1.420 . S
N31 C32 1.244 . S
C32 N31 1.244 . S
H33 C36 0.929 . S
H34 C39 0.929 . S
H35 C41 0.930 . S
C36 H33 0.929 . S
C36 C37 1.398 . S
C36 C38 1.396 . S
C37 C36 1.398 . S
C37 C41 1.407 . S
C38 C36 1.396 . S
C38 C39 1.394 . S
C39 H34 0.929 . S
C39 C38 1.394 . S
C39 C40 1.382 . S
C40 C39 1.382 . S
C40 C41 1.392 . S
C40 N42 1.420 . S
C41 H35 0.930 . S
C41 C37 1.407 . S
C41 C40 1.392 . S
N42 C40 1.420 . S
N42 C43 1.244 . S
C43 N42 1.244 . S
H44 C47 0.929 . S
H45 C50 0.929 . S
H46 C52 0.930 . S
C47 H44 0.929 . S
C47 C48 1.398 . S
C47 C49 1.396 1_556 S
C48 C47 1.398 . S
C48 C52 1.407 . S
C49 C47 1.396 1_554 S
C49 C50 1.394 . S
C50 H45 0.929 . S
C50 C49 1.394 . S
C50 C51 1.382 . S
C51 C50 1.382 . S
C51 C52 1.392 1_554 S
C51 N53 1.420 . S
C52 H46 0.930 . S
C52 C48 1.407 . S
C52 C51 1.392 1_556 S
N53 C51 1.420 . S
N53 C54 1.244 . S
C54 N53 1.244 . S
H55 C58 0.929 . S
H56 C61 0.929 . S
H57 C63 0.930 . S
C58 H55 0.929 . S
C58 C59 1.398 . S
C58 C60 1.396 1_556 S
C59 C58 1.398 . S
C59 C63 1.407 . S
C60 C58 1.396 1_554 S
C60 C61 1.394 . S
C61 H56 0.929 . S
C61 C60 1.394 . S
C61 C62 1.382 . S
C62 C61 1.382 . S
C62 C63 1.392 1_554 S
C62 N64 1.420 . S
C63 H57 0.930 . S
C63 C59 1.407 . S
C63 C62 1.392 1_556 S
N64 C62 1.420 . S
N64 C65 1.244 . S
C65 N64 1.244 . S
H66 C69 0.929 . S
H67 C72 0.929 . S
H68 C74 0.930 . S
C69 H66 0.929 . S
C69 C70 1.398 . S
C69 C71 1.396 1_556 S
C70 C69 1.398 . S
C70 C74 1.407 . S
C71 C69 1.396 1_554 S
C71 C72 1.394 . S
C72 H67 0.929 . S
C72 C71 1.394 . S
C72 C73 1.380 1_554 S
C73 C72 1.380 1_556 S
C73 C74 1.394 . S
C73 N75 1.420 1_556 S
C74 H68 0.930 . S
C74 C70 1.407 . S
C74 C73 1.394 . S
N75 C73 1.420 1_554 S
N75 C76 1.244 . S
C76 N75 1.244 . S
H77 C80 0.929 . S
H78 C83 0.929 . S
H79 C85 0.930 . S
C80 H77 0.929 . S
C80 C81 1.398 . S
C80 C82 1.396 1_556 S
C81 C80 1.398 . S
C81 C85 1.407 . S
C82 C80 1.396 1_554 S
C82 C83 1.394 . S
C83 H78 0.929 . S
C83 C82 1.394 . S
C83 C84 1.382 . S
C84 C83 1.382 . S
C84 C85 1.392 1_554 S
C84 N86 1.420 . S
C85 H79 0.930 . S
C85 C81 1.407 . S
C85 C84 1.392 1_556 S
N86 C84 1.420 . S
N86 C87 1.244 . S
C87 N86 1.244 . S
Tb88 N119 2.660 1_565 S
Tb88 N126 2.590 1_565 S
Tb88 O132 2.546 . S
Tb88 O133 2.610 1_455 S
Tb88 O135 2.320 1_455 S
Tb88 O136 2.552 . S
Tb88 O137 2.413 . S
Tb88 O139 2.362 1_565 S
Tb88 O140 2.421 . S
Tb88 C152 2.833 . S
C89 C92 1.432 1_545 S
C89 C93 1.408 1_545 S
C89 N96 1.359 . S
C90 C92 1.417 . S
C90 C94 1.432 . S
C90 C102 1.410 . S
C91 C93 1.465 . S
C91 C94 1.317 . S
C91 H114 0.929 . S
C92 C89 1.432 1_565 S
C92 C90 1.417 . S
C92 N100 1.369 . S
C93 C89 1.408 1_565 S
C93 C91 1.465 . S
C93 C98 1.370 1_565 S
C94 C90 1.432 . S
C94 C91 1.317 . S
C94 H106 0.930 . S
C95 C97 1.392 . S
C95 C98 1.370 . S
C95 H107 0.931 . S
N96 C89 1.359 . S
N96 C97 1.327 . S
N96 Tb99 2.600 . S
C97 C95 1.392 . S
C97 N96 1.327 . S
C97 H104 0.930 . S
C98 C93 1.370 1_545 S
C98 C95 1.370 . S
C98 H117 0.930 . S
Tb99 N96 2.600 . S
Tb99 N100 2.638 1_545 S
Tb99 O133 2.362 1_545 S
Tb99 O134 2.421 . S
Tb99 O138 2.546 . S
Tb99 O139 2.610 1_655 S
Tb99 O141 2.320 1_655 S
Tb99 O142 2.552 1_655 S
Tb99 O143 2.413 . S
Tb99 C163 2.833 . S
N100 C92 1.369 . S
N100 Tb99 2.638 1_565 S
N100 C101 1.320 1_655 S
C101 N100 1.320 1_455 S
C101 C103 1.407 . S
C101 H108 0.930 . S
C102 C90 1.410 . S
C102 C103 1.345 1_655 S
C102 H110 0.930 . S
C103 C101 1.407 . S
C103 C102 1.345 1_455 S
C103 H105 0.930 . S
H104 C97 0.930 . S
H105 C103 0.930 . S
H106 C94 0.930 . S
H107 C95 0.931 . S
H108 C101 0.930 . S
H109 C123 0.930 1_655 S
H110 C102 0.930 . S
H111 C129 0.930 . S
H112 C120 0.930 1_655 S
H113 C127 0.931 . S
H114 C91 0.929 . S
H115 C121 0.930 . S
H116 C154 0.930 . S
H117 C98 0.930 . S
H118 C153 0.929 . S
N119 Tb88 2.660 1_545 S
N119 C120 1.305 . S
N119 C124 1.360 . S
C120 H112 0.930 1_455 S
C120 N119 1.305 . S
C120 C123 1.407 1_556 S
C121 H115 0.930 . S
C121 C122 1.410 . S
C121 C123 1.345 . S
C122 C121 1.410 . S
C122 C124 1.417 1_554 S
C122 C154 1.432 . S
C123 H109 0.930 1_455 S
C123 C120 1.407 1_554 S
C123 C121 1.345 . S
C124 N119 1.360 . S
C124 C122 1.417 1_556 S
C124 C128 1.432 . S
H125 C130 0.930 . S
N126 Tb88 2.590 1_545 S
N126 C128 1.382 . S
N126 C129 1.311 1_545 S
C127 H113 0.931 . S
C127 C129 1.392 . S
C127 C130 1.370 1_565 S
C128 C124 1.432 . S
C128 N126 1.382 . S
C128 C131 1.414 . S
C129 H111 0.930 . S
C129 N126 1.311 1_565 S
C129 C127 1.392 . S
C130 H125 0.930 . S
C130 C127 1.370 1_545 S
C130 C131 1.385 . S
C131 C128 1.414 . S
C131 C130 1.385 . S
C131 C153 1.444 1_556 S
O132 Tb88 2.546 . S
O132 C152 1.251 . S
O133 Tb88 2.610 1_655 S
O133 Tb99 2.362 1_565 S
O133 C144 1.283 . S
O134 Tb99 2.421 . S
O134 C151 1.262 . S
O135 Tb88 2.320 1_655 S
O135 C151 1.260 1_565 S
O136 Tb88 2.552 . S
O136 C144 1.243 1_455 S
O137 Tb88 2.413 . S
O137 C152 1.256 . S
O138 Tb99 2.546 . S
O138 C163 1.251 . S
O139 Tb88 2.362 1_545 S
O139 Tb99 2.610 1_455 S
O139 C155 1.283 . S
O140 Tb88 2.421 . S
O140 C162 1.262 1_565 S
O141 Tb99 2.320 1_455 S
O141 C162 1.260 . S
O142 Tb99 2.552 1_455 S
O142 C155 1.243 . S
O143 Tb99 2.413 . S
O143 C163 1.256 . S
C144 O133 1.283 . S
C144 O136 1.243 1_655 S
C145 C147 1.382 . S
C145 C149 1.393 . S
C145 C152 1.500 . S
C146 C147 1.400 . S
C146 C148 1.384 1_556 S
C147 C145 1.382 . S
C147 C146 1.400 . S
C147 H164 0.958 . S
C148 C146 1.384 1_554 S
C148 C150 1.392 1_554 S
C148 H165 0.931 . S
C149 C145 1.393 . S
C149 C150 1.401 . S
C149 H166 0.930 . S
C150 C148 1.392 1_556 S
C150 C149 1.401 . S
C150 H167 0.930 . S
C151 O134 1.262 . S
C151 O135 1.260 1_545 S
C152 Tb88 2.833 . S
C152 O132 1.251 . S
C152 O137 1.256 . S
C152 C145 1.500 . S
C153 H118 0.929 . S
C153 C131 1.444 1_554 S
C153 C154 1.317 . S
C154 H116 0.930 . S
C154 C122 1.432 . S
C154 C153 1.317 . S
C155 O139 1.283 . S
C155 O142 1.243 . S
C156 C157 1.382 . S
C156 C160 1.393 . S
C156 C163 1.500 . S
C157 C156 1.382 . S
C157 C158 1.400 . S
C157 H168 0.930 1_655 S
C158 C157 1.400 . S
C158 C159 1.384 . S
C159 C158 1.384 . S
C159 C161 1.392 . S
C159 H169 0.931 . S
C160 C156 1.393 . S
C160 C161 1.401 . S
C160 H170 0.930 . S
C161 C159 1.392 . S
C161 C160 1.401 . S
C161 H171 0.930 . S
C162 O140 1.262 1_545 S
C162 O141 1.260 . S
C163 Tb99 2.833 . S
C163 O138 1.251 . S
C163 O143 1.256 . S
C163 C156 1.500 . S
H164 C147 0.958 . S
H165 C148 0.931 . S
H166 C149 0.930 . S
H167 C150 0.930 . S
H168 C157 0.930 1_455 S
H169 C159 0.931 . S
H170 C160 0.930 . S
H171 C161 0.930 . S
Tb172 N203 2.660 . S
Tb172 N210 2.600 . S
Tb172 O216 2.546 . S
Tb172 O217 2.610 1_545 S
Tb172 O219 2.320 1_545 S
Tb172 O220 2.552 . S
Tb172 O221 2.413 . S
Tb172 O223 2.362 . S
Tb172 O224 2.421 . S
Tb172 C236 2.833 . S
C173 C176 1.432 . S
C173 C177 1.414 . S
C173 N180 1.359 . S
C174 C176 1.417 . S
C174 C178 1.432 . S
C174 C186 1.410 . S
C175 C177 1.444 . S
C175 C178 1.317 . S
C175 H198 0.929 . S
C176 C173 1.432 . S
C176 C174 1.417 . S
C176 N184 1.360 . S
C177 C173 1.414 . S
C177 C175 1.444 . S
C177 C182 1.385 . S
C178 C174 1.432 . S
C178 C175 1.317 . S
C178 H190 0.930 . S
C179 C181 1.392 . S
C179 C182 1.370 . S
C179 H191 0.931 . S
N180 C173 1.359 . S
N180 C181 1.327 . S
N180 Tb183 2.600 . S
C181 C179 1.392 . S
C181 N180 1.327 . S
C181 H188 0.930 . S
C182 C177 1.385 . S
C182 C179 1.370 . S
C182 H201 0.930 . S
Tb183 N180 2.600 . S
Tb183 N184 2.660 . S
Tb183 O217 2.362 . S
Tb183 O218 2.421 . S
Tb183 O222 2.546 . S
Tb183 O223 2.610 1_565 S
Tb183 O225 2.320 1_565 S
Tb183 O226 2.552 1_565 S
Tb183 O227 2.413 . S
Tb183 C247 2.833 . S
N184 C176 1.360 . S
N184 Tb183 2.660 . S
N184 C185 1.305 1_565 S
C185 N184 1.305 1_545 S
C185 C187 1.407 . S
C185 H192 0.930 . S
C186 C174 1.410 . S
C186 C187 1.345 1_565 S
C186 H194 0.930 . S
C187 C185 1.407 . S
C187 C186 1.345 1_545 S
C187 H189 0.930 . S
H188 C181 0.930 . S
H189 C187 0.930 . S
H190 C178 0.930 . S
H191 C179 0.931 . S
H192 C185 0.930 . S
H193 C207 0.930 1_565 S
H194 C186 0.930 . S
H195 C213 0.930 . S
H196 C204 0.930 1_565 S
H197 C211 0.931 . S
H198 C175 0.929 . S
H199 C205 0.930 . S
H200 C238 0.930 . S
H201 C182 0.930 . S
H202 C237 0.929 . S
N203 Tb172 2.660 . S
N203 C204 1.305 . S
N203 C208 1.360 . S
C204 H196 0.930 1_545 S
C204 N203 1.305 . S
C204 C207 1.407 1_556 S
C205 H199 0.930 . S
C205 C206 1.410 . S
C205 C207 1.345 . S
C206 C205 1.410 . S
C206 C208 1.417 1_554 S
C206 C238 1.432 . S
C207 H193 0.930 1_545 S
C207 C204 1.407 1_554 S
C207 C205 1.345 . S
C208 N203 1.360 . S
C208 C206 1.417 1_556 S
C208 C212 1.432 . S
H209 C214 0.930 . S
N210 Tb172 2.600 . S
N210 C212 1.359 . S
N210 C213 1.327 . S
C211 H197 0.931 . S
C211 C213 1.392 . S
C211 C214 1.370 . S
C212 C208 1.432 . S
C212 N210 1.359 . S
C212 C215 1.414 . S
C213 H195 0.930 . S
C213 N210 1.327 . S
C213 C211 1.392 . S
C214 H209 0.930 . S
C214 C211 1.370 . S
C214 C215 1.385 . S
C215 C212 1.414 . S
C215 C214 1.385 . S
C215 C237 1.444 1_556 S
O216 Tb172 2.546 . S
O216 C236 1.251 . S
O217 Tb172 2.610 1_565 S
O217 Tb183 2.362 . S
O217 C228 1.283 . S
O218 Tb183 2.421 . S
O218 C235 1.262 . S
O219 Tb172 2.320 1_565 S
O219 C235 1.260 . S
O220 Tb172 2.552 . S
O220 C228 1.243 1_545 S
O221 Tb172 2.413 . S
O221 C236 1.256 . S
O222 Tb183 2.546 . S
O222 C247 1.251 . S
O223 Tb172 2.362 . S
O223 Tb183 2.610 1_545 S
O223 C239 1.283 . S
O224 Tb172 2.421 . S
O224 C246 1.262 . S
O225 Tb183 2.320 1_545 S
O225 C246 1.260 . S
O226 Tb183 2.552 1_545 S
O226 C239 1.243 . S
O227 Tb183 2.413 . S
O227 C247 1.256 . S
C228 O217 1.283 . S
C228 O220 1.243 1_565 S
C229 C231 1.382 . S
C229 C233 1.393 . S
C229 C236 1.500 . S
C230 C231 1.400 . S
C230 C232 1.384 1_556 S
C231 C229 1.382 . S
C231 C230 1.400 . S
C231 H248 0.930 . S
C232 C230 1.384 1_554 S
C232 C234 1.392 1_554 S
C232 H249 0.931 . S
C233 C229 1.393 . S
C233 C234 1.401 . S
C233 H250 0.930 . S
C234 C232 1.392 1_556 S
C234 C233 1.401 . S
C234 H251 0.930 . S
C235 O218 1.262 . S
C235 O219 1.260 . S
C236 Tb172 2.833 . S
C236 O216 1.251 . S
C236 O221 1.256 . S
C236 C229 1.500 . S
C237 H202 0.929 . S
C237 C215 1.444 1_554 S
C237 C238 1.317 . S
C238 H200 0.930 . S
C238 C206 1.432 . S
C238 C237 1.317 . S
C239 O223 1.283 . S
C239 O226 1.243 . S
C240 C241 1.382 . S
C240 C244 1.393 . S
C240 C247 1.500 . S
C241 C240 1.382 . S
C241 C242 1.400 . S
C241 H252 0.930 1_565 S
C242 C241 1.400 . S
C242 C243 1.384 . S
C243 C242 1.384 . S
C243 C245 1.392 . S
C243 H253 0.931 . S
C244 C240 1.393 . S
C244 C245 1.401 . S
C244 H254 0.930 . S
C245 C243 1.392 . S
C245 C244 1.401 . S
C245 H255 0.930 . S
C246 O224 1.262 . S
C246 O225 1.260 . S
C247 Tb183 2.833 . S
C247 O222 1.251 . S
C247 O227 1.256 . S
C247 C240 1.500 . S
H248 C231 0.930 . S
H249 C232 0.931 . S
H250 C233 0.930 . S
H251 C234 0.930 . S
H252 C241 0.930 1_545 S
H253 C243 0.931 . S
H254 C244 0.930 . S
H255 C245 0.930 . S
Tb256 N287 2.660 . S
Tb256 N294 2.600 . S
Tb256 O300 2.546 . S
Tb256 O301 2.610 . S
Tb256 O303 2.320 . S
Tb256 O304 2.552 . S
Tb256 O305 2.413 . S
Tb256 O307 2.362 . S
Tb256 O308 2.421 . S
Tb256 C320 2.833 . S
C257 C260 1.432 . S
C257 C261 1.414 . S
C257 N264 1.359 . S
C258 C260 1.417 . S
C258 C262 1.432 . S
C258 C270 1.410 . S
C259 C261 1.444 . S
C259 C262 1.317 . S
C259 H282 0.929 . S
C260 C257 1.432 . S
C260 C258 1.417 . S
C260 N268 1.360 . S
C261 C257 1.414 . S
C261 C259 1.444 . S
C261 C266 1.385 . S
C262 C258 1.432 . S
C262 C259 1.317 . S
C262 H274 0.930 . S
C263 C265 1.392 . S
C263 C266 1.370 . S
C263 H275 0.931 . S
N264 C257 1.359 . S
N264 C265 1.327 . S
N264 Tb267 2.600 . S
C265 C263 1.392 . S
C265 N264 1.327 . S
C265 H272 0.930 . S
C266 C261 1.385 . S
C266 C263 1.370 . S
C266 H285 0.930 . S
Tb267 N264 2.600 . S
Tb267 N268 2.660 . S
Tb267 O301 2.362 . S
Tb267 O302 2.421 . S
Tb267 O306 2.546 . S
Tb267 O307 2.610 . S
Tb267 O309 2.320 . S
Tb267 O310 2.552 . S
Tb267 O311 2.413 . S
Tb267 C331 2.833 . S
N268 C260 1.360 . S
N268 Tb267 2.660 . S
N268 C269 1.305 . S
C269 N268 1.305 . S
C269 C271 1.407 . S
C269 H276 0.930 . S
C270 C258 1.410 . S
C270 C271 1.345 . S
C270 H278 0.930 . S
C271 C269 1.407 . S
C271 C270 1.345 . S
C271 H273 0.930 . S
H272 C265 0.930 . S
H273 C271 0.930 . S
H274 C262 0.930 . S
H275 C263 0.931 . S
H276 C269 0.930 . S
H277 C291 0.930 . S
H278 C270 0.930 . S
H279 C297 0.930 . S
H280 C288 0.930 . S
H281 C295 0.931 . S
H282 C259 0.929 . S
H283 C289 0.930 . S
H284 C322 0.930 . S
H285 C266 0.930 . S
H286 C321 0.929 . S
N287 Tb256 2.660 . S
N287 C288 1.305 . S
N287 C292 1.360 . S
C288 H280 0.930 . S
C288 N287 1.305 . S
C288 C291 1.407 . S
C289 H283 0.930 . S
C289 C290 1.410 . S
C289 C291 1.345 . S
C290 C289 1.410 . S
C290 C292 1.417 . S
C290 C322 1.432 . S
C291 H277 0.930 . S
C291 C288 1.407 . S
C291 C289 1.345 . S
C292 N287 1.360 . S
C292 C290 1.417 . S
C292 C296 1.432 . S
H293 C298 0.930 . S
N294 Tb256 2.600 . S
N294 C296 1.359 . S
N294 C297 1.327 . S
C295 H281 0.931 . S
C295 C297 1.392 . S
C295 C298 1.370 . S
C296 C292 1.432 . S
C296 N294 1.359 . S
C296 C299 1.414 . S
C297 H279 0.930 . S
C297 N294 1.327 . S
C297 C295 1.392 . S
C298 H293 0.930 . S
C298 C295 1.370 . S
C298 C299 1.385 . S
C299 C296 1.414 . S
C299 C298 1.385 . S
C299 C321 1.444 . S
O300 Tb256 2.546 . S
O300 C320 1.251 . S
O301 Tb256 2.610 . S
O301 Tb267 2.362 . S
O301 C312 1.283 . S
O302 Tb267 2.421 . S
O302 C319 1.262 . S
O303 Tb256 2.320 . S
O303 C319 1.260 . S
O304 Tb256 2.552 . S
O304 C312 1.243 . S
O305 Tb256 2.413 . S
O305 C320 1.256 . S
O306 Tb267 2.546 . S
O306 C331 1.251 . S
O307 Tb256 2.362 . S
O307 Tb267 2.610 . S
O307 C323 1.283 . S
O308 Tb256 2.421 . S
O308 C330 1.262 . S
O309 Tb267 2.320 . S
O309 C330 1.260 . S
O310 Tb267 2.552 . S
O310 C323 1.243 . S
O311 Tb267 2.413 . S
O311 C331 1.256 . S
C312 O301 1.283 . S
C312 O304 1.243 . S
C313 C315 1.382 . S
C313 C317 1.393 . S
C313 C320 1.500 . S
C314 C315 1.400 . S
C314 C316 1.384 . S
C315 C313 1.382 . S
C315 C314 1.400 . S
C315 H332 0.930 . S
C316 C314 1.384 . S
C316 C318 1.392 . S
C316 H333 0.931 . S
C317 C313 1.393 . S
C317 C318 1.401 . S
C317 H334 0.930 . S
C318 C316 1.392 . S
C318 C317 1.401 . S
C318 H335 0.930 . S
C319 O302 1.262 . S
C319 O303 1.260 . S
C320 Tb256 2.833 . S
C320 O300 1.251 . S
C320 O305 1.256 . S
C320 C313 1.500 . S
C321 H286 0.929 . S
C321 C299 1.444 . S
C321 C322 1.317 . S
C322 H284 0.930 . S
C322 C290 1.432 . S
C322 C321 1.317 . S
C323 O307 1.283 . S
C323 O310 1.243 . S
C324 C325 1.382 . S
C324 C328 1.393 1_556 S
C324 C331 1.500 . S
C325 C324 1.382 . S
C325 C326 1.400 1_556 S
C325 H336 0.930 . S
C326 C325 1.400 1_554 S
C326 C327 1.384 . S
C327 C326 1.384 . S
C327 C329 1.392 . S
C327 H337 0.931 . S
C328 C324 1.393 1_554 S
C328 C329 1.401 . S
C328 H338 0.930 . S
C329 C327 1.392 . S
C329 C328 1.401 . S
C329 H339 0.930 . S
C330 O308 1.262 . S
C330 O309 1.260 . S
C331 Tb267 2.833 . S
C331 O306 1.251 . S
C331 O311 1.256 . S
C331 C324 1.500 . S
H332 C315 0.930 . S
H333 C316 0.931 . S
H334 C317 0.930 . S
H335 C318 0.930 . S
H336 C325 0.930 . S
H337 C327 0.931 . S
H338 C328 0.930 . S
H339 C329 0.930 . S
Tb340 N371 2.660 . S
Tb340 N378 2.600 . S
Tb340 O384 2.546 . S
Tb340 O385 2.610 . S
Tb340 O387 2.320 . S
Tb340 O388 2.552 . S
Tb340 O389 2.413 . S
Tb340 O391 2.362 . S
Tb340 O392 2.421 1_455 S
Tb340 C404 2.833 . S
C341 C344 1.432 . S
C341 C345 1.414 . S
C341 N348 1.359 . S
C342 C344 1.417 . S
C342 C346 1.432 . S
C342 C354 1.410 . S
C343 C345 1.444 . S
C343 C346 1.317 . S
C343 H366 0.929 . S
C344 C341 1.432 . S
C344 C342 1.417 . S
C344 N352 1.360 . S
C345 C341 1.414 . S
C345 C343 1.444 . S
C345 C350 1.385 1_655 S
C346 C342 1.432 . S
C346 C343 1.317 . S
C346 H358 0.930 . S
C347 C349 1.392 . S
C347 C350 1.370 . S
C347 H359 0.931 . S
N348 C341 1.359 . S
N348 C349 1.327 1_655 S
N348 Tb351 2.600 . S
C349 C347 1.392 . S
C349 N348 1.327 1_455 S
C349 H356 0.930 . S
C350 C345 1.385 1_455 S
C350 C347 1.370 . S
C350 H369 0.930 . S
Tb351 N348 2.600 . S
Tb351 N352 2.660 . S
Tb351 O385 2.362 1_655 S
Tb351 O386 2.421 1_655 S
Tb351 O390 2.546 . S
Tb351 O391 2.610 1_655 S
Tb351 O393 2.320 . S
Tb351 O394 2.552 . S
Tb351 O395 2.413 . S
Tb351 C415 2.833 . S
N352 C344 1.360 . S
N352 Tb351 2.660 . S
N352 C353 1.305 . S
C353 N352 1.305 . S
C353 C355 1.407 . S
C353 H360 0.930 . S
C354 C342 1.410 . S
C354 C355 1.345 . S
C354 H362 0.930 . S
C355 C353 1.407 . S
C355 C354 1.345 . S
C355 H357 0.930 . S
H356 C349 0.930 . S
H357 C355 0.930 . S
H358 C346 0.930 . S
H359 C347 0.931 . S
H360 C353 0.930 . S
H361 C375 0.930 . S
H362 C354 0.930 . S
H363 C381 0.927 1_655 S
H364 C372 0.930 . S
H365 C379 0.931 . S
H366 C343 0.929 . S
H367 C373 0.930 . S
H368 C406 0.930 . S
H369 C350 0.930 . S
H370 C405 0.929 . S
N371 Tb340 2.660 . S
N371 C372 1.305 . S
N371 C376 1.360 . S
C372 H364 0.930 . S
C372 N371 1.305 . S
C372 C375 1.407 . S
C373 H367 0.930 . S
C373 C374 1.410 . S
C373 C375 1.345 . S
C374 C373 1.410 . S
C374 C376 1.417 . S
C374 C406 1.432 . S
C375 H361 0.930 . S
C375 C372 1.407 . S
C375 C373 1.345 . S
C376 N371 1.360 . S
C376 C374 1.417 . S
C376 C380 1.432 . S
H377 C382 0.930 . S
N378 Tb340 2.600 . S
N378 C380 1.359 . S
N378 C381 1.331 . S
C379 H365 0.931 . S
C379 C381 1.392 1_655 S
C379 C382 1.370 1_655 S
C380 C376 1.432 . S
C380 N378 1.359 . S
C380 C383 1.414 . S
C381 H363 0.927 1_455 S
C381 N378 1.331 . S
C381 C379 1.392 1_455 S
C382 H377 0.930 . S
C382 C379 1.370 1_455 S
C382 C383 1.385 . S
C383 C380 1.414 . S
C383 C382 1.385 . S
C383 C405 1.444 . S
O384 Tb340 2.546 . S
O384 C404 1.251 . S
O385 Tb340 2.610 . S
O385 Tb351 2.362 1_455 S
O385 C396 1.283 . S
O386 Tb351 2.421 1_455 S
O386 C403 1.262 . S
O387 Tb340 2.320 . S
O387 C403 1.260 . S
O388 Tb340 2.552 . S
O388 C396 1.243 . S
O389 Tb340 2.413 . S
O389 C404 1.256 . S
O390 Tb351 2.546 . S
O390 C415 1.251 . S
O391 Tb340 2.362 . S
O391 Tb351 2.610 1_455 S
O391 C407 1.283 1_455 S
O392 Tb340 2.421 1_655 S
O392 C414 1.262 . S
O393 Tb351 2.320 . S
O393 C414 1.260 . S
O394 Tb351 2.552 . S
O394 C407 1.243 . S
O395 Tb351 2.413 . S
O395 C415 1.256 . S
C396 O385 1.283 . S
C396 O388 1.243 . S
C397 C399 1.382 . S
C397 C401 1.393 . S
C397 C404 1.500 . S
C398 C399 1.400 . S
C398 C400 1.384 . S
C399 C397 1.382 . S
C399 C398 1.400 . S
C399 H416 0.930 . S
C400 C398 1.384 . S
C400 C402 1.392 . S
C400 H417 0.931 . S
C401 C397 1.393 . S
C401 C402 1.401 . S
C401 H418 0.930 . S
C402 C400 1.392 . S
C402 C401 1.401 . S
C402 H419 0.930 . S
C403 O386 1.262 . S
C403 O387 1.260 . S
C404 Tb340 2.833 . S
C404 O384 1.251 . S
C404 O389 1.256 . S
C404 C397 1.500 . S
C405 H370 0.929 . S
C405 C383 1.444 . S
C405 C406 1.317 . S
C406 H368 0.930 . S
C406 C374 1.432 . S
C406 C405 1.317 . S
C407 O391 1.283 1_655 S
C407 O394 1.243 . S
C408 C409 1.382 . S
C408 C412 1.393 1_556 S
C408 C415 1.500 . S
C409 C408 1.382 . S
C409 C410 1.400 1_556 S
C409 H420 0.930 . S
C410 C409 1.400 1_554 S
C410 C411 1.384 . S
C411 C410 1.384 . S
C411 C413 1.392 . S
C411 H421 0.931 . S
C412 C408 1.393 1_554 S
C412 C413 1.401 . S
C412 H422 0.930 . S
C413 C411 1.392 . S
C413 C412 1.401 . S
C413 H423 0.930 . S
C414 O392 1.262 . S
C414 O393 1.260 . S
C415 Tb351 2.833 . S
C415 O390 1.251 . S
C415 O395 1.256 . S
C415 C408 1.500 . S
H416 C399 0.930 . S
H417 C400 0.931 . S
H418 C401 0.930 . S
H419 C402 0.930 . S
H420 C409 0.930 . S
H421 C411 0.931 . S
H422 C412 0.930 . S
H423 C413 0.930 . S
H424 C430 0.930 . S
H425 C434 0.930 1_565 S
H426 C439 0.929 . S
H427 C437 0.929 . S
H428 C432 0.943 . S
H429 C438 0.929 . S
C430 H424 0.930 . S
C430 C431 1.367 . S
C430 C438 1.378 . S
C431 C430 1.367 . S
C431 C439 1.433 . S
C432 H428 0.943 . S
C432 C434 1.378 . S
C432 C436 1.350 . S
C433 C436 1.463 . S
C433 C438 1.350 . S
C433 N441 1.427 . S
C434 H425 0.930 1_545 S
C434 C432 1.378 . S
C434 C435 1.367 . S
C435 C434 1.367 . S
C435 C437 1.433 . S
C436 C432 1.350 . S
C436 C433 1.463 . S
C436 N440 1.427 . S
C437 H427 0.929 . S
C437 C435 1.433 . S
C437 N440 1.384 . S
C438 H429 0.929 . S
C438 C430 1.378 . S
C438 C433 1.350 . S
C439 H426 0.929 . S
C439 C431 1.433 . S
C439 N441 1.384 . S
N440 C436 1.427 . S
N440 C437 1.384 . S
N441 C433 1.427 . S
N441 C439 1.384 . S
H442 C448 0.930 . S
H443 C452 0.930 . S
H444 C457 0.929 . S
H445 C455 0.929 . S
H446 C450 0.929 . S
H447 C456 0.929 . S
C448 H442 0.930 . S
C448 C449 1.367 . S
C448 C456 1.378 . S
C449 C448 1.367 . S
C449 C457 1.433 . S
C450 H446 0.929 . S
C450 C452 1.378 . S
C450 C454 1.350 . S
C451 C454 1.463 . S
C451 C456 1.350 . S
C451 N459 1.427 . S
C452 H443 0.930 . S
C452 C450 1.378 . S
C452 C453 1.367 . S
C453 C452 1.367 . S
C453 C455 1.433 . S
C454 C450 1.350 . S
C454 C451 1.463 . S
C454 N458 1.427 . S
C455 H445 0.929 . S
C455 C453 1.433 . S
C455 N458 1.384 . S
C456 H447 0.929 . S
C456 C448 1.378 . S
C456 C451 1.350 . S
C457 H444 0.929 . S
C457 C449 1.433 . S
C457 N459 1.384 . S
N458 C454 1.427 . S
N458 C455 1.384 . S
N459 C451 1.427 . S
N459 C457 1.384 . S
H460 C466 0.930 . S
H461 C470 0.930 . S
H462 C475 0.929 . S
H463 C473 0.929 . S
H464 C468 0.929 . S
H465 C474 0.929 . S
C466 H460 0.930 . S
C466 C467 1.367 . S
C466 C474 1.378 . S
C467 C466 1.367 . S
C467 C475 1.433 . S
C468 H464 0.929 . S
C468 C470 1.378 . S
C468 C472 1.350 . S
C469 C472 1.463 . S
C469 C474 1.350 . S
C469 N477 1.427 . S
C470 H461 0.930 . S
C470 C468 1.378 . S
C470 C471 1.367 . S
C471 C470 1.367 . S
C471 C473 1.433 . S
C472 C468 1.350 . S
C472 C469 1.463 . S
C472 N476 1.427 . S
C473 H463 0.929 . S
C473 C471 1.433 . S
C473 N476 1.384 . S
C474 H465 0.929 . S
C474 C466 1.378 . S
C474 C469 1.350 . S
C475 H462 0.929 . S
C475 C467 1.433 . S
C475 N477 1.384 . S
N476 C472 1.427 . S
N476 C473 1.384 . S
N477 C469 1.427 . S
N477 C475 1.384 . S
H478 C484 0.930 . S
H479 C488 0.930 . S
H480 C493 0.929 . S
H481 C491 0.929 . S
H482 C486 0.929 . S
H483 C492 0.929 . S
C484 H478 0.930 . S
C484 C485 1.367 . S
C484 C492 1.378 . S
C485 C484 1.367 . S
C485 C493 1.433 . S
C486 H482 0.929 . S
C486 C488 1.378 . S
C486 C490 1.350 . S
C487 C490 1.463 . S
C487 C492 1.350 . S
C487 N495 1.427 . S
C488 H479 0.930 . S
C488 C486 1.378 . S
C488 C489 1.367 . S
C489 C488 1.367 . S
C489 C491 1.433 . S
C490 C486 1.350 . S
C490 C487 1.463 . S
C490 N494 1.427 . S
C491 H481 0.929 . S
C491 C489 1.433 . S
C491 N494 1.384 . S
C492 H483 0.929 . S
C492 C484 1.378 . S
C492 C487 1.350 . S
C493 H480 0.929 . S
C493 C485 1.433 . S
C493 N495 1.384 . S
N494 C490 1.427 . S
N494 C491 1.384 . S
N495 C487 1.427 . S
N495 C493 1.384 . S
H496 C502 0.930 1_545 S
H497 C506 0.930 . S
H498 C511 0.929 . S
H499 C509 0.929 . S
H500 C504 0.929 . S
H501 C510 0.929 1_545 S
C502 H496 0.930 1_565 S
C502 C503 1.367 . S
C502 C510 1.378 . S
C503 C502 1.367 . S
C503 C511 1.433 . S
C504 H500 0.929 . S
C504 C506 1.378 . S
C504 C508 1.350 . S
C505 C508 1.463 1_554 S
C505 C510 1.350 . S
C505 N513 1.427 . S
C506 H497 0.930 . S
C506 C504 1.378 . S
C506 C507 1.367 . S
C507 C506 1.367 . S
C507 C509 1.433 1_565 S
C508 C504 1.350 . S
C508 C505 1.463 1_556 S
C508 N512 1.427 1_565 S
C509 H499 0.929 . S
C509 C507 1.433 1_545 S
C509 N512 1.384 . S
C510 H501 0.929 1_565 S
C510 C502 1.378 . S
C510 C505 1.350 . S
C511 H498 0.929 . S
C511 C503 1.433 . S
C511 N513 1.384 . S
N512 C508 1.427 1_545 S
N512 C509 1.384 . S
N513 C505 1.427 . S
N513 C511 1.384 . S
H514 C520 0.930 . S
H515 C524 0.930 . S
H516 C529 0.929 . S
H517 C527 0.929 . S
H518 C522 0.929 . S
H519 C528 0.929 . S
C520 H514 0.930 . S
C520 C521 1.367 . S
C520 C528 1.378 . S
C521 C520 1.367 . S
C521 C529 1.433 . S
C522 H518 0.929 . S
C522 C524 1.378 . S
C522 C526 1.350 . S
C523 C526 1.463 1_554 S
C523 C528 1.350 . S
C523 N531 1.427 . S
C524 H515 0.930 . S
C524 C522 1.378 . S
C524 C525 1.367 . S
C525 C524 1.367 . S
C525 C527 1.433 . S
C526 C522 1.350 . S
C526 C523 1.463 1_556 S
C526 N530 1.427 . S
C527 H517 0.929 . S
C527 C525 1.433 . S
C527 N530 1.384 . S
C528 H519 0.929 . S
C528 C520 1.378 . S
C528 C523 1.350 . S
C529 H516 0.929 . S
C529 C521 1.433 . S
C529 N531 1.384 . S
N530 C526 1.427 . S
N530 C527 1.384 . S
N531 C523 1.427 . S
N531 C529 1.384 . S
H532 C538 0.930 . S
H533 C542 0.930 . S
H534 C547 0.929 . S
H535 C545 0.929 . S
H536 C540 0.929 1_554 S
H537 C546 0.929 1_556 S
C538 H532 0.930 . S
C538 C539 1.367 . S
C538 C546 1.378 . S
C539 C538 1.367 . S
C539 C547 1.433 . S
C540 H536 0.929 1_556 S
C540 C542 1.378 . S
C540 C544 1.350 . S
C541 C544 1.463 1_554 S
C541 C546 1.350 . S
C541 N549 1.427 . S
C542 H533 0.930 . S
C542 C540 1.378 . S
C542 C543 1.367 . S
C543 C542 1.367 . S
C543 C545 1.433 . S
C544 C540 1.350 . S
C544 C541 1.463 1_556 S
C544 N548 1.427 . S
C545 H535 0.929 . S
C545 C543 1.433 . S
C545 N548 1.384 . S
C546 H537 0.929 1_554 S
C546 C538 1.378 . S
C546 C541 1.350 . S
C547 H534 0.929 . S
C547 C539 1.433 . S
C547 N549 1.384 . S
N548 C544 1.427 . S
N548 C545 1.384 . S
N549 C541 1.427 . S
N549 C547 1.384 . S
H550 C556 0.930 . S
H551 C560 0.930 . S
H552 C565 0.929 . S
H553 C563 0.929 1_455 S
H554 C558 0.929 1_554 S
H555 C564 0.929 1_556 S
C556 H550 0.930 . S
C556 C557 1.367 . S
C556 C564 1.378 . S
C557 C556 1.367 . S
C557 C565 1.433 . S
C558 H554 0.929 1_556 S
C558 C560 1.378 . S
C558 C562 1.350 . S
C559 C562 1.463 1_554 S
C559 C564 1.350 . S
C559 N567 1.427 . S
C560 H551 0.930 . S
C560 C558 1.378 . S
C560 C561 1.367 . S
C561 C560 1.367 . S
C561 C563 1.433 . S
C562 C558 1.350 . S
C562 C559 1.463 1_556 S
C562 N566 1.427 . S
C563 H553 0.929 1_655 S
C563 C561 1.433 . S
C563 N566 1.384 . S
C564 H555 0.929 1_554 S
C564 C556 1.378 . S
C564 C559 1.350 . S
C565 H552 0.929 . S
C565 C557 1.433 . S
C565 N567 1.384 . S
N566 C562 1.427 . S
N566 C563 1.384 . S
N567 C559 1.427 . S
N567 C565 1.384 . S
H568 C574 0.930 1_556 S
H569 C578 0.930 . S
H570 C583 0.929 . S
H571 C581 0.929 1_655 S
H572 C576 0.929 . S
H573 C582 0.929 . S
C574 H568 0.930 1_554 S
C574 C575 1.367 . S
C574 C582 1.378 . S
C575 C574 1.367 . S
C575 C583 1.433 . S
C576 H572 0.929 . S
C576 C578 1.378 . S
C576 C580 1.350 . S
C577 C580 1.463 . S
C577 C582 1.350 . S
C577 N585 1.427 . S
C578 H569 0.930 . S
C578 C576 1.378 . S
C578 C579 1.367 . S
C579 C578 1.367 . S
C579 C581 1.433 . S
C580 C576 1.350 . S
C580 C577 1.463 . S
C580 N584 1.427 . S
C581 H571 0.929 1_455 S
C581 C579 1.433 . S
C581 N584 1.384 . S
C582 H573 0.929 . S
C582 C574 1.378 . S
C582 C577 1.350 . S
C583 H570 0.929 . S
C583 C575 1.433 . S
C583 N585 1.384 . S
N584 C580 1.427 . S
N584 C581 1.384 . S
N585 C577 1.427 . S
N585 C583 1.384 . S
H586 C592 0.930 1_556 S
H587 C596 0.930 . S
H588 C601 0.929 . S
H589 C599 0.929 1_565 S
H590 C594 0.929 . S
H591 C600 0.929 . S
C592 H586 0.930 1_554 S
C592 C593 1.367 . S
C592 C600 1.378 . S
C593 C592 1.367 . S
C593 C601 1.433 . S
C594 H590 0.929 . S
C594 C596 1.378 . S
C594 C598 1.350 . S
C595 C598 1.463 . S
C595 C600 1.350 . S
C595 N603 1.427 . S
C596 H587 0.930 . S
C596 C594 1.378 . S
C596 C597 1.367 . S
C597 C596 1.367 . S
C597 C599 1.433 . S
C598 C594 1.350 . S
C598 C595 1.463 . S
C598 N602 1.427 . S
C599 H589 0.929 1_545 S
C599 C597 1.433 . S
C599 N602 1.384 . S
C600 H591 0.929 . S
C600 C592 1.378 . S
C600 C595 1.350 . S
C601 H588 0.929 . S
C601 C593 1.433 . S
C601 N603 1.384 . S
N602 C598 1.427 . S
N602 C599 1.384 . S
N603 C595 1.427 . S
N603 C601 1.384 . S
H604 C610 0.930 . S
H605 C614 0.930 . S
H606 C619 0.929 1_556 S
H607 C617 0.929 . S
H608 C612 0.929 . S
H609 C618 0.929 . S
C610 H604 0.930 . S
C610 C611 1.367 . S
C610 C618 1.378 . S
C611 C610 1.367 . S
C611 C619 1.433 . S
C612 H608 0.929 . S
C612 C614 1.378 . S
C612 C616 1.350 . S
C613 C616 1.463 . S
C613 C618 1.350 . S
C613 N621 1.427 . S
C614 H605 0.930 . S
C614 C612 1.378 . S
C614 C615 1.367 . S
C615 C614 1.367 . S
C615 C617 1.433 . S
C616 C612 1.350 . S
C616 C613 1.463 . S
C616 N620 1.427 . S
C617 H607 0.929 . S
C617 C615 1.433 . S
C617 N620 1.384 . S
C618 H609 0.929 . S
C618 C610 1.378 . S
C618 C613 1.350 . S
C619 H606 0.929 1_554 S
C619 C611 1.433 . S
C619 N621 1.384 . S
N620 C616 1.427 . S
N620 C617 1.384 . S
N621 C613 1.427 . S
N621 C619 1.384 . S
H622 C628 0.930 . S
H623 C632 0.930 . S
H624 C637 0.934 . S
H625 C635 0.929 . S
H626 C630 0.929 . S
H627 C636 0.929 . S
C628 H622 0.930 . S
C628 C629 1.367 . S
C628 C636 1.378 . S
C629 C628 1.367 . S
C629 C637 1.433 . S
C630 H626 0.929 . S
C630 C632 1.378 . S
C630 C634 1.350 . S
C631 C634 1.463 . S
C631 C636 1.350 . S
C631 N639 1.427 . S
C632 H623 0.930 . S
C632 C630 1.378 . S
C632 C633 1.367 . S
C633 C632 1.367 . S
C633 C635 1.433 . S
C634 C630 1.350 . S
C634 C631 1.463 . S
C634 N638 1.427 . S
C635 H625 0.929 . S
C635 C633 1.433 . S
C635 N638 1.384 . S
C636 H627 0.929 . S
C636 C628 1.378 . S
C636 C631 1.350 . S
C637 H624 0.934 . S
C637 C629 1.433 . S
C637 N639 1.384 . S
N638 C634 1.427 . S
N638 C635 1.384 . S
N639 C631 1.427 . S
N639 C637 1.384 . S
H640 C646 0.930 . S
H641 C650 0.930 . S
H642 C655 0.929 . S
H643 C653 0.929 . S
H644 C648 0.929 . S
H645 C654 0.929 . S
C646 H640 0.930 . S
C646 C647 1.367 . S
C646 C654 1.378 . S
C647 C646 1.367 . S
C647 C655 1.433 . S
C648 H644 0.929 . S
C648 C650 1.378 . S
C648 C652 1.350 1_455 S
C649 C652 1.463 . S
C649 C654 1.350 . S
C649 N657 1.427 . S
C650 H641 0.930 . S
C650 C648 1.378 . S
C650 C651 1.367 1_554 S
C651 C650 1.367 1_556 S
C651 C653 1.433 1_455 S
C652 C648 1.350 1_655 S
C652 C649 1.463 . S
C652 N656 1.427 . S
C653 H643 0.929 . S
C653 C651 1.433 1_655 S
C653 N656 1.384 1_556 S
C654 H645 0.929 . S
C654 C646 1.378 . S
C654 C649 1.350 . S
C655 H642 0.929 . S
C655 C647 1.433 . S
C655 N657 1.384 . S
N656 C652 1.427 . S
N656 C653 1.384 1_554 S
N657 C649 1.427 . S
N657 C655 1.384 . S
H658 C664 0.930 . S
H659 C668 0.930 . S
H660 C673 0.929 . S
H661 C671 0.929 . S
H662 C666 0.929 . S
H663 C672 0.929 1_545 S
C664 H658 0.930 . S
C664 C665 1.367 . S
C664 C672 1.378 . S
C665 C664 1.367 . S
C665 C673 1.433 . S
C666 H662 0.929 . S
C666 C668 1.378 . S
C666 C670 1.350 . S
C667 C670 1.463 . S
C667 C672 1.350 . S
C667 N675 1.427 . S
C668 H659 0.930 . S
C668 C666 1.378 . S
C668 C669 1.367 1_564 S
C669 C668 1.367 1_546 S
C669 C671 1.433 . S
C670 C666 1.350 . S
C670 C667 1.463 . S
C670 N674 1.427 1_565 S
C671 H661 0.929 . S
C671 C669 1.433 . S
C671 N674 1.384 1_556 S
C672 H663 0.929 1_565 S
C672 C664 1.378 . S
C672 C667 1.350 . S
C673 H660 0.929 . S
C673 C665 1.433 . S
C673 N675 1.384 . S
N674 C670 1.427 1_545 S
N674 C671 1.384 1_554 S
N675 C667 1.427 . S
N675 C673 1.384 . S
H676 C682 0.930 . S
H677 C686 0.930 . S
H678 C691 0.929 . S
H679 C689 0.929 . S
H680 C684 0.929 . S
H681 C690 0.929 . S
C682 H676 0.930 . S
C682 C683 1.367 . S
C682 C690 1.378 . S
C683 C682 1.367 . S
C683 C691 1.433 . S
C684 H680 0.929 . S
C684 C686 1.378 . S
C684 C688 1.350 1_556 S
C685 C688 1.463 . S
C685 C690 1.350 . S
C685 N693 1.427 . S
C686 H677 0.930 . S
C686 C684 1.378 . S
C686 C687 1.367 1_556 S
C687 C686 1.367 1_554 S
C687 C689 1.433 . S
C688 C684 1.350 1_554 S
C688 C685 1.463 . S
C688 N692 1.427 . S
C689 H679 0.929 . S
C689 C687 1.433 . S
C689 N692 1.384 . S
C690 H681 0.929 . S
C690 C682 1.378 . S
C690 C685 1.350 . S
C691 H678 0.929 . S
C691 C683 1.433 . S
C691 N693 1.384 . S
N692 C688 1.427 . S
N692 C689 1.384 . S
N693 C685 1.427 . S
N693 C691 1.384 . S
H694 C700 0.930 . S
H695 C704 0.930 . S
H696 C709 0.929 . S
H697 C707 0.929 . S
H698 C702 0.929 . S
H699 C708 0.929 . S
C700 H694 0.930 . S
C700 C701 1.367 . S
C700 C708 1.378 . S
C701 C700 1.367 . S
C701 C709 1.433 . S
C702 H698 0.929 . S
C702 C704 1.378 . S
C702 C706 1.350 . S
C703 C706 1.463 . S
C703 C708 1.350 . S
C703 N711 1.427 . S
C704 H695 0.930 . S
C704 C702 1.378 . S
C704 C705 1.367 . S
C705 C704 1.367 . S
C705 C707 1.433 . S
C706 C702 1.350 . S
C706 C703 1.463 . S
C706 N710 1.427 . S
C707 H697 0.929 . S
C707 C705 1.433 . S
C707 N710 1.384 . S
C708 H699 0.929 . S
C708 C700 1.378 . S
C708 C703 1.350 . S
C709 H696 0.929 . S
C709 C701 1.433 . S
C709 N711 1.384 . S
N710 C706 1.427 . S
N710 C707 1.384 . S
N711 C703 1.427 . S
N711 C709 1.384 . S
H712 C718 0.930 . S
H713 C722 0.930 . S
H714 C727 0.929 . S
H715 C725 0.929 . S
H716 C720 0.929 . S
H717 C726 0.929 . S
C718 H712 0.930 . S
C718 C719 1.367 . S
C718 C726 1.378 . S
C719 C718 1.367 . S
C719 C727 1.433 . S
C720 H716 0.929 . S
C720 C722 1.378 . S
C720 C724 1.350 . S
C721 C724 1.463 . S
C721 C726 1.350 . S
C721 N729 1.427 . S
C722 H713 0.930 . S
C722 C720 1.378 . S
C722 C723 1.367 . S
C723 C722 1.367 . S
C723 C725 1.433 . S
C724 C720 1.350 . S
C724 C721 1.463 . S
C724 N728 1.427 . S
C725 H715 0.929 . S
C725 C723 1.433 . S
C725 N728 1.384 . S
C726 H717 0.929 . S
C726 C718 1.378 . S
C726 C721 1.350 . S
C727 H714 0.929 . S
C727 C719 1.433 . S
C727 N729 1.384 . S
N728 C724 1.427 . S
N728 C725 1.384 . S
N729 C721 1.427 . S
N729 C727 1.384 . S
H730 C736 0.930 . S
H731 C740 0.930 . S
H732 C745 0.929 . S
H733 C743 0.929 1_565 S
H734 C738 0.929 . S
H735 C744 0.929 . S
C736 H730 0.930 . S
C736 C737 1.367 . S
C736 C744 1.378 . S
C737 C736 1.367 . S
C737 C745 1.433 . S
C738 H734 0.929 . S
C738 C740 1.378 . S
C738 C742 1.350 . S
C739 C742 1.463 . S
C739 C744 1.350 . S
C739 N747 1.427 . S
C740 H731 0.930 . S
C740 C738 1.378 . S
C740 C741 1.367 . S
C741 C740 1.367 . S
C741 C743 1.433 . S
C742 C738 1.350 . S
C742 C739 1.463 . S
C742 N746 1.427 . S
C743 H733 0.929 1_545 S
C743 C741 1.433 . S
C743 N746 1.384 . S
C744 H735 0.929 . S
C744 C736 1.378 . S
C744 C739 1.350 . S
C745 H732 0.929 . S
C745 C737 1.433 . S
C745 N747 1.384 . S
N746 C742 1.427 . S
N746 C743 1.384 . S
N747 C739 1.427 . S
N747 C745 1.384 . S
H748 C754 0.930 . S
H749 C758 0.930 . S
H750 C763 0.929 . S
H751 C761 0.929 . S
H752 C756 0.929 . S
H753 C762 0.929 . S
C754 H748 0.930 . S
C754 C755 1.367 . S
C754 C762 1.378 . S
C755 C754 1.367 . S
C755 C763 1.433 . S
C756 H752 0.929 . S
C756 C758 1.378 . S
C756 C760 1.350 . S
C757 C760 1.463 . S
C757 C762 1.350 . S
C757 N765 1.427 . S
C758 H749 0.930 . S
C758 C756 1.378 . S
C758 C759 1.367 . S
C759 C758 1.367 . S
C759 C761 1.433 . S
C760 C756 1.350 . S
C760 C757 1.463 . S
C760 N764 1.427 . S
C761 H751 0.929 . S
C761 C759 1.433 . S
C761 N764 1.384 . S
C762 H753 0.929 . S
C762 C754 1.378 . S
C762 C757 1.350 . S
C763 H750 0.929 . S
C763 C755 1.433 . S
C763 N765 1.384 . S
N764 C760 1.427 . S
N764 C761 1.384 . S
N765 C757 1.427 . S
N765 C763 1.384 . S
H766 C772 0.930 . S
H767 C776 0.930 . S
H768 C781 0.929 . S
H769 C779 0.929 . S
H770 C774 0.929 . S
H771 C780 0.929 . S
C772 H766 0.930 . S
C772 C773 1.367 . S
C772 C780 1.378 . S
C773 C772 1.367 . S
C773 C781 1.433 . S
C774 H770 0.929 . S
C774 C776 1.378 . S
C774 C778 1.350 . S
C775 C778 1.463 . S
C775 C780 1.350 . S
C775 N783 1.427 . S
C776 H767 0.930 . S
C776 C774 1.378 . S
C776 C777 1.367 . S
C777 C776 1.367 . S
C777 C779 1.433 . S
C778 C774 1.350 . S
C778 C775 1.463 . S
C778 N782 1.427 . S
C779 H769 0.929 . S
C779 C777 1.433 . S
C779 N782 1.384 . S
C780 H771 0.929 . S
C780 C772 1.378 . S
C780 C775 1.350 . S
C781 H768 0.929 . S
C781 C773 1.433 . S
C781 N783 1.384 . S
N782 C778 1.427 . S
N782 C779 1.384 . S
N783 C775 1.427 . S
N783 C781 1.384 . S
H784 C790 0.930 . S
H785 C794 0.930 . S
H786 C799 0.929 . S
H787 C797 0.929 . S
H788 C792 0.929 . S
H789 C798 0.929 . S
C790 H784 0.930 . S
C790 C791 1.367 . S
C790 C798 1.378 . S
C791 C790 1.367 . S
C791 C799 1.433 . S
C792 H788 0.929 . S
C792 C794 1.378 . S
C792 C796 1.350 . S
C793 C796 1.463 . S
C793 C798 1.350 . S
C793 N801 1.427 . S
C794 H785 0.930 . S
C794 C792 1.378 . S
C794 C795 1.367 . S
C795 C794 1.367 . S
C795 C797 1.433 . S
C796 C792 1.350 . S
C796 C793 1.463 . S
C796 N800 1.427 . S
C797 H787 0.929 . S
C797 C795 1.433 . S
C797 N800 1.384 . S
C798 H789 0.929 . S
C798 C790 1.378 . S
C798 C793 1.350 . S
C799 H786 0.929 . S
C799 C791 1.433 . S
C799 N801 1.384 . S
N800 C796 1.427 . S
N800 C797 1.384 . S
N801 C793 1.427 . S
N801 C799 1.384 . S
H802 C808 0.930 . S
H803 C812 0.930 . S
H804 C817 0.929 . S
H805 C815 0.929 . S
H806 C810 0.929 . S
H807 C816 0.929 . S
C808 H802 0.930 . S
C808 C809 1.367 . S
C808 C816 1.378 . S
C809 C808 1.367 . S
C809 C817 1.433 . S
C810 H806 0.929 . S
C810 C812 1.378 . S
C810 C814 1.350 . S
C811 C814 1.463 . S
C811 C816 1.350 . S
C811 N819 1.427 . S
C812 H803 0.930 . S
C812 C810 1.378 . S
C812 C813 1.367 . S
C813 C812 1.367 . S
C813 C815 1.433 . S
C814 C810 1.350 . S
C814 C811 1.463 . S
C814 N818 1.427 . S
C815 H805 0.929 . S
C815 C813 1.433 . S
C815 N818 1.384 . S
C816 H807 0.929 . S
C816 C808 1.378 . S
C816 C811 1.350 . S
C817 H804 0.929 . S
C817 C809 1.433 . S
C817 N819 1.384 . S
N818 C814 1.427 . S
N818 C815 1.384 . S
N819 C811 1.427 . S
N819 C817 1.384 . S
H820 C826 0.930 . S
H821 C830 0.930 . S
H822 C835 0.929 . S
H823 C833 0.929 . S
H824 C828 0.929 . S
H825 C834 0.929 . S
C826 H820 0.930 . S
C826 C827 1.367 . S
C826 C834 1.378 . S
C827 C826 1.367 . S
C827 C835 1.433 . S
C828 H824 0.929 . S
C828 C830 1.378 . S
C828 C832 1.350 . S
C829 C832 1.463 . S
C829 C834 1.350 . S
C829 N837 1.427 . S
C830 H821 0.930 . S
C830 C828 1.378 . S
C830 C831 1.367 . S
C831 C830 1.367 . S
C831 C833 1.433 . S
C832 C828 1.350 . S
C832 C829 1.463 . S
C832 N836 1.427 . S
C833 H823 0.929 . S
C833 C831 1.433 . S
C833 N836 1.384 . S
C834 H825 0.929 . S
C834 C826 1.378 . S
C834 C829 1.350 . S
C835 H822 0.929 . S
C835 C827 1.433 . S
C835 N837 1.384 . S
N836 C832 1.427 . S
N836 C833 1.384 . S
N837 C829 1.427 . S
N837 C835 1.384 . S
H838 C844 0.930 . S
H839 C848 0.930 . S
H840 C853 0.929 . S
H841 C851 0.929 . S
H842 C846 0.929 . S
H843 C852 0.929 . S
C844 H838 0.930 . S
C844 C845 1.367 . S
C844 C852 1.378 . S
C845 C844 1.367 . S
C845 C853 1.433 . S
C846 H842 0.929 . S
C846 C848 1.378 . S
C846 C850 1.350 . S
C847 C850 1.463 . S
C847 C852 1.350 . S
C847 N855 1.427 . S
C848 H839 0.930 . S
C848 C846 1.378 . S
C848 C849 1.367 . S
C849 C848 1.367 . S
C849 C851 1.433 . S
C850 C846 1.350 . S
C850 C847 1.463 . S
C850 N854 1.427 . S
C851 H841 0.929 . S
C851 C849 1.433 . S
C851 N854 1.384 . S
C852 H843 0.929 . S
C852 C844 1.378 . S
C852 C847 1.350 . S
C853 H840 0.929 . S
C853 C845 1.433 . S
C853 N855 1.384 . S
N854 C850 1.427 . S
N854 C851 1.384 . S
N855 C847 1.427 . S
N855 C853 1.384 . S
C431 C76 1.866 . S
C435 C162 1.934 . S
C453 C246 1.949 . S
C449 C87 1.873 . S
C471 C312 1.923 . S
C467 C54 1.969 . S
C489 C396 1.921 . S
C485 C65 1.964 . S
C507 C151 1.941 1_565 S
C503 C32 1.870 . S
C521 C43 1.894 . S
C525 C235 1.961 . S
C539 C10 1.980 . S
C543 C323 1.927 . S
C557 C21 1.959 . S
C561 C407 1.905 . S
C579 C158 0.654 1_455 S
C575 C60 0.636 . S
C597 C242 0.627 1_545 S
C593 C71 0.605 . S
C615 C314 0.575 . S
C611 C82 0.616 . S
C629 C49 0.644 . S
C633 C398 0.602 . S
C647 C16 0.669 . S
C651 C146 0.632 . S
C669 C230 0.635 . S
C665 C27 0.620 . S
C687 C326 0.612 . S
C683 C38 0.588 . S
C701 C5 0.620 . S
C705 C410 0.627 . S
C719 C59 2.003 . S
C723 C155 2.071 . S
C737 C70 1.986 . S
C741 C239 2.054 . S
C759 C319 2.076 . S
C755 C81 1.885 . S
C777 C403 2.096 . S
C773 C48 1.919 . S
C791 C15 2.009 . S
C795 C144 2.084 . S
C813 C228 2.041 . S
C809 C26 1.963 . S
C831 C330 2.074 . S
C827 C37 1.884 . S
C845 C4 1.913 . S
C849 C414 2.101 . S
