# Generated by pormake.
# Topology bwt, (3,3)-cn, num edge types: 1
# Building blocks:
#     Node 0, Type 0, BuildingBlock: OLANEW_clean_sbu_2, # of connection points: 3
#     Node 1, Type 0, BuildingBlock: OLANEW_clean_sbu_2, # of connection points: 3
#     Node 2, Type 0, BuildingBlock: OLANEW_clean_sbu_2, # of connection points: 3
#     Node 3, Type 0, BuildingBlock: OLANEW_clean_sbu_2, # of connection points: 3
#     Node 4, Type 0, BuildingBlock: OLANEW_clean_sbu_2, # of connection points: 3
#     Node 5, Type 0, BuildingBlock: OLANEW_clean_sbu_2, # of connection points: 3
#     Node 6, Type 0, BuildingBlock: OLANEW_clean_sbu_2, # of connection points: 3
#     Node 7, Type 0, BuildingBlock: OLANEW_clean_sbu_2, # of connection points: 3
#     Node 8, Type 0, BuildingBlock: OLANEW_clean_sbu_2, # of connection points: 3
#     Node 9, Type 0, BuildingBlock: OLANEW_clean_sbu_2, # of connection points: 3
#     Node 10, Type 0, BuildingBlock: OLANEW_clean_sbu_2, # of connection points: 3
#     Node 11, Type 0, BuildingBlock: OLANEW_clean_sbu_2, # of connection points: 3
#     Node 12, Type 0, BuildingBlock: OLANEW_clean_sbu_2, # of connection points: 3
#     Node 13, Type 0, BuildingBlock: OLANEW_clean_sbu_2, # of connection points: 3
#     Node 14, Type 0, BuildingBlock: OLANEW_clean_sbu_2, # of connection points: 3
#     Node 15, Type 0, BuildingBlock: OLANEW_clean_sbu_2, # of connection points: 3
#     Node 16, Type 0, BuildingBlock: OLANEW_clean_sbu_2, # of connection points: 3
#     Node 17, Type 0, BuildingBlock: OLANEW_clean_sbu_2, # of connection points: 3
#     Node 18, Type 0, BuildingBlock: OLANEW_clean_sbu_2, # of connection points: 3
#     Node 19, Type 0, BuildingBlock: OLANEW_clean_sbu_2, # of connection points: 3
#     Node 20, Type 0, BuildingBlock: OLANEW_clean_sbu_2, # of connection points: 3
#     Node 21, Type 0, BuildingBlock: OLANEW_clean_sbu_2, # of connection points: 3
#     Node 22, Type 0, BuildingBlock: OLANEW_clean_sbu_2, # of connection points: 3
#     Node 23, Type 0, BuildingBlock: OLANEW_clean_sbu_2, # of connection points: 3
#     Node 24, Type 1, BuildingBlock: VETTIZ_charged_linker_0, # of connection points: 3
#     Node 25, Type 1, BuildingBlock: VETTIZ_charged_linker_0, # of connection points: 3
#     Node 26, Type 1, BuildingBlock: VETTIZ_charged_linker_0, # of connection points: 3
#     Node 27, Type 1, BuildingBlock: VETTIZ_charged_linker_0, # of connection points: 3
#     Node 28, Type 1, BuildingBlock: VETTIZ_charged_linker_0, # of connection points: 3
#     Node 29, Type 1, BuildingBlock: VETTIZ_charged_linker_0, # of connection points: 3
#     Node 30, Type 1, BuildingBlock: VETTIZ_charged_linker_0, # of connection points: 3
#     Node 31, Type 1, BuildingBlock: VETTIZ_charged_linker_0, # of connection points: 3
#     Node 32, Type 1, BuildingBlock: VETTIZ_charged_linker_0, # of connection points: 3
#     Node 33, Type 1, BuildingBlock: VETTIZ_charged_linker_0, # of connection points: 3
#     Node 34, Type 1, BuildingBlock: VETTIZ_charged_linker_0, # of connection points: 3
#     Node 35, Type 1, BuildingBlock: VETTIZ_charged_linker_0, # of connection points: 3
#     Node 36, Type 1, BuildingBlock: VETTIZ_charged_linker_0, # of connection points: 3
#     Node 37, Type 1, BuildingBlock: VETTIZ_charged_linker_0, # of connection points: 3
#     Node 38, Type 1, BuildingBlock: VETTIZ_charged_linker_0, # of connection points: 3
#     Node 39, Type 1, BuildingBlock: VETTIZ_charged_linker_0, # of connection points: 3
#     Node 40, Type 1, BuildingBlock: VETTIZ_charged_linker_0, # of connection points: 3
#     Node 41, Type 1, BuildingBlock: VETTIZ_charged_linker_0, # of connection points: 3
#     Node 42, Type 1, BuildingBlock: VETTIZ_charged_linker_0, # of connection points: 3
#     Node 43, Type 1, BuildingBlock: VETTIZ_charged_linker_0, # of connection points: 3
#     Node 44, Type 1, BuildingBlock: VETTIZ_charged_linker_0, # of connection points: 3
#     Node 45, Type 1, BuildingBlock: VETTIZ_charged_linker_0, # of connection points: 3
#     Node 46, Type 1, BuildingBlock: VETTIZ_charged_linker_0, # of connection points: 3
#     Node 47, Type 1, BuildingBlock: VETTIZ_charged_linker_0, # of connection points: 3
#     Edge 48, Type (0, 1), BuildingBlock: XIVTED_clean_linker_0, # of connection points: 2
#     Edge 49, Type (0, 1), BuildingBlock: XIVTED_clean_linker_0, # of connection points: 2
#     Edge 50, Type (0, 1), BuildingBlock: XIVTED_clean_linker_0, # of connection points: 2
#     Edge 51, Type (0, 1), BuildingBlock: XIVTED_clean_linker_0, # of connection points: 2
#     Edge 52, Type (0, 1), BuildingBlock: XIVTED_clean_linker_0, # of connection points: 2
#     Edge 53, Type (0, 1), BuildingBlock: XIVTED_clean_linker_0, # of connection points: 2
#     Edge 54, Type (0, 1), BuildingBlock: XIVTED_clean_linker_0, # of connection points: 2
#     Edge 55, Type (0, 1), BuildingBlock: XIVTED_clean_linker_0, # of connection points: 2
#     Edge 56, Type (0, 1), BuildingBlock: XIVTED_clean_linker_0, # of connection points: 2
#     Edge 57, Type (0, 1), BuildingBlock: XIVTED_clean_linker_0, # of connection points: 2
#     Edge 58, Type (0, 1), BuildingBlock: XIVTED_clean_linker_0, # of connection points: 2
#     Edge 59, Type (0, 1), BuildingBlock: XIVTED_clean_linker_0, # of connection points: 2
#     Edge 60, Type (0, 1), BuildingBlock: XIVTED_clean_linker_0, # of connection points: 2
#     Edge 61, Type (0, 1), BuildingBlock: XIVTED_clean_linker_0, # of connection points: 2
#     Edge 62, Type (0, 1), BuildingBlock: XIVTED_clean_linker_0, # of connection points: 2
#     Edge 63, Type (0, 1), BuildingBlock: XIVTED_clean_linker_0, # of connection points: 2
#     Edge 64, Type (0, 1), BuildingBlock: XIVTED_clean_linker_0, # of connection points: 2
#     Edge 65, Type (0, 1), BuildingBlock: XIVTED_clean_linker_0, # of connection points: 2
#     Edge 66, Type (0, 1), BuildingBlock: XIVTED_clean_linker_0, # of connection points: 2
#     Edge 67, Type (0, 1), BuildingBlock: XIVTED_clean_linker_0, # of connection points: 2
#     Edge 68, Type (0, 1), BuildingBlock: XIVTED_clean_linker_0, # of connection points: 2
#     Edge 69, Type (0, 1), BuildingBlock: XIVTED_clean_linker_0, # of connection points: 2
#     Edge 70, Type (0, 1), BuildingBlock: XIVTED_clean_linker_0, # of connection points: 2
#     Edge 71, Type (0, 1), BuildingBlock: XIVTED_clean_linker_0, # of connection points: 2
#     Edge 72, Type (0, 1), BuildingBlock: XIVTED_clean_linker_0, # of connection points: 2
#     Edge 73, Type (0, 1), BuildingBlock: XIVTED_clean_linker_0, # of connection points: 2
#     Edge 74, Type (0, 1), BuildingBlock: XIVTED_clean_linker_0, # of connection points: 2
#     Edge 75, Type (0, 1), BuildingBlock: XIVTED_clean_linker_0, # of connection points: 2
#     Edge 76, Type (0, 1), BuildingBlock: XIVTED_clean_linker_0, # of connection points: 2
#     Edge 77, Type (0, 1), BuildingBlock: XIVTED_clean_linker_0, # of connection points: 2
#     Edge 78, Type (0, 1), BuildingBlock: XIVTED_clean_linker_0, # of connection points: 2
#     Edge 79, Type (0, 1), BuildingBlock: XIVTED_clean_linker_0, # of connection points: 2
#     Edge 80, Type (0, 1), BuildingBlock: XIVTED_clean_linker_0, # of connection points: 2
#     Edge 81, Type (0, 1), BuildingBlock: XIVTED_clean_linker_0, # of connection points: 2
#     Edge 82, Type (0, 1), BuildingBlock: XIVTED_clean_linker_0, # of connection points: 2
#     Edge 83, Type (0, 1), BuildingBlock: XIVTED_clean_linker_0, # of connection points: 2
#     Edge 84, Type (0, 1), BuildingBlock: XIVTED_clean_linker_0, # of connection points: 2
#     Edge 85, Type (0, 1), BuildingBlock: XIVTED_clean_linker_0, # of connection points: 2
#     Edge 86, Type (0, 1), BuildingBlock: XIVTED_clean_linker_0, # of connection points: 2
#     Edge 87, Type (0, 1), BuildingBlock: XIVTED_clean_linker_0, # of connection points: 2
#     Edge 88, Type (0, 1), BuildingBlock: XIVTED_clean_linker_0, # of connection points: 2
#     Edge 89, Type (0, 1), BuildingBlock: XIVTED_clean_linker_0, # of connection points: 2
#     Edge 90, Type (0, 1), BuildingBlock: XIVTED_clean_linker_0, # of connection points: 2
#     Edge 91, Type (0, 1), BuildingBlock: XIVTED_clean_linker_0, # of connection points: 2
#     Edge 92, Type (0, 1), BuildingBlock: XIVTED_clean_linker_0, # of connection points: 2
#     Edge 93, Type (0, 1), BuildingBlock: XIVTED_clean_linker_0, # of connection points: 2
#     Edge 94, Type (0, 1), BuildingBlock: XIVTED_clean_linker_0, # of connection points: 2
#     Edge 95, Type (0, 1), BuildingBlock: XIVTED_clean_linker_0, # of connection points: 2
#     Edge 96, Type (0, 1), BuildingBlock: XIVTED_clean_linker_0, # of connection points: 2
#     Edge 97, Type (0, 1), BuildingBlock: XIVTED_clean_linker_0, # of connection points: 2
#     Edge 98, Type (0, 1), BuildingBlock: XIVTED_clean_linker_0, # of connection points: 2
#     Edge 99, Type (0, 1), BuildingBlock: XIVTED_clean_linker_0, # of connection points: 2
#     Edge 100, Type (0, 1), BuildingBlock: XIVTED_clean_linker_0, # of connection points: 2
#     Edge 101, Type (0, 1), BuildingBlock: XIVTED_clean_linker_0, # of connection points: 2
#     Edge 102, Type (0, 1), BuildingBlock: XIVTED_clean_linker_0, # of connection points: 2
#     Edge 103, Type (0, 1), BuildingBlock: XIVTED_clean_linker_0, # of connection points: 2
#     Edge 104, Type (0, 1), BuildingBlock: XIVTED_clean_linker_0, # of connection points: 2
#     Edge 105, Type (0, 1), BuildingBlock: XIVTED_clean_linker_0, # of connection points: 2
#     Edge 106, Type (0, 1), BuildingBlock: XIVTED_clean_linker_0, # of connection points: 2
#     Edge 107, Type (0, 1), BuildingBlock: XIVTED_clean_linker_0, # of connection points: 2
#     Edge 108, Type (0, 1), BuildingBlock: XIVTED_clean_linker_0, # of connection points: 2
#     Edge 109, Type (0, 1), BuildingBlock: XIVTED_clean_linker_0, # of connection points: 2
#     Edge 110, Type (0, 1), BuildingBlock: XIVTED_clean_linker_0, # of connection points: 2
#     Edge 111, Type (0, 1), BuildingBlock: XIVTED_clean_linker_0, # of connection points: 2
#     Edge 112, Type (0, 1), BuildingBlock: XIVTED_clean_linker_0, # of connection points: 2
#     Edge 113, Type (0, 1), BuildingBlock: XIVTED_clean_linker_0, # of connection points: 2
#     Edge 114, Type (0, 1), BuildingBlock: XIVTED_clean_linker_0, # of connection points: 2
#     Edge 115, Type (0, 1), BuildingBlock: XIVTED_clean_linker_0, # of connection points: 2
#     Edge 116, Type (0, 1), BuildingBlock: XIVTED_clean_linker_0, # of connection points: 2
#     Edge 117, Type (0, 1), BuildingBlock: XIVTED_clean_linker_0, # of connection points: 2
#     Edge 118, Type (0, 1), BuildingBlock: XIVTED_clean_linker_0, # of connection points: 2
#     Edge 119, Type (0, 1), BuildingBlock: XIVTED_clean_linker_0, # of connection points: 2
# Relax obj value: 0.153
# Max RMSD: 0.148
# Mean RMSD: 0.093
data_MOF--net-bwt--node1-OLANEW_clean_sbu_2--node2-VETTIZ_charged_linker_0--edge1-XIVTED_clean_linker_0
_symmetry_space_group_name_H-M    P1
_symmetry_Int_Tables_number       1
_symmetry_cell_setting            triclinic
loop_
_symmetry_equiv_pos_as_xyz
'x, y, z'
_cell_length_a     71.13467
_cell_length_b     71.11504
_cell_length_c     71.13519
_cell_angle_alpha  93.539218
_cell_angle_beta   93.541833
_cell_angle_gamma 93.540192
loop_
_atom_site_label
_atom_site_type_symbol
_atom_site_fract_x
_atom_site_fract_y
_atom_site_fract_z
_atom_type_partial_charge
O0 O 0.27339 0.57728 0.31964 0.0
Cd1 Cd 0.27341 0.58669 0.28713 0.0
O2 O 0.28441 0.60581 0.33011 0.0
Cd3 Cd 0.2933 0.61332 0.30265 0.0
O4 O 0.32135 0.61127 0.29243 0.0
C5 C 0.32618 0.59588 0.28469 0.0
O6 O 0.31333 0.5819 0.28065 0.0
C7 C 0.27802 0.58931 0.33337 0.0
C8 C 0.23704 0.58379 0.27004 0.0
O9 O 0.2482 0.57047 0.26779 0.0
O10 O 0.24314 0.59864 0.28026 0.0
O11 O 0.22182 0.38703 0.69803 0.0
Cd12 Cd 0.21813 0.37392 0.66532 0.0
O13 O 0.21685 0.35928 0.70943 0.0
Cd14 Cd 0.2003 0.34956 0.68344 0.0
O15 O 0.17159 0.35885 0.68055 0.0
C16 C 0.16579 0.36375 0.69657 0.0
O17 O 0.17667 0.36148 0.71176 0.0
C18 C 0.222 0.37674 0.71203 0.0
C19 C 0.25212 0.38307 0.64961 0.0
O20 O 0.23815 0.39351 0.64779 0.0
O21 O 0.24973 0.36784 0.65815 0.0
O22 O 0.75698 0.99195 0.6894 0.0
Cd23 Cd 0.76403 0.99154 0.72342 0.0
O24 O 0.76214 0.96197 0.68434 0.0
Cd25 Cd 0.77969 0.96269 0.71067 0.0
O26 O 0.80907 0.97029 0.72044 0.0
C27 C 0.82135 0.96269 0.71076 0.0
O28 O 0.81559 0.95009 0.69699 0.0
C29 C 0.75616 0.97714 0.67835 0.0
C30 C 0.73332 0.00514 0.7413 0.0
O31 O 0.74746 0.01617 0.73787 0.0
O32 O 0.7339 0.98748 0.73675 0.0
O33 O 0.76118 0.02984 0.30208 0.0
Cd34 Cd 0.77449 0.03564 0.33454 0.0
O35 O 0.73197 0.03085 0.31037 0.0
Cd36 Cd 0.70172 0.02617 0.30289 0.0
O37 O 0.67271 0.01531 0.29519 0.0
C38 C 0.66958 0.00136 0.28311 0.0
O39 O 0.68392 0.99406 0.27519 0.0
C40 C 0.74356 0.02881 0.29763 0.0
C41 C 0.80771 0.01706 0.33876 0.0
O42 O 0.79183 0.00911 0.3425 0.0
O43 O 0.80792 0.03393 0.33337 0.0
O44 O 0.31672 0.27044 0.59017 0.0
Cd45 Cd 0.28525 0.26633 0.60189 0.0
O46 O 0.32798 0.28852 0.61498 0.0
Cd47 Cd 0.30013 0.29417 0.62414 0.0
O48 O 0.29289 0.32295 0.61984 0.0
C49 C 0.2806 0.3273 0.60741 0.0
O50 O 0.26977 0.31388 0.59791 0.0
C51 C 0.33057 0.27952 0.59946 0.0
C52 C 0.27169 0.22907 0.59313 0.0
O53 O 0.2692 0.24187 0.58147 0.0
O54 O 0.28018 0.23399 0.60927 0.0
O55 O 0.30756 0.76136 0.03432 0.0
Cd56 Cd 0.33955 0.77468 0.03097 0.0
O57 O 0.31395 0.73596 0.01746 0.0
Cd58 Cd 0.30747 0.70715 0.00513 0.0
O59 O 0.30078 0.67751 0.99592 0.0
C60 C 0.28716 0.67243 0.98392 0.0
O61 O 0.27695 0.68535 0.97674 0.0
C62 C 0.30222 0.74524 0.02641 0.0
C63 C 0.33828 0.80713 0.01098 0.0
O64 O 0.33809 0.79072 0.0024 0.0
O65 O 0.33932 0.80824 0.02907 0.0
O66 O 0.69574 0.22734 0.39475 0.0
Cd67 Cd 0.66298 0.22546 0.38189 0.0
O68 O 0.70612 0.21609 0.36814 0.0
Cd69 Cd 0.67807 0.20408 0.35837 0.0
O70 O 0.67044 0.1751 0.36461 0.0
C71 C 0.6816 0.1632 0.3585 0.0
O72 O 0.69475 0.16893 0.34757 0.0
C73 C 0.70944 0.22347 0.38485 0.0
C74 C 0.64966 0.2614 0.38561 0.0
O75 O 0.64768 0.24971 0.39846 0.0
O76 O 0.65753 0.25591 0.37068 0.0
O77 O 0.69277 0.75156 0.97769 0.0
Cd78 Cd 0.72716 0.75455 0.97781 0.0
O79 O 0.68782 0.76413 0.95047 0.0
Cd80 Cd 0.71507 0.78026 0.95373 0.0
O81 O 0.72202 0.80944 0.96483 0.0
C82 C 0.7124 0.81427 0.97861 0.0
O83 O 0.70079 0.80146 0.98506 0.0
C84 C 0.68157 0.75519 0.96397 0.0
C85 C 0.7405 0.72128 0.99101 0.0
O86 O 0.73837 0.73566 0.00227 0.0
O87 O 0.73685 0.72276 0.97332 0.0
O88 O 0.59478 0.3239 0.27373 0.0
Cd89 Cd 0.60607 0.29229 0.26906 0.0
O90 O 0.61416 0.33193 0.29859 0.0
Cd91 Cd 0.62148 0.30307 0.30272 0.0
O92 O 0.61293 0.28748 0.32658 0.0
C93 C 0.59574 0.28913 0.3299 0.0
O94 O 0.5851 0.29789 0.31795 0.0
C95 C 0.60161 0.33625 0.28638 0.0
C96 C 0.59436 0.27792 0.23262 0.0
O97 O 0.58389 0.27576 0.24646 0.0
O98 O 0.61069 0.28651 0.23606 0.0
O99 O 0.02593 0.29919 0.76487 0.0
Cd100 Cd 0.0293 0.33244 0.77616 0.0
O101 O 0.02004 0.30718 0.73593 0.0
Cd102 Cd 0.01094 0.3015 0.70608 0.0
O103 O 0.00216 0.2949 0.67636 0.0
C104 C 0.98989 0.28143 0.67155 0.0
O105 O 0.98264 0.27159 0.68471 0.0
C106 C 0.02188 0.29439 0.74752 0.0
C107 C 0.01025 0.3376 0.80898 0.0
O108 O 0.00168 0.33807 0.79265 0.0
O109 O 0.02794 0.33498 0.80983 0.0
O110 O 0.39327 0.70452 0.22807 0.0
Cd111 Cd 0.38386 0.67094 0.22169 0.0
O112 O 0.36414 0.71262 0.22335 0.0
Cd113 Cd 0.35728 0.6866 0.20576 0.0
O114 O 0.3676 0.68274 0.17756 0.0
C115 C 0.37642 0.69777 0.17312 0.0
O116 O 0.37753 0.71265 0.18512 0.0
C117 C 0.38128 0.71704 0.2289 0.0
C118 C 0.38967 0.65379 0.25548 0.0
O119 O 0.40224 0.65399 0.24332 0.0
O120 O 0.37405 0.66109 0.25134 0.0
O121 O 0.97429 0.69426 0.75263 0.0
Cd122 Cd 0.97192 0.72839 0.75274 0.0
O123 O 0.96527 0.69138 0.78144 0.0
Cd124 Cd 0.96464 0.72112 0.79068 0.0
O125 O 0.97182 0.7338 0.81914 0.0
C126 C 0.98827 0.7414 0.82352 0.0
O127 O 4e-05 0.74354 0.81017 0.0
C128 C 0.9703 0.68396 0.76599 0.0
C129 C 0.98679 0.74086 0.71996 0.0
O130 O 0.99722 0.74005 0.7352 0.0
O131 O 0.96912 0.73621 0.7203 0.0
O132 O 0.73242 0.36783 0.69189 0.0
Cd133 Cd 0.74386 0.35688 0.72214 0.0
O134 O 0.7067 0.37786 0.70352 0.0
Cd135 Cd 0.67887 0.38935 0.70131 0.0
O136 O 0.65113 0.40075 0.69822 0.0
C137 C 0.64247 0.40068 0.68204 0.0
O138 O 0.65046 0.3937 0.66721 0.0
C139 C 0.71709 0.37596 0.68969 0.0
C140 C 0.78216 0.36784 0.72815 0.0
O141 O 0.77677 0.35134 0.72078 0.0
O142 O 0.76948 0.37886 0.73306 0.0
O143 O 0.75521 0.63121 0.27924 0.0
Cd144 Cd 0.75177 0.65687 0.30313 0.0
O145 O 0.78392 0.62818 0.29116 0.0
Cd146 Cd 0.8108 0.61493 0.29286 0.0
O147 O 0.83752 0.60215 0.28939 0.0
C148 C 0.84784 0.60776 0.27661 0.0
O149 O 0.84213 0.62115 0.26613 0.0
C150 C 0.77059 0.62306 0.27881 0.0
C151 C 0.71706 0.65199 0.31885 0.0
O152 O 0.71876 0.66125 0.30409 0.0
O153 O 0.73187 0.64536 0.32638 0.0
O154 O 0.25037 0.06725 0.28962 0.0
Cd155 Cd 0.26121 0.0766 0.25943 0.0
O156 O 0.24009 0.03907 0.27736 0.0
Cd157 Cd 0.22307 0.01302 0.28074 0.0
O158 O 0.19788 0.99824 0.29005 0.0
C159 C 0.18486 0.00882 0.29447 0.0
O160 O 0.18762 0.02712 0.29315 0.0
C161 C 0.24262 0.05096 0.29152 0.0
C162 C 0.29475 0.06025 0.25194 0.0
O163 O 0.29492 0.07622 0.26135 0.0
O164 O 0.27873 0.05213 0.24592 0.0
O165 O 0.253 0.97724 0.68242 0.0
Cd166 Cd 0.23752 0.97928 0.65102 0.0
O167 O 0.27924 0.99163 0.67438 0.0
Cd168 Cd 0.30866 0.00286 0.67973 0.0
O169 O 0.33753 0.01422 0.68781 0.0
C170 C 0.34682 0.00759 0.70145 0.0
O171 O 0.33885 0.9939 0.71039 0.0
C172 C 0.26971 0.98414 0.68687 0.0
C173 C 0.20293 0.99536 0.65423 0.0
O174 O 0.20386 0.97739 0.65318 0.0
O175 O 0.21827 0.00565 0.65348 0.0
O176 O 0.69807 0.74139 0.39015 0.0
Cd177 Cd 0.72873 0.74608 0.3768 0.0
O178 O 0.70614 0.71557 0.40293 0.0
Cd179 Cd 0.70115 0.68922 0.41674 0.0
O180 O 0.69662 0.66242 0.42972 0.0
C181 C 0.69899 0.64711 0.42024 0.0
O182 O 0.70402 0.64785 0.40281 0.0
C183 C 0.69389 0.72752 0.39989 0.0
C184 C 0.73957 0.78448 0.37859 0.0
O185 O 0.72931 0.77668 0.36445 0.0
O186 O 0.74497 0.77404 0.39168 0.0
O187 O 0.69452 0.26115 0.98369 0.0
Cd188 Cd 0.66442 0.24212 0.98112 0.0
O189 O 0.68307 0.28515 0.99892 0.0
Cd190 Cd 0.68055 0.31339 0.01266 0.0
O191 O 0.65587 0.3279 0.02522 0.0
C192 C 0.65187 0.34521 0.02753 0.0
O193 O 0.65551 0.32754 0.02538 0.0
C194 C 0.69695 0.27776 0.99158 0.0
C195 C 0.66709 0.20632 0.99497 0.0
O196 O 0.67076 0.20924 0.97794 0.0
O197 O 0.66232 0.22032 0.00545 0.0
O198 O 0.30677 0.75755 0.63379 0.0
Cd199 Cd 0.33591 0.7534 0.65293 0.0
O200 O 0.31654 0.78643 0.6282 0.0
Cd201 Cd 0.31363 0.81275 0.6142 0.0
O202 O 0.30613 0.83728 0.59903 0.0
C203 C 0.29433 0.84823 0.60561 0.0
O204 O 0.28708 0.84471 0.62167 0.0
C205 C 0.3039 0.77287 0.6261 0.0
C206 C 0.34567 0.71606 0.64857 0.0
O207 O 0.33525 0.72132 0.66173 0.0
O208 O 0.35172 0.72854 0.63774 0.0
O209 O 0.3012 0.25889 0.0686 0.0
Cd210 Cd 0.27286 0.27121 0.08109 0.0
O211 O 0.28446 0.24399 0.04457 0.0
Cd212 Cd 0.28307 0.22316 0.02061 0.0
O213 O 0.28651 0.19655 0.00468 0.0
C214 C 0.29956 0.18654 0.0106 0.0
O215 O 0.31049 0.19289 0.0255 0.0
C216 C 0.30036 0.24849 0.05335 0.0
C217 C 0.26138 0.30091 0.06034 0.0
O218 O 0.27322 0.30389 0.0747 0.0
O219 O 0.25478 0.28392 0.05598 0.0
O220 O 0.37761 0.68157 0.73762 0.0
Cd221 Cd 0.35667 0.70581 0.74755 0.0
O222 O 0.37865 0.69347 0.70996 0.0
Cd223 Cd 0.38917 0.69508 0.68177 0.0
O224 O 0.40187 0.69503 0.65459 0.0
C225 C 0.40359 0.67956 0.64511 0.0
O226 O 0.39752 0.66365 0.65181 0.0
C227 C 0.38348 0.68104 0.72111 0.0
C228 C 0.36338 0.7162 0.78589 0.0
O229 O 0.35148 0.70247 0.78016 0.0
O230 O 0.37194 0.72513 0.77347 0.0
O231 O 0.96799 0.68618 0.24954 0.0
Cd232 Cd 0.97144 0.65487 0.23448 0.0
O233 O 0.98875 0.6814 0.27257 0.0
Cd234 Cd 0.00809 0.68944 0.29746 0.0
O235 O 0.02301 0.69926 0.32448 0.0
C236 C 0.01636 0.69409 0.33966 0.0
O237 O 0.00091 0.68285 0.33861 0.0
C238 C 0.97751 0.69223 0.26465 0.0
C239 C 0.98593 0.65874 0.19923 0.0
O240 O 0.96808 0.65671 0.20082 0.0
O241 O 0.99686 0.65858 0.21423 0.0
O242 O 0.63355 0.30126 0.7547 0.0
Cd243 Cd 0.65495 0.32871 0.74991 0.0
O244 O 0.6294 0.31155 0.78379 0.0
Cd245 Cd 0.61594 0.31014 0.8106 0.0
O246 O 0.60258 0.30433 0.83667 0.0
C247 C 0.60975 0.29276 0.84754 0.0
O248 O 0.62512 0.28477 0.84285 0.0
C249 C 0.62588 0.29913 0.77016 0.0
C250 C 0.64447 0.34316 0.71552 0.0
O251 O 0.65719 0.33119 0.71654 0.0
O252 O 0.63719 0.34862 0.73079 0.0
O253 O 0.07317 0.29182 0.27163 0.0
Cd254 Cd 0.0811 0.2593 0.27532 0.0
O255 O 0.0534 0.28179 0.24778 0.0
Cd256 Cd 0.03128 0.28396 0.22537 0.0
O257 O 0.01505 0.28976 0.19957 0.0
C258 C 0.02166 0.28515 0.18386 0.0
O259 O 0.03761 0.27677 0.18385 0.0
C260 C 0.06082 0.29534 0.25887 0.0
C261 C 0.05773 0.24461 0.30154 0.0
O262 O 0.0743 0.25191 0.30672 0.0
O263 O 0.05252 0.24372 0.28392 0.0
C264 C 0.29868 0.47146 0.56909 0.0
C265 C 0.29079 0.45604 0.55726 0.0
C266 C 0.28561 0.45883 0.53823 0.0
C267 C 0.29668 0.49183 0.54298 0.0
C268 C 0.30144 0.48914 0.56172 0.0
C269 C 0.30951 0.50699 0.57248 0.0
H270 H 0.33695 0.59982 0.5718 0.0
C271 C 0.30155 0.51183 0.53978 0.0
C272 C 0.30901 0.52081 0.55707 0.0
H273 H 0.33809 0.56548 0.61983 0.0
H274 H 0.32512 0.5383 0.59978 0.0
H275 H 0.35145 0.56837 0.5416 0.0
H276 H 0.29773 0.58665 0.55665 0.0
H277 H 0.2945 0.57986 0.5325 0.0
H278 H 0.31154 0.59902 0.54053 0.0
H279 H 0.34293 0.59081 0.53633 0.0
H280 H 0.33782 0.57018 0.52042 0.0
C281 C 0.32995 0.50386 0.57983 0.0
C282 C 0.29619 0.51211 0.58817 0.0
C283 C 0.29251 0.53606 0.47389 0.0
C284 C 0.29602 0.55407 0.46707 0.0
C285 C 0.3025 0.56928 0.47998 0.0
C286 C 0.30615 0.5666 0.49907 0.0
C287 C 0.30319 0.54852 0.5056 0.0
C288 C 0.29617 0.53365 0.49322 0.0
C289 C 0.29336 0.51562 0.50312 0.0
C290 C 0.30017 0.5222 0.52333 0.0
C291 C 0.30603 0.54143 0.52453 0.0
C292 C 0.30614 0.50098 0.49446 0.0
C293 C 0.27204 0.50938 0.50135 0.0
C294 C 0.33481 0.58636 0.57798 0.0
C295 C 0.33887 0.58468 0.59733 0.0
C296 C 0.33517 0.56707 0.60491 0.0
C297 C 0.32763 0.55136 0.59325 0.0
C298 C 0.32354 0.55337 0.57387 0.0
C299 C 0.32712 0.57072 0.56665 0.0
C300 C 0.32124 0.57075 0.54605 0.0
C301 C 0.31364 0.55046 0.5419 0.0
C302 C 0.3151 0.54026 0.55814 0.0
C303 C 0.33917 0.57538 0.53541 0.0
C304 C 0.30554 0.58484 0.54365 0.0
H305 H 0.2845 0.4778 0.51639 0.0
H306 H 0.30253 0.46984 0.58385 0.0
H307 H 0.2812 0.50806 0.58343 0.0
H308 H 0.29655 0.52744 0.5919 0.0
H309 H 0.29959 0.50465 0.60109 0.0
H310 H 0.3374 0.49593 0.56889 0.0
H311 H 0.33003 0.49558 0.59257 0.0
H312 H 0.33866 0.51716 0.58317 0.0
H313 H 0.28743 0.52409 0.46441 0.0
H314 H 0.30475 0.5834 0.47531 0.0
H315 H 0.31127 0.57877 0.50797 0.0
H316 H 0.32021 0.50779 0.49202 0.0
H317 H 0.2998 0.49466 0.48067 0.0
H318 H 0.30907 0.48953 0.50378 0.0
H319 H 0.26329 0.52182 0.5013 0.0
H320 H 0.2675 0.50158 0.51343 0.0
H321 H 0.26821 0.50059 0.48805 0.0
H322 H 0.27964 0.44713 0.52881 0.0
C323 C 0.28855 0.47662 0.53103 0.0
C324 C 0.24151 0.42083 0.97443 0.0
C325 C 0.23946 0.40113 0.97048 0.0
C326 C 0.23707 0.39394 0.9515 0.0
C327 C 0.23927 0.42565 0.94089 0.0
C328 C 0.24135 0.43277 0.95946 0.0
C329 C 0.24374 0.45401 0.96107 0.0
H330 H 0.25327 0.53627 0.9183 0.0
C331 C 0.24026 0.44171 0.92871 0.0
C332 C 0.24279 0.45839 0.9404 0.0
H333 H 0.2548 0.52787 0.97808 0.0
H334 H 0.2487 0.49439 0.9714 0.0
H335 H 0.27699 0.50064 0.90671 0.0
H336 H 0.21697 0.50643 0.90676 0.0
H337 H 0.22133 0.49283 0.88621 0.0
H338 H 0.2311 0.51692 0.88963 0.0
H339 H 0.26465 0.51483 0.89062 0.0
H340 H 0.26618 0.48989 0.88549 0.0
C341 C 0.26341 0.45982 0.97108 0.0
C342 C 0.22692 0.46157 0.9714 0.0
C343 C 0.23655 0.4287 0.85775 0.0
C344 C 0.23669 0.44029 0.84244 0.0
C345 C 0.23843 0.46008 0.84619 0.0
C346 C 0.23996 0.46809 0.86483 0.0
C347 C 0.23973 0.45622 0.87993 0.0
C348 C 0.2379 0.43688 0.87617 0.0
C349 C 0.23748 0.42632 0.89377 0.0
C350 C 0.23946 0.44248 0.90881 0.0
C351 C 0.24092 0.45998 0.90069 0.0
C352 C 0.25475 0.41403 0.89456 0.0
C353 C 0.21805 0.41507 0.89357 0.0
C354 C 0.25209 0.52722 0.92993 0.0
C355 C 0.2547 0.53473 0.94875 0.0
C356 C 0.25319 0.52242 0.96347 0.0
C357 C 0.24957 0.50296 0.95956 0.0
C358 C 0.24747 0.49561 0.94072 0.0
C359 C 0.24856 0.50767 0.92625 0.0
C360 C 0.24603 0.49723 0.9071 0.0
C361 C 0.24348 0.47693 0.9125 0.0
C362 C 0.24435 0.47611 0.93223 0.0
C363 C 0.26431 0.50084 0.89676 0.0
C364 C 0.22802 0.50369 0.8967 0.0
H365 H 0.23526 0.39962 0.92265 0.0
H366 H 0.24322 0.42684 0.98884 0.0
H367 H 0.21376 0.45253 0.96751 0.0
H368 H 0.22352 0.47582 0.9675 0.0
H369 H 0.22962 0.46175 0.98696 0.0
H370 H 0.27396 0.44969 0.9669 0.0
H371 H 0.26289 0.46005 0.98666 0.0
H372 H 0.26932 0.47366 0.9672 0.0
H373 H 0.23557 0.41346 0.85552 0.0
H374 H 0.23835 0.4694 0.83471 0.0
H375 H 0.2412 0.48321 0.86676 0.0
H376 H 0.2672 0.42146 0.8889 0.0
H377 H 0.2517 0.40046 0.88602 0.0
H378 H 0.25955 0.41105 0.90907 0.0
H379 H 0.20679 0.42252 0.88609 0.0
H380 H 0.2131 0.41356 0.90786 0.0
H381 H 0.21842 0.40085 0.88626 0.0
H382 H 0.2358 0.37886 0.94799 0.0
C383 C 0.23693 0.40605 0.93674 0.0
C384 C 0.7116 0.03195 0.41966 0.0
C385 C 0.70595 0.04873 0.42849 0.0
C386 C 0.70614 0.05047 0.44837 0.0
C387 C 0.71766 0.0192 0.45018 0.0
C388 C 0.71743 0.0175 0.43071 0.0
C389 C 0.72399 0.99888 0.42345 0.0
H390 H 0.75354 0.91299 0.44185 0.0
C391 C 0.72458 0.00166 0.45741 0.0
C392 C 0.72838 0.98975 0.44177 0.0
H393 H 0.74259 0.93507 0.38723 0.0
H394 H 0.73517 0.96486 0.40236 0.0
H395 H 0.77606 0.95062 0.46145 0.0
H396 H 0.71861 0.92792 0.45978 0.0
H397 H 0.72406 0.93755 0.48289 0.0
H398 H 0.73728 0.91859 0.47375 0.0
H399 H 0.76884 0.93149 0.47523 0.0
H400 H 0.76833 0.95582 0.48402 0.0
C401 C 0.74195 0.00277 0.41267 0.0
C402 C 0.70738 0.98808 0.41139 0.0
C403 C 0.72891 0.99255 0.52808 0.0
C404 C 0.73471 0.97753 0.5386 0.0
C405 C 0.74144 0.9616 0.52903 0.0
C406 C 0.74203 0.9604 0.50941 0.0
C407 C 0.73585 0.97527 0.49907 0.0
C408 C 0.72961 0.99111 0.50836 0.0
C409 C 0.72392 0.0056 0.49487 0.0
C410 C 0.72752 0.99565 0.476 0.0
C411 C 0.73445 0.97789 0.47864 0.0
C412 C 0.73714 0.02367 0.49934 0.0
C413 C 0.70271 0.0086 0.49665 0.0
C414 C 0.74997 0.92434 0.43309 0.0
C415 C 0.74873 0.92166 0.41331 0.0
C416 C 0.74352 0.93672 0.40251 0.0
C417 C 0.73922 0.954 0.41133 0.0
C418 C 0.74001 0.95622 0.43116 0.0
C419 C 0.74553 0.94157 0.44165 0.0
C420 C 0.74512 0.9461 0.4625 0.0
C421 C 0.73827 0.96586 0.46287 0.0
C422 C 0.7353 0.97176 0.44453 0.0
C423 C 0.76556 0.9459 0.47143 0.0
C424 C 0.73066 0.93181 0.47031 0.0
H425 H 0.71188 0.03805 0.47429 0.0
H426 H 0.7114 0.02999 0.40443 0.0
H427 H 0.69363 0.99101 0.41724 0.0
H428 H 0.70794 0.9726 0.41128 0.0
H429 H 0.70684 0.99236 0.39662 0.0
H430 H 0.751 0.01476 0.41983 0.0
H431 H 0.73825 0.00649 0.39802 0.0
H432 H 0.75108 0.99077 0.4122 0.0
H433 H 0.72368 0.005 0.53497 0.0
H434 H 0.74648 0.95005 0.53676 0.0
H435 H 0.74724 0.94784 0.50308 0.0
H436 H 0.75165 0.02004 0.50385 0.0
H437 H 0.73196 0.03276 0.51092 0.0
H438 H 0.73892 0.03204 0.48693 0.0
H439 H 0.69469 0.99494 0.49838 0.0
H440 H 0.69592 0.01416 0.48398 0.0
H441 H 0.7006 0.01824 0.50912 0.0
H442 H 0.70212 0.06333 0.45557 0.0
C443 C 0.71196 0.03583 0.45924 0.0
C444 C 0.68456 0.06381 0.04085 0.0
C445 C 0.68166 0.08124 0.05045 0.0
C446 C 0.68308 0.08256 0.07036 0.0
C447 C 0.69028 0.04979 0.07081 0.0
C448 C 0.68884 0.0483 0.05131 0.0
C449 C 0.69247 0.0287 0.04356 0.0
H450 H 0.71397 0.93936 0.06138 0.0
C451 C 0.69546 0.03147 0.07752 0.0
C452 C 0.6969 0.01898 0.06165 0.0
H453 H 0.70071 0.96085 0.00697 0.0
H454 H 0.69787 0.99205 0.02197 0.0
H455 H 0.74112 0.97305 0.07734 0.0
H456 H 0.68202 0.96051 0.08335 0.0
H457 H 0.69291 0.9674 0.10584 0.0
H458 H 0.70045 0.94703 0.09292 0.0
H459 H 0.73313 0.95761 0.0946 0.0
H460 H 0.73684 0.98281 0.09982 0.0
C461 C 0.7097 0.03016 0.03136 0.0
C462 C 0.67413 0.01999 0.03275 0.0
C463 C 0.70482 0.02381 0.14806 0.0
C464 C 0.71178 0.00931 0.15867 0.0
C465 C 0.71682 0.99266 0.14885 0.0
C466 C 0.71472 0.99041 0.12913 0.0
C467 C 0.70777 0.00501 0.11886 0.0
C468 C 0.70328 0.02149 0.12831 0.0
C469 C 0.69772 0.03613 0.11499 0.0
C470 C 0.69917 0.02548 0.09599 0.0
C471 C 0.70473 0.00718 0.09839 0.0
C472 C 0.71235 0.05335 0.11821 0.0
C473 C 0.67713 0.04072 0.11828 0.0
C474 C 0.71033 0.95074 0.05267 0.0
C475 C 0.7073 0.94758 0.03301 0.0
C476 C 0.70312 0.96293 0.02216 0.0
C477 C 0.70133 0.98098 0.03092 0.0
C478 C 0.7038 0.9837 0.05071 0.0
C479 C 0.70845 0.9687 0.06116 0.0
C480 C 0.71062 0.97392 0.08197 0.0
C481 C 0.70597 0.99443 0.08245 0.0
C482 C 0.70204 0.00021 0.06414 0.0
C483 C 0.73142 0.97166 0.08894 0.0
C484 C 0.69586 0.96157 0.09169 0.0
H485 H 0.68818 0.06904 0.09562 0.0
H486 H 0.68344 0.06222 0.02557 0.0
H487 H 0.6615 0.02412 0.04009 0.0
H488 H 0.67316 0.00442 0.03193 0.0
H489 H 0.67278 0.02491 0.01823 0.0
H490 H 0.72085 0.04043 0.03823 0.0
H491 H 0.70563 0.03504 0.01723 0.0
H492 H 0.71653 0.01672 0.02951 0.0
H493 H 0.70068 0.03681 0.15484 0.0
H494 H 0.72282 0.98141 0.15631 0.0
H495 H 0.71877 0.9774 0.12263 0.0
H496 H 0.72618 0.04922 0.12427 0.0
H497 H 0.7074 0.06439 0.12811 0.0
H498 H 0.71574 0.0597 0.10491 0.0
H499 H 0.66832 0.02759 0.12023 0.0
H500 H 0.67011 0.04712 0.10621 0.0
H501 H 0.67654 0.0503 0.13114 0.0
H502 H 0.68131 0.09582 0.07818 0.0
C503 C 0.68729 0.067 0.08053 0.0
C504 C 0.54253 0.28992 0.46866 0.0
C505 C 0.56124 0.29207 0.46341 0.0
C506 C 0.57544 0.29965 0.477 0.0
C507 C 0.55193 0.30465 0.49977 0.0
C508 C 0.53818 0.29644 0.48671 0.0
C509 C 0.51876 0.29652 0.49391 0.0
H510 H 0.46347 0.32057 0.56424 0.0
C511 C 0.54242 0.31193 0.51634 0.0
C512 C 0.52294 0.30745 0.51283 0.0
H513 H 0.44732 0.28647 0.51265 0.0
H514 H 0.47892 0.2914 0.50241 0.0
H515 H 0.50612 0.30419 0.57255 0.0
H516 H 0.48408 0.35226 0.54756 0.0
H517 H 0.50828 0.35872 0.55251 0.0
H518 H 0.4934 0.35391 0.57157 0.0
H519 H 0.4923 0.32165 0.58347 0.0
H520 H 0.51712 0.32585 0.58284 0.0
C521 C 0.51159 0.27577 0.49608 0.0
C522 C 0.50605 0.30726 0.48035 0.0
C523 C 0.57938 0.34149 0.57577 0.0
C524 C 0.57352 0.35161 0.59192 0.0
C525 C 0.55497 0.35774 0.59127 0.0
C526 C 0.54186 0.35159 0.57644 0.0
C527 C 0.54732 0.33952 0.56181 0.0
C528 C 0.56608 0.33603 0.56066 0.0
C529 C 0.56949 0.32626 0.54179 0.0
C530 C 0.54932 0.32254 0.5332 0.0
C531 C 0.53647 0.3298 0.54546 0.0
C532 C 0.57896 0.30767 0.54511 0.0
C533 C 0.58132 0.34017 0.5305 0.0
C534 C 0.46659 0.31434 0.55061 0.0
C535 C 0.45281 0.30301 0.53933 0.0
C536 C 0.45769 0.295 0.52179 0.0
C537 C 0.47605 0.29791 0.51586 0.0
C538 C 0.48974 0.3089 0.52759 0.0
C539 C 0.48481 0.31706 0.54454 0.0
C540 C 0.50106 0.32825 0.55531 0.0
C541 C 0.51688 0.3247 0.54235 0.0
C542 C 0.51016 0.31343 0.52617 0.0
C543 C 0.50442 0.31961 0.5746 0.0
C544 C 0.49653 0.34935 0.55693 0.0
H545 H 0.58215 0.31185 0.50488 0.0
H546 H 0.53135 0.2838 0.4587 0.0
H547 H 0.51392 0.32006 0.47588 0.0
H548 H 0.49354 0.31245 0.48693 0.0
H549 H 0.50125 0.29824 0.46743 0.0
H550 H 0.52352 0.26674 0.49906 0.0
H551 H 0.50362 0.26959 0.483 0.0
H552 H 0.50269 0.27428 0.50816 0.0
H553 H 0.59367 0.33724 0.57511 0.0
H554 H 0.55026 0.36687 0.60253 0.0
H555 H 0.52781 0.35608 0.5771 0.0
H556 H 0.57102 0.29929 0.55508 0.0
H557 H 0.59368 0.31057 0.55122 0.0
H558 H 0.57933 0.29861 0.53197 0.0
H559 H 0.58097 0.35504 0.53626 0.0
H560 H 0.57575 0.34026 0.51561 0.0
H561 H 0.59637 0.33678 0.53081 0.0
H562 H 0.58996 0.30149 0.47334 0.0
C563 C 0.57087 0.30593 0.49518 0.0
C564 C 0.15318 0.71095 0.01162 0.0
C565 C 0.16457 0.70652 0.0274 0.0
C566 C 0.15584 0.69968 0.04312 0.0
C567 C 0.12494 0.70273 0.02762 0.0
C568 C 0.13351 0.70902 0.01206 0.0
C569 C 0.11942 0.71392 0.99679 0.0
H570 H 0.02882 0.72468 0.96701 0.0
C571 C 0.10431 0.70332 0.02393 0.0
C572 C 0.10098 0.70987 0.0059 0.0
H573 H 0.07925 0.73316 0.93665 0.0
H574 H 0.09823 0.72407 0.9632 0.0
H575 H 0.04078 0.68518 0.98394 0.0
H576 H 0.04652 0.7428 0.00735 0.0
H577 H 0.03951 0.7284 0.0252 0.0
H578 H 0.0241 0.72959 0.00426 0.0
H579 H 0.02088 0.69785 0.99056 0.0
H580 H 0.03447 0.68548 0.00748 0.0
C581 C 0.12131 0.70043 0.97913 0.0
C582 C 0.12294 0.73518 0.99355 0.0
C583 C 0.06075 0.68602 0.07487 0.0
C584 C 0.04119 0.68669 0.07651 0.0
C585 C 0.0299 0.69208 0.06098 0.0
C586 C 0.03801 0.69705 0.04432 0.0
C587 C 0.05765 0.69673 0.04314 0.0
C588 C 0.06863 0.6912 0.05826 0.0
C589 C 0.08929 0.69228 0.05489 0.0
C590 C 0.08895 0.69927 0.03518 0.0
C591 C 0.07039 0.70181 0.02829 0.0
C592 C 0.09632 0.67212 0.05536 0.0
C593 C 0.09956 0.70689 0.06978 0.0
C594 C 0.04394 0.72451 0.96604 0.0
C595 C 0.05249 0.72992 0.94968 0.0
C596 C 0.07226 0.72955 0.94917 0.0
C597 C 0.0833 0.72406 0.96458 0.0
C598 C 0.07459 0.71879 0.9808 0.0
C599 C 0.05522 0.71894 0.98134 0.0
C600 C 0.04847 0.71249 -0.00029 0.0
C601 C 0.06701 0.70843 0.01001 0.0
C602 C 0.08223 0.71229 0.99887 0.0
C603 C 0.03534 0.69436 0.99534 0.0
C604 C 0.03901 0.72904 0.00971 0.0
H605 H 0.13036 0.69255 0.05572 0.0
H606 H 0.15942 0.71644 0.99939 0.0
H607 H 0.12674 0.7435 0.00717 0.0
H608 H 0.11035 0.74155 0.98753 0.0
H609 H 0.13471 0.73752 0.98423 0.0
H610 H 0.12587 0.68646 0.98318 0.0
H611 H 0.13191 0.70632 0.96988 0.0
H612 H 0.10776 0.69713 0.97077 0.0
H613 H 0.06988 0.68168 0.08633 0.0
H614 H 0.01483 0.69294 0.06185 0.0
H615 H 0.0287 0.70122 0.0331 0.0
H616 H 0.08545 0.66149 0.04858 0.0
H617 H 0.09937 0.66832 0.0701 0.0
H618 H 0.10898 0.67028 0.04738 0.0
H619 H 0.09023 0.71826 0.07381 0.0
H620 H 0.11199 0.71443 0.06447 0.0
H621 H 0.10397 0.70011 0.08285 0.0
H622 H 0.16428 0.69592 0.05535 0.0
C623 C 0.13612 0.6977 0.04328 0.0
C624 C 0.93241 0.24872 0.52766 0.0
C625 C 0.95154 0.25142 0.53415 0.0
C626 C 0.96552 0.24941 0.52108 0.0
C627 C 0.94142 0.24216 0.49565 0.0
C628 C 0.9277 0.24413 0.50844 0.0
C629 C 0.90807 0.24103 0.49914 0.0
H630 H 0.85205 0.22283 0.41881 0.0
C631 C 0.93188 0.23718 0.47682 0.0
C632 C 0.91231 0.23641 0.47877 0.0
H633 H 0.83462 0.23463 0.47529 0.0
H634 H 0.86724 0.23685 0.48746 0.0
H635 H 0.88764 0.25336 0.4216 0.0
H636 H 0.881 0.19399 0.42945 0.0
H637 H 0.90358 0.19756 0.42113 0.0
H638 H 0.88306 0.20255 0.40645 0.0
H639 H 0.88062 0.23558 0.40304 0.0
H640 H 0.90507 0.24209 0.40943 0.0
C641 C 0.89814 0.25973 0.50156 0.0
C642 C 0.89794 0.22403 0.50778 0.0
C643 C 0.9704 0.22943 0.41914 0.0
C644 C 0.9653 0.22428 0.39995 0.0
C645 C 0.94622 0.21887 0.39455 0.0
C646 C 0.93239 0.21957 0.40765 0.0
C647 C 0.93758 0.2256 0.42651 0.0
C648 C 0.95637 0.22981 0.43214 0.0
C649 C 0.95924 0.23475 0.45307 0.0
C650 C 0.93899 0.23345 0.45883 0.0
C651 C 0.92641 0.22842 0.44312 0.0
C652 C 0.96832 0.25515 0.4561 0.0
C653 C 0.97113 0.2196 0.46195 0.0
C654 C 0.85514 0.22563 0.43385 0.0
C655 C 0.84064 0.22855 0.44606 0.0
C656 C 0.84549 0.23255 0.4655 0.0
C657 C 0.86445 0.23375 0.47256 0.0
C658 C 0.87875 0.23099 0.46005 0.0
C659 C 0.8739 0.22684 0.44108 0.0
C660 C 0.89077 0.22426 0.42975 0.0
C661 C 0.90666 0.22792 0.44498 0.0
C662 C 0.8996 0.23188 0.46269 0.0
C663 C 0.89113 0.23949 0.41506 0.0
C664 C 0.8896 0.20361 0.42109 0.0
H665 H 0.97187 0.24344 0.49271 0.0
H666 H 0.92132 0.25039 0.53728 0.0
H667 H 0.90785 0.21279 0.51027 0.0
H668 H 0.88626 0.21714 0.49839 0.0
H669 H 0.89241 0.22837 0.52155 0.0
H670 H 0.90833 0.27213 0.50082 0.0
H671 H 0.89181 0.26105 0.51544 0.0
H672 H 0.88712 0.26129 0.49025 0.0
H673 H 0.98489 0.23359 0.42392 0.0
H674 H 0.94187 0.21416 0.38008 0.0
H675 H 0.91813 0.21562 0.40251 0.0
H676 H 0.96173 0.26443 0.44588 0.0
H677 H 0.98368 0.25552 0.45398 0.0
H678 H 0.96629 0.26183 0.47018 0.0
H679 H 0.96871 0.20572 0.45378 0.0
H680 H 0.96725 0.2167 0.47636 0.0
H681 H 0.98646 0.22374 0.4623 0.0
H682 H 0.98035 0.25119 0.52572 0.0
C683 C 0.96057 0.24478 0.50191 0.0
C684 C 0.53235 0.73123 0.98594 0.0
C685 C 0.54134 0.73668 0.96983 0.0
C686 C 0.53009 0.7413 0.95394 0.0
C687 C 0.50167 0.73424 0.9699 0.0
C688 C 0.5126 0.73026 0.98569 0.0
C689 C 0.50079 0.72522 0.00174 0.0
H690 H 0.41422 0.71031 0.03492 0.0
C691 C 0.48164 0.73147 0.97404 0.0
C692 C 0.48099 0.72633 0.99271 0.0
H693 H 0.46875 0.70928 0.06514 0.0
H694 H 0.48426 0.71628 0.03695 0.0
H695 H 0.42422 0.74709 0.01304 0.0
H696 H 0.4258 0.68793 0.99641 0.0
H697 H 0.41685 0.6991 0.97674 0.0
H698 H 0.40403 0.69925 0.99786 0.0
H699 H 0.40323 0.73181 0.00806 0.0
H700 H 0.41467 0.7434 0.98961 0.0
C701 C 0.50538 0.7404 0.01826 0.0
C702 C 0.50468 0.70486 0.00669 0.0
C703 C 0.43081 0.73662 0.92184 0.0
C704 C 0.41107 0.73339 0.92068 0.0
C705 C 0.402 0.72893 0.93708 0.0
C706 C 0.41249 0.72739 0.95423 0.0
C707 C 0.43228 0.73021 0.95498 0.0
C708 C 0.44106 0.73491 0.93897 0.0
C709 C 0.46217 0.73695 0.94214 0.0
C710 C 0.46469 0.73249 0.96266 0.0
C711 C 0.44717 0.72859 0.97015 0.0
C712 C 0.46881 0.75768 0.93915 0.0
C713 C 0.47053 0.72199 0.92883 0.0
C714 C 0.4295 0.71134 0.03536 0.0
C715 C 0.44029 0.70925 0.05225 0.0
C716 C 0.46014 0.711 0.05233 0.0
C717 C 0.46913 0.71505 0.03595 0.0
C718 C 0.45816 0.71748 0.01927 0.0
C719 C 0.4387 0.71556 0.01914 0.0
C720 C 0.42937 0.71902 0.00021 0.0
C721 C 0.44644 0.72364 0.98914 0.0
C722 C 0.46326 0.72258 0.00035 0.0
C723 C 0.41709 0.73613 0.00273 0.0
C724 C 0.41828 0.70048 0.99232 0.0
H725 H 0.50272 0.74367 0.94129 0.0
H726 H 0.54044 0.72757 0.99843 0.0
H727 H 0.50563 0.69561 0.99363 0.0
H728 H 0.49333 0.69805 0.01429 0.0
H729 H 0.51824 0.70463 0.01529 0.0
H730 H 0.50974 0.75432 0.013 0.0
H731 H 0.51708 0.73637 0.02796 0.0
H732 H 0.49301 0.74318 0.02644 0.0
H733 H 0.43828 0.73971 0.90946 0.0
H734 H 0.38679 0.72652 0.9366 0.0
H735 H 0.4048 0.72385 0.96617 0.0
H736 H 0.45787 0.76754 0.94291 0.0
H737 H 0.47177 0.75949 0.9242 0.0
H738 H 0.48142 0.76276 0.94836 0.0
H739 H 0.46158 0.70851 0.92775 0.0
H740 H 0.48464 0.7181 0.9339 0.0
H741 H 0.47132 0.72691 0.91436 0.0
H742 H 0.5365 0.7461 0.94152 0.0
C743 C 0.51039 0.74006 0.95387 0.0
C744 C 0.57658 0.59168 0.33429 0.0
C745 C 0.59542 0.58762 0.33863 0.0
C746 C 0.59986 0.56861 0.33925 0.0
C747 C 0.5675 0.55816 0.3297 0.0
C748 C 0.56287 0.57675 0.32997 0.0
C749 C 0.54226 0.57839 0.32455 0.0
H750 H 0.45682 0.53592 0.29471 0.0
C751 C 0.55048 0.54606 0.32314 0.0
C752 C 0.53556 0.55775 0.32027 0.0
H753 H 0.47139 0.59515 0.30967 0.0
H754 H 0.50371 0.5885 0.31678 0.0
H755 H 0.49471 0.52884 0.27184 0.0
H756 H 0.48155 0.51999 0.3292 0.0
H757 H 0.4924 0.50013 0.31999 0.0
H758 H 0.47012 0.50609 0.3093 0.0
H759 H 0.47825 0.51019 0.27747 0.0
H760 H 0.50327 0.50723 0.27795 0.0
C761 C 0.54074 0.58979 0.3067 0.0
C762 C 0.533 0.58732 0.34185 0.0
C763 C 0.55634 0.47593 0.31076 0.0
C764 C 0.54375 0.46087 0.30352 0.0
C765 C 0.52487 0.4645 0.29854 0.0
C766 C 0.51869 0.48287 0.30086 0.0
C767 C 0.53156 0.49777 0.30812 0.0
C768 C 0.55002 0.49407 0.31292 0.0
C769 C 0.56198 0.51146 0.32001 0.0
C770 C 0.5477 0.52633 0.31872 0.0
C771 C 0.52989 0.51833 0.31177 0.0
C772 C 0.57784 0.51442 0.30625 0.0
C773 C 0.56906 0.50902 0.34074 0.0
C774 C 0.46704 0.54746 0.29932 0.0
C775 C 0.4615 0.56608 0.30173 0.0
C776 C 0.47521 0.58066 0.30797 0.0
C777 C 0.49401 0.57679 0.31204 0.0
C778 C 0.49928 0.55812 0.30985 0.0
C779 C 0.48594 0.54381 0.30353 0.0
C780 C 0.49421 0.5248 0.30229 0.0
C781 C 0.51459 0.53009 0.30926 0.0
C782 C 0.51745 0.54966 0.31353 0.0
C783 C 0.49248 0.51717 0.28136 0.0
C784 C 0.48404 0.51192 0.31577 0.0
H785 H 0.59049 0.5398 0.33517 0.0
H786 H 0.57267 0.60614 0.33391 0.0
H787 H 0.54046 0.58399 0.35533 0.0
H788 H 0.51828 0.58169 0.34289 0.0
H789 H 0.53332 0.60293 0.34159 0.0
H790 H 0.55134 0.58553 0.29666 0.0
H791 H 0.54337 0.60517 0.31041 0.0
H792 H 0.52696 0.58732 0.29864 0.0
H793 H 0.57103 0.47376 0.31436 0.0
H794 H 0.51485 0.45312 0.29302 0.0
H795 H 0.50416 0.48477 0.29689 0.0
H796 H 0.57255 0.51026 0.29144 0.0
H797 H 0.58989 0.50576 0.30973 0.0
H798 H 0.58315 0.5293 0.30596 0.0
H799 H 0.55875 0.50006 0.34798 0.0
H800 H 0.57062 0.52252 0.34946 0.0
H801 H 0.58269 0.50219 0.34143 0.0
H802 H 0.61426 0.56503 0.3423 0.0
C803 C 0.58604 0.55391 0.33487 0.0
C804 C 0.06421 0.0431 0.68156 0.0
C805 C 0.08065 0.05378 0.67749 0.0
C806 C 0.08013 0.07359 0.67738 0.0
C807 C 0.04785 0.07181 0.68644 0.0
C808 C 0.04801 0.05237 0.68586 0.0
C809 C 0.02928 0.04322 0.69033 0.0
H810 H 0.93942 0.05298 0.71427 0.0
C811 C 0.02912 0.07712 0.69197 0.0
C812 C 0.01807 0.06043 0.6941 0.0
H813 H 0.96677 0.00117 0.70304 0.0
H814 H 0.99553 0.01907 0.69722 0.0
H815 H 0.97428 0.07385 0.73934 0.0
H816 H 0.95598 0.0752 0.68068 0.0
H817 H 0.96264 0.09853 0.68924 0.0
H818 H 0.9435 0.08574 0.69937 0.0
H819 H 0.95457 0.08668 0.73169 0.0
H820 H 0.97841 0.09724 0.73338 0.0
C821 C 0.03239 0.03217 0.70822 0.0
C822 C 0.02105 0.03093 0.67263 0.0
C823 C 0.01735 0.14638 0.70453 0.0
C824 C 0.0019 0.15567 0.71111 0.0
C825 C 0.98513 0.14489 0.71401 0.0
C826 C 0.98392 0.12519 0.71082 0.0
C827 C -0.00034 0.11608 0.70475 0.0
C828 C 0.01594 0.12668 0.70153 0.0
C829 C 0.03135 0.11459 0.69537 0.0
C830 C 0.02173 0.09496 0.69575 0.0
C831 C 0.00319 0.09593 0.70123 0.0
C832 C 0.04826 0.11795 0.71027 0.0
C833 C 0.03597 0.11937 0.67511 0.0
C834 C 0.95164 0.04544 0.71079 0.0
C835 C 0.95073 0.02559 0.7091 0.0
C836 C 0.96697 0.01643 0.70421 0.0
C837 C 0.9837 0.02686 0.70089 0.0
C838 C 0.98428 0.04669 0.70245 0.0
C839 C 0.96843 0.05563 0.70742 0.0
C840 C 0.9716 0.07678 0.70854 0.0
C841 C 0.99185 0.07908 0.70305 0.0
C842 C 0.99924 0.06142 0.69953 0.0
C843 C 0.96951 0.08419 0.72922 0.0
C844 C 0.95768 0.08463 0.69382 0.0
H845 H 0.06455 0.0977 0.68168 0.0
H846 H 0.06401 0.02788 0.68178 0.0
H847 H 0.02493 0.03745 0.65946 0.0
H848 H 0.00547 0.02956 0.67155 0.0
H849 H 0.02653 0.01663 0.67234 0.0
H850 H 0.04263 0.04021 0.71866 0.0
H851 H 0.03813 0.01829 0.7047 0.0
H852 H 0.01944 0.02984 0.71575 0.0
H853 H 0.0305 0.1542 0.70235 0.0
H854 H 0.97293 0.15171 0.71881 0.0
H855 H 0.97081 0.11781 0.7134 0.0
H856 H 0.04324 0.11899 0.72479 0.0
H857 H 0.05661 0.1313 0.70821 0.0
H858 H 0.05781 0.10631 0.71024 0.0
H859 H 0.02341 0.12425 0.66715 0.0
H860 H 0.03995 0.10694 0.66649 0.0
H861 H 0.04741 0.13076 0.67538 0.0
H862 H 0.09229 0.08221 0.67376 0.0
C863 C 0.0639 0.08262 0.68186 0.0
C864 C 0.52194 0.95718 0.25408 0.0
C865 C 0.53676 0.94515 0.25623 0.0
C866 C 0.5325 0.92544 0.25491 0.0
C867 C 0.49906 0.93022 0.25043 0.0
C868 C 0.50335 0.94949 0.25126 0.0
C869 C 0.48607 0.96051 0.24926 0.0
H870 H 0.39098 0.96117 0.24039 0.0
C871 C 0.47826 0.92697 0.24818 0.0
C872 C 0.47063 0.94473 0.2475 0.0
H873 H 0.43174 0.0091 0.24294 0.0
H874 H 0.45724 0.98823 0.24552 0.0
H875 H 0.4135 0.9344 0.212 0.0
H876 H 0.40966 0.94059 0.27197 0.0
H877 H 0.41276 0.91656 0.26708 0.0
H878 H 0.39212 0.92678 0.25698 0.0
H879 H 0.39286 0.92721 0.22371 0.0
H880 H 0.41143 0.91153 0.21999 0.0
C881 C 0.48698 0.97121 0.23098 0.0
C882 C 0.48515 0.9734 0.26753 0.0
C883 C 0.44674 0.86019 0.2448 0.0
C884 C 0.42761 0.85339 0.24353 0.0
C885 C 0.41355 0.86653 0.24364 0.0
C886 C 0.41827 0.8859 0.24428 0.0
C887 C 0.43731 0.89245 0.24504 0.0
C888 C 0.45124 0.87977 0.24561 0.0
C889 C 0.47073 0.88966 0.24729 0.0
C890 C 0.46604 0.91027 0.24718 0.0
C891 C 0.44643 0.91168 0.24572 0.0
C892 C 0.4812 0.88343 0.22977 0.0
C893 C 0.4806 0.88509 0.26633 0.0
C894 C 0.40539 0.9672 0.2412 0.0
C895 C 0.40933 0.98681 0.24131 0.0
C896 C 0.42832 0.99404 0.24292 0.0
C897 C 0.4431 0.98189 0.24434 0.0
C898 C 0.43886 0.96229 0.24425 0.0
C899 C 0.42025 0.95531 0.24265 0.0
C900 C 0.41824 0.9342 0.24294 0.0
C901 C 0.43876 0.92956 0.24483 0.0
C902 C 0.45078 0.94601 0.24564 0.0
C903 C 0.40839 0.92627 0.22377 0.0
C904 C 0.40755 0.92912 0.26052 0.0
H905 H 0.51137 0.90284 0.25133 0.0
H906 H 0.52473 0.97236 0.25464 0.0
H907 H 0.49004 0.96609 0.28015 0.0
H908 H 0.47069 0.97712 0.27025 0.0
H909 H 0.49429 0.98658 0.26711 0.0
H910 H 0.49367 0.96278 0.21983 0.0
H911 H 0.49541 0.9849 0.23361 0.0
H912 H 0.47289 0.97377 0.22461 0.0
H913 H 0.45794 0.85054 0.24485 0.0
H914 H 0.39874 0.86186 0.24332 0.0
H915 H 0.40682 0.895 0.24414 0.0
H916 H 0.47151 0.88257 0.21681 0.0
H917 H 0.48673 0.86928 0.23123 0.0
H918 H 0.49295 0.89352 0.22697 0.0
H919 H 0.47031 0.88428 0.27747 0.0
H920 H 0.49145 0.89611 0.27192 0.0
H921 H 0.4871 0.8713 0.26507 0.0
H922 H 0.54364 0.91585 0.25658 0.0
C923 C 0.51374 0.91793 0.25202 0.0
C924 C 0.03354 0.42796 0.71416 0.0
C925 C 0.05164 0.43712 0.71433 0.0
C926 C 0.05391 0.45677 0.71869 0.0
C927 C 0.02057 0.45769 0.72343 0.0
C928 C 0.01828 0.43845 0.71892 0.0
C929 C 0.99827 0.4308 0.72055 0.0
H930 H 0.9097 0.44692 0.74447 0.0
C931 C 0.00222 0.46426 0.72872 0.0
C932 C 0.98911 0.44852 0.72726 0.0
H933 H 0.92932 0.39481 0.72061 0.0
H934 H 0.96087 0.4096 0.72045 0.0
H935 H 0.94619 0.45938 0.77276 0.0
H936 H 0.92819 0.47161 0.71639 0.0
H937 H 0.9398 0.49258 0.72649 0.0
H938 H 0.91897 0.48301 0.73671 0.0
H939 H 0.92754 0.47451 0.76755 0.0
H940 H 0.95186 0.48357 0.77095 0.0
C941 C 0.99836 0.41594 0.73557 0.0
C942 C 0.99011 0.42306 0.70069 0.0
C943 C 0.99523 0.53403 0.74587 0.0
C944 C 0.97995 0.5439 0.75203 0.0
C945 C 0.9629 0.53372 0.75507 0.0
C946 C 0.96093 0.51412 0.75173 0.0
C947 C 0.97613 0.50446 0.74522 0.0
C948 C 0.99304 0.51432 0.74268 0.0
C949 C 0.0078 0.50141 0.73641 0.0
C950 C 0.99663 0.48236 0.73483 0.0
C951 C 0.97811 0.48434 0.73994 0.0
C952 C 0.02406 0.50245 0.75209 0.0
C953 C 0.01396 0.50723 0.71698 0.0
C954 C 0.92068 0.43861 0.73909 0.0
C955 C 0.91685 0.41967 0.73239 0.0
C956 C 0.93183 0.40939 0.72597 0.0
C957 C 0.95012 0.41806 0.72572 0.0
C958 C 0.95347 0.43724 0.73185 0.0
C959 C 0.93881 0.44711 0.7384 0.0
C960 C 0.9444 0.46758 0.7433 0.0
C961 C 0.9649 0.46848 0.73865 0.0
C962 C 0.97027 0.45067 0.73216 0.0
C963 C 0.94231 0.47166 0.76471 0.0
C964 C 0.93222 0.47944 0.73023 0.0
H965 H 0.04115 0.48198 0.72646 0.0
H966 H 0.03143 0.41284 0.71108 0.0
H967 H 0.99595 0.43156 0.68952 0.0
H968 H 0.97467 0.42391 0.69876 0.0
H969 H 0.99364 0.40822 0.69772 0.0
H970 H 0.00817 0.42088 0.74792 0.0
H971 H 0.00307 0.40231 0.72969 0.0
H972 H 0.98448 0.41333 0.74136 0.0
H973 H 0.00859 0.54147 0.74369 0.0
H974 H 0.95088 0.54099 0.75964 0.0
H975 H 0.94752 0.50729 0.75415 0.0
H976 H 0.01896 0.50635 0.76619 0.0
H977 H 0.03544 0.51316 0.74938 0.0
H978 H 0.0302 0.48868 0.75373 0.0
H979 H 0.00146 0.51012 0.70768 0.0
H980 H 0.02103 0.49608 0.7092 0.0
H981 H 0.02354 0.52025 0.71857 0.0
H982 H 0.06772 0.46413 0.71875 0.0
C983 C 0.03849 0.4671 0.72317 0.0
C984 C 0.67255 0.50533 0.4628 0.0
C985 C 0.68003 0.52081 0.47478 0.0
C986 C 0.68396 0.51818 0.4941 0.0
C987 C 0.67332 0.48506 0.48905 0.0
C988 C 0.66932 0.48772 0.47017 0.0
C989 C 0.66164 0.46989 0.45918 0.0
H990 H 0.63753 0.3764 0.45784 0.0
C991 C 0.66838 0.46501 0.49208 0.0
C992 C 0.66139 0.45612 0.4746 0.0
H993 H 0.63759 0.41147 0.41035 0.0
H994 H 0.64718 0.43896 0.43141 0.0
H995 H 0.67508 0.39198 0.47556 0.0
H996 H 0.61896 0.40591 0.487 0.0
H997 H 0.63155 0.40653 0.50906 0.0
H998 H 0.62894 0.38478 0.49434 0.0
H999 H 0.66024 0.37764 0.48921 0.0
H1000 H 0.67576 0.39684 0.50001 0.0
C1001 C 0.67571 0.46476 0.44416 0.0
C1002 C 0.64149 0.47299 0.45094 0.0
C1003 C 0.6813 0.43874 0.55656 0.0
C1004 C 0.67865 0.42038 0.56278 0.0
C1005 C 0.66944 0.40602 0.55041 0.0
C1006 C 0.66357 0.40956 0.53197 0.0
C1007 C 0.667 0.42767 0.52563 0.0
C1008 C 0.67542 0.44203 0.53787 0.0
C1009 C 0.67768 0.46038 0.52839 0.0
C1010 C 0.66969 0.45441 0.50839 0.0
C1011 C 0.66356 0.43522 0.50698 0.0
C1012 C 0.69899 0.46649 0.52902 0.0
C1013 C 0.66559 0.47487 0.53832 0.0
C1014 C 0.63906 0.39006 0.45196 0.0
C1015 C 0.63656 0.3918 0.43243 0.0
C1016 C 0.63942 0.40978 0.42536 0.0
C1017 C 0.64503 0.42569 0.43761 0.0
C1018 C 0.64807 0.42352 0.45709 0.0
C1019 C 0.6449 0.40592 0.4639 0.0
C1020 C 0.64979 0.40581 0.4847 0.0
C1021 C 0.65646 0.4263 0.48938 0.0
C1022 C 0.65539 0.43665 0.47324 0.0
C1023 C 0.66594 0.39232 0.48771 0.0
C1024 C 0.63148 0.40035 0.49441 0.0
H1025 H 0.68403 0.49927 0.51606 0.0
H1026 H 0.66908 0.50688 0.44796 0.0
H1027 H 0.63367 0.48121 0.46136 0.0
H1028 H 0.63278 0.45968 0.44761 0.0
H1029 H 0.64197 0.48097 0.43802 0.0
H1030 H 0.6905 0.46909 0.44941 0.0
H1031 H 0.67272 0.47197 0.43099 0.0
H1032 H 0.67572 0.44941 0.44069 0.0
H1033 H 0.68829 0.45007 0.56579 0.0
H1034 H 0.66687 0.39189 0.55501 0.0
H1035 H 0.65688 0.3979 0.52328 0.0
H1036 H 0.70738 0.45408 0.52598 0.0
H1037 H 0.70406 0.47297 0.54317 0.0
H1038 H 0.70252 0.47645 0.51829 0.0
H1039 H 0.65239 0.46783 0.5429 0.0
H1040 H 0.66078 0.48566 0.52893 0.0
H1041 H 0.67341 0.48199 0.55107 0.0
H1042 H 0.68989 0.5298 0.50362 0.0
C1043 C 0.68064 0.50041 0.50128 0.0
C1044 C 0.76298 0.5818 0.0404 0.0
C1045 C 0.77051 0.59977 0.04779 0.0
C1046 C 0.78131 0.60118 0.06518 0.0
C1047 C 0.77386 0.56818 0.06927 0.0
C1048 C 0.76496 0.56613 0.05139 0.0
C1049 C 0.75736 0.54598 0.04648 0.0
H1050 H 0.73531 0.45888 0.07649 0.0
C1051 C 0.77101 0.55026 0.07836 0.0
C1052 C 0.76165 0.53698 0.06507 0.0
H1053 H 0.72967 0.47684 0.01956 0.0
H1054 H 0.74354 0.50785 0.0303 0.0
H1055 H 0.77816 0.48053 0.08861 0.0
H1056 H 0.72088 0.49484 0.09539 0.0
H1057 H 0.73451 0.50558 0.11499 0.0
H1058 H 0.73266 0.48015 0.11132 0.0
H1059 H 0.76186 0.46777 0.10228 0.0
H1060 H 0.7755 0.48849 0.11232 0.0
C1061 C 0.76864 0.53758 0.03038 0.0
C1062 C 0.73588 0.5459 0.04148 0.0
C1063 C 0.78281 0.55161 0.14923 0.0
C1064 C 0.77696 0.53943 0.16283 0.0
C1065 C 0.76866 0.52136 0.1568 0.0
C1066 C 0.76581 0.51579 0.13745 0.0
C1067 C 0.77095 0.52858 0.12401 0.0
C1068 C 0.77941 0.54609 0.13009 0.0
C1069 C 0.78228 0.55866 0.11419 0.0
C1070 C 0.77381 0.54598 0.09751 0.0
C1071 C 0.76756 0.52824 0.1032 0.0
C1072 C 0.80382 0.56264 0.11292 0.0
C1073 C 0.77116 0.57659 0.11777 0.0
C1074 C 0.73741 0.46936 0.06627 0.0
C1075 C 0.73148 0.46534 0.04713 0.0
C1076 C 0.73402 0.47959 0.03439 0.0
C1077 C 0.74214 0.49756 0.04062 0.0
C1078 C 0.74766 0.50144 0.05984 0.0
C1079 C 0.74541 0.48741 0.07229 0.0
C1080 C 0.75166 0.49425 0.09229 0.0
C1081 C 0.75898 0.51435 0.08959 0.0
C1082 C 0.75629 0.51861 0.07058 0.0
C1083 C 0.7676 0.48212 0.09941 0.0
C1084 C 0.73414 0.49361 0.10425 0.0
H1085 H 0.79069 0.58781 0.08938 0.0
H1086 H 0.75496 0.58015 0.0269 0.0
H1087 H 0.72908 0.55482 0.05216 0.0
H1088 H 0.72865 0.53172 0.04127 0.0
H1089 H 0.733 0.55161 0.02747 0.0
H1090 H 0.78301 0.54472 0.03045 0.0
H1091 H 0.7614 0.53914 0.01633 0.0
H1092 H 0.77112 0.52252 0.03189 0.0
H1093 H 0.78872 0.56578 0.15335 0.0
H1094 H 0.76405 0.51172 0.16706 0.0
H1095 H 0.75926 0.50196 0.13368 0.0
H1096 H 0.81155 0.54993 0.11601 0.0
H1097 H 0.80946 0.57428 0.12327 0.0
H1098 H 0.80763 0.56605 0.09863 0.0
H1099 H 0.75963 0.57407 0.12738 0.0
H1100 H 0.76378 0.58107 0.10485 0.0
H1101 H 0.78053 0.58861 0.1243 0.0
H1102 H 0.78795 0.61463 0.07085 0.0
C1103 C 0.78299 0.58555 0.07592 0.0
C1104 C 0.25488 0.97548 0.5414 0.0
C1105 C 0.2549 0.95729 0.53242 0.0
C1106 C 0.24922 0.95462 0.51304 0.0
C1107 C 0.24399 0.98789 0.51189 0.0
C1108 C 0.24939 0.9905 0.53093 0.0
C1109 C 0.2489 0.01076 0.53824 0.0
H1110 H 0.23148 0.10071 0.52057 0.0
C1111 C 0.23922 0.00634 0.50511 0.0
C1112 C 0.24188 0.01978 0.52056 0.0
H1113 H 0.25532 0.08065 0.57247 0.0
H1114 H 0.25166 0.04854 0.55874 0.0
H1115 H 0.25628 0.07997 0.49596 0.0
H1116 H 0.19961 0.06563 0.50975 0.0
H1117 H 0.20054 0.05998 0.48542 0.0
H1118 H 0.20592 0.08403 0.49471 0.0
H1119 H 0.23643 0.08915 0.48371 0.0
H1120 H 0.24588 0.0673 0.47572 0.0
C1121 C 0.26928 0.01822 0.54503 0.0
C1122 C 0.23458 0.01173 0.55373 0.0
C1123 C 0.2231 0.0134 0.43517 0.0
C1124 C 0.21905 0.02921 0.42495 0.0
C1125 C 0.21665 0.04652 0.43505 0.0
C1126 C 0.21893 0.04828 0.45472 0.0
C1127 C 0.22397 0.03269 0.46461 0.0
C1128 C 0.22553 0.01548 0.45495 0.0
C1129 C 0.23094 0.00053 0.46805 0.0
C1130 C 0.23315 0.01193 0.48699 0.0
C1131 C 0.22911 0.03073 0.48477 0.0
C1132 C 0.24989 0.99311 0.46223 0.0
C1133 C 0.21441 0.9852 0.46727 0.0
C1134 C 0.23598 0.08948 0.52908 0.0
C1135 C 0.24391 0.09337 0.5476 0.0
C1136 C 0.2491 0.07813 0.55819 0.0
C1137 C 0.24714 0.0595 0.55012 0.0
C1138 C 0.24011 0.05607 0.5312 0.0
C1139 C 0.23456 0.07099 0.52112 0.0
C1140 C 0.22875 0.0652 0.50086 0.0
C1141 C 0.23165 0.04427 0.50035 0.0
C1142 C 0.23811 0.03889 0.51815 0.0
C1143 C 0.24235 0.07596 0.4883 0.0
C1144 C 0.20764 0.06898 0.49731 0.0
H1145 H 0.23958 0.96683 0.48807 0.0
H1146 H 0.25939 0.97807 0.55621 0.0
H1147 H 0.22165 0.00249 0.54941 0.0
H1148 H 0.22966 0.026 0.5564 0.0
H1149 H 0.24072 0.0069 0.56721 0.0
H1150 H 0.27985 0.01131 0.53653 0.0
H1151 H 0.27252 0.01541 0.56004 0.0
H1152 H 0.27196 0.03346 0.54328 0.0
H1153 H 0.22475 -0.0002 0.42794 0.0
H1154 H 0.21384 0.05906 0.42774 0.0
H1155 H 0.21728 0.06195 0.46141 0.0
H1156 H 0.25973 0.00498 0.45875 0.0
H1157 H 0.24769 0.98308 0.44957 0.0
H1158 H 0.25748 0.98613 0.47356 0.0
H1159 H 0.2006 0.99138 0.46445 0.0
H1160 H 0.21312 0.97857 0.48083 0.0
H1161 H 0.21585 0.97406 0.4559 0.0
H1162 H 0.24886 0.94072 0.50583 0.0
C1163 C 0.24373 0.96978 0.50276 0.0
C1164 C 0.32363 0.93924 0.94463 0.0
C1165 C 0.32547 0.92122 0.93579 0.0
C1166 C 0.3256 0.91937 0.91593 0.0
C1167 C 0.32138 0.95275 0.9141 0.0
C1168 C 0.32172 0.95474 0.93356 0.0
C1169 C 0.31994 0.97489 0.94068 0.0
H1170 H 0.30835 0.06571 0.92119 0.0
C1171 C 0.3189 0.97147 0.90675 0.0
C1172 C 0.31822 0.98457 0.92226 0.0
H1173 H 0.31471 0.04299 0.97606 0.0
H1174 H 0.31778 0.01191 0.96128 0.0
H1175 H 0.34042 0.04341 0.90261 0.0
H1176 H 0.28035 0.03189 0.90242 0.0
H1177 H 0.28677 0.02566 0.87956 0.0
H1178 H 0.29085 0.04981 0.88896 0.0
H1179 H 0.32402 0.05597 0.88878 0.0
H1180 H 0.33281 0.03414 0.87977 0.0
C1181 C 0.33826 0.98176 0.95271 0.0
C1182 C 0.30172 0.97572 0.95146 0.0
C1183 C 0.31108 0.97777 0.8359 0.0
C1184 C 0.30801 0.99324 0.82493 0.0
C1185 C 0.30739 0.01133 0.83409 0.0
C1186 C 0.30951 0.01395 0.85378 0.0
C1187 C 0.31226 0.99833 0.86456 0.0
C1188 C 0.31317 0.98065 0.8556 0.0
C1189 C 0.31629 0.96574 0.86938 0.0
C1190 C 0.31683 0.97738 0.88807 0.0
C1191 C 0.31439 0.99643 0.88513 0.0
C1192 C 0.33551 0.95738 0.86596 0.0
C1193 C 0.29909 0.95113 0.86692 0.0
C1194 C 0.31023 0.05403 0.93005 0.0
C1195 C 0.31121 0.05683 0.94982 0.0
C1196 C 0.31407 0.04126 0.96079 0.0
C1197 C 0.31576 0.0232 0.95218 0.0
C1198 C 0.31462 0.02064 0.93237 0.0
C1199 C 0.31197 0.03596 0.92169 0.0
C1200 C 0.31117 0.03072 0.90086 0.0
C1201 C 0.31387 0.00973 0.90076 0.0
C1202 C 0.3158 0.00386 0.91924 0.0
C1203 C 0.32784 0.04165 0.89239 0.0
C1204 C 0.29136 0.0348 0.89233 0.0
H1205 H 0.32367 0.93255 0.89006 0.0
H1206 H 0.32339 0.94127 0.95982 0.0
H1207 H 0.29011 0.96634 0.94407 0.0
H1208 H 0.29622 0.98989 0.95232 0.0
H1209 H 0.30404 0.971 0.96598 0.0
H1210 H 0.35073 0.97517 0.94708 0.0
H1211 H 0.33744 0.97802 0.96758 0.0
H1212 H 0.34162 0.99711 0.95245 0.0
H1213 H 0.31188 0.96373 0.8293 0.0
H1214 H 0.30479 0.02345 0.82603 0.0
H1215 H 0.30872 0.02805 0.85985 0.0
H1216 H 0.34554 0.96797 0.8604 0.0
H1217 H 0.33377 0.94499 0.85555 0.0
H1218 H 0.34284 0.95326 0.8791 0.0
H1219 H 0.28574 0.95834 0.86489 0.0
H1220 H 0.29729 0.94287 0.87938 0.0
H1221 H 0.30014 0.94123 0.85438 0.0
H1222 H 0.32748 0.90584 0.90869 0.0
C1223 C 0.32352 0.93497 0.90508 0.0
C1224 C 0.55337 0.69573 0.44955 0.0
C1225 C 0.56159 0.696 0.43204 0.0
C1226 C 0.55091 0.68862 0.41561 0.0
C1227 C 0.52416 0.68142 0.43389 0.0
C1228 C 0.53459 0.68847 0.45011 0.0
C1229 C 0.52322 0.68751 0.46728 0.0
H1230 H 0.43997 0.6639 0.50451 0.0
C1231 C 0.50511 0.67523 0.43905 0.0
C1232 C 0.50435 0.67873 0.45859 0.0
H1233 H 0.49144 0.68898 0.5337 0.0
H1234 H 0.50674 0.6888 0.50432 0.0
H1235 H 0.44147 0.68964 0.46953 0.0
H1236 H 0.46007 0.63379 0.47667 0.0
H1237 H 0.44788 0.63385 0.45437 0.0
H1238 H 0.4356 0.63877 0.47534 0.0
H1239 H 0.42512 0.66937 0.46951 0.0
H1240 H 0.43566 0.67606 0.44827 0.0
C1241 C 0.5216 0.70792 0.47569 0.0
C1242 C 0.53284 0.67439 0.48097 0.0
C1243 C 0.45679 0.64926 0.38734 0.0
C1244 C 0.43756 0.64336 0.38698 0.0
C1245 C 0.42869 0.64303 0.40417 0.0
C1246 C 0.43885 0.6487 0.42139 0.0
C1247 C 0.45803 0.65493 0.42138 0.0
C1248 C 0.46663 0.655 0.40451 0.0
C1249 C 0.48681 0.66262 0.40685 0.0
C1250 C 0.48903 0.66722 0.42796 0.0
C1251 C 0.47221 0.66268 0.43647 0.0
C1252 C 0.48877 0.68062 0.39562 0.0
C1253 C 0.49935 0.64658 0.40055 0.0
C1254 C 0.4546 0.66917 0.50459 0.0
C1255 C 0.46453 0.67641 0.52144 0.0
C1256 C 0.48344 0.68348 0.52087 0.0
C1257 C 0.49232 0.68328 0.50381 0.0
C1258 C 0.48219 0.67604 0.48708 0.0
C1259 C 0.46363 0.66918 0.48765 0.0
C1260 C 0.4549 0.66246 0.46842 0.0
C1261 C 0.47134 0.66615 0.45626 0.0
C1262 C 0.48732 0.67413 0.46726 0.0
C1263 C 0.43832 0.67485 0.46359 0.0
C1264 C 0.44915 0.64112 0.46859 0.0
H1265 H 0.52508 0.67599 0.40337 0.0
H1266 H 0.56122 0.70134 0.46241 0.0
H1267 H 0.53833 0.66215 0.47303 0.0
H1268 H 0.52305 0.66812 0.49066 0.0
H1269 H 0.54494 0.68203 0.4894 0.0
H1270 H 0.52035 0.71791 0.46431 0.0
H1271 H 0.53425 0.7128 0.48508 0.0
H1272 H 0.50884 0.7095 0.48357 0.0
H1273 H 0.46397 0.65019 0.3744 0.0
H1274 H 0.41388 0.63851 0.40427 0.0
H1275 H 0.43133 0.64825 0.43399 0.0
H1276 H 0.47543 0.68802 0.39505 0.0
H1277 H 0.4922 0.67709 0.38085 0.0
H1278 H 0.49946 0.69134 0.40224 0.0
H1279 H 0.49321 0.63259 0.40415 0.0
H1280 H 0.5136 0.64788 0.40781 0.0
H1281 H 0.50066 0.64595 0.38505 0.0
H1282 H 0.55703 0.68834 0.40203 0.0
C1283 C 0.53234 0.68134 0.41644 0.0
C1284 C 0.93849 0.31716 0.05881 0.0
C1285 C 0.95822 0.31621 0.06049 0.0
C1286 C 0.96863 0.31951 0.04463 0.0
C1287 C 0.93985 0.32426 0.02594 0.0
C1288 C 0.92967 0.32123 0.04153 0.0
C1289 C 0.90883 0.32257 0.03739 0.0
H1290 H 0.83594 0.33241 0.97394 0.0
C1291 C 0.92638 0.32793 0.01013 0.0
C1292 C 0.90819 0.32711 0.0168 0.0
H1293 H 0.83384 0.32083 0.03279 0.0
H1294 H 0.8678 0.32368 0.03657 0.0
H1295 H 0.86906 0.36487 0.9796 0.0
H1296 H 0.86924 0.30522 0.96528 0.0
H1297 H 0.88367 0.31712 0.94999 0.0
H1298 H 0.85906 0.32155 0.94994 0.0
H1299 H 0.8629 0.35503 0.95604 0.0
H1300 H 0.88707 0.36203 0.96406 0.0
C1301 C 0.90232 0.33902 0.0502 0.0
C1302 C 0.89882 0.30303 0.04011 0.0
C1303 C 0.94973 0.33691 0.94491 0.0
C1304 C 0.94056 0.34065 0.92754 0.0
C1305 C 0.92104 0.34335 0.92686 0.0
C1306 C 0.91077 0.34176 0.94292 0.0
C1307 C 0.92003 0.33746 0.95997 0.0
C1308 C 0.93926 0.33552 0.96088 0.0
C1309 C 0.94684 0.3318 0.98043 0.0
C1310 C 0.9289 0.33144 0.99097 0.0
C1311 C 0.91322 0.33453 0.97884 0.0
C1312 C 0.96093 0.34852 0.98778 0.0
C1313 C 0.95547 0.31232 0.97947 0.0
C1314 C 0.84279 0.3305 0.98765 0.0
C1315 C 0.83213 0.32626 0.00304 0.0
C1316 C 0.84165 0.32427 0.02073 0.0
C1317 C 0.86142 0.32572 0.02285 0.0
C1318 C 0.87186 0.32911 0.00712 0.0
C1319 C 0.86253 0.33177 0.98997 0.0
C1320 C 0.87592 0.3351 0.97477 0.0
C1321 C 0.89481 0.33358 0.98554 0.0
C1322 C 0.89233 0.33 0.00444 0.0
C1323 C 0.87363 0.35522 0.96808 0.0
C1324 C 0.87181 0.31904 0.95903 0.0
H1325 H 0.96829 0.32584 0.01588 0.0
H1326 H 0.92999 0.31447 0.07059 0.0
H1327 H 0.90767 0.29141 0.03559 0.0
H1328 H 0.88543 0.30028 0.03143 0.0
H1329 H 0.89609 0.30147 0.05516 0.0
H1330 H 0.91346 0.35079 0.05228 0.0
H1331 H 0.89922 0.33431 0.06435 0.0
H1332 H 0.88983 0.34547 0.04401 0.0
H1333 H 0.96466 0.3347 0.94605 0.0
H1334 H 0.91363 0.34678 0.91389 0.0
H1335 H 0.89596 0.34381 0.9414 0.0
H1336 H 0.95697 0.36191 0.98176 0.0
H1337 H 0.97548 0.346 0.98385 0.0
H1338 H 0.96105 0.35147 0.00323 0.0
H1339 H 0.94642 0.30195 0.97001 0.0
H1340 H 0.95655 0.30598 0.99323 0.0
H1341 H 0.9697 0.31335 0.97385 0.0
H1342 H 0.98386 0.31915 0.04557 0.0
C1343 C 0.95957 0.32352 0.02741 0.0
C1344 C 0.16666 0.77433 0.54825 0.0
C1345 C 0.17465 0.7815 0.56607 0.0
C1346 C 0.16265 0.78712 0.5801 0.0
C1347 C 0.13525 0.77681 0.55936 0.0
C1348 C 0.14691 0.77233 0.54515 0.0
C1349 C 0.13577 0.76521 0.5271 0.0
H1350 H 0.05076 0.73794 0.48178 0.0
C1351 C 0.11557 0.7716 0.55231 0.0
C1352 C 0.11565 0.76508 0.53331 0.0
H1353 H 0.10542 0.74182 0.45824 0.0
H1354 H 0.12001 0.75313 0.48868 0.0
H1355 H 0.06504 0.7193 0.51888 0.0
H1356 H 0.05613 0.7773 0.50869 0.0
H1357 H 0.04582 0.77156 0.52972 0.0
H1358 H 0.0374 0.75905 0.50776 0.0
H1359 H 0.04188 0.72799 0.51793 0.0
H1360 H 0.05676 0.72962 0.53955 0.0
C1361 C 0.14149 0.74505 0.52162 0.0
C1362 C 0.13932 0.77958 0.51198 0.0
C1363 C 0.06483 0.77082 0.5991 0.0
C1364 C 0.04604 0.76326 0.59815 0.0
C1365 C 0.03731 0.75685 0.58034 0.0
C1366 C 0.04747 0.75714 0.564 0.0
C1367 C 0.06661 0.76372 0.56548 0.0
C1368 C 0.07485 0.77059 0.58283 0.0
C1369 C 0.09555 0.77584 0.58224 0.0
C1370 C 0.09852 0.77082 0.56167 0.0
C1371 C 0.08154 0.7639 0.55183 0.0
C1372 C 0.10636 0.76321 0.59568 0.0
C1373 C 0.09894 0.79737 0.5873 0.0
C1374 C 0.06589 0.7411 0.48317 0.0
C1375 C 0.07689 0.73902 0.46747 0.0
C1376 C 0.09653 0.74355 0.46997 0.0
C1377 C 0.10502 0.75004 0.48769 0.0
C1378 C 0.09382 0.75202 0.50319 0.0
C1379 C 0.07459 0.7476 0.50078 0.0
C1380 C 0.06494 0.75041 0.5189 0.0
C1381 C 0.08143 0.75794 0.53239 0.0
C1382 C 0.09837 0.75865 0.52315 0.0
C1383 C 0.05656 0.73092 0.52415 0.0
C1384 C 0.05018 0.76528 0.51623 0.0
H1385 H 0.13475 0.78903 0.58827 0.0
H1386 H 0.17556 0.77025 0.53708 0.0
H1387 H 0.1428 0.79408 0.51856 0.0
H1388 H 0.12668 0.78093 0.50242 0.0
H1389 H 0.15127 0.77577 0.50348 0.0
H1390 H 0.1422 0.73654 0.53422 0.0
H1391 H 0.1556 0.74549 0.51572 0.0
H1392 H 0.13127 0.73714 0.5113 0.0
H1393 H 0.07192 0.77626 0.61241 0.0
H1394 H 0.02287 0.7509 0.57913 0.0
H1395 H 0.04019 0.75174 0.55093 0.0
H1396 H 0.09938 0.74872 0.59509 0.0
H1397 H 0.10676 0.76909 0.61054 0.0
H1398 H 0.12091 0.76107 0.59192 0.0
H1399 H 0.08637 0.80504 0.58298 0.0
H1400 H 0.11055 0.80388 0.57973 0.0
H1401 H 0.10192 0.80042 0.60273 0.0
H1402 H 0.16843 0.79261 0.59395 0.0
C1403 C 0.14305 0.78487 0.57684 0.0
C1404 C 0.53174 0.25531 0.96726 0.0
C1405 C 0.5512 0.26042 0.96749 0.0
C1406 C 0.56218 0.26091 0.98473 0.0
C1407 C 0.53455 0.2513 0.00095 0.0
C1408 C 0.52378 0.25075 0.98406 0.0
C1409 C 0.50337 0.24488 0.98625 0.0
H1410 H 0.43502 0.22218 0.04451 0.0
C1411 C 0.52209 0.2455 0.01571 0.0
C1412 C 0.50381 0.24148 0.00712 0.0
H1413 H 0.42816 0.22953 0.98463 0.0
H1414 H 0.46204 0.23463 0.98351 0.0
H1415 H 0.46895 0.19673 0.0429 0.0
H1416 H 0.46525 0.25624 0.05437 0.0
H1417 H 0.48111 0.24837 0.07166 0.0
H1418 H 0.45723 0.23845 0.06942 0.0
H1419 H 0.46555 0.20641 0.0662 0.0
H1420 H 0.48889 0.20375 0.05807 0.0
C1421 C 0.49809 0.22648 0.97377 0.0
C1422 C 0.49143 0.26162 0.98134 0.0
C1423 C 0.54681 0.24826 0.0848 0.0
C1424 C 0.53816 0.24332 0.10129 0.0
C1425 C 0.52002 0.23394 0.09947 0.0
C1426 C 0.51008 0.23088 0.08191 0.0
C1427 C 0.51828 0.23714 0.06582 0.0
C1428 C 0.53664 0.24489 0.0672 0.0
C1429 C 0.54336 0.24916 0.04812 0.0
C1430 C 0.52559 0.24371 0.03539 0.0
C1431 C 0.51092 0.23706 0.046 0.0
C1432 C 0.5596 0.23632 0.04376 0.0
C1433 C 0.54898 0.27055 0.04839 0.0
C1434 C 0.44069 0.22442 0.031 0.0
C1435 C 0.42874 0.22543 0.01466 0.0
C1436 C 0.43696 0.22889 0.99752 0.0
C1437 C 0.45665 0.23186 0.9969 0.0
C1438 C 0.46827 0.23147 0.0136 0.0
C1439 C 0.46019 0.22746 0.03017 0.0
C1440 C 0.47439 0.22787 0.04669 0.0
C1441 C 0.49242 0.23325 0.03746 0.0
C1442 C 0.48883 0.2354 0.01811 0.0
C1443 C 0.47445 0.20775 0.054 0.0
C1444 C 0.46932 0.24343 0.06144 0.0
H1445 H 0.56306 0.25712 0.01409 0.0
H1446 H 0.52293 0.25458 0.95423 0.0
H1447 H 0.49906 0.27533 0.98627 0.0
H1448 H 0.47803 0.26157 0.98836 0.0
H1449 H 0.48835 0.26176 0.96585 0.0
H1450 H 0.5099 0.21692 0.97425 0.0
H1451 H 0.49504 0.22955 0.9588 0.0
H1452 H 0.48589 0.21819 0.97859 0.0
H1453 H 0.56086 0.25516 0.08558 0.0
H1454 H 0.51329 0.22919 0.11174 0.0
H1455 H 0.49616 0.22415 0.08165 0.0
H1456 H 0.55846 0.22311 0.05134 0.0
H1457 H 0.5736 0.24359 0.0481 0.0
H1458 H 0.55928 0.23144 0.02866 0.0
H1459 H 0.53813 0.27887 0.05508 0.0
H1460 H 0.55004 0.27569 0.03416 0.0
H1461 H 0.56267 0.27408 0.0566 0.0
H1462 H 0.57714 0.26502 0.98536 0.0
C1463 C 0.55398 0.25638 0.00143 0.0
C1464 C 0.43241 0.55316 0.67316 0.0
C1465 C 0.44684 0.5659 0.6814 0.0
C1466 C 0.46479 0.55934 0.68576 0.0
C1467 C 0.45362 0.52771 0.67327 0.0
C1468 C 0.43601 0.5343 0.66941 0.0
C1469 C 0.42161 0.51902 0.66185 0.0
H1470 H 0.3973 0.42701 0.63956 0.0
C1471 C 0.45226 0.50715 0.66784 0.0
C1472 C 0.43348 0.50209 0.66133 0.0
H1473 H 0.36189 0.47441 0.64029 0.0
H1474 H 0.38891 0.49571 0.64814 0.0
H1475 H 0.43047 0.44722 0.61852 0.0
H1476 H 0.42353 0.4411 0.67751 0.0
H1477 H 0.44667 0.43574 0.6726 0.0
H1478 H 0.42693 0.42177 0.66086 0.0
H1479 H 0.43598 0.42602 0.62948 0.0
H1480 H 0.45322 0.44574 0.62912 0.0
C1481 C 0.41446 0.52376 0.64175 0.0
C1482 C 0.40605 0.51739 0.67618 0.0
C1483 C 0.51041 0.46887 0.67214 0.0
C1484 C 0.51331 0.44986 0.66711 0.0
C1485 C 0.49774 0.43766 0.6601 0.0
C1486 C 0.47963 0.44425 0.65803 0.0
C1487 C 0.47697 0.46328 0.66296 0.0
C1488 C 0.4922 0.47529 0.66984 0.0
C1489 C 0.48668 0.49519 0.67391 0.0
C1490 C 0.46572 0.49317 0.66799 0.0
C1491 C 0.4601 0.47436 0.6618 0.0
C1492 C 0.49771 0.50834 0.66131 0.0
C1493 C 0.49035 0.50032 0.69534 0.0
C1494 C 0.39542 0.44199 0.64144 0.0
C1495 C 0.37733 0.44895 0.63924 0.0
C1496 C 0.37559 0.46859 0.64153 0.0
C1497 C 0.39135 0.48101 0.64636 0.0
C1498 C 0.40917 0.47384 0.64914 0.0
C1499 C 0.41111 0.45469 0.64636 0.0
C1500 C 0.43134 0.44986 0.64975 0.0
C1501 C 0.44095 0.46922 0.65575 0.0
C1502 C 0.42782 0.48309 0.65538 0.0
C1503 C 0.4382 0.44165 0.63085 0.0
C1504 C 0.43231 0.43631 0.66595 0.0
H1505 H 0.48225 0.53606 0.68513 0.0
H1506 H 0.41832 0.55767 0.67017 0.0
H1507 H 0.41168 0.52207 0.69078 0.0
H1508 H 0.40042 0.50269 0.67732 0.0
H1509 H 0.39419 0.52624 0.67254 0.0
H1510 H 0.42612 0.53035 0.63414 0.0
H1511 H 0.40316 0.53384 0.64235 0.0
H1512 H 0.40923 0.51113 0.63266 0.0
H1513 H 0.52211 0.47864 0.6774 0.0
H1514 H 0.49955 0.42291 0.65636 0.0
H1515 H 0.46839 0.43425 0.65266 0.0
H1516 H 0.49788 0.50171 0.64675 0.0
H1517 H 0.51258 0.5112 0.66699 0.0
H1518 H 0.49131 0.52193 0.65972 0.0
H1519 H 0.48725 0.48783 0.70359 0.0
H1520 H 0.48111 0.51109 0.70066 0.0
H1521 H 0.50532 0.50534 0.69887 0.0
H1522 H 0.47608 0.56894 0.69227 0.0
C1523 C 0.46831 0.54029 0.6816 0.0
C1524 C 0.97379 0.84077 0.30949 0.0
C1525 C 0.98885 0.82911 0.3073 0.0
C1526 C 0.00751 0.83716 0.30947 0.0
C1527 C 0.99595 0.86818 0.31538 0.0
C1528 C 0.97767 0.86017 0.31373 0.0
C1529 C 0.96339 0.87451 0.31725 0.0
H1530 H 0.9443 0.96535 0.3373 0.0
C1531 C 0.99513 0.88869 0.31967 0.0
C1532 C 0.97612 0.89245 0.32108 0.0
H1533 H 0.90502 0.91623 0.32796 0.0
H1534 H 0.93078 0.89638 0.32355 0.0
H1535 H 0.97536 0.94647 0.36267 0.0
H1536 H 0.97014 0.95337 0.30288 0.0
H1537 H 0.99383 0.95892 0.31077 0.0
H1538 H 0.97576 0.97281 0.32003 0.0
H1539 H 0.9802 0.96888 0.35306 0.0
H1540 H 0.99813 0.95215 0.35557 0.0
C1541 C 0.9529 0.86923 0.33485 0.0
C1542 C 0.95046 0.87505 0.29897 0.0
C1543 C 0.05502 0.93162 0.32118 0.0
C1544 C 0.05876 0.95127 0.32441 0.0
C1545 C 0.04386 0.96242 0.32943 0.0
C1546 C 0.02554 0.95428 0.33055 0.0
C1547 C 0.02197 0.93473 0.32668 0.0
C1548 C 0.03667 0.92371 0.32247 0.0
C1549 C 0.03039 0.90311 0.31937 0.0
C1550 C 0.00937 0.90369 0.32179 0.0
C1551 C 0.0045 0.92225 0.32594 0.0
C1552 C 0.04044 0.89229 0.33496 0.0
C1553 C 0.03448 0.89642 0.29898 0.0
C1554 C 0.94122 0.95034 0.33419 0.0
C1555 C 0.92253 0.9424 0.33309 0.0
C1556 C 0.91926 0.92272 0.32924 0.0
C1557 C 0.93426 0.9112 0.32653 0.0
C1558 C 0.95281 0.91936 0.32758 0.0
C1559 C 0.95606 0.93862 0.33137 0.0
C1560 C 0.9767 0.94481 0.3317 0.0
C1561 C 0.98529 0.92607 0.32768 0.0
C1562 C 0.9712 0.91124 0.32523 0.0
C1563 C 0.98304 0.95369 0.3517 0.0
C1564 C 0.9794 0.95829 0.31564 0.0
H1565 H 0.02563 0.86195 0.31468 0.0
H1566 H 0.95932 0.83487 0.30816 0.0
H1567 H 0.95876 0.87357 0.28626 0.0
H1568 H 0.94378 0.88857 0.29781 0.0
H1569 H 0.93929 0.86335 0.29789 0.0
H1570 H 0.96233 0.86241 0.34508 0.0
H1571 H 0.9405 0.8592 0.33088 0.0
H1572 H 0.94827 0.88167 0.34297 0.0
H1573 H 0.066 0.92257 0.31721 0.0
H1574 H 0.04633 0.97751 0.33247 0.0
H1575 H 0.01484 0.96356 0.33427 0.0
H1576 H 0.04444 0.90164 0.3479 0.0
H1577 H 0.05357 0.88647 0.33007 0.0
H1578 H 0.03123 0.88072 0.33985 0.0
H1579 H 0.03035 0.90705 0.28892 0.0
H1580 H 0.02643 0.88317 0.29382 0.0
H1581 H 0.04975 0.89444 0.29788 0.0
H1582 H 0.0193 0.8284 0.30776 0.0
C1583 C 0.01114 0.85664 0.31342 0.0
C1584 C 0.59643 0.05389 0.77133 0.0
C1585 C 0.61431 0.06148 0.77888 0.0
C1586 C 0.61559 0.07926 0.789 0.0
C1587 C 0.58278 0.08326 0.78046 0.0
C1588 C 0.5808 0.06499 0.77248 0.0
C1589 C 0.56067 0.0596 0.76521 0.0
H1590 H 0.47245 0.08701 0.74436 0.0
C1591 C 0.56485 0.09214 0.77699 0.0
C1592 C 0.55161 0.07831 0.76846 0.0
H1593 H 0.49133 0.03029 0.74224 0.0
H1594 H 0.52283 0.04242 0.75317 0.0
H1595 H 0.49503 0.10204 0.78437 0.0
H1596 H 0.50878 0.10554 0.72647 0.0
H1597 H 0.51842 0.12636 0.73886 0.0
H1598 H 0.49316 0.12126 0.73715 0.0
H1599 H 0.48214 0.11508 0.7676 0.0
H1600 H 0.50309 0.12544 0.78061 0.0
C1601 C 0.55245 0.04417 0.77746 0.0
C1602 C 0.56046 0.05341 0.74396 0.0
C1603 C 0.5653 0.16337 0.78477 0.0
C1604 C 0.55255 0.17644 0.77887 0.0
C1605 C 0.53448 0.16977 0.77107 0.0
C1606 C 0.52937 0.15028 0.76896 0.0
C1607 C 0.5426 0.13736 0.77435 0.0
C1608 C 0.5602 0.14407 0.78214 0.0
C1609 C 0.57314 0.12858 0.78556 0.0
C1610 C 0.56043 0.11134 0.77857 0.0
C1611 C 0.54252 0.11649 0.77216 0.0
C1612 C 0.57847 0.12882 0.80707 0.0
C1613 C 0.59017 0.13164 0.77322 0.0
C1614 C 0.48339 0.07721 0.74611 0.0
C1615 C 0.47932 0.05764 0.74252 0.0
C1616 C 0.49398 0.04538 0.74518 0.0
C1617 C 0.51227 0.05243 0.7515 0.0
C1618 C 0.51602 0.07196 0.75526 0.0
C1619 C 0.50172 0.08402 0.75256 0.0
C1620 C 0.50836 0.10435 0.75746 0.0
C1621 C 0.52868 0.10235 0.76453 0.0
C1622 C 0.53317 0.08336 0.76287 0.0
C1623 C 0.49653 0.11231 0.77329 0.0
C1624 C 0.50705 0.11509 0.73916 0.0
H1625 H 0.60205 0.10381 0.79713 0.0
H1626 H 0.59479 0.04006 0.76393 0.0
H1627 H 0.56905 0.0638 0.73646 0.0
H1628 H 0.54616 0.05252 0.73687 0.0
H1629 H 0.56644 0.03943 0.74183 0.0
H1630 H 0.56051 0.04409 0.79136 0.0
H1631 H 0.55277 0.02985 0.77034 0.0
H1632 H 0.5378 0.04657 0.78099 0.0
H1633 H 0.57943 0.16804 0.79038 0.0
H1634 H 0.52443 0.17962 0.76642 0.0
H1635 H 0.51547 0.14601 0.76286 0.0
H1636 H 0.56771 0.13551 0.8155 0.0
H1637 H 0.59223 0.13681 0.81087 0.0
H1638 H 0.57903 0.11441 0.81209 0.0
H1639 H 0.58531 0.13545 0.75886 0.0
H1640 H 0.59814 0.11904 0.77088 0.0
H1641 H 0.60015 0.14329 0.77955 0.0
H1642 H 0.62891 0.08509 0.79579 0.0
C1643 C 0.59996 0.09014 0.78982 0.0
C1644 C 0.08756 0.54973 0.2388 0.0
C1645 C 0.10471 0.54128 0.23635 0.0
C1646 C 0.10475 0.52144 0.23478 0.0
C1647 C 0.07126 0.5187 0.23889 0.0
C1648 C 0.07099 0.53815 0.23985 0.0
C1649 C 0.05141 0.54451 0.2423 0.0
H1650 H 0.95926 0.52173 0.25486 0.0
C1651 C 0.05201 0.51069 0.24121 0.0
C1652 C 0.04018 0.52566 0.24293 0.0
H1653 H 0.98668 0.57725 0.25105 0.0
H1654 H 0.01621 0.56341 0.24605 0.0
H1655 H 0.97895 0.50152 0.22088 0.0
H1656 H 0.99386 0.50543 0.28078 0.0
H1657 H 0.99503 0.48187 0.27198 0.0
H1658 H 0.97282 0.49263 0.27039 0.0
H1659 H 0.96592 0.48809 0.23688 0.0
H1660 H 0.9868 0.47959 0.22692 0.0
C1661 C 0.04529 0.55511 0.22477 0.0
C1662 C 0.05179 0.55647 0.26128 0.0
C1663 C 0.04156 0.44036 0.24724 0.0
C1664 C 0.02556 0.42844 0.2495 0.0
C1665 C 0.00773 0.43599 0.24963 0.0
C1666 C 0.00603 0.45545 0.24819 0.0
C1667 C 0.02232 0.46735 0.24641 0.0
C1668 C 0.03962 0.4596 0.24555 0.0
C1669 C 0.05532 0.47398 0.2427 0.0
C1670 C 0.04476 0.49184 0.24259 0.0
C1671 C 0.0255 0.48798 0.24498 0.0
C1672 C 0.06335 0.46902 0.22332 0.0
C1673 C 0.06988 0.47427 0.25988 0.0
C1674 C 0.97166 0.53091 0.25312 0.0
C1675 C 0.97062 0.55062 0.2534 0.0
C1676 C 0.98704 0.56202 0.2507 0.0
C1677 C 0.00421 0.55397 0.24791 0.0
C1678 C 0.00506 0.53428 0.24784 0.0
C1679 C 0.98893 0.52309 0.25032 0.0
C1680 C 0.99247 0.50242 0.24972 0.0
C1681 C 0.01338 0.50307 0.24648 0.0
C1682 C 0.02069 0.52179 0.24547 0.0
C1683 C 0.98036 0.49222 0.23284 0.0
C1684 C 0.98826 0.49502 0.26915 0.0
H1685 H 0.08932 0.49518 0.23503 0.0
H1686 H 0.08708 0.56495 0.23992 0.0
H1687 H 0.0607 0.55018 0.27234 0.0
H1688 H 0.03777 0.55712 0.26702 0.0
H1689 H 0.05775 0.57109 0.25985 0.0
H1690 H 0.05144 0.54912 0.21188 0.0
H1691 H 0.05007 0.57032 0.22664 0.0
H1692 H 0.02988 0.55374 0.2214 0.0
H1693 H 0.05537 0.43476 0.24671 0.0
H1694 H 0.99523 0.42689 0.25124 0.0
H1695 H 0.99215 0.46051 0.24864 0.0
H1696 H 0.05281 0.4605 0.21357 0.0
H1697 H 0.07601 0.46073 0.22495 0.0
H1698 H 0.06695 0.48172 0.21567 0.0
H1699 H 0.06258 0.47323 0.27321 0.0
H1700 H 0.07898 0.48745 0.26196 0.0
H1701 H 0.07899 0.46219 0.25858 0.0
H1702 H 0.11779 0.51457 0.23321 0.0
C1703 C 0.08818 0.51015 0.236 0.0
H1704 H 0.20724 0.60453 0.27906 0.0
H1705 H 0.13342 0.53686 0.213 0.0
H1706 H 0.22218 0.5581 0.24217 0.0
H1707 H 0.11754 0.57133 0.26076 0.0
H1708 H 0.16566 0.55093 0.21809 0.0
H1709 H 0.17415 0.59835 0.26733 0.0
C1710 C 0.2036 0.59321 0.26831 0.0
C1711 C 0.21742 0.58164 0.26174 0.0
C1712 C 0.15507 0.55562 0.2273 0.0
C1713 C 0.17975 0.57464 0.24822 0.0
C1714 C 0.13668 0.54762 0.2244 0.0
C1715 C 0.1229 0.55267 0.23672 0.0
C1716 C 0.15975 0.56877 0.24266 0.0
C1717 C 0.12776 0.56698 0.25099 0.0
C1718 C 0.18473 0.58969 0.26167 0.0
C1719 C 0.21195 0.56721 0.2478 0.0
N1720 N 0.1459 0.57434 0.25376 0.0
N1721 N 0.19353 0.56406 0.24158 0.0
H1722 H 0.28598 0.36805 0.65776 0.0
H1723 H 0.34538 0.4536 0.61678 0.0
H1724 H 0.26114 0.41267 0.62831 0.0
H1725 H 0.36962 0.41501 0.65457 0.0
H1726 H 0.31513 0.43554 0.61654 0.0
H1727 H 0.31734 0.38171 0.65204 0.0
C1728 C 0.2871 0.38058 0.64987 0.0
C1729 C 0.27092 0.38939 0.64372 0.0
C1730 C 0.32715 0.43079 0.62457 0.0
C1731 C 0.30675 0.40512 0.63723 0.0
C1732 C 0.34442 0.44118 0.62484 0.0
C1733 C 0.36003 0.43605 0.63601 0.0
C1734 C 0.32544 0.41496 0.63532 0.0
C1735 C 0.35802 0.41951 0.64574 0.0
C1736 C 0.30502 0.38843 0.64673 0.0
C1737 C 0.27323 0.40554 0.6335 0.0
N1738 N 0.34098 0.40966 0.64531 0.0
N1739 N 0.29081 0.41295 0.6307 0.0
H1740 H 0.72824 0.04177 0.75241 0.0
H1741 H 0.62054 0.02331 0.77722 0.0
H1742 H 0.69992 0.98606 0.74833 0.0
H1743 H 0.64821 0.07816 0.771 0.0
H1744 H 0.64989 0.00881 0.76973 0.0
H1745 H 0.69961 0.05477 0.76312 0.0
C1746 C 0.71602 0.03223 0.75388 0.0
C1747 C 0.71645 0.01281 0.74933 0.0
C1748 C 0.64948 0.02403 0.77016 0.0
C1749 C 0.68343 0.02767 0.7615 0.0
C1750 C 0.63273 0.0323 0.77435 0.0
C1751 C 0.63189 0.05203 0.77498 0.0
C1752 C 0.66546 0.03558 0.76659 0.0
C1753 C 0.6482 0.06296 0.77121 0.0
C1754 C 0.69962 0.03968 0.75995 0.0
C1755 C 0.70017 0.00114 0.75161 0.0
N1756 N 0.66422 0.0546 0.76721 0.0
N1757 N 0.68426 0.00877 0.75745 0.0
H1758 H 0.81237 0.98215 0.3519 0.0
H1759 H 0.91799 0.97763 0.32037 0.0
H1760 H 0.84277 0.02849 0.32818 0.0
H1761 H 0.89028 0.93479 0.35133 0.0
H1762 H 0.89079 0.99667 0.32342 0.0
H1763 H 0.84088 0.96468 0.35201 0.0
C1764 C 0.82507 0.9887 0.3468 0.0
C1765 C 0.82516 0.00679 0.33995 0.0
C1766 C 0.8907 0.98314 0.32963 0.0
C1767 C 0.85784 0.98681 0.33993 0.0
C1768 C 0.90628 0.97229 0.32798 0.0
C1769 C 0.90643 0.95451 0.33553 0.0
C1770 C 0.87507 0.97615 0.33882 0.0
C1771 C 0.89068 0.94824 0.34498 0.0
C1772 C 0.84135 0.97872 0.34688 0.0
C1773 C 0.84204 0.01457 0.33356 0.0
N1774 N 0.87563 0.95899 0.34628 0.0
N1775 N 0.85767 0.00449 0.3336 0.0
H1776 H 0.27048 0.19896 0.61559 0.0
H1777 H 0.25589 0.1235 0.52835 0.0
H1778 H 0.25995 0.21361 0.55805 0.0
H1779 H 0.24147 0.10888 0.58398 0.0
H1780 H 0.26112 0.1563 0.53997 0.0
H1781 H 0.26304 0.16558 0.60526 0.0
C1782 C 0.26649 0.19519 0.60083 0.0
C1783 C 0.26589 0.20908 0.58764 0.0
C1784 C 0.25669 0.14595 0.54963 0.0
C1785 C 0.25769 0.17108 0.5758 0.0
C1786 C 0.25358 0.12716 0.54299 0.0
C1787 C 0.24781 0.11333 0.55508 0.0
C1788 C 0.25441 0.15109 0.56864 0.0
C1789 C 0.2459 0.11901 0.57413 0.0
C1790 C 0.26224 0.17617 0.59499 0.0
C1791 C 0.26061 0.20341 0.56872 0.0
N1792 N 0.24922 0.13749 0.58035 0.0
N1793 N 0.2569 0.18485 0.56335 0.0
H1794 H 0.34429 0.84417 0.02427 0.0
H1795 H 0.31066 0.88498 0.92677 0.0
H1796 H 0.32901 0.80899 0.97332 0.0
H1797 H 0.34399 0.91892 0.97072 0.0
H1798 H 0.31422 0.85737 0.945 0.0
H1799 H 0.34123 0.87219 0.0062 0.0
C1800 C 0.34031 0.84234 0.00929 0.0
C1801 C 0.33692 0.82422 0.00027 0.0
C1802 C 0.32079 0.87086 0.95062 0.0
C1803 C 0.33323 0.85616 0.97962 0.0
C1804 C 0.31886 0.88666 0.94017 0.0
C1805 C 0.32717 0.90438 0.94708 0.0
C1806 C 0.33091 0.87274 0.96827 0.0
C1807 C 0.33715 0.90565 0.96486 0.0
C1808 C 0.33862 0.85832 0.999 0.0
C1809 C 0.33183 0.82267 0.98083 0.0
N1810 N 0.33872 0.89005 0.97485 0.0
N1811 N 0.33004 0.83843 0.97118 0.0
H1812 H 0.65294 0.29016 0.3617 0.0
H1813 H 0.65369 0.38249 0.40001 0.0
H1814 H 0.63314 0.27715 0.41586 0.0
H1815 H 0.61203 0.3613 0.43636 0.0
H1816 H 0.65356 0.35113 0.3841 0.0
H1817 H 0.64524 0.32292 0.36786 0.0
C1818 C 0.64697 0.29419 0.37488 0.0
C1819 C 0.64389 0.28094 0.3884 0.0
C1820 C 0.64395 0.3534 0.3951 0.0
C1821 C 0.63539 0.31846 0.39569 0.0
C1822 C 0.64402 0.37139 0.4042 0.0
C1823 C 0.63306 0.37444 0.41971 0.0
C1824 C 0.63287 0.3384 0.40163 0.0
C1825 C 0.62099 0.35945 0.42471 0.0
C1826 C 0.64266 0.31294 0.37842 0.0
C1827 C 0.63585 0.28689 0.40508 0.0
N1828 N 0.62151 0.342 0.41596 0.0
N1829 N 0.63196 0.3052 0.40828 0.0
H1830 H 0.74603 0.68781 0.97115 0.0
H1831 H 0.76129 0.63284 0.06502 0.0
H1832 H 0.74764 0.71367 0.0278 0.0
H1833 H 0.7689 0.60679 0.00981 0.0
H1834 H 0.75501 0.66212 0.05085 0.0
H1835 H 0.75352 0.6578 0.98423 0.0
C1836 C 0.74806 0.68722 0.98631 0.0
C1837 C 0.74616 0.70329 0.9984 0.0
C1838 C 0.75813 0.65009 0.04175 0.0
C1839 C 0.75456 0.66903 0.0134 0.0
C1840 C 0.76184 0.63332 0.04987 0.0
C1841 C 0.76602 0.61736 0.03864 0.0
C1842 C 0.75838 0.65108 0.02214 0.0
C1843 C 0.7658 0.61875 0.01901 0.0
C1844 C 0.75232 0.67009 0.99375 0.0
C1845 C 0.74893 0.70169 0.01791 0.0
N1846 N 0.7621 0.63536 0.01136 0.0
N1847 N 0.7529 0.68489 0.02476 0.0
H1848 H 0.61403 0.27631 0.20052 0.0
H1849 H 0.52115 0.25553 0.13274 0.0
H1850 H 0.55852 0.26519 0.22032 0.0
H1851 H 0.57592 0.24368 0.1136 0.0
H1852 H 0.5354 0.2628 0.16442 0.0
H1853 H 0.60113 0.26754 0.1681 0.0
C1854 C 0.59918 0.27193 0.19807 0.0
C1855 C 0.58731 0.27152 0.21314 0.0
C1856 C 0.54432 0.25851 0.15333 0.0
C1857 C 0.57253 0.26178 0.17623 0.0
C1858 C 0.53618 0.25423 0.1352 0.0
C1859 C 0.54726 0.24856 0.12045 0.0
C1860 C 0.56381 0.25745 0.15689 0.0
C1861 C 0.56681 0.24797 0.12449 0.0
C1862 C 0.59187 0.26692 0.17961 0.0
C1863 C 0.56821 0.26572 0.20917 0.0
N1864 N 0.5745 0.25236 0.14237 0.0
N1865 N 0.5614 0.26124 0.19112 0.0
H1866 H 0.97205 0.33649 0.81176 0.0
H1867 H 0.97724 0.3543 0.92393 0.0
H1868 H 0.02479 0.34281 0.84567 0.0
H1869 H 0.92811 0.32845 0.89124 0.0
H1870 H 0.99435 0.35434 0.89516 0.0
H1871 H 0.95508 0.33815 0.8406 0.0
C1872 C 0.98007 0.33834 0.82526 0.0
C1873 C -0.00013 0.33945 0.82632 0.0
C1874 C 0.97981 0.3487 0.89434 0.0
C1875 C 0.98052 0.34141 0.85936 0.0
C1876 C 0.97003 0.34857 0.91078 0.0
C1877 C 0.95113 0.34134 0.91012 0.0
C1878 C 0.9706 0.34176 0.87707 0.0
C1879 C 0.9425 0.33449 0.8925 0.0
C1880 C 0.97037 0.33921 0.84171 0.0
C1881 C 0.00952 0.3418 0.84422 0.0
N1882 N 0.95228 0.33491 0.87671 0.0
N1883 N -0.00025 0.34274 0.86005 0.0
H1884 H 0.41963 0.63423 0.26734 0.0
H1885 H 0.40237 0.65404 0.37584 0.0
H1886 H 0.36933 0.65798 0.28675 0.0
H1887 H 0.4485 0.62339 0.35581 0.0
H1888 H 0.38796 0.65227 0.34362 0.0
H1889 H 0.42874 0.62731 0.29967 0.0
C1890 C 0.41036 0.63776 0.27838 0.0
C1891 C 0.39381 0.64691 0.27438 0.0
C1892 C 0.40111 0.6457 0.34632 0.0
C1893 C 0.4042 0.63911 0.3115 0.0
C1894 C 0.40927 0.64657 0.36476 0.0
C1895 C 0.42684 0.63914 0.36848 0.0
C1896 C 0.41069 0.6375 0.33152 0.0
C1897 C 0.43518 0.62973 0.35351 0.0
C1898 C 0.41557 0.63381 0.29686 0.0
C1899 C 0.38228 0.65103 0.28922 0.0
N1900 N 0.4272 0.62947 0.33566 0.0
N1901 N 0.38782 0.64733 0.30718 0.0
H1902 H 0.02404 0.74813 0.71424 0.0
H1903 H 0.00852 0.76726 0.60486 0.0
H1904 H 0.96861 0.74542 0.68543 0.0
H1905 H 0.0614 0.75325 0.63197 0.0
H1906 H 0.99348 0.76298 0.63461 0.0
H1907 H 0.03791 0.75459 0.68466 0.0
C1908 C 0.01476 0.74901 0.70171 0.0
C1909 C 0.99513 0.74611 0.70231 0.0
C1910 C 0.00839 0.76094 0.63397 0.0
C1911 C 0.01098 0.75346 0.66826 0.0
C1912 C 0.01697 0.7633 0.61699 0.0
C1913 C 0.03634 0.76086 0.61589 0.0
C1914 C 0.01929 0.75622 0.64994 0.0
C1915 C 0.04657 0.75583 0.63216 0.0
C1916 C 0.0227 0.75263 0.68478 0.0
C1917 C 0.98383 0.74747 0.68558 0.0
N1918 N 0.03795 0.75375 0.64845 0.0
N1919 N 0.99192 0.75102 0.6692 0.0
H1920 H 0.81308 0.3468 0.72488 0.0
H1921 H 0.88441 0.43681 0.72338 0.0
H1922 H 0.7972 0.40392 0.73547 0.0
H1923 H 0.90408 0.38319 0.7387 0.0
H1924 H 0.85207 0.42375 0.72348 0.0
H1925 H 0.84634 0.3587 0.72616 0.0
C1926 C 0.81659 0.3618 0.72756 0.0
C1927 C 0.80236 0.37441 0.73004 0.0
C1928 C 0.86345 0.41486 0.7269 0.0
C1929 C 0.84016 0.38802 0.73121 0.0
C1930 C 0.88198 0.42232 0.72696 0.0
C1931 C 0.8971 0.41123 0.73143 0.0
C1932 C 0.85984 0.396 0.731 0.0
C1933 C 0.89291 0.39228 0.73515 0.0
C1934 C 0.83553 0.36854 0.72832 0.0
C1935 C 0.80768 0.39369 0.73351 0.0
N1936 N 0.87464 0.38524 0.73484 0.0
N1937 N 0.82612 0.39991 0.73381 0.0
H1938 H 0.70884 0.63382 0.35049 0.0
H1939 H 0.60004 0.61808 0.31726 0.0
H1940 H 0.68256 0.6606 0.30373 0.0
H1941 H 0.62622 0.59139 0.3641 0.0
H1942 H 0.62861 0.63874 0.31625 0.0
H1943 H 0.67762 0.62303 0.35953 0.0
C1944 C 0.6965 0.63763 0.34225 0.0
C1945 C 0.69832 0.64782 0.32611 0.0
C1946 C 0.62801 0.62859 0.32697 0.0
C1947 C 0.66253 0.63538 0.33629 0.0
C1948 C 0.61162 0.61687 0.32765 0.0
C1949 C 0.61087 0.60274 0.34056 0.0
C1950 C 0.6438 0.62607 0.33921 0.0
C1951 C 0.62637 0.60178 0.3536 0.0
C1952 C 0.67866 0.63147 0.34743 0.0
C1953 C 0.68183 0.65256 0.31613 0.0
N1954 N 0.6423 0.61306 0.3524 0.0
N1955 N 0.66464 0.64606 0.32121 0.0
H1956 H 0.33065 0.07188 0.26589 0.0
H1957 H 0.37652 0.98191 0.21886 0.0
H1958 H 0.29927 0.02791 0.23028 0.0
H1959 H 0.40611 0.02054 0.26146 0.0
H1960 H 0.34926 0.00106 0.21977 0.0
H1961 H 0.35952 0.05561 0.26139 0.0
C1962 C 0.32984 0.05887 0.25703 0.0
C1963 C 0.31249 0.05118 0.24854 0.0
C1964 C 0.36174 0.00542 0.22885 0.0
C1965 C 0.34546 0.03253 0.24333 0.0
C1966 C 0.3773 0.99446 0.22838 0.0
C1967 C 0.39355 0.9995 0.24029 0.0
C1968 C 0.36238 0.02158 0.2413 0.0
C1969 C 0.39391 0.01616 0.252 0.0
C1970 C 0.34633 0.04959 0.2545 0.0
C1971 C 0.3123 0.0343 0.23719 0.0
N1972 N 0.37849 0.02654 0.25232 0.0
N1973 N 0.32852 0.02553 0.23497 0.0
H1974 H 0.19739 0.03245 0.66307 0.0
H1975 H 0.08487 0.01939 0.65847 0.0
H1976 H 0.16718 0.97805 0.65127 0.0
H1977 H 0.11711 0.06698 0.6879 0.0
H1978 H 0.11442 0.00487 0.65242 0.0
H1979 H 0.16751 0.04644 0.66836 0.0
C1980 C 0.18446 0.02345 0.66151 0.0
C1981 C 0.18479 0.00403 0.65677 0.0
C1982 C 0.11495 0.0185 0.66019 0.0
C1983 C 0.15051 0.02 0.66279 0.0
C1984 C 0.09809 0.02678 0.66375 0.0
C1985 C 0.0984 0.04454 0.67365 0.0
C1986 C 0.13227 0.02812 0.6664 0.0
C1987 C 0.11606 0.0535 0.67985 0.0
C1988 C 0.16741 0.03144 0.66461 0.0
C1989 C 0.16758 0.99307 0.65497 0.0
N1990 N 0.13223 0.04524 0.67606 0.0
N1991 N 0.15111 0.00122 0.65794 0.0
H1992 H 0.72556 0.81128 0.35648 0.0
H1993 H 0.77555 0.89721 0.42283 0.0
H1994 H 0.764 0.80466 0.40464 0.0
H1995 H 0.72788 0.9028 0.38345 0.0
H1996 H 0.77622 0.86412 0.41157 0.0
H1997 H 0.73095 0.84558 0.36168 0.0
C1998 C 0.73531 0.81702 0.36801 0.0
C1999 C 0.74419 0.80509 0.38029 0.0
C2000 C 0.76575 0.87265 0.40524 0.0
C2001 C 0.75041 0.84428 0.38626 0.0
C2002 C 0.76534 0.89152 0.41167 0.0
C2003 C 0.75143 0.90271 0.4043 0.0
C2004 C 0.75218 0.86487 0.3913 0.0
C2005 C 0.73886 0.89472 0.38954 0.0
C2006 C 0.73834 0.8366 0.37098 0.0
C2007 C 0.7567 0.81332 0.39495 0.0
N2008 N 0.73938 0.87621 0.38368 0.0
N2009 N 0.75935 0.8324 0.3976 0.0
H2010 H 0.65473 0.19438 0.02813 0.0
H2011 H 0.69699 0.09315 0.01821 0.0
H2012 H 0.6819 0.17501 0.97858 0.0
H2013 H 0.65721 0.10834 0.05909 0.0
H2014 H 0.69238 0.12296 0.00353 0.0
H2015 H 0.65679 0.16316 0.04023 0.0
C2016 C 0.66114 0.18356 0.01978 0.0
C2017 C 0.66819 0.18735 0.00233 0.0
C2018 C 0.68458 0.11967 0.01564 0.0
C2019 C 0.67064 0.15148 0.01615 0.0
C2020 C 0.68711 0.1026 0.02396 0.0
C2021 C 0.67766 0.09828 0.04008 0.0
C2022 C 0.67261 0.13257 0.02356 0.0
C2023 C 0.66517 0.11122 0.04699 0.0
C2024 C 0.66224 0.16569 0.02667 0.0
C2025 C 0.67628 0.17271 0.99211 0.0
N2026 N 0.66315 0.12779 0.03881 0.0
N2027 N 0.6774 0.15545 0.99922 0.0
H2028 H 0.3347 0.68598 0.66867 0.0
H2029 H 0.36663 0.61118 0.59056 0.0
H2030 H 0.36527 0.70031 0.6204 0.0
H2031 H 0.32624 0.59739 0.63121 0.0
H2032 H 0.37255 0.64257 0.60645 0.0
H2033 H 0.33765 0.65248 0.65997 0.0
C2034 C 0.34221 0.68211 0.65637 0.0
C2035 C 0.34947 0.69597 0.64506 0.0
C2036 C 0.36265 0.63259 0.61213 0.0
C2037 C 0.35284 0.65772 0.63505 0.0
C2038 C 0.35926 0.61467 0.60306 0.0
C2039 C 0.34566 0.60181 0.60938 0.0
C2040 C 0.35234 0.63775 0.62762 0.0
C2041 C 0.33679 0.60692 0.62584 0.0
C2042 C 0.34387 0.66299 0.65142 0.0
C2043 C 0.35922 0.69013 0.6294 0.0
N2044 N 0.34005 0.62464 0.63424 0.0
N2045 N 0.36042 0.67146 0.62475 0.0
H2046 H 0.23499 0.2996 0.03054 0.0
H2047 H 0.26335 0.40409 0.00249 0.0
H2048 H 0.27556 0.33776 0.06363 0.0
H2049 H 0.21824 0.36805 0.97348 0.0
H2050 H 0.26691 0.38074 0.02604 0.0
H2051 H 0.22774 0.32504 0.0103 0.0
C2052 C 0.2423 0.31336 0.03362 0.0
C2053 C 0.25599 0.31652 0.04874 0.0
C2054 C 0.25613 0.37801 0.0146 0.0
C2055 C 0.24782 0.34572 0.02554 0.0
C2056 C 0.25401 0.3914 0.00121 0.0
C2057 C 0.24059 0.38796 0.98587 0.0
C2058 C 0.24481 0.36101 0.01262 0.0
C2059 C 0.22904 0.37114 0.98484 0.0
C2060 C 0.23814 0.32791 0.02206 0.0
C2061 C 0.26495 0.33467 0.05209 0.0
N2062 N 0.23152 0.35824 0.99793 0.0
N2063 N 0.26081 0.34855 0.0405 0.0
H2064 H 0.38658 0.7455 0.80248 0.0
H2065 H 0.38211 0.70857 0.90588 0.0
H2066 H 0.34999 0.69811 0.81575 0.0
H2067 H 0.41581 0.75813 0.89302 0.0
H2068 H 0.36774 0.70637 0.87366 0.0
H2069 H 0.39533 0.75197 0.83608 0.0
C2070 C 0.38028 0.73653 0.81247 0.0
C2071 C 0.36766 0.72114 0.80627 0.0
C2072 C 0.37813 0.71785 0.87794 0.0
C2073 C 0.37769 0.72842 0.84481 0.0
C2074 C 0.38624 0.7192 0.89639 0.0
C2075 C 0.40035 0.73344 0.90211 0.0
C2076 C 0.38421 0.73079 0.86508 0.0
C2077 C 0.40527 0.74669 0.88911 0.0
C2078 C 0.38527 0.74025 0.83168 0.0
C2079 C 0.35986 0.71007 0.81988 0.0
N2080 N 0.39736 0.74493 0.87117 0.0
N2081 N 0.36512 0.71382 0.83849 0.0
H2082 H 0.96716 0.6559 0.16416 0.0
H2083 H 0.05638 0.69558 0.11256 0.0
H2084 H 0.02243 0.66868 0.19224 0.0
H2085 H 0.00685 0.66819 0.08185 0.0
H2086 H 0.04305 0.68791 0.14204 0.0
H2087 H 0.98035 0.6623 0.134 0.0
C2088 C 0.98207 0.65999 0.16398 0.0
C2089 C 0.99371 0.66177 0.18076 0.0
C2090 C 0.03511 0.6835 0.12886 0.0
C2091 C 0.00881 0.66927 0.14637 0.0
C2092 C 0.04277 0.68779 0.11196 0.0
C2093 C 0.03285 0.68237 0.09458 0.0
C2094 C 0.01726 0.67389 0.12853 0.0
C2095 C 0.01497 0.67281 0.09486 0.0
C2096 C 0.98958 0.66361 0.14676 0.0
C2097 C 0.01292 0.6671 0.17968 0.0
N2098 N 0.00774 0.66889 0.11156 0.0
N2099 N 0.01983 0.67076 0.16281 0.0
H2100 H 0.65871 0.3372 0.6807 0.0
H2101 H 0.56208 0.35443 0.62814 0.0
H2102 H 0.61324 0.36256 0.7083 0.0
H2103 H 0.61285 0.35445 0.59757 0.0
H2104 H 0.58114 0.35706 0.65738 0.0
H2105 H 0.64315 0.34299 0.65 0.0
C2106 C 0.64561 0.34419 0.68032 0.0
C2107 C 0.63709 0.34913 0.69708 0.0
C2108 C 0.58817 0.35673 0.64429 0.0
C2109 C 0.61922 0.35551 0.66215 0.0
C2110 C 0.57724 0.35544 0.62736 0.0
C2111 C 0.58567 0.35444 0.60996 0.0
C2112 C 0.60781 0.3564 0.64414 0.0
C2113 C 0.60554 0.3549 0.61045 0.0
C2114 C 0.63678 0.34751 0.66281 0.0
C2115 C 0.62022 0.35831 0.69577 0.0
N2116 N 0.61593 0.35559 0.62728 0.0
N2117 N 0.6117 0.36089 0.67863 0.0
H2118 H 0.01997 0.23505 0.29573 0.0
H2119 H 0.00299 0.21665 0.40313 0.0
H2120 H 0.06534 0.24058 0.33932 0.0
H2121 H 0.96016 0.23447 0.36353 0.0
H2122 H 0.02597 0.21961 0.37904 0.0
H2123 H 0.99771 0.22816 0.31956 0.0
C2124 C 0.0253 0.23461 0.31028 0.0
C2125 C 0.04453 0.23854 0.31557 0.0
C2126 C 0.01149 0.22274 0.37569 0.0
C2127 C 0.0191 0.23066 0.34289 0.0
C2128 C 0.99837 0.22118 0.38945 0.0
C2129 C 0.9795 0.22526 0.38543 0.0
C2130 C 0.00566 0.22819 0.35773 0.0
C2131 C 0.97436 0.23074 0.36727 0.0
C2132 C 0.01256 0.23077 0.32388 0.0
C2133 C 0.0506 0.23776 0.33466 0.0
N2134 N 0.98733 0.232 0.35413 0.0
N2135 N 0.03791 0.23395 0.34768 0.0
H2136 H 0.26273 0.55652 0.34677 0.0
H2137 H 0.31852 0.57625 0.44659 0.0
H2138 H 0.29382 0.60928 0.36491 0.0
H2139 H 0.26771 0.53929 0.44088 0.0
H2140 H 0.31262 0.58453 0.41422 0.0
H2141 H 0.2665 0.54663 0.37927 0.0
C2142 C 0.27017 0.56608 0.35757 0.0
C2143 C 0.27804 0.58374 0.35308 0.0
C2144 C 0.30273 0.57463 0.42005 0.0
C2145 C 0.28269 0.57235 0.38992 0.0
C2146 C 0.30605 0.56991 0.43856 0.0
C2147 C 0.29334 0.55739 0.44667 0.0
C2148 C 0.28674 0.56658 0.4093 0.0
C2149 C 0.27784 0.54906 0.43524 0.0
C2150 C 0.2723 0.56042 0.37605 0.0
C2151 C 0.28752 0.59555 0.36764 0.0
N2152 N 0.27491 0.55385 0.41707 0.0
N2153 N 0.28975 0.58956 0.38531 0.0
H2154 H 0.21579 0.36107 0.74542 0.0
H2155 H 0.25434 0.452 0.81132 0.0
H2156 H 0.23773 0.41228 0.72271 0.0
H2157 H 0.21502 0.40865 0.82858 0.0
H2158 H 0.25203 0.43641 0.77949 0.0
H2159 H 0.21999 0.37668 0.77708 0.0
C2160 C 0.2217 0.37553 0.7471 0.0
C2161 C 0.22635 0.38541 0.73137 0.0
C2162 C 0.24394 0.43036 0.7903 0.0
C2163 C 0.23109 0.40339 0.76759 0.0
C2164 C 0.24513 0.43931 0.80844 0.0
C2165 C 0.23497 0.43159 0.82278 0.0
C2166 C 0.23265 0.41349 0.78652 0.0
C2167 C 0.22348 0.41493 0.81819 0.0
C2168 C 0.22396 0.38448 0.76517 0.0
C2169 C 0.23387 0.40417 0.73443 0.0
N2170 N 0.22272 0.40642 0.80054 0.0
N2171 N 0.236 0.41257 0.7522 0.0
H2172 H 0.75005 0.00842 0.65874 0.0
H2173 H 0.7242 0.94889 0.56054 0.0
H2174 H 0.74723 0.94752 0.65226 0.0
H2175 H 0.74372 0.00779 0.56429 0.0
H2176 H 0.72663 0.9492 0.5949 0.0
H2177 H 0.74181 0.00929 0.62489 0.0
C2178 C 0.7475 0.99522 0.65026 0.0
C2179 C 0.74948 0.97785 0.65832 0.0
C2180 C 0.73028 0.96209 0.58821 0.0
C2181 C 0.74001 0.9788 0.61966 0.0
C2182 C 0.72898 0.96191 0.56859 0.0
C2183 C 0.7341 0.97826 0.55948 0.0
C2184 C 0.73663 0.97875 0.5989 0.0
C2185 C 0.73963 0.99486 0.57069 0.0
C2186 C 0.74287 0.99575 0.63094 0.0
C2187 C 0.74601 0.96122 0.64663 0.0
N2188 N 0.74089 0.99465 0.58984 0.0
N2189 N 0.74149 0.96211 0.62789 0.0
H2190 H 0.71796 0.04794 0.27768 0.0
H2191 H 0.71006 0.98181 0.18454 0.0
H2192 H 0.75396 0.00155 0.27254 0.0
H2193 H 0.71947 0.04224 0.18143 0.0
H2194 H 0.71677 0.98593 0.21867 0.0
H2195 H 0.70846 0.04291 0.24375 0.0
C2196 C 0.72361 0.03655 0.26943 0.0
C2197 C 0.73672 0.02512 0.27774 0.0
C2198 C 0.71719 0.9982 0.21037 0.0
C2199 C 0.72575 0.01915 0.23946 0.0
C2200 C 0.71355 0.99593 0.19084 0.0
C2201 C 0.7144 0.01166 0.17974 0.0
C2202 C 0.72108 0.01634 0.21901 0.0
C2203 C 0.7183 0.02964 0.18915 0.0
C2204 C 0.71829 0.03377 0.25019 0.0
C2205 C 0.74385 0.01066 0.26653 0.0
N2206 N 0.7214 0.03148 0.20823 0.0
N2207 N 0.73815 0.00795 0.24791 0.0
H2208 H 0.36028 0.3045 0.61103 0.0
H2209 H 0.43024 0.26989 0.53525 0.0
H2210 H 0.34317 0.25908 0.56919 0.0
H2211 H 0.43194 0.32716 0.5597 0.0
H2212 H 0.40038 0.26318 0.54976 0.0
H2213 H 0.38958 0.30987 0.59554 0.0
C2214 C 0.36277 0.29549 0.59871 0.0
C2215 C 0.3492 0.28135 0.59136 0.0
C2216 C 0.40733 0.27721 0.55183 0.0
C2217 C 0.38274 0.28753 0.57351 0.0
C2218 C 0.42428 0.28112 0.54345 0.0
C2219 C 0.4338 0.29909 0.5464 0.0
C2220 C 0.40001 0.29128 0.56344 0.0
C2221 C 0.42545 0.31297 0.5574 0.0
C2222 C 0.37944 0.29869 0.58978 0.0
C2223 C 0.35322 0.27018 0.57528 0.0
N2224 N 0.40917 0.30872 0.56566 0.0
N2225 N 0.36967 0.2735 0.56688 0.0
H2226 H 0.27964 0.75017 0.05568 0.0
H2227 H 0.18798 0.6988 0.99906 0.0
H2228 H 0.2798 0.72402 0.99937 0.0
H2229 H 0.18854 0.72218 0.05656 0.0
H2230 H 0.22195 0.70669 0.99936 0.0
H2231 H 0.2465 0.739 0.05673 0.0
C2232 C 0.27274 0.74187 0.04363 0.0
C2233 C 0.28258 0.73764 0.02758 0.0
C2234 C 0.21467 0.70999 0.01195 0.0
C2235 C 0.24464 0.72501 0.02854 0.0
C2236 C 0.19527 0.70555 0.01176 0.0
C2237 C 0.18539 0.7099 0.02778 0.0
C2238 C 0.22428 0.71897 0.02824 0.0
C2239 C 0.1956 0.71841 0.04394 0.0
C2240 C 0.25385 0.73548 0.04423 0.0
C2241 C 0.27296 0.72701 0.01228 0.0
N2242 N 0.21445 0.72278 0.04371 0.0
N2243 N 0.2545 0.72113 0.0131 0.0
H2244 H 0.74114 0.21024 0.37034 0.0
H2245 H 0.81227 0.25097 0.45639 0.0
H2246 H 0.72238 0.24188 0.41868 0.0
H2247 H 0.82348 0.2043 0.41781 0.0
H2248 H 0.78023 0.25065 0.44152 0.0
H2249 H 0.77284 0.21164 0.38571 0.0
C2250 C 0.74371 0.21766 0.38411 0.0
C2251 C 0.72905 0.2259 0.39326 0.0
C2252 C 0.78974 0.24047 0.43639 0.0
C2253 C 0.76535 0.22745 0.41099 0.0
C2254 C 0.80798 0.24054 0.44495 0.0
C2255 C 0.8207 0.22775 0.43826 0.0
C2256 C 0.78427 0.22764 0.42094 0.0
C2257 C 0.81437 0.21473 0.42319 0.0
C2258 C 0.7618 0.21833 0.39294 0.0
C2259 C 0.73326 0.23527 0.41114 0.0
N2260 N 0.79669 0.21511 0.41499 0.0
N2261 N 0.75104 0.23579 0.41945 0.0
H2262 H 0.65472 0.75273 0.93448 0.0
H2263 H 0.56795 0.74746 0.99896 0.0
H2264 H 0.66187 0.74663 0.99445 0.0
H2265 H 0.56275 0.72824 0.93992 0.0
H2266 H 0.60223 0.74991 0.99761 0.0
H2267 H 0.62061 0.74663 0.93602 0.0
C2268 C 0.64913 0.75 0.94794 0.0
C2269 C 0.66114 0.75019 0.96436 0.0
C2270 C 0.59353 0.74507 0.985 0.0
C2271 C 0.6222 0.74351 0.96626 0.0
C2272 C 0.57393 0.74357 0.98575 0.0
C2273 C 0.5623 0.73773 0.96949 0.0
C2274 C 0.60157 0.74098 0.96782 0.0
C2275 C 0.57102 0.73325 0.95272 0.0
C2276 C 0.62969 0.74648 0.9488 0.0
C2277 C 0.65313 0.74654 0.98143 0.0
N2278 N 0.5901 0.73513 0.95228 0.0
N2279 N 0.63413 0.74355 0.98198 0.0
H2280 H 0.61112 0.36493 0.31332 0.0
H2281 H 0.53598 0.43447 0.27365 0.0
H2282 H 0.57418 0.35045 0.26337 0.0
H2283 H 0.56748 0.44354 0.32762 0.0
H2284 H 0.55011 0.40408 0.26883 0.0
H2285 H 0.59636 0.39476 0.31748 0.0
C2286 C 0.6 0.36807 0.30311 0.0
C2287 C 0.59388 0.35511 0.28798 0.0
C2288 C 0.55385 0.41272 0.28175 0.0
C2289 C 0.57672 0.38931 0.29279 0.0
C2290 C 0.54569 0.42999 0.28457 0.0
C2291 C 0.55068 0.44165 0.30099 0.0
C2292 C 0.56711 0.40713 0.29543 0.0
C2293 C 0.56349 0.4352 0.31458 0.0
C2294 C 0.59148 0.3851 0.30557 0.0
C2295 C 0.57935 0.36001 0.27525 0.0
N2296 N 0.57131 0.41847 0.31145 0.0
N2297 N 0.57124 0.37671 0.27796 0.0
H2298 H 0.03014 0.27638 0.71402 0.0
H2299 H 0.98938 0.17503 0.74183 0.0
H2300 H 0.00672 0.26631 0.76725 0.0
H2301 H 0.01843 0.18344 0.69121 0.0
H2302 H 0.99346 0.20891 0.75013 0.0
H2303 H 0.02399 0.24285 0.70425 0.0
C2304 C 0.02338 0.26719 0.72351 0.0
C2305 C 0.01853 0.2742 0.7413 0.0
C2306 C 0.99891 0.20337 0.73718 0.0
C2307 C 0.01195 0.23575 0.73047 0.0
C2308 C 0.99645 0.18403 0.73235 0.0
C2309 C 0.00357 0.17637 0.71579 0.0
C2310 C 0.00854 0.21522 0.72536 0.0
C2311 C 0.0129 0.18871 0.70421 0.0
C2312 C 0.02009 0.248 0.71803 0.0
C2313 C 0.01061 0.26148 0.75338 0.0
N2314 N 0.01512 0.20752 0.70922 0.0
N2315 N 0.00751 0.2429 0.74773 0.0
H2316 H 0.36095 0.7481 0.22524 0.0
H2317 H 0.44447 0.82444 0.26095 0.0
H2318 H 0.41618 0.73157 0.24363 0.0
H2319 H 0.3978 0.83529 0.2222 0.0
H2320 H 0.43326 0.79096 0.25908 0.0
H2321 H 0.37268 0.78111 0.22967 0.0
C2322 C 0.37549 0.7514 0.23045 0.0
C2323 C 0.38763 0.73702 0.23394 0.0
C2324 C 0.42554 0.80076 0.25104 0.0
C2325 C 0.40118 0.77486 0.23892 0.0
C2326 C 0.43197 0.81983 0.25199 0.0
C2327 C 0.42194 0.83283 0.24192 0.0
C2328 C 0.40888 0.79475 0.24012 0.0
C2329 C 0.40574 0.82599 0.23065 0.0
C2330 C 0.38221 0.77026 0.23283 0.0
C2331 C 0.40636 0.74221 0.24066 0.0
N2332 N 0.39967 0.80751 0.23018 0.0
N2333 N 0.4126 0.76074 0.24289 0.0
H2334 H 0.96183 0.65794 0.79139 0.0
H2335 H 0.9945 0.56978 0.72886 0.0
H2336 H 0.98348 0.66295 0.73639 0.0
H2337 H 0.96814 0.56544 0.78157 0.0
H2338 H 0.99322 0.6042 0.73237 0.0
H2339 H 0.96607 0.62423 0.78871 0.0
C2340 C 0.96743 0.65196 0.77869 0.0
C2341 C 0.97223 0.66333 0.76405 0.0
C2342 C 0.98782 0.5957 0.74321 0.0
C2343 C 0.97724 0.62457 0.76095 0.0
C2344 C 0.98869 0.5761 0.74129 0.0
C2345 C 0.98127 0.56476 0.75488 0.0
C2346 C 0.97956 0.60398 0.75887 0.0
C2347 C 0.97375 0.57364 0.77062 0.0
C2348 C 0.96989 0.63266 0.7772 0.0
C2349 C 0.9795 0.65472 0.74798 0.0
N2350 N 0.97302 0.59269 0.77214 0.0
N2351 N 0.98179 0.63583 0.74686 0.0
H2352 H 0.72451 0.36072 0.65518 0.0
H2353 H 0.67503 0.43951 0.59708 0.0
H2354 H 0.69822 0.40746 0.68193 0.0
H2355 H 0.6986 0.39038 0.57165 0.0
H2356 H 0.68488 0.42937 0.62841 0.0
H2357 H 0.71637 0.37255 0.62445 0.0
C2358 C 0.71687 0.3734 0.65456 0.0
C2359 C 0.71157 0.38283 0.67109 0.0
C2360 C 0.68794 0.42087 0.61595 0.0
C2361 C 0.70236 0.39664 0.63595 0.0
C2362 C 0.68244 0.42671 0.59811 0.0
C2363 C 0.68584 0.41565 0.5818 0.0
C2364 C 0.697 0.40394 0.61739 0.0
C2365 C 0.69541 0.39916 0.58388 0.0
C2366 C 0.71222 0.38017 0.63701 0.0
C2367 C 0.70188 0.39933 0.6695 0.0
N2368 N 0.70059 0.39379 0.60131 0.0
N2369 N 0.69756 0.40572 0.65222 0.0
H2370 H 0.80219 0.61593 0.26021 0.0
H2371 H 0.74897 0.53711 0.18749 0.0
H2372 H 0.74378 0.59678 0.26279 0.0
H2373 H 0.80636 0.55906 0.18349 0.0
H2374 H 0.74826 0.55498 0.21796 0.0
H2375 H 0.80528 0.59182 0.23488 0.0
C2376 C 0.79015 0.60629 0.25581 0.0
C2377 C 0.77284 0.60805 0.26394 0.0
C2378 C 0.7611 0.55567 0.21055 0.0
C2379 C 0.77601 0.58082 0.23434 0.0
C2380 C 0.76158 0.54531 0.19325 0.0
C2381 C 0.7777 0.54674 0.18288 0.0
C2382 C 0.77686 0.56753 0.2175 0.0
C2383 C 0.79356 0.55776 0.19092 0.0
C2384 C 0.79184 0.59267 0.24114 0.0
C2385 C 0.75741 0.59583 0.25693 0.0
N2386 N 0.79268 0.56788 0.20764 0.0
N2387 N 0.75934 0.58276 0.24251 0.0
H2388 H 0.22427 0.07267 0.31643 0.0
H2389 H 0.24147 0.00932 0.40182 0.0
H2390 H 0.24729 0.01826 0.30878 0.0
H2391 H 0.19665 0.04762 0.40006 0.0
H2392 H 0.24462 0.01244 0.36815 0.0
H2393 H 0.21537 0.0647 0.34789 0.0
C2394 C 0.22731 0.059 0.32137 0.0
C2395 C 0.23635 0.04602 0.31004 0.0
C2396 C 0.23393 0.01996 0.37512 0.0
C2397 C 0.22655 0.03693 0.34594 0.0
C2398 C 0.23201 0.01808 0.39435 0.0
C2399 C 0.21896 0.02845 0.40397 0.0
C2400 C 0.22296 0.03251 0.36551 0.0
C2401 C 0.2073 0.03978 0.39343 0.0
C2402 C 0.22215 0.05441 0.33922 0.0
C2403 C 0.24006 0.02852 0.31703 0.0
N2404 N 0.2098 0.04176 0.37487 0.0
N2405 N 0.23534 0.02454 0.33465 0.0
H2406 H 0.26297 0.95717 0.71168 0.0
H2407 H 0.32159 0.01576 0.79821 0.0
H2408 H 0.29315 0.01102 0.70721 0.0
H2409 H 0.28705 0.96466 0.80413 0.0
H2410 H 0.31406 0.01244 0.76416 0.0
H2411 H 0.27418 0.95795 0.74499 0.0
C2412 C 0.27219 0.96902 0.71765 0.0
C2413 C 0.27753 0.98383 0.70655 0.0
C2414 C 0.3082 0.00189 0.77289 0.0
C2415 C 0.29024 0.98495 0.74464 0.0
C2416 C 0.31243 0.00382 0.79235 0.0
C2417 C 0.3048 0.99056 0.80408 0.0
C2418 C 0.2962 0.9866 0.76506 0.0
C2419 C 0.29334 0.97516 0.79564 0.0
C2420 C 0.27858 0.96947 0.73664 0.0
C2421 C 0.28932 0.99894 0.71501 0.0
N2422 N 0.28929 0.97368 0.77666 0.0
N2423 N 0.29523 0.99914 0.73355 0.0
H2424 H 0.66155 0.73925 0.38346 0.0
H2425 H 0.59353 0.68955 0.45383 0.0
H2426 H 0.6824 0.71106 0.43174 0.0
H2427 H 0.57424 0.71996 0.40648 0.0
H2428 H 0.62624 0.69931 0.4479 0.0
H2429 H 0.62955 0.73428 0.39342 0.0
C2430 C 0.65938 0.73194 0.39615 0.0
C2431 C 0.67461 0.72499 0.40643 0.0
C2432 C 0.61482 0.70398 0.43893 0.0
C2433 C 0.63793 0.71926 0.41801 0.0
C2434 C 0.59618 0.69852 0.44239 0.0
C2435 C 0.58121 0.70375 0.43046 0.0
C2436 C 0.61843 0.71477 0.42347 0.0
C2437 C 0.5854 0.71531 0.41578 0.0
C2438 C 0.64109 0.7291 0.40184 0.0
C2439 C 0.67099 0.71584 0.42289 0.0
N2440 N 0.60359 0.72029 0.41262 0.0
N2441 N 0.65299 0.71311 0.42811 0.0
H2442 H 0.72344 0.27293 0.96624 0.0
H2443 H 0.80479 0.33644 0.02684 0.0
H2444 H 0.71345 0.30514 0.01764 0.0
H2445 H 0.81208 0.30684 0.97321 0.0
H2446 H 0.77096 0.32706 0.0231 0.0
H2447 H 0.75552 0.28721 0.9678 0.0
C2448 C 0.72797 0.28317 0.97779 0.0
C2449 C 0.71573 0.28789 0.99181 0.0
C2450 C 0.77996 0.32281 0.01208 0.0
C2451 C 0.75265 0.30422 0.99384 0.0
C2452 C 0.79928 0.32807 0.01424 0.0
C2453 C 0.81134 0.32237 0.00035 0.0
C2454 C 0.77268 0.31166 0.99597 0.0
C2455 C 0.80336 0.31177 0.9842 0.0
C2456 C 0.7463 0.29136 0.97867 0.0
C2457 C 0.72232 0.30131 0.0064 0.0
N2458 N 0.78461 0.30666 0.98254 0.0
N2459 N 0.74043 0.30888 0.00715 0.0
H2460 H 0.28364 0.74583 0.60302 0.0
H2461 H 0.19729 0.81043 0.58405 0.0
H2462 H 0.28305 0.80384 0.62437 0.0
H2463 H 0.19874 0.75364 0.55942 0.0
H2464 H 0.2299 0.80913 0.5966 0.0
H2465 H 0.25344 0.74886 0.58529 0.0
C2466 C 0.27723 0.75926 0.6038 0.0
C2467 C 0.28604 0.77474 0.61484 0.0
C2468 C 0.2232 0.797 0.58828 0.0
C2469 C 0.25148 0.7783 0.59475 0.0
C2470 C 0.2046 0.79776 0.5811 0.0
C2471 C 0.19528 0.78207 0.57082 0.0
C2472 C 0.23254 0.78034 0.58535 0.0
C2473 C 0.20544 0.76607 0.56722 0.0
C2474 C 0.26005 0.76102 0.59363 0.0
C2475 C 0.2771 0.79177 0.6155 0.0
N2476 N 0.22346 0.76552 0.57469 0.0
N2477 N 0.26029 0.79308 0.60566 0.0
H2478 H 0.32955 0.23408 0.07306 0.0
H2479 H 0.40231 0.24572 0.99628 0.0
H2480 H 0.31082 0.24793 0.01711 0.0
H2481 H 0.4075 0.20322 0.03681 0.0
H2482 H 0.36936 0.24815 0.00361 0.0
H2483 H 0.35936 0.2247 0.06092 0.0
C2484 C 0.33171 0.23498 0.05819 0.0
C2485 C 0.31777 0.24163 0.04601 0.0
C2486 C 0.3777 0.23811 0.01066 0.0
C2487 C 0.35179 0.23135 0.03214 0.0
C2488 C 0.39649 0.2366 0.00641 0.0
C2489 C 0.40791 0.22451 0.0162 0.0
C2490 C 0.37041 0.22773 0.02502 0.0
C2491 C 0.39949 0.2132 0.02933 0.0
C2492 C 0.34861 0.22954 0.05125 0.0
C2493 C 0.32119 0.24263 0.02686 0.0
N2494 N 0.38139 0.21537 0.03364 0.0
N2495 N 0.33801 0.23781 0.02053 0.0
H2496 H 0.4107 0.66476 0.74223 0.0
H2497 H 0.42959 0.58956 0.65823 0.0
H2498 H 0.38288 0.66227 0.68649 0.0
H2499 H 0.45333 0.58681 0.71516 0.0
H2500 H 0.41658 0.61947 0.6674 0.0
H2501 H 0.42972 0.63882 0.73198 0.0
C2502 C 0.40879 0.6589 0.72777 0.0
C2503 C 0.39558 0.66597 0.71501 0.0
C2504 C 0.42481 0.61248 0.67788 0.0
C2505 C 0.41713 0.63635 0.70323 0.0
C2506 C 0.4323 0.59546 0.67262 0.0
C2507 C 0.44238 0.58566 0.68602 0.0
C2508 C 0.42725 0.61975 0.69675 0.0
C2509 C 0.44565 0.59397 0.70442 0.0
C2510 C 0.41967 0.64416 0.72192 0.0
C2511 C 0.39347 0.65779 0.69652 0.0
N2512 N 0.43787 0.61045 0.70934 0.0
N2513 N 0.40409 0.64341 0.69121 0.0
H2514 H 0.96869 0.72207 0.24437 0.0
H2515 H 0.00411 0.79998 0.32484 0.0
H2516 H 0.98276 0.70764 0.30132 0.0
H2517 H 0.96547 0.81191 0.27863 0.0
H2518 H 0.99912 0.76617 0.31544 0.0
H2519 H 0.96938 0.75532 0.25562 0.0
C2520 C 0.97198 0.72588 0.25924 0.0
C2521 C 0.97648 0.71211 0.2718 0.0
C2522 C 0.99162 0.77619 0.30747 0.0
C2523 C 0.97743 0.7501 0.28469 0.0
C2524 C 0.99453 0.79543 0.31275 0.0
C2525 C 0.9852 0.80865 0.30244 0.0
C2526 C 0.9796 0.77023 0.29154 0.0
C2527 C 0.97285 0.8021 0.28697 0.0
C2528 C 0.97236 0.74485 0.26564 0.0
C2529 C 0.98038 0.71784 0.29095 0.0
N2530 N 0.97057 0.78333 0.28183 0.0
N2531 N 0.98103 0.73645 0.29679 0.0
H2532 H 0.60091 0.28133 0.7432 0.0
H2533 H 0.57139 0.19793 0.80811 0.0
H2534 H 0.62187 0.27844 0.80105 0.0
H2535 H 0.54921 0.20071 0.75061 0.0
H2536 H 0.5873 0.22921 0.80677 0.0
H2537 H 0.57994 0.25317 0.74623 0.0
C2538 C 0.60095 0.27485 0.7566 0.0
C2539 C 0.61284 0.28245 0.77203 0.0
C2540 C 0.57878 0.22312 0.7945 0.0
C2541 C 0.589 0.25022 0.7756 0.0
C2542 C 0.56965 0.20529 0.79528 0.0
C2543 C 0.55909 0.19668 0.7794 0.0
C2544 C 0.5775 0.23239 0.77763 0.0
C2545 C 0.55716 0.20688 0.7632 0.0
C2546 C 0.58893 0.25885 0.75835 0.0
C2547 C 0.61245 0.27348 0.78902 0.0
N2548 N 0.56649 0.22411 0.76264 0.0
N2549 N 0.60078 0.25781 0.79033 0.0
H2550 H 0.06097 0.32236 0.28765 0.0
H2551 H 0.01052 0.398 0.22695 0.0
H2552 H 0.04767 0.31307 0.22767 0.0
H2553 H 0.04642 0.41338 0.27727 0.0
H2554 H 0.01808 0.36487 0.22942 0.0
H2555 H 0.05047 0.35438 0.28624 0.0
C2556 C 0.05569 0.32698 0.2742 0.0
C2557 C 0.05468 0.31478 0.25784 0.0
C2558 C 0.02414 0.37551 0.23999 0.0
C2559 C 0.04248 0.35131 0.25619 0.0
C2560 C 0.01972 0.39429 0.23866 0.0
C2561 C 0.0279 0.40826 0.25194 0.0
C2562 C 0.03656 0.37078 0.25485 0.0
C2563 C 0.03989 0.40292 0.26677 0.0
C2564 C 0.04966 0.34521 0.27343 0.0
C2565 C 0.04781 0.32157 0.24079 0.0
N2566 N 0.04386 0.38458 0.26785 0.0
N2567 N 0.04188 0.33937 0.24041 0.0
H2568 H 0.34223 0.56627 0.2665 0.0
H2569 H 0.44121 0.58929 0.32343 0.0
H2570 H 0.35623 0.61751 0.30164 0.0
H2571 H 0.4361 0.55247 0.27255 0.0
H2572 H 0.40847 0.59679 0.31759 0.0
H2573 H 0.37552 0.55892 0.26948 0.0
C2574 C 0.35232 0.57609 0.27462 0.0
C2575 C 0.34643 0.59251 0.28389 0.0
C2576 C 0.41462 0.58733 0.30753 0.0
C2577 C 0.38426 0.58397 0.28767 0.0
C2578 C 0.43328 0.58298 0.31088 0.0
C2579 C 0.44148 0.5704 0.29833 0.0
C2580 C 0.40404 0.57923 0.29146 0.0
C2581 C 0.4303 0.56222 0.28259 0.0
C2582 C 0.37127 0.57186 0.27632 0.0
C2583 C 0.3601 0.60472 0.29422 0.0
N2584 N 0.41211 0.56681 0.27956 0.0
N2585 N 0.37829 0.60007 0.29603 0.0
H2586 H 0.13742 0.368 0.66922 0.0
H2587 H 0.08488 0.43923 0.73563 0.0
H2588 H 0.15397 0.38161 0.72815 0.0
H2589 H 0.05622 0.41003 0.68601 0.0
H2590 H 0.11224 0.42085 0.73083 0.0
H2591 H 0.10901 0.38558 0.67302 0.0
C2592 C 0.13505 0.3746 0.68293 0.0
C2593 C 0.14808 0.37335 0.69838 0.0
C2594 C 0.09997 0.41843 0.72098 0.0
C2595 C 0.11595 0.39356 0.70272 0.0
C2596 C 0.08443 0.42902 0.72363 0.0
C2597 C 0.06832 0.42616 0.71116 0.0
C2598 C 0.09955 0.405 0.70561 0.0
C2599 C 0.06837 0.41256 0.69599 0.0
C2600 C 0.11887 0.38457 0.68508 0.0
C2601 C 0.14434 0.38215 0.71584 0.0
N2602 N 0.08382 0.40251 0.69355 0.0
N2603 N 0.12872 0.39197 0.71748 0.0
H2604 H 0.85074 0.94969 0.69185 0.0
H2605 H 0.92497 0.03241 0.73556 0.0
H2606 H 0.8379 0.9914 0.73507 0.0
H2607 H 0.93536 0.99368 0.68876 0.0
H2608 H 0.89434 0.01551 0.73809 0.0
H2609 H 0.88314 0.96331 0.69336 0.0
C2610 C 0.85476 0.96161 0.7018 0.0
C2611 C 0.8415 0.96951 0.71323 0.0
C2612 C 0.90338 0.01064 0.72735 0.0
C2613 C 0.87866 0.98529 0.71494 0.0
C2614 C 0.92084 0.02034 0.72583 0.0
C2615 C 0.93274 0.01457 0.71182 0.0
C2616 C 0.89773 0.99503 0.71478 0.0
C2617 C 0.92677 0.99858 0.69988 0.0
C2618 C 0.87329 0.96942 0.70262 0.0
C2619 C 0.84761 0.9849 0.72592 0.0
N2620 N 0.90966 0.98946 0.70156 0.0
N2621 N 0.86571 0.99238 0.72633 0.0
H2622 H 0.65793 0.97096 0.25863 0.0
H2623 H 0.54906 0.97559 0.28014 0.0
H2624 H 0.63684 0.01268 0.29722 0.0
H2625 H 0.56935 0.93317 0.24181 0.0
H2626 H 0.58123 0.98938 0.28627 0.0
H2627 H 0.62573 0.957 0.25196 0.0
C2628 C 0.64654 0.97722 0.26568 0.0
C2629 C 0.65012 0.99302 0.27853 0.0
C2630 C 0.57869 0.97706 0.2765 0.0
C2631 C 0.61323 0.97707 0.27098 0.0
C2632 C 0.56028 0.96923 0.27291 0.0
C2633 C 0.55646 0.95326 0.26033 0.0
C2634 C 0.5935 0.96891 0.26747 0.0
C2635 C 0.57166 0.94539 0.25171 0.0
C2636 C 0.62816 0.96922 0.26187 0.0
C2637 C 0.63478 0.00051 0.28722 0.0
N2638 N 0.58951 0.95333 0.2554 0.0
N2639 N 0.61705 0.99246 0.2833 0.0
H2640 H 0.30934 0.35445 0.61382 0.0
H2641 H 0.26029 0.43018 0.55166 0.0
H2642 H 0.2533 0.34443 0.58679 0.0
H2643 H 0.316 0.43868 0.57964 0.0
H2644 H 0.25697 0.39894 0.56436 0.0
H2645 H 0.31161 0.38543 0.60123 0.0
C2646 C 0.29734 0.35891 0.60551 0.0
C2647 C 0.28105 0.34685 0.60143 0.0
C2648 C 0.2699 0.40767 0.56773 0.0
C2649 C 0.28344 0.38265 0.58721 0.0
C2650 C 0.27183 0.42544 0.56042 0.0
C2651 C 0.28842 0.43707 0.56468 0.0
C2652 C 0.28471 0.40146 0.57926 0.0
C2653 C 0.30287 0.43031 0.57621 0.0
C2654 C 0.29866 0.37663 0.59827 0.0
C2655 C 0.26609 0.35332 0.59032 0.0
N2656 N 0.30068 0.41297 0.58306 0.0
N2657 N 0.26761 0.37085 0.58363 0.0
H2658 H 0.3045 0.64218 0.99724 0.0
H2659 H 0.23952 0.56475 0.93212 0.0
H2660 H 0.25977 0.65645 0.95788 0.0
H2661 H 0.28087 0.55136 0.97539 0.0
H2662 H 0.24762 0.59841 0.94008 0.0
H2663 H 0.29684 0.60883 0.98823 0.0
C2664 C 0.29307 0.63831 0.98667 0.0
C2665 C 0.28275 0.65216 0.97833 0.0
C2666 C 0.2549 0.58809 0.94783 0.0
C2667 C 0.27387 0.61389 0.96791 0.0
C2668 C 0.25035 0.56889 0.94323 0.0
C2669 C 0.25946 0.55522 0.95317 0.0
C2670 C 0.26874 0.59366 0.9624 0.0
C2671 C 0.27327 0.56139 0.96755 0.0
C2672 C 0.28868 0.61923 0.98154 0.0
C2673 C 0.26809 0.64626 0.96471 0.0
N2674 N 0.27748 0.58012 0.97171 0.0
N2675 N 0.26409 0.62756 0.95992 0.0
H2676 H 0.70348 0.13465 0.34804 0.0
H2677 H 0.67723 0.07232 0.43375 0.0
H2678 H 0.66119 0.14889 0.38656 0.0
H2679 H 0.72191 0.06111 0.39703 0.0
H2680 H 0.66901 0.09874 0.41506 0.0
H2681 H 0.7077 0.10556 0.36373 0.0
C2682 C 0.6949 0.13156 0.35967 0.0
C2683 C 0.68209 0.14433 0.3661 0.0
C2684 C 0.68054 0.09042 0.41104 0.0
C2685 C 0.68702 0.11107 0.38433 0.0
C2686 C 0.68533 0.07541 0.42178 0.0
C2687 C 0.70033 0.06448 0.41701 0.0
C2688 C 0.69083 0.09455 0.39542 0.0
C2689 C 0.7101 0.06896 0.40114 0.0
C2690 C 0.69737 0.11495 0.36868 0.0
C2691 C 0.67129 0.13949 0.38117 0.0
N2692 N 0.70523 0.08367 0.39099 0.0
N2693 N 0.67413 0.12332 0.3899 0.0
H2694 H 0.73082 0.84588 0.96593 0.0
H2695 H 0.69157 0.91513 0.04542 0.0
H2696 H 0.69505 0.82788 0.0092 0.0
H2697 H 0.72395 0.93565 0.00072 0.0
H2698 H 0.69359 0.88298 0.03231 0.0
H2699 H 0.72966 0.87869 0.97858 0.0
C2700 C 0.72283 0.84879 0.97814 0.0
C2701 C 0.71299 0.83409 0.9865 0.0
C2702 C 0.70028 0.89445 0.0253 0.0
C2703 C 0.71154 0.87152 0.00094 0.0
C2704 C 0.69919 0.91285 0.03284 0.0
C2705 C 0.70777 0.92811 0.02426 0.0
C2706 C 0.71005 0.89112 0.00898 0.0
C2707 C 0.71709 0.92429 0.00774 0.0
C2708 C 0.72211 0.86752 0.98529 0.0
C2709 C 0.70283 0.83871 0.00224 0.0
N2710 N 0.71808 0.90615 0.00067 0.0
N2711 N 0.70236 0.85695 0.0089 0.0
H2712 H 0.5615 0.29616 0.34309 0.0
H2713 H 0.59174 0.27494 0.44941 0.0
H2714 H 0.61381 0.27184 0.35877 0.0
H2715 H 0.54049 0.30027 0.4318 0.0
H2716 H 0.59875 0.2702 0.41616 0.0
H2717 H 0.55199 0.29366 0.37512 0.0
C2718 C 0.57095 0.2901 0.35324 0.0
C2719 C 0.58872 0.28464 0.34837 0.0
C2720 C 0.58597 0.27675 0.41962 0.0
C2721 C 0.57797 0.28194 0.38532 0.0
C2722 C 0.58197 0.27948 0.43858 0.0
C2723 C 0.56549 0.288 0.44343 0.0
C2724 C 0.57353 0.28282 0.40546 0.0
C2725 C 0.55323 0.2934 0.42878 0.0
C2726 C 0.56553 0.28875 0.37161 0.0
C2727 C 0.60022 0.27668 0.3621 0.0
N2728 N 0.55756 0.29084 0.41055 0.0
N2729 N 0.59476 0.27579 0.38005 0.0
H2730 H 0.963 0.25454 0.6564 0.0
H2731 H 0.97922 0.27733 0.54951 0.0
H2732 H 0.003 0.29806 0.64076 0.0
H2733 H 0.93627 0.23667 0.56498 0.0
H2734 H 0.98847 0.28468 0.5829 0.0
H2735 H 0.95331 0.24739 0.62303 0.0
C2736 C 0.96975 0.2626 0.64597 0.0
C2737 C 0.98385 0.27693 0.65141 0.0
C2738 C 0.977 0.27417 0.57902 0.0
C2739 C 0.97282 0.2688 0.61316 0.0
C2740 C 0.97178 0.26989 0.55994 0.0
C2741 C 0.95698 0.25631 0.55443 0.0
C2742 C 0.96742 0.26476 0.59275 0.0
C2743 C 0.94764 0.24735 0.56859 0.0
C2744 C 0.96419 0.25852 0.6269 0.0
C2745 C 0.99208 0.2869 0.63724 0.0
N2746 N 0.95305 0.25169 0.58709 0.0
N2747 N 0.98646 0.28263 0.61879 0.0
H2748 H 0.40109 0.72565 0.16347 0.0
H2749 H 0.41011 0.68466 0.05784 0.0
H2750 H 0.37321 0.67227 0.14206 0.0
H2751 H 0.44908 0.72728 0.08686 0.0
H2752 H 0.39439 0.68101 0.08732 0.0
H2753 H 0.41667 0.72771 0.13415 0.0
C2754 C 0.39821 0.71433 0.15257 0.0
C2755 C 0.38581 0.69875 0.15523 0.0
C2756 C 0.40646 0.69106 0.08721 0.0
C2757 C 0.40368 0.70107 0.12147 0.0
C2758 C 0.41535 0.69321 0.07042 0.0
C2759 C 0.43094 0.70626 0.06996 0.0
C2760 C 0.41306 0.70224 0.10352 0.0
C2761 C 0.43726 0.71691 0.08665 0.0
C2762 C 0.4072 0.71549 0.13584 0.0
C2763 C 0.38271 0.68451 0.14059 0.0
N2764 N 0.42823 0.71474 0.10269 0.0
N2765 N 0.39154 0.68605 0.12425 0.0
H2766 H 0.97064 0.73023 0.85456 0.0
H2767 H 0.06111 0.75748 0.92558 0.0
H2768 H 0.02183 0.75885 0.83828 0.0
H2769 H 0.01762 0.71476 0.93537 0.0
H2770 H 0.04376 0.76368 0.89615 0.0
H2771 H 0.98452 0.73051 0.88689 0.0
C2772 C 0.98467 0.73687 0.85783 0.0
C2773 C 0.99519 0.74433 0.84362 0.0
C2774 C 0.03796 0.75307 0.90483 0.0
C2775 C 0.01113 0.74462 0.88059 0.0
C2776 C 0.0479 0.74942 0.9216 0.0
C2777 C 0.04101 0.73533 0.93288 0.0
C2778 C 0.0209 0.74268 0.89932 0.0
C2779 C 0.02349 0.72578 0.92722 0.0
C2780 C 0.99261 0.73692 0.87627 0.0
C2781 C 0.01329 0.75277 0.84873 0.0
N2782 N 0.01412 0.72954 0.91077 0.0
N2783 N 0.02074 0.75256 0.86677 0.0
H2784 H 0.62316 0.41862 0.70925 0.0
H2785 H 0.53016 0.42673 0.6419 0.0
H2786 H 0.61846 0.39948 0.65025 0.0
H2787 H 0.54007 0.45663 0.6966 0.0
H2788 H 0.56152 0.41458 0.64549 0.0
H2789 H 0.5918 0.43065 0.70563 0.0
C2790 C 0.61555 0.41695 0.69552 0.0
C2791 C 0.6235 0.40807 0.68001 0.0
C2792 C 0.55685 0.42383 0.65669 0.0
C2793 C 0.5875 0.42174 0.67581 0.0
C2794 C 0.53892 0.43068 0.6547 0.0
C2795 C 0.53247 0.44269 0.669 0.0
C2796 C 0.56842 0.42889 0.67316 0.0
C2797 C 0.54453 0.44756 0.68516 0.0
C2798 C 0.59765 0.42385 0.69347 0.0
C2799 C 0.61293 0.40628 0.66258 0.0
N2800 N 0.56188 0.44058 0.68684 0.0
N2801 N 0.59546 0.413 0.66097 0.0
H2802 H 0.86345 0.57924 0.29513 0.0
H2803 H 0.95548 0.57991 0.23566 0.0
H2804 H 0.87348 0.61693 0.25096 0.0
H2805 H 0.94456 0.54106 0.27858 0.0
H2806 H 0.92576 0.59405 0.24145 0.0
H2807 H 0.89333 0.56536 0.28956 0.0
C2808 C 0.87194 0.58461 0.28427 0.0
C2809 C 0.86594 0.59928 0.27349 0.0
C2810 C 0.92985 0.58242 0.24959 0.0
C2811 C 0.90019 0.58343 0.26704 0.0
C2812 C 0.94687 0.57441 0.24637 0.0
C2813 C 0.95253 0.55927 0.25665 0.0
C2814 C 0.91838 0.57528 0.26324 0.0
C2815 C 0.94065 0.55254 0.27015 0.0
C2816 C 0.889 0.57667 0.28108 0.0
C2817 C 0.87753 0.60565 0.25961 0.0
N2818 N 0.92417 0.56061 0.27307 0.0
N2819 N 0.89409 0.59769 0.25678 0.0
H2820 H 0.15253 0.02689 0.29896 0.0
H2821 H 0.09346 0.93743 0.33282 0.0
H2822 H 0.17567 0.97251 0.30343 0.0
H2823 H 0.06782 0.98535 0.30996 0.0
H2824 H 0.12447 0.95151 0.32652 0.0
H2825 H 0.12218 0.01333 0.30767 0.0
C2826 C 0.15126 0.0121 0.30184 0.0
C2827 C 0.16664 0.00078 0.30035 0.0
C2828 C 0.11203 0.95893 0.32296 0.0
C2829 C 0.13192 0.98521 0.31043 0.0
C2830 C 0.09428 0.95088 0.32646 0.0
C2831 C 0.07788 0.96014 0.32185 0.0
C2832 C 0.11344 0.97647 0.31496 0.0
C2833 C 0.07999 0.97777 0.31404 0.0
C2834 C 0.1339 0.00437 0.30677 0.0
C2835 C 0.16415 0.98172 0.30429 0.0
N2836 N 0.09741 0.98533 0.31085 0.0
N2837 N 0.1471 0.97452 0.30917 0.0
H2838 H 0.36704 0.03698 0.68722 0.0
H2839 H 0.45998 0.02647 0.75435 0.0
H2840 H 0.37117 0.99543 0.72878 0.0
H2841 H 0.4542 0.0714 0.71673 0.0
H2842 H 0.4279 0.01416 0.7442 0.0
H2843 H 0.39929 0.04915 0.69701 0.0
C2844 C 0.37472 0.0304 0.6984 0.0
C2845 C 0.36636 0.01514 0.70719 0.0
C2846 C 0.43363 0.02671 0.73815 0.0
C2847 C 0.40333 0.02901 0.71845 0.0
C2848 C 0.45201 0.03369 0.74385 0.0
C2849 C 0.45984 0.04999 0.73635 0.0
C2850 C 0.42295 0.03604 0.72478 0.0
C2851 C 0.44869 0.05891 0.72303 0.0
C2852 C 0.39314 0.03738 0.70399 0.0
C2853 C 0.37701 0.00721 0.7216 0.0
N2854 N 0.43085 0.05181 0.71764 0.0
N2855 N 0.39493 0.01422 0.72675 0.0
H2856 H 0.68787 0.64036 0.45558 0.0
H2857 H 0.6947 0.52847 0.44115 0.0
H2858 H 0.70409 0.61195 0.40426 0.0
H2859 H 0.67377 0.55589 0.49076 0.0
H2860 H 0.69942 0.55915 0.42802 0.0
H2861 H 0.68377 0.60979 0.46928 0.0
C2862 C 0.69057 0.6277 0.44719 0.0
C2863 C 0.69634 0.62873 0.42873 0.0
C2864 C 0.6938 0.55848 0.44178 0.0
C2865 C 0.69171 0.59369 0.44436 0.0
C2866 C 0.69102 0.54094 0.44927 0.0
C2867 C 0.6837 0.53955 0.46705 0.0
C2868 C 0.68928 0.57486 0.45214 0.0
C2869 C 0.67959 0.55628 0.47708 0.0
C2870 C 0.68823 0.61025 0.45503 0.0
C2871 C 0.69963 0.61185 0.41853 0.0
N2872 N 0.68239 0.57323 0.46946 0.0
N2873 N 0.69728 0.59505 0.42648 0.0
H2874 H 0.69114 0.34657 0.03255 0.0
H2875 H 0.69967 0.45854 0.0235 0.0
H2876 H 0.6441 0.3801 0.01978 0.0
H2877 H 0.74076 0.42986 0.05627 0.0
H2878 H 0.68215 0.42827 0.01508 0.0
H2879 H 0.71235 0.3755 0.03451 0.0
C2880 C 0.68538 0.35993 0.0297 0.0
C2881 C 0.66588 0.36107 0.02589 0.0
C2882 C 0.69509 0.42857 0.02399 0.0
C2883 C 0.68987 0.39392 0.02818 0.0
C2884 C 0.70517 0.44583 0.0287 0.0
C2885 C 0.72166 0.44676 0.04071 0.0
C2886 C 0.70155 0.41201 0.0312 0.0
C2887 C 0.72797 0.42981 0.04719 0.0
C2888 C 0.69742 0.37641 0.03099 0.0
C2889 C 0.65906 0.3787 0.02269 0.0
N2890 N 0.71788 0.41311 0.04241 0.0
N2891 N 0.671 0.39442 0.02391 0.0
H2892 H 0.27053 0.87521 0.6163 0.0
H2893 H 0.27725 0.92921 0.52116 0.0
H2894 H 0.30504 0.85845 0.57112 0.0
H2895 H 0.24634 0.9487 0.56812 0.0
H2896 H 0.2869 0.90273 0.53895 0.0
H2897 H 0.26098 0.90185 0.59865 0.0
C2898 C 0.27612 0.87713 0.60268 0.0
C2899 C 0.28861 0.86456 0.59518 0.0
C2900 C 0.27802 0.9128 0.54539 0.0
C2901 C 0.2777 0.89503 0.57488 0.0
C2902 C 0.27241 0.92786 0.53519 0.0
C2903 C 0.26093 0.94118 0.54314 0.0
C2904 C 0.27208 0.91095 0.56369 0.0
C2905 C 0.25535 0.93888 0.5615 0.0
C2906 C 0.27067 0.89236 0.59261 0.0
C2907 C 0.2954 0.86778 0.57746 0.0
N2908 N 0.26093 0.92404 0.57113 0.0
N2909 N 0.28983 0.88267 0.56791 0.0
H2910 H 0.32535 0.16123 0.0204 0.0
H2911 H 0.28635 0.0828 0.93942 0.0
H2912 H 0.27903 0.16873 0.97999 0.0
H2913 H 0.33151 0.07438 0.9808 0.0
H2914 H 0.28384 0.11451 0.95383 0.0
H2915 H 0.32827 0.12965 0.00575 0.0
C2916 C 0.31582 0.15627 0.00841 0.0
C2917 C 0.30189 0.16765 0.00143 0.0
C2918 C 0.2943 0.10575 0.95978 0.0
C2919 C 0.30514 0.13146 0.98462 0.0
C2920 C 0.2958 0.08765 0.95151 0.0
C2921 C 0.30921 0.07592 0.95887 0.0
C2922 C 0.30632 0.11224 0.97556 0.0
C2923 C 0.32085 0.08286 0.97476 0.0
C2924 C 0.31748 0.13821 7e-05 0.0
C2925 C 0.28996 0.16046 0.98586 0.0
N2926 N 0.31917 0.10058 0.98254 0.0
N2927 N 0.29185 0.14282 0.978 0.0
H2928 H 0.41978 0.70953 0.62819 0.0
H2929 H 0.44204 0.64833 0.53495 0.0
H2930 H 0.40701 0.64933 0.62009 0.0
H2931 H 0.46571 0.70515 0.54905 0.0
H2932 H 0.42667 0.64916 0.5648 0.0
H2933 H 0.43432 0.70889 0.59792 0.0
C2934 C 0.42 0.69618 0.62004 0.0
C2935 C 0.4122 0.67945 0.62671 0.0
C2936 C 0.43525 0.66143 0.56138 0.0
C2937 C 0.42875 0.67864 0.59202 0.0
C2938 C 0.44393 0.66101 0.5443 0.0
C2939 C 0.45519 0.67669 0.53953 0.0
C2940 C 0.43769 0.67772 0.57372 0.0
C2941 C 0.45733 0.69267 0.55227 0.0
C2942 C 0.42834 0.69582 0.60278 0.0
C2943 C 0.41287 0.66256 0.61552 0.0
N2944 N 0.44861 0.6928 0.56875 0.0
N2945 N 0.42097 0.66259 0.59871 0.0
H2946 H 0.0472 0.7192 0.34726 0.0
H2947 H 0.04837 0.71136 0.45922 0.0
H2948 H 0.00682 0.68416 0.37457 0.0
H2949 H 0.08504 0.75088 0.43262 0.0
H2950 H 0.0337 0.70049 0.42822 0.0
H2951 H 0.0621 0.73009 0.37826 0.0
C2952 C 0.04147 0.71377 0.35976 0.0
C2953 C 0.02571 0.70074 0.35829 0.0
C2954 C 0.04496 0.71155 0.42915 0.0
C2955 C 0.04273 0.71315 0.39384 0.0
C2956 C 0.05329 0.71785 0.44689 0.0
C2957 C 0.06797 0.73212 0.44861 0.0
C2958 C 0.05135 0.7195 0.41292 0.0
C2959 C 0.07395 0.73969 0.43202 0.0
C2960 C 0.04998 0.72002 0.37746 0.0
C2961 C 0.01892 0.69422 0.375 0.0
N2962 N 0.06562 0.7333 0.4149 0.0
N2963 N 0.02747 0.70048 0.39204 0.0
H2964 H 0.57697 0.30528 0.86068 0.0
H2965 H 0.58511 0.24999 0.95534 0.0
H2966 H 0.62238 0.26996 0.87461 0.0
H2967 H 0.53742 0.28159 0.93939 0.0
H2968 H 0.59946 0.25802 0.9263 0.0
H2969 H 0.56267 0.29751 0.88984 0.0
C2970 C 0.58395 0.2959 0.86987 0.0
C2971 C 0.60092 0.28827 0.86517 0.0
C2972 C 0.58585 0.2632 0.92913 0.0
C2973 C 0.58461 0.27932 0.89861 0.0
C2974 C 0.5777 0.25871 0.94577 0.0
C2975 C 0.56003 0.26514 0.94983 0.0
C2976 C 0.57633 0.27427 0.91643 0.0
C2977 C 0.55095 0.27614 0.93675 0.0
C2978 C 0.57576 0.29145 0.88651 0.0
C2979 C 0.6093 0.27618 0.87763 0.0
N2980 N 0.55922 0.28039 0.92067 0.0
N2981 N 0.60108 0.2721 0.89377 0.0
H2982 H 0.9899 0.30474 0.17873 0.0
H2983 H 0.98779 0.29367 0.06588 0.0
H2984 H 0.03112 0.27568 0.14796 0.0
H2985 H 0.95054 0.32817 0.09651 0.0
H2986 H 0.00319 0.28608 0.09583 0.0
H2987 H 0.97442 0.31235 0.14876 0.0
C2988 C 0.99568 0.29991 0.16568 0.0
C2989 C 0.01185 0.28956 0.16587 0.0
C2990 C 0.99166 0.29533 0.096 0.0
C2991 C 0.99419 0.29824 0.1315 0.0
C2992 C 0.98292 0.29977 0.07889 0.0
C2993 C 0.96784 0.31161 0.07863 0.0
C2994 C 0.98527 0.30273 0.11305 0.0
C2995 C 0.96194 0.31879 0.09599 0.0
C2996 C 0.98685 0.3043 0.14857 0.0
C2997 C 0.01871 0.28371 0.14851 0.0
N2998 N 0.97065 0.31423 0.11248 0.0
N2999 N 0.00984 0.28812 0.13205 0.0
loop_
_geom_bond_atom_site_label_1
_geom_bond_atom_site_label_2
_geom_bond_distance
_geom_bond_site_symmetry_2
_ccdc_geom_bond_type
O0 Cd1 2.300 . S
O0 C7 1.275 . S
Cd1 O0 2.300 . S
Cd1 O9 2.381 . S
Cd1 O10 2.378 . S
O2 Cd3 2.385 . S
O2 C7 1.255 . S
Cd3 O2 2.385 . S
Cd3 O4 2.317 . S
O4 Cd3 2.317 . S
O4 C5 1.232 . S
C5 O4 1.232 . S
C5 O6 1.218 . S
O6 C5 1.218 . S
C7 O0 1.275 . S
C7 O2 1.255 . S
C8 O9 1.258 . S
C8 O10 1.256 . S
O9 Cd1 2.381 . S
O9 C8 1.258 . S
O10 Cd1 2.378 . S
O10 C8 1.256 . S
O11 Cd12 2.300 . S
O11 C18 1.275 . S
Cd12 O11 2.300 . S
Cd12 O20 2.381 . S
Cd12 O21 2.378 . S
O13 Cd14 2.385 . S
O13 C18 1.255 . S
Cd14 O13 2.385 . S
Cd14 O15 2.317 . S
O15 Cd14 2.317 . S
O15 C16 1.232 . S
C16 O15 1.232 . S
C16 O17 1.218 . S
O17 C16 1.218 . S
C18 O11 1.275 . S
C18 O13 1.255 . S
C19 O20 1.258 . S
C19 O21 1.256 . S
O20 Cd12 2.381 . S
O20 C19 1.258 . S
O21 Cd12 2.378 . S
O21 C19 1.256 . S
O22 Cd23 2.300 . S
O22 C29 1.275 . S
Cd23 O22 2.300 . S
Cd23 O31 2.381 1_565 S
Cd23 O32 2.378 . S
O24 Cd25 2.385 . S
O24 C29 1.255 . S
Cd25 O24 2.385 . S
Cd25 O26 2.317 . S
O26 Cd25 2.317 . S
O26 C27 1.232 . S
C27 O26 1.232 . S
C27 O28 1.218 . S
O28 C27 1.218 . S
C29 O22 1.275 . S
C29 O24 1.255 . S
C30 O31 1.258 . S
C30 O32 1.256 1_545 S
O31 Cd23 2.381 1_545 S
O31 C30 1.258 . S
O32 Cd23 2.378 . S
O32 C30 1.256 1_565 S
O33 Cd34 2.300 . S
O33 C40 1.275 . S
Cd34 O33 2.300 . S
Cd34 O42 2.381 1_545 S
Cd34 O43 2.378 . S
O35 Cd36 2.385 . S
O35 C40 1.255 . S
Cd36 O35 2.385 . S
Cd36 O37 2.317 . S
O37 Cd36 2.317 . S
O37 C38 1.232 . S
C38 O37 1.232 . S
C38 O39 1.218 . S
O39 C38 1.218 . S
C40 O33 1.275 . S
C40 O35 1.255 . S
C41 O42 1.258 . S
C41 O43 1.256 1_565 S
O42 Cd34 2.381 1_565 S
O42 C41 1.258 . S
O43 Cd34 2.378 . S
O43 C41 1.256 1_545 S
O44 Cd45 2.300 . S
O44 C51 1.275 . S
Cd45 O44 2.300 . S
Cd45 O53 2.381 . S
Cd45 O54 2.378 . S
O46 Cd47 2.385 . S
O46 C51 1.255 . S
Cd47 O46 2.385 . S
Cd47 O48 2.317 . S
O48 Cd47 2.317 . S
O48 C49 1.232 . S
C49 O48 1.232 . S
C49 O50 1.218 . S
O50 C49 1.218 . S
C51 O44 1.275 . S
C51 O46 1.255 . S
C52 O53 1.258 . S
C52 O54 1.256 . S
O53 Cd45 2.381 . S
O53 C52 1.258 . S
O54 Cd45 2.378 . S
O54 C52 1.256 . S
O55 Cd56 2.300 . S
O55 C62 1.275 . S
Cd56 O55 2.300 . S
Cd56 O64 2.381 1_554 S
Cd56 O65 2.378 . S
O57 Cd58 2.385 . S
O57 C62 1.255 . S
Cd58 O57 2.385 . S
Cd58 O59 2.317 . S
O59 Cd58 2.317 . S
O59 C60 1.232 . S
C60 O59 1.232 . S
C60 O61 1.218 . S
O61 C60 1.218 . S
C62 O55 1.275 . S
C62 O57 1.255 . S
C63 O64 1.258 . S
C63 O65 1.256 1_556 S
O64 Cd56 2.381 1_556 S
O64 C63 1.258 . S
O65 Cd56 2.378 . S
O65 C63 1.256 1_554 S
O66 Cd67 2.300 . S
O66 C73 1.275 . S
Cd67 O66 2.300 . S
Cd67 O75 2.381 . S
Cd67 O76 2.378 . S
O68 Cd69 2.385 . S
O68 C73 1.255 . S
Cd69 O68 2.385 . S
Cd69 O70 2.317 . S
O70 Cd69 2.317 . S
O70 C71 1.232 . S
C71 O70 1.232 . S
C71 O72 1.218 . S
O72 C71 1.218 . S
C73 O66 1.275 . S
C73 O68 1.255 . S
C74 O75 1.258 . S
C74 O76 1.256 . S
O75 Cd67 2.381 . S
O75 C74 1.258 . S
O76 Cd67 2.378 . S
O76 C74 1.256 . S
O77 Cd78 2.300 . S
O77 C84 1.275 . S
Cd78 O77 2.300 . S
Cd78 O86 2.381 1_556 S
Cd78 O87 2.378 . S
O79 Cd80 2.385 . S
O79 C84 1.255 . S
Cd80 O79 2.385 . S
Cd80 O81 2.317 . S
O81 Cd80 2.317 . S
O81 C82 1.232 . S
C82 O81 1.232 . S
C82 O83 1.218 . S
O83 C82 1.218 . S
C84 O77 1.275 . S
C84 O79 1.255 . S
C85 O86 1.258 . S
C85 O87 1.256 1_554 S
O86 Cd78 2.381 1_554 S
O86 C85 1.258 . S
O87 Cd78 2.378 . S
O87 C85 1.256 1_556 S
O88 Cd89 2.300 . S
O88 C95 1.275 . S
Cd89 O88 2.300 . S
Cd89 O97 2.381 . S
Cd89 O98 2.378 . S
O90 Cd91 2.385 . S
O90 C95 1.255 . S
Cd91 O90 2.385 . S
Cd91 O92 2.317 . S
O92 Cd91 2.317 . S
O92 C93 1.232 . S
C93 O92 1.232 . S
C93 O94 1.218 . S
O94 C93 1.218 . S
C95 O88 1.275 . S
C95 O90 1.255 . S
C96 O97 1.258 . S
C96 O98 1.256 . S
O97 Cd89 2.381 . S
O97 C96 1.258 . S
O98 Cd89 2.378 . S
O98 C96 1.256 . S
O99 Cd100 2.300 . S
O99 C106 1.275 . S
Cd100 O99 2.300 . S
Cd100 O108 2.381 1_455 S
Cd100 O109 2.378 . S
O101 Cd102 2.385 . S
O101 C106 1.255 . S
Cd102 O101 2.385 . S
Cd102 O103 2.317 . S
O103 Cd102 2.317 . S
O103 C104 1.232 . S
C104 O103 1.232 . S
C104 O105 1.218 . S
O105 C104 1.218 . S
C106 O99 1.275 . S
C106 O101 1.255 . S
C107 O108 1.258 . S
C107 O109 1.256 1_655 S
O108 Cd100 2.381 1_655 S
O108 C107 1.258 . S
O109 Cd100 2.378 . S
O109 C107 1.256 1_455 S
O110 Cd111 2.300 . S
O110 C117 1.275 . S
Cd111 O110 2.300 . S
Cd111 O119 2.381 . S
Cd111 O120 2.378 . S
O112 Cd113 2.385 . S
O112 C117 1.255 . S
Cd113 O112 2.385 . S
Cd113 O114 2.317 . S
O114 Cd113 2.317 . S
O114 C115 1.232 . S
C115 O114 1.232 . S
C115 O116 1.218 . S
O116 C115 1.218 . S
C117 O110 1.275 . S
C117 O112 1.255 . S
C118 O119 1.258 . S
C118 O120 1.256 . S
O119 Cd111 2.381 . S
O119 C118 1.258 . S
O120 Cd111 2.378 . S
O120 C118 1.256 . S
O121 Cd122 2.300 . S
O121 C128 1.275 . S
Cd122 O121 2.300 . S
Cd122 O130 2.381 1_655 S
Cd122 O131 2.378 . S
O123 Cd124 2.385 . S
O123 C128 1.255 . S
Cd124 O123 2.385 . S
Cd124 O125 2.317 . S
O125 Cd124 2.317 . S
O125 C126 1.232 . S
C126 O125 1.232 . S
C126 O127 1.218 . S
O127 C126 1.218 . S
C128 O121 1.275 . S
C128 O123 1.255 . S
C129 O130 1.258 . S
C129 O131 1.256 1_455 S
O130 Cd122 2.381 1_455 S
O130 C129 1.258 . S
O131 Cd122 2.378 . S
O131 C129 1.256 1_655 S
O132 Cd133 2.300 . S
O132 C139 1.275 . S
Cd133 O132 2.300 . S
Cd133 O141 2.381 . S
Cd133 O142 2.378 . S
O134 Cd135 2.385 . S
O134 C139 1.255 . S
Cd135 O134 2.385 . S
Cd135 O136 2.317 . S
O136 Cd135 2.317 . S
O136 C137 1.232 . S
C137 O136 1.232 . S
C137 O138 1.218 . S
O138 C137 1.218 . S
C139 O132 1.275 . S
C139 O134 1.255 . S
C140 O141 1.258 . S
C140 O142 1.256 . S
O141 Cd133 2.381 . S
O141 C140 1.258 . S
O142 Cd133 2.378 . S
O142 C140 1.256 . S
O143 Cd144 2.300 . S
O143 C150 1.275 . S
Cd144 O143 2.300 . S
Cd144 O152 2.381 . S
Cd144 O153 2.378 . S
O145 Cd146 2.385 . S
O145 C150 1.255 . S
Cd146 O145 2.385 . S
Cd146 O147 2.317 . S
O147 Cd146 2.317 . S
O147 C148 1.232 . S
C148 O147 1.232 . S
C148 O149 1.218 . S
O149 C148 1.218 . S
C150 O143 1.275 . S
C150 O145 1.255 . S
C151 O152 1.258 . S
C151 O153 1.256 . S
O152 Cd144 2.381 . S
O152 C151 1.258 . S
O153 Cd144 2.378 . S
O153 C151 1.256 . S
O154 Cd155 2.300 1_545 S
O154 C161 1.275 . S
Cd155 O154 2.300 1_565 S
Cd155 O163 2.381 1_565 S
Cd155 O164 2.378 . S
O156 Cd157 2.385 . S
O156 C161 1.255 1_565 S
Cd157 O156 2.385 . S
Cd157 O158 2.317 . S
O158 Cd157 2.317 . S
O158 C159 1.232 . S
C159 O158 1.232 . S
C159 O160 1.218 . S
O160 C159 1.218 . S
C161 O154 1.275 . S
C161 O156 1.255 1_545 S
C162 O163 1.258 1_565 S
C162 O164 1.256 . S
O163 Cd155 2.381 1_545 S
O163 C162 1.258 1_545 S
O164 Cd155 2.378 . S
O164 C162 1.256 . S
O165 Cd166 2.300 1_565 S
O165 C172 1.275 . S
Cd166 O165 2.300 1_545 S
Cd166 O174 2.381 1_545 S
Cd166 O175 2.378 . S
O167 Cd168 2.385 . S
O167 C172 1.255 1_545 S
Cd168 O167 2.385 . S
Cd168 O169 2.317 . S
O169 Cd168 2.317 . S
O169 C170 1.232 . S
C170 O169 1.232 . S
C170 O171 1.218 . S
O171 C170 1.218 . S
C172 O165 1.275 . S
C172 O167 1.255 1_565 S
C173 O174 1.258 1_545 S
C173 O175 1.256 . S
O174 Cd166 2.381 1_565 S
O174 C173 1.258 1_565 S
O175 Cd166 2.378 . S
O175 C173 1.256 . S
O176 Cd177 2.300 . S
O176 C183 1.275 . S
Cd177 O176 2.300 . S
Cd177 O185 2.381 . S
Cd177 O186 2.378 . S
O178 Cd179 2.385 . S
O178 C183 1.255 . S
Cd179 O178 2.385 . S
Cd179 O180 2.317 . S
O180 Cd179 2.317 . S
O180 C181 1.232 . S
C181 O180 1.232 . S
C181 O182 1.218 . S
O182 C181 1.218 . S
C183 O176 1.275 . S
C183 O178 1.255 . S
C184 O185 1.258 . S
C184 O186 1.256 . S
O185 Cd177 2.381 . S
O185 C184 1.258 . S
O186 Cd177 2.378 . S
O186 C184 1.256 . S
O187 Cd188 2.300 1_556 S
O187 C194 1.275 . S
Cd188 O187 2.300 1_554 S
Cd188 O196 2.381 1_554 S
Cd188 O197 2.378 . S
O189 Cd190 2.385 . S
O189 C194 1.255 1_554 S
Cd190 O189 2.385 . S
Cd190 O191 2.317 . S
O191 Cd190 2.317 . S
O191 C192 1.232 . S
C192 O191 1.232 . S
C192 O193 1.218 . S
O193 C192 1.218 . S
C194 O187 1.275 . S
C194 O189 1.255 1_556 S
C195 O196 1.258 1_554 S
C195 O197 1.256 . S
O196 Cd188 2.381 1_556 S
O196 C195 1.258 1_556 S
O197 Cd188 2.378 . S
O197 C195 1.256 . S
O198 Cd199 2.300 . S
O198 C205 1.275 . S
Cd199 O198 2.300 . S
Cd199 O207 2.381 . S
Cd199 O208 2.378 . S
O200 Cd201 2.385 . S
O200 C205 1.255 . S
Cd201 O200 2.385 . S
Cd201 O202 2.317 . S
O202 Cd201 2.317 . S
O202 C203 1.232 . S
C203 O202 1.232 . S
C203 O204 1.218 . S
O204 C203 1.218 . S
C205 O198 1.275 . S
C205 O200 1.255 . S
C206 O207 1.258 . S
C206 O208 1.256 . S
O207 Cd199 2.381 . S
O207 C206 1.258 . S
O208 Cd199 2.378 . S
O208 C206 1.256 . S
O209 Cd210 2.300 1_554 S
O209 C216 1.275 . S
Cd210 O209 2.300 1_556 S
Cd210 O218 2.381 1_556 S
Cd210 O219 2.378 . S
O211 Cd212 2.385 . S
O211 C216 1.255 1_556 S
Cd212 O211 2.385 . S
Cd212 O213 2.317 . S
O213 Cd212 2.317 . S
O213 C214 1.232 . S
C214 O213 1.232 . S
C214 O215 1.218 . S
O215 C214 1.218 . S
C216 O209 1.275 . S
C216 O211 1.255 1_554 S
C217 O218 1.258 1_556 S
C217 O219 1.256 . S
O218 Cd210 2.381 1_554 S
O218 C217 1.258 1_554 S
O219 Cd210 2.378 . S
O219 C217 1.256 . S
O220 Cd221 2.300 . S
O220 C227 1.275 . S
Cd221 O220 2.300 . S
Cd221 O229 2.381 . S
Cd221 O230 2.378 . S
O222 Cd223 2.385 . S
O222 C227 1.255 . S
Cd223 O222 2.385 . S
Cd223 O224 2.317 . S
O224 Cd223 2.317 . S
O224 C225 1.232 . S
C225 O224 1.232 . S
C225 O226 1.218 . S
O226 C225 1.218 . S
C227 O220 1.275 . S
C227 O222 1.255 . S
C228 O229 1.258 . S
C228 O230 1.256 . S
O229 Cd221 2.381 . S
O229 C228 1.258 . S
O230 Cd221 2.378 . S
O230 C228 1.256 . S
O231 Cd232 2.300 1_655 S
O231 C238 1.275 . S
Cd232 O231 2.300 1_455 S
Cd232 O240 2.381 1_455 S
Cd232 O241 2.378 . S
O233 Cd234 2.385 . S
O233 C238 1.255 1_455 S
Cd234 O233 2.385 . S
Cd234 O235 2.317 . S
O235 Cd234 2.317 . S
O235 C236 1.232 . S
C236 O235 1.232 . S
C236 O237 1.218 . S
O237 C236 1.218 . S
C238 O231 1.275 . S
C238 O233 1.255 1_655 S
C239 O240 1.258 1_455 S
C239 O241 1.256 . S
O240 Cd232 2.381 1_655 S
O240 C239 1.258 1_655 S
O241 Cd232 2.378 . S
O241 C239 1.256 . S
O242 Cd243 2.300 . S
O242 C249 1.275 . S
Cd243 O242 2.300 . S
Cd243 O251 2.381 . S
Cd243 O252 2.378 . S
O244 Cd245 2.385 . S
O244 C249 1.255 . S
Cd245 O244 2.385 . S
Cd245 O246 2.317 . S
O246 Cd245 2.317 . S
O246 C247 1.232 . S
C247 O246 1.232 . S
C247 O248 1.218 . S
O248 C247 1.218 . S
C249 O242 1.275 . S
C249 O244 1.255 . S
C250 O251 1.258 . S
C250 O252 1.256 . S
O251 Cd243 2.381 . S
O251 C250 1.258 . S
O252 Cd243 2.378 . S
O252 C250 1.256 . S
O253 Cd254 2.300 1_455 S
O253 C260 1.275 . S
Cd254 O253 2.300 1_655 S
Cd254 O262 2.381 1_655 S
Cd254 O263 2.378 . S
O255 Cd256 2.385 . S
O255 C260 1.255 1_655 S
Cd256 O255 2.385 . S
Cd256 O257 2.317 . S
O257 Cd256 2.317 . S
O257 C258 1.232 . S
C258 O257 1.232 . S
C258 O259 1.218 . S
O259 C258 1.218 . S
C260 O253 1.275 . S
C260 O255 1.255 1_455 S
C261 O262 1.258 1_655 S
C261 O263 1.256 . S
O262 Cd254 2.381 1_455 S
O262 C261 1.258 1_455 S
O263 Cd254 2.378 . S
O263 C261 1.256 . S
C264 C265 1.391 . S
C264 C268 1.391 . S
C264 H306 0.948 . S
C265 C264 1.391 . S
C265 C266 1.391 . S
C266 C265 1.391 . S
C266 H322 0.947 . S
C266 C323 1.392 . S
C267 C268 1.391 . S
C267 C271 1.397 . S
C267 C323 1.419 . S
C268 C264 1.391 . S
C268 C267 1.391 . S
C268 C269 1.399 . S
C269 C268 1.399 . S
C269 C272 1.396 . S
C269 C281 1.453 . S
C269 C282 1.684 . S
H270 C294 0.948 . S
C271 C267 1.397 . S
C271 C272 1.394 . S
C271 C290 1.723 . S
C272 C269 1.396 . S
C272 C271 1.394 . S
C272 C302 1.723 . S
H273 C296 0.947 . S
H274 C297 0.948 . S
H275 C303 0.982 . S
H276 C304 0.979 . S
H277 C304 0.980 . S
H278 C304 0.983 . S
H279 C303 0.979 . S
H280 C303 0.977 . S
C281 C269 1.453 . S
C281 H310 0.982 . S
C281 H311 0.979 . S
C281 H312 0.977 . S
C282 C269 1.684 . S
C282 H307 0.979 . S
C282 H308 0.980 . S
C282 H309 0.983 . S
C283 C284 1.391 . S
C283 C288 1.391 . S
C283 H313 0.948 . S
C284 C283 1.391 . S
C284 C285 1.391 . S
C285 C284 1.391 . S
C285 C286 1.392 . S
C285 H314 0.947 . S
C286 C285 1.392 . S
C286 C287 1.419 . S
C286 H315 0.948 . S
C287 C286 1.419 . S
C287 C288 1.391 . S
C287 C291 1.397 . S
C288 C283 1.391 . S
C288 C287 1.391 . S
C288 C289 1.399 . S
C289 C288 1.399 . S
C289 C290 1.396 . S
C289 C292 1.453 . S
C289 C293 1.684 . S
C290 C271 1.723 . S
C290 C289 1.396 . S
C290 C291 1.394 . S
C291 C287 1.397 . S
C291 C290 1.394 . S
C291 C301 1.723 . S
C292 C289 1.453 . S
C292 H316 0.982 . S
C292 H317 0.979 . S
C292 H318 0.977 . S
C293 C289 1.684 . S
C293 H319 0.979 . S
C293 H320 0.980 . S
C293 H321 0.983 . S
C294 H270 0.948 . S
C294 C295 1.391 . S
C294 C299 1.391 . S
C295 C294 1.391 . S
C295 C296 1.391 . S
C296 H273 0.947 . S
C296 C295 1.391 . S
C296 C297 1.392 . S
C297 H274 0.948 . S
C297 C296 1.392 . S
C297 C298 1.419 . S
C298 C297 1.419 . S
C298 C299 1.391 . S
C298 C302 1.397 . S
C299 C294 1.391 . S
C299 C298 1.391 . S
C299 C300 1.399 . S
C300 C299 1.399 . S
C300 C301 1.396 . S
C300 C303 1.453 . S
C300 C304 1.684 . S
C301 C291 1.723 . S
C301 C300 1.396 . S
C301 C302 1.394 . S
C302 C272 1.723 . S
C302 C298 1.397 . S
C302 C301 1.394 . S
C303 H275 0.982 . S
C303 H279 0.979 . S
C303 H280 0.977 . S
C303 C300 1.453 . S
C304 H276 0.979 . S
C304 H277 0.980 . S
C304 H278 0.983 . S
C304 C300 1.684 . S
H305 C323 0.948 . S
H306 C264 0.948 . S
H307 C282 0.979 . S
H308 C282 0.980 . S
H309 C282 0.983 . S
H310 C281 0.982 . S
H311 C281 0.979 . S
H312 C281 0.977 . S
H313 C283 0.948 . S
H314 C285 0.947 . S
H315 C286 0.948 . S
H316 C292 0.982 . S
H317 C292 0.979 . S
H318 C292 0.977 . S
H319 C293 0.979 . S
H320 C293 0.980 . S
H321 C293 0.983 . S
H322 C266 0.947 . S
C323 C266 1.392 . S
C323 C267 1.419 . S
C323 H305 0.948 . S
C324 C325 1.391 . S
C324 C328 1.391 . S
C324 H366 0.948 . S
C325 C324 1.391 . S
C325 C326 1.391 . S
C326 C325 1.391 . S
C326 H382 0.947 . S
C326 C383 1.392 . S
C327 C328 1.391 . S
C327 C331 1.397 . S
C327 C383 1.419 . S
C328 C324 1.391 . S
C328 C327 1.391 . S
C328 C329 1.399 . S
C329 C328 1.399 . S
C329 C332 1.396 . S
C329 C341 1.453 . S
C329 C342 1.684 . S
H330 C354 0.948 . S
C331 C327 1.397 . S
C331 C332 1.394 . S
C331 C350 1.723 . S
C332 C329 1.396 . S
C332 C331 1.394 . S
C332 C362 1.723 . S
H333 C356 0.947 . S
H334 C357 0.948 . S
H335 C363 0.982 . S
H336 C364 0.979 . S
H337 C364 0.980 . S
H338 C364 0.983 . S
H339 C363 0.979 . S
H340 C363 0.977 . S
C341 C329 1.453 . S
C341 H370 0.982 . S
C341 H371 0.979 . S
C341 H372 0.977 . S
C342 C329 1.684 . S
C342 H367 0.979 . S
C342 H368 0.980 . S
C342 H369 0.983 . S
C343 C344 1.391 . S
C343 C348 1.391 . S
C343 H373 0.948 . S
C344 C343 1.391 . S
C344 C345 1.391 . S
C345 C344 1.391 . S
C345 C346 1.392 . S
C345 H374 0.947 . S
C346 C345 1.392 . S
C346 C347 1.419 . S
C346 H375 0.948 . S
C347 C346 1.419 . S
C347 C348 1.391 . S
C347 C351 1.397 . S
C348 C343 1.391 . S
C348 C347 1.391 . S
C348 C349 1.399 . S
C349 C348 1.399 . S
C349 C350 1.396 . S
C349 C352 1.453 . S
C349 C353 1.684 . S
C350 C331 1.723 . S
C350 C349 1.396 . S
C350 C351 1.394 . S
C351 C347 1.397 . S
C351 C350 1.394 . S
C351 C361 1.723 . S
C352 C349 1.453 . S
C352 H376 0.982 . S
C352 H377 0.979 . S
C352 H378 0.977 . S
C353 C349 1.684 . S
C353 H379 0.979 . S
C353 H380 0.980 . S
C353 H381 0.983 . S
C354 H330 0.948 . S
C354 C355 1.391 . S
C354 C359 1.391 . S
C355 C354 1.391 . S
C355 C356 1.391 . S
C356 H333 0.947 . S
C356 C355 1.391 . S
C356 C357 1.392 . S
C357 H334 0.948 . S
C357 C356 1.392 . S
C357 C358 1.419 . S
C358 C357 1.419 . S
C358 C359 1.391 . S
C358 C362 1.397 . S
C359 C354 1.391 . S
C359 C358 1.391 . S
C359 C360 1.399 . S
C360 C359 1.399 . S
C360 C361 1.396 . S
C360 C363 1.453 . S
C360 C364 1.684 . S
C361 C351 1.723 . S
C361 C360 1.396 . S
C361 C362 1.394 . S
C362 C332 1.723 . S
C362 C358 1.397 . S
C362 C361 1.394 . S
C363 H335 0.982 . S
C363 H339 0.979 . S
C363 H340 0.977 . S
C363 C360 1.453 . S
C364 H336 0.979 . S
C364 H337 0.980 . S
C364 H338 0.983 . S
C364 C360 1.684 . S
H365 C383 0.948 . S
H366 C324 0.948 . S
H367 C342 0.979 . S
H368 C342 0.980 . S
H369 C342 0.983 . S
H370 C341 0.982 . S
H371 C341 0.979 . S
H372 C341 0.977 . S
H373 C343 0.948 . S
H374 C345 0.947 . S
H375 C346 0.948 . S
H376 C352 0.982 . S
H377 C352 0.979 . S
H378 C352 0.977 . S
H379 C353 0.979 . S
H380 C353 0.980 . S
H381 C353 0.983 . S
H382 C326 0.947 . S
C383 C326 1.392 . S
C383 C327 1.419 . S
C383 H365 0.948 . S
C384 C385 1.391 . S
C384 C388 1.391 . S
C384 H426 0.948 . S
C385 C384 1.391 . S
C385 C386 1.391 . S
C386 C385 1.391 . S
C386 H442 0.947 . S
C386 C443 1.392 . S
C387 C388 1.391 . S
C387 C391 1.397 . S
C387 C443 1.419 . S
C388 C384 1.391 . S
C388 C387 1.391 . S
C388 C389 1.399 . S
C389 C388 1.399 . S
C389 C392 1.396 . S
C389 C401 1.453 . S
C389 C402 1.684 . S
H390 C414 0.948 . S
C391 C387 1.397 . S
C391 C392 1.394 . S
C391 C410 1.723 . S
C392 C389 1.396 . S
C392 C391 1.394 . S
C392 C422 1.723 1_545 S
H393 C416 0.947 . S
H394 C417 0.948 . S
H395 C423 0.982 . S
H396 C424 0.979 . S
H397 C424 0.980 . S
H398 C424 0.983 . S
H399 C423 0.979 . S
H400 C423 0.977 . S
C401 C389 1.453 . S
C401 H430 0.982 . S
C401 H431 0.979 . S
C401 H432 0.977 1_545 S
C402 C389 1.684 . S
C402 H427 0.979 . S
C402 H428 0.980 1_545 S
C402 H429 0.983 . S
C403 C404 1.391 . S
C403 C408 1.391 . S
C403 H433 0.948 . S
C404 C403 1.391 . S
C404 C405 1.391 1_545 S
C405 C404 1.391 1_565 S
C405 C406 1.392 . S
C405 H434 0.947 . S
C406 C405 1.392 . S
C406 C407 1.419 . S
C406 H435 0.948 . S
C407 C406 1.419 . S
C407 C408 1.391 1_565 S
C407 C411 1.397 . S
C408 C403 1.391 . S
C408 C407 1.391 1_545 S
C408 C409 1.399 . S
C409 C408 1.399 . S
C409 C410 1.396 . S
C409 C412 1.453 . S
C409 C413 1.684 . S
C410 C391 1.723 . S
C410 C409 1.396 . S
C410 C411 1.394 1_545 S
C411 C407 1.397 . S
C411 C410 1.394 1_565 S
C411 C421 1.723 . S
C412 C409 1.453 . S
C412 H436 0.982 . S
C412 H437 0.979 . S
C412 H438 0.977 . S
C413 C409 1.684 . S
C413 H439 0.979 . S
C413 H440 0.980 . S
C413 H441 0.983 . S
C414 H390 0.948 . S
C414 C415 1.391 . S
C414 C419 1.391 . S
C415 C414 1.391 . S
C415 C416 1.391 . S
C416 H393 0.947 . S
C416 C415 1.391 . S
C416 C417 1.392 . S
C417 H394 0.948 . S
C417 C416 1.392 . S
C417 C418 1.419 . S
C418 C417 1.419 . S
C418 C419 1.391 . S
C418 C422 1.397 . S
C419 C414 1.391 . S
C419 C418 1.391 . S
C419 C420 1.399 . S
C420 C419 1.399 . S
C420 C421 1.396 . S
C420 C423 1.453 . S
C420 C424 1.684 . S
C421 C411 1.723 . S
C421 C420 1.396 . S
C421 C422 1.394 . S
C422 C392 1.723 1_565 S
C422 C418 1.397 . S
C422 C421 1.394 . S
C423 H395 0.982 . S
C423 H399 0.979 . S
C423 H400 0.977 . S
C423 C420 1.453 . S
C424 H396 0.979 . S
C424 H397 0.980 . S
C424 H398 0.983 . S
C424 C420 1.684 . S
H425 C443 0.948 . S
H426 C384 0.948 . S
H427 C402 0.979 . S
H428 C402 0.980 1_565 S
H429 C402 0.983 . S
H430 C401 0.982 . S
H431 C401 0.979 . S
H432 C401 0.977 1_565 S
H433 C403 0.948 . S
H434 C405 0.947 . S
H435 C406 0.948 . S
H436 C412 0.982 . S
H437 C412 0.979 . S
H438 C412 0.977 . S
H439 C413 0.979 . S
H440 C413 0.980 . S
H441 C413 0.983 . S
H442 C386 0.947 . S
C443 C386 1.392 . S
C443 C387 1.419 . S
C443 H425 0.948 . S
C444 C445 1.391 . S
C444 C448 1.391 . S
C444 H486 0.948 . S
C445 C444 1.391 . S
C445 C446 1.391 . S
C446 C445 1.391 . S
C446 H502 0.947 . S
C446 C503 1.392 . S
C447 C448 1.391 . S
C447 C451 1.397 . S
C447 C503 1.419 . S
C448 C444 1.391 . S
C448 C447 1.391 . S
C448 C449 1.399 . S
C449 C448 1.399 . S
C449 C452 1.396 . S
C449 C461 1.453 . S
C449 C462 1.684 . S
H450 C474 0.948 . S
C451 C447 1.397 . S
C451 C452 1.394 . S
C451 C470 1.723 . S
C452 C449 1.396 . S
C452 C451 1.394 . S
C452 C482 1.723 1_545 S
H453 C476 0.947 . S
H454 C477 0.948 . S
H455 C483 0.982 . S
H456 C484 0.979 . S
H457 C484 0.980 . S
H458 C484 0.983 . S
H459 C483 0.979 . S
H460 C483 0.977 . S
C461 C449 1.453 . S
C461 H490 0.982 . S
C461 H491 0.979 . S
C461 H492 0.977 1_545 S
C462 C449 1.684 . S
C462 H487 0.979 . S
C462 H488 0.980 1_545 S
C462 H489 0.983 . S
C463 C464 1.391 1_545 S
C463 C468 1.391 . S
C463 H493 0.948 . S
C464 C463 1.391 1_565 S
C464 C465 1.391 . S
C465 C464 1.391 . S
C465 C466 1.392 . S
C465 H494 0.947 . S
C466 C465 1.392 . S
C466 C467 1.419 . S
C466 H495 0.948 . S
C467 C466 1.419 . S
C467 C468 1.391 1_565 S
C467 C471 1.397 . S
C468 C463 1.391 . S
C468 C467 1.391 1_545 S
C468 C469 1.399 . S
C469 C468 1.399 . S
C469 C470 1.396 . S
C469 C472 1.453 . S
C469 C473 1.684 . S
C470 C451 1.723 . S
C470 C469 1.396 . S
C470 C471 1.394 1_545 S
C471 C467 1.397 . S
C471 C470 1.394 1_565 S
C471 C481 1.723 . S
C472 C469 1.453 . S
C472 H496 0.982 . S
C472 H497 0.979 . S
C472 H498 0.977 . S
C473 C469 1.684 . S
C473 H499 0.979 . S
C473 H500 0.980 . S
C473 H501 0.983 . S
C474 H450 0.948 . S
C474 C475 1.391 . S
C474 C479 1.391 . S
C475 C474 1.391 . S
C475 C476 1.391 . S
C476 H453 0.947 . S
C476 C475 1.391 . S
C476 C477 1.392 . S
C477 H454 0.948 . S
C477 C476 1.392 . S
C477 C478 1.419 . S
C478 C477 1.419 . S
C478 C479 1.391 . S
C478 C482 1.397 . S
C479 C474 1.391 . S
C479 C478 1.391 . S
C479 C480 1.399 . S
C480 C479 1.399 . S
C480 C481 1.396 . S
C480 C483 1.453 . S
C480 C484 1.684 . S
C481 C471 1.723 . S
C481 C480 1.396 . S
C481 C482 1.394 . S
C482 C452 1.723 1_565 S
C482 C478 1.397 . S
C482 C481 1.394 . S
C483 H455 0.982 . S
C483 H459 0.979 . S
C483 H460 0.977 . S
C483 C480 1.453 . S
C484 H456 0.979 . S
C484 H457 0.980 . S
C484 H458 0.983 . S
C484 C480 1.684 . S
H485 C503 0.948 . S
H486 C444 0.948 . S
H487 C462 0.979 . S
H488 C462 0.980 1_565 S
H489 C462 0.983 . S
H490 C461 0.982 . S
H491 C461 0.979 . S
H492 C461 0.977 1_565 S
H493 C463 0.948 . S
H494 C465 0.947 . S
H495 C466 0.948 . S
H496 C472 0.982 . S
H497 C472 0.979 . S
H498 C472 0.977 . S
H499 C473 0.979 . S
H500 C473 0.980 . S
H501 C473 0.983 . S
H502 C446 0.947 . S
C503 C446 1.392 . S
C503 C447 1.419 . S
C503 H485 0.948 . S
C504 C505 1.391 . S
C504 C508 1.391 . S
C504 H546 0.948 . S
C505 C504 1.391 . S
C505 C506 1.391 . S
C506 C505 1.391 . S
C506 H562 0.947 . S
C506 C563 1.392 . S
C507 C508 1.391 . S
C507 C511 1.397 . S
C507 C563 1.419 . S
C508 C504 1.391 . S
C508 C507 1.391 . S
C508 C509 1.399 . S
C509 C508 1.399 . S
C509 C512 1.396 . S
C509 C521 1.453 . S
C509 C522 1.684 . S
H510 C534 0.948 . S
C511 C507 1.397 . S
C511 C512 1.394 . S
C511 C530 1.723 . S
C512 C509 1.396 . S
C512 C511 1.394 . S
C512 C542 1.723 . S
H513 C536 0.947 . S
H514 C537 0.948 . S
H515 C543 0.982 . S
H516 C544 0.979 . S
H517 C544 0.980 . S
H518 C544 0.983 . S
H519 C543 0.979 . S
H520 C543 0.977 . S
C521 C509 1.453 . S
C521 H550 0.982 . S
C521 H551 0.979 . S
C521 H552 0.977 . S
C522 C509 1.684 . S
C522 H547 0.979 . S
C522 H548 0.980 . S
C522 H549 0.983 . S
C523 C524 1.391 . S
C523 C528 1.391 . S
C523 H553 0.948 . S
C524 C523 1.391 . S
C524 C525 1.391 . S
C525 C524 1.391 . S
C525 C526 1.392 . S
C525 H554 0.947 . S
C526 C525 1.392 . S
C526 C527 1.419 . S
C526 H555 0.948 . S
C527 C526 1.419 . S
C527 C528 1.391 . S
C527 C531 1.397 . S
C528 C523 1.391 . S
C528 C527 1.391 . S
C528 C529 1.399 . S
C529 C528 1.399 . S
C529 C530 1.396 . S
C529 C532 1.453 . S
C529 C533 1.684 . S
C530 C511 1.723 . S
C530 C529 1.396 . S
C530 C531 1.394 . S
C531 C527 1.397 . S
C531 C530 1.394 . S
C531 C541 1.723 . S
C532 C529 1.453 . S
C532 H556 0.982 . S
C532 H557 0.979 . S
C532 H558 0.977 . S
C533 C529 1.684 . S
C533 H559 0.979 . S
C533 H560 0.980 . S
C533 H561 0.983 . S
C534 H510 0.948 . S
C534 C535 1.391 . S
C534 C539 1.391 . S
C535 C534 1.391 . S
C535 C536 1.391 . S
C536 H513 0.947 . S
C536 C535 1.391 . S
C536 C537 1.392 . S
C537 H514 0.948 . S
C537 C536 1.392 . S
C537 C538 1.419 . S
C538 C537 1.419 . S
C538 C539 1.391 . S
C538 C542 1.397 . S
C539 C534 1.391 . S
C539 C538 1.391 . S
C539 C540 1.399 . S
C540 C539 1.399 . S
C540 C541 1.396 . S
C540 C543 1.453 . S
C540 C544 1.684 . S
C541 C531 1.723 . S
C541 C540 1.396 . S
C541 C542 1.394 . S
C542 C512 1.723 . S
C542 C538 1.397 . S
C542 C541 1.394 . S
C543 H515 0.982 . S
C543 H519 0.979 . S
C543 H520 0.977 . S
C543 C540 1.453 . S
C544 H516 0.979 . S
C544 H517 0.980 . S
C544 H518 0.983 . S
C544 C540 1.684 . S
H545 C563 0.948 . S
H546 C504 0.948 . S
H547 C522 0.979 . S
H548 C522 0.980 . S
H549 C522 0.983 . S
H550 C521 0.982 . S
H551 C521 0.979 . S
H552 C521 0.977 . S
H553 C523 0.948 . S
H554 C525 0.947 . S
H555 C526 0.948 . S
H556 C532 0.982 . S
H557 C532 0.979 . S
H558 C532 0.977 . S
H559 C533 0.979 . S
H560 C533 0.980 . S
H561 C533 0.983 . S
H562 C506 0.947 . S
C563 C506 1.392 . S
C563 C507 1.419 . S
C563 H545 0.948 . S
C564 C565 1.391 1_556 S
C564 C568 1.391 . S
C564 H606 0.948 . S
C565 C564 1.391 1_554 S
C565 C566 1.391 . S
C566 C565 1.391 . S
C566 H622 0.947 . S
C566 C623 1.392 . S
C567 C568 1.391 1_554 S
C567 C571 1.397 . S
C567 C623 1.419 . S
C568 C564 1.391 . S
C568 C567 1.391 1_556 S
C568 C569 1.399 . S
C569 C568 1.399 . S
C569 C572 1.396 . S
C569 C581 1.453 . S
C569 C582 1.684 . S
H570 C594 0.948 . S
C571 C567 1.397 . S
C571 C572 1.394 1_554 S
C571 C590 1.723 . S
C572 C569 1.396 . S
C572 C571 1.394 1_556 S
C572 C602 1.723 . S
H573 C596 0.947 . S
H574 C597 0.948 . S
H575 C603 0.982 . S
H576 C604 0.979 . S
H577 C604 0.980 1_554 S
H578 C604 0.983 . S
H579 C603 0.979 . S
H580 C603 0.925 1_554 S
C581 C569 1.453 . S
C581 H610 0.982 . S
C581 H611 0.979 . S
C581 H612 0.977 . S
C582 C569 1.684 . S
C582 H607 0.979 . S
C582 H608 0.980 . S
C582 H609 0.983 . S
C583 C584 1.391 . S
C583 C588 1.391 . S
C583 H613 0.948 . S
C584 C583 1.391 . S
C584 C585 1.391 . S
C585 C584 1.391 . S
C585 C586 1.392 . S
C585 H614 0.947 . S
C586 C585 1.392 . S
C586 C587 1.419 . S
C586 H615 0.948 . S
C587 C586 1.419 . S
C587 C588 1.391 . S
C587 C591 1.397 . S
C588 C583 1.391 . S
C588 C587 1.391 . S
C588 C589 1.399 . S
C589 C588 1.399 . S
C589 C590 1.396 . S
C589 C592 1.453 . S
C589 C593 1.684 . S
C590 C571 1.723 . S
C590 C589 1.396 . S
C590 C591 1.394 . S
C591 C587 1.397 . S
C591 C590 1.394 . S
C591 C601 1.723 1_554 S
C592 C589 1.453 . S
C592 H616 0.982 . S
C592 H617 0.979 . S
C592 H618 0.977 . S
C593 C589 1.684 . S
C593 H619 0.979 . S
C593 H620 0.980 . S
C593 H621 0.983 . S
C594 H570 0.948 . S
C594 C595 1.391 . S
C594 C599 1.391 . S
C595 C594 1.391 . S
C595 C596 1.391 . S
C596 H573 0.947 . S
C596 C595 1.391 . S
C596 C597 1.392 . S
C597 H574 0.948 . S
C597 C596 1.392 . S
C597 C598 1.419 . S
C598 C597 1.419 . S
C598 C599 1.391 . S
C598 C602 1.397 . S
C599 C594 1.391 . S
C599 C598 1.391 . S
C599 C600 1.399 . S
C600 C599 1.399 . S
C600 C601 1.396 . S
C600 C603 1.453 . S
C600 C604 1.684 . S
C601 C591 1.723 1_556 S
C601 C600 1.396 . S
C601 C602 1.394 . S
C602 C572 1.723 . S
C602 C598 1.397 . S
C602 C601 1.394 . S
C603 H575 0.982 . S
C603 H579 0.979 . S
C603 H580 0.925 1_556 S
C603 C600 1.453 . S
C604 H576 0.979 . S
C604 H577 0.980 1_556 S
C604 H578 0.983 . S
C604 C600 1.684 . S
H605 C623 0.948 . S
H606 C564 0.948 . S
H607 C582 0.979 . S
H608 C582 0.980 . S
H609 C582 0.983 . S
H610 C581 0.982 . S
H611 C581 0.979 . S
H612 C581 0.977 . S
H613 C583 0.948 . S
H614 C585 0.947 . S
H615 C586 0.948 . S
H616 C592 0.982 . S
H617 C592 0.979 . S
H618 C592 0.977 . S
H619 C593 0.979 . S
H620 C593 0.980 . S
H621 C593 0.983 . S
H622 C566 0.947 . S
C623 C566 1.392 . S
C623 C567 1.419 . S
C623 H605 0.948 . S
C624 C625 1.391 . S
C624 C628 1.391 . S
C624 H666 0.948 . S
C625 C624 1.391 . S
C625 C626 1.391 . S
C626 C625 1.391 . S
C626 H682 0.947 . S
C626 C683 1.392 . S
C627 C628 1.391 . S
C627 C631 1.397 . S
C627 C683 1.419 . S
C628 C624 1.391 . S
C628 C627 1.391 . S
C628 C629 1.399 . S
C629 C628 1.399 . S
C629 C632 1.396 . S
C629 C641 1.453 . S
C629 C642 1.684 . S
H630 C654 0.948 . S
C631 C627 1.397 . S
C631 C632 1.394 . S
C631 C650 1.723 . S
C632 C629 1.396 . S
C632 C631 1.394 . S
C632 C662 1.723 . S
H633 C656 0.947 . S
H634 C657 0.948 . S
H635 C663 0.982 . S
H636 C664 0.979 . S
H637 C664 0.980 . S
H638 C664 0.983 . S
H639 C663 0.979 . S
H640 C663 0.977 . S
C641 C629 1.453 . S
C641 H670 0.982 . S
C641 H671 0.979 . S
C641 H672 0.977 . S
C642 C629 1.684 . S
C642 H667 0.979 . S
C642 H668 0.980 . S
C642 H669 0.983 . S
C643 C644 1.391 . S
C643 C648 1.391 . S
C643 H673 0.948 . S
C644 C643 1.391 . S
C644 C645 1.391 . S
C645 C644 1.391 . S
C645 C646 1.392 . S
C645 H674 0.947 . S
C646 C645 1.392 . S
C646 C647 1.419 . S
C646 H675 0.948 . S
C647 C646 1.419 . S
C647 C648 1.391 . S
C647 C651 1.397 . S
C648 C643 1.391 . S
C648 C647 1.391 . S
C648 C649 1.399 . S
C649 C648 1.399 . S
C649 C650 1.396 . S
C649 C652 1.453 . S
C649 C653 1.684 . S
C650 C631 1.723 . S
C650 C649 1.396 . S
C650 C651 1.394 . S
C651 C647 1.397 . S
C651 C650 1.394 . S
C651 C661 1.723 . S
C652 C649 1.453 . S
C652 H676 0.982 . S
C652 H677 0.979 . S
C652 H678 0.977 . S
C653 C649 1.684 . S
C653 H679 0.979 . S
C653 H680 0.980 . S
C653 H681 0.983 . S
C654 H630 0.948 . S
C654 C655 1.391 . S
C654 C659 1.391 . S
C655 C654 1.391 . S
C655 C656 1.391 . S
C656 H633 0.947 . S
C656 C655 1.391 . S
C656 C657 1.392 . S
C657 H634 0.948 . S
C657 C656 1.392 . S
C657 C658 1.419 . S
C658 C657 1.419 . S
C658 C659 1.391 . S
C658 C662 1.397 . S
C659 C654 1.391 . S
C659 C658 1.391 . S
C659 C660 1.399 . S
C660 C659 1.399 . S
C660 C661 1.396 . S
C660 C663 1.453 . S
C660 C664 1.684 . S
C661 C651 1.723 . S
C661 C660 1.396 . S
C661 C662 1.394 . S
C662 C632 1.723 . S
C662 C658 1.397 . S
C662 C661 1.394 . S
C663 H635 0.982 . S
C663 H639 0.979 . S
C663 H640 0.977 . S
C663 C660 1.453 . S
C664 H636 0.979 . S
C664 H637 0.980 . S
C664 H638 0.983 . S
C664 C660 1.684 . S
H665 C683 0.948 . S
H666 C624 0.948 . S
H667 C642 0.979 . S
H668 C642 0.980 . S
H669 C642 0.983 . S
H670 C641 0.982 . S
H671 C641 0.979 . S
H672 C641 0.977 . S
H673 C643 0.948 . S
H674 C645 0.947 . S
H675 C646 0.948 . S
H676 C652 0.982 . S
H677 C652 0.979 . S
H678 C652 0.977 . S
H679 C653 0.979 . S
H680 C653 0.980 . S
H681 C653 0.983 . S
H682 C626 0.947 . S
C683 C626 1.392 . S
C683 C627 1.419 . S
C683 H665 0.948 . S
C684 C685 1.391 . S
C684 C688 1.391 . S
C684 H726 0.948 . S
C685 C684 1.391 . S
C685 C686 1.391 1_554 S
C686 C685 1.391 1_556 S
C686 H742 0.947 . S
C686 C743 1.392 . S
C687 C688 1.391 1_556 S
C687 C691 1.397 . S
C687 C743 1.419 . S
C688 C684 1.391 . S
C688 C687 1.391 1_554 S
C688 C689 1.399 . S
C689 C688 1.399 . S
C689 C692 1.396 . S
C689 C701 1.453 . S
C689 C702 1.684 . S
H690 C714 0.948 . S
C691 C687 1.397 . S
C691 C692 1.394 1_556 S
C691 C710 1.723 . S
C692 C689 1.396 . S
C692 C691 1.394 1_554 S
C692 C722 1.723 . S
H693 C716 0.947 . S
H694 C717 0.948 . S
H695 C723 0.982 . S
H696 C724 0.979 . S
H697 C724 0.980 1_556 S
H698 C724 0.983 . S
H699 C723 0.979 . S
H700 C723 0.977 1_556 S
C701 C689 1.453 . S
C701 H730 0.982 . S
C701 H731 0.979 . S
C701 H732 0.977 . S
C702 C689 1.684 . S
C702 H727 0.979 . S
C702 H728 0.980 . S
C702 H729 0.983 . S
C703 C704 1.391 . S
C703 C708 1.391 . S
C703 H733 0.948 . S
C704 C703 1.391 . S
C704 C705 1.391 . S
C705 C704 1.391 . S
C705 C706 1.392 . S
C705 H734 0.947 . S
C706 C705 1.392 . S
C706 C707 1.419 . S
C706 H735 0.948 . S
C707 C706 1.419 . S
C707 C708 1.391 . S
C707 C711 1.397 . S
C708 C703 1.391 . S
C708 C707 1.391 . S
C708 C709 1.399 . S
C709 C708 1.399 . S
C709 C710 1.396 . S
C709 C712 1.453 . S
C709 C713 1.684 . S
C710 C691 1.723 . S
C710 C709 1.396 . S
C710 C711 1.394 . S
C711 C707 1.397 . S
C711 C710 1.394 . S
C711 C721 1.723 1_556 S
C712 C709 1.453 . S
C712 H736 0.982 . S
C712 H737 0.979 . S
C712 H738 0.977 . S
C713 C709 1.684 . S
C713 H739 0.979 . S
C713 H740 0.980 . S
C713 H741 0.983 . S
C714 H690 0.948 . S
C714 C715 1.391 . S
C714 C719 1.391 . S
C715 C714 1.391 . S
C715 C716 1.391 . S
C716 H693 0.947 . S
C716 C715 1.391 . S
C716 C717 1.392 . S
C717 H694 0.948 . S
C717 C716 1.392 . S
C717 C718 1.419 . S
C718 C717 1.419 . S
C718 C719 1.391 . S
C718 C722 1.397 . S
C719 C714 1.391 . S
C719 C718 1.391 . S
C719 C720 1.399 . S
C720 C719 1.399 . S
C720 C721 1.396 . S
C720 C723 1.453 . S
C720 C724 1.684 . S
C721 C711 1.723 1_554 S
C721 C720 1.396 . S
C721 C722 1.394 . S
C722 C692 1.723 . S
C722 C718 1.397 . S
C722 C721 1.394 . S
C723 H695 0.982 . S
C723 H699 0.979 . S
C723 H700 0.977 1_554 S
C723 C720 1.453 . S
C724 H696 0.979 . S
C724 H697 0.980 1_554 S
C724 H698 0.983 . S
C724 C720 1.684 . S
H725 C743 0.948 . S
H726 C684 0.948 . S
H727 C702 0.979 . S
H728 C702 0.980 . S
H729 C702 0.983 . S
H730 C701 0.982 . S
H731 C701 0.979 . S
H732 C701 0.977 . S
H733 C703 0.948 . S
H734 C705 0.947 . S
H735 C706 0.948 . S
H736 C712 0.982 . S
H737 C712 0.979 . S
H738 C712 0.977 . S
H739 C713 0.979 . S
H740 C713 0.980 . S
H741 C713 0.983 . S
H742 C686 0.947 . S
C743 C686 1.392 . S
C743 C687 1.419 . S
C743 H725 0.948 . S
C744 C745 1.391 . S
C744 C748 1.391 . S
C744 H786 0.948 . S
C745 C744 1.391 . S
C745 C746 1.391 . S
C746 C745 1.391 . S
C746 H802 0.947 . S
C746 C803 1.392 . S
C747 C748 1.391 . S
C747 C751 1.397 . S
C747 C803 1.419 . S
C748 C744 1.391 . S
C748 C747 1.391 . S
C748 C749 1.399 . S
C749 C748 1.399 . S
C749 C752 1.396 . S
C749 C761 1.453 . S
C749 C762 1.684 . S
H750 C774 0.948 . S
C751 C747 1.397 . S
C751 C752 1.394 . S
C751 C770 1.723 . S
C752 C749 1.396 . S
C752 C751 1.394 . S
C752 C782 1.723 . S
H753 C776 0.947 . S
H754 C777 0.948 . S
H755 C783 0.982 . S
H756 C784 0.979 . S
H757 C784 0.980 . S
H758 C784 0.983 . S
H759 C783 0.979 . S
H760 C783 0.977 . S
C761 C749 1.453 . S
C761 H790 0.982 . S
C761 H791 0.979 . S
C761 H792 0.977 . S
C762 C749 1.684 . S
C762 H787 0.979 . S
C762 H788 0.980 . S
C762 H789 0.983 . S
C763 C764 1.391 . S
C763 C768 1.391 . S
C763 H793 0.948 . S
C764 C763 1.391 . S
C764 C765 1.391 . S
C765 C764 1.391 . S
C765 C766 1.392 . S
C765 H794 0.947 . S
C766 C765 1.392 . S
C766 C767 1.419 . S
C766 H795 0.948 . S
C767 C766 1.419 . S
C767 C768 1.391 . S
C767 C771 1.397 . S
C768 C763 1.391 . S
C768 C767 1.391 . S
C768 C769 1.399 . S
C769 C768 1.399 . S
C769 C770 1.396 . S
C769 C772 1.453 . S
C769 C773 1.684 . S
C770 C751 1.723 . S
C770 C769 1.396 . S
C770 C771 1.394 . S
C771 C767 1.397 . S
C771 C770 1.394 . S
C771 C781 1.723 . S
C772 C769 1.453 . S
C772 H796 0.982 . S
C772 H797 0.979 . S
C772 H798 0.977 . S
C773 C769 1.684 . S
C773 H799 0.979 . S
C773 H800 0.980 . S
C773 H801 0.983 . S
C774 H750 0.948 . S
C774 C775 1.391 . S
C774 C779 1.391 . S
C775 C774 1.391 . S
C775 C776 1.391 . S
C776 H753 0.947 . S
C776 C775 1.391 . S
C776 C777 1.392 . S
C777 H754 0.948 . S
C777 C776 1.392 . S
C777 C778 1.419 . S
C778 C777 1.419 . S
C778 C779 1.391 . S
C778 C782 1.397 . S
C779 C774 1.391 . S
C779 C778 1.391 . S
C779 C780 1.399 . S
C780 C779 1.399 . S
C780 C781 1.396 . S
C780 C783 1.453 . S
C780 C784 1.684 . S
C781 C771 1.723 . S
C781 C780 1.396 . S
C781 C782 1.394 . S
C782 C752 1.723 . S
C782 C778 1.397 . S
C782 C781 1.394 . S
C783 H755 0.982 . S
C783 H759 0.979 . S
C783 H760 0.977 . S
C783 C780 1.453 . S
C784 H756 0.979 . S
C784 H757 0.980 . S
C784 H758 0.983 . S
C784 C780 1.684 . S
H785 C803 0.948 . S
H786 C744 0.948 . S
H787 C762 0.979 . S
H788 C762 0.980 . S
H789 C762 0.983 . S
H790 C761 0.982 . S
H791 C761 0.979 . S
H792 C761 0.977 . S
H793 C763 0.948 . S
H794 C765 0.947 . S
H795 C766 0.948 . S
H796 C772 0.982 . S
H797 C772 0.979 . S
H798 C772 0.977 . S
H799 C773 0.979 . S
H800 C773 0.980 . S
H801 C773 0.983 . S
H802 C746 0.947 . S
C803 C746 1.392 . S
C803 C747 1.419 . S
C803 H785 0.948 . S
C804 C805 1.391 . S
C804 C808 1.391 . S
C804 H846 0.948 . S
C805 C804 1.391 . S
C805 C806 1.391 . S
C806 C805 1.391 . S
C806 H862 0.947 . S
C806 C863 1.392 . S
C807 C808 1.391 . S
C807 C811 1.397 . S
C807 C863 1.419 . S
C808 C804 1.391 . S
C808 C807 1.391 . S
C808 C809 1.399 . S
C809 C808 1.399 . S
C809 C812 1.396 . S
C809 C821 1.453 . S
C809 C822 1.684 . S
H810 C834 0.948 . S
C811 C807 1.397 . S
C811 C812 1.394 . S
C811 C830 1.723 . S
C812 C809 1.396 . S
C812 C811 1.394 . S
C812 C842 1.723 1_455 S
H813 C836 0.947 . S
H814 C837 0.948 . S
H815 C843 0.982 . S
H816 C844 0.979 . S
H817 C844 0.980 . S
H818 C844 0.983 . S
H819 C843 0.979 . S
H820 C843 0.977 . S
C821 C809 1.453 . S
C821 H850 0.982 . S
C821 H851 0.979 . S
C821 H852 0.977 1_455 S
C822 C809 1.684 . S
C822 H847 0.979 . S
C822 H848 0.980 1_455 S
C822 H849 0.983 . S
C823 C824 1.391 1_455 S
C823 C828 1.391 . S
C823 H853 0.948 . S
C824 C823 1.391 1_655 S
C824 C825 1.391 . S
C825 C824 1.391 . S
C825 C826 1.392 . S
C825 H854 0.947 . S
C826 C825 1.392 . S
C826 C827 1.419 . S
C826 H855 0.948 . S
C827 C826 1.419 . S
C827 C828 1.391 1_655 S
C827 C831 1.397 . S
C828 C823 1.391 . S
C828 C827 1.391 1_455 S
C828 C829 1.399 . S
C829 C828 1.399 . S
C829 C830 1.396 . S
C829 C832 1.453 . S
C829 C833 1.684 . S
C830 C811 1.723 . S
C830 C829 1.396 . S
C830 C831 1.394 1_455 S
C831 C827 1.397 . S
C831 C830 1.394 1_655 S
C831 C841 1.723 . S
C832 C829 1.453 . S
C832 H856 0.982 . S
C832 H857 0.979 . S
C832 H858 0.977 . S
C833 C829 1.684 . S
C833 H859 0.979 . S
C833 H860 0.980 . S
C833 H861 0.983 . S
C834 H810 0.948 . S
C834 C835 1.391 . S
C834 C839 1.391 . S
C835 C834 1.391 . S
C835 C836 1.391 . S
C836 H813 0.947 . S
C836 C835 1.391 . S
C836 C837 1.392 . S
C837 H814 0.948 . S
C837 C836 1.392 . S
C837 C838 1.419 . S
C838 C837 1.419 . S
C838 C839 1.391 . S
C838 C842 1.397 . S
C839 C834 1.391 . S
C839 C838 1.391 . S
C839 C840 1.399 . S
C840 C839 1.399 . S
C840 C841 1.396 . S
C840 C843 1.453 . S
C840 C844 1.684 . S
C841 C831 1.723 . S
C841 C840 1.396 . S
C841 C842 1.394 . S
C842 C812 1.723 1_655 S
C842 C838 1.397 . S
C842 C841 1.394 . S
C843 H815 0.982 . S
C843 H819 0.979 . S
C843 H820 0.977 . S
C843 C840 1.453 . S
C844 H816 0.979 . S
C844 H817 0.980 . S
C844 H818 0.983 . S
C844 C840 1.684 . S
H845 C863 0.948 . S
H846 C804 0.948 . S
H847 C822 0.979 . S
H848 C822 0.980 1_655 S
H849 C822 0.983 . S
H850 C821 0.982 . S
H851 C821 0.979 . S
H852 C821 0.977 1_655 S
H853 C823 0.948 . S
H854 C825 0.947 . S
H855 C826 0.948 . S
H856 C832 0.982 . S
H857 C832 0.979 . S
H858 C832 0.977 . S
H859 C833 0.979 . S
H860 C833 0.980 . S
H861 C833 0.983 . S
H862 C806 0.947 . S
C863 C806 1.392 . S
C863 C807 1.419 . S
C863 H845 0.948 . S
C864 C865 1.391 . S
C864 C868 1.391 . S
C864 H906 0.948 . S
C865 C864 1.391 . S
C865 C866 1.391 . S
C866 C865 1.391 . S
C866 H922 0.947 . S
C866 C923 1.392 . S
C867 C868 1.391 . S
C867 C871 1.397 . S
C867 C923 1.419 . S
C868 C864 1.391 . S
C868 C867 1.391 . S
C868 C869 1.399 . S
C869 C868 1.399 . S
C869 C872 1.396 . S
C869 C881 1.453 . S
C869 C882 1.684 . S
H870 C894 0.948 . S
C871 C867 1.397 . S
C871 C872 1.394 . S
C871 C890 1.723 . S
C872 C869 1.396 . S
C872 C871 1.394 . S
C872 C902 1.723 . S
H873 C896 0.947 . S
H874 C897 0.948 . S
H875 C903 0.982 . S
H876 C904 0.979 . S
H877 C904 0.980 . S
H878 C904 0.983 . S
H879 C903 0.979 . S
H880 C903 0.977 . S
C881 C869 1.453 . S
C881 H910 0.982 . S
C881 H911 0.979 . S
C881 H912 0.977 . S
C882 C869 1.684 . S
C882 H907 0.979 . S
C882 H908 0.980 . S
C882 H909 0.983 . S
C883 C884 1.391 . S
C883 C888 1.391 . S
C883 H913 0.948 . S
C884 C883 1.391 . S
C884 C885 1.391 . S
C885 C884 1.391 . S
C885 C886 1.392 . S
C885 H914 0.947 . S
C886 C885 1.392 . S
C886 C887 1.419 . S
C886 H915 0.948 . S
C887 C886 1.419 . S
C887 C888 1.391 . S
C887 C891 1.397 . S
C888 C883 1.391 . S
C888 C887 1.391 . S
C888 C889 1.399 . S
C889 C888 1.399 . S
C889 C890 1.396 . S
C889 C892 1.453 . S
C889 C893 1.684 . S
C890 C871 1.723 . S
C890 C889 1.396 . S
C890 C891 1.394 . S
C891 C887 1.397 . S
C891 C890 1.394 . S
C891 C901 1.723 . S
C892 C889 1.453 . S
C892 H916 0.982 . S
C892 H917 0.979 . S
C892 H918 0.977 . S
C893 C889 1.684 . S
C893 H919 0.979 . S
C893 H920 0.980 . S
C893 H921 0.983 . S
C894 H870 0.948 . S
C894 C895 1.391 . S
C894 C899 1.391 . S
C895 C894 1.391 . S
C895 C896 1.391 . S
C896 H873 0.947 . S
C896 C895 1.391 . S
C896 C897 1.392 . S
C897 H874 0.948 . S
C897 C896 1.392 . S
C897 C898 1.419 . S
C898 C897 1.419 . S
C898 C899 1.391 . S
C898 C902 1.397 . S
C899 C894 1.391 . S
C899 C898 1.391 . S
C899 C900 1.399 . S
C900 C899 1.399 . S
C900 C901 1.396 . S
C900 C903 1.453 . S
C900 C904 1.684 . S
C901 C891 1.723 . S
C901 C900 1.396 . S
C901 C902 1.394 . S
C902 C872 1.723 . S
C902 C898 1.397 . S
C902 C901 1.394 . S
C903 H875 0.982 . S
C903 H879 0.979 . S
C903 H880 0.977 . S
C903 C900 1.453 . S
C904 H876 0.979 . S
C904 H877 0.980 . S
C904 H878 0.983 . S
C904 C900 1.684 . S
H905 C923 0.948 . S
H906 C864 0.948 . S
H907 C882 0.979 . S
H908 C882 0.980 . S
H909 C882 0.983 . S
H910 C881 0.982 . S
H911 C881 0.979 . S
H912 C881 0.977 . S
H913 C883 0.948 . S
H914 C885 0.947 . S
H915 C886 0.948 . S
H916 C892 0.982 . S
H917 C892 0.979 . S
H918 C892 0.977 . S
H919 C893 0.979 . S
H920 C893 0.980 . S
H921 C893 0.983 . S
H922 C866 0.947 . S
C923 C866 1.392 . S
C923 C867 1.419 . S
C923 H905 0.948 . S
C924 C925 1.391 . S
C924 C928 1.391 . S
C924 H966 0.948 . S
C925 C924 1.391 . S
C925 C926 1.391 . S
C926 C925 1.391 . S
C926 H982 0.947 . S
C926 C983 1.392 . S
C927 C928 1.391 . S
C927 C931 1.397 . S
C927 C983 1.419 . S
C928 C924 1.391 . S
C928 C927 1.391 . S
C928 C929 1.399 . S
C929 C928 1.399 . S
C929 C932 1.396 . S
C929 C941 1.453 . S
C929 C942 1.684 . S
H930 C954 0.948 . S
C931 C927 1.397 . S
C931 C932 1.394 . S
C931 C950 1.723 . S
C932 C929 1.396 . S
C932 C931 1.394 . S
C932 C962 1.723 1_455 S
H933 C956 0.947 . S
H934 C957 0.948 . S
H935 C963 0.982 . S
H936 C964 0.979 . S
H937 C964 0.980 . S
H938 C964 0.983 . S
H939 C963 0.979 . S
H940 C963 0.977 . S
C941 C929 1.453 . S
C941 H970 0.982 . S
C941 H971 0.979 . S
C941 H972 0.977 1_455 S
C942 C929 1.684 . S
C942 H967 0.979 . S
C942 H968 0.980 1_455 S
C942 H969 0.983 . S
C943 C944 1.391 . S
C943 C948 1.391 . S
C943 H973 0.948 . S
C944 C943 1.391 . S
C944 C945 1.391 1_455 S
C945 C944 1.391 1_655 S
C945 C946 1.392 . S
C945 H974 0.947 . S
C946 C945 1.392 . S
C946 C947 1.419 . S
C946 H975 0.948 . S
C947 C946 1.419 . S
C947 C948 1.391 1_655 S
C947 C951 1.397 . S
C948 C943 1.391 . S
C948 C947 1.391 1_455 S
C948 C949 1.399 . S
C949 C948 1.399 . S
C949 C950 1.396 . S
C949 C952 1.453 . S
C949 C953 1.684 . S
C950 C931 1.723 . S
C950 C949 1.396 . S
C950 C951 1.394 1_455 S
C951 C947 1.397 . S
C951 C950 1.394 1_655 S
C951 C961 1.723 . S
C952 C949 1.453 . S
C952 H976 0.982 . S
C952 H977 0.979 . S
C952 H978 0.977 . S
C953 C949 1.684 . S
C953 H979 0.979 . S
C953 H980 0.980 . S
C953 H981 0.983 . S
C954 H930 0.948 . S
C954 C955 1.391 . S
C954 C959 1.391 . S
C955 C954 1.391 . S
C955 C956 1.391 . S
C956 H933 0.947 . S
C956 C955 1.391 . S
C956 C957 1.392 . S
C957 H934 0.948 . S
C957 C956 1.392 . S
C957 C958 1.419 . S
C958 C957 1.419 . S
C958 C959 1.391 . S
C958 C962 1.397 . S
C959 C954 1.391 . S
C959 C958 1.391 . S
C959 C960 1.399 . S
C960 C959 1.399 . S
C960 C961 1.396 . S
C960 C963 1.453 . S
C960 C964 1.684 . S
C961 C951 1.723 . S
C961 C960 1.396 . S
C961 C962 1.394 . S
C962 C932 1.723 1_655 S
C962 C958 1.397 . S
C962 C961 1.394 . S
C963 H935 0.982 . S
C963 H939 0.979 . S
C963 H940 0.977 . S
C963 C960 1.453 . S
C964 H936 0.979 . S
C964 H937 0.980 . S
C964 H938 0.983 . S
C964 C960 1.684 . S
H965 C983 0.948 . S
H966 C924 0.948 . S
H967 C942 0.979 . S
H968 C942 0.980 1_655 S
H969 C942 0.983 . S
H970 C941 0.982 . S
H971 C941 0.979 . S
H972 C941 0.977 1_655 S
H973 C943 0.948 . S
H974 C945 0.947 . S
H975 C946 0.948 . S
H976 C952 0.982 . S
H977 C952 0.979 . S
H978 C952 0.977 . S
H979 C953 0.979 . S
H980 C953 0.980 . S
H981 C953 0.983 . S
H982 C926 0.947 . S
C983 C926 1.392 . S
C983 C927 1.419 . S
C983 H965 0.948 . S
C984 C985 1.391 . S
C984 C988 1.391 . S
C984 H1026 0.948 . S
C985 C984 1.391 . S
C985 C986 1.391 . S
C986 C985 1.391 . S
C986 H1042 0.947 . S
C986 C1043 1.392 . S
C987 C988 1.391 . S
C987 C991 1.397 . S
C987 C1043 1.419 . S
C988 C984 1.391 . S
C988 C987 1.391 . S
C988 C989 1.399 . S
C989 C988 1.399 . S
C989 C992 1.396 . S
C989 C1001 1.453 . S
C989 C1002 1.684 . S
H990 C1014 0.948 . S
C991 C987 1.397 . S
C991 C992 1.394 . S
C991 C1010 1.723 . S
C992 C989 1.396 . S
C992 C991 1.394 . S
C992 C1022 1.723 . S
H993 C1016 0.947 . S
H994 C1017 0.948 . S
H995 C1023 0.982 . S
H996 C1024 0.979 . S
H997 C1024 0.980 . S
H998 C1024 0.983 . S
H999 C1023 0.979 . S
H1000 C1023 0.977 . S
C1001 C989 1.453 . S
C1001 H1030 0.982 . S
C1001 H1031 0.979 . S
C1001 H1032 0.977 . S
C1002 C989 1.684 . S
C1002 H1027 0.979 . S
C1002 H1028 0.980 . S
C1002 H1029 0.983 . S
C1003 C1004 1.391 . S
C1003 C1008 1.391 . S
C1003 H1033 0.948 . S
C1004 C1003 1.391 . S
C1004 C1005 1.391 . S
C1005 C1004 1.391 . S
C1005 C1006 1.392 . S
C1005 H1034 0.947 . S
C1006 C1005 1.392 . S
C1006 C1007 1.419 . S
C1006 H1035 0.948 . S
C1007 C1006 1.419 . S
C1007 C1008 1.391 . S
C1007 C1011 1.397 . S
C1008 C1003 1.391 . S
C1008 C1007 1.391 . S
C1008 C1009 1.399 . S
C1009 C1008 1.399 . S
C1009 C1010 1.396 . S
C1009 C1012 1.453 . S
C1009 C1013 1.684 . S
C1010 C991 1.723 . S
C1010 C1009 1.396 . S
C1010 C1011 1.394 . S
C1011 C1007 1.397 . S
C1011 C1010 1.394 . S
C1011 C1021 1.723 . S
C1012 C1009 1.453 . S
C1012 H1036 0.982 . S
C1012 H1037 0.979 . S
C1012 H1038 0.977 . S
C1013 C1009 1.684 . S
C1013 H1039 0.979 . S
C1013 H1040 0.980 . S
C1013 H1041 0.983 . S
C1014 H990 0.948 . S
C1014 C1015 1.391 . S
C1014 C1019 1.391 . S
C1015 C1014 1.391 . S
C1015 C1016 1.391 . S
C1016 H993 0.947 . S
C1016 C1015 1.391 . S
C1016 C1017 1.392 . S
C1017 H994 0.948 . S
C1017 C1016 1.392 . S
C1017 C1018 1.419 . S
C1018 C1017 1.419 . S
C1018 C1019 1.391 . S
C1018 C1022 1.397 . S
C1019 C1014 1.391 . S
C1019 C1018 1.391 . S
C1019 C1020 1.399 . S
C1020 C1019 1.399 . S
C1020 C1021 1.396 . S
C1020 C1023 1.453 . S
C1020 C1024 1.684 . S
C1021 C1011 1.723 . S
C1021 C1020 1.396 . S
C1021 C1022 1.394 . S
C1022 C992 1.723 . S
C1022 C1018 1.397 . S
C1022 C1021 1.394 . S
C1023 H995 0.982 . S
C1023 H999 0.979 . S
C1023 H1000 0.977 . S
C1023 C1020 1.453 . S
C1024 H996 0.979 . S
C1024 H997 0.980 . S
C1024 H998 0.983 . S
C1024 C1020 1.684 . S
H1025 C1043 0.948 . S
H1026 C984 0.948 . S
H1027 C1002 0.979 . S
H1028 C1002 0.980 . S
H1029 C1002 0.983 . S
H1030 C1001 0.982 . S
H1031 C1001 0.979 . S
H1032 C1001 0.977 . S
H1033 C1003 0.948 . S
H1034 C1005 0.947 . S
H1035 C1006 0.948 . S
H1036 C1012 0.982 . S
H1037 C1012 0.979 . S
H1038 C1012 0.977 . S
H1039 C1013 0.979 . S
H1040 C1013 0.980 . S
H1041 C1013 0.983 . S
H1042 C986 0.947 . S
C1043 C986 1.392 . S
C1043 C987 1.419 . S
C1043 H1025 0.948 . S
C1044 C1045 1.391 . S
C1044 C1048 1.391 . S
C1044 H1086 0.948 . S
C1045 C1044 1.391 . S
C1045 C1046 1.391 . S
C1046 C1045 1.391 . S
C1046 H1102 0.947 . S
C1046 C1103 1.392 . S
C1047 C1048 1.391 . S
C1047 C1051 1.397 . S
C1047 C1103 1.419 . S
C1048 C1044 1.391 . S
C1048 C1047 1.391 . S
C1048 C1049 1.399 . S
C1049 C1048 1.399 . S
C1049 C1052 1.396 . S
C1049 C1061 1.453 . S
C1049 C1062 1.684 . S
H1050 C1074 0.948 . S
C1051 C1047 1.397 . S
C1051 C1052 1.394 . S
C1051 C1070 1.723 . S
C1052 C1049 1.396 . S
C1052 C1051 1.394 . S
C1052 C1082 1.723 . S
H1053 C1076 0.947 . S
H1054 C1077 0.948 . S
H1055 C1083 0.982 . S
H1056 C1084 0.979 . S
H1057 C1084 0.980 . S
H1058 C1084 0.983 . S
H1059 C1083 0.979 . S
H1060 C1083 0.977 . S
C1061 C1049 1.453 . S
C1061 H1090 0.982 . S
C1061 H1091 0.979 . S
C1061 H1092 0.977 . S
C1062 C1049 1.684 . S
C1062 H1087 0.979 . S
C1062 H1088 0.980 . S
C1062 H1089 0.983 . S
C1063 C1064 1.391 . S
C1063 C1068 1.391 . S
C1063 H1093 0.948 . S
C1064 C1063 1.391 . S
C1064 C1065 1.391 . S
C1065 C1064 1.391 . S
C1065 C1066 1.392 . S
C1065 H1094 0.947 . S
C1066 C1065 1.392 . S
C1066 C1067 1.419 . S
C1066 H1095 0.948 . S
C1067 C1066 1.419 . S
C1067 C1068 1.391 . S
C1067 C1071 1.397 . S
C1068 C1063 1.391 . S
C1068 C1067 1.391 . S
C1068 C1069 1.399 . S
C1069 C1068 1.399 . S
C1069 C1070 1.396 . S
C1069 C1072 1.453 . S
C1069 C1073 1.684 . S
C1070 C1051 1.723 . S
C1070 C1069 1.396 . S
C1070 C1071 1.394 . S
C1071 C1067 1.397 . S
C1071 C1070 1.394 . S
C1071 C1081 1.723 . S
C1072 C1069 1.453 . S
C1072 H1096 0.982 . S
C1072 H1097 0.979 . S
C1072 H1098 0.977 . S
C1073 C1069 1.684 . S
C1073 H1099 0.979 . S
C1073 H1100 0.980 . S
C1073 H1101 0.983 . S
C1074 H1050 0.948 . S
C1074 C1075 1.391 . S
C1074 C1079 1.391 . S
C1075 C1074 1.391 . S
C1075 C1076 1.391 . S
C1076 H1053 0.947 . S
C1076 C1075 1.391 . S
C1076 C1077 1.392 . S
C1077 H1054 0.948 . S
C1077 C1076 1.392 . S
C1077 C1078 1.419 . S
C1078 C1077 1.419 . S
C1078 C1079 1.391 . S
C1078 C1082 1.397 . S
C1079 C1074 1.391 . S
C1079 C1078 1.391 . S
C1079 C1080 1.399 . S
C1080 C1079 1.399 . S
C1080 C1081 1.396 . S
C1080 C1083 1.453 . S
C1080 C1084 1.684 . S
C1081 C1071 1.723 . S
C1081 C1080 1.396 . S
C1081 C1082 1.394 . S
C1082 C1052 1.723 . S
C1082 C1078 1.397 . S
C1082 C1081 1.394 . S
C1083 H1055 0.982 . S
C1083 H1059 0.979 . S
C1083 H1060 0.977 . S
C1083 C1080 1.453 . S
C1084 H1056 0.979 . S
C1084 H1057 0.980 . S
C1084 H1058 0.983 . S
C1084 C1080 1.684 . S
H1085 C1103 0.948 . S
H1086 C1044 0.948 . S
H1087 C1062 0.979 . S
H1088 C1062 0.980 . S
H1089 C1062 0.983 . S
H1090 C1061 0.982 . S
H1091 C1061 0.979 . S
H1092 C1061 0.977 . S
H1093 C1063 0.948 . S
H1094 C1065 0.947 . S
H1095 C1066 0.948 . S
H1096 C1072 0.982 . S
H1097 C1072 0.979 . S
H1098 C1072 0.977 . S
H1099 C1073 0.979 . S
H1100 C1073 0.980 . S
H1101 C1073 0.983 . S
H1102 C1046 0.947 . S
C1103 C1046 1.392 . S
C1103 C1047 1.419 . S
C1103 H1085 0.948 . S
C1104 C1105 1.391 . S
C1104 C1108 1.391 . S
C1104 H1146 0.948 . S
C1105 C1104 1.391 . S
C1105 C1106 1.391 . S
C1106 C1105 1.391 . S
C1106 H1162 0.947 . S
C1106 C1163 1.392 . S
C1107 C1108 1.391 . S
C1107 C1111 1.397 . S
C1107 C1163 1.419 . S
C1108 C1104 1.391 . S
C1108 C1107 1.391 . S
C1108 C1109 1.399 . S
C1109 C1108 1.399 . S
C1109 C1112 1.396 . S
C1109 C1121 1.453 . S
C1109 C1122 1.684 . S
H1110 C1134 0.948 . S
C1111 C1107 1.397 . S
C1111 C1112 1.394 . S
C1111 C1130 1.723 . S
C1112 C1109 1.396 . S
C1112 C1111 1.394 . S
C1112 C1142 1.723 1_565 S
H1113 C1136 0.947 . S
H1114 C1137 0.948 . S
H1115 C1143 0.982 . S
H1116 C1144 0.979 . S
H1117 C1144 0.980 . S
H1118 C1144 0.983 . S
H1119 C1143 0.979 . S
H1120 C1143 0.977 . S
C1121 C1109 1.453 . S
C1121 H1150 0.982 . S
C1121 H1151 0.979 . S
C1121 H1152 0.977 1_565 S
C1122 C1109 1.684 . S
C1122 H1147 0.979 . S
C1122 H1148 0.980 1_565 S
C1122 H1149 0.983 . S
C1123 C1124 1.391 . S
C1123 C1128 1.391 . S
C1123 H1153 0.948 . S
C1124 C1123 1.391 . S
C1124 C1125 1.391 1_565 S
C1125 C1124 1.391 1_545 S
C1125 C1126 1.392 . S
C1125 H1154 0.947 . S
C1126 C1125 1.392 . S
C1126 C1127 1.419 . S
C1126 H1155 0.948 . S
C1127 C1126 1.419 . S
C1127 C1128 1.391 1_545 S
C1127 C1131 1.397 . S
C1128 C1123 1.391 . S
C1128 C1127 1.391 1_565 S
C1128 C1129 1.399 . S
C1129 C1128 1.399 . S
C1129 C1130 1.396 . S
C1129 C1132 1.453 . S
C1129 C1133 1.684 . S
C1130 C1111 1.723 . S
C1130 C1129 1.396 . S
C1130 C1131 1.394 1_565 S
C1131 C1127 1.397 . S
C1131 C1130 1.394 1_545 S
C1131 C1141 1.723 . S
C1132 C1129 1.453 . S
C1132 H1156 0.982 . S
C1132 H1157 0.979 . S
C1132 H1158 0.977 . S
C1133 C1129 1.684 . S
C1133 H1159 0.979 . S
C1133 H1160 0.980 . S
C1133 H1161 0.983 . S
C1134 H1110 0.948 . S
C1134 C1135 1.391 . S
C1134 C1139 1.391 . S
C1135 C1134 1.391 . S
C1135 C1136 1.391 . S
C1136 H1113 0.947 . S
C1136 C1135 1.391 . S
C1136 C1137 1.392 . S
C1137 H1114 0.948 . S
C1137 C1136 1.392 . S
C1137 C1138 1.419 . S
C1138 C1137 1.419 . S
C1138 C1139 1.391 . S
C1138 C1142 1.397 . S
C1139 C1134 1.391 . S
C1139 C1138 1.391 . S
C1139 C1140 1.399 . S
C1140 C1139 1.399 . S
C1140 C1141 1.396 . S
C1140 C1143 1.453 . S
C1140 C1144 1.684 . S
C1141 C1131 1.723 . S
C1141 C1140 1.396 . S
C1141 C1142 1.394 . S
C1142 C1112 1.723 1_545 S
C1142 C1138 1.397 . S
C1142 C1141 1.394 . S
C1143 H1115 0.982 . S
C1143 H1119 0.979 . S
C1143 H1120 0.977 . S
C1143 C1140 1.453 . S
C1144 H1116 0.979 . S
C1144 H1117 0.980 . S
C1144 H1118 0.983 . S
C1144 C1140 1.684 . S
H1145 C1163 0.948 . S
H1146 C1104 0.948 . S
H1147 C1122 0.979 . S
H1148 C1122 0.980 1_545 S
H1149 C1122 0.983 . S
H1150 C1121 0.982 . S
H1151 C1121 0.979 . S
H1152 C1121 0.977 1_545 S
H1153 C1123 0.948 . S
H1154 C1125 0.947 . S
H1155 C1126 0.948 . S
H1156 C1132 0.982 . S
H1157 C1132 0.979 . S
H1158 C1132 0.977 . S
H1159 C1133 0.979 . S
H1160 C1133 0.980 . S
H1161 C1133 0.983 . S
H1162 C1106 0.947 . S
C1163 C1106 1.392 . S
C1163 C1107 1.419 . S
C1163 H1145 0.948 . S
C1164 C1165 1.391 . S
C1164 C1168 1.391 . S
C1164 H1206 0.948 . S
C1165 C1164 1.391 . S
C1165 C1166 1.391 . S
C1166 C1165 1.391 . S
C1166 H1222 0.947 . S
C1166 C1223 1.392 . S
C1167 C1168 1.391 . S
C1167 C1171 1.397 . S
C1167 C1223 1.419 . S
C1168 C1164 1.391 . S
C1168 C1167 1.391 . S
C1168 C1169 1.399 . S
C1169 C1168 1.399 . S
C1169 C1172 1.396 . S
C1169 C1181 1.453 . S
C1169 C1182 1.684 . S
H1170 C1194 0.948 . S
C1171 C1167 1.397 . S
C1171 C1172 1.394 . S
C1171 C1190 1.723 . S
C1172 C1169 1.396 . S
C1172 C1171 1.394 . S
C1172 C1202 1.723 1_565 S
H1173 C1196 0.947 . S
H1174 C1197 0.948 . S
H1175 C1203 0.982 . S
H1176 C1204 0.979 . S
H1177 C1204 0.980 . S
H1178 C1204 0.983 . S
H1179 C1203 0.979 . S
H1180 C1203 0.977 . S
C1181 C1169 1.453 . S
C1181 H1210 0.982 . S
C1181 H1211 0.979 . S
C1181 H1212 0.977 1_565 S
C1182 C1169 1.684 . S
C1182 H1207 0.979 . S
C1182 H1208 0.980 1_565 S
C1182 H1209 0.983 . S
C1183 C1184 1.391 1_565 S
C1183 C1188 1.391 . S
C1183 H1213 0.948 . S
C1184 C1183 1.391 1_545 S
C1184 C1185 1.391 . S
C1185 C1184 1.391 . S
C1185 C1186 1.392 . S
C1185 H1214 0.947 . S
C1186 C1185 1.392 . S
C1186 C1187 1.419 . S
C1186 H1215 0.948 . S
C1187 C1186 1.419 . S
C1187 C1188 1.391 1_545 S
C1187 C1191 1.397 . S
C1188 C1183 1.391 . S
C1188 C1187 1.391 1_565 S
C1188 C1189 1.399 . S
C1189 C1188 1.399 . S
C1189 C1190 1.396 . S
C1189 C1192 1.453 . S
C1189 C1193 1.684 . S
C1190 C1171 1.723 . S
C1190 C1189 1.396 . S
C1190 C1191 1.394 1_565 S
C1191 C1187 1.397 . S
C1191 C1190 1.394 1_545 S
C1191 C1201 1.723 . S
C1192 C1189 1.453 . S
C1192 H1216 0.982 . S
C1192 H1217 0.979 . S
C1192 H1218 0.977 . S
C1193 C1189 1.684 . S
C1193 H1219 0.979 . S
C1193 H1220 0.980 . S
C1193 H1221 0.983 . S
C1194 H1170 0.948 . S
C1194 C1195 1.391 . S
C1194 C1199 1.391 . S
C1195 C1194 1.391 . S
C1195 C1196 1.391 . S
C1196 H1173 0.947 . S
C1196 C1195 1.391 . S
C1196 C1197 1.392 . S
C1197 H1174 0.948 . S
C1197 C1196 1.392 . S
C1197 C1198 1.419 . S
C1198 C1197 1.419 . S
C1198 C1199 1.391 . S
C1198 C1202 1.397 . S
C1199 C1194 1.391 . S
C1199 C1198 1.391 . S
C1199 C1200 1.399 . S
C1200 C1199 1.399 . S
C1200 C1201 1.396 . S
C1200 C1203 1.453 . S
C1200 C1204 1.684 . S
C1201 C1191 1.723 . S
C1201 C1200 1.396 . S
C1201 C1202 1.394 . S
C1202 C1172 1.723 1_545 S
C1202 C1198 1.397 . S
C1202 C1201 1.394 . S
C1203 H1175 0.982 . S
C1203 H1179 0.979 . S
C1203 H1180 0.977 . S
C1203 C1200 1.453 . S
C1204 H1176 0.979 . S
C1204 H1177 0.980 . S
C1204 H1178 0.983 . S
C1204 C1200 1.684 . S
H1205 C1223 0.948 . S
H1206 C1164 0.948 . S
H1207 C1182 0.979 . S
H1208 C1182 0.980 1_545 S
H1209 C1182 0.983 . S
H1210 C1181 0.982 . S
H1211 C1181 0.979 . S
H1212 C1181 0.977 1_545 S
H1213 C1183 0.948 . S
H1214 C1185 0.947 . S
H1215 C1186 0.948 . S
H1216 C1192 0.982 . S
H1217 C1192 0.979 . S
H1218 C1192 0.977 . S
H1219 C1193 0.979 . S
H1220 C1193 0.980 . S
H1221 C1193 0.983 . S
H1222 C1166 0.947 . S
C1223 C1166 1.392 . S
C1223 C1167 1.419 . S
C1223 H1205 0.948 . S
C1224 C1225 1.391 . S
C1224 C1228 1.391 . S
C1224 H1266 0.948 . S
C1225 C1224 1.391 . S
C1225 C1226 1.391 . S
C1226 C1225 1.391 . S
C1226 H1282 0.947 . S
C1226 C1283 1.392 . S
C1227 C1228 1.391 . S
C1227 C1231 1.397 . S
C1227 C1283 1.419 . S
C1228 C1224 1.391 . S
C1228 C1227 1.391 . S
C1228 C1229 1.399 . S
C1229 C1228 1.399 . S
C1229 C1232 1.396 . S
C1229 C1241 1.453 . S
C1229 C1242 1.684 . S
H1230 C1254 0.948 . S
C1231 C1227 1.397 . S
C1231 C1232 1.394 . S
C1231 C1250 1.723 . S
C1232 C1229 1.396 . S
C1232 C1231 1.394 . S
C1232 C1262 1.723 . S
H1233 C1256 0.947 . S
H1234 C1257 0.948 . S
H1235 C1263 0.982 . S
H1236 C1264 0.979 . S
H1237 C1264 0.980 . S
H1238 C1264 0.983 . S
H1239 C1263 0.979 . S
H1240 C1263 0.977 . S
C1241 C1229 1.453 . S
C1241 H1270 0.982 . S
C1241 H1271 0.979 . S
C1241 H1272 0.977 . S
C1242 C1229 1.684 . S
C1242 H1267 0.979 . S
C1242 H1268 0.980 . S
C1242 H1269 0.983 . S
C1243 C1244 1.391 . S
C1243 C1248 1.391 . S
C1243 H1273 0.948 . S
C1244 C1243 1.391 . S
C1244 C1245 1.391 . S
C1245 C1244 1.391 . S
C1245 C1246 1.392 . S
C1245 H1274 0.947 . S
C1246 C1245 1.392 . S
C1246 C1247 1.419 . S
C1246 H1275 0.948 . S
C1247 C1246 1.419 . S
C1247 C1248 1.391 . S
C1247 C1251 1.397 . S
C1248 C1243 1.391 . S
C1248 C1247 1.391 . S
C1248 C1249 1.399 . S
C1249 C1248 1.399 . S
C1249 C1250 1.396 . S
C1249 C1252 1.453 . S
C1249 C1253 1.684 . S
C1250 C1231 1.723 . S
C1250 C1249 1.396 . S
C1250 C1251 1.394 . S
C1251 C1247 1.397 . S
C1251 C1250 1.394 . S
C1251 C1261 1.723 . S
C1252 C1249 1.453 . S
C1252 H1276 0.982 . S
C1252 H1277 0.979 . S
C1252 H1278 0.977 . S
C1253 C1249 1.684 . S
C1253 H1279 0.979 . S
C1253 H1280 0.980 . S
C1253 H1281 0.983 . S
C1254 H1230 0.948 . S
C1254 C1255 1.391 . S
C1254 C1259 1.391 . S
C1255 C1254 1.391 . S
C1255 C1256 1.391 . S
C1256 H1233 0.947 . S
C1256 C1255 1.391 . S
C1256 C1257 1.392 . S
C1257 H1234 0.948 . S
C1257 C1256 1.392 . S
C1257 C1258 1.419 . S
C1258 C1257 1.419 . S
C1258 C1259 1.391 . S
C1258 C1262 1.397 . S
C1259 C1254 1.391 . S
C1259 C1258 1.391 . S
C1259 C1260 1.399 . S
C1260 C1259 1.399 . S
C1260 C1261 1.396 . S
C1260 C1263 1.453 . S
C1260 C1264 1.684 . S
C1261 C1251 1.723 . S
C1261 C1260 1.396 . S
C1261 C1262 1.394 . S
C1262 C1232 1.723 . S
C1262 C1258 1.397 . S
C1262 C1261 1.394 . S
C1263 H1235 0.982 . S
C1263 H1239 0.979 . S
C1263 H1240 0.977 . S
C1263 C1260 1.453 . S
C1264 H1236 0.979 . S
C1264 H1237 0.980 . S
C1264 H1238 0.983 . S
C1264 C1260 1.684 . S
H1265 C1283 0.948 . S
H1266 C1224 0.948 . S
H1267 C1242 0.979 . S
H1268 C1242 0.980 . S
H1269 C1242 0.983 . S
H1270 C1241 0.982 . S
H1271 C1241 0.979 . S
H1272 C1241 0.977 . S
H1273 C1243 0.948 . S
H1274 C1245 0.947 . S
H1275 C1246 0.948 . S
H1276 C1252 0.982 . S
H1277 C1252 0.979 . S
H1278 C1252 0.977 . S
H1279 C1253 0.979 . S
H1280 C1253 0.980 . S
H1281 C1253 0.983 . S
H1282 C1226 0.947 . S
C1283 C1226 1.392 . S
C1283 C1227 1.419 . S
C1283 H1265 0.948 . S
C1284 C1285 1.391 . S
C1284 C1288 1.391 . S
C1284 H1326 0.948 . S
C1285 C1284 1.391 . S
C1285 C1286 1.391 . S
C1286 C1285 1.391 . S
C1286 H1342 0.947 . S
C1286 C1343 1.392 . S
C1287 C1288 1.391 . S
C1287 C1291 1.397 . S
C1287 C1343 1.419 . S
C1288 C1284 1.391 . S
C1288 C1287 1.391 . S
C1288 C1289 1.399 . S
C1289 C1288 1.399 . S
C1289 C1292 1.396 . S
C1289 C1301 1.453 . S
C1289 C1302 1.684 . S
H1290 C1314 0.948 . S
C1291 C1287 1.397 . S
C1291 C1292 1.394 . S
C1291 C1310 1.723 1_554 S
C1292 C1289 1.396 . S
C1292 C1291 1.394 . S
C1292 C1322 1.723 . S
H1293 C1316 0.947 . S
H1294 C1317 0.948 . S
H1295 C1323 0.982 . S
H1296 C1324 0.979 . S
H1297 C1324 0.980 . S
H1298 C1324 0.983 . S
H1299 C1323 0.979 . S
H1300 C1323 0.977 . S
C1301 C1289 1.453 . S
C1301 H1330 0.982 . S
C1301 H1331 0.979 . S
C1301 H1332 0.977 . S
C1302 C1289 1.684 . S
C1302 H1327 0.979 . S
C1302 H1328 0.980 . S
C1302 H1329 0.983 . S
C1303 C1304 1.391 . S
C1303 C1308 1.391 . S
C1303 H1333 0.948 . S
C1304 C1303 1.391 . S
C1304 C1305 1.391 . S
C1305 C1304 1.391 . S
C1305 C1306 1.392 . S
C1305 H1334 0.947 . S
C1306 C1305 1.392 . S
C1306 C1307 1.419 . S
C1306 H1335 0.948 . S
C1307 C1306 1.419 . S
C1307 C1308 1.391 . S
C1307 C1311 1.397 . S
C1308 C1303 1.391 . S
C1308 C1307 1.391 . S
C1308 C1309 1.399 . S
C1309 C1308 1.399 . S
C1309 C1310 1.396 . S
C1309 C1312 1.453 . S
C1309 C1313 1.684 . S
C1310 C1291 1.723 1_556 S
C1310 C1309 1.396 . S
C1310 C1311 1.394 . S
C1311 C1307 1.397 . S
C1311 C1310 1.394 . S
C1311 C1321 1.723 . S
C1312 C1309 1.453 . S
C1312 H1336 0.982 . S
C1312 H1337 0.979 . S
C1312 H1338 0.977 1_556 S
C1313 C1309 1.684 . S
C1313 H1339 0.979 . S
C1313 H1340 0.980 1_556 S
C1313 H1341 0.983 . S
C1314 H1290 0.948 . S
C1314 C1315 1.391 1_556 S
C1314 C1319 1.391 . S
C1315 C1314 1.391 1_554 S
C1315 C1316 1.391 . S
C1316 H1293 0.947 . S
C1316 C1315 1.391 . S
C1316 C1317 1.392 . S
C1317 H1294 0.948 . S
C1317 C1316 1.392 . S
C1317 C1318 1.419 . S
C1318 C1317 1.419 . S
C1318 C1319 1.391 1_554 S
C1318 C1322 1.397 . S
C1319 C1314 1.391 . S
C1319 C1318 1.391 1_556 S
C1319 C1320 1.399 . S
C1320 C1319 1.399 . S
C1320 C1321 1.396 . S
C1320 C1323 1.453 . S
C1320 C1324 1.684 . S
C1321 C1311 1.723 . S
C1321 C1320 1.396 . S
C1321 C1322 1.394 1_556 S
C1322 C1292 1.723 . S
C1322 C1318 1.397 . S
C1322 C1321 1.394 1_554 S
C1323 H1295 0.982 . S
C1323 H1299 0.979 . S
C1323 H1300 0.977 . S
C1323 C1320 1.453 . S
C1324 H1296 0.979 . S
C1324 H1297 0.980 . S
C1324 H1298 0.983 . S
C1324 C1320 1.684 . S
H1325 C1343 0.948 . S
H1326 C1284 0.948 . S
H1327 C1302 0.979 . S
H1328 C1302 0.980 . S
H1329 C1302 0.983 . S
H1330 C1301 0.982 . S
H1331 C1301 0.979 . S
H1332 C1301 0.977 . S
H1333 C1303 0.948 . S
H1334 C1305 0.947 . S
H1335 C1306 0.948 . S
H1336 C1312 0.982 . S
H1337 C1312 0.979 . S
H1338 C1312 0.977 1_554 S
H1339 C1313 0.979 . S
H1340 C1313 0.980 1_554 S
H1341 C1313 0.983 . S
H1342 C1286 0.947 . S
C1343 C1286 1.392 . S
C1343 C1287 1.419 . S
C1343 H1325 0.948 . S
C1344 C1345 1.391 . S
C1344 C1348 1.391 . S
C1344 H1386 0.948 . S
C1345 C1344 1.391 . S
C1345 C1346 1.391 . S
C1346 C1345 1.391 . S
C1346 H1402 0.947 . S
C1346 C1403 1.392 . S
C1347 C1348 1.391 . S
C1347 C1351 1.397 . S
C1347 C1403 1.419 . S
C1348 C1344 1.391 . S
C1348 C1347 1.391 . S
C1348 C1349 1.399 . S
C1349 C1348 1.399 . S
C1349 C1352 1.396 . S
C1349 C1361 1.453 . S
C1349 C1362 1.684 . S
H1350 C1374 0.948 . S
C1351 C1347 1.397 . S
C1351 C1352 1.394 . S
C1351 C1370 1.723 . S
C1352 C1349 1.396 . S
C1352 C1351 1.394 . S
C1352 C1382 1.723 . S
H1353 C1376 0.947 . S
H1354 C1377 0.948 . S
H1355 C1383 0.982 . S
H1356 C1384 0.979 . S
H1357 C1384 0.980 . S
H1358 C1384 0.983 . S
H1359 C1383 0.979 . S
H1360 C1383 0.977 . S
C1361 C1349 1.453 . S
C1361 H1390 0.982 . S
C1361 H1391 0.979 . S
C1361 H1392 0.977 . S
C1362 C1349 1.684 . S
C1362 H1387 0.979 . S
C1362 H1388 0.980 . S
C1362 H1389 0.983 . S
C1363 C1364 1.391 . S
C1363 C1368 1.391 . S
C1363 H1393 0.948 . S
C1364 C1363 1.391 . S
C1364 C1365 1.391 . S
C1365 C1364 1.391 . S
C1365 C1366 1.392 . S
C1365 H1394 0.947 . S
C1366 C1365 1.392 . S
C1366 C1367 1.419 . S
C1366 H1395 0.948 . S
C1367 C1366 1.419 . S
C1367 C1368 1.391 . S
C1367 C1371 1.397 . S
C1368 C1363 1.391 . S
C1368 C1367 1.391 . S
C1368 C1369 1.399 . S
C1369 C1368 1.399 . S
C1369 C1370 1.396 . S
C1369 C1372 1.453 . S
C1369 C1373 1.684 . S
C1370 C1351 1.723 . S
C1370 C1369 1.396 . S
C1370 C1371 1.394 . S
C1371 C1367 1.397 . S
C1371 C1370 1.394 . S
C1371 C1381 1.723 . S
C1372 C1369 1.453 . S
C1372 H1396 0.982 . S
C1372 H1397 0.979 . S
C1372 H1398 0.977 . S
C1373 C1369 1.684 . S
C1373 H1399 0.979 . S
C1373 H1400 0.980 . S
C1373 H1401 0.983 . S
C1374 H1350 0.948 . S
C1374 C1375 1.391 . S
C1374 C1379 1.391 . S
C1375 C1374 1.391 . S
C1375 C1376 1.391 . S
C1376 H1353 0.947 . S
C1376 C1375 1.391 . S
C1376 C1377 1.392 . S
C1377 H1354 0.948 . S
C1377 C1376 1.392 . S
C1377 C1378 1.419 . S
C1378 C1377 1.419 . S
C1378 C1379 1.391 . S
C1378 C1382 1.397 . S
C1379 C1374 1.391 . S
C1379 C1378 1.391 . S
C1379 C1380 1.399 . S
C1380 C1379 1.399 . S
C1380 C1381 1.396 . S
C1380 C1383 1.453 . S
C1380 C1384 1.684 . S
C1381 C1371 1.723 . S
C1381 C1380 1.396 . S
C1381 C1382 1.394 . S
C1382 C1352 1.723 . S
C1382 C1378 1.397 . S
C1382 C1381 1.394 . S
C1383 H1355 0.982 . S
C1383 H1359 0.979 . S
C1383 H1360 0.977 . S
C1383 C1380 1.453 . S
C1384 H1356 0.979 . S
C1384 H1357 0.980 . S
C1384 H1358 0.983 . S
C1384 C1380 1.684 . S
H1385 C1403 0.948 . S
H1386 C1344 0.948 . S
H1387 C1362 0.979 . S
H1388 C1362 0.980 . S
H1389 C1362 0.983 . S
H1390 C1361 0.982 . S
H1391 C1361 0.979 . S
H1392 C1361 0.977 . S
H1393 C1363 0.948 . S
H1394 C1365 0.947 . S
H1395 C1366 0.948 . S
H1396 C1372 0.982 . S
H1397 C1372 0.979 . S
H1398 C1372 0.977 . S
H1399 C1373 0.979 . S
H1400 C1373 0.980 . S
H1401 C1373 0.983 . S
H1402 C1346 0.947 . S
C1403 C1346 1.392 . S
C1403 C1347 1.419 . S
C1403 H1385 0.948 . S
C1404 C1405 1.391 . S
C1404 C1408 1.391 . S
C1404 H1446 0.948 . S
C1405 C1404 1.391 . S
C1405 C1406 1.391 . S
C1406 C1405 1.391 . S
C1406 H1462 0.947 . S
C1406 C1463 1.392 . S
C1407 C1408 1.391 . S
C1407 C1411 1.397 . S
C1407 C1463 1.419 . S
C1408 C1404 1.391 . S
C1408 C1407 1.391 . S
C1408 C1409 1.399 . S
C1409 C1408 1.399 . S
C1409 C1412 1.396 . S
C1409 C1421 1.453 . S
C1409 C1422 1.684 . S
H1410 C1434 0.948 . S
C1411 C1407 1.397 . S
C1411 C1412 1.394 . S
C1411 C1430 1.723 1_556 S
C1412 C1409 1.396 . S
C1412 C1411 1.394 . S
C1412 C1442 1.723 . S
H1413 C1436 0.947 . S
H1414 C1437 0.948 . S
H1415 C1443 0.982 . S
H1416 C1444 0.979 . S
H1417 C1444 0.980 . S
H1418 C1444 0.983 . S
H1419 C1443 0.979 . S
H1420 C1443 0.977 . S
C1421 C1409 1.453 . S
C1421 H1450 0.982 . S
C1421 H1451 0.979 . S
C1421 H1452 0.977 . S
C1422 C1409 1.684 . S
C1422 H1447 0.979 . S
C1422 H1448 0.980 . S
C1422 H1449 0.983 . S
C1423 C1424 1.391 . S
C1423 C1428 1.391 . S
C1423 H1453 0.948 . S
C1424 C1423 1.391 . S
C1424 C1425 1.391 . S
C1425 C1424 1.391 . S
C1425 C1426 1.392 . S
C1425 H1454 0.947 . S
C1426 C1425 1.392 . S
C1426 C1427 1.419 . S
C1426 H1455 0.948 . S
C1427 C1426 1.419 . S
C1427 C1428 1.391 . S
C1427 C1431 1.397 . S
C1428 C1423 1.391 . S
C1428 C1427 1.391 . S
C1428 C1429 1.399 . S
C1429 C1428 1.399 . S
C1429 C1430 1.396 . S
C1429 C1432 1.453 . S
C1429 C1433 1.684 . S
C1430 C1411 1.723 1_554 S
C1430 C1429 1.396 . S
C1430 C1431 1.394 . S
C1431 C1427 1.397 . S
C1431 C1430 1.394 . S
C1431 C1441 1.723 . S
C1432 C1429 1.453 . S
C1432 H1456 0.982 . S
C1432 H1457 0.979 . S
C1432 H1458 0.977 . S
C1433 C1429 1.684 . S
C1433 H1459 0.979 . S
C1433 H1460 0.980 . S
C1433 H1461 0.983 . S
C1434 H1410 0.948 . S
C1434 C1435 1.391 1_554 S
C1434 C1439 1.391 . S
C1435 C1434 1.391 1_556 S
C1435 C1436 1.391 . S
C1436 H1413 0.947 . S
C1436 C1435 1.391 . S
C1436 C1437 1.392 . S
C1437 H1414 0.948 . S
C1437 C1436 1.392 . S
C1437 C1438 1.419 . S
C1438 C1437 1.419 . S
C1438 C1439 1.391 1_556 S
C1438 C1442 1.397 . S
C1439 C1434 1.391 . S
C1439 C1438 1.391 1_554 S
C1439 C1440 1.399 . S
C1440 C1439 1.399 . S
C1440 C1441 1.396 . S
C1440 C1443 1.453 . S
C1440 C1444 1.684 . S
C1441 C1431 1.723 . S
C1441 C1440 1.396 . S
C1441 C1442 1.394 1_554 S
C1442 C1412 1.723 . S
C1442 C1438 1.397 . S
C1442 C1441 1.394 1_556 S
C1443 H1415 0.982 . S
C1443 H1419 0.979 . S
C1443 H1420 0.977 . S
C1443 C1440 1.453 . S
C1444 H1416 0.979 . S
C1444 H1417 0.980 . S
C1444 H1418 0.983 . S
C1444 C1440 1.684 . S
H1445 C1463 0.948 . S
H1446 C1404 0.948 . S
H1447 C1422 0.979 . S
H1448 C1422 0.980 . S
H1449 C1422 0.983 . S
H1450 C1421 0.982 . S
H1451 C1421 0.979 . S
H1452 C1421 0.977 . S
H1453 C1423 0.948 . S
H1454 C1425 0.947 . S
H1455 C1426 0.948 . S
H1456 C1432 0.982 . S
H1457 C1432 0.979 . S
H1458 C1432 0.977 . S
H1459 C1433 0.979 . S
H1460 C1433 0.980 . S
H1461 C1433 0.983 . S
H1462 C1406 0.947 . S
C1463 C1406 1.392 . S
C1463 C1407 1.419 . S
C1463 H1445 0.948 . S
C1464 C1465 1.391 . S
C1464 C1468 1.391 . S
C1464 H1506 0.948 . S
C1465 C1464 1.391 . S
C1465 C1466 1.391 . S
C1466 C1465 1.391 . S
C1466 H1522 0.947 . S
C1466 C1523 1.392 . S
C1467 C1468 1.391 . S
C1467 C1471 1.397 . S
C1467 C1523 1.419 . S
C1468 C1464 1.391 . S
C1468 C1467 1.391 . S
C1468 C1469 1.399 . S
C1469 C1468 1.399 . S
C1469 C1472 1.396 . S
C1469 C1481 1.453 . S
C1469 C1482 1.684 . S
H1470 C1494 0.948 . S
C1471 C1467 1.397 . S
C1471 C1472 1.394 . S
C1471 C1490 1.723 . S
C1472 C1469 1.396 . S
C1472 C1471 1.394 . S
C1472 C1502 1.723 . S
H1473 C1496 0.947 . S
H1474 C1497 0.948 . S
H1475 C1503 0.982 . S
H1476 C1504 0.979 . S
H1477 C1504 0.980 . S
H1478 C1504 0.983 . S
H1479 C1503 0.979 . S
H1480 C1503 0.977 . S
C1481 C1469 1.453 . S
C1481 H1510 0.982 . S
C1481 H1511 0.979 . S
C1481 H1512 0.977 . S
C1482 C1469 1.684 . S
C1482 H1507 0.979 . S
C1482 H1508 0.980 . S
C1482 H1509 0.983 . S
C1483 C1484 1.391 . S
C1483 C1488 1.391 . S
C1483 H1513 0.948 . S
C1484 C1483 1.391 . S
C1484 C1485 1.391 . S
C1485 C1484 1.391 . S
C1485 C1486 1.392 . S
C1485 H1514 0.947 . S
C1486 C1485 1.392 . S
C1486 C1487 1.419 . S
C1486 H1515 0.948 . S
C1487 C1486 1.419 . S
C1487 C1488 1.391 . S
C1487 C1491 1.397 . S
C1488 C1483 1.391 . S
C1488 C1487 1.391 . S
C1488 C1489 1.399 . S
C1489 C1488 1.399 . S
C1489 C1490 1.396 . S
C1489 C1492 1.453 . S
C1489 C1493 1.684 . S
C1490 C1471 1.723 . S
C1490 C1489 1.396 . S
C1490 C1491 1.394 . S
C1491 C1487 1.397 . S
C1491 C1490 1.394 . S
C1491 C1501 1.723 . S
C1492 C1489 1.453 . S
C1492 H1516 0.982 . S
C1492 H1517 0.979 . S
C1492 H1518 0.977 . S
C1493 C1489 1.684 . S
C1493 H1519 0.979 . S
C1493 H1520 0.980 . S
C1493 H1521 0.983 . S
C1494 H1470 0.948 . S
C1494 C1495 1.391 . S
C1494 C1499 1.391 . S
C1495 C1494 1.391 . S
C1495 C1496 1.391 . S
C1496 H1473 0.947 . S
C1496 C1495 1.391 . S
C1496 C1497 1.392 . S
C1497 H1474 0.948 . S
C1497 C1496 1.392 . S
C1497 C1498 1.419 . S
C1498 C1497 1.419 . S
C1498 C1499 1.391 . S
C1498 C1502 1.397 . S
C1499 C1494 1.391 . S
C1499 C1498 1.391 . S
C1499 C1500 1.399 . S
C1500 C1499 1.399 . S
C1500 C1501 1.396 . S
C1500 C1503 1.453 . S
C1500 C1504 1.684 . S
C1501 C1491 1.723 . S
C1501 C1500 1.396 . S
C1501 C1502 1.394 . S
C1502 C1472 1.723 . S
C1502 C1498 1.397 . S
C1502 C1501 1.394 . S
C1503 H1475 0.982 . S
C1503 H1479 0.979 . S
C1503 H1480 0.977 . S
C1503 C1500 1.453 . S
C1504 H1476 0.979 . S
C1504 H1477 0.980 . S
C1504 H1478 0.983 . S
C1504 C1500 1.684 . S
H1505 C1523 0.948 . S
H1506 C1464 0.948 . S
H1507 C1482 0.979 . S
H1508 C1482 0.980 . S
H1509 C1482 0.983 . S
H1510 C1481 0.982 . S
H1511 C1481 0.979 . S
H1512 C1481 0.977 . S
H1513 C1483 0.948 . S
H1514 C1485 0.947 . S
H1515 C1486 0.948 . S
H1516 C1492 0.982 . S
H1517 C1492 0.979 . S
H1518 C1492 0.977 . S
H1519 C1493 0.979 . S
H1520 C1493 0.980 . S
H1521 C1493 0.983 . S
H1522 C1466 0.947 . S
C1523 C1466 1.392 . S
C1523 C1467 1.419 . S
C1523 H1505 0.948 . S
C1524 C1525 1.391 1_655 S
C1524 C1528 1.391 . S
C1524 H1566 0.948 . S
C1525 C1524 1.391 1_455 S
C1525 C1526 1.391 . S
C1526 C1525 1.391 . S
C1526 H1582 0.947 . S
C1526 C1583 1.392 . S
C1527 C1528 1.391 1_455 S
C1527 C1531 1.397 . S
C1527 C1583 1.419 . S
C1528 C1524 1.391 . S
C1528 C1527 1.391 1_655 S
C1528 C1529 1.399 . S
C1529 C1528 1.399 . S
C1529 C1532 1.396 . S
C1529 C1541 1.453 . S
C1529 C1542 1.684 . S
H1530 C1554 0.948 . S
C1531 C1527 1.397 . S
C1531 C1532 1.394 1_455 S
C1531 C1550 1.723 . S
C1532 C1529 1.396 . S
C1532 C1531 1.394 1_655 S
C1532 C1562 1.723 . S
H1533 C1556 0.947 . S
H1534 C1557 0.948 . S
H1535 C1563 0.982 . S
H1536 C1564 0.979 . S
H1537 C1564 0.980 1_455 S
H1538 C1564 0.983 . S
H1539 C1563 0.979 . S
H1540 C1563 0.977 1_455 S
C1541 C1529 1.453 . S
C1541 H1570 0.982 . S
C1541 H1571 0.979 . S
C1541 H1572 0.977 . S
C1542 C1529 1.684 . S
C1542 H1567 0.979 . S
C1542 H1568 0.980 . S
C1542 H1569 0.983 . S
C1543 C1544 1.391 . S
C1543 C1548 1.391 . S
C1543 H1573 0.948 . S
C1544 C1543 1.391 . S
C1544 C1545 1.391 . S
C1545 C1544 1.391 . S
C1545 C1546 1.392 . S
C1545 H1574 0.947 . S
C1546 C1545 1.392 . S
C1546 C1547 1.419 . S
C1546 H1575 0.948 . S
C1547 C1546 1.419 . S
C1547 C1548 1.391 . S
C1547 C1551 1.397 . S
C1548 C1543 1.391 . S
C1548 C1547 1.391 . S
C1548 C1549 1.399 . S
C1549 C1548 1.399 . S
C1549 C1550 1.396 . S
C1549 C1552 1.453 . S
C1549 C1553 1.684 . S
C1550 C1531 1.723 . S
C1550 C1549 1.396 . S
C1550 C1551 1.394 . S
C1551 C1547 1.397 . S
C1551 C1550 1.394 . S
C1551 C1561 1.723 1_455 S
C1552 C1549 1.453 . S
C1552 H1576 0.982 . S
C1552 H1577 0.979 . S
C1552 H1578 0.977 . S
C1553 C1549 1.684 . S
C1553 H1579 0.979 . S
C1553 H1580 0.980 . S
C1553 H1581 0.983 . S
C1554 H1530 0.948 . S
C1554 C1555 1.391 . S
C1554 C1559 1.391 . S
C1555 C1554 1.391 . S
C1555 C1556 1.391 . S
C1556 H1533 0.947 . S
C1556 C1555 1.391 . S
C1556 C1557 1.392 . S
C1557 H1534 0.948 . S
C1557 C1556 1.392 . S
C1557 C1558 1.419 . S
C1558 C1557 1.419 . S
C1558 C1559 1.391 . S
C1558 C1562 1.397 . S
C1559 C1554 1.391 . S
C1559 C1558 1.391 . S
C1559 C1560 1.399 . S
C1560 C1559 1.399 . S
C1560 C1561 1.396 . S
C1560 C1563 1.453 . S
C1560 C1564 1.684 . S
C1561 C1551 1.723 1_655 S
C1561 C1560 1.396 . S
C1561 C1562 1.394 . S
C1562 C1532 1.723 . S
C1562 C1558 1.397 . S
C1562 C1561 1.394 . S
C1563 H1535 0.982 . S
C1563 H1539 0.979 . S
C1563 H1540 0.977 1_655 S
C1563 C1560 1.453 . S
C1564 H1536 0.979 . S
C1564 H1537 0.980 1_655 S
C1564 H1538 0.983 . S
C1564 C1560 1.684 . S
H1565 C1583 0.948 . S
H1566 C1524 0.948 . S
H1567 C1542 0.979 . S
H1568 C1542 0.980 . S
H1569 C1542 0.983 . S
H1570 C1541 0.982 . S
H1571 C1541 0.979 . S
H1572 C1541 0.977 . S
H1573 C1543 0.948 . S
H1574 C1545 0.947 . S
H1575 C1546 0.948 . S
H1576 C1552 0.982 . S
H1577 C1552 0.979 . S
H1578 C1552 0.977 . S
H1579 C1553 0.979 . S
H1580 C1553 0.980 . S
H1581 C1553 0.983 . S
H1582 C1526 0.947 . S
C1583 C1526 1.392 . S
C1583 C1527 1.419 . S
C1583 H1565 0.948 . S
C1584 C1585 1.391 . S
C1584 C1588 1.391 . S
C1584 H1626 0.948 . S
C1585 C1584 1.391 . S
C1585 C1586 1.391 . S
C1586 C1585 1.391 . S
C1586 H1642 0.947 . S
C1586 C1643 1.392 . S
C1587 C1588 1.391 . S
C1587 C1591 1.397 . S
C1587 C1643 1.419 . S
C1588 C1584 1.391 . S
C1588 C1587 1.391 . S
C1588 C1589 1.399 . S
C1589 C1588 1.399 . S
C1589 C1592 1.396 . S
C1589 C1601 1.453 . S
C1589 C1602 1.684 . S
H1590 C1614 0.948 . S
C1591 C1587 1.397 . S
C1591 C1592 1.394 . S
C1591 C1610 1.723 . S
C1592 C1589 1.396 . S
C1592 C1591 1.394 . S
C1592 C1622 1.723 . S
H1593 C1616 0.947 . S
H1594 C1617 0.948 . S
H1595 C1623 0.982 . S
H1596 C1624 0.979 . S
H1597 C1624 0.980 . S
H1598 C1624 0.983 . S
H1599 C1623 0.979 . S
H1600 C1623 0.977 . S
C1601 C1589 1.453 . S
C1601 H1630 0.982 . S
C1601 H1631 0.979 . S
C1601 H1632 0.977 . S
C1602 C1589 1.684 . S
C1602 H1627 0.979 . S
C1602 H1628 0.980 . S
C1602 H1629 0.983 . S
C1603 C1604 1.391 . S
C1603 C1608 1.391 . S
C1603 H1633 0.948 . S
C1604 C1603 1.391 . S
C1604 C1605 1.391 . S
C1605 C1604 1.391 . S
C1605 C1606 1.392 . S
C1605 H1634 0.947 . S
C1606 C1605 1.392 . S
C1606 C1607 1.419 . S
C1606 H1635 0.948 . S
C1607 C1606 1.419 . S
C1607 C1608 1.391 . S
C1607 C1611 1.397 . S
C1608 C1603 1.391 . S
C1608 C1607 1.391 . S
C1608 C1609 1.399 . S
C1609 C1608 1.399 . S
C1609 C1610 1.396 . S
C1609 C1612 1.453 . S
C1609 C1613 1.684 . S
C1610 C1591 1.723 . S
C1610 C1609 1.396 . S
C1610 C1611 1.394 . S
C1611 C1607 1.397 . S
C1611 C1610 1.394 . S
C1611 C1621 1.723 . S
C1612 C1609 1.453 . S
C1612 H1636 0.982 . S
C1612 H1637 0.979 . S
C1612 H1638 0.977 . S
C1613 C1609 1.684 . S
C1613 H1639 0.979 . S
C1613 H1640 0.980 . S
C1613 H1641 0.983 . S
C1614 H1590 0.948 . S
C1614 C1615 1.391 . S
C1614 C1619 1.391 . S
C1615 C1614 1.391 . S
C1615 C1616 1.391 . S
C1616 H1593 0.947 . S
C1616 C1615 1.391 . S
C1616 C1617 1.392 . S
C1617 H1594 0.948 . S
C1617 C1616 1.392 . S
C1617 C1618 1.419 . S
C1618 C1617 1.419 . S
C1618 C1619 1.391 . S
C1618 C1622 1.397 . S
C1619 C1614 1.391 . S
C1619 C1618 1.391 . S
C1619 C1620 1.399 . S
C1620 C1619 1.399 . S
C1620 C1621 1.396 . S
C1620 C1623 1.453 . S
C1620 C1624 1.684 . S
C1621 C1611 1.723 . S
C1621 C1620 1.396 . S
C1621 C1622 1.394 . S
C1622 C1592 1.723 . S
C1622 C1618 1.397 . S
C1622 C1621 1.394 . S
C1623 H1595 0.982 . S
C1623 H1599 0.979 . S
C1623 H1600 0.977 . S
C1623 C1620 1.453 . S
C1624 H1596 0.979 . S
C1624 H1597 0.980 . S
C1624 H1598 0.983 . S
C1624 C1620 1.684 . S
H1625 C1643 0.948 . S
H1626 C1584 0.948 . S
H1627 C1602 0.979 . S
H1628 C1602 0.980 . S
H1629 C1602 0.983 . S
H1630 C1601 0.982 . S
H1631 C1601 0.979 . S
H1632 C1601 0.977 . S
H1633 C1603 0.948 . S
H1634 C1605 0.947 . S
H1635 C1606 0.948 . S
H1636 C1612 0.982 . S
H1637 C1612 0.979 . S
H1638 C1612 0.977 . S
H1639 C1613 0.979 . S
H1640 C1613 0.980 . S
H1641 C1613 0.983 . S
H1642 C1586 0.947 . S
C1643 C1586 1.392 . S
C1643 C1587 1.419 . S
C1643 H1625 0.948 . S
C1644 C1645 1.391 . S
C1644 C1648 1.391 . S
C1644 H1686 0.948 . S
C1645 C1644 1.391 . S
C1645 C1646 1.391 . S
C1646 C1645 1.391 . S
C1646 H1702 0.947 . S
C1646 C1703 1.392 . S
C1647 C1648 1.391 . S
C1647 C1651 1.397 . S
C1647 C1703 1.419 . S
C1648 C1644 1.391 . S
C1648 C1647 1.391 . S
C1648 C1649 1.399 . S
C1649 C1648 1.399 . S
C1649 C1652 1.396 . S
C1649 C1661 1.453 . S
C1649 C1662 1.684 . S
H1650 C1674 0.948 . S
C1651 C1647 1.397 . S
C1651 C1652 1.394 . S
C1651 C1670 1.723 . S
C1652 C1649 1.396 . S
C1652 C1651 1.394 . S
C1652 C1682 1.723 1_455 S
H1653 C1676 0.947 . S
H1654 C1677 0.948 . S
H1655 C1683 0.982 . S
H1656 C1684 0.979 . S
H1657 C1684 0.980 . S
H1658 C1684 0.983 . S
H1659 C1683 0.979 . S
H1660 C1683 0.977 . S
C1661 C1649 1.453 . S
C1661 H1690 0.982 . S
C1661 H1691 0.979 . S
C1661 H1692 0.977 . S
C1662 C1649 1.684 . S
C1662 H1687 0.979 . S
C1662 H1688 0.980 . S
C1662 H1689 0.983 . S
C1663 C1664 1.391 1_455 S
C1663 C1668 1.391 . S
C1663 H1693 0.948 . S
C1664 C1663 1.391 1_655 S
C1664 C1665 1.391 . S
C1665 C1664 1.391 . S
C1665 C1666 1.392 . S
C1665 H1694 0.947 . S
C1666 C1665 1.392 . S
C1666 C1667 1.419 . S
C1666 H1695 0.948 . S
C1667 C1666 1.419 . S
C1667 C1668 1.391 1_655 S
C1667 C1671 1.397 . S
C1668 C1663 1.391 . S
C1668 C1667 1.391 1_455 S
C1668 C1669 1.399 . S
C1669 C1668 1.399 . S
C1669 C1670 1.396 . S
C1669 C1672 1.453 . S
C1669 C1673 1.684 . S
C1670 C1651 1.723 . S
C1670 C1669 1.396 . S
C1670 C1671 1.394 1_455 S
C1671 C1667 1.397 . S
C1671 C1670 1.394 1_655 S
C1671 C1681 1.723 . S
C1672 C1669 1.453 . S
C1672 H1696 0.982 . S
C1672 H1697 0.979 . S
C1672 H1698 0.977 . S
C1673 C1669 1.684 . S
C1673 H1699 0.979 . S
C1673 H1700 0.980 . S
C1673 H1701 0.983 . S
C1674 H1650 0.948 . S
C1674 C1675 1.391 . S
C1674 C1679 1.391 . S
C1675 C1674 1.391 . S
C1675 C1676 1.391 . S
C1676 H1653 0.947 . S
C1676 C1675 1.391 . S
C1676 C1677 1.392 . S
C1677 H1654 0.948 . S
C1677 C1676 1.392 . S
C1677 C1678 1.419 . S
C1678 C1677 1.419 . S
C1678 C1679 1.391 . S
C1678 C1682 1.397 . S
C1679 C1674 1.391 . S
C1679 C1678 1.391 . S
C1679 C1680 1.399 . S
C1680 C1679 1.399 . S
C1680 C1681 1.396 . S
C1680 C1683 1.453 . S
C1680 C1684 1.684 . S
C1681 C1671 1.723 . S
C1681 C1680 1.396 . S
C1681 C1682 1.394 . S
C1682 C1652 1.723 1_655 S
C1682 C1678 1.397 . S
C1682 C1681 1.394 . S
C1683 H1655 0.982 . S
C1683 H1659 0.979 . S
C1683 H1660 0.977 . S
C1683 C1680 1.453 . S
C1684 H1656 0.979 . S
C1684 H1657 0.980 . S
C1684 H1658 0.983 . S
C1684 C1680 1.684 . S
H1685 C1703 0.948 . S
H1686 C1644 0.948 . S
H1687 C1662 0.979 . S
H1688 C1662 0.980 . S
H1689 C1662 0.983 . S
H1690 C1661 0.982 . S
H1691 C1661 0.979 . S
H1692 C1661 0.977 . S
H1693 C1663 0.948 . S
H1694 C1665 0.947 . S
H1695 C1666 0.948 . S
H1696 C1672 0.982 . S
H1697 C1672 0.979 . S
H1698 C1672 0.977 . S
H1699 C1673 0.979 . S
H1700 C1673 0.980 . S
H1701 C1673 0.983 . S
H1702 C1646 0.947 . S
C1703 C1646 1.392 . S
C1703 C1647 1.419 . S
C1703 H1685 0.948 . S
H1704 C1710 0.930 . S
H1705 C1714 0.930 . S
H1706 C1719 0.929 . S
H1707 C1717 0.929 . S
H1708 C1712 0.929 . S
H1709 C1718 0.929 . S
C1710 H1704 0.930 . S
C1710 C1711 1.367 . S
C1710 C1718 1.378 . S
C1711 C1710 1.367 . S
C1711 C1719 1.433 . S
C1712 H1708 0.929 . S
C1712 C1714 1.378 . S
C1712 C1716 1.350 . S
C1713 C1716 1.463 . S
C1713 C1718 1.350 . S
C1713 N1721 1.427 . S
C1714 H1705 0.930 . S
C1714 C1712 1.378 . S
C1714 C1715 1.367 . S
C1715 C1714 1.367 . S
C1715 C1717 1.433 . S
C1716 C1712 1.350 . S
C1716 C1713 1.463 . S
C1716 N1720 1.427 . S
C1717 H1707 0.929 . S
C1717 C1715 1.433 . S
C1717 N1720 1.384 . S
C1718 H1709 0.929 . S
C1718 C1710 1.378 . S
C1718 C1713 1.350 . S
C1719 H1706 0.929 . S
C1719 C1711 1.433 . S
C1719 N1721 1.384 . S
N1720 C1716 1.427 . S
N1720 C1717 1.384 . S
N1721 C1713 1.427 . S
N1721 C1719 1.384 . S
H1722 C1728 0.930 . S
H1723 C1732 0.930 . S
H1724 C1737 0.929 . S
H1725 C1735 0.929 . S
H1726 C1730 0.929 . S
H1727 C1736 0.929 . S
C1728 H1722 0.930 . S
C1728 C1729 1.367 . S
C1728 C1736 1.378 . S
C1729 C1728 1.367 . S
C1729 C1737 1.433 . S
C1730 H1726 0.929 . S
C1730 C1732 1.378 . S
C1730 C1734 1.350 . S
C1731 C1734 1.463 . S
C1731 C1736 1.350 . S
C1731 N1739 1.427 . S
C1732 H1723 0.930 . S
C1732 C1730 1.378 . S
C1732 C1733 1.367 . S
C1733 C1732 1.367 . S
C1733 C1735 1.433 . S
C1734 C1730 1.350 . S
C1734 C1731 1.463 . S
C1734 N1738 1.427 . S
C1735 H1725 0.929 . S
C1735 C1733 1.433 . S
C1735 N1738 1.384 . S
C1736 H1727 0.929 . S
C1736 C1728 1.378 . S
C1736 C1731 1.350 . S
C1737 H1724 0.929 . S
C1737 C1729 1.433 . S
C1737 N1739 1.384 . S
N1738 C1734 1.427 . S
N1738 C1735 1.384 . S
N1739 C1731 1.427 . S
N1739 C1737 1.384 . S
H1740 C1746 0.930 . S
H1741 C1750 0.930 1_565 S
H1742 C1755 0.929 . S
H1743 C1753 0.929 . S
H1744 C1748 0.929 1_565 S
H1745 C1754 0.929 . S
C1746 H1740 0.930 . S
C1746 C1747 1.367 . S
C1746 C1754 1.378 . S
C1747 C1746 1.367 . S
C1747 C1755 1.433 1_545 S
C1748 H1744 0.929 1_545 S
C1748 C1750 1.378 . S
C1748 C1752 1.350 . S
C1749 C1752 1.463 . S
C1749 C1754 1.350 . S
C1749 N1757 1.427 1_545 S
C1750 H1741 0.930 1_545 S
C1750 C1748 1.378 . S
C1750 C1751 1.367 . S
C1751 C1750 1.367 . S
C1751 C1753 1.433 . S
C1752 C1748 1.350 . S
C1752 C1749 1.463 . S
C1752 N1756 1.427 . S
C1753 H1743 0.929 . S
C1753 C1751 1.433 . S
C1753 N1756 1.384 . S
C1754 H1745 0.929 . S
C1754 C1746 1.378 . S
C1754 C1749 1.350 . S
C1755 H1742 0.929 . S
C1755 C1747 1.433 1_565 S
C1755 N1757 1.384 . S
N1756 C1752 1.427 . S
N1756 C1753 1.384 . S
N1757 C1749 1.427 1_565 S
N1757 C1755 1.384 . S
H1758 C1764 0.930 . S
H1759 C1768 0.930 . S
H1760 C1773 0.929 . S
H1761 C1771 0.929 . S
H1762 C1766 0.929 . S
H1763 C1772 0.929 . S
C1764 H1758 0.930 . S
C1764 C1765 1.367 . S
C1764 C1772 1.378 . S
C1765 C1764 1.367 . S
C1765 C1773 1.433 . S
C1766 H1762 0.929 . S
C1766 C1768 1.378 . S
C1766 C1770 1.350 . S
C1767 C1770 1.463 . S
C1767 C1772 1.350 . S
C1767 N1775 1.427 . S
C1768 H1759 0.930 . S
C1768 C1766 1.378 . S
C1768 C1769 1.367 . S
C1769 C1768 1.367 . S
C1769 C1771 1.433 . S
C1770 C1766 1.350 . S
C1770 C1767 1.463 . S
C1770 N1774 1.427 . S
C1771 H1761 0.929 . S
C1771 C1769 1.433 . S
C1771 N1774 1.384 . S
C1772 H1763 0.929 . S
C1772 C1764 1.378 . S
C1772 C1767 1.350 . S
C1773 H1760 0.929 . S
C1773 C1765 1.433 . S
C1773 N1775 1.384 . S
N1774 C1770 1.427 . S
N1774 C1771 1.384 . S
N1775 C1767 1.427 . S
N1775 C1773 1.384 . S
H1776 C1782 0.930 . S
H1777 C1786 0.930 . S
H1778 C1791 0.929 . S
H1779 C1789 0.929 . S
H1780 C1784 0.929 . S
H1781 C1790 0.929 . S
C1782 H1776 0.930 . S
C1782 C1783 1.367 . S
C1782 C1790 1.378 . S
C1783 C1782 1.367 . S
C1783 C1791 1.433 . S
C1784 H1780 0.929 . S
C1784 C1786 1.378 . S
C1784 C1788 1.350 . S
C1785 C1788 1.463 . S
C1785 C1790 1.350 . S
C1785 N1793 1.427 . S
C1786 H1777 0.930 . S
C1786 C1784 1.378 . S
C1786 C1787 1.367 . S
C1787 C1786 1.367 . S
C1787 C1789 1.433 . S
C1788 C1784 1.350 . S
C1788 C1785 1.463 . S
C1788 N1792 1.427 . S
C1789 H1779 0.929 . S
C1789 C1787 1.433 . S
C1789 N1792 1.384 . S
C1790 H1781 0.929 . S
C1790 C1782 1.378 . S
C1790 C1785 1.350 . S
C1791 H1778 0.929 . S
C1791 C1783 1.433 . S
C1791 N1793 1.384 . S
N1792 C1788 1.427 . S
N1792 C1789 1.384 . S
N1793 C1785 1.427 . S
N1793 C1791 1.384 . S
H1794 C1800 0.930 1_554 S
H1795 C1804 0.930 . S
H1796 C1809 0.929 . S
H1797 C1807 0.929 . S
H1798 C1802 0.929 . S
H1799 C1808 0.929 . S
C1800 H1794 0.930 1_556 S
C1800 C1801 1.367 . S
C1800 C1808 1.378 . S
C1801 C1800 1.367 . S
C1801 C1809 1.433 . S
C1802 H1798 0.929 . S
C1802 C1804 1.378 . S
C1802 C1806 1.350 . S
C1803 C1806 1.463 . S
C1803 C1808 1.350 . S
C1803 N1811 1.427 . S
C1804 H1795 0.930 . S
C1804 C1802 1.378 . S
C1804 C1805 1.367 . S
C1805 C1804 1.367 . S
C1805 C1807 1.433 . S
C1806 C1802 1.350 . S
C1806 C1803 1.463 . S
C1806 N1810 1.427 . S
C1807 H1797 0.929 . S
C1807 C1805 1.433 . S
C1807 N1810 1.384 . S
C1808 H1799 0.929 . S
C1808 C1800 1.378 . S
C1808 C1803 1.350 . S
C1809 H1796 0.929 . S
C1809 C1801 1.433 . S
C1809 N1811 1.384 . S
N1810 C1806 1.427 . S
N1810 C1807 1.384 . S
N1811 C1803 1.427 . S
N1811 C1809 1.384 . S
H1812 C1818 0.930 . S
H1813 C1822 0.930 . S
H1814 C1827 0.929 . S
H1815 C1825 0.929 . S
H1816 C1820 0.929 . S
H1817 C1826 0.929 . S
C1818 H1812 0.930 . S
C1818 C1819 1.367 . S
C1818 C1826 1.378 . S
C1819 C1818 1.367 . S
C1819 C1827 1.433 . S
C1820 H1816 0.929 . S
C1820 C1822 1.378 . S
C1820 C1824 1.350 . S
C1821 C1824 1.463 . S
C1821 C1826 1.350 . S
C1821 N1829 1.427 . S
C1822 H1813 0.930 . S
C1822 C1820 1.378 . S
C1822 C1823 1.367 . S
C1823 C1822 1.367 . S
C1823 C1825 1.433 . S
C1824 C1820 1.350 . S
C1824 C1821 1.463 . S
C1824 N1828 1.427 . S
C1825 H1815 0.929 . S
C1825 C1823 1.433 . S
C1825 N1828 1.384 . S
C1826 H1817 0.929 . S
C1826 C1818 1.378 . S
C1826 C1821 1.350 . S
C1827 H1814 0.929 . S
C1827 C1819 1.433 . S
C1827 N1829 1.384 . S
N1828 C1824 1.427 . S
N1828 C1825 1.384 . S
N1829 C1821 1.427 . S
N1829 C1827 1.384 . S
H1830 C1836 0.930 . S
H1831 C1840 0.930 . S
H1832 C1845 0.929 . S
H1833 C1843 0.929 . S
H1834 C1838 0.929 . S
H1835 C1844 0.916 1_556 S
C1836 H1830 0.930 . S
C1836 C1837 1.367 1_556 S
C1836 C1844 1.373 1_556 S
C1837 C1836 1.367 1_554 S
C1837 C1845 1.433 . S
C1838 H1834 0.929 . S
C1838 C1840 1.378 . S
C1838 C1842 1.350 . S
C1839 C1842 1.463 . S
C1839 C1844 1.367 . S
C1839 N1847 1.427 . S
C1840 H1831 0.930 . S
C1840 C1838 1.378 . S
C1840 C1841 1.367 . S
C1841 C1840 1.367 . S
C1841 C1843 1.433 . S
C1842 C1838 1.350 . S
C1842 C1839 1.463 . S
C1842 N1846 1.427 . S
C1843 H1833 0.929 . S
C1843 C1841 1.433 . S
C1843 N1846 1.384 . S
C1844 H1835 0.916 1_554 S
C1844 C1836 1.373 1_554 S
C1844 C1839 1.367 . S
C1845 H1832 0.929 . S
C1845 C1837 1.433 . S
C1845 N1847 1.384 . S
N1846 C1842 1.427 . S
N1846 C1843 1.384 . S
N1847 C1839 1.427 . S
N1847 C1845 1.384 . S
H1848 C1854 0.930 . S
H1849 C1858 0.930 . S
H1850 C1863 0.929 . S
H1851 C1861 0.929 . S
H1852 C1856 0.929 . S
H1853 C1862 0.929 . S
C1854 H1848 0.930 . S
C1854 C1855 1.367 . S
C1854 C1862 1.378 . S
C1855 C1854 1.367 . S
C1855 C1863 1.433 . S
C1856 H1852 0.929 . S
C1856 C1858 1.378 . S
C1856 C1860 1.350 . S
C1857 C1860 1.463 . S
C1857 C1862 1.350 . S
C1857 N1865 1.427 . S
C1858 H1849 0.930 . S
C1858 C1856 1.378 . S
C1858 C1859 1.367 . S
C1859 C1858 1.367 . S
C1859 C1861 1.433 . S
C1860 C1856 1.350 . S
C1860 C1857 1.463 . S
C1860 N1864 1.427 . S
C1861 H1851 0.929 . S
C1861 C1859 1.433 . S
C1861 N1864 1.384 . S
C1862 H1853 0.929 . S
C1862 C1854 1.378 . S
C1862 C1857 1.350 . S
C1863 H1850 0.929 . S
C1863 C1855 1.433 . S
C1863 N1865 1.384 . S
N1864 C1860 1.427 . S
N1864 C1861 1.384 . S
N1865 C1857 1.427 . S
N1865 C1863 1.384 . S
H1866 C1872 0.930 . S
H1867 C1876 0.930 . S
H1868 C1881 0.929 . S
H1869 C1879 0.929 . S
H1870 C1874 0.929 1_455 S
H1871 C1880 0.929 . S
C1872 H1866 0.930 . S
C1872 C1873 1.367 . S
C1872 C1880 1.378 . S
C1873 C1872 1.367 . S
C1873 C1881 1.433 1_655 S
C1874 H1870 0.929 1_655 S
C1874 C1876 1.378 . S
C1874 C1878 1.350 . S
C1875 C1878 1.463 . S
C1875 C1880 1.350 . S
C1875 N1883 1.394 1_655 S
C1876 H1867 0.930 . S
C1876 C1874 1.378 . S
C1876 C1877 1.367 . S
C1877 C1876 1.367 . S
C1877 C1879 1.433 . S
C1878 C1874 1.350 . S
C1878 C1875 1.463 . S
C1878 N1882 1.427 . S
C1879 H1869 0.929 . S
C1879 C1877 1.433 . S
C1879 N1882 1.384 . S
C1880 H1871 0.929 . S
C1880 C1872 1.378 . S
C1880 C1875 1.350 . S
C1881 H1868 0.929 . S
C1881 C1873 1.433 1_455 S
C1881 N1883 1.394 . S
N1882 C1878 1.427 . S
N1882 C1879 1.384 . S
N1883 C1875 1.394 1_455 S
N1883 C1881 1.394 . S
H1884 C1890 0.930 . S
H1885 C1894 0.930 . S
H1886 C1899 0.929 . S
H1887 C1897 0.929 . S
H1888 C1892 0.929 . S
H1889 C1898 0.929 . S
C1890 H1884 0.930 . S
C1890 C1891 1.367 . S
C1890 C1898 1.378 . S
C1891 C1890 1.367 . S
C1891 C1899 1.433 . S
C1892 H1888 0.929 . S
C1892 C1894 1.378 . S
C1892 C1896 1.350 . S
C1893 C1896 1.463 . S
C1893 C1898 1.350 . S
C1893 N1901 1.427 . S
C1894 H1885 0.930 . S
C1894 C1892 1.378 . S
C1894 C1895 1.367 . S
C1895 C1894 1.367 . S
C1895 C1897 1.433 . S
C1896 C1892 1.350 . S
C1896 C1893 1.463 . S
C1896 N1900 1.427 . S
C1897 H1887 0.929 . S
C1897 C1895 1.433 . S
C1897 N1900 1.384 . S
C1898 H1889 0.929 . S
C1898 C1890 1.378 . S
C1898 C1893 1.350 . S
C1899 H1886 0.929 . S
C1899 C1891 1.433 . S
C1899 N1901 1.384 . S
N1900 C1896 1.427 . S
N1900 C1897 1.384 . S
N1901 C1893 1.427 . S
N1901 C1899 1.384 . S
H1902 C1908 0.930 . S
H1903 C1912 0.930 . S
H1904 C1917 0.929 . S
H1905 C1915 0.929 . S
H1906 C1910 0.929 1_655 S
H1907 C1916 0.929 . S
C1908 H1902 0.930 . S
C1908 C1909 1.367 . S
C1908 C1916 1.378 . S
C1909 C1908 1.367 . S
C1909 C1917 1.433 1_455 S
C1910 H1906 0.929 1_455 S
C1910 C1912 1.378 . S
C1910 C1914 1.350 . S
C1911 C1914 1.463 . S
C1911 C1916 1.350 . S
C1911 N1919 1.380 1_455 S
C1912 H1903 0.930 . S
C1912 C1910 1.378 . S
C1912 C1913 1.367 . S
C1913 C1912 1.367 . S
C1913 C1915 1.433 . S
C1914 C1910 1.350 . S
C1914 C1911 1.463 . S
C1914 N1918 1.427 . S
C1915 H1905 0.929 . S
C1915 C1913 1.433 . S
C1915 N1918 1.384 . S
C1916 H1907 0.929 . S
C1916 C1908 1.378 . S
C1916 C1911 1.350 . S
C1917 H1904 0.929 . S
C1917 C1909 1.433 1_655 S
C1917 N1919 1.397 . S
N1918 C1914 1.427 . S
N1918 C1915 1.384 . S
N1919 C1911 1.380 1_655 S
N1919 C1917 1.397 . S
H1920 C1926 0.930 . S
H1921 C1930 0.930 . S
H1922 C1935 0.929 . S
H1923 C1933 0.929 . S
H1924 C1928 0.929 . S
H1925 C1934 0.929 . S
C1926 H1920 0.930 . S
C1926 C1927 1.367 . S
C1926 C1934 1.378 . S
C1927 C1926 1.367 . S
C1927 C1935 1.433 . S
C1928 H1924 0.929 . S
C1928 C1930 1.378 . S
C1928 C1932 1.350 . S
C1929 C1932 1.463 . S
C1929 C1934 1.350 . S
C1929 N1937 1.427 . S
C1930 H1921 0.930 . S
C1930 C1928 1.378 . S
C1930 C1931 1.367 . S
C1931 C1930 1.367 . S
C1931 C1933 1.433 . S
C1932 C1928 1.350 . S
C1932 C1929 1.463 . S
C1932 N1936 1.427 . S
C1933 H1923 0.929 . S
C1933 C1931 1.433 . S
C1933 N1936 1.384 . S
C1934 H1925 0.929 . S
C1934 C1926 1.378 . S
C1934 C1929 1.350 . S
C1935 H1922 0.929 . S
C1935 C1927 1.433 . S
C1935 N1937 1.384 . S
N1936 C1932 1.427 . S
N1936 C1933 1.384 . S
N1937 C1929 1.427 . S
N1937 C1935 1.384 . S
H1938 C1944 0.930 . S
H1939 C1948 0.930 . S
H1940 C1953 0.929 . S
H1941 C1951 0.929 . S
H1942 C1946 0.929 . S
H1943 C1952 0.929 . S
C1944 H1938 0.930 . S
C1944 C1945 1.367 . S
C1944 C1952 1.378 . S
C1945 C1944 1.367 . S
C1945 C1953 1.433 . S
C1946 H1942 0.929 . S
C1946 C1948 1.378 . S
C1946 C1950 1.350 . S
C1947 C1950 1.463 . S
C1947 C1952 1.350 . S
C1947 N1955 1.427 . S
C1948 H1939 0.930 . S
C1948 C1946 1.378 . S
C1948 C1949 1.367 . S
C1949 C1948 1.367 . S
C1949 C1951 1.433 . S
C1950 C1946 1.350 . S
C1950 C1947 1.463 . S
C1950 N1954 1.427 . S
C1951 H1941 0.929 . S
C1951 C1949 1.433 . S
C1951 N1954 1.384 . S
C1952 H1943 0.929 . S
C1952 C1944 1.378 . S
C1952 C1947 1.350 . S
C1953 H1940 0.929 . S
C1953 C1945 1.433 . S
C1953 N1955 1.384 . S
N1954 C1950 1.427 . S
N1954 C1951 1.384 . S
N1955 C1947 1.427 . S
N1955 C1953 1.384 . S
H1956 C1962 0.930 . S
H1957 C1966 0.930 . S
H1958 C1971 0.929 . S
H1959 C1969 0.929 . S
H1960 C1964 0.929 . S
H1961 C1970 0.929 1_545 S
C1962 H1956 0.930 . S
C1962 C1963 1.367 1_545 S
C1962 C1970 1.378 1_545 S
C1963 C1962 1.367 1_565 S
C1963 C1971 1.433 . S
C1964 H1960 0.929 . S
C1964 C1966 1.378 . S
C1964 C1968 1.350 . S
C1965 C1968 1.463 . S
C1965 C1970 1.350 . S
C1965 N1973 1.427 . S
C1966 H1957 0.930 . S
C1966 C1964 1.378 . S
C1966 C1967 1.367 . S
C1967 C1966 1.367 . S
C1967 C1969 1.433 . S
C1968 C1964 1.350 . S
C1968 C1965 1.463 . S
C1968 N1972 1.427 . S
C1969 H1959 0.929 . S
C1969 C1967 1.433 . S
C1969 N1972 1.384 . S
C1970 H1961 0.929 1_565 S
C1970 C1962 1.378 1_565 S
C1970 C1965 1.350 . S
C1971 H1958 0.929 . S
C1971 C1963 1.433 . S
C1971 N1973 1.384 . S
N1972 C1968 1.427 . S
N1972 C1969 1.384 . S
N1973 C1965 1.427 . S
N1973 C1971 1.384 . S
H1974 C1980 0.930 . S
H1975 C1984 0.930 . S
H1976 C1989 0.929 1_565 S
H1977 C1987 0.929 . S
H1978 C1982 0.929 . S
H1979 C1988 0.929 . S
C1980 H1974 0.930 . S
C1980 C1981 1.367 . S
C1980 C1988 1.378 . S
C1981 C1980 1.367 . S
C1981 C1989 1.433 . S
C1982 H1978 0.929 . S
C1982 C1984 1.378 . S
C1982 C1986 1.350 . S
C1983 C1986 1.463 . S
C1983 C1988 1.350 . S
C1983 N1991 1.427 . S
C1984 H1975 0.930 . S
C1984 C1982 1.378 . S
C1984 C1985 1.367 . S
C1985 C1984 1.367 . S
C1985 C1987 1.433 . S
C1986 C1982 1.350 . S
C1986 C1983 1.463 . S
C1986 N1990 1.427 . S
C1987 H1977 0.929 . S
C1987 C1985 1.433 . S
C1987 N1990 1.384 . S
C1988 H1979 0.929 . S
C1988 C1980 1.378 . S
C1988 C1983 1.350 . S
C1989 H1976 0.929 1_545 S
C1989 C1981 1.433 . S
C1989 N1991 1.384 . S
N1990 C1986 1.427 . S
N1990 C1987 1.384 . S
N1991 C1983 1.427 . S
N1991 C1989 1.384 . S
H1992 C1998 0.930 . S
H1993 C2002 0.930 . S
H1994 C2007 0.929 . S
H1995 C2005 0.929 . S
H1996 C2000 0.929 . S
H1997 C2006 0.929 . S
C1998 H1992 0.930 . S
C1998 C1999 1.367 . S
C1998 C2006 1.378 . S
C1999 C1998 1.367 . S
C1999 C2007 1.433 . S
C2000 H1996 0.929 . S
C2000 C2002 1.378 . S
C2000 C2004 1.350 . S
C2001 C2004 1.463 . S
C2001 C2006 1.350 . S
C2001 N2009 1.427 . S
C2002 H1993 0.930 . S
C2002 C2000 1.378 . S
C2002 C2003 1.367 . S
C2003 C2002 1.367 . S
C2003 C2005 1.433 . S
C2004 C2000 1.350 . S
C2004 C2001 1.463 . S
C2004 N2008 1.427 . S
C2005 H1995 0.929 . S
C2005 C2003 1.433 . S
C2005 N2008 1.384 . S
C2006 H1997 0.929 . S
C2006 C1998 1.378 . S
C2006 C2001 1.350 . S
C2007 H1994 0.929 . S
C2007 C1999 1.433 . S
C2007 N2009 1.384 . S
N2008 C2004 1.427 . S
N2008 C2005 1.384 . S
N2009 C2001 1.427 . S
N2009 C2007 1.384 . S
H2010 C2016 0.930 . S
H2011 C2020 0.930 . S
H2012 C2025 0.929 . S
H2013 C2023 0.929 . S
H2014 C2018 0.929 1_556 S
H2015 C2024 0.929 . S
C2016 H2010 0.930 . S
C2016 C2017 1.367 . S
C2016 C2024 1.378 . S
C2017 C2016 1.367 . S
C2017 C2025 1.433 1_554 S
C2018 H2014 0.929 1_554 S
C2018 C2020 1.378 . S
C2018 C2022 1.350 . S
C2019 C2022 1.463 . S
C2019 C2024 1.350 . S
C2019 N2027 1.425 . S
C2020 H2011 0.930 . S
C2020 C2018 1.378 . S
C2020 C2021 1.367 . S
C2021 C2020 1.367 . S
C2021 C2023 1.433 . S
C2022 C2018 1.350 . S
C2022 C2019 1.463 . S
C2022 N2026 1.427 . S
C2023 H2013 0.929 . S
C2023 C2021 1.433 . S
C2023 N2026 1.384 . S
C2024 H2015 0.929 . S
C2024 C2016 1.378 . S
C2024 C2019 1.350 . S
C2025 H2012 0.929 . S
C2025 C2017 1.433 1_556 S
C2025 N2027 1.384 1_556 S
N2026 C2022 1.427 . S
N2026 C2023 1.384 . S
N2027 C2019 1.425 . S
N2027 C2025 1.384 1_554 S
H2028 C2034 0.930 . S
H2029 C2038 0.930 . S
H2030 C2043 0.929 . S
H2031 C2041 0.929 . S
H2032 C2036 0.929 . S
H2033 C2042 0.929 . S
C2034 H2028 0.930 . S
C2034 C2035 1.367 . S
C2034 C2042 1.378 . S
C2035 C2034 1.367 . S
C2035 C2043 1.433 . S
C2036 H2032 0.929 . S
C2036 C2038 1.378 . S
C2036 C2040 1.350 . S
C2037 C2040 1.463 . S
C2037 C2042 1.350 . S
C2037 N2045 1.427 . S
C2038 H2029 0.930 . S
C2038 C2036 1.378 . S
C2038 C2039 1.367 . S
C2039 C2038 1.367 . S
C2039 C2041 1.433 . S
C2040 C2036 1.350 . S
C2040 C2037 1.463 . S
C2040 N2044 1.427 . S
C2041 H2031 0.929 . S
C2041 C2039 1.433 . S
C2041 N2044 1.384 . S
C2042 H2033 0.929 . S
C2042 C2034 1.378 . S
C2042 C2037 1.350 . S
C2043 H2030 0.929 . S
C2043 C2035 1.433 . S
C2043 N2045 1.384 . S
N2044 C2040 1.427 . S
N2044 C2041 1.384 . S
N2045 C2037 1.427 . S
N2045 C2043 1.384 . S
H2046 C2052 0.930 . S
H2047 C2056 0.930 . S
H2048 C2061 0.929 . S
H2049 C2059 0.929 . S
H2050 C2054 0.929 1_554 S
H2051 C2060 0.929 . S
C2052 H2046 0.930 . S
C2052 C2053 1.367 . S
C2052 C2060 1.378 . S
C2053 C2052 1.367 . S
C2053 C2061 1.433 1_556 S
C2054 H2050 0.929 1_556 S
C2054 C2056 1.378 . S
C2054 C2058 1.350 . S
C2055 C2058 1.463 . S
C2055 C2060 1.350 . S
C2055 N2063 1.427 . S
C2056 H2047 0.930 . S
C2056 C2054 1.378 . S
C2056 C2057 1.367 . S
C2057 C2056 1.367 . S
C2057 C2059 1.433 . S
C2058 C2054 1.350 . S
C2058 C2055 1.463 . S
C2058 N2062 1.427 . S
C2059 H2049 0.929 . S
C2059 C2057 1.433 . S
C2059 N2062 1.384 . S
C2060 H2051 0.929 . S
C2060 C2052 1.378 . S
C2060 C2055 1.350 . S
C2061 H2048 0.929 . S
C2061 C2053 1.433 1_554 S
C2061 N2063 1.384 1_554 S
N2062 C2058 1.427 . S
N2062 C2059 1.384 . S
N2063 C2055 1.427 . S
N2063 C2061 1.384 1_556 S
H2064 C2070 0.930 . S
H2065 C2074 0.930 . S
H2066 C2079 0.929 . S
H2067 C2077 0.929 . S
H2068 C2072 0.929 . S
H2069 C2078 0.929 . S
C2070 H2064 0.930 . S
C2070 C2071 1.367 . S
C2070 C2078 1.378 . S
C2071 C2070 1.367 . S
C2071 C2079 1.433 . S
C2072 H2068 0.929 . S
C2072 C2074 1.378 . S
C2072 C2076 1.350 . S
C2073 C2076 1.463 . S
C2073 C2078 1.350 . S
C2073 N2081 1.427 . S
C2074 H2065 0.930 . S
C2074 C2072 1.378 . S
C2074 C2075 1.367 . S
C2075 C2074 1.367 . S
C2075 C2077 1.433 . S
C2076 C2072 1.350 . S
C2076 C2073 1.463 . S
C2076 N2080 1.427 . S
C2077 H2067 0.929 . S
C2077 C2075 1.433 . S
C2077 N2080 1.384 . S
C2078 H2069 0.929 . S
C2078 C2070 1.378 . S
C2078 C2073 1.350 . S
C2079 H2066 0.929 . S
C2079 C2071 1.433 . S
C2079 N2081 1.384 . S
N2080 C2076 1.427 . S
N2080 C2077 1.384 . S
N2081 C2073 1.427 . S
N2081 C2079 1.384 . S
H2082 C2088 0.930 1_655 S
H2083 C2092 0.930 . S
H2084 C2097 0.929 . S
H2085 C2095 0.929 . S
H2086 C2090 0.929 . S
H2087 C2096 0.928 . S
C2088 H2082 0.930 1_455 S
C2088 C2089 1.367 . S
C2088 C2096 1.378 . S
C2089 C2088 1.367 . S
C2089 C2097 1.433 . S
C2090 H2086 0.929 . S
C2090 C2092 1.378 . S
C2090 C2094 1.350 . S
C2091 C2094 1.463 . S
C2091 C2096 1.350 . S
C2091 N2099 1.427 . S
C2092 H2083 0.930 . S
C2092 C2090 1.378 . S
C2092 C2093 1.367 . S
C2093 C2092 1.367 . S
C2093 C2095 1.433 . S
C2094 C2090 1.350 . S
C2094 C2091 1.463 . S
C2094 N2098 1.427 . S
C2095 H2085 0.929 . S
C2095 C2093 1.433 . S
C2095 N2098 1.384 . S
C2096 H2087 0.928 . S
C2096 C2088 1.378 . S
C2096 C2091 1.350 . S
C2097 H2084 0.929 . S
C2097 C2089 1.433 . S
C2097 N2099 1.384 . S
N2098 C2094 1.427 . S
N2098 C2095 1.384 . S
N2099 C2091 1.427 . S
N2099 C2097 1.384 . S
H2100 C2106 0.930 . S
H2101 C2110 0.930 . S
H2102 C2115 0.929 . S
H2103 C2113 0.929 . S
H2104 C2108 0.929 . S
H2105 C2114 0.929 . S
C2106 H2100 0.930 . S
C2106 C2107 1.367 . S
C2106 C2114 1.378 . S
C2107 C2106 1.367 . S
C2107 C2115 1.433 . S
C2108 H2104 0.929 . S
C2108 C2110 1.378 . S
C2108 C2112 1.350 . S
C2109 C2112 1.463 . S
C2109 C2114 1.350 . S
C2109 N2117 1.427 . S
C2110 H2101 0.930 . S
C2110 C2108 1.378 . S
C2110 C2111 1.367 . S
C2111 C2110 1.367 . S
C2111 C2113 1.433 . S
C2112 C2108 1.350 . S
C2112 C2109 1.463 . S
C2112 N2116 1.427 . S
C2113 H2103 0.929 . S
C2113 C2111 1.433 . S
C2113 N2116 1.384 . S
C2114 H2105 0.929 . S
C2114 C2106 1.378 . S
C2114 C2109 1.350 . S
C2115 H2102 0.929 . S
C2115 C2107 1.433 . S
C2115 N2117 1.384 . S
N2116 C2112 1.427 . S
N2116 C2113 1.384 . S
N2117 C2109 1.427 . S
N2117 C2115 1.384 . S
H2118 C2124 0.930 . S
H2119 C2128 0.925 1_455 S
H2120 C2133 0.929 . S
H2121 C2131 0.929 . S
H2122 C2126 0.929 1_455 S
H2123 C2132 0.929 . S
C2124 H2118 0.930 . S
C2124 C2125 1.367 . S
C2124 C2132 1.378 . S
C2125 C2124 1.367 . S
C2125 C2133 1.433 1_655 S
C2126 H2122 0.929 1_655 S
C2126 C2128 1.378 . S
C2126 C2130 1.350 . S
C2127 C2130 1.463 . S
C2127 C2132 1.350 . S
C2127 N2135 1.427 1_655 S
C2128 H2119 0.925 1_655 S
C2128 C2126 1.378 . S
C2128 C2129 1.367 . S
C2129 C2128 1.367 . S
C2129 C2131 1.433 . S
C2130 C2126 1.350 . S
C2130 C2127 1.463 . S
C2130 N2134 1.427 . S
C2131 H2121 0.929 . S
C2131 C2129 1.433 . S
C2131 N2134 1.384 . S
C2132 H2123 0.929 . S
C2132 C2124 1.378 . S
C2132 C2127 1.350 . S
C2133 H2120 0.929 . S
C2133 C2125 1.433 1_455 S
C2133 N2135 1.384 . S
N2134 C2130 1.427 . S
N2134 C2131 1.384 . S
N2135 C2127 1.427 1_455 S
N2135 C2133 1.384 . S
H2136 C2142 0.930 . S
H2137 C2146 0.930 . S
H2138 C2151 0.929 . S
H2139 C2149 0.929 . S
H2140 C2144 0.929 . S
H2141 C2150 0.929 . S
C2142 H2136 0.930 . S
C2142 C2143 1.367 . S
C2142 C2150 1.378 . S
C2143 C2142 1.367 . S
C2143 C2151 1.433 . S
C2144 H2140 0.929 . S
C2144 C2146 1.378 . S
C2144 C2148 1.350 . S
C2145 C2148 1.463 . S
C2145 C2150 1.350 . S
C2145 N2153 1.427 . S
C2146 H2137 0.930 . S
C2146 C2144 1.378 . S
C2146 C2147 1.367 . S
C2147 C2146 1.367 . S
C2147 C2149 1.433 . S
C2148 C2144 1.350 . S
C2148 C2145 1.463 . S
C2148 N2152 1.427 . S
C2149 H2139 0.929 . S
C2149 C2147 1.433 . S
C2149 N2152 1.384 . S
C2150 H2141 0.929 . S
C2150 C2142 1.378 . S
C2150 C2145 1.350 . S
C2151 H2138 0.929 . S
C2151 C2143 1.433 . S
C2151 N2153 1.384 . S
N2152 C2148 1.427 . S
N2152 C2149 1.384 . S
N2153 C2145 1.427 . S
N2153 C2151 1.384 . S
H2154 C2160 0.930 . S
H2155 C2164 0.930 . S
H2156 C2169 0.929 . S
H2157 C2167 0.929 . S
H2158 C2162 0.929 . S
H2159 C2168 0.929 . S
C2160 H2154 0.930 . S
C2160 C2161 1.367 . S
C2160 C2168 1.378 . S
C2161 C2160 1.367 . S
C2161 C2169 1.433 . S
C2162 H2158 0.929 . S
C2162 C2164 1.378 . S
C2162 C2166 1.350 . S
C2163 C2166 1.463 . S
C2163 C2168 1.350 . S
C2163 N2171 1.427 . S
C2164 H2155 0.930 . S
C2164 C2162 1.378 . S
C2164 C2165 1.367 . S
C2165 C2164 1.367 . S
C2165 C2167 1.433 . S
C2166 C2162 1.350 . S
C2166 C2163 1.463 . S
C2166 N2170 1.427 . S
C2167 H2157 0.929 . S
C2167 C2165 1.433 . S
C2167 N2170 1.384 . S
C2168 H2159 0.929 . S
C2168 C2160 1.378 . S
C2168 C2163 1.350 . S
C2169 H2156 0.929 . S
C2169 C2161 1.433 . S
C2169 N2171 1.384 . S
N2170 C2166 1.427 . S
N2170 C2167 1.384 . S
N2171 C2163 1.427 . S
N2171 C2169 1.384 . S
H2172 C2178 0.930 . S
H2173 C2182 0.930 . S
H2174 C2187 0.929 . S
H2175 C2185 0.929 . S
H2176 C2180 0.929 . S
H2177 C2186 0.929 . S
C2178 H2172 0.930 . S
C2178 C2179 1.367 1_545 S
C2178 C2186 1.378 . S
C2179 C2178 1.367 1_565 S
C2179 C2187 1.433 . S
C2180 H2176 0.929 . S
C2180 C2182 1.378 . S
C2180 C2184 1.341 1_565 S
C2181 C2184 1.458 1_565 S
C2181 C2186 1.350 1_565 S
C2181 N2189 1.427 . S
C2182 H2173 0.930 . S
C2182 C2180 1.378 . S
C2182 C2183 1.367 1_565 S
C2183 C2182 1.367 1_545 S
C2183 C2185 1.433 . S
C2184 C2180 1.341 1_545 S
C2184 C2181 1.458 1_545 S
C2184 N2188 1.443 . S
C2185 H2175 0.929 . S
C2185 C2183 1.433 . S
C2185 N2188 1.384 . S
C2186 H2177 0.929 . S
C2186 C2178 1.378 . S
C2186 C2181 1.350 1_545 S
C2187 H2174 0.929 . S
C2187 C2179 1.433 . S
C2187 N2189 1.384 . S
N2188 C2184 1.443 . S
N2188 C2185 1.384 . S
N2189 C2181 1.427 . S
N2189 C2187 1.384 . S
H2190 C2196 0.930 . S
H2191 C2200 0.930 . S
H2192 C2205 0.952 . S
H2193 C2203 0.929 . S
H2194 C2198 0.929 . S
H2195 C2204 0.929 . S
C2196 H2190 0.930 . S
C2196 C2197 1.367 . S
C2196 C2204 1.378 . S
C2197 C2196 1.367 . S
C2197 C2205 1.408 1_545 S
C2198 H2194 0.929 . S
C2198 C2200 1.378 . S
C2198 C2202 1.350 1_565 S
C2199 C2202 1.463 . S
C2199 C2204 1.350 . S
C2199 N2207 1.427 1_545 S
C2200 H2191 0.930 . S
C2200 C2198 1.378 . S
C2200 C2201 1.367 1_565 S
C2201 C2200 1.367 1_545 S
C2201 C2203 1.433 . S
C2202 C2198 1.350 1_545 S
C2202 C2199 1.463 . S
C2202 N2206 1.427 . S
C2203 H2193 0.929 . S
C2203 C2201 1.433 . S
C2203 N2206 1.384 . S
C2204 H2195 0.929 . S
C2204 C2196 1.378 . S
C2204 C2199 1.350 . S
C2205 H2192 0.952 . S
C2205 C2197 1.408 1_565 S
C2205 N2207 1.385 . S
N2206 C2202 1.427 . S
N2206 C2203 1.384 . S
N2207 C2199 1.427 1_565 S
N2207 C2205 1.385 . S
H2208 C2214 0.930 . S
H2209 C2218 0.930 . S
H2210 C2223 0.929 . S
H2211 C2221 0.929 . S
H2212 C2216 0.929 . S
H2213 C2222 0.929 . S
C2214 H2208 0.930 . S
C2214 C2215 1.367 . S
C2214 C2222 1.378 . S
C2215 C2214 1.367 . S
C2215 C2223 1.433 . S
C2216 H2212 0.929 . S
C2216 C2218 1.378 . S
C2216 C2220 1.350 . S
C2217 C2220 1.463 . S
C2217 C2222 1.350 . S
C2217 N2225 1.427 . S
C2218 H2209 0.930 . S
C2218 C2216 1.378 . S
C2218 C2219 1.367 . S
C2219 C2218 1.367 . S
C2219 C2221 1.433 . S
C2220 C2216 1.350 . S
C2220 C2217 1.463 . S
C2220 N2224 1.427 . S
C2221 H2211 0.929 . S
C2221 C2219 1.433 . S
C2221 N2224 1.384 . S
C2222 H2213 0.929 . S
C2222 C2214 1.378 . S
C2222 C2217 1.350 . S
C2223 H2210 0.929 . S
C2223 C2215 1.433 . S
C2223 N2225 1.384 . S
N2224 C2220 1.427 . S
N2224 C2221 1.384 . S
N2225 C2217 1.427 . S
N2225 C2223 1.384 . S
H2226 C2232 0.930 . S
H2227 C2236 0.930 . S
H2228 C2241 0.929 . S
H2229 C2239 0.929 . S
H2230 C2234 0.929 . S
H2231 C2240 0.929 . S
C2232 H2226 0.930 . S
C2232 C2233 1.367 . S
C2232 C2240 1.378 . S
C2233 C2232 1.367 . S
C2233 C2241 1.433 . S
C2234 H2230 0.929 . S
C2234 C2236 1.378 . S
C2234 C2238 1.350 1_556 S
C2235 C2238 1.463 . S
C2235 C2240 1.350 . S
C2235 N2243 1.427 . S
C2236 H2227 0.930 . S
C2236 C2234 1.378 . S
C2236 C2237 1.367 1_556 S
C2237 C2236 1.367 1_554 S
C2237 C2239 1.433 . S
C2238 C2234 1.350 1_554 S
C2238 C2235 1.463 . S
C2238 N2242 1.427 . S
C2239 H2229 0.929 . S
C2239 C2237 1.433 . S
C2239 N2242 1.384 . S
C2240 H2231 0.929 . S
C2240 C2232 1.378 . S
C2240 C2235 1.350 . S
C2241 H2228 0.929 . S
C2241 C2233 1.433 . S
C2241 N2243 1.384 . S
N2242 C2238 1.427 . S
N2242 C2239 1.384 . S
N2243 C2235 1.427 . S
N2243 C2241 1.384 . S
H2244 C2250 0.930 . S
H2245 C2254 0.930 . S
H2246 C2259 0.929 . S
H2247 C2257 0.929 . S
H2248 C2252 0.929 . S
H2249 C2258 0.929 . S
C2250 H2244 0.930 . S
C2250 C2251 1.367 . S
C2250 C2258 1.378 . S
C2251 C2250 1.367 . S
C2251 C2259 1.433 . S
C2252 H2248 0.929 . S
C2252 C2254 1.378 . S
C2252 C2256 1.350 . S
C2253 C2256 1.463 . S
C2253 C2258 1.350 . S
C2253 N2261 1.427 . S
C2254 H2245 0.930 . S
C2254 C2252 1.378 . S
C2254 C2255 1.367 . S
C2255 C2254 1.367 . S
C2255 C2257 1.433 . S
C2256 C2252 1.350 . S
C2256 C2253 1.463 . S
C2256 N2260 1.427 . S
C2257 H2247 0.929 . S
C2257 C2255 1.433 . S
C2257 N2260 1.384 . S
C2258 H2249 0.929 . S
C2258 C2250 1.378 . S
C2258 C2253 1.350 . S
C2259 H2246 0.929 . S
C2259 C2251 1.433 . S
C2259 N2261 1.384 . S
N2260 C2256 1.427 . S
N2260 C2257 1.384 . S
N2261 C2253 1.427 . S
N2261 C2259 1.384 . S
H2262 C2268 0.930 . S
H2263 C2272 0.930 . S
H2264 C2277 0.929 . S
H2265 C2275 0.929 . S
H2266 C2270 0.929 . S
H2267 C2276 0.929 . S
C2268 H2262 0.930 . S
C2268 C2269 1.367 . S
C2268 C2276 1.378 . S
C2269 C2268 1.367 . S
C2269 C2277 1.433 1_556 S
C2270 H2266 0.929 . S
C2270 C2272 1.378 . S
C2270 C2274 1.350 . S
C2271 C2274 1.463 1_556 S
C2271 C2276 1.350 . S
C2271 N2279 1.427 1_556 S
C2272 H2263 0.930 . S
C2272 C2270 1.378 . S
C2272 C2273 1.367 . S
C2273 C2272 1.367 . S
C2273 C2275 1.433 1_554 S
C2274 C2270 1.350 . S
C2274 C2271 1.463 1_554 S
C2274 N2278 1.427 1_554 S
C2275 H2265 0.929 . S
C2275 C2273 1.433 1_556 S
C2275 N2278 1.384 . S
C2276 H2267 0.929 . S
C2276 C2268 1.378 . S
C2276 C2271 1.350 . S
C2277 H2264 0.929 . S
C2277 C2269 1.433 1_554 S
C2277 N2279 1.384 . S
N2278 C2274 1.427 1_556 S
N2278 C2275 1.384 . S
N2279 C2271 1.427 1_554 S
N2279 C2277 1.384 . S
H2280 C2286 0.930 . S
H2281 C2290 0.930 . S
H2282 C2295 0.929 . S
H2283 C2293 0.929 . S
H2284 C2288 0.929 . S
H2285 C2294 0.929 . S
C2286 H2280 0.930 . S
C2286 C2287 1.367 . S
C2286 C2294 1.378 . S
C2287 C2286 1.367 . S
C2287 C2295 1.433 . S
C2288 H2284 0.929 . S
C2288 C2290 1.378 . S
C2288 C2292 1.350 . S
C2289 C2292 1.463 . S
C2289 C2294 1.350 . S
C2289 N2297 1.427 . S
C2290 H2281 0.930 . S
C2290 C2288 1.378 . S
C2290 C2291 1.367 . S
C2291 C2290 1.367 . S
C2291 C2293 1.433 . S
C2292 C2288 1.350 . S
C2292 C2289 1.463 . S
C2292 N2296 1.427 . S
C2293 H2283 0.929 . S
C2293 C2291 1.433 . S
C2293 N2296 1.384 . S
C2294 H2285 0.929 . S
C2294 C2286 1.378 . S
C2294 C2289 1.350 . S
C2295 H2282 0.929 . S
C2295 C2287 1.433 . S
C2295 N2297 1.384 . S
N2296 C2292 1.427 . S
N2296 C2293 1.384 . S
N2297 C2289 1.427 . S
N2297 C2295 1.384 . S
H2298 C2304 0.930 . S
H2299 C2308 0.930 . S
H2300 C2313 0.903 1_655 S
H2301 C2311 0.929 . S
H2302 C2306 0.929 . S
H2303 C2312 0.929 . S
C2304 H2298 0.930 . S
C2304 C2305 1.367 . S
C2304 C2312 1.378 . S
C2305 C2304 1.367 . S
C2305 C2313 1.433 . S
C2306 H2302 0.929 . S
C2306 C2308 1.378 . S
C2306 C2310 1.350 1_655 S
C2307 C2310 1.463 . S
C2307 C2312 1.350 . S
C2307 N2315 1.427 . S
C2308 H2299 0.930 . S
C2308 C2306 1.378 . S
C2308 C2309 1.367 1_655 S
C2309 C2308 1.367 1_455 S
C2309 C2311 1.433 . S
C2310 C2306 1.350 1_455 S
C2310 C2307 1.463 . S
C2310 N2314 1.427 . S
C2311 H2301 0.929 . S
C2311 C2309 1.433 . S
C2311 N2314 1.384 . S
C2312 H2303 0.929 . S
C2312 C2304 1.378 . S
C2312 C2307 1.350 . S
C2313 H2300 0.903 1_455 S
C2313 C2305 1.433 . S
C2313 N2315 1.384 . S
N2314 C2310 1.427 . S
N2314 C2311 1.384 . S
N2315 C2307 1.427 . S
N2315 C2313 1.384 . S
H2316 C2322 0.930 . S
H2317 C2326 0.930 . S
H2318 C2331 0.929 . S
H2319 C2329 0.929 . S
H2320 C2324 0.929 . S
H2321 C2330 0.929 . S
C2322 H2316 0.930 . S
C2322 C2323 1.367 . S
C2322 C2330 1.378 . S
C2323 C2322 1.367 . S
C2323 C2331 1.433 . S
C2324 H2320 0.929 . S
C2324 C2326 1.378 . S
C2324 C2328 1.350 . S
C2325 C2328 1.463 . S
C2325 C2330 1.350 . S
C2325 N2333 1.427 . S
C2326 H2317 0.930 . S
C2326 C2324 1.378 . S
C2326 C2327 1.367 . S
C2327 C2326 1.367 . S
C2327 C2329 1.433 . S
C2328 C2324 1.350 . S
C2328 C2325 1.463 . S
C2328 N2332 1.427 . S
C2329 H2319 0.929 . S
C2329 C2327 1.433 . S
C2329 N2332 1.384 . S
C2330 H2321 0.929 . S
C2330 C2322 1.378 . S
C2330 C2325 1.350 . S
C2331 H2318 0.929 . S
C2331 C2323 1.433 . S
C2331 N2333 1.384 . S
N2332 C2328 1.427 . S
N2332 C2329 1.384 . S
N2333 C2325 1.427 . S
N2333 C2331 1.384 . S
H2334 C2340 0.930 . S
H2335 C2344 0.930 . S
H2336 C2349 0.929 . S
H2337 C2347 0.929 . S
H2338 C2342 0.929 . S
H2339 C2348 0.929 . S
C2340 H2334 0.930 . S
C2340 C2341 1.367 . S
C2340 C2348 1.378 . S
C2341 C2340 1.367 . S
C2341 C2349 1.433 1_655 S
C2342 H2338 0.929 . S
C2342 C2344 1.378 . S
C2342 C2346 1.350 . S
C2343 C2346 1.463 1_655 S
C2343 C2348 1.350 . S
C2343 N2351 1.427 1_655 S
C2344 H2335 0.930 . S
C2344 C2342 1.378 . S
C2344 C2345 1.367 . S
C2345 C2344 1.367 . S
C2345 C2347 1.433 1_455 S
C2346 C2342 1.350 . S
C2346 C2343 1.463 1_455 S
C2346 N2350 1.427 1_455 S
C2347 H2337 0.929 . S
C2347 C2345 1.433 1_655 S
C2347 N2350 1.384 . S
C2348 H2339 0.929 . S
C2348 C2340 1.378 . S
C2348 C2343 1.350 . S
C2349 H2336 0.929 . S
C2349 C2341 1.433 1_455 S
C2349 N2351 1.384 . S
N2350 C2346 1.427 1_655 S
N2350 C2347 1.384 . S
N2351 C2343 1.427 1_455 S
N2351 C2349 1.384 . S
H2352 C2358 0.930 . S
H2353 C2362 0.930 . S
H2354 C2367 0.929 . S
H2355 C2365 0.929 . S
H2356 C2360 0.929 . S
H2357 C2366 0.929 . S
C2358 H2352 0.930 . S
C2358 C2359 1.367 . S
C2358 C2366 1.378 . S
C2359 C2358 1.367 . S
C2359 C2367 1.433 . S
C2360 H2356 0.929 . S
C2360 C2362 1.378 . S
C2360 C2364 1.350 . S
C2361 C2364 1.463 . S
C2361 C2366 1.350 . S
C2361 N2369 1.427 . S
C2362 H2353 0.930 . S
C2362 C2360 1.378 . S
C2362 C2363 1.367 . S
C2363 C2362 1.367 . S
C2363 C2365 1.433 . S
C2364 C2360 1.350 . S
C2364 C2361 1.463 . S
C2364 N2368 1.427 . S
C2365 H2355 0.929 . S
C2365 C2363 1.433 . S
C2365 N2368 1.384 . S
C2366 H2357 0.929 . S
C2366 C2358 1.378 . S
C2366 C2361 1.350 . S
C2367 H2354 0.929 . S
C2367 C2359 1.433 . S
C2367 N2369 1.384 . S
N2368 C2364 1.427 . S
N2368 C2365 1.384 . S
N2369 C2361 1.427 . S
N2369 C2367 1.384 . S
H2370 C2376 0.930 . S
H2371 C2380 0.930 . S
H2372 C2385 0.929 . S
H2373 C2383 0.929 . S
H2374 C2378 0.929 . S
H2375 C2384 0.929 . S
C2376 H2370 0.930 . S
C2376 C2377 1.367 . S
C2376 C2384 1.378 . S
C2377 C2376 1.367 . S
C2377 C2385 1.433 . S
C2378 H2374 0.929 . S
C2378 C2380 1.378 . S
C2378 C2382 1.350 . S
C2379 C2382 1.463 . S
C2379 C2384 1.350 . S
C2379 N2387 1.427 . S
C2380 H2371 0.930 . S
C2380 C2378 1.378 . S
C2380 C2381 1.367 . S
C2381 C2380 1.367 . S
C2381 C2383 1.433 . S
C2382 C2378 1.350 . S
C2382 C2379 1.463 . S
C2382 N2386 1.427 . S
C2383 H2373 0.929 . S
C2383 C2381 1.433 . S
C2383 N2386 1.384 . S
C2384 H2375 0.929 . S
C2384 C2376 1.378 . S
C2384 C2379 1.350 . S
C2385 H2372 0.929 . S
C2385 C2377 1.433 . S
C2385 N2387 1.384 . S
N2386 C2382 1.427 . S
N2386 C2383 1.384 . S
N2387 C2379 1.427 . S
N2387 C2385 1.384 . S
H2388 C2394 0.930 . S
H2389 C2398 0.930 . S
H2390 C2403 0.929 . S
H2391 C2401 0.929 . S
H2392 C2396 0.929 . S
H2393 C2402 0.929 . S
C2394 H2388 0.930 . S
C2394 C2395 1.367 . S
C2394 C2402 1.378 . S
C2395 C2394 1.367 . S
C2395 C2403 1.433 . S
C2396 H2392 0.929 . S
C2396 C2398 1.378 . S
C2396 C2400 1.373 . S
C2397 C2400 1.448 1_545 S
C2397 C2402 1.350 . S
C2397 N2405 1.427 . S
C2398 H2389 0.930 . S
C2398 C2396 1.378 . S
C2398 C2399 1.367 . S
C2399 C2398 1.367 . S
C2399 C2401 1.433 . S
C2400 C2396 1.373 . S
C2400 C2397 1.448 1_565 S
C2400 N2404 1.417 1_565 S
C2401 H2391 0.929 . S
C2401 C2399 1.433 . S
C2401 N2404 1.370 1_565 S
C2402 H2393 0.929 . S
C2402 C2394 1.378 . S
C2402 C2397 1.350 . S
C2403 H2390 0.929 . S
C2403 C2395 1.433 . S
C2403 N2405 1.384 . S
N2404 C2400 1.417 1_545 S
N2404 C2401 1.370 1_545 S
N2405 C2397 1.427 . S
N2405 C2403 1.384 . S
H2406 C2412 0.930 . S
H2407 C2416 0.930 . S
H2408 C2421 0.929 . S
H2409 C2419 0.929 . S
H2410 C2414 0.929 . S
H2411 C2420 0.929 . S
C2412 H2406 0.930 . S
C2412 C2413 1.367 . S
C2412 C2420 1.378 . S
C2413 C2412 1.367 . S
C2413 C2421 1.433 1_565 S
C2414 H2410 0.929 . S
C2414 C2416 1.378 . S
C2414 C2418 1.350 1_545 S
C2415 C2418 1.463 . S
C2415 C2420 1.350 . S
C2415 N2423 1.427 1_565 S
C2416 H2407 0.930 . S
C2416 C2414 1.378 . S
C2416 C2417 1.367 1_545 S
C2417 C2416 1.367 1_565 S
C2417 C2419 1.433 . S
C2418 C2414 1.350 1_565 S
C2418 C2415 1.463 . S
C2418 N2422 1.427 . S
C2419 H2409 0.929 . S
C2419 C2417 1.433 . S
C2419 N2422 1.384 . S
C2420 H2411 0.929 . S
C2420 C2412 1.378 . S
C2420 C2415 1.350 . S
C2421 H2408 0.929 . S
C2421 C2413 1.433 1_545 S
C2421 N2423 1.384 . S
N2422 C2418 1.427 . S
N2422 C2419 1.384 . S
N2423 C2415 1.427 1_545 S
N2423 C2421 1.384 . S
H2424 C2430 0.930 . S
H2425 C2434 0.930 . S
H2426 C2439 0.929 . S
H2427 C2437 0.929 . S
H2428 C2432 0.929 . S
H2429 C2438 0.929 . S
C2430 H2424 0.930 . S
C2430 C2431 1.367 . S
C2430 C2438 1.378 . S
C2431 C2430 1.367 . S
C2431 C2439 1.433 . S
C2432 H2428 0.929 . S
C2432 C2434 1.378 . S
C2432 C2436 1.350 . S
C2433 C2436 1.463 . S
C2433 C2438 1.350 . S
C2433 N2441 1.427 . S
C2434 H2425 0.930 . S
C2434 C2432 1.378 . S
C2434 C2435 1.367 . S
C2435 C2434 1.367 . S
C2435 C2437 1.433 . S
C2436 C2432 1.350 . S
C2436 C2433 1.463 . S
C2436 N2440 1.427 . S
C2437 H2427 0.929 . S
C2437 C2435 1.433 . S
C2437 N2440 1.384 . S
C2438 H2429 0.929 . S
C2438 C2430 1.378 . S
C2438 C2433 1.350 . S
C2439 H2426 0.929 . S
C2439 C2431 1.433 . S
C2439 N2441 1.384 . S
N2440 C2436 1.427 . S
N2440 C2437 1.384 . S
N2441 C2433 1.427 . S
N2441 C2439 1.384 . S
H2442 C2448 0.930 . S
H2443 C2452 0.930 . S
H2444 C2457 0.929 . S
H2445 C2455 0.929 . S
H2446 C2450 0.929 . S
H2447 C2456 0.929 . S
C2448 H2442 0.930 . S
C2448 C2449 1.367 . S
C2448 C2456 1.378 . S
C2449 C2448 1.367 . S
C2449 C2457 1.433 1_556 S
C2450 H2446 0.929 . S
C2450 C2452 1.378 . S
C2450 C2454 1.350 1_554 S
C2451 C2454 1.463 . S
C2451 C2456 1.350 . S
C2451 N2459 1.427 1_556 S
C2452 H2443 0.930 . S
C2452 C2450 1.378 . S
C2452 C2453 1.367 1_554 S
C2453 C2452 1.367 1_556 S
C2453 C2455 1.433 . S
C2454 C2450 1.350 1_556 S
C2454 C2451 1.463 . S
C2454 N2458 1.427 . S
C2455 H2445 0.929 . S
C2455 C2453 1.433 . S
C2455 N2458 1.384 . S
C2456 H2447 0.929 . S
C2456 C2448 1.378 . S
C2456 C2451 1.350 . S
C2457 H2444 0.929 . S
C2457 C2449 1.433 1_554 S
C2457 N2459 1.384 . S
N2458 C2454 1.427 . S
N2458 C2455 1.384 . S
N2459 C2451 1.427 1_554 S
N2459 C2457 1.384 . S
H2460 C2466 0.930 . S
H2461 C2470 0.930 . S
H2462 C2475 0.929 . S
H2463 C2473 0.929 . S
H2464 C2468 0.929 . S
H2465 C2474 0.929 . S
C2466 H2460 0.930 . S
C2466 C2467 1.367 . S
C2466 C2474 1.378 . S
C2467 C2466 1.367 . S
C2467 C2475 1.433 . S
C2468 H2464 0.929 . S
C2468 C2470 1.378 . S
C2468 C2472 1.350 . S
C2469 C2472 1.463 . S
C2469 C2474 1.350 . S
C2469 N2477 1.427 . S
C2470 H2461 0.930 . S
C2470 C2468 1.378 . S
C2470 C2471 1.367 . S
C2471 C2470 1.367 . S
C2471 C2473 1.433 . S
C2472 C2468 1.350 . S
C2472 C2469 1.463 . S
C2472 N2476 1.427 . S
C2473 H2463 0.929 . S
C2473 C2471 1.433 . S
C2473 N2476 1.384 . S
C2474 H2465 0.929 . S
C2474 C2466 1.378 . S
C2474 C2469 1.350 . S
C2475 H2462 0.929 . S
C2475 C2467 1.433 . S
C2475 N2477 1.384 . S
N2476 C2472 1.427 . S
N2476 C2473 1.384 . S
N2477 C2469 1.427 . S
N2477 C2475 1.384 . S
H2478 C2484 0.930 . S
H2479 C2488 0.930 . S
H2480 C2493 0.929 . S
H2481 C2491 0.929 . S
H2482 C2486 0.929 . S
H2483 C2492 0.929 . S
C2484 H2478 0.930 . S
C2484 C2485 1.367 . S
C2484 C2492 1.378 . S
C2485 C2484 1.367 . S
C2485 C2493 1.433 1_554 S
C2486 H2482 0.929 . S
C2486 C2488 1.378 . S
C2486 C2490 1.350 . S
C2487 C2490 1.463 1_554 S
C2487 C2492 1.350 . S
C2487 N2495 1.427 1_554 S
C2488 H2479 0.930 . S
C2488 C2486 1.378 . S
C2488 C2489 1.367 . S
C2489 C2488 1.367 . S
C2489 C2491 1.433 1_556 S
C2490 C2486 1.350 . S
C2490 C2487 1.463 1_556 S
C2490 N2494 1.427 1_556 S
C2491 H2481 0.929 . S
C2491 C2489 1.433 1_554 S
C2491 N2494 1.384 . S
C2492 H2483 0.929 . S
C2492 C2484 1.378 . S
C2492 C2487 1.350 . S
C2493 H2480 0.929 . S
C2493 C2485 1.433 1_556 S
C2493 N2495 1.384 . S
N2494 C2490 1.427 1_554 S
N2494 C2491 1.384 . S
N2495 C2487 1.427 1_556 S
N2495 C2493 1.384 . S
H2496 C2502 0.930 . S
H2497 C2506 0.930 . S
H2498 C2511 0.929 . S
H2499 C2509 0.929 . S
H2500 C2504 0.929 . S
H2501 C2510 0.929 . S
C2502 H2496 0.930 . S
C2502 C2503 1.367 . S
C2502 C2510 1.378 . S
C2503 C2502 1.367 . S
C2503 C2511 1.433 . S
C2504 H2500 0.929 . S
C2504 C2506 1.378 . S
C2504 C2508 1.350 . S
C2505 C2508 1.463 . S
C2505 C2510 1.350 . S
C2505 N2513 1.427 . S
C2506 H2497 0.930 . S
C2506 C2504 1.378 . S
C2506 C2507 1.367 . S
C2507 C2506 1.367 . S
C2507 C2509 1.433 . S
C2508 C2504 1.350 . S
C2508 C2505 1.463 . S
C2508 N2512 1.427 . S
C2509 H2499 0.929 . S
C2509 C2507 1.433 . S
C2509 N2512 1.384 . S
C2510 H2501 0.929 . S
C2510 C2502 1.378 . S
C2510 C2505 1.350 . S
C2511 H2498 0.929 . S
C2511 C2503 1.433 . S
C2511 N2513 1.384 . S
N2512 C2508 1.427 . S
N2512 C2509 1.384 . S
N2513 C2505 1.427 . S
N2513 C2511 1.384 . S
H2514 C2520 0.930 . S
H2515 C2524 0.930 . S
H2516 C2529 0.929 . S
H2517 C2527 0.929 . S
H2518 C2522 0.936 . S
H2519 C2528 0.929 . S
C2520 H2514 0.930 . S
C2520 C2521 1.367 . S
C2520 C2528 1.378 . S
C2521 C2520 1.367 . S
C2521 C2529 1.433 . S
C2522 H2518 0.936 . S
C2522 C2524 1.379 . S
C2522 C2526 1.342 1_455 S
C2523 C2526 1.463 . S
C2523 C2528 1.350 . S
C2523 N2531 1.427 . S
C2524 H2515 0.930 . S
C2524 C2522 1.379 . S
C2524 C2525 1.367 1_455 S
C2525 C2524 1.367 1_655 S
C2525 C2527 1.433 . S
C2526 C2522 1.342 1_655 S
C2526 C2523 1.463 . S
C2526 N2530 1.427 . S
C2527 H2517 0.929 . S
C2527 C2525 1.433 . S
C2527 N2530 1.384 . S
C2528 H2519 0.929 . S
C2528 C2520 1.378 . S
C2528 C2523 1.350 . S
C2529 H2516 0.929 . S
C2529 C2521 1.433 . S
C2529 N2531 1.384 . S
N2530 C2526 1.427 . S
N2530 C2527 1.384 . S
N2531 C2523 1.427 . S
N2531 C2529 1.384 . S
H2532 C2538 0.930 . S
H2533 C2542 0.930 . S
H2534 C2547 0.929 . S
H2535 C2545 0.929 . S
H2536 C2540 0.929 . S
H2537 C2546 0.929 . S
C2538 H2532 0.930 . S
C2538 C2539 1.367 . S
C2538 C2546 1.378 . S
C2539 C2538 1.367 . S
C2539 C2547 1.433 . S
C2540 H2536 0.929 . S
C2540 C2542 1.378 . S
C2540 C2544 1.350 . S
C2541 C2544 1.463 . S
C2541 C2546 1.350 . S
C2541 N2549 1.427 . S
C2542 H2533 0.930 . S
C2542 C2540 1.378 . S
C2542 C2543 1.367 . S
C2543 C2542 1.367 . S
C2543 C2545 1.433 . S
C2544 C2540 1.350 . S
C2544 C2541 1.463 . S
C2544 N2548 1.427 . S
C2545 H2535 0.929 . S
C2545 C2543 1.433 . S
C2545 N2548 1.384 . S
C2546 H2537 0.929 . S
C2546 C2538 1.378 . S
C2546 C2541 1.350 . S
C2547 H2534 0.929 . S
C2547 C2539 1.433 . S
C2547 N2549 1.384 . S
N2548 C2544 1.427 . S
N2548 C2545 1.384 . S
N2549 C2541 1.427 . S
N2549 C2547 1.384 . S
H2550 C2556 0.930 . S
H2551 C2560 0.930 . S
H2552 C2565 0.929 . S
H2553 C2563 0.929 . S
H2554 C2558 0.929 . S
H2555 C2564 0.929 . S
C2556 H2550 0.930 . S
C2556 C2557 1.367 . S
C2556 C2564 1.378 . S
C2557 C2556 1.367 . S
C2557 C2565 1.433 1_455 S
C2558 H2554 0.929 . S
C2558 C2560 1.378 . S
C2558 C2562 1.350 . S
C2559 C2562 1.463 1_455 S
C2559 C2564 1.350 . S
C2559 N2567 1.427 1_455 S
C2560 H2551 0.930 . S
C2560 C2558 1.378 . S
C2560 C2561 1.367 . S
C2561 C2560 1.367 . S
C2561 C2563 1.433 1_655 S
C2562 C2558 1.350 . S
C2562 C2559 1.463 1_655 S
C2562 N2566 1.427 1_655 S
C2563 H2553 0.929 . S
C2563 C2561 1.433 1_455 S
C2563 N2566 1.384 . S
C2564 H2555 0.929 . S
C2564 C2556 1.378 . S
C2564 C2559 1.350 . S
C2565 H2552 0.929 . S
C2565 C2557 1.433 1_655 S
C2565 N2567 1.384 . S
N2566 C2562 1.427 1_455 S
N2566 C2563 1.384 . S
N2567 C2559 1.427 1_655 S
N2567 C2565 1.384 . S
H2568 C2574 0.930 . S
H2569 C2578 0.930 . S
H2570 C2583 0.929 . S
H2571 C2581 0.929 . S
H2572 C2576 0.929 . S
H2573 C2582 0.929 . S
C2574 H2568 0.930 . S
C2574 C2575 1.367 . S
C2574 C2582 1.378 . S
C2575 C2574 1.367 . S
C2575 C2583 1.433 . S
C2576 H2572 0.929 . S
C2576 C2578 1.378 . S
C2576 C2580 1.350 . S
C2577 C2580 1.463 . S
C2577 C2582 1.350 . S
C2577 N2585 1.427 . S
C2578 H2569 0.930 . S
C2578 C2576 1.378 . S
C2578 C2579 1.367 . S
C2579 C2578 1.367 . S
C2579 C2581 1.433 . S
C2580 C2576 1.350 . S
C2580 C2577 1.463 . S
C2580 N2584 1.427 . S
C2581 H2571 0.929 . S
C2581 C2579 1.433 . S
C2581 N2584 1.384 . S
C2582 H2573 0.929 . S
C2582 C2574 1.378 . S
C2582 C2577 1.350 . S
C2583 H2570 0.929 . S
C2583 C2575 1.433 . S
C2583 N2585 1.384 . S
N2584 C2580 1.427 . S
N2584 C2581 1.384 . S
N2585 C2577 1.427 . S
N2585 C2583 1.384 . S
H2586 C2592 0.930 . S
H2587 C2596 0.930 . S
H2588 C2601 0.929 . S
H2589 C2599 0.929 . S
H2590 C2594 0.929 . S
H2591 C2600 0.929 . S
C2592 H2586 0.930 . S
C2592 C2593 1.367 . S
C2592 C2600 1.378 . S
C2593 C2592 1.367 . S
C2593 C2601 1.433 . S
C2594 H2590 0.929 . S
C2594 C2596 1.378 . S
C2594 C2598 1.350 . S
C2595 C2598 1.463 . S
C2595 C2600 1.350 . S
C2595 N2603 1.427 . S
C2596 H2587 0.930 . S
C2596 C2594 1.378 . S
C2596 C2597 1.367 . S
C2597 C2596 1.367 . S
C2597 C2599 1.433 . S
C2598 C2594 1.350 . S
C2598 C2595 1.463 . S
C2598 N2602 1.427 . S
C2599 H2589 0.929 . S
C2599 C2597 1.433 . S
C2599 N2602 1.384 . S
C2600 H2591 0.929 . S
C2600 C2592 1.378 . S
C2600 C2595 1.350 . S
C2601 H2588 0.929 . S
C2601 C2593 1.433 . S
C2601 N2603 1.384 . S
N2602 C2598 1.427 . S
N2602 C2599 1.384 . S
N2603 C2595 1.427 . S
N2603 C2601 1.384 . S
H2604 C2610 0.917 1_565 S
H2605 C2614 0.930 . S
H2606 C2619 0.929 . S
H2607 C2617 0.929 . S
H2608 C2612 0.929 . S
H2609 C2618 0.929 1_565 S
C2610 H2604 0.917 1_545 S
C2610 C2611 1.377 . S
C2610 C2618 1.383 . S
C2611 C2610 1.377 . S
C2611 C2619 1.433 . S
C2612 H2608 0.929 . S
C2612 C2614 1.378 . S
C2612 C2616 1.350 . S
C2613 C2616 1.463 . S
C2613 C2618 1.350 . S
C2613 N2621 1.427 . S
C2614 H2605 0.930 . S
C2614 C2612 1.378 . S
C2614 C2615 1.367 . S
C2615 C2614 1.367 . S
C2615 C2617 1.433 . S
C2616 C2612 1.350 . S
C2616 C2613 1.463 . S
C2616 N2620 1.427 . S
C2617 H2607 0.929 . S
C2617 C2615 1.433 . S
C2617 N2620 1.384 . S
C2618 H2609 0.929 1_545 S
C2618 C2610 1.383 . S
C2618 C2613 1.350 . S
C2619 H2606 0.929 . S
C2619 C2611 1.433 . S
C2619 N2621 1.384 . S
N2620 C2616 1.427 . S
N2620 C2617 1.384 . S
N2621 C2613 1.427 . S
N2621 C2619 1.384 . S
H2622 C2628 0.930 . S
H2623 C2632 0.930 . S
H2624 C2637 0.929 1_545 S
H2625 C2635 0.929 . S
H2626 C2630 0.929 . S
H2627 C2636 0.929 . S
C2628 H2622 0.930 . S
C2628 C2629 1.367 . S
C2628 C2636 1.378 . S
C2629 C2628 1.367 . S
C2629 C2637 1.433 . S
C2630 H2626 0.929 . S
C2630 C2632 1.378 . S
C2630 C2634 1.350 . S
C2631 C2634 1.463 . S
C2631 C2636 1.350 . S
C2631 N2639 1.427 . S
C2632 H2623 0.930 . S
C2632 C2630 1.378 . S
C2632 C2633 1.367 . S
C2633 C2632 1.367 . S
C2633 C2635 1.433 . S
C2634 C2630 1.350 . S
C2634 C2631 1.463 . S
C2634 N2638 1.427 . S
C2635 H2625 0.929 . S
C2635 C2633 1.433 . S
C2635 N2638 1.384 . S
C2636 H2627 0.929 . S
C2636 C2628 1.378 . S
C2636 C2631 1.350 . S
C2637 H2624 0.929 1_565 S
C2637 C2629 1.433 . S
C2637 N2639 1.384 . S
N2638 C2634 1.427 . S
N2638 C2635 1.384 . S
N2639 C2631 1.427 . S
N2639 C2637 1.384 . S
H2640 C2646 0.930 . S
H2641 C2650 0.930 . S
H2642 C2655 0.929 . S
H2643 C2653 0.929 . S
H2644 C2648 0.929 . S
H2645 C2654 0.929 . S
C2646 H2640 0.930 . S
C2646 C2647 1.367 . S
C2646 C2654 1.378 . S
C2647 C2646 1.367 . S
C2647 C2655 1.433 . S
C2648 H2644 0.929 . S
C2648 C2650 1.378 . S
C2648 C2652 1.350 . S
C2649 C2652 1.463 . S
C2649 C2654 1.350 . S
C2649 N2657 1.427 . S
C2650 H2641 0.930 . S
C2650 C2648 1.378 . S
C2650 C2651 1.367 . S
C2651 C2650 1.367 . S
C2651 C2653 1.433 . S
C2652 C2648 1.350 . S
C2652 C2649 1.463 . S
C2652 N2656 1.427 . S
C2653 H2643 0.929 . S
C2653 C2651 1.433 . S
C2653 N2656 1.384 . S
C2654 H2645 0.929 . S
C2654 C2646 1.378 . S
C2654 C2649 1.350 . S
C2655 H2642 0.929 . S
C2655 C2647 1.433 . S
C2655 N2657 1.384 . S
N2656 C2652 1.427 . S
N2656 C2653 1.384 . S
N2657 C2649 1.427 . S
N2657 C2655 1.384 . S
H2658 C2664 0.930 . S
H2659 C2668 0.930 . S
H2660 C2673 0.929 . S
H2661 C2671 0.929 . S
H2662 C2666 0.929 . S
H2663 C2672 0.929 . S
C2664 H2658 0.930 . S
C2664 C2665 1.367 . S
C2664 C2672 1.378 . S
C2665 C2664 1.367 . S
C2665 C2673 1.433 . S
C2666 H2662 0.929 . S
C2666 C2668 1.378 . S
C2666 C2670 1.350 . S
C2667 C2670 1.463 . S
C2667 C2672 1.350 . S
C2667 N2675 1.427 . S
C2668 H2659 0.930 . S
C2668 C2666 1.378 . S
C2668 C2669 1.367 . S
C2669 C2668 1.367 . S
C2669 C2671 1.433 . S
C2670 C2666 1.350 . S
C2670 C2667 1.463 . S
C2670 N2674 1.427 . S
C2671 H2661 0.929 . S
C2671 C2669 1.433 . S
C2671 N2674 1.384 . S
C2672 H2663 0.929 . S
C2672 C2664 1.378 . S
C2672 C2667 1.350 . S
C2673 H2660 0.929 . S
C2673 C2665 1.433 . S
C2673 N2675 1.384 . S
N2674 C2670 1.427 . S
N2674 C2671 1.384 . S
N2675 C2667 1.427 . S
N2675 C2673 1.384 . S
H2676 C2682 0.930 . S
H2677 C2686 0.930 . S
H2678 C2691 0.929 . S
H2679 C2689 0.929 . S
H2680 C2684 0.929 . S
H2681 C2690 0.929 . S
C2682 H2676 0.930 . S
C2682 C2683 1.367 . S
C2682 C2690 1.378 . S
C2683 C2682 1.367 . S
C2683 C2691 1.433 . S
C2684 H2680 0.929 . S
C2684 C2686 1.378 . S
C2684 C2688 1.350 . S
C2685 C2688 1.463 . S
C2685 C2690 1.350 . S
C2685 N2693 1.427 . S
C2686 H2677 0.930 . S
C2686 C2684 1.378 . S
C2686 C2687 1.367 . S
C2687 C2686 1.367 . S
C2687 C2689 1.433 . S
C2688 C2684 1.350 . S
C2688 C2685 1.463 . S
C2688 N2692 1.427 . S
C2689 H2679 0.929 . S
C2689 C2687 1.433 . S
C2689 N2692 1.384 . S
C2690 H2681 0.929 . S
C2690 C2682 1.378 . S
C2690 C2685 1.350 . S
C2691 H2678 0.929 . S
C2691 C2683 1.433 . S
C2691 N2693 1.384 . S
N2692 C2688 1.427 . S
N2692 C2689 1.384 . S
N2693 C2685 1.427 . S
N2693 C2691 1.384 . S
H2694 C2700 0.930 . S
H2695 C2704 0.930 . S
H2696 C2709 0.929 . S
H2697 C2707 0.929 . S
H2698 C2702 0.929 . S
H2699 C2708 0.929 . S
C2700 H2694 0.930 . S
C2700 C2701 1.367 . S
C2700 C2708 1.378 . S
C2701 C2700 1.367 . S
C2701 C2709 1.433 . S
C2702 H2698 0.929 . S
C2702 C2704 1.378 . S
C2702 C2706 1.350 . S
C2703 C2706 1.463 . S
C2703 C2708 1.350 . S
C2703 N2711 1.427 . S
C2704 H2695 0.930 . S
C2704 C2702 1.378 . S
C2704 C2705 1.367 . S
C2705 C2704 1.367 . S
C2705 C2707 1.433 . S
C2706 C2702 1.350 . S
C2706 C2703 1.463 . S
C2706 N2710 1.427 . S
C2707 H2697 0.929 . S
C2707 C2705 1.433 . S
C2707 N2710 1.384 . S
C2708 H2699 0.929 . S
C2708 C2700 1.378 . S
C2708 C2703 1.350 . S
C2709 H2696 0.929 . S
C2709 C2701 1.433 . S
C2709 N2711 1.384 . S
N2710 C2706 1.427 . S
N2710 C2707 1.384 . S
N2711 C2703 1.427 . S
N2711 C2709 1.384 . S
H2712 C2718 0.930 . S
H2713 C2722 0.930 . S
H2714 C2727 0.929 . S
H2715 C2725 0.929 . S
H2716 C2720 0.929 . S
H2717 C2726 0.929 . S
C2718 H2712 0.930 . S
C2718 C2719 1.367 . S
C2718 C2726 1.378 . S
C2719 C2718 1.367 . S
C2719 C2727 1.433 . S
C2720 H2716 0.929 . S
C2720 C2722 1.378 . S
C2720 C2724 1.350 . S
C2721 C2724 1.463 . S
C2721 C2726 1.350 . S
C2721 N2729 1.427 . S
C2722 H2713 0.930 . S
C2722 C2720 1.378 . S
C2722 C2723 1.367 . S
C2723 C2722 1.367 . S
C2723 C2725 1.433 . S
C2724 C2720 1.350 . S
C2724 C2721 1.463 . S
C2724 N2728 1.427 . S
C2725 H2715 0.929 . S
C2725 C2723 1.433 . S
C2725 N2728 1.384 . S
C2726 H2717 0.929 . S
C2726 C2718 1.378 . S
C2726 C2721 1.350 . S
C2727 H2714 0.929 . S
C2727 C2719 1.433 . S
C2727 N2729 1.384 . S
N2728 C2724 1.427 . S
N2728 C2725 1.384 . S
N2729 C2721 1.427 . S
N2729 C2727 1.384 . S
H2730 C2736 0.930 . S
H2731 C2740 0.930 . S
H2732 C2745 0.929 . S
H2733 C2743 0.929 . S
H2734 C2738 0.929 . S
H2735 C2744 0.929 . S
C2736 H2730 0.930 . S
C2736 C2737 1.367 . S
C2736 C2744 1.378 . S
C2737 C2736 1.367 . S
C2737 C2745 1.433 . S
C2738 H2734 0.929 . S
C2738 C2740 1.378 . S
C2738 C2742 1.350 . S
C2739 C2742 1.463 . S
C2739 C2744 1.350 . S
C2739 N2747 1.427 . S
C2740 H2731 0.930 . S
C2740 C2738 1.378 . S
C2740 C2741 1.367 . S
C2741 C2740 1.367 . S
C2741 C2743 1.433 . S
C2742 C2738 1.350 . S
C2742 C2739 1.463 . S
C2742 N2746 1.427 . S
C2743 H2733 0.929 . S
C2743 C2741 1.433 . S
C2743 N2746 1.384 . S
C2744 H2735 0.929 . S
C2744 C2736 1.378 . S
C2744 C2739 1.350 . S
C2745 H2732 0.929 . S
C2745 C2737 1.433 . S
C2745 N2747 1.384 . S
N2746 C2742 1.427 . S
N2746 C2743 1.384 . S
N2747 C2739 1.427 . S
N2747 C2745 1.384 . S
H2748 C2754 0.930 . S
H2749 C2758 0.930 . S
H2750 C2763 0.929 . S
H2751 C2761 0.929 . S
H2752 C2756 0.929 . S
H2753 C2762 0.929 . S
C2754 H2748 0.930 . S
C2754 C2755 1.367 . S
C2754 C2762 1.378 . S
C2755 C2754 1.367 . S
C2755 C2763 1.433 . S
C2756 H2752 0.929 . S
C2756 C2758 1.378 . S
C2756 C2760 1.350 . S
C2757 C2760 1.463 . S
C2757 C2762 1.350 . S
C2757 N2765 1.427 . S
C2758 H2749 0.930 . S
C2758 C2756 1.378 . S
C2758 C2759 1.367 . S
C2759 C2758 1.367 . S
C2759 C2761 1.433 . S
C2760 C2756 1.350 . S
C2760 C2757 1.463 . S
C2760 N2764 1.427 . S
C2761 H2751 0.929 . S
C2761 C2759 1.433 . S
C2761 N2764 1.384 . S
C2762 H2753 0.929 . S
C2762 C2754 1.378 . S
C2762 C2757 1.350 . S
C2763 H2750 0.929 . S
C2763 C2755 1.433 . S
C2763 N2765 1.384 . S
N2764 C2760 1.427 . S
N2764 C2761 1.384 . S
N2765 C2757 1.427 . S
N2765 C2763 1.384 . S
H2766 C2772 0.930 . S
H2767 C2776 0.930 . S
H2768 C2781 0.929 . S
H2769 C2779 0.905 1_655 S
H2770 C2774 0.929 . S
H2771 C2780 0.929 . S
C2772 H2766 0.930 . S
C2772 C2773 1.367 1_655 S
C2772 C2780 1.378 . S
C2773 C2772 1.367 1_455 S
C2773 C2781 1.433 . S
C2774 H2770 0.929 . S
C2774 C2776 1.378 . S
C2774 C2778 1.350 . S
C2775 C2778 1.463 . S
C2775 C2780 1.350 1_455 S
C2775 N2783 1.427 . S
C2776 H2767 0.930 . S
C2776 C2774 1.378 . S
C2776 C2777 1.367 . S
C2777 C2776 1.367 . S
C2777 C2779 1.433 . S
C2778 C2774 1.350 . S
C2778 C2775 1.463 . S
C2778 N2782 1.427 . S
C2779 H2769 0.905 1_455 S
C2779 C2777 1.433 . S
C2779 N2782 1.384 . S
C2780 H2771 0.929 . S
C2780 C2772 1.378 . S
C2780 C2775 1.350 1_655 S
C2781 H2768 0.929 . S
C2781 C2773 1.433 . S
C2781 N2783 1.384 . S
N2782 C2778 1.427 . S
N2782 C2779 1.384 . S
N2783 C2775 1.427 . S
N2783 C2781 1.384 . S
H2784 C2790 0.930 . S
H2785 C2794 0.930 . S
H2786 C2799 0.929 . S
H2787 C2797 0.929 . S
H2788 C2792 0.929 . S
H2789 C2798 0.929 . S
C2790 H2784 0.930 . S
C2790 C2791 1.367 . S
C2790 C2798 1.378 . S
C2791 C2790 1.367 . S
C2791 C2799 1.433 . S
C2792 H2788 0.929 . S
C2792 C2794 1.378 . S
C2792 C2796 1.350 . S
C2793 C2796 1.463 . S
C2793 C2798 1.350 . S
C2793 N2801 1.427 . S
C2794 H2785 0.930 . S
C2794 C2792 1.378 . S
C2794 C2795 1.367 . S
C2795 C2794 1.367 . S
C2795 C2797 1.433 . S
C2796 C2792 1.350 . S
C2796 C2793 1.463 . S
C2796 N2800 1.427 . S
C2797 H2787 0.929 . S
C2797 C2795 1.433 . S
C2797 N2800 1.384 . S
C2798 H2789 0.929 . S
C2798 C2790 1.378 . S
C2798 C2793 1.350 . S
C2799 H2786 0.929 . S
C2799 C2791 1.433 . S
C2799 N2801 1.384 . S
N2800 C2796 1.427 . S
N2800 C2797 1.384 . S
N2801 C2793 1.427 . S
N2801 C2799 1.384 . S
H2802 C2808 0.930 . S
H2803 C2812 0.930 . S
H2804 C2817 0.929 . S
H2805 C2815 0.929 . S
H2806 C2810 0.929 . S
H2807 C2816 0.929 . S
C2808 H2802 0.930 . S
C2808 C2809 1.367 . S
C2808 C2816 1.378 . S
C2809 C2808 1.367 . S
C2809 C2817 1.433 . S
C2810 H2806 0.929 . S
C2810 C2812 1.378 . S
C2810 C2814 1.350 . S
C2811 C2814 1.463 . S
C2811 C2816 1.350 . S
C2811 N2819 1.427 . S
C2812 H2803 0.930 . S
C2812 C2810 1.378 . S
C2812 C2813 1.367 . S
C2813 C2812 1.367 . S
C2813 C2815 1.433 . S
C2814 C2810 1.350 . S
C2814 C2811 1.463 . S
C2814 N2818 1.427 . S
C2815 H2805 0.929 . S
C2815 C2813 1.433 . S
C2815 N2818 1.384 . S
C2816 H2807 0.929 . S
C2816 C2808 1.378 . S
C2816 C2811 1.350 . S
C2817 H2804 0.929 . S
C2817 C2809 1.433 . S
C2817 N2819 1.384 . S
N2818 C2814 1.427 . S
N2818 C2815 1.384 . S
N2819 C2811 1.427 . S
N2819 C2817 1.384 . S
H2820 C2826 0.909 1_545 S
H2821 C2830 0.930 . S
H2822 C2835 0.929 . S
H2823 C2833 0.929 . S
H2824 C2828 0.929 . S
H2825 C2834 0.929 . S
C2826 H2820 0.909 1_565 S
C2826 C2827 1.384 . S
C2826 C2834 1.384 . S
C2827 C2826 1.384 . S
C2827 C2835 1.433 . S
C2828 H2824 0.929 . S
C2828 C2830 1.378 . S
C2828 C2832 1.350 . S
C2829 C2832 1.463 . S
C2829 C2834 1.350 . S
C2829 N2837 1.427 . S
C2830 H2821 0.930 . S
C2830 C2828 1.378 . S
C2830 C2831 1.367 . S
C2831 C2830 1.367 . S
C2831 C2833 1.433 . S
C2832 C2828 1.350 . S
C2832 C2829 1.463 . S
C2832 N2836 1.427 . S
C2833 H2823 0.929 . S
C2833 C2831 1.433 . S
C2833 N2836 1.384 . S
C2834 H2825 0.929 . S
C2834 C2826 1.384 . S
C2834 C2829 1.350 . S
C2835 H2822 0.929 . S
C2835 C2827 1.433 . S
C2835 N2837 1.384 . S
N2836 C2832 1.427 . S
N2836 C2833 1.384 . S
N2837 C2829 1.427 . S
N2837 C2835 1.384 . S
H2838 C2844 0.930 . S
H2839 C2848 0.930 . S
H2840 C2853 0.948 . S
H2841 C2851 0.929 . S
H2842 C2846 0.929 . S
H2843 C2852 0.929 . S
C2844 H2838 0.930 . S
C2844 C2845 1.367 . S
C2844 C2852 1.378 . S
C2845 C2844 1.367 . S
C2845 C2853 1.433 . S
C2846 H2842 0.929 . S
C2846 C2848 1.378 . S
C2846 C2850 1.350 . S
C2847 C2850 1.463 . S
C2847 C2852 1.350 . S
C2847 N2855 1.427 . S
C2848 H2839 0.930 . S
C2848 C2846 1.378 . S
C2848 C2849 1.367 . S
C2849 C2848 1.367 . S
C2849 C2851 1.433 . S
C2850 C2846 1.350 . S
C2850 C2847 1.463 . S
C2850 N2854 1.427 . S
C2851 H2841 0.929 . S
C2851 C2849 1.433 . S
C2851 N2854 1.384 . S
C2852 H2843 0.929 . S
C2852 C2844 1.378 . S
C2852 C2847 1.350 . S
C2853 H2840 0.948 . S
C2853 C2845 1.433 . S
C2853 N2855 1.384 . S
N2854 C2850 1.427 . S
N2854 C2851 1.384 . S
N2855 C2847 1.427 . S
N2855 C2853 1.384 . S
H2856 C2862 0.930 . S
H2857 C2866 0.930 . S
H2858 C2871 0.929 . S
H2859 C2869 0.929 . S
H2860 C2864 0.929 . S
H2861 C2870 0.929 . S
C2862 H2856 0.930 . S
C2862 C2863 1.367 . S
C2862 C2870 1.378 . S
C2863 C2862 1.367 . S
C2863 C2871 1.433 . S
C2864 H2860 0.929 . S
C2864 C2866 1.378 . S
C2864 C2868 1.350 . S
C2865 C2868 1.463 . S
C2865 C2870 1.350 . S
C2865 N2873 1.427 . S
C2866 H2857 0.930 . S
C2866 C2864 1.378 . S
C2866 C2867 1.367 . S
C2867 C2866 1.367 . S
C2867 C2869 1.433 . S
C2868 C2864 1.350 . S
C2868 C2865 1.463 . S
C2868 N2872 1.427 . S
C2869 H2859 0.929 . S
C2869 C2867 1.433 . S
C2869 N2872 1.384 . S
C2870 H2861 0.929 . S
C2870 C2862 1.378 . S
C2870 C2865 1.350 . S
C2871 H2858 0.929 . S
C2871 C2863 1.433 . S
C2871 N2873 1.384 . S
N2872 C2868 1.427 . S
N2872 C2869 1.384 . S
N2873 C2865 1.427 . S
N2873 C2871 1.384 . S
H2874 C2880 0.930 . S
H2875 C2884 0.930 . S
H2876 C2889 0.929 . S
H2877 C2887 0.929 . S
H2878 C2882 0.929 . S
H2879 C2888 0.929 . S
C2880 H2874 0.930 . S
C2880 C2881 1.367 . S
C2880 C2888 1.378 . S
C2881 C2880 1.367 . S
C2881 C2889 1.433 . S
C2882 H2878 0.929 . S
C2882 C2884 1.378 . S
C2882 C2886 1.350 . S
C2883 C2886 1.463 . S
C2883 C2888 1.350 . S
C2883 N2891 1.427 . S
C2884 H2875 0.930 . S
C2884 C2882 1.378 . S
C2884 C2885 1.367 . S
C2885 C2884 1.367 . S
C2885 C2887 1.433 . S
C2886 C2882 1.350 . S
C2886 C2883 1.463 . S
C2886 N2890 1.427 . S
C2887 H2877 0.929 . S
C2887 C2885 1.433 . S
C2887 N2890 1.384 . S
C2888 H2879 0.929 . S
C2888 C2880 1.378 . S
C2888 C2883 1.350 . S
C2889 H2876 0.929 . S
C2889 C2881 1.433 . S
C2889 N2891 1.384 . S
N2890 C2886 1.427 . S
N2890 C2887 1.384 . S
N2891 C2883 1.427 . S
N2891 C2889 1.384 . S
H2892 C2898 0.930 . S
H2893 C2902 0.930 . S
H2894 C2907 0.929 . S
H2895 C2905 0.929 . S
H2896 C2900 0.929 . S
H2897 C2906 0.929 . S
C2898 H2892 0.930 . S
C2898 C2899 1.367 . S
C2898 C2906 1.378 . S
C2899 C2898 1.367 . S
C2899 C2907 1.433 . S
C2900 H2896 0.929 . S
C2900 C2902 1.378 . S
C2900 C2904 1.350 . S
C2901 C2904 1.463 . S
C2901 C2906 1.350 . S
C2901 N2909 1.427 . S
C2902 H2893 0.930 . S
C2902 C2900 1.378 . S
C2902 C2903 1.367 . S
C2903 C2902 1.367 . S
C2903 C2905 1.433 . S
C2904 C2900 1.350 . S
C2904 C2901 1.463 . S
C2904 N2908 1.427 . S
C2905 H2895 0.929 . S
C2905 C2903 1.433 . S
C2905 N2908 1.384 . S
C2906 H2897 0.929 . S
C2906 C2898 1.378 . S
C2906 C2901 1.350 . S
C2907 H2894 0.929 . S
C2907 C2899 1.433 . S
C2907 N2909 1.384 . S
N2908 C2904 1.427 . S
N2908 C2905 1.384 . S
N2909 C2901 1.427 . S
N2909 C2907 1.384 . S
H2910 C2916 0.930 . S
H2911 C2920 0.930 . S
H2912 C2925 0.929 . S
H2913 C2923 0.929 1_554 S
H2914 C2918 0.929 . S
H2915 C2924 0.929 . S
C2916 H2910 0.930 . S
C2916 C2917 1.367 1_554 S
C2916 C2924 1.378 . S
C2917 C2916 1.367 1_556 S
C2917 C2925 1.433 . S
C2918 H2914 0.929 . S
C2918 C2920 1.378 . S
C2918 C2922 1.350 . S
C2919 C2922 1.463 . S
C2919 C2924 1.350 1_556 S
C2919 N2927 1.427 . S
C2920 H2911 0.930 . S
C2920 C2918 1.378 . S
C2920 C2921 1.367 . S
C2921 C2920 1.367 . S
C2921 C2923 1.433 . S
C2922 C2918 1.350 . S
C2922 C2919 1.463 . S
C2922 N2926 1.427 . S
C2923 H2913 0.929 1_556 S
C2923 C2921 1.433 . S
C2923 N2926 1.384 . S
C2924 H2915 0.929 . S
C2924 C2916 1.378 . S
C2924 C2919 1.350 1_554 S
C2925 H2912 0.929 . S
C2925 C2917 1.433 . S
C2925 N2927 1.384 . S
N2926 C2922 1.427 . S
N2926 C2923 1.384 . S
N2927 C2919 1.427 . S
N2927 C2925 1.384 . S
H2928 C2934 0.930 . S
H2929 C2938 0.930 . S
H2930 C2943 0.929 . S
H2931 C2941 0.929 . S
H2932 C2936 0.929 . S
H2933 C2942 0.929 . S
C2934 H2928 0.930 . S
C2934 C2935 1.367 . S
C2934 C2942 1.378 . S
C2935 C2934 1.367 . S
C2935 C2943 1.433 . S
C2936 H2932 0.929 . S
C2936 C2938 1.378 . S
C2936 C2940 1.350 . S
C2937 C2940 1.463 . S
C2937 C2942 1.350 . S
C2937 N2945 1.427 . S
C2938 H2929 0.930 . S
C2938 C2936 1.378 . S
C2938 C2939 1.367 . S
C2939 C2938 1.367 . S
C2939 C2941 1.433 . S
C2940 C2936 1.350 . S
C2940 C2937 1.463 . S
C2940 N2944 1.427 . S
C2941 H2931 0.929 . S
C2941 C2939 1.433 . S
C2941 N2944 1.384 . S
C2942 H2933 0.929 . S
C2942 C2934 1.378 . S
C2942 C2937 1.350 . S
C2943 H2930 0.929 . S
C2943 C2935 1.433 . S
C2943 N2945 1.384 . S
N2944 C2940 1.427 . S
N2944 C2941 1.384 . S
N2945 C2937 1.427 . S
N2945 C2943 1.384 . S
H2946 C2952 0.930 . S
H2947 C2956 0.930 . S
H2948 C2961 0.929 . S
H2949 C2959 0.929 . S
H2950 C2954 0.929 . S
H2951 C2960 0.929 . S
C2952 H2946 0.930 . S
C2952 C2953 1.367 . S
C2952 C2960 1.378 . S
C2953 C2952 1.367 . S
C2953 C2961 1.433 . S
C2954 H2950 0.929 . S
C2954 C2956 1.378 . S
C2954 C2958 1.350 . S
C2955 C2958 1.463 . S
C2955 C2960 1.350 . S
C2955 N2963 1.427 . S
C2956 H2947 0.930 . S
C2956 C2954 1.378 . S
C2956 C2957 1.367 . S
C2957 C2956 1.367 . S
C2957 C2959 1.433 . S
C2958 C2954 1.350 . S
C2958 C2955 1.463 . S
C2958 N2962 1.427 . S
C2959 H2949 0.929 . S
C2959 C2957 1.433 . S
C2959 N2962 1.384 . S
C2960 H2951 0.929 . S
C2960 C2952 1.378 . S
C2960 C2955 1.350 . S
C2961 H2948 0.929 . S
C2961 C2953 1.433 . S
C2961 N2963 1.384 . S
N2962 C2958 1.427 . S
N2962 C2959 1.384 . S
N2963 C2955 1.427 . S
N2963 C2961 1.384 . S
H2964 C2970 0.930 . S
H2965 C2974 0.930 . S
H2966 C2979 0.929 . S
H2967 C2977 0.929 . S
H2968 C2972 0.929 . S
H2969 C2978 0.929 . S
C2970 H2964 0.930 . S
C2970 C2971 1.367 . S
C2970 C2978 1.378 . S
C2971 C2970 1.367 . S
C2971 C2979 1.433 . S
C2972 H2968 0.929 . S
C2972 C2974 1.378 . S
C2972 C2976 1.350 . S
C2973 C2976 1.463 . S
C2973 C2978 1.350 . S
C2973 N2981 1.427 . S
C2974 H2965 0.930 . S
C2974 C2972 1.378 . S
C2974 C2975 1.367 . S
C2975 C2974 1.367 . S
C2975 C2977 1.433 . S
C2976 C2972 1.350 . S
C2976 C2973 1.463 . S
C2976 N2980 1.427 . S
C2977 H2967 0.929 . S
C2977 C2975 1.433 . S
C2977 N2980 1.384 . S
C2978 H2969 0.929 . S
C2978 C2970 1.378 . S
C2978 C2973 1.350 . S
C2979 H2966 0.929 . S
C2979 C2971 1.433 . S
C2979 N2981 1.384 . S
N2980 C2976 1.427 . S
N2980 C2977 1.384 . S
N2981 C2973 1.427 . S
N2981 C2979 1.384 . S
H2982 C2988 0.930 . S
H2983 C2992 0.938 . S
H2984 C2997 0.929 . S
H2985 C2995 0.929 . S
H2986 C2990 0.929 1_455 S
H2987 C2996 0.929 . S
C2988 H2982 0.930 . S
C2988 C2989 1.367 . S
C2988 C2996 1.378 . S
C2989 C2988 1.367 . S
C2989 C2997 1.433 1_655 S
C2990 H2986 0.929 1_655 S
C2990 C2992 1.378 . S
C2990 C2994 1.350 . S
C2991 C2994 1.463 . S
C2991 C2996 1.350 . S
C2991 N2999 1.427 1_655 S
C2992 H2983 0.938 . S
C2992 C2990 1.378 . S
C2992 C2993 1.367 . S
C2993 C2992 1.367 . S
C2993 C2995 1.433 . S
C2994 C2990 1.350 . S
C2994 C2991 1.463 . S
C2994 N2998 1.427 . S
C2995 H2985 0.929 . S
C2995 C2993 1.433 . S
C2995 N2998 1.384 . S
C2996 H2987 0.929 . S
C2996 C2988 1.378 . S
C2996 C2991 1.350 . S
C2997 H2984 0.929 . S
C2997 C2989 1.433 1_455 S
C2997 N2999 1.384 . S
N2998 C2994 1.427 . S
N2998 C2995 1.384 . S
N2999 C2991 1.427 1_455 S
N2999 C2997 1.384 . S
C1715 C1645 1.832 . S
C1711 C8 1.933 . S
C1733 C1495 1.456 . S
C1729 C19 1.495 . S
C1751 C1585 1.345 . S
C1747 C30 1.424 . S
C1769 C1555 2.032 . S
C1765 C41 2.083 . S
C1787 C1135 1.959 . S
C1783 C52 1.937 . S
C1801 C63 2.077 . S
C1805 C1165 2.031 . S
C1823 C1015 1.551 . S
C1819 C74 1.508 . S
C1837 C85 1.424 . S
C1841 C1045 1.320 . S
C1859 C1424 1.833 . S
C1855 C96 1.940 . S
C1873 C107 2.075 . S
C1877 C1304 2.041 . S
C1891 C118 1.509 . S
C1895 C1244 1.553 . S
C1913 C1364 1.444 . S
C1909 C129 1.421 . S
C1931 C955 1.940 . S
C1927 C140 1.920 . S
C1945 C151 1.467 . S
C1949 C745 1.455 . S
C1967 C895 1.427 . S
C1963 C162 1.395 . S
C1981 C173 2.013 . S
C1985 C805 2.037 . S
C2003 C415 1.942 . S
C1999 C184 1.916 . S
C2021 C445 2.038 . S
C2017 C195 2.024 . S
C2035 C206 1.462 . S
C2039 C295 1.555 . S
C2053 C217 1.399 . S
C2057 C325 1.359 . S
C2071 C228 1.914 . S
C2075 C704 1.945 . S
C2089 C239 2.025 . S
C2093 C584 2.114 . S
C2111 C524 1.445 . S
C2107 C250 1.471 . S
C2125 C261 1.392 . S
C2129 C644 1.357 . S
C2147 C284 1.126 . S
C2143 C7 1.218 . S
C2165 C344 1.218 . S
C2161 C18 1.215 . S
C2179 C29 1.166 . S
C2183 C404 1.079 . S
C2197 C40 0.855 . S
C2201 C464 0.851 1_545 S
C2219 C535 1.227 . S
C2215 C51 1.224 . S
C2233 C62 0.853 . S
C2237 C565 0.854 . S
C2255 C655 1.214 . S
C2251 C73 1.212 . S
C2273 C685 1.106 . S
C2269 C84 1.166 . S
C2291 C764 1.227 . S
C2287 C95 1.224 . S
C2305 C106 0.860 . S
C2309 C824 0.851 1_455 S
C2323 C117 1.215 . S
C2327 C884 1.091 . S
C2341 C128 1.169 . S
C2345 C944 1.095 . S
C2359 C139 1.147 . S
C2363 C1004 1.168 . S
C2377 C150 1.088 . S
C2381 C1064 1.174 . S
C2395 C161 1.086 . S
C2399 C1124 1.124 . S
C2413 C172 0.844 . S
C2417 C1184 0.843 1_565 S
C2431 C183 1.146 . S
C2435 C1225 1.168 . S
C2453 C1315 0.844 1_556 S
C2449 C194 0.843 . S
C2471 C1345 1.128 . S
C2467 C205 1.077 . S
C2489 C1435 1.135 . S
C2485 C216 1.091 . S
C2507 C1465 1.212 . S
C2503 C227 1.128 . S
C2521 C238 0.828 . S
C2525 C1525 0.854 1_655 S
C2539 C249 1.089 . S
C2543 C1604 1.192 . S
C2557 C260 1.084 . S
C2561 C1664 1.148 . S
C2575 C5 1.487 . S
C2579 C775 1.742 . S
C2597 C925 1.539 . S
C2593 C16 1.401 . S
C2611 C27 1.204 1_545 S
C2615 C835 1.387 . S
C2633 C865 2.074 . S
C2629 C38 1.930 1_565 S
C2647 C49 1.463 . S
C2651 C265 1.637 . S
C2665 C60 1.931 1_556 S
C2669 C355 2.165 . S
C2683 C71 1.388 . S
C2687 C385 1.522 . S
C2701 C82 1.220 1_554 S
C2705 C475 1.392 . S
C2723 C505 1.741 . S
C2719 C93 1.474 . S
C2741 C625 2.160 . S
C2737 C104 1.923 1_655 S
C2755 C115 1.405 . S
C2759 C715 1.534 . S
C2773 C126 1.200 1_455 S
C2777 C595 1.257 . S
C2795 C1484 1.699 . S
C2791 C137 1.320 . S
C2813 C1675 1.578 . S
C2809 C148 1.125 . S
C2827 C159 1.073 . S
C2831 C1544 1.356 . S
C2849 C1615 2.090 . S
C2845 C170 1.575 . S
C2863 C181 1.311 . S
C2867 C985 1.697 . S
C2881 C192 1.556 . S
C2885 C1075 2.078 . S
C2899 C203 1.156 . S
C2903 C1105 1.587 . S
C2921 C1195 1.356 . S
C2917 C214 1.062 . S
C2939 C1255 1.697 . S
C2935 C225 1.323 . S
C2957 C1375 2.152 . S
C2953 C236 1.556 . S
C2971 C247 1.131 . S
C2975 C1405 1.571 . S
C2993 C1285 1.355 . S
C2989 C258 1.031 . S
