# Generated by pormake.
# Topology ctn, (3,4)-cn, num edge types: 1
# Building blocks:
#     Node 0, Type 0, BuildingBlock: CUQRIR_clean_linker_1, # of connection points: 3
#     Node 1, Type 0, BuildingBlock: CUQRIR_clean_linker_1, # of connection points: 3
#     Node 2, Type 0, BuildingBlock: CUQRIR_clean_linker_1, # of connection points: 3
#     Node 3, Type 0, BuildingBlock: CUQRIR_clean_linker_1, # of connection points: 3
#     Node 4, Type 0, BuildingBlock: CUQRIR_clean_linker_1, # of connection points: 3
#     Node 5, Type 0, BuildingBlock: CUQRIR_clean_linker_1, # of connection points: 3
#     Node 6, Type 0, BuildingBlock: CUQRIR_clean_linker_1, # of connection points: 3
#     Node 7, Type 0, BuildingBlock: CUQRIR_clean_linker_1, # of connection points: 3
#     Node 8, Type 0, BuildingBlock: CUQRIR_clean_linker_1, # of connection points: 3
#     Node 9, Type 0, BuildingBlock: CUQRIR_clean_linker_1, # of connection points: 3
#     Node 10, Type 0, BuildingBlock: CUQRIR_clean_linker_1, # of connection points: 3
#     Node 11, Type 0, BuildingBlock: CUQRIR_clean_linker_1, # of connection points: 3
#     Node 12, Type 0, BuildingBlock: CUQRIR_clean_linker_1, # of connection points: 3
#     Node 13, Type 0, BuildingBlock: CUQRIR_clean_linker_1, # of connection points: 3
#     Node 14, Type 0, BuildingBlock: CUQRIR_clean_linker_1, # of connection points: 3
#     Node 15, Type 0, BuildingBlock: CUQRIR_clean_linker_1, # of connection points: 3
#     Node 16, Type 1, BuildingBlock: KUFVIS_clean_sbu_0, # of connection points: 4
#     Node 17, Type 1, BuildingBlock: KUFVIS_clean_sbu_0, # of connection points: 4
#     Node 18, Type 1, BuildingBlock: KUFVIS_clean_sbu_0, # of connection points: 4
#     Node 19, Type 1, BuildingBlock: KUFVIS_clean_sbu_0, # of connection points: 4
#     Node 20, Type 1, BuildingBlock: KUFVIS_clean_sbu_0, # of connection points: 4
#     Node 21, Type 1, BuildingBlock: KUFVIS_clean_sbu_0, # of connection points: 4
#     Node 22, Type 1, BuildingBlock: KUFVIS_clean_sbu_0, # of connection points: 4
#     Node 23, Type 1, BuildingBlock: KUFVIS_clean_sbu_0, # of connection points: 4
#     Node 24, Type 1, BuildingBlock: KUFVIS_clean_sbu_0, # of connection points: 4
#     Node 25, Type 1, BuildingBlock: KUFVIS_clean_sbu_0, # of connection points: 4
#     Node 26, Type 1, BuildingBlock: KUFVIS_clean_sbu_0, # of connection points: 4
#     Node 27, Type 1, BuildingBlock: KUFVIS_clean_sbu_0, # of connection points: 4
#     Edge 28, Type (0, 1), BuildingBlock: MIFKUJ_clean_linker_0, # of connection points: 2
#     Edge 29, Type (0, 1), BuildingBlock: MIFKUJ_clean_linker_0, # of connection points: 2
#     Edge 30, Type (0, 1), BuildingBlock: MIFKUJ_clean_linker_0, # of connection points: 2
#     Edge 31, Type (0, 1), BuildingBlock: MIFKUJ_clean_linker_0, # of connection points: 2
#     Edge 32, Type (0, 1), BuildingBlock: MIFKUJ_clean_linker_0, # of connection points: 2
#     Edge 33, Type (0, 1), BuildingBlock: MIFKUJ_clean_linker_0, # of connection points: 2
#     Edge 34, Type (0, 1), BuildingBlock: MIFKUJ_clean_linker_0, # of connection points: 2
#     Edge 35, Type (0, 1), BuildingBlock: MIFKUJ_clean_linker_0, # of connection points: 2
#     Edge 36, Type (0, 1), BuildingBlock: MIFKUJ_clean_linker_0, # of connection points: 2
#     Edge 37, Type (0, 1), BuildingBlock: MIFKUJ_clean_linker_0, # of connection points: 2
#     Edge 38, Type (0, 1), BuildingBlock: MIFKUJ_clean_linker_0, # of connection points: 2
#     Edge 39, Type (0, 1), BuildingBlock: MIFKUJ_clean_linker_0, # of connection points: 2
#     Edge 40, Type (0, 1), BuildingBlock: MIFKUJ_clean_linker_0, # of connection points: 2
#     Edge 41, Type (0, 1), BuildingBlock: MIFKUJ_clean_linker_0, # of connection points: 2
#     Edge 42, Type (0, 1), BuildingBlock: MIFKUJ_clean_linker_0, # of connection points: 2
#     Edge 43, Type (0, 1), BuildingBlock: MIFKUJ_clean_linker_0, # of connection points: 2
#     Edge 44, Type (0, 1), BuildingBlock: MIFKUJ_clean_linker_0, # of connection points: 2
#     Edge 45, Type (0, 1), BuildingBlock: MIFKUJ_clean_linker_0, # of connection points: 2
#     Edge 46, Type (0, 1), BuildingBlock: MIFKUJ_clean_linker_0, # of connection points: 2
#     Edge 47, Type (0, 1), BuildingBlock: MIFKUJ_clean_linker_0, # of connection points: 2
#     Edge 48, Type (0, 1), BuildingBlock: MIFKUJ_clean_linker_0, # of connection points: 2
#     Edge 49, Type (0, 1), BuildingBlock: MIFKUJ_clean_linker_0, # of connection points: 2
#     Edge 50, Type (0, 1), BuildingBlock: MIFKUJ_clean_linker_0, # of connection points: 2
#     Edge 51, Type (0, 1), BuildingBlock: MIFKUJ_clean_linker_0, # of connection points: 2
#     Edge 52, Type (0, 1), BuildingBlock: MIFKUJ_clean_linker_0, # of connection points: 2
#     Edge 53, Type (0, 1), BuildingBlock: MIFKUJ_clean_linker_0, # of connection points: 2
#     Edge 54, Type (0, 1), BuildingBlock: MIFKUJ_clean_linker_0, # of connection points: 2
#     Edge 55, Type (0, 1), BuildingBlock: MIFKUJ_clean_linker_0, # of connection points: 2
#     Edge 56, Type (0, 1), BuildingBlock: MIFKUJ_clean_linker_0, # of connection points: 2
#     Edge 57, Type (0, 1), BuildingBlock: MIFKUJ_clean_linker_0, # of connection points: 2
#     Edge 58, Type (0, 1), BuildingBlock: MIFKUJ_clean_linker_0, # of connection points: 2
#     Edge 59, Type (0, 1), BuildingBlock: MIFKUJ_clean_linker_0, # of connection points: 2
#     Edge 60, Type (0, 1), BuildingBlock: MIFKUJ_clean_linker_0, # of connection points: 2
#     Edge 61, Type (0, 1), BuildingBlock: MIFKUJ_clean_linker_0, # of connection points: 2
#     Edge 62, Type (0, 1), BuildingBlock: MIFKUJ_clean_linker_0, # of connection points: 2
#     Edge 63, Type (0, 1), BuildingBlock: MIFKUJ_clean_linker_0, # of connection points: 2
#     Edge 64, Type (0, 1), BuildingBlock: MIFKUJ_clean_linker_0, # of connection points: 2
#     Edge 65, Type (0, 1), BuildingBlock: MIFKUJ_clean_linker_0, # of connection points: 2
#     Edge 66, Type (0, 1), BuildingBlock: MIFKUJ_clean_linker_0, # of connection points: 2
#     Edge 67, Type (0, 1), BuildingBlock: MIFKUJ_clean_linker_0, # of connection points: 2
#     Edge 68, Type (0, 1), BuildingBlock: MIFKUJ_clean_linker_0, # of connection points: 2
#     Edge 69, Type (0, 1), BuildingBlock: MIFKUJ_clean_linker_0, # of connection points: 2
#     Edge 70, Type (0, 1), BuildingBlock: MIFKUJ_clean_linker_0, # of connection points: 2
#     Edge 71, Type (0, 1), BuildingBlock: MIFKUJ_clean_linker_0, # of connection points: 2
#     Edge 72, Type (0, 1), BuildingBlock: MIFKUJ_clean_linker_0, # of connection points: 2
#     Edge 73, Type (0, 1), BuildingBlock: MIFKUJ_clean_linker_0, # of connection points: 2
#     Edge 74, Type (0, 1), BuildingBlock: MIFKUJ_clean_linker_0, # of connection points: 2
#     Edge 75, Type (0, 1), BuildingBlock: MIFKUJ_clean_linker_0, # of connection points: 2
# Relax obj value: 0.090
# Max RMSD: 0.207
# Mean RMSD: 0.138
data_MOF--net-ctn--node1-KUFVIS_clean_sbu_0--node2-CUQRIR_clean_linker_1--edge1-MIFKUJ_clean_linker_0
_symmetry_space_group_name_H-M    P1
_symmetry_Int_Tables_number       1
_symmetry_cell_setting            triclinic
loop_
_symmetry_equiv_pos_as_xyz
'x, y, z'
_cell_length_a     68.233017
_cell_length_b     63.625849
_cell_length_c     65.596939
_cell_angle_alpha  97.024319
_cell_angle_beta   89.254109
_cell_angle_gamma 93.925713
loop_
_atom_site_label
_atom_site_type_symbol
_atom_site_fract_x
_atom_site_fract_y
_atom_site_fract_z
_atom_type_partial_charge
C0 C 0.05419 0.0266 0.0777 0.0
N1 N 0.06185 0.03404 0.06059 0.0
N2 N 0.03721 0.03562 0.08326 0.0
C3 C 0.0632 0.01047 0.08898 0.0
C4 C 0.03482 0.04884 0.06894 0.0
N5 N 0.04978 0.04789 0.05513 0.0
C6 C 0.01794 0.06282 0.06859 0.0
H7 H 0.07215 0.99983 0.07859 0.0
H8 H 0.05168 1.00081 0.09642 0.0
H9 H 0.07296 0.01896 0.10114 0.0
H10 H 0.01215 0.06716 0.08432 0.0
H11 H 0.00598 0.05402 0.05913 0.0
H12 H 0.02233 0.0775 0.06168 0.0
C13 C 0.3113 0.71298 0.21072 0.0
N14 N 0.31744 0.70417 0.22712 0.0
N15 N 0.32127 0.73186 0.20929 0.0
C16 C 0.29456 0.70385 0.19692 0.0
C17 C 0.33362 0.73436 0.22556 0.0
N18 N 0.3312 0.7176 0.23661 0.0
C19 C 0.34899 0.75246 0.22964 0.0
H20 H 0.30029 0.69237 0.18455 0.0
H21 H 0.28768 0.71643 0.18976 0.0
H22 H 0.28317 0.69527 0.20559 0.0
H23 H 0.34316 0.76488 0.24101 0.0
H24 H 0.3528 0.75962 0.21538 0.0
H25 H 0.3625 0.74702 0.23598 0.0
C26 C 0.96855 0.49549 0.07141 0.0
N27 N 0.98182 0.48045 0.07032 0.0
N28 N 0.95803 0.49382 0.05378 0.0
C29 C 0.96589 0.5118 0.08969 0.0
C30 C 0.96554 0.47724 0.04192 0.0
N31 N 0.98008 0.46924 0.0519 0.0
C32 C 0.95848 0.4687 0.02067 0.0
H33 H 0.95083 0.51741 0.09025 0.0
H34 H 0.97659 0.52556 0.08859 0.0
H35 H 0.96871 0.50531 0.10422 0.0
H36 H 0.95222 0.48128 0.01296 0.0
H37 H 0.9469 0.45579 0.02187 0.0
H38 H 0.97053 0.46201 0.01102 0.0
C39 C 0.68795 0.79848 0.22017 0.0
N40 N 0.70373 0.80732 0.21085 0.0
N41 N 0.68485 0.80931 0.23888 0.0
C42 C 0.67564 0.77922 0.21105 0.0
C43 C 0.69929 0.82509 0.24061 0.0
N44 N 0.71073 0.824 0.22351 0.0
C45 C 0.70202 0.84182 0.25885 0.0
H46 H 0.66449 0.78428 0.20084 0.0
H47 H 0.66793 0.7711 0.22321 0.0
H48 H 0.68485 0.76795 0.20167 0.0
H49 H 0.69598 0.83609 0.27308 0.0
H50 H 0.6941 0.85584 0.25602 0.0
H51 H 0.71781 0.8469 0.2611 0.0
C52 C 0.0334 0.98186 0.49401 0.0
N53 N 0.04986 0.98177 0.50541 0.0
N54 N 0.03656 0.99435 0.47882 0.0
C55 C 0.01475 0.96836 0.49659 0.0
C56 C 0.05558 1.00174 0.48127 0.0
N57 N 0.06379 0.99388 0.49723 0.0
C58 C 0.06565 0.01794 0.46904 0.0
H59 H 0.00652 0.96496 0.48196 0.0
H60 H 1.00532 0.97698 0.50822 0.0
H61 H 0.01797 0.95312 0.50205 0.0
H62 H 0.05483 0.02745 0.46246 0.0
H63 H 0.07401 0.00962 0.45624 0.0
H64 H 0.07611 0.02881 0.47877 0.0
C65 C 0.19387 0.71554 0.81867 0.0
N66 N 0.20815 0.70728 0.82868 0.0
N67 N 0.18912 0.70303 0.80099 0.0
C68 C 0.18406 0.73546 0.82649 0.0
C69 C 0.20092 0.68669 0.80074 0.0
N70 N 0.21248 0.68924 0.81767 0.0
C71 C 0.20198 0.66899 0.78344 0.0
H72 H 0.16863 0.73459 0.82113 0.0
H73 H 0.19214 0.74916 0.82049 0.0
H74 H 0.18428 0.73834 0.84351 0.0
H75 H 0.1967 0.67379 0.76887 0.0
H76 H 0.19253 0.65511 0.78728 0.0
H77 H 0.21724 0.66409 0.7813 0.0
C78 C 0.97589 0.53184 0.47551 0.0
N79 N 0.98896 0.54886 0.47521 0.0
N80 N 0.96234 0.53562 0.4905 0.0
C81 C 0.9758 0.51196 0.46053 0.0
C82 C 0.96737 0.55561 0.49913 0.0
N83 N 0.98344 0.56386 0.48969 0.0
C84 C 0.95666 0.56678 0.51706 0.0
H85 H 0.97882 0.51603 0.44476 0.0
H86 H 0.96161 0.5024 0.46077 0.0
H87 H 0.98768 0.5022 0.46465 0.0
H88 H 0.94891 0.55523 0.52626 0.0
H89 H 0.94552 0.57643 0.51122 0.0
H90 H 0.96698 0.57745 0.52715 0.0
C91 C 0.80582 0.83097 0.84063 0.0
N92 N 0.82025 0.8175 0.83578 0.0
N93 N 0.80373 0.84344 0.82562 0.0
C94 C 0.79291 0.83105 0.85939 0.0
C95 C 0.81725 0.83705 0.81136 0.0
N96 N 0.82718 0.82106 0.81733 0.0
C97 C 0.82144 0.8474 0.79218 0.0
H98 H 0.78944 0.81463 0.863 0.0
H99 H 0.77905 0.83868 0.85734 0.0
H100 H 0.80092 0.84003 0.87266 0.0
H101 H 0.81628 0.86369 0.79379 0.0
H102 H 0.81358 0.8379 0.77909 0.0
H103 H 0.83741 0.84817 0.78865 0.0
C104 C 0.29977 0.32652 0.3366 0.0
N105 N 0.31465 0.31361 0.33211 0.0
N106 N 0.30027 0.342 0.32415 0.0
C107 C 0.28451 0.3237 0.35292 0.0
C108 C 0.31593 0.33798 0.31174 0.0
N109 N 0.32463 0.3206 0.31641 0.0
C110 C 0.32225 0.35059 0.29453 0.0
H111 H 0.27366 0.31062 0.34714 0.0
H112 H 0.27673 0.33838 0.35708 0.0
H113 H 0.29149 0.31922 0.36681 0.0
H114 H 0.31823 0.36725 0.29777 0.0
H115 H 0.3147 0.34338 0.28023 0.0
H116 H 0.33835 0.35041 0.29195 0.0
C117 C 0.47096 1.00086 0.57345 0.0
N118 N 0.4834 0.98506 0.57351 0.0
N119 N 0.45767 0.99629 0.55804 0.0
C120 C 0.47059 0.01978 0.58962 0.0
C121 C 0.46241 0.97702 0.54883 0.0
N122 N 0.47786 0.97012 0.55831 0.0
C123 C 0.45288 0.96555 0.52967 0.0
H124 H 0.45551 0.0252 0.59178 0.0
H125 H 0.4803 0.03297 0.58472 0.0
H126 H 0.47599 0.01595 0.60453 0.0
H127 H 0.44697 0.9769 0.52014 0.0
H128 H 0.44059 0.95467 0.5341 0.0
H129 H 0.4635 0.95592 0.52036 0.0
C130 C 0.17888 0.29633 0.71719 0.0
N131 N 0.19483 0.30558 0.70852 0.0
N132 N 0.17472 0.30724 0.73558 0.0
C133 C 0.16745 0.27661 0.70769 0.0
C134 C 0.18872 0.32346 0.73781 0.0
N135 N 0.2009 0.3226 0.72126 0.0
C136 C 0.1906 0.33997 0.7563 0.0
H137 H 0.15767 0.26958 0.71907 0.0
H138 H 0.17766 0.26474 0.70098 0.0
H139 H 0.15839 0.28072 0.69502 0.0
H140 H 0.20625 0.34525 0.75929 0.0
H141 H 0.18406 0.33385 0.77016 0.0
H142 H 0.18265 0.35391 0.75333 0.0
C143 C 0.80684 0.22084 0.71154 0.0
N144 N 0.81434 0.21046 0.72617 0.0
N145 N 0.8181 0.23881 0.70921 0.0
C146 C 0.78878 0.21308 0.69916 0.0
C147 C 0.83288 0.23877 0.72287 0.0
N148 N 0.83061 0.2215 0.73316 0.0
C149 C 0.84874 0.2563 0.72719 0.0
H150 H 0.78958 0.21865 0.68377 0.0
H151 H 0.7757 0.21935 0.70738 0.0
H152 H 0.78684 0.19551 0.69727 0.0
H153 H 0.84367 0.27166 0.72368 0.0
H154 H 0.86167 0.25244 0.71736 0.0
H155 H 0.8534 0.2579 0.74348 0.0
C156 C 0.55058 0.52921 0.57734 0.0
N157 N 0.55841 0.53754 0.56075 0.0
N158 N 0.53482 0.53968 0.58469 0.0
C159 C 0.5591 0.5117 0.58713 0.0
C160 C 0.53343 0.55477 0.57196 0.0
N161 N 0.54785 0.55362 0.55754 0.0
C162 C 0.51733 0.56986 0.57283 0.0
H163 H 0.55281 0.49618 0.57961 0.0
H164 H 0.55556 0.51292 0.60377 0.0
H165 H 0.57529 0.51215 0.58511 0.0
H166 H 0.52245 0.58502 0.582 0.0
H167 H 0.50386 0.56332 0.5801 0.0
H168 H 0.51369 0.57331 0.5572 0.0
C169 C 0.53711 0.4748 0.98788 0.0
N170 N 0.55271 0.47667 1.00072 0.0
N171 N 0.53748 0.49132 0.97663 0.0
C172 C 0.52096 0.4574 0.98705 0.0
C173 C 0.55386 0.50338 0.98317 0.0
N174 N 0.56303 0.49465 0.99803 0.0
C175 C 0.56183 0.52266 0.97375 0.0
H176 H 0.52539 0.44362 0.97637 0.0
H177 H 0.50707 0.46272 0.98145 0.0
H178 H 0.5184 0.4521 1.00241 0.0
H179 H 0.55706 0.53708 0.98322 0.0
H180 H 0.55631 0.52249 0.95789 0.0
H181 H 0.57812 0.52358 0.97337 0.0
C182 C 0.68584 0.21414 0.32428 0.0
N183 N 0.70192 0.20813 0.33343 0.0
N184 N 0.68496 0.20571 0.30433 0.0
C185 C 0.67192 0.22976 0.3342 0.0
C186 C 0.70119 0.19457 0.30152 0.0
N187 N 0.7116 0.19615 0.31918 0.0
C188 C 0.7063 0.1813 0.28187 0.0
H189 H 0.66033 0.22112 0.34256 0.0
H190 H 0.66475 0.23791 0.32258 0.0
H191 H 0.67972 0.24185 0.34535 0.0
H192 H 0.71764 0.19028 0.27352 0.0
H193 H 0.69326 0.17739 0.27185 0.0
H194 H 0.71248 0.1664 0.28519 0.0
C195 C 0.47524 0.03298 0.9735 0.0
N196 N 0.48821 0.05 0.97249 0.0
N197 N 0.46157 0.03736 0.98828 0.0
C198 C 0.47495 0.0127 0.95903 0.0
C199 C 0.46659 0.05761 0.9962 0.0
N200 N 0.48261 0.06548 0.98642 0.0
C201 C 0.45675 0.06897 0.01466 0.0
H202 H 0.45997 1.00472 0.95778 0.0
H203 H 0.48491 1.00183 0.96498 0.0
H204 H 0.48018 0.01581 0.94352 0.0
H205 H 0.44941 0.05752 0.02425 0.0
H206 H 0.44544 0.07879 0.0094 0.0
H207 H 0.46756 0.07953 0.02424 0.0
Mn208 Mn 0.25602 0.88007 0.03126 0.0
Mn209 Mn 0.25751 0.89684 0.98421 0.0
C210 C 0.24203 0.85833 1.00332 0.0
C211 C 0.2696 0.86286 0.05696 0.0
C212 C 0.22995 0.9136 0.01815 0.0
O213 O 0.27806 0.90378 0.03401 0.0
O214 O 0.27869 0.91231 1.00158 0.0
C215 C 0.29554 0.88077 0.96941 0.0
N216 N 0.27591 0.88197 0.96672 0.0
C217 C 0.27689 0.86091 0.93369 0.0
C218 C 0.29714 0.85952 0.93606 0.0
C219 C 0.30646 0.86936 0.95405 0.0
C220 C 0.26675 0.87236 0.94957 0.0
H221 H 0.30275 0.88838 0.9832 0.0
C222 C 0.28524 0.91436 0.01997 0.0
O223 O 0.257 0.87715 0.06124 0.0
O224 O 0.27471 0.85893 0.03781 0.0
N225 N 0.2379 0.88323 0.96563 0.0
C226 C 0.21809 0.88483 0.96644 0.0
C227 C 0.20653 0.87585 0.94965 0.0
C228 C 0.21546 0.86533 0.93225 0.0
C229 C 0.23581 0.86347 0.93196 0.0
C230 C 0.24662 0.87316 0.94894 0.0
H231 H 0.2112 0.8932 0.97964 0.0
O232 O 0.23632 0.85614 0.02195 0.0
O233 O 0.25551 0.87352 1.00156 0.0
O234 O 0.23484 0.90178 0.03138 0.0
O235 O 0.2379 0.91319 1.00043 0.0
C236 C 0.24578 0.85238 0.91551 0.0
C237 C 0.26629 0.85096 0.91645 0.0
H238 H 0.30563 0.85071 0.92427 0.0
H239 H 0.32203 0.8681 0.95607 0.0
H240 H 0.19081 0.87726 0.95002 0.0
H241 H 0.20655 0.85875 0.91917 0.0
H242 H 0.23778 0.84463 0.90221 0.0
H243 H 0.27375 0.84203 0.9039 0.0
Mn244 Mn 0.14608 0.5188 0.26953 0.0
Mn245 Mn 0.12928 0.56742 0.26841 0.0
C246 C 0.16535 0.54501 0.25517 0.0
C247 C 0.16338 0.49398 0.28456 0.0
C248 C 0.11486 0.52888 0.23926 0.0
O249 O 0.12451 0.51967 0.29168 0.0
O250 O 0.11485 0.5525 0.28952 0.0
C251 C 0.1422 0.58737 0.30966 0.0
N252 N 0.14197 0.58751 0.28892 0.0
C253 C 0.16059 0.62124 0.29164 0.0
C254 C 0.16095 0.62151 0.31304 0.0
C255 C 0.15177 0.60446 0.32208 0.0
C256 C 0.15081 0.60379 0.28007 0.0
H257 H 0.13512 0.57433 0.31667 0.0
C258 C 0.11379 0.53506 0.29752 0.0
O259 O 0.14969 0.48817 0.27112 0.0
O260 O 0.16649 0.51425 0.28998 0.0
N261 N 0.14203 0.58389 0.24898 0.0
C262 C 0.14144 0.58052 0.22808 0.0
C263 C 0.15 0.59605 0.21665 0.0
C264 C 0.15904 0.61485 0.22684 0.0
C265 C 0.15984 0.61777 0.24833 0.0
C266 C 0.15074 0.60193 0.25891 0.0
H267 H 0.13427 0.56621 0.22019 0.0
O268 O 0.16764 0.52503 0.24965 0.0
O269 O 0.15144 0.54912 0.26856 0.0
O270 O 0.12543 0.51578 0.24648 0.0
O271 O 0.11527 0.54847 0.24641 0.0
C272 C 0.16938 0.63573 0.25968 0.0
C273 C 0.16985 0.6374 0.28132 0.0
H274 H 0.16837 0.63463 0.32267 0.0
H275 H 0.15205 0.60451 0.33858 0.0
H276 H 0.14946 0.59363 0.20004 0.0
H277 H 0.1653 0.62699 0.21803 0.0
H278 H 0.17661 0.64821 0.2519 0.0
H279 H 0.1775 0.65112 0.28986 0.0
Mn280 Mn 0.77289 0.64044 0.00899 0.0
Mn281 Mn 0.73297 0.65613 0.98661 0.0
C282 C 0.74222 0.6221 0.01225 0.0
C283 C 0.80116 0.62126 0.00857 0.0
C284 C 0.75141 0.67956 0.0256 0.0
O285 O 0.78466 0.65998 0.98837 0.0
O286 O 0.75702 0.6652 0.97169 0.0
C287 C 0.73443 0.62946 0.94644 0.0
N288 N 0.72454 0.63586 0.96401 0.0
C289 C 0.69508 0.61572 0.95167 0.0
C290 C 0.70484 0.60917 0.93326 0.0
C291 C 0.72468 0.61585 0.93076 0.0
C292 C 0.70572 0.62879 0.96695 0.0
H293 H 0.7496 0.63479 0.94439 0.0
C294 C 0.7757 0.66717 0.9739 0.0
O295 O 0.79918 0.63836 0.02111 0.0
O296 O 0.78694 0.61553 0.99564 0.0
N297 N 0.70846 0.64855 0.99919 0.0
C298 C 0.70081 0.65723 0.01737 0.0
C299 C 0.68124 0.65169 0.02249 0.0
C300 C 0.66953 0.63787 0.00858 0.0
C301 C 0.67746 0.62983 0.98963 0.0
C302 C 0.69717 0.63557 0.98554 0.0
H303 H 0.70954 0.66826 0.02796 0.0
O304 O 0.75632 0.62065 0.02498 0.0
O305 O 0.74662 0.63382 0.99773 0.0
O306 O 0.76398 0.6661 0.02768 0.0
O307 O 0.73997 0.678 0.01014 0.0
C308 C 0.66638 0.61695 0.97434 0.0
C309 C 0.67513 0.61012 0.9553 0.0
H310 H 0.69725 0.59904 0.92096 0.0
H311 H 0.73236 0.61075 0.91667 0.0
H312 H 0.67515 0.65826 0.03701 0.0
H313 H 0.65437 0.63384 0.01246 0.0
H314 H 0.65104 0.61244 0.97696 0.0
H315 H 0.66632 0.60061 0.94353 0.0
Mn316 Mn 0.87754 0.019 0.28377 0.0
Mn317 Mn 0.89416 0.9699 0.28217 0.0
C318 C 0.85975 0.98973 0.26691 0.0
C319 C 0.85959 0.04725 0.29838 0.0
C320 C 0.91024 1.00187 0.25471 0.0
O321 O 0.89779 0.02304 0.30699 0.0
O322 O 0.90802 0.98982 0.30379 0.0
C323 C 0.87882 0.9605 0.32276 0.0
N324 N 0.87978 0.95532 0.30201 0.0
C325 C 0.85876 0.92363 0.30369 0.0
C326 C 0.85758 0.92859 0.32508 0.0
C327 C 0.86762 0.94714 0.33465 0.0
C328 C 0.87005 0.93762 0.29264 0.0
H329 H 0.88655 0.9747 0.33019 0.0
C330 C 0.9087 0.00908 0.31226 0.0
O331 O 0.87414 0.05001 0.28587 0.0
O332 O 0.85597 0.02816 0.30321 0.0
N333 N 0.88216 0.94873 0.26211 0.0
C334 C 0.88494 0.94614 0.24136 0.0
C335 C 0.87591 0.92832 0.22949 0.0
C336 C 0.8644 0.91318 0.23909 0.0
C337 C 0.86216 0.91592 0.26051 0.0
C338 C 0.8715 0.934 0.27154 0.0
H339 H 0.89391 0.95764 0.23391 0.0
O340 O 0.85741 0.00864 0.26228 0.0
O341 O 0.87233 0.98844 0.28136 0.0
O342 O 0.89948 0.01664 0.26206 0.0
O343 O 0.90941 0.98359 0.26098 0.0
C344 C 0.85105 0.9014 0.27136 0.0
C345 C 0.8492 0.90535 0.29291 0.0
H346 H 0.84901 0.91829 0.33431 0.0
H347 H 0.86676 0.9511 0.35114 0.0
H348 H 0.87782 0.92625 0.21298 0.0
H349 H 0.8574 0.89949 0.22989 0.0
H350 H 0.84378 0.88721 0.26325 0.0
H351 H 0.84043 0.89418 0.30104 0.0
Mn352 Mn 0.27183 0.13943 0.50928 0.0
Mn353 Mn 0.22923 0.15112 0.48885 0.0
C354 C 0.24255 0.11987 0.5154 0.0
C355 C 0.30089 0.12154 0.50821 0.0
C356 C 0.24859 0.17745 0.52586 0.0
O357 O 0.28112 0.15784 0.48671 0.0
O358 O 0.2518 0.16164 0.47255 0.0
C359 C 0.23077 0.12316 0.44939 0.0
N360 N 0.22116 0.12955 0.46716 0.0
C361 C 0.19365 0.10462 0.45791 0.0
C362 C 0.20317 0.0979 0.43943 0.0
C363 C 0.22185 0.10716 0.4352 0.0
C364 C 0.20329 0.12058 0.4715 0.0
H365 H 0.24515 0.13018 0.44614 0.0
C366 C 0.2706 0.16436 0.473 0.0
O367 O 0.29908 0.13928 0.51988 0.0
O368 O 0.28612 0.11459 0.49638 0.0
N369 N 0.20606 0.14188 0.50292 0.0
C370 C 0.19911 0.14972 0.52171 0.0
C371 C 0.18054 0.14224 0.52826 0.0
C372 C 0.16924 0.1269 0.5154 0.0
C373 C 0.1767 0.11902 0.49616 0.0
C374 C 0.19518 0.12731 0.49033 0.0
H375 H 0.20758 0.16171 0.53159 0.0
O376 O 0.25743 0.12026 0.52759 0.0
O377 O 0.24528 0.13073 0.49996 0.0
O378 O 0.2627 0.16558 0.52722 0.0
O379 O 0.23583 0.17402 0.51153 0.0
C380 C 0.16654 0.10324 0.48256 0.0
C381 C 0.17507 0.09594 0.46351 0.0
H382 H 0.19636 0.08555 0.42844 0.0
H383 H 0.22934 0.10196 0.42102 0.0
H384 H 0.17488 0.14838 0.54313 0.0
H385 H 0.15484 0.12135 0.52044 0.0
H386 H 0.15227 0.09644 0.4867 0.0
H387 H 0.16725 0.08359 0.45331 0.0
Mn388 Mn 0.37474 0.5106 0.78275 0.0
Mn389 Mn 0.3891 0.46041 0.77665 0.0
C390 C 0.35559 0.48333 0.76417 0.0
C391 C 0.35771 0.53833 0.79996 0.0
C392 C 0.40668 0.49458 0.75226 0.0
O393 O 0.39527 0.5116 0.80553 0.0
O394 O 0.40343 0.47764 0.79981 0.0
C395 C 0.3729 0.44749 0.81569 0.0
N396 N 0.37397 0.44431 0.7948 0.0
C397 C 0.35177 0.41311 0.79347 0.0
C398 C 0.3505 0.41599 0.81497 0.0
C399 C 0.36106 0.4333 0.82612 0.0
C400 C 0.3637 0.42785 0.78392 0.0
H401 H 0.38101 0.46075 0.82432 0.0
C402 C 0.40519 0.49632 0.80974 0.0
O403 O 0.37237 0.54189 0.78777 0.0
O404 O 0.35358 0.51873 0.803 0.0
N405 N 0.37638 0.44179 0.75494 0.0
C406 C 0.37896 0.44144 0.73426 0.0
C407 C 0.36931 0.42517 0.7209 0.0
C408 C 0.35734 0.40929 0.72894 0.0
C409 C 0.35517 0.40979 0.75027 0.0
C410 C 0.36515 0.42638 0.76282 0.0
H411 H 0.38821 0.45354 0.72799 0.0
O412 O 0.35405 0.50289 0.76108 0.0
O413 O 0.3683 0.4803 0.7779 0.0
O414 O 0.39653 0.50935 0.76084 0.0
O415 O 0.40504 0.47562 0.75693 0.0
C416 C 0.34348 0.39448 0.75956 0.0
C417 C 0.34163 0.39623 0.78114 0.0
H418 H 0.34142 0.40506 0.82308 0.0
H419 H 0.36011 0.43567 0.84271 0.0
H420 H 0.3711 0.42488 0.70446 0.0
H421 H 0.34985 0.39681 0.71859 0.0
H422 H 0.33568 0.38142 0.75023 0.0
H423 H 0.33235 0.38453 0.78808 0.0
Mn424 Mn 0.75201 0.38522 0.53153 0.0
Mn425 Mn 0.75186 0.39644 0.48249 0.0
C426 C 0.73784 0.36089 0.50576 0.0
C427 C 0.7668 0.37042 0.55808 0.0
C428 C 0.72484 0.41622 0.51559 0.0
O429 O 0.77362 0.4092 0.53152 0.0
O430 O 0.77308 0.41421 0.49803 0.0
C431 C 0.79015 0.3804 0.46866 0.0
N432 N 0.77031 0.38006 0.46645 0.0
C433 C 0.77105 0.35366 0.43691 0.0
C434 C 0.79151 0.35381 0.4388 0.0
C435 C 0.80109 0.36721 0.45477 0.0
C436 C 0.76094 0.36723 0.45114 0.0
H437 H 0.79758 0.39062 0.48095 0.0
C438 C 0.78019 0.41828 0.5162 0.0
O439 O 0.75417 0.38478 0.56195 0.0
O440 O 0.77135 0.36534 0.53895 0.0
N441 N 0.73217 0.37998 0.46581 0.0
C442 C 0.71227 0.38068 0.46697 0.0
C443 C 0.70044 0.36769 0.4525 0.0
C444 C 0.70918 0.35422 0.43694 0.0
C445 C 0.72969 0.35382 0.43601 0.0
C446 C 0.74074 0.36723 0.45076 0.0
H447 H 0.70547 0.391 0.47891 0.0
O448 O 0.7325 0.3603 0.52476 0.0
O449 O 0.75088 0.37594 0.50249 0.0
O450 O 0.73046 0.40631 0.53007 0.0
O451 O 0.73213 0.41382 0.49748 0.0
C452 C 0.73959 0.34035 0.42126 0.0
C453 C 0.76025 0.34024 0.42174 0.0
H454 H 0.79999 0.34356 0.42821 0.0
H455 H 0.81686 0.36733 0.4564 0.0
H456 H 0.68461 0.36804 0.45336 0.0
H457 H 0.69999 0.34414 0.42588 0.0
H458 H 0.73144 0.32976 0.40969 0.0
H459 H 0.76767 0.32955 0.41054 0.0
Mn460 Mn 0.64997 0.01992 0.77059 0.0
Mn461 Mn 0.634 0.06867 0.76812 0.0
C462 C 0.66991 0.04549 0.75602 0.0
C463 C 0.66662 0.99515 0.78635 0.0
C464 C 0.6195 0.02982 0.73944 0.0
O465 O 0.62808 0.02152 0.79235 0.0
O466 O 0.61893 0.05435 0.78926 0.0
C467 C 0.64641 0.08913 0.80938 0.0
N468 N 0.64656 0.08892 0.78859 0.0
C469 C 0.66542 0.1225 0.7911 0.0
C470 C 0.6654 0.12312 0.81255 0.0
C471 C 0.65592 0.10633 0.82171 0.0
C472 C 0.65573 0.10494 0.77961 0.0
H473 H 0.63909 0.07629 0.81648 0.0
C474 C 0.61747 0.03713 0.79766 0.0
O475 O 0.65306 0.98933 0.77276 0.0
O476 O 0.66993 0.01543 0.79152 0.0
N477 N 0.64735 0.08461 0.74864 0.0
C478 C 0.6471 0.08089 0.72775 0.0
C479 C 0.65581 0.09622 0.7162 0.0
C480 C 0.66472 0.11516 0.72625 0.0
C481 C 0.6653 0.11836 0.74776 0.0
C482 C 0.656 0.10273 0.75845 0.0
H483 H 0.64008 0.06646 0.71995 0.0
O484 O 0.67191 0.02539 0.75091 0.0
O485 O 0.65587 0.05011 0.76911 0.0
O486 O 0.62961 0.01673 0.74726 0.0
O487 O 0.62018 0.04956 0.74605 0.0
C488 C 0.67476 0.13644 0.759 0.0
C489 C 0.67493 0.13843 0.78066 0.0
H490 H 0.67275 0.13634 0.82212 0.0
H491 H 0.6559 0.10666 0.83825 0.0
H492 H 0.65545 0.09355 0.69959 0.0
H493 H 0.67106 0.12716 0.71732 0.0
H494 H 0.68215 0.14876 0.75113 0.0
H495 H 0.68252 0.15223 0.78913 0.0
Mn496 Mn 1.00557 0.23871 0.90438 0.0
Mn497 Mn 0.96446 0.2359 0.93319 0.0
C498 C 0.97595 0.22393 0.88958 0.0
C499 C 0.02817 0.25533 0.88333 0.0
C500 C 0.99805 0.20755 0.93623 0.0
O501 O 0.01176 0.26111 0.92921 0.0
O502 O 0.98262 0.25947 0.94591 0.0
C503 C 0.94791 0.27673 0.92815 0.0
N504 N 0.94622 0.25511 0.92581 0.0
C505 C 0.91279 0.2545 0.91448 0.0
C506 C 0.9141 0.27677 0.91699 0.0
C507 C 0.93181 0.28792 0.92362 0.0
C508 C 0.92942 0.24423 0.91892 0.0
H509 H 0.96136 0.28537 0.93368 0.0
C510 C 1.00011 0.2677 0.94374 0.0
O511 O 0.03303 0.24092 0.89427 0.0
O512 O 0.01009 0.26066 0.88492 0.0
N513 N 0.94569 0.21386 0.92217 0.0
C514 C 0.94668 0.19243 0.92114 0.0
C515 C 0.93033 0.17895 0.91422 0.0
C516 C 0.91306 0.18765 0.90874 0.0
C517 C 0.9123 0.20976 0.91026 0.0
C518 C 0.92914 0.22238 0.91698 0.0
H519 H 0.9598 0.18564 0.9256 0.0
O520 O 0.99268 0.21879 0.88143 0.0
O521 O 0.97721 0.23711 0.9063 0.0
O522 O 0.00816 0.21438 0.9217 0.0
O523 O 0.98179 0.21502 0.9422 0.0
C524 C 0.89537 0.21975 0.90578 0.0
C525 C 0.89554 0.24209 0.90818 0.0
H526 H 0.90159 0.28551 0.91402 0.0
H527 H 0.93291 0.30509 0.92556 0.0
H528 H 0.931 0.16191 0.91324 0.0
H529 H 0.90042 0.17722 0.90357 0.0
H530 H 0.88204 0.21042 0.90078 0.0
H531 H 0.88221 0.24951 0.90533 0.0
Mn532 Mn 0.51126 0.7448 0.40388 0.0
Mn533 Mn 0.46639 0.73984 0.42573 0.0
C534 C 0.48458 0.72903 0.38462 0.0
C535 C 0.53579 0.76238 0.38584 0.0
C536 C 0.4995 0.71236 0.43372 0.0
O537 O 0.5135 0.76709 0.42928 0.0
O538 O 0.48269 0.76313 0.44191 0.0
C539 C 0.45159 0.78106 0.41877 0.0
N540 N 0.44964 0.75945 0.4162 0.0
C541 C 0.41967 0.75943 0.39723 0.0
C542 C 0.42131 0.78168 0.39979 0.0
C543 C 0.43735 0.79254 0.41059 0.0
C544 C 0.43422 0.74884 0.4059 0.0
H545 H 0.46395 0.78949 0.42696 0.0
C546 C 0.50004 0.7724 0.44234 0.0
O547 O 0.53978 0.74841 0.39772 0.0
O548 O 0.51755 0.76691 0.38509 0.0
N549 N 0.44926 0.7182 0.4111 0.0
C550 C 0.45067 0.69678 0.4086 0.0
C551 C 0.43619 0.68362 0.39738 0.0
C552 C 0.42042 0.69261 0.38888 0.0
C553 C 0.41925 0.71469 0.39171 0.0
C554 C 0.43402 0.72699 0.40319 0.0
H555 H 0.46283 0.68979 0.41497 0.0
O556 O 0.50233 0.72444 0.37932 0.0
O557 O 0.48304 0.74205 0.40134 0.0
O558 O 0.51185 0.72064 0.42181 0.0
O559 O 0.48211 0.71847 0.43647 0.0
C560 C 0.40427 0.72499 0.38317 0.0
C561 C 0.40447 0.74734 0.38594 0.0
H562 H 0.41046 0.79059 0.39333 0.0
H563 H 0.43878 0.80971 0.41253 0.0
H564 H 0.43725 0.6666 0.39519 0.0
H565 H 0.40941 0.68243 0.38004 0.0
H566 H 0.39271 0.71589 0.37414 0.0
H567 H 0.39306 0.7551 0.379 0.0
Mn568 Mn 0.01627 0.78165 0.64617 0.0
Mn569 Mn 0.99115 0.73747 0.65938 0.0
C570 C 0.01707 0.74968 0.6247 0.0
C571 C 0.01937 0.81326 0.63074 0.0
C572 C 0.03107 0.75282 0.67655 0.0
O573 O 0.99754 0.79405 0.6685 0.0
O574 O 0.9834 0.76326 0.67687 0.0
C575 C 0.95192 0.748 0.6464 0.0
N576 N 0.96648 0.73429 0.64547 0.0
C577 C 0.94694 0.70776 0.62391 0.0
C578 C 0.93172 0.72157 0.62466 0.0
C579 C 0.93425 0.74181 0.63591 0.0
C580 C 0.96426 0.71488 0.63456 0.0
H581 H 0.9537 0.76348 0.65516 0.0
C582 C 0.98586 0.78347 0.6794 0.0
O583 O 0.03081 0.80987 0.64546 0.0
O584 O 1.00556 0.79858 0.62543 0.0
N585 N 0.99634 0.71082 0.64432 0.0
C586 C 0.01235 0.69933 0.64537 0.0
C587 C 0.012 0.67852 0.6354 0.0
C588 C 0.99511 0.66965 0.6247 0.0
C589 C 0.97883 0.68174 0.62383 0.0
C590 C 0.97994 0.70231 0.63426 0.0
H591 H 0.0252 0.70593 0.65394 0.0
O592 O 0.03062 0.76487 0.62386 0.0
O593 O 1.00278 0.7537 0.63779 0.0
O594 O 0.03256 0.76978 0.66786 0.0
O595 O 0.01635 0.73926 0.67407 0.0
C596 C 0.96149 0.67412 0.61315 0.0
C597 C 0.94559 0.68718 0.61308 0.0
H598 H 0.91804 0.7168 0.61667 0.0
H599 H 0.92257 0.75255 0.63662 0.0
H600 H 0.02459 0.66928 0.63631 0.0
H601 H 0.99459 0.65344 0.61746 0.0
H602 H 0.96025 0.65828 0.60487 0.0
H603 H 0.93237 0.6812 0.60473 0.0
Mn604 Mn 0.51409 0.28105 0.14521 0.0
Mn605 Mn 0.48918 0.23673 0.15837 0.0
C606 C 0.51511 0.24913 0.12374 0.0
C607 C 0.5172 0.31264 0.12981 0.0
C608 C 0.52893 0.25247 0.17576 0.0
O609 O 0.4952 0.29329 0.16751 0.0
O610 O 0.48107 0.26243 0.17572 0.0
C611 C 0.44994 0.24678 0.14498 0.0
N612 N 0.46464 0.23326 0.1442 0.0
C613 C 0.44553 0.20654 0.12241 0.0
C614 C 0.43017 0.22017 0.123 0.0
C615 C 0.43242 0.24041 0.13428 0.0
C616 C 0.4627 0.21385 0.13326 0.0
H617 H 0.45151 0.26227 0.15377 0.0
C618 C 0.48344 0.28265 0.17829 0.0
O619 O 0.52852 0.30932 0.14464 0.0
O620 O 0.50343 0.29795 0.12442 0.0
N621 N 0.49475 0.21016 0.14336 0.0
C622 C 0.51088 0.19889 0.14454 0.0
C623 C 0.5108 0.17809 0.13456 0.0
C624 C 0.49405 0.16903 0.12371 0.0
C625 C 0.47767 0.18092 0.12266 0.0
C626 C 0.47851 0.20148 0.13311 0.0
H627 H 0.5236 0.20564 0.15325 0.0
O628 O 0.52859 0.26439 0.12294 0.0
O629 O 0.50078 0.25304 0.1368 0.0
O630 O 0.53043 0.26927 0.16685 0.0
O631 O 0.51425 0.23884 0.17341 0.0
C632 C 0.46048 0.17312 0.11179 0.0
C633 C 0.44446 0.18598 0.11156 0.0
H634 H 0.4166 0.21525 0.11486 0.0
H635 H 0.42062 0.25101 0.13487 0.0
H636 H 0.52347 0.16898 0.13557 0.0
H637 H 0.49371 0.15281 0.11653 0.0
H638 H 0.45946 0.15728 0.1035 0.0
H639 H 0.43136 0.17985 0.10306 0.0
H640 H 0.23735 0.73729 0.83744 0.0
H641 H 0.2443 0.75728 0.87136 0.0
H642 H 0.20055 0.71695 0.89856 0.0
H643 H 0.19403 0.69676 0.86457 0.0
H644 H 0.19447 0.76076 0.90529 0.0
H645 H 0.24537 0.71459 0.91245 0.0
H646 H 0.27463 0.69532 0.90161 0.0
H647 H 0.30836 0.75441 0.89901 0.0
H648 H 0.27924 0.77407 0.90949 0.0
H649 H 0.20837 0.83246 0.9974 0.0
H650 H 0.20296 0.80088 0.97249 0.0
H651 H 0.26051 0.81353 0.94649 0.0
H652 H 0.26711 0.84186 0.97423 0.0
H653 H 0.2574 0.77697 0.94257 0.0
H654 H 0.20487 0.82156 0.92349 0.0
H655 H 0.175 0.84153 0.9303 0.0
H656 H 0.14486 0.78695 0.95175 0.0
H657 H 0.17445 0.76684 0.94502 0.0
C658 C 0.2299 0.73226 0.85087 0.0
C659 C 0.21548 0.71539 0.84871 0.0
C660 C 0.23375 0.74367 0.87016 0.0
C661 C 0.22295 0.73856 0.88748 0.0
C662 C 0.20911 0.72107 0.88542 0.0
C663 C 0.20551 0.70946 0.86615 0.0
C664 C 0.22453 0.75302 0.90702 0.0
C665 C 0.20817 0.76419 0.91366 0.0
C666 C 0.24242 0.75762 0.91769 0.0
C667 C 0.26005 0.74582 0.91165 0.0
C668 C 0.25898 0.72349 0.90943 0.0
C669 C 0.27555 0.71249 0.90336 0.0
C670 C 0.29332 0.72363 0.89959 0.0
C671 C 0.29458 0.7458 0.90193 0.0
C672 C 0.27805 0.75689 0.90796 0.0
C673 C 0.21973 0.82848 0.98618 0.0
C674 C 0.23767 0.84073 0.98669 0.0
C675 C 0.21652 0.81053 0.9716 0.0
C676 C 0.23083 0.805 0.95651 0.0
C677 C 0.2489 0.81719 0.95749 0.0
C678 C 0.25251 0.83413 0.97291 0.0
C679 C 0.22767 0.78631 0.94018 0.0
C680 C 0.24367 0.77391 0.93427 0.0
C681 C 0.20951 0.78088 0.9298 0.0
C682 C 0.1919 0.793 0.93415 0.0
C683 C 0.19189 0.81406 0.92989 0.0
C684 C 0.17505 0.82531 0.93366 0.0
C685 C 0.15814 0.81558 0.94163 0.0
C686 C 0.15799 0.79451 0.94569 0.0
C687 C 0.17476 0.78318 0.94185 0.0
H688 H 0.14513 0.82432 0.94455 0.0
H689 H 0.30612 0.71508 0.89489 0.0
H690 H 0.02044 0.52565 0.46997 0.0
H691 H 0.04311 0.52371 0.44054 0.0
H692 H 0.01434 0.57386 0.41678 0.0
H693 H 0.99163 0.57562 0.44635 0.0
H694 H 0.01717 0.53925 0.38805 0.0
H695 H 0.06046 0.58251 0.43509 0.0
H696 H 0.07854 0.59242 0.46752 0.0
H697 H 0.10962 0.53565 0.4565 0.0
H698 H 0.09148 0.5252 0.42415 0.0
H699 H 0.08282 0.55917 0.30765 0.0
H700 H 0.06268 0.56067 0.33859 0.0
H701 H 0.09353 0.5103 0.35922 0.0
H702 H 0.11409 0.50879 0.32806 0.0
H703 H 0.09002 0.5437 0.38981 0.0
H704 H 0.047 0.50053 0.34274 0.0
H705 H 0.02873 0.49033 0.31047 0.0
H706 H 0.99698 0.54661 0.32173 0.0
H707 H 0.01526 0.55732 0.35394 0.0
C708 C 0.01938 0.53657 0.45868 0.0
C709 C 1.00449 0.55086 0.46035 0.0
C710 C 0.03227 0.53547 0.44188 0.0
C711 C 0.03046 0.54864 0.42639 0.0
C712 C 0.01602 0.56354 0.42851 0.0
C713 C 1.00321 0.56472 0.44544 0.0
C714 C 0.04267 0.54575 0.40737 0.0
C715 C 0.0331 0.54056 0.38842 0.0
C716 C 0.06346 0.54669 0.40788 0.0
C717 C 0.07446 0.55296 0.42729 0.0
C718 C 0.07103 0.57203 0.43967 0.0
C719 C 0.0813 0.57777 0.45802 0.0
C720 C 0.09518 0.56465 0.46409 0.0
C721 C 0.09884 0.54578 0.45179 0.0
C722 C 0.08858 0.53995 0.43344 0.0
C723 C 0.08526 0.5482 0.3186 0.0
C724 C 0.10011 0.53381 0.31528 0.0
C725 C 0.07364 0.54906 0.33632 0.0
C726 C 0.07647 0.53555 0.35124 0.0
C727 C 0.09106 0.52089 0.34791 0.0
C728 C 0.10268 0.51991 0.33001 0.0
C729 C 0.0645 0.5374 0.37048 0.0
C730 C 0.07409 0.54235 0.38946 0.0
C731 C 0.0437 0.53621 0.37004 0.0
C732 C 0.03264 0.52982 0.35068 0.0
C733 C 0.03624 0.51083 0.33826 0.0
C734 C 0.02585 0.50494 0.31999 0.0
C735 C 0.01173 0.51784 0.31403 0.0
C736 C 0.00793 0.53664 0.32635 0.0
C737 C 0.01829 0.54262 0.34463 0.0
H738 H 1.00371 0.51325 0.29988 0.0
H739 H 0.10313 0.56912 0.4783 0.0
H740 H 0.81378 0.77575 0.82318 0.0
H741 H 0.81205 0.74719 0.84541 0.0
H742 H 0.83295 0.792 0.89643 0.0
H743 H 0.83463 0.82042 0.87411 0.0
H744 H 0.84706 0.75104 0.89716 0.0
H745 H 0.78512 0.78303 0.89104 0.0
H746 H 0.75751 0.79436 0.87203 0.0
H747 H 0.74523 0.73032 0.84395 0.0
H748 H 0.7728 0.71862 0.86278 0.0
H749 H 0.80467 0.69942 0.981 0.0
H750 H 0.81778 0.72295 0.95631 0.0
H751 H 0.78494 0.68455 0.90783 0.0
H752 H 0.77114 0.662 0.93258 0.0
H753 H 0.77843 0.72211 0.90515 0.0
H754 H 0.83833 0.68874 0.91264 0.0
H755 H 0.86586 0.67664 0.93115 0.0
H756 H 0.88275 0.74106 0.95522 0.0
H757 H 0.85515 0.75353 0.93706 0.0
C758 C 0.81872 0.77922 0.83893 0.0
C759 C 0.82442 0.80016 0.84697 0.0
C760 C 0.81755 0.763 0.85169 0.0
C761 C 0.82212 0.76748 0.87271 0.0
C762 C 0.82936 0.7881 0.88031 0.0
C763 C 0.83038 0.80431 0.86758 0.0
C764 C 0.8172 0.75145 0.88717 0.0
C765 C 0.83206 0.74474 0.89902 0.0
C766 C 0.79769 0.74298 0.88944 0.0
C767 C 0.78112 0.75 0.87815 0.0
C768 C 0.7766 0.7714 0.88071 0.0
C769 C 0.76095 0.77788 0.87 0.0
C770 C 0.7497 0.76309 0.85671 0.0
C771 C 0.754 0.74177 0.85421 0.0
C772 C 0.7696 0.7352 0.86493 0.0
C773 C 0.80066 0.69579 0.96497 0.0
C774 C 0.7869 0.67884 0.95873 0.0
C775 C 0.80818 0.70924 0.9508 0.0
C776 C 0.80245 0.70565 0.93 0.0
C777 C 0.78953 0.68794 0.9237 0.0
C778 C 0.78172 0.6749 0.93788 0.0
C779 C 0.80834 0.7211 0.91508 0.0
C780 C 0.79355 0.728 0.90322 0.0
C781 C 0.82795 0.72949 0.91272 0.0
C782 C 0.84456 0.72205 0.92365 0.0
C783 C 0.84783 0.70032 0.92201 0.0
C784 C 0.86346 0.69339 0.93241 0.0
C785 C 0.87602 0.70807 0.94439 0.0
C786 C 0.87299 0.72971 0.94595 0.0
C787 C 0.85737 0.73672 0.93559 0.0
H788 H 0.88811 0.70268 0.95244 0.0
H789 H 0.7376 0.76815 0.84842 0.0
H790 H 0.04222 0.98771 0.43793 0.0
H791 H 0.01986 0.99494 0.41106 0.0
H792 H 0.97821 0.01721 0.45749 0.0
H793 H 1.00064 0.00961 0.48435 0.0
H794 H 0.9595 0.99339 0.42678 0.0
H795 H 0.00708 0.05204 0.43165 0.0
H796 H 0.04029 0.07001 0.43301 0.0
H797 H 0.05232 0.04066 0.37207 0.0
H798 H 0.01928 0.02221 0.37047 0.0
H799 H 0.90275 0.03222 0.3497 0.0
H800 H 0.92427 0.03504 0.37993 0.0
H801 H 0.96747 1.00067 0.34354 0.0
H802 H 0.94596 0.99741 0.31364 0.0
H803 H 0.98378 0.03555 0.37163 0.0
H804 H 0.93772 0.9737 0.36932 0.0
H805 H 0.90434 0.95612 0.36774 0.0
H806 H 0.8893 0.99293 0.42438 0.0
H807 H 0.92254 0.01102 0.42608 0.0
C808 C 0.02831 0.99422 0.4423 0.0
C809 C 0.02314 0.99826 0.46311 0.0
C810 C 0.01556 0.99841 0.427 0.0
C811 C 0.99745 0.00701 0.4322 0.0
C812 C 0.9921 0.01067 0.45305 0.0
C813 C 1.00486 0.00635 0.46837 0.0
C814 C 0.98415 0.01198 0.41581 0.0
C815 C 0.96473 1.00298 0.41499 0.0
C816 C 0.99091 0.02435 0.40022 0.0
C817 C 0.01073 0.03562 0.401 0.0
C818 C 0.01684 0.04931 0.41858 0.0
C819 C 0.03564 0.05959 0.4194 0.0
C820 C 0.04842 0.05645 0.40265 0.0
C821 C 0.04241 0.04307 0.38504 0.0
C822 C 0.02364 0.03271 0.38416 0.0
C823 C 0.91705 0.02577 0.3481 0.0
C824 C 0.92273 0.0146 0.32939 0.0
C825 C 0.92927 0.02728 0.36536 0.0
C826 C 0.94743 0.01796 0.36398 0.0
C827 C 0.95357 0.00801 0.34494 0.0
C828 C 0.94126 0.00613 0.3279 0.0
C829 C 0.95938 0.01672 0.38254 0.0
C830 C 0.97852 0.02633 0.3837 0.0
C831 C 0.95235 1.00504 0.39848 0.0
C832 C 0.93252 0.99389 0.3977 0.0
C833 C 0.92724 0.97817 0.38135 0.0
C834 C 0.90836 0.9681 0.38044 0.0
C835 C 0.89468 0.97346 0.39592 0.0
C836 C 0.8999 0.98884 0.41238 0.0
C837 C 0.91876 0.999 0.41332 0.0
H838 H 0.88006 0.96565 0.39518 0.0
H839 H 0.06297 0.06442 0.40331 0.0
H840 H 0.22479 0.28036 0.70232 0.0
H841 H 0.23622 0.26308 0.66916 0.0
H842 H 0.1939 0.2949 0.6379 0.0
H843 H 0.18279 0.31243 0.67124 0.0
H844 H 0.19243 0.25134 0.62614 0.0
H845 H 0.24129 0.30949 0.63398 0.0
H846 H 0.26698 0.33317 0.65259 0.0
H847 H 0.30229 0.28031 0.65553 0.0
H848 H 0.27663 0.25622 0.63728 0.0
H849 H 0.22262 0.20877 0.52751 0.0
H850 H 0.21585 0.2351 0.55663 0.0
H851 H 0.26114 0.212 0.59159 0.0
H852 H 0.2684 0.18603 0.56239 0.0
H853 H 0.2611 0.25381 0.6002 0.0
H854 H 0.21248 0.19539 0.59654 0.0
H855 H 0.18709 0.17001 0.57954 0.0
H856 H 0.15165 0.22138 0.57076 0.0
H857 H 0.17702 0.24712 0.58741 0.0
C858 C 0.21851 0.28417 0.68826 0.0
C859 C 0.20344 0.29816 0.68908 0.0
C860 C 0.22488 0.27421 0.66938 0.0
C861 C 0.21604 0.27784 0.651 0.0
C862 C 0.20102 0.29198 0.65185 0.0
C863 C 0.1948 0.3021 0.67077 0.0
C864 C 0.22169 0.26585 0.63113 0.0
C865 C 0.20736 0.25221 0.62025 0.0
C866 C 0.2413 0.26648 0.62378 0.0
C867 C 0.25695 0.28101 0.63439 0.0
C868 C 0.25447 0.30288 0.63871 0.0
C869 C 0.26903 0.31638 0.64919 0.0
C870 C 0.28624 0.30824 0.65527 0.0
C871 C 0.28894 0.28659 0.65082 0.0
C872 C 0.2744 0.273 0.6404 0.0
C873 C 0.23135 0.20945 0.54128 0.0
C874 C 0.24595 0.19508 0.5426 0.0
C875 C 0.2274 0.22449 0.55797 0.0
C876 C 0.23771 0.22529 0.5765 0.0
C877 C 0.25293 0.21169 0.57752 0.0
C878 C 0.25703 0.19677 0.56077 0.0
C879 C 0.23183 0.23927 0.59519 0.0
C880 C 0.24611 0.25317 0.60593 0.0
C881 C 0.21221 0.23866 0.60263 0.0
C882 C 0.19674 0.2232 0.59302 0.0
C883 C 0.19932 0.20129 0.59088 0.0
C884 C 0.18494 0.18683 0.5813 0.0
C885 C 0.16779 0.19408 0.57402 0.0
C886 C 0.16496 0.2158 0.57638 0.0
C887 C 0.17934 0.23033 0.58588 0.0
H888 H 0.15669 0.18287 0.56659 0.0
H889 H 0.29749 0.31872 0.66339 0.0
H890 H 0.51713 0.50191 0.59152 0.0
H891 H 0.496 0.49452 0.62061 0.0
H892 H 0.50205 0.56079 0.64498 0.0
H893 H 0.52418 0.56783 0.61644 0.0
H894 H 0.50384 0.53837 0.67508 0.0
H895 H 0.45964 0.537 0.61907 0.0
H896 H 0.44653 0.52622 0.58423 0.0
H897 H 0.43858 0.46154 0.59691 0.0
H898 H 0.45191 0.47189 0.63175 0.0
H899 H 0.42034 0.53373 0.74252 0.0
H900 H 0.44264 0.54162 0.7145 0.0
H901 H 0.44674 0.47467 0.69608 0.0
H902 H 0.42467 0.46657 0.72414 0.0
H903 H 0.43931 0.49808 0.66328 0.0
H904 H 0.4839 0.50108 0.72016 0.0
H905 H 0.49597 0.5135 0.75512 0.0
H906 H 0.50152 0.57766 0.74063 0.0
H907 H 0.4892 0.56565 0.70565 0.0
C908 C 0.51409 0.5148 0.60324 0.0
C909 C 0.52222 0.53543 0.60176 0.0
C910 C 0.50183 0.51065 0.61973 0.0
C911 C 0.49707 0.52716 0.63488 0.0
C912 C 0.50538 0.54778 0.63349 0.0
C913 C 0.51787 0.55186 0.61712 0.0
C914 C 0.48355 0.52288 0.65218 0.0
C915 C 0.48961 0.52982 0.67243 0.0
C916 C 0.46505 0.51147 0.64887 0.0
C917 C 0.45695 0.5052 0.62796 0.0
C918 C 0.45523 0.52045 0.61438 0.0
C919 C 0.44774 0.51442 0.59464 0.0
C920 C 0.44177 0.4932 0.58834 0.0
C921 C 0.44323 0.47797 0.6018 0.0
C922 C 0.45074 0.48391 0.62155 0.0
C923 C 0.42602 0.52065 0.73257 0.0
C924 C 0.42067 0.4995 0.73564 0.0
C925 C 0.43881 0.52521 0.71659 0.0
C926 C 0.44639 0.50873 0.70324 0.0
C927 C 0.44105 0.48763 0.7062 0.0
C928 C 0.42847 0.48304 0.72232 0.0
C929 C 0.45968 0.51348 0.68602 0.0
C930 C 0.45353 0.50665 0.66583 0.0
C931 C 0.47794 0.52526 0.68936 0.0
C932 C 0.48543 0.53249 0.71036 0.0
C933 C 0.48753 0.51786 0.72449 0.0
C934 C 0.49445 0.52482 0.74429 0.0
C935 C 0.49946 0.54637 0.75011 0.0
C936 C 0.49761 0.56098 0.73611 0.0
C937 C 0.49067 0.5541 0.71628 0.0
H938 H 0.50482 0.55173 0.76545 0.0
H939 H 0.43597 0.48857 0.57305 0.0
H940 H 0.78465 0.25839 0.7057 0.0
H941 H 0.77774 0.28261 0.68072 0.0
H942 H 0.83709 0.27957 0.65771 0.0
H943 H 0.84378 0.2547 0.68229 0.0
H944 H 0.82236 0.32193 0.66258 0.0
H945 H 0.80477 0.25033 0.63185 0.0
H946 H 0.78783 0.21477 0.63127 0.0
H947 H 0.73201 0.24238 0.63589 0.0
H948 H 0.74866 0.27817 0.63688 0.0
H949 H 0.78641 0.33422 0.55306 0.0
H950 H 0.79696 0.31366 0.57959 0.0
H951 H 0.77538 0.35993 0.62654 0.0
H952 H 0.76441 0.38052 0.59997 0.0
H953 H 0.77264 0.29586 0.6092 0.0
H954 H 0.80895 0.36131 0.66788 0.0
H955 H 0.82651 0.39662 0.66862 0.0
H956 H 0.84626 0.38053 0.60661 0.0
H957 H 0.82907 0.34505 0.6056 0.0
C958 C 0.79617 0.26288 0.69527 0.0
C959 C 0.81467 0.2545 0.69572 0.0
C960 C 0.79227 0.2768 0.68112 0.0
C961 C 0.80687 0.28281 0.66728 0.0
C962 C 0.82564 0.2752 0.66829 0.0
C963 C 0.82946 0.26104 0.68231 0.0
C964 C 0.80211 0.29592 0.65095 0.0
C965 C 0.81146 0.31627 0.65094 0.0
C966 C 0.78802 0.28847 0.63564 0.0
C967 C 0.77797 0.26694 0.63463 0.0
C968 C 0.78889 0.24883 0.63289 0.0
C969 C 0.77934 0.22863 0.63247 0.0
C970 C 0.75886 0.22632 0.63359 0.0
C971 C 0.74788 0.2442 0.63505 0.0
C972 C 0.75737 0.26445 0.63553 0.0
C973 C 0.78403 0.34017 0.56903 0.0
C974 C 0.77456 0.35904 0.5744 0.0
C975 C 0.79 0.32832 0.58417 0.0
C976 C 0.78697 0.33524 0.60504 0.0
C977 C 0.77795 0.35434 0.61052 0.0
C978 C 0.77168 0.36608 0.59533 0.0
C979 C 0.79269 0.32203 0.62093 0.0
C980 C 0.78348 0.30161 0.62088 0.0
C981 C 0.80694 0.32943 0.63611 0.0
C982 C 0.81753 0.35062 0.63661 0.0
C983 C 0.81709 0.3653 0.65443 0.0
C984 C 0.82698 0.38534 0.65489 0.0
C985 C 0.83743 0.39084 0.63765 0.0
C986 C 0.83808 0.37629 0.61993 0.0
C987 C 0.82824 0.35622 0.61939 0.0
H988 H 0.84506 0.40637 0.63804 0.0
H989 H 0.75149 0.21067 0.63327 0.0
H990 H 0.51278 0.01521 0.58111 0.0
H991 H 0.53746 0.0179 0.60809 0.0
H992 H 0.51585 0.9567 0.62421 0.0
H993 H 0.49039 0.95461 0.59761 0.0
H994 H 0.5211 0.98267 0.65782 0.0
H995 H 0.56179 0.96495 0.60033 0.0
H996 H 0.57588 0.96651 0.56573 0.0
H997 H 0.59879 0.03057 0.58357 0.0
H998 H 0.58456 0.02953 0.61821 0.0
H999 H 0.60452 0.989 0.72701 0.0
H1000 H 0.58282 0.97675 0.69771 0.0
H1001 H 0.58389 0.04059 0.68189 0.0
H1002 H 0.60503 0.05304 0.71127 0.0
H1003 H 0.5907 0.00742 0.64776 0.0
H1004 H 0.54575 0.02455 0.70461 0.0
H1005 H 0.53222 0.02109 0.73918 0.0
H1006 H 0.5187 0.95444 0.72182 0.0
H1007 H 0.53243 0.95747 0.68722 0.0
C1008 C 0.51345 1.00227 0.59031 0.0
C1009 C 0.49968 0.98476 0.58735 0.0
C1010 C 0.52767 1.0037 0.60565 0.0
C1011 C 0.52879 0.9874 0.6182 0.0
C1012 C 0.51538 0.96949 0.61479 0.0
C1013 C 0.50098 0.96817 0.59946 0.0
C1014 C 0.54324 0.98988 0.63547 0.0
C1015 C 0.53641 0.98762 0.65548 0.0
C1016 C 0.56328 0.99649 0.63266 0.0
C1017 C 0.57198 0.9972 0.61186 0.0
C1018 C 0.56972 0.97943 0.59685 0.0
C1019 C 0.57775 0.98021 0.57722 0.0
C1020 C 0.5882 0.99864 0.57244 0.0
C1021 C 0.59068 0.01631 0.5873 0.0
C1022 C 0.58266 0.01562 0.60695 0.0
C1023 C 0.60016 1.00043 0.71728 0.0
C1024 C 0.60655 0.02203 0.72157 0.0
C1025 C 0.58773 0.9934 0.70056 0.0
C1026 C 0.58175 0.00776 0.68758 0.0
C1027 C 0.58835 0.02922 0.69164 0.0
C1028 C 0.60041 0.03631 0.70853 0.0
C1029 C 0.56838 1.00067 0.66991 0.0
C1030 C 0.57545 1.00211 0.64991 0.0
C1031 C 0.5487 0.99296 0.67269 0.0
C1032 C 0.54034 0.99118 0.69343 0.0
C1033 C 0.54007 0.00912 0.70823 0.0
C1034 C 0.53233 0.00725 0.72782 0.0
C1035 C 0.52467 0.98755 0.73272 0.0
C1036 C 0.52468 0.96969 0.71802 0.0
C1037 C 0.53243 0.97147 0.69842 0.0
H1038 H 0.51868 0.98613 0.74789 0.0
H1039 H 0.59441 0.99922 0.55724 0.0
H1040 H 0.86842 0.21212 0.72969 0.0
H1041 H 0.89105 0.20907 0.75791 0.0
H1042 H 0.84347 0.21804 0.80139 0.0
H1043 H 0.82096 0.22102 0.77305 0.0
H1044 H 0.87565 0.24547 0.81121 0.0
H1045 H 0.86231 0.17109 0.79385 0.0
H1046 H 0.85911 0.13742 0.7708 0.0
H1047 H 0.92047 0.14394 0.75565 0.0
H1048 H 0.92398 0.17786 0.77838 0.0
H1049 H 0.95083 0.18923 0.87687 0.0
H1050 H 0.92284 0.18778 0.85363 0.0
H1051 H 0.93762 0.25319 0.84482 0.0
H1052 H 0.96292 0.2554 0.87071 0.0
H1053 H 0.91907 0.18751 0.81823 0.0
H1054 H 0.9157 0.27357 0.82133 0.0
H1055 H 0.9131 0.30809 0.8426 0.0
H1056 H 0.87711 0.27775 0.88604 0.0
H1057 H 0.88057 0.24279 0.8656 0.0
C1058 C 0.86282 0.21291 0.74527 0.0
C1059 C 0.84301 0.21655 0.74931 0.0
C1060 C 0.87569 0.21116 0.76136 0.0
C1061 C 0.86897 0.21325 0.7818 0.0
C1062 C 0.84899 0.2163 0.78575 0.0
C1063 C 0.8361 0.21782 0.76961 0.0
C1064 C 0.8831 0.21413 0.79909 0.0
C1065 C 0.88502 0.23268 0.81294 0.0
C1066 C 0.89538 0.19756 0.80131 0.0
C1067 C 0.89338 0.17712 0.78769 0.0
C1068 C 0.8751 0.16544 0.78548 0.0
C1069 C 0.87323 0.14629 0.77249 0.0
C1070 C 0.88957 0.13857 0.76174 0.0
C1071 C 0.90782 0.14996 0.76398 0.0
C1072 C 0.90976 0.16914 0.77693 0.0
C1073 C 0.94733 0.20351 0.87066 0.0
C1074 C 0.95846 0.22263 0.87623 0.0
C1075 C 0.93149 0.20268 0.85703 0.0
C1076 C 0.92721 0.22062 0.84752 0.0
C1077 C 0.9391 0.23947 0.85265 0.0
C1078 C 0.95406 0.24062 0.86723 0.0
C1079 C 0.91161 0.21892 0.83113 0.0
C1080 C 0.90953 0.20023 0.81706 0.0
C1081 C 0.89895 0.23535 0.82879 0.0
C1082 C 0.89911 0.25556 0.84249 0.0
C1083 C 0.90775 0.27422 0.83577 0.0
C1084 C 0.90619 0.2938 0.84769 0.0
C1085 C 0.89534 0.295 0.86595 0.0
C1086 C 0.88607 0.27662 0.87228 0.0
C1087 C 0.88809 0.25689 0.86073 0.0
H1088 H 0.89386 0.31021 0.87502 0.0
H1089 H 0.88809 0.12374 0.75169 0.0
H1090 H 0.46108 0.93151 0.56187 0.0
H1091 H 0.47218 0.89753 0.5458 0.0
H1092 H 0.52463 0.92997 0.52432 0.0
H1093 H 0.5133 0.96409 0.54061 0.0
H1094 H 0.50577 0.90417 0.49335 0.0
H1095 H 0.52807 0.89647 0.56005 0.0
H1096 H 0.52608 0.89713 0.59766 0.0
H1097 H 0.47928 0.84816 0.59107 0.0
H1098 H 0.48074 0.84746 0.55342 0.0
H1099 H 0.53085 0.80305 0.44427 0.0
H1100 H 0.53413 0.83635 0.4675 0.0
H1101 H 0.48067 0.81821 0.49856 0.0
H1102 H 0.47742 0.78499 0.47576 0.0
H1103 H 0.50706 0.83783 0.52581 0.0
H1104 H 0.48079 0.85058 0.46049 0.0
H1105 H 0.48144 0.85025 0.42285 0.0
H1106 H 0.53503 0.89004 0.42718 0.0
H1107 H 0.53482 0.89036 0.46486 0.0
C1108 C 0.47526 0.93118 0.55426 0.0
C1109 C 0.4865 0.95019 0.55264 0.0
C1110 C 0.4816 0.91183 0.54504 0.0
C1111 C 0.49933 0.91109 0.53389 0.0
C1112 C 0.51095 0.93009 0.53288 0.0
C1113 C 0.50463 0.9495 0.54231 0.0
C1114 C 0.50462 0.89074 0.52197 0.0
C1115 C 0.50657 0.88978 0.50053 0.0
C1116 C 0.50527 0.87181 0.53121 0.0
C1117 C 0.50445 0.872 0.55387 0.0
C1118 C 0.51726 0.88594 0.56661 0.0
C1119 C 0.51623 0.88631 0.58795 0.0
C1120 C 0.50255 0.87271 0.59675 0.0
C1121 C 0.48988 0.85868 0.58423 0.0
C1122 C 0.49081 0.85827 0.56288 0.0
C1123 C 0.51999 0.80596 0.45628 0.0
C1124 C 0.50379 0.79131 0.45797 0.0
C1125 C 0.52182 0.8251 0.46949 0.0
C1126 C 0.50749 0.82998 0.48465 0.0
C1127 C 0.49191 0.81489 0.48702 0.0
C1128 C 0.49004 0.79587 0.47384 0.0
C1129 C 0.50778 0.85124 0.4972 0.0
C1130 C 0.50676 0.85234 0.51871 0.0
C1131 C 0.50788 0.8703 0.48804 0.0
C1132 C 0.50792 0.87028 0.46544 0.0
C1133 C 0.49278 0.85914 0.45339 0.0
C1134 C 0.49306 0.85897 0.43206 0.0
C1135 C 0.5083 0.87006 0.42262 0.0
C1136 C 0.52326 0.88141 0.43451 0.0
C1137 C 0.52307 0.8816 0.45585 0.0
H1138 H 0.50849 0.86991 0.40611 0.0
H1139 H 0.50178 0.87302 0.61328 0.0
H1140 H 0.13668 0.31489 0.73262 0.0
H1141 H 0.11019 0.30755 0.7572 0.0
H1142 H 0.15177 0.28166 0.79471 0.0
H1143 H 0.17809 0.28909 0.77006 0.0
H1144 H 0.11758 0.25647 0.78934 0.0
H1145 H 0.13665 0.33053 0.80826 0.0
H1146 H 0.14289 0.36783 0.80198 0.0
H1147 H 0.08265 0.36996 0.78468 0.0
H1148 H 0.07612 0.33254 0.79055 0.0
H1149 H 0.06758 0.25144 0.88204 0.0
H1150 H 0.09103 0.26201 0.85627 0.0
H1151 H 0.045 0.2889 0.82553 0.0
H1152 H 0.02133 0.27865 0.85174 0.0
H1153 H 0.07926 0.31353 0.82533 0.0
H1154 H 0.05961 0.24022 0.80742 0.0
H1155 H 0.05308 0.20279 0.81314 0.0
H1156 H 0.11385 0.19894 0.8275 0.0
H1157 H 0.1207 0.23646 0.82216 0.0
C1158 C 0.13997 0.30763 0.74615 0.0
C1159 C 0.15921 0.30256 0.74968 0.0
C1160 C 0.12496 0.30351 0.76018 0.0
C1161 C 0.12903 0.29422 0.77791 0.0
C1162 C 0.14829 0.28886 0.78118 0.0
C1163 C 0.16328 0.29309 0.76721 0.0
C1164 C 0.11327 0.28991 0.79303 0.0
C1165 C 0.10935 0.26898 0.79736 0.0
C1166 C 0.10208 0.30613 0.80303 0.0
C1167 C 0.10595 0.32866 0.79963 0.0
C1168 C 0.12477 0.33889 0.80295 0.0
C1169 C 0.12836 0.36007 0.79949 0.0
C1170 C 0.11319 0.37124 0.79288 0.0
C1171 C 0.09439 0.36127 0.78977 0.0
C1172 C 0.09074 0.34009 0.79316 0.0
C1173 C 0.06242 0.25978 0.86993 0.0
C1174 C 0.04253 0.26403 0.86883 0.0
C1175 C 0.07586 0.26574 0.85513 0.0
C1176 C 0.06973 0.27582 0.83867 0.0
C1177 C 0.05006 0.28101 0.83802 0.0
C1178 C 0.03655 0.27515 0.85299 0.0
C1179 C 0.08383 0.28012 0.8219 0.0
C1180 C 0.0874 0.301 0.81722 0.0
C1181 C 0.09466 0.26383 0.81145 0.0
C1182 C 0.09063 0.24121 0.81455 0.0
C1183 C 0.07156 0.23144 0.81194 0.0
C1184 C 0.0678 0.2102 0.81509 0.0
C1185 C 0.08303 0.19851 0.82072 0.0
C1186 C 0.10206 0.20802 0.82316 0.0
C1187 C 0.1059 0.22927 0.82005 0.0
H1188 H 0.08009 0.18206 0.82315 0.0
H1189 H 0.11599 0.38763 0.79022 0.0
H1190 H 0.56398 0.59345 0.56088 0.0
H1191 H 0.55873 0.61968 0.53733 0.0
H1192 H 0.52921 0.57063 0.49518 0.0
H1193 H 0.53506 0.54442 0.51867 0.0
H1194 H 0.54811 0.59886 0.47398 0.0
H1195 H 0.50218 0.6029 0.53055 0.0
H1196 H 0.49172 0.60658 0.56691 0.0
H1197 H 0.52485 0.66668 0.57774 0.0
H1198 H 0.53535 0.66344 0.54139 0.0
H1199 H 0.47708 0.68794 0.45827 0.0
H1200 H 0.48747 0.65954 0.47678 0.0
H1201 H 0.54645 0.6689 0.45361 0.0
H1202 H 0.53613 0.69702 0.43476 0.0
H1203 H 0.51212 0.65944 0.50666 0.0
H1204 H 0.56927 0.62232 0.44933 0.0
H1205 H 0.57525 0.61679 0.41194 0.0
H1206 H 0.51359 0.61897 0.40083 0.0
H1207 H 0.5072 0.62422 0.43813 0.0
C1208 C 0.55717 0.58823 0.54615 0.0
C1209 C 0.55023 0.56696 0.54134 0.0
C1210 C 0.55385 0.60322 0.53285 0.0
C1211 C 0.54312 0.5973 0.51464 0.0
C1212 C 0.53747 0.57568 0.50911 0.0
C1213 C 0.54096 0.56065 0.52239 0.0
C1214 C 0.53641 0.61378 0.50235 0.0
C1215 C 0.54034 0.61216 0.48115 0.0
C1216 C 0.5258 0.63093 0.51147 0.0
C1217 C 0.51968 0.63283 0.53334 0.0
C1218 C 0.5073 0.61684 0.54073 0.0
C1219 C 0.50133 0.61888 0.5613 0.0
C1220 C 0.50772 0.63678 0.57465 0.0
C1221 C 0.51996 0.65279 0.5674 0.0
C1222 C 0.52586 0.65091 0.5468 0.0
C1223 C 0.49226 0.68395 0.45702 0.0
C1224 C 0.50572 0.69487 0.44494 0.0
C1225 C 0.4982 0.66767 0.46768 0.0
C1226 C 0.51774 0.66183 0.46652 0.0
C1227 C 0.53122 0.67275 0.45453 0.0
C1228 C 0.52528 0.68897 0.4438 0.0
C1229 C 0.52406 0.64476 0.4783 0.0
C1230 C 0.52003 0.64625 0.49945 0.0
C1231 C 0.53415 0.62727 0.46899 0.0
C1232 C 0.5378 0.6239 0.44653 0.0
C1233 C 0.55698 0.62155 0.4389 0.0
C1234 C 0.56045 0.61847 0.41773 0.0
C1235 C 0.54482 0.6176 0.40402 0.0
C1236 C 0.52569 0.61973 0.41146 0.0
C1237 C 0.52215 0.62279 0.43262 0.0
H1238 H 0.54754 0.61523 0.38763 0.0
H1239 H 0.50313 0.63828 0.59059 0.0
H1240 H 0.8639 0.81857 0.83148 0.0
H1241 H 0.89312 0.81085 0.81028 0.0
H1242 H 0.85628 0.79617 0.75671 0.0
H1243 H 0.82724 0.80244 0.7782 0.0
H1244 H 0.88483 0.77347 0.75057 0.0
H1245 H 0.88053 0.84749 0.77254 0.0
H1246 H 0.87814 0.87959 0.79739 0.0
H1247 H 0.93351 0.86909 0.82348 0.0
H1248 H 0.93609 0.83671 0.79896 0.0
H1249 H 0.95166 0.80115 0.67363 0.0
H1250 H 0.92598 0.80821 0.69966 0.0
H1251 H 0.96542 0.79554 0.7468 0.0
H1252 H 0.99092 0.78787 0.72066 0.0
H1253 H 0.93735 0.83184 0.75701 0.0
H1254 H 0.94001 0.75672 0.7308 0.0
H1255 H 0.9415 0.72847 0.70161 0.0
H1256 H 0.88669 0.74551 0.6791 0.0
H1257 H 0.88508 0.77417 0.70795 0.0
C1258 C 0.8621 0.8129 0.81533 0.0
C1259 C 0.84342 0.81141 0.80637 0.0
C1260 C 0.8788 0.80884 0.8031 0.0
C1261 C 0.87711 0.8037 0.78163 0.0
C1262 C 0.85819 0.80036 0.7731 0.0
C1263 C 0.84156 0.804 0.78537 0.0
C1264 C 0.8948 0.80328 0.76782 0.0
C1265 C 0.8962 0.78632 0.75205 0.0
C1266 C 0.90982 0.82003 0.76942 0.0
C1267 C 0.9084 0.83955 0.78408 0.0
C1268 C 0.89214 0.85195 0.78366 0.0
C1269 C 0.89075 0.8702 0.79768 0.0
C1270 C 0.90564 0.87634 0.81204 0.0
C1271 C 0.92197 0.86428 0.81237 0.0
C1272 C 0.92341 0.84598 0.79842 0.0
C1273 C 0.95507 0.80075 0.68965 0.0
C1274 C 0.97334 0.79438 0.69524 0.0
C1275 C 0.94037 0.80462 0.70448 0.0
C1276 C 0.94378 0.80233 0.72516 0.0
C1277 C 0.96254 0.79755 0.73098 0.0
C1278 C 0.97712 0.79331 0.71608 0.0
C1279 C 0.92715 0.80215 0.74006 0.0
C1280 C 0.926 0.81896 0.75586 0.0
C1281 C 0.91208 0.78563 0.73814 0.0
C1282 C 0.91249 0.76767 0.72146 0.0
C1283 C 0.92831 0.75449 0.71959 0.0
C1284 C 0.92919 0.73842 0.7031 0.0
C1285 C 0.91421 0.73522 0.6885 0.0
C1286 C 0.89828 0.74801 0.69042 0.0
C1287 C 0.89737 0.76416 0.70685 0.0
H1288 H 0.91495 0.72281 0.67571 0.0
H1289 H 0.90455 0.89048 0.82288 0.0
H1290 H 0.07446 0.95049 0.5068 0.0
H1291 H 0.07205 0.92346 0.53072 0.0
H1292 H 0.02644 0.95677 0.56434 0.0
H1293 H 0.02925 0.98383 0.54067 0.0
H1294 H 0.04782 0.93938 0.5903 0.0
H1295 H 0.01536 0.91633 0.52641 0.0
H1296 H 0.01297 0.90866 0.48873 0.0
H1297 H 0.05602 0.86247 0.48863 0.0
H1298 H 0.0589 0.87013 0.52632 0.0
H1299 H 0.99701 0.82593 0.6005 0.0
H1300 H 1.00379 0.85648 0.58147 0.0
H1301 H 0.05687 0.87365 0.61636 0.0
H1302 H 0.04986 0.8436 0.63576 0.0
H1303 H 0.03149 0.86631 0.55643 0.0
H1304 H 0.06839 0.92655 0.62047 0.0
H1305 H 0.06656 0.93562 0.65808 0.0
H1306 H 0.007 0.90902 0.65806 0.0
H1307 H 0.00839 0.90005 0.62044 0.0
C1308 C 0.06448 0.95233 0.51976 0.0
C1309 C 0.05203 0.96913 0.52198 0.0
C1310 C 0.0629 0.9368 0.53328 0.0
C1311 C 0.04874 0.93779 0.54914 0.0
C1312 C 0.03741 0.95553 0.55224 0.0
C1313 C 0.03902 0.97101 0.53877 0.0
C1314 C 0.04444 0.91961 0.56134 0.0
C1315 C 0.04443 0.92337 0.58289 0.0
C1316 C 0.03936 0.89878 0.55177 0.0
C1317 C 0.0375 0.89396 0.52915 0.0
C1318 C 0.02441 0.90463 0.51834 0.0
C1319 C 0.02296 0.90029 0.49698 0.0
C1320 C 0.03437 0.88512 0.48629 0.0
C1321 C 0.04721 0.87424 0.49694 0.0
C1322 C 0.04876 0.87857 0.51829 0.0
C1323 C 0.01001 0.83635 0.60426 0.0
C1324 C 0.02281 0.83235 0.61977 0.0
C1325 C 0.01395 0.85378 0.59329 0.0
C1326 C 0.03078 0.86763 0.59752 0.0
C1327 C 0.04358 0.86358 0.61299 0.0
C1328 C 0.03957 0.84628 0.62407 0.0
C1329 C 0.03516 0.88596 0.58548 0.0
C1330 C 0.03511 0.88225 0.56391 0.0
C1331 C 0.03963 0.90695 0.59506 0.0
C1332 C 0.03859 0.91243 0.61767 0.0
C1333 C 0.05489 0.9227 0.62849 0.0
C1334 C 0.05393 0.92781 0.64981 0.0
C1335 C 0.0367 0.92283 0.66046 0.0
C1336 C 0.02037 0.9128 0.64981 0.0
C1337 C 0.02124 0.90767 0.62849 0.0
H1338 H 0.03599 0.92679 0.67696 0.0
H1339 H 0.03322 0.88177 0.46975 0.0
H1340 H 0.18821 0.7372 0.78071 0.0
H1341 H 0.16212 0.74514 0.75801 0.0
H1342 H 0.13142 0.68491 0.76533 0.0
H1343 H 0.15779 0.67697 0.7879 0.0
H1344 H 0.12901 0.69377 0.72613 0.0
H1345 H 0.11855 0.7303 0.79336 0.0
H1346 H 0.12803 0.75399 0.82478 0.0
H1347 H 0.13822 0.80625 0.78945 0.0
H1348 H 0.12914 0.78277 0.75774 0.0
H1349 H 0.03457 0.71731 0.6957 0.0
H1350 H 0.06212 0.70877 0.71577 0.0
H1351 H 0.09265 0.7686 0.70691 0.0
H1352 H 0.06501 0.77747 0.68691 0.0
H1353 H 0.09543 0.75999 0.74639 0.0
H1354 H 0.10519 0.72325 0.6791 0.0
H1355 H 0.09552 0.69933 0.64787 0.0
H1356 H 0.08611 0.64727 0.68357 0.0
H1357 H 0.09543 0.67096 0.71508 0.0
C1358 C 0.17594 0.72566 0.77727 0.0
C1359 C 0.17481 0.70659 0.78607 0.0
C1360 C 0.16104 0.73017 0.76438 0.0
C1361 C 0.14461 0.71578 0.76025 0.0
C1362 C 0.14391 0.69627 0.76833 0.0
C1363 C 0.15891 0.69173 0.78117 0.0
C1364 C 0.12779 0.72155 0.74832 0.0
C1365 C 0.12152 0.70812 0.73069 0.0
C1366 C 0.11821 0.74048 0.75405 0.0
C1367 C 0.12334 0.75472 0.77314 0.0
C1368 C 0.12293 0.74681 0.79227 0.0
C1369 C 0.12823 0.7602 0.81013 0.0
C1370 C 0.13376 0.7816 0.8091 0.0
C1371 C 0.13396 0.78966 0.79021 0.0
C1372 C 0.12873 0.77632 0.77229 0.0
C1373 C 0.04707 0.72877 0.69805 0.0
C1374 C 0.04753 0.7481 0.68957 0.0
C1375 C 0.06289 0.72377 0.70947 0.0
C1376 C 0.07959 0.7379 0.71261 0.0
C1377 C 0.07995 0.75741 0.70462 0.0
C1378 C 0.06412 0.76244 0.69314 0.0
C1379 C 0.09667 0.73224 0.72419 0.0
C1380 C 0.10296 0.74567 0.74179 0.0
C1381 C 0.10621 0.71328 0.71846 0.0
C1382 C 0.10085 0.69893 0.69949 0.0
C1383 C 0.10093 0.70673 0.68032 0.0
C1384 C 0.09552 0.69321 0.66256 0.0
C1385 C 0.09017 0.67181 0.66375 0.0
C1386 C 0.09025 0.66386 0.68268 0.0
C1387 C 0.09561 0.67732 0.7005 0.0
H1388 H 0.08601 0.66137 0.64999 0.0
H1389 H 0.13787 0.79194 0.82295 0.0
H1390 H 0.96653 0.60105 0.49257 0.0
H1391 H 0.97956 0.63452 0.51088 0.0
H1392 H 0.0356 0.60792 0.51628 0.0
H1393 H 0.02166 0.57364 0.49941 0.0
H1394 H 0.02765 0.62457 0.55069 0.0
H1395 H 0.0274 0.65323 0.48836 0.0
H1396 H 0.01571 0.66096 0.45485 0.0
H1397 H 0.96828 0.69386 0.48463 0.0
H1398 H 0.97948 0.68606 0.5183 0.0
H1399 H 0.04911 0.72854 0.61205 0.0
H1400 H 0.05121 0.69927 0.58458 0.0
H1401 H 0.98862 0.69764 0.57581 0.0
H1402 H 0.98696 0.72879 0.60162 0.0
H1403 H 0.00957 0.69651 0.54003 0.0
H1404 H 0.01071 0.63196 0.59089 0.0
H1405 H 0.02614 0.62086 0.62133 0.0
H1406 H 0.07946 0.65699 0.60885 0.0
H1407 H 0.06449 0.66752 0.57795 0.0
C1408 C 0.98173 0.60252 0.49739 0.0
C1409 C 0.99298 0.58473 0.495 0.0
C1410 C 0.98933 0.62181 0.50765 0.0
C1411 C 0.00871 0.62406 0.51506 0.0
C1412 C 0.02056 0.60671 0.51093 0.0
C1413 C 0.01272 0.58717 0.50107 0.0
C1414 C 0.01542 0.64331 0.52939 0.0
C1415 C 0.02408 0.64037 0.54805 0.0
C1416 C 0.01111 0.66413 0.52612 0.0
C1417 C 1.00428 0.66898 0.50589 0.0
C1418 C 0.01441 0.662 0.48777 0.0
C1419 C 0.00787 0.66642 0.46873 0.0
C1420 C 0.99125 0.67788 0.46761 0.0
C1421 C 0.98116 0.685 0.48553 0.0
C1422 C 0.98762 0.68062 0.5046 0.0
C1423 C 0.03574 0.72164 0.60449 0.0
C1424 C 0.01765 0.73023 0.60976 0.0
C1425 C 0.03691 0.70447 0.58905 0.0
C1426 C 0.01994 0.69509 0.57883 0.0
C1427 C 1.00191 0.70406 0.58382 0.0
C1428 C 1.00086 0.72168 0.5988 0.0
C1429 C 0.02086 0.67747 0.56157 0.0
C1430 C 0.01354 0.68075 0.54234 0.0
C1431 C 0.02718 0.65712 0.56399 0.0
C1432 C 0.03594 0.65198 0.58314 0.0
C1433 C 0.02554 0.63799 0.59501 0.0
C1434 C 0.03431 0.63147 0.61212 0.0
C1435 C 0.05363 0.63862 0.61732 0.0
C1436 C 0.06433 0.6519 0.60514 0.0
C1437 C 0.05566 0.65822 0.58787 0.0
H1438 H 0.06039 0.6336 0.63059 0.0
H1439 H 0.98621 0.68128 0.45286 0.0
H1440 H 0.74916 0.81693 0.21763 0.0
H1441 H 0.77644 0.84419 0.21831 0.0
H1442 H 0.7349 0.89281 0.22333 0.0
H1443 H 0.7078 0.86541 0.22118 0.0
H1444 H 0.76488 0.90668 0.20425 0.0
H1445 H 0.7554 0.87414 0.26614 0.0
H1446 H 0.75288 0.84465 0.28739 0.0
H1447 H 0.81225 0.83053 0.27166 0.0
H1448 H 0.81498 0.85972 0.25 0.0
H1449 H 0.83569 0.96647 0.28985 0.0
H1450 H 0.81095 0.93822 0.27788 0.0
H1451 H 0.82782 0.94447 0.21505 0.0
H1452 H 0.85144 0.97399 0.2272 0.0
H1453 H 0.81102 0.90218 0.26102 0.0
H1454 H 0.79207 0.92656 0.18148 0.0
H1455 H 0.7902 0.95909 0.16479 0.0
H1456 H 0.78105 0.99511 0.22348 0.0
H1457 H 0.78265 0.96276 0.24047 0.0
C1458 C 0.74594 0.83337 0.21792 0.0
C1459 C 0.72647 0.83917 0.21936 0.0
C1460 C 0.76151 0.849 0.21865 0.0
C1461 C 0.75779 0.87067 0.22146 0.0
C1462 C 0.73825 0.87629 0.22127 0.0
C1463 C 0.72276 0.86067 0.22012 0.0
C1464 C 0.77387 0.88747 0.22684 0.0
C1465 C 0.77516 0.90559 0.2165 0.0
C1466 C 0.78693 0.88648 0.24327 0.0
C1467 C 0.78532 0.86893 0.25627 0.0
C1468 C 0.76786 0.86464 0.2671 0.0
C1469 C 0.7664 0.84799 0.27922 0.0
C1470 C 0.78237 0.83569 0.28083 0.0
C1471 C 0.79987 0.84004 0.27035 0.0
C1472 C 0.80138 0.85662 0.25815 0.0
C1473 C 0.83399 0.96178 0.27349 0.0
C1474 C 0.84562 0.97202 0.25941 0.0
C1475 C 0.81989 0.9456 0.26661 0.0
C1476 C 0.81724 0.93912 0.24547 0.0
C1477 C 0.82905 0.9494 0.2314 0.0
C1478 C 0.84272 0.96611 0.23831 0.0
C1479 C 0.80228 0.92152 0.23839 0.0
C1480 C 0.80115 0.9032 0.24845 0.0
C1481 C 0.78884 0.92278 0.22232 0.0
C1482 C 0.78772 0.94229 0.21224 0.0
C1483 C 0.78961 0.94142 0.1908 0.0
C1484 C 0.78861 0.95982 0.1813 0.0
C1485 C 0.78558 0.97917 0.19308 0.0
C1486 C 0.78348 0.98013 0.21438 0.0
C1487 C 0.78445 0.96178 0.22396 0.0
H1488 H 0.78482 0.99339 0.18569 0.0
H1489 H 0.78122 0.82281 0.29023 0.0
H1490 H 0.7467 0.20072 0.3006 0.0
H1491 H 0.77401 0.17766 0.30132 0.0
H1492 H 0.74187 0.14256 0.34475 0.0
H1493 H 0.71487 0.16628 0.34444 0.0
H1494 H 0.78008 0.1443 0.35296 0.0
H1495 H 0.74086 0.12539 0.29274 0.0
H1496 H 0.72389 0.13158 0.26127 0.0
H1497 H 0.779 0.15099 0.23465 0.0
H1498 H 0.79629 0.14514 0.26607 0.0
H1499 H 0.82792 0.04672 0.3247 0.0
H1500 H 0.80451 0.07427 0.33232 0.0
H1501 H 0.83817 0.11438 0.29436 0.0
H1502 H 0.86159 0.08709 0.28678 0.0
H1503 H 0.799 0.10966 0.2843 0.0
H1504 H 0.83804 0.12666 0.34544 0.0
H1505 H 0.85389 0.11906 0.37706 0.0
H1506 H 0.79759 0.10093 0.40193 0.0
H1507 H 0.78143 0.10814 0.37032 0.0
C1508 C 0.74577 0.18835 0.3106 0.0
C1509 C 0.7288 0.18507 0.32238 0.0
C1510 C 0.76125 0.17509 0.31093 0.0
C1511 C 0.75982 0.15796 0.32268 0.0
C1512 C 0.74332 0.15555 0.33547 0.0
C1513 C 0.72793 0.16906 0.33534 0.0
C1514 C 0.77481 0.1418 0.32041 0.0
C1515 C 0.78406 0.13657 0.33796 0.0
C1516 C 0.78016 0.13171 0.30085 0.0
C1517 C 0.76984 0.13501 0.28183 0.0
C1518 C 0.74935 0.13109 0.28022 0.0
C1519 C 0.73967 0.13452 0.26238 0.0
C1520 C 0.75035 0.14174 0.246 0.0
C1521 C 0.77074 0.14544 0.24737 0.0
C1522 C 0.78049 0.14203 0.26517 0.0
C1523 C 0.8305 0.06155 0.31825 0.0
C1524 C 0.84662 0.06467 0.3051 0.0
C1525 C 0.81712 0.0773 0.32264 0.0
C1526 C 0.81958 0.09642 0.31391 0.0
C1527 C 0.83595 0.09976 0.30124 0.0
C1528 C 0.84938 0.08413 0.29699 0.0
C1529 C 0.80449 0.1124 0.31679 0.0
C1530 C 0.79509 0.11747 0.2993 0.0
C1531 C 0.79886 0.12204 0.3364 0.0
C1532 C 0.80855 0.11773 0.35542 0.0
C1533 C 0.82906 0.12087 0.35757 0.0
C1534 C 0.83809 0.11667 0.37551 0.0
C1535 C 0.82676 0.10946 0.39147 0.0
C1536 C 0.80636 0.10649 0.38955 0.0
C1537 C 0.79725 0.11064 0.37163 0.0
H1538 H 0.83378 0.10622 0.40535 0.0
H1539 H 0.74283 0.14441 0.23221 0.0
H1540 H 0.42385 0.04656 0.987 0.0
H1541 H 0.39499 0.0253 0.99742 0.0
H1542 H 0.4325 0.97749 0.01245 0.0
H1543 H 0.46138 0.99877 1.00146 0.0
H1544 H 0.40092 0.95914 0.99355 0.0
H1545 H 0.41201 0.01259 0.05019 0.0
H1546 H 0.4182 0.04892 0.06776 0.0
H1547 H 0.36265 0.06585 0.047 0.0
H1548 H 0.35626 0.02971 0.02899 0.0
H1549 H 0.31847 0.90757 0.04038 0.0
H1550 H 0.3501 0.92866 0.04047 0.0
H1551 H 0.32338 0.97469 0.00862 0.0
H1552 H 0.29206 0.95345 0.00798 0.0
H1553 H 0.35156 0.99226 0.04123 0.0
H1554 H 0.34469 0.94124 0.97947 0.0
H1555 H 0.33857 0.90521 0.96129 0.0
H1556 H 0.38649 0.88381 0.99332 0.0
H1557 H 0.39285 0.91984 0.01175 0.0
C1558 C 0.42582 0.03149 0.99253 0.0
C1559 C 0.44469 0.02425 0.99358 0.0
C1560 C 0.4094 0.01941 0.9986 0.0
C1561 C 0.41156 0.99997 0.0062 0.0
C1562 C 0.43045 0.99248 0.00679 0.0
C1563 C 0.44689 1.00455 1.00052 0.0
C1564 C 0.39401 0.98745 0.01313 0.0
C1565 C 0.3904 0.9663 1.00436 0.0
C1566 C 0.38007 0.99674 0.02708 0.0
C1567 C 0.38371 0.01845 0.03812 0.0
C1568 C 0.40116 0.02409 0.04926 0.0
C1569 C 0.4047 0.04465 0.0593 0.0
C1570 C 0.39084 0.05969 0.05847 0.0
C1571 C 0.37338 0.05418 0.04763 0.0
C1572 C 0.36978 0.03365 0.03751 0.0
C1573 C 0.31927 0.9225 0.03395 0.0
C1574 C 0.30287 0.92895 0.02422 0.0
C1575 C 0.33732 0.93445 0.0339 0.0
C1576 C 0.33905 0.95319 0.02449 0.0
C1577 C 0.32233 0.96034 0.01603 0.0
C1578 C 0.30447 0.9482 0.01567 0.0
C1579 C 0.35852 0.96426 0.02141 0.0
C1580 C 0.3624 0.98509 0.03083 0.0
C1581 C 0.37278 0.95469 0.00819 0.0
C1582 C 0.36909 0.93311 0.99713 0.0
C1583 C 0.35381 0.9288 0.98274 0.0
C1584 C 0.35032 0.90839 0.97238 0.0
C1585 C 0.36205 0.89216 0.97623 0.0
C1586 C 0.37738 0.89637 0.99039 0.0
C1587 C 0.38096 0.9168 1.00077 0.0
H1588 H 0.35932 0.87636 0.9682 0.0
H1589 H 0.39361 0.0756 0.06625 0.0
H1590 H 0.26312 0.33369 0.31092 0.0
H1591 H 0.23889 0.35965 0.30641 0.0
H1592 H 0.28097 0.41059 0.32912 0.0
H1593 H 0.3051 0.38445 0.33362 0.0
H1594 H 0.24338 0.41658 0.34489 0.0
H1595 H 0.27384 0.39985 0.27905 0.0
H1596 H 0.2848 0.37601 0.24924 0.0
H1597 H 0.22509 0.35266 0.23671 0.0
H1598 H 0.2138 0.37613 0.26668 0.0
H1599 H 0.19689 0.5017 0.30768 0.0
H1600 H 0.21931 0.47585 0.31655 0.0
H1601 H 0.1808 0.42488 0.28696 0.0
H1602 H 0.15862 0.45068 0.27761 0.0
H1603 H 0.21673 0.41882 0.27524 0.0
H1604 H 0.1859 0.43536 0.34072 0.0
H1605 H 0.17467 0.45847 0.37093 0.0
H1606 H 0.23425 0.48157 0.3845 0.0
H1607 H 0.24583 0.4588 0.35419 0.0
C1608 C 0.26703 0.35044 0.31502 0.0
C1609 C 0.28588 0.35723 0.32243 0.0
C1610 C 0.25328 0.36525 0.31241 0.0
C1611 C 0.25816 0.38712 0.31723 0.0
C1612 C 0.27686 0.39384 0.32527 0.0
C1613 C 0.29064 0.379 0.32776 0.0
C1614 C 0.24399 0.40296 0.31322 0.0
C1615 C 0.23771 0.41726 0.32963 0.0
C1616 C 0.23626 0.40356 0.29339 0.0
C1617 C 0.24299 0.3896 0.27523 0.0
C1618 C 0.26306 0.38952 0.27003 0.0
C1619 C 0.26933 0.37609 0.25309 0.0
C1620 C 0.25566 0.36279 0.24111 0.0
C1621 C 0.23567 0.36295 0.24602 0.0
C1622 C 0.22932 0.37632 0.26298 0.0
C1623 C 0.19306 0.48497 0.3033 0.0
C1624 C 0.17593 0.47828 0.29194 0.0
C1625 C 0.20589 0.47015 0.30843 0.0
C1626 C 0.20176 0.44829 0.30258 0.0
C1627 C 0.18441 0.4416 0.29164 0.0
C1628 C 0.17166 0.4564 0.28637 0.0
C1629 C 0.21589 0.43247 0.30695 0.0
C1630 C 0.22228 0.41816 0.29056 0.0
C1631 C 0.22362 0.43183 0.32682 0.0
C1632 C 0.21671 0.44553 0.34506 0.0
C1633 C 0.1966 0.44549 0.35005 0.0
C1634 C 0.19017 0.45851 0.36721 0.0
C1635 C 0.20373 0.47152 0.3796 0.0
C1636 C 0.22376 0.47151 0.37488 0.0
C1637 C 0.23026 0.45853 0.35772 0.0
H1638 H 0.19872 0.48159 0.39288 0.0
H1639 H 0.26054 0.35241 0.228 0.0
H1640 H 0.07488 0.01336 0.53461 0.0
H1641 H 0.10748 0.03089 0.54333 0.0
H1642 H 0.12942 1.00538 0.48407 0.0
H1643 H 0.0971 0.98742 0.47585 0.0
H1644 H 0.15804 0.00812 0.51039 0.0
H1645 H 0.1108 0.05515 0.49279 0.0
H1646 H 0.07977 0.07302 0.49562 0.0
H1647 H 0.09463 0.10045 0.55703 0.0
H1648 H 0.12563 0.08242 0.55467 0.0
H1649 H 0.22886 0.08871 0.48614 0.0
H1650 H 0.20034 0.06343 0.48816 0.0
H1651 H 0.18977 0.09048 0.55057 0.0
H1652 H 0.21844 0.11584 0.54848 0.0
H1653 H 0.15631 0.08601 0.52774 0.0
H1654 H 0.20716 0.04167 0.54092 0.0
H1655 H 0.23851 0.0248 0.53466 0.0
H1656 H 0.21722 0.99384 0.47655 0.0
H1657 H 0.18583 0.01077 0.48232 0.0
C1658 C 0.08693 0.01089 0.52388 0.0
C1659 C 0.08358 0.99918 0.50456 0.0
C1660 C 0.10548 0.02112 0.5287 0.0
C1661 C 0.12087 0.01997 0.51414 0.0
C1662 C 0.11787 0.00669 0.49555 0.0
C1663 C 0.09942 0.9964 0.49084 0.0
C1664 C 0.13935 0.03405 0.51721 0.0
C1665 C 0.15762 0.02518 0.51403 0.0
C1666 C 0.139 0.05635 0.52218 0.0
C1667 C 0.12038 0.06719 0.52367 0.0
C1668 C 0.10737 0.06484 0.50697 0.0
C1669 C 0.0898 0.07501 0.50847 0.0
C1670 C 0.0852 0.0878 0.52652 0.0
C1671 C 0.09819 0.09048 0.54308 0.0
C1672 C 0.11575 0.08028 0.54168 0.0
C1673 C 0.22041 0.08923 0.50027 0.0
C1674 C 0.22545 0.10454 0.51697 0.0
C1675 C 0.20425 0.07464 0.50151 0.0
C1676 C 0.1929 0.07492 0.51957 0.0
C1677 C 0.19826 0.08993 0.53648 0.0
C1678 C 0.2146 0.10439 0.53529 0.0
C1679 C 0.17494 0.06023 0.52034 0.0
C1680 C 0.15675 0.06898 0.52424 0.0
C1681 C 0.17538 0.03795 0.51546 0.0
C1682 C 0.19418 0.0276 0.51201 0.0
C1683 C 0.20921 0.03138 0.52674 0.0
C1684 C 0.22698 0.02179 0.52329 0.0
C1685 C 0.22986 0.00828 0.5052 0.0
C1686 C 0.21496 1.00431 0.49055 0.0
C1687 C 0.19717 0.01387 0.49392 0.0
H1688 H 0.24364 1.00088 0.50256 0.0
H1689 H 0.0716 0.09569 0.52766 0.0
H1690 H 0.78791 0.20667 0.75627 0.0
H1691 H 0.7681 0.17425 0.76221 0.0
H1692 H 0.80088 0.13835 0.71495 0.0
H1693 H 0.82083 0.17093 0.70937 0.0
H1694 H 0.76118 0.13338 0.70855 0.0
H1695 H 0.80481 0.12818 0.76286 0.0
H1696 H 0.82443 0.14091 0.79374 0.0
H1697 H 0.77168 0.15335 0.82822 0.0
H1698 H 0.75173 0.14108 0.79743 0.0
H1699 H 0.69379 0.04484 0.72215 0.0
H1700 H 0.72307 0.06798 0.71731 0.0
H1701 H 0.71175 0.10486 0.77557 0.0
H1702 H 0.68497 0.07924 0.78181 0.0
H1703 H 0.74622 0.10493 0.77443 0.0
H1704 H 0.70521 0.12166 0.71651 0.0
H1705 H 0.68621 0.11209 0.68431 0.0
H1706 H 0.73472 0.07946 0.65669 0.0
H1707 H 0.75387 0.08901 0.68857 0.0
C1708 C 0.79131 0.19165 0.74782 0.0
C1709 C 0.80604 0.19101 0.73272 0.0
C1710 C 0.77998 0.17318 0.75108 0.0
C1711 C 0.78305 0.15381 0.73907 0.0
C1712 C 0.79831 0.15306 0.72446 0.0
C1713 C 0.80979 0.17153 0.7214 0.0
C1714 C 0.76899 0.13506 0.74038 0.0
C1715 C 0.75806 0.12692 0.7229 0.0
C1716 C 0.76484 0.12673 0.75908 0.0
C1717 C 0.77676 0.13382 0.77776 0.0
C1718 C 0.79738 0.13377 0.77698 0.0
C1719 C 0.80857 0.14089 0.79448 0.0
C1720 C 0.79931 0.14796 0.81292 0.0
C1721 C 0.77884 0.14787 0.81392 0.0
C1722 C 0.76757 0.14081 0.79644 0.0
C1723 C 0.69752 0.05806 0.73377 0.0
C1724 C 0.68619 0.06113 0.75179 0.0
C1725 C 0.71418 0.07162 0.73087 0.0
C1726 C 0.7195 0.08911 0.74557 0.0
C1727 C 0.70817 0.09184 0.76369 0.0
C1728 C 0.69227 0.0776 0.76703 0.0
C1729 C 0.73717 0.10408 0.74285 0.0
C1730 C 0.74911 0.11135 0.76004 0.0
C1731 C 0.74222 0.11176 0.72387 0.0
C1732 C 0.73065 0.10564 0.70495 0.0
C1733 C 0.71157 0.11221 0.70359 0.0
C1734 C 0.70087 0.10688 0.68543 0.0
C1735 C 0.70917 0.09497 0.66858 0.0
C1736 C 0.72826 0.08856 0.66978 0.0
C1737 C 0.73906 0.094 0.68785 0.0
H1738 H 0.70086 0.09084 0.65456 0.0
H1739 H 0.808 0.15347 0.82646 0.0
H1740 H 0.41948 0.98346 0.55052 0.0
H1741 H 0.39357 1.00484 0.5401 0.0
H1742 H 0.43472 0.05966 0.54371 0.0
H1743 H 0.46089 0.03802 0.55309 0.0
H1744 H 0.39639 0.06582 0.56428 0.0
H1745 H 0.4244 0.03826 0.49919 0.0
H1746 H 0.435 0.0096 0.47353 0.0
H1747 H 0.37606 0.98112 0.46981 0.0
H1748 H 0.36517 0.00944 0.49573 0.0
H1749 H 0.3374 0.1359 0.52242 0.0
H1750 H 0.36481 0.11489 0.52895 0.0
H1751 H 0.33048 0.05755 0.50607 0.0
H1752 H 0.30344 0.07872 0.49844 0.0
H1753 H 0.36578 0.05217 0.49532 0.0
H1754 H 0.33687 0.07644 0.5598 0.0
H1755 H 0.32457 0.10235 0.58722 0.0
H1756 H 0.38228 0.13363 0.59449 0.0
H1757 H 0.39488 0.10806 0.56691 0.0
C1758 C 0.42303 0.99999 0.54882 0.0
C1759 C 0.44223 0.00905 0.55253 0.0
C1760 C 0.40821 0.01222 0.54299 0.0
C1761 C 0.41222 0.03384 0.54107 0.0
C1762 C 0.43129 0.04302 0.54515 0.0
C1763 C 0.44619 0.0307 0.55061 0.0
C1764 C 0.39651 0.04686 0.53484 0.0
C1765 C 0.38986 0.06308 0.54911 0.0
C1766 C 0.38753 0.04274 0.5153 0.0
C1767 C 0.39402 0.02585 0.49955 0.0
C1768 C 0.41374 0.02579 0.49304 0.0
C1769 C 0.41979 0.00962 0.47842 0.0
C1770 C 0.40622 0.99352 0.47009 0.0
C1771 C 0.38656 0.99358 0.4763 0.0
C1772 C 0.38044 0.0097 0.49094 0.0
C1773 C 0.33581 0.11883 0.51852 0.0
C1774 C 0.31822 0.10898 0.50999 0.0
C1775 C 0.35144 0.10677 0.52245 0.0
C1776 C 0.34964 0.08447 0.51862 0.0
C1777 C 0.33232 0.07467 0.50932 0.0
C1778 C 0.31683 0.0868 0.50494 0.0
C1779 C 0.36555 0.07141 0.52476 0.0
C1780 C 0.37225 0.05507 0.5105 0.0
C1781 C 0.37428 0.07508 0.54453 0.0
C1782 C 0.36677 0.09047 0.56114 0.0
C1783 C 0.34691 0.08894 0.56715 0.0
C1784 C 0.33989 0.10354 0.58273 0.0
C1785 C 0.35262 0.11966 0.59255 0.0
C1786 C 0.37242 0.12116 0.58684 0.0
C1787 C 0.37952 0.10661 0.57125 0.0
H1788 H 0.34716 0.13095 0.60461 0.0
H1789 H 0.41094 0.98101 0.45877 0.0
H1790 H 0.59456 0.55737 0.56031 0.0
H1791 H 0.62496 0.54039 0.54928 0.0
H1792 H 0.59056 0.48305 0.52659 0.0
H1793 H 0.56046 0.50023 0.53737 0.0
H1794 H 0.63874 0.50782 0.56416 0.0
H1795 H 0.61443 0.45359 0.48948 0.0
H1796 H 0.59393 0.45516 0.45909 0.0
H1797 H 0.60201 0.52318 0.46703 0.0
H1798 H 0.62279 0.52202 0.49728 0.0
H1799 H 0.69843 0.41977 0.54784 0.0
H1800 H 0.67143 0.44336 0.55297 0.0
H1801 H 0.6884 0.47041 0.49767 0.0
H1802 H 0.71485 0.44648 0.49209 0.0
H1803 H 0.65124 0.46476 0.49761 0.0
H1804 H 0.69744 0.497 0.54805 0.0
H1805 H 0.71993 0.4986 0.57741 0.0
H1806 H 0.67183 0.48052 0.61588 0.0
H1807 H 0.64908 0.47854 0.58667 0.0
C1808 C 0.59361 0.54148 0.55215 0.0
C1809 C 0.57528 0.53017 0.54929 0.0
C1810 C 0.61093 0.53165 0.54613 0.0
C1811 C 0.61016 0.51038 0.53705 0.0
C1812 C 0.59167 0.49954 0.53322 0.0
C1813 C 0.57444 0.50936 0.53925 0.0
C1814 C 0.62848 0.49884 0.5332 0.0
C1815 C 0.64152 0.49851 0.54955 0.0
C1816 C 0.63238 0.48687 0.5141 0.0
C1817 C 0.62004 0.4877 0.49577 0.0
C1818 C 0.61192 0.46888 0.48469 0.0
C1819 C 0.60022 0.4697 0.46749 0.0
C1820 C 0.59662 0.48926 0.46117 0.0
C1821 C 0.60475 0.50804 0.47199 0.0
C1822 C 0.61646 0.50731 0.48918 0.0
C1823 C 0.69648 0.43083 0.53683 0.0
C1824 C 0.70889 0.43116 0.51955 0.0
C1825 C 0.68105 0.44441 0.53982 0.0
C1826 C 0.67788 0.45896 0.52584 0.0
C1827 C 0.69038 0.45937 0.50868 0.0
C1828 C 0.7056 0.44565 0.50555 0.0
C1829 C 0.66135 0.47339 0.5287 0.0
C1830 C 0.64858 0.47418 0.51218 0.0
C1831 C 0.65798 0.4862 0.54751 0.0
C1832 C 0.67159 0.48745 0.56512 0.0
C1833 C 0.69168 0.49323 0.56274 0.0
C1834 C 0.70447 0.49423 0.57936 0.0
C1835 C 0.69732 0.48962 0.59848 0.0
C1836 C 0.67735 0.48406 0.60105 0.0
C1837 C 0.6645 0.48302 0.58447 0.0
H1838 H 0.70725 0.4904 0.61133 0.0
H1839 H 0.58756 0.48986 0.44786 0.0
H1840 H 0.68184 0.20652 0.36884 0.0
H1841 H 0.68941 0.22864 0.40148 0.0
H1842 H 0.74492 0.25026 0.37658 0.0
H1843 H 0.73695 0.22871 0.34361 0.0
H1844 H 0.74187 0.24102 0.42322 0.0
H1845 H 0.71747 0.28262 0.37197 0.0
H1846 H 0.69413 0.2887 0.34521 0.0
H1847 H 0.64619 0.28364 0.38778 0.0
H1848 H 0.66928 0.27741 0.41476 0.0
H1849 H 0.765 0.33913 0.48355 0.0
H1850 H 0.75963 0.30881 0.4572 0.0
H1851 H 0.69718 0.30834 0.46895 0.0
H1852 H 0.70265 0.33952 0.49486 0.0
H1853 H 0.70282 0.30456 0.43001 0.0
H1854 H 0.72756 0.26898 0.48307 0.0
H1855 H 0.75035 0.26261 0.51018 0.0
H1856 H 0.79683 0.25493 0.46569 0.0
H1857 H 0.77439 0.26155 0.43834 0.0
C1858 C 0.69586 0.21558 0.37059 0.0
C1859 C 0.70875 0.21616 0.35378 0.0
C1860 C 0.70017 0.22817 0.38917 0.0
C1861 C 0.71764 0.24117 0.39132 0.0
C1862 C 0.73139 0.24025 0.37518 0.0
C1863 C 0.72692 0.22788 0.35645 0.0
C1864 C 0.72023 0.25763 0.40927 0.0
C1865 C 0.73354 0.25506 0.4247 0.0
C1866 C 0.70891 0.27556 0.41139 0.0
C1867 C 0.69503 0.27932 0.39526 0.0
C1868 C 0.70193 0.28265 0.37556 0.0
C1869 C 0.68877 0.28622 0.36039 0.0
C1870 C 0.66868 0.28651 0.36478 0.0
C1871 C 0.66174 0.28337 0.38439 0.0
C1872 C 0.67486 0.27987 0.39964 0.0
C1873 C 0.75012 0.33259 0.48038 0.0
C1874 C 0.73415 0.34202 0.49059 0.0
C1875 C 0.74707 0.31501 0.46557 0.0
C1876 C 0.72799 0.30605 0.46113 0.0
C1877 C 0.71204 0.31498 0.47202 0.0
C1878 C 0.71512 0.33274 0.4868 0.0
C1879 C 0.72471 0.2883 0.44422 0.0
C1880 C 0.71117 0.29056 0.42883 0.0
C1881 C 0.73579 0.27006 0.4423 0.0
C1882 C 0.74931 0.26591 0.45867 0.0
C1883 C 0.74267 0.26607 0.47908 0.0
C1884 C 0.75553 0.2624 0.49449 0.0
C1885 C 0.77504 0.25841 0.48966 0.0
C1886 C 0.78172 0.25803 0.4694 0.0
C1887 C 0.76893 0.26171 0.45394 0.0
H1888 H 0.78497 0.25558 0.50162 0.0
H1889 H 0.65851 0.28919 0.35299 0.0
H1890 H 0.51841 0.02491 0.96645 0.0
H1891 H 0.54149 0.02299 0.93741 0.0
H1892 H 0.51597 0.07621 0.91553 0.0
H1893 H 0.49265 0.07779 0.94456 0.0
H1894 H 0.51846 0.0438 0.88522 0.0
H1895 H 0.56217 0.08089 0.93588 0.0
H1896 H 0.57932 0.08728 0.96913 0.0
H1897 H 0.60689 0.02848 0.95547 0.0
H1898 H 0.58965 0.02156 0.92226 0.0
H1899 H 0.58835 0.06373 0.80851 0.0
H1900 H 0.56736 0.0652 0.83881 0.0
H1901 H 0.59352 0.01081 0.85743 0.0
H1902 H 0.61498 0.00932 0.82696 0.0
H1903 H 0.59092 0.04271 0.88947 0.0
H1904 H 0.54742 1.00582 0.83866 0.0
H1905 H 0.53032 0.99954 0.80537 0.0
H1906 H 0.50234 0.05804 0.81939 0.0
H1907 H 0.51951 0.06485 0.85265 0.0
C1908 C 0.51806 0.03641 0.9556 0.0
C1909 C 0.50387 0.05151 0.95765 0.0
C1910 C 0.53123 0.03535 0.93905 0.0
C1911 C 0.53054 0.04947 0.92423 0.0
C1912 C 0.5168 0.06512 0.92672 0.0
C1913 C 0.50364 0.0662 0.94337 0.0
C1914 C 0.5433 0.04703 0.90556 0.0
C1915 C 0.53433 0.0439 0.88617 0.0
C1916 C 0.56398 0.04643 0.90674 0.0
C1917 C 0.57446 0.05061 0.92665 0.0
C1918 C 0.57176 0.06923 0.94003 0.0
C1919 C 0.58152 0.07296 0.95886 0.0
C1920 C 0.59416 0.05827 0.96443 0.0
C1921 C 0.59709 0.03984 0.95115 0.0
C1922 C 0.58733 0.036 0.93231 0.0
C1923 C 0.58962 0.05189 0.81888 0.0
C1924 C 0.60341 0.03634 0.81518 0.0
C1925 C 0.5775 0.05275 0.83624 0.0
C1926 C 0.57871 0.03805 0.85038 0.0
C1927 C 0.59229 0.02232 0.84671 0.0
C1928 C 0.60445 0.02138 0.82921 0.0
C1929 C 0.56608 0.03964 0.86917 0.0
C1930 C 0.57505 0.04257 0.88856 0.0
C1931 C 0.54539 0.04005 0.86801 0.0
C1932 C 0.53489 0.03593 0.84809 0.0
C1933 C 0.53773 0.01743 0.83458 0.0
C1934 C 0.52801 0.01376 0.81572 0.0
C1935 C 0.51529 0.02841 0.81024 0.0
C1936 C 0.51222 0.04672 0.82364 0.0
C1937 C 0.52193 0.05048 0.84251 0.0
H1938 H 0.50778 0.02554 0.79563 0.0
H1939 H 0.6017 0.06119 0.97901 0.0
H1940 H 0.29491 0.27572 0.32369 0.0
H1941 H 0.29204 0.24758 0.34627 0.0
H1942 H 0.33617 0.28199 0.38612 0.0
H1943 H 0.33897 0.31008 0.36332 0.0
H1944 H 0.33834 0.23726 0.38368 0.0
H1945 H 0.2895 0.2887 0.39955 0.0
H1946 H 0.2627 0.31072 0.39203 0.0
H1947 H 0.22821 0.2549 0.36667 0.0
H1948 H 0.25471 0.23253 0.37432 0.0
H1949 H 0.30552 0.18936 0.47438 0.0
H1950 H 0.31771 0.21252 0.44892 0.0
H1951 H 0.26902 0.18895 0.40936 0.0
H1952 H 0.25658 0.16656 0.43478 0.0
H1953 H 0.27107 0.22938 0.41256 0.0
H1954 H 0.31894 0.17729 0.39904 0.0
H1955 H 0.34525 0.15521 0.40764 0.0
H1956 H 0.38179 0.21127 0.42807 0.0
H1957 H 0.35558 0.2337 0.41983 0.0
C1958 C 0.30457 0.27673 0.3368 0.0
C1959 C 0.31745 0.29476 0.34158 0.0
C1960 C 0.30277 0.26083 0.34985 0.0
C1961 C 0.3137 0.26275 0.36811 0.0
C1962 C 0.32762 0.28007 0.37214 0.0
C1963 C 0.32936 0.29602 0.35905 0.0
C1964 C 0.30907 0.24793 0.38381 0.0
C1965 C 0.32369 0.23565 0.39017 0.0
C1966 C 0.28994 0.2456 0.39219 0.0
C1967 C 0.27412 0.259 0.38733 0.0
C1968 C 0.27623 0.28115 0.39228 0.0
C1969 C 0.26107 0.29368 0.38808 0.0
C1970 C 0.24382 0.28423 0.37876 0.0
C1971 C 0.24161 0.26221 0.37383 0.0
C1972 C 0.25664 0.24959 0.37819 0.0
C1973 C 0.29764 0.18889 0.46009 0.0
C1974 C 0.27998 0.17619 0.45674 0.0
C1975 C 0.30463 0.20213 0.44548 0.0
C1976 C 0.29431 0.20262 0.42708 0.0
C1977 C 0.27722 0.18914 0.42342 0.0
C1978 C 0.27012 0.17624 0.43803 0.0
C1979 C 0.30016 0.21808 0.41219 0.0
C1980 C 0.28575 0.23075 0.40608 0.0
C1981 C 0.31945 0.22061 0.40407 0.0
C1982 C 0.33521 0.20717 0.40903 0.0
C1983 C 0.33252 0.18491 0.40553 0.0
C1984 C 0.34743 0.17233 0.41031 0.0
C1985 C 0.36515 0.18183 0.41846 0.0
C1986 C 0.36803 0.20394 0.42179 0.0
C1987 C 0.35316 0.21659 0.41706 0.0
H1988 H 0.37668 0.17207 0.42214 0.0
H1989 H 0.23215 0.29397 0.37543 0.0
H1990 H 0.52823 0.46409 0.94289 0.0
H1991 H 0.50607 0.46948 0.91511 0.0
H1992 H 0.49494 0.53139 0.946 0.0
H1993 H 0.51704 0.52576 0.97397 0.0
H1994 H 0.46089 0.5093 0.93081 0.0
H1995 H 0.52461 0.52802 0.9054 0.0
H1996 H 0.55953 0.52348 0.89712 0.0
H1997 H 0.54353 0.46763 0.85553 0.0
H1998 H 0.50852 0.47164 0.8638 0.0
H1999 H 0.4107 0.53074 0.83984 0.0
H2000 H 0.43371 0.53466 0.86881 0.0
H2001 H 0.45471 0.47331 0.84775 0.0
H2002 H 0.4322 0.46935 0.81901 0.0
H2003 H 0.48479 0.50134 0.85871 0.0
H2004 H 0.4217 0.48029 0.88743 0.0
H2005 H 0.38674 0.48426 0.89603 0.0
H2006 H 0.40168 0.54447 0.93138 0.0
H2007 H 0.43672 0.54097 0.92274 0.0
C2008 C 0.52092 0.47875 0.94374 0.0
C2009 C 0.52427 0.49452 0.96046 0.0
C2010 C 0.50839 0.48191 0.92785 0.0
C2011 C 0.49897 0.50095 0.92833 0.0
C2012 C 0.50206 0.51661 0.94525 0.0
C2013 C 0.51471 0.51346 0.96112 0.0
C2014 C 0.48604 0.50436 0.91106 0.0
C2015 C 0.4662 0.50796 0.91508 0.0
C2016 C 0.49288 0.50245 0.89049 0.0
C2017 C 0.51393 0.50005 0.88534 0.0
C2018 C 0.52854 0.51468 0.8946 0.0
C2019 C 0.54835 0.51222 0.88989 0.0
C2020 C 0.55375 0.49526 0.87584 0.0
C2021 C 0.53933 0.48076 0.86642 0.0
C2022 C 0.51949 0.48313 0.8711 0.0
C2023 C 0.4203 0.51816 0.84133 0.0
C2024 C 0.41946 0.4997 0.82705 0.0
C2025 C 0.4334 0.52038 0.85795 0.0
C2026 C 0.4459 0.50421 0.86056 0.0
C2027 C 0.44529 0.48604 0.8461 0.0
C2028 C 0.43226 0.48377 0.82965 0.0
C2029 C 0.4595 0.50566 0.87838 0.0
C2030 C 0.47953 0.503 0.87447 0.0
C2031 C 0.45281 0.50842 0.899 0.0
C2032 C 0.43178 0.5105 0.90423 0.0
C2033 C 0.4175 0.49446 0.89689 0.0
C2034 C 0.39768 0.49661 0.9018 0.0
C2035 C 0.39198 0.51464 0.91419 0.0
C2036 C 0.40611 0.53053 0.92174 0.0
C2037 C 0.42595 0.52847 0.91685 0.0
H2038 H 0.37663 0.51627 0.91797 0.0
H2039 H 0.5691 0.49338 0.87221 0.0
H2040 H 0.73388 0.78262 0.20305 0.0
H2041 H 0.74392 0.76533 0.16938 0.0
H2042 H 0.69945 0.79641 0.14037 0.0
H2043 H 0.68957 0.81369 0.17426 0.0
H2044 H 0.69792 0.75432 0.12747 0.0
H2045 H 0.74786 0.8111 0.13473 0.0
H2046 H 0.77435 0.8342 0.15264 0.0
H2047 H 0.80897 0.78053 0.15403 0.0
H2048 H 0.78252 0.75701 0.13648 0.0
H2049 H 0.72648 0.71196 0.02765 0.0
H2050 H 0.72045 0.73825 0.05706 0.0
H2051 H 0.76443 0.71267 0.09178 0.0
H2052 H 0.7709 0.68667 0.06238 0.0
H2053 H 0.76607 0.75501 0.10009 0.0
H2054 H 0.71554 0.69802 0.09639 0.0
H2055 H 0.68921 0.67407 0.07917 0.0
H2056 H 0.65581 0.72748 0.07204 0.0
H2057 H 0.68214 0.7518 0.08887 0.0
C2058 C 0.72679 0.78624 0.18935 0.0
C2059 C 0.71143 0.79989 0.19097 0.0
C2060 C 0.73239 0.77629 0.17016 0.0
C2061 C 0.72259 0.77974 0.15225 0.0
C2062 C 0.7073 0.7936 0.15392 0.0
C2063 C 0.70178 0.80359 0.17315 0.0
C2064 C 0.72757 0.76788 0.13205 0.0
C2065 C 0.71275 0.75482 0.12128 0.0
C2066 C 0.74701 0.76809 0.12419 0.0
C2067 C 0.76312 0.78226 0.13441 0.0
C2068 C 0.76107 0.80419 0.13897 0.0
C2069 C 0.77608 0.81736 0.14906 0.0
C2070 C 0.79332 0.80883 0.1545 0.0
C2071 C 0.7956 0.78711 0.14982 0.0
C2072 C 0.7806 0.77385 0.13978 0.0
C2073 C 0.73508 0.71207 0.04143 0.0
C2074 C 0.74907 0.69699 0.04262 0.0
C2075 C 0.73155 0.7271 0.05829 0.0
C2076 C 0.74175 0.72724 0.0768 0.0
C2077 C 0.75634 0.71288 0.07771 0.0
C2078 C 0.75996 0.69793 0.06085 0.0
C2079 C 0.73644 0.74138 0.0956 0.0
C2080 C 0.75119 0.75477 0.10614 0.0
C2081 C 0.71695 0.74138 0.10336 0.0
C2082 C 0.7009 0.72675 0.09369 0.0
C2083 C 0.70263 0.70467 0.09104 0.0
C2084 C 0.68771 0.69103 0.08135 0.0
C2085 C 0.67087 0.69925 0.07447 0.0
C2086 C 0.66888 0.72113 0.07734 0.0
C2087 C 0.6838 0.73486 0.08695 0.0
H2088 H 0.65935 0.68867 0.06695 0.0
H2089 H 0.80492 0.81905 0.16232 0.0
H2090 H 0.99898 0.02194 0.0817 0.0
H2091 H 0.97714 0.01632 0.11093 0.0
H2092 H 0.02538 0.03512 0.15258 0.0
H2093 H 0.04705 0.04097 0.12329 0.0
H2094 H 0.97805 0.99002 0.14035 0.0
H2095 H 0.00714 0.06304 0.19606 0.0
H2096 H 0.02225 0.09916 0.19441 0.0
H2097 H 0.99543 0.1006 0.13579 0.0
H2098 H 0.97993 0.06466 0.13724 0.0
H2099 H 0.94087 0.9786 0.23992 0.0
H2100 H 0.96272 0.98468 0.21113 0.0
H2101 H 0.9322 0.03981 0.20151 0.0
H2102 H 0.91073 0.03427 0.23072 0.0
H2103 H 0.96947 0.04831 0.19665 0.0
H2104 H 0.92396 0.99052 0.17133 0.0
H2105 H 0.90615 0.95547 0.17151 0.0
H2106 H 0.96073 0.9254 0.16593 0.0
H2107 H 0.9789 0.9603 0.16604 0.0
C2108 C 1.00478 0.02489 0.09714 0.0
C2109 C 0.02456 0.03194 0.10039 0.0
C2110 C 0.99241 0.02157 0.11378 0.0
C2111 C 0.99958 0.02543 0.13397 0.0
C2112 C 0.01946 0.03223 0.13717 0.0
C2113 C 0.03184 0.03546 0.12051 0.0
C2114 C 0.98622 0.02261 0.15167 0.0
C2115 C 0.9762 1.00275 0.15269 0.0
C2116 C 0.98349 0.03932 0.16757 0.0
C2117 C 0.99256 0.06106 0.16667 0.0
C2118 C 1.00442 0.0711 0.18286 0.0
C2119 C 0.01305 0.09154 0.18195 0.0
C2120 C 0.00986 0.10214 0.16497 0.0
C2121 C 0.99796 0.09235 0.1489 0.0
C2122 C 0.98926 0.07193 0.14974 0.0
C2123 C 0.93883 0.99207 0.23174 0.0
C2124 C 0.92396 1.00589 0.23762 0.0
C2125 C 0.9513 0.99547 0.21519 0.0
C2126 C 0.94893 0.01251 0.20387 0.0
C2127 C 0.93434 0.02655 0.20996 0.0
C2128 C 0.92203 0.02332 0.22667 0.0
C2129 C 0.96147 0.01559 0.18555 0.0
C2130 C 0.97136 0.03552 0.18439 0.0
C2131 C 0.96371 0.99908 0.16927 0.0
C2132 C 0.95279 0.97804 0.16887 0.0
C2133 C 0.93217 0.97644 0.17026 0.0
C2134 C 0.92201 0.9566 0.1703 0.0
C2135 C 0.9323 0.93822 0.16878 0.0
C2136 C 0.95278 0.93965 0.16713 0.0
C2137 C 0.96301 0.95945 0.16713 0.0
H2138 H 0.92442 0.92288 0.16883 0.0
H2139 H 0.01657 0.11795 0.1643 0.0
H2140 H 0.31101 0.77226 0.21681 0.0
H2141 H 0.30402 0.79598 0.19123 0.0
H2142 H 0.31835 0.74747 0.14254 0.0
H2143 H 0.3252 0.72379 0.1682 0.0
H2144 H 0.3341 0.78871 0.13638 0.0
H2145 H 0.2723 0.75347 0.15316 0.0
H2146 H 0.24621 0.74226 0.17665 0.0
H2147 H 0.23688 0.80746 0.19755 0.0
H2148 H 0.26318 0.81906 0.1744 0.0
H2149 H 0.29079 0.82755 0.05163 0.0
H2150 H 0.30119 0.80659 0.07789 0.0
H2151 H 0.27595 0.8502 0.12496 0.0
H2152 H 0.26493 0.87081 0.09865 0.0
H2153 H 0.2665 0.81214 0.13277 0.0
H2154 H 0.32736 0.84809 0.11628 0.0
H2155 H 0.35403 0.8602 0.09388 0.0
H2156 H 0.36592 0.79552 0.07373 0.0
H2157 H 0.33913 0.78301 0.0958 0.0
C2158 C 0.31285 0.76686 0.20064 0.0
C2159 C 0.31859 0.74629 0.19436 0.0
C2160 C 0.3088 0.78032 0.18606 0.0
C2161 C 0.31054 0.77346 0.16494 0.0
C2162 C 0.31692 0.75312 0.15871 0.0
C2163 C 0.32075 0.7396 0.1733 0.0
C2164 C 0.30499 0.78715 0.14935 0.0
C2165 C 0.31928 0.79367 0.13542 0.0
C2166 C 0.28578 0.79408 0.14843 0.0
C2167 C 0.26985 0.78713 0.16221 0.0
C2168 C 0.2648 0.76542 0.16288 0.0
C2169 C 0.24996 0.75899 0.17612 0.0
C2170 C 0.23992 0.77414 0.18862 0.0
C2171 C 0.24469 0.79574 0.18787 0.0
C2172 C 0.25956 0.80225 0.1747 0.0
C2173 C 0.28759 0.83279 0.06759 0.0
C2174 C 0.27706 0.85091 0.07303 0.0
C2175 C 0.29364 0.82081 0.08265 0.0
C2176 C 0.28963 0.82688 0.10356 0.0
C2177 C 0.27926 0.84511 0.109 0.0
C2178 C 0.27302 0.85695 0.09392 0.0
C2179 C 0.29562 0.81386 0.11967 0.0
C2180 C 0.28138 0.80736 0.13371 0.0
C2181 C 0.31495 0.80715 0.12081 0.0
C2182 C 0.33111 0.81461 0.10755 0.0
C2183 C 0.33556 0.83644 0.10695 0.0
C2184 C 0.35072 0.84338 0.09434 0.0
C2185 C 0.36163 0.82864 0.08235 0.0
C2186 C 0.35744 0.80692 0.083 0.0
C2187 C 0.34228 0.7999 0.09558 0.0
H2188 H 0.37336 0.83404 0.07259 0.0
H2189 H 0.22843 0.76913 0.19885 0.0
H2190 H 0.97663 0.46519 0.10667 0.0
H2191 H 1.00042 0.46887 0.13495 0.0
H2192 H 0.04401 0.49668 0.09619 0.0
H2193 H 0.02016 0.4926 0.06793 0.0
H2194 H 0.06123 0.47288 0.12137 0.0
H2195 H 0.01613 0.52809 0.12846 0.0
H2196 H 0.98343 0.54252 0.13063 0.0
H2197 H 0.9699 0.51169 0.18428 0.0
H2198 H 1.00248 0.49688 0.18229 0.0
H2199 H 0.09307 0.55277 0.21726 0.0
H2200 H 0.07173 0.5409 0.18807 0.0
H2201 H 0.08472 0.47607 0.19166 0.0
H2202 H 0.10655 0.48791 0.22079 0.0
H2203 H 0.0393 0.51722 0.18391 0.0
H2204 H 0.08135 0.44793 0.14322 0.0
H2205 H 0.11533 0.43699 0.13914 0.0
H2206 H 0.13749 0.50217 0.14997 0.0
H2207 H 0.10366 0.51351 0.15384 0.0
C2208 C 0.99148 0.47154 0.10417 0.0
C2209 C 0.99668 0.4787 0.08532 0.0
C2210 C 1.00502 0.47379 0.12029 0.0
C2211 C 0.02395 0.48344 0.11788 0.0
C2212 C 0.02953 0.48923 0.0985 0.0
C2213 C 0.01597 0.4869 0.08236 0.0
C2214 C 0.03722 0.48927 0.13593 0.0
C2215 C 0.0564 0.48243 0.13511 0.0
C2216 C 0.03115 0.50216 0.15374 0.0
C2217 C 0.01165 0.51122 0.15511 0.0
C2218 C 0.00613 0.52429 0.14065 0.0
C2219 C 0.98764 0.53256 0.14186 0.0
C2220 C 0.97457 0.52797 0.15755 0.0
C2221 C 0.98002 0.51519 0.17211 0.0
C2222 C 0.99851 0.50688 0.17097 0.0
C2223 C 0.09146 0.53595 0.21192 0.0
C2224 C 0.10164 0.52133 0.22151 0.0
C2225 C 0.07915 0.52917 0.19517 0.0
C2226 C 0.07661 0.50757 0.18746 0.0
C2227 C 0.0866 0.49286 0.19706 0.0
C2228 C 0.09905 0.49966 0.21381 0.0
C2229 C 0.06336 0.5007 0.16952 0.0
C2230 C 0.04413 0.50741 0.17033 0.0
C2231 C 0.06958 0.48814 0.15154 0.0
C2232 C 0.08998 0.48152 0.14906 0.0
C2233 C 0.09348 0.45992 0.14468 0.0
C2234 C 0.11271 0.45365 0.1424 0.0
C2235 C 0.12856 0.46887 0.14437 0.0
C2236 C 0.12521 0.49039 0.14853 0.0
C2237 C 0.10601 0.49675 0.15079 0.0
H2238 H 0.14343 0.46398 0.14262 0.0
H2239 H 0.96025 0.53436 0.15844 0.0
H2240 H 0.35136 0.68337 0.24175 0.0
H2241 H 0.37602 0.68138 0.26846 0.0
H2242 H 0.36208 0.74312 0.29741 0.0
H2243 H 0.33709 0.74472 0.27124 0.0
H2244 H 0.40232 0.73957 0.28514 0.0
H2245 H 0.35179 0.70368 0.32299 0.0
H2246 H 0.32717 0.67601 0.3318 0.0
H2247 H 0.36977 0.62918 0.32115 0.0
H2248 H 0.3946 0.65654 0.31208 0.0
H2249 H 0.46191 0.75847 0.3728 0.0
H2250 H 0.43517 0.75347 0.34802 0.0
H2251 H 0.4458 0.68703 0.33525 0.0
H2252 H 0.47219 0.69199 0.361 0.0
H2253 H 0.40824 0.69054 0.3376 0.0
H2254 H 0.45919 0.72482 0.301 0.0
H2255 H 0.48555 0.752 0.29531 0.0
H2256 H 0.44403 0.80015 0.3023 0.0
H2257 H 0.41745 0.7733 0.30832 0.0
C2258 C 0.35313 0.69613 0.25425 0.0
C2259 C 0.34253 0.71432 0.25432 0.0
C2260 C 0.36727 0.69505 0.26944 0.0
C2261 C 0.37105 0.71221 0.28486 0.0
C2262 C 0.35953 0.72975 0.28563 0.0
C2263 C 0.34529 0.73068 0.27067 0.0
C2264 C 0.38839 0.71319 0.29866 0.0
C2265 C 0.40353 0.72894 0.29673 0.0
C2266 C 0.39042 0.69882 0.31323 0.0
C2267 C 0.37497 0.68211 0.31662 0.0
C2268 C 0.35579 0.68741 0.32211 0.0
C2269 C 0.34184 0.67179 0.3273 0.0
C2270 C 0.34694 0.65086 0.32712 0.0
C2271 C 0.36587 0.64541 0.32134 0.0
C2272 C 0.37987 0.66095 0.31616 0.0
C2273 C 0.45838 0.74274 0.36486 0.0
C2274 C 0.46864 0.72547 0.36927 0.0
C2275 C 0.44328 0.73994 0.35042 0.0
C2276 C 0.43849 0.7199 0.33945 0.0
C2277 C 0.44912 0.70265 0.3435 0.0
C2278 C 0.46421 0.70546 0.35814 0.0
C2279 C 0.42211 0.71703 0.32422 0.0
C2280 C 0.40719 0.70098 0.32582 0.0
C2281 C 0.42044 0.73087 0.30904 0.0
C2282 C 0.43635 0.74705 0.30525 0.0
C2283 C 0.4557 0.74122 0.30144 0.0
C2284 C 0.47068 0.75657 0.29815 0.0
C2285 C 0.46648 0.77779 0.29848 0.0
C2286 C 0.44727 0.78371 0.30205 0.0
C2287 C 0.43223 0.76843 0.30538 0.0
H2288 H 0.4781 0.78965 0.29593 0.0
H2289 H 0.3363 0.63884 0.33153 0.0
H2290 H 0.97317 0.43142 0.06561 0.0
H2291 H 0.98407 0.39728 0.04945 0.0
H2292 H 0.01882 0.42989 0.00603 0.0
H2293 H 0.00754 0.46394 0.02219 0.0
H2294 H 0.99656 0.39874 0.98642 0.0
H2295 H 0.04019 0.40419 0.0431 0.0
H2296 H 0.04994 0.41001 0.07951 0.0
H2297 H 0.01226 0.3561 0.09179 0.0
H2298 H 1.00201 0.35015 0.05551 0.0
H2299 H 0.02671 0.30067 0.93704 0.0
H2300 H 0.03088 0.33548 0.95783 0.0
H2301 H 0.99029 0.3137 1.00289 0.0
H2302 H 0.98607 0.27908 0.98232 0.0
H2303 H 0.02068 0.34047 0.02106 0.0
H2304 H 0.97374 0.33879 0.96613 0.0
H2305 H 0.96328 0.33288 0.92993 0.0
H2306 H 0.00724 0.38015 0.91482 0.0
H2307 H 0.01818 0.38608 0.95091 0.0
C2308 C 0.98358 0.43119 0.053 0.0
C2309 C 0.98961 0.4501 0.04509 0.0
C2310 C 0.98982 0.41175 0.04374 0.0
C2311 C 1.00237 0.41091 0.02649 0.0
C2312 C 0.00914 0.43004 0.01926 0.0
C2313 C 1.00285 0.44947 0.02853 0.0
C2314 C 0.0069 0.39006 0.01496 0.0
C2315 C 1.0023 0.38621 0.99395 0.0
C2316 C 0.01397 0.37343 0.02476 0.0
C2317 C 0.02023 0.37681 0.04658 0.0
C2318 C 0.03387 0.39366 0.05358 0.0
C2319 C 0.0395 0.39697 0.0742 0.0
C2320 C 0.0317 0.38345 0.08796 0.0
C2321 C 0.01828 0.36656 0.08111 0.0
C2322 C 0.01258 0.3632 0.06051 0.0
C2323 C 0.0191 0.30312 0.95164 0.0
C2324 C 0.00594 0.28712 0.95792 0.0
C2325 C 0.02141 0.32306 0.96346 0.0
C2326 C 0.0107 0.32731 0.98182 0.0
C2327 C 0.99869 0.31086 0.98881 0.0
C2328 C 0.99624 0.29106 0.97695 0.0
C2329 C 0.01024 0.34927 0.99268 0.0
C2330 C 0.0154 0.35324 0.01353 0.0
C2331 C 1.00366 0.36605 0.98279 0.0
C2332 C 0.99694 0.36269 0.96115 0.0
C2333 C 0.98127 0.34781 0.95506 0.0
C2334 C 0.97524 0.34446 0.93456 0.0
C2335 C 0.98462 0.35609 0.92007 0.0
C2336 C 1.00001 0.37113 0.92606 0.0
C2337 C 0.00614 0.37448 0.94653 0.0
H2338 H 0.97994 0.35349 0.90421 0.0
H2339 H 0.03607 0.38605 0.10392 0.0
H2340 H 0.689 0.79509 0.27536 0.0
H2341 H 0.66295 0.78869 0.30056 0.0
H2342 H 0.62011 0.80806 0.26003 0.0
H2343 H 0.64636 0.8145 0.23491 0.0
H2344 H 0.61525 0.82571 0.30051 0.0
H2345 H 0.62283 0.75693 0.26361 0.0
H2346 H 0.64115 0.72652 0.24893 0.0
H2347 H 0.65976 0.71722 0.30927 0.0
H2348 H 0.6418 0.74781 0.32429 0.0
H2349 H 0.53091 0.78456 0.35316 0.0
H2350 H 0.55593 0.79438 0.3283 0.0
H2351 H 0.6003 0.76942 0.36307 0.0
H2352 H 0.57533 0.75911 0.38761 0.0
H2353 H 0.60359 0.75484 0.32434 0.0
H2354 H 0.59679 0.82387 0.36142 0.0
H2355 H 0.57896 0.85457 0.37635 0.0
H2356 H 0.55927 0.86368 0.31634 0.0
H2357 H 0.57677 0.83284 0.30107 0.0
C2358 C 0.67399 0.79794 0.27197 0.0
C2359 C 0.66951 0.80528 0.2534 0.0
C2360 C 0.65914 0.79427 0.28626 0.0
C2361 C 0.63955 0.79781 0.28213 0.0
C2362 C 0.63511 0.80527 0.26354 0.0
C2363 C 0.64999 0.80883 0.24921 0.0
C2364 C 0.62374 0.79349 0.29718 0.0
C2365 C 0.61249 0.81015 0.30554 0.0
C2366 C 0.62042 0.7733 0.30403 0.0
C2367 C 0.63111 0.75479 0.29506 0.0
C2368 C 0.63096 0.74851 0.27374 0.0
C2369 C 0.64126 0.73122 0.26536 0.0
C2370 C 0.65165 0.71997 0.27816 0.0
C2371 C 0.65172 0.72596 0.29937 0.0
C2372 C 0.64147 0.74327 0.30783 0.0
C2373 C 0.54605 0.78149 0.35568 0.0
C2374 C 0.55113 0.77103 0.37235 0.0
C2375 C 0.56037 0.78714 0.34146 0.0
C2376 C 0.58008 0.78271 0.3438 0.0
C2377 C 0.58522 0.77291 0.36084 0.0
C2378 C 0.57092 0.76711 0.37493 0.0
C2379 C 0.59519 0.78715 0.32799 0.0
C2380 C 0.6063 0.77044 0.31938 0.0
C2381 C 0.5984 0.80732 0.321 0.0
C2382 C 0.58793 0.82591 0.33013 0.0
C2383 C 0.58853 0.83232 0.35142 0.0
C2384 C 0.5785 0.84976 0.35994 0.0
C2385 C 0.56794 0.86103 0.34731 0.0
C2386 C 0.56743 0.85492 0.32611 0.0
C2387 C 0.57742 0.83747 0.31752 0.0
H2388 H 0.56019 0.87453 0.35393 0.0
H2389 H 0.65962 0.70659 0.27164 0.0
H2390 H 0.03694 0.03744 0.01646 0.0
H2391 H 0.03222 0.06249 0.9915 0.0
H2392 H 0.06083 0.11289 0.03297 0.0
H2393 H 0.0661 0.08753 0.05728 0.0
H2394 H 0.01 0.09294 0.99587 0.0
H2395 H 0.07716 0.15464 0.00961 0.0
H2396 H 0.11274 0.15502 0.01591 0.0
H2397 H 0.1134 0.09078 0.98696 0.0
H2398 H 0.07789 0.09011 0.98022 0.0
H2399 H 0.98399 0.19201 0.97127 0.0
H2400 H 0.99615 0.16328 0.98803 0.0
H2401 H 0.04075 0.1541 0.94119 0.0
H2402 H 0.02905 0.18327 0.92467 0.0
H2403 H 0.05635 0.15061 0.97621 0.0
H2404 H 0.99828 0.12007 0.94207 0.0
H2405 H 0.96339 0.11747 0.93213 0.0
H2406 H 0.94612 0.11458 0.99495 0.0
H2407 H 0.98091 0.1175 0.00533 0.0
C2408 C 0.04302 0.05367 0.01964 0.0
C2409 C 0.05227 0.06057 0.03845 0.0
C2410 C 0.04007 0.06807 0.00558 0.0
C2411 C 0.04616 0.08972 0.01021 0.0
C2412 C 0.05634 0.0963 0.02867 0.0
C2413 C 0.05947 0.08183 0.04256 0.0
C2414 C 0.04012 0.1057 0.99693 0.0
C2415 C 0.02023 0.10544 0.99149 0.0
C2416 C 0.05338 0.12193 0.9908 0.0
C2417 C 0.07481 0.12228 0.99456 0.0
C2418 C 0.08491 0.14063 1.00449 0.0
C2419 C 0.10507 0.14089 0.00816 0.0
C2420 C 0.11532 0.12292 1.00189 0.0
C2421 C 0.10544 0.10467 0.99188 0.0
C2422 C 0.08528 0.10433 0.98815 0.0
C2423 C 0.99639 0.18391 0.96449 0.0
C2424 C 1.00545 0.19 0.94652 0.0
C2425 C 1.0033 0.16736 0.97407 0.0
C2426 C 0.01922 0.15618 0.96576 0.0
C2427 C 0.02845 0.16239 0.94796 0.0
C2428 C 0.02167 0.17909 0.93847 0.0
C2429 C 0.0262 0.13806 0.97562 0.0
C2430 C 0.04621 0.13797 0.98046 0.0
C2431 C 0.01317 0.12114 0.98069 0.0
C2432 C 0.99221 0.11917 0.9745 0.0
C2433 C 0.98704 0.11901 0.95379 0.0
C2434 C 0.96728 0.11747 0.94807 0.0
C2435 C 0.95255 0.1159 0.9629 0.0
C2436 C 0.95755 0.11582 0.98348 0.0
C2437 C 0.97729 0.1174 0.98929 0.0
H2438 H 0.93726 0.11472 0.95845 0.0
H2439 H 0.13092 0.12315 1.00476 0.0
H2440 H 0.36108 0.31613 0.33028 0.0
H2441 H 0.39012 0.3084 0.30876 0.0
H2442 H 0.35326 0.29775 0.25499 0.0
H2443 H 0.32439 0.30432 0.27671 0.0
H2444 H 0.38111 0.27347 0.24826 0.0
H2445 H 0.37875 0.34726 0.27243 0.0
H2446 H 0.37712 0.37872 0.29823 0.0
H2447 H 0.432 0.36553 0.32365 0.0
H2448 H 0.43379 0.33376 0.29818 0.0
H2449 H 0.44927 0.30034 0.17228 0.0
H2450 H 0.4234 0.30737 0.1981 0.0
H2451 H 0.46239 0.29439 0.24552 0.0
H2452 H 0.4881 0.28681 0.2196 0.0
H2453 H 0.4351 0.33022 0.25628 0.0
H2454 H 0.43615 0.25576 0.22818 0.0
H2455 H 0.43706 0.22785 0.19863 0.0
H2456 H 0.3825 0.24636 0.17686 0.0
H2457 H 0.3815 0.2747 0.20607 0.0
C2458 C 0.35922 0.31129 0.31399 0.0
C2459 C 0.34059 0.31084 0.30509 0.0
C2460 C 0.37582 0.30724 0.3016 0.0
C2461 C 0.37409 0.30313 0.28004 0.0
C2462 C 0.35518 0.30102 0.27146 0.0
C2463 C 0.33864 0.30474 0.28386 0.0
C2464 C 0.39179 0.30258 0.26625 0.0
C2465 C 0.39281 0.28597 0.25007 0.0
C2466 C 0.40723 0.31885 0.26833 0.0
C2467 C 0.40629 0.33801 0.28356 0.0
C2468 C 0.3904 0.35099 0.28361 0.0
C2469 C 0.38945 0.36888 0.29817 0.0
C2470 C 0.40442 0.37409 0.31261 0.0
C2471 C 0.4204 0.36144 0.31248 0.0
C2472 C 0.42139 0.3435 0.29799 0.0
C2473 C 0.45255 0.29986 0.18832 0.0
C2474 C 0.47077 0.29346 0.19405 0.0
C2475 C 0.43773 0.3037 0.20304 0.0
C2476 C 0.44094 0.30131 0.22373 0.0
C2477 C 0.45964 0.29647 0.22969 0.0
C2478 C 0.47435 0.29228 0.21491 0.0
C2479 C 0.42421 0.30123 0.23854 0.0
C2480 C 0.42342 0.31768 0.25476 0.0
C2481 C 0.40873 0.28515 0.23621 0.0
C2482 C 0.40882 0.26744 0.21923 0.0
C2483 C 0.42439 0.25393 0.21705 0.0
C2484 C 0.42493 0.23805 0.20035 0.0
C2485 C 0.40986 0.23535 0.18587 0.0
C2486 C 0.39417 0.24848 0.1881 0.0
C2487 C 0.3936 0.26445 0.20473 0.0
H2488 H 0.41032 0.22308 0.17293 0.0
H2489 H 0.40367 0.38795 0.32386 0.0
H2490 H 0.56142 0.43595 0.99313 0.0
H2491 H 0.55809 0.40947 0.01744 0.0
H2492 H 0.54663 0.45892 0.06636 0.0
H2493 H 0.55 0.48535 0.04183 0.0
H2494 H 0.57426 0.40174 0.05339 0.0
H2495 H 0.50818 0.43962 0.09493 0.0
H2496 H 0.48262 0.46369 0.08868 0.0
H2497 H 0.48626 0.44408 0.02382 0.0
H2498 H 0.51169 0.41975 0.02971 0.0
H2499 H 0.54645 0.34425 0.13669 0.0
H2500 H 0.55451 0.37361 0.11659 0.0
H2501 H 0.50498 0.35319 0.07721 0.0
H2502 H 0.49673 0.32375 0.09737 0.0
H2503 H 0.50824 0.39611 0.08573 0.0
H2504 H 0.55089 0.34118 0.06203 0.0
H2505 H 0.57539 0.31513 0.06561 0.0
H2506 H 0.61688 0.36532 0.09023 0.0
H2507 H 0.59251 0.39165 0.08706 0.0
C2508 C 0.55891 0.44115 0.00924 0.0
C2509 C 0.55612 0.46259 0.01574 0.0
C2510 C 0.5569 0.42606 0.0231 0.0
C2511 C 0.5518 0.43211 0.0437 0.0
C2512 C 0.55036 0.45381 0.05051 0.0
C2513 C 0.55251 0.46894 0.03662 0.0
C2514 C 0.54632 0.41551 0.05739 0.0
C2515 C 0.5599 0.40066 0.06062 0.0
C2516 C 0.52741 0.41369 0.06648 0.0
C2517 C 0.51197 0.42806 0.06276 0.0
C2518 C 0.50348 0.44042 0.07935 0.0
C2519 C 0.48903 0.45411 0.07586 0.0
C2520 C 0.48289 0.45548 0.05586 0.0
C2521 C 0.49111 0.44308 0.0393 0.0
C2522 C 0.50555 0.42936 0.0427 0.0
C2523 C 0.53713 0.34607 0.12387 0.0
C2524 C 0.52095 0.33154 0.11862 0.0
C2525 C 0.54183 0.36286 0.11232 0.0
C2526 C 0.53053 0.36552 0.09518 0.0
C2527 C 0.51396 0.35148 0.09033 0.0
C2528 C 0.50927 0.33462 0.10186 0.0
C2529 C 0.53631 0.38253 0.08202 0.0
C2530 C 0.52273 0.39739 0.07878 0.0
C2531 C 0.55512 0.38414 0.07266 0.0
C2532 C 0.56981 0.36836 0.07451 0.0
C2533 C 0.56519 0.34664 0.06836 0.0
C2534 C 0.57906 0.33183 0.07029 0.0
C2535 C 0.59766 0.33856 0.0782 0.0
C2536 C 0.60245 0.36013 0.08414 0.0
C2537 C 0.58862 0.375 0.08227 0.0
H2538 H 0.60838 0.32707 0.07967 0.0
H2539 H 0.47171 0.4661 0.05319 0.0
H2540 H 0.64655 0.19375 0.30606 0.0
H2541 H 0.62081 0.201 0.28246 0.0
H2542 H 0.66457 0.23225 0.2464 0.0
H2543 H 0.69031 0.22464 0.26996 0.0
H2544 H 0.63082 0.25592 0.2575 0.0
H2545 H 0.64636 0.1865 0.2269 0.0
H2546 H 0.65174 0.14857 0.22684 0.0
H2547 H 0.59226 0.13681 0.24684 0.0
H2548 H 0.58662 0.17476 0.24734 0.0
H2549 H 0.56683 0.26981 0.17639 0.0
H2550 H 0.59413 0.26133 0.19695 0.0
H2551 H 0.55549 0.21712 0.22588 0.0
H2552 H 0.52831 0.22491 0.20476 0.0
H2553 H 0.588 0.19994 0.21745 0.0
H2554 H 0.57211 0.26817 0.25028 0.0
H2555 H 0.56587 0.3061 0.25249 0.0
H2556 H 0.62444 0.32029 0.23102 0.0
H2557 H 0.63094 0.28238 0.22843 0.0
C2558 C 0.65057 0.20191 0.29291 0.0
C2559 C 0.67025 0.20856 0.2896 0.0
C2560 C 0.63596 0.20605 0.27949 0.0
C2561 C 0.6408 0.21711 0.26265 0.0
C2562 C 0.66054 0.22367 0.25928 0.0
C2563 C 0.67519 0.21925 0.27258 0.0
C2564 C 0.62513 0.22233 0.24899 0.0
C2565 C 0.62163 0.24373 0.24846 0.0
C2566 C 0.61281 0.20637 0.23774 0.0
C2567 C 0.61613 0.18352 0.23734 0.0
C2568 C 0.63448 0.17587 0.23146 0.0
C2569 C 0.63756 0.15436 0.23131 0.0
C2570 C 0.62236 0.1403 0.23688 0.0
C2571 C 0.60403 0.14772 0.24256 0.0
C2572 C 0.60087 0.16923 0.24275 0.0
C2573 C 0.5641 0.25839 0.18723 0.0
C2574 C 0.54533 0.24813 0.18898 0.0
C2575 C 0.57974 0.25358 0.19905 0.0
C2576 C 0.57689 0.23878 0.21325 0.0
C2577 C 0.55813 0.22858 0.21505 0.0
C2578 C 0.54256 0.23312 0.203 0.0
C2579 C 0.59346 0.23364 0.22598 0.0
C2580 C 0.59717 0.21222 0.22639 0.0
C2581 C 0.6058 0.24959 0.23738 0.0
C2582 C 0.60194 0.2724 0.23896 0.0
C2583 C 0.58361 0.27935 0.24589 0.0
C2584 C 0.58004 0.30086 0.24723 0.0
C2585 C 0.59473 0.31559 0.24185 0.0
C2586 C 0.61306 0.30885 0.23516 0.0
C2587 C 0.6167 0.28736 0.23376 0.0
H2588 H 0.59194 0.33223 0.2429 0.0
H2589 H 0.62478 0.12365 0.23675 0.0
H2590 H 0.46594 0.1027 0.98872 0.0
H2591 H 0.47883 0.13608 0.00729 0.0
H2592 H 0.53472 0.10935 0.01327 0.0
H2593 H 0.52087 0.07514 0.99619 0.0
H2594 H 0.52639 0.12535 0.04759 0.0
H2595 H 0.52683 0.15554 0.98608 0.0
H2596 H 0.51561 0.16409 0.95268 0.0
H2597 H 0.46767 0.19614 0.9824 0.0
H2598 H 0.4784 0.18752 0.01596 0.0
H2599 H 0.54718 0.22817 0.1109 0.0
H2600 H 0.54941 0.19936 0.08298 0.0
H2601 H 0.48683 0.19774 0.07411 0.0
H2602 H 0.48503 0.22839 0.1005 0.0
H2603 H 0.50807 0.19757 0.03833 0.0
H2604 H 0.50868 0.13235 0.08804 0.0
H2605 H 0.52382 0.1206 0.11834 0.0
H2606 H 0.57759 0.15623 0.10643 0.0
H2607 H 0.56288 0.16749 0.07572 0.0
C2608 C 0.48111 0.10417 0.99364 0.0
C2609 C 0.4923 0.08633 0.99141 0.0
C2610 C 0.48863 0.1234 1.00408 0.0
C2611 C 0.50789 0.12555 0.01181 0.0
C2612 C 0.51976 0.1082 0.0077 0.0
C2613 C 0.51198 0.08871 0.99769 0.0
C2614 C 0.51435 0.14456 0.02658 0.0
C2615 C 0.52278 0.14122 0.04524 0.0
C2616 C 0.50997 0.16548 0.02373 0.0
C2617 C 0.50341 0.1708 1.00358 0.0
C2618 C 0.51382 0.1643 0.9855 0.0
C2619 C 0.50755 0.16917 0.96653 0.0
C2620 C 0.49093 0.18063 0.96542 0.0
C2621 C 0.48056 0.18728 0.98328 0.0
C2622 C 0.48675 0.18244 1.0023 0.0
C2623 C 0.53384 0.22136 0.10324 0.0
C2624 C 0.51572 0.22981 0.10864 0.0
C2625 C 0.53508 0.20448 0.08751 0.0
C2626 C 0.51816 0.19528 0.07709 0.0
C2627 C 0.50008 0.20405 0.08225 0.0
C2628 C 0.49895 0.22137 0.09756 0.0
C2629 C 0.51921 0.17803 0.05949 0.0
C2630 C 0.51208 0.18175 0.04032 0.0
C2631 C 0.52561 0.15764 0.06152 0.0
C2632 C 0.53418 0.15212 0.08059 0.0
C2633 C 0.52356 0.1381 0.09225 0.0
C2634 C 0.53216 0.13123 0.10928 0.0
C2635 C 0.55153 0.13805 0.1146 0.0
C2636 C 0.56244 0.15138 0.10262 0.0
C2637 C 0.55392 0.15808 0.08545 0.0
H2638 H 0.55816 0.13277 0.12781 0.0
H2639 H 0.4861 0.18438 0.95071 0.0
H2640 H 0.23935 0.31534 0.71568 0.0
H2641 H 0.26686 0.34228 0.71666 0.0
H2642 H 0.2259 0.39149 0.7228 0.0
H2643 H 0.19851 0.3644 0.72023 0.0
H2644 H 0.25593 0.40528 0.70358 0.0
H2645 H 0.24665 0.37254 0.7652 0.0
H2646 H 0.24364 0.34295 0.78631 0.0
H2647 H 0.30229 0.32696 0.76939 0.0
H2648 H 0.30548 0.35622 0.74786 0.0
H2649 H 0.33122 0.46095 0.78745 0.0
H2650 H 0.30491 0.43436 0.7761 0.0
H2651 H 0.31966 0.44132 0.71287 0.0
H2652 H 0.34482 0.46945 0.72454 0.0
H2653 H 0.30285 0.39883 0.75914 0.0
H2654 H 0.28283 0.4246 0.68032 0.0
H2655 H 0.28139 0.45744 0.66405 0.0
H2656 H 0.27482 0.49332 0.72329 0.0
H2657 H 0.27598 0.46067 0.73988 0.0
C2658 C 0.23628 0.33184 0.7163 0.0
C2659 C 0.21687 0.33785 0.71789 0.0
C2660 C 0.25199 0.3473 0.71722 0.0
C2661 C 0.24853 0.36903 0.72039 0.0
C2662 C 0.22906 0.37492 0.72047 0.0
C2663 C 0.2134 0.35946 0.71913 0.0
C2664 C 0.26487 0.38553 0.72573 0.0
C2665 C 0.26638 0.40378 0.71556 0.0
C2666 C 0.27812 0.38404 0.74185 0.0
C2667 C 0.27624 0.36643 0.75477 0.0
C2668 C 0.25885 0.36262 0.76588 0.0
C2669 C 0.25711 0.34591 0.77792 0.0
C2670 C 0.27275 0.33305 0.77916 0.0
C2671 C 0.29017 0.33691 0.76839 0.0
C2672 C 0.29196 0.35355 0.75626 0.0
C2673 C 0.32867 0.45686 0.77114 0.0
C2674 C 0.34016 0.4669 0.75682 0.0
C2675 C 0.31366 0.44158 0.7646 0.0
C2676 C 0.30999 0.43569 0.74353 0.0
C2677 C 0.32163 0.44582 0.7292 0.0
C2678 C 0.33619 0.46173 0.73582 0.0
C2679 C 0.29431 0.41869 0.73682 0.0
C2680 C 0.29283 0.4003 0.74681 0.0
C2681 C 0.28058 0.42053 0.72117 0.0
C2682 C 0.27973 0.44023 0.71133 0.0
C2683 C 0.28102 0.43949 0.68986 0.0
C2684 C 0.28027 0.45807 0.68059 0.0
C2685 C 0.27809 0.47747 0.69264 0.0
C2686 C 0.27659 0.47831 0.71398 0.0
C2687 C 0.27731 0.45977 0.72333 0.0
H2688 H 0.27753 0.49183 0.68543 0.0
H2689 H 0.27138 0.32013 0.7885 0.0
H2690 H 0.20866 0.64805 0.82365 0.0
H2691 H 0.2354 0.62448 0.82628 0.0
H2692 H 0.27793 0.67732 0.82279 0.0
H2693 H 0.25108 0.70081 0.82033 0.0
H2694 H 0.28404 0.64167 0.79404 0.0
H2695 H 0.2729 0.65768 0.8663 0.0
H2696 H 0.25284 0.661 0.89793 0.0
H2697 H 0.23677 0.59412 0.88886 0.0
H2698 H 0.25639 0.59043 0.85693 0.0
H2699 H 0.36549 0.58119 0.80098 0.0
H2700 H 0.3427 0.60902 0.80951 0.0
H2701 H 0.29787 0.56206 0.82434 0.0
H2702 H 0.32087 0.53427 0.81659 0.0
H2703 H 0.29428 0.59692 0.84933 0.0
H2704 H 0.3009 0.58089 0.77622 0.0
H2705 H 0.31858 0.57621 0.74311 0.0
H2706 H 0.34066 0.6415 0.75229 0.0
H2707 H 0.3233 0.64649 0.78559 0.0
C2708 C 0.22374 0.65458 0.82388 0.0
C2709 C 0.22795 0.67614 0.82194 0.0
C2710 C 0.23897 0.6412 0.8254 0.0
C2711 C 0.25867 0.64916 0.82479 0.0
C2712 C 0.26285 0.67087 0.82336 0.0
C2713 C 0.24758 0.68428 0.82211 0.0
C2714 C 0.27482 0.63451 0.82405 0.0
C2715 C 0.28655 0.6322 0.80631 0.0
C2716 C 0.27766 0.62166 0.83978 0.0
C2717 C 0.266 0.62381 0.8591 0.0
C2718 C 0.26496 0.6437 0.87094 0.0
C2719 C 0.25369 0.64565 0.88894 0.0
C2720 C 0.24353 0.62779 0.89538 0.0
C2721 C 0.24464 0.60794 0.88384 0.0
C2722 C 0.25584 0.60591 0.8658 0.0
C2723 C 0.35088 0.57683 0.8064 0.0
C2724 C 0.34495 0.55549 0.80794 0.0
C2725 C 0.3378 0.59276 0.81116 0.0
C2726 C 0.31834 0.58764 0.81708 0.0
C2727 C 0.31274 0.56647 0.81972 0.0
C2728 C 0.32592 0.55056 0.81526 0.0
C2729 C 0.30353 0.60403 0.81924 0.0
C2730 C 0.29196 0.60659 0.83717 0.0
C2731 C 0.30058 0.61693 0.80353 0.0
C2732 C 0.31099 0.61399 0.78349 0.0
C2733 C 0.30964 0.59421 0.77124 0.0
C2734 C 0.31959 0.59151 0.75243 0.0
C2735 C 0.33079 0.60853 0.74563 0.0
C2736 C 0.33201 0.62831 0.7576 0.0
C2737 C 0.32212 0.63109 0.77643 0.0
H2738 H 0.33847 0.60641 0.73106 0.0
H2739 H 0.23482 0.62934 0.90932 0.0
H2740 H 0.92811 0.53391 0.47073 0.0
H2741 H 0.89728 0.51441 0.47909 0.0
H2742 H 0.92651 0.48973 0.52816 0.0
H2743 H 0.95739 0.50921 0.51947 0.0
H2744 H 0.90192 0.45924 0.5066 0.0
H2745 H 0.8979 0.53004 0.53915 0.0
H2746 H 0.89988 0.56906 0.54113 0.0
H2747 H 0.8534 0.56558 0.4971 0.0
H2748 H 0.85138 0.52649 0.49455 0.0
H2749 H 0.80951 0.42061 0.54492 0.0
H2750 H 0.84097 0.44186 0.54512 0.0
H2751 H 0.82227 0.47065 0.49308 0.0
H2752 H 0.79101 0.44963 0.49278 0.0
H2753 H 0.84252 0.49955 0.52118 0.0
H2754 H 0.84951 0.42915 0.48567 0.0
H2755 H 0.84757 0.39006 0.483 0.0
H2756 H 0.88847 0.39303 0.53265 0.0
H2757 H 0.89039 0.43218 0.53583 0.0
C2758 C 0.92784 0.5241 0.48312 0.0
C2759 C 0.94486 0.52286 0.49448 0.0
C2760 C 0.91031 0.5131 0.48799 0.0
C2761 C 0.90951 0.50083 0.50446 0.0
C2762 C 0.92677 0.49912 0.51544 0.0
C2763 C 0.94432 0.51016 0.51053 0.0
C2764 C 0.89054 0.49024 0.51036 0.0
C2765 C 0.88902 0.4681 0.51018 0.0
C2766 C 0.87364 0.50176 0.51484 0.0
C2767 C 0.87459 0.5253 0.51656 0.0
C2768 C 0.88818 0.53758 0.52979 0.0
C2769 C 0.88931 0.55972 0.53102 0.0
C2770 C 0.87679 0.56979 0.51923 0.0
C2771 C 0.86309 0.55775 0.50622 0.0
C2772 C 0.86194 0.53559 0.50488 0.0
C2773 C 0.81196 0.43181 0.53382 0.0
C2774 C 0.79782 0.43332 0.51874 0.0
C2775 C 0.82998 0.44384 0.53387 0.0
C2776 C 0.83405 0.45766 0.51895 0.0
C2777 C 0.81948 0.46008 0.50471 0.0
C2778 C 0.80163 0.44797 0.50452 0.0
C2779 C 0.85384 0.46855 0.51704 0.0
C2780 C 0.8555 0.49075 0.51795 0.0
C2781 C 0.87086 0.45709 0.51322 0.0
C2782 C 0.86991 0.43358 0.51115 0.0
C2783 C 0.85797 0.42146 0.49612 0.0
C2784 C 0.85689 0.3993 0.4945 0.0
C2785 C 0.86785 0.38907 0.50769 0.0
C2786 C 0.87996 0.40098 0.52247 0.0
C2787 C 0.88105 0.42316 0.52419 0.0
H2788 H 0.867 0.37191 0.50641 0.0
H2789 H 0.87769 0.58694 0.5202 0.0
H2790 H 0.80262 0.88266 0.84619 0.0
H2791 H 0.7787 0.90894 0.8417 0.0
H2792 H 0.74778 0.86351 0.797 0.0
H2793 H 0.77234 0.83784 0.80093 0.0
H2794 H 0.75018 0.89908 0.78309 0.0
H2795 H 0.73095 0.87838 0.84881 0.0
H2796 H 0.73578 0.87228 0.88476 0.0
H2797 H 0.75286 0.93839 0.90085 0.0
H2798 H 0.7484 0.94483 0.86492 0.0
H2799 H 0.66357 0.95204 0.77673 0.0
H2800 H 0.68603 0.92646 0.78593 0.0
H2801 H 0.72032 0.97676 0.82203 0.0
H2802 H 0.69776 1.00253 0.81297 0.0
H2803 H 0.71639 0.93979 0.84093 0.0
H2804 H 0.73518 0.95973 0.77453 0.0
H2805 H 0.72951 0.96515 0.73854 0.0
H2806 H 0.71198 0.89895 0.72394 0.0
H2807 H 0.71729 0.8932 0.75993 0.0
C2808 C 0.79059 0.87843 0.83555 0.0
C2809 C 0.78911 0.85838 0.82394 0.0
C2810 C 0.77686 0.89333 0.83304 0.0
C2811 C 0.76114 0.88821 0.8192 0.0
C2812 C 0.75969 0.86796 0.80776 0.0
C2813 C 0.7736 0.85326 0.81003 0.0
C2814 C 0.74661 0.90406 0.81599 0.0
C2815 C 0.74261 0.90769 0.79579 0.0
C2816 C 0.73698 0.91585 0.83249 0.0
C2817 C 0.73952 0.91204 0.85413 0.0
C2818 C 0.73586 0.89159 0.85999 0.0
C2819 C 0.73852 0.88807 0.88036 0.0
C2820 C 0.74467 0.90493 0.89507 0.0
C2821 C 0.74812 0.92534 0.88944 0.0
C2822 C 0.74552 0.92894 0.86907 0.0
C2823 C 0.67573 0.95767 0.78684 0.0
C2824 C 0.67892 0.97939 0.794 0.0
C2825 C 0.68862 0.94301 0.79203 0.0
C2826 C 0.70506 0.94971 0.80441 0.0
C2827 C 0.70778 0.97122 0.8124 0.0
C2828 C 0.69488 0.98594 0.80718 0.0
C2829 C 0.71988 0.93443 0.8081 0.0
C2830 C 0.72397 0.93104 0.82832 0.0
C2831 C 0.72948 0.92268 0.79164 0.0
C2832 C 0.72647 0.92608 0.76996 0.0
C2833 C 0.72999 0.94636 0.76368 0.0
C2834 C 0.72686 0.94949 0.74327 0.0
C2835 C 0.72035 0.93241 0.72898 0.0
C2836 C 0.71701 0.91217 0.73504 0.0
C2837 C 0.72009 0.90896 0.75543 0.0
H2838 H 0.71792 0.93487 0.71319 0.0
H2839 H 0.74672 0.90218 0.91084 0.0
H2840 H 0.59645 0.47426 0.994 0.0
H2841 H 0.62987 0.49053 1.00076 0.0
H2842 H 0.60551 0.54873 0.02684 0.0
H2843 H 0.57231 0.53227 0.02025 0.0
H2844 H 0.64525 0.52237 0.98279 0.0
H2845 H 0.63762 0.57846 0.05924 0.0
H2846 H 0.62129 0.57769 0.09292 0.0
H2847 H 0.62015 0.50963 0.08547 0.0
H2848 H 0.63674 0.50998 0.05189 0.0
H2849 H 0.70959 0.62348 0.03686 0.0
H2850 H 0.68101 0.59832 0.03524 0.0
H2851 H 0.71107 0.55713 0.98947 0.0
H2852 H 0.73698 0.58478 0.9878 0.0
H2853 H 0.67134 0.56661 0.04509 0.0
H2854 H 0.69232 0.51512 0.9782 0.0
H2855 H 0.7066 0.51164 0.94323 0.0
H2856 H 0.67789 0.56632 0.93007 0.0
H2857 H 0.66364 0.57017 0.96524 0.0
C2858 C 0.59835 0.49022 1.00193 0.0
C2859 C 0.58193 0.50202 0.00676 0.0
C2860 C 0.6174 0.49961 0.00559 0.0
C2861 C 0.62033 0.52092 0.01433 0.0
C2862 C 0.60378 0.53222 0.02037 0.0
C2863 C 0.5848 0.52284 0.01664 0.0
C2864 C 0.64033 0.53219 0.01485 0.0
C2865 C 0.65102 0.53203 0.99647 0.0
C2866 C 0.64807 0.54463 0.03262 0.0
C2867 C 0.63831 0.54426 0.05295 0.0
C2868 C 0.63399 0.56333 0.06483 0.0
C2869 C 0.62466 0.56297 0.0839 0.0
C2870 C 0.61964 0.54362 0.09131 0.0
C2871 C 0.62399 0.5246 0.07968 0.0
C2872 C 0.63333 0.52488 0.06061 0.0
C2873 C 0.70932 0.60958 0.02555 0.0
C2874 C 0.72479 0.60679 0.01147 0.0
C2875 C 0.69317 0.59464 0.02498 0.0
C2876 C 0.69283 0.57533 0.01167 0.0
C2877 C 0.70933 0.57205 0.9987 0.0
C2878 C 0.72467 0.58783 0.9981 0.0
C2879 C 0.67562 0.5589 0.01232 0.0
C2880 C 0.66553 0.55757 0.03115 0.0
C2881 C 0.66839 0.54498 0.99492 0.0
C2882 C 0.67772 0.54357 0.97445 0.0
C2883 C 0.68936 0.5266 0.96791 0.0
C2884 C 0.69742 0.52455 0.94813 0.0
C2885 C 0.69347 0.53906 0.9346 0.0
C2886 C 0.68135 0.55552 0.9408 0.0
C2887 C 0.67345 0.55777 0.96068 0.0
H2888 H 0.69958 0.53737 0.91922 0.0
H2889 H 0.61241 0.54338 0.10607 0.0
H2890 H 0.29457 0.70187 0.26055 0.0
H2891 H 0.27138 0.67193 0.2664 0.0
H2892 H 0.29589 0.63417 0.21432 0.0
H2893 H 0.31863 0.66441 0.20836 0.0
H2894 H 0.2581 0.63358 0.21014 0.0
H2895 H 0.29967 0.62214 0.26572 0.0
H2896 H 0.31838 0.631 0.29777 0.0
H2897 H 0.26592 0.6496 0.33002 0.0
H2898 H 0.2469 0.64095 0.29803 0.0
H2899 H 0.18872 0.54578 0.22097 0.0
H2900 H 0.21774 0.56949 0.21653 0.0
H2901 H 0.20652 0.60447 0.2758 0.0
H2902 H 0.18021 0.57822 0.28157 0.0
H2903 H 0.2406 0.60399 0.27486 0.0
H2904 H 0.20028 0.6223 0.21822 0.0
H2905 H 0.18133 0.61428 0.18586 0.0
H2906 H 0.23052 0.5847 0.15616 0.0
H2907 H 0.24964 0.59261 0.1882 0.0
C2908 C 0.29546 0.68684 0.25098 0.0
C2909 C 0.30845 0.68522 0.2342 0.0
C2910 C 0.28216 0.66975 0.2542 0.0
C2911 C 0.2818 0.65066 0.24079 0.0
C2912 C 0.29578 0.64867 0.22485 0.0
C2913 C 0.30893 0.6658 0.22158 0.0
C2914 C 0.26563 0.63375 0.24194 0.0
C2915 C 0.25438 0.62695 0.22429 0.0
C2916 C 0.26039 0.62532 0.26037 0.0
C2917 C 0.27192 0.63104 0.27946 0.0
C2918 C 0.29217 0.62832 0.2796 0.0
C2919 C 0.30282 0.63327 0.29779 0.0
C2920 C 0.29335 0.64091 0.31596 0.0
C2921 C 0.27323 0.64368 0.31594 0.0
C2922 C 0.26251 0.63872 0.2978 0.0
C2923 C 0.19243 0.55872 0.23291 0.0
C2924 C 0.18131 0.56104 0.25112 0.0
C2925 C 0.20892 0.5726 0.23023 0.0
C2926 C 0.21425 0.58967 0.2454 0.0
C2927 C 0.20299 0.59176 0.2636 0.0
C2928 C 0.18733 0.57716 0.2667 0.0
C2929 C 0.23213 0.60452 0.24331 0.0
C2930 C 0.24398 0.61076 0.26073 0.0
C2931 C 0.23771 0.6127 0.22472 0.0
C2932 C 0.22615 0.60772 0.20562 0.0
C2933 C 0.20686 0.61389 0.2048 0.0
C2934 C 0.19616 0.60943 0.18655 0.0
C2935 C 0.20465 0.59884 0.16907 0.0
C2936 C 0.22392 0.59282 0.16973 0.0
C2937 C 0.23471 0.59734 0.1879 0.0
H2938 H 0.19633 0.59539 0.15498 0.0
H2939 H 0.30152 0.64461 0.3301 0.0
H2940 H 0.9216 0.47982 0.04028 0.0
H2941 H 0.89536 0.50136 0.03089 0.0
H2942 H 0.93262 0.55825 0.04742 0.0
H2943 H 0.95912 0.53661 0.05606 0.0
H2944 H 0.89348 0.55974 0.06364 0.0
H2945 H 0.92663 0.54204 0.99905 0.0
H2946 H 0.94007 0.51738 0.97126 0.0
H2947 H 0.88257 0.48677 0.95962 0.0
H2948 H 0.86883 0.51103 0.98759 0.0
H2949 H 0.83661 0.63418 0.02612 0.0
H2950 H 0.86362 0.61249 0.03209 0.0
H2951 H 0.8311 0.55705 1.00189 0.0
H2952 H 0.80433 0.57904 0.99503 0.0
H2953 H 0.86768 0.55389 0.99265 0.0
H2954 H 0.83391 0.56921 0.05629 0.0
H2955 H 0.81915 0.59143 0.08511 0.0
H2956 H 0.87553 0.62348 0.09992 0.0
H2957 H 0.89059 0.60163 0.071 0.0
C2958 C 0.92421 0.4969 0.04167 0.0
C2959 C 0.9424 0.50656 0.0488 0.0
C2960 C 0.90922 0.5092 0.03639 0.0
C2961 C 0.91205 0.53143 0.03835 0.0
C2962 C 0.93009 0.54114 0.04581 0.0
C2963 C 0.94518 0.52881 0.0508 0.0
C2964 C 0.89616 0.54457 0.0327 0.0
C2965 C 0.88801 0.5587 0.04807 0.0
C2966 C 0.88854 0.54266 0.01253 0.0
C2967 C 0.89674 0.52822 0.99556 0.0
C2968 C 0.91688 0.52994 0.99068 0.0
C2969 C 0.92454 0.51605 0.97488 0.0
C2970 C 0.91219 0.50048 0.96372 0.0
C2971 C 0.89212 0.49881 0.9683 0.0
C2972 C 0.88439 0.51264 0.98412 0.0
C2973 C 0.83529 0.61741 0.02054 0.0
C2974 C 0.81826 0.60831 0.01021 0.0
C2975 C 0.85071 0.60494 0.02412 0.0
C2976 C 0.84929 0.58292 0.018 0.0
C2977 C 0.83259 0.57394 0.00693 0.0
C2978 C 0.81727 0.58653 1.00299 0.0
C2979 C 0.86498 0.56932 0.0236 0.0
C2980 C 0.87309 0.55502 0.00825 0.0
C2981 C 0.87233 0.57077 0.04392 0.0
C2982 C 0.86334 0.58392 0.06135 0.0
C2983 C 0.84314 0.5811 0.0656 0.0
C2984 C 0.83472 0.59361 0.08197 0.0
C2985 C 0.84638 0.6089 0.09431 0.0
C2986 C 0.8665 0.61165 0.09033 0.0
C2987 C 0.87499 0.5992 0.07397 0.0
H2988 H 0.83984 0.61857 0.10697 0.0
H2989 H 0.91815 0.48974 0.95149 0.0
H2990 H 0.06394 0.9998 0.03277 0.0
H2991 H 0.09369 0.98113 0.02356 0.0
H2992 H 0.1288 0.03309 0.05647 0.0
H2993 H 0.09876 0.0512 0.06625 0.0
H2994 H 0.12683 0.98438 1.00468 0.0
H2995 H 0.16503 0.0153 0.08181 0.0
H2996 H 0.1562 0.02894 0.11737 0.0
H2997 H 0.09987 0.99446 0.11046 0.0
H2998 H 0.10837 0.98063 0.07489 0.0
H2999 H 0.22202 0.94783 0.99899 0.0
H3000 H 0.19447 0.97027 1.00485 0.0
H3001 H 0.17318 0.93453 0.05337 0.0
H3002 H 0.20123 0.91233 0.04801 0.0
H3003 H 0.16769 0.97423 0.06429 0.0
H3004 H 0.15328 0.92651 1.00392 0.0
H3005 H 0.15952 0.90792 0.96946 0.0
H3006 H 0.16299 0.9673 0.94435 0.0
H3007 H 0.15714 0.98631 0.97874 0.0
C3008 C 0.07814 0.00749 0.03729 0.0
C3009 C 0.07922 0.02696 0.04995 0.0
C3010 C 0.09513 0.99679 0.03221 0.0
C3011 C 0.11356 1.0054 0.03971 0.0
C3012 C 0.11477 0.02582 0.05087 0.0
C3013 C 0.0977 0.03637 0.05616 0.0
C3014 C 0.13104 0.99231 0.03727 0.0
C3015 C 0.13582 0.98231 0.01771 0.0
C3016 C 0.14251 0.98889 0.0543 0.0
C3017 C 0.13727 0.99712 0.07565 0.0
C3018 C 0.15077 0.01064 0.0879 0.0
C3019 C 0.1458 0.01843 0.10803 0.0
C3020 C 0.12744 0.01267 0.11612 0.0
C3021 C 0.11403 0.99904 0.10412 0.0
C3022 C 0.11889 0.99126 0.08397 0.0
C3023 C 0.21156 0.94475 0.01102 0.0
C3024 C 0.21382 0.92811 0.02294 0.0
C3025 C 0.19571 0.95759 0.01428 0.0
C3026 C 0.1814 0.95389 0.02925 0.0
C3027 C 0.18393 0.93772 0.04165 0.0
C3028 C 0.19999 0.925 0.03857 0.0
C3029 C 0.1637 0.96663 0.03165 0.0
C3030 C 0.15883 0.97648 0.05122 0.0
C3031 C 0.15173 0.96926 0.01473 0.0
C3032 C 0.15495 0.95786 0.99395 0.0
C3033 C 0.1555 0.93563 0.99107 0.0
C3034 C 0.15896 0.92501 0.97155 0.0
C3035 C 0.16169 0.93643 0.95473 0.0
C3036 C 0.1609 0.95848 0.9574 0.0
C3037 C 0.15751 0.96919 0.9769 0.0
H3038 H 0.16437 0.92818 0.93963 0.0
H3039 H 0.12363 0.0187 0.13171 0.0
loop_
_geom_bond_atom_site_label_1
_geom_bond_atom_site_label_2
_geom_bond_distance
_geom_bond_site_symmetry_2
_ccdc_geom_bond_type
C0 N1 1.317 . S
C0 N2 1.348 . S
C0 C3 1.485 1_545 S
N1 C0 1.317 . S
N1 N5 1.370 . S
N2 C0 1.348 . S
N2 C4 1.346 . S
C3 C0 1.485 1_565 S
C3 H7 0.960 . S
C3 H8 0.961 . S
C3 H9 0.960 . S
C4 N2 1.346 . S
C4 N5 1.307 . S
C4 C6 1.486 1_455 S
N5 N1 1.370 . S
N5 C4 1.307 . S
C6 C4 1.486 1_655 S
C6 H10 0.960 . S
C6 H11 0.960 . S
C6 H12 0.959 . S
H7 C3 0.960 . S
H8 C3 0.961 . S
H9 C3 0.960 . S
H10 C6 0.960 . S
H11 C6 0.960 . S
H12 C6 0.959 . S
C13 N14 1.317 . S
C13 N15 1.348 . S
C13 C16 1.485 . S
N14 C13 1.317 . S
N14 N18 1.370 . S
N15 C13 1.348 . S
N15 C17 1.346 . S
C16 C13 1.485 . S
C16 H20 0.960 . S
C16 H21 0.961 . S
C16 H22 0.960 . S
C17 N15 1.346 . S
C17 N18 1.307 . S
C17 C19 1.486 . S
N18 N14 1.370 . S
N18 C17 1.307 . S
C19 C17 1.486 . S
C19 H23 0.960 . S
C19 H24 0.960 . S
C19 H25 0.959 . S
H20 C16 0.960 . S
H21 C16 0.961 . S
H22 C16 0.960 . S
H23 C19 0.960 . S
H24 C19 0.960 . S
H25 C19 0.959 . S
C26 N27 1.317 . S
C26 N28 1.348 . S
C26 C29 1.485 . S
N27 C26 1.317 . S
N27 N31 1.370 . S
N28 C26 1.348 . S
N28 C30 1.346 . S
C29 C26 1.485 . S
C29 H33 0.960 . S
C29 H34 0.961 . S
C29 H35 0.960 . S
C30 N28 1.346 . S
C30 N31 1.307 . S
C30 C32 1.486 . S
N31 N27 1.370 . S
N31 C30 1.307 . S
C32 C30 1.486 . S
C32 H36 0.960 . S
C32 H37 0.960 . S
C32 H38 0.959 . S
H33 C29 0.960 . S
H34 C29 0.961 . S
H35 C29 0.960 . S
H36 C32 0.960 . S
H37 C32 0.960 . S
H38 C32 0.959 . S
C39 N40 1.317 . S
C39 N41 1.348 . S
C39 C42 1.485 . S
N40 C39 1.317 . S
N40 N44 1.370 . S
N41 C39 1.348 . S
N41 C43 1.346 . S
C42 C39 1.485 . S
C42 H46 0.960 . S
C42 H47 0.961 . S
C42 H48 0.960 . S
C43 N41 1.346 . S
C43 N44 1.307 . S
C43 C45 1.486 . S
N44 N40 1.370 . S
N44 C43 1.307 . S
C45 C43 1.486 . S
C45 H49 0.960 . S
C45 H50 0.960 . S
C45 H51 0.959 . S
H46 C42 0.960 . S
H47 C42 0.961 . S
H48 C42 0.960 . S
H49 C45 0.960 . S
H50 C45 0.960 . S
H51 C45 0.959 . S
C52 N53 1.317 . S
C52 N54 1.348 . S
C52 C55 1.485 . S
N53 C52 1.317 . S
N53 N57 1.370 . S
N54 C52 1.348 . S
N54 C56 1.358 . S
C55 C52 1.485 . S
C55 H59 0.960 . S
C55 H60 0.961 1_455 S
C55 H61 0.960 . S
C56 N54 1.358 . S
C56 N57 1.319 . S
C56 C58 1.465 1_565 S
N57 N53 1.370 . S
N57 C56 1.319 . S
C58 C56 1.465 1_545 S
C58 H62 0.960 . S
C58 H63 0.960 . S
C58 H64 0.959 . S
H59 C55 0.960 . S
H60 C55 0.961 1_655 S
H61 C55 0.960 . S
H62 C58 0.960 . S
H63 C58 0.960 . S
H64 C58 0.959 . S
C65 N66 1.317 . S
C65 N67 1.348 . S
C65 C68 1.485 . S
N66 C65 1.317 . S
N66 N70 1.370 . S
N67 C65 1.348 . S
N67 C69 1.346 . S
C68 C65 1.485 . S
C68 H72 0.960 . S
C68 H73 0.961 . S
C68 H74 0.960 . S
C69 N67 1.346 . S
C69 N70 1.307 . S
C69 C71 1.486 . S
N70 N66 1.370 . S
N70 C69 1.307 . S
C71 C69 1.486 . S
C71 H75 0.960 . S
C71 H76 0.960 . S
C71 H77 0.959 . S
H72 C68 0.960 . S
H73 C68 0.961 . S
H74 C68 0.960 . S
H75 C71 0.960 . S
H76 C71 0.960 . S
H77 C71 0.959 . S
C78 N79 1.317 . S
C78 N80 1.348 . S
C78 C81 1.485 . S
N79 C78 1.317 . S
N79 N83 1.370 . S
N80 C78 1.348 . S
N80 C82 1.346 . S
C81 C78 1.485 . S
C81 H85 0.960 . S
C81 H86 0.961 . S
C81 H87 0.960 . S
C82 N80 1.346 . S
C82 N83 1.307 . S
C82 C84 1.486 . S
N83 N79 1.370 . S
N83 C82 1.307 . S
C84 C82 1.486 . S
C84 H88 0.960 . S
C84 H89 0.960 . S
C84 H90 0.959 . S
H85 C81 0.960 . S
H86 C81 0.961 . S
H87 C81 0.960 . S
H88 C84 0.960 . S
H89 C84 0.960 . S
H90 C84 0.959 . S
C91 N92 1.317 . S
C91 N93 1.348 . S
C91 C94 1.485 . S
N92 C91 1.317 . S
N92 N96 1.370 . S
N93 C91 1.348 . S
N93 C95 1.346 . S
C94 C91 1.485 . S
C94 H98 0.960 . S
C94 H99 0.961 . S
C94 H100 0.960 . S
C95 N93 1.346 . S
C95 N96 1.307 . S
C95 C97 1.486 . S
N96 N92 1.370 . S
N96 C95 1.307 . S
C97 C95 1.486 . S
C97 H101 0.960 . S
C97 H102 0.960 . S
C97 H103 0.959 . S
H98 C94 0.960 . S
H99 C94 0.961 . S
H100 C94 0.960 . S
H101 C97 0.960 . S
H102 C97 0.960 . S
H103 C97 0.959 . S
C104 N105 1.317 . S
C104 N106 1.348 . S
C104 C107 1.485 . S
N105 C104 1.317 . S
N105 N109 1.370 . S
N106 C104 1.348 . S
N106 C108 1.346 . S
C107 C104 1.485 . S
C107 H111 0.960 . S
C107 H112 0.961 . S
C107 H113 0.960 . S
C108 N106 1.346 . S
C108 N109 1.307 . S
C108 C110 1.486 . S
N109 N105 1.370 . S
N109 C108 1.307 . S
C110 C108 1.486 . S
C110 H114 0.960 . S
C110 H115 0.960 . S
C110 H116 0.959 . S
H111 C107 0.960 . S
H112 C107 0.961 . S
H113 C107 0.960 . S
H114 C110 0.960 . S
H115 C110 0.960 . S
H116 C110 0.959 . S
C117 N118 1.317 . S
C117 N119 1.348 . S
C117 C120 1.485 1_565 S
N118 C117 1.317 . S
N118 N122 1.370 . S
N119 C117 1.348 . S
N119 C121 1.346 . S
C120 C117 1.485 1_545 S
C120 H124 0.960 . S
C120 H125 0.961 . S
C120 H126 0.960 . S
C121 N119 1.346 . S
C121 N122 1.307 . S
C121 C123 1.486 . S
N122 N118 1.370 . S
N122 C121 1.307 . S
C123 C121 1.486 . S
C123 H127 0.960 . S
C123 H128 0.960 . S
C123 H129 0.959 . S
H124 C120 0.960 . S
H125 C120 0.961 . S
H126 C120 0.960 . S
H127 C123 0.960 . S
H128 C123 0.960 . S
H129 C123 0.959 . S
C130 N131 1.317 . S
C130 N132 1.348 . S
C130 C133 1.485 . S
N131 C130 1.317 . S
N131 N135 1.370 . S
N132 C130 1.348 . S
N132 C134 1.346 . S
C133 C130 1.485 . S
C133 H137 0.960 . S
C133 H138 0.961 . S
C133 H139 0.960 . S
C134 N132 1.346 . S
C134 N135 1.307 . S
C134 C136 1.486 . S
N135 N131 1.370 . S
N135 C134 1.307 . S
C136 C134 1.486 . S
C136 H140 0.960 . S
C136 H141 0.960 . S
C136 H142 0.959 . S
H137 C133 0.960 . S
H138 C133 0.961 . S
H139 C133 0.960 . S
H140 C136 0.960 . S
H141 C136 0.960 . S
H142 C136 0.959 . S
C143 N144 1.317 . S
C143 N145 1.348 . S
C143 C146 1.485 . S
N144 C143 1.317 . S
N144 N148 1.370 . S
N145 C143 1.348 . S
N145 C147 1.346 . S
C146 C143 1.485 . S
C146 H150 0.960 . S
C146 H151 0.961 . S
C146 H152 0.960 . S
C147 N145 1.346 . S
C147 N148 1.307 . S
C147 C149 1.486 . S
N148 N144 1.370 . S
N148 C147 1.307 . S
C149 C147 1.486 . S
C149 H153 0.960 . S
C149 H154 0.960 . S
C149 H155 0.959 . S
H150 C146 0.960 . S
H151 C146 0.961 . S
H152 C146 0.960 . S
H153 C149 0.960 . S
H154 C149 0.960 . S
H155 C149 0.959 . S
C156 N157 1.317 . S
C156 N158 1.348 . S
C156 C159 1.485 . S
N157 C156 1.317 . S
N157 N161 1.370 . S
N158 C156 1.348 . S
N158 C160 1.346 . S
C159 C156 1.485 . S
C159 H163 0.960 . S
C159 H164 0.961 . S
C159 H165 0.960 . S
C160 N158 1.346 . S
C160 N161 1.307 . S
C160 C162 1.486 . S
N161 N157 1.370 . S
N161 C160 1.307 . S
C162 C160 1.486 . S
C162 H166 0.960 . S
C162 H167 0.960 . S
C162 H168 0.959 . S
H163 C159 0.960 . S
H164 C159 0.961 . S
H165 C159 0.960 . S
H166 C162 0.960 . S
H167 C162 0.960 . S
H168 C162 0.959 . S
C169 N170 1.317 . S
C169 N171 1.348 . S
C169 C172 1.485 . S
N170 C169 1.317 . S
N170 N174 1.370 . S
N171 C169 1.348 . S
N171 C173 1.346 . S
C172 C169 1.485 . S
C172 H176 0.960 . S
C172 H177 0.961 . S
C172 H178 0.960 . S
C173 N171 1.346 . S
C173 N174 1.307 . S
C173 C175 1.486 . S
N174 N170 1.370 . S
N174 C173 1.307 . S
C175 C173 1.486 . S
C175 H179 0.960 . S
C175 H180 0.960 . S
C175 H181 0.959 . S
H176 C172 0.960 . S
H177 C172 0.961 . S
H178 C172 0.960 . S
H179 C175 0.960 . S
H180 C175 0.960 . S
H181 C175 0.959 . S
C182 N183 1.317 . S
C182 N184 1.348 . S
C182 C185 1.485 . S
N183 C182 1.317 . S
N183 N187 1.370 . S
N184 C182 1.348 . S
N184 C186 1.346 . S
C185 C182 1.485 . S
C185 H189 0.960 . S
C185 H190 0.961 . S
C185 H191 0.960 . S
C186 N184 1.346 . S
C186 N187 1.307 . S
C186 C188 1.486 . S
N187 N183 1.370 . S
N187 C186 1.307 . S
C188 C186 1.486 . S
C188 H192 0.960 . S
C188 H193 0.960 . S
C188 H194 0.959 . S
H189 C185 0.960 . S
H190 C185 0.961 . S
H191 C185 0.960 . S
H192 C188 0.960 . S
H193 C188 0.960 . S
H194 C188 0.959 . S
C195 N196 1.317 . S
C195 N197 1.348 . S
C195 C198 1.485 . S
N196 C195 1.317 . S
N196 N200 1.370 . S
N197 C195 1.348 . S
N197 C199 1.346 . S
C198 C195 1.485 . S
C198 H202 0.960 . S
C198 H203 0.961 1_545 S
C198 H204 0.960 . S
C199 N197 1.346 . S
C199 N200 1.307 . S
C199 C201 1.486 1_556 S
N200 N196 1.370 . S
N200 C199 1.307 . S
C201 C199 1.486 1_554 S
C201 H205 0.960 . S
C201 H206 0.960 . S
C201 H207 0.959 . S
H202 C198 0.960 . S
H203 C198 0.961 1_565 S
H204 C198 0.960 . S
H205 C201 0.960 . S
H206 C201 0.960 . S
H207 C201 0.959 . S
Mn208 O213 2.095 . S
Mn208 O223 2.162 . S
Mn208 O224 2.297 . S
Mn208 O232 2.385 . S
Mn208 O233 2.209 1_554 S
Mn208 O234 2.094 . S
Mn209 O214 2.121 . S
Mn209 N216 2.257 . S
Mn209 N225 2.282 . S
Mn209 O233 2.215 . S
Mn209 O235 2.117 1_556 S
C210 O232 1.234 1_556 S
C210 O233 1.283 . S
C211 O223 1.281 . S
C211 O224 1.236 . S
C212 O234 1.240 . S
C212 O235 1.264 . S
O213 Mn208 2.095 . S
O213 C222 1.250 . S
O214 Mn209 2.121 . S
O214 C222 1.258 1_556 S
C215 N216 1.326 . S
C215 C219 1.460 . S
C215 H221 0.929 . S
N216 Mn209 2.257 . S
N216 C215 1.326 . S
N216 C220 1.362 . S
C217 C218 1.258 . S
C217 C220 1.431 . S
C217 C237 1.449 . S
C218 C217 1.258 . S
C218 C219 1.477 . S
C218 H238 0.931 . S
C219 C215 1.460 . S
C219 C218 1.477 . S
C219 H239 0.930 . S
C220 N216 1.362 . S
C220 C217 1.431 . S
C220 C230 1.476 . S
H221 C215 0.929 . S
C222 O213 1.250 . S
C222 O214 1.258 1_554 S
O223 Mn208 2.162 . S
O223 C211 1.281 . S
O224 Mn208 2.297 . S
O224 C211 1.236 . S
N225 Mn209 2.282 . S
N225 C226 1.328 . S
N225 C230 1.318 . S
C226 N225 1.328 . S
C226 C227 1.457 . S
C226 H231 0.929 . S
C227 C226 1.457 . S
C227 C228 1.291 . S
C227 H240 0.931 . S
C228 C227 1.291 . S
C228 C229 1.373 . S
C228 H241 0.929 . S
C229 C228 1.373 . S
C229 C230 1.396 . S
C229 C236 1.403 . S
C230 C220 1.476 . S
C230 N225 1.318 . S
C230 C229 1.396 . S
H231 C226 0.929 . S
O232 Mn208 2.385 . S
O232 C210 1.234 1_554 S
O233 Mn208 2.209 1_556 S
O233 Mn209 2.215 . S
O233 C210 1.283 . S
O234 Mn208 2.094 . S
O234 C212 1.240 . S
O235 Mn209 2.117 1_554 S
O235 C212 1.264 . S
C236 C229 1.403 . S
C236 C237 1.399 . S
C236 H242 0.929 . S
C237 C217 1.449 . S
C237 C236 1.399 . S
C237 H243 0.930 . S
H238 C218 0.931 . S
H239 C219 0.930 . S
H240 C227 0.931 . S
H241 C228 0.929 . S
H242 C236 0.929 . S
H243 C237 0.930 . S
Mn244 O249 2.095 . S
Mn244 O259 2.162 . S
Mn244 O260 2.297 . S
Mn244 O268 2.385 . S
Mn244 O269 2.209 . S
Mn244 O270 2.094 . S
Mn245 O250 2.121 . S
Mn245 N252 2.257 . S
Mn245 N261 2.282 . S
Mn245 O269 2.215 . S
Mn245 O271 2.117 . S
C246 O268 1.234 . S
C246 O269 1.283 . S
C247 O259 1.281 . S
C247 O260 1.236 . S
C248 O270 1.240 . S
C248 O271 1.264 . S
O249 Mn244 2.095 . S
O249 C258 1.250 . S
O250 Mn245 2.121 . S
O250 C258 1.258 . S
C251 N252 1.326 . S
C251 C255 1.460 . S
C251 H257 0.929 . S
N252 Mn245 2.257 . S
N252 C251 1.326 . S
N252 C256 1.362 . S
C253 C254 1.258 . S
C253 C256 1.431 . S
C253 C273 1.449 . S
C254 C253 1.258 . S
C254 C255 1.477 . S
C254 H274 0.931 . S
C255 C251 1.460 . S
C255 C254 1.477 . S
C255 H275 0.930 . S
C256 N252 1.362 . S
C256 C253 1.431 . S
C256 C266 1.476 . S
H257 C251 0.929 . S
C258 O249 1.250 . S
C258 O250 1.258 . S
O259 Mn244 2.162 . S
O259 C247 1.281 . S
O260 Mn244 2.297 . S
O260 C247 1.236 . S
N261 Mn245 2.282 . S
N261 C262 1.328 . S
N261 C266 1.318 . S
C262 N261 1.328 . S
C262 C263 1.457 . S
C262 H267 0.929 . S
C263 C262 1.457 . S
C263 C264 1.291 . S
C263 H276 0.931 . S
C264 C263 1.291 . S
C264 C265 1.373 . S
C264 H277 0.929 . S
C265 C264 1.373 . S
C265 C266 1.396 . S
C265 C272 1.403 . S
C266 C256 1.476 . S
C266 N261 1.318 . S
C266 C265 1.396 . S
H267 C262 0.929 . S
O268 Mn244 2.385 . S
O268 C246 1.234 . S
O269 Mn244 2.209 . S
O269 Mn245 2.215 . S
O269 C246 1.283 . S
O270 Mn244 2.094 . S
O270 C248 1.240 . S
O271 Mn245 2.117 . S
O271 C248 1.264 . S
C272 C265 1.403 . S
C272 C273 1.399 . S
C272 H278 0.929 . S
C273 C253 1.449 . S
C273 C272 1.399 . S
C273 H279 0.930 . S
H274 C254 0.931 . S
H275 C255 0.930 . S
H276 C263 0.931 . S
H277 C264 0.929 . S
H278 C272 0.929 . S
H279 C273 0.930 . S
Mn280 O285 2.099 . S
Mn280 O295 2.162 . S
Mn280 O296 2.297 1_554 S
Mn280 O304 2.385 . S
Mn280 O305 2.209 1_554 S
Mn280 O306 2.094 . S
Mn281 O286 2.121 . S
Mn281 N288 2.257 . S
Mn281 N297 2.282 1_556 S
Mn281 O305 2.215 . S
Mn281 O307 2.117 1_556 S
C282 O304 1.234 . S
C282 O305 1.283 1_554 S
C283 O295 1.281 . S
C283 O296 1.236 1_554 S
C284 O306 1.240 . S
C284 O307 1.264 . S
O285 Mn280 2.099 . S
O285 C294 1.245 1_554 S
O286 Mn281 2.121 . S
O286 C294 1.258 . S
C287 N288 1.326 . S
C287 C291 1.460 . S
C287 H293 0.929 . S
N288 Mn281 2.257 . S
N288 C287 1.326 . S
N288 C292 1.362 . S
C289 C290 1.258 . S
C289 C292 1.431 . S
C289 C309 1.449 . S
C290 C289 1.258 . S
C290 C291 1.477 . S
C290 H310 0.931 . S
C291 C287 1.460 . S
C291 C290 1.477 . S
C291 H311 0.930 . S
C292 N288 1.362 . S
C292 C289 1.431 . S
C292 C302 1.476 . S
H293 C287 0.929 . S
C294 O285 1.245 1_556 S
C294 O286 1.258 . S
O295 Mn280 2.162 . S
O295 C283 1.281 . S
O296 Mn280 2.297 1_556 S
O296 C283 1.236 1_556 S
N297 Mn281 2.282 1_554 S
N297 C298 1.328 . S
N297 C302 1.318 1_554 S
C298 N297 1.328 . S
C298 C299 1.457 . S
C298 H303 0.929 . S
C299 C298 1.457 . S
C299 C300 1.291 . S
C299 H312 0.931 . S
C300 C299 1.291 . S
C300 C301 1.373 1_554 S
C300 H313 0.929 . S
C301 C300 1.373 1_556 S
C301 C302 1.396 . S
C301 C308 1.403 . S
C302 C292 1.476 . S
C302 N297 1.318 1_556 S
C302 C301 1.396 . S
H303 C298 0.929 . S
O304 Mn280 2.385 . S
O304 C282 1.234 . S
O305 Mn280 2.209 1_556 S
O305 Mn281 2.215 . S
O305 C282 1.283 1_556 S
O306 Mn280 2.094 . S
O306 C284 1.240 . S
O307 Mn281 2.117 1_554 S
O307 C284 1.264 . S
C308 C301 1.403 . S
C308 C309 1.399 . S
C308 H314 0.929 . S
C309 C289 1.449 . S
C309 C308 1.399 . S
C309 H315 0.930 . S
H310 C290 0.931 . S
H311 C291 0.930 . S
H312 C299 0.931 . S
H313 C300 0.929 . S
H314 C308 0.929 . S
H315 C309 0.930 . S
Mn316 O321 2.095 . S
Mn316 O331 2.162 . S
Mn316 O332 2.297 . S
Mn316 O340 2.385 1_545 S
Mn316 O341 2.209 1_545 S
Mn316 O342 2.094 . S
Mn317 O322 2.121 . S
Mn317 N324 2.257 . S
Mn317 N333 2.282 . S
Mn317 O341 2.215 . S
Mn317 O343 2.117 . S
C318 O340 1.234 . S
C318 O341 1.283 . S
C319 O331 1.281 . S
C319 O332 1.236 . S
C320 O342 1.240 . S
C320 O343 1.264 1_545 S
O321 Mn316 2.095 . S
O321 C330 1.250 . S
O322 Mn317 2.121 . S
O322 C330 1.258 1_565 S
C323 N324 1.326 . S
C323 C327 1.460 . S
C323 H329 0.929 . S
N324 Mn317 2.257 . S
N324 C323 1.326 . S
N324 C328 1.362 . S
C325 C326 1.258 . S
C325 C328 1.431 . S
C325 C345 1.449 . S
C326 C325 1.258 . S
C326 C327 1.477 . S
C326 H346 0.931 . S
C327 C323 1.460 . S
C327 C326 1.477 . S
C327 H347 0.930 . S
C328 N324 1.362 . S
C328 C325 1.431 . S
C328 C338 1.476 . S
H329 C323 0.929 . S
C330 O321 1.250 . S
C330 O322 1.258 1_545 S
O331 Mn316 2.162 . S
O331 C319 1.281 . S
O332 Mn316 2.297 . S
O332 C319 1.236 . S
N333 Mn317 2.282 . S
N333 C334 1.328 . S
N333 C338 1.318 . S
C334 N333 1.328 . S
C334 C335 1.457 . S
C334 H339 0.929 . S
C335 C334 1.457 . S
C335 C336 1.291 . S
C335 H348 0.931 . S
C336 C335 1.291 . S
C336 C337 1.373 . S
C336 H349 0.929 . S
C337 C336 1.373 . S
C337 C338 1.396 . S
C337 C344 1.403 . S
C338 C328 1.476 . S
C338 N333 1.318 . S
C338 C337 1.396 . S
H339 C334 0.929 . S
O340 Mn316 2.385 1_565 S
O340 C318 1.234 . S
O341 Mn316 2.209 1_565 S
O341 Mn317 2.215 . S
O341 C318 1.283 . S
O342 Mn316 2.094 . S
O342 C320 1.240 . S
O343 Mn317 2.117 . S
O343 C320 1.264 1_565 S
C344 C337 1.403 . S
C344 C345 1.399 . S
C344 H350 0.929 . S
C345 C325 1.449 . S
C345 C344 1.399 . S
C345 H351 0.930 . S
H346 C326 0.931 . S
H347 C327 0.930 . S
H348 C335 0.931 . S
H349 C336 0.929 . S
H350 C344 0.929 . S
H351 C345 0.930 . S
Mn352 O357 2.095 . S
Mn352 O367 2.162 . S
Mn352 O368 2.297 . S
Mn352 O376 2.385 . S
Mn352 O377 2.209 . S
Mn352 O378 2.094 . S
Mn353 O358 2.121 . S
Mn353 N360 2.257 . S
Mn353 N369 2.282 . S
Mn353 O377 2.215 . S
Mn353 O379 2.117 . S
C354 O376 1.234 . S
C354 O377 1.283 . S
C355 O367 1.281 . S
C355 O368 1.236 . S
C356 O378 1.240 . S
C356 O379 1.264 . S
O357 Mn352 2.095 . S
O357 C366 1.250 . S
O358 Mn353 2.121 . S
O358 C366 1.258 . S
C359 N360 1.326 . S
C359 C363 1.460 . S
C359 H365 0.929 . S
N360 Mn353 2.257 . S
N360 C359 1.326 . S
N360 C364 1.362 . S
C361 C362 1.258 . S
C361 C364 1.431 . S
C361 C381 1.449 . S
C362 C361 1.258 . S
C362 C363 1.477 . S
C362 H382 0.931 . S
C363 C359 1.460 . S
C363 C362 1.477 . S
C363 H383 0.930 . S
C364 N360 1.362 . S
C364 C361 1.431 . S
C364 C374 1.476 . S
H365 C359 0.929 . S
C366 O357 1.250 . S
C366 O358 1.258 . S
O367 Mn352 2.162 . S
O367 C355 1.281 . S
O368 Mn352 2.297 . S
O368 C355 1.236 . S
N369 Mn353 2.282 . S
N369 C370 1.328 . S
N369 C374 1.318 . S
C370 N369 1.328 . S
C370 C371 1.457 . S
C370 H375 0.929 . S
C371 C370 1.457 . S
C371 C372 1.291 . S
C371 H384 0.931 . S
C372 C371 1.291 . S
C372 C373 1.373 . S
C372 H385 0.929 . S
C373 C372 1.373 . S
C373 C374 1.396 . S
C373 C380 1.403 . S
C374 C364 1.476 . S
C374 N369 1.318 . S
C374 C373 1.396 . S
H375 C370 0.929 . S
O376 Mn352 2.385 . S
O376 C354 1.234 . S
O377 Mn352 2.209 . S
O377 Mn353 2.215 . S
O377 C354 1.283 . S
O378 Mn352 2.094 . S
O378 C356 1.240 . S
O379 Mn353 2.117 . S
O379 C356 1.264 . S
C380 C373 1.403 . S
C380 C381 1.399 . S
C380 H386 0.929 . S
C381 C361 1.449 . S
C381 C380 1.399 . S
C381 H387 0.930 . S
H382 C362 0.931 . S
H383 C363 0.930 . S
H384 C371 0.931 . S
H385 C372 0.929 . S
H386 C380 0.929 . S
H387 C381 0.930 . S
Mn388 O393 2.095 . S
Mn388 O403 2.162 . S
Mn388 O404 2.297 . S
Mn388 O412 2.385 . S
Mn388 O413 2.209 . S
Mn388 O414 2.094 . S
Mn389 O394 2.121 . S
Mn389 N396 2.257 . S
Mn389 N405 2.282 . S
Mn389 O413 2.215 . S
Mn389 O415 2.117 . S
C390 O412 1.234 . S
C390 O413 1.283 . S
C391 O403 1.281 . S
C391 O404 1.236 . S
C392 O414 1.240 . S
C392 O415 1.264 . S
O393 Mn388 2.095 . S
O393 C402 1.250 . S
O394 Mn389 2.121 . S
O394 C402 1.258 . S
C395 N396 1.326 . S
C395 C399 1.460 . S
C395 H401 0.929 . S
N396 Mn389 2.257 . S
N396 C395 1.326 . S
N396 C400 1.362 . S
C397 C398 1.258 . S
C397 C400 1.431 . S
C397 C417 1.449 . S
C398 C397 1.258 . S
C398 C399 1.477 . S
C398 H418 0.931 . S
C399 C395 1.460 . S
C399 C398 1.477 . S
C399 H419 0.930 . S
C400 N396 1.362 . S
C400 C397 1.431 . S
C400 C410 1.476 . S
H401 C395 0.929 . S
C402 O393 1.250 . S
C402 O394 1.258 . S
O403 Mn388 2.162 . S
O403 C391 1.281 . S
O404 Mn388 2.297 . S
O404 C391 1.236 . S
N405 Mn389 2.282 . S
N405 C406 1.328 . S
N405 C410 1.318 . S
C406 N405 1.328 . S
C406 C407 1.457 . S
C406 H411 0.929 . S
C407 C406 1.457 . S
C407 C408 1.291 . S
C407 H420 0.931 . S
C408 C407 1.291 . S
C408 C409 1.373 . S
C408 H421 0.929 . S
C409 C408 1.373 . S
C409 C410 1.396 . S
C409 C416 1.403 . S
C410 C400 1.476 . S
C410 N405 1.318 . S
C410 C409 1.396 . S
H411 C406 0.929 . S
O412 Mn388 2.385 . S
O412 C390 1.234 . S
O413 Mn388 2.209 . S
O413 Mn389 2.215 . S
O413 C390 1.283 . S
O414 Mn388 2.094 . S
O414 C392 1.240 . S
O415 Mn389 2.117 . S
O415 C392 1.264 . S
C416 C409 1.403 . S
C416 C417 1.399 . S
C416 H422 0.929 . S
C417 C397 1.449 . S
C417 C416 1.399 . S
C417 H423 0.930 . S
H418 C398 0.931 . S
H419 C399 0.930 . S
H420 C407 0.931 . S
H421 C408 0.929 . S
H422 C416 0.929 . S
H423 C417 0.930 . S
Mn424 O429 2.095 . S
Mn424 O439 2.162 . S
Mn424 O440 2.297 . S
Mn424 O448 2.385 . S
Mn424 O449 2.209 . S
Mn424 O450 2.094 . S
Mn425 O430 2.121 . S
Mn425 N432 2.257 . S
Mn425 N441 2.282 . S
Mn425 O449 2.215 . S
Mn425 O451 2.117 . S
C426 O448 1.234 . S
C426 O449 1.283 . S
C427 O439 1.281 . S
C427 O440 1.236 . S
C428 O450 1.240 . S
C428 O451 1.264 . S
O429 Mn424 2.095 . S
O429 C438 1.250 . S
O430 Mn425 2.121 . S
O430 C438 1.258 . S
C431 N432 1.326 . S
C431 C435 1.460 . S
C431 H437 0.929 . S
N432 Mn425 2.257 . S
N432 C431 1.326 . S
N432 C436 1.362 . S
C433 C434 1.258 . S
C433 C436 1.431 . S
C433 C453 1.449 . S
C434 C433 1.258 . S
C434 C435 1.477 . S
C434 H454 0.931 . S
C435 C431 1.460 . S
C435 C434 1.477 . S
C435 H455 0.930 . S
C436 N432 1.362 . S
C436 C433 1.431 . S
C436 C446 1.476 . S
H437 C431 0.929 . S
C438 O429 1.250 . S
C438 O430 1.258 . S
O439 Mn424 2.162 . S
O439 C427 1.281 . S
O440 Mn424 2.297 . S
O440 C427 1.236 . S
N441 Mn425 2.282 . S
N441 C442 1.328 . S
N441 C446 1.318 . S
C442 N441 1.328 . S
C442 C443 1.457 . S
C442 H447 0.929 . S
C443 C442 1.457 . S
C443 C444 1.291 . S
C443 H456 0.931 . S
C444 C443 1.291 . S
C444 C445 1.373 . S
C444 H457 0.929 . S
C445 C444 1.373 . S
C445 C446 1.396 . S
C445 C452 1.403 . S
C446 C436 1.476 . S
C446 N441 1.318 . S
C446 C445 1.396 . S
H447 C442 0.929 . S
O448 Mn424 2.385 . S
O448 C426 1.234 . S
O449 Mn424 2.209 . S
O449 Mn425 2.215 . S
O449 C426 1.283 . S
O450 Mn424 2.094 . S
O450 C428 1.240 . S
O451 Mn425 2.117 . S
O451 C428 1.264 . S
C452 C445 1.403 . S
C452 C453 1.399 . S
C452 H458 0.929 . S
C453 C433 1.449 . S
C453 C452 1.399 . S
C453 H459 0.930 . S
H454 C434 0.931 . S
H455 C435 0.930 . S
H456 C443 0.931 . S
H457 C444 0.929 . S
H458 C452 0.929 . S
H459 C453 0.930 . S
Mn460 O465 2.095 . S
Mn460 O475 2.162 1_545 S
Mn460 O476 2.297 . S
Mn460 O484 2.385 . S
Mn460 O485 2.209 . S
Mn460 O486 2.093 . S
Mn461 O466 2.121 . S
Mn461 N468 2.257 . S
Mn461 N477 2.282 . S
Mn461 O485 2.215 . S
Mn461 O487 2.117 . S
C462 O484 1.234 . S
C462 O485 1.283 . S
C463 O475 1.281 . S
C463 O476 1.236 1_565 S
C464 O486 1.237 . S
C464 O487 1.264 . S
O465 Mn460 2.095 . S
O465 C474 1.250 . S
O466 Mn461 2.121 . S
O466 C474 1.258 . S
C467 N468 1.326 . S
C467 C471 1.460 . S
C467 H473 0.929 . S
N468 Mn461 2.257 . S
N468 C467 1.326 . S
N468 C472 1.362 . S
C469 C470 1.258 . S
C469 C472 1.431 . S
C469 C489 1.449 . S
C470 C469 1.258 . S
C470 C471 1.477 . S
C470 H490 0.931 . S
C471 C467 1.460 . S
C471 C470 1.477 . S
C471 H491 0.930 . S
C472 N468 1.362 . S
C472 C469 1.431 . S
C472 C482 1.476 . S
H473 C467 0.929 . S
C474 O465 1.250 . S
C474 O466 1.258 . S
O475 Mn460 2.162 1_565 S
O475 C463 1.281 . S
O476 Mn460 2.297 . S
O476 C463 1.236 1_545 S
N477 Mn461 2.282 . S
N477 C478 1.328 . S
N477 C482 1.318 . S
C478 N477 1.328 . S
C478 C479 1.457 . S
C478 H483 0.929 . S
C479 C478 1.457 . S
C479 C480 1.291 . S
C479 H492 0.931 . S
C480 C479 1.291 . S
C480 C481 1.373 . S
C480 H493 0.929 . S
C481 C480 1.373 . S
C481 C482 1.396 . S
C481 C488 1.403 . S
C482 C472 1.476 . S
C482 N477 1.318 . S
C482 C481 1.396 . S
H483 C478 0.929 . S
O484 Mn460 2.385 . S
O484 C462 1.234 . S
O485 Mn460 2.209 . S
O485 Mn461 2.215 . S
O485 C462 1.283 . S
O486 Mn460 2.093 . S
O486 C464 1.237 . S
O487 Mn461 2.117 . S
O487 C464 1.264 . S
C488 C481 1.403 . S
C488 C489 1.399 . S
C488 H494 0.929 . S
C489 C469 1.449 . S
C489 C488 1.399 . S
C489 H495 0.930 . S
H490 C470 0.931 . S
H491 C471 0.930 . S
H492 C479 0.931 . S
H493 C480 0.929 . S
H494 C488 0.929 . S
H495 C489 0.930 . S
Mn496 O501 2.095 . S
Mn496 O511 2.162 . S
Mn496 O512 2.297 . S
Mn496 O520 2.391 . S
Mn496 O521 2.209 1_455 S
Mn496 O522 2.094 . S
Mn497 O502 2.121 . S
Mn497 N504 2.257 . S
Mn497 N513 2.282 . S
Mn497 O521 2.215 . S
Mn497 O523 2.117 . S
C498 O520 1.223 1_655 S
C498 O521 1.283 . S
C499 O511 1.281 . S
C499 O512 1.236 . S
C500 O522 1.240 . S
C500 O523 1.264 1_455 S
O501 Mn496 2.095 . S
O501 C510 1.250 . S
O502 Mn497 2.121 . S
O502 C510 1.258 1_655 S
C503 N504 1.326 . S
C503 C507 1.460 . S
C503 H509 0.929 . S
N504 Mn497 2.257 . S
N504 C503 1.326 . S
N504 C508 1.362 . S
C505 C506 1.258 . S
C505 C508 1.431 . S
C505 C525 1.449 . S
C506 C505 1.258 . S
C506 C507 1.477 . S
C506 H526 0.931 . S
C507 C503 1.460 . S
C507 C506 1.477 . S
C507 H527 0.930 . S
C508 N504 1.362 . S
C508 C505 1.431 . S
C508 C518 1.476 . S
H509 C503 0.929 . S
C510 O501 1.250 . S
C510 O502 1.258 1_455 S
O511 Mn496 2.162 . S
O511 C499 1.281 . S
O512 Mn496 2.297 . S
O512 C499 1.236 . S
N513 Mn497 2.282 . S
N513 C514 1.328 . S
N513 C518 1.318 . S
C514 N513 1.328 . S
C514 C515 1.457 . S
C514 H519 0.929 . S
C515 C514 1.457 . S
C515 C516 1.291 . S
C515 H528 0.931 . S
C516 C515 1.291 . S
C516 C517 1.373 . S
C516 H529 0.929 . S
C517 C516 1.373 . S
C517 C518 1.396 . S
C517 C524 1.403 . S
C518 C508 1.476 . S
C518 N513 1.318 . S
C518 C517 1.396 . S
H519 C514 0.929 . S
O520 Mn496 2.391 . S
O520 C498 1.223 1_455 S
O521 Mn496 2.209 1_655 S
O521 Mn497 2.215 . S
O521 C498 1.283 . S
O522 Mn496 2.094 . S
O522 C500 1.240 . S
O523 Mn497 2.117 . S
O523 C500 1.264 1_655 S
C524 C517 1.403 . S
C524 C525 1.399 . S
C524 H530 0.929 . S
C525 C505 1.449 . S
C525 C524 1.399 . S
C525 H531 0.930 . S
H526 C506 0.931 . S
H527 C507 0.930 . S
H528 C515 0.931 . S
H529 C516 0.929 . S
H530 C524 0.929 . S
H531 C525 0.930 . S
Mn532 O537 2.095 . S
Mn532 O547 2.162 . S
Mn532 O548 2.297 . S
Mn532 O556 2.385 . S
Mn532 O557 2.209 . S
Mn532 O558 2.094 . S
Mn533 O538 2.121 . S
Mn533 N540 2.257 . S
Mn533 N549 2.282 . S
Mn533 O557 2.215 . S
Mn533 O559 2.117 . S
C534 O556 1.234 . S
C534 O557 1.283 . S
C535 O547 1.281 . S
C535 O548 1.236 . S
C536 O558 1.240 . S
C536 O559 1.264 . S
O537 Mn532 2.095 . S
O537 C546 1.250 . S
O538 Mn533 2.121 . S
O538 C546 1.258 . S
C539 N540 1.326 . S
C539 C543 1.460 . S
C539 H545 0.929 . S
N540 Mn533 2.257 . S
N540 C539 1.326 . S
N540 C544 1.362 . S
C541 C542 1.258 . S
C541 C544 1.431 . S
C541 C561 1.449 . S
C542 C541 1.258 . S
C542 C543 1.477 . S
C542 H562 0.931 . S
C543 C539 1.460 . S
C543 C542 1.477 . S
C543 H563 0.930 . S
C544 N540 1.362 . S
C544 C541 1.431 . S
C544 C554 1.476 . S
H545 C539 0.929 . S
C546 O537 1.250 . S
C546 O538 1.258 . S
O547 Mn532 2.162 . S
O547 C535 1.281 . S
O548 Mn532 2.297 . S
O548 C535 1.236 . S
N549 Mn533 2.282 . S
N549 C550 1.328 . S
N549 C554 1.318 . S
C550 N549 1.328 . S
C550 C551 1.457 . S
C550 H555 0.929 . S
C551 C550 1.457 . S
C551 C552 1.291 . S
C551 H564 0.931 . S
C552 C551 1.291 . S
C552 C553 1.373 . S
C552 H565 0.929 . S
C553 C552 1.373 . S
C553 C554 1.396 . S
C553 C560 1.403 . S
C554 C544 1.476 . S
C554 N549 1.318 . S
C554 C553 1.396 . S
H555 C550 0.929 . S
O556 Mn532 2.385 . S
O556 C534 1.234 . S
O557 Mn532 2.209 . S
O557 Mn533 2.215 . S
O557 C534 1.283 . S
O558 Mn532 2.094 . S
O558 C536 1.240 . S
O559 Mn533 2.117 . S
O559 C536 1.264 . S
C560 C553 1.403 . S
C560 C561 1.399 . S
C560 H566 0.929 . S
C561 C541 1.449 . S
C561 C560 1.399 . S
C561 H567 0.930 . S
H562 C542 0.931 . S
H563 C543 0.930 . S
H564 C551 0.931 . S
H565 C552 0.929 . S
H566 C560 0.929 . S
H567 C561 0.930 . S
Mn568 O573 2.095 . S
Mn568 O583 2.162 . S
Mn568 O584 2.297 . S
Mn568 O592 2.385 . S
Mn568 O593 2.209 . S
Mn568 O594 2.094 . S
Mn569 O574 2.121 1_455 S
Mn569 N576 2.257 1_455 S
Mn569 N585 2.282 . S
Mn569 O593 2.215 . S
Mn569 O595 2.117 . S
C570 O592 1.234 . S
C570 O593 1.283 . S
C571 O583 1.281 . S
C571 O584 1.236 . S
C572 O594 1.240 . S
C572 O595 1.264 . S
O573 Mn568 2.095 . S
O573 C582 1.250 1_455 S
O574 Mn569 2.121 1_655 S
O574 C582 1.258 . S
C575 N576 1.326 . S
C575 C579 1.460 . S
C575 H581 0.929 . S
N576 Mn569 2.257 1_655 S
N576 C575 1.326 . S
N576 C580 1.362 . S
C577 C578 1.258 . S
C577 C580 1.431 . S
C577 C597 1.449 . S
C578 C577 1.258 . S
C578 C579 1.477 . S
C578 H598 0.931 . S
C579 C575 1.460 . S
C579 C578 1.477 . S
C579 H599 0.930 . S
C580 N576 1.362 . S
C580 C577 1.431 . S
C580 C590 1.476 1_655 S
H581 C575 0.929 . S
C582 O573 1.250 1_655 S
C582 O574 1.258 . S
O583 Mn568 2.162 . S
O583 C571 1.281 . S
O584 Mn568 2.297 . S
O584 C571 1.236 . S
N585 Mn569 2.282 . S
N585 C586 1.328 . S
N585 C590 1.318 . S
C586 N585 1.328 . S
C586 C587 1.457 . S
C586 H591 0.929 . S
C587 C586 1.457 . S
C587 C588 1.291 . S
C587 H600 0.931 . S
C588 C587 1.291 . S
C588 C589 1.373 . S
C588 H601 0.929 . S
C589 C588 1.373 . S
C589 C590 1.396 . S
C589 C596 1.403 1_455 S
C590 C580 1.476 1_455 S
C590 N585 1.318 . S
C590 C589 1.396 . S
H591 C586 0.929 . S
O592 Mn568 2.385 . S
O592 C570 1.234 . S
O593 Mn568 2.209 . S
O593 Mn569 2.215 . S
O593 C570 1.283 . S
O594 Mn568 2.094 . S
O594 C572 1.240 . S
O595 Mn569 2.117 . S
O595 C572 1.264 . S
C596 C589 1.403 1_655 S
C596 C597 1.399 . S
C596 H602 0.929 . S
C597 C577 1.449 . S
C597 C596 1.399 . S
C597 H603 0.930 . S
H598 C578 0.931 . S
H599 C579 0.930 . S
H600 C587 0.931 . S
H601 C588 0.929 . S
H602 C596 0.929 . S
H603 C597 0.930 . S
Mn604 O609 2.095 . S
Mn604 O619 2.162 . S
Mn604 O620 2.297 . S
Mn604 O628 2.385 . S
Mn604 O629 2.209 . S
Mn604 O630 2.094 . S
Mn605 O610 2.121 . S
Mn605 N612 2.257 . S
Mn605 N621 2.282 . S
Mn605 O629 2.215 . S
Mn605 O631 2.117 . S
C606 O628 1.234 . S
C606 O629 1.283 . S
C607 O619 1.281 . S
C607 O620 1.236 . S
C608 O630 1.240 . S
C608 O631 1.264 . S
O609 Mn604 2.095 . S
O609 C618 1.250 . S
O610 Mn605 2.121 . S
O610 C618 1.258 . S
C611 N612 1.326 . S
C611 C615 1.460 . S
C611 H617 0.929 . S
N612 Mn605 2.257 . S
N612 C611 1.326 . S
N612 C616 1.362 . S
C613 C614 1.258 . S
C613 C616 1.431 . S
C613 C633 1.449 . S
C614 C613 1.258 . S
C614 C615 1.477 . S
C614 H634 0.931 . S
C615 C611 1.460 . S
C615 C614 1.477 . S
C615 H635 0.930 . S
C616 N612 1.362 . S
C616 C613 1.431 . S
C616 C626 1.476 . S
H617 C611 0.929 . S
C618 O609 1.250 . S
C618 O610 1.258 . S
O619 Mn604 2.162 . S
O619 C607 1.281 . S
O620 Mn604 2.297 . S
O620 C607 1.236 . S
N621 Mn605 2.282 . S
N621 C622 1.328 . S
N621 C626 1.318 . S
C622 N621 1.328 . S
C622 C623 1.457 . S
C622 H627 0.929 . S
C623 C622 1.457 . S
C623 C624 1.291 . S
C623 H636 0.931 . S
C624 C623 1.291 . S
C624 C625 1.373 . S
C624 H637 0.929 . S
C625 C624 1.373 . S
C625 C626 1.396 . S
C625 C632 1.403 . S
C626 C616 1.476 . S
C626 N621 1.318 . S
C626 C625 1.396 . S
H627 C622 0.929 . S
O628 Mn604 2.385 . S
O628 C606 1.234 . S
O629 Mn604 2.209 . S
O629 Mn605 2.215 . S
O629 C606 1.283 . S
O630 Mn604 2.094 . S
O630 C608 1.240 . S
O631 Mn605 2.117 . S
O631 C608 1.264 . S
C632 C625 1.403 . S
C632 C633 1.399 . S
C632 H638 0.929 . S
C633 C613 1.449 . S
C633 C632 1.399 . S
C633 H639 0.930 . S
H634 C614 0.931 . S
H635 C615 0.930 . S
H636 C623 0.931 . S
H637 C624 0.929 . S
H638 C632 0.929 . S
H639 C633 0.930 . S
H640 C658 0.951 . S
H641 C660 0.951 . S
H642 C662 0.950 . S
H643 C663 0.950 . S
H644 C665 0.950 . S
H645 C668 0.950 . S
H646 C669 0.950 . S
H647 C671 0.950 . S
H648 C672 0.950 . S
H649 C673 0.951 . S
H650 C675 0.951 . S
H651 C677 0.950 . S
H652 C678 0.950 . S
H653 C680 0.950 . S
H654 C683 0.950 . S
H655 C684 0.950 . S
H656 C686 0.950 . S
H657 C687 0.950 . S
C658 H640 0.951 . S
C658 C659 1.366 . S
C658 C660 1.388 . S
C659 C658 1.366 . S
C659 C663 1.385 . S
C660 H641 0.951 . S
C660 C658 1.388 . S
C660 C661 1.366 . S
C661 C660 1.366 . S
C661 C662 1.414 . S
C661 C664 1.499 . S
C662 H642 0.950 . S
C662 C661 1.414 . S
C662 C663 1.374 . S
C663 H643 0.950 . S
C663 C659 1.385 . S
C663 C662 1.374 . S
C664 C661 1.499 . S
C664 C665 1.373 . S
C664 C666 1.389 . S
C665 H644 0.950 . S
C665 C664 1.373 . S
C665 C681 1.377 . S
C666 C664 1.389 . S
C666 C667 1.524 . S
C666 C680 1.377 . S
C667 C666 1.524 . S
C667 C668 1.397 . S
C667 C672 1.363 . S
C668 H645 0.950 . S
C668 C667 1.397 . S
C668 C669 1.334 . S
C669 H646 0.950 . S
C669 C668 1.334 . S
C669 C670 1.287 . S
C670 C669 1.287 . S
C670 C671 1.524 . S
C670 H689 0.913 . S
C671 H647 0.950 . S
C671 C670 1.524 . S
C671 C672 1.415 . S
C672 H648 0.950 . S
C672 C667 1.363 . S
C672 C671 1.415 . S
C673 H649 0.951 . S
C673 C674 1.366 . S
C673 C675 1.388 . S
C674 C673 1.366 . S
C674 C678 1.385 . S
C675 H650 0.951 . S
C675 C673 1.388 . S
C675 C676 1.366 . S
C676 C675 1.366 . S
C676 C677 1.414 . S
C676 C679 1.499 . S
C677 H651 0.950 . S
C677 C676 1.414 . S
C677 C678 1.374 . S
C678 H652 0.950 . S
C678 C674 1.385 . S
C678 C677 1.374 . S
C679 C676 1.499 . S
C679 C680 1.373 . S
C679 C681 1.389 . S
C680 H653 0.950 . S
C680 C666 1.377 . S
C680 C679 1.373 . S
C681 C665 1.377 . S
C681 C679 1.389 . S
C681 C682 1.524 . S
C682 C681 1.524 . S
C682 C683 1.397 . S
C682 C687 1.363 . S
C683 H654 0.950 . S
C683 C682 1.397 . S
C683 C684 1.334 . S
C684 H655 0.950 . S
C684 C683 1.334 . S
C684 C685 1.287 . S
C685 C684 1.287 . S
C685 C686 1.524 . S
C685 H688 0.999 . S
C686 H656 0.950 . S
C686 C685 1.524 . S
C686 C687 1.415 . S
C687 H657 0.950 . S
C687 C682 1.363 . S
C687 C686 1.415 . S
H688 C685 0.999 . S
H689 C670 0.913 . S
H690 C708 0.951 . S
H691 C710 0.951 . S
H692 C712 0.967 . S
H693 C713 0.950 . S
H694 C715 0.950 . S
H695 C718 0.950 . S
H696 C719 0.950 . S
H697 C721 0.950 . S
H698 C722 0.950 . S
H699 C723 0.951 . S
H700 C725 0.951 . S
H701 C727 0.950 . S
H702 C728 0.950 . S
H703 C730 0.950 . S
H704 C733 0.950 . S
H705 C734 0.950 . S
H706 C736 0.950 . S
H707 C737 0.950 . S
C708 H690 0.951 . S
C708 C709 1.366 1_455 S
C708 C710 1.388 . S
C709 C708 1.366 1_655 S
C709 C713 1.385 . S
C710 H691 0.951 . S
C710 C708 1.388 . S
C710 C711 1.366 . S
C711 C710 1.366 . S
C711 C712 1.361 1_455 S
C711 C714 1.499 . S
C712 H692 0.967 . S
C712 C711 1.361 1_655 S
C712 C713 1.411 . S
C713 H693 0.950 . S
C713 C709 1.385 . S
C713 C712 1.411 . S
C714 C711 1.499 . S
C714 C715 1.373 . S
C714 C716 1.389 . S
C715 H694 0.950 . S
C715 C714 1.373 . S
C715 C731 1.377 . S
C716 C714 1.389 . S
C716 C717 1.524 . S
C716 C730 1.377 . S
C717 C716 1.524 . S
C717 C718 1.397 . S
C717 C722 1.363 . S
C718 H695 0.950 . S
C718 C717 1.397 . S
C718 C719 1.334 . S
C719 H696 0.950 . S
C719 C718 1.334 . S
C719 C720 1.287 . S
C720 C719 1.287 . S
C720 C721 1.524 . S
C720 H739 0.913 . S
C721 H697 0.950 . S
C721 C720 1.524 . S
C721 C722 1.415 . S
C722 H698 0.950 . S
C722 C717 1.363 . S
C722 C721 1.415 . S
C723 H699 0.951 . S
C723 C724 1.366 . S
C723 C725 1.388 . S
C724 C723 1.366 . S
C724 C728 1.385 . S
C725 H700 0.951 . S
C725 C723 1.388 . S
C725 C726 1.366 . S
C726 C725 1.366 . S
C726 C727 1.414 . S
C726 C729 1.499 . S
C727 H701 0.950 . S
C727 C726 1.414 . S
C727 C728 1.374 . S
C728 H702 0.950 . S
C728 C724 1.385 . S
C728 C727 1.374 . S
C729 C726 1.499 . S
C729 C730 1.373 . S
C729 C731 1.389 . S
C730 H703 0.950 . S
C730 C716 1.377 . S
C730 C729 1.373 . S
C731 C715 1.377 . S
C731 C729 1.389 . S
C731 C732 1.524 . S
C732 C731 1.524 . S
C732 C733 1.397 . S
C732 C737 1.363 . S
C733 H704 0.950 . S
C733 C732 1.397 . S
C733 C734 1.334 . S
C734 H705 0.950 . S
C734 C733 1.334 . S
C734 C735 1.287 . S
C735 C734 1.287 . S
C735 C736 1.524 . S
C735 H738 0.999 . S
C736 H706 0.950 . S
C736 C735 1.524 . S
C736 C737 1.415 . S
C737 H707 0.950 . S
C737 C732 1.363 . S
C737 C736 1.415 . S
H738 C735 0.999 . S
H739 C720 0.913 . S
H740 C758 0.951 . S
H741 C760 0.951 . S
H742 C762 0.950 . S
H743 C763 0.950 . S
H744 C765 0.950 . S
H745 C768 0.950 . S
H746 C769 0.950 . S
H747 C771 0.950 . S
H748 C772 0.950 . S
H749 C773 0.951 . S
H750 C775 0.951 . S
H751 C777 0.950 . S
H752 C778 0.950 . S
H753 C780 0.950 . S
H754 C783 0.950 . S
H755 C784 0.950 . S
H756 C786 0.950 . S
H757 C787 0.950 . S
C758 H740 0.951 . S
C758 C759 1.366 . S
C758 C760 1.388 . S
C759 C758 1.366 . S
C759 C763 1.385 . S
C760 H741 0.951 . S
C760 C758 1.388 . S
C760 C761 1.366 . S
C761 C760 1.366 . S
C761 C762 1.414 . S
C761 C764 1.499 . S
C762 H742 0.950 . S
C762 C761 1.414 . S
C762 C763 1.374 . S
C763 H743 0.950 . S
C763 C759 1.385 . S
C763 C762 1.374 . S
C764 C761 1.499 . S
C764 C765 1.373 . S
C764 C766 1.389 . S
C765 H744 0.950 . S
C765 C764 1.373 . S
C765 C781 1.377 . S
C766 C764 1.389 . S
C766 C767 1.524 . S
C766 C780 1.377 . S
C767 C766 1.524 . S
C767 C768 1.397 . S
C767 C772 1.363 . S
C768 H745 0.950 . S
C768 C767 1.397 . S
C768 C769 1.334 . S
C769 H746 0.950 . S
C769 C768 1.334 . S
C769 C770 1.287 . S
C770 C769 1.287 . S
C770 C771 1.524 . S
C770 H789 0.913 . S
C771 H747 0.950 . S
C771 C770 1.524 . S
C771 C772 1.415 . S
C772 H748 0.950 . S
C772 C767 1.363 . S
C772 C771 1.415 . S
C773 H749 0.951 . S
C773 C774 1.366 . S
C773 C775 1.388 . S
C774 C773 1.366 . S
C774 C778 1.385 . S
C775 H750 0.951 . S
C775 C773 1.388 . S
C775 C776 1.366 . S
C776 C775 1.366 . S
C776 C777 1.414 . S
C776 C779 1.499 . S
C777 H751 0.950 . S
C777 C776 1.414 . S
C777 C778 1.374 . S
C778 H752 0.950 . S
C778 C774 1.385 . S
C778 C777 1.374 . S
C779 C776 1.499 . S
C779 C780 1.373 . S
C779 C781 1.389 . S
C780 H753 0.950 . S
C780 C766 1.377 . S
C780 C779 1.373 . S
C781 C765 1.377 . S
C781 C779 1.389 . S
C781 C782 1.524 . S
C782 C781 1.524 . S
C782 C783 1.397 . S
C782 C787 1.363 . S
C783 H754 0.950 . S
C783 C782 1.397 . S
C783 C784 1.334 . S
C784 H755 0.950 . S
C784 C783 1.334 . S
C784 C785 1.287 . S
C785 C784 1.287 . S
C785 C786 1.524 . S
C785 H788 0.999 . S
C786 H756 0.950 . S
C786 C785 1.524 . S
C786 C787 1.415 . S
C787 H757 0.950 . S
C787 C782 1.363 . S
C787 C786 1.415 . S
H788 C785 0.999 . S
H789 C770 0.913 . S
H790 C808 0.951 . S
H791 C810 0.951 . S
H792 C812 0.950 . S
H793 C813 0.950 . S
H794 C815 0.950 . S
H795 C818 0.950 . S
H796 C819 0.950 . S
H797 C821 0.950 1_565 S
H798 C822 0.963 1_655 S
H799 C823 0.951 . S
H800 C825 0.951 . S
H801 C827 0.950 . S
H802 C828 0.950 . S
H803 C830 0.950 . S
H804 C833 0.950 . S
H805 C834 0.950 . S
H806 C836 0.950 1_545 S
H807 C837 0.950 . S
C808 H790 0.951 . S
C808 C809 1.366 . S
C808 C810 1.388 . S
C809 C808 1.366 . S
C809 C813 1.385 1_465 S
C810 H791 0.951 . S
C810 C808 1.388 . S
C810 C811 1.366 1_455 S
C811 C810 1.366 1_655 S
C811 C812 1.414 1_565 S
C811 C814 1.502 . S
C812 H792 0.950 . S
C812 C811 1.414 1_545 S
C812 C813 1.374 . S
C813 H793 0.950 . S
C813 C809 1.385 1_645 S
C813 C812 1.374 . S
C814 C811 1.502 . S
C814 C815 1.375 . S
C814 C816 1.385 1_565 S
C815 H794 0.950 . S
C815 C814 1.375 . S
C815 C831 1.377 . S
C816 C814 1.385 1_545 S
C816 C817 1.524 . S
C816 C830 1.377 . S
C817 C816 1.524 . S
C817 C818 1.397 1_655 S
C817 C822 1.355 1_645 S
C818 H795 0.950 . S
C818 C817 1.397 1_455 S
C818 C819 1.334 . S
C819 H796 0.950 . S
C819 C818 1.334 . S
C819 C820 1.287 . S
C820 C819 1.287 . S
C820 C821 1.524 . S
C820 H839 0.913 . S
C821 H797 0.950 1_545 S
C821 C820 1.524 . S
C821 C822 1.410 1_545 S
C822 H798 0.963 1_455 S
C822 C817 1.355 1_465 S
C822 C821 1.410 1_565 S
C823 H799 0.951 . S
C823 C824 1.366 . S
C823 C825 1.388 . S
C824 C823 1.366 . S
C824 C828 1.385 1_545 S
C825 H800 0.951 . S
C825 C823 1.388 . S
C825 C826 1.366 . S
C826 C825 1.366 . S
C826 C827 1.414 1_545 S
C826 C829 1.499 . S
C827 H801 0.950 . S
C827 C826 1.414 1_565 S
C827 C828 1.374 . S
C828 H802 0.950 . S
C828 C824 1.385 1_565 S
C828 C827 1.374 . S
C829 C826 1.499 . S
C829 C830 1.373 . S
C829 C831 1.389 1_545 S
C830 H803 0.950 . S
C830 C816 1.377 . S
C830 C829 1.373 . S
C831 C815 1.377 . S
C831 C829 1.389 1_565 S
C831 C832 1.524 . S
C832 C831 1.524 . S
C832 C833 1.397 . S
C832 C837 1.363 1_565 S
C833 H804 0.950 . S
C833 C832 1.397 . S
C833 C834 1.334 . S
C834 H805 0.950 . S
C834 C833 1.334 . S
C834 C835 1.287 . S
C835 C834 1.287 . S
C835 C836 1.524 . S
C835 H838 0.999 . S
C836 H806 0.950 1_565 S
C836 C835 1.524 . S
C836 C837 1.415 1_565 S
C837 H807 0.950 . S
C837 C832 1.363 1_545 S
C837 C836 1.415 1_545 S
H838 C835 0.999 . S
H839 C820 0.913 . S
H840 C858 0.951 . S
H841 C860 0.951 . S
H842 C862 0.950 . S
H843 C863 0.950 . S
H844 C865 0.950 . S
H845 C868 0.950 . S
H846 C869 0.950 . S
H847 C871 0.950 . S
H848 C872 0.950 . S
H849 C873 0.951 . S
H850 C875 0.951 . S
H851 C877 0.950 . S
H852 C878 0.950 . S
H853 C880 0.950 . S
H854 C883 0.950 . S
H855 C884 0.950 . S
H856 C886 0.950 . S
H857 C887 0.950 . S
C858 H840 0.951 . S
C858 C859 1.366 . S
C858 C860 1.388 . S
C859 C858 1.366 . S
C859 C863 1.385 . S
C860 H841 0.951 . S
C860 C858 1.388 . S
C860 C861 1.366 . S
C861 C860 1.366 . S
C861 C862 1.414 . S
C861 C864 1.499 . S
C862 H842 0.950 . S
C862 C861 1.414 . S
C862 C863 1.374 . S
C863 H843 0.950 . S
C863 C859 1.385 . S
C863 C862 1.374 . S
C864 C861 1.499 . S
C864 C865 1.373 . S
C864 C866 1.389 . S
C865 H844 0.950 . S
C865 C864 1.373 . S
C865 C881 1.377 . S
C866 C864 1.389 . S
C866 C867 1.524 . S
C866 C880 1.377 . S
C867 C866 1.524 . S
C867 C868 1.397 . S
C867 C872 1.363 . S
C868 H845 0.950 . S
C868 C867 1.397 . S
C868 C869 1.334 . S
C869 H846 0.950 . S
C869 C868 1.334 . S
C869 C870 1.287 . S
C870 C869 1.287 . S
C870 C871 1.524 . S
C870 H889 0.913 . S
C871 H847 0.950 . S
C871 C870 1.524 . S
C871 C872 1.415 . S
C872 H848 0.950 . S
C872 C867 1.363 . S
C872 C871 1.415 . S
C873 H849 0.951 . S
C873 C874 1.366 . S
C873 C875 1.388 . S
C874 C873 1.366 . S
C874 C878 1.385 . S
C875 H850 0.951 . S
C875 C873 1.388 . S
C875 C876 1.366 . S
C876 C875 1.366 . S
C876 C877 1.414 . S
C876 C879 1.499 . S
C877 H851 0.950 . S
C877 C876 1.414 . S
C877 C878 1.374 . S
C878 H852 0.950 . S
C878 C874 1.385 . S
C878 C877 1.374 . S
C879 C876 1.499 . S
C879 C880 1.373 . S
C879 C881 1.389 . S
C880 H853 0.950 . S
C880 C866 1.377 . S
C880 C879 1.373 . S
C881 C865 1.377 . S
C881 C879 1.389 . S
C881 C882 1.524 . S
C882 C881 1.524 . S
C882 C883 1.397 . S
C882 C887 1.363 . S
C883 H854 0.950 . S
C883 C882 1.397 . S
C883 C884 1.334 . S
C884 H855 0.950 . S
C884 C883 1.334 . S
C884 C885 1.287 . S
C885 C884 1.287 . S
C885 C886 1.524 . S
C885 H888 0.999 . S
C886 H856 0.950 . S
C886 C885 1.524 . S
C886 C887 1.415 . S
C887 H857 0.950 . S
C887 C882 1.363 . S
C887 C886 1.415 . S
H888 C885 0.999 . S
H889 C870 0.913 . S
H890 C908 0.951 . S
H891 C910 0.951 . S
H892 C912 0.950 . S
H893 C913 0.950 . S
H894 C915 0.950 . S
H895 C918 0.950 . S
H896 C919 0.950 . S
H897 C921 0.950 . S
H898 C922 0.950 . S
H899 C923 0.951 . S
H900 C925 0.951 . S
H901 C927 0.950 . S
H902 C928 0.950 . S
H903 C930 0.950 . S
H904 C933 0.950 . S
H905 C934 0.950 . S
H906 C936 0.950 . S
H907 C937 0.950 . S
C908 H890 0.951 . S
C908 C909 1.366 . S
C908 C910 1.388 . S
C909 C908 1.366 . S
C909 C913 1.385 . S
C910 H891 0.951 . S
C910 C908 1.388 . S
C910 C911 1.366 . S
C911 C910 1.366 . S
C911 C912 1.414 . S
C911 C914 1.499 . S
C912 H892 0.950 . S
C912 C911 1.414 . S
C912 C913 1.374 . S
C913 H893 0.950 . S
C913 C909 1.385 . S
C913 C912 1.374 . S
C914 C911 1.499 . S
C914 C915 1.373 . S
C914 C916 1.389 . S
C915 H894 0.950 . S
C915 C914 1.373 . S
C915 C931 1.377 . S
C916 C914 1.389 . S
C916 C917 1.524 . S
C916 C930 1.377 . S
C917 C916 1.524 . S
C917 C918 1.397 . S
C917 C922 1.363 . S
C918 H895 0.950 . S
C918 C917 1.397 . S
C918 C919 1.334 . S
C919 H896 0.950 . S
C919 C918 1.334 . S
C919 C920 1.287 . S
C920 C919 1.287 . S
C920 C921 1.524 . S
C920 H939 0.913 . S
C921 H897 0.950 . S
C921 C920 1.524 . S
C921 C922 1.415 . S
C922 H898 0.950 . S
C922 C917 1.363 . S
C922 C921 1.415 . S
C923 H899 0.951 . S
C923 C924 1.366 . S
C923 C925 1.388 . S
C924 C923 1.366 . S
C924 C928 1.385 . S
C925 H900 0.951 . S
C925 C923 1.388 . S
C925 C926 1.366 . S
C926 C925 1.366 . S
C926 C927 1.414 . S
C926 C929 1.499 . S
C927 H901 0.950 . S
C927 C926 1.414 . S
C927 C928 1.374 . S
C928 H902 0.950 . S
C928 C924 1.385 . S
C928 C927 1.374 . S
C929 C926 1.499 . S
C929 C930 1.373 . S
C929 C931 1.389 . S
C930 H903 0.950 . S
C930 C916 1.377 . S
C930 C929 1.373 . S
C931 C915 1.377 . S
C931 C929 1.389 . S
C931 C932 1.524 . S
C932 C931 1.524 . S
C932 C933 1.397 . S
C932 C937 1.363 . S
C933 H904 0.950 . S
C933 C932 1.397 . S
C933 C934 1.334 . S
C934 H905 0.950 . S
C934 C933 1.334 . S
C934 C935 1.287 . S
C935 C934 1.287 . S
C935 C936 1.524 . S
C935 H938 0.999 . S
C936 H906 0.950 . S
C936 C935 1.524 . S
C936 C937 1.415 . S
C937 H907 0.950 . S
C937 C932 1.363 . S
C937 C936 1.415 . S
H938 C935 0.999 . S
H939 C920 0.913 . S
H940 C958 0.951 . S
H941 C960 0.951 . S
H942 C962 0.950 . S
H943 C963 0.950 . S
H944 C965 0.950 . S
H945 C968 0.950 . S
H946 C969 0.950 . S
H947 C971 0.950 . S
H948 C972 0.950 . S
H949 C973 0.951 . S
H950 C975 0.951 . S
H951 C977 0.950 . S
H952 C978 0.950 . S
H953 C980 0.950 . S
H954 C983 0.950 . S
H955 C984 0.950 . S
H956 C986 0.950 . S
H957 C987 0.950 . S
C958 H940 0.951 . S
C958 C959 1.366 . S
C958 C960 1.388 . S
C959 C958 1.366 . S
C959 C963 1.385 . S
C960 H941 0.951 . S
C960 C958 1.388 . S
C960 C961 1.366 . S
C961 C960 1.366 . S
C961 C962 1.414 . S
C961 C964 1.499 . S
C962 H942 0.950 . S
C962 C961 1.414 . S
C962 C963 1.374 . S
C963 H943 0.950 . S
C963 C959 1.385 . S
C963 C962 1.374 . S
C964 C961 1.499 . S
C964 C965 1.373 . S
C964 C966 1.389 . S
C965 H944 0.950 . S
C965 C964 1.373 . S
C965 C981 1.377 . S
C966 C964 1.389 . S
C966 C967 1.524 . S
C966 C980 1.377 . S
C967 C966 1.524 . S
C967 C968 1.397 . S
C967 C972 1.363 . S
C968 H945 0.950 . S
C968 C967 1.397 . S
C968 C969 1.334 . S
C969 H946 0.950 . S
C969 C968 1.334 . S
C969 C970 1.287 . S
C970 C969 1.287 . S
C970 C971 1.524 . S
C970 H989 0.913 . S
C971 H947 0.950 . S
C971 C970 1.524 . S
C971 C972 1.415 . S
C972 H948 0.950 . S
C972 C967 1.363 . S
C972 C971 1.415 . S
C973 H949 0.951 . S
C973 C974 1.366 . S
C973 C975 1.388 . S
C974 C973 1.366 . S
C974 C978 1.385 . S
C975 H950 0.951 . S
C975 C973 1.388 . S
C975 C976 1.366 . S
C976 C975 1.366 . S
C976 C977 1.414 . S
C976 C979 1.499 . S
C977 H951 0.950 . S
C977 C976 1.414 . S
C977 C978 1.374 . S
C978 H952 0.950 . S
C978 C974 1.385 . S
C978 C977 1.374 . S
C979 C976 1.499 . S
C979 C980 1.373 . S
C979 C981 1.389 . S
C980 H953 0.950 . S
C980 C966 1.377 . S
C980 C979 1.373 . S
C981 C965 1.377 . S
C981 C979 1.389 . S
C981 C982 1.524 . S
C982 C981 1.524 . S
C982 C983 1.397 . S
C982 C987 1.363 . S
C983 H954 0.950 . S
C983 C982 1.397 . S
C983 C984 1.334 . S
C984 H955 0.950 . S
C984 C983 1.334 . S
C984 C985 1.287 . S
C985 C984 1.287 . S
C985 C986 1.524 . S
C985 H988 0.999 . S
C986 H956 0.950 . S
C986 C985 1.524 . S
C986 C987 1.415 . S
C987 H957 0.950 . S
C987 C982 1.363 . S
C987 C986 1.415 . S
H988 C985 0.999 . S
H989 C970 0.913 . S
H990 C1008 0.951 . S
H991 C1010 0.951 1_545 S
H992 C1012 0.950 . S
H993 C1013 0.950 . S
H994 C1015 0.950 . S
H995 C1018 0.950 . S
H996 C1019 0.950 . S
H997 C1021 0.950 . S
H998 C1022 0.950 1_545 S
H999 C1023 0.951 . S
H1000 C1025 0.951 . S
H1001 C1027 0.950 . S
H1002 C1028 0.950 . S
H1003 C1030 0.950 . S
H1004 C1033 0.950 . S
H1005 C1034 0.950 . S
H1006 C1036 0.950 1_565 S
H1007 C1037 0.950 . S
C1008 H990 0.951 . S
C1008 C1009 1.366 . S
C1008 C1010 1.388 . S
C1009 C1008 1.366 . S
C1009 C1013 1.385 . S
C1010 H991 0.951 1_565 S
C1010 C1008 1.388 . S
C1010 C1011 1.366 . S
C1011 C1010 1.366 . S
C1011 C1012 1.414 . S
C1011 C1014 1.499 . S
C1012 H992 0.950 . S
C1012 C1011 1.414 . S
C1012 C1013 1.374 . S
C1013 H993 0.950 . S
C1013 C1009 1.385 . S
C1013 C1012 1.374 . S
C1014 C1011 1.499 . S
C1014 C1015 1.373 . S
C1014 C1016 1.389 . S
C1015 H994 0.950 . S
C1015 C1014 1.373 . S
C1015 C1031 1.377 . S
C1016 C1014 1.389 . S
C1016 C1017 1.524 . S
C1016 C1030 1.377 . S
C1017 C1016 1.524 . S
C1017 C1018 1.397 . S
C1017 C1022 1.363 . S
C1018 H995 0.950 . S
C1018 C1017 1.397 . S
C1018 C1019 1.334 . S
C1019 H996 0.950 . S
C1019 C1018 1.334 . S
C1019 C1020 1.287 . S
C1020 C1019 1.287 . S
C1020 C1021 1.524 . S
C1020 H1039 0.913 . S
C1021 H997 0.950 . S
C1021 C1020 1.524 . S
C1021 C1022 1.415 . S
C1022 H998 0.950 1_565 S
C1022 C1017 1.363 . S
C1022 C1021 1.415 . S
C1023 H999 0.951 . S
C1023 C1024 1.366 1_565 S
C1023 C1025 1.388 . S
C1024 C1023 1.366 1_545 S
C1024 C1028 1.385 . S
C1025 H1000 0.951 . S
C1025 C1023 1.388 . S
C1025 C1026 1.368 . S
C1026 C1025 1.368 . S
C1026 C1027 1.411 1_565 S
C1026 C1029 1.499 . S
C1027 H1001 0.950 . S
C1027 C1026 1.411 1_545 S
C1027 C1028 1.374 . S
C1028 H1002 0.950 . S
C1028 C1024 1.385 . S
C1028 C1027 1.374 . S
C1029 C1026 1.499 . S
C1029 C1030 1.373 . S
C1029 C1031 1.389 . S
C1030 H1003 0.950 . S
C1030 C1016 1.377 . S
C1030 C1029 1.373 . S
C1031 C1015 1.377 . S
C1031 C1029 1.389 . S
C1031 C1032 1.524 1_565 S
C1032 C1031 1.524 1_545 S
C1032 C1033 1.397 . S
C1032 C1037 1.363 1_545 S
C1033 H1004 0.950 . S
C1033 C1032 1.397 . S
C1033 C1034 1.334 . S
C1034 H1005 0.950 . S
C1034 C1033 1.334 . S
C1034 C1035 1.287 . S
C1035 C1034 1.287 . S
C1035 C1036 1.524 . S
C1035 H1038 0.999 . S
C1036 H1006 0.950 1_545 S
C1036 C1035 1.524 . S
C1036 C1037 1.415 1_545 S
C1037 H1007 0.950 . S
C1037 C1032 1.363 1_565 S
C1037 C1036 1.415 1_565 S
H1038 C1035 0.999 . S
H1039 C1020 0.913 . S
H1040 C1058 0.951 . S
H1041 C1060 0.951 . S
H1042 C1062 0.950 . S
H1043 C1063 0.950 . S
H1044 C1065 0.950 . S
H1045 C1068 0.950 . S
H1046 C1069 0.950 . S
H1047 C1071 0.950 . S
H1048 C1072 0.950 . S
H1049 C1073 0.951 . S
H1050 C1075 0.951 . S
H1051 C1077 0.950 . S
H1052 C1078 0.950 . S
H1053 C1080 0.950 . S
H1054 C1083 0.950 . S
H1055 C1084 0.950 . S
H1056 C1086 0.950 . S
H1057 C1087 0.950 . S
C1058 H1040 0.951 . S
C1058 C1059 1.366 . S
C1058 C1060 1.388 . S
C1059 C1058 1.366 . S
C1059 C1063 1.385 . S
C1060 H1041 0.951 . S
C1060 C1058 1.388 . S
C1060 C1061 1.366 . S
C1061 C1060 1.366 . S
C1061 C1062 1.414 . S
C1061 C1064 1.499 . S
C1062 H1042 0.950 . S
C1062 C1061 1.414 . S
C1062 C1063 1.374 . S
C1063 H1043 0.950 . S
C1063 C1059 1.385 . S
C1063 C1062 1.374 . S
C1064 C1061 1.499 . S
C1064 C1065 1.373 . S
C1064 C1066 1.389 . S
C1065 H1044 0.950 . S
C1065 C1064 1.373 . S
C1065 C1081 1.377 . S
C1066 C1064 1.389 . S
C1066 C1067 1.524 . S
C1066 C1080 1.377 . S
C1067 C1066 1.524 . S
C1067 C1068 1.397 . S
C1067 C1072 1.363 . S
C1068 H1045 0.950 . S
C1068 C1067 1.397 . S
C1068 C1069 1.334 . S
C1069 H1046 0.950 . S
C1069 C1068 1.334 . S
C1069 C1070 1.287 . S
C1070 C1069 1.287 . S
C1070 C1071 1.524 . S
C1070 H1089 0.913 . S
C1071 H1047 0.950 . S
C1071 C1070 1.524 . S
C1071 C1072 1.415 . S
C1072 H1048 0.950 . S
C1072 C1067 1.363 . S
C1072 C1071 1.415 . S
C1073 H1049 0.951 . S
C1073 C1074 1.366 . S
C1073 C1075 1.388 . S
C1074 C1073 1.366 . S
C1074 C1078 1.385 . S
C1075 H1050 0.951 . S
C1075 C1073 1.388 . S
C1075 C1076 1.366 . S
C1076 C1075 1.366 . S
C1076 C1077 1.414 . S
C1076 C1079 1.499 . S
C1077 H1051 0.950 . S
C1077 C1076 1.414 . S
C1077 C1078 1.374 . S
C1078 H1052 0.950 . S
C1078 C1074 1.385 . S
C1078 C1077 1.374 . S
C1079 C1076 1.499 . S
C1079 C1080 1.373 . S
C1079 C1081 1.389 . S
C1080 H1053 0.950 . S
C1080 C1066 1.377 . S
C1080 C1079 1.373 . S
C1081 C1065 1.377 . S
C1081 C1079 1.389 . S
C1081 C1082 1.524 . S
C1082 C1081 1.524 . S
C1082 C1083 1.397 . S
C1082 C1087 1.363 . S
C1083 H1054 0.950 . S
C1083 C1082 1.397 . S
C1083 C1084 1.334 . S
C1084 H1055 0.950 . S
C1084 C1083 1.334 . S
C1084 C1085 1.287 . S
C1085 C1084 1.287 . S
C1085 C1086 1.524 . S
C1085 H1088 0.999 . S
C1086 H1056 0.950 . S
C1086 C1085 1.524 . S
C1086 C1087 1.415 . S
C1087 H1057 0.950 . S
C1087 C1082 1.363 . S
C1087 C1086 1.415 . S
H1088 C1085 0.999 . S
H1089 C1070 0.913 . S
H1090 C1108 0.951 . S
H1091 C1110 0.951 . S
H1092 C1112 0.950 . S
H1093 C1113 0.950 . S
H1094 C1115 0.950 . S
H1095 C1118 0.950 . S
H1096 C1119 0.950 . S
H1097 C1121 0.950 . S
H1098 C1122 0.950 . S
H1099 C1123 0.951 . S
H1100 C1125 0.951 . S
H1101 C1127 0.950 . S
H1102 C1128 0.950 . S
H1103 C1130 0.950 . S
H1104 C1133 0.950 . S
H1105 C1134 0.950 . S
H1106 C1136 0.950 . S
H1107 C1137 0.950 . S
C1108 H1090 0.951 . S
C1108 C1109 1.366 . S
C1108 C1110 1.388 . S
C1109 C1108 1.366 . S
C1109 C1113 1.385 . S
C1110 H1091 0.951 . S
C1110 C1108 1.388 . S
C1110 C1111 1.366 . S
C1111 C1110 1.366 . S
C1111 C1112 1.414 . S
C1111 C1114 1.499 . S
C1112 H1092 0.950 . S
C1112 C1111 1.414 . S
C1112 C1113 1.374 . S
C1113 H1093 0.950 . S
C1113 C1109 1.385 . S
C1113 C1112 1.374 . S
C1114 C1111 1.499 . S
C1114 C1115 1.373 . S
C1114 C1116 1.389 . S
C1115 H1094 0.950 . S
C1115 C1114 1.373 . S
C1115 C1131 1.377 . S
C1116 C1114 1.389 . S
C1116 C1117 1.524 . S
C1116 C1130 1.377 . S
C1117 C1116 1.524 . S
C1117 C1118 1.397 . S
C1117 C1122 1.363 . S
C1118 H1095 0.950 . S
C1118 C1117 1.397 . S
C1118 C1119 1.334 . S
C1119 H1096 0.950 . S
C1119 C1118 1.334 . S
C1119 C1120 1.287 . S
C1120 C1119 1.287 . S
C1120 C1121 1.524 . S
C1120 H1139 0.913 . S
C1121 H1097 0.950 . S
C1121 C1120 1.524 . S
C1121 C1122 1.415 . S
C1122 H1098 0.950 . S
C1122 C1117 1.363 . S
C1122 C1121 1.415 . S
C1123 H1099 0.951 . S
C1123 C1124 1.366 . S
C1123 C1125 1.388 . S
C1124 C1123 1.366 . S
C1124 C1128 1.385 . S
C1125 H1100 0.951 . S
C1125 C1123 1.388 . S
C1125 C1126 1.366 . S
C1126 C1125 1.366 . S
C1126 C1127 1.414 . S
C1126 C1129 1.499 . S
C1127 H1101 0.950 . S
C1127 C1126 1.414 . S
C1127 C1128 1.374 . S
C1128 H1102 0.950 . S
C1128 C1124 1.385 . S
C1128 C1127 1.374 . S
C1129 C1126 1.499 . S
C1129 C1130 1.373 . S
C1129 C1131 1.389 . S
C1130 H1103 0.950 . S
C1130 C1116 1.377 . S
C1130 C1129 1.373 . S
C1131 C1115 1.377 . S
C1131 C1129 1.389 . S
C1131 C1132 1.524 . S
C1132 C1131 1.524 . S
C1132 C1133 1.397 . S
C1132 C1137 1.363 . S
C1133 H1104 0.950 . S
C1133 C1132 1.397 . S
C1133 C1134 1.334 . S
C1134 H1105 0.950 . S
C1134 C1133 1.334 . S
C1134 C1135 1.287 . S
C1135 C1134 1.287 . S
C1135 C1136 1.524 . S
C1135 H1138 0.999 . S
C1136 H1106 0.950 . S
C1136 C1135 1.524 . S
C1136 C1137 1.415 . S
C1137 H1107 0.950 . S
C1137 C1132 1.363 . S
C1137 C1136 1.415 . S
H1138 C1135 0.999 . S
H1139 C1120 0.913 . S
H1140 C1158 0.951 . S
H1141 C1160 0.951 . S
H1142 C1162 0.950 . S
H1143 C1163 0.950 . S
H1144 C1165 0.950 . S
H1145 C1168 0.950 . S
H1146 C1169 0.950 . S
H1147 C1171 0.950 . S
H1148 C1172 0.950 . S
H1149 C1173 0.951 . S
H1150 C1175 0.951 . S
H1151 C1177 0.950 . S
H1152 C1178 0.950 . S
H1153 C1180 0.950 . S
H1154 C1183 0.950 . S
H1155 C1184 0.950 . S
H1156 C1186 0.950 . S
H1157 C1187 0.950 . S
C1158 H1140 0.951 . S
C1158 C1159 1.366 . S
C1158 C1160 1.388 . S
C1159 C1158 1.366 . S
C1159 C1163 1.385 . S
C1160 H1141 0.951 . S
C1160 C1158 1.388 . S
C1160 C1161 1.366 . S
C1161 C1160 1.366 . S
C1161 C1162 1.414 . S
C1161 C1164 1.499 . S
C1162 H1142 0.950 . S
C1162 C1161 1.414 . S
C1162 C1163 1.374 . S
C1163 H1143 0.950 . S
C1163 C1159 1.385 . S
C1163 C1162 1.374 . S
C1164 C1161 1.499 . S
C1164 C1165 1.373 . S
C1164 C1166 1.389 . S
C1165 H1144 0.950 . S
C1165 C1164 1.373 . S
C1165 C1181 1.377 . S
C1166 C1164 1.389 . S
C1166 C1167 1.524 . S
C1166 C1180 1.377 . S
C1167 C1166 1.524 . S
C1167 C1168 1.397 . S
C1167 C1172 1.363 . S
C1168 H1145 0.950 . S
C1168 C1167 1.397 . S
C1168 C1169 1.334 . S
C1169 H1146 0.950 . S
C1169 C1168 1.334 . S
C1169 C1170 1.287 . S
C1170 C1169 1.287 . S
C1170 C1171 1.524 . S
C1170 H1189 0.913 . S
C1171 H1147 0.950 . S
C1171 C1170 1.524 . S
C1171 C1172 1.415 . S
C1172 H1148 0.950 . S
C1172 C1167 1.363 . S
C1172 C1171 1.415 . S
C1173 H1149 0.951 . S
C1173 C1174 1.366 . S
C1173 C1175 1.388 . S
C1174 C1173 1.366 . S
C1174 C1178 1.385 . S
C1175 H1150 0.951 . S
C1175 C1173 1.388 . S
C1175 C1176 1.366 . S
C1176 C1175 1.366 . S
C1176 C1177 1.414 . S
C1176 C1179 1.499 . S
C1177 H1151 0.950 . S
C1177 C1176 1.414 . S
C1177 C1178 1.374 . S
C1178 H1152 0.950 . S
C1178 C1174 1.385 . S
C1178 C1177 1.374 . S
C1179 C1176 1.499 . S
C1179 C1180 1.373 . S
C1179 C1181 1.389 . S
C1180 H1153 0.950 . S
C1180 C1166 1.377 . S
C1180 C1179 1.373 . S
C1181 C1165 1.377 . S
C1181 C1179 1.389 . S
C1181 C1182 1.524 . S
C1182 C1181 1.524 . S
C1182 C1183 1.397 . S
C1182 C1187 1.363 . S
C1183 H1154 0.950 . S
C1183 C1182 1.397 . S
C1183 C1184 1.334 . S
C1184 H1155 0.950 . S
C1184 C1183 1.334 . S
C1184 C1185 1.287 . S
C1185 C1184 1.287 . S
C1185 C1186 1.524 . S
C1185 H1188 0.999 . S
C1186 H1156 0.950 . S
C1186 C1185 1.524 . S
C1186 C1187 1.415 . S
C1187 H1157 0.950 . S
C1187 C1182 1.363 . S
C1187 C1186 1.415 . S
H1188 C1185 0.999 . S
H1189 C1170 0.913 . S
H1190 C1208 0.951 . S
H1191 C1210 0.951 . S
H1192 C1212 0.950 . S
H1193 C1213 0.950 . S
H1194 C1215 0.950 . S
H1195 C1218 0.950 . S
H1196 C1219 0.950 . S
H1197 C1221 0.950 . S
H1198 C1222 0.950 . S
H1199 C1223 0.951 . S
H1200 C1225 0.951 . S
H1201 C1227 0.950 . S
H1202 C1228 0.950 . S
H1203 C1230 0.950 . S
H1204 C1233 0.950 . S
H1205 C1234 0.950 . S
H1206 C1236 0.950 . S
H1207 C1237 0.950 . S
C1208 H1190 0.951 . S
C1208 C1209 1.366 . S
C1208 C1210 1.388 . S
C1209 C1208 1.366 . S
C1209 C1213 1.385 . S
C1210 H1191 0.951 . S
C1210 C1208 1.388 . S
C1210 C1211 1.366 . S
C1211 C1210 1.366 . S
C1211 C1212 1.414 . S
C1211 C1214 1.499 . S
C1212 H1192 0.950 . S
C1212 C1211 1.414 . S
C1212 C1213 1.374 . S
C1213 H1193 0.950 . S
C1213 C1209 1.385 . S
C1213 C1212 1.374 . S
C1214 C1211 1.499 . S
C1214 C1215 1.373 . S
C1214 C1216 1.389 . S
C1215 H1194 0.950 . S
C1215 C1214 1.373 . S
C1215 C1231 1.377 . S
C1216 C1214 1.389 . S
C1216 C1217 1.524 . S
C1216 C1230 1.377 . S
C1217 C1216 1.524 . S
C1217 C1218 1.397 . S
C1217 C1222 1.363 . S
C1218 H1195 0.950 . S
C1218 C1217 1.397 . S
C1218 C1219 1.334 . S
C1219 H1196 0.950 . S
C1219 C1218 1.334 . S
C1219 C1220 1.287 . S
C1220 C1219 1.287 . S
C1220 C1221 1.524 . S
C1220 H1239 0.913 . S
C1221 H1197 0.950 . S
C1221 C1220 1.524 . S
C1221 C1222 1.415 . S
C1222 H1198 0.950 . S
C1222 C1217 1.363 . S
C1222 C1221 1.415 . S
C1223 H1199 0.951 . S
C1223 C1224 1.366 . S
C1223 C1225 1.388 . S
C1224 C1223 1.366 . S
C1224 C1228 1.385 . S
C1225 H1200 0.951 . S
C1225 C1223 1.388 . S
C1225 C1226 1.366 . S
C1226 C1225 1.366 . S
C1226 C1227 1.414 . S
C1226 C1229 1.499 . S
C1227 H1201 0.950 . S
C1227 C1226 1.414 . S
C1227 C1228 1.374 . S
C1228 H1202 0.950 . S
C1228 C1224 1.385 . S
C1228 C1227 1.374 . S
C1229 C1226 1.499 . S
C1229 C1230 1.373 . S
C1229 C1231 1.389 . S
C1230 H1203 0.950 . S
C1230 C1216 1.377 . S
C1230 C1229 1.373 . S
C1231 C1215 1.377 . S
C1231 C1229 1.389 . S
C1231 C1232 1.524 . S
C1232 C1231 1.524 . S
C1232 C1233 1.397 . S
C1232 C1237 1.363 . S
C1233 H1204 0.950 . S
C1233 C1232 1.397 . S
C1233 C1234 1.334 . S
C1234 H1205 0.950 . S
C1234 C1233 1.334 . S
C1234 C1235 1.287 . S
C1235 C1234 1.287 . S
C1235 C1236 1.524 . S
C1235 H1238 0.999 . S
C1236 H1206 0.950 . S
C1236 C1235 1.524 . S
C1236 C1237 1.415 . S
C1237 H1207 0.950 . S
C1237 C1232 1.363 . S
C1237 C1236 1.415 . S
H1238 C1235 0.999 . S
H1239 C1220 0.913 . S
H1240 C1258 0.951 . S
H1241 C1260 0.951 . S
H1242 C1262 0.950 . S
H1243 C1263 0.950 . S
H1244 C1265 0.950 . S
H1245 C1268 0.950 . S
H1246 C1269 0.950 . S
H1247 C1271 0.950 . S
H1248 C1272 0.950 . S
H1249 C1273 0.951 . S
H1250 C1275 0.951 . S
H1251 C1277 0.950 . S
H1252 C1278 0.950 . S
H1253 C1280 0.950 . S
H1254 C1283 0.950 . S
H1255 C1284 0.950 . S
H1256 C1286 0.950 . S
H1257 C1287 0.950 . S
C1258 H1240 0.951 . S
C1258 C1259 1.366 . S
C1258 C1260 1.388 . S
C1259 C1258 1.366 . S
C1259 C1263 1.385 . S
C1260 H1241 0.951 . S
C1260 C1258 1.388 . S
C1260 C1261 1.366 . S
C1261 C1260 1.366 . S
C1261 C1262 1.414 . S
C1261 C1264 1.499 . S
C1262 H1242 0.950 . S
C1262 C1261 1.414 . S
C1262 C1263 1.374 . S
C1263 H1243 0.950 . S
C1263 C1259 1.385 . S
C1263 C1262 1.374 . S
C1264 C1261 1.499 . S
C1264 C1265 1.373 . S
C1264 C1266 1.389 . S
C1265 H1244 0.950 . S
C1265 C1264 1.373 . S
C1265 C1281 1.377 . S
C1266 C1264 1.389 . S
C1266 C1267 1.524 . S
C1266 C1280 1.377 . S
C1267 C1266 1.524 . S
C1267 C1268 1.397 . S
C1267 C1272 1.363 . S
C1268 H1245 0.950 . S
C1268 C1267 1.397 . S
C1268 C1269 1.334 . S
C1269 H1246 0.950 . S
C1269 C1268 1.334 . S
C1269 C1270 1.287 . S
C1270 C1269 1.287 . S
C1270 C1271 1.524 . S
C1270 H1289 0.913 . S
C1271 H1247 0.950 . S
C1271 C1270 1.524 . S
C1271 C1272 1.415 . S
C1272 H1248 0.950 . S
C1272 C1267 1.363 . S
C1272 C1271 1.415 . S
C1273 H1249 0.951 . S
C1273 C1274 1.366 . S
C1273 C1275 1.388 . S
C1274 C1273 1.366 . S
C1274 C1278 1.385 . S
C1275 H1250 0.951 . S
C1275 C1273 1.388 . S
C1275 C1276 1.366 . S
C1276 C1275 1.366 . S
C1276 C1277 1.414 . S
C1276 C1279 1.499 . S
C1277 H1251 0.950 . S
C1277 C1276 1.414 . S
C1277 C1278 1.374 . S
C1278 H1252 0.950 . S
C1278 C1274 1.385 . S
C1278 C1277 1.374 . S
C1279 C1276 1.499 . S
C1279 C1280 1.373 . S
C1279 C1281 1.389 . S
C1280 H1253 0.950 . S
C1280 C1266 1.377 . S
C1280 C1279 1.373 . S
C1281 C1265 1.377 . S
C1281 C1279 1.389 . S
C1281 C1282 1.524 . S
C1282 C1281 1.524 . S
C1282 C1283 1.397 . S
C1282 C1287 1.363 . S
C1283 H1254 0.950 . S
C1283 C1282 1.397 . S
C1283 C1284 1.334 . S
C1284 H1255 0.950 . S
C1284 C1283 1.334 . S
C1284 C1285 1.287 . S
C1285 C1284 1.287 . S
C1285 C1286 1.524 . S
C1285 H1288 0.999 . S
C1286 H1256 0.950 . S
C1286 C1285 1.524 . S
C1286 C1287 1.415 . S
C1287 H1257 0.950 . S
C1287 C1282 1.363 . S
C1287 C1286 1.415 . S
H1288 C1285 0.999 . S
H1289 C1270 0.913 . S
H1290 C1308 0.951 . S
H1291 C1310 0.951 . S
H1292 C1312 0.950 . S
H1293 C1313 0.950 . S
H1294 C1315 0.950 . S
H1295 C1318 0.950 . S
H1296 C1319 0.950 . S
H1297 C1321 0.950 . S
H1298 C1322 0.950 . S
H1299 C1323 0.951 . S
H1300 C1325 0.951 . S
H1301 C1327 0.950 . S
H1302 C1328 0.950 . S
H1303 C1330 0.950 . S
H1304 C1333 0.950 . S
H1305 C1334 0.950 . S
H1306 C1336 0.950 1_655 S
H1307 C1337 0.921 1_655 S
C1308 H1290 0.951 . S
C1308 C1309 1.366 . S
C1308 C1310 1.388 . S
C1309 C1308 1.366 . S
C1309 C1313 1.385 . S
C1310 H1291 0.951 . S
C1310 C1308 1.388 . S
C1310 C1311 1.366 . S
C1311 C1310 1.366 . S
C1311 C1312 1.414 . S
C1311 C1314 1.499 . S
C1312 H1292 0.950 . S
C1312 C1311 1.414 . S
C1312 C1313 1.374 . S
C1313 H1293 0.950 . S
C1313 C1309 1.385 . S
C1313 C1312 1.374 . S
C1314 C1311 1.499 . S
C1314 C1315 1.373 . S
C1314 C1316 1.389 . S
C1315 H1294 0.950 . S
C1315 C1314 1.373 . S
C1315 C1331 1.377 . S
C1316 C1314 1.389 . S
C1316 C1317 1.524 . S
C1316 C1330 1.377 . S
C1317 C1316 1.524 . S
C1317 C1318 1.397 . S
C1317 C1322 1.363 . S
C1318 H1295 0.950 . S
C1318 C1317 1.397 . S
C1318 C1319 1.334 . S
C1319 H1296 0.950 . S
C1319 C1318 1.334 . S
C1319 C1320 1.287 . S
C1320 C1319 1.287 . S
C1320 C1321 1.524 . S
C1320 H1339 0.913 . S
C1321 H1297 0.950 . S
C1321 C1320 1.524 . S
C1321 C1322 1.415 . S
C1322 H1298 0.950 . S
C1322 C1317 1.363 . S
C1322 C1321 1.415 . S
C1323 H1299 0.951 . S
C1323 C1324 1.366 . S
C1323 C1325 1.388 . S
C1324 C1323 1.366 . S
C1324 C1328 1.385 . S
C1325 H1300 0.951 . S
C1325 C1323 1.388 . S
C1325 C1326 1.366 . S
C1326 C1325 1.366 . S
C1326 C1327 1.414 . S
C1326 C1329 1.499 . S
C1327 H1301 0.950 . S
C1327 C1326 1.414 . S
C1327 C1328 1.374 . S
C1328 H1302 0.950 . S
C1328 C1324 1.385 . S
C1328 C1327 1.374 . S
C1329 C1326 1.499 . S
C1329 C1330 1.373 . S
C1329 C1331 1.389 . S
C1330 H1303 0.950 . S
C1330 C1316 1.377 . S
C1330 C1329 1.373 . S
C1331 C1315 1.377 . S
C1331 C1329 1.389 . S
C1331 C1332 1.524 . S
C1332 C1331 1.524 . S
C1332 C1333 1.397 . S
C1332 C1337 1.363 . S
C1333 H1304 0.950 . S
C1333 C1332 1.397 . S
C1333 C1334 1.334 . S
C1334 H1305 0.950 . S
C1334 C1333 1.334 . S
C1334 C1335 1.287 . S
C1335 C1334 1.287 . S
C1335 C1336 1.524 . S
C1335 H1338 0.999 . S
C1336 H1306 0.950 1_455 S
C1336 C1335 1.524 . S
C1336 C1337 1.415 . S
C1337 H1307 0.921 1_455 S
C1337 C1332 1.363 . S
C1337 C1336 1.415 . S
H1338 C1335 0.999 . S
H1339 C1320 0.913 . S
H1340 C1358 0.951 . S
H1341 C1360 0.951 . S
H1342 C1362 0.950 . S
H1343 C1363 0.950 . S
H1344 C1365 0.950 . S
H1345 C1368 0.950 . S
H1346 C1369 0.950 . S
H1347 C1371 0.950 . S
H1348 C1372 0.950 . S
H1349 C1373 0.951 . S
H1350 C1375 0.951 . S
H1351 C1377 0.950 . S
H1352 C1378 0.950 . S
H1353 C1380 0.950 . S
H1354 C1383 0.950 . S
H1355 C1384 0.950 . S
H1356 C1386 0.950 . S
H1357 C1387 0.950 . S
C1358 H1340 0.951 . S
C1358 C1359 1.366 . S
C1358 C1360 1.388 . S
C1359 C1358 1.366 . S
C1359 C1363 1.385 . S
C1360 H1341 0.951 . S
C1360 C1358 1.388 . S
C1360 C1361 1.366 . S
C1361 C1360 1.366 . S
C1361 C1362 1.414 . S
C1361 C1364 1.499 . S
C1362 H1342 0.950 . S
C1362 C1361 1.414 . S
C1362 C1363 1.374 . S
C1363 H1343 0.950 . S
C1363 C1359 1.385 . S
C1363 C1362 1.374 . S
C1364 C1361 1.499 . S
C1364 C1365 1.373 . S
C1364 C1366 1.389 . S
C1365 H1344 0.950 . S
C1365 C1364 1.373 . S
C1365 C1381 1.377 . S
C1366 C1364 1.389 . S
C1366 C1367 1.524 . S
C1366 C1380 1.377 . S
C1367 C1366 1.524 . S
C1367 C1368 1.397 . S
C1367 C1372 1.363 . S
C1368 H1345 0.950 . S
C1368 C1367 1.397 . S
C1368 C1369 1.334 . S
C1369 H1346 0.950 . S
C1369 C1368 1.334 . S
C1369 C1370 1.287 . S
C1370 C1369 1.287 . S
C1370 C1371 1.524 . S
C1370 H1389 0.913 . S
C1371 H1347 0.950 . S
C1371 C1370 1.524 . S
C1371 C1372 1.415 . S
C1372 H1348 0.950 . S
C1372 C1367 1.363 . S
C1372 C1371 1.415 . S
C1373 H1349 0.951 . S
C1373 C1374 1.366 . S
C1373 C1375 1.388 . S
C1374 C1373 1.366 . S
C1374 C1378 1.385 . S
C1375 H1350 0.951 . S
C1375 C1373 1.388 . S
C1375 C1376 1.366 . S
C1376 C1375 1.366 . S
C1376 C1377 1.414 . S
C1376 C1379 1.499 . S
C1377 H1351 0.950 . S
C1377 C1376 1.414 . S
C1377 C1378 1.374 . S
C1378 H1352 0.950 . S
C1378 C1374 1.385 . S
C1378 C1377 1.374 . S
C1379 C1376 1.499 . S
C1379 C1380 1.373 . S
C1379 C1381 1.389 . S
C1380 H1353 0.950 . S
C1380 C1366 1.377 . S
C1380 C1379 1.373 . S
C1381 C1365 1.377 . S
C1381 C1379 1.389 . S
C1381 C1382 1.524 . S
C1382 C1381 1.524 . S
C1382 C1383 1.397 . S
C1382 C1387 1.363 . S
C1383 H1354 0.950 . S
C1383 C1382 1.397 . S
C1383 C1384 1.334 . S
C1384 H1355 0.950 . S
C1384 C1383 1.334 . S
C1384 C1385 1.287 . S
C1385 C1384 1.287 . S
C1385 C1386 1.524 . S
C1385 H1388 0.999 . S
C1386 H1356 0.950 . S
C1386 C1385 1.524 . S
C1386 C1387 1.415 . S
C1387 H1357 0.950 . S
C1387 C1382 1.363 . S
C1387 C1386 1.415 . S
H1388 C1385 0.999 . S
H1389 C1370 0.913 . S
H1390 C1408 0.951 . S
H1391 C1410 0.951 . S
H1392 C1412 0.903 1_455 S
H1393 C1413 0.950 1_455 S
H1394 C1415 0.950 1_455 S
H1395 C1418 0.950 1_455 S
H1396 C1419 0.950 . S
H1397 C1421 0.950 . S
H1398 C1422 0.950 . S
H1399 C1423 0.951 . S
H1400 C1425 0.951 . S
H1401 C1427 0.950 . S
H1402 C1428 0.950 . S
H1403 C1430 0.950 . S
H1404 C1433 0.950 . S
H1405 C1434 0.950 1_655 S
H1406 C1436 0.950 . S
H1407 C1437 0.950 . S
C1408 H1390 0.951 . S
C1408 C1409 1.366 . S
C1408 C1410 1.388 . S
C1409 C1408 1.366 . S
C1409 C1413 1.385 . S
C1410 H1391 0.951 . S
C1410 C1408 1.388 . S
C1410 C1411 1.366 . S
C1411 C1410 1.366 . S
C1411 C1412 1.451 . S
C1411 C1414 1.499 . S
C1412 H1392 0.903 1_655 S
C1412 C1411 1.451 . S
C1412 C1413 1.386 . S
C1413 H1393 0.950 1_655 S
C1413 C1409 1.385 . S
C1413 C1412 1.386 . S
C1414 C1411 1.499 . S
C1414 C1415 1.373 . S
C1414 C1416 1.389 . S
C1415 H1394 0.950 1_655 S
C1415 C1414 1.373 . S
C1415 C1431 1.377 1_655 S
C1416 C1414 1.389 . S
C1416 C1417 1.524 . S
C1416 C1430 1.377 . S
C1417 C1416 1.524 . S
C1417 C1418 1.397 . S
C1417 C1422 1.363 . S
C1418 H1395 0.950 1_655 S
C1418 C1417 1.397 . S
C1418 C1419 1.334 . S
C1419 H1396 0.950 . S
C1419 C1418 1.334 . S
C1419 C1420 1.287 . S
C1420 C1419 1.287 . S
C1420 C1421 1.524 . S
C1420 H1439 0.913 . S
C1421 H1397 0.950 . S
C1421 C1420 1.524 . S
C1421 C1422 1.415 . S
C1422 H1398 0.950 . S
C1422 C1417 1.363 . S
C1422 C1421 1.415 . S
C1423 H1399 0.951 . S
C1423 C1424 1.366 . S
C1423 C1425 1.388 . S
C1424 C1423 1.366 . S
C1424 C1428 1.385 1_455 S
C1425 H1400 0.951 . S
C1425 C1423 1.388 . S
C1425 C1426 1.366 . S
C1426 C1425 1.366 . S
C1426 C1427 1.414 1_455 S
C1426 C1429 1.496 1_455 S
C1427 H1401 0.950 . S
C1427 C1426 1.414 1_655 S
C1427 C1428 1.374 . S
C1428 H1402 0.950 . S
C1428 C1424 1.385 1_655 S
C1428 C1427 1.374 . S
C1429 C1426 1.496 1_655 S
C1429 C1430 1.377 . S
C1429 C1431 1.387 1_655 S
C1430 H1403 0.950 . S
C1430 C1416 1.377 . S
C1430 C1429 1.377 . S
C1431 C1415 1.377 1_455 S
C1431 C1429 1.387 1_455 S
C1431 C1432 1.524 . S
C1432 C1431 1.524 . S
C1432 C1433 1.397 1_455 S
C1432 C1437 1.363 . S
C1433 H1404 0.950 . S
C1433 C1432 1.397 1_655 S
C1433 C1434 1.334 1_655 S
C1434 H1405 0.950 1_455 S
C1434 C1433 1.334 1_455 S
C1434 C1435 1.287 . S
C1435 C1434 1.287 . S
C1435 C1436 1.524 . S
C1435 H1438 0.999 . S
C1436 H1406 0.950 . S
C1436 C1435 1.524 . S
C1436 C1437 1.415 . S
C1437 H1407 0.950 . S
C1437 C1432 1.363 . S
C1437 C1436 1.415 . S
H1438 C1435 0.999 . S
H1439 C1420 0.913 . S
H1440 C1458 0.951 . S
H1441 C1460 0.951 . S
H1442 C1462 0.950 . S
H1443 C1463 0.950 . S
H1444 C1465 0.950 . S
H1445 C1468 0.950 . S
H1446 C1469 0.950 . S
H1447 C1471 0.950 . S
H1448 C1472 0.950 . S
H1449 C1473 0.951 . S
H1450 C1475 0.951 . S
H1451 C1477 0.950 . S
H1452 C1478 0.950 . S
H1453 C1480 0.950 . S
H1454 C1483 0.950 . S
H1455 C1484 0.950 . S
H1456 C1486 0.950 . S
H1457 C1487 0.950 . S
C1458 H1440 0.951 . S
C1458 C1459 1.366 . S
C1458 C1460 1.388 . S
C1459 C1458 1.366 . S
C1459 C1463 1.385 . S
C1460 H1441 0.951 . S
C1460 C1458 1.388 . S
C1460 C1461 1.366 . S
C1461 C1460 1.366 . S
C1461 C1462 1.414 . S
C1461 C1464 1.499 . S
C1462 H1442 0.950 . S
C1462 C1461 1.414 . S
C1462 C1463 1.374 . S
C1463 H1443 0.950 . S
C1463 C1459 1.385 . S
C1463 C1462 1.374 . S
C1464 C1461 1.499 . S
C1464 C1465 1.373 . S
C1464 C1466 1.389 . S
C1465 H1444 0.950 . S
C1465 C1464 1.373 . S
C1465 C1481 1.377 . S
C1466 C1464 1.389 . S
C1466 C1467 1.524 . S
C1466 C1480 1.377 . S
C1467 C1466 1.524 . S
C1467 C1468 1.397 . S
C1467 C1472 1.363 . S
C1468 H1445 0.950 . S
C1468 C1467 1.397 . S
C1468 C1469 1.334 . S
C1469 H1446 0.950 . S
C1469 C1468 1.334 . S
C1469 C1470 1.287 . S
C1470 C1469 1.287 . S
C1470 C1471 1.524 . S
C1470 H1489 0.913 . S
C1471 H1447 0.950 . S
C1471 C1470 1.524 . S
C1471 C1472 1.415 . S
C1472 H1448 0.950 . S
C1472 C1467 1.363 . S
C1472 C1471 1.415 . S
C1473 H1449 0.951 . S
C1473 C1474 1.366 . S
C1473 C1475 1.388 . S
C1474 C1473 1.366 . S
C1474 C1478 1.385 . S
C1475 H1450 0.951 . S
C1475 C1473 1.388 . S
C1475 C1476 1.366 . S
C1476 C1475 1.366 . S
C1476 C1477 1.414 . S
C1476 C1479 1.499 . S
C1477 H1451 0.950 . S
C1477 C1476 1.414 . S
C1477 C1478 1.374 . S
C1478 H1452 0.950 . S
C1478 C1474 1.385 . S
C1478 C1477 1.374 . S
C1479 C1476 1.499 . S
C1479 C1480 1.373 . S
C1479 C1481 1.389 . S
C1480 H1453 0.950 . S
C1480 C1466 1.377 . S
C1480 C1479 1.373 . S
C1481 C1465 1.377 . S
C1481 C1479 1.389 . S
C1481 C1482 1.524 . S
C1482 C1481 1.524 . S
C1482 C1483 1.397 . S
C1482 C1487 1.363 . S
C1483 H1454 0.950 . S
C1483 C1482 1.397 . S
C1483 C1484 1.334 . S
C1484 H1455 0.950 . S
C1484 C1483 1.334 . S
C1484 C1485 1.287 . S
C1485 C1484 1.287 . S
C1485 C1486 1.524 . S
C1485 H1488 0.999 . S
C1486 H1456 0.950 . S
C1486 C1485 1.524 . S
C1486 C1487 1.415 . S
C1487 H1457 0.950 . S
C1487 C1482 1.363 . S
C1487 C1486 1.415 . S
H1488 C1485 0.999 . S
H1489 C1470 0.913 . S
H1490 C1508 0.951 . S
H1491 C1510 0.951 . S
H1492 C1512 0.950 . S
H1493 C1513 0.950 . S
H1494 C1515 0.950 . S
H1495 C1518 0.950 . S
H1496 C1519 0.950 . S
H1497 C1521 0.950 . S
H1498 C1522 0.950 . S
H1499 C1523 0.951 . S
H1500 C1525 0.951 . S
H1501 C1527 0.950 . S
H1502 C1528 0.950 . S
H1503 C1530 0.950 . S
H1504 C1533 0.950 . S
H1505 C1534 0.950 . S
H1506 C1536 0.950 . S
H1507 C1537 0.950 . S
C1508 H1490 0.951 . S
C1508 C1509 1.366 . S
C1508 C1510 1.388 . S
C1509 C1508 1.366 . S
C1509 C1513 1.385 . S
C1510 H1491 0.951 . S
C1510 C1508 1.388 . S
C1510 C1511 1.366 . S
C1511 C1510 1.366 . S
C1511 C1512 1.414 . S
C1511 C1514 1.499 . S
C1512 H1492 0.950 . S
C1512 C1511 1.414 . S
C1512 C1513 1.374 . S
C1513 H1493 0.950 . S
C1513 C1509 1.385 . S
C1513 C1512 1.374 . S
C1514 C1511 1.499 . S
C1514 C1515 1.373 . S
C1514 C1516 1.389 . S
C1515 H1494 0.950 . S
C1515 C1514 1.373 . S
C1515 C1531 1.377 . S
C1516 C1514 1.389 . S
C1516 C1517 1.524 . S
C1516 C1530 1.377 . S
C1517 C1516 1.524 . S
C1517 C1518 1.397 . S
C1517 C1522 1.363 . S
C1518 H1495 0.950 . S
C1518 C1517 1.397 . S
C1518 C1519 1.334 . S
C1519 H1496 0.950 . S
C1519 C1518 1.334 . S
C1519 C1520 1.287 . S
C1520 C1519 1.287 . S
C1520 C1521 1.524 . S
C1520 H1539 0.913 . S
C1521 H1497 0.950 . S
C1521 C1520 1.524 . S
C1521 C1522 1.415 . S
C1522 H1498 0.950 . S
C1522 C1517 1.363 . S
C1522 C1521 1.415 . S
C1523 H1499 0.951 . S
C1523 C1524 1.366 . S
C1523 C1525 1.388 . S
C1524 C1523 1.366 . S
C1524 C1528 1.385 . S
C1525 H1500 0.951 . S
C1525 C1523 1.388 . S
C1525 C1526 1.366 . S
C1526 C1525 1.366 . S
C1526 C1527 1.414 . S
C1526 C1529 1.499 . S
C1527 H1501 0.950 . S
C1527 C1526 1.414 . S
C1527 C1528 1.374 . S
C1528 H1502 0.950 . S
C1528 C1524 1.385 . S
C1528 C1527 1.374 . S
C1529 C1526 1.499 . S
C1529 C1530 1.373 . S
C1529 C1531 1.389 . S
C1530 H1503 0.950 . S
C1530 C1516 1.377 . S
C1530 C1529 1.373 . S
C1531 C1515 1.377 . S
C1531 C1529 1.389 . S
C1531 C1532 1.524 . S
C1532 C1531 1.524 . S
C1532 C1533 1.397 . S
C1532 C1537 1.363 . S
C1533 H1504 0.950 . S
C1533 C1532 1.397 . S
C1533 C1534 1.334 . S
C1534 H1505 0.950 . S
C1534 C1533 1.334 . S
C1534 C1535 1.287 . S
C1535 C1534 1.287 . S
C1535 C1536 1.524 . S
C1535 H1538 0.999 . S
C1536 H1506 0.950 . S
C1536 C1535 1.524 . S
C1536 C1537 1.415 . S
C1537 H1507 0.950 . S
C1537 C1532 1.363 . S
C1537 C1536 1.415 . S
H1538 C1535 0.999 . S
H1539 C1520 0.913 . S
H1540 C1558 0.951 1_554 S
H1541 C1560 0.972 . S
H1542 C1562 0.950 . S
H1543 C1563 0.950 . S
H1544 C1565 0.950 . S
H1545 C1568 0.950 . S
H1546 C1569 0.950 . S
H1547 C1571 0.950 . S
H1548 C1572 0.950 . S
H1549 C1573 0.955 . S
H1550 C1575 0.951 . S
H1551 C1577 0.950 . S
H1552 C1578 0.950 . S
H1553 C1580 0.950 . S
H1554 C1583 0.950 . S
H1555 C1584 0.950 . S
H1556 C1586 0.950 . S
H1557 C1587 0.950 . S
C1558 H1540 0.951 1_556 S
C1558 C1559 1.366 . S
C1558 C1560 1.379 1_556 S
C1559 C1558 1.366 . S
C1559 C1563 1.385 1_545 S
C1560 H1541 0.972 . S
C1560 C1558 1.379 1_554 S
C1560 C1561 1.356 1_544 S
C1561 C1560 1.356 1_566 S
C1561 C1562 1.414 . S
C1561 C1564 1.499 . S
C1562 H1542 0.950 . S
C1562 C1561 1.414 . S
C1562 C1563 1.374 . S
C1563 H1543 0.950 . S
C1563 C1559 1.385 1_565 S
C1563 C1562 1.374 . S
C1564 C1561 1.499 . S
C1564 C1565 1.373 . S
C1564 C1566 1.389 1_556 S
C1565 H1544 0.950 . S
C1565 C1564 1.373 . S
C1565 C1581 1.377 . S
C1566 C1564 1.389 1_554 S
C1566 C1567 1.524 . S
C1566 C1580 1.377 . S
C1567 C1566 1.524 . S
C1567 C1568 1.397 . S
C1567 C1572 1.363 1_565 S
C1568 H1545 0.950 . S
C1568 C1567 1.397 . S
C1568 C1569 1.334 . S
C1569 H1546 0.950 . S
C1569 C1568 1.334 . S
C1569 C1570 1.287 1_565 S
C1570 C1569 1.287 1_545 S
C1570 C1571 1.524 . S
C1570 H1589 0.913 . S
C1571 H1547 0.950 . S
C1571 C1570 1.524 . S
C1571 C1572 1.415 . S
C1572 H1548 0.950 . S
C1572 C1567 1.363 1_545 S
C1572 C1571 1.415 . S
C1573 H1549 0.955 . S
C1573 C1574 1.358 1_556 S
C1573 C1575 1.391 . S
C1574 C1573 1.358 1_554 S
C1574 C1578 1.385 . S
C1575 H1550 0.951 . S
C1575 C1573 1.391 . S
C1575 C1576 1.366 1_556 S
C1576 C1575 1.366 1_554 S
C1576 C1577 1.414 . S
C1576 C1579 1.499 . S
C1577 H1551 0.950 . S
C1577 C1576 1.414 . S
C1577 C1578 1.374 . S
C1578 H1552 0.950 . S
C1578 C1574 1.385 . S
C1578 C1577 1.374 . S
C1579 C1576 1.499 . S
C1579 C1580 1.373 . S
C1579 C1581 1.389 1_554 S
C1580 H1553 0.950 . S
C1580 C1566 1.377 . S
C1580 C1579 1.373 . S
C1581 C1565 1.377 . S
C1581 C1579 1.389 1_556 S
C1581 C1582 1.524 . S
C1582 C1581 1.524 . S
C1582 C1583 1.397 . S
C1582 C1587 1.363 . S
C1583 H1554 0.950 . S
C1583 C1582 1.397 . S
C1583 C1584 1.334 . S
C1584 H1555 0.950 . S
C1584 C1583 1.334 . S
C1584 C1585 1.287 . S
C1585 C1584 1.287 . S
C1585 C1586 1.524 . S
C1585 H1588 0.999 . S
C1586 H1556 0.950 . S
C1586 C1585 1.524 . S
C1586 C1587 1.415 . S
C1587 H1557 0.950 . S
C1587 C1582 1.363 . S
C1587 C1586 1.415 . S
H1588 C1585 0.999 . S
H1589 C1570 0.913 . S
H1590 C1608 0.951 . S
H1591 C1610 0.951 . S
H1592 C1612 0.950 . S
H1593 C1613 0.950 . S
H1594 C1615 0.950 . S
H1595 C1618 0.950 . S
H1596 C1619 0.950 . S
H1597 C1621 0.950 . S
H1598 C1622 0.950 . S
H1599 C1623 0.951 . S
H1600 C1625 0.951 . S
H1601 C1627 0.950 . S
H1602 C1628 0.950 . S
H1603 C1630 0.950 . S
H1604 C1633 0.950 . S
H1605 C1634 0.950 . S
H1606 C1636 0.950 . S
H1607 C1637 0.950 . S
C1608 H1590 0.951 . S
C1608 C1609 1.366 . S
C1608 C1610 1.388 . S
C1609 C1608 1.366 . S
C1609 C1613 1.385 . S
C1610 H1591 0.951 . S
C1610 C1608 1.388 . S
C1610 C1611 1.366 . S
C1611 C1610 1.366 . S
C1611 C1612 1.414 . S
C1611 C1614 1.499 . S
C1612 H1592 0.950 . S
C1612 C1611 1.414 . S
C1612 C1613 1.374 . S
C1613 H1593 0.950 . S
C1613 C1609 1.385 . S
C1613 C1612 1.374 . S
C1614 C1611 1.499 . S
C1614 C1615 1.373 . S
C1614 C1616 1.389 . S
C1615 H1594 0.950 . S
C1615 C1614 1.373 . S
C1615 C1631 1.377 . S
C1616 C1614 1.389 . S
C1616 C1617 1.524 . S
C1616 C1630 1.377 . S
C1617 C1616 1.524 . S
C1617 C1618 1.397 . S
C1617 C1622 1.363 . S
C1618 H1595 0.950 . S
C1618 C1617 1.397 . S
C1618 C1619 1.334 . S
C1619 H1596 0.950 . S
C1619 C1618 1.334 . S
C1619 C1620 1.287 . S
C1620 C1619 1.287 . S
C1620 C1621 1.524 . S
C1620 H1639 0.913 . S
C1621 H1597 0.950 . S
C1621 C1620 1.524 . S
C1621 C1622 1.415 . S
C1622 H1598 0.950 . S
C1622 C1617 1.363 . S
C1622 C1621 1.415 . S
C1623 H1599 0.951 . S
C1623 C1624 1.366 . S
C1623 C1625 1.388 . S
C1624 C1623 1.366 . S
C1624 C1628 1.385 . S
C1625 H1600 0.951 . S
C1625 C1623 1.388 . S
C1625 C1626 1.366 . S
C1626 C1625 1.366 . S
C1626 C1627 1.414 . S
C1626 C1629 1.499 . S
C1627 H1601 0.950 . S
C1627 C1626 1.414 . S
C1627 C1628 1.374 . S
C1628 H1602 0.950 . S
C1628 C1624 1.385 . S
C1628 C1627 1.374 . S
C1629 C1626 1.499 . S
C1629 C1630 1.373 . S
C1629 C1631 1.389 . S
C1630 H1603 0.950 . S
C1630 C1616 1.377 . S
C1630 C1629 1.373 . S
C1631 C1615 1.377 . S
C1631 C1629 1.389 . S
C1631 C1632 1.524 . S
C1632 C1631 1.524 . S
C1632 C1633 1.397 . S
C1632 C1637 1.363 . S
C1633 H1604 0.950 . S
C1633 C1632 1.397 . S
C1633 C1634 1.334 . S
C1634 H1605 0.950 . S
C1634 C1633 1.334 . S
C1634 C1635 1.287 . S
C1635 C1634 1.287 . S
C1635 C1636 1.524 . S
C1635 H1638 0.999 . S
C1636 H1606 0.950 . S
C1636 C1635 1.524 . S
C1636 C1637 1.415 . S
C1637 H1607 0.950 . S
C1637 C1632 1.363 . S
C1637 C1636 1.415 . S
H1638 C1635 0.999 . S
H1639 C1620 0.913 . S
H1640 C1658 0.951 . S
H1641 C1660 0.951 . S
H1642 C1662 0.950 . S
H1643 C1663 0.950 1_565 S
H1644 C1665 0.950 . S
H1645 C1668 0.950 . S
H1646 C1669 0.950 . S
H1647 C1671 0.950 . S
H1648 C1672 0.950 . S
H1649 C1673 0.951 . S
H1650 C1675 0.951 . S
H1651 C1677 0.950 . S
H1652 C1678 0.950 . S
H1653 C1680 0.950 . S
H1654 C1683 0.950 . S
H1655 C1684 0.950 . S
H1656 C1686 0.950 1_565 S
H1657 C1687 0.950 . S
C1658 H1640 0.951 . S
C1658 C1659 1.366 . S
C1658 C1660 1.388 . S
C1659 C1658 1.366 . S
C1659 C1663 1.385 . S
C1660 H1641 0.951 . S
C1660 C1658 1.388 . S
C1660 C1661 1.366 . S
C1661 C1660 1.366 . S
C1661 C1662 1.414 . S
C1661 C1664 1.499 . S
C1662 H1642 0.950 . S
C1662 C1661 1.414 . S
C1662 C1663 1.374 . S
C1663 H1643 0.950 1_545 S
C1663 C1659 1.385 . S
C1663 C1662 1.374 . S
C1664 C1661 1.499 . S
C1664 C1665 1.373 . S
C1664 C1666 1.389 . S
C1665 H1644 0.950 . S
C1665 C1664 1.373 . S
C1665 C1681 1.377 . S
C1666 C1664 1.389 . S
C1666 C1667 1.524 . S
C1666 C1680 1.377 . S
C1667 C1666 1.524 . S
C1667 C1668 1.397 . S
C1667 C1672 1.363 . S
C1668 H1645 0.950 . S
C1668 C1667 1.397 . S
C1668 C1669 1.334 . S
C1669 H1646 0.950 . S
C1669 C1668 1.334 . S
C1669 C1670 1.287 . S
C1670 C1669 1.287 . S
C1670 C1671 1.524 . S
C1670 H1689 0.913 . S
C1671 H1647 0.950 . S
C1671 C1670 1.524 . S
C1671 C1672 1.415 . S
C1672 H1648 0.950 . S
C1672 C1667 1.363 . S
C1672 C1671 1.415 . S
C1673 H1649 0.951 . S
C1673 C1674 1.366 . S
C1673 C1675 1.388 . S
C1674 C1673 1.366 . S
C1674 C1678 1.385 . S
C1675 H1650 0.951 . S
C1675 C1673 1.388 . S
C1675 C1676 1.366 . S
C1676 C1675 1.366 . S
C1676 C1677 1.414 . S
C1676 C1679 1.499 . S
C1677 H1651 0.950 . S
C1677 C1676 1.414 . S
C1677 C1678 1.374 . S
C1678 H1652 0.950 . S
C1678 C1674 1.385 . S
C1678 C1677 1.374 . S
C1679 C1676 1.499 . S
C1679 C1680 1.373 . S
C1679 C1681 1.389 . S
C1680 H1653 0.950 . S
C1680 C1666 1.377 . S
C1680 C1679 1.373 . S
C1681 C1665 1.377 . S
C1681 C1679 1.389 . S
C1681 C1682 1.524 . S
C1682 C1681 1.524 . S
C1682 C1683 1.397 . S
C1682 C1687 1.363 . S
C1683 H1654 0.950 . S
C1683 C1682 1.397 . S
C1683 C1684 1.334 . S
C1684 H1655 0.950 . S
C1684 C1683 1.334 . S
C1684 C1685 1.287 . S
C1685 C1684 1.287 . S
C1685 C1686 1.524 . S
C1685 H1688 1.023 . S
C1686 H1656 0.950 1_545 S
C1686 C1685 1.524 . S
C1686 C1687 1.415 . S
C1687 H1657 0.950 . S
C1687 C1682 1.363 . S
C1687 C1686 1.415 . S
H1688 C1685 1.023 . S
H1689 C1670 0.913 . S
H1690 C1708 0.951 . S
H1691 C1710 0.951 . S
H1692 C1712 0.950 . S
H1693 C1713 0.950 . S
H1694 C1715 0.950 . S
H1695 C1718 0.950 . S
H1696 C1719 0.950 . S
H1697 C1721 0.950 . S
H1698 C1722 0.950 . S
H1699 C1723 0.951 . S
H1700 C1725 0.951 . S
H1701 C1727 0.950 . S
H1702 C1728 0.950 . S
H1703 C1730 0.950 . S
H1704 C1733 0.950 . S
H1705 C1734 0.950 . S
H1706 C1736 0.950 . S
H1707 C1737 0.950 . S
C1708 H1690 0.951 . S
C1708 C1709 1.366 . S
C1708 C1710 1.388 . S
C1709 C1708 1.366 . S
C1709 C1713 1.385 . S
C1710 H1691 0.951 . S
C1710 C1708 1.388 . S
C1710 C1711 1.366 . S
C1711 C1710 1.366 . S
C1711 C1712 1.414 . S
C1711 C1714 1.499 . S
C1712 H1692 0.950 . S
C1712 C1711 1.414 . S
C1712 C1713 1.374 . S
C1713 H1693 0.950 . S
C1713 C1709 1.385 . S
C1713 C1712 1.374 . S
C1714 C1711 1.499 . S
C1714 C1715 1.373 . S
C1714 C1716 1.389 . S
C1715 H1694 0.950 . S
C1715 C1714 1.373 . S
C1715 C1731 1.377 . S
C1716 C1714 1.389 . S
C1716 C1717 1.524 . S
C1716 C1730 1.377 . S
C1717 C1716 1.524 . S
C1717 C1718 1.397 . S
C1717 C1722 1.363 . S
C1718 H1695 0.950 . S
C1718 C1717 1.397 . S
C1718 C1719 1.334 . S
C1719 H1696 0.950 . S
C1719 C1718 1.334 . S
C1719 C1720 1.287 . S
C1720 C1719 1.287 . S
C1720 C1721 1.524 . S
C1720 H1739 0.913 . S
C1721 H1697 0.950 . S
C1721 C1720 1.524 . S
C1721 C1722 1.415 . S
C1722 H1698 0.950 . S
C1722 C1717 1.363 . S
C1722 C1721 1.415 . S
C1723 H1699 0.951 . S
C1723 C1724 1.366 . S
C1723 C1725 1.388 . S
C1724 C1723 1.366 . S
C1724 C1728 1.385 . S
C1725 H1700 0.951 . S
C1725 C1723 1.388 . S
C1725 C1726 1.366 . S
C1726 C1725 1.366 . S
C1726 C1727 1.414 . S
C1726 C1729 1.499 . S
C1727 H1701 0.950 . S
C1727 C1726 1.414 . S
C1727 C1728 1.374 . S
C1728 H1702 0.950 . S
C1728 C1724 1.385 . S
C1728 C1727 1.374 . S
C1729 C1726 1.499 . S
C1729 C1730 1.373 . S
C1729 C1731 1.389 . S
C1730 H1703 0.950 . S
C1730 C1716 1.377 . S
C1730 C1729 1.373 . S
C1731 C1715 1.377 . S
C1731 C1729 1.389 . S
C1731 C1732 1.524 . S
C1732 C1731 1.524 . S
C1732 C1733 1.397 . S
C1732 C1737 1.363 . S
C1733 H1704 0.950 . S
C1733 C1732 1.397 . S
C1733 C1734 1.334 . S
C1734 H1705 0.950 . S
C1734 C1733 1.334 . S
C1734 C1735 1.287 . S
C1735 C1734 1.287 . S
C1735 C1736 1.524 . S
C1735 H1738 0.999 . S
C1736 H1706 0.950 . S
C1736 C1735 1.524 . S
C1736 C1737 1.415 . S
C1737 H1707 0.950 . S
C1737 C1732 1.363 . S
C1737 C1736 1.415 . S
H1738 C1735 0.999 . S
H1739 C1720 0.913 . S
H1740 C1758 0.951 . S
H1741 C1760 0.960 . S
H1742 C1762 0.950 . S
H1743 C1763 0.950 . S
H1744 C1765 0.950 . S
H1745 C1768 0.950 . S
H1746 C1769 0.950 . S
H1747 C1771 0.950 . S
H1748 C1772 0.950 . S
H1749 C1773 0.951 . S
H1750 C1775 0.951 . S
H1751 C1777 0.950 . S
H1752 C1778 0.950 . S
H1753 C1780 0.950 . S
H1754 C1783 0.950 . S
H1755 C1784 0.950 . S
H1756 C1786 0.950 . S
H1757 C1787 0.950 . S
C1758 H1740 0.951 . S
C1758 C1759 1.366 1_565 S
C1758 C1760 1.388 1_565 S
C1759 C1758 1.366 1_545 S
C1759 C1763 1.385 . S
C1760 H1741 0.960 . S
C1760 C1758 1.388 1_545 S
C1760 C1761 1.366 . S
C1761 C1760 1.366 . S
C1761 C1762 1.414 . S
C1761 C1764 1.499 . S
C1762 H1742 0.950 . S
C1762 C1761 1.414 . S
C1762 C1763 1.374 . S
C1763 H1743 0.950 . S
C1763 C1759 1.385 . S
C1763 C1762 1.374 . S
C1764 C1761 1.499 . S
C1764 C1765 1.373 . S
C1764 C1766 1.389 . S
C1765 H1744 0.950 . S
C1765 C1764 1.373 . S
C1765 C1781 1.377 . S
C1766 C1764 1.389 . S
C1766 C1767 1.524 . S
C1766 C1780 1.377 . S
C1767 C1766 1.524 . S
C1767 C1768 1.397 . S
C1767 C1772 1.363 . S
C1768 H1745 0.950 . S
C1768 C1767 1.397 . S
C1768 C1769 1.334 . S
C1769 H1746 0.950 . S
C1769 C1768 1.334 . S
C1769 C1770 1.270 1_545 S
C1770 C1769 1.270 1_565 S
C1770 C1771 1.529 . S
C1770 H1789 0.932 . S
C1771 H1747 0.950 . S
C1771 C1770 1.529 . S
C1771 C1772 1.415 1_565 S
C1772 H1748 0.950 . S
C1772 C1767 1.363 . S
C1772 C1771 1.415 1_545 S
C1773 H1749 0.951 . S
C1773 C1774 1.366 . S
C1773 C1775 1.388 . S
C1774 C1773 1.366 . S
C1774 C1778 1.385 . S
C1775 H1750 0.951 . S
C1775 C1773 1.388 . S
C1775 C1776 1.366 . S
C1776 C1775 1.366 . S
C1776 C1777 1.414 . S
C1776 C1779 1.499 . S
C1777 H1751 0.950 . S
C1777 C1776 1.414 . S
C1777 C1778 1.374 . S
C1778 H1752 0.950 . S
C1778 C1774 1.385 . S
C1778 C1777 1.374 . S
C1779 C1776 1.499 . S
C1779 C1780 1.373 . S
C1779 C1781 1.389 . S
C1780 H1753 0.950 . S
C1780 C1766 1.377 . S
C1780 C1779 1.373 . S
C1781 C1765 1.377 . S
C1781 C1779 1.389 . S
C1781 C1782 1.524 . S
C1782 C1781 1.524 . S
C1782 C1783 1.397 . S
C1782 C1787 1.363 . S
C1783 H1754 0.950 . S
C1783 C1782 1.397 . S
C1783 C1784 1.334 . S
C1784 H1755 0.950 . S
C1784 C1783 1.334 . S
C1784 C1785 1.287 . S
C1785 C1784 1.287 . S
C1785 C1786 1.524 . S
C1785 H1788 0.999 . S
C1786 H1756 0.950 . S
C1786 C1785 1.524 . S
C1786 C1787 1.415 . S
C1787 H1757 0.950 . S
C1787 C1782 1.363 . S
C1787 C1786 1.415 . S
H1788 C1785 0.999 . S
H1789 C1770 0.932 . S
H1790 C1808 0.951 . S
H1791 C1810 0.951 . S
H1792 C1812 0.950 . S
H1793 C1813 0.950 . S
H1794 C1815 0.950 . S
H1795 C1818 0.950 . S
H1796 C1819 0.950 . S
H1797 C1821 0.950 . S
H1798 C1822 0.950 . S
H1799 C1823 0.951 . S
H1800 C1825 0.951 . S
H1801 C1827 0.950 . S
H1802 C1828 0.950 . S
H1803 C1830 0.950 . S
H1804 C1833 0.950 . S
H1805 C1834 0.950 . S
H1806 C1836 0.950 . S
H1807 C1837 0.950 . S
C1808 H1790 0.951 . S
C1808 C1809 1.366 . S
C1808 C1810 1.388 . S
C1809 C1808 1.366 . S
C1809 C1813 1.385 . S
C1810 H1791 0.951 . S
C1810 C1808 1.388 . S
C1810 C1811 1.366 . S
C1811 C1810 1.366 . S
C1811 C1812 1.414 . S
C1811 C1814 1.499 . S
C1812 H1792 0.950 . S
C1812 C1811 1.414 . S
C1812 C1813 1.374 . S
C1813 H1793 0.950 . S
C1813 C1809 1.385 . S
C1813 C1812 1.374 . S
C1814 C1811 1.499 . S
C1814 C1815 1.373 . S
C1814 C1816 1.389 . S
C1815 H1794 0.950 . S
C1815 C1814 1.373 . S
C1815 C1831 1.377 . S
C1816 C1814 1.389 . S
C1816 C1817 1.524 . S
C1816 C1830 1.377 . S
C1817 C1816 1.524 . S
C1817 C1818 1.397 . S
C1817 C1822 1.363 . S
C1818 H1795 0.950 . S
C1818 C1817 1.397 . S
C1818 C1819 1.334 . S
C1819 H1796 0.950 . S
C1819 C1818 1.334 . S
C1819 C1820 1.287 . S
C1820 C1819 1.287 . S
C1820 C1821 1.524 . S
C1820 H1839 0.913 . S
C1821 H1797 0.950 . S
C1821 C1820 1.524 . S
C1821 C1822 1.415 . S
C1822 H1798 0.950 . S
C1822 C1817 1.363 . S
C1822 C1821 1.415 . S
C1823 H1799 0.951 . S
C1823 C1824 1.366 . S
C1823 C1825 1.388 . S
C1824 C1823 1.366 . S
C1824 C1828 1.385 . S
C1825 H1800 0.951 . S
C1825 C1823 1.388 . S
C1825 C1826 1.366 . S
C1826 C1825 1.366 . S
C1826 C1827 1.414 . S
C1826 C1829 1.499 . S
C1827 H1801 0.950 . S
C1827 C1826 1.414 . S
C1827 C1828 1.374 . S
C1828 H1802 0.950 . S
C1828 C1824 1.385 . S
C1828 C1827 1.374 . S
C1829 C1826 1.499 . S
C1829 C1830 1.373 . S
C1829 C1831 1.389 . S
C1830 H1803 0.950 . S
C1830 C1816 1.377 . S
C1830 C1829 1.373 . S
C1831 C1815 1.377 . S
C1831 C1829 1.389 . S
C1831 C1832 1.524 . S
C1832 C1831 1.524 . S
C1832 C1833 1.397 . S
C1832 C1837 1.363 . S
C1833 H1804 0.950 . S
C1833 C1832 1.397 . S
C1833 C1834 1.334 . S
C1834 H1805 0.950 . S
C1834 C1833 1.334 . S
C1834 C1835 1.287 . S
C1835 C1834 1.287 . S
C1835 C1836 1.524 . S
C1835 H1838 0.999 . S
C1836 H1806 0.950 . S
C1836 C1835 1.524 . S
C1836 C1837 1.415 . S
C1837 H1807 0.950 . S
C1837 C1832 1.363 . S
C1837 C1836 1.415 . S
H1838 C1835 0.999 . S
H1839 C1820 0.913 . S
H1840 C1858 0.951 . S
H1841 C1860 0.951 . S
H1842 C1862 0.950 . S
H1843 C1863 0.950 . S
H1844 C1865 0.950 . S
H1845 C1868 0.950 . S
H1846 C1869 0.950 . S
H1847 C1871 0.950 . S
H1848 C1872 0.950 . S
H1849 C1873 0.951 . S
H1850 C1875 0.951 . S
H1851 C1877 0.950 . S
H1852 C1878 0.950 . S
H1853 C1880 0.950 . S
H1854 C1883 0.950 . S
H1855 C1884 0.950 . S
H1856 C1886 0.950 . S
H1857 C1887 0.950 . S
C1858 H1840 0.951 . S
C1858 C1859 1.366 . S
C1858 C1860 1.388 . S
C1859 C1858 1.366 . S
C1859 C1863 1.385 . S
C1860 H1841 0.951 . S
C1860 C1858 1.388 . S
C1860 C1861 1.366 . S
C1861 C1860 1.366 . S
C1861 C1862 1.414 . S
C1861 C1864 1.499 . S
C1862 H1842 0.950 . S
C1862 C1861 1.414 . S
C1862 C1863 1.374 . S
C1863 H1843 0.950 . S
C1863 C1859 1.385 . S
C1863 C1862 1.374 . S
C1864 C1861 1.499 . S
C1864 C1865 1.373 . S
C1864 C1866 1.389 . S
C1865 H1844 0.950 . S
C1865 C1864 1.373 . S
C1865 C1881 1.377 . S
C1866 C1864 1.389 . S
C1866 C1867 1.524 . S
C1866 C1880 1.377 . S
C1867 C1866 1.524 . S
C1867 C1868 1.397 . S
C1867 C1872 1.363 . S
C1868 H1845 0.950 . S
C1868 C1867 1.397 . S
C1868 C1869 1.334 . S
C1869 H1846 0.950 . S
C1869 C1868 1.334 . S
C1869 C1870 1.287 . S
C1870 C1869 1.287 . S
C1870 C1871 1.524 . S
C1870 H1889 0.913 . S
C1871 H1847 0.950 . S
C1871 C1870 1.524 . S
C1871 C1872 1.415 . S
C1872 H1848 0.950 . S
C1872 C1867 1.363 . S
C1872 C1871 1.415 . S
C1873 H1849 0.951 . S
C1873 C1874 1.366 . S
C1873 C1875 1.388 . S
C1874 C1873 1.366 . S
C1874 C1878 1.385 . S
C1875 H1850 0.951 . S
C1875 C1873 1.388 . S
C1875 C1876 1.366 . S
C1876 C1875 1.366 . S
C1876 C1877 1.414 . S
C1876 C1879 1.499 . S
C1877 H1851 0.950 . S
C1877 C1876 1.414 . S
C1877 C1878 1.374 . S
C1878 H1852 0.950 . S
C1878 C1874 1.385 . S
C1878 C1877 1.374 . S
C1879 C1876 1.499 . S
C1879 C1880 1.373 . S
C1879 C1881 1.389 . S
C1880 H1853 0.950 . S
C1880 C1866 1.377 . S
C1880 C1879 1.373 . S
C1881 C1865 1.377 . S
C1881 C1879 1.389 . S
C1881 C1882 1.524 . S
C1882 C1881 1.524 . S
C1882 C1883 1.397 . S
C1882 C1887 1.363 . S
C1883 H1854 0.950 . S
C1883 C1882 1.397 . S
C1883 C1884 1.334 . S
C1884 H1855 0.950 . S
C1884 C1883 1.334 . S
C1884 C1885 1.287 . S
C1885 C1884 1.287 . S
C1885 C1886 1.524 . S
C1885 H1888 0.999 . S
C1886 H1856 0.950 . S
C1886 C1885 1.524 . S
C1886 C1887 1.415 . S
C1887 H1857 0.950 . S
C1887 C1882 1.363 . S
C1887 C1886 1.415 . S
H1888 C1885 0.999 . S
H1889 C1870 0.913 . S
H1890 C1908 0.951 . S
H1891 C1910 0.951 . S
H1892 C1912 0.950 . S
H1893 C1913 0.950 . S
H1894 C1915 0.950 . S
H1895 C1918 0.950 . S
H1896 C1919 0.950 . S
H1897 C1921 0.950 . S
H1898 C1922 0.950 . S
H1899 C1923 0.951 . S
H1900 C1925 0.951 . S
H1901 C1927 0.950 . S
H1902 C1928 0.950 . S
H1903 C1930 0.950 . S
H1904 C1933 0.950 1_565 S
H1905 C1934 0.950 . S
H1906 C1936 0.950 . S
H1907 C1937 0.950 . S
C1908 H1890 0.951 . S
C1908 C1909 1.366 . S
C1908 C1910 1.388 . S
C1909 C1908 1.366 . S
C1909 C1913 1.385 . S
C1910 H1891 0.951 . S
C1910 C1908 1.388 . S
C1910 C1911 1.366 . S
C1911 C1910 1.366 . S
C1911 C1912 1.414 . S
C1911 C1914 1.499 . S
C1912 H1892 0.950 . S
C1912 C1911 1.414 . S
C1912 C1913 1.374 . S
C1913 H1893 0.950 . S
C1913 C1909 1.385 . S
C1913 C1912 1.374 . S
C1914 C1911 1.499 . S
C1914 C1915 1.373 . S
C1914 C1916 1.389 . S
C1915 H1894 0.950 . S
C1915 C1914 1.373 . S
C1915 C1931 1.377 . S
C1916 C1914 1.389 . S
C1916 C1917 1.524 . S
C1916 C1930 1.377 . S
C1917 C1916 1.524 . S
C1917 C1918 1.397 . S
C1917 C1922 1.363 . S
C1918 H1895 0.950 . S
C1918 C1917 1.397 . S
C1918 C1919 1.334 . S
C1919 H1896 0.950 . S
C1919 C1918 1.334 . S
C1919 C1920 1.287 . S
C1920 C1919 1.287 . S
C1920 C1921 1.524 . S
C1920 H1939 0.913 . S
C1921 H1897 0.950 . S
C1921 C1920 1.524 . S
C1921 C1922 1.415 . S
C1922 H1898 0.950 . S
C1922 C1917 1.363 . S
C1922 C1921 1.415 . S
C1923 H1899 0.951 . S
C1923 C1924 1.366 . S
C1923 C1925 1.388 . S
C1924 C1923 1.366 . S
C1924 C1928 1.385 . S
C1925 H1900 0.951 . S
C1925 C1923 1.388 . S
C1925 C1926 1.366 . S
C1926 C1925 1.366 . S
C1926 C1927 1.414 . S
C1926 C1929 1.499 . S
C1927 H1901 0.950 . S
C1927 C1926 1.414 . S
C1927 C1928 1.374 . S
C1928 H1902 0.950 . S
C1928 C1924 1.385 . S
C1928 C1927 1.374 . S
C1929 C1926 1.499 . S
C1929 C1930 1.373 . S
C1929 C1931 1.389 . S
C1930 H1903 0.950 . S
C1930 C1916 1.377 . S
C1930 C1929 1.373 . S
C1931 C1915 1.377 . S
C1931 C1929 1.389 . S
C1931 C1932 1.524 . S
C1932 C1931 1.524 . S
C1932 C1933 1.397 . S
C1932 C1937 1.363 . S
C1933 H1904 0.950 1_545 S
C1933 C1932 1.397 . S
C1933 C1934 1.334 1_545 S
C1934 H1905 0.950 . S
C1934 C1933 1.334 1_565 S
C1934 C1935 1.287 1_565 S
C1935 C1934 1.287 1_545 S
C1935 C1936 1.524 . S
C1935 H1938 0.999 1_545 S
C1936 H1906 0.950 . S
C1936 C1935 1.524 . S
C1936 C1937 1.415 . S
C1937 H1907 0.950 . S
C1937 C1932 1.363 . S
C1937 C1936 1.415 . S
H1938 C1935 0.999 1_565 S
H1939 C1920 0.913 . S
H1940 C1958 0.951 . S
H1941 C1960 0.951 . S
H1942 C1962 0.950 . S
H1943 C1963 0.950 . S
H1944 C1965 0.950 . S
H1945 C1968 0.950 . S
H1946 C1969 0.950 . S
H1947 C1971 0.950 . S
H1948 C1972 0.950 . S
H1949 C1973 0.951 . S
H1950 C1975 0.951 . S
H1951 C1977 0.950 . S
H1952 C1978 0.950 . S
H1953 C1980 0.950 . S
H1954 C1983 0.950 . S
H1955 C1984 0.950 . S
H1956 C1986 0.950 . S
H1957 C1987 0.950 . S
C1958 H1940 0.951 . S
C1958 C1959 1.366 . S
C1958 C1960 1.388 . S
C1959 C1958 1.366 . S
C1959 C1963 1.385 . S
C1960 H1941 0.951 . S
C1960 C1958 1.388 . S
C1960 C1961 1.366 . S
C1961 C1960 1.366 . S
C1961 C1962 1.414 . S
C1961 C1964 1.499 . S
C1962 H1942 0.950 . S
C1962 C1961 1.414 . S
C1962 C1963 1.374 . S
C1963 H1943 0.950 . S
C1963 C1959 1.385 . S
C1963 C1962 1.374 . S
C1964 C1961 1.499 . S
C1964 C1965 1.373 . S
C1964 C1966 1.389 . S
C1965 H1944 0.950 . S
C1965 C1964 1.373 . S
C1965 C1981 1.377 . S
C1966 C1964 1.389 . S
C1966 C1967 1.524 . S
C1966 C1980 1.377 . S
C1967 C1966 1.524 . S
C1967 C1968 1.397 . S
C1967 C1972 1.363 . S
C1968 H1945 0.950 . S
C1968 C1967 1.397 . S
C1968 C1969 1.334 . S
C1969 H1946 0.950 . S
C1969 C1968 1.334 . S
C1969 C1970 1.287 . S
C1970 C1969 1.287 . S
C1970 C1971 1.524 . S
C1970 H1989 0.913 . S
C1971 H1947 0.950 . S
C1971 C1970 1.524 . S
C1971 C1972 1.415 . S
C1972 H1948 0.950 . S
C1972 C1967 1.363 . S
C1972 C1971 1.415 . S
C1973 H1949 0.951 . S
C1973 C1974 1.366 . S
C1973 C1975 1.388 . S
C1974 C1973 1.366 . S
C1974 C1978 1.385 . S
C1975 H1950 0.951 . S
C1975 C1973 1.388 . S
C1975 C1976 1.366 . S
C1976 C1975 1.366 . S
C1976 C1977 1.414 . S
C1976 C1979 1.499 . S
C1977 H1951 0.950 . S
C1977 C1976 1.414 . S
C1977 C1978 1.374 . S
C1978 H1952 0.950 . S
C1978 C1974 1.385 . S
C1978 C1977 1.374 . S
C1979 C1976 1.499 . S
C1979 C1980 1.373 . S
C1979 C1981 1.389 . S
C1980 H1953 0.950 . S
C1980 C1966 1.377 . S
C1980 C1979 1.373 . S
C1981 C1965 1.377 . S
C1981 C1979 1.389 . S
C1981 C1982 1.524 . S
C1982 C1981 1.524 . S
C1982 C1983 1.397 . S
C1982 C1987 1.363 . S
C1983 H1954 0.950 . S
C1983 C1982 1.397 . S
C1983 C1984 1.334 . S
C1984 H1955 0.950 . S
C1984 C1983 1.334 . S
C1984 C1985 1.287 . S
C1985 C1984 1.287 . S
C1985 C1986 1.524 . S
C1985 H1988 0.999 . S
C1986 H1956 0.950 . S
C1986 C1985 1.524 . S
C1986 C1987 1.415 . S
C1987 H1957 0.950 . S
C1987 C1982 1.363 . S
C1987 C1986 1.415 . S
H1988 C1985 0.999 . S
H1989 C1970 0.913 . S
H1990 C2008 0.951 . S
H1991 C2010 0.951 . S
H1992 C2012 0.950 . S
H1993 C2013 0.950 . S
H1994 C2015 0.950 . S
H1995 C2018 0.950 . S
H1996 C2019 0.950 . S
H1997 C2021 0.950 . S
H1998 C2022 0.950 . S
H1999 C2023 0.951 . S
H2000 C2025 0.951 . S
H2001 C2027 0.950 . S
H2002 C2028 0.950 . S
H2003 C2030 0.950 . S
H2004 C2033 0.950 . S
H2005 C2034 0.950 . S
H2006 C2036 0.950 . S
H2007 C2037 0.950 . S
C2008 H1990 0.951 . S
C2008 C2009 1.366 . S
C2008 C2010 1.388 . S
C2009 C2008 1.366 . S
C2009 C2013 1.385 . S
C2010 H1991 0.951 . S
C2010 C2008 1.388 . S
C2010 C2011 1.366 . S
C2011 C2010 1.366 . S
C2011 C2012 1.414 . S
C2011 C2014 1.499 . S
C2012 H1992 0.950 . S
C2012 C2011 1.414 . S
C2012 C2013 1.374 . S
C2013 H1993 0.950 . S
C2013 C2009 1.385 . S
C2013 C2012 1.374 . S
C2014 C2011 1.499 . S
C2014 C2015 1.373 . S
C2014 C2016 1.389 . S
C2015 H1994 0.950 . S
C2015 C2014 1.373 . S
C2015 C2031 1.377 . S
C2016 C2014 1.389 . S
C2016 C2017 1.524 . S
C2016 C2030 1.377 . S
C2017 C2016 1.524 . S
C2017 C2018 1.397 . S
C2017 C2022 1.363 . S
C2018 H1995 0.950 . S
C2018 C2017 1.397 . S
C2018 C2019 1.334 . S
C2019 H1996 0.950 . S
C2019 C2018 1.334 . S
C2019 C2020 1.287 . S
C2020 C2019 1.287 . S
C2020 C2021 1.524 . S
C2020 H2039 0.913 . S
C2021 H1997 0.950 . S
C2021 C2020 1.524 . S
C2021 C2022 1.415 . S
C2022 H1998 0.950 . S
C2022 C2017 1.363 . S
C2022 C2021 1.415 . S
C2023 H1999 0.951 . S
C2023 C2024 1.366 . S
C2023 C2025 1.388 . S
C2024 C2023 1.366 . S
C2024 C2028 1.385 . S
C2025 H2000 0.951 . S
C2025 C2023 1.388 . S
C2025 C2026 1.366 . S
C2026 C2025 1.366 . S
C2026 C2027 1.414 . S
C2026 C2029 1.499 . S
C2027 H2001 0.950 . S
C2027 C2026 1.414 . S
C2027 C2028 1.374 . S
C2028 H2002 0.950 . S
C2028 C2024 1.385 . S
C2028 C2027 1.374 . S
C2029 C2026 1.499 . S
C2029 C2030 1.373 . S
C2029 C2031 1.389 . S
C2030 H2003 0.950 . S
C2030 C2016 1.377 . S
C2030 C2029 1.373 . S
C2031 C2015 1.377 . S
C2031 C2029 1.389 . S
C2031 C2032 1.524 . S
C2032 C2031 1.524 . S
C2032 C2033 1.397 . S
C2032 C2037 1.363 . S
C2033 H2004 0.950 . S
C2033 C2032 1.397 . S
C2033 C2034 1.334 . S
C2034 H2005 0.950 . S
C2034 C2033 1.334 . S
C2034 C2035 1.287 . S
C2035 C2034 1.287 . S
C2035 C2036 1.524 . S
C2035 H2038 0.999 . S
C2036 H2006 0.950 . S
C2036 C2035 1.524 . S
C2036 C2037 1.415 . S
C2037 H2007 0.950 . S
C2037 C2032 1.363 . S
C2037 C2036 1.415 . S
H2038 C2035 0.999 . S
H2039 C2020 0.913 . S
H2040 C2058 0.951 . S
H2041 C2060 0.951 . S
H2042 C2062 0.950 . S
H2043 C2063 0.950 . S
H2044 C2065 0.950 . S
H2045 C2068 0.950 . S
H2046 C2069 0.950 . S
H2047 C2071 0.950 . S
H2048 C2072 0.950 . S
H2049 C2073 0.951 . S
H2050 C2075 0.951 . S
H2051 C2077 0.950 . S
H2052 C2078 0.950 . S
H2053 C2080 0.950 . S
H2054 C2083 0.950 . S
H2055 C2084 0.950 . S
H2056 C2086 0.950 . S
H2057 C2087 0.950 . S
C2058 H2040 0.951 . S
C2058 C2059 1.366 . S
C2058 C2060 1.388 . S
C2059 C2058 1.366 . S
C2059 C2063 1.385 . S
C2060 H2041 0.951 . S
C2060 C2058 1.388 . S
C2060 C2061 1.366 . S
C2061 C2060 1.366 . S
C2061 C2062 1.414 . S
C2061 C2064 1.499 . S
C2062 H2042 0.950 . S
C2062 C2061 1.414 . S
C2062 C2063 1.374 . S
C2063 H2043 0.950 . S
C2063 C2059 1.385 . S
C2063 C2062 1.374 . S
C2064 C2061 1.499 . S
C2064 C2065 1.373 . S
C2064 C2066 1.389 . S
C2065 H2044 0.950 . S
C2065 C2064 1.373 . S
C2065 C2081 1.377 . S
C2066 C2064 1.389 . S
C2066 C2067 1.524 . S
C2066 C2080 1.377 . S
C2067 C2066 1.524 . S
C2067 C2068 1.397 . S
C2067 C2072 1.363 . S
C2068 H2045 0.950 . S
C2068 C2067 1.397 . S
C2068 C2069 1.334 . S
C2069 H2046 0.950 . S
C2069 C2068 1.334 . S
C2069 C2070 1.287 . S
C2070 C2069 1.287 . S
C2070 C2071 1.524 . S
C2070 H2089 0.913 . S
C2071 H2047 0.950 . S
C2071 C2070 1.524 . S
C2071 C2072 1.415 . S
C2072 H2048 0.950 . S
C2072 C2067 1.363 . S
C2072 C2071 1.415 . S
C2073 H2049 0.951 . S
C2073 C2074 1.366 . S
C2073 C2075 1.388 . S
C2074 C2073 1.366 . S
C2074 C2078 1.385 . S
C2075 H2050 0.951 . S
C2075 C2073 1.388 . S
C2075 C2076 1.366 . S
C2076 C2075 1.366 . S
C2076 C2077 1.414 . S
C2076 C2079 1.499 . S
C2077 H2051 0.950 . S
C2077 C2076 1.414 . S
C2077 C2078 1.374 . S
C2078 H2052 0.950 . S
C2078 C2074 1.385 . S
C2078 C2077 1.374 . S
C2079 C2076 1.499 . S
C2079 C2080 1.373 . S
C2079 C2081 1.389 . S
C2080 H2053 0.950 . S
C2080 C2066 1.377 . S
C2080 C2079 1.373 . S
C2081 C2065 1.377 . S
C2081 C2079 1.389 . S
C2081 C2082 1.524 . S
C2082 C2081 1.524 . S
C2082 C2083 1.397 . S
C2082 C2087 1.363 . S
C2083 H2054 0.950 . S
C2083 C2082 1.397 . S
C2083 C2084 1.334 . S
C2084 H2055 0.950 . S
C2084 C2083 1.334 . S
C2084 C2085 1.287 . S
C2085 C2084 1.287 . S
C2085 C2086 1.524 . S
C2085 H2088 0.999 . S
C2086 H2056 0.950 . S
C2086 C2085 1.524 . S
C2086 C2087 1.415 . S
C2087 H2057 0.950 . S
C2087 C2082 1.363 . S
C2087 C2086 1.415 . S
H2088 C2085 0.999 . S
H2089 C2070 0.913 . S
H2090 C2108 0.951 . S
H2091 C2110 0.951 . S
H2092 C2112 0.950 . S
H2093 C2113 0.950 . S
H2094 C2115 0.950 . S
H2095 C2118 0.950 . S
H2096 C2119 0.950 . S
H2097 C2121 0.950 . S
H2098 C2122 0.950 . S
H2099 C2123 0.951 . S
H2100 C2125 0.951 . S
H2101 C2127 0.950 . S
H2102 C2128 0.950 . S
H2103 C2130 0.950 . S
H2104 C2133 0.950 . S
H2105 C2134 0.950 . S
H2106 C2136 0.950 . S
H2107 C2137 0.950 . S
C2108 H2090 0.951 . S
C2108 C2109 1.366 . S
C2108 C2110 1.388 . S
C2109 C2108 1.366 . S
C2109 C2113 1.385 1_655 S
C2110 H2091 0.951 . S
C2110 C2108 1.388 . S
C2110 C2111 1.366 . S
C2111 C2110 1.366 . S
C2111 C2112 1.414 . S
C2111 C2114 1.499 . S
C2112 H2092 0.950 . S
C2112 C2111 1.414 . S
C2112 C2113 1.374 1_655 S
C2113 H2093 0.950 . S
C2113 C2109 1.385 1_455 S
C2113 C2112 1.374 1_455 S
C2114 C2111 1.499 . S
C2114 C2115 1.373 1_545 S
C2114 C2116 1.389 . S
C2115 H2094 0.950 . S
C2115 C2114 1.373 1_565 S
C2115 C2131 1.377 . S
C2116 C2114 1.389 . S
C2116 C2117 1.524 . S
C2116 C2130 1.377 . S
C2117 C2116 1.524 . S
C2117 C2118 1.397 . S
C2117 C2122 1.363 . S
C2118 H2095 0.950 . S
C2118 C2117 1.397 . S
C2118 C2119 1.334 . S
C2119 H2096 0.950 . S
C2119 C2118 1.334 . S
C2119 C2120 1.287 . S
C2120 C2119 1.287 . S
C2120 C2121 1.524 . S
C2120 H2139 0.913 . S
C2121 H2097 0.950 . S
C2121 C2120 1.524 . S
C2121 C2122 1.415 . S
C2122 H2098 0.950 . S
C2122 C2117 1.363 . S
C2122 C2121 1.415 . S
C2123 H2099 0.951 . S
C2123 C2124 1.366 . S
C2123 C2125 1.388 . S
C2124 C2123 1.366 . S
C2124 C2128 1.385 . S
C2125 H2100 0.951 . S
C2125 C2123 1.388 . S
C2125 C2126 1.366 . S
C2126 C2125 1.366 . S
C2126 C2127 1.414 . S
C2126 C2129 1.499 . S
C2127 H2101 0.950 . S
C2127 C2126 1.414 . S
C2127 C2128 1.374 . S
C2128 H2102 0.950 . S
C2128 C2124 1.385 . S
C2128 C2127 1.374 . S
C2129 C2126 1.499 . S
C2129 C2130 1.373 . S
C2129 C2131 1.389 1_545 S
C2130 H2103 0.950 . S
C2130 C2116 1.377 . S
C2130 C2129 1.373 . S
C2131 C2115 1.377 . S
C2131 C2129 1.389 1_565 S
C2131 C2132 1.524 . S
C2132 C2131 1.524 . S
C2132 C2133 1.397 . S
C2132 C2137 1.363 . S
C2133 H2104 0.950 . S
C2133 C2132 1.397 . S
C2133 C2134 1.334 . S
C2134 H2105 0.950 . S
C2134 C2133 1.334 . S
C2134 C2135 1.287 . S
C2135 C2134 1.287 . S
C2135 C2136 1.524 . S
C2135 H2138 0.999 . S
C2136 H2106 0.950 . S
C2136 C2135 1.524 . S
C2136 C2137 1.415 . S
C2137 H2107 0.950 . S
C2137 C2132 1.363 . S
C2137 C2136 1.415 . S
H2138 C2135 0.999 . S
H2139 C2120 0.913 . S
H2140 C2158 0.951 . S
H2141 C2160 0.951 . S
H2142 C2162 0.950 . S
H2143 C2163 0.950 . S
H2144 C2165 0.950 . S
H2145 C2168 0.950 . S
H2146 C2169 0.950 . S
H2147 C2171 0.950 . S
H2148 C2172 0.950 . S
H2149 C2173 0.951 . S
H2150 C2175 0.951 . S
H2151 C2177 0.950 . S
H2152 C2178 0.950 . S
H2153 C2180 0.950 . S
H2154 C2183 0.950 . S
H2155 C2184 0.950 . S
H2156 C2186 0.950 . S
H2157 C2187 0.950 . S
C2158 H2140 0.951 . S
C2158 C2159 1.366 . S
C2158 C2160 1.388 . S
C2159 C2158 1.366 . S
C2159 C2163 1.385 . S
C2160 H2141 0.951 . S
C2160 C2158 1.388 . S
C2160 C2161 1.366 . S
C2161 C2160 1.366 . S
C2161 C2162 1.414 . S
C2161 C2164 1.499 . S
C2162 H2142 0.950 . S
C2162 C2161 1.414 . S
C2162 C2163 1.374 . S
C2163 H2143 0.950 . S
C2163 C2159 1.385 . S
C2163 C2162 1.374 . S
C2164 C2161 1.499 . S
C2164 C2165 1.373 . S
C2164 C2166 1.389 . S
C2165 H2144 0.950 . S
C2165 C2164 1.373 . S
C2165 C2181 1.377 . S
C2166 C2164 1.389 . S
C2166 C2167 1.524 . S
C2166 C2180 1.377 . S
C2167 C2166 1.524 . S
C2167 C2168 1.397 . S
C2167 C2172 1.363 . S
C2168 H2145 0.950 . S
C2168 C2167 1.397 . S
C2168 C2169 1.334 . S
C2169 H2146 0.950 . S
C2169 C2168 1.334 . S
C2169 C2170 1.287 . S
C2170 C2169 1.287 . S
C2170 C2171 1.524 . S
C2170 H2189 0.913 . S
C2171 H2147 0.950 . S
C2171 C2170 1.524 . S
C2171 C2172 1.415 . S
C2172 H2148 0.950 . S
C2172 C2167 1.363 . S
C2172 C2171 1.415 . S
C2173 H2149 0.951 . S
C2173 C2174 1.366 . S
C2173 C2175 1.388 . S
C2174 C2173 1.366 . S
C2174 C2178 1.385 . S
C2175 H2150 0.951 . S
C2175 C2173 1.388 . S
C2175 C2176 1.366 . S
C2176 C2175 1.366 . S
C2176 C2177 1.414 . S
C2176 C2179 1.499 . S
C2177 H2151 0.950 . S
C2177 C2176 1.414 . S
C2177 C2178 1.374 . S
C2178 H2152 0.950 . S
C2178 C2174 1.385 . S
C2178 C2177 1.374 . S
C2179 C2176 1.499 . S
C2179 C2180 1.373 . S
C2179 C2181 1.389 . S
C2180 H2153 0.950 . S
C2180 C2166 1.377 . S
C2180 C2179 1.373 . S
C2181 C2165 1.377 . S
C2181 C2179 1.389 . S
C2181 C2182 1.524 . S
C2182 C2181 1.524 . S
C2182 C2183 1.397 . S
C2182 C2187 1.363 . S
C2183 H2154 0.950 . S
C2183 C2182 1.397 . S
C2183 C2184 1.334 . S
C2184 H2155 0.950 . S
C2184 C2183 1.334 . S
C2184 C2185 1.287 . S
C2185 C2184 1.287 . S
C2185 C2186 1.524 . S
C2185 H2188 0.999 . S
C2186 H2156 0.950 . S
C2186 C2185 1.524 . S
C2186 C2187 1.415 . S
C2187 H2157 0.950 . S
C2187 C2182 1.363 . S
C2187 C2186 1.415 . S
H2188 C2185 0.999 . S
H2189 C2170 0.913 . S
H2190 C2208 0.951 . S
H2191 C2210 0.951 . S
H2192 C2212 0.950 . S
H2193 C2213 0.950 . S
H2194 C2215 0.950 . S
H2195 C2218 0.950 . S
H2196 C2219 0.950 . S
H2197 C2221 0.950 . S
H2198 C2222 0.968 . S
H2199 C2223 0.951 . S
H2200 C2225 0.951 . S
H2201 C2227 0.950 . S
H2202 C2228 0.950 . S
H2203 C2230 0.950 . S
H2204 C2233 0.950 . S
H2205 C2234 0.950 . S
H2206 C2236 0.950 . S
H2207 C2237 0.950 . S
C2208 H2190 0.951 . S
C2208 C2209 1.358 1_655 S
C2208 C2210 1.388 1_655 S
C2209 C2208 1.358 1_455 S
C2209 C2213 1.416 . S
C2210 H2191 0.951 . S
C2210 C2208 1.388 1_455 S
C2210 C2211 1.366 . S
C2211 C2210 1.366 . S
C2211 C2212 1.414 . S
C2211 C2214 1.499 . S
C2212 H2192 0.950 . S
C2212 C2211 1.414 . S
C2212 C2213 1.374 . S
C2213 H2193 0.950 . S
C2213 C2209 1.416 . S
C2213 C2212 1.374 . S
C2214 C2211 1.499 . S
C2214 C2215 1.373 . S
C2214 C2216 1.389 . S
C2215 H2194 0.950 . S
C2215 C2214 1.373 . S
C2215 C2231 1.377 . S
C2216 C2214 1.389 . S
C2216 C2217 1.524 . S
C2216 C2230 1.377 . S
C2217 C2216 1.524 . S
C2217 C2218 1.397 . S
C2217 C2222 1.384 . S
C2218 H2195 0.950 . S
C2218 C2217 1.397 . S
C2218 C2219 1.334 1_455 S
C2219 H2196 0.950 . S
C2219 C2218 1.334 1_655 S
C2219 C2220 1.287 . S
C2220 C2219 1.287 . S
C2220 C2221 1.524 . S
C2220 H2239 0.913 . S
C2221 H2197 0.950 . S
C2221 C2220 1.524 . S
C2221 C2222 1.377 1_655 S
C2222 H2198 0.968 . S
C2222 C2217 1.384 . S
C2222 C2221 1.377 1_455 S
C2223 H2199 0.951 . S
C2223 C2224 1.366 . S
C2223 C2225 1.388 . S
C2224 C2223 1.366 . S
C2224 C2228 1.385 . S
C2225 H2200 0.951 . S
C2225 C2223 1.388 . S
C2225 C2226 1.366 . S
C2226 C2225 1.366 . S
C2226 C2227 1.414 . S
C2226 C2229 1.499 . S
C2227 H2201 0.950 . S
C2227 C2226 1.414 . S
C2227 C2228 1.374 . S
C2228 H2202 0.950 . S
C2228 C2224 1.385 . S
C2228 C2227 1.374 . S
C2229 C2226 1.499 . S
C2229 C2230 1.373 . S
C2229 C2231 1.389 . S
C2230 H2203 0.950 . S
C2230 C2216 1.377 . S
C2230 C2229 1.373 . S
C2231 C2215 1.377 . S
C2231 C2229 1.389 . S
C2231 C2232 1.524 . S
C2232 C2231 1.524 . S
C2232 C2233 1.397 . S
C2232 C2237 1.363 . S
C2233 H2204 0.950 . S
C2233 C2232 1.397 . S
C2233 C2234 1.334 . S
C2234 H2205 0.950 . S
C2234 C2233 1.334 . S
C2234 C2235 1.287 . S
C2235 C2234 1.287 . S
C2235 C2236 1.524 . S
C2235 H2238 0.999 . S
C2236 H2206 0.950 . S
C2236 C2235 1.524 . S
C2236 C2237 1.415 . S
C2237 H2207 0.950 . S
C2237 C2232 1.363 . S
C2237 C2236 1.415 . S
H2238 C2235 0.999 . S
H2239 C2220 0.913 . S
H2240 C2258 0.951 . S
H2241 C2260 0.951 . S
H2242 C2262 0.950 . S
H2243 C2263 0.950 . S
H2244 C2265 0.950 . S
H2245 C2268 0.950 . S
H2246 C2269 0.950 . S
H2247 C2271 0.950 . S
H2248 C2272 0.950 . S
H2249 C2273 0.951 . S
H2250 C2275 0.951 . S
H2251 C2277 0.950 . S
H2252 C2278 0.950 . S
H2253 C2280 0.950 . S
H2254 C2283 0.950 . S
H2255 C2284 0.950 . S
H2256 C2286 0.950 . S
H2257 C2287 0.950 . S
C2258 H2240 0.951 . S
C2258 C2259 1.366 . S
C2258 C2260 1.388 . S
C2259 C2258 1.366 . S
C2259 C2263 1.385 . S
C2260 H2241 0.951 . S
C2260 C2258 1.388 . S
C2260 C2261 1.366 . S
C2261 C2260 1.366 . S
C2261 C2262 1.414 . S
C2261 C2264 1.499 . S
C2262 H2242 0.950 . S
C2262 C2261 1.414 . S
C2262 C2263 1.374 . S
C2263 H2243 0.950 . S
C2263 C2259 1.385 . S
C2263 C2262 1.374 . S
C2264 C2261 1.499 . S
C2264 C2265 1.373 . S
C2264 C2266 1.389 . S
C2265 H2244 0.950 . S
C2265 C2264 1.373 . S
C2265 C2281 1.377 . S
C2266 C2264 1.389 . S
C2266 C2267 1.524 . S
C2266 C2280 1.377 . S
C2267 C2266 1.524 . S
C2267 C2268 1.397 . S
C2267 C2272 1.363 . S
C2268 H2245 0.950 . S
C2268 C2267 1.397 . S
C2268 C2269 1.334 . S
C2269 H2246 0.950 . S
C2269 C2268 1.334 . S
C2269 C2270 1.287 . S
C2270 C2269 1.287 . S
C2270 C2271 1.524 . S
C2270 H2289 0.913 . S
C2271 H2247 0.950 . S
C2271 C2270 1.524 . S
C2271 C2272 1.415 . S
C2272 H2248 0.950 . S
C2272 C2267 1.363 . S
C2272 C2271 1.415 . S
C2273 H2249 0.951 . S
C2273 C2274 1.366 . S
C2273 C2275 1.388 . S
C2274 C2273 1.366 . S
C2274 C2278 1.385 . S
C2275 H2250 0.951 . S
C2275 C2273 1.388 . S
C2275 C2276 1.366 . S
C2276 C2275 1.366 . S
C2276 C2277 1.414 . S
C2276 C2279 1.499 . S
C2277 H2251 0.950 . S
C2277 C2276 1.414 . S
C2277 C2278 1.374 . S
C2278 H2252 0.950 . S
C2278 C2274 1.385 . S
C2278 C2277 1.374 . S
C2279 C2276 1.499 . S
C2279 C2280 1.373 . S
C2279 C2281 1.389 . S
C2280 H2253 0.950 . S
C2280 C2266 1.377 . S
C2280 C2279 1.373 . S
C2281 C2265 1.377 . S
C2281 C2279 1.389 . S
C2281 C2282 1.524 . S
C2282 C2281 1.524 . S
C2282 C2283 1.397 . S
C2282 C2287 1.363 . S
C2283 H2254 0.950 . S
C2283 C2282 1.397 . S
C2283 C2284 1.334 . S
C2284 H2255 0.950 . S
C2284 C2283 1.334 . S
C2284 C2285 1.287 . S
C2285 C2284 1.287 . S
C2285 C2286 1.524 . S
C2285 H2288 0.999 . S
C2286 H2256 0.950 . S
C2286 C2285 1.524 . S
C2286 C2287 1.415 . S
C2287 H2257 0.950 . S
C2287 C2282 1.363 . S
C2287 C2286 1.415 . S
H2288 C2285 0.999 . S
H2289 C2270 0.913 . S
H2290 C2308 0.951 . S
H2291 C2310 0.951 . S
H2292 C2312 0.950 1_556 S
H2293 C2313 0.950 . S
H2294 C2315 0.950 . S
H2295 C2318 0.981 . S
H2296 C2319 0.950 . S
H2297 C2321 0.950 . S
H2298 C2322 0.950 . S
H2299 C2323 0.952 . S
H2300 C2325 0.951 . S
H2301 C2327 0.950 . S
H2302 C2328 0.950 . S
H2303 C2330 0.950 . S
H2304 C2333 0.950 . S
H2305 C2334 0.950 . S
H2306 C2336 0.950 . S
H2307 C2337 0.950 . S
C2308 H2290 0.951 . S
C2308 C2309 1.366 . S
C2308 C2310 1.388 . S
C2309 C2308 1.366 . S
C2309 C2313 1.385 . S
C2310 H2291 0.951 . S
C2310 C2308 1.388 . S
C2310 C2311 1.366 . S
C2311 C2310 1.366 . S
C2311 C2312 1.414 . S
C2311 C2314 1.486 1_554 S
C2312 H2292 0.950 1_554 S
C2312 C2311 1.414 . S
C2312 C2313 1.374 . S
C2313 H2293 0.950 . S
C2313 C2309 1.385 . S
C2313 C2312 1.374 . S
C2314 C2311 1.486 1_556 S
C2314 C2315 1.391 . S
C2314 C2316 1.384 1_656 S
C2315 H2294 0.950 . S
C2315 C2314 1.391 . S
C2315 C2331 1.377 . S
C2316 C2314 1.384 1_454 S
C2316 C2317 1.524 . S
C2316 C2330 1.377 1_554 S
C2317 C2316 1.524 . S
C2317 C2318 1.397 . S
C2317 C2322 1.363 . S
C2318 H2295 0.981 . S
C2318 C2317 1.397 . S
C2318 C2319 1.334 . S
C2319 H2296 0.950 . S
C2319 C2318 1.334 . S
C2319 C2320 1.287 . S
C2320 C2319 1.287 . S
C2320 C2321 1.524 . S
C2320 H2339 0.913 . S
C2321 H2297 0.950 . S
C2321 C2320 1.524 . S
C2321 C2322 1.415 . S
C2322 H2298 0.950 . S
C2322 C2317 1.363 . S
C2322 C2321 1.415 . S
C2323 H2299 0.952 . S
C2323 C2324 1.364 1_655 S
C2323 C2325 1.389 . S
C2324 C2323 1.364 1_455 S
C2324 C2328 1.385 . S
C2325 H2300 0.951 . S
C2325 C2323 1.389 . S
C2325 C2326 1.366 . S
C2326 C2325 1.366 . S
C2326 C2327 1.414 1_655 S
C2326 C2329 1.499 . S
C2327 H2301 0.950 . S
C2327 C2326 1.414 1_455 S
C2327 C2328 1.374 . S
C2328 H2302 0.950 . S
C2328 C2324 1.385 . S
C2328 C2327 1.374 . S
C2329 C2326 1.499 . S
C2329 C2330 1.373 1_655 S
C2329 C2331 1.389 . S
C2330 H2303 0.950 . S
C2330 C2316 1.377 1_556 S
C2330 C2329 1.373 1_455 S
C2331 C2315 1.377 . S
C2331 C2329 1.389 . S
C2331 C2332 1.524 . S
C2332 C2331 1.524 . S
C2332 C2333 1.397 . S
C2332 C2337 1.363 . S
C2333 H2304 0.950 . S
C2333 C2332 1.397 . S
C2333 C2334 1.334 . S
C2334 H2305 0.950 . S
C2334 C2333 1.334 . S
C2334 C2335 1.287 . S
C2335 C2334 1.287 . S
C2335 C2336 1.524 . S
C2335 H2338 0.999 . S
C2336 H2306 0.950 . S
C2336 C2335 1.524 . S
C2336 C2337 1.415 . S
C2337 H2307 0.950 . S
C2337 C2332 1.363 . S
C2337 C2336 1.415 . S
H2338 C2335 0.999 . S
H2339 C2320 0.913 . S
H2340 C2358 0.951 . S
H2341 C2360 0.951 . S
H2342 C2362 0.950 . S
H2343 C2363 0.950 . S
H2344 C2365 0.950 . S
H2345 C2368 0.950 . S
H2346 C2369 0.950 . S
H2347 C2371 0.950 . S
H2348 C2372 0.950 . S
H2349 C2373 0.951 . S
H2350 C2375 0.951 . S
H2351 C2377 0.950 . S
H2352 C2378 0.950 . S
H2353 C2380 0.950 . S
H2354 C2383 0.950 . S
H2355 C2384 0.950 . S
H2356 C2386 0.950 . S
H2357 C2387 0.950 . S
C2358 H2340 0.951 . S
C2358 C2359 1.366 . S
C2358 C2360 1.388 . S
C2359 C2358 1.366 . S
C2359 C2363 1.385 . S
C2360 H2341 0.951 . S
C2360 C2358 1.388 . S
C2360 C2361 1.366 . S
C2361 C2360 1.366 . S
C2361 C2362 1.414 . S
C2361 C2364 1.499 . S
C2362 H2342 0.950 . S
C2362 C2361 1.414 . S
C2362 C2363 1.374 . S
C2363 H2343 0.950 . S
C2363 C2359 1.385 . S
C2363 C2362 1.374 . S
C2364 C2361 1.499 . S
C2364 C2365 1.373 . S
C2364 C2366 1.389 . S
C2365 H2344 0.950 . S
C2365 C2364 1.373 . S
C2365 C2381 1.377 . S
C2366 C2364 1.389 . S
C2366 C2367 1.524 . S
C2366 C2380 1.377 . S
C2367 C2366 1.524 . S
C2367 C2368 1.397 . S
C2367 C2372 1.363 . S
C2368 H2345 0.950 . S
C2368 C2367 1.397 . S
C2368 C2369 1.334 . S
C2369 H2346 0.950 . S
C2369 C2368 1.334 . S
C2369 C2370 1.287 . S
C2370 C2369 1.287 . S
C2370 C2371 1.524 . S
C2370 H2389 0.913 . S
C2371 H2347 0.950 . S
C2371 C2370 1.524 . S
C2371 C2372 1.415 . S
C2372 H2348 0.950 . S
C2372 C2367 1.363 . S
C2372 C2371 1.415 . S
C2373 H2349 0.951 . S
C2373 C2374 1.366 . S
C2373 C2375 1.388 . S
C2374 C2373 1.366 . S
C2374 C2378 1.385 . S
C2375 H2350 0.951 . S
C2375 C2373 1.388 . S
C2375 C2376 1.366 . S
C2376 C2375 1.366 . S
C2376 C2377 1.414 . S
C2376 C2379 1.499 . S
C2377 H2351 0.950 . S
C2377 C2376 1.414 . S
C2377 C2378 1.374 . S
C2378 H2352 0.950 . S
C2378 C2374 1.385 . S
C2378 C2377 1.374 . S
C2379 C2376 1.499 . S
C2379 C2380 1.373 . S
C2379 C2381 1.389 . S
C2380 H2353 0.950 . S
C2380 C2366 1.377 . S
C2380 C2379 1.373 . S
C2381 C2365 1.377 . S
C2381 C2379 1.389 . S
C2381 C2382 1.524 . S
C2382 C2381 1.524 . S
C2382 C2383 1.397 . S
C2382 C2387 1.363 . S
C2383 H2354 0.950 . S
C2383 C2382 1.397 . S
C2383 C2384 1.334 . S
C2384 H2355 0.950 . S
C2384 C2383 1.334 . S
C2384 C2385 1.287 . S
C2385 C2384 1.287 . S
C2385 C2386 1.524 . S
C2385 H2388 0.999 . S
C2386 H2356 0.950 . S
C2386 C2385 1.524 . S
C2386 C2387 1.415 . S
C2387 H2357 0.950 . S
C2387 C2382 1.363 . S
C2387 C2386 1.415 . S
H2388 C2385 0.999 . S
H2389 C2370 0.913 . S
H2390 C2408 0.951 . S
H2391 C2410 1.008 . S
H2392 C2412 0.950 . S
H2393 C2413 0.950 . S
H2394 C2415 0.950 1_655 S
H2395 C2418 0.944 . S
H2396 C2419 0.950 . S
H2397 C2421 0.950 . S
H2398 C2422 0.950 . S
H2399 C2423 0.951 . S
H2400 C2425 0.951 . S
H2401 C2427 0.950 . S
H2402 C2428 0.950 . S
H2403 C2430 0.950 . S
H2404 C2433 0.950 . S
H2405 C2434 0.950 . S
H2406 C2436 0.950 . S
H2407 C2437 0.950 . S
C2408 H2390 0.951 . S
C2408 C2409 1.366 . S
C2408 C2410 1.350 1_554 S
C2409 C2408 1.366 . S
C2409 C2413 1.385 . S
C2410 H2391 1.008 . S
C2410 C2408 1.350 1_556 S
C2410 C2411 1.348 1_556 S
C2411 C2410 1.348 1_554 S
C2411 C2412 1.414 . S
C2411 C2414 1.499 1_554 S
C2412 H2392 0.950 . S
C2412 C2411 1.414 . S
C2412 C2413 1.374 . S
C2413 H2393 0.950 . S
C2413 C2409 1.385 . S
C2413 C2412 1.374 . S
C2414 C2411 1.499 1_556 S
C2414 C2415 1.373 1_556 S
C2414 C2416 1.389 . S
C2415 H2394 0.950 1_455 S
C2415 C2414 1.373 1_554 S
C2415 C2431 1.377 1_554 S
C2416 C2414 1.389 . S
C2416 C2417 1.524 . S
C2416 C2430 1.377 . S
C2417 C2416 1.524 . S
C2417 C2418 1.397 . S
C2417 C2422 1.363 . S
C2418 H2395 0.944 . S
C2418 C2417 1.397 . S
C2418 C2419 1.334 . S
C2419 H2396 0.950 . S
C2419 C2418 1.334 . S
C2419 C2420 1.287 . S
C2420 C2419 1.287 . S
C2420 C2421 1.524 . S
C2420 H2439 0.913 . S
C2421 H2397 0.950 . S
C2421 C2420 1.524 . S
C2421 C2422 1.415 . S
C2422 H2398 0.950 . S
C2422 C2417 1.363 . S
C2422 C2421 1.415 . S
C2423 H2399 0.951 . S
C2423 C2424 1.366 . S
C2423 C2425 1.388 . S
C2424 C2423 1.366 . S
C2424 C2428 1.385 . S
C2425 H2400 0.951 . S
C2425 C2423 1.388 . S
C2425 C2426 1.366 . S
C2426 C2425 1.366 . S
C2426 C2427 1.414 . S
C2426 C2429 1.499 . S
C2427 H2401 0.950 . S
C2427 C2426 1.414 . S
C2427 C2428 1.374 . S
C2428 H2402 0.950 . S
C2428 C2424 1.385 . S
C2428 C2427 1.374 . S
C2429 C2426 1.499 . S
C2429 C2430 1.373 . S
C2429 C2431 1.389 . S
C2430 H2403 0.950 . S
C2430 C2416 1.377 . S
C2430 C2429 1.373 . S
C2431 C2415 1.377 1_556 S
C2431 C2429 1.389 . S
C2431 C2432 1.524 1_455 S
C2432 C2431 1.524 1_655 S
C2432 C2433 1.397 . S
C2432 C2437 1.363 1_556 S
C2433 H2404 0.950 . S
C2433 C2432 1.397 . S
C2433 C2434 1.334 . S
C2434 H2405 0.950 . S
C2434 C2433 1.334 . S
C2434 C2435 1.287 1_556 S
C2435 C2434 1.287 1_554 S
C2435 C2436 1.524 . S
C2435 H2438 0.999 . S
C2436 H2406 0.950 . S
C2436 C2435 1.524 . S
C2436 C2437 1.415 . S
C2437 H2407 0.950 . S
C2437 C2432 1.363 1_554 S
C2437 C2436 1.415 . S
H2438 C2435 0.999 . S
H2439 C2420 0.913 . S
H2440 C2458 0.951 . S
H2441 C2460 0.951 . S
H2442 C2462 0.950 . S
H2443 C2463 0.950 . S
H2444 C2465 0.950 . S
H2445 C2468 0.950 . S
H2446 C2469 0.950 . S
H2447 C2471 0.950 . S
H2448 C2472 0.950 . S
H2449 C2473 0.951 . S
H2450 C2475 0.951 . S
H2451 C2477 0.950 . S
H2452 C2478 0.950 . S
H2453 C2480 0.950 . S
H2454 C2483 0.950 . S
H2455 C2484 0.950 . S
H2456 C2486 0.950 . S
H2457 C2487 0.950 . S
C2458 H2440 0.951 . S
C2458 C2459 1.366 . S
C2458 C2460 1.388 . S
C2459 C2458 1.366 . S
C2459 C2463 1.385 . S
C2460 H2441 0.951 . S
C2460 C2458 1.388 . S
C2460 C2461 1.366 . S
C2461 C2460 1.366 . S
C2461 C2462 1.414 . S
C2461 C2464 1.499 . S
C2462 H2442 0.950 . S
C2462 C2461 1.414 . S
C2462 C2463 1.374 . S
C2463 H2443 0.950 . S
C2463 C2459 1.385 . S
C2463 C2462 1.374 . S
C2464 C2461 1.499 . S
C2464 C2465 1.373 . S
C2464 C2466 1.389 . S
C2465 H2444 0.950 . S
C2465 C2464 1.373 . S
C2465 C2481 1.377 . S
C2466 C2464 1.389 . S
C2466 C2467 1.524 . S
C2466 C2480 1.377 . S
C2467 C2466 1.524 . S
C2467 C2468 1.397 . S
C2467 C2472 1.363 . S
C2468 H2445 0.950 . S
C2468 C2467 1.397 . S
C2468 C2469 1.334 . S
C2469 H2446 0.950 . S
C2469 C2468 1.334 . S
C2469 C2470 1.287 . S
C2470 C2469 1.287 . S
C2470 C2471 1.524 . S
C2470 H2489 0.913 . S
C2471 H2447 0.950 . S
C2471 C2470 1.524 . S
C2471 C2472 1.415 . S
C2472 H2448 0.950 . S
C2472 C2467 1.363 . S
C2472 C2471 1.415 . S
C2473 H2449 0.951 . S
C2473 C2474 1.366 . S
C2473 C2475 1.388 . S
C2474 C2473 1.366 . S
C2474 C2478 1.385 . S
C2475 H2450 0.951 . S
C2475 C2473 1.388 . S
C2475 C2476 1.366 . S
C2476 C2475 1.366 . S
C2476 C2477 1.414 . S
C2476 C2479 1.499 . S
C2477 H2451 0.950 . S
C2477 C2476 1.414 . S
C2477 C2478 1.374 . S
C2478 H2452 0.950 . S
C2478 C2474 1.385 . S
C2478 C2477 1.374 . S
C2479 C2476 1.499 . S
C2479 C2480 1.373 . S
C2479 C2481 1.389 . S
C2480 H2453 0.950 . S
C2480 C2466 1.377 . S
C2480 C2479 1.373 . S
C2481 C2465 1.377 . S
C2481 C2479 1.389 . S
C2481 C2482 1.524 . S
C2482 C2481 1.524 . S
C2482 C2483 1.397 . S
C2482 C2487 1.363 . S
C2483 H2454 0.950 . S
C2483 C2482 1.397 . S
C2483 C2484 1.334 . S
C2484 H2455 0.950 . S
C2484 C2483 1.334 . S
C2484 C2485 1.287 . S
C2485 C2484 1.287 . S
C2485 C2486 1.524 . S
C2485 H2488 0.999 . S
C2486 H2456 0.950 . S
C2486 C2485 1.524 . S
C2486 C2487 1.415 . S
C2487 H2457 0.950 . S
C2487 C2482 1.363 . S
C2487 C2486 1.415 . S
H2488 C2485 0.999 . S
H2489 C2470 0.913 . S
H2490 C2508 0.951 . S
H2491 C2510 0.951 . S
H2492 C2512 0.950 . S
H2493 C2513 0.950 . S
H2494 C2515 0.950 . S
H2495 C2518 0.950 . S
H2496 C2519 0.950 . S
H2497 C2521 0.950 . S
H2498 C2522 0.950 . S
H2499 C2523 0.951 . S
H2500 C2525 0.951 . S
H2501 C2527 0.950 . S
H2502 C2528 0.950 . S
H2503 C2530 0.950 . S
H2504 C2533 0.950 . S
H2505 C2534 0.950 . S
H2506 C2536 0.950 . S
H2507 C2537 0.950 . S
C2508 H2490 0.951 . S
C2508 C2509 1.368 . S
C2508 C2510 1.388 1_556 S
C2509 C2508 1.368 . S
C2509 C2513 1.351 1_556 S
C2510 H2491 0.951 . S
C2510 C2508 1.388 1_554 S
C2510 C2511 1.366 . S
C2511 C2510 1.366 . S
C2511 C2512 1.414 . S
C2511 C2514 1.499 . S
C2512 H2492 0.950 . S
C2512 C2511 1.414 . S
C2512 C2513 1.374 . S
C2513 H2493 0.950 . S
C2513 C2509 1.351 1_554 S
C2513 C2512 1.374 . S
C2514 C2511 1.499 . S
C2514 C2515 1.373 . S
C2514 C2516 1.389 . S
C2515 H2494 0.950 . S
C2515 C2514 1.373 . S
C2515 C2531 1.377 . S
C2516 C2514 1.389 . S
C2516 C2517 1.524 . S
C2516 C2530 1.377 . S
C2517 C2516 1.524 . S
C2517 C2518 1.397 . S
C2517 C2522 1.363 . S
C2518 H2495 0.950 . S
C2518 C2517 1.397 . S
C2518 C2519 1.334 . S
C2519 H2496 0.950 . S
C2519 C2518 1.334 . S
C2519 C2520 1.287 . S
C2520 C2519 1.287 . S
C2520 C2521 1.524 . S
C2520 H2539 0.913 . S
C2521 H2497 0.950 . S
C2521 C2520 1.524 . S
C2521 C2522 1.415 . S
C2522 H2498 0.950 . S
C2522 C2517 1.363 . S
C2522 C2521 1.415 . S
C2523 H2499 0.951 . S
C2523 C2524 1.366 . S
C2523 C2525 1.388 . S
C2524 C2523 1.366 . S
C2524 C2528 1.385 . S
C2525 H2500 0.951 . S
C2525 C2523 1.388 . S
C2525 C2526 1.366 . S
C2526 C2525 1.366 . S
C2526 C2527 1.414 . S
C2526 C2529 1.499 . S
C2527 H2501 0.950 . S
C2527 C2526 1.414 . S
C2527 C2528 1.374 . S
C2528 H2502 0.950 . S
C2528 C2524 1.385 . S
C2528 C2527 1.374 . S
C2529 C2526 1.499 . S
C2529 C2530 1.373 . S
C2529 C2531 1.389 . S
C2530 H2503 0.950 . S
C2530 C2516 1.377 . S
C2530 C2529 1.373 . S
C2531 C2515 1.377 . S
C2531 C2529 1.389 . S
C2531 C2532 1.524 . S
C2532 C2531 1.524 . S
C2532 C2533 1.397 . S
C2532 C2537 1.363 . S
C2533 H2504 0.950 . S
C2533 C2532 1.397 . S
C2533 C2534 1.334 . S
C2534 H2505 0.950 . S
C2534 C2533 1.334 . S
C2534 C2535 1.287 . S
C2535 C2534 1.287 . S
C2535 C2536 1.524 . S
C2535 H2538 0.999 . S
C2536 H2506 0.950 . S
C2536 C2535 1.524 . S
C2536 C2537 1.415 . S
C2537 H2507 0.950 . S
C2537 C2532 1.363 . S
C2537 C2536 1.415 . S
H2538 C2535 0.999 . S
H2539 C2520 0.913 . S
H2540 C2558 0.951 . S
H2541 C2560 0.951 . S
H2542 C2562 0.950 . S
H2543 C2563 0.950 . S
H2544 C2565 0.950 . S
H2545 C2568 0.950 . S
H2546 C2569 0.950 . S
H2547 C2571 0.950 . S
H2548 C2572 0.950 . S
H2549 C2573 0.951 . S
H2550 C2575 0.951 . S
H2551 C2577 0.950 . S
H2552 C2578 0.950 . S
H2553 C2580 0.950 . S
H2554 C2583 0.950 . S
H2555 C2584 0.950 . S
H2556 C2586 0.950 . S
H2557 C2587 0.950 . S
C2558 H2540 0.951 . S
C2558 C2559 1.366 . S
C2558 C2560 1.388 . S
C2559 C2558 1.366 . S
C2559 C2563 1.385 . S
C2560 H2541 0.951 . S
C2560 C2558 1.388 . S
C2560 C2561 1.366 . S
C2561 C2560 1.366 . S
C2561 C2562 1.414 . S
C2561 C2564 1.499 . S
C2562 H2542 0.950 . S
C2562 C2561 1.414 . S
C2562 C2563 1.374 . S
C2563 H2543 0.950 . S
C2563 C2559 1.385 . S
C2563 C2562 1.374 . S
C2564 C2561 1.499 . S
C2564 C2565 1.373 . S
C2564 C2566 1.389 . S
C2565 H2544 0.950 . S
C2565 C2564 1.373 . S
C2565 C2581 1.377 . S
C2566 C2564 1.389 . S
C2566 C2567 1.524 . S
C2566 C2580 1.377 . S
C2567 C2566 1.524 . S
C2567 C2568 1.397 . S
C2567 C2572 1.363 . S
C2568 H2545 0.950 . S
C2568 C2567 1.397 . S
C2568 C2569 1.334 . S
C2569 H2546 0.950 . S
C2569 C2568 1.334 . S
C2569 C2570 1.287 . S
C2570 C2569 1.287 . S
C2570 C2571 1.524 . S
C2570 H2589 0.913 . S
C2571 H2547 0.950 . S
C2571 C2570 1.524 . S
C2571 C2572 1.415 . S
C2572 H2548 0.950 . S
C2572 C2567 1.363 . S
C2572 C2571 1.415 . S
C2573 H2549 0.951 . S
C2573 C2574 1.366 . S
C2573 C2575 1.388 . S
C2574 C2573 1.366 . S
C2574 C2578 1.385 . S
C2575 H2550 0.951 . S
C2575 C2573 1.388 . S
C2575 C2576 1.366 . S
C2576 C2575 1.366 . S
C2576 C2577 1.414 . S
C2576 C2579 1.499 . S
C2577 H2551 0.950 . S
C2577 C2576 1.414 . S
C2577 C2578 1.374 . S
C2578 H2552 0.950 . S
C2578 C2574 1.385 . S
C2578 C2577 1.374 . S
C2579 C2576 1.499 . S
C2579 C2580 1.373 . S
C2579 C2581 1.389 . S
C2580 H2553 0.950 . S
C2580 C2566 1.377 . S
C2580 C2579 1.373 . S
C2581 C2565 1.377 . S
C2581 C2579 1.389 . S
C2581 C2582 1.524 . S
C2582 C2581 1.524 . S
C2582 C2583 1.397 . S
C2582 C2587 1.363 . S
C2583 H2554 0.950 . S
C2583 C2582 1.397 . S
C2583 C2584 1.334 . S
C2584 H2555 0.950 . S
C2584 C2583 1.334 . S
C2584 C2585 1.287 . S
C2585 C2584 1.287 . S
C2585 C2586 1.524 . S
C2585 H2588 0.999 . S
C2586 H2556 0.950 . S
C2586 C2585 1.524 . S
C2586 C2587 1.415 . S
C2587 H2557 0.950 . S
C2587 C2582 1.363 . S
C2587 C2586 1.415 . S
H2588 C2585 0.999 . S
H2589 C2570 0.913 . S
H2590 C2608 0.930 1_556 S
H2591 C2610 0.951 . S
H2592 C2612 0.950 . S
H2593 C2613 0.950 . S
H2594 C2615 0.950 . S
H2595 C2618 0.950 1_554 S
H2596 C2619 0.950 . S
H2597 C2621 0.950 . S
H2598 C2622 0.950 . S
H2599 C2623 0.951 . S
H2600 C2625 0.951 . S
H2601 C2627 0.950 . S
H2602 C2628 0.950 . S
H2603 C2630 0.950 . S
H2604 C2633 0.950 . S
H2605 C2634 0.950 . S
H2606 C2636 0.950 . S
H2607 C2637 0.950 . S
C2608 H2590 0.930 1_554 S
C2608 C2609 1.369 . S
C2608 C2610 1.406 . S
C2609 C2608 1.369 . S
C2609 C2613 1.386 . S
C2610 H2591 0.951 . S
C2610 C2608 1.406 . S
C2610 C2611 1.366 . S
C2611 C2610 1.366 . S
C2611 C2612 1.414 . S
C2611 C2614 1.499 . S
C2612 H2592 0.950 . S
C2612 C2611 1.414 . S
C2612 C2613 1.374 . S
C2613 H2593 0.950 . S
C2613 C2609 1.386 . S
C2613 C2612 1.374 . S
C2614 C2611 1.499 . S
C2614 C2615 1.373 . S
C2614 C2616 1.389 . S
C2615 H2594 0.950 . S
C2615 C2614 1.373 . S
C2615 C2631 1.377 . S
C2616 C2614 1.389 . S
C2616 C2617 1.524 . S
C2616 C2630 1.377 . S
C2617 C2616 1.524 . S
C2617 C2618 1.397 1_554 S
C2617 C2622 1.363 . S
C2618 H2595 0.950 1_556 S
C2618 C2617 1.397 1_556 S
C2618 C2619 1.334 . S
C2619 H2596 0.950 . S
C2619 C2618 1.334 . S
C2619 C2620 1.287 . S
C2620 C2619 1.287 . S
C2620 C2621 1.524 . S
C2620 H2639 0.913 . S
C2621 H2597 0.950 . S
C2621 C2620 1.524 . S
C2621 C2622 1.415 1_556 S
C2622 H2598 0.950 . S
C2622 C2617 1.363 . S
C2622 C2621 1.415 1_554 S
C2623 H2599 0.951 . S
C2623 C2624 1.366 . S
C2623 C2625 1.388 . S
C2624 C2623 1.366 . S
C2624 C2628 1.385 . S
C2625 H2600 0.951 . S
C2625 C2623 1.388 . S
C2625 C2626 1.366 . S
C2626 C2625 1.366 . S
C2626 C2627 1.414 . S
C2626 C2629 1.499 . S
C2627 H2601 0.950 . S
C2627 C2626 1.414 . S
C2627 C2628 1.374 . S
C2628 H2602 0.950 . S
C2628 C2624 1.385 . S
C2628 C2627 1.374 . S
C2629 C2626 1.499 . S
C2629 C2630 1.373 . S
C2629 C2631 1.389 . S
C2630 H2603 0.950 . S
C2630 C2616 1.377 . S
C2630 C2629 1.373 . S
C2631 C2615 1.377 . S
C2631 C2629 1.389 . S
C2631 C2632 1.524 . S
C2632 C2631 1.524 . S
C2632 C2633 1.397 . S
C2632 C2637 1.363 . S
C2633 H2604 0.950 . S
C2633 C2632 1.397 . S
C2633 C2634 1.334 . S
C2634 H2605 0.950 . S
C2634 C2633 1.334 . S
C2634 C2635 1.287 . S
C2635 C2634 1.287 . S
C2635 C2636 1.524 . S
C2635 H2638 0.999 . S
C2636 H2606 0.950 . S
C2636 C2635 1.524 . S
C2636 C2637 1.415 . S
C2637 H2607 0.950 . S
C2637 C2632 1.363 . S
C2637 C2636 1.415 . S
H2638 C2635 0.999 . S
H2639 C2620 0.913 . S
H2640 C2658 0.951 . S
H2641 C2660 0.951 . S
H2642 C2662 0.950 . S
H2643 C2663 0.950 . S
H2644 C2665 0.950 . S
H2645 C2668 0.950 . S
H2646 C2669 0.950 . S
H2647 C2671 0.950 . S
H2648 C2672 0.950 . S
H2649 C2673 0.951 . S
H2650 C2675 0.951 . S
H2651 C2677 0.950 . S
H2652 C2678 0.950 . S
H2653 C2680 0.950 . S
H2654 C2683 0.950 . S
H2655 C2684 0.950 . S
H2656 C2686 0.950 . S
H2657 C2687 0.950 . S
C2658 H2640 0.951 . S
C2658 C2659 1.366 . S
C2658 C2660 1.388 . S
C2659 C2658 1.366 . S
C2659 C2663 1.385 . S
C2660 H2641 0.951 . S
C2660 C2658 1.388 . S
C2660 C2661 1.366 . S
C2661 C2660 1.366 . S
C2661 C2662 1.414 . S
C2661 C2664 1.499 . S
C2662 H2642 0.950 . S
C2662 C2661 1.414 . S
C2662 C2663 1.374 . S
C2663 H2643 0.950 . S
C2663 C2659 1.385 . S
C2663 C2662 1.374 . S
C2664 C2661 1.499 . S
C2664 C2665 1.373 . S
C2664 C2666 1.389 . S
C2665 H2644 0.950 . S
C2665 C2664 1.373 . S
C2665 C2681 1.377 . S
C2666 C2664 1.389 . S
C2666 C2667 1.524 . S
C2666 C2680 1.377 . S
C2667 C2666 1.524 . S
C2667 C2668 1.397 . S
C2667 C2672 1.363 . S
C2668 H2645 0.950 . S
C2668 C2667 1.397 . S
C2668 C2669 1.334 . S
C2669 H2646 0.950 . S
C2669 C2668 1.334 . S
C2669 C2670 1.287 . S
C2670 C2669 1.287 . S
C2670 C2671 1.524 . S
C2670 H2689 0.913 . S
C2671 H2647 0.950 . S
C2671 C2670 1.524 . S
C2671 C2672 1.415 . S
C2672 H2648 0.950 . S
C2672 C2667 1.363 . S
C2672 C2671 1.415 . S
C2673 H2649 0.951 . S
C2673 C2674 1.366 . S
C2673 C2675 1.388 . S
C2674 C2673 1.366 . S
C2674 C2678 1.385 . S
C2675 H2650 0.951 . S
C2675 C2673 1.388 . S
C2675 C2676 1.366 . S
C2676 C2675 1.366 . S
C2676 C2677 1.414 . S
C2676 C2679 1.499 . S
C2677 H2651 0.950 . S
C2677 C2676 1.414 . S
C2677 C2678 1.374 . S
C2678 H2652 0.950 . S
C2678 C2674 1.385 . S
C2678 C2677 1.374 . S
C2679 C2676 1.499 . S
C2679 C2680 1.373 . S
C2679 C2681 1.389 . S
C2680 H2653 0.950 . S
C2680 C2666 1.377 . S
C2680 C2679 1.373 . S
C2681 C2665 1.377 . S
C2681 C2679 1.389 . S
C2681 C2682 1.524 . S
C2682 C2681 1.524 . S
C2682 C2683 1.397 . S
C2682 C2687 1.363 . S
C2683 H2654 0.950 . S
C2683 C2682 1.397 . S
C2683 C2684 1.334 . S
C2684 H2655 0.950 . S
C2684 C2683 1.334 . S
C2684 C2685 1.287 . S
C2685 C2684 1.287 . S
C2685 C2686 1.524 . S
C2685 H2688 0.999 . S
C2686 H2656 0.950 . S
C2686 C2685 1.524 . S
C2686 C2687 1.415 . S
C2687 H2657 0.950 . S
C2687 C2682 1.363 . S
C2687 C2686 1.415 . S
H2688 C2685 0.999 . S
H2689 C2670 0.913 . S
H2690 C2708 0.951 . S
H2691 C2710 0.951 . S
H2692 C2712 0.950 . S
H2693 C2713 0.950 . S
H2694 C2715 0.950 . S
H2695 C2718 0.950 . S
H2696 C2719 0.950 . S
H2697 C2721 0.950 . S
H2698 C2722 0.950 . S
H2699 C2723 0.951 . S
H2700 C2725 0.951 . S
H2701 C2727 0.950 . S
H2702 C2728 0.950 . S
H2703 C2730 0.950 . S
H2704 C2733 0.950 . S
H2705 C2734 0.950 . S
H2706 C2736 0.950 . S
H2707 C2737 0.950 . S
C2708 H2690 0.951 . S
C2708 C2709 1.366 . S
C2708 C2710 1.388 . S
C2709 C2708 1.366 . S
C2709 C2713 1.385 . S
C2710 H2691 0.951 . S
C2710 C2708 1.388 . S
C2710 C2711 1.366 . S
C2711 C2710 1.366 . S
C2711 C2712 1.414 . S
C2711 C2714 1.499 . S
C2712 H2692 0.950 . S
C2712 C2711 1.414 . S
C2712 C2713 1.374 . S
C2713 H2693 0.950 . S
C2713 C2709 1.385 . S
C2713 C2712 1.374 . S
C2714 C2711 1.499 . S
C2714 C2715 1.373 . S
C2714 C2716 1.389 . S
C2715 H2694 0.950 . S
C2715 C2714 1.373 . S
C2715 C2731 1.377 . S
C2716 C2714 1.389 . S
C2716 C2717 1.524 . S
C2716 C2730 1.377 . S
C2717 C2716 1.524 . S
C2717 C2718 1.397 . S
C2717 C2722 1.363 . S
C2718 H2695 0.950 . S
C2718 C2717 1.397 . S
C2718 C2719 1.334 . S
C2719 H2696 0.950 . S
C2719 C2718 1.334 . S
C2719 C2720 1.287 . S
C2720 C2719 1.287 . S
C2720 C2721 1.524 . S
C2720 H2739 0.913 . S
C2721 H2697 0.950 . S
C2721 C2720 1.524 . S
C2721 C2722 1.415 . S
C2722 H2698 0.950 . S
C2722 C2717 1.363 . S
C2722 C2721 1.415 . S
C2723 H2699 0.951 . S
C2723 C2724 1.366 . S
C2723 C2725 1.388 . S
C2724 C2723 1.366 . S
C2724 C2728 1.385 . S
C2725 H2700 0.951 . S
C2725 C2723 1.388 . S
C2725 C2726 1.366 . S
C2726 C2725 1.366 . S
C2726 C2727 1.414 . S
C2726 C2729 1.499 . S
C2727 H2701 0.950 . S
C2727 C2726 1.414 . S
C2727 C2728 1.374 . S
C2728 H2702 0.950 . S
C2728 C2724 1.385 . S
C2728 C2727 1.374 . S
C2729 C2726 1.499 . S
C2729 C2730 1.373 . S
C2729 C2731 1.389 . S
C2730 H2703 0.950 . S
C2730 C2716 1.377 . S
C2730 C2729 1.373 . S
C2731 C2715 1.377 . S
C2731 C2729 1.389 . S
C2731 C2732 1.524 . S
C2732 C2731 1.524 . S
C2732 C2733 1.397 . S
C2732 C2737 1.363 . S
C2733 H2704 0.950 . S
C2733 C2732 1.397 . S
C2733 C2734 1.334 . S
C2734 H2705 0.950 . S
C2734 C2733 1.334 . S
C2734 C2735 1.287 . S
C2735 C2734 1.287 . S
C2735 C2736 1.524 . S
C2735 H2738 0.999 . S
C2736 H2706 0.950 . S
C2736 C2735 1.524 . S
C2736 C2737 1.415 . S
C2737 H2707 0.950 . S
C2737 C2732 1.363 . S
C2737 C2736 1.415 . S
H2738 C2735 0.999 . S
H2739 C2720 0.913 . S
H2740 C2758 0.951 . S
H2741 C2760 0.951 . S
H2742 C2762 0.950 . S
H2743 C2763 0.950 . S
H2744 C2765 0.950 . S
H2745 C2768 0.950 . S
H2746 C2769 0.950 . S
H2747 C2771 0.950 . S
H2748 C2772 0.950 . S
H2749 C2773 0.951 . S
H2750 C2775 0.951 . S
H2751 C2777 0.950 . S
H2752 C2778 0.950 . S
H2753 C2780 0.950 . S
H2754 C2783 0.950 . S
H2755 C2784 0.950 . S
H2756 C2786 0.950 . S
H2757 C2787 0.950 . S
C2758 H2740 0.951 . S
C2758 C2759 1.366 . S
C2758 C2760 1.388 . S
C2759 C2758 1.366 . S
C2759 C2763 1.385 . S
C2760 H2741 0.951 . S
C2760 C2758 1.388 . S
C2760 C2761 1.366 . S
C2761 C2760 1.366 . S
C2761 C2762 1.414 . S
C2761 C2764 1.499 . S
C2762 H2742 0.950 . S
C2762 C2761 1.414 . S
C2762 C2763 1.374 . S
C2763 H2743 0.950 . S
C2763 C2759 1.385 . S
C2763 C2762 1.374 . S
C2764 C2761 1.499 . S
C2764 C2765 1.373 . S
C2764 C2766 1.389 . S
C2765 H2744 0.950 . S
C2765 C2764 1.373 . S
C2765 C2781 1.377 . S
C2766 C2764 1.389 . S
C2766 C2767 1.524 . S
C2766 C2780 1.377 . S
C2767 C2766 1.524 . S
C2767 C2768 1.397 . S
C2767 C2772 1.363 . S
C2768 H2745 0.950 . S
C2768 C2767 1.397 . S
C2768 C2769 1.334 . S
C2769 H2746 0.950 . S
C2769 C2768 1.334 . S
C2769 C2770 1.287 . S
C2770 C2769 1.287 . S
C2770 C2771 1.524 . S
C2770 H2789 0.913 . S
C2771 H2747 0.950 . S
C2771 C2770 1.524 . S
C2771 C2772 1.415 . S
C2772 H2748 0.950 . S
C2772 C2767 1.363 . S
C2772 C2771 1.415 . S
C2773 H2749 0.951 . S
C2773 C2774 1.366 . S
C2773 C2775 1.388 . S
C2774 C2773 1.366 . S
C2774 C2778 1.385 . S
C2775 H2750 0.951 . S
C2775 C2773 1.388 . S
C2775 C2776 1.366 . S
C2776 C2775 1.366 . S
C2776 C2777 1.414 . S
C2776 C2779 1.499 . S
C2777 H2751 0.950 . S
C2777 C2776 1.414 . S
C2777 C2778 1.374 . S
C2778 H2752 0.950 . S
C2778 C2774 1.385 . S
C2778 C2777 1.374 . S
C2779 C2776 1.499 . S
C2779 C2780 1.373 . S
C2779 C2781 1.389 . S
C2780 H2753 0.950 . S
C2780 C2766 1.377 . S
C2780 C2779 1.373 . S
C2781 C2765 1.377 . S
C2781 C2779 1.389 . S
C2781 C2782 1.524 . S
C2782 C2781 1.524 . S
C2782 C2783 1.397 . S
C2782 C2787 1.363 . S
C2783 H2754 0.950 . S
C2783 C2782 1.397 . S
C2783 C2784 1.334 . S
C2784 H2755 0.950 . S
C2784 C2783 1.334 . S
C2784 C2785 1.287 . S
C2785 C2784 1.287 . S
C2785 C2786 1.524 . S
C2785 H2788 0.999 . S
C2786 H2756 0.950 . S
C2786 C2785 1.524 . S
C2786 C2787 1.415 . S
C2787 H2757 0.950 . S
C2787 C2782 1.363 . S
C2787 C2786 1.415 . S
H2788 C2785 0.999 . S
H2789 C2770 0.913 . S
H2790 C2808 0.951 . S
H2791 C2810 0.951 . S
H2792 C2812 0.950 . S
H2793 C2813 0.950 . S
H2794 C2815 0.950 . S
H2795 C2818 0.950 . S
H2796 C2819 0.950 . S
H2797 C2821 0.950 . S
H2798 C2822 0.950 . S
H2799 C2823 0.951 . S
H2800 C2825 0.951 . S
H2801 C2827 0.950 . S
H2802 C2828 0.950 . S
H2803 C2830 0.950 . S
H2804 C2833 0.950 . S
H2805 C2834 0.950 . S
H2806 C2836 0.950 . S
H2807 C2837 0.950 . S
C2808 H2790 0.951 . S
C2808 C2809 1.366 . S
C2808 C2810 1.388 . S
C2809 C2808 1.366 . S
C2809 C2813 1.385 . S
C2810 H2791 0.951 . S
C2810 C2808 1.388 . S
C2810 C2811 1.366 . S
C2811 C2810 1.366 . S
C2811 C2812 1.414 . S
C2811 C2814 1.499 . S
C2812 H2792 0.950 . S
C2812 C2811 1.414 . S
C2812 C2813 1.374 . S
C2813 H2793 0.950 . S
C2813 C2809 1.385 . S
C2813 C2812 1.374 . S
C2814 C2811 1.499 . S
C2814 C2815 1.373 . S
C2814 C2816 1.389 . S
C2815 H2794 0.950 . S
C2815 C2814 1.373 . S
C2815 C2831 1.377 . S
C2816 C2814 1.389 . S
C2816 C2817 1.524 . S
C2816 C2830 1.377 . S
C2817 C2816 1.524 . S
C2817 C2818 1.397 . S
C2817 C2822 1.363 . S
C2818 H2795 0.950 . S
C2818 C2817 1.397 . S
C2818 C2819 1.334 . S
C2819 H2796 0.950 . S
C2819 C2818 1.334 . S
C2819 C2820 1.287 . S
C2820 C2819 1.287 . S
C2820 C2821 1.524 . S
C2820 H2839 0.913 . S
C2821 H2797 0.950 . S
C2821 C2820 1.524 . S
C2821 C2822 1.415 . S
C2822 H2798 0.950 . S
C2822 C2817 1.363 . S
C2822 C2821 1.415 . S
C2823 H2799 0.951 . S
C2823 C2824 1.366 . S
C2823 C2825 1.388 . S
C2824 C2823 1.366 . S
C2824 C2828 1.385 . S
C2825 H2800 0.951 . S
C2825 C2823 1.388 . S
C2825 C2826 1.366 . S
C2826 C2825 1.366 . S
C2826 C2827 1.414 . S
C2826 C2829 1.499 . S
C2827 H2801 0.950 . S
C2827 C2826 1.414 . S
C2827 C2828 1.374 . S
C2828 H2802 0.950 . S
C2828 C2824 1.385 . S
C2828 C2827 1.374 . S
C2829 C2826 1.499 . S
C2829 C2830 1.373 . S
C2829 C2831 1.389 . S
C2830 H2803 0.950 . S
C2830 C2816 1.377 . S
C2830 C2829 1.373 . S
C2831 C2815 1.377 . S
C2831 C2829 1.389 . S
C2831 C2832 1.524 . S
C2832 C2831 1.524 . S
C2832 C2833 1.397 . S
C2832 C2837 1.363 . S
C2833 H2804 0.950 . S
C2833 C2832 1.397 . S
C2833 C2834 1.334 . S
C2834 H2805 0.950 . S
C2834 C2833 1.334 . S
C2834 C2835 1.287 . S
C2835 C2834 1.287 . S
C2835 C2836 1.524 . S
C2835 H2838 0.999 . S
C2836 H2806 0.950 . S
C2836 C2835 1.524 . S
C2836 C2837 1.415 . S
C2837 H2807 0.950 . S
C2837 C2832 1.363 . S
C2837 C2836 1.415 . S
H2838 C2835 0.999 . S
H2839 C2820 0.913 . S
H2840 C2858 0.951 . S
H2841 C2860 0.951 . S
H2842 C2862 0.950 . S
H2843 C2863 0.950 . S
H2844 C2865 0.950 . S
H2845 C2868 0.950 . S
H2846 C2869 0.950 . S
H2847 C2871 0.950 . S
H2848 C2872 0.950 . S
H2849 C2873 0.951 . S
H2850 C2875 0.948 1_554 S
H2851 C2877 0.950 . S
H2852 C2878 0.950 . S
H2853 C2880 0.966 . S
H2854 C2883 0.950 . S
H2855 C2884 0.950 . S
H2856 C2886 0.950 . S
H2857 C2887 0.950 . S
C2858 H2840 0.951 . S
C2858 C2859 1.366 . S
C2858 C2860 1.388 . S
C2859 C2858 1.366 . S
C2859 C2863 1.385 . S
C2860 H2841 0.951 . S
C2860 C2858 1.388 . S
C2860 C2861 1.366 . S
C2861 C2860 1.366 . S
C2861 C2862 1.414 . S
C2861 C2864 1.499 . S
C2862 H2842 0.950 . S
C2862 C2861 1.414 . S
C2862 C2863 1.374 . S
C2863 H2843 0.950 . S
C2863 C2859 1.385 . S
C2863 C2862 1.374 . S
C2864 C2861 1.499 . S
C2864 C2865 1.373 . S
C2864 C2866 1.394 . S
C2865 H2844 0.950 . S
C2865 C2864 1.373 . S
C2865 C2881 1.377 . S
C2866 C2864 1.394 . S
C2866 C2867 1.520 1_556 S
C2866 C2880 1.378 1_556 S
C2867 C2866 1.520 1_554 S
C2867 C2868 1.397 . S
C2867 C2872 1.363 . S
C2868 H2845 0.950 . S
C2868 C2867 1.397 . S
C2868 C2869 1.334 . S
C2869 H2846 0.950 . S
C2869 C2868 1.334 . S
C2869 C2870 1.287 . S
C2870 C2869 1.287 . S
C2870 C2871 1.524 . S
C2870 H2889 0.913 . S
C2871 H2847 0.950 . S
C2871 C2870 1.524 . S
C2871 C2872 1.415 . S
C2872 H2848 0.950 . S
C2872 C2867 1.363 . S
C2872 C2871 1.415 . S
C2873 H2849 0.951 . S
C2873 C2874 1.366 1_554 S
C2873 C2875 1.385 1_554 S
C2874 C2873 1.366 1_556 S
C2874 C2878 1.385 . S
C2875 H2850 0.948 1_556 S
C2875 C2873 1.385 1_556 S
C2875 C2876 1.374 . S
C2876 C2875 1.374 . S
C2876 C2877 1.414 . S
C2876 C2879 1.499 . S
C2877 H2851 0.950 . S
C2877 C2876 1.414 . S
C2877 C2878 1.374 . S
C2878 H2852 0.950 . S
C2878 C2874 1.385 . S
C2878 C2877 1.374 . S
C2879 C2876 1.499 . S
C2879 C2880 1.357 1_556 S
C2879 C2881 1.389 . S
C2880 H2853 0.966 . S
C2880 C2866 1.378 1_554 S
C2880 C2879 1.357 1_554 S
C2881 C2865 1.377 . S
C2881 C2879 1.389 . S
C2881 C2882 1.524 . S
C2882 C2881 1.524 . S
C2882 C2883 1.397 . S
C2882 C2887 1.363 . S
C2883 H2854 0.950 . S
C2883 C2882 1.397 . S
C2883 C2884 1.334 . S
C2884 H2855 0.950 . S
C2884 C2883 1.334 . S
C2884 C2885 1.287 . S
C2885 C2884 1.287 . S
C2885 C2886 1.524 . S
C2885 H2888 0.999 . S
C2886 H2856 0.950 . S
C2886 C2885 1.524 . S
C2886 C2887 1.415 . S
C2887 H2857 0.950 . S
C2887 C2882 1.363 . S
C2887 C2886 1.415 . S
H2888 C2885 0.999 . S
H2889 C2870 0.913 . S
H2890 C2908 0.951 . S
H2891 C2910 0.951 . S
H2892 C2912 0.950 . S
H2893 C2913 0.950 . S
H2894 C2915 0.950 . S
H2895 C2918 0.950 . S
H2896 C2919 0.950 . S
H2897 C2921 0.950 . S
H2898 C2922 0.950 . S
H2899 C2923 0.951 . S
H2900 C2925 0.951 . S
H2901 C2927 0.950 . S
H2902 C2928 0.950 . S
H2903 C2930 0.950 . S
H2904 C2933 0.950 . S
H2905 C2934 0.950 . S
H2906 C2936 0.950 . S
H2907 C2937 0.950 . S
C2908 H2890 0.951 . S
C2908 C2909 1.366 . S
C2908 C2910 1.388 . S
C2909 C2908 1.366 . S
C2909 C2913 1.385 . S
C2910 H2891 0.951 . S
C2910 C2908 1.388 . S
C2910 C2911 1.366 . S
C2911 C2910 1.366 . S
C2911 C2912 1.414 . S
C2911 C2914 1.499 . S
C2912 H2892 0.950 . S
C2912 C2911 1.414 . S
C2912 C2913 1.374 . S
C2913 H2893 0.950 . S
C2913 C2909 1.385 . S
C2913 C2912 1.374 . S
C2914 C2911 1.499 . S
C2914 C2915 1.373 . S
C2914 C2916 1.389 . S
C2915 H2894 0.950 . S
C2915 C2914 1.373 . S
C2915 C2931 1.377 . S
C2916 C2914 1.389 . S
C2916 C2917 1.524 . S
C2916 C2930 1.377 . S
C2917 C2916 1.524 . S
C2917 C2918 1.397 . S
C2917 C2922 1.363 . S
C2918 H2895 0.950 . S
C2918 C2917 1.397 . S
C2918 C2919 1.334 . S
C2919 H2896 0.950 . S
C2919 C2918 1.334 . S
C2919 C2920 1.287 . S
C2920 C2919 1.287 . S
C2920 C2921 1.524 . S
C2920 H2939 0.913 . S
C2921 H2897 0.950 . S
C2921 C2920 1.524 . S
C2921 C2922 1.415 . S
C2922 H2898 0.950 . S
C2922 C2917 1.363 . S
C2922 C2921 1.415 . S
C2923 H2899 0.951 . S
C2923 C2924 1.366 . S
C2923 C2925 1.388 . S
C2924 C2923 1.366 . S
C2924 C2928 1.385 . S
C2925 H2900 0.951 . S
C2925 C2923 1.388 . S
C2925 C2926 1.366 . S
C2926 C2925 1.366 . S
C2926 C2927 1.414 . S
C2926 C2929 1.499 . S
C2927 H2901 0.950 . S
C2927 C2926 1.414 . S
C2927 C2928 1.374 . S
C2928 H2902 0.950 . S
C2928 C2924 1.385 . S
C2928 C2927 1.374 . S
C2929 C2926 1.499 . S
C2929 C2930 1.373 . S
C2929 C2931 1.389 . S
C2930 H2903 0.950 . S
C2930 C2916 1.377 . S
C2930 C2929 1.373 . S
C2931 C2915 1.377 . S
C2931 C2929 1.389 . S
C2931 C2932 1.524 . S
C2932 C2931 1.524 . S
C2932 C2933 1.397 . S
C2932 C2937 1.363 . S
C2933 H2904 0.950 . S
C2933 C2932 1.397 . S
C2933 C2934 1.334 . S
C2934 H2905 0.950 . S
C2934 C2933 1.334 . S
C2934 C2935 1.287 . S
C2935 C2934 1.287 . S
C2935 C2936 1.524 . S
C2935 H2938 0.999 . S
C2936 H2906 0.950 . S
C2936 C2935 1.524 . S
C2936 C2937 1.415 . S
C2937 H2907 0.950 . S
C2937 C2932 1.363 . S
C2937 C2936 1.415 . S
H2938 C2935 0.999 . S
H2939 C2920 0.913 . S
H2940 C2958 0.951 . S
H2941 C2960 0.951 . S
H2942 C2962 0.950 . S
H2943 C2963 0.950 . S
H2944 C2965 0.950 . S
H2945 C2968 0.950 1_554 S
H2946 C2969 0.950 . S
H2947 C2971 0.950 . S
H2948 C2972 0.950 . S
H2949 C2973 0.951 . S
H2950 C2975 0.951 . S
H2951 C2977 0.950 . S
H2952 C2978 0.950 1_556 S
H2953 C2980 0.950 1_556 S
H2954 C2983 0.950 . S
H2955 C2984 0.950 . S
H2956 C2986 0.950 . S
H2957 C2987 0.950 . S
C2958 H2940 0.951 . S
C2958 C2959 1.366 . S
C2958 C2960 1.388 . S
C2959 C2958 1.366 . S
C2959 C2963 1.385 . S
C2960 H2941 0.951 . S
C2960 C2958 1.388 . S
C2960 C2961 1.366 . S
C2961 C2960 1.366 . S
C2961 C2962 1.414 . S
C2961 C2964 1.499 . S
C2962 H2942 0.950 . S
C2962 C2961 1.414 . S
C2962 C2963 1.374 . S
C2963 H2943 0.950 . S
C2963 C2959 1.385 . S
C2963 C2962 1.374 . S
C2964 C2961 1.499 . S
C2964 C2965 1.373 . S
C2964 C2966 1.389 . S
C2965 H2944 0.950 . S
C2965 C2964 1.373 . S
C2965 C2981 1.377 . S
C2966 C2964 1.389 . S
C2966 C2967 1.524 1_554 S
C2966 C2980 1.377 . S
C2967 C2966 1.524 1_556 S
C2967 C2968 1.397 . S
C2967 C2972 1.363 . S
C2968 H2945 0.950 1_556 S
C2968 C2967 1.397 . S
C2968 C2969 1.334 . S
C2969 H2946 0.950 . S
C2969 C2968 1.334 . S
C2969 C2970 1.287 . S
C2970 C2969 1.287 . S
C2970 C2971 1.524 . S
C2970 H2989 0.913 . S
C2971 H2947 0.950 . S
C2971 C2970 1.524 . S
C2971 C2972 1.415 . S
C2972 H2948 0.950 . S
C2972 C2967 1.363 . S
C2972 C2971 1.415 . S
C2973 H2949 0.951 . S
C2973 C2974 1.366 . S
C2973 C2975 1.388 . S
C2974 C2973 1.366 . S
C2974 C2978 1.385 . S
C2975 H2950 0.951 . S
C2975 C2973 1.388 . S
C2975 C2976 1.366 . S
C2976 C2975 1.366 . S
C2976 C2977 1.414 . S
C2976 C2979 1.499 . S
C2977 H2951 0.950 . S
C2977 C2976 1.414 . S
C2977 C2978 1.374 . S
C2978 H2952 0.950 1_554 S
C2978 C2974 1.385 . S
C2978 C2977 1.374 . S
C2979 C2976 1.499 . S
C2979 C2980 1.373 . S
C2979 C2981 1.389 . S
C2980 H2953 0.950 1_554 S
C2980 C2966 1.377 . S
C2980 C2979 1.373 . S
C2981 C2965 1.377 . S
C2981 C2979 1.389 . S
C2981 C2982 1.524 . S
C2982 C2981 1.524 . S
C2982 C2983 1.397 . S
C2982 C2987 1.363 . S
C2983 H2954 0.950 . S
C2983 C2982 1.397 . S
C2983 C2984 1.334 . S
C2984 H2955 0.950 . S
C2984 C2983 1.334 . S
C2984 C2985 1.287 . S
C2985 C2984 1.287 . S
C2985 C2986 1.524 . S
C2985 H2988 0.999 . S
C2986 H2956 0.950 . S
C2986 C2985 1.524 . S
C2986 C2987 1.415 . S
C2987 H2957 0.950 . S
C2987 C2982 1.363 . S
C2987 C2986 1.415 . S
H2988 C2985 0.999 . S
H2989 C2970 0.913 . S
H2990 C3008 0.951 . S
H2991 C3010 0.951 . S
H2992 C3012 0.950 1_545 S
H2993 C3013 0.950 . S
H2994 C3015 0.950 . S
H2995 C3018 0.950 . S
H2996 C3019 0.950 . S
H2997 C3021 0.950 . S
H2998 C3022 0.950 . S
H2999 C3023 0.951 . S
H3000 C3025 0.951 . S
H3001 C3027 0.950 . S
H3002 C3028 0.950 . S
H3003 C3030 0.950 . S
H3004 C3033 0.950 . S
H3005 C3034 0.950 . S
H3006 C3036 0.950 . S
H3007 C3037 0.950 . S
C3008 H2990 0.951 . S
C3008 C3009 1.366 . S
C3008 C3010 1.388 . S
C3009 C3008 1.366 . S
C3009 C3013 1.385 1_565 S
C3010 H2991 0.951 . S
C3010 C3008 1.388 . S
C3010 C3011 1.366 . S
C3011 C3010 1.366 . S
C3011 C3012 1.414 . S
C3011 C3014 1.499 . S
C3012 H2992 0.950 1_565 S
C3012 C3011 1.414 . S
C3012 C3013 1.374 1_565 S
C3013 H2993 0.950 . S
C3013 C3009 1.385 1_545 S
C3013 C3012 1.374 1_545 S
C3014 C3011 1.499 . S
C3014 C3015 1.373 . S
C3014 C3016 1.389 . S
C3015 H2994 0.950 . S
C3015 C3014 1.373 . S
C3015 C3031 1.377 . S
C3016 C3014 1.389 . S
C3016 C3017 1.524 . S
C3016 C3030 1.377 . S
C3017 C3016 1.524 . S
C3017 C3018 1.397 . S
C3017 C3022 1.363 . S
C3018 H2995 0.950 . S
C3018 C3017 1.397 . S
C3018 C3019 1.334 . S
C3019 H2996 0.950 . S
C3019 C3018 1.334 . S
C3019 C3020 1.287 . S
C3020 C3019 1.287 . S
C3020 C3021 1.524 . S
C3020 H3039 0.913 . S
C3021 H2997 0.950 . S
C3021 C3020 1.524 . S
C3021 C3022 1.415 . S
C3022 H2998 0.950 . S
C3022 C3017 1.363 . S
C3022 C3021 1.415 . S
C3023 H2999 0.951 . S
C3023 C3024 1.366 . S
C3023 C3025 1.388 . S
C3024 C3023 1.366 . S
C3024 C3028 1.385 . S
C3025 H3000 0.951 . S
C3025 C3023 1.388 . S
C3025 C3026 1.366 . S
C3026 C3025 1.366 . S
C3026 C3027 1.414 . S
C3026 C3029 1.499 . S
C3027 H3001 0.950 . S
C3027 C3026 1.414 . S
C3027 C3028 1.374 . S
C3028 H3002 0.950 . S
C3028 C3024 1.385 . S
C3028 C3027 1.374 . S
C3029 C3026 1.499 . S
C3029 C3030 1.373 . S
C3029 C3031 1.389 . S
C3030 H3003 0.950 . S
C3030 C3016 1.377 . S
C3030 C3029 1.373 . S
C3031 C3015 1.377 . S
C3031 C3029 1.389 . S
C3031 C3032 1.524 1_554 S
C3032 C3031 1.524 1_556 S
C3032 C3033 1.397 . S
C3032 C3037 1.363 . S
C3033 H3004 0.950 . S
C3033 C3032 1.397 . S
C3033 C3034 1.334 . S
C3034 H3005 0.950 . S
C3034 C3033 1.334 . S
C3034 C3035 1.287 . S
C3035 C3034 1.287 . S
C3035 C3036 1.524 . S
C3035 H3038 0.999 . S
C3036 H3006 0.950 . S
C3036 C3035 1.524 . S
C3036 C3037 1.415 . S
C3037 H3007 0.950 . S
C3037 C3032 1.363 . S
C3037 C3036 1.415 . S
H3038 C3035 0.999 . S
H3039 C3020 0.913 . S
C674 C210 1.076 . S
C659 N66 1.054 . S
C724 C258 1.640 . S
C709 N79 1.682 . S
C759 N92 1.825 . S
C774 C294 1.757 . S
C824 C330 1.372 . S
C809 N54 1.449 . S
C874 C356 1.363 . S
C859 N131 1.345 . S
C924 C392 1.220 . S
C909 N158 1.218 . S
C959 N145 1.548 . S
C974 C427 1.556 . S
C1024 C464 1.891 . S
C1009 N118 1.869 . S
C1059 N148 1.937 . S
C1074 C498 1.946 . S
C1124 C546 1.716 . S
C1109 N122 1.745 . S
C1159 N132 1.051 . S
C1174 C499 1.056 . S
C1224 C536 1.548 . S
C1209 N161 1.514 . S
C1259 N96 1.931 . S
C1274 C582 1.881 . S
C1309 N53 1.818 . S
C1324 C571 1.844 . S
C1359 N67 0.977 . S
C1374 C572 0.976 . S
C1409 N83 1.515 . S
C1424 C570 1.533 . S
C1459 N44 1.254 . S
C1474 C318 1.262 . S
C1509 N187 1.408 . S
C1524 C319 1.422 . S
C1574 C222 1.231 . S
C1559 N197 1.269 . S
C1624 C247 1.242 . S
C1609 N106 1.241 . S
C1659 N57 1.999 1_545 S
C1674 C354 2.004 . S
C1724 C462 1.336 . S
C1709 N144 1.323 . S
C1774 C355 1.423 . S
C1759 N119 1.434 1_545 S
C1824 C428 1.956 . S
C1809 N157 1.929 . S
C1874 C426 1.076 . S
C1859 N183 1.055 . S
C1909 N196 1.682 . S
C1924 C474 1.641 . S
C1959 N105 1.825 . S
C1974 C366 1.757 . S
C2024 C402 1.372 . S
C2009 N171 1.449 . S
C2059 N40 1.345 . S
C2074 C284 1.363 . S
C2124 C320 1.220 . S
C2109 N2 1.218 1_655 S
C2174 C211 1.556 . S
C2159 N15 1.548 . S
C2224 C248 1.891 . S
C2209 N27 1.846 1_455 S
C2259 N18 1.937 . S
C2274 C534 1.946 . S
C2309 N31 1.745 . S
C2324 C510 1.717 . S
C2359 N41 1.051 . S
C2374 C535 1.057 . S
C2409 N5 1.513 . S
C2424 C500 1.548 . S
C2474 C618 1.880 . S
C2459 N109 1.931 . S
C2524 C607 1.843 . S
C2509 N170 1.850 . S
C2574 C608 0.976 . S
C2559 N184 0.977 . S
C2609 N200 1.513 1_554 S
C2624 C606 1.533 . S
C2659 N135 1.254 . S
C2674 C390 1.262 . S
C2724 C391 1.423 . S
C2709 N70 1.408 . S
C2774 C438 1.230 . S
C2759 N80 1.269 . S
C2824 C463 1.242 . S
C2809 N93 1.240 . S
C2859 N174 1.998 . S
C2874 C282 2.004 1_556 S
C2924 C246 1.336 . S
C2909 N14 1.323 . S
C2959 N28 1.434 . S
C2974 C283 1.423 . S
C3024 C212 1.956 . S
C3009 N1 1.930 1_565 S
