# Generated by pormake.
# Topology pyr, (3,6)-cn, num edge types: 1
# Building blocks:
#     Node 0, Type 0, BuildingBlock: BELTOD_clean_linker_0, # of connection points: 3
#     Node 1, Type 0, BuildingBlock: BELTOD_clean_linker_0, # of connection points: 3
#     Node 2, Type 0, BuildingBlock: BELTOD_clean_linker_0, # of connection points: 3
#     Node 3, Type 0, BuildingBlock: BELTOD_clean_linker_0, # of connection points: 3
#     Node 4, Type 0, BuildingBlock: BELTOD_clean_linker_0, # of connection points: 3
#     Node 5, Type 0, BuildingBlock: BELTOD_clean_linker_0, # of connection points: 3
#     Node 6, Type 0, BuildingBlock: BELTOD_clean_linker_0, # of connection points: 3
#     Node 7, Type 0, BuildingBlock: BELTOD_clean_linker_0, # of connection points: 3
#     Node 8, Type 1, BuildingBlock: BETGAK_clean_sbu_0, # of connection points: 6
#     Node 9, Type 1, BuildingBlock: BETGAK_clean_sbu_0, # of connection points: 6
#     Node 10, Type 1, BuildingBlock: BETGAK_clean_sbu_0, # of connection points: 6
#     Node 11, Type 1, BuildingBlock: BETGAK_clean_sbu_0, # of connection points: 6
#     Edge 12, Type (0, 1), BuildingBlock: XUDNAN_clean_linker_2, # of connection points: 2
#     Edge 13, Type (0, 1), BuildingBlock: XUDNAN_clean_linker_2, # of connection points: 2
#     Edge 14, Type (0, 1), BuildingBlock: XUDNAN_clean_linker_2, # of connection points: 2
#     Edge 15, Type (0, 1), BuildingBlock: XUDNAN_clean_linker_2, # of connection points: 2
#     Edge 16, Type (0, 1), BuildingBlock: XUDNAN_clean_linker_2, # of connection points: 2
#     Edge 17, Type (0, 1), BuildingBlock: XUDNAN_clean_linker_2, # of connection points: 2
#     Edge 18, Type (0, 1), BuildingBlock: XUDNAN_clean_linker_2, # of connection points: 2
#     Edge 19, Type (0, 1), BuildingBlock: XUDNAN_clean_linker_2, # of connection points: 2
#     Edge 20, Type (0, 1), BuildingBlock: XUDNAN_clean_linker_2, # of connection points: 2
#     Edge 21, Type (0, 1), BuildingBlock: XUDNAN_clean_linker_2, # of connection points: 2
#     Edge 22, Type (0, 1), BuildingBlock: XUDNAN_clean_linker_2, # of connection points: 2
#     Edge 23, Type (0, 1), BuildingBlock: XUDNAN_clean_linker_2, # of connection points: 2
#     Edge 24, Type (0, 1), BuildingBlock: XUDNAN_clean_linker_2, # of connection points: 2
#     Edge 25, Type (0, 1), BuildingBlock: XUDNAN_clean_linker_2, # of connection points: 2
#     Edge 26, Type (0, 1), BuildingBlock: XUDNAN_clean_linker_2, # of connection points: 2
#     Edge 27, Type (0, 1), BuildingBlock: XUDNAN_clean_linker_2, # of connection points: 2
#     Edge 28, Type (0, 1), BuildingBlock: XUDNAN_clean_linker_2, # of connection points: 2
#     Edge 29, Type (0, 1), BuildingBlock: XUDNAN_clean_linker_2, # of connection points: 2
#     Edge 30, Type (0, 1), BuildingBlock: XUDNAN_clean_linker_2, # of connection points: 2
#     Edge 31, Type (0, 1), BuildingBlock: XUDNAN_clean_linker_2, # of connection points: 2
#     Edge 32, Type (0, 1), BuildingBlock: XUDNAN_clean_linker_2, # of connection points: 2
#     Edge 33, Type (0, 1), BuildingBlock: XUDNAN_clean_linker_2, # of connection points: 2
#     Edge 34, Type (0, 1), BuildingBlock: XUDNAN_clean_linker_2, # of connection points: 2
#     Edge 35, Type (0, 1), BuildingBlock: XUDNAN_clean_linker_2, # of connection points: 2
# Relax obj value: 0.106
# Max RMSD: 0.124
# Mean RMSD: 0.059
data_MOF--net-pyr--node1-BETGAK_clean_sbu_0--node2-BELTOD_clean_linker_0--edge1-XUDNAN_clean_linker_2
_symmetry_space_group_name_H-M    P1
_symmetry_Int_Tables_number       1
_symmetry_cell_setting            triclinic
loop_
_symmetry_equiv_pos_as_xyz
'x, y, z'
_cell_length_a     42.861356
_cell_length_b     46.114558
_cell_length_c     41.678756
_cell_angle_alpha  91.180159
_cell_angle_beta   88.77137
_cell_angle_gamma 101.94153
loop_
_atom_site_label
_atom_site_type_symbol
_atom_site_fract_x
_atom_site_fract_y
_atom_site_fract_z
_atom_type_partial_charge
P0 P 0.35368 0.31204 0.24286 0.0
H1 H 0.41202 0.29226 0.22338 0.0
H2 H 0.42142 0.24796 0.19555 0.0
H3 H 0.32 0.2199 0.17991 0.0
H4 H 0.3108 0.26291 0.21056 0.0
H5 H 0.36553 0.37642 0.24912 0.0
H6 H 0.33842 0.41301 0.22729 0.0
H7 H 0.28289 0.34476 0.16705 0.0
H8 H 0.31123 0.30896 0.18766 0.0
H9 H 0.35196 0.26944 0.29369 0.0
H10 H 0.28931 0.32316 0.25796 0.0
O11 O 0.38714 0.32756 0.2617 0.0
H12 H 0.31072 0.24767 0.33283 0.0
H13 H 0.24847 0.30177 0.2969 0.0
C14 C 0.36074 0.2811 0.21873 0.0
C15 C 0.39182 0.27661 0.21386 0.0
C16 C 0.39717 0.25123 0.19757 0.0
C17 C 0.37152 0.23005 0.1852 0.0
C18 C 0.34041 0.23521 0.18949 0.0
C19 C 0.33508 0.26021 0.20651 0.0
C20 C 0.34065 0.33992 0.21992 0.0
C21 C 0.34838 0.36959 0.23032 0.0
C22 C 0.3325 0.39044 0.2181 0.0
C23 C 0.30803 0.38184 0.19574 0.0
C24 C 0.30179 0.35242 0.18393 0.0
C25 C 0.31801 0.33171 0.19586 0.0
C26 C 0.32382 0.29785 0.27283 0.0
C27 C 0.3295 0.27674 0.29445 0.0
C28 C 0.30599 0.26443 0.31686 0.0
C29 C 0.27632 0.27299 0.31787 0.0
C30 C 0.27093 0.29447 0.29643 0.0
C31 C 0.29445 0.30682 0.27415 0.0
P32 P 0.37819 0.95777 0.54997 0.0
H33 H 0.42634 0.97294 0.59962 0.0
H34 H 0.42275 0.97109 0.65819 0.0
H35 H 0.31995 0.94646 0.65304 0.0
H36 H 0.32396 0.947 0.59468 0.0
H37 H 0.42888 0.92439 0.54312 0.0
H38 H 0.42819 0.8714 0.54182 0.0
H39 H 0.325 0.85311 0.5403 0.0
H40 H 0.3261 0.90589 0.54452 0.0
H41 H 0.34383 1.00487 0.56593 0.0
H42 H 0.341 0.93726 0.49243 0.0
O43 O 0.41225 0.97854 0.53625 0.0
H44 H 0.29477 1.01623 0.54572 0.0
H45 H 0.29105 0.94709 0.47326 0.0
C46 C 0.37538 0.96102 0.5929 0.0
C47 C 0.40304 0.96767 0.6112 0.0
C48 C 0.40092 0.96661 0.6447 0.0
C49 C 0.37103 0.95868 0.66041 0.0
C50 C 0.34337 0.95231 0.64181 0.0
C51 C 0.34558 0.95309 0.60839 0.0
C52 C 0.3776 0.91912 0.54268 0.0
C53 C 0.40617 0.90891 0.54188 0.0
C54 C 0.40568 0.8785 0.54099 0.0
C55 C 0.3765 0.85772 0.54078 0.0
C56 C 0.34794 0.86826 0.54087 0.0
C57 C 0.34851 0.89859 0.54259 0.0
C58 C 0.34513 0.96923 0.53166 0.0
C59 C 0.33255 0.99238 0.5455 0.0
C60 C 0.30434 0.99868 0.53405 0.0
C61 C 0.28833 0.982 0.50843 0.0
C62 C 0.30253 0.96038 0.49308 0.0
C63 C 0.33098 0.95442 0.5043 0.0
P64 P 0.66142 0.34803 0.84475 0.0
H65 H 0.68177 0.33863 0.91086 0.0
H66 H 0.72765 0.36078 0.94211 0.0
H67 H 0.75994 0.42368 0.86713 0.0
H68 H 0.71237 0.40195 0.83616 0.0
H69 H 0.6411 0.28404 0.8293 0.0
H70 H 0.61347 0.24132 0.85982 0.0
H71 H 0.59567 0.29986 0.93696 0.0
H72 H 0.62297 0.34281 0.9059 0.0
H73 H 0.62299 0.33365 0.7867 0.0
H74 H 0.65425 0.41131 0.84595 0.0
O75 O 0.68267 0.33212 0.81829 0.0
H76 H 0.59965 0.36299 0.74903 0.0
H77 H 0.63188 0.44101 0.80814 0.0
C78 C 0.69225 0.36906 0.87127 0.0
C79 C 0.69765 0.35792 0.90135 0.0
C80 C 0.72474 0.3704 0.91917 0.0
C81 C 0.74825 0.39399 0.90726 0.0
C82 C 0.74247 0.40581 0.8775 0.0
C83 C 0.71501 0.39337 0.85971 0.0
C84 C 0.63501 0.31701 0.86537 0.0
C85 C 0.63092 0.28796 0.85257 0.0
C86 C 0.6149 0.26329 0.87012 0.0
C87 C 0.60262 0.26678 0.90126 0.0
C88 C 0.60522 0.29606 0.91334 0.0
C89 C 0.62072 0.32079 0.89545 0.0
C90 C 0.64041 0.36998 0.81958 0.0
C91 C 0.62466 0.35703 0.79183 0.0
C92 C 0.61159 0.37405 0.76989 0.0
C93 C 0.61366 0.40474 0.77496 0.0
C94 C 0.62913 0.4175 0.80316 0.0
C95 C 0.64218 0.40044 0.82506 0.0
P96 P 0.84126 0.69327 0.34177 0.0
H97 H 0.87369 0.74947 0.3142 0.0
H98 H 0.8997 0.79714 0.33727 0.0
H99 H 0.892 0.75884 0.43143 0.0
H100 H 0.86647 0.71055 0.40781 0.0
H101 H 0.81952 0.64437 0.29557 0.0
H102 H 0.84671 0.62057 0.25355 0.0
H103 H 0.93731 0.67075 0.28579 0.0
H104 H 0.90993 0.69423 0.32796 0.0
H105 H 0.8067 0.7145 0.39554 0.0
H106 H 0.80868 0.62966 0.35111 0.0
O107 O 0.81845 0.70675 0.31639 0.0
H108 H 0.76379 0.69107 0.43167 0.0
H109 H 0.76424 0.60624 0.38654 0.0
C110 C 0.86716 0.72635 0.35919 0.0
C111 C 0.87798 0.75103 0.33975 0.0
C112 C 0.89275 0.7785 0.35312 0.0
C113 C 0.8973 0.78233 0.3865 0.0
C114 C 0.88879 0.75696 0.40571 0.0
C115 C 0.87399 0.72926 0.39218 0.0
C116 C 0.86248 0.67081 0.31574 0.0
C117 C 0.84533 0.64955 0.29442 0.0
C118 C 0.86099 0.63599 0.27007 0.0
C119 C 0.89438 0.64369 0.26578 0.0
C120 C 0.91158 0.66436 0.28785 0.0
C121 C 0.89589 0.67769 0.31239 0.0
C122 C 0.81228 0.67391 0.3712 0.0
C123 C 0.79851 0.6907 0.39389 0.0
C124 C 0.77347 0.6773 0.41435 0.0
C125 C 0.76045 0.64674 0.41208 0.0
C126 C 0.77359 0.62985 0.38886 0.0
C127 C 0.79931 0.64327 0.36875 0.0
P128 P 0.7812 0.8584 0.93521 0.0
H129 H 0.76942 0.91625 0.92083 0.0
H130 H 0.72147 0.93723 0.92364 0.0
H131 H 0.66558 0.85186 0.95062 0.0
H132 H 0.7137 0.83101 0.94779 0.0
H133 H 0.80374 0.81862 0.97864 0.0
H134 H 0.80814 0.76708 0.97223 0.0
H135 H 0.75205 0.75927 0.88637 0.0
H136 H 0.74764 0.81118 0.89308 0.0
H137 H 0.85007 0.87473 0.92486 0.0
H138 H 0.76544 0.86198 0.86777 0.0
O139 O 0.80101 0.87354 0.9675 0.0
H140 H 0.88325 0.88076 0.87596 0.0
H141 H 0.79846 0.86782 0.81876 0.0
C142 C 0.74498 0.87205 0.93366 0.0
C143 C 0.74675 0.90196 0.92687 0.0
C144 C 0.71941 0.91394 0.92866 0.0
C145 C 0.68983 0.89616 0.93736 0.0
C146 C 0.688 0.86597 0.94345 0.0
C147 C 0.71548 0.85405 0.94188 0.0
C148 C 0.77537 0.81872 0.93634 0.0
C149 C 0.79138 0.8056 0.95909 0.0
C150 C 0.79381 0.77601 0.95541 0.0
C151 C 0.78058 0.75914 0.92866 0.0
C152 C 0.76267 0.7718 0.90708 0.0
C153 C 0.76002 0.80139 0.91098 0.0
C154 C 0.80538 0.86854 0.8999 0.0
C155 C 0.83868 0.87396 0.90183 0.0
C156 C 0.85758 0.87729 0.8739 0.0
C157 C 0.84339 0.87465 0.8436 0.0
C158 C 0.81 0.86971 0.8418 0.0
C159 C 0.79115 0.86668 0.86976 0.0
P160 P 0.78198 0.21505 0.44628 0.0
H161 H 0.71415 0.21164 0.43237 0.0
H162 H 0.67232 0.23072 0.4612 0.0
H163 H 0.73789 0.26362 0.53719 0.0
H164 H 0.77975 0.24408 0.50836 0.0
H165 H 0.84744 0.20765 0.44951 0.0
H166 H 0.87137 0.17072 0.47522 0.0
H167 H 0.78036 0.13282 0.51955 0.0
H168 H 0.75678 0.17056 0.49445 0.0
H169 H 0.73758 0.15856 0.43708 0.0
H170 H 0.79804 0.22353 0.37786 0.0
O171 O 0.80866 0.24545 0.43632 0.0
H172 H 0.7211 0.12773 0.38964 0.0
H173 H 0.78196 0.19262 0.33025 0.0
C174 C 0.74999 0.22628 0.4684 0.0
C175 C 0.71942 0.22231 0.45554 0.0
C176 C 0.69544 0.2331 0.47212 0.0
C177 C 0.70187 0.24842 0.50151 0.0
C178 C 0.73235 0.2518 0.51461 0.0
C179 C 0.75621 0.24072 0.49818 0.0
C180 C 0.80053 0.19201 0.47044 0.0
C181 C 0.83285 0.1919 0.46544 0.0
C182 C 0.84637 0.17056 0.47984 0.0
C183 C 0.82757 0.14862 0.49901 0.0
C184 C 0.79543 0.14955 0.50506 0.0
C185 C 0.78197 0.17107 0.49073 0.0
C186 C 0.76882 0.19339 0.41093 0.0
C187 C 0.74736 0.16614 0.41385 0.0
C188 C 0.73818 0.14843 0.38674 0.0
C189 C 0.75039 0.15766 0.35622 0.0
C190 C 0.77196 0.18503 0.35342 0.0
C191 C 0.78116 0.20272 0.38061 0.0
P192 P 0.36921 0.69526 0.20982 0.0
H193 H 0.35163 0.68314 0.14298 0.0
H194 H 0.30217 0.6618 0.11572 0.0
H195 H 0.25286 0.64722 0.20708 0.0
H196 H 0.30292 0.6693 0.2346 0.0
H197 H 0.32953 0.73588 0.18647 0.0
H198 H 0.34239 0.7856 0.16583 0.0
H199 H 0.43944 0.79491 0.1974 0.0
H200 H 0.42658 0.74374 0.21596 0.0
H201 H 0.34697 0.63696 0.23848 0.0
H202 H 0.40779 0.71926 0.26765 0.0
O203 O 0.39723 0.68417 0.18712 0.0
H204 H 0.36367 0.61247 0.28425 0.0
H205 H 0.42539 0.69436 0.31371 0.0
C206 C 0.33149 0.67751 0.19101 0.0
C207 C 0.33038 0.67512 0.15738 0.0
C208 C 0.3019 0.66291 0.14171 0.0
C209 C 0.27337 0.65252 0.15908 0.0
C210 C 0.27441 0.65455 0.1929 0.0
C211 C 0.30307 0.66729 0.20868 0.0
C212 C 0.3768 0.73559 0.20351 0.0
C213 C 0.35351 0.74858 0.18961 0.0
C214 C 0.36107 0.77762 0.17772 0.0
C215 C 0.39223 0.79527 0.17961 0.0
C216 C 0.41529 0.78248 0.19471 0.0
C217 C 0.40775 0.75312 0.20615 0.0
C218 C 0.37513 0.68045 0.24954 0.0
C219 C 0.36309 0.65022 0.2553 0.0
C220 C 0.37317 0.63596 0.28151 0.0
C221 C 0.39627 0.65115 0.30293 0.0
C222 C 0.40741 0.68182 0.29811 0.0
C223 C 0.39723 0.69617 0.27162 0.0
P224 P 0.18095 0.35133 0.73548 0.0
H225 H 0.16387 0.28673 0.74576 0.0
H226 H 0.14424 0.24423 0.71055 0.0
H227 H 0.13196 0.3038 0.63538 0.0
H228 H 0.1527 0.34622 0.67056 0.0
H229 H 0.24959 0.3538 0.72626 0.0
H230 H 0.29095 0.38261 0.69203 0.0
H231 H 0.22218 0.42944 0.65545 0.0
H232 H 0.18062 0.40028 0.69007 0.0
H233 H 0.11831 0.33199 0.7673 0.0
H234 H 0.18878 0.41307 0.76052 0.0
O235 O 0.20055 0.33665 0.76299 0.0
H236 H 0.09005 0.35433 0.80961 0.0
H237 H 0.16071 0.43565 0.80299 0.0
C238 C 0.16036 0.32001 0.71088 0.0
C239 C 0.15672 0.29078 0.72179 0.0
C240 C 0.14522 0.26624 0.7015 0.0
C241 C 0.13682 0.27011 0.66958 0.0
C242 C 0.13891 0.29956 0.65937 0.0
C243 C 0.15053 0.32408 0.67967 0.0
C244 C 0.21179 0.37498 0.71124 0.0
C245 C 0.24331 0.37054 0.71129 0.0
C246 C 0.26719 0.38722 0.69165 0.0
C247 C 0.26024 0.4086 0.67085 0.0
C248 C 0.22857 0.41309 0.6709 0.0
C249 C 0.20469 0.3965 0.69084 0.0
C250 C 0.15534 0.37093 0.7597 0.0
C251 C 0.12724 0.35495 0.77413 0.0
C252 C 0.11129 0.36772 0.79886 0.0
C253 C 0.12303 0.39693 0.81027 0.0
C254 C 0.15055 0.41331 0.79487 0.0
C255 C 0.16663 0.40038 0.77026 0.0
La256 La 0.02352 0.04329 0.49035 0.0
La257 La 0.03032 1.01102 0.55081 0.0
C258 C 1.01546 0.08093 0.45003 0.0
C259 C 0.03627 0.10908 0.44013 0.0
C260 C 0.04776 0.1119 0.40835 0.0
C261 C 0.07248 0.13541 0.39982 0.0
C262 C 0.08607 0.15674 0.42291 0.0
C263 C 0.07293 0.15505 0.45419 0.0
C264 C 0.04829 0.13142 0.46275 0.0
C265 C 0.07047 1.01436 0.48929 0.0
C266 C 0.06101 0.08047 0.54777 0.0
C267 C 0.04822 0.98536 0.59753 0.0
C268 C 0.03149 0.96131 0.61786 0.0
C269 C 0.04303 0.95772 0.64837 0.0
C270 C 0.024 0.93921 0.67047 0.0
C271 C 0.99303 0.92424 0.66239 0.0
C272 C 0.98241 0.92656 0.63102 0.0
C273 C 1.00149 0.94497 0.60895 0.0
C274 C 0.97335 1.02235 0.54341 0.0
C275 C 0.99217 0.97615 0.49239 0.0
O276 O 0.02647 0.05725 0.44259 0.0
O277 O 1.00359 0.07981 0.47926 0.0
O278 O 0.05354 1.0174 0.46477 0.0
O279 O 0.06209 1.02872 0.51279 0.0
O280 O 0.05491 0.07897 0.51668 0.0
O281 O 0.05291 0.05676 0.5661 0.0
O282 O 0.03696 1.00961 0.60024 0.0
O283 O 0.05348 0.9784 0.56749 0.0
O284 O 0.9784 1.00044 0.56004 0.0
O285 O 0.99964 0.03825 0.53545 0.0
O286 O 1.01183 0.97433 0.51628 0.0
O287 O 0.98849 1.00236 0.48243 0.0
H288 H 0.0389 0.09493 0.39051 0.0
H289 H 0.08214 0.13581 0.37558 0.0
H290 H 0.08243 0.17141 0.47239 0.0
H291 H 0.03978 0.13001 0.48744 0.0
H292 H 0.06607 0.97034 0.65565 0.0
H293 H 0.03304 0.93753 0.69428 0.0
H294 H 0.9586 0.91565 0.62408 0.0
H295 H 0.99209 0.94773 0.58554 0.0
La296 La 0.51676 0.04553 0.06761 0.0
La297 La 0.46066 1.024 1.02212 0.0
C298 C 0.55974 0.07429 0.1026 0.0
C299 C 0.58685 0.07084 0.12224 0.0
C300 C 0.61671 0.08927 0.11638 0.0
C301 C 0.64148 0.09049 0.13787 0.0
C302 C 0.63673 0.07345 0.1658 0.0
C303 C 0.60749 0.05344 0.17048 0.0
C304 C 0.58273 0.05214 0.14887 0.0
C305 C 0.48232 0.99126 0.07937 0.0
C306 C 0.45292 0.06901 0.07589 0.0
C307 C 0.41335 0.9937 0.99402 0.0
C308 C 0.40467 0.98708 0.96023 0.0
C309 C 0.40585 1.00987 0.93809 0.0
C310 C 0.39805 1.00313 0.90607 0.0
C311 C 0.38922 0.97347 0.89541 0.0
C312 C 0.3881 0.95073 0.91767 0.0
C313 C 0.39564 0.9575 0.94978 0.0
C314 C 0.49859 0.07446 1.00027 0.0
C315 C 0.52744 1.00561 1.00922 0.0
O316 O 0.56298 0.07154 0.0714 0.0
O317 O 0.531 0.06229 0.11314 0.0
O318 O 0.51261 0.99989 0.08425 0.0
O319 O 0.47194 1.01355 0.07029 0.0
O320 O 0.48438 0.07574 0.07706 0.0
O321 O 0.43779 0.04536 0.0601 0.0
O322 O 0.41491 1.0211 1.00413 0.0
O323 O 0.43701 0.98252 1.00429 0.0
O324 O 0.47347 0.06003 0.98582 0.0
O325 O 0.50074 0.05937 1.02453 0.0
O326 O 0.49611 0.99887 1.00563 0.0
O327 O 0.54145 1.02661 1.02934 0.0
H328 H 0.62044 0.10383 0.09595 0.0
H329 H 0.66391 0.10578 0.13337 0.0
H330 H 0.603 0.04018 0.19188 0.0
H331 H 0.55995 0.0376 0.15393 0.0
H332 H 0.41283 1.03294 0.94541 0.0
H333 H 0.3987 1.02121 0.88973 0.0
H334 H 0.38189 0.92765 0.91022 0.0
H335 H 0.39474 0.93959 0.96643 0.0
La336 La 0.51311 0.50755 0.52113 0.0
La337 La 0.5027 0.55667 0.55918 0.0
C338 C 0.53704 0.46815 0.49332 0.0
C339 C 0.54925 0.44257 0.50392 0.0
C340 C 0.53575 0.42592 0.53052 0.0
C341 C 0.54812 0.40181 0.54027 0.0
C342 C 0.57445 0.39446 0.52388 0.0
C343 C 0.58809 0.41145 0.49758 0.0
C344 C 0.57552 0.43526 0.48765 0.0
C345 C 0.45415 0.50001 0.54507 0.0
C346 C 0.53003 0.50898 0.59621 0.0
C347 C 0.47933 0.59569 0.58881 0.0
C348 C 0.46263 0.61923 0.58095 0.0
C349 C 0.44486 0.63029 0.60504 0.0
C350 C 0.42844 0.65249 0.59825 0.0
C351 C 0.42936 0.66392 0.56712 0.0
C352 C 0.4472 0.65267 0.54292 0.0
C353 C 0.46375 0.63047 0.54982 0.0
C354 C 0.56201 0.56381 0.53591 0.0
C355 C 0.48519 0.55464 0.48433 0.0
O356 O 0.50636 0.46655 0.49679 0.0
O357 O 0.55366 0.49403 0.50216 0.0
O358 O 0.46153 0.49232 0.51632 0.0
O359 O 0.47953 0.51097 0.55964 0.0
O360 O 0.53353 0.49722 0.56736 0.0
O361 O 0.51544 0.53155 0.59917 0.0
O362 O 0.50917 0.59945 0.57952 0.0
O363 O 0.46367 0.56865 0.58332 0.0
O364 O 0.55413 0.57118 0.56465 0.0
O365 O 0.53675 0.55321 0.52085 0.0
O366 O 0.48063 0.56569 0.51331 0.0
O367 O 0.50128 0.53315 0.48122 0.0
H368 H 0.51569 0.43154 0.5437 0.0
H369 H 0.53734 0.38906 0.56068 0.0
H370 H 0.60815 0.40596 0.48429 0.0
H371 H 0.58631 0.44799 0.46722 0.0
H372 H 0.44382 0.62184 0.62919 0.0
H373 H 0.41548 0.66108 0.61758 0.0
H374 H 0.44822 0.66089 0.51868 0.0
H375 H 0.47746 0.62216 0.53096 0.0
La376 La 1.01234 0.49721 0.0585 0.0
La377 La 1.00511 0.54941 1.01685 0.0
C378 C 0.03362 0.45739 0.08581 0.0
C379 C 0.06518 0.45602 0.09831 0.0
C380 C 0.06742 0.44658 0.12977 0.0
C381 C 0.09716 0.44627 0.14265 0.0
C382 C 0.12518 0.45516 0.12415 0.0
C383 C 0.12297 0.46459 0.09261 0.0
C384 C 0.09323 0.46524 0.07985 0.0
C385 C 0.97979 0.53484 0.08552 0.0
C386 C 0.06899 0.55572 0.05586 0.0
C387 C 0.9841 0.5938 1.00094 0.0
C388 C 0.95937 0.59967 0.97939 0.0
C389 C 0.96644 0.62398 0.95891 0.0
C390 C 0.94221 0.63241 0.94171 0.0
C391 C 0.91051 0.61682 0.94508 0.0
C392 C 0.90373 0.59152 0.9642 0.0
C393 C 0.92799 0.58286 0.98103 0.0
C394 C 0.03017 0.51068 0.98096 0.0
C395 C 0.95199 0.4888 1.01423 0.0
O396 O 0.01874 0.47571 0.10108 0.0
O397 O 0.03138 0.45887 0.05462 0.0
O398 O 0.97294 0.50629 0.08917 0.0
O399 O 1.00435 0.541 0.06742 0.0
O400 O 0.05918 0.52774 0.06484 0.0
O401 O 0.05106 0.56917 0.03807 0.0
O402 O 1.0096 0.58681 0.98754 0.0
O403 O 0.97372 0.57769 1.02605 0.0
O404 O 0.02473 0.53552 0.97069 0.0
O405 O 0.02174 0.50947 1.01027 0.0
O406 O 0.95947 0.51774 1.00874 0.0
O407 O 0.97071 0.47543 0.03115 0.0
H408 H 0.04613 0.43957 0.14446 0.0
H409 H 0.09821 0.43859 0.16691 0.0
H410 H 0.14427 0.47172 0.07798 0.0
H411 H 0.09224 0.47308 0.05565 0.0
H412 H 0.99044 0.63721 0.95728 0.0
H413 H 0.94795 0.65219 0.92736 0.0
H414 H 0.87946 0.57912 0.96704 0.0
H415 H 0.92187 0.56378 0.99639 0.0
H416 H 0.21314 0.25288 0.30502 0.0
H417 H 0.28174 0.26073 0.38141 0.0
H418 H 0.23914 0.23546 0.41823 0.0
H419 H 0.14512 0.26413 0.35524 0.0
H420 H 0.117 0.23735 0.33264 0.0
H421 H 0.15239 0.25797 0.31313 0.0
H422 H 0.16777 0.2088 0.29421 0.0
H423 H 0.13249 0.18807 0.31363 0.0
H424 H 0.17111 0.18138 0.32346 0.0
H425 H 0.18981 0.20679 0.44556 0.0
H426 H 0.13822 0.17503 0.46077 0.0
H427 H 0.10152 0.18729 0.36678 0.0
C428 C 0.21908 0.24983 0.32968 0.0
C429 C 0.25069 0.25891 0.34044 0.0
C430 C 0.25769 0.2538 0.37264 0.0
C431 C 0.23363 0.23969 0.39376 0.0
C432 C 0.20274 0.23091 0.3823 0.0
C433 C 0.19542 0.23577 0.351 0.0
C434 C 0.16081 0.22264 0.34407 0.0
C435 C 0.14277 0.24698 0.33579 0.0
C436 C 0.15789 0.19881 0.31727 0.0
C437 C 0.1499 0.20913 0.37621 0.0
C438 C 0.17433 0.2144 0.39804 0.0
C439 C 0.17037 0.20287 0.42882 0.0
C440 C 0.14085 0.18501 0.43731 0.0
C441 C 0.11565 0.17877 0.41505 0.0
C442 C 0.12025 0.19154 0.38433 0.0
H443 H 0.40674 0.99443 0.70574 0.0
H444 H 0.33033 0.91678 0.69556 0.0
H445 H 0.32607 0.91262 0.75441 0.0
H446 H 0.44446 0.96684 0.77182 0.0
H447 H 0.45549 1.00266 0.7913 0.0
H448 H 0.45188 1.00003 0.74831 0.0
H449 H 0.41139 1.03474 0.75107 0.0
H450 H 0.41477 0.03737 0.79408 0.0
H451 H 0.3762 1.02517 0.7763 0.0
H452 H 0.32986 0.917 0.81438 0.0
H453 H 0.34231 0.92905 0.87125 0.0
H454 H 0.41845 1.00185 0.84198 0.0
C455 C 0.38927 0.97639 0.71581 0.0
C456 C 0.36869 0.95611 0.69592 0.0
C457 C 0.34592 0.93302 0.71022 0.0
C458 C 0.34346 0.93031 0.74365 0.0
C459 C 0.36406 0.95071 0.76248 0.0
C460 C 0.38663 0.97321 0.7491 0.0
C461 C 0.40621 0.99195 0.77472 0.0
C462 C 0.4416 0.99025 0.77133 0.0
C463 C 0.40187 1.02422 0.77399 0.0
C464 C 0.39105 0.97649 0.80458 0.0
C465 C 0.36673 0.95282 0.79702 0.0
C466 C 0.34901 0.93536 0.82062 0.0
C467 C 0.35642 0.94227 0.85285 0.0
C468 C 0.38144 0.96634 0.86119 0.0
C469 C 0.39892 0.98355 0.83655 0.0
H470 H 0.60843 0.39976 0.70743 0.0
H471 H 0.58525 0.45201 0.78906 0.0
H472 H 0.5628 0.48326 0.75263 0.0
H473 H 0.6299 0.46052 0.65189 0.0
H474 H 0.6121 0.43965 0.61749 0.0
H475 H 0.62679 0.42094 0.64966 0.0
H476 H 0.57143 0.38615 0.65583 0.0
H477 H 0.55671 0.4048 0.62363 0.0
H478 H 0.53659 0.40188 0.66222 0.0
H479 H 0.54257 0.50958 0.70785 0.0
H480 H 0.52559 0.52882 0.65804 0.0
H481 H 0.55989 0.46026 0.60317 0.0
C482 C 0.59845 0.41762 0.71779 0.0
C483 C 0.59928 0.42327 0.75168 0.0
C484 C 0.58595 0.44723 0.76356 0.0
C485 C 0.57277 0.46514 0.74291 0.0
C486 C 0.57264 0.45915 0.70995 0.0
C487 C 0.58502 0.43592 0.69731 0.0
C488 C 0.58168 0.43456 0.66073 0.0
C489 C 0.61458 0.4392 0.64395 0.0
C490 C 0.56033 0.40509 0.64997 0.0
C491 C 0.56557 0.46065 0.65492 0.0
C492 C 0.56065 0.47439 0.68383 0.0
C493 C 0.54631 0.49893 0.68513 0.0
C494 C 0.53669 0.50976 0.65643 0.0
C495 C 0.54121 0.49634 0.62617 0.0
C496 C 0.55598 0.47127 0.62565 0.0
H497 H 0.88308 0.58667 0.23799 0.0
H498 H 0.94314 0.67424 0.22802 0.0
H499 H 0.96984 0.65657 0.18073 0.0
H500 H 0.94408 0.54576 0.21545 0.0
H501 H 0.91728 0.51696 0.19398 0.0
H502 H 0.90244 0.53651 0.22686 0.0
H503 H 0.86055 0.55062 0.18964 0.0
H504 H 0.87537 0.53122 0.1566 0.0
H505 H 0.87351 0.56969 0.15285 0.0
H506 H 0.98998 0.6295 0.13316 0.0
H507 H 1.00391 0.59456 0.09209 0.0
H508 H 0.93211 0.52387 0.13261 0.0
C509 C 0.90177 0.6022 0.22583 0.0
C510 C 0.91091 0.63202 0.23726 0.0
C511 C 0.93581 0.65127 0.22046 0.0
C512 C 0.95104 0.64146 0.19324 0.0
C513 C 0.94147 0.61209 0.18269 0.0
C514 C 0.91755 0.59264 0.19862 0.0
C515 C 0.91243 0.56197 0.18267 0.0
C516 C 0.91948 0.53894 0.20614 0.0
C517 C 0.87844 0.55284 0.16967 0.0
C518 C 0.93711 0.56722 0.15535 0.0
C519 C 0.95344 0.59639 0.15568 0.0
C520 C 0.97732 0.60661 0.13281 0.0
C521 C 0.98504 0.58657 0.10941 0.0
C522 C 0.9692 0.55636 0.10885 0.0
C523 C 0.94469 0.54678 0.13217 0.0
H524 H 0.42388 0.22234 0.14852 0.0
H525 H 0.33233 0.17436 0.18517 0.0
H526 H 0.34193 0.12875 0.15883 0.0
H527 H 0.42498 0.18322 0.07319 0.0
H528 H 0.4669 0.18288 0.07478 0.0
H529 H 0.45167 0.2125 0.09416 0.0
H530 H 0.47563 0.20135 0.14801 0.0
H531 H 0.49096 0.17174 0.12878 0.0
H532 H 0.46533 0.16443 0.16381 0.0
H533 H 0.36166 0.0879 0.12848 0.0
H534 H 0.39188 0.05459 0.09995 0.0
H535 H 0.47237 0.12825 0.08828 0.0
C536 C 0.40581 0.20233 0.15136 0.0
C537 C 0.37711 0.20238 0.16881 0.0
C538 C 0.35414 0.17544 0.17128 0.0
C539 C 0.35947 0.14921 0.15659 0.0
C540 C 0.38809 0.15003 0.13987 0.0
C541 C 0.41101 0.17583 0.13748 0.0
C542 C 0.44052 0.17045 0.1197 0.0
C543 C 0.44634 0.18832 0.08861 0.0
C544 C 0.46984 0.1774 0.14138 0.0
C545 C 0.43065 0.13756 0.11259 0.0
C546 C 0.40014 0.12624 0.12398 0.0
C547 C 0.38564 0.09648 0.11961 0.0
C548 C 0.40291 0.07777 0.10334 0.0
C549 C 0.43448 0.08884 0.09223 0.0
C550 C 0.4484 0.11912 0.09691 0.0
H551 H 0.2401 0.99417 0.54771 0.0
H552 H 0.26356 0.97862 0.44771 0.0
H553 H 0.20909 0.98194 0.43275 0.0
H554 H 0.15911 0.95451 0.54752 0.0
H555 H 0.14459 0.98096 0.57316 0.0
H556 H 0.18509 0.97629 0.57648 0.0
H557 H 0.20599 1.0324 0.56707 0.0
H558 H 0.16555 0.0373 0.56414 0.0
H559 H 0.19381 0.04908 0.53196 0.0
H560 H 0.15209 0.98639 0.42867 0.0
H561 H 0.09794 0.99655 0.43496 0.0
H562 H 0.11279 1.01229 0.53705 0.0
C563 C 0.23408 0.99188 0.52256 0.0
C564 C 0.25623 0.98594 0.49893 0.0
C565 C 0.24694 0.98261 0.46639 0.0
C566 C 0.21607 0.98456 0.45761 0.0
C567 C 0.19484 0.9901 0.48159 0.0
C568 C 0.20353 0.9941 0.51333 0.0
C569 C 0.17654 1.00092 0.53427 0.0
C570 C 0.1657 0.97672 0.55933 0.0
C571 C 0.18605 1.03176 0.55029 0.0
C572 C 0.15133 1.00028 0.50926 0.0
C573 C 0.16226 0.99362 0.4791 0.0
C574 C 0.1433 0.99173 0.45213 0.0
C575 C 0.11259 0.99745 0.45596 0.0
C576 C 0.10137 1.00529 0.48645 0.0
C577 C 0.12084 1.00631 0.51348 0.0
H578 H 0.78675 0.45127 0.9145 0.0
H579 H 0.78172 0.35936 0.93933 0.0
H580 H 0.83137 0.37395 0.96918 0.0
H581 H 0.87337 0.46988 0.9033 0.0
H582 H 0.87779 0.5067 0.92039 0.0
H583 H 0.84128 0.48955 0.90092 0.0
H584 H 0.80923 0.49786 0.95239 0.0
H585 H 0.84571 0.51496 0.97194 0.0
H586 H 0.81929 0.48378 0.98999 0.0
H587 H 0.88161 0.39763 0.99688 0.0
H588 H 0.92984 0.42894 1.0196 0.0
H589 H 0.90539 0.50641 0.97721 0.0
C590 C 0.79611 0.43418 0.92611 0.0
C591 C 0.77942 0.40402 0.92477 0.0
C592 C 0.793 0.38263 0.94047 0.0
C593 C 0.82157 0.39068 0.9574 0.0
C594 C 0.83702 0.42038 0.95862 0.0
C595 C 0.82497 0.4419 0.94334 0.0
C596 C 0.8469 0.47224 0.94853 0.0
C597 C 0.86065 0.48537 0.91636 0.0
C598 C 0.82922 0.49346 0.9668 0.0
C599 C 0.87296 0.46427 0.96904 0.0
C600 C 0.86659 0.43417 0.9745 0.0
C601 C 0.88683 0.42125 0.99271 0.0
C602 C 0.91433 0.43936 1.00563 0.0
C603 C 0.92186 0.47037 1.00047 0.0
C604 C 0.90059 0.48287 0.98182 0.0
H605 H 0.70016 0.6121 0.39916 0.0
H606 H 0.76121 0.65095 0.47713 0.0
H607 H 0.71823 0.63175 0.51622 0.0
H608 H 0.62826 0.62934 0.43313 0.0
H609 H 0.60227 0.59562 0.41962 0.0
H610 H 0.63841 0.61033 0.3974 0.0
H611 H 0.65645 0.56047 0.40254 0.0
H612 H 0.62032 0.54559 0.42476 0.0
H613 H 0.65856 0.54527 0.44175 0.0
H614 H 0.66885 0.61006 0.54709 0.0
H615 H 0.61519 0.58865 0.5682 0.0
H616 H 0.58307 0.56415 0.47146 0.0
C617 C 0.70454 0.61611 0.42451 0.0
C618 C 0.73433 0.63294 0.43507 0.0
C619 C 0.73879 0.63818 0.46843 0.0
C620 C 0.71447 0.62728 0.49085 0.0
C621 C 0.68538 0.61119 0.47978 0.0
C622 C 0.68012 0.60562 0.44743 0.0
C623 C 0.64583 0.58893 0.44226 0.0
C624 C 0.62762 0.60715 0.42189 0.0
C625 C 0.64527 0.55824 0.42691 0.0
C626 C 0.63272 0.58621 0.47668 0.0
C627 C 0.65624 0.59907 0.49781 0.0
C628 C 0.65029 0.5999 0.53076 0.0
C629 C 0.61958 0.58764 0.54255 0.0
C630 C 0.59467 0.57467 0.52167 0.0
C631 C 0.60153 0.57375 0.48815 0.0
H632 H 0.27948 0.38709 0.13795 0.0
H633 H 0.28656 0.4216 0.23588 0.0
H634 H 0.24548 0.45008 0.22527 0.0
H635 H 0.26 0.45373 0.09978 0.0
H636 H 0.23202 0.43121 0.07308 0.0
H637 H 0.26628 0.41796 0.08626 0.0
H638 H 0.2291 0.37032 0.10745 0.0
H639 H 0.19482 0.38343 0.0945 0.0
H640 H 0.19759 0.37356 0.13581 0.0
H641 H 0.19832 0.46868 0.20718 0.0
H642 H 0.14894 0.47649 0.18224 0.0
H643 H 0.17113 0.4291 0.09667 0.0
C644 C 0.27287 0.40106 0.15701 0.0
C645 C 0.28667 0.40224 0.18766 0.0
C646 C 0.27713 0.42081 0.21192 0.0
C647 C 0.25359 0.437 0.2062 0.0
C648 C 0.2398 0.43457 0.17607 0.0
C649 C 0.24922 0.41724 0.15177 0.0
C650 C 0.22837 0.41602 0.12268 0.0
C651 C 0.24784 0.43061 0.09374 0.0
C652 C 0.21147 0.38393 0.11466 0.0
C653 C 0.20497 0.43436 0.13493 0.0
C654 C 0.21227 0.44522 0.16561 0.0
C655 C 0.19267 0.46076 0.18295 0.0
C656 C 0.16462 0.46493 0.16872 0.0
C657 C 0.15645 0.45352 0.13755 0.0
C658 C 0.17723 0.43858 0.12027 0.0
H659 H 0.56126 0.2137 0.88415 0.0
H660 H 0.61361 0.25884 0.96491 0.0
H661 H 0.59407 0.21495 0.99838 0.0
H662 H 0.49197 0.17749 0.93098 0.0
H663 H 0.48544 0.14393 0.90691 0.0
H664 H 0.5039 0.17875 0.88921 0.0
H665 H 0.55219 0.15651 0.87086 0.0
H666 H 0.53394 0.12168 0.88865 0.0
H667 H 0.57347 0.14023 0.90011 0.0
H668 H 0.56999 0.16436 1.02312 0.0
H669 H 0.54008 0.11418 0.03754 0.0
H670 H 0.50106 0.10239 0.94201 0.0
C671 C 0.56865 0.21439 0.90887 0.0
C672 C 0.58913 0.24012 0.9217 0.0
C673 C 0.59778 0.23983 0.95438 0.0
C674 C 0.58692 0.21479 0.97362 0.0
C675 C 0.56695 0.18986 0.96023 0.0
C676 C 0.55757 0.18962 0.92867 0.0
C677 C 0.53516 0.16031 0.9204 0.0
C678 C 0.50216 0.16543 0.91134 0.0
C679 C 0.54955 0.14371 0.8934 0.0
C680 C 0.53356 0.14403 0.95208 0.0
C681 C 0.55234 0.16135 0.97469 0.0
C682 C 0.55514 0.15078 1.00553 0.0
C683 C 0.53817 0.1221 1.01353 0.0
C684 C 0.51822 0.10414 0.99102 0.0
C685 C 0.51605 0.11548 0.95986 0.0
H686 H 0.94065 0.80265 0.4361 0.0
H687 H 0.8775 0.83229 0.36972 0.0
H688 H 0.8941 0.88323 0.39053 0.0
H689 H 0.92807 0.85259 0.50281 0.0
H690 H 0.96897 0.85993 0.51539 0.0
H691 H 0.95197 0.82506 0.49609 0.0
H692 H 0.99727 0.83401 0.45317 0.0
H693 H 1.01441 0.86887 0.47235 0.0
H694 H 1.00442 0.86768 0.43048 0.0
H695 H 0.91718 0.93112 0.41719 0.0
H696 H 0.94631 0.97388 0.44764 0.0
H697 H 0.99623 0.91618 0.49826 0.0
C698 C 0.93021 0.81985 0.4261 0.0
C699 C 0.90789 0.81313 0.40076 0.0
C700 C 0.89502 0.83657 0.38849 0.0
C701 C 0.90416 0.86572 0.40038 0.0
C702 C 0.92633 0.87164 0.42483 0.0
C703 C 0.93931 0.84951 0.43768 0.0
C704 C 0.96325 0.86262 0.46353 0.0
C705 C 0.95241 0.84925 0.49641 0.0
C706 C 0.99683 0.85802 0.45433 0.0
C707 C 0.96171 0.89545 0.46292 0.0
C708 C 0.94002 0.89986 0.44043 0.0
C709 C 0.93422 0.92792 0.43488 0.0
C710 C 0.95108 0.95223 0.45244 0.0
C711 C 0.97386 0.94884 0.47556 0.0
C712 C 0.979 0.91977 0.48094 0.0
H713 H 0.41944 0.82629 0.51445 0.0
H714 H 0.33269 0.81574 0.57288 0.0
H715 H 0.33317 0.76307 0.57923 0.0
H716 H 0.40438 0.75151 0.47699 0.0
H717 H 0.44546 0.74845 0.47994 0.0
H718 H 0.43567 0.78428 0.47516 0.0
H719 H 0.4668 0.80363 0.52659 0.0
H720 H 0.47676 0.76797 0.53142 0.0
H721 H 0.45676 0.78399 0.56359 0.0
H722 H 0.34532 0.71297 0.58382 0.0
H723 H 0.37014 0.66962 0.58882 0.0
H724 H 0.45116 0.71352 0.53123 0.0
C725 C 0.40035 0.81294 0.52837 0.0
C726 C 0.37577 0.82536 0.54271 0.0
C727 C 0.3513 0.80684 0.56073 0.0
C728 C 0.35141 0.7768 0.56467 0.0
C729 C 0.37623 0.7655 0.55065 0.0
C730 C 0.40035 0.78299 0.53299 0.0
C731 C 0.426 0.76615 0.52335 0.0
C732 C 0.42798 0.76238 0.48668 0.0
C733 C 0.45849 0.78134 0.53707 0.0
C734 C 0.41298 0.73679 0.53924 0.0
C735 C 0.38394 0.73671 0.55431 0.0
C736 C 0.36795 0.71266 0.57195 0.0
C737 C 0.38236 0.68825 0.57485 0.0
C738 C 0.41265 0.68824 0.56056 0.0
C739 C 0.42776 0.71263 0.54198 0.0
H740 H 0.89783 0.91521 0.82907 0.0
H741 H 0.83382 0.83713 0.79142 0.0
H742 H 0.86728 0.83915 0.74211 0.0
H743 H 0.91206 0.95307 0.75512 0.0
H744 H 0.95328 0.96894 0.76315 0.0
H745 H 0.92507 0.96025 0.7959 0.0
H746 H 0.96054 0.92763 0.82075 0.0
H747 H 0.98875 0.93604 0.78787 0.0
H748 H 0.97149 0.898 0.79707 0.0
H749 H 0.90724 0.85044 0.69646 0.0
H750 H 0.94882 0.87188 0.65669 0.0
H751 H 0.98565 0.94304 0.72422 0.0
C752 C 0.89108 0.89837 0.81057 0.0
C753 C 0.86333 0.87599 0.814 0.0
C754 C 0.85488 0.85462 0.78908 0.0
C755 C 0.87385 0.85544 0.76115 0.0
C756 C 0.90112 0.8778 0.75854 0.0
C757 C 0.9096 0.89897 0.7825 0.0
C758 C 0.93916 0.9215 0.77317 0.0
C759 C 0.93195 0.95278 0.77174 0.0
C760 C 0.96661 0.92073 0.79608 0.0
C761 C 0.94586 0.90983 0.7401 0.0
C762 C 0.92385 0.88447 0.73218 0.0
C763 C 0.92468 0.87025 0.70243 0.0
C764 C 0.9483 0.88264 0.67998 0.0
C765 C 0.97061 0.90906 0.68735 0.0
C766 C 0.96948 0.92247 0.71803 0.0
H767 H 0.73355 0.17667 0.29871 0.0
H768 H 0.74193 0.09722 0.34888 0.0
H769 H 0.71917 0.06659 0.30231 0.0
H770 H 0.66014 0.14881 0.26597 0.0
H771 H 0.66841 0.16764 0.22831 0.0
H772 H 0.6891 0.1832 0.26371 0.0
H773 H 0.74336 0.184 0.2346 0.0
H774 H 0.72275 0.16838 0.199 0.0
H775 H 0.75141 0.15027 0.21684 0.0
H776 H 0.69013 0.04459 0.25261 0.0
H777 H 0.65684 1.03326 0.20432 0.0
H778 H 0.66834 0.12742 0.18736 0.0
C779 C 0.7315 0.1529 0.29955 0.0
C780 C 0.73962 0.13933 0.32733 0.0
C781 C 0.73565 0.10806 0.32787 0.0
C782 C 0.72301 0.09051 0.30145 0.0
C783 C 0.7147 0.1046 0.27463 0.0
C784 C 0.71896 0.13512 0.27347 0.0
C785 C 0.7057 0.14478 0.24309 0.0
C786 C 0.67927 0.16211 0.25075 0.0
C787 C 0.73241 0.16293 0.22214 0.0
C788 C 0.6924 0.11491 0.22778 0.0
C789 C 0.69813 0.09197 0.24606 0.0
C790 C 0.68594 0.06238 0.23783 0.0
C791 C 0.66696 0.05615 0.21049 0.0
C792 C 0.66032 0.07944 0.19187 0.0
C793 C 0.67376 0.1091 0.20047 0.0
H794 H 0.41133 0.66424 0.36836 0.0
H795 H 0.41479 0.59859 0.29293 0.0
H796 H 0.43709 0.56835 0.33061 0.0
H797 H 0.48533 0.65693 0.40743 0.0
H798 H 0.47035 0.66073 0.44772 0.0
H799 H 0.45501 0.67824 0.41498 0.0
H800 H 0.39774 0.65124 0.43023 0.0
H801 H 0.41302 0.63366 0.46294 0.0
H802 H 0.38875 0.6114 0.43303 0.0
H803 H 0.4595 0.54463 0.37538 0.0
H804 H 0.47956 0.52818 0.42514 0.0
H805 H 0.46152 0.60687 0.47497 0.0
C806 C 0.41691 0.64356 0.35978 0.0
C807 C 0.41076 0.63389 0.32729 0.0
C808 C 0.4185 0.60653 0.31747 0.0
C809 C 0.43146 0.58913 0.33878 0.0
C810 C 0.43678 0.59895 0.37043 0.0
C811 C 0.42974 0.62547 0.38114 0.0
C812 C 0.4376 0.63017 0.41687 0.0
C813 C 0.46362 0.65819 0.42205 0.0
C814 C 0.40748 0.6317 0.43695 0.0
C815 C 0.45 0.60218 0.42431 0.0
C816 C 0.44942 0.58475 0.3969 0.0
C817 C 0.45999 0.55812 0.397 0.0
C818 C 0.47148 0.54893 0.42562 0.0
C819 C 0.47234 0.56595 0.45448 0.0
C820 C 0.4612 0.59307 0.45363 0.0
H821 H 0.11287 0.45434 0.82212 0.0
H822 H 0.09911 0.3677 0.86531 0.0
H823 H 0.075 0.38692 0.91338 0.0
H824 H 0.13279 0.49759 0.89525 0.0
H825 H 0.11171 0.52595 0.88474 0.0
H826 H 0.12812 0.50551 0.85366 0.0
H827 H 0.07248 0.49026 0.8281 0.0
H828 H 0.05594 0.51072 0.85906 0.0
H829 H 0.03903 0.47198 0.85224 0.0
H830 H 0.05224 0.41619 0.9582 0.0
H831 H 0.03139 0.45213 0.9934 0.0
H832 H 0.05919 0.51954 0.92153 0.0
C833 C 0.10493 0.43938 0.8417 0.0
C834 C 0.10793 0.40923 0.8394 0.0
C835 C 0.09679 0.39064 0.86581 0.0
C836 C 0.08319 0.40147 0.89352 0.0
C837 C 0.08054 0.43113 0.89493 0.0
C838 C 0.09096 0.4498 0.8696 0.0
C839 C 0.08475 0.48064 0.87697 0.0
C840 C 0.11622 0.50379 0.8777 0.0
C841 C 0.06168 0.48888 0.85265 0.0
C842 C 0.06934 0.47644 0.91033 0.0
C843 C 0.06727 0.44775 0.9204 0.0
C844 C 0.05391 0.43873 0.95046 0.0
C845 C 0.04228 0.45938 0.97054 0.0
C846 C 0.04387 0.48885 0.96067 0.0
C847 C 0.05765 0.49725 0.93002 0.0
H848 H 0.68647 0.94749 0.96967 0.0
H849 H 0.62913 0.87466 0.91613 0.0
H850 H 0.58154 0.89653 0.92574 0.0
H851 H 0.62866 0.95235 1.02993 0.0
H852 H 0.63907 0.99217 0.03379 0.0
H853 H 0.66873 0.97182 1.02071 0.0
H854 H 0.67958 1.00339 0.96935 0.0
H855 H 0.6499 1.02385 0.98229 0.0
H856 H 0.64696 1.00554 0.94352 0.0
H857 H 0.54005 0.92563 0.943 0.0
H858 H 0.50737 0.95825 0.9684 0.0
H859 H 0.59241 1.01165 1.01095 0.0
C860 C 0.66402 0.93643 0.95946 0.0
C861 C 0.66145 0.90955 0.9419 0.0
C862 C 0.63151 0.89527 0.92968 0.0
C863 C 0.60446 0.9076 0.93486 0.0
C864 C 0.60783 0.93412 0.95238 0.0
C865 C 0.63686 0.9483 0.96457 0.0
C866 C 0.63386 0.97564 0.9841 0.0
C867 C 0.64312 0.97281 1.01921 0.0
C868 C 0.65375 1.00377 0.96889 0.0
C869 C 0.59853 0.97453 0.98127 0.0
C870 C 0.58396 0.95059 0.96267 0.0
C871 C 0.55124 0.94454 0.95746 0.0
C872 C 0.53289 0.96324 0.97199 0.0
C873 C 0.54729 0.98758 0.99168 0.0
C874 C 0.58063 0.99337 0.99594 0.0
H875 H 0.86538 0.11795 0.4653 0.0
H876 H 0.8205 0.12356 0.55883 0.0
H877 H 0.84685 0.08443 0.57842 0.0
H878 H 0.86538 0.03738 0.46579 0.0
H879 H 0.9039 0.04294 0.44597 0.0
H880 H 0.87711 0.06725 0.43795 0.0
H881 H 0.92054 0.11335 0.4544 0.0
H882 H 0.94709 0.08875 0.46057 0.0
H883 H 0.93964 0.11351 0.49256 0.0
H884 H 0.88326 0.04894 0.58918 0.0
H885 H 0.92886 1.02347 0.59103 0.0
H886 H 0.95049 0.04337 0.49098 0.0
C887 C 0.86086 0.1108 0.48986 0.0
C888 C 0.84115 0.12386 0.51065 0.0
C889 C 0.83542 0.11364 0.54247 0.0
C890 C 0.8502 0.09141 0.55374 0.0
C891 C 0.87025 0.07954 0.53273 0.0
C892 C 0.87546 0.08891 0.50141 0.0
C893 C 0.90045 0.07519 0.48446 0.0
C894 C 0.88582 0.05445 0.45692 0.0
C895 C 0.92859 0.09914 0.47236 0.0
C896 C 0.90991 0.0579 0.51166 0.0
C897 C 0.89162 0.05985 0.53907 0.0
C898 C 0.89741 0.04693 0.56775 0.0
C899 C 0.9232 1.03248 0.5686 0.0
C900 C 0.94299 1.03184 0.54116 0.0
C901 C 0.93571 0.04389 0.51226 0.0
H902 H 0.22636 0.60056 0.16671 0.0
H903 H 0.25077 0.68067 0.1108 0.0
H904 H 0.20239 0.66424 0.07891 0.0
H905 H 0.19515 0.55149 0.1001 0.0
H906 H 0.16314 0.52934 0.1231 0.0
H907 H 0.19933 0.54725 0.14261 0.0
H908 H 0.16672 0.57322 0.1827 0.0
H909 H 0.13046 0.5552 0.16336 0.0
H910 H 0.13996 0.59502 0.16769 0.0
H911 H 0.15159 0.63999 0.0528 0.0
H912 H 0.10134 0.60915 0.03374 0.0
H913 H 0.10832 0.54279 0.10421 0.0
C914 C 0.22133 0.61469 0.1479 0.0
C915 C 0.24267 0.64205 0.14132 0.0
C916 C 0.23518 0.65963 0.11624 0.0
C917 C 0.20762 0.65048 0.09796 0.0
C918 C 0.18742 0.6234 0.10464 0.0
C919 C 0.19381 0.6056 0.12892 0.0
C920 C 0.16798 0.57724 0.1304 0.0
C921 C 0.18226 0.54971 0.12365 0.0
C922 C 0.15023 0.57505 0.16298 0.0
C923 C 0.14622 0.58208 0.1033 0.0
C924 C 0.15801 0.60896 0.08896 0.0
C925 C 0.14217 0.61886 0.06382 0.0
C926 C 0.11348 0.60107 0.05312 0.0
C927 C 0.10052 0.57334 0.06721 0.0
C928 C 0.11748 0.56371 0.09262 0.0
H929 H 0.32482 0.4314 0.68163 0.0
H930 H 0.25327 0.42213 0.60788 0.0
H931 H 0.29437 0.44635 0.56926 0.0
H932 H 0.37049 0.5038 0.65645 0.0
H933 H 0.40856 0.49527 0.66526 0.0
H934 H 0.37342 0.47811 0.68773 0.0
H935 H 0.38401 0.42626 0.67253 0.0
H936 H 0.41917 0.44327 0.65005 0.0
H937 H 0.38832 0.41645 0.63081 0.0
H938 H 0.3438 0.46845 0.53722 0.0
H939 H 0.39751 0.48891 0.51486 0.0
H940 H 0.43791 0.4863 0.60896 0.0
C941 C 0.31773 0.43452 0.65738 0.0
C942 C 0.28543 0.42482 0.64806 0.0
C943 C 0.27746 0.42965 0.61602 0.0
C944 C 0.30079 0.44328 0.59374 0.0
C945 C 0.33225 0.45236 0.60366 0.0
C946 C 0.34078 0.44841 0.63479 0.0
C947 C 0.37647 0.46007 0.63901 0.0
C948 C 0.38259 0.48585 0.66358 0.0
C949 C 0.39296 0.43502 0.64867 0.0
C950 C 0.38672 0.47079 0.60532 0.0
C951 C 0.36074 0.46598 0.58533 0.0
C952 C 0.3642 0.47261 0.55278 0.0
C953 C 0.39485 0.48423 0.54025 0.0
C954 C 0.42192 0.48957 0.56011 0.0
C955 C 0.41764 0.48299 0.59324 0.0
H956 H 0.78273 0.71413 0.96989 0.0
H957 H 0.80113 0.74052 0.87092 0.0
H958 H 0.82836 0.69898 0.86123 0.0
H959 H 0.85483 0.70162 0.9839 0.0
H960 H 0.84298 0.66986 1.00922 0.0
H961 H 0.81771 0.6962 1.00637 0.0
H962 H 0.77066 0.65436 0.98885 0.0
H963 H 0.79581 0.62769 0.99194 0.0
H964 H 0.77575 0.63073 0.95497 0.0
H965 H 0.86459 0.66357 0.86586 0.0
H966 H 0.90336 0.63448 0.88373 0.0
H967 H 0.86052 0.62977 0.97903 0.0
C968 C 0.79143 0.71041 0.94589 0.0
C969 C 0.78963 0.73038 0.92113 0.0
C970 C 0.80165 0.72514 0.8901 0.0
C971 C 0.81728 0.70163 0.88439 0.0
C972 C 0.8202 0.68325 0.9098 0.0
C973 C 0.807 0.68698 0.93981 0.0
C974 C 0.81691 0.6668 0.96408 0.0
C975 C 0.83414 0.6847 0.99253 0.0
C976 C 0.78806 0.64351 0.97563 0.0
C977 C 0.83945 0.65267 0.94361 0.0
C978 C 0.84066 0.66204 0.91221 0.0
C979 C 0.86306 0.65523 0.89004 0.0
C980 C 0.88506 0.63886 0.90037 0.0
C981 C 0.88433 0.62944 0.93249 0.0
C982 C 0.86073 0.63581 0.95403 0.0
H983 H 0.45113 0.82784 0.15601 0.0
H984 H 0.35223 0.83483 0.17094 0.0
H985 H 0.36372 0.88323 0.14503 0.0
H986 H 0.48369 0.90578 0.17454 0.0
H987 H 0.51583 0.90855 0.14542 0.0
H988 H 0.49967 0.87358 0.16399 0.0
H989 H 0.48862 0.84898 0.10788 0.0
H990 H 0.50451 0.88394 0.08916 0.0
H991 H 0.46475 0.86412 0.08014 0.0
H992 H 0.38563 0.93164 0.11548 0.0
H993 H 0.41734 0.97688 0.09034 0.0
H994 H 0.50279 0.94128 0.09842 0.0
C995 C 0.43176 0.83944 0.1543 0.0
C996 C 0.40035 0.82628 0.16536 0.0
C997 C 0.37622 0.84307 0.16201 0.0
C998 C 0.38258 0.87107 0.14743 0.0
C999 C 0.41347 0.88294 0.13648 0.0
C1000 C 0.43781 0.86785 0.14021 0.0
C1001 C 0.46923 0.88618 0.12741 0.0
C1002 C 0.49354 0.89398 0.15445 0.0
C1003 C 0.48256 0.86982 0.09949 0.0
C1004 C 0.45871 0.91377 0.11577 0.0
C1005 C 0.42634 0.91133 0.12093 0.0
C1006 C 0.41105 0.93378 0.1116 0.0
C1007 C 0.42925 0.95945 0.09718 0.0
C1008 C 0.46264 0.96293 0.09242 0.0
C1009 C 0.47735 0.9395 0.10177 0.0
H1010 H 0.10312 0.21215 0.68164 0.0
H1011 H 0.15067 0.26781 0.60485 0.0
H1012 H 0.13737 0.22579 0.56686 0.0
H1013 H 0.12909 0.14522 0.65525 0.0
H1014 H 0.09209 0.12065 0.6661 0.0
H1015 H 0.10468 0.15522 0.68771 0.0
H1016 H 0.05132 0.1701 0.67504 0.0
H1017 H 0.03853 0.13554 0.6535 0.0
H1018 H 0.03912 0.17014 0.63391 0.0
H1019 H 0.11898 0.17775 0.53636 0.0
H1020 H 0.0963 0.12757 0.51577 0.0
H1021 H 0.06139 0.10105 0.61149 0.0
C1022 C 0.11094 0.21559 0.6569 0.0
C1023 C 0.12782 0.24393 0.64657 0.0
C1024 C 0.13714 0.24696 0.61368 0.0
C1025 C 0.12993 0.22297 0.59178 0.0
C1026 C 0.11339 0.1956 0.60275 0.0
C1027 C 0.10396 0.1917 0.63453 0.0
C1028 C 0.08631 0.15978 0.63983 0.0
C1029 C 0.10411 0.1443 0.66364 0.0
C1030 C 0.05177 0.15884 0.65125 0.0
C1031 C 0.08736 0.1464 0.60612 0.0
C1032 C 0.10311 0.1676 0.58516 0.0
C1033 C 0.10668 0.16102 0.55264 0.0
C1034 C 0.09359 0.1323 0.54112 0.0
C1035 C 0.077 0.11001 0.56182 0.0
C1036 C 0.07422 0.11729 0.59496 0.0
H1037 H 0.7116 0.30603 0.52058 0.0
H1038 H 0.63831 0.22605 0.51328 0.0
H1039 H 0.5974 0.25461 0.52936 0.0
H1040 H 0.67312 0.34397 0.58772 0.0
H1041 H 0.68615 0.37948 0.56911 0.0
H1042 H 0.71009 0.35168 0.56498 0.0
H1043 H 0.70893 0.35551 0.50306 0.0
H1044 H 0.68495 0.38304 0.50695 0.0
H1045 H 0.67103 0.34984 0.4834 0.0
H1046 H 0.56412 0.29296 0.53718 0.0
H1047 H 0.54133 0.3378 0.53278 0.0
H1048 H 0.63648 0.39265 0.53364 0.0
C1049 C 0.68712 0.29432 0.5238 0.0
C1050 C 0.67805 0.26384 0.51629 0.0
C1051 C 0.64564 0.2494 0.51927 0.0
C1052 C 0.62234 0.26541 0.52858 0.0
C1053 C 0.63195 0.29575 0.53482 0.0
C1054 C 0.66365 0.31003 0.53264 0.0
C1055 C 0.6674 0.3433 0.53551 0.0
C1056 C 0.68524 0.35531 0.56617 0.0
C1057 C 0.68403 0.3588 0.50544 0.0
C1058 C 0.63279 0.34565 0.53789 0.0
C1059 C 0.61269 0.31802 0.53841 0.0
C1060 C 0.57962 0.3147 0.53752 0.0
C1061 C 0.56687 0.34023 0.53508 0.0
C1062 C 0.58726 0.3685 0.53297 0.0
C1063 C 0.62047 0.37122 0.53544 0.0
loop_
_geom_bond_atom_site_label_1
_geom_bond_atom_site_label_2
_geom_bond_distance
_geom_bond_site_symmetry_2
_ccdc_geom_bond_type
P0 O11 1.490 . S
P0 C14 1.812 . S
P0 C20 1.803 . S
P0 C26 1.819 . S
H1 C15 0.941 . S
H2 C16 0.939 . S
H3 C18 0.940 . S
H4 C19 0.940 . S
H5 C21 0.939 . S
H6 C22 0.942 . S
H7 C24 0.940 . S
H8 C25 0.939 . S
H9 C27 0.941 . S
H10 C31 0.939 . S
O11 P0 1.490 . S
H12 C28 0.939 . S
H13 C30 0.940 . S
C14 P0 1.812 . S
C14 C15 1.389 . S
C14 C19 1.391 . S
C15 H1 0.941 . S
C15 C14 1.389 . S
C15 C16 1.397 . S
C16 H2 0.939 . S
C16 C15 1.397 . S
C16 C17 1.378 . S
C17 C16 1.378 . S
C17 C18 1.378 . S
C18 H3 0.940 . S
C18 C17 1.378 . S
C18 C19 1.396 . S
C19 H4 0.940 . S
C19 C14 1.391 . S
C19 C18 1.396 . S
C20 P0 1.803 . S
C20 C21 1.378 . S
C20 C25 1.400 . S
C21 H5 0.939 . S
C21 C20 1.378 . S
C21 C22 1.361 . S
C22 H6 0.942 . S
C22 C21 1.361 . S
C22 C23 1.369 . S
C23 C22 1.369 . S
C23 C24 1.404 . S
C24 H7 0.940 . S
C24 C23 1.404 . S
C24 C25 1.389 . S
C25 H8 0.939 . S
C25 C20 1.400 . S
C25 C24 1.389 . S
C26 P0 1.819 . S
C26 C27 1.391 . S
C26 C31 1.391 . S
C27 H9 0.941 . S
C27 C26 1.391 . S
C27 C28 1.396 . S
C28 H12 0.939 . S
C28 C27 1.396 . S
C28 C29 1.397 . S
C29 C28 1.397 . S
C29 C30 1.385 . S
C30 H13 0.940 . S
C30 C29 1.385 . S
C30 C31 1.388 . S
C31 H10 0.939 . S
C31 C26 1.391 . S
C31 C30 1.388 . S
P32 O43 1.490 . S
P32 C46 1.812 . S
P32 C52 1.803 . S
P32 C58 1.819 . S
H33 C47 0.941 . S
H34 C48 0.939 . S
H35 C50 0.940 . S
H36 C51 0.940 . S
H37 C53 0.939 . S
H38 C54 0.942 . S
H39 C56 0.940 . S
H40 C57 0.939 . S
H41 C59 0.941 . S
H42 C63 0.939 . S
O43 P32 1.490 . S
H44 C60 0.939 . S
H45 C62 0.940 . S
C46 P32 1.812 . S
C46 C47 1.389 . S
C46 C51 1.391 . S
C47 H33 0.941 . S
C47 C46 1.389 . S
C47 C48 1.397 . S
C48 H34 0.939 . S
C48 C47 1.397 . S
C48 C49 1.378 . S
C49 C48 1.378 . S
C49 C50 1.378 . S
C50 H35 0.940 . S
C50 C49 1.378 . S
C50 C51 1.396 . S
C51 H36 0.940 . S
C51 C46 1.391 . S
C51 C50 1.396 . S
C52 P32 1.803 . S
C52 C53 1.378 . S
C52 C57 1.400 . S
C53 H37 0.939 . S
C53 C52 1.378 . S
C53 C54 1.361 . S
C54 H38 0.942 . S
C54 C53 1.361 . S
C54 C55 1.369 . S
C55 C54 1.369 . S
C55 C56 1.404 . S
C56 H39 0.940 . S
C56 C55 1.404 . S
C56 C57 1.389 . S
C57 H40 0.939 . S
C57 C52 1.400 . S
C57 C56 1.389 . S
C58 P32 1.819 . S
C58 C59 1.391 . S
C58 C63 1.391 . S
C59 H41 0.941 . S
C59 C58 1.391 . S
C59 C60 1.396 . S
C60 H44 0.939 . S
C60 C59 1.396 . S
C60 C61 1.397 . S
C61 C60 1.397 . S
C61 C62 1.385 . S
C62 H45 0.940 . S
C62 C61 1.385 . S
C62 C63 1.388 . S
C63 H42 0.939 . S
C63 C58 1.391 . S
C63 C62 1.388 . S
P64 O75 1.490 . S
P64 C78 1.812 . S
P64 C84 1.803 . S
P64 C90 1.819 . S
H65 C79 0.941 . S
H66 C80 0.939 . S
H67 C82 0.940 . S
H68 C83 0.940 . S
H69 C85 0.939 . S
H70 C86 0.942 . S
H71 C88 0.940 . S
H72 C89 0.939 . S
H73 C91 0.941 . S
H74 C95 0.939 . S
O75 P64 1.490 . S
H76 C92 0.939 . S
H77 C94 0.940 . S
C78 P64 1.812 . S
C78 C79 1.389 . S
C78 C83 1.391 . S
C79 H65 0.941 . S
C79 C78 1.389 . S
C79 C80 1.397 . S
C80 H66 0.939 . S
C80 C79 1.397 . S
C80 C81 1.378 . S
C81 C80 1.378 . S
C81 C82 1.378 . S
C82 H67 0.940 . S
C82 C81 1.378 . S
C82 C83 1.396 . S
C83 H68 0.940 . S
C83 C78 1.391 . S
C83 C82 1.396 . S
C84 P64 1.803 . S
C84 C85 1.378 . S
C84 C89 1.400 . S
C85 H69 0.939 . S
C85 C84 1.378 . S
C85 C86 1.361 . S
C86 H70 0.942 . S
C86 C85 1.361 . S
C86 C87 1.369 . S
C87 C86 1.369 . S
C87 C88 1.404 . S
C88 H71 0.940 . S
C88 C87 1.404 . S
C88 C89 1.389 . S
C89 H72 0.939 . S
C89 C84 1.400 . S
C89 C88 1.389 . S
C90 P64 1.819 . S
C90 C91 1.391 . S
C90 C95 1.391 . S
C91 H73 0.941 . S
C91 C90 1.391 . S
C91 C92 1.396 . S
C92 H76 0.939 . S
C92 C91 1.396 . S
C92 C93 1.397 . S
C93 C92 1.397 . S
C93 C94 1.385 . S
C94 H77 0.940 . S
C94 C93 1.385 . S
C94 C95 1.388 . S
C95 H74 0.939 . S
C95 C90 1.391 . S
C95 C94 1.388 . S
P96 O107 1.490 . S
P96 C110 1.812 . S
P96 C116 1.803 . S
P96 C122 1.819 . S
H97 C111 0.941 . S
H98 C112 0.939 . S
H99 C114 0.940 . S
H100 C115 0.940 . S
H101 C117 0.939 . S
H102 C118 0.942 . S
H103 C120 0.940 . S
H104 C121 0.939 . S
H105 C123 0.941 . S
H106 C127 0.939 . S
O107 P96 1.490 . S
H108 C124 0.939 . S
H109 C126 0.940 . S
C110 P96 1.812 . S
C110 C111 1.389 . S
C110 C115 1.391 . S
C111 H97 0.941 . S
C111 C110 1.389 . S
C111 C112 1.397 . S
C112 H98 0.939 . S
C112 C111 1.397 . S
C112 C113 1.378 . S
C113 C112 1.378 . S
C113 C114 1.378 . S
C114 H99 0.940 . S
C114 C113 1.378 . S
C114 C115 1.396 . S
C115 H100 0.940 . S
C115 C110 1.391 . S
C115 C114 1.396 . S
C116 P96 1.803 . S
C116 C117 1.378 . S
C116 C121 1.400 . S
C117 H101 0.939 . S
C117 C116 1.378 . S
C117 C118 1.361 . S
C118 H102 0.942 . S
C118 C117 1.361 . S
C118 C119 1.369 . S
C119 C118 1.369 . S
C119 C120 1.404 . S
C120 H103 0.940 . S
C120 C119 1.404 . S
C120 C121 1.389 . S
C121 H104 0.939 . S
C121 C116 1.400 . S
C121 C120 1.389 . S
C122 P96 1.819 . S
C122 C123 1.391 . S
C122 C127 1.391 . S
C123 H105 0.941 . S
C123 C122 1.391 . S
C123 C124 1.396 . S
C124 H108 0.939 . S
C124 C123 1.396 . S
C124 C125 1.397 . S
C125 C124 1.397 . S
C125 C126 1.385 . S
C126 H109 0.940 . S
C126 C125 1.385 . S
C126 C127 1.388 . S
C127 H106 0.939 . S
C127 C122 1.391 . S
C127 C126 1.388 . S
P128 O139 1.490 . S
P128 C142 1.812 . S
P128 C148 1.803 . S
P128 C154 1.819 . S
H129 C143 0.941 . S
H130 C144 0.939 . S
H131 C146 0.940 . S
H132 C147 0.940 . S
H133 C149 0.939 . S
H134 C150 0.942 . S
H135 C152 0.940 . S
H136 C153 0.939 . S
H137 C155 0.941 . S
H138 C159 0.939 . S
O139 P128 1.490 . S
H140 C156 0.939 . S
H141 C158 0.940 . S
C142 P128 1.812 . S
C142 C143 1.389 . S
C142 C147 1.391 . S
C143 H129 0.941 . S
C143 C142 1.389 . S
C143 C144 1.397 . S
C144 H130 0.939 . S
C144 C143 1.397 . S
C144 C145 1.378 . S
C145 C144 1.378 . S
C145 C146 1.378 . S
C146 H131 0.940 . S
C146 C145 1.378 . S
C146 C147 1.396 . S
C147 H132 0.940 . S
C147 C142 1.391 . S
C147 C146 1.396 . S
C148 P128 1.803 . S
C148 C149 1.378 . S
C148 C153 1.400 . S
C149 H133 0.939 . S
C149 C148 1.378 . S
C149 C150 1.361 . S
C150 H134 0.942 . S
C150 C149 1.361 . S
C150 C151 1.369 . S
C151 C150 1.369 . S
C151 C152 1.404 . S
C152 H135 0.940 . S
C152 C151 1.404 . S
C152 C153 1.389 . S
C153 H136 0.939 . S
C153 C148 1.400 . S
C153 C152 1.389 . S
C154 P128 1.819 . S
C154 C155 1.391 . S
C154 C159 1.391 . S
C155 H137 0.941 . S
C155 C154 1.391 . S
C155 C156 1.396 . S
C156 H140 0.939 . S
C156 C155 1.396 . S
C156 C157 1.397 . S
C157 C156 1.397 . S
C157 C158 1.385 . S
C158 H141 0.940 . S
C158 C157 1.385 . S
C158 C159 1.388 . S
C159 H138 0.939 . S
C159 C154 1.391 . S
C159 C158 1.388 . S
P160 O171 1.490 . S
P160 C174 1.812 . S
P160 C180 1.803 . S
P160 C186 1.819 . S
H161 C175 0.941 . S
H162 C176 0.939 . S
H163 C178 0.940 . S
H164 C179 0.940 . S
H165 C181 0.939 . S
H166 C182 0.942 . S
H167 C184 0.940 . S
H168 C185 0.939 . S
H169 C187 0.941 . S
H170 C191 0.939 . S
O171 P160 1.490 . S
H172 C188 0.939 . S
H173 C190 0.940 . S
C174 P160 1.812 . S
C174 C175 1.389 . S
C174 C179 1.391 . S
C175 H161 0.941 . S
C175 C174 1.389 . S
C175 C176 1.397 . S
C176 H162 0.939 . S
C176 C175 1.397 . S
C176 C177 1.378 . S
C177 C176 1.378 . S
C177 C178 1.378 . S
C178 H163 0.940 . S
C178 C177 1.378 . S
C178 C179 1.396 . S
C179 H164 0.940 . S
C179 C174 1.391 . S
C179 C178 1.396 . S
C180 P160 1.803 . S
C180 C181 1.378 . S
C180 C185 1.400 . S
C181 H165 0.939 . S
C181 C180 1.378 . S
C181 C182 1.361 . S
C182 H166 0.942 . S
C182 C181 1.361 . S
C182 C183 1.369 . S
C183 C182 1.369 . S
C183 C184 1.404 . S
C184 H167 0.940 . S
C184 C183 1.404 . S
C184 C185 1.389 . S
C185 H168 0.939 . S
C185 C180 1.400 . S
C185 C184 1.389 . S
C186 P160 1.819 . S
C186 C187 1.391 . S
C186 C191 1.391 . S
C187 H169 0.941 . S
C187 C186 1.391 . S
C187 C188 1.396 . S
C188 H172 0.939 . S
C188 C187 1.396 . S
C188 C189 1.397 . S
C189 C188 1.397 . S
C189 C190 1.385 . S
C190 H173 0.940 . S
C190 C189 1.385 . S
C190 C191 1.388 . S
C191 H170 0.939 . S
C191 C186 1.391 . S
C191 C190 1.388 . S
P192 O203 1.490 . S
P192 C206 1.812 . S
P192 C212 1.803 . S
P192 C218 1.819 . S
H193 C207 0.941 . S
H194 C208 0.939 . S
H195 C210 0.940 . S
H196 C211 0.940 . S
H197 C213 0.939 . S
H198 C214 0.942 . S
H199 C216 0.940 . S
H200 C217 0.939 . S
H201 C219 0.941 . S
H202 C223 0.939 . S
O203 P192 1.490 . S
H204 C220 0.939 . S
H205 C222 0.940 . S
C206 P192 1.812 . S
C206 C207 1.389 . S
C206 C211 1.391 . S
C207 H193 0.941 . S
C207 C206 1.389 . S
C207 C208 1.397 . S
C208 H194 0.939 . S
C208 C207 1.397 . S
C208 C209 1.378 . S
C209 C208 1.378 . S
C209 C210 1.378 . S
C210 H195 0.940 . S
C210 C209 1.378 . S
C210 C211 1.396 . S
C211 H196 0.940 . S
C211 C206 1.391 . S
C211 C210 1.396 . S
C212 P192 1.803 . S
C212 C213 1.378 . S
C212 C217 1.400 . S
C213 H197 0.939 . S
C213 C212 1.378 . S
C213 C214 1.361 . S
C214 H198 0.942 . S
C214 C213 1.361 . S
C214 C215 1.369 . S
C215 C214 1.369 . S
C215 C216 1.404 . S
C216 H199 0.940 . S
C216 C215 1.404 . S
C216 C217 1.389 . S
C217 H200 0.939 . S
C217 C212 1.400 . S
C217 C216 1.389 . S
C218 P192 1.819 . S
C218 C219 1.391 . S
C218 C223 1.391 . S
C219 H201 0.941 . S
C219 C218 1.391 . S
C219 C220 1.396 . S
C220 H204 0.939 . S
C220 C219 1.396 . S
C220 C221 1.397 . S
C221 C220 1.397 . S
C221 C222 1.385 . S
C222 H205 0.940 . S
C222 C221 1.385 . S
C222 C223 1.388 . S
C223 H202 0.939 . S
C223 C218 1.391 . S
C223 C222 1.388 . S
P224 O235 1.490 . S
P224 C238 1.812 . S
P224 C244 1.803 . S
P224 C250 1.819 . S
H225 C239 0.941 . S
H226 C240 0.939 . S
H227 C242 0.940 . S
H228 C243 0.940 . S
H229 C245 0.939 . S
H230 C246 0.942 . S
H231 C248 0.940 . S
H232 C249 0.939 . S
H233 C251 0.941 . S
H234 C255 0.939 . S
O235 P224 1.490 . S
H236 C252 0.939 . S
H237 C254 0.940 . S
C238 P224 1.812 . S
C238 C239 1.389 . S
C238 C243 1.391 . S
C239 H225 0.941 . S
C239 C238 1.389 . S
C239 C240 1.397 . S
C240 H226 0.939 . S
C240 C239 1.397 . S
C240 C241 1.378 . S
C241 C240 1.378 . S
C241 C242 1.378 . S
C242 H227 0.940 . S
C242 C241 1.378 . S
C242 C243 1.396 . S
C243 H228 0.940 . S
C243 C238 1.391 . S
C243 C242 1.396 . S
C244 P224 1.803 . S
C244 C245 1.378 . S
C244 C249 1.400 . S
C245 H229 0.939 . S
C245 C244 1.378 . S
C245 C246 1.361 . S
C246 H230 0.942 . S
C246 C245 1.361 . S
C246 C247 1.369 . S
C247 C246 1.369 . S
C247 C248 1.404 . S
C248 H231 0.940 . S
C248 C247 1.404 . S
C248 C249 1.389 . S
C249 H232 0.939 . S
C249 C244 1.400 . S
C249 C248 1.389 . S
C250 P224 1.819 . S
C250 C251 1.391 . S
C250 C255 1.391 . S
C251 H233 0.941 . S
C251 C250 1.391 . S
C251 C252 1.396 . S
C252 H236 0.939 . S
C252 C251 1.396 . S
C252 C253 1.397 . S
C253 C252 1.397 . S
C253 C254 1.385 . S
C254 H237 0.940 . S
C254 C253 1.385 . S
C254 C255 1.388 . S
C255 H234 0.939 . S
C255 C250 1.391 . S
C255 C254 1.388 . S
La256 C258 2.928 . S
La256 O276 2.521 . S
La256 O277 2.628 . S
La256 O278 2.554 1_545 S
La256 O279 2.757 1_545 S
La256 O280 2.470 . S
La256 O285 2.482 1_455 S
La256 O287 2.503 1_445 S
La257 C267 2.928 . S
La257 O279 2.482 1_655 S
La257 O281 2.503 1_665 S
La257 O282 2.521 . S
La257 O283 2.628 . S
La257 O284 2.554 1_565 S
La257 O285 2.757 1_565 S
La257 O286 2.470 . S
C258 La256 2.928 . S
C258 C259 1.503 . S
C258 O276 1.261 . S
C258 O277 1.243 . S
C259 C258 1.503 . S
C259 C260 1.394 . S
C259 C264 1.373 . S
C260 C259 1.394 . S
C260 C261 1.380 . S
C260 H288 0.930 . S
C261 C260 1.380 . S
C261 C262 1.376 . S
C261 H289 0.930 . S
C262 C261 1.376 . S
C262 C263 1.370 . S
C263 C262 1.370 . S
C263 C264 1.396 . S
C263 H290 0.929 . S
C264 C259 1.373 . S
C264 C263 1.396 . S
C264 H291 0.929 . S
C265 O278 1.240 . S
C265 O279 1.289 . S
C266 O280 1.258 . S
C266 O281 1.256 . S
C267 La257 2.928 . S
C267 C268 1.503 . S
C267 O282 1.261 . S
C267 O283 1.243 . S
C268 C267 1.503 . S
C268 C269 1.394 . S
C268 C273 1.373 . S
C269 C268 1.394 . S
C269 C270 1.380 . S
C269 H292 0.930 . S
C270 C269 1.380 . S
C270 C271 1.376 . S
C270 H293 0.930 . S
C271 C270 1.376 . S
C271 C272 1.370 . S
C272 C271 1.370 . S
C272 C273 1.396 . S
C272 H294 0.929 . S
C273 C268 1.373 . S
C273 C272 1.396 . S
C273 H295 0.929 . S
C274 O284 1.240 . S
C274 O285 1.289 . S
C275 O286 1.258 . S
C275 O287 1.256 . S
O276 La256 2.521 . S
O276 C258 1.261 . S
O277 La256 2.628 . S
O277 C258 1.243 . S
O278 La256 2.554 1_565 S
O278 C265 1.240 . S
O279 La256 2.757 1_565 S
O279 La257 2.482 1_455 S
O279 C265 1.289 . S
O280 La256 2.470 . S
O280 C266 1.258 . S
O281 La257 2.503 1_445 S
O281 C266 1.256 . S
O282 La257 2.521 . S
O282 C267 1.261 . S
O283 La257 2.628 . S
O283 C267 1.243 . S
O284 La257 2.554 1_545 S
O284 C274 1.240 . S
O285 La256 2.482 1_655 S
O285 La257 2.757 1_545 S
O285 C274 1.289 . S
O286 La257 2.470 . S
O286 C275 1.258 . S
O287 La256 2.503 1_665 S
O287 C275 1.256 . S
H288 C260 0.930 . S
H289 C261 0.930 . S
H290 C263 0.929 . S
H291 C264 0.929 . S
H292 C269 0.930 . S
H293 C270 0.930 . S
H294 C272 0.929 . S
H295 C273 0.929 . S
La296 C298 2.928 . S
La296 O316 2.521 . S
La296 O317 2.628 . S
La296 O318 2.554 1_545 S
La296 O319 2.757 1_545 S
La296 O320 2.470 . S
La296 O325 2.464 1_554 S
La296 O327 2.503 1_544 S
La297 C307 2.928 1_545 S
La297 O319 2.482 1_546 S
La297 O321 2.503 1_556 S
La297 O322 2.519 1_545 S
La297 O323 2.628 1_545 S
La297 O324 2.554 . S
La297 O325 2.766 . S
La297 O326 2.470 1_545 S
C298 La296 2.928 . S
C298 C299 1.503 . S
C298 O316 1.261 . S
C298 O317 1.243 . S
C299 C298 1.503 . S
C299 C300 1.394 . S
C299 C304 1.373 . S
C300 C299 1.394 . S
C300 C301 1.380 . S
C300 H328 0.930 . S
C301 C300 1.380 . S
C301 C302 1.376 . S
C301 H329 0.930 . S
C302 C301 1.376 . S
C302 C303 1.370 . S
C303 C302 1.370 . S
C303 C304 1.396 . S
C303 H330 0.929 . S
C304 C299 1.373 . S
C304 C303 1.396 . S
C304 H331 0.929 . S
C305 O318 1.240 . S
C305 O319 1.289 . S
C306 O320 1.258 . S
C306 O321 1.256 . S
C307 La297 2.928 1_565 S
C307 C308 1.503 . S
C307 O322 1.286 . S
C307 O323 1.243 . S
C308 C307 1.503 . S
C308 C309 1.394 . S
C308 C313 1.373 . S
C309 C308 1.394 . S
C309 C310 1.380 . S
C309 H332 0.930 . S
C310 C309 1.380 . S
C310 C311 1.376 . S
C310 H333 0.930 . S
C311 C310 1.376 . S
C311 C312 1.370 . S
C312 C311 1.370 . S
C312 C313 1.396 . S
C312 H334 0.929 . S
C313 C308 1.373 . S
C313 C312 1.396 . S
C313 H335 0.929 . S
C314 O324 1.240 . S
C314 O325 1.311 . S
C315 O326 1.258 . S
C315 O327 1.256 . S
O316 La296 2.521 . S
O316 C298 1.261 . S
O317 La296 2.628 . S
O317 C298 1.243 . S
O318 La296 2.554 1_565 S
O318 C305 1.240 . S
O319 La296 2.757 1_565 S
O319 La297 2.482 1_564 S
O319 C305 1.289 . S
O320 La296 2.470 . S
O320 C306 1.258 . S
O321 La297 2.503 1_554 S
O321 C306 1.256 . S
O322 La297 2.519 1_565 S
O322 C307 1.286 . S
O323 La297 2.628 1_565 S
O323 C307 1.243 . S
O324 La297 2.554 . S
O324 C314 1.240 . S
O325 La296 2.464 1_556 S
O325 La297 2.766 . S
O325 C314 1.311 . S
O326 La297 2.470 1_565 S
O326 C315 1.258 . S
O327 La296 2.503 1_566 S
O327 C315 1.256 . S
H328 C300 0.930 . S
H329 C301 0.930 . S
H330 C303 0.929 . S
H331 C304 0.929 . S
H332 C309 0.930 . S
H333 C310 0.930 . S
H334 C312 0.929 . S
H335 C313 0.929 . S
La336 C338 2.928 . S
La336 O356 2.521 . S
La336 O357 2.628 . S
La336 O358 2.554 . S
La336 O359 2.757 . S
La336 O360 2.470 . S
La336 O365 2.482 . S
La336 O367 2.503 . S
La337 C347 2.928 . S
La337 O359 2.482 . S
La337 O361 2.503 . S
La337 O362 2.521 . S
La337 O363 2.628 . S
La337 O364 2.554 . S
La337 O365 2.757 . S
La337 O366 2.470 . S
C338 La336 2.928 . S
C338 C339 1.503 . S
C338 O356 1.261 . S
C338 O357 1.243 . S
C339 C338 1.503 . S
C339 C340 1.394 . S
C339 C344 1.373 . S
C340 C339 1.394 . S
C340 C341 1.380 . S
C340 H368 0.930 . S
C341 C340 1.380 . S
C341 C342 1.376 . S
C341 H369 0.930 . S
C342 C341 1.376 . S
C342 C343 1.370 . S
C343 C342 1.370 . S
C343 C344 1.396 . S
C343 H370 0.929 . S
C344 C339 1.373 . S
C344 C343 1.396 . S
C344 H371 0.929 . S
C345 O358 1.240 . S
C345 O359 1.289 . S
C346 O360 1.258 . S
C346 O361 1.256 . S
C347 La337 2.928 . S
C347 C348 1.503 . S
C347 O362 1.261 . S
C347 O363 1.243 . S
C348 C347 1.503 . S
C348 C349 1.394 . S
C348 C353 1.373 . S
C349 C348 1.394 . S
C349 C350 1.380 . S
C349 H372 0.930 . S
C350 C349 1.380 . S
C350 C351 1.376 . S
C350 H373 0.930 . S
C351 C350 1.376 . S
C351 C352 1.370 . S
C352 C351 1.370 . S
C352 C353 1.396 . S
C352 H374 0.929 . S
C353 C348 1.373 . S
C353 C352 1.396 . S
C353 H375 0.929 . S
C354 O364 1.240 . S
C354 O365 1.289 . S
C355 O366 1.258 . S
C355 O367 1.256 . S
O356 La336 2.521 . S
O356 C338 1.261 . S
O357 La336 2.628 . S
O357 C338 1.243 . S
O358 La336 2.554 . S
O358 C345 1.240 . S
O359 La336 2.757 . S
O359 La337 2.482 . S
O359 C345 1.289 . S
O360 La336 2.470 . S
O360 C346 1.258 . S
O361 La337 2.503 . S
O361 C346 1.256 . S
O362 La337 2.521 . S
O362 C347 1.261 . S
O363 La337 2.628 . S
O363 C347 1.243 . S
O364 La337 2.554 . S
O364 C354 1.240 . S
O365 La336 2.482 . S
O365 La337 2.757 . S
O365 C354 1.289 . S
O366 La337 2.470 . S
O366 C355 1.258 . S
O367 La336 2.503 . S
O367 C355 1.256 . S
H368 C340 0.930 . S
H369 C341 0.930 . S
H370 C343 0.929 . S
H371 C344 0.929 . S
H372 C349 0.930 . S
H373 C350 0.930 . S
H374 C352 0.929 . S
H375 C353 0.929 . S
La376 C378 2.928 . S
La376 O396 2.521 . S
La376 O397 2.628 . S
La376 O398 2.554 1_455 S
La376 O399 2.757 1_455 S
La376 O400 2.470 . S
La376 O405 2.482 1_554 S
La376 O407 2.503 1_454 S
La377 C387 2.928 . S
La377 O399 2.482 1_556 S
La377 O401 2.503 1_656 S
La377 O402 2.521 . S
La377 O403 2.628 . S
La377 O404 2.554 1_655 S
La377 O405 2.757 1_655 S
La377 O406 2.470 . S
C378 La376 2.928 . S
C378 C379 1.503 . S
C378 O396 1.261 . S
C378 O397 1.243 . S
C379 C378 1.503 . S
C379 C380 1.394 . S
C379 C384 1.373 . S
C380 C379 1.394 . S
C380 C381 1.380 . S
C380 H408 0.930 . S
C381 C380 1.380 . S
C381 C382 1.376 . S
C381 H409 0.930 . S
C382 C381 1.376 . S
C382 C383 1.370 . S
C383 C382 1.370 . S
C383 C384 1.396 . S
C383 H410 0.929 . S
C384 C379 1.373 . S
C384 C383 1.396 . S
C384 H411 0.929 . S
C385 O398 1.240 . S
C385 O399 1.289 . S
C386 O400 1.258 . S
C386 O401 1.256 . S
C387 La377 2.928 . S
C387 C388 1.503 . S
C387 O402 1.261 . S
C387 O403 1.243 . S
C388 C387 1.503 . S
C388 C389 1.394 . S
C388 C393 1.373 . S
C389 C388 1.394 . S
C389 C390 1.380 . S
C389 H412 0.930 . S
C390 C389 1.380 . S
C390 C391 1.376 . S
C390 H413 0.930 . S
C391 C390 1.376 . S
C391 C392 1.370 . S
C392 C391 1.370 . S
C392 C393 1.396 . S
C392 H414 0.929 . S
C393 C388 1.373 . S
C393 C392 1.396 . S
C393 H415 0.929 . S
C394 O404 1.240 . S
C394 O405 1.289 . S
C395 O406 1.258 . S
C395 O407 1.256 . S
O396 La376 2.521 . S
O396 C378 1.261 . S
O397 La376 2.628 . S
O397 C378 1.243 . S
O398 La376 2.554 1_655 S
O398 C385 1.240 . S
O399 La376 2.757 1_655 S
O399 La377 2.482 1_554 S
O399 C385 1.289 . S
O400 La376 2.470 . S
O400 C386 1.258 . S
O401 La377 2.503 1_454 S
O401 C386 1.256 . S
O402 La377 2.521 . S
O402 C387 1.261 . S
O403 La377 2.628 . S
O403 C387 1.243 . S
O404 La377 2.554 1_455 S
O404 C394 1.240 . S
O405 La376 2.482 1_556 S
O405 La377 2.757 1_455 S
O405 C394 1.289 . S
O406 La377 2.470 . S
O406 C395 1.258 . S
O407 La376 2.503 1_656 S
O407 C395 1.256 . S
H408 C380 0.930 . S
H409 C381 0.930 . S
H410 C383 0.929 . S
H411 C384 0.929 . S
H412 C389 0.930 . S
H413 C390 0.930 . S
H414 C392 0.929 . S
H415 C393 0.929 . S
H416 C428 0.930 . S
H417 C430 0.930 . S
H418 C431 0.930 . S
H419 C435 0.959 . S
H420 C435 0.959 . S
H421 C435 0.961 . S
H422 C436 0.960 . S
H423 C436 0.961 . S
H424 C436 0.959 . S
H425 C439 0.929 . S
H426 C440 0.931 . S
H427 C442 0.930 . S
C428 H416 0.930 . S
C428 C429 1.399 . S
C428 C433 1.399 . S
C429 C428 1.399 . S
C429 C430 1.376 . S
C430 H417 0.930 . S
C430 C429 1.376 . S
C430 C431 1.388 . S
C431 H418 0.930 . S
C431 C430 1.388 . S
C431 C432 1.390 . S
C432 C431 1.390 . S
C432 C433 1.394 . S
C432 C438 1.465 . S
C433 C428 1.399 . S
C433 C432 1.394 . S
C433 C434 1.516 . S
C434 C433 1.516 . S
C434 C435 1.502 . S
C434 C436 1.561 . S
C434 C437 1.526 . S
C435 H419 0.959 . S
C435 H420 0.959 . S
C435 H421 0.961 . S
C435 C434 1.502 . S
C436 H422 0.960 . S
C436 H423 0.961 . S
C436 H424 0.959 . S
C436 C434 1.561 . S
C437 C434 1.526 . S
C437 C438 1.396 . S
C437 C442 1.390 . S
C438 C432 1.465 . S
C438 C437 1.396 . S
C438 C439 1.399 . S
C439 H425 0.929 . S
C439 C438 1.399 . S
C439 C440 1.385 . S
C440 H426 0.931 . S
C440 C439 1.385 . S
C440 C441 1.389 . S
C441 C440 1.389 . S
C441 C442 1.387 . S
C442 H427 0.930 . S
C442 C437 1.390 . S
C442 C441 1.387 . S
H443 C455 0.930 . S
H444 C457 0.930 . S
H445 C458 0.930 . S
H446 C462 0.959 . S
H447 C462 0.959 . S
H448 C462 0.961 . S
H449 C463 0.960 . S
H450 C463 0.961 . S
H451 C463 0.959 . S
H452 C466 0.929 . S
H453 C467 0.931 . S
H454 C469 0.930 . S
C455 H443 0.930 . S
C455 C456 1.399 . S
C455 C460 1.399 . S
C456 C455 1.399 . S
C456 C457 1.376 . S
C457 H444 0.930 . S
C457 C456 1.376 . S
C457 C458 1.388 . S
C458 H445 0.930 . S
C458 C457 1.388 . S
C458 C459 1.390 . S
C459 C458 1.390 . S
C459 C460 1.394 . S
C459 C465 1.465 . S
C460 C455 1.399 . S
C460 C459 1.394 . S
C460 C461 1.516 . S
C461 C460 1.516 . S
C461 C462 1.502 . S
C461 C463 1.561 . S
C461 C464 1.526 . S
C462 H446 0.959 . S
C462 H447 0.959 . S
C462 H448 0.961 . S
C462 C461 1.502 . S
C463 H449 0.960 . S
C463 H450 0.961 . S
C463 H451 0.959 . S
C463 C461 1.561 . S
C464 C461 1.526 . S
C464 C465 1.396 . S
C464 C469 1.390 . S
C465 C459 1.465 . S
C465 C464 1.396 . S
C465 C466 1.399 . S
C466 H452 0.929 . S
C466 C465 1.399 . S
C466 C467 1.385 . S
C467 H453 0.931 . S
C467 C466 1.385 . S
C467 C468 1.389 . S
C468 C467 1.389 . S
C468 C469 1.387 . S
C469 H454 0.930 . S
C469 C464 1.390 . S
C469 C468 1.387 . S
H470 C482 0.930 . S
H471 C484 0.930 . S
H472 C485 0.930 . S
H473 C489 0.959 . S
H474 C489 0.959 . S
H475 C489 0.961 . S
H476 C490 0.960 . S
H477 C490 0.961 . S
H478 C490 0.959 . S
H479 C493 0.929 . S
H480 C494 0.931 . S
H481 C496 0.930 . S
C482 H470 0.930 . S
C482 C483 1.399 . S
C482 C487 1.399 . S
C483 C482 1.399 . S
C483 C484 1.376 . S
C484 H471 0.930 . S
C484 C483 1.376 . S
C484 C485 1.388 . S
C485 H472 0.930 . S
C485 C484 1.388 . S
C485 C486 1.390 . S
C486 C485 1.390 . S
C486 C487 1.394 . S
C486 C492 1.465 . S
C487 C482 1.399 . S
C487 C486 1.394 . S
C487 C488 1.516 . S
C488 C487 1.516 . S
C488 C489 1.502 . S
C488 C490 1.561 . S
C488 C491 1.526 . S
C489 H473 0.959 . S
C489 H474 0.959 . S
C489 H475 0.961 . S
C489 C488 1.502 . S
C490 H476 0.960 . S
C490 H477 0.961 . S
C490 H478 0.959 . S
C490 C488 1.561 . S
C491 C488 1.526 . S
C491 C492 1.396 . S
C491 C496 1.390 . S
C492 C486 1.465 . S
C492 C491 1.396 . S
C492 C493 1.399 . S
C493 H479 0.929 . S
C493 C492 1.399 . S
C493 C494 1.385 . S
C494 H480 0.931 . S
C494 C493 1.385 . S
C494 C495 1.389 . S
C495 C494 1.389 . S
C495 C496 1.387 . S
C496 H481 0.930 . S
C496 C491 1.390 . S
C496 C495 1.387 . S
H497 C509 0.930 . S
H498 C511 0.930 . S
H499 C512 0.930 . S
H500 C516 0.959 . S
H501 C516 0.959 . S
H502 C516 0.961 . S
H503 C517 0.960 . S
H504 C517 0.961 . S
H505 C517 0.959 . S
H506 C520 0.929 . S
H507 C521 0.914 1_455 S
H508 C523 0.930 . S
C509 H497 0.930 . S
C509 C510 1.399 . S
C509 C514 1.399 . S
C510 C509 1.399 . S
C510 C511 1.376 . S
C511 H498 0.930 . S
C511 C510 1.376 . S
C511 C512 1.388 . S
C512 H499 0.930 . S
C512 C511 1.388 . S
C512 C513 1.390 . S
C513 C512 1.390 . S
C513 C514 1.394 . S
C513 C519 1.465 . S
C514 C509 1.399 . S
C514 C513 1.394 . S
C514 C515 1.516 . S
C515 C514 1.516 . S
C515 C516 1.502 . S
C515 C517 1.561 . S
C515 C518 1.526 . S
C516 H500 0.959 . S
C516 H501 0.959 . S
C516 H502 0.961 . S
C516 C515 1.502 . S
C517 H503 0.960 . S
C517 H504 0.961 . S
C517 H505 0.959 . S
C517 C515 1.561 . S
C518 C515 1.526 . S
C518 C519 1.396 . S
C518 C523 1.390 . S
C519 C513 1.465 . S
C519 C518 1.396 . S
C519 C520 1.399 . S
C520 H506 0.929 . S
C520 C519 1.399 . S
C520 C521 1.385 . S
C521 H507 0.914 1_655 S
C521 C520 1.385 . S
C521 C522 1.389 . S
C522 C521 1.389 . S
C522 C523 1.387 . S
C523 H508 0.930 . S
C523 C518 1.390 . S
C523 C522 1.387 . S
H524 C536 0.930 . S
H525 C538 0.930 . S
H526 C539 0.930 . S
H527 C543 0.959 . S
H528 C543 0.959 . S
H529 C543 0.961 . S
H530 C544 0.960 . S
H531 C544 0.961 . S
H532 C544 0.959 . S
H533 C547 0.929 . S
H534 C548 0.931 . S
H535 C550 0.930 . S
C536 H524 0.930 . S
C536 C537 1.399 . S
C536 C541 1.399 . S
C537 C536 1.399 . S
C537 C538 1.376 . S
C538 H525 0.930 . S
C538 C537 1.376 . S
C538 C539 1.388 . S
C539 H526 0.930 . S
C539 C538 1.388 . S
C539 C540 1.390 . S
C540 C539 1.390 . S
C540 C541 1.394 . S
C540 C546 1.465 . S
C541 C536 1.399 . S
C541 C540 1.394 . S
C541 C542 1.516 . S
C542 C541 1.516 . S
C542 C543 1.502 . S
C542 C544 1.561 . S
C542 C545 1.526 . S
C543 H527 0.959 . S
C543 H528 0.959 . S
C543 H529 0.961 . S
C543 C542 1.502 . S
C544 H530 0.960 . S
C544 H531 0.961 . S
C544 H532 0.959 . S
C544 C542 1.561 . S
C545 C542 1.526 . S
C545 C546 1.396 . S
C545 C550 1.390 . S
C546 C540 1.465 . S
C546 C545 1.396 . S
C546 C547 1.399 . S
C547 H533 0.929 . S
C547 C546 1.399 . S
C547 C548 1.385 . S
C548 H534 0.931 . S
C548 C547 1.385 . S
C548 C549 1.389 . S
C549 C548 1.389 . S
C549 C550 1.387 . S
C550 H535 0.930 . S
C550 C545 1.390 . S
C550 C549 1.387 . S
H551 C563 0.930 . S
H552 C565 0.930 . S
H553 C566 0.930 . S
H554 C570 0.959 . S
H555 C570 0.959 . S
H556 C570 0.961 . S
H557 C571 0.960 . S
H558 C571 0.961 . S
H559 C571 0.959 . S
H560 C574 0.929 . S
H561 C575 0.931 . S
H562 C577 0.930 . S
C563 H551 0.930 . S
C563 C564 1.399 . S
C563 C568 1.399 . S
C564 C563 1.399 . S
C564 C565 1.376 . S
C565 H552 0.930 . S
C565 C564 1.376 . S
C565 C566 1.388 . S
C566 H553 0.930 . S
C566 C565 1.388 . S
C566 C567 1.390 . S
C567 C566 1.390 . S
C567 C568 1.394 . S
C567 C573 1.465 . S
C568 C563 1.399 . S
C568 C567 1.394 . S
C568 C569 1.516 . S
C569 C568 1.516 . S
C569 C570 1.502 . S
C569 C571 1.561 . S
C569 C572 1.526 . S
C570 H554 0.959 . S
C570 H555 0.959 . S
C570 H556 0.961 . S
C570 C569 1.502 . S
C571 H557 0.960 . S
C571 H558 0.961 . S
C571 H559 0.959 . S
C571 C569 1.561 . S
C572 C569 1.526 . S
C572 C573 1.396 . S
C572 C577 1.390 . S
C573 C567 1.465 . S
C573 C572 1.396 . S
C573 C574 1.399 . S
C574 H560 0.929 . S
C574 C573 1.399 . S
C574 C575 1.385 . S
C575 H561 0.931 . S
C575 C574 1.385 . S
C575 C576 1.389 . S
C576 C575 1.389 . S
C576 C577 1.387 . S
C577 H562 0.930 . S
C577 C572 1.390 . S
C577 C576 1.387 . S
H578 C590 0.930 . S
H579 C592 0.930 . S
H580 C593 0.930 . S
H581 C597 0.959 . S
H582 C597 0.959 . S
H583 C597 0.961 . S
H584 C598 0.960 . S
H585 C598 0.961 . S
H586 C598 0.959 . S
H587 C601 0.929 . S
H588 C602 0.931 . S
H589 C604 0.930 . S
C590 H578 0.930 . S
C590 C591 1.399 . S
C590 C595 1.399 . S
C591 C590 1.399 . S
C591 C592 1.376 . S
C592 H579 0.930 . S
C592 C591 1.376 . S
C592 C593 1.388 . S
C593 H580 0.930 . S
C593 C592 1.388 . S
C593 C594 1.390 . S
C594 C593 1.390 . S
C594 C595 1.394 . S
C594 C600 1.465 . S
C595 C590 1.399 . S
C595 C594 1.394 . S
C595 C596 1.516 . S
C596 C595 1.516 . S
C596 C597 1.502 . S
C596 C598 1.561 . S
C596 C599 1.526 . S
C597 H581 0.959 . S
C597 H582 0.959 . S
C597 H583 0.961 . S
C597 C596 1.502 . S
C598 H584 0.960 . S
C598 H585 0.961 . S
C598 H586 0.959 . S
C598 C596 1.561 . S
C599 C596 1.526 . S
C599 C600 1.396 . S
C599 C604 1.390 . S
C600 C594 1.465 . S
C600 C599 1.396 . S
C600 C601 1.399 . S
C601 H587 0.929 . S
C601 C600 1.399 . S
C601 C602 1.385 . S
C602 H588 0.931 . S
C602 C601 1.385 . S
C602 C603 1.389 . S
C603 C602 1.389 . S
C603 C604 1.387 . S
C604 H589 0.930 . S
C604 C599 1.390 . S
C604 C603 1.387 . S
H605 C617 0.930 . S
H606 C619 0.930 . S
H607 C620 0.930 . S
H608 C624 0.959 . S
H609 C624 0.959 . S
H610 C624 0.961 . S
H611 C625 0.960 . S
H612 C625 0.961 . S
H613 C625 0.959 . S
H614 C628 0.929 . S
H615 C629 0.931 . S
H616 C631 0.930 . S
C617 H605 0.930 . S
C617 C618 1.399 . S
C617 C622 1.399 . S
C618 C617 1.399 . S
C618 C619 1.376 . S
C619 H606 0.930 . S
C619 C618 1.376 . S
C619 C620 1.388 . S
C620 H607 0.930 . S
C620 C619 1.388 . S
C620 C621 1.390 . S
C621 C620 1.390 . S
C621 C622 1.394 . S
C621 C627 1.465 . S
C622 C617 1.399 . S
C622 C621 1.394 . S
C622 C623 1.516 . S
C623 C622 1.516 . S
C623 C624 1.502 . S
C623 C625 1.561 . S
C623 C626 1.526 . S
C624 H608 0.959 . S
C624 H609 0.959 . S
C624 H610 0.961 . S
C624 C623 1.502 . S
C625 H611 0.960 . S
C625 H612 0.961 . S
C625 H613 0.959 . S
C625 C623 1.561 . S
C626 C623 1.526 . S
C626 C627 1.396 . S
C626 C631 1.390 . S
C627 C621 1.465 . S
C627 C626 1.396 . S
C627 C628 1.399 . S
C628 H614 0.929 . S
C628 C627 1.399 . S
C628 C629 1.385 . S
C629 H615 0.931 . S
C629 C628 1.385 . S
C629 C630 1.389 . S
C630 C629 1.389 . S
C630 C631 1.387 . S
C631 H616 0.930 . S
C631 C626 1.390 . S
C631 C630 1.387 . S
H632 C644 0.930 . S
H633 C646 0.930 . S
H634 C647 0.930 . S
H635 C651 0.959 . S
H636 C651 0.959 . S
H637 C651 0.961 . S
H638 C652 0.960 . S
H639 C652 0.961 . S
H640 C652 0.959 . S
H641 C655 0.929 . S
H642 C656 0.931 . S
H643 C658 0.930 . S
C644 H632 0.930 . S
C644 C645 1.399 . S
C644 C649 1.399 . S
C645 C644 1.399 . S
C645 C646 1.376 . S
C646 H633 0.930 . S
C646 C645 1.376 . S
C646 C647 1.388 . S
C647 H634 0.930 . S
C647 C646 1.388 . S
C647 C648 1.390 . S
C648 C647 1.390 . S
C648 C649 1.394 . S
C648 C654 1.465 . S
C649 C644 1.399 . S
C649 C648 1.394 . S
C649 C650 1.516 . S
C650 C649 1.516 . S
C650 C651 1.502 . S
C650 C652 1.561 . S
C650 C653 1.526 . S
C651 H635 0.959 . S
C651 H636 0.959 . S
C651 H637 0.961 . S
C651 C650 1.502 . S
C652 H638 0.960 . S
C652 H639 0.961 . S
C652 H640 0.959 . S
C652 C650 1.561 . S
C653 C650 1.526 . S
C653 C654 1.396 . S
C653 C658 1.390 . S
C654 C648 1.465 . S
C654 C653 1.396 . S
C654 C655 1.399 . S
C655 H641 0.929 . S
C655 C654 1.399 . S
C655 C656 1.385 . S
C656 H642 0.931 . S
C656 C655 1.385 . S
C656 C657 1.389 . S
C657 C656 1.389 . S
C657 C658 1.387 . S
C658 H643 0.930 . S
C658 C653 1.390 . S
C658 C657 1.387 . S
H659 C671 0.930 . S
H660 C673 0.930 . S
H661 C674 0.930 . S
H662 C678 0.959 . S
H663 C678 0.959 . S
H664 C678 0.961 . S
H665 C679 0.960 . S
H666 C679 0.961 . S
H667 C679 0.959 . S
H668 C682 0.929 . S
H669 C683 0.931 . S
H670 C685 0.930 . S
C671 H659 0.930 . S
C671 C672 1.399 . S
C671 C676 1.399 . S
C672 C671 1.399 . S
C672 C673 1.376 . S
C673 H660 0.930 . S
C673 C672 1.376 . S
C673 C674 1.388 . S
C674 H661 0.930 . S
C674 C673 1.388 . S
C674 C675 1.390 . S
C675 C674 1.390 . S
C675 C676 1.394 . S
C675 C681 1.465 . S
C676 C671 1.399 . S
C676 C675 1.394 . S
C676 C677 1.516 . S
C677 C676 1.516 . S
C677 C678 1.502 . S
C677 C679 1.561 . S
C677 C680 1.526 . S
C678 H662 0.959 . S
C678 H663 0.959 . S
C678 H664 0.961 . S
C678 C677 1.502 . S
C679 H665 0.960 . S
C679 H666 0.961 . S
C679 H667 0.959 . S
C679 C677 1.561 . S
C680 C677 1.526 . S
C680 C681 1.396 . S
C680 C685 1.390 . S
C681 C675 1.465 . S
C681 C680 1.396 . S
C681 C682 1.399 . S
C682 H668 0.929 . S
C682 C681 1.399 . S
C682 C683 1.385 . S
C683 H669 0.931 . S
C683 C682 1.385 . S
C683 C684 1.389 . S
C684 C683 1.389 . S
C684 C685 1.387 . S
C685 H670 0.930 . S
C685 C680 1.390 . S
C685 C684 1.387 . S
H686 C698 0.930 . S
H687 C700 0.930 . S
H688 C701 0.930 . S
H689 C705 0.959 . S
H690 C705 0.959 . S
H691 C705 0.961 . S
H692 C706 0.960 . S
H693 C706 0.961 . S
H694 C706 0.959 . S
H695 C709 0.929 . S
H696 C710 0.931 . S
H697 C712 0.930 . S
C698 H686 0.930 . S
C698 C699 1.399 . S
C698 C703 1.399 . S
C699 C698 1.399 . S
C699 C700 1.376 . S
C700 H687 0.930 . S
C700 C699 1.376 . S
C700 C701 1.388 . S
C701 H688 0.930 . S
C701 C700 1.388 . S
C701 C702 1.390 . S
C702 C701 1.390 . S
C702 C703 1.394 . S
C702 C708 1.465 . S
C703 C698 1.399 . S
C703 C702 1.394 . S
C703 C704 1.516 . S
C704 C703 1.516 . S
C704 C705 1.502 . S
C704 C706 1.561 . S
C704 C707 1.526 . S
C705 H689 0.959 . S
C705 H690 0.959 . S
C705 H691 0.961 . S
C705 C704 1.502 . S
C706 H692 0.960 . S
C706 H693 0.961 . S
C706 H694 0.959 . S
C706 C704 1.561 . S
C707 C704 1.526 . S
C707 C708 1.396 . S
C707 C712 1.390 . S
C708 C702 1.465 . S
C708 C707 1.396 . S
C708 C709 1.399 . S
C709 H695 0.929 . S
C709 C708 1.399 . S
C709 C710 1.385 . S
C710 H696 0.931 . S
C710 C709 1.385 . S
C710 C711 1.389 . S
C711 C710 1.389 . S
C711 C712 1.387 . S
C712 H697 0.930 . S
C712 C707 1.390 . S
C712 C711 1.387 . S
H713 C725 0.930 . S
H714 C727 0.930 . S
H715 C728 0.930 . S
H716 C732 0.959 . S
H717 C732 0.959 . S
H718 C732 0.961 . S
H719 C733 0.960 . S
H720 C733 0.961 . S
H721 C733 0.959 . S
H722 C736 0.929 . S
H723 C737 0.931 . S
H724 C739 0.930 . S
C725 H713 0.930 . S
C725 C726 1.399 . S
C725 C730 1.399 . S
C726 C725 1.399 . S
C726 C727 1.376 . S
C727 H714 0.930 . S
C727 C726 1.376 . S
C727 C728 1.388 . S
C728 H715 0.930 . S
C728 C727 1.388 . S
C728 C729 1.390 . S
C729 C728 1.390 . S
C729 C730 1.394 . S
C729 C735 1.465 . S
C730 C725 1.399 . S
C730 C729 1.394 . S
C730 C731 1.516 . S
C731 C730 1.516 . S
C731 C732 1.502 . S
C731 C733 1.561 . S
C731 C734 1.526 . S
C732 H716 0.959 . S
C732 H717 0.959 . S
C732 H718 0.961 . S
C732 C731 1.502 . S
C733 H719 0.960 . S
C733 H720 0.961 . S
C733 H721 0.959 . S
C733 C731 1.561 . S
C734 C731 1.526 . S
C734 C735 1.396 . S
C734 C739 1.390 . S
C735 C729 1.465 . S
C735 C734 1.396 . S
C735 C736 1.399 . S
C736 H722 0.929 . S
C736 C735 1.399 . S
C736 C737 1.385 . S
C737 H723 0.931 . S
C737 C736 1.385 . S
C737 C738 1.389 . S
C738 C737 1.389 . S
C738 C739 1.387 . S
C739 H724 0.930 . S
C739 C734 1.390 . S
C739 C738 1.387 . S
H740 C752 0.930 . S
H741 C754 0.930 . S
H742 C755 0.930 . S
H743 C759 0.959 . S
H744 C759 0.959 . S
H745 C759 0.961 . S
H746 C760 0.960 . S
H747 C760 0.961 . S
H748 C760 0.959 . S
H749 C763 0.929 . S
H750 C764 0.931 . S
H751 C766 0.930 . S
C752 H740 0.930 . S
C752 C753 1.399 . S
C752 C757 1.399 . S
C753 C752 1.399 . S
C753 C754 1.376 . S
C754 H741 0.930 . S
C754 C753 1.376 . S
C754 C755 1.388 . S
C755 H742 0.930 . S
C755 C754 1.388 . S
C755 C756 1.390 . S
C756 C755 1.390 . S
C756 C757 1.394 . S
C756 C762 1.465 . S
C757 C752 1.399 . S
C757 C756 1.394 . S
C757 C758 1.516 . S
C758 C757 1.516 . S
C758 C759 1.502 . S
C758 C760 1.561 . S
C758 C761 1.526 . S
C759 H743 0.959 . S
C759 H744 0.959 . S
C759 H745 0.961 . S
C759 C758 1.502 . S
C760 H746 0.960 . S
C760 H747 0.961 . S
C760 H748 0.959 . S
C760 C758 1.561 . S
C761 C758 1.526 . S
C761 C762 1.396 . S
C761 C766 1.390 . S
C762 C756 1.465 . S
C762 C761 1.396 . S
C762 C763 1.399 . S
C763 H749 0.929 . S
C763 C762 1.399 . S
C763 C764 1.385 . S
C764 H750 0.931 . S
C764 C763 1.385 . S
C764 C765 1.389 . S
C765 C764 1.389 . S
C765 C766 1.387 . S
C766 H751 0.930 . S
C766 C761 1.390 . S
C766 C765 1.387 . S
H767 C779 0.930 . S
H768 C781 0.930 . S
H769 C782 0.930 . S
H770 C786 0.959 . S
H771 C786 0.959 . S
H772 C786 0.961 . S
H773 C787 0.960 . S
H774 C787 0.961 . S
H775 C787 0.959 . S
H776 C790 0.929 . S
H777 C791 0.931 . S
H778 C793 0.930 . S
C779 H767 0.930 . S
C779 C780 1.399 . S
C779 C784 1.399 . S
C780 C779 1.399 . S
C780 C781 1.376 . S
C781 H768 0.930 . S
C781 C780 1.376 . S
C781 C782 1.388 . S
C782 H769 0.930 . S
C782 C781 1.388 . S
C782 C783 1.390 . S
C783 C782 1.390 . S
C783 C784 1.394 . S
C783 C789 1.465 . S
C784 C779 1.399 . S
C784 C783 1.394 . S
C784 C785 1.516 . S
C785 C784 1.516 . S
C785 C786 1.502 . S
C785 C787 1.561 . S
C785 C788 1.526 . S
C786 H770 0.959 . S
C786 H771 0.959 . S
C786 H772 0.961 . S
C786 C785 1.502 . S
C787 H773 0.960 . S
C787 H774 0.961 . S
C787 H775 0.959 . S
C787 C785 1.561 . S
C788 C785 1.526 . S
C788 C789 1.396 . S
C788 C793 1.390 . S
C789 C783 1.465 . S
C789 C788 1.396 . S
C789 C790 1.399 . S
C790 H776 0.929 . S
C790 C789 1.399 . S
C790 C791 1.385 . S
C791 H777 0.931 . S
C791 C790 1.385 . S
C791 C792 1.389 . S
C792 C791 1.389 . S
C792 C793 1.387 . S
C793 H778 0.930 . S
C793 C788 1.390 . S
C793 C792 1.387 . S
H794 C806 0.930 . S
H795 C808 0.930 . S
H796 C809 0.930 . S
H797 C813 0.959 . S
H798 C813 0.959 . S
H799 C813 0.961 . S
H800 C814 0.960 . S
H801 C814 0.961 . S
H802 C814 0.959 . S
H803 C817 0.929 . S
H804 C818 0.931 . S
H805 C820 0.930 . S
C806 H794 0.930 . S
C806 C807 1.399 . S
C806 C811 1.399 . S
C807 C806 1.399 . S
C807 C808 1.376 . S
C808 H795 0.930 . S
C808 C807 1.376 . S
C808 C809 1.388 . S
C809 H796 0.930 . S
C809 C808 1.388 . S
C809 C810 1.390 . S
C810 C809 1.390 . S
C810 C811 1.394 . S
C810 C816 1.465 . S
C811 C806 1.399 . S
C811 C810 1.394 . S
C811 C812 1.516 . S
C812 C811 1.516 . S
C812 C813 1.502 . S
C812 C814 1.561 . S
C812 C815 1.526 . S
C813 H797 0.959 . S
C813 H798 0.959 . S
C813 H799 0.961 . S
C813 C812 1.502 . S
C814 H800 0.960 . S
C814 H801 0.961 . S
C814 H802 0.959 . S
C814 C812 1.561 . S
C815 C812 1.526 . S
C815 C816 1.396 . S
C815 C820 1.390 . S
C816 C810 1.465 . S
C816 C815 1.396 . S
C816 C817 1.399 . S
C817 H803 0.929 . S
C817 C816 1.399 . S
C817 C818 1.385 . S
C818 H804 0.931 . S
C818 C817 1.385 . S
C818 C819 1.389 . S
C819 C818 1.389 . S
C819 C820 1.387 . S
C820 H805 0.930 . S
C820 C815 1.390 . S
C820 C819 1.387 . S
H821 C833 0.930 . S
H822 C835 0.930 . S
H823 C836 0.930 . S
H824 C840 0.959 . S
H825 C840 0.959 . S
H826 C840 0.961 . S
H827 C841 0.960 . S
H828 C841 0.961 . S
H829 C841 0.959 . S
H830 C844 0.929 . S
H831 C845 0.931 . S
H832 C847 0.930 . S
C833 H821 0.930 . S
C833 C834 1.399 . S
C833 C838 1.399 . S
C834 C833 1.399 . S
C834 C835 1.376 . S
C835 H822 0.930 . S
C835 C834 1.376 . S
C835 C836 1.388 . S
C836 H823 0.930 . S
C836 C835 1.388 . S
C836 C837 1.390 . S
C837 C836 1.390 . S
C837 C838 1.394 . S
C837 C843 1.465 . S
C838 C833 1.399 . S
C838 C837 1.394 . S
C838 C839 1.516 . S
C839 C838 1.516 . S
C839 C840 1.502 . S
C839 C841 1.561 . S
C839 C842 1.526 . S
C840 H824 0.959 . S
C840 H825 0.959 . S
C840 H826 0.961 . S
C840 C839 1.502 . S
C841 H827 0.960 . S
C841 H828 0.961 . S
C841 H829 0.959 . S
C841 C839 1.561 . S
C842 C839 1.526 . S
C842 C843 1.396 . S
C842 C847 1.390 . S
C843 C837 1.465 . S
C843 C842 1.396 . S
C843 C844 1.399 . S
C844 H830 0.929 . S
C844 C843 1.399 . S
C844 C845 1.385 . S
C845 H831 0.931 . S
C845 C844 1.385 . S
C845 C846 1.389 . S
C846 C845 1.389 . S
C846 C847 1.387 . S
C847 H832 0.930 . S
C847 C842 1.390 . S
C847 C846 1.387 . S
H848 C860 0.930 . S
H849 C862 0.930 . S
H850 C863 0.930 . S
H851 C867 0.959 . S
H852 C867 0.959 . S
H853 C867 0.961 . S
H854 C868 0.960 . S
H855 C868 0.961 . S
H856 C868 0.959 . S
H857 C871 0.929 . S
H858 C872 0.931 . S
H859 C874 0.930 . S
C860 H848 0.930 . S
C860 C861 1.399 . S
C860 C865 1.399 . S
C861 C860 1.399 . S
C861 C862 1.376 . S
C862 H849 0.930 . S
C862 C861 1.376 . S
C862 C863 1.388 . S
C863 H850 0.930 . S
C863 C862 1.388 . S
C863 C864 1.390 . S
C864 C863 1.390 . S
C864 C865 1.394 . S
C864 C870 1.465 . S
C865 C860 1.399 . S
C865 C864 1.394 . S
C865 C866 1.516 . S
C866 C865 1.516 . S
C866 C867 1.502 . S
C866 C868 1.561 . S
C866 C869 1.526 . S
C867 H851 0.959 . S
C867 H852 0.959 . S
C867 H853 0.961 . S
C867 C866 1.502 . S
C868 H854 0.960 . S
C868 H855 0.961 . S
C868 H856 0.959 . S
C868 C866 1.561 . S
C869 C866 1.526 . S
C869 C870 1.396 . S
C869 C874 1.390 . S
C870 C864 1.465 . S
C870 C869 1.396 . S
C870 C871 1.399 . S
C871 H857 0.929 . S
C871 C870 1.399 . S
C871 C872 1.385 . S
C872 H858 0.931 . S
C872 C871 1.385 . S
C872 C873 1.389 . S
C873 C872 1.389 . S
C873 C874 1.387 . S
C874 H859 0.930 . S
C874 C869 1.390 . S
C874 C873 1.387 . S
H875 C887 0.930 . S
H876 C889 0.930 . S
H877 C890 0.930 . S
H878 C894 0.959 . S
H879 C894 0.959 . S
H880 C894 0.961 . S
H881 C895 0.960 . S
H882 C895 0.961 . S
H883 C895 0.959 . S
H884 C898 0.929 . S
H885 C899 0.931 . S
H886 C901 0.930 . S
C887 H875 0.930 . S
C887 C888 1.399 . S
C887 C892 1.399 . S
C888 C887 1.399 . S
C888 C889 1.376 . S
C889 H876 0.930 . S
C889 C888 1.376 . S
C889 C890 1.388 . S
C890 H877 0.930 . S
C890 C889 1.388 . S
C890 C891 1.390 . S
C891 C890 1.390 . S
C891 C892 1.394 . S
C891 C897 1.465 . S
C892 C887 1.399 . S
C892 C891 1.394 . S
C892 C893 1.516 . S
C893 C892 1.516 . S
C893 C894 1.502 . S
C893 C895 1.561 . S
C893 C896 1.526 . S
C894 H878 0.959 . S
C894 H879 0.959 . S
C894 H880 0.961 . S
C894 C893 1.502 . S
C895 H881 0.960 . S
C895 H882 0.961 . S
C895 H883 0.959 . S
C895 C893 1.561 . S
C896 C893 1.526 . S
C896 C897 1.396 . S
C896 C901 1.390 . S
C897 C891 1.465 . S
C897 C896 1.396 . S
C897 C898 1.399 . S
C898 H884 0.929 . S
C898 C897 1.399 . S
C898 C899 1.385 . S
C899 H885 0.931 . S
C899 C898 1.385 . S
C899 C900 1.389 . S
C900 C899 1.389 . S
C900 C901 1.387 . S
C901 H886 0.930 . S
C901 C896 1.390 . S
C901 C900 1.387 . S
H902 C914 0.930 . S
H903 C916 0.930 . S
H904 C917 0.930 . S
H905 C921 0.959 . S
H906 C921 0.959 . S
H907 C921 0.961 . S
H908 C922 0.960 . S
H909 C922 0.961 . S
H910 C922 0.959 . S
H911 C925 0.929 . S
H912 C926 0.931 . S
H913 C928 0.930 . S
C914 H902 0.930 . S
C914 C915 1.399 . S
C914 C919 1.399 . S
C915 C914 1.399 . S
C915 C916 1.376 . S
C916 H903 0.930 . S
C916 C915 1.376 . S
C916 C917 1.388 . S
C917 H904 0.930 . S
C917 C916 1.388 . S
C917 C918 1.390 . S
C918 C917 1.390 . S
C918 C919 1.394 . S
C918 C924 1.465 . S
C919 C914 1.399 . S
C919 C918 1.394 . S
C919 C920 1.516 . S
C920 C919 1.516 . S
C920 C921 1.502 . S
C920 C922 1.561 . S
C920 C923 1.526 . S
C921 H905 0.959 . S
C921 H906 0.959 . S
C921 H907 0.961 . S
C921 C920 1.502 . S
C922 H908 0.960 . S
C922 H909 0.961 . S
C922 H910 0.959 . S
C922 C920 1.561 . S
C923 C920 1.526 . S
C923 C924 1.396 . S
C923 C928 1.390 . S
C924 C918 1.465 . S
C924 C923 1.396 . S
C924 C925 1.399 . S
C925 H911 0.929 . S
C925 C924 1.399 . S
C925 C926 1.385 . S
C926 H912 0.931 . S
C926 C925 1.385 . S
C926 C927 1.389 . S
C927 C926 1.389 . S
C927 C928 1.387 . S
C928 H913 0.930 . S
C928 C923 1.390 . S
C928 C927 1.387 . S
H929 C941 0.930 . S
H930 C943 0.930 . S
H931 C944 0.930 . S
H932 C948 0.959 . S
H933 C948 0.959 . S
H934 C948 0.961 . S
H935 C949 0.960 . S
H936 C949 0.961 . S
H937 C949 0.959 . S
H938 C952 0.929 . S
H939 C953 0.931 . S
H940 C955 0.930 . S
C941 H929 0.930 . S
C941 C942 1.399 . S
C941 C946 1.399 . S
C942 C941 1.399 . S
C942 C943 1.376 . S
C943 H930 0.930 . S
C943 C942 1.376 . S
C943 C944 1.388 . S
C944 H931 0.930 . S
C944 C943 1.388 . S
C944 C945 1.390 . S
C945 C944 1.390 . S
C945 C946 1.394 . S
C945 C951 1.465 . S
C946 C941 1.399 . S
C946 C945 1.394 . S
C946 C947 1.516 . S
C947 C946 1.516 . S
C947 C948 1.502 . S
C947 C949 1.561 . S
C947 C950 1.526 . S
C948 H932 0.959 . S
C948 H933 0.959 . S
C948 H934 0.961 . S
C948 C947 1.502 . S
C949 H935 0.960 . S
C949 H936 0.961 . S
C949 H937 0.959 . S
C949 C947 1.561 . S
C950 C947 1.526 . S
C950 C951 1.396 . S
C950 C955 1.390 . S
C951 C945 1.465 . S
C951 C950 1.396 . S
C951 C952 1.399 . S
C952 H938 0.929 . S
C952 C951 1.399 . S
C952 C953 1.385 . S
C953 H939 0.931 . S
C953 C952 1.385 . S
C953 C954 1.389 . S
C954 C953 1.389 . S
C954 C955 1.387 . S
C955 H940 0.930 . S
C955 C950 1.390 . S
C955 C954 1.387 . S
H956 C968 0.930 . S
H957 C970 0.930 . S
H958 C971 0.930 . S
H959 C975 0.959 . S
H960 C975 0.959 . S
H961 C975 0.961 . S
H962 C976 0.960 . S
H963 C976 0.961 . S
H964 C976 0.959 . S
H965 C979 0.929 . S
H966 C980 0.931 . S
H967 C982 0.930 . S
C968 H956 0.930 . S
C968 C969 1.399 . S
C968 C973 1.399 . S
C969 C968 1.399 . S
C969 C970 1.376 . S
C970 H957 0.930 . S
C970 C969 1.376 . S
C970 C971 1.388 . S
C971 H958 0.930 . S
C971 C970 1.388 . S
C971 C972 1.390 . S
C972 C971 1.390 . S
C972 C973 1.394 . S
C972 C978 1.465 . S
C973 C968 1.399 . S
C973 C972 1.394 . S
C973 C974 1.516 . S
C974 C973 1.516 . S
C974 C975 1.502 . S
C974 C976 1.561 . S
C974 C977 1.526 . S
C975 H959 0.959 . S
C975 H960 0.959 . S
C975 H961 0.961 . S
C975 C974 1.502 . S
C976 H962 0.960 . S
C976 H963 0.961 . S
C976 H964 0.959 . S
C976 C974 1.561 . S
C977 C974 1.526 . S
C977 C978 1.396 . S
C977 C982 1.390 . S
C978 C972 1.465 . S
C978 C977 1.396 . S
C978 C979 1.399 . S
C979 H965 0.929 . S
C979 C978 1.399 . S
C979 C980 1.385 . S
C980 H966 0.931 . S
C980 C979 1.385 . S
C980 C981 1.389 . S
C981 C980 1.389 . S
C981 C982 1.387 . S
C982 H967 0.930 . S
C982 C977 1.390 . S
C982 C981 1.387 . S
H983 C995 0.930 . S
H984 C997 0.930 . S
H985 C998 0.930 . S
H986 C1002 0.959 . S
H987 C1002 0.959 . S
H988 C1002 0.961 . S
H989 C1003 0.960 . S
H990 C1003 0.961 . S
H991 C1003 0.959 . S
H992 C1006 0.929 . S
H993 C1007 0.931 . S
H994 C1009 0.930 . S
C995 H983 0.930 . S
C995 C996 1.399 . S
C995 C1000 1.399 . S
C996 C995 1.399 . S
C996 C997 1.376 . S
C997 H984 0.930 . S
C997 C996 1.376 . S
C997 C998 1.388 . S
C998 H985 0.930 . S
C998 C997 1.388 . S
C998 C999 1.390 . S
C999 C998 1.390 . S
C999 C1000 1.394 . S
C999 C1005 1.465 . S
C1000 C995 1.399 . S
C1000 C999 1.394 . S
C1000 C1001 1.516 . S
C1001 C1000 1.516 . S
C1001 C1002 1.502 . S
C1001 C1003 1.561 . S
C1001 C1004 1.526 . S
C1002 H986 0.959 . S
C1002 H987 0.959 . S
C1002 H988 0.961 . S
C1002 C1001 1.502 . S
C1003 H989 0.960 . S
C1003 H990 0.961 . S
C1003 H991 0.959 . S
C1003 C1001 1.561 . S
C1004 C1001 1.526 . S
C1004 C1005 1.396 . S
C1004 C1009 1.390 . S
C1005 C999 1.465 . S
C1005 C1004 1.396 . S
C1005 C1006 1.399 . S
C1006 H992 0.929 . S
C1006 C1005 1.399 . S
C1006 C1007 1.385 . S
C1007 H993 0.931 . S
C1007 C1006 1.385 . S
C1007 C1008 1.389 . S
C1008 C1007 1.389 . S
C1008 C1009 1.387 . S
C1009 H994 0.930 . S
C1009 C1004 1.390 . S
C1009 C1008 1.387 . S
H1010 C1022 0.930 . S
H1011 C1024 0.930 . S
H1012 C1025 0.930 . S
H1013 C1029 0.959 . S
H1014 C1029 0.959 . S
H1015 C1029 0.961 . S
H1016 C1030 0.960 . S
H1017 C1030 0.961 . S
H1018 C1030 0.959 . S
H1019 C1033 0.929 . S
H1020 C1034 0.931 . S
H1021 C1036 0.930 . S
C1022 H1010 0.930 . S
C1022 C1023 1.399 . S
C1022 C1027 1.399 . S
C1023 C1022 1.399 . S
C1023 C1024 1.376 . S
C1024 H1011 0.930 . S
C1024 C1023 1.376 . S
C1024 C1025 1.388 . S
C1025 H1012 0.930 . S
C1025 C1024 1.388 . S
C1025 C1026 1.390 . S
C1026 C1025 1.390 . S
C1026 C1027 1.394 . S
C1026 C1032 1.465 . S
C1027 C1022 1.399 . S
C1027 C1026 1.394 . S
C1027 C1028 1.516 . S
C1028 C1027 1.516 . S
C1028 C1029 1.502 . S
C1028 C1030 1.561 . S
C1028 C1031 1.526 . S
C1029 H1013 0.959 . S
C1029 H1014 0.959 . S
C1029 H1015 0.961 . S
C1029 C1028 1.502 . S
C1030 H1016 0.960 . S
C1030 H1017 0.961 . S
C1030 H1018 0.959 . S
C1030 C1028 1.561 . S
C1031 C1028 1.526 . S
C1031 C1032 1.396 . S
C1031 C1036 1.390 . S
C1032 C1026 1.465 . S
C1032 C1031 1.396 . S
C1032 C1033 1.399 . S
C1033 H1019 0.929 . S
C1033 C1032 1.399 . S
C1033 C1034 1.385 . S
C1034 H1020 0.931 . S
C1034 C1033 1.385 . S
C1034 C1035 1.389 . S
C1035 C1034 1.389 . S
C1035 C1036 1.387 . S
C1036 H1021 0.930 . S
C1036 C1031 1.390 . S
C1036 C1035 1.387 . S
H1037 C1049 0.930 . S
H1038 C1051 0.930 . S
H1039 C1052 0.930 . S
H1040 C1056 0.959 . S
H1041 C1056 0.959 . S
H1042 C1056 0.961 . S
H1043 C1057 0.960 . S
H1044 C1057 0.961 . S
H1045 C1057 0.959 . S
H1046 C1060 0.929 . S
H1047 C1061 0.931 . S
H1048 C1063 0.930 . S
C1049 H1037 0.930 . S
C1049 C1050 1.399 . S
C1049 C1054 1.399 . S
C1050 C1049 1.399 . S
C1050 C1051 1.376 . S
C1051 H1038 0.930 . S
C1051 C1050 1.376 . S
C1051 C1052 1.388 . S
C1052 H1039 0.930 . S
C1052 C1051 1.388 . S
C1052 C1053 1.390 . S
C1053 C1052 1.390 . S
C1053 C1054 1.394 . S
C1053 C1059 1.465 . S
C1054 C1049 1.399 . S
C1054 C1053 1.394 . S
C1054 C1055 1.516 . S
C1055 C1054 1.516 . S
C1055 C1056 1.502 . S
C1055 C1057 1.561 . S
C1055 C1058 1.526 . S
C1056 H1040 0.959 . S
C1056 H1041 0.959 . S
C1056 H1042 0.961 . S
C1056 C1055 1.502 . S
C1057 H1043 0.960 . S
C1057 H1044 0.961 . S
C1057 H1045 0.959 . S
C1057 C1055 1.561 . S
C1058 C1055 1.526 . S
C1058 C1059 1.396 . S
C1058 C1063 1.390 . S
C1059 C1053 1.465 . S
C1059 C1058 1.396 . S
C1059 C1060 1.399 . S
C1060 H1046 0.929 . S
C1060 C1059 1.399 . S
C1060 C1061 1.385 . S
C1061 H1047 0.931 . S
C1061 C1060 1.385 . S
C1061 C1062 1.389 . S
C1062 C1061 1.389 . S
C1062 C1063 1.387 . S
C1063 H1048 0.930 . S
C1063 C1058 1.390 . S
C1063 C1062 1.387 . S
C429 C29 1.206 . S
C441 C262 1.175 . S
C456 C49 0.914 . S
C468 C311 0.925 . S
C495 C346 2.501 . S
C483 C93 2.546 . S
C510 C119 2.318 . S
C522 C385 2.301 . S
C549 C306 2.269 . S
C537 C17 2.240 . S
C576 C265 0.768 . S
C564 C61 0.790 . S
C603 C395 1.849 . S
C591 C81 1.896 . S
C630 C354 1.645 . S
C618 C125 1.662 . S
C645 C23 1.560 . S
C657 C382 1.585 . S
C684 C314 2.320 . S
C672 C87 2.333 . S
C699 C113 2.330 . S
C711 C275 2.352 . S
C726 C55 0.763 . S
C738 C351 0.861 . S
C765 C271 1.178 . S
C753 C157 0.975 . S
C780 C189 0.921 . S
C792 C302 0.985 . S
C807 C221 2.476 . S
C819 C355 2.466 . S
C834 C253 2.384 . S
C846 C394 2.379 . S
C861 C145 2.078 . S
C873 C315 2.352 . S
C900 C274 0.711 . S
C888 C183 0.815 . S
C927 C386 1.902 . S
C915 C209 1.937 . S
C954 C345 1.603 . S
C942 C247 1.587 . S
C969 C151 1.507 . S
C981 C391 1.594 . S
C1008 C305 2.300 . S
C996 C215 2.324 . S
C1035 C266 2.334 . S
C1023 C241 2.305 . S
C1050 C177 0.796 . S
C1062 C342 0.819 . S
