# Generated by pormake.
# Topology pts, (4,4)-cn, num edge types: 1
# Building blocks:
#     Node 0, Type 0, BuildingBlock: NAHDIM_clean_linker_0, # of connection points: 4
#     Node 1, Type 0, BuildingBlock: NAHDIM_clean_linker_0, # of connection points: 4
#     Node 2, Type 1, BuildingBlock: AZAVOO_clean_sbu_0, # of connection points: 4
#     Node 3, Type 1, BuildingBlock: AZAVOO_clean_sbu_0, # of connection points: 4
#     Edge 4, Type (0, 1), BuildingBlock: ZUJKAS_clean_linker_0, # of connection points: 2
#     Edge 5, Type (0, 1), BuildingBlock: ZUJKAS_clean_linker_0, # of connection points: 2
#     Edge 6, Type (0, 1), BuildingBlock: ZUJKAS_clean_linker_0, # of connection points: 2
#     Edge 7, Type (0, 1), BuildingBlock: ZUJKAS_clean_linker_0, # of connection points: 2
#     Edge 8, Type (0, 1), BuildingBlock: ZUJKAS_clean_linker_0, # of connection points: 2
#     Edge 9, Type (0, 1), BuildingBlock: ZUJKAS_clean_linker_0, # of connection points: 2
#     Edge 10, Type (0, 1), BuildingBlock: ZUJKAS_clean_linker_0, # of connection points: 2
#     Edge 11, Type (0, 1), BuildingBlock: ZUJKAS_clean_linker_0, # of connection points: 2
# Relax obj value: 0.016
# Max RMSD: 0.067
# Mean RMSD: 0.062
data_MOF--net-pts--node1-AZAVOO_clean_sbu_0--node2-NAHDIM_clean_linker_0--edge1-ZUJKAS_clean_linker_0
_symmetry_space_group_name_H-M    P1
_symmetry_Int_Tables_number       1
_symmetry_cell_setting            triclinic
loop_
_symmetry_equiv_pos_as_xyz
'x, y, z'
_cell_length_a     38.640218
_cell_length_b     39.347575
_cell_length_c     64.360848
_cell_angle_alpha  90.29727
_cell_angle_beta   95.513767
_cell_angle_gamma 89.945
loop_
_atom_site_label
_atom_site_type_symbol
_atom_site_fract_x
_atom_site_fract_y
_atom_site_fract_z
_atom_type_partial_charge
C0 C 0.73472 0.07274 0.08949 0.0
C1 C 0.72386 0.05272 0.10819 0.0
C2 C 0.67394 0.0199 0.09191 0.0
C3 C 0.66365 0.98794 0.08405 0.0
C4 C 0.63091 0.98298 0.07302 0.0
C5 C 0.60779 0.01078 0.06988 0.0
C6 C 0.61746 0.04297 0.07841 0.0
C7 C 0.65044 0.04726 0.08933 0.0
C8 C 0.62136 0.94825 0.06423 0.0
C9 C 0.59325 0.07304 0.07547 0.0
C10 C 0.33607 0.92492 0.07051 0.0
C11 C 0.35806 0.95499 0.07918 0.0
C12 C 0.42134 0.95607 0.07965 0.0
C13 C 0.42586 0.99088 0.07612 0.0
C14 C 0.45658 0.00293 0.06875 0.0
C15 C 0.48299 0.97958 0.06457 0.0
C16 C 0.47914 0.94472 0.06916 0.0
C17 C 0.44846 0.93352 0.07694 0.0
C18 C 0.46042 0.04045 0.06485 0.0
C19 C 0.50693 0.91916 0.06521 0.0
C20 C 0.41148 0.99175 0.92513 0.0
C21 C 0.4207 0.02454 0.93198 0.0
C22 C 0.45066 0.03046 0.94563 0.0
C23 C 0.4722 0.0028 0.95241 0.0
C24 C 0.46284 0.96942 0.94579 0.0
C25 C 0.4323 0.96416 0.93249 0.0
C26 C 0.45944 0.06633 0.95266 0.0
C27 C 0.48529 0.93932 0.95264 0.0
C28 C 0.73402 0.09042 0.95469 0.0
C29 C 0.71861 0.06302 0.93961 0.0
C30 C 0.65579 0.05967 0.94066 0.0
C31 C 0.62961 0.08262 0.9446 0.0
C32 C 0.59985 0.07179 0.95357 0.0
C33 C 0.59591 0.03694 0.95815 0.0
C34 C 0.62154 0.01331 0.95316 0.0
C35 C 0.65132 0.02496 0.94449 0.0
C36 C 0.57292 0.09764 0.9585 0.0
C37 C 0.61763 0.97584 0.95722 0.0
C38 C 0.57451 0.00664 0.05651 0.0
C39 C 0.54497 0.99659 0.06586 0.0
C40 C 0.51327 0.99109 0.0539 0.0
C41 C 0.51085 0.99561 0.03199 0.0
C42 C 0.47954 0.98972 0.01943 0.0
C43 C 0.47738 0.99433 0.99793 0.0
C44 C 0.50655 0.00455 0.98808 0.0
C45 C 0.50474 0.00887 0.96619 0.0
C46 C 0.53426 0.01921 0.95692 0.0
C47 C 0.56572 0.02548 0.96893 0.0
C48 C 0.56805 0.02117 0.99082 0.0
C49 C 0.59931 0.02723 0.00337 0.0
C50 C 0.60151 0.02244 0.02485 0.0
C51 C 0.57243 0.01181 0.03469 0.0
C52 C 0.54053 0.0061 0.02239 0.0
C53 C 0.53837 0.0106 0.00041 0.0
C54 C 0.39404 0.94828 0.8843 0.0
C55 C 0.37044 0.95877 0.90115 0.0
O56 O 0.70676 0.02307 0.10152 0.0
O57 O 0.68465 0.0717 0.93273 0.0
O58 O 0.38272 0.98817 0.9113 0.0
O59 O 0.39124 0.94337 0.08563 0.0
H60 H 0.70639 0.06871 0.11695 0.0
H61 H 0.71157 0.0807 0.07912 0.0
H62 H 0.75154 0.05696 0.0802 0.0
H63 H 0.74918 0.09603 0.09494 0.0
H64 H 0.68177 0.96693 0.08623 0.0
H65 H 0.65764 0.07212 0.09551 0.0
H66 H 0.59659 0.93974 0.06992 0.0
H67 H 0.64178 0.929 0.06861 0.0
H68 H 0.61721 0.94958 0.04694 0.0
H69 H 0.60378 0.09598 0.08401 0.0
H70 H 0.56769 0.06664 0.08097 0.0
H71 H 0.58871 0.07914 0.05861 0.0
H72 H 0.35875 0.97356 0.0662 0.0
H73 H 0.30943 0.9335 0.06482 0.0
H74 H 0.33425 0.90529 0.08272 0.0
H75 H 0.34812 0.91325 0.0572 0.0
H76 H 0.40539 0.0086 0.07906 0.0
H77 H 0.44491 0.9068 0.08014 0.0
H78 H 0.48647 0.04942 0.07142 0.0
H79 H 0.44018 0.05571 0.07178 0.0
H80 H 0.45823 0.0451 0.04778 0.0
H81 H 0.49925 0.89276 0.06872 0.0
H82 H 0.53126 0.92546 0.07507 0.0
H83 H 0.51268 0.92036 0.04865 0.0
H84 H 0.36952 0.9379 0.91269 0.0
H85 H 0.40438 0.04565 0.9264 0.0
H86 H 0.42523 0.93848 0.9278 0.0
H87 H 0.46474 0.06737 0.96992 0.0
H88 H 0.43822 0.0845 0.94777 0.0
H89 H 0.48338 0.07461 0.94589 0.0
H90 H 0.47601 0.91539 0.94475 0.0
H91 H 0.48535 0.93593 0.96975 0.0
H92 H 0.51255 0.94393 0.9493 0.0
H93 H 0.71954 0.0386 0.94829 0.0
H94 H 0.76125 0.08393 0.96046 0.0
H95 H 0.71855 0.09226 0.96834 0.0
H96 H 0.73367 0.11558 0.9469 0.0
H97 H 0.63308 0.10927 0.94118 0.0
H98 H 0.67086 0.00693 0.94055 0.0
H99 H 0.56853 0.09624 0.97528 0.0
H100 H 0.54786 0.0918 0.94928 0.0
H101 H 0.58067 0.12399 0.95492 0.0
H102 H 0.63804 0.96042 0.95058 0.0
H103 H 0.5917 0.96687 0.95044 0.0
H104 H 0.61927 0.97142 0.97431 0.0
H105 H 0.54675 0.99269 0.0826 0.0
H106 H 0.45626 0.98148 0.02605 0.0
H107 H 0.45254 0.98961 0.98912 0.0
H108 H 0.5327 0.02251 0.94012 0.0
H109 H 0.62253 0.03557 0.99673 0.0
H110 H 0.62634 0.02728 0.03364 0.0
H111 H 0.39614 0.96919 0.87295 0.0
H112 H 0.38337 0.92538 0.87578 0.0
H113 H 0.42059 0.942 0.8913 0.0
C114 C 0.10026 0.43059 0.64375 0.0
C115 C 0.07437 0.40852 0.63021 0.0
C116 C 0.07958 0.41845 0.59371 0.0
C117 C 0.04505 0.42063 0.585 0.0
C118 C 0.0359 0.44211 0.56803 0.0
C119 C 0.06188 0.46199 0.55984 0.0
C120 C 0.09711 0.45815 0.56782 0.0
C121 C 0.10558 0.43593 0.58455 0.0
C122 C 0.9982 0.44506 0.55966 0.0
C123 C 0.12542 0.47911 0.55959 0.0
C124 C 0.03928 0.72219 0.60854 0.0
C125 C 0.04824 0.69434 0.59436 0.0
C126 C 0.02541 0.64069 0.57963 0.0
C127 C 0.05281 0.63541 0.56709 0.0
C128 C 0.0543 0.60596 0.55489 0.0
C129 C 0.02721 0.58169 0.55467 0.0
C130 C 0.99891 0.58751 0.56664 0.0
C131 C 0.99854 0.61688 0.5791 0.0
C132 C 0.08547 0.60042 0.54277 0.0
C133 C 0.96941 0.56242 0.56658 0.0
C134 C 0.97675 0.62503 0.41994 0.0
C135 C 0.0113 0.62772 0.42878 0.0
C136 C 0.02768 0.6003 0.4396 0.0
C137 C 0.00888 0.56987 0.44183 0.0
C138 C 0.97464 0.56663 0.43205 0.0
C139 C 0.95918 0.59421 0.42098 0.0
C140 C 0.06475 0.60414 0.44907 0.0
C141 C 0.954 0.53442 0.43386 0.0
C142 C 0.16771 0.33846 0.43629 0.0
C143 C 0.13208 0.35142 0.42731 0.0
C144 C 0.11375 0.41037 0.43037 0.0
C145 C 0.12857 0.44183 0.43589 0.0
C146 C 0.10917 0.46738 0.44464 0.0
C147 C 0.07377 0.46144 0.4474 0.0
C148 C 0.05804 0.43031 0.4407 0.0
C149 C 0.07828 0.40494 0.43232 0.0
C150 C 0.1267 0.50046 0.45134 0.0
C151 C 0.02007 0.42373 0.44273 0.0
C152 C 0.05133 0.49068 0.54577 0.0
C153 C 0.0419 0.52085 0.55525 0.0
C154 C 0.03048 0.54901 0.54343 0.0
C155 C 0.02668 0.54665 0.52144 0.0
C156 C 0.01229 0.57341 0.5091 0.0
C157 C 0.01034 0.57155 0.48743 0.0
C158 C 0.02385 0.54335 0.47734 0.0
C159 C 0.02414 0.54217 0.45538 0.0
C160 C 0.03944 0.51458 0.44599 0.0
C161 C 0.05385 0.48757 0.45793 0.0
C162 C 0.05197 0.48733 0.47978 0.0
C163 C 0.06452 0.45973 0.49218 0.0
C164 C 0.06324 0.46019 0.51375 0.0
C165 C 0.05088 0.48889 0.5238 0.0
C166 C 0.03813 0.51696 0.51159 0.0
C167 C 0.03771 0.51574 0.48953 0.0
C168 C 0.92775 0.70128 0.41762 0.0
C169 C 0.96364 0.68547 0.41631 0.0
O170 O 0.08794 0.40091 0.61154 0.0
O171 O 0.13444 0.38585 0.42331 0.0
O172 O 0.95954 0.65166 0.41044 0.0
O173 O 0.02429 0.66801 0.59257 0.0
H174 H 0.04986 0.42346 0.62729 0.0
H175 H 0.10474 0.45474 0.63556 0.0
H176 H 0.12558 0.41728 0.64694 0.0
H177 H 0.08984 0.43685 0.65882 0.0
H178 H 0.02519 0.4063 0.59192 0.0
H179 H 0.13225 0.43368 0.59135 0.0
H180 H 0.98775 0.46978 0.56465 0.0
H181 H 0.98213 0.42434 0.5654 0.0
H182 H 0.99566 0.4445 0.54233 0.0
H183 H 0.15169 0.47197 0.56679 0.0
H184 H 0.12095 0.50643 0.56281 0.0
H185 H 0.12473 0.47594 0.54241 0.0
H186 H 0.07572 0.68542 0.59703 0.0
H187 H 0.06071 0.72213 0.6217 0.0
H188 H 0.01905 0.71169 0.61826 0.0
H189 H 0.02987 0.76383 0.58848 0.0
H190 H 0.07359 0.6538 0.56702 0.0
H191 H 0.97736 0.62125 0.58868 0.0
H192 H 0.07737 0.60249 0.52581 0.0
H193 H 0.09639 0.57458 0.54569 0.0
H194 H 0.10635 0.61935 0.54688 0.0
H195 H 0.9468 0.5732 0.5738 0.0
H196 H 0.97853 0.53951 0.5755 0.0
H197 H 0.9608 0.5542 0.55037 0.0
H198 H 0.97762 0.68755 0.43224 0.0
H199 H 0.02542 0.65121 0.42731 0.0
H200 H 0.93273 0.59228 0.41376 0.0
H201 H 0.06521 0.60576 0.46631 0.0
H202 H 0.07726 0.62732 0.44346 0.0
H203 H 0.08033 0.58158 0.44531 0.0
H204 H 0.92736 0.53627 0.42576 0.0
H205 H 0.95202 0.52862 0.45058 0.0
H206 H 0.96767 0.51283 0.42706 0.0
H207 H 0.11401 0.34676 0.43949 0.0
H208 H 0.16649 0.31083 0.43964 0.0
H209 H 0.17591 0.35206 0.45112 0.0
H210 H 0.18758 0.34288 0.42521 0.0
H211 H 0.15582 0.44587 0.43397 0.0
H212 H 0.06643 0.38097 0.42729 0.0
H213 H 0.12417 0.50523 0.46815 0.0
H214 H 0.11367 0.52174 0.44243 0.0
H215 H 0.15473 0.50059 0.44879 0.0
H216 H 0.01107 0.39936 0.43527 0.0
H217 H 0.00407 0.44479 0.43549 0.0
H218 H 0.01559 0.42294 0.4595 0.0
H219 H 0.04433 0.52272 0.57217 0.0
H220 H 0.00233 0.59604 0.51611 0.0
H221 H 0.99889 0.5929 0.47873 0.0
H222 H 0.04076 0.51445 0.42922 0.0
H223 H 0.07527 0.43737 0.48533 0.0
H224 H 0.07299 0.43822 0.52253 0.0
H225 H 0.91192 0.69972 0.40229 0.0
H226 H 0.9303 0.72837 0.42251 0.0
H227 H 0.91387 0.68751 0.42935 0.0
Mg228 Mg 0.09979 0.00479 0.27659 0.0
O229 O 0.0472 0.0023 0.25645 0.0
O230 O 0.00592 0.99788 0.27835 0.0
Mg231 Mg 0.0313 0.99738 0.31184 0.0
C232 C 0.01525 -0.00017 0.25989 0.0
C233 C 0.1595 0.01204 0.25005 0.0
O234 O 0.1727 0.99693 0.26717 0.0
O235 O 0.08873 0.05973 0.28533 0.0
O236 O 0.04893 0.0526 0.30793 0.0
O237 O 0.10382 0.94811 0.27667 0.0
O238 O 0.07921 0.97804 0.30034 0.0
C239 C 0.06854 0.07173 0.29816 0.0
C240 C 0.08685 0.94872 0.29306 0.0
O241 O 0.12763 0.02056 0.24858 0.0
Mg242 Mg 0.98678 0.02026 0.73977 0.0
O243 O 0.03849 0.00974 0.75985 0.0
O244 O 0.07915 0.00346 0.73761 0.0
Mg245 Mg 0.05443 0.00806 0.70412 0.0
C246 C 0.07002 0.00451 0.75616 0.0
C247 C 0.92757 0.033 0.76654 0.0
O248 O 0.91222 0.02229 0.7486 0.0
O249 O 0.00471 0.0744 0.7334 0.0
O250 O 0.04351 0.06415 0.71048 0.0
O251 O 0.9749 0.96456 0.73669 0.0
O252 O 0.00488 0.99353 0.71521 0.0
C253 C 0.02638 0.08473 0.72101 0.0
C254 C 0.99296 0.96483 0.72077 0.0
O255 O 0.96043 0.03644 0.7684 0.0
H256 H 0.30929 0.00547 0.07729 0.0
H257 H 0.27652 0.02708 0.10541 0.0
H258 H 0.3351 0.96137 0.14918 0.0
H259 H 0.3675 0.93934 0.12118 0.0
H260 H 0.23692 0.98145 0.12994 0.0
H261 H 0.33531 0.05702 0.17879 0.0
H262 H 0.33887 0.04789 0.15152 0.0
H263 H 0.34976 0.0159 0.17086 0.0
C264 C 0.31566 0.99625 0.09302 0.0
C265 C 0.34143 0.97127 0.09712 0.0
C266 C 0.29693 0.00854 0.10901 0.0
C267 C 0.30385 0.99621 0.12939 0.0
C268 C 0.32996 0.97174 0.13363 0.0
H269 H 0.22532 0.98896 0.24718 0.0
H270 H 0.25872 0.9907 0.21697 0.0
C271 C 0.34844 0.95919 0.11762 0.0
C272 C 0.28157 0.00616 0.14584 0.0
H273 H 0.28408 0.04159 0.19444 0.0
C274 C 0.24693 0.99511 0.14392 0.0
C275 C 0.29491 0.02387 0.164 0.0
C276 C 0.33168 0.03716 0.16644 0.0
C277 C 0.22572 -0.00044 0.16025 0.0
C278 C 0.23937 0.01639 0.17875 0.0
C279 C 0.27364 0.02873 0.18026 0.0
C280 C 0.21974 0.01839 0.19743 0.0
C281 C 0.18965 0.98443 0.15798 0.0
C282 C 0.18702 0.03417 0.19669 0.0
C283 C 0.16756 0.03286 0.21394 0.0
C284 C 0.18078 0.01616 0.23229 0.0
C285 C 0.21426 0.00187 0.23327 0.0
C286 C 0.23348 0.00293 0.21601 0.0
H287 H 0.18613 0.96595 0.14483 0.0
H288 H 0.18404 0.97131 0.17251 0.0
H289 H 0.17026 0.00504 0.15487 0.0
H290 H 0.17627 0.04696 0.18268 0.0
H291 H 0.14201 0.04443 0.21278 0.0
H292 H 0.01703 0.39359 0.65048 0.0
H293 H 0.00602 0.34265 0.67061 0.0
H294 H 0.10398 0.30042 0.65615 0.0
H295 H 0.11527 0.35144 0.6362 0.0
H296 H 0.00155 0.27492 0.65728 0.0
H297 H 0.1089 0.29271 0.71985 0.0
H298 H 0.09391 0.32633 0.70221 0.0
H299 H 0.12309 0.29426 0.69412 0.0
C300 C 0.03609 0.37332 0.65152 0.0
C301 C 0.06681 0.37624 0.64158 0.0
C302 C 0.02984 0.34436 0.66307 0.0
C303 C 0.05442 0.31805 0.66512 0.0
C304 C 0.08498 0.32075 0.65508 0.0
H305 H 0.07977 0.11554 0.7039 0.0
H306 H 0.0838 0.17471 0.69351 0.0
C307 C 0.09124 0.34968 0.64352 0.0
C308 C 0.04778 0.28725 0.67725 0.0
H309 H 0.08311 0.23727 0.71699 0.0
C310 C 0.019 0.26691 0.67056 0.0
C311 C 0.07047 0.27709 0.69466 0.0
C312 C 0.10063 0.29891 0.70329 0.0
C313 C 0.01347 0.2356 0.68006 0.0
C314 C 0.03712 0.22472 0.69686 0.0
C315 C 0.06504 0.24575 0.70411 0.0
C316 C 0.03564 0.18997 0.70539 0.0
C317 C 0.98351 0.21356 0.67138 0.0
C318 C 0.00768 0.17921 0.71613 0.0
C319 C 0.00528 0.1452 0.7222 0.0
C320 C 0.03076 0.12155 0.71747 0.0
C321 C 0.0595 0.13298 0.7076 0.0
C322 C 0.06194 0.16683 0.70169 0.0
H323 H 0.97061 0.2236 0.65649 0.0
H324 H 0.9926 0.18727 0.66864 0.0
H325 H 0.96388 0.21227 0.68285 0.0
H326 H 0.98734 0.19689 0.71936 0.0
H327 H 0.98286 0.13719 0.7298 0.0
H328 H 0.74796 0.08406 0.14492 0.0
H329 H 0.80076 0.07151 0.16772 0.0
H330 H 0.82554 0.99028 0.12639 0.0
H331 H 0.7724 0.00248 0.10362 0.0
H332 H 0.83319 0.97182 0.16819 0.0
H333 H 0.90049 0.0934 0.15634 0.0
H334 H 0.85768 0.0993 0.16439 0.0
H335 H 0.86291 0.07955 0.13961 0.0
C336 C 0.76456 0.0634 0.14078 0.0
C337 C 0.75582 0.04393 0.12267 0.0
C338 C 0.79487 0.05647 0.15369 0.0
C339 C 0.8173 0.03028 0.14858 0.0
C340 C 0.80861 0.01066 0.13057 0.0
H341 H 0.02294 0.00925 0.21827 0.0
H342 H 0.97684 0.01303 0.18944 0.0
C343 C 0.77826 0.01756 0.11764 0.0
C344 C 0.84939 0.02298 0.16237 0.0
H345 H 0.92333 0.05991 0.18548 0.0
C346 C 0.8531 0.99093 0.1718 0.0
C347 C 0.87568 0.0477 0.16675 0.0
C348 C 0.87425 0.0818 0.15608 0.0
C349 C 0.88161 0.98352 0.18627 0.0
C350 C 0.90671 0.00903 0.19167 0.0
C351 C 0.90386 0.04049 0.18149 0.0
C352 C 0.93487 0.0044 0.20875 0.0
C353 C 0.88447 0.94852 0.19575 0.0
C354 C 0.92654 0.99841 0.22914 0.0
C355 C 0.9527 0.99626 0.24561 0.0
C356 C 0.98785 0.00029 0.24208 0.0
C357 C 0.99619 0.00593 0.22156 0.0
C358 C 0.96989 0.00813 0.20506 0.0
H359 H 0.87013 0.92938 0.1855 0.0
H360 H 0.91204 0.94042 0.19866 0.0
H361 H 0.87291 0.94885 0.21088 0.0
H362 H 0.89966 0.99622 0.23242 0.0
H363 H 0.94523 0.99198 0.26117 0.0
H364 H 0.10381 0.74376 0.58442 0.0
H365 H 0.08915 0.79204 0.61648 0.0
H366 H 0.96253 0.76293 0.60765 0.0
H367 H 0.97354 0.71393 0.57507 0.0
H368 H 0.03338 0.84709 0.61396 0.0
H369 H 0.99624 0.7553 0.67364 0.0
H370 H 0.02506 0.74357 0.65431 0.0
H371 H 0.97956 0.74919 0.64676 0.0
C372 C 0.07743 0.7484 0.58803 0.0
C373 C 0.04111 0.7193 0.57907 0.0
C374 C 0.06835 0.77696 0.60869 0.0
C375 C 0.02494 0.78077 0.61654 0.0
C376 C 0.98843 0.75849 0.60318 0.0
H377 H 0.94723 0.91379 0.71006 0.0
H378 H 0.95462 0.86737 0.68522 0.0
C379 C 0.99469 0.72928 0.58223 0.0
C380 C 0.019 0.80557 0.63291 0.0
H381 H 0.99675 0.81332 0.68273 0.0
C382 C 0.0253 0.83981 0.629 0.0
C383 C 0.00814 0.79576 0.65231 0.0
C384 C 0.0019 0.75897 0.6572 0.0
C385 C 0.0207 0.86489 0.64401 0.0
C386 C 0.01103 0.85512 0.66382 0.0
C387 C 0.00436 0.82073 0.66761 0.0
C388 C 0.0078 0.8804 0.68068 0.0
C389 C 0.02548 0.90163 0.63825 0.0
C390 C 0.03573 0.902 0.68711 0.0
C391 C 0.03133 0.92873 0.70092 0.0
C392 C 0.99925 0.9337 0.70899 0.0
C393 C 0.97219 0.91043 0.70396 0.0
C394 C 0.97637 0.88403 0.68977 0.0
H395 H 0.0218 0.90529 0.62107 0.0
H396 H 0.00693 0.91843 0.64557 0.0
H397 H 0.05233 0.90974 0.6437 0.0
H398 H 0.06063 0.89884 0.68093 0.0
H399 H 0.05288 0.94577 0.70505 0.0
H400 H 0.31361 0.91657 0.90001 0.0
H401 H 0.25692 0.92358 0.87987 0.0
H402 H 0.28947 0.02077 0.85797 0.0
H403 H 0.34585 0.01421 0.87839 0.0
H404 H 0.22022 0.02053 0.86767 0.0
H405 H 0.24859 0.91172 0.81649 0.0
H406 H 0.2499 0.90202 0.84379 0.0
H407 H 0.28135 0.93069 0.83477 0.0
C408 C 0.30838 0.93971 0.89122 0.0
C409 C 0.33404 0.96496 0.89089 0.0
C410 C 0.27612 0.94357 0.87962 0.0
C411 C 0.26919 0.97248 0.86721 0.0
C412 C 0.29427 0.99829 0.86746 0.0
H413 H 0.14017 0.00142 0.75432 0.0
H414 H 0.18536 0.99343 0.78288 0.0
C415 C 0.32644 0.99453 0.87912 0.0
C416 C 0.23691 0.97502 0.85285 0.0
H417 H 0.1948 0.93915 0.8091 0.0
C418 C 0.21443 0.00263 0.85495 0.0
C419 C 0.2297 0.95177 0.83614 0.0
C420 C 0.25374 0.92253 0.83247 0.0
C421 C 0.18523 0.00798 0.84054 0.0
C422 C 0.17815 0.98478 0.8238 0.0
C423 C 0.2002 0.95677 0.82202 0.0
C424 C 0.14993 0.9905 0.80687 0.0
C425 C 0.1631 0.03913 0.84285 0.0
C426 C 0.11483 0.99149 0.81084 0.0
C427 C 0.08869 0.99629 0.79445 0.0
C428 C 0.09726 -0.00019 0.77379 0.0
C429 C 0.13249 0.99868 0.76997 0.0
C430 C 0.15845 0.99411 0.78631 0.0
H431 H 0.17613 0.05791 0.85393 0.0
H432 H 0.15678 0.05165 0.82753 0.0
H433 H 0.13831 0.0315 0.84887 0.0
H434 H 0.10761 0.98814 0.82655 0.0
H435 H 0.06183 0.99686 0.79793 0.0
H436 H 0.08349 0.30078 0.42224 0.0
H437 H 0.06955 0.26429 0.39167 0.0
H438 H 0.14034 0.32145 0.3575 0.0
H439 H 0.15455 0.35803 0.38816 0.0
H440 H 0.04574 0.27908 0.34742 0.0
H441 H 0.17817 0.22183 0.36015 0.0
H442 H 0.16004 0.24689 0.38002 0.0
H443 H 0.17499 0.26727 0.35767 0.0
C444 C 0.09556 0.30596 0.40808 0.0
C445 C 0.12003 0.33222 0.40753 0.0
C446 C 0.08755 0.28519 0.39064 0.0
C447 C 0.10411 0.29011 0.37243 0.0
C448 C 0.12746 0.3172 0.37148 0.0
H449 H 0.11067 0.12103 0.28386 0.0
H450 H 0.11712 0.17984 0.2963 0.0
C451 C 0.13545 0.33807 0.38893 0.0
C452 C 0.09915 0.26476 0.35538 0.0
H453 H 0.13833 0.19576 0.33555 0.0
C454 C 0.06611 0.26117 0.3445 0.0
C455 C 0.1259 0.24171 0.3515 0.0
C456 C 0.16178 0.24429 0.36296 0.0
C457 C 0.05867 0.2341 0.3305 0.0
C458 C 0.08472 0.2096 0.32778 0.0
C459 C 0.11835 0.2145 0.33765 0.0
C460 C 0.07677 0.17646 0.31731 0.0
C461 C 0.02276 0.23164 0.31912 0.0
C462 C 0.05161 0.15521 0.32473 0.0
C463 C 0.04781 0.12175 0.31766 0.0
C464 C 0.06945 0.10856 0.30319 0.0
C465 C 0.09363 0.13031 0.29505 0.0
C466 C 0.09733 0.16395 0.30212 0.0
H467 H 0.01132 0.2573 0.31623 0.0
H468 H 0.02308 0.21811 0.30396 0.0
H469 H 0.00554 0.2176 0.32894 0.0
H470 H 0.03609 0.16387 0.33687 0.0
H471 H 0.02886 0.10584 0.32428 0.0
H472 H 0.77143 0.01814 0.93474 0.0
H473 H 0.80871 0.0144 0.9061 0.0
H474 H 0.75214 0.09706 0.87485 0.0
H475 H 0.71543 0.10148 0.90371 0.0
H476 H 0.79183 0.00107 0.8648 0.0
H477 H 0.85202 0.12864 0.87501 0.0
H478 H 0.82729 0.1098 0.89438 0.0
H479 H 0.80539 0.12988 0.87174 0.0
C480 C 0.76688 0.03537 0.92169 0.0
C481 C 0.74016 0.05968 0.92127 0.0
C482 C 0.78821 0.03329 0.90539 0.0
C483 C 0.78348 0.05572 0.88847 0.0
C484 C 0.75669 0.07992 0.88794 0.0
H485 H 0.8572 0.02857 0.76692 0.0
H486 H 0.82325 0.03441 0.79682 0.0
C487 C 0.73546 0.08214 0.9043 0.0
C488 C 0.80611 0.05325 0.87117 0.0
H489 H 0.86177 0.09858 0.84383 0.0
C490 C 0.80724 0.02234 0.86028 0.0
C491 C 0.82664 0.08086 0.86551 0.0
C492 C 0.82812 0.11407 0.8774 0.0
C493 C 0.82772 0.01852 0.84356 0.0
C494 C 0.84705 0.04658 0.83731 0.0
C495 C 0.8466 0.07724 0.84851 0.0
C496 C 0.86766 0.04459 0.81908 0.0
C497 C 0.82879 0.98433 0.83289 0.0
C498 C 0.90378 0.04963 0.82155 0.0
C499 C 0.92333 0.04656 0.80442 0.0
C500 C 0.907 0.03854 0.78452 0.0
C501 C 0.87066 0.0345 0.78205 0.0
C502 C 0.8512 0.03763 0.79914 0.0
H503 H 0.82061 0.96356 0.84298 0.0
H504 H 0.81067 0.98455 0.81843 0.0
H505 H 0.85529 0.9786 0.82852 0.0
H506 H 0.91693 0.05527 0.83681 0.0
H507 H 0.95125 0.0499 0.80684 0.0
H508 H 0.95696 0.68034 0.37337 0.0
H509 H 0.98322 0.7168 0.3484 0.0
H510 H 0.03798 0.77211 0.39946 0.0
H511 H 0.0123 0.73539 0.42439 0.0
H512 H 0.97251 0.78478 0.34567 0.0
H513 H 0.11365 0.75974 0.36043 0.0
H514 H 0.08128 0.73158 0.36931 0.0
H515 H 0.09415 0.76933 0.38397 0.0
C516 C 0.97536 0.69968 0.3792 0.0
C517 C 0.98309 0.70471 0.4008 0.0
C518 C 0.99025 0.72052 0.36496 0.0
C519 C 0.01304 0.74678 0.37206 0.0
C520 C 0.02127 0.75141 0.3936 0.0
H521 H 0.05151 0.94275 0.32758 0.0
H522 H 0.03368 0.89077 0.34399 0.0
C523 C 0.00645 0.73056 0.40784 0.0
C524 C 0.02505 0.77177 0.35718 0.0
H525 H 0.09727 0.81278 0.34345 0.0
C526 C 0.99982 0.79045 0.3449 0.0
C527 C 0.0607 0.779 0.35605 0.0
C528 C 0.08901 0.7586 0.36799 0.0
C529 C 0.0092 0.81737 0.33242 0.0
C530 C 0.04466 0.82597 0.33236 0.0
C531 C 0.07006 0.80621 0.34371 0.0
C532 C 0.05545 0.85708 0.322 0.0
C533 C 0.9811 0.83705 0.31978 0.0
C534 C 0.07394 0.85523 0.30432 0.0
C535 C 0.08388 0.88504 0.29469 0.0
C536 C 0.07576 0.91706 0.30278 0.0
C537 C 0.05764 0.91862 0.32069 0.0
C538 C 0.04751 0.88892 0.33015 0.0
H539 H 0.95633 0.82258 0.31759 0.0
H540 H 0.97617 0.86115 0.32803 0.0
H541 H 0.98931 0.84355 0.30421 0.0
H542 H 0.08045 0.83079 0.29792 0.0
H543 H 0.09805 0.88299 0.28102 0.0
loop_
_geom_bond_atom_site_label_1
_geom_bond_atom_site_label_2
_geom_bond_distance
_geom_bond_site_symmetry_2
_ccdc_geom_bond_type
C0 C1 1.560 . S
C0 H61 0.959 . S
C0 H62 0.959 . S
C0 H63 0.960 . S
C1 C0 1.560 . S
C1 O56 1.426 . S
C1 H60 0.980 . S
C2 C3 1.407 1_545 S
C2 C7 1.418 . S
C2 O56 1.334 . S
C3 C2 1.407 1_565 S
C3 C4 1.360 . S
C3 H64 0.929 . S
C4 C3 1.360 . S
C4 C5 1.401 1_565 S
C4 C8 1.527 . S
C5 C4 1.401 1_545 S
C5 C6 1.405 . S
C5 C38 1.587 1_545 S
C6 C5 1.405 . S
C6 C7 1.332 . S
C6 C9 1.496 . S
C7 C2 1.418 . S
C7 C6 1.332 . S
C7 H65 0.929 . S
C8 C4 1.527 . S
C8 H66 0.959 . S
C8 H67 0.961 . S
C8 H68 0.961 . S
C9 C6 1.496 . S
C9 H69 0.960 . S
C9 H70 0.960 . S
C9 H71 0.961 . S
C10 C11 1.517 . S
C10 H73 0.961 1_565 S
C10 H74 0.960 . S
C10 H75 0.959 . S
C11 C10 1.517 . S
C11 O59 1.468 . S
C11 H72 0.980 1_565 S
C12 C13 1.349 1_565 S
C12 C17 1.367 . S
C12 O59 1.408 . S
C13 C12 1.349 1_545 S
C13 C14 1.407 . S
C13 H76 0.930 . S
C14 C13 1.407 . S
C14 C15 1.449 1_545 S
C14 C18 1.535 . S
C15 C14 1.449 1_565 S
C15 C16 1.384 . S
C15 C40 1.553 . S
C16 C15 1.384 . S
C16 C17 1.364 . S
C16 C19 1.450 . S
C17 C12 1.367 . S
C17 C16 1.364 . S
C17 H77 0.931 . S
C18 C14 1.535 . S
C18 H78 0.959 . S
C18 H79 0.961 . S
C18 H80 0.959 . S
C19 C16 1.450 . S
C19 H81 0.960 . S
C19 H82 0.960 . S
C19 H83 0.960 . S
C20 C21 1.309 1_565 S
C20 C25 1.304 . S
C20 O58 1.435 . S
C21 C20 1.309 1_545 S
C21 C22 1.476 . S
C21 H85 0.930 . S
C22 C21 1.476 . S
C22 C23 1.400 1_545 S
C22 C26 1.567 . S
C23 C22 1.400 1_565 S
C23 C24 1.373 . S
C23 C45 1.432 . S
C24 C23 1.373 . S
C24 C25 1.339 . S
C24 C27 1.530 . S
C25 C20 1.304 . S
C25 C24 1.339 . S
C25 H86 0.930 . S
C26 C22 1.567 . S
C26 H87 0.961 . S
C26 H88 0.960 . S
C26 H89 0.958 . S
C27 C24 1.530 . S
C27 H90 0.961 . S
C27 H91 0.960 . S
C27 H92 0.960 . S
C28 C29 1.530 . S
C28 H94 0.961 . S
C28 H95 0.961 . S
C28 H96 0.959 . S
C29 C28 1.530 . S
C29 O57 1.412 . S
C29 H93 0.980 . S
C30 C31 1.288 . S
C30 C35 1.377 1_545 S
C30 O57 1.393 . S
C31 C30 1.288 . S
C31 C32 1.369 . S
C31 H97 0.932 . S
C32 C31 1.369 . S
C32 C33 1.398 . S
C32 C36 1.527 . S
C33 C32 1.398 . S
C33 C34 1.380 1_545 S
C33 C47 1.497 . S
C34 C33 1.380 1_565 S
C34 C35 1.383 . S
C34 C37 1.603 . S
C35 C30 1.377 1_565 S
C35 C34 1.383 . S
C35 H98 0.929 . S
C36 C32 1.527 . S
C36 H99 0.961 . S
C36 H100 0.959 . S
C36 H101 0.959 . S
C37 C34 1.603 . S
C37 H102 0.960 . S
C37 H103 0.962 . S
C37 H104 0.961 . S
C38 C5 1.587 1_565 S
C38 C39 1.360 . S
C38 C51 1.412 . S
C39 C38 1.360 . S
C39 C40 1.365 . S
C39 H105 0.929 . S
C40 C15 1.553 . S
C40 C39 1.365 . S
C40 C41 1.404 . S
C41 C40 1.404 . S
C41 C42 1.395 . S
C41 C52 1.451 . S
C42 C41 1.395 . S
C42 C43 1.353 . S
C42 H106 0.930 . S
C43 C42 1.353 . S
C43 C44 1.440 1_554 S
C43 H107 0.918 1_554 S
C44 C43 1.440 1_556 S
C44 C45 1.445 . S
C44 C53 1.395 . S
C45 C23 1.432 . S
C45 C44 1.445 . S
C45 C46 1.370 . S
C46 C45 1.370 . S
C46 C47 1.438 1_565 S
C46 H108 0.931 . S
C47 C33 1.497 . S
C47 C46 1.438 1_545 S
C47 C48 1.359 1_545 S
C48 C47 1.359 1_565 S
C48 C49 1.420 1_565 S
C48 C53 1.447 . S
C49 C48 1.420 1_545 S
C49 C50 1.303 1_556 S
C49 H109 0.955 . S
C50 C49 1.303 1_554 S
C50 C51 1.455 1_545 S
C50 H110 0.930 . S
C51 C38 1.412 . S
C51 C50 1.455 1_565 S
C51 C52 1.331 . S
C52 C41 1.451 . S
C52 C51 1.331 . S
C52 C53 1.497 1_554 S
C53 C44 1.395 . S
C53 C48 1.447 . S
C53 C52 1.497 1_556 S
C54 C55 1.582 1_565 S
C54 H111 0.962 . S
C54 H112 0.959 . S
C54 H113 0.958 . S
C55 C54 1.582 1_545 S
C55 O58 1.458 1_545 S
C55 H84 0.980 . S
O56 C1 1.426 . S
O56 C2 1.334 . S
O57 C29 1.412 . S
O57 C30 1.393 . S
O58 C20 1.435 . S
O58 C55 1.458 1_565 S
O59 C11 1.468 . S
O59 C12 1.408 . S
H60 C1 0.980 . S
H61 C0 0.959 . S
H62 C0 0.959 . S
H63 C0 0.960 . S
H64 C3 0.929 . S
H65 C7 0.929 . S
H66 C8 0.959 . S
H67 C8 0.961 . S
H68 C8 0.961 . S
H69 C9 0.960 . S
H70 C9 0.960 . S
H71 C9 0.961 . S
H72 C11 0.980 1_545 S
H73 C10 0.961 1_545 S
H74 C10 0.960 . S
H75 C10 0.959 . S
H76 C13 0.930 . S
H77 C17 0.931 . S
H78 C18 0.959 . S
H79 C18 0.961 . S
H80 C18 0.959 . S
H81 C19 0.960 . S
H82 C19 0.960 . S
H83 C19 0.960 . S
H84 C55 0.980 . S
H85 C21 0.930 . S
H86 C25 0.930 . S
H87 C26 0.961 . S
H88 C26 0.960 . S
H89 C26 0.958 . S
H90 C27 0.961 . S
H91 C27 0.960 . S
H92 C27 0.960 . S
H93 C29 0.980 . S
H94 C28 0.961 . S
H95 C28 0.961 . S
H96 C28 0.959 . S
H97 C31 0.932 . S
H98 C35 0.929 . S
H99 C36 0.961 . S
H100 C36 0.959 . S
H101 C36 0.959 . S
H102 C37 0.960 . S
H103 C37 0.962 . S
H104 C37 0.961 . S
H105 C39 0.929 . S
H106 C42 0.930 . S
H107 C43 0.918 1_556 S
H108 C46 0.931 . S
H109 C49 0.955 . S
H110 C50 0.930 . S
H111 C54 0.962 . S
H112 C54 0.959 . S
H113 C54 0.958 . S
C114 C115 1.560 . S
C114 H175 0.959 . S
C114 H176 0.959 . S
C114 H177 0.960 . S
C115 C114 1.560 . S
C115 O170 1.426 . S
C115 H174 0.980 . S
C116 C117 1.407 . S
C116 C121 1.418 . S
C116 O170 1.334 . S
C117 C116 1.407 . S
C117 C118 1.360 . S
C117 H178 0.929 . S
C118 C117 1.360 . S
C118 C119 1.401 . S
C118 C122 1.527 1_455 S
C119 C118 1.401 . S
C119 C120 1.405 . S
C119 C152 1.587 . S
C120 C119 1.405 . S
C120 C121 1.332 . S
C120 C123 1.496 . S
C121 C116 1.418 . S
C121 C120 1.332 . S
C121 H179 0.929 . S
C122 C118 1.527 1_655 S
C122 H180 0.959 . S
C122 H181 0.961 . S
C122 H182 0.961 . S
C123 C120 1.496 . S
C123 H183 0.960 . S
C123 H184 0.960 . S
C123 H185 0.961 . S
C124 C125 1.517 . S
C124 H187 0.961 . S
C124 H188 0.960 1_455 S
C124 H189 0.959 . S
C125 C124 1.517 . S
C125 O173 1.468 1_455 S
C125 H186 0.980 . S
C126 C127 1.349 1_655 S
C126 C131 1.367 . S
C126 O173 1.408 . S
C127 C126 1.349 1_455 S
C127 C128 1.407 . S
C127 H190 0.930 . S
C128 C127 1.407 . S
C128 C129 1.449 . S
C128 C132 1.535 . S
C129 C128 1.449 . S
C129 C130 1.384 1_455 S
C129 C154 1.553 . S
C130 C129 1.384 1_655 S
C130 C131 1.364 . S
C130 C133 1.450 . S
C131 C126 1.367 . S
C131 C130 1.364 . S
C131 H191 0.931 . S
C132 C128 1.535 . S
C132 H192 0.959 . S
C132 H193 0.961 . S
C132 H194 0.959 . S
C133 C130 1.450 . S
C133 H195 0.960 . S
C133 H196 0.960 . S
C133 H197 0.960 . S
C134 C135 1.309 . S
C134 C139 1.304 . S
C134 O172 1.435 . S
C135 C134 1.309 . S
C135 C136 1.476 . S
C135 H199 0.930 . S
C136 C135 1.476 . S
C136 C137 1.400 . S
C136 C140 1.567 . S
C137 C136 1.400 . S
C137 C138 1.373 . S
C137 C159 1.432 . S
C138 C137 1.373 . S
C138 C139 1.339 . S
C138 C141 1.530 1_455 S
C139 C134 1.304 . S
C139 C138 1.339 . S
C139 H200 0.930 1_455 S
C140 C136 1.567 . S
C140 H201 0.961 . S
C140 H202 0.960 . S
C140 H203 0.958 . S
C141 C138 1.530 1_655 S
C141 H204 0.961 . S
C141 H205 0.960 . S
C141 H206 0.960 . S
C142 C143 1.530 . S
C142 H208 0.961 . S
C142 H209 0.961 . S
C142 H210 0.959 . S
C143 C142 1.530 . S
C143 O171 1.412 . S
C143 H207 0.980 . S
C144 C145 1.288 . S
C144 C149 1.377 . S
C144 O171 1.393 . S
C145 C144 1.288 . S
C145 C146 1.369 . S
C145 H211 0.932 . S
C146 C145 1.369 . S
C146 C147 1.398 . S
C146 C150 1.527 . S
C147 C146 1.398 . S
C147 C148 1.380 . S
C147 C161 1.497 . S
C148 C147 1.380 . S
C148 C149 1.383 . S
C148 C151 1.603 1_455 S
C149 C144 1.377 . S
C149 C148 1.383 . S
C149 H212 0.929 . S
C150 C146 1.527 . S
C150 H213 0.961 . S
C150 H214 0.959 . S
C150 H215 0.959 . S
C151 C148 1.603 1_655 S
C151 H216 0.960 . S
C151 H217 0.962 . S
C151 H218 0.961 . S
C152 C119 1.587 . S
C152 C153 1.360 . S
C152 C165 1.412 . S
C153 C152 1.360 . S
C153 C154 1.365 . S
C153 H219 0.929 . S
C154 C129 1.553 . S
C154 C153 1.365 . S
C154 C155 1.404 . S
C155 C154 1.404 . S
C155 C156 1.395 . S
C155 C166 1.451 . S
C156 C155 1.395 . S
C156 C157 1.322 . S
C156 H220 0.930 . S
C157 C156 1.322 . S
C157 C158 1.459 . S
C157 H221 0.929 . S
C158 C157 1.459 . S
C158 C159 1.445 . S
C158 C167 1.395 . S
C159 C137 1.432 . S
C159 C158 1.445 . S
C159 C160 1.370 . S
C160 C159 1.370 . S
C160 C161 1.438 . S
C160 H222 0.930 . S
C161 C147 1.497 . S
C161 C160 1.438 . S
C161 C162 1.360 . S
C162 C161 1.360 . S
C162 C163 1.401 . S
C162 C167 1.446 . S
C163 C162 1.401 . S
C163 C164 1.347 . S
C163 H223 0.929 . S
C164 C163 1.347 . S
C164 C165 1.455 . S
C164 H224 0.930 . S
C165 C152 1.412 . S
C165 C164 1.455 . S
C165 C166 1.331 . S
C166 C155 1.451 . S
C166 C165 1.331 . S
C166 C167 1.497 . S
C167 C158 1.395 . S
C167 C162 1.446 . S
C167 C166 1.497 . S
C168 C169 1.582 . S
C168 H225 0.962 . S
C168 H226 0.959 . S
C168 H227 0.958 . S
C169 C168 1.582 . S
C169 O172 1.458 . S
C169 H198 0.980 . S
O170 C115 1.426 . S
O170 C116 1.334 . S
O171 C143 1.412 . S
O171 C144 1.393 . S
O172 C134 1.435 . S
O172 C169 1.458 . S
O173 C125 1.468 1_655 S
O173 C126 1.408 . S
H174 C115 0.980 . S
H175 C114 0.959 . S
H176 C114 0.959 . S
H177 C114 0.960 . S
H178 C117 0.929 . S
H179 C121 0.929 . S
H180 C122 0.959 . S
H181 C122 0.961 . S
H182 C122 0.961 . S
H183 C123 0.960 . S
H184 C123 0.960 . S
H185 C123 0.961 . S
H186 C125 0.980 . S
H187 C124 0.961 . S
H188 C124 0.960 1_655 S
H189 C124 0.959 . S
H190 C127 0.930 . S
H191 C131 0.931 . S
H192 C132 0.959 . S
H193 C132 0.961 . S
H194 C132 0.959 . S
H195 C133 0.960 . S
H196 C133 0.960 . S
H197 C133 0.960 . S
H198 C169 0.980 . S
H199 C135 0.930 . S
H200 C139 0.930 1_655 S
H201 C140 0.961 . S
H202 C140 0.960 . S
H203 C140 0.958 . S
H204 C141 0.961 . S
H205 C141 0.960 . S
H206 C141 0.960 . S
H207 C143 0.980 . S
H208 C142 0.961 . S
H209 C142 0.961 . S
H210 C142 0.959 . S
H211 C145 0.932 . S
H212 C149 0.929 . S
H213 C150 0.961 . S
H214 C150 0.959 . S
H215 C150 0.959 . S
H216 C151 0.960 . S
H217 C151 0.962 . S
H218 C151 0.961 . S
H219 C153 0.929 . S
H220 C156 0.930 . S
H221 C157 0.929 . S
H222 C160 0.930 . S
H223 C163 0.929 . S
H224 C164 0.930 . S
H225 C168 0.962 . S
H226 C168 0.959 . S
H227 C168 0.958 . S
Mg228 O229 2.028 . S
Mg228 O235 1.986 . S
Mg228 O237 2.114 1_545 S
Mg228 O238 2.262 . S
Mg228 O241 2.010 . S
O229 Mg228 2.028 . S
O229 C232 1.250 . S
O230 Mg231 2.028 . S
O230 C232 1.248 . S
Mg231 O230 2.028 . S
Mg231 O236 2.032 . S
Mg231 O238 2.092 . S
C232 O229 1.250 . S
C232 O230 1.248 . S
C233 O234 1.264 . S
C233 O241 1.249 . S
O234 C233 1.264 . S
O235 Mg228 1.986 . S
O235 C239 1.246 . S
O236 Mg231 2.032 . S
O236 C239 1.259 . S
O237 Mg228 2.114 1_565 S
O237 C240 1.252 . S
O238 Mg228 2.262 . S
O238 Mg231 2.092 . S
O238 C240 1.252 1_545 S
C239 O235 1.246 . S
C239 O236 1.259 . S
C240 O237 1.252 . S
C240 O238 1.252 1_565 S
O241 Mg228 2.010 . S
O241 C233 1.249 . S
Mg242 O243 2.028 1_655 S
Mg242 O249 1.986 1_655 S
Mg242 O251 2.114 1_545 S
Mg242 O252 2.251 1_645 S
Mg242 O255 2.010 . S
O243 Mg242 2.028 1_455 S
O243 C246 1.250 . S
O244 Mg245 2.028 . S
O244 C246 1.248 . S
Mg245 O244 2.028 . S
Mg245 O250 2.032 . S
Mg245 O252 2.079 1_545 S
C246 O243 1.250 . S
C246 O244 1.248 . S
C247 O248 1.264 . S
C247 O255 1.249 . S
O248 C247 1.264 . S
O249 Mg242 1.986 1_455 S
O249 C253 1.246 . S
O250 Mg245 2.032 . S
O250 C253 1.259 . S
O251 Mg242 2.114 1_565 S
O251 C254 1.252 1_655 S
O252 Mg242 2.251 1_465 S
O252 Mg245 2.079 1_565 S
O252 C254 1.273 . S
C253 O249 1.246 . S
C253 O250 1.259 . S
C254 O251 1.252 1_455 S
C254 O252 1.273 . S
O255 Mg242 2.010 . S
O255 C247 1.249 . S
H256 C264 0.929 . S
H257 C266 0.930 . S
H258 C268 0.930 . S
H259 C271 0.929 . S
H260 C274 0.930 1_565 S
H261 C276 0.960 . S
H262 C276 0.960 . S
H263 C276 0.960 . S
C264 H256 0.929 . S
C264 C265 1.377 . S
C264 C266 1.384 . S
C265 C264 1.377 . S
C265 C271 1.390 1_545 S
C266 H257 0.930 . S
C266 C264 1.384 . S
C266 C267 1.372 . S
C267 C266 1.372 . S
C267 C268 1.400 1_545 S
C267 C272 1.490 . S
C268 H258 0.930 . S
C268 C267 1.400 1_565 S
C268 C271 1.386 . S
H269 C285 0.930 1_565 S
H270 C286 0.931 . S
C271 H259 0.929 . S
C271 C265 1.390 1_565 S
C271 C268 1.386 . S
C272 C267 1.490 . S
C272 C274 1.395 . S
C272 C275 1.403 . S
H273 C279 0.930 . S
C274 H260 0.930 1_545 S
C274 C272 1.395 . S
C274 C277 1.403 . S
C275 C272 1.403 . S
C275 C276 1.524 . S
C275 C279 1.400 . S
C276 H261 0.960 . S
C276 H262 0.960 . S
C276 H263 0.960 . S
C276 C275 1.524 . S
C277 C274 1.403 . S
C277 C278 1.392 . S
C277 C281 1.495 1_545 S
C278 C277 1.392 . S
C278 C279 1.385 . S
C278 C280 1.478 . S
C279 H273 0.930 . S
C279 C275 1.400 . S
C279 C278 1.385 . S
C280 C278 1.478 . S
C280 C282 1.381 . S
C280 C286 1.383 1_545 S
C281 C277 1.495 1_565 S
C281 H287 0.959 . S
C281 H288 0.961 . S
C281 H289 0.960 1_565 S
C282 C280 1.381 . S
C282 C283 1.394 . S
C282 H290 0.930 . S
C283 C282 1.394 . S
C283 C284 1.383 . S
C283 H291 0.929 . S
C284 C283 1.383 . S
C284 C285 1.377 . S
C285 H269 0.930 1_545 S
C285 C284 1.377 . S
C285 C286 1.379 1_545 S
C286 H270 0.931 . S
C286 C280 1.383 1_565 S
C286 C285 1.379 1_565 S
H287 C281 0.959 . S
H288 C281 0.961 . S
H289 C281 0.960 1_545 S
H290 C282 0.930 . S
H291 C283 0.929 . S
H292 C300 0.929 1_655 S
H293 C302 0.930 1_655 S
H294 C304 0.930 . S
H295 C307 0.929 . S
H296 C310 0.930 1_655 S
H297 C312 0.960 . S
H298 C312 0.960 . S
H299 C312 0.960 . S
C300 H292 0.929 1_455 S
C300 C301 1.377 . S
C300 C302 1.384 . S
C301 C300 1.377 . S
C301 C307 1.390 . S
C302 H293 0.930 1_455 S
C302 C300 1.384 . S
C302 C303 1.372 . S
C303 C302 1.372 . S
C303 C304 1.400 . S
C303 C308 1.490 . S
C304 H294 0.930 . S
C304 C303 1.400 . S
C304 C307 1.386 . S
H305 C321 0.930 . S
H306 C322 0.931 . S
C307 H295 0.929 . S
C307 C301 1.390 . S
C307 C304 1.386 . S
C308 C303 1.490 . S
C308 C310 1.395 . S
C308 C311 1.403 . S
H309 C315 0.930 . S
C310 H296 0.930 1_455 S
C310 C308 1.395 . S
C310 C313 1.403 1_455 S
C311 C308 1.403 . S
C311 C312 1.524 . S
C311 C315 1.400 . S
C312 H297 0.960 . S
C312 H298 0.960 . S
C312 H299 0.960 . S
C312 C311 1.524 . S
C313 C310 1.403 1_655 S
C313 C314 1.392 1_655 S
C313 C317 1.495 . S
C314 C313 1.392 1_455 S
C314 C315 1.385 . S
C314 C316 1.478 . S
C315 H309 0.930 . S
C315 C311 1.400 . S
C315 C314 1.385 . S
C316 C314 1.478 . S
C316 C318 1.381 1_455 S
C316 C322 1.383 . S
C317 C313 1.495 . S
C317 H323 0.959 . S
C317 H324 0.961 . S
C317 H325 0.960 . S
C318 C316 1.381 1_655 S
C318 C319 1.394 . S
C318 H326 0.930 . S
C319 C318 1.394 . S
C319 C320 1.383 1_655 S
C319 H327 0.929 . S
C320 C319 1.383 1_455 S
C320 C321 1.377 . S
C321 H305 0.930 . S
C321 C320 1.377 . S
C321 C322 1.379 . S
C322 H306 0.931 . S
C322 C316 1.383 . S
C322 C321 1.379 . S
H323 C317 0.959 . S
H324 C317 0.961 . S
H325 C317 0.960 . S
H326 C318 0.930 . S
H327 C319 0.929 . S
H328 C336 0.929 . S
H329 C338 0.930 . S
H330 C340 0.930 . S
H331 C343 0.929 . S
H332 C346 0.929 1_565 S
H333 C348 0.960 . S
H334 C348 0.960 . S
H335 C348 0.960 . S
C336 H328 0.929 . S
C336 C337 1.377 . S
C336 C338 1.384 . S
C337 C336 1.377 . S
C337 C343 1.390 . S
C338 H329 0.930 . S
C338 C336 1.384 . S
C338 C339 1.372 . S
C339 C338 1.372 . S
C339 C340 1.400 . S
C339 C344 1.490 . S
C340 H330 0.930 . S
C340 C339 1.400 . S
C340 C343 1.386 . S
H341 C357 0.925 1_455 S
H342 C358 0.924 1_565 S
C343 H331 0.929 . S
C343 C337 1.390 . S
C343 C340 1.386 . S
C344 C339 1.490 . S
C344 C346 1.396 . S
C344 C347 1.403 . S
H345 C351 0.930 . S
C346 H332 0.929 1_545 S
C346 C344 1.396 . S
C346 C349 1.403 1_545 S
C347 C344 1.403 . S
C347 C348 1.524 . S
C347 C351 1.400 . S
C348 H333 0.960 . S
C348 H334 0.960 . S
C348 H335 0.960 . S
C348 C347 1.524 . S
C349 C346 1.403 1_565 S
C349 C350 1.392 1_565 S
C349 C353 1.495 . S
C350 C349 1.392 1_545 S
C350 C351 1.385 . S
C350 C352 1.478 . S
C351 H345 0.930 . S
C351 C347 1.400 . S
C351 C350 1.385 . S
C352 C350 1.478 . S
C352 C354 1.381 . S
C352 C358 1.383 . S
C353 C349 1.495 . S
C353 H359 0.959 . S
C353 H360 0.961 . S
C353 H361 0.960 . S
C354 C352 1.381 . S
C354 C355 1.394 . S
C354 H362 0.930 . S
C355 C354 1.394 . S
C355 C356 1.367 1_655 S
C355 H363 0.929 . S
C356 C355 1.367 1_455 S
C356 C357 1.379 1_455 S
C357 H341 0.925 1_655 S
C357 C356 1.379 1_655 S
C357 C358 1.384 . S
C358 H342 0.924 1_545 S
C358 C352 1.383 . S
C358 C357 1.384 . S
H359 C353 0.959 . S
H360 C353 0.961 . S
H361 C353 0.960 . S
H362 C354 0.930 . S
H363 C355 0.929 . S
H364 C372 0.929 . S
H365 C374 0.930 . S
H366 C376 0.932 1_655 S
H367 C379 0.919 1_655 S
H368 C382 0.930 . S
H369 C384 0.960 . S
H370 C384 0.960 . S
H371 C384 0.960 1_655 S
C372 H364 0.929 . S
C372 C373 1.377 . S
C372 C374 1.384 . S
C373 C372 1.377 . S
C373 C379 1.401 . S
C374 H365 0.930 . S
C374 C372 1.384 . S
C374 C375 1.372 . S
C375 C374 1.372 . S
C375 C376 1.398 . S
C375 C380 1.490 . S
C376 H366 0.932 1_455 S
C376 C375 1.398 . S
C376 C379 1.385 . S
H377 C393 0.930 . S
H378 C394 0.931 . S
C379 H367 0.919 1_455 S
C379 C373 1.401 . S
C379 C376 1.385 . S
C380 C375 1.490 . S
C380 C382 1.395 . S
C380 C383 1.403 . S
H381 C387 0.930 . S
C382 H368 0.930 . S
C382 C380 1.395 . S
C382 C385 1.403 . S
C383 C380 1.403 . S
C383 C384 1.524 . S
C383 C387 1.400 . S
C384 H369 0.960 . S
C384 H370 0.960 . S
C384 H371 0.960 1_455 S
C384 C383 1.524 . S
C385 C382 1.403 . S
C385 C386 1.392 . S
C385 C389 1.495 . S
C386 C385 1.392 . S
C386 C387 1.385 . S
C386 C388 1.478 . S
C387 H381 0.930 . S
C387 C383 1.400 . S
C387 C386 1.385 . S
C388 C386 1.478 . S
C388 C390 1.381 . S
C388 C394 1.383 1_455 S
C389 C385 1.495 . S
C389 H395 0.959 . S
C389 H396 0.961 . S
C389 H397 0.960 . S
C390 C388 1.381 . S
C390 C391 1.394 . S
C390 H398 0.930 . S
C391 C390 1.394 . S
C391 C392 1.383 . S
C391 H399 0.929 . S
C392 C391 1.383 . S
C392 C393 1.377 1_455 S
C393 H377 0.930 . S
C393 C392 1.377 1_655 S
C393 C394 1.379 . S
C394 H378 0.931 . S
C394 C388 1.383 1_655 S
C394 C393 1.379 . S
H395 C389 0.959 . S
H396 C389 0.961 . S
H397 C389 0.960 . S
H398 C390 0.930 . S
H399 C391 0.929 . S
H400 C408 0.929 . S
H401 C410 0.930 . S
H402 C412 0.930 . S
H403 C415 0.929 . S
H404 C418 0.930 . S
H405 C420 0.960 . S
H406 C420 0.960 . S
H407 C420 0.960 . S
C408 H400 0.929 . S
C408 C409 1.377 1_565 S
C408 C410 1.384 . S
C409 C408 1.377 1_545 S
C409 C415 1.390 . S
C410 H401 0.930 . S
C410 C408 1.384 . S
C410 C411 1.372 1_565 S
C411 C410 1.372 1_545 S
C411 C412 1.400 . S
C411 C416 1.490 . S
C412 H402 0.930 . S
C412 C411 1.400 . S
C412 C415 1.386 . S
H413 C429 0.930 . S
H414 C430 0.931 . S
C415 H403 0.929 . S
C415 C409 1.390 . S
C415 C412 1.386 . S
C416 C411 1.490 . S
C416 C418 1.395 . S
C416 C419 1.403 . S
H417 C423 0.930 . S
C418 H404 0.930 . S
C418 C416 1.395 . S
C418 C421 1.403 . S
C419 C416 1.403 . S
C419 C420 1.524 . S
C419 C423 1.400 . S
C420 H405 0.960 . S
C420 H406 0.960 . S
C420 H407 0.960 . S
C420 C419 1.524 . S
C421 C418 1.403 . S
C421 C422 1.392 . S
C421 C425 1.495 . S
C422 C421 1.392 . S
C422 C423 1.385 . S
C422 C424 1.478 . S
C423 H417 0.930 . S
C423 C419 1.400 . S
C423 C422 1.385 . S
C424 C422 1.478 . S
C424 C426 1.381 1_545 S
C424 C430 1.383 . S
C425 C421 1.495 . S
C425 H431 0.959 . S
C425 H432 0.961 . S
C425 H433 0.960 1_545 S
C426 C424 1.381 1_565 S
C426 C427 1.394 . S
C426 H434 0.930 . S
C427 C426 1.394 . S
C427 C428 1.383 1_565 S
C427 H435 0.929 . S
C428 C427 1.383 1_545 S
C428 C429 1.377 . S
C429 H413 0.930 . S
C429 C428 1.377 . S
C429 C430 1.379 . S
C430 H414 0.931 . S
C430 C424 1.383 . S
C430 C429 1.379 . S
H431 C425 0.959 . S
H432 C425 0.961 . S
H433 C425 0.960 1_565 S
H434 C426 0.930 . S
H435 C427 0.929 . S
H436 C444 0.929 . S
H437 C446 0.930 . S
H438 C448 0.930 . S
H439 C451 0.929 . S
H440 C454 0.930 . S
H441 C456 0.960 . S
H442 C456 0.960 . S
H443 C456 0.960 . S
C444 H436 0.929 . S
C444 C445 1.377 . S
C444 C446 1.384 . S
C445 C444 1.377 . S
C445 C451 1.390 . S
C446 H437 0.930 . S
C446 C444 1.384 . S
C446 C447 1.372 . S
C447 C446 1.372 . S
C447 C448 1.400 . S
C447 C452 1.490 . S
C448 H438 0.930 . S
C448 C447 1.400 . S
C448 C451 1.386 . S
H449 C465 0.930 . S
H450 C466 0.931 . S
C451 H439 0.929 . S
C451 C445 1.390 . S
C451 C448 1.386 . S
C452 C447 1.490 . S
C452 C454 1.395 . S
C452 C455 1.403 . S
H453 C459 0.930 . S
C454 H440 0.930 . S
C454 C452 1.395 . S
C454 C457 1.403 . S
C455 C452 1.403 . S
C455 C456 1.524 . S
C455 C459 1.400 . S
C456 H441 0.960 . S
C456 H442 0.960 . S
C456 H443 0.960 . S
C456 C455 1.524 . S
C457 C454 1.403 . S
C457 C458 1.392 . S
C457 C461 1.495 . S
C458 C457 1.392 . S
C458 C459 1.385 . S
C458 C460 1.478 . S
C459 H453 0.930 . S
C459 C455 1.400 . S
C459 C458 1.385 . S
C460 C458 1.478 . S
C460 C462 1.381 . S
C460 C466 1.383 . S
C461 C457 1.495 . S
C461 H467 0.959 1_455 S
C461 H468 0.961 1_455 S
C461 H469 0.960 . S
C462 C460 1.381 . S
C462 C463 1.394 . S
C462 H470 0.930 . S
C463 C462 1.394 . S
C463 C464 1.383 . S
C463 H471 0.929 . S
C464 C463 1.383 . S
C464 C465 1.377 . S
C465 H449 0.930 . S
C465 C464 1.377 . S
C465 C466 1.379 . S
C466 H450 0.931 . S
C466 C460 1.383 . S
C466 C465 1.379 . S
H467 C461 0.959 1_655 S
H468 C461 0.961 1_655 S
H469 C461 0.960 . S
H470 C462 0.930 . S
H471 C463 0.929 . S
H472 C480 0.929 . S
H473 C482 0.930 . S
H474 C484 0.930 . S
H475 C487 0.929 . S
H476 C490 0.930 . S
H477 C492 0.960 . S
H478 C492 0.960 . S
H479 C492 0.960 . S
C480 H472 0.929 . S
C480 C481 1.377 . S
C480 C482 1.384 . S
C481 C480 1.377 . S
C481 C487 1.390 . S
C482 H473 0.930 . S
C482 C480 1.384 . S
C482 C483 1.372 . S
C483 C482 1.372 . S
C483 C484 1.400 . S
C483 C488 1.490 . S
C484 H474 0.930 . S
C484 C483 1.400 . S
C484 C487 1.386 . S
H485 C501 0.930 . S
H486 C502 0.931 . S
C487 H475 0.929 . S
C487 C481 1.390 . S
C487 C484 1.386 . S
C488 C483 1.490 . S
C488 C490 1.395 1_545 S
C488 C491 1.403 . S
H489 C495 0.930 . S
C490 H476 0.930 . S
C490 C488 1.395 1_565 S
C490 C493 1.403 . S
C491 C488 1.403 . S
C491 C492 1.524 . S
C491 C495 1.400 . S
C492 H477 0.960 . S
C492 H478 0.960 . S
C492 H479 0.960 . S
C492 C491 1.524 . S
C493 C490 1.403 . S
C493 C494 1.392 1_565 S
C493 C497 1.495 . S
C494 C493 1.392 1_545 S
C494 C495 1.385 . S
C494 C496 1.478 . S
C495 H489 0.930 . S
C495 C491 1.400 . S
C495 C494 1.385 . S
C496 C494 1.478 . S
C496 C498 1.381 . S
C496 C502 1.383 . S
C497 C493 1.495 . S
C497 H503 0.959 . S
C497 H504 0.961 . S
C497 H505 0.960 . S
C498 C496 1.381 . S
C498 C499 1.394 . S
C498 H506 0.930 . S
C499 C498 1.394 . S
C499 C500 1.383 . S
C499 H507 0.929 . S
C500 C499 1.383 . S
C500 C501 1.377 . S
C501 H485 0.930 . S
C501 C500 1.377 . S
C501 C502 1.379 . S
C502 H486 0.931 . S
C502 C496 1.383 . S
C502 C501 1.379 . S
H503 C497 0.959 . S
H504 C497 0.961 . S
H505 C497 0.960 . S
H506 C498 0.930 . S
H507 C499 0.929 . S
H508 C516 0.929 . S
H509 C518 0.930 . S
H510 C520 0.930 . S
H511 C523 0.929 . S
H512 C526 0.930 . S
H513 C528 0.960 . S
H514 C528 0.960 . S
H515 C528 0.960 . S
C516 H508 0.929 . S
C516 C517 1.377 . S
C516 C518 1.384 . S
C517 C516 1.377 . S
C517 C523 1.390 . S
C518 H509 0.930 . S
C518 C516 1.384 . S
C518 C519 1.372 . S
C519 C518 1.372 . S
C519 C520 1.400 . S
C519 C524 1.490 . S
C520 H510 0.930 . S
C520 C519 1.400 . S
C520 C523 1.386 . S
H521 C537 0.930 . S
H522 C538 0.931 . S
C523 H511 0.929 . S
C523 C517 1.390 . S
C523 C520 1.386 . S
C524 C519 1.490 . S
C524 C526 1.395 . S
C524 C527 1.403 . S
H525 C531 0.930 . S
C526 H512 0.930 . S
C526 C524 1.395 . S
C526 C529 1.403 . S
C527 C524 1.403 . S
C527 C528 1.524 . S
C527 C531 1.400 . S
C528 H513 0.960 . S
C528 H514 0.960 . S
C528 H515 0.960 . S
C528 C527 1.524 . S
C529 C526 1.403 . S
C529 C530 1.392 . S
C529 C533 1.495 . S
C530 C529 1.392 . S
C530 C531 1.385 . S
C530 C532 1.478 . S
C531 H525 0.930 . S
C531 C527 1.400 . S
C531 C530 1.385 . S
C532 C530 1.478 . S
C532 C534 1.381 . S
C532 C538 1.383 . S
C533 C529 1.495 . S
C533 H539 0.959 . S
C533 H540 0.961 . S
C533 H541 0.960 . S
C534 C532 1.381 . S
C534 C535 1.394 . S
C534 H542 0.930 . S
C535 C534 1.394 . S
C535 C536 1.383 . S
C535 H543 0.929 . S
C536 C535 1.383 . S
C536 C537 1.377 . S
C537 H521 0.930 . S
C537 C536 1.377 . S
C537 C538 1.379 . S
C538 H522 0.931 . S
C538 C532 1.383 . S
C538 C537 1.379 . S
H539 C533 0.959 . S
H540 C533 0.961 . S
H541 C533 0.960 . S
H542 C534 0.930 . S
H543 C535 0.929 . S
C284 C233 1.315 . S
C265 C11 0.940 1_545 S
C320 C253 1.287 . S
C301 C115 1.043 . S
C356 C232 1.286 . S
C337 C1 1.037 . S
C392 C254 1.487 . S
C373 C125 0.929 . S
C428 C246 1.576 . S
C409 C55 1.173 . S
C464 C239 1.352 . S
C445 C143 1.103 . S
C500 C247 1.207 . S
C481 C29 1.096 . S
C517 C169 1.165 . S
C536 C240 1.592 . S
