# Generated by pormake.
# Topology ssa, (4,4)-cn, num edge types: 1
# Building blocks:
#     Node 0, Type 0, BuildingBlock: KOZSID_clean_sbu_0, # of connection points: 4
#     Node 1, Type 0, BuildingBlock: KOZSID_clean_sbu_0, # of connection points: 4
#     Node 2, Type 0, BuildingBlock: KOZSID_clean_sbu_0, # of connection points: 4
#     Node 3, Type 0, BuildingBlock: KOZSID_clean_sbu_0, # of connection points: 4
#     Node 4, Type 0, BuildingBlock: KOZSID_clean_sbu_0, # of connection points: 4
#     Node 5, Type 0, BuildingBlock: KOZSID_clean_sbu_0, # of connection points: 4
#     Node 6, Type 1, BuildingBlock: KUFVIS_clean_linker_0, # of connection points: 4
#     Node 7, Type 1, BuildingBlock: KUFVIS_clean_linker_0, # of connection points: 4
#     Node 8, Type 1, BuildingBlock: KUFVIS_clean_linker_0, # of connection points: 4
#     Node 9, Type 1, BuildingBlock: KUFVIS_clean_linker_0, # of connection points: 4
#     Node 10, Type 1, BuildingBlock: KUFVIS_clean_linker_0, # of connection points: 4
#     Node 11, Type 1, BuildingBlock: KUFVIS_clean_linker_0, # of connection points: 4
#     Edge 12, Type (0, 1), BuildingBlock: KIFKEQ_clean_linker_1, # of connection points: 2
#     Edge 13, Type (0, 1), BuildingBlock: KIFKEQ_clean_linker_1, # of connection points: 2
#     Edge 14, Type (0, 1), BuildingBlock: KIFKEQ_clean_linker_1, # of connection points: 2
#     Edge 15, Type (0, 1), BuildingBlock: KIFKEQ_clean_linker_1, # of connection points: 2
#     Edge 16, Type (0, 1), BuildingBlock: KIFKEQ_clean_linker_1, # of connection points: 2
#     Edge 17, Type (0, 1), BuildingBlock: KIFKEQ_clean_linker_1, # of connection points: 2
#     Edge 18, Type (0, 1), BuildingBlock: KIFKEQ_clean_linker_1, # of connection points: 2
#     Edge 19, Type (0, 1), BuildingBlock: KIFKEQ_clean_linker_1, # of connection points: 2
#     Edge 20, Type (0, 1), BuildingBlock: KIFKEQ_clean_linker_1, # of connection points: 2
#     Edge 21, Type (0, 1), BuildingBlock: KIFKEQ_clean_linker_1, # of connection points: 2
#     Edge 22, Type (0, 1), BuildingBlock: KIFKEQ_clean_linker_1, # of connection points: 2
#     Edge 23, Type (0, 1), BuildingBlock: KIFKEQ_clean_linker_1, # of connection points: 2
#     Edge 24, Type (0, 1), BuildingBlock: KIFKEQ_clean_linker_1, # of connection points: 2
#     Edge 25, Type (0, 1), BuildingBlock: KIFKEQ_clean_linker_1, # of connection points: 2
#     Edge 26, Type (0, 1), BuildingBlock: KIFKEQ_clean_linker_1, # of connection points: 2
#     Edge 27, Type (0, 1), BuildingBlock: KIFKEQ_clean_linker_1, # of connection points: 2
#     Edge 28, Type (0, 1), BuildingBlock: KIFKEQ_clean_linker_1, # of connection points: 2
#     Edge 29, Type (0, 1), BuildingBlock: KIFKEQ_clean_linker_1, # of connection points: 2
#     Edge 30, Type (0, 1), BuildingBlock: KIFKEQ_clean_linker_1, # of connection points: 2
#     Edge 31, Type (0, 1), BuildingBlock: KIFKEQ_clean_linker_1, # of connection points: 2
#     Edge 32, Type (0, 1), BuildingBlock: KIFKEQ_clean_linker_1, # of connection points: 2
#     Edge 33, Type (0, 1), BuildingBlock: KIFKEQ_clean_linker_1, # of connection points: 2
#     Edge 34, Type (0, 1), BuildingBlock: KIFKEQ_clean_linker_1, # of connection points: 2
#     Edge 35, Type (0, 1), BuildingBlock: KIFKEQ_clean_linker_1, # of connection points: 2
# Relax obj value: 0.004
# Max RMSD: 0.054
# Mean RMSD: 0.030
data_MOF--net-ssa--node1-KOZSID_clean_sbu_0--node2-KUFVIS_clean_linker_0--edge1-KIFKEQ_clean_linker_1
_symmetry_space_group_name_H-M    P1
_symmetry_Int_Tables_number       1
_symmetry_cell_setting            triclinic
loop_
_symmetry_equiv_pos_as_xyz
'x, y, z'
_cell_length_a     59.084561
_cell_length_b     60.485378
_cell_length_c     33.221986
_cell_angle_alpha  87.050995
_cell_angle_beta   89.994233
_cell_angle_gamma 122.30366
loop_
_atom_site_label
_atom_site_type_symbol
_atom_site_fract_x
_atom_site_fract_y
_atom_site_fract_z
_atom_type_partial_charge
C0 C 0.96329 0.51819 0.02013 0.0
C1 C 0.94517 0.51356 0.05097 0.0
C2 C 0.95038 0.50192 0.08279 0.0
C3 C 0.97138 0.50022 0.0697 0.0
N4 N 0.98011 0.51035 0.03155 0.0
Co5 Co 0.00987 0.51145 0.00047 0.0
N6 N 0.01543 0.49159 0.0455 0.0
C7 C 1.00055 0.48104 0.08015 0.0
C8 C 0.00955 0.46904 0.10571 0.0
C9 C 0.03176 0.47249 0.08654 0.0
C10 C 0.03511 0.48658 0.05036 0.0
N11 N 0.04037 0.51341 0.97008 0.0
C12 C 0.05816 0.50701 0.9826 0.0
C13 C 0.07776 0.51364 0.9531 0.0
C14 C 0.07245 0.52499 0.92101 0.0
C15 C 0.05009 0.52477 0.93277 0.0
N16 N 1.0037 0.53051 0.95483 0.0
C17 C 0.01705 0.53895 0.91871 0.0
C18 C 1.00735 0.5499 0.89241 0.0
C19 C 0.98618 0.54791 0.91262 0.0
C20 C 0.98427 0.53591 0.95033 0.0
N21 N 0.0362 0.54516 0.02407 0.0
C22 C 0.0765 0.59139 0.05802 0.0
C23 C 0.07376 0.5902 0.01631 0.0
C24 C 0.05374 0.567 6e-05 0.0
C25 C 0.0582 0.5694 0.08245 0.0
C26 C 0.03819 0.54683 0.06506 0.0
N27 N 0.98345 0.47768 0.97682 0.0
C28 C 0.96629 0.45096 0.91916 0.0
C29 C 0.94325 0.43191 0.94125 0.0
C30 C 0.94114 0.4358 0.9818 0.0
C31 C 0.96136 0.45845 0.9989 0.0
C32 C 0.98592 0.47348 0.93732 0.0
H33 H 0.95844 0.46006 0.02995 0.0
H34 H 1.00267 0.48742 0.91854 0.0
H35 H 0.05315 0.56708 0.96799 0.0
H36 H 0.02479 0.53086 0.08545 0.0
C37 C 0.98098 0.48628 0.09036 0.0
C38 C 0.96285 0.52888 0.97998 0.0
C39 C 0.05817 0.49614 0.02285 0.0
C40 C 0.03844 0.53606 0.91027 0.0
H41 H 0.92932 0.5175 0.05006 0.0
H42 H 0.9394 0.49453 0.11142 0.0
H43 H 1.00177 0.4601 0.13564 0.0
H44 H 0.04463 0.46622 0.09846 0.0
H45 H 0.09459 0.5112 0.95497 0.0
H46 H 0.08402 0.5332 0.89296 0.0
H47 H 0.01449 0.5579 0.86188 0.0
H48 H 0.97328 0.55411 0.90061 0.0
H49 H 0.0875 0.60684 0.99623 0.0
H50 H 0.05928 0.56963 0.11501 0.0
H51 H 0.96886 0.44892 0.88756 0.0
H52 H 0.92394 0.42137 0.00042 0.0
C53 C 0.55335 0.03645 0.56104 0.0
C54 C 0.55922 0.03441 0.601 0.0
C55 C 0.53689 0.01296 0.6187 0.0
C56 C 0.51877 1.00309 0.58865 0.0
N57 N 0.52836 0.01659 0.55255 0.0
Co58 Co 0.50829 0.00985 0.50131 0.0
N59 N 0.47438 0.98012 0.52843 0.0
C60 C 0.47091 0.97119 0.56753 0.0
C61 C 0.44587 0.94971 0.57696 0.0
C62 C 0.43265 0.94424 0.54162 0.0
C63 C 0.45047 0.96282 0.51259 0.0
N64 N 0.48812 1.00332 0.45017 0.0
C65 C 0.46286 0.98393 0.44189 0.0
C66 C 0.45689 0.9862 0.40208 0.0
C67 C 0.47936 0.00746 0.38431 0.0
C68 C 0.49766 0.01697 0.41418 0.0
N69 N 0.54227 0.03941 0.47409 0.0
C70 C 0.54591 0.04784 0.43471 0.0
C71 C 0.57088 0.06938 0.42523 0.0
C72 C 0.58387 0.0754 0.46076 0.0
C73 C 0.56602 0.05703 0.49001 0.0
N74 N 0.5182 0.9844 0.4868 0.0
C75 C 0.52855 0.94595 0.46448 0.0
C76 C 0.5313 0.96537 0.43645 0.0
C77 C 0.52617 0.98422 0.44814 0.0
C78 C 0.52106 0.94652 0.50416 0.0
C79 C 0.51613 0.96576 0.51458 0.0
N80 N 0.49849 0.03532 0.51586 0.0
C81 C 0.49944 0.07543 0.50052 0.0
C82 C 0.49075 0.07508 0.5398 0.0
C83 C 0.48493 0.05386 0.56635 0.0
C84 C 0.48888 0.03439 0.55388 0.0
C85 C 0.5029 0.05542 0.48918 0.0
H86 H 0.48464 0.01912 0.57588 0.0
H87 H 0.50967 0.05693 0.45888 0.0
H88 H 0.52838 0.99819 0.42512 0.0
H89 H 0.51039 0.96495 0.54524 0.0
C90 C 0.49207 0.98241 0.59402 0.0
C91 C 0.57175 0.05824 0.5329 0.0
C92 C 0.44431 0.96228 0.47001 0.0
C93 C 0.52457 0.03708 0.40851 0.0
H94 H 0.57753 0.04749 0.61604 0.0
H95 H 0.53391 0.00594 0.65006 0.0
H96 H 0.4384 0.9388 0.6058 0.0
H97 H 0.41244 0.92799 0.53742 0.0
H98 H 0.43843 0.97336 0.38719 0.0
H99 H 0.48232 0.01456 0.35298 0.0
H100 H 0.57831 0.08021 0.39633 0.0
H101 H 0.60386 0.09205 0.46483 0.0
H102 H 0.53674 0.96574 0.40518 0.0
H103 H 0.51907 0.93223 0.52726 0.0
H104 H 0.5037 0.09116 0.47856 0.0
H105 H 0.47823 0.05268 0.59718 0.0
C106 C 0.56408 0.53658 0.9531 0.0
C107 C 0.57596 0.55001 0.91644 0.0
C108 C 0.55753 0.55334 0.89705 0.0
C109 C 0.53557 0.54187 0.92293 0.0
N110 N 0.53907 0.53193 0.9581 0.0
Co111 Co 0.51175 0.5119 0.00306 0.0
N112 N 0.48328 0.51333 0.97219 0.0
C113 C 0.48596 0.52461 0.93479 0.0
C114 C 0.46329 0.52347 0.92215 0.0
C115 C 0.44514 0.51112 0.95359 0.0
C116 C 0.45787 0.50547 0.98373 0.0
N117 N 0.48435 0.49169 0.04794 0.0
C118 C 0.45874 0.48562 0.05209 0.0
C119 C 0.44703 0.47223 0.08888 0.0
C120 C 0.46596 0.47003 0.10888 0.0
C121 C 0.48809 0.48218 0.08336 0.0
N122 N 0.54026 0.51053 0.03393 0.0
C123 C 0.5378 0.49982 0.07168 0.0
C124 C 0.56027 0.50042 0.08392 0.0
C125 C 0.57798 0.51169 0.05177 0.0
C126 C 0.56524 0.51737 0.0217 0.0
N127 N 0.52172 0.54531 0.02739 0.0
C128 C 0.53221 0.59137 0.06271 0.0
C129 C 0.52999 0.5704 0.08619 0.0
C130 C 0.52488 0.54785 0.06811 0.0
C131 C 0.52971 0.58907 0.02107 0.0
C132 C 0.52459 0.56615 0.00422 0.0
N133 N 0.50202 0.47866 0.97871 0.0
C134 C 0.4977 0.43646 0.98406 0.0
C135 C 0.49679 0.4351 0.94217 0.0
C136 C 0.4969 0.45517 0.91918 0.0
C137 C 0.49927 0.47644 0.93791 0.0
C138 C 0.50023 0.45821 0.00156 0.0
H139 H 0.49951 0.49117 0.91862 0.0
H140 H 0.50149 0.4584 0.03354 0.0
H141 H 0.52315 0.53258 0.08786 0.0
H142 H 0.52275 0.56571 0.97241 0.0
C143 C 0.51057 0.53771 0.91345 0.0
C144 C 0.57675 0.52733 0.98105 0.0
C145 C 0.44532 0.49358 0.02331 0.0
C146 C 0.5132 0.4867 0.09298 0.0
H147 H 0.59559 0.55599 0.90444 0.0
H148 H 0.55946 0.56204 0.86694 0.0
H149 H 0.46056 0.5314 0.89394 0.0
H150 H 0.42501 0.50723 0.95466 0.0
H151 H 0.42712 0.46542 0.1006 0.0
H152 H 0.46411 0.46142 0.13902 0.0
H153 H 0.56297 0.49242 0.1121 0.0
H154 H 0.59763 0.51445 0.05013 0.0
H155 H 0.53147 0.57098 0.11866 0.0
H156 H 0.53171 0.60489 0.00137 0.0
H157 H 0.49748 0.4213 0.00322 0.0
H158 H 0.49542 0.45464 0.8867 0.0
C159 C 0.96132 0.45192 0.48566 0.0
C160 C 0.94261 0.43808 0.45698 0.0
C161 C 0.94815 0.45538 0.42479 0.0
C162 C 0.96991 0.47867 0.43554 0.0
N163 N 0.97881 0.47721 0.47249 0.0
Co164 Co 0.0096 0.50659 0.50021 0.0
N165 N 0.01553 0.53275 0.45516 0.0
C166 C 1.00046 0.52827 0.42232 0.0
C167 C 0.00981 0.54988 0.39616 0.0
C168 C 0.03244 0.56922 0.41298 0.0
C169 C 0.03562 0.55821 0.4485 0.0
N170 N 0.04108 0.53582 0.52716 0.0
C171 C 0.05926 0.56073 0.51296 0.0
C172 C 0.07934 0.57411 0.54008 0.0
C173 C 0.07398 0.55691 0.5723 0.0
C174 C 0.05107 0.5341 0.56298 0.0
N175 N 1.00304 0.48063 0.54599 0.0
C176 C 0.01682 0.48561 0.58036 0.0
C177 C 1.00668 0.46441 0.6075 0.0
C178 C 0.98478 0.44478 0.58979 0.0
C179 C 0.9829 0.45517 0.5526 0.0
N180 N 0.03464 0.49923 0.47272 0.0
C181 C 0.07272 0.49259 0.43333 0.0
C182 C 0.07038 0.49079 0.47533 0.0
C183 C 0.05151 0.49438 0.49428 0.0
C184 C 0.05526 0.49703 0.41135 0.0
C185 C 0.03629 0.49991 0.43145 0.0
N186 N 0.98443 0.51378 0.52779 0.0
C187 C 0.96786 0.52124 0.58898 0.0
C188 C 0.9447 0.51677 0.57015 0.0
C189 C 0.94258 0.51224 0.52909 0.0
C190 C 0.96255 0.511 0.50864 0.0
C191 C 0.9873 0.51976 0.56744 0.0
H192 H 0.95945 0.50707 0.47759 0.0
H193 H 1.0042 0.52298 0.58379 0.0
H194 H 0.05124 0.49353 0.52639 0.0
H195 H 0.02339 0.50295 0.41288 0.0
C196 C 0.98014 0.50281 0.41411 0.0
C197 C 0.96086 0.4405 0.52563 0.0
C198 C 0.059 0.57213 0.47335 0.0
C199 C 0.03899 0.51053 0.58646 0.0
H200 H 0.9262 0.41779 0.4596 0.0
H201 H 0.93691 0.45171 0.39756 0.0
H202 H 1.00194 0.55106 0.36726 0.0
H203 H 0.04567 0.58892 0.39987 0.0
H204 H 0.09641 0.59406 0.53648 0.0
H205 H 0.08579 0.56039 0.59887 0.0
H206 H 0.01401 0.46348 0.637 0.0
H207 H 0.97139 0.4252 0.60318 0.0
H208 H 0.08357 0.48737 0.4935 0.0
H209 H 0.05613 0.49816 0.37868 0.0
H210 H 0.97094 0.52564 0.62044 0.0
H211 H 0.92514 0.50872 0.51294 0.0
C212 C 0.46467 0.98309 0.06447 0.0
C213 C 0.45918 0.98556 0.10403 0.0
C214 C 0.48122 0.00782 0.11642 0.0
C215 C 0.49891 0.01752 0.08398 0.0
N216 N 0.48927 1.00323 0.0512 0.0
Co217 Co 0.50956 0.00847 0.99945 0.0
N218 N 0.54302 0.03959 0.01916 0.0
C219 C 0.54576 0.05074 0.05456 0.0
C220 C 0.57051 0.0729 0.05875 0.0
C221 C 0.58428 0.07646 0.02357 0.0
C222 C 0.56705 0.05614 0.99992 0.0
N223 N 0.53021 0.01266 0.94867 0.0
C224 C 0.55593 0.03091 0.93696 0.0
C225 C 0.56224 0.02651 0.89917 0.0
C226 C 0.53966 1.00488 0.88639 0.0
C227 C 0.52091 0.99728 0.91698 0.0
N228 N 0.47575 0.97826 0.97895 0.0
C229 C 0.47193 0.9693 0.94156 0.0
C230 C 0.44672 0.94789 0.93667 0.0
C231 C 0.43383 0.94261 0.97334 0.0
C232 C 0.45206 0.96111 0.99856 0.0
N233 N 0.49957 0.03302 0.976 0.0
C234 C 0.49172 0.07192 0.94135 0.0
C235 C 0.49335 0.0545 0.91742 0.0
C236 C 0.49686 0.03515 0.93522 0.0
C237 C 0.49277 0.0688 0.98307 0.0
C238 C 0.49681 0.04946 0.99963 0.0
N239 N 0.51951 0.98405 0.02285 0.0
C240 C 0.51605 0.94229 0.02368 0.0
C241 C 0.52829 0.94653 0.06096 0.0
C242 C 0.53725 0.97057 0.07766 0.0
C243 C 0.53254 0.98876 0.05848 0.0
C244 C 0.5122 0.96126 0.0051 0.0
H245 H 0.53921 0.00632 0.07344 0.0
H246 H 0.5027 0.95679 0.97677 0.0
H247 H 0.49779 0.02247 0.91516 0.0
H248 H 0.49818 0.04863 0.03156 0.0
C249 C 0.52494 0.03951 0.08363 0.0
C250 C 0.44665 0.96052 0.04152 0.0
C251 C 0.57432 0.05375 0.95915 0.0
C252 C 0.49367 0.97819 0.91462 0.0
H253 H 0.4414 0.97231 0.12245 0.0
H254 H 0.48431 0.01556 0.14597 0.0
H255 H 0.57763 0.0851 0.08425 0.0
H256 H 0.60463 0.09232 0.01598 0.0
H257 H 0.58094 0.03823 0.88197 0.0
H258 H 0.53689 0.99644 0.85747 0.0
H259 H 0.43918 0.93645 0.9104 0.0
H260 H 0.41372 0.92636 0.98119 0.0
H261 H 0.49205 0.05587 0.88495 0.0
H262 H 0.49146 0.08183 0.00277 0.0
H263 H 0.50869 0.9241 0.00926 0.0
H264 H 0.5477 0.97539 0.10574 0.0
C265 C 0.51691 0.56234 0.5222 0.0
C266 C 0.51325 0.57554 0.55188 0.0
C267 C 0.50144 0.55807 0.58441 0.0
C268 C 0.49872 0.53534 0.5728 0.0
N269 N 0.50857 0.53744 0.53513 0.0
Co270 Co 0.50806 0.50908 0.50576 0.0
N271 N 0.48525 0.48187 0.54958 0.0
C272 C 0.47502 0.4856 0.58313 0.0
C273 C 0.4604 0.46341 0.608 0.0
C274 C 0.46158 0.44442 0.58949 0.0
C275 C 0.47696 0.45617 0.5542 0.0
N276 N 0.50861 0.48092 0.47721 0.0
C277 C 0.49929 0.45567 0.48966 0.0
C278 C 0.5056 0.44329 0.46182 0.0
C279 C 0.51993 0.4615 0.43106 0.0
C280 C 0.52153 0.48386 0.44184 0.0
N281 N 0.5296 0.53607 0.46091 0.0
C282 C 0.53878 0.5322 0.42635 0.0
C283 C 0.55039 0.55353 0.39933 0.0
C284 C 0.54781 0.57193 0.41715 0.0
C285 C 0.53491 0.56077 0.45436 0.0
N286 N 0.5413 0.51656 0.53323 0.0
C287 C 0.58715 0.52358 0.57183 0.0
C288 C 0.58722 0.52745 0.53006 0.0
C289 C 0.56424 0.52369 0.51151 0.0
C290 C 0.56404 0.51682 0.59407 0.0
C291 C 0.54169 0.51375 0.57443 0.0
N292 N 0.47511 0.50183 0.47826 0.0
C293 C 0.4511 0.49533 0.41664 0.0
C294 C 0.433 0.50009 0.4353 0.0
C295 C 0.43537 0.50405 0.47659 0.0
C296 C 0.45628 0.50463 0.49738 0.0
C297 C 0.47175 0.49622 0.43847 0.0
H298 H 0.45733 0.5082 0.52867 0.0
H299 H 0.4852 0.493 0.42223 0.0
H300 H 0.56552 0.52635 0.47951 0.0
H301 H 0.52492 0.50888 0.59334 0.0
C302 C 0.48268 0.51081 0.59311 0.0
C303 C 0.52634 0.57351 0.48125 0.0
C304 C 0.48513 0.4428 0.52799 0.0
C305 C 0.53488 0.50785 0.4194 0.0
H306 H 0.51755 0.59536 0.54949 0.0
H307 H 0.49408 0.56106 0.61214 0.0
H308 H 0.45116 0.46157 0.63715 0.0
H309 H 0.45301 0.42447 0.60153 0.0
H310 H 0.50067 0.42325 0.46389 0.0
H311 H 0.52847 0.45886 0.40429 0.0
H312 H 0.55875 0.55514 0.36954 0.0
H313 H 0.55395 0.59103 0.40354 0.0
H314 H 0.6047 0.53269 0.5116 0.0
H315 H 0.56326 0.51406 0.62664 0.0
H316 H 0.44963 0.49128 0.38504 0.0
H317 H 0.42182 0.50768 0.4926 0.0
H318 H 0.33156 0.49625 0.20886 0.0
H319 H 0.27132 0.50144 0.27012 0.0
H320 H 0.26219 0.48102 0.14489 0.0
H321 H 0.23396 0.49452 0.14287 0.0
H322 H 0.16481 0.47923 0.21041 0.0
H323 H 0.22849 0.48085 0.27336 0.0
C324 C 0.3125 0.49494 0.20833 0.0
C325 C 0.29824 0.48884 0.17288 0.0
C326 C 0.3025 0.49892 0.2433 0.0
C327 C 0.27789 0.49726 0.24281 0.0
C328 C 0.26251 0.49079 0.20747 0.0
C329 C 0.27325 0.48664 0.17234 0.0
C330 C 0.23531 0.48777 0.20789 0.0
C331 C 0.22345 0.48981 0.17173 0.0
C332 C 0.19775 0.48604 0.17271 0.0
C333 C 0.18417 0.48116 0.20965 0.0
C334 C 0.19568 0.48015 0.24573 0.0
C335 C 0.22081 0.4829 0.24486 0.0
H336 H 0.68816 0.15785 0.73275 0.0
H337 H 0.75079 0.21946 0.79706 0.0
H338 H 0.74547 0.2292 0.66737 0.0
H339 H 0.7882 0.25796 0.6676 0.0
H340 H 0.84577 0.3233 0.73196 0.0
H341 H 0.77589 0.2615 0.79573 0.0
C342 C 0.70609 0.17737 0.73265 0.0
C343 C 0.71617 0.19218 0.6962 0.0
C344 C 0.71811 0.18743 0.76898 0.0
C345 C 0.74129 0.21276 0.76866 0.0
C346 C 0.75227 0.22855 0.73209 0.0
C347 C 0.73873 0.21791 0.69592 0.0
C348 C 0.77791 0.25548 0.73168 0.0
C349 C 0.79385 0.26757 0.69566 0.0
C350 C 0.81813 0.29206 0.69575 0.0
C351 C 0.82691 0.30453 0.73177 0.0
C352 C 0.81191 0.29331 0.76761 0.0
C353 C 0.78733 0.26917 0.76759 0.0
H354 H 0.52682 0.68515 0.2733 0.0
H355 H 0.54605 0.75749 0.21406 0.0
H356 H 0.52346 0.74121 0.34197 0.0
H357 H 0.53962 0.78218 0.34525 0.0
H358 H 0.54584 0.84848 0.28222 0.0
H359 H 0.53513 0.78575 0.21439 0.0
C360 C 0.5288 0.704 0.27478 0.0
C361 C 0.52489 0.71177 0.31163 0.0
C362 C 0.5359 0.7203 0.23986 0.0
C363 C 0.53943 0.74509 0.24154 0.0
C364 C 0.53479 0.7535 0.27816 0.0
C365 C 0.52757 0.73627 0.31327 0.0
C366 C 0.53752 0.7799 0.27953 0.0
C367 C 0.53968 0.79156 0.31669 0.0
C368 C 0.54228 0.81604 0.3174 0.0
C369 C 0.54388 0.82961 0.28131 0.0
C370 C 0.54198 0.81899 0.24426 0.0
C371 C 0.5379 0.7939 0.24345 0.0
H372 H 0.84713 0.52468 0.7915 0.0
H373 H 0.7938 0.5394 0.85453 0.0
H374 H 0.78069 0.51803 0.7297 0.0
H375 H 0.75896 0.53729 0.72614 0.0
H376 H 0.6976 0.53946 0.78995 0.0
H377 H 0.75109 0.52559 0.85696 0.0
C378 C 0.82935 0.52574 0.79179 0.0
C379 C 0.81491 0.52126 0.7568 0.0
C380 C 0.82159 0.5319 0.82699 0.0
C381 C 0.79878 0.53369 0.82725 0.0
C382 C 0.78337 0.52902 0.79214 0.0
C383 C 0.79186 0.52253 0.75701 0.0
C384 C 0.75912 0.53149 0.79173 0.0
C385 C 0.74936 0.53561 0.75478 0.0
C386 C 0.72711 0.53818 0.7542 0.0
C387 C 0.71489 0.5376 0.79045 0.0
C388 C 0.72368 0.53337 0.82731 0.0
C389 C 0.74536 0.52981 0.82806 0.0
H390 H 0.16943 0.69924 0.2689 0.0
H391 H 0.23773 0.76303 0.2053 0.0
H392 H 0.23686 0.75256 0.33607 0.0
H393 H 0.26726 0.79398 0.33516 0.0
H394 H 0.33963 0.8523 0.27226 0.0
H395 H 0.28 0.78841 0.20796 0.0
C396 C 0.18928 0.71689 0.26953 0.0
C397 C 0.20138 0.72515 0.30643 0.0
C398 C 0.20277 0.73007 0.23333 0.0
C399 C 0.22851 0.75282 0.23396 0.0
C400 C 0.24155 0.76215 0.27092 0.0
C401 C 0.22766 0.74729 0.30715 0.0
C402 C 0.26921 0.78709 0.27153 0.0
C403 C 0.27917 0.80071 0.3074 0.0
C404 C 0.30465 0.82392 0.30758 0.0
C405 C 0.32024 0.83407 0.27203 0.0
C406 C 0.31113 0.82154 0.23611 0.0
C407 C 0.28592 0.79801 0.23597 0.0
H408 H 0.4765 0.32717 0.73232 0.0
H409 H 0.4915 0.2728 0.79347 0.0
H410 H 0.47155 0.26578 0.66675 0.0
H411 H 0.48749 0.24087 0.66514 0.0
H412 H 0.48328 0.17635 0.73179 0.0
H413 H 0.47592 0.23162 0.79579 0.0
C414 C 0.47757 0.30981 0.73167 0.0
C415 C 0.47403 0.29775 0.6955 0.0
C416 C 0.48342 0.30052 0.76679 0.0
C417 C 0.48579 0.27868 0.76602 0.0
C418 C 0.48104 0.26501 0.73031 0.0
C419 C 0.47542 0.27524 0.69484 0.0
C420 C 0.48169 0.24026 0.7304 0.0
C421 C 0.48478 0.23055 0.69401 0.0
C422 C 0.4849 0.20734 0.69462 0.0
C423 C 0.48271 0.19401 0.73135 0.0
C424 C 0.48005 0.20315 0.76753 0.0
C425 C 0.47906 0.22583 0.76716 0.0
H426 H 0.09481 0.52836 0.07533 0.0
H427 H 0.075 0.46381 0.00251 0.0
H428 H 0.13269 0.52712 0.10223 0.0
H429 H 0.1132 0.46262 0.02878 0.0
H430 H 0.15574 0.44644 0.13612 0.0
H431 H 0.12435 0.4501 0.0929 0.0
H432 H 0.17667 0.53445 0.08727 0.0
H433 H 0.20787 0.53052 0.1311 0.0
C434 C 0.0989 0.51414 0.06476 0.0
C435 C 0.08217 0.49621 0.03692 0.0
C436 C 0.1207 0.51353 0.07982 0.0
C437 C 0.12618 0.49485 0.06755 0.0
C438 C 0.10953 0.47717 0.03907 0.0
C439 C 0.08775 0.47786 0.02391 0.0
C440 C 0.16103 0.46567 0.1241 0.0
C441 C 0.1844 0.48817 0.13631 0.0
C442 C 0.14298 0.46783 0.09952 0.0
C443 C 0.14775 0.4926 0.08696 0.0
C444 C 0.17216 0.51508 0.09686 0.0
C445 C 0.19028 0.51288 0.12134 0.0
H446 H 0.62456 0.07511 0.52152 0.0
H447 H 0.57244 0.09402 0.57997 0.0
H448 H 0.66348 0.11233 0.55088 0.0
H449 H 0.61099 0.13068 0.61064 0.0
H450 H 0.6844 0.2026 0.64968 0.0
H451 H 0.65147 0.17332 0.60216 0.0
H452 H 0.68171 0.12227 0.61606 0.0
H453 H 0.71468 0.15182 0.66241 0.0
C454 C 0.62157 0.08747 0.54041 0.0
C455 C 0.59565 0.08188 0.54846 0.0
C456 C 0.64377 0.10868 0.55744 0.0
C457 C 0.6405 0.12463 0.58325 0.0
C458 C 0.61446 0.11924 0.59041 0.0
C459 C 0.59231 0.0981 0.57321 0.0
C460 C 0.68461 0.18567 0.6411 0.0
C461 C 0.70222 0.17957 0.65922 0.0
C462 C 0.66549 0.16864 0.61445 0.0
C463 C 0.6636 0.14516 0.60557 0.0
C464 C 0.68262 0.1402 0.62166 0.0
C465 C 0.70162 0.15717 0.64821 0.0
H466 H 0.56394 0.61645 0.12602 0.0
H467 H 0.50968 0.61996 0.04264 0.0
H468 H 0.56741 0.65245 0.16096 0.0
H469 H 0.51416 0.65686 0.0765 0.0
H470 H 0.49709 0.69044 0.18873 0.0
H471 H 0.49882 0.66271 0.13958 0.0
H472 H 0.58343 0.69823 0.15909 0.0
H473 H 0.58121 0.72543 0.20914 0.0
C474 C 0.55292 0.62505 0.11488 0.0
C475 C 0.53631 0.61504 0.08171 0.0
C476 C 0.55524 0.64603 0.13458 0.0
C477 C 0.54107 0.65767 0.12161 0.0
C478 C 0.52517 0.64825 0.08758 0.0
C479 C 0.52281 0.62722 0.0679 0.0
C480 C 0.51622 0.69297 0.1812 0.0
C481 C 0.5391 0.71026 0.20208 0.0
C482 C 0.51726 0.67703 0.15315 0.0
C483 C 0.54122 0.67796 0.14562 0.0
C484 C 0.56455 0.69667 0.16461 0.0
C485 C 0.56345 0.71257 0.19276 0.0
H486 H 0.92634 0.496 0.64694 0.0
H487 H 0.91268 0.5352 0.54637 0.0
H488 H 0.89101 0.4949 0.68594 0.0
H489 H 0.87622 0.53295 0.58497 0.0
H490 H 0.83999 0.55467 0.69115 0.0
H491 H 0.86912 0.55211 0.64176 0.0
H492 H 0.84381 0.47469 0.69229 0.0
H493 H 0.81559 0.47792 0.74235 0.0
C494 C 0.91581 0.50442 0.63308 0.0
C495 C 0.92262 0.5159 0.59354 0.0
C496 C 0.89513 0.50336 0.65527 0.0
C497 C 0.88046 0.5136 0.63856 0.0
C498 C 0.88712 0.52496 0.5989 0.0
C499 C 0.90791 0.52605 0.57664 0.0
C500 C 0.84001 0.53679 0.69058 0.0
C501 C 0.82546 0.5164 0.72018 0.0
C502 C 0.85678 0.53531 0.66245 0.0
C503 C 0.85926 0.51338 0.66346 0.0
C504 C 0.84295 0.49214 0.69121 0.0
C505 C 0.82643 0.49375 0.71947 0.0
H506 H 0.44436 0.91523 0.06116 0.0
H507 H 0.39874 0.95158 0.06889 0.0
H508 H 0.40919 0.87648 0.10068 0.0
H509 H 0.36368 0.9132 0.10906 0.0
H510 H 0.29763 0.83615 0.16541 0.0
H511 H 0.32854 0.86653 0.11129 0.0
H512 H 0.39421 0.86781 0.17082 0.0
H513 H 0.36332 0.83734 0.22411 0.0
C514 C 0.42659 0.9147 0.0711 0.0
C515 C 0.42418 0.93628 0.0625 0.0
C516 C 0.40652 0.89264 0.09381 0.0
C517 C 0.38361 0.89172 0.10827 0.0
C518 C 0.38084 0.91304 0.09805 0.0
C519 C 0.40094 0.9351 0.07538 0.0
C520 C 0.31853 0.8423 0.16606 0.0
C521 C 0.32812 0.83445 0.19891 0.0
C522 C 0.3363 0.85995 0.1354 0.0
C523 C 0.36395 0.86989 0.1369 0.0
C524 C 0.37309 0.86048 0.1684 0.0
C525 C 0.35541 0.84304 0.19905 0.0
H526 H 0.52399 0.43535 0.5552 0.0
H527 H 0.43939 0.39401 0.534 0.0
H528 H 0.5187 0.3952 0.58613 0.0
H529 H 0.43385 0.35351 0.56448 0.0
H530 H 0.43437 0.30694 0.68215 0.0
H531 H 0.43569 0.33899 0.63311 0.0
H532 H 0.50788 0.35068 0.57813 0.0
H533 H 0.50657 0.31865 0.62798 0.0
C534 C 0.50434 0.41743 0.55658 0.0
C535 C 0.48205 0.41764 0.54272 0.0
C536 C 0.50128 0.39438 0.57399 0.0
C537 C 0.47581 0.37105 0.57791 0.0
C538 C 0.45369 0.37115 0.56234 0.0
C539 C 0.4568 0.39423 0.54483 0.0
C540 C 0.44994 0.31567 0.65862 0.0
C541 C 0.47034 0.31033 0.65875 0.0
C542 C 0.45075 0.33408 0.63048 0.0
C543 C 0.47211 0.34774 0.60194 0.0
C544 C 0.49137 0.34081 0.60009 0.0
C545 C 0.49044 0.32221 0.6282 0.0
H546 H 0.50015 0.89356 0.4891 0.0
H547 H 0.56677 0.95085 0.41145 0.0
H548 H 0.50553 0.85909 0.46523 0.0
H549 H 0.5713 0.9164 0.38622 0.0
H550 H 0.58498 0.85517 0.35409 0.0
H551 H 0.58357 0.88525 0.39893 0.0
H552 H 0.49709 0.83615 0.4051 0.0
H553 H 0.49889 0.80583 0.36151 0.0
C554 C 0.51614 0.89889 0.46728 0.0
C555 C 0.53289 0.92505 0.45203 0.0
C556 C 0.51906 0.87904 0.45328 0.0
C557 C 0.53883 0.8848 0.42368 0.0
C558 C 0.55609 0.91111 0.40944 0.0
C559 C 0.55321 0.93091 0.42346 0.0
C560 C 0.56583 0.85024 0.3668 0.0
C561 C 0.54207 0.82802 0.35499 0.0
C562 C 0.56491 0.8677 0.39183 0.0
C563 C 0.54018 0.86352 0.40502 0.0
C564 C 0.51653 0.84003 0.39589 0.0
C565 C 0.5175 0.82248 0.3711 0.0
H566 H 0.57665 0.49344 0.93057 0.0
H567 H 0.62935 0.55969 0.99919 0.0
H568 H 0.61516 0.49374 0.90276 0.0
H569 H 0.66814 0.55993 0.97207 0.0
H570 H 0.72582 0.57376 0.86244 0.0
H571 H 0.69146 0.57104 0.90696 0.0
H572 H 0.65137 0.48666 0.91645 0.0
H573 H 0.68584 0.48965 0.87125 0.0
C574 C 0.59656 0.5078 0.94009 0.0
C575 C 0.60019 0.5265 0.96694 0.0
C576 C 0.61862 0.50789 0.9245 0.0
C577 C 0.64484 0.5268 0.93528 0.0
C578 C 0.64829 0.5452 0.96292 0.0
C579 C 0.62617 0.54504 0.97858 0.0
C580 C 0.71027 0.55475 0.87553 0.0
C581 C 0.70865 0.53195 0.86402 0.0
C582 C 0.69046 0.55313 0.90089 0.0
C583 C 0.66839 0.5286 0.91497 0.0
C584 C 0.66787 0.50585 0.9057 0.0
C585 C 0.68781 0.50752 0.88041 0.0
H586 H 0.0714 0.62204 0.48136 0.0
H587 H 0.10039 0.57784 0.42849 0.0
H588 H 0.10962 0.6628 0.45042 0.0
H589 H 0.13839 0.61829 0.39685 0.0
H590 H 0.21194 0.69526 0.35796 0.0
H591 H 0.17993 0.65998 0.40612 0.0
H592 H 0.12273 0.68244 0.38263 0.0
H593 H 0.15481 0.71762 0.33533 0.0
C594 C 0.08618 0.62121 0.46334 0.0
C595 C 0.08312 0.59702 0.45707 0.0
C596 C 0.10799 0.64445 0.44552 0.0
C597 C 0.12717 0.64391 0.42106 0.0
C598 C 0.12434 0.61958 0.41595 0.0
C599 C 0.10251 0.59638 0.43374 0.0
C600 C 0.1929 0.69319 0.36444 0.0
C601 C 0.18588 0.70924 0.34329 0.0
C602 C 0.1744 0.67277 0.3915 0.0
C603 C 0.14856 0.66811 0.39796 0.0
C604 C 0.14243 0.68549 0.37884 0.0
C605 C 0.16082 0.70573 0.35174 0.0
H606 H 0.52361 0.10694 0.88088 0.0
H607 H 0.45605 0.0861 0.9595 0.0
H608 H 0.52026 0.14198 0.84764 0.0
H609 H 0.45246 0.1212 0.92574 0.0
H610 H 0.43798 0.15819 0.80268 0.0
H611 H 0.44076 0.12836 0.85234 0.0
H612 H 0.52514 0.18536 0.86354 0.0
H613 H 0.52213 0.21518 0.81423 0.0
C614 C 0.50807 0.10994 0.89107 0.0
C615 C 0.48998 0.09374 0.92255 0.0
C616 C 0.50632 0.13016 0.87235 0.0
C617 C 0.4862 0.13442 0.88428 0.0
C618 C 0.46818 0.11835 0.91601 0.0
C619 C 0.47026 0.09836 0.93532 0.0
C620 C 0.45679 0.16468 0.81718 0.0
C621 C 0.47977 0.18901 0.80528 0.0
C622 C 0.45844 0.14763 0.84541 0.0
C623 C 0.48323 0.15447 0.86148 0.0
C624 C 0.50582 0.17954 0.85142 0.0
C625 C 0.50408 0.1967 0.82362 0.0
H626 H 0.4391 0.52216 0.35906 0.0
H627 H 0.38074 0.48251 0.45738 0.0
H628 H 0.40601 0.52419 0.31873 0.0
H629 H 0.34776 0.48577 0.41749 0.0
H630 H 0.28974 0.4653 0.30906 0.0
H631 H 0.32063 0.46735 0.35994 0.0
H632 H 0.38143 0.54458 0.31053 0.0
H633 H 0.35074 0.54179 0.25888 0.0
C634 C 0.41917 0.51387 0.37216 0.0
C635 C 0.41258 0.50189 0.4114 0.0
C636 C 0.40025 0.51547 0.34921 0.0
C637 C 0.37415 0.50535 0.36485 0.0
C638 C 0.36758 0.49365 0.40433 0.0
C639 C 0.38658 0.49198 0.42735 0.0
C640 C 0.30943 0.48301 0.31011 0.0
C641 C 0.31791 0.50345 0.28035 0.0
C642 C 0.32721 0.48421 0.33914 0.0
C643 C 0.35378 0.50593 0.33896 0.0
C644 C 0.36139 0.52725 0.31101 0.0
C645 C 0.34373 0.5259 0.28179 0.0
H646 H 0.88904 0.41012 0.94917 0.0
H647 H 0.94805 0.40078 0.88939 0.0
H648 H 0.85337 0.37283 0.91516 0.0
H649 H 0.91251 0.36383 0.85503 0.0
H650 H 0.8084 0.33267 0.79637 0.0
H651 H 0.83834 0.3641 0.84433 0.0
H652 H 0.87381 0.31824 0.86705 0.0
H653 H 0.84382 0.28697 0.81895 0.0
C654 C 0.89438 0.39994 0.92911 0.0
C655 C 0.92143 0.40848 0.92193 0.0
C656 C 0.87395 0.37869 0.90943 0.0
C657 C 0.88004 0.36527 0.88248 0.0
C658 C 0.90705 0.37348 0.87601 0.0
C659 C 0.92747 0.39486 0.89534 0.0
C660 C 0.82185 0.32882 0.81298 0.0
C661 C 0.82353 0.30722 0.80469 0.0
C662 C 0.83911 0.34687 0.84024 0.0
C663 C 0.85869 0.34384 0.8592 0.0
C664 C 0.85919 0.3213 0.8526 0.0
C665 C 0.84178 0.30319 0.82559 0.0
H666 H 0.91401 0.48919 0.95862 0.0
H667 H 0.95957 0.57226 0.97376 0.0
H668 H 0.87726 0.49223 0.93133 0.0
H669 H 0.92262 0.57553 0.94738 0.0
H670 H 0.8095 0.49983 0.89487 0.0
H671 H 0.84192 0.50027 0.94141 0.0
H672 H 0.90464 0.57311 0.88208 0.0
H673 H 0.87212 0.57269 0.83659 0.0
C674 C 0.91581 0.50801 0.95679 0.0
C675 C 0.9395 0.53052 0.96792 0.0
C676 C 0.89472 0.50979 0.94147 0.0
C677 C 0.89689 0.53417 0.93701 0.0
C678 C 0.92033 0.55651 0.94989 0.0
C679 C 0.94143 0.55469 0.96515 0.0
C680 C 0.83 0.51646 0.89317 0.0
C681 C 0.83831 0.53639 0.86257 0.0
C682 C 0.84869 0.51654 0.9193 0.0
C683 C 0.87606 0.53652 0.91521 0.0
C684 C 0.8838 0.55751 0.88655 0.0
C685 C 0.86515 0.55738 0.86049 0.0
H686 H 0.39255 0.94991 0.4719 0.0
H687 H 0.44239 0.92253 0.43265 0.0
H688 H 0.35362 0.91281 0.44187 0.0
H689 H 0.40386 0.88565 0.4022 0.0
H690 H 0.32935 0.81349 0.36774 0.0
H691 H 0.36053 0.84476 0.41492 0.0
H692 H 0.33948 0.90014 0.37318 0.0
H693 H 0.30827 0.8687 0.32659 0.0
C694 C 0.39499 0.93572 0.45715 0.0
C695 C 0.42026 0.93886 0.45448 0.0
C696 C 0.37282 0.91457 0.43986 0.0
C697 C 0.37553 0.89613 0.4197 0.0
C698 C 0.40086 0.89912 0.41807 0.0
C699 C 0.42298 0.92031 0.43518 0.0
C700 C 0.33061 0.83192 0.37007 0.0
C701 C 0.31614 0.83858 0.34415 0.0
C702 C 0.34875 0.85 0.39655 0.0
C703 C 0.35281 0.87514 0.39751 0.0
C704 C 0.33675 0.88095 0.3736 0.0
C705 C 0.31875 0.86291 0.34702 0.0
H706 H 0.52555 0.43883 0.8751 0.0
H707 H 0.46766 0.38243 0.96452 0.0
H708 H 0.52391 0.40358 0.84035 0.0
H709 H 0.46648 0.347 0.93013 0.0
H710 H 0.44468 0.29512 0.81739 0.0
H711 H 0.44946 0.32629 0.86592 0.0
H712 H 0.53532 0.37021 0.84516 0.0
H713 H 0.53023 0.33899 0.79622 0.0
C714 C 0.51251 0.41887 0.88741 0.0
C715 C 0.4965 0.41343 0.92233 0.0
C716 C 0.51187 0.39866 0.86782 0.0
C717 C 0.49515 0.37242 0.88252 0.0
C718 C 0.47949 0.36698 0.91791 0.0
C719 C 0.48027 0.38728 0.93772 0.0
C720 C 0.4646 0.3109 0.82449 0.0
C721 C 0.48713 0.31456 0.80369 0.0
C722 C 0.46738 0.32881 0.85215 0.0
C723 C 0.49276 0.35093 0.85913 0.0
C724 C 0.51546 0.35358 0.84009 0.0
C725 C 0.51265 0.33557 0.81253 0.0
H726 H 0.10947 0.52675 0.37618 0.0
H727 H 0.0827 0.45338 0.44309 0.0
H728 H 0.14243 0.52238 0.33886 0.0
H729 H 0.11548 0.44873 0.40508 0.0
H730 H 0.14681 0.44034 0.27505 0.0
H731 H 0.11923 0.44276 0.3276 0.0
H732 H 0.18493 0.5202 0.3521 0.0
H733 H 0.21264 0.51746 0.30005 0.0
C734 C 0.11076 0.50975 0.38297 0.0
C735 C 0.0935 0.49034 0.41233 0.0
C736 C 0.12975 0.50736 0.36191 0.0
C737 C 0.13158 0.48528 0.36925 0.0
C738 C 0.1145 0.46596 0.39893 0.0
C739 C 0.09584 0.46863 0.42064 0.0
C740 C 0.15561 0.4574 0.29283 0.0
C741 C 0.18186 0.47862 0.2839 0.0
C742 C 0.13986 0.45884 0.32276 0.0
C743 C 0.1499 0.48176 0.34365 0.0
C744 C 0.17669 0.50236 0.3363 0.0
C745 C 0.19261 0.50071 0.30688 0.0
H746 H 0.58309 0.09988 0.92663 0.0
H747 H 0.62142 0.05663 0.94604 0.0
H748 H 0.62275 0.13464 0.88835 0.0
H749 H 0.66155 0.09158 0.90854 0.0
H750 H 0.70445 0.13731 0.78667 0.0
H751 H 0.67277 0.10675 0.83904 0.0
H752 H 0.66952 0.16969 0.88867 0.0
H753 H 0.70095 0.20022 0.8352 0.0
C754 C 0.60029 0.09813 0.92311 0.0
C755 C 0.59932 0.07567 0.93879 0.0
C756 C 0.6231 0.11809 0.90153 0.0
C757 C 0.64544 0.11597 0.89524 0.0
C758 C 0.64465 0.09375 0.91234 0.0
C759 C 0.62179 0.07378 0.93387 0.0
C760 C 0.69751 0.14473 0.80946 0.0
C761 C 0.70504 0.17109 0.80679 0.0
C762 C 0.67936 0.12722 0.83961 0.0
C763 C 0.66824 0.13562 0.86788 0.0
C764 C 0.67733 0.16246 0.86697 0.0
C765 C 0.69562 0.18005 0.83675 0.0
H766 H 0.56699 0.62377 0.46034 0.0
H767 H 0.48094 0.57336 0.46799 0.0
H768 H 0.56334 0.65896 0.42817 0.0
H769 H 0.47694 0.60876 0.43742 0.0
H770 H 0.48526 0.66044 0.32265 0.0
H771 H 0.48385 0.62841 0.3715 0.0
H772 H 0.55105 0.6907 0.43133 0.0
H773 H 0.55284 0.72275 0.38108 0.0
C774 C 0.5473 0.62047 0.4556 0.0
C775 C 0.52426 0.59585 0.46572 0.0
C776 C 0.54512 0.64068 0.43764 0.0
C777 C 0.51981 0.63674 0.42985 0.0
C778 C 0.49675 0.61241 0.44224 0.0
C779 C 0.49898 0.59217 0.4599 0.0
C780 C 0.49921 0.66732 0.34698 0.0
C781 C 0.51926 0.69403 0.34796 0.0
C782 C 0.4984 0.64896 0.37516 0.0
C783 C 0.51761 0.65684 0.40516 0.0
C784 C 0.53628 0.68386 0.40817 0.0
C785 C 0.53708 0.7023 0.37981 0.0
H786 H 0.45121 0.07213 0.58737 0.0
H787 H 0.52586 0.12784 0.52383 0.0
H788 H 0.45005 0.10804 0.61516 0.0
H789 H 0.52438 0.16388 0.55092 0.0
H790 H 0.52928 0.211 0.66367 0.0
H791 H 0.53007 0.1809 0.61821 0.0
H792 H 0.44537 0.1455 0.60017 0.0
H793 H 0.4448 0.17565 0.64609 0.0
C794 C 0.46725 0.09206 0.579 0.0
C795 C 0.48871 0.09706 0.55358 0.0
C796 C 0.46642 0.1127 0.59453 0.0
C797 C 0.48711 0.13891 0.58523 0.0
C798 C 0.50819 0.14394 0.55886 0.0
C799 C 0.50893 0.12328 0.54309 0.0
C800 C 0.51116 0.19755 0.64849 0.0
C801 C 0.48709 0.19587 0.65771 0.0
C802 C 0.51151 0.18018 0.62261 0.0
C803 C 0.4877 0.16054 0.60588 0.0
C804 C 0.46399 0.16017 0.61295 0.0
C805 C 0.4637 0.17766 0.63868 0.0
H806 H 0.39454 0.45011 0.0284 0.0
H807 H 0.43965 0.53282 0.04636 0.0
H808 H 0.3537 0.44654 0.05399 0.0
H809 H 0.39925 0.52948 0.07288 0.0
H810 H 0.32275 0.52188 0.10636 0.0
H811 H 0.35559 0.52194 0.06117 0.0
H812 H 0.33676 0.44798 0.11849 0.0
H813 H 0.30378 0.4479 0.16258 0.0
C814 C 0.39553 0.46753 0.03758 0.0
C815 C 0.42008 0.49169 0.03575 0.0
C816 C 0.37225 0.46554 0.05237 0.0
C817 C 0.37305 0.4877 0.06569 0.0
C818 C 0.39763 0.51206 0.06236 0.0
C819 C 0.42086 0.514 0.04751 0.0
C820 C 0.32484 0.50512 0.10784 0.0
C821 C 0.31052 0.48471 0.13748 0.0
C822 C 0.34398 0.50533 0.08251 0.0
C823 C 0.34923 0.48516 0.08651 0.0
C824 C 0.33322 0.46374 0.11411 0.0
C825 C 0.31418 0.46357 0.13935 0.0
H826 H 0.91282 0.43092 0.55232 0.0
H827 H 0.95571 0.39286 0.53243 0.0
H828 H 0.87549 0.39018 0.58433 0.0
H829 H 0.91822 0.35174 0.56366 0.0
H830 H 0.86879 0.30429 0.68147 0.0
H831 H 0.90129 0.3372 0.63202 0.0
H832 H 0.83899 0.34499 0.57872 0.0
H833 H 0.8065 0.3121 0.62913 0.0
C834 C 0.91388 0.41356 0.55413 0.0
C835 C 0.93702 0.41487 0.54033 0.0
C836 C 0.89248 0.39017 0.57218 0.0
C837 C 0.89381 0.3676 0.57677 0.0
C838 C 0.91662 0.36878 0.56111 0.0
C839 C 0.93802 0.3922 0.5431 0.0
C840 C 0.86191 0.31238 0.65824 0.0
C841 C 0.83517 0.30561 0.65892 0.0
C842 C 0.88053 0.33129 0.62984 0.0
C843 C 0.87289 0.34404 0.60154 0.0
C844 C 0.84564 0.33584 0.60044 0.0
C845 C 0.82693 0.31675 0.62886 0.0
H846 H 0.53705 0.91005 0.02966 0.0
H847 H 0.52509 0.93563 0.1426 0.0
H848 H 0.54135 0.87649 0.067 0.0
H849 H 0.53094 0.90326 0.17914 0.0
H850 H 0.5806 0.86945 0.22359 0.0
H851 H 0.57787 0.89893 0.17367 0.0
H852 H 0.50436 0.834 0.13148 0.0
H853 H 0.50668 0.80428 0.18245 0.0
C854 C 0.53523 0.90856 0.06225 0.0
C855 C 0.531 0.92592 0.08299 0.0
C856 C 0.53781 0.88941 0.08349 0.0
C857 C 0.53664 0.88755 0.12576 0.0
C858 C 0.53218 0.90457 0.14647 0.0
C859 C 0.52913 0.92332 0.12541 0.0
C860 C 0.56419 0.86132 0.203 0.0
C861 C 0.54366 0.83466 0.20719 0.0
C862 C 0.56267 0.87817 0.17451 0.0
C863 C 0.54083 0.86867 0.14917 0.0
C864 C 0.52145 0.84165 0.15072 0.0
C865 C 0.52283 0.8247 0.17968 0.0
H866 H 0.63966 0.56385 0.56226 0.0
H867 H 0.58794 0.48923 0.62723 0.0
H868 H 0.67822 0.56889 0.59849 0.0
H869 H 0.62635 0.49412 0.66305 0.0
H870 H 0.7025 0.50037 0.7007 0.0
H871 H 0.67088 0.49711 0.6499 0.0
H872 H 0.69031 0.57479 0.67368 0.0
H873 H 0.72154 0.57778 0.72477 0.0
C874 C 0.63663 0.54842 0.58393 0.0
C875 C 0.6108 0.52623 0.59216 0.0
C876 C 0.65863 0.55133 0.60468 0.0
C877 C 0.65531 0.53183 0.6334 0.0
C878 C 0.6296 0.50931 0.64071 0.0
C879 C 0.60757 0.50663 0.62055 0.0
C880 C 0.70069 0.51707 0.6939 0.0
C881 C 0.71453 0.5394 0.71629 0.0
C882 C 0.68241 0.5151 0.66523 0.0
C883 C 0.67797 0.5356 0.65811 0.0
C884 C 0.69343 0.55876 0.67831 0.0
C885 C 0.71135 0.56053 0.70743 0.0
H886 H 0.09098 0.64244 0.04382 0.0
H887 H 0.1115 0.59371 0.11339 0.0
H888 H 0.12546 0.68094 0.07771 0.0
H889 H 0.146 0.63202 0.14676 0.0
H890 H 0.21837 0.70715 0.18142 0.0
H891 H 0.19043 0.67604 0.13153 0.0
H892 H 0.12939 0.69319 0.15231 0.0
H893 H 0.1572 0.72392 0.20258 0.0
C894 C 0.10312 0.64006 0.06593 0.0
C895 C 0.09848 0.6151 0.07622 0.0
C896 C 0.12275 0.66203 0.08534 0.0
C897 C 0.13851 0.65951 0.1147 0.0
C898 C 0.13442 0.63465 0.1239 0.0
C899 C 0.11451 0.61268 0.10511 0.0
C900 C 0.19944 0.70498 0.17408 0.0
C901 C 0.18998 0.71805 0.19543 0.0
C902 C 0.18334 0.687 0.14593 0.0
C903 C 0.15764 0.68204 0.13829 0.0
C904 C 0.14916 0.69673 0.15733 0.0
C905 C 0.16507 0.71438 0.18596 0.0
loop_
_geom_bond_atom_site_label_1
_geom_bond_atom_site_label_2
_geom_bond_distance
_geom_bond_site_symmetry_2
_ccdc_geom_bond_type
C0 C1 1.443 1_556 S
C0 N4 1.376 1_556 S
C0 C38 1.389 . S
C1 C0 1.443 1_554 S
C1 C2 1.340 . S
C1 H41 0.951 . S
C2 C1 1.340 . S
C2 C3 1.439 . S
C2 H42 0.950 . S
C3 C2 1.439 . S
C3 N4 1.374 . S
C3 C37 1.395 . S
N4 C0 1.376 1_554 S
N4 C3 1.374 . S
N4 Co5 2.017 1_655 S
Co5 N4 2.017 1_455 S
Co5 N6 2.006 . S
Co5 N11 2.000 1_554 S
Co5 N16 1.971 1_554 S
Co5 N21 2.298 . S
Co5 N27 2.267 1_454 S
N6 Co5 2.006 . S
N6 C7 1.353 1_455 S
N6 C10 1.423 . S
C7 N6 1.353 1_655 S
C7 C8 1.446 . S
C7 C37 1.391 . S
C8 C7 1.446 . S
C8 C9 1.339 1_655 S
C8 H43 0.949 . S
C9 C8 1.339 1_455 S
C9 C10 1.439 . S
C9 H44 0.950 . S
C10 N6 1.423 . S
C10 C9 1.439 . S
C10 C39 1.392 . S
N11 Co5 2.000 1_556 S
N11 C12 1.376 1_556 S
N11 C15 1.374 . S
C12 N11 1.376 1_554 S
C12 C13 1.443 1_554 S
C12 C39 1.389 . S
C13 C12 1.443 1_556 S
C13 C14 1.340 . S
C13 H45 0.951 . S
C14 C13 1.340 . S
C14 C15 1.439 . S
C14 H46 0.950 . S
C15 N11 1.374 . S
C15 C14 1.439 . S
C15 C40 1.395 . S
N16 Co5 1.971 1_556 S
N16 C17 1.376 . S
N16 C20 1.383 1_455 S
C17 N16 1.376 . S
C17 C18 1.446 . S
C17 C40 1.391 . S
C18 C17 1.446 . S
C18 C19 1.339 1_455 S
C18 H47 0.949 . S
C19 C18 1.339 1_655 S
C19 C20 1.439 . S
C19 H48 0.950 . S
C20 N16 1.383 1_655 S
C20 C19 1.439 . S
C20 C38 1.392 . S
N21 Co5 2.298 . S
N21 C24 1.332 . S
N21 C26 1.332 . S
C22 C23 1.386 . S
C22 C25 1.388 . S
C23 C22 1.386 . S
C23 C24 1.382 . S
C23 H49 0.950 . S
C24 N21 1.332 . S
C24 C23 1.382 . S
C24 H35 0.952 1_554 S
C25 C22 1.388 . S
C25 C26 1.382 . S
C25 H50 0.950 . S
C26 N21 1.332 . S
C26 C25 1.382 . S
C26 H36 0.948 . S
N27 Co5 2.267 1_656 S
N27 C31 1.332 . S
N27 C32 1.332 . S
C28 C29 1.388 . S
C28 C32 1.382 . S
C28 H51 0.950 . S
C29 C28 1.388 . S
C29 C30 1.386 . S
C30 C29 1.386 . S
C30 C31 1.382 . S
C30 H52 0.950 . S
C31 N27 1.332 . S
C31 C30 1.382 . S
C31 H33 0.952 1_556 S
C32 N27 1.332 . S
C32 C28 1.382 . S
C32 H34 0.948 . S
H33 C31 0.952 1_554 S
H34 C32 0.948 . S
H35 C24 0.952 1_556 S
H36 C26 0.948 . S
C37 C3 1.395 . S
C37 C7 1.391 . S
C38 C0 1.389 . S
C38 C20 1.392 . S
C39 C10 1.392 . S
C39 C12 1.389 . S
C40 C15 1.395 . S
C40 C17 1.391 . S
H41 C1 0.951 . S
H42 C2 0.950 . S
H43 C8 0.949 . S
H44 C9 0.950 . S
H45 C13 0.951 . S
H46 C14 0.950 . S
H47 C18 0.949 . S
H48 C19 0.950 . S
H49 C23 0.950 . S
H50 C25 0.950 . S
H51 C28 0.950 . S
H52 C30 0.950 . S
C53 C54 1.443 . S
C53 N57 1.376 . S
C53 C91 1.389 . S
C54 C53 1.443 . S
C54 C55 1.340 1_545 S
C54 H94 0.951 . S
C55 C54 1.340 1_565 S
C55 C56 1.439 . S
C55 H95 0.950 . S
C56 C55 1.439 . S
C56 N57 1.374 1_565 S
C56 C90 1.395 . S
N57 C53 1.376 . S
N57 C56 1.374 1_545 S
N57 Co58 2.008 . S
Co58 N57 2.008 . S
Co58 N59 1.995 1_545 S
Co58 N64 2.008 . S
Co58 N69 1.995 . S
Co58 N74 2.282 1_545 S
Co58 N80 2.282 . S
N59 Co58 1.995 1_565 S
N59 C60 1.376 . S
N59 C63 1.383 . S
C60 N59 1.376 . S
C60 C61 1.446 . S
C60 C90 1.391 . S
C61 C60 1.446 . S
C61 C62 1.339 . S
C61 H96 0.949 . S
C62 C61 1.339 . S
C62 C63 1.439 . S
C62 H97 0.950 . S
C63 N59 1.383 . S
C63 C62 1.439 . S
C63 C92 1.392 . S
N64 Co58 2.008 . S
N64 C65 1.376 1_545 S
N64 C68 1.374 . S
C65 N64 1.376 1_565 S
C65 C66 1.443 . S
C65 C92 1.389 . S
C66 C65 1.443 . S
C66 C67 1.340 1_565 S
C66 H98 0.951 . S
C67 C66 1.340 1_545 S
C67 C68 1.439 . S
C67 H99 0.950 . S
C68 N64 1.374 . S
C68 C67 1.439 . S
C68 C93 1.395 . S
N69 Co58 1.995 . S
N69 C70 1.376 . S
N69 C73 1.383 . S
C70 N69 1.376 . S
C70 C71 1.446 . S
C70 C93 1.391 . S
C71 C70 1.446 . S
C71 C72 1.339 . S
C71 H100 0.949 . S
C72 C71 1.339 . S
C72 C73 1.439 . S
C72 H101 0.950 . S
C73 N69 1.383 . S
C73 C72 1.439 . S
C73 C91 1.392 . S
N74 Co58 2.282 1_565 S
N74 C77 1.332 . S
N74 C79 1.332 . S
C75 C76 1.386 . S
C75 C78 1.388 . S
C76 C75 1.386 . S
C76 C77 1.382 . S
C76 H102 0.950 . S
C77 N74 1.332 . S
C77 C76 1.382 . S
C77 H88 0.952 1_565 S
C78 C75 1.388 . S
C78 C79 1.382 . S
C78 H103 0.950 . S
C79 N74 1.332 . S
C79 C78 1.382 . S
C79 H89 0.948 . S
N80 Co58 2.282 . S
N80 C84 1.332 . S
N80 C85 1.332 . S
C81 C82 1.388 . S
C81 C85 1.382 . S
C81 H104 0.950 . S
C82 C81 1.388 . S
C82 C83 1.386 . S
C83 C82 1.386 . S
C83 C84 1.382 . S
C83 H105 0.950 . S
C84 N80 1.332 . S
C84 C83 1.382 . S
C84 H86 0.952 . S
C85 N80 1.332 . S
C85 C81 1.382 . S
C85 H87 0.948 . S
H86 C84 0.952 . S
H87 C85 0.948 . S
H88 C77 0.952 1_545 S
H89 C79 0.948 . S
C90 C56 1.395 . S
C90 C60 1.391 . S
C91 C53 1.389 . S
C91 C73 1.392 . S
C92 C63 1.392 . S
C92 C65 1.389 . S
C93 C68 1.395 . S
C93 C70 1.391 . S
H94 C54 0.951 . S
H95 C55 0.950 . S
H96 C61 0.949 . S
H97 C62 0.950 . S
H98 C66 0.951 . S
H99 C67 0.950 . S
H100 C71 0.949 . S
H101 C72 0.950 . S
H102 C76 0.950 . S
H103 C78 0.950 . S
H104 C81 0.950 . S
H105 C83 0.950 . S
C106 C107 1.443 . S
C106 N110 1.376 . S
C106 C144 1.389 . S
C107 C106 1.443 . S
C107 C108 1.340 . S
C107 H147 0.951 . S
C108 C107 1.340 . S
C108 C109 1.439 . S
C108 H148 0.950 . S
C109 C108 1.439 . S
C109 N110 1.374 . S
C109 C143 1.395 . S
N110 C106 1.376 . S
N110 C109 1.374 . S
N110 Co111 2.008 1_556 S
Co111 N110 2.008 1_554 S
Co111 N112 1.995 1_554 S
Co111 N117 2.008 . S
Co111 N122 1.995 . S
Co111 N127 2.282 . S
Co111 N133 2.282 1_554 S
N112 Co111 1.995 1_556 S
N112 C113 1.376 . S
N112 C116 1.383 1_556 S
C113 N112 1.376 . S
C113 C114 1.446 . S
C113 C143 1.391 . S
C114 C113 1.446 . S
C114 C115 1.339 . S
C114 H149 0.949 . S
C115 C114 1.339 . S
C115 C116 1.439 1_556 S
C115 H150 0.950 . S
C116 N112 1.383 1_554 S
C116 C115 1.439 1_554 S
C116 C145 1.392 . S
N117 Co111 2.008 . S
N117 C118 1.376 . S
N117 C121 1.374 . S
C118 N117 1.376 . S
C118 C119 1.443 . S
C118 C145 1.389 . S
C119 C118 1.443 . S
C119 C120 1.340 . S
C119 H151 0.951 . S
C120 C119 1.340 . S
C120 C121 1.439 . S
C120 H152 0.950 . S
C121 N117 1.374 . S
C121 C120 1.439 . S
C121 C146 1.395 . S
N122 Co111 1.995 . S
N122 C123 1.376 . S
N122 C126 1.383 1_554 S
C123 N122 1.376 . S
C123 C124 1.446 . S
C123 C146 1.391 . S
C124 C123 1.446 . S
C124 C125 1.339 . S
C124 H153 0.949 . S
C125 C124 1.339 . S
C125 C126 1.439 1_554 S
C125 H154 0.950 . S
C126 N122 1.383 1_556 S
C126 C125 1.439 1_556 S
C126 C144 1.392 . S
N127 Co111 2.282 . S
N127 C130 1.332 . S
N127 C132 1.332 . S
C128 C129 1.386 . S
C128 C131 1.388 . S
C129 C128 1.386 . S
C129 C130 1.382 . S
C129 H155 0.950 . S
C130 N127 1.332 . S
C130 C129 1.382 . S
C130 H141 0.952 . S
C131 C128 1.388 . S
C131 C132 1.382 . S
C131 H156 0.950 . S
C132 N127 1.332 . S
C132 C131 1.382 . S
C132 H142 0.948 1_554 S
N133 Co111 2.282 1_556 S
N133 C137 1.332 . S
N133 C138 1.332 . S
C134 C135 1.388 . S
C134 C138 1.382 . S
C134 H157 0.950 . S
C135 C134 1.388 . S
C135 C136 1.386 . S
C136 C135 1.386 . S
C136 C137 1.382 . S
C136 H158 0.950 . S
C137 N133 1.332 . S
C137 C136 1.382 . S
C137 H139 0.952 . S
C138 N133 1.332 . S
C138 C134 1.382 . S
C138 H140 0.948 1_556 S
H139 C137 0.952 . S
H140 C138 0.948 1_554 S
H141 C130 0.952 . S
H142 C132 0.948 1_556 S
C143 C109 1.395 . S
C143 C113 1.391 . S
C144 C106 1.389 . S
C144 C126 1.392 . S
C145 C116 1.392 . S
C145 C118 1.389 . S
C146 C121 1.395 . S
C146 C123 1.391 . S
H147 C107 0.951 . S
H148 C108 0.950 . S
H149 C114 0.949 . S
H150 C115 0.950 . S
H151 C119 0.951 . S
H152 C120 0.950 . S
H153 C124 0.949 . S
H154 C125 0.950 . S
H155 C129 0.950 . S
H156 C131 0.950 . S
H157 C134 0.950 . S
H158 C136 0.950 . S
C159 C160 1.443 . S
C159 N163 1.376 . S
C159 C197 1.389 . S
C160 C159 1.443 . S
C160 C161 1.340 . S
C160 H200 0.951 . S
C161 C160 1.340 . S
C161 C162 1.439 . S
C161 H201 0.950 . S
C162 C161 1.439 . S
C162 N163 1.374 . S
C162 C196 1.395 . S
N163 C159 1.376 . S
N163 C162 1.374 . S
N163 Co164 1.983 1_655 S
Co164 N163 1.983 1_455 S
Co164 N165 1.982 . S
Co164 N170 2.034 . S
Co164 N175 2.010 1_455 S
Co164 N180 2.317 . S
Co164 N186 2.248 1_455 S
N165 Co164 1.982 . S
N165 C166 1.376 1_455 S
N165 C169 1.383 . S
C166 N165 1.376 1_655 S
C166 C167 1.446 . S
C166 C196 1.391 . S
C167 C166 1.446 . S
C167 C168 1.339 1_655 S
C167 H202 0.949 . S
C168 C167 1.339 1_455 S
C168 C169 1.439 . S
C168 H203 0.950 . S
C169 N165 1.383 . S
C169 C168 1.439 . S
C169 C198 1.392 . S
N170 Co164 2.034 . S
N170 C171 1.376 . S
N170 C174 1.374 . S
C171 N170 1.376 . S
C171 C172 1.443 . S
C171 C198 1.389 . S
C172 C171 1.443 . S
C172 C173 1.340 . S
C172 H204 0.951 . S
C173 C172 1.340 . S
C173 C174 1.439 . S
C173 H205 0.950 . S
C174 N170 1.374 . S
C174 C173 1.439 . S
C174 C199 1.395 . S
N175 Co164 2.010 1_655 S
N175 C176 1.372 1_655 S
N175 C179 1.385 . S
C176 N175 1.372 1_455 S
C176 C177 1.446 . S
C176 C199 1.391 . S
C177 C176 1.446 . S
C177 C178 1.339 1_455 S
C177 H206 0.949 . S
C178 C177 1.339 1_655 S
C178 C179 1.439 . S
C178 H207 0.950 . S
C179 N175 1.385 . S
C179 C178 1.439 . S
C179 C197 1.392 . S
N180 Co164 2.317 . S
N180 C183 1.332 . S
N180 C185 1.332 . S
C181 C182 1.386 . S
C181 C184 1.388 . S
C182 C181 1.386 . S
C182 C183 1.382 . S
C182 H208 0.950 . S
C183 N180 1.332 . S
C183 C182 1.382 . S
C183 H194 0.952 . S
C184 C181 1.388 . S
C184 C185 1.382 . S
C184 H209 0.950 . S
C185 N180 1.332 . S
C185 C184 1.382 . S
C185 H195 0.948 . S
N186 Co164 2.248 1_655 S
N186 C190 1.332 . S
N186 C191 1.332 . S
C187 C188 1.388 . S
C187 C191 1.382 . S
C187 H210 0.950 . S
C188 C187 1.388 . S
C188 C189 1.386 . S
C189 C188 1.386 . S
C189 C190 1.382 . S
C189 H211 0.950 . S
C190 N186 1.332 . S
C190 C189 1.382 . S
C190 H192 0.952 . S
C191 N186 1.332 . S
C191 C187 1.382 . S
C191 H193 0.948 . S
H192 C190 0.952 . S
H193 C191 0.948 . S
H194 C183 0.952 . S
H195 C185 0.948 . S
C196 C162 1.395 . S
C196 C166 1.391 . S
C197 C159 1.389 . S
C197 C179 1.392 . S
C198 C169 1.392 . S
C198 C171 1.389 . S
C199 C174 1.395 . S
C199 C176 1.391 . S
H200 C160 0.951 . S
H201 C161 0.950 . S
H202 C167 0.949 . S
H203 C168 0.950 . S
H204 C172 0.951 . S
H205 C173 0.950 . S
H206 C177 0.949 . S
H207 C178 0.950 . S
H208 C182 0.950 . S
H209 C184 0.950 . S
H210 C187 0.950 . S
H211 C189 0.950 . S
C212 C213 1.443 . S
C212 N216 1.376 1_565 S
C212 C250 1.389 . S
C213 C212 1.443 . S
C213 C214 1.340 1_565 S
C213 H253 0.951 . S
C214 C213 1.340 1_545 S
C214 C215 1.439 . S
C214 H254 0.950 . S
C215 C214 1.439 . S
C215 N216 1.374 . S
C215 C249 1.395 . S
N216 C212 1.376 1_545 S
N216 C215 1.374 . S
N216 Co217 2.008 . S
Co217 N216 2.008 . S
Co217 N218 1.995 . S
Co217 N223 2.008 1_554 S
Co217 N228 1.995 1_544 S
Co217 N233 2.282 1_554 S
Co217 N239 2.282 1_545 S
N218 Co217 1.995 . S
N218 C219 1.376 . S
N218 C222 1.383 1_554 S
C219 N218 1.376 . S
C219 C220 1.446 . S
C219 C249 1.391 . S
C220 C219 1.446 . S
C220 C221 1.339 . S
C220 H255 0.949 . S
C221 C220 1.339 . S
C221 C222 1.439 1_554 S
C221 H256 0.950 1_554 S
C222 N218 1.383 1_556 S
C222 C221 1.439 1_556 S
C222 C251 1.392 . S
N223 Co217 2.008 1_556 S
N223 C224 1.376 . S
N223 C227 1.374 1_545 S
C224 N223 1.376 . S
C224 C225 1.443 . S
C224 C251 1.389 . S
C225 C224 1.443 . S
C225 C226 1.340 . S
C225 H257 0.951 . S
C226 C225 1.340 . S
C226 C227 1.439 1_545 S
C226 H258 0.950 1_545 S
C227 N223 1.374 1_565 S
C227 C226 1.439 1_565 S
C227 C252 1.395 . S
N228 Co217 1.995 1_566 S
N228 C229 1.376 . S
N228 C232 1.383 1_556 S
C229 N228 1.376 . S
C229 C230 1.446 . S
C229 C252 1.391 . S
C230 C229 1.446 . S
C230 C231 1.339 . S
C230 H259 0.949 . S
C231 C230 1.339 . S
C231 C232 1.439 1_556 S
C231 H260 0.950 1_556 S
C232 N228 1.383 1_554 S
C232 C231 1.439 1_554 S
C232 C250 1.392 . S
N233 Co217 2.282 1_556 S
N233 C236 1.332 . S
N233 C238 1.332 . S
C234 C235 1.386 . S
C234 C237 1.388 . S
C235 C234 1.386 . S
C235 C236 1.382 . S
C235 H261 0.950 . S
C236 N233 1.332 . S
C236 C235 1.382 . S
C236 H247 0.952 . S
C237 C234 1.388 . S
C237 C238 1.382 . S
C237 H262 0.950 . S
C238 N233 1.332 . S
C238 C237 1.382 . S
C238 H248 0.948 1_556 S
N239 Co217 2.282 1_565 S
N239 C243 1.332 . S
N239 C244 1.332 . S
C240 C241 1.388 . S
C240 C244 1.382 . S
C240 H263 0.950 . S
C241 C240 1.388 . S
C241 C242 1.386 . S
C242 C241 1.386 . S
C242 C243 1.382 . S
C242 H264 0.950 . S
C243 N239 1.332 . S
C243 C242 1.382 . S
C243 H245 0.952 1_565 S
C244 N239 1.332 . S
C244 C240 1.382 . S
C244 H246 0.948 1_554 S
H245 C243 0.952 1_545 S
H246 C244 0.948 1_556 S
H247 C236 0.952 . S
H248 C238 0.948 1_554 S
C249 C215 1.395 . S
C249 C219 1.391 . S
C250 C212 1.389 . S
C250 C232 1.392 . S
C251 C222 1.392 . S
C251 C224 1.389 . S
C252 C227 1.395 . S
C252 C229 1.391 . S
H253 C213 0.951 . S
H254 C214 0.950 . S
H255 C220 0.949 . S
H256 C221 0.950 1_556 S
H257 C225 0.951 . S
H258 C226 0.950 1_565 S
H259 C230 0.949 . S
H260 C231 0.950 1_554 S
H261 C235 0.950 . S
H262 C237 0.950 . S
H263 C240 0.950 . S
H264 C242 0.950 . S
C265 C266 1.443 . S
C265 N269 1.376 . S
C265 C303 1.389 . S
C266 C265 1.443 . S
C266 C267 1.340 . S
C266 H306 0.951 . S
C267 C266 1.340 . S
C267 C268 1.439 . S
C267 H307 0.950 . S
C268 C267 1.439 . S
C268 N269 1.374 . S
C268 C302 1.395 . S
N269 C265 1.376 . S
N269 C268 1.374 . S
N269 Co270 2.008 . S
Co270 N269 2.008 . S
Co270 N271 1.995 . S
Co270 N276 2.008 . S
Co270 N281 1.995 . S
Co270 N286 2.282 . S
Co270 N292 2.282 . S
N271 Co270 1.995 . S
N271 C272 1.376 . S
N271 C275 1.383 . S
C272 N271 1.376 . S
C272 C273 1.446 . S
C272 C302 1.391 . S
C273 C272 1.446 . S
C273 C274 1.339 . S
C273 H308 0.949 . S
C274 C273 1.339 . S
C274 C275 1.439 . S
C274 H309 0.950 . S
C275 N271 1.383 . S
C275 C274 1.439 . S
C275 C304 1.392 . S
N276 Co270 2.008 . S
N276 C277 1.376 . S
N276 C280 1.374 . S
C277 N276 1.376 . S
C277 C278 1.443 . S
C277 C304 1.389 . S
C278 C277 1.443 . S
C278 C279 1.340 . S
C278 H310 0.951 . S
C279 C278 1.340 . S
C279 C280 1.439 . S
C279 H311 0.950 . S
C280 N276 1.374 . S
C280 C279 1.439 . S
C280 C305 1.395 . S
N281 Co270 1.995 . S
N281 C282 1.376 . S
N281 C285 1.383 . S
C282 N281 1.376 . S
C282 C283 1.446 . S
C282 C305 1.391 . S
C283 C282 1.446 . S
C283 C284 1.339 . S
C283 H312 0.949 . S
C284 C283 1.339 . S
C284 C285 1.439 . S
C284 H313 0.950 . S
C285 N281 1.383 . S
C285 C284 1.439 . S
C285 C303 1.392 . S
N286 Co270 2.282 . S
N286 C289 1.332 . S
N286 C291 1.332 . S
C287 C288 1.386 . S
C287 C290 1.388 . S
C288 C287 1.386 . S
C288 C289 1.382 . S
C288 H314 0.950 . S
C289 N286 1.332 . S
C289 C288 1.382 . S
C289 H300 0.952 . S
C290 C287 1.388 . S
C290 C291 1.382 . S
C290 H315 0.950 . S
C291 N286 1.332 . S
C291 C290 1.382 . S
C291 H301 0.948 . S
N292 Co270 2.282 . S
N292 C296 1.332 . S
N292 C297 1.332 . S
C293 C294 1.388 . S
C293 C297 1.382 . S
C293 H316 0.950 . S
C294 C293 1.388 . S
C294 C295 1.386 . S
C295 C294 1.386 . S
C295 C296 1.382 . S
C295 H317 0.950 . S
C296 N292 1.332 . S
C296 C295 1.382 . S
C296 H298 0.952 . S
C297 N292 1.332 . S
C297 C293 1.382 . S
C297 H299 0.948 . S
H298 C296 0.952 . S
H299 C297 0.948 . S
H300 C289 0.952 . S
H301 C291 0.948 . S
C302 C268 1.395 . S
C302 C272 1.391 . S
C303 C265 1.389 . S
C303 C285 1.392 . S
C304 C275 1.392 . S
C304 C277 1.389 . S
C305 C280 1.395 . S
C305 C282 1.391 . S
H306 C266 0.951 . S
H307 C267 0.950 . S
H308 C273 0.949 . S
H309 C274 0.950 . S
H310 C278 0.951 . S
H311 C279 0.950 . S
H312 C283 0.949 . S
H313 C284 0.950 . S
H314 C288 0.950 . S
H315 C290 0.950 . S
H316 C293 0.950 . S
H317 C295 0.950 . S
H318 C324 0.930 . S
H319 C327 0.931 . S
H320 C329 0.931 . S
H321 C331 0.930 . S
H322 C333 0.930 . S
H323 C335 0.931 . S
C324 H318 0.930 . S
C324 C325 1.380 . S
C324 C326 1.394 . S
C325 C324 1.380 . S
C325 C329 1.382 . S
C326 C324 1.394 . S
C326 C327 1.400 . S
C327 H319 0.931 . S
C327 C326 1.400 . S
C327 C328 1.375 . S
C328 C327 1.375 . S
C328 C329 1.415 . S
C328 C330 1.501 . S
C329 H320 0.931 . S
C329 C325 1.382 . S
C329 C328 1.415 . S
C330 C328 1.501 . S
C330 C331 1.384 . S
C330 C335 1.408 . S
C331 H321 0.930 . S
C331 C330 1.384 . S
C331 C332 1.389 . S
C332 C331 1.389 . S
C332 C333 1.405 . S
C333 H322 0.930 . S
C333 C332 1.405 . S
C333 C334 1.364 . S
C334 C333 1.364 . S
C334 C335 1.400 . S
C335 H323 0.931 . S
C335 C330 1.408 . S
C335 C334 1.400 . S
H336 C342 0.930 . S
H337 C345 0.931 . S
H338 C347 0.931 . S
H339 C349 0.930 . S
H340 C351 0.930 . S
H341 C353 0.931 . S
C342 H336 0.930 . S
C342 C343 1.380 . S
C342 C344 1.394 . S
C343 C342 1.380 . S
C343 C347 1.382 . S
C344 C342 1.394 . S
C344 C345 1.400 . S
C345 H337 0.931 . S
C345 C344 1.400 . S
C345 C346 1.375 . S
C346 C345 1.375 . S
C346 C347 1.415 . S
C346 C348 1.501 . S
C347 H338 0.931 . S
C347 C343 1.382 . S
C347 C346 1.415 . S
C348 C346 1.501 . S
C348 C349 1.384 . S
C348 C353 1.408 . S
C349 H339 0.930 . S
C349 C348 1.384 . S
C349 C350 1.389 . S
C350 C349 1.389 . S
C350 C351 1.405 . S
C351 H340 0.930 . S
C351 C350 1.405 . S
C351 C352 1.364 . S
C352 C351 1.364 . S
C352 C353 1.400 . S
C353 H341 0.931 . S
C353 C348 1.408 . S
C353 C352 1.400 . S
H354 C360 0.930 . S
H355 C363 0.931 . S
H356 C365 0.931 . S
H357 C367 0.930 . S
H358 C369 0.930 . S
H359 C371 0.931 . S
C360 H354 0.930 . S
C360 C361 1.380 . S
C360 C362 1.394 . S
C361 C360 1.380 . S
C361 C365 1.382 . S
C362 C360 1.394 . S
C362 C363 1.400 . S
C363 H355 0.931 . S
C363 C362 1.400 . S
C363 C364 1.375 . S
C364 C363 1.375 . S
C364 C365 1.415 . S
C364 C366 1.501 . S
C365 H356 0.931 . S
C365 C361 1.382 . S
C365 C364 1.415 . S
C366 C364 1.501 . S
C366 C367 1.384 . S
C366 C371 1.408 . S
C367 H357 0.930 . S
C367 C366 1.384 . S
C367 C368 1.389 . S
C368 C367 1.389 . S
C368 C369 1.405 . S
C369 H358 0.930 . S
C369 C368 1.405 . S
C369 C370 1.364 . S
C370 C369 1.364 . S
C370 C371 1.400 . S
C371 H359 0.931 . S
C371 C366 1.408 . S
C371 C370 1.400 . S
H372 C378 0.930 . S
H373 C381 0.931 . S
H374 C383 0.931 . S
H375 C385 0.930 . S
H376 C387 0.930 . S
H377 C389 0.931 . S
C378 H372 0.930 . S
C378 C379 1.380 . S
C378 C380 1.394 . S
C379 C378 1.380 . S
C379 C383 1.382 . S
C380 C378 1.394 . S
C380 C381 1.400 . S
C381 H373 0.931 . S
C381 C380 1.400 . S
C381 C382 1.375 . S
C382 C381 1.375 . S
C382 C383 1.415 . S
C382 C384 1.501 . S
C383 H374 0.931 . S
C383 C379 1.382 . S
C383 C382 1.415 . S
C384 C382 1.501 . S
C384 C385 1.384 . S
C384 C389 1.408 . S
C385 H375 0.930 . S
C385 C384 1.384 . S
C385 C386 1.389 . S
C386 C385 1.389 . S
C386 C387 1.405 . S
C387 H376 0.930 . S
C387 C386 1.405 . S
C387 C388 1.364 . S
C388 C387 1.364 . S
C388 C389 1.400 . S
C389 H377 0.931 . S
C389 C384 1.408 . S
C389 C388 1.400 . S
H390 C396 0.930 . S
H391 C399 0.931 . S
H392 C401 0.931 . S
H393 C403 0.930 . S
H394 C405 0.930 . S
H395 C407 0.931 . S
C396 H390 0.930 . S
C396 C397 1.380 . S
C396 C398 1.394 . S
C397 C396 1.380 . S
C397 C401 1.382 . S
C398 C396 1.394 . S
C398 C399 1.400 . S
C399 H391 0.931 . S
C399 C398 1.400 . S
C399 C400 1.375 . S
C400 C399 1.375 . S
C400 C401 1.415 . S
C400 C402 1.501 . S
C401 H392 0.931 . S
C401 C397 1.382 . S
C401 C400 1.415 . S
C402 C400 1.501 . S
C402 C403 1.384 . S
C402 C407 1.408 . S
C403 H393 0.930 . S
C403 C402 1.384 . S
C403 C404 1.389 . S
C404 C403 1.389 . S
C404 C405 1.405 . S
C405 H394 0.930 . S
C405 C404 1.405 . S
C405 C406 1.364 . S
C406 C405 1.364 . S
C406 C407 1.400 . S
C407 H395 0.931 . S
C407 C402 1.408 . S
C407 C406 1.400 . S
H408 C414 0.930 . S
H409 C417 0.931 . S
H410 C419 0.931 . S
H411 C421 0.930 . S
H412 C423 0.930 . S
H413 C425 0.931 . S
C414 H408 0.930 . S
C414 C415 1.380 . S
C414 C416 1.394 . S
C415 C414 1.380 . S
C415 C419 1.382 . S
C416 C414 1.394 . S
C416 C417 1.400 . S
C417 H409 0.931 . S
C417 C416 1.400 . S
C417 C418 1.375 . S
C418 C417 1.375 . S
C418 C419 1.415 . S
C418 C420 1.501 . S
C419 H410 0.931 . S
C419 C415 1.382 . S
C419 C418 1.415 . S
C420 C418 1.501 . S
C420 C421 1.384 . S
C420 C425 1.408 . S
C421 H411 0.930 . S
C421 C420 1.384 . S
C421 C422 1.389 . S
C422 C421 1.389 . S
C422 C423 1.405 . S
C423 H412 0.930 . S
C423 C422 1.405 . S
C423 C424 1.364 . S
C424 C423 1.364 . S
C424 C425 1.400 . S
C425 H413 0.931 . S
C425 C420 1.408 . S
C425 C424 1.400 . S
H426 C434 0.950 . S
H427 C439 0.950 . S
H428 C436 0.950 . S
H429 C438 0.950 . S
H430 C440 0.950 . S
H431 C442 0.950 . S
H432 C444 0.950 . S
H433 C445 0.950 . S
C434 H426 0.950 . S
C434 C435 1.386 . S
C434 C436 1.391 . S
C435 C434 1.386 . S
C435 C439 1.393 . S
C436 H428 0.950 . S
C436 C434 1.391 . S
C436 C437 1.400 . S
C437 C436 1.400 . S
C437 C438 1.398 . S
C437 C443 1.491 . S
C438 H429 0.950 . S
C438 C437 1.398 . S
C438 C439 1.391 . S
C439 H427 0.950 . S
C439 C435 1.393 . S
C439 C438 1.391 . S
C440 H430 0.950 . S
C440 C441 1.386 . S
C440 C442 1.391 . S
C441 C440 1.386 . S
C441 C445 1.393 . S
C442 H431 0.950 . S
C442 C440 1.391 . S
C442 C443 1.400 . S
C443 C437 1.491 . S
C443 C442 1.400 . S
C443 C444 1.398 . S
C444 H432 0.950 . S
C444 C443 1.398 . S
C444 C445 1.391 . S
C445 H433 0.950 . S
C445 C441 1.393 . S
C445 C444 1.391 . S
H446 C454 0.950 . S
H447 C459 0.950 . S
H448 C456 0.950 . S
H449 C458 0.950 . S
H450 C460 0.950 . S
H451 C462 0.950 . S
H452 C464 0.950 . S
H453 C465 0.950 . S
C454 H446 0.950 . S
C454 C455 1.386 . S
C454 C456 1.391 . S
C455 C454 1.386 . S
C455 C459 1.393 . S
C456 H448 0.950 . S
C456 C454 1.391 . S
C456 C457 1.400 . S
C457 C456 1.400 . S
C457 C458 1.398 . S
C457 C463 1.491 . S
C458 H449 0.950 . S
C458 C457 1.398 . S
C458 C459 1.391 . S
C459 H447 0.950 . S
C459 C455 1.393 . S
C459 C458 1.391 . S
C460 H450 0.950 . S
C460 C461 1.386 . S
C460 C462 1.391 . S
C461 C460 1.386 . S
C461 C465 1.393 . S
C462 H451 0.950 . S
C462 C460 1.391 . S
C462 C463 1.400 . S
C463 C457 1.491 . S
C463 C462 1.400 . S
C463 C464 1.398 . S
C464 H452 0.950 . S
C464 C463 1.398 . S
C464 C465 1.391 . S
C465 H453 0.950 . S
C465 C461 1.393 . S
C465 C464 1.391 . S
H466 C474 0.950 . S
H467 C479 0.950 . S
H468 C476 0.950 . S
H469 C478 0.950 . S
H470 C480 0.950 . S
H471 C482 0.950 . S
H472 C484 0.950 . S
H473 C485 0.950 . S
C474 H466 0.950 . S
C474 C475 1.386 . S
C474 C476 1.391 . S
C475 C474 1.386 . S
C475 C479 1.393 . S
C476 H468 0.950 . S
C476 C474 1.391 . S
C476 C477 1.400 . S
C477 C476 1.400 . S
C477 C478 1.398 . S
C477 C483 1.491 . S
C478 H469 0.950 . S
C478 C477 1.398 . S
C478 C479 1.391 . S
C479 H467 0.950 . S
C479 C475 1.393 . S
C479 C478 1.391 . S
C480 H470 0.950 . S
C480 C481 1.386 . S
C480 C482 1.391 . S
C481 C480 1.386 . S
C481 C485 1.393 . S
C482 H471 0.950 . S
C482 C480 1.391 . S
C482 C483 1.400 . S
C483 C477 1.491 . S
C483 C482 1.400 . S
C483 C484 1.398 . S
C484 H472 0.950 . S
C484 C483 1.398 . S
C484 C485 1.391 . S
C485 H473 0.950 . S
C485 C481 1.393 . S
C485 C484 1.391 . S
H486 C494 0.950 . S
H487 C499 0.950 . S
H488 C496 0.950 . S
H489 C498 0.950 . S
H490 C500 0.950 . S
H491 C502 0.950 . S
H492 C504 0.950 . S
H493 C505 0.950 . S
C494 H486 0.950 . S
C494 C495 1.386 . S
C494 C496 1.391 . S
C495 C494 1.386 . S
C495 C499 1.393 . S
C496 H488 0.950 . S
C496 C494 1.391 . S
C496 C497 1.400 . S
C497 C496 1.400 . S
C497 C498 1.398 . S
C497 C503 1.491 . S
C498 H489 0.950 . S
C498 C497 1.398 . S
C498 C499 1.391 . S
C499 H487 0.950 . S
C499 C495 1.393 . S
C499 C498 1.391 . S
C500 H490 0.950 . S
C500 C501 1.386 . S
C500 C502 1.391 . S
C501 C500 1.386 . S
C501 C505 1.393 . S
C502 H491 0.950 . S
C502 C500 1.391 . S
C502 C503 1.400 . S
C503 C497 1.491 . S
C503 C502 1.400 . S
C503 C504 1.398 . S
C504 H492 0.950 . S
C504 C503 1.398 . S
C504 C505 1.391 . S
C505 H493 0.950 . S
C505 C501 1.393 . S
C505 C504 1.391 . S
H506 C514 0.950 . S
H507 C519 0.950 . S
H508 C516 0.950 . S
H509 C518 0.950 . S
H510 C520 0.950 . S
H511 C522 0.950 . S
H512 C524 0.950 . S
H513 C525 0.950 . S
C514 H506 0.950 . S
C514 C515 1.386 . S
C514 C516 1.391 . S
C515 C514 1.386 . S
C515 C519 1.393 . S
C516 H508 0.950 . S
C516 C514 1.391 . S
C516 C517 1.400 . S
C517 C516 1.400 . S
C517 C518 1.398 . S
C517 C523 1.491 . S
C518 H509 0.950 . S
C518 C517 1.398 . S
C518 C519 1.391 . S
C519 H507 0.950 . S
C519 C515 1.393 . S
C519 C518 1.391 . S
C520 H510 0.950 . S
C520 C521 1.386 . S
C520 C522 1.391 . S
C521 C520 1.386 . S
C521 C525 1.393 . S
C522 H511 0.950 . S
C522 C520 1.391 . S
C522 C523 1.400 . S
C523 C517 1.491 . S
C523 C522 1.400 . S
C523 C524 1.398 . S
C524 H512 0.950 . S
C524 C523 1.398 . S
C524 C525 1.391 . S
C525 H513 0.950 . S
C525 C521 1.393 . S
C525 C524 1.391 . S
H526 C534 0.950 . S
H527 C539 0.950 . S
H528 C536 0.950 . S
H529 C538 0.950 . S
H530 C540 0.950 . S
H531 C542 0.950 . S
H532 C544 0.950 . S
H533 C545 0.950 . S
C534 H526 0.950 . S
C534 C535 1.386 . S
C534 C536 1.391 . S
C535 C534 1.386 . S
C535 C539 1.393 . S
C536 H528 0.950 . S
C536 C534 1.391 . S
C536 C537 1.400 . S
C537 C536 1.400 . S
C537 C538 1.398 . S
C537 C543 1.491 . S
C538 H529 0.950 . S
C538 C537 1.398 . S
C538 C539 1.391 . S
C539 H527 0.950 . S
C539 C535 1.393 . S
C539 C538 1.391 . S
C540 H530 0.950 . S
C540 C541 1.386 . S
C540 C542 1.391 . S
C541 C540 1.386 . S
C541 C545 1.393 . S
C542 H531 0.950 . S
C542 C540 1.391 . S
C542 C543 1.400 . S
C543 C537 1.491 . S
C543 C542 1.400 . S
C543 C544 1.398 . S
C544 H532 0.950 . S
C544 C543 1.398 . S
C544 C545 1.391 . S
C545 H533 0.950 . S
C545 C541 1.393 . S
C545 C544 1.391 . S
H546 C554 0.950 . S
H547 C559 0.950 . S
H548 C556 0.950 . S
H549 C558 0.950 . S
H550 C560 0.950 . S
H551 C562 0.950 . S
H552 C564 0.950 . S
H553 C565 0.950 . S
C554 H546 0.950 . S
C554 C555 1.386 . S
C554 C556 1.391 . S
C555 C554 1.386 . S
C555 C559 1.393 . S
C556 H548 0.950 . S
C556 C554 1.391 . S
C556 C557 1.400 . S
C557 C556 1.400 . S
C557 C558 1.398 . S
C557 C563 1.491 . S
C558 H549 0.950 . S
C558 C557 1.398 . S
C558 C559 1.391 . S
C559 H547 0.950 . S
C559 C555 1.393 . S
C559 C558 1.391 . S
C560 H550 0.950 . S
C560 C561 1.386 . S
C560 C562 1.391 . S
C561 C560 1.386 . S
C561 C565 1.393 . S
C562 H551 0.950 . S
C562 C560 1.391 . S
C562 C563 1.400 . S
C563 C557 1.491 . S
C563 C562 1.400 . S
C563 C564 1.398 . S
C564 H552 0.950 . S
C564 C563 1.398 . S
C564 C565 1.391 . S
C565 H553 0.950 . S
C565 C561 1.393 . S
C565 C564 1.391 . S
H566 C574 0.950 . S
H567 C579 0.950 . S
H568 C576 0.950 . S
H569 C578 0.950 . S
H570 C580 0.950 . S
H571 C582 0.950 . S
H572 C584 0.950 . S
H573 C585 0.950 . S
C574 H566 0.950 . S
C574 C575 1.386 . S
C574 C576 1.391 . S
C575 C574 1.386 . S
C575 C579 1.393 . S
C576 H568 0.950 . S
C576 C574 1.391 . S
C576 C577 1.400 . S
C577 C576 1.400 . S
C577 C578 1.398 . S
C577 C583 1.491 . S
C578 H569 0.950 . S
C578 C577 1.398 . S
C578 C579 1.391 . S
C579 H567 0.950 . S
C579 C575 1.393 . S
C579 C578 1.391 . S
C580 H570 0.950 . S
C580 C581 1.386 . S
C580 C582 1.391 . S
C581 C580 1.386 . S
C581 C585 1.393 . S
C582 H571 0.950 . S
C582 C580 1.391 . S
C582 C583 1.400 . S
C583 C577 1.491 . S
C583 C582 1.400 . S
C583 C584 1.398 . S
C584 H572 0.950 . S
C584 C583 1.398 . S
C584 C585 1.391 . S
C585 H573 0.950 . S
C585 C581 1.393 . S
C585 C584 1.391 . S
H586 C594 0.950 . S
H587 C599 0.950 . S
H588 C596 0.950 . S
H589 C598 0.950 . S
H590 C600 0.950 . S
H591 C602 0.950 . S
H592 C604 0.950 . S
H593 C605 0.950 . S
C594 H586 0.950 . S
C594 C595 1.386 . S
C594 C596 1.391 . S
C595 C594 1.386 . S
C595 C599 1.393 . S
C596 H588 0.950 . S
C596 C594 1.391 . S
C596 C597 1.400 . S
C597 C596 1.400 . S
C597 C598 1.398 . S
C597 C603 1.491 . S
C598 H589 0.950 . S
C598 C597 1.398 . S
C598 C599 1.391 . S
C599 H587 0.950 . S
C599 C595 1.393 . S
C599 C598 1.391 . S
C600 H590 0.950 . S
C600 C601 1.386 . S
C600 C602 1.391 . S
C601 C600 1.386 . S
C601 C605 1.393 . S
C602 H591 0.950 . S
C602 C600 1.391 . S
C602 C603 1.400 . S
C603 C597 1.491 . S
C603 C602 1.400 . S
C603 C604 1.398 . S
C604 H592 0.950 . S
C604 C603 1.398 . S
C604 C605 1.391 . S
C605 H593 0.950 . S
C605 C601 1.393 . S
C605 C604 1.391 . S
H606 C614 0.950 . S
H607 C619 0.950 . S
H608 C616 0.950 . S
H609 C618 0.950 . S
H610 C620 0.950 . S
H611 C622 0.950 . S
H612 C624 0.950 . S
H613 C625 0.950 . S
C614 H606 0.950 . S
C614 C615 1.386 . S
C614 C616 1.391 . S
C615 C614 1.386 . S
C615 C619 1.393 . S
C616 H608 0.950 . S
C616 C614 1.391 . S
C616 C617 1.400 . S
C617 C616 1.400 . S
C617 C618 1.398 . S
C617 C623 1.491 . S
C618 H609 0.950 . S
C618 C617 1.398 . S
C618 C619 1.391 . S
C619 H607 0.950 . S
C619 C615 1.393 . S
C619 C618 1.391 . S
C620 H610 0.950 . S
C620 C621 1.386 . S
C620 C622 1.391 . S
C621 C620 1.386 . S
C621 C625 1.393 . S
C622 H611 0.950 . S
C622 C620 1.391 . S
C622 C623 1.400 . S
C623 C617 1.491 . S
C623 C622 1.400 . S
C623 C624 1.398 . S
C624 H612 0.950 . S
C624 C623 1.398 . S
C624 C625 1.391 . S
C625 H613 0.950 . S
C625 C621 1.393 . S
C625 C624 1.391 . S
H626 C634 0.950 . S
H627 C639 0.950 . S
H628 C636 0.950 . S
H629 C638 0.950 . S
H630 C640 0.950 . S
H631 C642 0.950 . S
H632 C644 0.950 . S
H633 C645 0.950 . S
C634 H626 0.950 . S
C634 C635 1.386 . S
C634 C636 1.391 . S
C635 C634 1.386 . S
C635 C639 1.393 . S
C636 H628 0.950 . S
C636 C634 1.391 . S
C636 C637 1.400 . S
C637 C636 1.400 . S
C637 C638 1.398 . S
C637 C643 1.491 . S
C638 H629 0.950 . S
C638 C637 1.398 . S
C638 C639 1.391 . S
C639 H627 0.950 . S
C639 C635 1.393 . S
C639 C638 1.391 . S
C640 H630 0.950 . S
C640 C641 1.386 . S
C640 C642 1.391 . S
C641 C640 1.386 . S
C641 C645 1.393 . S
C642 H631 0.950 . S
C642 C640 1.391 . S
C642 C643 1.400 . S
C643 C637 1.491 . S
C643 C642 1.400 . S
C643 C644 1.398 . S
C644 H632 0.950 . S
C644 C643 1.398 . S
C644 C645 1.391 . S
C645 H633 0.950 . S
C645 C641 1.393 . S
C645 C644 1.391 . S
H646 C654 0.950 . S
H647 C659 0.950 . S
H648 C656 0.950 . S
H649 C658 0.950 . S
H650 C660 0.950 . S
H651 C662 0.950 . S
H652 C664 0.950 . S
H653 C665 0.950 . S
C654 H646 0.950 . S
C654 C655 1.386 . S
C654 C656 1.391 . S
C655 C654 1.386 . S
C655 C659 1.393 . S
C656 H648 0.950 . S
C656 C654 1.391 . S
C656 C657 1.400 . S
C657 C656 1.400 . S
C657 C658 1.398 . S
C657 C663 1.491 . S
C658 H649 0.950 . S
C658 C657 1.398 . S
C658 C659 1.391 . S
C659 H647 0.950 . S
C659 C655 1.393 . S
C659 C658 1.391 . S
C660 H650 0.950 . S
C660 C661 1.386 . S
C660 C662 1.391 . S
C661 C660 1.386 . S
C661 C665 1.393 . S
C662 H651 0.950 . S
C662 C660 1.391 . S
C662 C663 1.400 . S
C663 C657 1.491 . S
C663 C662 1.400 . S
C663 C664 1.398 . S
C664 H652 0.950 . S
C664 C663 1.398 . S
C664 C665 1.391 . S
C665 H653 0.950 . S
C665 C661 1.393 . S
C665 C664 1.391 . S
H666 C674 0.950 . S
H667 C679 0.950 . S
H668 C676 0.950 . S
H669 C678 0.950 . S
H670 C680 0.950 . S
H671 C682 0.950 . S
H672 C684 0.950 . S
H673 C685 0.950 . S
C674 H666 0.950 . S
C674 C675 1.386 . S
C674 C676 1.391 . S
C675 C674 1.386 . S
C675 C679 1.393 . S
C676 H668 0.950 . S
C676 C674 1.391 . S
C676 C677 1.400 . S
C677 C676 1.400 . S
C677 C678 1.398 . S
C677 C683 1.491 . S
C678 H669 0.950 . S
C678 C677 1.398 . S
C678 C679 1.391 . S
C679 H667 0.950 . S
C679 C675 1.393 . S
C679 C678 1.391 . S
C680 H670 0.950 . S
C680 C681 1.386 . S
C680 C682 1.391 . S
C681 C680 1.386 . S
C681 C685 1.393 . S
C682 H671 0.950 . S
C682 C680 1.391 . S
C682 C683 1.400 . S
C683 C677 1.491 . S
C683 C682 1.400 . S
C683 C684 1.398 . S
C684 H672 0.950 . S
C684 C683 1.398 . S
C684 C685 1.391 . S
C685 H673 0.950 . S
C685 C681 1.393 . S
C685 C684 1.391 . S
H686 C694 0.950 . S
H687 C699 0.950 . S
H688 C696 0.950 . S
H689 C698 0.950 . S
H690 C700 0.950 . S
H691 C702 0.950 . S
H692 C704 0.950 . S
H693 C705 0.950 . S
C694 H686 0.950 . S
C694 C695 1.386 . S
C694 C696 1.391 . S
C695 C694 1.386 . S
C695 C699 1.393 . S
C696 H688 0.950 . S
C696 C694 1.391 . S
C696 C697 1.400 . S
C697 C696 1.400 . S
C697 C698 1.398 . S
C697 C703 1.491 . S
C698 H689 0.950 . S
C698 C697 1.398 . S
C698 C699 1.391 . S
C699 H687 0.950 . S
C699 C695 1.393 . S
C699 C698 1.391 . S
C700 H690 0.950 . S
C700 C701 1.386 . S
C700 C702 1.391 . S
C701 C700 1.386 . S
C701 C705 1.393 . S
C702 H691 0.950 . S
C702 C700 1.391 . S
C702 C703 1.400 . S
C703 C697 1.491 . S
C703 C702 1.400 . S
C703 C704 1.398 . S
C704 H692 0.950 . S
C704 C703 1.398 . S
C704 C705 1.391 . S
C705 H693 0.950 . S
C705 C701 1.393 . S
C705 C704 1.391 . S
H706 C714 0.950 . S
H707 C719 0.950 . S
H708 C716 0.950 . S
H709 C718 0.950 . S
H710 C720 0.950 . S
H711 C722 0.950 . S
H712 C724 0.950 . S
H713 C725 0.950 . S
C714 H706 0.950 . S
C714 C715 1.386 . S
C714 C716 1.391 . S
C715 C714 1.386 . S
C715 C719 1.393 . S
C716 H708 0.950 . S
C716 C714 1.391 . S
C716 C717 1.400 . S
C717 C716 1.400 . S
C717 C718 1.398 . S
C717 C723 1.491 . S
C718 H709 0.950 . S
C718 C717 1.398 . S
C718 C719 1.391 . S
C719 H707 0.950 . S
C719 C715 1.393 . S
C719 C718 1.391 . S
C720 H710 0.950 . S
C720 C721 1.386 . S
C720 C722 1.391 . S
C721 C720 1.386 . S
C721 C725 1.393 . S
C722 H711 0.950 . S
C722 C720 1.391 . S
C722 C723 1.400 . S
C723 C717 1.491 . S
C723 C722 1.400 . S
C723 C724 1.398 . S
C724 H712 0.950 . S
C724 C723 1.398 . S
C724 C725 1.391 . S
C725 H713 0.950 . S
C725 C721 1.393 . S
C725 C724 1.391 . S
H726 C734 0.950 . S
H727 C739 0.950 . S
H728 C736 0.950 . S
H729 C738 0.950 . S
H730 C740 0.950 . S
H731 C742 0.950 . S
H732 C744 0.950 . S
H733 C745 0.950 . S
C734 H726 0.950 . S
C734 C735 1.386 . S
C734 C736 1.391 . S
C735 C734 1.386 . S
C735 C739 1.393 . S
C736 H728 0.950 . S
C736 C734 1.391 . S
C736 C737 1.400 . S
C737 C736 1.400 . S
C737 C738 1.398 . S
C737 C743 1.491 . S
C738 H729 0.950 . S
C738 C737 1.398 . S
C738 C739 1.391 . S
C739 H727 0.950 . S
C739 C735 1.393 . S
C739 C738 1.391 . S
C740 H730 0.950 . S
C740 C741 1.386 . S
C740 C742 1.391 . S
C741 C740 1.386 . S
C741 C745 1.393 . S
C742 H731 0.950 . S
C742 C740 1.391 . S
C742 C743 1.400 . S
C743 C737 1.491 . S
C743 C742 1.400 . S
C743 C744 1.398 . S
C744 H732 0.950 . S
C744 C743 1.398 . S
C744 C745 1.391 . S
C745 H733 0.950 . S
C745 C741 1.393 . S
C745 C744 1.391 . S
H746 C754 0.950 . S
H747 C759 0.950 . S
H748 C756 0.950 . S
H749 C758 0.950 . S
H750 C760 0.950 . S
H751 C762 0.950 . S
H752 C764 0.950 . S
H753 C765 0.950 . S
C754 H746 0.950 . S
C754 C755 1.386 . S
C754 C756 1.391 . S
C755 C754 1.386 . S
C755 C759 1.393 . S
C756 H748 0.950 . S
C756 C754 1.391 . S
C756 C757 1.400 . S
C757 C756 1.400 . S
C757 C758 1.398 . S
C757 C763 1.491 . S
C758 H749 0.950 . S
C758 C757 1.398 . S
C758 C759 1.391 . S
C759 H747 0.950 . S
C759 C755 1.393 . S
C759 C758 1.391 . S
C760 H750 0.950 . S
C760 C761 1.386 . S
C760 C762 1.391 . S
C761 C760 1.386 . S
C761 C765 1.393 . S
C762 H751 0.950 . S
C762 C760 1.391 . S
C762 C763 1.400 . S
C763 C757 1.491 . S
C763 C762 1.400 . S
C763 C764 1.398 . S
C764 H752 0.950 . S
C764 C763 1.398 . S
C764 C765 1.391 . S
C765 H753 0.950 . S
C765 C761 1.393 . S
C765 C764 1.391 . S
H766 C774 0.950 . S
H767 C779 0.950 . S
H768 C776 0.950 . S
H769 C778 0.950 . S
H770 C780 0.950 . S
H771 C782 0.950 . S
H772 C784 0.950 . S
H773 C785 0.950 . S
C774 H766 0.950 . S
C774 C775 1.386 . S
C774 C776 1.391 . S
C775 C774 1.386 . S
C775 C779 1.393 . S
C776 H768 0.950 . S
C776 C774 1.391 . S
C776 C777 1.400 . S
C777 C776 1.400 . S
C777 C778 1.398 . S
C777 C783 1.491 . S
C778 H769 0.950 . S
C778 C777 1.398 . S
C778 C779 1.391 . S
C779 H767 0.950 . S
C779 C775 1.393 . S
C779 C778 1.391 . S
C780 H770 0.950 . S
C780 C781 1.386 . S
C780 C782 1.391 . S
C781 C780 1.386 . S
C781 C785 1.393 . S
C782 H771 0.950 . S
C782 C780 1.391 . S
C782 C783 1.400 . S
C783 C777 1.491 . S
C783 C782 1.400 . S
C783 C784 1.398 . S
C784 H772 0.950 . S
C784 C783 1.398 . S
C784 C785 1.391 . S
C785 H773 0.950 . S
C785 C781 1.393 . S
C785 C784 1.391 . S
H786 C794 0.950 . S
H787 C799 0.950 . S
H788 C796 0.950 . S
H789 C798 0.950 . S
H790 C800 0.950 . S
H791 C802 0.950 . S
H792 C804 0.950 . S
H793 C805 0.950 . S
C794 H786 0.950 . S
C794 C795 1.386 . S
C794 C796 1.391 . S
C795 C794 1.386 . S
C795 C799 1.393 . S
C796 H788 0.950 . S
C796 C794 1.391 . S
C796 C797 1.400 . S
C797 C796 1.400 . S
C797 C798 1.398 . S
C797 C803 1.491 . S
C798 H789 0.950 . S
C798 C797 1.398 . S
C798 C799 1.391 . S
C799 H787 0.950 . S
C799 C795 1.393 . S
C799 C798 1.391 . S
C800 H790 0.950 . S
C800 C801 1.386 . S
C800 C802 1.391 . S
C801 C800 1.386 . S
C801 C805 1.393 . S
C802 H791 0.950 . S
C802 C800 1.391 . S
C802 C803 1.400 . S
C803 C797 1.491 . S
C803 C802 1.400 . S
C803 C804 1.398 . S
C804 H792 0.950 . S
C804 C803 1.398 . S
C804 C805 1.391 . S
C805 H793 0.950 . S
C805 C801 1.393 . S
C805 C804 1.391 . S
H806 C814 0.950 . S
H807 C819 0.950 . S
H808 C816 0.950 . S
H809 C818 0.950 . S
H810 C820 0.950 . S
H811 C822 0.950 . S
H812 C824 0.950 . S
H813 C825 0.950 . S
C814 H806 0.950 . S
C814 C815 1.386 . S
C814 C816 1.391 . S
C815 C814 1.386 . S
C815 C819 1.393 . S
C816 H808 0.950 . S
C816 C814 1.391 . S
C816 C817 1.400 . S
C817 C816 1.400 . S
C817 C818 1.398 . S
C817 C823 1.491 . S
C818 H809 0.950 . S
C818 C817 1.398 . S
C818 C819 1.391 . S
C819 H807 0.950 . S
C819 C815 1.393 . S
C819 C818 1.391 . S
C820 H810 0.950 . S
C820 C821 1.386 . S
C820 C822 1.391 . S
C821 C820 1.386 . S
C821 C825 1.393 . S
C822 H811 0.950 . S
C822 C820 1.391 . S
C822 C823 1.400 . S
C823 C817 1.491 . S
C823 C822 1.400 . S
C823 C824 1.398 . S
C824 H812 0.950 . S
C824 C823 1.398 . S
C824 C825 1.391 . S
C825 H813 0.950 . S
C825 C821 1.393 . S
C825 C824 1.391 . S
H826 C834 0.950 . S
H827 C839 0.950 . S
H828 C836 0.950 . S
H829 C838 0.950 . S
H830 C840 0.950 . S
H831 C842 0.950 . S
H832 C844 0.950 . S
H833 C845 0.950 . S
C834 H826 0.950 . S
C834 C835 1.386 . S
C834 C836 1.391 . S
C835 C834 1.386 . S
C835 C839 1.393 . S
C836 H828 0.950 . S
C836 C834 1.391 . S
C836 C837 1.400 . S
C837 C836 1.400 . S
C837 C838 1.398 . S
C837 C843 1.491 . S
C838 H829 0.950 . S
C838 C837 1.398 . S
C838 C839 1.391 . S
C839 H827 0.950 . S
C839 C835 1.393 . S
C839 C838 1.391 . S
C840 H830 0.950 . S
C840 C841 1.386 . S
C840 C842 1.391 . S
C841 C840 1.386 . S
C841 C845 1.393 . S
C842 H831 0.950 . S
C842 C840 1.391 . S
C842 C843 1.400 . S
C843 C837 1.491 . S
C843 C842 1.400 . S
C843 C844 1.398 . S
C844 H832 0.950 . S
C844 C843 1.398 . S
C844 C845 1.391 . S
C845 H833 0.950 . S
C845 C841 1.393 . S
C845 C844 1.391 . S
H846 C854 0.950 . S
H847 C859 0.950 . S
H848 C856 0.950 . S
H849 C858 0.950 . S
H850 C860 0.950 . S
H851 C862 0.950 . S
H852 C864 0.950 . S
H853 C865 0.950 . S
C854 H846 0.950 . S
C854 C855 1.386 . S
C854 C856 1.391 . S
C855 C854 1.386 . S
C855 C859 1.393 . S
C856 H848 0.950 . S
C856 C854 1.391 . S
C856 C857 1.400 . S
C857 C856 1.400 . S
C857 C858 1.398 . S
C857 C863 1.491 . S
C858 H849 0.950 . S
C858 C857 1.398 . S
C858 C859 1.391 . S
C859 H847 0.950 . S
C859 C855 1.393 . S
C859 C858 1.391 . S
C860 H850 0.950 . S
C860 C861 1.386 . S
C860 C862 1.391 . S
C861 C860 1.386 . S
C861 C865 1.393 . S
C862 H851 0.950 . S
C862 C860 1.391 . S
C862 C863 1.400 . S
C863 C857 1.491 . S
C863 C862 1.400 . S
C863 C864 1.398 . S
C864 H852 0.950 . S
C864 C863 1.398 . S
C864 C865 1.391 . S
C865 H853 0.950 . S
C865 C861 1.393 . S
C865 C864 1.391 . S
H866 C874 0.950 . S
H867 C879 0.950 . S
H868 C876 0.950 . S
H869 C878 0.950 . S
H870 C880 0.950 . S
H871 C882 0.950 . S
H872 C884 0.950 . S
H873 C885 0.950 . S
C874 H866 0.950 . S
C874 C875 1.386 . S
C874 C876 1.391 . S
C875 C874 1.386 . S
C875 C879 1.393 . S
C876 H868 0.950 . S
C876 C874 1.391 . S
C876 C877 1.400 . S
C877 C876 1.400 . S
C877 C878 1.398 . S
C877 C883 1.491 . S
C878 H869 0.950 . S
C878 C877 1.398 . S
C878 C879 1.391 . S
C879 H867 0.950 . S
C879 C875 1.393 . S
C879 C878 1.391 . S
C880 H870 0.950 . S
C880 C881 1.386 . S
C880 C882 1.391 . S
C881 C880 1.386 . S
C881 C885 1.393 . S
C882 H871 0.950 . S
C882 C880 1.391 . S
C882 C883 1.400 . S
C883 C877 1.491 . S
C883 C882 1.400 . S
C883 C884 1.398 . S
C884 H872 0.950 . S
C884 C883 1.398 . S
C884 C885 1.391 . S
C885 H873 0.950 . S
C885 C881 1.393 . S
C885 C884 1.391 . S
H886 C894 0.950 . S
H887 C899 0.950 . S
H888 C896 0.950 . S
H889 C898 0.950 . S
H890 C900 0.950 . S
H891 C902 0.950 . S
H892 C904 0.950 . S
H893 C905 0.950 . S
C894 H886 0.950 . S
C894 C895 1.386 . S
C894 C896 1.391 . S
C895 C894 1.386 . S
C895 C899 1.393 . S
C896 H888 0.950 . S
C896 C894 1.391 . S
C896 C897 1.400 . S
C897 C896 1.400 . S
C897 C898 1.398 . S
C897 C903 1.491 . S
C898 H889 0.950 . S
C898 C897 1.398 . S
C898 C899 1.391 . S
C899 H887 0.950 . S
C899 C895 1.393 . S
C899 C898 1.391 . S
C900 H890 0.950 . S
C900 C901 1.386 . S
C900 C902 1.391 . S
C901 C900 1.386 . S
C901 C905 1.393 . S
C902 H891 0.950 . S
C902 C900 1.391 . S
C902 C903 1.400 . S
C903 C897 1.491 . S
C903 C902 1.400 . S
C903 C904 1.398 . S
C904 H892 0.950 . S
C904 C903 1.398 . S
C904 C905 1.391 . S
C905 H893 0.950 . S
C905 C901 1.393 . S
C905 C904 1.391 . S
C435 C39 1.675 . S
C441 C332 1.584 . S
C455 C91 1.634 . S
C461 C343 1.555 . S
C481 C362 1.424 . S
C475 C128 1.484 . S
C501 C379 1.411 . S
C495 C188 1.446 . S
C521 C406 1.496 . S
C515 C250 1.531 . S
C541 C415 1.572 . S
C535 C304 1.636 . S
C555 C75 1.570 . S
C561 C368 1.498 . S
C575 C144 1.671 . S
C581 C388 1.602 . S
C601 C397 1.524 . S
C595 C198 1.611 . S
C621 C424 1.421 . S
C615 C234 1.474 . S
C635 C294 1.432 . S
C641 C326 1.390 . S
C661 C352 1.436 . S
C655 C29 1.480 . S
C681 C380 1.625 . S
C675 C38 1.721 . S
C695 C92 1.674 . S
C701 C404 1.612 . S
C721 C416 1.468 . S
C715 C135 1.532 . S
C735 C181 1.497 . S
C741 C334 1.427 . S
C755 C251 1.575 . S
C761 C344 1.510 . S
C775 C303 1.684 . S
C781 C361 1.577 . S
C795 C82 1.619 . S
C801 C422 1.536 . S
C821 C325 1.618 . S
C815 C145 1.717 . S
C835 C197 1.659 . S
C841 C350 1.573 . S
C855 C241 1.519 . S
C861 C370 1.422 . S
C875 C287 1.473 . S
C881 C386 1.427 . S
C895 C22 1.511 . S
C901 C398 1.459 . S
