# Generated by pormake.
# Topology nom, (4,4)-cn, num edge types: 1
# Building blocks:
#     Node 0, Type 0, BuildingBlock: NAHDIM_clean_linker_0, # of connection points: 4
#     Node 1, Type 0, BuildingBlock: NAHDIM_clean_linker_0, # of connection points: 4
#     Node 2, Type 0, BuildingBlock: NAHDIM_clean_linker_0, # of connection points: 4
#     Node 3, Type 0, BuildingBlock: NAHDIM_clean_linker_0, # of connection points: 4
#     Node 4, Type 0, BuildingBlock: NAHDIM_clean_linker_0, # of connection points: 4
#     Node 5, Type 0, BuildingBlock: NAHDIM_clean_linker_0, # of connection points: 4
#     Node 6, Type 1, BuildingBlock: KUFVIS_clean_sbu_0, # of connection points: 4
#     Node 7, Type 1, BuildingBlock: KUFVIS_clean_sbu_0, # of connection points: 4
#     Node 8, Type 1, BuildingBlock: KUFVIS_clean_sbu_0, # of connection points: 4
#     Node 9, Type 1, BuildingBlock: KUFVIS_clean_sbu_0, # of connection points: 4
#     Node 10, Type 1, BuildingBlock: KUFVIS_clean_sbu_0, # of connection points: 4
#     Node 11, Type 1, BuildingBlock: KUFVIS_clean_sbu_0, # of connection points: 4
#     Edge 12, Type (0, 1), BuildingBlock: XUDNAN_clean_linker_2, # of connection points: 2
#     Edge 13, Type (0, 1), BuildingBlock: XUDNAN_clean_linker_2, # of connection points: 2
#     Edge 14, Type (0, 1), BuildingBlock: XUDNAN_clean_linker_2, # of connection points: 2
#     Edge 15, Type (0, 1), BuildingBlock: XUDNAN_clean_linker_2, # of connection points: 2
#     Edge 16, Type (0, 1), BuildingBlock: XUDNAN_clean_linker_2, # of connection points: 2
#     Edge 17, Type (0, 1), BuildingBlock: XUDNAN_clean_linker_2, # of connection points: 2
#     Edge 18, Type (0, 1), BuildingBlock: XUDNAN_clean_linker_2, # of connection points: 2
#     Edge 19, Type (0, 1), BuildingBlock: XUDNAN_clean_linker_2, # of connection points: 2
#     Edge 20, Type (0, 1), BuildingBlock: XUDNAN_clean_linker_2, # of connection points: 2
#     Edge 21, Type (0, 1), BuildingBlock: XUDNAN_clean_linker_2, # of connection points: 2
#     Edge 22, Type (0, 1), BuildingBlock: XUDNAN_clean_linker_2, # of connection points: 2
#     Edge 23, Type (0, 1), BuildingBlock: XUDNAN_clean_linker_2, # of connection points: 2
#     Edge 24, Type (0, 1), BuildingBlock: XUDNAN_clean_linker_2, # of connection points: 2
#     Edge 25, Type (0, 1), BuildingBlock: XUDNAN_clean_linker_2, # of connection points: 2
#     Edge 26, Type (0, 1), BuildingBlock: XUDNAN_clean_linker_2, # of connection points: 2
#     Edge 27, Type (0, 1), BuildingBlock: XUDNAN_clean_linker_2, # of connection points: 2
#     Edge 28, Type (0, 1), BuildingBlock: XUDNAN_clean_linker_2, # of connection points: 2
#     Edge 29, Type (0, 1), BuildingBlock: XUDNAN_clean_linker_2, # of connection points: 2
#     Edge 30, Type (0, 1), BuildingBlock: XUDNAN_clean_linker_2, # of connection points: 2
#     Edge 31, Type (0, 1), BuildingBlock: XUDNAN_clean_linker_2, # of connection points: 2
#     Edge 32, Type (0, 1), BuildingBlock: XUDNAN_clean_linker_2, # of connection points: 2
#     Edge 33, Type (0, 1), BuildingBlock: XUDNAN_clean_linker_2, # of connection points: 2
#     Edge 34, Type (0, 1), BuildingBlock: XUDNAN_clean_linker_2, # of connection points: 2
#     Edge 35, Type (0, 1), BuildingBlock: XUDNAN_clean_linker_2, # of connection points: 2
# Relax obj value: 0.043
# Max RMSD: 0.131
# Mean RMSD: 0.094
data_MOF--net-nom--node1-KUFVIS_clean_sbu_0--node2-NAHDIM_clean_linker_0--edge1-XUDNAN_clean_linker_2
_symmetry_space_group_name_H-M    P1
_symmetry_Int_Tables_number       1
_symmetry_cell_setting            triclinic
loop_
_symmetry_equiv_pos_as_xyz
'x, y, z'
_cell_length_a     57.513247
_cell_length_b     58.211
_cell_length_c     70.277753
_cell_angle_alpha  90.752133
_cell_angle_beta   90.836946
_cell_angle_gamma 119.98344
loop_
_atom_site_label
_atom_site_type_symbol
_atom_site_fract_x
_atom_site_fract_y
_atom_site_fract_z
_atom_type_partial_charge
C0 C 0.16214 0.64635 0.24919 0.0
C1 C 0.17425 0.62927 0.25533 0.0
C2 C 0.14625 0.60536 0.2812 0.0
C3 C 0.13921 0.57866 0.28116 0.0
C4 C 0.11337 0.55908 0.28628 0.0
C5 C 0.09418 0.56653 0.29112 0.0
C6 C 0.10168 0.59373 0.29171 0.0
C7 C 0.12792 0.61289 0.28714 0.0
C8 C 0.10631 0.53039 0.28585 0.0
C9 C 0.08171 0.60256 0.29626 0.0
C10 C 0.94016 0.46942 0.17923 0.0
C11 C 0.96362 0.48676 0.1919 0.0
C12 C 0.98051 0.48471 0.22379 0.0
C13 C 0.99097 0.51164 0.22871 0.0
C14 C 0.00407 0.52197 0.24637 0.0
C15 C 0.00796 0.50537 0.25902 0.0
C16 C 0.99845 0.47851 0.25373 0.0
C17 C 0.98427 0.46842 0.23638 0.0
C18 C 0.01368 0.55069 0.25145 0.0
C19 C 0.00331 0.46041 0.26629 0.0
C20 C 0.88498 0.44997 0.35067 0.0
C21 C 0.89779 0.47671 0.34547 0.0
C22 C 0.92589 0.49202 0.34522 0.0
C23 C 0.94153 0.4802 0.34984 0.0
C24 C 0.92874 0.45347 0.35548 0.0
C25 C 0.9006 0.43883 0.35609 0.0
C26 C 0.93884 0.52082 0.33992 0.0
C27 C 0.94477 0.44027 0.36061 0.0
C28 C 0.11617 0.6082 0.42692 0.0
C29 C 0.10101 0.58029 0.43502 0.0
C30 C 0.05918 0.55849 0.41667 0.0
C31 C 0.04404 0.56846 0.40822 0.0
C32 C 0.02945 0.55723 0.39117 0.0
C33 C 0.02939 0.53493 0.3828 0.0
C34 C 0.04375 0.52403 0.39184 0.0
C35 C 0.05875 0.53614 0.40862 0.0
C36 C 0.01438 0.56939 0.382 0.0
C37 C 0.04329 0.49964 0.38378 0.0
C38 C 0.06564 0.54592 0.29343 0.0
C39 C 0.05042 0.53375 0.27687 0.0
C40 C 0.02275 0.51644 0.27743 0.0
C41 C 0.00972 0.51094 0.2951 0.0
C42 C 0.98174 0.49455 0.29618 0.0
C43 C 0.96914 0.48922 0.31362 0.0
C44 C 0.98396 0.50045 0.33065 0.0
C45 C 0.97121 0.49575 0.34838 0.0
C46 C 0.98658 0.50689 0.36507 0.0
C47 C 0.01447 0.52318 0.36455 0.0
C48 C 0.02752 0.52863 0.34689 0.0
C49 C 0.05544 0.54558 0.34576 0.0
C50 C 0.06804 0.55099 0.3283 0.0
C51 C 0.05318 0.53987 0.31129 0.0
C52 C 0.02507 0.52247 0.3121 0.0
C53 C 0.01219 0.51706 0.32991 0.0
C54 C 0.8258 0.41096 0.32639 0.0
C55 C 0.83913 0.43596 0.33924 0.0
O56 O 0.17026 0.62381 0.27453 0.0
O57 O 0.07362 0.57045 0.43282 0.0
O58 O 0.85781 0.43453 0.35113 0.0
O59 O 0.96641 0.47355 0.20729 0.0
H60 H 0.16418 0.61027 0.24687 0.0
H61 H 0.13998 0.6351 0.25049 0.0
H62 H 0.17049 0.66472 0.25819 0.0
H63 H 0.1665 0.65189 0.23405 0.0
H64 H 0.15377 0.57319 0.27668 0.0
H65 H 0.13383 0.63373 0.28726 0.0
H66 H 0.09341 0.52021 0.2731 0.0
H67 H 0.12447 0.52831 0.28524 0.0
H68 H 0.09481 0.5202 0.29862 0.0
H69 H 0.08996 0.62408 0.29393 0.0
H70 H 0.06317 0.59124 0.28732 0.0
H71 H 0.07598 0.59855 0.31137 0.0
H72 H 0.9829 0.49959 0.1847 0.0
H73 H 0.94919 0.4686 0.16528 0.0
H74 H 0.93375 0.44827 0.18283 0.0
H75 H 0.91415 0.48564 0.18204 0.0
H76 H 0.98876 0.52473 0.21902 0.0
H77 H 0.97634 0.44773 0.23242 0.0
H78 H 0.03585 0.5624 0.2503 0.0
H79 H 0.00474 0.55938 0.24185 0.0
H80 H 0.00867 0.55274 0.26635 0.0
H81 H 0.99957 0.44209 0.25851 0.0
H82 H 0.02426 0.47075 0.27208 0.0
H83 H 0.98964 0.45449 0.2785 0.0
H84 H 0.84887 0.45278 0.32936 0.0
H85 H 0.8861 0.48596 0.34185 0.0
H86 H 0.89059 0.41832 0.36037 0.0
H87 H 0.94772 0.5234 0.32566 0.0
H88 H 0.92421 0.528 0.3395 0.0
H89 H 0.95533 0.53343 0.35024 0.0
H90 H 0.93174 0.41882 0.36341 0.0
H91 H 0.95846 0.44248 0.3489 0.0
H92 H 0.95741 0.45015 0.37353 0.0
H93 H 0.10702 0.56744 0.42713 0.0
H94 H 0.13821 0.61639 0.42828 0.0
H95 H 0.11088 0.60747 0.41157 0.0
H96 H 0.11079 0.6217 0.43453 0.0
H97 H 0.04429 0.58554 0.41476 0.0
H98 H 0.06983 0.52795 0.4156 0.0
H99 H 0.01975 0.57338 0.36681 0.0
H100 H 0.99247 0.55522 0.38245 0.0
H101 H 0.01864 0.58821 0.38927 0.0
H102 H 0.05256 0.49169 0.39374 0.0
H103 H 0.0223 0.48389 0.3804 0.0
H104 H 0.05447 0.50462 0.37031 0.0
H105 H 0.06017 0.53843 0.26323 0.0
H106 H 0.96922 0.48567 0.28354 0.0
H107 H 0.94757 0.47628 0.31355 0.0
H108 H 0.97665 0.5032 0.37862 0.0
H109 H 0.06789 0.55496 0.35835 0.0
H110 H 0.08958 0.56412 0.32827 0.0
H111 H 0.81617 0.3928 0.33504 0.0
H112 H 0.81066 0.41133 0.3166 0.0
H113 H 0.84126 0.4101 0.31759 0.0
C114 C 0.4433 0.86437 0.55885 0.0
C115 C 0.42772 0.85944 0.53989 0.0
C116 C 0.43465 0.90349 0.5319 0.0
C117 C 0.46186 0.91474 0.52715 0.0
C118 C 0.4768 0.94128 0.52172 0.0
C119 C 0.46443 0.95702 0.52106 0.0
C120 C 0.43706 0.94578 0.5256 0.0
C121 C 0.42252 0.91912 0.53092 0.0
C122 C 0.506 0.95267 0.51697 0.0
C123 C 0.42331 0.96207 0.52507 0.0
C124 C 0.58475 0.07022 0.61352 0.0
C125 C 0.5625 0.07725 0.61148 0.0
C126 C 0.55309 0.07758 0.57816 0.0
C127 C 0.52696 0.07189 0.57375 0.0
C128 C 0.51351 0.05718 0.55719 0.0
C129 C 0.52654 0.04782 0.545 0.0
C130 C 0.55321 0.054 0.54935 0.0
C131 C 0.56632 0.06919 0.56581 0.0
C132 C 0.48522 0.0512 0.55291 0.0
C133 C 0.5676 0.04404 0.53688 0.0
C134 C 0.58173 0.1487 0.43978 0.0
C135 C 0.55645 0.1421 0.44669 0.0
C136 C 0.53761 0.11569 0.45073 0.0
C137 C 0.54455 0.09569 0.4482 0.0
C138 C 0.56998 0.10237 0.44098 0.0
C139 C 0.58806 0.12879 0.43654 0.0
C140 C 0.5103 0.10916 0.45765 0.0
C141 C 0.57816 0.08167 0.43806 0.0
C142 C 0.39304 0.92097 0.38065 0.0
C143 C 0.42201 0.92655 0.38175 0.0
C144 C 0.45303 0.97062 0.39333 0.0
C145 C 0.44309 0.98618 0.40095 0.0
C146 C 0.45609 0.00337 0.41661 0.0
C147 C 0.47978 0.00521 0.42449 0.0
C148 C 0.49026 0.98995 0.41638 0.0
C149 C 0.47656 0.9726 0.40093 0.0
C150 C 0.44437 0.01931 0.42488 0.0
C151 C 0.5158 0.99186 0.42412 0.0
C152 C 0.48064 0.98558 0.51653 0.0
C153 C 0.49472 0.00344 0.53152 0.0
C154 C 0.51179 0.03039 0.52831 0.0
C155 C 0.515 0.03998 0.50959 0.0
C156 C 0.53231 0.0669 0.5058 0.0
C157 C 0.53588 0.076 0.48727 0.0
C158 C 0.52182 0.05866 0.47184 0.0
C159 C 0.52528 0.06774 0.45294 0.0
C160 C 0.51107 0.04989 0.43795 0.0
C161 C 0.49356 0.02304 0.44122 0.0
C162 C 0.48981 0.01358 0.46001 0.0
C163 C 0.47232 0.98668 0.46383 0.0
C164 C 0.46926 0.97745 0.48232 0.0
C165 C 0.48331 0.99481 0.49772 0.0
C166 C 0.50068 0.0221 0.49425 0.0
C167 C 0.50401 0.03148 0.47536 0.0
C168 C 0.63685 0.20534 0.45476 0.0
C169 C 0.60812 0.19585 0.44766 0.0
O170 O 0.41952 0.87798 0.53766 0.0
O171 O 0.43951 0.95322 0.37885 0.0
O172 O 0.60009 0.174 0.43561 0.0
O173 O 0.56525 0.09048 0.59468 0.0
H174 H 0.44117 0.86102 0.52816 0.0
H175 H 0.4622 0.88378 0.55886 0.0
H176 H 0.43125 0.86459 0.57099 0.0
H177 H 0.44864 0.84868 0.56105 0.0
H178 H 0.47182 0.90319 0.52781 0.0
H179 H 0.40158 0.91039 0.53455 0.0
H180 H 0.51873 0.96874 0.52743 0.0
H181 H 0.51232 0.93749 0.51715 0.0
H182 H 0.50974 0.96156 0.50267 0.0
H183 H 0.40179 0.95033 0.52875 0.0
H184 H 0.43362 0.97919 0.53524 0.0
H185 H 0.42478 0.97017 0.51064 0.0
H186 H 0.54279 0.0584 0.61128 0.0
H187 H 0.58336 0.06065 0.62737 0.0
H188 H 0.58263 0.056 0.60202 0.0
H189 H 0.60486 0.08829 0.61267 0.0
H190 H 0.51704 0.07866 0.58345 0.0
H191 H 0.58668 0.07399 0.56936 0.0
H192 H 0.47115 0.02961 0.5543 0.0
H193 H 0.47897 0.06217 0.56268 0.0
H194 H 0.48345 0.0564 0.53801 0.0
H195 H 0.58761 0.04913 0.54293 0.0
H196 H 0.55532 0.02216 0.53495 0.0
H197 H 0.57037 0.05281 0.5226 0.0
H198 H 0.59518 0.19044 0.46036 0.0
H199 H 0.55133 0.15754 0.44859 0.0
H200 H 0.60755 0.13415 0.43094 0.0
H201 H 0.50843 0.10329 0.47275 0.0
H202 H 0.50687 0.12626 0.45658 0.0
H203 H 0.49431 0.0921 0.44928 0.0
H204 H 0.59965 0.09058 0.43441 0.0
H205 H 0.57452 0.06991 0.45112 0.0
H206 H 0.56575 0.06778 0.42632 0.0
H207 H 0.42545 0.92112 0.39628 0.0
H208 H 0.37879 0.89951 0.38259 0.0
H209 H 0.38982 0.93232 0.39212 0.0
H210 H 0.38864 0.92695 0.36671 0.0
H211 H 0.42485 0.98444 0.39483 0.0
H212 H 0.48404 0.96044 0.39478 0.0
H213 H 0.44107 0.01552 0.44033 0.0
H214 H 0.45879 0.0408 0.42336 0.0
H215 H 0.42503 0.01452 0.41779 0.0
H216 H 0.52253 0.9805 0.41518 0.0
H217 H 0.53206 0.01294 0.42502 0.0
H218 H 0.51254 0.98403 0.43874 0.0
H219 H 0.49271 0.99617 0.54589 0.0
H220 H 0.5435 0.08119 0.51712 0.0
H221 H 0.54978 0.09686 0.48522 0.0
H222 H 0.51396 0.05695 0.42348 0.0
H223 H 0.46093 0.97241 0.45254 0.0
H224 H 0.45571 0.95652 0.48439 0.0
H225 H 0.6437 0.22228 0.46504 0.0
H226 H 0.63768 0.18898 0.46212 0.0
H227 H 0.65077 0.21158 0.44264 0.0
C228 C 0.62442 0.45655 0.72424 0.0
C229 C 0.61212 0.44097 0.70551 0.0
C230 C 0.57273 0.44633 0.69944 0.0
C231 C 0.5871 0.47351 0.69526 0.0
C232 C 0.57358 0.48732 0.69076 0.0
C233 C 0.54519 0.47369 0.69016 0.0
C234 C 0.5307 0.44629 0.69403 0.0
C235 C 0.5447 0.43304 0.69871 0.0
C236 C 0.58961 0.51654 0.6867 0.0
C237 C 0.50041 0.43103 0.69331 0.0
C238 C 0.42664 0.54032 0.77299 0.0
C239 C 0.43689 0.53897 0.75403 0.0
C240 C 0.47567 0.53758 0.7421 0.0
C241 C 0.46277 0.51059 0.73672 0.0
C242 C 0.47371 0.50137 0.72294 0.0
C243 C 0.49837 0.51941 0.71469 0.0
C244 C 0.51249 0.54617 0.72122 0.0
C245 C 0.50093 0.55491 0.73493 0.0
C246 C 0.45848 0.47253 0.7167 0.0
C247 C 0.53915 0.56574 0.71307 0.0
C248 C 0.43145 0.55839 0.60958 0.0
C249 C 0.41816 0.53124 0.61315 0.0
C250 C 0.43246 0.51822 0.61759 0.0
C251 C 0.46084 0.5328 0.61847 0.0
C252 C 0.4745 0.5603 0.61496 0.0
C253 C 0.45971 0.57285 0.61062 0.0
C254 C 0.41728 0.48887 0.62129 0.0
C255 C 0.50479 0.57639 0.61574 0.0
C256 C 0.4798 0.40493 0.53388 0.0
C257 C 0.50882 0.42319 0.54119 0.0
C258 C 0.51017 0.45906 0.56092 0.0
C259 C 0.49301 0.44324 0.5752 0.0
C260 C 0.48862 0.45482 0.59138 0.0
C261 C 0.50287 0.4828 0.59386 0.0
C262 C 0.52078 0.49873 0.57974 0.0
C263 C 0.52372 0.48661 0.56328 0.0
C264 C 0.46833 0.43701 0.60558 0.0
C265 C 0.53665 0.52858 0.58187 0.0
C266 C 0.53057 0.48809 0.68576 0.0
C267 C 0.52279 0.49823 0.70101 0.0
C268 C 0.50781 0.51081 0.69795 0.0
C269 C 0.50044 0.51358 0.67919 0.0
C270 C 0.48521 0.52598 0.67564 0.0
C271 C 0.47754 0.52812 0.6572 0.0
C272 C 0.48455 0.51771 0.64159 0.0
C273 C 0.47632 0.51927 0.62284 0.0
C274 C 0.48278 0.50787 0.60771 0.0
C275 C 0.49793 0.49543 0.61065 0.0
C276 C 0.50714 0.49444 0.62925 0.0
C277 C 0.52315 0.48288 0.63273 0.0
C278 C 0.53096 0.48086 0.6512 0.0
C279 C 0.52342 0.49071 0.66688 0.0
C280 C 0.50813 0.50334 0.66363 0.0
C281 C 0.50002 0.50525 0.6448 0.0
C282 C 0.43453 0.60068 0.57989 0.0
C283 C 0.42509 0.5957 0.6005 0.0
O284 O 0.58484 0.43219 0.70439 0.0
O285 O 0.51365 0.44873 0.54446 0.0
O286 O 0.41622 0.56955 0.60507 0.0
O287 O 0.46416 0.54748 0.75391 0.0
H288 H 0.62234 0.45413 0.6934 0.0
H289 H 0.62264 0.47466 0.72492 0.0
H290 H 0.61404 0.4443 0.73667 0.0
H291 H 0.64608 0.4628 0.72535 0.0
H292 H 0.6088 0.48421 0.69562 0.0
H293 H 0.53375 0.41211 0.70187 0.0
H294 H 0.58403 0.52781 0.69671 0.0
H295 H 0.61161 0.52444 0.68803 0.0
H296 H 0.58474 0.52005 0.67207 0.0
H297 H 0.49213 0.4095 0.69563 0.0
H298 H 0.49269 0.43903 0.70442 0.0
H299 H 0.49289 0.43356 0.67931 0.0
H300 H 0.42391 0.5208 0.7452 0.0
H301 H 0.41176 0.51909 0.7763 0.0
H302 H 0.44216 0.54204 0.7838 0.0
H303 H 0.41533 0.5699 0.76999 0.0
H304 H 0.44399 0.49671 0.7431 0.0
H305 H 0.51106 0.57558 0.73952 0.0
H306 H 0.45367 0.47085 0.70121 0.0
H307 H 0.47121 0.46345 0.71917 0.0
H308 H 0.43947 0.46106 0.72445 0.0
H309 H 0.54899 0.58497 0.72111 0.0
H310 H 0.5528 0.55739 0.71313 0.0
H311 H 0.53606 0.56945 0.69804 0.0
H312 H 0.44201 0.6092 0.61027 0.0
H313 H 0.39641 0.52022 0.61235 0.0
H314 H 0.47047 0.59388 0.60796 0.0
H315 H 0.42298 0.48515 0.63561 0.0
H316 H 0.39518 0.48048 0.62052 0.0
H317 H 0.42282 0.47823 0.61069 0.0
H318 H 0.51247 0.59755 0.61241 0.0
H319 H 0.51231 0.57533 0.63015 0.0
H320 H 0.51313 0.56791 0.60545 0.0
H321 H 0.51154 0.41482 0.55466 0.0
H322 H 0.47721 0.3857 0.52857 0.0
H323 H 0.4654 0.4006 0.54545 0.0
H324 H 0.47438 0.41433 0.52231 0.0
H325 H 0.48242 0.42188 0.57368 0.0
H326 H 0.53692 0.49867 0.55219 0.0
H327 H 0.47899 0.43508 0.61819 0.0
H328 H 0.45586 0.44548 0.61049 0.0
H329 H 0.45481 0.41679 0.5995 0.0
H330 H 0.5533 0.53755 0.57166 0.0
H331 H 0.52314 0.53673 0.57919 0.0
H332 H 0.54516 0.53466 0.59656 0.0
H333 H 0.52799 0.49582 0.71546 0.0
H334 H 0.47894 0.53415 0.68708 0.0
H335 H 0.46578 0.53781 0.65536 0.0
H336 H 0.47581 0.50861 0.59342 0.0
H337 H 0.52961 0.47502 0.62121 0.0
H338 H 0.54292 0.47138 0.65303 0.0
H339 H 0.41804 0.58716 0.56986 0.0
H340 H 0.44124 0.62155 0.57617 0.0
H341 H 0.45169 0.59727 0.57798 0.0
C342 C 0.17925 0.61552 0.90464 0.0
C343 C 0.18066 0.60528 0.88472 0.0
C344 C 0.13501 0.56781 0.87808 0.0
C345 C 0.12255 0.58314 0.87544 0.0
C346 C 0.09506 0.57105 0.87076 0.0
C347 C 0.07967 0.54312 0.86871 0.0
C348 C 0.09203 0.52762 0.87152 0.0
C349 C 0.11957 0.54022 0.87616 0.0
C350 C 0.08242 0.58812 0.8679 0.0
C351 C 0.07615 0.49778 0.86949 0.0
C352 C 0.88871 0.44407 0.94445 0.0
C353 C 0.89987 0.4568 0.92611 0.0
C354 C 0.94475 0.48884 0.91636 0.0
C355 C 0.95278 0.47091 0.91007 0.0
C356 C 0.97322 0.47849 0.8968 0.0
C357 C 0.98597 0.50456 0.8898 0.0
C358 C 0.97916 0.52316 0.89709 0.0
C359 C 0.95872 0.51507 0.91044 0.0
C360 C 0.98055 0.45838 0.88975 0.0
C361 C 0.99272 0.55125 0.89018 0.0
C362 C 0.88224 0.45507 0.78935 0.0
C363 C 0.89383 0.43929 0.79297 0.0
C364 C 0.92183 0.45053 0.79403 0.0
C365 C 0.93848 0.4782 0.79178 0.0
C366 C 0.9268 0.4938 0.78687 0.0
C367 C 0.89872 0.48188 0.78546 0.0
C368 C 0.93355 0.43305 0.79849 0.0
C369 C 0.94393 0.52326 0.7841 0.0
C370 C 0.13527 0.55871 0.74282 0.0
C371 C 0.11722 0.56674 0.732 0.0
C372 C 0.07189 0.53658 0.74216 0.0
C373 C 0.05834 0.50997 0.74727 0.0
C374 C 0.03885 0.50099 0.76139 0.0
C375 C 0.03246 0.51905 0.77024 0.0
C376 C 0.04504 0.54567 0.76431 0.0
C377 C 0.06466 0.55417 0.75033 0.0
C378 C 0.02565 0.47243 0.76725 0.0
C379 C 0.0381 0.56527 0.773 0.0
C380 C 0.05073 0.5302 0.86332 0.0
C381 C 0.03222 0.5233 0.87789 0.0
C382 C 0.00473 0.51165 0.87376 0.0
C383 C 0.99533 0.50668 0.85458 0.0
C384 C 0.96785 0.49526 0.84993 0.0
C385 C 0.95875 0.49032 0.83107 0.0
C386 C 0.97674 0.49647 0.81607 0.0
C387 C 0.96757 0.49117 0.79684 0.0
C388 C 0.98608 0.49835 0.78225 0.0
C389 C 0.01367 0.51057 0.78635 0.0
C390 C 0.02311 0.51531 0.80553 0.0
C391 C 0.05064 0.52697 0.8102 0.0
C392 C 0.05975 0.53183 0.82909 0.0
C393 C 0.04168 0.52522 0.84407 0.0
C394 C 0.01387 0.51338 0.83971 0.0
C395 C 0.00456 0.50833 0.82042 0.0
C396 C 0.82632 0.44367 0.81459 0.0
C397 C 0.83969 0.42967 0.80488 0.0
O398 O 0.16161 0.57861 0.88255 0.0
O399 O 0.09178 0.54476 0.72933 0.0
O400 O 0.85533 0.44508 0.79019 0.0
O401 O 0.92329 0.48124 0.9277 0.0
H402 H 0.17702 0.61692 0.87384 0.0
H403 H 0.15928 0.61358 0.90676 0.0
H404 H 0.1826 0.60404 0.91578 0.0
H405 H 0.19472 0.63682 0.90645 0.0
H406 H 0.13399 0.6045 0.87701 0.0
H407 H 0.12926 0.52853 0.87826 0.0
H408 H 0.06593 0.58246 0.87807 0.0
H409 H 0.09711 0.6096 0.86997 0.0
H410 H 0.07349 0.58469 0.85331 0.0
H411 H 0.08859 0.48851 0.87256 0.0
H412 H 0.05905 0.48974 0.87933 0.0
H413 H 0.06765 0.49199 0.85478 0.0
H414 H 0.89969 0.44357 0.91439 0.0
H415 H 0.88995 0.42536 0.94414 0.0
H416 H 0.90532 0.4545 0.95553 0.0
H417 H 0.85144 0.44367 0.94572 0.0
H418 H 0.94286 0.45089 0.91532 0.0
H419 H 0.95273 0.52891 0.91566 0.0
H420 H 0.9747 0.45369 0.87446 0.0
H421 H 0.00262 0.46676 0.891 0.0
H422 H 0.97044 0.43966 0.89776 0.0
H423 H 0.98585 0.56359 0.89774 0.0
H424 H 0.01481 0.56058 0.89222 0.0
H425 H 0.98848 0.5511 0.87469 0.0
H426 H 0.85248 0.42794 0.81621 0.0
H427 H 0.88097 0.4183 0.79532 0.0
H428 H 0.8895 0.49376 0.78234 0.0
H429 H 0.94073 0.43644 0.81356 0.0
H430 H 0.91854 0.41166 0.79635 0.0
H431 H 0.95105 0.43807 0.78941 0.0
H432 H 0.93174 0.53262 0.78043 0.0
H433 H 0.95587 0.53295 0.79733 0.0
H434 H 0.95829 0.52704 0.77255 0.0
H435 H 0.11632 0.58229 0.74078 0.0
H436 H 0.15583 0.57604 0.74482 0.0
H437 H 0.12701 0.55145 0.75709 0.0
H438 H 0.13645 0.54263 0.73499 0.0
H439 H 0.06376 0.49645 0.74062 0.0
H440 H 0.07428 0.57451 0.74576 0.0
H441 H 0.02964 0.47154 0.78265 0.0
H442 H 0.00356 0.46289 0.76505 0.0
H443 H 0.03296 0.46092 0.75908 0.0
H444 H 0.04771 0.58448 0.76557 0.0
H445 H 0.016 0.5569 0.77257 0.0
H446 H 0.04486 0.56909 0.78817 0.0
H447 H 0.0393 0.52714 0.89261 0.0
H448 H 0.953 0.49002 0.8608 0.0
H449 H 0.93737 0.48162 0.82845 0.0
H450 H 0.97896 0.49459 0.76754 0.0
H451 H 0.0655 0.53245 0.7993 0.0
H452 H 0.08115 0.54087 0.83179 0.0
H453 H 0.81254 0.43095 0.82572 0.0
H454 H 0.84197 0.46249 0.82151 0.0
H455 H 0.81491 0.4486 0.80414 0.0
C456 C 0.50323 0.88448 0.90628 0.0
C457 C 0.47492 0.8692 0.91434 0.0
C458 C 0.48074 0.8969 0.94164 0.0
C459 C 0.46085 0.90401 0.94125 0.0
C460 C 0.4665 0.92919 0.94785 0.0
C461 C 0.4928 0.94771 0.95455 0.0
C462 C 0.51279 0.94024 0.95524 0.0
C463 C 0.50627 0.91462 0.94914 0.0
C464 C 0.44455 0.9362 0.94723 0.0
C465 C 0.5413 0.95955 0.96169 0.0
C466 C 0.50105 0.05271 0.85472 0.0
C467 C 0.52733 0.07332 0.86462 0.0
C468 C 0.52068 0.06563 0.89849 0.0
C469 C 0.54113 0.06023 0.90356 0.0
C470 C 0.53902 0.04548 0.91974 0.0
C471 C 0.51595 0.03593 0.93103 0.0
C472 C 0.4956 0.0419 0.92617 0.0
C473 C 0.49847 0.05707 0.91008 0.0
C474 C 0.56141 0.04008 0.92478 0.0
C475 C 0.47067 0.03195 0.93781 0.0
C476 C 0.57929 0.14597 0.02873 0.0
C477 C 0.5939 0.13261 0.02768 0.0
C478 C 0.58068 0.10482 0.02676 0.0
C479 C 0.55232 0.09015 0.0272 0.0
C480 C 0.53767 0.10352 0.02966 0.0
C481 C 0.55144 0.13137 0.0305 0.0
C482 C 0.59696 0.09115 0.02465 0.0
C483 C 0.50746 0.08841 0.03053 0.0
C484 C 0.46798 0.90503 0.08857 0.0
C485 C 0.47859 0.92797 0.10326 0.0
C486 C 0.5064 0.96564 0.08284 0.0
C487 C 0.53242 0.98113 0.07624 0.0
C488 C 0.53766 0.9979 0.06076 0.0
C489 C 0.51633 0.99966 0.05195 0.0
C490 C 0.49006 0.98475 0.05899 0.0
C491 C 0.48529 0.96767 0.0742 0.0
C492 C 0.56596 0.01352 0.05371 0.0
C493 C 0.46695 0.98669 0.05031 0.0
C494 C 0.50002 0.97544 0.95945 0.0
C495 C 0.5038 0.99239 0.94442 0.0
C496 C 0.51287 0.01931 0.94773 0.0
C497 C 0.51898 0.02989 0.96653 0.0
C498 C 0.52969 0.05715 0.97028 0.0
C499 C 0.53596 0.06743 0.9888 0.0
C500 C 0.53143 0.05079 0.00434 0.0
C501 C 0.53808 0.06114 0.02319 0.0
C502 C 0.53268 0.04404 0.03837 0.0
C503 C 0.52139 0.0167 0.03519 0.0
C504 C 0.51552 0.00608 0.01635 0.0
C505 C 0.50517 0.97884 0.01254 0.0
C506 C 0.49977 0.96869 0.99395 0.0
C507 C 0.50461 0.98538 0.97843 0.0
C508 C 0.51452 0.01279 0.98195 0.0
C509 C 0.52035 0.0232 0.0009 0.0
C510 C 0.59884 0.19179 0.99723 0.0
C511 C 0.61148 0.18844 0.01557 0.0
O512 O 0.47595 0.8735 0.93385 0.0
O513 O 0.50269 0.94904 0.09741 0.0
O514 O 0.59143 0.17281 0.02801 0.0
O515 O 0.52202 0.07927 0.88264 0.0
H516 H 0.46223 0.87643 0.90749 0.0
H517 H 0.51171 0.90616 0.90857 0.0
H518 H 0.51673 0.8785 0.91338 0.0
H519 H 0.50266 0.88062 0.89071 0.0
H520 H 0.44107 0.88995 0.9355 0.0
H521 H 0.52142 0.90874 0.94932 0.0
H522 H 0.44831 0.95017 0.93552 0.0
H523 H 0.42441 0.91843 0.94476 0.0
H524 H 0.44451 0.94628 0.96075 0.0
H525 H 0.55512 0.95183 0.95881 0.0
H526 H 0.54881 0.97874 0.95444 0.0
H527 H 0.54192 0.9635 0.97723 0.0
H528 H 0.54063 0.06457 0.86555 0.0
H529 H 0.50496 0.04787 0.84019 0.0
H530 H 0.49164 0.03418 0.86297 0.0
H531 H 0.48672 0.06021 0.85366 0.0
H532 H 0.55887 0.06778 0.895 0.0
H533 H 0.48298 0.06167 0.90615 0.0
H534 H 0.55399 0.01849 0.92321 0.0
H535 H 0.57904 0.05088 0.91559 0.0
H536 H 0.56794 0.04593 0.93988 0.0
H537 H 0.45586 0.03669 0.93135 0.0
H538 H 0.46098 0.01013 0.93931 0.0
H539 H 0.47624 0.04109 0.95232 0.0
H540 H 0.62322 0.17888 0.01128 0.0
H541 H 0.61561 0.14378 0.02748 0.0
H542 H 0.5404 0.14189 0.03176 0.0
H543 H 0.59194 0.08026 0.01075 0.0
H544 H 0.61892 0.10532 0.02545 0.0
H545 H 0.5918 0.07637 0.03598 0.0
H546 H 0.49918 0.10155 0.03403 0.0
H547 H 0.49882 0.07834 0.01657 0.0
H548 H 0.50095 0.0728 0.04138 0.0
H549 H 0.46358 0.93453 0.10498 0.0
H550 H 0.44875 0.88805 0.09325 0.0
H551 H 0.46417 0.91137 0.07461 0.0
H552 H 0.48282 0.89831 0.08665 0.0
H553 H 0.54861 0.9796 0.08304 0.0
H554 H 0.46503 0.95609 0.07919 0.0
H555 H 0.56616 0.01066 0.03807 0.0
H556 H 0.57384 0.03496 0.05665 0.0
H557 H 0.57965 0.00771 0.06069 0.0
H558 H 0.4486 0.97661 0.05893 0.0
H559 H 0.47258 0.00782 0.04885 0.0
H560 H 0.46213 0.97738 0.03585 0.0
H561 H 0.49999 0.9846 0.9299 0.0
H562 H 0.53362 0.07091 0.95891 0.0
H563 H 0.54434 0.08861 0.99076 0.0
H564 H 0.53771 0.05216 0.05279 0.0
H565 H 0.50128 0.96507 0.02389 0.0
H566 H 0.49182 0.94758 0.99186 0.0
H567 H 0.61473 0.20519 0.98746 0.0
H568 H 0.58663 0.1722 0.98987 0.0
H569 H 0.5855 0.2 0.00032 0.0
C570 C 0.5865 0.4294 0.08174 0.0
C571 C 0.60116 0.44222 0.10071 0.0
C572 C 0.59246 0.47892 0.10702 0.0
C573 C 0.56511 0.46295 0.11119 0.0
C574 C 0.54958 0.47436 0.11637 0.0
C575 C 0.56155 0.50229 0.11743 0.0
C576 C 0.58903 0.51844 0.11337 0.0
C577 C 0.60411 0.50651 0.1082 0.0
C578 C 0.52025 0.45654 0.12053 0.0
C579 C 0.60236 0.54828 0.11441 0.0
C580 C 0.42806 0.54971 0.04846 0.0
C581 C 0.45739 0.56286 0.0424 0.0
C582 C 0.47779 0.54183 0.06065 0.0
C583 C 0.49917 0.5635 0.0703 0.0
C584 C 0.51144 0.55968 0.08643 0.0
C585 C 0.5018 0.53369 0.09313 0.0
C586 C 0.48028 0.51183 0.08332 0.0
C587 C 0.46887 0.51621 0.06699 0.0
C588 C 0.53495 0.58335 0.09613 0.0
C589 C 0.46944 0.48382 0.08996 0.0
C590 C 0.43793 0.57441 0.19628 0.0
C591 C 0.46388 0.5919 0.19007 0.0
C592 C 0.48237 0.58317 0.18726 0.0
C593 C 0.47436 0.55617 0.1901 0.0
C594 C 0.4483 0.53865 0.19669 0.0
C595 C 0.43062 0.5482 0.20006 0.0
C596 C 0.51038 0.60282 0.18115 0.0
C597 C 0.43893 0.50975 0.19989 0.0
C598 C 0.57669 0.47053 0.25089 0.0
C599 C 0.56486 0.48126 0.26563 0.0
C600 C 0.55664 0.51106 0.24553 0.0
C601 C 0.56781 0.53739 0.23997 0.0
C602 C 0.55701 0.54426 0.22448 0.0
C603 C 0.53413 0.52426 0.21449 0.0
C604 C 0.52216 0.49766 0.2204 0.0
C605 C 0.53362 0.49128 0.23576 0.0
C606 C 0.57028 0.57282 0.21859 0.0
C607 C 0.49733 0.47591 0.21036 0.0
C608 C 0.54488 0.51443 0.12201 0.0
C609 C 0.53261 0.51996 0.10686 0.0
C610 C 0.51473 0.52919 0.11002 0.0
C611 C 0.50888 0.53313 0.12886 0.0
C612 C 0.4902 0.54138 0.13258 0.0
C613 C 0.48478 0.54544 0.15116 0.0
C614 C 0.49791 0.5415 0.16676 0.0
C615 C 0.49292 0.54608 0.1857 0.0
C616 C 0.5054 0.54075 0.20088 0.0
C617 C 0.52289 0.53102 0.1977 0.0
C618 C 0.52884 0.52721 0.17885 0.0
C619 C 0.54696 0.5182 0.17511 0.0
C620 C 0.55234 0.51409 0.15652 0.0
C621 C 0.53989 0.51893 0.14095 0.0
C622 C 0.52178 0.52829 0.14437 0.0
C623 C 0.51625 0.53243 0.16334 0.0
C624 C 0.38567 0.58508 0.18225 0.0
C625 C 0.41563 0.59936 0.18785 0.0
O626 O 0.60821 0.46873 0.10166 0.0
O627 O 0.56882 0.50579 0.26023 0.0
O628 O 0.41973 0.58236 0.19924 0.0
O629 O 0.46624 0.54483 0.04464 0.0
H630 H 0.58741 0.43129 0.11242 0.0
H631 H 0.56698 0.42891 0.08089 0.0
H632 H 0.59852 0.44074 0.06948 0.0
H633 H 0.58243 0.40866 0.0805 0.0
H634 H 0.5555 0.44158 0.11025 0.0
H635 H 0.62516 0.51872 0.10496 0.0
H636 H 0.50773 0.46088 0.11069 0.0
H637 H 0.51388 0.43516 0.11901 0.0
H638 H 0.51624 0.46054 0.13525 0.0
H639 H 0.6242 0.55808 0.11165 0.0
H640 H 0.59274 0.55504 0.10377 0.0
H641 H 0.59954 0.55478 0.12869 0.0
H642 H 0.46941 0.58092 0.05151 0.0
H643 H 0.41516 0.53218 0.0391 0.0
H644 H 0.42644 0.54303 0.06336 0.0
H645 H 0.42047 0.56387 0.04783 0.0
H646 H 0.5068 0.58329 0.06493 0.0
H647 H 0.45261 0.49961 0.05921 0.0
H648 H 0.55209 0.57975 0.09782 0.0
H649 H 0.54165 0.60185 0.0881 0.0
H650 H 0.52924 0.58635 0.11058 0.0
H651 H 0.45025 0.46962 0.08252 0.0
H652 H 0.48435 0.47745 0.08716 0.0
H653 H 0.46616 0.48283 0.10553 0.0
H654 H 0.42693 0.6032 0.17442 0.0
H655 H 0.46983 0.61244 0.1877 0.0
H656 H 0.41063 0.53501 0.20513 0.0
H657 H 0.51234 0.59952 0.16582 0.0
H658 H 0.51501 0.62365 0.18327 0.0
H659 H 0.52552 0.60006 0.18922 0.0
H660 H 0.41712 0.49814 0.20277 0.0
H661 H 0.44308 0.50082 0.18725 0.0
H662 H 0.45016 0.50801 0.21223 0.0
H663 H 0.54301 0.46709 0.26691 0.0
H664 H 0.57371 0.45097 0.25521 0.0
H665 H 0.56664 0.46778 0.23677 0.0
H666 H 0.59853 0.48456 0.24943 0.0
H667 H 0.58545 0.55255 0.24764 0.0
H668 H 0.52446 0.47084 0.23997 0.0
H669 H 0.57561 0.57428 0.20336 0.0
H670 H 0.556 0.58028 0.22015 0.0
H671 H 0.58872 0.58582 0.22724 0.0
H672 H 0.48894 0.45674 0.21778 0.0
H673 H 0.48164 0.48167 0.20929 0.0
H674 H 0.50231 0.47297 0.19566 0.0
H675 H 0.53659 0.51647 0.09237 0.0
H676 H 0.47952 0.5448 0.12117 0.0
H677 H 0.47014 0.55172 0.15311 0.0
H678 H 0.50119 0.54393 0.21537 0.0
H679 H 0.55718 0.5142 0.18653 0.0
H680 H 0.56641 0.50709 0.1545 0.0
H681 H 0.37344 0.58391 0.19469 0.0
H682 H 0.38162 0.59522 0.17048 0.0
H683 H 0.37913 0.56457 0.17708 0.0
Mn684 Mn 0.63157 0.40827 0.40908 0.0
Mn685 Mn 0.66621 0.47179 0.42499 0.0
C686 C 0.61449 0.42259 0.43299 0.0
C687 C 0.62363 0.365 0.41041 0.0
C688 C 0.63481 0.45482 0.38737 0.0
O689 O 0.66899 0.42134 0.39916 0.0
O690 O 0.69136 0.46233 0.41262 0.0
C691 C 0.69987 0.46659 0.45497 0.0
N692 N 0.68128 0.47343 0.44973 0.0
C693 C 0.6787 0.4865 0.4819 0.0
C694 C 0.69794 0.47975 0.48762 0.0
C695 C 0.70854 0.46972 0.47409 0.0
C696 C 0.67095 0.4831 0.46262 0.0
H697 H 0.70799 0.45877 0.44463 0.0
C698 C 0.69056 0.44323 0.40276 0.0
O699 O 0.61781 0.37362 0.39514 0.0
O700 O 0.63418 0.38153 0.42473 0.0
N701 N 0.64426 0.48325 0.43746 0.0
C702 C 0.62489 0.48752 0.42979 0.0
C703 C 0.61191 0.49713 0.44151 0.0
C704 C 0.61903 0.50232 0.46094 0.0
C705 C 0.63897 0.49771 0.46851 0.0
C706 C 0.65144 0.48842 0.4561 0.0
H707 H 0.61935 0.48359 0.41487 0.0
O708 O 0.59869 0.40146 0.42287 0.0
O709 O 0.63975 0.43448 0.42883 0.0
O710 O 0.62495 0.4299 0.38921 0.0
O711 O 0.65096 0.47209 0.39961 0.0
C712 C 0.64673 0.50165 0.48793 0.0
C713 C 0.66655 0.49601 0.49462 0.0
H714 H 0.70456 0.48199 0.50238 0.0
H715 H 0.7233 0.46435 0.47842 0.0
H716 H 0.59643 0.50052 0.43559 0.0
H717 H 0.60899 0.50974 0.46994 0.0
H718 H 0.63736 0.50872 0.49787 0.0
H719 H 0.67211 0.49882 0.50962 0.0
Mn720 Mn 0.23752 0.64382 0.57463 0.0
Mn721 Mn 0.20589 0.57705 0.57443 0.0
C722 C 0.19891 0.61964 0.55629 0.0
C723 C 0.27171 0.68348 0.56288 0.0
C724 C 0.20252 0.61034 0.60684 0.0
O725 O 0.26505 0.63595 0.58651 0.0
O726 O 0.24419 0.59154 0.5826 0.0
C727 C 0.23458 0.56761 0.54339 0.0
N728 N 0.21125 0.56393 0.55081 0.0
C729 C 0.1853 0.53484 0.52467 0.0
C730 C 0.20903 0.53817 0.51679 0.0
C731 C 0.23379 0.55477 0.52613 0.0
C732 C 0.18737 0.54839 0.54177 0.0
H733 H 0.25363 0.58019 0.5506 0.0
C734 C 0.26467 0.61392 0.58748 0.0
O735 O 0.2618 0.68267 0.57952 0.0
O736 O 0.26157 0.66138 0.55311 0.0
N737 N 0.16891 0.56046 0.56653 0.0
C738 C 0.14793 0.55975 0.57582 0.0
C739 C 0.12186 0.54489 0.56791 0.0
C740 C 0.11757 0.53058 0.55073 0.0
C741 C 0.1394 0.53121 0.54162 0.0
C742 C 0.16496 0.54655 0.55008 0.0
H743 H 0.15106 0.57053 0.58911 0.0
O744 O 0.20731 0.64431 0.56077 0.0
O745 O 0.21389 0.61014 0.56219 0.0
O746 O 0.21598 0.63283 0.59906 0.0
O747 O 0.19859 0.58861 0.59915 0.0
C748 C 0.13679 0.51709 0.52454 0.0
C749 C 0.1597 0.51871 0.51617 0.0
H750 H 0.20848 0.52821 0.50352 0.0
H751 H 0.2522 0.55753 0.52011 0.0
H752 H 0.1051 0.5444 0.57508 0.0
H753 H 0.09742 0.51909 0.5447 0.0
H754 H 0.11727 0.50496 0.5177 0.0
H755 H 0.15745 0.50784 0.503 0.0
Mn756 Mn 0.62999 0.24528 0.73583 0.0
Mn757 Mn 0.6597 0.20772 0.73655 0.0
C758 C 0.61315 0.20776 0.71647 0.0
C759 C 0.62843 0.28217 0.72492 0.0
C760 C 0.62148 0.20531 0.76676 0.0
O761 O 0.66578 0.26932 0.74932 0.0
O762 O 0.68468 0.24363 0.74754 0.0
C763 C 0.70213 0.23752 0.70883 0.0
N764 N 0.68076 0.21434 0.7144 0.0
C765 C 0.68641 0.19003 0.6887 0.0
C766 C 0.70852 0.21362 0.68269 0.0
C767 C 0.71627 0.23751 0.69271 0.0
C768 C 0.67263 0.19141 0.70452 0.0
H769 H 0.70844 0.25583 0.71672 0.0
C770 C 0.68536 0.2653 0.75218 0.0
O771 O 0.61808 0.27149 0.74099 0.0
O772 O 0.63955 0.27132 0.71514 0.0
N773 N 0.63854 0.17231 0.72648 0.0
C774 C 0.6174 0.15112 0.73452 0.0
C775 C 0.60683 0.1258 0.72599 0.0
C776 C 0.61868 0.12236 0.70968 0.0
C777 C 0.64111 0.14427 0.70212 0.0
C778 C 0.65037 0.16912 0.71098 0.0
H779 H 0.60854 0.1535 0.74729 0.0
O780 O 0.59854 0.21834 0.72045 0.0
O781 O 0.6377 0.22002 0.72331 0.0
O782 O 0.61613 0.22218 0.75946 0.0
O783 O 0.63793 0.19913 0.75955 0.0
C784 C 0.65506 0.14229 0.68647 0.0
C785 C 0.67771 0.16516 0.67976 0.0
H786 H 0.71973 0.21361 0.67044 0.0
H787 H 0.73331 0.2558 0.68817 0.0
H788 H 0.58977 0.10893 0.73209 0.0
H789 H 0.61066 0.10276 0.70326 0.0
H790 H 0.64849 0.1233 0.67941 0.0
H791 H 0.68813 0.16342 0.6676 0.0
Mn792 Mn 0.41486 0.63795 0.89548 0.0
Mn793 Mn 0.37368 0.57571 0.90954 0.0
C794 C 0.43045 0.61988 0.91784 0.0
C795 C 0.42743 0.68255 0.89687 0.0
C796 C 0.39989 0.58937 0.871 0.0
O797 O 0.37752 0.62922 0.88626 0.0
O798 O 0.35153 0.59166 0.90189 0.0
C799 C 0.35059 0.58519 0.94407 0.0
N800 N 0.3648 0.57503 0.93568 0.0
C801 C 0.36756 0.55536 0.96489 0.0
C802 C 0.35278 0.56545 0.97383 0.0
C803 C 0.34446 0.58062 0.96341 0.0
C804 C 0.37339 0.56088 0.94567 0.0
H805 H 0.34381 0.59652 0.93602 0.0
C806 C 0.35467 0.61114 0.89179 0.0
O807 O 0.43057 0.67164 0.88166 0.0
O808 O 0.41789 0.66781 0.91168 0.0
N809 N 0.39251 0.55795 0.91745 0.0
C810 C 0.40565 0.54872 0.90655 0.0
C811 C 0.41552 0.53339 0.91488 0.0
C812 C 0.41133 0.52725 0.93424 0.0
C813 C 0.39719 0.53641 0.94506 0.0
C814 C 0.38794 0.55173 0.936 0.0
H815 H 0.40856 0.55294 0.89159 0.0
O816 O 0.44731 0.64063 0.9086 0.0
O817 O 0.40516 0.6111 0.91414 0.0
O818 O 0.41601 0.6138 0.8748 0.0
O819 O 0.38187 0.57395 0.88239 0.0
C820 C 0.39168 0.53071 0.96443 0.0
C821 C 0.37675 0.54004 0.97431 0.0
H822 H 0.34784 0.5618 0.9887 0.0
H823 H 0.33313 0.58855 0.97023 0.0
H824 H 0.42622 0.52621 0.90639 0.0
H825 H 0.41894 0.51539 0.94061 0.0
H826 H 0.39871 0.51904 0.97185 0.0
H827 H 0.37256 0.53545 0.98919 0.0
Mn828 Mn 0.79354 0.41406 0.07744 0.0
Mn829 Mn 0.82013 0.37416 0.0801 0.0
C830 C 0.83051 0.42617 0.09702 0.0
C831 C 0.761 0.42366 0.08784 0.0
C832 C 0.82564 0.40791 0.04595 0.0
O833 O 0.76442 0.37881 0.06628 0.0
O834 O 0.78143 0.35206 0.07251 0.0
C835 C 0.79102 0.34083 0.11255 0.0
N836 N 0.81458 0.35831 0.10447 0.0
C837 C 0.84012 0.35776 0.13171 0.0
C838 C 0.81614 0.33962 0.14029 0.0
C839 C 0.79149 0.33114 0.13067 0.0
C840 C 0.83843 0.36646 0.11353 0.0
H841 H 0.77203 0.33438 0.10524 0.0
C842 C 0.76246 0.356 0.06669 0.0
O843 O 0.77162 0.43101 0.07124 0.0
O844 O 0.76967 0.41128 0.09838 0.0
N845 N 0.85735 0.39351 0.08756 0.0
C846 C 0.87838 0.41283 0.07807 0.0
C847 C 0.90437 0.42445 0.08619 0.0
C848 C 0.90846 0.41606 0.10394 0.0
C849 C 0.8865 0.39621 0.11347 0.0
C850 C 0.86109 0.3852 0.10461 0.0
H851 H 0.87533 0.41946 0.06447 0.0
O852 O 0.82476 0.44396 0.09137 0.0
O853 O 0.81436 0.40201 0.09097 0.0
O854 O 0.81539 0.42091 0.05325 0.0
O855 O 0.82726 0.38952 0.0545 0.0
C856 C 0.88873 0.38738 0.13162 0.0
C857 C 0.86557 0.36813 0.14071 0.0
H858 H 0.81638 0.33233 0.15435 0.0
H859 H 0.77288 0.31727 0.13724 0.0
H860 H 0.9212 0.43991 0.07883 0.0
H861 H 0.92851 0.42519 0.11022 0.0
H862 H 0.90811 0.39559 0.13884 0.0
H863 H 0.86749 0.36183 0.1548 0.0
Mn864 Mn 0.40917 0.79391 0.2446 0.0
Mn865 Mn 0.47265 0.82296 0.26207 0.0
C866 C 0.42203 0.82423 0.26959 0.0
C867 C 0.36564 0.75819 0.24317 0.0
C868 C 0.45708 0.83723 0.2244 0.0
O869 O 0.42353 0.77076 0.23426 0.0
O870 O 0.46341 0.78811 0.25001 0.0
C871 C 0.46637 0.78561 0.29242 0.0
N872 N 0.47368 0.81066 0.28698 0.0
C873 C 0.48672 0.82764 0.31911 0.0
C874 C 0.4796 0.80208 0.32503 0.0
C875 C 0.46931 0.78097 0.31162 0.0
C876 C 0.48354 0.8311 0.29976 0.0
H877 H 0.45824 0.76929 0.2822 0.0
C878 C 0.44484 0.77043 0.23908 0.0
O879 O 0.37587 0.7737 0.22886 0.0
O880 O 0.38062 0.76345 0.25843 0.0
N881 N 0.48365 0.85649 0.27441 0.0
C882 C 0.48747 0.87943 0.26667 0.0
C883 C 0.49673 0.90226 0.27833 0.0
C884 C 0.50206 0.90129 0.29778 0.0
C885 C 0.49784 0.87743 0.30544 0.0
C886 C 0.48885 0.85539 0.2931 0.0
H887 H 0.48343 0.88032 0.25174 0.0
O888 O 0.40106 0.8188 0.25905 0.0
O889 O 0.43451 0.81151 0.26523 0.0
O890 O 0.43185 0.82282 0.22617 0.0
O891 O 0.47418 0.83772 0.23647 0.0
C892 C 0.50172 0.87454 0.32491 0.0
C893 C 0.49615 0.84965 0.33175 0.0
H894 H 0.48163 0.79837 0.33985 0.0
H895 H 0.46357 0.76115 0.3161 0.0
H896 H 0.49975 0.92056 0.27235 0.0
H897 H 0.50919 0.91892 0.30673 0.0
H898 H 0.50858 0.89122 0.3348 0.0
H899 H 0.49877 0.84757 0.3468 0.0
H900 H 0.21755 0.6636 0.27882 0.0
H901 H 0.19729 0.62864 0.22183 0.0
H902 H 0.24477 0.65599 0.21296 0.0
H903 H 0.26363 0.72801 0.26604 0.0
H904 H 0.28678 0.735 0.28576 0.0
H905 H 0.25173 0.71116 0.28818 0.0
H906 H 0.2637 0.67542 0.29782 0.0
H907 H 0.29886 0.69924 0.2956 0.0
H908 H 0.28413 0.66814 0.28245 0.0
H909 H 0.29285 0.69062 0.20928 0.0
H910 H 0.33965 0.72785 0.21178 0.0
H911 H 0.32956 0.73806 0.27175 0.0
C912 C 0.22324 0.66113 0.26465 0.0
C913 C 0.20386 0.64356 0.25109 0.0
C914 C 0.21197 0.6416 0.2325 0.0
C915 C 0.23882 0.65708 0.22734 0.0
C916 C 0.25737 0.67429 0.24099 0.0
C917 C 0.25005 0.67613 0.25935 0.0
C918 C 0.27377 0.69689 0.27109 0.0
C919 C 0.26866 0.71907 0.27817 0.0
C920 C 0.28051 0.68415 0.28772 0.0
C921 C 0.29541 0.70686 0.25633 0.0
C922 C 0.28547 0.69363 0.23903 0.0
C923 C 0.30103 0.70077 0.22283 0.0
C924 C 0.32748 0.72197 0.22435 0.0
C925 C 0.33813 0.73546 0.24199 0.0
C926 C 0.32198 0.72763 0.2582 0.0
H927 H 0.60931 0.23917 0.464 0.0
H928 H 0.60561 0.20347 0.40863 0.0
H929 H 0.60645 0.24165 0.39308 0.0
H930 H 0.56951 0.27006 0.45186 0.0
H931 H 0.59052 0.2995 0.46609 0.0
H932 H 0.58695 0.26814 0.47276 0.0
H933 H 0.63866 0.28871 0.47248 0.0
H934 H 0.64238 0.32008 0.46576 0.0
H935 H 0.65654 0.30453 0.45132 0.0
H936 H 0.6088 0.28467 0.38358 0.0
H937 H 0.61535 0.32995 0.38108 0.0
H938 H 0.62053 0.33826 0.44267 0.0
C939 C 0.60822 0.23921 0.4486 0.0
C940 C 0.60676 0.21804 0.43759 0.0
C941 C 0.60614 0.21912 0.41744 0.0
C942 C 0.60666 0.24078 0.40845 0.0
C943 C 0.60822 0.26136 0.41979 0.0
C944 C 0.60918 0.26081 0.43943 0.0
C945 C 0.61275 0.28617 0.44839 0.0
C946 C 0.58848 0.28063 0.46049 0.0
C947 C 0.63915 0.30072 0.46018 0.0
C948 C 0.61385 0.3012 0.43073 0.0
C949 C 0.61084 0.28648 0.41435 0.0
C950 C 0.61117 0.29637 0.39632 0.0
C951 C 0.61486 0.32205 0.39503 0.0
C952 C 0.61857 0.33759 0.41167 0.0
C953 C 0.61793 0.3269 0.42969 0.0
H954 H 0.37183 0.56505 0.58901 0.0
H955 H 0.42796 0.64051 0.61626 0.0
H956 H 0.39211 0.65208 0.61796 0.0
H957 H 0.3388 0.58933 0.56005 0.0
H958 H 0.30589 0.56057 0.56192 0.0
H959 H 0.33528 0.55727 0.56429 0.0
H960 H 0.31966 0.53599 0.59721 0.0
H961 H 0.29014 0.53915 0.59491 0.0
H962 H 0.31232 0.55338 0.61542 0.0
H963 H 0.35124 0.65673 0.61461 0.0
H964 H 0.30812 0.65421 0.60655 0.0
H965 H 0.27829 0.57535 0.58182 0.0
C966 C 0.37637 0.58375 0.59569 0.0
C967 C 0.40251 0.60168 0.60288 0.0
C968 C 0.40795 0.62632 0.611 0.0
C969 C 0.38774 0.63305 0.61201 0.0
C970 C 0.36222 0.61495 0.60478 0.0
C971 C 0.35644 0.59078 0.59682 0.0
C972 C 0.32776 0.5755 0.58919 0.0
C973 C 0.3269 0.57038 0.56758 0.0
C974 C 0.31151 0.54946 0.59982 0.0
C975 C 0.31842 0.59503 0.59386 0.0
C976 C 0.33858 0.61762 0.6029 0.0
C977 C 0.33519 0.63903 0.60773 0.0
C978 C 0.31063 0.63742 0.60305 0.0
C979 C 0.28972 0.61452 0.59365 0.0
C980 C 0.29368 0.59297 0.58925 0.0
H981 H 0.79516 0.41465 0.78097 0.0
H982 H 0.83837 0.38275 0.81168 0.0
H983 H 0.80444 0.33752 0.80075 0.0
H984 H 0.72972 0.36317 0.79298 0.0
H985 H 0.71439 0.36283 0.77034 0.0
H986 H 0.74316 0.39291 0.77927 0.0
H987 H 0.76841 0.39593 0.74832 0.0
H988 H 0.73966 0.36589 0.73928 0.0
H989 H 0.77208 0.3682 0.74081 0.0
H990 H 0.76557 0.29583 0.78699 0.0
H991 H 0.72356 0.26019 0.77213 0.0
H992 H 0.7039 0.31892 0.75229 0.0
C993 C 0.79747 0.39817 0.78544 0.0
C994 C 0.81926 0.4022 0.7974 0.0
C995 C 0.82175 0.3801 0.80263 0.0
C996 C 0.8026 0.35436 0.7965 0.0
C997 C 0.781 0.35102 0.78518 0.0
C998 C 0.77826 0.37228 0.77975 0.0
C999 C 0.75251 0.36313 0.76823 0.0
C1000 C 0.73385 0.37098 0.77832 0.0
C1001 C 0.75854 0.37393 0.74796 0.0
C1002 C 0.74114 0.33339 0.76815 0.0
C1003 C 0.75807 0.32686 0.77781 0.0
C1004 C 0.75212 0.30067 0.77942 0.0
C1005 C 0.72823 0.28059 0.77092 0.0
C1006 C 0.71039 0.28677 0.76116 0.0
C1007 C 0.71699 0.31356 0.75984 0.0
H1008 H 0.47407 0.82907 0.93621 0.0
H1009 H 0.44986 0.84389 0.88107 0.0
H1010 H 0.43436 0.79757 0.87092 0.0
H1011 H 0.49831 0.78766 0.92021 0.0
H1012 H 0.4858 0.7651 0.9397 0.0
H1013 H 0.49387 0.79903 0.94313 0.0
H1014 H 0.44577 0.78331 0.95474 0.0
H1015 H 0.43762 0.7493 0.95155 0.0
H1016 H 0.4173 0.7608 0.93993 0.0
H1017 H 0.42571 0.7516 0.86571 0.0
H1018 H 0.41953 0.70653 0.86679 0.0
H1019 H 0.44578 0.71984 0.9261 0.0
C1020 C 0.46493 0.8224 0.92217 0.0
C1021 C 0.46272 0.83996 0.90949 0.0
C1022 C 0.4513 0.83061 0.89106 0.0
C1023 C 0.44256 0.80442 0.88517 0.0
C1024 C 0.44516 0.78772 0.89794 0.0
C1025 C 0.45563 0.79613 0.91616 0.0
C1026 C 0.45635 0.7741 0.92698 0.0
C1027 C 0.4853 0.78195 0.93284 0.0
C1028 C 0.43817 0.76642 0.94433 0.0
C1029 C 0.44506 0.75216 0.91185 0.0
C1030 C 0.43903 0.76061 0.89517 0.0
C1031 C 0.42996 0.7446 0.87877 0.0
C1032 C 0.42669 0.71914 0.87948 0.0
C1033 C 0.43207 0.7098 0.89654 0.0
C1034 C 0.44123 0.72647 0.91296 0.0
H1035 H 0.64483 0.46009 0.07703 0.0
H1036 H 0.61407 0.41968 0.13011 0.0
H1037 H 0.65365 0.41404 0.13375 0.0
H1038 H 0.66768 0.41754 0.06022 0.0
H1039 H 0.69712 0.44325 0.04913 0.0
H1040 H 0.66794 0.44674 0.05167 0.0
H1041 H 0.69686 0.49173 0.06963 0.0
H1042 H 0.72617 0.48836 0.06715 0.0
H1043 H 0.7164 0.49332 0.09041 0.0
H1044 H 0.69471 0.41033 0.1308 0.0
H1045 H 0.73402 0.40732 0.12096 0.0
H1046 H 0.7375 0.44841 0.06901 0.0
C1047 C 0.64647 0.45013 0.08944 0.0
C1048 C 0.62618 0.44003 0.10319 0.0
C1049 C 0.62926 0.4274 0.11935 0.0
C1050 C 0.6517 0.42418 0.12157 0.0
C1051 C 0.67094 0.43375 0.10753 0.0
C1052 C 0.66858 0.44642 0.09176 0.0
C1053 C 0.69125 0.45326 0.07816 0.0
C1054 C 0.68034 0.43936 0.05864 0.0
C1055 C 0.7087 0.48346 0.07623 0.0
C1056 C 0.70639 0.44195 0.08859 0.0
C1057 C 0.69451 0.43115 0.10563 0.0
C1058 C 0.70431 0.41887 0.11755 0.0
C1059 C 0.72667 0.41725 0.11182 0.0
C1060 C 0.73886 0.42765 0.09422 0.0
C1061 C 0.72871 0.44041 0.08258 0.0
H1062 H 0.38392 0.83724 0.56357 0.0
H1063 H 0.41697 0.81905 0.51429 0.0
H1064 H 0.37916 0.773 0.51376 0.0
H1065 H 0.36396 0.77679 0.58673 0.0
H1066 H 0.33364 0.77385 0.59617 0.0
H1067 H 0.36175 0.80612 0.59161 0.0
H1068 H 0.33143 0.81647 0.56997 0.0
H1069 H 0.30317 0.78423 0.57451 0.0
H1070 H 0.31278 0.79416 0.55038 0.0
H1071 H 0.33931 0.72866 0.51936 0.0
H1072 H 0.30045 0.68829 0.53122 0.0
H1073 H 0.29404 0.7343 0.57788 0.0
C1074 C 0.38306 0.8236 0.5526 0.0
C1075 C 0.40346 0.83173 0.53899 0.0
C1076 C 0.40159 0.81329 0.52483 0.0
C1077 C 0.38018 0.7871 0.52441 0.0
C1078 C 0.36078 0.7796 0.53825 0.0
C1079 C 0.36198 0.79725 0.5521 0.0
C1080 C 0.33932 0.78362 0.56597 0.0
C1081 C 0.35034 0.78519 0.58632 0.0
C1082 C 0.32057 0.79532 0.56515 0.0
C1083 C 0.32551 0.75547 0.55792 0.0
C1084 C 0.33804 0.75372 0.54178 0.0
C1085 C 0.32925 0.72978 0.53193 0.0
C1086 C 0.30714 0.70695 0.53879 0.0
C1087 C 0.29421 0.70813 0.55548 0.0
C1088 C 0.3035 0.73278 0.56509 0.0
H1089 H 0.58944 0.39602 0.72726 0.0
H1090 H 0.64488 0.43298 0.68139 0.0
H1091 H 0.65359 0.39547 0.68042 0.0
H1092 H 0.62808 0.37299 0.75167 0.0
H1093 H 0.59954 0.34242 0.75892 0.0
H1094 H 0.59617 0.37113 0.75504 0.0
H1095 H 0.55707 0.34413 0.73079 0.0
H1096 H 0.56028 0.31528 0.73463 0.0
H1097 H 0.5622 0.32741 0.7109 0.0
H1098 H 0.6571 0.35451 0.68502 0.0
H1099 H 0.65633 0.31381 0.69553 0.0
H1100 H 0.59995 0.30448 0.73929 0.0
C1101 C 0.60322 0.39606 0.7169 0.0
C1102 C 0.61633 0.4173 0.70429 0.0
C1103 C 0.63445 0.41681 0.69106 0.0
C1104 C 0.63952 0.39561 0.69042 0.0
C1105 C 0.62642 0.37511 0.70316 0.0
C1106 C 0.60869 0.37519 0.71619 0.0
C1107 C 0.59817 0.35135 0.72887 0.0
C1108 C 0.60597 0.36 0.74987 0.0
C1109 C 0.56762 0.33349 0.72612 0.0
C1110 C 0.61301 0.33801 0.72109 0.0
C1111 C 0.62898 0.35188 0.70613 0.0
C1112 C 0.64463 0.34346 0.69669 0.0
C1113 C 0.64404 0.32031 0.70275 0.0
C1114 C 0.62812 0.30601 0.71824 0.0
C1115 C 0.61238 0.31502 0.72744 0.0
H1116 H 0.2019 0.57542 0.89886 0.0
H1117 H 0.22214 0.64439 0.86497 0.0
H1118 H 0.2683 0.65224 0.86171 0.0
H1119 H 0.26369 0.60296 0.92458 0.0
H1120 H 0.26479 0.57256 0.92505 0.0
H1121 H 0.23295 0.57141 0.92367 0.0
H1122 H 0.2201 0.54189 0.89304 0.0
H1123 H 0.25191 0.5429 0.89436 0.0
H1124 H 0.24213 0.55318 0.87307 0.0
H1125 H 0.31268 0.65362 0.86336 0.0
H1126 H 0.35223 0.6488 0.87002 0.0
H1127 H 0.30279 0.57879 0.9029 0.0
C1128 C 0.21595 0.5919 0.89049 0.0
C1129 C 0.20835 0.60902 0.88183 0.0
C1130 C 0.22747 0.6308 0.87142 0.0
C1131 C 0.25369 0.63542 0.86952 0.0
C1132 C 0.2605 0.61812 0.87819 0.0
C1133 C 0.24218 0.59679 0.88846 0.0
C1134 C 0.25488 0.58181 0.897 0.0
C1135 C 0.25403 0.58223 0.91887 0.0
C1136 C 0.24145 0.55325 0.88888 0.0
C1137 C 0.28329 0.59826 0.89014 0.0
C1138 C 0.2861 0.61902 0.87923 0.0
C1139 C 0.31069 0.63732 0.87177 0.0
C1140 C 0.33306 0.6344 0.87565 0.0
C1141 C 0.3307 0.61335 0.88694 0.0
C1142 C 0.30534 0.595 0.89412 0.0
H1143 H 0.66578 0.21088 0.02286 0.0
H1144 H 0.59948 0.22555 0.02996 0.0
H1145 H 0.63081 0.26987 0.04407 0.0
H1146 H 0.70073 0.24329 0.06727 0.0
H1147 H 0.73355 0.25628 0.05732 0.0
H1148 H 0.70582 0.22572 0.04795 0.0
H1149 H 0.71439 0.24527 0.01417 0.0
H1150 H 0.74207 0.27591 0.02344 0.0
H1151 H 0.71497 0.27612 0.01037 0.0
H1152 H 0.66975 0.31339 0.05565 0.0
H1153 H 0.71303 0.35195 0.06611 0.0
H1154 H 0.75352 0.30782 0.05299 0.0
C1155 C 0.65785 0.22339 0.02745 0.0
C1156 C 0.63029 0.21501 0.02505 0.0
C1157 C 0.6206 0.23181 0.03142 0.0
C1158 C 0.63821 0.25693 0.03948 0.0
C1159 C 0.66534 0.26474 0.04134 0.0
C1160 C 0.67507 0.24835 0.03572 0.0
C1161 C 0.70507 0.26141 0.03941 0.0
C1162 C 0.71167 0.24574 0.05385 0.0
C1163 C 0.71999 0.26488 0.02073 0.0
C1164 C 0.71077 0.28786 0.04778 0.0
C1165 C 0.68761 0.28943 0.04867 0.0
C1166 C 0.68798 0.3123 0.05519 0.0
C1167 C 0.71267 0.33413 0.06101 0.0
C1168 C 0.73661 0.33283 0.06044 0.0
C1169 C 0.73552 0.3093 0.0538 0.0
H1170 H 0.40372 0.63868 0.17856 0.0
H1171 H 0.44991 0.62147 0.21965 0.0
H1172 H 0.46519 0.66479 0.23545 0.0
H1173 H 0.44915 0.70898 0.17566 0.0
H1174 H 0.42261 0.71688 0.17432 0.0
H1175 H 0.41693 0.68536 0.16521 0.0
H1176 H 0.37591 0.6609 0.18691 0.0
H1177 H 0.38133 0.69231 0.19595 0.0
H1178 H 0.38007 0.668 0.21217 0.0
H1179 H 0.47489 0.70994 0.24725 0.0
H1180 H 0.47499 0.75131 0.25568 0.0
H1181 H 0.41967 0.73707 0.20836 0.0
C1182 C 0.41673 0.64363 0.19101 0.0
C1183 C 0.42482 0.62594 0.19805 0.0
C1184 C 0.44279 0.63413 0.21405 0.0
C1185 C 0.45178 0.65887 0.22312 0.0
C1186 C 0.44273 0.67534 0.21606 0.0
C1187 C 0.42542 0.66793 0.20047 0.0
C1188 C 0.41739 0.68853 0.19633 0.0
C1189 C 0.42711 0.70065 0.17672 0.0
C1190 C 0.38687 0.67672 0.19795 0.0
C1191 C 0.43262 0.70853 0.21223 0.0
C1192 C 0.44755 0.70084 0.22323 0.0
C1193 C 0.46326 0.71615 0.23875 0.0
C1194 C 0.46324 0.73967 0.24339 0.0
C1195 C 0.44723 0.74736 0.23275 0.0
C1196 C 0.43204 0.73167 0.21683 0.0
H1197 H 0.78296 0.40283 0.3444 0.0
H1198 H 0.85119 0.47935 0.36137 0.0
H1199 H 0.82124 0.48933 0.37997 0.0
H1200 H 0.73634 0.42522 0.33819 0.0
H1201 H 0.70841 0.39563 0.34729 0.0
H1202 H 0.73539 0.39386 0.336 0.0
H1203 H 0.74264 0.37274 0.36612 0.0
H1204 H 0.7156 0.37436 0.37747 0.0
H1205 H 0.74837 0.38956 0.38889 0.0
H1206 H 0.78369 0.49172 0.39585 0.0
H1207 H 0.74127 0.48603 0.40822 0.0
H1208 H 0.6978 0.40816 0.3805 0.0
C1209 C 0.79195 0.42172 0.35196 0.0
C1210 C 0.81978 0.44046 0.35115 0.0
C1211 C 0.83007 0.46474 0.36158 0.0
C1212 C 0.8132 0.4706 0.37224 0.0
C1213 C 0.78596 0.45193 0.37242 0.0
C1214 C 0.7754 0.42796 0.36261 0.0
C1215 C 0.74528 0.41156 0.3648 0.0
C1216 C 0.73049 0.40627 0.34542 0.0
C1217 C 0.73753 0.38552 0.37493 0.0
C1218 C 0.74056 0.43018 0.37726 0.0
C1219 C 0.76429 0.45332 0.38154 0.0
C1220 C 0.76497 0.47365 0.39264 0.0
C1221 C 0.74072 0.47023 0.39957 0.0
C1222 C 0.71609 0.44666 0.39535 0.0
C1223 C 0.7162 0.42642 0.38404 0.0
H1224 H 0.14651 0.5828 0.44962 0.0
H1225 H 0.07408 0.58186 0.46726 0.0
H1226 H 0.089 0.58602 0.50086 0.0
H1227 H 0.15326 0.54723 0.4878 0.0
H1228 H 0.18927 0.56767 0.49117 0.0
H1229 H 0.17388 0.56399 0.46799 0.0
H1230 H 0.19327 0.61389 0.46464 0.0
H1231 H 0.21107 0.6191 0.48699 0.0
H1232 H 0.18939 0.63286 0.48352 0.0
H1233 H 0.11411 0.59556 0.53204 0.0
H1234 H 0.14779 0.60996 0.55844 0.0
H1235 H 0.203 0.60272 0.52101 0.0
C1236 C 0.13356 0.58292 0.46061 0.0
C1237 C 0.10878 0.58117 0.45583 0.0
C1238 C 0.0928 0.58241 0.47055 0.0
C1239 C 0.10114 0.58484 0.4897 0.0
C1240 C 0.12563 0.58635 0.49389 0.0
C1241 C 0.14172 0.58569 0.47974 0.0
C1242 C 0.16812 0.58988 0.48785 0.0
C1243 C 0.17134 0.56574 0.48349 0.0
C1244 C 0.19185 0.61545 0.48031 0.0
C1245 C 0.1643 0.59272 0.50888 0.0
C1246 C 0.13973 0.59087 0.51203 0.0
C1247 C 0.13306 0.59631 0.52987 0.0
C1248 C 0.15221 0.60442 0.54476 0.0
C1249 C 0.17733 0.60628 0.54184 0.0
C1250 C 0.18333 0.60007 0.52376 0.0
H1251 H 0.59654 0.13111 0.61788 0.0
H1252 H 0.53246 0.06117 0.64356 0.0
H1253 H 0.53767 0.08737 0.67288 0.0
H1254 H 0.63732 0.1539 0.65399 0.0
H1255 H 0.6498 0.18926 0.65488 0.0
H1256 H 0.63896 0.17089 0.63261 0.0
H1257 H 0.6025 0.18111 0.62419 0.0
H1258 H 0.61476 0.20454 0.64397 0.0
H1259 H 0.57968 0.1797 0.64204 0.0
H1260 H 0.5495 0.12114 0.69915 0.0
H1261 H 0.57017 0.15934 0.72195 0.0
H1262 H 0.63013 0.20573 0.68077 0.0
C1263 C 0.5831 0.12155 0.62948 0.0
C1264 C 0.56367 0.09426 0.62833 0.0
C1265 C 0.54706 0.08218 0.64404 0.0
C1266 C 0.54987 0.09688 0.66072 0.0
C1267 C 0.56939 0.12366 0.66146 0.0
C1268 C 0.58554 0.13599 0.64621 0.0
C1269 C 0.60612 0.1646 0.65119 0.0
C1270 C 0.63479 0.17006 0.64805 0.0
C1271 C 0.60042 0.18361 0.63966 0.0
C1272 C 0.60032 0.16576 0.67206 0.0
C1273 C 0.5782 0.14232 0.67739 0.0
C1274 C 0.56713 0.13942 0.6953 0.0
C1275 C 0.57899 0.16108 0.70815 0.0
C1276 C 0.60238 0.18474 0.70333 0.0
C1277 C 0.61305 0.18725 0.68502 0.0
H1278 H 0.47501 0.59915 0.76669 0.0
H1279 H 0.38127 0.52679 0.74161 0.0
H1280 H 0.36217 0.52416 0.78 0.0
H1281 H 0.46617 0.57005 0.82045 0.0
H1282 H 0.48114 0.60214 0.83222 0.0
H1283 H 0.49035 0.59915 0.80829 0.0
H1284 H 0.47696 0.63334 0.79703 0.0
H1285 H 0.46819 0.6365 0.82101 0.0
H1286 H 0.44381 0.6277 0.80187 0.0
H1287 H 0.36079 0.5318 0.81868 0.0
H1288 H 0.35972 0.54695 0.85141 0.0
H1289 H 0.44324 0.60816 0.84804 0.0
C1290 C 0.45401 0.58532 0.76898 0.0
C1291 C 0.43168 0.55958 0.75077 0.0
C1292 C 0.39433 0.53988 0.75292 0.0
C1293 C 0.38312 0.53707 0.77696 0.0
C1294 C 0.40633 0.5564 0.79572 0.0
C1295 C 0.43979 0.58014 0.7921 0.0
C1296 C 0.45068 0.59545 0.81043 0.0
C1297 C 0.47343 0.59146 0.81831 0.0
C1298 C 0.46048 0.62498 0.8074 0.0
C1299 C 0.42597 0.58261 0.82327 0.0
C1300 C 0.4024 0.5612 0.81519 0.0
C1301 C 0.37872 0.54813 0.82519 0.0
C1302 C 0.37833 0.55682 0.84378 0.0
C1303 C 0.40137 0.57877 0.85211 0.0
C1304 C 0.42535 0.59142 0.84181 0.0
H1305 H 0.89323 0.50101 0.94862 0.0
H1306 H 0.84741 0.41175 0.91081 0.0
H1307 H 0.83076 0.3854 0.94695 0.0
H1308 H 0.9104 0.472 0.99662 0.0
H1309 H 0.90052 0.48949 0.01297 0.0
H1310 H 0.91227 0.50261 0.98976 0.0
H1311 H 0.86824 0.50346 0.98303 0.0
H1312 H 0.85671 0.49051 0.00627 0.0
H1313 H 0.83641 0.47344 0.98544 0.0
H1314 H 0.82606 0.37606 0.98519 0.0
H1315 H 0.81491 0.37017 0.01915 0.0
H1316 H 0.85447 0.45534 0.02797 0.0
C1317 C 0.88165 0.47957 0.94817 0.0
C1318 C 0.87694 0.45923 0.92603 0.0
C1319 C 0.85183 0.42295 0.92408 0.0
C1320 C 0.84321 0.40674 0.94656 0.0
C1321 C 0.85421 0.42588 0.96828 0.0
C1322 C 0.87153 0.46046 0.96935 0.0
C1323 C 0.87146 0.46849 0.9897 0.0
C1324 C 0.90037 0.48407 0.99773 0.0
C1325 C 0.85737 0.48494 0.99119 0.0
C1326 C 0.85536 0.44146 0.99943 0.0
C1327 C 0.84681 0.41875 0.98762 0.0
C1328 C 0.83244 0.39323 0.99452 0.0
C1329 C 0.82627 0.39009 0.01379 0.0
C1330 C 0.83383 0.41234 0.02595 0.0
C1331 C 0.84844 0.43816 0.01871 0.0
H1332 H 0.44064 0.90258 0.13002 0.0
H1333 H 0.5244 0.93006 0.11896 0.0
H1334 H 0.52878 0.9119 0.14956 0.0
H1335 H 0.44725 0.91413 0.1813 0.0
H1336 H 0.41605 0.88432 0.18578 0.0
H1337 H 0.42027 0.90128 0.16374 0.0
H1338 H 0.40806 0.85798 0.14486 0.0
H1339 H 0.40388 0.84092 0.16682 0.0
H1340 H 0.42682 0.84133 0.14944 0.0
H1341 H 0.52349 0.8897 0.18138 0.0
H1342 H 0.50835 0.86336 0.21059 0.0
H1343 H 0.42764 0.84915 0.19967 0.0
C1344 C 0.46003 0.90519 0.13423 0.0
C1345 C 0.48235 0.91846 0.12241 0.0
C1346 C 0.50719 0.92064 0.12804 0.0
C1347 C 0.50985 0.91031 0.14536 0.0
C1348 C 0.48741 0.89751 0.15674 0.0
C1349 C 0.46294 0.89479 0.15132 0.0
C1350 C 0.4415 0.87886 0.16546 0.0
C1351 C 0.43064 0.89566 0.17462 0.0
C1352 C 0.41873 0.85326 0.15608 0.0
C1353 C 0.45766 0.87292 0.17968 0.0
C1354 C 0.48415 0.884 0.17455 0.0
C1355 C 0.50278 0.88094 0.18554 0.0
C1356 C 0.494 0.86598 0.20212 0.0
C1357 C 0.46678 0.85405 0.20742 0.0
C1358 C 0.44856 0.85783 0.19602 0.0
H1359 H 0.55221 0.44208 0.29145 0.0
H1360 H 0.60877 0.52532 0.28264 0.0
H1361 H 0.63137 0.52788 0.31336 0.0
H1362 H 0.54735 0.44617 0.34286 0.0
H1363 H 0.54614 0.41505 0.34677 0.0
H1364 H 0.53322 0.42027 0.32473 0.0
H1365 H 0.56462 0.40879 0.30588 0.0
H1366 H 0.57769 0.40363 0.32784 0.0
H1367 H 0.60025 0.42697 0.31103 0.0
H1368 H 0.64813 0.52127 0.34489 0.0
H1369 H 0.65951 0.50545 0.37403 0.0
H1370 H 0.59343 0.42586 0.36154 0.0
C1371 C 0.56908 0.46094 0.29618 0.0
C1372 C 0.57816 0.48367 0.28492 0.0
C1373 C 0.60092 0.50781 0.29124 0.0
C1374 C 0.61396 0.50944 0.30865 0.0
C1375 C 0.60434 0.48668 0.31943 0.0
C1376 C 0.58254 0.46283 0.31339 0.0
C1377 C 0.57714 0.44097 0.32714 0.0
C1378 C 0.54931 0.42997 0.33589 0.0
C1379 C 0.58011 0.41879 0.31739 0.0
C1380 C 0.59939 0.45622 0.34183 0.0
C1381 C 0.61468 0.48261 0.33721 0.0
C1382 C 0.63631 0.50064 0.34865 0.0
C1383 C 0.64258 0.49144 0.3652 0.0
C1384 C 0.62745 0.46437 0.37009 0.0
C1385 C 0.60552 0.44663 0.35819 0.0
H1386 H 0.42442 0.93151 0.34261 0.0
H1387 H 0.42803 0.88333 0.38786 0.0
H1388 H 0.43146 0.85371 0.36399 0.0
H1389 H 0.38311 0.87803 0.31104 0.0
H1390 H 0.39931 0.89511 0.28974 0.0
H1391 H 0.39926 0.91369 0.31041 0.0
H1392 H 0.45069 0.94144 0.30952 0.0
H1393 H 0.4519 0.92251 0.28943 0.0
H1394 H 0.47049 0.92545 0.31109 0.0
H1395 H 0.42969 0.82694 0.33554 0.0
H1396 H 0.42552 0.80589 0.30397 0.0
H1397 H 0.42462 0.87182 0.27684 0.0
C1398 C 0.42638 0.91496 0.34745 0.0
C1399 C 0.42627 0.90984 0.36708 0.0
C1400 C 0.42837 0.88774 0.37291 0.0
C1401 C 0.4303 0.87082 0.35946 0.0
C1402 C 0.43006 0.87625 0.34024 0.0
C1403 C 0.42827 0.89781 0.3342 0.0
C1404 C 0.42712 0.89838 0.31265 0.0
C1405 C 0.40062 0.89616 0.30555 0.0
C1406 C 0.4515 0.92342 0.30522 0.0
C1407 C 0.42827 0.8736 0.30754 0.0
C1408 C 0.42991 0.86114 0.32371 0.0
C1409 C 0.42914 0.83686 0.32277 0.0
C1410 C 0.42695 0.82515 0.30482 0.0
C1411 C 0.42613 0.83795 0.28809 0.0
C1412 C 0.42628 0.86222 0.28947 0.0
H1413 H 0.50891 0.42776 0.50171 0.0
H1414 H 0.55585 0.42359 0.5491 0.0
H1415 H 0.59017 0.42705 0.5267 0.0
H1416 H 0.52054 0.38641 0.46996 0.0
H1417 H 0.52152 0.40469 0.44919 0.0
H1418 H 0.50193 0.40376 0.4692 0.0
H1419 H 0.52723 0.45472 0.47029 0.0
H1420 H 0.54859 0.45672 0.45111 0.0
H1421 H 0.56311 0.47284 0.47377 0.0
H1422 H 0.61781 0.42815 0.49902 0.0
H1423 H 0.63611 0.42544 0.46797 0.0
H1424 H 0.5705 0.42772 0.43875 0.0
C1425 C 0.52617 0.42721 0.50746 0.0
C1426 C 0.52925 0.42454 0.52718 0.0
C1427 C 0.55276 0.42496 0.53401 0.0
C1428 C 0.57242 0.42709 0.52142 0.0
C1429 C 0.56833 0.42895 0.50205 0.0
C1430 C 0.5457 0.42886 0.49509 0.0
C1431 C 0.54537 0.42963 0.47357 0.0
C1432 C 0.52089 0.40463 0.46498 0.0
C1433 C 0.54614 0.45499 0.46677 0.0
C1434 C 0.57125 0.42992 0.46946 0.0
C1435 C 0.58435 0.42981 0.4861 0.0
C1436 C 0.60796 0.42865 0.48593 0.0
C1437 C 0.61828 0.42728 0.46828 0.0
C1438 C 0.60514 0.42735 0.45114 0.0
C1439 C 0.58126 0.42846 0.45173 0.0
H1440 H 0.12005 0.54053 0.69974 0.0
H1441 H 0.14251 0.61899 0.72188 0.0
H1442 H 0.16537 0.63858 0.69192 0.0
H1443 H 0.18116 0.55917 0.67685 0.0
H1444 H 0.16592 0.53695 0.65659 0.0
H1445 H 0.1496 0.52884 0.67917 0.0
H1446 H 0.10656 0.52456 0.66339 0.0
H1447 H 0.1227 0.53252 0.64073 0.0
H1448 H 0.10872 0.55184 0.65013 0.0
H1449 H 0.18752 0.64981 0.66019 0.0
H1450 H 0.20719 0.6519 0.62885 0.0
H1451 H 0.17068 0.56605 0.62753 0.0
C1452 C 0.12941 0.56178 0.69812 0.0
C1453 C 0.12918 0.57823 0.713 0.0
C1454 C 0.14213 0.60602 0.71054 0.0
C1455 C 0.1552 0.61731 0.69361 0.0
C1456 C 0.15524 0.60057 0.67928 0.0
C1457 C 0.14262 0.5734 0.68132 0.0
C1458 C 0.14656 0.55998 0.66405 0.0
C1459 C 0.16172 0.54538 0.6695 0.0
C1460 C 0.11952 0.54111 0.65398 0.0
C1461 C 0.16361 0.58388 0.65209 0.0
C1462 C 0.16828 0.60709 0.66108 0.0
C1463 C 0.18389 0.63175 0.65296 0.0
C1464 C 0.19502 0.63273 0.63514 0.0
C1465 C 0.19058 0.60917 0.62564 0.0
C1466 C 0.17455 0.58447 0.63433 0.0
H1467 H 0.569 0.08802 0.84026 0.0
H1468 H 0.51509 0.1135 0.86183 0.0
H1469 H 0.53515 0.152 0.84056 0.0
H1470 H 0.62734 0.15411 0.83461 0.0
H1471 H 0.63711 0.14453 0.813 0.0
H1472 H 0.61975 0.12033 0.83092 0.0
H1473 H 0.58323 0.09023 0.80583 0.0
H1474 H 0.60037 0.11436 0.78786 0.0
H1475 H 0.56567 0.10341 0.79249 0.0
H1476 H 0.55945 0.18614 0.81516 0.0
H1477 H 0.58575 0.21277 0.78811 0.0
H1478 H 0.62371 0.1645 0.78393 0.0
C1479 C 0.56181 0.10201 0.84079 0.0
C1480 C 0.54092 0.09815 0.85297 0.0
C1481 C 0.53147 0.11645 0.85286 0.0
C1482 C 0.54269 0.1383 0.84082 0.0
C1483 C 0.56328 0.14149 0.82895 0.0
C1484 C 0.57277 0.12385 0.82892 0.0
C1485 C 0.59413 0.13089 0.81424 0.0
C1486 C 0.62118 0.13788 0.82377 0.0
C1487 C 0.58531 0.10839 0.79922 0.0
C1488 C 0.59498 0.15505 0.80583 0.0
C1489 C 0.57714 0.16098 0.81448 0.0
C1490 C 0.57368 0.18183 0.80842 0.0
C1491 C 0.58871 0.19684 0.79302 0.0
C1492 C 0.60695 0.19089 0.78387 0.0
C1493 C 0.61019 0.16985 0.79063 0.0
H1494 H 0.44797 0.60093 0.02779 0.0
H1495 H 0.47151 0.54371 0.01037 0.0
H1496 H 0.47209 0.5563 0.97705 0.0
H1497 H 0.40254 0.58646 0.99509 0.0
H1498 H 0.40754 0.61808 0.98748 0.0
H1499 H 0.41703 0.61435 0.01125 0.0
H1500 H 0.46592 0.64895 0.00955 0.0
H1501 H 0.45824 0.6579 0.98681 0.0
H1502 H 0.48492 0.65028 0.98903 0.0
H1503 H 0.47103 0.57599 0.9454 0.0
H1504 H 0.45787 0.59297 0.91745 0.0
H1505 H 0.42624 0.62971 0.95501 0.0
C1506 C 0.45372 0.59139 0.017 0.0
C1507 C 0.45986 0.57149 0.02186 0.0
C1508 C 0.46695 0.5592 0.00724 0.0
C1509 C 0.46752 0.56634 0.9882 0.0
C1510 C 0.46085 0.58565 0.98393 0.0
C1511 C 0.45387 0.59787 0.99791 0.0
C1512 C 0.44433 0.61556 0.98934 0.0
C1513 C 0.41617 0.60817 0.99611 0.0
C1514 C 0.46456 0.64491 0.99396 0.0
C1515 C 0.44466 0.60937 0.96836 0.0
C1516 C 0.45615 0.59369 0.96555 0.0
C1517 C 0.46139 0.58772 0.94739 0.0
C1518 C 0.45375 0.59723 0.93165 0.0
C1519 C 0.43974 0.61114 0.93427 0.0
C1520 C 0.43577 0.6179 0.9528 0.0
H1521 H 0.96481 0.52886 0.16578 0.0
H1522 H 0.91604 0.46443 0.22021 0.0
H1523 H 0.87574 0.42972 0.19208 0.0
H1524 H 0.89799 0.51225 0.13989 0.0
H1525 H 0.90922 0.51365 0.11591 0.0
H1526 H 0.9333 0.53106 0.13492 0.0
H1527 H 0.95829 0.50616 0.12541 0.0
H1528 H 0.93356 0.48773 0.10688 0.0
H1529 H 0.94061 0.47042 0.1251 0.0
H1530 H 0.84667 0.41059 0.15899 0.0
H1531 H 0.81857 0.39937 0.12975 0.0
H1532 H 0.88114 0.46801 0.1023 0.0
C1533 C 0.94801 0.51089 0.17094 0.0
C1534 C 0.94771 0.49822 0.19532 0.0
C1535 C 0.91695 0.46999 0.2055 0.0
C1536 C 0.89314 0.44789 0.18781 0.0
C1537 C 0.89741 0.45649 0.16331 0.0
C1538 C 0.92275 0.48668 0.15512 0.0
C1539 C 0.91667 0.48799 0.13453 0.0
C1540 C 0.91414 0.51268 0.13112 0.0
C1541 C 0.93858 0.48809 0.12225 0.0
C1542 C 0.8896 0.46211 0.13131 0.0
C1543 C 0.87966 0.44532 0.14701 0.0
C1544 C 0.8544 0.42271 0.14656 0.0
C1545 C 0.83869 0.41636 0.12988 0.0
C1546 C 0.84853 0.43212 0.11366 0.0
C1547 C 0.87395 0.45526 0.11446 0.0
loop_
_geom_bond_atom_site_label_1
_geom_bond_atom_site_label_2
_geom_bond_distance
_geom_bond_site_symmetry_2
_ccdc_geom_bond_type
C0 C1 1.560 . S
C0 H61 0.959 . S
C0 H62 0.959 . S
C0 H63 0.960 . S
C1 C0 1.560 . S
C1 O56 1.426 . S
C1 H60 0.980 . S
C2 C3 1.407 . S
C2 C7 1.418 . S
C2 O56 1.334 . S
C3 C2 1.407 . S
C3 C4 1.360 . S
C3 H64 0.929 . S
C4 C3 1.360 . S
C4 C5 1.401 . S
C4 C8 1.527 . S
C5 C4 1.401 . S
C5 C6 1.405 . S
C5 C38 1.587 . S
C6 C5 1.405 . S
C6 C7 1.332 . S
C6 C9 1.496 . S
C7 C2 1.418 . S
C7 C6 1.332 . S
C7 H65 0.929 . S
C8 C4 1.527 . S
C8 H66 0.959 . S
C8 H67 0.961 . S
C8 H68 0.961 . S
C9 C6 1.496 . S
C9 H69 0.960 . S
C9 H70 0.960 . S
C9 H71 0.961 . S
C10 C11 1.517 . S
C10 H73 0.961 . S
C10 H74 0.960 . S
C10 H75 0.959 . S
C11 C10 1.517 . S
C11 O59 1.468 . S
C11 H72 0.980 . S
C12 C13 1.349 . S
C12 C17 1.367 . S
C12 O59 1.408 . S
C13 C12 1.349 . S
C13 C14 1.407 . S
C13 H76 0.930 . S
C14 C13 1.407 . S
C14 C15 1.449 . S
C14 C18 1.535 . S
C15 C14 1.449 . S
C15 C16 1.384 . S
C15 C40 1.553 1_655 S
C16 C15 1.384 . S
C16 C17 1.364 . S
C16 C19 1.450 . S
C17 C12 1.367 . S
C17 C16 1.364 . S
C17 H77 0.931 . S
C18 C14 1.535 . S
C18 H78 0.959 1_655 S
C18 H79 0.963 . S
C18 H80 0.959 . S
C19 C16 1.450 . S
C19 H81 0.960 . S
C19 H82 0.960 1_655 S
C19 H83 0.960 . S
C20 C21 1.309 . S
C20 C25 1.304 . S
C20 O58 1.435 . S
C21 C20 1.309 . S
C21 C22 1.476 . S
C21 H85 0.930 . S
C22 C21 1.476 . S
C22 C23 1.400 . S
C22 C26 1.567 . S
C23 C22 1.400 . S
C23 C24 1.373 . S
C23 C45 1.432 . S
C24 C23 1.373 . S
C24 C25 1.339 . S
C24 C27 1.530 . S
C25 C20 1.304 . S
C25 C24 1.339 . S
C25 H86 0.930 . S
C26 C22 1.567 . S
C26 H87 0.961 . S
C26 H88 0.960 . S
C26 H89 0.958 . S
C27 C24 1.530 . S
C27 H90 0.961 . S
C27 H91 0.960 . S
C27 H92 0.960 . S
C28 C29 1.530 . S
C28 H94 0.961 . S
C28 H95 0.961 . S
C28 H96 0.959 . S
C29 C28 1.530 . S
C29 O57 1.412 . S
C29 H93 0.980 . S
C30 C31 1.288 . S
C30 C35 1.377 . S
C30 O57 1.393 . S
C31 C30 1.288 . S
C31 C32 1.369 . S
C31 H97 0.932 . S
C32 C31 1.369 . S
C32 C33 1.398 . S
C32 C36 1.527 . S
C33 C32 1.398 . S
C33 C34 1.380 . S
C33 C47 1.497 . S
C34 C33 1.380 . S
C34 C35 1.383 . S
C34 C37 1.603 . S
C35 C30 1.377 . S
C35 C34 1.383 . S
C35 H98 0.929 . S
C36 C32 1.527 . S
C36 H99 0.961 . S
C36 H100 0.959 1_455 S
C36 H101 0.959 . S
C37 C34 1.603 . S
C37 H102 0.960 . S
C37 H103 0.962 . S
C37 H104 0.961 . S
C38 C5 1.587 . S
C38 C39 1.360 . S
C38 C51 1.412 . S
C39 C38 1.360 . S
C39 C40 1.365 . S
C39 H105 0.929 . S
C40 C15 1.553 1_455 S
C40 C39 1.365 . S
C40 C41 1.400 1_455 S
C41 C40 1.400 1_655 S
C41 C42 1.406 . S
C41 C52 1.445 1_655 S
C42 C41 1.406 . S
C42 C43 1.322 . S
C42 H106 0.930 . S
C43 C42 1.322 . S
C43 C44 1.459 . S
C43 H107 0.929 . S
C44 C43 1.459 . S
C44 C45 1.445 . S
C44 C53 1.395 1_655 S
C45 C23 1.432 . S
C45 C44 1.445 . S
C45 C46 1.370 . S
C46 C45 1.370 . S
C46 C47 1.438 1_655 S
C46 H108 0.930 . S
C47 C33 1.497 . S
C47 C46 1.438 1_455 S
C47 C48 1.360 . S
C48 C47 1.360 . S
C48 C49 1.401 . S
C48 C53 1.446 . S
C49 C48 1.401 . S
C49 C50 1.347 . S
C49 H109 0.929 . S
C50 C49 1.347 . S
C50 C51 1.455 . S
C50 H110 0.930 . S
C51 C38 1.412 . S
C51 C50 1.455 . S
C51 C52 1.331 . S
C52 C41 1.445 1_455 S
C52 C51 1.331 . S
C52 C53 1.497 . S
C53 C44 1.395 1_455 S
C53 C48 1.446 . S
C53 C52 1.497 . S
C54 C55 1.582 . S
C54 H111 0.962 . S
C54 H112 0.959 . S
C54 H113 0.958 . S
C55 C54 1.582 . S
C55 O58 1.458 . S
C55 H84 0.980 . S
O56 C1 1.426 . S
O56 C2 1.334 . S
O57 C29 1.412 . S
O57 C30 1.393 . S
O58 C20 1.435 . S
O58 C55 1.458 . S
O59 C11 1.468 . S
O59 C12 1.408 . S
H60 C1 0.980 . S
H61 C0 0.959 . S
H62 C0 0.959 . S
H63 C0 0.960 . S
H64 C3 0.929 . S
H65 C7 0.929 . S
H66 C8 0.959 . S
H67 C8 0.961 . S
H68 C8 0.961 . S
H69 C9 0.960 . S
H70 C9 0.960 . S
H71 C9 0.961 . S
H72 C11 0.980 . S
H73 C10 0.961 . S
H74 C10 0.960 . S
H75 C10 0.959 . S
H76 C13 0.930 . S
H77 C17 0.931 . S
H78 C18 0.959 1_455 S
H79 C18 0.963 . S
H80 C18 0.959 . S
H81 C19 0.960 . S
H82 C19 0.960 1_455 S
H83 C19 0.960 . S
H84 C55 0.980 . S
H85 C21 0.930 . S
H86 C25 0.930 . S
H87 C26 0.961 . S
H88 C26 0.960 . S
H89 C26 0.958 . S
H90 C27 0.961 . S
H91 C27 0.960 . S
H92 C27 0.960 . S
H93 C29 0.980 . S
H94 C28 0.961 . S
H95 C28 0.961 . S
H96 C28 0.959 . S
H97 C31 0.932 . S
H98 C35 0.929 . S
H99 C36 0.961 . S
H100 C36 0.959 1_655 S
H101 C36 0.959 . S
H102 C37 0.960 . S
H103 C37 0.962 . S
H104 C37 0.961 . S
H105 C39 0.929 . S
H106 C42 0.930 . S
H107 C43 0.929 . S
H108 C46 0.930 . S
H109 C49 0.929 . S
H110 C50 0.930 . S
H111 C54 0.962 . S
H112 C54 0.959 . S
H113 C54 0.958 . S
C114 C115 1.560 . S
C114 H175 0.959 . S
C114 H176 0.959 . S
C114 H177 0.960 . S
C115 C114 1.560 . S
C115 O170 1.426 . S
C115 H174 0.980 . S
C116 C117 1.407 . S
C116 C121 1.418 . S
C116 O170 1.334 . S
C117 C116 1.407 . S
C117 C118 1.360 . S
C117 H178 0.929 . S
C118 C117 1.360 . S
C118 C119 1.401 . S
C118 C122 1.527 . S
C119 C118 1.401 . S
C119 C120 1.405 . S
C119 C152 1.587 . S
C120 C119 1.405 . S
C120 C121 1.332 . S
C120 C123 1.496 . S
C121 C116 1.418 . S
C121 C120 1.332 . S
C121 H179 0.929 . S
C122 C118 1.527 . S
C122 H180 0.959 . S
C122 H181 0.961 . S
C122 H182 0.961 . S
C123 C120 1.496 . S
C123 H183 0.960 . S
C123 H184 0.960 . S
C123 H185 0.961 . S
C124 C125 1.517 . S
C124 H187 0.961 . S
C124 H188 0.960 . S
C124 H189 0.959 . S
C125 C124 1.517 . S
C125 O173 1.468 . S
C125 H186 0.980 . S
C126 C127 1.349 . S
C126 C131 1.367 . S
C126 O173 1.408 . S
C127 C126 1.349 . S
C127 C128 1.407 . S
C127 H190 0.930 . S
C128 C127 1.407 . S
C128 C129 1.449 . S
C128 C132 1.535 . S
C129 C128 1.449 . S
C129 C130 1.384 . S
C129 C154 1.553 . S
C130 C129 1.384 . S
C130 C131 1.364 . S
C130 C133 1.450 . S
C131 C126 1.367 . S
C131 C130 1.364 . S
C131 H191 0.931 . S
C132 C128 1.535 . S
C132 H192 0.959 . S
C132 H193 0.961 . S
C132 H194 0.959 . S
C133 C130 1.450 . S
C133 H195 0.960 . S
C133 H196 0.960 . S
C133 H197 0.960 . S
C134 C135 1.309 . S
C134 C139 1.304 . S
C134 O172 1.435 . S
C135 C134 1.309 . S
C135 C136 1.476 . S
C135 H199 0.930 . S
C136 C135 1.476 . S
C136 C137 1.400 . S
C136 C140 1.567 . S
C137 C136 1.400 . S
C137 C138 1.373 . S
C137 C159 1.432 . S
C138 C137 1.373 . S
C138 C139 1.339 . S
C138 C141 1.530 . S
C139 C134 1.304 . S
C139 C138 1.339 . S
C139 H200 0.930 . S
C140 C136 1.567 . S
C140 H201 0.961 . S
C140 H202 0.960 . S
C140 H203 0.958 . S
C141 C138 1.530 . S
C141 H204 0.961 . S
C141 H205 0.960 . S
C141 H206 0.960 . S
C142 C143 1.530 . S
C142 H208 0.961 . S
C142 H209 0.961 . S
C142 H210 0.959 . S
C143 C142 1.530 . S
C143 O171 1.412 . S
C143 H207 0.980 . S
C144 C145 1.288 . S
C144 C149 1.377 . S
C144 O171 1.393 . S
C145 C144 1.288 . S
C145 C146 1.369 . S
C145 H211 0.932 . S
C146 C145 1.369 . S
C146 C147 1.398 . S
C146 C150 1.527 1_565 S
C147 C146 1.398 . S
C147 C148 1.380 . S
C147 C161 1.497 1_565 S
C148 C147 1.380 . S
C148 C149 1.383 . S
C148 C151 1.603 . S
C149 C144 1.377 . S
C149 C148 1.383 . S
C149 H212 0.929 . S
C150 C146 1.527 1_545 S
C150 H213 0.961 . S
C150 H214 0.959 . S
C150 H215 0.959 . S
C151 C148 1.603 . S
C151 H216 0.960 . S
C151 H217 0.962 1_565 S
C151 H218 0.961 . S
C152 C119 1.587 . S
C152 C153 1.360 . S
C152 C165 1.412 . S
C153 C152 1.360 . S
C153 C154 1.365 1_565 S
C153 H219 0.929 . S
C154 C129 1.553 . S
C154 C153 1.365 1_545 S
C154 C155 1.404 . S
C155 C154 1.404 . S
C155 C156 1.395 . S
C155 C166 1.451 . S
C156 C155 1.395 . S
C156 C157 1.322 . S
C156 H220 0.930 . S
C157 C156 1.322 . S
C157 C158 1.459 . S
C157 H221 0.929 . S
C158 C157 1.459 . S
C158 C159 1.445 . S
C158 C167 1.395 . S
C159 C137 1.432 . S
C159 C158 1.445 . S
C159 C160 1.370 . S
C160 C159 1.370 . S
C160 C161 1.438 . S
C160 H222 0.930 . S
C161 C147 1.497 1_545 S
C161 C160 1.438 . S
C161 C162 1.360 . S
C162 C161 1.360 . S
C162 C163 1.401 1_545 S
C162 C167 1.446 . S
C163 C162 1.401 1_565 S
C163 C164 1.347 . S
C163 H223 0.929 . S
C164 C163 1.347 . S
C164 C165 1.455 . S
C164 H224 0.930 . S
C165 C152 1.412 . S
C165 C164 1.455 . S
C165 C166 1.331 1_565 S
C166 C155 1.451 . S
C166 C165 1.331 1_545 S
C166 C167 1.497 . S
C167 C158 1.395 . S
C167 C162 1.446 . S
C167 C166 1.497 . S
C168 C169 1.582 . S
C168 H225 0.962 . S
C168 H226 0.959 . S
C168 H227 0.958 . S
C169 C168 1.582 . S
C169 O172 1.458 . S
C169 H198 0.980 . S
O170 C115 1.426 . S
O170 C116 1.334 . S
O171 C143 1.412 . S
O171 C144 1.393 . S
O172 C134 1.435 . S
O172 C169 1.458 . S
O173 C125 1.468 . S
O173 C126 1.408 . S
H174 C115 0.980 . S
H175 C114 0.959 . S
H176 C114 0.959 . S
H177 C114 0.960 . S
H178 C117 0.929 . S
H179 C121 0.929 . S
H180 C122 0.959 . S
H181 C122 0.961 . S
H182 C122 0.961 . S
H183 C123 0.960 . S
H184 C123 0.960 . S
H185 C123 0.961 . S
H186 C125 0.980 . S
H187 C124 0.961 . S
H188 C124 0.960 . S
H189 C124 0.959 . S
H190 C127 0.930 . S
H191 C131 0.931 . S
H192 C132 0.959 . S
H193 C132 0.961 . S
H194 C132 0.959 . S
H195 C133 0.960 . S
H196 C133 0.960 . S
H197 C133 0.960 . S
H198 C169 0.980 . S
H199 C135 0.930 . S
H200 C139 0.930 . S
H201 C140 0.961 . S
H202 C140 0.960 . S
H203 C140 0.958 . S
H204 C141 0.961 . S
H205 C141 0.960 . S
H206 C141 0.960 . S
H207 C143 0.980 . S
H208 C142 0.961 . S
H209 C142 0.961 . S
H210 C142 0.959 . S
H211 C145 0.932 . S
H212 C149 0.929 . S
H213 C150 0.961 . S
H214 C150 0.959 . S
H215 C150 0.959 . S
H216 C151 0.960 . S
H217 C151 0.962 1_545 S
H218 C151 0.961 . S
H219 C153 0.929 . S
H220 C156 0.930 . S
H221 C157 0.929 . S
H222 C160 0.930 . S
H223 C163 0.929 . S
H224 C164 0.930 . S
H225 C168 0.962 . S
H226 C168 0.959 . S
H227 C168 0.958 . S
C228 C229 1.560 . S
C228 H289 0.959 . S
C228 H290 0.959 . S
C228 H291 0.960 . S
C229 C228 1.560 . S
C229 O284 1.426 . S
C229 H288 0.980 . S
C230 C231 1.407 . S
C230 C235 1.418 . S
C230 O284 1.334 . S
C231 C230 1.407 . S
C231 C232 1.360 . S
C231 H292 0.929 . S
C232 C231 1.360 . S
C232 C233 1.401 . S
C232 C236 1.527 . S
C233 C232 1.401 . S
C233 C234 1.405 . S
C233 C266 1.587 . S
C234 C233 1.405 . S
C234 C235 1.332 . S
C234 C237 1.496 . S
C235 C230 1.418 . S
C235 C234 1.332 . S
C235 H293 0.929 . S
C236 C232 1.527 . S
C236 H294 0.959 . S
C236 H295 0.961 . S
C236 H296 0.961 . S
C237 C234 1.496 . S
C237 H297 0.960 . S
C237 H298 0.960 . S
C237 H299 0.961 . S
C238 C239 1.517 . S
C238 H301 0.961 . S
C238 H302 0.960 . S
C238 H303 0.959 . S
C239 C238 1.517 . S
C239 O287 1.468 . S
C239 H300 0.980 . S
C240 C241 1.349 . S
C240 C245 1.367 . S
C240 O287 1.408 . S
C241 C240 1.349 . S
C241 C242 1.407 . S
C241 H304 0.930 . S
C242 C241 1.407 . S
C242 C243 1.449 . S
C242 C246 1.535 . S
C243 C242 1.449 . S
C243 C244 1.384 . S
C243 C268 1.553 . S
C244 C243 1.384 . S
C244 C245 1.364 . S
C244 C247 1.450 . S
C245 C240 1.367 . S
C245 C244 1.364 . S
C245 H305 0.931 . S
C246 C242 1.535 . S
C246 H306 0.959 . S
C246 H307 0.961 . S
C246 H308 0.959 . S
C247 C244 1.450 . S
C247 H309 0.960 . S
C247 H310 0.960 . S
C247 H311 0.960 . S
C248 C249 1.309 . S
C248 C253 1.304 . S
C248 O286 1.435 . S
C249 C248 1.309 . S
C249 C250 1.476 . S
C249 H313 0.930 . S
C250 C249 1.476 . S
C250 C251 1.400 . S
C250 C254 1.567 . S
C251 C250 1.400 . S
C251 C252 1.373 . S
C251 C273 1.432 . S
C252 C251 1.373 . S
C252 C253 1.339 . S
C252 C255 1.530 . S
C253 C248 1.304 . S
C253 C252 1.339 . S
C253 H314 0.930 . S
C254 C250 1.567 . S
C254 H315 0.961 . S
C254 H316 0.960 . S
C254 H317 0.958 . S
C255 C252 1.530 . S
C255 H318 0.961 . S
C255 H319 0.960 . S
C255 H320 0.960 . S
C256 C257 1.530 . S
C256 H322 0.961 . S
C256 H323 0.961 . S
C256 H324 0.959 . S
C257 C256 1.530 . S
C257 O285 1.412 . S
C257 H321 0.980 . S
C258 C259 1.288 . S
C258 C263 1.377 . S
C258 O285 1.393 . S
C259 C258 1.288 . S
C259 C260 1.369 . S
C259 H325 0.932 . S
C260 C259 1.369 . S
C260 C261 1.398 . S
C260 C264 1.527 . S
C261 C260 1.398 . S
C261 C262 1.380 . S
C261 C275 1.497 . S
C262 C261 1.380 . S
C262 C263 1.383 . S
C262 C265 1.603 . S
C263 C258 1.377 . S
C263 C262 1.383 . S
C263 H326 0.929 . S
C264 C260 1.527 . S
C264 H327 0.961 . S
C264 H328 0.959 . S
C264 H329 0.959 . S
C265 C262 1.603 . S
C265 H330 0.960 . S
C265 H331 0.962 . S
C265 H332 0.961 . S
C266 C233 1.587 . S
C266 C267 1.360 . S
C266 C279 1.412 . S
C267 C266 1.360 . S
C267 C268 1.365 . S
C267 H333 0.929 . S
C268 C243 1.553 . S
C268 C267 1.365 . S
C268 C269 1.404 . S
C269 C268 1.404 . S
C269 C270 1.395 . S
C269 C280 1.451 . S
C270 C269 1.395 . S
C270 C271 1.322 . S
C270 H334 0.930 . S
C271 C270 1.322 . S
C271 C272 1.459 . S
C271 H335 0.929 . S
C272 C271 1.459 . S
C272 C273 1.445 . S
C272 C281 1.395 . S
C273 C251 1.432 . S
C273 C272 1.445 . S
C273 C274 1.370 . S
C274 C273 1.370 . S
C274 C275 1.438 . S
C274 H336 0.930 . S
C275 C261 1.497 . S
C275 C274 1.438 . S
C275 C276 1.360 . S
C276 C275 1.360 . S
C276 C277 1.401 . S
C276 C281 1.446 . S
C277 C276 1.401 . S
C277 C278 1.347 . S
C277 H337 0.929 . S
C278 C277 1.347 . S
C278 C279 1.455 . S
C278 H338 0.930 . S
C279 C266 1.412 . S
C279 C278 1.455 . S
C279 C280 1.331 . S
C280 C269 1.451 . S
C280 C279 1.331 . S
C280 C281 1.497 . S
C281 C272 1.395 . S
C281 C276 1.446 . S
C281 C280 1.497 . S
C282 C283 1.582 . S
C282 H339 0.962 . S
C282 H340 0.959 . S
C282 H341 0.958 . S
C283 C282 1.582 . S
C283 O286 1.458 . S
C283 H312 0.980 . S
O284 C229 1.426 . S
O284 C230 1.334 . S
O285 C257 1.412 . S
O285 C258 1.393 . S
O286 C248 1.435 . S
O286 C283 1.458 . S
O287 C239 1.468 . S
O287 C240 1.408 . S
H288 C229 0.980 . S
H289 C228 0.959 . S
H290 C228 0.959 . S
H291 C228 0.960 . S
H292 C231 0.929 . S
H293 C235 0.929 . S
H294 C236 0.959 . S
H295 C236 0.961 . S
H296 C236 0.961 . S
H297 C237 0.960 . S
H298 C237 0.960 . S
H299 C237 0.961 . S
H300 C239 0.980 . S
H301 C238 0.961 . S
H302 C238 0.960 . S
H303 C238 0.959 . S
H304 C241 0.930 . S
H305 C245 0.931 . S
H306 C246 0.959 . S
H307 C246 0.961 . S
H308 C246 0.959 . S
H309 C247 0.960 . S
H310 C247 0.960 . S
H311 C247 0.960 . S
H312 C283 0.980 . S
H313 C249 0.930 . S
H314 C253 0.930 . S
H315 C254 0.961 . S
H316 C254 0.960 . S
H317 C254 0.958 . S
H318 C255 0.961 . S
H319 C255 0.960 . S
H320 C255 0.960 . S
H321 C257 0.980 . S
H322 C256 0.961 . S
H323 C256 0.961 . S
H324 C256 0.959 . S
H325 C259 0.932 . S
H326 C263 0.929 . S
H327 C264 0.961 . S
H328 C264 0.959 . S
H329 C264 0.959 . S
H330 C265 0.960 . S
H331 C265 0.962 . S
H332 C265 0.961 . S
H333 C267 0.929 . S
H334 C270 0.930 . S
H335 C271 0.929 . S
H336 C274 0.930 . S
H337 C277 0.929 . S
H338 C278 0.930 . S
H339 C282 0.962 . S
H340 C282 0.959 . S
H341 C282 0.958 . S
C342 C343 1.560 . S
C342 H403 0.959 . S
C342 H404 0.959 . S
C342 H405 0.960 . S
C343 C342 1.560 . S
C343 O398 1.426 . S
C343 H402 0.980 . S
C344 C345 1.407 . S
C344 C349 1.418 . S
C344 O398 1.334 . S
C345 C344 1.407 . S
C345 C346 1.360 . S
C345 H406 0.929 . S
C346 C345 1.360 . S
C346 C347 1.401 . S
C346 C350 1.527 . S
C347 C346 1.401 . S
C347 C348 1.405 . S
C347 C380 1.587 . S
C348 C347 1.405 . S
C348 C349 1.332 . S
C348 C351 1.496 . S
C349 C344 1.418 . S
C349 C348 1.332 . S
C349 H407 0.929 . S
C350 C346 1.527 . S
C350 H408 0.959 . S
C350 H409 0.961 . S
C350 H410 0.961 . S
C351 C348 1.496 . S
C351 H411 0.960 . S
C351 H412 0.960 . S
C351 H413 0.961 . S
C352 C353 1.517 . S
C352 H415 0.961 . S
C352 H416 0.960 . S
C352 H417 0.959 . S
C353 C352 1.517 . S
C353 O401 1.468 . S
C353 H414 0.980 . S
C354 C355 1.349 . S
C354 C359 1.367 . S
C354 O401 1.408 . S
C355 C354 1.349 . S
C355 C356 1.407 . S
C355 H418 0.930 . S
C356 C355 1.407 . S
C356 C357 1.447 . S
C356 C360 1.535 1_655 S
C357 C356 1.447 . S
C357 C358 1.394 . S
C357 C382 1.546 1_655 S
C358 C357 1.394 . S
C358 C359 1.364 . S
C358 C361 1.446 . S
C359 C354 1.367 . S
C359 C358 1.364 . S
C359 H419 0.931 . S
C360 C356 1.535 1_455 S
C360 H420 0.959 . S
C360 H421 0.961 . S
C360 H422 0.959 1_455 S
C361 C358 1.446 . S
C361 H423 0.988 . S
C361 H424 0.920 1_655 S
C361 H425 0.979 . S
C362 C363 1.309 . S
C362 C367 1.304 . S
C362 O400 1.435 . S
C363 C362 1.309 . S
C363 C364 1.476 . S
C363 H427 0.930 . S
C364 C363 1.476 . S
C364 C365 1.400 . S
C364 C368 1.567 . S
C365 C364 1.400 . S
C365 C366 1.373 . S
C365 C387 1.432 . S
C366 C365 1.373 . S
C366 C367 1.339 . S
C366 C369 1.530 . S
C367 C362 1.304 . S
C367 C366 1.339 . S
C367 H428 0.930 . S
C368 C364 1.567 . S
C368 H429 0.961 . S
C368 H430 0.960 . S
C368 H431 0.958 . S
C369 C366 1.530 . S
C369 H432 0.961 . S
C369 H433 0.960 . S
C369 H434 0.960 . S
C370 C371 1.530 . S
C370 H436 0.961 . S
C370 H437 0.961 . S
C370 H438 0.959 . S
C371 C370 1.530 . S
C371 O399 1.412 . S
C371 H435 0.980 . S
C372 C373 1.288 . S
C372 C377 1.377 . S
C372 O399 1.393 . S
C373 C372 1.288 . S
C373 C374 1.369 . S
C373 H439 0.932 . S
C374 C373 1.369 . S
C374 C375 1.398 . S
C374 C378 1.527 . S
C375 C374 1.398 . S
C375 C376 1.380 . S
C375 C389 1.497 . S
C376 C375 1.380 . S
C376 C377 1.383 . S
C376 C379 1.603 . S
C377 C372 1.377 . S
C377 C376 1.383 . S
C377 H440 0.929 . S
C378 C374 1.527 . S
C378 H441 0.961 . S
C378 H442 0.959 . S
C378 H443 0.959 . S
C379 C376 1.603 . S
C379 H444 0.960 . S
C379 H445 0.962 . S
C379 H446 0.961 . S
C380 C347 1.587 . S
C380 C381 1.360 . S
C380 C393 1.412 . S
C381 C380 1.360 . S
C381 C382 1.365 . S
C381 H447 0.929 . S
C382 C357 1.546 1_455 S
C382 C381 1.365 . S
C382 C383 1.404 . S
C383 C382 1.404 . S
C383 C384 1.395 1_455 S
C383 C394 1.451 . S
C384 C383 1.395 1_655 S
C384 C385 1.322 . S
C384 H448 0.930 . S
C385 C384 1.322 . S
C385 C386 1.459 . S
C385 H449 0.929 . S
C386 C385 1.459 . S
C386 C387 1.445 . S
C386 C395 1.395 1_655 S
C387 C365 1.432 . S
C387 C386 1.445 . S
C387 C388 1.370 . S
C388 C387 1.370 . S
C388 C389 1.438 1_655 S
C388 H450 0.930 . S
C389 C375 1.497 . S
C389 C388 1.438 1_455 S
C389 C390 1.360 . S
C390 C389 1.360 . S
C390 C391 1.401 . S
C390 C395 1.446 . S
C391 C390 1.401 . S
C391 C392 1.347 . S
C391 H451 0.929 . S
C392 C391 1.347 . S
C392 C393 1.455 . S
C392 H452 0.930 . S
C393 C380 1.412 . S
C393 C392 1.455 . S
C393 C394 1.331 . S
C394 C383 1.451 . S
C394 C393 1.331 . S
C394 C395 1.497 . S
C395 C386 1.395 1_455 S
C395 C390 1.446 . S
C395 C394 1.497 . S
C396 C397 1.582 . S
C396 H453 0.962 . S
C396 H454 0.959 . S
C396 H455 0.958 . S
C397 C396 1.582 . S
C397 O400 1.458 . S
C397 H426 0.980 . S
O398 C343 1.426 . S
O398 C344 1.334 . S
O399 C371 1.412 . S
O399 C372 1.393 . S
O400 C362 1.435 . S
O400 C397 1.458 . S
O401 C353 1.468 . S
O401 C354 1.408 . S
H402 C343 0.980 . S
H403 C342 0.959 . S
H404 C342 0.959 . S
H405 C342 0.960 . S
H406 C345 0.929 . S
H407 C349 0.929 . S
H408 C350 0.959 . S
H409 C350 0.961 . S
H410 C350 0.961 . S
H411 C351 0.960 . S
H412 C351 0.960 . S
H413 C351 0.961 . S
H414 C353 0.980 . S
H415 C352 0.961 . S
H416 C352 0.960 . S
H417 C352 0.959 . S
H418 C355 0.930 . S
H419 C359 0.931 . S
H420 C360 0.959 . S
H421 C360 0.961 . S
H422 C360 0.959 1_655 S
H423 C361 0.988 . S
H424 C361 0.920 1_455 S
H425 C361 0.979 . S
H426 C397 0.980 . S
H427 C363 0.930 . S
H428 C367 0.930 . S
H429 C368 0.961 . S
H430 C368 0.960 . S
H431 C368 0.958 . S
H432 C369 0.961 . S
H433 C369 0.960 . S
H434 C369 0.960 . S
H435 C371 0.980 . S
H436 C370 0.961 . S
H437 C370 0.961 . S
H438 C370 0.959 . S
H439 C373 0.932 . S
H440 C377 0.929 . S
H441 C378 0.961 . S
H442 C378 0.959 . S
H443 C378 0.959 . S
H444 C379 0.960 . S
H445 C379 0.962 . S
H446 C379 0.961 . S
H447 C381 0.929 . S
H448 C384 0.930 . S
H449 C385 0.929 . S
H450 C388 0.930 . S
H451 C391 0.929 . S
H452 C392 0.930 . S
H453 C396 0.962 . S
H454 C396 0.959 . S
H455 C396 0.958 . S
C456 C457 1.560 . S
C456 H517 0.959 . S
C456 H518 0.959 . S
C456 H519 0.960 . S
C457 C456 1.560 . S
C457 O512 1.426 . S
C457 H516 0.980 . S
C458 C459 1.407 . S
C458 C463 1.418 . S
C458 O512 1.334 . S
C459 C458 1.407 . S
C459 C460 1.360 . S
C459 H520 0.929 . S
C460 C459 1.360 . S
C460 C461 1.401 . S
C460 C464 1.527 . S
C461 C460 1.401 . S
C461 C462 1.405 . S
C461 C494 1.587 . S
C462 C461 1.405 . S
C462 C463 1.332 . S
C462 C465 1.496 . S
C463 C458 1.418 . S
C463 C462 1.332 . S
C463 H521 0.929 . S
C464 C460 1.527 . S
C464 H522 0.959 . S
C464 H523 0.961 . S
C464 H524 0.961 . S
C465 C462 1.496 . S
C465 H525 0.960 . S
C465 H526 0.960 . S
C465 H527 0.961 . S
C466 C467 1.517 . S
C466 H529 0.961 . S
C466 H530 0.960 . S
C466 H531 0.959 . S
C467 C466 1.517 . S
C467 O515 1.468 . S
C467 H528 0.980 . S
C468 C469 1.349 . S
C468 C473 1.367 . S
C468 O515 1.408 . S
C469 C468 1.349 . S
C469 C470 1.407 . S
C469 H532 0.930 . S
C470 C469 1.407 . S
C470 C471 1.449 . S
C470 C474 1.535 . S
C471 C470 1.449 . S
C471 C472 1.384 . S
C471 C496 1.553 . S
C472 C471 1.384 . S
C472 C473 1.364 . S
C472 C475 1.450 . S
C473 C468 1.367 . S
C473 C472 1.364 . S
C473 H533 0.931 . S
C474 C470 1.535 . S
C474 H534 0.959 . S
C474 H535 0.961 . S
C474 H536 0.959 . S
C475 C472 1.450 . S
C475 H537 0.960 . S
C475 H538 0.960 . S
C475 H539 0.960 . S
C476 C477 1.309 . S
C476 C481 1.304 . S
C476 O514 1.435 . S
C477 C476 1.309 . S
C477 C478 1.476 . S
C477 H541 0.930 . S
C478 C477 1.476 . S
C478 C479 1.400 . S
C478 C482 1.567 . S
C479 C478 1.400 . S
C479 C480 1.373 . S
C479 C501 1.432 . S
C480 C479 1.373 . S
C480 C481 1.339 . S
C480 C483 1.530 . S
C481 C476 1.304 . S
C481 C480 1.339 . S
C481 H542 0.930 . S
C482 C478 1.567 . S
C482 H543 0.961 . S
C482 H544 0.960 . S
C482 H545 0.958 . S
C483 C480 1.530 . S
C483 H546 0.961 . S
C483 H547 0.960 . S
C483 H548 0.960 . S
C484 C485 1.530 . S
C484 H550 0.961 . S
C484 H551 0.961 . S
C484 H552 0.959 . S
C485 C484 1.530 . S
C485 O513 1.412 . S
C485 H549 0.980 . S
C486 C487 1.288 . S
C486 C491 1.377 . S
C486 O513 1.393 . S
C487 C486 1.288 . S
C487 C488 1.369 1_565 S
C487 H553 0.932 . S
C488 C487 1.369 1_545 S
C488 C489 1.398 . S
C488 C492 1.527 . S
C489 C488 1.398 . S
C489 C490 1.380 1_545 S
C489 C503 1.497 . S
C490 C489 1.380 1_565 S
C490 C491 1.383 . S
C490 C493 1.603 . S
C491 C486 1.377 . S
C491 C490 1.383 . S
C491 H554 0.929 . S
C492 C488 1.527 . S
C492 H555 0.961 . S
C492 H556 0.959 . S
C492 H557 0.959 . S
C493 C490 1.603 . S
C493 H558 0.960 . S
C493 H559 0.962 1_565 S
C493 H560 0.961 . S
C494 C461 1.587 . S
C494 C495 1.360 . S
C494 C507 1.412 . S
C495 C494 1.360 . S
C495 C496 1.365 1_565 S
C495 H561 0.929 . S
C496 C471 1.553 . S
C496 C495 1.365 1_545 S
C496 C497 1.404 . S
C497 C496 1.404 . S
C497 C498 1.395 . S
C497 C508 1.451 . S
C498 C497 1.395 . S
C498 C499 1.322 . S
C498 H562 0.930 . S
C499 C498 1.322 . S
C499 C500 1.489 . S
C499 H563 0.929 . S
C500 C499 1.489 . S
C500 C501 1.411 1_556 S
C500 C509 1.400 . S
C501 C479 1.432 . S
C501 C500 1.411 1_554 S
C501 C502 1.370 . S
C502 C501 1.370 . S
C502 C503 1.438 . S
C502 H564 0.930 . S
C503 C489 1.497 . S
C503 C502 1.438 . S
C503 C504 1.360 . S
C504 C503 1.360 . S
C504 C505 1.401 1_545 S
C504 C509 1.446 1_554 S
C505 C504 1.401 1_565 S
C505 C506 1.347 1_554 S
C505 H565 0.929 . S
C506 C505 1.347 1_556 S
C506 C507 1.455 . S
C506 H566 0.930 . S
C507 C494 1.412 . S
C507 C506 1.455 . S
C507 C508 1.331 1_565 S
C508 C497 1.451 . S
C508 C507 1.331 1_545 S
C508 C509 1.497 . S
C509 C500 1.400 . S
C509 C504 1.446 1_556 S
C509 C508 1.497 . S
C510 C511 1.582 . S
C510 H567 0.962 . S
C510 H568 0.959 . S
C510 H569 0.958 . S
C511 C510 1.582 . S
C511 O514 1.458 . S
C511 H540 0.980 . S
O512 C457 1.426 . S
O512 C458 1.334 . S
O513 C485 1.412 . S
O513 C486 1.393 . S
O514 C476 1.435 . S
O514 C511 1.458 . S
O515 C467 1.468 . S
O515 C468 1.408 . S
H516 C457 0.980 . S
H517 C456 0.959 . S
H518 C456 0.959 . S
H519 C456 0.960 . S
H520 C459 0.929 . S
H521 C463 0.929 . S
H522 C464 0.959 . S
H523 C464 0.961 . S
H524 C464 0.961 . S
H525 C465 0.960 . S
H526 C465 0.960 . S
H527 C465 0.961 . S
H528 C467 0.980 . S
H529 C466 0.961 . S
H530 C466 0.960 . S
H531 C466 0.959 . S
H532 C469 0.930 . S
H533 C473 0.931 . S
H534 C474 0.959 . S
H535 C474 0.961 . S
H536 C474 0.959 . S
H537 C475 0.960 . S
H538 C475 0.960 . S
H539 C475 0.960 . S
H540 C511 0.980 . S
H541 C477 0.930 . S
H542 C481 0.930 . S
H543 C482 0.961 . S
H544 C482 0.960 . S
H545 C482 0.958 . S
H546 C483 0.961 . S
H547 C483 0.960 . S
H548 C483 0.960 . S
H549 C485 0.980 . S
H550 C484 0.961 . S
H551 C484 0.961 . S
H552 C484 0.959 . S
H553 C487 0.932 . S
H554 C491 0.929 . S
H555 C492 0.961 . S
H556 C492 0.959 . S
H557 C492 0.959 . S
H558 C493 0.960 . S
H559 C493 0.962 1_545 S
H560 C493 0.961 . S
H561 C495 0.929 . S
H562 C498 0.930 . S
H563 C499 0.929 . S
H564 C502 0.930 . S
H565 C505 0.929 . S
H566 C506 0.930 . S
H567 C510 0.962 . S
H568 C510 0.959 . S
H569 C510 0.958 . S
C570 C571 1.560 . S
C570 H631 0.959 . S
C570 H632 0.959 . S
C570 H633 0.960 . S
C571 C570 1.560 . S
C571 O626 1.426 . S
C571 H630 0.980 . S
C572 C573 1.407 . S
C572 C577 1.418 . S
C572 O626 1.334 . S
C573 C572 1.407 . S
C573 C574 1.360 . S
C573 H634 0.929 . S
C574 C573 1.360 . S
C574 C575 1.401 . S
C574 C578 1.527 . S
C575 C574 1.401 . S
C575 C576 1.405 . S
C575 C608 1.587 . S
C576 C575 1.405 . S
C576 C577 1.332 . S
C576 C579 1.496 . S
C577 C572 1.418 . S
C577 C576 1.332 . S
C577 H635 0.929 . S
C578 C574 1.527 . S
C578 H636 0.959 . S
C578 H637 0.961 . S
C578 H638 0.961 . S
C579 C576 1.496 . S
C579 H639 0.960 . S
C579 H640 0.960 . S
C579 H641 0.961 . S
C580 C581 1.517 . S
C580 H643 0.961 . S
C580 H644 0.960 . S
C580 H645 0.959 . S
C581 C580 1.517 . S
C581 O629 1.468 . S
C581 H642 0.980 . S
C582 C583 1.349 . S
C582 C587 1.367 . S
C582 O629 1.408 . S
C583 C582 1.349 . S
C583 C584 1.407 . S
C583 H646 0.930 . S
C584 C583 1.407 . S
C584 C585 1.449 . S
C584 C588 1.535 . S
C585 C584 1.449 . S
C585 C586 1.384 . S
C585 C610 1.553 . S
C586 C585 1.384 . S
C586 C587 1.364 . S
C586 C589 1.450 . S
C587 C582 1.367 . S
C587 C586 1.364 . S
C587 H647 0.931 . S
C588 C584 1.535 . S
C588 H648 0.959 . S
C588 H649 0.961 . S
C588 H650 0.959 . S
C589 C586 1.450 . S
C589 H651 0.960 . S
C589 H652 0.960 . S
C589 H653 0.960 . S
C590 C591 1.309 . S
C590 C595 1.304 . S
C590 O628 1.435 . S
C591 C590 1.309 . S
C591 C592 1.476 . S
C591 H655 0.930 . S
C592 C591 1.476 . S
C592 C593 1.400 . S
C592 C596 1.567 . S
C593 C592 1.400 . S
C593 C594 1.373 . S
C593 C615 1.432 . S
C594 C593 1.373 . S
C594 C595 1.339 . S
C594 C597 1.530 . S
C595 C590 1.304 . S
C595 C594 1.339 . S
C595 H656 0.930 . S
C596 C592 1.567 . S
C596 H657 0.961 . S
C596 H658 0.960 . S
C596 H659 0.958 . S
C597 C594 1.530 . S
C597 H660 0.961 . S
C597 H661 0.960 . S
C597 H662 0.960 . S
C598 C599 1.530 . S
C598 H664 0.961 . S
C598 H665 0.961 . S
C598 H666 0.959 . S
C599 C598 1.530 . S
C599 O627 1.412 . S
C599 H663 0.980 . S
C600 C601 1.288 . S
C600 C605 1.377 . S
C600 O627 1.393 . S
C601 C600 1.288 . S
C601 C602 1.369 . S
C601 H667 0.932 . S
C602 C601 1.369 . S
C602 C603 1.398 . S
C602 C606 1.527 . S
C603 C602 1.398 . S
C603 C604 1.380 . S
C603 C617 1.497 . S
C604 C603 1.380 . S
C604 C605 1.383 . S
C604 C607 1.603 . S
C605 C600 1.377 . S
C605 C604 1.383 . S
C605 H668 0.929 . S
C606 C602 1.527 . S
C606 H669 0.961 . S
C606 H670 0.959 . S
C606 H671 0.959 . S
C607 C604 1.603 . S
C607 H672 0.960 . S
C607 H673 0.962 . S
C607 H674 0.961 . S
C608 C575 1.587 . S
C608 C609 1.360 . S
C608 C621 1.412 . S
C609 C608 1.360 . S
C609 C610 1.365 . S
C609 H675 0.929 . S
C610 C585 1.553 . S
C610 C609 1.365 . S
C610 C611 1.404 . S
C611 C610 1.404 . S
C611 C612 1.395 . S
C611 C622 1.451 . S
C612 C611 1.395 . S
C612 C613 1.322 . S
C612 H676 0.930 . S
C613 C612 1.322 . S
C613 C614 1.459 . S
C613 H677 0.929 . S
C614 C613 1.459 . S
C614 C615 1.445 . S
C614 C623 1.395 . S
C615 C593 1.432 . S
C615 C614 1.445 . S
C615 C616 1.370 . S
C616 C615 1.370 . S
C616 C617 1.438 . S
C616 H678 0.930 . S
C617 C603 1.497 . S
C617 C616 1.438 . S
C617 C618 1.360 . S
C618 C617 1.360 . S
C618 C619 1.401 . S
C618 C623 1.446 . S
C619 C618 1.401 . S
C619 C620 1.347 . S
C619 H679 0.929 . S
C620 C619 1.347 . S
C620 C621 1.455 . S
C620 H680 0.930 . S
C621 C608 1.412 . S
C621 C620 1.455 . S
C621 C622 1.331 . S
C622 C611 1.451 . S
C622 C621 1.331 . S
C622 C623 1.497 . S
C623 C614 1.395 . S
C623 C618 1.446 . S
C623 C622 1.497 . S
C624 C625 1.582 . S
C624 H681 0.962 . S
C624 H682 0.959 . S
C624 H683 0.958 . S
C625 C624 1.582 . S
C625 O628 1.458 . S
C625 H654 0.980 . S
O626 C571 1.426 . S
O626 C572 1.334 . S
O627 C599 1.412 . S
O627 C600 1.393 . S
O628 C590 1.435 . S
O628 C625 1.458 . S
O629 C581 1.468 . S
O629 C582 1.408 . S
H630 C571 0.980 . S
H631 C570 0.959 . S
H632 C570 0.959 . S
H633 C570 0.960 . S
H634 C573 0.929 . S
H635 C577 0.929 . S
H636 C578 0.959 . S
H637 C578 0.961 . S
H638 C578 0.961 . S
H639 C579 0.960 . S
H640 C579 0.960 . S
H641 C579 0.961 . S
H642 C581 0.980 . S
H643 C580 0.961 . S
H644 C580 0.960 . S
H645 C580 0.959 . S
H646 C583 0.930 . S
H647 C587 0.931 . S
H648 C588 0.959 . S
H649 C588 0.961 . S
H650 C588 0.959 . S
H651 C589 0.960 . S
H652 C589 0.960 . S
H653 C589 0.960 . S
H654 C625 0.980 . S
H655 C591 0.930 . S
H656 C595 0.930 . S
H657 C596 0.961 . S
H658 C596 0.960 . S
H659 C596 0.958 . S
H660 C597 0.961 . S
H661 C597 0.960 . S
H662 C597 0.960 . S
H663 C599 0.980 . S
H664 C598 0.961 . S
H665 C598 0.961 . S
H666 C598 0.959 . S
H667 C601 0.932 . S
H668 C605 0.929 . S
H669 C606 0.961 . S
H670 C606 0.959 . S
H671 C606 0.959 . S
H672 C607 0.960 . S
H673 C607 0.962 . S
H674 C607 0.961 . S
H675 C609 0.929 . S
H676 C612 0.930 . S
H677 C613 0.929 . S
H678 C616 0.930 . S
H679 C619 0.929 . S
H680 C620 0.930 . S
H681 C624 0.962 . S
H682 C624 0.959 . S
H683 C624 0.958 . S
Mn684 O689 2.095 . S
Mn684 O699 2.162 . S
Mn684 O700 2.297 . S
Mn684 O708 2.385 . S
Mn684 O709 2.209 . S
Mn684 O710 2.094 . S
Mn685 O690 2.121 . S
Mn685 N692 2.257 . S
Mn685 N701 2.282 . S
Mn685 O709 2.215 . S
Mn685 O711 2.117 . S
C686 O708 1.234 . S
C686 O709 1.283 . S
C687 O699 1.281 . S
C687 O700 1.236 . S
C688 O710 1.240 . S
C688 O711 1.264 . S
O689 Mn684 2.095 . S
O689 C698 1.250 . S
O690 Mn685 2.121 . S
O690 C698 1.258 . S
C691 N692 1.326 . S
C691 C695 1.460 . S
C691 H697 0.929 . S
N692 Mn685 2.257 . S
N692 C691 1.326 . S
N692 C696 1.362 . S
C693 C694 1.258 . S
C693 C696 1.431 . S
C693 C713 1.449 . S
C694 C693 1.258 . S
C694 C695 1.477 . S
C694 H714 0.931 . S
C695 C691 1.460 . S
C695 C694 1.477 . S
C695 H715 0.930 . S
C696 N692 1.362 . S
C696 C693 1.431 . S
C696 C706 1.476 . S
H697 C691 0.929 . S
C698 O689 1.250 . S
C698 O690 1.258 . S
O699 Mn684 2.162 . S
O699 C687 1.281 . S
O700 Mn684 2.297 . S
O700 C687 1.236 . S
N701 Mn685 2.282 . S
N701 C702 1.328 . S
N701 C706 1.318 . S
C702 N701 1.328 . S
C702 C703 1.457 . S
C702 H707 0.929 . S
C703 C702 1.457 . S
C703 C704 1.291 . S
C703 H716 0.931 . S
C704 C703 1.291 . S
C704 C705 1.373 . S
C704 H717 0.929 . S
C705 C704 1.373 . S
C705 C706 1.396 . S
C705 C712 1.403 . S
C706 C696 1.476 . S
C706 N701 1.318 . S
C706 C705 1.396 . S
H707 C702 0.929 . S
O708 Mn684 2.385 . S
O708 C686 1.234 . S
O709 Mn684 2.209 . S
O709 Mn685 2.215 . S
O709 C686 1.283 . S
O710 Mn684 2.094 . S
O710 C688 1.240 . S
O711 Mn685 2.117 . S
O711 C688 1.264 . S
C712 C705 1.403 . S
C712 C713 1.399 . S
C712 H718 0.929 . S
C713 C693 1.449 . S
C713 C712 1.399 . S
C713 H719 0.930 . S
H714 C694 0.931 . S
H715 C695 0.930 . S
H716 C703 0.931 . S
H717 C704 0.929 . S
H718 C712 0.929 . S
H719 C713 0.930 . S
Mn720 O725 2.095 . S
Mn720 O735 2.162 . S
Mn720 O736 2.297 . S
Mn720 O744 2.385 . S
Mn720 O745 2.209 . S
Mn720 O746 2.094 . S
Mn721 O726 2.121 . S
Mn721 N728 2.257 . S
Mn721 N737 2.282 . S
Mn721 O745 2.215 . S
Mn721 O747 2.117 . S
C722 O744 1.234 . S
C722 O745 1.283 . S
C723 O735 1.281 . S
C723 O736 1.236 . S
C724 O746 1.240 . S
C724 O747 1.264 . S
O725 Mn720 2.095 . S
O725 C734 1.250 . S
O726 Mn721 2.121 . S
O726 C734 1.258 . S
C727 N728 1.326 . S
C727 C731 1.460 . S
C727 H733 0.929 . S
N728 Mn721 2.257 . S
N728 C727 1.326 . S
N728 C732 1.362 . S
C729 C730 1.258 . S
C729 C732 1.431 . S
C729 C749 1.449 . S
C730 C729 1.258 . S
C730 C731 1.477 . S
C730 H750 0.931 . S
C731 C727 1.460 . S
C731 C730 1.477 . S
C731 H751 0.930 . S
C732 N728 1.362 . S
C732 C729 1.431 . S
C732 C742 1.476 . S
H733 C727 0.929 . S
C734 O725 1.250 . S
C734 O726 1.258 . S
O735 Mn720 2.162 . S
O735 C723 1.281 . S
O736 Mn720 2.297 . S
O736 C723 1.236 . S
N737 Mn721 2.282 . S
N737 C738 1.328 . S
N737 C742 1.318 . S
C738 N737 1.328 . S
C738 C739 1.457 . S
C738 H743 0.929 . S
C739 C738 1.457 . S
C739 C740 1.291 . S
C739 H752 0.931 . S
C740 C739 1.291 . S
C740 C741 1.373 . S
C740 H753 0.929 . S
C741 C740 1.373 . S
C741 C742 1.396 . S
C741 C748 1.403 . S
C742 C732 1.476 . S
C742 N737 1.318 . S
C742 C741 1.396 . S
H743 C738 0.929 . S
O744 Mn720 2.385 . S
O744 C722 1.234 . S
O745 Mn720 2.209 . S
O745 Mn721 2.215 . S
O745 C722 1.283 . S
O746 Mn720 2.094 . S
O746 C724 1.240 . S
O747 Mn721 2.117 . S
O747 C724 1.264 . S
C748 C741 1.403 . S
C748 C749 1.399 . S
C748 H754 0.929 . S
C749 C729 1.449 . S
C749 C748 1.399 . S
C749 H755 0.930 . S
H750 C730 0.931 . S
H751 C731 0.930 . S
H752 C739 0.931 . S
H753 C740 0.929 . S
H754 C748 0.929 . S
H755 C749 0.930 . S
Mn756 O761 2.095 . S
Mn756 O771 2.162 . S
Mn756 O772 2.297 . S
Mn756 O780 2.385 . S
Mn756 O781 2.209 . S
Mn756 O782 2.094 . S
Mn757 O762 2.121 . S
Mn757 N764 2.257 . S
Mn757 N773 2.282 . S
Mn757 O781 2.215 . S
Mn757 O783 2.117 . S
C758 O780 1.234 . S
C758 O781 1.283 . S
C759 O771 1.281 . S
C759 O772 1.236 . S
C760 O782 1.240 . S
C760 O783 1.264 . S
O761 Mn756 2.095 . S
O761 C770 1.250 . S
O762 Mn757 2.121 . S
O762 C770 1.258 . S
C763 N764 1.326 . S
C763 C767 1.460 . S
C763 H769 0.929 . S
N764 Mn757 2.257 . S
N764 C763 1.326 . S
N764 C768 1.362 . S
C765 C766 1.258 . S
C765 C768 1.431 . S
C765 C785 1.449 . S
C766 C765 1.258 . S
C766 C767 1.477 . S
C766 H786 0.931 . S
C767 C763 1.460 . S
C767 C766 1.477 . S
C767 H787 0.930 . S
C768 N764 1.362 . S
C768 C765 1.431 . S
C768 C778 1.476 . S
H769 C763 0.929 . S
C770 O761 1.250 . S
C770 O762 1.258 . S
O771 Mn756 2.162 . S
O771 C759 1.281 . S
O772 Mn756 2.297 . S
O772 C759 1.236 . S
N773 Mn757 2.282 . S
N773 C774 1.328 . S
N773 C778 1.318 . S
C774 N773 1.328 . S
C774 C775 1.457 . S
C774 H779 0.929 . S
C775 C774 1.457 . S
C775 C776 1.291 . S
C775 H788 0.931 . S
C776 C775 1.291 . S
C776 C777 1.373 . S
C776 H789 0.929 . S
C777 C776 1.373 . S
C777 C778 1.396 . S
C777 C784 1.403 . S
C778 C768 1.476 . S
C778 N773 1.318 . S
C778 C777 1.396 . S
H779 C774 0.929 . S
O780 Mn756 2.385 . S
O780 C758 1.234 . S
O781 Mn756 2.209 . S
O781 Mn757 2.215 . S
O781 C758 1.283 . S
O782 Mn756 2.094 . S
O782 C760 1.240 . S
O783 Mn757 2.117 . S
O783 C760 1.264 . S
C784 C777 1.403 . S
C784 C785 1.399 . S
C784 H790 0.929 . S
C785 C765 1.449 . S
C785 C784 1.399 . S
C785 H791 0.930 . S
H786 C766 0.931 . S
H787 C767 0.930 . S
H788 C775 0.931 . S
H789 C776 0.929 . S
H790 C784 0.929 . S
H791 C785 0.930 . S
Mn792 O797 2.095 . S
Mn792 O807 2.162 . S
Mn792 O808 2.297 . S
Mn792 O816 2.385 . S
Mn792 O817 2.209 . S
Mn792 O818 2.094 . S
Mn793 O798 2.121 . S
Mn793 N800 2.257 . S
Mn793 N809 2.282 . S
Mn793 O817 2.215 . S
Mn793 O819 2.117 . S
C794 O816 1.234 . S
C794 O817 1.283 . S
C795 O807 1.281 . S
C795 O808 1.236 . S
C796 O818 1.240 . S
C796 O819 1.264 . S
O797 Mn792 2.095 . S
O797 C806 1.250 . S
O798 Mn793 2.121 . S
O798 C806 1.258 . S
C799 N800 1.326 . S
C799 C803 1.460 . S
C799 H805 0.929 . S
N800 Mn793 2.257 . S
N800 C799 1.326 . S
N800 C804 1.362 . S
C801 C802 1.258 . S
C801 C804 1.431 . S
C801 C821 1.449 . S
C802 C801 1.258 . S
C802 C803 1.477 . S
C802 H822 0.931 . S
C803 C799 1.460 . S
C803 C802 1.477 . S
C803 H823 0.930 . S
C804 N800 1.362 . S
C804 C801 1.431 . S
C804 C814 1.476 . S
H805 C799 0.929 . S
C806 O797 1.250 . S
C806 O798 1.258 . S
O807 Mn792 2.162 . S
O807 C795 1.281 . S
O808 Mn792 2.297 . S
O808 C795 1.236 . S
N809 Mn793 2.282 . S
N809 C810 1.328 . S
N809 C814 1.318 . S
C810 N809 1.328 . S
C810 C811 1.457 . S
C810 H815 0.929 . S
C811 C810 1.457 . S
C811 C812 1.291 . S
C811 H824 0.931 . S
C812 C811 1.291 . S
C812 C813 1.373 . S
C812 H825 0.929 . S
C813 C812 1.373 . S
C813 C814 1.396 . S
C813 C820 1.403 . S
C814 C804 1.476 . S
C814 N809 1.318 . S
C814 C813 1.396 . S
H815 C810 0.929 . S
O816 Mn792 2.385 . S
O816 C794 1.234 . S
O817 Mn792 2.209 . S
O817 Mn793 2.215 . S
O817 C794 1.283 . S
O818 Mn792 2.094 . S
O818 C796 1.240 . S
O819 Mn793 2.117 . S
O819 C796 1.264 . S
C820 C813 1.403 . S
C820 C821 1.399 . S
C820 H826 0.929 . S
C821 C801 1.449 . S
C821 C820 1.399 . S
C821 H827 0.930 . S
H822 C802 0.931 . S
H823 C803 0.930 . S
H824 C811 0.931 . S
H825 C812 0.929 . S
H826 C820 0.929 . S
H827 C821 0.930 . S
Mn828 O833 2.095 . S
Mn828 O843 2.162 . S
Mn828 O844 2.297 . S
Mn828 O852 2.385 . S
Mn828 O853 2.209 . S
Mn828 O854 2.094 . S
Mn829 O834 2.121 . S
Mn829 N836 2.257 . S
Mn829 N845 2.282 . S
Mn829 O853 2.215 . S
Mn829 O855 2.117 . S
C830 O852 1.234 . S
C830 O853 1.283 . S
C831 O843 1.281 . S
C831 O844 1.236 . S
C832 O854 1.240 . S
C832 O855 1.264 . S
O833 Mn828 2.095 . S
O833 C842 1.250 . S
O834 Mn829 2.121 . S
O834 C842 1.258 . S
C835 N836 1.326 . S
C835 C839 1.460 . S
C835 H841 0.929 . S
N836 Mn829 2.257 . S
N836 C835 1.326 . S
N836 C840 1.362 . S
C837 C838 1.258 . S
C837 C840 1.431 . S
C837 C857 1.449 . S
C838 C837 1.258 . S
C838 C839 1.477 . S
C838 H858 0.931 . S
C839 C835 1.460 . S
C839 C838 1.477 . S
C839 H859 0.930 . S
C840 N836 1.362 . S
C840 C837 1.431 . S
C840 C850 1.476 . S
H841 C835 0.929 . S
C842 O833 1.250 . S
C842 O834 1.258 . S
O843 Mn828 2.162 . S
O843 C831 1.281 . S
O844 Mn828 2.297 . S
O844 C831 1.236 . S
N845 Mn829 2.282 . S
N845 C846 1.328 . S
N845 C850 1.318 . S
C846 N845 1.328 . S
C846 C847 1.457 . S
C846 H851 0.929 . S
C847 C846 1.457 . S
C847 C848 1.291 . S
C847 H860 0.931 . S
C848 C847 1.291 . S
C848 C849 1.373 . S
C848 H861 0.929 . S
C849 C848 1.373 . S
C849 C850 1.396 . S
C849 C856 1.403 . S
C850 C840 1.476 . S
C850 N845 1.318 . S
C850 C849 1.396 . S
H851 C846 0.929 . S
O852 Mn828 2.385 . S
O852 C830 1.234 . S
O853 Mn828 2.209 . S
O853 Mn829 2.215 . S
O853 C830 1.283 . S
O854 Mn828 2.094 . S
O854 C832 1.240 . S
O855 Mn829 2.117 . S
O855 C832 1.264 . S
C856 C849 1.403 . S
C856 C857 1.399 . S
C856 H862 0.929 . S
C857 C837 1.449 . S
C857 C856 1.399 . S
C857 H863 0.930 . S
H858 C838 0.931 . S
H859 C839 0.930 . S
H860 C847 0.931 . S
H861 C848 0.929 . S
H862 C856 0.929 . S
H863 C857 0.930 . S
Mn864 O869 2.095 . S
Mn864 O879 2.162 . S
Mn864 O880 2.297 . S
Mn864 O888 2.385 . S
Mn864 O889 2.209 . S
Mn864 O890 2.094 . S
Mn865 O870 2.121 . S
Mn865 N872 2.257 . S
Mn865 N881 2.282 . S
Mn865 O889 2.215 . S
Mn865 O891 2.117 . S
C866 O888 1.234 . S
C866 O889 1.283 . S
C867 O879 1.281 . S
C867 O880 1.236 . S
C868 O890 1.240 . S
C868 O891 1.264 . S
O869 Mn864 2.095 . S
O869 C878 1.250 . S
O870 Mn865 2.121 . S
O870 C878 1.258 . S
C871 N872 1.326 . S
C871 C875 1.460 . S
C871 H877 0.929 . S
N872 Mn865 2.257 . S
N872 C871 1.326 . S
N872 C876 1.362 . S
C873 C874 1.258 . S
C873 C876 1.431 . S
C873 C893 1.449 . S
C874 C873 1.258 . S
C874 C875 1.477 . S
C874 H894 0.931 . S
C875 C871 1.460 . S
C875 C874 1.477 . S
C875 H895 0.930 . S
C876 N872 1.362 . S
C876 C873 1.431 . S
C876 C886 1.476 . S
H877 C871 0.929 . S
C878 O869 1.250 . S
C878 O870 1.258 . S
O879 Mn864 2.162 . S
O879 C867 1.281 . S
O880 Mn864 2.297 . S
O880 C867 1.236 . S
N881 Mn865 2.282 . S
N881 C882 1.328 . S
N881 C886 1.318 . S
C882 N881 1.328 . S
C882 C883 1.457 . S
C882 H887 0.929 . S
C883 C882 1.457 . S
C883 C884 1.291 . S
C883 H896 0.931 . S
C884 C883 1.291 . S
C884 C885 1.373 . S
C884 H897 0.929 . S
C885 C884 1.373 . S
C885 C886 1.396 . S
C885 C892 1.403 . S
C886 C876 1.476 . S
C886 N881 1.318 . S
C886 C885 1.396 . S
H887 C882 0.929 . S
O888 Mn864 2.385 . S
O888 C866 1.234 . S
O889 Mn864 2.209 . S
O889 Mn865 2.215 . S
O889 C866 1.283 . S
O890 Mn864 2.094 . S
O890 C868 1.240 . S
O891 Mn865 2.117 . S
O891 C868 1.264 . S
C892 C885 1.403 . S
C892 C893 1.399 . S
C892 H898 0.929 . S
C893 C873 1.449 . S
C893 C892 1.399 . S
C893 H899 0.930 . S
H894 C874 0.931 . S
H895 C875 0.930 . S
H896 C883 0.931 . S
H897 C884 0.929 . S
H898 C892 0.929 . S
H899 C893 0.930 . S
H900 C912 0.930 . S
H901 C914 0.930 . S
H902 C915 0.930 . S
H903 C919 0.959 . S
H904 C919 0.959 . S
H905 C919 0.961 . S
H906 C920 0.960 . S
H907 C920 0.961 . S
H908 C920 0.959 . S
H909 C923 0.929 . S
H910 C924 0.931 . S
H911 C926 0.930 . S
C912 H900 0.930 . S
C912 C913 1.399 . S
C912 C917 1.399 . S
C913 C912 1.399 . S
C913 C914 1.376 . S
C914 H901 0.930 . S
C914 C913 1.376 . S
C914 C915 1.388 . S
C915 H902 0.930 . S
C915 C914 1.388 . S
C915 C916 1.390 . S
C916 C915 1.390 . S
C916 C917 1.394 . S
C916 C922 1.465 . S
C917 C912 1.399 . S
C917 C916 1.394 . S
C917 C918 1.516 . S
C918 C917 1.516 . S
C918 C919 1.502 . S
C918 C920 1.561 . S
C918 C921 1.526 . S
C919 H903 0.959 . S
C919 H904 0.959 . S
C919 H905 0.961 . S
C919 C918 1.502 . S
C920 H906 0.960 . S
C920 H907 0.961 . S
C920 H908 0.959 . S
C920 C918 1.561 . S
C921 C918 1.526 . S
C921 C922 1.396 . S
C921 C926 1.390 . S
C922 C916 1.465 . S
C922 C921 1.396 . S
C922 C923 1.399 . S
C923 H909 0.929 . S
C923 C922 1.399 . S
C923 C924 1.385 . S
C924 H910 0.931 . S
C924 C923 1.385 . S
C924 C925 1.389 . S
C925 C924 1.389 . S
C925 C926 1.387 . S
C926 H911 0.930 . S
C926 C921 1.390 . S
C926 C925 1.387 . S
H927 C939 0.930 . S
H928 C941 0.930 . S
H929 C942 0.930 . S
H930 C946 0.959 . S
H931 C946 0.959 . S
H932 C946 0.961 . S
H933 C947 0.960 . S
H934 C947 0.961 . S
H935 C947 0.959 . S
H936 C950 0.929 . S
H937 C951 0.931 . S
H938 C953 0.930 . S
C939 H927 0.930 . S
C939 C940 1.399 . S
C939 C944 1.399 . S
C940 C939 1.399 . S
C940 C941 1.376 . S
C941 H928 0.930 . S
C941 C940 1.376 . S
C941 C942 1.388 . S
C942 H929 0.930 . S
C942 C941 1.388 . S
C942 C943 1.390 . S
C943 C942 1.390 . S
C943 C944 1.394 . S
C943 C949 1.465 . S
C944 C939 1.399 . S
C944 C943 1.394 . S
C944 C945 1.516 . S
C945 C944 1.516 . S
C945 C946 1.502 . S
C945 C947 1.561 . S
C945 C948 1.526 . S
C946 H930 0.959 . S
C946 H931 0.959 . S
C946 H932 0.961 . S
C946 C945 1.502 . S
C947 H933 0.960 . S
C947 H934 0.961 . S
C947 H935 0.959 . S
C947 C945 1.561 . S
C948 C945 1.526 . S
C948 C949 1.396 . S
C948 C953 1.390 . S
C949 C943 1.465 . S
C949 C948 1.396 . S
C949 C950 1.399 . S
C950 H936 0.929 . S
C950 C949 1.399 . S
C950 C951 1.385 . S
C951 H937 0.931 . S
C951 C950 1.385 . S
C951 C952 1.389 . S
C952 C951 1.389 . S
C952 C953 1.387 . S
C953 H938 0.930 . S
C953 C948 1.390 . S
C953 C952 1.387 . S
H954 C966 0.930 . S
H955 C968 0.930 . S
H956 C969 0.930 . S
H957 C973 0.959 . S
H958 C973 0.959 . S
H959 C973 0.961 . S
H960 C974 0.960 . S
H961 C974 0.961 . S
H962 C974 0.959 . S
H963 C977 0.929 . S
H964 C978 0.931 . S
H965 C980 0.930 . S
C966 H954 0.930 . S
C966 C967 1.399 . S
C966 C971 1.399 . S
C967 C966 1.399 . S
C967 C968 1.376 . S
C968 H955 0.930 . S
C968 C967 1.376 . S
C968 C969 1.388 . S
C969 H956 0.930 . S
C969 C968 1.388 . S
C969 C970 1.390 . S
C970 C969 1.390 . S
C970 C971 1.394 . S
C970 C976 1.465 . S
C971 C966 1.399 . S
C971 C970 1.394 . S
C971 C972 1.516 . S
C972 C971 1.516 . S
C972 C973 1.502 . S
C972 C974 1.561 . S
C972 C975 1.526 . S
C973 H957 0.959 . S
C973 H958 0.959 . S
C973 H959 0.961 . S
C973 C972 1.502 . S
C974 H960 0.960 . S
C974 H961 0.961 . S
C974 H962 0.959 . S
C974 C972 1.561 . S
C975 C972 1.526 . S
C975 C976 1.396 . S
C975 C980 1.390 . S
C976 C970 1.465 . S
C976 C975 1.396 . S
C976 C977 1.399 . S
C977 H963 0.929 . S
C977 C976 1.399 . S
C977 C978 1.385 . S
C978 H964 0.931 . S
C978 C977 1.385 . S
C978 C979 1.389 . S
C979 C978 1.389 . S
C979 C980 1.387 . S
C980 H965 0.930 . S
C980 C975 1.390 . S
C980 C979 1.387 . S
H981 C993 0.930 . S
H982 C995 0.930 . S
H983 C996 0.930 . S
H984 C1000 0.959 . S
H985 C1000 0.959 . S
H986 C1000 0.961 . S
H987 C1001 0.960 . S
H988 C1001 0.961 . S
H989 C1001 0.959 . S
H990 C1004 0.929 . S
H991 C1005 0.931 . S
H992 C1007 0.930 . S
C993 H981 0.930 . S
C993 C994 1.399 . S
C993 C998 1.399 . S
C994 C993 1.399 . S
C994 C995 1.376 . S
C995 H982 0.930 . S
C995 C994 1.376 . S
C995 C996 1.388 . S
C996 H983 0.930 . S
C996 C995 1.388 . S
C996 C997 1.390 . S
C997 C996 1.390 . S
C997 C998 1.394 . S
C997 C1003 1.465 . S
C998 C993 1.399 . S
C998 C997 1.394 . S
C998 C999 1.516 . S
C999 C998 1.516 . S
C999 C1000 1.502 . S
C999 C1001 1.561 . S
C999 C1002 1.526 . S
C1000 H984 0.959 . S
C1000 H985 0.959 . S
C1000 H986 0.961 . S
C1000 C999 1.502 . S
C1001 H987 0.960 . S
C1001 H988 0.961 . S
C1001 H989 0.959 . S
C1001 C999 1.561 . S
C1002 C999 1.526 . S
C1002 C1003 1.396 . S
C1002 C1007 1.390 . S
C1003 C997 1.465 . S
C1003 C1002 1.396 . S
C1003 C1004 1.399 . S
C1004 H990 0.929 . S
C1004 C1003 1.399 . S
C1004 C1005 1.385 . S
C1005 H991 0.931 . S
C1005 C1004 1.385 . S
C1005 C1006 1.389 . S
C1006 C1005 1.389 . S
C1006 C1007 1.387 . S
C1007 H992 0.930 . S
C1007 C1002 1.390 . S
C1007 C1006 1.387 . S
H1008 C1020 0.930 . S
H1009 C1022 0.930 . S
H1010 C1023 0.930 . S
H1011 C1027 0.959 . S
H1012 C1027 0.959 . S
H1013 C1027 0.961 . S
H1014 C1028 0.960 . S
H1015 C1028 0.961 . S
H1016 C1028 0.959 . S
H1017 C1031 0.929 . S
H1018 C1032 0.931 . S
H1019 C1034 0.930 . S
C1020 H1008 0.930 . S
C1020 C1021 1.399 . S
C1020 C1025 1.399 . S
C1021 C1020 1.399 . S
C1021 C1022 1.376 . S
C1022 H1009 0.930 . S
C1022 C1021 1.376 . S
C1022 C1023 1.388 . S
C1023 H1010 0.930 . S
C1023 C1022 1.388 . S
C1023 C1024 1.390 . S
C1024 C1023 1.390 . S
C1024 C1025 1.394 . S
C1024 C1030 1.465 . S
C1025 C1020 1.399 . S
C1025 C1024 1.394 . S
C1025 C1026 1.516 . S
C1026 C1025 1.516 . S
C1026 C1027 1.502 . S
C1026 C1028 1.561 . S
C1026 C1029 1.526 . S
C1027 H1011 0.959 . S
C1027 H1012 0.959 . S
C1027 H1013 0.961 . S
C1027 C1026 1.502 . S
C1028 H1014 0.960 . S
C1028 H1015 0.961 . S
C1028 H1016 0.959 . S
C1028 C1026 1.561 . S
C1029 C1026 1.526 . S
C1029 C1030 1.396 . S
C1029 C1034 1.390 . S
C1030 C1024 1.465 . S
C1030 C1029 1.396 . S
C1030 C1031 1.399 . S
C1031 H1017 0.929 . S
C1031 C1030 1.399 . S
C1031 C1032 1.385 . S
C1032 H1018 0.931 . S
C1032 C1031 1.385 . S
C1032 C1033 1.389 . S
C1033 C1032 1.389 . S
C1033 C1034 1.387 . S
C1034 H1019 0.930 . S
C1034 C1029 1.390 . S
C1034 C1033 1.387 . S
H1035 C1047 0.930 . S
H1036 C1049 0.930 . S
H1037 C1050 0.930 . S
H1038 C1054 0.959 . S
H1039 C1054 0.959 . S
H1040 C1054 0.961 . S
H1041 C1055 0.960 . S
H1042 C1055 0.961 . S
H1043 C1055 0.959 . S
H1044 C1058 0.929 . S
H1045 C1059 0.931 . S
H1046 C1061 0.930 . S
C1047 H1035 0.930 . S
C1047 C1048 1.399 . S
C1047 C1052 1.399 . S
C1048 C1047 1.399 . S
C1048 C1049 1.376 . S
C1049 H1036 0.930 . S
C1049 C1048 1.376 . S
C1049 C1050 1.388 . S
C1050 H1037 0.930 . S
C1050 C1049 1.388 . S
C1050 C1051 1.390 . S
C1051 C1050 1.390 . S
C1051 C1052 1.394 . S
C1051 C1057 1.465 . S
C1052 C1047 1.399 . S
C1052 C1051 1.394 . S
C1052 C1053 1.516 . S
C1053 C1052 1.516 . S
C1053 C1054 1.502 . S
C1053 C1055 1.561 . S
C1053 C1056 1.526 . S
C1054 H1038 0.959 . S
C1054 H1039 0.959 . S
C1054 H1040 0.961 . S
C1054 C1053 1.502 . S
C1055 H1041 0.960 . S
C1055 H1042 0.961 . S
C1055 H1043 0.959 . S
C1055 C1053 1.561 . S
C1056 C1053 1.526 . S
C1056 C1057 1.396 . S
C1056 C1061 1.390 . S
C1057 C1051 1.465 . S
C1057 C1056 1.396 . S
C1057 C1058 1.399 . S
C1058 H1044 0.929 . S
C1058 C1057 1.399 . S
C1058 C1059 1.385 . S
C1059 H1045 0.931 . S
C1059 C1058 1.385 . S
C1059 C1060 1.389 . S
C1060 C1059 1.389 . S
C1060 C1061 1.387 . S
C1061 H1046 0.930 . S
C1061 C1056 1.390 . S
C1061 C1060 1.387 . S
H1062 C1074 0.930 . S
H1063 C1076 0.930 . S
H1064 C1077 0.930 . S
H1065 C1081 0.959 . S
H1066 C1081 0.959 . S
H1067 C1081 0.961 . S
H1068 C1082 0.960 . S
H1069 C1082 0.961 . S
H1070 C1082 0.959 . S
H1071 C1085 0.929 . S
H1072 C1086 0.931 . S
H1073 C1088 0.930 . S
C1074 H1062 0.930 . S
C1074 C1075 1.399 . S
C1074 C1079 1.399 . S
C1075 C1074 1.399 . S
C1075 C1076 1.376 . S
C1076 H1063 0.930 . S
C1076 C1075 1.376 . S
C1076 C1077 1.388 . S
C1077 H1064 0.930 . S
C1077 C1076 1.388 . S
C1077 C1078 1.390 . S
C1078 C1077 1.390 . S
C1078 C1079 1.394 . S
C1078 C1084 1.465 . S
C1079 C1074 1.399 . S
C1079 C1078 1.394 . S
C1079 C1080 1.516 . S
C1080 C1079 1.516 . S
C1080 C1081 1.502 . S
C1080 C1082 1.561 . S
C1080 C1083 1.526 . S
C1081 H1065 0.959 . S
C1081 H1066 0.959 . S
C1081 H1067 0.961 . S
C1081 C1080 1.502 . S
C1082 H1068 0.960 . S
C1082 H1069 0.961 . S
C1082 H1070 0.959 . S
C1082 C1080 1.561 . S
C1083 C1080 1.526 . S
C1083 C1084 1.396 . S
C1083 C1088 1.390 . S
C1084 C1078 1.465 . S
C1084 C1083 1.396 . S
C1084 C1085 1.399 . S
C1085 H1071 0.929 . S
C1085 C1084 1.399 . S
C1085 C1086 1.385 . S
C1086 H1072 0.931 . S
C1086 C1085 1.385 . S
C1086 C1087 1.389 . S
C1087 C1086 1.389 . S
C1087 C1088 1.387 . S
C1088 H1073 0.930 . S
C1088 C1083 1.390 . S
C1088 C1087 1.387 . S
H1089 C1101 0.930 . S
H1090 C1103 0.930 . S
H1091 C1104 0.930 . S
H1092 C1108 0.959 . S
H1093 C1108 0.959 . S
H1094 C1108 0.961 . S
H1095 C1109 0.960 . S
H1096 C1109 0.961 . S
H1097 C1109 0.959 . S
H1098 C1112 0.929 . S
H1099 C1113 0.931 . S
H1100 C1115 0.930 . S
C1101 H1089 0.930 . S
C1101 C1102 1.399 . S
C1101 C1106 1.399 . S
C1102 C1101 1.399 . S
C1102 C1103 1.376 . S
C1103 H1090 0.930 . S
C1103 C1102 1.376 . S
C1103 C1104 1.388 . S
C1104 H1091 0.930 . S
C1104 C1103 1.388 . S
C1104 C1105 1.390 . S
C1105 C1104 1.390 . S
C1105 C1106 1.394 . S
C1105 C1111 1.465 . S
C1106 C1101 1.399 . S
C1106 C1105 1.394 . S
C1106 C1107 1.516 . S
C1107 C1106 1.516 . S
C1107 C1108 1.502 . S
C1107 C1109 1.561 . S
C1107 C1110 1.526 . S
C1108 H1092 0.959 . S
C1108 H1093 0.959 . S
C1108 H1094 0.961 . S
C1108 C1107 1.502 . S
C1109 H1095 0.960 . S
C1109 H1096 0.961 . S
C1109 H1097 0.959 . S
C1109 C1107 1.561 . S
C1110 C1107 1.526 . S
C1110 C1111 1.396 . S
C1110 C1115 1.390 . S
C1111 C1105 1.465 . S
C1111 C1110 1.396 . S
C1111 C1112 1.399 . S
C1112 H1098 0.929 . S
C1112 C1111 1.399 . S
C1112 C1113 1.385 . S
C1113 H1099 0.931 . S
C1113 C1112 1.385 . S
C1113 C1114 1.389 . S
C1114 C1113 1.389 . S
C1114 C1115 1.387 . S
C1115 H1100 0.930 . S
C1115 C1110 1.390 . S
C1115 C1114 1.387 . S
H1116 C1128 0.930 . S
H1117 C1130 0.930 . S
H1118 C1131 0.930 . S
H1119 C1135 0.959 . S
H1120 C1135 0.959 . S
H1121 C1135 0.961 . S
H1122 C1136 0.960 . S
H1123 C1136 0.961 . S
H1124 C1136 0.959 . S
H1125 C1139 0.929 . S
H1126 C1140 0.931 . S
H1127 C1142 0.930 . S
C1128 H1116 0.930 . S
C1128 C1129 1.399 . S
C1128 C1133 1.399 . S
C1129 C1128 1.399 . S
C1129 C1130 1.376 . S
C1130 H1117 0.930 . S
C1130 C1129 1.376 . S
C1130 C1131 1.388 . S
C1131 H1118 0.930 . S
C1131 C1130 1.388 . S
C1131 C1132 1.390 . S
C1132 C1131 1.390 . S
C1132 C1133 1.394 . S
C1132 C1138 1.465 . S
C1133 C1128 1.399 . S
C1133 C1132 1.394 . S
C1133 C1134 1.516 . S
C1134 C1133 1.516 . S
C1134 C1135 1.502 . S
C1134 C1136 1.561 . S
C1134 C1137 1.526 . S
C1135 H1119 0.959 . S
C1135 H1120 0.959 . S
C1135 H1121 0.961 . S
C1135 C1134 1.502 . S
C1136 H1122 0.960 . S
C1136 H1123 0.961 . S
C1136 H1124 0.959 . S
C1136 C1134 1.561 . S
C1137 C1134 1.526 . S
C1137 C1138 1.396 . S
C1137 C1142 1.390 . S
C1138 C1132 1.465 . S
C1138 C1137 1.396 . S
C1138 C1139 1.399 . S
C1139 H1125 0.929 . S
C1139 C1138 1.399 . S
C1139 C1140 1.385 . S
C1140 H1126 0.931 . S
C1140 C1139 1.385 . S
C1140 C1141 1.389 . S
C1141 C1140 1.389 . S
C1141 C1142 1.387 . S
C1142 H1127 0.930 . S
C1142 C1137 1.390 . S
C1142 C1141 1.387 . S
H1143 C1155 0.930 . S
H1144 C1157 0.930 . S
H1145 C1158 0.930 . S
H1146 C1162 0.959 . S
H1147 C1162 0.959 . S
H1148 C1162 0.961 . S
H1149 C1163 0.960 . S
H1150 C1163 0.961 . S
H1151 C1163 0.959 . S
H1152 C1166 0.929 . S
H1153 C1167 0.931 . S
H1154 C1169 0.930 . S
C1155 H1143 0.930 . S
C1155 C1156 1.399 . S
C1155 C1160 1.399 . S
C1156 C1155 1.399 . S
C1156 C1157 1.376 . S
C1157 H1144 0.930 . S
C1157 C1156 1.376 . S
C1157 C1158 1.388 . S
C1158 H1145 0.930 . S
C1158 C1157 1.388 . S
C1158 C1159 1.390 . S
C1159 C1158 1.390 . S
C1159 C1160 1.394 . S
C1159 C1165 1.465 . S
C1160 C1155 1.399 . S
C1160 C1159 1.394 . S
C1160 C1161 1.516 . S
C1161 C1160 1.516 . S
C1161 C1162 1.502 . S
C1161 C1163 1.561 . S
C1161 C1164 1.526 . S
C1162 H1146 0.959 . S
C1162 H1147 0.959 . S
C1162 H1148 0.961 . S
C1162 C1161 1.502 . S
C1163 H1149 0.960 . S
C1163 H1150 0.961 . S
C1163 H1151 0.959 . S
C1163 C1161 1.561 . S
C1164 C1161 1.526 . S
C1164 C1165 1.396 . S
C1164 C1169 1.390 . S
C1165 C1159 1.465 . S
C1165 C1164 1.396 . S
C1165 C1166 1.399 . S
C1166 H1152 0.929 . S
C1166 C1165 1.399 . S
C1166 C1167 1.385 . S
C1167 H1153 0.931 . S
C1167 C1166 1.385 . S
C1167 C1168 1.389 . S
C1168 C1167 1.389 . S
C1168 C1169 1.387 . S
C1169 H1154 0.930 . S
C1169 C1164 1.390 . S
C1169 C1168 1.387 . S
H1170 C1182 0.930 . S
H1171 C1184 0.930 . S
H1172 C1185 0.930 . S
H1173 C1189 0.959 . S
H1174 C1189 0.959 . S
H1175 C1189 0.961 . S
H1176 C1190 0.960 . S
H1177 C1190 0.961 . S
H1178 C1190 0.959 . S
H1179 C1193 0.929 . S
H1180 C1194 0.931 . S
H1181 C1196 0.930 . S
C1182 H1170 0.930 . S
C1182 C1183 1.399 . S
C1182 C1187 1.399 . S
C1183 C1182 1.399 . S
C1183 C1184 1.376 . S
C1184 H1171 0.930 . S
C1184 C1183 1.376 . S
C1184 C1185 1.388 . S
C1185 H1172 0.930 . S
C1185 C1184 1.388 . S
C1185 C1186 1.390 . S
C1186 C1185 1.390 . S
C1186 C1187 1.394 . S
C1186 C1192 1.465 . S
C1187 C1182 1.399 . S
C1187 C1186 1.394 . S
C1187 C1188 1.516 . S
C1188 C1187 1.516 . S
C1188 C1189 1.502 . S
C1188 C1190 1.561 . S
C1188 C1191 1.526 . S
C1189 H1173 0.959 . S
C1189 H1174 0.959 . S
C1189 H1175 0.961 . S
C1189 C1188 1.502 . S
C1190 H1176 0.960 . S
C1190 H1177 0.961 . S
C1190 H1178 0.959 . S
C1190 C1188 1.561 . S
C1191 C1188 1.526 . S
C1191 C1192 1.396 . S
C1191 C1196 1.390 . S
C1192 C1186 1.465 . S
C1192 C1191 1.396 . S
C1192 C1193 1.399 . S
C1193 H1179 0.929 . S
C1193 C1192 1.399 . S
C1193 C1194 1.385 . S
C1194 H1180 0.931 . S
C1194 C1193 1.385 . S
C1194 C1195 1.389 . S
C1195 C1194 1.389 . S
C1195 C1196 1.387 . S
C1196 H1181 0.930 . S
C1196 C1191 1.390 . S
C1196 C1195 1.387 . S
H1197 C1209 0.930 . S
H1198 C1211 0.930 . S
H1199 C1212 0.930 . S
H1200 C1216 0.959 . S
H1201 C1216 0.959 . S
H1202 C1216 0.961 . S
H1203 C1217 0.960 . S
H1204 C1217 0.961 . S
H1205 C1217 0.959 . S
H1206 C1220 0.929 . S
H1207 C1221 0.931 . S
H1208 C1223 0.930 . S
C1209 H1197 0.930 . S
C1209 C1210 1.399 . S
C1209 C1214 1.399 . S
C1210 C1209 1.399 . S
C1210 C1211 1.376 . S
C1211 H1198 0.930 . S
C1211 C1210 1.376 . S
C1211 C1212 1.388 . S
C1212 H1199 0.930 . S
C1212 C1211 1.388 . S
C1212 C1213 1.390 . S
C1213 C1212 1.390 . S
C1213 C1214 1.394 . S
C1213 C1219 1.465 . S
C1214 C1209 1.399 . S
C1214 C1213 1.394 . S
C1214 C1215 1.516 . S
C1215 C1214 1.516 . S
C1215 C1216 1.502 . S
C1215 C1217 1.561 . S
C1215 C1218 1.526 . S
C1216 H1200 0.959 . S
C1216 H1201 0.959 . S
C1216 H1202 0.961 . S
C1216 C1215 1.502 . S
C1217 H1203 0.960 . S
C1217 H1204 0.961 . S
C1217 H1205 0.959 . S
C1217 C1215 1.561 . S
C1218 C1215 1.526 . S
C1218 C1219 1.396 . S
C1218 C1223 1.390 . S
C1219 C1213 1.465 . S
C1219 C1218 1.396 . S
C1219 C1220 1.399 . S
C1220 H1206 0.929 . S
C1220 C1219 1.399 . S
C1220 C1221 1.385 . S
C1221 H1207 0.931 . S
C1221 C1220 1.385 . S
C1221 C1222 1.389 . S
C1222 C1221 1.389 . S
C1222 C1223 1.387 . S
C1223 H1208 0.930 . S
C1223 C1218 1.390 . S
C1223 C1222 1.387 . S
H1224 C1236 0.930 . S
H1225 C1238 0.930 . S
H1226 C1239 0.930 . S
H1227 C1243 0.959 . S
H1228 C1243 0.959 . S
H1229 C1243 0.961 . S
H1230 C1244 0.960 . S
H1231 C1244 0.961 . S
H1232 C1244 0.959 . S
H1233 C1247 0.929 . S
H1234 C1248 0.931 . S
H1235 C1250 0.930 . S
C1236 H1224 0.930 . S
C1236 C1237 1.399 . S
C1236 C1241 1.399 . S
C1237 C1236 1.399 . S
C1237 C1238 1.376 . S
C1238 H1225 0.930 . S
C1238 C1237 1.376 . S
C1238 C1239 1.388 . S
C1239 H1226 0.930 . S
C1239 C1238 1.388 . S
C1239 C1240 1.390 . S
C1240 C1239 1.390 . S
C1240 C1241 1.394 . S
C1240 C1246 1.465 . S
C1241 C1236 1.399 . S
C1241 C1240 1.394 . S
C1241 C1242 1.516 . S
C1242 C1241 1.516 . S
C1242 C1243 1.502 . S
C1242 C1244 1.561 . S
C1242 C1245 1.526 . S
C1243 H1227 0.959 . S
C1243 H1228 0.959 . S
C1243 H1229 0.961 . S
C1243 C1242 1.502 . S
C1244 H1230 0.960 . S
C1244 H1231 0.961 . S
C1244 H1232 0.959 . S
C1244 C1242 1.561 . S
C1245 C1242 1.526 . S
C1245 C1246 1.396 . S
C1245 C1250 1.390 . S
C1246 C1240 1.465 . S
C1246 C1245 1.396 . S
C1246 C1247 1.399 . S
C1247 H1233 0.929 . S
C1247 C1246 1.399 . S
C1247 C1248 1.385 . S
C1248 H1234 0.931 . S
C1248 C1247 1.385 . S
C1248 C1249 1.389 . S
C1249 C1248 1.389 . S
C1249 C1250 1.387 . S
C1250 H1235 0.930 . S
C1250 C1245 1.390 . S
C1250 C1249 1.387 . S
H1251 C1263 0.930 . S
H1252 C1265 0.930 . S
H1253 C1266 0.930 . S
H1254 C1270 0.959 . S
H1255 C1270 0.959 . S
H1256 C1270 0.961 . S
H1257 C1271 0.960 . S
H1258 C1271 0.961 . S
H1259 C1271 0.959 . S
H1260 C1274 0.929 . S
H1261 C1275 0.931 . S
H1262 C1277 0.930 . S
C1263 H1251 0.930 . S
C1263 C1264 1.399 . S
C1263 C1268 1.399 . S
C1264 C1263 1.399 . S
C1264 C1265 1.376 . S
C1265 H1252 0.930 . S
C1265 C1264 1.376 . S
C1265 C1266 1.388 . S
C1266 H1253 0.930 . S
C1266 C1265 1.388 . S
C1266 C1267 1.390 . S
C1267 C1266 1.390 . S
C1267 C1268 1.394 . S
C1267 C1273 1.465 . S
C1268 C1263 1.399 . S
C1268 C1267 1.394 . S
C1268 C1269 1.516 . S
C1269 C1268 1.516 . S
C1269 C1270 1.502 . S
C1269 C1271 1.561 . S
C1269 C1272 1.526 . S
C1270 H1254 0.959 . S
C1270 H1255 0.959 . S
C1270 H1256 0.961 . S
C1270 C1269 1.502 . S
C1271 H1257 0.960 . S
C1271 H1258 0.961 . S
C1271 H1259 0.959 . S
C1271 C1269 1.561 . S
C1272 C1269 1.526 . S
C1272 C1273 1.396 . S
C1272 C1277 1.390 . S
C1273 C1267 1.465 . S
C1273 C1272 1.396 . S
C1273 C1274 1.399 . S
C1274 H1260 0.929 . S
C1274 C1273 1.399 . S
C1274 C1275 1.385 . S
C1275 H1261 0.931 . S
C1275 C1274 1.385 . S
C1275 C1276 1.389 . S
C1276 C1275 1.389 . S
C1276 C1277 1.387 . S
C1277 H1262 0.930 . S
C1277 C1272 1.390 . S
C1277 C1276 1.387 . S
H1278 C1290 0.930 . S
H1279 C1292 0.930 . S
H1280 C1293 0.930 . S
H1281 C1297 0.959 . S
H1282 C1297 0.959 . S
H1283 C1297 0.961 . S
H1284 C1298 0.960 . S
H1285 C1298 0.961 . S
H1286 C1298 0.959 . S
H1287 C1301 0.929 . S
H1288 C1302 0.931 . S
H1289 C1304 0.930 . S
C1290 H1278 0.930 . S
C1290 C1291 1.399 . S
C1290 C1295 1.399 . S
C1291 C1290 1.399 . S
C1291 C1292 1.376 . S
C1292 H1279 0.930 . S
C1292 C1291 1.376 . S
C1292 C1293 1.388 . S
C1293 H1280 0.930 . S
C1293 C1292 1.388 . S
C1293 C1294 1.390 . S
C1294 C1293 1.390 . S
C1294 C1295 1.394 . S
C1294 C1300 1.465 . S
C1295 C1290 1.399 . S
C1295 C1294 1.394 . S
C1295 C1296 1.516 . S
C1296 C1295 1.516 . S
C1296 C1297 1.502 . S
C1296 C1298 1.561 . S
C1296 C1299 1.526 . S
C1297 H1281 0.959 . S
C1297 H1282 0.959 . S
C1297 H1283 0.961 . S
C1297 C1296 1.502 . S
C1298 H1284 0.960 . S
C1298 H1285 0.961 . S
C1298 H1286 0.959 . S
C1298 C1296 1.561 . S
C1299 C1296 1.526 . S
C1299 C1300 1.396 . S
C1299 C1304 1.390 . S
C1300 C1294 1.465 . S
C1300 C1299 1.396 . S
C1300 C1301 1.399 . S
C1301 H1287 0.929 . S
C1301 C1300 1.399 . S
C1301 C1302 1.385 . S
C1302 H1288 0.931 . S
C1302 C1301 1.385 . S
C1302 C1303 1.389 . S
C1303 C1302 1.389 . S
C1303 C1304 1.387 . S
C1304 H1289 0.930 . S
C1304 C1299 1.390 . S
C1304 C1303 1.387 . S
H1305 C1317 0.930 . S
H1306 C1319 0.930 . S
H1307 C1320 0.930 . S
H1308 C1324 0.990 . S
H1309 C1324 0.944 1_554 S
H1310 C1324 0.961 . S
H1311 C1325 0.960 . S
H1312 C1325 0.961 . S
H1313 C1325 0.959 . S
H1314 C1328 0.917 1_556 S
H1315 C1329 0.931 . S
H1316 C1331 0.930 . S
C1317 H1305 0.930 . S
C1317 C1318 1.399 . S
C1317 C1322 1.399 . S
C1318 C1317 1.399 . S
C1318 C1319 1.376 . S
C1319 H1306 0.930 . S
C1319 C1318 1.376 . S
C1319 C1320 1.388 . S
C1320 H1307 0.930 . S
C1320 C1319 1.388 . S
C1320 C1321 1.390 . S
C1321 C1320 1.390 . S
C1321 C1322 1.394 . S
C1321 C1327 1.465 . S
C1322 C1317 1.399 . S
C1322 C1321 1.394 . S
C1322 C1323 1.516 . S
C1323 C1322 1.516 . S
C1323 C1324 1.502 . S
C1323 C1325 1.561 . S
C1323 C1326 1.526 . S
C1324 H1308 0.990 . S
C1324 H1309 0.944 1_556 S
C1324 H1310 0.961 . S
C1324 C1323 1.502 . S
C1325 H1311 0.960 . S
C1325 H1312 0.961 . S
C1325 H1313 0.959 . S
C1325 C1323 1.561 . S
C1326 C1323 1.526 . S
C1326 C1327 1.396 . S
C1326 C1331 1.390 1_556 S
C1327 C1321 1.465 . S
C1327 C1326 1.396 . S
C1327 C1328 1.377 1_556 S
C1328 H1314 0.917 1_554 S
C1328 C1327 1.377 1_554 S
C1328 C1329 1.420 . S
C1329 H1315 0.931 . S
C1329 C1328 1.420 . S
C1329 C1330 1.389 . S
C1330 C1329 1.389 . S
C1330 C1331 1.387 . S
C1331 H1316 0.930 . S
C1331 C1326 1.390 1_554 S
C1331 C1330 1.387 . S
H1332 C1344 0.930 . S
H1333 C1346 0.930 . S
H1334 C1347 0.930 . S
H1335 C1351 0.959 . S
H1336 C1351 0.959 . S
H1337 C1351 0.961 . S
H1338 C1352 0.960 . S
H1339 C1352 0.961 . S
H1340 C1352 0.959 . S
H1341 C1355 0.929 . S
H1342 C1356 0.931 . S
H1343 C1358 0.930 . S
C1344 H1332 0.930 . S
C1344 C1345 1.399 . S
C1344 C1349 1.399 . S
C1345 C1344 1.399 . S
C1345 C1346 1.376 . S
C1346 H1333 0.930 . S
C1346 C1345 1.376 . S
C1346 C1347 1.388 . S
C1347 H1334 0.930 . S
C1347 C1346 1.388 . S
C1347 C1348 1.390 . S
C1348 C1347 1.390 . S
C1348 C1349 1.394 . S
C1348 C1354 1.465 . S
C1349 C1344 1.399 . S
C1349 C1348 1.394 . S
C1349 C1350 1.516 . S
C1350 C1349 1.516 . S
C1350 C1351 1.502 . S
C1350 C1352 1.561 . S
C1350 C1353 1.526 . S
C1351 H1335 0.959 . S
C1351 H1336 0.959 . S
C1351 H1337 0.961 . S
C1351 C1350 1.502 . S
C1352 H1338 0.960 . S
C1352 H1339 0.961 . S
C1352 H1340 0.959 . S
C1352 C1350 1.561 . S
C1353 C1350 1.526 . S
C1353 C1354 1.396 . S
C1353 C1358 1.390 . S
C1354 C1348 1.465 . S
C1354 C1353 1.396 . S
C1354 C1355 1.399 . S
C1355 H1341 0.929 . S
C1355 C1354 1.399 . S
C1355 C1356 1.385 . S
C1356 H1342 0.931 . S
C1356 C1355 1.385 . S
C1356 C1357 1.389 . S
C1357 C1356 1.389 . S
C1357 C1358 1.387 . S
C1358 H1343 0.930 . S
C1358 C1353 1.390 . S
C1358 C1357 1.387 . S
H1359 C1371 0.930 . S
H1360 C1373 0.930 . S
H1361 C1374 0.930 . S
H1362 C1378 0.959 . S
H1363 C1378 0.959 . S
H1364 C1378 0.961 . S
H1365 C1379 0.960 . S
H1366 C1379 0.961 . S
H1367 C1379 0.959 . S
H1368 C1382 0.929 . S
H1369 C1383 0.931 . S
H1370 C1385 0.930 . S
C1371 H1359 0.930 . S
C1371 C1372 1.399 . S
C1371 C1376 1.399 . S
C1372 C1371 1.399 . S
C1372 C1373 1.376 . S
C1373 H1360 0.930 . S
C1373 C1372 1.376 . S
C1373 C1374 1.388 . S
C1374 H1361 0.930 . S
C1374 C1373 1.388 . S
C1374 C1375 1.390 . S
C1375 C1374 1.390 . S
C1375 C1376 1.394 . S
C1375 C1381 1.465 . S
C1376 C1371 1.399 . S
C1376 C1375 1.394 . S
C1376 C1377 1.516 . S
C1377 C1376 1.516 . S
C1377 C1378 1.502 . S
C1377 C1379 1.561 . S
C1377 C1380 1.526 . S
C1378 H1362 0.959 . S
C1378 H1363 0.959 . S
C1378 H1364 0.961 . S
C1378 C1377 1.502 . S
C1379 H1365 0.960 . S
C1379 H1366 0.961 . S
C1379 H1367 0.959 . S
C1379 C1377 1.561 . S
C1380 C1377 1.526 . S
C1380 C1381 1.396 . S
C1380 C1385 1.390 . S
C1381 C1375 1.465 . S
C1381 C1380 1.396 . S
C1381 C1382 1.399 . S
C1382 H1368 0.929 . S
C1382 C1381 1.399 . S
C1382 C1383 1.385 . S
C1383 H1369 0.931 . S
C1383 C1382 1.385 . S
C1383 C1384 1.389 . S
C1384 C1383 1.389 . S
C1384 C1385 1.387 . S
C1385 H1370 0.930 . S
C1385 C1380 1.390 . S
C1385 C1384 1.387 . S
H1386 C1398 0.930 . S
H1387 C1400 0.930 . S
H1388 C1401 0.930 . S
H1389 C1405 0.959 . S
H1390 C1405 0.959 . S
H1391 C1405 0.961 . S
H1392 C1406 0.960 . S
H1393 C1406 0.961 . S
H1394 C1406 0.959 . S
H1395 C1409 0.929 . S
H1396 C1410 0.931 . S
H1397 C1412 0.930 . S
C1398 H1386 0.930 . S
C1398 C1399 1.399 . S
C1398 C1403 1.399 . S
C1399 C1398 1.399 . S
C1399 C1400 1.376 . S
C1400 H1387 0.930 . S
C1400 C1399 1.376 . S
C1400 C1401 1.388 . S
C1401 H1388 0.930 . S
C1401 C1400 1.388 . S
C1401 C1402 1.390 . S
C1402 C1401 1.390 . S
C1402 C1403 1.394 . S
C1402 C1408 1.465 . S
C1403 C1398 1.399 . S
C1403 C1402 1.394 . S
C1403 C1404 1.516 . S
C1404 C1403 1.516 . S
C1404 C1405 1.502 . S
C1404 C1406 1.561 . S
C1404 C1407 1.526 . S
C1405 H1389 0.959 . S
C1405 H1390 0.959 . S
C1405 H1391 0.961 . S
C1405 C1404 1.502 . S
C1406 H1392 0.960 . S
C1406 H1393 0.961 . S
C1406 H1394 0.959 . S
C1406 C1404 1.561 . S
C1407 C1404 1.526 . S
C1407 C1408 1.396 . S
C1407 C1412 1.390 . S
C1408 C1402 1.465 . S
C1408 C1407 1.396 . S
C1408 C1409 1.399 . S
C1409 H1395 0.929 . S
C1409 C1408 1.399 . S
C1409 C1410 1.385 . S
C1410 H1396 0.931 . S
C1410 C1409 1.385 . S
C1410 C1411 1.389 . S
C1411 C1410 1.389 . S
C1411 C1412 1.387 . S
C1412 H1397 0.930 . S
C1412 C1407 1.390 . S
C1412 C1411 1.387 . S
H1413 C1425 0.930 . S
H1414 C1427 0.930 . S
H1415 C1428 0.930 . S
H1416 C1432 0.959 . S
H1417 C1432 0.959 . S
H1418 C1432 0.961 . S
H1419 C1433 0.960 . S
H1420 C1433 0.961 . S
H1421 C1433 0.959 . S
H1422 C1436 0.929 . S
H1423 C1437 0.931 . S
H1424 C1439 0.930 . S
C1425 H1413 0.930 . S
C1425 C1426 1.399 . S
C1425 C1430 1.399 . S
C1426 C1425 1.399 . S
C1426 C1427 1.376 . S
C1427 H1414 0.930 . S
C1427 C1426 1.376 . S
C1427 C1428 1.388 . S
C1428 H1415 0.930 . S
C1428 C1427 1.388 . S
C1428 C1429 1.390 . S
C1429 C1428 1.390 . S
C1429 C1430 1.394 . S
C1429 C1435 1.465 . S
C1430 C1425 1.399 . S
C1430 C1429 1.394 . S
C1430 C1431 1.516 . S
C1431 C1430 1.516 . S
C1431 C1432 1.502 . S
C1431 C1433 1.561 . S
C1431 C1434 1.526 . S
C1432 H1416 0.959 . S
C1432 H1417 0.959 . S
C1432 H1418 0.961 . S
C1432 C1431 1.502 . S
C1433 H1419 0.960 . S
C1433 H1420 0.961 . S
C1433 H1421 0.959 . S
C1433 C1431 1.561 . S
C1434 C1431 1.526 . S
C1434 C1435 1.396 . S
C1434 C1439 1.390 . S
C1435 C1429 1.465 . S
C1435 C1434 1.396 . S
C1435 C1436 1.399 . S
C1436 H1422 0.929 . S
C1436 C1435 1.399 . S
C1436 C1437 1.385 . S
C1437 H1423 0.931 . S
C1437 C1436 1.385 . S
C1437 C1438 1.389 . S
C1438 C1437 1.389 . S
C1438 C1439 1.387 . S
C1439 H1424 0.930 . S
C1439 C1434 1.390 . S
C1439 C1438 1.387 . S
H1440 C1452 0.930 . S
H1441 C1454 0.930 . S
H1442 C1455 0.930 . S
H1443 C1459 0.959 . S
H1444 C1459 0.959 . S
H1445 C1459 0.961 . S
H1446 C1460 0.960 . S
H1447 C1460 0.961 . S
H1448 C1460 0.959 . S
H1449 C1463 0.929 . S
H1450 C1464 0.931 . S
H1451 C1466 0.930 . S
C1452 H1440 0.930 . S
C1452 C1453 1.399 . S
C1452 C1457 1.399 . S
C1453 C1452 1.399 . S
C1453 C1454 1.376 . S
C1454 H1441 0.930 . S
C1454 C1453 1.376 . S
C1454 C1455 1.388 . S
C1455 H1442 0.930 . S
C1455 C1454 1.388 . S
C1455 C1456 1.390 . S
C1456 C1455 1.390 . S
C1456 C1457 1.394 . S
C1456 C1462 1.465 . S
C1457 C1452 1.399 . S
C1457 C1456 1.394 . S
C1457 C1458 1.516 . S
C1458 C1457 1.516 . S
C1458 C1459 1.502 . S
C1458 C1460 1.561 . S
C1458 C1461 1.526 . S
C1459 H1443 0.959 . S
C1459 H1444 0.959 . S
C1459 H1445 0.961 . S
C1459 C1458 1.502 . S
C1460 H1446 0.960 . S
C1460 H1447 0.961 . S
C1460 H1448 0.959 . S
C1460 C1458 1.561 . S
C1461 C1458 1.526 . S
C1461 C1462 1.396 . S
C1461 C1466 1.390 . S
C1462 C1456 1.465 . S
C1462 C1461 1.396 . S
C1462 C1463 1.399 . S
C1463 H1449 0.929 . S
C1463 C1462 1.399 . S
C1463 C1464 1.385 . S
C1464 H1450 0.931 . S
C1464 C1463 1.385 . S
C1464 C1465 1.389 . S
C1465 C1464 1.389 . S
C1465 C1466 1.387 . S
C1466 H1451 0.930 . S
C1466 C1461 1.390 . S
C1466 C1465 1.387 . S
H1467 C1479 0.930 . S
H1468 C1481 0.930 . S
H1469 C1482 0.930 . S
H1470 C1486 0.959 . S
H1471 C1486 0.959 . S
H1472 C1486 0.961 . S
H1473 C1487 0.960 . S
H1474 C1487 0.961 . S
H1475 C1487 0.959 . S
H1476 C1490 0.929 . S
H1477 C1491 0.931 . S
H1478 C1493 0.930 . S
C1479 H1467 0.930 . S
C1479 C1480 1.399 . S
C1479 C1484 1.399 . S
C1480 C1479 1.399 . S
C1480 C1481 1.376 . S
C1481 H1468 0.930 . S
C1481 C1480 1.376 . S
C1481 C1482 1.388 . S
C1482 H1469 0.930 . S
C1482 C1481 1.388 . S
C1482 C1483 1.390 . S
C1483 C1482 1.390 . S
C1483 C1484 1.394 . S
C1483 C1489 1.465 . S
C1484 C1479 1.399 . S
C1484 C1483 1.394 . S
C1484 C1485 1.516 . S
C1485 C1484 1.516 . S
C1485 C1486 1.502 . S
C1485 C1487 1.561 . S
C1485 C1488 1.526 . S
C1486 H1470 0.959 . S
C1486 H1471 0.959 . S
C1486 H1472 0.961 . S
C1486 C1485 1.502 . S
C1487 H1473 0.960 . S
C1487 H1474 0.961 . S
C1487 H1475 0.959 . S
C1487 C1485 1.561 . S
C1488 C1485 1.526 . S
C1488 C1489 1.396 . S
C1488 C1493 1.390 . S
C1489 C1483 1.465 . S
C1489 C1488 1.396 . S
C1489 C1490 1.399 . S
C1490 H1476 0.929 . S
C1490 C1489 1.399 . S
C1490 C1491 1.385 . S
C1491 H1477 0.931 . S
C1491 C1490 1.385 . S
C1491 C1492 1.389 . S
C1492 C1491 1.389 . S
C1492 C1493 1.387 . S
C1493 H1478 0.930 . S
C1493 C1488 1.390 . S
C1493 C1492 1.387 . S
H1494 C1506 0.930 . S
H1495 C1508 0.930 . S
H1496 C1509 0.930 1_556 S
H1497 C1513 0.959 . S
H1498 C1513 0.959 . S
H1499 C1513 0.961 . S
H1500 C1514 0.960 1_554 S
H1501 C1514 0.961 . S
H1502 C1514 0.959 . S
H1503 C1517 0.929 . S
H1504 C1518 0.931 . S
H1505 C1520 0.930 . S
C1506 H1494 0.930 . S
C1506 C1507 1.399 . S
C1506 C1511 1.399 . S
C1507 C1506 1.399 . S
C1507 C1508 1.376 . S
C1508 H1495 0.930 . S
C1508 C1507 1.376 . S
C1508 C1509 1.388 . S
C1509 H1496 0.930 1_554 S
C1509 C1508 1.388 . S
C1509 C1510 1.390 1_554 S
C1510 C1509 1.390 1_556 S
C1510 C1511 1.394 1_556 S
C1510 C1516 1.465 . S
C1511 C1506 1.399 . S
C1511 C1510 1.394 1_554 S
C1511 C1512 1.497 1_554 S
C1512 C1511 1.497 1_556 S
C1512 C1513 1.484 1_556 S
C1512 C1514 1.568 . S
C1512 C1515 1.561 . S
C1513 H1497 0.959 . S
C1513 H1498 0.959 . S
C1513 H1499 0.961 . S
C1513 C1512 1.484 1_554 S
C1514 H1500 0.960 1_556 S
C1514 H1501 0.961 . S
C1514 H1502 0.959 . S
C1514 C1512 1.568 . S
C1515 C1512 1.561 . S
C1515 C1516 1.396 . S
C1515 C1520 1.390 . S
C1516 C1510 1.465 . S
C1516 C1515 1.396 . S
C1516 C1517 1.399 . S
C1517 H1503 0.929 . S
C1517 C1516 1.399 . S
C1517 C1518 1.385 . S
C1518 H1504 0.931 . S
C1518 C1517 1.385 . S
C1518 C1519 1.389 . S
C1519 C1518 1.389 . S
C1519 C1520 1.387 . S
C1520 H1505 0.930 . S
C1520 C1515 1.390 . S
C1520 C1519 1.387 . S
H1521 C1533 0.930 . S
H1522 C1535 0.930 . S
H1523 C1536 0.930 . S
H1524 C1540 0.959 . S
H1525 C1540 0.959 . S
H1526 C1540 0.961 . S
H1527 C1541 0.960 . S
H1528 C1541 0.961 . S
H1529 C1541 0.959 . S
H1530 C1544 0.929 . S
H1531 C1545 0.931 . S
H1532 C1547 0.930 . S
C1533 H1521 0.930 . S
C1533 C1534 1.399 . S
C1533 C1538 1.399 . S
C1534 C1533 1.399 . S
C1534 C1535 1.376 . S
C1535 H1522 0.930 . S
C1535 C1534 1.376 . S
C1535 C1536 1.388 . S
C1536 H1523 0.930 . S
C1536 C1535 1.388 . S
C1536 C1537 1.390 . S
C1537 C1536 1.390 . S
C1537 C1538 1.394 . S
C1537 C1543 1.465 . S
C1538 C1533 1.399 . S
C1538 C1537 1.394 . S
C1538 C1539 1.516 . S
C1539 C1538 1.516 . S
C1539 C1540 1.502 . S
C1539 C1541 1.561 . S
C1539 C1542 1.526 . S
C1540 H1524 0.959 . S
C1540 H1525 0.959 . S
C1540 H1526 0.961 . S
C1540 C1539 1.502 . S
C1541 H1527 0.960 . S
C1541 H1528 0.961 . S
C1541 H1529 0.959 . S
C1541 C1539 1.561 . S
C1542 C1539 1.526 . S
C1542 C1543 1.396 . S
C1542 C1547 1.390 . S
C1543 C1537 1.465 . S
C1543 C1542 1.396 . S
C1543 C1544 1.399 . S
C1544 H1530 0.929 . S
C1544 C1543 1.399 . S
C1544 C1545 1.385 . S
C1545 H1531 0.931 . S
C1545 C1544 1.385 . S
C1545 C1546 1.389 . S
C1546 C1545 1.389 . S
C1546 C1547 1.387 . S
C1547 H1532 0.930 . S
C1547 C1542 1.390 . S
C1547 C1546 1.387 . S
C925 C867 1.650 . S
C913 C1 1.270 . S
C940 C169 1.556 . S
C952 C687 1.820 . S
C967 C283 1.438 . S
C979 C734 1.819 . S
C994 C397 1.332 . S
C1006 C770 1.565 . S
C1033 C795 1.478 . S
C1021 C457 1.174 . S
C1048 C571 1.233 . S
C1060 C831 1.504 . S
C1075 C115 1.320 . S
C1087 C723 1.676 . S
C1102 C229 1.195 . S
C1114 C759 1.515 . S
C1129 C343 1.206 . S
C1141 C806 1.476 . S
C1168 C842 1.678 . S
C1156 C511 1.306 . S
C1195 C878 1.792 . S
C1183 C625 1.488 . S
C1222 C698 1.840 . S
C1210 C55 1.612 . S
C1237 C29 1.215 . S
C1249 C722 1.421 . S
C1264 C125 0.946 . S
C1276 C758 1.509 . S
C1303 C796 1.459 . S
C1291 C239 1.026 . S
C1318 C353 1.020 . S
C1330 C832 1.445 . S
C1357 C868 1.350 . S
C1345 C485 1.018 . S
C1384 C688 1.395 . S
C1372 C599 1.040 . S
C1411 C866 1.422 . S
C1399 C143 1.137 . S
C1426 C257 1.208 . S
C1438 C686 1.414 . S
C1465 C724 1.375 . S
C1453 C371 1.180 . S
C1480 C467 0.915 . S
C1492 C760 1.467 . S
C1507 C581 0.795 . S
C1519 C794 1.494 . S
C1534 C11 0.846 . S
C1546 C830 1.537 . S
