# Generated by pormake.
# Topology zzz, (3,6)-cn, num edge types: 1
# Building blocks:
#     Node 0, Type 0, BuildingBlock: BELTOD_clean_linker_0, # of connection points: 3
#     Node 1, Type 0, BuildingBlock: BELTOD_clean_linker_0, # of connection points: 3
#     Node 2, Type 0, BuildingBlock: BELTOD_clean_linker_0, # of connection points: 3
#     Node 3, Type 0, BuildingBlock: BELTOD_clean_linker_0, # of connection points: 3
#     Node 4, Type 0, BuildingBlock: BELTOD_clean_linker_0, # of connection points: 3
#     Node 5, Type 0, BuildingBlock: BELTOD_clean_linker_0, # of connection points: 3
#     Node 6, Type 0, BuildingBlock: BELTOD_clean_linker_0, # of connection points: 3
#     Node 7, Type 0, BuildingBlock: BELTOD_clean_linker_0, # of connection points: 3
#     Node 8, Type 1, BuildingBlock: KUMBUR_clean_sbu_1, # of connection points: 6
#     Node 9, Type 1, BuildingBlock: KUMBUR_clean_sbu_1, # of connection points: 6
#     Node 10, Type 1, BuildingBlock: KUMBUR_clean_sbu_1, # of connection points: 6
#     Node 11, Type 1, BuildingBlock: KUMBUR_clean_sbu_1, # of connection points: 6
#     Edge 12, Type (0, 1), BuildingBlock: ZUJKAS_clean_linker_0, # of connection points: 2
#     Edge 13, Type (0, 1), BuildingBlock: ZUJKAS_clean_linker_0, # of connection points: 2
#     Edge 14, Type (0, 1), BuildingBlock: ZUJKAS_clean_linker_0, # of connection points: 2
#     Edge 15, Type (0, 1), BuildingBlock: ZUJKAS_clean_linker_0, # of connection points: 2
#     Edge 16, Type (0, 1), BuildingBlock: ZUJKAS_clean_linker_0, # of connection points: 2
#     Edge 17, Type (0, 1), BuildingBlock: ZUJKAS_clean_linker_0, # of connection points: 2
#     Edge 18, Type (0, 1), BuildingBlock: ZUJKAS_clean_linker_0, # of connection points: 2
#     Edge 19, Type (0, 1), BuildingBlock: ZUJKAS_clean_linker_0, # of connection points: 2
#     Edge 20, Type (0, 1), BuildingBlock: ZUJKAS_clean_linker_0, # of connection points: 2
#     Edge 21, Type (0, 1), BuildingBlock: ZUJKAS_clean_linker_0, # of connection points: 2
#     Edge 22, Type (0, 1), BuildingBlock: ZUJKAS_clean_linker_0, # of connection points: 2
#     Edge 23, Type (0, 1), BuildingBlock: ZUJKAS_clean_linker_0, # of connection points: 2
#     Edge 24, Type (0, 1), BuildingBlock: ZUJKAS_clean_linker_0, # of connection points: 2
#     Edge 25, Type (0, 1), BuildingBlock: ZUJKAS_clean_linker_0, # of connection points: 2
#     Edge 26, Type (0, 1), BuildingBlock: ZUJKAS_clean_linker_0, # of connection points: 2
#     Edge 27, Type (0, 1), BuildingBlock: ZUJKAS_clean_linker_0, # of connection points: 2
#     Edge 28, Type (0, 1), BuildingBlock: ZUJKAS_clean_linker_0, # of connection points: 2
#     Edge 29, Type (0, 1), BuildingBlock: ZUJKAS_clean_linker_0, # of connection points: 2
#     Edge 30, Type (0, 1), BuildingBlock: ZUJKAS_clean_linker_0, # of connection points: 2
#     Edge 31, Type (0, 1), BuildingBlock: ZUJKAS_clean_linker_0, # of connection points: 2
#     Edge 32, Type (0, 1), BuildingBlock: ZUJKAS_clean_linker_0, # of connection points: 2
#     Edge 33, Type (0, 1), BuildingBlock: ZUJKAS_clean_linker_0, # of connection points: 2
#     Edge 34, Type (0, 1), BuildingBlock: ZUJKAS_clean_linker_0, # of connection points: 2
#     Edge 35, Type (0, 1), BuildingBlock: ZUJKAS_clean_linker_0, # of connection points: 2
# Relax obj value: 0.273
# Max RMSD: 0.194
# Mean RMSD: 0.169
data_MOF--net-zzz--node1-KUMBUR_clean_sbu_1--node2-BELTOD_clean_linker_0--edge1-ZUJKAS_clean_linker_0
_symmetry_space_group_name_H-M    P1
_symmetry_Int_Tables_number       1
_symmetry_cell_setting            triclinic
loop_
_symmetry_equiv_pos_as_xyz
'x, y, z'
_cell_length_a     67.070254
_cell_length_b     67.041237
_cell_length_c     24.624162
_cell_angle_alpha  89.97135
_cell_angle_beta   89.833452
_cell_angle_gamma 90.38384
loop_
_atom_site_label
_atom_site_type_symbol
_atom_site_fract_x
_atom_site_fract_y
_atom_site_fract_z
_atom_type_partial_charge
P0 P 0.74199 0.5153 0.19458 0.0
H1 H 0.74905 0.4934 0.29528 0.0
H2 H 0.77399 0.49811 0.36571 0.0
H3 H 0.78674 0.55714 0.30357 0.0
H4 H 0.76084 0.55262 0.23478 0.0
H5 H 0.70503 0.49199 0.20161 0.0
H6 H 0.67351 0.49601 0.15423 0.0
H7 H 0.69037 0.55626 0.11106 0.0
H8 H 0.7218 0.55227 0.16021 0.0
H9 H 0.78446 0.52636 0.18152 0.0
H10 H 0.73237 0.52135 0.07966 0.0
O11 O 0.7435 0.4905 0.19053 0.0
H12 H 0.80411 0.5371 0.1035 0.0
H13 H 0.75213 0.53188 1.00148 0.0
C14 C 0.7535 0.52239 0.25846 0.0
C15 C 0.7567 0.50764 0.29779 0.0
C16 C 0.77128 0.51026 0.33774 0.0
C17 C 0.78317 0.52766 0.33904 0.0
C18 C 0.77816 0.54342 0.3037 0.0
C19 C 0.76323 0.54088 0.26424 0.0
C20 C 0.71606 0.52166 0.18349 0.0
C21 C 0.70171 0.50634 0.18376 0.0
C22 C 0.68372 0.50857 0.15584 0.0
C23 C 0.67967 0.52619 0.12688 0.0
C24 C 0.693 0.54241 0.1324 0.0
C25 C 0.71099 0.5402 0.1609 0.0
C26 C 0.7565 0.52435 0.13766 0.0
C27 C 0.77697 0.52836 0.14313 0.0
C28 C 0.78828 0.5344 0.09832 0.0
C29 C 0.7795 0.53581 0.04679 0.0
C30 C 0.75917 0.53127 0.04099 0.0
C31 C 0.74783 0.52543 0.08591 0.0
P32 P 0.00679 0.74244 0.19853 0.0
H33 H 0.03603 0.75625 0.2782 0.0
H34 H 0.03372 0.78214 0.34699 0.0
H35 H 0.96957 0.78101 0.33379 0.0
H36 H 0.97198 0.75468 0.26476 0.0
H37 H 0.03229 0.7074 0.20508 0.0
H38 H 0.02919 0.67483 0.16206 0.0
H39 H 0.96725 0.68662 0.12775 0.0
H40 H 0.97032 0.71899 0.17303 0.0
H41 H 0.99278 0.78388 0.19753 0.0
H42 H 0.99269 0.73364 0.08792 0.0
O43 O 0.03053 0.74571 0.17975 0.0
H44 H 0.97792 0.80439 0.12815 0.0
H45 H 0.97726 0.75416 0.01828 0.0
C46 C 1.00419 0.75374 0.26521 0.0
C47 C 0.02137 0.76098 0.29118 0.0
C48 C 0.02006 0.77604 0.33027 0.0
C49 C 1.00151 0.7842 0.34457 0.0
C50 C 0.98412 0.77521 0.32342 0.0
C51 C 0.98546 0.76 0.28421 0.0
C52 C 1.00171 0.71597 0.19081 0.0
C53 C 0.01782 0.70274 0.19012 0.0
C54 C 0.0161 0.68415 0.16467 0.0
C55 C 0.9982 0.67837 0.1392 0.0
C56 C 0.98136 0.69059 0.14621 0.0
C57 C 0.98307 0.70916 0.17237 0.0
C58 C 0.99285 0.75673 0.14956 0.0
C59 C 0.98867 0.77687 0.15963 0.0
C60 C 0.98013 0.78872 0.11955 0.0
C61 C 0.976 0.78085 0.06787 0.0
C62 C 0.98006 0.76063 0.05784 0.0
C63 C 0.98867 0.74879 0.09805 0.0
P64 P 0.78694 0.0087 0.2159 0.0
H65 H 0.77593 0.03421 0.30738 0.0
H66 H 0.74874 0.03106 0.3725 0.0
H67 H 0.74159 0.96901 0.3292 0.0
H68 H 0.76941 0.97217 0.26502 0.0
H69 H 0.82253 0.0337 0.20403 0.0
H70 H 0.85344 0.02742 0.15623 0.0
H71 H 0.84036 0.96421 0.15712 0.0
H72 H 0.80885 0.97081 0.20439 0.0
H73 H 0.74462 0.99898 0.20314 0.0
H74 H 0.79816 0.99495 0.10597 0.0
O75 O 0.78458 0.03312 0.20456 0.0
H76 H 0.72528 0.98583 0.12839 0.0
H77 H 0.77869 0.98164 0.03074 0.0
C78 C 0.77448 1.00356 0.28011 0.0
C79 C 0.76907 0.0197 0.31317 0.0
C80 C 0.75322 0.01795 0.35 0.0
C81 C 0.74233 0.99999 0.35467 0.0
C82 C 0.74942 0.98315 0.32646 0.0
C83 C 0.7655 0.98489 0.28987 0.0
C84 C 0.81311 1.00277 0.20726 0.0
C85 C 0.82654 0.01837 0.19594 0.0
C86 C 0.84438 0.01473 0.16825 0.0
C87 C 0.84931 0.99532 0.15133 0.0
C88 C 0.83686 0.97942 0.16824 0.0
C89 C 0.81898 0.98311 0.19631 0.0
C90 C 0.77312 0.99691 0.16182 0.0
C91 C 0.75244 0.99442 0.16678 0.0
C92 C 0.74132 0.98684 0.12375 0.0
C93 C 0.75055 0.98215 0.07409 0.0
C94 C 0.77126 0.98473 0.0689 0.0
C95 C 0.78241 0.99224 0.11224 0.0
P96 P 0.51533 0.78946 0.22174 0.0
H97 H 0.49269 0.77933 0.3198 0.0
H98 H 0.49754 0.75248 0.38473 0.0
H99 H 0.55788 0.7451 0.32667 0.0
H100 H 0.55312 0.77274 0.26312 0.0
H101 H 0.49263 0.82651 0.21754 0.0
H102 H 0.4986 0.85665 0.16522 0.0
H103 H 0.5599 0.8393 0.14095 0.0
H104 H 0.55365 0.80878 0.19343 0.0
H105 H 0.52433 0.74674 0.21195 0.0
H106 H 0.52362 0.79825 0.10651 0.0
O107 O 0.49051 0.78821 0.21762 0.0
H108 H 0.53627 0.7264 0.13737 0.0
H109 H 0.53529 0.77765 0.0313 0.0
C110 C 0.52235 0.77774 0.28533 0.0
C111 C 0.50726 0.77254 0.32234 0.0
C112 C 0.50996 0.75686 0.35907 0.0
C113 C 0.5278 0.74591 0.3594 0.0
C114 C 0.54383 0.75295 0.32733 0.0
C115 C 0.54118 0.76893 0.29106 0.0
C116 C 0.52259 0.81513 0.20878 0.0
C117 C 0.5076 0.82947 0.20295 0.0
C118 C 0.51105 0.84682 0.17266 0.0
C119 C 0.52962 0.85024 0.14746 0.0
C120 C 0.54528 0.83694 0.15867 0.0
C121 C 0.54183 0.81962 0.18956 0.0
C122 C 0.52437 0.77442 0.16623 0.0
C123 C 0.52747 0.75394 0.17354 0.0
C124 C 0.53428 0.74223 0.13071 0.0
C125 C 0.53736 0.75063 0.07912 0.0
C126 C 0.53353 0.77097 0.07111 0.0
C127 C 0.52695 0.78274 0.11427 0.0
P128 P 0.28318 0.45846 0.03178 0.0
H129 H 0.27615 0.45047 0.91629 0.0
H130 H 0.24999 0.46164 0.85516 0.0
H131 H 0.23207 0.50576 0.97315 0.0
H132 H 0.25879 0.49486 0.03341 0.0
H133 H 0.32444 0.44448 0.03209 0.0
H134 H 0.3533 0.45459 0.08507 0.0
H135 H 0.32184 0.50703 0.13897 0.0
H136 H 0.2927 0.49659 0.08583 0.0
H137 H 0.24008 0.45181 0.04125 0.0
H138 H 0.29022 0.45671 0.15009 0.0
O139 O 0.28808 0.4356 0.00867 0.0
H140 H 0.21732 0.45262 0.11852 0.0
H141 H 0.26753 0.45718 0.22749 0.0
C142 C 0.26937 0.47166 0.97985 0.0
C143 C 0.26705 0.46299 0.92841 0.0
C144 C 0.25182 0.46923 0.89365 0.0
C145 C 0.23843 0.48424 0.90966 0.0
C146 C 0.24199 0.49416 0.95922 0.0
C147 C 0.25739 0.48799 0.9938 0.0
C148 C 0.30631 0.46977 0.0547 0.0
C149 C 0.32387 0.4585 0.05378 0.0
C150 C 0.34048 0.46432 0.08437 0.0
C151 C 0.3399 0.48152 0.11706 0.0
C152 C 0.32274 0.49353 0.11498 0.0
C153 C 0.30614 0.48775 0.08389 0.0
C154 C 0.26682 0.4554 0.08954 0.0
C155 C 0.24623 0.453 0.08173 0.0
C156 C 0.23321 0.4532 0.12606 0.0
C157 C 0.24061 0.45543 0.17909 0.0
C158 C 0.26136 0.45604 0.187 0.0
C159 C 0.27436 0.45586 0.14261 0.0
P160 P 0.07078 0.2904 0.0215 0.0
H161 H 0.07615 0.28234 0.90528 0.0
H162 H 0.06415 0.25513 0.84827 0.0
H163 H 0.02363 0.23679 0.97584 0.0
H164 H 0.03536 0.26449 0.03208 0.0
H165 H 0.07905 0.33332 0.01508 0.0
H166 H 0.06831 0.36114 0.07117 0.0
H167 H 0.02529 0.32266 0.15072 0.0
H168 H 0.03568 0.29501 0.09266 0.0
H169 H 0.08088 0.24801 0.02452 0.0
H170 H 0.07709 0.29649 0.13929 0.0
O171 O 0.09197 0.29794 0.99203 0.0
H172 H 0.08248 0.22428 0.09898 0.0
H173 H 0.07896 0.27274 0.21421 0.0
C174 C 0.05672 0.27552 0.97319 0.0
C175 C 0.0642 0.27292 0.92042 0.0
C176 C 0.0575 0.25709 0.88801 0.0
C177 C 0.04325 0.24334 0.90777 0.0
C178 C 0.03457 0.24702 0.95899 0.0
C179 C 0.0412 0.26299 0.99125 0.0
C180 C 0.05826 0.31197 0.04969 0.0
C181 C 0.06688 0.33095 0.04337 0.0
C182 C 0.06089 0.34686 0.07624 0.0
C183 C 0.04627 0.34414 0.11678 0.0
C184 C 0.03656 0.32544 0.12005 0.0
C185 C 0.04243 0.30956 0.08659 0.0
C186 C 0.0775 0.2739 0.07628 0.0
C187 C 0.08063 0.25361 0.06574 0.0
C188 C 0.08183 0.24003 0.10851 0.0
C189 C 0.08031 0.2466 0.16257 0.0
C190 C 0.07958 0.2672 0.17293 0.0
C191 C 0.07837 0.28078 0.13003 0.0
P192 P 0.23198 0.07127 0.01833 0.0
H193 H 0.23766 0.07425 0.90022 0.0
H194 H 0.2646 0.06292 0.84143 0.0
H195 H 0.28781 0.02744 0.97322 0.0
H196 H 0.26033 0.03827 0.03096 0.0
H197 H 0.18992 0.08213 0.02683 0.0
H198 H 0.16322 0.07037 0.08595 0.0
H199 H 0.20012 0.02145 0.1381 0.0
H200 H 0.22703 0.03351 0.07867 0.0
H201 H 0.27333 0.08501 0.01824 0.0
H202 H 0.2272 0.07477 0.1378 0.0
O203 O 0.22438 0.09214 0.98799 0.0
H204 H 0.29809 0.08681 0.08985 0.0
H205 H 0.25186 0.07715 0.20997 0.0
C206 C 0.24694 0.05722 0.97028 0.0
C207 C 0.24813 0.06349 0.916 0.0
C208 C 0.26382 0.05721 0.88253 0.0
C209 C 0.27886 0.04464 0.90271 0.0
C210 C 0.27661 0.03706 0.95584 0.0
C211 C 0.26075 0.04319 0.98908 0.0
C212 C 0.21052 0.05863 0.04771 0.0
C213 C 0.19213 0.06849 0.04949 0.0
C214 C 0.17678 0.06174 0.08363 0.0
C215 C 0.1795 0.04504 0.11738 0.0
C216 C 0.19757 0.0345 0.11323 0.0
C217 C 0.21289 0.0412 0.07858 0.0
C218 C 0.24862 0.07855 0.07233 0.0
C219 C 0.26844 0.08353 0.06002 0.0
C220 C 0.2826 0.08481 0.10126 0.0
C221 C 0.27705 0.08157 0.15572 0.0
C222 C 0.25671 0.07906 0.1683 0.0
C223 C 0.24258 0.07762 0.12688 0.0
P224 P 0.45659 0.23923 0.0291 0.0
H225 H 0.45459 0.24471 0.91103 0.0
H226 H 0.46637 0.27188 0.85318 0.0
H227 H 0.50165 0.29487 0.98591 0.0
H228 H 0.49007 0.26733 0.04328 0.0
H229 H 0.44346 0.19775 0.03738 0.0
H230 H 0.45383 0.17036 0.09512 0.0
H231 H 0.50443 0.20523 0.14897 0.0
H232 H 0.49417 0.2326 0.08917 0.0
H233 H 0.44019 0.27927 0.02591 0.0
H234 H 0.4562 0.23665 0.14953 0.0
O235 O 0.4357 0.23215 0.99761 0.0
H236 H 0.4361 0.30486 0.09556 0.0
H237 H 0.45289 0.2622 0.21862 0.0
C238 C 0.47133 0.25396 0.98177 0.0
C239 C 0.46539 0.25516 0.92728 0.0
C240 C 0.47195 0.27094 0.89433 0.0
C241 C 0.48458 0.28595 0.91515 0.0
C242 C 0.49195 0.28366 0.96832 0.0
C243 C 0.48541 0.26778 1.00123 0.0
C244 C 0.46804 0.21731 0.05858 0.0
C245 C 0.45713 0.1994 0.06022 0.0
C246 C 0.46294 0.18375 0.0941 0.0
C247 C 0.47971 0.18567 0.12795 0.0
C248 C 0.49144 0.20315 0.12352 0.0
C249 C 0.48566 0.21882 0.08906 0.0
C250 C 0.44932 0.25626 0.08211 0.0
C251 C 0.44264 0.27534 0.06804 0.0
C252 C 0.44036 0.28998 0.10784 0.0
C253 C 0.4446 0.2857 0.16249 0.0
C254 C 0.44953 0.26604 0.17693 0.0
C255 C 0.45175 0.25141 0.13708 0.0
Tb256 Tb 0.9895 0.02191 0.58521 0.0
C257 C 0.06605 0.04077 0.7108 0.0
N258 N 0.06335 0.02771 0.6692 0.0
C259 C 0.09403 0.03865 0.62827 0.0
C260 C 0.08283 0.05354 0.71226 0.0
C261 C 0.07721 0.02622 0.62868 0.0
C262 C 0.09684 0.05241 0.67015 0.0
C263 C 0.05378 0.0553 0.79461 0.0
C264 C 0.05157 0.04173 0.75129 0.0
C265 C 0.07068 0.06776 0.79673 0.0
C266 C 0.08508 0.06699 0.75551 0.0
Tb267 Tb 0.03608 1.00745 0.67689 0.0
N268 N 0.03529 0.02951 0.74781 0.0
C269 C 0.03901 0.05585 0.83477 0.0
C270 C 0.02145 0.02927 0.78858 0.0
C271 C 0.02285 0.04269 0.83188 0.0
H272 H 0.07572 0.01505 0.59751 0.0
H273 H 0.01169 0.04254 0.86372 0.0
H274 H 0.94873 0.02384 0.66212 0.0
H275 H 1.00583 0.98209 0.3993 0.0
H276 H 0.00976 0.01833 0.78959 0.0
H277 H 0.04015 0.06607 0.8687 0.0
H278 H 0.01213 1.00648 0.47148 0.0
H279 H 0.10495 0.03743 0.59601 0.0
H280 H 0.07277 0.07804 0.83018 0.0
H281 H 0.09794 0.07683 0.75753 0.0
H282 H 0.91625 1.00644 0.66754 0.0
H283 H 0.10993 0.06196 0.66982 0.0
H284 H 0.97426 0.96281 0.39836 0.0
N285 N 0.9585 0.00782 0.59262 0.0
C286 C 0.95356 0.99443 0.5534 0.0
C287 C 0.92667 1.00281 0.63545 0.0
C288 C 0.93503 0.9844 0.55422 0.0
C289 C 0.94524 0.0124 0.63285 0.0
C290 C 0.92158 0.98866 0.59614 0.0
N291 N 0.98523 1.00019 0.51433 0.0
C292 C 0.99867 0.99779 0.47314 0.0
C293 C 0.96282 0.97677 0.47124 0.0
C294 C 0.96725 0.99068 0.51248 0.0
C295 C 0.97705 0.97341 0.43069 0.0
C296 C 0.99495 0.98416 0.43132 0.0
H297 H 0.90718 0.98127 0.59824 0.0
H298 H 0.91643 0.96252 0.51342 0.0
H299 H 0.94079 0.95582 0.44083 0.0
O300 O 0.99437 0.04495 0.52864 0.0
O301 O 0.99401 0.9896 0.59497 0.0
O302 O 0.02645 0.98313 0.62324 0.0
O303 O 0.96485 0.03979 0.56405 0.0
O304 O 0.01992 0.02693 0.55289 0.0
O305 O 0.04091 1.00331 0.58998 0.0
O306 O 0.04091 0.99109 0.7481 0.0
O307 O 0.03135 0.0387 0.65063 0.0
O308 O 0.99754 0.04164 0.65241 0.0
O309 O 0.06283 0.99137 0.68428 0.0
O310 O 0.00624 0.99778 0.70551 0.0
O311 O 0.98542 0.02223 0.67336 0.0
C312 C 0.00915 0.97752 0.60263 0.0
C313 C 0.96796 0.06721 0.4995 0.0
C314 C 0.97402 0.09759 0.44724 0.0
C315 C 0.95332 0.10001 0.44154 0.0
C316 C 0.94734 0.06985 0.49348 0.0
C317 C 0.9401 0.08616 0.46446 0.0
C318 C 0.98119 0.08108 0.47618 0.0
C319 C 0.03605 0.01576 0.55099 0.0
C320 C 0.97577 0.05041 0.53126 0.0
C321 C 0.93056 0.97044 0.51339 0.0
C322 C 0.94443 0.96663 0.47201 0.0
C323 C 0.01533 0.04953 0.65855 0.0
C324 C 0.06008 0.96196 0.73632 0.0
C325 C 0.04669 0.92894 0.75862 0.0
C326 C 0.06621 0.92131 0.75599 0.0
C327 C 0.07931 0.95399 0.73365 0.0
C328 C 0.04376 0.94931 0.74749 0.0
C329 C 0.08231 0.93373 0.74297 0.0
C330 C 0.9891 1.00732 0.70654 0.0
C331 C 0.05758 0.98364 0.73051 0.0
H332 H 0.94737 0.11248 0.41897 0.0
H333 H 0.93685 0.05934 0.51118 0.0
H334 H 0.92419 0.0881 0.45981 0.0
H335 H 0.99711 0.07931 0.48179 0.0
H336 H 0.06923 0.90587 0.76557 0.0
H337 H 0.09206 0.96352 0.72515 0.0
H338 H 0.02885 0.95541 0.74839 0.0
H339 H 0.09723 0.9277 0.74145 0.0
Tb340 Tb 0.51764 0.034 0.67215 0.0
C341 C 0.51096 0.94616 0.60107 0.0
N342 N 0.51774 0.96174 0.57075 0.0
C343 C 0.545 0.9419 0.53868 0.0
C344 C 0.5212 0.92787 0.60215 0.0
C345 C 0.53439 0.95978 0.53913 0.0
C346 C 0.53844 0.92589 0.57051 0.0
C347 C 0.48656 0.93307 0.66489 0.0
C348 C 0.49392 0.94879 0.63228 0.0
C349 C 0.49676 0.91485 0.66635 0.0
C350 C 0.51404 0.91226 0.63506 0.0
Tb351 Tb 0.49948 0.99033 0.57611 0.0
N352 N 0.48478 0.96686 0.63119 0.0
C353 C 0.46908 0.93611 0.69476 0.0
C354 C 0.46697 0.96933 0.65719 0.0
C355 C 0.45908 0.95421 0.69019 0.0
H356 H 0.53929 0.9718 0.51312 0.0
H357 H 0.44511 0.95643 0.71139 0.0
H358 H 0.47916 0.05188 0.74207 0.0
H359 H 0.57268 0.07039 0.54355 0.0
H360 H 0.45834 0.98254 0.6515 0.0
H361 H 0.46292 0.92442 0.7203 0.0
H362 H 0.55934 0.04317 0.59929 0.0
H363 H 0.55818 0.94044 0.51357 0.0
H364 H 0.49138 0.90265 0.6914 0.0
H365 H 0.52175 0.89812 0.63659 0.0
H366 H 0.46052 0.0834 0.74682 0.0
H367 H 0.54673 0.91208 0.57019 0.0
H368 H 0.55487 0.10253 0.53883 0.0
N369 N 0.50014 0.06271 0.68402 0.0
C370 C 0.5068 0.07871 0.65509 0.0
C371 C 0.47343 0.08224 0.72058 0.0
C372 C 0.49676 0.0971 0.65711 0.0
C373 C 0.48387 0.06429 0.71721 0.0
C374 C 0.47983 0.09869 0.69016 0.0
N375 N 0.53282 0.05846 0.62148 0.0
C376 C 0.55071 0.05648 0.5955 0.0
C377 C 0.53116 0.09286 0.59277 0.0
C378 C 0.52372 0.07655 0.62302 0.0
C379 C 0.54866 0.09037 0.56262 0.0
C380 C 0.55866 0.07221 0.56482 0.0
H381 H 0.4717 0.11256 0.69282 0.0
H382 H 0.49631 0.12746 0.62687 0.0
H383 H 0.52645 0.12377 0.57067 0.0
O384 O 0.54304 0.02782 0.71781 0.0
O385 O 0.50208 0.04238 0.59688 0.0
O386 O 0.50881 0.0178 0.53436 0.0
O387 O 0.5224 0.05041 0.74407 0.0
O388 O 0.54063 0.01503 0.63379 0.0
O389 O 0.52812 1.00349 0.55215 0.0
O390 O 0.47183 0.98933 0.5366 0.0
O391 O 0.51611 0.98312 0.65116 0.0
O392 O 0.50609 1.00704 0.71106 0.0
O393 O 0.49791 0.97502 0.50079 0.0
O394 O 0.47648 0.01074 0.6094 0.0
O395 O 0.48842 0.02142 0.69236 0.0
C396 C 0.50441 0.03637 0.54654 0.0
C397 C 0.55677 0.05483 0.76438 0.0
C398 C 0.59077 0.05662 0.79847 0.0
C399 C 0.59149 0.07701 0.78514 0.0
C400 C 0.55756 0.07519 0.7512 0.0
C401 C 0.57491 0.08621 0.76171 0.0
C402 C 0.57333 0.04574 0.78766 0.0
C403 C 0.54317 0.00769 0.58453 0.0
C404 C 0.53953 0.04205 0.75239 0.0
C405 C 0.50389 0.11324 0.6261 0.0
C406 C 0.52104 0.11113 0.59403 0.0
C407 C 0.51286 0.98911 0.7012 0.0
C408 C 0.46677 0.97312 0.44983 0.0
C409 C 0.43877 0.9799 0.38968 0.0
C410 C 0.4442 0.96336 0.35785 0.0
C411 C 0.47208 0.95679 0.41746 0.0
C412 C 0.45001 0.98444 0.43616 0.0
C413 C 0.46071 0.95186 0.37191 0.0
C414 C 0.47359 0.01816 0.65849 0.0
C415 C 0.47911 0.97913 0.49628 0.0
H416 H 0.60474 0.08583 0.79322 0.0
H417 H 0.54495 0.08248 0.73254 0.0
H418 H 0.57555 0.10191 0.75153 0.0
H419 H 0.57273 0.02986 0.79611 0.0
H420 H 0.436 0.95957 0.32144 0.0
H421 H 0.48502 0.9479 0.42728 0.0
H422 H 0.4459 0.99702 0.46139 0.0
H423 H 0.46487 0.93926 0.34696 0.0
Tb424 Tb 0.53674 0.50334 0.56449 0.0
C425 C 0.45609 0.4893 0.68733 0.0
N426 N 0.46027 0.50279 0.64763 0.0
C427 C 0.42897 0.49551 0.60476 0.0
C428 C 0.43824 0.47807 0.68673 0.0
C429 C 0.44689 0.50625 0.60703 0.0
C430 C 0.42466 0.48128 0.64463 0.0
C431 C 0.46636 0.47239 0.76963 0.0
C432 C 0.46999 0.48648 0.72816 0.0
C433 C 0.44864 0.46111 0.76915 0.0
C434 C 0.43461 0.46395 0.72782 0.0
Tb435 Tb 0.49024 0.51893 0.65478 0.0
N436 N 0.48732 0.49716 0.7262 0.0
C437 C 0.4807 0.47002 0.8102 0.0
C438 C 0.50078 0.49569 0.76747 0.0
C439 C 0.49786 0.4819 0.80944 0.0
H440 H 0.44975 0.51768 0.57717 0.0
H441 H 0.50877 0.4806 0.84153 0.0
H442 H 0.57768 0.50937 0.63812 0.0
H443 H 0.51353 0.53626 0.37374 0.0
H444 H 0.51359 0.5053 0.7693 0.0
H445 H 0.47852 0.45932 0.84271 0.0
H446 H 0.51235 0.51173 0.44736 0.0
H447 H 0.41844 0.4983 0.57246 0.0
H448 H 0.44564 0.45015 0.80053 0.0
H449 H 0.42101 0.45513 0.72796 0.0
H450 H 0.60727 0.5314 0.63794 0.0
H451 H 0.41077 0.47296 0.64273 0.0
H452 H 0.54086 0.56119 0.37007 0.0
N453 N 0.56531 0.52202 0.56662 0.0
C454 C 0.56779 0.53534 0.52551 0.0
C455 C 0.59622 0.53274 0.60622 0.0
C456 C 0.58447 0.54823 0.52374 0.0
C457 C 0.57932 0.5204 0.60651 0.0
C458 C 0.59878 0.54677 0.56479 0.0
N459 N 0.537 0.52409 0.49025 0.0
C460 C 0.52351 0.52323 0.44888 0.0
C461 C 0.55487 0.55041 0.44345 0.0
C462 C 0.55309 0.5365 0.48621 0.0
C463 C 0.54008 0.55072 0.40357 0.0
C464 C 0.52454 0.5368 0.40578 0.0
H465 H 0.61182 0.5564 0.56489 0.0
H466 H 0.59882 0.5724 0.47972 0.0
H467 H 0.57292 0.57427 0.4093 0.0
O468 O 0.53743 0.48202 0.50211 0.0
O469 O 0.53348 0.53506 0.587 0.0
O470 O 0.49968 0.53952 0.59022 0.0
O471 O 0.56281 0.48647 0.55361 0.0
O472 O 0.50631 0.49569 0.53548 0.0
O473 O 0.48649 0.52106 0.56708 0.0
O474 O 0.4923 0.54088 0.71466 0.0
O475 O 0.49424 0.48682 0.63768 0.0
O476 O 0.52807 0.48254 0.62907 0.0
O477 O 0.46444 0.53635 0.67023 0.0
O478 O 0.52033 0.52536 0.68753 0.0
O479 O 0.54167 0.50163 0.65216 0.0
C480 C 0.51779 0.54652 0.58212 0.0
C481 C 0.55405 0.45316 0.53154 0.0
C482 C 0.53937 0.42014 0.51694 0.0
C483 C 0.5499 0.41291 0.56199 0.0
C484 C 0.56461 0.44557 0.57627 0.0
C485 C 0.56252 0.42557 0.59122 0.0
C486 C 0.5417 0.44021 0.50167 0.0
C487 C 0.49001 0.50656 0.53261 0.0
C488 C 0.5543 0.47472 0.51861 0.0
C489 C 0.58616 0.56229 0.48164 0.0
C490 C 0.57139 0.5634 0.44163 0.0
C491 C 0.51023 0.47567 0.64129 0.0
C492 C 0.46542 0.56306 0.73773 0.0
C493 C 0.4705 0.59438 0.78587 0.0
C494 C 0.44974 0.59621 0.79193 0.0
C495 C 0.44473 0.56503 0.74387 0.0
C496 C 0.47817 0.57771 0.75885 0.0
C497 C 0.43696 0.58154 0.77113 0.0
C498 C 0.53707 0.5151 0.68901 0.0
C499 C 0.47397 0.54648 0.70692 0.0
H500 H 0.54852 0.39745 0.57424 0.0
H501 H 0.57416 0.45515 0.60042 0.0
H502 H 0.57056 0.41989 0.62595 0.0
H503 H 0.53329 0.44597 0.46761 0.0
H504 H 0.44342 0.60886 0.81303 0.0
H505 H 0.43463 0.5539 0.72749 0.0
H506 H 0.49413 0.57647 0.75267 0.0
H507 H 0.42099 0.58303 0.77593 0.0
Tb508 Tb 0.01834 0.53561 0.57938 0.0
C509 C 0.03541 0.45633 0.7007 0.0
N510 N 0.02247 0.45974 0.65938 0.0
C511 C 0.03326 0.42987 0.61475 0.0
C512 C 0.04813 0.43967 0.70004 0.0
C513 C 0.02101 0.44664 0.61709 0.0
C514 C 0.04696 0.42642 0.65626 0.0
C515 C 0.04973 0.46713 0.78614 0.0
C516 C 0.03627 0.46999 0.74297 0.0
C517 C 0.06246 0.45057 0.78567 0.0
C518 C 0.06168 0.4369 0.7427 0.0
Tb519 Tb 1.00358 0.48782 0.66702 0.0
N520 N 0.02405 0.48614 0.74142 0.0
C521 C 0.04989 0.48091 0.82873 0.0
C522 C 0.02319 0.49875 0.78492 0.0
C523 C 0.03635 0.49661 0.82847 0.0
H524 H 0.00998 0.44876 0.58593 0.0
H525 H 0.03578 0.50689 0.86231 0.0
H526 H 0.00923 0.57512 0.65602 0.0
H527 H 0.98946 0.51287 0.38302 0.0
H528 H 0.01205 0.51008 0.78771 0.0
H529 H 0.06001 0.47926 0.86264 0.0
H530 H 0.01299 0.51235 0.45867 0.0
H531 H 0.03204 0.41955 0.58111 0.0
H532 H 0.0729 0.44816 0.81848 0.0
H533 H 0.07161 0.42422 0.74288 0.0
H534 H 0.98595 0.60345 0.65607 0.0
H535 H 0.05647 0.41343 0.65427 0.0
H536 H 0.96314 0.53849 0.37976 0.0
N537 N 0.99824 0.56292 0.5822 0.0
C538 C 0.98543 0.56507 0.53998 0.0
C539 C 0.98559 0.59271 0.62327 0.0
C540 C 0.97187 0.58102 0.53827 0.0
C541 C 0.99865 0.57653 0.62341 0.0
C542 C 0.97209 0.59494 0.58063 0.0
N543 N 0.99852 0.5353 0.50342 0.0
C544 C 1.00078 0.52257 0.46056 0.0
C545 C 0.97207 0.55213 0.45564 0.0
C546 C 0.9854 0.55066 0.49962 0.0
C547 C 0.9731 0.5379 0.41428 0.0
C548 C 0.98781 0.5233 0.41624 0.0
H549 H 0.96189 0.60741 0.58085 0.0
H550 H 0.94766 0.59439 0.49322 0.0
H551 H 0.94792 0.56917 0.42065 0.0
O552 O 0.04014 0.53843 0.51841 0.0
O553 O 0.98674 0.53164 0.603 0.0
O554 O 0.98271 0.49773 0.60418 0.0
O555 O 0.03417 0.56273 0.57245 0.0
O556 O 0.02627 0.50572 0.54782 0.0
O557 O 1.00125 0.48498 0.57899 0.0
O558 O 0.98077 0.48591 0.72559 0.0
O559 O 0.03544 0.4925 0.64722 0.0
O560 O 0.03932 0.52649 0.64257 0.0
O561 O 0.98843 0.46054 0.67705 0.0
O562 O 0.99669 0.51745 0.70214 0.0
O563 O 0.02023 0.5395 0.66742 0.0
C564 C 0.97536 0.51572 0.59846 0.0
C565 C 0.06799 0.55629 0.55139 0.0
C566 C 0.10169 0.54324 0.53942 0.0
C567 C 0.10808 0.55467 0.58401 0.0
C568 C 0.07477 0.56778 0.5955 0.0
C569 C 0.0947 0.56694 0.61155 0.0
C570 C 0.08165 0.54433 0.52308 0.0
C571 C 0.01554 0.4892 0.54416 0.0
C572 C 0.04655 0.55544 0.53718 0.0
C573 C 0.9583 0.58232 0.49509 0.0
C574 C 0.95839 0.56791 0.45389 0.0
C575 C 0.04649 0.50866 0.65195 0.0
C576 C 0.95423 0.46617 0.69144 0.0
C577 C 0.92028 0.47914 0.68938 0.0
C578 C 0.91514 0.46447 0.651 0.0
C579 C 0.94869 0.45149 0.65347 0.0
C580 C 0.93983 0.47974 0.7097 0.0
C581 C 0.92926 0.45072 0.63341 0.0
C582 C 0.00688 0.53438 0.70437 0.0
C583 C 0.9752 0.46827 0.70906 0.0
H584 H 0.12335 0.55395 0.59801 0.0
H585 H 0.06465 0.57712 0.61832 0.0
H586 H 0.09973 0.57562 0.64599 0.0
H587 H 0.07662 0.53574 0.48839 0.0
H588 H 0.90023 0.46363 0.63442 0.0
H589 H 0.95942 0.44079 0.63858 0.0
H590 H 0.94386 0.49076 0.73998 0.0
H591 H 0.92518 0.43949 0.60382 0.0
H592 H 0.13858 0.04489 0.10789 0.0
H593 H 0.11374 0.03949 0.17971 0.0
H594 H 0.16073 0.02789 0.2942 0.0
H595 H 0.18566 0.03366 0.22308 0.0
H596 H 0.10621 1.00603 0.24831 0.0
H597 H 0.12854 0.07295 0.36671 0.0
H598 H 0.1362 0.06912 0.29716 0.0
H599 H 0.14857 0.0562 0.35127 0.0
C600 C 0.14366 0.04119 0.14835 0.0
C601 C 0.1642 0.0398 0.15956 0.0
C602 C 0.12941 0.03802 0.18935 0.0
C603 C 0.13534 0.03359 0.24264 0.0
C604 C 0.15578 0.0316 0.25364 0.0
H605 H 0.06465 0.98971 0.51571 0.0
H606 H 0.088 0.99395 0.43983 0.0
C607 C 0.17003 0.03467 0.21265 0.0
C608 C 0.1202 0.03128 0.28682 0.0
H609 H 0.10508 0.05105 0.40815 0.0
C610 C 0.10595 0.01589 0.28321 0.0
C611 C 0.11964 0.04432 0.33206 0.0
C612 C 0.13392 0.06171 0.33705 0.0
C613 C 0.0915 0.01291 0.32414 0.0
C614 C 0.09134 0.02557 0.37015 0.0
C615 C 0.1053 0.04123 0.37316 0.0
C616 C 0.07683 0.0228 0.41562 0.0
C617 C 0.07633 0.99638 0.31754 0.0
C618 C 0.06287 0.03769 0.42782 0.0
C619 C 0.04946 0.0353 0.4712 0.0
C620 C 0.04992 0.01808 0.50392 0.0
C621 C 0.06392 1.00319 0.49155 0.0
C622 C 0.07722 1.00553 0.44793 0.0
H623 H 0.07549 0.99108 0.27486 0.0
H624 H 0.0806 0.98358 0.3435 0.0
H625 H 0.06131 1.00139 0.33052 0.0
H626 H 0.06232 0.05118 0.40363 0.0
H627 H 0.03893 0.04709 0.47956 0.0
H628 H 0.51613 0.1711 0.16187 0.0
H629 H 0.52233 0.14542 0.23088 0.0
H630 H 0.45911 0.13959 0.25888 0.0
H631 H 0.45279 0.16519 0.19094 0.0
H632 H 0.51195 0.14393 0.34198 0.0
H633 H 0.47579 0.08201 0.22945 0.0
H634 H 0.48249 0.10537 0.19753 0.0
H635 H 0.46007 0.10337 0.23747 0.0
C636 C 0.50354 0.1644 0.18281 0.0
C637 C 0.48392 0.17007 0.16995 0.0
C638 C 0.50712 0.14966 0.22218 0.0
C639 C 0.49117 0.14023 0.24938 0.0
C640 C 0.47165 0.1462 0.2375 0.0
H641 H 0.48741 0.0734 0.55074 0.0
H642 H 0.48585 0.09847 0.47894 0.0
C643 C 0.46807 0.16087 0.19835 0.0
C644 C 0.49475 0.12436 0.29073 0.0
H645 H 0.48282 0.07608 0.32295 0.0
C646 C 0.50572 0.12905 0.33762 0.0
C647 C 0.48684 0.10483 0.28491 0.0
C648 C 0.47581 0.09849 0.2344 0.0
C649 C 0.50841 0.11497 0.37947 0.0
C650 C 0.49972 0.09573 0.37465 0.0
C651 C 0.48932 0.09086 0.327 0.0
C652 C 0.50101 0.08053 0.41878 0.0
C653 C 0.52065 0.12079 0.42837 0.0
C654 C 0.50958 0.0618 0.4088 0.0
C655 C 0.51055 0.0474 0.45003 0.0
C656 C 0.50286 0.05136 0.50212 0.0
C657 C 0.49391 0.06998 0.5116 0.0
C658 C 0.49302 0.08438 0.47049 0.0
H659 H 0.53075 0.13358 0.41929 0.0
H660 H 0.51052 0.12533 0.46178 0.0
H661 H 0.52974 0.10809 0.44293 0.0
H662 H 0.5157 0.05839 0.36914 0.0
H663 H 0.51754 0.03324 0.44119 0.0
H664 H 0.38042 0.47774 0.1016 0.0
H665 H 0.40692 0.48135 0.16928 0.0
H666 H 0.36343 0.49861 0.28926 0.0
H667 H 0.33683 0.49456 0.22239 0.0
H668 H 0.41923 0.51402 0.23246 0.0
H669 H 0.39214 0.45196 0.36276 0.0
H670 H 0.38336 0.4557 0.29428 0.0
H671 H 0.37366 0.47054 0.34898 0.0
C672 C 0.37646 0.48229 0.14239 0.0
C673 C 0.3564 0.48576 0.1564 0.0
C674 C 0.39167 0.48442 0.18103 0.0
C675 C 0.38717 0.48989 0.23473 0.0
C676 C 0.36727 0.494 0.24841 0.0
H677 H 0.46428 0.53369 0.4898 0.0
H678 H 0.44043 0.52897 0.41609 0.0
C679 C 0.35207 0.49194 0.2098 0.0
C680 C 0.40324 0.49122 0.27647 0.0
H681 H 0.41789 0.47249 0.39929 0.0
C682 C 0.41898 0.50488 0.2688 0.0
C683 C 0.40315 0.47905 0.32356 0.0
C684 C 0.38729 0.46334 0.33283 0.0
C685 C 0.43421 0.50714 0.30762 0.0
C686 C 0.43365 0.49557 0.35577 0.0
C687 C 0.41826 0.48147 0.36265 0.0
C688 C 0.4485 0.49834 0.4002 0.0
C689 C 0.45088 0.52183 0.29659 0.0
C690 C 0.46084 0.48258 0.41671 0.0
C691 C 0.47452 0.48522 0.45926 0.0
C692 C 0.47587 0.50358 0.48671 0.0
C693 C 0.46351 0.51929 0.46995 0.0
C694 C 0.44996 0.51668 0.4274 0.0
H695 H 0.45221 0.52532 0.25261 0.0
H696 H 0.44777 0.53594 0.31845 0.0
H697 H 0.46537 0.51601 0.31116 0.0
H698 H 0.45994 0.46826 0.39651 0.0
H699 H 0.48383 0.47283 0.47114 0.0
H700 H 0.07323 0.37008 0.16276 0.0
H701 H 0.06739 0.39532 0.23222 0.0
H702 H 1.00499 0.37966 0.23578 0.0
H703 H 0.01056 0.35455 0.16515 0.0
H704 H 0.04131 0.4288 0.23262 0.0
H705 H 0.02255 0.37464 0.39609 0.0
H706 H 0.03459 0.36729 0.33361 0.0
H707 H 0.00827 0.37206 0.33482 0.0
C708 C 0.05815 0.37216 0.17742 0.0
C709 C 0.04236 0.36018 0.15785 0.0
C710 C 0.05489 0.38656 0.21759 0.0
C711 C 0.03582 0.38926 0.23981 0.0
C712 C 0.01993 0.37761 0.21998 0.0
H713 H 0.98883 0.46294 0.50028 0.0
H714 H 0.99399 0.4396 0.42545 0.0
C715 C 0.02315 0.36323 0.17954 0.0
C716 C 0.0327 0.40419 0.28388 0.0
H717 H 0.0192 0.40881 0.41726 0.0
C718 C 0.0365 0.42445 0.27303 0.0
C719 C 0.02645 0.39852 0.33666 0.0
C720 C 0.02287 0.37694 0.3514 0.0
C721 C 0.03384 0.4392 0.31311 0.0
C722 C 0.02768 0.43352 0.36604 0.0
C723 C 0.02392 0.41323 0.37682 0.0
C724 C 0.02465 0.44831 0.41067 0.0
C725 C 0.03716 0.46077 0.29786 0.0
C726 C 0.04017 0.46106 0.42775 0.0
C727 C 0.03721 0.47457 0.47054 0.0
C728 C 0.01876 0.47536 0.49773 0.0
C729 C 1.00328 0.4626 0.48053 0.0
C730 C 0.0062 0.44924 0.43767 0.0
H731 H 0.03619 0.46305 0.25325 0.0
H732 H 0.0261 0.47056 0.31804 0.0
H733 H 0.05229 0.46547 0.31098 0.0
H734 H 0.0547 0.46036 0.40858 0.0
H735 H 0.04946 0.48411 0.48301 0.0
H736 H 0.85018 0.96976 0.06417 0.0
H737 H 0.87515 0.96786 0.99202 0.0
H738 H 0.91023 0.01318 0.07199 0.0
H739 H 0.88583 0.01449 0.14566 0.0
H740 H 0.88519 0.99654 0.92243 0.0
H741 H 0.95316 0.97426 0.033 0.0
H742 H 0.92863 0.97265 0.06311 0.0
H743 H 0.94195 0.99606 0.06178 0.0
C744 C 0.8635 0.97888 0.06752 0.0
C745 C 0.8659 0.99224 0.11123 0.0
C746 C 0.87771 0.97793 0.02573 0.0
C747 C 0.89476 0.99024 0.02648 0.0
C748 C 0.89747 1.00321 0.07072 0.0
H749 H 0.96208 0.03317 0.75009 0.0
H750 H 0.93927 0.0276 0.82596 0.0
C751 C 0.88332 1.00411 0.11268 0.0
C752 C 0.90882 0.9906 0.97916 0.0
H753 H 0.95812 0.98783 0.94375 0.0
C754 C 0.90111 0.99443 0.92717 0.0
C755 C 0.92962 0.98762 0.98477 0.0
C756 C 0.93881 0.98221 0.03859 0.0
C757 C 0.91359 0.99597 0.88128 0.0
C758 C 0.93448 0.99405 0.8874 0.0
C759 C 0.94216 0.98955 0.93899 0.0
C760 C 0.94858 0.99726 0.84107 0.0
C761 C 0.9042 0.99953 0.82651 0.0
C762 C 0.96197 0.9823 0.82499 0.0
C763 C 0.97511 0.98546 0.78123 0.0
C764 C 0.97512 1.00365 0.7527 0.0
C765 C 0.96204 0.01873 0.76983 0.0
C766 C 0.94897 0.01558 0.81342 0.0
H767 H 0.88837 0.99455 0.82588 0.0
H768 H 0.90455 0.01575 0.81742 0.0
H769 H 0.9124 0.99163 0.79381 0.0
H770 H 0.96213 0.9681 0.84599 0.0
H771 H 0.98516 0.97362 0.76951 0.0
H772 H 0.5144 0.88836 0.14764 0.0
H773 H 0.5136 0.91205 0.07188 0.0
H774 H 0.54857 0.87181 0.97464 0.0
H775 H 0.54898 0.84783 0.04942 0.0
H776 H 0.5439 0.93134 0.01083 0.0
H777 H 0.49881 0.88054 0.88131 0.0
H778 H 0.50212 0.87637 0.95313 0.0
H779 H 0.52162 0.87005 0.90611 0.0
C780 C 0.522 0.88456 0.11023 0.0
C781 C 0.53166 0.86606 0.10477 0.0
C782 C 0.52158 0.89817 0.06695 0.0
C783 C 0.53067 0.89356 0.01708 0.0
C784 C 0.54111 0.87556 0.01231 0.0
H785 H 0.53274 0.95339 0.70086 0.0
H786 H 0.53757 0.9304 0.77693 0.0
C787 C 0.54157 0.86195 0.05554 0.0
C788 C 0.52875 0.90734 0.96975 0.0
H789 H 0.50993 0.91064 0.84102 0.0
C790 C 0.53645 0.92682 0.97374 0.0
C791 C 0.51905 0.90147 0.9212 0.0
C792 C 0.50976 0.88104 0.91508 0.0
C793 C 0.53494 0.94046 0.93043 0.0
C794 C 0.52506 0.93465 0.88208 0.0
C795 C 0.5175 0.91512 0.87796 0.0
C796 C 0.5221 0.94868 0.83572 0.0
C797 C 0.54429 0.96087 0.9365 0.0
C798 C 0.51148 0.96648 0.84292 0.0
C799 C 0.50856 0.97958 0.79936 0.0
C800 C 0.51605 0.97513 0.74734 0.0
C801 C 0.52656 0.95721 0.7401 0.0
C802 C 0.52942 0.94408 0.7837 0.0
H803 H 0.55598 0.96102 0.96837 0.0
H804 H 0.55103 0.96602 0.89767 0.0
H805 H 0.53263 0.97168 0.94857 0.0
H806 H 0.50524 0.97018 0.88223 0.0
H807 H 0.50026 0.99315 0.80644 0.0
H808 H 0.66794 0.49647 0.05783 0.0
H809 H 0.64213 0.4972 0.98857 0.0
H810 H 0.62779 0.55761 0.03313 0.0
H811 H 0.65386 0.55704 0.10293 0.0
H812 H 0.60228 0.50224 0.99498 0.0
H813 H 0.63556 0.56323 0.87086 0.0
H814 H 0.64902 0.5512 0.92494 0.0
H815 H 0.63059 0.56973 0.94029 0.0
C816 C 0.65916 0.50988 0.05366 0.0
C817 C 0.66299 0.52667 0.08651 0.0
C818 C 0.64443 0.5103 0.01357 0.0
C819 C 0.63311 0.52753 1.00482 0.0
C820 C 0.6366 0.54427 0.03806 0.0
H821 H 0.53885 0.54645 0.76087 0.0
H822 H 0.56109 0.55038 0.83927 0.0
C823 C 0.65147 0.54389 0.07821 0.0
C824 C 0.61771 0.52763 0.96098 0.0
H825 H 0.60473 0.55001 0.84119 0.0
C826 C 0.60282 0.51276 0.96151 0.0
C827 C 0.61828 0.54135 0.91712 0.0
C828 C 0.6343 0.55718 0.91276 0.0
C829 C 0.58875 0.51108 0.91945 0.0
C830 C 0.58961 0.52449 0.87511 0.0
C831 C 0.60409 0.53973 0.87517 0.0
C832 C 0.57619 0.52231 0.82724 0.0
C833 C 0.57303 0.49491 0.92274 0.0
C834 C 0.57741 0.50536 0.79395 0.0
C835 C 0.56483 0.50311 0.74907 0.0
C836 C 0.55069 0.5178 0.73626 0.0
C837 C 0.54953 0.53483 0.76954 0.0
C838 C 0.56226 0.53713 0.81433 0.0
H839 H 0.57117 0.48923 0.96486 0.0
H840 H 0.55843 0.50044 0.90809 0.0
H841 H 0.57752 0.48224 0.89655 0.0
H842 H 0.58819 0.49383 0.80265 0.0
H843 H 0.56607 0.48974 0.72467 0.0
H844 H 0.9682 0.65048 0.12136 0.0
H845 H 0.9677 0.62357 0.05365 0.0
H846 H 0.02663 0.64076 1.00045 0.0
H847 H 0.02726 0.66747 0.0672 0.0
H848 H 0.97058 0.62558 0.94232 0.0
H849 H 0.03356 0.58151 0.02122 0.0
H850 H 0.02175 0.60084 0.06062 0.0
H851 H 0.04038 0.60711 0.01048 0.0
C852 C 0.98111 0.64845 0.09548 0.0
C853 C 0.9979 0.66105 0.10064 0.0
C854 C 0.98081 0.63301 0.0568 0.0
C855 C 0.99731 0.62979 0.02254 0.0
C856 C 0.01396 0.64245 0.02738 0.0
H857 H 0.03208 0.56387 0.7396 0.0
H858 H 0.0281 0.58586 0.81788 0.0
C859 C 0.01429 0.65777 0.0659 0.0
C860 C 0.99698 0.6139 0.97994 0.0
H861 H 0.02405 0.57505 0.92896 0.0
C862 C 0.98209 0.61433 0.93987 0.0
C863 C 0.01197 0.59914 0.97659 0.0
C864 C 0.02769 0.59696 0.01985 0.0
C865 C 0.98235 0.60109 0.89539 0.0
C866 C 0.99778 0.58686 0.89107 0.0
C867 C 0.0123 0.58603 0.93198 0.0
C868 C 0.99975 0.57336 0.84317 0.0
C869 C 0.96659 0.60297 0.85214 0.0
C870 C 0.98521 0.55881 0.83131 0.0
C871 C 0.98743 0.54614 0.7863 0.0
C872 C 1.00425 0.54778 0.75218 0.0
C873 C 0.01883 0.56229 0.76452 0.0
C874 C 0.01663 0.57485 0.80949 0.0
H875 H 0.95812 0.61709 0.85592 0.0
H876 H 0.9734 0.60232 0.81102 0.0
H877 H 0.95589 0.59035 0.85586 0.0
H878 H 0.97222 0.55712 0.85715 0.0
H879 H 0.97597 0.5351 0.77817 0.0
H880 H 0.09822 0.21036 0.17946 0.0
H881 H 0.08607 0.18354 0.23892 0.0
H882 H 0.04102 0.22271 0.30293 0.0
H883 H 0.05293 0.24943 0.24393 0.0
H884 H 0.05748 0.19636 0.38142 0.0
H885 H 0.03279 0.15762 0.19292 0.0
H886 H 0.05894 0.16337 0.19724 0.0
H887 H 0.04117 0.18323 0.19291 0.0
C888 C 0.08598 0.21334 0.20699 0.0
C889 C 0.07639 0.23194 0.20652 0.0
C890 C 0.07907 0.19803 0.24085 0.0
C891 C 0.06241 0.20108 0.27436 0.0
C892 C 0.05388 0.22007 0.27723 0.0
H893 H 0.97135 0.13828 0.44883 0.0
H894 H 0.99483 0.1625 0.41005 0.0
C895 C 0.06079 0.23538 0.2436 0.0
C896 C 0.05234 0.18416 0.30177 0.0
H897 H 0.02417 0.14269 0.27586 0.0
C898 C 0.05038 0.18448 0.3585 0.0
C899 C 0.04298 0.1688 0.27155 0.0
C900 C 0.04388 0.1682 0.21027 0.0
C901 C 0.03906 0.16991 0.38585 0.0
C902 C 0.02926 0.1549 0.35545 0.0
C903 C 0.03174 0.15424 0.29894 0.0
C904 C 0.01554 0.14028 0.38089 0.0
C905 C 0.03759 0.17075 0.44695 0.0
C906 C 0.01916 0.11979 0.37598 0.0
C907 C 1.00565 0.10593 0.39742 0.0
C908 C 0.98821 0.11233 0.42382 0.0
C909 C 0.98457 0.13289 0.42835 0.0
C910 C 0.99811 0.14674 0.40695 0.0
H911 H 0.0502 0.17933 0.46483 0.0
H912 H 0.02354 0.1783 0.45859 0.0
H913 H 0.03739 0.15554 0.46479 0.0
H914 H 0.03241 0.11453 0.35535 0.0
H915 H 0.00874 0.09018 0.39268 0.0
H916 H 0.31324 0.10056 0.16909 0.0
H917 H 0.34161 0.0881 0.22126 0.0
H918 H 0.30461 0.04121 0.28754 0.0
H919 H 0.27642 0.05308 0.23488 0.0
H920 H 0.3355 0.05985 0.36204 0.0
H921 H 0.36268 0.03241 0.16148 0.0
H922 H 0.35668 0.05846 0.1668 0.0
H923 H 0.33722 0.04007 0.17217 0.0
C924 C 0.31104 0.08783 0.19558 0.0
C925 C 0.29262 0.07765 0.1971 0.0
C926 C 0.32722 0.08082 0.22552 0.0
C927 C 0.32516 0.06363 0.25756 0.0
C928 C 0.30641 0.05454 0.26306 0.0
H929 H 0.40257 0.96848 0.34815 0.0
H930 H 0.37527 0.99005 0.31918 0.0
C931 C 0.29027 0.06145 0.23302 0.0
C932 C 0.34287 0.05333 0.27882 0.0
H933 H 0.38132 0.0237 0.23831 0.0
C934 C 0.3457 0.05214 0.33514 0.0
C935 C 0.35586 0.04305 0.24336 0.0
C936 C 0.35301 0.04337 0.18256 0.0
C937 C 0.36128 0.04078 0.35698 0.0
C938 C 0.37411 0.0304 0.32145 0.0
C939 C 0.37138 0.03175 0.26522 0.0
C940 C 0.3902 0.01751 0.34165 0.0
C941 C 0.36363 0.03943 0.41775 0.0
C942 C 0.40759 0.02593 0.36335 0.0
C943 C 0.42331 0.0137 0.37915 0.0
C944 C 0.42186 0.99282 0.37371 0.0
C945 C 0.40427 0.98448 0.35229 0.0
C946 C 0.38861 0.99675 0.33615 0.0
H947 H 0.35104 0.04647 0.43981 0.0
H948 H 0.36472 0.02358 0.43046 0.0
H949 H 0.37768 0.04704 0.42989 0.0
H950 H 0.40915 0.04197 0.36698 0.0
H951 H 0.43678 0.02066 0.39449 0.0
H952 H 0.43287 0.28557 0.2696 0.0
H953 H 0.44164 0.3103 0.33897 0.0
H954 H 0.46982 0.3469 0.21641 0.0
H955 H 0.46132 0.3224 0.14739 0.0
H956 H 0.48035 0.31942 0.36224 0.0
H957 H 0.44083 0.38839 0.30552 0.0
H958 H 0.43366 0.36417 0.27971 0.0
H959 H 0.45388 0.3779 0.24877 0.0
C960 C 0.4406 0.29908 0.25736 0.0
C961 C 0.44641 0.302 0.20297 0.0
C962 C 0.44551 0.31322 0.29695 0.0
C963 C 0.45615 0.33055 0.28273 0.0
C964 C 0.46112 0.33392 0.22812 0.0
H965 H 0.53608 0.41668 0.40699 0.0
H966 H 0.5134 0.395 0.35603 0.0
C967 C 0.45625 0.31984 0.18861 0.0
C968 C 0.46458 0.34374 0.32515 0.0
H969 H 0.47075 0.39271 0.35927 0.0
C970 C 0.47791 0.3354 0.36252 0.0
C971 C 0.46142 0.36457 0.3252 0.0
C972 C 0.4465 0.37425 0.28796 0.0
C973 C 0.48913 0.34747 0.39767 0.0
C974 C 0.48668 0.36838 0.39582 0.0
C975 C 0.47266 0.37666 0.36028 0.0
C976 C 0.49964 0.38197 0.4274 0.0
C977 C 0.50432 0.33785 0.43426 0.0
C978 C 0.49923 0.38191 0.48435 0.0
C979 C 0.5122 0.39426 0.51354 0.0
C980 C 0.52568 0.40692 0.4862 0.0
C981 C 0.52579 0.40715 0.42913 0.0
C982 C 0.51286 0.3948 0.40002 0.0
H983 H 0.50689 0.32197 0.42357 0.0
H984 H 0.51877 0.34599 0.43209 0.0
H985 H 0.49895 0.33844 0.47688 0.0
H986 H 0.48888 0.37234 0.50615 0.0
H987 H 0.51148 0.39411 0.55744 0.0
H988 H 0.2446 0.48287 0.25978 0.0
H989 H 0.22035 0.49162 0.32938 0.0
H990 H 0.18064 0.44549 0.27151 0.0
H991 H 0.20499 0.43658 0.20125 0.0
H992 H 0.16249 0.4814 0.28008 0.0
H993 H 0.20308 0.46591 0.4703 0.0
H994 H 0.21756 0.48121 0.42508 0.0
H995 H 0.21099 0.45614 0.40544 0.0
C996 C 0.23097 0.47417 0.26275 0.0
C997 C 0.22677 0.45895 0.22514 0.0
C998 C 0.21711 0.47919 0.30268 0.0
C999 C 0.19884 0.46898 0.30627 0.0
C1000 C 0.19474 0.45345 0.26966 0.0
H1001 H 0.09511 0.50541 0.50103 0.0
H1002 H 0.11777 0.48497 0.44667 0.0
C1003 C 0.20861 0.44844 0.22947 0.0
C1004 C 0.18336 0.476 0.34466 0.0
H1005 H 0.17596 0.48937 0.47692 0.0
C1006 C 0.16524 0.48276 0.32331 0.0
C1007 C 0.187 0.47776 0.40103 0.0
C1008 C 0.20564 0.46967 0.42687 0.0
C1009 C 0.15113 0.49227 0.35633 0.0
C1010 C 0.15523 0.4949 0.41214 0.0
C1011 C 0.17297 0.48743 0.43397 0.0
C1012 C 0.14188 0.50655 0.44761 0.0
C1013 C 0.13237 0.50031 0.33089 0.0
C1014 C 0.14815 0.52522 0.46701 0.0
C1015 C 0.13523 0.53699 0.49765 0.0
C1016 C 0.11582 0.53024 0.50963 0.0
C1017 C 0.10982 0.51121 0.49152 0.0
C1018 C 0.12275 0.49948 0.46071 0.0
H1019 H 0.13288 0.4997 0.28582 0.0
H1020 H 0.11938 0.49135 0.34494 0.0
H1021 H 0.12993 0.516 0.3436 0.0
H1022 H 0.16289 0.5309 0.45719 0.0
H1023 H 0.14025 0.55162 0.51058 0.0
H1024 H 0.94967 0.81202 0.07083 0.0
H1025 H 0.94787 0.83944 1.00537 0.0
H1026 H 0.98817 0.80817 0.89903 0.0
H1027 H 0.99032 0.78106 0.9641 0.0
H1028 H 0.98316 0.85903 0.98719 0.0
H1029 H 0.95165 0.83549 0.79051 0.0
H1030 H 0.94642 0.82238 0.85321 0.0
H1031 H 0.96904 0.81759 0.81599 0.0
C1032 C 0.95769 0.81076 0.03276 0.0
C1033 C 0.97039 0.79451 0.02306 0.0
C1034 C 0.95651 0.82635 0.99524 0.0
C1035 C 0.96779 0.82579 0.94721 0.0
C1036 C 0.97897 0.80873 0.93521 0.0
H1037 H 0.04073 0.88905 0.73811 0.0
H1038 H 0.01666 0.86685 0.78158 0.0
C1039 C 0.98023 0.7932 0.97271 0.0
C1040 C 0.9717 0.8443 0.91612 0.0
H1041 H 0.97703 0.8617 0.78672 0.0
C1042 C 0.98131 0.85996 0.9435 0.0
C1043 C 0.96934 0.84535 0.85923 0.0
C1044 C 0.95836 0.82936 0.82813 0.0
C1045 C 0.99033 0.87573 0.91512 0.0
C1046 C 0.98907 0.87619 0.85767 0.0
C1047 C 0.97807 0.86131 0.83066 0.0
C1048 C 1.00132 0.89028 0.82502 0.0
C1049 C 1.00255 0.89073 0.94682 0.0
C1050 C 1.00022 0.91095 0.83316 0.0
C1051 C 0.01449 0.92366 0.80998 0.0
C1052 C 0.0298 0.91597 0.77686 0.0
C1053 C 0.02964 0.89546 0.76483 0.0
C1054 C 0.01566 0.88274 0.78902 0.0
H1055 H 1.00535 0.88573 0.98914 0.0
H1056 H 0.01717 0.8935 0.92685 0.0
H1057 H 0.99439 0.90505 0.94892 0.0
H1058 H 0.98891 0.91718 0.85952 0.0
H1059 H 0.01402 0.93932 0.82043 0.0
H1060 H 0.71828 0.95712 0.06749 0.0
H1061 H 0.69107 0.96064 1.00247 0.0
H1062 H 0.72682 1.00179 0.90848 0.0
H1063 H 0.75387 0.99858 0.97335 0.0
H1064 H 0.68002 1.00177 1.00533 0.0
H1065 H 0.68964 0.97523 0.79334 0.0
H1066 H 0.70174 0.96355 0.8506 0.0
H1067 H 0.71135 0.98654 0.8234 0.0
C1068 C 0.72063 0.96623 0.03165 0.0
C1069 C 0.73794 0.978 0.02619 0.0
C1070 C 0.70515 0.96809 0.99434 0.0
C1071 C 0.70693 0.98158 0.95102 0.0
C1072 C 0.72526 0.99111 0.94129 0.0
H1073 H 0.6304 0.06065 0.77222 0.0
H1074 H 0.65833 0.04146 0.8089 0.0
C1075 C 0.74073 0.98931 0.97865 0.0
C1076 C 0.68878 0.9902 0.9273 0.0
H1077 H 0.66549 1.00085 0.80799 0.0
C1078 C 0.6766 1.00127 0.9623 0.0
C1079 C 0.68479 0.98989 0.87112 0.0
C1080 C 0.69746 0.97805 0.83233 0.0
C1081 C 0.66083 0.01263 0.94249 0.0
C1082 C 0.65673 0.01237 0.8862 0.0
C1083 C 0.66871 1.001 0.85113 0.0
C1084 C 0.63999 0.02381 0.86344 0.0
C1085 C 0.6493 0.02545 0.9819 0.0
C1086 C 0.62056 0.02027 0.88223 0.0
C1087 C 0.6048 0.03154 0.86272 0.0
C1088 C 0.60801 0.0462 0.82268 0.0
C1089 C 0.6275 0.04968 0.80361 0.0
C1090 C 0.64339 0.03855 0.8239 0.0
H1091 H 0.65802 0.0286 0.01926 0.0
H1092 H 0.64506 0.03987 0.96318 0.0
H1093 H 0.63548 0.01745 0.99431 0.0
H1094 H 0.61758 0.00875 0.9121 0.0
H1095 H 0.59001 0.02863 0.87879 0.0
H1096 H 0.51805 0.74868 0.98267 0.0
H1097 H 0.51914 0.72113 0.91821 0.0
H1098 H 0.56796 0.69509 1.00654 0.0
H1099 H 0.56656 0.72251 0.07232 0.0
H1100 H 0.54538 0.69976 0.8512 0.0
H1101 H 0.5219 0.65653 0.03467 0.0
H1102 H 0.52383 0.68333 0.0354 0.0
H1103 H 0.54596 0.66837 0.03699 0.0
C1104 C 0.52949 0.73748 0.98726 0.0
C1105 C 0.54195 0.73743 0.03291 0.0
C1106 C 0.53012 0.72175 0.95038 0.0
C1107 C 0.54329 0.70586 0.95855 0.0
C1108 C 0.5574 0.70703 1.00036 0.0
H1109 H 0.50543 0.58875 0.8402 0.0
H1110 H 0.52843 0.61427 0.87418 0.0
C1111 C 0.5566 0.72265 0.03777 0.0
C1112 C 0.53944 0.68691 0.92986 0.0
H1113 H 0.51781 0.64138 0.95074 0.0
C1114 C 0.53977 0.68678 0.87287 0.0
C1115 C 0.53211 0.67002 0.9584 0.0
C1116 C 0.53076 0.66948 0.01968 0.0
C1117 C 0.53188 0.67063 0.8436 0.0
C1118 C 0.52329 0.65444 0.87228 0.0
C1119 C 0.52436 0.6539 0.92905 0.0
C1120 C 0.51096 0.6391 0.84531 0.0
C1121 C 0.53218 0.67132 0.7824 0.0
C1122 C 0.49345 0.64467 0.81834 0.0
C1123 C 0.48026 0.63016 0.79903 0.0
C1124 C 0.48434 0.60984 0.80665 0.0
C1125 C 0.502 0.60431 0.83327 0.0
C1126 C 0.51516 0.61883 0.85257 0.0
H1127 H 0.54473 0.6807 0.7672 0.0
H1128 H 0.53348 0.65613 0.7648 0.0
H1129 H 0.51809 0.67801 0.76775 0.0
H1130 H 0.48967 0.66027 0.81369 0.0
H1131 H 0.46689 0.63484 0.77817 0.0
H1132 H 0.78045 0.51465 0.95304 0.0
H1133 H 0.80449 0.51774 0.87913 0.0
H1134 H 0.8308 0.56923 0.95679 0.0
H1135 H 0.80702 0.56572 0.03229 0.0
H1136 H 0.81595 0.54549 0.80495 0.0
H1137 H 0.87715 0.53165 0.95313 0.0
H1138 H 0.85128 0.5295 0.9722 0.0
H1139 H 0.86259 0.55369 0.96356 0.0
C1140 C 0.79109 0.52687 0.95386 0.0
C1141 C 0.79206 0.53982 0.99855 0.0
C1142 C 0.80482 0.52865 0.91157 0.0
C1143 C 0.81968 0.54348 0.91294 0.0
C1144 C 0.81977 0.55738 0.9556 0.0
H1145 H 0.92526 0.51897 0.71203 0.0
H1146 H 0.90141 0.54106 0.75714 0.0
C1147 C 0.80619 0.5554 0.99852 0.0
C1148 C 0.83607 0.54264 0.87261 0.0
H1149 H 0.88476 0.52878 0.86138 0.0
C1150 C 0.83112 0.54231 0.81719 0.0
C1151 C 0.85592 0.53862 0.88861 0.0
C1152 C 0.86213 0.53823 0.94753 0.0
C1153 C 0.84506 0.53643 0.77788 0.0
C1154 C 0.86434 0.53085 0.79455 0.0
C1155 C 0.86988 0.53308 0.84903 0.0
C1156 C 0.8776 0.51917 0.75909 0.0
C1157 C 0.83879 0.53508 0.71924 0.0
C1158 C 0.872 0.49964 0.74524 0.0
C1159 C 0.88567 0.48684 0.72103 0.0
C1160 C 0.90521 0.49339 0.70991 0.0
C1161 C 0.91046 0.51334 0.72129 0.0
C1162 C 0.89681 0.52606 0.74629 0.0
H1163 H 0.82622 0.5453 0.71047 0.0
H1164 H 0.85143 0.53869 0.69161 0.0
H1165 H 0.83374 0.51962 0.71044 0.0
H1166 H 0.85735 0.49394 0.75594 0.0
H1167 H 0.88118 0.47156 0.71336 0.0
H1168 H 0.06948 0.22006 0.8509 0.0
H1169 H 0.06315 0.18844 0.80507 0.0
H1170 H 1.00131 0.191 0.85247 0.0
H1171 H 0.00736 0.22317 0.89696 0.0
H1172 H 0.05034 0.15364 0.85079 0.0
H1173 H 0.99681 0.17709 0.69208 0.0
H1174 H 0.01164 0.19474 0.73015 0.0
H1175 H 0.98966 0.18376 0.75998 0.0
C1176 C 0.05439 0.21424 0.85057 0.0
C1177 C 0.0389 0.22443 0.87734 0.0
C1178 C 0.05084 0.19597 0.82467 0.0
C1179 C 0.0317 0.18736 0.82453 0.0
C1180 C 0.01614 0.19747 0.85095 0.0
H1181 H 0.9869 0.07194 0.70978 0.0
H1182 H 0.99067 0.10527 0.74944 0.0
C1183 C 0.01968 0.2158 0.87696 0.0
C1184 C 0.02847 0.16733 0.79926 0.0
H1185 H 1.00209 0.14227 0.70156 0.0
C1186 C 0.03984 0.15121 0.81802 0.0
C1187 C 0.0147 0.16404 0.75658 0.0
C1188 C 1.00261 0.18083 0.73307 0.0
C1189 C 0.03773 0.13199 0.79578 0.0
C1190 C 0.0241 0.1287 0.75286 0.0
C1191 C 0.01257 0.14475 0.73436 0.0
C1192 C 0.02168 0.10871 0.72682 0.0
C1193 C 0.04988 0.11525 0.81918 0.0
C1194 C 0.03773 0.09963 0.69978 0.0
C1195 C 0.03557 0.08063 0.67668 0.0
C1196 C 0.01736 0.07017 0.68038 0.0
C1197 C 1.00116 0.07951 0.70625 0.0
C1198 C 1.0033 0.09858 0.72907 0.0
H1199 H 0.05574 0.11897 0.86013 0.0
H1200 H 0.04085 0.10136 0.82213 0.0
H1201 H 0.06279 0.11238 0.79206 0.0
H1202 H 0.05196 0.10727 0.69646 0.0
H1203 H 0.0482 0.07412 0.65592 0.0
H1204 H 0.29882 0.07059 0.83491 0.0
H1205 H 0.33007 0.06551 0.7864 0.0
H1206 H 0.33375 1.00598 0.85161 0.0
H1207 H 0.30187 0.01055 0.89823 0.0
H1208 H 0.36601 0.05926 0.82669 0.0
H1209 H 0.34657 0.99529 0.69465 0.0
H1210 H 0.32796 0.0094 0.73085 0.0
H1211 H 0.34185 0.99029 0.76512 0.0
C1212 C 0.30589 0.05617 0.83792 0.0
C1213 C 0.29751 0.04093 0.8704 0.0
C1214 C 0.32398 0.05337 0.81044 0.0
C1215 C 0.33429 0.03526 0.81452 0.0
C1216 C 0.32597 0.01995 0.84663 0.0
H1217 H 0.46116 0.01993 0.7641 0.0
H1218 H 0.42743 0.02439 0.79889 0.0
C1219 C 0.30778 0.0227 0.87397 0.0
C1220 C 0.35423 0.03295 0.7878 0.0
H1221 H 0.38127 1.00322 0.70226 0.0
C1222 C 0.36925 0.04705 0.79922 0.0
C1223 C 0.35853 0.01724 0.75116 0.0
C1224 C 0.34282 1.00231 0.73422 0.0
C1225 C 0.38844 0.04563 0.77632 0.0
C1226 C 0.39303 0.02937 0.74183 0.0
C1227 C 0.37789 0.01556 0.72914 0.0
C1228 C 0.41358 0.02625 0.71983 0.0
C1229 C 0.40356 0.06175 0.78888 0.0
C1230 C 0.41713 0.02509 0.66356 0.0
C1231 C 0.43656 0.02246 0.64334 0.0
C1232 C 0.45284 0.02093 0.67902 0.0
C1233 C 0.44911 0.0216 0.73528 0.0
C1234 C 0.42977 0.02416 0.75537 0.0
H1235 H 0.39622 0.07585 0.80121 0.0
H1236 H 0.41306 0.05682 0.82311 0.0
H1237 H 0.41333 0.06484 0.75334 0.0
H1238 H 0.40489 0.02647 0.63524 0.0
H1239 H 0.43885 0.02181 0.59982 0.0
H1240 H 0.51942 0.30799 0.90692 0.0
H1241 H 0.52456 0.33987 0.85959 0.0
H1242 H 0.46366 0.33822 0.80435 0.0
H1243 H 0.45826 0.30679 0.85231 0.0
H1244 H 0.51975 0.34991 0.74753 0.0
H1245 H 0.46818 0.39302 0.87834 0.0
H1246 H 0.4774 0.36876 0.8973 0.0
H1247 H 0.45733 0.3709 0.84944 0.0
C1248 C 0.5071 0.31443 0.88484 0.0
C1249 C 0.48842 0.3047 0.88355 0.0
C1250 C 0.51009 0.33263 0.8576 0.0
C1251 C 0.49441 0.34164 0.82904 0.0
C1252 C 0.47591 0.33178 0.82678 0.0
H1253 H 0.47669 0.45221 0.6505 0.0
H1254 H 0.47349 0.41966 0.69483 0.0
C1255 C 0.47293 0.3136 0.85374 0.0
C1256 C 0.49729 0.3613 0.80155 0.0
H1257 H 0.48014 0.40924 0.79895 0.0
C1258 C 0.51119 0.36292 0.75897 0.0
C1259 C 0.48609 0.3783 0.81633 0.0
C1260 C 0.47153 0.3778 0.86316 0.0
C1261 C 0.5138 0.38087 0.72991 0.0
C1262 C 0.50251 0.39786 0.7445 0.0
C1263 C 0.48873 0.39626 0.78743 0.0
C1264 C 0.5047 0.41746 0.71601 0.0
C1265 C 0.52823 0.38123 0.68281 0.0
C1266 C 0.52328 0.42725 0.71316 0.0
C1267 C 0.52513 0.44591 0.68787 0.0
C1268 C 0.50839 0.45537 0.66539 0.0
C1269 C 0.48984 0.44549 0.6679 0.0
C1270 C 0.488 0.42682 0.69316 0.0
H1271 H 0.53069 0.36604 0.66612 0.0
H1272 H 0.52282 0.39099 0.64972 0.0
H1273 H 0.54283 0.38711 0.69687 0.0
H1274 H 0.53633 0.42065 0.73144 0.0
H1275 H 0.53962 0.45312 0.68712 0.0
H1276 H 0.21481 0.45699 0.85678 0.0
H1277 H 0.18369 0.46259 0.80847 0.0
H1278 H 0.18772 0.52544 0.8438 0.0
H1279 H 0.21941 0.52009 0.89076 0.0
H1280 H 0.14897 0.47703 0.85033 0.0
H1281 H 0.17491 0.526 0.68225 0.0
H1282 H 0.1919 0.51192 0.72387 0.0
H1283 H 0.18141 0.53476 0.74884 0.0
C1284 C 0.20944 0.47212 0.85326 0.0
C1285 C 0.2199 0.48811 0.87741 0.0
C1286 C 0.19145 0.47526 0.82594 0.0
C1287 C 0.18338 0.49446 0.82175 0.0
C1288 C 0.19377 0.51052 0.84546 0.0
H1289 H 0.07023 0.53817 0.69441 0.0
H1290 H 0.10351 0.53492 0.7339 0.0
C1291 C 0.21183 0.50739 0.87288 0.0
C1292 C 0.1636 0.49732 0.7951 0.0
H1293 H 0.13993 0.52148 0.69133 0.0
C1294 C 0.14705 0.4867 0.81544 0.0
C1295 C 0.16098 0.51 0.74963 0.0
C1296 C 0.17825 0.5212 0.72444 0.0
C1297 C 0.12802 0.48852 0.7921 0.0
C1298 C 0.12542 0.50106 0.7464 0.0
C1299 C 0.14191 0.51184 0.72626 0.0
C1300 C 0.10567 0.50319 0.7193 0.0
C1301 C 0.11077 0.47725 0.81726 0.0
C1302 C 0.09599 0.48657 0.69631 0.0
C1303 C 0.07701 0.48842 0.67329 0.0
C1304 C 0.06721 0.5069 0.67298 0.0
C1305 C 0.07725 0.52367 0.6942 0.0
C1306 C 0.09629 0.52184 0.71693 0.0
H1307 H 0.11399 0.47272 0.85974 0.0
H1308 H 0.097 0.48634 0.81708 0.0
H1309 H 0.1079 0.46351 0.79334 0.0
H1310 H 0.1031 0.47212 0.69633 0.0
H1311 H 0.07002 0.47534 0.65582 0.0
H1312 H 0.02487 0.81727 0.331 0.0
H1313 H 0.02374 0.84886 0.38014 0.0
H1314 H 0.97491 0.82669 0.47748 0.0
H1315 H 0.97597 0.79473 0.42821 0.0
H1316 H 0.98835 0.8753 0.39151 0.0
H1317 H 0.0193 0.84806 0.58745 0.0
H1318 H 0.02323 0.83495 0.52427 0.0
H1319 H 0.99931 0.83398 0.55685 0.0
C1320 C 0.01403 0.81893 0.36334 0.0
C1321 C 1.00069 0.80327 0.37611 0.0
C1322 C 0.01331 0.83711 0.39112 0.0
C1323 C 0.99937 0.84014 0.4328 0.0
C1324 C 0.98593 0.82464 0.44575 0.0
H1325 H 0.97465 0.95698 0.57923 0.0
H1326 H 0.97124 0.92377 0.53935 0.0
C1327 C 0.9865 0.80641 0.41745 0.0
C1328 C 0.999 0.85965 0.46186 0.0
H1329 H 0.0118 0.88227 0.58151 0.0
C1330 C 0.99328 0.87681 0.43322 0.0
C1331 C 1.00565 0.86164 0.51609 0.0
C1332 C 0.01235 0.84376 0.54822 0.0
C1333 C 0.99414 0.89587 0.45719 0.0
C1334 C 1.00092 0.89788 0.51135 0.0
C1335 C 0.00655 0.88072 0.5401 0.0
C1336 C 1.00288 0.91779 0.53796 0.0
C1337 C 0.98834 0.91383 0.4239 0.0
C1338 C 0.02177 0.92537 0.55191 0.0
C1339 C 0.02381 0.94455 0.57409 0.0
C1340 C 0.00696 0.95655 0.58308 0.0
C1341 C 0.98801 0.94852 0.57122 0.0
C1342 C 0.986 0.92943 0.54867 0.0
H1343 H 0.98712 0.91023 0.37998 0.0
H1344 H 0.97365 0.91934 0.43803 0.0
H1345 H 0.99937 0.9261 0.42905 0.0
H1346 H 0.03501 0.91662 0.54434 0.0
H1347 H 0.03864 0.95013 0.58294 0.0
H1348 H 0.72579 0.97011 0.41874 0.0
H1349 H 0.6928 0.9696 0.4622 0.0
H1350 H 0.68101 0.02827 0.39874 0.0
H1351 H 0.71371 0.02892 0.35556 0.0
H1352 H 0.66958 0.02555 0.50339 0.0
H1353 H 0.63944 0.96076 0.38916 0.0
H1354 H 0.6619 0.95568 0.426 0.0
H1355 H 0.66244 0.97309 0.37044 0.0
C1356 C 0.71616 0.98289 0.41393 0.0
C1357 C 0.72262 0.99961 0.38378 0.0
C1358 C 0.69722 0.98254 0.43867 0.0
C1359 C 0.68418 0.9988 0.43328 0.0
C1360 C 0.69071 0.01554 0.40377 0.0
H1361 H 0.55581 1.00479 0.47864 0.0
H1362 H 0.59003 1.00203 0.44479 0.0
C1363 C 0.70958 0.01593 0.3793 0.0
C1364 C 0.66377 0.99866 0.45824 0.0
H1365 H 0.61877 0.97422 0.45777 0.0
C1366 C 0.65851 0.01426 0.49353 0.0
C1367 C 0.64913 0.98413 0.44493 0.0
C1368 C 0.65338 0.96756 0.40519 0.0
C1369 C 0.63916 0.0158 0.51555 0.0
C1370 C 0.62462 1.00107 0.50303 0.0
C1371 C 0.62989 0.98543 0.46785 0.0
C1372 C 0.6037 1.00206 0.5243 0.0
C1373 C 0.63433 0.03362 0.55055 0.0
C1374 C 0.59977 1.00265 0.58041 0.0
C1375 C 0.58017 1.00432 0.59991 0.0
C1376 C 0.56395 1.00514 0.5638 0.0
C1377 C 0.56788 1.00406 0.50769 0.0
C1378 C 0.58749 1.00251 0.48823 0.0
H1379 H 0.64511 0.04605 0.544 0.0
H1380 H 0.61908 0.03917 0.5422 0.0
H1381 H 0.6351 0.02923 0.59394 0.0
H1382 H 0.61188 1.00184 0.60928 0.0
H1383 H 0.57772 1.00496 0.64337 0.0
H1384 H 0.49824 0.71772 0.36704 0.0
H1385 H 0.4995 0.68474 0.4081 0.0
H1386 H 0.56073 0.69491 0.45349 0.0
H1387 H 0.55943 0.72849 0.41377 0.0
H1388 H 0.52411 0.65356 0.37892 0.0
H1389 H 0.53605 0.67402 0.59528 0.0
H1390 H 0.52792 0.69187 0.54523 0.0
H1391 H 0.55358 0.68448 0.54766 0.0
C1392 C 0.51189 0.71327 0.38689 0.0
C1393 C 0.52865 0.72608 0.38763 0.0
C1394 C 0.51263 0.69422 0.4099 0.0
C1395 C 0.53012 0.68731 0.43451 0.0
C1396 C 0.54693 0.69997 0.4356 0.0
H1397 H 0.5516 0.56985 0.58426 0.0
H1398 H 0.55612 0.60357 0.54727 0.0
C1399 C 0.54622 0.71914 0.41241 0.0
C1400 C 0.53068 0.66658 0.45683 0.0
H1401 H 0.53524 0.63966 0.57431 0.0
C1402 C 0.52661 0.65055 0.42164 0.0
C1403 C 0.53407 0.66254 0.51253 0.0
C1404 C 0.53801 0.6791 0.55262 0.0
C1405 C 0.52561 0.63076 0.44058 0.0
C1406 C 0.52838 0.6268 0.49649 0.0
C1407 C 0.53302 0.6427 0.53151 0.0
C1408 C 0.5257 0.60634 0.51945 0.0
C1409 C 0.52169 0.61419 0.40046 0.0
C1410 C 0.50705 0.59672 0.51681 0.0
C1411 C 0.50445 0.57744 0.53772 0.0
C1412 C 0.52046 0.56729 0.56175 0.0
C1413 C 0.53904 0.57709 0.56525 0.0
C1414 C 0.54162 0.59643 0.54442 0.0
H1415 H 0.52517 0.61889 0.35819 0.0
H1416 H 0.53064 0.60079 0.41034 0.0
H1417 H 0.50569 0.60992 0.40227 0.0
H1418 H 0.49445 0.60416 0.49857 0.0
H1419 H 0.48993 0.57038 0.53436 0.0
H1420 H 0.80033 0.55983 0.39283 0.0
H1421 H 0.83184 0.56058 0.44327 0.0
H1422 H 0.83982 0.49792 0.41199 0.0
H1423 H 0.80885 0.49705 0.36086 0.0
H1424 H 0.84663 0.50915 0.52182 0.0
H1425 H 0.88871 0.55755 0.37728 0.0
H1426 H 0.86525 0.56691 0.40157 0.0
H1427 H 0.86567 0.54523 0.35887 0.0
C1428 C 0.80881 0.54622 0.3964 0.0
C1429 C 0.80178 0.52835 0.3728 0.0
C1430 C 0.82687 0.54669 0.42528 0.0
C1431 C 0.83835 0.52933 0.43106 0.0
C1432 C 0.83125 0.51149 0.40827 0.0
H1433 H 0.95015 0.48702 0.55778 0.0
H1434 H 0.91643 0.49135 0.52227 0.0
C1435 C 0.81334 0.51102 0.37934 0.0
C1436 C 0.85771 0.52943 0.46089 0.0
H1437 H 0.90597 0.54627 0.45448 0.0
C1438 C 0.85957 0.51735 0.50719 0.0
C1439 C 0.87461 0.54023 0.44215 0.0
C1440 C 0.87364 0.55313 0.39205 0.0
C1441 C 0.87782 0.51558 0.53473 0.0
C1442 C 0.89491 0.52577 0.5149 0.0
C1443 C 0.89294 0.53834 0.46956 0.0
C1444 C 0.91508 0.52298 0.53937 0.0
C1445 C 0.87863 0.50298 0.58528 0.0
C1446 C 0.92564 0.53926 0.56116 0.0
C1447 C 0.9449 0.53676 0.58205 0.0
C1448 C 0.95429 0.51805 0.58035 0.0
C1449 C 0.9435 0.50168 0.55955 0.0
C1450 C 0.92415 0.50413 0.53927 0.0
H1451 H 0.86362 0.5008 0.60365 0.0
H1452 H 0.88464 0.48811 0.57477 0.0
H1453 H 0.88855 0.50998 0.61582 0.0
H1454 H 0.91897 0.55392 0.56206 0.0
H1455 H 0.95247 0.54954 0.59936 0.0
loop_
_geom_bond_atom_site_label_1
_geom_bond_atom_site_label_2
_geom_bond_distance
_geom_bond_site_symmetry_2
_ccdc_geom_bond_type
P0 O11 1.490 . S
P0 C14 1.812 . S
P0 C20 1.803 . S
P0 C26 1.819 . S
H1 C15 0.941 . S
H2 C16 0.939 . S
H3 C18 0.940 . S
H4 C19 0.940 . S
H5 C21 0.939 . S
H6 C22 0.942 . S
H7 C24 0.940 . S
H8 C25 0.939 . S
H9 C27 0.941 . S
H10 C31 0.939 . S
O11 P0 1.490 . S
H12 C28 0.939 . S
H13 C30 0.940 . S
C14 P0 1.812 . S
C14 C15 1.389 . S
C14 C19 1.391 . S
C15 H1 0.941 . S
C15 C14 1.389 . S
C15 C16 1.397 . S
C16 H2 0.939 . S
C16 C15 1.397 . S
C16 C17 1.378 . S
C17 C16 1.378 . S
C17 C18 1.378 . S
C18 H3 0.940 . S
C18 C17 1.378 . S
C18 C19 1.396 . S
C19 H4 0.940 . S
C19 C14 1.391 . S
C19 C18 1.396 . S
C20 P0 1.803 . S
C20 C21 1.378 . S
C20 C25 1.400 . S
C21 H5 0.939 . S
C21 C20 1.378 . S
C21 C22 1.361 . S
C22 H6 0.942 . S
C22 C21 1.361 . S
C22 C23 1.369 . S
C23 C22 1.369 . S
C23 C24 1.404 . S
C24 H7 0.940 . S
C24 C23 1.404 . S
C24 C25 1.389 . S
C25 H8 0.939 . S
C25 C20 1.400 . S
C25 C24 1.389 . S
C26 P0 1.819 . S
C26 C27 1.391 . S
C26 C31 1.391 . S
C27 H9 0.941 . S
C27 C26 1.391 . S
C27 C28 1.396 . S
C28 H12 0.939 . S
C28 C27 1.396 . S
C28 C29 1.397 . S
C29 C28 1.397 . S
C29 C30 1.385 . S
C30 H13 0.940 . S
C30 C29 1.385 . S
C30 C31 1.388 . S
C31 H10 0.939 . S
C31 C26 1.391 . S
C31 C30 1.388 . S
P32 O43 1.490 1_655 S
P32 C46 1.812 . S
P32 C52 1.803 . S
P32 C58 1.819 . S
H33 C47 0.941 1_455 S
H34 C48 0.939 . S
H35 C50 0.940 . S
H36 C51 0.940 . S
H37 C53 0.939 1_455 S
H38 C54 0.942 . S
H39 C56 0.940 . S
H40 C57 0.939 . S
H41 C59 0.941 1_455 S
H42 C63 0.939 . S
O43 P32 1.490 1_455 S
H44 C60 0.939 . S
H45 C62 0.940 . S
C46 P32 1.812 . S
C46 C47 1.389 . S
C46 C51 1.391 . S
C47 H33 0.941 1_655 S
C47 C46 1.389 . S
C47 C48 1.397 . S
C48 H34 0.939 . S
C48 C47 1.397 . S
C48 C49 1.378 . S
C49 C48 1.378 . S
C49 C50 1.378 . S
C50 H35 0.940 . S
C50 C49 1.378 . S
C50 C51 1.396 . S
C51 H36 0.940 . S
C51 C46 1.391 . S
C51 C50 1.396 . S
C52 P32 1.803 . S
C52 C53 1.378 . S
C52 C57 1.400 . S
C53 H37 0.939 1_655 S
C53 C52 1.378 . S
C53 C54 1.361 . S
C54 H38 0.942 . S
C54 C53 1.361 . S
C54 C55 1.369 . S
C55 C54 1.369 . S
C55 C56 1.404 . S
C56 H39 0.940 . S
C56 C55 1.404 . S
C56 C57 1.389 . S
C57 H40 0.939 . S
C57 C52 1.400 . S
C57 C56 1.389 . S
C58 P32 1.819 . S
C58 C59 1.391 . S
C58 C63 1.391 . S
C59 H41 0.941 1_655 S
C59 C58 1.391 . S
C59 C60 1.396 . S
C60 H44 0.939 . S
C60 C59 1.396 . S
C60 C61 1.397 . S
C61 C60 1.397 . S
C61 C62 1.385 . S
C62 H45 0.940 . S
C62 C61 1.385 . S
C62 C63 1.388 . S
C63 H42 0.939 . S
C63 C58 1.391 . S
C63 C62 1.388 . S
P64 O75 1.490 1_565 S
P64 C78 1.812 . S
P64 C84 1.803 . S
P64 C90 1.819 . S
H65 C79 0.941 1_545 S
H66 C80 0.939 . S
H67 C82 0.940 . S
H68 C83 0.940 . S
H69 C85 0.939 1_545 S
H70 C86 0.942 . S
H71 C88 0.940 . S
H72 C89 0.939 . S
H73 C91 0.910 1_545 S
H74 C95 0.939 . S
O75 P64 1.490 1_545 S
H76 C92 0.939 . S
H77 C94 0.940 . S
C78 P64 1.812 . S
C78 C79 1.389 . S
C78 C83 1.391 . S
C79 H65 0.941 1_565 S
C79 C78 1.389 . S
C79 C80 1.397 . S
C80 H66 0.939 . S
C80 C79 1.397 . S
C80 C81 1.378 . S
C81 C80 1.378 . S
C81 C82 1.378 . S
C82 H67 0.940 . S
C82 C81 1.378 . S
C82 C83 1.396 . S
C83 H68 0.940 . S
C83 C78 1.391 . S
C83 C82 1.396 . S
C84 P64 1.803 . S
C84 C85 1.378 . S
C84 C89 1.400 . S
C85 H69 0.939 1_565 S
C85 C84 1.378 . S
C85 C86 1.361 . S
C86 H70 0.942 . S
C86 C85 1.361 . S
C86 C87 1.369 . S
C87 C86 1.369 . S
C87 C88 1.404 . S
C88 H71 0.940 . S
C88 C87 1.404 . S
C88 C89 1.389 . S
C89 H72 0.939 . S
C89 C84 1.400 . S
C89 C88 1.389 . S
C90 P64 1.819 . S
C90 C91 1.391 . S
C90 C95 1.391 . S
C91 H73 0.910 1_565 S
C91 C90 1.391 . S
C91 C92 1.396 . S
C92 H76 0.939 . S
C92 C91 1.396 . S
C92 C93 1.397 . S
C93 C92 1.397 . S
C93 C94 1.385 . S
C94 H77 0.940 . S
C94 C93 1.385 . S
C94 C95 1.388 . S
C95 H74 0.939 . S
C95 C90 1.391 . S
C95 C94 1.388 . S
P96 O107 1.490 . S
P96 C110 1.812 . S
P96 C116 1.803 . S
P96 C122 1.819 . S
H97 C111 0.941 . S
H98 C112 0.939 . S
H99 C114 0.940 . S
H100 C115 0.940 . S
H101 C117 0.939 . S
H102 C118 0.942 . S
H103 C120 0.940 . S
H104 C121 0.939 . S
H105 C123 0.941 . S
H106 C127 0.939 . S
O107 P96 1.490 . S
H108 C124 0.939 . S
H109 C126 0.940 . S
C110 P96 1.812 . S
C110 C111 1.389 . S
C110 C115 1.391 . S
C111 H97 0.941 . S
C111 C110 1.389 . S
C111 C112 1.397 . S
C112 H98 0.939 . S
C112 C111 1.397 . S
C112 C113 1.378 . S
C113 C112 1.378 . S
C113 C114 1.378 . S
C114 H99 0.940 . S
C114 C113 1.378 . S
C114 C115 1.396 . S
C115 H100 0.940 . S
C115 C110 1.391 . S
C115 C114 1.396 . S
C116 P96 1.803 . S
C116 C117 1.378 . S
C116 C121 1.400 . S
C117 H101 0.939 . S
C117 C116 1.378 . S
C117 C118 1.361 . S
C118 H102 0.942 . S
C118 C117 1.361 . S
C118 C119 1.369 . S
C119 C118 1.369 . S
C119 C120 1.404 . S
C120 H103 0.940 . S
C120 C119 1.404 . S
C120 C121 1.389 . S
C121 H104 0.939 . S
C121 C116 1.400 . S
C121 C120 1.389 . S
C122 P96 1.819 . S
C122 C123 1.391 . S
C122 C127 1.391 . S
C123 H105 0.941 . S
C123 C122 1.391 . S
C123 C124 1.396 . S
C124 H108 0.939 . S
C124 C123 1.396 . S
C124 C125 1.397 . S
C125 C124 1.397 . S
C125 C126 1.385 . S
C126 H109 0.940 . S
C126 C125 1.385 . S
C126 C127 1.388 . S
C127 H106 0.939 . S
C127 C122 1.391 . S
C127 C126 1.388 . S
P128 O139 1.490 . S
P128 C142 1.812 1_554 S
P128 C148 1.803 . S
P128 C154 1.819 . S
H129 C143 0.941 . S
H130 C144 0.939 . S
H131 C146 0.940 . S
H132 C147 0.940 . S
H133 C149 0.939 . S
H134 C150 0.942 . S
H135 C152 0.940 . S
H136 C153 0.939 . S
H137 C155 0.941 . S
H138 C159 0.939 . S
O139 P128 1.490 . S
H140 C156 0.939 . S
H141 C158 0.940 . S
C142 P128 1.812 1_556 S
C142 C143 1.389 . S
C142 C147 1.391 . S
C143 H129 0.941 . S
C143 C142 1.389 . S
C143 C144 1.397 . S
C144 H130 0.939 . S
C144 C143 1.397 . S
C144 C145 1.378 . S
C145 C144 1.378 . S
C145 C146 1.378 . S
C146 H131 0.940 . S
C146 C145 1.378 . S
C146 C147 1.396 . S
C147 H132 0.940 . S
C147 C142 1.391 . S
C147 C146 1.396 . S
C148 P128 1.803 . S
C148 C149 1.378 . S
C148 C153 1.400 . S
C149 H133 0.939 . S
C149 C148 1.378 . S
C149 C150 1.361 . S
C150 H134 0.942 . S
C150 C149 1.361 . S
C150 C151 1.369 . S
C151 C150 1.369 . S
C151 C152 1.404 . S
C152 H135 0.940 . S
C152 C151 1.404 . S
C152 C153 1.389 . S
C153 H136 0.939 . S
C153 C148 1.400 . S
C153 C152 1.389 . S
C154 P128 1.819 . S
C154 C155 1.391 . S
C154 C159 1.391 . S
C155 H137 0.941 . S
C155 C154 1.391 . S
C155 C156 1.396 . S
C156 H140 0.939 . S
C156 C155 1.396 . S
C156 C157 1.397 . S
C157 C156 1.397 . S
C157 C158 1.385 . S
C158 H141 0.940 . S
C158 C157 1.385 . S
C158 C159 1.388 . S
C159 H138 0.939 . S
C159 C154 1.391 . S
C159 C158 1.388 . S
P160 O171 1.490 . S
P160 C174 1.812 1_554 S
P160 C180 1.803 . S
P160 C186 1.819 . S
H161 C175 0.941 . S
H162 C176 0.939 . S
H163 C178 0.940 . S
H164 C179 0.945 . S
H165 C181 0.939 . S
H166 C182 0.942 . S
H167 C184 0.940 . S
H168 C185 0.939 . S
H169 C187 0.941 . S
H170 C191 0.939 . S
O171 P160 1.490 . S
H172 C188 0.939 . S
H173 C190 0.940 . S
C174 P160 1.812 1_556 S
C174 C175 1.389 . S
C174 C179 1.391 . S
C175 H161 0.941 . S
C175 C174 1.389 . S
C175 C176 1.397 . S
C176 H162 0.939 . S
C176 C175 1.397 . S
C176 C177 1.378 . S
C177 C176 1.378 . S
C177 C178 1.378 . S
C178 H163 0.940 . S
C178 C177 1.378 . S
C178 C179 1.396 . S
C179 H164 0.945 . S
C179 C174 1.391 . S
C179 C178 1.396 . S
C180 P160 1.803 . S
C180 C181 1.378 . S
C180 C185 1.400 . S
C181 H165 0.939 . S
C181 C180 1.378 . S
C181 C182 1.361 . S
C182 H166 0.942 . S
C182 C181 1.361 . S
C182 C183 1.369 . S
C183 C182 1.369 . S
C183 C184 1.404 . S
C184 H167 0.940 . S
C184 C183 1.404 . S
C184 C185 1.389 . S
C185 H168 0.939 . S
C185 C180 1.400 . S
C185 C184 1.389 . S
C186 P160 1.819 . S
C186 C187 1.391 . S
C186 C191 1.391 . S
C187 H169 0.941 . S
C187 C186 1.391 . S
C187 C188 1.396 . S
C188 H172 0.939 . S
C188 C187 1.396 . S
C188 C189 1.397 . S
C189 C188 1.397 . S
C189 C190 1.385 . S
C190 H173 0.940 . S
C190 C189 1.385 . S
C190 C191 1.388 . S
C191 H170 0.939 . S
C191 C186 1.391 . S
C191 C190 1.388 . S
P192 O203 1.490 . S
P192 C206 1.812 1_554 S
P192 C212 1.803 . S
P192 C218 1.819 . S
H193 C207 0.941 . S
H194 C208 0.939 . S
H195 C210 0.940 . S
H196 C211 0.940 . S
H197 C213 0.939 . S
H198 C214 0.942 . S
H199 C216 0.940 . S
H200 C217 0.939 . S
H201 C219 0.941 . S
H202 C223 0.939 . S
O203 P192 1.490 . S
H204 C220 0.939 . S
H205 C222 0.940 . S
C206 P192 1.812 1_556 S
C206 C207 1.389 . S
C206 C211 1.391 . S
C207 H193 0.941 . S
C207 C206 1.389 . S
C207 C208 1.397 . S
C208 H194 0.939 . S
C208 C207 1.397 . S
C208 C209 1.378 . S
C209 C208 1.378 . S
C209 C210 1.378 . S
C210 H195 0.940 . S
C210 C209 1.378 . S
C210 C211 1.396 . S
C211 H196 0.940 . S
C211 C206 1.391 . S
C211 C210 1.396 . S
C212 P192 1.803 . S
C212 C213 1.378 . S
C212 C217 1.400 . S
C213 H197 0.939 . S
C213 C212 1.378 . S
C213 C214 1.361 . S
C214 H198 0.942 . S
C214 C213 1.361 . S
C214 C215 1.369 . S
C215 C214 1.369 . S
C215 C216 1.404 . S
C216 H199 0.940 . S
C216 C215 1.404 . S
C216 C217 1.389 . S
C217 H200 0.939 . S
C217 C212 1.400 . S
C217 C216 1.389 . S
C218 P192 1.819 . S
C218 C219 1.391 . S
C218 C223 1.391 . S
C219 H201 0.941 . S
C219 C218 1.391 . S
C219 C220 1.396 . S
C220 H204 0.939 . S
C220 C219 1.396 . S
C220 C221 1.397 . S
C221 C220 1.397 . S
C221 C222 1.385 . S
C222 H205 0.940 . S
C222 C221 1.385 . S
C222 C223 1.388 . S
C223 H202 0.939 . S
C223 C218 1.391 . S
C223 C222 1.388 . S
P224 O235 1.490 . S
P224 C238 1.812 1_554 S
P224 C244 1.803 . S
P224 C250 1.819 . S
H225 C239 0.941 . S
H226 C240 0.939 . S
H227 C242 0.940 . S
H228 C243 0.940 . S
H229 C245 0.939 . S
H230 C246 0.942 . S
H231 C248 0.940 . S
H232 C249 0.939 . S
H233 C251 0.941 . S
H234 C255 0.939 . S
O235 P224 1.490 . S
H236 C252 0.939 . S
H237 C254 0.940 . S
C238 P224 1.812 1_556 S
C238 C239 1.389 . S
C238 C243 1.391 . S
C239 H225 0.941 . S
C239 C238 1.389 . S
C239 C240 1.397 . S
C240 H226 0.939 . S
C240 C239 1.397 . S
C240 C241 1.378 . S
C241 C240 1.378 . S
C241 C242 1.378 . S
C242 H227 0.940 . S
C242 C241 1.378 . S
C242 C243 1.396 . S
C243 H228 0.940 . S
C243 C238 1.391 . S
C243 C242 1.396 . S
C244 P224 1.803 . S
C244 C245 1.378 . S
C244 C249 1.400 . S
C245 H229 0.939 . S
C245 C244 1.378 . S
C245 C246 1.361 . S
C246 H230 0.942 . S
C246 C245 1.361 . S
C246 C247 1.369 . S
C247 C246 1.369 . S
C247 C248 1.404 . S
C248 H231 0.940 . S
C248 C247 1.404 . S
C248 C249 1.389 . S
C249 H232 0.939 . S
C249 C244 1.400 . S
C249 C248 1.389 . S
C250 P224 1.819 . S
C250 C251 1.391 . S
C250 C255 1.391 . S
C251 H233 0.941 . S
C251 C250 1.391 . S
C251 C252 1.396 . S
C252 H236 0.939 . S
C252 C251 1.396 . S
C252 C253 1.397 . S
C253 C252 1.397 . S
C253 C254 1.385 . S
C254 H237 0.940 . S
C254 C253 1.385 . S
C254 C255 1.388 . S
C255 H234 0.939 . S
C255 C250 1.391 . S
C255 C254 1.388 . S
Tb256 N285 2.617 . S
Tb256 N291 2.572 . S
Tb256 O300 2.465 1_655 S
Tb256 O301 2.387 1_545 S
Tb256 O303 2.428 . S
Tb256 O304 2.308 1_655 S
Tb256 O308 2.349 1_655 S
Tb256 O311 2.393 . S
Tb256 C320 2.802 . S
C257 N258 1.379 1_545 S
C257 C260 1.416 . S
C257 C264 1.424 . S
N258 C257 1.379 1_565 S
N258 C261 1.334 . S
N258 Tb267 2.617 . S
C259 C261 1.390 1_545 S
C259 C262 1.339 . S
C259 H279 0.930 . S
C260 C257 1.416 . S
C260 C262 1.416 . S
C260 C266 1.448 . S
C261 N258 1.334 . S
C261 C259 1.390 1_565 S
C261 H272 0.930 . S
C262 C259 1.339 . S
C262 C260 1.416 . S
C262 H283 0.930 . S
C263 C264 1.413 . S
C263 C265 1.427 . S
C263 C269 1.416 . S
C264 C257 1.424 . S
C264 C263 1.413 . S
C264 N268 1.361 . S
C265 C263 1.427 . S
C265 C266 1.328 . S
C265 H280 0.929 . S
C266 C260 1.448 . S
C266 C265 1.328 . S
C266 H281 0.930 . S
Tb267 N258 2.617 . S
Tb267 N268 2.572 1_565 S
Tb267 O302 2.349 . S
Tb267 O305 2.393 . S
Tb267 O306 2.465 . S
Tb267 O307 2.387 1_565 S
Tb267 O309 2.428 . S
Tb267 O310 2.302 1_465 S
Tb267 C331 2.802 . S
N268 C264 1.361 . S
N268 Tb267 2.572 1_545 S
N268 C270 1.340 . S
C269 C263 1.416 . S
C269 C271 1.332 . S
C269 H277 0.931 . S
C270 N268 1.340 . S
C270 C271 1.407 . S
C270 H276 0.870 1_445 S
C271 C269 1.332 . S
C271 C270 1.407 . S
C271 H273 0.961 . S
H272 C261 0.930 . S
H273 C271 0.961 . S
H274 C289 0.930 . S
H275 C296 0.929 1_455 S
H276 C270 0.870 1_665 S
H277 C269 0.931 . S
H278 C292 0.920 1_455 S
H279 C259 0.930 . S
H280 C265 0.929 . S
H281 C266 0.930 . S
H282 C287 0.930 . S
H283 C262 0.930 . S
H284 C295 0.931 . S
N285 Tb256 2.617 . S
N285 C286 1.379 . S
N285 C289 1.334 . S
C286 N285 1.379 . S
C286 C288 1.416 1_545 S
C286 C294 1.424 . S
C287 H282 0.930 . S
C287 C289 1.390 . S
C287 C290 1.318 1_545 S
C288 C286 1.416 1_565 S
C288 C290 1.421 . S
C288 C321 1.448 . S
C289 H274 0.930 . S
C289 N285 1.334 . S
C289 C287 1.390 . S
C290 C287 1.318 1_565 S
C290 C288 1.421 . S
C290 H297 0.949 . S
N291 Tb256 2.572 . S
N291 C292 1.349 . S
N291 C294 1.361 . S
C292 H278 0.920 1_655 S
C292 N291 1.349 . S
C292 C296 1.408 1_545 S
C293 C294 1.413 1_565 S
C293 C295 1.416 . S
C293 C322 1.427 . S
C294 C286 1.424 . S
C294 N291 1.361 . S
C294 C293 1.413 1_545 S
C295 H284 0.931 . S
C295 C293 1.416 . S
C295 C296 1.332 . S
C296 H275 0.929 1_655 S
C296 C292 1.408 1_565 S
C296 C295 1.332 . S
H297 C290 0.949 . S
H298 C321 0.930 . S
H299 C322 0.929 . S
O300 Tb256 2.465 1_455 S
O300 C320 1.263 1_455 S
O301 Tb256 2.387 1_565 S
O301 C312 1.264 . S
O302 Tb267 2.349 . S
O302 C312 1.243 1_455 S
O303 Tb256 2.428 . S
O303 C320 1.256 . S
O304 Tb256 2.308 1_455 S
O304 C319 1.266 . S
O305 Tb267 2.393 . S
O305 C319 1.248 1_565 S
O306 Tb267 2.465 . S
O306 C331 1.264 . S
O307 Tb267 2.387 1_545 S
O307 C323 1.264 . S
O308 Tb256 2.349 1_455 S
O308 C323 1.243 . S
O309 Tb267 2.428 . S
O309 C331 1.256 . S
O310 Tb267 2.302 1_645 S
O310 C330 1.271 . S
O311 Tb256 2.393 . S
O311 C330 1.248 . S
C312 O301 1.264 . S
C312 O302 1.243 1_655 S
C313 C316 1.399 . S
C313 C318 1.383 . S
C313 C320 1.496 . S
C314 C315 1.399 . S
C314 C318 1.389 . S
C315 C314 1.399 . S
C315 C317 1.380 . S
C315 H332 0.929 . S
C316 C313 1.399 . S
C316 C317 1.392 . S
C316 H333 0.929 . S
C317 C315 1.380 . S
C317 C316 1.392 . S
C317 H334 0.929 . S
C318 C313 1.383 . S
C318 C314 1.389 . S
C318 H335 0.931 1_655 S
C319 O304 1.266 . S
C319 O305 1.248 1_545 S
C320 Tb256 2.802 . S
C320 O300 1.263 1_655 S
C320 O303 1.256 . S
C320 C313 1.496 . S
C321 C288 1.448 . S
C321 H298 0.930 . S
C321 C322 1.328 . S
C322 C293 1.427 . S
C322 H299 0.929 . S
C322 C321 1.328 . S
C323 O307 1.264 . S
C323 O308 1.243 . S
C324 C327 1.399 . S
C324 C328 1.383 . S
C324 C331 1.496 . S
C325 C326 1.399 . S
C325 C328 1.389 . S
C326 C325 1.399 . S
C326 C329 1.380 . S
C326 H336 0.929 . S
C327 C324 1.399 . S
C327 C329 1.392 . S
C327 H337 0.929 . S
C328 C324 1.383 . S
C328 C325 1.389 . S
C328 H338 0.958 . S
C329 C326 1.380 . S
C329 C327 1.392 . S
C329 H339 0.929 . S
C330 O310 1.271 . S
C330 O311 1.248 . S
C331 Tb267 2.802 . S
C331 O306 1.264 . S
C331 O309 1.256 . S
C331 C324 1.496 . S
H332 C315 0.929 . S
H333 C316 0.929 . S
H334 C317 0.929 . S
H335 C318 0.931 1_455 S
H336 C326 0.929 . S
H337 C327 0.929 . S
H338 C328 0.958 . S
H339 C329 0.929 . S
Tb340 N369 2.617 . S
Tb340 N375 2.572 . S
Tb340 O384 2.465 . S
Tb340 O385 2.387 . S
Tb340 O387 2.428 . S
Tb340 O388 2.308 . S
Tb340 O392 2.349 1_545 S
Tb340 O395 2.393 . S
Tb340 C404 2.802 . S
C341 N342 1.379 . S
C341 C344 1.416 . S
C341 C348 1.424 . S
N342 C341 1.379 . S
N342 C345 1.334 . S
N342 Tb351 2.617 . S
C343 C345 1.390 . S
C343 C346 1.339 . S
C343 H363 0.930 . S
C344 C341 1.416 . S
C344 C346 1.416 . S
C344 C350 1.448 . S
C345 N342 1.334 . S
C345 C343 1.390 . S
C345 H356 0.930 . S
C346 C343 1.339 . S
C346 C344 1.416 . S
C346 H367 0.930 . S
C347 C348 1.413 . S
C347 C349 1.427 . S
C347 C353 1.416 . S
C348 C341 1.424 . S
C348 C347 1.413 . S
C348 N352 1.361 . S
C349 C347 1.427 . S
C349 C350 1.328 . S
C349 H364 0.929 . S
C350 C344 1.448 . S
C350 C349 1.328 . S
C350 H365 0.930 . S
Tb351 N342 2.617 . S
Tb351 N352 2.572 . S
Tb351 O386 2.349 1_565 S
Tb351 O389 2.393 . S
Tb351 O390 2.465 . S
Tb351 O391 2.387 . S
Tb351 O393 2.428 . S
Tb351 O394 2.308 1_565 S
Tb351 C415 2.802 . S
N352 C348 1.361 . S
N352 Tb351 2.572 . S
N352 C354 1.340 . S
C353 C347 1.416 . S
C353 C355 1.332 . S
C353 H361 0.931 . S
C354 N352 1.340 . S
C354 C355 1.407 . S
C354 H360 0.930 . S
C355 C353 1.332 . S
C355 C354 1.407 . S
C355 H357 0.929 . S
H356 C345 0.930 . S
H357 C355 0.929 . S
H358 C373 0.930 . S
H359 C380 0.929 . S
H360 C354 0.930 . S
H361 C353 0.931 . S
H362 C376 0.930 . S
H363 C343 0.930 . S
H364 C349 0.929 . S
H365 C350 0.930 . S
H366 C371 0.930 . S
H367 C346 0.930 . S
H368 C379 0.931 . S
N369 Tb340 2.617 . S
N369 C370 1.379 . S
N369 C373 1.334 . S
C370 N369 1.379 . S
C370 C372 1.416 . S
C370 C378 1.424 . S
C371 H366 0.930 . S
C371 C373 1.390 . S
C371 C374 1.339 . S
C372 C370 1.416 . S
C372 C374 1.416 . S
C372 C405 1.448 . S
C373 H358 0.930 . S
C373 N369 1.334 . S
C373 C371 1.390 . S
C374 C371 1.339 . S
C374 C372 1.416 . S
C374 H381 0.930 . S
N375 Tb340 2.572 . S
N375 C376 1.340 . S
N375 C378 1.361 . S
C376 H362 0.930 . S
C376 N375 1.340 . S
C376 C380 1.407 . S
C377 C378 1.413 . S
C377 C379 1.416 . S
C377 C406 1.427 . S
C378 C370 1.424 . S
C378 N375 1.361 . S
C378 C377 1.413 . S
C379 H368 0.931 . S
C379 C377 1.416 . S
C379 C380 1.332 . S
C380 H359 0.929 . S
C380 C376 1.407 . S
C380 C379 1.332 . S
H381 C374 0.930 . S
H382 C405 0.930 . S
H383 C406 0.929 . S
O384 Tb340 2.465 . S
O384 C404 1.264 . S
O385 Tb340 2.387 . S
O385 C396 1.264 . S
O386 Tb351 2.349 1_545 S
O386 C396 1.243 . S
O387 Tb340 2.428 . S
O387 C404 1.256 . S
O388 Tb340 2.308 . S
O388 C403 1.266 1_545 S
O389 Tb351 2.393 . S
O389 C403 1.248 . S
O390 Tb351 2.465 . S
O390 C415 1.264 . S
O391 Tb351 2.387 . S
O391 C407 1.264 . S
O392 Tb340 2.349 1_565 S
O392 C407 1.243 . S
O393 Tb351 2.428 . S
O393 C415 1.256 . S
O394 Tb351 2.308 1_545 S
O394 C414 1.266 . S
O395 Tb340 2.393 . S
O395 C414 1.248 . S
C396 O385 1.264 . S
C396 O386 1.243 . S
C397 C400 1.399 . S
C397 C402 1.383 . S
C397 C404 1.496 . S
C398 C399 1.399 . S
C398 C402 1.389 . S
C399 C398 1.399 . S
C399 C401 1.380 . S
C399 H416 0.929 . S
C400 C397 1.399 . S
C400 C401 1.392 . S
C400 H417 0.929 . S
C401 C399 1.380 . S
C401 C400 1.392 . S
C401 H418 0.929 . S
C402 C397 1.383 . S
C402 C398 1.389 . S
C402 H419 0.931 . S
C403 O388 1.266 1_565 S
C403 O389 1.248 . S
C404 Tb340 2.802 . S
C404 O384 1.264 . S
C404 O387 1.256 . S
C404 C397 1.496 . S
C405 C372 1.448 . S
C405 H382 0.930 . S
C405 C406 1.328 . S
C406 C377 1.427 . S
C406 H383 0.929 . S
C406 C405 1.328 . S
C407 O391 1.264 . S
C407 O392 1.243 . S
C408 C411 1.399 . S
C408 C412 1.383 1_565 S
C408 C415 1.496 . S
C409 C410 1.399 1_545 S
C409 C412 1.389 . S
C410 C409 1.399 1_565 S
C410 C413 1.380 . S
C410 H420 0.929 . S
C411 C408 1.399 . S
C411 C413 1.392 . S
C411 H421 0.929 . S
C412 C408 1.383 1_545 S
C412 C409 1.389 . S
C412 H422 0.931 . S
C413 C410 1.380 . S
C413 C411 1.392 . S
C413 H423 0.929 . S
C414 O394 1.266 . S
C414 O395 1.248 . S
C415 Tb351 2.802 . S
C415 O390 1.264 . S
C415 O393 1.256 . S
C415 C408 1.496 . S
H416 C399 0.929 . S
H417 C400 0.929 . S
H418 C401 0.929 . S
H419 C402 0.931 . S
H420 C410 0.929 . S
H421 C411 0.929 . S
H422 C412 0.931 . S
H423 C413 0.929 . S
Tb424 N453 2.617 . S
Tb424 N459 2.572 . S
Tb424 O468 2.465 . S
Tb424 O469 2.387 . S
Tb424 O471 2.428 . S
Tb424 O472 2.308 . S
Tb424 O476 2.349 . S
Tb424 O479 2.393 . S
Tb424 C488 2.802 . S
C425 N426 1.379 . S
C425 C428 1.416 . S
C425 C432 1.424 . S
N426 C425 1.379 . S
N426 C429 1.334 . S
N426 Tb435 2.617 . S
C427 C429 1.390 . S
C427 C430 1.339 . S
C427 H447 0.930 . S
C428 C425 1.416 . S
C428 C430 1.416 . S
C428 C434 1.448 . S
C429 N426 1.334 . S
C429 C427 1.390 . S
C429 H440 0.930 . S
C430 C427 1.339 . S
C430 C428 1.416 . S
C430 H451 0.930 . S
C431 C432 1.413 . S
C431 C433 1.427 . S
C431 C437 1.416 . S
C432 C425 1.424 . S
C432 C431 1.413 . S
C432 N436 1.361 . S
C433 C431 1.427 . S
C433 C434 1.328 . S
C433 H448 0.929 . S
C434 C428 1.448 . S
C434 C433 1.328 . S
C434 H449 0.930 . S
Tb435 N426 2.617 . S
Tb435 N436 2.572 . S
Tb435 O470 2.349 . S
Tb435 O473 2.393 . S
Tb435 O474 2.465 . S
Tb435 O475 2.387 . S
Tb435 O477 2.428 . S
Tb435 O478 2.308 . S
Tb435 C499 2.802 . S
N436 C432 1.361 . S
N436 Tb435 2.572 . S
N436 C438 1.340 . S
C437 C431 1.416 . S
C437 C439 1.332 . S
C437 H445 0.931 . S
C438 N436 1.340 . S
C438 C439 1.407 . S
C438 H444 0.930 . S
C439 C437 1.332 . S
C439 C438 1.407 . S
C439 H441 0.929 . S
H440 C429 0.930 . S
H441 C439 0.929 . S
H442 C457 0.930 . S
H443 C464 0.929 . S
H444 C438 0.930 . S
H445 C437 0.931 . S
H446 C460 0.930 . S
H447 C427 0.930 . S
H448 C433 0.929 . S
H449 C434 0.930 . S
H450 C455 0.930 . S
H451 C430 0.930 . S
H452 C463 0.931 . S
N453 Tb424 2.617 . S
N453 C454 1.379 . S
N453 C457 1.334 . S
C454 N453 1.379 . S
C454 C456 1.416 . S
C454 C462 1.424 . S
C455 H450 0.930 . S
C455 C457 1.390 . S
C455 C458 1.339 . S
C456 C454 1.416 . S
C456 C458 1.416 . S
C456 C489 1.448 . S
C457 H442 0.930 . S
C457 N453 1.334 . S
C457 C455 1.390 . S
C458 C455 1.339 . S
C458 C456 1.416 . S
C458 H465 0.930 . S
N459 Tb424 2.572 . S
N459 C460 1.340 . S
N459 C462 1.361 . S
C460 H446 0.930 . S
C460 N459 1.340 . S
C460 C464 1.407 . S
C461 C462 1.413 . S
C461 C463 1.416 . S
C461 C490 1.427 . S
C462 C454 1.424 . S
C462 N459 1.361 . S
C462 C461 1.413 . S
C463 H452 0.931 . S
C463 C461 1.416 . S
C463 C464 1.332 . S
C464 H443 0.929 . S
C464 C460 1.407 . S
C464 C463 1.332 . S
H465 C458 0.930 . S
H466 C489 0.930 . S
H467 C490 0.929 . S
O468 Tb424 2.465 . S
O468 C488 1.264 . S
O469 Tb424 2.387 . S
O469 C480 1.264 . S
O470 Tb435 2.349 . S
O470 C480 1.243 . S
O471 Tb424 2.428 . S
O471 C488 1.256 . S
O472 Tb424 2.308 . S
O472 C487 1.266 . S
O473 Tb435 2.393 . S
O473 C487 1.248 . S
O474 Tb435 2.465 . S
O474 C499 1.264 . S
O475 Tb435 2.387 . S
O475 C491 1.264 . S
O476 Tb424 2.349 . S
O476 C491 1.243 . S
O477 Tb435 2.428 . S
O477 C499 1.256 . S
O478 Tb435 2.308 . S
O478 C498 1.266 . S
O479 Tb424 2.393 . S
O479 C498 1.248 . S
C480 O469 1.264 . S
C480 O470 1.243 . S
C481 C484 1.399 . S
C481 C486 1.383 . S
C481 C488 1.496 . S
C482 C483 1.399 . S
C482 C486 1.389 . S
C483 C482 1.399 . S
C483 C485 1.380 . S
C483 H500 0.929 . S
C484 C481 1.399 . S
C484 C485 1.392 . S
C484 H501 0.929 . S
C485 C483 1.380 . S
C485 C484 1.392 . S
C485 H502 0.929 . S
C486 C481 1.383 . S
C486 C482 1.389 . S
C486 H503 0.931 . S
C487 O472 1.266 . S
C487 O473 1.248 . S
C488 Tb424 2.802 . S
C488 O468 1.264 . S
C488 O471 1.256 . S
C488 C481 1.496 . S
C489 C456 1.448 . S
C489 H466 0.930 . S
C489 C490 1.328 . S
C490 C461 1.427 . S
C490 H467 0.929 . S
C490 C489 1.328 . S
C491 O475 1.264 . S
C491 O476 1.243 . S
C492 C495 1.399 . S
C492 C496 1.383 . S
C492 C499 1.496 . S
C493 C494 1.399 . S
C493 C496 1.389 . S
C494 C493 1.399 . S
C494 C497 1.380 . S
C494 H504 0.929 . S
C495 C492 1.399 . S
C495 C497 1.392 . S
C495 H505 0.929 . S
C496 C492 1.383 . S
C496 C493 1.389 . S
C496 H506 0.931 . S
C497 C494 1.380 . S
C497 C495 1.392 . S
C497 H507 0.929 . S
C498 O478 1.266 . S
C498 O479 1.248 . S
C499 Tb435 2.802 . S
C499 O474 1.264 . S
C499 O477 1.256 . S
C499 C492 1.496 . S
H500 C483 0.929 . S
H501 C484 0.929 . S
H502 C485 0.929 . S
H503 C486 0.931 . S
H504 C494 0.929 . S
H505 C495 0.929 . S
H506 C496 0.931 . S
H507 C497 0.929 . S
Tb508 N537 2.617 . S
Tb508 N543 2.572 . S
Tb508 O552 2.465 . S
Tb508 O553 2.387 1_455 S
Tb508 O555 2.428 . S
Tb508 O556 2.308 . S
Tb508 O560 2.349 . S
Tb508 O563 2.393 . S
Tb508 C572 2.802 . S
C509 N510 1.379 1_455 S
C509 C512 1.416 . S
C509 C516 1.424 . S
N510 C509 1.379 1_655 S
N510 C513 1.334 . S
N510 Tb519 2.617 . S
C511 C513 1.390 1_455 S
C511 C514 1.339 . S
C511 H531 0.931 1_455 S
C512 C509 1.416 . S
C512 C514 1.416 . S
C512 C518 1.448 . S
C513 N510 1.334 . S
C513 C511 1.390 1_655 S
C513 H524 0.930 . S
C514 C511 1.339 . S
C514 C512 1.416 . S
C514 H535 0.930 . S
C515 C516 1.413 . S
C515 C517 1.427 . S
C515 C521 1.416 . S
C516 C509 1.424 . S
C516 C515 1.413 . S
C516 N520 1.361 . S
C517 C515 1.427 . S
C517 C518 1.328 . S
C517 H532 0.929 . S
C518 C512 1.448 . S
C518 C517 1.328 . S
C518 H533 0.930 . S
Tb519 N510 2.617 . S
Tb519 N520 2.572 1_655 S
Tb519 O554 2.349 . S
Tb519 O557 2.393 . S
Tb519 O558 2.465 . S
Tb519 O559 2.387 1_655 S
Tb519 O561 2.428 . S
Tb519 O562 2.306 1_655 S
Tb519 C583 2.802 . S
N520 C516 1.361 . S
N520 Tb519 2.572 1_455 S
N520 C522 1.340 . S
C521 C515 1.416 . S
C521 C523 1.332 . S
C521 H529 0.931 . S
C522 N520 1.340 . S
C522 C523 1.407 . S
C522 H528 0.930 1_455 S
C523 C521 1.332 . S
C523 C522 1.407 . S
C523 H525 0.929 . S
H524 C513 0.930 . S
H525 C523 0.929 . S
H526 C541 0.930 . S
H527 C548 0.929 . S
H528 C522 0.930 1_655 S
H529 C521 0.931 . S
H530 C544 0.930 . S
H531 C511 0.931 1_655 S
H532 C517 0.929 . S
H533 C518 0.930 . S
H534 C539 0.930 . S
H535 C514 0.930 . S
H536 C547 0.931 . S
N537 Tb508 2.617 . S
N537 C538 1.379 . S
N537 C541 1.334 . S
C538 N537 1.379 . S
C538 C540 1.416 1_455 S
C538 C546 1.424 . S
C539 H534 0.930 . S
C539 C541 1.390 . S
C539 C542 1.345 . S
C540 C538 1.416 1_655 S
C540 C542 1.415 1_655 S
C540 C573 1.448 . S
C541 H526 0.930 . S
C541 N537 1.334 . S
C541 C539 1.390 . S
C542 C539 1.345 . S
C542 C540 1.415 1_455 S
C542 H549 0.925 1_455 S
N543 Tb508 2.572 . S
N543 C544 1.340 . S
N543 C546 1.361 . S
C544 H530 0.930 . S
C544 N543 1.340 . S
C544 C548 1.407 1_455 S
C545 C546 1.413 1_655 S
C545 C547 1.416 . S
C545 C574 1.427 . S
C546 C538 1.424 . S
C546 N543 1.361 . S
C546 C545 1.413 1_455 S
C547 H536 0.931 . S
C547 C545 1.416 . S
C547 C548 1.332 . S
C548 H527 0.929 . S
C548 C544 1.407 1_655 S
C548 C547 1.332 . S
H549 C542 0.925 1_655 S
H550 C573 0.930 . S
H551 C574 0.929 . S
O552 Tb508 2.465 . S
O552 C572 1.264 . S
O553 Tb508 2.387 1_655 S
O553 C564 1.264 . S
O554 Tb519 2.349 . S
O554 C564 1.243 . S
O555 Tb508 2.428 . S
O555 C572 1.256 . S
O556 Tb508 2.308 . S
O556 C571 1.266 . S
O557 Tb519 2.393 . S
O557 C571 1.248 1_655 S
O558 Tb519 2.465 . S
O558 C583 1.264 . S
O559 Tb519 2.387 1_455 S
O559 C575 1.264 . S
O560 Tb508 2.349 . S
O560 C575 1.243 . S
O561 Tb519 2.428 . S
O561 C583 1.256 . S
O562 Tb519 2.306 1_455 S
O562 C582 1.267 . S
O563 Tb508 2.393 . S
O563 C582 1.248 . S
C564 O553 1.264 . S
C564 O554 1.243 . S
C565 C568 1.399 . S
C565 C570 1.383 . S
C565 C572 1.496 . S
C566 C567 1.399 . S
C566 C570 1.389 . S
C567 C566 1.399 . S
C567 C569 1.380 . S
C567 H584 0.929 . S
C568 C565 1.399 . S
C568 C569 1.392 . S
C568 H585 0.929 . S
C569 C567 1.380 . S
C569 C568 1.392 . S
C569 H586 0.929 . S
C570 C565 1.383 . S
C570 C566 1.389 . S
C570 H587 0.931 . S
C571 O556 1.266 . S
C571 O557 1.248 1_455 S
C572 Tb508 2.802 . S
C572 O552 1.264 . S
C572 O555 1.256 . S
C572 C565 1.496 . S
C573 C540 1.448 . S
C573 H550 0.930 . S
C573 C574 1.328 . S
C574 C545 1.427 . S
C574 H551 0.929 . S
C574 C573 1.328 . S
C575 O559 1.264 . S
C575 O560 1.243 . S
C576 C579 1.399 . S
C576 C580 1.383 . S
C576 C583 1.496 . S
C577 C578 1.399 . S
C577 C580 1.389 . S
C578 C577 1.399 . S
C578 C581 1.380 . S
C578 H588 0.929 . S
C579 C576 1.399 . S
C579 C581 1.392 . S
C579 H589 0.929 . S
C580 C576 1.383 . S
C580 C577 1.389 . S
C580 H590 0.931 . S
C581 C578 1.380 . S
C581 C579 1.392 . S
C581 H591 0.929 . S
C582 O562 1.267 . S
C582 O563 1.248 . S
C583 Tb519 2.802 . S
C583 O558 1.264 . S
C583 O561 1.256 . S
C583 C576 1.496 . S
H584 C567 0.929 . S
H585 C568 0.929 . S
H586 C569 0.929 . S
H587 C570 0.931 . S
H588 C578 0.929 . S
H589 C579 0.929 . S
H590 C580 0.931 . S
H591 C581 0.929 . S
H592 C600 0.929 . S
H593 C602 0.930 . S
H594 C604 0.930 . S
H595 C607 0.929 . S
H596 C610 0.930 . S
H597 C612 0.960 . S
H598 C612 0.960 . S
H599 C612 0.960 . S
C600 H592 0.929 . S
C600 C601 1.377 . S
C600 C602 1.384 . S
C601 C600 1.377 . S
C601 C607 1.390 . S
C602 H593 0.930 . S
C602 C600 1.384 . S
C602 C603 1.372 . S
C603 C602 1.372 . S
C603 C604 1.400 . S
C603 C608 1.490 . S
C604 H594 0.930 . S
C604 C603 1.400 . S
C604 C607 1.386 . S
H605 C621 0.930 . S
H606 C622 0.931 . S
C607 H595 0.929 . S
C607 C601 1.390 . S
C607 C604 1.386 . S
C608 C603 1.490 . S
C608 C610 1.395 . S
C608 C611 1.403 . S
H609 C615 0.930 . S
C610 H596 0.930 . S
C610 C608 1.395 . S
C610 C613 1.403 . S
C611 C608 1.403 . S
C611 C612 1.524 . S
C611 C615 1.400 . S
C612 H597 0.960 . S
C612 H598 0.960 . S
C612 H599 0.960 . S
C612 C611 1.524 . S
C613 C610 1.403 . S
C613 C614 1.392 . S
C613 C617 1.495 1_545 S
C614 C613 1.392 . S
C614 C615 1.385 . S
C614 C616 1.478 . S
C615 H609 0.930 . S
C615 C611 1.400 . S
C615 C614 1.385 . S
C616 C614 1.478 . S
C616 C618 1.381 . S
C616 C622 1.383 . S
C617 C613 1.495 1_565 S
C617 H623 0.959 . S
C617 H624 0.961 . S
C617 H625 0.949 1_565 S
C618 C616 1.381 . S
C618 C619 1.394 . S
C618 H626 0.930 . S
C619 C618 1.394 . S
C619 C620 1.383 . S
C619 H627 0.929 . S
C620 C619 1.383 . S
C620 C621 1.377 . S
C621 H605 0.930 . S
C621 C620 1.377 . S
C621 C622 1.379 . S
C622 H606 0.931 . S
C622 C616 1.383 . S
C622 C621 1.379 . S
H623 C617 0.959 . S
H624 C617 0.961 . S
H625 C617 0.949 1_545 S
H626 C618 0.930 . S
H627 C619 0.929 . S
H628 C636 0.929 . S
H629 C638 0.930 . S
H630 C640 0.930 . S
H631 C643 0.929 . S
H632 C646 0.930 . S
H633 C648 0.960 . S
H634 C648 0.960 . S
H635 C648 0.960 . S
C636 H628 0.929 . S
C636 C637 1.377 . S
C636 C638 1.384 . S
C637 C636 1.377 . S
C637 C643 1.390 . S
C638 H629 0.930 . S
C638 C636 1.384 . S
C638 C639 1.372 . S
C639 C638 1.372 . S
C639 C640 1.400 . S
C639 C644 1.490 . S
C640 H630 0.930 . S
C640 C639 1.400 . S
C640 C643 1.386 . S
H641 C657 0.930 . S
H642 C658 0.931 . S
C643 H631 0.929 . S
C643 C637 1.390 . S
C643 C640 1.386 . S
C644 C639 1.490 . S
C644 C646 1.395 . S
C644 C647 1.403 . S
H645 C651 0.930 . S
C646 H632 0.930 . S
C646 C644 1.395 . S
C646 C649 1.403 . S
C647 C644 1.403 . S
C647 C648 1.524 . S
C647 C651 1.400 . S
C648 H633 0.960 . S
C648 H634 0.960 . S
C648 H635 0.960 . S
C648 C647 1.524 . S
C649 C646 1.403 . S
C649 C650 1.392 . S
C649 C653 1.495 . S
C650 C649 1.392 . S
C650 C651 1.385 . S
C650 C652 1.478 . S
C651 H645 0.930 . S
C651 C647 1.400 . S
C651 C650 1.385 . S
C652 C650 1.478 . S
C652 C654 1.381 . S
C652 C658 1.383 . S
C653 C649 1.495 . S
C653 H659 0.959 . S
C653 H660 0.961 . S
C653 H661 0.960 . S
C654 C652 1.381 . S
C654 C655 1.394 . S
C654 H662 0.930 . S
C655 C654 1.394 . S
C655 C656 1.383 . S
C655 H663 0.929 . S
C656 C655 1.383 . S
C656 C657 1.377 . S
C657 H641 0.930 . S
C657 C656 1.377 . S
C657 C658 1.379 . S
C658 H642 0.931 . S
C658 C652 1.383 . S
C658 C657 1.379 . S
H659 C653 0.959 . S
H660 C653 0.961 . S
H661 C653 0.960 . S
H662 C654 0.930 . S
H663 C655 0.929 . S
H664 C672 0.929 . S
H665 C674 0.930 . S
H666 C676 0.930 . S
H667 C679 0.929 . S
H668 C682 0.930 . S
H669 C684 0.960 . S
H670 C684 0.960 . S
H671 C684 0.960 . S
C672 H664 0.929 . S
C672 C673 1.377 . S
C672 C674 1.384 . S
C673 C672 1.377 . S
C673 C679 1.390 . S
C674 H665 0.930 . S
C674 C672 1.384 . S
C674 C675 1.372 . S
C675 C674 1.372 . S
C675 C676 1.400 . S
C675 C680 1.490 . S
C676 H666 0.930 . S
C676 C675 1.400 . S
C676 C679 1.386 . S
H677 C693 0.930 . S
H678 C694 0.931 . S
C679 H667 0.929 . S
C679 C673 1.390 . S
C679 C676 1.386 . S
C680 C675 1.490 . S
C680 C682 1.395 . S
C680 C683 1.403 . S
H681 C687 0.930 . S
C682 H668 0.930 . S
C682 C680 1.395 . S
C682 C685 1.403 . S
C683 C680 1.403 . S
C683 C684 1.524 . S
C683 C687 1.400 . S
C684 H669 0.960 . S
C684 H670 0.960 . S
C684 H671 0.960 . S
C684 C683 1.524 . S
C685 C682 1.403 . S
C685 C686 1.392 . S
C685 C689 1.495 . S
C686 C685 1.392 . S
C686 C687 1.385 . S
C686 C688 1.478 . S
C687 H681 0.930 . S
C687 C683 1.400 . S
C687 C686 1.385 . S
C688 C686 1.478 . S
C688 C690 1.381 . S
C688 C694 1.383 . S
C689 C685 1.495 . S
C689 H695 0.959 . S
C689 H696 0.961 . S
C689 H697 0.960 . S
C690 C688 1.381 . S
C690 C691 1.394 . S
C690 H698 0.930 . S
C691 C690 1.394 . S
C691 C692 1.383 . S
C691 H699 0.929 . S
C692 C691 1.383 . S
C692 C693 1.377 . S
C693 H677 0.930 . S
C693 C692 1.377 . S
C693 C694 1.379 . S
C694 H678 0.931 . S
C694 C688 1.383 . S
C694 C693 1.379 . S
H695 C689 0.959 . S
H696 C689 0.961 . S
H697 C689 0.960 . S
H698 C690 0.930 . S
H699 C691 0.929 . S
H700 C708 0.929 . S
H701 C710 0.930 . S
H702 C712 0.930 . S
H703 C715 0.929 . S
H704 C718 0.930 . S
H705 C720 0.960 . S
H706 C720 0.950 1_455 S
H707 C720 0.960 . S
C708 H700 0.929 . S
C708 C709 1.377 . S
C708 C710 1.384 . S
C709 C708 1.377 . S
C709 C715 1.390 . S
C710 H701 0.930 . S
C710 C708 1.384 . S
C710 C711 1.372 . S
C711 C710 1.372 . S
C711 C712 1.400 . S
C711 C716 1.490 . S
C712 H702 0.930 . S
C712 C711 1.400 . S
C712 C715 1.386 . S
H713 C729 0.930 1_655 S
H714 C730 0.931 . S
C715 H703 0.929 . S
C715 C709 1.390 . S
C715 C712 1.386 . S
C716 C711 1.490 . S
C716 C718 1.395 . S
C716 C719 1.403 . S
H717 C723 0.981 . S
C718 H704 0.930 . S
C718 C716 1.395 . S
C718 C721 1.403 . S
C719 C716 1.403 . S
C719 C720 1.524 1_455 S
C719 C723 1.400 . S
C720 H705 0.960 . S
C720 H706 0.950 1_655 S
C720 H707 0.960 . S
C720 C719 1.524 1_655 S
C721 C718 1.403 . S
C721 C722 1.392 . S
C721 C725 1.495 . S
C722 C721 1.392 . S
C722 C723 1.385 . S
C722 C724 1.478 . S
C723 H717 0.981 . S
C723 C719 1.400 . S
C723 C722 1.385 . S
C724 C722 1.478 . S
C724 C726 1.381 . S
C724 C730 1.383 . S
C725 C721 1.495 . S
C725 H731 0.959 . S
C725 H732 0.961 . S
C725 H733 0.960 . S
C726 C724 1.381 . S
C726 C727 1.394 . S
C726 H734 0.930 . S
C727 C726 1.394 . S
C727 C728 1.383 . S
C727 H735 0.929 . S
C728 C727 1.383 . S
C728 C729 1.377 . S
C729 H713 0.930 1_455 S
C729 C728 1.377 . S
C729 C730 1.379 . S
C730 H714 0.931 . S
C730 C724 1.383 . S
C730 C729 1.379 . S
H731 C725 0.959 . S
H732 C725 0.961 . S
H733 C725 0.960 . S
H734 C726 0.930 . S
H735 C727 0.929 . S
H736 C744 0.929 . S
H737 C746 0.930 . S
H738 C748 0.930 1_545 S
H739 C751 0.929 . S
H740 C754 0.930 . S
H741 C756 0.960 1_545 S
H742 C756 0.960 . S
H743 C756 0.960 1_545 S
C744 H736 0.929 . S
C744 C745 1.377 . S
C744 C746 1.384 . S
C745 C744 1.377 . S
C745 C751 1.390 . S
C746 H737 0.930 . S
C746 C744 1.384 . S
C746 C747 1.372 . S
C747 C746 1.372 . S
C747 C748 1.400 . S
C747 C752 1.490 1_554 S
C748 H738 0.930 1_565 S
C748 C747 1.400 . S
C748 C751 1.386 . S
H749 C765 0.930 . S
H750 C766 0.931 . S
C751 H739 0.929 . S
C751 C745 1.390 . S
C751 C748 1.386 . S
C752 C747 1.490 1_556 S
C752 C754 1.395 . S
C752 C755 1.403 . S
H753 C759 0.933 . S
C754 H740 0.930 . S
C754 C752 1.395 . S
C754 C757 1.403 . S
C755 C752 1.403 . S
C755 C756 1.524 1_556 S
C755 C759 1.400 . S
C756 H741 0.960 1_565 S
C756 H742 0.960 . S
C756 H743 0.960 1_565 S
C756 C755 1.524 1_554 S
C757 C754 1.403 . S
C757 C758 1.392 . S
C757 C761 1.495 . S
C758 C757 1.392 . S
C758 C759 1.385 . S
C758 C760 1.478 . S
C759 H753 0.933 . S
C759 C755 1.400 . S
C759 C758 1.385 . S
C760 C758 1.478 . S
C760 C762 1.381 . S
C760 C766 1.383 1_565 S
C761 C757 1.495 . S
C761 H767 0.959 . S
C761 H768 0.961 . S
C761 H769 0.960 . S
C762 C760 1.381 . S
C762 C763 1.394 . S
C762 H770 0.930 . S
C763 C762 1.394 . S
C763 C764 1.383 . S
C763 H771 0.929 . S
C764 C763 1.383 . S
C764 C765 1.377 1_565 S
C765 H749 0.930 . S
C765 C764 1.377 1_545 S
C765 C766 1.379 . S
C766 H750 0.931 . S
C766 C760 1.383 1_545 S
C766 C765 1.379 . S
H767 C761 0.959 . S
H768 C761 0.961 . S
H769 C761 0.960 . S
H770 C762 0.930 . S
H771 C763 0.929 . S
H772 C780 0.929 . S
H773 C782 0.930 . S
H774 C784 0.930 1_556 S
H775 C787 0.929 . S
H776 C790 0.930 1_554 S
H777 C792 0.960 . S
H778 C792 0.960 . S
H779 C792 0.960 . S
C780 H772 0.929 . S
C780 C781 1.377 . S
C780 C782 1.384 . S
C781 C780 1.377 . S
C781 C787 1.390 . S
C782 H773 0.930 . S
C782 C780 1.384 . S
C782 C783 1.372 . S
C783 C782 1.372 . S
C783 C784 1.400 . S
C783 C788 1.490 1_554 S
C784 H774 0.930 1_554 S
C784 C783 1.400 . S
C784 C787 1.386 . S
H785 C801 0.930 . S
H786 C802 0.931 . S
C787 H775 0.929 . S
C787 C781 1.390 . S
C787 C784 1.386 . S
C788 C783 1.490 1_556 S
C788 C790 1.395 . S
C788 C791 1.403 . S
H789 C795 0.930 . S
C790 H776 0.930 1_556 S
C790 C788 1.395 . S
C790 C793 1.403 . S
C791 C788 1.403 . S
C791 C792 1.524 . S
C791 C795 1.400 . S
C792 H777 0.960 . S
C792 H778 0.960 . S
C792 H779 0.960 . S
C792 C791 1.524 . S
C793 C790 1.403 . S
C793 C794 1.392 . S
C793 C797 1.495 . S
C794 C793 1.392 . S
C794 C795 1.385 . S
C794 C796 1.478 . S
C795 H789 0.930 . S
C795 C791 1.400 . S
C795 C794 1.385 . S
C796 C794 1.478 . S
C796 C798 1.381 . S
C796 C802 1.383 . S
C797 C793 1.495 . S
C797 H803 0.959 . S
C797 H804 0.961 . S
C797 H805 0.960 . S
C798 C796 1.381 . S
C798 C799 1.394 . S
C798 H806 0.930 . S
C799 C798 1.394 . S
C799 C800 1.383 . S
C799 H807 0.929 . S
C800 C799 1.383 . S
C800 C801 1.377 . S
C801 H785 0.930 . S
C801 C800 1.377 . S
C801 C802 1.379 . S
C802 H786 0.931 . S
C802 C796 1.383 . S
C802 C801 1.379 . S
H803 C797 0.959 . S
H804 C797 0.961 . S
H805 C797 0.960 . S
H806 C798 0.930 . S
H807 C799 0.929 . S
H808 C816 0.929 . S
H809 C818 0.930 . S
H810 C820 0.930 . S
H811 C823 0.929 . S
H812 C826 0.930 . S
H813 C828 0.960 . S
H814 C828 0.960 . S
H815 C828 0.960 . S
C816 H808 0.929 . S
C816 C817 1.377 . S
C816 C818 1.384 . S
C817 C816 1.377 . S
C817 C823 1.390 . S
C818 H809 0.930 . S
C818 C816 1.384 . S
C818 C819 1.372 . S
C819 C818 1.372 . S
C819 C820 1.400 . S
C819 C824 1.490 1_554 S
C820 H810 0.930 . S
C820 C819 1.400 . S
C820 C823 1.386 . S
H821 C837 0.930 . S
H822 C838 0.931 . S
C823 H811 0.929 . S
C823 C817 1.390 . S
C823 C820 1.386 . S
C824 C819 1.490 1_556 S
C824 C826 1.395 . S
C824 C827 1.403 . S
H825 C831 0.930 . S
C826 H812 0.930 . S
C826 C824 1.395 . S
C826 C829 1.403 . S
C827 C824 1.403 . S
C827 C828 1.524 . S
C827 C831 1.400 . S
C828 H813 0.960 . S
C828 H814 0.960 . S
C828 H815 0.960 . S
C828 C827 1.524 . S
C829 C826 1.403 . S
C829 C830 1.392 . S
C829 C833 1.495 . S
C830 C829 1.392 . S
C830 C831 1.385 . S
C830 C832 1.478 . S
C831 H825 0.930 . S
C831 C827 1.400 . S
C831 C830 1.385 . S
C832 C830 1.478 . S
C832 C834 1.381 . S
C832 C838 1.383 . S
C833 C829 1.495 . S
C833 H839 0.959 . S
C833 H840 0.961 . S
C833 H841 0.960 . S
C834 C832 1.381 . S
C834 C835 1.394 . S
C834 H842 0.930 . S
C835 C834 1.394 . S
C835 C836 1.383 . S
C835 H843 0.929 . S
C836 C835 1.383 . S
C836 C837 1.377 . S
C837 H821 0.930 . S
C837 C836 1.377 . S
C837 C838 1.379 . S
C838 H822 0.931 . S
C838 C832 1.383 . S
C838 C837 1.379 . S
H839 C833 0.959 . S
H840 C833 0.961 . S
H841 C833 0.960 . S
H842 C834 0.930 . S
H843 C835 0.929 . S
H844 C852 0.929 . S
H845 C854 0.930 . S
H846 C856 0.930 1_556 S
H847 C859 0.929 . S
H848 C862 0.930 . S
H849 C864 0.960 . S
H850 C864 0.960 1_554 S
H851 C864 0.960 . S
C852 H844 0.929 . S
C852 C853 1.377 . S
C852 C854 1.384 . S
C853 C852 1.377 . S
C853 C859 1.390 . S
C854 H845 0.930 . S
C854 C852 1.384 . S
C854 C855 1.372 . S
C855 C854 1.372 . S
C855 C856 1.400 . S
C855 C860 1.490 1_554 S
C856 H846 0.930 1_554 S
C856 C855 1.400 . S
C856 C859 1.386 . S
H857 C873 0.955 . S
H858 C874 0.933 . S
C859 H847 0.929 . S
C859 C853 1.390 . S
C859 C856 1.386 . S
C860 C855 1.490 1_556 S
C860 C862 1.395 . S
C860 C863 1.403 . S
H861 C867 0.930 1_455 S
C862 H848 0.930 . S
C862 C860 1.395 . S
C862 C865 1.403 . S
C863 C860 1.403 . S
C863 C864 1.524 1_655 S
C863 C867 1.400 . S
C864 H849 0.960 . S
C864 H850 0.960 1_556 S
C864 H851 0.960 . S
C864 C863 1.524 1_455 S
C865 C862 1.403 . S
C865 C866 1.392 . S
C865 C869 1.495 . S
C866 C865 1.392 . S
C866 C867 1.385 . S
C866 C868 1.478 . S
C867 H861 0.930 1_655 S
C867 C863 1.400 . S
C867 C866 1.385 . S
C868 C866 1.478 . S
C868 C870 1.381 . S
C868 C874 1.383 . S
C869 C865 1.495 . S
C869 H875 0.959 . S
C869 H876 0.961 . S
C869 H877 0.960 . S
C870 C868 1.381 . S
C870 C871 1.394 . S
C870 H878 0.930 . S
C871 C870 1.394 . S
C871 C872 1.383 . S
C871 H879 0.929 . S
C872 C871 1.383 . S
C872 C873 1.365 1_655 S
C873 H857 0.955 . S
C873 C872 1.365 1_455 S
C873 C874 1.369 1_455 S
C874 H858 0.933 . S
C874 C868 1.383 . S
C874 C873 1.369 1_655 S
H875 C869 0.959 . S
H876 C869 0.961 . S
H877 C869 0.960 . S
H878 C870 0.930 . S
H879 C871 0.929 . S
H880 C888 0.929 . S
H881 C890 0.930 . S
H882 C892 0.930 . S
H883 C895 0.929 . S
H884 C898 0.930 . S
H885 C900 0.960 1_655 S
H886 C900 0.960 . S
H887 C900 0.960 1_655 S
C888 H880 0.929 . S
C888 C889 1.377 . S
C888 C890 1.384 . S
C889 C888 1.377 . S
C889 C895 1.390 . S
C890 H881 0.930 . S
C890 C888 1.384 . S
C890 C891 1.372 . S
C891 C890 1.372 . S
C891 C892 1.400 . S
C891 C896 1.490 . S
C892 H882 0.930 . S
C892 C891 1.400 . S
C892 C895 1.386 . S
H893 C909 0.930 . S
H894 C910 0.931 . S
C895 H883 0.929 . S
C895 C889 1.390 . S
C895 C892 1.386 . S
C896 C891 1.490 . S
C896 C898 1.395 . S
C896 C899 1.403 . S
H897 C903 0.930 . S
C898 H884 0.930 . S
C898 C896 1.395 . S
C898 C901 1.403 . S
C899 C896 1.403 . S
C899 C900 1.524 . S
C899 C903 1.400 . S
C900 H885 0.960 1_455 S
C900 H886 0.960 . S
C900 H887 0.960 1_455 S
C900 C899 1.524 . S
C901 C898 1.403 . S
C901 C902 1.392 . S
C901 C905 1.495 . S
C902 C901 1.392 . S
C902 C903 1.385 . S
C902 C904 1.478 . S
C903 H897 0.930 . S
C903 C899 1.400 . S
C903 C902 1.385 . S
C904 C902 1.478 . S
C904 C906 1.381 . S
C904 C910 1.383 1_455 S
C905 C901 1.495 . S
C905 H911 0.959 . S
C905 H912 0.961 . S
C905 H913 0.960 . S
C906 C904 1.381 . S
C906 C907 1.394 . S
C906 H914 0.930 . S
C907 C906 1.394 . S
C907 C908 1.383 . S
C907 H915 0.929 . S
C908 C907 1.383 . S
C908 C909 1.377 1_455 S
C909 H893 0.930 . S
C909 C908 1.377 1_655 S
C909 C910 1.379 . S
C910 H894 0.931 . S
C910 C904 1.383 1_655 S
C910 C909 1.379 . S
H911 C905 0.959 . S
H912 C905 0.961 . S
H913 C905 0.960 . S
H914 C906 0.930 . S
H915 C907 0.929 . S
H916 C924 0.929 . S
H917 C926 0.930 . S
H918 C928 0.930 . S
H919 C931 0.929 . S
H920 C934 0.930 . S
H921 C936 0.960 . S
H922 C936 0.960 . S
H923 C936 0.960 . S
C924 H916 0.929 . S
C924 C925 1.377 . S
C924 C926 1.384 . S
C925 C924 1.377 . S
C925 C931 1.390 . S
C926 H917 0.930 . S
C926 C924 1.384 . S
C926 C927 1.372 . S
C927 C926 1.372 . S
C927 C928 1.400 . S
C927 C932 1.490 . S
C928 H918 0.930 . S
C928 C927 1.400 . S
C928 C931 1.386 . S
H929 C945 0.930 . S
H930 C946 0.931 . S
C931 H919 0.929 . S
C931 C925 1.390 . S
C931 C928 1.386 . S
C932 C927 1.490 . S
C932 C934 1.395 . S
C932 C935 1.403 . S
H933 C939 0.930 . S
C934 H920 0.930 . S
C934 C932 1.395 . S
C934 C937 1.403 . S
C935 C932 1.403 . S
C935 C936 1.524 . S
C935 C939 1.400 . S
C936 H921 0.960 . S
C936 H922 0.960 . S
C936 H923 0.960 . S
C936 C935 1.524 . S
C937 C934 1.403 . S
C937 C938 1.392 . S
C937 C941 1.495 . S
C938 C937 1.392 . S
C938 C939 1.385 . S
C938 C940 1.478 . S
C939 H933 0.930 . S
C939 C935 1.400 . S
C939 C938 1.385 . S
C940 C938 1.478 . S
C940 C942 1.381 . S
C940 C946 1.383 1_545 S
C941 C937 1.495 . S
C941 H947 0.959 . S
C941 H948 0.961 . S
C941 H949 0.960 . S
C942 C940 1.381 . S
C942 C943 1.394 . S
C942 H950 0.930 . S
C943 C942 1.394 . S
C943 C944 1.383 . S
C943 H951 0.929 . S
C944 C943 1.383 . S
C944 C945 1.377 1_545 S
C945 H929 0.930 . S
C945 C944 1.377 1_565 S
C945 C946 1.379 . S
C946 H930 0.931 . S
C946 C940 1.383 1_565 S
C946 C945 1.379 . S
H947 C941 0.959 . S
H948 C941 0.961 . S
H949 C941 0.960 . S
H950 C942 0.930 . S
H951 C943 0.929 . S
H952 C960 0.929 . S
H953 C962 0.930 . S
H954 C964 0.930 . S
H955 C967 0.929 . S
H956 C970 0.930 . S
H957 C972 0.960 . S
H958 C972 0.960 . S
H959 C972 0.960 . S
C960 H952 0.929 . S
C960 C961 1.377 . S
C960 C962 1.384 . S
C961 C960 1.377 . S
C961 C967 1.390 . S
C962 H953 0.930 . S
C962 C960 1.384 . S
C962 C963 1.372 . S
C963 C962 1.372 . S
C963 C964 1.400 . S
C963 C968 1.490 . S
C964 H954 0.930 . S
C964 C963 1.400 . S
C964 C967 1.386 . S
H965 C981 0.930 . S
H966 C982 0.931 . S
C967 H955 0.929 . S
C967 C961 1.390 . S
C967 C964 1.386 . S
C968 C963 1.490 . S
C968 C970 1.395 . S
C968 C971 1.403 . S
H969 C975 0.930 . S
C970 H956 0.930 . S
C970 C968 1.395 . S
C970 C973 1.403 . S
C971 C968 1.403 . S
C971 C972 1.524 . S
C971 C975 1.400 . S
C972 H957 0.960 . S
C972 H958 0.960 . S
C972 H959 0.960 . S
C972 C971 1.524 . S
C973 C970 1.403 . S
C973 C974 1.392 . S
C973 C977 1.495 . S
C974 C973 1.392 . S
C974 C975 1.385 . S
C974 C976 1.478 . S
C975 H969 0.930 . S
C975 C971 1.400 . S
C975 C974 1.385 . S
C976 C974 1.478 . S
C976 C978 1.381 . S
C976 C982 1.383 . S
C977 C973 1.495 . S
C977 H983 0.959 . S
C977 H984 0.961 . S
C977 H985 0.960 . S
C978 C976 1.381 . S
C978 C979 1.394 . S
C978 H986 0.930 . S
C979 C978 1.394 . S
C979 C980 1.383 . S
C979 H987 0.929 . S
C980 C979 1.383 . S
C980 C981 1.377 . S
C981 H965 0.930 . S
C981 C980 1.377 . S
C981 C982 1.379 . S
C982 H966 0.931 . S
C982 C976 1.383 . S
C982 C981 1.379 . S
H983 C977 0.959 . S
H984 C977 0.961 . S
H985 C977 0.960 . S
H986 C978 0.930 . S
H987 C979 0.929 . S
H988 C996 0.929 . S
H989 C998 0.930 . S
H990 C1000 0.930 . S
H991 C1003 0.929 . S
H992 C1006 0.930 . S
H993 C1008 0.960 . S
H994 C1008 0.960 . S
H995 C1008 0.960 . S
C996 H988 0.929 . S
C996 C997 1.377 . S
C996 C998 1.384 . S
C997 C996 1.377 . S
C997 C1003 1.390 . S
C998 H989 0.930 . S
C998 C996 1.384 . S
C998 C999 1.372 . S
C999 C998 1.372 . S
C999 C1000 1.400 . S
C999 C1004 1.490 . S
C1000 H990 0.930 . S
C1000 C999 1.400 . S
C1000 C1003 1.386 . S
H1001 C1017 0.930 . S
H1002 C1018 0.931 . S
C1003 H991 0.929 . S
C1003 C997 1.390 . S
C1003 C1000 1.386 . S
C1004 C999 1.490 . S
C1004 C1006 1.395 . S
C1004 C1007 1.403 . S
H1005 C1011 0.930 . S
C1006 H992 0.930 . S
C1006 C1004 1.395 . S
C1006 C1009 1.403 . S
C1007 C1004 1.403 . S
C1007 C1008 1.524 . S
C1007 C1011 1.400 . S
C1008 H993 0.960 . S
C1008 H994 0.960 . S
C1008 H995 0.960 . S
C1008 C1007 1.524 . S
C1009 C1006 1.403 . S
C1009 C1010 1.392 . S
C1009 C1013 1.495 . S
C1010 C1009 1.392 . S
C1010 C1011 1.385 . S
C1010 C1012 1.478 . S
C1011 H1005 0.930 . S
C1011 C1007 1.400 . S
C1011 C1010 1.385 . S
C1012 C1010 1.478 . S
C1012 C1014 1.381 . S
C1012 C1018 1.383 . S
C1013 C1009 1.495 . S
C1013 H1019 0.959 . S
C1013 H1020 0.961 . S
C1013 H1021 0.960 . S
C1014 C1012 1.381 . S
C1014 C1015 1.394 . S
C1014 H1022 0.930 . S
C1015 C1014 1.394 . S
C1015 C1016 1.383 . S
C1015 H1023 0.929 . S
C1016 C1015 1.383 . S
C1016 C1017 1.377 . S
C1017 H1001 0.930 . S
C1017 C1016 1.377 . S
C1017 C1018 1.379 . S
C1018 H1002 0.931 . S
C1018 C1012 1.383 . S
C1018 C1017 1.379 . S
H1019 C1013 0.959 . S
H1020 C1013 0.961 . S
H1021 C1013 0.960 . S
H1022 C1014 0.930 . S
H1023 C1015 0.929 . S
H1024 C1032 0.929 . S
H1025 C1034 0.930 . S
H1026 C1036 0.930 . S
H1027 C1039 0.929 . S
H1028 C1042 0.930 1_554 S
H1029 C1044 0.960 . S
H1030 C1044 0.960 . S
H1031 C1044 0.960 . S
C1032 H1024 0.929 . S
C1032 C1033 1.377 . S
C1032 C1034 1.384 . S
C1033 C1032 1.377 . S
C1033 C1039 1.390 . S
C1034 H1025 0.930 . S
C1034 C1032 1.384 . S
C1034 C1035 1.361 1_554 S
C1035 C1034 1.361 1_556 S
C1035 C1036 1.403 . S
C1035 C1040 1.497 . S
C1036 H1026 0.930 . S
C1036 C1035 1.403 . S
C1036 C1039 1.386 1_556 S
H1037 C1053 0.930 . S
H1038 C1054 0.931 . S
C1039 H1027 0.929 . S
C1039 C1033 1.390 . S
C1039 C1036 1.386 1_554 S
C1040 C1035 1.497 . S
C1040 C1042 1.395 . S
C1040 C1043 1.403 . S
H1041 C1047 0.930 . S
C1042 H1028 0.930 1_556 S
C1042 C1040 1.395 . S
C1042 C1045 1.403 . S
C1043 C1040 1.403 . S
C1043 C1044 1.524 . S
C1043 C1047 1.400 . S
C1044 H1029 0.960 . S
C1044 H1030 0.960 . S
C1044 H1031 0.960 . S
C1044 C1043 1.524 . S
C1045 C1042 1.403 . S
C1045 C1046 1.392 . S
C1045 C1049 1.495 1_655 S
C1046 C1045 1.392 . S
C1046 C1047 1.385 . S
C1046 C1048 1.491 . S
C1047 H1041 0.930 . S
C1047 C1043 1.400 . S
C1047 C1046 1.385 . S
C1048 C1046 1.491 . S
C1048 C1050 1.400 . S
C1048 C1054 1.354 1_655 S
C1049 C1045 1.495 1_455 S
C1049 H1055 0.959 1_556 S
C1049 H1056 0.961 . S
C1049 H1057 0.960 . S
C1050 C1048 1.400 . S
C1050 C1051 1.394 . S
C1050 H1058 0.930 . S
C1051 C1050 1.394 . S
C1051 C1052 1.383 1_655 S
C1051 H1059 0.929 . S
C1052 C1051 1.383 1_455 S
C1052 C1053 1.377 . S
C1053 H1037 0.930 . S
C1053 C1052 1.377 . S
C1053 C1054 1.379 . S
C1054 H1038 0.931 . S
C1054 C1048 1.354 1_455 S
C1054 C1053 1.379 . S
H1055 C1049 0.959 1_554 S
H1056 C1049 0.961 . S
H1057 C1049 0.960 . S
H1058 C1050 0.930 . S
H1059 C1051 0.929 . S
H1060 C1068 0.929 . S
H1061 C1070 0.930 . S
H1062 C1072 0.930 . S
H1063 C1075 0.925 1_556 S
H1064 C1078 0.930 1_554 S
H1065 C1080 0.960 . S
H1066 C1080 0.960 . S
H1067 C1080 0.960 . S
C1068 H1060 0.929 . S
C1068 C1069 1.377 . S
C1068 C1070 1.384 . S
C1069 C1068 1.377 . S
C1069 C1075 1.390 . S
C1070 H1061 0.930 . S
C1070 C1068 1.384 . S
C1070 C1071 1.372 . S
C1071 C1070 1.372 . S
C1071 C1072 1.400 1_554 S
C1071 C1076 1.490 1_554 S
C1072 H1062 0.930 . S
C1072 C1071 1.400 1_556 S
C1072 C1075 1.386 1_556 S
H1073 C1089 0.930 . S
H1074 C1090 0.931 . S
C1075 H1063 0.925 1_554 S
C1075 C1069 1.390 . S
C1075 C1072 1.386 1_554 S
C1076 C1071 1.490 1_556 S
C1076 C1078 1.395 . S
C1076 C1079 1.403 . S
H1077 C1083 0.930 . S
C1078 H1064 0.930 1_556 S
C1078 C1076 1.395 . S
C1078 C1081 1.391 1_565 S
C1079 C1076 1.403 . S
C1079 C1080 1.524 . S
C1079 C1083 1.400 . S
C1080 H1065 0.960 . S
C1080 H1066 0.960 . S
C1080 H1067 0.960 . S
C1080 C1079 1.524 . S
C1081 C1078 1.391 1_545 S
C1081 C1082 1.379 1_545 S
C1081 C1085 1.522 . S
C1082 C1081 1.379 1_565 S
C1082 C1083 1.385 . S
C1082 C1084 1.490 . S
C1083 H1077 0.930 . S
C1083 C1079 1.400 . S
C1083 C1082 1.385 . S
C1084 C1082 1.490 . S
C1084 C1086 1.390 . S
C1084 C1090 1.364 1_565 S
C1085 C1081 1.522 . S
C1085 H1091 0.959 1_556 S
C1085 H1092 0.961 . S
C1085 H1093 0.960 . S
C1086 C1084 1.390 . S
C1086 C1087 1.399 . S
C1086 H1094 0.930 . S
C1087 C1086 1.399 . S
C1087 C1088 1.374 1_565 S
C1087 H1095 0.934 . S
C1088 C1087 1.374 1_545 S
C1088 C1089 1.377 . S
C1089 H1073 0.930 . S
C1089 C1088 1.377 . S
C1089 C1090 1.379 . S
C1090 H1074 0.931 . S
C1090 C1084 1.364 1_545 S
C1090 C1089 1.379 . S
H1091 C1085 0.959 1_554 S
H1092 C1085 0.961 . S
H1093 C1085 0.960 . S
H1094 C1086 0.930 . S
H1095 C1087 0.934 . S
H1096 C1104 0.929 1_556 S
H1097 C1106 0.930 . S
H1098 C1108 0.930 . S
H1099 C1111 0.929 . S
H1100 C1114 0.930 . S
H1101 C1116 0.960 . S
H1102 C1116 0.960 . S
H1103 C1116 0.960 . S
C1104 H1096 0.929 1_554 S
C1104 C1105 1.377 . S
C1104 C1106 1.384 1_554 S
C1105 C1104 1.377 . S
C1105 C1111 1.390 . S
C1106 H1097 0.930 . S
C1106 C1104 1.384 1_556 S
C1106 C1107 1.372 . S
C1107 C1106 1.372 . S
C1107 C1108 1.400 1_556 S
C1107 C1112 1.490 . S
C1108 H1098 0.930 . S
C1108 C1107 1.400 1_554 S
C1108 C1111 1.386 . S
H1109 C1125 0.930 . S
H1110 C1126 0.931 . S
C1111 H1099 0.929 . S
C1111 C1105 1.390 . S
C1111 C1108 1.386 . S
C1112 C1107 1.490 . S
C1112 C1114 1.395 . S
C1112 C1115 1.403 . S
H1113 C1119 0.930 . S
C1114 H1100 0.930 . S
C1114 C1112 1.395 . S
C1114 C1117 1.403 . S
C1115 C1112 1.403 . S
C1115 C1116 1.524 1_556 S
C1115 C1119 1.400 . S
C1116 H1101 0.960 . S
C1116 H1102 0.960 . S
C1116 H1103 0.960 . S
C1116 C1115 1.524 1_554 S
C1117 C1114 1.403 . S
C1117 C1118 1.392 . S
C1117 C1121 1.495 . S
C1118 C1117 1.392 . S
C1118 C1119 1.385 . S
C1118 C1120 1.478 . S
C1119 H1113 0.930 . S
C1119 C1115 1.400 . S
C1119 C1118 1.385 . S
C1120 C1118 1.478 . S
C1120 C1122 1.381 . S
C1120 C1126 1.383 . S
C1121 C1117 1.495 . S
C1121 H1127 0.959 . S
C1121 H1128 0.961 . S
C1121 H1129 0.960 . S
C1122 C1120 1.381 . S
C1122 C1123 1.394 . S
C1122 H1130 0.930 . S
C1123 C1122 1.394 . S
C1123 C1124 1.383 . S
C1123 H1131 0.929 . S
C1124 C1123 1.383 . S
C1124 C1125 1.377 . S
C1125 H1109 0.930 . S
C1125 C1124 1.377 . S
C1125 C1126 1.379 . S
C1126 H1110 0.931 . S
C1126 C1120 1.383 . S
C1126 C1125 1.379 . S
H1127 C1121 0.959 . S
H1128 C1121 0.961 . S
H1129 C1121 0.960 . S
H1130 C1122 0.930 . S
H1131 C1123 0.929 . S
H1132 C1140 0.929 . S
H1133 C1142 0.930 . S
H1134 C1144 0.930 . S
H1135 C1147 0.929 . S
H1136 C1150 0.930 . S
H1137 C1152 0.960 . S
H1138 C1152 0.960 . S
H1139 C1152 0.960 . S
C1140 H1132 0.929 . S
C1140 C1141 1.377 . S
C1140 C1142 1.384 . S
C1141 C1140 1.377 . S
C1141 C1147 1.390 . S
C1142 H1133 0.930 . S
C1142 C1140 1.384 . S
C1142 C1143 1.371 1_554 S
C1143 C1142 1.371 1_556 S
C1143 C1144 1.399 1_556 S
C1143 C1148 1.492 . S
C1144 H1134 0.930 . S
C1144 C1143 1.399 1_554 S
C1144 C1147 1.386 . S
H1145 C1161 0.930 . S
H1146 C1162 0.931 . S
C1147 H1135 0.929 . S
C1147 C1141 1.390 . S
C1147 C1144 1.386 . S
C1148 C1143 1.492 . S
C1148 C1150 1.395 . S
C1148 C1151 1.403 . S
H1149 C1155 0.930 . S
C1150 H1136 0.930 . S
C1150 C1148 1.395 . S
C1150 C1153 1.403 . S
C1151 C1148 1.403 . S
C1151 C1152 1.524 1_556 S
C1151 C1155 1.400 . S
C1152 H1137 0.960 . S
C1152 H1138 0.960 . S
C1152 H1139 0.960 . S
C1152 C1151 1.524 1_554 S
C1153 C1150 1.403 . S
C1153 C1154 1.392 . S
C1153 C1157 1.495 . S
C1154 C1153 1.392 . S
C1154 C1155 1.385 . S
C1154 C1156 1.478 . S
C1155 H1149 0.930 . S
C1155 C1151 1.400 . S
C1155 C1154 1.385 . S
C1156 C1154 1.478 . S
C1156 C1158 1.381 . S
C1156 C1162 1.383 . S
C1157 C1153 1.495 . S
C1157 H1163 0.959 . S
C1157 H1164 0.961 . S
C1157 H1165 0.960 . S
C1158 C1156 1.381 . S
C1158 C1159 1.394 . S
C1158 H1166 0.930 . S
C1159 C1158 1.394 . S
C1159 C1160 1.383 . S
C1159 H1167 0.929 . S
C1160 C1159 1.383 . S
C1160 C1161 1.377 . S
C1161 H1145 0.930 . S
C1161 C1160 1.377 . S
C1161 C1162 1.379 . S
C1162 H1146 0.931 . S
C1162 C1156 1.383 . S
C1162 C1161 1.379 . S
H1163 C1157 0.959 . S
H1164 C1157 0.961 . S
H1165 C1157 0.960 . S
H1166 C1158 0.930 . S
H1167 C1159 0.929 . S
H1168 C1176 0.929 . S
H1169 C1178 0.930 . S
H1170 C1180 0.930 . S
H1171 C1183 0.929 . S
H1172 C1186 0.930 . S
H1173 C1188 0.960 . S
H1174 C1188 0.960 . S
H1175 C1188 0.960 . S
C1176 H1168 0.929 . S
C1176 C1177 1.377 . S
C1176 C1178 1.384 . S
C1177 C1176 1.377 . S
C1177 C1183 1.390 . S
C1178 H1169 0.930 . S
C1178 C1176 1.384 . S
C1178 C1179 1.372 . S
C1179 C1178 1.372 . S
C1179 C1180 1.400 . S
C1179 C1184 1.490 . S
C1180 H1170 0.930 . S
C1180 C1179 1.400 . S
C1180 C1183 1.386 . S
H1181 C1197 0.930 1_655 S
H1182 C1198 0.931 . S
C1183 H1171 0.929 . S
C1183 C1177 1.390 . S
C1183 C1180 1.386 . S
C1184 C1179 1.490 . S
C1184 C1186 1.395 . S
C1184 C1187 1.403 . S
H1185 C1191 0.930 . S
C1186 H1172 0.930 . S
C1186 C1184 1.395 . S
C1186 C1189 1.403 . S
C1187 C1184 1.403 . S
C1187 C1188 1.524 . S
C1187 C1191 1.400 . S
C1188 H1173 0.960 . S
C1188 H1174 0.960 . S
C1188 H1175 0.960 . S
C1188 C1187 1.524 . S
C1189 C1186 1.403 . S
C1189 C1190 1.392 . S
C1189 C1193 1.495 . S
C1190 C1189 1.392 . S
C1190 C1191 1.385 . S
C1190 C1192 1.478 . S
C1191 H1185 0.930 . S
C1191 C1187 1.400 . S
C1191 C1190 1.385 . S
C1192 C1190 1.478 . S
C1192 C1194 1.381 . S
C1192 C1198 1.383 . S
C1193 C1189 1.495 . S
C1193 H1199 0.959 . S
C1193 H1200 0.961 . S
C1193 H1201 0.960 . S
C1194 C1192 1.381 . S
C1194 C1195 1.394 . S
C1194 H1202 0.930 . S
C1195 C1194 1.394 . S
C1195 C1196 1.383 . S
C1195 H1203 0.929 . S
C1196 C1195 1.383 . S
C1196 C1197 1.377 . S
C1197 H1181 0.930 1_455 S
C1197 C1196 1.377 . S
C1197 C1198 1.379 . S
C1198 H1182 0.931 . S
C1198 C1192 1.383 . S
C1198 C1197 1.379 . S
H1199 C1193 0.959 . S
H1200 C1193 0.961 . S
H1201 C1193 0.960 . S
H1202 C1194 0.930 . S
H1203 C1195 0.929 . S
H1204 C1212 0.929 . S
H1205 C1214 0.930 . S
H1206 C1216 0.930 . S
H1207 C1219 0.929 . S
H1208 C1222 0.930 . S
H1209 C1224 0.960 . S
H1210 C1224 0.960 . S
H1211 C1224 0.960 . S
C1212 H1204 0.929 . S
C1212 C1213 1.377 . S
C1212 C1214 1.384 . S
C1213 C1212 1.377 . S
C1213 C1219 1.390 . S
C1214 H1205 0.930 . S
C1214 C1212 1.384 . S
C1214 C1215 1.372 . S
C1215 C1214 1.372 . S
C1215 C1216 1.400 . S
C1215 C1220 1.490 . S
C1216 H1206 0.930 . S
C1216 C1215 1.400 . S
C1216 C1219 1.386 . S
H1217 C1233 0.930 1_565 S
H1218 C1234 0.932 1_565 S
C1219 H1207 0.929 . S
C1219 C1213 1.390 . S
C1219 C1216 1.386 . S
C1220 C1215 1.490 . S
C1220 C1222 1.395 . S
C1220 C1223 1.403 . S
H1221 C1227 0.930 . S
C1222 H1208 0.930 . S
C1222 C1220 1.395 . S
C1222 C1225 1.403 . S
C1223 C1220 1.403 . S
C1223 C1224 1.524 . S
C1223 C1227 1.400 . S
C1224 H1209 0.960 . S
C1224 H1210 0.960 . S
C1224 H1211 0.960 . S
C1224 C1223 1.524 . S
C1225 C1222 1.403 . S
C1225 C1226 1.392 . S
C1225 C1229 1.495 . S
C1226 C1225 1.392 . S
C1226 C1227 1.385 . S
C1226 C1228 1.478 . S
C1227 H1221 0.930 . S
C1227 C1223 1.400 . S
C1227 C1226 1.385 . S
C1228 C1226 1.478 . S
C1228 C1230 1.381 . S
C1228 C1234 1.383 . S
C1229 C1225 1.495 . S
C1229 H1235 0.959 . S
C1229 H1236 0.961 . S
C1229 H1237 0.960 . S
C1230 C1228 1.381 . S
C1230 C1231 1.394 . S
C1230 H1238 0.930 . S
C1231 C1230 1.394 . S
C1231 C1232 1.383 . S
C1231 H1239 0.929 . S
C1232 C1231 1.383 . S
C1232 C1233 1.377 . S
C1233 H1217 0.930 1_545 S
C1233 C1232 1.377 . S
C1233 C1234 1.379 . S
C1234 H1218 0.932 1_545 S
C1234 C1228 1.383 . S
C1234 C1233 1.379 . S
H1235 C1229 0.959 . S
H1236 C1229 0.961 . S
H1237 C1229 0.960 . S
H1238 C1230 0.930 . S
H1239 C1231 0.929 . S
H1240 C1248 0.929 . S
H1241 C1250 0.930 . S
H1242 C1252 0.930 . S
H1243 C1255 0.929 . S
H1244 C1258 0.930 . S
H1245 C1260 0.960 . S
H1246 C1260 0.960 . S
H1247 C1260 0.960 . S
C1248 H1240 0.929 . S
C1248 C1249 1.377 . S
C1248 C1250 1.384 . S
C1249 C1248 1.377 . S
C1249 C1255 1.390 . S
C1250 H1241 0.930 . S
C1250 C1248 1.384 . S
C1250 C1251 1.372 . S
C1251 C1250 1.372 . S
C1251 C1252 1.400 . S
C1251 C1256 1.490 . S
C1252 H1242 0.930 . S
C1252 C1251 1.400 . S
C1252 C1255 1.386 . S
H1253 C1269 0.930 . S
H1254 C1270 0.931 . S
C1255 H1243 0.929 . S
C1255 C1249 1.390 . S
C1255 C1252 1.386 . S
C1256 C1251 1.490 . S
C1256 C1258 1.395 . S
C1256 C1259 1.403 . S
H1257 C1263 0.930 . S
C1258 H1244 0.930 . S
C1258 C1256 1.395 . S
C1258 C1261 1.403 . S
C1259 C1256 1.403 . S
C1259 C1260 1.524 . S
C1259 C1263 1.400 . S
C1260 H1245 0.960 . S
C1260 H1246 0.960 . S
C1260 H1247 0.960 . S
C1260 C1259 1.524 . S
C1261 C1258 1.403 . S
C1261 C1262 1.392 . S
C1261 C1265 1.495 . S
C1262 C1261 1.392 . S
C1262 C1263 1.385 . S
C1262 C1264 1.478 . S
C1263 H1257 0.930 . S
C1263 C1259 1.400 . S
C1263 C1262 1.385 . S
C1264 C1262 1.478 . S
C1264 C1266 1.381 . S
C1264 C1270 1.383 . S
C1265 C1261 1.495 . S
C1265 H1271 0.959 . S
C1265 H1272 0.961 . S
C1265 H1273 0.960 . S
C1266 C1264 1.381 . S
C1266 C1267 1.394 . S
C1266 H1274 0.930 . S
C1267 C1266 1.394 . S
C1267 C1268 1.383 . S
C1267 H1275 0.929 . S
C1268 C1267 1.383 . S
C1268 C1269 1.377 . S
C1269 H1253 0.930 . S
C1269 C1268 1.377 . S
C1269 C1270 1.379 . S
C1270 H1254 0.931 . S
C1270 C1264 1.383 . S
C1270 C1269 1.379 . S
H1271 C1265 0.959 . S
H1272 C1265 0.961 . S
H1273 C1265 0.960 . S
H1274 C1266 0.930 . S
H1275 C1267 0.929 . S
H1276 C1284 0.929 . S
H1277 C1286 0.930 . S
H1278 C1288 0.930 . S
H1279 C1291 0.929 . S
H1280 C1294 0.930 . S
H1281 C1296 0.960 . S
H1282 C1296 0.960 . S
H1283 C1296 0.960 . S
C1284 H1276 0.929 . S
C1284 C1285 1.377 . S
C1284 C1286 1.384 . S
C1285 C1284 1.377 . S
C1285 C1291 1.390 . S
C1286 H1277 0.930 . S
C1286 C1284 1.384 . S
C1286 C1287 1.372 . S
C1287 C1286 1.372 . S
C1287 C1288 1.400 . S
C1287 C1292 1.490 . S
C1288 H1278 0.930 . S
C1288 C1287 1.400 . S
C1288 C1291 1.386 . S
H1289 C1305 0.930 . S
H1290 C1306 0.931 . S
C1291 H1279 0.929 . S
C1291 C1285 1.390 . S
C1291 C1288 1.386 . S
C1292 C1287 1.490 . S
C1292 C1294 1.395 . S
C1292 C1295 1.403 . S
H1293 C1299 0.930 . S
C1294 H1280 0.930 . S
C1294 C1292 1.395 . S
C1294 C1297 1.403 . S
C1295 C1292 1.403 . S
C1295 C1296 1.524 . S
C1295 C1299 1.400 . S
C1296 H1281 0.960 . S
C1296 H1282 0.960 . S
C1296 H1283 0.960 . S
C1296 C1295 1.524 . S
C1297 C1294 1.403 . S
C1297 C1298 1.392 . S
C1297 C1301 1.495 . S
C1298 C1297 1.392 . S
C1298 C1299 1.385 . S
C1298 C1300 1.478 . S
C1299 H1293 0.930 . S
C1299 C1295 1.400 . S
C1299 C1298 1.385 . S
C1300 C1298 1.478 . S
C1300 C1302 1.381 . S
C1300 C1306 1.383 . S
C1301 C1297 1.495 . S
C1301 H1307 0.959 . S
C1301 H1308 0.961 . S
C1301 H1309 0.960 . S
C1302 C1300 1.381 . S
C1302 C1303 1.394 . S
C1302 H1310 0.930 . S
C1303 C1302 1.394 . S
C1303 C1304 1.383 . S
C1303 H1311 0.929 . S
C1304 C1303 1.383 . S
C1304 C1305 1.377 . S
C1305 H1289 0.930 . S
C1305 C1304 1.377 . S
C1305 C1306 1.379 . S
C1306 H1290 0.931 . S
C1306 C1300 1.383 . S
C1306 C1305 1.379 . S
H1307 C1301 0.959 . S
H1308 C1301 0.961 . S
H1309 C1301 0.960 . S
H1310 C1302 0.930 . S
H1311 C1303 0.929 . S
H1312 C1320 0.929 . S
H1313 C1322 0.930 . S
H1314 C1324 0.930 . S
H1315 C1327 0.929 . S
H1316 C1330 0.930 . S
H1317 C1332 0.960 . S
H1318 C1332 0.960 1_455 S
H1319 C1332 0.960 . S
C1320 H1312 0.929 . S
C1320 C1321 1.377 . S
C1320 C1322 1.384 . S
C1321 C1320 1.377 . S
C1321 C1327 1.390 . S
C1322 H1313 0.930 . S
C1322 C1320 1.384 . S
C1322 C1323 1.372 . S
C1323 C1322 1.372 . S
C1323 C1324 1.400 . S
C1323 C1328 1.490 . S
C1324 H1314 0.930 . S
C1324 C1323 1.400 . S
C1324 C1327 1.386 . S
H1325 C1341 0.930 . S
H1326 C1342 0.931 . S
C1327 H1315 0.929 . S
C1327 C1321 1.390 . S
C1327 C1324 1.386 . S
C1328 C1323 1.490 . S
C1328 C1330 1.395 . S
C1328 C1331 1.403 . S
H1329 C1335 0.930 . S
C1330 H1316 0.930 . S
C1330 C1328 1.395 . S
C1330 C1333 1.403 . S
C1331 C1328 1.403 . S
C1331 C1332 1.524 . S
C1331 C1335 1.400 . S
C1332 H1317 0.960 . S
C1332 H1318 0.960 1_655 S
C1332 H1319 0.960 . S
C1332 C1331 1.524 . S
C1333 C1330 1.403 . S
C1333 C1334 1.392 . S
C1333 C1337 1.495 . S
C1334 C1333 1.392 . S
C1334 C1335 1.385 . S
C1334 C1336 1.478 . S
C1335 H1329 0.930 . S
C1335 C1331 1.400 . S
C1335 C1334 1.385 . S
C1336 C1334 1.478 . S
C1336 C1338 1.381 . S
C1336 C1342 1.383 . S
C1337 C1333 1.495 . S
C1337 H1343 0.959 . S
C1337 H1344 0.961 . S
C1337 H1345 0.960 . S
C1338 C1336 1.381 . S
C1338 C1339 1.394 1_655 S
C1338 H1346 0.930 1_655 S
C1339 C1338 1.394 1_455 S
C1339 C1340 1.383 1_455 S
C1339 H1347 0.929 . S
C1340 C1339 1.383 1_655 S
C1340 C1341 1.377 . S
C1341 H1325 0.930 . S
C1341 C1340 1.377 . S
C1341 C1342 1.379 . S
C1342 H1326 0.931 . S
C1342 C1336 1.383 . S
C1342 C1341 1.379 . S
H1343 C1337 0.959 . S
H1344 C1337 0.961 . S
H1345 C1337 0.960 . S
H1346 C1338 0.930 1_455 S
H1347 C1339 0.929 . S
H1348 C1356 0.929 . S
H1349 C1358 0.930 . S
H1350 C1360 0.930 1_545 S
H1351 C1363 0.929 . S
H1352 C1366 0.930 . S
H1353 C1368 0.960 1_545 S
H1354 C1368 0.960 . S
H1355 C1368 0.960 1_545 S
C1356 H1348 0.929 . S
C1356 C1357 1.377 . S
C1356 C1358 1.384 . S
C1357 C1356 1.377 . S
C1357 C1363 1.390 . S
C1358 H1349 0.930 . S
C1358 C1356 1.384 . S
C1358 C1359 1.372 . S
C1359 C1358 1.372 . S
C1359 C1360 1.400 . S
C1359 C1364 1.490 . S
C1360 H1350 0.930 1_565 S
C1360 C1359 1.400 . S
C1360 C1363 1.386 . S
H1361 C1377 0.930 . S
H1362 C1378 0.931 . S
C1363 H1351 0.929 . S
C1363 C1357 1.390 . S
C1363 C1360 1.386 . S
C1364 C1359 1.490 . S
C1364 C1366 1.395 . S
C1364 C1367 1.403 . S
H1365 C1371 0.930 . S
C1366 H1352 0.930 . S
C1366 C1364 1.395 . S
C1366 C1369 1.403 . S
C1367 C1364 1.403 . S
C1367 C1368 1.524 . S
C1367 C1371 1.400 . S
C1368 H1353 0.960 1_565 S
C1368 H1354 0.960 . S
C1368 H1355 0.960 1_565 S
C1368 C1367 1.524 . S
C1369 C1366 1.403 . S
C1369 C1370 1.392 . S
C1369 C1373 1.495 . S
C1370 C1369 1.392 . S
C1370 C1371 1.385 . S
C1370 C1372 1.478 . S
C1371 H1365 0.930 . S
C1371 C1367 1.400 . S
C1371 C1370 1.385 . S
C1372 C1370 1.478 . S
C1372 C1374 1.381 . S
C1372 C1378 1.383 1_565 S
C1373 C1369 1.495 . S
C1373 H1379 0.959 . S
C1373 H1380 0.961 . S
C1373 H1381 0.960 . S
C1374 C1372 1.381 . S
C1374 C1375 1.394 . S
C1374 H1382 0.930 . S
C1375 C1374 1.394 . S
C1375 C1376 1.383 . S
C1375 H1383 0.929 . S
C1376 C1375 1.383 . S
C1376 C1377 1.377 1_565 S
C1377 H1361 0.930 . S
C1377 C1376 1.377 1_545 S
C1377 C1378 1.379 . S
C1378 H1362 0.931 . S
C1378 C1372 1.383 1_545 S
C1378 C1377 1.379 . S
H1379 C1373 0.959 . S
H1380 C1373 0.961 . S
H1381 C1373 0.960 . S
H1382 C1374 0.930 . S
H1383 C1375 0.929 . S
H1384 C1392 0.929 . S
H1385 C1394 0.930 . S
H1386 C1396 0.930 . S
H1387 C1399 0.929 . S
H1388 C1402 0.930 . S
H1389 C1404 0.960 . S
H1390 C1404 0.960 . S
H1391 C1404 0.960 . S
C1392 H1384 0.929 . S
C1392 C1393 1.377 . S
C1392 C1394 1.384 . S
C1393 C1392 1.377 . S
C1393 C1399 1.390 . S
C1394 H1385 0.930 . S
C1394 C1392 1.384 . S
C1394 C1395 1.372 . S
C1395 C1394 1.372 . S
C1395 C1396 1.400 . S
C1395 C1400 1.490 . S
C1396 H1386 0.930 . S
C1396 C1395 1.400 . S
C1396 C1399 1.386 . S
H1397 C1413 0.930 . S
H1398 C1414 0.931 . S
C1399 H1387 0.929 . S
C1399 C1393 1.390 . S
C1399 C1396 1.386 . S
C1400 C1395 1.490 . S
C1400 C1402 1.395 . S
C1400 C1403 1.403 . S
H1401 C1407 0.930 . S
C1402 H1388 0.930 . S
C1402 C1400 1.395 . S
C1402 C1405 1.403 . S
C1403 C1400 1.403 . S
C1403 C1404 1.524 . S
C1403 C1407 1.400 . S
C1404 H1389 0.960 . S
C1404 H1390 0.960 . S
C1404 H1391 0.960 . S
C1404 C1403 1.524 . S
C1405 C1402 1.403 . S
C1405 C1406 1.392 . S
C1405 C1409 1.495 . S
C1406 C1405 1.392 . S
C1406 C1407 1.385 . S
C1406 C1408 1.478 . S
C1407 H1401 0.930 . S
C1407 C1403 1.400 . S
C1407 C1406 1.385 . S
C1408 C1406 1.478 . S
C1408 C1410 1.381 . S
C1408 C1414 1.383 . S
C1409 C1405 1.495 . S
C1409 H1415 0.959 . S
C1409 H1416 0.961 . S
C1409 H1417 0.960 . S
C1410 C1408 1.381 . S
C1410 C1411 1.394 . S
C1410 H1418 0.930 . S
C1411 C1410 1.394 . S
C1411 C1412 1.383 . S
C1411 H1419 0.929 . S
C1412 C1411 1.383 . S
C1412 C1413 1.377 . S
C1413 H1397 0.930 . S
C1413 C1412 1.377 . S
C1413 C1414 1.379 . S
C1414 H1398 0.931 . S
C1414 C1408 1.383 . S
C1414 C1413 1.379 . S
H1415 C1409 0.959 . S
H1416 C1409 0.961 . S
H1417 C1409 0.960 . S
H1418 C1410 0.930 . S
H1419 C1411 0.929 . S
H1420 C1428 0.929 . S
H1421 C1430 0.930 . S
H1422 C1432 0.930 . S
H1423 C1435 0.929 . S
H1424 C1438 0.930 . S
H1425 C1440 0.960 . S
H1426 C1440 0.960 . S
H1427 C1440 0.960 . S
C1428 H1420 0.929 . S
C1428 C1429 1.377 . S
C1428 C1430 1.384 . S
C1429 C1428 1.377 . S
C1429 C1435 1.390 . S
C1430 H1421 0.930 . S
C1430 C1428 1.384 . S
C1430 C1431 1.372 . S
C1431 C1430 1.372 . S
C1431 C1432 1.400 . S
C1431 C1436 1.490 . S
C1432 H1422 0.930 . S
C1432 C1431 1.400 . S
C1432 C1435 1.386 . S
H1433 C1449 0.930 . S
H1434 C1450 0.931 . S
C1435 H1423 0.929 . S
C1435 C1429 1.390 . S
C1435 C1432 1.386 . S
C1436 C1431 1.490 . S
C1436 C1438 1.395 . S
C1436 C1439 1.403 . S
H1437 C1443 0.930 . S
C1438 H1424 0.930 . S
C1438 C1436 1.395 . S
C1438 C1441 1.403 . S
C1439 C1436 1.403 . S
C1439 C1440 1.524 . S
C1439 C1443 1.400 . S
C1440 H1425 0.960 . S
C1440 H1426 0.960 . S
C1440 H1427 0.960 . S
C1440 C1439 1.524 . S
C1441 C1438 1.403 . S
C1441 C1442 1.392 . S
C1441 C1445 1.495 . S
C1442 C1441 1.392 . S
C1442 C1443 1.385 . S
C1442 C1444 1.478 . S
C1443 H1437 0.930 . S
C1443 C1439 1.400 . S
C1443 C1442 1.385 . S
C1444 C1442 1.478 . S
C1444 C1446 1.381 . S
C1444 C1450 1.383 . S
C1445 C1441 1.495 . S
C1445 H1451 0.959 . S
C1445 H1452 0.961 . S
C1445 H1453 0.960 . S
C1446 C1444 1.381 . S
C1446 C1447 1.394 . S
C1446 H1454 0.930 . S
C1447 C1446 1.394 . S
C1447 C1448 1.383 . S
C1447 H1455 0.929 . S
C1448 C1447 1.383 . S
C1448 C1449 1.377 . S
C1449 H1433 0.930 . S
C1449 C1448 1.377 . S
C1449 C1450 1.379 . S
C1450 H1434 0.931 . S
C1450 C1444 1.383 . S
C1450 C1449 1.379 . S
H1451 C1445 0.959 . S
H1452 C1445 0.961 . S
H1453 C1445 0.960 . S
H1454 C1446 0.930 . S
H1455 C1447 0.929 . S
C601 C215 1.973 . S
C620 C319 2.027 . S
C656 C396 2.068 . S
C637 C247 1.991 . S
C692 C487 2.017 . S
C673 C151 1.961 . S
C728 C571 2.021 . S
C709 C183 1.943 . S
C764 C330 2.051 1_565 S
C745 C87 1.914 . S
C781 C119 1.916 . S
C800 C407 2.046 . S
C817 C23 1.894 . S
C836 C498 2.017 . S
C853 C55 1.888 . S
C872 C582 2.025 1_655 S
C908 C314 0.493 1_455 S
C889 C189 0.281 . S
C944 C409 0.634 . S
C925 C221 0.237 . S
C980 C482 0.411 . S
C961 C253 0.285 . S
C997 C157 0.279 . S
C1016 C566 0.481 . S
C1033 C61 0.504 . S
C1052 C325 0.441 . S
C1088 C398 0.458 . S
C1069 C93 0.500 . S
C1124 C493 0.513 . S
C1105 C125 0.476 . S
C1141 C29 0.463 . S
C1160 C577 0.402 . S
C1177 C177 2.195 . S
C1196 C323 2.364 . S
C1213 C209 2.192 . S
C1232 C414 2.354 . S
C1268 C491 2.374 . S
C1249 C241 2.213 . S
C1304 C575 2.391 . S
C1285 C145 2.223 . S
C1321 C49 2.142 . S
C1340 C312 2.362 . S
C1376 C403 2.361 . S
C1357 C81 2.130 . S
C1412 C480 2.385 . S
C1393 C113 2.168 . S
C1429 C17 2.173 . S
C1448 C564 2.376 . S
