# Generated by pormake.
# Topology zzz, (3,6)-cn, num edge types: 1
# Building blocks:
#     Node 0, Type 0, BuildingBlock: KAKCAD_clean_linker_0, # of connection points: 3
#     Node 1, Type 0, BuildingBlock: KAKCAD_clean_linker_0, # of connection points: 3
#     Node 2, Type 0, BuildingBlock: KAKCAD_clean_linker_0, # of connection points: 3
#     Node 3, Type 0, BuildingBlock: KAKCAD_clean_linker_0, # of connection points: 3
#     Node 4, Type 0, BuildingBlock: KAKCAD_clean_linker_0, # of connection points: 3
#     Node 5, Type 0, BuildingBlock: KAKCAD_clean_linker_0, # of connection points: 3
#     Node 6, Type 0, BuildingBlock: KAKCAD_clean_linker_0, # of connection points: 3
#     Node 7, Type 0, BuildingBlock: KAKCAD_clean_linker_0, # of connection points: 3
#     Node 8, Type 1, BuildingBlock: BETDEL_clean_sbu_0, # of connection points: 6
#     Node 9, Type 1, BuildingBlock: BETDEL_clean_sbu_0, # of connection points: 6
#     Node 10, Type 1, BuildingBlock: BETDEL_clean_sbu_0, # of connection points: 6
#     Node 11, Type 1, BuildingBlock: BETDEL_clean_sbu_0, # of connection points: 6
#     Edge 12, Type (0, 1), BuildingBlock: MIFKUJ_clean_linker_0, # of connection points: 2
#     Edge 13, Type (0, 1), BuildingBlock: MIFKUJ_clean_linker_0, # of connection points: 2
#     Edge 14, Type (0, 1), BuildingBlock: MIFKUJ_clean_linker_0, # of connection points: 2
#     Edge 15, Type (0, 1), BuildingBlock: MIFKUJ_clean_linker_0, # of connection points: 2
#     Edge 16, Type (0, 1), BuildingBlock: MIFKUJ_clean_linker_0, # of connection points: 2
#     Edge 17, Type (0, 1), BuildingBlock: MIFKUJ_clean_linker_0, # of connection points: 2
#     Edge 18, Type (0, 1), BuildingBlock: MIFKUJ_clean_linker_0, # of connection points: 2
#     Edge 19, Type (0, 1), BuildingBlock: MIFKUJ_clean_linker_0, # of connection points: 2
#     Edge 20, Type (0, 1), BuildingBlock: MIFKUJ_clean_linker_0, # of connection points: 2
#     Edge 21, Type (0, 1), BuildingBlock: MIFKUJ_clean_linker_0, # of connection points: 2
#     Edge 22, Type (0, 1), BuildingBlock: MIFKUJ_clean_linker_0, # of connection points: 2
#     Edge 23, Type (0, 1), BuildingBlock: MIFKUJ_clean_linker_0, # of connection points: 2
#     Edge 24, Type (0, 1), BuildingBlock: MIFKUJ_clean_linker_0, # of connection points: 2
#     Edge 25, Type (0, 1), BuildingBlock: MIFKUJ_clean_linker_0, # of connection points: 2
#     Edge 26, Type (0, 1), BuildingBlock: MIFKUJ_clean_linker_0, # of connection points: 2
#     Edge 27, Type (0, 1), BuildingBlock: MIFKUJ_clean_linker_0, # of connection points: 2
#     Edge 28, Type (0, 1), BuildingBlock: MIFKUJ_clean_linker_0, # of connection points: 2
#     Edge 29, Type (0, 1), BuildingBlock: MIFKUJ_clean_linker_0, # of connection points: 2
#     Edge 30, Type (0, 1), BuildingBlock: MIFKUJ_clean_linker_0, # of connection points: 2
#     Edge 31, Type (0, 1), BuildingBlock: MIFKUJ_clean_linker_0, # of connection points: 2
#     Edge 32, Type (0, 1), BuildingBlock: MIFKUJ_clean_linker_0, # of connection points: 2
#     Edge 33, Type (0, 1), BuildingBlock: MIFKUJ_clean_linker_0, # of connection points: 2
#     Edge 34, Type (0, 1), BuildingBlock: MIFKUJ_clean_linker_0, # of connection points: 2
#     Edge 35, Type (0, 1), BuildingBlock: MIFKUJ_clean_linker_0, # of connection points: 2
# Relax obj value: 0.322
# Max RMSD: 0.226
# Mean RMSD: 0.207
data_MOF--net-zzz--node1-BETDEL_clean_sbu_0--node2-KAKCAD_clean_linker_0--edge1-MIFKUJ_clean_linker_0
_symmetry_space_group_name_H-M    P1
_symmetry_Int_Tables_number       1
_symmetry_cell_setting            triclinic
loop_
_symmetry_equiv_pos_as_xyz
'x, y, z'
_cell_length_a     71.308964
_cell_length_b     70.609495
_cell_length_c     24.908233
_cell_angle_alpha  91.151328
_cell_angle_beta   89.589724
_cell_angle_gamma 96.255439
loop_
_atom_site_label
_atom_site_type_symbol
_atom_site_fract_x
_atom_site_fract_y
_atom_site_fract_z
_atom_type_partial_charge
C0 C 0.79313 0.43517 0.92647 0.0
C1 C 0.80347 0.42187 0.95116 0.0
C2 C 0.77781 0.44199 0.95277 0.0
C3 C 0.77264 0.43586 0.00453 0.0
C4 C 0.78186 0.42142 0.02739 0.0
C5 C 0.79701 0.41434 0.00071 0.0
C6 C 0.76031 0.44699 0.03768 0.0
C7 C 0.74312 0.45174 0.01803 0.0
C8 C 0.73315 0.46512 0.04552 0.0
C9 C 0.74083 0.47413 0.09278 0.0
C10 C 0.75785 0.46894 0.11345 0.0
C11 C 0.76726 0.45524 0.08606 0.0
C12 C 0.76745 0.47857 0.16051 0.0
C13 C 0.77843 0.4961 0.15385 0.0
C14 C 0.76996 0.46802 0.20659 0.0
C15 C 0.78414 0.4742 0.24346 0.0
C16 C 0.79629 0.49091 0.2344 0.0
C17 C 0.71522 0.4699 0.02219 0.0
C18 C 0.71321 0.4885 0.006 0.0
C19 C 0.70097 0.45522 0.00949 0.0
C20 C 0.68546 0.45883 0.97886 0.0
C21 C 0.68396 0.47717 0.95935 0.0
C22 C 0.69775 0.4921 0.97468 0.0
C23 C 0.79277 0.5022 0.19042 0.0
H24 H 0.79769 0.44151 0.88873 0.0
H25 H 0.77105 0.45327 0.93451 0.0
H26 H 0.778 0.41637 0.06717 0.0
H27 H 0.80429 0.40373 0.02029 0.0
H28 H 0.7378 0.44548 0.98026 0.0
H29 H 0.78083 0.452 0.10069 0.0
H30 H 0.73363 0.48494 0.11334 0.0
H31 H 0.77701 0.50426 0.11801 0.0
H32 H 0.76192 0.45424 0.21184 0.0
H33 H 0.78656 0.46509 0.27663 0.0
H34 H 0.72413 0.50002 0.01487 0.0
H35 H 0.70215 0.44077 0.02183 0.0
H36 H 0.80179 0.51523 0.18266 0.0
H37 H 0.69714 0.50638 0.96024 0.0
H38 H 0.6749 0.44707 0.96923 0.0
C39 C 0.93999 0.77169 0.94715 0.0
C40 C 0.94984 0.78922 0.96246 0.0
C41 C 0.93692 0.75702 0.98436 0.0
C42 C 0.94398 0.75964 0.037 0.0
C43 C 0.95414 0.77722 0.05131 0.0
C44 C 0.95682 0.79188 0.0147 0.0
C45 C 0.94156 0.74413 0.07691 0.0
C46 C 0.94293 0.7251 0.06171 0.0
C47 C 0.9435 0.71093 0.10056 0.0
C48 C 0.94343 0.7162 0.15556 0.0
C49 C 0.94142 0.73514 0.17093 0.0
C50 C 0.9398 0.7487 0.13152 0.0
C51 C 0.9439 0.74244 0.22668 0.0
C52 C 0.92915 0.75099 0.25177 0.0
C53 C 0.96236 0.74686 0.24571 0.0
C54 C 0.96632 0.76133 0.28446 0.0
C55 C 0.95183 0.77136 0.30528 0.0
C56 C 0.94536 0.69105 0.08217 0.0
C57 C 0.93449 0.68314 0.03876 0.0
C58 C 0.95912 0.68062 0.10368 0.0
C59 C 0.9627 0.66317 0.08003 0.0
C60 C 0.95254 0.6558 0.03453 0.0
C61 C 0.93805 0.66579 0.01518 0.0
C62 C 0.93308 0.76526 0.29116 0.0
H63 H 0.93457 0.76943 0.90674 0.0
H64 H 0.92897 0.74373 0.97197 0.0
H65 H 0.96044 0.77964 0.09061 0.0
H66 H 0.96475 0.80523 0.02686 0.0
H67 H 0.94459 0.72141 0.01964 0.0
H68 H 0.93835 0.76328 0.14397 0.0
H69 H 0.94491 0.70573 0.18602 0.0
H70 H 0.91486 0.74808 0.23689 0.0
H71 H 0.97399 0.74074 0.22621 0.0
H72 H 0.98089 0.76572 0.29494 0.0
H73 H 0.92363 0.69075 0.02168 0.0
H74 H 0.96776 0.68637 0.13702 0.0
H75 H 0.92166 0.77283 0.30638 0.0
H76 H 0.93004 0.66076 0.97997 0.0
H77 H 0.97378 0.65572 0.09648 0.0
C78 C 0.70214 0.0512 0.9892 0.0
C79 C 0.70999 0.06366 0.94991 0.0
C80 C 0.71366 0.04135 0.02085 0.0
C81 C 0.73341 0.04397 0.0148 0.0
C82 C 0.74129 0.05679 0.97599 0.0
C83 C 0.72965 0.0664 0.94341 0.0
C84 C 0.74542 0.03264 0.04749 0.0
C85 C 0.76128 0.02531 0.02502 0.0
C86 C 0.77156 0.01307 0.0541 0.0
C87 C 0.76554 0.00776 0.10635 0.0
C88 C 0.74967 0.01513 0.12946 0.0
C89 C 0.74016 0.02789 0.10027 0.0
C90 C 0.74109 0.00839 0.18112 0.0
C91 C 0.73352 0.98929 0.18589 0.0
C92 C 0.73628 0.02178 0.21997 0.0
C93 C 0.72287 0.01657 0.25975 0.0
C94 C 0.71387 0.99784 0.2615 0.0
C95 C 0.78833 0.00591 0.02814 0.0
C96 C 0.78686 0.99792 0.976 0.0
C97 C 0.80623 0.00927 0.05183 0.0
C98 C 0.82244 0.00575 0.02263 0.0
C99 C 0.82103 0.99859 0.96941 0.0
C100 C 0.80298 0.99426 0.94708 0.0
C101 C 0.72002 0.98406 0.22566 0.0
H102 H 0.68697 0.04847 0.99401 0.0
H103 H 0.70695 0.03119 0.04888 0.0
H104 H 0.75643 0.05933 0.97054 0.0
H105 H 0.73597 0.07589 0.91305 0.0
H106 H 0.76551 0.02881 0.98422 0.0
H107 H 0.72799 0.03353 0.11825 0.0
H108 H 0.77292 0.99779 0.12838 0.0
H109 H 0.73682 0.97873 0.15616 0.0
H110 H 0.74181 0.03663 0.21694 0.0
H111 H 0.71849 0.02761 0.28632 0.0
H112 H 0.77323 0.99519 0.95678 0.0
H113 H 0.80776 0.01554 0.09182 0.0
H114 H 0.71364 0.96943 0.22646 0.0
H115 H 0.80132 0.98891 0.90614 0.0
H116 H 0.83612 0.00905 0.04124 0.0
C117 C 0.54191 0.72546 0.23599 0.0
C118 C 0.55497 0.71894 0.27142 0.0
C119 C 0.54764 0.73983 0.1996 0.0
C120 C 0.56654 0.74777 0.19772 0.0
C121 C 0.57928 0.74222 0.23556 0.0
C122 C 0.57349 0.72806 0.27253 0.0
C123 C 0.57382 0.75735 0.14844 0.0
C124 C 0.57029 0.77596 0.13599 0.0
C125 C 0.57614 0.78372 0.08603 0.0
C126 C 0.58503 0.7724 0.0485 0.0
C127 C 0.58784 0.75352 0.05975 0.0
C128 C 0.58263 0.74638 0.11046 0.0
C129 C 0.59312 0.74014 0.01668 0.0
C130 C 0.58502 0.7405 0.96544 0.0
C131 C 0.60345 0.72491 0.0289 0.0
C132 C 0.60353 0.70927 0.99369 0.0
C133 C 0.59353 0.70869 0.94515 0.0
C134 C 0.5716 0.80287 0.06986 0.0
C135 C 0.55328 0.80815 0.07657 0.0
C136 C 0.58501 0.81507 0.04189 0.0
C137 C 0.57997 0.8316 0.01854 0.0
C138 C 0.56136 0.83637 0.02254 0.0
C139 C 0.5482 0.82471 0.05305 0.0
C140 C 0.58537 0.72501 0.92991 0.0
H141 H 0.52752 0.71873 0.2345 0.0
H142 H 0.53769 0.7436 0.17 0.0
H143 H 0.59402 0.74787 0.23394 0.0
H144 H 0.58388 0.72323 0.29907 0.0
H145 H 0.56293 0.78424 0.16474 0.0
H146 H 0.58404 0.73163 0.11932 0.0
H147 H 0.58885 0.77798 0.00924 0.0
H148 H 0.57697 0.75196 0.95434 0.0
H149 H 0.6103 0.72442 0.06744 0.0
H150 H 0.61007 0.69702 0.00674 0.0
H151 H 0.5426 0.799 0.0976 0.0
H152 H 0.59929 0.81145 0.0364 0.0
H153 H 0.57801 0.72524 0.89208 0.0
H154 H 0.53382 0.8281 0.05756 0.0
H155 H 0.59045 0.84013 0.99507 0.0
C156 C 0.22226 0.57583 0.18124 0.0
C157 C 0.20331 0.57102 0.16686 0.0
C158 C 0.23655 0.56703 0.15489 0.0
C159 C 0.23203 0.55299 0.11466 0.0
C160 C 0.21295 0.54825 0.10098 0.0
C161 C 0.19885 0.55731 0.12623 0.0
C162 C 0.24677 0.54261 0.08799 0.0
C163 C 0.26223 0.53741 0.11662 0.0
C164 C 0.27502 0.52575 0.09288 0.0
C165 C 0.27135 0.5183 0.04035 0.0
C166 C 0.25598 0.52364 0.01123 0.0
C167 C 0.2444 0.53633 0.03459 0.0
C168 C 0.24964 0.51456 0.9594 0.0
C169 C 0.24643 0.5262 0.91603 0.0
C170 C 0.2412 0.49565 0.95897 0.0
C171 C 0.22804 0.48923 0.9193 0.0
C172 C 0.22315 0.50163 0.87934 0.0
C173 C 0.29162 0.52116 0.12461 0.0
C174 C 0.30066 0.53497 0.16016 0.0
C175 C 0.29802 0.50296 0.12221 0.0
C176 C 0.31255 0.49855 0.15604 0.0
C177 C 0.32072 0.51216 0.19329 0.0
C178 C 0.31483 0.53045 0.19445 0.0
C179 C 0.23333 0.5198 0.87637 0.0
H180 H 0.22596 0.58626 0.21294 0.0
H181 H 0.25107 0.57115 0.16626 0.0
H182 H 0.2087 0.53706 0.07183 0.0
H183 H 0.18429 0.55296 0.11552 0.0
H184 H 0.26387 0.54178 0.1584 0.0
H185 H 0.2327 0.54047 0.01161 0.0
H186 H 0.28039 0.50861 0.02196 0.0
H187 H 0.25258 0.54092 0.91588 0.0
H188 H 0.24324 0.48648 0.99231 0.0
H189 H 0.22074 0.47501 0.92213 0.0
H190 H 0.2966 0.54931 0.16215 0.0
H191 H 0.29139 0.49192 0.09567 0.0
H192 H 0.22994 0.5298 0.84645 0.0
H193 H 0.32114 0.54126 0.22228 0.0
H194 H 0.31692 0.48433 0.15449 0.0
C195 C 0.06953 0.21389 0.19884 0.0
C196 C 0.08381 0.20169 0.19314 0.0
C197 C 0.06938 0.22974 0.16651 0.0
C198 C 0.08331 0.23366 0.12706 0.0
C199 C 0.09815 0.22217 0.12296 0.0
C200 C 0.0985 0.20644 0.15608 0.0
C201 C 0.08061 0.24794 0.08593 0.0
C202 C 0.07521 0.26576 0.10092 0.0
C203 C 0.06856 0.27777 0.06267 0.0
C204 C 0.06755 0.27177 0.00831 0.0
C205 C 0.07334 0.25399 0.99277 0.0
C206 C 0.08018 0.24243 0.03171 0.0
C207 C 0.0695 0.24535 0.93876 0.0
C208 C 0.05074 0.24074 0.92233 0.0
C209 C 0.08393 0.23725 0.91071 0.0
C210 C 0.07955 0.22344 0.87041 0.0
C211 C 0.06064 0.21732 0.85788 0.0
C212 C 0.06149 0.29575 0.08179 0.0
C213 C 0.04931 0.29533 0.12643 0.0
C214 C 0.06835 0.31345 0.06034 0.0
C215 C 0.06415 0.33047 0.0857 0.0
C216 C 0.05311 0.3299 0.1328 0.0
C217 C 0.04521 0.31218 0.15168 0.0
C218 C 0.04634 0.22677 0.88237 0.0
H219 H 0.05773 0.21064 0.2259 0.0
H220 H 0.05759 0.23818 0.16992 0.0
H221 H 0.1091 0.22498 0.09291 0.0
H222 H 0.10996 0.19766 0.1513 0.0
H223 H 0.07559 0.27001 0.14303 0.0
H224 H 0.08351 0.22825 0.02038 0.0
H225 H 0.06163 0.28048 0.97883 0.0
H226 H 0.03936 0.24659 0.9438 0.0
H227 H 0.09848 0.24044 0.92312 0.0
H228 H 0.09088 0.21639 0.8525 0.0
H229 H 0.04353 0.28188 0.14321 0.0
H230 H 0.07777 0.31414 0.02597 0.0
H231 H 0.03165 0.22249 0.87306 0.0
H232 H 0.03634 0.31135 0.18724 0.0
H233 H 0.07034 0.34398 0.07029 0.0
C234 C 0.28631 0.96985 0.21198 0.0
C235 C 0.30591 0.97478 0.2097 0.0
C236 C 0.27444 0.97785 0.1763 0.0
C237 C 0.28202 0.99103 0.13811 0.0
C238 C 0.30158 0.99642 0.13746 0.0
C239 C 0.31338 0.98833 0.17263 0.0
C240 C 0.26983 0.99874 0.09767 0.0
C241 C 0.25223 0.00445 0.11183 0.0
C242 C 0.24101 0.01217 0.07354 0.0
C243 C 0.24762 0.01442 0.02022 0.0
C244 C 0.26528 0.00855 0.00557 0.0
C245 C 0.27606 0.00063 0.04442 0.0
C246 C 0.27366 0.01103 0.95109 0.0
C247 C 0.28012 0.99525 0.92439 0.0
C248 C 0.27932 0.02934 0.93194 0.0
C249 C 0.29248 0.03189 0.88977 0.0
C250 C 0.30024 0.01616 0.86607 0.0
C251 C 0.22242 0.01752 0.09133 0.0
C252 C 0.20611 0.00483 0.08294 0.0
C253 C 0.22159 0.03312 0.12672 0.0
C254 C 0.20505 0.03541 0.15555 0.0
C255 C 0.18904 0.02194 0.15036 0.0
C256 C 0.18956 0.00701 0.11212 0.0
C257 C 0.29324 0.99776 0.88252 0.0
H258 H 0.28023 0.95943 0.24029 0.0
H259 H 0.25944 0.97334 0.1776 0.0
H260 H 0.30782 0.0069 0.10955 0.0
H261 H 0.32841 0.99271 0.17089 0.0
H262 H 0.24725 0.00308 0.15296 0.0
H263 H 0.2896 0.99608 0.03302 0.0
H264 H 0.23915 0.02058 0.99063 0.0
H265 H 0.27611 0.98099 0.93876 0.0
H266 H 0.27472 0.04175 0.95223 0.0
H267 H 0.29723 0.04625 0.87752 0.0
H268 H 0.20657 0.99246 0.05668 0.0
H269 H 0.23409 0.04294 0.1343 0.0
H270 H 0.29891 0.98527 0.86595 0.0
H271 H 0.17763 0.99626 0.10727 0.0
H272 H 0.20509 0.0473 0.18372 0.0
C273 C 0.43729 0.26703 0.83098 0.0
C274 C 0.45519 0.2777 0.83101 0.0
C275 C 0.43272 0.25299 0.86921 0.0
C276 C 0.44606 0.24904 0.90738 0.0
C277 C 0.46461 0.25782 0.90289 0.0
C278 C 0.46912 0.2721 0.86534 0.0
C279 C 0.43951 0.24227 0.96077 0.0
C280 C 0.44497 0.22565 0.98356 0.0
C281 C 0.44203 0.22238 0.03892 0.0
C282 C 0.43431 0.23629 0.07108 0.0
C283 C 0.42953 0.25316 0.04873 0.0
C284 C 0.43103 0.25536 0.99316 0.0
C285 C 0.42697 0.27002 0.08343 0.0
C286 C 0.41615 0.26861 0.13097 0.0
C287 C 0.43707 0.28761 0.07085 0.0
C288 C 0.43687 0.30323 0.10541 0.0
C289 C 0.42667 0.3017 0.1536 0.0
C290 C 0.44845 0.20545 0.06491 0.0
C291 C 0.4437 0.18698 0.04368 0.0
C292 C 0.45859 0.20769 0.11324 0.0
C293 C 0.46328 0.19186 0.14074 0.0
C294 C 0.45804 0.17331 0.12063 0.0
C295 C 0.44836 0.17104 0.07142 0.0
C296 C 0.4159 0.28446 0.16579 0.0
H297 H 0.42635 0.27048 0.80408 0.0
H298 H 0.41825 0.24659 0.87235 0.0
H299 H 0.47504 0.25532 0.93263 0.0
H300 H 0.48304 0.27991 0.867 0.0
H301 H 0.45218 0.21584 0.95905 0.0
H302 H 0.42745 0.26846 0.9757 0.0
H303 H 0.43308 0.23448 0.11411 0.0
H304 H 0.40825 0.25523 0.14164 0.0
H305 H 0.44593 0.28915 0.03534 0.0
H306 H 0.44525 0.31644 0.09531 0.0
H307 H 0.43588 0.18483 0.00653 0.0
H308 H 0.4627 0.22175 0.13028 0.0
H309 H 0.40799 0.28306 0.20304 0.0
H310 H 0.44431 0.15696 0.0545 0.0
H311 H 0.47056 0.19418 0.17871 0.0
Dy312 Dy 0.01255 0.98579 0.61684 0.0
C313 C 0.00671 0.03003 0.42997 0.0
C314 C 0.01265 0.96094 0.69922 0.0
Dy315 Dy 0.00226 0.0068 0.51639 0.0
O316 O 0.02459 0.96223 0.65961 0.0
O317 O 1.00102 0.97375 0.69486 0.0
O318 O 0.04334 0.99356 0.59723 0.0
O319 O 0.02347 0.98835 0.53541 0.0
C320 C 0.04053 0.99357 0.54568 0.0
C321 C 0.97383 0.99974 0.58645 0.0
O322 O 0.99482 0.97709 0.48511 0.0
O323 O 0.9943 0.96349 0.56935 0.0
O324 O 0.99501 0.03188 0.46948 0.0
O325 O 0.01526 0.01498 0.43669 0.0
O326 O 0.9713 0.00091 0.53485 0.0
O327 O 0.99101 0.00421 0.59773 0.0
O328 O 0.01822 0.01533 0.65028 0.0
O329 O 0.01994 0.02911 0.56619 0.0
C330 C 0.99098 0.96234 0.51699 0.0
C331 C 0.02239 0.0302 0.61905 0.0
Dy332 Dy 0.49494 0.98725 0.54101 0.0
C333 C 0.5503 0.04162 0.63833 0.0
C334 C 0.46609 0.96365 0.49663 0.0
Dy335 Dy 0.52025 0.01914 0.59606 0.0
O336 O 0.48037 0.97186 0.47013 0.0
O337 O 0.46764 0.96835 0.54706 0.0
O338 O 0.52024 0.97203 0.52046 0.0
O339 O 0.52284 0.00187 0.52372 0.0
C340 C 0.53182 0.98752 0.51818 0.0
C341 C 0.48341 0.01975 0.61796 0.0
O342 O 0.51418 0.03403 0.52109 0.0
O343 O 0.48785 0.01333 0.49781 0.0
O344 O 0.53341 0.03975 0.65873 0.0
O345 O 0.55074 0.03128 0.59481 0.0
O346 O 0.49548 0.03494 0.61682 0.0
O347 O 0.49194 0.005 0.61257 0.0
O348 O 0.5009 0.97204 0.61542 0.0
O349 O 0.52568 0.9937 0.64471 0.0
C350 C 0.49886 0.02958 0.49168 0.0
C351 C 0.51519 0.97705 0.64816 0.0
Dy352 Dy 0.5028 0.51233 0.62779 0.0
C353 C 0.48957 0.47194 0.42599 0.0
C354 C 0.51266 0.53419 0.71627 0.0
Dy355 Dy 0.50615 0.49103 0.51145 0.0
O356 O 0.49901 0.5369 0.6839 0.0
O357 O 0.52038 0.51909 0.70135 0.0
O358 O 0.47098 0.5074 0.62046 0.0
O359 O 0.48828 0.50997 0.55189 0.0
C360 C 0.47156 0.50632 0.56806 0.0
C361 C 0.53749 0.49135 0.57135 0.0
O362 O 0.51308 0.52135 0.48742 0.0
O363 O 0.51692 0.53514 0.57389 0.0
O364 O 0.50725 0.47917 0.42684 0.0
O365 O 0.48137 0.47505 0.47146 0.0
O366 O 0.53608 0.48302 0.52395 0.0
O367 O 0.52233 0.49821 0.58088 0.0
O368 O 0.49867 0.48185 0.65291 0.0
O369 O 0.49529 0.46764 0.5671 0.0
C370 C 0.51797 0.53613 0.52043 0.0
C371 C 0.49501 0.46673 0.6204 0.0
Dy372 Dy 0.99838 0.48656 0.613 0.0
C373 C 0.03944 0.52933 0.45048 0.0
C374 C 0.97518 0.47187 0.69284 0.0
Dy375 Dy 0.01671 0.51269 0.52861 0.0
O376 O 0.98639 0.46227 0.66451 0.0
O377 O 0.97689 0.48949 0.67807 0.0
O378 O 0.01192 0.46198 0.57797 0.0
O379 O 0.00418 0.48319 0.52708 0.0
C380 C 0.01263 0.46843 0.52944 0.0
C381 C 0.00241 0.53033 0.61334 0.0
O382 O 0.98851 0.50667 0.48986 0.0
O383 O 0.97329 0.49421 0.56594 0.0
O384 O 0.0288 0.53826 0.48242 0.0
O385 O 0.03745 0.51126 0.46066 0.0
O386 O 0.00245 0.53679 0.56491 0.0
O387 O 0.01118 0.51581 0.61449 0.0
O388 O 0.02705 0.49197 0.65005 0.0
O389 O 0.04186 0.50433 0.57326 0.0
C390 C 0.97284 0.50088 0.5165 0.0
C391 C 0.04259 0.4975 0.62238 0.0
H392 H 0.15098 0.01316 0.13028 0.0
H393 H 0.12505 0.01063 0.19573 0.0
H394 H 0.16425 0.0291 0.32212 0.0
H395 H 0.19019 0.03099 0.25775 0.0
H396 H 0.14302 0.99832 0.35076 0.0
H397 H 0.13161 0.05772 0.27423 0.0
H398 H 0.12514 0.08019 0.20393 0.0
H399 H 0.07381 0.0454 0.16356 0.0
H400 H 0.08008 0.0226 0.23316 0.0
H401 H 0.07689 0.00924 0.56083 0.0
H402 H 0.10144 0.01604 0.49227 0.0
H403 H 0.06215 0.99433 0.3691 0.0
H404 H 0.03769 0.98732 0.43751 0.0
H405 H 0.08286 0.02715 0.33835 0.0
H406 H 0.09484 0.96739 0.41233 0.0
H407 H 0.10065 0.9454 0.48455 0.0
H408 H 0.15072 0.98134 0.52995 0.0
H409 H 0.14507 0.00369 0.45842 0.0
C410 C 0.15407 0.01677 0.17197 0.0
C411 C 0.17276 0.02231 0.18849 0.0
C412 C 0.13918 0.01549 0.20933 0.0
C413 C 0.14263 0.01978 0.26399 0.0
C414 C 0.16118 0.02575 0.28025 0.0
C415 C 0.17602 0.02701 0.2431 0.0
C416 C 0.12729 0.01675 0.30502 0.0
C417 C 0.13 0.00489 0.34831 0.0
C418 C 0.11001 0.02484 0.30131 0.0
C419 C 0.10647 0.0383 0.25846 0.0
C420 C 0.11907 0.05473 0.24992 0.0
C421 C 0.11539 0.06757 0.21031 0.0
C422 C 0.0991 0.0642 0.17918 0.0
C423 C 0.08644 0.04798 0.18762 0.0
C424 C 0.09004 0.0351 0.22716 0.0
C425 C 0.07352 0.00593 0.51912 0.0
C426 C 0.05536 0.99787 0.50446 0.0
C427 C 0.08754 0.00981 0.47998 0.0
C428 C 0.08368 0.0056 0.42547 0.0
C429 C 0.06545 0.99778 0.41078 0.0
C430 C 0.05148 0.99382 0.44992 0.0
C431 C 0.09875 0.00889 0.38394 0.0
C432 C 0.09594 0.02068 0.3406 0.0
C433 C 0.11596 0.00075 0.38745 0.0
C434 C 0.11943 0.9873 0.43038 0.0
C435 C 0.10701 0.97068 0.43799 0.0
C436 C 0.11029 0.95814 0.47875 0.0
C437 C 0.12601 0.962 0.51192 0.0
C438 C 0.13853 0.97838 0.50429 0.0
C439 C 0.13531 0.99098 0.46362 0.0
H440 H 0.12853 0.95227 0.54345 0.0
H441 H 0.09626 0.07417 0.14862 0.0
H442 H 0.43517 0.14005 0.13751 0.0
H443 H 0.44123 0.11371 0.19512 0.0
H444 H 0.49593 0.14269 0.23469 0.0
H445 H 0.49028 0.16865 0.17573 0.0
H446 H 0.49834 0.10594 0.21926 0.0
H447 H 0.45733 0.14356 0.31979 0.0
H448 H 0.42858 0.15934 0.33643 0.0
H449 H 0.39466 0.10536 0.32329 0.0
H450 H 0.4232 0.08929 0.30583 0.0
H451 H 0.51941 0.06271 0.46148 0.0
H452 H 0.51148 0.08501 0.39385 0.0
H453 H 0.45938 0.04981 0.36099 0.0
H454 H 0.46715 0.02739 0.42903 0.0
H455 H 0.45414 0.08746 0.36866 0.0
H456 H 0.49589 0.04971 0.27423 0.0
H457 H 0.52487 0.03434 0.25789 0.0
H458 H 0.55774 0.08905 0.26076 0.0
H459 H 0.52897 0.10474 0.27791 0.0
C460 C 0.44862 0.14066 0.15774 0.0
C461 C 0.46218 0.15656 0.15224 0.0
C462 C 0.45198 0.12569 0.19118 0.0
C463 C 0.46891 0.12635 0.22005 0.0
C464 C 0.48271 0.14188 0.21315 0.0
C465 C 0.47939 0.1568 0.17969 0.0
C466 C 0.47226 0.1111 0.25814 0.0
C467 C 0.48875 0.10204 0.25221 0.0
C468 C 0.45953 0.10561 0.30042 0.0
C469 C 0.44237 0.11526 0.31086 0.0
C470 C 0.44372 0.13508 0.31999 0.0
C471 C 0.42747 0.14407 0.32965 0.0
C472 C 0.4098 0.13337 0.33074 0.0
C473 C 0.40835 0.11364 0.32231 0.0
C474 C 0.42456 0.10458 0.31255 0.0
C475 C 0.50625 0.05965 0.43996 0.0
C476 C 0.49395 0.04318 0.45067 0.0
C477 C 0.50178 0.0724 0.40104 0.0
C478 C 0.48495 0.06898 0.37182 0.0
C479 C 0.47249 0.05271 0.38289 0.0
C480 C 0.47698 0.03988 0.42173 0.0
C481 C 0.48035 0.08254 0.33017 0.0
C482 C 0.46364 0.09126 0.33544 0.0
C483 C 0.49292 0.0878 0.28742 0.0
C484 C 0.51028 0.07839 0.27776 0.0
C485 C 0.50931 0.05845 0.27189 0.0
C486 C 0.52571 0.04969 0.26239 0.0
C487 C 0.54314 0.06072 0.25834 0.0
C488 C 0.54423 0.08053 0.26392 0.0
C489 C 0.52788 0.08937 0.27348 0.0
H490 H 0.55579 0.05394 0.25061 0.0
H491 H 0.39723 0.14036 0.33826 0.0
H492 H 0.35563 0.50079 0.17342 0.0
H493 H 0.38015 0.49653 0.23942 0.0
H494 H 0.34174 0.50808 0.36785 0.0
H495 H 0.31773 0.51331 0.30175 0.0
H496 H 0.37251 0.52708 0.3882 0.0
H497 H 0.35673 0.46232 0.33541 0.0
H498 H 0.35106 0.43446 0.27422 0.0
H499 H 0.40898 0.44196 0.22307 0.0
H500 H 0.41493 0.47015 0.28311 0.0
H501 H 0.43409 0.49861 0.59441 0.0
H502 H 0.40701 0.49644 0.53292 0.0
H503 H 0.44495 0.50717 0.39879 0.0
H504 H 0.47181 0.51028 0.45979 0.0
H505 H 0.41369 0.47481 0.38628 0.0
H506 H 0.42693 0.54212 0.43495 0.0
H507 H 0.4317 0.56891 0.50024 0.0
H508 H 0.37636 0.55362 0.56563 0.0
H509 H 0.37139 0.52655 0.50116 0.0
C510 C 0.35245 0.50216 0.21582 0.0
C511 C 0.33487 0.50738 0.23268 0.0
C512 C 0.3664 0.49964 0.25361 0.0
C513 C 0.36284 0.5018 0.30899 0.0
C514 C 0.34497 0.50641 0.32557 0.0
C515 C 0.33121 0.50932 0.28785 0.0
C516 C 0.37798 0.50057 0.34956 0.0
C517 C 0.3812 0.51539 0.38811 0.0
C518 C 0.38968 0.48552 0.34949 0.0
C519 C 0.3862 0.46856 0.31324 0.0
C520 C 0.36822 0.45818 0.3107 0.0
C521 C 0.36496 0.44231 0.27626 0.0
C522 C 0.37961 0.43653 0.24454 0.0
C523 C 0.39761 0.44652 0.24747 0.0
C524 C 0.40093 0.46246 0.28169 0.0
C525 C 0.4366 0.50044 0.5518 0.0
C526 C 0.45507 0.50432 0.53182 0.0
C527 C 0.42118 0.49914 0.51678 0.0
C528 C 0.42405 0.50145 0.4613 0.0
C529 C 0.44247 0.50511 0.44135 0.0
C530 C 0.45779 0.50685 0.47632 0.0
C531 C 0.4079 0.5012 0.42407 0.0
C532 C 0.40467 0.48623 0.38625 0.0
C533 C 0.39595 0.51588 0.42523 0.0
C534 C 0.39889 0.53219 0.46374 0.0
C535 C 0.41586 0.54436 0.46361 0.0
C536 C 0.41858 0.55962 0.50038 0.0
C537 C 0.40436 0.56293 0.53719 0.0
C538 C 0.38737 0.55102 0.53718 0.0
C539 C 0.3846 0.53572 0.50053 0.0
H540 H 0.40649 0.57475 0.56562 0.0
H541 H 0.377 0.42428 0.21779 0.0
H542 H 0.0602 0.33537 0.23876 0.0
H543 H 0.05376 0.36232 0.29607 0.0
H544 H 0.03443 0.39085 0.15874 0.0
H545 H 0.04125 0.36374 0.10049 0.0
H546 H 0.05462 0.41614 0.23144 0.0
H547 H 0.00238 0.36814 0.23671 0.0
H548 H 0.98636 0.33554 0.24423 0.0
H549 H 0.00742 0.33233 0.40448 0.0
H550 H 0.02383 0.36481 0.39763 0.0
H551 H 0.00837 0.47575 0.42263 0.0
H552 H 0.0156 0.45541 0.34563 0.0
H553 H 0.03702 0.41595 0.45365 0.0
H554 H 0.02964 0.43598 0.53021 0.0
H555 H 0.01186 0.39817 0.3845 0.0
H556 H 0.06606 0.44629 0.37429 0.0
H557 H 0.08108 0.47923 0.36498 0.0
H558 H 0.05445 0.48287 0.21204 0.0
H559 H 0.03906 0.45007 0.22079 0.0
C560 C 0.05469 0.34743 0.22065 0.0
C561 C 0.05088 0.34734 0.16539 0.0
C562 C 0.05104 0.36284 0.25341 0.0
C563 C 0.04322 0.37841 0.23191 0.0
C564 C 0.04036 0.37891 0.17618 0.0
C565 C 0.04421 0.36345 0.14303 0.0
C566 C 0.03703 0.39333 0.2689 0.0
C567 C 0.04502 0.41232 0.26442 0.0
C568 C 0.02448 0.38835 0.31189 0.0
C569 C 0.01443 0.36888 0.3165 0.0
C570 C 0.00369 0.36044 0.27344 0.0
C571 C 0.99453 0.34199 0.27759 0.0
C572 C 0.99589 0.33186 0.32477 0.0
C573 C 0.00638 0.34019 0.36795 0.0
C574 C 0.01559 0.35864 0.36398 0.0
C575 C 0.01479 0.46281 0.42972 0.0
C576 C 0.01832 0.45733 0.48235 0.0
C577 C 0.01896 0.45125 0.38575 0.0
C578 C 0.02685 0.43414 0.39387 0.0
C579 C 0.03085 0.42902 0.44641 0.0
C580 C 0.02665 0.44049 0.49015 0.0
C581 C 0.03007 0.42084 0.34858 0.0
C582 C 0.02133 0.40209 0.35129 0.0
C583 C 0.04174 0.42616 0.30392 0.0
C584 C 0.05124 0.44579 0.29847 0.0
C585 C 0.0633 0.45417 0.33886 0.0
C586 C 0.0719 0.47281 0.33365 0.0
C587 C 0.06868 0.48317 0.28802 0.0
C588 C 0.05691 0.47487 0.24741 0.0
C589 C 0.04826 0.45625 0.25245 0.0
H590 H 0.07533 0.49759 0.28409 0.0
H591 H 0.9888 0.31757 0.3279 0.0
H592 H 0.85304 0.02377 0.96305 0.0
H593 H 0.87959 0.02272 0.90069 0.0
H594 H 0.85413 0.96908 0.83525 0.0
H595 H 0.82774 0.96982 0.89837 0.0
H596 H 0.89185 0.96895 0.84388 0.0
H597 H 0.84935 0.01004 0.7718 0.0
H598 H 0.83015 0.03707 0.77312 0.0
H599 H 0.88002 0.07611 0.79743 0.0
H600 H 0.89949 0.04928 0.79701 0.0
H601 H 0.93596 0.99733 0.56786 0.0
H602 H 0.91035 0.99612 0.63434 0.0
H603 H 0.95092 0.99726 0.76214 0.0
H604 H 0.97664 0.9992 0.6959 0.0
H605 H 0.90496 0.02292 0.7196 0.0
H606 H 0.9285 0.96469 0.8572 0.0
H607 H 0.94521 0.93591 0.85008 0.0
H608 H 0.92983 0.92884 0.68397 0.0
H609 H 0.9127 0.9573 0.69036 0.0
C610 C 0.85326 0.01155 0.93618 0.0
C611 C 0.83818 0.99692 0.93561 0.0
C612 C 0.86838 0.01106 0.90014 0.0
C613 C 0.86875 0.99596 0.86265 0.0
C614 C 0.85414 0.98093 0.86358 0.0
C615 C 0.83899 0.98143 0.89948 0.0
C616 C 0.88389 0.99621 0.82101 0.0
C617 C 0.89478 0.98081 0.81698 0.0
C618 C 0.8875 0.01148 0.78495 0.0
C619 C 0.87585 0.02764 0.78491 0.0
C620 C 0.8562 0.02438 0.77783 0.0
C621 C 0.84528 0.03966 0.77835 0.0
C622 C 0.85386 0.05829 0.78549 0.0
C623 C 0.87339 0.06167 0.79198 0.0
C624 C 0.88438 0.04644 0.79157 0.0
C625 C 0.93943 0.9973 0.61012 0.0
C626 C 0.95832 0.9982 0.62665 0.0
C627 C 0.92478 0.99667 0.64804 0.0
C628 C 0.92872 0.99654 0.70317 0.0
C629 C 0.94756 0.99722 0.71979 0.0
C630 C 0.96224 0.99822 0.6819 0.0
C631 C 0.91312 0.99586 0.74332 0.0
C632 C 0.90215 0.01117 0.74695 0.0
C633 C 0.90923 0.98038 0.77836 0.0
C634 C 0.91955 0.96328 0.77413 0.0
C635 C 0.92867 0.95698 0.81919 0.0
C636 C 0.93819 0.94071 0.81528 0.0
C637 C 0.93863 0.93063 0.76653 0.0
C638 C 0.92954 0.93674 0.72161 0.0
C639 C 0.91995 0.95294 0.72535 0.0
H640 H 0.94593 0.91804 0.76355 0.0
H641 H 0.84537 0.0701 0.78588 0.0
H642 H 0.52875 0.83747 0.96591 0.0
H643 H 0.52046 0.86258 0.90745 0.0
H644 H 0.57258 0.8966 0.9476 0.0
H645 H 0.58075 0.87173 0.00763 0.0
H646 H 0.54343 0.91849 0.94139 0.0
H647 H 0.56918 0.87072 0.83242 0.0
H648 H 0.57184 0.83815 0.79782 0.0
H649 H 0.51501 0.83428 0.73942 0.0
H650 H 0.51192 0.86675 0.77438 0.0
H651 H 0.54525 0.98019 0.71727 0.0
H652 H 0.55268 0.95743 0.78456 0.0
H653 H 0.5025 0.92064 0.74165 0.0
H654 H 0.49518 0.94308 0.67365 0.0
H655 H 0.53125 0.90049 0.75022 0.0
H656 H 0.50548 0.94844 0.85907 0.0
H657 H 0.50291 0.98102 0.89375 0.0
H658 H 0.55975 0.98473 0.95201 0.0
H659 H 0.56274 0.95225 0.91704 0.0
C660 C 0.53829 0.85045 0.96332 0.0
C661 C 0.55548 0.85252 0.99137 0.0
C662 C 0.53361 0.86473 0.92937 0.0
C663 C 0.54604 0.88134 0.92239 0.0
C664 C 0.56282 0.88385 0.95209 0.0
C665 C 0.56752 0.86956 0.9861 0.0
C666 C 0.5419 0.89568 0.8824 0.0
C667 C 0.54098 0.91463 0.89945 0.0
C668 C 0.53841 0.89058 0.82782 0.0
C669 C 0.54026 0.87109 0.80649 0.0
C670 C 0.5572 0.86287 0.81256 0.0
C671 C 0.55879 0.84443 0.79283 0.0
C672 C 0.54358 0.83413 0.76656 0.0
C673 C 0.52677 0.84227 0.75984 0.0
C674 C 0.52509 0.86069 0.77957 0.0
C675 C 0.53574 0.96729 0.72224 0.0
C676 C 0.5196 0.96351 0.68996 0.0
C677 C 0.53997 0.95432 0.76097 0.0
C678 C 0.52804 0.93738 0.76869 0.0
C679 C 0.51193 0.93359 0.73652 0.0
C680 C 0.50775 0.94649 0.69764 0.0
C681 C 0.53255 0.92333 0.80918 0.0
C682 C 0.53363 0.90441 0.79216 0.0
C683 C 0.53619 0.92848 0.86371 0.0
C684 C 0.53439 0.94798 0.88497 0.0
C685 C 0.51748 0.95626 0.87892 0.0
C686 C 0.51594 0.97469 0.89869 0.0
C687 C 0.53117 0.98496 0.92494 0.0
C688 C 0.54797 0.97678 0.9316 0.0
C689 C 0.54959 0.95834 0.91187 0.0
H690 H 0.52996 0.99923 0.94021 0.0
H691 H 0.54484 0.81986 0.7513 0.0
H692 H 0.66373 0.50819 0.95119 0.0
H693 H 0.63972 0.51317 0.88456 0.0
H694 H 0.64569 0.45796 0.81322 0.0
H695 H 0.67017 0.45328 0.87763 0.0
H696 H 0.64455 0.48315 0.73756 0.0
H697 H 0.60787 0.46698 0.89771 0.0
H698 H 0.59816 0.47093 0.99215 0.0
H699 H 0.58401 0.52717 0.95993 0.0
H700 H 0.59387 0.52363 0.86543 0.0
H701 H 0.56166 0.46445 0.58222 0.0
H702 H 0.5872 0.46438 0.64752 0.0
H703 H 0.57544 0.51964 0.7078 0.0
H704 H 0.5498 0.51954 0.64268 0.0
H705 H 0.58024 0.49764 0.78882 0.0
H706 H 0.61494 0.51351 0.62836 0.0
H707 H 0.62448 0.51003 0.53363 0.0
H708 H 0.64256 0.45534 0.56585 0.0
H709 H 0.63289 0.45838 0.66064 0.0
C710 C 0.66001 0.49716 0.92114 0.0
C711 C 0.66883 0.48025 0.92029 0.0
C712 C 0.64613 0.49995 0.88332 0.0
C713 C 0.64069 0.48584 0.84411 0.0
C714 C 0.64956 0.46905 0.84308 0.0
C715 C 0.66344 0.46629 0.88053 0.0
C716 C 0.626 0.48847 0.80347 0.0
C717 C 0.63043 0.48613 0.74886 0.0
C718 C 0.60773 0.493 0.81788 0.0
C719 C 0.60183 0.49512 0.87469 0.0
C720 C 0.60284 0.48025 0.91088 0.0
C721 C 0.59728 0.4824 0.9644 0.0
C722 C 0.59053 0.49932 0.98207 0.0
C723 C 0.58928 0.51409 0.94623 0.0
C724 C 0.59485 0.51202 0.89269 0.0
C725 C 0.56465 0.4766 0.60926 0.0
C726 C 0.55359 0.49183 0.60835 0.0
C727 C 0.57927 0.4766 0.64646 0.0
C728 C 0.58338 0.49207 0.68257 0.0
C729 C 0.57248 0.50747 0.68082 0.0
C730 C 0.55775 0.50736 0.64396 0.0
C731 C 0.59869 0.49191 0.72297 0.0
C732 C 0.5944 0.49478 0.77747 0.0
C733 C 0.61713 0.48795 0.70847 0.0
C734 C 0.62305 0.48611 0.65153 0.0
C735 C 0.62083 0.50068 0.61517 0.0
C736 C 0.62628 0.4988 0.56147 0.0
C737 C 0.63408 0.48246 0.54371 0.0
C738 C 0.6365 0.46799 0.57965 0.0
C739 C 0.63106 0.46979 0.63339 0.0
H740 H 0.63829 0.48102 0.50212 0.0
H741 H 0.58623 0.50095 0.02351 0.0
H742 H 0.92941 0.62719 0.98428 0.0
H743 H 0.9387 0.60285 0.92165 0.0
H744 H 0.99732 0.62113 0.95382 0.0
H745 H 0.98816 0.64616 0.01426 0.0
H746 H 0.99233 0.61933 0.85179 0.0
H747 H 0.97511 0.57626 0.99381 0.0
H748 H 0.95495 0.5608 0.06479 0.0
H749 H 0.91254 0.54214 0.94808 0.0
H750 H 0.93243 0.55749 0.87642 0.0
H751 H 0.00607 0.52115 0.71853 0.0
H752 H 0.99807 0.53972 0.79811 0.0
H753 H 0.9769 0.58116 0.69604 0.0
H754 H 0.98513 0.56283 0.61657 0.0
H755 H 0.96609 0.55137 0.83924 0.0
H756 H 0.98865 0.6252 0.74759 0.0
H757 H 0.01113 0.6395 0.68014 0.0
H758 H 0.04705 0.59547 0.70484 0.0
H759 H 0.02493 0.58107 0.77294 0.0
C760 C 0.94429 0.62597 0.97835 0.0
C761 C 0.95802 0.63882 0.00405 0.0
C762 C 0.94959 0.61185 0.94294 0.0
C763 C 0.96873 0.61006 0.933 0.0
C764 C 0.98245 0.62222 0.96071 0.0
C765 C 0.97717 0.63644 0.9958 0.0
C766 C 0.97444 0.59686 0.88998 0.0
C767 C 0.98664 0.60445 0.84938 0.0
C768 C 0.96724 0.57736 0.8868 0.0
C769 C 0.95521 0.56815 0.92982 0.0
C770 C 0.96144 0.56895 0.98334 0.0
C771 C 0.95009 0.56014 0.02367 0.0
C772 C 0.93248 0.55047 0.01095 0.0
C773 C 0.92621 0.54957 0.95786 0.0
C774 C 0.93754 0.55827 0.91735 0.0
C775 C 0.99962 0.53418 0.71318 0.0
C776 C 0.9964 0.54069 0.66144 0.0
C777 C 0.995 0.54473 0.75863 0.0
C778 C 0.98716 0.56198 0.75303 0.0
C779 C 0.98326 0.56808 0.70133 0.0
C780 C 0.98792 0.55757 0.65596 0.0
C781 C 0.98363 0.574 0.80095 0.0
C782 C 0.97184 0.56623 0.84213 0.0
C783 C 0.99149 0.59325 0.80534 0.0
C784 C 0.00504 0.60197 0.76501 0.0
C785 C 0.00139 0.61863 0.73879 0.0
C786 C 0.01406 0.62674 0.70042 0.0
C787 C 0.03048 0.61837 0.6881 0.0
C788 C 0.0343 0.6019 0.71428 0.0
C789 C 0.02169 0.59375 0.75273 0.0
H790 H 0.04026 0.62465 0.65834 0.0
H791 H 0.92371 0.54367 0.04223 0.0
H792 H 0.06921 0.19385 0.29381 0.0
H793 H 0.05989 0.1627 0.33056 0.0
H794 H 0.08647 0.1362 0.19669 0.0
H795 H 0.09402 0.16723 0.15659 0.0
H796 H 0.05497 0.11847 0.20694 0.0
H797 H 0.10243 0.1361 0.3348 0.0
H798 H 0.12139 0.15579 0.40181 0.0
H799 H 0.07294 0.15584 0.50507 0.0
H800 H 0.05357 0.13644 0.43833 0.0
H801 H 0.03328 0.02912 0.35102 0.0
H802 H 0.04973 0.0567 0.30555 0.0
H803 H 0.01316 0.09341 0.38474 0.0
H804 H 0.99649 0.06595 0.42954 0.0
H805 H 0.05417 0.10272 0.40005 0.0
H806 H 0.00719 0.08614 0.2601 0.0
H807 H 0.99108 0.06425 0.19249 0.0
H808 H 0.04388 0.05953 0.11203 0.0
H809 H 0.06033 0.08123 0.1796 0.0
C810 C 0.0731 0.18144 0.27198 0.0
C811 C 0.08206 0.18318 0.22153 0.0
C812 C 0.06807 0.16355 0.29373 0.0
C813 C 0.07255 0.14695 0.26672 0.0
C814 C 0.08274 0.14873 0.21829 0.0
C815 C 0.08731 0.16661 0.19571 0.0
C816 C 0.06479 0.12786 0.286 0.0
C817 C 0.05524 0.11494 0.24908 0.0
C818 C 0.06497 0.12307 0.34098 0.0
C819 C 0.0765 0.13489 0.38126 0.0
C820 C 0.09576 0.14044 0.37157 0.0
C821 C 0.10659 0.15154 0.40956 0.0
C822 C 0.09836 0.1571 0.45761 0.0
C823 C 0.07928 0.15154 0.4678 0.0
C824 C 0.06837 0.14047 0.42992 0.0
C825 C 0.0284 0.043 0.35739 0.0
C826 C 0.01362 0.04546 0.39368 0.0
C827 C 0.03786 0.05871 0.33169 0.0
C828 C 0.03271 0.07703 0.34234 0.0
C829 C 0.01734 0.07935 0.37636 0.0
C830 C 0.00775 0.06365 0.40153 0.0
C831 C 0.04408 0.09401 0.32126 0.0
C832 C 0.0543 0.10636 0.35792 0.0
C833 C 0.045 0.09801 0.26601 0.0
C834 C 0.03502 0.08508 0.22532 0.0
C835 C 0.01539 0.08028 0.22832 0.0
C836 C 0.00619 0.06795 0.18991 0.0
C837 C 0.01646 0.06044 0.14811 0.0
C838 C 0.03594 0.06531 0.1445 0.0
C839 C 0.04521 0.07763 0.18282 0.0
H840 H 0.00931 0.0509 0.11841 0.0
H841 H 0.10677 0.16567 0.48699 0.0
H842 H 0.33785 0.95939 0.18086 0.0
H843 H 0.36128 0.94815 0.23984 0.0
H844 H 0.32668 0.95876 0.37772 0.0
H845 H 0.30316 0.9703 0.31847 0.0
H846 H 0.36266 0.97567 0.38783 0.0
H847 H 0.3336 0.91349 0.34412 0.0
H848 H 0.31978 0.88715 0.28547 0.0
H849 H 0.37299 0.88562 0.20463 0.0
H850 H 0.38708 0.91214 0.26224 0.0
H851 H 0.43408 0.94956 0.54814 0.0
H852 H 0.40332 0.94038 0.50708 0.0
H853 H 0.42855 0.94645 0.34968 0.0
H854 H 0.45943 0.95568 0.39051 0.0
H855 H 0.39369 0.91637 0.36353 0.0
H856 H 0.41609 0.98528 0.38027 0.0
H857 H 0.43363 0.01023 0.4367 0.0
H858 H 0.39457 0.99753 0.5664 0.0
H859 H 0.37682 0.97242 0.51051 0.0
C860 C 0.33514 0.95911 0.22371 0.0
C861 C 0.31881 0.96585 0.24525 0.0
C862 C 0.34843 0.95251 0.25732 0.0
C863 C 0.34563 0.95246 0.31312 0.0
C864 C 0.32902 0.95858 0.3347 0.0
C865 C 0.31561 0.9651 0.30092 0.0
C866 C 0.36108 0.948 0.34853 0.0
C867 C 0.36901 0.96243 0.38366 0.0
C868 C 0.36974 0.93094 0.34209 0.0
C869 C 0.36138 0.91489 0.30742 0.0
C870 C 0.34233 0.90763 0.3136 0.0
C871 C 0.33445 0.89265 0.28056 0.0
C872 C 0.3455 0.88473 0.24131 0.0
C873 C 0.36446 0.89176 0.23507 0.0
C874 C 0.37241 0.90675 0.26799 0.0
C875 C 0.4332 0.94826 0.5048 0.0
C876 C 0.44899 0.95363 0.47234 0.0
C877 C 0.41566 0.94287 0.48147 0.0
C878 C 0.41374 0.94282 0.42549 0.0
C879 C 0.42984 0.94624 0.39298 0.0
C880 C 0.44741 0.95169 0.41631 0.0
C881 C 0.39501 0.94401 0.40192 0.0
C882 C 0.38674 0.9292 0.36883 0.0
C883 C 0.386 0.9607 0.40976 0.0
C884 C 0.39515 0.9771 0.44131 0.0
C885 C 0.41113 0.988 0.42062 0.0
C886 C 0.42116 0.00208 0.45252 0.0
C887 C 0.41526 0.00541 0.50512 0.0
C888 C 0.39911 0.99492 0.52561 0.0
C889 C 0.38902 0.98081 0.49378 0.0
H890 H 0.4233 0.01608 0.52995 0.0
H891 H 0.33937 0.87313 0.21576 0.0
H892 H 0.39959 0.32307 0.19288 0.0
H893 H 0.40528 0.35351 0.24342 0.0
H894 H 0.46479 0.34712 0.24793 0.0
H895 H 0.45907 0.31689 0.19879 0.0
H896 H 0.45395 0.36154 0.33984 0.0
H897 H 0.4456 0.37314 0.14958 0.0
H898 H 0.42762 0.37111 0.06499 0.0
H899 H 0.38404 0.39964 0.14117 0.0
H900 H 0.40168 0.40154 0.2265 0.0
H901 H 0.50653 0.44951 0.35457 0.0
H902 H 0.49082 0.42182 0.30554 0.0
H903 H 0.43656 0.43745 0.35652 0.0
H904 H 0.45219 0.46487 0.4065 0.0
H905 H 0.43915 0.4193 0.24516 0.0
H906 H 0.45131 0.41081 0.43372 0.0
H907 H 0.47164 0.41395 0.51352 0.0
H908 H 0.51015 0.37925 0.43626 0.0
H909 H 0.49017 0.37624 0.35539 0.0
C910 C 0.41374 0.32804 0.20611 0.0
C911 C 0.42894 0.31786 0.19205 0.0
C912 C 0.41701 0.34543 0.23441 0.0
C913 C 0.4355 0.35269 0.24865 0.0
C914 C 0.45043 0.34182 0.23733 0.0
C915 C 0.44718 0.32459 0.20924 0.0
C916 C 0.43992 0.37208 0.27203 0.0
C917 C 0.45065 0.37413 0.31914 0.0
C918 C 0.43539 0.38854 0.24552 0.0
C919 C 0.42483 0.38735 0.19439 0.0
C920 C 0.43212 0.37886 0.14833 0.0
C921 C 0.42201 0.37774 0.10029 0.0
C922 C 0.40468 0.38521 0.09774 0.0
C923 C 0.39745 0.39384 0.14323 0.0
C924 C 0.40749 0.39495 0.1914 0.0
C925 C 0.49126 0.44741 0.35359 0.0
C926 C 0.48053 0.45907 0.38458 0.0
C927 C 0.48231 0.43162 0.32577 0.0
C928 C 0.46259 0.42756 0.32822 0.0
C929 C 0.45178 0.44038 0.35436 0.0
C930 C 0.46073 0.45596 0.38291 0.0
C931 C 0.45372 0.40854 0.31146 0.0
C932 C 0.44211 0.40665 0.26616 0.0
C933 C 0.45762 0.39215 0.33916 0.0
C934 C 0.46936 0.39349 0.3883 0.0
C935 C 0.46421 0.40401 0.43353 0.0
C936 C 0.47569 0.40578 0.47897 0.0
C937 C 0.49225 0.39689 0.47989 0.0
C938 C 0.49732 0.38615 0.43545 0.0
C939 C 0.48593 0.38441 0.3898 0.0
H940 H 0.50118 0.3983 0.51497 0.0
H941 H 0.39688 0.38434 0.0605 0.0
H942 H 0.17427 0.58821 0.12656 0.0
H943 H 0.14425 0.59176 0.17184 0.0
H944 H 0.16673 0.57249 0.31913 0.0
H945 H 0.19684 0.5695 0.27425 0.0
H946 H 0.12354 0.56217 0.2031 0.0
H947 H 0.14179 0.58335 0.42659 0.0
H948 H 0.16378 0.60659 0.47639 0.0
H949 H 0.16885 0.6429 0.33966 0.0
H950 H 0.14668 0.62003 0.28924 0.0
H951 H 0.06459 0.51238 0.38879 0.0
H952 H 0.09027 0.52803 0.3348 0.0
H953 H 0.07186 0.58285 0.37475 0.0
H954 H 0.0463 0.5672 0.42988 0.0
H955 H 0.10892 0.58362 0.388 0.0
H956 H 0.06587 0.56463 0.24827 0.0
H957 H 0.04302 0.54311 0.19591 0.0
H958 H 0.0859 0.50651 0.15964 0.0
H959 H 0.10895 0.52763 0.21254 0.0
C960 C 0.17297 0.58549 0.16916 0.0
C961 C 0.18773 0.5785 0.19702 0.0
C962 C 0.15583 0.58745 0.19493 0.0
C963 C 0.15316 0.58228 0.2488 0.0
C964 C 0.16849 0.57686 0.27781 0.0
C965 C 0.18572 0.57513 0.25217 0.0
C966 C 0.13383 0.57923 0.27174 0.0
C967 C 0.12028 0.56712 0.24325 0.0
C968 C 0.12939 0.58595 0.32368 0.0
C969 C 0.14262 0.59989 0.35401 0.0
C970 C 0.14749 0.59634 0.40722 0.0
C971 C 0.16002 0.60945 0.43555 0.0
C972 C 0.16774 0.6262 0.41117 0.0
C973 C 0.16291 0.62989 0.35844 0.0
C974 C 0.15038 0.61684 0.32994 0.0
C975 C 0.06586 0.52774 0.38539 0.0
C976 C 0.0535 0.53861 0.41329 0.0
C977 C 0.08048 0.53667 0.35443 0.0
C978 C 0.08285 0.5566 0.35033 0.0
C979 C 0.07025 0.56746 0.37733 0.0
C980 C 0.05564 0.55852 0.40852 0.0
C981 C 0.09914 0.56596 0.32014 0.0
C982 C 0.11208 0.57913 0.34735 0.0
C983 C 0.10293 0.56051 0.26659 0.0
C984 C 0.08914 0.54772 0.23456 0.0
C985 C 0.07041 0.55194 0.22942 0.0
C986 C 0.05742 0.53981 0.19959 0.0
C987 C 0.06302 0.52347 0.1744 0.0
C988 C 0.08161 0.51921 0.17901 0.0
C989 C 0.09464 0.53127 0.2089 0.0
H990 H 0.05294 0.5141 0.15133 0.0
H991 H 0.17744 0.63632 0.43317 0.0
H992 H 0.93658 0.82364 0.96809 0.0
H993 H 0.94758 0.85181 0.91601 0.0
H994 H 0.9837 0.8185 0.82235 0.0
H995 H 0.97241 0.79015 0.87409 0.0
H996 H 0.00235 0.85188 0.87184 0.0
H997 H 0.94855 0.83342 0.76192 0.0
H998 H 0.91507 0.8239 0.74118 0.0
H999 H 0.90036 0.8768 0.80844 0.0
H1000 H 0.93371 0.88652 0.8305 0.0
H1001 H 0.03128 0.92936 0.69638 0.0
H1002 H 0.02157 0.89909 0.73958 0.0
H1003 H 0.97725 0.92461 0.82364 0.0
H1004 H 0.98645 0.95478 0.77883 0.0
H1005 H 0.96373 0.89302 0.77052 0.0
H1006 H 0.01616 0.91075 0.88893 0.0
H1007 H 0.04942 0.92083 0.91148 0.0
H1008 H 0.06609 0.87064 0.8326 0.0
H1009 H 0.03295 0.86038 0.80895 0.0
C1010 C 0.94644 0.82228 0.9353 0.0
C1011 C 0.95358 0.80486 0.92447 0.0
C1012 C 0.95273 0.83831 0.90574 0.0
C1013 C 0.96643 0.83717 0.86545 0.0
C1014 C 0.97309 0.81959 0.85327 0.0
C1015 C 0.96656 0.80344 0.88237 0.0
C1016 C 0.97487 0.85475 0.83964 0.0
C1017 C 0.99399 0.86081 0.84903 0.0
C1018 C 0.96378 0.86651 0.81113 0.0
C1019 C 0.94365 0.8606 0.79843 0.0
C1020 C 0.93816 0.84293 0.7729 0.0
C1021 C 0.9192 0.83752 0.76077 0.0
C1022 C 0.90559 0.84971 0.77364 0.0
C1023 C 0.91091 0.86735 0.79859 0.0
C1024 C 0.92985 0.87282 0.8109 0.0
C1025 C 0.01975 0.92864 0.72506 0.0
C1026 C 0.00955 0.94435 0.73421 0.0
C1027 C 0.01422 0.91133 0.74976 0.0
C1028 C 0.99862 0.90958 0.78462 0.0
C1029 C 0.98921 0.92564 0.79641 0.0
C1030 C 0.99457 0.94289 0.77124 0.0
C1031 C 0.99097 0.89069 0.80483 0.0
C1032 C 0.97205 0.88426 0.79382 0.0
C1033 C 0.00216 0.87875 0.83249 0.0
C1034 C 0.02209 0.8849 0.84669 0.0
C1035 C 0.02694 0.90195 0.87599 0.0
C1036 C 0.04577 0.90768 0.88906 0.0
C1037 C 0.05986 0.89641 0.87335 0.0
C1038 C 0.05516 0.87937 0.84467 0.0
C1039 C 0.03635 0.87358 0.83147 0.0
H1040 H 0.07443 0.90087 0.88351 0.0
H1041 H 0.89092 0.8455 0.76414 0.0
H1042 H 0.68117 0.08432 0.97692 0.0
H1043 H 0.65513 0.09063 0.91881 0.0
H1044 H 0.68341 0.06745 0.78285 0.0
H1045 H 0.7097 0.06152 0.84074 0.0
H1046 H 0.661 0.09555 0.75311 0.0
H1047 H 0.65593 0.03817 0.85728 0.0
H1048 H 0.6567 0.02025 0.94104 0.0
H1049 H 0.61165 0.04944 0.00618 0.0
H1050 H 0.61086 0.06782 0.92308 0.0
H1051 H 0.58673 0.0439 0.60369 0.0
H1052 H 0.6148 0.05714 0.65311 0.0
H1053 H 0.57951 0.07588 0.78071 0.0
H1054 H 0.55138 0.06238 0.73169 0.0
H1055 H 0.60472 0.05449 0.81745 0.0
H1056 H 0.60672 0.10818 0.70351 0.0
H1057 H 0.60643 0.12498 0.61776 0.0
H1058 H 0.65692 0.10145 0.56762 0.0
H1059 H 0.65737 0.08429 0.65278 0.0
C1060 C 0.6821 0.08123 0.93426 0.0
C1061 C 0.69724 0.07222 0.91325 0.0
C1062 C 0.66726 0.08483 0.90115 0.0
C1063 C 0.66718 0.0791 0.84685 0.0
C1064 C 0.6832 0.07194 0.82468 0.0
C1065 C 0.69819 0.06854 0.85774 0.0
C1066 C 0.64937 0.07734 0.81611 0.0
C1067 C 0.64866 0.08658 0.76695 0.0
C1068 C 0.63325 0.06577 0.83463 0.0
C1069 C 0.6335 0.05452 0.88427 0.0
C1070 C 0.64628 0.04086 0.88962 0.0
C1071 C 0.64672 0.03062 0.93695 0.0
C1072 C 0.63427 0.03374 0.97897 0.0
C1073 C 0.62131 0.04708 0.97365 0.0
C1074 C 0.62087 0.05741 0.92646 0.0
C1075 C 0.58497 0.05119 0.64178 0.0
C1076 C 0.56695 0.05201 0.66418 0.0
C1077 C 0.60101 0.05887 0.66982 0.0
C1078 C 0.59925 0.06761 0.72048 0.0
C1079 C 0.58117 0.06924 0.74163 0.0
C1080 C 0.56514 0.06152 0.71365 0.0
C1081 C 0.61616 0.07275 0.75416 0.0
C1082 C 0.61681 0.06388 0.80388 0.0
C1083 C 0.63218 0.08449 0.7357 0.0
C1084 C 0.632 0.09483 0.68445 0.0
C1085 C 0.61768 0.10647 0.67405 0.0
C1086 C 0.6175 0.11608 0.62556 0.0
C1087 C 0.63163 0.11426 0.58722 0.0
C1088 C 0.64598 0.10285 0.59735 0.0
C1089 C 0.64622 0.09319 0.64576 0.0
H1090 H 0.63146 0.12171 0.54971 0.0
H1091 H 0.63462 0.0258 0.01559 0.0
H1092 H 0.55975 0.69532 0.90096 0.0
H1093 H 0.54988 0.66341 0.86681 0.0
H1094 H 0.60577 0.64748 0.89193 0.0
H1095 H 0.61614 0.67993 0.92498 0.0
H1096 H 0.58772 0.63167 0.79532 0.0
H1097 H 0.57576 0.63538 0.98352 0.0
H1098 H 0.56461 0.64961 0.06745 0.0
H1099 H 0.50801 0.64394 0.00688 0.0
H1100 H 0.51887 0.62997 0.92217 0.0
H1101 H 0.54703 0.53532 0.76375 0.0
H1102 H 0.56409 0.56273 0.81061 0.0
H1103 H 0.51521 0.59343 0.79933 0.0
H1104 H 0.49815 0.56617 0.75208 0.0
H1105 H 0.5343 0.59884 0.89863 0.0
H1106 H 0.54776 0.60137 0.70585 0.0
H1107 H 0.5585 0.5876 0.62063 0.0
H1108 H 0.61203 0.58089 0.69142 0.0
H1109 H 0.60161 0.59468 0.77706 0.0
C1110 C 0.57022 0.68534 0.89768 0.0
C1111 C 0.58878 0.69026 0.91586 0.0
C1112 C 0.56444 0.66698 0.87871 0.0
C1113 C 0.577 0.65305 0.8779 0.0
C1114 C 0.59586 0.65807 0.89272 0.0
C1115 C 0.60171 0.67655 0.9118 0.0
C1116 C 0.56978 0.63307 0.86493 0.0
C1117 C 0.57635 0.62429 0.81856 0.0
C1118 C 0.55484 0.62355 0.89514 0.0
C1119 C 0.54817 0.63172 0.94633 0.0
C1120 C 0.56096 0.63728 0.98793 0.0
C1121 C 0.55468 0.64529 0.03567 0.0
C1122 C 0.53562 0.6477 0.04247 0.0
C1123 C 0.52278 0.64206 0.00156 0.0
C1124 C 0.52898 0.63407 0.95369 0.0
C1125 C 0.53977 0.54774 0.77253 0.0
C1126 C 0.52131 0.54873 0.75423 0.0
C1127 C 0.54957 0.56339 0.79895 0.0
C1128 C 0.54095 0.58013 0.8077 0.0
C1129 C 0.52208 0.58062 0.7928 0.0
C1130 C 0.51235 0.56506 0.76593 0.0
C1131 C 0.5519 0.59769 0.82838 0.0
C1132 C 0.54598 0.60603 0.87617 0.0
C1133 C 0.56744 0.60675 0.79959 0.0
C1134 C 0.57385 0.59884 0.74792 0.0
C1135 C 0.56179 0.59688 0.70326 0.0
C1136 C 0.56782 0.5891 0.6549 0.0
C1137 C 0.58587 0.58324 0.65077 0.0
C1138 C 0.59803 0.58537 0.69477 0.0
C1139 C 0.59209 0.59322 0.74316 0.0
H1140 H 0.59046 0.57707 0.61345 0.0
H1141 H 0.53079 0.6539 0.07946 0.0
H1142 H 0.81444 0.41917 0.84524 0.0
H1143 H 0.84664 0.42117 0.81111 0.0
H1144 H 0.86739 0.4173 0.97242 0.0
H1145 H 0.83545 0.41688 0.00725 0.0
H1146 H 0.88523 0.44592 0.93002 0.0
H1147 H 0.87193 0.38175 0.87132 0.0
H1148 H 0.85406 0.3537 0.82832 0.0
H1149 H 0.85915 0.38101 0.67565 0.0
H1150 H 0.87682 0.40935 0.71781 0.0
H1151 H 0.97029 0.43541 0.72893 0.0
H1152 H 0.94438 0.42102 0.78512 0.0
H1153 H 0.92125 0.47502 0.79486 0.0
H1154 H 0.94738 0.48951 0.74069 0.0
H1155 H 0.9087 0.41558 0.76516 0.0
H1156 H 0.89647 0.48015 0.90646 0.0
H1157 H 0.91528 0.50667 0.95352 0.0
H1158 H 0.96353 0.47523 0.95012 0.0
H1159 H 0.94489 0.44829 0.90412 0.0
C1160 C 0.82581 0.41858 0.87352 0.0
C1161 C 0.82225 0.41819 0.92915 0.0
C1162 C 0.84426 0.41942 0.8538 0.0
C1163 C 0.85952 0.41938 0.88916 0.0
C1164 C 0.85588 0.41744 0.94432 0.0
C1165 C 0.83748 0.41695 0.96415 0.0
C1166 C 0.87919 0.42389 0.86943 0.0
C1167 C 0.89044 0.4391 0.89434 0.0
C1168 C 0.88621 0.41478 0.82355 0.0
C1169 C 0.87565 0.39773 0.79785 0.0
C1170 C 0.86914 0.38183 0.82863 0.0
C1171 C 0.85906 0.36587 0.80439 0.0
C1172 C 0.85545 0.36558 0.7493 0.0
C1173 C 0.86196 0.38125 0.71831 0.0
C1174 C 0.87204 0.39725 0.74235 0.0
C1175 C 0.95984 0.44424 0.74404 0.0
C1176 C 0.96082 0.46355 0.73077 0.0
C1177 C 0.94502 0.43601 0.77588 0.0
C1178 C 0.93095 0.44697 0.79473 0.0
C1179 C 0.93214 0.46635 0.78196 0.0
C1180 C 0.94704 0.47461 0.75075 0.0
C1181 C 0.91433 0.43803 0.82467 0.0
C1182 C 0.90365 0.42207 0.80156 0.0
C1183 C 0.90799 0.44619 0.87293 0.0
C1184 C 0.91928 0.46222 0.90145 0.0
C1185 C 0.91105 0.47882 0.91605 0.0
C1186 C 0.9217 0.49395 0.94247 0.0
C1187 C 0.94062 0.49269 0.95457 0.0
C1188 C 0.94889 0.47622 0.94054 0.0
C1189 C 0.93829 0.46101 0.91428 0.0
H1190 H 0.94884 0.50446 0.9749 0.0
H1191 H 0.84764 0.35322 0.73061 0.0
H1192 H 0.0764 0.20611 0.76283 0.0
H1193 H 0.07104 0.17467 0.71795 0.0
H1194 H 0.02952 0.15638 0.83813 0.0
H1195 H 0.03473 0.1876 0.88286 0.0
H1196 H 0.05801 0.13154 0.82145 0.0
H1197 H 0.01502 0.16516 0.71887 0.0
H1198 H 0.00663 0.1908 0.66084 0.0
H1199 H 0.04559 0.17474 0.54042 0.0
H1200 H 0.05445 0.14917 0.59816 0.0
H1201 H 0.01583 0.04298 0.72093 0.0
H1202 H 0.02375 0.07511 0.75795 0.0
H1203 H 0.05204 0.09199 0.60984 0.0
H1204 H 0.04324 0.06011 0.57177 0.0
H1205 H 0.03282 0.11832 0.63786 0.0
H1206 H 0.07603 0.085 0.73333 0.0
H1207 H 0.08685 0.05983 0.78888 0.0
H1208 H 0.05162 0.07569 0.91911 0.0
H1209 H 0.04038 0.1008 0.86408 0.0
C1210 C 0.06595 0.19545 0.77915 0.0
C1211 C 0.05589 0.19939 0.82614 0.0
C1212 C 0.06289 0.17753 0.75351 0.0
C1213 C 0.0499 0.16321 0.77482 0.0
C1214 C 0.03961 0.16724 0.82105 0.0
C1215 C 0.04246 0.18516 0.84623 0.0
C1216 C 0.04753 0.14372 0.75064 0.0
C1217 C 0.05233 0.12857 0.78149 0.0
C1218 C 0.04087 0.14001 0.69775 0.0
C1219 C 0.03557 0.15541 0.66314 0.0
C1220 C 0.02195 0.16722 0.68028 0.0
C1221 C 0.01708 0.18172 0.64738 0.0
C1222 C 0.02563 0.18444 0.59706 0.0
C1223 C 0.03903 0.17264 0.57947 0.0
C1224 C 0.04397 0.15815 0.61225 0.0
C1225 C 0.02395 0.05348 0.69655 0.0
C1226 C 0.02896 0.04901 0.64353 0.0
C1227 C 0.02856 0.07187 0.71782 0.0
C1228 C 0.03878 0.08605 0.6871 0.0
C1229 C 0.04414 0.08141 0.63445 0.0
C1230 C 0.03917 0.06314 0.61278 0.0
C1231 C 0.04306 0.10588 0.70892 0.0
C1232 C 0.03866 0.12116 0.67767 0.0
C1233 C 0.05052 0.10977 0.76108 0.0
C1234 C 0.05724 0.09468 0.79438 0.0
C1235 C 0.07048 0.08303 0.77368 0.0
C1236 C 0.07671 0.06879 0.8051 0.0
C1237 C 0.06989 0.06614 0.85744 0.0
C1238 C 0.05687 0.07775 0.87853 0.0
C1239 C 0.05058 0.092 0.84726 0.0
H1240 H 0.07473 0.05511 0.88171 0.0
H1241 H 0.02182 0.19566 0.57164 0.0
H1242 H 0.30858 0.99392 0.77859 0.0
H1243 H 0.33827 0.99537 0.72835 0.0
H1244 H 0.35956 0.04574 0.81865 0.0
H1245 H 0.33023 0.04412 0.87033 0.0
H1246 H 0.36908 0.04744 0.70802 0.0
H1247 H 0.37148 0.00461 0.85648 0.0
H1248 H 0.35978 0.97694 0.91081 0.0
H1249 H 0.36384 0.93973 0.7737 0.0
H1250 H 0.37529 0.96725 0.71832 0.0
H1251 H 0.46733 0.04918 0.66499 0.0
H1252 H 0.4352 0.04938 0.69872 0.0
H1253 H 0.42187 0.9913 0.64201 0.0
H1254 H 0.45456 0.9907 0.61249 0.0
H1255 H 0.4068 0.99315 0.73081 0.0
H1256 H 0.40329 0.03437 0.58076 0.0
H1257 H 0.41402 0.06122 0.52208 0.0
H1258 H 0.41034 0.10046 0.65477 0.0
H1259 H 0.39996 0.07372 0.71421 0.0
C1260 C 0.31952 0.00538 0.78777 0.0
C1261 C 0.31695 0.01879 0.82913 0.0
C1262 C 0.33648 0.00621 0.75878 0.0
C1263 C 0.35124 0.02053 0.77019 0.0
C1264 C 0.34837 0.03457 0.80912 0.0
C1265 C 0.33147 0.03367 0.83846 0.0
C1266 C 0.37008 0.02017 0.74415 0.0
C1267 C 0.37742 0.03565 0.7132 0.0
C1268 C 0.38076 0.00457 0.74974 0.0
C1269 C 0.37405 0.98801 0.78314 0.0
C1270 C 0.36973 0.99055 0.83782 0.0
C1271 C 0.36317 0.97489 0.86882 0.0
C1272 C 0.36102 0.95659 0.84569 0.0
C1273 C 0.36548 0.95392 0.79154 0.0
C1274 C 0.37202 0.96954 0.76033 0.0
C1275 C 0.45752 0.03647 0.65951 0.0
C1276 C 0.4635 0.01991 0.63575 0.0
C1277 C 0.43898 0.03666 0.67825 0.0
C1278 C 0.42569 0.02052 0.67193 0.0
C1279 C 0.43166 0.00402 0.64749 0.0
C1280 C 0.45038 0.00368 0.63017 0.0
C1281 C 0.40603 0.02044 0.69386 0.0
C1282 C 0.39849 0.00489 0.7246 0.0
C1283 C 0.39506 0.03587 0.68734 0.0
C1284 C 0.40118 0.05202 0.65191 0.0
C1285 C 0.40504 0.0487 0.59739 0.0
C1286 C 0.41099 0.0639 0.56403 0.0
C1287 C 0.41295 0.08254 0.58475 0.0
C1288 C 0.40887 0.08601 0.6388 0.0
C1289 C 0.40294 0.07083 0.67231 0.0
H1290 H 0.41755 0.0943 0.55888 0.0
H1291 H 0.35593 0.94449 0.86975 0.0
H1292 H 0.48803 0.29409 0.78345 0.0
H1293 H 0.4941 0.3263 0.74819 0.0
H1294 H 0.43602 0.33528 0.77654 0.0
H1295 H 0.42993 0.3036 0.81378 0.0
H1296 H 0.44948 0.34902 0.67806 0.0
H1297 H 0.46692 0.35302 0.86395 0.0
H1298 H 0.48369 0.3442 0.9444 0.0
H1299 H 0.53691 0.36046 0.86734 0.0
H1300 H 0.52044 0.36911 0.78607 0.0
H1301 H 0.48412 0.45742 0.72391 0.0
H1302 H 0.47629 0.42533 0.75969 0.0
H1303 H 0.48911 0.40071 0.60587 0.0
H1304 H 0.49674 0.43245 0.56981 0.0
H1305 H 0.49619 0.3954 0.77126 0.0
H1306 H 0.45967 0.36025 0.581 0.0
H1307 H 0.44121 0.36912 0.50386 0.0
H1308 H 0.42335 0.41624 0.59507 0.0
H1309 H 0.44133 0.4074 0.67319 0.0
C1310 C 0.4765 0.30286 0.78219 0.0
C1311 C 0.45847 0.29608 0.80176 0.0
C1312 C 0.48001 0.32127 0.76185 0.0
C1313 C 0.46554 0.33324 0.76022 0.0
C1314 C 0.44737 0.32627 0.77729 0.0
C1315 C 0.4439 0.30798 0.79817 0.0
C1316 C 0.46943 0.35329 0.74269 0.0
C1317 C 0.45975 0.35915 0.69823 0.0
C1318 C 0.4825 0.36662 0.76985 0.0
C1319 C 0.49244 0.36153 0.81874 0.0
C1320 C 0.4822 0.35456 0.86399 0.0
C1321 C 0.49165 0.34962 0.90977 0.0
C1322 C 0.51135 0.35172 0.91093 0.0
C1323 C 0.52165 0.35882 0.86635 0.0
C1324 C 0.51226 0.36375 0.82043 0.0
C1325 C 0.48526 0.44516 0.69774 0.0
C1326 C 0.49073 0.44753 0.64371 0.0
C1327 C 0.4808 0.42683 0.71823 0.0
C1328 C 0.48176 0.4106 0.68508 0.0
C1329 C 0.4878 0.413 0.63175 0.0
C1330 C 0.49214 0.4312 0.61124 0.0
C1331 C 0.47653 0.39108 0.70573 0.0
C1332 C 0.48596 0.3853 0.75087 0.0
C1333 C 0.46305 0.37786 0.67945 0.0
C1334 C 0.45199 0.38323 0.63286 0.0
C1335 C 0.4517 0.37242 0.58476 0.0
C1336 C 0.44128 0.37742 0.54089 0.0
C1337 C 0.43112 0.39324 0.54457 0.0
C1338 C 0.43126 0.40402 0.59223 0.0
C1339 C 0.44156 0.39901 0.63635 0.0
H1340 H 0.42316 0.39715 0.51044 0.0
H1341 H 0.51864 0.3479 0.94641 0.0
H1342 H 0.21748 0.50936 0.77302 0.0
H1343 H 0.18742 0.5064 0.725 0.0
H1344 H 0.15924 0.48095 0.86389 0.0
H1345 H 0.18909 0.48391 0.91205 0.0
H1346 H 0.14483 0.46399 0.77367 0.0
H1347 H 0.15932 0.52835 0.83994 0.0
H1348 H 0.17884 0.5592 0.85118 0.0
H1349 H 0.17814 0.5673 0.68083 0.0
H1350 H 0.15883 0.53634 0.66851 0.0
H1351 H 0.05071 0.4838 0.72118 0.0
H1352 H 0.08186 0.48241 0.76073 0.0
H1353 H 0.1082 0.50749 0.61879 0.0
H1354 H 0.07724 0.50912 0.57923 0.0
H1355 H 0.12391 0.52407 0.70768 0.0
H1356 H 0.10804 0.46003 0.64223 0.0
H1357 H 0.08824 0.4293 0.63217 0.0
H1358 H 0.0911 0.42075 0.80198 0.0
H1359 H 0.11071 0.45157 0.81317 0.0
C1360 C 0.20492 0.50294 0.79313 0.0
C1361 C 0.20575 0.49695 0.84654 0.0
C1362 C 0.18773 0.50127 0.76565 0.0
C1363 C 0.17097 0.49376 0.79115 0.0
C1364 C 0.17194 0.4868 0.84332 0.0
C1365 C 0.18911 0.48841 0.87074 0.0
C1366 C 0.1523 0.49416 0.76497 0.0
C1367 C 0.1402 0.47715 0.75965 0.0
C1368 C 0.1463 0.51127 0.74591 0.0
C1369 C 0.15781 0.52994 0.75325 0.0
C1370 C 0.16345 0.53664 0.80484 0.0
C1371 C 0.17446 0.55416 0.81141 0.0
C1372 C 0.17977 0.56518 0.76673 0.0
C1373 C 0.17404 0.55873 0.71539 0.0
C1374 C 0.16306 0.54121 0.70859 0.0
C1375 C 0.06312 0.48901 0.69833 0.0
C1376 C 0.06141 0.49656 0.64695 0.0
C1377 C 0.08094 0.48812 0.72091 0.0
C1378 C 0.09742 0.49467 0.69253 0.0
C1379 C 0.09572 0.50233 0.64147 0.0
C1380 C 0.07796 0.5032 0.61885 0.0
C1381 C 0.11643 0.4939 0.71629 0.0
C1382 C 0.12858 0.51087 0.72134 0.0
C1383 C 0.12242 0.47677 0.73524 0.0
C1384 C 0.1107 0.4582 0.7286 0.0
C1385 C 0.10433 0.45167 0.67749 0.0
C1386 C 0.09316 0.43422 0.67157 0.0
C1387 C 0.08837 0.4231 0.71642 0.0
C1388 C 0.09479 0.42939 0.76728 0.0
C1389 C 0.10595 0.44684 0.77343 0.0
H1390 H 0.07972 0.4096 0.71175 0.0
H1391 H 0.18829 0.57874 0.7719 0.0
H1392 H 0.97542 0.80106 0.26964 0.0
H1393 H 0.98088 0.83316 0.30791 0.0
H1394 H 0.94416 0.81635 0.44122 0.0
H1395 H 0.93784 0.78424 0.40085 0.0
H1396 H 0.93686 0.84902 0.41289 0.0
H1397 H 0.99487 0.82477 0.45072 0.0
H1398 H 0.02349 0.80894 0.43276 0.0
H1399 H 0.04268 0.85206 0.31982 0.0
H1400 H 0.01405 0.86801 0.33656 0.0
H1401 H 0.97214 0.9323 0.5689 0.0
H1402 H 0.96406 0.89984 0.53406 0.0
H1403 H 0.9865 0.91673 0.37896 0.0
H1404 H 0.99446 0.9494 0.41338 0.0
H1405 H 1.00102 0.88394 0.42346 0.0
H1406 H 0.94112 0.9077 0.39027 0.0
H1407 H 0.91299 0.9232 0.41664 0.0
H1408 H 0.89838 0.88005 0.53334 0.0
H1409 H 0.92657 0.86444 0.50815 0.0
C1410 C 0.96878 0.80412 0.30764 0.0
C1411 C 0.95649 0.79008 0.33284 0.0
C1412 C 0.97194 0.8225 0.32963 0.0
C1413 C 0.96332 0.82721 0.37829 0.0
C1414 C 0.95108 0.81312 0.40381 0.0
C1415 C 0.94756 0.79476 0.38102 0.0
C1416 C 0.96659 0.84701 0.40099 0.0
C1417 C 0.95095 0.85649 0.416 0.0
C1418 C 0.98492 0.85701 0.40465 0.0
C1419 C 0.00222 0.8475 0.3946 0.0
C1420 C 0.00513 0.83081 0.42179 0.0
C1421 C 0.02137 0.82182 0.41186 0.0
C1422 C 0.03488 0.82946 0.37509 0.0
C1423 C 0.0322 0.84614 0.34827 0.0
C1424 C 0.01598 0.85518 0.35801 0.0
C1425 C 0.97512 0.9292 0.52713 0.0
C1426 C 0.98396 0.94342 0.49386 0.0
C1427 C 0.97045 0.91064 0.5073 0.0
C1428 C 0.9747 0.90589 0.45398 0.0
C1429 C 0.98311 0.92013 0.42026 0.0
C1430 C 0.98754 0.9388 0.43986 0.0
C1431 C 0.97133 0.88582 0.43442 0.0
C1432 C 0.98699 0.87634 0.42032 0.0
C1433 C 0.9531 0.87572 0.43288 0.0
C1434 C 0.93605 0.885 0.44765 0.0
C1435 C 0.93199 0.9016 0.42184 0.0
C1436 C 0.91602 0.91039 0.43652 0.0
C1437 C 0.90393 0.90264 0.47673 0.0
C1438 C 0.90776 0.88605 0.50223 0.0
C1439 C 0.92372 0.87721 0.48772 0.0
H1440 H 0.89158 0.90947 0.48805 0.0
H1441 H 0.04744 0.82248 0.36745 0.0
H1442 H 0.70721 0.01031 0.36488 0.0
H1443 H 0.67723 0.00686 0.41425 0.0
H1444 H 0.65147 0.97222 0.28448 0.0
H1445 H 0.6811 0.97603 0.2344 0.0
H1446 H 0.63041 0.99959 0.31158 0.0
H1447 H 0.66082 0.95293 0.40546 0.0
H1448 H 0.68609 0.94076 0.45749 0.0
H1449 H 0.6786 0.98147 0.5841 0.0
H1450 H 0.65345 0.99407 0.53247 0.0
H1451 H 0.55319 0.95792 0.5078 0.0
H1452 H 0.58518 0.95849 0.47065 0.0
H1453 H 0.58713 0.01909 0.44848 0.0
H1454 H 0.55514 0.01858 0.48559 0.0
H1455 H 0.61998 0.97744 0.49826 0.0
H1456 H 0.6095 0.0285 0.32505 0.0
H1457 H 0.58408 0.03827 0.26885 0.0
H1458 H 0.55095 0.98476 0.29603 0.0
H1459 H 0.5764 0.97449 0.35133 0.0
C1460 C 0.69521 0.00181 0.34705 0.0
C1461 C 0.69665 0.99346 0.29553 0.0
C1462 C 0.67809 0.99974 0.37552 0.0
C1463 C 0.66204 0.98926 0.35317 0.0
C1464 C 0.66362 0.98039 0.30261 0.0
C1465 C 0.68069 0.98242 0.27422 0.0
C1466 C 0.6433 0.98852 0.38054 0.0
C1467 C 0.62819 0.99477 0.35246 0.0
C1468 C 0.64026 0.98211 0.43375 0.0
C1469 C 0.65538 0.97457 0.46485 0.0
C1470 C 0.66467 0.9594 0.44419 0.0
C1471 C 0.67895 0.9524 0.47366 0.0
C1472 C 0.68398 0.96037 0.52401 0.0
C1473 C 0.67471 0.97533 0.54506 0.0
C1474 C 0.66043 0.98239 0.51573 0.0
C1475 C 0.56051 0.97138 0.49539 0.0
C1476 C 0.55163 0.98818 0.49931 0.0
C1477 C 0.57882 0.9717 0.47441 0.0
C1478 C 0.58852 0.98879 0.45635 0.0
C1479 C 0.57987 0.0057 0.46173 0.0
C1480 C 0.56161 0.00541 0.48307 0.0
C1481 C 0.60724 0.98873 0.4294 0.0
C1482 C 0.6223 0.98237 0.45753 0.0
C1483 C 0.61022 0.99483 0.37592 0.0
C1484 C 0.59477 0.00085 0.34292 0.0
C1485 C 0.5968 0.01881 0.31897 0.0
C1486 C 0.58238 0.02443 0.28723 0.0
C1487 C 0.56584 0.01219 0.2791 0.0
C1488 C 0.56373 0.99427 0.30257 0.0
C1489 C 0.57815 0.98854 0.33414 0.0
H1490 H 0.55472 0.01653 0.25438 0.0
H1491 H 0.69504 0.95493 0.54676 0.0
H1492 H 0.53868 0.68498 0.23232 0.0
H1493 H 0.53278 0.65488 0.27889 0.0
H1494 H 0.55423 0.68243 0.42569 0.0
H1495 H 0.56096 0.71256 0.37808 0.0
H1496 H 0.5671 0.65006 0.41756 0.0
H1497 H 0.50521 0.66852 0.40225 0.0
H1498 H 0.47772 0.67957 0.3577 0.0
H1499 H 0.47282 0.62972 0.255 0.0
H1500 H 0.50044 0.61849 0.29844 0.0
H1501 H 0.53017 0.56964 0.57315 0.0
H1502 H 0.53688 0.60127 0.53501 0.0
H1503 H 0.52496 0.57746 0.37654 0.0
H1504 H 0.51814 0.54576 0.41425 0.0
H1505 H 0.5065 0.60887 0.39773 0.0
H1506 H 0.57032 0.5919 0.41477 0.0
H1507 H 0.59687 0.58134 0.46504 0.0
H1508 H 0.59619 0.6293 0.5735 0.0
H1509 H 0.56954 0.64007 0.52405 0.0
C1510 C 0.54186 0.6847 0.27475 0.0
C1511 C 0.55001 0.70118 0.30179 0.0
C1512 C 0.53846 0.66745 0.30146 0.0
C1513 C 0.54265 0.66635 0.3563 0.0
C1514 C 0.55078 0.68286 0.38348 0.0
C1515 C 0.55454 0.70009 0.35639 0.0
C1516 C 0.53905 0.64782 0.3844 0.0
C1517 C 0.55371 0.64124 0.41389 0.0
C1518 C 0.52168 0.63608 0.37948 0.0
C1519 C 0.505 0.64274 0.35335 0.0
C1520 C 0.49835 0.65998 0.36993 0.0
C1521 C 0.48273 0.66626 0.3449 0.0
C1522 C 0.47355 0.65537 0.30348 0.0
C1523 C 0.47995 0.63815 0.28707 0.0
C1524 C 0.49557 0.6318 0.31193 0.0
C1525 C 0.52917 0.57104 0.53009 0.0
C1526 C 0.52362 0.55508 0.49682 0.0
C1527 C 0.53305 0.58918 0.50834 0.0
C1528 C 0.53149 0.59174 0.45287 0.0
C1529 C 0.52623 0.57582 0.41947 0.0
C1530 C 0.52242 0.55767 0.44113 0.0
C1531 C 0.53462 0.61108 0.42973 0.0
C1532 C 0.51983 0.61781 0.40143 0.0
C1533 C 0.55171 0.62305 0.43663 0.0
C1534 C 0.56788 0.61673 0.4659 0.0
C1535 C 0.57579 0.60014 0.44947 0.0
C1536 C 0.59087 0.59414 0.47776 0.0
C1537 C 0.59823 0.60467 0.52236 0.0
C1538 C 0.59051 0.6212 0.53882 0.0
C1539 C 0.57544 0.62728 0.51063 0.0
H1540 H 0.60991 0.6 0.5442 0.0
H1541 H 0.46147 0.66027 0.28415 0.0
H1542 H 0.80061 0.48957 0.34385 0.0
H1543 H 0.83028 0.49291 0.39426 0.0
H1544 H 0.86141 0.50418 0.24721 0.0
H1545 H 0.83192 0.50082 0.19676 0.0
H1546 H 0.87534 0.47632 0.30721 0.0
H1547 H 0.85785 0.53952 0.33374 0.0
H1548 H 0.83694 0.56373 0.36028 0.0
H1549 H 0.83513 0.54359 0.52196 0.0
H1550 H 0.85582 0.51906 0.49618 0.0
H1551 H 0.96621 0.50653 0.41017 0.0
H1552 H 0.93574 0.50598 0.36549 0.0
H1553 H 0.90708 0.49511 0.51657 0.0
H1554 H 0.93754 0.49559 0.56173 0.0
H1555 H 0.89143 0.52243 0.45713 0.0
H1556 H 0.90894 0.45946 0.43139 0.0
H1557 H 0.92984 0.43517 0.40554 0.0
H1558 H 0.9313 0.45449 0.24304 0.0
H1559 H 0.91062 0.47912 0.26813 0.0
C1560 C 0.81377 0.49297 0.32243 0.0
C1561 C 0.81389 0.49506 0.26636 0.0
C1562 C 0.83071 0.49492 0.35125 0.0
C1563 C 0.84807 0.49882 0.32448 0.0
C1564 C 0.84819 0.50119 0.26869 0.0
C1565 C 0.83129 0.49946 0.23999 0.0
C1566 C 0.86619 0.4996 0.35411 0.0
C1567 C 0.87896 0.48657 0.33951 0.0
C1568 C 0.87069 0.51261 0.39727 0.0
C1569 C 0.85821 0.52731 0.41288 0.0
C1570 C 0.85284 0.54012 0.37484 0.0
C1571 C 0.84106 0.55393 0.38976 0.0
C1572 C 0.83466 0.55516 0.44273 0.0
C1573 C 0.84007 0.5426 0.48092 0.0
C1574 C 0.85183 0.52875 0.46618 0.0
C1575 C 0.95345 0.50409 0.43404 0.0
C1576 C 0.95435 0.50102 0.48956 0.0
C1577 C 0.93603 0.50372 0.40836 0.0
C1578 C 0.91912 0.50036 0.43761 0.0
C1579 C 0.91995 0.49771 0.49321 0.0
C1580 C 0.93738 0.4979 0.51889 0.0
C1581 C 0.90063 0.49927 0.40983 0.0
C1582 C 0.88779 0.51218 0.42485 0.0
C1583 C 0.896 0.4861 0.36712 0.0
C1584 C 0.90839 0.47127 0.35178 0.0
C1585 C 0.91385 0.45865 0.39024 0.0
C1586 C 0.92564 0.4448 0.37571 0.0
C1587 C 0.93194 0.44333 0.32271 0.0
C1588 C 0.92643 0.45567 0.2841 0.0
C1589 C 0.91467 0.46957 0.29845 0.0
H1590 H 0.94106 0.43259 0.31154 0.0
H1591 H 0.82555 0.56587 0.45422 0.0
loop_
_geom_bond_atom_site_label_1
_geom_bond_atom_site_label_2
_geom_bond_distance
_geom_bond_site_symmetry_2
_ccdc_geom_bond_type
C0 C1 1.386 . S
C0 C2 1.397 . S
C0 H24 0.931 . S
C1 C0 1.386 . S
C1 C5 1.397 . S
C2 C0 1.397 . S
C2 C3 1.384 . S
C2 H25 0.930 . S
C3 C2 1.384 . S
C3 C4 1.377 . S
C3 C6 1.481 . S
C4 C3 1.377 . S
C4 C5 1.389 . S
C4 H26 0.929 . S
C5 C1 1.397 . S
C5 C4 1.389 . S
C5 H27 0.931 . S
C6 C3 1.481 . S
C6 C7 1.387 . S
C6 C11 1.390 1_556 S
C7 C6 1.387 . S
C7 C8 1.401 1_556 S
C7 H28 0.930 . S
C8 C7 1.401 1_554 S
C8 C9 1.376 . S
C8 C17 1.511 1_554 S
C9 C8 1.376 . S
C9 C10 1.392 . S
C9 H30 0.931 . S
C10 C9 1.392 . S
C10 C11 1.361 . S
C10 C12 1.500 . S
C11 C6 1.390 1_554 S
C11 C10 1.361 . S
C11 H29 0.931 . S
C12 C10 1.500 . S
C12 C13 1.371 . S
C12 C14 1.365 . S
C13 C12 1.371 . S
C13 C23 1.386 . S
C13 H31 0.931 . S
C14 C12 1.365 . S
C14 C15 1.409 . S
C14 H32 0.929 . S
C15 C14 1.409 . S
C15 C16 1.380 . S
C15 H33 0.930 . S
C16 C15 1.380 . S
C16 C23 1.357 . S
C17 C8 1.511 1_556 S
C17 C18 1.341 . S
C17 C19 1.371 1_556 S
C18 C17 1.341 . S
C18 C22 1.394 . S
C18 H34 0.930 . S
C19 C17 1.371 1_554 S
C19 C20 1.392 . S
C19 H35 0.931 . S
C20 C19 1.392 . S
C20 C21 1.331 1_554 S
C20 H38 0.932 . S
C21 C20 1.331 1_556 S
C21 C22 1.336 . S
C22 C18 1.394 . S
C22 C21 1.336 . S
C22 H37 0.929 . S
C23 C13 1.386 . S
C23 C16 1.357 . S
C23 H36 0.928 . S
H24 C0 0.931 . S
H25 C2 0.930 . S
H26 C4 0.929 . S
H27 C5 0.931 . S
H28 C7 0.930 . S
H29 C11 0.931 . S
H30 C9 0.931 . S
H31 C13 0.931 . S
H32 C14 0.929 . S
H33 C15 0.930 . S
H34 C18 0.930 . S
H35 C19 0.931 . S
H36 C23 0.928 . S
H37 C22 0.929 . S
H38 C20 0.932 . S
C39 C40 1.386 . S
C39 C41 1.397 . S
C39 H63 0.931 . S
C40 C39 1.386 . S
C40 C44 1.397 . S
C41 C39 1.397 . S
C41 C42 1.384 . S
C41 H64 0.930 . S
C42 C41 1.384 . S
C42 C43 1.377 . S
C42 C45 1.481 . S
C43 C42 1.377 . S
C43 C44 1.389 . S
C43 H65 0.929 . S
C44 C40 1.397 . S
C44 C43 1.389 . S
C44 H66 0.931 . S
C45 C42 1.481 . S
C45 C46 1.387 . S
C45 C50 1.390 1_556 S
C46 C45 1.387 . S
C46 C47 1.401 . S
C46 H67 0.930 . S
C47 C46 1.401 . S
C47 C48 1.376 1_556 S
C47 C56 1.511 . S
C48 C47 1.376 1_554 S
C48 C49 1.392 . S
C48 H69 0.931 . S
C49 C48 1.392 . S
C49 C50 1.361 . S
C49 C51 1.500 . S
C50 C45 1.390 1_554 S
C50 C49 1.361 . S
C50 H68 0.931 . S
C51 C49 1.500 . S
C51 C52 1.371 . S
C51 C53 1.365 . S
C52 C51 1.371 . S
C52 C62 1.386 . S
C52 H70 0.931 . S
C53 C51 1.365 . S
C53 C54 1.409 . S
C53 H71 0.929 . S
C54 C53 1.409 . S
C54 C55 1.380 . S
C54 H72 0.930 . S
C55 C54 1.380 . S
C55 C62 1.357 . S
C56 C47 1.511 . S
C56 C57 1.341 . S
C56 C58 1.371 1_556 S
C57 C56 1.341 . S
C57 C61 1.394 . S
C57 H73 0.930 . S
C58 C56 1.371 1_554 S
C58 C59 1.392 1_554 S
C58 H74 0.931 . S
C59 C58 1.392 1_556 S
C59 C60 1.330 . S
C59 H77 0.932 1_556 S
C60 C59 1.330 . S
C60 C61 1.336 . S
C61 C57 1.394 . S
C61 C60 1.336 . S
C61 H76 0.929 . S
C62 C52 1.386 . S
C62 C55 1.357 . S
C62 H75 0.928 . S
H63 C39 0.931 . S
H64 C41 0.930 . S
H65 C43 0.929 . S
H66 C44 0.931 . S
H67 C46 0.930 . S
H68 C50 0.931 . S
H69 C48 0.931 . S
H70 C52 0.931 . S
H71 C53 0.929 . S
H72 C54 0.930 . S
H73 C57 0.930 . S
H74 C58 0.931 . S
H75 C62 0.928 . S
H76 C61 0.929 . S
H77 C59 0.932 1_554 S
C78 C79 1.396 . S
C78 C80 1.397 . S
C78 H102 0.931 . S
C79 C78 1.396 . S
C79 C83 1.389 1_565 S
C80 C78 1.397 . S
C80 C81 1.389 . S
C80 H103 0.930 . S
C81 C80 1.389 . S
C81 C82 1.372 1_565 S
C81 C84 1.478 . S
C82 C81 1.372 1_545 S
C82 C83 1.389 . S
C82 H104 0.929 . S
C83 C79 1.389 1_545 S
C83 C82 1.389 . S
C83 H105 0.931 . S
C84 C81 1.478 . S
C84 C85 1.392 . S
C84 C89 1.390 1_556 S
C85 C84 1.392 . S
C85 C86 1.399 1_556 S
C85 H106 0.930 . S
C86 C85 1.399 1_554 S
C86 C87 1.376 . S
C86 C95 1.516 . S
C87 C86 1.376 . S
C87 C88 1.387 . S
C87 H108 0.938 . S
C88 C87 1.387 . S
C88 C89 1.362 . S
C88 C90 1.499 1_565 S
C89 C84 1.390 1_554 S
C89 C88 1.362 . S
C89 H107 0.930 . S
C90 C88 1.499 1_545 S
C90 C91 1.362 1_545 S
C90 C92 1.375 . S
C91 C90 1.362 1_565 S
C91 C101 1.386 . S
C91 H109 0.931 . S
C92 C90 1.375 . S
C92 C93 1.409 . S
C92 H110 0.929 . S
C93 C92 1.409 . S
C93 C94 1.378 . S
C93 H111 0.930 . S
C94 C93 1.378 . S
C94 C101 1.360 1_545 S
C95 C86 1.516 . S
C95 C96 1.341 1_554 S
C95 C97 1.371 1_565 S
C96 C95 1.341 1_556 S
C96 C100 1.394 . S
C96 H112 0.930 . S
C97 C95 1.371 1_545 S
C97 C98 1.392 . S
C97 H113 0.931 . S
C98 C97 1.392 . S
C98 C99 1.322 1_544 S
C98 H116 0.932 . S
C99 C98 1.322 1_566 S
C99 C100 1.343 . S
C100 C96 1.394 . S
C100 C99 1.343 . S
C100 H115 0.929 . S
C101 C91 1.386 . S
C101 C94 1.360 1_565 S
C101 H114 0.928 . S
H102 C78 0.931 . S
H103 C80 0.930 . S
H104 C82 0.929 . S
H105 C83 0.931 . S
H106 C85 0.930 . S
H107 C89 0.930 . S
H108 C87 0.938 . S
H109 C91 0.931 . S
H110 C92 0.929 . S
H111 C93 0.930 . S
H112 C96 0.930 . S
H113 C97 0.931 . S
H114 C101 0.928 . S
H115 C100 0.929 . S
H116 C98 0.932 . S
C117 C118 1.386 . S
C117 C119 1.397 . S
C117 H141 0.931 . S
C118 C117 1.386 . S
C118 C122 1.397 . S
C119 C117 1.397 . S
C119 C120 1.384 . S
C119 H142 0.930 . S
C120 C119 1.384 . S
C120 C121 1.377 . S
C120 C123 1.481 . S
C121 C120 1.377 . S
C121 C122 1.389 . S
C121 H143 0.929 . S
C122 C118 1.397 . S
C122 C121 1.389 . S
C122 H144 0.931 . S
C123 C120 1.481 . S
C123 C124 1.387 . S
C123 C128 1.390 . S
C124 C123 1.387 . S
C124 C125 1.401 . S
C124 H145 0.930 . S
C125 C124 1.401 . S
C125 C126 1.376 . S
C125 C134 1.511 . S
C126 C125 1.376 . S
C126 C127 1.392 . S
C126 H147 0.931 1_554 S
C127 C126 1.392 . S
C127 C128 1.361 . S
C127 C129 1.500 1_554 S
C128 C123 1.390 . S
C128 C127 1.361 . S
C128 H146 0.931 . S
C129 C127 1.500 1_556 S
C129 C130 1.371 . S
C129 C131 1.365 . S
C130 C129 1.371 . S
C130 C140 1.386 . S
C130 H148 0.931 . S
C131 C129 1.365 . S
C131 C132 1.409 . S
C131 H149 0.929 1_556 S
C132 C131 1.409 . S
C132 C133 1.380 . S
C132 H150 0.930 . S
C133 C132 1.380 . S
C133 C140 1.357 . S
C134 C125 1.511 . S
C134 C135 1.341 . S
C134 C136 1.371 1_554 S
C135 C134 1.341 . S
C135 C139 1.394 . S
C135 H151 0.930 . S
C136 C134 1.371 1_556 S
C136 C137 1.392 . S
C136 H152 0.931 . S
C137 C136 1.392 . S
C137 C138 1.331 1_556 S
C137 H155 0.932 . S
C138 C137 1.331 1_554 S
C138 C139 1.336 . S
C139 C135 1.394 . S
C139 C138 1.336 . S
C139 H154 0.929 . S
C140 C130 1.386 . S
C140 C133 1.357 . S
C140 H153 0.928 . S
H141 C117 0.931 . S
H142 C119 0.930 . S
H143 C121 0.929 . S
H144 C122 0.931 . S
H145 C124 0.930 . S
H146 C128 0.931 . S
H147 C126 0.931 1_556 S
H148 C130 0.931 . S
H149 C131 0.929 1_554 S
H150 C132 0.930 . S
H151 C135 0.930 . S
H152 C136 0.931 . S
H153 C140 0.928 . S
H154 C139 0.929 . S
H155 C137 0.932 . S
C156 C157 1.386 . S
C156 C158 1.397 . S
C156 H180 0.931 . S
C157 C156 1.386 . S
C157 C161 1.397 . S
C158 C156 1.397 . S
C158 C159 1.384 . S
C158 H181 0.930 . S
C159 C158 1.384 . S
C159 C160 1.377 . S
C159 C162 1.481 . S
C160 C159 1.377 . S
C160 C161 1.389 . S
C160 H182 0.929 . S
C161 C157 1.397 . S
C161 C160 1.389 . S
C161 H183 0.931 . S
C162 C159 1.481 . S
C162 C163 1.387 . S
C162 C167 1.390 . S
C163 C162 1.387 . S
C163 C164 1.401 . S
C163 H184 0.930 . S
C164 C163 1.401 . S
C164 C165 1.376 . S
C164 C173 1.511 . S
C165 C164 1.376 . S
C165 C166 1.392 . S
C165 H186 0.931 . S
C166 C165 1.392 . S
C166 C167 1.361 . S
C166 C168 1.500 . S
C167 C162 1.390 . S
C167 C166 1.361 . S
C167 H185 0.931 . S
C168 C166 1.500 . S
C168 C169 1.371 1_554 S
C168 C170 1.365 1_554 S
C169 C168 1.371 1_556 S
C169 C179 1.386 . S
C169 H187 0.931 . S
C170 C168 1.365 1_556 S
C170 C171 1.409 . S
C170 H188 0.929 1_556 S
C171 C170 1.409 . S
C171 C172 1.380 . S
C171 H189 0.930 . S
C172 C171 1.380 . S
C172 C179 1.357 . S
C173 C164 1.511 . S
C173 C174 1.341 . S
C173 C175 1.371 . S
C174 C173 1.341 . S
C174 C178 1.394 . S
C174 H190 0.930 . S
C175 C173 1.371 . S
C175 C176 1.392 . S
C175 H191 0.931 . S
C176 C175 1.392 . S
C176 C177 1.331 . S
C176 H194 0.932 . S
C177 C176 1.331 . S
C177 C178 1.336 . S
C178 C174 1.394 . S
C178 C177 1.336 . S
C178 H193 0.929 . S
C179 C169 1.386 . S
C179 C172 1.357 . S
C179 H192 0.928 . S
H180 C156 0.931 . S
H181 C158 0.930 . S
H182 C160 0.929 . S
H183 C161 0.931 . S
H184 C163 0.930 . S
H185 C167 0.931 . S
H186 C165 0.931 . S
H187 C169 0.931 . S
H188 C170 0.929 1_554 S
H189 C171 0.930 . S
H190 C174 0.930 . S
H191 C175 0.931 . S
H192 C179 0.928 . S
H193 C178 0.929 . S
H194 C176 0.932 . S
C195 C196 1.386 . S
C195 C197 1.397 . S
C195 H219 0.931 . S
C196 C195 1.386 . S
C196 C200 1.397 . S
C197 C195 1.397 . S
C197 C198 1.384 . S
C197 H220 0.930 . S
C198 C197 1.384 . S
C198 C199 1.377 . S
C198 C201 1.481 . S
C199 C198 1.377 . S
C199 C200 1.389 . S
C199 H221 0.929 . S
C200 C196 1.397 . S
C200 C199 1.389 . S
C200 H222 0.931 . S
C201 C198 1.481 . S
C201 C202 1.387 . S
C201 C206 1.390 . S
C202 C201 1.387 . S
C202 C203 1.401 . S
C202 H223 0.930 . S
C203 C202 1.401 . S
C203 C204 1.376 . S
C203 C212 1.511 . S
C204 C203 1.376 . S
C204 C205 1.392 . S
C204 H225 0.931 . S
C205 C204 1.392 . S
C205 C206 1.361 . S
C205 C207 1.500 . S
C206 C201 1.390 . S
C206 C205 1.361 . S
C206 H224 0.931 . S
C207 C205 1.500 . S
C207 C208 1.371 1_554 S
C207 C209 1.365 . S
C208 C207 1.371 1_556 S
C208 C218 1.386 . S
C208 H226 0.931 . S
C209 C207 1.365 . S
C209 C210 1.409 1_554 S
C209 H227 0.929 . S
C210 C209 1.409 1_556 S
C210 C211 1.380 . S
C210 H228 0.930 . S
C211 C210 1.380 . S
C211 C218 1.357 . S
C212 C203 1.511 . S
C212 C213 1.341 . S
C212 C214 1.371 . S
C213 C212 1.341 . S
C213 C217 1.394 . S
C213 H229 0.930 . S
C214 C212 1.371 . S
C214 C215 1.392 . S
C214 H230 0.931 . S
C215 C214 1.392 . S
C215 C216 1.331 . S
C215 H233 0.932 . S
C216 C215 1.331 . S
C216 C217 1.336 . S
C217 C213 1.394 . S
C217 C216 1.336 . S
C217 H232 0.929 . S
C218 C208 1.386 . S
C218 C211 1.357 . S
C218 H231 0.928 . S
H219 C195 0.931 . S
H220 C197 0.930 . S
H221 C199 0.929 . S
H222 C200 0.931 . S
H223 C202 0.930 . S
H224 C206 0.931 . S
H225 C204 0.931 . S
H226 C208 0.931 . S
H227 C209 0.929 . S
H228 C210 0.930 . S
H229 C213 0.930 . S
H230 C214 0.931 . S
H231 C218 0.928 . S
H232 C217 0.929 . S
H233 C215 0.932 . S
C234 C235 1.386 . S
C234 C236 1.397 . S
C234 H258 0.931 . S
C235 C234 1.386 . S
C235 C239 1.397 1_565 S
C236 C234 1.397 . S
C236 C237 1.380 . S
C236 H259 0.930 . S
C237 C236 1.380 . S
C237 C238 1.380 1_565 S
C237 C240 1.483 . S
C238 C237 1.380 1_545 S
C238 C239 1.389 . S
C238 H260 0.929 . S
C239 C235 1.397 1_545 S
C239 C238 1.389 . S
C239 H261 0.931 . S
C240 C237 1.483 . S
C240 C241 1.391 . S
C240 C245 1.390 . S
C241 C240 1.391 . S
C241 C242 1.397 . S
C241 H262 0.935 . S
C242 C241 1.397 . S
C242 C243 1.376 . S
C242 C251 1.510 . S
C243 C242 1.376 . S
C243 C244 1.395 1_565 S
C243 H264 0.930 . S
C244 C243 1.395 1_545 S
C244 C245 1.362 1_545 S
C244 C246 1.500 1_554 S
C245 C240 1.390 . S
C245 C244 1.362 1_565 S
C245 H263 0.930 1_565 S
C246 C244 1.500 1_556 S
C246 C247 1.359 1_545 S
C246 C248 1.377 . S
C247 C246 1.359 1_565 S
C247 C257 1.386 . S
C247 H265 0.931 . S
C248 C246 1.377 . S
C248 C249 1.409 . S
C248 H266 0.929 1_556 S
C249 C248 1.409 . S
C249 C250 1.384 . S
C249 H267 0.930 . S
C250 C249 1.384 . S
C250 C257 1.354 1_545 S
C251 C242 1.510 . S
C251 C252 1.341 . S
C251 C253 1.371 1_565 S
C252 C251 1.341 . S
C252 C256 1.394 . S
C252 H268 0.930 . S
C253 C251 1.371 1_545 S
C253 C254 1.392 . S
C253 H269 0.931 . S
C254 C253 1.392 . S
C254 C255 1.326 1_545 S
C254 H272 0.932 . S
C255 C254 1.326 1_565 S
C255 C256 1.342 . S
C256 C252 1.394 . S
C256 C255 1.342 . S
C256 H271 0.929 . S
C257 C247 1.386 . S
C257 C250 1.354 1_565 S
C257 H270 0.928 . S
H258 C234 0.931 . S
H259 C236 0.930 . S
H260 C238 0.929 . S
H261 C239 0.931 . S
H262 C241 0.935 . S
H263 C245 0.930 1_545 S
H264 C243 0.930 . S
H265 C247 0.931 . S
H266 C248 0.929 1_554 S
H267 C249 0.930 . S
H268 C252 0.930 . S
H269 C253 0.931 . S
H270 C257 0.928 . S
H271 C256 0.929 . S
H272 C254 0.932 . S
C273 C274 1.386 . S
C273 C275 1.397 . S
C273 H297 0.931 . S
C274 C273 1.386 . S
C274 C278 1.397 . S
C275 C273 1.397 . S
C275 C276 1.384 . S
C275 H298 0.930 . S
C276 C275 1.384 . S
C276 C277 1.377 . S
C276 C279 1.481 1_556 S
C277 C276 1.377 . S
C277 C278 1.389 . S
C277 H299 0.929 . S
C278 C274 1.397 . S
C278 C277 1.389 . S
C278 H300 0.931 . S
C279 C276 1.481 1_554 S
C279 C280 1.387 . S
C279 C284 1.390 . S
C280 C279 1.387 . S
C280 C281 1.401 . S
C280 H301 0.930 . S
C281 C280 1.401 . S
C281 C282 1.376 . S
C281 C290 1.511 . S
C282 C281 1.376 . S
C282 C283 1.392 . S
C282 H303 0.931 . S
C283 C282 1.392 . S
C283 C284 1.361 . S
C283 C285 1.500 . S
C284 C279 1.390 . S
C284 C283 1.361 . S
C284 H302 0.931 . S
C285 C283 1.500 . S
C285 C286 1.371 . S
C285 C287 1.365 . S
C286 C285 1.371 . S
C286 C296 1.386 . S
C286 H304 0.931 . S
C287 C285 1.365 . S
C287 C288 1.409 . S
C287 H305 0.929 . S
C288 C287 1.409 . S
C288 C289 1.380 . S
C288 H306 0.930 . S
C289 C288 1.380 . S
C289 C296 1.357 . S
C290 C281 1.511 . S
C290 C291 1.341 . S
C290 C292 1.371 . S
C291 C290 1.341 . S
C291 C295 1.394 . S
C291 H307 0.930 . S
C292 C290 1.371 . S
C292 C293 1.392 . S
C292 H308 0.931 . S
C293 C292 1.392 . S
C293 C294 1.331 . S
C293 H311 0.932 . S
C294 C293 1.331 . S
C294 C295 1.336 . S
C295 C291 1.394 . S
C295 C294 1.336 . S
C295 H310 0.929 . S
C296 C286 1.386 . S
C296 C289 1.357 . S
C296 H309 0.928 . S
H297 C273 0.931 . S
H298 C275 0.930 . S
H299 C277 0.929 . S
H300 C278 0.931 . S
H301 C280 0.930 . S
H302 C284 0.931 . S
H303 C282 0.931 . S
H304 C286 0.931 . S
H305 C287 0.929 . S
H306 C288 0.930 . S
H307 C291 0.930 . S
H308 C292 0.931 . S
H309 C296 0.928 . S
H310 C295 0.929 . S
H311 C293 0.932 . S
Dy312 O316 2.398 . S
Dy312 O317 2.491 1_455 S
Dy312 O318 2.403 . S
Dy312 O319 2.664 1_565 S
Dy312 O323 2.326 . S
Dy312 O327 2.310 1_455 S
Dy312 O328 2.351 1_565 S
C313 O324 1.185 1_455 S
C313 O325 1.355 . S
C314 O316 1.185 . S
C314 O317 1.355 1_455 S
Dy315 O319 2.287 1_655 S
Dy315 O322 2.356 1_545 S
Dy315 O324 2.405 . S
Dy315 O325 2.475 1_655 S
Dy315 O326 2.427 . S
Dy315 O327 2.672 1_545 S
Dy315 O329 2.320 1_655 S
O316 Dy312 2.398 . S
O316 C314 1.185 . S
O317 Dy312 2.491 1_655 S
O317 C314 1.355 1_655 S
O318 Dy312 2.403 . S
O318 C320 1.254 . S
O319 Dy312 2.664 1_545 S
O319 Dy315 2.287 1_455 S
O319 C320 1.268 1_545 S
C320 O318 1.254 . S
C320 O319 1.268 1_565 S
C321 O326 1.254 . S
C321 O327 1.268 1_545 S
O322 Dy315 2.356 1_565 S
O322 C330 1.249 . S
O323 Dy312 2.326 . S
O323 C330 1.267 1_455 S
O324 C313 1.185 1_655 S
O324 Dy315 2.405 . S
O325 C313 1.355 . S
O325 Dy315 2.475 1_455 S
O326 Dy315 2.427 . S
O326 C321 1.254 . S
O327 Dy312 2.310 1_655 S
O327 Dy315 2.672 1_565 S
O327 C321 1.268 1_565 S
O328 Dy312 2.351 1_545 S
O328 C331 1.249 . S
O329 Dy315 2.320 1_455 S
O329 C331 1.267 . S
C330 O322 1.249 . S
C330 O323 1.267 1_655 S
C331 O328 1.249 . S
C331 O329 1.267 . S
Dy332 O336 2.398 . S
Dy332 O337 2.491 . S
Dy332 O338 2.403 . S
Dy332 O339 2.664 . S
Dy332 O343 2.326 1_565 S
Dy332 O347 2.310 1_565 S
Dy332 O348 2.351 . S
C333 O344 1.185 . S
C333 O345 1.355 . S
C334 O336 1.185 . S
C334 O337 1.355 . S
Dy335 O339 2.310 1_545 S
Dy335 O342 2.351 . S
Dy335 O344 2.398 . S
Dy335 O345 2.491 . S
Dy335 O346 2.403 . S
Dy335 O347 2.664 . S
Dy335 O349 2.326 1_545 S
O336 Dy332 2.398 . S
O336 C334 1.185 . S
O337 Dy332 2.491 . S
O337 C334 1.355 . S
O338 Dy332 2.403 . S
O338 C340 1.254 . S
O339 Dy332 2.664 . S
O339 Dy335 2.310 1_565 S
O339 C340 1.268 . S
C340 O338 1.254 . S
C340 O339 1.268 . S
C341 O346 1.254 . S
C341 O347 1.268 . S
O342 Dy335 2.351 . S
O342 C350 1.249 . S
O343 Dy332 2.326 1_545 S
O343 C350 1.267 . S
O344 C333 1.185 . S
O344 Dy335 2.398 . S
O345 C333 1.355 . S
O345 Dy335 2.491 . S
O346 Dy335 2.403 . S
O346 C341 1.254 . S
O347 Dy332 2.310 1_545 S
O347 Dy335 2.664 . S
O347 C341 1.268 . S
O348 Dy332 2.351 . S
O348 C351 1.249 . S
O349 Dy335 2.326 1_565 S
O349 C351 1.267 . S
C350 O342 1.249 . S
C350 O343 1.267 . S
C351 O348 1.249 . S
C351 O349 1.267 . S
Dy352 O356 2.398 . S
Dy352 O357 2.491 . S
Dy352 O358 2.403 . S
Dy352 O359 2.664 . S
Dy352 O363 2.326 . S
Dy352 O367 2.310 . S
Dy352 O368 2.351 . S
C353 O364 1.185 . S
C353 O365 1.355 . S
C354 O356 1.185 . S
C354 O357 1.355 . S
Dy355 O359 2.310 . S
Dy355 O362 2.351 . S
Dy355 O364 2.398 . S
Dy355 O365 2.491 . S
Dy355 O366 2.403 . S
Dy355 O367 2.664 . S
Dy355 O369 2.326 . S
O356 Dy352 2.398 . S
O356 C354 1.185 . S
O357 Dy352 2.491 . S
O357 C354 1.355 . S
O358 Dy352 2.403 . S
O358 C360 1.254 . S
O359 Dy352 2.664 . S
O359 Dy355 2.310 . S
O359 C360 1.268 . S
C360 O358 1.254 . S
C360 O359 1.268 . S
C361 O366 1.254 . S
C361 O367 1.268 . S
O362 Dy355 2.351 . S
O362 C370 1.249 . S
O363 Dy352 2.326 . S
O363 C370 1.267 . S
O364 C353 1.185 . S
O364 Dy355 2.398 . S
O365 C353 1.355 . S
O365 Dy355 2.491 . S
O366 Dy355 2.403 . S
O366 C361 1.254 . S
O367 Dy352 2.310 . S
O367 Dy355 2.664 . S
O367 C361 1.268 . S
O368 Dy352 2.351 . S
O368 C371 1.249 . S
O369 Dy355 2.326 . S
O369 C371 1.267 . S
C370 O362 1.249 . S
C370 O363 1.267 . S
C371 O368 1.249 . S
C371 O369 1.267 . S
Dy372 O376 2.398 . S
Dy372 O377 2.491 . S
Dy372 O378 2.403 1_655 S
Dy372 O379 2.664 1_655 S
Dy372 O383 2.326 . S
Dy372 O387 2.310 . S
Dy372 O388 2.351 1_655 S
C373 O384 1.185 . S
C373 O385 1.355 . S
C374 O376 1.185 . S
C374 O377 1.355 . S
Dy375 O379 2.310 . S
Dy375 O382 2.351 1_455 S
Dy375 O384 2.398 . S
Dy375 O385 2.491 . S
Dy375 O386 2.403 . S
Dy375 O387 2.664 1_455 S
Dy375 O389 2.326 . S
O376 Dy372 2.398 . S
O376 C374 1.185 . S
O377 Dy372 2.491 . S
O377 C374 1.355 . S
O378 Dy372 2.403 1_455 S
O378 C380 1.254 . S
O379 Dy372 2.664 1_455 S
O379 Dy375 2.310 . S
O379 C380 1.268 . S
C380 O378 1.254 . S
C380 O379 1.268 . S
C381 O386 1.254 1_655 S
C381 O387 1.268 . S
O382 Dy375 2.351 1_655 S
O382 C390 1.249 . S
O383 Dy372 2.326 . S
O383 C390 1.267 . S
O384 C373 1.185 . S
O384 Dy375 2.398 . S
O385 C373 1.355 . S
O385 Dy375 2.491 . S
O386 Dy375 2.403 . S
O386 C381 1.254 1_455 S
O387 Dy372 2.310 . S
O387 Dy375 2.664 1_655 S
O387 C381 1.268 . S
O388 Dy372 2.351 1_455 S
O388 C391 1.249 . S
O389 Dy375 2.326 . S
O389 C391 1.267 . S
C390 O382 1.249 . S
C390 O383 1.267 . S
C391 O388 1.249 . S
C391 O389 1.267 . S
H392 C410 0.951 . S
H393 C412 0.951 . S
H394 C414 0.950 . S
H395 C415 0.950 . S
H396 C417 0.950 . S
H397 C420 0.950 . S
H398 C421 0.950 . S
H399 C423 0.950 . S
H400 C424 0.950 1_565 S
H401 C425 0.951 . S
H402 C427 0.951 . S
H403 C429 0.950 . S
H404 C430 0.950 . S
H405 C432 0.950 . S
H406 C435 0.950 . S
H407 C436 0.950 . S
H408 C438 0.950 . S
H409 C439 0.950 1_545 S
C410 H392 0.951 . S
C410 C411 1.368 . S
C410 C412 1.388 . S
C411 C410 1.368 . S
C411 C415 1.382 1_565 S
C412 H393 0.951 . S
C412 C410 1.388 . S
C412 C413 1.365 . S
C413 C412 1.365 . S
C413 C414 1.414 1_565 S
C413 C416 1.499 . S
C414 H394 0.950 . S
C414 C413 1.414 1_545 S
C414 C415 1.374 . S
C415 H395 0.950 . S
C415 C411 1.382 1_545 S
C415 C414 1.374 . S
C416 C413 1.499 . S
C416 C417 1.373 . S
C416 C418 1.389 1_565 S
C417 H396 0.950 . S
C417 C416 1.373 . S
C417 C433 1.377 . S
C418 C416 1.389 1_545 S
C418 C419 1.524 . S
C418 C432 1.377 . S
C419 C418 1.524 . S
C419 C420 1.397 . S
C419 C424 1.363 . S
C420 H397 0.950 . S
C420 C419 1.397 . S
C420 C421 1.334 . S
C421 H398 0.950 . S
C421 C420 1.334 . S
C421 C422 1.287 . S
C422 C421 1.287 . S
C422 C423 1.524 . S
C422 H441 0.913 . S
C423 H399 0.950 . S
C423 C422 1.524 . S
C423 C424 1.415 . S
C424 H400 0.950 1_545 S
C424 C419 1.363 . S
C424 C423 1.415 . S
C425 H401 0.951 . S
C425 C426 1.366 1_545 S
C425 C427 1.388 . S
C426 C425 1.366 1_565 S
C426 C430 1.385 . S
C427 H402 0.951 . S
C427 C425 1.388 . S
C427 C428 1.366 1_545 S
C428 C427 1.366 1_565 S
C428 C429 1.414 . S
C428 C431 1.499 . S
C429 H403 0.950 . S
C429 C428 1.414 . S
C429 C430 1.374 . S
C430 H404 0.950 . S
C430 C426 1.385 . S
C430 C429 1.374 . S
C431 C428 1.499 . S
C431 C432 1.373 1_565 S
C431 C433 1.389 . S
C432 H405 0.950 . S
C432 C418 1.377 . S
C432 C431 1.373 1_545 S
C433 C417 1.377 . S
C433 C431 1.389 . S
C433 C434 1.524 . S
C434 C433 1.524 . S
C434 C435 1.397 . S
C434 C439 1.363 . S
C435 H406 0.950 . S
C435 C434 1.397 . S
C435 C436 1.334 . S
C436 H407 0.950 . S
C436 C435 1.334 . S
C436 C437 1.287 . S
C437 C436 1.287 . S
C437 C438 1.524 . S
C437 H440 0.999 . S
C438 H408 0.950 . S
C438 C437 1.524 . S
C438 C439 1.415 . S
C439 H409 0.950 1_565 S
C439 C434 1.363 . S
C439 C438 1.415 . S
H440 C437 0.999 . S
H441 C422 0.913 . S
H442 C460 0.951 . S
H443 C462 0.951 . S
H444 C464 0.950 . S
H445 C465 0.950 . S
H446 C467 0.950 . S
H447 C470 0.950 . S
H448 C471 0.950 . S
H449 C473 0.950 . S
H450 C474 0.950 . S
H451 C475 0.951 . S
H452 C477 0.951 . S
H453 C479 0.950 . S
H454 C480 0.950 . S
H455 C482 0.950 . S
H456 C485 0.950 . S
H457 C486 0.950 . S
H458 C488 0.950 . S
H459 C489 0.950 . S
C460 H442 0.951 . S
C460 C461 1.366 . S
C460 C462 1.388 . S
C461 C460 1.366 . S
C461 C465 1.385 . S
C462 H443 0.951 . S
C462 C460 1.388 . S
C462 C463 1.366 . S
C463 C462 1.366 . S
C463 C464 1.414 . S
C463 C466 1.499 . S
C464 H444 0.950 . S
C464 C463 1.414 . S
C464 C465 1.374 . S
C465 H445 0.950 . S
C465 C461 1.385 . S
C465 C464 1.374 . S
C466 C463 1.499 . S
C466 C467 1.373 . S
C466 C468 1.389 . S
C467 H446 0.950 . S
C467 C466 1.373 . S
C467 C483 1.377 . S
C468 C466 1.389 . S
C468 C469 1.524 . S
C468 C482 1.377 . S
C469 C468 1.524 . S
C469 C470 1.397 . S
C469 C474 1.363 . S
C470 H447 0.950 . S
C470 C469 1.397 . S
C470 C471 1.334 . S
C471 H448 0.950 . S
C471 C470 1.334 . S
C471 C472 1.287 . S
C472 C471 1.287 . S
C472 C473 1.524 . S
C472 H491 0.913 . S
C473 H449 0.950 . S
C473 C472 1.524 . S
C473 C474 1.415 . S
C474 H450 0.950 . S
C474 C469 1.363 . S
C474 C473 1.415 . S
C475 H451 0.951 . S
C475 C476 1.366 . S
C475 C477 1.388 . S
C476 C475 1.366 . S
C476 C480 1.385 . S
C477 H452 0.951 . S
C477 C475 1.388 . S
C477 C478 1.366 . S
C478 C477 1.366 . S
C478 C479 1.414 . S
C478 C481 1.499 . S
C479 H453 0.950 . S
C479 C478 1.414 . S
C479 C480 1.374 . S
C480 H454 0.950 . S
C480 C476 1.385 . S
C480 C479 1.374 . S
C481 C478 1.499 . S
C481 C482 1.373 . S
C481 C483 1.389 . S
C482 H455 0.950 . S
C482 C468 1.377 . S
C482 C481 1.373 . S
C483 C467 1.377 . S
C483 C481 1.389 . S
C483 C484 1.524 . S
C484 C483 1.524 . S
C484 C485 1.397 . S
C484 C489 1.363 . S
C485 H456 0.950 . S
C485 C484 1.397 . S
C485 C486 1.334 . S
C486 H457 0.950 . S
C486 C485 1.334 . S
C486 C487 1.287 . S
C487 C486 1.287 . S
C487 C488 1.524 . S
C487 H490 0.999 . S
C488 H458 0.950 . S
C488 C487 1.524 . S
C488 C489 1.415 . S
C489 H459 0.950 . S
C489 C484 1.363 . S
C489 C488 1.415 . S
H490 C487 0.999 . S
H491 C472 0.913 . S
H492 C510 0.951 . S
H493 C512 0.951 . S
H494 C514 0.950 . S
H495 C515 0.950 . S
H496 C517 0.950 . S
H497 C520 0.950 . S
H498 C521 0.950 . S
H499 C523 0.950 . S
H500 C524 0.950 . S
H501 C525 0.951 . S
H502 C527 0.951 . S
H503 C529 0.950 . S
H504 C530 0.950 . S
H505 C532 0.950 . S
H506 C535 0.950 . S
H507 C536 0.950 . S
H508 C538 0.950 . S
H509 C539 0.950 . S
C510 H492 0.951 . S
C510 C511 1.366 . S
C510 C512 1.388 . S
C511 C510 1.366 . S
C511 C515 1.385 . S
C512 H493 0.951 . S
C512 C510 1.388 . S
C512 C513 1.366 . S
C513 C512 1.366 . S
C513 C514 1.414 . S
C513 C516 1.499 . S
C514 H494 0.950 . S
C514 C513 1.414 . S
C514 C515 1.374 . S
C515 H495 0.950 . S
C515 C511 1.385 . S
C515 C514 1.374 . S
C516 C513 1.499 . S
C516 C517 1.373 . S
C516 C518 1.389 . S
C517 H496 0.950 . S
C517 C516 1.373 . S
C517 C533 1.377 . S
C518 C516 1.389 . S
C518 C519 1.524 . S
C518 C532 1.377 . S
C519 C518 1.524 . S
C519 C520 1.397 . S
C519 C524 1.363 . S
C520 H497 0.950 . S
C520 C519 1.397 . S
C520 C521 1.334 . S
C521 H498 0.950 . S
C521 C520 1.334 . S
C521 C522 1.287 . S
C522 C521 1.287 . S
C522 C523 1.524 . S
C522 H541 0.913 . S
C523 H499 0.950 . S
C523 C522 1.524 . S
C523 C524 1.415 . S
C524 H500 0.950 . S
C524 C519 1.363 . S
C524 C523 1.415 . S
C525 H501 0.951 . S
C525 C526 1.366 . S
C525 C527 1.388 . S
C526 C525 1.366 . S
C526 C530 1.385 . S
C527 H502 0.951 . S
C527 C525 1.388 . S
C527 C528 1.366 . S
C528 C527 1.366 . S
C528 C529 1.414 . S
C528 C531 1.499 . S
C529 H503 0.950 . S
C529 C528 1.414 . S
C529 C530 1.374 . S
C530 H504 0.950 . S
C530 C526 1.385 . S
C530 C529 1.374 . S
C531 C528 1.499 . S
C531 C532 1.373 . S
C531 C533 1.389 . S
C532 H505 0.950 . S
C532 C518 1.377 . S
C532 C531 1.373 . S
C533 C517 1.377 . S
C533 C531 1.389 . S
C533 C534 1.524 . S
C534 C533 1.524 . S
C534 C535 1.397 . S
C534 C539 1.363 . S
C535 H506 0.950 . S
C535 C534 1.397 . S
C535 C536 1.334 . S
C536 H507 0.950 . S
C536 C535 1.334 . S
C536 C537 1.287 . S
C537 C536 1.287 . S
C537 C538 1.524 . S
C537 H540 0.999 . S
C538 H508 0.950 . S
C538 C537 1.524 . S
C538 C539 1.415 . S
C539 H509 0.950 . S
C539 C534 1.363 . S
C539 C538 1.415 . S
H540 C537 0.999 . S
H541 C522 0.913 . S
H542 C560 0.951 . S
H543 C562 0.951 . S
H544 C564 0.950 . S
H545 C565 0.950 . S
H546 C567 0.950 . S
H547 C570 0.950 . S
H548 C571 0.950 . S
H549 C573 0.950 . S
H550 C574 0.950 . S
H551 C575 0.951 . S
H552 C577 0.951 . S
H553 C579 0.950 . S
H554 C580 0.950 . S
H555 C582 0.950 . S
H556 C585 0.950 . S
H557 C586 0.950 . S
H558 C588 0.950 . S
H559 C589 0.950 . S
C560 H542 0.951 . S
C560 C561 1.366 . S
C560 C562 1.388 . S
C561 C560 1.366 . S
C561 C565 1.385 . S
C562 H543 0.951 . S
C562 C560 1.388 . S
C562 C563 1.366 . S
C563 C562 1.366 . S
C563 C564 1.414 . S
C563 C566 1.499 . S
C564 H544 0.950 . S
C564 C563 1.414 . S
C564 C565 1.374 . S
C565 H545 0.950 . S
C565 C561 1.385 . S
C565 C564 1.374 . S
C566 C563 1.499 . S
C566 C567 1.373 . S
C566 C568 1.389 . S
C567 H546 0.950 . S
C567 C566 1.373 . S
C567 C583 1.377 . S
C568 C566 1.389 . S
C568 C569 1.524 . S
C568 C582 1.377 . S
C569 C568 1.524 . S
C569 C570 1.397 . S
C569 C574 1.363 . S
C570 H547 0.950 . S
C570 C569 1.397 . S
C570 C571 1.334 . S
C571 H548 0.950 . S
C571 C570 1.334 . S
C571 C572 1.287 . S
C572 C571 1.287 . S
C572 C573 1.524 . S
C572 H591 0.913 . S
C573 H549 0.950 . S
C573 C572 1.524 . S
C573 C574 1.415 . S
C574 H550 0.950 . S
C574 C569 1.363 . S
C574 C573 1.415 . S
C575 H551 0.951 . S
C575 C576 1.366 . S
C575 C577 1.388 . S
C576 C575 1.366 . S
C576 C580 1.385 . S
C577 H552 0.951 . S
C577 C575 1.388 . S
C577 C578 1.366 . S
C578 C577 1.366 . S
C578 C579 1.414 . S
C578 C581 1.499 . S
C579 H553 0.950 . S
C579 C578 1.414 . S
C579 C580 1.374 . S
C580 H554 0.950 . S
C580 C576 1.385 . S
C580 C579 1.374 . S
C581 C578 1.499 . S
C581 C582 1.373 . S
C581 C583 1.389 . S
C582 H555 0.950 . S
C582 C568 1.377 . S
C582 C581 1.373 . S
C583 C567 1.377 . S
C583 C581 1.389 . S
C583 C584 1.524 . S
C584 C583 1.524 . S
C584 C585 1.397 . S
C584 C589 1.363 . S
C585 H556 0.950 . S
C585 C584 1.397 . S
C585 C586 1.334 . S
C586 H557 0.950 . S
C586 C585 1.334 . S
C586 C587 1.287 . S
C587 C586 1.287 . S
C587 C588 1.524 . S
C587 H590 0.999 . S
C588 H558 0.950 . S
C588 C587 1.524 . S
C588 C589 1.415 . S
C589 H559 0.950 . S
C589 C584 1.363 . S
C589 C588 1.415 . S
H590 C587 0.999 . S
H591 C572 0.913 . S
H592 C610 0.951 . S
H593 C612 0.951 . S
H594 C614 0.950 . S
H595 C615 0.950 . S
H596 C617 0.950 . S
H597 C620 0.950 . S
H598 C621 0.950 . S
H599 C623 0.950 . S
H600 C624 0.950 . S
H601 C625 0.951 . S
H602 C627 0.951 . S
H603 C629 0.950 . S
H604 C630 0.950 . S
H605 C632 0.950 . S
H606 C635 0.950 . S
H607 C636 0.950 . S
H608 C638 0.950 . S
H609 C639 0.950 . S
C610 H592 0.951 . S
C610 C611 1.378 . S
C610 C612 1.388 . S
C611 C610 1.378 . S
C611 C615 1.372 1_545 S
C612 H593 0.951 . S
C612 C610 1.388 . S
C612 C613 1.366 . S
C613 C612 1.366 . S
C613 C614 1.414 1_545 S
C613 C616 1.499 . S
C614 H594 0.950 . S
C614 C613 1.414 1_565 S
C614 C615 1.374 . S
C615 H595 0.950 . S
C615 C611 1.372 1_565 S
C615 C614 1.374 . S
C616 C613 1.499 . S
C616 C617 1.373 1_545 S
C616 C618 1.389 . S
C617 H596 0.950 . S
C617 C616 1.373 1_565 S
C617 C633 1.377 . S
C618 C616 1.389 . S
C618 C619 1.524 . S
C618 C632 1.377 . S
C619 C618 1.524 . S
C619 C620 1.397 . S
C619 C624 1.363 . S
C620 H597 0.950 . S
C620 C619 1.397 . S
C620 C621 1.334 . S
C621 H598 0.950 . S
C621 C620 1.334 . S
C621 C622 1.287 . S
C622 C621 1.287 . S
C622 C623 1.524 . S
C622 H641 0.913 . S
C623 H599 0.950 . S
C623 C622 1.524 . S
C623 C624 1.415 . S
C624 H600 0.950 . S
C624 C619 1.363 . S
C624 C623 1.415 . S
C625 H601 0.951 . S
C625 C626 1.366 1_565 S
C625 C627 1.388 . S
C626 C625 1.366 1_545 S
C626 C630 1.385 . S
C627 H602 0.951 . S
C627 C625 1.388 . S
C627 C628 1.366 1_565 S
C628 C627 1.366 1_545 S
C628 C629 1.414 . S
C628 C631 1.499 . S
C629 H603 0.950 . S
C629 C628 1.414 . S
C629 C630 1.374 . S
C630 H604 0.950 . S
C630 C626 1.385 . S
C630 C629 1.374 . S
C631 C628 1.499 . S
C631 C632 1.373 . S
C631 C633 1.389 1_545 S
C632 H605 0.950 . S
C632 C618 1.377 . S
C632 C631 1.373 . S
C633 C617 1.377 . S
C633 C631 1.389 1_565 S
C633 C634 1.524 . S
C634 C633 1.524 . S
C634 C635 1.397 . S
C634 C639 1.363 . S
C635 H606 0.950 . S
C635 C634 1.397 . S
C635 C636 1.334 . S
C636 H607 0.950 . S
C636 C635 1.334 . S
C636 C637 1.287 . S
C637 C636 1.287 . S
C637 C638 1.524 . S
C637 H640 0.999 . S
C638 H608 0.950 . S
C638 C637 1.524 . S
C638 C639 1.415 . S
C639 H609 0.950 . S
C639 C634 1.363 . S
C639 C638 1.415 . S
H640 C637 0.999 . S
H641 C622 0.913 . S
H642 C660 0.951 . S
H643 C662 0.951 . S
H644 C664 0.950 . S
H645 C665 0.950 . S
H646 C667 0.950 . S
H647 C670 0.950 . S
H648 C671 0.950 . S
H649 C673 0.950 . S
H650 C674 0.950 . S
H651 C675 0.951 . S
H652 C677 0.951 . S
H653 C679 0.950 . S
H654 C680 0.950 . S
H655 C682 0.950 . S
H656 C685 0.950 . S
H657 C686 0.950 . S
H658 C688 0.950 . S
H659 C689 0.950 . S
C660 H642 0.951 . S
C660 C661 1.366 . S
C660 C662 1.388 . S
C661 C660 1.366 . S
C661 C665 1.385 . S
C662 H643 0.951 . S
C662 C660 1.388 . S
C662 C663 1.366 . S
C663 C662 1.366 . S
C663 C664 1.414 . S
C663 C666 1.499 . S
C664 H644 0.950 . S
C664 C663 1.414 . S
C664 C665 1.374 . S
C665 H645 0.950 . S
C665 C661 1.385 . S
C665 C664 1.374 . S
C666 C663 1.499 . S
C666 C667 1.373 . S
C666 C668 1.389 . S
C667 H646 0.950 . S
C667 C666 1.373 . S
C667 C683 1.377 . S
C668 C666 1.389 . S
C668 C669 1.524 . S
C668 C682 1.377 . S
C669 C668 1.524 . S
C669 C670 1.397 . S
C669 C674 1.363 . S
C670 H647 0.950 . S
C670 C669 1.397 . S
C670 C671 1.334 . S
C671 H648 0.950 . S
C671 C670 1.334 . S
C671 C672 1.287 . S
C672 C671 1.287 . S
C672 C673 1.524 . S
C672 H691 0.913 . S
C673 H649 0.950 . S
C673 C672 1.524 . S
C673 C674 1.415 . S
C674 H650 0.950 . S
C674 C669 1.363 . S
C674 C673 1.415 . S
C675 H651 0.951 . S
C675 C676 1.366 . S
C675 C677 1.388 . S
C676 C675 1.366 . S
C676 C680 1.385 . S
C677 H652 0.951 . S
C677 C675 1.388 . S
C677 C678 1.366 . S
C678 C677 1.366 . S
C678 C679 1.414 . S
C678 C681 1.499 . S
C679 H653 0.950 . S
C679 C678 1.414 . S
C679 C680 1.374 . S
C680 H654 0.950 . S
C680 C676 1.385 . S
C680 C679 1.374 . S
C681 C678 1.499 . S
C681 C682 1.373 . S
C681 C683 1.389 . S
C682 H655 0.950 . S
C682 C668 1.377 . S
C682 C681 1.373 . S
C683 C667 1.377 . S
C683 C681 1.389 . S
C683 C684 1.524 . S
C684 C683 1.524 . S
C684 C685 1.397 . S
C684 C689 1.363 . S
C685 H656 0.950 . S
C685 C684 1.397 . S
C685 C686 1.334 . S
C686 H657 0.950 . S
C686 C685 1.334 . S
C686 C687 1.287 . S
C687 C686 1.287 . S
C687 C688 1.524 . S
C687 H690 0.999 . S
C688 H658 0.950 . S
C688 C687 1.524 . S
C688 C689 1.415 . S
C689 H659 0.950 . S
C689 C684 1.363 . S
C689 C688 1.415 . S
H690 C687 0.999 . S
H691 C672 0.913 . S
H692 C710 0.951 . S
H693 C712 0.951 . S
H694 C714 0.950 . S
H695 C715 0.950 . S
H696 C717 0.950 . S
H697 C720 0.950 . S
H698 C721 0.950 1_554 S
H699 C723 0.950 . S
H700 C724 0.950 . S
H701 C725 0.951 . S
H702 C727 0.951 . S
H703 C729 0.950 . S
H704 C730 0.950 . S
H705 C732 0.950 . S
H706 C735 0.950 . S
H707 C736 0.950 . S
H708 C738 0.950 . S
H709 C739 0.950 . S
C710 H692 0.951 . S
C710 C711 1.366 . S
C710 C712 1.388 . S
C711 C710 1.366 . S
C711 C715 1.385 . S
C712 H693 0.951 . S
C712 C710 1.388 . S
C712 C713 1.366 . S
C713 C712 1.366 . S
C713 C714 1.414 . S
C713 C716 1.499 . S
C714 H694 0.950 . S
C714 C713 1.414 . S
C714 C715 1.374 . S
C715 H695 0.950 . S
C715 C711 1.385 . S
C715 C714 1.374 . S
C716 C713 1.499 . S
C716 C717 1.373 . S
C716 C718 1.389 . S
C717 H696 0.950 . S
C717 C716 1.373 . S
C717 C733 1.377 . S
C718 C716 1.389 . S
C718 C719 1.524 . S
C718 C732 1.377 . S
C719 C718 1.524 . S
C719 C720 1.397 . S
C719 C724 1.363 . S
C720 H697 0.950 . S
C720 C719 1.397 . S
C720 C721 1.334 . S
C721 H698 0.950 1_556 S
C721 C720 1.334 . S
C721 C722 1.287 . S
C722 C721 1.287 . S
C722 C723 1.524 . S
C722 H741 0.913 1_556 S
C723 H699 0.950 . S
C723 C722 1.524 . S
C723 C724 1.415 . S
C724 H700 0.950 . S
C724 C719 1.363 . S
C724 C723 1.415 . S
C725 H701 0.951 . S
C725 C726 1.366 . S
C725 C727 1.388 . S
C726 C725 1.366 . S
C726 C730 1.385 . S
C727 H702 0.951 . S
C727 C725 1.388 . S
C727 C728 1.366 . S
C728 C727 1.366 . S
C728 C729 1.414 . S
C728 C731 1.499 . S
C729 H703 0.950 . S
C729 C728 1.414 . S
C729 C730 1.374 . S
C730 H704 0.950 . S
C730 C726 1.385 . S
C730 C729 1.374 . S
C731 C728 1.499 . S
C731 C732 1.373 . S
C731 C733 1.389 . S
C732 H705 0.950 . S
C732 C718 1.377 . S
C732 C731 1.373 . S
C733 C717 1.377 . S
C733 C731 1.389 . S
C733 C734 1.524 . S
C734 C733 1.524 . S
C734 C735 1.397 . S
C734 C739 1.363 . S
C735 H706 0.950 . S
C735 C734 1.397 . S
C735 C736 1.334 . S
C736 H707 0.950 . S
C736 C735 1.334 . S
C736 C737 1.287 . S
C737 C736 1.287 . S
C737 C738 1.524 . S
C737 H740 0.999 . S
C738 H708 0.950 . S
C738 C737 1.524 . S
C738 C739 1.415 . S
C739 H709 0.950 . S
C739 C734 1.363 . S
C739 C738 1.415 . S
H740 C737 0.999 . S
H741 C722 0.913 1_554 S
H742 C760 0.951 . S
H743 C762 0.951 . S
H744 C764 0.950 . S
H745 C765 0.950 . S
H746 C767 0.950 . S
H747 C770 0.950 . S
H748 C771 0.950 . S
H749 C773 0.950 . S
H750 C774 0.950 . S
H751 C775 0.946 1_455 S
H752 C777 0.951 . S
H753 C779 0.950 . S
H754 C780 0.950 . S
H755 C782 0.950 . S
H756 C785 0.950 . S
H757 C786 0.948 1_655 S
H758 C788 0.950 . S
H759 C789 0.950 . S
C760 H742 0.951 . S
C760 C761 1.366 . S
C760 C762 1.388 . S
C761 C760 1.366 . S
C761 C765 1.385 . S
C762 H743 0.951 . S
C762 C760 1.388 . S
C762 C763 1.366 . S
C763 C762 1.366 . S
C763 C764 1.414 . S
C763 C766 1.499 . S
C764 H744 0.950 . S
C764 C763 1.414 . S
C764 C765 1.374 . S
C765 H745 0.950 . S
C765 C761 1.385 . S
C765 C764 1.374 . S
C766 C763 1.499 . S
C766 C767 1.373 . S
C766 C768 1.389 . S
C767 H746 0.950 . S
C767 C766 1.373 . S
C767 C783 1.377 . S
C768 C766 1.389 . S
C768 C769 1.524 . S
C768 C782 1.377 . S
C769 C768 1.524 . S
C769 C770 1.397 . S
C769 C774 1.363 . S
C770 H747 0.950 . S
C770 C769 1.397 . S
C770 C771 1.334 . S
C771 H748 0.950 . S
C771 C770 1.334 . S
C771 C772 1.287 . S
C772 C771 1.287 . S
C772 C773 1.524 . S
C772 H791 0.913 . S
C773 H749 0.950 . S
C773 C772 1.524 . S
C773 C774 1.415 . S
C774 H750 0.950 . S
C774 C769 1.363 . S
C774 C773 1.415 . S
C775 H751 0.946 1_655 S
C775 C776 1.368 . S
C775 C777 1.390 . S
C776 C775 1.368 . S
C776 C780 1.385 . S
C777 H752 0.951 . S
C777 C775 1.390 . S
C777 C778 1.366 . S
C778 C777 1.366 . S
C778 C779 1.414 . S
C778 C781 1.499 . S
C779 H753 0.950 . S
C779 C778 1.414 . S
C779 C780 1.374 . S
C780 H754 0.950 . S
C780 C776 1.385 . S
C780 C779 1.374 . S
C781 C778 1.499 . S
C781 C782 1.373 . S
C781 C783 1.389 . S
C782 H755 0.950 . S
C782 C768 1.377 . S
C782 C781 1.373 . S
C783 C767 1.377 . S
C783 C781 1.389 . S
C783 C784 1.524 . S
C784 C783 1.524 . S
C784 C785 1.397 . S
C784 C789 1.363 1_655 S
C785 H756 0.950 . S
C785 C784 1.397 . S
C785 C786 1.301 1_655 S
C786 H757 0.948 1_455 S
C786 C785 1.301 1_455 S
C786 C787 1.324 . S
C787 C786 1.324 . S
C787 C788 1.524 . S
C787 H790 0.999 . S
C788 H758 0.950 . S
C788 C787 1.524 . S
C788 C789 1.415 . S
C789 H759 0.950 . S
C789 C784 1.363 1_455 S
C789 C788 1.415 . S
H790 C787 0.999 . S
H791 C772 0.913 . S
H792 C810 0.951 . S
H793 C812 0.951 . S
H794 C814 0.950 . S
H795 C815 0.950 . S
H796 C817 0.950 . S
H797 C820 0.950 . S
H798 C821 0.950 . S
H799 C823 0.950 . S
H800 C824 0.950 . S
H801 C825 0.951 . S
H802 C827 0.951 . S
H803 C829 0.950 . S
H804 C830 0.950 . S
H805 C832 0.950 . S
H806 C835 0.953 . S
H807 C836 0.950 . S
H808 C838 0.950 . S
H809 C839 0.950 . S
C810 H792 0.951 . S
C810 C811 1.366 . S
C810 C812 1.388 . S
C811 C810 1.366 . S
C811 C815 1.385 . S
C812 H793 0.951 . S
C812 C810 1.388 . S
C812 C813 1.366 . S
C813 C812 1.366 . S
C813 C814 1.414 . S
C813 C816 1.499 . S
C814 H794 0.950 . S
C814 C813 1.414 . S
C814 C815 1.374 . S
C815 H795 0.950 . S
C815 C811 1.385 . S
C815 C814 1.374 . S
C816 C813 1.499 . S
C816 C817 1.373 . S
C816 C818 1.389 . S
C817 H796 0.950 . S
C817 C816 1.373 . S
C817 C833 1.377 . S
C818 C816 1.389 . S
C818 C819 1.524 . S
C818 C832 1.377 . S
C819 C818 1.524 . S
C819 C820 1.397 . S
C819 C824 1.363 . S
C820 H797 0.950 . S
C820 C819 1.397 . S
C820 C821 1.334 . S
C821 H798 0.950 . S
C821 C820 1.334 . S
C821 C822 1.287 . S
C822 C821 1.287 . S
C822 C823 1.524 . S
C822 H841 0.913 . S
C823 H799 0.950 . S
C823 C822 1.524 . S
C823 C824 1.415 . S
C824 H800 0.950 . S
C824 C819 1.363 . S
C824 C823 1.415 . S
C825 H801 0.951 . S
C825 C826 1.366 . S
C825 C827 1.388 . S
C826 C825 1.366 . S
C826 C830 1.385 . S
C827 H802 0.951 . S
C827 C825 1.388 . S
C827 C828 1.366 . S
C828 C827 1.366 . S
C828 C829 1.414 . S
C828 C831 1.499 . S
C829 H803 0.950 . S
C829 C828 1.414 . S
C829 C830 1.374 . S
C830 H804 0.950 . S
C830 C826 1.385 . S
C830 C829 1.374 . S
C831 C828 1.499 . S
C831 C832 1.373 . S
C831 C833 1.389 . S
C832 H805 0.950 . S
C832 C818 1.377 . S
C832 C831 1.373 . S
C833 C817 1.377 . S
C833 C831 1.389 . S
C833 C834 1.524 . S
C834 C833 1.524 . S
C834 C835 1.420 . S
C834 C839 1.363 . S
C835 H806 0.953 . S
C835 C834 1.420 . S
C835 C836 1.308 1_455 S
C836 H807 0.950 . S
C836 C835 1.308 1_655 S
C836 C837 1.287 . S
C837 C836 1.287 . S
C837 C838 1.524 . S
C837 H840 0.999 . S
C838 H808 0.950 . S
C838 C837 1.524 . S
C838 C839 1.415 1_655 S
C839 H809 0.950 . S
C839 C834 1.363 . S
C839 C838 1.415 1_455 S
H840 C837 0.999 . S
H841 C822 0.913 . S
H842 C860 0.951 . S
H843 C862 0.951 . S
H844 C864 0.950 . S
H845 C865 0.950 . S
H846 C867 0.950 . S
H847 C870 0.950 . S
H848 C871 0.950 . S
H849 C873 0.950 . S
H850 C874 0.950 . S
H851 C875 0.951 . S
H852 C877 0.951 . S
H853 C879 0.950 1_545 S
H854 C880 0.951 . S
H855 C882 0.950 . S
H856 C885 0.950 . S
H857 C886 0.950 . S
H858 C888 0.950 . S
H859 C889 0.950 . S
C860 H842 0.951 . S
C860 C861 1.366 . S
C860 C862 1.388 . S
C861 C860 1.366 . S
C861 C865 1.385 1_545 S
C862 H843 0.951 . S
C862 C860 1.388 . S
C862 C863 1.366 1_545 S
C863 C862 1.366 1_565 S
C863 C864 1.414 . S
C863 C866 1.499 . S
C864 H844 0.950 . S
C864 C863 1.414 . S
C864 C865 1.374 . S
C865 H845 0.950 . S
C865 C861 1.385 1_565 S
C865 C864 1.374 . S
C866 C863 1.499 . S
C866 C867 1.373 1_565 S
C866 C868 1.389 . S
C867 H846 0.950 . S
C867 C866 1.373 1_545 S
C867 C883 1.377 . S
C868 C866 1.389 . S
C868 C869 1.524 . S
C868 C882 1.377 . S
C869 C868 1.524 . S
C869 C870 1.397 . S
C869 C874 1.363 . S
C870 H847 0.950 . S
C870 C869 1.397 . S
C870 C871 1.334 . S
C871 H848 0.950 . S
C871 C870 1.334 . S
C871 C872 1.287 . S
C872 C871 1.287 . S
C872 C873 1.524 . S
C872 H891 0.913 . S
C873 H849 0.950 . S
C873 C872 1.524 . S
C873 C874 1.415 . S
C874 H850 0.950 . S
C874 C869 1.363 . S
C874 C873 1.415 . S
C875 H851 0.951 . S
C875 C876 1.366 . S
C875 C877 1.388 . S
C876 C875 1.366 . S
C876 C880 1.385 . S
C877 H852 0.951 . S
C877 C875 1.388 . S
C877 C878 1.366 . S
C878 C877 1.366 . S
C878 C879 1.414 . S
C878 C881 1.499 . S
C879 H853 0.950 1_565 S
C879 C878 1.414 . S
C879 C880 1.374 . S
C880 H854 0.951 . S
C880 C876 1.385 . S
C880 C879 1.374 . S
C881 C878 1.499 . S
C881 C882 1.373 . S
C881 C883 1.389 1_565 S
C882 H855 0.950 . S
C882 C868 1.377 . S
C882 C881 1.373 . S
C883 C867 1.377 . S
C883 C881 1.389 1_545 S
C883 C884 1.524 . S
C884 C883 1.524 . S
C884 C885 1.397 . S
C884 C889 1.363 . S
C885 H856 0.950 . S
C885 C884 1.397 . S
C885 C886 1.334 . S
C886 H857 0.950 . S
C886 C885 1.334 . S
C886 C887 1.287 . S
C887 C886 1.287 . S
C887 C888 1.524 . S
C887 H890 0.999 . S
C888 H858 0.950 . S
C888 C887 1.524 . S
C888 C889 1.415 . S
C889 H859 0.950 . S
C889 C884 1.363 . S
C889 C888 1.415 . S
H890 C887 0.999 . S
H891 C872 0.913 . S
H892 C910 0.951 . S
H893 C912 0.951 . S
H894 C914 0.950 . S
H895 C915 0.950 . S
H896 C917 0.950 . S
H897 C920 0.950 . S
H898 C921 0.950 . S
H899 C923 0.950 . S
H900 C924 0.950 . S
H901 C925 0.951 . S
H902 C927 0.951 . S
H903 C929 0.950 . S
H904 C930 0.950 . S
H905 C932 0.950 . S
H906 C935 0.950 . S
H907 C936 0.950 . S
H908 C938 0.950 . S
H909 C939 0.950 . S
C910 H892 0.951 . S
C910 C911 1.366 . S
C910 C912 1.388 . S
C911 C910 1.366 . S
C911 C915 1.385 . S
C912 H893 0.951 . S
C912 C910 1.388 . S
C912 C913 1.366 . S
C913 C912 1.366 . S
C913 C914 1.414 . S
C913 C916 1.499 . S
C914 H894 0.950 . S
C914 C913 1.414 . S
C914 C915 1.374 . S
C915 H895 0.950 . S
C915 C911 1.385 . S
C915 C914 1.374 . S
C916 C913 1.499 . S
C916 C917 1.373 . S
C916 C918 1.389 . S
C917 H896 0.950 . S
C917 C916 1.373 . S
C917 C933 1.377 . S
C918 C916 1.389 . S
C918 C919 1.524 . S
C918 C932 1.377 . S
C919 C918 1.524 . S
C919 C920 1.397 . S
C919 C924 1.363 . S
C920 H897 0.950 . S
C920 C919 1.397 . S
C920 C921 1.334 . S
C921 H898 0.950 . S
C921 C920 1.334 . S
C921 C922 1.287 . S
C922 C921 1.287 . S
C922 C923 1.524 . S
C922 H941 0.913 . S
C923 H899 0.950 . S
C923 C922 1.524 . S
C923 C924 1.415 . S
C924 H900 0.950 . S
C924 C919 1.363 . S
C924 C923 1.415 . S
C925 H901 0.951 . S
C925 C926 1.366 . S
C925 C927 1.388 . S
C926 C925 1.366 . S
C926 C930 1.385 . S
C927 H902 0.951 . S
C927 C925 1.388 . S
C927 C928 1.366 . S
C928 C927 1.366 . S
C928 C929 1.414 . S
C928 C931 1.499 . S
C929 H903 0.950 . S
C929 C928 1.414 . S
C929 C930 1.374 . S
C930 H904 0.950 . S
C930 C926 1.385 . S
C930 C929 1.374 . S
C931 C928 1.499 . S
C931 C932 1.373 . S
C931 C933 1.389 . S
C932 H905 0.950 . S
C932 C918 1.377 . S
C932 C931 1.373 . S
C933 C917 1.377 . S
C933 C931 1.389 . S
C933 C934 1.524 . S
C934 C933 1.524 . S
C934 C935 1.397 . S
C934 C939 1.363 . S
C935 H906 0.950 . S
C935 C934 1.397 . S
C935 C936 1.334 . S
C936 H907 0.950 . S
C936 C935 1.334 . S
C936 C937 1.287 . S
C937 C936 1.287 . S
C937 C938 1.524 . S
C937 H940 0.999 . S
C938 H908 0.950 . S
C938 C937 1.524 . S
C938 C939 1.415 . S
C939 H909 0.950 . S
C939 C934 1.363 . S
C939 C938 1.415 . S
H940 C937 0.999 . S
H941 C922 0.913 . S
H942 C960 0.951 . S
H943 C962 0.951 . S
H944 C964 0.950 . S
H945 C965 0.950 . S
H946 C967 0.950 . S
H947 C970 0.950 . S
H948 C971 0.950 . S
H949 C973 0.950 . S
H950 C974 0.950 . S
H951 C975 0.951 . S
H952 C977 0.951 . S
H953 C979 0.950 . S
H954 C980 0.950 . S
H955 C982 0.950 . S
H956 C985 0.950 . S
H957 C986 0.950 . S
H958 C988 0.950 . S
H959 C989 0.950 . S
C960 H942 0.951 . S
C960 C961 1.366 . S
C960 C962 1.388 . S
C961 C960 1.366 . S
C961 C965 1.385 . S
C962 H943 0.951 . S
C962 C960 1.388 . S
C962 C963 1.366 . S
C963 C962 1.366 . S
C963 C964 1.414 . S
C963 C966 1.499 . S
C964 H944 0.950 . S
C964 C963 1.414 . S
C964 C965 1.374 . S
C965 H945 0.950 . S
C965 C961 1.385 . S
C965 C964 1.374 . S
C966 C963 1.499 . S
C966 C967 1.373 . S
C966 C968 1.389 . S
C967 H946 0.950 . S
C967 C966 1.373 . S
C967 C983 1.377 . S
C968 C966 1.389 . S
C968 C969 1.524 . S
C968 C982 1.377 . S
C969 C968 1.524 . S
C969 C970 1.397 . S
C969 C974 1.363 . S
C970 H947 0.950 . S
C970 C969 1.397 . S
C970 C971 1.334 . S
C971 H948 0.950 . S
C971 C970 1.334 . S
C971 C972 1.287 . S
C972 C971 1.287 . S
C972 C973 1.524 . S
C972 H991 0.913 . S
C973 H949 0.950 . S
C973 C972 1.524 . S
C973 C974 1.415 . S
C974 H950 0.950 . S
C974 C969 1.363 . S
C974 C973 1.415 . S
C975 H951 0.951 . S
C975 C976 1.366 . S
C975 C977 1.388 . S
C976 C975 1.366 . S
C976 C980 1.385 . S
C977 H952 0.951 . S
C977 C975 1.388 . S
C977 C978 1.366 . S
C978 C977 1.366 . S
C978 C979 1.414 . S
C978 C981 1.499 . S
C979 H953 0.950 . S
C979 C978 1.414 . S
C979 C980 1.374 . S
C980 H954 0.950 . S
C980 C976 1.385 . S
C980 C979 1.374 . S
C981 C978 1.499 . S
C981 C982 1.373 . S
C981 C983 1.389 . S
C982 H955 0.950 . S
C982 C968 1.377 . S
C982 C981 1.373 . S
C983 C967 1.377 . S
C983 C981 1.389 . S
C983 C984 1.524 . S
C984 C983 1.524 . S
C984 C985 1.397 . S
C984 C989 1.363 . S
C985 H956 0.950 . S
C985 C984 1.397 . S
C985 C986 1.334 . S
C986 H957 0.950 . S
C986 C985 1.334 . S
C986 C987 1.287 . S
C987 C986 1.287 . S
C987 C988 1.524 . S
C987 H990 0.999 . S
C988 H958 0.950 . S
C988 C987 1.524 . S
C988 C989 1.415 . S
C989 H959 0.950 . S
C989 C984 1.363 . S
C989 C988 1.415 . S
H990 C987 0.999 . S
H991 C972 0.913 . S
H992 C1010 0.951 . S
H993 C1012 0.951 . S
H994 C1014 0.950 . S
H995 C1015 0.950 . S
H996 C1017 0.950 . S
H997 C1020 0.950 . S
H998 C1021 0.950 . S
H999 C1023 0.950 . S
H1000 C1024 0.950 . S
H1001 C1025 0.951 1_455 S
H1002 C1027 0.951 . S
H1003 C1029 0.950 . S
H1004 C1030 0.950 . S
H1005 C1032 0.950 . S
H1006 C1035 0.950 . S
H1007 C1036 0.950 . S
H1008 C1038 0.950 . S
H1009 C1039 0.950 . S
C1010 H992 0.951 . S
C1010 C1011 1.366 . S
C1010 C1012 1.388 . S
C1011 C1010 1.366 . S
C1011 C1015 1.385 . S
C1012 H993 0.951 . S
C1012 C1010 1.388 . S
C1012 C1013 1.366 . S
C1013 C1012 1.366 . S
C1013 C1014 1.414 . S
C1013 C1016 1.499 . S
C1014 H994 0.950 . S
C1014 C1013 1.414 . S
C1014 C1015 1.374 . S
C1015 H995 0.950 . S
C1015 C1011 1.385 . S
C1015 C1014 1.374 . S
C1016 C1013 1.499 . S
C1016 C1017 1.373 . S
C1016 C1018 1.389 . S
C1017 H996 0.950 . S
C1017 C1016 1.373 . S
C1017 C1033 1.377 . S
C1018 C1016 1.389 . S
C1018 C1019 1.524 . S
C1018 C1032 1.377 . S
C1019 C1018 1.524 . S
C1019 C1020 1.397 . S
C1019 C1024 1.363 . S
C1020 H997 0.950 . S
C1020 C1019 1.397 . S
C1020 C1021 1.334 . S
C1021 H998 0.950 . S
C1021 C1020 1.334 . S
C1021 C1022 1.287 . S
C1022 C1021 1.287 . S
C1022 C1023 1.524 . S
C1022 H1041 0.913 . S
C1023 H999 0.950 . S
C1023 C1022 1.524 . S
C1023 C1024 1.415 . S
C1024 H1000 0.950 . S
C1024 C1019 1.363 . S
C1024 C1023 1.415 . S
C1025 H1001 0.951 1_655 S
C1025 C1026 1.363 1_655 S
C1025 C1027 1.388 . S
C1026 C1025 1.363 1_455 S
C1026 C1030 1.374 1_455 S
C1027 H1002 0.951 . S
C1027 C1025 1.388 . S
C1027 C1028 1.366 . S
C1028 C1027 1.366 . S
C1028 C1029 1.414 . S
C1028 C1031 1.499 . S
C1029 H1003 0.950 . S
C1029 C1028 1.414 . S
C1029 C1030 1.374 . S
C1030 H1004 0.950 . S
C1030 C1026 1.374 1_655 S
C1030 C1029 1.374 . S
C1031 C1028 1.499 . S
C1031 C1032 1.373 . S
C1031 C1033 1.389 . S
C1032 H1005 0.950 . S
C1032 C1018 1.377 . S
C1032 C1031 1.373 . S
C1033 C1017 1.377 . S
C1033 C1031 1.389 . S
C1033 C1034 1.524 . S
C1034 C1033 1.524 . S
C1034 C1035 1.397 1_655 S
C1034 C1039 1.363 . S
C1035 H1006 0.950 . S
C1035 C1034 1.397 1_455 S
C1035 C1036 1.334 . S
C1036 H1007 0.950 . S
C1036 C1035 1.334 . S
C1036 C1037 1.287 . S
C1037 C1036 1.287 . S
C1037 C1038 1.524 . S
C1037 H1040 0.999 . S
C1038 H1008 0.950 . S
C1038 C1037 1.524 . S
C1038 C1039 1.415 1_455 S
C1039 H1009 0.950 . S
C1039 C1034 1.363 . S
C1039 C1038 1.415 1_655 S
H1040 C1037 0.999 . S
H1041 C1022 0.913 . S
H1042 C1060 0.951 . S
H1043 C1062 0.959 . S
H1044 C1064 0.950 . S
H1045 C1065 0.959 . S
H1046 C1067 0.950 . S
H1047 C1070 0.950 . S
H1048 C1071 0.950 . S
H1049 C1073 0.950 . S
H1050 C1074 0.950 . S
H1051 C1075 0.951 . S
H1052 C1077 0.951 . S
H1053 C1079 0.950 . S
H1054 C1080 0.950 . S
H1055 C1082 0.950 . S
H1056 C1085 0.950 . S
H1057 C1086 0.950 . S
H1058 C1088 0.950 . S
H1059 C1089 0.950 . S
C1060 H1042 0.951 . S
C1060 C1061 1.361 1_545 S
C1060 C1062 1.381 . S
C1061 C1060 1.361 1_565 S
C1061 C1065 1.385 . S
C1062 H1043 0.959 . S
C1062 C1060 1.381 . S
C1062 C1063 1.366 . S
C1063 C1062 1.366 . S
C1063 C1064 1.410 . S
C1063 C1066 1.505 . S
C1064 H1044 0.950 . S
C1064 C1063 1.410 . S
C1064 C1065 1.367 1_545 S
C1065 H1045 0.959 . S
C1065 C1061 1.385 . S
C1065 C1064 1.367 1_565 S
C1066 C1063 1.505 . S
C1066 C1067 1.373 . S
C1066 C1068 1.389 1_545 S
C1067 H1046 0.950 . S
C1067 C1066 1.373 . S
C1067 C1083 1.377 . S
C1068 C1066 1.389 1_565 S
C1068 C1069 1.524 . S
C1068 C1082 1.377 . S
C1069 C1068 1.524 . S
C1069 C1070 1.397 . S
C1069 C1074 1.363 . S
C1070 H1047 0.950 . S
C1070 C1069 1.397 . S
C1070 C1071 1.334 . S
C1071 H1048 0.950 . S
C1071 C1070 1.334 . S
C1071 C1072 1.287 . S
C1072 C1071 1.287 . S
C1072 C1073 1.524 . S
C1072 H1091 0.913 . S
C1073 H1049 0.950 . S
C1073 C1072 1.524 . S
C1073 C1074 1.415 . S
C1074 H1050 0.950 . S
C1074 C1069 1.363 . S
C1074 C1073 1.415 . S
C1075 H1051 0.951 . S
C1075 C1076 1.366 . S
C1075 C1077 1.388 . S
C1076 C1075 1.366 . S
C1076 C1080 1.385 . S
C1077 H1052 0.951 . S
C1077 C1075 1.388 . S
C1077 C1078 1.366 . S
C1078 C1077 1.366 . S
C1078 C1079 1.414 . S
C1078 C1081 1.499 . S
C1079 H1053 0.950 . S
C1079 C1078 1.414 . S
C1079 C1080 1.374 . S
C1080 H1054 0.950 . S
C1080 C1076 1.385 . S
C1080 C1079 1.374 . S
C1081 C1078 1.499 . S
C1081 C1082 1.373 1_545 S
C1081 C1083 1.389 . S
C1082 H1055 0.950 . S
C1082 C1068 1.377 . S
C1082 C1081 1.373 1_565 S
C1083 C1067 1.377 . S
C1083 C1081 1.389 . S
C1083 C1084 1.524 . S
C1084 C1083 1.524 . S
C1084 C1085 1.397 . S
C1084 C1089 1.363 . S
C1085 H1056 0.950 . S
C1085 C1084 1.397 . S
C1085 C1086 1.334 . S
C1086 H1057 0.950 . S
C1086 C1085 1.334 . S
C1086 C1087 1.287 . S
C1087 C1086 1.287 . S
C1087 C1088 1.524 . S
C1087 H1090 0.999 . S
C1088 H1058 0.950 . S
C1088 C1087 1.524 . S
C1088 C1089 1.415 . S
C1089 H1059 0.950 . S
C1089 C1084 1.363 . S
C1089 C1088 1.415 . S
H1090 C1087 0.999 . S
H1091 C1072 0.913 . S
H1092 C1110 0.951 . S
H1093 C1112 0.951 . S
H1094 C1114 0.950 . S
H1095 C1115 0.950 . S
H1096 C1117 0.950 . S
H1097 C1120 0.950 . S
H1098 C1121 0.950 . S
H1099 C1123 0.950 . S
H1100 C1124 0.950 . S
H1101 C1125 0.951 . S
H1102 C1127 0.951 . S
H1103 C1129 0.950 . S
H1104 C1130 0.950 . S
H1105 C1132 0.950 . S
H1106 C1135 0.950 . S
H1107 C1136 0.950 . S
H1108 C1138 0.950 . S
H1109 C1139 0.950 . S
C1110 H1092 0.951 . S
C1110 C1111 1.366 . S
C1110 C1112 1.388 . S
C1111 C1110 1.366 . S
C1111 C1115 1.385 . S
C1112 H1093 0.951 . S
C1112 C1110 1.388 . S
C1112 C1113 1.366 . S
C1113 C1112 1.366 . S
C1113 C1114 1.414 . S
C1113 C1116 1.499 . S
C1114 H1094 0.950 . S
C1114 C1113 1.414 . S
C1114 C1115 1.374 . S
C1115 H1095 0.950 . S
C1115 C1111 1.385 . S
C1115 C1114 1.374 . S
C1116 C1113 1.499 . S
C1116 C1117 1.373 . S
C1116 C1118 1.389 . S
C1117 H1096 0.950 . S
C1117 C1116 1.373 . S
C1117 C1133 1.377 . S
C1118 C1116 1.389 . S
C1118 C1119 1.524 . S
C1118 C1132 1.377 . S
C1119 C1118 1.524 . S
C1119 C1120 1.397 . S
C1119 C1124 1.363 . S
C1120 H1097 0.950 . S
C1120 C1119 1.397 . S
C1120 C1121 1.334 . S
C1121 H1098 0.950 . S
C1121 C1120 1.334 . S
C1121 C1122 1.287 . S
C1122 C1121 1.287 . S
C1122 C1123 1.524 . S
C1122 H1141 0.913 1_556 S
C1123 H1099 0.950 . S
C1123 C1122 1.524 . S
C1123 C1124 1.415 . S
C1124 H1100 0.950 . S
C1124 C1119 1.363 . S
C1124 C1123 1.415 . S
C1125 H1101 0.951 . S
C1125 C1126 1.366 . S
C1125 C1127 1.388 . S
C1126 C1125 1.366 . S
C1126 C1130 1.385 . S
C1127 H1102 0.951 . S
C1127 C1125 1.388 . S
C1127 C1128 1.366 . S
C1128 C1127 1.366 . S
C1128 C1129 1.414 . S
C1128 C1131 1.499 . S
C1129 H1103 0.950 . S
C1129 C1128 1.414 . S
C1129 C1130 1.374 . S
C1130 H1104 0.950 . S
C1130 C1126 1.385 . S
C1130 C1129 1.374 . S
C1131 C1128 1.499 . S
C1131 C1132 1.373 . S
C1131 C1133 1.389 . S
C1132 H1105 0.950 . S
C1132 C1118 1.377 . S
C1132 C1131 1.373 . S
C1133 C1117 1.377 . S
C1133 C1131 1.389 . S
C1133 C1134 1.524 . S
C1134 C1133 1.524 . S
C1134 C1135 1.397 . S
C1134 C1139 1.363 . S
C1135 H1106 0.950 . S
C1135 C1134 1.397 . S
C1135 C1136 1.334 . S
C1136 H1107 0.950 . S
C1136 C1135 1.334 . S
C1136 C1137 1.287 . S
C1137 C1136 1.287 . S
C1137 C1138 1.524 . S
C1137 H1140 0.999 . S
C1138 H1108 0.950 . S
C1138 C1137 1.524 . S
C1138 C1139 1.415 . S
C1139 H1109 0.950 . S
C1139 C1134 1.363 . S
C1139 C1138 1.415 . S
H1140 C1137 0.999 . S
H1141 C1122 0.913 1_554 S
H1142 C1160 0.951 . S
H1143 C1162 0.951 . S
H1144 C1164 0.950 . S
H1145 C1165 0.950 . S
H1146 C1167 0.950 . S
H1147 C1170 0.950 . S
H1148 C1171 0.950 . S
H1149 C1173 0.950 . S
H1150 C1174 0.950 . S
H1151 C1175 0.951 . S
H1152 C1177 0.951 . S
H1153 C1179 0.950 . S
H1154 C1180 0.950 . S
H1155 C1182 0.950 . S
H1156 C1185 0.950 . S
H1157 C1186 0.950 . S
H1158 C1188 0.950 . S
H1159 C1189 0.950 . S
C1160 H1142 0.951 . S
C1160 C1161 1.366 . S
C1160 C1162 1.388 . S
C1161 C1160 1.366 . S
C1161 C1165 1.385 . S
C1162 H1143 0.951 . S
C1162 C1160 1.388 . S
C1162 C1163 1.366 . S
C1163 C1162 1.366 . S
C1163 C1164 1.414 . S
C1163 C1166 1.499 . S
C1164 H1144 0.950 . S
C1164 C1163 1.414 . S
C1164 C1165 1.374 . S
C1165 H1145 0.950 . S
C1165 C1161 1.385 . S
C1165 C1164 1.374 . S
C1166 C1163 1.499 . S
C1166 C1167 1.373 . S
C1166 C1168 1.389 . S
C1167 H1146 0.950 . S
C1167 C1166 1.373 . S
C1167 C1183 1.377 . S
C1168 C1166 1.389 . S
C1168 C1169 1.524 . S
C1168 C1182 1.377 . S
C1169 C1168 1.524 . S
C1169 C1170 1.397 . S
C1169 C1174 1.363 . S
C1170 H1147 0.950 . S
C1170 C1169 1.397 . S
C1170 C1171 1.334 . S
C1171 H1148 0.950 . S
C1171 C1170 1.334 . S
C1171 C1172 1.287 . S
C1172 C1171 1.287 . S
C1172 C1173 1.524 . S
C1172 H1191 0.913 . S
C1173 H1149 0.950 . S
C1173 C1172 1.524 . S
C1173 C1174 1.415 . S
C1174 H1150 0.950 . S
C1174 C1169 1.363 . S
C1174 C1173 1.415 . S
C1175 H1151 0.951 . S
C1175 C1176 1.366 . S
C1175 C1177 1.388 . S
C1176 C1175 1.366 . S
C1176 C1180 1.385 . S
C1177 H1152 0.951 . S
C1177 C1175 1.388 . S
C1177 C1178 1.366 . S
C1178 C1177 1.366 . S
C1178 C1179 1.414 . S
C1178 C1181 1.499 . S
C1179 H1153 0.950 . S
C1179 C1178 1.414 . S
C1179 C1180 1.374 . S
C1180 H1154 0.950 . S
C1180 C1176 1.385 . S
C1180 C1179 1.374 . S
C1181 C1178 1.499 . S
C1181 C1182 1.373 . S
C1181 C1183 1.389 . S
C1182 H1155 0.950 . S
C1182 C1168 1.377 . S
C1182 C1181 1.373 . S
C1183 C1167 1.377 . S
C1183 C1181 1.389 . S
C1183 C1184 1.524 . S
C1184 C1183 1.524 . S
C1184 C1185 1.397 . S
C1184 C1189 1.363 . S
C1185 H1156 0.950 . S
C1185 C1184 1.397 . S
C1185 C1186 1.334 . S
C1186 H1157 0.950 . S
C1186 C1185 1.334 . S
C1186 C1187 1.287 . S
C1187 C1186 1.287 . S
C1187 C1188 1.524 . S
C1187 H1190 0.999 . S
C1188 H1158 0.950 . S
C1188 C1187 1.524 . S
C1188 C1189 1.415 . S
C1189 H1159 0.950 . S
C1189 C1184 1.363 . S
C1189 C1188 1.415 . S
H1190 C1187 0.999 . S
H1191 C1172 0.913 . S
H1192 C1210 0.951 . S
H1193 C1212 0.951 . S
H1194 C1214 0.950 . S
H1195 C1215 0.950 . S
H1196 C1217 0.950 . S
H1197 C1220 0.950 . S
H1198 C1221 0.950 . S
H1199 C1223 0.950 . S
H1200 C1224 0.950 . S
H1201 C1225 0.951 . S
H1202 C1227 0.951 . S
H1203 C1229 0.950 . S
H1204 C1230 0.950 . S
H1205 C1232 0.950 . S
H1206 C1235 0.950 . S
H1207 C1236 0.950 . S
H1208 C1238 0.950 . S
H1209 C1239 0.950 . S
C1210 H1192 0.951 . S
C1210 C1211 1.366 . S
C1210 C1212 1.388 . S
C1211 C1210 1.366 . S
C1211 C1215 1.385 . S
C1212 H1193 0.951 . S
C1212 C1210 1.388 . S
C1212 C1213 1.366 . S
C1213 C1212 1.366 . S
C1213 C1214 1.414 . S
C1213 C1216 1.499 . S
C1214 H1194 0.950 . S
C1214 C1213 1.414 . S
C1214 C1215 1.374 . S
C1215 H1195 0.950 . S
C1215 C1211 1.385 . S
C1215 C1214 1.374 . S
C1216 C1213 1.499 . S
C1216 C1217 1.373 . S
C1216 C1218 1.389 . S
C1217 H1196 0.950 . S
C1217 C1216 1.373 . S
C1217 C1233 1.377 . S
C1218 C1216 1.389 . S
C1218 C1219 1.524 . S
C1218 C1232 1.377 . S
C1219 C1218 1.524 . S
C1219 C1220 1.397 . S
C1219 C1224 1.363 . S
C1220 H1197 0.950 . S
C1220 C1219 1.397 . S
C1220 C1221 1.334 . S
C1221 H1198 0.950 . S
C1221 C1220 1.334 . S
C1221 C1222 1.287 . S
C1222 C1221 1.287 . S
C1222 C1223 1.524 . S
C1222 H1241 0.913 . S
C1223 H1199 0.950 . S
C1223 C1222 1.524 . S
C1223 C1224 1.415 . S
C1224 H1200 0.950 . S
C1224 C1219 1.363 . S
C1224 C1223 1.415 . S
C1225 H1201 0.951 . S
C1225 C1226 1.366 . S
C1225 C1227 1.388 . S
C1226 C1225 1.366 . S
C1226 C1230 1.385 . S
C1227 H1202 0.951 . S
C1227 C1225 1.388 . S
C1227 C1228 1.366 . S
C1228 C1227 1.366 . S
C1228 C1229 1.414 . S
C1228 C1231 1.499 . S
C1229 H1203 0.950 . S
C1229 C1228 1.414 . S
C1229 C1230 1.374 . S
C1230 H1204 0.950 . S
C1230 C1226 1.385 . S
C1230 C1229 1.374 . S
C1231 C1228 1.499 . S
C1231 C1232 1.373 . S
C1231 C1233 1.389 . S
C1232 H1205 0.950 . S
C1232 C1218 1.377 . S
C1232 C1231 1.373 . S
C1233 C1217 1.377 . S
C1233 C1231 1.389 . S
C1233 C1234 1.524 . S
C1234 C1233 1.524 . S
C1234 C1235 1.397 . S
C1234 C1239 1.363 . S
C1235 H1206 0.950 . S
C1235 C1234 1.397 . S
C1235 C1236 1.334 . S
C1236 H1207 0.950 . S
C1236 C1235 1.334 . S
C1236 C1237 1.287 . S
C1237 C1236 1.287 . S
C1237 C1238 1.524 . S
C1237 H1240 0.999 . S
C1238 H1208 0.950 . S
C1238 C1237 1.524 . S
C1238 C1239 1.415 . S
C1239 H1209 0.950 . S
C1239 C1234 1.363 . S
C1239 C1238 1.415 . S
H1240 C1237 0.999 . S
H1241 C1222 0.913 . S
H1242 C1260 0.951 . S
H1243 C1262 0.951 . S
H1244 C1264 0.950 . S
H1245 C1265 0.950 . S
H1246 C1267 0.950 . S
H1247 C1270 0.950 . S
H1248 C1271 0.950 . S
H1249 C1273 0.950 . S
H1250 C1274 0.950 . S
H1251 C1275 0.951 . S
H1252 C1277 0.951 . S
H1253 C1279 0.949 1_565 S
H1254 C1280 0.944 1_565 S
H1255 C1282 0.950 . S
H1256 C1285 0.950 . S
H1257 C1286 0.950 . S
H1258 C1288 0.950 . S
H1259 C1289 0.950 . S
C1260 H1242 0.951 . S
C1260 C1261 1.363 1_565 S
C1260 C1262 1.388 . S
C1261 C1260 1.363 1_545 S
C1261 C1265 1.385 . S
C1262 H1243 0.951 . S
C1262 C1260 1.388 . S
C1262 C1263 1.366 1_565 S
C1263 C1262 1.366 1_545 S
C1263 C1264 1.414 . S
C1263 C1266 1.501 . S
C1264 H1244 0.950 . S
C1264 C1263 1.414 . S
C1264 C1265 1.374 . S
C1265 H1245 0.950 . S
C1265 C1261 1.385 . S
C1265 C1264 1.374 . S
C1266 C1263 1.501 . S
C1266 C1267 1.393 . S
C1266 C1268 1.370 1_545 S
C1267 H1246 0.950 . S
C1267 C1266 1.393 . S
C1267 C1283 1.377 . S
C1268 C1266 1.370 1_565 S
C1268 C1269 1.524 . S
C1268 C1282 1.377 . S
C1269 C1268 1.524 . S
C1269 C1270 1.397 . S
C1269 C1274 1.363 . S
C1270 H1247 0.950 . S
C1270 C1269 1.397 . S
C1270 C1271 1.334 . S
C1271 H1248 0.950 . S
C1271 C1270 1.334 . S
C1271 C1272 1.287 . S
C1272 C1271 1.287 . S
C1272 C1273 1.524 . S
C1272 H1291 0.913 . S
C1273 H1249 0.950 . S
C1273 C1272 1.524 . S
C1273 C1274 1.415 . S
C1274 H1250 0.950 . S
C1274 C1269 1.363 . S
C1274 C1273 1.415 . S
C1275 H1251 0.951 . S
C1275 C1276 1.366 . S
C1275 C1277 1.388 . S
C1276 C1275 1.366 . S
C1276 C1280 1.387 . S
C1277 H1252 0.951 . S
C1277 C1275 1.388 . S
C1277 C1278 1.366 . S
C1278 C1277 1.366 . S
C1278 C1279 1.421 . S
C1278 C1281 1.499 . S
C1279 H1253 0.949 1_545 S
C1279 C1278 1.421 . S
C1279 C1280 1.375 . S
C1280 H1254 0.944 1_545 S
C1280 C1276 1.387 . S
C1280 C1279 1.375 . S
C1281 C1278 1.499 . S
C1281 C1282 1.373 1_545 S
C1281 C1283 1.389 . S
C1282 H1255 0.950 . S
C1282 C1268 1.377 . S
C1282 C1281 1.373 1_565 S
C1283 C1267 1.377 . S
C1283 C1281 1.389 . S
C1283 C1284 1.524 . S
C1284 C1283 1.524 . S
C1284 C1285 1.397 . S
C1284 C1289 1.363 . S
C1285 H1256 0.950 . S
C1285 C1284 1.397 . S
C1285 C1286 1.334 . S
C1286 H1257 0.950 . S
C1286 C1285 1.334 . S
C1286 C1287 1.287 . S
C1287 C1286 1.287 . S
C1287 C1288 1.524 . S
C1287 H1290 0.999 . S
C1288 H1258 0.950 . S
C1288 C1287 1.524 . S
C1288 C1289 1.415 . S
C1289 H1259 0.950 . S
C1289 C1284 1.363 . S
C1289 C1288 1.415 . S
H1290 C1287 0.999 . S
H1291 C1272 0.913 . S
H1292 C1310 0.951 . S
H1293 C1312 0.951 . S
H1294 C1314 0.950 . S
H1295 C1315 0.950 . S
H1296 C1317 0.950 . S
H1297 C1320 0.950 . S
H1298 C1321 0.950 . S
H1299 C1323 0.950 . S
H1300 C1324 0.950 . S
H1301 C1325 0.951 . S
H1302 C1327 0.951 . S
H1303 C1329 0.950 . S
H1304 C1330 0.950 . S
H1305 C1332 0.950 . S
H1306 C1335 0.950 . S
H1307 C1336 0.950 . S
H1308 C1338 0.950 . S
H1309 C1339 0.950 . S
C1310 H1292 0.951 . S
C1310 C1311 1.366 . S
C1310 C1312 1.388 . S
C1311 C1310 1.366 . S
C1311 C1315 1.385 . S
C1312 H1293 0.951 . S
C1312 C1310 1.388 . S
C1312 C1313 1.366 . S
C1313 C1312 1.366 . S
C1313 C1314 1.414 . S
C1313 C1316 1.499 . S
C1314 H1294 0.950 . S
C1314 C1313 1.414 . S
C1314 C1315 1.374 . S
C1315 H1295 0.950 . S
C1315 C1311 1.385 . S
C1315 C1314 1.374 . S
C1316 C1313 1.499 . S
C1316 C1317 1.373 . S
C1316 C1318 1.389 . S
C1317 H1296 0.950 . S
C1317 C1316 1.373 . S
C1317 C1333 1.377 . S
C1318 C1316 1.389 . S
C1318 C1319 1.524 . S
C1318 C1332 1.377 . S
C1319 C1318 1.524 . S
C1319 C1320 1.397 . S
C1319 C1324 1.363 . S
C1320 H1297 0.950 . S
C1320 C1319 1.397 . S
C1320 C1321 1.334 . S
C1321 H1298 0.950 . S
C1321 C1320 1.334 . S
C1321 C1322 1.287 . S
C1322 C1321 1.287 . S
C1322 C1323 1.524 . S
C1322 H1341 0.913 . S
C1323 H1299 0.950 . S
C1323 C1322 1.524 . S
C1323 C1324 1.415 . S
C1324 H1300 0.950 . S
C1324 C1319 1.363 . S
C1324 C1323 1.415 . S
C1325 H1301 0.951 . S
C1325 C1326 1.366 . S
C1325 C1327 1.388 . S
C1326 C1325 1.366 . S
C1326 C1330 1.385 . S
C1327 H1302 0.951 . S
C1327 C1325 1.388 . S
C1327 C1328 1.366 . S
C1328 C1327 1.366 . S
C1328 C1329 1.414 . S
C1328 C1331 1.499 . S
C1329 H1303 0.950 . S
C1329 C1328 1.414 . S
C1329 C1330 1.374 . S
C1330 H1304 0.950 . S
C1330 C1326 1.385 . S
C1330 C1329 1.374 . S
C1331 C1328 1.499 . S
C1331 C1332 1.373 . S
C1331 C1333 1.389 . S
C1332 H1305 0.950 . S
C1332 C1318 1.377 . S
C1332 C1331 1.373 . S
C1333 C1317 1.377 . S
C1333 C1331 1.389 . S
C1333 C1334 1.524 . S
C1334 C1333 1.524 . S
C1334 C1335 1.397 . S
C1334 C1339 1.363 . S
C1335 H1306 0.950 . S
C1335 C1334 1.397 . S
C1335 C1336 1.334 . S
C1336 H1307 0.950 . S
C1336 C1335 1.334 . S
C1336 C1337 1.287 . S
C1337 C1336 1.287 . S
C1337 C1338 1.524 . S
C1337 H1340 0.999 . S
C1338 H1308 0.950 . S
C1338 C1337 1.524 . S
C1338 C1339 1.415 . S
C1339 H1309 0.950 . S
C1339 C1334 1.363 . S
C1339 C1338 1.415 . S
H1340 C1337 0.999 . S
H1341 C1322 0.913 . S
H1342 C1360 0.951 . S
H1343 C1362 0.951 . S
H1344 C1364 0.950 . S
H1345 C1365 0.950 . S
H1346 C1367 0.950 . S
H1347 C1370 0.950 . S
H1348 C1371 0.950 . S
H1349 C1373 0.950 . S
H1350 C1374 0.950 . S
H1351 C1375 0.951 . S
H1352 C1377 0.951 . S
H1353 C1379 0.950 . S
H1354 C1380 0.950 . S
H1355 C1382 0.950 . S
H1356 C1385 0.950 . S
H1357 C1386 0.950 . S
H1358 C1388 0.950 . S
H1359 C1389 0.950 . S
C1360 H1342 0.951 . S
C1360 C1361 1.366 . S
C1360 C1362 1.388 . S
C1361 C1360 1.366 . S
C1361 C1365 1.385 . S
C1362 H1343 0.951 . S
C1362 C1360 1.388 . S
C1362 C1363 1.366 . S
C1363 C1362 1.366 . S
C1363 C1364 1.414 . S
C1363 C1366 1.499 . S
C1364 H1344 0.950 . S
C1364 C1363 1.414 . S
C1364 C1365 1.374 . S
C1365 H1345 0.950 . S
C1365 C1361 1.385 . S
C1365 C1364 1.374 . S
C1366 C1363 1.499 . S
C1366 C1367 1.373 . S
C1366 C1368 1.389 . S
C1367 H1346 0.950 . S
C1367 C1366 1.373 . S
C1367 C1383 1.377 . S
C1368 C1366 1.389 . S
C1368 C1369 1.524 . S
C1368 C1382 1.377 . S
C1369 C1368 1.524 . S
C1369 C1370 1.397 . S
C1369 C1374 1.363 . S
C1370 H1347 0.950 . S
C1370 C1369 1.397 . S
C1370 C1371 1.334 . S
C1371 H1348 0.950 . S
C1371 C1370 1.334 . S
C1371 C1372 1.287 . S
C1372 C1371 1.287 . S
C1372 C1373 1.524 . S
C1372 H1391 0.913 . S
C1373 H1349 0.950 . S
C1373 C1372 1.524 . S
C1373 C1374 1.415 . S
C1374 H1350 0.950 . S
C1374 C1369 1.363 . S
C1374 C1373 1.415 . S
C1375 H1351 0.951 . S
C1375 C1376 1.366 . S
C1375 C1377 1.388 . S
C1376 C1375 1.366 . S
C1376 C1380 1.385 . S
C1377 H1352 0.951 . S
C1377 C1375 1.388 . S
C1377 C1378 1.366 . S
C1378 C1377 1.366 . S
C1378 C1379 1.414 . S
C1378 C1381 1.499 . S
C1379 H1353 0.950 . S
C1379 C1378 1.414 . S
C1379 C1380 1.374 . S
C1380 H1354 0.950 . S
C1380 C1376 1.385 . S
C1380 C1379 1.374 . S
C1381 C1378 1.499 . S
C1381 C1382 1.373 . S
C1381 C1383 1.389 . S
C1382 H1355 0.950 . S
C1382 C1368 1.377 . S
C1382 C1381 1.373 . S
C1383 C1367 1.377 . S
C1383 C1381 1.389 . S
C1383 C1384 1.524 . S
C1384 C1383 1.524 . S
C1384 C1385 1.397 . S
C1384 C1389 1.363 . S
C1385 H1356 0.950 . S
C1385 C1384 1.397 . S
C1385 C1386 1.334 . S
C1386 H1357 0.950 . S
C1386 C1385 1.334 . S
C1386 C1387 1.287 . S
C1387 C1386 1.287 . S
C1387 C1388 1.524 . S
C1387 H1390 0.999 . S
C1388 H1358 0.950 . S
C1388 C1387 1.524 . S
C1388 C1389 1.415 . S
C1389 H1359 0.950 . S
C1389 C1384 1.363 . S
C1389 C1388 1.415 . S
H1390 C1387 0.999 . S
H1391 C1372 0.913 . S
H1392 C1410 0.951 . S
H1393 C1412 0.951 . S
H1394 C1414 0.950 . S
H1395 C1415 0.950 . S
H1396 C1417 0.950 . S
H1397 C1420 0.950 . S
H1398 C1421 0.935 1_455 S
H1399 C1423 0.950 . S
H1400 C1424 0.950 . S
H1401 C1425 0.951 . S
H1402 C1427 0.951 . S
H1403 C1429 0.950 . S
H1404 C1430 0.950 . S
H1405 C1432 0.950 . S
H1406 C1435 0.950 . S
H1407 C1436 0.950 . S
H1408 C1438 0.950 . S
H1409 C1439 0.950 . S
C1410 H1392 0.951 . S
C1410 C1411 1.366 . S
C1410 C1412 1.388 . S
C1411 C1410 1.366 . S
C1411 C1415 1.385 . S
C1412 H1393 0.951 . S
C1412 C1410 1.388 . S
C1412 C1413 1.366 . S
C1413 C1412 1.366 . S
C1413 C1414 1.414 . S
C1413 C1416 1.499 . S
C1414 H1394 0.950 . S
C1414 C1413 1.414 . S
C1414 C1415 1.374 . S
C1415 H1395 0.950 . S
C1415 C1411 1.385 . S
C1415 C1414 1.374 . S
C1416 C1413 1.499 . S
C1416 C1417 1.373 . S
C1416 C1418 1.389 . S
C1417 H1396 0.950 . S
C1417 C1416 1.373 . S
C1417 C1433 1.377 . S
C1418 C1416 1.389 . S
C1418 C1419 1.524 . S
C1418 C1432 1.377 . S
C1419 C1418 1.524 . S
C1419 C1420 1.397 . S
C1419 C1424 1.363 . S
C1420 H1397 0.950 . S
C1420 C1419 1.397 . S
C1420 C1421 1.334 . S
C1421 H1398 0.935 1_655 S
C1421 C1420 1.334 . S
C1421 C1422 1.287 1_655 S
C1422 C1421 1.287 1_455 S
C1422 C1423 1.524 . S
C1422 H1441 0.913 . S
C1423 H1399 0.950 . S
C1423 C1422 1.524 . S
C1423 C1424 1.415 1_455 S
C1424 H1400 0.950 . S
C1424 C1419 1.363 . S
C1424 C1423 1.415 1_655 S
C1425 H1401 0.951 . S
C1425 C1426 1.366 . S
C1425 C1427 1.388 . S
C1426 C1425 1.366 . S
C1426 C1430 1.385 . S
C1427 H1402 0.951 . S
C1427 C1425 1.388 . S
C1427 C1428 1.366 . S
C1428 C1427 1.366 . S
C1428 C1429 1.414 . S
C1428 C1431 1.499 . S
C1429 H1403 0.950 . S
C1429 C1428 1.414 . S
C1429 C1430 1.374 . S
C1430 H1404 0.950 . S
C1430 C1426 1.385 . S
C1430 C1429 1.374 . S
C1431 C1428 1.499 . S
C1431 C1432 1.373 . S
C1431 C1433 1.389 . S
C1432 H1405 0.950 . S
C1432 C1418 1.377 . S
C1432 C1431 1.373 . S
C1433 C1417 1.377 . S
C1433 C1431 1.389 . S
C1433 C1434 1.524 . S
C1434 C1433 1.524 . S
C1434 C1435 1.397 . S
C1434 C1439 1.363 . S
C1435 H1406 0.950 . S
C1435 C1434 1.397 . S
C1435 C1436 1.334 . S
C1436 H1407 0.950 . S
C1436 C1435 1.334 . S
C1436 C1437 1.287 . S
C1437 C1436 1.287 . S
C1437 C1438 1.524 . S
C1437 H1440 0.999 . S
C1438 H1408 0.950 . S
C1438 C1437 1.524 . S
C1438 C1439 1.415 . S
C1439 H1409 0.950 . S
C1439 C1434 1.363 . S
C1439 C1438 1.415 . S
H1440 C1437 0.999 . S
H1441 C1422 0.913 . S
H1442 C1460 0.951 . S
H1443 C1462 0.951 . S
H1444 C1464 0.950 . S
H1445 C1465 0.950 . S
H1446 C1467 0.950 . S
H1447 C1470 0.950 . S
H1448 C1471 0.950 . S
H1449 C1473 0.950 . S
H1450 C1474 0.950 . S
H1451 C1475 0.951 . S
H1452 C1477 0.951 . S
H1453 C1479 0.950 . S
H1454 C1480 0.958 . S
H1455 C1482 0.950 . S
H1456 C1485 0.950 . S
H1457 C1486 0.950 . S
H1458 C1488 0.950 . S
H1459 C1489 0.950 . S
C1460 H1442 0.951 . S
C1460 C1461 1.365 1_545 S
C1460 C1462 1.388 . S
C1461 C1460 1.365 1_565 S
C1461 C1465 1.385 . S
C1462 H1443 0.951 . S
C1462 C1460 1.388 . S
C1462 C1463 1.366 1_545 S
C1463 C1462 1.366 1_565 S
C1463 C1464 1.414 . S
C1463 C1466 1.499 . S
C1464 H1444 0.950 . S
C1464 C1463 1.414 . S
C1464 C1465 1.374 . S
C1465 H1445 0.950 . S
C1465 C1461 1.385 . S
C1465 C1464 1.374 . S
C1466 C1463 1.499 . S
C1466 C1467 1.373 1_565 S
C1466 C1468 1.389 . S
C1467 H1446 0.950 . S
C1467 C1466 1.373 1_545 S
C1467 C1483 1.377 . S
C1468 C1466 1.389 . S
C1468 C1469 1.524 . S
C1468 C1482 1.377 . S
C1469 C1468 1.524 . S
C1469 C1470 1.397 . S
C1469 C1474 1.363 . S
C1470 H1447 0.950 . S
C1470 C1469 1.397 . S
C1470 C1471 1.334 . S
C1471 H1448 0.950 . S
C1471 C1470 1.334 . S
C1471 C1472 1.287 . S
C1472 C1471 1.287 . S
C1472 C1473 1.524 . S
C1472 H1491 0.913 . S
C1473 H1449 0.950 . S
C1473 C1472 1.524 . S
C1473 C1474 1.415 . S
C1474 H1450 0.950 . S
C1474 C1469 1.363 . S
C1474 C1473 1.415 . S
C1475 H1451 0.951 . S
C1475 C1476 1.366 . S
C1475 C1477 1.388 . S
C1476 C1475 1.366 . S
C1476 C1480 1.381 1_565 S
C1477 H1452 0.951 . S
C1477 C1475 1.388 . S
C1477 C1478 1.366 . S
C1478 C1477 1.366 . S
C1478 C1479 1.414 1_565 S
C1478 C1481 1.496 . S
C1479 H1453 0.950 . S
C1479 C1478 1.414 1_545 S
C1479 C1480 1.372 . S
C1480 H1454 0.958 . S
C1480 C1476 1.381 1_545 S
C1480 C1479 1.372 . S
C1481 C1478 1.496 . S
C1481 C1482 1.406 . S
C1481 C1483 1.365 1_565 S
C1482 H1455 0.950 . S
C1482 C1468 1.377 . S
C1482 C1481 1.406 . S
C1483 C1467 1.377 . S
C1483 C1481 1.365 1_545 S
C1483 C1484 1.524 . S
C1484 C1483 1.524 . S
C1484 C1485 1.397 . S
C1484 C1489 1.363 . S
C1485 H1456 0.950 . S
C1485 C1484 1.397 . S
C1485 C1486 1.334 . S
C1486 H1457 0.950 . S
C1486 C1485 1.334 . S
C1486 C1487 1.287 . S
C1487 C1486 1.287 . S
C1487 C1488 1.524 . S
C1487 H1490 0.999 . S
C1488 H1458 0.950 . S
C1488 C1487 1.524 . S
C1488 C1489 1.415 . S
C1489 H1459 0.950 . S
C1489 C1484 1.363 . S
C1489 C1488 1.415 . S
H1490 C1487 0.999 . S
H1491 C1472 0.913 . S
H1492 C1510 0.951 . S
H1493 C1512 0.951 . S
H1494 C1514 0.950 . S
H1495 C1515 0.950 . S
H1496 C1517 0.950 . S
H1497 C1520 0.950 . S
H1498 C1521 0.950 . S
H1499 C1523 0.950 . S
H1500 C1524 0.950 . S
H1501 C1525 0.951 . S
H1502 C1527 0.951 . S
H1503 C1529 0.950 . S
H1504 C1530 0.950 . S
H1505 C1532 0.950 . S
H1506 C1535 0.950 . S
H1507 C1536 0.950 . S
H1508 C1538 0.950 . S
H1509 C1539 0.950 . S
C1510 H1492 0.951 . S
C1510 C1511 1.366 . S
C1510 C1512 1.388 . S
C1511 C1510 1.366 . S
C1511 C1515 1.385 . S
C1512 H1493 0.951 . S
C1512 C1510 1.388 . S
C1512 C1513 1.366 . S
C1513 C1512 1.366 . S
C1513 C1514 1.414 . S
C1513 C1516 1.499 . S
C1514 H1494 0.950 . S
C1514 C1513 1.414 . S
C1514 C1515 1.374 . S
C1515 H1495 0.950 . S
C1515 C1511 1.385 . S
C1515 C1514 1.374 . S
C1516 C1513 1.499 . S
C1516 C1517 1.373 . S
C1516 C1518 1.389 . S
C1517 H1496 0.950 . S
C1517 C1516 1.373 . S
C1517 C1533 1.377 . S
C1518 C1516 1.389 . S
C1518 C1519 1.524 . S
C1518 C1532 1.377 . S
C1519 C1518 1.524 . S
C1519 C1520 1.397 . S
C1519 C1524 1.363 . S
C1520 H1497 0.950 . S
C1520 C1519 1.397 . S
C1520 C1521 1.334 . S
C1521 H1498 0.950 . S
C1521 C1520 1.334 . S
C1521 C1522 1.287 . S
C1522 C1521 1.287 . S
C1522 C1523 1.524 . S
C1522 H1541 0.913 . S
C1523 H1499 0.950 . S
C1523 C1522 1.524 . S
C1523 C1524 1.415 . S
C1524 H1500 0.950 . S
C1524 C1519 1.363 . S
C1524 C1523 1.415 . S
C1525 H1501 0.951 . S
C1525 C1526 1.366 . S
C1525 C1527 1.388 . S
C1526 C1525 1.366 . S
C1526 C1530 1.385 . S
C1527 H1502 0.951 . S
C1527 C1525 1.388 . S
C1527 C1528 1.366 . S
C1528 C1527 1.366 . S
C1528 C1529 1.414 . S
C1528 C1531 1.499 . S
C1529 H1503 0.950 . S
C1529 C1528 1.414 . S
C1529 C1530 1.374 . S
C1530 H1504 0.950 . S
C1530 C1526 1.385 . S
C1530 C1529 1.374 . S
C1531 C1528 1.499 . S
C1531 C1532 1.373 . S
C1531 C1533 1.389 . S
C1532 H1505 0.950 . S
C1532 C1518 1.377 . S
C1532 C1531 1.373 . S
C1533 C1517 1.377 . S
C1533 C1531 1.389 . S
C1533 C1534 1.524 . S
C1534 C1533 1.524 . S
C1534 C1535 1.397 . S
C1534 C1539 1.363 . S
C1535 H1506 0.950 . S
C1535 C1534 1.397 . S
C1535 C1536 1.334 . S
C1536 H1507 0.950 . S
C1536 C1535 1.334 . S
C1536 C1537 1.287 . S
C1537 C1536 1.287 . S
C1537 C1538 1.524 . S
C1537 H1540 0.999 . S
C1538 H1508 0.950 . S
C1538 C1537 1.524 . S
C1538 C1539 1.415 . S
C1539 H1509 0.950 . S
C1539 C1534 1.363 . S
C1539 C1538 1.415 . S
H1540 C1537 0.999 . S
H1541 C1522 0.913 . S
H1542 C1560 0.951 . S
H1543 C1562 0.951 . S
H1544 C1564 0.950 . S
H1545 C1565 0.950 . S
H1546 C1567 0.950 . S
H1547 C1570 0.950 . S
H1548 C1571 0.950 . S
H1549 C1573 0.950 . S
H1550 C1574 0.950 . S
H1551 C1575 0.951 . S
H1552 C1577 0.951 . S
H1553 C1579 0.950 . S
H1554 C1580 0.950 . S
H1555 C1582 0.950 . S
H1556 C1585 0.950 . S
H1557 C1586 0.950 . S
H1558 C1588 0.950 . S
H1559 C1589 0.950 . S
C1560 H1542 0.951 . S
C1560 C1561 1.366 . S
C1560 C1562 1.388 . S
C1561 C1560 1.366 . S
C1561 C1565 1.385 . S
C1562 H1543 0.951 . S
C1562 C1560 1.388 . S
C1562 C1563 1.366 . S
C1563 C1562 1.366 . S
C1563 C1564 1.414 . S
C1563 C1566 1.499 . S
C1564 H1544 0.950 . S
C1564 C1563 1.414 . S
C1564 C1565 1.374 . S
C1565 H1545 0.950 . S
C1565 C1561 1.385 . S
C1565 C1564 1.374 . S
C1566 C1563 1.499 . S
C1566 C1567 1.373 . S
C1566 C1568 1.389 . S
C1567 H1546 0.950 . S
C1567 C1566 1.373 . S
C1567 C1583 1.377 . S
C1568 C1566 1.389 . S
C1568 C1569 1.524 . S
C1568 C1582 1.377 . S
C1569 C1568 1.524 . S
C1569 C1570 1.397 . S
C1569 C1574 1.363 . S
C1570 H1547 0.950 . S
C1570 C1569 1.397 . S
C1570 C1571 1.334 . S
C1571 H1548 0.950 . S
C1571 C1570 1.334 . S
C1571 C1572 1.287 . S
C1572 C1571 1.287 . S
C1572 C1573 1.524 . S
C1572 H1591 0.913 . S
C1573 H1549 0.950 . S
C1573 C1572 1.524 . S
C1573 C1574 1.415 . S
C1574 H1550 0.950 . S
C1574 C1569 1.363 . S
C1574 C1573 1.415 . S
C1575 H1551 0.951 . S
C1575 C1576 1.366 . S
C1575 C1577 1.388 . S
C1576 C1575 1.366 . S
C1576 C1580 1.385 . S
C1577 H1552 0.951 . S
C1577 C1575 1.388 . S
C1577 C1578 1.366 . S
C1578 C1577 1.366 . S
C1578 C1579 1.414 . S
C1578 C1581 1.499 . S
C1579 H1553 0.950 . S
C1579 C1578 1.414 . S
C1579 C1580 1.374 . S
C1580 H1554 0.950 . S
C1580 C1576 1.385 . S
C1580 C1579 1.374 . S
C1581 C1578 1.499 . S
C1581 C1582 1.373 . S
C1581 C1583 1.389 . S
C1582 H1555 0.950 . S
C1582 C1568 1.377 . S
C1582 C1581 1.373 . S
C1583 C1567 1.377 . S
C1583 C1581 1.389 . S
C1583 C1584 1.524 . S
C1584 C1583 1.524 . S
C1584 C1585 1.397 . S
C1584 C1589 1.363 . S
C1585 H1556 0.950 . S
C1585 C1584 1.397 . S
C1585 C1586 1.334 . S
C1586 H1557 0.950 . S
C1586 C1585 1.334 . S
C1586 C1587 1.287 . S
C1587 C1586 1.287 . S
C1587 C1588 1.524 . S
C1587 H1590 0.999 . S
C1588 H1558 0.950 . S
C1588 C1587 1.524 . S
C1588 C1589 1.415 . S
C1589 H1559 0.950 . S
C1589 C1584 1.363 . S
C1589 C1588 1.415 . S
H1590 C1587 0.999 . S
H1591 C1572 0.913 . S
C411 C255 1.609 . S
C426 C320 1.654 . S
C476 C350 2.396 . S
C461 C294 2.298 . S
C526 C360 1.730 . S
C511 C177 1.688 . S
C576 C380 1.601 . S
C561 C216 1.518 . S
C626 C321 1.654 . S
C611 C99 1.613 1_545 S
C661 C138 2.284 1_556 S
C676 C351 2.401 . S
C711 C21 1.675 . S
C726 C361 1.729 . S
C761 C60 1.530 . S
C776 C381 1.601 . S
C826 C313 0.490 . S
C811 C196 0.540 . S
C876 C334 0.417 . S
C861 C235 0.481 1_545 S
C926 C353 0.849 . S
C911 C289 0.835 . S
C961 C157 0.374 . S
C976 C373 0.307 . S
C1011 C40 0.537 . S
C1026 C314 0.499 . S
C1076 C333 0.417 . S
C1061 C79 0.469 . S
C1126 C354 0.849 . S
C1111 C133 0.837 . S
C1161 C1 0.384 . S
C1176 C374 0.307 . S
C1211 C211 2.227 . S
C1226 C331 2.384 . S
C1261 C250 1.581 . S
C1276 C341 1.730 . S
C1326 C371 2.568 . S
C1311 C274 2.376 . S
C1376 C391 2.433 . S
C1361 C172 2.272 . S
C1411 C55 2.223 . S
C1426 C330 2.395 . S
C1476 C340 1.729 . S
C1461 C94 1.580 1_565 S
C1526 C370 2.568 . S
C1511 C118 2.367 . S
C1561 C16 2.277 . S
C1576 C390 2.434 . S
