# Generated by pormake.
# Topology zzz, (3,6)-cn, num edge types: 1
# Building blocks:
#     Node 0, Type 0, BuildingBlock: BETDIP_clean_linker_0, # of connection points: 3
#     Node 1, Type 0, BuildingBlock: BETDIP_clean_linker_0, # of connection points: 3
#     Node 2, Type 0, BuildingBlock: BETDIP_clean_linker_0, # of connection points: 3
#     Node 3, Type 0, BuildingBlock: BETDIP_clean_linker_0, # of connection points: 3
#     Node 4, Type 0, BuildingBlock: BETDIP_clean_linker_0, # of connection points: 3
#     Node 5, Type 0, BuildingBlock: BETDIP_clean_linker_0, # of connection points: 3
#     Node 6, Type 0, BuildingBlock: BETDIP_clean_linker_0, # of connection points: 3
#     Node 7, Type 0, BuildingBlock: BETDIP_clean_linker_0, # of connection points: 3
#     Node 8, Type 1, BuildingBlock: CUKXOW_clean_sbu_0, # of connection points: 6
#     Node 9, Type 1, BuildingBlock: CUKXOW_clean_sbu_0, # of connection points: 6
#     Node 10, Type 1, BuildingBlock: CUKXOW_clean_sbu_0, # of connection points: 6
#     Node 11, Type 1, BuildingBlock: CUKXOW_clean_sbu_0, # of connection points: 6
#     Edge 12, Type (0, 1), BuildingBlock: MIFKUJ_clean_linker_0, # of connection points: 2
#     Edge 13, Type (0, 1), BuildingBlock: MIFKUJ_clean_linker_0, # of connection points: 2
#     Edge 14, Type (0, 1), BuildingBlock: MIFKUJ_clean_linker_0, # of connection points: 2
#     Edge 15, Type (0, 1), BuildingBlock: MIFKUJ_clean_linker_0, # of connection points: 2
#     Edge 16, Type (0, 1), BuildingBlock: MIFKUJ_clean_linker_0, # of connection points: 2
#     Edge 17, Type (0, 1), BuildingBlock: MIFKUJ_clean_linker_0, # of connection points: 2
#     Edge 18, Type (0, 1), BuildingBlock: MIFKUJ_clean_linker_0, # of connection points: 2
#     Edge 19, Type (0, 1), BuildingBlock: MIFKUJ_clean_linker_0, # of connection points: 2
#     Edge 20, Type (0, 1), BuildingBlock: MIFKUJ_clean_linker_0, # of connection points: 2
#     Edge 21, Type (0, 1), BuildingBlock: MIFKUJ_clean_linker_0, # of connection points: 2
#     Edge 22, Type (0, 1), BuildingBlock: MIFKUJ_clean_linker_0, # of connection points: 2
#     Edge 23, Type (0, 1), BuildingBlock: MIFKUJ_clean_linker_0, # of connection points: 2
#     Edge 24, Type (0, 1), BuildingBlock: MIFKUJ_clean_linker_0, # of connection points: 2
#     Edge 25, Type (0, 1), BuildingBlock: MIFKUJ_clean_linker_0, # of connection points: 2
#     Edge 26, Type (0, 1), BuildingBlock: MIFKUJ_clean_linker_0, # of connection points: 2
#     Edge 27, Type (0, 1), BuildingBlock: MIFKUJ_clean_linker_0, # of connection points: 2
#     Edge 28, Type (0, 1), BuildingBlock: MIFKUJ_clean_linker_0, # of connection points: 2
#     Edge 29, Type (0, 1), BuildingBlock: MIFKUJ_clean_linker_0, # of connection points: 2
#     Edge 30, Type (0, 1), BuildingBlock: MIFKUJ_clean_linker_0, # of connection points: 2
#     Edge 31, Type (0, 1), BuildingBlock: MIFKUJ_clean_linker_0, # of connection points: 2
#     Edge 32, Type (0, 1), BuildingBlock: MIFKUJ_clean_linker_0, # of connection points: 2
#     Edge 33, Type (0, 1), BuildingBlock: MIFKUJ_clean_linker_0, # of connection points: 2
#     Edge 34, Type (0, 1), BuildingBlock: MIFKUJ_clean_linker_0, # of connection points: 2
#     Edge 35, Type (0, 1), BuildingBlock: MIFKUJ_clean_linker_0, # of connection points: 2
# Relax obj value: 0.069
# Max RMSD: 0.115
# Mean RMSD: 0.083
data_MOF--net-zzz--node1-CUKXOW_clean_sbu_0--node2-BETDIP_clean_linker_0--edge1-MIFKUJ_clean_linker_0
_symmetry_space_group_name_H-M    P1
_symmetry_Int_Tables_number       1
_symmetry_cell_setting            triclinic
loop_
_symmetry_equiv_pos_as_xyz
'x, y, z'
_cell_length_a     66.173787
_cell_length_b     68.232884
_cell_length_c     20.035454
_cell_angle_alpha  92.804513
_cell_angle_beta   87.110199
_cell_angle_gamma 93.745242
loop_
_atom_site_label
_atom_site_type_symbol
_atom_site_fract_x
_atom_site_fract_y
_atom_site_fract_z
_atom_type_partial_charge
H0 H 0.75578 0.53264 0.21306 0.0
H1 H 0.77666 0.52682 0.00553 0.0
H2 H 0.81919 0.52871 0.15986 0.0
H3 H 0.74996 0.54311 0.98915 0.0
C4 C 0.73829 0.53675 0.02304 0.0
C5 C 0.76794 0.53133 0.17513 0.0
C6 C 0.78806 0.53076 0.19401 0.0
C7 C 0.76363 0.53053 0.10686 0.0
C8 C 0.77962 0.52833 0.05816 0.0
C9 C 0.79969 0.5281 0.07691 0.0
C10 C 0.80372 0.52931 0.14482 0.0
N11 N 0.74324 0.53162 0.08805 0.0
H12 H 0.95729 0.76217 0.15743 0.0
H13 H 0.95524 0.77081 0.94625 0.0
H14 H 0.95034 0.81974 0.08822 0.0
H15 H 0.9379 0.73849 0.9565 0.0
C16 C 0.94996 0.73262 0.98294 0.0
C17 C 0.9556 0.77174 0.11674 0.0
C18 C 0.95293 0.79177 0.13032 0.0
C19 C 0.95571 0.76396 0.05058 0.0
C20 C 0.95423 0.77657 0.99756 0.0
C21 C 0.9522 0.79677 0.01069 0.0
C22 C 0.95122 0.80408 0.07731 0.0
N23 N 0.95829 0.74361 0.03814 0.0
H24 H 0.73877 0.95871 0.20718 0.0
H25 H 0.73418 0.97275 0.00064 0.0
H26 H 0.68121 0.9706 0.13242 0.0
H27 H 0.75912 0.94846 0.99222 0.0
C28 C 0.76884 0.95598 0.02883 0.0
C29 C 0.72976 0.96235 0.16634 0.0
C30 C 0.70878 0.96397 0.17687 0.0
C31 C 0.73898 0.96483 0.10216 0.0
C32 C 0.72721 0.97 0.04966 0.0
C33 C 0.70646 0.97226 0.06114 0.0
C34 C 0.69735 0.96894 0.12411 0.0
N35 N 0.76013 0.96262 0.09154 0.0
H36 H 0.55498 0.74516 0.20834 0.0
H37 H 0.56477 0.73353 0.99576 0.0
H38 H 0.55861 0.68586 0.1277 0.0
H39 H 0.58018 0.76403 0.00133 0.0
C40 C 0.56939 0.77169 0.03405 0.0
C41 C 0.55755 0.73494 0.16612 0.0
C42 C 0.55649 0.71461 0.17561 0.0
C43 C 0.56111 0.74204 0.10149 0.0
C44 C 0.56327 0.72853 0.0463 0.0
C45 C 0.56274 0.7083 0.05576 0.0
C46 C 0.55965 0.70156 0.12048 0.0
N47 N 0.56091 0.76261 0.09241 0.0
H48 H 0.25727 0.49092 0.14038 0.0
H49 H 0.23989 0.47902 0.34556 0.0
H50 H 0.19581 0.47186 0.19524 0.0
H51 H 0.26269 0.50666 0.35794 0.0
C52 C 0.27503 0.50043 0.32776 0.0
C53 C 0.24595 0.48599 0.17786 0.0
C54 C 0.22604 0.4806 0.1597 0.0
C55 C 0.25103 0.48562 0.24509 0.0
C56 C 0.23609 0.47961 0.29379 0.0
C57 C 0.21613 0.47457 0.27631 0.0
C58 C 0.21138 0.47486 0.20903 0.0
N59 N 0.27105 0.49162 0.26355 0.0
H60 H 0.05717 0.24657 0.2036 0.0
H61 H 0.04619 0.23315 0.41109 0.0
H62 H 0.04659 0.18662 0.25921 0.0
H63 H 0.02536 0.26061 0.39375 0.0
C64 C 0.03778 0.2703 0.37447 0.0
C65 C 0.05475 0.23588 0.24193 0.0
C66 C 0.05235 0.21579 0.22379 0.0
C67 C 0.05222 0.24226 0.30944 0.0
C68 C 0.04828 0.22834 0.35899 0.0
C69 C 0.04613 0.20826 0.34086 0.0
C70 C 0.04847 0.20216 0.27349 0.0
N71 N 0.05202 0.2627 0.32613 0.0
H72 H 0.27224 0.04447 0.17607 0.0
H73 H 0.28329 0.0602 0.38315 0.0
H74 H 0.33279 0.04776 0.24468 0.0
H75 H 0.25329 0.07428 0.37944 0.0
C76 C 0.24456 0.06327 0.35002 0.0
C77 C 0.28265 0.04771 0.21577 0.0
C78 C 0.30345 0.04567 0.20317 0.0
C79 C 0.27517 0.0533 0.2804 0.0
C80 C 0.2888 0.05677 0.33245 0.0
C81 C 0.30969 0.05516 0.31954 0.0
C82 C 0.31676 0.04971 0.25477 0.0
N83 N 0.25383 0.0538 0.29271 0.0
H84 H 0.45206 0.26469 0.16195 0.0
H85 H 0.44627 0.27854 0.37454 0.0
H86 H 0.44066 0.32328 0.23546 0.0
H87 H 0.46908 0.25547 0.37473 0.0
C88 C 0.46306 0.24407 0.34006 0.0
C89 C 0.44907 0.27506 0.20341 0.0
C90 C 0.4453 0.29456 0.19105 0.0
C91 C 0.44965 0.2691 0.26953 0.0
C92 C 0.44614 0.28283 0.3233 0.0
C93 C 0.44263 0.30235 0.31118 0.0
C94 C 0.44214 0.30794 0.24512 0.0
N95 N 0.45425 0.24946 0.2808 0.0
Tb96 Tb 0.00431 0.986 0.64366 0.0
C97 C 0.04834 0.00605 0.64207 0.0
Tb98 Tb 0.0147 0.01798 0.75623 0.0
O99 O 0.00596 0.00771 0.56588 0.0
O100 O 0.99949 0.01578 0.66616 0.0
O101 O 0.03652 0.99104 0.61853 0.0
C102 C 0.0231 0.05314 0.81544 0.0
O103 O 0.0426 0.01824 0.69237 0.0
C104 C 0.01488 0.98139 0.78888 0.0
C105 C 0.97116 0.99719 0.75939 0.0
O106 O 0.03161 0.03715 0.82813 0.0
O107 O 0.00964 0.04916 0.77117 0.0
O108 O 0.01129 0.99578 0.83222 0.0
O109 O 0.01997 0.98835 0.73307 0.0
O110 O 0.98246 0.01297 0.77956 0.0
O111 O 0.97746 0.98417 0.71249 0.0
C112 C 0.9941 0.95204 0.57903 0.0
O113 O 0.98421 0.96786 0.57897 0.0
O114 O 0.00991 0.95543 0.61466 0.0
C115 C 0.00396 0.02234 0.60926 0.0
Tb116 Tb 0.50398 0.02419 0.64836 0.0
C117 C 0.53683 0.99517 0.5996 0.0
Tb118 Tb 0.50333 0.98403 0.71372 0.0
O119 O 0.53355 0.03333 0.68553 0.0
O120 O 0.51417 0.01339 0.73786 0.0
O121 O 0.5263 0.00992 0.58219 0.0
C122 C 0.51038 0.95072 0.77071 0.0
O123 O 0.5317 0.98476 0.6529 0.0
C124 C 0.47554 0.98762 0.62619 0.0
C125 C 0.47159 0.01348 0.7668 0.0
O126 O 0.50833 0.95262 0.70737 0.0
O127 O 0.50871 0.96768 0.80231 0.0
O128 O 0.47338 0.97583 0.67526 0.0
O129 O 0.49347 0.995 0.62483 0.0
O130 O 0.48209 0.99856 0.78267 0.0
O131 O 0.47649 0.0241 0.7138 0.0
C132 C 0.49542 0.05607 0.58574 0.0
O133 O 0.50142 0.05592 0.64635 0.0
O134 O 0.49427 0.03822 0.55999 0.0
C135 C 0.53186 0.02159 0.73483 0.0
Tb136 Tb 0.51148 0.52313 0.63435 0.0
C137 C 0.46745 0.50355 0.63204 0.0
Tb138 Tb 0.50008 0.48825 0.72649 0.0
O139 O 0.50767 0.50413 0.54417 0.0
O140 O 0.51558 0.49262 0.63298 0.0
O141 O 0.47915 0.51978 0.62171 0.0
C142 C 0.48998 0.45404 0.78279 0.0
O143 O 0.47323 0.48873 0.66616 0.0
C144 C 0.50077 0.52376 0.78354 0.0
C145 C 0.54444 0.50742 0.72577 0.0
O146 O 0.4809 0.47022 0.79551 0.0
O147 O 0.50453 0.45711 0.73802 0.0
O148 O 0.50476 0.50829 0.81451 0.0
O149 O 0.49535 0.51842 0.72604 0.0
O150 O 0.53274 0.49119 0.73653 0.0
O151 O 0.53845 0.52231 0.69282 0.0
C152 C 0.52042 0.55896 0.58936 0.0
O153 O 0.52889 0.5431 0.56707 0.0
O154 O 0.507 0.55457 0.63645 0.0
C155 C 0.51021 0.48808 0.5744 0.0
Tb156 Tb 0.98963 0.50689 0.62171 0.0
C157 C 0.01394 0.46879 0.61211 0.0
Tb158 Tb 0.02719 0.50585 0.70801 0.0
O159 O 0.00883 0.50721 0.53006 0.0
O160 O 0.02 0.51904 0.61969 0.0
O161 O 0.99635 0.4763 0.60161 0.0
C162 C 0.06411 0.50531 0.75684 0.0
O163 O 0.02825 0.47809 0.64852 0.0
C164 C 0.99185 0.49625 0.76815 0.0
C165 C 0.00296 0.54314 0.7167 0.0
O166 O 0.05912 0.49837 0.6981 0.0
O167 O 0.04833 0.51235 0.78783 0.0
O168 O 0.0076 0.50311 0.79971 0.0
O169 O 0.99729 0.49319 0.70809 0.0
O170 O 0.02162 0.53699 0.71411 0.0
O171 O 0.98752 0.53206 0.69276 0.0
C172 C 0.95285 0.51115 0.57723 0.0
O173 O 0.96856 0.52335 0.56929 0.0
O174 O 0.9579 0.49627 0.60938 0.0
C175 C 0.02492 0.51429 0.55978 0.0
H176 H 0.21643 0.03793 0.28812 0.0
H177 H 0.18244 0.02745 0.33242 0.0
H178 H 0.19147 0.06502 0.50927 0.0
H179 H 0.22541 0.07558 0.46518 0.0
H180 H 0.17748 0.02774 0.53918 0.0
H181 H 0.16058 0.07779 0.39528 0.0
H182 H 0.15995 0.09468 0.28946 0.0
H183 H 0.12986 0.04338 0.19751 0.0
H184 H 0.13057 0.02608 0.30262 0.0
H185 H 0.0788 0.03161 0.68624 0.0
H186 H 0.11166 0.03962 0.63047 0.0
H187 H 0.09693 0.99831 0.46771 0.0
H188 H 0.06381 0.9901 0.5233 0.0
H189 H 0.11363 0.03492 0.42557 0.0
H190 H 0.12909 0.98558 0.57284 0.0
H191 H 0.12908 0.96945 0.68029 0.0
H192 H 0.16163 0.02013 0.76709 0.0
H193 H 0.16157 0.03669 0.66036 0.0
C194 C 0.2111 0.04407 0.33618 0.0
C195 C 0.22354 0.05755 0.37343 0.0
C196 C 0.19166 0.03811 0.36132 0.0
C197 C 0.18442 0.04549 0.42408 0.0
C198 C 0.19678 0.05912 0.4608 0.0
C199 C 0.21611 0.06518 0.43552 0.0
C200 C 0.16432 0.03848 0.45295 0.0
C201 C 0.16351 0.0295 0.51465 0.0
C202 C 0.14615 0.04026 0.41998 0.0
C203 C 0.14588 0.05055 0.35655 0.0
C204 C 0.15403 0.07003 0.35228 0.0
C205 C 0.15361 0.0797 0.29248 0.0
C206 C 0.14494 0.07008 0.23671 0.0
C207 C 0.13662 0.05079 0.2407 0.0
C208 C 0.13702 0.04105 0.30038 0.0
C209 C 0.08252 0.02407 0.63882 0.0
C210 C 0.0687 0.01006 0.60956 0.0
C211 C 0.10136 0.02867 0.60706 0.0
C212 C 0.10678 0.01942 0.5453 0.0
C213 C 0.09302 0.00555 0.5155 0.0
C214 C 0.07418 0.0008 0.54758 0.0
C215 C 0.12684 0.02447 0.51214 0.0
C216 C 0.12765 0.03302 0.4497 0.0
C217 C 0.14503 0.02237 0.54448 0.0
C218 C 0.14518 0.01244 0.60873 0.0
C219 C 0.13611 0.99335 0.61499 0.0
C220 C 0.13614 0.98412 0.67574 0.0
C221 C 0.14531 0.99378 0.73053 0.0
C222 C 0.15451 0.01267 0.72462 0.0
C223 C 0.15451 0.02198 0.66398 0.0
H224 H 0.14532 0.9866 0.77753 0.0
H225 H 0.1446 0.0776 0.19048 0.0
H226 H 0.45232 0.2102 0.26504 0.0
H227 H 0.45711 0.1762 0.29316 0.0
H228 H 0.48353 0.19752 0.47763 0.0
H229 H 0.47911 0.23129 0.4493 0.0
H230 H 0.50587 0.1707 0.41555 0.0
H231 H 0.43421 0.17707 0.47048 0.0
H232 H 0.39899 0.1829 0.4461 0.0
H233 H 0.39843 0.13497 0.29892 0.0
H234 H 0.43377 0.12904 0.32178 0.0
H235 H 0.50109 0.0938 0.63282 0.0
H236 H 0.4948 0.12365 0.57688 0.0
H237 H 0.47368 0.08864 0.40608 0.0
H238 H 0.4798 0.05851 0.46265 0.0
H239 H 0.4495 0.11958 0.4406 0.0
H240 H 0.51977 0.11087 0.39502 0.0
H241 H 0.55469 0.10455 0.42139 0.0
H242 H 0.55785 0.15665 0.55058 0.0
H243 H 0.52284 0.16314 0.52577 0.0
C244 C 0.45914 0.20758 0.31153 0.0
C245 C 0.46541 0.22335 0.35506 0.0
C246 C 0.46179 0.18816 0.32767 0.0
C247 C 0.4706 0.18429 0.3877 0.0
C248 C 0.47678 0.20011 0.43096 0.0
C249 C 0.4742 0.2194 0.41482 0.0
C250 C 0.47386 0.16392 0.406 0.0
C251 C 0.4935 0.15958 0.42133 0.0
C252 C 0.45789 0.14912 0.41117 0.0
C253 C 0.43672 0.15279 0.39717 0.0
C254 C 0.42665 0.16791 0.43243 0.0
C255 C 0.40665 0.1712 0.41899 0.0
C256 C 0.39651 0.15937 0.37081 0.0
C257 C 0.40632 0.14417 0.33609 0.0
C258 C 0.42633 0.14084 0.34926 0.0
C259 C 0.49511 0.09245 0.58335 0.0
C260 C 0.49113 0.0739 0.55167 0.0
C261 C 0.49156 0.10951 0.55136 0.0
C262 C 0.4841 0.10838 0.48684 0.0
C263 C 0.47958 0.08983 0.45568 0.0
C264 C 0.48316 0.07268 0.48779 0.0
C265 C 0.48133 0.12673 0.45247 0.0
C266 C 0.46189 0.13063 0.43382 0.0
C267 C 0.49747 0.14118 0.44411 0.0
C268 C 0.51862 0.13742 0.45881 0.0
C269 C 0.52786 0.12092 0.42939 0.0
C270 C 0.54768 0.11731 0.44402 0.0
C271 C 0.55847 0.13017 0.4877 0.0
C272 C 0.54947 0.1467 0.51675 0.0
C273 C 0.52965 0.15036 0.50235 0.0
H274 H 0.57381 0.12736 0.49897 0.0
H275 H 0.38102 0.16193 0.36052 0.0
H276 H 0.31107 0.48857 0.26879 0.0
H277 H 0.34352 0.48773 0.32235 0.0
H278 H 0.3158 0.50972 0.50844 0.0
H279 H 0.28368 0.51116 0.45459 0.0
H280 H 0.35043 0.5281 0.48983 0.0
H281 H 0.32654 0.46037 0.47901 0.0
H282 H 0.31386 0.429 0.42513 0.0
H283 H 0.36873 0.42698 0.30177 0.0
H284 H 0.38163 0.45849 0.35429 0.0
H285 H 0.43561 0.47675 0.65681 0.0
H286 H 0.4024 0.47454 0.60669 0.0
H287 H 0.4213 0.52409 0.48771 0.0
H288 H 0.45416 0.52646 0.53771 0.0
H289 H 0.39002 0.46864 0.48064 0.0
H290 H 0.38277 0.55289 0.47544 0.0
H291 H 0.39386 0.58309 0.53986 0.0
H292 H 0.39774 0.54988 0.71487 0.0
H293 H 0.3864 0.51955 0.6518 0.0
C294 C 0.31197 0.49325 0.32104 0.0
C295 C 0.29492 0.49995 0.35772 0.0
C296 C 0.33046 0.49265 0.35174 0.0
C297 C 0.33206 0.49844 0.41974 0.0
C298 C 0.31499 0.5052 0.45599 0.0
C299 C 0.29664 0.506 0.42523 0.0
C300 C 0.35155 0.49793 0.45321 0.0
C301 C 0.35905 0.51507 0.48771 0.0
C302 C 0.36267 0.48084 0.45176 0.0
C303 C 0.35496 0.46189 0.42013 0.0
C304 C 0.33584 0.45332 0.44003 0.0
C305 C 0.32862 0.4355 0.4098 0.0
C306 C 0.34045 0.42603 0.35994 0.0
C307 C 0.35956 0.43435 0.34033 0.0
C308 C 0.36684 0.45218 0.37034 0.0
C309 C 0.43265 0.48707 0.6198 0.0
C310 C 0.44743 0.50185 0.60184 0.0
C311 C 0.41372 0.4858 0.59114 0.0
C312 C 0.40928 0.49934 0.54418 0.0
C313 C 0.42424 0.51374 0.52483 0.0
C314 C 0.44304 0.51507 0.55361 0.0
C315 C 0.38891 0.49886 0.51617 0.0
C316 C 0.38132 0.4816 0.48268 0.0
C317 C 0.3774 0.51568 0.51998 0.0
C318 C 0.38391 0.53392 0.55866 0.0
C319 C 0.3859 0.55205 0.52775 0.0
C320 C 0.39225 0.56919 0.56402 0.0
C321 C 0.39656 0.56839 0.63136 0.0
C322 C 0.39446 0.55047 0.66265 0.0
C323 C 0.3881 0.5333 0.62664 0.0
H324 H 0.40149 0.58167 0.65932 0.0
H325 H 0.33484 0.41224 0.3366 0.0
H326 H 0.00628 0.28938 0.42991 0.0
H327 H 0.0051 0.3245 0.4604 0.0
H328 H 0.0676 0.33404 0.39143 0.0
H329 H 0.06871 0.29887 0.35903 0.0
H330 H 0.05482 0.35062 0.5293 0.0
H331 H 0.03923 0.35015 0.29788 0.0
H332 H 0.0213 0.33831 0.1973 0.0
H333 H 0.96453 0.35278 0.29445 0.0
H334 H 0.98209 0.36443 0.39606 0.0
H335 H 0.05065 0.45403 0.58049 0.0
H336 H 0.05732 0.42147 0.53133 0.0
H337 H 0.99294 0.40657 0.5283 0.0
H338 H 0.9862 0.43939 0.57516 0.0
H339 H 0.01026 0.3934 0.41783 0.0
H340 H 0.0239 0.39051 0.65095 0.0
H341 H 0.04026 0.4012 0.75569 0.0
H342 H 0.09876 0.39187 0.6612 0.0
H343 H 0.08274 0.38133 0.55562 0.0
C344 C 0.01973 0.299 0.42096 0.0
C345 C 0.03753 0.29152 0.3919 0.0
C346 C 0.01903 0.319 0.43826 0.0
C347 C 0.03623 0.33177 0.4278 0.0
C348 C 0.05417 0.32434 0.39958 0.0
C349 C 0.05476 0.30433 0.38097 0.0
C350 C 0.0353 0.35283 0.4477 0.0
C351 C 0.04544 0.36016 0.50426 0.0
C352 C 0.02259 0.36495 0.41587 0.0
C353 C 0.01196 0.35799 0.35482 0.0
C354 C 0.0229 0.35063 0.29805 0.0
C355 C 0.01281 0.34399 0.24079 0.0
C356 C 0.99178 0.34474 0.23954 0.0
C357 C 0.98081 0.35218 0.29551 0.0
C358 C 0.99083 0.35883 0.35293 0.0
C359 C 0.03792 0.44377 0.56955 0.0
C360 C 0.0179 0.44914 0.58232 0.0
C361 C 0.04175 0.42516 0.54153 0.0
C362 C 0.02564 0.41142 0.52721 0.0
C363 C 0.00563 0.4169 0.53899 0.0
C364 C 0.00178 0.43563 0.56594 0.0
C365 C 0.02953 0.39126 0.50046 0.0
C366 C 0.01989 0.38403 0.44259 0.0
C367 C 0.0425 0.37914 0.53172 0.0
C368 C 0.05214 0.38534 0.59523 0.0
C369 C 0.04026 0.39087 0.65241 0.0
C370 C 0.04947 0.39687 0.71193 0.0
C371 C 0.07054 0.39727 0.71504 0.0
C372 C 0.08244 0.39159 0.65868 0.0
C373 C 0.07331 0.38558 0.59901 0.0
H374 H 0.07764 0.40193 0.76116 0.0
H375 H 0.984 0.33961 0.19515 0.0
H376 H 0.78865 0.94269 0.9165 0.0
H377 H 0.82427 0.94928 0.88147 0.0
H378 H 0.83396 0.98359 0.06503 0.0
H379 H 0.79818 0.97707 0.10025 0.0
H380 H 0.84974 0.00257 0.95534 0.0
H381 H 0.8532 0.93898 0.04296 0.0
H382 H 0.84349 0.90388 0.05742 0.0
H383 H 0.85709 0.8912 0.84855 0.0
H384 H 0.86652 0.92629 0.83258 0.0
H385 H 0.95653 0.01288 0.87918 0.0
H386 H 0.92328 0.00578 0.9347 0.0
H387 H 0.90642 0.96643 0.76894 0.0
H388 H 0.93987 0.9729 0.71415 0.0
H389 H 0.89557 0.95009 0.88252 0.0
H390 H 0.88907 0.01343 0.79187 0.0
H391 H 0.89851 0.04846 0.77482 0.0
H392 H 0.89016 0.06153 0.98586 0.0
H393 H 0.88092 0.02651 0.00427 0.0
C394 C 0.79844 0.95147 0.94966 0.0
C395 C 0.79071 0.9593 0.01107 0.0
C396 C 0.81879 0.95518 0.92974 0.0
C397 C 0.83183 0.96676 0.97095 0.0
C398 C 0.82416 0.97455 0.03261 0.0
C399 C 0.80376 0.97077 0.05275 0.0
C400 C 0.8532 0.97136 0.94782 0.0
C401 C 0.85991 0.99112 0.94059 0.0
C402 C 0.86629 0.9564 0.92718 0.0
C403 C 0.86047 0.9353 0.93653 0.0
C404 C 0.85396 0.92874 -0.0 0.0
C405 C 0.84852 0.90884 0.00848 0.0
C406 C 0.84965 0.89533 0.95393 0.0
C407 C 0.85622 0.90169 0.89077 0.0
C408 C 0.86163 0.92157 0.88199 0.0
C409 C 0.94572 0.00277 0.8544 0.0
C410 C 0.95082 0.99348 0.79215 0.0
C411 C 0.9267 0.99874 0.88618 0.0
C412 C 0.9123 0.98564 0.85575 0.0
C413 C 0.91737 0.97644 0.79354 0.0
C414 C 0.93645 0.98023 0.76218 0.0
C415 C 0.89198 0.98128 0.8886 0.0
C416 C 0.88547 0.96156 0.89778 0.0
C417 C 0.87903 0.99628 0.91054 0.0
C418 C 0.88453 0.01733 0.89952 0.0
C419 C 0.88941 0.02375 0.8347 0.0
C420 C 0.89469 0.04361 0.82478 0.0
C421 C 0.895 0.0572 0.87924 0.0
C422 C 0.88996 0.05098 0.94373 0.0
C423 C 0.88468 0.03113 0.95393 0.0
H424 H 0.89909 0.07257 0.87146 0.0
H425 H 0.84546 0.87992 0.96061 0.0
H426 H 0.54794 0.79938 0.10744 0.0
H427 H 0.53706 0.83035 0.0683 0.0
H428 H 0.56369 0.81654 0.87178 0.0
H429 H 0.57539 0.78622 0.91173 0.0
H430 H 0.57277 0.85242 0.90076 0.0
H431 H 0.51011 0.81227 0.91565 0.0
H432 H 0.48308 0.79153 0.97167 0.0
H433 H 0.4708 0.83915 0.11292 0.0
H434 H 0.49794 0.86009 0.0582 0.0
H435 H 0.52562 0.91847 0.70748 0.0
H436 H 0.53471 0.88848 0.75749 0.0
H437 H 0.51373 0.91107 0.95175 0.0
H438 H 0.50459 0.94127 0.90162 0.0
H439 H 0.50199 0.8723 0.93073 0.0
H440 H 0.57138 0.90763 0.9305 0.0
H441 H 0.59971 0.92729 0.87588 0.0
H442 H 0.59761 0.88788 0.70227 0.0
H443 H 0.56975 0.86769 0.75693 0.0
C444 C 0.55146 0.80302 0.05597 0.0
C445 C 0.5625 0.79045 0.01246 0.0
C446 C 0.54511 0.82065 0.03345 0.0
C447 C 0.54927 0.82573 0.96666 0.0
C448 C 0.5603 0.81306 0.92349 0.0
C449 C 0.56695 0.79571 0.94629 0.0
C450 C 0.54272 0.84438 0.94143 0.0
C451 C 0.5572 0.85655 0.90686 0.0
C452 C 0.52255 0.85022 0.95048 0.0
C453 C 0.50619 0.83767 0.98326 0.0
C454 C 0.50174 0.81826 0.95894 0.0
C455 C 0.48638 0.80648 0.99041 0.0
C456 C 0.47527 0.814 0.04593 0.0
C457 C 0.47944 0.83334 0.06998 0.0
C458 C 0.4948 0.84517 0.03873 0.0
C459 C 0.52291 0.91702 0.76084 0.0
C460 C 0.51467 0.93225 0.80093 0.0
C461 C 0.52831 0.89997 0.78949 0.0
C462 C 0.52551 0.89778 0.85874 0.0
C463 C 0.51632 0.91259 0.89838 0.0
C464 C 0.5111 0.92979 0.8698 0.0
C465 C 0.53196 0.87993 0.88926 0.0
C466 C 0.51751 0.86804 0.92501 0.0
C467 C 0.55208 0.87413 0.8808 0.0
C468 C 0.56834 0.88644 0.84714 0.0
C469 C 0.5769 0.9033 0.88047 0.0
C470 C 0.59292 0.91445 0.84971 0.0
C471 C 0.60026 0.909 0.78531 0.0
C472 C 0.59182 0.89218 0.75196 0.0
C473 C 0.57604 0.8808 0.78298 0.0
H474 H 0.61257 0.91772 0.76145 0.0
H475 H 0.46338 0.80486 0.07023 0.0
H476 H 0.7009 0.53594 0.08972 0.0
H477 H 0.6678 0.52995 0.03991 0.0
H478 H 0.6979 0.51894 0.84651 0.0
H479 H 0.73066 0.5265 0.89541 0.0
H480 H 0.67005 0.53896 0.82608 0.0
H481 H 0.67215 0.48143 0.95113 0.0
H482 H 0.67571 0.46217 0.05043 0.0
H483 H 0.6244 0.48863 0.14861 0.0
H484 H 0.62069 0.50824 0.05018 0.0
H485 H 0.56706 0.47822 0.76481 0.0
H486 H 0.60023 0.48182 0.81426 0.0
H487 H 0.60008 0.54486 0.80482 0.0
H488 H 0.5673 0.5413 0.75334 0.0
H489 H 0.61306 0.49728 0.92407 0.0
H490 H 0.64869 0.56531 0.78203 0.0
H491 H 0.64822 0.57923 0.67089 0.0
H492 H 0.62826 0.52273 0.58582 0.0
H493 H 0.62905 0.50836 0.69604 0.0
C494 C 0.70031 0.53213 0.03671 0.0
C495 C 0.7182 0.53165 0.99617 0.0
C496 C 0.68142 0.52857 0.00822 0.0
C497 C 0.6802 0.52374 0.93926 0.0
C498 C 0.69826 0.52279 0.89955 0.0
C499 C 0.71701 0.527 0.92753 0.0
C500 C 0.66028 0.52046 0.90734 0.0
C501 C 0.65764 0.5298 0.84765 0.0
C502 C 0.64409 0.50819 0.93427 0.0
C503 C 0.64627 0.49644 0.99355 0.0
C504 C 0.66172 0.48324 0.99409 0.0
C505 C 0.66375 0.47225 0.05018 0.0
C506 C 0.65032 0.47422 0.10586 0.0
C507 C 0.63481 0.48714 0.10549 0.0
C508 C 0.63272 0.49819 0.04954 0.0
C509 C 0.57418 0.49283 0.77283 0.0
C510 C 0.56469 0.50945 0.75436 0.0
C511 C 0.5931 0.49489 0.80139 0.0
C512 C 0.60282 0.51361 0.8126 0.0
C513 C 0.59316 0.53024 0.7952 0.0
C514 C 0.5744 0.52818 0.76576 0.0
C515 C 0.62296 0.51576 0.84298 0.0
C516 C 0.62555 0.50636 0.90253 0.0
C517 C 0.63946 0.52722 0.81421 0.0
C518 C 0.63866 0.53582 0.74769 0.0
C519 C 0.64427 0.55583 0.7396 0.0
C520 C 0.64401 0.56379 0.67668 0.0
C521 C 0.6382 0.55188 0.62135 0.0
C522 C 0.63269 0.53196 0.62878 0.0
C523 C 0.63302 0.52391 0.69151 0.0
H524 H 0.63794 0.55809 0.57274 0.0
H525 H 0.65192 0.46569 0.14924 0.0
H526 H 0.93039 0.70518 0.90377 0.0
H527 H 0.94105 0.67241 0.86802 0.0
H528 H 0.99497 0.68286 0.98006 0.0
H529 H 0.98417 0.71554 0.01718 0.0
H530 H 0.001 0.66806 0.84143 0.0
H531 H 0.9625 0.65328 0.04344 0.0
H532 H 0.93285 0.65394 0.12288 0.0
H533 H 0.89553 0.62422 0.97553 0.0
H534 H 0.92495 0.62356 0.89473 0.0
H535 H 0.02918 0.5691 0.78343 0.0
H536 H 0.02179 0.60106 0.83674 0.0
H537 H 0.9604 0.59341 0.77245 0.0
H538 H 0.96746 0.56142 0.72065 0.0
H539 H 0.96028 0.60688 0.89725 0.0
H540 H 0.9971 0.62374 0.69263 0.0
H541 H 0.0259 0.62377 0.60959 0.0
H542 H 0.06537 0.65023 0.75699 0.0
H543 H 0.03683 0.65011 0.8412 0.0
C544 C 0.94444 0.7004 0.92111 0.0
C545 C 0.95639 0.71276 0.96345 0.0
C546 C 0.95048 0.68173 0.90079 0.0
C547 C 0.96873 0.67526 0.92173 0.0
C548 C 0.98081 0.68764 0.96362 0.0
C549 C 0.97459 0.70622 0.98494 0.0
C550 C 0.97525 0.65567 0.8984 0.0
C551 C 0.99237 0.65461 0.85452 0.0
C552 C 0.96364 0.63828 0.91446 0.0
C553 C 0.9459 0.63854 0.96283 0.0
C554 C 0.94794 0.64703 0.02773 0.0
C555 C 0.93119 0.64736 0.07305 0.0
C556 C 0.91232 0.63915 0.05417 0.0
C557 C 0.91017 0.63055 0.98998 0.0
C558 C 0.92689 0.63017 0.94445 0.0
C559 C 0.01413 0.57426 0.78046 0.0
C560 C 0.99895 0.56274 0.7475 0.0
C561 C 0.00994 0.59255 0.81084 0.0
C562 C 0.99058 0.59971 0.80807 0.0
C563 C 0.97543 0.58818 0.77537 0.0
C564 C 0.97954 0.5699 0.74547 0.0
C565 C 0.98593 0.61919 0.83918 0.0
C566 C 0.96911 0.62026 0.88457 0.0
C567 C 0.99771 0.63662 0.82393 0.0
C568 C 0.01489 0.6367 0.7734 0.0
C569 C 0.01196 0.62941 0.70748 0.0
C570 C 0.02823 0.62947 0.66018 0.0
C571 C 0.04747 0.63694 0.67806 0.0
C572 C 0.05046 0.64441 0.74325 0.0
C573 C 0.03425 0.64436 0.79078 0.0
H574 H 0.06005 0.63698 0.64136 0.0
H575 H 0.89936 0.63942 0.08932 0.0
H576 H 0.01402 0.18187 0.3345 0.0
H577 H 0.00639 0.15364 0.40311 0.0
H578 H 0.05615 0.17262 0.52711 0.0
H579 H 0.06415 0.20095 0.45663 0.0
H580 H 0.05835 0.13521 0.48712 0.0
H581 H 0.00708 0.17206 0.59239 0.0
H582 H 0.97865 0.19379 0.60263 0.0
H583 H 0.94136 0.15047 0.49503 0.0
H584 H 0.96965 0.12857 0.48326 0.0
H585 H 0.03079 0.0495 0.66614 0.0
H586 H 0.03712 0.0838 0.64048 0.0
H587 H 0.99338 0.07641 0.48727 0.0
H588 H 0.98655 0.0418 0.51477 0.0
H589 H 0.98941 0.11064 0.56551 0.0
H590 H 0.04444 0.07603 0.45061 0.0
H591 H 0.07332 0.0548 0.44806 0.0
H592 H 0.10405 0.09529 0.5854 0.0
H593 H 0.07524 0.11661 0.5896 0.0
C594 C 0.02312 0.1802 0.37711 0.0
C595 C 0.03976 0.19341 0.39016 0.0
C596 C 0.01865 0.16416 0.41667 0.0
C597 C 0.03059 0.16108 0.47065 0.0
C598 C 0.04671 0.17478 0.48579 0.0
C599 C 0.0512 0.19096 0.44595 0.0
C600 C 0.02727 0.14245 0.50582 0.0
C601 C 0.04338 0.13003 0.50581 0.0
C602 C 0.00771 0.13561 0.52972 0.0
C603 C 0.99056 0.1487 0.53668 0.0
C604 C 0.99286 0.16721 0.57049 0.0
C605 C 0.97676 0.17955 0.57664 0.0
C606 C 0.95822 0.17352 0.54943 0.0
C607 C 0.95573 0.15512 0.51611 0.0
C608 C 0.97179 0.14271 0.5098 0.0
C609 C 0.02207 0.0552 0.62846 0.0
C610 C 0.00768 0.04316 0.59405 0.0
C611 C 0.02595 0.07481 0.61307 0.0
C612 C 0.0157 0.08266 0.56213 0.0
C613 C 0.00134 0.07064 0.52721 0.0
C614 C 0.99751 0.05093 0.54265 0.0
C615 C 0.02028 0.1033 0.5442 0.0
C616 C 0.00442 0.11602 0.54777 0.0
C617 C 0.04013 0.1105 0.5246 0.0
C618 C 0.05761 0.09784 0.52081 0.0
C619 C 0.05731 0.08035 0.48052 0.0
C620 C 0.07367 0.06831 0.47877 0.0
C621 C 0.09049 0.0737 0.51659 0.0
C622 C 0.09101 0.09115 0.55615 0.0
C623 C 0.07468 0.10322 0.5582 0.0
H624 H 0.10314 0.0644 0.51516 0.0
H625 H 0.94577 0.1831 0.55423 0.0
H626 H 0.34721 0.07426 0.31715 0.0
H627 H 0.37502 0.06733 0.38644 0.0
H628 H 0.3334 0.0332 0.5138 0.0
H629 H 0.30558 0.03916 0.44263 0.0
H630 H 0.37731 0.06388 0.55783 0.0
H631 H 0.345 0.00328 0.44476 0.0
H632 H 0.32931 0.98786 0.34443 0.0
H633 H 0.38253 0.00478 0.22425 0.0
H634 H 0.39826 0.02088 0.32387 0.0
H635 H 0.43828 0.99162 0.68619 0.0
H636 H 0.41087 0.00982 0.64722 0.0
H637 H 0.44611 0.02188 0.46548 0.0
H638 H 0.47435 0.00477 0.50647 0.0
H639 H 0.4055 0.00385 0.45002 0.0
H640 H 0.44127 0.05651 0.56311 0.0
H641 H 0.45769 0.07682 0.65241 0.0
H642 H 0.40084 0.07912 0.76413 0.0
H643 H 0.38414 0.05804 0.67729 0.0
C644 C 0.34387 0.06569 0.36094 0.0
C645 C 0.32434 0.0568 0.37348 0.0
C646 C 0.35974 0.06186 0.40056 0.0
C647 C 0.35621 0.04947 0.45408 0.0
C648 C 0.33632 0.04271 0.47219 0.0
C649 C 0.32043 0.04622 0.43173 0.0
C650 C 0.37359 0.04079 0.48199 0.0
C651 C 0.38331 0.0505 0.53577 0.0
C652 C 0.38177 0.02391 0.45039 0.0
C653 C 0.37256 0.01372 0.39123 0.0
C654 C 0.3532 0.00401 0.39673 0.0
C655 C 0.34432 0.99513 0.34006 0.0
C656 C 0.35484 0.99554 0.27784 0.0
C657 C 0.37432 0.0047 0.27232 0.0
C658 C 0.38319 0.01374 0.32879 0.0
C659 C 0.44022 0.9982 0.63798 0.0
C660 C 0.45843 0.99694 0.59931 0.0
C661 C 0.42457 0.00861 0.616 0.0
C662 C 0.42649 0.01717 0.55375 0.0
C663 C 0.44446 0.01547 0.51403 0.0
C664 C 0.46047 0.00567 0.53718 0.0
C665 C 0.40907 0.02648 0.52819 0.0
C666 C 0.39941 0.01698 0.47377 0.0
C667 C 0.40111 0.04363 0.55938 0.0
C668 C 0.41147 0.05525 0.61395 0.0
C669 C 0.43231 0.06086 0.60741 0.0
C670 C 0.44167 0.07264 0.65747 0.0
C671 C 0.43035 0.07921 0.71388 0.0
C672 C 0.40962 0.074 0.72042 0.0
C673 C 0.40022 0.06199 0.67103 0.0
H674 H 0.43763 0.08837 0.75245 0.0
H675 H 0.34796 0.98864 0.23401 0.0
H676 H 0.41704 0.33219 0.3285 0.0
H677 H 0.42465 0.36361 0.38872 0.0
H678 H 0.47526 0.33954 0.47611 0.0
H679 H 0.46831 0.30827 0.41381 0.0
H680 H 0.44674 0.37173 0.5565 0.0
H681 H 0.49079 0.3562 0.35404 0.0
H682 H 0.49283 0.34395 0.23611 0.0
H683 H 0.45505 0.38901 0.18289 0.0
H684 H 0.45239 0.40122 0.30093 0.0
H685 H 0.51803 0.45243 0.61951 0.0
H686 H 0.50123 0.42033 0.58895 0.0
H687 H 0.46751 0.44752 0.44372 0.0
H688 H 0.48351 0.47969 0.47663 0.0
H689 H 0.48426 0.41431 0.39185 0.0
H690 H 0.44289 0.43381 0.57541 0.0
H691 H 0.42897 0.44415 0.68708 0.0
H692 H 0.45131 0.39353 0.77 0.0
H693 H 0.46596 0.38313 0.65996 0.0
C694 C 0.42939 0.33338 0.36226 0.0
C695 C 0.44238 0.31795 0.36529 0.0
C696 C 0.43366 0.3513 0.39667 0.0
C697 C 0.45068 0.35385 0.43567 0.0
C698 C 0.46207 0.33773 0.44595 0.0
C699 C 0.45801 0.31985 0.41062 0.0
C700 C 0.45859 0.37387 0.45536 0.0
C701 C 0.45534 0.381 0.5213 0.0
C702 C 0.46866 0.38614 0.40771 0.0
C703 C 0.47126 0.37951 0.33633 0.0
C704 C 0.48284 0.36343 0.31723 0.0
C705 C 0.48409 0.35648 0.25039 0.0
C706 C 0.47404 0.36566 0.20204 0.0
C707 C 0.46281 0.38189 0.2204 0.0
C708 C 0.46143 0.38883 0.28726 0.0
C709 C 0.5067 0.45155 0.58224 0.0
C710 C 0.50171 0.46852 0.55163 0.0
C711 C 0.49723 0.43325 0.56446 0.0
C712 C 0.48293 0.43161 0.51469 0.0
C713 C 0.47843 0.44849 0.48246 0.0
C714 C 0.48766 0.46681 0.50101 0.0
C715 C 0.47328 0.41215 0.49468 0.0
C716 C 0.47601 0.40511 0.428 0.0
C717 C 0.46215 0.40022 0.54135 0.0
C718 C 0.45582 0.40782 0.60933 0.0
C719 C 0.44542 0.42518 0.61783 0.0
C720 C 0.43734 0.43105 0.68093 0.0
C721 C 0.43946 0.41965 0.7358 0.0
C722 C 0.44987 0.40248 0.72785 0.0
C723 C 0.45814 0.39662 0.66517 0.0
H724 H 0.43288 0.42403 0.78435 0.0
H725 H 0.47496 0.36022 0.15038 0.0
H726 H 0.21062 0.49528 0.39558 0.0
H727 H 0.17896 0.49666 0.46339 0.0
H728 H 0.1519 0.44956 0.33996 0.0
H729 H 0.18367 0.44757 0.2731 0.0
H730 H 0.13746 0.49018 0.33561 0.0
H731 H 0.15056 0.43998 0.47766 0.0
H732 H 0.16786 0.42167 0.55822 0.0
H733 H 0.1601 0.46809 0.70756 0.0
H734 H 0.14361 0.4873 0.62688 0.0
H735 H 0.03542 0.48962 0.45558 0.0
H736 H 0.0693 0.47989 0.42061 0.0
H737 H 0.09488 0.51891 0.57473 0.0
H738 H 0.06075 0.52879 0.61003 0.0
H739 H 0.11033 0.48146 0.56827 0.0
H740 H 0.09835 0.53199 0.41808 0.0
H741 H 0.0799 0.54838 0.33501 0.0
H742 H 0.08427 0.49805 0.19901 0.0
H743 H 0.10241 0.48119 0.28174 0.0
C744 C 0.19828 0.48456 0.38475 0.0
C745 C 0.1995 0.47157 0.32809 0.0
C746 C 0.18019 0.48539 0.42362 0.0
C747 C 0.16316 0.47331 0.40616 0.0
C748 C 0.16496 0.459 0.35399 0.0
C749 C 0.18306 0.458 0.3156 0.0
C750 C 0.14282 0.4787 0.43088 0.0
C751 C 0.13138 0.488 0.38624 0.0
C752 C 0.13534 0.47629 0.49748 0.0
C753 C 0.14622 0.46533 0.54541 0.0
C754 C 0.15303 0.44662 0.52699 0.0
C755 C 0.16265 0.43604 0.57282 0.0
C756 C 0.1653 0.44386 0.63772 0.0
C757 C 0.15831 0.46226 0.65692 0.0
C758 C 0.14888 0.47302 0.61107 0.0
C759 C 0.04827 0.49634 0.48145 0.0
C760 C 0.04555 0.50998 0.5354 0.0
C761 C 0.0676 0.4907 0.46164 0.0
C762 C 0.08456 0.49875 0.49493 0.0
C763 C 0.08193 0.51252 0.54855 0.0
C764 C 0.06253 0.51822 0.56835 0.0
C765 C 0.10502 0.49287 0.47279 0.0
C766 C 0.11651 0.48363 0.5178 0.0
C767 C 0.1126 0.49513 0.40617 0.0
C768 C 0.10151 0.50522 0.35656 0.0
C769 C 0.09517 0.52432 0.3708 0.0
C770 C 0.0848 0.53371 0.32369 0.0
C771 C 0.08084 0.52423 0.26188 0.0
C772 C 0.08729 0.50535 0.24698 0.0
C773 C 0.09761 0.49587 0.29398 0.0
H774 H 0.07284 0.53155 0.22545 0.0
H775 H 0.17261 0.43558 0.67333 0.0
H776 H 0.97802 0.7974 0.89935 0.0
H777 H 0.98629 0.82545 0.82941 0.0
H778 H 0.93859 0.85676 0.933 0.0
H779 H 0.92946 0.82838 -8e-05 0.0
H780 H 0.94391 0.86917 0.81181 0.0
H781 H 0.98759 0.858 0.99145 0.0
H782 H 0.01052 0.83873 0.05162 0.0
H783 H 0.05146 0.83664 0.87849 0.0
H784 H 0.02859 0.85568 0.81701 0.0
H785 H 0.9842 0.96716 0.87187 0.0
H786 H 0.97154 0.93277 0.88107 0.0
H787 H 0.01753 0.91478 0.73458 0.0
H788 H 0.03019 0.94924 0.72513 0.0
H789 H 0.01465 0.89359 0.85351 0.0
H790 H 0.97194 0.91373 0.68778 0.0
H791 H 0.9478 0.93426 0.63848 0.0
H792 H 0.90378 0.92138 0.79723 0.0
H793 H 0.92781 0.90135 0.84919 0.0
C794 C 0.96871 0.80991 0.90518 0.0
C795 C 0.95343 0.81091 0.95637 0.0
C796 C 0.9736 0.82603 0.86561 0.0
C797 C 0.96355 0.84348 0.87769 0.0
C798 C 0.94676 0.84359 0.92331 0.0
C799 C 0.94166 0.8274 0.96201 0.0
C800 C 0.97216 0.86237 0.85133 0.0
C801 C 0.95938 0.87452 0.82078 0.0
C802 C 0.99244 0.86929 0.86239 0.0
C803 C 0.00629 0.85803 0.89943 0.0
C804 C 0.00143 0.85333 0.96615 0.0
C805 C 0.01441 0.84246 0.00047 0.0
C806 C 0.03241 0.83641 0.96883 0.0
C807 C 0.03749 0.84129 0.90287 0.0
C808 C 0.02453 0.85211 0.86825 0.0
C809 C 0.99166 0.95583 0.84203 0.0
C810 C 0.00813 0.9607 0.79777 0.0
C811 C 0.98429 0.93627 0.8467 0.0
C812 C 0.99346 0.92132 0.8078 0.0
C813 C 0.01017 0.92615 0.76452 0.0
C814 C 0.01736 0.94575 0.75921 0.0
C815 C 0.98626 0.90055 0.81552 0.0
C816 C 0.99933 0.88809 0.84289 0.0
C817 C 0.96612 0.89362 0.80308 0.0
C818 C 0.95176 0.90605 0.77261 0.0
C819 C 0.95721 0.91544 0.71273 0.0
C820 C 0.94353 0.92695 0.68417 0.0
C821 C 0.92425 0.92896 0.71433 0.0
C822 C 0.91869 0.91973 0.77376 0.0
C823 C 0.93235 0.90832 0.80289 0.0
H824 H 0.91362 0.93771 0.69163 0.0
H825 H 0.04245 0.828 0.99548 0.0
H826 H 0.68823 0.94931 0.96468 0.0
H827 H 0.66006 0.95817 0.89913 0.0
H828 H 0.66663 0.01777 0.98145 0.0
H829 H 0.69476 0.00887 0.04656 0.0
H830 H 0.62528 0.97011 0.95824 0.0
H831 H 0.64919 0.04845 0.87024 0.0
H832 H 0.67984 0.06702 0.82621 0.0
H833 H 0.70492 0.01313 0.75323 0.0
H834 H 0.67434 0.99428 0.79607 0.0
H835 H 0.53491 0.0124 0.86561 0.0
H836 H 0.56607 0.00543 0.91943 0.0
H837 H 0.59912 0.00847 0.72821 0.0
H838 H 0.56887 0.01739 0.67709 0.0
H839 H 0.6215 0.02516 0.80788 0.0
H840 H 0.58111 0.96284 0.82067 0.0
H841 H 0.55227 0.94067 0.85571 0.0
H842 H 0.5615 0.95745 0.06188 0.0
H843 H 0.59073 0.97965 0.02784 0.0
C844 C 0.68411 0.96444 0.96642 0.0
C845 C 0.69373 0.97856 0.00923 0.0
C846 C 0.66796 0.96945 0.9297 0.0
C847 C 0.66131 0.98863 0.93542 0.0
C848 C 0.67171 0.00298 0.97554 0.0
C849 C 0.68779 0.99795 0.0124 0.0
C850 C 0.6422 0.99309 0.9058 0.0
C851 C 0.62444 0.98206 0.92486 0.0
C852 C 0.64113 0.00871 0.86278 0.0
C853 C 0.65959 0.01996 0.83717 0.0
C854 C 0.66124 0.04058 0.84475 0.0
C855 C 0.6786 0.05115 0.81999 0.0
C856 C 0.69435 0.04126 0.7872 0.0
C857 C 0.69276 0.02077 0.77894 0.0
C858 C 0.67544 0.01014 0.80362 0.0
C859 C 0.54892 0.01144 0.83556 0.0
C860 C 0.54958 0.01529 0.76738 0.0
C861 C 0.56671 0.00735 0.86605 0.0
C862 C 0.58513 0.0061 0.8279 0.0
C863 C 0.58537 0.00945 0.75928 0.0
C864 C 0.56794 0.01435 0.72975 0.0
C865 C 0.60437 0.00171 0.85822 0.0
C866 C 0.62222 0.01307 0.84069 0.0
C867 C 0.60562 0.98604 0.90137 0.0
C868 C 0.58784 0.97309 0.92165 0.0
C869 C 0.57679 0.96201 0.87339 0.0
C870 C 0.56033 0.94946 0.89318 0.0
C871 C 0.55477 0.94786 0.96105 0.0
C872 C 0.56575 0.95877 0.00934 0.0
C873 C 0.5823 0.9713 0.98985 0.0
H874 H 0.54212 0.93803 0.97647 0.0
H875 H 0.70777 0.04947 0.76803 0.0
H876 H 0.5394 0.70692 0.94718 0.0
H877 H 0.53195 0.67797 0.87341 0.0
H878 H 0.5776 0.64733 0.96477 0.0
H879 H 0.58536 0.67634 0.03766 0.0
H880 H 0.57291 0.63493 0.83092 0.0
H881 H 0.53183 0.64552 0.0359 0.0
H882 H 0.50989 0.6649 0.1132 0.0
H883 H 0.46707 0.66751 0.96028 0.0
H884 H 0.48891 0.64827 0.88179 0.0
H885 H 0.53352 0.53589 0.85525 0.0
H886 H 0.54675 0.56988 0.87774 0.0
H887 H 0.49691 0.59106 0.77693 0.0
H888 H 0.48372 0.55707 0.75428 0.0
H889 H 0.50303 0.6101 0.89845 0.0
H890 H 0.54208 0.59292 0.7013 0.0
H891 H 0.56467 0.57348 0.62627 0.0
H892 H 0.61182 0.58271 0.76593 0.0
H893 H 0.58944 0.60185 0.84213 0.0
C894 C 0.54847 0.69433 0.94937 0.0
C895 C 0.56272 0.69369 0.99871 0.0
C896 C 0.54413 0.67777 0.90748 0.0
C897 C 0.55393 0.66041 0.91479 0.0
C898 C 0.56981 0.66056 0.95858 0.0
C899 C 0.57415 0.67708 0.00041 0.0
C900 C 0.54534 0.64135 0.88693 0.0
C901 C 0.55766 0.62943 0.84553 0.0
C902 C 0.52534 0.63435 0.90555 0.0
C903 C 0.51208 0.64567 0.95284 0.0
C904 C 0.51779 0.65033 0.01867 0.0
C905 C 0.50539 0.66129 0.06269 0.0
C906 C 0.48714 0.66751 0.04159 0.0
C907 C 0.48123 0.66272 0.97649 0.0
C908 C 0.49361 0.65178 0.93224 0.0
C909 C 0.52535 0.54784 0.8385 0.0
C910 C 0.50769 0.54402 0.80288 0.0
C911 C 0.53302 0.56719 0.85057 0.0
C912 C 0.52297 0.58294 0.82796 0.0
C913 C 0.50498 0.5791 0.79418 0.0
C914 C 0.49745 0.55976 0.78149 0.0
C915 C 0.53065 0.60346 0.84283 0.0
C916 C 0.51816 0.61564 0.8824 0.0
C917 C 0.55053 0.61054 0.82285 0.0
C918 C 0.56397 0.5987 0.77765 0.0
C919 C 0.55719 0.59062 0.71622 0.0
C920 C 0.56997 0.57969 0.67342 0.0
C921 C 0.58964 0.57683 0.69132 0.0
C922 C 0.59658 0.5849 0.75203 0.0
C923 C 0.58384 0.5958 0.79507 0.0
H924 H 0.59947 0.56834 0.65812 0.0
H925 H 0.47755 0.676 0.07575 0.0
H926 H 0.83571 0.54969 0.07292 0.0
H927 H 0.86542 0.54423 0.99914 0.0
H928 H 0.83179 0.49743 0.89206 0.0
H929 H 0.80205 0.5025 0.96752 0.0
H930 H 0.8665 0.48545 0.92767 0.0
H931 H 0.84728 0.54018 0.81721 0.0
H932 H 0.83629 0.5734 0.80159 0.0
H933 H 0.89139 0.5989 0.88226 0.0
H934 H 0.90249 0.56589 0.90026 0.0
H935 H 0.95832 0.47628 0.72101 0.0
H936 H 0.92282 0.48148 0.75507 0.0
H937 H 0.94267 0.52547 0.90384 0.0
H938 H 0.97807 0.52043 0.86952 0.0
H939 H 0.91203 0.53724 0.82357 0.0
H940 H 0.92701 0.48156 0.95187 0.0
H941 H 0.93786 0.44805 0.96367 0.0
H942 H 0.88994 0.42439 0.84091 0.0
H943 H 0.87897 0.45782 0.8277 0.0
C944 C 0.83459 0.53836 0.03325 0.0
C945 C 0.81666 0.52639 0.0263 0.0
C946 C 0.8515 0.53539 0.99059 0.0
C947 C 0.85078 0.52053 0.93968 0.0
C948 C 0.83263 0.50904 0.93088 0.0
C949 C 0.81565 0.51201 0.97371 0.0
C950 C 0.86964 0.51579 0.90098 0.0
C951 C 0.87621 0.49669 0.90341 0.0
C952 C 0.88243 0.53049 0.86995 0.0
C953 C 0.87565 0.55048 0.86057 0.0
C954 C 0.85695 0.55286 0.83247 0.0
C955 C 0.8507 0.57168 0.82316 0.0
C956 C 0.86309 0.58826 0.84123 0.0
C957 C 0.88176 0.58605 0.86865 0.0
C958 C 0.88804 0.56728 0.8784 0.0
C959 C 0.955 0.48703 0.76099 0.0
C960 C 0.97076 0.49801 0.79264 0.0
C961 C 0.93482 0.48994 0.78043 0.0
C962 C 0.93021 0.50389 0.83179 0.0
C963 C 0.94598 0.51471 0.8639 0.0
C964 C 0.96614 0.51168 0.8448 0.0
C965 C 0.90897 0.50724 0.85282 0.0
C966 C 0.90203 0.52602 0.84676 0.0
C967 C 0.89577 0.49225 0.88001 0.0
C968 C 0.90233 0.47219 0.88813 0.0
C969 C 0.9189 0.46923 0.92691 0.0
C970 C 0.92505 0.45025 0.93396 0.0
C971 C 0.91464 0.43411 0.90287 0.0
C972 C 0.89802 0.43691 0.86484 0.0
C973 C 0.89182 0.45586 0.85759 0.0
H974 H 0.91941 0.41943 0.9084 0.0
H975 H 0.85826 0.60281 0.83379 0.0
H976 H 0.08262 0.21596 0.12493 0.0
H977 H 0.08217 0.19567 0.01984 0.0
H978 H 0.01954 0.17709 0.06601 0.0
H979 H 0.01981 0.19792 0.16734 0.0
H980 H 0.0797 0.15918 0.00963 0.0
H981 H 0.99334 0.15949 0.94695 0.0
H982 H 0.9685 0.18412 0.93236 0.0
H983 H 0.01685 0.22801 0.89698 0.0
H984 H 0.04202 0.20359 0.91027 0.0
H985 H 0.0414 0.06433 0.93149 0.0
H986 H 0.0509 0.09788 0.97217 0.0
H987 H 0.03029 0.12023 0.79086 0.0
H988 H 0.01888 0.08695 0.75413 0.0
H989 H 0.01919 0.14284 0.87675 0.0
H990 H 0.08367 0.12034 0.83329 0.0
H991 H 0.11187 0.09839 0.83042 0.0
H992 H 0.11336 0.10387 0.04454 0.0
H993 H 0.08496 0.12562 0.04889 0.0
C994 C 0.06859 0.20821 0.11046 0.0
C995 C 0.05123 0.20844 0.15359 0.0
C996 C 0.06836 0.19648 0.05095 0.0
C997 C 0.05078 0.18486 0.03433 0.0
C998 C 0.03315 0.18624 0.07591 0.0
C999 C 0.03332 0.19807 0.13435 0.0
C1000 C 0.05127 0.16905 0.98048 0.0
C1001 C 0.06665 0.15577 0.97959 0.0
C1002 C 0.0348 0.16495 0.93846 0.0
C1003 C 0.01962 0.17965 0.92969 0.0
C1004 C 0.99872 0.17434 0.93543 0.0
C1005 C 0.98456 0.18829 0.92757 0.0
C1006 C 0.99109 0.20762 0.91379 0.0
C1007 C 0.0118 0.21304 0.90778 0.0
C1008 C 0.02603 0.19915 0.91557 0.0
C1009 C 0.03891 0.07648 0.90068 0.0
C1010 C 0.02942 0.07315 0.8399 0.0
C1011 C 0.04463 0.09566 0.92331 0.0
C1012 C 0.04182 0.11177 0.88403 0.0
C1013 C 0.03265 0.10823 0.82246 0.0
C1014 C 0.02621 0.08917 0.80125 0.0
C1015 C 0.04691 0.1323 0.90969 0.0
C1016 C 0.03259 0.14644 0.90497 0.0
C1017 C 0.06492 0.13763 0.94338 0.0
C1018 C 0.0821 0.1246 0.94138 0.0
C1019 C 0.08993 0.11679 0.87983 0.0
C1020 C 0.10596 0.10438 0.87793 0.0
C1021 C 0.11439 0.09973 0.93726 0.0
C1022 C 0.10682 0.10751 0.99862 0.0
C1023 C 0.09078 0.11991 0.00081 0.0
H1024 H 0.1268 0.09011 0.93569 0.0
H1025 H 0.9801 0.21839 0.90777 0.0
H1026 H 0.3234 0.01277 0.17772 0.0
H1027 H 0.34829 0.00746 0.08565 0.0
H1028 H 0.32903 0.05787 0.98998 0.0
H1029 H 0.30428 0.06358 0.08377 0.0
H1030 H 0.34386 0.02185 0.9009 0.0
H1031 H 0.36105 0.07009 0.07136 0.0
H1032 H 0.36424 0.08456 0.18558 0.0
H1033 H 0.40514 0.04098 0.22772 0.0
H1034 H 0.40102 0.02532 0.11542 0.0
H1035 H 0.44187 0.03669 0.73386 0.0
H1036 H 0.40941 0.04142 0.79393 0.0
H1037 H 0.42526 0.00361 0.94636 0.0
H1038 H 0.45782 0.99858 0.88656 0.0
H1039 H 0.41082 0.03754 0.99851 0.0
H1040 H 0.38964 0.98787 0.82727 0.0
H1041 H 0.38607 0.97479 0.71112 0.0
H1042 H 0.35543 0.02569 0.66524 0.0
H1043 H 0.35875 0.03902 0.78125 0.0
C1044 C 0.32388 0.02221 0.13563 0.0
C1045 C 0.31213 0.03865 0.13774 0.0
C1046 C 0.33812 0.0192 0.08324 0.0
C1047 C 0.34065 0.03247 0.03184 0.0
C1048 C 0.32722 0.04751 0.02944 0.0
C1049 C 0.31307 0.0507 0.08268 0.0
C1050 C 0.35941 0.03243 0.98864 0.0
C1051 C 0.35852 0.02556 0.92174 0.0
C1052 C 0.37847 0.03733 0.01622 0.0
C1053 C 0.38033 0.04622 0.08513 0.0
C1054 C 0.37021 0.06317 0.10556 0.0
C1055 C 0.37219 0.07161 0.17009 0.0
C1056 C 0.38469 0.06354 0.21422 0.0
C1057 C 0.39518 0.04701 0.19393 0.0
C1058 C 0.39292 0.03827 0.12995 0.0
C1059 C 0.43859 0.02951 0.78049 0.0
C1060 C 0.45255 0.01737 0.8057 0.0
C1061 C 0.41993 0.0321 0.81425 0.0
C1062 C 0.41487 0.02279 0.87408 0.0
C1063 C 0.42885 0.01088 0.89998 0.0
C1064 C 0.44747 0.00808 0.86588 0.0
C1065 C 0.39541 0.02617 0.91145 0.0
C1066 C 0.39619 0.03388 0.97745 0.0
C1067 C 0.37635 0.0224 0.88256 0.0
C1068 C 0.3745 0.01445 0.8128 0.0
C1069 C 0.38219 0.99628 0.79235 0.0
C1070 C 0.3801 0.98877 0.72668 0.0
C1071 C 0.3704 0.99934 0.68097 0.0
C1072 C 0.3628 0.01745 0.70083 0.0
C1073 C 0.36471 0.02495 0.76658 0.0
H1074 H 0.36894 0.99358 0.63001 0.0
H1075 H 0.38643 0.07024 0.26383 0.0
H1076 H 0.4183 0.31618 0.13506 0.0
H1077 H 0.42607 0.33902 0.04687 0.0
H1078 H 0.48402 0.3142 0.00549 0.0
H1079 H 0.47664 0.29201 0.09747 0.0
H1080 H 0.49024 0.35096 0.02412 0.0
H1081 H 0.44476 0.31332 0.88634 0.0
H1082 H 0.4134 0.29433 0.85512 0.0
H1083 H 0.37949 0.34549 0.8952 0.0
H1084 H 0.41058 0.36473 0.92762 0.0
H1085 H 0.50964 0.42027 0.76381 0.0
H1086 H 0.50216 0.38932 0.82013 0.0
H1087 H 0.45211 0.41462 0.93198 0.0
H1088 H 0.45979 0.44577 0.87687 0.0
H1089 H 0.44376 0.37538 0.86506 0.0
H1090 H 0.4901 0.4109 0.01419 0.0
H1091 H 0.52213 0.4293 0.04198 0.0
H1092 H 0.55562 0.38006 0.97038 0.0
H1093 H 0.52377 0.36146 0.9413 0.0
C1094 C 0.43239 0.3151 0.10546 0.0
C1095 C 0.44692 0.30243 0.12329 0.0
C1096 C 0.43682 0.32816 0.05465 0.0
C1097 C 0.45566 0.32842 0.01905 0.0
C1098 C 0.46941 0.31436 0.03238 0.0
C1099 C 0.46508 0.30147 0.08425 0.0
C1100 C 0.46192 0.34508 0.97566 0.0
C1101 C 0.4803 0.35589 0.98781 0.0
C1102 C 0.44882 0.35195 0.92932 0.0
C1103 C 0.43003 0.34045 0.90979 0.0
C1104 C 0.4306 0.32049 0.88896 0.0
C1105 C 0.41286 0.30969 0.87096 0.0
C1106 C 0.39446 0.31869 0.87326 0.0
C1107 C 0.39376 0.33853 0.89343 0.0
C1108 C 0.41144 0.34941 0.91151 0.0
C1109 C 0.49709 0.41924 0.8006 0.0
C1110 C 0.48526 0.43536 0.81604 0.0
C1111 C 0.49287 0.40159 0.83272 0.0
C1112 C 0.47663 0.39975 0.88021 0.0
C1113 C 0.46471 0.4158 0.89544 0.0
C1114 C 0.46912 0.43355 0.86406 0.0
C1115 C 0.47196 0.38099 0.9136 0.0
C1116 C 0.45388 0.36999 0.89987 0.0
C1117 C 0.48546 0.37373 0.9574 0.0
C1118 C 0.50459 0.3849 0.97475 0.0
C1119 C 0.50431 0.40408 0.0037 0.0
C1120 C 0.52243 0.41452 0.01986 0.0
C1121 C 0.54091 0.40588 0.00772 0.0
C1122 C 0.5413 0.38675 0.9796 0.0
C1123 C 0.52322 0.37625 0.96331 0.0
H1124 H 0.55492 0.41398 0.02029 0.0
H1125 H 0.38075 0.31029 0.85932 0.0
H1126 H 0.22634 0.5143 0.09208 0.0
H1127 H 0.20352 0.52002 0.00308 0.0
H1128 H 0.18587 0.45806 0.989 0.0
H1129 H 0.20852 0.45235 0.07778 0.0
H1130 H 0.19223 0.5052 0.86963 0.0
H1131 H 0.1345 0.4554 0.02016 0.0
H1132 H 0.1282 0.44412 0.13499 0.0
H1133 H 0.16081 0.49598 0.2131 0.0
H1134 H 0.16704 0.50771 0.09887 0.0
H1135 H 0.0978 0.48794 0.70269 0.0
H1136 H 0.13016 0.48557 0.75587 0.0
H1137 H 0.10793 0.51982 0.92759 0.0
H1138 H 0.07559 0.52175 0.87574 0.0
H1139 H 0.12308 0.48862 0.96652 0.0
H1140 H 0.14302 0.53753 0.81138 0.0
H1141 H 0.14804 0.55197 0.70107 0.0
H1142 H 0.19043 0.50886 0.63922 0.0
H1143 H 0.18546 0.49395 0.74885 0.0
C1144 C 0.21838 0.50181 0.06744 0.0
C1145 C 0.21909 0.4829 0.09168 0.0
C1146 C 0.20529 0.5051 0.01685 0.0
C1147 C 0.19278 0.4895 0.99039 0.0
C1148 C 0.1953 0.4703 0.00916 0.0
C1149 C 0.20831 0.46703 0.05958 0.0
C1150 C 0.17472 0.49352 0.95361 0.0
C1151 C 0.17707 0.50152 0.89026 0.0
C1152 C 0.15499 0.48927 0.98188 0.0
C1153 C 0.15144 0.48229 0.05083 0.0
C1154 C 0.14031 0.46439 0.06184 0.0
C1155 C 0.13674 0.45794 0.12682 0.0
C1156 C 0.14414 0.46931 0.18124 0.0
C1157 C 0.15513 0.48717 0.17085 0.0
C1158 C 0.15873 0.4937 0.10598 0.0
C1159 C 0.09994 0.49504 0.7516 0.0
C1160 C 0.08417 0.50488 0.78548 0.0
C1161 C 0.11846 0.49379 0.78172 0.0
C1162 C 0.12154 0.50256 0.8457 0.0
C1163 C 0.10592 0.51285 0.8784 0.0
C1164 C 0.08744 0.51397 0.84869 0.0
C1165 C 0.14035 0.49999 0.88117 0.0
C1166 C 0.13815 0.49224 0.94493 0.0
C1167 C 0.1601 0.505 0.85366 0.0
C1168 C 0.16346 0.51428 0.78804 0.0
C1169 C 0.15321 0.53093 0.77405 0.0
C1170 C 0.15611 0.53927 0.71165 0.0
C1171 C 0.16944 0.53126 0.66299 0.0
C1172 C 0.18005 0.51502 0.67688 0.0
C1173 C 0.1772 0.50662 0.7392 0.0
H1174 H 0.17163 0.5377 0.61465 0.0
H1175 H 0.14127 0.46432 0.23145 0.0
H1176 H 0.98363 0.79299 0.21639 0.0
H1177 H 0.98797 0.81639 0.3124 0.0
H1178 H 0.92764 0.83505 0.29143 0.0
H1179 H 0.92343 0.8119 0.19532 0.0
H1180 H 0.95681 0.8645 0.27657 0.0
H1181 H 0.93964 0.81384 0.43223 0.0
H1182 H 0.94265 0.78187 0.4819 0.0
H1183 H 0.00441 0.79844 0.52638 0.0
H1184 H 0.00186 0.83041 0.47609 0.0
H1185 H 0.95917 0.94222 0.51643 0.0
H1186 H 0.94952 0.91112 0.4574 0.0
H1187 H 0.00658 0.88856 0.50174 0.0
H1188 H 0.01569 0.91932 0.56464 0.0
H1189 H 0.97867 0.86014 0.50822 0.0
H1190 H 0.99806 0.90829 0.34677 0.0
H1191 H 0.99749 0.93988 0.29227 0.0
H1192 H 0.93474 0.92739 0.25185 0.0
H1193 H 0.93486 0.89583 0.30689 0.0
C1194 C 0.97103 0.8015 0.23431 0.0
C1195 C 0.95323 0.80078 0.19876 0.0
C1196 C 0.97351 0.81488 0.28897 0.0
C1197 C 0.95815 0.82753 0.30871 0.0
C1198 C 0.93968 0.82546 0.27686 0.0
C1199 C 0.93725 0.81221 0.22226 0.0
C1200 C 0.96245 0.84498 0.35393 0.0
C1201 C 0.96119 0.86353 0.32773 0.0
C1202 C 0.96907 0.84368 0.41946 0.0
C1203 C 0.97061 0.82447 0.44981 0.0
C1204 C 0.95392 0.81061 0.45205 0.0
C1205 C 0.95553 0.7925 0.48045 0.0
C1206 C 0.97372 0.78811 0.50713 0.0
C1207 C 0.99033 0.80185 0.50563 0.0
C1208 C 0.9888 0.81998 0.47726 0.0
C1209 C 0.96958 0.93056 0.51392 0.0
C1210 C 0.98825 0.93318 0.54432 0.0
C1211 C 0.9641 0.91282 0.47999 0.0
C1212 C 0.97753 0.89764 0.47364 0.0
C1213 C 0.99599 0.90007 0.50567 0.0
C1214 C 0.00126 0.91768 0.54109 0.0
C1215 C 0.97269 0.87966 0.43108 0.0
C1216 C 0.97406 0.86108 0.45733 0.0
C1217 C 0.96652 0.88083 0.36481 0.0
C1218 C 0.96642 0.89979 0.33154 0.0
C1219 C 0.98411 0.91235 0.32666 0.0
C1220 C 0.98387 0.93024 0.29562 0.0
C1221 C 0.96608 0.93566 0.26878 0.0
C1222 C 0.9485 0.92318 0.27276 0.0
C1223 C 0.94865 0.90529 0.30382 0.0
H1224 H 0.96592 0.94952 0.24476 0.0
H1225 H 0.97494 0.77408 0.5291 0.0
H1226 H 0.67966 0.93583 0.20729 0.0
H1227 H 0.65299 0.93904 0.2954 0.0
H1228 H 0.68562 0.99051 0.37889 0.0
H1229 H 0.71237 0.98736 0.29013 0.0
H1230 H 0.66146 0.96615 0.47648 0.0
H1231 H 0.65623 0.99996 0.27221 0.0
H1232 H 0.65664 0.00219 0.14964 0.0
H1233 H 0.60711 0.95842 0.13928 0.0
H1234 H 0.60661 0.95573 0.26188 0.0
H1235 H 0.55791 0.01754 0.50609 0.0
H1236 H 0.59052 0.01123 0.44893 0.0
H1237 H 0.59168 0.95693 0.54996 0.0
H1238 H 0.55951 0.96342 0.60873 0.0
H1239 H 0.60057 0.98384 0.36329 0.0
H1240 H 0.63231 0.94341 0.5692 0.0
H1241 H 0.63531 0.94437 0.6918 0.0
H1242 H 0.63563 0.00738 0.69818 0.0
H1243 H 0.63163 0.00667 0.57627 0.0
C1244 C 0.68161 0.94723 0.24647 0.0
C1245 C 0.69798 0.96136 0.24229 0.0
C1246 C 0.66633 0.94913 0.2964 0.0
C1247 C 0.66723 0.9652 0.34275 0.0
C1248 C 0.68471 0.97801 0.34344 0.0
C1249 C 0.70003 0.97615 0.29312 0.0
C1250 C 0.64866 0.9704 0.38204 0.0
C1251 C 0.64811 0.96997 0.4519 0.0
C1252 C 0.63142 0.97578 0.34983 0.0
C1253 C 0.63154 0.97749 0.27615 0.0
C1254 C 0.64554 0.99069 0.24377 0.0
C1255 C 0.64575 0.99208 0.17432 0.0
C1256 C 0.63196 0.9804 0.13668 0.0
C1257 C 0.61783 0.96741 0.1685 0.0
C1258 C 0.61756 0.96596 0.23798 0.0
C1259 C 0.5651 0.00424 0.51612 0.0
C1260 C 0.55603 0.99096 0.5618 0.0
C1261 C 0.58381 0.0007 0.48366 0.0
C1262 C 0.59382 0.98377 0.49597 0.0
C1263 C 0.58465 0.97038 0.54101 0.0
C1264 C 0.56606 0.97401 0.57395 0.0
C1265 C 0.61313 0.97951 0.45839 0.0
C1266 C 0.61384 0.98003 0.3883 0.0
C1267 C 0.63059 0.97456 0.49048 0.0
C1268 C 0.63147 0.97497 0.56409 0.0
C1269 C 0.63274 0.95743 0.5971 0.0
C1270 C 0.63448 0.95792 0.66644 0.0
C1271 C 0.63542 0.97591 0.70294 0.0
C1272 C 0.63453 0.99343 0.67016 0.0
C1273 C 0.63228 0.99299 0.60107 0.0
H1274 H 0.63699 0.97626 0.75648 0.0
H1275 H 0.63219 0.98147 0.08292 0.0
H1276 H 0.52583 0.68767 0.20091 0.0
H1277 H 0.5201 0.66812 0.29868 0.0
H1278 H 0.56775 0.70282 0.39742 0.0
H1279 H 0.57425 0.72196 0.29647 0.0
H1280 H 0.57304 0.66662 0.41316 0.0
H1281 H 0.51626 0.70318 0.45695 0.0
H1282 H 0.48588 0.72051 0.43544 0.0
H1283 H 0.45502 0.66585 0.37342 0.0
H1284 H 0.4853 0.64819 0.39355 0.0
H1285 H 0.50535 0.593 0.64001 0.0
H1286 H 0.51259 0.62609 0.59946 0.0
H1287 H 0.55214 0.60261 0.44149 0.0
H1288 H 0.54562 0.5697 0.48391 0.0
H1289 H 0.50453 0.64133 0.49304 0.0
H1290 H 0.58917 0.63418 0.39351 0.0
H1291 H 0.61931 0.61893 0.42976 0.0
H1292 H 0.5949 0.62024 0.63248 0.0
H1293 H 0.5648 0.63581 0.59782 0.0
C1294 C 0.53486 0.69137 0.2439 0.0
C1295 C 0.55057 0.7062 0.24106 0.0
C1296 C 0.53145 0.6803 0.30027 0.0
C1297 C 0.54329 0.68408 0.35623 0.0
C1298 C 0.55837 0.69963 0.355 0.0
C1299 C 0.56195 0.71068 0.29774 0.0
C1300 C 0.54094 0.67034 0.41206 0.0
C1301 C 0.55809 0.6613 0.43144 0.0
C1302 C 0.52153 0.66388 0.43864 0.0
C1303 C 0.50312 0.67435 0.42679 0.0
C1304 C 0.50304 0.69485 0.43843 0.0
C1305 C 0.48582 0.70474 0.42649 0.0
C1306 C 0.46853 0.69429 0.40309 0.0
C1307 C 0.46841 0.67392 0.39167 0.0
C1308 C 0.48559 0.66395 0.40351 0.0
C1309 C 0.51572 0.59498 0.59694 0.0
C1310 C 0.52497 0.57886 0.56502 0.0
C1311 C 0.51985 0.61389 0.57384 0.0
C1312 C 0.53313 0.61697 0.5179 0.0
C1313 C 0.54226 0.60076 0.4858 0.0
C1314 C 0.53838 0.58191 0.50956 0.0
C1315 C 0.53648 0.6368 0.49004 0.0
C1316 C 0.51953 0.64699 0.47627 0.0
C1317 C 0.55612 0.64482 0.47137 0.0
C1318 C 0.57463 0.63612 0.49286 0.0
C1319 C 0.5903 0.63141 0.44593 0.0
C1320 C 0.60737 0.62265 0.4662 0.0
C1321 C 0.60899 0.61857 0.53334 0.0
C1322 C 0.59361 0.62335 0.58046 0.0
C1323 C 0.57654 0.63215 0.5605 0.0
H1324 H 0.62218 0.61172 0.54886 0.0
H1325 H 0.45522 0.70197 0.39382 0.0
H1326 H 0.7879 0.50046 0.27679 0.0
H1327 H 0.81092 0.49909 0.36839 0.0
H1328 H 0.82657 0.56118 0.35542 0.0
H1329 H 0.80355 0.56251 0.26416 0.0
H1330 H 0.85824 0.53702 0.32179 0.0
H1331 H 0.80755 0.54505 0.49887 0.0
H1332 H 0.77524 0.53746 0.56178 0.0
H1333 H 0.79325 0.47945 0.59352 0.0
H1334 H 0.82557 0.48658 0.52991 0.0
H1335 H 0.93987 0.54441 0.52977 0.0
H1336 H 0.90689 0.54927 0.48599 0.0
H1337 H 0.88707 0.48931 0.52637 0.0
H1338 H 0.92 0.48465 0.57289 0.0
H1339 H 0.85634 0.51254 0.5512 0.0
H1340 H 0.90436 0.50207 0.36898 0.0
H1341 H 0.93629 0.50732 0.30151 0.0
H1342 H 0.92253 0.56687 0.27258 0.0
H1343 H 0.89063 0.56205 0.3407 0.0
C1344 C 0.79532 0.514 0.29644 0.0
C1345 C 0.79385 0.53163 0.26424 0.0
C1346 C 0.80859 0.5132 0.34842 0.0
C1347 C 0.82056 0.53002 0.36835 0.0
C1348 C 0.81743 0.54805 0.3409 0.0
C1349 C 0.80414 0.54886 0.28925 0.0
C1350 C 0.83899 0.52805 0.40615 0.0
C1351 C 0.8578 0.53208 0.37255 0.0
C1352 C 0.83838 0.52066 0.47099 0.0
C1353 C 0.81892 0.51629 0.509 0.0
C1354 C 0.80455 0.5306 0.51864 0.0
C1355 C 0.78625 0.5264 0.55459 0.0
C1356 C 0.78217 0.50797 0.58148 0.0
C1357 C 0.79642 0.49371 0.57259 0.0
C1358 C 0.81474 0.49783 0.53665 0.0
C1359 C 0.92844 0.5323 0.52968 0.0
C1360 C 0.93254 0.51406 0.5537 0.0
C1361 C 0.90959 0.53507 0.50459 0.0
C1362 C 0.89461 0.51953 0.5015 0.0
C1363 C 0.89841 0.50149 0.52794 0.0
C1364 C 0.91724 0.4988 0.55408 0.0
C1365 C 0.87556 0.5219 0.46714 0.0
C1366 C 0.85672 0.51771 0.5008 0.0
C1367 C 0.87602 0.5288 0.40153 0.0
C1368 C 0.89521 0.53176 0.36054 0.0
C1369 C 0.90822 0.51633 0.34868 0.0
C1370 C 0.9263 0.51922 0.31025 0.0
C1371 C 0.93146 0.53743 0.28294 0.0
C1372 C 0.91853 0.55278 0.29387 0.0
C1373 C 0.90044 0.54998 0.33235 0.0
H1374 H 0.94546 0.53964 0.25317 0.0
H1375 H 0.768 0.50475 0.60932 0.0
loop_
_geom_bond_atom_site_label_1
_geom_bond_atom_site_label_2
_geom_bond_distance
_geom_bond_site_symmetry_2
_ccdc_geom_bond_type
H0 C5 0.930 . S
H1 C8 0.930 1_556 S
H2 C10 0.930 . S
H3 C4 1.016 1_556 S
C4 H3 1.016 1_554 S
C4 N11 1.286 . S
C5 H0 0.930 . S
C5 C6 1.397 . S
C5 C7 1.361 . S
C6 C5 1.397 . S
C6 C10 1.390 . S
C7 C5 1.361 . S
C7 C8 1.393 . S
C7 N11 1.413 . S
C8 H1 0.930 1_554 S
C8 C7 1.393 . S
C8 C9 1.399 . S
C9 C8 1.399 . S
C9 C10 1.381 . S
C10 H2 0.930 . S
C10 C6 1.390 . S
C10 C9 1.381 . S
N11 C4 1.286 . S
N11 C7 1.413 . S
H12 C17 0.930 . S
H13 C20 0.930 . S
H14 C22 0.930 . S
H15 C16 1.016 . S
C16 H15 1.016 . S
C16 N23 1.286 1_556 S
C17 H12 0.930 . S
C17 C18 1.397 . S
C17 C19 1.361 . S
C18 C17 1.397 . S
C18 C22 1.390 . S
C19 C17 1.361 . S
C19 C20 1.393 1_554 S
C19 N23 1.413 . S
C20 H13 0.930 . S
C20 C19 1.393 1_556 S
C20 C21 1.399 . S
C21 C20 1.399 . S
C21 C22 1.381 1_556 S
C22 H14 0.930 . S
C22 C18 1.390 . S
C22 C21 1.381 1_554 S
N23 C16 1.286 1_554 S
N23 C19 1.413 . S
H24 C29 0.930 . S
H25 C32 0.930 1_556 S
H26 C34 0.930 . S
H27 C28 1.016 1_556 S
C28 H27 1.016 1_554 S
C28 N35 1.286 . S
C29 H24 0.930 . S
C29 C30 1.397 . S
C29 C31 1.361 . S
C30 C29 1.397 . S
C30 C34 1.390 . S
C31 C29 1.361 . S
C31 C32 1.393 . S
C31 N35 1.413 . S
C32 H25 0.930 1_554 S
C32 C31 1.393 . S
C32 C33 1.399 . S
C33 C32 1.399 . S
C33 C34 1.381 . S
C34 H26 0.930 . S
C34 C30 1.390 . S
C34 C33 1.381 . S
N35 C28 1.286 . S
N35 C31 1.413 . S
H36 C41 0.930 . S
H37 C44 0.930 1_556 S
H38 C46 0.930 . S
H39 C40 1.016 1_556 S
C40 H39 1.016 1_554 S
C40 N47 1.286 . S
C41 H36 0.930 . S
C41 C42 1.397 . S
C41 C43 1.361 . S
C42 C41 1.397 . S
C42 C46 1.390 . S
C43 C41 1.361 . S
C43 C44 1.393 . S
C43 N47 1.413 . S
C44 H37 0.930 1_554 S
C44 C43 1.393 . S
C44 C45 1.399 . S
C45 C44 1.399 . S
C45 C46 1.381 . S
C46 H38 0.930 . S
C46 C42 1.390 . S
C46 C45 1.381 . S
N47 C40 1.286 . S
N47 C43 1.413 . S
H48 C53 0.930 . S
H49 C56 0.930 . S
H50 C58 0.930 . S
H51 C52 1.016 . S
C52 H51 1.016 . S
C52 N59 1.286 . S
C53 H48 0.930 . S
C53 C54 1.397 . S
C53 C55 1.361 . S
C54 C53 1.397 . S
C54 C58 1.390 . S
C55 C53 1.361 . S
C55 C56 1.393 . S
C55 N59 1.413 . S
C56 H49 0.930 . S
C56 C55 1.393 . S
C56 C57 1.399 . S
C57 C56 1.399 . S
C57 C58 1.381 . S
C58 H50 0.930 . S
C58 C54 1.390 . S
C58 C57 1.381 . S
N59 C52 1.286 . S
N59 C55 1.413 . S
H60 C65 0.930 . S
H61 C68 0.930 . S
H62 C70 0.930 . S
H63 C64 1.016 . S
C64 H63 1.016 . S
C64 N71 1.286 . S
C65 H60 0.930 . S
C65 C66 1.397 . S
C65 C67 1.361 . S
C66 C65 1.397 . S
C66 C70 1.390 . S
C67 C65 1.361 . S
C67 C68 1.393 . S
C67 N71 1.413 . S
C68 H61 0.930 . S
C68 C67 1.393 . S
C68 C69 1.399 . S
C69 C68 1.399 . S
C69 C70 1.381 . S
C70 H62 0.930 . S
C70 C66 1.390 . S
C70 C69 1.381 . S
N71 C64 1.286 . S
N71 C67 1.413 . S
H72 C77 0.930 . S
H73 C80 0.930 . S
H74 C82 0.930 . S
H75 C76 1.016 . S
C76 H75 1.016 . S
C76 N83 1.286 . S
C77 H72 0.930 . S
C77 C78 1.397 . S
C77 C79 1.361 . S
C78 C77 1.397 . S
C78 C82 1.390 . S
C79 C77 1.361 . S
C79 C80 1.393 . S
C79 N83 1.413 . S
C80 H73 0.930 . S
C80 C79 1.393 . S
C80 C81 1.399 . S
C81 C80 1.399 . S
C81 C82 1.381 . S
C82 H74 0.930 . S
C82 C78 1.390 . S
C82 C81 1.381 . S
N83 C76 1.286 . S
N83 C79 1.413 . S
H84 C89 0.930 . S
H85 C92 0.930 . S
H86 C94 0.930 . S
H87 C88 1.016 . S
C88 H87 1.016 . S
C88 N95 1.286 . S
C89 H84 0.930 . S
C89 C90 1.397 . S
C89 C91 1.361 . S
C90 C89 1.397 . S
C90 C94 1.390 . S
C91 C89 1.361 . S
C91 C92 1.393 . S
C91 N95 1.413 . S
C92 H85 0.930 . S
C92 C91 1.393 . S
C92 C93 1.399 . S
C93 C92 1.399 . S
C93 C94 1.381 . S
C94 H86 0.930 . S
C94 C90 1.390 . S
C94 C93 1.381 . S
N95 C88 1.286 . S
N95 C91 1.413 . S
Tb96 O99 2.453 1_565 S
Tb96 O100 2.596 1_665 S
Tb96 O101 2.374 1_665 S
Tb96 O109 2.343 1_655 S
Tb96 O111 2.353 1_565 S
Tb96 O113 2.427 . S
Tb96 O114 2.513 1_655 S
C97 O101 1.251 . S
C97 O103 1.263 . S
Tb98 O100 2.343 . S
Tb98 O103 2.353 . S
Tb98 O106 2.427 . S
Tb98 O107 2.513 . S
Tb98 O108 2.453 1_545 S
Tb98 O109 2.596 1_545 S
Tb98 O110 2.374 1_455 S
O99 Tb96 2.453 1_545 S
O99 C115 1.245 1_655 S
O100 Tb96 2.596 1_445 S
O100 Tb98 2.343 . S
O100 C115 1.259 . S
O101 Tb96 2.374 1_445 S
O101 C97 1.251 . S
C102 O106 1.275 . S
C102 O107 1.246 . S
O103 C97 1.263 . S
O103 Tb98 2.353 . S
C104 O108 1.245 . S
C104 O109 1.259 . S
C105 O110 1.250 . S
C105 O111 1.263 . S
O106 Tb98 2.427 . S
O106 C102 1.275 . S
O107 Tb98 2.513 . S
O107 C102 1.246 . S
O108 Tb98 2.453 1_565 S
O108 C104 1.245 . S
O109 Tb96 2.343 1_455 S
O109 Tb98 2.596 1_565 S
O109 C104 1.259 . S
O110 Tb98 2.374 1_655 S
O110 C105 1.250 . S
O111 Tb96 2.353 1_545 S
O111 C105 1.263 . S
C112 O113 1.275 . S
C112 O114 1.246 1_655 S
O113 Tb96 2.427 . S
O113 C112 1.275 . S
O114 Tb96 2.513 1_455 S
O114 C112 1.246 1_455 S
C115 O99 1.245 1_455 S
C115 O100 1.259 . S
Tb116 O119 2.453 . S
Tb116 O120 2.596 1_545 S
Tb116 O121 2.374 . S
Tb116 O129 2.343 . S
Tb116 O131 2.353 . S
Tb116 O133 2.427 . S
Tb116 O134 2.513 . S
C117 O121 1.214 1_565 S
C117 O123 1.291 . S
Tb118 O120 2.343 . S
Tb118 O123 2.353 . S
Tb118 O126 2.427 . S
Tb118 O127 2.513 . S
Tb118 O128 2.453 . S
Tb118 O129 2.596 1_565 S
Tb118 O130 2.374 . S
O119 Tb116 2.453 . S
O119 C135 1.245 . S
O120 Tb116 2.596 1_565 S
O120 Tb118 2.343 . S
O120 C135 1.259 1_565 S
O121 Tb116 2.374 . S
O121 C117 1.214 1_545 S
C122 O126 1.275 . S
C122 O127 1.246 . S
O123 C117 1.291 . S
O123 Tb118 2.353 . S
C124 O128 1.245 1_545 S
C124 O129 1.259 . S
C125 O130 1.250 1_545 S
C125 O131 1.263 . S
O126 Tb118 2.427 . S
O126 C122 1.275 . S
O127 Tb118 2.513 . S
O127 C122 1.246 . S
O128 Tb118 2.453 . S
O128 C124 1.245 1_565 S
O129 Tb116 2.343 . S
O129 Tb118 2.596 1_545 S
O129 C124 1.259 . S
O130 Tb118 2.374 . S
O130 C125 1.250 1_565 S
O131 Tb116 2.353 . S
O131 C125 1.263 . S
C132 O133 1.275 . S
C132 O134 1.246 . S
O133 Tb116 2.427 . S
O133 C132 1.275 . S
O134 Tb116 2.513 . S
O134 C132 1.246 . S
C135 O119 1.245 . S
C135 O120 1.259 1_545 S
Tb136 O139 2.453 . S
Tb136 O140 2.596 . S
Tb136 O141 2.374 . S
Tb136 O149 2.343 . S
Tb136 O151 2.353 . S
Tb136 O153 2.427 . S
Tb136 O154 2.513 . S
C137 O141 1.251 . S
C137 O143 1.263 . S
Tb138 O140 2.343 . S
Tb138 O143 2.353 . S
Tb138 O146 2.427 . S
Tb138 O147 2.513 . S
Tb138 O148 2.453 . S
Tb138 O149 2.596 . S
Tb138 O150 2.374 . S
O139 Tb136 2.453 . S
O139 C155 1.245 . S
O140 Tb136 2.596 . S
O140 Tb138 2.343 . S
O140 C155 1.259 . S
O141 Tb136 2.374 . S
O141 C137 1.251 . S
C142 O146 1.275 . S
C142 O147 1.246 . S
O143 C137 1.263 . S
O143 Tb138 2.353 . S
C144 O148 1.245 . S
C144 O149 1.259 . S
C145 O150 1.250 . S
C145 O151 1.263 . S
O146 Tb138 2.427 . S
O146 C142 1.275 . S
O147 Tb138 2.513 . S
O147 C142 1.246 . S
O148 Tb138 2.453 . S
O148 C144 1.245 . S
O149 Tb136 2.343 . S
O149 Tb138 2.596 . S
O149 C144 1.259 . S
O150 Tb138 2.374 . S
O150 C145 1.250 . S
O151 Tb136 2.353 . S
O151 C145 1.263 . S
C152 O153 1.275 . S
C152 O154 1.246 . S
O153 Tb136 2.427 . S
O153 C152 1.275 . S
O154 Tb136 2.513 . S
O154 C152 1.246 . S
C155 O139 1.245 . S
C155 O140 1.259 . S
Tb156 O159 2.453 1_655 S
Tb156 O160 2.596 1_655 S
Tb156 O161 2.374 1_655 S
Tb156 O169 2.343 . S
Tb156 O171 2.353 1_655 S
Tb156 O173 2.427 . S
Tb156 O174 2.513 . S
C157 O161 1.251 . S
C157 O163 1.263 . S
Tb158 O160 2.343 . S
Tb158 O163 2.353 . S
Tb158 O166 2.427 . S
Tb158 O167 2.513 . S
Tb158 O168 2.453 1_455 S
Tb158 O169 2.596 1_455 S
Tb158 O170 2.374 . S
O159 Tb156 2.453 1_455 S
O159 C175 1.245 . S
O160 Tb156 2.596 1_455 S
O160 Tb158 2.343 . S
O160 C175 1.259 . S
O161 Tb156 2.374 1_455 S
O161 C157 1.251 . S
C162 O166 1.275 . S
C162 O167 1.246 . S
O163 C157 1.263 . S
O163 Tb158 2.353 . S
C164 O168 1.245 . S
C164 O169 1.259 . S
C165 O170 1.250 . S
C165 O171 1.263 . S
O166 Tb158 2.427 . S
O166 C162 1.275 . S
O167 Tb158 2.513 . S
O167 C162 1.246 . S
O168 Tb158 2.453 1_655 S
O168 C164 1.245 . S
O169 Tb156 2.343 . S
O169 Tb158 2.596 1_655 S
O169 C164 1.259 . S
O170 Tb158 2.374 . S
O170 C165 1.250 . S
O171 Tb156 2.353 1_455 S
O171 C165 1.263 . S
C172 O173 1.275 . S
C172 O174 1.246 . S
O173 Tb156 2.427 . S
O173 C172 1.275 . S
O174 Tb156 2.513 . S
O174 C172 1.246 . S
C175 O159 1.245 . S
C175 O160 1.259 . S
H176 C194 0.951 . S
H177 C196 0.951 . S
H178 C198 0.950 . S
H179 C199 0.950 . S
H180 C201 0.950 . S
H181 C204 0.950 . S
H182 C205 0.950 . S
H183 C207 0.950 . S
H184 C208 0.950 . S
H185 C209 0.951 . S
H186 C211 0.951 . S
H187 C213 0.950 . S
H188 C214 0.950 . S
H189 C216 0.950 . S
H190 C219 0.950 . S
H191 C220 0.950 . S
H192 C222 0.950 . S
H193 C223 0.950 1_545 S
C194 H176 0.951 . S
C194 C195 1.366 . S
C194 C196 1.388 . S
C195 C194 1.366 . S
C195 C199 1.385 . S
C196 H177 0.951 . S
C196 C194 1.388 . S
C196 C197 1.366 . S
C197 C196 1.366 . S
C197 C198 1.414 . S
C197 C200 1.499 . S
C198 H178 0.950 . S
C198 C197 1.414 . S
C198 C199 1.374 . S
C199 H179 0.950 . S
C199 C195 1.385 . S
C199 C198 1.374 . S
C200 C197 1.499 . S
C200 C201 1.373 . S
C200 C202 1.389 . S
C201 H180 0.950 . S
C201 C200 1.373 . S
C201 C217 1.377 . S
C202 C200 1.389 . S
C202 C203 1.524 . S
C202 C216 1.377 . S
C203 C202 1.524 . S
C203 C204 1.397 . S
C203 C208 1.363 . S
C204 H181 0.950 . S
C204 C203 1.397 . S
C204 C205 1.334 . S
C205 H182 0.950 . S
C205 C204 1.334 . S
C205 C206 1.287 . S
C206 C205 1.287 . S
C206 C207 1.524 . S
C206 H225 0.913 . S
C207 H183 0.950 . S
C207 C206 1.524 . S
C207 C208 1.415 . S
C208 H184 0.950 . S
C208 C203 1.363 . S
C208 C207 1.415 . S
C209 H185 0.951 . S
C209 C210 1.366 . S
C209 C211 1.388 . S
C210 C209 1.366 . S
C210 C214 1.385 . S
C211 H186 0.951 . S
C211 C209 1.388 . S
C211 C212 1.366 . S
C212 C211 1.366 . S
C212 C213 1.414 . S
C212 C215 1.499 . S
C213 H187 0.950 . S
C213 C212 1.414 . S
C213 C214 1.374 . S
C214 H188 0.950 . S
C214 C210 1.385 . S
C214 C213 1.374 . S
C215 C212 1.499 . S
C215 C216 1.373 . S
C215 C217 1.389 . S
C216 H189 0.950 . S
C216 C202 1.377 . S
C216 C215 1.373 . S
C217 C201 1.377 . S
C217 C215 1.389 . S
C217 C218 1.524 1_545 S
C218 C217 1.524 1_565 S
C218 C219 1.397 . S
C218 C223 1.363 . S
C219 H190 0.950 . S
C219 C218 1.397 . S
C219 C220 1.334 . S
C220 H191 0.950 . S
C220 C219 1.334 . S
C220 C221 1.287 . S
C221 C220 1.287 . S
C221 C222 1.524 . S
C221 H224 0.999 . S
C222 H192 0.950 . S
C222 C221 1.524 . S
C222 C223 1.415 . S
C223 H193 0.950 1_565 S
C223 C218 1.363 . S
C223 C222 1.415 . S
H224 C221 0.999 . S
H225 C206 0.913 . S
H226 C244 0.951 . S
H227 C246 0.951 . S
H228 C248 0.950 . S
H229 C249 0.950 . S
H230 C251 0.950 . S
H231 C254 0.950 . S
H232 C255 0.950 . S
H233 C257 0.950 . S
H234 C258 0.950 . S
H235 C259 0.951 . S
H236 C261 0.951 . S
H237 C263 0.950 . S
H238 C264 0.950 . S
H239 C266 0.950 . S
H240 C269 0.950 . S
H241 C270 0.950 . S
H242 C272 0.950 . S
H243 C273 0.950 . S
C244 H226 0.951 . S
C244 C245 1.366 . S
C244 C246 1.388 . S
C245 C244 1.366 . S
C245 C249 1.385 . S
C246 H227 0.951 . S
C246 C244 1.388 . S
C246 C247 1.366 . S
C247 C246 1.366 . S
C247 C248 1.414 . S
C247 C250 1.499 . S
C248 H228 0.950 . S
C248 C247 1.414 . S
C248 C249 1.374 . S
C249 H229 0.950 . S
C249 C245 1.385 . S
C249 C248 1.374 . S
C250 C247 1.499 . S
C250 C251 1.373 . S
C250 C252 1.389 . S
C251 H230 0.950 . S
C251 C250 1.373 . S
C251 C267 1.377 . S
C252 C250 1.389 . S
C252 C253 1.524 . S
C252 C266 1.377 . S
C253 C252 1.524 . S
C253 C254 1.397 . S
C253 C258 1.363 . S
C254 H231 0.950 . S
C254 C253 1.397 . S
C254 C255 1.334 . S
C255 H232 0.950 . S
C255 C254 1.334 . S
C255 C256 1.287 . S
C256 C255 1.287 . S
C256 C257 1.524 . S
C256 H275 0.913 . S
C257 H233 0.950 . S
C257 C256 1.524 . S
C257 C258 1.415 . S
C258 H234 0.950 . S
C258 C253 1.363 . S
C258 C257 1.415 . S
C259 H235 0.951 . S
C259 C260 1.366 . S
C259 C261 1.388 . S
C260 C259 1.366 . S
C260 C264 1.385 . S
C261 H236 0.951 . S
C261 C259 1.388 . S
C261 C262 1.366 . S
C262 C261 1.366 . S
C262 C263 1.414 . S
C262 C265 1.499 . S
C263 H237 0.950 . S
C263 C262 1.414 . S
C263 C264 1.374 . S
C264 H238 0.950 . S
C264 C260 1.385 . S
C264 C263 1.374 . S
C265 C262 1.499 . S
C265 C266 1.373 . S
C265 C267 1.389 . S
C266 H239 0.950 . S
C266 C252 1.377 . S
C266 C265 1.373 . S
C267 C251 1.377 . S
C267 C265 1.389 . S
C267 C268 1.524 . S
C268 C267 1.524 . S
C268 C269 1.397 . S
C268 C273 1.363 . S
C269 H240 0.950 . S
C269 C268 1.397 . S
C269 C270 1.334 . S
C270 H241 0.950 . S
C270 C269 1.334 . S
C270 C271 1.287 . S
C271 C270 1.287 . S
C271 C272 1.524 . S
C271 H274 0.999 . S
C272 H242 0.950 . S
C272 C271 1.524 . S
C272 C273 1.415 . S
C273 H243 0.950 . S
C273 C268 1.363 . S
C273 C272 1.415 . S
H274 C271 0.999 . S
H275 C256 0.913 . S
H276 C294 0.951 . S
H277 C296 0.951 . S
H278 C298 0.950 . S
H279 C299 0.950 . S
H280 C301 0.950 . S
H281 C304 0.950 . S
H282 C305 0.950 . S
H283 C307 0.950 . S
H284 C308 0.950 . S
H285 C309 0.951 . S
H286 C311 0.951 . S
H287 C313 0.950 . S
H288 C314 0.950 . S
H289 C316 0.950 . S
H290 C319 0.950 . S
H291 C320 0.950 . S
H292 C322 0.950 . S
H293 C323 0.950 . S
C294 H276 0.951 . S
C294 C295 1.366 . S
C294 C296 1.388 . S
C295 C294 1.366 . S
C295 C299 1.385 . S
C296 H277 0.951 . S
C296 C294 1.388 . S
C296 C297 1.366 . S
C297 C296 1.366 . S
C297 C298 1.414 . S
C297 C300 1.499 . S
C298 H278 0.950 . S
C298 C297 1.414 . S
C298 C299 1.374 . S
C299 H279 0.950 . S
C299 C295 1.385 . S
C299 C298 1.374 . S
C300 C297 1.499 . S
C300 C301 1.373 . S
C300 C302 1.389 . S
C301 H280 0.950 . S
C301 C300 1.373 . S
C301 C317 1.377 . S
C302 C300 1.389 . S
C302 C303 1.524 . S
C302 C316 1.377 . S
C303 C302 1.524 . S
C303 C304 1.397 . S
C303 C308 1.363 . S
C304 H281 0.950 . S
C304 C303 1.397 . S
C304 C305 1.334 . S
C305 H282 0.950 . S
C305 C304 1.334 . S
C305 C306 1.287 . S
C306 C305 1.287 . S
C306 C307 1.524 . S
C306 H325 0.913 . S
C307 H283 0.950 . S
C307 C306 1.524 . S
C307 C308 1.415 . S
C308 H284 0.950 . S
C308 C303 1.363 . S
C308 C307 1.415 . S
C309 H285 0.951 . S
C309 C310 1.366 . S
C309 C311 1.388 . S
C310 C309 1.366 . S
C310 C314 1.385 . S
C311 H286 0.951 . S
C311 C309 1.388 . S
C311 C312 1.366 . S
C312 C311 1.366 . S
C312 C313 1.414 . S
C312 C315 1.499 . S
C313 H287 0.950 . S
C313 C312 1.414 . S
C313 C314 1.374 . S
C314 H288 0.950 . S
C314 C310 1.385 . S
C314 C313 1.374 . S
C315 C312 1.499 . S
C315 C316 1.373 . S
C315 C317 1.389 . S
C316 H289 0.950 . S
C316 C302 1.377 . S
C316 C315 1.373 . S
C317 C301 1.377 . S
C317 C315 1.389 . S
C317 C318 1.524 . S
C318 C317 1.524 . S
C318 C319 1.397 . S
C318 C323 1.363 . S
C319 H290 0.950 . S
C319 C318 1.397 . S
C319 C320 1.334 . S
C320 H291 0.950 . S
C320 C319 1.334 . S
C320 C321 1.287 . S
C321 C320 1.287 . S
C321 C322 1.524 . S
C321 H324 0.999 . S
C322 H292 0.950 . S
C322 C321 1.524 . S
C322 C323 1.415 . S
C323 H293 0.950 . S
C323 C318 1.363 . S
C323 C322 1.415 . S
H324 C321 0.999 . S
H325 C306 0.913 . S
H326 C344 0.951 . S
H327 C346 0.951 . S
H328 C348 0.950 . S
H329 C349 0.950 . S
H330 C351 0.950 . S
H331 C354 0.950 . S
H332 C355 0.950 . S
H333 C357 0.969 . S
H334 C358 0.950 1_655 S
H335 C359 0.951 . S
H336 C361 0.951 . S
H337 C363 0.950 1_655 S
H338 C364 0.991 . S
H339 C366 0.950 . S
H340 C369 0.950 . S
H341 C370 0.950 . S
H342 C372 0.950 . S
H343 C373 0.950 . S
C344 H326 0.951 . S
C344 C345 1.366 . S
C344 C346 1.388 . S
C345 C344 1.366 . S
C345 C349 1.385 . S
C346 H327 0.951 . S
C346 C344 1.388 . S
C346 C347 1.366 . S
C347 C346 1.366 . S
C347 C348 1.414 . S
C347 C350 1.499 . S
C348 H328 0.950 . S
C348 C347 1.414 . S
C348 C349 1.374 . S
C349 H329 0.950 . S
C349 C345 1.385 . S
C349 C348 1.374 . S
C350 C347 1.499 . S
C350 C351 1.373 . S
C350 C352 1.389 . S
C351 H330 0.950 . S
C351 C350 1.373 . S
C351 C367 1.377 . S
C352 C350 1.389 . S
C352 C353 1.524 . S
C352 C366 1.377 . S
C353 C352 1.524 . S
C353 C354 1.397 . S
C353 C358 1.363 . S
C354 H331 0.950 . S
C354 C353 1.397 . S
C354 C355 1.334 . S
C355 H332 0.950 . S
C355 C354 1.334 . S
C355 C356 1.287 . S
C356 C355 1.287 . S
C356 C357 1.507 1_455 S
C356 H375 0.913 . S
C357 H333 0.969 . S
C357 C356 1.507 1_655 S
C357 C358 1.410 1_655 S
C358 H334 0.950 1_455 S
C358 C353 1.363 . S
C358 C357 1.410 1_455 S
C359 H335 0.951 . S
C359 C360 1.366 . S
C359 C361 1.388 . S
C360 C359 1.366 . S
C360 C364 1.355 1_455 S
C361 H336 0.951 . S
C361 C359 1.388 . S
C361 C362 1.366 . S
C362 C361 1.366 . S
C362 C363 1.414 . S
C362 C365 1.499 . S
C363 H337 0.950 1_455 S
C363 C362 1.414 . S
C363 C364 1.363 1_455 S
C364 H338 0.991 . S
C364 C360 1.355 1_655 S
C364 C363 1.363 1_655 S
C365 C362 1.499 . S
C365 C366 1.373 . S
C365 C367 1.389 . S
C366 H339 0.950 . S
C366 C352 1.377 . S
C366 C365 1.373 . S
C367 C351 1.377 . S
C367 C365 1.389 . S
C367 C368 1.524 . S
C368 C367 1.524 . S
C368 C369 1.397 . S
C368 C373 1.363 . S
C369 H340 0.950 . S
C369 C368 1.397 . S
C369 C370 1.334 . S
C370 H341 0.950 . S
C370 C369 1.334 . S
C370 C371 1.287 . S
C371 C370 1.287 . S
C371 C372 1.524 . S
C371 H374 0.999 . S
C372 H342 0.950 . S
C372 C371 1.524 . S
C372 C373 1.415 . S
C373 H343 0.950 . S
C373 C368 1.363 . S
C373 C372 1.415 . S
H374 C371 0.999 . S
H375 C356 0.913 . S
H376 C394 0.951 . S
H377 C396 0.951 . S
H378 C398 0.950 . S
H379 C399 0.950 . S
H380 C401 0.942 1_545 S
H381 C404 0.950 . S
H382 C405 0.950 . S
H383 C407 0.950 . S
H384 C408 0.950 . S
H385 C409 0.945 1_545 S
H386 C411 0.951 . S
H387 C413 0.950 . S
H388 C414 0.950 . S
H389 C416 0.950 . S
H390 C419 0.950 . S
H391 C420 0.950 . S
H392 C422 0.950 . S
H393 C423 0.950 1_554 S
C394 H376 0.951 . S
C394 C395 1.366 . S
C394 C396 1.388 . S
C395 C394 1.366 . S
C395 C399 1.385 1_556 S
C396 H377 0.951 . S
C396 C394 1.388 . S
C396 C397 1.366 . S
C397 C396 1.366 . S
C397 C398 1.414 1_556 S
C397 C400 1.499 . S
C398 H378 0.950 . S
C398 C397 1.414 1_554 S
C398 C399 1.374 . S
C399 H379 0.950 . S
C399 C395 1.385 1_554 S
C399 C398 1.374 . S
C400 C397 1.499 . S
C400 C401 1.373 . S
C400 C402 1.389 . S
C401 H380 0.942 1_565 S
C401 C400 1.373 . S
C401 C417 1.377 . S
C402 C400 1.389 . S
C402 C403 1.524 . S
C402 C416 1.377 . S
C403 C402 1.524 . S
C403 C404 1.397 . S
C403 C408 1.363 . S
C404 H381 0.950 . S
C404 C403 1.397 . S
C404 C405 1.334 . S
C405 H382 0.950 . S
C405 C404 1.334 . S
C405 C406 1.287 . S
C406 C405 1.287 . S
C406 C407 1.524 . S
C406 H425 0.913 . S
C407 H383 0.950 . S
C407 C406 1.524 . S
C407 C408 1.415 . S
C408 H384 0.950 . S
C408 C403 1.363 . S
C408 C407 1.415 . S
C409 H385 0.945 1_565 S
C409 C410 1.366 . S
C409 C411 1.388 . S
C410 C409 1.366 . S
C410 C414 1.385 . S
C411 H386 0.951 . S
C411 C409 1.388 . S
C411 C412 1.366 . S
C412 C411 1.366 . S
C412 C413 1.414 . S
C412 C415 1.499 . S
C413 H387 0.950 . S
C413 C412 1.414 . S
C413 C414 1.374 . S
C414 H388 0.950 . S
C414 C410 1.385 . S
C414 C413 1.374 . S
C415 C412 1.499 . S
C415 C416 1.373 . S
C415 C417 1.389 . S
C416 H389 0.950 . S
C416 C402 1.377 . S
C416 C415 1.373 . S
C417 C401 1.377 . S
C417 C415 1.389 . S
C417 C418 1.524 1_565 S
C418 C417 1.524 1_545 S
C418 C419 1.397 . S
C418 C423 1.363 . S
C419 H390 0.950 . S
C419 C418 1.397 . S
C419 C420 1.334 . S
C420 H391 0.950 . S
C420 C419 1.334 . S
C420 C421 1.287 . S
C421 C420 1.287 . S
C421 C422 1.524 1_556 S
C421 H424 0.999 . S
C422 H392 0.950 . S
C422 C421 1.524 1_554 S
C422 C423 1.415 1_554 S
C423 H393 0.950 1_556 S
C423 C418 1.363 . S
C423 C422 1.415 1_556 S
H424 C421 0.999 . S
H425 C406 0.913 . S
H426 C444 0.951 . S
H427 C446 0.951 . S
H428 C448 0.950 . S
H429 C449 0.950 . S
H430 C451 0.950 . S
H431 C454 0.950 . S
H432 C455 0.950 . S
H433 C457 0.950 . S
H434 C458 0.950 . S
H435 C459 0.951 . S
H436 C461 0.951 . S
H437 C463 0.950 . S
H438 C464 0.950 . S
H439 C466 0.950 . S
H440 C469 0.950 . S
H441 C470 0.950 . S
H442 C472 0.950 . S
H443 C473 0.950 . S
C444 H426 0.951 . S
C444 C445 1.366 . S
C444 C446 1.388 . S
C445 C444 1.366 . S
C445 C449 1.385 1_554 S
C446 H427 0.951 . S
C446 C444 1.388 . S
C446 C447 1.366 1_554 S
C447 C446 1.366 1_556 S
C447 C448 1.414 . S
C447 C450 1.499 . S
C448 H428 0.950 . S
C448 C447 1.414 . S
C448 C449 1.374 . S
C449 H429 0.950 . S
C449 C445 1.385 1_556 S
C449 C448 1.374 . S
C450 C447 1.499 . S
C450 C451 1.373 . S
C450 C452 1.389 . S
C451 H430 0.950 . S
C451 C450 1.373 . S
C451 C467 1.377 . S
C452 C450 1.389 . S
C452 C453 1.524 1_556 S
C452 C466 1.377 . S
C453 C452 1.524 1_554 S
C453 C454 1.397 . S
C453 C458 1.363 . S
C454 H431 0.950 . S
C454 C453 1.397 . S
C454 C455 1.334 . S
C455 H432 0.950 . S
C455 C454 1.334 . S
C455 C456 1.287 . S
C456 C455 1.287 . S
C456 C457 1.524 . S
C456 H475 0.913 . S
C457 H433 0.950 . S
C457 C456 1.524 . S
C457 C458 1.415 . S
C458 H434 0.950 . S
C458 C453 1.363 . S
C458 C457 1.415 . S
C459 H435 0.951 . S
C459 C460 1.366 . S
C459 C461 1.388 . S
C460 C459 1.366 . S
C460 C464 1.385 . S
C461 H436 0.951 . S
C461 C459 1.388 . S
C461 C462 1.366 . S
C462 C461 1.366 . S
C462 C463 1.414 . S
C462 C465 1.499 . S
C463 H437 0.950 . S
C463 C462 1.414 . S
C463 C464 1.374 . S
C464 H438 0.950 . S
C464 C460 1.385 . S
C464 C463 1.374 . S
C465 C462 1.499 . S
C465 C466 1.373 . S
C465 C467 1.389 . S
C466 H439 0.950 . S
C466 C452 1.377 . S
C466 C465 1.373 . S
C467 C451 1.377 . S
C467 C465 1.389 . S
C467 C468 1.524 . S
C468 C467 1.524 . S
C468 C469 1.397 . S
C468 C473 1.363 . S
C469 H440 0.950 . S
C469 C468 1.397 . S
C469 C470 1.334 . S
C470 H441 0.950 . S
C470 C469 1.334 . S
C470 C471 1.287 . S
C471 C470 1.287 . S
C471 C472 1.524 . S
C471 H474 0.999 . S
C472 H442 0.950 . S
C472 C471 1.524 . S
C472 C473 1.415 . S
C473 H443 0.950 . S
C473 C468 1.363 . S
C473 C472 1.415 . S
H474 C471 0.999 . S
H475 C456 0.913 . S
H476 C494 0.951 . S
H477 C496 0.951 . S
H478 C498 0.950 . S
H479 C499 0.950 . S
H480 C501 0.950 . S
H481 C504 0.950 . S
H482 C505 0.950 . S
H483 C507 0.950 . S
H484 C508 0.950 . S
H485 C509 0.951 . S
H486 C511 0.951 . S
H487 C513 0.950 . S
H488 C514 0.950 . S
H489 C516 0.950 . S
H490 C519 0.950 . S
H491 C520 0.950 . S
H492 C522 0.950 . S
H493 C523 0.950 . S
C494 H476 0.951 . S
C494 C495 1.366 . S
C494 C496 1.388 . S
C495 C494 1.366 . S
C495 C499 1.385 1_554 S
C496 H477 0.951 . S
C496 C494 1.388 . S
C496 C497 1.366 1_554 S
C497 C496 1.366 1_556 S
C497 C498 1.414 . S
C497 C500 1.499 . S
C498 H478 0.950 . S
C498 C497 1.414 . S
C498 C499 1.374 . S
C499 H479 0.950 . S
C499 C495 1.385 1_556 S
C499 C498 1.374 . S
C500 C497 1.499 . S
C500 C501 1.373 . S
C500 C502 1.389 . S
C501 H480 0.950 . S
C501 C500 1.373 . S
C501 C517 1.377 . S
C502 C500 1.389 . S
C502 C503 1.524 . S
C502 C516 1.377 . S
C503 C502 1.524 . S
C503 C504 1.397 . S
C503 C508 1.363 1_556 S
C504 H481 0.950 . S
C504 C503 1.397 . S
C504 C505 1.334 1_556 S
C505 H482 0.950 . S
C505 C504 1.334 1_554 S
C505 C506 1.287 . S
C506 C505 1.287 . S
C506 C507 1.524 . S
C506 H525 0.913 . S
C507 H483 0.950 . S
C507 C506 1.524 . S
C507 C508 1.415 . S
C508 H484 0.950 . S
C508 C503 1.363 1_554 S
C508 C507 1.415 . S
C509 H485 0.951 . S
C509 C510 1.366 . S
C509 C511 1.388 . S
C510 C509 1.366 . S
C510 C514 1.385 . S
C511 H486 0.951 . S
C511 C509 1.388 . S
C511 C512 1.366 . S
C512 C511 1.366 . S
C512 C513 1.414 . S
C512 C515 1.499 . S
C513 H487 0.950 . S
C513 C512 1.414 . S
C513 C514 1.374 . S
C514 H488 0.950 . S
C514 C510 1.385 . S
C514 C513 1.374 . S
C515 C512 1.499 . S
C515 C516 1.373 . S
C515 C517 1.389 . S
C516 H489 0.950 . S
C516 C502 1.377 . S
C516 C515 1.373 . S
C517 C501 1.377 . S
C517 C515 1.389 . S
C517 C518 1.524 . S
C518 C517 1.524 . S
C518 C519 1.397 . S
C518 C523 1.363 . S
C519 H490 0.950 . S
C519 C518 1.397 . S
C519 C520 1.334 . S
C520 H491 0.950 . S
C520 C519 1.334 . S
C520 C521 1.287 . S
C521 C520 1.287 . S
C521 C522 1.524 . S
C521 H524 0.999 . S
C522 H492 0.950 . S
C522 C521 1.524 . S
C522 C523 1.415 . S
C523 H493 0.950 . S
C523 C518 1.363 . S
C523 C522 1.415 . S
H524 C521 0.999 . S
H525 C506 0.913 . S
H526 C544 0.951 . S
H527 C546 0.951 . S
H528 C548 0.950 . S
H529 C549 0.950 . S
H530 C551 0.950 . S
H531 C554 0.950 . S
H532 C555 0.950 . S
H533 C557 0.950 . S
H534 C558 0.950 1_556 S
H535 C559 0.951 . S
H536 C561 0.951 . S
H537 C563 0.950 . S
H538 C564 0.950 . S
H539 C566 0.950 . S
H540 C569 0.950 . S
H541 C570 0.950 . S
H542 C572 0.950 . S
H543 C573 0.950 . S
C544 H526 0.951 . S
C544 C545 1.366 . S
C544 C546 1.388 . S
C545 C544 1.366 . S
C545 C549 1.385 . S
C546 H527 0.951 . S
C546 C544 1.388 . S
C546 C547 1.366 . S
C547 C546 1.366 . S
C547 C548 1.414 . S
C547 C550 1.499 . S
C548 H528 0.950 . S
C548 C547 1.414 . S
C548 C549 1.374 . S
C549 H529 0.950 . S
C549 C545 1.385 . S
C549 C548 1.374 . S
C550 C547 1.499 . S
C550 C551 1.373 . S
C550 C552 1.389 . S
C551 H530 0.950 . S
C551 C550 1.373 . S
C551 C567 1.377 . S
C552 C550 1.389 . S
C552 C553 1.524 . S
C552 C566 1.377 . S
C553 C552 1.524 . S
C553 C554 1.397 1_556 S
C553 C558 1.363 1_556 S
C554 H531 0.950 . S
C554 C553 1.397 1_554 S
C554 C555 1.334 . S
C555 H532 0.950 . S
C555 C554 1.334 . S
C555 C556 1.287 . S
C556 C555 1.287 . S
C556 C557 1.524 . S
C556 H575 0.913 . S
C557 H533 0.950 . S
C557 C556 1.524 . S
C557 C558 1.415 . S
C558 H534 0.950 1_554 S
C558 C553 1.363 1_554 S
C558 C557 1.415 . S
C559 H535 0.951 . S
C559 C560 1.366 1_455 S
C559 C561 1.388 . S
C560 C559 1.366 1_655 S
C560 C564 1.385 . S
C561 H536 0.951 . S
C561 C559 1.388 . S
C561 C562 1.366 1_455 S
C562 C561 1.366 1_655 S
C562 C563 1.414 . S
C562 C565 1.499 . S
C563 H537 0.950 . S
C563 C562 1.414 . S
C563 C564 1.374 . S
C564 H538 0.950 . S
C564 C560 1.385 . S
C564 C563 1.374 . S
C565 C562 1.499 . S
C565 C566 1.373 . S
C565 C567 1.389 . S
C566 H539 0.950 . S
C566 C552 1.377 . S
C566 C565 1.373 . S
C567 C551 1.377 . S
C567 C565 1.389 . S
C567 C568 1.524 . S
C568 C567 1.524 . S
C568 C569 1.397 . S
C568 C573 1.363 1_655 S
C569 H540 0.950 . S
C569 C568 1.397 . S
C569 C570 1.334 . S
C570 H541 0.950 . S
C570 C569 1.334 . S
C570 C571 1.287 . S
C571 C570 1.287 . S
C571 C572 1.524 1_655 S
C571 H574 0.999 . S
C572 H542 0.950 . S
C572 C571 1.524 1_455 S
C572 C573 1.415 . S
C573 H543 0.950 . S
C573 C568 1.363 1_455 S
C573 C572 1.415 . S
H574 C571 0.999 . S
H575 C556 0.913 . S
H576 C594 0.951 . S
H577 C596 0.951 . S
H578 C598 0.950 . S
H579 C599 0.950 . S
H580 C601 0.950 . S
H581 C604 0.909 1_455 S
H582 C605 0.950 . S
H583 C607 0.950 . S
H584 C608 0.950 . S
H585 C609 0.951 . S
H586 C611 0.951 . S
H587 C613 0.950 . S
H588 C614 0.950 1_655 S
H589 C616 0.932 1_655 S
H590 C619 0.950 . S
H591 C620 0.950 . S
H592 C622 0.950 . S
H593 C623 0.950 . S
C594 H576 0.951 . S
C594 C595 1.366 . S
C594 C596 1.388 . S
C595 C594 1.366 . S
C595 C599 1.385 . S
C596 H577 0.951 . S
C596 C594 1.388 . S
C596 C597 1.366 . S
C597 C596 1.366 . S
C597 C598 1.414 . S
C597 C600 1.499 . S
C598 H578 0.950 . S
C598 C597 1.414 . S
C598 C599 1.374 . S
C599 H579 0.950 . S
C599 C595 1.385 . S
C599 C598 1.374 . S
C600 C597 1.499 . S
C600 C601 1.373 . S
C600 C602 1.389 . S
C601 H580 0.950 . S
C601 C600 1.373 . S
C601 C617 1.377 . S
C602 C600 1.389 . S
C602 C603 1.513 1_455 S
C602 C616 1.377 . S
C603 C602 1.513 1_655 S
C603 C604 1.395 . S
C603 C608 1.374 . S
C604 H581 0.909 1_655 S
C604 C603 1.395 . S
C604 C605 1.378 . S
C605 H582 0.950 . S
C605 C604 1.378 . S
C605 C606 1.287 . S
C606 C605 1.287 . S
C606 C607 1.524 . S
C606 H625 0.913 . S
C607 H583 0.950 . S
C607 C606 1.524 . S
C607 C608 1.415 . S
C608 H584 0.950 . S
C608 C603 1.374 . S
C608 C607 1.415 . S
C609 H585 0.951 . S
C609 C610 1.366 . S
C609 C611 1.388 . S
C610 C609 1.366 . S
C610 C614 1.385 . S
C611 H586 0.951 . S
C611 C609 1.388 . S
C611 C612 1.366 . S
C612 C611 1.366 . S
C612 C613 1.414 . S
C612 C615 1.499 . S
C613 H587 0.950 . S
C613 C612 1.414 . S
C613 C614 1.374 . S
C614 H588 0.950 1_455 S
C614 C610 1.385 . S
C614 C613 1.374 . S
C615 C612 1.499 . S
C615 C616 1.373 . S
C615 C617 1.389 . S
C616 H589 0.932 1_455 S
C616 C602 1.377 . S
C616 C615 1.373 . S
C617 C601 1.377 . S
C617 C615 1.389 . S
C617 C618 1.524 . S
C618 C617 1.524 . S
C618 C619 1.397 . S
C618 C623 1.363 . S
C619 H590 0.950 . S
C619 C618 1.397 . S
C619 C620 1.334 . S
C620 H591 0.950 . S
C620 C619 1.334 . S
C620 C621 1.287 . S
C621 C620 1.287 . S
C621 C622 1.524 . S
C621 H624 0.999 . S
C622 H592 0.950 . S
C622 C621 1.524 . S
C622 C623 1.415 . S
C623 H593 0.950 . S
C623 C618 1.363 . S
C623 C622 1.415 . S
H624 C621 0.999 . S
H625 C606 0.913 . S
H626 C644 0.951 . S
H627 C646 0.951 . S
H628 C648 0.950 . S
H629 C649 0.950 . S
H630 C651 0.950 . S
H631 C654 0.951 . S
H632 C655 0.950 . S
H633 C657 0.950 . S
H634 C658 0.950 . S
H635 C659 0.951 . S
H636 C661 0.951 . S
H637 C663 0.950 . S
H638 C664 0.950 . S
H639 C666 0.950 . S
H640 C669 0.950 . S
H641 C670 0.950 . S
H642 C672 0.950 . S
H643 C673 0.950 . S
C644 H626 0.951 . S
C644 C645 1.366 . S
C644 C646 1.388 . S
C645 C644 1.366 . S
C645 C649 1.385 . S
C646 H627 0.951 . S
C646 C644 1.388 . S
C646 C647 1.366 . S
C647 C646 1.366 . S
C647 C648 1.414 . S
C647 C650 1.499 . S
C648 H628 0.950 . S
C648 C647 1.414 . S
C648 C649 1.374 . S
C649 H629 0.950 . S
C649 C645 1.385 . S
C649 C648 1.374 . S
C650 C647 1.499 . S
C650 C651 1.373 . S
C650 C652 1.389 . S
C651 H630 0.950 . S
C651 C650 1.373 . S
C651 C667 1.377 . S
C652 C650 1.389 . S
C652 C653 1.524 . S
C652 C666 1.377 . S
C653 C652 1.524 . S
C653 C654 1.397 . S
C653 C658 1.363 . S
C654 H631 0.951 . S
C654 C653 1.397 . S
C654 C655 1.334 1_545 S
C655 H632 0.950 . S
C655 C654 1.334 1_565 S
C655 C656 1.287 . S
C656 C655 1.287 . S
C656 C657 1.524 1_565 S
C656 H675 0.913 . S
C657 H633 0.950 . S
C657 C656 1.524 1_545 S
C657 C658 1.415 . S
C658 H634 0.950 . S
C658 C653 1.363 . S
C658 C657 1.415 . S
C659 H635 0.951 . S
C659 C660 1.366 . S
C659 C661 1.388 . S
C660 C659 1.366 . S
C660 C664 1.385 . S
C661 H636 0.951 . S
C661 C659 1.388 . S
C661 C662 1.366 . S
C662 C661 1.366 . S
C662 C663 1.414 . S
C662 C665 1.499 . S
C663 H637 0.950 . S
C663 C662 1.414 . S
C663 C664 1.374 . S
C664 H638 0.950 . S
C664 C660 1.385 . S
C664 C663 1.374 . S
C665 C662 1.499 . S
C665 C666 1.373 . S
C665 C667 1.389 . S
C666 H639 0.950 . S
C666 C652 1.377 . S
C666 C665 1.373 . S
C667 C651 1.377 . S
C667 C665 1.389 . S
C667 C668 1.524 . S
C668 C667 1.524 . S
C668 C669 1.397 . S
C668 C673 1.363 . S
C669 H640 0.950 . S
C669 C668 1.397 . S
C669 C670 1.334 . S
C670 H641 0.950 . S
C670 C669 1.334 . S
C670 C671 1.287 . S
C671 C670 1.287 . S
C671 C672 1.524 . S
C671 H674 0.999 . S
C672 H642 0.950 . S
C672 C671 1.524 . S
C672 C673 1.415 . S
C673 H643 0.950 . S
C673 C668 1.363 . S
C673 C672 1.415 . S
H674 C671 0.999 . S
H675 C656 0.913 . S
H676 C694 0.951 . S
H677 C696 0.951 . S
H678 C698 0.950 . S
H679 C699 0.950 . S
H680 C701 0.950 . S
H681 C704 0.950 . S
H682 C705 0.950 . S
H683 C707 0.950 . S
H684 C708 0.950 . S
H685 C709 0.951 . S
H686 C711 0.951 . S
H687 C713 0.950 . S
H688 C714 0.950 . S
H689 C716 0.950 . S
H690 C719 0.950 . S
H691 C720 0.950 . S
H692 C722 0.950 . S
H693 C723 0.950 . S
C694 H676 0.951 . S
C694 C695 1.366 . S
C694 C696 1.388 . S
C695 C694 1.366 . S
C695 C699 1.385 . S
C696 H677 0.951 . S
C696 C694 1.388 . S
C696 C697 1.366 . S
C697 C696 1.366 . S
C697 C698 1.414 . S
C697 C700 1.499 . S
C698 H678 0.950 . S
C698 C697 1.414 . S
C698 C699 1.374 . S
C699 H679 0.950 . S
C699 C695 1.385 . S
C699 C698 1.374 . S
C700 C697 1.499 . S
C700 C701 1.373 . S
C700 C702 1.389 . S
C701 H680 0.950 . S
C701 C700 1.373 . S
C701 C717 1.377 . S
C702 C700 1.389 . S
C702 C703 1.524 . S
C702 C716 1.377 . S
C703 C702 1.524 . S
C703 C704 1.397 . S
C703 C708 1.363 . S
C704 H681 0.950 . S
C704 C703 1.397 . S
C704 C705 1.334 . S
C705 H682 0.950 . S
C705 C704 1.334 . S
C705 C706 1.287 . S
C706 C705 1.287 . S
C706 C707 1.524 . S
C706 H725 0.913 . S
C707 H683 0.950 . S
C707 C706 1.524 . S
C707 C708 1.415 . S
C708 H684 0.950 . S
C708 C703 1.363 . S
C708 C707 1.415 . S
C709 H685 0.951 . S
C709 C710 1.366 . S
C709 C711 1.388 . S
C710 C709 1.366 . S
C710 C714 1.385 . S
C711 H686 0.951 . S
C711 C709 1.388 . S
C711 C712 1.366 . S
C712 C711 1.366 . S
C712 C713 1.414 . S
C712 C715 1.499 . S
C713 H687 0.950 . S
C713 C712 1.414 . S
C713 C714 1.374 . S
C714 H688 0.950 . S
C714 C710 1.385 . S
C714 C713 1.374 . S
C715 C712 1.499 . S
C715 C716 1.373 . S
C715 C717 1.389 . S
C716 H689 0.950 . S
C716 C702 1.377 . S
C716 C715 1.373 . S
C717 C701 1.377 . S
C717 C715 1.389 . S
C717 C718 1.524 . S
C718 C717 1.524 . S
C718 C719 1.397 . S
C718 C723 1.363 . S
C719 H690 0.950 . S
C719 C718 1.397 . S
C719 C720 1.334 . S
C720 H691 0.950 . S
C720 C719 1.334 . S
C720 C721 1.287 . S
C721 C720 1.287 . S
C721 C722 1.524 . S
C721 H724 0.999 . S
C722 H692 0.950 . S
C722 C721 1.524 . S
C722 C723 1.415 . S
C723 H693 0.950 . S
C723 C718 1.363 . S
C723 C722 1.415 . S
H724 C721 0.999 . S
H725 C706 0.913 . S
H726 C744 0.951 . S
H727 C746 0.951 . S
H728 C748 0.950 . S
H729 C749 0.950 . S
H730 C751 0.950 . S
H731 C754 0.950 . S
H732 C755 0.950 . S
H733 C757 0.950 . S
H734 C758 0.950 . S
H735 C759 0.951 . S
H736 C761 0.951 . S
H737 C763 0.950 . S
H738 C764 0.950 . S
H739 C766 0.950 . S
H740 C769 0.950 . S
H741 C770 0.950 . S
H742 C772 0.950 . S
H743 C773 0.950 . S
C744 H726 0.951 . S
C744 C745 1.366 . S
C744 C746 1.388 . S
C745 C744 1.366 . S
C745 C749 1.385 . S
C746 H727 0.951 . S
C746 C744 1.388 . S
C746 C747 1.366 . S
C747 C746 1.366 . S
C747 C748 1.414 . S
C747 C750 1.499 . S
C748 H728 0.950 . S
C748 C747 1.414 . S
C748 C749 1.374 . S
C749 H729 0.950 . S
C749 C745 1.385 . S
C749 C748 1.374 . S
C750 C747 1.499 . S
C750 C751 1.373 . S
C750 C752 1.389 . S
C751 H730 0.950 . S
C751 C750 1.373 . S
C751 C767 1.377 . S
C752 C750 1.389 . S
C752 C753 1.524 . S
C752 C766 1.377 . S
C753 C752 1.524 . S
C753 C754 1.397 . S
C753 C758 1.363 . S
C754 H731 0.950 . S
C754 C753 1.397 . S
C754 C755 1.334 . S
C755 H732 0.950 . S
C755 C754 1.334 . S
C755 C756 1.287 . S
C756 C755 1.287 . S
C756 C757 1.524 . S
C756 H775 0.913 . S
C757 H733 0.950 . S
C757 C756 1.524 . S
C757 C758 1.415 . S
C758 H734 0.950 . S
C758 C753 1.363 . S
C758 C757 1.415 . S
C759 H735 0.951 . S
C759 C760 1.366 . S
C759 C761 1.388 . S
C760 C759 1.366 . S
C760 C764 1.385 . S
C761 H736 0.951 . S
C761 C759 1.388 . S
C761 C762 1.366 . S
C762 C761 1.366 . S
C762 C763 1.414 . S
C762 C765 1.499 . S
C763 H737 0.950 . S
C763 C762 1.414 . S
C763 C764 1.374 . S
C764 H738 0.950 . S
C764 C760 1.385 . S
C764 C763 1.374 . S
C765 C762 1.499 . S
C765 C766 1.373 . S
C765 C767 1.389 . S
C766 H739 0.950 . S
C766 C752 1.377 . S
C766 C765 1.373 . S
C767 C751 1.377 . S
C767 C765 1.389 . S
C767 C768 1.524 . S
C768 C767 1.524 . S
C768 C769 1.397 . S
C768 C773 1.363 . S
C769 H740 0.950 . S
C769 C768 1.397 . S
C769 C770 1.334 . S
C770 H741 0.950 . S
C770 C769 1.334 . S
C770 C771 1.287 . S
C771 C770 1.287 . S
C771 C772 1.524 . S
C771 H774 0.999 . S
C772 H742 0.950 . S
C772 C771 1.524 . S
C772 C773 1.415 . S
C773 H743 0.950 . S
C773 C768 1.363 . S
C773 C772 1.415 . S
H774 C771 0.999 . S
H775 C756 0.913 . S
H776 C794 0.951 . S
H777 C796 0.951 . S
H778 C798 0.950 . S
H779 C799 0.950 . S
H780 C801 0.950 . S
H781 C804 0.945 1_654 S
H782 C805 0.950 . S
H783 C807 0.950 . S
H784 C808 0.950 . S
H785 C809 0.951 . S
H786 C811 0.951 . S
H787 C813 0.950 . S
H788 C814 0.950 . S
H789 C816 0.950 1_455 S
H790 C819 0.950 . S
H791 C820 0.950 . S
H792 C822 0.950 . S
H793 C823 0.950 . S
C794 H776 0.951 . S
C794 C795 1.366 . S
C794 C796 1.388 . S
C795 C794 1.366 . S
C795 C799 1.385 . S
C796 H777 0.951 . S
C796 C794 1.388 . S
C796 C797 1.366 . S
C797 C796 1.366 . S
C797 C798 1.414 . S
C797 C800 1.499 . S
C798 H778 0.950 . S
C798 C797 1.414 . S
C798 C799 1.374 . S
C799 H779 0.950 . S
C799 C795 1.385 . S
C799 C798 1.374 . S
C800 C797 1.499 . S
C800 C801 1.373 . S
C800 C802 1.389 . S
C801 H780 0.950 . S
C801 C800 1.373 . S
C801 C817 1.377 . S
C802 C800 1.389 . S
C802 C803 1.524 1_655 S
C802 C816 1.377 . S
C803 C802 1.524 1_455 S
C803 C804 1.397 . S
C803 C808 1.363 . S
C804 H781 0.945 1_456 S
C804 C803 1.397 . S
C804 C805 1.334 1_556 S
C805 H782 0.950 . S
C805 C804 1.334 1_554 S
C805 C806 1.287 . S
C806 C805 1.287 . S
C806 C807 1.524 1_554 S
C806 H825 0.913 . S
C807 H783 0.950 . S
C807 C806 1.524 1_556 S
C807 C808 1.415 . S
C808 H784 0.950 . S
C808 C803 1.363 . S
C808 C807 1.415 . S
C809 H785 0.951 . S
C809 C810 1.366 . S
C809 C811 1.388 . S
C810 C809 1.366 . S
C810 C814 1.385 1_655 S
C811 H786 0.951 . S
C811 C809 1.388 . S
C811 C812 1.366 . S
C812 C811 1.366 . S
C812 C813 1.414 1_655 S
C812 C815 1.499 . S
C813 H787 0.950 . S
C813 C812 1.414 1_455 S
C813 C814 1.374 . S
C814 H788 0.950 . S
C814 C810 1.385 1_455 S
C814 C813 1.374 . S
C815 C812 1.499 . S
C815 C816 1.373 . S
C815 C817 1.389 . S
C816 H789 0.950 1_655 S
C816 C802 1.377 . S
C816 C815 1.373 . S
C817 C801 1.377 . S
C817 C815 1.389 . S
C817 C818 1.524 . S
C818 C817 1.524 . S
C818 C819 1.397 . S
C818 C823 1.363 . S
C819 H790 0.950 . S
C819 C818 1.397 . S
C819 C820 1.334 . S
C820 H791 0.950 . S
C820 C819 1.334 . S
C820 C821 1.287 . S
C821 C820 1.287 . S
C821 C822 1.524 . S
C821 H824 0.999 . S
C822 H792 0.950 . S
C822 C821 1.524 . S
C822 C823 1.415 . S
C823 H793 0.950 . S
C823 C818 1.363 . S
C823 C822 1.415 . S
H824 C821 0.999 . S
H825 C806 0.913 . S
H826 C844 0.951 . S
H827 C846 0.951 . S
H828 C848 0.941 1_554 S
H829 C849 0.950 . S
H830 C851 0.950 . S
H831 C854 0.950 . S
H832 C855 0.950 . S
H833 C857 0.950 1_565 S
H834 C858 0.950 . S
H835 C859 0.951 . S
H836 C861 0.945 1_545 S
H837 C863 0.950 . S
H838 C864 0.950 . S
H839 C866 0.950 . S
H840 C869 0.950 . S
H841 C870 0.950 . S
H842 C872 0.950 . S
H843 C873 0.950 . S
C844 H826 0.951 . S
C844 C845 1.366 . S
C844 C846 1.388 . S
C845 C844 1.366 . S
C845 C849 1.385 1_556 S
C846 H827 0.951 . S
C846 C844 1.388 . S
C846 C847 1.366 . S
C847 C846 1.366 . S
C847 C848 1.431 . S
C847 C850 1.499 . S
C848 H828 0.941 1_556 S
C848 C847 1.431 . S
C848 C849 1.366 1_556 S
C849 H829 0.950 . S
C849 C845 1.385 1_554 S
C849 C848 1.366 1_554 S
C850 C847 1.499 . S
C850 C851 1.373 . S
C850 C852 1.389 . S
C851 H830 0.950 . S
C851 C850 1.373 . S
C851 C867 1.377 . S
C852 C850 1.389 . S
C852 C853 1.524 . S
C852 C866 1.377 . S
C853 C852 1.524 . S
C853 C854 1.397 1_565 S
C853 C858 1.363 . S
C854 H831 0.950 . S
C854 C853 1.397 1_545 S
C854 C855 1.334 . S
C855 H832 0.950 . S
C855 C854 1.334 . S
C855 C856 1.287 . S
C856 C855 1.287 . S
C856 C857 1.522 . S
C856 H875 0.913 . S
C857 H833 0.950 1_545 S
C857 C856 1.522 . S
C857 C858 1.416 1_545 S
C858 H834 0.950 . S
C858 C853 1.363 . S
C858 C857 1.416 1_565 S
C859 H835 0.951 . S
C859 C860 1.366 1_545 S
C859 C861 1.388 1_545 S
C860 C859 1.366 1_565 S
C860 C864 1.385 . S
C861 H836 0.945 1_565 S
C861 C859 1.388 1_565 S
C861 C862 1.366 . S
C862 C861 1.366 . S
C862 C863 1.414 . S
C862 C865 1.499 . S
C863 H837 0.950 . S
C863 C862 1.414 . S
C863 C864 1.374 . S
C864 H838 0.950 . S
C864 C860 1.385 . S
C864 C863 1.374 . S
C865 C862 1.499 . S
C865 C866 1.373 . S
C865 C867 1.389 . S
C866 H839 0.950 . S
C866 C852 1.377 . S
C866 C865 1.373 . S
C867 C851 1.377 . S
C867 C865 1.389 . S
C867 C868 1.524 . S
C868 C867 1.524 . S
C868 C869 1.397 . S
C868 C873 1.363 1_556 S
C869 H840 0.950 . S
C869 C868 1.397 . S
C869 C870 1.334 . S
C870 H841 0.950 . S
C870 C869 1.334 . S
C870 C871 1.287 . S
C871 C870 1.287 . S
C871 C872 1.524 1_556 S
C871 H874 0.999 1_556 S
C872 H842 0.950 . S
C872 C871 1.524 1_554 S
C872 C873 1.415 . S
C873 H843 0.950 . S
C873 C868 1.363 1_554 S
C873 C872 1.415 . S
H874 C871 0.999 1_554 S
H875 C856 0.913 . S
H876 C894 0.951 . S
H877 C896 0.951 . S
H878 C898 0.950 1_554 S
H879 C899 0.950 . S
H880 C901 0.950 . S
H881 C904 0.950 1_554 S
H882 C905 0.950 1_554 S
H883 C907 0.950 . S
H884 C908 0.950 . S
H885 C909 0.951 . S
H886 C911 0.951 . S
H887 C913 0.950 . S
H888 C914 0.950 . S
H889 C916 0.950 . S
H890 C919 0.950 . S
H891 C920 0.950 . S
H892 C922 0.950 . S
H893 C923 0.950 . S
C894 H876 0.951 . S
C894 C895 1.366 . S
C894 C896 1.388 . S
C895 C894 1.366 . S
C895 C899 1.385 1_556 S
C896 H877 0.951 . S
C896 C894 1.388 . S
C896 C897 1.366 . S
C897 C896 1.366 . S
C897 C898 1.414 . S
C897 C900 1.499 . S
C898 H878 0.950 1_556 S
C898 C897 1.414 . S
C898 C899 1.374 1_556 S
C899 H879 0.950 . S
C899 C895 1.385 1_554 S
C899 C898 1.374 1_554 S
C900 C897 1.499 . S
C900 C901 1.373 . S
C900 C902 1.389 . S
C901 H880 0.950 . S
C901 C900 1.373 . S
C901 C917 1.377 . S
C902 C900 1.389 . S
C902 C903 1.524 . S
C902 C916 1.377 . S
C903 C902 1.524 . S
C903 C904 1.397 . S
C903 C908 1.363 . S
C904 H881 0.950 1_556 S
C904 C903 1.397 . S
C904 C905 1.334 . S
C905 H882 0.950 1_556 S
C905 C904 1.334 . S
C905 C906 1.287 . S
C906 C905 1.287 . S
C906 C907 1.524 . S
C906 H925 0.913 . S
C907 H883 0.950 . S
C907 C906 1.524 . S
C907 C908 1.415 . S
C908 H884 0.950 . S
C908 C903 1.363 . S
C908 C907 1.415 . S
C909 H885 0.951 . S
C909 C910 1.366 . S
C909 C911 1.388 . S
C910 C909 1.366 . S
C910 C914 1.385 . S
C911 H886 0.951 . S
C911 C909 1.388 . S
C911 C912 1.366 . S
C912 C911 1.366 . S
C912 C913 1.414 . S
C912 C915 1.499 . S
C913 H887 0.950 . S
C913 C912 1.414 . S
C913 C914 1.374 . S
C914 H888 0.950 . S
C914 C910 1.385 . S
C914 C913 1.374 . S
C915 C912 1.499 . S
C915 C916 1.373 . S
C915 C917 1.389 . S
C916 H889 0.950 . S
C916 C902 1.377 . S
C916 C915 1.373 . S
C917 C901 1.377 . S
C917 C915 1.389 . S
C917 C918 1.524 . S
C918 C917 1.524 . S
C918 C919 1.397 . S
C918 C923 1.363 . S
C919 H890 0.950 . S
C919 C918 1.397 . S
C919 C920 1.334 . S
C920 H891 0.950 . S
C920 C919 1.334 . S
C920 C921 1.287 . S
C921 C920 1.287 . S
C921 C922 1.524 . S
C921 H924 0.999 . S
C922 H892 0.950 . S
C922 C921 1.524 . S
C922 C923 1.415 . S
C923 H893 0.950 . S
C923 C918 1.363 . S
C923 C922 1.415 . S
H924 C921 0.999 . S
H925 C906 0.913 . S
H926 C944 0.951 . S
H927 C946 0.947 1_554 S
H928 C948 0.950 . S
H929 C949 0.950 . S
H930 C951 0.950 . S
H931 C954 0.950 . S
H932 C955 0.950 . S
H933 C957 0.950 . S
H934 C958 0.950 . S
H935 C959 0.951 . S
H936 C961 0.951 . S
H937 C963 0.950 . S
H938 C964 0.950 . S
H939 C966 0.950 . S
H940 C969 0.950 . S
H941 C970 0.950 . S
H942 C972 0.950 . S
H943 C973 0.950 . S
C944 H926 0.951 . S
C944 C945 1.366 1_554 S
C944 C946 1.388 1_554 S
C945 C944 1.366 1_556 S
C945 C949 1.385 . S
C946 H927 0.947 1_556 S
C946 C944 1.388 1_556 S
C946 C947 1.366 . S
C947 C946 1.366 . S
C947 C948 1.414 . S
C947 C950 1.499 . S
C948 H928 0.950 . S
C948 C947 1.414 . S
C948 C949 1.374 . S
C949 H929 0.950 . S
C949 C945 1.385 . S
C949 C948 1.374 . S
C950 C947 1.499 . S
C950 C951 1.373 . S
C950 C952 1.389 . S
C951 H930 0.950 . S
C951 C950 1.373 . S
C951 C967 1.377 . S
C952 C950 1.389 . S
C952 C953 1.524 . S
C952 C966 1.377 . S
C953 C952 1.524 . S
C953 C954 1.397 . S
C953 C958 1.363 . S
C954 H931 0.950 . S
C954 C953 1.397 . S
C954 C955 1.334 . S
C955 H932 0.950 . S
C955 C954 1.334 . S
C955 C956 1.287 . S
C956 C955 1.287 . S
C956 C957 1.524 . S
C956 H975 0.913 . S
C957 H933 0.950 . S
C957 C956 1.524 . S
C957 C958 1.415 . S
C958 H934 0.950 . S
C958 C953 1.363 . S
C958 C957 1.415 . S
C959 H935 0.951 . S
C959 C960 1.366 . S
C959 C961 1.388 . S
C960 C959 1.366 . S
C960 C964 1.385 . S
C961 H936 0.951 . S
C961 C959 1.388 . S
C961 C962 1.366 . S
C962 C961 1.366 . S
C962 C963 1.414 . S
C962 C965 1.499 . S
C963 H937 0.950 . S
C963 C962 1.414 . S
C963 C964 1.374 . S
C964 H938 0.950 . S
C964 C960 1.385 . S
C964 C963 1.374 . S
C965 C962 1.499 . S
C965 C966 1.373 . S
C965 C967 1.389 . S
C966 H939 0.950 . S
C966 C952 1.377 . S
C966 C965 1.373 . S
C967 C951 1.377 . S
C967 C965 1.389 . S
C967 C968 1.524 . S
C968 C967 1.524 . S
C968 C969 1.397 . S
C968 C973 1.363 . S
C969 H940 0.950 . S
C969 C968 1.397 . S
C969 C970 1.334 . S
C970 H941 0.950 . S
C970 C969 1.334 . S
C970 C971 1.287 . S
C971 C970 1.287 . S
C971 C972 1.524 . S
C971 H974 0.999 . S
C972 H942 0.950 . S
C972 C971 1.524 . S
C972 C973 1.415 . S
C973 H943 0.950 . S
C973 C968 1.363 . S
C973 C972 1.415 . S
H974 C971 0.999 . S
H975 C956 0.913 . S
H976 C994 0.951 . S
H977 C996 0.951 . S
H978 C998 0.950 . S
H979 C999 0.950 . S
H980 C1001 0.950 . S
H981 C1004 0.956 . S
H982 C1005 0.950 . S
H983 C1007 0.950 . S
H984 C1008 0.950 . S
H985 C1009 0.951 . S
H986 C1011 0.951 1_554 S
H987 C1013 0.950 . S
H988 C1014 0.950 . S
H989 C1016 0.950 . S
H990 C1019 0.950 . S
H991 C1020 0.950 . S
H992 C1022 0.950 . S
H993 C1023 0.950 . S
C994 H976 0.951 . S
C994 C995 1.366 . S
C994 C996 1.388 . S
C995 C994 1.366 . S
C995 C999 1.385 . S
C996 H977 0.951 . S
C996 C994 1.388 . S
C996 C997 1.366 . S
C997 C996 1.366 . S
C997 C998 1.414 . S
C997 C1000 1.499 . S
C998 H978 0.950 . S
C998 C997 1.414 . S
C998 C999 1.374 . S
C999 H979 0.950 . S
C999 C995 1.385 . S
C999 C998 1.374 . S
C1000 C997 1.499 . S
C1000 C1001 1.373 . S
C1000 C1002 1.389 . S
C1001 H980 0.950 . S
C1001 C1000 1.373 . S
C1001 C1017 1.377 . S
C1002 C1000 1.389 . S
C1002 C1003 1.524 . S
C1002 C1016 1.377 1_554 S
C1003 C1002 1.524 . S
C1003 C1004 1.416 . S
C1003 C1008 1.363 1_554 S
C1004 H981 0.956 . S
C1004 C1003 1.416 . S
C1004 C1005 1.310 1_455 S
C1005 H982 0.950 . S
C1005 C1004 1.310 1_655 S
C1005 C1006 1.287 . S
C1006 C1005 1.287 . S
C1006 C1007 1.524 1_554 S
C1006 H1025 0.913 . S
C1007 H983 0.950 . S
C1007 C1006 1.524 1_556 S
C1007 C1008 1.415 1_655 S
C1008 H984 0.950 . S
C1008 C1003 1.363 1_556 S
C1008 C1007 1.415 1_455 S
C1009 H985 0.951 . S
C1009 C1010 1.366 . S
C1009 C1011 1.388 . S
C1010 C1009 1.366 . S
C1010 C1014 1.385 . S
C1011 H986 0.951 1_556 S
C1011 C1009 1.388 . S
C1011 C1012 1.366 . S
C1012 C1011 1.366 . S
C1012 C1013 1.414 . S
C1012 C1015 1.499 . S
C1013 H987 0.950 . S
C1013 C1012 1.414 . S
C1013 C1014 1.374 . S
C1014 H988 0.950 . S
C1014 C1010 1.385 . S
C1014 C1013 1.374 . S
C1015 C1012 1.499 . S
C1015 C1016 1.373 . S
C1015 C1017 1.389 1_556 S
C1016 H989 0.950 . S
C1016 C1002 1.377 1_556 S
C1016 C1015 1.373 . S
C1017 C1001 1.377 . S
C1017 C1015 1.389 1_554 S
C1017 C1018 1.524 . S
C1018 C1017 1.524 . S
C1018 C1019 1.397 1_554 S
C1018 C1023 1.363 . S
C1019 H990 0.950 . S
C1019 C1018 1.397 1_556 S
C1019 C1020 1.334 . S
C1020 H991 0.950 . S
C1020 C1019 1.334 . S
C1020 C1021 1.287 1_556 S
C1021 C1020 1.287 1_554 S
C1021 C1022 1.524 . S
C1021 H1024 0.999 . S
C1022 H992 0.950 . S
C1022 C1021 1.524 . S
C1022 C1023 1.415 . S
C1023 H993 0.950 . S
C1023 C1018 1.363 . S
C1023 C1022 1.415 . S
H1024 C1021 0.999 . S
H1025 C1006 0.913 . S
H1026 C1044 0.951 . S
H1027 C1046 0.951 . S
H1028 C1048 0.950 . S
H1029 C1049 0.950 . S
H1030 C1051 0.950 . S
H1031 C1054 0.950 . S
H1032 C1055 0.950 . S
H1033 C1057 0.950 . S
H1034 C1058 0.950 . S
H1035 C1059 0.951 . S
H1036 C1061 0.951 . S
H1037 C1063 0.950 . S
H1038 C1064 0.950 . S
H1039 C1066 0.950 . S
H1040 C1069 0.950 . S
H1041 C1070 0.950 . S
H1042 C1072 0.950 . S
H1043 C1073 0.950 . S
C1044 H1026 0.951 . S
C1044 C1045 1.366 . S
C1044 C1046 1.388 . S
C1045 C1044 1.366 . S
C1045 C1049 1.385 . S
C1046 H1027 0.951 . S
C1046 C1044 1.388 . S
C1046 C1047 1.366 . S
C1047 C1046 1.366 . S
C1047 C1048 1.414 . S
C1047 C1050 1.499 . S
C1048 H1028 0.950 . S
C1048 C1047 1.414 . S
C1048 C1049 1.374 . S
C1049 H1029 0.950 . S
C1049 C1045 1.385 . S
C1049 C1048 1.374 . S
C1050 C1047 1.499 . S
C1050 C1051 1.373 1_554 S
C1050 C1052 1.389 . S
C1051 H1030 0.950 . S
C1051 C1050 1.373 1_556 S
C1051 C1067 1.377 . S
C1052 C1050 1.389 . S
C1052 C1053 1.524 . S
C1052 C1066 1.377 . S
C1053 C1052 1.524 . S
C1053 C1054 1.397 . S
C1053 C1058 1.363 . S
C1054 H1031 0.950 . S
C1054 C1053 1.397 . S
C1054 C1055 1.334 . S
C1055 H1032 0.950 . S
C1055 C1054 1.334 . S
C1055 C1056 1.287 . S
C1056 C1055 1.287 . S
C1056 C1057 1.524 . S
C1056 H1075 0.913 . S
C1057 H1033 0.950 . S
C1057 C1056 1.524 . S
C1057 C1058 1.415 . S
C1058 H1034 0.950 . S
C1058 C1053 1.363 . S
C1058 C1057 1.415 . S
C1059 H1035 0.951 . S
C1059 C1060 1.366 . S
C1059 C1061 1.388 . S
C1060 C1059 1.366 . S
C1060 C1064 1.385 . S
C1061 H1036 0.951 . S
C1061 C1059 1.388 . S
C1061 C1062 1.366 . S
C1062 C1061 1.366 . S
C1062 C1063 1.414 . S
C1062 C1065 1.499 . S
C1063 H1037 0.950 . S
C1063 C1062 1.414 . S
C1063 C1064 1.374 . S
C1064 H1038 0.950 . S
C1064 C1060 1.385 . S
C1064 C1063 1.374 . S
C1065 C1062 1.499 . S
C1065 C1066 1.373 1_556 S
C1065 C1067 1.389 . S
C1066 H1039 0.950 . S
C1066 C1052 1.377 . S
C1066 C1065 1.373 1_554 S
C1067 C1051 1.377 . S
C1067 C1065 1.389 . S
C1067 C1068 1.524 . S
C1068 C1067 1.524 . S
C1068 C1069 1.397 1_545 S
C1068 C1073 1.363 . S
C1069 H1040 0.950 . S
C1069 C1068 1.397 1_565 S
C1069 C1070 1.334 . S
C1070 H1041 0.950 . S
C1070 C1069 1.334 . S
C1070 C1071 1.287 . S
C1071 C1070 1.287 . S
C1071 C1072 1.524 . S
C1071 H1074 0.999 . S
C1072 H1042 0.950 . S
C1072 C1071 1.524 . S
C1072 C1073 1.415 1_565 S
C1073 H1043 0.950 . S
C1073 C1068 1.363 . S
C1073 C1072 1.415 1_545 S
H1074 C1071 0.999 . S
H1075 C1056 0.913 . S
H1076 C1094 0.951 . S
H1077 C1096 0.951 . S
H1078 C1098 0.950 . S
H1079 C1099 0.950 . S
H1080 C1101 0.950 . S
H1081 C1104 0.950 . S
H1082 C1105 0.947 1_556 S
H1083 C1107 0.950 . S
H1084 C1108 0.950 . S
H1085 C1109 0.951 . S
H1086 C1111 0.951 . S
H1087 C1113 0.950 . S
H1088 C1114 0.950 . S
H1089 C1116 0.950 . S
H1090 C1119 0.950 1_554 S
H1091 C1120 0.950 . S
H1092 C1122 0.950 . S
H1093 C1123 0.950 . S
C1094 H1076 0.951 . S
C1094 C1095 1.366 . S
C1094 C1096 1.388 . S
C1095 C1094 1.366 . S
C1095 C1099 1.385 . S
C1096 H1077 0.951 . S
C1096 C1094 1.388 . S
C1096 C1097 1.366 . S
C1097 C1096 1.366 . S
C1097 C1098 1.414 . S
C1097 C1100 1.499 . S
C1098 H1078 0.950 . S
C1098 C1097 1.414 . S
C1098 C1099 1.374 . S
C1099 H1079 0.950 . S
C1099 C1095 1.385 . S
C1099 C1098 1.374 . S
C1100 C1097 1.499 . S
C1100 C1101 1.373 . S
C1100 C1102 1.389 . S
C1101 H1080 0.950 . S
C1101 C1100 1.373 . S
C1101 C1117 1.377 1_554 S
C1102 C1100 1.389 . S
C1102 C1103 1.524 . S
C1102 C1116 1.377 1_554 S
C1103 C1102 1.524 . S
C1103 C1104 1.397 1_554 S
C1103 C1108 1.363 . S
C1104 H1081 0.950 . S
C1104 C1103 1.397 1_556 S
C1104 C1105 1.333 1_556 S
C1105 H1082 0.947 1_554 S
C1105 C1104 1.333 1_554 S
C1105 C1106 1.290 . S
C1106 C1105 1.290 . S
C1106 C1107 1.524 . S
C1106 H1125 0.913 . S
C1107 H1083 0.950 . S
C1107 C1106 1.524 . S
C1107 C1108 1.415 . S
C1108 H1084 0.950 . S
C1108 C1103 1.363 . S
C1108 C1107 1.415 . S
C1109 H1085 0.951 . S
C1109 C1110 1.366 . S
C1109 C1111 1.388 . S
C1110 C1109 1.366 . S
C1110 C1114 1.385 . S
C1111 H1086 0.951 . S
C1111 C1109 1.388 . S
C1111 C1112 1.366 . S
C1112 C1111 1.366 . S
C1112 C1113 1.414 . S
C1112 C1115 1.499 . S
C1113 H1087 0.950 . S
C1113 C1112 1.414 . S
C1113 C1114 1.374 . S
C1114 H1088 0.950 . S
C1114 C1110 1.385 . S
C1114 C1113 1.374 . S
C1115 C1112 1.499 . S
C1115 C1116 1.373 . S
C1115 C1117 1.389 . S
C1116 H1089 0.950 . S
C1116 C1102 1.377 1_556 S
C1116 C1115 1.373 . S
C1117 C1101 1.377 1_556 S
C1117 C1115 1.389 . S
C1117 C1118 1.524 . S
C1118 C1117 1.524 . S
C1118 C1119 1.397 . S
C1118 C1123 1.363 . S
C1119 H1090 0.950 1_556 S
C1119 C1118 1.397 . S
C1119 C1120 1.334 . S
C1120 H1091 0.950 . S
C1120 C1119 1.334 . S
C1120 C1121 1.287 . S
C1121 C1120 1.287 . S
C1121 C1122 1.524 . S
C1121 H1124 0.999 . S
C1122 H1092 0.950 . S
C1122 C1121 1.524 . S
C1122 C1123 1.415 . S
C1123 H1093 0.950 . S
C1123 C1118 1.363 . S
C1123 C1122 1.415 . S
H1124 C1121 0.999 . S
H1125 C1106 0.913 . S
H1126 C1144 0.951 . S
H1127 C1146 0.951 . S
H1128 C1148 0.950 . S
H1129 C1149 0.950 . S
H1130 C1151 0.950 . S
H1131 C1154 0.950 . S
H1132 C1155 0.950 . S
H1133 C1157 0.950 . S
H1134 C1158 0.950 . S
H1135 C1159 0.951 . S
H1136 C1161 0.951 . S
H1137 C1163 0.950 . S
H1138 C1164 0.950 . S
H1139 C1166 0.950 . S
H1140 C1169 0.950 . S
H1141 C1170 0.950 . S
H1142 C1172 0.950 . S
H1143 C1173 0.950 . S
C1144 H1126 0.951 . S
C1144 C1145 1.366 . S
C1144 C1146 1.388 . S
C1145 C1144 1.366 . S
C1145 C1149 1.385 . S
C1146 H1127 0.951 . S
C1146 C1144 1.388 . S
C1146 C1147 1.366 . S
C1147 C1146 1.366 . S
C1147 C1148 1.414 . S
C1147 C1150 1.499 . S
C1148 H1128 0.950 . S
C1148 C1147 1.414 . S
C1148 C1149 1.374 . S
C1149 H1129 0.950 . S
C1149 C1145 1.385 . S
C1149 C1148 1.374 . S
C1150 C1147 1.499 . S
C1150 C1151 1.373 1_554 S
C1150 C1152 1.389 . S
C1151 H1130 0.950 . S
C1151 C1150 1.373 1_556 S
C1151 C1167 1.377 . S
C1152 C1150 1.389 . S
C1152 C1153 1.524 . S
C1152 C1166 1.377 . S
C1153 C1152 1.524 . S
C1153 C1154 1.397 . S
C1153 C1158 1.363 . S
C1154 H1131 0.950 . S
C1154 C1153 1.397 . S
C1154 C1155 1.334 . S
C1155 H1132 0.950 . S
C1155 C1154 1.334 . S
C1155 C1156 1.287 . S
C1156 C1155 1.287 . S
C1156 C1157 1.524 . S
C1156 H1175 0.913 . S
C1157 H1133 0.950 . S
C1157 C1156 1.524 . S
C1157 C1158 1.415 . S
C1158 H1134 0.950 . S
C1158 C1153 1.363 . S
C1158 C1157 1.415 . S
C1159 H1135 0.951 . S
C1159 C1160 1.366 . S
C1159 C1161 1.388 . S
C1160 C1159 1.366 . S
C1160 C1164 1.385 . S
C1161 H1136 0.951 . S
C1161 C1159 1.388 . S
C1161 C1162 1.366 . S
C1162 C1161 1.366 . S
C1162 C1163 1.414 . S
C1162 C1165 1.499 . S
C1163 H1137 0.950 . S
C1163 C1162 1.414 . S
C1163 C1164 1.374 . S
C1164 H1138 0.950 . S
C1164 C1160 1.385 . S
C1164 C1163 1.374 . S
C1165 C1162 1.499 . S
C1165 C1166 1.373 1_556 S
C1165 C1167 1.389 . S
C1166 H1139 0.950 . S
C1166 C1152 1.377 . S
C1166 C1165 1.373 1_554 S
C1167 C1151 1.377 . S
C1167 C1165 1.389 . S
C1167 C1168 1.524 . S
C1168 C1167 1.524 . S
C1168 C1169 1.397 . S
C1168 C1173 1.363 . S
C1169 H1140 0.950 . S
C1169 C1168 1.397 . S
C1169 C1170 1.334 . S
C1170 H1141 0.950 . S
C1170 C1169 1.334 . S
C1170 C1171 1.287 . S
C1171 C1170 1.287 . S
C1171 C1172 1.524 . S
C1171 H1174 0.999 . S
C1172 H1142 0.950 . S
C1172 C1171 1.524 . S
C1172 C1173 1.415 . S
C1173 H1143 0.950 . S
C1173 C1168 1.363 . S
C1173 C1172 1.415 . S
H1174 C1171 0.999 . S
H1175 C1156 0.913 . S
H1176 C1194 0.951 . S
H1177 C1196 0.951 . S
H1178 C1198 0.950 . S
H1179 C1199 0.950 . S
H1180 C1201 0.950 . S
H1181 C1204 0.950 . S
H1182 C1205 0.950 . S
H1183 C1207 0.950 . S
H1184 C1208 0.950 . S
H1185 C1209 0.951 . S
H1186 C1211 0.951 . S
H1187 C1213 0.950 1_455 S
H1188 C1214 0.950 . S
H1189 C1216 0.950 1_455 S
H1190 C1219 0.950 . S
H1191 C1220 0.950 . S
H1192 C1222 0.950 . S
H1193 C1223 0.950 . S
C1194 H1176 0.951 . S
C1194 C1195 1.366 . S
C1194 C1196 1.388 . S
C1195 C1194 1.366 . S
C1195 C1199 1.385 . S
C1196 H1177 0.951 . S
C1196 C1194 1.388 . S
C1196 C1197 1.366 . S
C1197 C1196 1.366 . S
C1197 C1198 1.414 . S
C1197 C1200 1.499 . S
C1198 H1178 0.950 . S
C1198 C1197 1.414 . S
C1198 C1199 1.374 . S
C1199 H1179 0.950 . S
C1199 C1195 1.385 . S
C1199 C1198 1.374 . S
C1200 C1197 1.499 . S
C1200 C1201 1.373 . S
C1200 C1202 1.389 . S
C1201 H1180 0.950 . S
C1201 C1200 1.373 . S
C1201 C1217 1.377 . S
C1202 C1200 1.389 . S
C1202 C1203 1.524 1_655 S
C1202 C1216 1.377 . S
C1203 C1202 1.524 1_455 S
C1203 C1204 1.397 1_455 S
C1203 C1208 1.363 . S
C1204 H1181 0.950 . S
C1204 C1203 1.397 1_655 S
C1204 C1205 1.334 1_655 S
C1205 H1182 0.950 . S
C1205 C1204 1.334 1_455 S
C1205 C1206 1.287 . S
C1206 C1205 1.287 . S
C1206 C1207 1.524 . S
C1206 H1225 0.913 . S
C1207 H1183 0.950 . S
C1207 C1206 1.524 . S
C1207 C1208 1.415 . S
C1208 H1184 0.950 . S
C1208 C1203 1.363 . S
C1208 C1207 1.415 . S
C1209 H1185 0.951 . S
C1209 C1210 1.366 . S
C1209 C1211 1.388 . S
C1210 C1209 1.366 . S
C1210 C1214 1.385 1_655 S
C1211 H1186 0.951 . S
C1211 C1209 1.388 . S
C1211 C1212 1.366 . S
C1212 C1211 1.366 . S
C1212 C1213 1.414 . S
C1212 C1215 1.499 . S
C1213 H1187 0.950 1_655 S
C1213 C1212 1.414 . S
C1213 C1214 1.374 1_655 S
C1214 H1188 0.950 . S
C1214 C1210 1.385 1_455 S
C1214 C1213 1.374 1_455 S
C1215 C1212 1.499 . S
C1215 C1216 1.373 . S
C1215 C1217 1.389 . S
C1216 H1189 0.950 1_655 S
C1216 C1202 1.377 . S
C1216 C1215 1.373 . S
C1217 C1201 1.377 . S
C1217 C1215 1.389 . S
C1217 C1218 1.524 . S
C1218 C1217 1.524 . S
C1218 C1219 1.397 . S
C1218 C1223 1.363 . S
C1219 H1190 0.950 . S
C1219 C1218 1.397 . S
C1219 C1220 1.334 . S
C1220 H1191 0.950 . S
C1220 C1219 1.334 . S
C1220 C1221 1.287 . S
C1221 C1220 1.287 . S
C1221 C1222 1.524 . S
C1221 H1224 0.999 . S
C1222 H1192 0.950 . S
C1222 C1221 1.524 . S
C1222 C1223 1.415 . S
C1223 H1193 0.950 . S
C1223 C1218 1.363 . S
C1223 C1222 1.415 . S
H1224 C1221 0.999 . S
H1225 C1206 0.913 . S
H1226 C1244 0.951 . S
H1227 C1246 0.951 . S
H1228 C1248 0.950 . S
H1229 C1249 0.950 . S
H1230 C1251 0.950 . S
H1231 C1254 0.941 1_545 S
H1232 C1255 0.950 1_545 S
H1233 C1257 0.950 . S
H1234 C1258 0.950 . S
H1235 C1259 0.951 . S
H1236 C1261 0.951 . S
H1237 C1263 0.950 . S
H1238 C1264 0.950 . S
H1239 C1266 0.950 . S
H1240 C1269 0.950 . S
H1241 C1270 0.950 . S
H1242 C1272 0.950 . S
H1243 C1273 0.978 . S
C1244 H1226 0.951 . S
C1244 C1245 1.366 . S
C1244 C1246 1.388 . S
C1245 C1244 1.366 . S
C1245 C1249 1.385 . S
C1246 H1227 0.951 . S
C1246 C1244 1.388 . S
C1246 C1247 1.366 . S
C1247 C1246 1.366 . S
C1247 C1248 1.414 . S
C1247 C1250 1.499 . S
C1248 H1228 0.950 . S
C1248 C1247 1.414 . S
C1248 C1249 1.374 . S
C1249 H1229 0.950 . S
C1249 C1245 1.385 . S
C1249 C1248 1.374 . S
C1250 C1247 1.499 . S
C1250 C1251 1.373 . S
C1250 C1252 1.389 . S
C1251 H1230 0.950 . S
C1251 C1250 1.373 . S
C1251 C1267 1.377 . S
C1252 C1250 1.389 . S
C1252 C1253 1.524 . S
C1252 C1266 1.377 . S
C1253 C1252 1.524 . S
C1253 C1254 1.397 . S
C1253 C1258 1.363 . S
C1254 H1231 0.941 1_565 S
C1254 C1253 1.397 . S
C1254 C1255 1.334 . S
C1255 H1232 0.950 1_565 S
C1255 C1254 1.334 . S
C1255 C1256 1.287 . S
C1256 C1255 1.287 . S
C1256 C1257 1.524 . S
C1256 H1275 0.913 . S
C1257 H1233 0.950 . S
C1257 C1256 1.524 . S
C1257 C1258 1.415 . S
C1258 H1234 0.950 . S
C1258 C1253 1.363 . S
C1258 C1257 1.415 . S
C1259 H1235 0.951 . S
C1259 C1260 1.366 1_545 S
C1259 C1261 1.388 . S
C1260 C1259 1.366 1_565 S
C1260 C1264 1.385 . S
C1261 H1236 0.951 . S
C1261 C1259 1.388 . S
C1261 C1262 1.366 1_545 S
C1262 C1261 1.366 1_565 S
C1262 C1263 1.414 . S
C1262 C1265 1.499 . S
C1263 H1237 0.950 . S
C1263 C1262 1.414 . S
C1263 C1264 1.374 . S
C1264 H1238 0.950 . S
C1264 C1260 1.385 . S
C1264 C1263 1.374 . S
C1265 C1262 1.499 . S
C1265 C1266 1.373 . S
C1265 C1267 1.389 . S
C1266 H1239 0.950 . S
C1266 C1252 1.377 . S
C1266 C1265 1.373 . S
C1267 C1251 1.377 . S
C1267 C1265 1.389 . S
C1267 C1268 1.524 . S
C1268 C1267 1.524 . S
C1268 C1269 1.397 . S
C1268 C1273 1.363 . S
C1269 H1240 0.950 . S
C1269 C1268 1.397 . S
C1269 C1270 1.334 . S
C1270 H1241 0.950 . S
C1270 C1269 1.334 . S
C1270 C1271 1.287 . S
C1271 C1270 1.287 . S
C1271 C1272 1.524 . S
C1271 H1274 0.999 . S
C1272 H1242 0.950 . S
C1272 C1271 1.524 . S
C1272 C1273 1.415 . S
C1273 H1243 0.978 . S
C1273 C1268 1.363 . S
C1273 C1272 1.415 . S
H1274 C1271 0.999 . S
H1275 C1256 0.913 . S
H1276 C1294 0.951 . S
H1277 C1296 0.951 . S
H1278 C1298 0.950 . S
H1279 C1299 0.950 . S
H1280 C1301 0.950 . S
H1281 C1304 0.950 . S
H1282 C1305 0.950 . S
H1283 C1307 0.950 . S
H1284 C1308 0.950 . S
H1285 C1309 0.951 . S
H1286 C1311 0.951 . S
H1287 C1313 0.950 . S
H1288 C1314 0.950 . S
H1289 C1316 0.950 . S
H1290 C1319 0.950 . S
H1291 C1320 0.950 . S
H1292 C1322 0.950 . S
H1293 C1323 0.950 . S
C1294 H1276 0.951 . S
C1294 C1295 1.366 . S
C1294 C1296 1.388 . S
C1295 C1294 1.366 . S
C1295 C1299 1.385 . S
C1296 H1277 0.951 . S
C1296 C1294 1.388 . S
C1296 C1297 1.366 . S
C1297 C1296 1.366 . S
C1297 C1298 1.414 . S
C1297 C1300 1.499 . S
C1298 H1278 0.950 . S
C1298 C1297 1.414 . S
C1298 C1299 1.374 . S
C1299 H1279 0.950 . S
C1299 C1295 1.385 . S
C1299 C1298 1.374 . S
C1300 C1297 1.499 . S
C1300 C1301 1.373 . S
C1300 C1302 1.389 . S
C1301 H1280 0.950 . S
C1301 C1300 1.373 . S
C1301 C1317 1.377 . S
C1302 C1300 1.389 . S
C1302 C1303 1.524 . S
C1302 C1316 1.377 . S
C1303 C1302 1.524 . S
C1303 C1304 1.397 . S
C1303 C1308 1.363 . S
C1304 H1281 0.950 . S
C1304 C1303 1.397 . S
C1304 C1305 1.334 . S
C1305 H1282 0.950 . S
C1305 C1304 1.334 . S
C1305 C1306 1.287 . S
C1306 C1305 1.287 . S
C1306 C1307 1.524 . S
C1306 H1325 0.913 . S
C1307 H1283 0.950 . S
C1307 C1306 1.524 . S
C1307 C1308 1.415 . S
C1308 H1284 0.950 . S
C1308 C1303 1.363 . S
C1308 C1307 1.415 . S
C1309 H1285 0.951 . S
C1309 C1310 1.366 . S
C1309 C1311 1.388 . S
C1310 C1309 1.366 . S
C1310 C1314 1.385 . S
C1311 H1286 0.951 . S
C1311 C1309 1.388 . S
C1311 C1312 1.366 . S
C1312 C1311 1.366 . S
C1312 C1313 1.414 . S
C1312 C1315 1.499 . S
C1313 H1287 0.950 . S
C1313 C1312 1.414 . S
C1313 C1314 1.374 . S
C1314 H1288 0.950 . S
C1314 C1310 1.385 . S
C1314 C1313 1.374 . S
C1315 C1312 1.499 . S
C1315 C1316 1.373 . S
C1315 C1317 1.389 . S
C1316 H1289 0.950 . S
C1316 C1302 1.377 . S
C1316 C1315 1.373 . S
C1317 C1301 1.377 . S
C1317 C1315 1.389 . S
C1317 C1318 1.524 . S
C1318 C1317 1.524 . S
C1318 C1319 1.397 . S
C1318 C1323 1.363 . S
C1319 H1290 0.950 . S
C1319 C1318 1.397 . S
C1319 C1320 1.334 . S
C1320 H1291 0.950 . S
C1320 C1319 1.334 . S
C1320 C1321 1.287 . S
C1321 C1320 1.287 . S
C1321 C1322 1.524 . S
C1321 H1324 0.999 . S
C1322 H1292 0.950 . S
C1322 C1321 1.524 . S
C1322 C1323 1.415 . S
C1323 H1293 0.950 . S
C1323 C1318 1.363 . S
C1323 C1322 1.415 . S
H1324 C1321 0.999 . S
H1325 C1306 0.913 . S
H1326 C1344 0.951 . S
H1327 C1346 0.951 . S
H1328 C1348 0.950 . S
H1329 C1349 0.950 . S
H1330 C1351 0.950 . S
H1331 C1354 0.950 . S
H1332 C1355 0.950 . S
H1333 C1357 0.950 . S
H1334 C1358 0.950 . S
H1335 C1359 0.951 . S
H1336 C1361 0.951 . S
H1337 C1363 0.950 . S
H1338 C1364 0.950 . S
H1339 C1366 0.950 . S
H1340 C1369 0.950 . S
H1341 C1370 0.950 . S
H1342 C1372 0.950 . S
H1343 C1373 0.950 . S
C1344 H1326 0.951 . S
C1344 C1345 1.366 . S
C1344 C1346 1.388 . S
C1345 C1344 1.366 . S
C1345 C1349 1.385 . S
C1346 H1327 0.951 . S
C1346 C1344 1.388 . S
C1346 C1347 1.366 . S
C1347 C1346 1.366 . S
C1347 C1348 1.414 . S
C1347 C1350 1.499 . S
C1348 H1328 0.950 . S
C1348 C1347 1.414 . S
C1348 C1349 1.374 . S
C1349 H1329 0.950 . S
C1349 C1345 1.385 . S
C1349 C1348 1.374 . S
C1350 C1347 1.499 . S
C1350 C1351 1.373 . S
C1350 C1352 1.389 . S
C1351 H1330 0.950 . S
C1351 C1350 1.373 . S
C1351 C1367 1.377 . S
C1352 C1350 1.389 . S
C1352 C1353 1.524 . S
C1352 C1366 1.377 . S
C1353 C1352 1.524 . S
C1353 C1354 1.397 . S
C1353 C1358 1.363 . S
C1354 H1331 0.950 . S
C1354 C1353 1.397 . S
C1354 C1355 1.334 . S
C1355 H1332 0.950 . S
C1355 C1354 1.334 . S
C1355 C1356 1.287 . S
C1356 C1355 1.287 . S
C1356 C1357 1.524 . S
C1356 H1375 0.913 . S
C1357 H1333 0.950 . S
C1357 C1356 1.524 . S
C1357 C1358 1.415 . S
C1358 H1334 0.950 . S
C1358 C1353 1.363 . S
C1358 C1357 1.415 . S
C1359 H1335 0.951 . S
C1359 C1360 1.366 . S
C1359 C1361 1.388 . S
C1360 C1359 1.366 . S
C1360 C1364 1.385 . S
C1361 H1336 0.951 . S
C1361 C1359 1.388 . S
C1361 C1362 1.366 . S
C1362 C1361 1.366 . S
C1362 C1363 1.414 . S
C1362 C1365 1.499 . S
C1363 H1337 0.950 . S
C1363 C1362 1.414 . S
C1363 C1364 1.374 . S
C1364 H1338 0.950 . S
C1364 C1360 1.385 . S
C1364 C1363 1.374 . S
C1365 C1362 1.499 . S
C1365 C1366 1.373 . S
C1365 C1367 1.389 . S
C1366 H1339 0.950 . S
C1366 C1352 1.377 . S
C1366 C1365 1.373 . S
C1367 C1351 1.377 . S
C1367 C1365 1.389 . S
C1367 C1368 1.524 . S
C1368 C1367 1.524 . S
C1368 C1369 1.397 . S
C1368 C1373 1.363 . S
C1369 H1340 0.950 . S
C1369 C1368 1.397 . S
C1369 C1370 1.334 . S
C1370 H1341 0.950 . S
C1370 C1369 1.334 . S
C1370 C1371 1.287 . S
C1371 C1370 1.287 . S
C1371 C1372 1.524 . S
C1371 H1374 0.999 . S
C1372 H1342 0.950 . S
C1372 C1371 1.524 . S
C1372 C1373 1.415 . S
C1373 H1343 0.950 . S
C1373 C1368 1.363 . S
C1373 C1372 1.415 . S
H1374 C1371 0.999 . S
H1375 C1356 0.913 . S
C195 C76 1.582 . S
C210 C97 1.618 . S
C260 C132 1.636 . S
C245 C88 1.585 . S
C310 C137 1.295 . S
C295 C52 1.268 . S
C360 C157 1.406 . S
C345 C64 1.378 . S
C410 C105 1.619 1_565 S
C395 C28 1.592 1_556 S
C445 C40 1.598 . S
C460 C122 1.635 . S
C495 C4 1.271 . S
C510 C145 1.294 . S
C545 C16 1.387 . S
C560 C165 1.406 1_655 S
C610 C115 1.086 . S
C595 C69 1.082 . S
C660 C124 0.780 . S
C645 C81 0.781 . S
C710 C155 1.198 . S
C695 C93 1.196 . S
C745 C57 0.834 . S
C760 C175 0.834 . S
C795 C21 1.077 . S
C810 C104 1.085 1_655 S
C860 C135 0.780 1_565 S
C845 C33 0.779 1_556 S
C910 C144 1.198 . S
C895 C45 1.186 1_556 S
C945 C9 0.834 1_556 S
C960 C164 0.834 . S
C995 C66 1.468 . S
C1010 C102 1.481 . S
C1045 C78 1.412 . S
C1060 C125 1.458 . S
C1110 C142 1.602 . S
C1095 C90 1.566 . S
C1160 C162 1.608 . S
C1145 C54 1.583 . S
C1195 C18 1.457 . S
C1210 C112 1.481 . S
C1260 C117 1.468 . S
C1245 C30 1.400 . S
C1310 C152 1.601 . S
C1295 C42 1.548 . S
C1345 C6 1.577 . S
C1360 C172 1.609 . S
