# Generated by pormake.
# Topology tsx, (6,3)-cn, num edge types: 1
# Building blocks:
#     Node 0, Type 0, BuildingBlock: LEVNOQ01_clean_sbu_1, # of connection points: 6
#     Node 1, Type 0, BuildingBlock: LEVNOQ01_clean_sbu_1, # of connection points: 6
#     Node 2, Type 1, BuildingBlock: BETDIP_clean_linker_0, # of connection points: 3
#     Node 3, Type 1, BuildingBlock: BETDIP_clean_linker_0, # of connection points: 3
#     Node 4, Type 1, BuildingBlock: BETDIP_clean_linker_0, # of connection points: 3
#     Node 5, Type 1, BuildingBlock: BETDIP_clean_linker_0, # of connection points: 3
#     Edge 6, Type (0, 1), BuildingBlock: MIFKUJ_clean_linker_0, # of connection points: 2
#     Edge 7, Type (0, 1), BuildingBlock: MIFKUJ_clean_linker_0, # of connection points: 2
#     Edge 8, Type (0, 1), BuildingBlock: MIFKUJ_clean_linker_0, # of connection points: 2
#     Edge 9, Type (0, 1), BuildingBlock: MIFKUJ_clean_linker_0, # of connection points: 2
#     Edge 10, Type (0, 1), BuildingBlock: MIFKUJ_clean_linker_0, # of connection points: 2
#     Edge 11, Type (0, 1), BuildingBlock: MIFKUJ_clean_linker_0, # of connection points: 2
#     Edge 12, Type (0, 1), BuildingBlock: MIFKUJ_clean_linker_0, # of connection points: 2
#     Edge 13, Type (0, 1), BuildingBlock: MIFKUJ_clean_linker_0, # of connection points: 2
#     Edge 14, Type (0, 1), BuildingBlock: MIFKUJ_clean_linker_0, # of connection points: 2
#     Edge 15, Type (0, 1), BuildingBlock: MIFKUJ_clean_linker_0, # of connection points: 2
#     Edge 16, Type (0, 1), BuildingBlock: MIFKUJ_clean_linker_0, # of connection points: 2
#     Edge 17, Type (0, 1), BuildingBlock: MIFKUJ_clean_linker_0, # of connection points: 2
# Relax obj value: 0.098
# Max RMSD: 0.154
# Mean RMSD: 0.114
data_MOF--net-tsx--node1-LEVNOQ01_clean_sbu_1--node2-BETDIP_clean_linker_0--edge1-MIFKUJ_clean_linker_0
_symmetry_space_group_name_H-M    P1
_symmetry_Int_Tables_number       1
_symmetry_cell_setting            triclinic
loop_
_symmetry_equiv_pos_as_xyz
'x, y, z'
_cell_length_a     24.621605
_cell_length_b     29.451548
_cell_length_c     44.133968
_cell_angle_alpha  97.720522
_cell_angle_beta   100.2518
_cell_angle_gamma 91.00952
loop_
_atom_site_label
_atom_site_type_symbol
_atom_site_fract_x
_atom_site_fract_y
_atom_site_fract_z
_atom_type_partial_charge
O0 O 0.11322 0.02679 0.09038 0.0
Mg1 Mg 0.16596 0.0352 0.05866 0.0
O2 O 0.03935 0.00086 0.05486 0.0
Mg3 Mg 0.05632 0.00761 0.00513 0.0
O4 O 0.12342 0.06402 0.02278 0.0
O5 O 0.19762 0.09897 0.05348 0.0
O6 O 0.07634 0.01554 0.95558 0.0
O7 O 0.99446 0.06502 0.00211 0.0
Mg8 Mg 0.9611 0.97629 0.94822 0.0
O9 O 0.98611 0.95229 0.98917 0.0
O10 O 0.02157 0.96644 0.92069 0.0
O11 O 0.93382 0.04426 0.95836 0.0
O12 O 0.91555 0.91968 0.95371 0.0
C13 C 0.16884 0.94316 0.01923 0.0
C14 C 0.06391 0.01042 0.08312 0.0
C15 C 0.15842 0.09868 0.02982 0.0
C16 C 0.06341 0.99377 0.92806 0.0
C17 C 0.9528 0.07315 0.98219 0.0
C18 C 0.94676 0.92095 0.98059 0.0
O19 O 0.19684 0.9741 0.03893 0.0
O20 O 0.11887 0.94891 0.00683 0.0
O21 O 0.63427 0.53503 0.59057 0.0
Mg22 Mg 0.66879 0.53204 0.55072 0.0
O23 O 0.55519 0.5095 0.56077 0.0
Mg24 Mg 0.56122 0.51413 0.50813 0.0
O25 O 0.63463 0.56937 0.51683 0.0
O26 O 0.71724 0.58644 0.54774 0.0
O27 O 0.56495 0.51789 0.45606 0.0
O28 O 0.51034 0.58307 0.51408 0.0
Mg29 Mg 0.45937 0.51337 0.48113 0.0
O30 O 0.48944 0.45485 0.49716 0.0
O31 O 0.48073 0.54005 0.44237 0.0
O32 O 0.42607 0.55798 0.51293 0.0
O33 O 0.40805 0.45832 0.46515 0.0
C34 C 0.66635 0.43969 0.51514 0.0
C35 C 0.5851 0.51982 0.58773 0.0
C36 C 0.67941 0.59569 0.52541 0.0
C37 C 0.52843 0.5334 0.43635 0.0
C38 C 0.46146 0.59079 0.51898 0.0
C39 C 0.44235 0.43555 0.48224 0.0
O40 O 0.69698 0.46906 0.53451 0.0
O41 O 0.61701 0.44909 0.50364 0.0
H42 H 0.07716 0.96188 0.48621 0.0
H43 H 0.98493 0.00591 0.40443 0.0
H44 H 0.13066 0.92846 0.39852 0.0
H45 H 0.0475 0.06989 0.4829 0.0
C46 C 0.00456 0.05735 0.47758 0.0
C47 C 0.072 0.96343 0.46147 0.0
C48 C 0.10826 0.94099 0.44373 0.0
C49 C 0.02811 0.98715 0.447 0.0
C50 C 0.02019 0.98844 0.41502 0.0
C51 C 0.05695 0.96763 0.39699 0.0
C52 C 0.10108 0.94407 0.41173 0.0
N53 N 0.99189 0.01103 0.46432 0.0
H54 H 0.97881 0.01904 0.52862 0.0
H55 H 0.05526 0.0955 0.61583 0.0
H56 H 0.92537 0.9951 0.6131 0.0
H57 H 0.03937 0.15468 0.5769 0.0
C58 C 0.06628 0.13384 0.56422 0.0
C59 C 0.98093 0.02721 0.55343 0.0
C60 C 0.94712 0.00258 0.56866 0.0
C61 C 0.01819 0.06205 0.57032 0.0
C62 C 0.02361 0.07088 0.60277 0.0
C63 C 0.99141 0.04592 0.6185 0.0
C64 C 0.95187 0.01314 0.60112 0.0
N65 N 0.05257 0.08638 0.55487 0.0
H66 H 0.60223 0.47988 0.98984 0.0
H67 H 0.52496 0.54425 0.91283 0.0
H68 H 0.62084 0.42545 0.89686 0.0
H69 H 0.57928 0.60815 0.96832 0.0
C70 C 0.54178 0.5935 0.97356 0.0
C71 C 0.59351 0.48052 0.96496 0.0
C72 C 0.61747 0.4493 0.94482 0.0
C73 C 0.56045 0.51451 0.95335 0.0
C74 C 0.55012 0.51723 0.92137 0.0
C75 C 0.57166 0.48516 0.9006 0.0
C76 C 0.60502 0.45111 0.91262 0.0
N77 N 0.53682 0.54569 0.97397 0.0
H78 H 0.46213 0.52505 0.0204 0.0
H79 H 0.53986 0.59512 0.10995 0.0
H80 H 0.4281 0.47961 0.10427 0.0
H81 H 0.51808 0.65813 0.07594 0.0
C82 C 0.54421 0.64086 0.06096 0.0
C83 C 0.46827 0.52853 0.04555 0.0
C84 C 0.43958 0.4987 0.06015 0.0
C85 C 0.50333 0.5641 0.06342 0.0
C86 C 0.5114 0.56867 0.09602 0.0
C87 C 0.4851 0.53784 0.11081 0.0
C88 C 0.44891 0.50321 0.0928 0.0
N89 N 0.53214 0.59402 0.04852 0.0
H90 H 0.20429 0.10365 0.97915 0.0
H91 H 0.23769 0.17523 0.96482 0.0
H92 H 0.14755 0.25246 0.02819 0.0
H93 H 0.11437 0.1809 0.04252 0.0
H94 H 0.1632 0.29917 0.97685 0.0
H95 H 0.26554 0.2221 0.0579 0.0
H96 H 0.31061 0.1562 0.07922 0.0
H97 H 0.41843 0.14935 0.01236 0.0
H98 H 0.37317 0.21477 0.99025 0.0
H99 H 0.33379 0.4822 0.06682 0.0
H100 H 0.27233 0.41632 0.04235 0.0
H101 H 0.39433 0.3671 0.9882 0.0
H102 H 0.45612 0.43345 0.0127 0.0
H103 H 0.363 0.30423 0.02249 0.0
H104 H 0.2724 0.39727 0.95126 0.0
H105 H 0.22722 0.4655 0.93363 0.0
H106 H 0.09817 0.44613 0.9851 0.0
H107 H 0.14316 0.37834 0.00359 0.0
C108 C 0.18907 0.13584 0.98857 0.0
C109 C 0.15664 0.13706 0.01174 0.0
C110 C 0.20842 0.17672 0.98055 0.0
C111 C 0.19581 0.21914 0.99584 0.0
C112 C 0.15763 0.22015 0.01604 0.0
C113 C 0.13855 0.17926 0.02418 0.0
C114 C 0.23101 0.26077 0.99641 0.0
C115 C 0.20692 0.30043 0.98668 0.0
C116 C 0.28822 0.26213 0.00894 0.0
C117 C 0.31537 0.22274 0.02209 0.0
C118 C 0.29842 0.20618 0.04751 0.0
C119 C 0.32405 0.16899 0.05978 0.0
C120 C 0.36718 0.14845 0.04706 0.0
C121 C 0.38485 0.16517 0.0221 0.0
C122 C 0.35918 0.20226 0.00966 0.0
C123 C 0.34702 0.45775 0.04925 0.0
C124 C 0.3998 0.46257 0.04182 0.0
C125 C 0.31169 0.42036 0.03507 0.0
C126 C 0.32855 0.3869 0.01329 0.0
C127 C 0.38036 0.3927 0.00479 0.0
C128 C 0.41555 0.43054 0.01874 0.0
C129 C 0.2954 0.34314 0.00314 0.0
C130 C 0.31977 0.30294 0.01156 0.0
C131 C 0.2385 0.34171 0.98979 0.0
C132 C 0.21136 0.38273 0.97894 0.0
C133 C 0.23466 0.40776 0.95907 0.0
C134 C 0.20904 0.44637 0.94888 0.0
C135 C 0.15989 0.46018 0.95826 0.0
C136 C 0.13625 0.4354 0.97785 0.0
C137 C 0.16177 0.39682 0.98816 0.0
H138 H 0.14009 0.49005 0.95033 0.0
H139 H 0.38705 0.11971 0.05662 0.0
H140 H 0.12181 0.86209 0.98524 0.0
H141 H 0.1701 0.79229 0.9704 0.0
H142 H 0.32525 0.85902 0.01757 0.0
H143 H 0.27823 0.92784 0.0326 0.0
H144 H 0.32187 0.8151 0.95385 0.0
H145 H 0.26482 0.7888 0.05283 0.0
H146 H 0.19272 0.77568 0.0834 0.0
H147 H 0.12641 0.65951 0.0166 0.0
H148 H 0.19774 0.67236 0.98544 0.0
H149 H 0.54666 0.68535 0.98899 0.0
H150 H 0.4696 0.73582 0.99178 0.0
H151 H 0.3548 0.6185 0.96725 0.0
H152 H 0.43237 0.56771 0.96662 0.0
H153 H 0.31712 0.67623 0.00592 0.0
H154 H 0.37869 0.68908 0.91216 0.0
H155 H 0.44586 0.69778 0.8778 0.0
H156 H 0.49357 0.83306 0.9259 0.0
H157 H 0.42729 0.82496 0.96084 0.0
C158 C 0.1662 0.86173 0.99241 0.0
C159 C 0.19619 0.90051 0.01009 0.0
C160 C 0.19357 0.82194 0.98396 0.0
C161 C 0.25111 0.82085 0.99285 0.0
C162 C 0.28083 0.85942 0.01039 0.0
C163 C 0.25373 0.89869 0.01906 0.0
C164 C 0.282 0.78013 0.98425 0.0
C165 C 0.3208 0.78453 0.96503 0.0
C166 C 0.27852 0.73953 -0.00231 0.0
C167 C 0.2361 0.73189 0.01663 0.0
C168 C 0.23456 0.76073 0.04453 0.0
C169 C 0.19391 0.75328 0.06199 0.0
C170 C 0.15488 0.71689 0.05189 0.0
C171 C 0.15656 0.68776 0.02436 0.0
C172 C 0.19709 0.6951 0.00681 0.0
C173 C 0.50497 0.67044 0.98456 0.0
C174 C 0.49525 0.62294 0.97743 0.0
C175 C 0.46092 0.69921 0.98585 0.0
C176 C 0.4062 0.68107 0.97862 0.0
C177 C 0.39656 0.63332 0.97259 0.0
C178 C 0.44087 0.60438 0.97222 0.0
C179 C 0.35957 0.71239 0.97696 0.0
C180 C 0.31757 0.70607 0.99397 0.0
C181 C 0.35899 0.75072 0.96066 0.0
C182 C 0.39804 0.75633 0.93919 0.0
C183 C 0.40361 0.72065 0.91547 0.0
C184 C 0.44156 0.72546 0.8959 0.0
C185 C 0.47399 0.76593 0.89968 0.0
C186 C 0.46839 0.80174 0.92298 0.0
C187 C 0.43053 0.7971 0.94263 0.0
H188 H 0.50343 0.76955 0.88455 0.0
H189 H 0.12345 0.71118 0.06543 0.0
H190 H 0.88286 0.94458 0.02288 0.0
H191 H 0.82725 0.89161 0.0439 0.0
H192 H 0.91486 0.77803 0.00613 0.0
H193 H 0.96815 0.83138 0.98335 0.0
H194 H 0.81112 0.76234 0.98718 0.0
H195 H 0.91809 0.81513 0.0892 0.0
H196 H 0.96087 0.87538 0.13151 0.0
H197 H 0.80102 0.92613 0.13976 0.0
H198 H 0.75732 0.8667 0.09729 0.0
H199 H 0.63293 0.6064 0.03689 0.0
H200 H 0.71496 0.64948 0.03037 0.0
H201 H 0.64591 0.77571 0.06481 0.0
H202 H 0.56494 0.7324 0.07255 0.0
H203 H 0.75004 0.77766 0.08908 0.0
H204 H 0.64546 0.74113 0.98495 0.0
H205 H 0.59576 0.68934 0.93949 0.0
H206 H 0.74334 0.61581 0.93333 0.0
H207 H 0.79391 0.66716 0.97883 0.0
C208 C 0.89185 0.90852 0.02034 0.0
C209 C 0.93026 0.89191 0.00211 0.0
C210 C 0.86002 0.87811 0.03236 0.0
C211 C 0.86701 0.83059 0.02695 0.0
C212 C 0.90868 0.81446 0.0107 0.0
C213 C 0.93964 0.84488 -0.00196 0.0
C214 C 0.82585 0.79787 0.03415 0.0
C215 C 0.79891 0.76498 0.00977 0.0
C216 C 0.80817 0.80228 0.06322 0.0
C217 C 0.83444 0.8365 0.08991 0.0
C218 C 0.89206 0.83914 0.10003 0.0
C219 C 0.91648 0.87323 0.12402 0.0
C220 C 0.88366 0.90469 0.13819 0.0
C221 C 0.82636 0.90178 0.12872 0.0
C222 C 0.80175 0.86783 0.10475 0.0
C223 C 0.63523 0.64335 0.04293 0.0
C224 C 0.5926 0.66626 0.05508 0.0
C225 C 0.68209 0.66797 0.03916 0.0
C226 C 0.68652 0.71598 0.04684 0.0
C227 C 0.64368 0.73873 0.05887 0.0
C228 C 0.5973 0.71406 0.06309 0.0
C229 C 0.73529 0.74279 0.04204 0.0
C230 C 0.76338 0.77446 0.06678 0.0
C231 C 0.75337 0.73807 0.01314 0.0
C232 C 0.72332 0.70769 0.98544 0.0
C233 C 0.66726 0.71383 0.97395 0.0
C234 C 0.63897 0.68462 0.94815 0.0
C235 C 0.66632 0.6492 0.9336 0.0
C236 C 0.72218 0.64319 0.94466 0.0
C237 C 0.75073 0.67242 0.97039 0.0
H238 H 0.64426 0.62647 0.91374 0.0
H239 H 0.90245 0.93145 0.15645 0.0
H240 H 0.9052 0.1218 0.93735 0.0
H241 H 0.85704 0.19341 0.94427 0.0
H242 H 0.88953 0.19406 0.04362 0.0
H243 H 0.94011 0.1232 0.03697 0.0
H244 H 0.76253 0.19752 0.99236 0.0
H245 H 0.93982 0.26946 0.04675 0.0
H246 H 0.04042 0.28259 0.05177 0.0
H247 H 0.01582 0.33415 0.96408 0.0
H248 H 0.91504 0.32013 0.95814 0.0
H249 H 0.61292 0.40096 0.99359 0.0
H250 H 0.67775 0.34514 0.01306 0.0
H251 H 0.7742 0.36456 0.9428 0.0
H252 H 0.71204 0.42248 0.92468 0.0
H253 H 0.84101 0.3542 0.99353 0.0
H254 H 0.67378 0.2751 0.93384 0.0
H255 H 0.57364 0.25593 0.92103 0.0
H256 H 0.57881 0.21379 0.01091 0.0
H257 H 0.67896 0.23324 0.02437 0.0
C258 C 0.90257 0.13749 0.96068 0.0
C259 C 0.92606 0.11713 0.98665 0.0
C260 C 0.87538 0.17834 0.96459 0.0
C261 C 0.87044 0.19894 0.99443 0.0
C262 C 0.89389 0.17886 0.02048 0.0
C263 C 0.92248 0.1385 0.01664 0.0
C264 C 0.83683 0.23951 -0.0025 0.0
C265 C 0.77955 0.23212 0.99362 0.0
C266 C 0.85949 0.28403 -0.00185 0.0
C267 C 0.91994 0.29307 0.0018 0.0
C268 C 0.95589 0.28296 0.02832 0.0
C269 C 0.01293 0.29069 0.03138 0.0
C270 C 0.03449 0.309 0.00819 0.0
C271 C 0.99904 0.31981 0.98196 0.0
C272 C 0.94196 0.31196 0.97874 0.0
C273 C 0.64848 0.39397 0.98265 0.0
C274 C 0.65679 0.41574 0.95724 0.0
C275 C 0.68528 0.36178 0.99367 0.0
C276 C 0.73039 0.35015 0.97909 0.0
C277 C 0.73967 0.37289 0.95441 0.0
C278 C 0.70348 0.40547 0.94371 0.0
C279 C 0.76611 0.3123 0.98789 0.0
C280 C 0.82378 0.32005 0.99356 0.0
C281 C 0.74376 0.26776 0.98827 0.0
C282 C 0.68361 0.25622 0.98026 0.0
C283 C 0.65344 0.26209 0.95095 0.0
C284 C 0.59673 0.25112 0.94356 0.0
C285 C 0.56984 0.23382 0.96519 0.0
C286 C 0.59966 0.22732 0.99422 0.0
C287 C 0.65639 0.23831 0.00174 0.0
H288 H 0.52593 0.22532 0.95943 0.0
H289 H 0.07864 0.31492 0.01059 0.0
H290 H 0.77848 0.62875 0.5186 0.0
H291 H 0.80012 0.70248 0.50394 0.0
H292 H 0.62626 0.72746 0.4822 0.0
H293 H 0.60418 0.65263 0.4973 0.0
H294 H 0.7791 0.75523 0.4564 0.0
H295 H 0.61074 0.82396 0.5108 0.0
H296 H 0.5456 0.80461 0.54424 0.0
H297 H 0.67486 0.74099 0.60051 0.0
H298 H 0.74054 0.75999 0.5673 0.0
H299 H 0.881 -0.0031 0.51045 0.0
H300 H 0.81491 0.93393 0.48429 0.0
H301 H 0.86056 0.85954 0.56207 0.0
H302 H 0.9275 0.92046 0.58753 0.0
H303 H 0.74245 0.86967 0.54283 0.0
H304 H 0.91241 0.82962 0.50225 0.0
H305 H 0.9843 0.84544 0.47216 0.0
H306 H 0.85986 0.84845 0.39091 0.0
H307 H 0.78715 0.8334 0.42072 0.0
C308 C 0.74464 0.64941 0.51006 0.0
C309 C 0.68967 0.63555 0.50983 0.0
C310 C 0.75711 0.69144 0.50129 0.0
C311 C 0.71497 0.72089 0.49233 0.0
C312 C 0.65952 0.70542 0.48931 0.0
C313 C 0.64689 0.66277 0.49794 0.0
C314 C 0.73096 0.76985 0.49262 0.0
C315 C 0.76959 0.78095 0.4745 0.0
C316 C 0.71887 0.80348 0.51622 0.0
C317 C 0.68025 0.7934 0.53673 0.0
C318 C 0.62516 0.8061 0.53044 0.0
C319 C 0.58816 0.79504 0.54925 0.0
C320 C 0.60606 0.77153 0.57446 0.0
C321 C 0.66104 0.75916 0.58097 0.0
C322 C 0.69813 0.77006 0.5622 0.0
C323 C 0.87728 0.96688 0.52179 0.0
C324 C 0.90879 0.96422 0.55144 0.0
C325 C 0.83928 0.93117 0.5069 0.0
C326 C 0.83221 0.8926 0.52159 0.0
C327 C 0.8646 0.88948 0.55067 0.0
C328 C 0.90273 0.92455 0.56527 0.0
C329 C 0.79185 0.85446 0.50734 0.0
C330 C 0.74918 0.84538 0.52321 0.0
C331 C 0.8005 0.82286 0.48174 0.0
C332 C 0.84433 0.8311 0.46381 0.0
C333 C 0.90036 0.83408 0.47805 0.0
C334 C 0.94126 0.84284 0.46104 0.0
C335 C 0.92665 0.84817 0.42968 0.0
C336 C 0.87111 0.84448 0.41523 0.0
C337 C 0.83005 0.83586 0.43217 0.0
H338 H 0.95836 0.85501 0.41656 0.0
H339 H 0.57733 0.76292 0.58894 0.0
H340 H 0.61861 0.36447 0.47332 0.0
H341 H 0.66264 0.29166 0.4597 0.0
H342 H 0.81069 0.34138 0.52454 0.0
H343 H 0.76824 0.41271 0.53806 0.0
H344 H 0.83039 0.30728 0.46604 0.0
H345 H 0.72283 0.26645 0.54298 0.0
H346 H 0.63492 0.25383 0.5607 0.0
H347 H 0.57993 0.15453 0.4799 0.0
H348 H 0.6673 0.16704 0.46152 0.0
H349 H 0.01794 0.14545 0.50422 0.0
H350 H 0.94837 0.20277 0.50681 0.0
H351 H 0.82339 0.10351 0.45482 0.0
H352 H 0.89249 0.04451 0.45543 0.0
H353 H 0.77779 0.15645 0.49307 0.0
H354 H 0.89026 0.18809 0.41981 0.0
H355 H 0.9779 0.19988 0.40162 0.0
H356 H 0.02148 0.31651 0.4721 0.0
H357 H 0.93442 0.30514 0.49093 0.0
C358 C 0.66047 0.35965 0.48463 0.0
C359 C 0.68991 0.3947 0.50658 0.0
C360 C 0.68547 0.31811 0.4769 0.0
C361 C 0.74008 0.31135 0.49102 0.0
C362 C 0.76877 0.346 0.51315 0.0
C363 C 0.74414 0.38693 0.52087 0.0
C364 C 0.76949 0.26918 0.48295 0.0
C365 C 0.81882 0.27419 0.4718 0.0
C366 C 0.75338 0.22573 0.48944 0.0
C367 C 0.70122 0.21811 0.50069 0.0
C368 C 0.69178 0.24223 0.52887 0.0
C369 C 0.64211 0.23503 0.53906 0.0
C370 C 0.60178 0.20352 0.52138 0.0
C371 C 0.61114 0.17901 0.49353 0.0
C372 C 0.66072 0.18612 0.48323 0.0
C373 C 0.97537 0.1355 0.49429 0.0
C374 C 0.96067 0.09054 0.48002 0.0
C375 C 0.93565 0.16854 0.49512 0.0
C376 C 0.88076 0.1581 0.47995 0.0
C377 C 0.86549 0.11266 0.46641 0.0
C378 C 0.90508 0.079 0.46667 0.0
C379 C 0.84038 0.19515 0.47764 0.0
C380 C 0.78892 0.18911 0.48655 0.0
C381 C 0.85422 0.23781 0.46877 0.0
C382 C 0.9058 0.24568 0.45679 0.0
C383 C 0.91854 0.21624 0.43142 0.0
C384 C 0.96815 0.22283 0.42103 0.0
C385 C 0.00524 0.2589 0.4357 0.0
C386 C 0.99268 0.28861 0.46072 0.0
C387 C 0.94314 0.28219 0.47121 0.0
H388 H 0.04369 0.26385 0.42768 0.0
H389 H 0.56334 0.19801 0.5293 0.0
H390 H 0.35942 0.38059 0.44592 0.0
H391 H 0.31352 0.31461 0.45987 0.0
H392 H 0.43686 0.31906 0.54297 0.0
H393 H 0.48284 0.38623 0.52945 0.0
H394 H 0.3378 0.22538 0.47835 0.0
H395 H 0.38297 0.33066 0.59148 0.0
H396 H 0.40321 0.41184 0.61462 0.0
H397 H 0.27628 0.45393 0.54535 0.0
H398 H 0.2564 0.37321 0.5214 0.0
H399 H 0.16352 0.09717 0.55322 0.0
H400 H 0.2429 0.13768 0.54087 0.0
H401 H 0.15145 0.26152 0.53979 0.0
H402 H 0.07407 0.22182 0.55435 0.0
H403 H 0.24754 0.28476 0.56684 0.0
H404 H 0.17402 0.1859 0.47135 0.0
H405 H 0.14361 0.11097 0.44011 0.0
H406 H 0.30721 0.06231 0.46293 0.0
H407 H 0.33839 0.13679 0.49469 0.0
C408 C 0.37773 0.36695 0.46682 0.0
C409 C 0.42412 0.38925 0.48696 0.0
C410 C 0.3516 0.32891 0.4746 0.0
C411 C 0.37129 0.3124 0.50264 0.0
C412 C 0.42074 0.33168 0.52134 0.0
C413 C 0.44705 0.36995 0.51356 0.0
C414 C 0.33447 0.28149 0.51457 0.0
C415 C 0.31888 0.23767 0.49814 0.0
C416 C 0.30825 0.29832 0.53951 0.0
C417 C 0.3182 0.34623 0.55487 0.0
C418 C 0.35927 0.35734 0.58142 0.0
C419 C 0.37085 0.40317 0.59455 0.0
C420 C 0.34095 0.43795 0.58158 0.0
C421 C 0.29942 0.42698 0.55539 0.0
C422 C 0.28811 0.38126 0.54198 0.0
C423 C 0.16058 0.133 0.55019 0.0
C424 C 0.1129 0.15654 0.55456 0.0
C425 C 0.20582 0.15612 0.54304 0.0
C426 C 0.20322 0.20269 0.539 0.0
C427 C 0.15493 0.22578 0.54299 0.0
C428 C 0.11056 0.20308 0.55109 0.0
C429 C 0.25038 0.22787 0.53079 0.0
C430 C 0.26751 0.27118 0.54773 0.0
C431 C 0.27658 0.21087 0.50564 0.0
C432 C 0.25841 0.16674 0.48561 0.0
C433 C 0.20347 0.15917 0.46975 0.0
C434 C 0.18608 0.11679 0.45198 0.0
C435 C 0.22342 0.08186 0.4496 0.0
C436 C 0.27831 0.08937 0.46483 0.0
C437 C 0.29588 0.13167 0.4827 0.0
H438 H 0.20982 0.04901 0.43593 0.0
H439 H 0.35006 0.47339 0.59179 0.0
H440 H 0.36582 0.6157 0.53789 0.0
H441 H 0.32253 0.68895 0.53521 0.0
H442 H 0.46933 0.74652 0.51166 0.0
H443 H 0.5128 0.67245 0.51366 0.0
H444 H 0.33462 0.77715 0.55836 0.0
H445 H 0.43281 0.80733 0.4556 0.0
H446 H 0.47921 0.76475 0.41599 0.0
H447 H 0.38118 0.64322 0.41735 0.0
H448 H 0.33424 0.68519 0.45693 0.0
H449 H 0.18632 0.96436 0.49674 0.0
H450 H 0.26168 0.91748 0.51804 0.0
H451 H 0.20384 0.80696 0.44393 0.0
H452 H 0.13002 0.85385 0.4224 0.0
H453 H 0.31 0.81558 0.45085 0.0
H454 H 0.17888 0.81045 0.52067 0.0
H455 H 0.12282 0.84394 0.55847 0.0
H456 H 0.26977 0.90231 0.61995 0.0
H457 H 0.32665 0.86961 0.58229 0.0
C458 C 0.38955 0.64419 0.53285 0.0
C459 C 0.44232 0.63796 0.52532 0.0
C460 C 0.36477 0.68626 0.53151 0.0
C461 C 0.39217 0.72306 0.52263 0.0
C462 C 0.44706 0.71836 0.51811 0.0
C463 C 0.47198 0.67605 0.5194 0.0
C464 C 0.36 0.7631 0.5139 0.0
C465 C 0.32994 0.78622 0.53504 0.0
C466 C 0.35309 0.77447 0.48334 0.0
C467 C 0.38039 0.74928 0.45925 0.0
C468 C 0.42111 0.77158 0.44733 0.0
C469 C 0.44754 0.74754 0.42496 0.0
C470 C 0.43317 0.70131 0.41418 0.0
C471 C 0.39232 0.679 0.42575 0.0
C472 C 0.36587 0.70287 0.44817 0.0
C473 C 0.18978 0.92995 0.4852 0.0
C474 C 0.15257 0.91273 0.45787 0.0
C475 C 0.23279 0.90321 0.49733 0.0
C476 C 0.23856 0.85857 0.48261 0.0
C477 C 0.20082 0.8414 0.45554 0.0
C478 C 0.15849 0.86817 0.44328 0.0
C479 C 0.28322 0.82894 0.49504 0.0
C480 C 0.31578 0.80778 0.47452 0.0
C481 C 0.2911 0.8185 0.52591 0.0
C482 C 0.25692 0.83811 0.54851 0.0
C483 C 0.19918 0.83074 0.54214 0.0
C484 C 0.16727 0.84952 0.56356 0.0
C485 C 0.1927 0.87537 0.59155 0.0
C486 C 0.25012 0.88238 0.59822 0.0
C487 C 0.28221 0.86373 0.57686 0.0
H488 H 0.16795 0.88987 0.60811 0.0
H489 H 0.45362 0.68281 0.39683 0.0
H490 H 0.9885 0.05693 0.11209 0.0
H491 H 0.96798 0.04584 0.16322 0.0
H492 H 0.06638 0.92596 0.16294 0.0
H493 H 0.08576 0.93662 0.11188 0.0
H494 H 0.982 0.91564 0.19272 0.0
H495 H 0.12439 0.03137 0.19305 0.0
H496 H 0.1608 0.10241 0.17858 0.0
H497 H 0.0413 0.17997 0.22107 0.0
H498 H 0.00366 0.10921 0.23539 0.0
H499 H 0.08173 0.90394 0.35016 0.0
H500 H 0.07055 0.90985 0.2951 0.0
H501 H 0.99759 0.04119 0.31058 0.0
H502 H 0.01483 0.03825 0.36616 0.0
H503 H 0.05875 0.04716 0.2721 0.0
H504 H 0.92101 0.93271 0.27717 0.0
H505 H 0.88506 0.86148 0.29159 0.0
H506 H 0.99022 0.78241 0.23889 0.0
H507 H 0.02738 0.8532 0.22451 0.0
C508 C 0.00366 0.02726 0.12253 0.0
C509 C 0.03835 -0.00258 0.10834 0.0
C510 C 0.99244 0.02114 0.15175 0.0
C511 C 0.01667 0.98561 0.16712 0.0
C512 C 0.04741 0.95363 0.15158 0.0
C513 C 0.05839 0.95965 0.12244 0.0
C514 C 0.01643 0.98476 0.20058 0.0
C515 C 0.99813 0.94453 0.2101 0.0
C516 C 0.03782 0.0224 0.22328 0.0
C517 C 0.06082 0.06497 0.21496 0.0
C518 C 0.10566 0.06354 0.19912 0.0
C519 C 0.12653 0.10374 0.19097 0.0
C520 C 0.10327 0.14566 0.19882 0.0
C521 C 0.05919 0.14747 0.21494 0.0
C522 C 0.03808 0.10733 0.22308 0.0
C523 C 0.06431 0.9346 0.34212 0.0
C524 C 0.049 0.9705 0.36298 0.0
C525 C 0.05673 0.93744 0.31033 0.0
C526 C 0.03157 0.97533 0.29836 0.0
C527 C 0.01652 0.01131 0.31907 0.0
C528 C 0.02572 0.0092 0.35097 0.0
C529 C 0.02279 0.97831 0.26446 0.0
C530 C 0.0404 0.01878 0.25482 0.0
C531 C 7e-05 0.94103 0.24166 0.0
C532 C 0.97725 0.89832 0.24995 0.0
C533 C 0.93666 0.90015 0.26879 0.0
C534 C 0.91607 0.85985 0.27694 0.0
C535 C 0.93542 0.81746 0.26621 0.0
C536 C 0.97529 0.81526 0.2472 0.0
C537 C 0.99608 0.85546 0.23901 0.0
H538 H 0.91946 0.7863 0.27258 0.0
H539 H 0.11948 0.17675 0.19249 0.0
H540 H 0.10722 0.07729 0.92136 0.0
H541 H 0.12044 0.10079 0.87175 0.0
H542 H 0.08836 0.96073 0.82743 0.0
H543 H 0.07623 0.93728 0.8766 0.0
H544 H 0.15695 0.00301 0.79947 0.0
H545 H 0.98242 0.03536 0.83558 0.0
H546 H 0.92822 0.07314 0.87303 0.0
H547 H 0.98983 0.20508 0.85995 0.0
H548 H 0.04503 0.16796 0.82274 0.0
H549 H 0.99326 0.97734 0.65446 0.0
H550 H 0.02287 0.98265 0.7104 0.0
H551 H 0.05027 0.12896 0.71708 0.0
H552 H 0.01794 0.12436 0.6608 0.0
H553 H 0.00371 0.10292 0.76595 0.0
H554 H 0.15878 0.06394 0.71719 0.0
H555 H 0.20414 0.02022 0.67771 0.0
H556 H 0.17289 0.89544 0.71323 0.0
H557 H 0.12658 0.93828 0.75262 0.0
C558 C 0.1055 0.05134 0.9013 0.0
C559 C 0.08977 0.00562 0.90256 0.0
C560 C 0.11257 0.06483 0.87293 0.0
C561 C 0.10387 0.03269 0.84573 0.0
C562 C 0.09489 0.98622 0.848 0.0
C563 C 0.08781 0.97282 0.87614 0.0
C564 C 0.09501 0.04707 0.81434 0.0
C565 C 0.12393 0.02529 0.7922 0.0
C566 C 0.05229 0.07663 0.80488 0.0
C567 C 0.0183 0.09892 0.82672 0.0
C568 C 0.98455 0.07242 0.84081 0.0
C569 C 0.95369 0.09369 0.86199 0.0
C570 C 0.95572 0.14147 0.86894 0.0
C571 C 0.98843 0.16807 0.85461 0.0
C572 C 0.01952 0.14695 0.83349 0.0
C573 C 0.00409 0.01092 0.66777 0.0
C574 C 0.00342 0.05043 0.65303 0.0
C575 C 0.02176 0.01378 0.69976 0.0
C576 C 0.04007 0.05603 0.71771 0.0
C577 C 0.03692 0.09596 0.70351 0.0
C578 C 0.0188 0.09319 0.67137 0.0
C579 C 0.06433 0.05745 0.75104 0.0
C580 C 0.0382 0.08212 0.77339 0.0
C581 C 0.10909 0.03001 0.76064 0.0
C582 C 0.13918 0.00438 0.73788 0.0
C583 C 0.16157 0.02718 0.71658 0.0
C584 C 0.18737 0.00253 0.69418 0.0
C585 C 0.19139 0.95508 0.69295 0.0
C586 C 0.16983 0.93221 0.71423 0.0
C587 C 0.14391 0.95668 0.73666 0.0
H588 H 0.2112 0.93604 0.67551 0.0
H589 H 0.93185 0.15789 0.88536 0.0
H590 H 0.64755 0.49571 0.63907 0.0
H591 H 0.62 0.48383 0.68769 0.0
H592 H 0.45157 0.51118 0.65043 0.0
H593 H 0.47903 0.52232 0.60058 0.0
H594 H 0.50848 0.5646 0.71362 0.0
H595 H 0.45894 0.41206 0.66339 0.0
H596 H 0.47007 0.33984 0.62988 0.0
H597 H 0.62097 0.3181 0.69074 0.0
H598 H 0.61122 0.39058 0.72415 0.0
H599 H 0.47511 0.50775 0.8648 0.0
H600 H 0.45665 0.51077 0.80873 0.0
H601 H 0.62171 0.46864 0.80298 0.0
H602 H 0.64155 0.46756 0.85896 0.0
H603 H 0.53812 0.41867 0.75767 0.0
H604 H 0.59837 0.57434 0.80149 0.0
H605 H 0.59408 0.64736 0.83543 0.0
H606 H 0.42946 0.66437 0.78766 0.0
H607 H 0.43247 0.59093 0.75373 0.0
C608 C 0.6045 0.49907 0.64102 0.0
C609 C 0.56552 0.51047 0.61615 0.0
C610 C 0.58881 0.49199 0.66881 0.0
C611 C 0.53388 0.49665 0.67263 0.0
C612 C 0.49424 0.50745 0.64781 0.0
C613 C 0.50987 0.51369 0.61946 0.0
C614 C 0.52046 0.49225 0.70351 0.0
C615 C 0.51288 0.53242 0.72307 0.0
C616 C 0.52806 0.45053 0.71596 0.0
C617 C 0.53447 0.40691 0.69603 0.0
C618 C 0.49475 0.39207 0.66932 0.0
C619 C 0.50074 0.35107 0.65044 0.0
C620 C 0.54622 0.32445 0.65814 0.0
C621 C 0.58576 0.33876 0.68478 0.0
C622 C 0.57998 0.37979 0.70371 0.0
C623 C 0.5078 0.49972 0.85172 0.0
C624 C 0.55985 0.48723 0.86652 0.0
C625 C 0.49695 0.50114 0.81965 0.0
C626 C 0.53773 0.48966 0.80178 0.0
C627 C 0.5895 0.47711 0.81637 0.0
C628 C 0.60065 0.4763 0.8484 0.0
C629 C 0.52736 0.49113 0.76786 0.0
C630 C 0.53128 0.45049 0.74798 0.0
C631 C 0.51704 0.53251 0.75526 0.0
C632 C 0.5153 0.57682 0.7754 0.0
C633 C 0.56103 0.59341 0.79843 0.0
C634 C 0.55889 0.63492 0.81762 0.0
C635 C 0.51143 0.6604 0.81379 0.0
C636 C 0.46612 0.64451 0.79066 0.0
C637 C 0.46802 0.60295 0.77144 0.0
H638 H 0.50982 0.69252 0.82869 0.0
H639 H 0.55077 0.29269 0.64351 0.0
H640 H 0.48893 0.60119 0.40405 0.0
H641 H 0.49387 0.60873 0.35019 0.0
H642 H 0.59443 0.49031 0.34505 0.0
H643 H 0.59192 0.48426 0.39978 0.0
H644 H 0.62416 0.54872 0.30956 0.0
H645 H 0.45249 0.48022 0.32095 0.0
H646 H 0.36757 0.4746 0.34285 0.0
H647 H 0.3131 0.5993 0.30907 0.0
H648 H 0.39808 0.60595 0.2873 0.0
H649 H 0.52309 0.47163 0.14562 0.0
H650 H 0.54199 0.47722 0.20261 0.0
H651 H 0.49042 0.61682 0.20987 0.0
H652 H 0.47296 0.61179 0.15288 0.0
H653 H 0.43836 0.54891 0.24368 0.0
H654 H 0.61243 0.61244 0.22946 0.0
H655 H 0.69681 0.61249 0.20664 0.0
H656 H 0.74526 0.48902 0.24406 0.0
H657 H 0.66062 0.48784 0.2667 0.0
C658 C 0.51304 0.57738 0.39159 0.0
C659 C 0.53945 0.54179 0.4058 0.0
C660 C 0.51566 0.58155 0.36079 0.0
C661 C 0.54303 0.54919 0.34325 0.0
C662 C 0.57267 0.51544 0.35805 0.0
C663 C 0.57121 0.51196 0.38925 0.0
C664 C 0.53643 0.54835 0.30904 0.0
C665 C 0.58353 0.54835 0.29515 0.0
C666 C 0.4834 0.54804 0.29013 0.0
C667 C 0.43183 0.54378 0.30274 0.0
C668 C 0.42251 0.50655 0.31833 0.0
C669 C 0.37438 0.50318 0.33071 0.0
C670 C 0.33503 0.53663 0.32741 0.0
C671 C 0.34365 0.57344 0.31163 0.0
C672 C 0.39176 0.577 0.29923 0.0
C673 C 0.51601 0.50349 0.15947 0.0
C674 C 0.49643 0.54125 0.14507 0.0
C675 C 0.52709 0.50672 0.19188 0.0
C676 C 0.51782 0.54749 0.21027 0.0
C677 C 0.49804 0.5852 0.19595 0.0
C678 C 0.4881 0.5823 0.16355 0.0
C679 C 0.52593 0.54984 0.24444 0.0
C680 C 0.47895 0.54965 0.25821 0.0
C681 C 0.5789 0.5491 0.26301 0.0
C682 C 0.62984 0.54976 0.24947 0.0
C683 C 0.64075 0.58502 0.23254 0.0
C684 C 0.68871 0.58532 0.2197 0.0
C685 C 0.72629 0.5507 0.22381 0.0
C686 C 0.71606 0.51577 0.24085 0.0
C687 C 0.66812 0.51529 0.25371 0.0
H688 H 0.76341 0.55101 0.21387 0.0
H689 H 0.29781 0.53398 0.33704 0.0
loop_
_geom_bond_atom_site_label_1
_geom_bond_atom_site_label_2
_geom_bond_distance
_geom_bond_site_symmetry_2
_ccdc_geom_bond_type
O0 Mg1 1.990 . S
O0 C14 1.253 . S
Mg1 O0 1.990 . S
Mg1 O4 2.180 . S
Mg1 O5 2.117 . S
Mg1 O19 2.030 1_545 S
O2 Mg3 2.072 . S
O2 C14 1.260 . S
Mg3 O2 2.072 . S
Mg3 O4 2.099 . S
Mg3 O6 2.079 1_554 S
Mg3 O7 2.072 . S
Mg3 O9 2.099 1_444 S
Mg3 O20 2.080 1_545 S
O4 Mg1 2.180 . S
O4 Mg3 2.099 . S
O4 C15 1.279 . S
O5 Mg1 2.117 . S
O5 C15 1.250 . S
O6 Mg3 2.079 1_556 S
O6 C16 1.264 . S
O7 Mg3 2.072 . S
O7 C17 1.260 1_454 S
Mg8 O9 2.180 . S
Mg8 O10 2.030 1_565 S
Mg8 O11 1.990 1_565 S
Mg8 O12 2.117 . S
O9 Mg3 2.099 1_666 S
O9 Mg8 2.180 . S
O9 C18 1.279 . S
O10 Mg8 2.030 1_545 S
O10 C16 1.248 1_655 S
O11 Mg8 1.990 1_545 S
O11 C17 1.253 . S
O12 Mg8 2.117 . S
O12 C18 1.250 . S
C13 O19 1.248 . S
C13 O20 1.276 . S
C14 O0 1.253 . S
C14 O2 1.260 . S
C15 O4 1.279 . S
C15 O5 1.250 . S
C16 O6 1.264 . S
C16 O10 1.248 1_455 S
C17 O7 1.260 1_656 S
C17 O11 1.253 . S
C18 O9 1.279 . S
C18 O12 1.250 . S
O19 Mg1 2.030 1_565 S
O19 C13 1.248 . S
O20 Mg3 2.080 1_565 S
O20 C13 1.276 . S
O21 Mg22 1.990 . S
O21 C35 1.253 . S
Mg22 O21 1.990 . S
Mg22 O25 2.180 . S
Mg22 O26 2.117 . S
Mg22 O40 2.030 . S
O23 Mg24 2.072 . S
O23 C35 1.260 . S
Mg24 O23 2.072 . S
Mg24 O25 2.099 . S
Mg24 O27 2.079 . S
Mg24 O28 2.072 . S
Mg24 O30 2.099 . S
Mg24 O41 2.079 . S
O25 Mg22 2.180 . S
O25 Mg24 2.099 . S
O25 C36 1.279 . S
O26 Mg22 2.117 . S
O26 C36 1.250 . S
O27 Mg24 2.079 . S
O27 C37 1.264 . S
O28 Mg24 2.072 . S
O28 C38 1.260 . S
Mg29 O30 2.180 . S
Mg29 O31 2.030 . S
Mg29 O32 1.990 . S
Mg29 O33 2.117 . S
O30 Mg24 2.099 . S
O30 Mg29 2.180 . S
O30 C39 1.279 . S
O31 Mg29 2.030 . S
O31 C37 1.248 . S
O32 Mg29 1.990 . S
O32 C38 1.253 . S
O33 Mg29 2.117 . S
O33 C39 1.250 . S
C34 O40 1.248 . S
C34 O41 1.264 . S
C35 O21 1.253 . S
C35 O23 1.260 . S
C36 O25 1.279 . S
C36 O26 1.250 . S
C37 O27 1.264 . S
C37 O31 1.248 . S
C38 O28 1.260 . S
C38 O32 1.253 . S
C39 O30 1.279 . S
C39 O33 1.250 . S
O40 Mg22 2.030 . S
O40 C34 1.248 . S
O41 Mg24 2.079 . S
O41 C34 1.264 . S
H42 C47 0.930 . S
H43 C50 0.930 . S
H44 C52 0.930 . S
H45 C46 1.016 . S
C46 H45 1.016 . S
C46 N53 1.286 1_655 S
C47 H42 0.930 . S
C47 C48 1.397 . S
C47 C49 1.361 1_565 S
C48 C47 1.397 . S
C48 C52 1.390 . S
C49 C47 1.361 1_545 S
C49 C50 1.393 . S
C49 N53 1.413 . S
C50 H43 0.930 . S
C50 C49 1.393 . S
C50 C51 1.399 1_545 S
C51 C50 1.399 1_565 S
C51 C52 1.381 . S
C52 H44 0.930 . S
C52 C48 1.390 . S
C52 C51 1.381 . S
N53 C46 1.286 1_455 S
N53 C49 1.413 . S
H54 C59 0.930 . S
H55 C62 0.930 . S
H56 C64 0.930 . S
H57 C58 1.016 . S
C58 H57 1.016 . S
C58 N65 1.286 . S
C59 H54 0.930 . S
C59 C60 1.397 . S
C59 C61 1.361 1_655 S
C60 C59 1.397 . S
C60 C64 1.390 . S
C61 C59 1.361 1_455 S
C61 C62 1.393 . S
C61 N65 1.413 . S
C62 H55 0.930 . S
C62 C61 1.393 . S
C62 C63 1.399 1_455 S
C63 C62 1.399 1_655 S
C63 C64 1.381 . S
C64 H56 0.930 . S
C64 C60 1.390 . S
C64 C63 1.381 . S
N65 C58 1.286 . S
N65 C61 1.413 . S
H66 C71 0.930 . S
H67 C74 0.930 . S
H68 C76 0.930 . S
H69 C70 1.016 . S
C70 H69 1.016 . S
C70 N77 1.286 . S
C71 H66 0.930 . S
C71 C72 1.397 . S
C71 C73 1.361 . S
C72 C71 1.397 . S
C72 C76 1.390 . S
C73 C71 1.361 . S
C73 C74 1.393 . S
C73 N77 1.413 . S
C74 H67 0.930 . S
C74 C73 1.393 . S
C74 C75 1.399 . S
C75 C74 1.399 . S
C75 C76 1.381 . S
C76 H68 0.930 . S
C76 C72 1.390 . S
C76 C75 1.381 . S
N77 C70 1.286 . S
N77 C73 1.413 . S
H78 C83 0.930 . S
H79 C86 0.930 . S
H80 C88 0.930 . S
H81 C82 1.016 . S
C82 H81 1.016 . S
C82 N89 1.286 . S
C83 H78 0.930 . S
C83 C84 1.397 . S
C83 C85 1.361 . S
C84 C83 1.397 . S
C84 C88 1.390 . S
C85 C83 1.361 . S
C85 C86 1.393 . S
C85 N89 1.413 . S
C86 H79 0.930 . S
C86 C85 1.393 . S
C86 C87 1.399 . S
C87 C86 1.399 . S
C87 C88 1.381 . S
C88 H80 0.930 . S
C88 C84 1.390 . S
C88 C87 1.381 . S
N89 C82 1.286 . S
N89 C85 1.413 . S
H90 C108 0.954 . S
H91 C110 0.951 . S
H92 C112 0.950 . S
H93 C113 0.950 . S
H94 C115 0.950 . S
H95 C118 0.950 . S
H96 C119 0.950 . S
H97 C121 0.950 . S
H98 C122 0.950 . S
H99 C123 0.951 . S
H100 C125 0.951 . S
H101 C127 0.950 . S
H102 C128 0.950 . S
H103 C130 0.950 . S
H104 C133 0.950 . S
H105 C134 0.950 . S
H106 C136 0.942 1_554 S
H107 C137 0.950 . S
C108 H90 0.954 . S
C108 C109 1.366 . S
C108 C110 1.388 . S
C109 C108 1.366 . S
C109 C113 1.385 . S
C110 H91 0.951 . S
C110 C108 1.388 . S
C110 C111 1.366 . S
C111 C110 1.366 . S
C111 C112 1.414 . S
C111 C114 1.499 . S
C112 H92 0.950 . S
C112 C111 1.414 . S
C112 C113 1.374 . S
C113 H93 0.950 . S
C113 C109 1.385 . S
C113 C112 1.374 . S
C114 C111 1.499 . S
C114 C115 1.373 . S
C114 C116 1.389 . S
C115 H94 0.950 . S
C115 C114 1.373 . S
C115 C131 1.377 . S
C116 C114 1.389 . S
C116 C117 1.524 . S
C116 C130 1.377 . S
C117 C116 1.524 . S
C117 C118 1.397 . S
C117 C122 1.363 . S
C118 H95 0.950 . S
C118 C117 1.397 . S
C118 C119 1.334 . S
C119 H96 0.950 . S
C119 C118 1.334 . S
C119 C120 1.287 . S
C120 C119 1.287 . S
C120 C121 1.524 . S
C120 H139 0.913 . S
C121 H97 0.950 . S
C121 C120 1.524 . S
C121 C122 1.415 . S
C122 H98 0.950 . S
C122 C117 1.363 . S
C122 C121 1.415 . S
C123 H99 0.951 . S
C123 C124 1.366 . S
C123 C125 1.388 . S
C124 C123 1.366 . S
C124 C128 1.385 . S
C125 H100 0.951 . S
C125 C123 1.388 . S
C125 C126 1.366 . S
C126 C125 1.366 . S
C126 C127 1.414 . S
C126 C129 1.499 . S
C127 H101 0.950 . S
C127 C126 1.414 . S
C127 C128 1.374 . S
C128 H102 0.950 . S
C128 C124 1.385 . S
C128 C127 1.374 . S
C129 C126 1.499 . S
C129 C130 1.373 . S
C129 C131 1.389 . S
C130 H103 0.950 . S
C130 C116 1.377 . S
C130 C129 1.373 . S
C131 C115 1.377 . S
C131 C129 1.389 . S
C131 C132 1.524 . S
C132 C131 1.524 . S
C132 C133 1.397 1_554 S
C132 C137 1.363 . S
C133 H104 0.950 . S
C133 C132 1.397 1_556 S
C133 C134 1.334 . S
C134 H105 0.950 . S
C134 C133 1.334 . S
C134 C135 1.287 . S
C135 C134 1.287 . S
C135 C136 1.524 . S
C135 H138 0.999 . S
C136 H106 0.942 1_556 S
C136 C135 1.524 . S
C136 C137 1.415 1_556 S
C137 H107 0.950 . S
C137 C132 1.363 . S
C137 C136 1.415 1_554 S
H138 C135 0.999 . S
H139 C120 0.913 . S
H140 C158 0.951 . S
H141 C160 0.951 . S
H142 C162 0.950 . S
H143 C163 0.950 . S
H144 C165 0.950 . S
H145 C168 0.950 . S
H146 C169 0.950 . S
H147 C171 0.950 . S
H148 C172 0.950 1_556 S
H149 C173 0.951 1_554 S
H150 C175 0.953 . S
H151 C177 0.950 . S
H152 C178 0.950 . S
H153 C180 0.962 . S
H154 C183 0.950 . S
H155 C184 0.950 . S
H156 C186 0.950 . S
H157 C187 0.950 1_554 S
C158 H140 0.951 . S
C158 C159 1.366 1_556 S
C158 C160 1.388 . S
C159 C158 1.366 1_554 S
C159 C163 1.385 . S
C160 H141 0.951 . S
C160 C158 1.388 . S
C160 C161 1.366 1_556 S
C161 C160 1.366 1_554 S
C161 C162 1.414 . S
C161 C164 1.499 . S
C162 H142 0.950 . S
C162 C161 1.414 . S
C162 C163 1.374 . S
C163 H143 0.950 . S
C163 C159 1.385 . S
C163 C162 1.374 . S
C164 C161 1.499 . S
C164 C165 1.373 1_554 S
C164 C166 1.389 . S
C165 H144 0.950 . S
C165 C164 1.373 1_556 S
C165 C181 1.377 . S
C166 C164 1.389 . S
C166 C167 1.524 . S
C166 C180 1.384 . S
C167 C166 1.524 . S
C167 C168 1.397 . S
C167 C172 1.363 . S
C168 H145 0.950 . S
C168 C167 1.397 . S
C168 C169 1.334 . S
C169 H146 0.950 . S
C169 C168 1.334 . S
C169 C170 1.287 . S
C170 C169 1.287 . S
C170 C171 1.524 . S
C170 H189 0.913 . S
C171 H147 0.950 . S
C171 C170 1.524 . S
C171 C172 1.415 . S
C172 H148 0.950 1_554 S
C172 C167 1.363 . S
C172 C171 1.415 . S
C173 H149 0.951 1_556 S
C173 C174 1.366 . S
C173 C175 1.387 1_556 S
C174 C173 1.366 . S
C174 C178 1.385 . S
C175 H150 0.953 . S
C175 C173 1.387 1_554 S
C175 C176 1.364 1_554 S
C176 C175 1.364 1_556 S
C176 C177 1.414 . S
C176 C179 1.499 . S
C177 H151 0.950 . S
C177 C176 1.414 . S
C177 C178 1.374 . S
C178 H152 0.950 . S
C178 C174 1.385 . S
C178 C177 1.374 . S
C179 C176 1.499 . S
C179 C180 1.356 1_556 S
C179 C181 1.389 . S
C180 H153 0.962 . S
C180 C166 1.384 . S
C180 C179 1.356 1_554 S
C181 C165 1.377 . S
C181 C179 1.389 . S
C181 C182 1.524 . S
C182 C181 1.524 . S
C182 C183 1.397 . S
C182 C187 1.363 . S
C183 H154 0.950 . S
C183 C182 1.397 . S
C183 C184 1.334 . S
C184 H155 0.950 . S
C184 C183 1.334 . S
C184 C185 1.287 . S
C185 C184 1.287 . S
C185 C186 1.524 . S
C185 H188 0.999 . S
C186 H156 0.950 . S
C186 C185 1.524 . S
C186 C187 1.415 . S
C187 H157 0.950 1_556 S
C187 C182 1.363 . S
C187 C186 1.415 . S
H188 C185 0.999 . S
H189 C170 0.913 . S
H190 C208 0.951 . S
H191 C210 0.951 . S
H192 C212 0.950 . S
H193 C213 0.950 . S
H194 C215 0.950 1_556 S
H195 C218 0.950 . S
H196 C219 0.950 . S
H197 C221 0.950 . S
H198 C222 0.950 . S
H199 C223 0.951 . S
H200 C225 0.951 . S
H201 C227 0.950 . S
H202 C228 0.950 . S
H203 C230 0.950 . S
H204 C233 0.950 . S
H205 C234 0.950 . S
H206 C236 0.950 . S
H207 C237 0.950 . S
C208 H190 0.951 . S
C208 C209 1.366 . S
C208 C210 1.388 . S
C209 C208 1.366 . S
C209 C213 1.385 . S
C210 H191 0.951 . S
C210 C208 1.388 . S
C210 C211 1.366 . S
C211 C210 1.366 . S
C211 C212 1.414 . S
C211 C214 1.499 . S
C212 H192 0.950 . S
C212 C211 1.414 . S
C212 C213 1.374 . S
C213 H193 0.950 . S
C213 C209 1.385 . S
C213 C212 1.374 . S
C214 C211 1.499 . S
C214 C215 1.373 . S
C214 C216 1.389 . S
C215 H194 0.950 1_554 S
C215 C214 1.373 . S
C215 C231 1.377 . S
C216 C214 1.389 . S
C216 C217 1.524 . S
C216 C230 1.377 . S
C217 C216 1.524 . S
C217 C218 1.397 . S
C217 C222 1.363 . S
C218 H195 0.950 . S
C218 C217 1.397 . S
C218 C219 1.334 . S
C219 H196 0.950 . S
C219 C218 1.334 . S
C219 C220 1.287 . S
C220 C219 1.287 . S
C220 C221 1.524 . S
C220 H239 0.913 . S
C221 H197 0.950 . S
C221 C220 1.524 . S
C221 C222 1.415 . S
C222 H198 0.950 . S
C222 C217 1.363 . S
C222 C221 1.415 . S
C223 H199 0.951 . S
C223 C224 1.366 . S
C223 C225 1.388 . S
C224 C223 1.366 . S
C224 C228 1.385 . S
C225 H200 0.951 . S
C225 C223 1.388 . S
C225 C226 1.366 . S
C226 C225 1.366 . S
C226 C227 1.414 . S
C226 C229 1.499 . S
C227 H201 0.950 . S
C227 C226 1.414 . S
C227 C228 1.374 . S
C228 H202 0.950 . S
C228 C224 1.385 . S
C228 C227 1.374 . S
C229 C226 1.499 . S
C229 C230 1.373 . S
C229 C231 1.389 . S
C230 H203 0.950 . S
C230 C216 1.377 . S
C230 C229 1.373 . S
C231 C215 1.377 . S
C231 C229 1.389 . S
C231 C232 1.524 1_554 S
C232 C231 1.524 1_556 S
C232 C233 1.397 . S
C232 C237 1.363 . S
C233 H204 0.950 . S
C233 C232 1.397 . S
C233 C234 1.334 . S
C234 H205 0.950 . S
C234 C233 1.334 . S
C234 C235 1.287 . S
C235 C234 1.287 . S
C235 C236 1.524 . S
C235 H238 0.999 . S
C236 H206 0.950 . S
C236 C235 1.524 . S
C236 C237 1.415 . S
C237 H207 0.950 . S
C237 C232 1.363 . S
C237 C236 1.415 . S
H238 C235 0.999 . S
H239 C220 0.913 . S
H240 C258 0.951 . S
H241 C260 0.951 . S
H242 C262 0.950 . S
H243 C263 0.950 . S
H244 C265 0.950 . S
H245 C268 0.950 . S
H246 C269 0.950 1_455 S
H247 C271 0.950 1_455 S
H248 C272 0.950 . S
H249 C273 0.951 . S
H250 C275 0.951 1_554 S
H251 C277 0.950 . S
H252 C278 0.950 . S
H253 C280 0.950 . S
H254 C283 0.950 . S
H255 C284 0.950 . S
H256 C286 0.950 . S
H257 C287 0.950 1_554 S
C258 H240 0.951 . S
C258 C259 1.366 . S
C258 C260 1.388 . S
C259 C258 1.366 . S
C259 C263 1.385 1_556 S
C260 H241 0.951 . S
C260 C258 1.388 . S
C260 C261 1.366 . S
C261 C260 1.366 . S
C261 C262 1.414 1_556 S
C261 C264 1.499 . S
C262 H242 0.950 . S
C262 C261 1.414 1_554 S
C262 C263 1.374 . S
C263 H243 0.950 . S
C263 C259 1.385 1_554 S
C263 C262 1.374 . S
C264 C261 1.499 . S
C264 C265 1.373 . S
C264 C266 1.389 . S
C265 H244 0.950 . S
C265 C264 1.373 . S
C265 C281 1.377 . S
C266 C264 1.389 . S
C266 C267 1.524 . S
C266 C280 1.377 . S
C267 C266 1.524 . S
C267 C268 1.397 1_556 S
C267 C272 1.363 . S
C268 H245 0.950 . S
C268 C267 1.397 1_554 S
C268 C269 1.334 . S
C269 H246 0.950 1_655 S
C269 C268 1.334 . S
C269 C270 1.287 1_655 S
C270 C269 1.287 1_455 S
C270 C271 1.524 1_454 S
C270 H289 0.913 . S
C271 H247 0.950 1_655 S
C271 C270 1.524 1_656 S
C271 C272 1.415 . S
C272 H248 0.950 . S
C272 C267 1.363 . S
C272 C271 1.415 . S
C273 H249 0.951 . S
C273 C274 1.366 . S
C273 C275 1.388 . S
C274 C273 1.366 . S
C274 C278 1.385 . S
C275 H250 0.951 1_556 S
C275 C273 1.388 . S
C275 C276 1.366 . S
C276 C275 1.366 . S
C276 C277 1.414 . S
C276 C279 1.499 . S
C277 H251 0.950 . S
C277 C276 1.414 . S
C277 C278 1.374 . S
C278 H252 0.950 . S
C278 C274 1.385 . S
C278 C277 1.374 . S
C279 C276 1.499 . S
C279 C280 1.373 . S
C279 C281 1.389 . S
C280 H253 0.950 . S
C280 C266 1.377 . S
C280 C279 1.373 . S
C281 C265 1.377 . S
C281 C279 1.389 . S
C281 C282 1.524 . S
C282 C281 1.524 . S
C282 C283 1.397 . S
C282 C287 1.363 . S
C283 H254 0.950 . S
C283 C282 1.397 . S
C283 C284 1.334 . S
C284 H255 0.950 . S
C284 C283 1.334 . S
C284 C285 1.287 . S
C285 C284 1.287 . S
C285 C286 1.524 . S
C285 H288 0.999 . S
C286 H256 0.950 . S
C286 C285 1.524 . S
C286 C287 1.415 . S
C287 H257 0.950 1_556 S
C287 C282 1.363 . S
C287 C286 1.415 . S
H288 C285 0.999 . S
H289 C270 0.913 . S
H290 C308 0.951 . S
H291 C310 0.951 . S
H292 C312 0.950 . S
H293 C313 0.950 . S
H294 C315 0.950 . S
H295 C318 0.950 . S
H296 C319 0.950 . S
H297 C321 0.950 . S
H298 C322 0.950 . S
H299 C323 0.951 . S
H300 C325 0.951 . S
H301 C327 0.950 . S
H302 C328 0.950 . S
H303 C330 0.950 . S
H304 C333 0.950 . S
H305 C334 0.950 . S
H306 C336 0.950 . S
H307 C337 0.950 . S
C308 H290 0.951 . S
C308 C309 1.366 . S
C308 C310 1.388 . S
C309 C308 1.366 . S
C309 C313 1.385 . S
C310 H291 0.951 . S
C310 C308 1.388 . S
C310 C311 1.366 . S
C311 C310 1.366 . S
C311 C312 1.414 . S
C311 C314 1.499 . S
C312 H292 0.950 . S
C312 C311 1.414 . S
C312 C313 1.374 . S
C313 H293 0.950 . S
C313 C309 1.385 . S
C313 C312 1.374 . S
C314 C311 1.499 . S
C314 C315 1.373 . S
C314 C316 1.389 . S
C315 H294 0.950 . S
C315 C314 1.373 . S
C315 C331 1.377 . S
C316 C314 1.389 . S
C316 C317 1.524 . S
C316 C330 1.377 . S
C317 C316 1.524 . S
C317 C318 1.397 . S
C317 C322 1.363 . S
C318 H295 0.950 . S
C318 C317 1.397 . S
C318 C319 1.334 . S
C319 H296 0.950 . S
C319 C318 1.334 . S
C319 C320 1.287 . S
C320 C319 1.287 . S
C320 C321 1.524 . S
C320 H339 0.913 . S
C321 H297 0.950 . S
C321 C320 1.524 . S
C321 C322 1.415 . S
C322 H298 0.950 . S
C322 C317 1.363 . S
C322 C321 1.415 . S
C323 H299 0.951 . S
C323 C324 1.366 . S
C323 C325 1.388 . S
C324 C323 1.366 . S
C324 C328 1.385 . S
C325 H300 0.951 . S
C325 C323 1.388 . S
C325 C326 1.366 . S
C326 C325 1.366 . S
C326 C327 1.414 . S
C326 C329 1.499 . S
C327 H301 0.950 . S
C327 C326 1.414 . S
C327 C328 1.374 . S
C328 H302 0.950 . S
C328 C324 1.385 . S
C328 C327 1.374 . S
C329 C326 1.499 . S
C329 C330 1.373 . S
C329 C331 1.389 . S
C330 H303 0.950 . S
C330 C316 1.377 . S
C330 C329 1.373 . S
C331 C315 1.377 . S
C331 C329 1.389 . S
C331 C332 1.524 . S
C332 C331 1.524 . S
C332 C333 1.397 . S
C332 C337 1.363 . S
C333 H304 0.950 . S
C333 C332 1.397 . S
C333 C334 1.334 . S
C334 H305 0.950 . S
C334 C333 1.334 . S
C334 C335 1.287 . S
C335 C334 1.287 . S
C335 C336 1.524 . S
C335 H338 0.999 . S
C336 H306 0.950 . S
C336 C335 1.524 . S
C336 C337 1.415 . S
C337 H307 0.950 . S
C337 C332 1.363 . S
C337 C336 1.415 . S
H338 C335 0.999 . S
H339 C320 0.913 . S
H340 C358 0.951 . S
H341 C360 0.951 . S
H342 C362 0.950 . S
H343 C363 0.950 . S
H344 C365 0.950 . S
H345 C368 0.950 . S
H346 C369 0.950 . S
H347 C371 0.950 . S
H348 C372 0.950 . S
H349 C373 0.951 1_455 S
H350 C375 0.951 . S
H351 C377 0.950 . S
H352 C378 0.950 . S
H353 C380 0.950 . S
H354 C383 0.950 . S
H355 C384 0.944 1_455 S
H356 C386 0.950 . S
H357 C387 0.950 . S
C358 H340 0.951 . S
C358 C359 1.366 . S
C358 C360 1.388 . S
C359 C358 1.366 . S
C359 C363 1.385 . S
C360 H341 0.951 . S
C360 C358 1.388 . S
C360 C361 1.366 . S
C361 C360 1.366 . S
C361 C362 1.414 . S
C361 C364 1.499 . S
C362 H342 0.950 . S
C362 C361 1.414 . S
C362 C363 1.374 . S
C363 H343 0.950 . S
C363 C359 1.385 . S
C363 C362 1.374 . S
C364 C361 1.499 . S
C364 C365 1.373 . S
C364 C366 1.389 . S
C365 H344 0.950 . S
C365 C364 1.373 . S
C365 C381 1.377 . S
C366 C364 1.389 . S
C366 C367 1.524 . S
C366 C380 1.377 . S
C367 C366 1.524 . S
C367 C368 1.397 . S
C367 C372 1.363 . S
C368 H345 0.950 . S
C368 C367 1.397 . S
C368 C369 1.334 . S
C369 H346 0.950 . S
C369 C368 1.334 . S
C369 C370 1.287 . S
C370 C369 1.287 . S
C370 C371 1.524 . S
C370 H389 0.913 . S
C371 H347 0.950 . S
C371 C370 1.524 . S
C371 C372 1.415 . S
C372 H348 0.950 . S
C372 C367 1.363 . S
C372 C371 1.415 . S
C373 H349 0.951 1_655 S
C373 C374 1.366 . S
C373 C375 1.388 . S
C374 C373 1.366 . S
C374 C378 1.385 . S
C375 H350 0.951 . S
C375 C373 1.388 . S
C375 C376 1.366 . S
C376 C375 1.366 . S
C376 C377 1.414 . S
C376 C379 1.499 . S
C377 H351 0.950 . S
C377 C376 1.414 . S
C377 C378 1.374 . S
C378 H352 0.950 . S
C378 C374 1.385 . S
C378 C377 1.374 . S
C379 C376 1.499 . S
C379 C380 1.373 . S
C379 C381 1.389 . S
C380 H353 0.950 . S
C380 C366 1.377 . S
C380 C379 1.373 . S
C381 C365 1.377 . S
C381 C379 1.389 . S
C381 C382 1.524 . S
C382 C381 1.524 . S
C382 C383 1.397 . S
C382 C387 1.363 . S
C383 H354 0.950 . S
C383 C382 1.397 . S
C383 C384 1.334 . S
C384 H355 0.944 1_655 S
C384 C383 1.334 . S
C384 C385 1.287 1_655 S
C385 C384 1.287 1_455 S
C385 C386 1.524 . S
C385 H388 0.999 . S
C386 H356 0.950 . S
C386 C385 1.524 . S
C386 C387 1.415 1_455 S
C387 H357 0.950 . S
C387 C382 1.363 . S
C387 C386 1.415 1_655 S
H388 C385 0.999 . S
H389 C370 0.913 . S
H390 C408 0.951 . S
H391 C410 0.951 . S
H392 C412 0.950 . S
H393 C413 0.950 . S
H394 C415 0.950 . S
H395 C418 0.950 . S
H396 C419 0.950 . S
H397 C421 0.950 . S
H398 C422 0.950 . S
H399 C423 0.951 . S
H400 C425 0.951 . S
H401 C427 0.950 . S
H402 C428 0.950 . S
H403 C430 0.950 . S
H404 C433 0.950 . S
H405 C434 0.950 . S
H406 C436 0.950 . S
H407 C437 0.950 . S
C408 H390 0.951 . S
C408 C409 1.366 . S
C408 C410 1.388 . S
C409 C408 1.366 . S
C409 C413 1.385 . S
C410 H391 0.951 . S
C410 C408 1.388 . S
C410 C411 1.366 . S
C411 C410 1.366 . S
C411 C412 1.414 . S
C411 C414 1.499 . S
C412 H392 0.950 . S
C412 C411 1.414 . S
C412 C413 1.374 . S
C413 H393 0.950 . S
C413 C409 1.385 . S
C413 C412 1.374 . S
C414 C411 1.499 . S
C414 C415 1.373 . S
C414 C416 1.389 . S
C415 H394 0.950 . S
C415 C414 1.373 . S
C415 C431 1.377 . S
C416 C414 1.389 . S
C416 C417 1.524 . S
C416 C430 1.377 . S
C417 C416 1.524 . S
C417 C418 1.397 . S
C417 C422 1.363 . S
C418 H395 0.950 . S
C418 C417 1.397 . S
C418 C419 1.334 . S
C419 H396 0.950 . S
C419 C418 1.334 . S
C419 C420 1.287 . S
C420 C419 1.287 . S
C420 C421 1.524 . S
C420 H439 0.913 . S
C421 H397 0.950 . S
C421 C420 1.524 . S
C421 C422 1.415 . S
C422 H398 0.950 . S
C422 C417 1.363 . S
C422 C421 1.415 . S
C423 H399 0.951 . S
C423 C424 1.366 . S
C423 C425 1.388 . S
C424 C423 1.366 . S
C424 C428 1.385 . S
C425 H400 0.951 . S
C425 C423 1.388 . S
C425 C426 1.366 . S
C426 C425 1.366 . S
C426 C427 1.414 . S
C426 C429 1.499 . S
C427 H401 0.950 . S
C427 C426 1.414 . S
C427 C428 1.374 . S
C428 H402 0.950 . S
C428 C424 1.385 . S
C428 C427 1.374 . S
C429 C426 1.499 . S
C429 C430 1.373 . S
C429 C431 1.389 . S
C430 H403 0.950 . S
C430 C416 1.377 . S
C430 C429 1.373 . S
C431 C415 1.377 . S
C431 C429 1.389 . S
C431 C432 1.524 . S
C432 C431 1.524 . S
C432 C433 1.397 . S
C432 C437 1.363 . S
C433 H404 0.950 . S
C433 C432 1.397 . S
C433 C434 1.334 . S
C434 H405 0.950 . S
C434 C433 1.334 . S
C434 C435 1.287 . S
C435 C434 1.287 . S
C435 C436 1.524 . S
C435 H438 0.999 . S
C436 H406 0.950 . S
C436 C435 1.524 . S
C436 C437 1.415 . S
C437 H407 0.950 . S
C437 C432 1.363 . S
C437 C436 1.415 . S
H438 C435 0.999 . S
H439 C420 0.913 . S
H440 C458 0.951 . S
H441 C460 0.951 . S
H442 C462 0.950 . S
H443 C463 0.950 . S
H444 C465 0.950 . S
H445 C468 0.950 . S
H446 C469 0.950 . S
H447 C471 0.950 . S
H448 C472 0.950 . S
H449 C473 0.951 . S
H450 C475 0.951 . S
H451 C477 0.950 . S
H452 C478 0.950 . S
H453 C480 0.950 . S
H454 C483 0.950 . S
H455 C484 0.950 . S
H456 C486 0.950 . S
H457 C487 0.950 . S
C458 H440 0.951 . S
C458 C459 1.366 . S
C458 C460 1.388 . S
C459 C458 1.366 . S
C459 C463 1.385 . S
C460 H441 0.951 . S
C460 C458 1.388 . S
C460 C461 1.366 . S
C461 C460 1.366 . S
C461 C462 1.414 . S
C461 C464 1.499 . S
C462 H442 0.950 . S
C462 C461 1.414 . S
C462 C463 1.374 . S
C463 H443 0.950 . S
C463 C459 1.385 . S
C463 C462 1.374 . S
C464 C461 1.499 . S
C464 C465 1.373 . S
C464 C466 1.389 . S
C465 H444 0.950 . S
C465 C464 1.373 . S
C465 C481 1.377 . S
C466 C464 1.389 . S
C466 C467 1.524 . S
C466 C480 1.377 . S
C467 C466 1.524 . S
C467 C468 1.397 . S
C467 C472 1.363 . S
C468 H445 0.950 . S
C468 C467 1.397 . S
C468 C469 1.334 . S
C469 H446 0.950 . S
C469 C468 1.334 . S
C469 C470 1.287 . S
C470 C469 1.287 . S
C470 C471 1.524 . S
C470 H489 0.913 . S
C471 H447 0.950 . S
C471 C470 1.524 . S
C471 C472 1.415 . S
C472 H448 0.950 . S
C472 C467 1.363 . S
C472 C471 1.415 . S
C473 H449 0.951 . S
C473 C474 1.366 . S
C473 C475 1.388 . S
C474 C473 1.366 . S
C474 C478 1.385 . S
C475 H450 0.951 . S
C475 C473 1.388 . S
C475 C476 1.366 . S
C476 C475 1.366 . S
C476 C477 1.414 . S
C476 C479 1.499 . S
C477 H451 0.950 . S
C477 C476 1.414 . S
C477 C478 1.374 . S
C478 H452 0.950 . S
C478 C474 1.385 . S
C478 C477 1.374 . S
C479 C476 1.499 . S
C479 C480 1.373 . S
C479 C481 1.389 . S
C480 H453 0.950 . S
C480 C466 1.377 . S
C480 C479 1.373 . S
C481 C465 1.377 . S
C481 C479 1.389 . S
C481 C482 1.524 . S
C482 C481 1.524 . S
C482 C483 1.397 . S
C482 C487 1.363 . S
C483 H454 0.950 . S
C483 C482 1.397 . S
C483 C484 1.334 . S
C484 H455 0.950 . S
C484 C483 1.334 . S
C484 C485 1.287 . S
C485 C484 1.287 . S
C485 C486 1.524 . S
C485 H488 0.999 . S
C486 H456 0.950 . S
C486 C485 1.524 . S
C486 C487 1.415 . S
C487 H457 0.950 . S
C487 C482 1.363 . S
C487 C486 1.415 . S
H488 C485 0.999 . S
H489 C470 0.913 . S
H490 C508 0.951 . S
H491 C510 0.951 . S
H492 C512 0.950 . S
H493 C513 0.950 . S
H494 C515 0.950 . S
H495 C518 0.950 . S
H496 C519 0.950 . S
H497 C521 0.950 . S
H498 C522 0.950 . S
H499 C523 0.951 . S
H500 C525 0.951 . S
H501 C527 0.950 . S
H502 C528 0.950 . S
H503 C530 0.950 . S
H504 C533 0.950 1_655 S
H505 C534 0.950 1_655 S
H506 C536 0.950 . S
H507 C537 0.950 . S
C508 H490 0.951 . S
C508 C509 1.366 . S
C508 C510 1.388 . S
C509 C508 1.366 . S
C509 C513 1.385 1_545 S
C510 H491 0.951 . S
C510 C508 1.388 . S
C510 C511 1.366 . S
C511 C510 1.366 . S
C511 C512 1.414 1_545 S
C511 C514 1.499 1_545 S
C512 H492 0.950 . S
C512 C511 1.414 1_565 S
C512 C513 1.374 . S
C513 H493 0.950 . S
C513 C509 1.385 1_565 S
C513 C512 1.374 . S
C514 C511 1.499 1_565 S
C514 C515 1.372 . S
C514 C516 1.391 1_565 S
C515 H494 0.950 . S
C515 C514 1.372 . S
C515 C531 1.377 . S
C516 C514 1.391 1_545 S
C516 C517 1.524 . S
C516 C530 1.377 . S
C517 C516 1.524 . S
C517 C518 1.397 . S
C517 C522 1.363 . S
C518 H495 0.950 . S
C518 C517 1.397 . S
C518 C519 1.334 . S
C519 H496 0.950 . S
C519 C518 1.334 . S
C519 C520 1.287 . S
C520 C519 1.287 . S
C520 C521 1.524 . S
C520 H539 0.913 . S
C521 H497 0.950 . S
C521 C520 1.524 . S
C521 C522 1.415 . S
C522 H498 0.950 . S
C522 C517 1.363 . S
C522 C521 1.415 . S
C523 H499 0.951 . S
C523 C524 1.366 . S
C523 C525 1.388 . S
C524 C523 1.366 . S
C524 C528 1.385 1_565 S
C525 H500 0.951 . S
C525 C523 1.388 . S
C525 C526 1.366 . S
C526 C525 1.366 . S
C526 C527 1.414 1_565 S
C526 C529 1.499 . S
C527 H501 0.950 . S
C527 C526 1.414 1_545 S
C527 C528 1.374 . S
C528 H502 0.950 . S
C528 C524 1.385 1_545 S
C528 C527 1.374 . S
C529 C526 1.499 . S
C529 C530 1.373 1_565 S
C529 C531 1.389 . S
C530 H503 0.950 . S
C530 C516 1.377 . S
C530 C529 1.373 1_545 S
C531 C515 1.377 . S
C531 C529 1.389 . S
C531 C532 1.524 . S
C532 C531 1.524 . S
C532 C533 1.397 . S
C532 C537 1.363 . S
C533 H504 0.950 1_455 S
C533 C532 1.397 . S
C533 C534 1.334 . S
C534 H505 0.950 1_455 S
C534 C533 1.334 . S
C534 C535 1.287 . S
C535 C534 1.287 . S
C535 C536 1.524 . S
C535 H538 0.999 . S
C536 H506 0.950 . S
C536 C535 1.524 . S
C536 C537 1.415 . S
C537 H507 0.950 . S
C537 C532 1.363 . S
C537 C536 1.415 . S
H538 C535 0.999 . S
H539 C520 0.913 . S
H540 C558 0.951 . S
H541 C560 0.951 . S
H542 C562 0.950 1_655 S
H543 C563 0.950 . S
H544 C565 0.950 1_565 S
H545 C568 0.950 . S
H546 C569 0.950 . S
H547 C571 0.950 . S
H548 C572 0.950 . S
H549 C573 0.951 1_565 S
H550 C575 0.951 1_565 S
H551 C577 0.950 . S
H552 C578 0.950 . S
H553 C580 0.950 . S
H554 C583 0.950 1_545 S
H555 C584 0.950 . S
H556 C586 0.950 . S
H557 C587 0.950 . S
C558 H540 0.951 . S
C558 C559 1.366 . S
C558 C560 1.388 . S
C559 C558 1.366 . S
C559 C563 1.385 1_545 S
C560 H541 0.951 . S
C560 C558 1.388 . S
C560 C561 1.366 . S
C561 C560 1.366 . S
C561 C562 1.414 1_545 S
C561 C564 1.499 . S
C562 H542 0.950 1_455 S
C562 C561 1.414 1_565 S
C562 C563 1.374 . S
C563 H543 0.950 . S
C563 C559 1.385 1_565 S
C563 C562 1.374 . S
C564 C561 1.499 . S
C564 C565 1.373 . S
C564 C566 1.389 1_455 S
C565 H544 0.950 1_545 S
C565 C564 1.373 . S
C565 C581 1.377 . S
C566 C564 1.389 1_655 S
C566 C567 1.524 . S
C566 C580 1.377 . S
C567 C566 1.524 . S
C567 C568 1.397 . S
C567 C572 1.363 . S
C568 H545 0.950 . S
C568 C567 1.397 . S
C568 C569 1.334 . S
C569 H546 0.950 . S
C569 C568 1.334 . S
C569 C570 1.287 . S
C570 C569 1.287 . S
C570 C571 1.524 . S
C570 H589 0.913 . S
C571 H547 0.950 . S
C571 C570 1.524 . S
C571 C572 1.415 . S
C572 H548 0.950 . S
C572 C567 1.363 . S
C572 C571 1.415 . S
C573 H549 0.951 1_545 S
C573 C574 1.366 . S
C573 C575 1.388 . S
C574 C573 1.366 . S
C574 C578 1.385 1_655 S
C575 H550 0.951 1_545 S
C575 C573 1.388 . S
C575 C576 1.366 1_655 S
C576 C575 1.366 1_455 S
C576 C577 1.414 . S
C576 C579 1.499 . S
C577 H551 0.950 . S
C577 C576 1.414 . S
C577 C578 1.374 . S
C578 H552 0.950 . S
C578 C574 1.385 1_455 S
C578 C577 1.374 . S
C579 C576 1.499 . S
C579 C580 1.373 1_455 S
C579 C581 1.389 . S
C580 H553 0.950 . S
C580 C566 1.377 . S
C580 C579 1.373 1_655 S
C581 C565 1.377 . S
C581 C579 1.389 . S
C581 C582 1.524 1_545 S
C582 C581 1.524 1_565 S
C582 C583 1.397 . S
C582 C587 1.363 . S
C583 H554 0.950 1_565 S
C583 C582 1.397 . S
C583 C584 1.334 . S
C584 H555 0.950 . S
C584 C583 1.334 . S
C584 C585 1.287 . S
C585 C584 1.287 . S
C585 C586 1.524 . S
C585 H588 0.999 . S
C586 H556 0.950 . S
C586 C585 1.524 . S
C586 C587 1.415 . S
C587 H557 0.950 . S
C587 C582 1.363 . S
C587 C586 1.415 . S
H588 C585 0.999 . S
H589 C570 0.913 . S
H590 C608 0.951 . S
H591 C610 0.951 . S
H592 C612 0.950 . S
H593 C613 0.950 . S
H594 C615 0.950 . S
H595 C618 0.950 . S
H596 C619 0.950 . S
H597 C621 0.950 . S
H598 C622 0.950 . S
H599 C623 0.951 . S
H600 C625 0.951 . S
H601 C627 0.950 . S
H602 C628 0.950 . S
H603 C630 0.950 . S
H604 C633 0.950 . S
H605 C634 0.950 . S
H606 C636 0.950 . S
H607 C637 0.950 . S
C608 H590 0.951 . S
C608 C609 1.366 . S
C608 C610 1.388 . S
C609 C608 1.366 . S
C609 C613 1.385 . S
C610 H591 0.951 . S
C610 C608 1.388 . S
C610 C611 1.366 . S
C611 C610 1.366 . S
C611 C612 1.414 . S
C611 C614 1.499 . S
C612 H592 0.950 . S
C612 C611 1.414 . S
C612 C613 1.374 . S
C613 H593 0.950 . S
C613 C609 1.385 . S
C613 C612 1.374 . S
C614 C611 1.499 . S
C614 C615 1.373 . S
C614 C616 1.389 . S
C615 H594 0.950 . S
C615 C614 1.373 . S
C615 C631 1.377 . S
C616 C614 1.389 . S
C616 C617 1.524 . S
C616 C630 1.377 . S
C617 C616 1.524 . S
C617 C618 1.397 . S
C617 C622 1.363 . S
C618 H595 0.950 . S
C618 C617 1.397 . S
C618 C619 1.334 . S
C619 H596 0.950 . S
C619 C618 1.334 . S
C619 C620 1.287 . S
C620 C619 1.287 . S
C620 C621 1.524 . S
C620 H639 0.913 . S
C621 H597 0.950 . S
C621 C620 1.524 . S
C621 C622 1.415 . S
C622 H598 0.950 . S
C622 C617 1.363 . S
C622 C621 1.415 . S
C623 H599 0.951 . S
C623 C624 1.366 . S
C623 C625 1.388 . S
C624 C623 1.366 . S
C624 C628 1.385 . S
C625 H600 0.951 . S
C625 C623 1.388 . S
C625 C626 1.366 . S
C626 C625 1.366 . S
C626 C627 1.414 . S
C626 C629 1.499 . S
C627 H601 0.950 . S
C627 C626 1.414 . S
C627 C628 1.374 . S
C628 H602 0.950 . S
C628 C624 1.385 . S
C628 C627 1.374 . S
C629 C626 1.499 . S
C629 C630 1.373 . S
C629 C631 1.389 . S
C630 H603 0.950 . S
C630 C616 1.377 . S
C630 C629 1.373 . S
C631 C615 1.377 . S
C631 C629 1.389 . S
C631 C632 1.524 . S
C632 C631 1.524 . S
C632 C633 1.397 . S
C632 C637 1.363 . S
C633 H604 0.950 . S
C633 C632 1.397 . S
C633 C634 1.334 . S
C634 H605 0.950 . S
C634 C633 1.334 . S
C634 C635 1.287 . S
C635 C634 1.287 . S
C635 C636 1.524 . S
C635 H638 0.999 . S
C636 H606 0.950 . S
C636 C635 1.524 . S
C636 C637 1.415 . S
C637 H607 0.950 . S
C637 C632 1.363 . S
C637 C636 1.415 . S
H638 C635 0.999 . S
H639 C620 0.913 . S
H640 C658 0.951 . S
H641 C660 0.951 . S
H642 C662 0.950 . S
H643 C663 0.950 . S
H644 C665 0.950 . S
H645 C668 0.950 . S
H646 C669 0.950 . S
H647 C671 0.950 . S
H648 C672 0.950 . S
H649 C673 0.951 . S
H650 C675 0.951 . S
H651 C677 0.950 . S
H652 C678 0.950 . S
H653 C680 0.950 . S
H654 C683 0.950 . S
H655 C684 0.950 . S
H656 C686 0.950 . S
H657 C687 0.950 . S
C658 H640 0.951 . S
C658 C659 1.366 . S
C658 C660 1.388 . S
C659 C658 1.366 . S
C659 C663 1.385 . S
C660 H641 0.951 . S
C660 C658 1.388 . S
C660 C661 1.366 . S
C661 C660 1.366 . S
C661 C662 1.414 . S
C661 C664 1.499 . S
C662 H642 0.950 . S
C662 C661 1.414 . S
C662 C663 1.374 . S
C663 H643 0.950 . S
C663 C659 1.385 . S
C663 C662 1.374 . S
C664 C661 1.499 . S
C664 C665 1.373 . S
C664 C666 1.389 . S
C665 H644 0.950 . S
C665 C664 1.373 . S
C665 C681 1.377 . S
C666 C664 1.389 . S
C666 C667 1.524 . S
C666 C680 1.377 . S
C667 C666 1.524 . S
C667 C668 1.397 . S
C667 C672 1.363 . S
C668 H645 0.950 . S
C668 C667 1.397 . S
C668 C669 1.334 . S
C669 H646 0.950 . S
C669 C668 1.334 . S
C669 C670 1.287 . S
C670 C669 1.287 . S
C670 C671 1.524 . S
C670 H689 0.913 . S
C671 H647 0.950 . S
C671 C670 1.524 . S
C671 C672 1.415 . S
C672 H648 0.950 . S
C672 C667 1.363 . S
C672 C671 1.415 . S
C673 H649 0.951 . S
C673 C674 1.366 . S
C673 C675 1.388 . S
C674 C673 1.366 . S
C674 C678 1.385 . S
C675 H650 0.951 . S
C675 C673 1.388 . S
C675 C676 1.366 . S
C676 C675 1.366 . S
C676 C677 1.414 . S
C676 C679 1.499 . S
C677 H651 0.950 . S
C677 C676 1.414 . S
C677 C678 1.374 . S
C678 H652 0.950 . S
C678 C674 1.385 . S
C678 C677 1.374 . S
C679 C676 1.499 . S
C679 C680 1.373 . S
C679 C681 1.389 . S
C680 H653 0.950 . S
C680 C666 1.377 . S
C680 C679 1.373 . S
C681 C665 1.377 . S
C681 C679 1.389 . S
C681 C682 1.524 . S
C682 C681 1.524 . S
C682 C683 1.397 . S
C682 C687 1.363 . S
C683 H654 0.950 . S
C683 C682 1.397 . S
C683 C684 1.334 . S
C684 H655 0.950 . S
C684 C683 1.334 . S
C684 C685 1.287 . S
C685 C684 1.287 . S
C685 C686 1.524 . S
C685 H688 0.999 . S
C686 H656 0.950 . S
C686 C685 1.524 . S
C686 C687 1.415 . S
C687 H657 0.950 . S
C687 C682 1.363 . S
C687 C686 1.415 . S
H688 C685 0.999 . S
H689 C670 0.913 . S
C124 C84 1.433 . S
C109 C15 1.291 . S
C159 C13 1.370 . S
C174 C70 1.345 . S
C209 C18 1.250 1_554 S
C224 C82 1.392 . S
C259 C17 1.413 . S
C274 C72 1.450 . S
C309 C36 1.290 . S
C324 C60 1.433 1_565 S
C359 C34 1.370 . S
C374 C46 1.344 . S
C424 C58 1.393 . S
C409 C39 1.251 . S
C474 C48 1.450 . S
C459 C38 1.413 . S
C509 C14 1.584 . S
C524 C51 1.630 . S
C559 C16 1.383 . S
C574 C63 1.410 . S
C624 C75 1.630 . S
C609 C35 1.583 . S
C659 C37 1.383 . S
C674 C87 1.410 . S
