# Generated by pormake.
# Topology tbo, (3,4)-cn, num edge types: 1
# Building blocks:
#     Node 0, Type 0, BuildingBlock: WUSLED_clean_sbu_0, # of connection points: 3
#     Node 1, Type 0, BuildingBlock: WUSLED_clean_sbu_0, # of connection points: 3
#     Node 2, Type 0, BuildingBlock: WUSLED_clean_sbu_0, # of connection points: 3
#     Node 3, Type 0, BuildingBlock: WUSLED_clean_sbu_0, # of connection points: 3
#     Node 4, Type 0, BuildingBlock: WUSLED_clean_sbu_0, # of connection points: 3
#     Node 5, Type 0, BuildingBlock: WUSLED_clean_sbu_0, # of connection points: 3
#     Node 6, Type 0, BuildingBlock: WUSLED_clean_sbu_0, # of connection points: 3
#     Node 7, Type 0, BuildingBlock: WUSLED_clean_sbu_0, # of connection points: 3
#     Node 8, Type 0, BuildingBlock: WUSLED_clean_sbu_0, # of connection points: 3
#     Node 9, Type 0, BuildingBlock: WUSLED_clean_sbu_0, # of connection points: 3
#     Node 10, Type 0, BuildingBlock: WUSLED_clean_sbu_0, # of connection points: 3
#     Node 11, Type 0, BuildingBlock: WUSLED_clean_sbu_0, # of connection points: 3
#     Node 12, Type 0, BuildingBlock: WUSLED_clean_sbu_0, # of connection points: 3
#     Node 13, Type 0, BuildingBlock: WUSLED_clean_sbu_0, # of connection points: 3
#     Node 14, Type 0, BuildingBlock: WUSLED_clean_sbu_0, # of connection points: 3
#     Node 15, Type 0, BuildingBlock: WUSLED_clean_sbu_0, # of connection points: 3
#     Node 16, Type 0, BuildingBlock: WUSLED_clean_sbu_0, # of connection points: 3
#     Node 17, Type 0, BuildingBlock: WUSLED_clean_sbu_0, # of connection points: 3
#     Node 18, Type 0, BuildingBlock: WUSLED_clean_sbu_0, # of connection points: 3
#     Node 19, Type 0, BuildingBlock: WUSLED_clean_sbu_0, # of connection points: 3
#     Node 20, Type 0, BuildingBlock: WUSLED_clean_sbu_0, # of connection points: 3
#     Node 21, Type 0, BuildingBlock: WUSLED_clean_sbu_0, # of connection points: 3
#     Node 22, Type 0, BuildingBlock: WUSLED_clean_sbu_0, # of connection points: 3
#     Node 23, Type 0, BuildingBlock: WUSLED_clean_sbu_0, # of connection points: 3
#     Node 24, Type 0, BuildingBlock: WUSLED_clean_sbu_0, # of connection points: 3
#     Node 25, Type 0, BuildingBlock: WUSLED_clean_sbu_0, # of connection points: 3
#     Node 26, Type 0, BuildingBlock: WUSLED_clean_sbu_0, # of connection points: 3
#     Node 27, Type 0, BuildingBlock: WUSLED_clean_sbu_0, # of connection points: 3
#     Node 28, Type 0, BuildingBlock: WUSLED_clean_sbu_0, # of connection points: 3
#     Node 29, Type 0, BuildingBlock: WUSLED_clean_sbu_0, # of connection points: 3
#     Node 30, Type 0, BuildingBlock: WUSLED_clean_sbu_0, # of connection points: 3
#     Node 31, Type 0, BuildingBlock: WUSLED_clean_sbu_0, # of connection points: 3
#     Node 32, Type 1, BuildingBlock: MUDLON_clean_linker_0, # of connection points: 4
#     Node 33, Type 1, BuildingBlock: MUDLON_clean_linker_0, # of connection points: 4
#     Node 34, Type 1, BuildingBlock: MUDLON_clean_linker_0, # of connection points: 4
#     Node 35, Type 1, BuildingBlock: MUDLON_clean_linker_0, # of connection points: 4
#     Node 36, Type 1, BuildingBlock: MUDLON_clean_linker_0, # of connection points: 4
#     Node 37, Type 1, BuildingBlock: MUDLON_clean_linker_0, # of connection points: 4
#     Node 38, Type 1, BuildingBlock: MUDLON_clean_linker_0, # of connection points: 4
#     Node 39, Type 1, BuildingBlock: MUDLON_clean_linker_0, # of connection points: 4
#     Node 40, Type 1, BuildingBlock: MUDLON_clean_linker_0, # of connection points: 4
#     Node 41, Type 1, BuildingBlock: MUDLON_clean_linker_0, # of connection points: 4
#     Node 42, Type 1, BuildingBlock: MUDLON_clean_linker_0, # of connection points: 4
#     Node 43, Type 1, BuildingBlock: MUDLON_clean_linker_0, # of connection points: 4
#     Node 44, Type 1, BuildingBlock: MUDLON_clean_linker_0, # of connection points: 4
#     Node 45, Type 1, BuildingBlock: MUDLON_clean_linker_0, # of connection points: 4
#     Node 46, Type 1, BuildingBlock: MUDLON_clean_linker_0, # of connection points: 4
#     Node 47, Type 1, BuildingBlock: MUDLON_clean_linker_0, # of connection points: 4
#     Node 48, Type 1, BuildingBlock: MUDLON_clean_linker_0, # of connection points: 4
#     Node 49, Type 1, BuildingBlock: MUDLON_clean_linker_0, # of connection points: 4
#     Node 50, Type 1, BuildingBlock: MUDLON_clean_linker_0, # of connection points: 4
#     Node 51, Type 1, BuildingBlock: MUDLON_clean_linker_0, # of connection points: 4
#     Node 52, Type 1, BuildingBlock: MUDLON_clean_linker_0, # of connection points: 4
#     Node 53, Type 1, BuildingBlock: MUDLON_clean_linker_0, # of connection points: 4
#     Node 54, Type 1, BuildingBlock: MUDLON_clean_linker_0, # of connection points: 4
#     Node 55, Type 1, BuildingBlock: MUDLON_clean_linker_0, # of connection points: 4
#     Edge 56, Type (0, 1), BuildingBlock: CIFDUS_clean_linker_0, # of connection points: 2
#     Edge 57, Type (0, 1), BuildingBlock: CIFDUS_clean_linker_0, # of connection points: 2
#     Edge 58, Type (0, 1), BuildingBlock: CIFDUS_clean_linker_0, # of connection points: 2
#     Edge 59, Type (0, 1), BuildingBlock: CIFDUS_clean_linker_0, # of connection points: 2
#     Edge 60, Type (0, 1), BuildingBlock: CIFDUS_clean_linker_0, # of connection points: 2
#     Edge 61, Type (0, 1), BuildingBlock: CIFDUS_clean_linker_0, # of connection points: 2
#     Edge 62, Type (0, 1), BuildingBlock: CIFDUS_clean_linker_0, # of connection points: 2
#     Edge 63, Type (0, 1), BuildingBlock: CIFDUS_clean_linker_0, # of connection points: 2
#     Edge 64, Type (0, 1), BuildingBlock: CIFDUS_clean_linker_0, # of connection points: 2
#     Edge 65, Type (0, 1), BuildingBlock: CIFDUS_clean_linker_0, # of connection points: 2
#     Edge 66, Type (0, 1), BuildingBlock: CIFDUS_clean_linker_0, # of connection points: 2
#     Edge 67, Type (0, 1), BuildingBlock: CIFDUS_clean_linker_0, # of connection points: 2
#     Edge 68, Type (0, 1), BuildingBlock: CIFDUS_clean_linker_0, # of connection points: 2
#     Edge 69, Type (0, 1), BuildingBlock: CIFDUS_clean_linker_0, # of connection points: 2
#     Edge 70, Type (0, 1), BuildingBlock: CIFDUS_clean_linker_0, # of connection points: 2
#     Edge 71, Type (0, 1), BuildingBlock: CIFDUS_clean_linker_0, # of connection points: 2
#     Edge 72, Type (0, 1), BuildingBlock: CIFDUS_clean_linker_0, # of connection points: 2
#     Edge 73, Type (0, 1), BuildingBlock: CIFDUS_clean_linker_0, # of connection points: 2
#     Edge 74, Type (0, 1), BuildingBlock: CIFDUS_clean_linker_0, # of connection points: 2
#     Edge 75, Type (0, 1), BuildingBlock: CIFDUS_clean_linker_0, # of connection points: 2
#     Edge 76, Type (0, 1), BuildingBlock: CIFDUS_clean_linker_0, # of connection points: 2
#     Edge 77, Type (0, 1), BuildingBlock: CIFDUS_clean_linker_0, # of connection points: 2
#     Edge 78, Type (0, 1), BuildingBlock: CIFDUS_clean_linker_0, # of connection points: 2
#     Edge 79, Type (0, 1), BuildingBlock: CIFDUS_clean_linker_0, # of connection points: 2
#     Edge 80, Type (0, 1), BuildingBlock: CIFDUS_clean_linker_0, # of connection points: 2
#     Edge 81, Type (0, 1), BuildingBlock: CIFDUS_clean_linker_0, # of connection points: 2
#     Edge 82, Type (0, 1), BuildingBlock: CIFDUS_clean_linker_0, # of connection points: 2
#     Edge 83, Type (0, 1), BuildingBlock: CIFDUS_clean_linker_0, # of connection points: 2
#     Edge 84, Type (0, 1), BuildingBlock: CIFDUS_clean_linker_0, # of connection points: 2
#     Edge 85, Type (0, 1), BuildingBlock: CIFDUS_clean_linker_0, # of connection points: 2
#     Edge 86, Type (0, 1), BuildingBlock: CIFDUS_clean_linker_0, # of connection points: 2
#     Edge 87, Type (0, 1), BuildingBlock: CIFDUS_clean_linker_0, # of connection points: 2
#     Edge 88, Type (0, 1), BuildingBlock: CIFDUS_clean_linker_0, # of connection points: 2
#     Edge 89, Type (0, 1), BuildingBlock: CIFDUS_clean_linker_0, # of connection points: 2
#     Edge 90, Type (0, 1), BuildingBlock: CIFDUS_clean_linker_0, # of connection points: 2
#     Edge 91, Type (0, 1), BuildingBlock: CIFDUS_clean_linker_0, # of connection points: 2
#     Edge 92, Type (0, 1), BuildingBlock: CIFDUS_clean_linker_0, # of connection points: 2
#     Edge 93, Type (0, 1), BuildingBlock: CIFDUS_clean_linker_0, # of connection points: 2
#     Edge 94, Type (0, 1), BuildingBlock: CIFDUS_clean_linker_0, # of connection points: 2
#     Edge 95, Type (0, 1), BuildingBlock: CIFDUS_clean_linker_0, # of connection points: 2
#     Edge 96, Type (0, 1), BuildingBlock: CIFDUS_clean_linker_0, # of connection points: 2
#     Edge 97, Type (0, 1), BuildingBlock: CIFDUS_clean_linker_0, # of connection points: 2
#     Edge 98, Type (0, 1), BuildingBlock: CIFDUS_clean_linker_0, # of connection points: 2
#     Edge 99, Type (0, 1), BuildingBlock: CIFDUS_clean_linker_0, # of connection points: 2
#     Edge 100, Type (0, 1), BuildingBlock: CIFDUS_clean_linker_0, # of connection points: 2
#     Edge 101, Type (0, 1), BuildingBlock: CIFDUS_clean_linker_0, # of connection points: 2
#     Edge 102, Type (0, 1), BuildingBlock: CIFDUS_clean_linker_0, # of connection points: 2
#     Edge 103, Type (0, 1), BuildingBlock: CIFDUS_clean_linker_0, # of connection points: 2
#     Edge 104, Type (0, 1), BuildingBlock: CIFDUS_clean_linker_0, # of connection points: 2
#     Edge 105, Type (0, 1), BuildingBlock: CIFDUS_clean_linker_0, # of connection points: 2
#     Edge 106, Type (0, 1), BuildingBlock: CIFDUS_clean_linker_0, # of connection points: 2
#     Edge 107, Type (0, 1), BuildingBlock: CIFDUS_clean_linker_0, # of connection points: 2
#     Edge 108, Type (0, 1), BuildingBlock: CIFDUS_clean_linker_0, # of connection points: 2
#     Edge 109, Type (0, 1), BuildingBlock: CIFDUS_clean_linker_0, # of connection points: 2
#     Edge 110, Type (0, 1), BuildingBlock: CIFDUS_clean_linker_0, # of connection points: 2
#     Edge 111, Type (0, 1), BuildingBlock: CIFDUS_clean_linker_0, # of connection points: 2
#     Edge 112, Type (0, 1), BuildingBlock: CIFDUS_clean_linker_0, # of connection points: 2
#     Edge 113, Type (0, 1), BuildingBlock: CIFDUS_clean_linker_0, # of connection points: 2
#     Edge 114, Type (0, 1), BuildingBlock: CIFDUS_clean_linker_0, # of connection points: 2
#     Edge 115, Type (0, 1), BuildingBlock: CIFDUS_clean_linker_0, # of connection points: 2
#     Edge 116, Type (0, 1), BuildingBlock: CIFDUS_clean_linker_0, # of connection points: 2
#     Edge 117, Type (0, 1), BuildingBlock: CIFDUS_clean_linker_0, # of connection points: 2
#     Edge 118, Type (0, 1), BuildingBlock: CIFDUS_clean_linker_0, # of connection points: 2
#     Edge 119, Type (0, 1), BuildingBlock: CIFDUS_clean_linker_0, # of connection points: 2
#     Edge 120, Type (0, 1), BuildingBlock: CIFDUS_clean_linker_0, # of connection points: 2
#     Edge 121, Type (0, 1), BuildingBlock: CIFDUS_clean_linker_0, # of connection points: 2
#     Edge 122, Type (0, 1), BuildingBlock: CIFDUS_clean_linker_0, # of connection points: 2
#     Edge 123, Type (0, 1), BuildingBlock: CIFDUS_clean_linker_0, # of connection points: 2
#     Edge 124, Type (0, 1), BuildingBlock: CIFDUS_clean_linker_0, # of connection points: 2
#     Edge 125, Type (0, 1), BuildingBlock: CIFDUS_clean_linker_0, # of connection points: 2
#     Edge 126, Type (0, 1), BuildingBlock: CIFDUS_clean_linker_0, # of connection points: 2
#     Edge 127, Type (0, 1), BuildingBlock: CIFDUS_clean_linker_0, # of connection points: 2
#     Edge 128, Type (0, 1), BuildingBlock: CIFDUS_clean_linker_0, # of connection points: 2
#     Edge 129, Type (0, 1), BuildingBlock: CIFDUS_clean_linker_0, # of connection points: 2
#     Edge 130, Type (0, 1), BuildingBlock: CIFDUS_clean_linker_0, # of connection points: 2
#     Edge 131, Type (0, 1), BuildingBlock: CIFDUS_clean_linker_0, # of connection points: 2
#     Edge 132, Type (0, 1), BuildingBlock: CIFDUS_clean_linker_0, # of connection points: 2
#     Edge 133, Type (0, 1), BuildingBlock: CIFDUS_clean_linker_0, # of connection points: 2
#     Edge 134, Type (0, 1), BuildingBlock: CIFDUS_clean_linker_0, # of connection points: 2
#     Edge 135, Type (0, 1), BuildingBlock: CIFDUS_clean_linker_0, # of connection points: 2
#     Edge 136, Type (0, 1), BuildingBlock: CIFDUS_clean_linker_0, # of connection points: 2
#     Edge 137, Type (0, 1), BuildingBlock: CIFDUS_clean_linker_0, # of connection points: 2
#     Edge 138, Type (0, 1), BuildingBlock: CIFDUS_clean_linker_0, # of connection points: 2
#     Edge 139, Type (0, 1), BuildingBlock: CIFDUS_clean_linker_0, # of connection points: 2
#     Edge 140, Type (0, 1), BuildingBlock: CIFDUS_clean_linker_0, # of connection points: 2
#     Edge 141, Type (0, 1), BuildingBlock: CIFDUS_clean_linker_0, # of connection points: 2
#     Edge 142, Type (0, 1), BuildingBlock: CIFDUS_clean_linker_0, # of connection points: 2
#     Edge 143, Type (0, 1), BuildingBlock: CIFDUS_clean_linker_0, # of connection points: 2
#     Edge 144, Type (0, 1), BuildingBlock: CIFDUS_clean_linker_0, # of connection points: 2
#     Edge 145, Type (0, 1), BuildingBlock: CIFDUS_clean_linker_0, # of connection points: 2
#     Edge 146, Type (0, 1), BuildingBlock: CIFDUS_clean_linker_0, # of connection points: 2
#     Edge 147, Type (0, 1), BuildingBlock: CIFDUS_clean_linker_0, # of connection points: 2
#     Edge 148, Type (0, 1), BuildingBlock: CIFDUS_clean_linker_0, # of connection points: 2
#     Edge 149, Type (0, 1), BuildingBlock: CIFDUS_clean_linker_0, # of connection points: 2
#     Edge 150, Type (0, 1), BuildingBlock: CIFDUS_clean_linker_0, # of connection points: 2
#     Edge 151, Type (0, 1), BuildingBlock: CIFDUS_clean_linker_0, # of connection points: 2
# Relax obj value: 0.001
# Max RMSD: 0.046
# Mean RMSD: 0.021
data_MOF--net-tbo--node1-WUSLED_clean_sbu_0--node2-MUDLON_clean_linker_0--edge1-CIFDUS_clean_linker_0
_symmetry_space_group_name_H-M    P1
_symmetry_Int_Tables_number       1
_symmetry_cell_setting            triclinic
loop_
_symmetry_equiv_pos_as_xyz
'x, y, z'
_cell_length_a     109.62815
_cell_length_b     109.98805
_cell_length_c     109.69559
_cell_angle_alpha  89.555706
_cell_angle_beta   90.40908
_cell_angle_gamma 90.964841
loop_
_atom_site_label
_atom_site_type_symbol
_atom_site_fract_x
_atom_site_fract_y
_atom_site_fract_z
_atom_type_partial_charge
C0 C 0.19564 0.15175 0.20231 0.0
C1 C 0.20702 0.15057 0.19671 0.0
C2 C 0.2114 0.1329 0.20949 0.0
C3 C 0.21484 0.14125 0.20028 0.0
C4 C 0.19987 0.13401 0.21489 0.0
C5 C 0.19207 0.14337 0.21134 0.0
U6 U 0.18734 0.17847 0.18169 0.0
O7 O 0.16946 0.18459 0.17503 0.0
O8 O 0.18086 0.19668 0.18632 0.0
C9 C 0.17026 0.19496 0.18088 0.0
C10 C 0.18756 0.16183 0.199 0.0
C11 C 0.1595 0.1983 0.18798 0.0
C12 C 0.14523 0.19471 0.20455 0.0
C13 C 0.15538 0.19116 0.19782 0.0
C14 C 0.14325 0.21254 0.19163 0.0
C15 C 0.13904 0.20547 0.20155 0.0
C16 C 0.15336 0.20898 0.18493 0.0
C17 C 0.20784 0.18625 0.15445 0.0
C18 C 0.20578 0.20461 0.14219 0.0
C19 C 0.2201 0.18923 0.13626 0.0
C20 C 0.21668 0.18214 0.14636 0.0
C21 C 0.21474 0.20058 0.13407 0.0
C22 C 0.20236 0.19749 0.15228 0.0
C23 C 0.20457 0.17874 0.16514 0.0
O24 O 0.19236 0.17278 0.20029 0.0
O25 O 0.18142 0.16053 0.18875 0.0
O26 O 0.19445 0.17224 0.16412 0.0
O27 O 0.20571 0.18412 0.17576 0.0
H28 H 0.2099 0.15693 0.18967 0.0
H29 H 0.22358 0.14056 0.19583 0.0
H30 H 0.19699 0.12783 0.22209 0.0
H31 H 0.18332 0.14415 0.21576 0.0
H32 H 0.14219 0.18899 0.21205 0.0
H33 H 0.16004 0.18288 0.20031 0.0
H34 H 0.13888 0.22098 0.18918 0.0
H35 H 0.15646 0.21464 0.1774 0.0
H36 H 0.20157 0.21336 0.14087 0.0
H37 H 0.22687 0.18575 0.13012 0.0
H38 H 0.22097 0.17345 0.14788 0.0
H39 H 0.1955 0.20081 0.15844 0.0
C40 C 0.81972 0.18691 0.15659 0.0
C41 C 0.82776 0.18902 0.14684 0.0
C42 C 0.81274 0.20172 0.13657 0.0
C43 C 0.8243 0.19632 0.13693 0.0
C44 C 0.80477 0.19964 0.1464 0.0
C45 C 0.80821 0.19229 0.15626 0.0
U46 U 0.84039 0.17801 0.18356 0.0
O47 O 0.83554 0.17152 0.20193 0.0
O48 O 0.84618 0.15995 0.18993 0.0
C49 C 0.84017 0.16071 0.20022 0.0
C50 C 0.82298 0.17895 0.16703 0.0
C51 C 0.83242 0.15004 0.20372 0.0
C52 C 0.81583 0.14118 0.21571 0.0
C53 C 0.82263 0.15133 0.2118 0.0
C54 C 0.82844 0.12816 0.20359 0.0
C55 C 0.81867 0.12945 0.2117 0.0
C56 C 0.83525 0.13832 0.19969 0.0
C57 C 0.86882 0.19768 0.19103 0.0
C58 C 0.88009 0.2124 0.20338 0.0
C59 C 0.88884 0.1928 0.19931 0.0
C60 C 0.87847 0.18952 0.1925 0.0
C61 C 0.88979 0.20429 0.20485 0.0
C62 C 0.86977 0.20915 0.19651 0.0
C63 C 0.85787 0.19464 0.18361 0.0
O64 O 0.83277 0.17232 0.16586 0.0
O65 O 0.82205 0.18381 0.17789 0.0
O66 O 0.84732 0.19609 0.189 0.0
O67 O 0.85822 0.18471 0.17702 0.0
H68 H 0.83671 0.185 0.1468 0.0
H69 H 0.83062 0.19757 0.12948 0.0
H70 H 0.79589 0.2038 0.14657 0.0
H71 H 0.80184 0.19079 0.16365 0.0
H72 H 0.80852 0.1425 0.22213 0.0
H73 H 0.82031 0.16018 0.21529 0.0
H74 H 0.83083 0.11928 0.20023 0.0
H75 H 0.84284 0.13697 0.1936 0.0
H76 H 0.88037 0.22124 0.20767 0.0
H77 H 0.89619 0.18638 0.2001 0.0
H78 H 0.87806 0.18062 0.18835 0.0
H79 H 0.86248 0.21562 0.19549 0.0
C80 C 0.81771 0.84177 0.15472 0.0
C81 C 0.82272 0.83079 0.15088 0.0
C82 C 0.80839 0.82995 0.13375 0.0
C83 C 0.81809 0.82492 0.1405 0.0
C84 C 0.80346 0.84098 0.13767 0.0
C85 C 0.80808 0.84682 0.14805 0.0
U86 U 0.84064 0.8457 0.18105 0.0
O87 O 0.84871 0.86243 0.18872 0.0
O88 O 0.8374 0.85042 0.20022 0.0
C89 C 0.84335 0.86085 0.19932 0.0
C90 C 0.82232 0.84806 0.16567 0.0
C91 C 0.8371 0.87149 0.2042 0.0
C92 C 0.82243 0.88778 0.20233 0.0
C93 C 0.82806 0.87754 0.19749 0.0
C94 C 0.83473 0.88589 0.22065 0.0
C95 C 0.82576 0.89213 0.21396 0.0
C96 C 0.84034 0.8757 0.21581 0.0
C97 C 0.86731 0.82352 0.18417 0.0
C98 C 0.884 0.82559 0.19881 0.0
C99 C 0.88262 0.80788 0.18586 0.0
C100 C 0.87199 0.81238 0.18049 0.0
C101 C 0.88883 0.81445 0.19503 0.0
C102 C 0.87333 0.8301 0.19342 0.0
C103 C 0.85624 0.82808 0.17813 0.0
O104 O 0.82152 0.84189 0.17594 0.0
O105 O 0.83281 0.85389 0.16444 0.0
O106 O 0.85732 0.83876 0.17275 0.0
O107 O 0.84604 0.82674 0.18426 0.0
H108 H 0.8302 0.82678 0.15592 0.0
H109 H 0.82217 0.81651 0.13767 0.0
H110 H 0.79589 0.84503 0.13283 0.0
H111 H 0.80408 0.85526 0.1509 0.0
H112 H 0.81562 0.8924 0.19689 0.0
H113 H 0.82543 0.8744 0.1885 0.0
H114 H 0.83736 0.8888 0.22972 0.0
H115 H 0.84724 0.8711 0.22116 0.0
H116 H 0.88858 0.83092 0.20578 0.0
H117 H 0.8859 0.79917 0.18288 0.0
H118 H 0.86743 0.80715 0.17342 0.0
H119 H 0.86982 0.83873 0.19638 0.0
C120 C 0.16153 0.81489 0.18936 0.0
C121 C 0.1596 0.82092 0.20039 0.0
C122 C 0.14158 0.80821 0.20429 0.0
C123 C 0.14974 0.81759 0.20779 0.0
C124 C 0.14344 0.80235 0.19311 0.0
C125 C 0.15335 0.80565 0.18572 0.0
U126 U 0.18849 0.83579 0.18211 0.0
O127 O 0.20731 0.83169 0.17697 0.0
O128 O 0.1958 0.84226 0.16451 0.0
C129 C 0.20623 0.83672 0.16612 0.0
C130 C 0.17212 0.81807 0.18172 0.0
C131 C 0.21036 0.82932 0.15585 0.0
C132 C 0.21007 0.81049 0.14438 0.0
C133 C 0.20558 0.81759 0.15385 0.0
C134 C 0.22397 0.82689 0.13869 0.0
C135 C 0.21939 0.81503 0.13673 0.0
C136 C 0.21949 0.83395 0.14816 0.0
C137 C 0.19325 0.8635 0.20329 0.0
C138 C 0.2075 0.88045 0.20034 0.0
C139 C 0.19602 0.87866 0.21907 0.0
C140 C 0.19044 0.868 0.21482 0.0
C141 C 0.20454 0.88511 0.21186 0.0
C142 C 0.20188 0.86973 0.19608 0.0
C143 C 0.18685 0.85242 0.19907 0.0
O144 O 0.17112 0.82809 0.17521 0.0
O145 O 0.1828 0.81717 0.18716 0.0
O146 O 0.19266 0.84217 0.20068 0.0
O147 O 0.18129 0.85317 0.18844 0.0
H148 H 0.16578 0.82813 0.2033 0.0
H149 H 0.14848 0.8224 0.21626 0.0
H150 H 0.13741 0.79502 0.1902 0.0
H151 H 0.1547 0.80091 0.17724 0.0
H152 H 0.20625 0.80145 0.14305 0.0
H153 H 0.19848 0.81388 0.15968 0.0
H154 H 0.23125 0.83062 0.1331 0.0
H155 H 0.22331 0.84298 0.14961 0.0
H156 H 0.21399 0.88521 0.19454 0.0
H157 H 0.19371 0.88181 0.22808 0.0
H158 H 0.18385 0.86327 0.22054 0.0
H159 H 0.20418 0.86636 0.18714 0.0
C160 C 0.16107 0.81217 0.83659 0.0
C161 C 0.15166 0.82061 0.83521 0.0
C162 C 0.13981 0.80619 0.82294 0.0
C163 C 0.14114 0.81764 0.8285 0.0
C164 C 0.14928 0.79779 0.82432 0.0
C165 C 0.15975 0.80074 0.83111 0.0
U166 U 0.18923 0.83208 0.84406 0.0
O167 O 0.19737 0.83691 0.86185 0.0
O168 O 0.208 0.82684 0.84852 0.0
C169 C 0.20741 0.83092 0.85974 0.0
C170 C 0.17223 0.81497 0.84378 0.0
C171 C 0.21166 0.8227 0.86962 0.0
C172 C 0.21679 0.81957 0.89106 0.0
C173 C 0.21197 0.82682 0.88171 0.0
C174 C 0.22104 0.80388 0.87642 0.0
C175 C 0.22153 0.80808 0.88849 0.0
C176 C 0.21615 0.81109 0.86709 0.0
C177 C 0.19584 0.86085 0.8253 0.0
C178 C 0.2144 0.87294 0.82807 0.0
C179 C 0.19977 0.87855 0.81244 0.0
C180 C 0.19229 0.86869 0.81585 0.0
C181 C 0.21098 0.88074 0.81843 0.0
C182 C 0.2069 0.86308 0.83147 0.0
C183 C 0.18818 0.85015 0.8283 0.0
O184 O 0.18259 0.81411 0.83791 0.0
O185 O 0.1719 0.82449 0.85096 0.0
O186 O 0.18281 0.85031 0.83897 0.0
O187 O 0.19303 0.83962 0.82584 0.0
H188 H 0.15239 0.82951 0.83934 0.0
H189 H 0.13399 0.82428 0.82778 0.0
H190 H 0.14871 0.78897 0.82001 0.0
H191 H 0.16688 0.79408 0.83203 0.0
H192 H 0.21715 0.82313 0.90024 0.0
H193 H 0.2087 0.83578 0.88391 0.0
H194 H 0.22449 0.79501 0.87417 0.0
H195 H 0.21608 0.80761 0.85788 0.0
H196 H 0.22289 0.87445 0.83298 0.0
H197 H 0.19692 0.88426 0.80489 0.0
H198 H 0.1838 0.86706 0.81095 0.0
H199 H 0.20978 0.85711 0.83881 0.0
C200 C 0.15671 0.18248 0.82608 0.0
C201 C 0.15399 0.19374 0.83124 0.0
C202 C 0.1358 0.19522 0.81838 0.0
C203 C 0.14365 0.20007 0.8274 0.0
C204 C 0.13854 0.18387 0.81334 0.0
C205 C 0.1489 0.17757 0.81715 0.0
U206 U 0.18383 0.17777 0.84757 0.0
O207 O 0.19147 0.16085 0.85505 0.0
O208 O 0.20278 0.17294 0.84363 0.0
C209 C 0.20193 0.16246 0.84943 0.0
C210 C 0.16763 0.17577 0.82989 0.0
C211 C 0.20652 0.15187 0.84285 0.0
C212 C 0.20659 0.13858 0.82522 0.0
C213 C 0.20171 0.14844 0.83146 0.0
C214 C 0.22096 0.13541 0.84177 0.0
C215 C 0.21637 0.13201 0.83025 0.0
C216 C 0.21609 0.14523 0.84798 0.0
C217 C 0.18831 0.19987 0.87437 0.0
C218 C 0.20556 0.19967 0.88846 0.0
C219 C 0.18917 0.21384 0.8914 0.0
C220 C 0.18319 0.20925 0.88108 0.0
C221 C 0.20043 0.20911 0.89525 0.0
C222 C 0.19953 0.19507 0.87811 0.0
C223 C 0.18179 0.19534 0.8635 0.0
O224 O 0.17807 0.18171 0.82872 0.0
O225 O 0.16674 0.16981 0.84028 0.0
O226 O 0.17631 0.18468 0.86468 0.0
O227 O 0.18755 0.19666 0.8531 0.0
H228 H 0.15988 0.19764 0.83821 0.0
H229 H 0.14173 0.20872 0.83158 0.0
H230 H 0.1328 0.17993 0.80628 0.0
H231 H 0.15087 0.16889 0.81306 0.0
H232 H 0.20291 0.1363 0.81632 0.0
H233 H 0.19431 0.15347 0.82736 0.0
H234 H 0.22834 0.13045 0.84601 0.0
H235 H 0.21988 0.14772 0.85678 0.0
H236 H 0.21416 0.19576 0.89122 0.0
H237 H 0.18505 0.22124 0.89626 0.0
H238 H 0.17457 0.2131 0.8783 0.0
H239 H 0.20361 0.18778 0.87304 0.0
C240 C 0.81822 0.15335 0.84134 0.0
C241 C 0.82358 0.15003 0.8303 0.0
C242 C 0.80886 0.13327 0.82814 0.0
C243 C 0.81894 0.14007 0.82375 0.0
C244 C 0.80369 0.13656 0.83932 0.0
C245 C 0.80832 0.14651 0.84583 0.0
U246 U 0.84108 0.17956 0.84702 0.0
O247 O 0.83754 0.1985 0.85207 0.0
O248 O 0.84807 0.18683 0.86439 0.0
C249 C 0.84254 0.19726 0.86292 0.0
C250 C 0.82261 0.16405 0.84816 0.0
C251 C 0.8349 0.20104 0.87315 0.0
C252 C 0.81807 0.19723 0.88704 0.0
C253 C 0.82552 0.19341 0.87755 0.0
C254 C 0.82932 0.21635 0.88787 0.0
C255 C 0.81982 0.20878 0.89228 0.0
C256 C 0.83678 0.2125 0.87839 0.0
C257 C 0.86886 0.18329 0.8258 0.0
C258 C 0.8851 0.19849 0.82801 0.0
C259 C 0.88519 0.18459 0.81099 0.0
C260 C 0.87438 0.17916 0.81517 0.0
C261 C 0.89075 0.19427 0.81738 0.0
C262 C 0.87424 0.19302 0.8322 0.0
C263 C 0.85756 0.17721 0.82996 0.0
O264 O 0.83281 0.16266 0.85435 0.0
O265 O 0.82216 0.17448 0.84227 0.0
O266 O 0.84747 0.18331 0.82837 0.0
O267 O 0.85816 0.17167 0.84061 0.0
H268 H 0.83124 0.15523 0.82669 0.0
H269 H 0.82307 0.13787 0.81512 0.0
H270 H 0.79605 0.13144 0.84306 0.0
H271 H 0.8041 0.14893 0.85437 0.0
H272 H 0.81095 0.1911 0.8903 0.0
H273 H 0.82391 0.18453 0.87359 0.0
H274 H 0.83083 0.22537 0.89154 0.0
H275 H 0.84394 0.21854 0.87505 0.0
H276 H 0.88917 0.20588 0.83318 0.0
H277 H 0.88912 0.18126 0.80265 0.0
H278 H 0.87032 0.17171 0.81008 0.0
H279 H 0.87008 0.19633 0.84044 0.0
C280 C 0.84086 0.86726 0.82357 0.0
C281 C 0.83015 0.87144 0.82893 0.0
C282 C 0.82994 0.8888 0.81492 0.0
C283 C 0.82472 0.88212 0.82464 0.0
C284 C 0.84072 0.88454 0.80965 0.0
C285 C 0.84611 0.87389 0.81394 0.0
U286 U 0.84263 0.83901 0.84429 0.0
O287 O 0.8467 0.82015 0.83946 0.0
O288 O 0.85874 0.83007 0.85213 0.0
C289 C 0.85686 0.82006 0.84588 0.0
C290 C 0.84657 0.8559 0.82763 0.0
C291 C 0.86755 0.81511 0.83972 0.0
C292 C 0.88232 0.81525 0.82325 0.0
C293 C 0.87247 0.82057 0.8292 0.0
C294 C 0.88249 0.79914 0.83844 0.0
C295 C 0.88733 0.80436 0.82773 0.0
C296 C 0.87271 0.80445 0.84435 0.0
C297 C 0.81896 0.83288 0.86937 0.0
C298 C 0.80788 0.81479 0.8764 0.0
C299 C 0.81361 0.83047 0.8908 0.0
C300 C 0.81904 0.83726 0.88137 0.0
C301 C 0.80785 0.81922 0.88839 0.0
C302 C 0.81338 0.82152 0.867 0.0
C303 C 0.82424 0.84046 0.8594 0.0
O304 O 0.8517 0.85609 0.8385 0.0
O305 O 0.84018 0.8459 0.82558 0.0
O306 O 0.82318 0.83614 0.84829 0.0
O307 O 0.83499 0.84552 0.86156 0.0
H308 H 0.82597 0.86642 0.83639 0.0
H309 H 0.81649 0.88519 0.82898 0.0
H310 H 0.84488 0.8893 0.80203 0.0
H311 H 0.85434 0.87076 0.80964 0.0
H312 H 0.88578 0.81946 0.81499 0.0
H313 H 0.86858 0.82882 0.82549 0.0
H314 H 0.88625 0.79088 0.84225 0.0
H315 H 0.86906 0.80014 0.85249 0.0
H316 H 0.80365 0.80608 0.87427 0.0
H317 H 0.81364 0.83418 0.89992 0.0
H318 H 0.82318 0.84602 0.88345 0.0
H319 H 0.81315 0.81783 0.85788 0.0
C320 C 0.18787 0.65078 0.70137 0.0
C321 C 0.18619 0.63973 0.69514 0.0
C322 C 0.2011 0.62989 0.70838 0.0
C323 C 0.19274 0.62942 0.6986 0.0
C324 C 0.20274 0.64093 0.71462 0.0
C325 C 0.19617 0.65121 0.7112 0.0
U326 U 0.18145 0.67957 0.68219 0.0
O327 O 0.16398 0.68719 0.67599 0.0
O328 O 0.17602 0.6977 0.68817 0.0
C329 C 0.16537 0.69702 0.68262 0.0
C330 C 0.18061 0.66167 0.6982 0.0
C331 C 0.15479 0.70045 0.68997 0.0
C332 C 0.14284 0.69914 0.70854 0.0
C333 C 0.15257 0.69518 0.70145 0.0
C334 C 0.13732 0.71345 0.69262 0.0
C335 C 0.13516 0.70841 0.70425 0.0
C336 C 0.14704 0.70951 0.68556 0.0
C337 C 0.20303 0.68874 0.65598 0.0
C338 C 0.21141 0.70823 0.64905 0.0
C339 C 0.20906 0.69165 0.6348 0.0
C340 C 0.20425 0.68425 0.6441 0.0
C341 C 0.21289 0.70365 0.63722 0.0
C342 C 0.2065 0.70088 0.65831 0.0
C343 C 0.19888 0.68045 0.66589 0.0
O344 O 0.18584 0.67228 0.70039 0.0
O345 O 0.17453 0.66147 0.68781 0.0
O346 O 0.18845 0.67464 0.6641 0.0
O347 O 0.20024 0.68445 0.67709 0.0
H348 H 0.17977 0.63901 0.68762 0.0
H349 H 0.19131 0.62108 0.69356 0.0
H350 H 0.20893 0.64157 0.72233 0.0
H351 H 0.19752 0.65949 0.71635 0.0
H352 H 0.14136 0.69498 0.71739 0.0
H353 H 0.15845 0.68814 0.70498 0.0
H354 H 0.13171 0.72071 0.68909 0.0
H355 H 0.14864 0.7137 0.67674 0.0
H356 H 0.21413 0.71749 0.65116 0.0
H357 H 0.21017 0.68784 0.6258 0.0
H358 H 0.20171 0.67492 0.64207 0.0
H359 H 0.20564 0.70467 0.66734 0.0
C360 C 0.82061 0.68821 0.65878 0.0
C361 C 0.82843 0.6969 0.65337 0.0
C362 C 0.81315 0.70096 0.63762 0.0
C363 C 0.82473 0.70322 0.64288 0.0
C364 C 0.80537 0.69227 0.64317 0.0
C365 C 0.80908 0.68596 0.65362 0.0
U366 U 0.84203 0.68241 0.68595 0.0
O367 O 0.83756 0.67743 0.70486 0.0
O368 O 0.84814 0.665 0.69371 0.0
C369 C 0.84234 0.66659 0.70401 0.0
C370 C 0.82426 0.68142 0.66977 0.0
C371 C 0.8344 0.6564 0.70793 0.0
C372 C 0.8152 0.6451 0.70676 0.0
C373 C 0.82281 0.6546 0.70268 0.0
C374 C 0.83078 0.63894 0.7212 0.0
C375 C 0.81906 0.63719 0.71612 0.0
C376 C 0.83837 0.64847 0.71714 0.0
C377 C 0.87014 0.70269 0.69138 0.0
C378 C 0.88377 0.69971 0.70868 0.0
C379 C 0.88735 0.7165 0.69466 0.0
C380 C 0.87713 0.71287 0.68782 0.0
C381 C 0.89077 0.71 0.70521 0.0
C382 C 0.87353 0.6961 0.70183 0.0
C383 C 0.85925 0.69922 0.68424 0.0
O384 O 0.83431 0.67514 0.66889 0.0
O385 O 0.82351 0.68735 0.68009 0.0
O386 O 0.84877 0.70097 0.68964 0.0
O387 O 0.85973 0.68868 0.67869 0.0
H388 H 0.83738 0.69876 0.65725 0.0
H389 H 0.83099 0.70976 0.63879 0.0
H390 H 0.79633 0.69044 0.63952 0.0
H391 H 0.80291 0.67933 0.65772 0.0
H392 H 0.80629 0.64391 0.70256 0.0
H393 H 0.81962 0.6606 0.6955 0.0
H394 H 0.83399 0.6331 0.7285 0.0
H395 H 0.84729 0.64974 0.72129 0.0
H396 H 0.88607 0.69458 0.71683 0.0
H397 H 0.89262 0.72436 0.69164 0.0
H398 H 0.87465 0.71805 0.67976 0.0
H399 H 0.86819 0.68823 0.70473 0.0
C400 C 0.82466 0.33273 0.65945 0.0
C401 C 0.82965 0.32133 0.65711 0.0
C402 C 0.81667 0.31913 0.63907 0.0
C403 C 0.82568 0.31457 0.64702 0.0
C404 C 0.8119 0.33068 0.64135 0.0
C405 C 0.81585 0.3374 0.65146 0.0
U406 U 0.8453 0.33806 0.68722 0.0
O407 O 0.85218 0.35516 0.69526 0.0
O408 O 0.84049 0.34282 0.706 0.0
C409 C 0.84576 0.35363 0.70527 0.0
C410 C 0.82822 0.33966 0.67038 0.0
C411 C 0.83833 0.36405 0.70927 0.0
C412 C 0.83348 0.38563 0.70864 0.0
C413 C 0.8403 0.37584 0.7045 0.0
C414 C 0.82264 0.37211 0.72245 0.0
C415 C 0.82454 0.38388 0.71765 0.0
C416 C 0.82947 0.36235 0.71836 0.0
C417 C 0.87175 0.31548 0.69231 0.0
C418 C 0.88446 0.31333 0.71047 0.0
C419 C 0.88805 0.30081 0.69283 0.0
C420 C 0.87852 0.30648 0.68663 0.0
C421 C 0.89104 0.30402 0.70489 0.0
C422 C 0.87484 0.319 0.70423 0.0
C423 C 0.86123 0.32053 0.68571 0.0
O424 O 0.82667 0.3339 0.68081 0.0
O425 O 0.83869 0.34562 0.66977 0.0
O426 O 0.86285 0.33128 0.68059 0.0
O427 O 0.85059 0.31921 0.69104 0.0
H428 H 0.83651 0.31759 0.66317 0.0
H429 H 0.82965 0.30577 0.64545 0.0
H430 H 0.80485 0.3344 0.63553 0.0
H431 H 0.81187 0.34618 0.65315 0.0
H432 H 0.83514 0.39456 0.7047 0.0
H433 H 0.84714 0.37754 0.69759 0.0
H434 H 0.81599 0.37047 0.72956 0.0
H435 H 0.82786 0.35346 0.7224 0.0
H436 H 0.88649 0.31597 0.71977 0.0
H437 H 0.89306 0.29384 0.68818 0.0
H438 H 0.87629 0.30367 0.67742 0.0
H439 H 0.86969 0.32594 0.70877 0.0
C440 C 0.15838 0.3102 0.69213 0.0
C441 C 0.14618 0.31066 0.68815 0.0
C442 C 0.13935 0.3004 0.70673 0.0
C443 C 0.13675 0.30587 0.6954 0.0
C444 C 0.15154 0.30004 0.71075 0.0
C445 C 0.16094 0.30489 0.70356 0.0
U446 U 0.18439 0.33281 0.68478 0.0
O447 O 0.20277 0.32963 0.67777 0.0
O448 O 0.19013 0.34097 0.66727 0.0
C449 C 0.20074 0.33556 0.66753 0.0
C450 C 0.16831 0.31485 0.68413 0.0
C451 C 0.20419 0.32919 0.65634 0.0
C452 C 0.20326 0.3115 0.64317 0.0
C453 C 0.19932 0.31766 0.65352 0.0
C454 C 0.21678 0.32845 0.63824 0.0
C455 C 0.21216 0.31677 0.63547 0.0
C456 C 0.21284 0.33458 0.64857 0.0
C457 C 0.19087 0.35821 0.70831 0.0
C458 C 0.20579 0.37475 0.7064 0.0
C459 C 0.19535 0.3713 0.72554 0.0
C460 C 0.18889 0.36154 0.72042 0.0
C461 C 0.20396 0.37797 0.71865 0.0
C462 C 0.19933 0.36489 0.70128 0.0
C463 C 0.18409 0.34764 0.70344 0.0
O464 O 0.1665 0.32542 0.67878 0.0
O465 O 0.17952 0.31365 0.68824 0.0
O466 O 0.18995 0.33732 0.70353 0.0
O467 O 0.17774 0.34943 0.6934 0.0
H468 H 0.14393 0.3146 0.67936 0.0
H469 H 0.12746 0.30619 0.692 0.0
H470 H 0.15384 0.29602 0.7195 0.0
H471 H 0.17022 0.30437 0.70695 0.0
H472 H 0.19958 0.30249 0.64137 0.0
H473 H 0.19263 0.31335 0.65944 0.0
H474 H 0.22347 0.33287 0.63242 0.0
H475 H 0.21667 0.34349 0.65058 0.0
H476 H 0.21241 0.37967 0.70089 0.0
H477 H 0.19356 0.37365 0.73492 0.0
H478 H 0.18237 0.35651 0.72597 0.0
H479 H 0.20099 0.36242 0.6919 0.0
C480 C 0.15751 0.31062 0.33548 0.0
C481 C 0.15303 0.31866 0.32659 0.0
C482 C 0.13843 0.30318 0.31962 0.0
C483 C 0.14356 0.31498 0.31875 0.0
C484 C 0.14298 0.29519 0.32859 0.0
C485 C 0.15242 0.29888 0.33644 0.0
U486 U 0.18284 0.3329 0.34483 0.0
O487 O 0.18869 0.33901 0.36305 0.0
O488 O 0.20149 0.32949 0.35135 0.0
C489 C 0.19943 0.33398 0.3622 0.0
C490 C 0.16757 0.31428 0.34366 0.0
C491 C 0.20302 0.32625 0.37258 0.0
C492 C 0.20202 0.30708 0.38372 0.0
C493 C 0.19839 0.31435 0.37385 0.0
C494 C 0.21485 0.32359 0.39119 0.0
C495 C 0.21033 0.3116 0.39251 0.0
C496 C 0.21123 0.33083 0.38132 0.0
C497 C 0.18813 0.36184 0.32582 0.0
C498 C 0.20586 0.37519 0.32829 0.0
C499 C 0.18942 0.38099 0.31467 0.0
C500 C 0.1831 0.37022 0.3176 0.0
C501 C 0.20093 0.38358 0.31991 0.0
C502 C 0.1995 0.36442 0.33123 0.0
C503 C 0.18149 0.3504 0.32846 0.0
O504 O 0.17848 0.31429 0.33877 0.0
O505 O 0.16563 0.32394 0.35032 0.0
O506 O 0.17507 0.35021 0.33853 0.0
O507 O 0.18768 0.34042 0.32685 0.0
H508 H 0.15687 0.32776 0.32572 0.0
H509 H 0.1402 0.32142 0.31206 0.0
H510 H 0.1394 0.28598 0.3294 0.0
H511 H 0.15583 0.29254 0.3432 0.0
H512 H 0.19847 0.29785 0.38436 0.0
H513 H 0.19203 0.31066 0.36718 0.0
H514 H 0.2211 0.32744 0.39786 0.0
H515 H 0.21484 0.34003 0.3805 0.0
H516 H 0.21474 0.37681 0.33239 0.0
H517 H 0.18526 0.38731 0.30834 0.0
H518 H 0.1743 0.36839 0.31338 0.0
H519 H 0.20352 0.35805 0.33761 0.0
C520 C 0.15223 0.69116 0.32251 0.0
C521 C 0.14858 0.70075 0.32994 0.0
C522 C 0.13339 0.70673 0.31474 0.0
C523 C 0.13924 0.70846 0.3261 0.0
C524 C 0.13713 0.69707 0.30736 0.0
C525 C 0.14644 0.68938 0.31123 0.0
U526 U 0.17862 0.68246 0.34377 0.0
O527 O 0.18368 0.66447 0.35103 0.0
O528 O 0.19645 0.6748 0.33945 0.0
C529 C 0.1941 0.66449 0.34517 0.0
C530 C 0.16207 0.68297 0.32633 0.0
C531 C 0.19678 0.65336 0.33837 0.0
C532 C 0.19564 0.6412 0.31996 0.0
C533 C 0.19248 0.65161 0.32643 0.0
C534 C 0.20722 0.63408 0.33742 0.0
C535 C 0.20315 0.63234 0.32535 0.0
C536 C 0.20408 0.64449 0.34384 0.0
C537 C 0.18773 0.70329 0.37046 0.0
C538 C 0.19697 0.69849 0.39015 0.0
C539 C 0.20002 0.71848 0.38119 0.0
C540 C 0.19288 0.71503 0.37114 0.0
C541 C 0.20211 0.71028 0.39088 0.0
C542 C 0.18988 0.69501 0.38004 0.0
C543 C 0.18002 0.70005 0.35981 0.0
O544 O 0.17322 0.68733 0.32501 0.0
O545 O 0.16043 0.67726 0.33678 0.0
O546 O 0.17271 0.6905 0.361 0.0
O547 O 0.18543 0.70061 0.34916 0.0
H548 H 0.15296 0.70227 0.3387 0.0
H549 H 0.13653 0.71571 0.33207 0.0
H550 H 0.133 0.69558 0.29849 0.0
H551 H 0.14918 0.68205 0.30535 0.0
H552 H 0.19244 0.64023 0.31066 0.0
H553 H 0.18682 0.65838 0.32205 0.0
H554 H 0.21284 0.62738 0.34193 0.0
H555 H 0.20744 0.64567 0.35308 0.0
H556 H 0.19825 0.69197 0.39747 0.0
H557 H 0.204 0.72755 0.38129 0.0
H558 H 0.19137 0.72156 0.36386 0.0
H559 H 0.18604 0.68588 0.37977 0.0
C560 C 0.82146 0.65926 0.33756 0.0
C561 C 0.82815 0.65443 0.32792 0.0
C562 C 0.81207 0.63924 0.32428 0.0
C563 C 0.8235 0.64448 0.32134 0.0
C564 C 0.80552 0.64406 0.33406 0.0
C565 C 0.81017 0.65396 0.34062 0.0
U566 U 0.84448 0.68531 0.34341 0.0
O567 O 0.84122 0.70433 0.34821 0.0
O568 O 0.85122 0.6926 0.36094 0.0
C569 C 0.84587 0.7031 0.35923 0.0
C570 C 0.82592 0.66991 0.3444 0.0
C571 C 0.83845 0.70759 0.36949 0.0
C572 C 0.83646 0.71183 0.39117 0.0
C573 C 0.84304 0.70703 0.38147 0.0
C574 C 0.82054 0.71786 0.3771 0.0
C575 C 0.82519 0.71743 0.38907 0.0
C576 C 0.82707 0.713 0.36743 0.0
C577 C 0.87231 0.68929 0.32242 0.0
C578 C 0.88599 0.70694 0.32221 0.0
C579 C 0.89013 0.68969 0.30939 0.0
C580 C 0.87971 0.68371 0.31382 0.0
C581 C 0.89339 0.70141 0.31347 0.0
C582 C 0.87554 0.70092 0.32667 0.0
C583 C 0.86111 0.68295 0.32649 0.0
O584 O 0.83607 0.66846 0.35064 0.0
O585 O 0.82557 0.68034 0.3385 0.0
O586 O 0.85092 0.68887 0.32477 0.0
O587 O 0.8617 0.67747 0.33717 0.0
H588 H 0.83688 0.65845 0.32541 0.0
H589 H 0.82872 0.64107 0.31379 0.0
H590 H 0.79678 0.64015 0.33668 0.0
H591 H 0.80491 0.65755 0.34806 0.0
H592 H 0.84035 0.71145 0.40027 0.0
H593 H 0.85183 0.70302 0.38333 0.0
H594 H 0.81182 0.72199 0.37519 0.0
H595 H 0.82322 0.71362 0.35833 0.0
H596 H 0.88829 0.71591 0.32564 0.0
H597 H 0.89548 0.68522 0.30253 0.0
H598 H 0.87732 0.67476 0.3104 0.0
H599 H 0.86993 0.70537 0.33333 0.0
C600 C 0.84619 0.36747 0.32078 0.0
C601 C 0.83694 0.37284 0.32759 0.0
C602 C 0.83543 0.38925 0.31255 0.0
C603 C 0.8316 0.38365 0.3235 0.0
C604 C 0.84465 0.38373 0.30578 0.0
C605 C 0.84998 0.37297 0.30987 0.0
U606 U 0.84898 0.33947 0.34185 0.0
O607 O 0.85299 0.32059 0.33707 0.0
O608 O 0.86558 0.33078 0.34897 0.0
C609 C 0.8636 0.32078 0.34273 0.0
C610 C 0.852 0.35614 0.32478 0.0
C611 C 0.87398 0.31645 0.3356 0.0
C612 C 0.88609 0.31661 0.3171 0.0
C613 C 0.87654 0.32126 0.32399 0.0
C614 C 0.89079 0.30251 0.33348 0.0
C615 C 0.89327 0.3071 0.32173 0.0
C616 C 0.88122 0.30713 0.34033 0.0
C617 C 0.82623 0.33416 0.36793 0.0
C618 C 0.82766 0.31787 0.38299 0.0
C619 C 0.80933 0.3298 0.38157 0.0
C620 C 0.8145 0.33667 0.3721 0.0
C621 C 0.8158 0.32026 0.38708 0.0
C622 C 0.83282 0.32474 0.37345 0.0
C623 C 0.83121 0.3413 0.35765 0.0
O624 O 0.85767 0.35649 0.33538 0.0
O625 O 0.84551 0.34612 0.32319 0.0
O626 O 0.82977 0.33636 0.34685 0.0
O627 O 0.8421 0.34623 0.35929 0.0
H628 H 0.8339 0.36869 0.33605 0.0
H629 H 0.82458 0.38768 0.32898 0.0
H630 H 0.84768 0.38762 0.2972 0.0
H631 H 0.85705 0.36891 0.30446 0.0
H632 H 0.88784 0.32045 0.30815 0.0
H633 H 0.87108 0.32851 0.32021 0.0
H634 H 0.89603 0.2951 0.33726 0.0
H635 H 0.87936 0.3033 0.34927 0.0
H636 H 0.83284 0.31052 0.38697 0.0
H637 H 0.80025 0.33199 0.3846 0.0
H638 H 0.80928 0.34392 0.36796 0.0
H639 H 0.84188 0.32263 0.3703 0.0
C640 C 0.69681 0.15522 0.70599 0.0
C641 C 0.70646 0.15166 0.69855 0.0
C642 C 0.71158 0.1355 0.713 0.0
C643 C 0.71377 0.14189 0.70202 0.0
C644 C 0.70183 0.1391 0.72036 0.0
C645 C 0.69453 0.14886 0.71688 0.0
U646 U 0.68867 0.18214 0.68524 0.0
O647 O 0.67062 0.18844 0.67917 0.0
O648 O 0.68257 0.20042 0.69002 0.0
C649 C 0.67166 0.1987 0.68521 0.0
C650 C 0.68912 0.16557 0.70263 0.0
C651 C 0.66107 0.20216 0.69274 0.0
C652 C 0.63906 0.20411 0.69491 0.0
C653 C 0.64913 0.20006 0.68838 0.0
C654 C 0.65263 0.2124 0.71033 0.0
C655 C 0.64068 0.21044 0.70591 0.0
C656 C 0.66269 0.20834 0.70383 0.0
C657 C 0.70851 0.18982 0.65722 0.0
C658 C 0.70397 0.19772 0.6369 0.0
C659 C 0.72348 0.20236 0.64638 0.0
C660 C 0.72003 0.19557 0.65667 0.0
C661 C 0.71552 0.2035 0.63633 0.0
C662 C 0.7005 0.19098 0.64723 0.0
C663 C 0.7053 0.18238 0.6681 0.0
O664 O 0.69433 0.17637 0.70365 0.0
O665 O 0.6827 0.16434 0.69254 0.0
O666 O 0.69519 0.17578 0.66751 0.0
O667 O 0.70691 0.18768 0.6787 0.0
H668 H 0.70834 0.15647 0.6901 0.0
H669 H 0.72111 0.13929 0.69607 0.0
H670 H 0.69998 0.13454 0.72895 0.0
H671 H 0.68715 0.15152 0.72275 0.0
H672 H 0.63 0.2023 0.69129 0.0
H673 H 0.64757 0.19544 0.67981 0.0
H674 H 0.65425 0.21741 0.71867 0.0
H675 H 0.67174 0.21027 0.70741 0.0
H676 H 0.69766 0.19825 0.62929 0.0
H677 H 0.73236 0.20683 0.64639 0.0
H678 H 0.7264 0.19479 0.66422 0.0
H679 H 0.69157 0.18662 0.64731 0.0
C680 C 0.32125 0.18238 0.65717 0.0
C681 C 0.3276 0.19309 0.65394 0.0
C682 C 0.31439 0.19563 0.63614 0.0
C683 C 0.32419 0.19967 0.64352 0.0
C684 C 0.30817 0.1848 0.63938 0.0
C685 C 0.31158 0.17824 0.64981 0.0
U686 U 0.34203 0.17681 0.68468 0.0
O687 O 0.33728 0.17221 0.70364 0.0
O688 O 0.34812 0.15964 0.69291 0.0
C689 C 0.34217 0.1614 0.70309 0.0
C690 C 0.3245 0.17553 0.66826 0.0
C691 C 0.33429 0.15123 0.70719 0.0
C692 C 0.3176 0.13683 0.70368 0.0
C693 C 0.32513 0.14639 0.69957 0.0
C694 C 0.32831 0.13686 0.72308 0.0
C695 C 0.31907 0.13196 0.71551 0.0
C696 C 0.33585 0.1464 0.71894 0.0
C697 C 0.37014 0.19737 0.68967 0.0
C698 C 0.38283 0.1964 0.7079 0.0
C699 C 0.38859 0.20983 0.69122 0.0
C700 C 0.37826 0.20599 0.68466 0.0
C701 C 0.39099 0.20512 0.70295 0.0
C702 C 0.3725 0.19255 0.70131 0.0
C703 C 0.35924 0.19361 0.68268 0.0
O704 O 0.33454 0.1692 0.66764 0.0
O705 O 0.32357 0.18153 0.67851 0.0
O706 O 0.34874 0.19545 0.68802 0.0
O707 O 0.35979 0.18294 0.67742 0.0
H708 H 0.33509 0.19642 0.65955 0.0
H709 H 0.32908 0.20805 0.64139 0.0
H710 H 0.30071 0.18133 0.63382 0.0
H711 H 0.30662 0.16996 0.65215 0.0
H712 H 0.31067 0.1332 0.69756 0.0
H713 H 0.32379 0.15003 0.69046 0.0
H714 H 0.32959 0.1335 0.73229 0.0
H715 H 0.34284 0.15007 0.72497 0.0
H716 H 0.38431 0.19269 0.71695 0.0
H717 H 0.39476 0.21641 0.68706 0.0
H718 H 0.3766 0.20977 0.67566 0.0
H719 H 0.36631 0.18588 0.70532 0.0
C720 C 0.31597 0.83473 0.66152 0.0
C721 C 0.32262 0.82616 0.65501 0.0
C722 C 0.30472 0.82156 0.64237 0.0
C723 C 0.31704 0.81965 0.64545 0.0
C724 C 0.29821 0.83027 0.64889 0.0
C725 C 0.30378 0.83677 0.65835 0.0
U726 U 0.34042 0.84095 0.6864 0.0
O727 O 0.34766 0.85861 0.69281 0.0
O728 O 0.33769 0.84651 0.70538 0.0
C729 C 0.34279 0.85728 0.70367 0.0
C730 C 0.32136 0.84161 0.67175 0.0
C731 C 0.33574 0.86763 0.70805 0.0
C732 C 0.31719 0.87943 0.7083 0.0
C733 C 0.32396 0.86987 0.7036 0.0
C734 C 0.33401 0.88474 0.72179 0.0
C735 C 0.3221 0.88693 0.71753 0.0
C736 C 0.34075 0.87517 0.71709 0.0
C737 C 0.36815 0.82084 0.69092 0.0
C738 C 0.38162 0.82284 0.70852 0.0
C739 C 0.38658 0.80891 0.69236 0.0
C740 C 0.37599 0.81224 0.68604 0.0
C741 C 0.38951 0.81412 0.70372 0.0
C742 C 0.37105 0.82617 0.70217 0.0
C743 C 0.3569 0.82403 0.6843 0.0
O744 O 0.32128 0.83603 0.68238 0.0
O745 O 0.33163 0.84756 0.66956 0.0
O746 O 0.35732 0.83434 0.67816 0.0
O747 O 0.34674 0.82248 0.69045 0.0
H748 H 0.33205 0.82444 0.65736 0.0
H749 H 0.32228 0.81295 0.64066 0.0
H750 H 0.28878 0.83212 0.64663 0.0
H751 H 0.29852 0.84338 0.66325 0.0
H752 H 0.3081 0.88094 0.70472 0.0
H753 H 0.31996 0.86415 0.69658 0.0
H754 H 0.33802 0.8902 0.72899 0.0
H755 H 0.34982 0.87355 0.72067 0.0
H756 H 0.38348 0.82692 0.7173 0.0
H757 H 0.39251 0.80232 0.6883 0.0
H758 H 0.37391 0.80806 0.67734 0.0
H759 H 0.36509 0.83283 0.70609 0.0
C760 C 0.65907 0.81803 0.6891 0.0
C761 C 0.65546 0.82397 0.69972 0.0
C762 C 0.63879 0.80925 0.70249 0.0
C763 C 0.64541 0.81962 0.70636 0.0
C764 C 0.64243 0.80341 0.69176 0.0
C765 C 0.65247 0.80776 0.68514 0.0
U766 U 0.686 0.83997 0.68495 0.0
O767 O 0.70489 0.83654 0.67945 0.0
O768 O 0.69347 0.84863 0.6684 0.0
C769 C 0.70395 0.84306 0.66941 0.0
C770 C 0.6698 0.82231 0.68221 0.0
C771 C 0.7085 0.83742 0.65824 0.0
C772 C 0.70667 0.82285 0.64171 0.0
C773 C 0.70208 0.82794 0.6524 0.0
C774 C 0.72413 0.83661 0.64271 0.0
C775 C 0.71774 0.82718 0.63669 0.0
C776 C 0.71955 0.84167 0.65334 0.0
C777 C 0.691 0.86514 0.70864 0.0
C778 C 0.70824 0.87933 0.70835 0.0
C779 C 0.69307 0.88062 0.72422 0.0
C780 C 0.68665 0.8708 0.7191 0.0
C781 C 0.70399 0.88497 0.71897 0.0
C782 C 0.7018 0.86948 0.70324 0.0
C783 C 0.68422 0.85462 0.70365 0.0
O784 O 0.6688 0.83302 0.67694 0.0
O785 O 0.68035 0.82087 0.68776 0.0
O786 O 0.6899 0.8442 0.70416 0.0
O787 O 0.67861 0.85646 0.69319 0.0
H788 H 0.66045 0.83194 0.7029 0.0
H789 H 0.64279 0.82442 0.71449 0.0
H790 H 0.63768 0.7953 0.68861 0.0
H791 H 0.65517 0.80304 0.67699 0.0
H792 H 0.70148 0.81566 0.63728 0.0
H793 H 0.69353 0.82454 0.65607 0.0
H794 H 0.73278 0.84002 0.63927 0.0
H795 H 0.72466 0.84893 0.65777 0.0
H796 H 0.71668 0.88235 0.70415 0.0
H797 H 0.68944 0.88484 0.73228 0.0
H798 H 0.6783 0.86759 0.72336 0.0
H799 H 0.7053 0.86519 0.69515 0.0
C800 C 0.65999 0.8117 0.33968 0.0
C801 C 0.64862 0.81729 0.33813 0.0
C802 C 0.64049 0.79932 0.32776 0.0
C803 C 0.63898 0.81116 0.33222 0.0
C804 C 0.65197 0.79391 0.32907 0.0
C805 C 0.66156 0.8 0.335 0.0
U806 U 0.68448 0.83671 0.34608 0.0
O807 O 0.6903 0.84447 0.36368 0.0
O808 O 0.70333 0.83454 0.35261 0.0
C809 C 0.70118 0.83968 0.36314 0.0
C810 C 0.67004 0.81742 0.34683 0.0
C811 C 0.70494 0.83266 0.37395 0.0
C812 C 0.70419 0.81413 0.38616 0.0
C813 C 0.70037 0.82083 0.37598 0.0
C814 C 0.7171 0.83107 0.39249 0.0
C815 C 0.71264 0.81915 0.39454 0.0
C816 C 0.71328 0.83775 0.38228 0.0
C817 C 0.68875 0.86396 0.3245 0.0
C818 C 0.70378 0.88008 0.32807 0.0
C819 C 0.69209 0.87977 0.30924 0.0
C820 C 0.68597 0.8692 0.31316 0.0
C821 C 0.70112 0.88531 0.31661 0.0
C822 C 0.69767 0.86947 0.33197 0.0
C823 C 0.68247 0.85263 0.32823 0.0
O824 O 0.68088 0.81745 0.34178 0.0
O825 O 0.66769 0.82759 0.35252 0.0
O826 O 0.67612 0.85313 0.33834 0.0
O827 O 0.68897 0.84274 0.32746 0.0
H828 H 0.64708 0.82629 0.34168 0.0
H829 H 0.63025 0.81557 0.33147 0.0
H830 H 0.65355 0.7849 0.32556 0.0
H831 H 0.6702 0.79546 0.33611 0.0
H832 H 0.70069 0.80494 0.38735 0.0
H833 H 0.69392 0.81675 0.36962 0.0
H834 H 0.72347 0.83528 0.39882 0.0
H835 H 0.71687 0.84689 0.38088 0.0
H836 H 0.71077 0.88404 0.33391 0.0
H837 H 0.68969 0.88364 0.30046 0.0
H838 H 0.6791 0.86507 0.30729 0.0
H839 H 0.69997 0.8655 0.34074 0.0
C840 C 0.65837 0.19292 0.32129 0.0
C841 C 0.64623 0.18946 0.32385 0.0
C842 C 0.63866 0.20679 0.31222 0.0
C843 C 0.63649 0.19636 0.31943 0.0
C844 C 0.6508 0.21036 0.30985 0.0
C845 C 0.66052 0.20351 0.3143 0.0
U846 U 0.68539 0.18384 0.34217 0.0
O847 O 0.69147 0.16556 0.34771 0.0
O848 O 0.70362 0.17766 0.3372 0.0
C849 C 0.70176 0.16666 0.34167 0.0
C850 C 0.6686 0.18497 0.32499 0.0
C851 C 0.70509 0.15634 0.33377 0.0
C852 C 0.70771 0.13454 0.33114 0.0
C853 C 0.70359 0.14432 0.33802 0.0
C854 C 0.71479 0.14859 0.31555 0.0
C855 C 0.71354 0.13658 0.31992 0.0
C856 C 0.71063 0.15835 0.32238 0.0
C857 C 0.69421 0.20329 0.36979 0.0
C858 C 0.71305 0.20058 0.38122 0.0
C859 C 0.69895 0.21615 0.38716 0.0
C860 C 0.6911 0.21272 0.37763 0.0
C861 C 0.7101 0.21022 0.38899 0.0
C862 C 0.70517 0.19714 0.37171 0.0
C863 C 0.68621 0.20037 0.35934 0.0
O864 O 0.67969 0.18955 0.32379 0.0
O865 O 0.66721 0.17854 0.33506 0.0
O866 O 0.67974 0.19024 0.36023 0.0
O867 O 0.6912 0.20192 0.34857 0.0
H868 H 0.64424 0.18126 0.32904 0.0
H869 H 0.62725 0.19329 0.32131 0.0
H870 H 0.6528 0.21843 0.30446 0.0
H871 H 0.66972 0.20642 0.31204 0.0
H872 H 0.7067 0.12541 0.33481 0.0
H873 H 0.69949 0.1425 0.34681 0.0
H874 H 0.7191 0.15046 0.30687 0.0
H875 H 0.71198 0.16747 0.3188 0.0
H876 H 0.72148 0.19572 0.38247 0.0
H877 H 0.69646 0.2237 0.39285 0.0
H878 H 0.68269 0.2176 0.37625 0.0
H879 H 0.70771 0.18981 0.36574 0.0
C880 C 0.32528 0.15112 0.33349 0.0
C881 C 0.33351 0.14737 0.32458 0.0
C882 C 0.31903 0.13169 0.31781 0.0
C883 C 0.33042 0.13773 0.31682 0.0
C884 C 0.31086 0.13549 0.32681 0.0
C885 C 0.31397 0.14511 0.33457 0.0
U886 U 0.3455 0.17826 0.3425 0.0
O887 O 0.34038 0.19646 0.34868 0.0
O888 O 0.35121 0.18469 0.36065 0.0
C889 C 0.34516 0.19487 0.35959 0.0
C890 C 0.32824 0.16142 0.34152 0.0
C891 C 0.33717 0.19778 0.36985 0.0
C892 C 0.32011 0.19281 0.38315 0.0
C893 C 0.32774 0.18979 0.37348 0.0
C894 C 0.33126 0.21184 0.38565 0.0
C895 C 0.32175 0.20391 0.38934 0.0
C896 C 0.33889 0.20879 0.376 0.0
C897 C 0.37373 0.18591 0.32311 0.0
C898 C 0.38609 0.20434 0.32525 0.0
C899 C 0.39202 0.18883 0.31099 0.0
C900 C 0.38186 0.18175 0.31434 0.0
C901 C 0.39423 0.20025 0.31634 0.0
C902 C 0.37593 0.19721 0.32862 0.0
C903 C 0.36288 0.17845 0.32611 0.0
O904 O 0.33818 0.16036 0.34818 0.0
O905 O 0.3272 0.17224 0.33649 0.0
O906 O 0.35232 0.18374 0.32445 0.0
O907 O 0.36347 0.17218 0.33634 0.0
H908 H 0.34229 0.15194 0.32361 0.0
H909 H 0.33698 0.13498 0.31009 0.0
H910 H 0.30194 0.13121 0.32771 0.0
H911 H 0.30748 0.14793 0.34135 0.0
H912 H 0.31298 0.18643 0.38581 0.0
H913 H 0.32628 0.18123 0.36882 0.0
H914 H 0.33268 0.22054 0.39004 0.0
H915 H 0.34608 0.2151 0.37328 0.0
H916 H 0.3876 0.21302 0.32964 0.0
H917 H 0.39799 0.18547 0.30399 0.0
H918 H 0.38027 0.17306 0.30997 0.0
H919 H 0.36975 0.20055 0.33544 0.0
C920 C 0.34057 0.86484 0.31917 0.0
C921 C 0.32793 0.86339 0.31737 0.0
C922 C 0.3263 0.88472 0.31135 0.0
C923 C 0.3209 0.87319 0.31346 0.0
C924 C 0.33896 0.88614 0.31324 0.0
C925 C 0.34601 0.8763 0.31707 0.0
U926 U 0.34787 0.8384 0.34081 0.0
O927 O 0.35398 0.8199 0.33692 0.0
O928 O 0.36553 0.83211 0.34794 0.0
C929 C 0.36461 0.82161 0.34232 0.0
C930 C 0.34825 0.85453 0.32304 0.0
C931 C 0.3753 0.81811 0.33519 0.0
C932 C 0.38788 0.81988 0.31707 0.0
C933 C 0.37787 0.8236 0.32389 0.0
C934 C 0.39292 0.80524 0.33285 0.0
C935 C 0.3955 0.81059 0.32144 0.0
C936 C 0.38291 0.80896 0.33964 0.0
C937 C 0.32635 0.83252 0.36794 0.0
C938 C 0.329 0.81656 0.38315 0.0
C939 C 0.31147 0.82964 0.38405 0.0
C940 C 0.31556 0.83589 0.37368 0.0
C941 C 0.31811 0.81986 0.38891 0.0
C942 C 0.33307 0.82283 0.37273 0.0
C943 C 0.33033 0.83925 0.35699 0.0
O944 O 0.35435 0.85599 0.3333 0.0
O945 O 0.34336 0.84358 0.32195 0.0
O946 O 0.32928 0.83337 0.34664 0.0
O947 O 0.34065 0.84542 0.358 0.0
H948 H 0.32344 0.85467 0.31891 0.0
H949 H 0.31123 0.87166 0.31192 0.0
H950 H 0.34343 0.8949 0.31189 0.0
H951 H 0.35574 0.87765 0.3184 0.0
H952 H 0.38951 0.82411 0.30827 0.0
H953 H 0.37206 0.83068 0.32029 0.0
H954 H 0.39868 0.79821 0.33659 0.0
H955 H 0.38108 0.80465 0.34837 0.0
H956 H 0.33426 0.80901 0.38657 0.0
H957 H 0.30316 0.83255 0.38835 0.0
H958 H 0.31027 0.84338 0.37013 0.0
H959 H 0.34143 0.82009 0.36838 0.0
C960 C 0.69524 0.65496 0.20844 0.0
C961 C 0.70633 0.65305 0.20252 0.0
C962 C 0.71077 0.63619 0.21635 0.0
C963 C 0.71403 0.64376 0.20644 0.0
C964 C 0.69951 0.638 0.22208 0.0
C965 C 0.69183 0.64733 0.21817 0.0
U966 U 0.68795 0.6811 0.18684 0.0
O967 O 0.67039 0.68746 0.1795 0.0
O968 O 0.6819 0.69965 0.19058 0.0
C969 C 0.67139 0.69804 0.18493 0.0
C970 C 0.68736 0.66507 0.20472 0.0
C971 C 0.66058 0.70205 0.19158 0.0
C972 C 0.64712 0.70111 0.20911 0.0
C973 C 0.65717 0.69673 0.20275 0.0
C974 C 0.64373 0.71602 0.19312 0.0
C975 C 0.64035 0.7109 0.20442 0.0
C976 C 0.65374 0.71163 0.18678 0.0
C977 C 0.70973 0.68711 0.16002 0.0
C978 C 0.70826 0.70438 0.14613 0.0
C979 C 0.72415 0.68961 0.14346 0.0
C980 C 0.7198 0.68304 0.15352 0.0
C981 C 0.71852 0.70043 0.13968 0.0
C982 C 0.70391 0.69778 0.15623 0.0
C983 C 0.70567 0.68024 0.17086 0.0
O984 O 0.69233 0.67597 0.20576 0.0
O985 O 0.6814 0.66357 0.19438 0.0
O986 O 0.69535 0.67409 0.1697 0.0
O987 O 0.70663 0.68602 0.18127 0.0
H988 H 0.70909 0.65883 0.19495 0.0
H989 H 0.72255 0.64251 0.20171 0.0
H990 H 0.69677 0.63242 0.2298 0.0
H991 H 0.68329 0.64869 0.22286 0.0
H992 H 0.64484 0.69704 0.21784 0.0
H993 H 0.66237 0.68933 0.2066 0.0
H994 H 0.63863 0.72342 0.18915 0.0
H995 H 0.65623 0.71582 0.17816 0.0
H996 H 0.70377 0.71272 0.14355 0.0
H997 H 0.73194 0.6862 0.13861 0.0
H998 H 0.72437 0.6748 0.1563 0.0
H999 H 0.69611 0.70106 0.16117 0.0
C1000 C 0.3191 0.68164 0.16084 0.0
C1001 C 0.3249 0.69255 0.15728 0.0
C1002 C 0.31047 0.69477 0.1404 0.0
C1003 C 0.32063 0.69906 0.14713 0.0
C1004 C 0.30487 0.6837 0.14392 0.0
C1005 C 0.30914 0.67721 0.15404 0.0
U1006 U 0.3406 0.67632 0.18813 0.0
O1007 O 0.33592 0.67134 0.20702 0.0
O1008 O 0.34689 0.65908 0.19607 0.0
C1009 C 0.34085 0.66057 0.20625 0.0
C1010 C 0.32298 0.67493 0.17181 0.0
C1011 C 0.33292 0.65031 0.20999 0.0
C1012 C 0.31623 0.63607 0.20584 0.0
C1013 C 0.32395 0.64561 0.20205 0.0
C1014 C 0.32637 0.63582 0.22554 0.0
C1015 C 0.3173 0.63109 0.21767 0.0
C1016 C 0.3341 0.64534 0.22172 0.0
C1017 C 0.36831 0.69724 0.19371 0.0
C1018 C 0.38074 0.69629 0.21213 0.0
C1019 C 0.38624 0.71034 0.19588 0.0
C1020 C 0.37619 0.70626 0.18905 0.0
C1021 C 0.38861 0.70547 0.20755 0.0
C1022 C 0.37068 0.6922 0.20526 0.0
C1023 C 0.35754 0.69342 0.18653 0.0
O1024 O 0.33322 0.66896 0.17092 0.0
O1025 O 0.32203 0.68081 0.18213 0.0
O1026 O 0.34696 0.695 0.1918 0.0
O1027 O 0.35831 0.68286 0.18109 0.0
H1028 H 0.3326 0.69611 0.16247 0.0
H1029 H 0.32509 0.70761 0.14475 0.0
H1030 H 0.29715 0.68003 0.13884 0.0
H1031 H 0.30458 0.66878 0.15664 0.0
H1032 H 0.30946 0.63257 0.19949 0.0
H1033 H 0.32289 0.64936 0.19295 0.0
H1034 H 0.32733 0.63236 0.23476 0.0
H1035 H 0.34092 0.64891 0.22799 0.0
H1036 H 0.38236 0.69226 0.22102 0.0
H1037 H 0.39199 0.71753 0.19214 0.0
H1038 H 0.37447 0.71028 0.18016 0.0
H1039 H 0.3647 0.68518 0.20899 0.0
C1040 C 0.32259 0.3411 0.15693 0.0
C1041 C 0.32823 0.33041 0.15317 0.0
C1042 C 0.315 0.32953 0.13517 0.0
C1043 C 0.32445 0.32465 0.14238 0.0
C1044 C 0.30943 0.34026 0.13904 0.0
C1045 C 0.3132 0.34597 0.14979 0.0
U1046 U 0.34272 0.34551 0.18563 0.0
O1047 O 0.3494 0.36256 0.19389 0.0
O1048 O 0.33712 0.3504 0.20417 0.0
C1049 C 0.34268 0.36108 0.2037 0.0
C1050 C 0.32618 0.34731 0.16827 0.0
C1051 C 0.33555 0.37169 0.20771 0.0
C1052 C 0.32053 0.38029 0.22132 0.0
C1053 C 0.32665 0.37024 0.2168 0.0
C1054 C 0.33205 0.39354 0.20779 0.0
C1055 C 0.32323 0.39209 0.21696 0.0
C1056 C 0.33816 0.38347 0.20324 0.0
C1057 C 0.36931 0.32484 0.19327 0.0
C1058 C 0.38264 0.3287 0.21066 0.0
C1059 C 0.38477 0.31024 0.19902 0.0
C1060 C 0.37522 0.31383 0.19132 0.0
C1061 C 0.38858 0.31761 0.20882 0.0
C1062 C 0.37308 0.33227 0.20297 0.0
C1063 C 0.35913 0.32838 0.18524 0.0
O1064 O 0.3244 0.34113 0.17842 0.0
O1065 O 0.33669 0.35324 0.16806 0.0
O1066 O 0.3605 0.3389 0.1796 0.0
O1067 O 0.34818 0.32677 0.18986 0.0
H1068 H 0.33552 0.32653 0.15858 0.0
H1069 H 0.32899 0.31646 0.13963 0.0
H1070 H 0.30199 0.34415 0.13387 0.0
H1071 H 0.3087 0.35418 0.15259 0.0
H1072 H 0.31394 0.37885 0.22852 0.0
H1073 H 0.32457 0.36133 0.22061 0.0
H1074 H 0.33428 0.40248 0.20415 0.0
H1075 H 0.34505 0.38498 0.19634 0.0
H1076 H 0.38542 0.33467 0.21801 0.0
H1077 H 0.38899 0.30157 0.19743 0.0
H1078 H 0.37238 0.30796 0.18391 0.0
H1079 H 0.36862 0.34081 0.20461 0.0
C1080 C 0.65764 0.32218 0.19504 0.0
C1081 C 0.65599 0.3273 0.20657 0.0
C1082 C 0.63661 0.31628 0.20877 0.0
C1083 C 0.64559 0.32436 0.21338 0.0
C1084 C 0.63827 0.31131 0.19712 0.0
C1085 C 0.6487 0.31423 0.19034 0.0
U1086 U 0.68646 0.34121 0.18884 0.0
O1087 O 0.70493 0.33543 0.18405 0.0
O1088 O 0.69468 0.34715 0.1715 0.0
C1089 C 0.70451 0.34064 0.17324 0.0
C1090 C 0.66871 0.32488 0.18792 0.0
C1091 C 0.70883 0.33332 0.16288 0.0
C1092 C 0.70786 0.32729 0.14154 0.0
C1093 C 0.7028 0.33325 0.15151 0.0
C1094 C 0.72486 0.32109 0.1542 0.0
C1095 C 0.71908 0.32133 0.14271 0.0
C1096 C 0.71983 0.32705 0.16413 0.0
C1097 C 0.69462 0.36819 0.20921 0.0
C1098 C 0.71231 0.38126 0.20539 0.0
C1099 C 0.70052 0.38381 0.22376 0.0
C1100 C 0.69268 0.3743 0.22016 0.0
C1101 C 0.71047 0.38739 0.21644 0.0
C1102 C 0.70447 0.37173 0.20182 0.0
C1103 C 0.68645 0.35803 0.20573 0.0
O1104 O 0.66862 0.33507 0.18157 0.0
O1105 O 0.6791 0.32311 0.19367 0.0
O1106 O 0.69089 0.34713 0.2075 0.0
O1107 O 0.68085 0.3592 0.19516 0.0
H1108 H 0.66281 0.33347 0.21036 0.0
H1109 H 0.64471 0.32824 0.22237 0.0
H1110 H 0.63148 0.30521 0.19319 0.0
H1111 H 0.6498 0.31023 0.18142 0.0
H1112 H 0.70321 0.32773 0.1328 0.0
H1113 H 0.69434 0.33805 0.15021 0.0
H1114 H 0.73339 0.31642 0.1555 0.0
H1115 H 0.72472 0.327 0.17275 0.0
H1116 H 0.71978 0.38385 0.19946 0.0
H1117 H 0.69892 0.38818 0.2324 0.0
H1118 H 0.68515 0.37165 0.22601 0.0
H1119 H 0.70611 0.3671 0.19332 0.0
C1120 C 0.65695 0.3198 0.83336 0.0
C1121 C 0.65362 0.32741 0.82361 0.0
C1122 C 0.6377 0.31289 0.81747 0.0
C1123 C 0.64407 0.324 0.81574 0.0
C1124 C 0.64106 0.30536 0.82734 0.0
C1125 C 0.65059 0.3088 0.83519 0.0
U1126 U 0.68403 0.34033 0.84199 0.0
O1127 O 0.69046 0.3467 0.85991 0.0
O1128 O 0.7023 0.33545 0.84873 0.0
C1129 C 0.70062 0.34053 0.85938 0.0
C1130 C 0.66721 0.32304 0.84147 0.0
C1131 C 0.70378 0.33303 0.87017 0.0
C1132 C 0.69862 0.32346 0.8896 0.0
C1133 C 0.69525 0.33032 0.87935 0.0
C1134 C 0.71904 0.32177 0.8816 0.0
C1135 C 0.71058 0.3191 0.89088 0.0
C1136 C 0.71569 0.32869 0.87141 0.0
C1137 C 0.69202 0.36787 0.82188 0.0
C1138 C 0.71044 0.38016 0.82475 0.0
C1139 C 0.6955 0.38599 0.80951 0.0
C1140 C 0.68822 0.37591 0.8127 0.0
C1141 C 0.70674 0.3882 0.81543 0.0
C1142 C 0.70313 0.37008 0.82795 0.0
C1143 C 0.68435 0.35718 0.82489 0.0
O1144 O 0.67809 0.3219 0.83672 0.0
O1145 O 0.66606 0.33316 0.84763 0.0
O1146 O 0.6779 0.358 0.83489 0.0
O1147 O 0.68962 0.34661 0.82376 0.0
H1148 H 0.65846 0.33595 0.82205 0.0
H1149 H 0.64165 0.33008 0.80834 0.0
H1150 H 0.63651 0.29667 0.82884 0.0
H1151 H 0.65309 0.30278 0.84264 0.0
H1152 H 0.69189 0.32172 0.89661 0.0
H1153 H 0.68599 0.33354 0.87867 0.0
H1154 H 0.72825 0.31839 0.88213 0.0
H1155 H 0.72242 0.33065 0.86446 0.0
H1156 H 0.71909 0.38151 0.82941 0.0
H1157 H 0.69227 0.39208 0.80243 0.0
H1158 H 0.67964 0.37437 0.80796 0.0
H1159 H 0.7062 0.36395 0.83508 0.0
C1160 C 0.6569 0.6857 0.81762 0.0
C1161 C 0.6538 0.69746 0.82124 0.0
C1162 C 0.63749 0.69785 0.80595 0.0
C1163 C 0.64412 0.70349 0.81547 0.0
C1164 C 0.64049 0.68594 0.80265 0.0
C1165 C 0.65009 0.67995 0.80841 0.0
U1166 U 0.68277 0.68007 0.84134 0.0
O1167 O 0.68932 0.66233 0.84797 0.0
O1168 O 0.70161 0.67461 0.83785 0.0
C1169 C 0.69987 0.66365 0.84245 0.0
C1170 C 0.66745 0.6793 0.8228 0.0
C1171 C 0.70359 0.65334 0.83478 0.0
C1172 C 0.70968 0.64508 0.81525 0.0
C1173 C 0.70597 0.65489 0.82228 0.0
C1174 C 0.70852 0.63191 0.83299 0.0
C1175 C 0.711 0.63344 0.82049 0.0
C1176 C 0.7049 0.64176 0.84005 0.0
C1177 C 0.68811 0.70003 0.86937 0.0
C1178 C 0.70628 0.69879 0.88215 0.0
C1179 C 0.68965 0.71164 0.88811 0.0
C1180 C 0.68311 0.70816 0.87766 0.0
C1181 C 0.70136 0.70707 0.89047 0.0
C1182 C 0.69971 0.6953 0.87172 0.0
C1183 C 0.68123 0.69676 0.85825 0.0
O1184 O 0.67798 0.68519 0.82252 0.0
O1185 O 0.66562 0.6733 0.83305 0.0
O1186 O 0.67514 0.68637 0.85868 0.0
O1187 O 0.68708 0.69848 0.84794 0.0
H1188 H 0.65897 0.70204 0.82835 0.0
H1189 H 0.64208 0.71267 0.81819 0.0
H1190 H 0.63544 0.68125 0.79553 0.0
H1191 H 0.65232 0.67086 0.80553 0.0
H1192 H 0.71169 0.64669 0.80572 0.0
H1193 H 0.70504 0.66369 0.81792 0.0
H1194 H 0.70925 0.62307 0.83733 0.0
H1195 H 0.70309 0.64032 0.84966 0.0
H1196 H 0.71532 0.69519 0.88357 0.0
H1197 H 0.68548 0.71786 0.89438 0.0
H1198 H 0.67415 0.71187 0.87603 0.0
H1199 H 0.70373 0.689 0.86541 0.0
C1200 C 0.32454 0.64939 0.83222 0.0
C1201 C 0.32352 0.65115 0.81955 0.0
C1202 C 0.31722 0.62994 0.81689 0.0
C1203 C 0.31985 0.64155 0.81199 0.0
C1204 C 0.31843 0.62818 0.82957 0.0
C1205 C 0.322 0.63782 0.83714 0.0
U1206 U 0.34519 0.67632 0.84155 0.0
O1207 O 0.34046 0.69437 0.84837 0.0
O1208 O 0.35135 0.68214 0.85979 0.0
C1209 C 0.34547 0.69244 0.85912 0.0
C1210 C 0.32791 0.65952 0.84046 0.0
C1211 C 0.33779 0.69528 0.86964 0.0
C1212 C 0.31906 0.69261 0.88115 0.0
C1213 C 0.3265 0.68937 0.87141 0.0
C1214 C 0.33424 0.70753 0.88757 0.0
C1215 C 0.3228 0.70182 0.8893 0.0
C1216 C 0.34165 0.7043 0.87782 0.0
C1217 C 0.37311 0.68442 0.82151 0.0
C1218 C 0.38269 0.70341 0.81468 0.0
C1219 C 0.39466 0.68517 0.81626 0.0
C1220 C 0.38437 0.67867 0.82031 0.0
C1221 C 0.39392 0.69759 0.8132 0.0
C1222 C 0.37241 0.69691 0.81879 0.0
C1223 C 0.36218 0.67704 0.82477 0.0
O1224 O 0.33802 0.65818 0.84683 0.0
O1225 O 0.32667 0.67058 0.83605 0.0
O1226 O 0.35152 0.68223 0.82346 0.0
O1227 O 0.36299 0.67038 0.83475 0.0
H1228 H 0.32542 0.65997 0.81546 0.0
H1229 H 0.31886 0.64333 0.80231 0.0
H1230 H 0.31668 0.61935 0.83367 0.0
H1231 H 0.32275 0.63623 0.84687 0.0
H1232 H 0.31038 0.68792 0.8823 0.0
H1233 H 0.3234 0.68234 0.86519 0.0
H1234 H 0.33734 0.71476 0.89356 0.0
H1235 H 0.35033 0.70898 0.87657 0.0
H1236 H 0.38172 0.71291 0.81228 0.0
H1237 H 0.40318 0.68042 0.81543 0.0
H1238 H 0.38516 0.66905 0.82231 0.0
H1239 H 0.36386 0.70162 0.81959 0.0
C1240 C 0.33509 0.36494 0.81474 0.0
C1241 C 0.33977 0.37693 0.81456 0.0
C1242 C 0.32124 0.38414 0.80466 0.0
C1243 C 0.3329 0.38643 0.80964 0.0
C1244 C 0.31649 0.37219 0.80502 0.0
C1245 C 0.32331 0.36271 0.80999 0.0
U1246 U 0.34368 0.34002 0.83804 0.0
O1247 O 0.34885 0.32106 0.83498 0.0
O1248 O 0.36172 0.33363 0.844 0.0
C1249 C 0.35997 0.32278 0.83926 0.0
C1250 C 0.34281 0.35482 0.81914 0.0
C1251 C 0.37 0.31768 0.83195 0.0
C1252 C 0.39127 0.31768 0.82553 0.0
C1253 C 0.3816 0.32334 0.83142 0.0
C1254 C 0.37788 0.30074 0.8204 0.0
C1255 C 0.38957 0.3062 0.82013 0.0
C1256 C 0.36826 0.30638 0.82627 0.0
C1257 C 0.32447 0.33589 0.86725 0.0
C1258 C 0.3157 0.3187 0.87852 0.0
C1259 C 0.32118 0.33724 0.88913 0.0
C1260 C 0.32523 0.34244 0.87817 0.0
C1261 C 0.31615 0.32538 0.88942 0.0
C1262 C 0.31981 0.32389 0.86757 0.0
C1263 C 0.32768 0.34205 0.8556 0.0
O1264 O 0.34968 0.35696 0.8288 0.0
O1265 O 0.33773 0.3439 0.81928 0.0
O1266 O 0.32551 0.33596 0.84552 0.0
O1267 O 0.33809 0.34816 0.8554 0.0
H1268 H 0.34886 0.37892 0.81801 0.0
H1269 H 0.33687 0.39552 0.8094 0.0
H1270 H 0.30747 0.37014 0.80141 0.0
H1271 H 0.31939 0.35361 0.80992 0.0
H1272 H 0.40018 0.32209 0.82559 0.0
H1273 H 0.38332 0.332 0.8358 0.0
H1274 H 0.37619 0.292 0.81617 0.0
H1275 H 0.35947 0.30172 0.82661 0.0
H1276 H 0.31176 0.30962 0.87834 0.0
H1277 H 0.32185 0.34259 0.89736 0.0
H1278 H 0.32873 0.35171 0.87819 0.0
H1279 H 0.31904 0.31858 0.85932 0.0
H1280 H 0.26932 0.24741 0.96006 0.0
N1281 N 0.26022 0.26897 0.96755 0.0
H1282 H 0.25913 0.23288 0.9464 0.0
H1283 H 0.23699 0.26906 0.9605 0.0
H1284 H 0.22675 0.25476 0.9467 0.0
H1285 H 0.25584 0.28868 0.95428 0.0
H1286 H 0.26953 0.29883 0.93982 0.0
H1287 H 0.28432 0.26418 0.96475 0.0
H1288 H 0.29832 0.27444 0.95045 0.0
H1289 H 0.27132 0.25202 0.98201 0.0
H1290 H 0.2516 0.2855 0.98251 0.0
H1291 H 0.27179 0.25164 1.0044 0.0
H1292 H 0.25243 0.28556 1.00475 0.0
H1293 H 0.26791 0.24599 0.06003 0.0
H1294 H 0.25988 0.23011 0.07377 0.0
H1295 H 0.23337 0.25529 0.08722 0.0
H1296 H 0.24133 0.27092 0.07332 0.0
H1297 H 0.25907 0.29243 0.06644 0.0
H1298 H 0.27253 0.30299 0.08091 0.0
H1299 H 0.29657 0.27225 0.08116 0.0
H1300 H 0.28292 0.26173 0.06683 0.0
H1301 H 0.27929 0.26117 0.04499 0.0
H1302 H 0.27986 0.26089 0.02265 0.0
H1303 H 0.24342 0.27533 0.02137 0.0
N1304 N 0.26066 0.26959 0.05904 0.0
H1305 H 0.24322 0.27601 0.0436 0.0
C1306 C 0.25385 0.25928 0.96132 0.0
C1307 C 0.25993 0.24889 0.95742 0.0
C1308 C 0.25412 0.24066 0.94951 0.0
C1309 C 0.24213 0.24268 0.94536 0.0
C1310 C 0.23591 0.2528 0.9498 0.0
C1311 C 0.24174 0.26101 0.95768 0.0
C1312 C 0.26909 0.27575 0.96056 0.0
C1313 C 0.26518 0.28571 0.95363 0.0
C1314 C 0.27305 0.29151 0.9454 0.0
C1315 C 0.28506 0.28747 0.94393 0.0
C1316 C 0.28909 0.2777 0.95124 0.0
C1317 C 0.28116 0.27189 0.95948 0.0
C1318 C 0.26126 0.26873 0.98064 0.0
C1319 C 0.26716 0.25932 0.98695 0.0
C1320 C 0.26749 0.25918 0.99976 0.0
C1321 C 0.26201 0.26849 0.00647 0.0
C1322 C 0.25647 0.27806 0.99999 0.0
C1323 C 0.25606 0.27812 0.98726 0.0
C1324 C 0.25515 0.25961 0.06567 0.0
C1325 C 0.26023 0.24797 0.06579 0.0
C1326 C 0.25569 0.23895 0.07372 0.0
C1327 C 0.246 0.24142 0.08166 0.0
C1328 C 0.24069 0.25297 0.08114 0.0
C1329 C 0.24524 0.26194 0.07323 0.0
C1330 C 0.26998 0.27635 0.06553 0.0
C1331 C 0.26742 0.28814 0.06938 0.0
C1332 C 0.27514 0.29414 0.07765 0.0
C1333 C 0.28561 0.28843 0.08229 0.0
C1334 C 0.2885 0.27684 0.0779 0.0
C1335 C 0.28077 0.27085 0.06959 0.0
C1336 C 0.26125 0.26881 0.04594 0.0
C1337 C 0.27148 0.26432 0.03988 0.0
C1338 C 0.27174 0.26408 0.02708 0.0
C1339 C 0.26175 0.26823 0.02012 0.0
C1340 C 0.25143 0.27236 0.02633 0.0
C1341 C 0.25123 0.27268 0.03906 0.0
H1342 H 0.77766 0.26585 0.96075 0.0
N1343 N 0.75679 0.25507 0.96956 0.0
H1344 H 0.79256 0.25656 0.94743 0.0
H1345 H 0.75789 0.23176 0.96335 0.0
H1346 H 0.77289 0.22229 0.95008 0.0
H1347 H 0.73934 0.2514 0.95305 0.0
H1348 H 0.73105 0.26609 0.93856 0.0
H1349 H 0.76142 0.27962 0.96956 0.0
H1350 H 0.75278 0.29459 0.95546 0.0
H1351 H 0.77832 0.25849 0.98274 0.0
H1352 H 0.73908 0.25736 0.98581 0.0
H1353 H 0.78022 0.26154 1.00444 0.0
H1354 H 0.74092 0.26126 0.00761 0.0
H1355 H 0.78548 0.27109 0.07498 0.0
H1356 H 0.79359 0.25616 0.08935 0.0
H1357 H 0.76877 0.22893 0.07467 0.0
H1358 H 0.76037 0.24406 0.06082 0.0
H1359 H 0.74547 0.25963 0.06992 0.0
H1360 H 0.73273 0.27036 0.08438 0.0
H1361 H 0.75495 0.30281 0.07932 0.0
H1362 H 0.76781 0.29187 0.06509 0.0
H1363 H 0.78085 0.2772 0.04234 0.0
H1364 H 0.77837 0.2749 0.02034 0.0
H1365 H 0.74585 0.25289 0.02638 0.0
N1366 N 0.76667 0.26836 0.05987 0.0
H1367 H 0.74799 0.25606 0.04826 0.0
C1368 C 0.76666 0.24945 0.96312 0.0
C1369 C 0.77664 0.2563 0.95863 0.0
C1370 C 0.78519 0.25095 0.95103 0.0
C1371 C 0.78388 0.23869 0.94764 0.0
C1372 C 0.77408 0.23178 0.95241 0.0
C1373 C 0.76558 0.23713 0.96008 0.0
C1374 C 0.75091 0.26439 0.9624 0.0
C1375 C 0.74214 0.26087 0.95372 0.0
C1376 C 0.73738 0.26932 0.94548 0.0
C1377 C 0.74123 0.28159 0.94578 0.0
C1378 C 0.74973 0.28521 0.95481 0.0
C1379 C 0.75459 0.27669 0.96299 0.0
C1380 C 0.75846 0.25761 0.98244 0.0
C1381 C 0.77004 0.25904 0.98796 0.0
C1382 C 0.77114 0.26092 1.00053 0.0
C1383 C 0.76074 0.26167 0.00795 0.0
C1384 C 0.74919 0.26049 1.00236 0.0
C1385 C 0.74809 0.25839 0.98982 0.0
C1386 C 0.7724 0.25875 0.06674 0.0
C1387 C 0.78196 0.26183 0.07474 0.0
C1388 C 0.78661 0.25325 0.08293 0.0
C1389 C 0.78182 0.24129 0.08326 0.0
C1390 C 0.77255 0.23809 0.07486 0.0
C1391 C 0.76782 0.24674 0.06677 0.0
C1392 C 0.75764 0.27498 0.06646 0.0
C1393 C 0.74742 0.26913 0.0717 0.0
C1394 C 0.74013 0.27529 0.07998 0.0
C1395 C 0.74292 0.28741 0.08317 0.0
C1396 C 0.75269 0.29342 0.07728 0.0
C1397 C 0.75997 0.28724 0.06904 0.0
C1398 C 0.76476 0.26669 0.04696 0.0
C1399 C 0.77317 0.27193 0.03886 0.0
C1400 C 0.77178 0.27048 0.02626 0.0
C1401 C 0.76197 0.26356 0.02143 0.0
C1402 C 0.75345 0.2584 0.02964 0.0
C1403 C 0.75475 0.26005 0.04225 0.0
H1404 H 0.75467 0.77567 0.95775 0.0
N1405 N 0.76467 0.75573 0.96889 0.0
H1406 H 0.76515 0.78999 0.94414 0.0
H1407 H 0.78853 0.75742 0.96473 0.0
H1408 H 0.79913 0.77179 0.95106 0.0
H1409 H 0.76807 0.73704 0.95422 0.0
H1410 H 0.75354 0.72818 0.93966 0.0
H1411 H 0.74022 0.76061 0.96752 0.0
H1412 H 0.72553 0.75165 0.95316 0.0
H1413 H 0.75404 0.7753 0.9798 0.0
H1414 H 0.77021 0.74052 0.98693 0.0
H1415 H 0.75148 0.77836 1.00162 0.0
H1416 H 0.76725 0.74324 0.00882 0.0
H1417 H 0.75146 0.79174 0.06523 0.0
H1418 H 0.76446 0.80261 0.0799 0.0
H1419 H 0.78776 0.77138 0.08254 0.0
H1420 H 0.77453 0.76052 0.06826 0.0
H1421 H 0.75984 0.7451 0.06276 0.0
H1422 H 0.75035 0.73062 0.07704 0.0
H1423 H 0.72243 0.75668 0.08472 0.0
H1424 H 0.73202 0.77108 0.07046 0.0
H1425 H 0.73798 0.77519 0.04082 0.0
H1426 H 0.74027 0.77194 0.01893 0.0
H1427 H 0.77464 0.75436 0.02583 0.0
N1428 N 0.75289 0.7686 0.05873 0.0
H1429 H 0.77199 0.75724 0.04765 0.0
C1430 C 0.77084 0.76539 0.96226 0.0
C1431 C 0.7644 0.77484 0.95652 0.0
C1432 C 0.77039 0.78299 0.94866 0.0
C1433 C 0.78294 0.78195 0.94642 0.0
C1434 C 0.78947 0.77288 0.95264 0.0
C1435 C 0.78344 0.76467 0.96044 0.0
C1436 C 0.75528 0.74944 0.96198 0.0
C1437 C 0.75871 0.74007 0.9542 0.0
C1438 C 0.75038 0.73501 0.9459 0.0
C1439 C 0.73835 0.73924 0.94516 0.0
C1440 C 0.73476 0.74829 0.95335 0.0
C1441 C 0.74313 0.75336 0.96167 0.0
C1442 C 0.76245 0.75768 0.9817 0.0
C1443 C 0.75698 0.76827 0.98604 0.0
C1444 C 0.75543 0.76997 0.99859 0.0
C1445 C 0.7592 0.76108 0.00709 0.0
C1446 C 0.76445 0.75041 1.00264 0.0
C1447 C 0.76606 0.74877 0.99011 0.0
C1448 C 0.76201 0.77538 0.06553 0.0
C1449 C 0.75955 0.78738 0.06877 0.0
C1450 C 0.76701 0.79357 0.07715 0.0
C1451 C 0.77714 0.78785 0.08251 0.0
C1452 C 0.77994 0.77601 0.07877 0.0
C1453 C 0.77244 0.76982 0.07042 0.0
C1454 C 0.74662 0.75921 0.06558 0.0
C1455 C 0.7516 0.74763 0.06739 0.0
C1456 C 0.74619 0.73938 0.07561 0.0
C1457 C 0.73567 0.74252 0.08208 0.0
C1458 C 0.73044 0.75391 0.07982 0.0
C1459 C 0.7359 0.76216 0.07169 0.0
C1460 C 0.75481 0.76658 0.0459 0.0
C1461 C 0.746 0.77064 0.03757 0.0
C1462 C 0.74738 0.76884 0.02504 0.0
C1463 C 0.75768 0.76293 0.02051 0.0
C1464 C 0.76651 0.75881 0.02893 0.0
C1465 C 0.76506 0.76056 0.04149 0.0
H1466 H 0.28733 0.75044 0.96812 0.0
N1467 N 0.26282 0.74546 0.97034 0.0
H1468 H 0.30127 0.74061 0.95417 0.0
H1469 H 0.25853 0.72554 0.95742 0.0
H1470 H 0.27252 0.71534 0.9437 0.0
H1471 H 0.23898 0.7471 0.96609 0.0
H1472 H 0.22872 0.76105 0.95193 0.0
H1473 H 0.27345 0.76482 0.95829 0.0
H1474 H 0.26333 0.77869 0.9442 0.0
H1475 H 0.27486 0.76525 0.98018 0.0
H1476 H 0.25656 0.73142 0.98914 0.0
H1477 H 0.27804 0.76934 1.00179 0.0
H1478 H 0.26007 0.7352 0.01085 0.0
H1479 H 0.2976 0.7659 0.0717 0.0
H1480 H 0.3069 0.75172 0.0862 0.0
H1481 H 0.27875 0.72503 0.07791 0.0
H1482 H 0.2695 0.73931 0.06346 0.0
H1483 H 0.25583 0.755 0.07018 0.0
H1484 H 0.24265 0.76709 0.08299 0.0
H1485 H 0.26539 0.79881 0.07595 0.0
H1486 H 0.27841 0.78664 0.06293 0.0
H1487 H 0.29219 0.76756 0.041 0.0
H1488 H 0.28927 0.76317 0.01933 0.0
H1489 H 0.25365 0.74769 0.02718 0.0
N1490 N 0.277 0.76284 0.0592 0.0
H1491 H 0.25687 0.75175 0.04881 0.0
C1492 C 0.27183 0.73872 0.96378 0.0
C1493 C 0.28407 0.74268 0.96297 0.0
C1494 C 0.29206 0.73701 0.95498 0.0
C1495 C 0.288 0.72725 0.94768 0.0
C1496 C 0.27591 0.72297 0.94899 0.0
C1497 C 0.26793 0.72868 0.95692 0.0
C1498 C 0.25695 0.75483 0.96325 0.0
C1499 C 0.24429 0.75413 0.9615 0.0
C1500 C 0.23846 0.7621 0.95342 0.0
C1501 C 0.24525 0.77089 0.94686 0.0
C1502 C 0.25788 0.77189 0.94898 0.0
C1503 C 0.26368 0.76399 0.95712 0.0
C1504 C 0.26536 0.74802 0.98301 0.0
C1505 C 0.27158 0.75865 0.98678 0.0
C1506 C 0.27347 0.76094 0.9992 0.0
C1507 C 0.26928 0.75263 0.00815 0.0
C1508 C 0.26324 0.74193 1.00429 0.0
C1509 C 0.26131 0.73969 0.99188 0.0
C1510 C 0.2829 0.75369 0.06652 0.0
C1511 C 0.29358 0.75691 0.07289 0.0
C1512 C 0.29888 0.74879 0.08114 0.0
C1513 C 0.29354 0.73725 0.08325 0.0
C1514 C 0.283 0.7339 0.0766 0.0
C1515 C 0.27773 0.74203 0.06828 0.0
C1516 C 0.26813 0.76996 0.06552 0.0
C1517 C 0.25787 0.76459 0.07117 0.0
C1518 C 0.25038 0.77151 0.07863 0.0
C1519 C 0.25299 0.78391 0.0806 0.0
C1520 C 0.26301 0.78932 0.07455 0.0
C1521 C 0.27048 0.7824 0.06711 0.0
C1522 C 0.27477 0.76009 0.04653 0.0
C1523 C 0.28377 0.76321 0.038 0.0
C1524 C 0.28203 0.76076 0.02561 0.0
C1525 C 0.27118 0.75512 0.02142 0.0
C1526 C 0.26218 0.75191 0.03004 0.0
C1527 C 0.26397 0.75432 0.04246 0.0
H1528 H 0.966 0.24688 0.29426 0.0
N1529 N 0.9697 0.24784 0.27036 0.0
H1530 H 0.95333 0.26028 0.30636 0.0
H1531 H 0.95968 0.26919 0.26246 0.0
H1532 H 0.94723 0.28279 0.2745 0.0
H1533 H 0.96833 0.25476 0.24633 0.0
H1534 H 0.95373 0.24704 0.23118 0.0
H1535 H 0.95357 0.22982 0.27309 0.0
H1536 H 0.93859 0.22239 0.25823 0.0
H1537 H 0.98659 0.23091 0.27212 0.0
H1538 H 0.98174 0.2685 0.26222 0.0
H1539 H 0.00835 0.23283 0.26765 0.0
H1540 H 1.0035 0.27073 0.25836 0.0
H1541 H 0.06928 0.24687 0.27395 0.0
H1542 H 0.08304 0.25555 0.28921 0.0
H1543 H 0.07998 0.29081 0.27195 0.0
H1544 H 0.06613 0.28197 0.2566 0.0
H1545 H 0.0693 0.26546 0.23326 0.0
H1546 H 0.08269 0.25359 0.22034 0.0
H1547 H 0.07783 0.22261 0.24436 0.0
H1548 H 0.06425 0.23454 0.25713 0.0
H1549 H 0.04865 0.24344 0.27106 0.0
H1550 H 0.02688 0.24101 0.27483 0.0
H1551 H 0.0193 0.26588 0.24509 0.0
N1552 N 0.05941 0.25877 0.25427 0.0
H1553 H 0.04122 0.26871 0.24188 0.0
C1554 C 0.96384 0.25701 0.27751 0.0
C1555 C 0.96212 0.25486 0.28998 0.0
C1556 C 0.95488 0.26254 0.29687 0.0
C1557 C 0.94917 0.27259 0.2914 0.0
C1558 C 0.95133 0.27504 0.27897 0.0
C1559 C 0.95857 0.26733 0.27209 0.0
C1560 C 0.9621 0.24274 0.26083 0.0
C1561 C 0.96203 0.24752 0.24891 0.0
C1562 C 0.95357 0.24318 0.24029 0.0
C1563 C 0.94491 0.23409 0.24345 0.0
C1564 C 0.94522 0.22921 0.25534 0.0
C1565 C 0.95374 0.23347 0.26389 0.0
C1566 C 0.98251 0.24953 0.26767 0.0
C1567 C 0.99026 0.23961 0.26909 0.0
C1568 C 1.00273 0.24077 0.26661 0.0
C1569 C 0.00781 0.25197 0.26271 0.0
C1570 C 0.99997 0.26191 0.26119 0.0
C1571 C 0.98746 0.26069 0.26354 0.0
C1572 C 0.06655 0.26382 0.26415 0.0
C1573 C 0.07132 0.2565 0.27354 0.0
C1574 C 0.07923 0.26149 0.28229 0.0
C1575 C 0.08263 0.27387 0.28178 0.0
C1576 C 0.07764 0.28122 0.27253 0.0
C1577 C 0.06966 0.27622 0.26382 0.0
C1578 C 0.06584 0.25094 0.24615 0.0
C1579 C 0.07094 0.25604 0.23558 0.0
C1580 C 0.07858 0.24924 0.22822 0.0
C1581 C 0.08137 0.23718 0.23136 0.0
C1582 C 0.07595 0.23193 0.24179 0.0
C1583 C 0.06816 0.23872 0.24908 0.0
C1584 C 0.04659 0.25641 0.25625 0.0
C1585 C 0.04235 0.24841 0.26538 0.0
C1586 C 0.0298 0.24694 0.26745 0.0
C1587 C 0.02121 0.2533 0.26033 0.0
C1588 C 0.02556 0.26103 0.25097 0.0
C1589 C 0.03809 0.26259 0.24902 0.0
H1590 H 0.77328 0.05831 0.26117 0.0
N1591 N 0.7489 0.05408 0.2572 0.0
H1592 H 0.78594 0.07358 0.25067 0.0
H1593 H 0.74329 0.06613 0.23696 0.0
H1594 H 0.75601 0.08095 0.22596 0.0
H1595 H 0.72535 0.05906 0.25926 0.0
H1596 H 0.71605 0.07319 0.27352 0.0
H1597 H 0.76015 0.06442 0.2771 0.0
H1598 H 0.75097 0.07834 0.2914 0.0
H1599 H 0.76111 0.04311 0.27623 0.0
H1600 H 0.743 0.03635 0.24192 0.0
H1601 H 0.76463 0.02144 0.27879 0.0
H1602 H 0.74706 0.01466 0.24401 0.0
H1603 H 0.78454 0.95286 0.27352 0.0
H1604 H 0.79581 0.93955 0.26006 0.0
H1605 H 0.77183 0.94919 0.23021 0.0
H1606 H 0.76059 0.96251 0.24384 0.0
H1607 H 0.74451 0.95451 0.25667 0.0
H1608 H 0.73047 0.9393 0.26494 0.0
H1609 H 0.74905 0.94141 0.29977 0.0
H1610 H 0.76274 0.95718 0.2915 0.0
H1611 H 0.77881 0.98301 0.27522 0.0
H1612 H 0.77577 1.00481 0.27226 0.0
H1613 H 0.74125 0.99699 0.2544 0.0
N1614 N 0.76427 0.96472 0.26846 0.0
H1615 H 0.74474 0.97536 0.25679 0.0
C1616 C 0.75727 0.06123 0.24991 0.0
C1617 C 0.7695 0.06315 0.25343 0.0
C1618 C 0.77676 0.07184 0.24734 0.0
C1619 C 0.77195 0.07868 0.23757 0.0
C1620 C 0.75994 0.07611 0.23363 0.0
C1621 C 0.75269 0.06754 0.23979 0.0
C1622 C 0.7434 0.06061 0.26707 0.0
C1623 C 0.7309 0.06302 0.26645 0.0
C1624 C 0.72562 0.0711 0.27461 0.0
C1625 C 0.7328 0.077 0.28353 0.0
C1626 C 0.74522 0.0741 0.28452 0.0
C1627 C 0.75047 0.06601 0.27639 0.0
C1628 C 0.75159 0.04138 0.25893 0.0
C1629 C 0.75793 0.03699 0.2692 0.0
C1630 C 0.76005 0.02452 0.27059 0.0
C1631 C 0.75609 0.01615 0.26165 0.0
C1632 C 0.75002 0.02069 0.25125 0.0
C1633 C 0.74777 0.03311 0.24997 0.0
C1634 C 0.77176 0.95865 0.25972 0.0
C1635 C 0.78192 0.95231 0.26401 0.0
C1636 C 0.78834 0.94472 0.25628 0.0
C1637 C 0.7847 0.94325 0.24405 0.0
C1638 C 0.77478 0.95001 0.23962 0.0
C1639 C 0.76839 0.95768 0.24737 0.0
C1640 C 0.75464 0.95717 0.27353 0.0
C1641 C 0.74535 0.95205 0.26619 0.0
C1642 C 0.73741 0.94315 0.27091 0.0
C1643 C 0.73869 0.93896 0.283 0.0
C1644 C 0.74767 0.94447 0.29047 0.0
C1645 C 0.75553 0.95348 0.28576 0.0
C1646 C 0.76201 0.97749 0.26639 0.0
C1647 C 0.77062 0.98605 0.27062 0.0
C1648 C 0.76879 0.99853 0.26901 0.0
C1649 C 0.75819 1.00279 0.26316 0.0
C1650 C 0.74961 0.99414 0.25881 0.0
C1651 C 0.75153 0.98165 0.26029 0.0
H1652 H 0.06341 0.76948 0.28918 0.0
N1653 N 0.05704 0.76994 0.26573 0.0
H1654 H 0.07632 0.75459 0.29963 0.0
H1655 H 0.0652 0.74858 0.25618 0.0
H1656 H 0.07796 0.73376 0.26649 0.0
H1657 H 0.05893 0.76386 0.24163 0.0
H1658 H 0.07383 0.7722 0.2272 0.0
H1659 H 0.07162 0.78916 0.26887 0.0
H1660 H 0.08625 0.79791 0.25439 0.0
H1661 H 0.04035 0.78614 0.27136 0.0
H1662 H 0.04434 0.75099 0.25493 0.0
H1663 H 0.01827 0.78481 0.26808 0.0
H1664 H 0.02237 0.74929 0.25215 0.0
H1665 H 0.9568 0.77084 0.2741 0.0
H1666 H 0.9428 0.76071 0.28825 0.0
H1667 H 0.94595 0.72735 0.26804 0.0
H1668 H 0.96018 0.73755 0.25406 0.0
H1669 H 0.95397 0.7565 0.23308 0.0
H1670 H 0.93959 0.76978 0.22257 0.0
H1671 H 0.94855 0.79854 0.24788 0.0
H1672 H 0.96296 0.78509 0.25834 0.0
H1673 H 0.97816 0.77302 0.27204 0.0
H1674 H 1.0002 0.77513 0.27485 0.0
H1675 H 0.00572 0.75643 0.24084 0.0
N1676 N 0.96631 0.76102 0.25343 0.0
H1677 H 0.98364 0.75388 0.23848 0.0
C1678 C 0.06316 0.76013 0.27197 0.0
C1679 C 0.06636 0.76156 0.28427 0.0
C1680 C 0.07383 0.75312 0.29018 0.0
C1681 C 0.0782 0.743 0.28388 0.0
C1682 C 0.07463 0.74136 0.27166 0.0
C1683 C 0.06726 0.74985 0.26574 0.0
C1684 C 0.06422 0.77587 0.25638 0.0
C1685 C 0.06476 0.77137 0.24444 0.0
C1686 C 0.07327 0.7762 0.23617 0.0
C1687 C 0.08138 0.78565 0.23966 0.0
C1688 C 0.08036 0.79048 0.25145 0.0
C1689 C 0.07191 0.7856 0.2597 0.0
C1690 C 0.04406 0.76868 0.26353 0.0
C1691 C 0.03644 0.77809 0.26713 0.0
C1692 C 0.0238 0.77726 0.26532 0.0
C1693 C 0.01842 0.7669 0.25989 0.0
C1694 C 0.02612 0.75749 0.2562 0.0
C1695 C 0.03878 0.7584 0.25791 0.0
C1696 C 0.9596 0.75491 0.26301 0.0
C1697 C 0.95474 0.76128 0.27287 0.0
C1698 C 0.94661 0.75549 0.2809 0.0
C1699 C 0.94315 0.74323 0.27924 0.0
C1700 C 0.94849 0.73675 0.2697 0.0
C1701 C 0.95662 0.74255 0.26168 0.0
C1702 C 0.9595 0.76978 0.24646 0.0
C1703 C 0.95302 0.76576 0.23616 0.0
C1704 C 0.94482 0.77338 0.23018 0.0
C1705 C 0.94286 0.78523 0.2344 0.0
C1706 C 0.94973 0.78942 0.24448 0.0
C1707 C 0.95802 0.78177 0.25043 0.0
C1708 C 0.97924 0.76313 0.25509 0.0
C1709 C 0.9841 0.76934 0.26521 0.0
C1710 C 0.99677 0.77063 0.26675 0.0
C1711 C 1.00487 0.76587 0.25813 0.0
C1712 C 0.99988 0.75997 0.24784 0.0
C1713 C 0.98724 0.75859 0.2464 0.0
H1714 H 0.28458 0.95293 0.25204 0.0
N1715 N 0.26508 0.963 0.26348 0.0
H1716 H 0.29943 0.93941 0.26127 0.0
H1717 H 0.26824 0.95845 0.28712 0.0
H1718 H 0.28343 0.94525 0.29662 0.0
H1719 H 0.24564 0.94954 0.26912 0.0
H1720 H 0.23459 0.93511 0.25608 0.0
H1721 H 0.2684 0.96029 0.23893 0.0
H1722 H 0.25741 0.9458 0.22574 0.0
H1723 H 0.28361 0.975 0.25138 0.0
H1724 H 0.24959 0.98 0.26992 0.0
H1725 H 0.28588 0.99697 0.24865 0.0
H1726 H 0.2514 1.00195 0.26671 0.0
H1727 H 0.29854 0.06028 0.25411 0.0
H1728 H 0.30786 0.07365 0.26954 0.0
H1729 H 0.27323 0.07534 0.28793 0.0
H1730 H 0.26406 0.06213 0.2726 0.0
H1731 H 0.2507 0.05403 0.25688 0.0
H1732 H 0.23603 0.06777 0.24746 0.0
H1733 H 0.26409 0.08131 0.22316 0.0
H1734 H 0.27878 0.06784 0.23299 0.0
H1735 H 0.2816 0.03643 0.2365 0.0
H1736 H 0.27886 0.01438 0.23837 0.0
H1737 H 0.26209 0.01916 0.27354 0.0
N1738 N 0.27521 0.05342 0.25218 0.0
H1739 H 0.2643 0.04105 0.27127 0.0
C1740 C 0.27521 0.95667 0.26891 0.0
C1741 C 0.28435 0.95147 0.26179 0.0
C1742 C 0.29291 0.94374 0.26713 0.0
C1743 C 0.29259 0.94109 0.2797 0.0
C1744 C 0.28382 0.94685 0.28688 0.0
C1745 C 0.27522 0.95452 0.28151 0.0
C1746 C 0.25781 0.95594 0.25503 0.0
C1747 C 0.24807 0.94893 0.25959 0.0
C1748 C 0.24177 0.94071 0.25211 0.0
C1749 C 0.24514 0.93927 0.23986 0.0
C1750 C 0.25468 0.94661 0.23517 0.0
C1751 C 0.26093 0.95493 0.24267 0.0
C1752 C 0.26649 0.97586 0.26105 0.0
C1753 C 0.27658 0.98081 0.2548 0.0
C1754 C 0.2778 0.99344 0.25315 0.0
C1755 C 0.26888 1.00136 0.25754 0.0
C1756 C 0.25862 0.99625 0.26345 0.0
C1757 C 0.2575 0.98368 0.26521 0.0
C1758 C 0.28067 0.06005 0.26221 0.0
C1759 C 0.29305 0.06338 0.2616 0.0
C1760 C 0.29831 0.07109 0.27035 0.0
C1761 C 0.29127 0.07557 0.27995 0.0
C1762 C 0.27895 0.07192 0.28075 0.0
C1763 C 0.27368 0.06431 0.27195 0.0
C1764 C 0.26588 0.05997 0.24566 0.0
C1765 C 0.25366 0.05986 0.24945 0.0
C1766 C 0.24525 0.06771 0.24399 0.0
C1767 C 0.24889 0.07578 0.23462 0.0
C1768 C 0.26101 0.07543 0.23051 0.0
C1769 C 0.26939 0.06764 0.23601 0.0
C1770 C 0.2733 0.04046 0.25373 0.0
C1771 C 0.27729 0.03268 0.24458 0.0
C1772 C 0.2758 0.02005 0.24573 0.0
C1773 C 0.2703 0.01487 0.25615 0.0
C1774 C 0.26621 0.02274 0.26529 0.0
C1775 C 0.26759 0.03537 0.26406 0.0
H1776 H 0.06825 0.7441 0.76448 0.0
N1777 N 0.05862 0.76577 0.75706 0.0
H1778 H 0.08063 0.73064 0.75218 0.0
H1779 H 0.06234 0.76719 0.73317 0.0
H1780 H 0.07487 0.75389 0.7208 0.0
H1781 H 0.07518 0.78344 0.75465 0.0
H1782 H 0.09035 0.7902 0.76961 0.0
H1783 H 0.05978 0.7584 0.78093 0.0
H1784 H 0.07458 0.76546 0.79624 0.0
H1785 H 0.04574 0.74479 0.76287 0.0
H1786 H 0.04246 0.78345 0.75755 0.0
H1787 H 0.02388 0.74295 0.76623 0.0
H1788 H 0.02065 0.78188 0.76171 0.0
H1789 H 0.9571 0.73545 0.77206 0.0
H1790 H 0.942 0.72732 0.75759 0.0
H1791 H 0.9481 0.75861 0.7342 0.0
H1792 H 0.96271 0.7668 0.74886 0.0
H1793 H 0.96168 0.78035 0.76583 0.0
H1794 H 0.94751 0.79259 0.77744 0.0
H1795 H 0.9461 0.76468 0.80536 0.0
H1796 H 0.96008 0.7524 0.79351 0.0
H1797 H 0.98573 0.74412 0.78181 0.0
H1798 H 0.00779 0.74629 0.77927 0.0
H1799 H 1.00201 0.77582 0.7537 0.0
N1800 N 0.96831 0.75702 0.77126 0.0
H1801 H 0.98018 0.7741 0.75703 0.0
C1802 C 0.06433 0.75667 0.7497 0.0
C1803 C 0.06944 0.74616 0.7549 0.0
C1804 C 0.07662 0.73853 0.74787 0.0
C1805 C 0.07885 0.74123 0.73552 0.0
C1806 C 0.07326 0.75145 0.73024 0.0
C1807 C 0.0661 0.75907 0.73728 0.0
C1808 C 0.06632 0.77052 0.76668 0.0
C1809 C 0.07491 0.77963 0.76378 0.0
C1810 C 0.08354 0.78351 0.77239 0.0
C1811 C 0.08373 0.77841 0.7842 0.0
C1812 C 0.07484 0.76949 0.78721 0.0
C1813 C 0.06627 0.76553 0.77851 0.0
C1814 C 0.04577 0.76429 0.75971 0.0
C1815 C 0.04036 0.75293 0.76249 0.0
C1816 C 0.02778 0.75191 0.76456 0.0
C1817 C 0.02033 0.76225 0.76419 0.0
C1818 C 0.02591 0.77364 0.76178 0.0
C1819 C 0.03843 0.7746 0.7595 0.0
C1820 C 0.96114 0.75166 0.76157 0.0
C1821 C 0.95533 0.7404 0.76367 0.0
C1822 C 0.94672 0.73577 0.75538 0.0
C1823 C 0.94374 0.74235 0.74474 0.0
C1824 C 0.95 0.75339 0.74238 0.0
C1825 C 0.95854 0.75804 0.75073 0.0
C1826 C 0.96193 0.76542 0.77883 0.0
C1827 C 0.95854 0.77697 0.77455 0.0
C1828 C 0.95041 0.78398 0.78123 0.0
C1829 C 0.94552 0.77955 0.79226 0.0
C1830 C 0.9495 0.76828 0.79679 0.0
C1831 C 0.95759 0.7613 0.79012 0.0
C1832 C 0.98125 0.75879 0.76952 0.0
C1833 C 0.98929 0.75109 0.77571 0.0
C1834 C 1.00191 0.75229 0.77414 0.0
C1835 C 0.00683 0.76117 0.76616 0.0
C1836 C 0.99869 0.76896 0.76003 0.0
C1837 C 0.98607 0.76787 0.76179 0.0
H1838 H 0.27674 0.06414 0.77548 0.0
N1839 N 0.25654 0.05354 0.76482 0.0
H1840 H 0.29149 0.0777 0.76563 0.0
H1841 H 0.25781 0.05924 0.74126 0.0
H1842 H 0.27264 0.07291 0.73125 0.0
H1843 H 0.23623 0.06548 0.76006 0.0
H1844 H 0.22545 0.07925 0.77352 0.0
H1845 H 0.26123 0.05679 0.78919 0.0
H1846 H 0.25055 0.07059 0.80273 0.0
H1847 H 0.27528 0.04319 0.77786 0.0
H1848 H 0.24259 0.0351 0.75725 0.0
H1849 H 0.2789 0.02157 0.78051 0.0
H1850 H 0.24581 0.01333 0.76031 0.0
H1851 H 0.29619 0.96059 0.77758 0.0
H1852 H 0.30797 0.94763 0.76415 0.0
H1853 H 0.27577 0.94124 0.74202 0.0
H1854 H 0.26406 0.95399 0.75561 0.0
H1855 H 0.24856 0.9607 0.76979 0.0
H1856 H 0.23422 0.94586 0.77863 0.0
H1857 H 0.26111 0.93654 0.806 0.0
H1858 H 0.27549 0.95114 0.79683 0.0
H1859 H 0.27647 0.98203 0.79277 0.0
H1860 H 0.27225 1.00369 0.79053 0.0
H1861 H 0.2582 0.99713 0.75419 0.0
N1862 N 0.27234 0.96443 0.77681 0.0
H1863 H 0.26197 0.97548 0.75679 0.0
C1864 C 0.26618 0.06054 0.75906 0.0
C1865 C 0.27588 0.06575 0.76579 0.0
C1866 C 0.28434 0.07355 0.76013 0.0
C1867 C 0.28323 0.07642 0.74766 0.0
C1868 C 0.27368 0.07098 0.7409 0.0
C1869 C 0.26527 0.06311 0.74656 0.0
C1870 C 0.24951 0.06013 0.77357 0.0
C1871 C 0.23923 0.06638 0.76945 0.0
C1872 C 0.23309 0.07424 0.77715 0.0
C1873 C 0.23718 0.07608 0.78919 0.0
C1874 C 0.24727 0.06948 0.79346 0.0
C1875 C 0.25335 0.06153 0.78574 0.0
C1876 C 0.25868 0.04082 0.76722 0.0
C1877 C 0.2688 0.03679 0.77397 0.0
C1878 C 0.27082 0.02433 0.77557 0.0
C1879 C 0.26269 0.01559 0.77059 0.0
C1880 C 0.25242 0.01971 0.76408 0.0
C1881 C 0.25049 0.03216 0.76241 0.0
C1882 C 0.27929 0.95832 0.76763 0.0
C1883 C 0.29176 0.95658 0.76968 0.0
C1884 C 0.29847 0.94918 0.76198 0.0
C1885 C 0.2928 0.94331 0.75203 0.0
C1886 C 0.28038 0.94546 0.7497 0.0
C1887 C 0.27369 0.95288 0.75741 0.0
C1888 C 0.26312 0.95698 0.78267 0.0
C1889 C 0.25131 0.95555 0.77776 0.0
C1890 C 0.2431 0.94708 0.78287 0.0
C1891 C 0.24654 0.9399 0.79297 0.0
C1892 C 0.25822 0.94173 0.7981 0.0
C1893 C 0.26641 0.95015 0.79296 0.0
C1894 C 0.26968 0.97712 0.77496 0.0
C1895 C 0.27246 0.9853 0.78434 0.0
C1896 C 0.27011 0.99771 0.78299 0.0
C1897 C 0.26495 1.00227 0.77213 0.0
C1898 C 0.26205 0.99399 0.76274 0.0
C1899 C 0.26432 0.98155 0.76416 0.0
H1900 H 0.95726 0.23093 0.75941 0.0
N1901 N 0.96922 0.25171 0.7631 0.0
H1902 H 0.94254 0.22086 0.77294 0.0
H1903 H 0.96477 0.25801 0.78669 0.0
H1904 H 0.94997 0.24804 0.80037 0.0
H1905 H 0.95962 0.27291 0.77141 0.0
H1906 H 0.9458 0.28618 0.76019 0.0
H1907 H 0.96385 0.25089 0.73947 0.0
H1908 H 0.95016 0.26426 0.72805 0.0
H1909 H 0.9864 0.23593 0.75783 0.0
H1910 H 0.9811 0.27104 0.77385 0.0
H1911 H 0.00839 0.23798 0.7612 0.0
H1912 H 1.00309 0.27354 0.7767 0.0
H1913 H 0.06282 0.23919 0.77133 0.0
H1914 H 0.07832 0.22672 0.78132 0.0
H1915 H 0.08799 0.25688 0.80471 0.0
H1916 H 0.07289 0.26938 0.79425 0.0
H1917 H 0.06489 0.28714 0.77172 0.0
H1918 H 0.07842 0.29649 0.75646 0.0
H1919 H 0.08275 0.26143 0.73971 0.0
H1920 H 0.06938 0.2522 0.75496 0.0
H1921 H 0.04791 0.25071 0.75666 0.0
H1922 H 0.02595 0.24799 0.75416 0.0
H1923 H 0.02028 0.26735 0.78776 0.0
N1924 N 0.05969 0.2636 0.77475 0.0
H1925 H 0.04232 0.27057 0.78978 0.0
C1926 C 0.96205 0.24518 0.77202 0.0
C1927 C 0.95588 0.23454 0.76844 0.0
C1928 C 0.9475 0.22881 0.7762 0.0
C1929 C 0.94504 0.23367 0.78773 0.0
C1930 C 0.95156 0.24414 0.7915 0.0
C1931 C 0.96005 0.24983 0.78372 0.0
C1932 C 0.96282 0.26089 0.75624 0.0
C1933 C 0.95784 0.2711 0.76189 0.0
C1934 C 0.94991 0.2787 0.75544 0.0
C1935 C 0.94674 0.27621 0.74325 0.0
C1936 C 0.95223 0.26632 0.73748 0.0
C1937 C 0.96016 0.25875 0.74394 0.0
C1938 C 0.98211 0.25334 0.76545 0.0
C1939 C 0.99003 0.24413 0.762 0.0
C1940 C 1.00263 0.24539 0.76385 0.0
C1941 C 0.00766 0.25599 0.76913 0.0
C1942 C 0.99963 0.26517 0.77274 0.0
C1943 C 0.98698 0.26382 0.77101 0.0
C1944 C 0.06682 0.25528 0.78198 0.0
C1945 C 0.06817 0.24305 0.77871 0.0
C1946 C 0.07702 0.2359 0.78449 0.0
C1947 C 0.08459 0.24085 0.79369 0.0
C1948 C 0.08257 0.25285 0.79746 0.0
C1949 C 0.07384 0.25997 0.79161 0.0
C1950 C 0.06608 0.26901 0.76454 0.0
C1951 C 0.06856 0.28155 0.76459 0.0
C1952 C 0.07629 0.28686 0.75586 0.0
C1953 C 0.08176 0.27967 0.74694 0.0
C1954 C 0.07883 0.26718 0.74658 0.0
C1955 C 0.07107 0.2619 0.75527 0.0
C1956 C 0.0468 0.26101 0.77337 0.0
C1957 C 0.04198 0.25441 0.76348 0.0
C1958 C 0.02933 0.25276 0.76212 0.0
C1959 C 0.0212 0.2575 0.77072 0.0
C1960 C 0.02614 0.26379 0.78079 0.0
C1961 C 0.03877 0.26555 0.78204 0.0
H1962 H 0.79438 0.95605 0.75663 0.0
N1963 N 0.77174 0.96409 0.75841 0.0
H1964 H 0.80456 0.94166 0.77027 0.0
H1965 H 0.76356 0.95666 0.7807 0.0
H1966 H 0.7737 0.94241 0.79453 0.0
H1967 H 0.7482 0.9597 0.76506 0.0
H1968 H 0.73362 0.94593 0.75478 0.0
H1969 H 0.77459 0.95338 0.73704 0.0
H1970 H 0.76014 0.93971 0.72664 0.0
H1971 H 0.78027 0.97945 0.74168 0.0
H1972 H 0.76171 0.97809 0.7761 0.0
H1973 H 0.77985 1.00162 0.7418 0.0
H1974 H 0.76178 1.00037 0.77673 0.0
H1975 H 0.79288 0.06832 0.75528 0.0
H1976 H 0.80282 0.08188 0.77004 0.0
H1977 H 0.77611 0.07116 0.79702 0.0
H1978 H 0.7663 0.05751 0.78212 0.0
H1979 H 0.75053 0.06202 0.76755 0.0
H1980 H 0.73596 0.07572 0.758 0.0
H1981 H 0.75816 0.0774 0.72563 0.0
H1982 H 0.77283 0.06376 0.7354 0.0
H1983 H 0.78937 0.04045 0.75046 0.0
H1984 H 0.78916 0.01828 0.75121 0.0
H1985 H 0.75377 0.0186 0.76838 0.0
N1986 N 0.77246 0.0554 0.75819 0.0
H1987 H 0.75445 0.04086 0.76814 0.0
C1988 C 0.77828 0.95745 0.76766 0.0
C1989 C 0.78998 0.95332 0.76505 0.0
C1990 C 0.79577 0.9451 0.77287 0.0
C1991 C 0.78992 0.9408 0.78348 0.0
C1992 C 0.77839 0.94541 0.78636 0.0
C1993 C 0.77262 0.95366 0.77852 0.0
C1994 C 0.76246 0.95748 0.75178 0.0
C1995 C 0.75078 0.95546 0.75661 0.0
C1996 C 0.7425 0.94756 0.75076 0.0
C1997 C 0.74575 0.94168 0.73992 0.0
C1998 C 0.75729 0.94417 0.73489 0.0
C1999 C 0.76557 0.95196 0.7408 0.0
C2000 C 0.77119 0.97715 0.75891 0.0
C2001 C 0.7762 0.984 0.74933 0.0
C2002 C 0.77604 0.99669 0.7495 0.0
C2003 C 0.77096 1.00291 0.75938 0.0
C2004 C 0.76571 0.99596 0.76893 0.0
C2005 C 0.76576 0.9832 0.76866 0.0
C2006 C 0.77888 0.06199 0.76759 0.0
C2007 C 0.78934 0.06875 0.76445 0.0
C2008 C 0.79499 0.07646 0.7729 0.0
C2009 C 0.79022 0.07764 0.78469 0.0
C2010 C 0.77992 0.07055 0.78796 0.0
C2011 C 0.77432 0.06272 0.7795 0.0
C2012 C 0.76276 0.0618 0.75213 0.0
C2013 C 0.75214 0.06509 0.75831 0.0
C2014 C 0.7438 0.07296 0.75282 0.0
C2015 C 0.74593 0.07775 0.74107 0.0
C2016 C 0.75633 0.07403 0.73475 0.0
C2017 C 0.76464 0.06615 0.74024 0.0
C2018 C 0.7719 0.04232 0.75905 0.0
C2019 C 0.7816 0.03571 0.75442 0.0
C2020 C 0.78138 0.02301 0.75477 0.0
C2021 C 0.77134 0.01653 0.75966 0.0
C2022 C 0.76169 0.02322 0.76458 0.0
C2023 C 0.762 0.03599 0.76435 0.0
H2024 H 0.27056 0.73995 0.45317 0.0
N2025 N 0.26742 0.75869 0.46781 0.0
H2026 H 0.25576 0.73098 0.439 0.0
H2027 H 0.24272 0.76304 0.46734 0.0
H2028 H 0.22777 0.75376 0.45371 0.0
H2029 H 0.25729 0.77969 0.45919 0.0
H2030 H 0.26625 0.79364 0.44429 0.0
H2031 H 0.29014 0.75875 0.45956 0.0
H2032 H 0.29901 0.77231 0.44411 0.0
H2033 H 0.27818 0.74614 0.4855 0.0
H2034 H 0.25389 0.77599 0.47943 0.0
H2035 H 0.27656 0.74889 0.50751 0.0
H2036 H 0.25141 0.77822 0.50121 0.0
H2037 H 0.2656 0.75036 0.56958 0.0
H2038 H 0.25564 0.73547 0.58304 0.0
H2039 H 0.22063 0.75076 0.57419 0.0
H2040 H 0.23072 0.76579 0.56083 0.0
H2041 H 0.24828 0.78792 0.57155 0.0
H2042 H 0.26084 0.79878 0.58658 0.0
H2043 H 0.29187 0.77743 0.5765 0.0
H2044 H 0.27919 0.76676 0.56127 0.0
H2045 H 0.26122 0.74833 0.54609 0.0
H2046 H 0.26445 0.74605 0.52437 0.0
H2047 H 0.25979 0.78474 0.51922 0.0
N2048 N 0.25461 0.76935 0.55785 0.0
H2049 H 0.25561 0.78674 0.5409 0.0
C2050 C 0.25785 0.75212 0.46141 0.0
C2051 C 0.26116 0.7428 0.4535 0.0
C2052 C 0.25265 0.73767 0.44541 0.0
C2053 C 0.24053 0.74169 0.44509 0.0
C2054 C 0.23706 0.75059 0.45349 0.0
C2055 C 0.24564 0.75583 0.46148 0.0
C2056 C 0.27314 0.76823 0.46066 0.0
C2057 C 0.26657 0.77826 0.45633 0.0
C2058 C 0.27165 0.78613 0.44759 0.0
C2059 C 0.28332 0.78405 0.44282 0.0
C2060 C 0.29007 0.77433 0.44762 0.0
C2061 C 0.28502 0.76654 0.45646 0.0
C2062 C 0.26607 0.76069 0.48074 0.0
C2063 C 0.27237 0.75319 0.48893 0.0
C2064 C 0.27133 0.75473 0.50154 0.0
C2065 C 0.26377 0.76375 0.50633 0.0
C2066 C 0.25749 0.7713 0.49803 0.0
C2067 C 0.25875 0.7699 0.48542 0.0
C2068 C 0.24887 0.75928 0.56426 0.0
C2069 C 0.25578 0.75045 0.57042 0.0
C2070 C 0.25008 0.74196 0.57815 0.0
C2071 C 0.23737 0.74203 0.57977 0.0
C2072 C 0.23043 0.75044 0.57309 0.0
C2073 C 0.23615 0.75902 0.56546 0.0
C2074 C 0.26278 0.77657 0.56533 0.0
C2075 C 0.25784 0.78576 0.57245 0.0
C2076 C 0.26501 0.79184 0.58111 0.0
C2077 C 0.27732 0.78884 0.58288 0.0
C2078 C 0.28243 0.77998 0.57535 0.0
C2079 C 0.27521 0.77386 0.56666 0.0
C2080 C 0.25797 0.76775 0.54521 0.0
C2081 C 0.26085 0.75635 0.54035 0.0
C2082 C 0.26284 0.75507 0.52781 0.0
C2083 C 0.26228 0.76518 0.51983 0.0
C2084 C 0.25995 0.77664 0.52488 0.0
C2085 C 0.25772 0.77786 0.53735 0.0
H2086 H 0.77746 0.79185 0.57244 0.0
N2087 N 0.77364 0.77118 0.56068 0.0
H2088 H 0.76367 0.80182 0.58647 0.0
H2089 H 0.7495 0.76521 0.56398 0.0
H2090 H 0.73557 0.77512 0.57802 0.0
H2091 H 0.76401 0.75056 0.57132 0.0
H2092 H 0.77425 0.7374 0.58596 0.0
H2093 H 0.79718 0.7716 0.56665 0.0
H2094 H 0.80763 0.7583 0.58124 0.0
H2095 H 0.78089 0.78536 0.54237 0.0
H2096 H 0.7616 0.75178 0.55012 0.0
H2097 H 0.77825 0.78193 0.5205 0.0
H2098 H 0.75934 0.74798 0.52834 0.0
H2099 H 0.76798 0.78017 0.47003 0.0
H2100 H 0.75882 0.79481 0.45597 0.0
H2101 H 0.73526 0.76636 0.44164 0.0
H2102 H 0.74435 0.75185 0.4559 0.0
H2103 H 0.7648 0.73204 0.46627 0.0
H2104 H 0.77907 0.72238 0.45237 0.0
H2105 H 0.7974 0.757 0.4467 0.0
H2106 H 0.78317 0.76654 0.46053 0.0
H2107 H 0.78283 0.76632 0.48251 0.0
H2108 H 0.78515 0.7698 0.50433 0.0
H2109 H 0.74918 0.75427 0.51031 0.0
N2110 N 0.76305 0.75564 0.47097 0.0
H2111 H 0.74718 0.75038 0.48846 0.0
C2112 C 0.76456 0.77782 0.56719 0.0
C2113 C 0.76823 0.78834 0.57341 0.0
C2114 C 0.76032 0.79402 0.58141 0.0
C2115 C 0.74851 0.78924 0.58343 0.0
C2116 C 0.74465 0.77894 0.57679 0.0
C2117 C 0.75258 0.7733 0.5687 0.0
C2118 C 0.77987 0.76209 0.56782 0.0
C2119 C 0.77359 0.75218 0.57318 0.0
C2120 C 0.77948 0.74462 0.58158 0.0
C2121 C 0.79175 0.74683 0.58485 0.0
C2122 C 0.79814 0.75644 0.57906 0.0
C2123 C 0.79223 0.76397 0.57064 0.0
C2124 C 0.77154 0.76885 0.5479 0.0
C2125 C 0.77612 0.77722 0.53933 0.0
C2126 C 0.77469 0.77517 0.52682 0.0
C2127 C 0.76866 0.76461 0.52256 0.0
C2128 C 0.76392 0.75628 0.53122 0.0
C2129 C 0.76529 0.7584 0.54375 0.0
C2130 C 0.75679 0.76488 0.46404 0.0
C2131 C 0.76069 0.77713 0.46404 0.0
C2132 C 0.7555 0.78548 0.45591 0.0
C2133 C 0.74634 0.78176 0.44761 0.0
C2134 C 0.74217 0.7696 0.44798 0.0
C2135 C 0.74736 0.76128 0.4561 0.0
C2136 C 0.77284 0.74998 0.46445 0.0
C2137 C 0.77208 0.73746 0.46224 0.0
C2138 C 0.78023 0.73197 0.4543 0.0
C2139 C 0.78928 0.73896 0.44833 0.0
C2140 C 0.79041 0.75141 0.45101 0.0
C2141 C 0.78231 0.75687 0.45902 0.0
C2142 C 0.76484 0.75793 0.48382 0.0
C2143 C 0.77548 0.76357 0.48849 0.0
C2144 C 0.77674 0.76567 0.50102 0.0
C2145 C 0.76736 0.76232 0.50918 0.0
C2146 C 0.7567 0.75678 0.50441 0.0
C2147 C 0.75549 0.75462 0.4919 0.0
H2148 H 0.78243 0.26069 0.56858 0.0
N2149 N 0.76144 0.26834 0.55745 0.0
H2150 H 0.79559 0.27271 0.58212 0.0
H2151 H 0.7604 0.29207 0.56151 0.0
H2152 H 0.77335 0.30414 0.57525 0.0
H2153 H 0.74261 0.2708 0.57219 0.0
H2154 H 0.73458 0.25604 0.58692 0.0
H2155 H 0.76797 0.24441 0.5593 0.0
H2156 H 0.75967 0.22936 0.57362 0.0
H2157 H 0.78164 0.25851 0.54686 0.0
H2158 H 0.74611 0.27299 0.53924 0.0
H2159 H 0.7849 0.25557 0.52509 0.0
H2160 H 0.7491 0.26977 0.51743 0.0
H2161 H 0.7984 0.25539 0.46221 0.0
H2162 H 0.80895 0.26919 0.448 0.0
H2163 H 0.77591 0.28969 0.44363 0.0
H2164 H 0.76542 0.27572 0.45751 0.0
H2165 H 0.75077 0.26101 0.4654 0.0
H2166 H 0.73595 0.25127 0.45175 0.0
H2167 H 0.76283 0.22483 0.44191 0.0
H2168 H 0.77771 0.23493 0.45532 0.0
H2169 H 0.78165 0.24072 0.4862 0.0
H2170 H 0.77844 0.24349 0.50806 0.0
H2171 H 0.76049 0.27742 0.50042 0.0
N2172 N 0.77488 0.25514 0.46796 0.0
H2173 H 0.76343 0.27438 0.47866 0.0
C2174 C 0.77042 0.27553 0.56397 0.0
C2175 C 0.78056 0.27024 0.56975 0.0
C2176 C 0.788 0.2771 0.57761 0.0
C2177 C 0.78548 0.28938 0.57988 0.0
C2178 C 0.77566 0.29476 0.57364 0.0
C2179 C 0.76823 0.28789 0.56579 0.0
C2180 C 0.7558 0.25873 0.56459 0.0
C2181 C 0.7462 0.26168 0.57233 0.0
C2182 C 0.7416 0.25319 0.58072 0.0
C2183 C 0.74647 0.24145 0.58153 0.0
C2184 C 0.75581 0.23835 0.57341 0.0
C2185 C 0.76049 0.24692 0.56508 0.0
C2186 C 0.76361 0.26607 0.5447 0.0
C2187 C 0.7745 0.26101 0.54053 0.0
C2188 C 0.77632 0.25926 0.52802 0.0
C2189 C 0.76729 0.26247 0.51943 0.0
C2190 C 0.75636 0.26738 0.52371 0.0
C2191 C 0.75458 0.26915 0.53618 0.0
C2192 C 0.78117 0.26449 0.46101 0.0
C2193 C 0.79353 0.263 0.45834 0.0
C2194 C 0.79953 0.27091 0.45022 0.0
C2195 C 0.79325 0.28051 0.44457 0.0
C2196 C 0.78097 0.28228 0.44764 0.0
C2197 C 0.77498 0.27435 0.45574 0.0
C2198 C 0.7654 0.24869 0.46135 0.0
C2199 C 0.75345 0.25305 0.46042 0.0
C2200 C 0.74494 0.24742 0.45262 0.0
C2201 C 0.7482 0.23731 0.44562 0.0
C2202 C 0.76005 0.23272 0.44697 0.0
C2203 C 0.76853 0.23839 0.45472 0.0
C2204 C 0.77286 0.25731 0.48076 0.0
C2205 C 0.77702 0.24875 0.48928 0.0
C2206 C 0.77525 0.2504 0.50178 0.0
C2207 C 0.76922 0.26071 0.50607 0.0
C2208 C 0.76502 0.2693 0.49748 0.0
C2209 C 0.76679 0.26761 0.48496 0.0
H2210 H 0.27962 0.25671 0.46102 0.0
N2211 N 0.25834 0.24591 0.46883 0.0
H2212 H 0.29446 0.24795 0.44729 0.0
H2213 H 0.25901 0.22301 0.46116 0.0
H2214 H 0.27397 0.21405 0.44748 0.0
H2215 H 0.24004 0.24248 0.45315 0.0
H2216 H 0.23153 0.25724 0.43879 0.0
H2217 H 0.26365 0.27032 0.4682 0.0
H2218 H 0.25503 0.28526 0.45404 0.0
H2219 H 0.27994 0.24685 0.4824 0.0
H2220 H 0.24087 0.25063 0.48485 0.0
H2221 H 0.28194 0.25054 0.50398 0.0
H2222 H 0.24295 0.25494 0.50655 0.0
H2223 H 0.28965 0.26301 0.57154 0.0
H2224 H 0.29737 0.24816 0.58627 0.0
H2225 H 0.26774 0.22353 0.57672 0.0
H2226 H 0.25997 0.23856 0.56228 0.0
H2227 H 0.24753 0.25564 0.56974 0.0
H2228 H 0.23679 0.26821 0.58434 0.0
H2229 H 0.26173 0.2981 0.57657 0.0
H2230 H 0.2727 0.28523 0.56242 0.0
H2231 H 0.28386 0.26863 0.54081 0.0
H2232 H 0.28122 0.26544 0.51894 0.0
H2233 H 0.24704 0.24647 0.52582 0.0
N2234 N 0.26911 0.26164 0.55865 0.0
H2235 H 0.24951 0.2504 0.54762 0.0
C2236 C 0.2682 0.24046 0.46221 0.0
C2237 C 0.27839 0.24735 0.45826 0.0
C2238 C 0.28691 0.24229 0.45043 0.0
C2239 C 0.28538 0.2303 0.44624 0.0
C2240 C 0.27535 0.22335 0.45044 0.0
C2241 C 0.26687 0.22839 0.45835 0.0
C2242 C 0.25243 0.25527 0.46173 0.0
C2243 C 0.24318 0.25186 0.45351 0.0
C2244 C 0.23831 0.26033 0.44534 0.0
C2245 C 0.24263 0.27245 0.44521 0.0
C2246 C 0.25163 0.27597 0.45377 0.0
C2247 C 0.2565 0.26746 0.46194 0.0
C2248 C 0.26016 0.2486 0.4817 0.0
C2249 C 0.27174 0.24867 0.48741 0.0
C2250 C 0.27292 0.25087 0.49992 0.0
C2251 C 0.26263 0.25315 0.50713 0.0
C2252 C 0.25109 0.25308 0.50142 0.0
C2253 C 0.2499 0.25074 0.48894 0.0
C2254 C 0.2743 0.25193 0.56578 0.0
C2255 C 0.28499 0.2543 0.57248 0.0
C2256 C 0.28938 0.24578 0.58087 0.0
C2257 C 0.28315 0.23464 0.58274 0.0
C2258 C 0.27267 0.23208 0.57564 0.0
C2259 C 0.26827 0.24064 0.56727 0.0
C2260 C 0.26103 0.26949 0.5651 0.0
C2261 C 0.25054 0.26496 0.57102 0.0
C2262 C 0.24437 0.2722 0.57935 0.0
C2263 C 0.24853 0.28412 0.58184 0.0
C2264 C 0.25846 0.28887 0.57515 0.0
C2265 C 0.26466 0.2816 0.56693 0.0
C2266 C 0.26699 0.25967 0.54583 0.0
C2267 C 0.27578 0.26384 0.53754 0.0
C2268 C 0.27429 0.26189 0.52504 0.0
C2269 C 0.26397 0.25555 0.5205 0.0
C2270 C 0.25506 0.25148 0.52888 0.0
C2271 C 0.25651 0.25359 0.54141 0.0
H2272 H 0.77682 0.45136 0.79039 0.0
N2273 N 0.77498 0.46532 0.77064 0.0
H2274 H 0.7618 0.43657 0.79816 0.0
H2275 H 0.7513 0.46253 0.76259 0.0
H2276 H 0.73618 0.44809 0.77044 0.0
H2277 H 0.76759 0.45536 0.74892 0.0
H2278 H 0.7795 0.44184 0.73623 0.0
H2279 H 0.79858 0.46066 0.77278 0.0
H2280 H 0.81056 0.44708 0.76018 0.0
H2281 H 0.78251 0.48312 0.78516 0.0
H2282 H 0.76306 0.47644 0.75158 0.0
H2283 H 0.7793 0.50493 0.78276 0.0
H2284 H 0.75895 0.49803 0.7495 0.0
H2285 H 0.7689 0.56421 0.78097 0.0
H2286 H 0.75959 0.57793 0.79538 0.0
H2287 H 0.72487 0.57317 0.77692 0.0
H2288 H 0.7345 0.55981 0.76217 0.0
H2289 H 0.75365 0.56902 0.74152 0.0
H2290 H 0.76776 0.58339 0.73161 0.0
H2291 H 0.79663 0.57165 0.7558 0.0
H2292 H 0.78251 0.55701 0.76533 0.0
H2293 H 0.7612 0.54165 0.78216 0.0
H2294 H 0.76519 0.52016 0.78418 0.0
H2295 H 0.76668 0.51711 0.74494 0.0
N2296 N 0.75807 0.55461 0.76053 0.0
H2297 H 0.76182 0.53857 0.74296 0.0
C2298 C 0.76524 0.4581 0.77597 0.0
C2299 C 0.76787 0.45083 0.78616 0.0
C2300 C 0.75926 0.4424 0.79059 0.0
C2301 C 0.74779 0.44107 0.78488 0.0
C2302 C 0.74499 0.44873 0.77495 0.0
C2303 C 0.75363 0.45712 0.7705 0.0
C2304 C 0.78223 0.45904 0.76184 0.0
C2305 C 0.77703 0.45383 0.7513 0.0
C2306 C 0.78383 0.446 0.7441 0.0
C2307 C 0.79596 0.44328 0.74724 0.0
C2308 C 0.80129 0.44904 0.75742 0.0
C2309 C 0.79447 0.45681 0.76464 0.0
C2310 C 0.77293 0.47811 0.76868 0.0
C2311 C 0.77742 0.48638 0.77733 0.0
C2312 C 0.77545 0.49886 0.77598 0.0
C2313 C 0.76873 0.50339 0.76599 0.0
C2314 C 0.7643 0.49502 0.75725 0.0
C2315 C 0.76649 0.48256 0.75851 0.0
C2316 C 0.75238 0.56101 0.7704 0.0
C2317 C 0.75927 0.56602 0.78007 0.0
C2318 C 0.75388 0.57382 0.78839 0.0
C2319 C 0.74147 0.57678 0.78729 0.0
C2320 C 0.73449 0.57129 0.77794 0.0
C2321 C 0.73993 0.56354 0.76958 0.0
C2322 C 0.767 0.562 0.75414 0.0
C2323 C 0.76308 0.56945 0.74452 0.0
C2324 C 0.77113 0.57773 0.73898 0.0
C2325 C 0.78331 0.5788 0.743 0.0
C2326 C 0.78735 0.57102 0.7524 0.0
C2327 C 0.77927 0.56268 0.75791 0.0
C2328 C 0.76118 0.54193 0.76231 0.0
C2329 C 0.76236 0.53648 0.77393 0.0
C2330 C 0.76477 0.52405 0.7751 0.0
C2331 C 0.76629 0.51673 0.76473 0.0
C2332 C 0.76533 0.52227 0.75316 0.0
C2333 C 0.76269 0.53463 0.752 0.0
H2334 H 0.25747 0.56418 0.7708 0.0
N2335 N 0.26926 0.55362 0.75174 0.0
H2336 H 0.26663 0.57733 0.78617 0.0
H2337 H 0.29295 0.55768 0.75576 0.0
H2338 H 0.30234 0.57059 0.77147 0.0
H2339 H 0.27561 0.5677 0.73306 0.0
H2340 H 0.2632 0.58297 0.72273 0.0
H2341 H 0.24456 0.55616 0.7543 0.0
H2342 H 0.23212 0.57167 0.74427 0.0
H2343 H 0.25658 0.54235 0.77033 0.0
H2344 H 0.27506 0.53602 0.73651 0.0
H2345 H 0.25334 0.52057 0.7731 0.0
H2346 H 0.27126 0.51416 0.73879 0.0
H2347 H 0.26017 0.46031 0.78948 0.0
H2348 H 0.27526 0.44695 0.79897 0.0
H2349 H 0.29038 0.43991 0.76352 0.0
H2350 H 0.2753 0.4532 0.75415 0.0
H2351 H 0.25847 0.46073 0.74115 0.0
H2352 H 0.24759 0.4453 0.72897 0.0
H2353 H 0.22648 0.43487 0.76059 0.0
H2354 H 0.23756 0.4501 0.77267 0.0
H2355 H 0.24075 0.48135 0.77102 0.0
H2356 H 0.24278 0.50314 0.76685 0.0
H2357 H 0.27755 0.49706 0.74972 0.0
N2358 N 0.25629 0.46395 0.76577 0.0
H2359 H 0.27503 0.47528 0.75332 0.0
C2360 C 0.27455 0.55993 0.76206 0.0
C2361 C 0.26728 0.56536 0.77095 0.0
C2362 C 0.27257 0.57288 0.77982 0.0
C2363 C 0.28525 0.57513 0.78005 0.0
C2364 C 0.29254 0.56925 0.77145 0.0
C2365 C 0.28722 0.56176 0.76255 0.0
C2366 C 0.26106 0.56085 0.74446 0.0
C2367 C 0.26604 0.56834 0.73532 0.0
C2368 C 0.25896 0.57713 0.72953 0.0
C2369 C 0.24671 0.5787 0.73282 0.0
C2370 C 0.2415 0.57069 0.74149 0.0
C2371 C 0.24862 0.56183 0.74726 0.0
C2372 C 0.26626 0.54085 0.75326 0.0
C2373 C 0.25985 0.5363 0.76342 0.0
C2374 C 0.25789 0.52375 0.76492 0.0
C2375 C 0.26209 0.51545 0.75621 0.0
C2376 C 0.26813 0.52014 0.74586 0.0
C2377 C 0.27021 0.53267 0.74446 0.0
C2378 C 0.26655 0.45777 0.77115 0.0
C2379 C 0.26694 0.4561 0.78382 0.0
C2380 C 0.27556 0.44846 0.78921 0.0
C2381 C 0.28394 0.44226 0.78198 0.0
C2382 C 0.28393 0.44441 0.76932 0.0
C2383 C 0.27535 0.4521 0.76395 0.0
C2384 C 0.2488 0.45651 0.75784 0.0
C2385 C 0.25136 0.45525 0.74537 0.0
C2386 C 0.24513 0.44643 0.73843 0.0
C2387 C 0.2363 0.43873 0.74386 0.0
C2388 C 0.23339 0.44048 0.75618 0.0
C2389 C 0.2396 0.44925 0.76307 0.0
C2390 C 0.25775 0.47667 0.76265 0.0
C2391 C 0.24875 0.48475 0.76628 0.0
C2392 C 0.25001 0.49724 0.76398 0.0
C2393 C 0.26042 0.50201 0.75806 0.0
C2394 C 0.26933 0.49381 0.75418 0.0
C2395 C 0.26797 0.48128 0.75635 0.0
H2396 H 0.27173 0.5641 0.27603 0.0
N2397 N 0.25156 0.55412 0.26477 0.0
H2398 H 0.28718 0.57721 0.26662 0.0
H2399 H 0.2538 0.5596 0.24122 0.0
H2400 H 0.26932 0.57281 0.23166 0.0
H2401 H 0.23338 0.56914 0.26031 0.0
H2402 H 0.22439 0.58359 0.27431 0.0
H2403 H 0.25551 0.55488 0.28951 0.0
H2404 H 0.24636 0.56905 0.30369 0.0
H2405 H 0.27028 0.54287 0.27711 0.0
H2406 H 0.23661 0.5363 0.25755 0.0
H2407 H 0.27309 0.52109 0.27943 0.0
H2408 H 0.23909 0.51436 0.26025 0.0
H2409 H 0.28776 0.45876 0.27544 0.0
H2410 H 0.29811 0.44473 0.26191 0.0
H2411 H 0.26524 0.4413 0.24015 0.0
H2412 H 0.25492 0.45498 0.25389 0.0
H2413 H 0.24005 0.46255 0.2689 0.0
H2414 H 0.22522 0.44778 0.27701 0.0
H2415 H 0.25257 0.43444 0.3021 0.0
H2416 H 0.26721 0.44942 0.29408 0.0
H2417 H 0.26931 0.48148 0.29135 0.0
H2418 H 0.26584 0.50333 0.28955 0.0
H2419 H 0.25093 0.4979 0.25337 0.0
N2420 N 0.26425 0.46429 0.2752 0.0
H2421 H 0.254 0.4761 0.25548 0.0
C2422 C 0.26161 0.56074 0.25928 0.0
C2423 C 0.27125 0.56569 0.2663 0.0
C2424 C 0.2801 0.57323 0.2609 0.0
C2425 C 0.27947 0.57608 0.24839 0.0
C2426 C 0.27 0.57088 0.24134 0.0
C2427 C 0.26119 0.56326 0.24675 0.0
C2428 C 0.24507 0.56091 0.27381 0.0
C2429 C 0.23604 0.56891 0.26983 0.0
C2430 C 0.2309 0.57715 0.27787 0.0
C2431 C 0.23469 0.57756 0.29015 0.0
C2432 C 0.24336 0.56912 0.29426 0.0
C2433 C 0.24853 0.5609 0.28618 0.0
C2434 C 0.25323 0.54128 0.26702 0.0
C2435 C 0.26341 0.53678 0.27338 0.0
C2436 C 0.26497 0.52423 0.27479 0.0
C2437 C 0.25635 0.51587 0.26999 0.0
C2438 C 0.24605 0.52046 0.26387 0.0
C2439 C 0.24455 0.533 0.26241 0.0
C2440 C 0.27062 0.45801 0.2657 0.0
C2441 C 0.28291 0.45521 0.26756 0.0
C2442 C 0.2888 0.44718 0.2598 0.0
C2443 C 0.28248 0.44177 0.24998 0.0
C2444 C 0.27033 0.44514 0.24773 0.0
C2445 C 0.26445 0.45313 0.25552 0.0
C2446 C 0.25476 0.4571 0.28094 0.0
C2447 C 0.24277 0.45663 0.27632 0.0
C2448 C 0.23433 0.44809 0.2809 0.0
C2449 C 0.23771 0.43984 0.29016 0.0
C2450 C 0.24957 0.44073 0.2951 0.0
C2451 C 0.25797 0.44926 0.29052 0.0
C2452 C 0.26207 0.47712 0.27357 0.0
C2453 C 0.26529 0.48504 0.28305 0.0
C2454 C 0.26336 0.49754 0.28195 0.0
C2455 C 0.25816 0.50247 0.27127 0.0
C2456 C 0.25482 0.49447 0.26179 0.0
C2457 C 0.25669 0.48193 0.26294 0.0
H2458 H 0.79638 0.45487 0.25559 0.0
N2459 N 0.77585 0.46623 0.2604 0.0
H2460 H 0.8072 0.44055 0.26878 0.0
H2461 H 0.77119 0.46207 0.28445 0.0
H2462 H 0.78192 0.44768 0.29782 0.0
H2463 H 0.75418 0.45927 0.27057 0.0
H2464 H 0.7388 0.44572 0.26151 0.0
H2465 H 0.77526 0.45808 0.23764 0.0
H2466 H 0.75984 0.44456 0.22839 0.0
H2467 H 0.79199 0.48164 0.25074 0.0
H2468 H 0.75925 0.48023 0.27215 0.0
H2469 H 0.79185 0.50382 0.25103 0.0
H2470 H 0.75855 0.50247 0.27196 0.0
H2471 H 0.79857 0.56574 0.25834 0.0
H2472 H 0.80844 0.58003 0.27248 0.0
H2473 H 0.77624 0.57892 0.29497 0.0
H2474 H 0.76644 0.56482 0.28071 0.0
H2475 H 0.75169 0.55864 0.26542 0.0
H2476 H 0.73648 0.57231 0.2566 0.0
H2477 H 0.76271 0.58427 0.22961 0.0
H2478 H 0.7779 0.57095 0.23884 0.0
H2479 H 0.78207 0.54226 0.24165 0.0
H2480 H 0.78161 0.52009 0.2423 0.0
H2481 H 0.76721 0.52107 0.27888 0.0
N2482 N 0.77564 0.55754 0.2589 0.0
H2483 H 0.76711 0.54329 0.2778 0.0
C2484 C 0.78302 0.45946 0.26904 0.0
C2485 C 0.79338 0.45353 0.2649 0.0
C2486 C 0.79954 0.44537 0.27246 0.0
C2487 C 0.7954 0.44291 0.28436 0.0
C2488 C 0.78526 0.44926 0.28866 0.0
C2489 C 0.77914 0.45752 0.28108 0.0
C2490 C 0.76583 0.45976 0.25471 0.0
C2491 C 0.75536 0.45634 0.26127 0.0
C2492 C 0.74656 0.44856 0.25607 0.0
C2493 C 0.74812 0.44399 0.24424 0.0
C2494 C 0.75843 0.44778 0.23757 0.0
C2495 C 0.76718 0.4556 0.24277 0.0
C2496 C 0.77558 0.47929 0.26126 0.0
C2497 C 0.78472 0.48617 0.25545 0.0
C2498 C 0.78452 0.49887 0.25554 0.0
C2499 C 0.77505 0.50506 0.26133 0.0
C2500 C 0.76603 0.49809 0.26744 0.0
C2501 C 0.76634 0.48533 0.26747 0.0
C2502 C 0.78183 0.56418 0.26845 0.0
C2503 C 0.79379 0.56838 0.26648 0.0
C2504 C 0.79939 0.57655 0.27457 0.0
C2505 C 0.79308 0.58072 0.28481 0.0
C2506 C 0.78128 0.57604 0.28707 0.0
C2507 C 0.7757 0.56786 0.27898 0.0
C2508 C 0.76594 0.5639 0.25281 0.0
C2509 C 0.75408 0.56414 0.25754 0.0
C2510 C 0.74539 0.57192 0.25244 0.0
C2511 C 0.74841 0.57955 0.24248 0.0
C2512 C 0.76013 0.57876 0.23743 0.0
C2513 C 0.76879 0.57106 0.24258 0.0
C2514 C 0.77481 0.54445 0.25968 0.0
C2515 C 0.77876 0.53766 0.24977 0.0
C2516 C 0.77859 0.52496 0.25024 0.0
C2517 C 0.77458 0.51867 0.26074 0.0
C2518 C 0.77032 0.52552 0.27061 0.0
C2519 C 0.77035 0.53829 0.27006 0.0
H2520 H 0.56685 0.29026 0.75298 0.0
N2521 N 0.55933 0.26717 0.75247 0.0
H2522 H 0.58032 0.30001 0.76812 0.0
H2523 H 0.56774 0.25683 0.77369 0.0
H2524 H 0.58098 0.26646 0.78881 0.0
H2525 H 0.56483 0.24338 0.75724 0.0
H2526 H 0.57889 0.23091 0.74564 0.0
H2527 H 0.56944 0.27257 0.7312 0.0
H2528 H 0.58343 0.26018 0.71948 0.0
H2529 H 0.5414 0.27698 0.73958 0.0
H2530 H 0.54818 0.25181 0.76902 0.0
H2531 H 0.51942 0.27379 0.74201 0.0
H2532 H 0.52637 0.24907 0.77203 0.0
H2533 H 0.45897 0.27534 0.75691 0.0
H2534 H 0.44524 0.2886 0.76782 0.0
H2535 H 0.45127 0.2678 0.80083 0.0
H2536 H 0.46486 0.2544 0.78972 0.0
H2537 H 0.45471 0.23543 0.76925 0.0
H2538 H 0.43998 0.22672 0.7548 0.0
H2539 H 0.45274 0.25196 0.72711 0.0
H2540 H 0.46727 0.26077 0.7418 0.0
H2541 H 0.48103 0.2754 0.75763 0.0
H2542 H 0.50285 0.27815 0.75441 0.0
H2543 H 0.50839 0.2405 0.76432 0.0
N2544 N 0.46933 0.25459 0.76593 0.0
H2545 H 0.48657 0.23809 0.76821 0.0
C2546 C 0.5661 0.2729 0.76224 0.0
C2547 C 0.56976 0.2851 0.7609 0.0
C2548 C 0.57751 0.29061 0.76949 0.0
C2549 C 0.58171 0.284 0.77967 0.0
C2550 C 0.57777 0.27185 0.78117 0.0
C2551 C 0.57013 0.26632 0.7725 0.0
C2552 C 0.56613 0.25895 0.74507 0.0
C2553 C 0.56875 0.24706 0.74896 0.0
C2554 C 0.57684 0.23995 0.74234 0.0
C2555 C 0.58233 0.24456 0.73166 0.0
C2556 C 0.57927 0.25628 0.72758 0.0
C2557 C 0.57129 0.26339 0.73425 0.0
C2558 C 0.54647 0.26477 0.75414 0.0
C2559 C 0.53812 0.27082 0.74662 0.0
C2560 C 0.52554 0.26906 0.74813 0.0
C2561 C 0.52099 0.26123 0.7573 0.0
C2562 C 0.52944 0.25506 0.76476 0.0
C2563 C 0.54202 0.25672 0.76313 0.0
C2564 C 0.46298 0.26384 0.77253 0.0
C2565 C 0.45757 0.27377 0.76655 0.0
C2566 C 0.44971 0.28138 0.77282 0.0
C2567 C 0.44704 0.2792 0.78519 0.0
C2568 C 0.45296 0.26962 0.79127 0.0
C2569 C 0.46083 0.26203 0.78499 0.0
C2570 C 0.46208 0.24868 0.75661 0.0
C2571 C 0.45445 0.2389 0.75999 0.0
C2572 C 0.44607 0.23393 0.7517 0.0
C2573 C 0.44513 0.23865 0.73978 0.0
C2574 C 0.45311 0.24821 0.73626 0.0
C2575 C 0.4615 0.2532 0.74461 0.0
C2576 C 0.48214 0.25654 0.76339 0.0
C2577 C 0.48691 0.26775 0.75921 0.0
C2578 C 0.49946 0.26928 0.75724 0.0
C2579 C 0.50753 0.25957 0.75916 0.0
C2580 C 0.50261 0.24829 0.76301 0.0
C2581 C 0.4901 0.24684 0.76515 0.0
H2582 H 0.45633 0.74772 0.75871 0.0
N2583 N 0.46832 0.768 0.76737 0.0
H2584 H 0.44241 0.73454 0.7701 0.0
H2585 H 0.46485 0.76776 0.79136 0.0
H2586 H 0.45125 0.75424 0.80304 0.0
H2587 H 0.45416 0.7871 0.77006 0.0
H2588 H 0.43948 0.79528 0.75541 0.0
H2589 H 0.46625 0.76158 0.74332 0.0
H2590 H 0.45175 0.76984 0.72847 0.0
H2591 H 0.47855 0.74725 0.75839 0.0
H2592 H 0.48676 0.78363 0.77058 0.0
H2593 H 0.50018 0.74374 0.75534 0.0
H2594 H 0.50846 0.78046 0.76698 0.0
H2595 H 0.56304 0.72969 0.75274 0.0
H2596 H 0.57735 0.71896 0.76611 0.0
H2597 H 0.58221 0.75148 0.78756 0.0
H2598 H 0.56784 0.76204 0.77425 0.0
H2599 H 0.5646 0.77639 0.7583 0.0
H2600 H 0.57862 0.78901 0.74604 0.0
H2601 H 0.57962 0.76073 0.71896 0.0
H2602 H 0.56574 0.74819 0.73135 0.0
H2603 H 0.53871 0.74465 0.74021 0.0
H2604 H 0.517 0.74842 0.74302 0.0
H2605 H 0.52578 0.77046 0.77447 0.0
N2606 N 0.55737 0.75304 0.75337 0.0
H2607 H 0.54745 0.76709 0.77115 0.0
C2608 C 0.46161 0.75883 0.77419 0.0
C2609 C 0.45543 0.74913 0.7684 0.0
C2610 C 0.44748 0.74152 0.77498 0.0
C2611 C 0.44558 0.74336 0.78751 0.0
C2612 C 0.45228 0.75268 0.79337 0.0
C2613 C 0.46017 0.76034 0.78676 0.0
C2614 C 0.46131 0.77378 0.75782 0.0
C2615 C 0.45384 0.78348 0.76091 0.0
C2616 C 0.44548 0.78816 0.7525 0.0
C2617 C 0.44437 0.78319 0.74075 0.0
C2618 C 0.45224 0.77377 0.73749 0.0
C2619 C 0.46063 0.76911 0.74594 0.0
C2620 C 0.481 0.7657 0.76488 0.0
C2621 C 0.48498 0.75453 0.76035 0.0
C2622 C 0.49743 0.75258 0.7585 0.0
C2623 C 0.5062 0.76179 0.76095 0.0
C2624 C 0.50209 0.77304 0.76523 0.0
C2625 C 0.48967 0.77492 0.76719 0.0
C2626 C 0.56429 0.7466 0.7625 0.0
C2627 C 0.567 0.73439 0.76049 0.0
C2628 C 0.57527 0.72834 0.76806 0.0
C2629 C 0.58103 0.73441 0.77783 0.0
C2630 C 0.57787 0.74651 0.78017 0.0
C2631 C 0.56962 0.75258 0.77255 0.0
C2632 C 0.5642 0.76133 0.74572 0.0
C2633 C 0.56776 0.77298 0.74969 0.0
C2634 C 0.5758 0.78015 0.74269 0.0
C2635 C 0.58027 0.77585 0.73155 0.0
C2636 C 0.57626 0.76438 0.72742 0.0
C2637 C 0.56835 0.75719 0.73447 0.0
C2638 C 0.54469 0.75546 0.7555 0.0
C2639 C 0.5359 0.75031 0.74769 0.0
C2640 C 0.52348 0.75241 0.74939 0.0
C2641 C 0.51952 0.75969 0.75904 0.0
C2642 C 0.52842 0.76492 0.76684 0.0
C2643 C 0.54087 0.7629 0.76504 0.0
H2644 H 0.57205 0.7664 0.26226 0.0
N2645 N 0.56035 0.74607 0.27125 0.0
H2646 H 0.58622 0.77963 0.27337 0.0
H2647 H 0.56479 0.74595 0.29514 0.0
H2648 H 0.57874 0.75941 0.30649 0.0
H2649 H 0.57275 0.72587 0.27499 0.0
H2650 H 0.58685 0.71616 0.26104 0.0
H2651 H 0.56376 0.75225 0.24729 0.0
H2652 H 0.57791 0.74262 0.2332 0.0
H2653 H 0.5496 0.76811 0.26608 0.0
H2654 H 0.5424 0.7296 0.26976 0.0
H2655 H 0.52801 0.77162 0.26311 0.0
H2656 H 0.52078 0.7329 0.26584 0.0
H2657 H 0.45834 0.78144 0.25474 0.0
H2658 H 0.44392 0.7902 0.26899 0.0
H2659 H 0.45364 0.76305 0.29587 0.0
H2660 H 0.46768 0.75419 0.28148 0.0
H2661 H 0.46028 0.73993 0.26551 0.0
H2662 H 0.44642 0.72681 0.25377 0.0
H2663 H 0.45171 0.74996 0.22217 0.0
H2664 H 0.46569 0.76293 0.23399 0.0
H2665 H 0.4894 0.77404 0.2483 0.0
H2666 H 0.51121 0.77037 0.25056 0.0
H2667 H 0.50301 0.73964 0.27417 0.0
N2668 N 0.47094 0.76123 0.25758 0.0
H2669 H 0.48133 0.74286 0.27098 0.0
C2670 C 0.56737 0.75511 0.27789 0.0
C2671 C 0.57334 0.76488 0.27193 0.0
C2672 C 0.58141 0.77251 0.27833 0.0
C2673 C 0.58371 0.77055 0.29082 0.0
C2674 C 0.57734 0.76107 0.29684 0.0
C2675 C 0.56928 0.75344 0.29042 0.0
C2676 C 0.56725 0.73974 0.2622 0.0
C2677 C 0.57368 0.7294 0.2658 0.0
C2678 C 0.58171 0.72388 0.2578 0.0
C2679 C 0.58356 0.72865 0.24602 0.0
C2680 C 0.5768 0.73881 0.24227 0.0
C2681 C 0.56867 0.74429 0.25028 0.0
C2682 C 0.54772 0.74853 0.26834 0.0
C2683 C 0.54344 0.76034 0.26611 0.0
C2684 C 0.53096 0.76234 0.26427 0.0
C2685 C 0.52245 0.75258 0.2643 0.0
C2686 C 0.52688 0.74074 0.26607 0.0
C2687 C 0.5393 0.73879 0.26816 0.0
C2688 C 0.46417 0.76721 0.26697 0.0
C2689 C 0.45752 0.77756 0.2638 0.0
C2690 C 0.44929 0.78256 0.27198 0.0
C2691 C 0.44753 0.77729 0.28358 0.0
C2692 C 0.45461 0.76722 0.28694 0.0
C2693 C 0.46279 0.7622 0.27872 0.0
C2694 C 0.46404 0.75243 0.25058 0.0
C2695 C 0.45865 0.74205 0.25601 0.0
C2696 C 0.45062 0.73461 0.2493 0.0
C2697 C 0.44788 0.73736 0.23704 0.0
C2698 C 0.4537 0.74747 0.23154 0.0
C2699 C 0.46168 0.75492 0.23826 0.0
C2700 C 0.48371 0.75891 0.25962 0.0
C2701 C 0.49237 0.76652 0.25396 0.0
C2702 C 0.50487 0.76444 0.25536 0.0
C2703 C 0.50905 0.75473 0.26264 0.0
C2704 C 0.50027 0.7471 0.26834 0.0
C2705 C 0.48776 0.74907 0.26672 0.0
H2706 H 0.56558 0.27162 0.29892 0.0
N2707 N 0.5587 0.27251 0.27564 0.0
H2708 H 0.57896 0.25671 0.30862 0.0
H2709 H 0.56564 0.25097 0.26571 0.0
H2710 H 0.57895 0.23602 0.27531 0.0
H2711 H 0.55824 0.26681 0.25142 0.0
H2712 H 0.57234 0.27467 0.23587 0.0
H2713 H 0.57496 0.29046 0.27805 0.0
H2714 H 0.58918 0.29827 0.2627 0.0
H2715 H 0.54404 0.29041 0.28141 0.0
H2716 H 0.54376 0.25408 0.26706 0.0
H2717 H 0.52181 0.29069 0.28031 0.0
H2718 H 0.52144 0.25397 0.26648 0.0
H2719 H 0.45425 0.27885 0.2935 0.0
H2720 H 0.43959 0.26523 0.30366 0.0
H2721 H 0.44895 0.23651 0.27891 0.0
H2722 H 0.4639 0.25017 0.26909 0.0
H2723 H 0.46029 0.26397 0.25217 0.0
H2724 H 0.44689 0.27287 0.23675 0.0
H2725 H 0.44621 0.30623 0.25725 0.0
H2726 H 0.45956 0.29715 0.27272 0.0
H2727 H 0.48254 0.28361 0.29004 0.0
H2728 H 0.50476 0.28258 0.29034 0.0
H2729 H 0.50352 0.26176 0.25706 0.0
N2730 N 0.46715 0.27434 0.27375 0.0
H2731 H 0.48121 0.26237 0.25725 0.0
C2732 C 0.56462 0.26245 0.28163 0.0
C2733 C 0.56822 0.2637 0.29384 0.0
C2734 C 0.57587 0.25517 0.29935 0.0
C2735 C 0.58012 0.24524 0.29269 0.0
C2736 C 0.57597 0.24366 0.28062 0.0
C2737 C 0.56827 0.25216 0.27515 0.0
C2738 C 0.56558 0.2781 0.26589 0.0
C2739 C 0.56483 0.27383 0.25386 0.0
C2740 C 0.57296 0.27828 0.24502 0.0
C2741 C 0.58195 0.28707 0.24804 0.0
C2742 C 0.5823 0.29164 0.25998 0.0
C2743 C 0.5742 0.28718 0.26878 0.0
C2744 C 0.54558 0.27222 0.2745 0.0
C2745 C 0.53914 0.28245 0.27809 0.0
C2746 C 0.5264 0.28253 0.27756 0.0
C2747 C 0.51972 0.27227 0.27351 0.0
C2748 C 0.52623 0.26207 0.26961 0.0
C2749 C 0.53904 0.26207 0.27003 0.0
C2750 C 0.46008 0.26554 0.28056 0.0
C2751 C 0.4533 0.26953 0.29047 0.0
C2752 C 0.44485 0.26177 0.29616 0.0
C2753 C 0.44293 0.24983 0.29198 0.0
C2754 C 0.45021 0.24563 0.2824 0.0
C2755 C 0.45873 0.25343 0.27673 0.0
C2756 C 0.461 0.27996 0.26357 0.0
C2757 C 0.45752 0.27329 0.2532 0.0
C2758 C 0.44982 0.2784 0.24438 0.0
C2759 C 0.44538 0.29024 0.24581 0.0
C2760 C 0.44931 0.29704 0.25596 0.0
C2761 C 0.45704 0.29193 0.26473 0.0
C2762 C 0.48023 0.27323 0.27358 0.0
C2763 C 0.4871 0.27879 0.28285 0.0
C2764 C 0.49982 0.27828 0.28292 0.0
C2765 C 0.50605 0.27226 0.2736 0.0
C2766 C 0.49909 0.26643 0.26442 0.0
C2767 C 0.48629 0.26686 0.26444 0.0
H2768 H 0.23775 0.20428 0.12526 0.0
H2769 H 0.20029 0.21416 0.11889 0.0
H2770 H 0.20656 0.22723 0.10189 0.0
H2771 H 0.22271 0.23614 0.08903 0.0
H2772 H 0.26018 0.22639 0.09556 0.0
H2773 H 0.2538 0.21266 0.11197 0.0
C2774 C 0.23092 0.20915 0.12006 0.0
C2775 C 0.21856 0.20825 0.12343 0.0
C2776 C 0.23458 0.21662 0.11024 0.0
C2777 C 0.20989 0.21481 0.11667 0.0
C2778 C 0.21346 0.22224 0.10687 0.0
C2779 C 0.2295 0.23104 0.09405 0.0
C2780 C 0.24192 0.23234 0.09102 0.0
C2781 C 0.22579 0.22328 0.10364 0.0
C2782 C 0.25054 0.22547 0.09753 0.0
C2783 C 0.24692 0.21768 0.10701 0.0
H2784 H 0.7903 0.20293 0.12567 0.0
H2785 H 0.82682 0.2181 0.12366 0.0
H2786 H 0.82071 0.23102 0.10658 0.0
H2787 H 0.80489 0.23845 0.09255 0.0
H2788 H 0.76803 0.22432 0.09565 0.0
H2789 H 0.77445 0.21055 0.11186 0.0
C2790 C 0.79692 0.20914 0.1216 0.0
C2791 C 0.80902 0.20951 0.12602 0.0
C2792 C 0.7933 0.21673 0.1119 0.0
C2793 C 0.81749 0.21746 0.12039 0.0
C2794 C 0.81399 0.22493 0.11066 0.0
C2795 C 0.79822 0.23243 0.09681 0.0
C2796 C 0.78598 0.23247 0.09278 0.0
C2797 C 0.8019 0.2247 0.10638 0.0
C2798 C 0.77756 0.22439 0.09833 0.0
C2799 C 0.78119 0.21657 0.10772 0.0
H2800 H 0.80377 0.80568 0.13073 0.0
H2801 H 0.80148 0.84024 0.11203 0.0
H2802 H 0.79205 0.83029 0.09443 0.0
H2803 H 0.78396 0.81184 0.08449 0.0
H2804 H 0.78594 0.77736 0.10341 0.0
H2805 H 0.79629 0.78716 0.12053 0.0
C2806 C 0.80137 0.81102 0.12274 0.0
C2807 C 0.80328 0.82372 0.12277 0.0
C2808 C 0.79593 0.80524 0.11262 0.0
C2809 C 0.79995 0.83049 0.11237 0.0
C2810 C 0.7946 0.8248 0.10225 0.0
C2811 C 0.78663 0.80646 0.09237 0.0
C2812 C 0.78416 0.79385 0.09259 0.0
C2813 C 0.79243 0.81219 0.10232 0.0
C2814 C 0.78787 0.78703 0.10284 0.0
C2815 C 0.79371 0.79265 0.11272 0.0
H2816 H 0.22575 0.82172 0.11356 0.0
H2817 H 0.22503 0.79092 0.13817 0.0
H2818 H 0.2347 0.77846 0.1228 0.0
H2819 H 0.24444 0.7766 0.10281 0.0
H2820 H 0.24531 0.80741 0.07821 0.0
H2821 H 0.23473 0.81961 0.09322 0.0
C2822 C 0.22773 0.81229 0.11558 0.0
C2823 C 0.22468 0.8073 0.12705 0.0
C2824 C 0.23343 0.80519 0.10673 0.0
C2825 C 0.22714 0.79499 0.1294 0.0
C2826 C 0.23276 0.78787 0.12063 0.0
C2827 C 0.24214 0.78592 0.10063 0.0
C2828 C 0.24573 0.79106 0.08938 0.0
C2829 C 0.23605 0.7929 0.10931 0.0
C2830 C 0.24283 0.80324 0.08684 0.0
C2831 C 0.23673 0.81022 0.09541 0.0
H2832 H 0.21342 0.8037 0.91164 0.0
H2833 H 0.24297 0.79598 0.88726 0.0
H2834 H 0.25294 0.78401 0.90316 0.0
H2835 H 0.25327 0.77564 0.92395 0.0
H2836 H 0.22374 0.78309 0.94841 0.0
H2837 H 0.21377 0.79526 0.93256 0.0
C2838 C 0.22208 0.79945 0.90984 0.0
C2839 C 0.22742 0.80071 0.89825 0.0
C2840 C 0.22776 0.79253 0.91905 0.0
C2841 C 0.23857 0.79502 0.89603 0.0
C2842 C 0.24432 0.78823 0.90515 0.0
C2843 C 0.24472 0.78004 0.92585 0.0
C2844 C 0.2393 0.77853 0.93737 0.0
C2845 C 0.23901 0.78693 0.91668 0.0
C2846 C 0.22808 0.78407 0.9396 0.0
C2847 C 0.22239 0.79106 0.93056 0.0
H2848 H 0.22476 0.21424 0.89824 0.0
H2849 H 0.19031 0.21547 0.91695 0.0
H2850 H 0.20023 0.22534 0.93431 0.0
H2851 H 0.2185 0.23446 0.94385 0.0
H2852 H 0.25292 0.2335 0.92506 0.0
H2853 H 0.24328 0.22237 0.90831 0.0
C2854 C 0.21945 0.21649 0.90619 0.0
C2855 C 0.20677 0.21421 0.9062 0.0
C2856 C 0.22522 0.22219 0.91619 0.0
C2857 C 0.20004 0.21731 0.91657 0.0
C2858 C 0.20571 0.22291 0.92655 0.0
C2859 C 0.22391 0.23181 0.9361 0.0
C2860 C 0.23642 0.23487 0.93575 0.0
C2861 C 0.21826 0.22557 0.92638 0.0
C2862 C 0.2433 0.23116 0.92569 0.0
C2863 C 0.23777 0.22487 0.91603 0.0
H2864 H 0.82592 0.22181 0.91265 0.0
H2865 H 0.79509 0.20542 0.89393 0.0
H2866 H 0.78145 0.21265 0.90966 0.0
H2867 H 0.77809 0.22433 0.92829 0.0
H2868 H 0.80876 0.24118 0.94679 0.0
H2869 H 0.82258 0.23328 0.93147 0.0
C2870 C 0.81621 0.21988 0.91195 0.0
C2871 C 0.81159 0.21305 0.90208 0.0
C2872 C 0.80836 0.22421 0.92097 0.0
C2873 C 0.79897 0.21049 0.90148 0.0
C2874 C 0.79113 0.2147 0.91044 0.0
C2875 C 0.78782 0.22613 0.92907 0.0
C2876 C 0.79237 0.23333 0.9387 0.0
C2877 C 0.79571 0.22162 0.92019 0.0
C2878 C 0.80499 0.23576 0.93943 0.0
C2879 C 0.81291 0.23121 0.93068 0.0
H2880 H 0.81596 0.8146 0.91156 0.0
H2881 H 0.78543 0.80817 0.8873 0.0
H2882 H 0.77496 0.79642 0.90316 0.0
H2883 H 0.7746 0.78762 0.92376 0.0
H2884 H 0.80513 0.79372 0.94809 0.0
H2885 H 0.81546 0.80595 0.9324 0.0
C2886 C 0.80698 0.81071 0.90979 0.0
C2887 C 0.80151 0.81224 0.89823 0.0
C2888 C 0.80102 0.80388 0.91896 0.0
C2889 C 0.78992 0.807 0.89605 0.0
C2890 C 0.78389 0.80033 0.90513 0.0
C2891 C 0.78345 0.79176 0.92569 0.0
C2892 C 0.78905 0.78981 0.93711 0.0
C2893 C 0.78937 0.79867 0.9166 0.0
C2894 C 0.80064 0.79503 0.93936 0.0
C2895 C 0.80654 0.80205 0.9304 0.0
H2896 H 0.118 0.2157 0.19325 0.0
H2897 H 0.13625 0.20447 0.22636 0.0
H2898 H 0.11955 0.21235 0.23844 0.0
H2899 H 0.10043 0.22376 0.23969 0.0
H2900 H 0.08265 0.23563 0.20658 0.0
H2901 H 0.09855 0.22633 0.19445 0.0
C2902 C 0.11837 0.21501 0.20311 0.0
C2903 C 0.12845 0.20955 0.20886 0.0
C2904 C 0.10883 0.21975 0.21002 0.0
C2905 C 0.12858 0.20851 0.22165 0.0
C2906 C 0.11906 0.2131 0.22859 0.0
C2907 C 0.09994 0.22413 0.22981 0.0
C2908 C 0.09038 0.23042 0.22405 0.0
C2909 C 0.10921 0.21889 0.22288 0.0
C2910 C 0.08997 0.23095 0.21124 0.0
C2911 C 0.09905 0.22562 0.2043 0.0
H2912 H 0.79412 0.12735 0.21518 0.0
H2913 H 0.82739 0.1071 0.21837 0.0
H2914 H 0.81592 0.08951 0.22617 0.0
H2915 H 0.79645 0.07999 0.23255 0.0
H2916 H 0.76344 0.10081 0.23028 0.0
H2917 H 0.7748 0.11796 0.22166 0.0
C2918 C 0.7989 0.11913 0.21766 0.0
C2919 C 0.81162 0.11861 0.21618 0.0
C2920 C 0.79228 0.10909 0.2223 0.0
C2921 C 0.81759 0.10776 0.21925 0.0
C2922 C 0.81104 0.0977 0.2238 0.0
C2923 C 0.79174 0.08829 0.23024 0.0
C2924 C 0.77905 0.08899 0.23202 0.0
C2925 C 0.79838 0.09828 0.22543 0.0
C2926 C 0.77313 0.09984 0.22881 0.0
C2927 C 0.77965 0.10973 0.22396 0.0
H2928 H 0.896 0.81463 0.21901 0.0
H2929 H 0.90751 0.80338 0.18334 0.0
H2930 H 0.9255 0.79398 0.19226 0.0
H2931 H 0.93753 0.78809 0.21023 0.0
H2932 H 0.9261 0.79919 0.24596 0.0
H2933 H 0.9088 0.80981 0.23694 0.0
C2934 C 0.90253 0.81028 0.21316 0.0
C2935 C 0.90027 0.8096 0.20052 0.0
C2936 C 0.91293 0.80488 0.21836 0.0
C2937 C 0.90884 0.80383 0.19312 0.0
C2938 C 0.91919 0.7985 0.1982 0.0
C2939 C 0.93127 0.79285 0.21605 0.0
C2940 C 0.93311 0.79277 0.22877 0.0
C2941 C 0.92123 0.7988 0.21082 0.0
C2942 C 0.92501 0.79918 0.23614 0.0
C2943 C 0.91503 0.80518 0.23099 0.0
H2944 H 0.22837 0.89282 0.21012 0.0
H2945 H 0.19338 0.90338 0.22398 0.0
H2946 H 0.20271 0.92136 0.23323 0.0
H2947 H 0.22093 0.93356 0.23836 0.0
H2948 H 0.25598 0.92315 0.22464 0.0
H2949 H 0.24646 0.9059 0.21408 0.0
C2950 C 0.22275 0.89915 0.215 0.0
C2951 C 0.21021 0.89661 0.21648 0.0
C2952 C 0.22818 0.90954 0.22032 0.0
C2953 C 0.2031 0.90492 0.22291 0.0
C2954 C 0.20841 0.91527 0.22816 0.0
C2955 C 0.22648 0.92754 0.23302 0.0
C2956 C 0.23916 0.92962 0.23236 0.0
C2957 C 0.22097 0.91756 0.22711 0.0
C2958 C 0.24618 0.92184 0.22523 0.0
C2959 C 0.24076 0.91191 0.21927 0.0
H2960 H 0.12757 0.78434 0.82169 0.0
H2961 H 0.127 0.82106 0.80749 0.0
H2962 H 0.10914 0.81595 0.79507 0.0
H2963 H 0.09412 0.80094 0.78765 0.0
H2964 H 0.09568 0.76382 0.80063 0.0
H2965 H 0.1126 0.76928 0.81416 0.0
C2966 C 0.12363 0.79122 0.81581 0.0
C2967 C 0.1287 0.80308 0.81557 0.0
C2968 C 0.11347 0.78817 0.80848 0.0
C2969 C 0.12324 0.8119 0.80804 0.0
C2970 C 0.11306 0.80897 0.80085 0.0
C2971 C 0.09819 0.79399 0.79336 0.0
C2972 C 0.09357 0.78196 0.79304 0.0
C2973 C 0.10816 0.79711 0.80091 0.0
C2974 C 0.09885 0.7732 0.80076 0.0
C2975 C 0.10864 0.77628 0.80844 0.0
H2976 H 0.20493 0.11418 0.8169 0.0
H2977 H 0.24062 0.1271 0.82819 0.0
H2978 H 0.25009 0.11065 0.81712 0.0
H2979 H 0.24836 0.09297 0.80365 0.0
H2980 H 0.21279 0.08016 0.79199 0.0
H2981 H 0.2032 0.09624 0.80363 0.0
C2982 C 0.21478 0.11344 0.81688 0.0
C2983 C 0.22202 0.12188 0.82343 0.0
C2984 C 0.22021 0.10397 0.81039 0.0
C2985 C 0.23478 0.12066 0.8234 0.0
C2986 C 0.24023 0.11128 0.81701 0.0
C2987 C 0.2385 0.09358 0.8038 0.0
C2988 C 0.23132 0.08535 0.79696 0.0
C2989 C 0.23305 0.1029 0.81045 0.0
C2990 C 0.21855 0.08643 0.79709 0.0
C2991 C 0.21305 0.09561 0.80376 0.0
H2992 H 0.89726 0.21842 0.8164 0.0
H2993 H 0.91043 0.18267 0.80813 0.0
H2994 H 0.92866 0.19165 0.79891 0.0
H2995 H 0.94038 0.20964 0.79217 0.0
H2996 H 0.92734 0.24543 0.80029 0.0
H2997 H 0.90979 0.23646 0.8109 0.0
C2998 C 0.9042 0.21259 0.81276 0.0
C2999 C 0.90235 0.19988 0.81282 0.0
C3000 C 0.91473 0.21782 0.80745 0.0
C3001 C 0.91145 0.19248 0.80797 0.0
C3002 C 0.92193 0.19761 0.80275 0.0
C3003 C 0.93372 0.21548 0.7963 0.0
C3004 C 0.93515 0.22819 0.79536 0.0
C3005 C 0.92357 0.21026 0.80224 0.0
C3006 C 0.92653 0.23562 0.80095 0.0
C3007 C 0.91643 0.23049 0.80694 0.0
H3008 H 0.80566 0.89283 0.81115 0.0
H3009 H 0.84114 0.91005 0.80768 0.0
H3010 H 0.8319 0.92783 0.7982 0.0
H3011 H 0.81383 0.93819 0.7901 0.0
H3012 H 0.77837 0.92089 0.79343 0.0
H3013 H 0.78747 0.90368 0.80407 0.0
C3014 C 0.81136 0.90055 0.80851 0.0
C3015 C 0.82411 0.90001 0.81004 0.0
C3016 C 0.80598 0.91078 0.80305 0.0
C3017 C 0.83134 0.91008 0.80641 0.0
C3018 C 0.82605 0.9203 0.80104 0.0
C3019 C 0.80809 0.93066 0.79316 0.0
C3020 C 0.79543 0.93087 0.79092 0.0
C3021 C 0.8134 0.92068 0.79914 0.0
C3022 C 0.78811 0.92109 0.79514 0.0
C3023 C 0.79332 0.91117 0.80115 0.0
H3024 H 0.20627 0.10903 0.21479 0.0
H3025 H 0.23585 0.13541 0.21385 0.0
H3026 H 0.24999 0.12007 0.22123 0.0
H3027 H 0.25387 0.09942 0.22857 0.0
H3028 H 0.22448 0.07282 0.22936 0.0
H3029 H 0.21032 0.08807 0.22171 0.0
C3030 C 0.2158 0.11143 0.21625 0.0
C3031 C 0.21998 0.12337 0.21374 0.0
C3032 C 0.22391 0.10255 0.22056 0.0
C3033 C 0.2324 0.12627 0.21554 0.0
C3034 C 0.24049 0.11752 0.21984 0.0
C3035 C 0.24442 0.09687 0.2269 0.0
C3036 C 0.24029 0.08494 0.22954 0.0
C3037 C 0.23634 0.10565 0.22241 0.0
C3038 C 0.22791 0.08194 0.22756 0.0
C3039 C 0.21981 0.09065 0.22312 0.0
H3040 H 0.20488 0.90386 0.81167 0.0
H3041 H 0.23573 0.88028 0.81587 0.0
H3042 H 0.24937 0.8965 0.80868 0.0
H3043 H 0.2525 0.91712 0.80056 0.0
H3044 H 0.22178 0.94083 0.79629 0.0
H3045 H 0.20811 0.92472 0.80384 0.0
C3046 C 0.21458 0.90225 0.81095 0.0
C3047 C 0.21925 0.89084 0.81435 0.0
C3048 C 0.22239 0.91161 0.8067 0.0
C3049 C 0.23188 0.889 0.81351 0.0
C3050 C 0.23969 0.89825 0.8093 0.0
C3051 C 0.24284 0.91885 0.80143 0.0
C3052 C 0.23821 0.93021 0.79787 0.0
C3053 C 0.23505 0.90958 0.80584 0.0
C3054 C 0.2256 0.93215 0.79883 0.0
C3055 C 0.21778 0.92296 0.80321 0.0
H3056 H 0.13427 0.21948 0.81352 0.0
H3057 H 0.11281 0.18625 0.81353 0.0
H3058 H 0.09508 0.19733 0.80604 0.0
H3059 H 0.08563 0.21652 0.79944 0.0
H3060 H 0.10745 0.24958 0.79912 0.0
H3061 H 0.12489 0.23856 0.80705 0.0
C3062 C 0.12568 0.21467 0.81202 0.0
C3063 C 0.12491 0.20204 0.8141 0.0
C3064 C 0.11552 0.22109 0.80771 0.0
C3065 C 0.11373 0.19595 0.81189 0.0
C3066 C 0.10355 0.20229 0.80766 0.0
C3067 C 0.09421 0.22131 0.80105 0.0
C3068 C 0.09511 0.23392 0.79877 0.0
C3069 C 0.10435 0.21487 0.80548 0.0
C3070 C 0.10633 0.23995 0.80102 0.0
C3071 C 0.11639 0.23363 0.80547 0.0
H3072 H 0.82093 0.1158 0.81561 0.0
H3073 H 0.78474 0.12765 0.82445 0.0
H3074 H 0.77584 0.11108 0.81251 0.0
H3075 H 0.77826 0.09374 0.79881 0.0
H3076 H 0.81438 0.08212 0.78954 0.0
H3077 H 0.82335 0.09814 0.80225 0.0
C3078 C 0.8111 0.1148 0.81487 0.0
C3079 C 0.80354 0.12299 0.82096 0.0
C3080 C 0.80601 0.1053 0.80788 0.0
C3081 C 0.7908 0.12142 0.82003 0.0
C3082 C 0.78568 0.11197 0.81313 0.0
C3083 C 0.78809 0.09459 0.79972 0.0
C3084 C 0.79563 0.08673 0.79323 0.0
C3085 C 0.79319 0.10389 0.80697 0.0
C3086 C 0.80837 0.08811 0.79435 0.0
C3087 C 0.81351 0.09726 0.80164 0.0
H3088 H 0.90782 0.81452 0.81734 0.0
H3089 H 0.88908 0.78016 0.82316 0.0
H3090 H 0.90542 0.76958 0.81296 0.0
H3091 H 0.92491 0.76997 0.8023 0.0
H3092 H 0.94393 0.80412 0.79628 0.0
H3093 H 0.92752 0.8149 0.80642 0.0
C3094 C 0.90728 0.80474 0.81629 0.0
C3095 C 0.89726 0.79815 0.82112 0.0
C3096 C 0.91675 0.79866 0.81036 0.0
C3097 C 0.89677 0.78545 0.81974 0.0
C3098 C 0.90608 0.77938 0.81384 0.0
C3099 C 0.92557 0.77976 0.80334 0.0
C3100 C 0.93571 0.7862 0.79862 0.0
C3101 C 0.91614 0.78587 0.80918 0.0
C3102 C 0.93621 0.79893 0.79978 0.0
C3103 C 0.92685 0.80509 0.80561 0.0
H3104 H 0.80174 0.89856 0.21285 0.0
H3105 H 0.83681 0.91046 0.22685 0.0
H3106 H 0.82734 0.9276 0.23682 0.0
H3107 H 0.80902 0.93876 0.24235 0.0
H3108 H 0.7739 0.92694 0.22846 0.0
H3109 H 0.78352 0.91052 0.21737 0.0
C3110 C 0.80735 0.905 0.21792 0.0
C3111 C 0.81997 0.90309 0.2192 0.0
C3112 C 0.80184 0.91492 0.22363 0.0
C3113 C 0.82705 0.91152 0.22591 0.0
C3114 C 0.82165 0.92139 0.23157 0.0
C3115 C 0.80347 0.93261 0.23688 0.0
C3116 C 0.79074 0.93408 0.2363 0.0
C3117 C 0.80903 0.92307 0.23065 0.0
C3118 C 0.78372 0.92612 0.22899 0.0
C3119 C 0.78921 0.91665 0.22271 0.0
H3120 H 0.11793 0.80267 0.19806 0.0
H3121 H 0.14244 0.8049 0.22895 0.0
H3122 H 0.12602 0.79836 0.24251 0.0
H3123 H 0.1049 0.79154 0.2456 0.0
H3124 H 0.08014 0.7895 0.2149 0.0
H3125 H 0.09652 0.79615 0.20125 0.0
C3126 C 0.11969 0.80166 0.20775 0.0
C3127 C 0.13142 0.80431 0.21246 0.0
C3128 C 0.11018 0.79786 0.21553 0.0
C3129 C 0.13348 0.80309 0.22508 0.0
C3130 C 0.12411 0.79928 0.23285 0.0
C3131 C 0.103 0.79272 0.23596 0.0
C3132 C 0.09124 0.79004 0.23133 0.0
C3133 C 0.11243 0.79664 0.22818 0.0
C3134 C 0.0891 0.79136 0.21873 0.0
C3135 C 0.09846 0.79523 0.21092 0.0
H3136 H 0.90139 0.22646 0.2059 0.0
H3137 H 0.90297 0.18994 0.22049 0.0
H3138 H 0.92061 0.19571 0.23297 0.0
H3139 H 0.93515 0.21124 0.24031 0.0
H3140 H 0.93258 0.24812 0.22683 0.0
H3141 H 0.91587 0.24202 0.21332 0.0
C3142 C 0.9055 0.21977 0.21188 0.0
C3143 C 0.90077 0.20778 0.21224 0.0
C3144 C 0.91553 0.22319 0.21923 0.0
C3145 C 0.90646 0.1992 0.21987 0.0
C3146 C 0.91652 0.2025 0.22709 0.0
C3147 C 0.9309 0.21799 0.23449 0.0
C3148 C 0.93518 0.23015 0.23466 0.0
C3149 C 0.92106 0.2145 0.22693 0.0
C3150 C 0.92967 0.23866 0.22681 0.0
C3151 C 0.92001 0.23521 0.21914 0.0
H3152 H 0.20576 0.70687 0.6135 0.0
H3153 H 0.23365 0.71741 0.63947 0.0
H3154 H 0.2438 0.72987 0.62394 0.0
H3155 H 0.24469 0.73799 0.60308 0.0
H3156 H 0.21666 0.72799 0.57709 0.0
H3157 H 0.20665 0.71509 0.59248 0.0
C3158 C 0.21409 0.71185 0.61572 0.0
C3159 C 0.21891 0.71124 0.62764 0.0
C3160 C 0.21986 0.71909 0.60674 0.0
C3161 C 0.22966 0.71784 0.63042 0.0
C3162 C 0.23551 0.72492 0.62152 0.0
C3163 C 0.23646 0.73288 0.60075 0.0
C3164 C 0.23147 0.73387 0.58894 0.0
C3165 C 0.23069 0.72563 0.60967 0.0
C3166 C 0.22066 0.72739 0.58613 0.0
C3167 C 0.21495 0.72001 0.59492 0.0
H3168 H 0.81672 0.72502 0.63215 0.0
H3169 H 0.8004 0.69199 0.61802 0.0
H3170 H 0.79267 0.70312 0.60034 0.0
H3171 H 0.79007 0.72235 0.5891 0.0
H3172 H 0.80638 0.75536 0.60327 0.0
H3173 H 0.81487 0.74406 0.62047 0.0
C3174 C 0.81162 0.72021 0.62512 0.0
C3175 C 0.80908 0.70768 0.6265 0.0
C3176 C 0.80723 0.72666 0.61493 0.0
C3177 C 0.80232 0.70166 0.61734 0.0
C3178 C 0.79795 0.70801 0.60717 0.0
C3179 C 0.79547 0.72707 0.59596 0.0
C3180 C 0.79757 0.73969 0.59486 0.0
C3181 C 0.80023 0.72054 0.60593 0.0
C3182 C 0.80475 0.74563 0.60376 0.0
C3183 C 0.80953 0.73919 0.61368 0.0
H3184 H 0.81136 0.32662 0.61585 0.0
H3185 H 0.81107 0.29482 0.63915 0.0
H3186 H 0.80212 0.28271 0.62271 0.0
H3187 H 0.79323 0.28139 0.60216 0.0
H3188 H 0.79338 0.31316 0.57882 0.0
H3189 H 0.80332 0.32505 0.59489 0.0
C3190 C 0.80932 0.31704 0.61734 0.0
C3191 C 0.81187 0.31167 0.62875 0.0
C3192 C 0.80406 0.31013 0.60786 0.0
C3193 C 0.80934 0.29919 0.63044 0.0
C3194 C 0.80414 0.29226 0.62106 0.0
C3195 C 0.79563 0.29086 0.60048 0.0
C3196 C 0.7925 0.29636 0.58927 0.0
C3197 C 0.80134 0.29766 0.60978 0.0
C3198 C 0.79552 0.30871 0.58739 0.0
C3199 C 0.80125 0.31552 0.59657 0.0
H3200 H 0.23568 0.31548 0.62795 0.0
H3201 H 0.1993 0.30276 0.61901 0.0
H3202 H 0.2072 0.29165 0.6016 0.0
H3203 H 0.22453 0.28565 0.58879 0.0
H3204 H 0.26086 0.29835 0.59822 0.0
H3205 H 0.25282 0.30961 0.61528 0.0
C3206 C 0.22944 0.3104 0.62212 0.0
C3207 C 0.21689 0.31002 0.62479 0.0
C3208 C 0.23403 0.30409 0.61211 0.0
C3209 C 0.209 0.30315 0.61726 0.0
C3210 C 0.21351 0.29684 0.60725 0.0
C3211 C 0.2307 0.29084 0.59459 0.0
C3212 C 0.24329 0.29121 0.59206 0.0
C3213 C 0.22603 0.29723 0.60458 0.0
C3214 C 0.2511 0.29809 0.5997 0.0
C3215 C 0.24653 0.30446 0.60957 0.0
H3216 H 0.23321 0.30991 0.40227 0.0
H3217 H 0.19647 0.29576 0.40623 0.0
H3218 H 0.20311 0.28269 0.42302 0.0
H3219 H 0.21938 0.27514 0.4365 0.0
H3220 H 0.25612 0.28923 0.43237 0.0
H3221 H 0.24934 0.30273 0.41603 0.0
C3222 C 0.2266 0.30408 0.40689 0.0
C3223 C 0.21435 0.30383 0.40293 0.0
C3224 C 0.23046 0.29663 0.41659 0.0
C3225 C 0.20599 0.29604 0.40894 0.0
C3226 C 0.20976 0.28861 0.4186 0.0
C3227 C 0.22592 0.28113 0.432 0.0
C3228 C 0.23825 0.28115 0.43571 0.0
C3229 C 0.22199 0.28878 0.42247 0.0
C3230 C 0.24654 0.28913 0.42987 0.0
C3231 C 0.24269 0.29679 0.42043 0.0
H3232 H 0.20262 0.7323 0.40225 0.0
H3233 H 0.21864 0.69673 0.40381 0.0
H3234 H 0.23127 0.703 0.42113 0.0
H3235 H 0.23828 0.71878 0.43546 0.0
H3236 H 0.22324 0.75476 0.43278 0.0
H3237 H 0.20972 0.74807 0.41639 0.0
C3238 C 0.20895 0.72592 0.40628 0.0
C3239 C 0.20966 0.71405 0.40164 0.0
C3240 C 0.21636 0.72965 0.41612 0.0
C3241 C 0.21775 0.70587 0.40723 0.0
C3242 C 0.22506 0.70948 0.41711 0.0
C3243 C 0.23211 0.7252 0.43127 0.0
C3244 C 0.23182 0.73727 0.43548 0.0
C3245 C 0.22451 0.72138 0.42157 0.0
C3246 C 0.22356 0.74536 0.42998 0.0
C3247 C 0.21588 0.74157 0.42048 0.0
H3248 H 0.82098 0.70828 0.41194 0.0
H3249 H 0.81434 0.73954 0.38899 0.0
H3250 H 0.80302 0.74903 0.40534 0.0
H3251 H 0.79463 0.74834 0.426 0.0
H3252 H 0.80094 0.71709 0.44903 0.0
H3253 H 0.81277 0.70773 0.43286 0.0
C3254 C 0.81713 0.71721 0.41057 0.0
C3255 C 0.81847 0.72316 0.39922 0.0
C3256 C 0.81056 0.72262 0.42002 0.0
C3257 C 0.8133 0.73468 0.39755 0.0
C3258 C 0.80688 0.74015 0.40693 0.0
C3259 C 0.79873 0.73955 0.42755 0.0
C3260 C 0.79696 0.73346 0.43874 0.0
C3261 C 0.80541 0.73419 0.41818 0.0
C3262 C 0.80212 0.72195 0.44049 0.0
C3263 C 0.8089 0.71661 0.43125 0.0
H3264 H 0.82593 0.31232 0.40853 0.0
H3265 H 0.79255 0.31109 0.38746 0.0
H3266 H 0.78265 0.29898 0.40339 0.0
H3267 H 0.78348 0.2885 0.42314 0.0
H3268 H 0.81669 0.28976 0.44448 0.0
H3269 H 0.82669 0.30188 0.42853 0.0
C3270 C 0.81652 0.30933 0.4074 0.0
C3271 C 0.80999 0.31268 0.39682 0.0
C3272 C 0.81085 0.30234 0.41663 0.0
C3273 C 0.79775 0.30881 0.39557 0.0
C3274 C 0.79209 0.30183 0.40465 0.0
C3275 C 0.79286 0.29156 0.42441 0.0
C3276 C 0.79928 0.28824 0.43505 0.0
C3277 C 0.79853 0.29857 0.41523 0.0
C3278 C 0.81153 0.29207 0.43636 0.0
C3279 C 0.81725 0.29905 0.42725 0.0
H3280 H 0.11206 0.71464 0.69739 0.0
H3281 H 0.13611 0.71319 0.72867 0.0
H3282 H 0.12056 0.72244 0.74123 0.0
H3283 H 0.10069 0.73222 0.74304 0.0
H3284 H 0.07668 0.73393 0.71175 0.0
H3285 H 0.09173 0.72352 0.69947 0.0
C3286 C 0.11391 0.71636 0.70696 0.0
C3287 C 0.12529 0.71324 0.71204 0.0
C3288 C 0.10497 0.72184 0.71412 0.0
C3289 C 0.12742 0.71535 0.72452 0.0
C3290 C 0.11855 0.72074 0.7317 0.0
C3291 C 0.09863 0.73013 0.73359 0.0
C3292 C 0.08755 0.73392 0.72833 0.0
C3293 C 0.10735 0.72416 0.72657 0.0
C3294 C 0.08518 0.73128 0.716 0.0
C3295 C 0.09377 0.72528 0.70898 0.0
H3296 H 0.82472 0.61372 0.72182 0.0
H3297 H 0.79476 0.63867 0.72103 0.0
H3298 H 0.78112 0.62283 0.72904 0.0
H3299 H 0.77778 0.6021 0.73679 0.0
H3300 H 0.80758 0.57695 0.73741 0.0
H3301 H 0.82125 0.59274 0.72923 0.0
C3302 C 0.81522 0.6157 0.72346 0.0
C3303 C 0.81079 0.62738 0.7208 0.0
C3304 C 0.80741 0.60654 0.72812 0.0
C3305 C 0.7984 0.62974 0.72284 0.0
C3306 C 0.7906 0.6207 0.72749 0.0
C3307 C 0.78722 0.59999 0.73498 0.0
C3308 C 0.79161 0.58831 0.73771 0.0
C3309 C 0.795 0.60908 0.73018 0.0
C3310 C 0.80396 0.58588 0.73554 0.0
C3311 C 0.81178 0.59489 0.7308 0.0
H3312 H 0.90921 0.31313 0.71971 0.0
H3313 H 0.89436 0.27956 0.70533 0.0
H3314 H 0.91029 0.26816 0.71567 0.0
H3315 H 0.92836 0.26759 0.72883 0.0
H3316 H 0.9435 0.30094 0.74337 0.0
H3317 H 0.92746 0.31251 0.73313 0.0
C3318 C 0.90943 0.30332 0.71892 0.0
C3319 C 0.90064 0.29724 0.71165 0.0
C3320 C 0.91867 0.29676 0.72493 0.0
C3321 C 0.90111 0.28451 0.71067 0.0
C3322 C 0.91019 0.27796 0.71664 0.0
C3323 C 0.92827 0.27741 0.72964 0.0
C3324 C 0.9372 0.28338 0.7368 0.0
C3325 C 0.91905 0.28398 0.72373 0.0
C3326 C 0.93672 0.29609 0.73798 0.0
C3327 C 0.92756 0.30272 0.73209 0.0
H3328 H 0.20931 0.40065 0.70935 0.0
H3329 H 0.21472 0.37785 0.74107 0.0
H3330 H 0.22528 0.3945 0.75146 0.0
H3331 H 0.23256 0.41559 0.75184 0.0
H3332 H 0.22729 0.43874 0.7204 0.0
H3333 H 0.21734 0.42186 0.70952 0.0
C3334 C 0.21293 0.3993 0.71848 0.0
C3335 C 0.2111 0.38804 0.72446 0.0
C3336 C 0.21901 0.40898 0.72446 0.0
C3337 C 0.21579 0.38647 0.73633 0.0
C3338 C 0.22188 0.39598 0.74227 0.0
C3339 C 0.22915 0.41699 0.74263 0.0
C3340 C 0.23054 0.42847 0.737 0.0
C3341 C 0.22341 0.4073 0.73649 0.0
C3342 C 0.22636 0.43 0.72495 0.0
C3343 C 0.22062 0.42036 0.71874 0.0
H3344 H 0.11821 0.2893 0.32482 0.0
H3345 H 0.13646 0.30792 0.29516 0.0
H3346 H 0.12057 0.301 0.28103 0.0
H3347 H 0.1019 0.28901 0.2769 0.0
H3348 H 0.08389 0.26998 0.30642 0.0
H3349 H 0.09939 0.27752 0.32074 0.0
C3350 C 0.11877 0.29178 0.31525 0.0
C3351 C 0.12855 0.29914 0.3111 0.0
C3352 C 0.10966 0.28764 0.30712 0.0
C3353 C 0.12898 0.30242 0.29868 0.0
C3354 C 0.11992 0.29839 0.29056 0.0
C3355 C 0.10128 0.28664 0.2865 0.0
C3356 C 0.09174 0.27894 0.29058 0.0
C3357 C 0.11026 0.29095 0.29467 0.0
C3358 C 0.09119 0.2758 0.30301 0.0
C3359 C 0.10003 0.28013 0.31121 0.0
H3360 H 0.22551 0.62184 0.32518 0.0
H3361 H 0.18933 0.61838 0.30969 0.0
H3362 H 0.19572 0.60094 0.2978 0.0
H3363 H 0.21167 0.58679 0.29159 0.0
H3364 H 0.24789 0.59056 0.30698 0.0
H3365 H 0.24124 0.60743 0.31942 0.0
C3366 C 0.21895 0.61718 0.31934 0.0
C3367 C 0.20695 0.62148 0.31835 0.0
C3368 C 0.22267 0.60712 0.31256 0.0
C3369 C 0.19867 0.61541 0.31053 0.0
C3370 C 0.2023 0.60538 0.30377 0.0
C3371 C 0.21813 0.59131 0.29764 0.0
C3372 C 0.23028 0.58733 0.29832 0.0
C3373 C 0.2143 0.60119 0.30465 0.0
C3374 C 0.23844 0.59323 0.30637 0.0
C3375 C 0.23468 0.60299 0.31343 0.0
H3376 H 0.89554 0.7253 0.30674 0.0
H3377 H 0.91576 0.69201 0.30852 0.0
H3378 H 0.93308 0.70207 0.29858 0.0
H3379 H 0.94223 0.72013 0.28865 0.0
H3380 H 0.92188 0.75334 0.28669 0.0
H3381 H 0.90508 0.74362 0.29774 0.0
C3382 C 0.9038 0.72029 0.30514 0.0
C3383 C 0.90428 0.70787 0.30831 0.0
C3384 C 0.91375 0.72614 0.2994 0.0
C3385 C 0.91504 0.70151 0.30601 0.0
C3386 C 0.92498 0.70728 0.30036 0.0
C3387 C 0.93412 0.72524 0.29064 0.0
C3388 C 0.93336 0.73746 0.28681 0.0
C3389 C 0.92438 0.71954 0.29686 0.0
C3390 C 0.92283 0.74399 0.28965 0.0
C3391 C 0.91315 0.7384 0.29589 0.0
H3392 H 0.81137 0.39557 0.31294 0.0
H3393 H 0.84694 0.40886 0.30199 0.0
H3394 H 0.8378 0.42689 0.29294 0.0
H3395 H 0.81965 0.43844 0.28719 0.0
H3396 H 0.78405 0.42525 0.29808 0.0
H3397 H 0.79329 0.4079 0.30841 0.0
C3398 C 0.81715 0.4025 0.30876 0.0
C3399 C 0.82983 0.40073 0.30803 0.0
C3400 C 0.81183 0.41292 0.30357 0.0
C3401 C 0.83714 0.40981 0.30246 0.0
C3402 C 0.83193 0.42018 0.29734 0.0
C3403 C 0.81391 0.43179 0.29186 0.0
C3404 C 0.80117 0.43314 0.29179 0.0
C3405 C 0.81927 0.42173 0.29765 0.0
C3406 C 0.79389 0.42453 0.29807 0.0
C3407 C 0.79917 0.41453 0.3039 0.0
H3408 H 0.22508 0.62872 0.7148 0.0
H3409 H 0.19263 0.60637 0.71056 0.0
H3410 H 0.20384 0.58851 0.71744 0.0
H3411 H 0.22284 0.57929 0.72515 0.0
H3412 H 0.25503 0.60199 0.72972 0.0
H3413 H 0.24395 0.61958 0.72226 0.0
C3414 C 0.22042 0.61996 0.71545 0.0
C3415 C 0.20801 0.61893 0.71221 0.0
C3416 C 0.2269 0.60974 0.71947 0.0
C3417 C 0.20221 0.60743 0.71289 0.0
C3418 C 0.20859 0.59721 0.7169 0.0
C3419 C 0.22741 0.5881 0.72454 0.0
C3420 C 0.23979 0.58925 0.72793 0.0
C3421 C 0.22094 0.59827 0.72029 0.0
C3422 C 0.24558 0.60074 0.72698 0.0
C3423 C 0.23923 0.61085 0.72279 0.0
H3424 H 0.20303 0.3939 0.29732 0.0
H3425 H 0.21446 0.39864 0.33474 0.0
H3426 H 0.22643 0.41668 0.32896 0.0
H3427 H 0.23398 0.4309 0.3132 0.0
H3428 H 0.22264 0.42594 0.27578 0.0
H3429 H 0.20998 0.40849 0.28173 0.0
C3430 C 0.20799 0.39896 0.30426 0.0
C3431 C 0.20785 0.39485 0.31645 0.0
C3432 C 0.21481 0.40937 0.30089 0.0
C3433 C 0.21453 0.40146 0.32526 0.0
C3434 C 0.22132 0.41183 0.32197 0.0
C3435 C 0.22875 0.426 0.30634 0.0
C3436 C 0.22929 0.42978 0.29405 0.0
C3437 C 0.22162 0.41582 0.3098 0.0
C3438 C 0.22229 0.4234 0.28533 0.0
C3439 C 0.21512 0.41332 0.28871 0.0
H3440 H 0.11228 0.70082 0.3026 0.0
H3441 H 0.13249 0.73147 0.31723 0.0
H3442 H 0.11689 0.74524 0.30966 0.0
H3443 H 0.09801 0.74873 0.29797 0.0
H3444 H 0.0781 0.71816 0.28286 0.0
H3445 H 0.09318 0.70426 0.29133 0.0
C3446 C 0.11333 0.71051 0.30408 0.0
C3447 C 0.12361 0.71506 0.31047 0.0
C3448 C 0.10439 0.71843 0.29954 0.0
C3449 C 0.12464 0.72766 0.31248 0.0
C3450 C 0.11575 0.73557 0.30807 0.0
C3451 C 0.09687 0.73901 0.29669 0.0
C3452 C 0.08693 0.73451 0.28978 0.0
C3453 C 0.10564 0.73107 0.30151 0.0
C3454 C 0.08572 0.72189 0.28804 0.0
C3455 C 0.09432 0.71393 0.29291 0.0
H3456 H 0.82362 0.61915 0.31579 0.0
H3457 H 0.78856 0.63639 0.31636 0.0
H3458 H 0.77959 0.61969 0.30467 0.0
H3459 H 0.78171 0.60044 0.29389 0.0
H3460 H 0.81668 0.58306 0.2931 0.0
H3461 H 0.8257 0.59964 0.30508 0.0
C3462 C 0.81404 0.61929 0.31329 0.0
C3463 C 0.80678 0.62901 0.31701 0.0
C3464 C 0.80892 0.60964 0.30649 0.0
C3465 C 0.79433 0.62896 0.31379 0.0
C3466 C 0.7892 0.61943 0.30704 0.0
C3467 C 0.79127 0.60017 0.29648 0.0
C3468 C 0.79849 0.59047 0.29263 0.0
C3469 C 0.79639 0.60972 0.30335 0.0
C3470 C 0.81093 0.59045 0.29586 0.0
C3471 C 0.81608 0.59991 0.30275 0.0
H3472 H 0.9161 0.30028 0.32892 0.0
H3473 H 0.89223 0.30153 0.2975 0.0
H3474 H 0.90761 0.29161 0.28525 0.0
H3475 H 0.92734 0.28154 0.28371 0.0
H3476 H 0.95128 0.28023 0.31508 0.0
H3477 H 0.93629 0.291 0.32711 0.0
C3478 C 0.91425 0.29836 0.3194 0.0
C3479 C 0.90299 0.30164 0.31417 0.0
C3480 C 0.92312 0.29255 0.3124 0.0
C3481 C 0.90085 0.29925 0.30175 0.0
C3482 C 0.90961 0.29349 0.29474 0.0
C3483 C 0.9294 0.28379 0.29312 0.0
C3484 C 0.94044 0.28001 0.29846 0.0
C3485 C 0.92073 0.29 0.29999 0.0
C3486 C 0.9428 0.28286 0.31075 0.0
C3487 C 0.93425 0.28906 0.31764 0.0
H3488 H 0.83263 0.40687 0.72308 0.0
H3489 H 0.80012 0.3842 0.72246 0.0
H3490 H 0.78835 0.40072 0.73097 0.0
H3491 H 0.78745 0.42126 0.73946 0.0
H3492 H 0.81988 0.44402 0.74012 0.0
H3493 H 0.83148 0.42785 0.73065 0.0
C3494 C 0.82294 0.4056 0.72465 0.0
C3495 C 0.81731 0.39426 0.72219 0.0
C3496 C 0.81621 0.41514 0.72959 0.0
C3497 C 0.80475 0.39275 0.72443 0.0
C3498 C 0.79799 0.40222 0.72925 0.0
C3499 C 0.797 0.42278 0.73734 0.0
C3500 C 0.80277 0.43386 0.74051 0.0
C3501 C 0.80364 0.41341 0.73199 0.0
C3502 C 0.81523 0.43555 0.73789 0.0
C3503 C 0.82187 0.42631 0.73245 0.0
H3504 H 0.11699 0.30966 0.71186 0.0
H3505 H 0.13951 0.27846 0.71846 0.0
H3506 H 0.12363 0.26924 0.73117 0.0
H3507 H 0.10355 0.27018 0.74077 0.0
H3508 H 0.08092 0.30132 0.7344 0.0
H3509 H 0.0966 0.31041 0.72125 0.0
C3510 C 0.11836 0.3008 0.716 0.0
C3511 C 0.12945 0.29479 0.71424 0.0
C3512 C 0.10918 0.29555 0.72336 0.0
C3513 C 0.13114 0.28337 0.71979 0.0
C3514 C 0.12203 0.27805 0.72701 0.0
C3515 C 0.10197 0.27888 0.73637 0.0
C3516 C 0.09104 0.28502 0.73852 0.0
C3517 C 0.11105 0.28408 0.7289 0.0
C3518 C 0.08927 0.29642 0.73296 0.0
C3519 C 0.09822 0.30161 0.72541 0.0
H3520 H 0.89725 0.73316 0.71137 0.0
H3521 H 0.90839 0.69595 0.71582 0.0
H3522 H 0.92584 0.70262 0.7282 0.0
H3523 H 0.93797 0.71906 0.73777 0.0
H3524 H 0.92644 0.75621 0.73353 0.0
H3525 H 0.90938 0.74954 0.72077 0.0
C3526 C 0.90357 0.72651 0.71493 0.0
C3527 C 0.90149 0.71407 0.71264 0.0
C3528 C 0.9136 0.73041 0.72202 0.0
C3529 C 0.90967 0.70557 0.71754 0.0
C3530 C 0.9197 0.70938 0.72457 0.0
C3531 C 0.9317 0.7257 0.73411 0.0
C3532 C 0.93359 0.73814 0.73659 0.0
C3533 C 0.92174 0.72178 0.7269 0.0
C3534 C 0.92541 0.74661 0.73161 0.0
C3535 C 0.91555 0.74279 0.72439 0.0
H3536 H 0.73798 0.20485 0.62563 0.0
H3537 H 0.70142 0.21853 0.62224 0.0
H3538 H 0.70752 0.2307 0.60456 0.0
H3539 H 0.72336 0.23803 0.59046 0.0
H3540 H 0.76026 0.22545 0.59483 0.0
H3541 H 0.75384 0.21225 0.6116 0.0
C3542 C 0.73135 0.21057 0.62112 0.0
C3543 C 0.71924 0.21075 0.62535 0.0
C3544 C 0.73496 0.21773 0.61106 0.0
C3545 C 0.71075 0.21805 0.61915 0.0
C3546 C 0.71425 0.2251 0.60906 0.0
C3547 C 0.73004 0.23247 0.59511 0.0
C3548 C 0.7423 0.23281 0.5913 0.0
C3549 C 0.72636 0.22509 0.60499 0.0
C3550 C 0.75072 0.2253 0.59735 0.0
C3551 C 0.74709 0.21781 0.60706 0.0
H3552 H 0.29121 0.20025 0.62844 0.0
H3553 H 0.32893 0.20719 0.61928 0.0
H3554 H 0.32263 0.21951 0.60179 0.0
H3555 H 0.30641 0.22857 0.58924 0.0
H3556 H 0.26873 0.22175 0.59863 0.0
H3557 H 0.27504 0.20881 0.61559 0.0
C3558 C 0.29807 0.20431 0.62253 0.0
C3559 C 0.31053 0.2028 0.62523 0.0
C3560 C 0.29439 0.21135 0.61245 0.0
C3561 C 0.31927 0.20833 0.61756 0.0
C3562 C 0.31568 0.21532 0.60749 0.0
C3563 C 0.29957 0.22428 0.59501 0.0
C3564 C 0.2871 0.22615 0.5926 0.0
C3565 C 0.30327 0.21697 0.6049 0.0
C3566 C 0.27838 0.22035 0.60011 0.0
C3567 C 0.28198 0.21302 0.6099 0.0
H3568 H 0.31331 0.81584 0.61973 0.0
H3569 H 0.28203 0.81115 0.64308 0.0
H3570 H 0.271 0.80054 0.62689 0.0
H3571 H 0.26996 0.79297 0.60602 0.0
H3572 H 0.30097 0.79754 0.58235 0.0
H3573 H 0.31246 0.80756 0.59879 0.0
C3574 C 0.30413 0.81237 0.6213 0.0
C3575 C 0.29847 0.81442 0.63259 0.0
C3576 C 0.29778 0.80625 0.61189 0.0
C3577 C 0.28654 0.80992 0.63444 0.0
C3578 C 0.28023 0.80379 0.62519 0.0
C3579 C 0.2792 0.79624 0.6044 0.0
C3580 C 0.28454 0.79462 0.59291 0.0
C3581 C 0.2857 0.80204 0.61385 0.0
C3582 C 0.29664 0.79864 0.59111 0.0
C3583 C 0.3032 0.80441 0.6005 0.0
H3584 H 0.7182 0.80326 0.62996 0.0
H3585 H 0.72855 0.83935 0.61771 0.0
H3586 H 0.73836 0.83087 0.59988 0.0
H3587 H 0.74491 0.8132 0.58823 0.0
H3588 H 0.7347 0.77709 0.60042 0.0
H3589 H 0.72363 0.7856 0.61752 0.0
C3590 C 0.72243 0.80929 0.6233 0.0
C3591 C 0.72275 0.82193 0.6253 0.0
C3592 C 0.72807 0.80435 0.613 0.0
C3593 C 0.72838 0.82957 0.61658 0.0
C3594 C 0.73394 0.82474 0.60632 0.0
C3595 C 0.74023 0.80719 0.59461 0.0
C3596 C 0.7407 0.79452 0.59305 0.0
C3597 C 0.73402 0.81214 0.60454 0.0
C3598 C 0.73441 0.78688 0.6013 0.0
C3599 C 0.72815 0.79174 0.61117 0.0
H3600 H 0.73572 0.81802 0.40395 0.0
H3601 H 0.69914 0.80393 0.40926 0.0
H3602 H 0.70622 0.79145 0.42631 0.0
H3603 H 0.72286 0.78425 0.43952 0.0
H3604 H 0.75943 0.79831 0.43409 0.0
H3605 H 0.75219 0.81136 0.41758 0.0
C3606 C 0.72924 0.81236 0.40893 0.0
C3607 C 0.71691 0.81191 0.40525 0.0
C3608 C 0.73336 0.80523 0.41878 0.0
C3609 C 0.70872 0.80434 0.41174 0.0
C3610 C 0.71274 0.79724 0.42155 0.0
C3611 C 0.72926 0.79015 0.43471 0.0
C3612 C 0.74168 0.79027 0.43808 0.0
C3613 C 0.72506 0.79754 0.42509 0.0
C3614 C 0.74979 0.79813 0.43184 0.0
C3615 C 0.74568 0.80554 0.42231 0.0
H3616 H 0.70504 0.21708 0.41232 0.0
H3617 H 0.73484 0.21298 0.38725 0.0
H3618 H 0.74918 0.2206 0.4026 0.0
H3619 H 0.75321 0.22922 0.42279 0.0
H3620 H 0.72354 0.23332 0.448 0.0
H3621 H 0.7092 0.2252 0.43284 0.0
C3622 C 0.71467 0.2179 0.4102 0.0
C3623 C 0.71883 0.21443 0.39862 0.0
C3624 C 0.72289 0.22239 0.41905 0.0
C3625 C 0.73137 0.2154 0.39611 0.0
C3626 C 0.73959 0.21985 0.40487 0.0
C3627 C 0.74364 0.22817 0.42507 0.0
C3628 C 0.7395 0.23189 0.43656 0.0
C3629 C 0.73545 0.22343 0.41634 0.0
C3630 C 0.72699 0.23068 0.4392 0.0
C3631 C 0.71878 0.22598 0.43055 0.0
H3632 H 0.32769 0.21522 0.41073 0.0
H3633 H 0.29699 0.2004 0.39058 0.0
H3634 H 0.2832 0.20662 0.40665 0.0
H3635 H 0.27969 0.21715 0.42597 0.0
H3636 H 0.31029 0.2324 0.4459 0.0
H3637 H 0.32423 0.22534 0.43028 0.0
C3638 C 0.31798 0.21341 0.4098 0.0
C3639 C 0.31342 0.20735 0.3994 0.0
C3640 C 0.31005 0.21716 0.41902 0.0
C3641 C 0.30081 0.2049 0.39852 0.0
C3642 C 0.29289 0.20853 0.40768 0.0
C3643 C 0.28942 0.21878 0.42699 0.0
C3644 C 0.29392 0.22532 0.4371 0.0
C3645 C 0.29739 0.21475 0.41793 0.0
C3646 C 0.30656 0.22751 0.43816 0.0
C3647 C 0.31454 0.22344 0.42924 0.0
H3648 H 0.29474 0.81282 0.39392 0.0
H3649 H 0.33133 0.81177 0.40859 0.0
H3650 H 0.32384 0.80089 0.42665 0.0
H3651 H 0.30683 0.7918 0.43836 0.0
H3652 H 0.27036 0.79254 0.42322 0.0
H3653 H 0.27784 0.80377 0.40553 0.0
C3654 C 0.30108 0.81032 0.40112 0.0
C3655 C 0.31358 0.81315 0.39988 0.0
C3656 C 0.29671 0.80412 0.41149 0.0
C3657 C 0.32168 0.80961 0.40922 0.0
C3658 C 0.31739 0.80345 0.41959 0.0
C3659 C 0.30052 0.79435 0.43117 0.0
C3660 C 0.28801 0.79136 0.43226 0.0
C3661 C 0.30491 0.80065 0.42083 0.0
C3662 C 0.27998 0.79491 0.42285 0.0
C3663 C 0.28427 0.80124 0.41262 0.0
H3664 H 0.62047 0.22114 0.69625 0.0
H3665 H 0.63692 0.21089 0.7306 0.0
H3666 H 0.62011 0.22003 0.74154 0.0
H3667 H 0.60115 0.23171 0.7414 0.0
H3668 H 0.58462 0.24174 0.70704 0.0
H3669 H 0.60095 0.23176 0.69609 0.0
C3670 C 0.62029 0.22071 0.70612 0.0
C3671 C 0.63002 0.21535 0.71256 0.0
C3672 C 0.61058 0.22598 0.71238 0.0
C3673 C 0.62969 0.2151 0.72538 0.0
C3674 C 0.62003 0.22027 0.73166 0.0
C3675 C 0.60101 0.23154 0.73152 0.0
C3676 C 0.59168 0.23751 0.72506 0.0
C3677 C 0.61048 0.22585 0.72526 0.0
C3678 C 0.59176 0.23734 0.71224 0.0
C3679 C 0.60108 0.23161 0.70597 0.0
H3680 H 0.32514 0.11225 0.72947 0.0
H3681 H 0.29444 0.12926 0.71182 0.0
H3682 H 0.28084 0.11329 0.71963 0.0
H3683 H 0.27746 0.09497 0.73222 0.0
H3684 H 0.30802 0.07824 0.75032 0.0
H3685 H 0.32181 0.09374 0.74179 0.0
C3686 C 0.31546 0.11252 0.72739 0.0
C3687 C 0.31086 0.12199 0.72005 0.0
C3688 C 0.30763 0.10338 0.73206 0.0
C3689 C 0.2983 0.12203 0.71729 0.0
C3690 C 0.29048 0.11293 0.72183 0.0
C3691 C 0.28716 0.09462 0.73416 0.0
C3692 C 0.29169 0.08545 0.7419 0.0
C3693 C 0.29503 0.10361 0.72928 0.0
C3694 C 0.30427 0.08526 0.74449 0.0
C3695 C 0.31217 0.0941 0.73958 0.0
H3696 H 0.39873 0.7913 0.7062 0.0
H3697 H 0.40539 0.82855 0.7168 0.0
H3698 H 0.42312 0.82238 0.72878 0.0
H3699 H 0.43653 0.80636 0.73661 0.0
H3700 H 0.42975 0.76911 0.72606 0.0
H3701 H 0.41258 0.77541 0.71339 0.0
C3702 C 0.40415 0.79811 0.71098 0.0
C3703 C 0.40064 0.81038 0.71062 0.0
C3704 C 0.41439 0.79452 0.71782 0.0
C3705 C 0.40771 0.81902 0.71706 0.0
C3706 C 0.41792 0.81551 0.72386 0.0
C3707 C 0.43129 0.79961 0.73155 0.0
C3708 C 0.43448 0.78726 0.73232 0.0
C3709 C 0.42128 0.80327 0.7244 0.0
C3710 C 0.42767 0.77869 0.72553 0.0
C3711 C 0.41775 0.78227 0.71836 0.0
H3712 H 0.71548 0.9042 0.70772 0.0
H3713 H 0.70836 0.88861 0.74324 0.0
H3714 H 0.71995 0.90511 0.75284 0.0
H3715 H 0.7328 0.92355 0.75117 0.0
H3716 H 0.74031 0.93899 0.71569 0.0
H3717 H 0.72802 0.92292 0.70608 0.0
C3718 C 0.71653 0.90437 0.71756 0.0
C3719 C 0.71102 0.89515 0.72473 0.0
C3720 C 0.7233 0.91386 0.72304 0.0
C3721 C 0.71234 0.89564 0.73749 0.0
C3722 C 0.71903 0.90505 0.743 0.0
C3723 C 0.73159 0.92351 0.74135 0.0
C3724 C 0.73747 0.93247 0.73417 0.0
C3725 C 0.72459 0.91419 0.73587 0.0
C3726 C 0.73598 0.93215 0.72143 0.0
C3727 C 0.72893 0.92297 0.71592 0.0
H3728 H 0.62297 0.80781 0.31208 0.0
H3729 H 0.63453 0.77528 0.33084 0.0
H3730 H 0.61798 0.76368 0.32128 0.0
H3731 H 0.60054 0.76257 0.30726 0.0
H3732 H 0.58842 0.79508 0.2889 0.0
H3733 H 0.60482 0.80686 0.29868 0.0
C3734 C 0.62179 0.79821 0.31418 0.0
C3735 C 0.6301 0.79244 0.3221 0.0
C3736 C 0.61216 0.79156 0.30871 0.0
C3737 C 0.62847 0.77995 0.3246 0.0
C3738 C 0.61894 0.7733 0.31921 0.0
C3739 C 0.60134 0.77227 0.30554 0.0
C3740 C 0.59322 0.77791 0.29734 0.0
C3741 C 0.61077 0.77899 0.3112 0.0
C3742 C 0.5946 0.79046 0.29505 0.0
C3743 C 0.60396 0.79722 0.30068 0.0
H3744 H 0.70325 0.11421 0.31532 0.0
H3745 H 0.7358 0.13591 0.30909 0.0
H3746 H 0.74465 0.11938 0.2976 0.0
H3747 H 0.74308 0.09894 0.289 0.0
H3748 H 0.71065 0.07704 0.29505 0.0
H3749 H 0.70183 0.09344 0.30691 0.0
C3750 C 0.71231 0.11528 0.31151 0.0
C3751 C 0.71881 0.12633 0.31301 0.0
C3752 C 0.71737 0.1057 0.30486 0.0
C3753 C 0.73051 0.12759 0.30791 0.0
C3754 C 0.73561 0.11811 0.3014 0.0
C3755 C 0.73415 0.09767 0.29305 0.0
C3756 C 0.72758 0.08673 0.29119 0.0
C3757 C 0.72912 0.10715 0.29978 0.0
C3758 C 0.71589 0.08538 0.29629 0.0
C3759 C 0.71086 0.09475 0.3031 0.0
H3760 H 0.3947 0.22467 0.31199 0.0
H3761 H 0.41756 0.19314 0.31162 0.0
H3762 H 0.43464 0.20559 0.30416 0.0
H3763 H 0.44306 0.22548 0.29751 0.0
H3764 H 0.41996 0.25688 0.29777 0.0
H3765 H 0.40316 0.24451 0.30575 0.0
C3766 C 0.40346 0.22054 0.31044 0.0
C3767 C 0.40481 0.20797 0.31236 0.0
C3768 C 0.41325 0.22776 0.30615 0.0
C3769 C 0.4162 0.20276 0.31009 0.0
C3770 C 0.426 0.20989 0.30586 0.0
C3771 C 0.43434 0.2296 0.29927 0.0
C3772 C 0.43285 0.24213 0.29709 0.0
C3773 C 0.42461 0.22239 0.30378 0.0
C3774 C 0.42148 0.24732 0.29955 0.0
C3775 C 0.41181 0.24023 0.30404 0.0
H3776 H 0.33239 0.90265 0.29491 0.0
H3777 H 0.30313 0.89033 0.31835 0.0
H3778 H 0.29032 0.90668 0.3108 0.0
H3779 H 0.28713 0.92404 0.2971 0.0
H3780 H 0.31665 0.93711 0.27442 0.0
H3781 H 0.32964 0.92094 0.2822 0.0
C3782 C 0.32329 0.90363 0.29852 0.0
C3783 C 0.31875 0.89513 0.30713 0.0
C3784 C 0.31597 0.91318 0.29425 0.0
C3785 C 0.30683 0.89652 0.31154 0.0
C3786 C 0.2995 0.90594 0.30729 0.0
C3787 C 0.29647 0.92353 0.29401 0.0
C3788 C 0.30085 0.93182 0.28513 0.0
C3789 C 0.30394 0.91427 0.29859 0.0
C3790 C 0.31294 0.93079 0.2811 0.0
C3791 C 0.32041 0.92156 0.28559 0.0
H3792 H 0.70482 0.11391 0.72372 0.0
H3793 H 0.73641 0.13424 0.71121 0.0
H3794 H 0.74967 0.11798 0.71823 0.0
H3795 H 0.75243 0.09844 0.72875 0.0
H3796 H 0.72094 0.07818 0.74157 0.0
H3797 H 0.70756 0.09408 0.73383 0.0
C3798 C 0.71461 0.11482 0.72258 0.0
C3799 C 0.71958 0.12533 0.71693 0.0
C3800 C 0.72222 0.10548 0.72677 0.0
C3801 C 0.73229 0.12622 0.71536 0.0
C3802 C 0.7399 0.11696 0.71946 0.0
C3803 C 0.74263 0.09739 0.72969 0.0
C3804 C 0.73772 0.0871 0.73574 0.0
C3805 C 0.73498 0.10658 0.72524 0.0
C3806 C 0.72499 0.08605 0.73708 0.0
C3807 C 0.71732 0.09512 0.73261 0.0
H3808 H 0.71011 0.88966 0.29392 0.0
H3809 H 0.70735 0.90579 0.32949 0.0
H3810 H 0.71849 0.92388 0.32226 0.0
H3811 H 0.72896 0.93516 0.30575 0.0
H3812 H 0.73204 0.91855 0.27038 0.0
H3813 H 0.72052 0.90083 0.27753 0.0
C3814 C 0.71182 0.89718 0.30007 0.0
C3815 C 0.70786 0.89636 0.31223 0.0
C3816 C 0.71822 0.90754 0.29586 0.0
C3817 C 0.71039 0.90612 0.32012 0.0
C3818 C 0.71671 0.9165 0.31597 0.0
C3819 C 0.72717 0.92765 0.29961 0.0
C3820 C 0.73131 0.92832 0.28748 0.0
C3821 C 0.72069 0.91731 0.30386 0.0
C3822 C 0.72877 0.91848 0.27967 0.0
C3823 C 0.72227 0.90825 0.28379 0.0
H3824 H 0.61738 0.21338 0.32306 0.0
H3825 H 0.63679 0.21561 0.289 0.0
H3826 H 0.62027 0.22726 0.27992 0.0
H3827 H 0.60059 0.23728 0.28172 0.0
H3828 H 0.58103 0.23527 0.31567 0.0
H3829 H 0.59727 0.22303 0.32469 0.0
C3830 C 0.61794 0.21633 0.31362 0.0
C3831 C 0.62837 0.21369 0.30676 0.0
C3832 C 0.60838 0.22307 0.30843 0.0
C3833 C 0.62898 0.21769 0.29457 0.0
C3834 C 0.6195 0.22429 0.28933 0.0
C3835 C 0.59978 0.23401 0.29103 0.0
C3836 C 0.58957 0.23714 0.29798 0.0
C3837 C 0.60919 0.22709 0.29618 0.0
C3838 C 0.58882 0.23304 0.31014 0.0
C3839 C 0.59809 0.22602 0.31529 0.0
H3840 H 0.30671 0.11052 0.32309 0.0
H3841 H 0.32338 0.13038 0.2933 0.0
H3842 H 0.31696 0.11445 0.27916 0.0
H3843 H 0.30567 0.09539 0.27503 0.0
H3844 H 0.2885 0.07583 0.3047 0.0
H3845 H 0.29588 0.09122 0.31905 0.0
C3846 C 0.30889 0.11141 0.3135 0.0
C3847 C 0.31551 0.12169 0.3093 0.0
C3848 C 0.30502 0.10229 0.30537 0.0
C3849 C 0.31844 0.12253 0.29685 0.0
C3850 C 0.31469 0.11345 0.28872 0.0
C3851 C 0.3037 0.0944 0.28466 0.0
C3852 C 0.29653 0.08447 0.28877 0.0
C3853 C 0.30789 0.10334 0.29286 0.0
C3854 C 0.2939 0.08344 0.30127 0.0
C3855 C 0.29814 0.09222 0.30949 0.0
H3856 H 0.40291 0.78731 0.31818 0.0
H3857 H 0.41169 0.82441 0.30807 0.0
H3858 H 0.42865 0.81747 0.29573 0.0
H3859 H 0.44099 0.80084 0.28773 0.0
H3860 H 0.43191 0.76376 0.29775 0.0
H3861 H 0.41538 0.77077 0.31048 0.0
C3862 C 0.40862 0.79391 0.3134 0.0
C3863 C 0.40599 0.80637 0.31408 0.0
C3864 C 0.41839 0.78987 0.30636 0.0
C3865 C 0.41338 0.81475 0.30762 0.0
C3866 C 0.42314 0.8108 0.3006 0.0
C3867 C 0.43537 0.79428 0.29266 0.0
C3868 C 0.43779 0.78177 0.29178 0.0
C3869 C 0.42571 0.79837 0.29987 0.0
C3870 C 0.43047 0.77344 0.29838 0.0
C3871 C 0.4209 0.77744 0.3056 0.0
H3872 H 0.32954 0.90989 0.72388 0.0
H3873 H 0.29798 0.8859 0.72372 0.0
H3874 H 0.28602 0.9014 0.73371 0.0
H3875 H 0.2848 0.92132 0.74355 0.0
H3876 H 0.31635 0.94531 0.74389 0.0
H3877 H 0.32807 0.93018 0.73301 0.0
C3878 C 0.32005 0.90803 0.72606 0.0
C3879 C 0.3147 0.8967 0.72305 0.0
C3880 C 0.31323 0.91696 0.73194 0.0
C3881 C 0.30232 0.89456 0.72578 0.0
C3882 C 0.29548 0.90341 0.73158 0.0
C3883 C 0.29417 0.92334 0.74107 0.0
C3884 C 0.29967 0.93446 0.74459 0.0
C3885 C 0.30087 0.91459 0.73481 0.0
C3886 C 0.31192 0.93679 0.74146 0.0
C3887 C 0.31862 0.92815 0.73518 0.0
H3888 H 0.61701 0.80014 0.69407 0.0
H3889 H 0.63709 0.80722 0.72732 0.0
H3890 H 0.62042 0.79836 0.73925 0.0
H3891 H 0.60063 0.78749 0.74022 0.0
H3892 H 0.58082 0.77991 0.70694 0.0
H3893 H 0.59694 0.78992 0.69507 0.0
C3894 C 0.61777 0.7997 0.70393 0.0
C3895 C 0.62834 0.80432 0.70976 0.0
C3896 C 0.60821 0.79444 0.71074 0.0
C3897 C 0.62904 0.80387 0.72257 0.0
C3898 C 0.61953 0.79873 0.72941 0.0
C3899 C 0.59975 0.78821 0.73038 0.0
C3900 C 0.58954 0.78293 0.72448 0.0
C3901 C 0.60912 0.79388 0.7236 0.0
C3902 C 0.58864 0.78378 0.71171 0.0
C3903 C 0.59784 0.78952 0.70491 0.0
H3904 H 0.40017 0.22827 0.70471 0.0
H3905 H 0.40636 0.19155 0.71716 0.0
H3906 H 0.42385 0.19857 0.72924 0.0
H3907 H 0.43724 0.21518 0.73652 0.0
H3908 H 0.43085 0.25192 0.72423 0.0
H3909 H 0.41391 0.24476 0.71151 0.0
C3910 C 0.40543 0.22176 0.70993 0.0
C3911 C 0.40189 0.20939 0.71003 0.0
C3912 C 0.41553 0.22585 0.71683 0.0
C3913 C 0.40873 0.20114 0.71704 0.0
C3914 C 0.4188 0.20514 0.72389 0.0
C3915 C 0.43213 0.22163 0.73109 0.0
C3916 C 0.43536 0.23408 0.73137 0.0
C3917 C 0.42223 0.21749 0.72393 0.0
C3918 C 0.42873 0.24227 0.72409 0.0
C3919 C 0.41894 0.2382 0.71688 0.0
H3920 H 0.70599 0.71187 0.12136 0.0
H3921 H 0.74247 0.70533 0.13463 0.0
H3922 H 0.75095 0.71714 0.1177 0.0
H3923 H 0.74806 0.72992 0.0995 0.0
H3924 H 0.71165 0.73683 0.08633 0.0
H3925 H 0.70311 0.72444 0.1029 0.0
C3926 C 0.71579 0.71309 0.12059 0.0
C3927 C 0.72356 0.70767 0.12927 0.0
C3928 C 0.72063 0.72 0.11085 0.0
C3929 C 0.73626 0.70923 0.12801 0.0
C3930 C 0.74113 0.71605 0.11836 0.0
C3931 C 0.73826 0.72857 0.10014 0.0
C3932 C 0.73051 0.73429 0.09166 0.0
C3933 C 0.73341 0.7215 0.10974 0.0
C3934 C 0.71782 0.73262 0.09278 0.0
C3935 C 0.71293 0.72551 0.10225 0.0
H3936 H 0.32306 0.70689 0.12249 0.0
H3937 H 0.28653 0.69886 0.13496 0.0
H3938 H 0.27812 0.7107 0.11811 0.0
H3939 H 0.28108 0.72396 0.10024 0.0
H3940 H 0.31754 0.73228 0.08782 0.0
H3941 H 0.32601 0.71988 0.10431 0.0
C3942 C 0.31326 0.70779 0.12156 0.0
C3943 C 0.30546 0.70195 0.12999 0.0
C3944 C 0.30846 0.71471 0.11187 0.0
C3945 C 0.29277 0.70309 0.12853 0.0
C3946 C 0.28793 0.70993 0.11892 0.0
C3947 C 0.29087 0.72292 0.10103 0.0
C3948 C 0.29865 0.72905 0.09279 0.0
C3949 C 0.29568 0.71581 0.11056 0.0
C3950 C 0.31134 0.72776 0.0941 0.0
C3951 C 0.31619 0.72064 0.10351 0.0
H3952 H 0.31151 0.30519 0.1312 0.0
H3953 H 0.30883 0.3402 0.11343 0.0
H3954 H 0.30013 0.33057 0.09532 0.0
H3955 H 0.29236 0.31233 0.08484 0.0
H3956 H 0.29485 0.27734 0.10266 0.0
H3957 H 0.30487 0.28679 0.1202 0.0
C3958 C 0.30922 0.3107 0.1233 0.0
C3959 C 0.31072 0.32344 0.12377 0.0
C3960 C 0.3042 0.3051 0.11287 0.0
C3961 C 0.30756 0.33042 0.11345 0.0
C3962 C 0.30264 0.32491 0.10304 0.0
C3963 C 0.29511 0.30676 0.09255 0.0
C3964 C 0.2928 0.29413 0.0924 0.0
C3965 C 0.30072 0.31228 0.10272 0.0
C3966 C 0.29663 0.28705 0.10242 0.0
C3967 C 0.30228 0.29247 0.11253 0.0
H3968 H 0.70861 0.30793 0.12428 0.0
H3969 H 0.74317 0.3227 0.13682 0.0
H3970 H 0.75341 0.3137 0.11955 0.0
H3971 H 0.75274 0.30136 0.10114 0.0
H3972 H 0.71834 0.28678 0.08807 0.0
H3973 H 0.70787 0.29597 0.10526 0.0
C3974 C 0.71836 0.30926 0.12317 0.0
C3975 C 0.7251 0.31591 0.13194 0.0
C3976 C 0.72424 0.30408 0.11313 0.0
C3977 C 0.73776 0.31744 0.13038 0.0
C3978 C 0.74364 0.31236 0.12045 0.0
C3979 C 0.74292 0.30035 0.10191 0.0
C3980 C 0.73635 0.29344 0.09326 0.0
C3981 C 0.73699 0.30564 0.1118 0.0
C3982 C 0.72365 0.29198 0.09463 0.0
C3983 C 0.71765 0.29727 0.10444 0.0
H3984 H 0.73225 0.3198 0.90335 0.0
H3985 H 0.69701 0.30166 0.90292 0.0
H3986 H 0.70304 0.2892 0.92036 0.0
H3987 H 0.71853 0.28289 0.93527 0.0
H3988 H 0.7543 0.29997 0.93463 0.0
H3989 H 0.74777 0.31343 0.91819 0.0
C3990 C 0.7259 0.31305 0.90698 0.0
C3991 C 0.71419 0.3117 0.90174 0.0
C3992 C 0.7295 0.30573 0.91689 0.0
C3993 C 0.70603 0.30306 0.90681 0.0
C3994 C 0.7095 0.29585 0.91675 0.0
C3995 C 0.72495 0.28949 0.93151 0.0
C3996 C 0.73692 0.29034 0.93626 0.0
C3997 C 0.72125 0.29702 0.9218 0.0
C3998 C 0.74498 0.29917 0.93137 0.0
C3999 C 0.74129 0.30683 0.92185 0.0
H4000 H 0.703 0.72981 0.90025 0.0
H4001 H 0.71579 0.69322 0.90544 0.0
H4002 H 0.728 0.69981 0.92296 0.0
H4003 H 0.73532 0.71602 0.93667 0.0
H4004 H 0.72255 0.7526 0.93132 0.0
H4005 H 0.70976 0.74584 0.91433 0.0
C4006 C 0.70831 0.72322 0.9053 0.0
C4007 C 0.70848 0.71103 0.90144 0.0
C4008 C 0.71527 0.72705 0.91543 0.0
C4009 C 0.71561 0.7027 0.90804 0.0
C4010 C 0.72255 0.70644 0.91813 0.0
C4011 C 0.72976 0.72253 0.93178 0.0
C4012 C 0.72993 0.73482 0.93533 0.0
C4013 C 0.72253 0.71861 0.92186 0.0
C4014 C 0.7225 0.74306 0.92896 0.0
C4015 C 0.71525 0.73922 0.91914 0.0
H4016 H 0.32893 0.70744 0.91283 0.0
H4017 H 0.2982 0.70527 0.88808 0.0
H4018 H 0.28477 0.7125 0.90401 0.0
H4019 H 0.28185 0.72028 0.92463 0.0
H4020 H 0.31246 0.72247 0.94952 0.0
H4021 H 0.32586 0.71469 0.93378 0.0
C4022 C 0.31931 0.70859 0.91091 0.0
C4023 C 0.31461 0.70579 0.89925 0.0
C4024 C 0.31161 0.71286 0.9201 0.0
C4025 C 0.30206 0.70718 0.897 0.0
C4026 C 0.29437 0.71141 0.90608 0.0
C4027 C 0.29141 0.71888 0.92671 0.0
C4028 C 0.29611 0.72197 0.93829 0.0
C4029 C 0.29906 0.71434 0.91764 0.0
C4030 C 0.3086 0.72032 0.94067 0.0
C4031 C 0.31627 0.7158 0.93168 0.0
H4032 H 0.3172 0.30201 0.89819 0.0
H4033 H 0.30272 0.33727 0.90638 0.0
H4034 H 0.29281 0.3289 0.92446 0.0
H4035 H 0.28723 0.3114 0.93735 0.0
H4036 H 0.3006 0.27587 0.92857 0.0
H4037 H 0.31202 0.28453 0.91147 0.0
C4038 C 0.31185 0.30786 0.90391 0.0
C4039 C 0.31074 0.32027 0.90086 0.0
C4040 C 0.30596 0.30294 0.91423 0.0
C4041 C 0.30392 0.32774 0.90854 0.0
C4042 C 0.29815 0.32293 0.91886 0.0
C4043 C 0.29262 0.30553 0.93169 0.0
C4044 C 0.29297 0.29297 0.93426 0.0
C4045 C 0.29896 0.31053 0.9217 0.0
C4046 C 0.30024 0.28558 0.92694 0.0
C4047 C 0.3067 0.29051 0.91707 0.0
H4048 H 0.62252 0.69858 0.21703 0.0
H4049 H 0.63499 0.73484 0.20756 0.0
H4050 H 0.61822 0.74345 0.21894 0.0
H4051 H 0.6004 0.74078 0.2322 0.0
H4052 H 0.58801 0.70459 0.24197 0.0
H4053 H 0.6044 0.6959 0.23001 0.0
C4054 C 0.62161 0.70836 0.21751 0.0
C4055 C 0.63002 0.71602 0.2114 0.0
C4056 C 0.61195 0.71329 0.22416 0.0
C4057 C 0.62858 0.72869 0.21201 0.0
C4058 C 0.61901 0.73365 0.21858 0.0
C4059 C 0.60117 0.73099 0.23156 0.0
C4060 C 0.59297 0.72336 0.23798 0.0
C4061 C 0.61066 0.72604 0.22472 0.0
C4062 C 0.59425 0.71068 0.23722 0.0
C4063 C 0.60362 0.7057 0.23036 0.0
H4064 H 0.32259 0.61118 0.23168 0.0
H4065 H 0.29277 0.62886 0.2132 0.0
H4066 H 0.27865 0.61308 0.22048 0.0
H4067 H 0.27455 0.59478 0.23284 0.0
H4068 H 0.3042 0.57738 0.25182 0.0
H4069 H 0.31854 0.59266 0.24379 0.0
C4070 C 0.31299 0.61164 0.2293 0.0
C4071 C 0.30879 0.62123 0.22188 0.0
C4072 C 0.30486 0.60261 0.23367 0.0
C4073 C 0.29633 0.62152 0.21874 0.0
C4074 C 0.28821 0.61254 0.22297 0.0
C4075 C 0.28418 0.59423 0.23508 0.0
C4076 C 0.28829 0.58494 0.24291 0.0
C4077 C 0.29236 0.60309 0.2305 0.0
C4078 C 0.30077 0.58449 0.24589 0.0
C4079 C 0.30899 0.59321 0.24128 0.0
H4080 H 0.40982 0.30631 0.20308 0.0
H4081 H 0.38962 0.31982 0.23363 0.0
H4082 H 0.40558 0.31306 0.24758 0.0
H4083 H 0.42491 0.30267 0.25126 0.0
H4084 H 0.44501 0.28876 0.22087 0.0
H4085 H 0.42934 0.29609 0.20676 0.0
C4086 C 0.40886 0.30771 0.21279 0.0
C4087 C 0.3985 0.3136 0.21725 0.0
C4088 C 0.41803 0.30366 0.22082 0.0
C4089 C 0.39755 0.31549 0.22988 0.0
C4090 C 0.40664 0.31154 0.2379 0.0
C4091 C 0.42596 0.30139 0.24153 0.0
C4092 C 0.43615 0.2952 0.23714 0.0
C4093 C 0.4169 0.30559 0.23348 0.0
C4094 C 0.43722 0.2934 0.22451 0.0
C4095 C 0.42828 0.29763 0.21643 0.0
H4096 H 0.70497 0.40879 0.22752 0.0
H4097 H 0.73534 0.38819 0.21449 0.0
H4098 H 0.74951 0.40405 0.22143 0.0
H4099 H 0.7534 0.42339 0.23188 0.0
H4100 H 0.72315 0.44387 0.24532 0.0
H4101 H 0.70886 0.42832 0.23776 0.0
C4102 C 0.71469 0.40772 0.22626 0.0
C4103 C 0.71904 0.39727 0.22046 0.0
C4104 C 0.72283 0.41683 0.23041 0.0
C4105 C 0.73168 0.39618 0.21875 0.0
C4106 C 0.73982 0.40522 0.2228 0.0
C4107 C 0.74367 0.42455 0.23301 0.0
C4108 C 0.73937 0.43481 0.23915 0.0
C4109 C 0.73551 0.41555 0.22868 0.0
C4110 C 0.72673 0.43602 0.24073 0.0
C4111 C 0.71854 0.42715 0.23638 0.0
H4112 H 0.61605 0.30149 0.82287 0.0
H4113 H 0.63718 0.31543 0.79262 0.0
H4114 H 0.62143 0.30839 0.77839 0.0
H4115 H 0.60212 0.29738 0.7744 0.0
H4116 H 0.58132 0.28283 0.80456 0.0
H4117 H 0.59656 0.29082 0.81892 0.0
C4118 C 0.61725 0.30294 0.81316 0.0
C4119 C 0.62783 0.30899 0.80886 0.0
C4120 C 0.60824 0.29869 0.80499 0.0
C4121 C 0.62909 0.31096 0.79624 0.0
C4122 C 0.62012 0.30685 0.78806 0.0
C4123 C 0.60084 0.2961 0.78413 0.0
C4124 C 0.5906 0.28951 0.7884 0.0
C4125 C 0.6097 0.30063 0.79232 0.0
C4126 C 0.58918 0.28777 0.80103 0.0
C4127 C 0.59788 0.29237 0.80924 0.0
H4128 H 0.72623 0.61497 0.82708 0.0
H4129 H 0.70478 0.62833 0.7968 0.0
H4130 H 0.71211 0.61198 0.78405 0.0
H4131 H 0.72511 0.59432 0.78122 0.0
H4132 H 0.74573 0.58026 0.81174 0.0
H4133 H 0.73813 0.5964 0.82464 0.0
C4134 C 0.72299 0.61423 0.81776 0.0
C4135 C 0.71503 0.62301 0.81293 0.0
C4136 C 0.72712 0.60468 0.81047 0.0
C4137 C 0.7111 0.62191 0.80074 0.0
C4138 C 0.71522 0.61249 0.79343 0.0
C4139 C 0.72778 0.59461 0.79075 0.0
C4140 C 0.73605 0.58605 0.79543 0.0
C4141 C 0.7233 0.60388 0.79817 0.0
C4142 C 0.73954 0.5868 0.80778 0.0
C4143 C 0.73515 0.59601 0.81521 0.0
H4144 H 0.40141 0.72101 0.81763 0.0
H4145 H 0.41062 0.68927 0.79694 0.0
H4146 H 0.4278 0.7003 0.78785 0.0
H4147 H 0.4398 0.71916 0.78515 0.0
H4148 H 0.42978 0.75128 0.80486 0.0
H4149 H 0.41346 0.73987 0.81497 0.0
C4150 C 0.40712 0.71651 0.81108 0.0
C4151 C 0.40467 0.70429 0.80802 0.0
C4152 C 0.4169 0.72297 0.80571 0.0
C4153 C 0.41235 0.69859 0.79965 0.0
C4154 C 0.42214 0.70492 0.79436 0.0
C4155 C 0.43402 0.7237 0.79161 0.0
C4156 C 0.43609 0.7361 0.7942 0.0
C4157 C 0.42444 0.71715 0.79723 0.0
C4158 C 0.4286 0.74172 0.80279 0.0
C4159 C 0.41915 0.73522 0.80852 0.0
H4160 H 0.31791 0.4073 0.8128 0.0
H4161 H 0.30874 0.38323 0.78311 0.0
H4162 H 0.29679 0.39914 0.77337 0.0
H4163 H 0.28851 0.4197 0.77345 0.0
H4164 H 0.29741 0.44388 0.80309 0.0
H4165 H 0.3099 0.42817 0.81264 0.0
C4166 C 0.31337 0.40558 0.80415 0.0
C4167 C 0.31417 0.39405 0.79874 0.0
C4168 C 0.30645 0.41479 0.79858 0.0
C4169 C 0.30813 0.39194 0.78758 0.0
C4170 C 0.30134 0.40107 0.78196 0.0
C4171 C 0.29333 0.4216 0.78191 0.0
C4172 C 0.29207 0.43298 0.78751 0.0
C4173 C 0.30039 0.4125 0.7874 0.0
C4174 C 0.29817 0.43518 0.79862 0.0
C4175 C 0.30533 0.42621 0.80407 0.0
H4176 H 0.70535 0.61284 0.22361 0.0
H4177 H 0.73541 0.63836 0.21949 0.0
H4178 H 0.74956 0.62315 0.22705 0.0
H4179 H 0.75343 0.60281 0.23519 0.0
H4180 H 0.7236 0.577 0.23918 0.0
H4181 H 0.70933 0.59221 0.23162 0.0
C4182 C 0.71499 0.61509 0.22443 0.0
C4183 C 0.71929 0.62674 0.22092 0.0
C4184 C 0.72312 0.60627 0.22884 0.0
C4185 C 0.73185 0.62943 0.22193 0.0
C4186 C 0.73995 0.62075 0.22633 0.0
C4187 C 0.74383 0.60041 0.23425 0.0
C4188 C 0.73965 0.58871 0.23771 0.0
C4189 C 0.7357 0.60915 0.2298 0.0
C4190 C 0.7271 0.58594 0.2367 0.0
C4191 C 0.71893 0.59463 0.23231 0.0
H4192 H 0.71131 0.39656 0.79244 0.0
H4193 H 0.71998 0.40358 0.8302 0.0
H4194 H 0.73322 0.42064 0.82415 0.0
H4195 H 0.74241 0.43355 0.80811 0.0
H4196 H 0.73376 0.42629 0.77038 0.0
H4197 H 0.72016 0.40962 0.77649 0.0
C4198 C 0.71597 0.4019 0.79937 0.0
C4199 C 0.71463 0.39875 0.81177 0.0
C4200 C 0.72352 0.41174 0.79584 0.0
C4201 C 0.72095 0.40568 0.82059 0.0
C4202 C 0.72847 0.41549 0.81714 0.0
C4203 C 0.73758 0.4283 0.80122 0.0
C4204 C 0.7391 0.43125 0.78879 0.0
C4205 C 0.72987 0.41858 0.80479 0.0
C4206 C 0.73263 0.4244 0.78001 0.0
C4207 C 0.72492 0.41478 0.78349 0.0
H4208 H 0.61941 0.7121 0.81501 0.0
H4209 H 0.63383 0.69836 0.78139 0.0
H4210 H 0.61764 0.70824 0.76989 0.0
H4211 H 0.59941 0.72073 0.76925 0.0
H4212 H 0.58477 0.73471 0.80262 0.0
H4213 H 0.6011 0.72498 0.81429 0.0
C4214 C 0.61905 0.71136 0.80516 0.0
C4215 C 0.62778 0.70439 0.7991 0.0
C4216 C 0.60967 0.71711 0.79854 0.0
C4217 C 0.62712 0.70347 0.78633 0.0
C4218 C 0.61789 0.70917 0.77972 0.0
C4219 C 0.59969 0.72154 0.77909 0.0
C4220 C 0.59081 0.72836 0.78504 0.0
C4221 C 0.60908 0.71593 0.78572 0.0
C4222 C 0.59151 0.72955 0.79779 0.0
C4223 C 0.60083 0.72396 0.80448 0.0
H4224 H 0.30003 0.61222 0.82165 0.0
H4225 H 0.32507 0.62471 0.79385 0.0
H4226 H 0.31759 0.60882 0.78021 0.0
H4227 H 0.30349 0.59182 0.77586 0.0
H4228 H 0.27917 0.57866 0.80398 0.0
H4229 H 0.28692 0.59431 0.8178 0.0
C4230 C 0.30402 0.61138 0.81269 0.0
C4231 C 0.31307 0.61978 0.80881 0.0
C4232 C 0.29978 0.6021 0.8049 0.0
C4233 C 0.31794 0.61858 0.79705 0.0
C4234 C 0.31373 0.60942 0.78924 0.0
C4235 C 0.30003 0.5922 0.78508 0.0
C4236 C 0.29069 0.58405 0.78881 0.0
C4237 C 0.30458 0.60119 0.79303 0.0
C4238 C 0.2862 0.5849 0.80076 0.0
C4239 C 0.29067 0.59383 0.8087 0.0
H4240 H 0.40797 0.31546 0.8058 0.0
H4241 H 0.39472 0.28212 0.82243 0.0
H4242 H 0.41136 0.27101 0.81335 0.0
H4243 H 0.42937 0.27056 0.80035 0.0
H4244 H 0.44304 0.30377 0.78387 0.0
H4245 H 0.42659 0.3151 0.79326 0.0
C4246 C 0.40879 0.30579 0.80753 0.0
C4247 C 0.4 0.29964 0.81471 0.0
C4248 C 0.41846 0.29941 0.8023 0.0
C4249 C 0.40118 0.28707 0.81675 0.0
C4250 C 0.41075 0.2807 0.81163 0.0
C4251 C 0.42889 0.28031 0.79896 0.0
C4252 C 0.43749 0.28629 0.79144 0.0
C4253 C 0.41941 0.28675 0.80435 0.0
C4254 C 0.43652 0.2989 0.78954 0.0
C4255 C 0.42712 0.3054 0.79493 0.0
H4256 H 0.29925 0.39437 0.22289 0.0
H4257 H 0.33365 0.41401 0.22309 0.0
H4258 H 0.32403 0.43132 0.2327 0.0
H4259 H 0.30598 0.44062 0.2418 0.0
H4260 H 0.27178 0.42059 0.24217 0.0
H4261 H 0.28116 0.40381 0.23155 0.0
C4262 C 0.30466 0.40242 0.22507 0.0
C4263 C 0.31718 0.40284 0.22229 0.0
C4264 C 0.29909 0.41232 0.23069 0.0
C4265 C 0.32398 0.41345 0.225 0.0
C4266 C 0.3185 0.42334 0.23057 0.0
C4267 C 0.30058 0.43258 0.23957 0.0
C4268 C 0.28816 0.43193 0.24278 0.0
C4269 C 0.30608 0.42284 0.23357 0.0
C4270 C 0.28129 0.42147 0.23966 0.0
C4271 C 0.28667 0.4118 0.23366 0.0
H4272 H 0.62552 0.29395 0.21103 0.0
H4273 H 0.62302 0.33106 0.22318 0.0
H4274 H 0.60567 0.32543 0.23597 0.0
H4275 H 0.59146 0.30989 0.24409 0.0
H4276 H 0.59406 0.27279 0.23198 0.0
H4277 H 0.6108 0.27861 0.21849 0.0
C4278 C 0.62109 0.30087 0.21633 0.0
C4279 C 0.62567 0.31291 0.21616 0.0
C4280 C 0.61105 0.29759 0.22363 0.0
C4281 C 0.61986 0.32168 0.22326 0.0
C4282 C 0.60987 0.31848 0.23054 0.0
C4283 C 0.59569 0.30307 0.23851 0.0
C4284 C 0.59147 0.29091 0.23909 0.0
C4285 C 0.60545 0.30644 0.23088 0.0
C4286 C 0.59696 0.28224 0.23162 0.0
C4287 C 0.60663 0.28554 0.22397 0.0
H4288 H 0.41169 0.71125 0.20005 0.0
H4289 H 0.38882 0.7106 0.23191 0.0
H4290 H 0.40537 0.71963 0.24399 0.0
H4291 H 0.42588 0.72892 0.24523 0.0
H4292 H 0.44869 0.72984 0.21333 0.0
H4293 H 0.43256 0.71969 0.20153 0.0
C4294 C 0.41032 0.71311 0.20964 0.0
C4295 C 0.39899 0.71028 0.21503 0.0
C4296 C 0.41984 0.71844 0.21652 0.0
C4297 C 0.39746 0.71256 0.22753 0.0
C4298 C 0.4069 0.7178 0.23444 0.0
C4299 C 0.42741 0.72671 0.23575 0.0
C4300 C 0.43848 0.7302 0.23018 0.0
C4301 C 0.41808 0.72091 0.229 0.0
C4302 C 0.44021 0.72741 0.21782 0.0
C4303 C 0.43101 0.72157 0.21107 0.0
loop_
_geom_bond_atom_site_label_1
_geom_bond_atom_site_label_2
_geom_bond_distance
_geom_bond_site_symmetry_2
_ccdc_geom_bond_type
C0 C1 1.264 . S
C0 C5 1.479 . S
C0 C10 1.465 . S
C1 C0 1.264 . S
C1 C3 1.339 . S
C1 H28 0.931 . S
C2 C3 1.395 . S
C2 C4 1.320 . S
C3 C1 1.339 . S
C3 C2 1.395 . S
C3 H29 0.929 . S
C4 C2 1.320 . S
C4 C5 1.405 . S
C4 H30 0.930 . S
C5 C0 1.479 . S
C5 C4 1.405 . S
C5 H31 0.931 . S
U6 O7 2.454 . S
U6 O8 2.458 . S
U6 C9 2.984 . S
U6 C10 2.847 . S
U6 C23 2.882 . S
U6 O24 2.441 . S
U6 O25 2.420 . S
U6 O26 2.455 . S
U6 O27 2.449 . S
O7 U6 2.454 . S
O7 C9 1.353 . S
O8 U6 2.458 . S
O8 C9 1.286 . S
C9 U6 2.984 . S
C9 O7 1.353 . S
C9 O8 1.286 . S
C9 C11 1.363 . S
C10 C0 1.465 . S
C10 U6 2.847 . S
C10 O24 1.249 . S
C10 O25 1.202 . S
C11 C9 1.363 . S
C11 C13 1.408 . S
C11 C16 1.342 . S
C12 C13 1.310 . S
C12 C15 1.461 . S
C12 H32 0.932 . S
C13 C11 1.408 . S
C13 C12 1.310 . S
C13 H33 0.930 . S
C14 C15 1.474 . S
C14 C16 1.285 . S
C14 H34 0.929 . S
C15 C12 1.461 . S
C15 C14 1.474 . S
C16 C11 1.342 . S
C16 C14 1.285 . S
C16 H35 0.930 . S
C17 C20 1.424 . S
C17 C22 1.245 . S
C17 C23 1.428 . S
C18 C21 1.260 . S
C18 C22 1.477 . S
C18 H36 0.932 . S
C19 C20 1.384 . S
C19 C21 1.479 . S
C19 H37 0.929 . S
C20 C17 1.424 . S
C20 C19 1.384 . S
C20 H38 0.928 . S
C21 C18 1.260 . S
C21 C19 1.479 . S
C22 C17 1.245 . S
C22 C18 1.477 . S
C22 H39 0.932 . S
C23 U6 2.882 . S
C23 C17 1.428 . S
C23 O26 1.301 . S
C23 O27 1.282 . S
O24 U6 2.441 . S
O24 C10 1.249 . S
O25 U6 2.420 . S
O25 C10 1.202 . S
O26 U6 2.455 . S
O26 C23 1.301 . S
O27 U6 2.449 . S
O27 C23 1.282 . S
H28 C1 0.931 . S
H29 C3 0.929 . S
H30 C4 0.930 . S
H31 C5 0.931 . S
H32 C12 0.932 . S
H33 C13 0.930 . S
H34 C14 0.929 . S
H35 C16 0.930 . S
H36 C18 0.932 . S
H37 C19 0.929 . S
H38 C20 0.928 . S
H39 C22 0.932 . S
C40 C41 1.264 . S
C40 C45 1.479 . S
C40 C50 1.465 . S
C41 C40 1.264 . S
C41 C43 1.339 . S
C41 H68 0.931 . S
C42 C43 1.395 . S
C42 C44 1.320 . S
C43 C41 1.339 . S
C43 C42 1.395 . S
C43 H69 0.929 . S
C44 C42 1.320 . S
C44 C45 1.405 . S
C44 H70 0.930 . S
C45 C40 1.479 . S
C45 C44 1.405 . S
C45 H71 0.931 . S
U46 O47 2.454 . S
U46 O48 2.458 . S
U46 C49 2.984 . S
U46 C50 2.847 . S
U46 C63 2.882 . S
U46 O64 2.441 . S
U46 O65 2.420 . S
U46 O66 2.455 . S
U46 O67 2.449 . S
O47 U46 2.454 . S
O47 C49 1.353 . S
O48 U46 2.458 . S
O48 C49 1.286 . S
C49 U46 2.984 . S
C49 O47 1.353 . S
C49 O48 1.286 . S
C49 C51 1.363 . S
C50 C40 1.465 . S
C50 U46 2.847 . S
C50 O64 1.249 . S
C50 O65 1.202 . S
C51 C49 1.363 . S
C51 C53 1.408 . S
C51 C56 1.342 . S
C52 C53 1.310 . S
C52 C55 1.461 . S
C52 H72 0.932 . S
C53 C51 1.408 . S
C53 C52 1.310 . S
C53 H73 0.930 . S
C54 C55 1.474 . S
C54 C56 1.285 . S
C54 H74 0.929 . S
C55 C52 1.461 . S
C55 C54 1.474 . S
C56 C51 1.342 . S
C56 C54 1.285 . S
C56 H75 0.930 . S
C57 C60 1.424 . S
C57 C62 1.245 . S
C57 C63 1.428 . S
C58 C61 1.260 . S
C58 C62 1.477 . S
C58 H76 0.932 . S
C59 C60 1.384 . S
C59 C61 1.479 . S
C59 H77 0.929 . S
C60 C57 1.424 . S
C60 C59 1.384 . S
C60 H78 0.928 . S
C61 C58 1.260 . S
C61 C59 1.479 . S
C62 C57 1.245 . S
C62 C58 1.477 . S
C62 H79 0.932 . S
C63 U46 2.882 . S
C63 C57 1.428 . S
C63 O66 1.301 . S
C63 O67 1.282 . S
O64 U46 2.441 . S
O64 C50 1.249 . S
O65 U46 2.420 . S
O65 C50 1.202 . S
O66 U46 2.455 . S
O66 C63 1.301 . S
O67 U46 2.449 . S
O67 C63 1.282 . S
H68 C41 0.931 . S
H69 C43 0.929 . S
H70 C44 0.930 . S
H71 C45 0.931 . S
H72 C52 0.932 . S
H73 C53 0.930 . S
H74 C54 0.929 . S
H75 C56 0.930 . S
H76 C58 0.932 . S
H77 C59 0.929 . S
H78 C60 0.928 . S
H79 C62 0.932 . S
C80 C81 1.264 . S
C80 C85 1.479 . S
C80 C90 1.465 . S
C81 C80 1.264 . S
C81 C83 1.339 . S
C81 H108 0.931 . S
C82 C83 1.395 . S
C82 C84 1.320 . S
C83 C81 1.339 . S
C83 C82 1.395 . S
C83 H109 0.929 . S
C84 C82 1.320 . S
C84 C85 1.405 . S
C84 H110 0.930 . S
C85 C80 1.479 . S
C85 C84 1.405 . S
C85 H111 0.931 . S
U86 O87 2.454 . S
U86 O88 2.458 . S
U86 C89 2.984 . S
U86 C90 2.847 . S
U86 C103 2.882 . S
U86 O104 2.441 . S
U86 O105 2.420 . S
U86 O106 2.455 . S
U86 O107 2.449 . S
O87 U86 2.454 . S
O87 C89 1.353 . S
O88 U86 2.458 . S
O88 C89 1.286 . S
C89 U86 2.984 . S
C89 O87 1.353 . S
C89 O88 1.286 . S
C89 C91 1.363 . S
C90 C80 1.465 . S
C90 U86 2.847 . S
C90 O104 1.249 . S
C90 O105 1.202 . S
C91 C89 1.363 . S
C91 C93 1.408 . S
C91 C96 1.342 . S
C92 C93 1.310 . S
C92 C95 1.461 . S
C92 H112 0.932 . S
C93 C91 1.408 . S
C93 C92 1.310 . S
C93 H113 0.930 . S
C94 C95 1.474 . S
C94 C96 1.285 . S
C94 H114 0.929 . S
C95 C92 1.461 . S
C95 C94 1.474 . S
C96 C91 1.342 . S
C96 C94 1.285 . S
C96 H115 0.930 . S
C97 C100 1.424 . S
C97 C102 1.245 . S
C97 C103 1.428 . S
C98 C101 1.260 . S
C98 C102 1.477 . S
C98 H116 0.932 . S
C99 C100 1.384 . S
C99 C101 1.479 . S
C99 H117 0.929 . S
C100 C97 1.424 . S
C100 C99 1.384 . S
C100 H118 0.928 . S
C101 C98 1.260 . S
C101 C99 1.479 . S
C102 C97 1.245 . S
C102 C98 1.477 . S
C102 H119 0.932 . S
C103 U86 2.882 . S
C103 C97 1.428 . S
C103 O106 1.301 . S
C103 O107 1.282 . S
O104 U86 2.441 . S
O104 C90 1.249 . S
O105 U86 2.420 . S
O105 C90 1.202 . S
O106 U86 2.455 . S
O106 C103 1.301 . S
O107 U86 2.449 . S
O107 C103 1.282 . S
H108 C81 0.931 . S
H109 C83 0.929 . S
H110 C84 0.930 . S
H111 C85 0.931 . S
H112 C92 0.932 . S
H113 C93 0.930 . S
H114 C94 0.929 . S
H115 C96 0.930 . S
H116 C98 0.932 . S
H117 C99 0.929 . S
H118 C100 0.928 . S
H119 C102 0.932 . S
C120 C121 1.264 . S
C120 C125 1.479 . S
C120 C130 1.465 . S
C121 C120 1.264 . S
C121 C123 1.339 . S
C121 H148 0.931 . S
C122 C123 1.395 . S
C122 C124 1.320 . S
C123 C121 1.339 . S
C123 C122 1.395 . S
C123 H149 0.929 . S
C124 C122 1.320 . S
C124 C125 1.405 . S
C124 H150 0.930 . S
C125 C120 1.479 . S
C125 C124 1.405 . S
C125 H151 0.931 . S
U126 O127 2.454 . S
U126 O128 2.458 . S
U126 C129 2.984 . S
U126 C130 2.847 . S
U126 C143 2.882 . S
U126 O144 2.441 . S
U126 O145 2.420 . S
U126 O146 2.455 . S
U126 O147 2.449 . S
O127 U126 2.454 . S
O127 C129 1.353 . S
O128 U126 2.458 . S
O128 C129 1.286 . S
C129 U126 2.984 . S
C129 O127 1.353 . S
C129 O128 1.286 . S
C129 C131 1.363 . S
C130 C120 1.465 . S
C130 U126 2.847 . S
C130 O144 1.249 . S
C130 O145 1.202 . S
C131 C129 1.363 . S
C131 C133 1.408 . S
C131 C136 1.342 . S
C132 C133 1.310 . S
C132 C135 1.461 . S
C132 H152 0.932 . S
C133 C131 1.408 . S
C133 C132 1.310 . S
C133 H153 0.930 . S
C134 C135 1.474 . S
C134 C136 1.285 . S
C134 H154 0.929 . S
C135 C132 1.461 . S
C135 C134 1.474 . S
C136 C131 1.342 . S
C136 C134 1.285 . S
C136 H155 0.930 . S
C137 C140 1.424 . S
C137 C142 1.245 . S
C137 C143 1.428 . S
C138 C141 1.260 . S
C138 C142 1.477 . S
C138 H156 0.932 . S
C139 C140 1.384 . S
C139 C141 1.479 . S
C139 H157 0.929 . S
C140 C137 1.424 . S
C140 C139 1.384 . S
C140 H158 0.928 . S
C141 C138 1.260 . S
C141 C139 1.479 . S
C142 C137 1.245 . S
C142 C138 1.477 . S
C142 H159 0.932 . S
C143 U126 2.882 . S
C143 C137 1.428 . S
C143 O146 1.301 . S
C143 O147 1.282 . S
O144 U126 2.441 . S
O144 C130 1.249 . S
O145 U126 2.420 . S
O145 C130 1.202 . S
O146 U126 2.455 . S
O146 C143 1.301 . S
O147 U126 2.449 . S
O147 C143 1.282 . S
H148 C121 0.931 . S
H149 C123 0.929 . S
H150 C124 0.930 . S
H151 C125 0.931 . S
H152 C132 0.932 . S
H153 C133 0.930 . S
H154 C134 0.929 . S
H155 C136 0.930 . S
H156 C138 0.932 . S
H157 C139 0.929 . S
H158 C140 0.928 . S
H159 C142 0.932 . S
C160 C161 1.264 . S
C160 C165 1.479 . S
C160 C170 1.465 . S
C161 C160 1.264 . S
C161 C163 1.339 . S
C161 H188 0.931 . S
C162 C163 1.395 . S
C162 C164 1.320 . S
C163 C161 1.339 . S
C163 C162 1.395 . S
C163 H189 0.929 . S
C164 C162 1.320 . S
C164 C165 1.405 . S
C164 H190 0.930 . S
C165 C160 1.479 . S
C165 C164 1.405 . S
C165 H191 0.931 . S
U166 O167 2.454 . S
U166 O168 2.458 . S
U166 C169 2.984 . S
U166 C170 2.847 . S
U166 C183 2.882 . S
U166 O184 2.441 . S
U166 O185 2.420 . S
U166 O186 2.455 . S
U166 O187 2.449 . S
O167 U166 2.454 . S
O167 C169 1.353 . S
O168 U166 2.458 . S
O168 C169 1.286 . S
C169 U166 2.984 . S
C169 O167 1.353 . S
C169 O168 1.286 . S
C169 C171 1.363 . S
C170 C160 1.465 . S
C170 U166 2.847 . S
C170 O184 1.249 . S
C170 O185 1.202 . S
C171 C169 1.363 . S
C171 C173 1.408 . S
C171 C176 1.342 . S
C172 C173 1.310 . S
C172 C175 1.461 . S
C172 H192 0.932 . S
C173 C171 1.408 . S
C173 C172 1.310 . S
C173 H193 0.930 . S
C174 C175 1.474 . S
C174 C176 1.285 . S
C174 H194 0.929 . S
C175 C172 1.461 . S
C175 C174 1.474 . S
C176 C171 1.342 . S
C176 C174 1.285 . S
C176 H195 0.930 . S
C177 C180 1.424 . S
C177 C182 1.245 . S
C177 C183 1.428 . S
C178 C181 1.260 . S
C178 C182 1.477 . S
C178 H196 0.932 . S
C179 C180 1.384 . S
C179 C181 1.479 . S
C179 H197 0.929 . S
C180 C177 1.424 . S
C180 C179 1.384 . S
C180 H198 0.928 . S
C181 C178 1.260 . S
C181 C179 1.479 . S
C182 C177 1.245 . S
C182 C178 1.477 . S
C182 H199 0.932 . S
C183 U166 2.882 . S
C183 C177 1.428 . S
C183 O186 1.301 . S
C183 O187 1.282 . S
O184 U166 2.441 . S
O184 C170 1.249 . S
O185 U166 2.420 . S
O185 C170 1.202 . S
O186 U166 2.455 . S
O186 C183 1.301 . S
O187 U166 2.449 . S
O187 C183 1.282 . S
H188 C161 0.931 . S
H189 C163 0.929 . S
H190 C164 0.930 . S
H191 C165 0.931 . S
H192 C172 0.932 . S
H193 C173 0.930 . S
H194 C174 0.929 . S
H195 C176 0.930 . S
H196 C178 0.932 . S
H197 C179 0.929 . S
H198 C180 0.928 . S
H199 C182 0.932 . S
C200 C201 1.264 . S
C200 C205 1.479 . S
C200 C210 1.465 . S
C201 C200 1.264 . S
C201 C203 1.339 . S
C201 H228 0.931 . S
C202 C203 1.395 . S
C202 C204 1.320 . S
C203 C201 1.339 . S
C203 C202 1.395 . S
C203 H229 0.929 . S
C204 C202 1.320 . S
C204 C205 1.405 . S
C204 H230 0.930 . S
C205 C200 1.479 . S
C205 C204 1.405 . S
C205 H231 0.931 . S
U206 O207 2.454 . S
U206 O208 2.458 . S
U206 C209 2.984 . S
U206 C210 2.847 . S
U206 C223 2.882 . S
U206 O224 2.441 . S
U206 O225 2.420 . S
U206 O226 2.455 . S
U206 O227 2.449 . S
O207 U206 2.454 . S
O207 C209 1.353 . S
O208 U206 2.458 . S
O208 C209 1.286 . S
C209 U206 2.984 . S
C209 O207 1.353 . S
C209 O208 1.286 . S
C209 C211 1.363 . S
C210 C200 1.465 . S
C210 U206 2.847 . S
C210 O224 1.249 . S
C210 O225 1.202 . S
C211 C209 1.363 . S
C211 C213 1.408 . S
C211 C216 1.342 . S
C212 C213 1.310 . S
C212 C215 1.461 . S
C212 H232 0.932 . S
C213 C211 1.408 . S
C213 C212 1.310 . S
C213 H233 0.930 . S
C214 C215 1.474 . S
C214 C216 1.285 . S
C214 H234 0.929 . S
C215 C212 1.461 . S
C215 C214 1.474 . S
C216 C211 1.342 . S
C216 C214 1.285 . S
C216 H235 0.930 . S
C217 C220 1.424 . S
C217 C222 1.245 . S
C217 C223 1.428 . S
C218 C221 1.260 . S
C218 C222 1.477 . S
C218 H236 0.932 . S
C219 C220 1.384 . S
C219 C221 1.479 . S
C219 H237 0.929 . S
C220 C217 1.424 . S
C220 C219 1.384 . S
C220 H238 0.928 . S
C221 C218 1.260 . S
C221 C219 1.479 . S
C222 C217 1.245 . S
C222 C218 1.477 . S
C222 H239 0.932 . S
C223 U206 2.882 . S
C223 C217 1.428 . S
C223 O226 1.301 . S
C223 O227 1.282 . S
O224 U206 2.441 . S
O224 C210 1.249 . S
O225 U206 2.420 . S
O225 C210 1.202 . S
O226 U206 2.455 . S
O226 C223 1.301 . S
O227 U206 2.449 . S
O227 C223 1.282 . S
H228 C201 0.931 . S
H229 C203 0.929 . S
H230 C204 0.930 . S
H231 C205 0.931 . S
H232 C212 0.932 . S
H233 C213 0.930 . S
H234 C214 0.929 . S
H235 C216 0.930 . S
H236 C218 0.932 . S
H237 C219 0.929 . S
H238 C220 0.928 . S
H239 C222 0.932 . S
C240 C241 1.264 . S
C240 C245 1.479 . S
C240 C250 1.465 . S
C241 C240 1.264 . S
C241 C243 1.339 . S
C241 H268 0.931 . S
C242 C243 1.395 . S
C242 C244 1.320 . S
C243 C241 1.339 . S
C243 C242 1.395 . S
C243 H269 0.929 . S
C244 C242 1.320 . S
C244 C245 1.405 . S
C244 H270 0.930 . S
C245 C240 1.479 . S
C245 C244 1.405 . S
C245 H271 0.931 . S
U246 O247 2.454 . S
U246 O248 2.458 . S
U246 C249 2.984 . S
U246 C250 2.847 . S
U246 C263 2.882 . S
U246 O264 2.441 . S
U246 O265 2.420 . S
U246 O266 2.455 . S
U246 O267 2.449 . S
O247 U246 2.454 . S
O247 C249 1.353 . S
O248 U246 2.458 . S
O248 C249 1.286 . S
C249 U246 2.984 . S
C249 O247 1.353 . S
C249 O248 1.286 . S
C249 C251 1.363 . S
C250 C240 1.465 . S
C250 U246 2.847 . S
C250 O264 1.249 . S
C250 O265 1.202 . S
C251 C249 1.363 . S
C251 C253 1.408 . S
C251 C256 1.342 . S
C252 C253 1.310 . S
C252 C255 1.461 . S
C252 H272 0.932 . S
C253 C251 1.408 . S
C253 C252 1.310 . S
C253 H273 0.930 . S
C254 C255 1.474 . S
C254 C256 1.285 . S
C254 H274 0.929 . S
C255 C252 1.461 . S
C255 C254 1.474 . S
C256 C251 1.342 . S
C256 C254 1.285 . S
C256 H275 0.930 . S
C257 C260 1.424 . S
C257 C262 1.245 . S
C257 C263 1.428 . S
C258 C261 1.260 . S
C258 C262 1.477 . S
C258 H276 0.932 . S
C259 C260 1.384 . S
C259 C261 1.479 . S
C259 H277 0.929 . S
C260 C257 1.424 . S
C260 C259 1.384 . S
C260 H278 0.928 . S
C261 C258 1.260 . S
C261 C259 1.479 . S
C262 C257 1.245 . S
C262 C258 1.477 . S
C262 H279 0.932 . S
C263 U246 2.882 . S
C263 C257 1.428 . S
C263 O266 1.301 . S
C263 O267 1.282 . S
O264 U246 2.441 . S
O264 C250 1.249 . S
O265 U246 2.420 . S
O265 C250 1.202 . S
O266 U246 2.455 . S
O266 C263 1.301 . S
O267 U246 2.449 . S
O267 C263 1.282 . S
H268 C241 0.931 . S
H269 C243 0.929 . S
H270 C244 0.930 . S
H271 C245 0.931 . S
H272 C252 0.932 . S
H273 C253 0.930 . S
H274 C254 0.929 . S
H275 C256 0.930 . S
H276 C258 0.932 . S
H277 C259 0.929 . S
H278 C260 0.928 . S
H279 C262 0.932 . S
C280 C281 1.264 . S
C280 C285 1.479 . S
C280 C290 1.465 . S
C281 C280 1.264 . S
C281 C283 1.339 . S
C281 H308 0.931 . S
C282 C283 1.395 . S
C282 C284 1.320 . S
C283 C281 1.339 . S
C283 C282 1.395 . S
C283 H309 0.929 . S
C284 C282 1.320 . S
C284 C285 1.405 . S
C284 H310 0.930 . S
C285 C280 1.479 . S
C285 C284 1.405 . S
C285 H311 0.931 . S
U286 O287 2.454 . S
U286 O288 2.458 . S
U286 C289 2.984 . S
U286 C290 2.847 . S
U286 C303 2.882 . S
U286 O304 2.441 . S
U286 O305 2.420 . S
U286 O306 2.455 . S
U286 O307 2.449 . S
O287 U286 2.454 . S
O287 C289 1.353 . S
O288 U286 2.458 . S
O288 C289 1.286 . S
C289 U286 2.984 . S
C289 O287 1.353 . S
C289 O288 1.286 . S
C289 C291 1.363 . S
C290 C280 1.465 . S
C290 U286 2.847 . S
C290 O304 1.249 . S
C290 O305 1.202 . S
C291 C289 1.363 . S
C291 C293 1.408 . S
C291 C296 1.342 . S
C292 C293 1.310 . S
C292 C295 1.461 . S
C292 H312 0.932 . S
C293 C291 1.408 . S
C293 C292 1.310 . S
C293 H313 0.930 . S
C294 C295 1.474 . S
C294 C296 1.285 . S
C294 H314 0.929 . S
C295 C292 1.461 . S
C295 C294 1.474 . S
C296 C291 1.342 . S
C296 C294 1.285 . S
C296 H315 0.930 . S
C297 C300 1.424 . S
C297 C302 1.245 . S
C297 C303 1.428 . S
C298 C301 1.260 . S
C298 C302 1.477 . S
C298 H316 0.932 . S
C299 C300 1.384 . S
C299 C301 1.479 . S
C299 H317 0.929 . S
C300 C297 1.424 . S
C300 C299 1.384 . S
C300 H318 0.928 . S
C301 C298 1.260 . S
C301 C299 1.479 . S
C302 C297 1.245 . S
C302 C298 1.477 . S
C302 H319 0.932 . S
C303 U286 2.882 . S
C303 C297 1.428 . S
C303 O306 1.301 . S
C303 O307 1.282 . S
O304 U286 2.441 . S
O304 C290 1.249 . S
O305 U286 2.420 . S
O305 C290 1.202 . S
O306 U286 2.455 . S
O306 C303 1.301 . S
O307 U286 2.449 . S
O307 C303 1.282 . S
H308 C281 0.931 . S
H309 C283 0.929 . S
H310 C284 0.930 . S
H311 C285 0.931 . S
H312 C292 0.932 . S
H313 C293 0.930 . S
H314 C294 0.929 . S
H315 C296 0.930 . S
H316 C298 0.932 . S
H317 C299 0.929 . S
H318 C300 0.928 . S
H319 C302 0.932 . S
C320 C321 1.264 . S
C320 C325 1.479 . S
C320 C330 1.465 . S
C321 C320 1.264 . S
C321 C323 1.339 . S
C321 H348 0.931 . S
C322 C323 1.395 . S
C322 C324 1.320 . S
C323 C321 1.339 . S
C323 C322 1.395 . S
C323 H349 0.929 . S
C324 C322 1.320 . S
C324 C325 1.405 . S
C324 H350 0.930 . S
C325 C320 1.479 . S
C325 C324 1.405 . S
C325 H351 0.931 . S
U326 O327 2.454 . S
U326 O328 2.458 . S
U326 C329 2.984 . S
U326 C330 2.847 . S
U326 C343 2.882 . S
U326 O344 2.441 . S
U326 O345 2.420 . S
U326 O346 2.455 . S
U326 O347 2.449 . S
O327 U326 2.454 . S
O327 C329 1.353 . S
O328 U326 2.458 . S
O328 C329 1.286 . S
C329 U326 2.984 . S
C329 O327 1.353 . S
C329 O328 1.286 . S
C329 C331 1.363 . S
C330 C320 1.465 . S
C330 U326 2.847 . S
C330 O344 1.249 . S
C330 O345 1.202 . S
C331 C329 1.363 . S
C331 C333 1.408 . S
C331 C336 1.342 . S
C332 C333 1.310 . S
C332 C335 1.461 . S
C332 H352 0.932 . S
C333 C331 1.408 . S
C333 C332 1.310 . S
C333 H353 0.930 . S
C334 C335 1.474 . S
C334 C336 1.285 . S
C334 H354 0.929 . S
C335 C332 1.461 . S
C335 C334 1.474 . S
C336 C331 1.342 . S
C336 C334 1.285 . S
C336 H355 0.930 . S
C337 C340 1.424 . S
C337 C342 1.245 . S
C337 C343 1.428 . S
C338 C341 1.260 . S
C338 C342 1.477 . S
C338 H356 0.932 . S
C339 C340 1.384 . S
C339 C341 1.479 . S
C339 H357 0.929 . S
C340 C337 1.424 . S
C340 C339 1.384 . S
C340 H358 0.928 . S
C341 C338 1.260 . S
C341 C339 1.479 . S
C342 C337 1.245 . S
C342 C338 1.477 . S
C342 H359 0.932 . S
C343 U326 2.882 . S
C343 C337 1.428 . S
C343 O346 1.301 . S
C343 O347 1.282 . S
O344 U326 2.441 . S
O344 C330 1.249 . S
O345 U326 2.420 . S
O345 C330 1.202 . S
O346 U326 2.455 . S
O346 C343 1.301 . S
O347 U326 2.449 . S
O347 C343 1.282 . S
H348 C321 0.931 . S
H349 C323 0.929 . S
H350 C324 0.930 . S
H351 C325 0.931 . S
H352 C332 0.932 . S
H353 C333 0.930 . S
H354 C334 0.929 . S
H355 C336 0.930 . S
H356 C338 0.932 . S
H357 C339 0.929 . S
H358 C340 0.928 . S
H359 C342 0.932 . S
C360 C361 1.264 . S
C360 C365 1.479 . S
C360 C370 1.465 . S
C361 C360 1.264 . S
C361 C363 1.339 . S
C361 H388 0.931 . S
C362 C363 1.395 . S
C362 C364 1.320 . S
C363 C361 1.339 . S
C363 C362 1.395 . S
C363 H389 0.929 . S
C364 C362 1.320 . S
C364 C365 1.405 . S
C364 H390 0.930 . S
C365 C360 1.479 . S
C365 C364 1.405 . S
C365 H391 0.931 . S
U366 O367 2.454 . S
U366 O368 2.458 . S
U366 C369 2.984 . S
U366 C370 2.847 . S
U366 C383 2.882 . S
U366 O384 2.441 . S
U366 O385 2.420 . S
U366 O386 2.455 . S
U366 O387 2.449 . S
O367 U366 2.454 . S
O367 C369 1.353 . S
O368 U366 2.458 . S
O368 C369 1.286 . S
C369 U366 2.984 . S
C369 O367 1.353 . S
C369 O368 1.286 . S
C369 C371 1.363 . S
C370 C360 1.465 . S
C370 U366 2.847 . S
C370 O384 1.249 . S
C370 O385 1.202 . S
C371 C369 1.363 . S
C371 C373 1.408 . S
C371 C376 1.342 . S
C372 C373 1.310 . S
C372 C375 1.461 . S
C372 H392 0.932 . S
C373 C371 1.408 . S
C373 C372 1.310 . S
C373 H393 0.930 . S
C374 C375 1.474 . S
C374 C376 1.285 . S
C374 H394 0.929 . S
C375 C372 1.461 . S
C375 C374 1.474 . S
C376 C371 1.342 . S
C376 C374 1.285 . S
C376 H395 0.930 . S
C377 C380 1.424 . S
C377 C382 1.245 . S
C377 C383 1.428 . S
C378 C381 1.260 . S
C378 C382 1.477 . S
C378 H396 0.932 . S
C379 C380 1.384 . S
C379 C381 1.479 . S
C379 H397 0.929 . S
C380 C377 1.424 . S
C380 C379 1.384 . S
C380 H398 0.928 . S
C381 C378 1.260 . S
C381 C379 1.479 . S
C382 C377 1.245 . S
C382 C378 1.477 . S
C382 H399 0.932 . S
C383 U366 2.882 . S
C383 C377 1.428 . S
C383 O386 1.301 . S
C383 O387 1.282 . S
O384 U366 2.441 . S
O384 C370 1.249 . S
O385 U366 2.420 . S
O385 C370 1.202 . S
O386 U366 2.455 . S
O386 C383 1.301 . S
O387 U366 2.449 . S
O387 C383 1.282 . S
H388 C361 0.931 . S
H389 C363 0.929 . S
H390 C364 0.930 . S
H391 C365 0.931 . S
H392 C372 0.932 . S
H393 C373 0.930 . S
H394 C374 0.929 . S
H395 C376 0.930 . S
H396 C378 0.932 . S
H397 C379 0.929 . S
H398 C380 0.928 . S
H399 C382 0.932 . S
C400 C401 1.264 . S
C400 C405 1.479 . S
C400 C410 1.465 . S
C401 C400 1.264 . S
C401 C403 1.339 . S
C401 H428 0.931 . S
C402 C403 1.395 . S
C402 C404 1.320 . S
C403 C401 1.339 . S
C403 C402 1.395 . S
C403 H429 0.929 . S
C404 C402 1.320 . S
C404 C405 1.405 . S
C404 H430 0.930 . S
C405 C400 1.479 . S
C405 C404 1.405 . S
C405 H431 0.931 . S
U406 O407 2.454 . S
U406 O408 2.458 . S
U406 C409 2.984 . S
U406 C410 2.847 . S
U406 C423 2.882 . S
U406 O424 2.441 . S
U406 O425 2.420 . S
U406 O426 2.455 . S
U406 O427 2.449 . S
O407 U406 2.454 . S
O407 C409 1.353 . S
O408 U406 2.458 . S
O408 C409 1.286 . S
C409 U406 2.984 . S
C409 O407 1.353 . S
C409 O408 1.286 . S
C409 C411 1.363 . S
C410 C400 1.465 . S
C410 U406 2.847 . S
C410 O424 1.249 . S
C410 O425 1.202 . S
C411 C409 1.363 . S
C411 C413 1.408 . S
C411 C416 1.342 . S
C412 C413 1.310 . S
C412 C415 1.461 . S
C412 H432 0.932 . S
C413 C411 1.408 . S
C413 C412 1.310 . S
C413 H433 0.930 . S
C414 C415 1.474 . S
C414 C416 1.285 . S
C414 H434 0.929 . S
C415 C412 1.461 . S
C415 C414 1.474 . S
C416 C411 1.342 . S
C416 C414 1.285 . S
C416 H435 0.930 . S
C417 C420 1.424 . S
C417 C422 1.245 . S
C417 C423 1.428 . S
C418 C421 1.260 . S
C418 C422 1.477 . S
C418 H436 0.932 . S
C419 C420 1.384 . S
C419 C421 1.479 . S
C419 H437 0.929 . S
C420 C417 1.424 . S
C420 C419 1.384 . S
C420 H438 0.928 . S
C421 C418 1.260 . S
C421 C419 1.479 . S
C422 C417 1.245 . S
C422 C418 1.477 . S
C422 H439 0.932 . S
C423 U406 2.882 . S
C423 C417 1.428 . S
C423 O426 1.301 . S
C423 O427 1.282 . S
O424 U406 2.441 . S
O424 C410 1.249 . S
O425 U406 2.420 . S
O425 C410 1.202 . S
O426 U406 2.455 . S
O426 C423 1.301 . S
O427 U406 2.449 . S
O427 C423 1.282 . S
H428 C401 0.931 . S
H429 C403 0.929 . S
H430 C404 0.930 . S
H431 C405 0.931 . S
H432 C412 0.932 . S
H433 C413 0.930 . S
H434 C414 0.929 . S
H435 C416 0.930 . S
H436 C418 0.932 . S
H437 C419 0.929 . S
H438 C420 0.928 . S
H439 C422 0.932 . S
C440 C441 1.264 . S
C440 C445 1.479 . S
C440 C450 1.465 . S
C441 C440 1.264 . S
C441 C443 1.339 . S
C441 H468 0.931 . S
C442 C443 1.395 . S
C442 C444 1.320 . S
C443 C441 1.339 . S
C443 C442 1.395 . S
C443 H469 0.929 . S
C444 C442 1.320 . S
C444 C445 1.405 . S
C444 H470 0.930 . S
C445 C440 1.479 . S
C445 C444 1.405 . S
C445 H471 0.931 . S
U446 O447 2.454 . S
U446 O448 2.458 . S
U446 C449 2.984 . S
U446 C450 2.847 . S
U446 C463 2.882 . S
U446 O464 2.441 . S
U446 O465 2.420 . S
U446 O466 2.455 . S
U446 O467 2.449 . S
O447 U446 2.454 . S
O447 C449 1.353 . S
O448 U446 2.458 . S
O448 C449 1.286 . S
C449 U446 2.984 . S
C449 O447 1.353 . S
C449 O448 1.286 . S
C449 C451 1.363 . S
C450 C440 1.465 . S
C450 U446 2.847 . S
C450 O464 1.249 . S
C450 O465 1.202 . S
C451 C449 1.363 . S
C451 C453 1.408 . S
C451 C456 1.342 . S
C452 C453 1.310 . S
C452 C455 1.461 . S
C452 H472 0.932 . S
C453 C451 1.408 . S
C453 C452 1.310 . S
C453 H473 0.930 . S
C454 C455 1.474 . S
C454 C456 1.285 . S
C454 H474 0.929 . S
C455 C452 1.461 . S
C455 C454 1.474 . S
C456 C451 1.342 . S
C456 C454 1.285 . S
C456 H475 0.930 . S
C457 C460 1.424 . S
C457 C462 1.245 . S
C457 C463 1.428 . S
C458 C461 1.260 . S
C458 C462 1.477 . S
C458 H476 0.932 . S
C459 C460 1.384 . S
C459 C461 1.479 . S
C459 H477 0.929 . S
C460 C457 1.424 . S
C460 C459 1.384 . S
C460 H478 0.928 . S
C461 C458 1.260 . S
C461 C459 1.479 . S
C462 C457 1.245 . S
C462 C458 1.477 . S
C462 H479 0.932 . S
C463 U446 2.882 . S
C463 C457 1.428 . S
C463 O466 1.301 . S
C463 O467 1.282 . S
O464 U446 2.441 . S
O464 C450 1.249 . S
O465 U446 2.420 . S
O465 C450 1.202 . S
O466 U446 2.455 . S
O466 C463 1.301 . S
O467 U446 2.449 . S
O467 C463 1.282 . S
H468 C441 0.931 . S
H469 C443 0.929 . S
H470 C444 0.930 . S
H471 C445 0.931 . S
H472 C452 0.932 . S
H473 C453 0.930 . S
H474 C454 0.929 . S
H475 C456 0.930 . S
H476 C458 0.932 . S
H477 C459 0.929 . S
H478 C460 0.928 . S
H479 C462 0.932 . S
C480 C481 1.264 . S
C480 C485 1.479 . S
C480 C490 1.465 . S
C481 C480 1.264 . S
C481 C483 1.339 . S
C481 H508 0.931 . S
C482 C483 1.395 . S
C482 C484 1.320 . S
C483 C481 1.339 . S
C483 C482 1.395 . S
C483 H509 0.929 . S
C484 C482 1.320 . S
C484 C485 1.405 . S
C484 H510 0.930 . S
C485 C480 1.479 . S
C485 C484 1.405 . S
C485 H511 0.931 . S
U486 O487 2.454 . S
U486 O488 2.458 . S
U486 C489 2.984 . S
U486 C490 2.847 . S
U486 C503 2.882 . S
U486 O504 2.441 . S
U486 O505 2.420 . S
U486 O506 2.455 . S
U486 O507 2.449 . S
O487 U486 2.454 . S
O487 C489 1.353 . S
O488 U486 2.458 . S
O488 C489 1.286 . S
C489 U486 2.984 . S
C489 O487 1.353 . S
C489 O488 1.286 . S
C489 C491 1.363 . S
C490 C480 1.465 . S
C490 U486 2.847 . S
C490 O504 1.249 . S
C490 O505 1.202 . S
C491 C489 1.363 . S
C491 C493 1.408 . S
C491 C496 1.342 . S
C492 C493 1.310 . S
C492 C495 1.461 . S
C492 H512 0.932 . S
C493 C491 1.408 . S
C493 C492 1.310 . S
C493 H513 0.930 . S
C494 C495 1.474 . S
C494 C496 1.285 . S
C494 H514 0.929 . S
C495 C492 1.461 . S
C495 C494 1.474 . S
C496 C491 1.342 . S
C496 C494 1.285 . S
C496 H515 0.930 . S
C497 C500 1.424 . S
C497 C502 1.245 . S
C497 C503 1.428 . S
C498 C501 1.260 . S
C498 C502 1.477 . S
C498 H516 0.932 . S
C499 C500 1.384 . S
C499 C501 1.479 . S
C499 H517 0.929 . S
C500 C497 1.424 . S
C500 C499 1.384 . S
C500 H518 0.928 . S
C501 C498 1.260 . S
C501 C499 1.479 . S
C502 C497 1.245 . S
C502 C498 1.477 . S
C502 H519 0.932 . S
C503 U486 2.882 . S
C503 C497 1.428 . S
C503 O506 1.301 . S
C503 O507 1.282 . S
O504 U486 2.441 . S
O504 C490 1.249 . S
O505 U486 2.420 . S
O505 C490 1.202 . S
O506 U486 2.455 . S
O506 C503 1.301 . S
O507 U486 2.449 . S
O507 C503 1.282 . S
H508 C481 0.931 . S
H509 C483 0.929 . S
H510 C484 0.930 . S
H511 C485 0.931 . S
H512 C492 0.932 . S
H513 C493 0.930 . S
H514 C494 0.929 . S
H515 C496 0.930 . S
H516 C498 0.932 . S
H517 C499 0.929 . S
H518 C500 0.928 . S
H519 C502 0.932 . S
C520 C521 1.264 . S
C520 C525 1.479 . S
C520 C530 1.465 . S
C521 C520 1.264 . S
C521 C523 1.339 . S
C521 H548 0.931 . S
C522 C523 1.395 . S
C522 C524 1.320 . S
C523 C521 1.339 . S
C523 C522 1.395 . S
C523 H549 0.929 . S
C524 C522 1.320 . S
C524 C525 1.405 . S
C524 H550 0.930 . S
C525 C520 1.479 . S
C525 C524 1.405 . S
C525 H551 0.931 . S
U526 O527 2.454 . S
U526 O528 2.458 . S
U526 C529 2.984 . S
U526 C530 2.847 . S
U526 C543 2.882 . S
U526 O544 2.441 . S
U526 O545 2.420 . S
U526 O546 2.455 . S
U526 O547 2.449 . S
O527 U526 2.454 . S
O527 C529 1.353 . S
O528 U526 2.458 . S
O528 C529 1.286 . S
C529 U526 2.984 . S
C529 O527 1.353 . S
C529 O528 1.286 . S
C529 C531 1.363 . S
C530 C520 1.465 . S
C530 U526 2.847 . S
C530 O544 1.249 . S
C530 O545 1.202 . S
C531 C529 1.363 . S
C531 C533 1.408 . S
C531 C536 1.342 . S
C532 C533 1.310 . S
C532 C535 1.461 . S
C532 H552 0.932 . S
C533 C531 1.408 . S
C533 C532 1.310 . S
C533 H553 0.930 . S
C534 C535 1.474 . S
C534 C536 1.285 . S
C534 H554 0.929 . S
C535 C532 1.461 . S
C535 C534 1.474 . S
C536 C531 1.342 . S
C536 C534 1.285 . S
C536 H555 0.930 . S
C537 C540 1.424 . S
C537 C542 1.245 . S
C537 C543 1.428 . S
C538 C541 1.260 . S
C538 C542 1.477 . S
C538 H556 0.932 . S
C539 C540 1.384 . S
C539 C541 1.479 . S
C539 H557 0.929 . S
C540 C537 1.424 . S
C540 C539 1.384 . S
C540 H558 0.928 . S
C541 C538 1.260 . S
C541 C539 1.479 . S
C542 C537 1.245 . S
C542 C538 1.477 . S
C542 H559 0.932 . S
C543 U526 2.882 . S
C543 C537 1.428 . S
C543 O546 1.301 . S
C543 O547 1.282 . S
O544 U526 2.441 . S
O544 C530 1.249 . S
O545 U526 2.420 . S
O545 C530 1.202 . S
O546 U526 2.455 . S
O546 C543 1.301 . S
O547 U526 2.449 . S
O547 C543 1.282 . S
H548 C521 0.931 . S
H549 C523 0.929 . S
H550 C524 0.930 . S
H551 C525 0.931 . S
H552 C532 0.932 . S
H553 C533 0.930 . S
H554 C534 0.929 . S
H555 C536 0.930 . S
H556 C538 0.932 . S
H557 C539 0.929 . S
H558 C540 0.928 . S
H559 C542 0.932 . S
C560 C561 1.264 . S
C560 C565 1.479 . S
C560 C570 1.465 . S
C561 C560 1.264 . S
C561 C563 1.339 . S
C561 H588 0.931 . S
C562 C563 1.395 . S
C562 C564 1.320 . S
C563 C561 1.339 . S
C563 C562 1.395 . S
C563 H589 0.929 . S
C564 C562 1.320 . S
C564 C565 1.405 . S
C564 H590 0.930 . S
C565 C560 1.479 . S
C565 C564 1.405 . S
C565 H591 0.931 . S
U566 O567 2.454 . S
U566 O568 2.458 . S
U566 C569 2.984 . S
U566 C570 2.847 . S
U566 C583 2.882 . S
U566 O584 2.441 . S
U566 O585 2.420 . S
U566 O586 2.455 . S
U566 O587 2.449 . S
O567 U566 2.454 . S
O567 C569 1.353 . S
O568 U566 2.458 . S
O568 C569 1.286 . S
C569 U566 2.984 . S
C569 O567 1.353 . S
C569 O568 1.286 . S
C569 C571 1.363 . S
C570 C560 1.465 . S
C570 U566 2.847 . S
C570 O584 1.249 . S
C570 O585 1.202 . S
C571 C569 1.363 . S
C571 C573 1.408 . S
C571 C576 1.342 . S
C572 C573 1.310 . S
C572 C575 1.461 . S
C572 H592 0.932 . S
C573 C571 1.408 . S
C573 C572 1.310 . S
C573 H593 0.930 . S
C574 C575 1.474 . S
C574 C576 1.285 . S
C574 H594 0.929 . S
C575 C572 1.461 . S
C575 C574 1.474 . S
C576 C571 1.342 . S
C576 C574 1.285 . S
C576 H595 0.930 . S
C577 C580 1.424 . S
C577 C582 1.245 . S
C577 C583 1.428 . S
C578 C581 1.260 . S
C578 C582 1.477 . S
C578 H596 0.932 . S
C579 C580 1.384 . S
C579 C581 1.479 . S
C579 H597 0.929 . S
C580 C577 1.424 . S
C580 C579 1.384 . S
C580 H598 0.928 . S
C581 C578 1.260 . S
C581 C579 1.479 . S
C582 C577 1.245 . S
C582 C578 1.477 . S
C582 H599 0.932 . S
C583 U566 2.882 . S
C583 C577 1.428 . S
C583 O586 1.301 . S
C583 O587 1.282 . S
O584 U566 2.441 . S
O584 C570 1.249 . S
O585 U566 2.420 . S
O585 C570 1.202 . S
O586 U566 2.455 . S
O586 C583 1.301 . S
O587 U566 2.449 . S
O587 C583 1.282 . S
H588 C561 0.931 . S
H589 C563 0.929 . S
H590 C564 0.930 . S
H591 C565 0.931 . S
H592 C572 0.932 . S
H593 C573 0.930 . S
H594 C574 0.929 . S
H595 C576 0.930 . S
H596 C578 0.932 . S
H597 C579 0.929 . S
H598 C580 0.928 . S
H599 C582 0.932 . S
C600 C601 1.264 . S
C600 C605 1.479 . S
C600 C610 1.465 . S
C601 C600 1.264 . S
C601 C603 1.339 . S
C601 H628 0.931 . S
C602 C603 1.395 . S
C602 C604 1.320 . S
C603 C601 1.339 . S
C603 C602 1.395 . S
C603 H629 0.929 . S
C604 C602 1.320 . S
C604 C605 1.405 . S
C604 H630 0.930 . S
C605 C600 1.479 . S
C605 C604 1.405 . S
C605 H631 0.931 . S
U606 O607 2.454 . S
U606 O608 2.458 . S
U606 C609 2.984 . S
U606 C610 2.847 . S
U606 C623 2.882 . S
U606 O624 2.441 . S
U606 O625 2.420 . S
U606 O626 2.455 . S
U606 O627 2.449 . S
O607 U606 2.454 . S
O607 C609 1.353 . S
O608 U606 2.458 . S
O608 C609 1.286 . S
C609 U606 2.984 . S
C609 O607 1.353 . S
C609 O608 1.286 . S
C609 C611 1.363 . S
C610 C600 1.465 . S
C610 U606 2.847 . S
C610 O624 1.249 . S
C610 O625 1.202 . S
C611 C609 1.363 . S
C611 C613 1.408 . S
C611 C616 1.342 . S
C612 C613 1.310 . S
C612 C615 1.461 . S
C612 H632 0.932 . S
C613 C611 1.408 . S
C613 C612 1.310 . S
C613 H633 0.930 . S
C614 C615 1.474 . S
C614 C616 1.285 . S
C614 H634 0.929 . S
C615 C612 1.461 . S
C615 C614 1.474 . S
C616 C611 1.342 . S
C616 C614 1.285 . S
C616 H635 0.930 . S
C617 C620 1.424 . S
C617 C622 1.245 . S
C617 C623 1.428 . S
C618 C621 1.260 . S
C618 C622 1.477 . S
C618 H636 0.932 . S
C619 C620 1.384 . S
C619 C621 1.479 . S
C619 H637 0.929 . S
C620 C617 1.424 . S
C620 C619 1.384 . S
C620 H638 0.928 . S
C621 C618 1.260 . S
C621 C619 1.479 . S
C622 C617 1.245 . S
C622 C618 1.477 . S
C622 H639 0.932 . S
C623 U606 2.882 . S
C623 C617 1.428 . S
C623 O626 1.301 . S
C623 O627 1.282 . S
O624 U606 2.441 . S
O624 C610 1.249 . S
O625 U606 2.420 . S
O625 C610 1.202 . S
O626 U606 2.455 . S
O626 C623 1.301 . S
O627 U606 2.449 . S
O627 C623 1.282 . S
H628 C601 0.931 . S
H629 C603 0.929 . S
H630 C604 0.930 . S
H631 C605 0.931 . S
H632 C612 0.932 . S
H633 C613 0.930 . S
H634 C614 0.929 . S
H635 C616 0.930 . S
H636 C618 0.932 . S
H637 C619 0.929 . S
H638 C620 0.928 . S
H639 C622 0.932 . S
C640 C641 1.264 . S
C640 C645 1.479 . S
C640 C650 1.465 . S
C641 C640 1.264 . S
C641 C643 1.339 . S
C641 H668 0.931 . S
C642 C643 1.395 . S
C642 C644 1.320 . S
C643 C641 1.339 . S
C643 C642 1.395 . S
C643 H669 0.929 . S
C644 C642 1.320 . S
C644 C645 1.405 . S
C644 H670 0.930 . S
C645 C640 1.479 . S
C645 C644 1.405 . S
C645 H671 0.931 . S
U646 O647 2.454 . S
U646 O648 2.458 . S
U646 C649 2.984 . S
U646 C650 2.847 . S
U646 C663 2.882 . S
U646 O664 2.441 . S
U646 O665 2.420 . S
U646 O666 2.455 . S
U646 O667 2.449 . S
O647 U646 2.454 . S
O647 C649 1.353 . S
O648 U646 2.458 . S
O648 C649 1.286 . S
C649 U646 2.984 . S
C649 O647 1.353 . S
C649 O648 1.286 . S
C649 C651 1.363 . S
C650 C640 1.465 . S
C650 U646 2.847 . S
C650 O664 1.249 . S
C650 O665 1.202 . S
C651 C649 1.363 . S
C651 C653 1.408 . S
C651 C656 1.342 . S
C652 C653 1.310 . S
C652 C655 1.461 . S
C652 H672 0.932 . S
C653 C651 1.408 . S
C653 C652 1.310 . S
C653 H673 0.930 . S
C654 C655 1.474 . S
C654 C656 1.285 . S
C654 H674 0.929 . S
C655 C652 1.461 . S
C655 C654 1.474 . S
C656 C651 1.342 . S
C656 C654 1.285 . S
C656 H675 0.930 . S
C657 C660 1.424 . S
C657 C662 1.245 . S
C657 C663 1.428 . S
C658 C661 1.260 . S
C658 C662 1.477 . S
C658 H676 0.932 . S
C659 C660 1.384 . S
C659 C661 1.479 . S
C659 H677 0.929 . S
C660 C657 1.424 . S
C660 C659 1.384 . S
C660 H678 0.928 . S
C661 C658 1.260 . S
C661 C659 1.479 . S
C662 C657 1.245 . S
C662 C658 1.477 . S
C662 H679 0.932 . S
C663 U646 2.882 . S
C663 C657 1.428 . S
C663 O666 1.301 . S
C663 O667 1.282 . S
O664 U646 2.441 . S
O664 C650 1.249 . S
O665 U646 2.420 . S
O665 C650 1.202 . S
O666 U646 2.455 . S
O666 C663 1.301 . S
O667 U646 2.449 . S
O667 C663 1.282 . S
H668 C641 0.931 . S
H669 C643 0.929 . S
H670 C644 0.930 . S
H671 C645 0.931 . S
H672 C652 0.932 . S
H673 C653 0.930 . S
H674 C654 0.929 . S
H675 C656 0.930 . S
H676 C658 0.932 . S
H677 C659 0.929 . S
H678 C660 0.928 . S
H679 C662 0.932 . S
C680 C681 1.264 . S
C680 C685 1.479 . S
C680 C690 1.465 . S
C681 C680 1.264 . S
C681 C683 1.339 . S
C681 H708 0.931 . S
C682 C683 1.395 . S
C682 C684 1.320 . S
C683 C681 1.339 . S
C683 C682 1.395 . S
C683 H709 0.929 . S
C684 C682 1.320 . S
C684 C685 1.405 . S
C684 H710 0.930 . S
C685 C680 1.479 . S
C685 C684 1.405 . S
C685 H711 0.931 . S
U686 O687 2.454 . S
U686 O688 2.458 . S
U686 C689 2.984 . S
U686 C690 2.847 . S
U686 C703 2.882 . S
U686 O704 2.441 . S
U686 O705 2.420 . S
U686 O706 2.455 . S
U686 O707 2.449 . S
O687 U686 2.454 . S
O687 C689 1.353 . S
O688 U686 2.458 . S
O688 C689 1.286 . S
C689 U686 2.984 . S
C689 O687 1.353 . S
C689 O688 1.286 . S
C689 C691 1.363 . S
C690 C680 1.465 . S
C690 U686 2.847 . S
C690 O704 1.249 . S
C690 O705 1.202 . S
C691 C689 1.363 . S
C691 C693 1.408 . S
C691 C696 1.342 . S
C692 C693 1.310 . S
C692 C695 1.461 . S
C692 H712 0.932 . S
C693 C691 1.408 . S
C693 C692 1.310 . S
C693 H713 0.930 . S
C694 C695 1.474 . S
C694 C696 1.285 . S
C694 H714 0.929 . S
C695 C692 1.461 . S
C695 C694 1.474 . S
C696 C691 1.342 . S
C696 C694 1.285 . S
C696 H715 0.930 . S
C697 C700 1.424 . S
C697 C702 1.245 . S
C697 C703 1.428 . S
C698 C701 1.260 . S
C698 C702 1.477 . S
C698 H716 0.932 . S
C699 C700 1.384 . S
C699 C701 1.479 . S
C699 H717 0.929 . S
C700 C697 1.424 . S
C700 C699 1.384 . S
C700 H718 0.928 . S
C701 C698 1.260 . S
C701 C699 1.479 . S
C702 C697 1.245 . S
C702 C698 1.477 . S
C702 H719 0.932 . S
C703 U686 2.882 . S
C703 C697 1.428 . S
C703 O706 1.301 . S
C703 O707 1.282 . S
O704 U686 2.441 . S
O704 C690 1.249 . S
O705 U686 2.420 . S
O705 C690 1.202 . S
O706 U686 2.455 . S
O706 C703 1.301 . S
O707 U686 2.449 . S
O707 C703 1.282 . S
H708 C681 0.931 . S
H709 C683 0.929 . S
H710 C684 0.930 . S
H711 C685 0.931 . S
H712 C692 0.932 . S
H713 C693 0.930 . S
H714 C694 0.929 . S
H715 C696 0.930 . S
H716 C698 0.932 . S
H717 C699 0.929 . S
H718 C700 0.928 . S
H719 C702 0.932 . S
C720 C721 1.264 . S
C720 C725 1.479 . S
C720 C730 1.465 . S
C721 C720 1.264 . S
C721 C723 1.339 . S
C721 H748 0.931 . S
C722 C723 1.395 . S
C722 C724 1.320 . S
C723 C721 1.339 . S
C723 C722 1.395 . S
C723 H749 0.929 . S
C724 C722 1.320 . S
C724 C725 1.405 . S
C724 H750 0.930 . S
C725 C720 1.479 . S
C725 C724 1.405 . S
C725 H751 0.931 . S
U726 O727 2.454 . S
U726 O728 2.458 . S
U726 C729 2.984 . S
U726 C730 2.847 . S
U726 C743 2.882 . S
U726 O744 2.441 . S
U726 O745 2.420 . S
U726 O746 2.455 . S
U726 O747 2.449 . S
O727 U726 2.454 . S
O727 C729 1.353 . S
O728 U726 2.458 . S
O728 C729 1.286 . S
C729 U726 2.984 . S
C729 O727 1.353 . S
C729 O728 1.286 . S
C729 C731 1.363 . S
C730 C720 1.465 . S
C730 U726 2.847 . S
C730 O744 1.249 . S
C730 O745 1.202 . S
C731 C729 1.363 . S
C731 C733 1.408 . S
C731 C736 1.342 . S
C732 C733 1.310 . S
C732 C735 1.461 . S
C732 H752 0.932 . S
C733 C731 1.408 . S
C733 C732 1.310 . S
C733 H753 0.930 . S
C734 C735 1.474 . S
C734 C736 1.285 . S
C734 H754 0.929 . S
C735 C732 1.461 . S
C735 C734 1.474 . S
C736 C731 1.342 . S
C736 C734 1.285 . S
C736 H755 0.930 . S
C737 C740 1.424 . S
C737 C742 1.245 . S
C737 C743 1.428 . S
C738 C741 1.260 . S
C738 C742 1.477 . S
C738 H756 0.932 . S
C739 C740 1.384 . S
C739 C741 1.479 . S
C739 H757 0.929 . S
C740 C737 1.424 . S
C740 C739 1.384 . S
C740 H758 0.928 . S
C741 C738 1.260 . S
C741 C739 1.479 . S
C742 C737 1.245 . S
C742 C738 1.477 . S
C742 H759 0.932 . S
C743 U726 2.882 . S
C743 C737 1.428 . S
C743 O746 1.301 . S
C743 O747 1.282 . S
O744 U726 2.441 . S
O744 C730 1.249 . S
O745 U726 2.420 . S
O745 C730 1.202 . S
O746 U726 2.455 . S
O746 C743 1.301 . S
O747 U726 2.449 . S
O747 C743 1.282 . S
H748 C721 0.931 . S
H749 C723 0.929 . S
H750 C724 0.930 . S
H751 C725 0.931 . S
H752 C732 0.932 . S
H753 C733 0.930 . S
H754 C734 0.929 . S
H755 C736 0.930 . S
H756 C738 0.932 . S
H757 C739 0.929 . S
H758 C740 0.928 . S
H759 C742 0.932 . S
C760 C761 1.264 . S
C760 C765 1.479 . S
C760 C770 1.465 . S
C761 C760 1.264 . S
C761 C763 1.339 . S
C761 H788 0.931 . S
C762 C763 1.395 . S
C762 C764 1.320 . S
C763 C761 1.339 . S
C763 C762 1.395 . S
C763 H789 0.929 . S
C764 C762 1.320 . S
C764 C765 1.405 . S
C764 H790 0.930 . S
C765 C760 1.479 . S
C765 C764 1.405 . S
C765 H791 0.931 . S
U766 O767 2.454 . S
U766 O768 2.458 . S
U766 C769 2.984 . S
U766 C770 2.847 . S
U766 C783 2.882 . S
U766 O784 2.441 . S
U766 O785 2.420 . S
U766 O786 2.455 . S
U766 O787 2.449 . S
O767 U766 2.454 . S
O767 C769 1.353 . S
O768 U766 2.458 . S
O768 C769 1.286 . S
C769 U766 2.984 . S
C769 O767 1.353 . S
C769 O768 1.286 . S
C769 C771 1.363 . S
C770 C760 1.465 . S
C770 U766 2.847 . S
C770 O784 1.249 . S
C770 O785 1.202 . S
C771 C769 1.363 . S
C771 C773 1.408 . S
C771 C776 1.342 . S
C772 C773 1.310 . S
C772 C775 1.461 . S
C772 H792 0.932 . S
C773 C771 1.408 . S
C773 C772 1.310 . S
C773 H793 0.930 . S
C774 C775 1.474 . S
C774 C776 1.285 . S
C774 H794 0.929 . S
C775 C772 1.461 . S
C775 C774 1.474 . S
C776 C771 1.342 . S
C776 C774 1.285 . S
C776 H795 0.930 . S
C777 C780 1.424 . S
C777 C782 1.245 . S
C777 C783 1.428 . S
C778 C781 1.260 . S
C778 C782 1.477 . S
C778 H796 0.932 . S
C779 C780 1.384 . S
C779 C781 1.479 . S
C779 H797 0.929 . S
C780 C777 1.424 . S
C780 C779 1.384 . S
C780 H798 0.928 . S
C781 C778 1.260 . S
C781 C779 1.479 . S
C782 C777 1.245 . S
C782 C778 1.477 . S
C782 H799 0.932 . S
C783 U766 2.882 . S
C783 C777 1.428 . S
C783 O786 1.301 . S
C783 O787 1.282 . S
O784 U766 2.441 . S
O784 C770 1.249 . S
O785 U766 2.420 . S
O785 C770 1.202 . S
O786 U766 2.455 . S
O786 C783 1.301 . S
O787 U766 2.449 . S
O787 C783 1.282 . S
H788 C761 0.931 . S
H789 C763 0.929 . S
H790 C764 0.930 . S
H791 C765 0.931 . S
H792 C772 0.932 . S
H793 C773 0.930 . S
H794 C774 0.929 . S
H795 C776 0.930 . S
H796 C778 0.932 . S
H797 C779 0.929 . S
H798 C780 0.928 . S
H799 C782 0.932 . S
C800 C801 1.264 . S
C800 C805 1.479 . S
C800 C810 1.465 . S
C801 C800 1.264 . S
C801 C803 1.339 . S
C801 H828 0.931 . S
C802 C803 1.395 . S
C802 C804 1.320 . S
C803 C801 1.339 . S
C803 C802 1.395 . S
C803 H829 0.929 . S
C804 C802 1.320 . S
C804 C805 1.405 . S
C804 H830 0.930 . S
C805 C800 1.479 . S
C805 C804 1.405 . S
C805 H831 0.931 . S
U806 O807 2.454 . S
U806 O808 2.458 . S
U806 C809 2.984 . S
U806 C810 2.847 . S
U806 C823 2.882 . S
U806 O824 2.441 . S
U806 O825 2.420 . S
U806 O826 2.455 . S
U806 O827 2.449 . S
O807 U806 2.454 . S
O807 C809 1.353 . S
O808 U806 2.458 . S
O808 C809 1.286 . S
C809 U806 2.984 . S
C809 O807 1.353 . S
C809 O808 1.286 . S
C809 C811 1.363 . S
C810 C800 1.465 . S
C810 U806 2.847 . S
C810 O824 1.249 . S
C810 O825 1.202 . S
C811 C809 1.363 . S
C811 C813 1.408 . S
C811 C816 1.342 . S
C812 C813 1.310 . S
C812 C815 1.461 . S
C812 H832 0.932 . S
C813 C811 1.408 . S
C813 C812 1.310 . S
C813 H833 0.930 . S
C814 C815 1.474 . S
C814 C816 1.285 . S
C814 H834 0.929 . S
C815 C812 1.461 . S
C815 C814 1.474 . S
C816 C811 1.342 . S
C816 C814 1.285 . S
C816 H835 0.930 . S
C817 C820 1.424 . S
C817 C822 1.245 . S
C817 C823 1.428 . S
C818 C821 1.260 . S
C818 C822 1.477 . S
C818 H836 0.932 . S
C819 C820 1.384 . S
C819 C821 1.479 . S
C819 H837 0.929 . S
C820 C817 1.424 . S
C820 C819 1.384 . S
C820 H838 0.928 . S
C821 C818 1.260 . S
C821 C819 1.479 . S
C822 C817 1.245 . S
C822 C818 1.477 . S
C822 H839 0.932 . S
C823 U806 2.882 . S
C823 C817 1.428 . S
C823 O826 1.301 . S
C823 O827 1.282 . S
O824 U806 2.441 . S
O824 C810 1.249 . S
O825 U806 2.420 . S
O825 C810 1.202 . S
O826 U806 2.455 . S
O826 C823 1.301 . S
O827 U806 2.449 . S
O827 C823 1.282 . S
H828 C801 0.931 . S
H829 C803 0.929 . S
H830 C804 0.930 . S
H831 C805 0.931 . S
H832 C812 0.932 . S
H833 C813 0.930 . S
H834 C814 0.929 . S
H835 C816 0.930 . S
H836 C818 0.932 . S
H837 C819 0.929 . S
H838 C820 0.928 . S
H839 C822 0.932 . S
C840 C841 1.264 . S
C840 C845 1.479 . S
C840 C850 1.465 . S
C841 C840 1.264 . S
C841 C843 1.339 . S
C841 H868 0.931 . S
C842 C843 1.395 . S
C842 C844 1.320 . S
C843 C841 1.339 . S
C843 C842 1.395 . S
C843 H869 0.929 . S
C844 C842 1.320 . S
C844 C845 1.405 . S
C844 H870 0.930 . S
C845 C840 1.479 . S
C845 C844 1.405 . S
C845 H871 0.931 . S
U846 O847 2.454 . S
U846 O848 2.458 . S
U846 C849 2.984 . S
U846 C850 2.847 . S
U846 C863 2.882 . S
U846 O864 2.441 . S
U846 O865 2.420 . S
U846 O866 2.455 . S
U846 O867 2.449 . S
O847 U846 2.454 . S
O847 C849 1.353 . S
O848 U846 2.458 . S
O848 C849 1.286 . S
C849 U846 2.984 . S
C849 O847 1.353 . S
C849 O848 1.286 . S
C849 C851 1.363 . S
C850 C840 1.465 . S
C850 U846 2.847 . S
C850 O864 1.249 . S
C850 O865 1.202 . S
C851 C849 1.363 . S
C851 C853 1.408 . S
C851 C856 1.342 . S
C852 C853 1.310 . S
C852 C855 1.461 . S
C852 H872 0.932 . S
C853 C851 1.408 . S
C853 C852 1.310 . S
C853 H873 0.930 . S
C854 C855 1.474 . S
C854 C856 1.285 . S
C854 H874 0.929 . S
C855 C852 1.461 . S
C855 C854 1.474 . S
C856 C851 1.342 . S
C856 C854 1.285 . S
C856 H875 0.930 . S
C857 C860 1.424 . S
C857 C862 1.245 . S
C857 C863 1.428 . S
C858 C861 1.260 . S
C858 C862 1.477 . S
C858 H876 0.932 . S
C859 C860 1.384 . S
C859 C861 1.479 . S
C859 H877 0.929 . S
C860 C857 1.424 . S
C860 C859 1.384 . S
C860 H878 0.928 . S
C861 C858 1.260 . S
C861 C859 1.479 . S
C862 C857 1.245 . S
C862 C858 1.477 . S
C862 H879 0.932 . S
C863 U846 2.882 . S
C863 C857 1.428 . S
C863 O866 1.301 . S
C863 O867 1.282 . S
O864 U846 2.441 . S
O864 C850 1.249 . S
O865 U846 2.420 . S
O865 C850 1.202 . S
O866 U846 2.455 . S
O866 C863 1.301 . S
O867 U846 2.449 . S
O867 C863 1.282 . S
H868 C841 0.931 . S
H869 C843 0.929 . S
H870 C844 0.930 . S
H871 C845 0.931 . S
H872 C852 0.932 . S
H873 C853 0.930 . S
H874 C854 0.929 . S
H875 C856 0.930 . S
H876 C858 0.932 . S
H877 C859 0.929 . S
H878 C860 0.928 . S
H879 C862 0.932 . S
C880 C881 1.264 . S
C880 C885 1.479 . S
C880 C890 1.465 . S
C881 C880 1.264 . S
C881 C883 1.339 . S
C881 H908 0.931 . S
C882 C883 1.395 . S
C882 C884 1.320 . S
C883 C881 1.339 . S
C883 C882 1.395 . S
C883 H909 0.929 . S
C884 C882 1.320 . S
C884 C885 1.405 . S
C884 H910 0.930 . S
C885 C880 1.479 . S
C885 C884 1.405 . S
C885 H911 0.931 . S
U886 O887 2.454 . S
U886 O888 2.458 . S
U886 C889 2.984 . S
U886 C890 2.847 . S
U886 C903 2.882 . S
U886 O904 2.441 . S
U886 O905 2.420 . S
U886 O906 2.455 . S
U886 O907 2.449 . S
O887 U886 2.454 . S
O887 C889 1.353 . S
O888 U886 2.458 . S
O888 C889 1.286 . S
C889 U886 2.984 . S
C889 O887 1.353 . S
C889 O888 1.286 . S
C889 C891 1.363 . S
C890 C880 1.465 . S
C890 U886 2.847 . S
C890 O904 1.249 . S
C890 O905 1.202 . S
C891 C889 1.363 . S
C891 C893 1.408 . S
C891 C896 1.342 . S
C892 C893 1.310 . S
C892 C895 1.461 . S
C892 H912 0.932 . S
C893 C891 1.408 . S
C893 C892 1.310 . S
C893 H913 0.930 . S
C894 C895 1.474 . S
C894 C896 1.285 . S
C894 H914 0.929 . S
C895 C892 1.461 . S
C895 C894 1.474 . S
C896 C891 1.342 . S
C896 C894 1.285 . S
C896 H915 0.930 . S
C897 C900 1.424 . S
C897 C902 1.245 . S
C897 C903 1.428 . S
C898 C901 1.260 . S
C898 C902 1.477 . S
C898 H916 0.932 . S
C899 C900 1.384 . S
C899 C901 1.479 . S
C899 H917 0.929 . S
C900 C897 1.424 . S
C900 C899 1.384 . S
C900 H918 0.928 . S
C901 C898 1.260 . S
C901 C899 1.479 . S
C902 C897 1.245 . S
C902 C898 1.477 . S
C902 H919 0.932 . S
C903 U886 2.882 . S
C903 C897 1.428 . S
C903 O906 1.301 . S
C903 O907 1.282 . S
O904 U886 2.441 . S
O904 C890 1.249 . S
O905 U886 2.420 . S
O905 C890 1.202 . S
O906 U886 2.455 . S
O906 C903 1.301 . S
O907 U886 2.449 . S
O907 C903 1.282 . S
H908 C881 0.931 . S
H909 C883 0.929 . S
H910 C884 0.930 . S
H911 C885 0.931 . S
H912 C892 0.932 . S
H913 C893 0.930 . S
H914 C894 0.929 . S
H915 C896 0.930 . S
H916 C898 0.932 . S
H917 C899 0.929 . S
H918 C900 0.928 . S
H919 C902 0.932 . S
C920 C921 1.264 . S
C920 C925 1.479 . S
C920 C930 1.465 . S
C921 C920 1.264 . S
C921 C923 1.339 . S
C921 H948 0.931 . S
C922 C923 1.395 . S
C922 C924 1.320 . S
C923 C921 1.339 . S
C923 C922 1.395 . S
C923 H949 0.929 . S
C924 C922 1.320 . S
C924 C925 1.405 . S
C924 H950 0.930 . S
C925 C920 1.479 . S
C925 C924 1.405 . S
C925 H951 0.931 . S
U926 O927 2.454 . S
U926 O928 2.458 . S
U926 C929 2.984 . S
U926 C930 2.847 . S
U926 C943 2.882 . S
U926 O944 2.441 . S
U926 O945 2.420 . S
U926 O946 2.455 . S
U926 O947 2.449 . S
O927 U926 2.454 . S
O927 C929 1.353 . S
O928 U926 2.458 . S
O928 C929 1.286 . S
C929 U926 2.984 . S
C929 O927 1.353 . S
C929 O928 1.286 . S
C929 C931 1.363 . S
C930 C920 1.465 . S
C930 U926 2.847 . S
C930 O944 1.249 . S
C930 O945 1.202 . S
C931 C929 1.363 . S
C931 C933 1.408 . S
C931 C936 1.342 . S
C932 C933 1.310 . S
C932 C935 1.461 . S
C932 H952 0.932 . S
C933 C931 1.408 . S
C933 C932 1.310 . S
C933 H953 0.930 . S
C934 C935 1.474 . S
C934 C936 1.285 . S
C934 H954 0.929 . S
C935 C932 1.461 . S
C935 C934 1.474 . S
C936 C931 1.342 . S
C936 C934 1.285 . S
C936 H955 0.930 . S
C937 C940 1.424 . S
C937 C942 1.245 . S
C937 C943 1.428 . S
C938 C941 1.260 . S
C938 C942 1.477 . S
C938 H956 0.932 . S
C939 C940 1.384 . S
C939 C941 1.479 . S
C939 H957 0.929 . S
C940 C937 1.424 . S
C940 C939 1.384 . S
C940 H958 0.928 . S
C941 C938 1.260 . S
C941 C939 1.479 . S
C942 C937 1.245 . S
C942 C938 1.477 . S
C942 H959 0.932 . S
C943 U926 2.882 . S
C943 C937 1.428 . S
C943 O946 1.301 . S
C943 O947 1.282 . S
O944 U926 2.441 . S
O944 C930 1.249 . S
O945 U926 2.420 . S
O945 C930 1.202 . S
O946 U926 2.455 . S
O946 C943 1.301 . S
O947 U926 2.449 . S
O947 C943 1.282 . S
H948 C921 0.931 . S
H949 C923 0.929 . S
H950 C924 0.930 . S
H951 C925 0.931 . S
H952 C932 0.932 . S
H953 C933 0.930 . S
H954 C934 0.929 . S
H955 C936 0.930 . S
H956 C938 0.932 . S
H957 C939 0.929 . S
H958 C940 0.928 . S
H959 C942 0.932 . S
C960 C961 1.264 . S
C960 C965 1.479 . S
C960 C970 1.465 . S
C961 C960 1.264 . S
C961 C963 1.339 . S
C961 H988 0.931 . S
C962 C963 1.395 . S
C962 C964 1.320 . S
C963 C961 1.339 . S
C963 C962 1.395 . S
C963 H989 0.929 . S
C964 C962 1.320 . S
C964 C965 1.405 . S
C964 H990 0.930 . S
C965 C960 1.479 . S
C965 C964 1.405 . S
C965 H991 0.931 . S
U966 O967 2.454 . S
U966 O968 2.458 . S
U966 C969 2.984 . S
U966 C970 2.847 . S
U966 C983 2.882 . S
U966 O984 2.441 . S
U966 O985 2.420 . S
U966 O986 2.455 . S
U966 O987 2.449 . S
O967 U966 2.454 . S
O967 C969 1.353 . S
O968 U966 2.458 . S
O968 C969 1.286 . S
C969 U966 2.984 . S
C969 O967 1.353 . S
C969 O968 1.286 . S
C969 C971 1.363 . S
C970 C960 1.465 . S
C970 U966 2.847 . S
C970 O984 1.249 . S
C970 O985 1.202 . S
C971 C969 1.363 . S
C971 C973 1.408 . S
C971 C976 1.342 . S
C972 C973 1.310 . S
C972 C975 1.461 . S
C972 H992 0.932 . S
C973 C971 1.408 . S
C973 C972 1.310 . S
C973 H993 0.930 . S
C974 C975 1.474 . S
C974 C976 1.285 . S
C974 H994 0.929 . S
C975 C972 1.461 . S
C975 C974 1.474 . S
C976 C971 1.342 . S
C976 C974 1.285 . S
C976 H995 0.930 . S
C977 C980 1.424 . S
C977 C982 1.245 . S
C977 C983 1.428 . S
C978 C981 1.260 . S
C978 C982 1.477 . S
C978 H996 0.932 . S
C979 C980 1.384 . S
C979 C981 1.479 . S
C979 H997 0.929 . S
C980 C977 1.424 . S
C980 C979 1.384 . S
C980 H998 0.928 . S
C981 C978 1.260 . S
C981 C979 1.479 . S
C982 C977 1.245 . S
C982 C978 1.477 . S
C982 H999 0.932 . S
C983 U966 2.882 . S
C983 C977 1.428 . S
C983 O986 1.301 . S
C983 O987 1.282 . S
O984 U966 2.441 . S
O984 C970 1.249 . S
O985 U966 2.420 . S
O985 C970 1.202 . S
O986 U966 2.455 . S
O986 C983 1.301 . S
O987 U966 2.449 . S
O987 C983 1.282 . S
H988 C961 0.931 . S
H989 C963 0.929 . S
H990 C964 0.930 . S
H991 C965 0.931 . S
H992 C972 0.932 . S
H993 C973 0.930 . S
H994 C974 0.929 . S
H995 C976 0.930 . S
H996 C978 0.932 . S
H997 C979 0.929 . S
H998 C980 0.928 . S
H999 C982 0.932 . S
C1000 C1001 1.264 . S
C1000 C1005 1.479 . S
C1000 C1010 1.465 . S
C1001 C1000 1.264 . S
C1001 C1003 1.339 . S
C1001 H1028 0.931 . S
C1002 C1003 1.395 . S
C1002 C1004 1.320 . S
C1003 C1001 1.339 . S
C1003 C1002 1.395 . S
C1003 H1029 0.929 . S
C1004 C1002 1.320 . S
C1004 C1005 1.405 . S
C1004 H1030 0.930 . S
C1005 C1000 1.479 . S
C1005 C1004 1.405 . S
C1005 H1031 0.931 . S
U1006 O1007 2.454 . S
U1006 O1008 2.458 . S
U1006 C1009 2.984 . S
U1006 C1010 2.847 . S
U1006 C1023 2.882 . S
U1006 O1024 2.441 . S
U1006 O1025 2.420 . S
U1006 O1026 2.455 . S
U1006 O1027 2.449 . S
O1007 U1006 2.454 . S
O1007 C1009 1.353 . S
O1008 U1006 2.458 . S
O1008 C1009 1.286 . S
C1009 U1006 2.984 . S
C1009 O1007 1.353 . S
C1009 O1008 1.286 . S
C1009 C1011 1.363 . S
C1010 C1000 1.465 . S
C1010 U1006 2.847 . S
C1010 O1024 1.249 . S
C1010 O1025 1.202 . S
C1011 C1009 1.363 . S
C1011 C1013 1.408 . S
C1011 C1016 1.342 . S
C1012 C1013 1.310 . S
C1012 C1015 1.461 . S
C1012 H1032 0.932 . S
C1013 C1011 1.408 . S
C1013 C1012 1.310 . S
C1013 H1033 0.930 . S
C1014 C1015 1.474 . S
C1014 C1016 1.285 . S
C1014 H1034 0.929 . S
C1015 C1012 1.461 . S
C1015 C1014 1.474 . S
C1016 C1011 1.342 . S
C1016 C1014 1.285 . S
C1016 H1035 0.930 . S
C1017 C1020 1.424 . S
C1017 C1022 1.245 . S
C1017 C1023 1.428 . S
C1018 C1021 1.260 . S
C1018 C1022 1.477 . S
C1018 H1036 0.932 . S
C1019 C1020 1.384 . S
C1019 C1021 1.479 . S
C1019 H1037 0.929 . S
C1020 C1017 1.424 . S
C1020 C1019 1.384 . S
C1020 H1038 0.928 . S
C1021 C1018 1.260 . S
C1021 C1019 1.479 . S
C1022 C1017 1.245 . S
C1022 C1018 1.477 . S
C1022 H1039 0.932 . S
C1023 U1006 2.882 . S
C1023 C1017 1.428 . S
C1023 O1026 1.301 . S
C1023 O1027 1.282 . S
O1024 U1006 2.441 . S
O1024 C1010 1.249 . S
O1025 U1006 2.420 . S
O1025 C1010 1.202 . S
O1026 U1006 2.455 . S
O1026 C1023 1.301 . S
O1027 U1006 2.449 . S
O1027 C1023 1.282 . S
H1028 C1001 0.931 . S
H1029 C1003 0.929 . S
H1030 C1004 0.930 . S
H1031 C1005 0.931 . S
H1032 C1012 0.932 . S
H1033 C1013 0.930 . S
H1034 C1014 0.929 . S
H1035 C1016 0.930 . S
H1036 C1018 0.932 . S
H1037 C1019 0.929 . S
H1038 C1020 0.928 . S
H1039 C1022 0.932 . S
C1040 C1041 1.264 . S
C1040 C1045 1.479 . S
C1040 C1050 1.465 . S
C1041 C1040 1.264 . S
C1041 C1043 1.339 . S
C1041 H1068 0.931 . S
C1042 C1043 1.395 . S
C1042 C1044 1.320 . S
C1043 C1041 1.339 . S
C1043 C1042 1.395 . S
C1043 H1069 0.929 . S
C1044 C1042 1.320 . S
C1044 C1045 1.405 . S
C1044 H1070 0.930 . S
C1045 C1040 1.479 . S
C1045 C1044 1.405 . S
C1045 H1071 0.931 . S
U1046 O1047 2.454 . S
U1046 O1048 2.458 . S
U1046 C1049 2.984 . S
U1046 C1050 2.847 . S
U1046 C1063 2.882 . S
U1046 O1064 2.441 . S
U1046 O1065 2.420 . S
U1046 O1066 2.455 . S
U1046 O1067 2.449 . S
O1047 U1046 2.454 . S
O1047 C1049 1.353 . S
O1048 U1046 2.458 . S
O1048 C1049 1.286 . S
C1049 U1046 2.984 . S
C1049 O1047 1.353 . S
C1049 O1048 1.286 . S
C1049 C1051 1.363 . S
C1050 C1040 1.465 . S
C1050 U1046 2.847 . S
C1050 O1064 1.249 . S
C1050 O1065 1.202 . S
C1051 C1049 1.363 . S
C1051 C1053 1.408 . S
C1051 C1056 1.342 . S
C1052 C1053 1.310 . S
C1052 C1055 1.461 . S
C1052 H1072 0.932 . S
C1053 C1051 1.408 . S
C1053 C1052 1.310 . S
C1053 H1073 0.930 . S
C1054 C1055 1.474 . S
C1054 C1056 1.285 . S
C1054 H1074 0.929 . S
C1055 C1052 1.461 . S
C1055 C1054 1.474 . S
C1056 C1051 1.342 . S
C1056 C1054 1.285 . S
C1056 H1075 0.930 . S
C1057 C1060 1.424 . S
C1057 C1062 1.245 . S
C1057 C1063 1.428 . S
C1058 C1061 1.260 . S
C1058 C1062 1.477 . S
C1058 H1076 0.932 . S
C1059 C1060 1.384 . S
C1059 C1061 1.479 . S
C1059 H1077 0.929 . S
C1060 C1057 1.424 . S
C1060 C1059 1.384 . S
C1060 H1078 0.928 . S
C1061 C1058 1.260 . S
C1061 C1059 1.479 . S
C1062 C1057 1.245 . S
C1062 C1058 1.477 . S
C1062 H1079 0.932 . S
C1063 U1046 2.882 . S
C1063 C1057 1.428 . S
C1063 O1066 1.301 . S
C1063 O1067 1.282 . S
O1064 U1046 2.441 . S
O1064 C1050 1.249 . S
O1065 U1046 2.420 . S
O1065 C1050 1.202 . S
O1066 U1046 2.455 . S
O1066 C1063 1.301 . S
O1067 U1046 2.449 . S
O1067 C1063 1.282 . S
H1068 C1041 0.931 . S
H1069 C1043 0.929 . S
H1070 C1044 0.930 . S
H1071 C1045 0.931 . S
H1072 C1052 0.932 . S
H1073 C1053 0.930 . S
H1074 C1054 0.929 . S
H1075 C1056 0.930 . S
H1076 C1058 0.932 . S
H1077 C1059 0.929 . S
H1078 C1060 0.928 . S
H1079 C1062 0.932 . S
C1080 C1081 1.264 . S
C1080 C1085 1.479 . S
C1080 C1090 1.465 . S
C1081 C1080 1.264 . S
C1081 C1083 1.339 . S
C1081 H1108 0.931 . S
C1082 C1083 1.395 . S
C1082 C1084 1.320 . S
C1083 C1081 1.339 . S
C1083 C1082 1.395 . S
C1083 H1109 0.929 . S
C1084 C1082 1.320 . S
C1084 C1085 1.405 . S
C1084 H1110 0.930 . S
C1085 C1080 1.479 . S
C1085 C1084 1.405 . S
C1085 H1111 0.931 . S
U1086 O1087 2.454 . S
U1086 O1088 2.458 . S
U1086 C1089 2.984 . S
U1086 C1090 2.847 . S
U1086 C1103 2.882 . S
U1086 O1104 2.441 . S
U1086 O1105 2.420 . S
U1086 O1106 2.455 . S
U1086 O1107 2.449 . S
O1087 U1086 2.454 . S
O1087 C1089 1.353 . S
O1088 U1086 2.458 . S
O1088 C1089 1.286 . S
C1089 U1086 2.984 . S
C1089 O1087 1.353 . S
C1089 O1088 1.286 . S
C1089 C1091 1.363 . S
C1090 C1080 1.465 . S
C1090 U1086 2.847 . S
C1090 O1104 1.249 . S
C1090 O1105 1.202 . S
C1091 C1089 1.363 . S
C1091 C1093 1.408 . S
C1091 C1096 1.342 . S
C1092 C1093 1.310 . S
C1092 C1095 1.461 . S
C1092 H1112 0.932 . S
C1093 C1091 1.408 . S
C1093 C1092 1.310 . S
C1093 H1113 0.930 . S
C1094 C1095 1.474 . S
C1094 C1096 1.285 . S
C1094 H1114 0.929 . S
C1095 C1092 1.461 . S
C1095 C1094 1.474 . S
C1096 C1091 1.342 . S
C1096 C1094 1.285 . S
C1096 H1115 0.930 . S
C1097 C1100 1.424 . S
C1097 C1102 1.245 . S
C1097 C1103 1.428 . S
C1098 C1101 1.260 . S
C1098 C1102 1.477 . S
C1098 H1116 0.932 . S
C1099 C1100 1.384 . S
C1099 C1101 1.479 . S
C1099 H1117 0.929 . S
C1100 C1097 1.424 . S
C1100 C1099 1.384 . S
C1100 H1118 0.928 . S
C1101 C1098 1.260 . S
C1101 C1099 1.479 . S
C1102 C1097 1.245 . S
C1102 C1098 1.477 . S
C1102 H1119 0.932 . S
C1103 U1086 2.882 . S
C1103 C1097 1.428 . S
C1103 O1106 1.301 . S
C1103 O1107 1.282 . S
O1104 U1086 2.441 . S
O1104 C1090 1.249 . S
O1105 U1086 2.420 . S
O1105 C1090 1.202 . S
O1106 U1086 2.455 . S
O1106 C1103 1.301 . S
O1107 U1086 2.449 . S
O1107 C1103 1.282 . S
H1108 C1081 0.931 . S
H1109 C1083 0.929 . S
H1110 C1084 0.930 . S
H1111 C1085 0.931 . S
H1112 C1092 0.932 . S
H1113 C1093 0.930 . S
H1114 C1094 0.929 . S
H1115 C1096 0.930 . S
H1116 C1098 0.932 . S
H1117 C1099 0.929 . S
H1118 C1100 0.928 . S
H1119 C1102 0.932 . S
C1120 C1121 1.264 . S
C1120 C1125 1.479 . S
C1120 C1130 1.465 . S
C1121 C1120 1.264 . S
C1121 C1123 1.339 . S
C1121 H1148 0.931 . S
C1122 C1123 1.395 . S
C1122 C1124 1.320 . S
C1123 C1121 1.339 . S
C1123 C1122 1.395 . S
C1123 H1149 0.929 . S
C1124 C1122 1.320 . S
C1124 C1125 1.405 . S
C1124 H1150 0.930 . S
C1125 C1120 1.479 . S
C1125 C1124 1.405 . S
C1125 H1151 0.931 . S
U1126 O1127 2.454 . S
U1126 O1128 2.458 . S
U1126 C1129 2.984 . S
U1126 C1130 2.847 . S
U1126 C1143 2.882 . S
U1126 O1144 2.441 . S
U1126 O1145 2.420 . S
U1126 O1146 2.455 . S
U1126 O1147 2.449 . S
O1127 U1126 2.454 . S
O1127 C1129 1.353 . S
O1128 U1126 2.458 . S
O1128 C1129 1.286 . S
C1129 U1126 2.984 . S
C1129 O1127 1.353 . S
C1129 O1128 1.286 . S
C1129 C1131 1.363 . S
C1130 C1120 1.465 . S
C1130 U1126 2.847 . S
C1130 O1144 1.249 . S
C1130 O1145 1.202 . S
C1131 C1129 1.363 . S
C1131 C1133 1.408 . S
C1131 C1136 1.342 . S
C1132 C1133 1.310 . S
C1132 C1135 1.461 . S
C1132 H1152 0.932 . S
C1133 C1131 1.408 . S
C1133 C1132 1.310 . S
C1133 H1153 0.930 . S
C1134 C1135 1.474 . S
C1134 C1136 1.285 . S
C1134 H1154 0.929 . S
C1135 C1132 1.461 . S
C1135 C1134 1.474 . S
C1136 C1131 1.342 . S
C1136 C1134 1.285 . S
C1136 H1155 0.930 . S
C1137 C1140 1.424 . S
C1137 C1142 1.245 . S
C1137 C1143 1.428 . S
C1138 C1141 1.260 . S
C1138 C1142 1.477 . S
C1138 H1156 0.932 . S
C1139 C1140 1.384 . S
C1139 C1141 1.479 . S
C1139 H1157 0.929 . S
C1140 C1137 1.424 . S
C1140 C1139 1.384 . S
C1140 H1158 0.928 . S
C1141 C1138 1.260 . S
C1141 C1139 1.479 . S
C1142 C1137 1.245 . S
C1142 C1138 1.477 . S
C1142 H1159 0.932 . S
C1143 U1126 2.882 . S
C1143 C1137 1.428 . S
C1143 O1146 1.301 . S
C1143 O1147 1.282 . S
O1144 U1126 2.441 . S
O1144 C1130 1.249 . S
O1145 U1126 2.420 . S
O1145 C1130 1.202 . S
O1146 U1126 2.455 . S
O1146 C1143 1.301 . S
O1147 U1126 2.449 . S
O1147 C1143 1.282 . S
H1148 C1121 0.931 . S
H1149 C1123 0.929 . S
H1150 C1124 0.930 . S
H1151 C1125 0.931 . S
H1152 C1132 0.932 . S
H1153 C1133 0.930 . S
H1154 C1134 0.929 . S
H1155 C1136 0.930 . S
H1156 C1138 0.932 . S
H1157 C1139 0.929 . S
H1158 C1140 0.928 . S
H1159 C1142 0.932 . S
C1160 C1161 1.264 . S
C1160 C1165 1.479 . S
C1160 C1170 1.465 . S
C1161 C1160 1.264 . S
C1161 C1163 1.339 . S
C1161 H1188 0.931 . S
C1162 C1163 1.395 . S
C1162 C1164 1.320 . S
C1163 C1161 1.339 . S
C1163 C1162 1.395 . S
C1163 H1189 0.929 . S
C1164 C1162 1.320 . S
C1164 C1165 1.405 . S
C1164 H1190 0.930 . S
C1165 C1160 1.479 . S
C1165 C1164 1.405 . S
C1165 H1191 0.931 . S
U1166 O1167 2.454 . S
U1166 O1168 2.458 . S
U1166 C1169 2.984 . S
U1166 C1170 2.847 . S
U1166 C1183 2.882 . S
U1166 O1184 2.441 . S
U1166 O1185 2.420 . S
U1166 O1186 2.455 . S
U1166 O1187 2.449 . S
O1167 U1166 2.454 . S
O1167 C1169 1.353 . S
O1168 U1166 2.458 . S
O1168 C1169 1.286 . S
C1169 U1166 2.984 . S
C1169 O1167 1.353 . S
C1169 O1168 1.286 . S
C1169 C1171 1.363 . S
C1170 C1160 1.465 . S
C1170 U1166 2.847 . S
C1170 O1184 1.249 . S
C1170 O1185 1.202 . S
C1171 C1169 1.363 . S
C1171 C1173 1.408 . S
C1171 C1176 1.342 . S
C1172 C1173 1.310 . S
C1172 C1175 1.461 . S
C1172 H1192 0.932 . S
C1173 C1171 1.408 . S
C1173 C1172 1.310 . S
C1173 H1193 0.930 . S
C1174 C1175 1.474 . S
C1174 C1176 1.285 . S
C1174 H1194 0.929 . S
C1175 C1172 1.461 . S
C1175 C1174 1.474 . S
C1176 C1171 1.342 . S
C1176 C1174 1.285 . S
C1176 H1195 0.930 . S
C1177 C1180 1.424 . S
C1177 C1182 1.245 . S
C1177 C1183 1.428 . S
C1178 C1181 1.260 . S
C1178 C1182 1.477 . S
C1178 H1196 0.932 . S
C1179 C1180 1.384 . S
C1179 C1181 1.479 . S
C1179 H1197 0.929 . S
C1180 C1177 1.424 . S
C1180 C1179 1.384 . S
C1180 H1198 0.928 . S
C1181 C1178 1.260 . S
C1181 C1179 1.479 . S
C1182 C1177 1.245 . S
C1182 C1178 1.477 . S
C1182 H1199 0.932 . S
C1183 U1166 2.882 . S
C1183 C1177 1.428 . S
C1183 O1186 1.301 . S
C1183 O1187 1.282 . S
O1184 U1166 2.441 . S
O1184 C1170 1.249 . S
O1185 U1166 2.420 . S
O1185 C1170 1.202 . S
O1186 U1166 2.455 . S
O1186 C1183 1.301 . S
O1187 U1166 2.449 . S
O1187 C1183 1.282 . S
H1188 C1161 0.931 . S
H1189 C1163 0.929 . S
H1190 C1164 0.930 . S
H1191 C1165 0.931 . S
H1192 C1172 0.932 . S
H1193 C1173 0.930 . S
H1194 C1174 0.929 . S
H1195 C1176 0.930 . S
H1196 C1178 0.932 . S
H1197 C1179 0.929 . S
H1198 C1180 0.928 . S
H1199 C1182 0.932 . S
C1200 C1201 1.264 . S
C1200 C1205 1.479 . S
C1200 C1210 1.465 . S
C1201 C1200 1.264 . S
C1201 C1203 1.339 . S
C1201 H1228 0.931 . S
C1202 C1203 1.395 . S
C1202 C1204 1.320 . S
C1203 C1201 1.339 . S
C1203 C1202 1.395 . S
C1203 H1229 0.929 . S
C1204 C1202 1.320 . S
C1204 C1205 1.405 . S
C1204 H1230 0.930 . S
C1205 C1200 1.479 . S
C1205 C1204 1.405 . S
C1205 H1231 0.931 . S
U1206 O1207 2.454 . S
U1206 O1208 2.458 . S
U1206 C1209 2.984 . S
U1206 C1210 2.847 . S
U1206 C1223 2.882 . S
U1206 O1224 2.441 . S
U1206 O1225 2.420 . S
U1206 O1226 2.455 . S
U1206 O1227 2.449 . S
O1207 U1206 2.454 . S
O1207 C1209 1.353 . S
O1208 U1206 2.458 . S
O1208 C1209 1.286 . S
C1209 U1206 2.984 . S
C1209 O1207 1.353 . S
C1209 O1208 1.286 . S
C1209 C1211 1.363 . S
C1210 C1200 1.465 . S
C1210 U1206 2.847 . S
C1210 O1224 1.249 . S
C1210 O1225 1.202 . S
C1211 C1209 1.363 . S
C1211 C1213 1.408 . S
C1211 C1216 1.342 . S
C1212 C1213 1.310 . S
C1212 C1215 1.461 . S
C1212 H1232 0.932 . S
C1213 C1211 1.408 . S
C1213 C1212 1.310 . S
C1213 H1233 0.930 . S
C1214 C1215 1.474 . S
C1214 C1216 1.285 . S
C1214 H1234 0.929 . S
C1215 C1212 1.461 . S
C1215 C1214 1.474 . S
C1216 C1211 1.342 . S
C1216 C1214 1.285 . S
C1216 H1235 0.930 . S
C1217 C1220 1.424 . S
C1217 C1222 1.245 . S
C1217 C1223 1.428 . S
C1218 C1221 1.260 . S
C1218 C1222 1.477 . S
C1218 H1236 0.932 . S
C1219 C1220 1.384 . S
C1219 C1221 1.479 . S
C1219 H1237 0.929 . S
C1220 C1217 1.424 . S
C1220 C1219 1.384 . S
C1220 H1238 0.928 . S
C1221 C1218 1.260 . S
C1221 C1219 1.479 . S
C1222 C1217 1.245 . S
C1222 C1218 1.477 . S
C1222 H1239 0.932 . S
C1223 U1206 2.882 . S
C1223 C1217 1.428 . S
C1223 O1226 1.301 . S
C1223 O1227 1.282 . S
O1224 U1206 2.441 . S
O1224 C1210 1.249 . S
O1225 U1206 2.420 . S
O1225 C1210 1.202 . S
O1226 U1206 2.455 . S
O1226 C1223 1.301 . S
O1227 U1206 2.449 . S
O1227 C1223 1.282 . S
H1228 C1201 0.931 . S
H1229 C1203 0.929 . S
H1230 C1204 0.930 . S
H1231 C1205 0.931 . S
H1232 C1212 0.932 . S
H1233 C1213 0.930 . S
H1234 C1214 0.929 . S
H1235 C1216 0.930 . S
H1236 C1218 0.932 . S
H1237 C1219 0.929 . S
H1238 C1220 0.928 . S
H1239 C1222 0.932 . S
C1240 C1241 1.264 . S
C1240 C1245 1.479 . S
C1240 C1250 1.465 . S
C1241 C1240 1.264 . S
C1241 C1243 1.339 . S
C1241 H1268 0.931 . S
C1242 C1243 1.395 . S
C1242 C1244 1.320 . S
C1243 C1241 1.339 . S
C1243 C1242 1.395 . S
C1243 H1269 0.929 . S
C1244 C1242 1.320 . S
C1244 C1245 1.405 . S
C1244 H1270 0.930 . S
C1245 C1240 1.479 . S
C1245 C1244 1.405 . S
C1245 H1271 0.931 . S
U1246 O1247 2.454 . S
U1246 O1248 2.458 . S
U1246 C1249 2.984 . S
U1246 C1250 2.847 . S
U1246 C1263 2.882 . S
U1246 O1264 2.441 . S
U1246 O1265 2.420 . S
U1246 O1266 2.455 . S
U1246 O1267 2.449 . S
O1247 U1246 2.454 . S
O1247 C1249 1.353 . S
O1248 U1246 2.458 . S
O1248 C1249 1.286 . S
C1249 U1246 2.984 . S
C1249 O1247 1.353 . S
C1249 O1248 1.286 . S
C1249 C1251 1.363 . S
C1250 C1240 1.465 . S
C1250 U1246 2.847 . S
C1250 O1264 1.249 . S
C1250 O1265 1.202 . S
C1251 C1249 1.363 . S
C1251 C1253 1.408 . S
C1251 C1256 1.342 . S
C1252 C1253 1.310 . S
C1252 C1255 1.461 . S
C1252 H1272 0.932 . S
C1253 C1251 1.408 . S
C1253 C1252 1.310 . S
C1253 H1273 0.930 . S
C1254 C1255 1.474 . S
C1254 C1256 1.285 . S
C1254 H1274 0.929 . S
C1255 C1252 1.461 . S
C1255 C1254 1.474 . S
C1256 C1251 1.342 . S
C1256 C1254 1.285 . S
C1256 H1275 0.930 . S
C1257 C1260 1.424 . S
C1257 C1262 1.245 . S
C1257 C1263 1.428 . S
C1258 C1261 1.260 . S
C1258 C1262 1.477 . S
C1258 H1276 0.932 . S
C1259 C1260 1.384 . S
C1259 C1261 1.479 . S
C1259 H1277 0.929 . S
C1260 C1257 1.424 . S
C1260 C1259 1.384 . S
C1260 H1278 0.928 . S
C1261 C1258 1.260 . S
C1261 C1259 1.479 . S
C1262 C1257 1.245 . S
C1262 C1258 1.477 . S
C1262 H1279 0.932 . S
C1263 U1246 2.882 . S
C1263 C1257 1.428 . S
C1263 O1266 1.301 . S
C1263 O1267 1.282 . S
O1264 U1246 2.441 . S
O1264 C1250 1.249 . S
O1265 U1246 2.420 . S
O1265 C1250 1.202 . S
O1266 U1246 2.455 . S
O1266 C1263 1.301 . S
O1267 U1246 2.449 . S
O1267 C1263 1.282 . S
H1268 C1241 0.931 . S
H1269 C1243 0.929 . S
H1270 C1244 0.930 . S
H1271 C1245 0.931 . S
H1272 C1252 0.932 . S
H1273 C1253 0.930 . S
H1274 C1254 0.929 . S
H1275 C1256 0.930 . S
H1276 C1258 0.932 . S
H1277 C1259 0.929 . S
H1278 C1260 0.928 . S
H1279 C1262 0.932 . S
H1280 C1307 0.929 . S
N1281 C1306 1.433 . S
N1281 C1312 1.435 . S
N1281 C1318 1.423 . S
H1282 C1308 0.930 . S
H1283 C1311 0.931 . S
H1284 C1310 0.929 . S
H1285 C1313 0.930 . S
H1286 C1314 0.932 . S
H1287 C1317 0.929 . S
H1288 C1316 0.931 . S
H1289 C1319 0.929 . S
H1290 C1323 0.932 . S
H1291 C1320 0.931 . S
H1292 C1322 0.929 . S
H1293 C1325 0.929 . S
H1294 C1326 0.930 . S
H1295 C1328 0.929 . S
H1296 C1329 0.931 . S
H1297 C1331 0.930 . S
H1298 C1332 0.932 . S
H1299 C1334 0.931 . S
H1300 C1335 0.929 . S
H1301 C1337 0.929 . S
H1302 C1338 0.931 . S
H1303 C1340 0.929 . S
N1304 C1324 1.433 . S
N1304 C1330 1.435 . S
N1304 C1336 1.423 . S
H1305 C1341 0.932 . S
C1306 N1281 1.433 . S
C1306 C1307 1.363 . S
C1306 C1311 1.370 . S
C1307 H1280 0.929 . S
C1307 C1306 1.363 . S
C1307 C1308 1.385 . S
C1308 H1282 0.930 . S
C1308 C1307 1.385 . S
C1308 C1309 1.357 . S
C1309 C1308 1.357 . S
C1309 C1310 1.406 . S
C1310 H1284 0.929 . S
C1310 C1309 1.406 . S
C1310 C1311 1.391 . S
C1311 H1283 0.931 . S
C1311 C1306 1.370 . S
C1311 C1310 1.391 . S
C1312 N1281 1.435 . S
C1312 C1313 1.358 . S
C1312 C1317 1.371 . S
C1313 H1285 0.930 . S
C1313 C1312 1.358 . S
C1313 C1314 1.405 . S
C1314 H1286 0.932 . S
C1314 C1313 1.405 . S
C1314 C1315 1.383 . S
C1315 C1314 1.383 . S
C1315 C1316 1.393 . S
C1316 H1288 0.931 . S
C1316 C1315 1.393 . S
C1316 C1317 1.382 . S
C1317 H1287 0.929 . S
C1317 C1312 1.371 . S
C1317 C1316 1.382 . S
C1318 N1281 1.423 . S
C1318 C1319 1.362 . S
C1318 C1323 1.388 . S
C1319 H1289 0.929 . S
C1319 C1318 1.362 . S
C1319 C1320 1.376 . S
C1320 H1291 0.931 . S
C1320 C1319 1.376 . S
C1320 C1321 1.442 . S
C1321 C1320 1.442 . S
C1321 C1322 1.394 . S
C1321 C1339 1.388 1_556 S
C1322 H1292 0.929 . S
C1322 C1321 1.394 . S
C1322 C1323 1.443 . S
C1323 H1290 0.932 . S
C1323 C1318 1.388 . S
C1323 C1322 1.443 . S
C1324 N1304 1.433 . S
C1324 C1325 1.363 . S
C1324 C1329 1.370 . S
C1325 H1293 0.929 . S
C1325 C1324 1.363 . S
C1325 C1326 1.385 . S
C1326 H1294 0.930 . S
C1326 C1325 1.385 . S
C1326 C1327 1.357 . S
C1327 C1326 1.357 . S
C1327 C1328 1.406 . S
C1328 H1295 0.929 . S
C1328 C1327 1.406 . S
C1328 C1329 1.391 . S
C1329 H1296 0.931 . S
C1329 C1324 1.370 . S
C1329 C1328 1.391 . S
C1330 N1304 1.435 . S
C1330 C1331 1.358 . S
C1330 C1335 1.371 . S
C1331 H1297 0.930 . S
C1331 C1330 1.358 . S
C1331 C1332 1.405 . S
C1332 H1298 0.932 . S
C1332 C1331 1.405 . S
C1332 C1333 1.383 . S
C1333 C1332 1.383 . S
C1333 C1334 1.393 . S
C1334 H1299 0.931 . S
C1334 C1333 1.393 . S
C1334 C1335 1.382 . S
C1335 H1300 0.929 . S
C1335 C1330 1.371 . S
C1335 C1334 1.382 . S
C1336 N1304 1.423 . S
C1336 C1337 1.362 . S
C1336 C1341 1.388 . S
C1337 H1301 0.929 . S
C1337 C1336 1.362 . S
C1337 C1338 1.376 . S
C1338 H1302 0.931 . S
C1338 C1337 1.376 . S
C1338 C1339 1.396 . S
C1339 C1321 1.388 1_554 S
C1339 C1338 1.396 . S
C1339 C1340 1.348 . S
C1340 H1303 0.929 . S
C1340 C1339 1.348 . S
C1340 C1341 1.443 . S
C1341 H1305 0.932 . S
C1341 C1336 1.388 . S
C1341 C1340 1.443 . S
H1342 C1369 0.929 . S
N1343 C1368 1.433 . S
N1343 C1374 1.435 . S
N1343 C1380 1.423 . S
H1344 C1370 0.930 . S
H1345 C1373 0.931 . S
H1346 C1372 0.929 . S
H1347 C1375 0.930 . S
H1348 C1376 0.932 . S
H1349 C1379 0.929 . S
H1350 C1378 0.931 . S
H1351 C1381 0.929 . S
H1352 C1385 0.932 . S
H1353 C1382 0.931 . S
H1354 C1384 0.976 . S
H1355 C1387 0.929 . S
H1356 C1388 0.930 . S
H1357 C1390 0.929 . S
H1358 C1391 0.931 . S
H1359 C1393 0.930 . S
H1360 C1394 0.932 . S
H1361 C1396 0.931 . S
H1362 C1397 0.929 . S
H1363 C1399 0.929 . S
H1364 C1400 0.931 . S
H1365 C1402 0.929 . S
N1366 C1386 1.433 . S
N1366 C1392 1.435 . S
N1366 C1398 1.423 . S
H1367 C1403 0.932 . S
C1368 N1343 1.433 . S
C1368 C1369 1.363 . S
C1368 C1373 1.370 . S
C1369 H1342 0.929 . S
C1369 C1368 1.363 . S
C1369 C1370 1.385 . S
C1370 H1344 0.930 . S
C1370 C1369 1.385 . S
C1370 C1371 1.357 . S
C1371 C1370 1.357 . S
C1371 C1372 1.406 . S
C1372 H1346 0.929 . S
C1372 C1371 1.406 . S
C1372 C1373 1.391 . S
C1373 H1345 0.931 . S
C1373 C1368 1.370 . S
C1373 C1372 1.391 . S
C1374 N1343 1.435 . S
C1374 C1375 1.358 . S
C1374 C1379 1.371 . S
C1375 H1347 0.930 . S
C1375 C1374 1.358 . S
C1375 C1376 1.405 . S
C1376 H1348 0.932 . S
C1376 C1375 1.405 . S
C1376 C1377 1.383 . S
C1377 C1376 1.383 . S
C1377 C1378 1.393 . S
C1378 H1350 0.931 . S
C1378 C1377 1.393 . S
C1378 C1379 1.382 . S
C1379 H1349 0.929 . S
C1379 C1374 1.371 . S
C1379 C1378 1.382 . S
C1380 N1343 1.423 . S
C1380 C1381 1.362 . S
C1380 C1385 1.388 . S
C1381 H1351 0.929 . S
C1381 C1380 1.362 . S
C1381 C1382 1.376 . S
C1382 H1353 0.931 . S
C1382 C1381 1.376 . S
C1382 C1383 1.396 1_556 S
C1383 C1382 1.396 1_554 S
C1383 C1384 1.348 1_554 S
C1383 C1401 1.472 . S
C1384 H1354 0.976 . S
C1384 C1383 1.348 1_556 S
C1384 C1385 1.443 . S
C1385 H1352 0.932 . S
C1385 C1380 1.388 . S
C1385 C1384 1.443 . S
C1386 N1366 1.433 . S
C1386 C1387 1.363 . S
C1386 C1391 1.370 . S
C1387 H1355 0.929 . S
C1387 C1386 1.363 . S
C1387 C1388 1.385 . S
C1388 H1356 0.930 . S
C1388 C1387 1.385 . S
C1388 C1389 1.357 . S
C1389 C1388 1.357 . S
C1389 C1390 1.406 . S
C1390 H1357 0.929 . S
C1390 C1389 1.406 . S
C1390 C1391 1.391 . S
C1391 H1358 0.931 . S
C1391 C1386 1.370 . S
C1391 C1390 1.391 . S
C1392 N1366 1.435 . S
C1392 C1393 1.358 . S
C1392 C1397 1.371 . S
C1393 H1359 0.930 . S
C1393 C1392 1.358 . S
C1393 C1394 1.405 . S
C1394 H1360 0.932 . S
C1394 C1393 1.405 . S
C1394 C1395 1.383 . S
C1395 C1394 1.383 . S
C1395 C1396 1.393 . S
C1396 H1361 0.931 . S
C1396 C1395 1.393 . S
C1396 C1397 1.382 . S
C1397 H1362 0.929 . S
C1397 C1392 1.371 . S
C1397 C1396 1.382 . S
C1398 N1366 1.423 . S
C1398 C1399 1.362 . S
C1398 C1403 1.388 . S
C1399 H1363 0.929 . S
C1399 C1398 1.362 . S
C1399 C1400 1.376 . S
C1400 H1364 0.931 . S
C1400 C1399 1.376 . S
C1400 C1401 1.396 . S
C1401 C1383 1.472 . S
C1401 C1400 1.396 . S
C1401 C1402 1.348 . S
C1402 H1365 0.929 . S
C1402 C1401 1.348 . S
C1402 C1403 1.443 . S
C1403 H1367 0.932 . S
C1403 C1398 1.388 . S
C1403 C1402 1.443 . S
H1404 C1431 0.929 . S
N1405 C1430 1.433 . S
N1405 C1436 1.435 . S
N1405 C1442 1.423 . S
H1406 C1432 0.930 . S
H1407 C1435 0.931 . S
H1408 C1434 0.929 . S
H1409 C1437 0.930 . S
H1410 C1438 0.932 . S
H1411 C1441 0.929 . S
H1412 C1440 0.931 . S
H1413 C1443 0.929 . S
H1414 C1447 0.932 . S
H1415 C1444 0.931 . S
H1416 C1446 0.929 . S
H1417 C1449 0.929 . S
H1418 C1450 0.930 . S
H1419 C1452 0.929 . S
H1420 C1453 0.931 . S
H1421 C1455 0.930 . S
H1422 C1456 0.932 . S
H1423 C1458 0.931 . S
H1424 C1459 0.929 . S
H1425 C1461 0.929 . S
H1426 C1462 0.931 . S
H1427 C1464 0.929 . S
N1428 C1448 1.433 . S
N1428 C1454 1.435 . S
N1428 C1460 1.423 . S
H1429 C1465 0.932 . S
C1430 N1405 1.433 . S
C1430 C1431 1.363 . S
C1430 C1435 1.370 . S
C1431 H1404 0.929 . S
C1431 C1430 1.363 . S
C1431 C1432 1.385 . S
C1432 H1406 0.930 . S
C1432 C1431 1.385 . S
C1432 C1433 1.357 . S
C1433 C1432 1.357 . S
C1433 C1434 1.406 . S
C1434 H1408 0.929 . S
C1434 C1433 1.406 . S
C1434 C1435 1.391 . S
C1435 H1407 0.931 . S
C1435 C1430 1.370 . S
C1435 C1434 1.391 . S
C1436 N1405 1.435 . S
C1436 C1437 1.358 . S
C1436 C1441 1.371 . S
C1437 H1409 0.930 . S
C1437 C1436 1.358 . S
C1437 C1438 1.405 . S
C1438 H1410 0.932 . S
C1438 C1437 1.405 . S
C1438 C1439 1.383 . S
C1439 C1438 1.383 . S
C1439 C1440 1.393 . S
C1440 H1412 0.931 . S
C1440 C1439 1.393 . S
C1440 C1441 1.382 . S
C1441 H1411 0.929 . S
C1441 C1436 1.371 . S
C1441 C1440 1.382 . S
C1442 N1405 1.423 . S
C1442 C1443 1.362 . S
C1442 C1447 1.388 . S
C1443 H1413 0.929 . S
C1443 C1442 1.362 . S
C1443 C1444 1.376 . S
C1444 H1415 0.931 . S
C1444 C1443 1.376 . S
C1444 C1445 1.437 . S
C1445 C1444 1.437 . S
C1445 C1446 1.386 . S
C1445 C1463 1.400 1_556 S
C1446 H1416 0.929 . S
C1446 C1445 1.386 . S
C1446 C1447 1.443 . S
C1447 H1414 0.932 . S
C1447 C1442 1.388 . S
C1447 C1446 1.443 . S
C1448 N1428 1.433 . S
C1448 C1449 1.363 . S
C1448 C1453 1.370 . S
C1449 H1417 0.929 . S
C1449 C1448 1.363 . S
C1449 C1450 1.385 . S
C1450 H1418 0.930 . S
C1450 C1449 1.385 . S
C1450 C1451 1.357 . S
C1451 C1450 1.357 . S
C1451 C1452 1.406 . S
C1452 H1419 0.929 . S
C1452 C1451 1.406 . S
C1452 C1453 1.391 . S
C1453 H1420 0.931 . S
C1453 C1448 1.370 . S
C1453 C1452 1.391 . S
C1454 N1428 1.435 . S
C1454 C1455 1.358 . S
C1454 C1459 1.371 . S
C1455 H1421 0.930 . S
C1455 C1454 1.358 . S
C1455 C1456 1.405 . S
C1456 H1422 0.932 . S
C1456 C1455 1.405 . S
C1456 C1457 1.383 . S
C1457 C1456 1.383 . S
C1457 C1458 1.393 . S
C1458 H1423 0.931 . S
C1458 C1457 1.393 . S
C1458 C1459 1.382 . S
C1459 H1424 0.929 . S
C1459 C1454 1.371 . S
C1459 C1458 1.382 . S
C1460 N1428 1.423 . S
C1460 C1461 1.362 . S
C1460 C1465 1.388 . S
C1461 H1425 0.929 . S
C1461 C1460 1.362 . S
C1461 C1462 1.376 . S
C1462 H1426 0.931 . S
C1462 C1461 1.376 . S
C1462 C1463 1.396 . S
C1463 C1445 1.400 1_554 S
C1463 C1462 1.396 . S
C1463 C1464 1.348 . S
C1464 H1427 0.929 . S
C1464 C1463 1.348 . S
C1464 C1465 1.443 . S
C1465 H1429 0.932 . S
C1465 C1460 1.388 . S
C1465 C1464 1.443 . S
H1466 C1493 0.929 . S
N1467 C1492 1.433 . S
N1467 C1498 1.435 . S
N1467 C1504 1.423 . S
H1468 C1494 0.930 . S
H1469 C1497 0.931 . S
H1470 C1496 0.929 . S
H1471 C1499 0.930 . S
H1472 C1500 0.932 . S
H1473 C1503 0.929 . S
H1474 C1502 0.931 . S
H1475 C1505 0.929 . S
H1476 C1509 0.932 . S
H1477 C1506 0.931 . S
H1478 C1508 0.929 . S
H1479 C1511 0.929 . S
H1480 C1512 0.930 . S
H1481 C1514 0.929 . S
H1482 C1515 0.931 . S
H1483 C1517 0.930 . S
H1484 C1518 0.932 . S
H1485 C1520 0.931 . S
H1486 C1521 0.929 . S
H1487 C1523 0.929 . S
H1488 C1524 0.931 . S
H1489 C1526 0.929 . S
N1490 C1510 1.433 . S
N1490 C1516 1.435 . S
N1490 C1522 1.423 . S
H1491 C1527 0.932 . S
C1492 N1467 1.433 . S
C1492 C1493 1.363 . S
C1492 C1497 1.370 . S
C1493 H1466 0.929 . S
C1493 C1492 1.363 . S
C1493 C1494 1.385 . S
C1494 H1468 0.930 . S
C1494 C1493 1.385 . S
C1494 C1495 1.357 . S
C1495 C1494 1.357 . S
C1495 C1496 1.406 . S
C1496 H1470 0.929 . S
C1496 C1495 1.406 . S
C1496 C1497 1.391 . S
C1497 H1469 0.931 . S
C1497 C1492 1.370 . S
C1497 C1496 1.391 . S
C1498 N1467 1.435 . S
C1498 C1499 1.358 . S
C1498 C1503 1.371 . S
C1499 H1471 0.930 . S
C1499 C1498 1.358 . S
C1499 C1500 1.405 . S
C1500 H1472 0.932 . S
C1500 C1499 1.405 . S
C1500 C1501 1.383 . S
C1501 C1500 1.383 . S
C1501 C1502 1.393 . S
C1502 H1474 0.931 . S
C1502 C1501 1.393 . S
C1502 C1503 1.382 . S
C1503 H1473 0.929 . S
C1503 C1498 1.371 . S
C1503 C1502 1.382 . S
C1504 N1467 1.423 . S
C1504 C1505 1.362 . S
C1504 C1509 1.388 . S
C1505 H1475 0.929 . S
C1505 C1504 1.362 . S
C1505 C1506 1.376 . S
C1506 H1477 0.931 . S
C1506 C1505 1.376 . S
C1506 C1507 1.355 1_556 S
C1507 C1506 1.355 1_554 S
C1507 C1508 1.306 1_554 S
C1507 C1525 1.553 . S
C1508 H1478 0.929 . S
C1508 C1507 1.306 1_556 S
C1508 C1509 1.443 . S
C1509 H1476 0.932 . S
C1509 C1504 1.388 . S
C1509 C1508 1.443 . S
C1510 N1490 1.433 . S
C1510 C1511 1.363 . S
C1510 C1515 1.370 . S
C1511 H1479 0.929 . S
C1511 C1510 1.363 . S
C1511 C1512 1.385 . S
C1512 H1480 0.930 . S
C1512 C1511 1.385 . S
C1512 C1513 1.357 . S
C1513 C1512 1.357 . S
C1513 C1514 1.406 . S
C1514 H1481 0.929 . S
C1514 C1513 1.406 . S
C1514 C1515 1.391 . S
C1515 H1482 0.931 . S
C1515 C1510 1.370 . S
C1515 C1514 1.391 . S
C1516 N1490 1.435 . S
C1516 C1517 1.358 . S
C1516 C1521 1.371 . S
C1517 H1483 0.930 . S
C1517 C1516 1.358 . S
C1517 C1518 1.405 . S
C1518 H1484 0.932 . S
C1518 C1517 1.405 . S
C1518 C1519 1.383 . S
C1519 C1518 1.383 . S
C1519 C1520 1.393 . S
C1520 H1485 0.931 . S
C1520 C1519 1.393 . S
C1520 C1521 1.382 . S
C1521 H1486 0.929 . S
C1521 C1516 1.371 . S
C1521 C1520 1.382 . S
C1522 N1490 1.423 . S
C1522 C1523 1.362 . S
C1522 C1527 1.388 . S
C1523 H1487 0.929 . S
C1523 C1522 1.362 . S
C1523 C1524 1.376 . S
C1524 H1488 0.931 . S
C1524 C1523 1.376 . S
C1524 C1525 1.396 . S
C1525 C1507 1.553 . S
C1525 C1524 1.396 . S
C1525 C1526 1.348 . S
C1526 H1489 0.929 . S
C1526 C1525 1.348 . S
C1526 C1527 1.443 . S
C1527 H1491 0.932 . S
C1527 C1522 1.388 . S
C1527 C1526 1.443 . S
H1528 C1555 0.929 . S
N1529 C1554 1.433 . S
N1529 C1560 1.435 . S
N1529 C1566 1.423 . S
H1530 C1556 0.930 . S
H1531 C1559 0.931 . S
H1532 C1558 0.929 . S
H1533 C1561 0.930 . S
H1534 C1562 0.932 . S
H1535 C1565 0.929 . S
H1536 C1564 0.931 . S
H1537 C1567 0.929 . S
H1538 C1571 0.932 . S
H1539 C1568 0.931 . S
H1540 C1570 0.929 . S
H1541 C1573 0.929 . S
H1542 C1574 0.930 . S
H1543 C1576 0.929 . S
H1544 C1577 0.931 . S
H1545 C1579 0.930 . S
H1546 C1580 0.932 . S
H1547 C1582 0.931 . S
H1548 C1583 0.929 . S
H1549 C1585 0.929 . S
H1550 C1586 0.931 . S
H1551 C1588 0.929 . S
N1552 C1572 1.433 . S
N1552 C1578 1.435 . S
N1552 C1584 1.423 . S
H1553 C1589 0.932 . S
C1554 N1529 1.433 . S
C1554 C1555 1.363 . S
C1554 C1559 1.370 . S
C1555 H1528 0.929 . S
C1555 C1554 1.363 . S
C1555 C1556 1.385 . S
C1556 H1530 0.930 . S
C1556 C1555 1.385 . S
C1556 C1557 1.357 . S
C1557 C1556 1.357 . S
C1557 C1558 1.406 . S
C1558 H1532 0.929 . S
C1558 C1557 1.406 . S
C1558 C1559 1.391 . S
C1559 H1531 0.931 . S
C1559 C1554 1.370 . S
C1559 C1558 1.391 . S
C1560 N1529 1.435 . S
C1560 C1561 1.358 . S
C1560 C1565 1.371 . S
C1561 H1533 0.930 . S
C1561 C1560 1.358 . S
C1561 C1562 1.405 . S
C1562 H1534 0.932 . S
C1562 C1561 1.405 . S
C1562 C1563 1.383 . S
C1563 C1562 1.383 . S
C1563 C1564 1.393 . S
C1564 H1536 0.931 . S
C1564 C1563 1.393 . S
C1564 C1565 1.382 . S
C1565 H1535 0.929 . S
C1565 C1560 1.371 . S
C1565 C1564 1.382 . S
C1566 N1529 1.423 . S
C1566 C1567 1.362 . S
C1566 C1571 1.388 . S
C1567 H1537 0.929 . S
C1567 C1566 1.362 . S
C1567 C1568 1.376 . S
C1568 H1539 0.931 . S
C1568 C1567 1.376 . S
C1568 C1569 1.370 1_655 S
C1569 C1568 1.370 1_455 S
C1569 C1570 1.320 1_455 S
C1569 C1587 1.524 . S
C1570 H1540 0.929 . S
C1570 C1569 1.320 1_655 S
C1570 C1571 1.443 . S
C1571 H1538 0.932 . S
C1571 C1566 1.388 . S
C1571 C1570 1.443 . S
C1572 N1552 1.433 . S
C1572 C1573 1.363 . S
C1572 C1577 1.370 . S
C1573 H1541 0.929 . S
C1573 C1572 1.363 . S
C1573 C1574 1.385 . S
C1574 H1542 0.930 . S
C1574 C1573 1.385 . S
C1574 C1575 1.357 . S
C1575 C1574 1.357 . S
C1575 C1576 1.406 . S
C1576 H1543 0.929 . S
C1576 C1575 1.406 . S
C1576 C1577 1.391 . S
C1577 H1544 0.931 . S
C1577 C1572 1.370 . S
C1577 C1576 1.391 . S
C1578 N1552 1.435 . S
C1578 C1579 1.358 . S
C1578 C1583 1.371 . S
C1579 H1545 0.930 . S
C1579 C1578 1.358 . S
C1579 C1580 1.405 . S
C1580 H1546 0.932 . S
C1580 C1579 1.405 . S
C1580 C1581 1.383 . S
C1581 C1580 1.383 . S
C1581 C1582 1.393 . S
C1582 H1547 0.931 . S
C1582 C1581 1.393 . S
C1582 C1583 1.382 . S
C1583 H1548 0.929 . S
C1583 C1578 1.371 . S
C1583 C1582 1.382 . S
C1584 N1552 1.423 . S
C1584 C1585 1.362 . S
C1584 C1589 1.388 . S
C1585 H1549 0.929 . S
C1585 C1584 1.362 . S
C1585 C1586 1.376 . S
C1586 H1550 0.931 . S
C1586 C1585 1.376 . S
C1586 C1587 1.396 . S
C1587 C1569 1.524 . S
C1587 C1586 1.396 . S
C1587 C1588 1.348 . S
C1588 H1551 0.929 . S
C1588 C1587 1.348 . S
C1588 C1589 1.443 . S
C1589 H1553 0.932 . S
C1589 C1584 1.388 . S
C1589 C1588 1.443 . S
H1590 C1617 0.929 . S
N1591 C1616 1.433 . S
N1591 C1622 1.435 . S
N1591 C1628 1.423 . S
H1592 C1618 0.930 . S
H1593 C1621 0.931 . S
H1594 C1620 0.929 . S
H1595 C1623 0.930 . S
H1596 C1624 0.932 . S
H1597 C1627 0.929 . S
H1598 C1626 0.931 . S
H1599 C1629 0.929 . S
H1600 C1633 0.932 . S
H1601 C1630 0.931 . S
H1602 C1632 0.929 . S
H1603 C1635 0.929 . S
H1604 C1636 0.930 . S
H1605 C1638 0.929 . S
H1606 C1639 0.931 . S
H1607 C1641 0.930 . S
H1608 C1642 0.932 . S
H1609 C1644 0.931 . S
H1610 C1645 0.929 . S
H1611 C1647 0.929 . S
H1612 C1648 0.931 . S
H1613 C1650 0.929 . S
N1614 C1634 1.433 . S
N1614 C1640 1.435 . S
N1614 C1646 1.423 . S
H1615 C1651 0.932 . S
C1616 N1591 1.433 . S
C1616 C1617 1.363 . S
C1616 C1621 1.370 . S
C1617 H1590 0.929 . S
C1617 C1616 1.363 . S
C1617 C1618 1.385 . S
C1618 H1592 0.930 . S
C1618 C1617 1.385 . S
C1618 C1619 1.357 . S
C1619 C1618 1.357 . S
C1619 C1620 1.406 . S
C1620 H1594 0.929 . S
C1620 C1619 1.406 . S
C1620 C1621 1.391 . S
C1621 H1593 0.931 . S
C1621 C1616 1.370 . S
C1621 C1620 1.391 . S
C1622 N1591 1.435 . S
C1622 C1623 1.358 . S
C1622 C1627 1.371 . S
C1623 H1595 0.930 . S
C1623 C1622 1.358 . S
C1623 C1624 1.405 . S
C1624 H1596 0.932 . S
C1624 C1623 1.405 . S
C1624 C1625 1.383 . S
C1625 C1624 1.383 . S
C1625 C1626 1.393 . S
C1626 H1598 0.931 . S
C1626 C1625 1.393 . S
C1626 C1627 1.382 . S
C1627 H1597 0.929 . S
C1627 C1622 1.371 . S
C1627 C1626 1.382 . S
C1628 N1591 1.423 . S
C1628 C1629 1.362 . S
C1628 C1633 1.388 . S
C1629 H1599 0.929 . S
C1629 C1628 1.362 . S
C1629 C1630 1.376 . S
C1630 H1601 0.931 . S
C1630 C1629 1.376 . S
C1630 C1631 1.396 . S
C1631 C1630 1.396 . S
C1631 C1632 1.348 . S
C1631 C1649 1.472 1_545 S
C1632 H1602 0.929 . S
C1632 C1631 1.348 . S
C1632 C1633 1.443 . S
C1633 H1600 0.932 . S
C1633 C1628 1.388 . S
C1633 C1632 1.443 . S
C1634 N1614 1.433 . S
C1634 C1635 1.363 . S
C1634 C1639 1.370 . S
C1635 H1603 0.929 . S
C1635 C1634 1.363 . S
C1635 C1636 1.385 . S
C1636 H1604 0.930 . S
C1636 C1635 1.385 . S
C1636 C1637 1.357 . S
C1637 C1636 1.357 . S
C1637 C1638 1.406 . S
C1638 H1605 0.929 . S
C1638 C1637 1.406 . S
C1638 C1639 1.391 . S
C1639 H1606 0.931 . S
C1639 C1634 1.370 . S
C1639 C1638 1.391 . S
C1640 N1614 1.435 . S
C1640 C1641 1.358 . S
C1640 C1645 1.371 . S
C1641 H1607 0.930 . S
C1641 C1640 1.358 . S
C1641 C1642 1.405 . S
C1642 H1608 0.932 . S
C1642 C1641 1.405 . S
C1642 C1643 1.383 . S
C1643 C1642 1.383 . S
C1643 C1644 1.393 . S
C1644 H1609 0.931 . S
C1644 C1643 1.393 . S
C1644 C1645 1.382 . S
C1645 H1610 0.929 . S
C1645 C1640 1.371 . S
C1645 C1644 1.382 . S
C1646 N1614 1.423 . S
C1646 C1647 1.362 . S
C1646 C1651 1.388 . S
C1647 H1611 0.929 . S
C1647 C1646 1.362 . S
C1647 C1648 1.376 . S
C1648 H1612 0.931 . S
C1648 C1647 1.376 . S
C1648 C1649 1.396 . S
C1649 C1631 1.472 1_565 S
C1649 C1648 1.396 . S
C1649 C1650 1.348 . S
C1650 H1613 0.929 . S
C1650 C1649 1.348 . S
C1650 C1651 1.443 . S
C1651 H1615 0.932 . S
C1651 C1646 1.388 . S
C1651 C1650 1.443 . S
H1652 C1679 0.929 . S
N1653 C1678 1.433 . S
N1653 C1684 1.435 . S
N1653 C1690 1.423 . S
H1654 C1680 0.930 . S
H1655 C1683 0.931 . S
H1656 C1682 0.929 . S
H1657 C1685 0.930 . S
H1658 C1686 0.932 . S
H1659 C1689 0.929 . S
H1660 C1688 0.931 . S
H1661 C1691 0.929 . S
H1662 C1695 0.932 . S
H1663 C1692 0.931 . S
H1664 C1694 0.929 . S
H1665 C1697 0.929 . S
H1666 C1698 0.930 . S
H1667 C1700 0.929 . S
H1668 C1701 0.931 . S
H1669 C1703 0.930 . S
H1670 C1704 0.932 . S
H1671 C1706 0.931 . S
H1672 C1707 0.929 . S
H1673 C1709 0.929 . S
H1674 C1710 0.931 . S
H1675 C1712 0.929 . S
N1676 C1696 1.433 . S
N1676 C1702 1.435 . S
N1676 C1708 1.423 . S
H1677 C1713 0.932 . S
C1678 N1653 1.433 . S
C1678 C1679 1.363 . S
C1678 C1683 1.370 . S
C1679 H1652 0.929 . S
C1679 C1678 1.363 . S
C1679 C1680 1.385 . S
C1680 H1654 0.930 . S
C1680 C1679 1.385 . S
C1680 C1681 1.357 . S
C1681 C1680 1.357 . S
C1681 C1682 1.406 . S
C1682 H1656 0.929 . S
C1682 C1681 1.406 . S
C1682 C1683 1.391 . S
C1683 H1655 0.931 . S
C1683 C1678 1.370 . S
C1683 C1682 1.391 . S
C1684 N1653 1.435 . S
C1684 C1685 1.358 . S
C1684 C1689 1.371 . S
C1685 H1657 0.930 . S
C1685 C1684 1.358 . S
C1685 C1686 1.405 . S
C1686 H1658 0.932 . S
C1686 C1685 1.405 . S
C1686 C1687 1.383 . S
C1687 C1686 1.383 . S
C1687 C1688 1.393 . S
C1688 H1660 0.931 . S
C1688 C1687 1.393 . S
C1688 C1689 1.382 . S
C1689 H1659 0.929 . S
C1689 C1684 1.371 . S
C1689 C1688 1.382 . S
C1690 N1653 1.423 . S
C1690 C1691 1.362 . S
C1690 C1695 1.388 . S
C1691 H1661 0.929 . S
C1691 C1690 1.362 . S
C1691 C1692 1.376 . S
C1692 H1663 0.931 . S
C1692 C1691 1.376 . S
C1692 C1693 1.396 . S
C1693 C1692 1.396 . S
C1693 C1694 1.348 . S
C1693 C1711 1.511 . S
C1694 H1664 0.929 . S
C1694 C1693 1.348 . S
C1694 C1695 1.443 . S
C1695 H1662 0.932 . S
C1695 C1690 1.388 . S
C1695 C1694 1.443 . S
C1696 N1676 1.433 . S
C1696 C1697 1.363 . S
C1696 C1701 1.370 . S
C1697 H1665 0.929 . S
C1697 C1696 1.363 . S
C1697 C1698 1.385 . S
C1698 H1666 0.930 . S
C1698 C1697 1.385 . S
C1698 C1699 1.357 . S
C1699 C1698 1.357 . S
C1699 C1700 1.406 . S
C1700 H1667 0.929 . S
C1700 C1699 1.406 . S
C1700 C1701 1.391 . S
C1701 H1668 0.931 . S
C1701 C1696 1.370 . S
C1701 C1700 1.391 . S
C1702 N1676 1.435 . S
C1702 C1703 1.358 . S
C1702 C1707 1.371 . S
C1703 H1669 0.930 . S
C1703 C1702 1.358 . S
C1703 C1704 1.405 . S
C1704 H1670 0.932 . S
C1704 C1703 1.405 . S
C1704 C1705 1.383 . S
C1705 C1704 1.383 . S
C1705 C1706 1.393 . S
C1706 H1671 0.931 . S
C1706 C1705 1.393 . S
C1706 C1707 1.382 . S
C1707 H1672 0.929 . S
C1707 C1702 1.371 . S
C1707 C1706 1.382 . S
C1708 N1676 1.423 . S
C1708 C1709 1.362 . S
C1708 C1713 1.388 . S
C1709 H1673 0.929 . S
C1709 C1708 1.362 . S
C1709 C1710 1.376 . S
C1710 H1674 0.931 . S
C1710 C1709 1.376 . S
C1710 C1711 1.375 1_655 S
C1711 C1693 1.511 . S
C1711 C1710 1.375 1_455 S
C1711 C1712 1.329 1_455 S
C1712 H1675 0.929 . S
C1712 C1711 1.329 1_655 S
C1712 C1713 1.443 . S
C1713 H1677 0.932 . S
C1713 C1708 1.388 . S
C1713 C1712 1.443 . S
H1714 C1741 0.929 . S
N1715 C1740 1.433 . S
N1715 C1746 1.435 . S
N1715 C1752 1.423 . S
H1716 C1742 0.930 . S
H1717 C1745 0.931 . S
H1718 C1744 0.929 . S
H1719 C1747 0.930 . S
H1720 C1748 0.932 . S
H1721 C1751 0.929 . S
H1722 C1750 0.931 . S
H1723 C1753 0.929 . S
H1724 C1757 0.932 . S
H1725 C1754 0.931 . S
H1726 C1756 0.929 . S
H1727 C1759 0.929 . S
H1728 C1760 0.930 . S
H1729 C1762 0.929 . S
H1730 C1763 0.931 . S
H1731 C1765 0.930 . S
H1732 C1766 0.932 . S
H1733 C1768 0.931 . S
H1734 C1769 0.929 . S
H1735 C1771 0.929 . S
H1736 C1772 0.931 . S
H1737 C1774 0.929 . S
N1738 C1758 1.433 . S
N1738 C1764 1.435 . S
N1738 C1770 1.423 . S
H1739 C1775 0.932 . S
C1740 N1715 1.433 . S
C1740 C1741 1.363 . S
C1740 C1745 1.370 . S
C1741 H1714 0.929 . S
C1741 C1740 1.363 . S
C1741 C1742 1.385 . S
C1742 H1716 0.930 . S
C1742 C1741 1.385 . S
C1742 C1743 1.357 . S
C1743 C1742 1.357 . S
C1743 C1744 1.406 . S
C1744 H1718 0.929 . S
C1744 C1743 1.406 . S
C1744 C1745 1.391 . S
C1745 H1717 0.931 . S
C1745 C1740 1.370 . S
C1745 C1744 1.391 . S
C1746 N1715 1.435 . S
C1746 C1747 1.358 . S
C1746 C1751 1.371 . S
C1747 H1719 0.930 . S
C1747 C1746 1.358 . S
C1747 C1748 1.405 . S
C1748 H1720 0.932 . S
C1748 C1747 1.405 . S
C1748 C1749 1.383 . S
C1749 C1748 1.383 . S
C1749 C1750 1.393 . S
C1750 H1722 0.931 . S
C1750 C1749 1.393 . S
C1750 C1751 1.382 . S
C1751 H1721 0.929 . S
C1751 C1746 1.371 . S
C1751 C1750 1.382 . S
C1752 N1715 1.423 . S
C1752 C1753 1.362 . S
C1752 C1757 1.388 . S
C1753 H1723 0.929 . S
C1753 C1752 1.362 . S
C1753 C1754 1.376 . S
C1754 H1725 0.931 . S
C1754 C1753 1.376 . S
C1754 C1755 1.396 . S
C1755 C1754 1.396 . S
C1755 C1756 1.348 . S
C1755 C1773 1.472 1_565 S
C1756 H1726 0.929 . S
C1756 C1755 1.348 . S
C1756 C1757 1.443 . S
C1757 H1724 0.932 . S
C1757 C1752 1.388 . S
C1757 C1756 1.443 . S
C1758 N1738 1.433 . S
C1758 C1759 1.363 . S
C1758 C1763 1.370 . S
C1759 H1727 0.929 . S
C1759 C1758 1.363 . S
C1759 C1760 1.385 . S
C1760 H1728 0.930 . S
C1760 C1759 1.385 . S
C1760 C1761 1.357 . S
C1761 C1760 1.357 . S
C1761 C1762 1.406 . S
C1762 H1729 0.929 . S
C1762 C1761 1.406 . S
C1762 C1763 1.391 . S
C1763 H1730 0.931 . S
C1763 C1758 1.370 . S
C1763 C1762 1.391 . S
C1764 N1738 1.435 . S
C1764 C1765 1.358 . S
C1764 C1769 1.371 . S
C1765 H1731 0.930 . S
C1765 C1764 1.358 . S
C1765 C1766 1.405 . S
C1766 H1732 0.932 . S
C1766 C1765 1.405 . S
C1766 C1767 1.383 . S
C1767 C1766 1.383 . S
C1767 C1768 1.393 . S
C1768 H1733 0.931 . S
C1768 C1767 1.393 . S
C1768 C1769 1.382 . S
C1769 H1734 0.929 . S
C1769 C1764 1.371 . S
C1769 C1768 1.382 . S
C1770 N1738 1.423 . S
C1770 C1771 1.362 . S
C1770 C1775 1.388 . S
C1771 H1735 0.929 . S
C1771 C1770 1.362 . S
C1771 C1772 1.376 . S
C1772 H1736 0.931 . S
C1772 C1771 1.376 . S
C1772 C1773 1.396 . S
C1773 C1755 1.472 1_545 S
C1773 C1772 1.396 . S
C1773 C1774 1.348 . S
C1774 H1737 0.929 . S
C1774 C1773 1.348 . S
C1774 C1775 1.443 . S
C1775 H1739 0.932 . S
C1775 C1770 1.388 . S
C1775 C1774 1.443 . S
H1776 C1803 0.929 . S
N1777 C1802 1.433 . S
N1777 C1808 1.435 . S
N1777 C1814 1.423 . S
H1778 C1804 0.930 . S
H1779 C1807 0.931 . S
H1780 C1806 0.929 . S
H1781 C1809 0.930 . S
H1782 C1810 0.932 . S
H1783 C1813 0.929 . S
H1784 C1812 0.931 . S
H1785 C1815 0.929 . S
H1786 C1819 0.932 . S
H1787 C1816 0.931 . S
H1788 C1818 0.929 . S
H1789 C1821 0.929 . S
H1790 C1822 0.930 . S
H1791 C1824 0.929 . S
H1792 C1825 0.931 . S
H1793 C1827 0.930 . S
H1794 C1828 0.932 . S
H1795 C1830 0.931 . S
H1796 C1831 0.929 . S
H1797 C1833 0.929 . S
H1798 C1834 0.931 . S
H1799 C1836 0.925 . S
N1800 C1820 1.433 . S
N1800 C1826 1.435 . S
N1800 C1832 1.423 . S
H1801 C1837 0.932 . S
C1802 N1777 1.433 . S
C1802 C1803 1.363 . S
C1802 C1807 1.370 . S
C1803 H1776 0.929 . S
C1803 C1802 1.363 . S
C1803 C1804 1.385 . S
C1804 H1778 0.930 . S
C1804 C1803 1.385 . S
C1804 C1805 1.357 . S
C1805 C1804 1.357 . S
C1805 C1806 1.406 . S
C1806 H1780 0.929 . S
C1806 C1805 1.406 . S
C1806 C1807 1.391 . S
C1807 H1779 0.931 . S
C1807 C1802 1.370 . S
C1807 C1806 1.391 . S
C1808 N1777 1.435 . S
C1808 C1809 1.358 . S
C1808 C1813 1.371 . S
C1809 H1781 0.930 . S
C1809 C1808 1.358 . S
C1809 C1810 1.405 . S
C1810 H1782 0.932 . S
C1810 C1809 1.405 . S
C1810 C1811 1.383 . S
C1811 C1810 1.383 . S
C1811 C1812 1.393 . S
C1812 H1784 0.931 . S
C1812 C1811 1.393 . S
C1812 C1813 1.382 . S
C1813 H1783 0.929 . S
C1813 C1808 1.371 . S
C1813 C1812 1.382 . S
C1814 N1777 1.423 . S
C1814 C1815 1.362 . S
C1814 C1819 1.388 . S
C1815 H1785 0.929 . S
C1815 C1814 1.362 . S
C1815 C1816 1.376 . S
C1816 H1787 0.931 . S
C1816 C1815 1.376 . S
C1816 C1817 1.396 . S
C1817 C1816 1.396 . S
C1817 C1818 1.348 . S
C1817 C1835 1.472 . S
C1818 H1788 0.929 . S
C1818 C1817 1.348 . S
C1818 C1819 1.443 . S
C1819 H1786 0.932 . S
C1819 C1814 1.388 . S
C1819 C1818 1.443 . S
C1820 N1800 1.433 . S
C1820 C1821 1.363 . S
C1820 C1825 1.370 . S
C1821 H1789 0.929 . S
C1821 C1820 1.363 . S
C1821 C1822 1.385 . S
C1822 H1790 0.930 . S
C1822 C1821 1.385 . S
C1822 C1823 1.357 . S
C1823 C1822 1.357 . S
C1823 C1824 1.406 . S
C1824 H1791 0.929 . S
C1824 C1823 1.406 . S
C1824 C1825 1.391 . S
C1825 H1792 0.931 . S
C1825 C1820 1.370 . S
C1825 C1824 1.391 . S
C1826 N1800 1.435 . S
C1826 C1827 1.358 . S
C1826 C1831 1.371 . S
C1827 H1793 0.930 . S
C1827 C1826 1.358 . S
C1827 C1828 1.405 . S
C1828 H1794 0.932 . S
C1828 C1827 1.405 . S
C1828 C1829 1.383 . S
C1829 C1828 1.383 . S
C1829 C1830 1.393 . S
C1830 H1795 0.931 . S
C1830 C1829 1.393 . S
C1830 C1831 1.382 . S
C1831 H1796 0.929 . S
C1831 C1826 1.371 . S
C1831 C1830 1.382 . S
C1832 N1800 1.423 . S
C1832 C1833 1.362 . S
C1832 C1837 1.388 . S
C1833 H1797 0.929 . S
C1833 C1832 1.362 . S
C1833 C1834 1.376 . S
C1834 H1798 0.931 . S
C1834 C1833 1.376 . S
C1834 C1835 1.396 1_655 S
C1835 C1817 1.472 . S
C1835 C1834 1.396 1_455 S
C1835 C1836 1.348 1_455 S
C1836 H1799 0.925 . S
C1836 C1835 1.348 1_655 S
C1836 C1837 1.443 . S
C1837 H1801 0.932 . S
C1837 C1832 1.388 . S
C1837 C1836 1.443 . S
H1838 C1865 0.929 . S
N1839 C1864 1.433 . S
N1839 C1870 1.435 . S
N1839 C1876 1.423 . S
H1840 C1866 0.930 . S
H1841 C1869 0.931 . S
H1842 C1868 0.929 . S
H1843 C1871 0.930 . S
H1844 C1872 0.932 . S
H1845 C1875 0.929 . S
H1846 C1874 0.931 . S
H1847 C1877 0.929 . S
H1848 C1881 0.932 . S
H1849 C1878 0.931 . S
H1850 C1880 0.929 . S
H1851 C1883 0.929 . S
H1852 C1884 0.930 . S
H1853 C1886 0.929 . S
H1854 C1887 0.931 . S
H1855 C1889 0.930 . S
H1856 C1890 0.932 . S
H1857 C1892 0.931 . S
H1858 C1893 0.929 . S
H1859 C1895 0.929 . S
H1860 C1896 0.931 . S
H1861 C1898 0.929 . S
N1862 C1882 1.433 . S
N1862 C1888 1.435 . S
N1862 C1894 1.423 . S
H1863 C1899 0.932 . S
C1864 N1839 1.433 . S
C1864 C1865 1.363 . S
C1864 C1869 1.370 . S
C1865 H1838 0.929 . S
C1865 C1864 1.363 . S
C1865 C1866 1.385 . S
C1866 H1840 0.930 . S
C1866 C1865 1.385 . S
C1866 C1867 1.357 . S
C1867 C1866 1.357 . S
C1867 C1868 1.406 . S
C1868 H1842 0.929 . S
C1868 C1867 1.406 . S
C1868 C1869 1.391 . S
C1869 H1841 0.931 . S
C1869 C1864 1.370 . S
C1869 C1868 1.391 . S
C1870 N1839 1.435 . S
C1870 C1871 1.358 . S
C1870 C1875 1.371 . S
C1871 H1843 0.930 . S
C1871 C1870 1.358 . S
C1871 C1872 1.405 . S
C1872 H1844 0.932 . S
C1872 C1871 1.405 . S
C1872 C1873 1.383 . S
C1873 C1872 1.383 . S
C1873 C1874 1.393 . S
C1874 H1846 0.931 . S
C1874 C1873 1.393 . S
C1874 C1875 1.382 . S
C1875 H1845 0.929 . S
C1875 C1870 1.371 . S
C1875 C1874 1.382 . S
C1876 N1839 1.423 . S
C1876 C1877 1.362 . S
C1876 C1881 1.388 . S
C1877 H1847 0.929 . S
C1877 C1876 1.362 . S
C1877 C1878 1.376 . S
C1878 H1849 0.931 . S
C1878 C1877 1.376 . S
C1878 C1879 1.396 . S
C1879 C1878 1.396 . S
C1879 C1880 1.348 . S
C1879 C1897 1.472 1_545 S
C1880 H1850 0.929 . S
C1880 C1879 1.348 . S
C1880 C1881 1.443 . S
C1881 H1848 0.932 . S
C1881 C1876 1.388 . S
C1881 C1880 1.443 . S
C1882 N1862 1.433 . S
C1882 C1883 1.363 . S
C1882 C1887 1.370 . S
C1883 H1851 0.929 . S
C1883 C1882 1.363 . S
C1883 C1884 1.385 . S
C1884 H1852 0.930 . S
C1884 C1883 1.385 . S
C1884 C1885 1.357 . S
C1885 C1884 1.357 . S
C1885 C1886 1.406 . S
C1886 H1853 0.929 . S
C1886 C1885 1.406 . S
C1886 C1887 1.391 . S
C1887 H1854 0.931 . S
C1887 C1882 1.370 . S
C1887 C1886 1.391 . S
C1888 N1862 1.435 . S
C1888 C1889 1.358 . S
C1888 C1893 1.371 . S
C1889 H1855 0.930 . S
C1889 C1888 1.358 . S
C1889 C1890 1.405 . S
C1890 H1856 0.932 . S
C1890 C1889 1.405 . S
C1890 C1891 1.383 . S
C1891 C1890 1.383 . S
C1891 C1892 1.393 . S
C1892 H1857 0.931 . S
C1892 C1891 1.393 . S
C1892 C1893 1.382 . S
C1893 H1858 0.929 . S
C1893 C1888 1.371 . S
C1893 C1892 1.382 . S
C1894 N1862 1.423 . S
C1894 C1895 1.362 . S
C1894 C1899 1.388 . S
C1895 H1859 0.929 . S
C1895 C1894 1.362 . S
C1895 C1896 1.376 . S
C1896 H1860 0.931 . S
C1896 C1895 1.376 . S
C1896 C1897 1.396 . S
C1897 C1879 1.472 1_565 S
C1897 C1896 1.396 . S
C1897 C1898 1.348 . S
C1898 H1861 0.929 . S
C1898 C1897 1.348 . S
C1898 C1899 1.443 . S
C1899 H1863 0.932 . S
C1899 C1894 1.388 . S
C1899 C1898 1.443 . S
H1900 C1927 0.929 . S
N1901 C1926 1.433 . S
N1901 C1932 1.435 . S
N1901 C1938 1.423 . S
H1902 C1928 0.930 . S
H1903 C1931 0.931 . S
H1904 C1930 0.929 . S
H1905 C1933 0.930 . S
H1906 C1934 0.932 . S
H1907 C1937 0.929 . S
H1908 C1936 0.931 . S
H1909 C1939 0.929 . S
H1910 C1943 0.932 . S
H1911 C1940 0.931 . S
H1912 C1942 0.929 . S
H1913 C1945 0.929 . S
H1914 C1946 0.930 . S
H1915 C1948 0.929 . S
H1916 C1949 0.931 . S
H1917 C1951 0.930 . S
H1918 C1952 0.932 . S
H1919 C1954 0.931 . S
H1920 C1955 0.929 . S
H1921 C1957 0.929 . S
H1922 C1958 0.931 . S
H1923 C1960 0.929 . S
N1924 C1944 1.433 . S
N1924 C1950 1.435 . S
N1924 C1956 1.423 . S
H1925 C1961 0.932 . S
C1926 N1901 1.433 . S
C1926 C1927 1.363 . S
C1926 C1931 1.370 . S
C1927 H1900 0.929 . S
C1927 C1926 1.363 . S
C1927 C1928 1.385 . S
C1928 H1902 0.930 . S
C1928 C1927 1.385 . S
C1928 C1929 1.357 . S
C1929 C1928 1.357 . S
C1929 C1930 1.406 . S
C1930 H1904 0.929 . S
C1930 C1929 1.406 . S
C1930 C1931 1.391 . S
C1931 H1903 0.931 . S
C1931 C1926 1.370 . S
C1931 C1930 1.391 . S
C1932 N1901 1.435 . S
C1932 C1933 1.358 . S
C1932 C1937 1.371 . S
C1933 H1905 0.930 . S
C1933 C1932 1.358 . S
C1933 C1934 1.405 . S
C1934 H1906 0.932 . S
C1934 C1933 1.405 . S
C1934 C1935 1.383 . S
C1935 C1934 1.383 . S
C1935 C1936 1.393 . S
C1936 H1908 0.931 . S
C1936 C1935 1.393 . S
C1936 C1937 1.382 . S
C1937 H1907 0.929 . S
C1937 C1932 1.371 . S
C1937 C1936 1.382 . S
C1938 N1901 1.423 . S
C1938 C1939 1.362 . S
C1938 C1943 1.388 . S
C1939 H1909 0.929 . S
C1939 C1938 1.362 . S
C1939 C1940 1.376 . S
C1940 H1911 0.931 . S
C1940 C1939 1.376 . S
C1940 C1941 1.406 . S
C1941 C1940 1.406 . S
C1941 C1942 1.358 . S
C1941 C1959 1.454 1_655 S
C1942 H1912 0.929 . S
C1942 C1941 1.358 . S
C1942 C1943 1.443 . S
C1943 H1910 0.932 . S
C1943 C1938 1.388 . S
C1943 C1942 1.443 . S
C1944 N1924 1.433 . S
C1944 C1945 1.363 . S
C1944 C1949 1.370 . S
C1945 H1913 0.929 . S
C1945 C1944 1.363 . S
C1945 C1946 1.385 . S
C1946 H1914 0.930 . S
C1946 C1945 1.385 . S
C1946 C1947 1.357 . S
C1947 C1946 1.357 . S
C1947 C1948 1.406 . S
C1948 H1915 0.929 . S
C1948 C1947 1.406 . S
C1948 C1949 1.391 . S
C1949 H1916 0.931 . S
C1949 C1944 1.370 . S
C1949 C1948 1.391 . S
C1950 N1924 1.435 . S
C1950 C1951 1.358 . S
C1950 C1955 1.371 . S
C1951 H1917 0.930 . S
C1951 C1950 1.358 . S
C1951 C1952 1.405 . S
C1952 H1918 0.932 . S
C1952 C1951 1.405 . S
C1952 C1953 1.383 . S
C1953 C1952 1.383 . S
C1953 C1954 1.393 . S
C1954 H1919 0.931 . S
C1954 C1953 1.393 . S
C1954 C1955 1.382 . S
C1955 H1920 0.929 . S
C1955 C1950 1.371 . S
C1955 C1954 1.382 . S
C1956 N1924 1.423 . S
C1956 C1957 1.362 . S
C1956 C1961 1.388 . S
C1957 H1921 0.929 . S
C1957 C1956 1.362 . S
C1957 C1958 1.376 . S
C1958 H1922 0.931 . S
C1958 C1957 1.376 . S
C1958 C1959 1.396 . S
C1959 C1941 1.454 1_455 S
C1959 C1958 1.396 . S
C1959 C1960 1.348 . S
C1960 H1923 0.929 . S
C1960 C1959 1.348 . S
C1960 C1961 1.443 . S
C1961 H1925 0.932 . S
C1961 C1956 1.388 . S
C1961 C1960 1.443 . S
H1962 C1989 0.929 . S
N1963 C1988 1.433 . S
N1963 C1994 1.435 . S
N1963 C2000 1.423 . S
H1964 C1990 0.930 . S
H1965 C1993 0.931 . S
H1966 C1992 0.929 . S
H1967 C1995 0.930 . S
H1968 C1996 0.932 . S
H1969 C1999 0.929 . S
H1970 C1998 0.931 . S
H1971 C2001 0.929 . S
H1972 C2005 0.932 . S
H1973 C2002 0.931 . S
H1974 C2004 0.929 . S
H1975 C2007 0.929 . S
H1976 C2008 0.930 . S
H1977 C2010 0.929 . S
H1978 C2011 0.931 . S
H1979 C2013 0.930 . S
H1980 C2014 0.932 . S
H1981 C2016 0.931 . S
H1982 C2017 0.929 . S
H1983 C2019 0.929 . S
H1984 C2020 0.931 . S
H1985 C2022 0.929 . S
N1986 C2006 1.433 . S
N1986 C2012 1.435 . S
N1986 C2018 1.423 . S
H1987 C2023 0.932 . S
C1988 N1963 1.433 . S
C1988 C1989 1.363 . S
C1988 C1993 1.370 . S
C1989 H1962 0.929 . S
C1989 C1988 1.363 . S
C1989 C1990 1.385 . S
C1990 H1964 0.930 . S
C1990 C1989 1.385 . S
C1990 C1991 1.357 . S
C1991 C1990 1.357 . S
C1991 C1992 1.406 . S
C1992 H1966 0.929 . S
C1992 C1991 1.406 . S
C1992 C1993 1.391 . S
C1993 H1965 0.931 . S
C1993 C1988 1.370 . S
C1993 C1992 1.391 . S
C1994 N1963 1.435 . S
C1994 C1995 1.358 . S
C1994 C1999 1.371 . S
C1995 H1967 0.930 . S
C1995 C1994 1.358 . S
C1995 C1996 1.405 . S
C1996 H1968 0.932 . S
C1996 C1995 1.405 . S
C1996 C1997 1.383 . S
C1997 C1996 1.383 . S
C1997 C1998 1.393 . S
C1998 H1970 0.931 . S
C1998 C1997 1.393 . S
C1998 C1999 1.382 . S
C1999 H1969 0.929 . S
C1999 C1994 1.371 . S
C1999 C1998 1.382 . S
C2000 N1963 1.423 . S
C2000 C2001 1.362 . S
C2000 C2005 1.388 . S
C2001 H1971 0.929 . S
C2001 C2000 1.362 . S
C2001 C2002 1.376 . S
C2002 H1973 0.931 . S
C2002 C2001 1.376 . S
C2002 C2003 1.396 . S
C2003 C2002 1.396 . S
C2003 C2004 1.348 . S
C2003 C2021 1.472 1_565 S
C2004 H1974 0.929 . S
C2004 C2003 1.348 . S
C2004 C2005 1.443 . S
C2005 H1972 0.932 . S
C2005 C2000 1.388 . S
C2005 C2004 1.443 . S
C2006 N1986 1.433 . S
C2006 C2007 1.363 . S
C2006 C2011 1.370 . S
C2007 H1975 0.929 . S
C2007 C2006 1.363 . S
C2007 C2008 1.385 . S
C2008 H1976 0.930 . S
C2008 C2007 1.385 . S
C2008 C2009 1.357 . S
C2009 C2008 1.357 . S
C2009 C2010 1.406 . S
C2010 H1977 0.929 . S
C2010 C2009 1.406 . S
C2010 C2011 1.391 . S
C2011 H1978 0.931 . S
C2011 C2006 1.370 . S
C2011 C2010 1.391 . S
C2012 N1986 1.435 . S
C2012 C2013 1.358 . S
C2012 C2017 1.371 . S
C2013 H1979 0.930 . S
C2013 C2012 1.358 . S
C2013 C2014 1.405 . S
C2014 H1980 0.932 . S
C2014 C2013 1.405 . S
C2014 C2015 1.383 . S
C2015 C2014 1.383 . S
C2015 C2016 1.393 . S
C2016 H1981 0.931 . S
C2016 C2015 1.393 . S
C2016 C2017 1.382 . S
C2017 H1982 0.929 . S
C2017 C2012 1.371 . S
C2017 C2016 1.382 . S
C2018 N1986 1.423 . S
C2018 C2019 1.362 . S
C2018 C2023 1.388 . S
C2019 H1983 0.929 . S
C2019 C2018 1.362 . S
C2019 C2020 1.376 . S
C2020 H1984 0.931 . S
C2020 C2019 1.376 . S
C2020 C2021 1.396 . S
C2021 C2003 1.472 1_545 S
C2021 C2020 1.396 . S
C2021 C2022 1.348 . S
C2022 H1985 0.929 . S
C2022 C2021 1.348 . S
C2022 C2023 1.443 . S
C2023 H1987 0.932 . S
C2023 C2018 1.388 . S
C2023 C2022 1.443 . S
H2024 C2051 0.929 . S
N2025 C2050 1.433 . S
N2025 C2056 1.435 . S
N2025 C2062 1.423 . S
H2026 C2052 0.930 . S
H2027 C2055 0.931 . S
H2028 C2054 0.929 . S
H2029 C2057 0.930 . S
H2030 C2058 0.932 . S
H2031 C2061 0.929 . S
H2032 C2060 0.931 . S
H2033 C2063 0.929 . S
H2034 C2067 0.932 . S
H2035 C2064 0.931 . S
H2036 C2066 0.929 . S
H2037 C2069 0.929 . S
H2038 C2070 0.930 . S
H2039 C2072 0.929 . S
H2040 C2073 0.931 . S
H2041 C2075 0.930 . S
H2042 C2076 0.932 . S
H2043 C2078 0.931 . S
H2044 C2079 0.929 . S
H2045 C2081 0.929 . S
H2046 C2082 0.931 . S
H2047 C2084 0.929 . S
N2048 C2068 1.433 . S
N2048 C2074 1.435 . S
N2048 C2080 1.423 . S
H2049 C2085 0.932 . S
C2050 N2025 1.433 . S
C2050 C2051 1.363 . S
C2050 C2055 1.370 . S
C2051 H2024 0.929 . S
C2051 C2050 1.363 . S
C2051 C2052 1.385 . S
C2052 H2026 0.930 . S
C2052 C2051 1.385 . S
C2052 C2053 1.357 . S
C2053 C2052 1.357 . S
C2053 C2054 1.406 . S
C2054 H2028 0.929 . S
C2054 C2053 1.406 . S
C2054 C2055 1.391 . S
C2055 H2027 0.931 . S
C2055 C2050 1.370 . S
C2055 C2054 1.391 . S
C2056 N2025 1.435 . S
C2056 C2057 1.358 . S
C2056 C2061 1.371 . S
C2057 H2029 0.930 . S
C2057 C2056 1.358 . S
C2057 C2058 1.405 . S
C2058 H2030 0.932 . S
C2058 C2057 1.405 . S
C2058 C2059 1.383 . S
C2059 C2058 1.383 . S
C2059 C2060 1.393 . S
C2060 H2032 0.931 . S
C2060 C2059 1.393 . S
C2060 C2061 1.382 . S
C2061 H2031 0.929 . S
C2061 C2056 1.371 . S
C2061 C2060 1.382 . S
C2062 N2025 1.423 . S
C2062 C2063 1.362 . S
C2062 C2067 1.388 . S
C2063 H2033 0.929 . S
C2063 C2062 1.362 . S
C2063 C2064 1.376 . S
C2064 H2035 0.931 . S
C2064 C2063 1.376 . S
C2064 C2065 1.396 . S
C2065 C2064 1.396 . S
C2065 C2066 1.348 . S
C2065 C2083 1.472 . S
C2066 H2036 0.929 . S
C2066 C2065 1.348 . S
C2066 C2067 1.443 . S
C2067 H2034 0.932 . S
C2067 C2062 1.388 . S
C2067 C2066 1.443 . S
C2068 N2048 1.433 . S
C2068 C2069 1.363 . S
C2068 C2073 1.370 . S
C2069 H2037 0.929 . S
C2069 C2068 1.363 . S
C2069 C2070 1.385 . S
C2070 H2038 0.930 . S
C2070 C2069 1.385 . S
C2070 C2071 1.357 . S
C2071 C2070 1.357 . S
C2071 C2072 1.406 . S
C2072 H2039 0.929 . S
C2072 C2071 1.406 . S
C2072 C2073 1.391 . S
C2073 H2040 0.931 . S
C2073 C2068 1.370 . S
C2073 C2072 1.391 . S
C2074 N2048 1.435 . S
C2074 C2075 1.358 . S
C2074 C2079 1.371 . S
C2075 H2041 0.930 . S
C2075 C2074 1.358 . S
C2075 C2076 1.405 . S
C2076 H2042 0.932 . S
C2076 C2075 1.405 . S
C2076 C2077 1.383 . S
C2077 C2076 1.383 . S
C2077 C2078 1.393 . S
C2078 H2043 0.931 . S
C2078 C2077 1.393 . S
C2078 C2079 1.382 . S
C2079 H2044 0.929 . S
C2079 C2074 1.371 . S
C2079 C2078 1.382 . S
C2080 N2048 1.423 . S
C2080 C2081 1.362 . S
C2080 C2085 1.388 . S
C2081 H2045 0.929 . S
C2081 C2080 1.362 . S
C2081 C2082 1.376 . S
C2082 H2046 0.931 . S
C2082 C2081 1.376 . S
C2082 C2083 1.396 . S
C2083 C2065 1.472 . S
C2083 C2082 1.396 . S
C2083 C2084 1.348 . S
C2084 H2047 0.929 . S
C2084 C2083 1.348 . S
C2084 C2085 1.443 . S
C2085 H2049 0.932 . S
C2085 C2080 1.388 . S
C2085 C2084 1.443 . S
H2086 C2113 0.929 . S
N2087 C2112 1.433 . S
N2087 C2118 1.435 . S
N2087 C2124 1.423 . S
H2088 C2114 0.930 . S
H2089 C2117 0.931 . S
H2090 C2116 0.929 . S
H2091 C2119 0.930 . S
H2092 C2120 0.932 . S
H2093 C2123 0.929 . S
H2094 C2122 0.931 . S
H2095 C2125 0.929 . S
H2096 C2129 0.932 . S
H2097 C2126 0.931 . S
H2098 C2128 0.929 . S
H2099 C2131 0.929 . S
H2100 C2132 0.930 . S
H2101 C2134 0.929 . S
H2102 C2135 0.931 . S
H2103 C2137 0.930 . S
H2104 C2138 0.932 . S
H2105 C2140 0.931 . S
H2106 C2141 0.929 . S
H2107 C2143 0.929 . S
H2108 C2144 0.931 . S
H2109 C2146 0.929 . S
N2110 C2130 1.433 . S
N2110 C2136 1.435 . S
N2110 C2142 1.423 . S
H2111 C2147 0.932 . S
C2112 N2087 1.433 . S
C2112 C2113 1.363 . S
C2112 C2117 1.370 . S
C2113 H2086 0.929 . S
C2113 C2112 1.363 . S
C2113 C2114 1.385 . S
C2114 H2088 0.930 . S
C2114 C2113 1.385 . S
C2114 C2115 1.357 . S
C2115 C2114 1.357 . S
C2115 C2116 1.406 . S
C2116 H2090 0.929 . S
C2116 C2115 1.406 . S
C2116 C2117 1.391 . S
C2117 H2089 0.931 . S
C2117 C2112 1.370 . S
C2117 C2116 1.391 . S
C2118 N2087 1.435 . S
C2118 C2119 1.358 . S
C2118 C2123 1.371 . S
C2119 H2091 0.930 . S
C2119 C2118 1.358 . S
C2119 C2120 1.405 . S
C2120 H2092 0.932 . S
C2120 C2119 1.405 . S
C2120 C2121 1.383 . S
C2121 C2120 1.383 . S
C2121 C2122 1.393 . S
C2122 H2094 0.931 . S
C2122 C2121 1.393 . S
C2122 C2123 1.382 . S
C2123 H2093 0.929 . S
C2123 C2118 1.371 . S
C2123 C2122 1.382 . S
C2124 N2087 1.423 . S
C2124 C2125 1.362 . S
C2124 C2129 1.388 . S
C2125 H2095 0.929 . S
C2125 C2124 1.362 . S
C2125 C2126 1.376 . S
C2126 H2097 0.931 . S
C2126 C2125 1.376 . S
C2126 C2127 1.396 . S
C2127 C2126 1.396 . S
C2127 C2128 1.348 . S
C2127 C2145 1.472 . S
C2128 H2098 0.929 . S
C2128 C2127 1.348 . S
C2128 C2129 1.443 . S
C2129 H2096 0.932 . S
C2129 C2124 1.388 . S
C2129 C2128 1.443 . S
C2130 N2110 1.433 . S
C2130 C2131 1.363 . S
C2130 C2135 1.370 . S
C2131 H2099 0.929 . S
C2131 C2130 1.363 . S
C2131 C2132 1.385 . S
C2132 H2100 0.930 . S
C2132 C2131 1.385 . S
C2132 C2133 1.357 . S
C2133 C2132 1.357 . S
C2133 C2134 1.406 . S
C2134 H2101 0.929 . S
C2134 C2133 1.406 . S
C2134 C2135 1.391 . S
C2135 H2102 0.931 . S
C2135 C2130 1.370 . S
C2135 C2134 1.391 . S
C2136 N2110 1.435 . S
C2136 C2137 1.358 . S
C2136 C2141 1.371 . S
C2137 H2103 0.930 . S
C2137 C2136 1.358 . S
C2137 C2138 1.405 . S
C2138 H2104 0.932 . S
C2138 C2137 1.405 . S
C2138 C2139 1.383 . S
C2139 C2138 1.383 . S
C2139 C2140 1.393 . S
C2140 H2105 0.931 . S
C2140 C2139 1.393 . S
C2140 C2141 1.382 . S
C2141 H2106 0.929 . S
C2141 C2136 1.371 . S
C2141 C2140 1.382 . S
C2142 N2110 1.423 . S
C2142 C2143 1.362 . S
C2142 C2147 1.388 . S
C2143 H2107 0.929 . S
C2143 C2142 1.362 . S
C2143 C2144 1.376 . S
C2144 H2108 0.931 . S
C2144 C2143 1.376 . S
C2144 C2145 1.396 . S
C2145 C2127 1.472 . S
C2145 C2144 1.396 . S
C2145 C2146 1.348 . S
C2146 H2109 0.929 . S
C2146 C2145 1.348 . S
C2146 C2147 1.443 . S
C2147 H2111 0.932 . S
C2147 C2142 1.388 . S
C2147 C2146 1.443 . S
H2148 C2175 0.929 . S
N2149 C2174 1.433 . S
N2149 C2180 1.435 . S
N2149 C2186 1.423 . S
H2150 C2176 0.930 . S
H2151 C2179 0.931 . S
H2152 C2178 0.929 . S
H2153 C2181 0.930 . S
H2154 C2182 0.932 . S
H2155 C2185 0.929 . S
H2156 C2184 0.931 . S
H2157 C2187 0.929 . S
H2158 C2191 0.932 . S
H2159 C2188 0.931 . S
H2160 C2190 0.929 . S
H2161 C2193 0.929 . S
H2162 C2194 0.930 . S
H2163 C2196 0.929 . S
H2164 C2197 0.931 . S
H2165 C2199 0.930 . S
H2166 C2200 0.932 . S
H2167 C2202 0.931 . S
H2168 C2203 0.929 . S
H2169 C2205 0.929 . S
H2170 C2206 0.931 . S
H2171 C2208 0.929 . S
N2172 C2192 1.433 . S
N2172 C2198 1.435 . S
N2172 C2204 1.423 . S
H2173 C2209 0.932 . S
C2174 N2149 1.433 . S
C2174 C2175 1.363 . S
C2174 C2179 1.370 . S
C2175 H2148 0.929 . S
C2175 C2174 1.363 . S
C2175 C2176 1.385 . S
C2176 H2150 0.930 . S
C2176 C2175 1.385 . S
C2176 C2177 1.357 . S
C2177 C2176 1.357 . S
C2177 C2178 1.406 . S
C2178 H2152 0.929 . S
C2178 C2177 1.406 . S
C2178 C2179 1.391 . S
C2179 H2151 0.931 . S
C2179 C2174 1.370 . S
C2179 C2178 1.391 . S
C2180 N2149 1.435 . S
C2180 C2181 1.358 . S
C2180 C2185 1.371 . S
C2181 H2153 0.930 . S
C2181 C2180 1.358 . S
C2181 C2182 1.405 . S
C2182 H2154 0.932 . S
C2182 C2181 1.405 . S
C2182 C2183 1.383 . S
C2183 C2182 1.383 . S
C2183 C2184 1.393 . S
C2184 H2156 0.931 . S
C2184 C2183 1.393 . S
C2184 C2185 1.382 . S
C2185 H2155 0.929 . S
C2185 C2180 1.371 . S
C2185 C2184 1.382 . S
C2186 N2149 1.423 . S
C2186 C2187 1.362 . S
C2186 C2191 1.388 . S
C2187 H2157 0.929 . S
C2187 C2186 1.362 . S
C2187 C2188 1.376 . S
C2188 H2159 0.931 . S
C2188 C2187 1.376 . S
C2188 C2189 1.396 . S
C2189 C2188 1.396 . S
C2189 C2190 1.348 . S
C2189 C2207 1.472 . S
C2190 H2160 0.929 . S
C2190 C2189 1.348 . S
C2190 C2191 1.443 . S
C2191 H2158 0.932 . S
C2191 C2186 1.388 . S
C2191 C2190 1.443 . S
C2192 N2172 1.433 . S
C2192 C2193 1.363 . S
C2192 C2197 1.370 . S
C2193 H2161 0.929 . S
C2193 C2192 1.363 . S
C2193 C2194 1.385 . S
C2194 H2162 0.930 . S
C2194 C2193 1.385 . S
C2194 C2195 1.357 . S
C2195 C2194 1.357 . S
C2195 C2196 1.406 . S
C2196 H2163 0.929 . S
C2196 C2195 1.406 . S
C2196 C2197 1.391 . S
C2197 H2164 0.931 . S
C2197 C2192 1.370 . S
C2197 C2196 1.391 . S
C2198 N2172 1.435 . S
C2198 C2199 1.358 . S
C2198 C2203 1.371 . S
C2199 H2165 0.930 . S
C2199 C2198 1.358 . S
C2199 C2200 1.405 . S
C2200 H2166 0.932 . S
C2200 C2199 1.405 . S
C2200 C2201 1.383 . S
C2201 C2200 1.383 . S
C2201 C2202 1.393 . S
C2202 H2167 0.931 . S
C2202 C2201 1.393 . S
C2202 C2203 1.382 . S
C2203 H2168 0.929 . S
C2203 C2198 1.371 . S
C2203 C2202 1.382 . S
C2204 N2172 1.423 . S
C2204 C2205 1.362 . S
C2204 C2209 1.388 . S
C2205 H2169 0.929 . S
C2205 C2204 1.362 . S
C2205 C2206 1.376 . S
C2206 H2170 0.931 . S
C2206 C2205 1.376 . S
C2206 C2207 1.396 . S
C2207 C2189 1.472 . S
C2207 C2206 1.396 . S
C2207 C2208 1.348 . S
C2208 H2171 0.929 . S
C2208 C2207 1.348 . S
C2208 C2209 1.443 . S
C2209 H2173 0.932 . S
C2209 C2204 1.388 . S
C2209 C2208 1.443 . S
H2210 C2237 0.929 . S
N2211 C2236 1.433 . S
N2211 C2242 1.435 . S
N2211 C2248 1.423 . S
H2212 C2238 0.930 . S
H2213 C2241 0.931 . S
H2214 C2240 0.929 . S
H2215 C2243 0.930 . S
H2216 C2244 0.932 . S
H2217 C2247 0.929 . S
H2218 C2246 0.931 . S
H2219 C2249 0.929 . S
H2220 C2253 0.932 . S
H2221 C2250 0.931 . S
H2222 C2252 0.929 . S
H2223 C2255 0.929 . S
H2224 C2256 0.930 . S
H2225 C2258 0.929 . S
H2226 C2259 0.931 . S
H2227 C2261 0.930 . S
H2228 C2262 0.932 . S
H2229 C2264 0.931 . S
H2230 C2265 0.929 . S
H2231 C2267 0.929 . S
H2232 C2268 0.931 . S
H2233 C2270 0.929 . S
N2234 C2254 1.433 . S
N2234 C2260 1.435 . S
N2234 C2266 1.423 . S
H2235 C2271 0.932 . S
C2236 N2211 1.433 . S
C2236 C2237 1.363 . S
C2236 C2241 1.370 . S
C2237 H2210 0.929 . S
C2237 C2236 1.363 . S
C2237 C2238 1.385 . S
C2238 H2212 0.930 . S
C2238 C2237 1.385 . S
C2238 C2239 1.357 . S
C2239 C2238 1.357 . S
C2239 C2240 1.406 . S
C2240 H2214 0.929 . S
C2240 C2239 1.406 . S
C2240 C2241 1.391 . S
C2241 H2213 0.931 . S
C2241 C2236 1.370 . S
C2241 C2240 1.391 . S
C2242 N2211 1.435 . S
C2242 C2243 1.358 . S
C2242 C2247 1.371 . S
C2243 H2215 0.930 . S
C2243 C2242 1.358 . S
C2243 C2244 1.405 . S
C2244 H2216 0.932 . S
C2244 C2243 1.405 . S
C2244 C2245 1.383 . S
C2245 C2244 1.383 . S
C2245 C2246 1.393 . S
C2246 H2218 0.931 . S
C2246 C2245 1.393 . S
C2246 C2247 1.382 . S
C2247 H2217 0.929 . S
C2247 C2242 1.371 . S
C2247 C2246 1.382 . S
C2248 N2211 1.423 . S
C2248 C2249 1.362 . S
C2248 C2253 1.388 . S
C2249 H2219 0.929 . S
C2249 C2248 1.362 . S
C2249 C2250 1.376 . S
C2250 H2221 0.931 . S
C2250 C2249 1.376 . S
C2250 C2251 1.396 . S
C2251 C2250 1.396 . S
C2251 C2252 1.348 . S
C2251 C2269 1.472 . S
C2252 H2222 0.929 . S
C2252 C2251 1.348 . S
C2252 C2253 1.443 . S
C2253 H2220 0.932 . S
C2253 C2248 1.388 . S
C2253 C2252 1.443 . S
C2254 N2234 1.433 . S
C2254 C2255 1.363 . S
C2254 C2259 1.370 . S
C2255 H2223 0.929 . S
C2255 C2254 1.363 . S
C2255 C2256 1.385 . S
C2256 H2224 0.930 . S
C2256 C2255 1.385 . S
C2256 C2257 1.357 . S
C2257 C2256 1.357 . S
C2257 C2258 1.406 . S
C2258 H2225 0.929 . S
C2258 C2257 1.406 . S
C2258 C2259 1.391 . S
C2259 H2226 0.931 . S
C2259 C2254 1.370 . S
C2259 C2258 1.391 . S
C2260 N2234 1.435 . S
C2260 C2261 1.358 . S
C2260 C2265 1.371 . S
C2261 H2227 0.930 . S
C2261 C2260 1.358 . S
C2261 C2262 1.405 . S
C2262 H2228 0.932 . S
C2262 C2261 1.405 . S
C2262 C2263 1.383 . S
C2263 C2262 1.383 . S
C2263 C2264 1.393 . S
C2264 H2229 0.931 . S
C2264 C2263 1.393 . S
C2264 C2265 1.382 . S
C2265 H2230 0.929 . S
C2265 C2260 1.371 . S
C2265 C2264 1.382 . S
C2266 N2234 1.423 . S
C2266 C2267 1.362 . S
C2266 C2271 1.388 . S
C2267 H2231 0.929 . S
C2267 C2266 1.362 . S
C2267 C2268 1.376 . S
C2268 H2232 0.931 . S
C2268 C2267 1.376 . S
C2268 C2269 1.396 . S
C2269 C2251 1.472 . S
C2269 C2268 1.396 . S
C2269 C2270 1.348 . S
C2270 H2233 0.929 . S
C2270 C2269 1.348 . S
C2270 C2271 1.443 . S
C2271 H2235 0.932 . S
C2271 C2266 1.388 . S
C2271 C2270 1.443 . S
H2272 C2299 0.929 . S
N2273 C2298 1.433 . S
N2273 C2304 1.435 . S
N2273 C2310 1.423 . S
H2274 C2300 0.930 . S
H2275 C2303 0.931 . S
H2276 C2302 0.929 . S
H2277 C2305 0.930 . S
H2278 C2306 0.932 . S
H2279 C2309 0.929 . S
H2280 C2308 0.931 . S
H2281 C2311 0.929 . S
H2282 C2315 0.932 . S
H2283 C2312 0.931 . S
H2284 C2314 0.929 . S
H2285 C2317 0.929 . S
H2286 C2318 0.930 . S
H2287 C2320 0.929 . S
H2288 C2321 0.931 . S
H2289 C2323 0.930 . S
H2290 C2324 0.932 . S
H2291 C2326 0.931 . S
H2292 C2327 0.929 . S
H2293 C2329 0.929 . S
H2294 C2330 0.931 . S
H2295 C2332 0.929 . S
N2296 C2316 1.433 . S
N2296 C2322 1.435 . S
N2296 C2328 1.423 . S
H2297 C2333 0.932 . S
C2298 N2273 1.433 . S
C2298 C2299 1.363 . S
C2298 C2303 1.370 . S
C2299 H2272 0.929 . S
C2299 C2298 1.363 . S
C2299 C2300 1.385 . S
C2300 H2274 0.930 . S
C2300 C2299 1.385 . S
C2300 C2301 1.357 . S
C2301 C2300 1.357 . S
C2301 C2302 1.406 . S
C2302 H2276 0.929 . S
C2302 C2301 1.406 . S
C2302 C2303 1.391 . S
C2303 H2275 0.931 . S
C2303 C2298 1.370 . S
C2303 C2302 1.391 . S
C2304 N2273 1.435 . S
C2304 C2305 1.358 . S
C2304 C2309 1.371 . S
C2305 H2277 0.930 . S
C2305 C2304 1.358 . S
C2305 C2306 1.405 . S
C2306 H2278 0.932 . S
C2306 C2305 1.405 . S
C2306 C2307 1.383 . S
C2307 C2306 1.383 . S
C2307 C2308 1.393 . S
C2308 H2280 0.931 . S
C2308 C2307 1.393 . S
C2308 C2309 1.382 . S
C2309 H2279 0.929 . S
C2309 C2304 1.371 . S
C2309 C2308 1.382 . S
C2310 N2273 1.423 . S
C2310 C2311 1.362 . S
C2310 C2315 1.388 . S
C2311 H2281 0.929 . S
C2311 C2310 1.362 . S
C2311 C2312 1.376 . S
C2312 H2283 0.931 . S
C2312 C2311 1.376 . S
C2312 C2313 1.396 . S
C2313 C2312 1.396 . S
C2313 C2314 1.348 . S
C2313 C2331 1.472 . S
C2314 H2284 0.929 . S
C2314 C2313 1.348 . S
C2314 C2315 1.443 . S
C2315 H2282 0.932 . S
C2315 C2310 1.388 . S
C2315 C2314 1.443 . S
C2316 N2296 1.433 . S
C2316 C2317 1.363 . S
C2316 C2321 1.370 . S
C2317 H2285 0.929 . S
C2317 C2316 1.363 . S
C2317 C2318 1.385 . S
C2318 H2286 0.930 . S
C2318 C2317 1.385 . S
C2318 C2319 1.357 . S
C2319 C2318 1.357 . S
C2319 C2320 1.406 . S
C2320 H2287 0.929 . S
C2320 C2319 1.406 . S
C2320 C2321 1.391 . S
C2321 H2288 0.931 . S
C2321 C2316 1.370 . S
C2321 C2320 1.391 . S
C2322 N2296 1.435 . S
C2322 C2323 1.358 . S
C2322 C2327 1.371 . S
C2323 H2289 0.930 . S
C2323 C2322 1.358 . S
C2323 C2324 1.405 . S
C2324 H2290 0.932 . S
C2324 C2323 1.405 . S
C2324 C2325 1.383 . S
C2325 C2324 1.383 . S
C2325 C2326 1.393 . S
C2326 H2291 0.931 . S
C2326 C2325 1.393 . S
C2326 C2327 1.382 . S
C2327 H2292 0.929 . S
C2327 C2322 1.371 . S
C2327 C2326 1.382 . S
C2328 N2296 1.423 . S
C2328 C2329 1.362 . S
C2328 C2333 1.388 . S
C2329 H2293 0.929 . S
C2329 C2328 1.362 . S
C2329 C2330 1.376 . S
C2330 H2294 0.931 . S
C2330 C2329 1.376 . S
C2330 C2331 1.396 . S
C2331 C2313 1.472 . S
C2331 C2330 1.396 . S
C2331 C2332 1.348 . S
C2332 H2295 0.929 . S
C2332 C2331 1.348 . S
C2332 C2333 1.443 . S
C2333 H2297 0.932 . S
C2333 C2328 1.388 . S
C2333 C2332 1.443 . S
H2334 C2361 0.929 . S
N2335 C2360 1.433 . S
N2335 C2366 1.435 . S
N2335 C2372 1.423 . S
H2336 C2362 0.930 . S
H2337 C2365 0.931 . S
H2338 C2364 0.929 . S
H2339 C2367 0.930 . S
H2340 C2368 0.932 . S
H2341 C2371 0.929 . S
H2342 C2370 0.931 . S
H2343 C2373 0.929 . S
H2344 C2377 0.932 . S
H2345 C2374 0.931 . S
H2346 C2376 0.929 . S
H2347 C2379 0.929 . S
H2348 C2380 0.930 . S
H2349 C2382 0.929 . S
H2350 C2383 0.931 . S
H2351 C2385 0.930 . S
H2352 C2386 0.932 . S
H2353 C2388 0.931 . S
H2354 C2389 0.929 . S
H2355 C2391 0.929 . S
H2356 C2392 0.931 . S
H2357 C2394 0.929 . S
N2358 C2378 1.433 . S
N2358 C2384 1.435 . S
N2358 C2390 1.423 . S
H2359 C2395 0.932 . S
C2360 N2335 1.433 . S
C2360 C2361 1.363 . S
C2360 C2365 1.370 . S
C2361 H2334 0.929 . S
C2361 C2360 1.363 . S
C2361 C2362 1.385 . S
C2362 H2336 0.930 . S
C2362 C2361 1.385 . S
C2362 C2363 1.357 . S
C2363 C2362 1.357 . S
C2363 C2364 1.406 . S
C2364 H2338 0.929 . S
C2364 C2363 1.406 . S
C2364 C2365 1.391 . S
C2365 H2337 0.931 . S
C2365 C2360 1.370 . S
C2365 C2364 1.391 . S
C2366 N2335 1.435 . S
C2366 C2367 1.358 . S
C2366 C2371 1.371 . S
C2367 H2339 0.930 . S
C2367 C2366 1.358 . S
C2367 C2368 1.405 . S
C2368 H2340 0.932 . S
C2368 C2367 1.405 . S
C2368 C2369 1.383 . S
C2369 C2368 1.383 . S
C2369 C2370 1.393 . S
C2370 H2342 0.931 . S
C2370 C2369 1.393 . S
C2370 C2371 1.382 . S
C2371 H2341 0.929 . S
C2371 C2366 1.371 . S
C2371 C2370 1.382 . S
C2372 N2335 1.423 . S
C2372 C2373 1.362 . S
C2372 C2377 1.388 . S
C2373 H2343 0.929 . S
C2373 C2372 1.362 . S
C2373 C2374 1.376 . S
C2374 H2345 0.931 . S
C2374 C2373 1.376 . S
C2374 C2375 1.396 . S
C2375 C2374 1.396 . S
C2375 C2376 1.348 . S
C2375 C2393 1.472 . S
C2376 H2346 0.929 . S
C2376 C2375 1.348 . S
C2376 C2377 1.443 . S
C2377 H2344 0.932 . S
C2377 C2372 1.388 . S
C2377 C2376 1.443 . S
C2378 N2358 1.433 . S
C2378 C2379 1.363 . S
C2378 C2383 1.370 . S
C2379 H2347 0.929 . S
C2379 C2378 1.363 . S
C2379 C2380 1.385 . S
C2380 H2348 0.930 . S
C2380 C2379 1.385 . S
C2380 C2381 1.357 . S
C2381 C2380 1.357 . S
C2381 C2382 1.406 . S
C2382 H2349 0.929 . S
C2382 C2381 1.406 . S
C2382 C2383 1.391 . S
C2383 H2350 0.931 . S
C2383 C2378 1.370 . S
C2383 C2382 1.391 . S
C2384 N2358 1.435 . S
C2384 C2385 1.358 . S
C2384 C2389 1.371 . S
C2385 H2351 0.930 . S
C2385 C2384 1.358 . S
C2385 C2386 1.405 . S
C2386 H2352 0.932 . S
C2386 C2385 1.405 . S
C2386 C2387 1.383 . S
C2387 C2386 1.383 . S
C2387 C2388 1.393 . S
C2388 H2353 0.931 . S
C2388 C2387 1.393 . S
C2388 C2389 1.382 . S
C2389 H2354 0.929 . S
C2389 C2384 1.371 . S
C2389 C2388 1.382 . S
C2390 N2358 1.423 . S
C2390 C2391 1.362 . S
C2390 C2395 1.388 . S
C2391 H2355 0.929 . S
C2391 C2390 1.362 . S
C2391 C2392 1.376 . S
C2392 H2356 0.931 . S
C2392 C2391 1.376 . S
C2392 C2393 1.396 . S
C2393 C2375 1.472 . S
C2393 C2392 1.396 . S
C2393 C2394 1.348 . S
C2394 H2357 0.929 . S
C2394 C2393 1.348 . S
C2394 C2395 1.443 . S
C2395 H2359 0.932 . S
C2395 C2390 1.388 . S
C2395 C2394 1.443 . S
H2396 C2423 0.929 . S
N2397 C2422 1.433 . S
N2397 C2428 1.435 . S
N2397 C2434 1.423 . S
H2398 C2424 0.930 . S
H2399 C2427 0.931 . S
H2400 C2426 0.929 . S
H2401 C2429 0.930 . S
H2402 C2430 0.932 . S
H2403 C2433 0.929 . S
H2404 C2432 0.931 . S
H2405 C2435 0.929 . S
H2406 C2439 0.932 . S
H2407 C2436 0.931 . S
H2408 C2438 0.929 . S
H2409 C2441 0.929 . S
H2410 C2442 0.930 . S
H2411 C2444 0.929 . S
H2412 C2445 0.931 . S
H2413 C2447 0.930 . S
H2414 C2448 0.932 . S
H2415 C2450 0.931 . S
H2416 C2451 0.929 . S
H2417 C2453 0.929 . S
H2418 C2454 0.931 . S
H2419 C2456 0.929 . S
N2420 C2440 1.433 . S
N2420 C2446 1.435 . S
N2420 C2452 1.423 . S
H2421 C2457 0.932 . S
C2422 N2397 1.433 . S
C2422 C2423 1.363 . S
C2422 C2427 1.370 . S
C2423 H2396 0.929 . S
C2423 C2422 1.363 . S
C2423 C2424 1.385 . S
C2424 H2398 0.930 . S
C2424 C2423 1.385 . S
C2424 C2425 1.357 . S
C2425 C2424 1.357 . S
C2425 C2426 1.406 . S
C2426 H2400 0.929 . S
C2426 C2425 1.406 . S
C2426 C2427 1.391 . S
C2427 H2399 0.931 . S
C2427 C2422 1.370 . S
C2427 C2426 1.391 . S
C2428 N2397 1.435 . S
C2428 C2429 1.358 . S
C2428 C2433 1.371 . S
C2429 H2401 0.930 . S
C2429 C2428 1.358 . S
C2429 C2430 1.405 . S
C2430 H2402 0.932 . S
C2430 C2429 1.405 . S
C2430 C2431 1.383 . S
C2431 C2430 1.383 . S
C2431 C2432 1.393 . S
C2432 H2404 0.931 . S
C2432 C2431 1.393 . S
C2432 C2433 1.382 . S
C2433 H2403 0.929 . S
C2433 C2428 1.371 . S
C2433 C2432 1.382 . S
C2434 N2397 1.423 . S
C2434 C2435 1.362 . S
C2434 C2439 1.388 . S
C2435 H2405 0.929 . S
C2435 C2434 1.362 . S
C2435 C2436 1.376 . S
C2436 H2407 0.931 . S
C2436 C2435 1.376 . S
C2436 C2437 1.396 . S
C2437 C2436 1.396 . S
C2437 C2438 1.348 . S
C2437 C2455 1.472 . S
C2438 H2408 0.929 . S
C2438 C2437 1.348 . S
C2438 C2439 1.443 . S
C2439 H2406 0.932 . S
C2439 C2434 1.388 . S
C2439 C2438 1.443 . S
C2440 N2420 1.433 . S
C2440 C2441 1.363 . S
C2440 C2445 1.370 . S
C2441 H2409 0.929 . S
C2441 C2440 1.363 . S
C2441 C2442 1.385 . S
C2442 H2410 0.930 . S
C2442 C2441 1.385 . S
C2442 C2443 1.357 . S
C2443 C2442 1.357 . S
C2443 C2444 1.406 . S
C2444 H2411 0.929 . S
C2444 C2443 1.406 . S
C2444 C2445 1.391 . S
C2445 H2412 0.931 . S
C2445 C2440 1.370 . S
C2445 C2444 1.391 . S
C2446 N2420 1.435 . S
C2446 C2447 1.358 . S
C2446 C2451 1.371 . S
C2447 H2413 0.930 . S
C2447 C2446 1.358 . S
C2447 C2448 1.405 . S
C2448 H2414 0.932 . S
C2448 C2447 1.405 . S
C2448 C2449 1.383 . S
C2449 C2448 1.383 . S
C2449 C2450 1.393 . S
C2450 H2415 0.931 . S
C2450 C2449 1.393 . S
C2450 C2451 1.382 . S
C2451 H2416 0.929 . S
C2451 C2446 1.371 . S
C2451 C2450 1.382 . S
C2452 N2420 1.423 . S
C2452 C2453 1.362 . S
C2452 C2457 1.388 . S
C2453 H2417 0.929 . S
C2453 C2452 1.362 . S
C2453 C2454 1.376 . S
C2454 H2418 0.931 . S
C2454 C2453 1.376 . S
C2454 C2455 1.396 . S
C2455 C2437 1.472 . S
C2455 C2454 1.396 . S
C2455 C2456 1.348 . S
C2456 H2419 0.929 . S
C2456 C2455 1.348 . S
C2456 C2457 1.443 . S
C2457 H2421 0.932 . S
C2457 C2452 1.388 . S
C2457 C2456 1.443 . S
H2458 C2485 0.929 . S
N2459 C2484 1.433 . S
N2459 C2490 1.435 . S
N2459 C2496 1.423 . S
H2460 C2486 0.930 . S
H2461 C2489 0.931 . S
H2462 C2488 0.929 . S
H2463 C2491 0.930 . S
H2464 C2492 0.932 . S
H2465 C2495 0.929 . S
H2466 C2494 0.931 . S
H2467 C2497 0.929 . S
H2468 C2501 0.932 . S
H2469 C2498 0.931 . S
H2470 C2500 0.929 . S
H2471 C2503 0.929 . S
H2472 C2504 0.930 . S
H2473 C2506 0.929 . S
H2474 C2507 0.931 . S
H2475 C2509 0.930 . S
H2476 C2510 0.932 . S
H2477 C2512 0.931 . S
H2478 C2513 0.929 . S
H2479 C2515 0.929 . S
H2480 C2516 0.931 . S
H2481 C2518 0.929 . S
N2482 C2502 1.433 . S
N2482 C2508 1.435 . S
N2482 C2514 1.423 . S
H2483 C2519 0.932 . S
C2484 N2459 1.433 . S
C2484 C2485 1.363 . S
C2484 C2489 1.370 . S
C2485 H2458 0.929 . S
C2485 C2484 1.363 . S
C2485 C2486 1.385 . S
C2486 H2460 0.930 . S
C2486 C2485 1.385 . S
C2486 C2487 1.357 . S
C2487 C2486 1.357 . S
C2487 C2488 1.406 . S
C2488 H2462 0.929 . S
C2488 C2487 1.406 . S
C2488 C2489 1.391 . S
C2489 H2461 0.931 . S
C2489 C2484 1.370 . S
C2489 C2488 1.391 . S
C2490 N2459 1.435 . S
C2490 C2491 1.358 . S
C2490 C2495 1.371 . S
C2491 H2463 0.930 . S
C2491 C2490 1.358 . S
C2491 C2492 1.405 . S
C2492 H2464 0.932 . S
C2492 C2491 1.405 . S
C2492 C2493 1.383 . S
C2493 C2492 1.383 . S
C2493 C2494 1.393 . S
C2494 H2466 0.931 . S
C2494 C2493 1.393 . S
C2494 C2495 1.382 . S
C2495 H2465 0.929 . S
C2495 C2490 1.371 . S
C2495 C2494 1.382 . S
C2496 N2459 1.423 . S
C2496 C2497 1.362 . S
C2496 C2501 1.388 . S
C2497 H2467 0.929 . S
C2497 C2496 1.362 . S
C2497 C2498 1.376 . S
C2498 H2469 0.931 . S
C2498 C2497 1.376 . S
C2498 C2499 1.396 . S
C2499 C2498 1.396 . S
C2499 C2500 1.348 . S
C2499 C2517 1.472 . S
C2500 H2470 0.929 . S
C2500 C2499 1.348 . S
C2500 C2501 1.443 . S
C2501 H2468 0.932 . S
C2501 C2496 1.388 . S
C2501 C2500 1.443 . S
C2502 N2482 1.433 . S
C2502 C2503 1.363 . S
C2502 C2507 1.370 . S
C2503 H2471 0.929 . S
C2503 C2502 1.363 . S
C2503 C2504 1.385 . S
C2504 H2472 0.930 . S
C2504 C2503 1.385 . S
C2504 C2505 1.357 . S
C2505 C2504 1.357 . S
C2505 C2506 1.406 . S
C2506 H2473 0.929 . S
C2506 C2505 1.406 . S
C2506 C2507 1.391 . S
C2507 H2474 0.931 . S
C2507 C2502 1.370 . S
C2507 C2506 1.391 . S
C2508 N2482 1.435 . S
C2508 C2509 1.358 . S
C2508 C2513 1.371 . S
C2509 H2475 0.930 . S
C2509 C2508 1.358 . S
C2509 C2510 1.405 . S
C2510 H2476 0.932 . S
C2510 C2509 1.405 . S
C2510 C2511 1.383 . S
C2511 C2510 1.383 . S
C2511 C2512 1.393 . S
C2512 H2477 0.931 . S
C2512 C2511 1.393 . S
C2512 C2513 1.382 . S
C2513 H2478 0.929 . S
C2513 C2508 1.371 . S
C2513 C2512 1.382 . S
C2514 N2482 1.423 . S
C2514 C2515 1.362 . S
C2514 C2519 1.388 . S
C2515 H2479 0.929 . S
C2515 C2514 1.362 . S
C2515 C2516 1.376 . S
C2516 H2480 0.931 . S
C2516 C2515 1.376 . S
C2516 C2517 1.396 . S
C2517 C2499 1.472 . S
C2517 C2516 1.396 . S
C2517 C2518 1.348 . S
C2518 H2481 0.929 . S
C2518 C2517 1.348 . S
C2518 C2519 1.443 . S
C2519 H2483 0.932 . S
C2519 C2514 1.388 . S
C2519 C2518 1.443 . S
H2520 C2547 0.929 . S
N2521 C2546 1.433 . S
N2521 C2552 1.435 . S
N2521 C2558 1.423 . S
H2522 C2548 0.930 . S
H2523 C2551 0.931 . S
H2524 C2550 0.929 . S
H2525 C2553 0.930 . S
H2526 C2554 0.932 . S
H2527 C2557 0.929 . S
H2528 C2556 0.931 . S
H2529 C2559 0.929 . S
H2530 C2563 0.932 . S
H2531 C2560 0.931 . S
H2532 C2562 0.929 . S
H2533 C2565 0.929 . S
H2534 C2566 0.930 . S
H2535 C2568 0.929 . S
H2536 C2569 0.931 . S
H2537 C2571 0.930 . S
H2538 C2572 0.932 . S
H2539 C2574 0.931 . S
H2540 C2575 0.929 . S
H2541 C2577 0.929 . S
H2542 C2578 0.931 . S
H2543 C2580 0.929 . S
N2544 C2564 1.433 . S
N2544 C2570 1.435 . S
N2544 C2576 1.423 . S
H2545 C2581 0.932 . S
C2546 N2521 1.433 . S
C2546 C2547 1.363 . S
C2546 C2551 1.370 . S
C2547 H2520 0.929 . S
C2547 C2546 1.363 . S
C2547 C2548 1.385 . S
C2548 H2522 0.930 . S
C2548 C2547 1.385 . S
C2548 C2549 1.357 . S
C2549 C2548 1.357 . S
C2549 C2550 1.406 . S
C2550 H2524 0.929 . S
C2550 C2549 1.406 . S
C2550 C2551 1.391 . S
C2551 H2523 0.931 . S
C2551 C2546 1.370 . S
C2551 C2550 1.391 . S
C2552 N2521 1.435 . S
C2552 C2553 1.358 . S
C2552 C2557 1.371 . S
C2553 H2525 0.930 . S
C2553 C2552 1.358 . S
C2553 C2554 1.405 . S
C2554 H2526 0.932 . S
C2554 C2553 1.405 . S
C2554 C2555 1.383 . S
C2555 C2554 1.383 . S
C2555 C2556 1.393 . S
C2556 H2528 0.931 . S
C2556 C2555 1.393 . S
C2556 C2557 1.382 . S
C2557 H2527 0.929 . S
C2557 C2552 1.371 . S
C2557 C2556 1.382 . S
C2558 N2521 1.423 . S
C2558 C2559 1.362 . S
C2558 C2563 1.388 . S
C2559 H2529 0.929 . S
C2559 C2558 1.362 . S
C2559 C2560 1.376 . S
C2560 H2531 0.931 . S
C2560 C2559 1.376 . S
C2560 C2561 1.396 . S
C2561 C2560 1.396 . S
C2561 C2562 1.348 . S
C2561 C2579 1.472 . S
C2562 H2532 0.929 . S
C2562 C2561 1.348 . S
C2562 C2563 1.443 . S
C2563 H2530 0.932 . S
C2563 C2558 1.388 . S
C2563 C2562 1.443 . S
C2564 N2544 1.433 . S
C2564 C2565 1.363 . S
C2564 C2569 1.370 . S
C2565 H2533 0.929 . S
C2565 C2564 1.363 . S
C2565 C2566 1.385 . S
C2566 H2534 0.930 . S
C2566 C2565 1.385 . S
C2566 C2567 1.357 . S
C2567 C2566 1.357 . S
C2567 C2568 1.406 . S
C2568 H2535 0.929 . S
C2568 C2567 1.406 . S
C2568 C2569 1.391 . S
C2569 H2536 0.931 . S
C2569 C2564 1.370 . S
C2569 C2568 1.391 . S
C2570 N2544 1.435 . S
C2570 C2571 1.358 . S
C2570 C2575 1.371 . S
C2571 H2537 0.930 . S
C2571 C2570 1.358 . S
C2571 C2572 1.405 . S
C2572 H2538 0.932 . S
C2572 C2571 1.405 . S
C2572 C2573 1.383 . S
C2573 C2572 1.383 . S
C2573 C2574 1.393 . S
C2574 H2539 0.931 . S
C2574 C2573 1.393 . S
C2574 C2575 1.382 . S
C2575 H2540 0.929 . S
C2575 C2570 1.371 . S
C2575 C2574 1.382 . S
C2576 N2544 1.423 . S
C2576 C2577 1.362 . S
C2576 C2581 1.388 . S
C2577 H2541 0.929 . S
C2577 C2576 1.362 . S
C2577 C2578 1.376 . S
C2578 H2542 0.931 . S
C2578 C2577 1.376 . S
C2578 C2579 1.396 . S
C2579 C2561 1.472 . S
C2579 C2578 1.396 . S
C2579 C2580 1.348 . S
C2580 H2543 0.929 . S
C2580 C2579 1.348 . S
C2580 C2581 1.443 . S
C2581 H2545 0.932 . S
C2581 C2576 1.388 . S
C2581 C2580 1.443 . S
H2582 C2609 0.929 . S
N2583 C2608 1.433 . S
N2583 C2614 1.435 . S
N2583 C2620 1.423 . S
H2584 C2610 0.930 . S
H2585 C2613 0.931 . S
H2586 C2612 0.929 . S
H2587 C2615 0.930 . S
H2588 C2616 0.932 . S
H2589 C2619 0.929 . S
H2590 C2618 0.931 . S
H2591 C2621 0.929 . S
H2592 C2625 0.932 . S
H2593 C2622 0.931 . S
H2594 C2624 0.929 . S
H2595 C2627 0.929 . S
H2596 C2628 0.930 . S
H2597 C2630 0.929 . S
H2598 C2631 0.931 . S
H2599 C2633 0.930 . S
H2600 C2634 0.932 . S
H2601 C2636 0.931 . S
H2602 C2637 0.929 . S
H2603 C2639 0.929 . S
H2604 C2640 0.931 . S
H2605 C2642 0.929 . S
N2606 C2626 1.433 . S
N2606 C2632 1.435 . S
N2606 C2638 1.423 . S
H2607 C2643 0.932 . S
C2608 N2583 1.433 . S
C2608 C2609 1.363 . S
C2608 C2613 1.370 . S
C2609 H2582 0.929 . S
C2609 C2608 1.363 . S
C2609 C2610 1.385 . S
C2610 H2584 0.930 . S
C2610 C2609 1.385 . S
C2610 C2611 1.357 . S
C2611 C2610 1.357 . S
C2611 C2612 1.406 . S
C2612 H2586 0.929 . S
C2612 C2611 1.406 . S
C2612 C2613 1.391 . S
C2613 H2585 0.931 . S
C2613 C2608 1.370 . S
C2613 C2612 1.391 . S
C2614 N2583 1.435 . S
C2614 C2615 1.358 . S
C2614 C2619 1.371 . S
C2615 H2587 0.930 . S
C2615 C2614 1.358 . S
C2615 C2616 1.405 . S
C2616 H2588 0.932 . S
C2616 C2615 1.405 . S
C2616 C2617 1.383 . S
C2617 C2616 1.383 . S
C2617 C2618 1.393 . S
C2618 H2590 0.931 . S
C2618 C2617 1.393 . S
C2618 C2619 1.382 . S
C2619 H2589 0.929 . S
C2619 C2614 1.371 . S
C2619 C2618 1.382 . S
C2620 N2583 1.423 . S
C2620 C2621 1.362 . S
C2620 C2625 1.388 . S
C2621 H2591 0.929 . S
C2621 C2620 1.362 . S
C2621 C2622 1.376 . S
C2622 H2593 0.931 . S
C2622 C2621 1.376 . S
C2622 C2623 1.396 . S
C2623 C2622 1.396 . S
C2623 C2624 1.348 . S
C2623 C2641 1.472 . S
C2624 H2594 0.929 . S
C2624 C2623 1.348 . S
C2624 C2625 1.443 . S
C2625 H2592 0.932 . S
C2625 C2620 1.388 . S
C2625 C2624 1.443 . S
C2626 N2606 1.433 . S
C2626 C2627 1.363 . S
C2626 C2631 1.370 . S
C2627 H2595 0.929 . S
C2627 C2626 1.363 . S
C2627 C2628 1.385 . S
C2628 H2596 0.930 . S
C2628 C2627 1.385 . S
C2628 C2629 1.357 . S
C2629 C2628 1.357 . S
C2629 C2630 1.406 . S
C2630 H2597 0.929 . S
C2630 C2629 1.406 . S
C2630 C2631 1.391 . S
C2631 H2598 0.931 . S
C2631 C2626 1.370 . S
C2631 C2630 1.391 . S
C2632 N2606 1.435 . S
C2632 C2633 1.358 . S
C2632 C2637 1.371 . S
C2633 H2599 0.930 . S
C2633 C2632 1.358 . S
C2633 C2634 1.405 . S
C2634 H2600 0.932 . S
C2634 C2633 1.405 . S
C2634 C2635 1.383 . S
C2635 C2634 1.383 . S
C2635 C2636 1.393 . S
C2636 H2601 0.931 . S
C2636 C2635 1.393 . S
C2636 C2637 1.382 . S
C2637 H2602 0.929 . S
C2637 C2632 1.371 . S
C2637 C2636 1.382 . S
C2638 N2606 1.423 . S
C2638 C2639 1.362 . S
C2638 C2643 1.388 . S
C2639 H2603 0.929 . S
C2639 C2638 1.362 . S
C2639 C2640 1.376 . S
C2640 H2604 0.931 . S
C2640 C2639 1.376 . S
C2640 C2641 1.396 . S
C2641 C2623 1.472 . S
C2641 C2640 1.396 . S
C2641 C2642 1.348 . S
C2642 H2605 0.929 . S
C2642 C2641 1.348 . S
C2642 C2643 1.443 . S
C2643 H2607 0.932 . S
C2643 C2638 1.388 . S
C2643 C2642 1.443 . S
H2644 C2671 0.929 . S
N2645 C2670 1.433 . S
N2645 C2676 1.435 . S
N2645 C2682 1.423 . S
H2646 C2672 0.930 . S
H2647 C2675 0.931 . S
H2648 C2674 0.929 . S
H2649 C2677 0.930 . S
H2650 C2678 0.932 . S
H2651 C2681 0.929 . S
H2652 C2680 0.931 . S
H2653 C2683 0.929 . S
H2654 C2687 0.932 . S
H2655 C2684 0.931 . S
H2656 C2686 0.929 . S
H2657 C2689 0.929 . S
H2658 C2690 0.930 . S
H2659 C2692 0.929 . S
H2660 C2693 0.931 . S
H2661 C2695 0.930 . S
H2662 C2696 0.932 . S
H2663 C2698 0.931 . S
H2664 C2699 0.929 . S
H2665 C2701 0.929 . S
H2666 C2702 0.931 . S
H2667 C2704 0.929 . S
N2668 C2688 1.433 . S
N2668 C2694 1.435 . S
N2668 C2700 1.423 . S
H2669 C2705 0.932 . S
C2670 N2645 1.433 . S
C2670 C2671 1.363 . S
C2670 C2675 1.370 . S
C2671 H2644 0.929 . S
C2671 C2670 1.363 . S
C2671 C2672 1.385 . S
C2672 H2646 0.930 . S
C2672 C2671 1.385 . S
C2672 C2673 1.357 . S
C2673 C2672 1.357 . S
C2673 C2674 1.406 . S
C2674 H2648 0.929 . S
C2674 C2673 1.406 . S
C2674 C2675 1.391 . S
C2675 H2647 0.931 . S
C2675 C2670 1.370 . S
C2675 C2674 1.391 . S
C2676 N2645 1.435 . S
C2676 C2677 1.358 . S
C2676 C2681 1.371 . S
C2677 H2649 0.930 . S
C2677 C2676 1.358 . S
C2677 C2678 1.405 . S
C2678 H2650 0.932 . S
C2678 C2677 1.405 . S
C2678 C2679 1.383 . S
C2679 C2678 1.383 . S
C2679 C2680 1.393 . S
C2680 H2652 0.931 . S
C2680 C2679 1.393 . S
C2680 C2681 1.382 . S
C2681 H2651 0.929 . S
C2681 C2676 1.371 . S
C2681 C2680 1.382 . S
C2682 N2645 1.423 . S
C2682 C2683 1.362 . S
C2682 C2687 1.388 . S
C2683 H2653 0.929 . S
C2683 C2682 1.362 . S
C2683 C2684 1.376 . S
C2684 H2655 0.931 . S
C2684 C2683 1.376 . S
C2684 C2685 1.396 . S
C2685 C2684 1.396 . S
C2685 C2686 1.348 . S
C2685 C2703 1.472 . S
C2686 H2656 0.929 . S
C2686 C2685 1.348 . S
C2686 C2687 1.443 . S
C2687 H2654 0.932 . S
C2687 C2682 1.388 . S
C2687 C2686 1.443 . S
C2688 N2668 1.433 . S
C2688 C2689 1.363 . S
C2688 C2693 1.370 . S
C2689 H2657 0.929 . S
C2689 C2688 1.363 . S
C2689 C2690 1.385 . S
C2690 H2658 0.930 . S
C2690 C2689 1.385 . S
C2690 C2691 1.357 . S
C2691 C2690 1.357 . S
C2691 C2692 1.406 . S
C2692 H2659 0.929 . S
C2692 C2691 1.406 . S
C2692 C2693 1.391 . S
C2693 H2660 0.931 . S
C2693 C2688 1.370 . S
C2693 C2692 1.391 . S
C2694 N2668 1.435 . S
C2694 C2695 1.358 . S
C2694 C2699 1.371 . S
C2695 H2661 0.930 . S
C2695 C2694 1.358 . S
C2695 C2696 1.405 . S
C2696 H2662 0.932 . S
C2696 C2695 1.405 . S
C2696 C2697 1.383 . S
C2697 C2696 1.383 . S
C2697 C2698 1.393 . S
C2698 H2663 0.931 . S
C2698 C2697 1.393 . S
C2698 C2699 1.382 . S
C2699 H2664 0.929 . S
C2699 C2694 1.371 . S
C2699 C2698 1.382 . S
C2700 N2668 1.423 . S
C2700 C2701 1.362 . S
C2700 C2705 1.388 . S
C2701 H2665 0.929 . S
C2701 C2700 1.362 . S
C2701 C2702 1.376 . S
C2702 H2666 0.931 . S
C2702 C2701 1.376 . S
C2702 C2703 1.396 . S
C2703 C2685 1.472 . S
C2703 C2702 1.396 . S
C2703 C2704 1.348 . S
C2704 H2667 0.929 . S
C2704 C2703 1.348 . S
C2704 C2705 1.443 . S
C2705 H2669 0.932 . S
C2705 C2700 1.388 . S
C2705 C2704 1.443 . S
H2706 C2733 0.929 . S
N2707 C2732 1.433 . S
N2707 C2738 1.435 . S
N2707 C2744 1.423 . S
H2708 C2734 0.930 . S
H2709 C2737 0.931 . S
H2710 C2736 0.929 . S
H2711 C2739 0.930 . S
H2712 C2740 0.932 . S
H2713 C2743 0.929 . S
H2714 C2742 0.931 . S
H2715 C2745 0.929 . S
H2716 C2749 0.932 . S
H2717 C2746 0.931 . S
H2718 C2748 0.929 . S
H2719 C2751 0.929 . S
H2720 C2752 0.930 . S
H2721 C2754 0.929 . S
H2722 C2755 0.931 . S
H2723 C2757 0.930 . S
H2724 C2758 0.932 . S
H2725 C2760 0.931 . S
H2726 C2761 0.929 . S
H2727 C2763 0.929 . S
H2728 C2764 0.931 . S
H2729 C2766 0.929 . S
N2730 C2750 1.433 . S
N2730 C2756 1.435 . S
N2730 C2762 1.423 . S
H2731 C2767 0.932 . S
C2732 N2707 1.433 . S
C2732 C2733 1.363 . S
C2732 C2737 1.370 . S
C2733 H2706 0.929 . S
C2733 C2732 1.363 . S
C2733 C2734 1.385 . S
C2734 H2708 0.930 . S
C2734 C2733 1.385 . S
C2734 C2735 1.357 . S
C2735 C2734 1.357 . S
C2735 C2736 1.406 . S
C2736 H2710 0.929 . S
C2736 C2735 1.406 . S
C2736 C2737 1.391 . S
C2737 H2709 0.931 . S
C2737 C2732 1.370 . S
C2737 C2736 1.391 . S
C2738 N2707 1.435 . S
C2738 C2739 1.358 . S
C2738 C2743 1.371 . S
C2739 H2711 0.930 . S
C2739 C2738 1.358 . S
C2739 C2740 1.405 . S
C2740 H2712 0.932 . S
C2740 C2739 1.405 . S
C2740 C2741 1.383 . S
C2741 C2740 1.383 . S
C2741 C2742 1.393 . S
C2742 H2714 0.931 . S
C2742 C2741 1.393 . S
C2742 C2743 1.382 . S
C2743 H2713 0.929 . S
C2743 C2738 1.371 . S
C2743 C2742 1.382 . S
C2744 N2707 1.423 . S
C2744 C2745 1.362 . S
C2744 C2749 1.388 . S
C2745 H2715 0.929 . S
C2745 C2744 1.362 . S
C2745 C2746 1.376 . S
C2746 H2717 0.931 . S
C2746 C2745 1.376 . S
C2746 C2747 1.396 . S
C2747 C2746 1.396 . S
C2747 C2748 1.348 . S
C2747 C2765 1.472 . S
C2748 H2718 0.929 . S
C2748 C2747 1.348 . S
C2748 C2749 1.443 . S
C2749 H2716 0.932 . S
C2749 C2744 1.388 . S
C2749 C2748 1.443 . S
C2750 N2730 1.433 . S
C2750 C2751 1.363 . S
C2750 C2755 1.370 . S
C2751 H2719 0.929 . S
C2751 C2750 1.363 . S
C2751 C2752 1.385 . S
C2752 H2720 0.930 . S
C2752 C2751 1.385 . S
C2752 C2753 1.357 . S
C2753 C2752 1.357 . S
C2753 C2754 1.406 . S
C2754 H2721 0.929 . S
C2754 C2753 1.406 . S
C2754 C2755 1.391 . S
C2755 H2722 0.931 . S
C2755 C2750 1.370 . S
C2755 C2754 1.391 . S
C2756 N2730 1.435 . S
C2756 C2757 1.358 . S
C2756 C2761 1.371 . S
C2757 H2723 0.930 . S
C2757 C2756 1.358 . S
C2757 C2758 1.405 . S
C2758 H2724 0.932 . S
C2758 C2757 1.405 . S
C2758 C2759 1.383 . S
C2759 C2758 1.383 . S
C2759 C2760 1.393 . S
C2760 H2725 0.931 . S
C2760 C2759 1.393 . S
C2760 C2761 1.382 . S
C2761 H2726 0.929 . S
C2761 C2756 1.371 . S
C2761 C2760 1.382 . S
C2762 N2730 1.423 . S
C2762 C2763 1.362 . S
C2762 C2767 1.388 . S
C2763 H2727 0.929 . S
C2763 C2762 1.362 . S
C2763 C2764 1.376 . S
C2764 H2728 0.931 . S
C2764 C2763 1.376 . S
C2764 C2765 1.396 . S
C2765 C2747 1.472 . S
C2765 C2764 1.396 . S
C2765 C2766 1.348 . S
C2766 H2729 0.929 . S
C2766 C2765 1.348 . S
C2766 C2767 1.443 . S
C2767 H2731 0.932 . S
C2767 C2762 1.388 . S
C2767 C2766 1.443 . S
H2768 C2774 0.930 . S
H2769 C2777 0.930 . S
H2770 C2778 0.930 . S
H2771 C2779 0.930 . S
H2772 C2782 0.930 . S
H2773 C2783 0.930 . S
C2774 H2768 0.930 . S
C2774 C2775 1.355 . S
C2774 C2776 1.415 . S
C2775 C2774 1.355 . S
C2775 C2777 1.419 . S
C2776 C2774 1.415 . S
C2776 C2781 1.425 . S
C2776 C2783 1.409 . S
C2777 H2769 0.930 . S
C2777 C2775 1.419 . S
C2777 C2778 1.362 . S
C2778 H2770 0.930 . S
C2778 C2777 1.362 . S
C2778 C2781 1.409 . S
C2779 H2771 0.930 . S
C2779 C2780 1.355 . S
C2779 C2781 1.415 . S
C2780 C2779 1.355 . S
C2780 C2782 1.419 . S
C2781 C2776 1.425 . S
C2781 C2778 1.409 . S
C2781 C2779 1.415 . S
C2782 H2772 0.930 . S
C2782 C2780 1.419 . S
C2782 C2783 1.362 . S
C2783 H2773 0.930 . S
C2783 C2776 1.409 . S
C2783 C2782 1.362 . S
H2784 C2790 0.930 . S
H2785 C2793 0.930 . S
H2786 C2794 0.930 . S
H2787 C2795 0.930 . S
H2788 C2798 0.930 . S
H2789 C2799 0.930 . S
C2790 H2784 0.930 . S
C2790 C2791 1.355 . S
C2790 C2792 1.415 . S
C2791 C2790 1.355 . S
C2791 C2793 1.419 . S
C2792 C2790 1.415 . S
C2792 C2797 1.425 . S
C2792 C2799 1.409 . S
C2793 H2785 0.930 . S
C2793 C2791 1.419 . S
C2793 C2794 1.362 . S
C2794 H2786 0.930 . S
C2794 C2793 1.362 . S
C2794 C2797 1.409 . S
C2795 H2787 0.930 . S
C2795 C2796 1.355 . S
C2795 C2797 1.415 . S
C2796 C2795 1.355 . S
C2796 C2798 1.419 . S
C2797 C2792 1.425 . S
C2797 C2794 1.409 . S
C2797 C2795 1.415 . S
C2798 H2788 0.930 . S
C2798 C2796 1.419 . S
C2798 C2799 1.362 . S
C2799 H2789 0.930 . S
C2799 C2792 1.409 . S
C2799 C2798 1.362 . S
H2800 C2806 0.930 . S
H2801 C2809 0.930 . S
H2802 C2810 0.930 . S
H2803 C2811 0.930 . S
H2804 C2814 0.930 . S
H2805 C2815 0.930 . S
C2806 H2800 0.930 . S
C2806 C2807 1.355 . S
C2806 C2808 1.415 . S
C2807 C2806 1.355 . S
C2807 C2809 1.419 . S
C2808 C2806 1.415 . S
C2808 C2813 1.425 . S
C2808 C2815 1.409 . S
C2809 H2801 0.930 . S
C2809 C2807 1.419 . S
C2809 C2810 1.362 . S
C2810 H2802 0.930 . S
C2810 C2809 1.362 . S
C2810 C2813 1.409 . S
C2811 H2803 0.930 . S
C2811 C2812 1.355 . S
C2811 C2813 1.415 . S
C2812 C2811 1.355 . S
C2812 C2814 1.419 . S
C2813 C2808 1.425 . S
C2813 C2810 1.409 . S
C2813 C2811 1.415 . S
C2814 H2804 0.930 . S
C2814 C2812 1.419 . S
C2814 C2815 1.362 . S
C2815 H2805 0.930 . S
C2815 C2808 1.409 . S
C2815 C2814 1.362 . S
H2816 C2822 0.930 . S
H2817 C2825 0.930 . S
H2818 C2826 0.930 . S
H2819 C2827 0.930 . S
H2820 C2830 0.930 . S
H2821 C2831 0.930 . S
C2822 H2816 0.930 . S
C2822 C2823 1.355 . S
C2822 C2824 1.415 . S
C2823 C2822 1.355 . S
C2823 C2825 1.419 . S
C2824 C2822 1.415 . S
C2824 C2829 1.425 . S
C2824 C2831 1.409 . S
C2825 H2817 0.930 . S
C2825 C2823 1.419 . S
C2825 C2826 1.362 . S
C2826 H2818 0.930 . S
C2826 C2825 1.362 . S
C2826 C2829 1.409 . S
C2827 H2819 0.930 . S
C2827 C2828 1.355 . S
C2827 C2829 1.415 . S
C2828 C2827 1.355 . S
C2828 C2830 1.419 . S
C2829 C2824 1.425 . S
C2829 C2826 1.409 . S
C2829 C2827 1.415 . S
C2830 H2820 0.930 . S
C2830 C2828 1.419 . S
C2830 C2831 1.362 . S
C2831 H2821 0.930 . S
C2831 C2824 1.409 . S
C2831 C2830 1.362 . S
H2832 C2838 0.930 . S
H2833 C2841 0.930 . S
H2834 C2842 0.930 . S
H2835 C2843 0.930 . S
H2836 C2846 0.930 . S
H2837 C2847 0.930 . S
C2838 H2832 0.930 . S
C2838 C2839 1.355 . S
C2838 C2840 1.415 . S
C2839 C2838 1.355 . S
C2839 C2841 1.419 . S
C2840 C2838 1.415 . S
C2840 C2845 1.425 . S
C2840 C2847 1.409 . S
C2841 H2833 0.930 . S
C2841 C2839 1.419 . S
C2841 C2842 1.362 . S
C2842 H2834 0.930 . S
C2842 C2841 1.362 . S
C2842 C2845 1.409 . S
C2843 H2835 0.930 . S
C2843 C2844 1.355 . S
C2843 C2845 1.415 . S
C2844 C2843 1.355 . S
C2844 C2846 1.419 . S
C2845 C2840 1.425 . S
C2845 C2842 1.409 . S
C2845 C2843 1.415 . S
C2846 H2836 0.930 . S
C2846 C2844 1.419 . S
C2846 C2847 1.362 . S
C2847 H2837 0.930 . S
C2847 C2840 1.409 . S
C2847 C2846 1.362 . S
H2848 C2854 0.930 . S
H2849 C2857 0.930 . S
H2850 C2858 0.930 . S
H2851 C2859 0.930 . S
H2852 C2862 0.930 . S
H2853 C2863 0.930 . S
C2854 H2848 0.930 . S
C2854 C2855 1.355 . S
C2854 C2856 1.415 . S
C2855 C2854 1.355 . S
C2855 C2857 1.419 . S
C2856 C2854 1.415 . S
C2856 C2861 1.425 . S
C2856 C2863 1.409 . S
C2857 H2849 0.930 . S
C2857 C2855 1.419 . S
C2857 C2858 1.362 . S
C2858 H2850 0.930 . S
C2858 C2857 1.362 . S
C2858 C2861 1.409 . S
C2859 H2851 0.930 . S
C2859 C2860 1.355 . S
C2859 C2861 1.415 . S
C2860 C2859 1.355 . S
C2860 C2862 1.419 . S
C2861 C2856 1.425 . S
C2861 C2858 1.409 . S
C2861 C2859 1.415 . S
C2862 H2852 0.930 . S
C2862 C2860 1.419 . S
C2862 C2863 1.362 . S
C2863 H2853 0.930 . S
C2863 C2856 1.409 . S
C2863 C2862 1.362 . S
H2864 C2870 0.930 . S
H2865 C2873 0.930 . S
H2866 C2874 0.930 . S
H2867 C2875 0.930 . S
H2868 C2878 0.930 . S
H2869 C2879 0.930 . S
C2870 H2864 0.930 . S
C2870 C2871 1.355 . S
C2870 C2872 1.415 . S
C2871 C2870 1.355 . S
C2871 C2873 1.419 . S
C2872 C2870 1.415 . S
C2872 C2877 1.425 . S
C2872 C2879 1.409 . S
C2873 H2865 0.930 . S
C2873 C2871 1.419 . S
C2873 C2874 1.362 . S
C2874 H2866 0.930 . S
C2874 C2873 1.362 . S
C2874 C2877 1.409 . S
C2875 H2867 0.930 . S
C2875 C2876 1.355 . S
C2875 C2877 1.415 . S
C2876 C2875 1.355 . S
C2876 C2878 1.419 . S
C2877 C2872 1.425 . S
C2877 C2874 1.409 . S
C2877 C2875 1.415 . S
C2878 H2868 0.930 . S
C2878 C2876 1.419 . S
C2878 C2879 1.362 . S
C2879 H2869 0.930 . S
C2879 C2872 1.409 . S
C2879 C2878 1.362 . S
H2880 C2886 0.930 . S
H2881 C2889 0.930 . S
H2882 C2890 0.930 . S
H2883 C2891 0.930 . S
H2884 C2894 0.930 . S
H2885 C2895 0.930 . S
C2886 H2880 0.930 . S
C2886 C2887 1.355 . S
C2886 C2888 1.415 . S
C2887 C2886 1.355 . S
C2887 C2889 1.419 . S
C2888 C2886 1.415 . S
C2888 C2893 1.425 . S
C2888 C2895 1.409 . S
C2889 H2881 0.930 . S
C2889 C2887 1.419 . S
C2889 C2890 1.362 . S
C2890 H2882 0.930 . S
C2890 C2889 1.362 . S
C2890 C2893 1.409 . S
C2891 H2883 0.930 . S
C2891 C2892 1.355 . S
C2891 C2893 1.415 . S
C2892 C2891 1.355 . S
C2892 C2894 1.419 . S
C2893 C2888 1.425 . S
C2893 C2890 1.409 . S
C2893 C2891 1.415 . S
C2894 H2884 0.930 . S
C2894 C2892 1.419 . S
C2894 C2895 1.362 . S
C2895 H2885 0.930 . S
C2895 C2888 1.409 . S
C2895 C2894 1.362 . S
H2896 C2902 0.930 . S
H2897 C2905 0.930 . S
H2898 C2906 0.930 . S
H2899 C2907 0.930 . S
H2900 C2910 0.930 . S
H2901 C2911 0.930 . S
C2902 H2896 0.930 . S
C2902 C2903 1.355 . S
C2902 C2904 1.415 . S
C2903 C2902 1.355 . S
C2903 C2905 1.419 . S
C2904 C2902 1.415 . S
C2904 C2909 1.425 . S
C2904 C2911 1.409 . S
C2905 H2897 0.930 . S
C2905 C2903 1.419 . S
C2905 C2906 1.362 . S
C2906 H2898 0.930 . S
C2906 C2905 1.362 . S
C2906 C2909 1.409 . S
C2907 H2899 0.930 . S
C2907 C2908 1.355 . S
C2907 C2909 1.415 . S
C2908 C2907 1.355 . S
C2908 C2910 1.419 . S
C2909 C2904 1.425 . S
C2909 C2906 1.409 . S
C2909 C2907 1.415 . S
C2910 H2900 0.930 . S
C2910 C2908 1.419 . S
C2910 C2911 1.362 . S
C2911 H2901 0.930 . S
C2911 C2904 1.409 . S
C2911 C2910 1.362 . S
H2912 C2918 0.930 . S
H2913 C2921 0.930 . S
H2914 C2922 0.930 . S
H2915 C2923 0.930 . S
H2916 C2926 0.930 . S
H2917 C2927 0.930 . S
C2918 H2912 0.930 . S
C2918 C2919 1.355 . S
C2918 C2920 1.415 . S
C2919 C2918 1.355 . S
C2919 C2921 1.419 . S
C2920 C2918 1.415 . S
C2920 C2925 1.425 . S
C2920 C2927 1.409 . S
C2921 H2913 0.930 . S
C2921 C2919 1.419 . S
C2921 C2922 1.362 . S
C2922 H2914 0.930 . S
C2922 C2921 1.362 . S
C2922 C2925 1.409 . S
C2923 H2915 0.930 . S
C2923 C2924 1.355 . S
C2923 C2925 1.415 . S
C2924 C2923 1.355 . S
C2924 C2926 1.419 . S
C2925 C2920 1.425 . S
C2925 C2922 1.409 . S
C2925 C2923 1.415 . S
C2926 H2916 0.930 . S
C2926 C2924 1.419 . S
C2926 C2927 1.362 . S
C2927 H2917 0.930 . S
C2927 C2920 1.409 . S
C2927 C2926 1.362 . S
H2928 C2934 0.930 . S
H2929 C2937 0.930 . S
H2930 C2938 0.930 . S
H2931 C2939 0.930 . S
H2932 C2942 0.930 . S
H2933 C2943 0.930 . S
C2934 H2928 0.930 . S
C2934 C2935 1.355 . S
C2934 C2936 1.415 . S
C2935 C2934 1.355 . S
C2935 C2937 1.419 . S
C2936 C2934 1.415 . S
C2936 C2941 1.425 . S
C2936 C2943 1.409 . S
C2937 H2929 0.930 . S
C2937 C2935 1.419 . S
C2937 C2938 1.362 . S
C2938 H2930 0.930 . S
C2938 C2937 1.362 . S
C2938 C2941 1.409 . S
C2939 H2931 0.930 . S
C2939 C2940 1.355 . S
C2939 C2941 1.415 . S
C2940 C2939 1.355 . S
C2940 C2942 1.419 . S
C2941 C2936 1.425 . S
C2941 C2938 1.409 . S
C2941 C2939 1.415 . S
C2942 H2932 0.930 . S
C2942 C2940 1.419 . S
C2942 C2943 1.362 . S
C2943 H2933 0.930 . S
C2943 C2936 1.409 . S
C2943 C2942 1.362 . S
H2944 C2950 0.930 . S
H2945 C2953 0.930 . S
H2946 C2954 0.930 . S
H2947 C2955 0.930 . S
H2948 C2958 0.930 . S
H2949 C2959 0.930 . S
C2950 H2944 0.930 . S
C2950 C2951 1.355 . S
C2950 C2952 1.415 . S
C2951 C2950 1.355 . S
C2951 C2953 1.419 . S
C2952 C2950 1.415 . S
C2952 C2957 1.425 . S
C2952 C2959 1.409 . S
C2953 H2945 0.930 . S
C2953 C2951 1.419 . S
C2953 C2954 1.362 . S
C2954 H2946 0.930 . S
C2954 C2953 1.362 . S
C2954 C2957 1.409 . S
C2955 H2947 0.930 . S
C2955 C2956 1.355 . S
C2955 C2957 1.415 . S
C2956 C2955 1.355 . S
C2956 C2958 1.419 . S
C2957 C2952 1.425 . S
C2957 C2954 1.409 . S
C2957 C2955 1.415 . S
C2958 H2948 0.930 . S
C2958 C2956 1.419 . S
C2958 C2959 1.362 . S
C2959 H2949 0.930 . S
C2959 C2952 1.409 . S
C2959 C2958 1.362 . S
H2960 C2966 0.930 . S
H2961 C2969 0.930 . S
H2962 C2970 0.930 . S
H2963 C2971 0.930 . S
H2964 C2974 0.930 . S
H2965 C2975 0.930 . S
C2966 H2960 0.930 . S
C2966 C2967 1.355 . S
C2966 C2968 1.415 . S
C2967 C2966 1.355 . S
C2967 C2969 1.419 . S
C2968 C2966 1.415 . S
C2968 C2973 1.425 . S
C2968 C2975 1.409 . S
C2969 H2961 0.930 . S
C2969 C2967 1.419 . S
C2969 C2970 1.362 . S
C2970 H2962 0.930 . S
C2970 C2969 1.362 . S
C2970 C2973 1.409 . S
C2971 H2963 0.930 . S
C2971 C2972 1.355 . S
C2971 C2973 1.415 . S
C2972 C2971 1.355 . S
C2972 C2974 1.419 . S
C2973 C2968 1.425 . S
C2973 C2970 1.409 . S
C2973 C2971 1.415 . S
C2974 H2964 0.930 . S
C2974 C2972 1.419 . S
C2974 C2975 1.362 . S
C2975 H2965 0.930 . S
C2975 C2968 1.409 . S
C2975 C2974 1.362 . S
H2976 C2982 0.930 . S
H2977 C2985 0.930 . S
H2978 C2986 0.930 . S
H2979 C2987 0.930 . S
H2980 C2990 0.930 . S
H2981 C2991 0.930 . S
C2982 H2976 0.930 . S
C2982 C2983 1.355 . S
C2982 C2984 1.415 . S
C2983 C2982 1.355 . S
C2983 C2985 1.419 . S
C2984 C2982 1.415 . S
C2984 C2989 1.425 . S
C2984 C2991 1.409 . S
C2985 H2977 0.930 . S
C2985 C2983 1.419 . S
C2985 C2986 1.362 . S
C2986 H2978 0.930 . S
C2986 C2985 1.362 . S
C2986 C2989 1.409 . S
C2987 H2979 0.930 . S
C2987 C2988 1.355 . S
C2987 C2989 1.415 . S
C2988 C2987 1.355 . S
C2988 C2990 1.419 . S
C2989 C2984 1.425 . S
C2989 C2986 1.409 . S
C2989 C2987 1.415 . S
C2990 H2980 0.930 . S
C2990 C2988 1.419 . S
C2990 C2991 1.362 . S
C2991 H2981 0.930 . S
C2991 C2984 1.409 . S
C2991 C2990 1.362 . S
H2992 C2998 0.930 . S
H2993 C3001 0.930 . S
H2994 C3002 0.930 . S
H2995 C3003 0.930 . S
H2996 C3006 0.930 . S
H2997 C3007 0.930 . S
C2998 H2992 0.930 . S
C2998 C2999 1.355 . S
C2998 C3000 1.415 . S
C2999 C2998 1.355 . S
C2999 C3001 1.419 . S
C3000 C2998 1.415 . S
C3000 C3005 1.425 . S
C3000 C3007 1.409 . S
C3001 H2993 0.930 . S
C3001 C2999 1.419 . S
C3001 C3002 1.362 . S
C3002 H2994 0.930 . S
C3002 C3001 1.362 . S
C3002 C3005 1.409 . S
C3003 H2995 0.930 . S
C3003 C3004 1.355 . S
C3003 C3005 1.415 . S
C3004 C3003 1.355 . S
C3004 C3006 1.419 . S
C3005 C3000 1.425 . S
C3005 C3002 1.409 . S
C3005 C3003 1.415 . S
C3006 H2996 0.930 . S
C3006 C3004 1.419 . S
C3006 C3007 1.362 . S
C3007 H2997 0.930 . S
C3007 C3000 1.409 . S
C3007 C3006 1.362 . S
H3008 C3014 0.930 . S
H3009 C3017 0.930 . S
H3010 C3018 0.930 . S
H3011 C3019 0.930 . S
H3012 C3022 0.930 . S
H3013 C3023 0.930 . S
C3014 H3008 0.930 . S
C3014 C3015 1.355 . S
C3014 C3016 1.415 . S
C3015 C3014 1.355 . S
C3015 C3017 1.419 . S
C3016 C3014 1.415 . S
C3016 C3021 1.425 . S
C3016 C3023 1.409 . S
C3017 H3009 0.930 . S
C3017 C3015 1.419 . S
C3017 C3018 1.362 . S
C3018 H3010 0.930 . S
C3018 C3017 1.362 . S
C3018 C3021 1.409 . S
C3019 H3011 0.930 . S
C3019 C3020 1.355 . S
C3019 C3021 1.415 . S
C3020 C3019 1.355 . S
C3020 C3022 1.419 . S
C3021 C3016 1.425 . S
C3021 C3018 1.409 . S
C3021 C3019 1.415 . S
C3022 H3012 0.930 . S
C3022 C3020 1.419 . S
C3022 C3023 1.362 . S
C3023 H3013 0.930 . S
C3023 C3016 1.409 . S
C3023 C3022 1.362 . S
H3024 C3030 0.930 . S
H3025 C3033 0.930 . S
H3026 C3034 0.930 . S
H3027 C3035 0.930 . S
H3028 C3038 0.930 . S
H3029 C3039 0.930 . S
C3030 H3024 0.930 . S
C3030 C3031 1.355 . S
C3030 C3032 1.415 . S
C3031 C3030 1.355 . S
C3031 C3033 1.419 . S
C3032 C3030 1.415 . S
C3032 C3037 1.425 . S
C3032 C3039 1.409 . S
C3033 H3025 0.930 . S
C3033 C3031 1.419 . S
C3033 C3034 1.362 . S
C3034 H3026 0.930 . S
C3034 C3033 1.362 . S
C3034 C3037 1.409 . S
C3035 H3027 0.930 . S
C3035 C3036 1.355 . S
C3035 C3037 1.415 . S
C3036 C3035 1.355 . S
C3036 C3038 1.419 . S
C3037 C3032 1.425 . S
C3037 C3034 1.409 . S
C3037 C3035 1.415 . S
C3038 H3028 0.930 . S
C3038 C3036 1.419 . S
C3038 C3039 1.362 . S
C3039 H3029 0.930 . S
C3039 C3032 1.409 . S
C3039 C3038 1.362 . S
H3040 C3046 0.930 . S
H3041 C3049 0.930 . S
H3042 C3050 0.930 . S
H3043 C3051 0.930 . S
H3044 C3054 0.930 . S
H3045 C3055 0.930 . S
C3046 H3040 0.930 . S
C3046 C3047 1.355 . S
C3046 C3048 1.415 . S
C3047 C3046 1.355 . S
C3047 C3049 1.419 . S
C3048 C3046 1.415 . S
C3048 C3053 1.425 . S
C3048 C3055 1.409 . S
C3049 H3041 0.930 . S
C3049 C3047 1.419 . S
C3049 C3050 1.362 . S
C3050 H3042 0.930 . S
C3050 C3049 1.362 . S
C3050 C3053 1.409 . S
C3051 H3043 0.930 . S
C3051 C3052 1.355 . S
C3051 C3053 1.415 . S
C3052 C3051 1.355 . S
C3052 C3054 1.419 . S
C3053 C3048 1.425 . S
C3053 C3050 1.409 . S
C3053 C3051 1.415 . S
C3054 H3044 0.930 . S
C3054 C3052 1.419 . S
C3054 C3055 1.362 . S
C3055 H3045 0.930 . S
C3055 C3048 1.409 . S
C3055 C3054 1.362 . S
H3056 C3062 0.930 . S
H3057 C3065 0.930 . S
H3058 C3066 0.930 . S
H3059 C3067 0.930 . S
H3060 C3070 0.930 . S
H3061 C3071 0.930 . S
C3062 H3056 0.930 . S
C3062 C3063 1.355 . S
C3062 C3064 1.415 . S
C3063 C3062 1.355 . S
C3063 C3065 1.419 . S
C3064 C3062 1.415 . S
C3064 C3069 1.425 . S
C3064 C3071 1.409 . S
C3065 H3057 0.930 . S
C3065 C3063 1.419 . S
C3065 C3066 1.362 . S
C3066 H3058 0.930 . S
C3066 C3065 1.362 . S
C3066 C3069 1.409 . S
C3067 H3059 0.930 . S
C3067 C3068 1.355 . S
C3067 C3069 1.415 . S
C3068 C3067 1.355 . S
C3068 C3070 1.419 . S
C3069 C3064 1.425 . S
C3069 C3066 1.409 . S
C3069 C3067 1.415 . S
C3070 H3060 0.930 . S
C3070 C3068 1.419 . S
C3070 C3071 1.362 . S
C3071 H3061 0.930 . S
C3071 C3064 1.409 . S
C3071 C3070 1.362 . S
H3072 C3078 0.930 . S
H3073 C3081 0.930 . S
H3074 C3082 0.930 . S
H3075 C3083 0.930 . S
H3076 C3086 0.930 . S
H3077 C3087 0.930 . S
C3078 H3072 0.930 . S
C3078 C3079 1.355 . S
C3078 C3080 1.415 . S
C3079 C3078 1.355 . S
C3079 C3081 1.419 . S
C3080 C3078 1.415 . S
C3080 C3085 1.425 . S
C3080 C3087 1.409 . S
C3081 H3073 0.930 . S
C3081 C3079 1.419 . S
C3081 C3082 1.362 . S
C3082 H3074 0.930 . S
C3082 C3081 1.362 . S
C3082 C3085 1.409 . S
C3083 H3075 0.930 . S
C3083 C3084 1.355 . S
C3083 C3085 1.415 . S
C3084 C3083 1.355 . S
C3084 C3086 1.419 . S
C3085 C3080 1.425 . S
C3085 C3082 1.409 . S
C3085 C3083 1.415 . S
C3086 H3076 0.930 . S
C3086 C3084 1.419 . S
C3086 C3087 1.362 . S
C3087 H3077 0.930 . S
C3087 C3080 1.409 . S
C3087 C3086 1.362 . S
H3088 C3094 0.930 . S
H3089 C3097 0.930 . S
H3090 C3098 0.930 . S
H3091 C3099 0.930 . S
H3092 C3102 0.930 . S
H3093 C3103 0.930 . S
C3094 H3088 0.930 . S
C3094 C3095 1.355 . S
C3094 C3096 1.415 . S
C3095 C3094 1.355 . S
C3095 C3097 1.419 . S
C3096 C3094 1.415 . S
C3096 C3101 1.425 . S
C3096 C3103 1.409 . S
C3097 H3089 0.930 . S
C3097 C3095 1.419 . S
C3097 C3098 1.362 . S
C3098 H3090 0.930 . S
C3098 C3097 1.362 . S
C3098 C3101 1.409 . S
C3099 H3091 0.930 . S
C3099 C3100 1.355 . S
C3099 C3101 1.415 . S
C3100 C3099 1.355 . S
C3100 C3102 1.419 . S
C3101 C3096 1.425 . S
C3101 C3098 1.409 . S
C3101 C3099 1.415 . S
C3102 H3092 0.930 . S
C3102 C3100 1.419 . S
C3102 C3103 1.362 . S
C3103 H3093 0.930 . S
C3103 C3096 1.409 . S
C3103 C3102 1.362 . S
H3104 C3110 0.930 . S
H3105 C3113 0.930 . S
H3106 C3114 0.930 . S
H3107 C3115 0.930 . S
H3108 C3118 0.930 . S
H3109 C3119 0.930 . S
C3110 H3104 0.930 . S
C3110 C3111 1.355 . S
C3110 C3112 1.415 . S
C3111 C3110 1.355 . S
C3111 C3113 1.419 . S
C3112 C3110 1.415 . S
C3112 C3117 1.425 . S
C3112 C3119 1.409 . S
C3113 H3105 0.930 . S
C3113 C3111 1.419 . S
C3113 C3114 1.362 . S
C3114 H3106 0.930 . S
C3114 C3113 1.362 . S
C3114 C3117 1.409 . S
C3115 H3107 0.930 . S
C3115 C3116 1.355 . S
C3115 C3117 1.415 . S
C3116 C3115 1.355 . S
C3116 C3118 1.419 . S
C3117 C3112 1.425 . S
C3117 C3114 1.409 . S
C3117 C3115 1.415 . S
C3118 H3108 0.930 . S
C3118 C3116 1.419 . S
C3118 C3119 1.362 . S
C3119 H3109 0.930 . S
C3119 C3112 1.409 . S
C3119 C3118 1.362 . S
H3120 C3126 0.930 . S
H3121 C3129 0.930 . S
H3122 C3130 0.930 . S
H3123 C3131 0.930 . S
H3124 C3134 0.930 . S
H3125 C3135 0.930 . S
C3126 H3120 0.930 . S
C3126 C3127 1.355 . S
C3126 C3128 1.415 . S
C3127 C3126 1.355 . S
C3127 C3129 1.419 . S
C3128 C3126 1.415 . S
C3128 C3133 1.425 . S
C3128 C3135 1.409 . S
C3129 H3121 0.930 . S
C3129 C3127 1.419 . S
C3129 C3130 1.362 . S
C3130 H3122 0.930 . S
C3130 C3129 1.362 . S
C3130 C3133 1.409 . S
C3131 H3123 0.930 . S
C3131 C3132 1.355 . S
C3131 C3133 1.415 . S
C3132 C3131 1.355 . S
C3132 C3134 1.419 . S
C3133 C3128 1.425 . S
C3133 C3130 1.409 . S
C3133 C3131 1.415 . S
C3134 H3124 0.930 . S
C3134 C3132 1.419 . S
C3134 C3135 1.362 . S
C3135 H3125 0.930 . S
C3135 C3128 1.409 . S
C3135 C3134 1.362 . S
H3136 C3142 0.930 . S
H3137 C3145 0.930 . S
H3138 C3146 0.930 . S
H3139 C3147 0.930 . S
H3140 C3150 0.930 . S
H3141 C3151 0.930 . S
C3142 H3136 0.930 . S
C3142 C3143 1.355 . S
C3142 C3144 1.415 . S
C3143 C3142 1.355 . S
C3143 C3145 1.419 . S
C3144 C3142 1.415 . S
C3144 C3149 1.425 . S
C3144 C3151 1.409 . S
C3145 H3137 0.930 . S
C3145 C3143 1.419 . S
C3145 C3146 1.362 . S
C3146 H3138 0.930 . S
C3146 C3145 1.362 . S
C3146 C3149 1.409 . S
C3147 H3139 0.930 . S
C3147 C3148 1.355 . S
C3147 C3149 1.415 . S
C3148 C3147 1.355 . S
C3148 C3150 1.419 . S
C3149 C3144 1.425 . S
C3149 C3146 1.409 . S
C3149 C3147 1.415 . S
C3150 H3140 0.930 . S
C3150 C3148 1.419 . S
C3150 C3151 1.362 . S
C3151 H3141 0.930 . S
C3151 C3144 1.409 . S
C3151 C3150 1.362 . S
H3152 C3158 0.930 . S
H3153 C3161 0.930 . S
H3154 C3162 0.930 . S
H3155 C3163 0.930 . S
H3156 C3166 0.930 . S
H3157 C3167 0.930 . S
C3158 H3152 0.930 . S
C3158 C3159 1.355 . S
C3158 C3160 1.415 . S
C3159 C3158 1.355 . S
C3159 C3161 1.419 . S
C3160 C3158 1.415 . S
C3160 C3165 1.425 . S
C3160 C3167 1.409 . S
C3161 H3153 0.930 . S
C3161 C3159 1.419 . S
C3161 C3162 1.362 . S
C3162 H3154 0.930 . S
C3162 C3161 1.362 . S
C3162 C3165 1.409 . S
C3163 H3155 0.930 . S
C3163 C3164 1.355 . S
C3163 C3165 1.415 . S
C3164 C3163 1.355 . S
C3164 C3166 1.419 . S
C3165 C3160 1.425 . S
C3165 C3162 1.409 . S
C3165 C3163 1.415 . S
C3166 H3156 0.930 . S
C3166 C3164 1.419 . S
C3166 C3167 1.362 . S
C3167 H3157 0.930 . S
C3167 C3160 1.409 . S
C3167 C3166 1.362 . S
H3168 C3174 0.930 . S
H3169 C3177 0.930 . S
H3170 C3178 0.930 . S
H3171 C3179 0.930 . S
H3172 C3182 0.930 . S
H3173 C3183 0.930 . S
C3174 H3168 0.930 . S
C3174 C3175 1.355 . S
C3174 C3176 1.415 . S
C3175 C3174 1.355 . S
C3175 C3177 1.419 . S
C3176 C3174 1.415 . S
C3176 C3181 1.425 . S
C3176 C3183 1.409 . S
C3177 H3169 0.930 . S
C3177 C3175 1.419 . S
C3177 C3178 1.362 . S
C3178 H3170 0.930 . S
C3178 C3177 1.362 . S
C3178 C3181 1.409 . S
C3179 H3171 0.930 . S
C3179 C3180 1.355 . S
C3179 C3181 1.415 . S
C3180 C3179 1.355 . S
C3180 C3182 1.419 . S
C3181 C3176 1.425 . S
C3181 C3178 1.409 . S
C3181 C3179 1.415 . S
C3182 H3172 0.930 . S
C3182 C3180 1.419 . S
C3182 C3183 1.362 . S
C3183 H3173 0.930 . S
C3183 C3176 1.409 . S
C3183 C3182 1.362 . S
H3184 C3190 0.930 . S
H3185 C3193 0.930 . S
H3186 C3194 0.930 . S
H3187 C3195 0.930 . S
H3188 C3198 0.930 . S
H3189 C3199 0.930 . S
C3190 H3184 0.930 . S
C3190 C3191 1.355 . S
C3190 C3192 1.415 . S
C3191 C3190 1.355 . S
C3191 C3193 1.419 . S
C3192 C3190 1.415 . S
C3192 C3197 1.425 . S
C3192 C3199 1.409 . S
C3193 H3185 0.930 . S
C3193 C3191 1.419 . S
C3193 C3194 1.362 . S
C3194 H3186 0.930 . S
C3194 C3193 1.362 . S
C3194 C3197 1.409 . S
C3195 H3187 0.930 . S
C3195 C3196 1.355 . S
C3195 C3197 1.415 . S
C3196 C3195 1.355 . S
C3196 C3198 1.419 . S
C3197 C3192 1.425 . S
C3197 C3194 1.409 . S
C3197 C3195 1.415 . S
C3198 H3188 0.930 . S
C3198 C3196 1.419 . S
C3198 C3199 1.362 . S
C3199 H3189 0.930 . S
C3199 C3192 1.409 . S
C3199 C3198 1.362 . S
H3200 C3206 0.930 . S
H3201 C3209 0.930 . S
H3202 C3210 0.930 . S
H3203 C3211 0.930 . S
H3204 C3214 0.930 . S
H3205 C3215 0.930 . S
C3206 H3200 0.930 . S
C3206 C3207 1.355 . S
C3206 C3208 1.415 . S
C3207 C3206 1.355 . S
C3207 C3209 1.419 . S
C3208 C3206 1.415 . S
C3208 C3213 1.425 . S
C3208 C3215 1.409 . S
C3209 H3201 0.930 . S
C3209 C3207 1.419 . S
C3209 C3210 1.362 . S
C3210 H3202 0.930 . S
C3210 C3209 1.362 . S
C3210 C3213 1.409 . S
C3211 H3203 0.930 . S
C3211 C3212 1.355 . S
C3211 C3213 1.415 . S
C3212 C3211 1.355 . S
C3212 C3214 1.419 . S
C3213 C3208 1.425 . S
C3213 C3210 1.409 . S
C3213 C3211 1.415 . S
C3214 H3204 0.930 . S
C3214 C3212 1.419 . S
C3214 C3215 1.362 . S
C3215 H3205 0.930 . S
C3215 C3208 1.409 . S
C3215 C3214 1.362 . S
H3216 C3222 0.930 . S
H3217 C3225 0.930 . S
H3218 C3226 0.930 . S
H3219 C3227 0.930 . S
H3220 C3230 0.930 . S
H3221 C3231 0.930 . S
C3222 H3216 0.930 . S
C3222 C3223 1.355 . S
C3222 C3224 1.415 . S
C3223 C3222 1.355 . S
C3223 C3225 1.419 . S
C3224 C3222 1.415 . S
C3224 C3229 1.425 . S
C3224 C3231 1.409 . S
C3225 H3217 0.930 . S
C3225 C3223 1.419 . S
C3225 C3226 1.362 . S
C3226 H3218 0.930 . S
C3226 C3225 1.362 . S
C3226 C3229 1.409 . S
C3227 H3219 0.930 . S
C3227 C3228 1.355 . S
C3227 C3229 1.415 . S
C3228 C3227 1.355 . S
C3228 C3230 1.419 . S
C3229 C3224 1.425 . S
C3229 C3226 1.409 . S
C3229 C3227 1.415 . S
C3230 H3220 0.930 . S
C3230 C3228 1.419 . S
C3230 C3231 1.362 . S
C3231 H3221 0.930 . S
C3231 C3224 1.409 . S
C3231 C3230 1.362 . S
H3232 C3238 0.930 . S
H3233 C3241 0.930 . S
H3234 C3242 0.930 . S
H3235 C3243 0.930 . S
H3236 C3246 0.930 . S
H3237 C3247 0.930 . S
C3238 H3232 0.930 . S
C3238 C3239 1.355 . S
C3238 C3240 1.415 . S
C3239 C3238 1.355 . S
C3239 C3241 1.419 . S
C3240 C3238 1.415 . S
C3240 C3245 1.425 . S
C3240 C3247 1.409 . S
C3241 H3233 0.930 . S
C3241 C3239 1.419 . S
C3241 C3242 1.362 . S
C3242 H3234 0.930 . S
C3242 C3241 1.362 . S
C3242 C3245 1.409 . S
C3243 H3235 0.930 . S
C3243 C3244 1.355 . S
C3243 C3245 1.415 . S
C3244 C3243 1.355 . S
C3244 C3246 1.419 . S
C3245 C3240 1.425 . S
C3245 C3242 1.409 . S
C3245 C3243 1.415 . S
C3246 H3236 0.930 . S
C3246 C3244 1.419 . S
C3246 C3247 1.362 . S
C3247 H3237 0.930 . S
C3247 C3240 1.409 . S
C3247 C3246 1.362 . S
H3248 C3254 0.930 . S
H3249 C3257 0.930 . S
H3250 C3258 0.930 . S
H3251 C3259 0.930 . S
H3252 C3262 0.930 . S
H3253 C3263 0.930 . S
C3254 H3248 0.930 . S
C3254 C3255 1.355 . S
C3254 C3256 1.415 . S
C3255 C3254 1.355 . S
C3255 C3257 1.419 . S
C3256 C3254 1.415 . S
C3256 C3261 1.425 . S
C3256 C3263 1.409 . S
C3257 H3249 0.930 . S
C3257 C3255 1.419 . S
C3257 C3258 1.362 . S
C3258 H3250 0.930 . S
C3258 C3257 1.362 . S
C3258 C3261 1.409 . S
C3259 H3251 0.930 . S
C3259 C3260 1.355 . S
C3259 C3261 1.415 . S
C3260 C3259 1.355 . S
C3260 C3262 1.419 . S
C3261 C3256 1.425 . S
C3261 C3258 1.409 . S
C3261 C3259 1.415 . S
C3262 H3252 0.930 . S
C3262 C3260 1.419 . S
C3262 C3263 1.362 . S
C3263 H3253 0.930 . S
C3263 C3256 1.409 . S
C3263 C3262 1.362 . S
H3264 C3270 0.930 . S
H3265 C3273 0.930 . S
H3266 C3274 0.930 . S
H3267 C3275 0.930 . S
H3268 C3278 0.930 . S
H3269 C3279 0.930 . S
C3270 H3264 0.930 . S
C3270 C3271 1.355 . S
C3270 C3272 1.415 . S
C3271 C3270 1.355 . S
C3271 C3273 1.419 . S
C3272 C3270 1.415 . S
C3272 C3277 1.425 . S
C3272 C3279 1.409 . S
C3273 H3265 0.930 . S
C3273 C3271 1.419 . S
C3273 C3274 1.362 . S
C3274 H3266 0.930 . S
C3274 C3273 1.362 . S
C3274 C3277 1.409 . S
C3275 H3267 0.930 . S
C3275 C3276 1.355 . S
C3275 C3277 1.415 . S
C3276 C3275 1.355 . S
C3276 C3278 1.419 . S
C3277 C3272 1.425 . S
C3277 C3274 1.409 . S
C3277 C3275 1.415 . S
C3278 H3268 0.930 . S
C3278 C3276 1.419 . S
C3278 C3279 1.362 . S
C3279 H3269 0.930 . S
C3279 C3272 1.409 . S
C3279 C3278 1.362 . S
H3280 C3286 0.930 . S
H3281 C3289 0.930 . S
H3282 C3290 0.930 . S
H3283 C3291 0.930 . S
H3284 C3294 0.930 . S
H3285 C3295 0.930 . S
C3286 H3280 0.930 . S
C3286 C3287 1.355 . S
C3286 C3288 1.415 . S
C3287 C3286 1.355 . S
C3287 C3289 1.419 . S
C3288 C3286 1.415 . S
C3288 C3293 1.425 . S
C3288 C3295 1.409 . S
C3289 H3281 0.930 . S
C3289 C3287 1.419 . S
C3289 C3290 1.362 . S
C3290 H3282 0.930 . S
C3290 C3289 1.362 . S
C3290 C3293 1.409 . S
C3291 H3283 0.930 . S
C3291 C3292 1.355 . S
C3291 C3293 1.415 . S
C3292 C3291 1.355 . S
C3292 C3294 1.419 . S
C3293 C3288 1.425 . S
C3293 C3290 1.409 . S
C3293 C3291 1.415 . S
C3294 H3284 0.930 . S
C3294 C3292 1.419 . S
C3294 C3295 1.362 . S
C3295 H3285 0.930 . S
C3295 C3288 1.409 . S
C3295 C3294 1.362 . S
H3296 C3302 0.930 . S
H3297 C3305 0.930 . S
H3298 C3306 0.930 . S
H3299 C3307 0.930 . S
H3300 C3310 0.930 . S
H3301 C3311 0.930 . S
C3302 H3296 0.930 . S
C3302 C3303 1.355 . S
C3302 C3304 1.415 . S
C3303 C3302 1.355 . S
C3303 C3305 1.419 . S
C3304 C3302 1.415 . S
C3304 C3309 1.425 . S
C3304 C3311 1.409 . S
C3305 H3297 0.930 . S
C3305 C3303 1.419 . S
C3305 C3306 1.362 . S
C3306 H3298 0.930 . S
C3306 C3305 1.362 . S
C3306 C3309 1.409 . S
C3307 H3299 0.930 . S
C3307 C3308 1.355 . S
C3307 C3309 1.415 . S
C3308 C3307 1.355 . S
C3308 C3310 1.419 . S
C3309 C3304 1.425 . S
C3309 C3306 1.409 . S
C3309 C3307 1.415 . S
C3310 H3300 0.930 . S
C3310 C3308 1.419 . S
C3310 C3311 1.362 . S
C3311 H3301 0.930 . S
C3311 C3304 1.409 . S
C3311 C3310 1.362 . S
H3312 C3318 0.930 . S
H3313 C3321 0.930 . S
H3314 C3322 0.930 . S
H3315 C3323 0.930 . S
H3316 C3326 0.930 . S
H3317 C3327 0.930 . S
C3318 H3312 0.930 . S
C3318 C3319 1.355 . S
C3318 C3320 1.415 . S
C3319 C3318 1.355 . S
C3319 C3321 1.419 . S
C3320 C3318 1.415 . S
C3320 C3325 1.425 . S
C3320 C3327 1.409 . S
C3321 H3313 0.930 . S
C3321 C3319 1.419 . S
C3321 C3322 1.362 . S
C3322 H3314 0.930 . S
C3322 C3321 1.362 . S
C3322 C3325 1.409 . S
C3323 H3315 0.930 . S
C3323 C3324 1.355 . S
C3323 C3325 1.415 . S
C3324 C3323 1.355 . S
C3324 C3326 1.419 . S
C3325 C3320 1.425 . S
C3325 C3322 1.409 . S
C3325 C3323 1.415 . S
C3326 H3316 0.930 . S
C3326 C3324 1.419 . S
C3326 C3327 1.362 . S
C3327 H3317 0.930 . S
C3327 C3320 1.409 . S
C3327 C3326 1.362 . S
H3328 C3334 0.930 . S
H3329 C3337 0.930 . S
H3330 C3338 0.930 . S
H3331 C3339 0.930 . S
H3332 C3342 0.930 . S
H3333 C3343 0.930 . S
C3334 H3328 0.930 . S
C3334 C3335 1.355 . S
C3334 C3336 1.415 . S
C3335 C3334 1.355 . S
C3335 C3337 1.419 . S
C3336 C3334 1.415 . S
C3336 C3341 1.425 . S
C3336 C3343 1.409 . S
C3337 H3329 0.930 . S
C3337 C3335 1.419 . S
C3337 C3338 1.362 . S
C3338 H3330 0.930 . S
C3338 C3337 1.362 . S
C3338 C3341 1.409 . S
C3339 H3331 0.930 . S
C3339 C3340 1.355 . S
C3339 C3341 1.415 . S
C3340 C3339 1.355 . S
C3340 C3342 1.419 . S
C3341 C3336 1.425 . S
C3341 C3338 1.409 . S
C3341 C3339 1.415 . S
C3342 H3332 0.930 . S
C3342 C3340 1.419 . S
C3342 C3343 1.362 . S
C3343 H3333 0.930 . S
C3343 C3336 1.409 . S
C3343 C3342 1.362 . S
H3344 C3350 0.930 . S
H3345 C3353 0.930 . S
H3346 C3354 0.930 . S
H3347 C3355 0.930 . S
H3348 C3358 0.930 . S
H3349 C3359 0.930 . S
C3350 H3344 0.930 . S
C3350 C3351 1.355 . S
C3350 C3352 1.415 . S
C3351 C3350 1.355 . S
C3351 C3353 1.419 . S
C3352 C3350 1.415 . S
C3352 C3357 1.425 . S
C3352 C3359 1.409 . S
C3353 H3345 0.930 . S
C3353 C3351 1.419 . S
C3353 C3354 1.362 . S
C3354 H3346 0.930 . S
C3354 C3353 1.362 . S
C3354 C3357 1.409 . S
C3355 H3347 0.930 . S
C3355 C3356 1.355 . S
C3355 C3357 1.415 . S
C3356 C3355 1.355 . S
C3356 C3358 1.419 . S
C3357 C3352 1.425 . S
C3357 C3354 1.409 . S
C3357 C3355 1.415 . S
C3358 H3348 0.930 . S
C3358 C3356 1.419 . S
C3358 C3359 1.362 . S
C3359 H3349 0.930 . S
C3359 C3352 1.409 . S
C3359 C3358 1.362 . S
H3360 C3366 0.930 . S
H3361 C3369 0.930 . S
H3362 C3370 0.930 . S
H3363 C3371 0.930 . S
H3364 C3374 0.930 . S
H3365 C3375 0.930 . S
C3366 H3360 0.930 . S
C3366 C3367 1.355 . S
C3366 C3368 1.415 . S
C3367 C3366 1.355 . S
C3367 C3369 1.419 . S
C3368 C3366 1.415 . S
C3368 C3373 1.425 . S
C3368 C3375 1.409 . S
C3369 H3361 0.930 . S
C3369 C3367 1.419 . S
C3369 C3370 1.362 . S
C3370 H3362 0.930 . S
C3370 C3369 1.362 . S
C3370 C3373 1.409 . S
C3371 H3363 0.930 . S
C3371 C3372 1.355 . S
C3371 C3373 1.415 . S
C3372 C3371 1.355 . S
C3372 C3374 1.419 . S
C3373 C3368 1.425 . S
C3373 C3370 1.409 . S
C3373 C3371 1.415 . S
C3374 H3364 0.930 . S
C3374 C3372 1.419 . S
C3374 C3375 1.362 . S
C3375 H3365 0.930 . S
C3375 C3368 1.409 . S
C3375 C3374 1.362 . S
H3376 C3382 0.930 . S
H3377 C3385 0.930 . S
H3378 C3386 0.930 . S
H3379 C3387 0.930 . S
H3380 C3390 0.930 . S
H3381 C3391 0.930 . S
C3382 H3376 0.930 . S
C3382 C3383 1.355 . S
C3382 C3384 1.415 . S
C3383 C3382 1.355 . S
C3383 C3385 1.419 . S
C3384 C3382 1.415 . S
C3384 C3389 1.425 . S
C3384 C3391 1.409 . S
C3385 H3377 0.930 . S
C3385 C3383 1.419 . S
C3385 C3386 1.362 . S
C3386 H3378 0.930 . S
C3386 C3385 1.362 . S
C3386 C3389 1.409 . S
C3387 H3379 0.930 . S
C3387 C3388 1.355 . S
C3387 C3389 1.415 . S
C3388 C3387 1.355 . S
C3388 C3390 1.419 . S
C3389 C3384 1.425 . S
C3389 C3386 1.409 . S
C3389 C3387 1.415 . S
C3390 H3380 0.930 . S
C3390 C3388 1.419 . S
C3390 C3391 1.362 . S
C3391 H3381 0.930 . S
C3391 C3384 1.409 . S
C3391 C3390 1.362 . S
H3392 C3398 0.930 . S
H3393 C3401 0.930 . S
H3394 C3402 0.930 . S
H3395 C3403 0.930 . S
H3396 C3406 0.930 . S
H3397 C3407 0.930 . S
C3398 H3392 0.930 . S
C3398 C3399 1.355 . S
C3398 C3400 1.415 . S
C3399 C3398 1.355 . S
C3399 C3401 1.419 . S
C3400 C3398 1.415 . S
C3400 C3405 1.425 . S
C3400 C3407 1.409 . S
C3401 H3393 0.930 . S
C3401 C3399 1.419 . S
C3401 C3402 1.362 . S
C3402 H3394 0.930 . S
C3402 C3401 1.362 . S
C3402 C3405 1.409 . S
C3403 H3395 0.930 . S
C3403 C3404 1.355 . S
C3403 C3405 1.415 . S
C3404 C3403 1.355 . S
C3404 C3406 1.419 . S
C3405 C3400 1.425 . S
C3405 C3402 1.409 . S
C3405 C3403 1.415 . S
C3406 H3396 0.930 . S
C3406 C3404 1.419 . S
C3406 C3407 1.362 . S
C3407 H3397 0.930 . S
C3407 C3400 1.409 . S
C3407 C3406 1.362 . S
H3408 C3414 0.930 . S
H3409 C3417 0.930 . S
H3410 C3418 0.930 . S
H3411 C3419 0.930 . S
H3412 C3422 0.930 . S
H3413 C3423 0.930 . S
C3414 H3408 0.930 . S
C3414 C3415 1.355 . S
C3414 C3416 1.415 . S
C3415 C3414 1.355 . S
C3415 C3417 1.419 . S
C3416 C3414 1.415 . S
C3416 C3421 1.425 . S
C3416 C3423 1.409 . S
C3417 H3409 0.930 . S
C3417 C3415 1.419 . S
C3417 C3418 1.362 . S
C3418 H3410 0.930 . S
C3418 C3417 1.362 . S
C3418 C3421 1.409 . S
C3419 H3411 0.930 . S
C3419 C3420 1.355 . S
C3419 C3421 1.415 . S
C3420 C3419 1.355 . S
C3420 C3422 1.419 . S
C3421 C3416 1.425 . S
C3421 C3418 1.409 . S
C3421 C3419 1.415 . S
C3422 H3412 0.930 . S
C3422 C3420 1.419 . S
C3422 C3423 1.362 . S
C3423 H3413 0.930 . S
C3423 C3416 1.409 . S
C3423 C3422 1.362 . S
H3424 C3430 0.930 . S
H3425 C3433 0.930 . S
H3426 C3434 0.930 . S
H3427 C3435 0.930 . S
H3428 C3438 0.930 . S
H3429 C3439 0.930 . S
C3430 H3424 0.930 . S
C3430 C3431 1.355 . S
C3430 C3432 1.415 . S
C3431 C3430 1.355 . S
C3431 C3433 1.419 . S
C3432 C3430 1.415 . S
C3432 C3437 1.425 . S
C3432 C3439 1.409 . S
C3433 H3425 0.930 . S
C3433 C3431 1.419 . S
C3433 C3434 1.362 . S
C3434 H3426 0.930 . S
C3434 C3433 1.362 . S
C3434 C3437 1.409 . S
C3435 H3427 0.930 . S
C3435 C3436 1.355 . S
C3435 C3437 1.415 . S
C3436 C3435 1.355 . S
C3436 C3438 1.419 . S
C3437 C3432 1.425 . S
C3437 C3434 1.409 . S
C3437 C3435 1.415 . S
C3438 H3428 0.930 . S
C3438 C3436 1.419 . S
C3438 C3439 1.362 . S
C3439 H3429 0.930 . S
C3439 C3432 1.409 . S
C3439 C3438 1.362 . S
H3440 C3446 0.930 . S
H3441 C3449 0.930 . S
H3442 C3450 0.930 . S
H3443 C3451 0.930 . S
H3444 C3454 0.930 . S
H3445 C3455 0.930 . S
C3446 H3440 0.930 . S
C3446 C3447 1.355 . S
C3446 C3448 1.415 . S
C3447 C3446 1.355 . S
C3447 C3449 1.419 . S
C3448 C3446 1.415 . S
C3448 C3453 1.425 . S
C3448 C3455 1.409 . S
C3449 H3441 0.930 . S
C3449 C3447 1.419 . S
C3449 C3450 1.362 . S
C3450 H3442 0.930 . S
C3450 C3449 1.362 . S
C3450 C3453 1.409 . S
C3451 H3443 0.930 . S
C3451 C3452 1.355 . S
C3451 C3453 1.415 . S
C3452 C3451 1.355 . S
C3452 C3454 1.419 . S
C3453 C3448 1.425 . S
C3453 C3450 1.409 . S
C3453 C3451 1.415 . S
C3454 H3444 0.930 . S
C3454 C3452 1.419 . S
C3454 C3455 1.362 . S
C3455 H3445 0.930 . S
C3455 C3448 1.409 . S
C3455 C3454 1.362 . S
H3456 C3462 0.930 . S
H3457 C3465 0.930 . S
H3458 C3466 0.930 . S
H3459 C3467 0.930 . S
H3460 C3470 0.930 . S
H3461 C3471 0.930 . S
C3462 H3456 0.930 . S
C3462 C3463 1.355 . S
C3462 C3464 1.415 . S
C3463 C3462 1.355 . S
C3463 C3465 1.419 . S
C3464 C3462 1.415 . S
C3464 C3469 1.425 . S
C3464 C3471 1.409 . S
C3465 H3457 0.930 . S
C3465 C3463 1.419 . S
C3465 C3466 1.362 . S
C3466 H3458 0.930 . S
C3466 C3465 1.362 . S
C3466 C3469 1.409 . S
C3467 H3459 0.930 . S
C3467 C3468 1.355 . S
C3467 C3469 1.415 . S
C3468 C3467 1.355 . S
C3468 C3470 1.419 . S
C3469 C3464 1.425 . S
C3469 C3466 1.409 . S
C3469 C3467 1.415 . S
C3470 H3460 0.930 . S
C3470 C3468 1.419 . S
C3470 C3471 1.362 . S
C3471 H3461 0.930 . S
C3471 C3464 1.409 . S
C3471 C3470 1.362 . S
H3472 C3478 0.930 . S
H3473 C3481 0.930 . S
H3474 C3482 0.930 . S
H3475 C3483 0.930 . S
H3476 C3486 0.930 . S
H3477 C3487 0.930 . S
C3478 H3472 0.930 . S
C3478 C3479 1.355 . S
C3478 C3480 1.415 . S
C3479 C3478 1.355 . S
C3479 C3481 1.419 . S
C3480 C3478 1.415 . S
C3480 C3485 1.425 . S
C3480 C3487 1.409 . S
C3481 H3473 0.930 . S
C3481 C3479 1.419 . S
C3481 C3482 1.362 . S
C3482 H3474 0.930 . S
C3482 C3481 1.362 . S
C3482 C3485 1.409 . S
C3483 H3475 0.930 . S
C3483 C3484 1.355 . S
C3483 C3485 1.415 . S
C3484 C3483 1.355 . S
C3484 C3486 1.419 . S
C3485 C3480 1.425 . S
C3485 C3482 1.409 . S
C3485 C3483 1.415 . S
C3486 H3476 0.930 . S
C3486 C3484 1.419 . S
C3486 C3487 1.362 . S
C3487 H3477 0.930 . S
C3487 C3480 1.409 . S
C3487 C3486 1.362 . S
H3488 C3494 0.930 . S
H3489 C3497 0.930 . S
H3490 C3498 0.930 . S
H3491 C3499 0.930 . S
H3492 C3502 0.930 . S
H3493 C3503 0.930 . S
C3494 H3488 0.930 . S
C3494 C3495 1.355 . S
C3494 C3496 1.415 . S
C3495 C3494 1.355 . S
C3495 C3497 1.419 . S
C3496 C3494 1.415 . S
C3496 C3501 1.425 . S
C3496 C3503 1.409 . S
C3497 H3489 0.930 . S
C3497 C3495 1.419 . S
C3497 C3498 1.362 . S
C3498 H3490 0.930 . S
C3498 C3497 1.362 . S
C3498 C3501 1.409 . S
C3499 H3491 0.930 . S
C3499 C3500 1.355 . S
C3499 C3501 1.415 . S
C3500 C3499 1.355 . S
C3500 C3502 1.419 . S
C3501 C3496 1.425 . S
C3501 C3498 1.409 . S
C3501 C3499 1.415 . S
C3502 H3492 0.930 . S
C3502 C3500 1.419 . S
C3502 C3503 1.362 . S
C3503 H3493 0.930 . S
C3503 C3496 1.409 . S
C3503 C3502 1.362 . S
H3504 C3510 0.930 . S
H3505 C3513 0.930 . S
H3506 C3514 0.930 . S
H3507 C3515 0.930 . S
H3508 C3518 0.930 . S
H3509 C3519 0.930 . S
C3510 H3504 0.930 . S
C3510 C3511 1.355 . S
C3510 C3512 1.415 . S
C3511 C3510 1.355 . S
C3511 C3513 1.419 . S
C3512 C3510 1.415 . S
C3512 C3517 1.425 . S
C3512 C3519 1.409 . S
C3513 H3505 0.930 . S
C3513 C3511 1.419 . S
C3513 C3514 1.362 . S
C3514 H3506 0.930 . S
C3514 C3513 1.362 . S
C3514 C3517 1.409 . S
C3515 H3507 0.930 . S
C3515 C3516 1.355 . S
C3515 C3517 1.415 . S
C3516 C3515 1.355 . S
C3516 C3518 1.419 . S
C3517 C3512 1.425 . S
C3517 C3514 1.409 . S
C3517 C3515 1.415 . S
C3518 H3508 0.930 . S
C3518 C3516 1.419 . S
C3518 C3519 1.362 . S
C3519 H3509 0.930 . S
C3519 C3512 1.409 . S
C3519 C3518 1.362 . S
H3520 C3526 0.930 . S
H3521 C3529 0.930 . S
H3522 C3530 0.930 . S
H3523 C3531 0.930 . S
H3524 C3534 0.930 . S
H3525 C3535 0.930 . S
C3526 H3520 0.930 . S
C3526 C3527 1.355 . S
C3526 C3528 1.415 . S
C3527 C3526 1.355 . S
C3527 C3529 1.419 . S
C3528 C3526 1.415 . S
C3528 C3533 1.425 . S
C3528 C3535 1.409 . S
C3529 H3521 0.930 . S
C3529 C3527 1.419 . S
C3529 C3530 1.362 . S
C3530 H3522 0.930 . S
C3530 C3529 1.362 . S
C3530 C3533 1.409 . S
C3531 H3523 0.930 . S
C3531 C3532 1.355 . S
C3531 C3533 1.415 . S
C3532 C3531 1.355 . S
C3532 C3534 1.419 . S
C3533 C3528 1.425 . S
C3533 C3530 1.409 . S
C3533 C3531 1.415 . S
C3534 H3524 0.930 . S
C3534 C3532 1.419 . S
C3534 C3535 1.362 . S
C3535 H3525 0.930 . S
C3535 C3528 1.409 . S
C3535 C3534 1.362 . S
H3536 C3542 0.930 . S
H3537 C3545 0.930 . S
H3538 C3546 0.930 . S
H3539 C3547 0.930 . S
H3540 C3550 0.930 . S
H3541 C3551 0.930 . S
C3542 H3536 0.930 . S
C3542 C3543 1.355 . S
C3542 C3544 1.415 . S
C3543 C3542 1.355 . S
C3543 C3545 1.419 . S
C3544 C3542 1.415 . S
C3544 C3549 1.425 . S
C3544 C3551 1.409 . S
C3545 H3537 0.930 . S
C3545 C3543 1.419 . S
C3545 C3546 1.362 . S
C3546 H3538 0.930 . S
C3546 C3545 1.362 . S
C3546 C3549 1.409 . S
C3547 H3539 0.930 . S
C3547 C3548 1.355 . S
C3547 C3549 1.415 . S
C3548 C3547 1.355 . S
C3548 C3550 1.419 . S
C3549 C3544 1.425 . S
C3549 C3546 1.409 . S
C3549 C3547 1.415 . S
C3550 H3540 0.930 . S
C3550 C3548 1.419 . S
C3550 C3551 1.362 . S
C3551 H3541 0.930 . S
C3551 C3544 1.409 . S
C3551 C3550 1.362 . S
H3552 C3558 0.930 . S
H3553 C3561 0.930 . S
H3554 C3562 0.930 . S
H3555 C3563 0.930 . S
H3556 C3566 0.930 . S
H3557 C3567 0.930 . S
C3558 H3552 0.930 . S
C3558 C3559 1.355 . S
C3558 C3560 1.415 . S
C3559 C3558 1.355 . S
C3559 C3561 1.419 . S
C3560 C3558 1.415 . S
C3560 C3565 1.425 . S
C3560 C3567 1.409 . S
C3561 H3553 0.930 . S
C3561 C3559 1.419 . S
C3561 C3562 1.362 . S
C3562 H3554 0.930 . S
C3562 C3561 1.362 . S
C3562 C3565 1.409 . S
C3563 H3555 0.930 . S
C3563 C3564 1.355 . S
C3563 C3565 1.415 . S
C3564 C3563 1.355 . S
C3564 C3566 1.419 . S
C3565 C3560 1.425 . S
C3565 C3562 1.409 . S
C3565 C3563 1.415 . S
C3566 H3556 0.930 . S
C3566 C3564 1.419 . S
C3566 C3567 1.362 . S
C3567 H3557 0.930 . S
C3567 C3560 1.409 . S
C3567 C3566 1.362 . S
H3568 C3574 0.930 . S
H3569 C3577 0.930 . S
H3570 C3578 0.930 . S
H3571 C3579 0.930 . S
H3572 C3582 0.930 . S
H3573 C3583 0.930 . S
C3574 H3568 0.930 . S
C3574 C3575 1.355 . S
C3574 C3576 1.415 . S
C3575 C3574 1.355 . S
C3575 C3577 1.419 . S
C3576 C3574 1.415 . S
C3576 C3581 1.425 . S
C3576 C3583 1.409 . S
C3577 H3569 0.930 . S
C3577 C3575 1.419 . S
C3577 C3578 1.362 . S
C3578 H3570 0.930 . S
C3578 C3577 1.362 . S
C3578 C3581 1.409 . S
C3579 H3571 0.930 . S
C3579 C3580 1.355 . S
C3579 C3581 1.415 . S
C3580 C3579 1.355 . S
C3580 C3582 1.419 . S
C3581 C3576 1.425 . S
C3581 C3578 1.409 . S
C3581 C3579 1.415 . S
C3582 H3572 0.930 . S
C3582 C3580 1.419 . S
C3582 C3583 1.362 . S
C3583 H3573 0.930 . S
C3583 C3576 1.409 . S
C3583 C3582 1.362 . S
H3584 C3590 0.930 . S
H3585 C3593 0.930 . S
H3586 C3594 0.930 . S
H3587 C3595 0.930 . S
H3588 C3598 0.930 . S
H3589 C3599 0.930 . S
C3590 H3584 0.930 . S
C3590 C3591 1.355 . S
C3590 C3592 1.415 . S
C3591 C3590 1.355 . S
C3591 C3593 1.419 . S
C3592 C3590 1.415 . S
C3592 C3597 1.425 . S
C3592 C3599 1.409 . S
C3593 H3585 0.930 . S
C3593 C3591 1.419 . S
C3593 C3594 1.362 . S
C3594 H3586 0.930 . S
C3594 C3593 1.362 . S
C3594 C3597 1.409 . S
C3595 H3587 0.930 . S
C3595 C3596 1.355 . S
C3595 C3597 1.415 . S
C3596 C3595 1.355 . S
C3596 C3598 1.419 . S
C3597 C3592 1.425 . S
C3597 C3594 1.409 . S
C3597 C3595 1.415 . S
C3598 H3588 0.930 . S
C3598 C3596 1.419 . S
C3598 C3599 1.362 . S
C3599 H3589 0.930 . S
C3599 C3592 1.409 . S
C3599 C3598 1.362 . S
H3600 C3606 0.930 . S
H3601 C3609 0.930 . S
H3602 C3610 0.930 . S
H3603 C3611 0.930 . S
H3604 C3614 0.930 . S
H3605 C3615 0.930 . S
C3606 H3600 0.930 . S
C3606 C3607 1.355 . S
C3606 C3608 1.415 . S
C3607 C3606 1.355 . S
C3607 C3609 1.419 . S
C3608 C3606 1.415 . S
C3608 C3613 1.425 . S
C3608 C3615 1.409 . S
C3609 H3601 0.930 . S
C3609 C3607 1.419 . S
C3609 C3610 1.362 . S
C3610 H3602 0.930 . S
C3610 C3609 1.362 . S
C3610 C3613 1.409 . S
C3611 H3603 0.930 . S
C3611 C3612 1.355 . S
C3611 C3613 1.415 . S
C3612 C3611 1.355 . S
C3612 C3614 1.419 . S
C3613 C3608 1.425 . S
C3613 C3610 1.409 . S
C3613 C3611 1.415 . S
C3614 H3604 0.930 . S
C3614 C3612 1.419 . S
C3614 C3615 1.362 . S
C3615 H3605 0.930 . S
C3615 C3608 1.409 . S
C3615 C3614 1.362 . S
H3616 C3622 0.930 . S
H3617 C3625 0.930 . S
H3618 C3626 0.930 . S
H3619 C3627 0.930 . S
H3620 C3630 0.930 . S
H3621 C3631 0.930 . S
C3622 H3616 0.930 . S
C3622 C3623 1.355 . S
C3622 C3624 1.415 . S
C3623 C3622 1.355 . S
C3623 C3625 1.419 . S
C3624 C3622 1.415 . S
C3624 C3629 1.425 . S
C3624 C3631 1.409 . S
C3625 H3617 0.930 . S
C3625 C3623 1.419 . S
C3625 C3626 1.362 . S
C3626 H3618 0.930 . S
C3626 C3625 1.362 . S
C3626 C3629 1.409 . S
C3627 H3619 0.930 . S
C3627 C3628 1.355 . S
C3627 C3629 1.415 . S
C3628 C3627 1.355 . S
C3628 C3630 1.419 . S
C3629 C3624 1.425 . S
C3629 C3626 1.409 . S
C3629 C3627 1.415 . S
C3630 H3620 0.930 . S
C3630 C3628 1.419 . S
C3630 C3631 1.362 . S
C3631 H3621 0.930 . S
C3631 C3624 1.409 . S
C3631 C3630 1.362 . S
H3632 C3638 0.930 . S
H3633 C3641 0.930 . S
H3634 C3642 0.930 . S
H3635 C3643 0.930 . S
H3636 C3646 0.930 . S
H3637 C3647 0.930 . S
C3638 H3632 0.930 . S
C3638 C3639 1.355 . S
C3638 C3640 1.415 . S
C3639 C3638 1.355 . S
C3639 C3641 1.419 . S
C3640 C3638 1.415 . S
C3640 C3645 1.425 . S
C3640 C3647 1.409 . S
C3641 H3633 0.930 . S
C3641 C3639 1.419 . S
C3641 C3642 1.362 . S
C3642 H3634 0.930 . S
C3642 C3641 1.362 . S
C3642 C3645 1.409 . S
C3643 H3635 0.930 . S
C3643 C3644 1.355 . S
C3643 C3645 1.415 . S
C3644 C3643 1.355 . S
C3644 C3646 1.419 . S
C3645 C3640 1.425 . S
C3645 C3642 1.409 . S
C3645 C3643 1.415 . S
C3646 H3636 0.930 . S
C3646 C3644 1.419 . S
C3646 C3647 1.362 . S
C3647 H3637 0.930 . S
C3647 C3640 1.409 . S
C3647 C3646 1.362 . S
H3648 C3654 0.930 . S
H3649 C3657 0.930 . S
H3650 C3658 0.930 . S
H3651 C3659 0.930 . S
H3652 C3662 0.930 . S
H3653 C3663 0.930 . S
C3654 H3648 0.930 . S
C3654 C3655 1.355 . S
C3654 C3656 1.415 . S
C3655 C3654 1.355 . S
C3655 C3657 1.419 . S
C3656 C3654 1.415 . S
C3656 C3661 1.425 . S
C3656 C3663 1.409 . S
C3657 H3649 0.930 . S
C3657 C3655 1.419 . S
C3657 C3658 1.362 . S
C3658 H3650 0.930 . S
C3658 C3657 1.362 . S
C3658 C3661 1.409 . S
C3659 H3651 0.930 . S
C3659 C3660 1.355 . S
C3659 C3661 1.415 . S
C3660 C3659 1.355 . S
C3660 C3662 1.419 . S
C3661 C3656 1.425 . S
C3661 C3658 1.409 . S
C3661 C3659 1.415 . S
C3662 H3652 0.930 . S
C3662 C3660 1.419 . S
C3662 C3663 1.362 . S
C3663 H3653 0.930 . S
C3663 C3656 1.409 . S
C3663 C3662 1.362 . S
H3664 C3670 0.930 . S
H3665 C3673 0.930 . S
H3666 C3674 0.930 . S
H3667 C3675 0.930 . S
H3668 C3678 0.930 . S
H3669 C3679 0.930 . S
C3670 H3664 0.930 . S
C3670 C3671 1.355 . S
C3670 C3672 1.415 . S
C3671 C3670 1.355 . S
C3671 C3673 1.419 . S
C3672 C3670 1.415 . S
C3672 C3677 1.425 . S
C3672 C3679 1.409 . S
C3673 H3665 0.930 . S
C3673 C3671 1.419 . S
C3673 C3674 1.362 . S
C3674 H3666 0.930 . S
C3674 C3673 1.362 . S
C3674 C3677 1.409 . S
C3675 H3667 0.930 . S
C3675 C3676 1.355 . S
C3675 C3677 1.415 . S
C3676 C3675 1.355 . S
C3676 C3678 1.419 . S
C3677 C3672 1.425 . S
C3677 C3674 1.409 . S
C3677 C3675 1.415 . S
C3678 H3668 0.930 . S
C3678 C3676 1.419 . S
C3678 C3679 1.362 . S
C3679 H3669 0.930 . S
C3679 C3672 1.409 . S
C3679 C3678 1.362 . S
H3680 C3686 0.930 . S
H3681 C3689 0.930 . S
H3682 C3690 0.930 . S
H3683 C3691 0.930 . S
H3684 C3694 0.930 . S
H3685 C3695 0.930 . S
C3686 H3680 0.930 . S
C3686 C3687 1.355 . S
C3686 C3688 1.415 . S
C3687 C3686 1.355 . S
C3687 C3689 1.419 . S
C3688 C3686 1.415 . S
C3688 C3693 1.425 . S
C3688 C3695 1.409 . S
C3689 H3681 0.930 . S
C3689 C3687 1.419 . S
C3689 C3690 1.362 . S
C3690 H3682 0.930 . S
C3690 C3689 1.362 . S
C3690 C3693 1.409 . S
C3691 H3683 0.930 . S
C3691 C3692 1.355 . S
C3691 C3693 1.415 . S
C3692 C3691 1.355 . S
C3692 C3694 1.419 . S
C3693 C3688 1.425 . S
C3693 C3690 1.409 . S
C3693 C3691 1.415 . S
C3694 H3684 0.930 . S
C3694 C3692 1.419 . S
C3694 C3695 1.362 . S
C3695 H3685 0.930 . S
C3695 C3688 1.409 . S
C3695 C3694 1.362 . S
H3696 C3702 0.930 . S
H3697 C3705 0.930 . S
H3698 C3706 0.930 . S
H3699 C3707 0.930 . S
H3700 C3710 0.930 . S
H3701 C3711 0.930 . S
C3702 H3696 0.930 . S
C3702 C3703 1.355 . S
C3702 C3704 1.415 . S
C3703 C3702 1.355 . S
C3703 C3705 1.419 . S
C3704 C3702 1.415 . S
C3704 C3709 1.425 . S
C3704 C3711 1.409 . S
C3705 H3697 0.930 . S
C3705 C3703 1.419 . S
C3705 C3706 1.362 . S
C3706 H3698 0.930 . S
C3706 C3705 1.362 . S
C3706 C3709 1.409 . S
C3707 H3699 0.930 . S
C3707 C3708 1.355 . S
C3707 C3709 1.415 . S
C3708 C3707 1.355 . S
C3708 C3710 1.419 . S
C3709 C3704 1.425 . S
C3709 C3706 1.409 . S
C3709 C3707 1.415 . S
C3710 H3700 0.930 . S
C3710 C3708 1.419 . S
C3710 C3711 1.362 . S
C3711 H3701 0.930 . S
C3711 C3704 1.409 . S
C3711 C3710 1.362 . S
H3712 C3718 0.930 . S
H3713 C3721 0.930 . S
H3714 C3722 0.930 . S
H3715 C3723 0.930 . S
H3716 C3726 0.930 . S
H3717 C3727 0.930 . S
C3718 H3712 0.930 . S
C3718 C3719 1.355 . S
C3718 C3720 1.415 . S
C3719 C3718 1.355 . S
C3719 C3721 1.419 . S
C3720 C3718 1.415 . S
C3720 C3725 1.425 . S
C3720 C3727 1.409 . S
C3721 H3713 0.930 . S
C3721 C3719 1.419 . S
C3721 C3722 1.362 . S
C3722 H3714 0.930 . S
C3722 C3721 1.362 . S
C3722 C3725 1.409 . S
C3723 H3715 0.930 . S
C3723 C3724 1.355 . S
C3723 C3725 1.415 . S
C3724 C3723 1.355 . S
C3724 C3726 1.419 . S
C3725 C3720 1.425 . S
C3725 C3722 1.409 . S
C3725 C3723 1.415 . S
C3726 H3716 0.930 . S
C3726 C3724 1.419 . S
C3726 C3727 1.362 . S
C3727 H3717 0.930 . S
C3727 C3720 1.409 . S
C3727 C3726 1.362 . S
H3728 C3734 0.930 . S
H3729 C3737 0.930 . S
H3730 C3738 0.930 . S
H3731 C3739 0.930 . S
H3732 C3742 0.930 . S
H3733 C3743 0.930 . S
C3734 H3728 0.930 . S
C3734 C3735 1.355 . S
C3734 C3736 1.415 . S
C3735 C3734 1.355 . S
C3735 C3737 1.419 . S
C3736 C3734 1.415 . S
C3736 C3741 1.425 . S
C3736 C3743 1.409 . S
C3737 H3729 0.930 . S
C3737 C3735 1.419 . S
C3737 C3738 1.362 . S
C3738 H3730 0.930 . S
C3738 C3737 1.362 . S
C3738 C3741 1.409 . S
C3739 H3731 0.930 . S
C3739 C3740 1.355 . S
C3739 C3741 1.415 . S
C3740 C3739 1.355 . S
C3740 C3742 1.419 . S
C3741 C3736 1.425 . S
C3741 C3738 1.409 . S
C3741 C3739 1.415 . S
C3742 H3732 0.930 . S
C3742 C3740 1.419 . S
C3742 C3743 1.362 . S
C3743 H3733 0.930 . S
C3743 C3736 1.409 . S
C3743 C3742 1.362 . S
H3744 C3750 0.930 . S
H3745 C3753 0.930 . S
H3746 C3754 0.930 . S
H3747 C3755 0.930 . S
H3748 C3758 0.930 . S
H3749 C3759 0.930 . S
C3750 H3744 0.930 . S
C3750 C3751 1.355 . S
C3750 C3752 1.415 . S
C3751 C3750 1.355 . S
C3751 C3753 1.419 . S
C3752 C3750 1.415 . S
C3752 C3757 1.425 . S
C3752 C3759 1.409 . S
C3753 H3745 0.930 . S
C3753 C3751 1.419 . S
C3753 C3754 1.362 . S
C3754 H3746 0.930 . S
C3754 C3753 1.362 . S
C3754 C3757 1.409 . S
C3755 H3747 0.930 . S
C3755 C3756 1.355 . S
C3755 C3757 1.415 . S
C3756 C3755 1.355 . S
C3756 C3758 1.419 . S
C3757 C3752 1.425 . S
C3757 C3754 1.409 . S
C3757 C3755 1.415 . S
C3758 H3748 0.930 . S
C3758 C3756 1.419 . S
C3758 C3759 1.362 . S
C3759 H3749 0.930 . S
C3759 C3752 1.409 . S
C3759 C3758 1.362 . S
H3760 C3766 0.930 . S
H3761 C3769 0.930 . S
H3762 C3770 0.930 . S
H3763 C3771 0.930 . S
H3764 C3774 0.930 . S
H3765 C3775 0.930 . S
C3766 H3760 0.930 . S
C3766 C3767 1.355 . S
C3766 C3768 1.415 . S
C3767 C3766 1.355 . S
C3767 C3769 1.419 . S
C3768 C3766 1.415 . S
C3768 C3773 1.425 . S
C3768 C3775 1.409 . S
C3769 H3761 0.930 . S
C3769 C3767 1.419 . S
C3769 C3770 1.362 . S
C3770 H3762 0.930 . S
C3770 C3769 1.362 . S
C3770 C3773 1.409 . S
C3771 H3763 0.930 . S
C3771 C3772 1.355 . S
C3771 C3773 1.415 . S
C3772 C3771 1.355 . S
C3772 C3774 1.419 . S
C3773 C3768 1.425 . S
C3773 C3770 1.409 . S
C3773 C3771 1.415 . S
C3774 H3764 0.930 . S
C3774 C3772 1.419 . S
C3774 C3775 1.362 . S
C3775 H3765 0.930 . S
C3775 C3768 1.409 . S
C3775 C3774 1.362 . S
H3776 C3782 0.930 . S
H3777 C3785 0.930 . S
H3778 C3786 0.930 . S
H3779 C3787 0.930 . S
H3780 C3790 0.930 . S
H3781 C3791 0.930 . S
C3782 H3776 0.930 . S
C3782 C3783 1.355 . S
C3782 C3784 1.415 . S
C3783 C3782 1.355 . S
C3783 C3785 1.419 . S
C3784 C3782 1.415 . S
C3784 C3789 1.425 . S
C3784 C3791 1.409 . S
C3785 H3777 0.930 . S
C3785 C3783 1.419 . S
C3785 C3786 1.362 . S
C3786 H3778 0.930 . S
C3786 C3785 1.362 . S
C3786 C3789 1.409 . S
C3787 H3779 0.930 . S
C3787 C3788 1.355 . S
C3787 C3789 1.415 . S
C3788 C3787 1.355 . S
C3788 C3790 1.419 . S
C3789 C3784 1.425 . S
C3789 C3786 1.409 . S
C3789 C3787 1.415 . S
C3790 H3780 0.930 . S
C3790 C3788 1.419 . S
C3790 C3791 1.362 . S
C3791 H3781 0.930 . S
C3791 C3784 1.409 . S
C3791 C3790 1.362 . S
H3792 C3798 0.930 . S
H3793 C3801 0.930 . S
H3794 C3802 0.930 . S
H3795 C3803 0.930 . S
H3796 C3806 0.930 . S
H3797 C3807 0.930 . S
C3798 H3792 0.930 . S
C3798 C3799 1.355 . S
C3798 C3800 1.415 . S
C3799 C3798 1.355 . S
C3799 C3801 1.419 . S
C3800 C3798 1.415 . S
C3800 C3805 1.425 . S
C3800 C3807 1.409 . S
C3801 H3793 0.930 . S
C3801 C3799 1.419 . S
C3801 C3802 1.362 . S
C3802 H3794 0.930 . S
C3802 C3801 1.362 . S
C3802 C3805 1.409 . S
C3803 H3795 0.930 . S
C3803 C3804 1.355 . S
C3803 C3805 1.415 . S
C3804 C3803 1.355 . S
C3804 C3806 1.419 . S
C3805 C3800 1.425 . S
C3805 C3802 1.409 . S
C3805 C3803 1.415 . S
C3806 H3796 0.930 . S
C3806 C3804 1.419 . S
C3806 C3807 1.362 . S
C3807 H3797 0.930 . S
C3807 C3800 1.409 . S
C3807 C3806 1.362 . S
H3808 C3814 0.930 . S
H3809 C3817 0.930 . S
H3810 C3818 0.930 . S
H3811 C3819 0.930 . S
H3812 C3822 0.930 . S
H3813 C3823 0.930 . S
C3814 H3808 0.930 . S
C3814 C3815 1.355 . S
C3814 C3816 1.415 . S
C3815 C3814 1.355 . S
C3815 C3817 1.419 . S
C3816 C3814 1.415 . S
C3816 C3821 1.425 . S
C3816 C3823 1.409 . S
C3817 H3809 0.930 . S
C3817 C3815 1.419 . S
C3817 C3818 1.362 . S
C3818 H3810 0.930 . S
C3818 C3817 1.362 . S
C3818 C3821 1.409 . S
C3819 H3811 0.930 . S
C3819 C3820 1.355 . S
C3819 C3821 1.415 . S
C3820 C3819 1.355 . S
C3820 C3822 1.419 . S
C3821 C3816 1.425 . S
C3821 C3818 1.409 . S
C3821 C3819 1.415 . S
C3822 H3812 0.930 . S
C3822 C3820 1.419 . S
C3822 C3823 1.362 . S
C3823 H3813 0.930 . S
C3823 C3816 1.409 . S
C3823 C3822 1.362 . S
H3824 C3830 0.930 . S
H3825 C3833 0.930 . S
H3826 C3834 0.930 . S
H3827 C3835 0.930 . S
H3828 C3838 0.930 . S
H3829 C3839 0.930 . S
C3830 H3824 0.930 . S
C3830 C3831 1.355 . S
C3830 C3832 1.415 . S
C3831 C3830 1.355 . S
C3831 C3833 1.419 . S
C3832 C3830 1.415 . S
C3832 C3837 1.425 . S
C3832 C3839 1.409 . S
C3833 H3825 0.930 . S
C3833 C3831 1.419 . S
C3833 C3834 1.362 . S
C3834 H3826 0.930 . S
C3834 C3833 1.362 . S
C3834 C3837 1.409 . S
C3835 H3827 0.930 . S
C3835 C3836 1.355 . S
C3835 C3837 1.415 . S
C3836 C3835 1.355 . S
C3836 C3838 1.419 . S
C3837 C3832 1.425 . S
C3837 C3834 1.409 . S
C3837 C3835 1.415 . S
C3838 H3828 0.930 . S
C3838 C3836 1.419 . S
C3838 C3839 1.362 . S
C3839 H3829 0.930 . S
C3839 C3832 1.409 . S
C3839 C3838 1.362 . S
H3840 C3846 0.930 . S
H3841 C3849 0.930 . S
H3842 C3850 0.930 . S
H3843 C3851 0.930 . S
H3844 C3854 0.930 . S
H3845 C3855 0.930 . S
C3846 H3840 0.930 . S
C3846 C3847 1.355 . S
C3846 C3848 1.415 . S
C3847 C3846 1.355 . S
C3847 C3849 1.419 . S
C3848 C3846 1.415 . S
C3848 C3853 1.425 . S
C3848 C3855 1.409 . S
C3849 H3841 0.930 . S
C3849 C3847 1.419 . S
C3849 C3850 1.362 . S
C3850 H3842 0.930 . S
C3850 C3849 1.362 . S
C3850 C3853 1.409 . S
C3851 H3843 0.930 . S
C3851 C3852 1.355 . S
C3851 C3853 1.415 . S
C3852 C3851 1.355 . S
C3852 C3854 1.419 . S
C3853 C3848 1.425 . S
C3853 C3850 1.409 . S
C3853 C3851 1.415 . S
C3854 H3844 0.930 . S
C3854 C3852 1.419 . S
C3854 C3855 1.362 . S
C3855 H3845 0.930 . S
C3855 C3848 1.409 . S
C3855 C3854 1.362 . S
H3856 C3862 0.930 . S
H3857 C3865 0.930 . S
H3858 C3866 0.930 . S
H3859 C3867 0.930 . S
H3860 C3870 0.930 . S
H3861 C3871 0.930 . S
C3862 H3856 0.930 . S
C3862 C3863 1.355 . S
C3862 C3864 1.415 . S
C3863 C3862 1.355 . S
C3863 C3865 1.419 . S
C3864 C3862 1.415 . S
C3864 C3869 1.425 . S
C3864 C3871 1.409 . S
C3865 H3857 0.930 . S
C3865 C3863 1.419 . S
C3865 C3866 1.362 . S
C3866 H3858 0.930 . S
C3866 C3865 1.362 . S
C3866 C3869 1.409 . S
C3867 H3859 0.930 . S
C3867 C3868 1.355 . S
C3867 C3869 1.415 . S
C3868 C3867 1.355 . S
C3868 C3870 1.419 . S
C3869 C3864 1.425 . S
C3869 C3866 1.409 . S
C3869 C3867 1.415 . S
C3870 H3860 0.930 . S
C3870 C3868 1.419 . S
C3870 C3871 1.362 . S
C3871 H3861 0.930 . S
C3871 C3864 1.409 . S
C3871 C3870 1.362 . S
H3872 C3878 0.930 . S
H3873 C3881 0.930 . S
H3874 C3882 0.930 . S
H3875 C3883 0.930 . S
H3876 C3886 0.930 . S
H3877 C3887 0.930 . S
C3878 H3872 0.930 . S
C3878 C3879 1.355 . S
C3878 C3880 1.415 . S
C3879 C3878 1.355 . S
C3879 C3881 1.419 . S
C3880 C3878 1.415 . S
C3880 C3885 1.425 . S
C3880 C3887 1.409 . S
C3881 H3873 0.930 . S
C3881 C3879 1.419 . S
C3881 C3882 1.362 . S
C3882 H3874 0.930 . S
C3882 C3881 1.362 . S
C3882 C3885 1.409 . S
C3883 H3875 0.930 . S
C3883 C3884 1.355 . S
C3883 C3885 1.415 . S
C3884 C3883 1.355 . S
C3884 C3886 1.419 . S
C3885 C3880 1.425 . S
C3885 C3882 1.409 . S
C3885 C3883 1.415 . S
C3886 H3876 0.930 . S
C3886 C3884 1.419 . S
C3886 C3887 1.362 . S
C3887 H3877 0.930 . S
C3887 C3880 1.409 . S
C3887 C3886 1.362 . S
H3888 C3894 0.930 . S
H3889 C3897 0.930 . S
H3890 C3898 0.930 . S
H3891 C3899 0.930 . S
H3892 C3902 0.930 . S
H3893 C3903 0.930 . S
C3894 H3888 0.930 . S
C3894 C3895 1.355 . S
C3894 C3896 1.415 . S
C3895 C3894 1.355 . S
C3895 C3897 1.419 . S
C3896 C3894 1.415 . S
C3896 C3901 1.425 . S
C3896 C3903 1.409 . S
C3897 H3889 0.930 . S
C3897 C3895 1.419 . S
C3897 C3898 1.362 . S
C3898 H3890 0.930 . S
C3898 C3897 1.362 . S
C3898 C3901 1.409 . S
C3899 H3891 0.930 . S
C3899 C3900 1.355 . S
C3899 C3901 1.415 . S
C3900 C3899 1.355 . S
C3900 C3902 1.419 . S
C3901 C3896 1.425 . S
C3901 C3898 1.409 . S
C3901 C3899 1.415 . S
C3902 H3892 0.930 . S
C3902 C3900 1.419 . S
C3902 C3903 1.362 . S
C3903 H3893 0.930 . S
C3903 C3896 1.409 . S
C3903 C3902 1.362 . S
H3904 C3910 0.930 . S
H3905 C3913 0.930 . S
H3906 C3914 0.930 . S
H3907 C3915 0.930 . S
H3908 C3918 0.930 . S
H3909 C3919 0.930 . S
C3910 H3904 0.930 . S
C3910 C3911 1.355 . S
C3910 C3912 1.415 . S
C3911 C3910 1.355 . S
C3911 C3913 1.419 . S
C3912 C3910 1.415 . S
C3912 C3917 1.425 . S
C3912 C3919 1.409 . S
C3913 H3905 0.930 . S
C3913 C3911 1.419 . S
C3913 C3914 1.362 . S
C3914 H3906 0.930 . S
C3914 C3913 1.362 . S
C3914 C3917 1.409 . S
C3915 H3907 0.930 . S
C3915 C3916 1.355 . S
C3915 C3917 1.415 . S
C3916 C3915 1.355 . S
C3916 C3918 1.419 . S
C3917 C3912 1.425 . S
C3917 C3914 1.409 . S
C3917 C3915 1.415 . S
C3918 H3908 0.930 . S
C3918 C3916 1.419 . S
C3918 C3919 1.362 . S
C3919 H3909 0.930 . S
C3919 C3912 1.409 . S
C3919 C3918 1.362 . S
H3920 C3926 0.930 . S
H3921 C3929 0.930 . S
H3922 C3930 0.930 . S
H3923 C3931 0.930 . S
H3924 C3934 0.930 . S
H3925 C3935 0.930 . S
C3926 H3920 0.930 . S
C3926 C3927 1.355 . S
C3926 C3928 1.415 . S
C3927 C3926 1.355 . S
C3927 C3929 1.419 . S
C3928 C3926 1.415 . S
C3928 C3933 1.425 . S
C3928 C3935 1.409 . S
C3929 H3921 0.930 . S
C3929 C3927 1.419 . S
C3929 C3930 1.362 . S
C3930 H3922 0.930 . S
C3930 C3929 1.362 . S
C3930 C3933 1.409 . S
C3931 H3923 0.930 . S
C3931 C3932 1.355 . S
C3931 C3933 1.415 . S
C3932 C3931 1.355 . S
C3932 C3934 1.419 . S
C3933 C3928 1.425 . S
C3933 C3930 1.409 . S
C3933 C3931 1.415 . S
C3934 H3924 0.930 . S
C3934 C3932 1.419 . S
C3934 C3935 1.362 . S
C3935 H3925 0.930 . S
C3935 C3928 1.409 . S
C3935 C3934 1.362 . S
H3936 C3942 0.930 . S
H3937 C3945 0.930 . S
H3938 C3946 0.930 . S
H3939 C3947 0.930 . S
H3940 C3950 0.930 . S
H3941 C3951 0.930 . S
C3942 H3936 0.930 . S
C3942 C3943 1.355 . S
C3942 C3944 1.415 . S
C3943 C3942 1.355 . S
C3943 C3945 1.419 . S
C3944 C3942 1.415 . S
C3944 C3949 1.425 . S
C3944 C3951 1.409 . S
C3945 H3937 0.930 . S
C3945 C3943 1.419 . S
C3945 C3946 1.362 . S
C3946 H3938 0.930 . S
C3946 C3945 1.362 . S
C3946 C3949 1.409 . S
C3947 H3939 0.930 . S
C3947 C3948 1.355 . S
C3947 C3949 1.415 . S
C3948 C3947 1.355 . S
C3948 C3950 1.419 . S
C3949 C3944 1.425 . S
C3949 C3946 1.409 . S
C3949 C3947 1.415 . S
C3950 H3940 0.930 . S
C3950 C3948 1.419 . S
C3950 C3951 1.362 . S
C3951 H3941 0.930 . S
C3951 C3944 1.409 . S
C3951 C3950 1.362 . S
H3952 C3958 0.930 . S
H3953 C3961 0.930 . S
H3954 C3962 0.930 . S
H3955 C3963 0.930 . S
H3956 C3966 0.930 . S
H3957 C3967 0.930 . S
C3958 H3952 0.930 . S
C3958 C3959 1.355 . S
C3958 C3960 1.415 . S
C3959 C3958 1.355 . S
C3959 C3961 1.419 . S
C3960 C3958 1.415 . S
C3960 C3965 1.425 . S
C3960 C3967 1.409 . S
C3961 H3953 0.930 . S
C3961 C3959 1.419 . S
C3961 C3962 1.362 . S
C3962 H3954 0.930 . S
C3962 C3961 1.362 . S
C3962 C3965 1.409 . S
C3963 H3955 0.930 . S
C3963 C3964 1.355 . S
C3963 C3965 1.415 . S
C3964 C3963 1.355 . S
C3964 C3966 1.419 . S
C3965 C3960 1.425 . S
C3965 C3962 1.409 . S
C3965 C3963 1.415 . S
C3966 H3956 0.930 . S
C3966 C3964 1.419 . S
C3966 C3967 1.362 . S
C3967 H3957 0.930 . S
C3967 C3960 1.409 . S
C3967 C3966 1.362 . S
H3968 C3974 0.930 . S
H3969 C3977 0.930 . S
H3970 C3978 0.930 . S
H3971 C3979 0.930 . S
H3972 C3982 0.930 . S
H3973 C3983 0.930 . S
C3974 H3968 0.930 . S
C3974 C3975 1.355 . S
C3974 C3976 1.415 . S
C3975 C3974 1.355 . S
C3975 C3977 1.419 . S
C3976 C3974 1.415 . S
C3976 C3981 1.425 . S
C3976 C3983 1.409 . S
C3977 H3969 0.930 . S
C3977 C3975 1.419 . S
C3977 C3978 1.362 . S
C3978 H3970 0.930 . S
C3978 C3977 1.362 . S
C3978 C3981 1.409 . S
C3979 H3971 0.930 . S
C3979 C3980 1.355 . S
C3979 C3981 1.415 . S
C3980 C3979 1.355 . S
C3980 C3982 1.419 . S
C3981 C3976 1.425 . S
C3981 C3978 1.409 . S
C3981 C3979 1.415 . S
C3982 H3972 0.930 . S
C3982 C3980 1.419 . S
C3982 C3983 1.362 . S
C3983 H3973 0.930 . S
C3983 C3976 1.409 . S
C3983 C3982 1.362 . S
H3984 C3990 0.930 . S
H3985 C3993 0.930 . S
H3986 C3994 0.930 . S
H3987 C3995 0.930 . S
H3988 C3998 0.930 . S
H3989 C3999 0.930 . S
C3990 H3984 0.930 . S
C3990 C3991 1.355 . S
C3990 C3992 1.415 . S
C3991 C3990 1.355 . S
C3991 C3993 1.419 . S
C3992 C3990 1.415 . S
C3992 C3997 1.425 . S
C3992 C3999 1.409 . S
C3993 H3985 0.930 . S
C3993 C3991 1.419 . S
C3993 C3994 1.362 . S
C3994 H3986 0.930 . S
C3994 C3993 1.362 . S
C3994 C3997 1.409 . S
C3995 H3987 0.930 . S
C3995 C3996 1.355 . S
C3995 C3997 1.415 . S
C3996 C3995 1.355 . S
C3996 C3998 1.419 . S
C3997 C3992 1.425 . S
C3997 C3994 1.409 . S
C3997 C3995 1.415 . S
C3998 H3988 0.930 . S
C3998 C3996 1.419 . S
C3998 C3999 1.362 . S
C3999 H3989 0.930 . S
C3999 C3992 1.409 . S
C3999 C3998 1.362 . S
H4000 C4006 0.930 . S
H4001 C4009 0.930 . S
H4002 C4010 0.930 . S
H4003 C4011 0.930 . S
H4004 C4014 0.930 . S
H4005 C4015 0.930 . S
C4006 H4000 0.930 . S
C4006 C4007 1.355 . S
C4006 C4008 1.415 . S
C4007 C4006 1.355 . S
C4007 C4009 1.419 . S
C4008 C4006 1.415 . S
C4008 C4013 1.425 . S
C4008 C4015 1.409 . S
C4009 H4001 0.930 . S
C4009 C4007 1.419 . S
C4009 C4010 1.362 . S
C4010 H4002 0.930 . S
C4010 C4009 1.362 . S
C4010 C4013 1.409 . S
C4011 H4003 0.930 . S
C4011 C4012 1.355 . S
C4011 C4013 1.415 . S
C4012 C4011 1.355 . S
C4012 C4014 1.419 . S
C4013 C4008 1.425 . S
C4013 C4010 1.409 . S
C4013 C4011 1.415 . S
C4014 H4004 0.930 . S
C4014 C4012 1.419 . S
C4014 C4015 1.362 . S
C4015 H4005 0.930 . S
C4015 C4008 1.409 . S
C4015 C4014 1.362 . S
H4016 C4022 0.930 . S
H4017 C4025 0.930 . S
H4018 C4026 0.930 . S
H4019 C4027 0.930 . S
H4020 C4030 0.930 . S
H4021 C4031 0.930 . S
C4022 H4016 0.930 . S
C4022 C4023 1.355 . S
C4022 C4024 1.415 . S
C4023 C4022 1.355 . S
C4023 C4025 1.419 . S
C4024 C4022 1.415 . S
C4024 C4029 1.425 . S
C4024 C4031 1.409 . S
C4025 H4017 0.930 . S
C4025 C4023 1.419 . S
C4025 C4026 1.362 . S
C4026 H4018 0.930 . S
C4026 C4025 1.362 . S
C4026 C4029 1.409 . S
C4027 H4019 0.930 . S
C4027 C4028 1.355 . S
C4027 C4029 1.415 . S
C4028 C4027 1.355 . S
C4028 C4030 1.419 . S
C4029 C4024 1.425 . S
C4029 C4026 1.409 . S
C4029 C4027 1.415 . S
C4030 H4020 0.930 . S
C4030 C4028 1.419 . S
C4030 C4031 1.362 . S
C4031 H4021 0.930 . S
C4031 C4024 1.409 . S
C4031 C4030 1.362 . S
H4032 C4038 0.930 . S
H4033 C4041 0.930 . S
H4034 C4042 0.930 . S
H4035 C4043 0.930 . S
H4036 C4046 0.930 . S
H4037 C4047 0.930 . S
C4038 H4032 0.930 . S
C4038 C4039 1.355 . S
C4038 C4040 1.415 . S
C4039 C4038 1.355 . S
C4039 C4041 1.419 . S
C4040 C4038 1.415 . S
C4040 C4045 1.425 . S
C4040 C4047 1.409 . S
C4041 H4033 0.930 . S
C4041 C4039 1.419 . S
C4041 C4042 1.362 . S
C4042 H4034 0.930 . S
C4042 C4041 1.362 . S
C4042 C4045 1.409 . S
C4043 H4035 0.930 . S
C4043 C4044 1.355 . S
C4043 C4045 1.415 . S
C4044 C4043 1.355 . S
C4044 C4046 1.419 . S
C4045 C4040 1.425 . S
C4045 C4042 1.409 . S
C4045 C4043 1.415 . S
C4046 H4036 0.930 . S
C4046 C4044 1.419 . S
C4046 C4047 1.362 . S
C4047 H4037 0.930 . S
C4047 C4040 1.409 . S
C4047 C4046 1.362 . S
H4048 C4054 0.930 . S
H4049 C4057 0.930 . S
H4050 C4058 0.930 . S
H4051 C4059 0.930 . S
H4052 C4062 0.930 . S
H4053 C4063 0.930 . S
C4054 H4048 0.930 . S
C4054 C4055 1.355 . S
C4054 C4056 1.415 . S
C4055 C4054 1.355 . S
C4055 C4057 1.419 . S
C4056 C4054 1.415 . S
C4056 C4061 1.425 . S
C4056 C4063 1.409 . S
C4057 H4049 0.930 . S
C4057 C4055 1.419 . S
C4057 C4058 1.362 . S
C4058 H4050 0.930 . S
C4058 C4057 1.362 . S
C4058 C4061 1.409 . S
C4059 H4051 0.930 . S
C4059 C4060 1.355 . S
C4059 C4061 1.415 . S
C4060 C4059 1.355 . S
C4060 C4062 1.419 . S
C4061 C4056 1.425 . S
C4061 C4058 1.409 . S
C4061 C4059 1.415 . S
C4062 H4052 0.930 . S
C4062 C4060 1.419 . S
C4062 C4063 1.362 . S
C4063 H4053 0.930 . S
C4063 C4056 1.409 . S
C4063 C4062 1.362 . S
H4064 C4070 0.930 . S
H4065 C4073 0.930 . S
H4066 C4074 0.930 . S
H4067 C4075 0.930 . S
H4068 C4078 0.930 . S
H4069 C4079 0.930 . S
C4070 H4064 0.930 . S
C4070 C4071 1.355 . S
C4070 C4072 1.415 . S
C4071 C4070 1.355 . S
C4071 C4073 1.419 . S
C4072 C4070 1.415 . S
C4072 C4077 1.425 . S
C4072 C4079 1.409 . S
C4073 H4065 0.930 . S
C4073 C4071 1.419 . S
C4073 C4074 1.362 . S
C4074 H4066 0.930 . S
C4074 C4073 1.362 . S
C4074 C4077 1.409 . S
C4075 H4067 0.930 . S
C4075 C4076 1.355 . S
C4075 C4077 1.415 . S
C4076 C4075 1.355 . S
C4076 C4078 1.419 . S
C4077 C4072 1.425 . S
C4077 C4074 1.409 . S
C4077 C4075 1.415 . S
C4078 H4068 0.930 . S
C4078 C4076 1.419 . S
C4078 C4079 1.362 . S
C4079 H4069 0.930 . S
C4079 C4072 1.409 . S
C4079 C4078 1.362 . S
H4080 C4086 0.930 . S
H4081 C4089 0.930 . S
H4082 C4090 0.930 . S
H4083 C4091 0.930 . S
H4084 C4094 0.930 . S
H4085 C4095 0.930 . S
C4086 H4080 0.930 . S
C4086 C4087 1.355 . S
C4086 C4088 1.415 . S
C4087 C4086 1.355 . S
C4087 C4089 1.419 . S
C4088 C4086 1.415 . S
C4088 C4093 1.425 . S
C4088 C4095 1.409 . S
C4089 H4081 0.930 . S
C4089 C4087 1.419 . S
C4089 C4090 1.362 . S
C4090 H4082 0.930 . S
C4090 C4089 1.362 . S
C4090 C4093 1.409 . S
C4091 H4083 0.930 . S
C4091 C4092 1.355 . S
C4091 C4093 1.415 . S
C4092 C4091 1.355 . S
C4092 C4094 1.419 . S
C4093 C4088 1.425 . S
C4093 C4090 1.409 . S
C4093 C4091 1.415 . S
C4094 H4084 0.930 . S
C4094 C4092 1.419 . S
C4094 C4095 1.362 . S
C4095 H4085 0.930 . S
C4095 C4088 1.409 . S
C4095 C4094 1.362 . S
H4096 C4102 0.930 . S
H4097 C4105 0.930 . S
H4098 C4106 0.930 . S
H4099 C4107 0.930 . S
H4100 C4110 0.930 . S
H4101 C4111 0.930 . S
C4102 H4096 0.930 . S
C4102 C4103 1.355 . S
C4102 C4104 1.415 . S
C4103 C4102 1.355 . S
C4103 C4105 1.419 . S
C4104 C4102 1.415 . S
C4104 C4109 1.425 . S
C4104 C4111 1.409 . S
C4105 H4097 0.930 . S
C4105 C4103 1.419 . S
C4105 C4106 1.362 . S
C4106 H4098 0.930 . S
C4106 C4105 1.362 . S
C4106 C4109 1.409 . S
C4107 H4099 0.930 . S
C4107 C4108 1.355 . S
C4107 C4109 1.415 . S
C4108 C4107 1.355 . S
C4108 C4110 1.419 . S
C4109 C4104 1.425 . S
C4109 C4106 1.409 . S
C4109 C4107 1.415 . S
C4110 H4100 0.930 . S
C4110 C4108 1.419 . S
C4110 C4111 1.362 . S
C4111 H4101 0.930 . S
C4111 C4104 1.409 . S
C4111 C4110 1.362 . S
H4112 C4118 0.930 . S
H4113 C4121 0.930 . S
H4114 C4122 0.930 . S
H4115 C4123 0.930 . S
H4116 C4126 0.930 . S
H4117 C4127 0.930 . S
C4118 H4112 0.930 . S
C4118 C4119 1.355 . S
C4118 C4120 1.415 . S
C4119 C4118 1.355 . S
C4119 C4121 1.419 . S
C4120 C4118 1.415 . S
C4120 C4125 1.425 . S
C4120 C4127 1.409 . S
C4121 H4113 0.930 . S
C4121 C4119 1.419 . S
C4121 C4122 1.362 . S
C4122 H4114 0.930 . S
C4122 C4121 1.362 . S
C4122 C4125 1.409 . S
C4123 H4115 0.930 . S
C4123 C4124 1.355 . S
C4123 C4125 1.415 . S
C4124 C4123 1.355 . S
C4124 C4126 1.419 . S
C4125 C4120 1.425 . S
C4125 C4122 1.409 . S
C4125 C4123 1.415 . S
C4126 H4116 0.930 . S
C4126 C4124 1.419 . S
C4126 C4127 1.362 . S
C4127 H4117 0.930 . S
C4127 C4120 1.409 . S
C4127 C4126 1.362 . S
H4128 C4134 0.930 . S
H4129 C4137 0.930 . S
H4130 C4138 0.930 . S
H4131 C4139 0.930 . S
H4132 C4142 0.930 . S
H4133 C4143 0.930 . S
C4134 H4128 0.930 . S
C4134 C4135 1.355 . S
C4134 C4136 1.415 . S
C4135 C4134 1.355 . S
C4135 C4137 1.419 . S
C4136 C4134 1.415 . S
C4136 C4141 1.425 . S
C4136 C4143 1.409 . S
C4137 H4129 0.930 . S
C4137 C4135 1.419 . S
C4137 C4138 1.362 . S
C4138 H4130 0.930 . S
C4138 C4137 1.362 . S
C4138 C4141 1.409 . S
C4139 H4131 0.930 . S
C4139 C4140 1.355 . S
C4139 C4141 1.415 . S
C4140 C4139 1.355 . S
C4140 C4142 1.419 . S
C4141 C4136 1.425 . S
C4141 C4138 1.409 . S
C4141 C4139 1.415 . S
C4142 H4132 0.930 . S
C4142 C4140 1.419 . S
C4142 C4143 1.362 . S
C4143 H4133 0.930 . S
C4143 C4136 1.409 . S
C4143 C4142 1.362 . S
H4144 C4150 0.930 . S
H4145 C4153 0.930 . S
H4146 C4154 0.930 . S
H4147 C4155 0.930 . S
H4148 C4158 0.930 . S
H4149 C4159 0.930 . S
C4150 H4144 0.930 . S
C4150 C4151 1.355 . S
C4150 C4152 1.415 . S
C4151 C4150 1.355 . S
C4151 C4153 1.419 . S
C4152 C4150 1.415 . S
C4152 C4157 1.425 . S
C4152 C4159 1.409 . S
C4153 H4145 0.930 . S
C4153 C4151 1.419 . S
C4153 C4154 1.362 . S
C4154 H4146 0.930 . S
C4154 C4153 1.362 . S
C4154 C4157 1.409 . S
C4155 H4147 0.930 . S
C4155 C4156 1.355 . S
C4155 C4157 1.415 . S
C4156 C4155 1.355 . S
C4156 C4158 1.419 . S
C4157 C4152 1.425 . S
C4157 C4154 1.409 . S
C4157 C4155 1.415 . S
C4158 H4148 0.930 . S
C4158 C4156 1.419 . S
C4158 C4159 1.362 . S
C4159 H4149 0.930 . S
C4159 C4152 1.409 . S
C4159 C4158 1.362 . S
H4160 C4166 0.930 . S
H4161 C4169 0.930 . S
H4162 C4170 0.930 . S
H4163 C4171 0.930 . S
H4164 C4174 0.930 . S
H4165 C4175 0.930 . S
C4166 H4160 0.930 . S
C4166 C4167 1.355 . S
C4166 C4168 1.415 . S
C4167 C4166 1.355 . S
C4167 C4169 1.419 . S
C4168 C4166 1.415 . S
C4168 C4173 1.425 . S
C4168 C4175 1.409 . S
C4169 H4161 0.930 . S
C4169 C4167 1.419 . S
C4169 C4170 1.362 . S
C4170 H4162 0.930 . S
C4170 C4169 1.362 . S
C4170 C4173 1.409 . S
C4171 H4163 0.930 . S
C4171 C4172 1.355 . S
C4171 C4173 1.415 . S
C4172 C4171 1.355 . S
C4172 C4174 1.419 . S
C4173 C4168 1.425 . S
C4173 C4170 1.409 . S
C4173 C4171 1.415 . S
C4174 H4164 0.930 . S
C4174 C4172 1.419 . S
C4174 C4175 1.362 . S
C4175 H4165 0.930 . S
C4175 C4168 1.409 . S
C4175 C4174 1.362 . S
H4176 C4182 0.930 . S
H4177 C4185 0.930 . S
H4178 C4186 0.930 . S
H4179 C4187 0.930 . S
H4180 C4190 0.930 . S
H4181 C4191 0.930 . S
C4182 H4176 0.930 . S
C4182 C4183 1.355 . S
C4182 C4184 1.415 . S
C4183 C4182 1.355 . S
C4183 C4185 1.419 . S
C4184 C4182 1.415 . S
C4184 C4189 1.425 . S
C4184 C4191 1.409 . S
C4185 H4177 0.930 . S
C4185 C4183 1.419 . S
C4185 C4186 1.362 . S
C4186 H4178 0.930 . S
C4186 C4185 1.362 . S
C4186 C4189 1.409 . S
C4187 H4179 0.930 . S
C4187 C4188 1.355 . S
C4187 C4189 1.415 . S
C4188 C4187 1.355 . S
C4188 C4190 1.419 . S
C4189 C4184 1.425 . S
C4189 C4186 1.409 . S
C4189 C4187 1.415 . S
C4190 H4180 0.930 . S
C4190 C4188 1.419 . S
C4190 C4191 1.362 . S
C4191 H4181 0.930 . S
C4191 C4184 1.409 . S
C4191 C4190 1.362 . S
H4192 C4198 0.930 . S
H4193 C4201 0.930 . S
H4194 C4202 0.930 . S
H4195 C4203 0.930 . S
H4196 C4206 0.930 . S
H4197 C4207 0.930 . S
C4198 H4192 0.930 . S
C4198 C4199 1.355 . S
C4198 C4200 1.415 . S
C4199 C4198 1.355 . S
C4199 C4201 1.419 . S
C4200 C4198 1.415 . S
C4200 C4205 1.425 . S
C4200 C4207 1.409 . S
C4201 H4193 0.930 . S
C4201 C4199 1.419 . S
C4201 C4202 1.362 . S
C4202 H4194 0.930 . S
C4202 C4201 1.362 . S
C4202 C4205 1.409 . S
C4203 H4195 0.930 . S
C4203 C4204 1.355 . S
C4203 C4205 1.415 . S
C4204 C4203 1.355 . S
C4204 C4206 1.419 . S
C4205 C4200 1.425 . S
C4205 C4202 1.409 . S
C4205 C4203 1.415 . S
C4206 H4196 0.930 . S
C4206 C4204 1.419 . S
C4206 C4207 1.362 . S
C4207 H4197 0.930 . S
C4207 C4200 1.409 . S
C4207 C4206 1.362 . S
H4208 C4214 0.930 . S
H4209 C4217 0.930 . S
H4210 C4218 0.930 . S
H4211 C4219 0.930 . S
H4212 C4222 0.930 . S
H4213 C4223 0.930 . S
C4214 H4208 0.930 . S
C4214 C4215 1.355 . S
C4214 C4216 1.415 . S
C4215 C4214 1.355 . S
C4215 C4217 1.419 . S
C4216 C4214 1.415 . S
C4216 C4221 1.425 . S
C4216 C4223 1.409 . S
C4217 H4209 0.930 . S
C4217 C4215 1.419 . S
C4217 C4218 1.362 . S
C4218 H4210 0.930 . S
C4218 C4217 1.362 . S
C4218 C4221 1.409 . S
C4219 H4211 0.930 . S
C4219 C4220 1.355 . S
C4219 C4221 1.415 . S
C4220 C4219 1.355 . S
C4220 C4222 1.419 . S
C4221 C4216 1.425 . S
C4221 C4218 1.409 . S
C4221 C4219 1.415 . S
C4222 H4212 0.930 . S
C4222 C4220 1.419 . S
C4222 C4223 1.362 . S
C4223 H4213 0.930 . S
C4223 C4216 1.409 . S
C4223 C4222 1.362 . S
H4224 C4230 0.930 . S
H4225 C4233 0.930 . S
H4226 C4234 0.930 . S
H4227 C4235 0.930 . S
H4228 C4238 0.930 . S
H4229 C4239 0.930 . S
C4230 H4224 0.930 . S
C4230 C4231 1.355 . S
C4230 C4232 1.415 . S
C4231 C4230 1.355 . S
C4231 C4233 1.419 . S
C4232 C4230 1.415 . S
C4232 C4237 1.425 . S
C4232 C4239 1.409 . S
C4233 H4225 0.930 . S
C4233 C4231 1.419 . S
C4233 C4234 1.362 . S
C4234 H4226 0.930 . S
C4234 C4233 1.362 . S
C4234 C4237 1.409 . S
C4235 H4227 0.930 . S
C4235 C4236 1.355 . S
C4235 C4237 1.415 . S
C4236 C4235 1.355 . S
C4236 C4238 1.419 . S
C4237 C4232 1.425 . S
C4237 C4234 1.409 . S
C4237 C4235 1.415 . S
C4238 H4228 0.930 . S
C4238 C4236 1.419 . S
C4238 C4239 1.362 . S
C4239 H4229 0.930 . S
C4239 C4232 1.409 . S
C4239 C4238 1.362 . S
H4240 C4246 0.930 . S
H4241 C4249 0.930 . S
H4242 C4250 0.930 . S
H4243 C4251 0.930 . S
H4244 C4254 0.930 . S
H4245 C4255 0.930 . S
C4246 H4240 0.930 . S
C4246 C4247 1.355 . S
C4246 C4248 1.415 . S
C4247 C4246 1.355 . S
C4247 C4249 1.419 . S
C4248 C4246 1.415 . S
C4248 C4253 1.425 . S
C4248 C4255 1.409 . S
C4249 H4241 0.930 . S
C4249 C4247 1.419 . S
C4249 C4250 1.362 . S
C4250 H4242 0.930 . S
C4250 C4249 1.362 . S
C4250 C4253 1.409 . S
C4251 H4243 0.930 . S
C4251 C4252 1.355 . S
C4251 C4253 1.415 . S
C4252 C4251 1.355 . S
C4252 C4254 1.419 . S
C4253 C4248 1.425 . S
C4253 C4250 1.409 . S
C4253 C4251 1.415 . S
C4254 H4244 0.930 . S
C4254 C4252 1.419 . S
C4254 C4255 1.362 . S
C4255 H4245 0.930 . S
C4255 C4248 1.409 . S
C4255 C4254 1.362 . S
H4256 C4262 0.930 . S
H4257 C4265 0.930 . S
H4258 C4266 0.930 . S
H4259 C4267 0.930 . S
H4260 C4270 0.930 . S
H4261 C4271 0.930 . S
C4262 H4256 0.930 . S
C4262 C4263 1.355 . S
C4262 C4264 1.415 . S
C4263 C4262 1.355 . S
C4263 C4265 1.419 . S
C4264 C4262 1.415 . S
C4264 C4269 1.425 . S
C4264 C4271 1.409 . S
C4265 H4257 0.930 . S
C4265 C4263 1.419 . S
C4265 C4266 1.362 . S
C4266 H4258 0.930 . S
C4266 C4265 1.362 . S
C4266 C4269 1.409 . S
C4267 H4259 0.930 . S
C4267 C4268 1.355 . S
C4267 C4269 1.415 . S
C4268 C4267 1.355 . S
C4268 C4270 1.419 . S
C4269 C4264 1.425 . S
C4269 C4266 1.409 . S
C4269 C4267 1.415 . S
C4270 H4260 0.930 . S
C4270 C4268 1.419 . S
C4270 C4271 1.362 . S
C4271 H4261 0.930 . S
C4271 C4264 1.409 . S
C4271 C4270 1.362 . S
H4272 C4278 0.930 . S
H4273 C4281 0.930 . S
H4274 C4282 0.930 . S
H4275 C4283 0.930 . S
H4276 C4286 0.930 . S
H4277 C4287 0.930 . S
C4278 H4272 0.930 . S
C4278 C4279 1.355 . S
C4278 C4280 1.415 . S
C4279 C4278 1.355 . S
C4279 C4281 1.419 . S
C4280 C4278 1.415 . S
C4280 C4285 1.425 . S
C4280 C4287 1.409 . S
C4281 H4273 0.930 . S
C4281 C4279 1.419 . S
C4281 C4282 1.362 . S
C4282 H4274 0.930 . S
C4282 C4281 1.362 . S
C4282 C4285 1.409 . S
C4283 H4275 0.930 . S
C4283 C4284 1.355 . S
C4283 C4285 1.415 . S
C4284 C4283 1.355 . S
C4284 C4286 1.419 . S
C4285 C4280 1.425 . S
C4285 C4282 1.409 . S
C4285 C4283 1.415 . S
C4286 H4276 0.930 . S
C4286 C4284 1.419 . S
C4286 C4287 1.362 . S
C4287 H4277 0.930 . S
C4287 C4280 1.409 . S
C4287 C4286 1.362 . S
H4288 C4294 0.930 . S
H4289 C4297 0.930 . S
H4290 C4298 0.930 . S
H4291 C4299 0.930 . S
H4292 C4302 0.930 . S
H4293 C4303 0.930 . S
C4294 H4288 0.930 . S
C4294 C4295 1.355 . S
C4294 C4296 1.415 . S
C4295 C4294 1.355 . S
C4295 C4297 1.419 . S
C4296 C4294 1.415 . S
C4296 C4301 1.425 . S
C4296 C4303 1.409 . S
C4297 H4289 0.930 . S
C4297 C4295 1.419 . S
C4297 C4298 1.362 . S
C4298 H4290 0.930 . S
C4298 C4297 1.362 . S
C4298 C4301 1.409 . S
C4299 H4291 0.930 . S
C4299 C4300 1.355 . S
C4299 C4301 1.415 . S
C4300 C4299 1.355 . S
C4300 C4302 1.419 . S
C4301 C4296 1.425 . S
C4301 C4298 1.409 . S
C4301 C4299 1.415 . S
C4302 H4292 0.930 . S
C4302 C4300 1.419 . S
C4302 C4303 1.362 . S
C4303 H4293 0.930 . S
C4303 C4296 1.409 . S
C4303 C4302 1.362 . S
C2780 C1327 1.362 . S
C2775 C21 1.499 . S
C2796 C1389 1.365 . S
C2791 C42 1.515 . S
C2807 C82 1.505 . S
C2812 C1451 1.390 . S
C2828 C1519 1.457 . S
C2823 C135 1.486 . S
C2839 C175 1.413 . S
C2844 C1501 1.368 . S
C2855 C221 1.569 . S
C2860 C1309 1.466 . S
C2871 C255 1.614 . S
C2876 C1371 1.535 . S
C2892 C1433 1.546 . S
C2887 C301 1.605 . S
C2908 C1581 1.508 . S
C2903 C15 1.545 . S
C2919 C55 1.541 . S
C2924 C1619 1.433 . S
C2935 C101 1.582 . S
C2940 C1705 1.554 . S
C2956 C1749 1.456 . S
C2951 C141 1.554 . S
C2967 C162 1.440 . S
C2972 C1811 1.419 . S
C2988 C1873 1.556 . S
C2983 C215 1.573 . S
C2999 C261 1.608 . S
C3004 C1929 1.487 . S
C3020 C1991 1.402 . S
C3015 C282 1.541 . S
C3031 C2 1.576 . S
C3036 C1767 1.559 . S
C3047 C181 1.422 . S
C3052 C1891 1.405 . S
C3068 C1947 1.407 . S
C3063 C202 1.514 . S
C3079 C242 1.552 . S
C3084 C2009 1.456 . S
C3100 C1829 1.499 . S
C3095 C295 1.517 . S
C3116 C1637 1.454 . S
C3111 C95 1.605 . S
C3127 C122 1.541 . S
C3132 C1687 1.464 . S
C3148 C1563 1.499 . S
C3143 C61 1.571 . S
C3164 C2071 1.552 . S
C3159 C341 1.636 . S
C3175 C362 1.438 . S
C3180 C2121 1.388 . S
C3191 C402 1.541 . S
C3196 C2177 1.439 . S
C3212 C2263 1.422 . S
C3207 C455 1.505 . S
C3223 C495 1.483 . S
C3228 C2245 1.432 . S
C3239 C541 1.616 . S
C3244 C2053 1.545 . S
C3255 C575 1.510 . S
C3260 C2139 1.477 . S
C3271 C621 1.650 . S
C3276 C2195 1.572 . S
C3292 C1805 1.494 . S
C3287 C335 1.581 . S
C3303 C375 1.463 . S
C3308 C2325 1.425 . S
C3324 C1935 1.567 . S
C3319 C421 1.574 . S
C3335 C461 1.570 . S
C3340 C2387 1.515 . S
C3351 C482 1.468 . S
C3356 C1575 1.357 . S
C3372 C2431 1.521 . S
C3367 C535 1.571 . S
C3383 C581 1.572 . S
C3388 C1699 1.430 . S
C3404 C2487 1.442 . S
C3399 C602 1.592 . S
C3415 C322 1.627 . S
C3420 C2369 1.600 . S
C3436 C2449 1.381 . S
C3431 C501 1.413 . S
C3447 C522 1.551 . S
C3452 C1681 1.478 . S
C3468 C2505 1.438 . S
C3463 C562 1.544 . S
C3479 C615 1.655 . S
C3484 C1557 1.599 . S
C3495 C415 1.518 . S
C3500 C2307 1.497 . S
C3511 C442 1.501 . S
C3516 C1953 1.444 . S
C3527 C381 1.523 . S
C3532 C1823 1.306 . S
C3543 C661 1.464 . S
C3548 C2183 1.437 . S
C3564 C2257 1.272 . S
C3559 C682 1.477 . S
C3575 C722 1.514 . S
C3580 C2077 1.504 . S
C3591 C775 1.537 . S
C3596 C2115 1.372 . S
C3607 C815 1.553 . S
C3612 C2133 1.404 . S
C3623 C861 1.560 . S
C3628 C2201 1.558 . S
C3644 C2239 1.438 . S
C3639 C895 1.580 . S
C3655 C941 1.622 . S
C3660 C2059 1.549 . S
C3676 C2555 1.477 . S
C3671 C655 1.509 . S
C3687 C695 1.543 . S
C3692 C1867 1.422 . S
C3708 C2617 1.519 . S
C3703 C741 1.537 . S
C3719 C781 1.538 . S
C3724 C1997 1.528 . S
C3735 C802 1.459 . S
C3740 C2673 1.330 . S
C3751 C855 1.499 . S
C3756 C1625 1.441 . S
C3772 C2753 1.495 . S
C3767 C901 1.635 . S
C3783 C922 1.572 . S
C3788 C1743 1.370 . S
C3804 C2015 1.509 . S
C3799 C642 1.517 . S
C3820 C1643 1.479 . S
C3815 C821 1.496 . S
C3831 C842 1.469 . S
C3836 C2735 1.330 . S
C3847 C882 1.617 . S
C3852 C1761 1.572 . S
C3868 C2691 1.456 . S
C3863 C935 1.604 . S
C3884 C1885 1.410 . S
C3879 C735 1.549 . S
C3900 C2635 1.513 . S
C3895 C762 1.534 . S
C3916 C2573 1.463 . S
C3911 C701 1.534 . S
C3927 C981 1.501 . S
C3932 C1457 1.482 . S
C3943 C1002 1.494 . S
C3948 C1513 1.357 . S
C3964 C1333 1.420 . S
C3959 C1042 1.451 . S
C3980 C1395 1.427 . S
C3975 C1095 1.487 . S
C3996 C1377 1.532 . S
C3991 C1135 1.548 . S
C4012 C1439 1.537 . S
C4007 C1181 1.563 . S
C4028 C1495 1.428 . S
C4023 C1215 1.564 . S
C4039 C1261 1.592 . S
C4044 C1315 1.577 . S
C4055 C975 1.520 . S
C4060 C2679 1.471 . S
C4076 C2425 1.413 . S
C4071 C1015 1.521 . S
C4092 C2759 1.577 . S
C4087 C1061 1.584 . S
C4108 C2493 1.491 . S
C4103 C1101 1.518 . S
C4119 C1122 1.516 . S
C4124 C2549 1.438 . S
C4140 C2319 1.427 . S
C4135 C1175 1.577 . S
C4156 C2611 1.535 . S
C4151 C1221 1.584 . S
C4167 C1242 1.519 . S
C4172 C2381 1.374 . S
C4188 C2511 1.485 . S
C4183 C962 1.495 . S
C4204 C2301 1.394 . S
C4199 C1141 1.487 . S
C4220 C2629 1.512 . S
C4215 C1162 1.574 . S
C4231 C1202 1.653 . S
C4236 C2363 1.508 . S
C4247 C1255 1.578 . S
C4252 C2567 1.429 . S
C4263 C1055 1.507 . S
C4268 C2443 1.399 . S
C4279 C1082 1.526 . S
C4284 C2741 1.403 . S
C4300 C2697 1.505 . S
C4295 C1021 1.508 . S
