# Generated by pormake.
# Topology nom, (4,4)-cn, num edge types: 1
# Building blocks:
#     Node 0, Type 0, BuildingBlock: KUFVIS_clean_linker_0, # of connection points: 4
#     Node 1, Type 0, BuildingBlock: KUFVIS_clean_linker_0, # of connection points: 4
#     Node 2, Type 0, BuildingBlock: KUFVIS_clean_linker_0, # of connection points: 4
#     Node 3, Type 0, BuildingBlock: KUFVIS_clean_linker_0, # of connection points: 4
#     Node 4, Type 0, BuildingBlock: KUFVIS_clean_linker_0, # of connection points: 4
#     Node 5, Type 0, BuildingBlock: KUFVIS_clean_linker_0, # of connection points: 4
#     Node 6, Type 1, BuildingBlock: CEKHIL_clean_sbu_0, # of connection points: 4
#     Node 7, Type 1, BuildingBlock: CEKHIL_clean_sbu_0, # of connection points: 4
#     Node 8, Type 1, BuildingBlock: CEKHIL_clean_sbu_0, # of connection points: 4
#     Node 9, Type 1, BuildingBlock: CEKHIL_clean_sbu_0, # of connection points: 4
#     Node 10, Type 1, BuildingBlock: CEKHIL_clean_sbu_0, # of connection points: 4
#     Node 11, Type 1, BuildingBlock: CEKHIL_clean_sbu_0, # of connection points: 4
#     Edge 12, Type (0, 1), BuildingBlock: EZIPEK_clean_linker_0, # of connection points: 2
#     Edge 13, Type (0, 1), BuildingBlock: EZIPEK_clean_linker_0, # of connection points: 2
#     Edge 14, Type (0, 1), BuildingBlock: EZIPEK_clean_linker_0, # of connection points: 2
#     Edge 15, Type (0, 1), BuildingBlock: EZIPEK_clean_linker_0, # of connection points: 2
#     Edge 16, Type (0, 1), BuildingBlock: EZIPEK_clean_linker_0, # of connection points: 2
#     Edge 17, Type (0, 1), BuildingBlock: EZIPEK_clean_linker_0, # of connection points: 2
#     Edge 18, Type (0, 1), BuildingBlock: EZIPEK_clean_linker_0, # of connection points: 2
#     Edge 19, Type (0, 1), BuildingBlock: EZIPEK_clean_linker_0, # of connection points: 2
#     Edge 20, Type (0, 1), BuildingBlock: EZIPEK_clean_linker_0, # of connection points: 2
#     Edge 21, Type (0, 1), BuildingBlock: EZIPEK_clean_linker_0, # of connection points: 2
#     Edge 22, Type (0, 1), BuildingBlock: EZIPEK_clean_linker_0, # of connection points: 2
#     Edge 23, Type (0, 1), BuildingBlock: EZIPEK_clean_linker_0, # of connection points: 2
#     Edge 24, Type (0, 1), BuildingBlock: EZIPEK_clean_linker_0, # of connection points: 2
#     Edge 25, Type (0, 1), BuildingBlock: EZIPEK_clean_linker_0, # of connection points: 2
#     Edge 26, Type (0, 1), BuildingBlock: EZIPEK_clean_linker_0, # of connection points: 2
#     Edge 27, Type (0, 1), BuildingBlock: EZIPEK_clean_linker_0, # of connection points: 2
#     Edge 28, Type (0, 1), BuildingBlock: EZIPEK_clean_linker_0, # of connection points: 2
#     Edge 29, Type (0, 1), BuildingBlock: EZIPEK_clean_linker_0, # of connection points: 2
#     Edge 30, Type (0, 1), BuildingBlock: EZIPEK_clean_linker_0, # of connection points: 2
#     Edge 31, Type (0, 1), BuildingBlock: EZIPEK_clean_linker_0, # of connection points: 2
#     Edge 32, Type (0, 1), BuildingBlock: EZIPEK_clean_linker_0, # of connection points: 2
#     Edge 33, Type (0, 1), BuildingBlock: EZIPEK_clean_linker_0, # of connection points: 2
#     Edge 34, Type (0, 1), BuildingBlock: EZIPEK_clean_linker_0, # of connection points: 2
#     Edge 35, Type (0, 1), BuildingBlock: EZIPEK_clean_linker_0, # of connection points: 2
# Relax obj value: 0.005
# Max RMSD: 0.052
# Mean RMSD: 0.042
data_MOF--net-nom--node1-CEKHIL_clean_sbu_0--node2-KUFVIS_clean_linker_0--edge1-EZIPEK_clean_linker_0
_symmetry_space_group_name_H-M    P1
_symmetry_Int_Tables_number       1
_symmetry_cell_setting            triclinic
loop_
_symmetry_equiv_pos_as_xyz
'x, y, z'
_cell_length_a     33.892698
_cell_length_b     33.654915
_cell_length_c     34.318329
_cell_angle_alpha  89.952051
_cell_angle_beta   90.000156
_cell_angle_gamma 120.97141
loop_
_atom_site_label
_atom_site_type_symbol
_atom_site_fract_x
_atom_site_fract_y
_atom_site_fract_z
_atom_type_partial_charge
H0 H 0.17687 0.61176 0.37134 0.0
H1 H 0.08169 0.59057 0.28001 0.0
H2 H 0.03488 0.55033 0.39943 0.0
H3 H 0.97356 0.54976 0.38204 0.0
H4 H 0.87222 0.49215 0.29232 0.0
H5 H 1.01067 0.53084 0.26512 0.0
C6 C 0.14172 0.59801 0.3615 0.0
C7 C 0.10678 0.58197 0.38906 0.0
C8 C 0.1334 0.60195 0.32234 0.0
C9 C 0.08758 0.58579 0.31017 0.0
C10 C 0.05021 0.56516 0.33735 0.0
C11 C 0.06109 0.56397 0.37712 0.0
C12 C 1.00058 0.54618 0.32478 0.0
C13 C 0.96571 0.54001 0.35181 0.0
C14 C 0.91931 0.51963 0.34009 0.0
C15 C 0.90803 0.50841 0.30115 0.0
C16 C 0.94054 0.51195 0.27435 0.0
C17 C 0.98665 0.53073 0.28595 0.0
H18 H 0.58471 0.17127 0.51455 0.0
H19 H 0.51953 0.06466 0.42905 0.0
H20 H 0.53787 0.03135 0.54773 0.0
H21 H 0.47707 0.96233 0.53639 0.0
H22 H 0.42171 0.85742 0.4488 0.0
H23 H 0.5125 0.99817 0.4144 0.0
C24 C 0.56737 0.13475 0.50701 0.0
C25 C 0.56173 0.10264 0.53536 0.0
C26 C 0.55392 0.12143 0.46868 0.0
C27 C 0.53122 0.07404 0.45875 0.0
C28 C 0.52336 0.03973 0.48716 0.0
C29 C 0.54022 0.05528 0.52554 0.0
C30 C 0.49767 0.98842 0.47684 0.0
C31 C 0.47537 0.95345 0.50594 0.0
C32 C 0.44918 0.90615 0.49564 0.0
C33 C 0.44338 0.89373 0.45652 0.0
C34 C 0.46576 0.92656 0.42721 0.0
C35 C 0.49401 0.97362 0.43746 0.0
H36 H 0.56143 0.39357 0.60325 0.0
H37 H 0.50479 0.43212 0.69707 0.0
H38 H 0.48866 0.46242 0.57667 0.0
H39 H 0.43474 0.47315 0.59565 0.0
H40 H 0.39942 0.53459 0.68738 0.0
H41 H 0.49362 0.48918 0.71144 0.0
C42 C 0.54295 0.41007 0.61342 0.0
C43 C 0.52478 0.42706 0.58632 0.0
C44 C 0.53647 0.41226 0.65317 0.0
C45 C 0.51095 0.43247 0.66615 0.0
C46 C 0.49295 0.45168 0.63905 0.0
C47 C 0.50085 0.44858 0.59884 0.0
C48 C 0.46606 0.47441 0.65223 0.0
C49 C 0.43829 0.48298 0.62594 0.0
C50 C 0.41505 0.50558 0.63864 0.0
C51 C 0.41691 0.51686 0.67771 0.0
C52 C 0.44539 0.51145 0.70361 0.0
C53 C 0.46999 0.49052 0.6911 0.0
H54 H 0.18644 0.53751 0.78897 0.0
H55 H 0.0878 0.48218 0.8811 0.0
H56 H 0.04733 0.4981 0.76453 0.0
H57 H 0.97727 0.43862 0.78013 0.0
H58 H 0.88272 0.41769 0.87186 0.0
H59 H 0.02494 0.47855 0.89933 0.0
C60 C 0.15093 0.5215 0.79866 0.0
C61 C 0.11765 0.51736 0.77252 0.0
C62 C 0.14094 0.51127 0.83789 0.0
C63 C 0.09478 0.4911 0.85064 0.0
C64 C 0.05896 0.48384 0.82414 0.0
C65 C 0.07187 0.49866 0.78501 0.0
C66 C 1.00929 0.46428 0.83727 0.0
C67 C 0.97164 0.44347 0.81033 0.0
C68 C 0.92586 0.42723 0.82271 0.0
C69 C 0.91782 0.43133 0.86189 0.0
C70 C 0.95289 0.44728 0.88933 0.0
C71 C 0.99859 0.46516 0.87717 0.0
H72 H 0.47422 0.85712 0.01539 0.0
H73 H 0.54011 0.96325 0.92935 0.0
H74 H 0.52176 0.99738 0.04766 0.0
H75 H 0.5842 0.06527 0.0362 0.0
H76 H 0.63999 0.1705 0.94876 0.0
H77 H 0.54726 0.03012 0.91442 0.0
C78 C 0.49166 0.89361 0.00763 0.0
C79 C 0.49746 0.92593 0.03573 0.0
C80 C 0.50528 0.9067 0.96927 0.0
C81 C 0.52821 0.95399 0.95904 0.0
C82 C 0.53626 0.98845 0.98723 0.0
C83 C 0.51923 0.97322 0.02564 0.0
C84 C 0.56264 0.03963 0.97676 0.0
C85 C 0.58574 0.07431 0.00578 0.0
C86 C 0.61247 0.12151 0.9955 0.0
C87 C 0.61803 0.13419 0.95643 0.0
C88 C 0.59497 0.10159 0.92714 0.0
C89 C 0.56623 0.05456 0.9374 0.0
H90 H 0.4933 0.62939 0.10526 0.0
H91 H 0.54833 0.59078 0.19977 0.0
H92 H 0.56786 0.56256 0.07939 0.0
H93 H 0.6107 0.53829 0.09783 0.0
H94 H 0.64485 0.47761 0.19068 0.0
H95 H 0.57784 0.55204 0.21811 0.0
C96 C 0.51173 0.61292 0.11565 0.0
C97 C 0.53035 0.5962 0.08882 0.0
C98 C 0.51821 0.61108 0.15539 0.0
C99 C 0.54339 0.59069 0.16875 0.0
C100 C 0.56201 0.57162 0.14202 0.0
C101 C 0.5547 0.57521 0.10165 0.0
C102 C 0.5882 0.54796 0.15556 0.0
C103 C 0.60949 0.53191 0.12868 0.0
C104 C 0.63033 0.50705 0.14161 0.0
C105 C 0.62983 0.4977 0.18101 0.0
C106 C 0.61146 0.51429 0.20837 0.0
C107 C 0.59154 0.53995 0.19584 0.0
Co108 Co 0.65629 0.38247 0.4022 0.0
O109 O 0.70909 0.39132 0.37265 0.0
O110 O 0.71276 0.43589 0.42142 0.0
C111 C 0.62257 0.30401 0.41129 0.0
O112 O 0.6117 0.38497 0.44069 0.0
Co113 Co 0.55722 0.32358 0.37167 0.0
O114 O 0.53963 0.348 0.41694 0.0
C115 C 0.61716 0.41514 0.33801 0.0
C116 C 0.73428 0.42693 0.39475 0.0
C117 C 0.56895 0.37266 0.44283 0.0
O118 O 0.64701 0.42394 0.36496 0.0
O119 O 0.58178 0.37491 0.33284 0.0
O120 O 0.65631 0.33346 0.43317 0.0
O121 O 0.6129 0.32232 0.38243 0.0
Co122 Co 0.29298 0.64564 0.57398 0.0
O123 O 0.33973 0.64114 0.60364 0.0
O124 O 0.29387 0.59006 0.56009 0.0
C125 C 0.33845 0.7227 0.55764 0.0
O126 O 0.24266 0.63635 0.53532 0.0
Co127 Co 0.25377 0.70736 0.59431 0.0
O128 O 0.20888 0.67632 0.55172 0.0
C129 C 0.22173 0.62154 0.63866 0.0
C130 C 0.32686 0.60261 0.58513 0.0
C131 C 0.21215 0.64777 0.5298 0.0
O132 O 0.24563 0.61053 0.61673 0.0
O133 O 0.2221 0.65948 0.6351 0.0
O134 O 0.34053 0.69058 0.53832 0.0
O135 O 0.31126 0.70806 0.58748 0.0
Co136 Co 0.66898 0.28546 0.73168 0.0
O137 O 0.67031 0.33392 0.69908 0.0
O138 O 0.61311 0.28759 0.73791 0.0
C139 C 0.74259 0.33 0.75523 0.0
O140 O 0.65188 0.23312 0.77091 0.0
Co141 Co 0.7327 0.2452 0.72607 0.0
O142 O 0.70438 0.21196 0.77528 0.0
C143 C 0.6541 0.21275 0.67117 0.0
C144 C 0.62999 0.32171 0.71333 0.0
C145 C 0.66727 0.20904 0.78671 0.0
O146 O 0.64072 0.23831 0.68779 0.0
O147 O 0.69018 0.21229 0.68143 0.0
O148 O 0.7088 0.33259 0.77039 0.0
O149 O 0.73168 0.30235 0.72591 0.0
Co150 Co 0.4067 0.64704 0.8982 0.0
O151 O 0.35496 0.64125 0.86843 0.0
O152 O 0.3492 0.59212 0.91381 0.0
C153 C 0.43963 0.72447 0.91179 0.0
O154 O 0.44844 0.63999 0.9375 0.0
Co155 Co 0.50871 0.7085 0.8765 0.0
O156 O 0.52322 0.68181 0.92159 0.0
C157 C 0.45271 0.62046 0.83506 0.0
C158 C 0.32867 0.6038 0.88835 0.0
C159 C 0.49102 0.65339 0.9438 0.0
O160 O 0.41769 0.61029 0.85688 0.0
O161 O 0.49117 0.65848 0.8378 0.0
O162 O 0.40521 0.69315 0.93211 0.0
O163 O 0.45166 0.70879 0.88257 0.0
Co164 Co 0.76575 0.38048 0.0757 0.0
O165 O 0.71746 0.38165 0.10572 0.0
O166 O 0.76152 0.43443 0.06241 0.0
C167 C 0.72293 0.30359 0.05883 0.0
O168 O 0.8169 0.39241 0.03677 0.0
Co169 Co 0.80862 0.32192 0.09565 0.0
O170 O 0.8517 0.353 0.05194 0.0
C171 C 0.83693 0.40642 0.14068 0.0
C172 C 0.72813 0.41976 0.08741 0.0
C173 C 0.84774 0.38156 0.03054 0.0
O174 O 0.81253 0.41658 0.11851 0.0
O175 O 0.83788 0.36918 0.13721 0.0
O176 O 0.7194 0.33506 0.03981 0.0
O177 O 0.74994 0.31866 0.08876 0.0
Co178 Co 0.39008 0.74287 0.23189 0.0
O179 O 0.38809 0.69413 0.19939 0.0
O180 O 0.44557 0.74007 0.23809 0.0
C181 C 0.31654 0.69873 0.25545 0.0
O182 O 0.40763 0.79532 0.27103 0.0
Co183 Co 0.32678 0.78373 0.22656 0.0
O184 O 0.35541 0.81683 0.27567 0.0
C185 C 0.4053 0.81582 0.17151 0.0
C186 C 0.42822 0.70579 0.21371 0.0
C187 C 0.39249 0.81955 0.28692 0.0
O188 O 0.4185 0.78999 0.18796 0.0
O189 O 0.36941 0.81654 0.18194 0.0
O190 O 0.35016 0.69589 0.27067 0.0
O191 O 0.32758 0.72649 0.22617 0.0
C192 C 0.20803 0.67479 0.30904 0.0
C193 C 0.1754 0.62889 0.29719 0.0
C194 C 0.23437 0.63054 0.25397 0.0
C195 C 0.26838 0.67317 0.271 0.0
N196 N 0.28834 0.72973 0.32169 0.0
N197 N 0.15854 0.56117 0.26022 0.0
C198 C 0.25538 0.69375 0.30034 0.0
C199 C 0.18868 0.60633 0.26975 0.0
N200 N 0.19362 0.69985 0.32946 0.0
N201 N 0.24575 0.61306 0.22291 0.0
H202 H 0.12474 0.54305 0.27043 0.0
H203 H 0.16775 0.54103 0.24404 0.0
H204 H 0.27913 0.62876 0.21181 0.0
H205 H 0.22159 0.5848 0.20668 0.0
H206 H 0.21524 0.73473 0.33635 0.0
H207 H 0.15895 0.68688 0.33579 0.0
H208 H 0.2809 0.74378 0.34564 0.0
H209 H 0.32317 0.74132 0.31851 0.0
C210 C 0.61439 0.1883 0.42996 0.0
C211 C 0.56722 0.15971 0.43999 0.0
C212 C 0.55383 0.22272 0.42355 0.0
C213 C 0.60173 0.25261 0.41604 0.0
N214 N 0.67434 0.25966 0.40031 0.0
N215 N 0.49005 0.14439 0.43592 0.0
C216 C 0.63098 0.23396 0.41546 0.0
C217 C 0.53625 0.17516 0.43283 0.0
N218 N 0.64366 0.17234 0.43624 0.0
N219 N 0.52563 0.24039 0.42453 0.0
H220 H 0.47675 0.10969 0.44324 0.0
H221 H 0.46496 0.15185 0.42778 0.0
H222 H 0.53738 0.27474 0.41814 0.0
H223 H 0.49167 0.22216 0.43413 0.0
H224 H 0.67934 0.19312 0.43473 0.0
H225 H 0.63192 0.13819 0.44459 0.0
H226 H 0.69612 0.24681 0.39588 0.0
H227 H 0.68703 0.29268 0.38861 0.0
C228 C 0.41944 0.57064 0.59887 0.0
C229 C 0.39283 0.52412 0.61228 0.0
C230 C 0.32228 0.5275 0.60489 0.0
C231 C 0.34899 0.57435 0.59202 0.0
N232 N 0.42119 0.63599 0.56692 0.0
N233 N 0.31908 0.45487 0.61893 0.0
C234 C 0.39706 0.59448 0.58593 0.0
C235 C 0.34417 0.50142 0.61187 0.0
N236 N 0.46636 0.59292 0.60056 0.0
N237 N 0.27658 0.50884 0.61299 0.0
H238 H 0.33475 0.43558 0.62419 0.0
H239 H 0.28348 0.43487 0.61593 0.0
H240 H 0.25944 0.52689 0.60923 0.0
H241 H 0.25631 0.47678 0.62638 0.0
H242 H 0.48782 0.62848 0.59652 0.0
H243 H 0.48386 0.57598 0.60794 0.0
H244 H 0.45529 0.65043 0.55815 0.0
H245 H 0.40587 0.65404 0.55661 0.0
C246 C 0.85088 0.35439 0.80976 0.0
C247 C 0.88364 0.40021 0.79771 0.0
C248 C 0.82492 0.39819 0.75384 0.0
C249 C 0.79076 0.35563 0.77095 0.0
N250 N 0.77046 0.29935 0.82204 0.0
N251 N 0.90066 0.46768 0.76018 0.0
C252 C 0.80357 0.33529 0.8007 0.0
C253 C 0.8705 0.42255 0.76987 0.0
N254 N 0.86513 0.32942 0.83056 0.0
N255 N 0.81381 0.41546 0.72244 0.0
H256 H 0.93434 0.48596 0.7706 0.0
H257 H 0.89152 0.48768 0.74366 0.0
H258 H 0.78053 0.39967 0.71112 0.0
H259 H 0.83811 0.44363 0.70616 0.0
H260 H 0.84345 0.29457 0.8376 0.0
H261 H 0.89975 0.34237 0.83706 0.0
H262 H 0.77771 0.28551 0.84627 0.0
H263 H 0.73563 0.28753 0.81849 0.0
C264 C 0.44548 0.83915 0.93096 0.0
C265 C 0.49254 0.86832 0.94101 0.0
C266 C 0.50688 0.80568 0.92636 0.0
C267 C 0.45922 0.77537 0.91821 0.0
N268 N 0.38652 0.76752 0.90116 0.0
N269 N 0.57006 0.88443 0.93764 0.0
C270 C 0.42954 0.79351 0.91685 0.0
C271 C 0.52395 0.85328 0.93465 0.0
N272 N 0.41572 0.85459 0.93676 0.0
N273 N 0.53531 0.78838 0.92901 0.0
H274 H 0.58306 0.91924 0.94433 0.0
H275 H 0.59533 0.87708 0.9299 0.0
H276 H 0.5237 0.75378 0.92416 0.0
H277 H 0.56903 0.80709 0.93914 0.0
H278 H 0.38008 0.83336 0.93521 0.0
H279 H 0.42698 0.88872 0.94479 0.0
H280 H 0.36465 0.78014 0.89615 0.0
H281 H 0.37429 0.73455 0.88959 0.0
C282 C 0.62979 0.44324 0.10258 0.0
C283 C 0.65411 0.48989 0.11567 0.0
C284 C 0.72743 0.49207 0.10735 0.0
C285 C 0.70311 0.44516 0.09456 0.0
N286 N 0.63245 0.38042 0.07027 0.0
N287 N 0.72565 0.56206 0.12127 0.0
C288 C 0.65462 0.42208 0.08917 0.0
C289 C 0.7029 0.51542 0.11459 0.0
N290 N 0.58285 0.41854 0.10466 0.0
N291 N 0.77346 0.51341 0.11521 0.0
H292 H 0.70828 0.5796 0.12685 0.0
H293 H 0.76098 0.58383 0.1176 0.0
H294 H 0.79256 0.4974 0.11131 0.0
H295 H 0.79212 0.54561 0.12869 0.0
H296 H 0.56304 0.38285 0.10053 0.0
H297 H 0.5638 0.43376 0.11237 0.0
H298 H 0.59796 0.36375 0.06218 0.0
H299 H 0.64965 0.36455 0.05933 0.0
C300 C 0.44568 0.83905 0.53107 0.0
C301 C 0.42636 0.86717 0.52422 0.0
C302 C 0.35027 0.80235 0.54216 0.0
C303 C 0.36908 0.77351 0.54858 0.0
N304 N 0.43696 0.76908 0.55998 0.0
N305 N 0.36383 0.88016 0.53377 0.0
C306 C 0.41758 0.79335 0.5464 0.0
C307 C 0.3799 0.85035 0.53385 0.0
N308 N 0.49055 0.85551 0.52127 0.0
N309 N 0.30383 0.78323 0.54065 0.0
H310 H 0.38489 0.91526 0.52714 0.0
H311 H 0.33135 0.87127 0.54397 0.0
H312 H 0.28148 0.74797 0.54368 0.0
H313 H 0.28774 0.80116 0.53215 0.0
H314 H 0.5053 0.83497 0.52051 0.0
H315 H 0.5125 0.88963 0.51215 0.0
H316 H 0.47233 0.78318 0.56246 0.0
H317 H 0.41768 0.73622 0.57243 0.0
C318 C 0.60224 0.41713 0.69204 0.0
C319 C 0.55588 0.39052 0.67923 0.0
C320 C 0.55792 0.31903 0.68889 0.0
C321 C 0.60415 0.34548 0.70245 0.0
N322 N 0.66606 0.41887 0.72593 0.0
N323 N 0.48634 0.31638 0.67436 0.0
C324 C 0.62506 0.39434 0.70672 0.0
C325 C 0.53267 0.34147 0.68098 0.0
N326 N 0.6251 0.46428 0.68868 0.0
N327 N 0.53905 0.27294 0.68089 0.0
H328 H 0.46733 0.33212 0.66831 0.0
H329 H 0.46623 0.28071 0.67863 0.0
H330 H 0.55677 0.25545 0.68453 0.0
H331 H 0.50744 0.25291 0.66708 0.0
H332 H 0.66047 0.48553 0.6926 0.0
H333 H 0.60876 0.48197 0.68 0.0
H334 H 0.68085 0.45366 0.73339 0.0
H335 H 0.68334 0.40345 0.7377 0.0
C336 C 0.20592 0.50446 0.86486 0.0
C337 C 0.18196 0.52871 0.86421 0.0
C338 C 0.2514 0.5982 0.88922 0.0
C339 C 0.2774 0.57647 0.88304 0.0
N340 N 0.27973 0.50881 0.86357 0.0
N341 N 0.18169 0.59919 0.87524 0.0
C342 C 0.25458 0.5292 0.87123 0.0
C343 C 0.20447 0.57553 0.87699 0.0
N344 N 0.18187 0.45776 0.85855 0.0
N345 N 0.27134 0.64018 0.90758 0.0
H346 H 0.14682 0.58319 0.86833 0.0
H347 H 0.19773 0.63493 0.87877 0.0
H348 H 0.30529 0.65737 0.91744 0.0
H349 H 0.25318 0.65588 0.91636 0.0
H350 H 0.1959 0.43674 0.86166 0.0
H351 H 0.14638 0.43949 0.85376 0.0
H352 H 0.26603 0.47625 0.85089 0.0
H353 H 0.31531 0.5258 0.86718 0.0
C354 C 0.68226 0.1767 0.03335 0.0
C355 C 0.63568 0.16002 0.02427 0.0
C356 C 0.64413 0.23274 0.04864 0.0
C357 C 0.69267 0.25279 0.05014 0.0
N358 N 0.75824 0.24362 0.04171 0.0
N359 N 0.57109 0.17117 0.02331 0.0
C360 C 0.71175 0.22439 0.04276 0.0
C361 C 0.61612 0.18758 0.03252 0.0
N362 N 0.69846 0.14702 0.03187 0.0
N363 N 0.62469 0.2563 0.06367 0.0
H364 H 0.54918 0.13735 0.01356 0.0
H365 H 0.55617 0.19157 0.02364 0.0
H366 H 0.64398 0.28858 0.07702 0.0
H367 H 0.58932 0.24196 0.06656 0.0
H368 H 0.73102 0.15562 0.04158 0.0
H369 H 0.67745 0.11215 0.02448 0.0
H370 H 0.77452 0.22623 0.03232 0.0
H371 H 0.78063 0.27852 0.04668 0.0
C372 C 0.45311 0.6082 0.19382 0.0
C373 C 0.49956 0.6338 0.18106 0.0
C374 C 0.49946 0.70641 0.18989 0.0
C375 C 0.45314 0.68096 0.20337 0.0
N376 N 0.39008 0.60846 0.22729 0.0
N377 N 0.57014 0.70703 0.17589 0.0
C378 C 0.43119 0.63204 0.20806 0.0
C379 C 0.52377 0.68291 0.18244 0.0
N380 N 0.42936 0.561 0.19086 0.0
N381 N 0.51933 0.75255 0.18154 0.0
H382 H 0.58849 0.69053 0.17015 0.0
H383 H 0.5909 0.74267 0.17991 0.0
H384 H 0.50232 0.77079 0.18486 0.0
H385 H 0.55108 0.77189 0.16775 0.0
H386 H 0.39391 0.54044 0.19476 0.0
H387 H 0.44505 0.54257 0.18251 0.0
H388 H 0.37455 0.57366 0.23503 0.0
H389 H 0.37345 0.62465 0.2388 0.0
C390 C 0.85581 0.52693 0.36982 0.0
C391 C 0.87951 0.5025 0.36763 0.0
C392 C 0.81156 0.43331 0.3947 0.0
C393 C 0.78543 0.4551 0.39001 0.0
N394 N 0.78228 0.52304 0.37323 0.0
N395 N 0.88073 0.4324 0.37818 0.0
C396 C 0.80766 0.50242 0.37842 0.0
C397 C 0.85786 0.45592 0.38097 0.0
N398 N 0.87959 0.57353 0.36291 0.0
N399 N 0.79217 0.39118 0.41284 0.0
H400 H 0.91527 0.44842 0.37013 0.0
H401 H 0.86507 0.39675 0.38208 0.0
H402 H 0.75855 0.37398 0.42353 0.0
H403 H 0.81048 0.37526 0.42054 0.0
H404 H 0.8659 0.59472 0.36689 0.0
H405 H 0.91474 0.59162 0.35654 0.0
H406 H 0.79512 0.55551 0.36053 0.0
H407 H 0.74723 0.50651 0.37945 0.0
C408 C 0.12892 0.56303 0.45341 0.0
C409 C 0.12148 0.59341 0.4303 0.0
C410 C 0.17424 0.65882 0.47109 0.0
C411 C 0.18035 0.62844 0.49579 0.0
N412 N 0.15434 0.5497 0.51545 0.0
N413 N 0.12621 0.66691 0.42345 0.0
C414 C 0.1549 0.57984 0.48849 0.0
C415 C 0.14009 0.64006 0.44173 0.0
N416 N 0.11239 0.51862 0.44117 0.0
N417 N 0.20353 0.70568 0.47329 0.0
H418 H 0.10151 0.65418 0.4014 0.0
H419 H 0.13562 0.70006 0.43291 0.0
H420 H 0.23175 0.72103 0.49186 0.0
H421 H 0.20332 0.72893 0.45334 0.0
H422 H 0.1213 0.49633 0.45415 0.0
H423 H 0.09145 0.50498 0.41661 0.0
H424 H 0.13306 0.51387 0.51332 0.0
H425 H 0.1719 0.56058 0.54182 0.0
C426 C 0.55758 0.12178 0.60605 0.0
C427 C 0.58387 0.12191 0.5738 0.0
C428 C 0.65366 0.18528 0.60333 0.0
C429 C 0.6284 0.18304 0.63716 0.0
N430 N 0.55765 0.14195 0.67395 0.0
N431 N 0.65811 0.14504 0.54664 0.0
C432 C 0.58063 0.14921 0.63953 0.0
C433 C 0.6324 0.1506 0.57436 0.0
N434 N 0.51065 0.09679 0.60418 0.0
N435 N 0.69722 0.22212 0.59768 0.0
H436 H 0.64333 0.11959 0.5251 0.0
H437 H 0.69392 0.16226 0.54751 0.0
H438 H 0.71312 0.25004 0.6169 0.0
H439 H 0.71545 0.22763 0.57181 0.0
H440 H 0.4896 0.09962 0.62472 0.0
H441 H 0.49285 0.07521 0.58074 0.0
H442 H 0.52406 0.11469 0.67834 0.0
H443 H 0.57337 0.16058 0.69923 0.0
C444 C 0.43163 0.51448 0.77562 0.0
C445 C 0.45507 0.53717 0.74088 0.0
C446 C 0.46824 0.61062 0.76602 0.0
C447 C 0.44908 0.58955 0.80251 0.0
N448 N 0.41969 0.52219 0.84425 0.0
N449 N 0.50686 0.60845 0.70767 0.0
C450 C 0.43271 0.54157 0.80809 0.0
C451 C 0.47762 0.58594 0.73802 0.0
N452 N 0.40728 0.46722 0.77716 0.0
N453 N 0.47479 0.6532 0.75701 0.0
H454 H 0.51445 0.59102 0.68659 0.0
H455 H 0.52695 0.64447 0.70588 0.0
H456 H 0.46455 0.67096 0.77536 0.0
H457 H 0.48493 0.66809 0.72944 0.0
H458 H 0.38512 0.44853 0.79997 0.0
H459 H 0.4075 0.44678 0.7544 0.0
H460 H 0.41193 0.48864 0.85059 0.0
H461 H 0.42012 0.54075 0.86864 0.0
C462 C 0.93108 0.46639 0.95385 0.0
C463 C 0.93813 0.43581 0.93063 0.0
C464 C 0.88431 0.37043 0.97107 0.0
C465 C 0.87885 0.40097 0.99605 0.0
N466 N 0.90558 0.47975 0.01588 0.0
N467 N 0.93197 0.3617 0.9235 0.0
C468 C 0.90481 0.44959 0.98887 0.0
C469 C 0.91868 0.38895 0.94185 0.0
N470 N 0.94825 0.51098 0.94175 0.0
N471 N 0.85421 0.32369 0.97296 0.0
H472 H 0.9569 0.37431 0.90161 0.0
H473 H 0.92182 0.32828 0.93277 0.0
H474 H 0.82575 0.30874 0.99134 0.0
H475 H 0.85403 0.30037 0.95291 0.0
H476 H 0.93973 0.53352 0.9548 0.0
H477 H 0.96935 0.52455 0.91726 0.0
H478 H 0.92723 0.51555 0.01388 0.0
H479 H 0.88761 0.46885 0.04209 0.0
C480 C 0.50179 0.90684 0.10636 0.0
C481 C 0.47545 0.90697 0.07426 0.0
C482 C 0.40565 0.84365 0.10385 0.0
C483 C 0.43098 0.84558 0.13752 0.0
N484 N 0.50183 0.88627 0.17416 0.0
N485 N 0.40124 0.88433 0.04739 0.0
C486 C 0.47878 0.87928 0.13982 0.0
C487 C 0.42692 0.87848 0.07495 0.0
N488 N 0.54871 0.93171 0.10436 0.0
N489 N 0.362 0.80696 0.09825 0.0
H490 H 0.41607 0.90988 0.0259 0.0
H491 H 0.36544 0.86725 0.04837 0.0
H492 H 0.34608 0.77893 0.11741 0.0
H493 H 0.34369 0.80169 0.07248 0.0
H494 H 0.56977 0.92868 0.12478 0.0
H495 H 0.56649 0.95341 0.08095 0.0
H496 H 0.53547 0.91343 0.17851 0.0
H497 H 0.48614 0.86751 0.19942 0.0
C498 C 0.5741 0.47271 0.2715 0.0
C499 C 0.61429 0.50329 0.25007 0.0
C500 C 0.66063 0.48483 0.29292 0.0
C501 C 0.62008 0.45306 0.31343 0.0
N502 N 0.544 0.43408 0.33324 0.0
N503 N 0.69684 0.5518 0.25012 0.0
C504 C 0.57878 0.45311 0.30649 0.0
C505 C 0.65802 0.51434 0.26469 0.0
N506 N 0.53135 0.45917 0.25733 0.0
N507 N 0.70048 0.48453 0.29769 0.0
H508 H 0.69531 0.57366 0.22932 0.0
H509 H 0.72954 0.56358 0.2615 0.0
H510 H 0.70375 0.4624 0.31683 0.0
H511 H 0.7294 0.50379 0.28023 0.0
H512 H 0.50127 0.43281 0.27009 0.0
H513 H 0.52572 0.47144 0.23136 0.0
H514 H 0.51452 0.4363 0.33086 0.0
H515 H 0.5473 0.42106 0.35989 0.0
C516 C 0.43545 0.92034 0.3582 0.0
C517 C 0.45884 0.90891 0.38623 0.0
C518 C 0.44053 0.83957 0.34879 0.0
C519 C 0.41899 0.85197 0.31957 0.0
N520 N 0.41285 0.9142 0.29062 0.0
N521 N 0.4979 0.8676 0.3999 0.0
C522 C 0.42181 0.8956 0.32235 0.0
C523 C 0.46667 0.87219 0.37825 0.0
N524 N 0.42374 0.95269 0.36626 0.0
N525 N 0.43314 0.79569 0.35089 0.0
H526 H 0.51773 0.89141 0.42152 0.0
H527 H 0.50735 0.84335 0.39344 0.0
H528 H 0.41047 0.76872 0.33281 0.0
H529 H 0.44517 0.78457 0.37391 0.0
H530 H 0.40231 0.95827 0.34821 0.0
H531 H 0.43219 0.97123 0.39224 0.0
H532 H 0.41795 0.94751 0.2906 0.0
H533 H 0.40607 0.89889 0.26312 0.0
C534 C 0.50045 0.3715 0.53148 0.0
C535 C 0.52845 0.41762 0.54468 0.0
C536 C 0.5757 0.43639 0.48585 0.0
C537 C 0.55319 0.38838 0.47671 0.0
N538 N 0.49709 0.30918 0.49406 0.0
N539 N 0.59385 0.4944 0.53575 0.0
C540 C 0.51578 0.35561 0.5 0.0
C541 C 0.56615 0.45043 0.522 0.0
N542 N 0.45962 0.34268 0.54978 0.0
N543 N 0.60515 0.46857 0.45956 0.0
H544 H 0.58657 0.50614 0.56134 0.0
H545 H 0.6251 0.51828 0.52292 0.0
H546 H 0.61184 0.45964 0.43229 0.0
H547 H 0.61931 0.50409 0.46315 0.0
H548 H 0.4356 0.30987 0.53937 0.0
H549 H 0.44781 0.35357 0.57317 0.0
H550 H 0.47321 0.28389 0.51283 0.0
H551 H 0.50871 0.29578 0.47266 0.0
C552 C 0.13411 0.51816 0.70058 0.0
C553 C 0.13519 0.54217 0.73488 0.0
C554 C 0.1983 0.61402 0.70819 0.0
C555 C 0.19449 0.59173 0.67208 0.0
N556 N 0.153 0.52337 0.63187 0.0
N557 N 0.15954 0.61483 0.76694 0.0
C558 C 0.16076 0.54389 0.66758 0.0
C559 C 0.1641 0.59086 0.73689 0.0
N560 N 0.10878 0.47088 0.69997 0.0
N561 N 0.23614 0.65642 0.71604 0.0
H562 H 0.13443 0.59863 0.78849 0.0
H563 H 0.17738 0.65092 0.76809 0.0
H564 H 0.264 0.67313 0.69697 0.0
H565 H 0.24237 0.67219 0.74329 0.0
H566 H 0.11074 0.45111 0.67757 0.0
H567 H 0.08761 0.45144 0.72311 0.0
H568 H 0.12567 0.49005 0.62617 0.0
H569 H 0.17181 0.54081 0.6072 0.0
C570 C 0.6246 0.10796 0.85786 0.0
C571 C 0.60162 0.11946 0.88622 0.0
C572 C 0.61985 0.18902 0.84899 0.0
C573 C 0.64104 0.17658 0.81947 0.0
N574 N 0.6468 0.11437 0.79013 0.0
N575 N 0.56316 0.16115 0.90069 0.0
C576 C 0.6381 0.13287 0.82205 0.0
C577 C 0.59399 0.1564 0.8786 0.0
N578 N 0.63601 0.07531 0.86557 0.0
N579 N 0.62732 0.23292 0.85115 0.0
H580 H 0.54353 0.13736 0.92243 0.0
H581 H 0.55377 0.18552 0.89451 0.0
H582 H 0.64969 0.25982 0.83283 0.0
H583 H 0.61567 0.24412 0.87436 0.0
H584 H 0.6572 0.06962 0.84731 0.0
H585 H 0.62752 0.05655 0.89148 0.0
H586 H 0.64158 0.08102 0.78993 0.0
H587 H 0.65354 0.12986 0.76268 0.0
C588 C 0.49069 0.57377 0.02365 0.0
C589 C 0.52752 0.60635 0.04718 0.0
C590 C 0.53932 0.66916 0.00398 0.0
C591 C 0.5038 0.63664 0.97906 0.0
N592 N 0.45373 0.55664 0.96037 0.0
N593 N 0.59503 0.68201 0.05401 0.0
C594 C 0.48183 0.58841 0.98741 0.0
C595 C 0.55485 0.65294 0.035 0.0
N596 N 0.46321 0.52935 0.03658 0.0
N597 N 0.55571 0.71551 0.0002 0.0
H598 H 0.60699 0.67091 0.07715 0.0
H599 H 0.6185 0.71538 0.04426 0.0
H600 H 0.54254 0.72888 0.98017 0.0
H601 H 0.57836 0.74019 0.02 0.0
H602 H 0.43251 0.50544 0.02304 0.0
H603 H 0.47007 0.51726 0.06219 0.0
H604 H 0.44023 0.52114 0.96342 0.0
H605 H 0.44748 0.56604 0.93317 0.0
C606 C 0.92355 0.51032 0.20237 0.0
C607 C 0.92202 0.48663 0.23706 0.0
C608 C 0.85899 0.41455 0.21055 0.0
C609 C 0.86336 0.43652 0.17415 0.0
N610 N 0.90537 0.5044 0.13345 0.0
N611 N 0.8968 0.41422 0.27008 0.0
C612 C 0.89719 0.48429 0.1694 0.0
C613 C 0.89274 0.43797 0.23953 0.0
N614 N 0.94906 0.55758 0.20131 0.0
N615 N 0.82117 0.37206 0.21825 0.0
H616 H 0.92169 0.4305 0.29175 0.0
H617 H 0.8788 0.37815 0.2716 0.0
H618 H 0.79386 0.35499 0.19873 0.0
H619 H 0.8144 0.35646 0.24562 0.0
H620 H 0.94744 0.57714 0.17851 0.0
H621 H 0.96994 0.57727 0.22446 0.0
H622 H 0.93282 0.53762 0.12758 0.0
H623 H 0.88679 0.48669 0.10879 0.0
loop_
_geom_bond_atom_site_label_1
_geom_bond_atom_site_label_2
_geom_bond_distance
_geom_bond_site_symmetry_2
_ccdc_geom_bond_type
H0 C6 0.930 . S
H1 C9 0.931 . S
H2 C11 0.931 . S
H3 C13 0.930 . S
H4 C15 0.930 . S
H5 C17 0.931 . S
C6 H0 0.930 . S
C6 C7 1.380 . S
C6 C8 1.394 . S
C7 C6 1.380 . S
C7 C11 1.382 . S
C8 C6 1.394 . S
C8 C9 1.400 . S
C9 H1 0.931 . S
C9 C8 1.400 . S
C9 C10 1.375 . S
C10 C9 1.375 . S
C10 C11 1.415 . S
C10 C12 1.501 1_455 S
C11 H2 0.931 . S
C11 C7 1.382 . S
C11 C10 1.415 . S
C12 C10 1.501 1_655 S
C12 C13 1.384 . S
C12 C17 1.408 . S
C13 H3 0.930 . S
C13 C12 1.384 . S
C13 C14 1.389 . S
C14 C13 1.389 . S
C14 C15 1.405 . S
C15 H4 0.930 . S
C15 C14 1.405 . S
C15 C16 1.364 . S
C16 C15 1.364 . S
C16 C17 1.400 . S
C17 H5 0.931 . S
C17 C12 1.408 . S
C17 C16 1.400 . S
H18 C24 0.930 . S
H19 C27 0.931 . S
H20 C29 0.931 . S
H21 C31 0.930 . S
H22 C33 0.930 . S
H23 C35 0.931 . S
C24 H18 0.930 . S
C24 C25 1.380 . S
C24 C26 1.394 . S
C25 C24 1.380 . S
C25 C29 1.382 . S
C26 C24 1.394 . S
C26 C27 1.400 . S
C27 H19 0.931 . S
C27 C26 1.400 . S
C27 C28 1.375 . S
C28 C27 1.375 . S
C28 C29 1.415 . S
C28 C30 1.501 1_545 S
C29 H20 0.931 . S
C29 C25 1.382 . S
C29 C28 1.415 . S
C30 C28 1.501 1_565 S
C30 C31 1.384 . S
C30 C35 1.408 . S
C31 H21 0.930 . S
C31 C30 1.384 . S
C31 C32 1.389 . S
C32 C31 1.389 . S
C32 C33 1.405 . S
C33 H22 0.930 . S
C33 C32 1.405 . S
C33 C34 1.364 . S
C34 C33 1.364 . S
C34 C35 1.400 . S
C35 H23 0.931 . S
C35 C30 1.408 . S
C35 C34 1.400 . S
H36 C42 0.930 . S
H37 C45 0.931 . S
H38 C47 0.931 . S
H39 C49 0.930 . S
H40 C51 0.930 . S
H41 C53 0.931 . S
C42 H36 0.930 . S
C42 C43 1.380 . S
C42 C44 1.394 . S
C43 C42 1.380 . S
C43 C47 1.382 . S
C44 C42 1.394 . S
C44 C45 1.400 . S
C45 H37 0.931 . S
C45 C44 1.400 . S
C45 C46 1.375 . S
C46 C45 1.375 . S
C46 C47 1.415 . S
C46 C48 1.501 . S
C47 H38 0.931 . S
C47 C43 1.382 . S
C47 C46 1.415 . S
C48 C46 1.501 . S
C48 C49 1.384 . S
C48 C53 1.408 . S
C49 H39 0.930 . S
C49 C48 1.384 . S
C49 C50 1.389 . S
C50 C49 1.389 . S
C50 C51 1.405 . S
C51 H40 0.930 . S
C51 C50 1.405 . S
C51 C52 1.364 . S
C52 C51 1.364 . S
C52 C53 1.400 . S
C53 H41 0.931 . S
C53 C48 1.408 . S
C53 C52 1.400 . S
H54 C60 0.930 . S
H55 C63 0.931 . S
H56 C65 0.931 . S
H57 C67 0.930 . S
H58 C69 0.930 . S
H59 C71 0.931 . S
C60 H54 0.930 . S
C60 C61 1.380 . S
C60 C62 1.394 . S
C61 C60 1.380 . S
C61 C65 1.382 . S
C62 C60 1.394 . S
C62 C63 1.400 . S
C63 H55 0.931 . S
C63 C62 1.400 . S
C63 C64 1.375 . S
C64 C63 1.375 . S
C64 C65 1.415 . S
C64 C66 1.501 1_455 S
C65 H56 0.931 . S
C65 C61 1.382 . S
C65 C64 1.415 . S
C66 C64 1.501 1_655 S
C66 C67 1.384 . S
C66 C71 1.408 . S
C67 H57 0.930 . S
C67 C66 1.384 . S
C67 C68 1.389 . S
C68 C67 1.389 . S
C68 C69 1.405 . S
C69 H58 0.930 . S
C69 C68 1.405 . S
C69 C70 1.364 . S
C70 C69 1.364 . S
C70 C71 1.400 . S
C71 H59 0.931 . S
C71 C66 1.408 . S
C71 C70 1.400 . S
H72 C78 0.930 . S
H73 C81 0.931 . S
H74 C83 0.931 . S
H75 C85 0.930 . S
H76 C87 0.930 . S
H77 C89 0.931 . S
C78 H72 0.930 . S
C78 C79 1.380 . S
C78 C80 1.394 1_554 S
C79 C78 1.380 . S
C79 C83 1.382 . S
C80 C78 1.394 1_556 S
C80 C81 1.400 . S
C81 H73 0.931 . S
C81 C80 1.400 . S
C81 C82 1.375 . S
C82 C81 1.375 . S
C82 C83 1.415 1_556 S
C82 C84 1.501 1_565 S
C83 H74 0.931 . S
C83 C79 1.382 . S
C83 C82 1.415 1_554 S
C84 C82 1.501 1_545 S
C84 C85 1.384 1_556 S
C84 C89 1.408 . S
C85 H75 0.930 . S
C85 C84 1.384 1_554 S
C85 C86 1.389 . S
C86 C85 1.389 . S
C86 C87 1.405 1_554 S
C87 H76 0.930 . S
C87 C86 1.405 1_556 S
C87 C88 1.364 . S
C88 C87 1.364 . S
C88 C89 1.400 . S
C89 H77 0.931 . S
C89 C84 1.408 . S
C89 C88 1.400 . S
H90 C96 0.930 . S
H91 C99 0.931 . S
H92 C101 0.931 . S
H93 C103 0.930 . S
H94 C105 0.930 . S
H95 C107 0.931 . S
C96 H90 0.930 . S
C96 C97 1.380 . S
C96 C98 1.394 . S
C97 C96 1.380 . S
C97 C101 1.382 . S
C98 C96 1.394 . S
C98 C99 1.400 . S
C99 H91 0.931 . S
C99 C98 1.400 . S
C99 C100 1.375 . S
C100 C99 1.375 . S
C100 C101 1.415 . S
C100 C102 1.501 . S
C101 H92 0.931 . S
C101 C97 1.382 . S
C101 C100 1.415 . S
C102 C100 1.501 . S
C102 C103 1.384 . S
C102 C107 1.408 . S
C103 H93 0.930 . S
C103 C102 1.384 . S
C103 C104 1.389 . S
C104 C103 1.389 . S
C104 C105 1.405 . S
C105 H94 0.930 . S
C105 C104 1.405 . S
C105 C106 1.364 . S
C106 C105 1.364 . S
C106 C107 1.400 . S
C107 H95 0.931 . S
C107 C102 1.408 . S
C107 C106 1.400 . S
Co108 O109 2.216 . S
Co108 O110 2.091 . S
Co108 O112 2.004 . S
Co108 O118 2.021 . S
Co108 O120 2.137 . S
Co108 O121 2.244 . S
O109 Co108 2.216 . S
O109 C116 1.247 . S
O110 Co108 2.091 . S
O110 C116 1.261 . S
C111 O120 1.247 . S
C111 O121 1.272 . S
O112 Co108 2.004 . S
O112 C117 1.259 . S
Co113 O114 2.061 . S
Co113 O119 2.052 . S
Co113 O121 2.135 . S
O114 Co113 2.061 . S
O114 C117 1.235 . S
C115 O118 1.238 . S
C115 O119 1.241 . S
C116 O109 1.247 . S
C116 O110 1.261 . S
C117 O112 1.259 . S
C117 O114 1.235 . S
O118 Co108 2.021 . S
O118 C115 1.238 . S
O119 Co113 2.052 . S
O119 C115 1.241 . S
O120 Co108 2.137 . S
O120 C111 1.247 . S
O121 Co108 2.244 . S
O121 C111 1.272 . S
O121 Co113 2.135 . S
Co122 O123 2.216 . S
Co122 O124 2.091 . S
Co122 O126 2.004 . S
Co122 O132 2.021 . S
Co122 O134 2.137 . S
Co122 O135 2.244 . S
O123 Co122 2.216 . S
O123 C130 1.247 . S
O124 Co122 2.091 . S
O124 C130 1.261 . S
C125 O134 1.247 . S
C125 O135 1.272 . S
O126 Co122 2.004 . S
O126 C131 1.259 . S
Co127 O128 2.061 . S
Co127 O133 2.052 . S
Co127 O135 2.135 . S
O128 Co127 2.061 . S
O128 C131 1.235 . S
C129 O132 1.238 . S
C129 O133 1.241 . S
C130 O123 1.247 . S
C130 O124 1.261 . S
C131 O126 1.259 . S
C131 O128 1.235 . S
O132 Co122 2.021 . S
O132 C129 1.238 . S
O133 Co127 2.052 . S
O133 C129 1.241 . S
O134 Co122 2.137 . S
O134 C125 1.247 . S
O135 Co122 2.244 . S
O135 C125 1.272 . S
O135 Co127 2.135 . S
Co136 O137 2.216 . S
Co136 O138 2.091 . S
Co136 O140 2.004 . S
Co136 O146 2.021 . S
Co136 O148 2.137 . S
Co136 O149 2.244 . S
O137 Co136 2.216 . S
O137 C144 1.247 . S
O138 Co136 2.091 . S
O138 C144 1.261 . S
C139 O148 1.247 . S
C139 O149 1.272 . S
O140 Co136 2.004 . S
O140 C145 1.259 . S
Co141 O142 2.061 . S
Co141 O147 2.052 . S
Co141 O149 2.135 . S
O142 Co141 2.061 . S
O142 C145 1.235 . S
C143 O146 1.238 . S
C143 O147 1.241 . S
C144 O137 1.247 . S
C144 O138 1.261 . S
C145 O140 1.259 . S
C145 O142 1.235 . S
O146 Co136 2.021 . S
O146 C143 1.238 . S
O147 Co141 2.052 . S
O147 C143 1.241 . S
O148 Co136 2.137 . S
O148 C139 1.247 . S
O149 Co136 2.244 . S
O149 C139 1.272 . S
O149 Co141 2.135 . S
Co150 O151 2.216 . S
Co150 O152 2.091 . S
Co150 O154 2.004 . S
Co150 O160 2.021 . S
Co150 O162 2.137 . S
Co150 O163 2.244 . S
O151 Co150 2.216 . S
O151 C158 1.247 . S
O152 Co150 2.091 . S
O152 C158 1.261 . S
C153 O162 1.247 . S
C153 O163 1.272 . S
O154 Co150 2.004 . S
O154 C159 1.259 . S
Co155 O156 2.061 . S
Co155 O161 2.052 . S
Co155 O163 2.135 . S
O156 Co155 2.061 . S
O156 C159 1.235 . S
C157 O160 1.238 . S
C157 O161 1.241 . S
C158 O151 1.247 . S
C158 O152 1.261 . S
C159 O154 1.259 . S
C159 O156 1.235 . S
O160 Co150 2.021 . S
O160 C157 1.238 . S
O161 Co155 2.052 . S
O161 C157 1.241 . S
O162 Co150 2.137 . S
O162 C153 1.247 . S
O163 Co150 2.244 . S
O163 C153 1.272 . S
O163 Co155 2.135 . S
Co164 O165 2.216 . S
Co164 O166 2.091 . S
Co164 O168 2.004 . S
Co164 O174 2.021 . S
Co164 O176 2.137 . S
Co164 O177 2.244 . S
O165 Co164 2.216 . S
O165 C172 1.247 . S
O166 Co164 2.091 . S
O166 C172 1.261 . S
C167 O176 1.247 . S
C167 O177 1.272 . S
O168 Co164 2.004 . S
O168 C173 1.259 . S
Co169 O170 2.061 . S
Co169 O175 2.052 . S
Co169 O177 2.135 . S
O170 Co169 2.061 . S
O170 C173 1.235 . S
C171 O174 1.238 . S
C171 O175 1.241 . S
C172 O165 1.247 . S
C172 O166 1.261 . S
C173 O168 1.259 . S
C173 O170 1.235 . S
O174 Co164 2.021 . S
O174 C171 1.238 . S
O175 Co169 2.052 . S
O175 C171 1.241 . S
O176 Co164 2.137 . S
O176 C167 1.247 . S
O177 Co164 2.244 . S
O177 C167 1.272 . S
O177 Co169 2.135 . S
Co178 O179 2.216 . S
Co178 O180 2.091 . S
Co178 O182 2.004 . S
Co178 O188 2.021 . S
Co178 O190 2.137 . S
Co178 O191 2.244 . S
O179 Co178 2.216 . S
O179 C186 1.247 . S
O180 Co178 2.091 . S
O180 C186 1.261 . S
C181 O190 1.247 . S
C181 O191 1.272 . S
O182 Co178 2.004 . S
O182 C187 1.259 . S
Co183 O184 2.061 . S
Co183 O189 2.052 . S
Co183 O191 2.135 . S
O184 Co183 2.061 . S
O184 C187 1.235 . S
C185 O188 1.238 . S
C185 O189 1.241 . S
C186 O179 1.247 . S
C186 O180 1.261 . S
C187 O182 1.259 . S
C187 O184 1.235 . S
O188 Co178 2.021 . S
O188 C185 1.238 . S
O189 Co183 2.052 . S
O189 C185 1.241 . S
O190 Co178 2.137 . S
O190 C181 1.247 . S
O191 Co178 2.244 . S
O191 C181 1.272 . S
O191 Co183 2.135 . S
C192 C193 1.363 . S
C192 C198 1.379 . S
C192 N200 1.356 . S
C193 C192 1.363 . S
C193 C199 1.363 . S
C194 C195 1.363 . S
C194 C199 1.379 . S
C194 N201 1.356 . S
C195 C194 1.363 . S
C195 C198 1.363 . S
N196 C198 1.356 . S
N196 H208 0.984 . S
N196 H209 0.985 . S
N197 C199 1.356 . S
N197 H202 0.984 . S
N197 H203 0.985 . S
C198 C192 1.379 . S
C198 C195 1.363 . S
C198 N196 1.356 . S
C199 C193 1.363 . S
C199 C194 1.379 . S
C199 N197 1.356 . S
N200 C192 1.356 . S
N200 H206 0.984 . S
N200 H207 0.984 . S
N201 C194 1.356 . S
N201 H204 0.984 . S
N201 H205 0.985 . S
H202 N197 0.984 . S
H203 N197 0.985 . S
H204 N201 0.984 . S
H205 N201 0.985 . S
H206 N200 0.984 . S
H207 N200 0.984 . S
H208 N196 0.984 . S
H209 N196 0.985 . S
C210 C211 1.363 . S
C210 C216 1.379 . S
C210 N218 1.356 . S
C211 C210 1.363 . S
C211 C217 1.363 . S
C212 C213 1.363 . S
C212 C217 1.379 . S
C212 N219 1.356 . S
C213 C212 1.363 . S
C213 C216 1.363 . S
N214 C216 1.356 . S
N214 H226 0.984 . S
N214 H227 0.985 . S
N215 C217 1.356 . S
N215 H220 0.984 . S
N215 H221 0.985 . S
C216 C210 1.379 . S
C216 C213 1.363 . S
C216 N214 1.356 . S
C217 C211 1.363 . S
C217 C212 1.379 . S
C217 N215 1.356 . S
N218 C210 1.356 . S
N218 H224 0.984 . S
N218 H225 0.984 . S
N219 C212 1.356 . S
N219 H222 0.984 . S
N219 H223 0.985 . S
H220 N215 0.984 . S
H221 N215 0.985 . S
H222 N219 0.984 . S
H223 N219 0.985 . S
H224 N218 0.984 . S
H225 N218 0.984 . S
H226 N214 0.984 . S
H227 N214 0.985 . S
C228 C229 1.363 . S
C228 C234 1.379 . S
C228 N236 1.356 . S
C229 C228 1.363 . S
C229 C235 1.363 . S
C230 C231 1.363 . S
C230 C235 1.379 . S
C230 N237 1.356 . S
C231 C230 1.363 . S
C231 C234 1.363 . S
N232 C234 1.356 . S
N232 H244 0.984 . S
N232 H245 0.985 . S
N233 C235 1.356 . S
N233 H238 0.984 . S
N233 H239 0.985 . S
C234 C228 1.379 . S
C234 C231 1.363 . S
C234 N232 1.356 . S
C235 C229 1.363 . S
C235 C230 1.379 . S
C235 N233 1.356 . S
N236 C228 1.356 . S
N236 H242 0.984 . S
N236 H243 0.984 . S
N237 C230 1.356 . S
N237 H240 0.984 . S
N237 H241 0.985 . S
H238 N233 0.984 . S
H239 N233 0.985 . S
H240 N237 0.984 . S
H241 N237 0.985 . S
H242 N236 0.984 . S
H243 N236 0.984 . S
H244 N232 0.984 . S
H245 N232 0.985 . S
C246 C247 1.363 . S
C246 C252 1.379 . S
C246 N254 1.356 . S
C247 C246 1.363 . S
C247 C253 1.363 . S
C248 C249 1.363 . S
C248 C253 1.379 . S
C248 N255 1.356 . S
C249 C248 1.363 . S
C249 C252 1.363 . S
N250 C252 1.356 . S
N250 H262 0.984 . S
N250 H263 0.985 . S
N251 C253 1.356 . S
N251 H256 0.984 . S
N251 H257 0.985 . S
C252 C246 1.379 . S
C252 C249 1.363 . S
C252 N250 1.356 . S
C253 C247 1.363 . S
C253 C248 1.379 . S
C253 N251 1.356 . S
N254 C246 1.356 . S
N254 H260 0.984 . S
N254 H261 0.984 . S
N255 C248 1.356 . S
N255 H258 0.984 . S
N255 H259 0.985 . S
H256 N251 0.984 . S
H257 N251 0.985 . S
H258 N255 0.984 . S
H259 N255 0.985 . S
H260 N254 0.984 . S
H261 N254 0.984 . S
H262 N250 0.984 . S
H263 N250 0.985 . S
C264 C265 1.363 . S
C264 C270 1.379 . S
C264 N272 1.356 . S
C265 C264 1.363 . S
C265 C271 1.363 . S
C266 C267 1.363 . S
C266 C271 1.379 . S
C266 N273 1.356 . S
C267 C266 1.363 . S
C267 C270 1.363 . S
N268 C270 1.356 . S
N268 H280 0.984 . S
N268 H281 0.985 . S
N269 C271 1.356 1_554 S
N269 H274 0.984 . S
N269 H275 0.985 . S
C270 C264 1.379 . S
C270 C267 1.363 . S
C270 N268 1.356 . S
C271 C265 1.363 . S
C271 C266 1.379 . S
C271 N269 1.356 1_556 S
N272 C264 1.356 . S
N272 H278 0.984 . S
N272 H279 0.984 . S
N273 C266 1.356 . S
N273 H276 0.984 . S
N273 H277 0.985 1_556 S
H274 N269 0.984 . S
H275 N269 0.985 . S
H276 N273 0.984 . S
H277 N273 0.985 1_554 S
H278 N272 0.984 . S
H279 N272 0.984 . S
H280 N268 0.984 . S
H281 N268 0.985 . S
C282 C283 1.363 . S
C282 C288 1.379 . S
C282 N290 1.356 . S
C283 C282 1.363 . S
C283 C289 1.363 . S
C284 C285 1.363 . S
C284 C289 1.379 . S
C284 N291 1.356 . S
C285 C284 1.363 . S
C285 C288 1.363 . S
N286 C288 1.356 . S
N286 H298 0.984 . S
N286 H299 0.985 . S
N287 C289 1.356 . S
N287 H292 0.984 . S
N287 H293 0.985 . S
C288 C282 1.379 . S
C288 C285 1.363 . S
C288 N286 1.356 . S
C289 C283 1.363 . S
C289 C284 1.379 . S
C289 N287 1.356 . S
N290 C282 1.356 . S
N290 H296 0.984 . S
N290 H297 0.984 . S
N291 C284 1.356 . S
N291 H294 0.984 . S
N291 H295 0.985 . S
H292 N287 0.984 . S
H293 N287 0.985 . S
H294 N291 0.984 . S
H295 N291 0.985 . S
H296 N290 0.984 . S
H297 N290 0.984 . S
H298 N286 0.984 . S
H299 N286 0.985 . S
C300 C301 1.363 . S
C300 C306 1.379 . S
C300 N308 1.356 . S
C301 C300 1.363 . S
C301 C307 1.363 . S
C302 C303 1.363 . S
C302 C307 1.379 . S
C302 N309 1.356 . S
C303 C302 1.363 . S
C303 C306 1.363 . S
N304 C306 1.356 . S
N304 H316 0.984 . S
N304 H317 0.985 . S
N305 C307 1.356 . S
N305 H310 0.984 . S
N305 H311 0.985 . S
C306 C300 1.379 . S
C306 C303 1.363 . S
C306 N304 1.356 . S
C307 C301 1.363 . S
C307 C302 1.379 . S
C307 N305 1.356 . S
N308 C300 1.356 . S
N308 H314 0.984 . S
N308 H315 0.984 . S
N309 C302 1.356 . S
N309 H312 0.984 . S
N309 H313 0.985 . S
H310 N305 0.984 . S
H311 N305 0.985 . S
H312 N309 0.984 . S
H313 N309 0.985 . S
H314 N308 0.984 . S
H315 N308 0.984 . S
H316 N304 0.984 . S
H317 N304 0.985 . S
C318 C319 1.363 . S
C318 C324 1.379 . S
C318 N326 1.356 . S
C319 C318 1.363 . S
C319 C325 1.363 . S
C320 C321 1.363 . S
C320 C325 1.379 . S
C320 N327 1.356 . S
C321 C320 1.363 . S
C321 C324 1.363 . S
N322 C324 1.356 . S
N322 H334 0.984 . S
N322 H335 0.985 . S
N323 C325 1.356 . S
N323 H328 0.984 . S
N323 H329 0.985 . S
C324 C318 1.379 . S
C324 C321 1.363 . S
C324 N322 1.356 . S
C325 C319 1.363 . S
C325 C320 1.379 . S
C325 N323 1.356 . S
N326 C318 1.356 . S
N326 H332 0.984 . S
N326 H333 0.984 . S
N327 C320 1.356 . S
N327 H330 0.984 . S
N327 H331 0.985 . S
H328 N323 0.984 . S
H329 N323 0.985 . S
H330 N327 0.984 . S
H331 N327 0.985 . S
H332 N326 0.984 . S
H333 N326 0.984 . S
H334 N322 0.984 . S
H335 N322 0.985 . S
C336 C337 1.363 . S
C336 C342 1.379 . S
C336 N344 1.356 . S
C337 C336 1.363 . S
C337 C343 1.363 . S
C338 C339 1.363 . S
C338 C343 1.379 . S
C338 N345 1.356 . S
C339 C338 1.363 . S
C339 C342 1.363 . S
N340 C342 1.356 . S
N340 H352 0.984 . S
N340 H353 0.985 . S
N341 C343 1.356 . S
N341 H346 0.984 . S
N341 H347 0.985 . S
C342 C336 1.379 . S
C342 C339 1.363 . S
C342 N340 1.356 . S
C343 C337 1.363 . S
C343 C338 1.379 . S
C343 N341 1.356 . S
N344 C336 1.356 . S
N344 H350 0.984 . S
N344 H351 0.984 . S
N345 C338 1.356 . S
N345 H348 0.984 . S
N345 H349 0.985 . S
H346 N341 0.984 . S
H347 N341 0.985 . S
H348 N345 0.984 . S
H349 N345 0.985 . S
H350 N344 0.984 . S
H351 N344 0.984 . S
H352 N340 0.984 . S
H353 N340 0.985 . S
C354 C355 1.363 . S
C354 C360 1.379 . S
C354 N362 1.356 . S
C355 C354 1.363 . S
C355 C361 1.363 . S
C356 C357 1.363 . S
C356 C361 1.379 . S
C356 N363 1.356 . S
C357 C356 1.363 . S
C357 C360 1.363 . S
N358 C360 1.356 . S
N358 H370 0.984 . S
N358 H371 0.985 . S
N359 C361 1.356 . S
N359 H364 0.984 . S
N359 H365 0.985 . S
C360 C354 1.379 . S
C360 C357 1.363 . S
C360 N358 1.356 . S
C361 C355 1.363 . S
C361 C356 1.379 . S
C361 N359 1.356 . S
N362 C354 1.356 . S
N362 H368 0.984 1_554 S
N362 H369 0.984 1_554 S
N363 C356 1.356 . S
N363 H366 0.984 . S
N363 H367 0.985 . S
H364 N359 0.984 . S
H365 N359 0.985 . S
H366 N363 0.984 . S
H367 N363 0.985 . S
H368 N362 0.984 1_556 S
H369 N362 0.984 1_556 S
H370 N358 0.984 . S
H371 N358 0.985 . S
C372 C373 1.363 . S
C372 C378 1.379 . S
C372 N380 1.356 . S
C373 C372 1.363 . S
C373 C379 1.363 . S
C374 C375 1.363 . S
C374 C379 1.379 . S
C374 N381 1.356 . S
C375 C374 1.363 . S
C375 C378 1.363 . S
N376 C378 1.356 . S
N376 H388 0.984 . S
N376 H389 0.985 . S
N377 C379 1.356 . S
N377 H382 0.984 . S
N377 H383 0.985 . S
C378 C372 1.379 . S
C378 C375 1.363 . S
C378 N376 1.356 . S
C379 C373 1.363 . S
C379 C374 1.379 . S
C379 N377 1.356 . S
N380 C372 1.356 . S
N380 H386 0.984 . S
N380 H387 0.984 . S
N381 C374 1.356 . S
N381 H384 0.984 . S
N381 H385 0.985 . S
H382 N377 0.984 . S
H383 N377 0.985 . S
H384 N381 0.984 . S
H385 N381 0.985 . S
H386 N380 0.984 . S
H387 N380 0.984 . S
H388 N376 0.984 . S
H389 N376 0.985 . S
C390 C391 1.363 . S
C390 C396 1.379 . S
C390 N398 1.356 . S
C391 C390 1.363 . S
C391 C397 1.363 . S
C392 C393 1.363 . S
C392 C397 1.379 . S
C392 N399 1.356 . S
C393 C392 1.363 . S
C393 C396 1.363 . S
N394 C396 1.356 . S
N394 H406 0.984 . S
N394 H407 0.985 . S
N395 C397 1.356 . S
N395 H400 0.984 . S
N395 H401 0.985 . S
C396 C390 1.379 . S
C396 C393 1.363 . S
C396 N394 1.356 . S
C397 C391 1.363 . S
C397 C392 1.379 . S
C397 N395 1.356 . S
N398 C390 1.356 . S
N398 H404 0.984 . S
N398 H405 0.984 . S
N399 C392 1.356 . S
N399 H402 0.984 . S
N399 H403 0.985 . S
H400 N395 0.984 . S
H401 N395 0.985 . S
H402 N399 0.984 . S
H403 N399 0.985 . S
H404 N398 0.984 . S
H405 N398 0.984 . S
H406 N394 0.984 . S
H407 N394 0.985 . S
C408 C409 1.363 . S
C408 C414 1.379 . S
C408 N416 1.356 . S
C409 C408 1.363 . S
C409 C415 1.363 . S
C410 C411 1.363 . S
C410 C415 1.379 . S
C410 N417 1.356 . S
C411 C410 1.363 . S
C411 C414 1.363 . S
N412 C414 1.356 . S
N412 H424 0.984 . S
N412 H425 0.985 . S
N413 C415 1.356 . S
N413 H418 0.984 . S
N413 H419 0.985 . S
C414 C408 1.379 . S
C414 C411 1.363 . S
C414 N412 1.356 . S
C415 C409 1.363 . S
C415 C410 1.379 . S
C415 N413 1.356 . S
N416 C408 1.356 . S
N416 H422 0.984 . S
N416 H423 0.984 . S
N417 C410 1.356 . S
N417 H420 0.984 . S
N417 H421 0.985 . S
H418 N413 0.984 . S
H419 N413 0.985 . S
H420 N417 0.984 . S
H421 N417 0.985 . S
H422 N416 0.984 . S
H423 N416 0.984 . S
H424 N412 0.984 . S
H425 N412 0.985 . S
C426 C427 1.363 . S
C426 C432 1.379 . S
C426 N434 1.356 . S
C427 C426 1.363 . S
C427 C433 1.363 . S
C428 C429 1.363 . S
C428 C433 1.379 . S
C428 N435 1.356 . S
C429 C428 1.363 . S
C429 C432 1.363 . S
N430 C432 1.356 . S
N430 H442 0.984 . S
N430 H443 0.985 . S
N431 C433 1.356 . S
N431 H436 0.984 . S
N431 H437 0.985 . S
C432 C426 1.379 . S
C432 C429 1.363 . S
C432 N430 1.356 . S
C433 C427 1.363 . S
C433 C428 1.379 . S
C433 N431 1.356 . S
N434 C426 1.356 . S
N434 H440 0.984 . S
N434 H441 0.984 . S
N435 C428 1.356 . S
N435 H438 0.984 . S
N435 H439 0.985 . S
H436 N431 0.984 . S
H437 N431 0.985 . S
H438 N435 0.984 . S
H439 N435 0.985 . S
H440 N434 0.984 . S
H441 N434 0.984 . S
H442 N430 0.984 . S
H443 N430 0.985 . S
C444 C445 1.363 . S
C444 C450 1.379 . S
C444 N452 1.356 . S
C445 C444 1.363 . S
C445 C451 1.363 . S
C446 C447 1.363 . S
C446 C451 1.379 . S
C446 N453 1.356 . S
C447 C446 1.363 . S
C447 C450 1.363 . S
N448 C450 1.356 . S
N448 H460 0.984 . S
N448 H461 0.985 . S
N449 C451 1.356 . S
N449 H454 0.984 . S
N449 H455 0.985 . S
C450 C444 1.379 . S
C450 C447 1.363 . S
C450 N448 1.356 . S
C451 C445 1.363 . S
C451 C446 1.379 . S
C451 N449 1.356 . S
N452 C444 1.356 . S
N452 H458 0.984 . S
N452 H459 0.984 . S
N453 C446 1.356 . S
N453 H456 0.984 . S
N453 H457 0.985 . S
H454 N449 0.984 . S
H455 N449 0.985 . S
H456 N453 0.984 . S
H457 N453 0.985 . S
H458 N452 0.984 . S
H459 N452 0.984 . S
H460 N448 0.984 . S
H461 N448 0.985 . S
C462 C463 1.363 . S
C462 C468 1.379 . S
C462 N470 1.356 . S
C463 C462 1.363 . S
C463 C469 1.363 . S
C464 C465 1.363 . S
C464 C469 1.379 . S
C464 N471 1.356 . S
C465 C464 1.363 . S
C465 C468 1.363 . S
N466 C468 1.356 1_554 S
N466 H478 0.984 . S
N466 H479 0.985 . S
N467 C469 1.356 . S
N467 H472 0.984 . S
N467 H473 0.985 . S
C468 C462 1.379 . S
C468 C465 1.363 . S
C468 N466 1.356 1_556 S
C469 C463 1.363 . S
C469 C464 1.379 . S
C469 N467 1.356 . S
N470 C462 1.356 . S
N470 H476 0.984 . S
N470 H477 0.984 . S
N471 C464 1.356 . S
N471 H474 0.984 . S
N471 H475 0.985 . S
H472 N467 0.984 . S
H473 N467 0.985 . S
H474 N471 0.984 . S
H475 N471 0.985 . S
H476 N470 0.984 . S
H477 N470 0.984 . S
H478 N466 0.984 . S
H479 N466 0.985 . S
C480 C481 1.363 . S
C480 C486 1.379 . S
C480 N488 1.356 . S
C481 C480 1.363 . S
C481 C487 1.363 . S
C482 C483 1.363 . S
C482 C487 1.379 . S
C482 N489 1.356 . S
C483 C482 1.363 . S
C483 C486 1.363 . S
N484 C486 1.356 . S
N484 H496 0.984 . S
N484 H497 0.985 . S
N485 C487 1.356 . S
N485 H490 0.984 . S
N485 H491 0.985 . S
C486 C480 1.379 . S
C486 C483 1.363 . S
C486 N484 1.356 . S
C487 C481 1.363 . S
C487 C482 1.379 . S
C487 N485 1.356 . S
N488 C480 1.356 . S
N488 H494 0.984 . S
N488 H495 0.984 . S
N489 C482 1.356 . S
N489 H492 0.984 . S
N489 H493 0.985 . S
H490 N485 0.984 . S
H491 N485 0.985 . S
H492 N489 0.984 . S
H493 N489 0.985 . S
H494 N488 0.984 . S
H495 N488 0.984 . S
H496 N484 0.984 . S
H497 N484 0.985 . S
C498 C499 1.363 . S
C498 C504 1.379 . S
C498 N506 1.356 . S
C499 C498 1.363 . S
C499 C505 1.363 . S
C500 C501 1.363 . S
C500 C505 1.379 . S
C500 N507 1.356 . S
C501 C500 1.363 . S
C501 C504 1.363 . S
N502 C504 1.356 . S
N502 H514 0.984 . S
N502 H515 0.985 . S
N503 C505 1.356 . S
N503 H508 0.984 . S
N503 H509 0.985 . S
C504 C498 1.379 . S
C504 C501 1.363 . S
C504 N502 1.356 . S
C505 C499 1.363 . S
C505 C500 1.379 . S
C505 N503 1.356 . S
N506 C498 1.356 . S
N506 H512 0.984 . S
N506 H513 0.984 . S
N507 C500 1.356 . S
N507 H510 0.984 . S
N507 H511 0.985 . S
H508 N503 0.984 . S
H509 N503 0.985 . S
H510 N507 0.984 . S
H511 N507 0.985 . S
H512 N506 0.984 . S
H513 N506 0.984 . S
H514 N502 0.984 . S
H515 N502 0.985 . S
C516 C517 1.363 . S
C516 C522 1.379 . S
C516 N524 1.356 . S
C517 C516 1.363 . S
C517 C523 1.363 . S
C518 C519 1.363 . S
C518 C523 1.379 . S
C518 N525 1.356 . S
C519 C518 1.363 . S
C519 C522 1.363 . S
N520 C522 1.356 . S
N520 H532 0.984 . S
N520 H533 0.985 . S
N521 C523 1.356 . S
N521 H526 0.984 . S
N521 H527 0.985 . S
C522 C516 1.379 . S
C522 C519 1.363 . S
C522 N520 1.356 . S
C523 C517 1.363 . S
C523 C518 1.379 . S
C523 N521 1.356 . S
N524 C516 1.356 . S
N524 H530 0.984 . S
N524 H531 0.984 . S
N525 C518 1.356 . S
N525 H528 0.984 . S
N525 H529 0.985 . S
H526 N521 0.984 . S
H527 N521 0.985 . S
H528 N525 0.984 . S
H529 N525 0.985 . S
H530 N524 0.984 . S
H531 N524 0.984 . S
H532 N520 0.984 . S
H533 N520 0.985 . S
C534 C535 1.363 . S
C534 C540 1.379 . S
C534 N542 1.356 . S
C535 C534 1.363 . S
C535 C541 1.363 . S
C536 C537 1.363 . S
C536 C541 1.379 . S
C536 N543 1.356 . S
C537 C536 1.363 . S
C537 C540 1.363 . S
N538 C540 1.356 . S
N538 H550 0.984 . S
N538 H551 0.985 . S
N539 C541 1.356 . S
N539 H544 0.984 . S
N539 H545 0.985 . S
C540 C534 1.379 . S
C540 C537 1.363 . S
C540 N538 1.356 . S
C541 C535 1.363 . S
C541 C536 1.379 . S
C541 N539 1.356 . S
N542 C534 1.356 . S
N542 H548 0.984 . S
N542 H549 0.984 . S
N543 C536 1.356 . S
N543 H546 0.984 . S
N543 H547 0.985 . S
H544 N539 0.984 . S
H545 N539 0.985 . S
H546 N543 0.984 . S
H547 N543 0.985 . S
H548 N542 0.984 . S
H549 N542 0.984 . S
H550 N538 0.984 . S
H551 N538 0.985 . S
C552 C553 1.363 . S
C552 C558 1.379 . S
C552 N560 1.356 . S
C553 C552 1.363 . S
C553 C559 1.363 . S
C554 C555 1.363 . S
C554 C559 1.379 . S
C554 N561 1.356 . S
C555 C554 1.363 . S
C555 C558 1.363 . S
N556 C558 1.356 . S
N556 H568 0.984 . S
N556 H569 0.985 . S
N557 C559 1.356 . S
N557 H562 0.984 . S
N557 H563 0.985 . S
C558 C552 1.379 . S
C558 C555 1.363 . S
C558 N556 1.356 . S
C559 C553 1.363 . S
C559 C554 1.379 . S
C559 N557 1.356 . S
N560 C552 1.356 . S
N560 H566 0.984 . S
N560 H567 0.984 . S
N561 C554 1.356 . S
N561 H564 0.984 . S
N561 H565 0.985 . S
H562 N557 0.984 . S
H563 N557 0.985 . S
H564 N561 0.984 . S
H565 N561 0.985 . S
H566 N560 0.984 . S
H567 N560 0.984 . S
H568 N556 0.984 . S
H569 N556 0.985 . S
C570 C571 1.363 . S
C570 C576 1.379 . S
C570 N578 1.356 . S
C571 C570 1.363 . S
C571 C577 1.363 . S
C572 C573 1.363 . S
C572 C577 1.379 . S
C572 N579 1.356 . S
C573 C572 1.363 . S
C573 C576 1.363 . S
N574 C576 1.356 . S
N574 H586 0.984 . S
N574 H587 0.985 . S
N575 C577 1.356 . S
N575 H580 0.984 . S
N575 H581 0.985 . S
C576 C570 1.379 . S
C576 C573 1.363 . S
C576 N574 1.356 . S
C577 C571 1.363 . S
C577 C572 1.379 . S
C577 N575 1.356 . S
N578 C570 1.356 . S
N578 H584 0.984 . S
N578 H585 0.984 . S
N579 C572 1.356 . S
N579 H582 0.984 . S
N579 H583 0.985 . S
H580 N575 0.984 . S
H581 N575 0.985 . S
H582 N579 0.984 . S
H583 N579 0.985 . S
H584 N578 0.984 . S
H585 N578 0.984 . S
H586 N574 0.984 . S
H587 N574 0.985 . S
C588 C589 1.363 . S
C588 C594 1.379 1_554 S
C588 N596 1.356 . S
C589 C588 1.363 . S
C589 C595 1.363 . S
C590 C591 1.363 . S
C590 C595 1.379 . S
C590 N597 1.356 . S
C591 C590 1.363 . S
C591 C594 1.363 1_554 S
N592 C594 1.356 . S
N592 H604 0.984 . S
N592 H605 0.985 . S
N593 C595 1.356 . S
N593 H598 0.984 . S
N593 H599 0.985 . S
C594 C588 1.379 1_556 S
C594 C591 1.363 1_556 S
C594 N592 1.356 . S
C595 C589 1.363 . S
C595 C590 1.379 . S
C595 N593 1.356 . S
N596 C588 1.356 . S
N596 H602 0.984 . S
N596 H603 0.984 . S
N597 C590 1.356 . S
N597 H600 0.984 . S
N597 H601 0.985 . S
H598 N593 0.984 . S
H599 N593 0.985 . S
H600 N597 0.984 . S
H601 N597 0.985 . S
H602 N596 0.984 . S
H603 N596 0.984 . S
H604 N592 0.984 . S
H605 N592 0.985 . S
C606 C607 1.363 . S
C606 C612 1.379 . S
C606 N614 1.356 . S
C607 C606 1.363 . S
C607 C613 1.363 . S
C608 C609 1.363 . S
C608 C613 1.379 . S
C608 N615 1.356 . S
C609 C608 1.363 . S
C609 C612 1.363 . S
N610 C612 1.356 . S
N610 H622 0.984 . S
N610 H623 0.985 . S
N611 C613 1.356 . S
N611 H616 0.984 . S
N611 H617 0.985 . S
C612 C606 1.379 . S
C612 C609 1.363 . S
C612 N610 1.356 . S
C613 C607 1.363 . S
C613 C608 1.379 . S
C613 N611 1.356 . S
N614 C606 1.356 . S
N614 H620 0.984 . S
N614 H621 0.984 . S
N615 C608 1.356 . S
N615 H618 0.984 . S
N615 H619 0.985 . S
H616 N611 0.984 . S
H617 N611 0.985 . S
H618 N615 0.984 . S
H619 N615 0.985 . S
H620 N614 0.984 . S
H621 N614 0.984 . S
H622 N610 0.984 . S
H623 N610 0.985 . S
C195 C181 1.570 . S
C193 C8 1.517 . S
C211 C26 1.527 . S
C213 C111 1.571 . S
C229 C50 1.530 . S
C231 C130 1.584 . S
C247 C68 1.516 . S
C249 C139 1.574 . S
C267 C153 1.569 . S
C265 C80 1.526 . S
C283 C104 1.526 . S
C285 C172 1.579 . S
C301 C32 1.513 . S
C303 C125 1.566 . S
C319 C44 1.514 . S
C321 C144 1.566 . S
C337 C62 1.518 . S
C339 C158 1.563 . S
C357 C167 1.561 . S
C355 C86 1.509 . S
C375 C186 1.565 . S
C373 C98 1.513 . S
C393 C116 1.566 . S
C391 C14 1.517 . S
C409 C7 1.467 . S
C411 C131 1.507 . S
C427 C25 1.467 . S
C429 C143 1.486 . S
C447 C157 1.478 . S
C445 C52 1.465 . S
C463 C70 1.467 . S
C465 C173 1.506 1_556 S
C483 C185 1.485 . S
C481 C79 1.467 . S
C501 C115 1.479 . S
C499 C106 1.466 . S
C519 C187 1.508 . S
C517 C34 1.470 . S
C535 C43 1.469 . S
C537 C117 1.518 . S
C555 C129 1.489 . S
C553 C61 1.470 . S
C571 C88 1.470 . S
C573 C145 1.509 . S
C589 C97 1.469 . S
C591 C159 1.518 1_554 S
C607 C16 1.471 . S
C609 C171 1.488 . S
