# Generated by pormake.
# Topology the, (3,8)-cn, num edge types: 1
# Building blocks:
#     Node 0, Type 0, BuildingBlock: BETDIP_clean_linker_0, # of connection points: 3
#     Node 1, Type 0, BuildingBlock: BETDIP_clean_linker_0, # of connection points: 3
#     Node 2, Type 0, BuildingBlock: BETDIP_clean_linker_0, # of connection points: 3
#     Node 3, Type 0, BuildingBlock: BETDIP_clean_linker_0, # of connection points: 3
#     Node 4, Type 0, BuildingBlock: BETDIP_clean_linker_0, # of connection points: 3
#     Node 5, Type 0, BuildingBlock: BETDIP_clean_linker_0, # of connection points: 3
#     Node 6, Type 0, BuildingBlock: BETDIP_clean_linker_0, # of connection points: 3
#     Node 7, Type 0, BuildingBlock: BETDIP_clean_linker_0, # of connection points: 3
#     Node 8, Type 1, BuildingBlock: GIZVER_clean_sbu_0, # of connection points: 8
#     Node 9, Type 1, BuildingBlock: GIZVER_clean_sbu_0, # of connection points: 8
#     Node 10, Type 1, BuildingBlock: GIZVER_clean_sbu_0, # of connection points: 8
#     Edge 11, Type (0, 1), BuildingBlock: CIFDUS_clean_linker_0, # of connection points: 2
#     Edge 12, Type (0, 1), BuildingBlock: CIFDUS_clean_linker_0, # of connection points: 2
#     Edge 13, Type (0, 1), BuildingBlock: CIFDUS_clean_linker_0, # of connection points: 2
#     Edge 14, Type (0, 1), BuildingBlock: CIFDUS_clean_linker_0, # of connection points: 2
#     Edge 15, Type (0, 1), BuildingBlock: CIFDUS_clean_linker_0, # of connection points: 2
#     Edge 16, Type (0, 1), BuildingBlock: CIFDUS_clean_linker_0, # of connection points: 2
#     Edge 17, Type (0, 1), BuildingBlock: CIFDUS_clean_linker_0, # of connection points: 2
#     Edge 18, Type (0, 1), BuildingBlock: CIFDUS_clean_linker_0, # of connection points: 2
#     Edge 19, Type (0, 1), BuildingBlock: CIFDUS_clean_linker_0, # of connection points: 2
#     Edge 20, Type (0, 1), BuildingBlock: CIFDUS_clean_linker_0, # of connection points: 2
#     Edge 21, Type (0, 1), BuildingBlock: CIFDUS_clean_linker_0, # of connection points: 2
#     Edge 22, Type (0, 1), BuildingBlock: CIFDUS_clean_linker_0, # of connection points: 2
#     Edge 23, Type (0, 1), BuildingBlock: CIFDUS_clean_linker_0, # of connection points: 2
#     Edge 24, Type (0, 1), BuildingBlock: CIFDUS_clean_linker_0, # of connection points: 2
#     Edge 25, Type (0, 1), BuildingBlock: CIFDUS_clean_linker_0, # of connection points: 2
#     Edge 26, Type (0, 1), BuildingBlock: CIFDUS_clean_linker_0, # of connection points: 2
#     Edge 27, Type (0, 1), BuildingBlock: CIFDUS_clean_linker_0, # of connection points: 2
#     Edge 28, Type (0, 1), BuildingBlock: CIFDUS_clean_linker_0, # of connection points: 2
#     Edge 29, Type (0, 1), BuildingBlock: CIFDUS_clean_linker_0, # of connection points: 2
#     Edge 30, Type (0, 1), BuildingBlock: CIFDUS_clean_linker_0, # of connection points: 2
#     Edge 31, Type (0, 1), BuildingBlock: CIFDUS_clean_linker_0, # of connection points: 2
#     Edge 32, Type (0, 1), BuildingBlock: CIFDUS_clean_linker_0, # of connection points: 2
#     Edge 33, Type (0, 1), BuildingBlock: CIFDUS_clean_linker_0, # of connection points: 2
#     Edge 34, Type (0, 1), BuildingBlock: CIFDUS_clean_linker_0, # of connection points: 2
# Relax obj value: 0.087
# Max RMSD: 0.193
# Mean RMSD: 0.136
data_MOF--net-the--node1-GIZVER_clean_sbu_0--node2-BETDIP_clean_linker_0--edge1-CIFDUS_clean_linker_0
_symmetry_space_group_name_H-M    P1
_symmetry_Int_Tables_number       1
_symmetry_cell_setting            triclinic
loop_
_symmetry_equiv_pos_as_xyz
'x, y, z'
_cell_length_a     35.709173
_cell_length_b     33.59251
_cell_length_c     32.108574
_cell_angle_alpha  89.519621
_cell_angle_beta   92.178933
_cell_angle_gamma 110.99298
loop_
_atom_site_label
_atom_site_type_symbol
_atom_site_fract_x
_atom_site_fract_y
_atom_site_fract_z
_atom_type_partial_charge
H0 H 0.30155 0.33596 0.46917 0.0
H1 H 0.38699 0.35302 0.37366 0.0
H2 H 0.27471 0.36942 0.34507 0.0
H3 H 0.32949 0.28997 0.49408 0.0
C4 C 0.36033 0.30008 0.48453 0.0
C5 C 0.30986 0.34219 0.43704 0.0
C6 C 0.28372 0.35195 0.40848 0.0
C7 C 0.34684 0.34165 0.42422 0.0
C8 C 0.35812 0.35275 0.38326 0.0
C9 C 0.33203 0.36219 0.35434 0.0
C10 C 0.29449 0.36093 0.36693 0.0
N11 N 0.37312 0.32932 0.45122 0.0
H12 H 0.76947 0.39164 0.29938 0.0
H13 H 0.65934 0.28385 0.30418 0.0
H14 H 0.75869 0.29021 0.3865 0.0
H15 H 0.65835 0.29446 0.23448 0.0
C16 C 0.66691 0.3289 0.233 0.0
C17 C 0.75246 0.36087 0.31236 0.0
C18 C 0.76866 0.3445 0.34635 0.0
C19 C 0.7138 0.33798 0.29536 0.0
C20 C 0.69035 0.29956 0.31439 0.0
C21 C 0.70598 0.28239 0.34792 0.0
C22 C 0.7457 0.30431 0.3622 0.0
N23 N 0.69822 0.35495 0.26059 0.0
H24 H 0.73499 0.68696 0.29756 0.0
H25 H 0.7516 0.77684 0.39758 0.0
H26 H 0.66285 0.7654 0.29976 0.0
H27 H 0.81257 0.77022 0.4067 0.0
C28 C 0.80784 0.73779 0.39721 0.0
C29 C 0.72766 0.71243 0.31142 0.0
C30 C 0.69601 0.72348 0.29413 0.0
C31 C 0.74882 0.73236 0.3479 0.0
C32 C 0.73748 0.76335 0.36799 0.0
C33 C 0.70576 0.77481 0.35122 0.0
C34 C 0.68651 0.75586 0.31349 0.0
N35 N 0.77874 0.71749 0.36515 0.0
H36 H 0.24356 0.66855 0.25622 0.0
H37 H 0.3521 0.77358 0.2868 0.0
H38 H 0.25951 0.73169 0.37558 0.0
H39 H 0.37773 0.7279 0.25885 0.0
C40 C 0.3574 0.71013 0.23389 0.0
C41 C 0.26075 0.69373 0.2777 0.0
C42 C 0.24583 0.69722 0.31691 0.0
C43 C 0.29952 0.71976 0.26738 0.0
C44 C 0.3222 0.75289 0.29466 0.0
C45 C 0.30757 0.75756 0.33354 0.0
C46 C 0.26956 0.72952 0.34455 0.0
N47 N 0.31684 0.70772 0.23275 0.0
H48 H 0.31015 0.63547 0.74842 0.0
H49 H 0.41579 0.74758 0.74774 0.0
H50 H 0.30696 0.74933 0.68707 0.0
H51 H 0.3484 0.63524 0.82173 0.0
C52 C 0.37827 0.64406 0.80959 0.0
C53 C 0.32418 0.66884 0.74064 0.0
C54 C 0.30325 0.68939 0.71538 0.0
C55 C 0.36463 0.69061 0.75289 0.0
C56 C 0.384 0.73249 0.74005 0.0
C57 C 0.36365 0.7544 0.71669 0.0
C58 C 0.32305 0.73268 0.70495 0.0
N59 N 0.38864 0.67043 0.77388 0.0
H60 H 0.33942 0.35774 0.76934 0.0
H61 H 0.32398 0.27333 0.66433 0.0
H62 H 0.42617 0.2992 0.74869 0.0
H63 H 0.26069 0.27388 0.66039 0.0
C64 C 0.26339 0.3052 0.67165 0.0
C65 C 0.34893 0.33559 0.75217 0.0
C66 C 0.38516 0.33033 0.76382 0.0
C67 C 0.32621 0.31488 0.71667 0.0
C68 C 0.33987 0.2879 0.69286 0.0
C69 C 0.37609 0.28225 0.70422 0.0
C70 C 0.39799 0.30304 0.74005 0.0
N71 N 0.29244 0.32574 0.7037 0.0
H72 H 0.69041 0.24006 0.74483 0.0
H73 H 0.79539 0.34722 0.78097 0.0
H74 H 0.78033 0.29908 0.65546 0.0
H75 H 0.77063 0.33657 0.84601 0.0
C76 C 0.73881 0.32529 0.83746 0.0
C77 C 0.71951 0.26312 0.73739 0.0
C78 C 0.73323 0.26518 0.69672 0.0
C79 C 0.74132 0.29278 0.76781 0.0
C80 C 0.77823 0.32396 0.75786 0.0
C81 C 0.7928 0.32625 0.71754 0.0
C82 C 0.77007 0.29671 0.68705 0.0
N83 N 0.72296 0.29338 0.80617 0.0
H84 H 0.67673 0.69688 0.67896 0.0
H85 H 0.77199 0.72465 0.59243 0.0
H86 H 0.77455 0.65227 0.70234 0.0
H87 H 0.75444 0.78006 0.57638 0.0
C88 C 0.72269 0.77153 0.58163 0.0
C89 C 0.70474 0.6944 0.66986 0.0
C90 C 0.72356 0.67225 0.69525 0.0
C91 C 0.7225 0.71473 0.63347 0.0
C92 C 0.75864 0.71115 0.6214 0.0
C93 C 0.77736 0.68889 0.64643 0.0
C94 C 0.76011 0.66995 0.68344 0.0
N95 N 0.70332 0.73867 0.61018 0.0
Co96 Co 0.1083 0.48313 0.55984 0.0
Co97 Co 0.07102 0.46153 0.48721 0.0
Co98 Co 0.03208 0.51841 0.53538 0.0
O99 O 0.05428 0.47139 0.53877 0.0
H100 H 0.03547 0.44531 0.54971 0.0
O101 O 1.00987 0.56545 0.53258 0.0
Co102 Co 0.95612 0.5539 0.51086 0.0
Co103 Co 0.99233 0.57471 0.58468 0.0
H104 H 0.02881 0.59165 0.522 0.0
O105 O 0.08104 0.41234 0.47412 0.0
O106 O 0.12417 0.47234 0.50405 0.0
O107 O 0.07131 0.50189 0.44436 0.0
O108 O 0.0678 0.55034 0.48936 0.0
O109 O 0.99048 0.48343 0.49262 0.0
O110 O 0.90808 0.54779 0.48886 0.0
O111 O 0.96258 0.60801 0.4949 0.0
O112 O 0.94221 0.49608 0.52385 0.0
O113 O 0.99597 0.48619 0.58075 0.0
O114 O 0.98809 0.53185 0.62634 0.0
O115 O 0.93968 0.56392 0.56624 0.0
O116 O 0.98085 0.62369 0.59759 0.0
C117 C 0.13942 0.44895 0.58877 0.0
C118 C 0.11104 0.56287 0.57204 0.0
C119 C 0.07615 0.54013 0.45352 0.0
C120 C 0.11712 0.43508 0.48747 0.0
C121 C 0.92523 0.58844 0.48227 0.0
C122 C 0.95318 0.47425 0.4984 0.0
C123 C 0.98394 0.49418 0.61559 0.0
C124 C 0.94546 0.60089 0.58259 0.0
O125 O 0.15646 0.48949 0.58156 0.0
O126 O 0.10207 0.42911 0.57625 0.0
O127 O 0.07373 0.55338 0.57801 0.0
O128 O 0.12216 0.54108 0.54664 0.0
Co129 Co 0.54786 0.93453 0.48121 0.0
Co130 Co 0.56898 0.96753 0.55658 0.0
Co131 Co 0.51816 0.01521 0.5133 0.0
O132 O 0.5608 0.99073 0.50526 0.0
H133 H 0.58548 0.01141 0.49562 0.0
O134 O 0.47546 0.039 0.52211 0.0
Co135 Co 0.48693 0.09358 0.54877 0.0
Co136 Co 0.46596 0.06287 0.47218 0.0
H137 H 0.45085 0.01775 0.5312 0.0
O138 O 0.61537 0.95634 0.56767 0.0
O139 O 0.55773 0.91265 0.53663 0.0
O140 O 0.53134 0.96211 0.60031 0.0
O141 O 0.4874 0.96927 0.55314 0.0
O142 O 0.55156 0.05086 0.55986 0.0
O143 O 0.4926 0.14234 0.5741 0.0
O144 O 0.4361 0.08491 0.56467 0.0
O145 O 0.54268 0.10968 0.53831 0.0
O146 O 0.5486 0.06146 0.47303 0.0
O147 O 0.50283 0.06903 0.42801 0.0
O148 O 0.47559 0.11647 0.49451 0.0
O149 O 0.41864 0.07256 0.4625 0.0
C150 C 0.57848 0.90109 0.45284 0.0
C151 C 0.47371 0.93895 0.46758 0.0
C152 C 0.49539 0.95537 0.58817 0.0
C153 C 0.59365 0.91925 0.55231 0.0
C154 C 0.45429 0.1236 0.57921 0.0
C155 C 0.56273 0.09141 0.55961 0.0
C156 C 0.53906 0.07506 0.43836 0.0
C157 C 0.43906 0.10892 0.48014 0.0
O158 O 0.54009 0.88465 0.45823 0.0
O159 O 0.59854 0.9399 0.46623 0.0
O160 O 0.48476 0.97947 0.4666 0.0
O161 O 0.49269 0.92126 0.49105 0.0
Co162 Co 0.49635 0.53317 0.11671 0.0
Co163 Co 0.47705 0.45481 0.08822 0.0
Co164 Co 0.54409 0.52095 0.0318 0.0
O165 O 0.49371 0.50841 0.06274 0.0
H166 H 0.47207 0.5109 0.04524 0.0
O167 O 0.59533 0.53464 1.00209 0.0
Co168 Co 0.59679 0.50323 0.95442 0.0
Co169 Co 0.60878 0.5809 0.96742 0.0
H170 H 0.61752 0.53753 0.02145 0.0
O171 O 0.42571 0.42779 0.11133 0.0
O172 O 0.47977 0.47655 0.14168 0.0
O173 O 0.51605 0.4272 0.08975 0.0
O174 O 0.56647 0.48487 0.06958 0.0
O175 O 0.51396 0.47003 0.99449 0.0
O176 O 0.60179 0.47209 0.91233 0.0
O177 O 0.64641 0.50247 0.96482 0.0
O178 O 0.54517 0.49978 0.93821 0.0
O179 O 0.52108 0.5564 0.99426 0.0
O180 O 0.56627 0.60146 0.95353 0.0
O181 O 0.61726 0.55527 0.91983 0.0
O182 O 0.66156 0.61178 0.95445 0.0
C183 C 0.45895 0.55311 0.15031 0.0
C184 C 0.57629 0.56858 0.10767 0.0
C185 C 0.55337 0.44809 0.08687 0.0
C186 C 0.44347 0.44968 0.14414 0.0
C187 C 0.63584 0.4777 0.93204 0.0
C188 C 0.51556 0.47201 0.95475 0.0
C189 C 0.53079 0.58545 0.96632 0.0
C190 C 0.65101 0.58761 0.92147 0.0
O191 O 0.49409 0.55577 0.16511 0.0
O192 O 0.44559 0.53392 0.1146 0.0
O193 O 0.57393 0.57189 0.0682 0.0
O194 O 0.5501 0.53806 0.12568 0.0
H195 H 0.27979 0.40526 0.46834 0.0
H196 H 0.20657 0.31163 0.37953 0.0
H197 H 0.14699 0.32617 0.39938 0.0
H198 H 0.11725 0.36947 0.43845 0.0
H199 H 0.19336 0.46887 0.52094 0.0
H200 H 0.25008 0.44761 0.50789 0.0
C201 C 0.25058 0.38761 0.45393 0.0
C202 C 0.24715 0.3573 0.42289 0.0
C203 C 0.21709 0.39724 0.46438 0.0
C204 C 0.20956 0.33507 0.40363 0.0
C205 C 0.17567 0.34343 0.41491 0.0
C206 C 0.14613 0.38616 0.4539 0.0
C207 C 0.1508 0.42033 0.48111 0.0
C208 C 0.17926 0.37506 0.44471 0.0
C209 C 0.18861 0.44204 0.50039 0.0
C210 C 0.22125 0.4301 0.49273 0.0
H211 H 0.64626 0.21156 0.31469 0.0
H212 H 0.70701 0.26489 0.4315 0.0
H213 H 0.66467 0.20258 0.4683 0.0
H214 H 0.60706 0.13547 0.46874 0.0
H215 H 0.54052 0.08603 0.35404 0.0
H216 H 0.58814 0.14423 0.3152 0.0
C217 C 0.65019 0.20981 0.34821 0.0
C218 C 0.68033 0.24314 0.36991 0.0
C219 C 0.62457 0.17441 0.36972 0.0
C220 C 0.68499 0.23959 0.41344 0.0
C221 C 0.66044 0.20401 0.43478 0.0
C222 C 0.6035 0.13696 0.43511 0.0
C223 C 0.57068 0.10627 0.41414 0.0
C224 C 0.62989 0.17146 0.41335 0.0
C225 C 0.56577 0.10919 0.37075 0.0
C226 C 0.59286 0.14255 0.34861 0.0
H227 H 0.80153 0.65497 0.38705 0.0
H228 H 0.87302 0.77211 0.44962 0.0
H229 H 0.91706 0.73727 0.48061 0.0
H230 H 0.93487 0.67278 0.49029 0.0
H231 H 0.86083 0.55551 0.42931 0.0
H232 H 0.81844 0.59108 0.39729 0.0
C233 C 0.82683 0.673 0.4073 0.0
C234 C 0.8342 0.7162 0.41578 0.0
C235 C 0.8517 0.65267 0.42526 0.0
C236 C 0.86686 0.73884 0.44252 0.0
C237 C 0.89204 0.71894 0.46021 0.0
C238 C 0.90971 0.65525 0.46963 0.0
C239 C 0.90126 0.61166 0.4619 0.0
C240 C 0.88481 0.67582 0.45177 0.0
C241 C 0.86805 0.5891 0.43575 0.0
C242 C 0.84373 0.6094 0.41739 0.0
H243 H 0.34755 0.84291 0.32517 0.0
H244 H 0.32788 0.73906 0.41156 0.0
H245 H 0.3764 0.78649 0.46154 0.0
H246 H 0.42709 0.8564 0.47905 0.0
H247 H 0.44547 0.96145 0.39428 0.0
H248 H 0.39459 0.91487 0.34546 0.0
C249 C 0.35377 0.83094 0.35512 0.0
C250 C 0.33433 0.78768 0.36476 0.0
C251 C 0.3815 0.85851 0.38387 0.0
C252 C 0.3423 0.77238 0.40368 0.0
C253 C 0.37017 0.79939 0.43214 0.0
C254 C 0.41978 0.86914 0.44998 0.0
C255 C 0.44027 0.91212 0.44003 0.0
C256 C 0.39033 0.84235 0.42233 0.0
C257 C 0.43009 0.92842 0.4026 0.0
C258 C 0.40114 0.90177 0.37461 0.0
H259 H 0.27403 0.69717 0.63718 0.0
H260 H 0.24005 0.62618 0.75099 0.0
H261 H 0.17501 0.58386 0.71825 0.0
H262 H 0.12943 0.56369 0.65519 0.0
H263 H 0.16545 0.63416 0.54179 0.0
H264 H 0.22728 0.68114 0.5769 0.0
C265 C 0.25218 0.67322 0.6554 0.0
C266 C 0.26225 0.66518 0.69674 0.0
C267 C 0.21485 0.6491 0.63642 0.0
C268 C 0.23357 0.63293 0.71905 0.0
C269 C 0.19617 0.60885 0.7004 0.0
C270 C 0.15031 0.59026 0.63876 0.0
C271 C 0.14261 0.59627 0.59628 0.0
C272 C 0.18662 0.61627 0.65889 0.0
C273 C 0.17048 0.62966 0.57472 0.0
C274 C 0.20599 0.65618 0.59467 0.0
H275 H 0.34116 0.20125 0.67137 0.0
H276 H 0.45131 0.3107 0.6754 0.0
H277 H 0.48427 0.27186 0.63598 0.0
H278 H 0.48343 0.20622 0.60395 0.0
H279 H 0.37457 0.09531 0.59926 0.0
H280 H 0.33949 0.13524 0.63495 0.0
C281 C 0.37223 0.21657 0.66319 0.0
C282 C 0.39393 0.25862 0.67689 0.0
C283 C 0.39136 0.19372 0.6407 0.0
C284 C 0.43417 0.27815 0.66595 0.0
C285 C 0.45304 0.256 0.64331 0.0
C286 C 0.45202 0.19055 0.61071 0.0
C287 C 0.43193 0.1475 0.59954 0.0
C288 C 0.43221 0.21358 0.63126 0.0
C289 C 0.39099 0.12822 0.60797 0.0
C290 C 0.37088 0.15111 0.62833 0.0
H291 H 0.85424 0.32194 0.67214 0.0
H292 H 0.81476 0.41027 0.73822 0.0
H293 H 0.87404 0.46946 0.71775 0.0
H294 H 0.93357 0.49693 0.67598 0.0
H295 H 0.97179 0.4095 0.60671 0.0
H296 H 0.91696 0.34929 0.63402 0.0
C297 C 0.85873 0.35416 0.68208 0.0
C298 C 0.83009 0.36165 0.70659 0.0
C299 C 0.89272 0.38825 0.66974 0.0
C300 C 0.83653 0.40351 0.71972 0.0
C301 C 0.87036 0.43745 0.70787 0.0
C302 C 0.93056 0.46471 0.66754 0.0
C303 C 0.95671 0.45788 0.63913 0.0
C304 C 0.8983 0.43029 0.68234 0.0
C305 C 0.95205 0.41578 0.62844 0.0
C306 C 0.92051 0.38128 0.6438 0.0
H307 H 0.64266 0.7583 0.57699 0.0
H308 H 0.75942 0.8521 0.55471 0.0
H309 H 0.72934 0.90606 0.54089 0.0
H310 H 0.67081 0.92803 0.54233 0.0
H311 H 0.55348 0.83392 0.56099 0.0
H312 H 0.5827 0.77832 0.56884 0.0
C313 C 0.6614 0.79048 0.56877 0.0
C314 C 0.70325 0.80166 0.56775 0.0
C315 C 0.64386 0.82121 0.56063 0.0
C316 C 0.72716 0.84306 0.55607 0.0
C317 C 0.71003 0.87389 0.54834 0.0
C318 C 0.65169 0.89526 0.54792 0.0
C319 C 0.61032 0.88503 0.55216 0.0
C320 C 0.6686 0.8636 0.55176 0.0
C321 C 0.58553 0.84243 0.55809 0.0
C322 C 0.60222 0.81074 0.56266 0.0
H323 H 0.32836 0.21633 0.49985 0.0
H324 H 0.44143 0.31965 0.48773 0.0
H325 H 0.47681 0.26914 0.48995 0.0
H326 H 0.47428 0.19492 0.48678 0.0
H327 H 0.35983 0.09181 0.49059 0.0
H328 H 0.32617 0.1426 0.50016 0.0
C329 C 0.36083 0.2277 0.49861 0.0
C330 C 0.38241 0.27131 0.49358 0.0
C331 C 0.38053 0.1984 0.49757 0.0
C332 C 0.42436 0.28599 0.49148 0.0
C333 C 0.44449 0.25716 0.49251 0.0
C334 C 0.44201 0.18373 0.48989 0.0
C335 C 0.41941 0.13991 0.48724 0.0
C336 C 0.42271 0.21319 0.49405 0.0
C337 C 0.37768 0.12556 0.49159 0.0
C338 C 0.35846 0.15452 0.49735 0.0
H339 H 0.78839 0.34789 0.42929 0.0
H340 H 0.83834 0.39859 0.31142 0.0
H341 H 0.90206 0.44 0.34742 0.0
H342 H 0.94269 0.46439 0.41363 0.0
H343 H 0.8908 0.41188 0.53 0.0
H344 H 0.82948 0.36683 0.49306 0.0
C345 C 0.81336 0.36702 0.41101 0.0
C346 C 0.80827 0.36959 0.36742 0.0
C347 C 0.84996 0.39004 0.43175 0.0
C348 C 0.84095 0.39612 0.34496 0.0
C349 C 0.87762 0.41956 0.36554 0.0
C350 C 0.91835 0.44204 0.43056 0.0
C351 C 0.92136 0.44084 0.47441 0.0
C352 C 0.88245 0.41697 0.40904 0.0
C353 C 0.88924 0.41283 0.49623 0.0
C354 C 0.85406 0.38742 0.47516 0.0
H355 H 0.62781 0.76341 0.36123 0.0
H356 H 0.74728 0.84964 0.39447 0.0
H357 H 0.71909 0.89665 0.4297 0.0
H358 H 0.6595 0.91435 0.44865 0.0
H359 H 0.54113 0.8265 0.41223 0.0
H360 H 0.57003 0.77993 0.37994 0.0
C361 C 0.6479 0.79281 0.37557 0.0
C362 C 0.68966 0.80331 0.37434 0.0
C363 C 0.63159 0.81975 0.39502 0.0
C364 C 0.715 0.84077 0.39471 0.0
C365 C 0.69887 0.8678 0.41466 0.0
C366 C 0.64016 0.88515 0.43342 0.0
C367 C 0.59811 0.8743 0.43278 0.0
C368 C 0.65708 0.85789 0.41458 0.0
C369 C 0.57352 0.83595 0.41334 0.0
C370 C 0.58999 0.80908 0.39476 0.0
H371 H 0.18934 0.70629 0.36764 0.0
H372 H 0.21929 0.61154 0.30023 0.0
H373 H 0.16471 0.55516 0.3316 0.0
H374 H 0.11486 0.532 0.38485 0.0
H375 H 0.08906 0.62549 0.45838 0.0
H376 H 0.13577 0.68283 0.41823 0.0
C377 C 0.18387 0.67333 0.35967 0.0
C378 C 0.20874 0.66353 0.33157 0.0
C379 C 0.15342 0.64063 0.37936 0.0
C380 C 0.20049 0.62051 0.32106 0.0
C381 C 0.16946 0.58799 0.33944 0.0
C382 C 0.11881 0.56486 0.39173 0.0
C383 C 0.09875 0.57437 0.4249 0.0
C384 C 0.14662 0.59762 0.36954 0.0
C385 C 0.10434 0.61722 0.43322 0.0
C386 C 0.13115 0.65005 0.41035 0.0
H387 H 0.35544 0.79021 0.6415 0.0
H388 H 0.4234 0.81852 0.75867 0.0
H389 H 0.46906 0.88482 0.73021 0.0
H390 H 0.49385 0.93116 0.66967 0.0
H391 H 0.42301 0.90505 0.55435 0.0
H392 H 0.37386 0.8424 0.585 0.0
C393 C 0.37947 0.8113 0.66136 0.0
C394 C 0.38638 0.7985 0.70191 0.0
C395 C 0.40537 0.84991 0.64506 0.0
C396 C 0.41798 0.82662 0.72686 0.0
C397 C 0.44409 0.86479 0.71071 0.0
C398 C 0.46727 0.91217 0.65155 0.0
C399 C 0.46244 0.92258 0.60969 0.0
C400 C 0.43882 0.87612 0.66943 0.0
C401 C 0.42759 0.8979 0.58669 0.0
C402 C 0.39949 0.86179 0.6041 0.0
H403 H 0.26511 0.38609 0.68516 0.0
H404 H 0.19899 0.26968 0.61856 0.0
H405 H 0.15303 0.30253 0.58832 0.0
H406 H 0.13255 0.36545 0.57961 0.0
H407 H 0.20157 0.48234 0.6442 0.0
H408 H 0.24513 0.44825 0.67648 0.0
C409 C 0.24051 0.36775 0.66426 0.0
C410 C 0.23529 0.32536 0.65434 0.0
C411 C 0.21459 0.38702 0.64661 0.0
C412 C 0.20351 0.30233 0.62679 0.0
C413 C 0.17723 0.3211 0.60949 0.0
C414 C 0.15682 0.38316 0.60117 0.0
C415 C 0.16359 0.42626 0.60975 0.0
C416 C 0.1825 0.36353 0.61908 0.0
C417 C 0.19568 0.44912 0.63707 0.0
C418 C 0.22067 0.42967 0.65557 0.0
H419 H 0.69568 0.17918 0.69881 0.0
H420 H 0.71096 0.2888 0.62117 0.0
H421 H 0.66066 0.24437 0.57061 0.0
H422 H 0.60867 0.17528 0.55121 0.0
H423 H 0.59481 0.06528 0.6281 0.0
H424 H 0.64816 0.10881 0.6761 0.0
C425 C 0.6882 0.19315 0.67059 0.0
C426 C 0.70679 0.23715 0.66377 0.0
C427 C 0.65926 0.16744 0.64173 0.0
C428 C 0.69723 0.25492 0.62692 0.0
C429 C 0.66826 0.2296 0.59819 0.0
C430 C 0.6175 0.16084 0.57837 0.0
C431 C 0.59745 0.11725 0.58638 0.0
C432 C 0.6485 0.18599 0.60569 0.0
C433 C 0.60968 0.09879 0.62128 0.0
C434 C 0.64012 0.12368 0.64883 0.0
H435 H 0.77991 0.62558 0.59811 0.0
H436 H 0.85498 0.73768 0.66555 0.0
H437 H 0.91501 0.72233 0.64871 0.0
H438 H 0.94497 0.67369 0.61918 0.0
H439 H 0.86819 0.55934 0.55509 0.0
H440 H 0.81012 0.57915 0.56553 0.0
C441 C 0.80959 0.64681 0.60848 0.0
C442 C 0.81358 0.68259 0.63276 0.0
C443 C 0.8435 0.63728 0.59939 0.0
C444 C 0.85172 0.71001 0.64661 0.0
C445 C 0.88583 0.70114 0.63712 0.0
C446 C 0.9156 0.6533 0.60721 0.0
C447 C 0.91104 0.61506 0.58647 0.0
C448 C 0.88197 0.66436 0.61421 0.0
C449 C 0.87272 0.58902 0.5711 0.0
C450 C 0.83935 0.6002 0.57717 0.0
H451 H 0.40012 0.4245 0.33291 0.0
H452 H 0.2925 0.32978 0.28058 0.0
H453 H 0.31619 0.35002 0.20996 0.0
H454 H 0.36964 0.39244 0.16358 0.0
H455 H 0.47664 0.48754 0.21782 0.0
H456 H 0.45084 0.46974 0.287 0.0
C457 C 0.38194 0.40832 0.30596 0.0
C458 C 0.34503 0.3754 0.31165 0.0
C459 C 0.39558 0.42028 0.26582 0.0
C460 C 0.32117 0.35517 0.2767 0.0
C461 C 0.33473 0.36668 0.23645 0.0
C462 C 0.3871 0.40948 0.19051 0.0
C463 C 0.42515 0.44104 0.18537 0.0
C464 C 0.37218 0.39888 0.23065 0.0
C465 C 0.4473 0.46302 0.22065 0.0
C466 C 0.43268 0.45278 0.26041 0.0
H467 H 0.37392 0.60739 0.88636 0.0
H468 H 0.45588 0.66151 0.788 0.0
H469 H 0.51012 0.65084 0.82894 0.0
H470 H 0.53472 0.62569 0.89197 0.0
H471 H 0.45361 0.56915 0.99033 0.0
H472 H 0.39908 0.58167 0.95047 0.0
C473 C 0.40365 0.61665 0.87394 0.0
C474 C 0.41065 0.63529 0.83417 0.0
C475 C 0.4351 0.61038 0.89781 0.0
C476 C 0.4494 0.64721 0.81849 0.0
C477 C 0.48064 0.6412 0.84195 0.0
C478 C 0.5053 0.61657 0.90509 0.0
C479 C 0.49854 0.59683 0.94437 0.0
C480 C 0.47391 0.62298 0.88166 0.0
C481 C 0.45986 0.58462 0.96031 0.0
C482 C 0.42856 0.59159 0.93742 0.0
H483 H 0.37036 0.34284 0.84578 0.0
H484 H 0.46242 0.3801 0.75476 0.0
H485 H 0.51003 0.42577 0.80597 0.0
H486 H 0.52586 0.45556 0.87522 0.0
H487 H 0.43701 0.41945 0.96943 0.0
H488 H 0.38782 0.37257 0.91852 0.0
C489 C 0.40086 0.36106 0.83738 0.0
C490 C 0.41291 0.35786 0.7965 0.0
C491 C 0.4286 0.38726 0.86746 0.0
C492 C 0.45253 0.38154 0.78602 0.0
C493 C 0.47977 0.40779 0.81526 0.0
C494 C 0.49576 0.43753 0.885 0.0
C495 C 0.48516 0.44132 0.92619 0.0
C496 C 0.46816 0.41086 0.85591 0.0
C497 C 0.44605 0.41713 0.938 0.0
C498 C 0.41792 0.39048 0.9088 0.0
H499 H 0.76198 0.39239 0.89081 0.0
H500 H 0.65948 0.30997 0.81861 0.0
H501 H 0.61962 0.35102 0.84055 0.0
H502 H 0.61376 0.41042 0.87936 0.0
H503 H 0.71479 0.49244 0.95358 0.0
H504 H 0.75544 0.45164 0.93154 0.0
C505 C 0.73082 0.38336 0.88021 0.0
C506 C 0.71377 0.34828 0.85317 0.0
C507 C 0.70793 0.40719 0.89298 0.0
C508 C 0.67342 0.33682 0.83947 0.0
C509 C 0.65057 0.36036 0.85189 0.0
C510 C 0.64477 0.41965 0.89054 0.0
C511 C 0.66135 0.45461 0.91779 0.0
C512 C 0.66759 0.39573 0.87836 0.0
C513 C 0.70138 0.46571 0.93246 0.0
C514 C 0.72458 0.44235 0.91994 0.0
H515 H 0.75872 0.67952 0.77267 0.0
H516 H 0.64686 0.61768 0.70401 0.0
H517 H 0.61577 0.58263 0.76761 0.0
H518 H 0.61966 0.57196 0.84285 0.0
H519 H 0.7298 0.63775 0.91302 0.0
H520 H 0.7627 0.66836 0.84854 0.0
C521 C 0.72762 0.65813 0.77173 0.0
C522 C 0.705 0.65115 0.73387 0.0
C523 C 0.70981 0.63872 0.80853 0.0
C524 C 0.66465 0.62378 0.73294 0.0
C525 C 0.64698 0.60361 0.7692 0.0
C526 C 0.65106 0.59248 0.84401 0.0
C527 C 0.67241 0.60239 0.88257 0.0
C528 C 0.66919 0.6111 0.80717 0.0
C529 C 0.71283 0.62963 0.88365 0.0
C530 C 0.73155 0.64722 0.84685 0.0
H531 H 0.71732 0.69197 0.22298 0.0
H532 H 0.61468 0.69682 0.28696 0.0
H533 H 0.56988 0.65373 0.23259 0.0
H534 H 0.55901 0.61179 0.16929 0.0
H535 H 0.6587 0.60157 0.10512 0.0
H536 H 0.70565 0.6503 0.15649 0.0
C537 C 0.68517 0.6836 0.22494 0.0
C538 C 0.66964 0.69822 0.25907 0.0
C539 C 0.65906 0.65793 0.19349 0.0
C540 C 0.62779 0.68711 0.26084 0.0
C541 C 0.60196 0.66208 0.22984 0.0
C542 C 0.5909 0.61992 0.16658 0.0
C543 C 0.6053 0.60259 0.13394 0.0
C544 C 0.6172 0.64697 0.1964 0.0
C545 C 0.64693 0.6147 0.13 0.0
C546 C 0.67367 0.64223 0.15957 0.0
H547 H 0.40788 0.67373 0.26401 0.0
H548 H 0.33105 0.67286 0.15711 0.0
H549 H 0.35257 0.62003 0.1225 0.0
H550 H 0.39732 0.57785 0.1215 0.0
H551 H 0.47127 0.57784 0.23114 0.0
H552 H 0.44603 0.62634 0.26624 0.0
C553 C 0.39583 0.66185 0.23314 0.0
C554 C 0.3686 0.67745 0.2127 0.0
C555 C 0.40756 0.63105 0.21415 0.0
C556 C 0.35239 0.66137 0.17316 0.0
C557 C 0.36463 0.63118 0.1535 0.0
C558 C 0.40714 0.58773 0.15337 0.0
C559 C 0.43654 0.57466 0.17342 0.0
C560 C 0.39263 0.61612 0.17354 0.0
C561 C 0.44903 0.58778 0.21476 0.0
C562 C 0.43476 0.6157 0.23488 0.0
H563 H 0.68516 0.41101 0.20284 0.0
H564 H 0.59512 0.28455 0.19725 0.0
H565 H 0.55299 0.30926 0.15012 0.0
H566 H 0.54036 0.36687 0.11214 0.0
H567 H 0.63066 0.49325 0.11448 0.0
H568 H 0.67411 0.46848 0.16029 0.0
C569 C 0.65633 0.389 0.19126 0.0
C570 C 0.64306 0.34604 0.2039 0.0
C571 C 0.63235 0.40332 0.16325 0.0
C572 C 0.6059 0.31777 0.18813 0.0
C573 C 0.58177 0.33185 0.16112 0.0
C574 C 0.56971 0.38898 0.12229 0.0
C575 C 0.58204 0.4319 0.10984 0.0
C576 C 0.59453 0.37455 0.14862 0.0
C577 C 0.62037 0.45994 0.12322 0.0
C578 C 0.64517 0.44587 0.14977 0.0
loop_
_geom_bond_atom_site_label_1
_geom_bond_atom_site_label_2
_geom_bond_distance
_geom_bond_site_symmetry_2
_ccdc_geom_bond_type
H0 C5 0.930 . S
H1 C8 0.930 . S
H2 C10 0.930 . S
H3 C4 1.016 . S
C4 H3 1.016 . S
C4 N11 1.286 . S
C5 H0 0.930 . S
C5 C6 1.397 . S
C5 C7 1.361 . S
C6 C5 1.397 . S
C6 C10 1.390 . S
C7 C5 1.361 . S
C7 C8 1.393 . S
C7 N11 1.413 . S
C8 H1 0.930 . S
C8 C7 1.393 . S
C8 C9 1.399 . S
C9 C8 1.399 . S
C9 C10 1.381 . S
C10 H2 0.930 . S
C10 C6 1.390 . S
C10 C9 1.381 . S
N11 C4 1.286 . S
N11 C7 1.413 . S
H12 C17 0.930 . S
H13 C20 0.930 . S
H14 C22 0.930 . S
H15 C16 1.016 . S
C16 H15 1.016 . S
C16 N23 1.286 . S
C17 H12 0.930 . S
C17 C18 1.397 . S
C17 C19 1.361 . S
C18 C17 1.397 . S
C18 C22 1.390 . S
C19 C17 1.361 . S
C19 C20 1.393 . S
C19 N23 1.413 . S
C20 H13 0.930 . S
C20 C19 1.393 . S
C20 C21 1.399 . S
C21 C20 1.399 . S
C21 C22 1.381 . S
C22 H14 0.930 . S
C22 C18 1.390 . S
C22 C21 1.381 . S
N23 C16 1.286 . S
N23 C19 1.413 . S
H24 C29 0.930 . S
H25 C32 0.930 . S
H26 C34 0.930 . S
H27 C28 1.016 . S
C28 H27 1.016 . S
C28 N35 1.286 . S
C29 H24 0.930 . S
C29 C30 1.397 . S
C29 C31 1.361 . S
C30 C29 1.397 . S
C30 C34 1.390 . S
C31 C29 1.361 . S
C31 C32 1.393 . S
C31 N35 1.413 . S
C32 H25 0.930 . S
C32 C31 1.393 . S
C32 C33 1.399 . S
C33 C32 1.399 . S
C33 C34 1.381 . S
C34 H26 0.930 . S
C34 C30 1.390 . S
C34 C33 1.381 . S
N35 C28 1.286 . S
N35 C31 1.413 . S
H36 C41 0.930 . S
H37 C44 0.930 . S
H38 C46 0.930 . S
H39 C40 1.016 . S
C40 H39 1.016 . S
C40 N47 1.286 . S
C41 H36 0.930 . S
C41 C42 1.397 . S
C41 C43 1.361 . S
C42 C41 1.397 . S
C42 C46 1.390 . S
C43 C41 1.361 . S
C43 C44 1.393 . S
C43 N47 1.413 . S
C44 H37 0.930 . S
C44 C43 1.393 . S
C44 C45 1.399 . S
C45 C44 1.399 . S
C45 C46 1.381 . S
C46 H38 0.930 . S
C46 C42 1.390 . S
C46 C45 1.381 . S
N47 C40 1.286 . S
N47 C43 1.413 . S
H48 C53 0.930 . S
H49 C56 0.930 . S
H50 C58 0.930 . S
H51 C52 1.016 . S
C52 H51 1.016 . S
C52 N59 1.286 . S
C53 H48 0.930 . S
C53 C54 1.397 . S
C53 C55 1.361 . S
C54 C53 1.397 . S
C54 C58 1.390 . S
C55 C53 1.361 . S
C55 C56 1.393 . S
C55 N59 1.413 . S
C56 H49 0.930 . S
C56 C55 1.393 . S
C56 C57 1.399 . S
C57 C56 1.399 . S
C57 C58 1.381 . S
C58 H50 0.930 . S
C58 C54 1.390 . S
C58 C57 1.381 . S
N59 C52 1.286 . S
N59 C55 1.413 . S
H60 C65 0.930 . S
H61 C68 0.930 . S
H62 C70 0.930 . S
H63 C64 1.016 . S
C64 H63 1.016 . S
C64 N71 1.286 . S
C65 H60 0.930 . S
C65 C66 1.397 . S
C65 C67 1.361 . S
C66 C65 1.397 . S
C66 C70 1.390 . S
C67 C65 1.361 . S
C67 C68 1.393 . S
C67 N71 1.413 . S
C68 H61 0.930 . S
C68 C67 1.393 . S
C68 C69 1.399 . S
C69 C68 1.399 . S
C69 C70 1.381 . S
C70 H62 0.930 . S
C70 C66 1.390 . S
C70 C69 1.381 . S
N71 C64 1.286 . S
N71 C67 1.413 . S
H72 C77 0.930 . S
H73 C80 0.930 . S
H74 C82 0.930 . S
H75 C76 1.016 . S
C76 H75 1.016 . S
C76 N83 1.286 . S
C77 H72 0.930 . S
C77 C78 1.397 . S
C77 C79 1.361 . S
C78 C77 1.397 . S
C78 C82 1.390 . S
C79 C77 1.361 . S
C79 C80 1.393 . S
C79 N83 1.413 . S
C80 H73 0.930 . S
C80 C79 1.393 . S
C80 C81 1.399 . S
C81 C80 1.399 . S
C81 C82 1.381 . S
C82 H74 0.930 . S
C82 C78 1.390 . S
C82 C81 1.381 . S
N83 C76 1.286 . S
N83 C79 1.413 . S
H84 C89 0.930 . S
H85 C92 0.930 . S
H86 C94 0.930 . S
H87 C88 1.016 . S
C88 H87 1.016 . S
C88 N95 1.286 . S
C89 H84 0.930 . S
C89 C90 1.397 . S
C89 C91 1.361 . S
C90 C89 1.397 . S
C90 C94 1.390 . S
C91 C89 1.361 . S
C91 C92 1.393 . S
C91 N95 1.413 . S
C92 H85 0.930 . S
C92 C91 1.393 . S
C92 C93 1.399 . S
C93 C92 1.399 . S
C93 C94 1.381 . S
C94 H86 0.930 . S
C94 C90 1.390 . S
C94 C93 1.381 . S
N95 C88 1.286 . S
N95 C91 1.413 . S
Co96 O99 2.042 . S
Co96 O106 2.264 . S
Co96 O125 2.286 . S
Co96 O126 2.069 . S
Co96 O128 2.015 . S
Co97 O99 2.122 . S
Co97 O105 2.073 . S
Co97 O106 2.327 . S
Co97 O107 1.976 . S
Co98 O99 2.087 . S
Co98 O101 2.087 1_455 S
Co98 O108 2.111 . S
Co98 O109 2.143 1_455 S
Co98 O113 2.111 1_455 S
Co98 O127 2.143 . S
O99 Co96 2.042 . S
O99 Co97 2.122 . S
O99 Co98 2.087 . S
O99 H100 0.980 . S
H100 O99 0.980 . S
O101 Co98 2.087 1_655 S
O101 Co102 2.042 . S
O101 Co103 2.122 . S
O101 H104 0.980 1_655 S
Co102 O101 2.042 . S
Co102 O110 2.286 . S
Co102 O111 2.069 . S
Co102 O112 2.015 . S
Co102 O115 2.264 . S
Co103 O101 2.122 . S
Co103 O114 1.976 . S
Co103 O115 2.327 . S
Co103 O116 2.073 . S
H104 O101 0.980 1_455 S
O105 Co97 2.073 . S
O105 C120 1.245 . S
O106 Co96 2.264 . S
O106 Co97 2.327 . S
O106 C120 1.257 . S
O107 Co97 1.976 . S
O107 C119 1.251 . S
O108 Co98 2.111 . S
O108 C119 1.274 . S
O109 Co98 2.143 1_655 S
O109 C122 1.246 . S
O110 Co102 2.286 . S
O110 C121 1.259 . S
O111 Co102 2.069 . S
O111 C121 1.289 . S
O112 Co102 2.015 . S
O112 C122 1.257 . S
O113 Co98 2.111 1_655 S
O113 C123 1.274 . S
O114 Co103 1.976 . S
O114 C123 1.251 . S
O115 Co102 2.264 . S
O115 Co103 2.327 . S
O115 C124 1.257 . S
O116 Co103 2.073 . S
O116 C124 1.245 . S
C117 O125 1.259 . S
C117 O126 1.289 . S
C118 O127 1.246 . S
C118 O128 1.257 . S
C119 O107 1.251 . S
C119 O108 1.274 . S
C120 O105 1.245 . S
C120 O106 1.257 . S
C121 O110 1.259 . S
C121 O111 1.289 . S
C122 O109 1.246 . S
C122 O112 1.257 . S
C123 O113 1.274 . S
C123 O114 1.251 . S
C124 O115 1.257 . S
C124 O116 1.245 . S
O125 Co96 2.286 . S
O125 C117 1.259 . S
O126 Co96 2.069 . S
O126 C117 1.289 . S
O127 Co98 2.143 . S
O127 C118 1.246 . S
O128 Co96 2.015 . S
O128 C118 1.257 . S
Co129 O132 2.042 . S
Co129 O139 2.264 . S
Co129 O158 2.286 . S
Co129 O159 2.069 . S
Co129 O161 2.015 . S
Co130 O132 2.122 . S
Co130 O138 2.073 . S
Co130 O139 2.327 . S
Co130 O140 1.976 . S
Co131 O132 2.087 1_545 S
Co131 O134 2.087 . S
Co131 O141 2.111 1_545 S
Co131 O142 2.143 . S
Co131 O146 2.111 . S
Co131 O160 2.143 1_545 S
O132 Co129 2.042 . S
O132 Co130 2.122 . S
O132 Co131 2.087 1_565 S
O132 H133 0.980 1_565 S
H133 O132 0.980 1_545 S
O134 Co131 2.087 . S
O134 Co135 2.042 . S
O134 Co136 2.122 . S
O134 H137 0.980 . S
Co135 O134 2.042 . S
Co135 O143 2.286 . S
Co135 O144 2.069 . S
Co135 O145 2.015 . S
Co135 O148 2.264 . S
Co136 O134 2.122 . S
Co136 O147 1.976 . S
Co136 O148 2.327 . S
Co136 O149 2.073 . S
H137 O134 0.980 . S
O138 Co130 2.073 . S
O138 C153 1.245 . S
O139 Co129 2.264 . S
O139 Co130 2.327 . S
O139 C153 1.257 . S
O140 Co130 1.976 . S
O140 C152 1.251 . S
O141 Co131 2.111 1_565 S
O141 C152 1.274 . S
O142 Co131 2.143 . S
O142 C155 1.246 . S
O143 Co135 2.286 . S
O143 C154 1.259 . S
O144 Co135 2.069 . S
O144 C154 1.289 . S
O145 Co135 2.015 . S
O145 C155 1.257 . S
O146 Co131 2.111 . S
O146 C156 1.274 . S
O147 Co136 1.976 . S
O147 C156 1.251 . S
O148 Co135 2.264 . S
O148 Co136 2.327 . S
O148 C157 1.257 . S
O149 Co136 2.073 . S
O149 C157 1.245 . S
C150 O158 1.259 . S
C150 O159 1.289 . S
C151 O160 1.246 . S
C151 O161 1.257 . S
C152 O140 1.251 . S
C152 O141 1.274 . S
C153 O138 1.245 . S
C153 O139 1.257 . S
C154 O143 1.259 . S
C154 O144 1.289 . S
C155 O142 1.246 . S
C155 O145 1.257 . S
C156 O146 1.274 . S
C156 O147 1.251 . S
C157 O148 1.257 . S
C157 O149 1.245 . S
O158 Co129 2.286 . S
O158 C150 1.259 . S
O159 Co129 2.069 . S
O159 C150 1.289 . S
O160 Co131 2.143 1_565 S
O160 C151 1.246 . S
O161 Co129 2.015 . S
O161 C151 1.257 . S
Co162 O165 2.042 . S
Co162 O172 2.264 . S
Co162 O191 2.286 . S
Co162 O192 2.069 . S
Co162 O194 2.015 . S
Co163 O165 2.122 . S
Co163 O171 2.073 . S
Co163 O172 2.327 . S
Co163 O173 1.976 . S
Co164 O165 2.087 . S
Co164 O167 2.087 1_554 S
Co164 O174 2.111 . S
Co164 O175 2.143 1_554 S
Co164 O179 2.111 1_554 S
Co164 O193 2.143 . S
O165 Co162 2.042 . S
O165 Co163 2.122 . S
O165 Co164 2.087 . S
O165 H166 0.980 . S
H166 O165 0.980 . S
O167 Co164 2.087 1_556 S
O167 Co168 2.042 . S
O167 Co169 2.122 . S
O167 H170 0.980 . S
Co168 O167 2.042 . S
Co168 O176 2.286 . S
Co168 O177 2.069 . S
Co168 O178 2.015 . S
Co168 O181 2.264 . S
Co169 O167 2.122 . S
Co169 O180 1.976 . S
Co169 O181 2.327 . S
Co169 O182 2.073 . S
H170 O167 0.980 . S
O171 Co163 2.073 . S
O171 C186 1.245 . S
O172 Co162 2.264 . S
O172 Co163 2.327 . S
O172 C186 1.257 . S
O173 Co163 1.976 . S
O173 C185 1.251 . S
O174 Co164 2.111 . S
O174 C185 1.274 . S
O175 Co164 2.143 1_556 S
O175 C188 1.246 . S
O176 Co168 2.286 . S
O176 C187 1.259 . S
O177 Co168 2.069 . S
O177 C187 1.289 . S
O178 Co168 2.015 . S
O178 C188 1.257 . S
O179 Co164 2.111 1_556 S
O179 C189 1.274 . S
O180 Co169 1.976 . S
O180 C189 1.251 . S
O181 Co168 2.264 . S
O181 Co169 2.327 . S
O181 C190 1.257 . S
O182 Co169 2.073 . S
O182 C190 1.245 . S
C183 O191 1.259 . S
C183 O192 1.289 . S
C184 O193 1.246 . S
C184 O194 1.257 . S
C185 O173 1.251 . S
C185 O174 1.274 . S
C186 O171 1.245 . S
C186 O172 1.257 . S
C187 O176 1.259 . S
C187 O177 1.289 . S
C188 O175 1.246 . S
C188 O178 1.257 . S
C189 O179 1.274 . S
C189 O180 1.251 . S
C190 O181 1.257 . S
C190 O182 1.245 . S
O191 Co162 2.286 . S
O191 C183 1.259 . S
O192 Co162 2.069 . S
O192 C183 1.289 . S
O193 Co164 2.143 . S
O193 C184 1.246 . S
O194 Co162 2.015 . S
O194 C184 1.257 . S
H195 C201 0.930 . S
H196 C204 0.930 . S
H197 C205 0.930 . S
H198 C206 0.930 . S
H199 C209 0.930 . S
H200 C210 0.930 . S
C201 H195 0.930 . S
C201 C202 1.355 . S
C201 C203 1.415 . S
C202 C201 1.355 . S
C202 C204 1.419 . S
C203 C201 1.415 . S
C203 C208 1.425 . S
C203 C210 1.409 . S
C204 H196 0.930 . S
C204 C202 1.419 . S
C204 C205 1.362 . S
C205 H197 0.930 . S
C205 C204 1.362 . S
C205 C208 1.409 . S
C206 H198 0.930 . S
C206 C207 1.355 . S
C206 C208 1.415 . S
C207 C206 1.355 . S
C207 C209 1.419 . S
C208 C203 1.425 . S
C208 C205 1.409 . S
C208 C206 1.415 . S
C209 H199 0.930 . S
C209 C207 1.419 . S
C209 C210 1.362 . S
C210 H200 0.930 . S
C210 C203 1.409 . S
C210 C209 1.362 . S
H211 C217 0.930 . S
H212 C220 0.930 . S
H213 C221 0.930 . S
H214 C222 0.930 . S
H215 C225 0.930 . S
H216 C226 0.930 . S
C217 H211 0.930 . S
C217 C218 1.355 . S
C217 C219 1.415 . S
C218 C217 1.355 . S
C218 C220 1.419 . S
C219 C217 1.415 . S
C219 C224 1.425 . S
C219 C226 1.409 . S
C220 H212 0.930 . S
C220 C218 1.419 . S
C220 C221 1.362 . S
C221 H213 0.930 . S
C221 C220 1.362 . S
C221 C224 1.409 . S
C222 H214 0.930 . S
C222 C223 1.355 . S
C222 C224 1.415 . S
C223 C222 1.355 . S
C223 C225 1.419 . S
C224 C219 1.425 . S
C224 C221 1.409 . S
C224 C222 1.415 . S
C225 H215 0.930 . S
C225 C223 1.419 . S
C225 C226 1.362 . S
C226 H216 0.930 . S
C226 C219 1.409 . S
C226 C225 1.362 . S
H227 C233 0.930 . S
H228 C236 0.930 . S
H229 C237 0.930 . S
H230 C238 0.930 . S
H231 C241 0.930 . S
H232 C242 0.930 . S
C233 H227 0.930 . S
C233 C234 1.355 . S
C233 C235 1.415 . S
C234 C233 1.355 . S
C234 C236 1.419 . S
C235 C233 1.415 . S
C235 C240 1.425 . S
C235 C242 1.409 . S
C236 H228 0.930 . S
C236 C234 1.419 . S
C236 C237 1.362 . S
C237 H229 0.930 . S
C237 C236 1.362 . S
C237 C240 1.409 . S
C238 H230 0.930 . S
C238 C239 1.355 . S
C238 C240 1.415 . S
C239 C238 1.355 . S
C239 C241 1.419 . S
C240 C235 1.425 . S
C240 C237 1.409 . S
C240 C238 1.415 . S
C241 H231 0.930 . S
C241 C239 1.419 . S
C241 C242 1.362 . S
C242 H232 0.930 . S
C242 C235 1.409 . S
C242 C241 1.362 . S
H243 C249 0.930 . S
H244 C252 0.930 . S
H245 C253 0.930 . S
H246 C254 0.930 . S
H247 C257 0.930 . S
H248 C258 0.930 . S
C249 H243 0.930 . S
C249 C250 1.355 . S
C249 C251 1.415 . S
C250 C249 1.355 . S
C250 C252 1.419 . S
C251 C249 1.415 . S
C251 C256 1.425 . S
C251 C258 1.409 . S
C252 H244 0.930 . S
C252 C250 1.419 . S
C252 C253 1.362 . S
C253 H245 0.930 . S
C253 C252 1.362 . S
C253 C256 1.409 . S
C254 H246 0.930 . S
C254 C255 1.355 . S
C254 C256 1.415 . S
C255 C254 1.355 . S
C255 C257 1.419 . S
C256 C251 1.425 . S
C256 C253 1.409 . S
C256 C254 1.415 . S
C257 H247 0.930 . S
C257 C255 1.419 . S
C257 C258 1.362 . S
C258 H248 0.930 . S
C258 C251 1.409 . S
C258 C257 1.362 . S
H259 C265 0.930 . S
H260 C268 0.930 . S
H261 C269 0.930 . S
H262 C270 0.930 . S
H263 C273 0.930 . S
H264 C274 0.930 . S
C265 H259 0.930 . S
C265 C266 1.355 . S
C265 C267 1.415 . S
C266 C265 1.355 . S
C266 C268 1.419 . S
C267 C265 1.415 . S
C267 C272 1.425 . S
C267 C274 1.409 . S
C268 H260 0.930 . S
C268 C266 1.419 . S
C268 C269 1.362 . S
C269 H261 0.930 . S
C269 C268 1.362 . S
C269 C272 1.409 . S
C270 H262 0.930 . S
C270 C271 1.355 . S
C270 C272 1.415 . S
C271 C270 1.355 . S
C271 C273 1.419 . S
C272 C267 1.425 . S
C272 C269 1.409 . S
C272 C270 1.415 . S
C273 H263 0.930 . S
C273 C271 1.419 . S
C273 C274 1.362 . S
C274 H264 0.930 . S
C274 C267 1.409 . S
C274 C273 1.362 . S
H275 C281 0.930 . S
H276 C284 0.930 . S
H277 C285 0.930 . S
H278 C286 0.930 . S
H279 C289 0.930 . S
H280 C290 0.930 . S
C281 H275 0.930 . S
C281 C282 1.355 . S
C281 C283 1.415 . S
C282 C281 1.355 . S
C282 C284 1.419 . S
C283 C281 1.415 . S
C283 C288 1.425 . S
C283 C290 1.409 . S
C284 H276 0.930 . S
C284 C282 1.419 . S
C284 C285 1.362 . S
C285 H277 0.930 . S
C285 C284 1.362 . S
C285 C288 1.409 . S
C286 H278 0.930 . S
C286 C287 1.355 . S
C286 C288 1.415 . S
C287 C286 1.355 . S
C287 C289 1.419 . S
C288 C283 1.425 . S
C288 C285 1.409 . S
C288 C286 1.415 . S
C289 H279 0.930 . S
C289 C287 1.419 . S
C289 C290 1.362 . S
C290 H280 0.930 . S
C290 C283 1.409 . S
C290 C289 1.362 . S
H291 C297 0.930 . S
H292 C300 0.930 . S
H293 C301 0.930 . S
H294 C302 0.930 . S
H295 C305 0.930 . S
H296 C306 0.930 . S
C297 H291 0.930 . S
C297 C298 1.355 . S
C297 C299 1.415 . S
C298 C297 1.355 . S
C298 C300 1.419 . S
C299 C297 1.415 . S
C299 C304 1.425 . S
C299 C306 1.409 . S
C300 H292 0.930 . S
C300 C298 1.419 . S
C300 C301 1.362 . S
C301 H293 0.930 . S
C301 C300 1.362 . S
C301 C304 1.409 . S
C302 H294 0.930 . S
C302 C303 1.355 . S
C302 C304 1.415 . S
C303 C302 1.355 . S
C303 C305 1.419 . S
C304 C299 1.425 . S
C304 C301 1.409 . S
C304 C302 1.415 . S
C305 H295 0.930 . S
C305 C303 1.419 . S
C305 C306 1.362 . S
C306 H296 0.930 . S
C306 C299 1.409 . S
C306 C305 1.362 . S
H307 C313 0.930 . S
H308 C316 0.930 . S
H309 C317 0.930 . S
H310 C318 0.930 . S
H311 C321 0.930 . S
H312 C322 0.930 . S
C313 H307 0.930 . S
C313 C314 1.355 . S
C313 C315 1.415 . S
C314 C313 1.355 . S
C314 C316 1.419 . S
C315 C313 1.415 . S
C315 C320 1.425 . S
C315 C322 1.409 . S
C316 H308 0.930 . S
C316 C314 1.419 . S
C316 C317 1.362 . S
C317 H309 0.930 . S
C317 C316 1.362 . S
C317 C320 1.409 . S
C318 H310 0.930 . S
C318 C319 1.355 . S
C318 C320 1.415 . S
C319 C318 1.355 . S
C319 C321 1.419 . S
C320 C315 1.425 . S
C320 C317 1.409 . S
C320 C318 1.415 . S
C321 H311 0.930 . S
C321 C319 1.419 . S
C321 C322 1.362 . S
C322 H312 0.930 . S
C322 C315 1.409 . S
C322 C321 1.362 . S
H323 C329 0.930 . S
H324 C332 0.930 . S
H325 C333 0.930 . S
H326 C334 0.930 . S
H327 C337 0.930 . S
H328 C338 0.930 . S
C329 H323 0.930 . S
C329 C330 1.355 . S
C329 C331 1.415 . S
C330 C329 1.355 . S
C330 C332 1.419 . S
C331 C329 1.415 . S
C331 C336 1.425 . S
C331 C338 1.409 . S
C332 H324 0.930 . S
C332 C330 1.419 . S
C332 C333 1.362 . S
C333 H325 0.930 . S
C333 C332 1.362 . S
C333 C336 1.409 . S
C334 H326 0.930 . S
C334 C335 1.355 . S
C334 C336 1.415 . S
C335 C334 1.355 . S
C335 C337 1.419 . S
C336 C331 1.425 . S
C336 C333 1.409 . S
C336 C334 1.415 . S
C337 H327 0.930 . S
C337 C335 1.419 . S
C337 C338 1.362 . S
C338 H328 0.930 . S
C338 C331 1.409 . S
C338 C337 1.362 . S
H339 C345 0.930 . S
H340 C348 0.930 . S
H341 C349 0.930 . S
H342 C350 0.930 . S
H343 C353 0.930 . S
H344 C354 0.930 . S
C345 H339 0.930 . S
C345 C346 1.355 . S
C345 C347 1.415 . S
C346 C345 1.355 . S
C346 C348 1.419 . S
C347 C345 1.415 . S
C347 C352 1.425 . S
C347 C354 1.409 . S
C348 H340 0.930 . S
C348 C346 1.419 . S
C348 C349 1.362 . S
C349 H341 0.930 . S
C349 C348 1.362 . S
C349 C352 1.409 . S
C350 H342 0.930 . S
C350 C351 1.355 . S
C350 C352 1.415 . S
C351 C350 1.355 . S
C351 C353 1.419 . S
C352 C347 1.425 . S
C352 C349 1.409 . S
C352 C350 1.415 . S
C353 H343 0.930 . S
C353 C351 1.419 . S
C353 C354 1.362 . S
C354 H344 0.930 . S
C354 C347 1.409 . S
C354 C353 1.362 . S
H355 C361 0.930 . S
H356 C364 0.930 . S
H357 C365 0.930 . S
H358 C366 0.930 . S
H359 C369 0.930 . S
H360 C370 0.930 . S
C361 H355 0.930 . S
C361 C362 1.355 . S
C361 C363 1.415 . S
C362 C361 1.355 . S
C362 C364 1.419 . S
C363 C361 1.415 . S
C363 C368 1.425 . S
C363 C370 1.409 . S
C364 H356 0.930 . S
C364 C362 1.419 . S
C364 C365 1.362 . S
C365 H357 0.930 . S
C365 C364 1.362 . S
C365 C368 1.409 . S
C366 H358 0.930 . S
C366 C367 1.355 . S
C366 C368 1.415 . S
C367 C366 1.355 . S
C367 C369 1.419 . S
C368 C363 1.425 . S
C368 C365 1.409 . S
C368 C366 1.415 . S
C369 H359 0.930 . S
C369 C367 1.419 . S
C369 C370 1.362 . S
C370 H360 0.930 . S
C370 C363 1.409 . S
C370 C369 1.362 . S
H371 C377 0.930 . S
H372 C380 0.930 . S
H373 C381 0.930 . S
H374 C382 0.930 . S
H375 C385 0.930 . S
H376 C386 0.930 . S
C377 H371 0.930 . S
C377 C378 1.355 . S
C377 C379 1.415 . S
C378 C377 1.355 . S
C378 C380 1.419 . S
C379 C377 1.415 . S
C379 C384 1.425 . S
C379 C386 1.409 . S
C380 H372 0.930 . S
C380 C378 1.419 . S
C380 C381 1.362 . S
C381 H373 0.930 . S
C381 C380 1.362 . S
C381 C384 1.409 . S
C382 H374 0.930 . S
C382 C383 1.355 . S
C382 C384 1.415 . S
C383 C382 1.355 . S
C383 C385 1.419 . S
C384 C379 1.425 . S
C384 C381 1.409 . S
C384 C382 1.415 . S
C385 H375 0.930 . S
C385 C383 1.419 . S
C385 C386 1.362 . S
C386 H376 0.930 . S
C386 C379 1.409 . S
C386 C385 1.362 . S
H387 C393 0.930 . S
H388 C396 0.930 . S
H389 C397 0.930 . S
H390 C398 0.930 . S
H391 C401 0.930 . S
H392 C402 0.930 . S
C393 H387 0.930 . S
C393 C394 1.355 . S
C393 C395 1.415 . S
C394 C393 1.355 . S
C394 C396 1.419 . S
C395 C393 1.415 . S
C395 C400 1.425 . S
C395 C402 1.409 . S
C396 H388 0.930 . S
C396 C394 1.419 . S
C396 C397 1.362 . S
C397 H389 0.930 . S
C397 C396 1.362 . S
C397 C400 1.409 . S
C398 H390 0.930 . S
C398 C399 1.355 . S
C398 C400 1.415 . S
C399 C398 1.355 . S
C399 C401 1.419 . S
C400 C395 1.425 . S
C400 C397 1.409 . S
C400 C398 1.415 . S
C401 H391 0.930 . S
C401 C399 1.419 . S
C401 C402 1.362 . S
C402 H392 0.930 . S
C402 C395 1.409 . S
C402 C401 1.362 . S
H403 C409 0.930 . S
H404 C412 0.930 . S
H405 C413 0.930 . S
H406 C414 0.930 . S
H407 C417 0.930 . S
H408 C418 0.930 . S
C409 H403 0.930 . S
C409 C410 1.355 . S
C409 C411 1.415 . S
C410 C409 1.355 . S
C410 C412 1.419 . S
C411 C409 1.415 . S
C411 C416 1.425 . S
C411 C418 1.409 . S
C412 H404 0.930 . S
C412 C410 1.419 . S
C412 C413 1.362 . S
C413 H405 0.930 . S
C413 C412 1.362 . S
C413 C416 1.409 . S
C414 H406 0.930 . S
C414 C415 1.355 . S
C414 C416 1.415 . S
C415 C414 1.355 . S
C415 C417 1.419 . S
C416 C411 1.425 . S
C416 C413 1.409 . S
C416 C414 1.415 . S
C417 H407 0.930 . S
C417 C415 1.419 . S
C417 C418 1.362 . S
C418 H408 0.930 . S
C418 C411 1.409 . S
C418 C417 1.362 . S
H419 C425 0.930 . S
H420 C428 0.930 . S
H421 C429 0.930 . S
H422 C430 0.930 . S
H423 C433 0.930 . S
H424 C434 0.930 . S
C425 H419 0.930 . S
C425 C426 1.355 . S
C425 C427 1.415 . S
C426 C425 1.355 . S
C426 C428 1.419 . S
C427 C425 1.415 . S
C427 C432 1.425 . S
C427 C434 1.409 . S
C428 H420 0.930 . S
C428 C426 1.419 . S
C428 C429 1.362 . S
C429 H421 0.930 . S
C429 C428 1.362 . S
C429 C432 1.409 . S
C430 H422 0.930 . S
C430 C431 1.355 . S
C430 C432 1.415 . S
C431 C430 1.355 . S
C431 C433 1.419 . S
C432 C427 1.425 . S
C432 C429 1.409 . S
C432 C430 1.415 . S
C433 H423 0.930 . S
C433 C431 1.419 . S
C433 C434 1.362 . S
C434 H424 0.930 . S
C434 C427 1.409 . S
C434 C433 1.362 . S
H435 C441 0.930 . S
H436 C444 0.930 . S
H437 C445 0.930 . S
H438 C446 0.930 . S
H439 C449 0.930 . S
H440 C450 0.930 . S
C441 H435 0.930 . S
C441 C442 1.355 . S
C441 C443 1.415 . S
C442 C441 1.355 . S
C442 C444 1.419 . S
C443 C441 1.415 . S
C443 C448 1.425 . S
C443 C450 1.409 . S
C444 H436 0.930 . S
C444 C442 1.419 . S
C444 C445 1.362 . S
C445 H437 0.930 . S
C445 C444 1.362 . S
C445 C448 1.409 . S
C446 H438 0.930 . S
C446 C447 1.355 . S
C446 C448 1.415 . S
C447 C446 1.355 . S
C447 C449 1.419 . S
C448 C443 1.425 . S
C448 C445 1.409 . S
C448 C446 1.415 . S
C449 H439 0.930 . S
C449 C447 1.419 . S
C449 C450 1.362 . S
C450 H440 0.930 . S
C450 C443 1.409 . S
C450 C449 1.362 . S
H451 C457 0.930 . S
H452 C460 0.930 . S
H453 C461 0.930 . S
H454 C462 0.930 . S
H455 C465 0.930 . S
H456 C466 0.930 . S
C457 H451 0.930 . S
C457 C458 1.355 . S
C457 C459 1.415 . S
C458 C457 1.355 . S
C458 C460 1.419 . S
C459 C457 1.415 . S
C459 C464 1.425 . S
C459 C466 1.409 . S
C460 H452 0.930 . S
C460 C458 1.419 . S
C460 C461 1.362 . S
C461 H453 0.930 . S
C461 C460 1.362 . S
C461 C464 1.409 . S
C462 H454 0.930 . S
C462 C463 1.355 . S
C462 C464 1.415 . S
C463 C462 1.355 . S
C463 C465 1.419 . S
C464 C459 1.425 . S
C464 C461 1.409 . S
C464 C462 1.415 . S
C465 H455 0.930 . S
C465 C463 1.419 . S
C465 C466 1.362 . S
C466 H456 0.930 . S
C466 C459 1.409 . S
C466 C465 1.362 . S
H467 C473 0.930 . S
H468 C476 0.930 . S
H469 C477 0.930 . S
H470 C478 0.930 . S
H471 C481 0.930 . S
H472 C482 0.930 . S
C473 H467 0.930 . S
C473 C474 1.355 . S
C473 C475 1.415 . S
C474 C473 1.355 . S
C474 C476 1.419 . S
C475 C473 1.415 . S
C475 C480 1.425 . S
C475 C482 1.409 . S
C476 H468 0.930 . S
C476 C474 1.419 . S
C476 C477 1.362 . S
C477 H469 0.930 . S
C477 C476 1.362 . S
C477 C480 1.409 . S
C478 H470 0.930 . S
C478 C479 1.355 . S
C478 C480 1.415 . S
C479 C478 1.355 . S
C479 C481 1.419 . S
C480 C475 1.425 . S
C480 C477 1.409 . S
C480 C478 1.415 . S
C481 H471 0.930 . S
C481 C479 1.419 . S
C481 C482 1.362 . S
C482 H472 0.930 . S
C482 C475 1.409 . S
C482 C481 1.362 . S
H483 C489 0.930 . S
H484 C492 0.930 . S
H485 C493 0.930 . S
H486 C494 0.930 . S
H487 C497 0.930 . S
H488 C498 0.930 . S
C489 H483 0.930 . S
C489 C490 1.355 . S
C489 C491 1.415 . S
C490 C489 1.355 . S
C490 C492 1.419 . S
C491 C489 1.415 . S
C491 C496 1.425 . S
C491 C498 1.409 . S
C492 H484 0.930 . S
C492 C490 1.419 . S
C492 C493 1.362 . S
C493 H485 0.930 . S
C493 C492 1.362 . S
C493 C496 1.409 . S
C494 H486 0.930 . S
C494 C495 1.355 . S
C494 C496 1.415 . S
C495 C494 1.355 . S
C495 C497 1.419 . S
C496 C491 1.425 . S
C496 C493 1.409 . S
C496 C494 1.415 . S
C497 H487 0.930 . S
C497 C495 1.419 . S
C497 C498 1.362 . S
C498 H488 0.930 . S
C498 C491 1.409 . S
C498 C497 1.362 . S
H499 C505 0.930 . S
H500 C508 0.930 . S
H501 C509 0.930 . S
H502 C510 0.930 . S
H503 C513 0.930 . S
H504 C514 0.930 . S
C505 H499 0.930 . S
C505 C506 1.355 . S
C505 C507 1.415 . S
C506 C505 1.355 . S
C506 C508 1.419 . S
C507 C505 1.415 . S
C507 C512 1.425 . S
C507 C514 1.409 . S
C508 H500 0.930 . S
C508 C506 1.419 . S
C508 C509 1.362 . S
C509 H501 0.930 . S
C509 C508 1.362 . S
C509 C512 1.409 . S
C510 H502 0.930 . S
C510 C511 1.355 . S
C510 C512 1.415 . S
C511 C510 1.355 . S
C511 C513 1.419 . S
C512 C507 1.425 . S
C512 C509 1.409 . S
C512 C510 1.415 . S
C513 H503 0.930 . S
C513 C511 1.419 . S
C513 C514 1.362 . S
C514 H504 0.930 . S
C514 C507 1.409 . S
C514 C513 1.362 . S
H515 C521 0.930 . S
H516 C524 0.930 . S
H517 C525 0.930 . S
H518 C526 0.930 . S
H519 C529 0.930 . S
H520 C530 0.930 . S
C521 H515 0.930 . S
C521 C522 1.355 . S
C521 C523 1.415 . S
C522 C521 1.355 . S
C522 C524 1.419 . S
C523 C521 1.415 . S
C523 C528 1.425 . S
C523 C530 1.409 . S
C524 H516 0.930 . S
C524 C522 1.419 . S
C524 C525 1.362 . S
C525 H517 0.930 . S
C525 C524 1.362 . S
C525 C528 1.409 . S
C526 H518 0.930 . S
C526 C527 1.355 . S
C526 C528 1.415 . S
C527 C526 1.355 . S
C527 C529 1.419 . S
C528 C523 1.425 . S
C528 C525 1.409 . S
C528 C526 1.415 . S
C529 H519 0.930 . S
C529 C527 1.419 . S
C529 C530 1.362 . S
C530 H520 0.930 . S
C530 C523 1.409 . S
C530 C529 1.362 . S
H531 C537 0.930 . S
H532 C540 0.930 . S
H533 C541 0.930 . S
H534 C542 0.930 . S
H535 C545 0.930 . S
H536 C546 0.930 . S
C537 H531 0.930 . S
C537 C538 1.355 . S
C537 C539 1.415 . S
C538 C537 1.355 . S
C538 C540 1.419 . S
C539 C537 1.415 . S
C539 C544 1.425 . S
C539 C546 1.409 . S
C540 H532 0.930 . S
C540 C538 1.419 . S
C540 C541 1.362 . S
C541 H533 0.930 . S
C541 C540 1.362 . S
C541 C544 1.409 . S
C542 H534 0.930 . S
C542 C543 1.355 . S
C542 C544 1.415 . S
C543 C542 1.355 . S
C543 C545 1.419 . S
C544 C539 1.425 . S
C544 C541 1.409 . S
C544 C542 1.415 . S
C545 H535 0.930 . S
C545 C543 1.419 . S
C545 C546 1.362 . S
C546 H536 0.930 . S
C546 C539 1.409 . S
C546 C545 1.362 . S
H547 C553 0.930 . S
H548 C556 0.930 . S
H549 C557 0.930 . S
H550 C558 0.930 . S
H551 C561 0.930 . S
H552 C562 0.930 . S
C553 H547 0.930 . S
C553 C554 1.355 . S
C553 C555 1.415 . S
C554 C553 1.355 . S
C554 C556 1.419 . S
C555 C553 1.415 . S
C555 C560 1.425 . S
C555 C562 1.409 . S
C556 H548 0.930 . S
C556 C554 1.419 . S
C556 C557 1.362 . S
C557 H549 0.930 . S
C557 C556 1.362 . S
C557 C560 1.409 . S
C558 H550 0.930 . S
C558 C559 1.355 . S
C558 C560 1.415 . S
C559 C558 1.355 . S
C559 C561 1.419 . S
C560 C555 1.425 . S
C560 C557 1.409 . S
C560 C558 1.415 . S
C561 H551 0.930 . S
C561 C559 1.419 . S
C561 C562 1.362 . S
C562 H552 0.930 . S
C562 C555 1.409 . S
C562 C561 1.362 . S
H563 C569 0.930 . S
H564 C572 0.930 . S
H565 C573 0.930 . S
H566 C574 0.930 . S
H567 C577 0.930 . S
H568 C578 0.930 . S
C569 H563 0.930 . S
C569 C570 1.355 . S
C569 C571 1.415 . S
C570 C569 1.355 . S
C570 C572 1.419 . S
C571 C569 1.415 . S
C571 C576 1.425 . S
C571 C578 1.409 . S
C572 H564 0.930 . S
C572 C570 1.419 . S
C572 C573 1.362 . S
C573 H565 0.930 . S
C573 C572 1.362 . S
C573 C576 1.409 . S
C574 H566 0.930 . S
C574 C575 1.355 . S
C574 C576 1.415 . S
C575 C574 1.355 . S
C575 C577 1.419 . S
C576 C571 1.425 . S
C576 C573 1.409 . S
C576 C574 1.415 . S
C577 H567 0.930 . S
C577 C575 1.419 . S
C577 C578 1.362 . S
C578 H568 0.930 . S
C578 C571 1.409 . S
C578 C577 1.362 . S
C207 C120 1.432 . S
C202 C6 1.569 . S
C223 C156 1.703 . S
C218 C21 1.829 . S
C239 C121 1.352 . S
C234 C28 1.367 . S
C255 C151 1.173 . S
C250 C45 1.157 . S
C271 C118 1.507 . S
C266 C54 1.620 . S
C282 C69 1.931 . S
C287 C154 1.960 . S
C298 C81 0.738 . S
C303 C123 0.728 . S
C319 C153 1.430 . S
C314 C88 1.519 . S
C335 C157 1.409 . S
C330 C4 1.389 . S
C351 C122 1.535 . S
C346 C18 1.618 . S
C367 C150 1.858 . S
C362 C33 1.831 . S
C383 C119 0.806 . S
C378 C42 0.691 . S
C399 C152 1.833 . S
C394 C57 1.933 . S
C410 C64 1.439 . S
C415 C117 1.386 . S
C426 C78 1.126 . S
C431 C155 1.116 . S
C447 C124 1.504 . S
C442 C93 1.521 . S
C463 C186 1.844 . S
C458 C9 1.963 . S
C474 C52 1.970 . S
C479 C189 1.902 . S
C495 C188 1.890 . S
C490 C66 1.939 . S
C506 C76 1.320 . S
C511 C187 1.317 . S
C527 C190 1.786 . S
C522 C90 1.840 . S
C538 C30 1.880 . S
C543 C184 1.849 . S
C559 C183 1.292 . S
C554 C40 1.349 . S
C570 C16 1.937 . S
C575 C185 1.854 . S
