# Generated by pormake.
# Topology apo, (3,6)-cn, num edge types: 1
# Building blocks:
#     Node 0, Type 0, BuildingBlock: BELTOD_clean_linker_0, # of connection points: 3
#     Node 1, Type 0, BuildingBlock: BELTOD_clean_linker_0, # of connection points: 3
#     Node 2, Type 0, BuildingBlock: BELTOD_clean_linker_0, # of connection points: 3
#     Node 3, Type 0, BuildingBlock: BELTOD_clean_linker_0, # of connection points: 3
#     Node 4, Type 0, BuildingBlock: BELTOD_clean_linker_0, # of connection points: 3
#     Node 5, Type 0, BuildingBlock: BELTOD_clean_linker_0, # of connection points: 3
#     Node 6, Type 0, BuildingBlock: BELTOD_clean_linker_0, # of connection points: 3
#     Node 7, Type 0, BuildingBlock: BELTOD_clean_linker_0, # of connection points: 3
#     Node 8, Type 1, BuildingBlock: KUMBOL_clean_sbu_1, # of connection points: 6
#     Node 9, Type 1, BuildingBlock: KUMBOL_clean_sbu_1, # of connection points: 6
#     Node 10, Type 1, BuildingBlock: KUMBOL_clean_sbu_1, # of connection points: 6
#     Node 11, Type 1, BuildingBlock: KUMBOL_clean_sbu_1, # of connection points: 6
#     Edge 12, Type (0, 1), BuildingBlock: MIFKUJ_clean_linker_0, # of connection points: 2
#     Edge 13, Type (0, 1), BuildingBlock: MIFKUJ_clean_linker_0, # of connection points: 2
#     Edge 14, Type (0, 1), BuildingBlock: MIFKUJ_clean_linker_0, # of connection points: 2
#     Edge 15, Type (0, 1), BuildingBlock: MIFKUJ_clean_linker_0, # of connection points: 2
#     Edge 16, Type (0, 1), BuildingBlock: MIFKUJ_clean_linker_0, # of connection points: 2
#     Edge 17, Type (0, 1), BuildingBlock: MIFKUJ_clean_linker_0, # of connection points: 2
#     Edge 18, Type (0, 1), BuildingBlock: MIFKUJ_clean_linker_0, # of connection points: 2
#     Edge 19, Type (0, 1), BuildingBlock: MIFKUJ_clean_linker_0, # of connection points: 2
#     Edge 20, Type (0, 1), BuildingBlock: MIFKUJ_clean_linker_0, # of connection points: 2
#     Edge 21, Type (0, 1), BuildingBlock: MIFKUJ_clean_linker_0, # of connection points: 2
#     Edge 22, Type (0, 1), BuildingBlock: MIFKUJ_clean_linker_0, # of connection points: 2
#     Edge 23, Type (0, 1), BuildingBlock: MIFKUJ_clean_linker_0, # of connection points: 2
#     Edge 24, Type (0, 1), BuildingBlock: MIFKUJ_clean_linker_0, # of connection points: 2
#     Edge 25, Type (0, 1), BuildingBlock: MIFKUJ_clean_linker_0, # of connection points: 2
#     Edge 26, Type (0, 1), BuildingBlock: MIFKUJ_clean_linker_0, # of connection points: 2
#     Edge 27, Type (0, 1), BuildingBlock: MIFKUJ_clean_linker_0, # of connection points: 2
#     Edge 28, Type (0, 1), BuildingBlock: MIFKUJ_clean_linker_0, # of connection points: 2
#     Edge 29, Type (0, 1), BuildingBlock: MIFKUJ_clean_linker_0, # of connection points: 2
#     Edge 30, Type (0, 1), BuildingBlock: MIFKUJ_clean_linker_0, # of connection points: 2
#     Edge 31, Type (0, 1), BuildingBlock: MIFKUJ_clean_linker_0, # of connection points: 2
#     Edge 32, Type (0, 1), BuildingBlock: MIFKUJ_clean_linker_0, # of connection points: 2
#     Edge 33, Type (0, 1), BuildingBlock: MIFKUJ_clean_linker_0, # of connection points: 2
#     Edge 34, Type (0, 1), BuildingBlock: MIFKUJ_clean_linker_0, # of connection points: 2
#     Edge 35, Type (0, 1), BuildingBlock: MIFKUJ_clean_linker_0, # of connection points: 2
# Relax obj value: 0.010
# Max RMSD: 0.099
# Mean RMSD: 0.073
data_MOF--net-apo--node1-KUMBOL_clean_sbu_1--node2-BELTOD_clean_linker_0--edge1-MIFKUJ_clean_linker_0
_symmetry_space_group_name_H-M    P1
_symmetry_Int_Tables_number       1
_symmetry_cell_setting            triclinic
loop_
_symmetry_equiv_pos_as_xyz
'x, y, z'
_cell_length_a     34.618824
_cell_length_b     61.375969
_cell_length_c     73.574476
_cell_angle_alpha  89.69669
_cell_angle_beta   90.004559
_cell_angle_gamma 90.260878
loop_
_atom_site_label
_atom_site_type_symbol
_atom_site_fract_x
_atom_site_fract_y
_atom_site_fract_z
_atom_type_partial_charge
P0 P 0.35603 0.35559 0.40708 0.0
H1 H 0.38643 0.32745 0.43557 0.0
H2 H 0.3865 0.32977 0.46868 0.0
H3 H 0.31602 0.38762 0.46552 0.0
H4 H 0.31652 0.38527 0.43226 0.0
H5 H 0.3583 0.31189 0.39169 0.0
H6 H 0.30982 0.28903 0.37719 0.0
H7 H 0.22315 0.33793 0.3875 0.0
H8 H 0.27206 0.36052 0.40265 0.0
H9 H 0.395 0.3959 0.4171 0.0
H10 H 0.3198 0.37401 0.37408 0.0
O11 O 0.39896 0.34493 0.40203 0.0
H12 H 0.40245 0.43113 0.40171 0.0
H13 H 0.32673 0.40923 0.35884 0.0
C14 C 0.35228 0.35648 0.43148 0.0
C15 C 0.37085 0.34058 0.442 0.0
C16 C 0.37063 0.34185 0.46096 0.0
C17 C 0.35156 0.359 0.46978 0.0
C18 C 0.33158 0.37443 0.45915 0.0
C19 C 0.33172 0.37308 0.44015 0.0
C20 C 0.31894 0.33813 0.39787 0.0
C21 C 0.32887 0.31771 0.39093 0.0
C22 C 0.30107 0.30467 0.38252 0.0
C23 C 0.26267 0.3118 0.38081 0.0
C24 C 0.25241 0.3319 0.38857 0.0
C25 C 0.28034 0.34489 0.39715 0.0
C26 C 0.35596 0.38249 0.39706 0.0
C27 C 0.37932 0.39884 0.40459 0.0
C28 C 0.38382 0.41889 0.39572 0.0
C29 C 0.36504 0.42295 0.37911 0.0
C30 C 0.34102 0.4067 0.37177 0.0
C31 C 0.33693 0.38654 0.38055 0.0
P32 P 0.27719 0.10163 0.91945 0.0
H33 H 0.30019 0.07511 0.88882 0.0
H34 H 0.26511 0.05044 0.8688 0.0
H35 H 0.15868 0.06612 0.89652 0.0
H36 H 0.19384 0.09176 0.91573 0.0
H37 H 0.34653 0.11243 0.89902 0.0
H38 H 0.36739 0.14454 0.88226 0.0
H39 H 0.26079 0.17684 0.89647 0.0
H40 H 0.23906 0.14376 0.91217 0.0
H41 H 0.23447 0.07247 0.94339 0.0
H42 H 0.26856 0.14016 0.94325 0.0
O43 O 0.31706 0.0879 0.92496 0.0
H44 H 0.20623 0.07683 0.9736 0.0
H45 H 0.23968 0.14466 0.97329 0.0
C46 C 0.24983 0.08475 0.90411 0.0
C47 C 0.26925 0.0733 0.89051 0.0
C48 C 0.24913 0.05904 0.87915 0.0
C49 C 0.20906 0.05582 0.88124 0.0
C50 C 0.18945 0.06812 0.89444 0.0
C51 C 0.20962 0.08265 0.90563 0.0
C52 C 0.29188 0.126 0.90745 0.0
C53 C 0.32771 0.12647 0.89864 0.0
C54 C 0.33977 0.14501 0.88913 0.0
C55 C 0.31633 0.16369 0.88828 0.0
C56 C 0.27977 0.16288 0.89674 0.0
C57 C 0.26742 0.14406 0.90597 0.0
C58 C 0.25219 0.10619 0.94063 0.0
C59 C 0.23496 0.08842 0.94962 0.0
C60 C 0.21914 0.09087 0.96695 0.0
C61 C 0.22045 0.11113 0.97571 0.0
C62 C 0.23755 0.12897 0.96669 0.0
C63 C 0.25385 0.12642 0.94941 0.0
P64 P 0.8603 0.14844 0.59782 0.0
H65 H 0.8796 0.18042 0.57013 0.0
H66 H 0.87667 0.18016 0.53707 0.0
H67 H 0.82297 0.11643 0.5388 0.0
H68 H 0.82715 0.11663 0.57208 0.0
H69 H 0.85957 0.16858 0.6333 0.0
H70 H 0.81314 0.19155 0.64906 0.0
H71 H 0.73499 0.18632 0.60348 0.0
H72 H 0.78171 0.163 0.58781 0.0
H73 H 0.92066 0.11584 0.59734 0.0
H74 H 0.80499 0.12119 0.61853 0.0
O75 O 0.90294 0.1602 0.60198 0.0
H76 H 0.92779 0.08051 0.61241 0.0
H77 H 0.81208 0.08588 0.63387 0.0
C78 C 0.85416 0.14844 0.57351 0.0
C79 C 0.86709 0.16641 0.5634 0.0
C80 C 0.86511 0.16629 0.54445 0.0
C81 C 0.84967 0.14823 0.53518 0.0
C82 C 0.83563 0.13044 0.54546 0.0
C83 C 0.83777 0.13058 0.56449 0.0
C84 C 0.8244 0.16449 0.60927 0.0
C85 C 0.83247 0.1724 0.62668 0.0
C86 C 0.80595 0.1856 0.63564 0.0
C87 C 0.77059 0.19105 0.62741 0.0
C88 C 0.76197 0.18243 0.61018 0.0
C89 C 0.78871 0.16921 0.60117 0.0
C90 C 0.86265 0.12129 0.60712 0.0
C91 C 0.89672 0.10933 0.60517 0.0
C92 C 0.90082 0.0892 0.61387 0.0
C93 C 0.87073 0.08057 0.62459 0.0
C94 C 0.83577 0.0921 0.62572 0.0
C95 C 0.83176 0.11233 0.61703 0.0
P96 P 0.7477 0.39015 0.08462 0.0
H97 H 0.7742 0.41529 0.11543 0.0
H98 H 0.74277 0.44133 0.13557 0.0
H99 H 0.63462 0.43068 0.10762 0.0
H100 H 0.6663 0.4045 0.08755 0.0
H101 H 0.81503 0.36206 0.08142 0.0
H102 H 0.83787 0.33092 0.09911 0.0
H103 H 0.73468 0.33346 0.13209 0.0
H104 H 0.71237 0.36495 0.11446 0.0
H105 H 0.71092 0.41764 0.05738 0.0
H106 H 0.7266 0.34882 0.06673 0.0
O107 O 0.78764 0.40313 0.07779 0.0
H108 H 0.68171 0.40992 0.02781 0.0
H109 H 0.69735 0.34099 0.03724 0.0
C110 C 0.72281 0.40831 0.09978 0.0
C111 C 0.74369 0.41851 0.11368 0.0
C112 C 0.72562 0.43328 0.12526 0.0
C113 C 0.68623 0.43816 0.12313 0.0
C114 C 0.66513 0.42749 0.10942 0.0
C115 C 0.68322 0.41253 0.09794 0.0
C116 C 0.76244 0.36608 0.09689 0.0
C117 C 0.79728 0.35588 0.09244 0.0
C118 C 0.81015 0.33794 0.10248 0.0
C119 C 0.78825 0.32974 0.11713 0.0
C120 C 0.75259 0.33958 0.12112 0.0
C121 C 0.73972 0.35754 0.11101 0.0
C122 C 0.72058 0.38384 0.06436 0.0
C123 C 0.70731 0.40084 0.05323 0.0
C124 C 0.69055 0.3964 0.03635 0.0
C125 C 0.68725 0.37483 0.03015 0.0
C126 C 0.69978 0.35779 0.04155 0.0
C127 C 0.71631 0.36225 0.0585 0.0
P128 P 0.77634 0.60337 0.58513 0.0
H129 H 0.80405 0.62376 0.55184 0.0
H130 H 0.77445 0.63003 0.52211 0.0
H131 H 0.66679 0.60335 0.54225 0.0
H132 H 0.69634 0.59772 0.57204 0.0
H133 H 0.81404 0.60742 0.62001 0.0
H134 H 0.83224 0.63849 0.63873 0.0
H135 H 0.7825 0.68214 0.59889 0.0
H136 H 0.76326 0.65079 0.58049 0.0
H137 H 0.76952 0.55613 0.58304 0.0
H138 H 0.72156 0.60766 0.61548 0.0
O139 O 0.8184 0.59181 0.57989 0.0
H140 H 0.735 0.5291 0.60144 0.0
H141 H 0.68786 0.58073 0.63434 0.0
C142 C 0.75257 0.61004 0.56405 0.0
C143 C 0.77396 0.61947 0.54987 0.0
C144 C 0.75706 0.6229 0.53285 0.0
C145 C 0.71835 0.61693 0.52969 0.0
C146 C 0.69657 0.60825 0.54421 0.0
C147 C 0.71353 0.60489 0.56126 0.0
C148 C 0.78738 0.62678 0.59888 0.0
C149 C 0.80684 0.62368 0.61536 0.0
C150 C 0.8175 0.64149 0.62598 0.0
C151 C 0.80922 0.66287 0.62024 0.0
C152 C 0.78909 0.66591 0.60379 0.0
C153 C 0.77826 0.64798 0.59318 0.0
C154 C 0.74883 0.58382 0.59818 0.0
C155 C 0.75168 0.5616 0.5942 0.0
C156 C 0.73208 0.54617 0.6048 0.0
C157 C 0.7091 0.55269 0.61956 0.0
C158 C 0.70519 0.57511 0.62306 0.0
C159 C 0.72472 0.59054 0.61238 0.0
P160 P 0.83292 0.86566 0.09606 0.0
H161 H 0.85067 0.87835 0.13306 0.0
H162 H 0.85826 0.91361 0.14794 0.0
H163 H 0.82953 0.94621 0.09756 0.0
H164 H 0.82201 0.91079 0.08274 0.0
H165 H 0.80639 0.82159 0.0886 0.0
H166 H 0.75657 0.79852 0.1025 0.0
H167 H 0.71816 0.85311 0.13451 0.0
H168 H 0.76796 0.87601 0.12062 0.0
H169 H 0.89783 0.87013 0.07134 0.0
H170 H 0.77371 0.86753 0.06724 0.0
O171 O 0.87144 0.85148 0.10276 0.0
H172 H 0.9029 0.87373 0.03839 0.0
H173 H 0.77849 0.87087 0.03404 0.0
C174 C 0.83623 0.89195 0.10678 0.0
C175 C 0.84585 0.8931 0.12524 0.0
C176 C 0.8499 0.91326 0.13375 0.0
C177 C 0.84452 0.93272 0.12392 0.0
C178 C 0.83424 0.93151 0.10545 0.0
C179 C 0.82987 0.91126 0.09697 0.0
C180 C 0.79114 0.85046 0.10363 0.0
C181 C 0.78672 0.82869 0.09834 0.0
C182 C 0.75818 0.81553 0.10629 0.0
C183 C 0.73365 0.82391 0.11977 0.0
C184 C 0.73702 0.84606 0.12439 0.0
C185 C 0.76546 0.85922 0.11637 0.0
C186 C 0.83546 0.86808 0.07167 0.0
C187 C 0.87164 0.87011 0.06329 0.0
C188 C 0.87449 0.8721 0.04443 0.0
C189 C 0.84112 0.87232 0.03353 0.0
C190 C 0.80474 0.87079 0.04204 0.0
C191 C 0.80195 0.86873 0.06098 0.0
P192 P 0.26429 0.89433 0.41947 0.0
H193 H 0.29631 0.88173 0.45443 0.0
H194 H 0.26726 0.87298 0.48372 0.0
H195 H 0.1536 0.87768 0.45965 0.0
H196 H 0.18323 0.88716 0.43038 0.0
H197 H 0.32988 0.88879 0.3953 0.0
H198 H 0.35193 0.85863 0.37657 0.0
H199 H 0.2538 0.82012 0.39399 0.0
H200 H 0.23172 0.85061 0.41278 0.0
H201 H 0.24227 0.93922 0.42563 0.0
H202 H 0.21777 0.88949 0.38605 0.0
O203 O 0.3037 0.90857 0.42507 0.0
H204 H 0.20508 0.96547 0.40787 0.0
H205 H 0.17971 0.91552 0.36835 0.0
C206 C 0.24193 0.88549 0.44035 0.0
C207 C 0.26514 0.88079 0.45544 0.0
C208 C 0.2484 0.87559 0.47218 0.0
C209 C 0.20797 0.8747 0.47415 0.0
C210 C 0.18478 0.8786 0.45873 0.0
C211 C 0.20166 0.88391 0.44196 0.0
C212 C 0.27968 0.87174 0.40575 0.0
C213 C 0.31322 0.87381 0.39522 0.0
C214 C 0.32586 0.85653 0.38453 0.0
C215 C 0.30489 0.83687 0.38396 0.0
C216 C 0.27058 0.83505 0.39415 0.0
C217 C 0.25807 0.85238 0.40497 0.0
C218 C 0.23334 0.91256 0.407 0.0
C219 C 0.22851 0.93391 0.41318 0.0
C220 C 0.20697 0.94886 0.40306 0.0
C221 C 0.18957 0.94267 0.38658 0.0
C222 C 0.19329 0.92094 0.3808 0.0
C223 C 0.21494 0.90599 0.39095 0.0
P224 P 0.34531 0.64331 0.90466 0.0
H225 H 0.38546 0.62984 0.87184 0.0
H226 H 0.39276 0.59479 0.85676 0.0
H227 H 0.32221 0.56421 0.89816 0.0
H228 H 0.31516 0.59947 0.91328 0.0
H229 H 0.29748 0.67807 0.91985 0.0
H230 H 0.24641 0.70062 0.90684 0.0
H231 H 0.25379 0.66426 0.85678 0.0
H232 H 0.30327 0.64129 0.87017 0.0
H233 H 0.40712 0.64404 0.93145 0.0
H234 H 0.28365 0.63465 0.93139 0.0
O235 O 0.38363 0.65854 0.8991 0.0
H236 H 0.4081 0.64071 0.96448 0.0
H237 H 0.28438 0.63085 0.96458 0.0
C238 C 0.3504 0.61719 0.89386 0.0
C239 C 0.37171 0.61559 0.87774 0.0
C240 C 0.37556 0.59556 0.86903 0.0
C241 C 0.35809 0.5767 0.87627 0.0
C242 C 0.33639 0.5784 0.89238 0.0
C243 C 0.33232 0.59854 0.90102 0.0
C244 C 0.30349 0.65755 0.89621 0.0
C245 C 0.28724 0.67454 0.90628 0.0
C246 C 0.25837 0.68765 0.89869 0.0
C247 C 0.2458 0.68433 0.88071 0.0
C248 C 0.26196 0.66706 0.87078 0.0
C249 C 0.29051 0.65388 0.87844 0.0
C250 C 0.3452 0.64013 0.92903 0.0
C251 C 0.38016 0.64125 0.93857 0.0
C252 C 0.38072 0.63912 0.95748 0.0
C253 C 0.34629 0.6356 0.96723 0.0
C254 C 0.31133 0.63392 0.95753 0.0
C255 C 0.31085 0.63604 0.93856 0.0
C256 C 0.87452 0.11657 0.25821 0.0
C257 C 0.87509 0.082 0.27438 0.0
C258 C 0.89274 0.10217 0.27011 0.0
C259 C 0.83999 0.07622 0.26607 0.0
C260 C 0.83908 0.1109 0.25001 0.0
C261 C 0.8221 0.09059 0.25388 0.0
N262 N 0.89204 0.13591 0.25431 0.0
C263 C 0.87471 0.15083 0.24321 0.0
C264 C 0.82173 0.12586 0.23814 0.0
C265 C 0.83948 0.14597 0.23486 0.0
Gd266 Gd 0.04573 0.13764 0.23659 0.0
Gd267 Gd 0.95062 0.14267 0.26922 0.0
N268 N 0.92729 0.10794 0.27761 0.0
C269 C 0.89304 0.06829 0.28702 0.0
C270 C 0.94306 0.09538 0.29104 0.0
C271 C 0.92683 0.07519 0.29561 0.0
H272 H 0.96726 0.10111 0.29883 0.0
H273 H 0.93997 0.06517 0.30604 0.0
H274 H 0.03016 0.18832 0.21945 0.0
H275 H 0.88793 0.16653 0.24096 0.0
H276 H 0.06356 0.22358 0.2182 0.0
H277 H 0.88041 0.05269 0.29067 0.0
H278 H 0.82627 0.06071 0.26908 0.0
H279 H 0.10712 0.10314 0.2561 0.0
H280 H 0.79441 0.12216 0.23165 0.0
H281 H 0.82591 0.15781 0.22601 0.0
H282 H 0.18454 0.2105 0.24789 0.0
H283 H 0.795 0.0859 0.24761 0.0
H284 H 0.21056 0.13811 0.26929 0.0
H285 H 0.17296 0.10371 0.26886 0.0
N286 N 0.10718 0.13685 0.24966 0.0
C287 C 0.12756 0.15583 0.24924 0.0
C288 C 0.123 0.11828 0.25654 0.0
C289 C 0.18157 0.13798 0.26373 0.0
C290 C 0.16039 0.11855 0.26366 0.0
C291 C 0.16529 0.15693 0.2564 0.0
H292 H 0.21447 0.178 0.26148 0.0
N293 N 0.07376 0.17264 0.23504 0.0
C294 C 0.1104 0.17423 0.24171 0.0
C295 C 0.11362 0.21204 0.2326 0.0
C296 C 0.131 0.19409 0.24096 0.0
C297 C 0.0574 0.18992 0.22625 0.0
C298 C 0.07676 0.20992 0.22515 0.0
O299 O 0.94361 0.12501 0.24225 0.0
O300 O 0.00334 0.10997 0.23768 0.0
O301 O 0.05171 0.14061 0.20716 0.0
O302 O 0.08278 0.11559 0.22174 0.0
O303 O 0.00405 0.12597 0.28069 0.0
O304 O 0.03335 0.10972 0.25593 0.0
O305 O 0.05346 0.1542 0.26382 0.0
O306 O 0.9945 0.17002 0.26872 0.0
O307 O 0.94008 0.1464 0.2986 0.0
O308 O 0.90676 0.16479 0.27853 0.0
O309 O 0.99277 0.15466 0.22518 0.0
O310 O 0.9628 0.17036 0.24988 0.0
C311 C 0.96657 0.11136 0.23387 0.0
C312 C 0.02687 0.11108 0.27356 0.0
C313 C 0.11241 0.12998 0.1953 0.0
C314 C 0.14468 0.1312 0.16578 0.0
C315 C 0.18093 0.13846 0.19338 0.0
C316 C 0.14768 0.13511 0.20374 0.0
C317 C 0.17957 0.13639 0.17453 0.0
C318 C 0.11096 0.1283 0.17624 0.0
C319 C 0.07752 0.12529 0.20618 0.0
C320 C 0.16843 0.19533 0.24826 0.0
C321 C 0.18551 0.17681 0.25598 0.0
H322 H 0.12887 0.2274 0.23135 0.0
C323 C 0.03158 0.16847 0.27212 0.0
C324 C 0.96874 0.16888 0.23228 0.0
C325 C 0.88992 0.17129 0.30993 0.0
C326 C 0.87149 0.17615 0.34179 0.0
C327 C 0.84071 0.19763 0.318 0.0
C328 C 0.86311 0.18738 0.30491 0.0
C329 C 0.84469 0.19206 0.33627 0.0
C330 C 0.89403 0.16569 0.32845 0.0
C331 C 0.91265 0.16044 0.29558 0.0
H332 H 0.20797 0.14238 0.20002 0.0
H333 H 0.14983 0.13614 0.21832 0.0
H334 H 0.20582 0.13883 0.16675 0.0
H335 H 0.08399 0.12404 0.16963 0.0
H336 H 0.81997 0.20988 0.31396 0.0
H337 H 0.85924 0.19203 0.29081 0.0
H338 H 0.82627 0.20004 0.34607 0.0
H339 H 0.91478 0.15341 0.33246 0.0
C340 C 0.62092 0.38461 0.75756 0.0
C341 C 0.61831 0.42011 0.77181 0.0
C342 C 0.60187 0.39939 0.76862 0.0
C343 C 0.65283 0.42609 0.76304 0.0
C344 C 0.65583 0.39045 0.74891 0.0
C345 C 0.67146 0.41133 0.75158 0.0
N346 N 0.60458 0.36469 0.75481 0.0
C347 C 0.6223 0.34956 0.74419 0.0
C348 C 0.67369 0.37521 0.73763 0.0
C349 C 0.65686 0.35469 0.73527 0.0
Gd350 Gd 0.45069 0.36375 0.73656 0.0
Gd351 Gd 0.54538 0.35809 0.76934 0.0
N352 N 0.56813 0.39326 0.77675 0.0
C353 C 0.60016 0.43398 0.78415 0.0
C354 C 0.55256 0.40596 0.79003 0.0
C355 C 0.56757 0.42669 0.79356 0.0
H356 H 0.52947 0.4 0.79847 0.0
H357 H 0.5545 0.43683 0.80384 0.0
H358 H 0.4707 0.31944 0.7102 0.0
H359 H 0.60957 0.3336 0.74254 0.0
H360 H 0.44605 0.2824 0.70608 0.0
H361 H 0.61198 0.44996 0.78708 0.0
H362 H 0.66567 0.44199 0.76523 0.0
H363 H 0.38583 0.38915 0.76219 0.0
H364 H 0.7004 0.37914 0.73064 0.0
H365 H 0.67044 0.34289 0.72651 0.0
H366 H 0.33026 0.28004 0.74162 0.0
H367 H 0.69812 0.41617 0.74495 0.0
H368 H 0.29221 0.34493 0.77265 0.0
H369 H 0.32244 0.38124 0.77637 0.0
N370 N 0.39113 0.35762 0.75074 0.0
C371 C 0.37476 0.33769 0.74816 0.0
C372 C 0.37277 0.37326 0.76057 0.0
C373 C 0.31989 0.34834 0.76635 0.0
C374 C 0.33691 0.36885 0.76854 0.0
C375 C 0.3388 0.33245 0.75609 0.0
H376 H 0.29566 0.30714 0.75985 0.0
N377 N 0.42947 0.32788 0.73051 0.0
C378 C 0.39481 0.32229 0.73809 0.0
C379 C 0.39807 0.28669 0.72428 0.0
C380 C 0.37856 0.30141 0.73539 0.0
C381 C 0.44656 0.31421 0.71834 0.0
C382 C 0.43182 0.29327 0.71545 0.0
O383 O 0.55237 0.37518 0.74211 0.0
O384 O 0.49361 0.39149 0.73771 0.0
O385 O 0.44093 0.36624 0.70702 0.0
O386 O 0.40784 0.38596 0.72606 0.0
O387 O 0.49251 0.37519 0.78084 0.0
O388 O 0.4625 0.39126 0.75602 0.0
O389 O 0.44269 0.34766 0.76421 0.0
O390 O 0.50112 0.33135 0.76714 0.0
O391 O 0.55249 0.35372 0.79879 0.0
O392 O 0.58832 0.33562 0.77961 0.0
O393 O 0.50471 0.34798 0.72486 0.0
O394 O 0.53206 0.33094 0.74976 0.0
C395 C 0.5309 0.39044 0.73478 0.0
C396 C 0.46943 0.38997 0.77361 0.0
C397 C 0.39249 0.39132 0.69426 0.0
C398 C 0.37745 0.39583 0.66195 0.0
C399 C 0.34618 0.41863 0.68446 0.0
C400 C 0.36644 0.40813 0.69829 0.0
C401 C 0.35164 0.4126 0.66642 0.0
C402 C 0.39771 0.38509 0.676 0.0
C403 C 0.41421 0.38086 0.70924 0.0
C404 C 0.34297 0.29605 0.74346 0.0
C405 C 0.32315 0.31151 0.75378 0.0
H406 H 0.38653 0.27052 0.72186 0.0
C407 C 0.46518 0.33341 0.77221 0.0
C408 C 0.52777 0.33321 0.73209 0.0
C409 C 0.59972 0.32815 0.81154 0.0
C410 C 0.6151 0.32425 0.84385 0.0
C411 C 0.63954 0.29811 0.822 0.0
C412 C 0.6214 0.30937 0.80792 0.0
C413 C 0.63643 0.30543 0.83984 0.0
C414 C 0.5967 0.33558 0.82957 0.0
C415 C 0.57967 0.33939 0.79648 0.0
H416 H 0.32617 0.43153 0.68773 0.0
H417 H 0.36175 0.41329 0.71217 0.0
H418 H 0.33525 0.4209 0.65595 0.0
H419 H 0.41782 0.37222 0.6727 0.0
H420 H 0.65616 0.28365 0.81907 0.0
H421 H 0.62409 0.30324 0.7942 0.0
H422 H 0.65133 0.29656 0.85048 0.0
H423 H 0.57989 0.35 0.83251 0.0
C424 C 0.87122 0.83714 0.75215 0.0
C425 C 0.8764 0.79934 0.76165 0.0
C426 C 0.89114 0.82082 0.7614 0.0
C427 C 0.84246 0.79439 0.75201 0.0
C428 C 0.83694 0.83226 0.74262 0.0
C429 C 0.82278 0.8108 0.74255 0.0
N430 N 0.88636 0.85763 0.7518 0.0
C431 C 0.86833 0.87411 0.74268 0.0
C432 C 0.81833 0.84906 0.73313 0.0
C433 C 0.83407 0.87007 0.7332 0.0
Gd434 Gd 0.0404 0.85985 0.73733 0.0
Gd435 Gd 0.94369 0.86281 0.76803 0.0
N436 N 0.92443 0.82598 0.77036 0.0
C437 C 0.89576 0.78353 0.77189 0.0
C438 C 0.94108 0.81107 0.78172 0.0
C439 C 0.92777 0.78954 0.78226 0.0
H440 H 0.96368 0.81569 0.79097 0.0
H441 H 0.94171 0.7777 0.79099 0.0
H442 H 0.03437 0.91327 0.72743 0.0
H443 H 0.88042 0.89037 0.74278 0.0
H444 H 0.07357 0.94653 0.73136 0.0
H445 H 0.88535 0.76686 0.77243 0.0
H446 H 0.83096 0.77794 0.75195 0.0
H447 H 0.09454 0.81844 0.75229 0.0
H448 H 0.79196 0.84595 0.72563 0.0
H449 H 0.81987 0.88314 0.72591 0.0
H450 H 0.18994 0.92119 0.75986 0.0
H451 H 0.79664 0.8067 0.7352 0.0
H452 H 0.20111 0.84468 0.7723 0.0
H453 H 0.15812 0.81304 0.76689 0.0
N454 N 0.10086 0.85281 0.75033 0.0
C455 C 0.12428 0.87037 0.75286 0.0
C456 C 0.11276 0.83238 0.75499 0.0
C457 C 0.17309 0.84716 0.76608 0.0
C458 C 0.14889 0.82926 0.76307 0.0
C459 C 0.16104 0.86802 0.76085 0.0
H460 H 0.2128 0.88503 0.76952 0.0
N461 N 0.07535 0.89253 0.74014 0.0
C462 C 0.11141 0.89079 0.74737 0.0
C463 C 0.12089 0.92963 0.7441 0.0
C464 C 0.13494 0.90935 0.74977 0.0
C465 C 0.06206 0.91211 0.73399 0.0
C466 C 0.08442 0.93097 0.73605 0.0
O467 O 0.94109 0.84985 0.73913 0.0
O468 O 0.99828 0.8319 0.73699 0.0
O469 O 0.04116 0.86618 0.70816 0.0
O470 O 0.07798 0.84132 0.71967 0.0
O471 O 0.99785 0.84767 0.78014 0.0
O472 O 0.02513 0.83138 0.75527 0.0
O473 O 0.04479 0.87809 0.76406 0.0
O474 O 0.98411 0.8915 0.77071 0.0
O475 O 0.9323 0.86087 0.79713 0.0
O476 O 0.89601 0.88056 0.77986 0.0
O477 O 0.99026 0.87987 0.72659 0.0
O478 O 0.95419 0.89283 0.75092 0.0
C479 C 0.96197 0.83404 0.73243 0.0
C480 C 0.02166 0.83346 0.77292 0.0
C481 C 0.10126 0.86009 0.69378 0.0
C482 C 0.13054 0.86495 0.6638 0.0
C483 C 0.16621 0.87485 0.69102 0.0
C484 C 0.1351 0.86828 0.70179 0.0
C485 C 0.16411 0.87311 0.67216 0.0
C486 C 0.09892 0.85867 0.67472 0.0
C487 C 0.06887 0.85235 0.70515 0.0
C488 C 0.1715 0.9071 0.75783 0.0
C489 C 0.18451 0.8865 0.76335 0.0
H490 H 0.13806 0.94429 0.74574 0.0
C491 C 0.02184 0.89163 0.77266 0.0
C492 C 0.96595 0.89385 0.73388 0.0
C493 C 0.90591 0.89275 0.80992 0.0
C494 C 0.89755 0.90492 0.84123 0.0
C495 C 0.91378 0.931 0.8174 0.0
C496 C 0.91404 0.91431 0.8046 0.0
C497 C 0.90518 0.92642 0.83556 0.0
C498 C 0.89814 0.88811 0.82829 0.0
C499 C 0.90452 0.87506 0.79646 0.0
H500 H 0.19219 0.88114 0.69733 0.0
H501 H 0.13776 0.86936 0.71635 0.0
H502 H 0.18868 0.87825 0.66406 0.0
H503 H 0.073 0.85217 0.66845 0.0
H504 H 0.92006 0.94758 0.81322 0.0
H505 H 0.92024 0.91827 0.79054 0.0
H506 H 0.90508 0.93965 0.84524 0.0
H507 H 0.89178 0.87149 0.83243 0.0
C508 C 0.62728 0.65642 0.2586 0.0
C509 C 0.62865 0.69599 0.25896 0.0
C510 C 0.60849 0.67615 0.26123 0.0
C511 C 0.66787 0.69574 0.25408 0.0
C512 C 0.66662 0.65612 0.25365 0.0
C513 C 0.68679 0.67587 0.25144 0.0
N514 N 0.60692 0.63757 0.26053 0.0
C515 C 0.62414 0.61787 0.25806 0.0
C516 C 0.68444 0.63596 0.25092 0.0
C517 C 0.66311 0.61676 0.25318 0.0
Gd518 Gd 0.45069 0.63997 0.23429 0.0
Gd519 Gd 0.54193 0.6412 0.2685 0.0
N520 N 0.57011 0.67591 0.26529 0.0
C521 C 0.60863 0.71552 0.26142 0.0
C522 C 0.55086 0.69487 0.26839 0.0
C523 C 0.56963 0.71493 0.26623 0.0
H524 H 0.52111 0.69465 0.27248 0.0
H525 H 0.55402 0.72994 0.26829 0.0
H526 H 0.47155 0.59259 0.21383 0.0
H527 H 0.60794 0.60299 0.26015 0.0
H528 H 0.44324 0.55614 0.21057 0.0
H529 H 0.62303 0.73111 0.2597 0.0
H530 H 0.68379 0.71083 0.25223 0.0
H531 H 0.38435 0.67004 0.25587 0.0
H532 H 0.71461 0.63505 0.2471 0.0
H533 H 0.6767 0.6011 0.25121 0.0
H534 H 0.32365 0.56011 0.24329 0.0
H535 H 0.71702 0.67595 0.24762 0.0
H536 H 0.28881 0.62861 0.26936 0.0
H537 H 0.32052 0.6648 0.27012 0.0
N538 N 0.39004 0.63687 0.24826 0.0
C539 C 0.37269 0.61697 0.24723 0.0
C540 C 0.3715 0.65402 0.25603 0.0
C541 C 0.31717 0.63073 0.26335 0.0
C542 C 0.33502 0.65117 0.26386 0.0
C543 C 0.33579 0.61336 0.25482 0.0
H544 H 0.29028 0.58958 0.25931 0.0
N545 N 0.42768 0.60411 0.2314 0.0
C546 C 0.392 0.60015 0.23852 0.0
C547 C 0.39349 0.56338 0.22699 0.0
C548 C 0.37431 0.57952 0.23681 0.0
C549 C 0.44551 0.58877 0.22109 0.0
C550 C 0.42901 0.56814 0.2189 0.0
O551 O 0.54991 0.65752 0.24103 0.0
O552 O 0.4893 0.66963 0.23368 0.0
O553 O 0.44688 0.63695 0.20482 0.0
O554 O 0.40841 0.65857 0.2191 0.0
O555 O 0.48374 0.65432 0.27715 0.0
O556 O 0.45592 0.66973 0.25189 0.0
O557 O 0.44603 0.62163 0.2613 0.0
O558 O 0.50771 0.61004 0.26759 0.0
O559 O 0.53941 0.65238 0.29633 0.0
O560 O 0.57567 0.62502 0.28958 0.0
O561 O 0.50716 0.62488 0.22467 0.0
O562 O 0.53931 0.61183 0.2502 0.0
C563 C 0.5268 0.66977 0.23122 0.0
C564 C 0.46201 0.66925 0.26951 0.0
C565 C 0.38395 0.6414 0.19275 0.0
C566 C 0.35473 0.63463 0.16305 0.0
C567 C 0.31842 0.62729 0.1907 0.0
C568 C 0.34961 0.63436 0.20114 0.0
C569 C 0.32082 0.62748 0.17178 0.0
C570 C 0.38647 0.64134 0.17367 0.0
C571 C 0.41676 0.64952 0.20365 0.0
C572 C 0.3377 0.57583 0.24449 0.0
C573 C 0.31859 0.59266 0.25354 0.0
H574 H 0.38057 0.54747 0.22503 0.0
C575 C 0.4701 0.60758 0.26864 0.0
C576 C 0.53171 0.61141 0.23261 0.0
C577 C 0.54587 0.62505 0.31845 0.0
C578 C 0.54857 0.61605 0.35079 0.0
C579 C 0.4949 0.60332 0.33227 0.0
C580 C 0.51068 0.61379 0.31712 0.0
C581 C 0.51359 0.60448 0.34905 0.0
C582 C 0.56491 0.62607 0.3353 0.0
C583 C 0.56136 0.63685 0.30257 0.0
H584 H 0.29212 0.62185 0.19731 0.0
H585 H 0.34655 0.63461 0.21574 0.0
H586 H 0.29616 0.62198 0.16396 0.0
H587 H 0.41268 0.64708 0.1671 0.0
H588 H 0.46782 0.59454 0.33107 0.0
H589 H 0.49514 0.61348 0.30443 0.0
H590 H 0.50067 0.59638 0.36068 0.0
H591 H 0.59164 0.63524 0.33647 0.0
H592 H 0.14178 0.97567 0.39761 0.0
H593 H 0.11331 0.00443 0.37891 0.0
H594 H 0.16232 0.97551 0.33088 0.0
H595 H 0.19217 0.94722 0.34956 0.0
H596 H 0.17556 0.01796 0.33111 0.0
H597 H 0.06462 0.97217 0.3406 0.0
H598 H 0.01676 0.95132 0.35849 0.0
H599 H 0.98168 0.00986 0.38546 0.0
H600 H 0.02973 0.03104 0.3679 0.0
H601 H 0.0614 0.07276 0.26401 0.0
H602 H 0.08999 0.04539 0.28407 0.0
H603 H 0.06017 0.08396 0.33075 0.0
H604 H 0.03302 0.11202 0.31074 0.0
H605 H 0.03683 0.03782 0.33197 0.0
H606 H 0.14797 0.0833 0.32298 0.0
H607 H 0.19789 0.10405 0.30629 0.0
H608 H 0.23237 0.04591 0.27856 0.0
H609 H 0.18246 0.02482 0.29503 0.0
C610 C 0.14655 0.97543 0.38307 0.0
C611 C 0.16935 0.95912 0.37511 0.0
C612 C 0.1299 0.99178 0.37236 0.0
C613 C 0.1354 0.99206 0.35345 0.0
C614 C 0.15761 0.97562 0.34544 0.0
C615 C 0.17435 0.95931 0.35613 0.0
C616 C 0.11951 0.01002 0.34209 0.0
C617 C 0.1451 0.02205 0.3311 0.0
C618 C 0.07997 0.01585 0.34249 0.0
C619 C 0.05106 0.00315 0.35307 0.0
C620 C 0.04693 0.98057 0.35046 0.0
C621 C 0.01973 0.9687 0.36052 0.0
C622 C 0.99627 0.97925 0.37314 0.0
C623 C 0.99991 0.00171 0.37569 0.0
C624 C 0.0271 0.01366 0.36568 0.0
C625 C 0.06136 0.07564 0.27852 0.0
C626 C 0.0448 0.09462 0.28575 0.0
C627 C 0.07764 0.05993 0.28996 0.0
C628 C 0.07716 0.06269 0.30886 0.0
C629 C 0.06071 0.08155 0.31618 0.0
C630 C 0.04514 0.09751 0.30471 0.0
C631 C 0.09287 0.04548 0.32093 0.0
C632 C 0.06725 0.03364 0.33201 0.0
C633 C 0.13235 0.03977 0.32061 0.0
C634 C 0.16121 0.05254 0.3101 0.0
C635 C 0.16588 0.07499 0.31317 0.0
C636 C 0.19436 0.08678 0.30385 0.0
C637 C 0.21834 0.07629 0.29141 0.0
C638 C 0.21381 0.054 0.28822 0.0
C639 C 0.18548 0.04212 0.29757 0.0
H640 H 0.24034 0.08545 0.28419 0.0
H641 H 0.97521 0.97003 0.38091 0.0
H642 H 0.37406 0.5371 0.89185 0.0
H643 H 0.38671 0.50259 0.87639 0.0
H644 H 0.36691 0.53373 0.82455 0.0
H645 H 0.35351 0.56811 0.83991 0.0
H646 H 0.33435 0.49305 0.82604 0.0
H647 H 0.45732 0.52655 0.83988 0.0
H648 H 0.50667 0.54266 0.85997 0.0
H649 H 0.51221 0.48303 0.89063 0.0
H650 H 0.46245 0.46666 0.87085 0.0
H651 H 0.43706 0.42863 0.76344 0.0
H652 H 0.41186 0.45716 0.78303 0.0
H653 H 0.43761 0.41809 0.83036 0.0
H654 H 0.46273 0.38925 0.81078 0.0
H655 H 0.46382 0.45988 0.8338 0.0
H656 H 0.34495 0.42517 0.81846 0.0
H657 H 0.2961 0.40888 0.79823 0.0
H658 H 0.28334 0.47003 0.77031 0.0
H659 H 0.33224 0.4867 0.79036 0.0
C660 C 0.37183 0.5365 0.87718 0.0
C661 C 0.3631 0.55538 0.86709 0.0
C662 C 0.37931 0.51682 0.86836 0.0
C663 C 0.37819 0.51566 0.84931 0.0
C664 C 0.36805 0.53427 0.83926 0.0
C665 C 0.36073 0.55394 0.84805 0.0
C666 C 0.38922 0.49539 0.83971 0.0
C667 C 0.36273 0.48586 0.82765 0.0
C668 C 0.42589 0.48568 0.84216 0.0
C669 C 0.45584 0.49548 0.85403 0.0
C670 C 0.46882 0.51694 0.851 0.0
C671 C 0.4969 0.5261 0.86231 0.0
C672 C 0.51247 0.5139 0.8766 0.0
C673 C 0.50006 0.49248 0.87958 0.0
C674 C 0.47193 0.48325 0.86832 0.0
C675 C 0.43703 0.42595 0.77801 0.0
C676 C 0.45226 0.40672 0.78555 0.0
C677 C 0.4225 0.44228 0.78919 0.0
C678 C 0.42265 0.43971 0.80816 0.0
C679 C 0.43727 0.42041 0.81576 0.0
C680 C 0.45164 0.40398 0.80455 0.0
C681 C 0.40913 0.45768 0.81996 0.0
C682 C 0.43521 0.46684 0.83239 0.0
C683 C 0.37209 0.46702 0.81786 0.0
C684 C 0.34247 0.45714 0.80583 0.0
C685 C 0.33191 0.43511 0.80793 0.0
C686 C 0.30418 0.42581 0.79651 0.0
C687 C 0.28677 0.43837 0.78293 0.0
C688 C 0.29689 0.46031 0.78082 0.0
C689 C 0.32453 0.46971 0.79225 0.0
H690 H 0.26536 0.43112 0.77408 0.0
H691 H 0.53423 0.52102 0.88534 0.0
H692 H 0.73886 0.51399 0.63162 0.0
H693 H 0.70797 0.48674 0.65113 0.0
H694 H 0.60614 0.52672 0.65457 0.0
H695 H 0.63664 0.554 0.63478 0.0
H696 H 0.62769 0.51035 0.68785 0.0
H697 H 0.6059 0.48276 0.62775 0.0
H698 H 0.6245 0.4712 0.59693 0.0
H699 H 0.69791 0.42181 0.61957 0.0
H700 H 0.68015 0.43328 0.65055 0.0
H701 H 0.50186 0.4301 0.72493 0.0
H702 H 0.53227 0.45778 0.70562 0.0
H703 H 0.63217 0.41672 0.69931 0.0
H704 H 0.60113 0.38859 0.71794 0.0
H705 H 0.61141 0.43389 0.66753 0.0
H706 H 0.63429 0.46134 0.72751 0.0
H707 H 0.61656 0.47286 0.75844 0.0
H708 H 0.542 0.52202 0.73638 0.0
H709 H 0.55914 0.51077 0.70526 0.0
C710 C 0.70969 0.5169 0.63631 0.0
C711 C 0.69014 0.53614 0.6315 0.0
C712 C 0.69214 0.50133 0.64754 0.0
C713 C 0.65461 0.5046 0.65416 0.0
C714 C 0.63515 0.52389 0.64962 0.0
C715 C 0.65267 0.53948 0.63834 0.0
C716 C 0.63578 0.48785 0.66583 0.0
C717 C 0.62363 0.4937 0.68333 0.0
C718 C 0.63137 0.466 0.66008 0.0
C719 C 0.64198 0.45902 0.64147 0.0
C720 C 0.62625 0.46955 0.62616 0.0
C721 C 0.6366 0.46299 0.60866 0.0
C722 C 0.66245 0.44582 0.6063 0.0
C723 C 0.67792 0.43513 0.62143 0.0
C724 C 0.6677 0.44164 0.63896 0.0
C725 C 0.53029 0.42695 0.71942 0.0
C726 C 0.5494 0.40728 0.72322 0.0
C727 C 0.54776 0.44286 0.70849 0.0
C728 C 0.58478 0.43949 0.70125 0.0
C729 C 0.60371 0.41975 0.70485 0.0
C730 C 0.58614 0.40379 0.71568 0.0
C731 C 0.60338 0.45636 0.68959 0.0
C732 C 0.61547 0.45053 0.67208 0.0
C733 C 0.60788 0.47819 0.69536 0.0
C734 C 0.59774 0.48509 0.71405 0.0
C735 C 0.61392 0.47452 0.72924 0.0
C736 C 0.604 0.481 0.74681 0.0
C737 C 0.57803 0.49806 0.74938 0.0
C738 C 0.56207 0.50877 0.73437 0.0
C739 C 0.57194 0.50239 0.71676 0.0
H740 H 0.57037 0.50303 0.763 0.0
H741 H 0.67042 0.44077 0.59274 0.0
H742 H 0.88383 0.96809 0.11048 0.0
H743 H 0.90003 0.00187 0.12638 0.0
H744 H 0.83739 0.97924 0.17355 0.0
H745 H 0.82053 0.94559 0.15763 0.0
H746 H 0.82619 0.02337 0.16687 0.0
H747 H 0.93236 0.97268 0.17177 0.0
H748 H 0.98233 0.94817 0.15971 0.0
H749 H 0.03359 0.00153 0.13026 0.0
H750 H 0.98354 0.0263 0.14196 0.0
H751 H 0.90922 0.0816 0.23925 0.0
H752 H 0.88486 0.05469 0.21793 0.0
H753 H 0.96448 0.07867 0.17724 0.0
H754 H 0.98952 0.10542 0.19905 0.0
H755 H 0.96584 0.03662 0.17762 0.0
H756 H 0.86365 0.08859 0.17572 0.0
H757 H 0.81509 0.11306 0.18904 0.0
H758 H 0.75657 0.05818 0.21298 0.0
H759 H 0.80519 0.03339 0.20012 0.0
C760 C 0.87288 0.97049 0.12411 0.0
C761 C 0.85116 0.95409 0.13286 0.0
C762 C 0.88234 0.98974 0.13321 0.0
C763 C 0.87026 0.99296 0.15122 0.0
C764 C 0.84707 0.97707 0.15968 0.0
C765 C 0.83775 0.95779 0.15062 0.0
C766 C 0.88394 0.0121 0.16171 0.0
C767 C 0.85669 0.02627 0.1693 0.0
C768 C 0.92378 0.01613 0.16453 0.0
C769 C 0.95396 0.00128 0.15756 0.0
C770 C 0.9541 0.97914 0.1626 0.0
C771 C 0.98246 0.96521 0.15585 0.0
C772 C 0.01104 0.97327 0.14418 0.0
C773 C 0.01138 0.9953 0.13927 0.0
C774 C 0.98304 0.00929 0.14596 0.0
C775 C 0.92068 0.08156 0.22566 0.0
C776 C 0.95037 0.09593 0.22064 0.0
C777 C 0.9069 0.06608 0.21343 0.0
C778 C 0.92211 0.06493 0.19576 0.0
C779 C 0.95202 0.07932 0.19073 0.0
C780 C 0.96622 0.0946 0.20313 0.0
C781 C 0.90812 0.04796 0.18295 0.0
C782 C 0.93533 0.03408 0.17496 0.0
C783 C 0.86824 0.04429 0.17973 0.0
C784 C 0.83819 0.05911 0.18699 0.0
C785 C 0.84049 0.08173 0.18386 0.0
C786 C 0.81296 0.09566 0.19134 0.0
C787 C 0.78273 0.08717 0.20181 0.0
C788 C 0.77996 0.06473 0.20483 0.0
C789 C 0.80748 0.05072 0.19743 0.0
H790 H 0.76143 0.09797 0.20757 0.0
H791 H 0.03299 0.96246 0.13897 0.0
H792 H 0.93385 0.06946 0.64464 0.0
H793 H 0.94473 0.03607 0.66195 0.0
H794 H 0.8323 0.01217 0.64617 0.0
H795 H 0.82103 0.04587 0.62889 0.0
H796 H 0.84472 0.00297 0.68075 0.0
H797 H 0.91419 0.99269 0.62601 0.0
H798 H 0.95925 0.00135 0.60102 0.0
H799 H 0.05358 0.00389 0.63885 0.0
H800 H 0.00898 0.99559 0.66413 0.0
H801 H 0.96194 0.89447 0.6969 0.0
H802 H 0.93937 0.92397 0.6773 0.0
H803 H 0.91573 0.96312 0.72456 0.0
H804 H 0.93685 0.93325 0.74426 0.0
H805 H 0.96588 0.96168 0.67133 0.0
H806 H 0.84527 0.99956 0.71633 0.0
H807 H 0.79663 0.9873 0.7387 0.0
H808 H 0.79691 0.92332 0.71537 0.0
H809 H 0.84508 0.93527 0.6927 0.0
C810 C 0.91154 0.05703 0.6447 0.0
C811 C 0.87676 0.06019 0.6352 0.0
C812 C 0.91778 0.03794 0.65463 0.0
C813 C 0.88963 0.02141 0.65512 0.0
C814 C 0.85449 0.02467 0.64595 0.0
C815 C 0.84809 0.04391 0.63609 0.0
C816 C 0.89726 1.00079 0.66518 0.0
C817 C 0.87113 0.99388 0.67866 0.0
C818 C 0.93118 0.98854 0.66213 0.0
C819 C 0.95815 0.99369 0.64699 0.0
C820 C 0.94449 0.99528 0.62903 0.0
C821 C 0.96996 1.0001 0.61481 0.0
C822 C 0.00924 0.00321 0.61835 0.0
C823 C 0.02314 0.0015 0.63613 0.0
C824 C 0.99778 0.99672 0.65041 0.0
C825 C 0.95166 0.90932 0.70313 0.0
C826 C 0.95114 0.91155 0.72213 0.0
C827 C 0.9388 0.92619 0.6919 0.0
C828 C 0.9255 0.94577 0.69939 0.0
C829 C 0.925 0.94803 0.71841 0.0
C830 C 0.93727 0.93098 0.72967 0.0
C831 C 0.91387 0.96411 0.68728 0.0
C832 C 0.93931 0.97063 0.67339 0.0
C833 C 0.8787 0.9755 0.68957 0.0
C834 C 0.84907 0.96829 0.70291 0.0
C835 C 0.83479 0.98291 0.71591 0.0
C836 C 0.80733 0.976 0.72865 0.0
C837 C 0.79378 0.95452 0.72849 0.0
C838 C 0.80753 0.93993 0.71553 0.0
C839 C 0.83493 0.94676 0.70273 0.0
H840 H 0.77257 0.9492 0.73839 0.0
H841 H 0.02892 0.00691 0.60732 0.0
H842 H 0.63758 0.47094 0.11274 0.0
H843 H 0.61069 0.49984 0.13167 0.0
H844 H 0.66687 0.47235 0.17876 0.0
H845 H 0.69347 0.44323 0.15994 0.0
H846 H 0.59187 0.48538 0.18598 0.0
H847 H 0.70649 0.51503 0.15826 0.0
H848 H 0.74965 0.5246 0.13276 0.0
H849 H 0.66162 0.56535 0.10973 0.0
H850 H 0.61769 0.55576 0.13497 0.0
H851 H 0.57121 0.57542 0.24444 0.0
H852 H 0.59817 0.5462 0.22618 0.0
H853 H 0.55762 0.57796 0.17736 0.0
H854 H 0.53285 0.60803 0.19549 0.0
H855 H 0.6248 0.5622 0.17113 0.0
H856 H 0.50936 0.53238 0.19859 0.0
H857 H 0.4659 0.5225 0.22397 0.0
H858 H 0.55421 0.48235 0.24735 0.0
H859 H 0.59827 0.49196 0.22217 0.0
C860 C 0.64376 0.47087 0.12717 0.0
C861 C 0.66779 0.45485 0.13483 0.0
C862 C 0.62862 0.48748 0.13795 0.0
C863 C 0.63714 0.48838 0.15659 0.0
C864 C 0.66005 0.47201 0.16439 0.0
C865 C 0.67542 0.45547 0.1536 0.0
C866 C 0.62307 0.50673 0.16785 0.0
C867 C 0.59934 0.50218 0.18287 0.0
C868 C 0.63226 0.52866 0.16357 0.0
C869 C 0.65866 0.53449 0.14841 0.0
C870 C 0.69621 0.52588 0.14768 0.0
C871 C 0.72084 0.53134 0.13328 0.0
C872 C 0.70835 0.54553 0.1196 0.0
C873 C 0.67123 0.55433 0.12032 0.0
C874 C 0.64646 0.5489 0.13467 0.0
C875 C 0.56863 0.57645 0.2298 0.0
C876 C 0.5498 0.59413 0.22146 0.0
C877 C 0.58356 0.55949 0.21937 0.0
C878 C 0.57912 0.55952 0.20039 0.0
C879 C 0.56122 0.57744 0.19199 0.0
C880 C 0.54694 0.59461 0.20239 0.0
C881 C 0.59316 0.54096 0.18925 0.0
C882 C 0.61704 0.54545 0.17425 0.0
C883 C 0.58389 0.51898 0.19351 0.0
C884 C 0.55724 0.51304 0.20856 0.0
C885 C 0.51958 0.52153 0.20919 0.0
C886 C 0.49484 0.51598 0.22353 0.0
C887 C 0.50734 0.50194 0.23729 0.0
C888 C 0.54457 0.49327 0.23669 0.0
C889 C 0.56941 0.49871 0.22237 0.0
H890 H 0.48814 0.49772 0.24839 0.0
H891 H 0.72746 0.54974 0.10848 0.0
H892 H 0.43462 0.44208 0.37205 0.0
H893 H 0.44761 0.47476 0.354 0.0
H894 H 0.32533 0.48304 0.34502 0.0
H895 H 0.31232 0.44981 0.36269 0.0
H896 H 0.36186 0.48946 0.31461 0.0
H897 H 0.37964 0.51665 0.37503 0.0
H898 H 0.40588 0.51662 0.40621 0.0
H899 H 0.52119 0.52153 0.38503 0.0
H900 H 0.49569 0.52147 0.35375 0.0
H901 H 0.3958 0.59968 0.28053 0.0
H902 H 0.37299 0.56894 0.29908 0.0
H903 H 0.48848 0.54308 0.30064 0.0
H904 H 0.51111 0.57292 0.28137 0.0
H905 H 0.44977 0.54814 0.33578 0.0
H906 H 0.43316 0.51653 0.27627 0.0
H907 H 0.40858 0.51437 0.24489 0.0
H908 H 0.29201 0.51785 0.26456 0.0
H909 H 0.31596 0.52009 0.29611 0.0
C910 C 0.41047 0.45103 0.36643 0.0
C911 C 0.37243 0.44349 0.3689 0.0
C912 C 0.4179 0.46977 0.35614 0.0
C913 C 0.38742 0.48169 0.34841 0.0
C914 C 0.34934 0.4742 0.35089 0.0
C915 C 0.34192 0.45524 0.36098 0.0
C916 C 0.39557 0.50142 0.33714 0.0
C917 C 0.3804 0.5025 0.31944 0.0
C918 C 0.4204 0.51832 0.34321 0.0
C919 C 0.43575 0.51889 0.36204 0.0
C920 C 0.4106 0.51766 0.37703 0.0
C921 C 0.42534 0.51768 0.39472 0.0
C922 C 0.46518 0.51902 0.3976 0.0
C923 C 0.49034 0.52052 0.3828 0.0
C924 C 0.47575 0.52054 0.36508 0.0
C925 C 0.41611 0.58716 0.28436 0.0
C926 C 0.45516 0.58868 0.27921 0.0
C927 C 0.40311 0.56973 0.29513 0.0
C928 C 0.42914 0.55381 0.30123 0.0
C929 C 0.46801 0.55525 0.29609 0.0
C930 C 0.48082 0.57234 0.28505 0.0
C931 C 0.41634 0.53589 0.31337 0.0
C932 C 0.43067 0.53522 0.33119 0.0
C933 C 0.39076 0.51942 0.30745 0.0
C934 C 0.37633 0.51872 0.28851 0.0
C935 C 0.4023 0.51707 0.27389 0.0
C936 C 0.38849 0.51571 0.25609 0.0
C937 C 0.34876 0.51595 0.25273 0.0
C938 C 0.32277 0.51762 0.26718 0.0
C939 C 0.33644 0.5189 0.28503 0.0
H940 H 0.33812 0.5149 0.23893 0.0
H941 H 0.47655 0.51888 0.4113 0.0
H942 H 0.23552 0.01609 0.86986 0.0
H943 H 0.20207 0.98917 0.8513 0.0
H944 H 0.10135 0.03011 0.84938 0.0
H945 H 0.13511 0.05772 0.86737 0.0
H946 H 0.08617 0.98499 0.85796 0.0
H947 H 0.15348 0.02856 0.81345 0.0
H948 H 0.21034 0.04671 0.79989 0.0
H949 H 0.26667 0.98491 0.79443 0.0
H950 H 0.21036 0.96641 0.80822 0.0
H951 H 0.9886 0.92849 0.78638 0.0
H952 H 0.01862 0.9561 0.80571 0.0
H953 H 0.12573 0.9205 0.80472 0.0
H954 H 0.09555 0.89244 0.78605 0.0
H955 H 0.13653 0.96371 0.79749 0.0
H956 H 0.07294 0.91969 0.84167 0.0
H957 H 0.01996 0.90016 0.85724 0.0
H958 H 0.96017 0.96048 0.86508 0.0
H959 H 0.01237 0.98037 0.84919 0.0
C960 C 0.2065 0.01965 0.86527 0.0
C961 C 0.18825 0.03929 0.87004 0.0
C962 C 0.18732 0.00411 0.85477 0.0
C963 C 0.14935 0.00771 0.8489 0.0
C964 C 0.13066 0.02703 0.85383 0.0
C965 C 0.15 0.04275 0.86419 0.0
C966 C 0.12937 0.99124 0.83755 0.0
C967 C 0.09666 0.98058 0.84459 0.0
C968 C 0.144 0.98504 0.82039 0.0
C969 C 0.17785 0.99613 0.81204 0.0
C970 C 0.17813 0.01886 0.80951 0.0
C971 C 0.21024 0.02921 0.80176 0.0
C972 C 0.24214 0.01698 0.79635 0.0
C973 C 0.24196 0.99436 0.79865 0.0
C974 C 0.20995 0.98394 0.80642 0.0
C975 C 0.01837 0.92637 0.79047 0.0
C976 C 0.03971 0.9083 0.78454 0.0
C977 C 0.03552 0.94221 0.80148 0.0
C978 C 0.07439 0.94033 0.80668 0.0
C979 C 0.09574 0.92232 0.8008 0.0
C980 C 0.07848 0.90635 0.79001 0.0
C981 C 0.09314 0.95742 0.81786 0.0
C982 C 0.12573 0.9682 0.8108 0.0
C983 C 0.07865 0.9635 0.8351 0.0
C984 C 0.0464 0.95151 0.84402 0.0
C985 C 0.04822 0.92877 0.84644 0.0
C986 C 0.01838 0.91764 0.85538 0.0
C987 C 0.98674 0.92908 0.86211 0.0
C988 C 0.98471 0.95166 0.85983 0.0
C989 C 0.01438 0.96286 0.85083 0.0
H990 H 0.9639 0.92049 0.86919 0.0
H991 H 0.26697 0.02502 0.79034 0.0
H992 H 0.23597 0.08468 0.00456 0.0
H993 H 0.21409 0.08845 0.03589 0.0
H994 H 0.15009 0.14603 0.02096 0.0
H995 H 0.17321 0.14267 0.98957 0.0
H996 H 0.18432 0.15324 0.05126 0.0
H997 H 0.10477 0.09544 0.03057 0.0
H998 H 0.08836 0.06062 0.01584 0.0
H999 H 0.15711 0.02605 0.05497 0.0
H1000 H 0.17441 0.06069 0.0698 0.0
H1001 H 0.09823 0.15117 0.14068 0.0
H1002 H 0.10187 0.14806 0.10737 0.0
H1003 H 0.1936 0.10117 0.1129 0.0
H1004 H 0.1905 0.10452 0.14602 0.0
H1005 H 0.13433 0.09006 0.0866 0.0
H1006 H 0.21841 0.15026 0.10438 0.0
H1007 H 0.23147 0.18565 0.11893 0.0
H1008 H 0.14723 0.21623 0.0845 0.0
H1009 H 0.13328 0.18092 0.06993 0.0
C1010 C 0.21691 0.09801 0.00793 0.0
C1011 C 0.20603 0.11328 0.99461 0.0
C1012 C 0.20425 0.10012 0.02584 0.0
C1013 C 0.17966 0.11726 0.03079 0.0
C1014 C 0.16886 0.13261 0.0175 0.0
C1015 C 0.18206 0.13069 0.99958 0.0
C1016 C 0.16672 0.11951 0.05 0.0
C1017 C 0.1726 0.13951 0.05883 0.0
C1018 C 0.15154 0.10164 0.06004 0.0
C1019 C 0.14109 0.08071 0.05123 0.0
C1020 C 0.1166 0.08043 0.03597 0.0
C1021 C 0.10711 0.06072 0.02761 0.0
C1022 C 0.12173 0.04114 0.03444 0.0
C1023 C 0.14581 0.04123 0.04968 0.0
C1024 C 0.15543 0.0609 0.05809 0.0
C1025 C 0.11882 0.14006 0.13472 0.0
C1026 C 0.14425 0.12817 0.14583 0.0
C1027 C 0.12095 0.13833 0.11576 0.0
C1028 C 0.1481 0.12443 0.10772 0.0
C1029 C 0.17244 0.11195 0.11885 0.0
C1030 C 0.17078 0.11395 0.13773 0.0
C1031 C 0.15279 0.12352 0.08772 0.0
C1032 C 0.14537 0.1038 0.07882 0.0
C1033 C 0.16589 0.14171 0.07755 0.0
C1034 C 0.17446 0.16292 0.08623 0.0
C1035 C 0.20242 0.1645 0.10003 0.0
C1036 C 0.21004 0.18454 0.10826 0.0
C1037 C 0.1901 0.20316 0.10269 0.0
C1038 C 0.16259 0.20178 0.08884 0.0
C1039 C 0.15483 0.18176 0.08058 0.0
H1040 H 0.19605 0.21867 0.10907 0.0
H1041 H 0.11436 0.0259 0.02794 0.0
H1042 H 0.36282 0.39626 0.48939 0.0
H1043 H 0.37055 0.39974 0.52225 0.0
H1044 H 0.35526 0.33033 0.5286 0.0
H1045 H 0.34638 0.3268 0.49572 0.0
H1046 H 0.31618 0.3523 0.5544 0.0
H1047 H 0.44462 0.35257 0.53078 0.0
H1048 H 0.4981 0.36431 0.51083 0.0
H1049 H 0.49157 0.42905 0.53242 0.0
H1050 H 0.43763 0.41778 0.55232 0.0
H1051 H 0.37689 0.35495 0.64704 0.0
H1052 H 0.37716 0.34571 0.6146 0.0
H1053 H 0.38841 0.41385 0.60083 0.0
H1054 H 0.38874 0.42308 0.63308 0.0
H1055 H 0.43299 0.38885 0.57903 0.0
H1056 H 0.30102 0.38919 0.6005 0.0
H1057 H 0.24723 0.37761 0.62034 0.0
H1058 H 0.26083 0.3115 0.60271 0.0
H1059 H 0.3151 0.32267 0.58293 0.0
C1060 C 0.36053 0.38176 0.49778 0.0
C1061 C 0.35409 0.36124 0.48989 0.0
C1062 C 0.3654 0.38374 0.51656 0.0
C1063 C 0.36414 0.36524 0.52788 0.0
C1064 C 0.35663 0.34481 0.52013 0.0
C1065 C 0.35181 0.3428 0.50132 0.0
C1066 C 0.37078 0.3673 0.54776 0.0
C1067 C 0.34204 0.35994 0.5598 0.0
C1068 C 0.4043 0.37753 0.55483 0.0
C1069 C 0.43685 0.38436 0.54293 0.0
C1070 C 0.45438 0.36935 0.53118 0.0
C1071 C 0.48481 0.37592 0.51989 0.0
C1072 C 0.49817 0.39743 0.52033 0.0
C1073 C 0.48117 0.4124 0.53208 0.0
C1074 C 0.45069 0.40593 0.54338 0.0
C1075 C 0.38015 0.36788 0.63707 0.0
C1076 C 0.38241 0.38975 0.64257 0.0
C1077 C 0.38 0.36262 0.61856 0.0
C1078 C 0.38223 0.37913 0.60528 0.0
C1079 C 0.3865 0.40085 0.61081 0.0
C1080 C 0.38645 0.40611 0.62924 0.0
C1081 C 0.37814 0.37415 0.58562 0.0
C1082 C 0.40736 0.38097 0.57363 0.0
C1083 C 0.34509 0.36342 0.5786 0.0
C1084 C 0.31239 0.35672 0.59041 0.0
C1085 C 0.29273 0.37216 0.60096 0.0
C1086 C 0.26214 0.36567 0.61218 0.0
C1087 C 0.2507 0.34382 0.61283 0.0
C1088 C 0.26978 0.32842 0.60222 0.0
C1089 C 0.30044 0.33481 0.591 0.0
H1090 H 0.227 0.33883 0.62152 0.0
H1091 H 0.52173 0.40248 0.51158 0.0
H1092 H 0.7179 0.34668 0.00547 0.0
H1093 H 0.69803 0.34095 0.97398 0.0
H1094 H 0.60595 0.38731 0.98057 0.0
H1095 H 0.62542 0.39296 0.01229 0.0
H1096 H 0.58327 0.35013 0.96086 0.0
H1097 H 0.68351 0.40409 0.95996 0.0
H1098 H 0.74732 0.41961 0.96748 0.0
H1099 H 0.80299 0.36662 0.94023 0.0
H1100 H 0.73948 0.35061 0.93277 0.0
H1101 H 0.62493 0.36596 0.85612 0.0
H1102 H 0.62882 0.37807 0.88778 0.0
H1103 H 0.60641 0.31236 0.90613 0.0
H1104 H 0.60194 0.30027 0.87462 0.0
H1105 H 0.68096 0.36507 0.91295 0.0
H1106 H 0.55884 0.3135 0.94633 0.0
H1107 H 0.49489 0.29887 0.93785 0.0
H1108 H 0.48051 0.35068 0.89903 0.0
H1109 H 0.54405 0.36583 0.90748 0.0
C1110 C 0.69301 0.3554 1.00035 0.0
C1111 C 0.67327 0.3703 0.0114 0.0
C1112 C 0.68186 0.35223 0.9823 0.0
C1113 C 0.65074 0.36386 0.97489 0.0
C1114 C 0.6301 0.37821 0.98602 0.0
C1115 C 0.64142 0.38152 0.00408 0.0
C1116 C 0.641 0.36159 0.95532 0.0
C1117 C 0.60452 0.35347 0.95037 0.0
C1118 C 0.66846 0.3664 0.9416 0.0
C1119 C 0.70672 0.37607 0.94593 0.0
C1120 C 0.70936 0.39567 0.95568 0.0
C1121 C 0.74547 0.40456 0.95992 0.0
C1122 C 0.77919 0.39409 0.95437 0.0
C1123 C 0.77685 0.37471 0.94453 0.0
C1124 C 0.7408 0.36573 0.94028 0.0
C1125 C 0.62006 0.35421 0.86692 0.0
C1126 C 0.61328 0.33215 0.86289 0.0
C1127 C 0.62257 0.36111 0.88499 0.0
C1128 C 0.61783 0.34614 0.89933 0.0
C1129 C 0.60981 0.32425 0.89531 0.0
C1130 C 0.60755 0.31733 0.87729 0.0
C1131 C 0.62363 0.35298 0.91849 0.0
C1132 C 0.65948 0.36194 0.92339 0.0
C1133 C 0.5954 0.34918 0.93208 0.0
C1134 C 0.55638 0.34071 0.92747 0.0
C1135 C 0.5419 0.32189 0.9361 0.0
C1136 C 0.50574 0.31347 0.93127 0.0
C1137 C 0.4837 0.3238 0.91788 0.0
C1138 C 0.49764 0.34267 0.90938 0.0
C1139 C 0.53374 0.35116 0.91417 0.0
H1140 H 0.45581 0.3172 0.91409 0.0
H1141 H 0.80713 0.401 0.95766 0.0
H1142 H 0.83427 0.18212 0.51194 0.0
H1143 H 0.83835 0.18257 0.47893 0.0
H1144 H 0.86635 0.11415 0.47912 0.0
H1145 H 0.86438 0.11384 0.51239 0.0
H1146 H 0.91158 0.13462 0.45601 0.0
H1147 H 0.77616 0.13259 0.4654 0.0
H1148 H 0.71325 0.14292 0.4784 0.0
H1149 H 0.725 0.20713 0.45557 0.0
H1150 H 0.78825 0.1973 0.44265 0.0
H1151 H 0.87909 0.13563 0.35768 0.0
H1152 H 0.87666 0.12676 0.39026 0.0
H1153 H 0.86768 0.19509 0.40279 0.0
H1154 H 0.87121 0.20411 0.37053 0.0
H1155 H 0.80914 0.16887 0.41853 0.0
H1156 H 0.94873 0.17 0.41144 0.0
H1157 H 0.01015 0.1579 0.39795 0.0
H1158 H 0.98715 0.09234 0.41567 0.0
H1159 H 0.92531 0.10402 0.42907 0.0
C1160 C 0.84153 0.16716 0.50503 0.0
C1161 C 0.84913 0.14796 0.51491 0.0
C1162 C 0.84338 0.16737 0.48607 0.0
C1163 C 0.85214 0.14832 0.47644 0.0
C1164 C 0.85939 0.12905 0.48621 0.0
C1165 C 0.85783 0.12885 0.50525 0.0
C1166 C 0.85476 0.14891 0.45624 0.0
C1167 C 0.88882 0.14173 0.44779 0.0
C1168 C 0.82521 0.15822 0.44542 0.0
C1169 C 0.78711 0.16424 0.45316 0.0
C1170 C 0.76547 0.14897 0.46326 0.0
C1171 C 0.72972 0.15473 0.4706 0.0
C1172 C 0.71517 0.17568 0.46784 0.0
C1173 C 0.73631 0.19091 0.45771 0.0
C1174 C 0.7721 0.18524 0.45035 0.0
C1175 C 0.87744 0.14878 0.3674 0.0
C1176 C 0.87481 0.17057 0.36146 0.0
C1177 C 0.87585 0.14367 0.386 0.0
C1178 C 0.87159 0.16028 0.39891 0.0
C1179 C 0.87051 0.18202 0.39304 0.0
C1180 C 0.8724 0.18713 0.37457 0.0
C1181 C 0.8663 0.15525 0.4185 0.0
C1182 C 0.83161 0.16152 0.42678 0.0
C1183 C 0.89497 0.14481 0.42905 0.0
C1184 C 0.93219 0.13783 0.42106 0.0
C1185 C 0.9566 0.15297 0.41231 0.0
C1186 C 0.99153 0.14619 0.40472 0.0
C1187 C 0.00249 0.12435 0.4059 0.0
C1188 C 0.97859 0.10925 0.41474 0.0
C1189 C 0.94362 0.11594 0.42234 0.0
H1190 H 0.02954 0.11913 0.40001 0.0
H1191 H 0.68749 0.1801 0.47354 0.0
H1192 H 0.7978 0.89729 0.01022 0.0
H1193 H 0.80551 0.90136 0.97732 0.0
H1194 H 0.90004 0.85582 0.97841 0.0
H1195 H 0.89256 0.85174 0.01128 0.0
H1196 H 0.91877 0.88994 0.95828 0.0
H1197 H 0.81038 0.84158 0.96176 0.0
H1198 H 0.74603 0.82884 0.9716 0.0
H1199 H 0.69385 0.88483 0.94664 0.0
H1200 H 0.75799 0.89808 0.93686 0.0
H1201 H 0.92878 0.87295 0.86257 0.0
H1202 H 0.91733 0.86628 0.89503 0.0
H1203 H 0.83634 0.91943 0.89616 0.0
H1204 H 0.8478 0.92624 0.86373 0.0
H1205 H 0.81054 0.88071 0.91471 0.0
H1206 H 0.92011 0.92974 0.91304 0.0
H1207 H 0.98462 0.94174 0.90274 0.0
H1208 H 0.03417 0.88263 0.92352 0.0
H1209 H 0.96988 0.87032 0.934 0.0
C1210 C 0.81991 0.88794 0.00342 0.0
C1211 C 0.84459 0.87421 0.0134 0.0
C1212 C 0.82432 0.89029 0.9846 0.0
C1213 C 0.8532 0.87877 0.97532 0.0
C1214 C 0.87767 0.86495 0.98524 0.0
C1215 C 0.87339 0.86267 0.00405 0.0
C1216 C 0.85854 0.88149 0.95535 0.0
C1217 C 0.89516 0.8876 0.94877 0.0
C1218 C 0.82768 0.87884 0.94288 0.0
C1219 C 0.78905 0.87093 0.94874 0.0
C1220 C 0.78522 0.85127 0.9585 0.0
C1221 C 0.74877 0.84394 0.96404 0.0
C1222 C 0.71588 0.85605 0.95979 0.0
C1223 C 0.71936 0.87549 0.94995 0.0
C1224 C 0.75576 0.88291 0.94439 0.0
C1225 C 0.90821 0.88303 0.8697 0.0
C1226 C 0.8892 0.90012 0.86065 0.0
C1227 C 0.90188 0.8793 0.88824 0.0
C1228 C 0.8761 0.89243 0.89799 0.0
C1229 C 0.85633 0.90913 0.88887 0.0
C1230 C 0.86306 0.91306 0.8704 0.0
C1231 C 0.87057 0.88913 0.91781 0.0
C1232 C 0.83402 0.88296 0.9243 0.0
C1233 C 0.90147 0.89158 0.9302 0.0
C1234 C 0.9402 0.89904 0.92416 0.0
C1235 C 0.94475 0.91927 0.91534 0.0
C1236 C 0.98127 0.92615 0.90951 0.0
C1237 C 0.01345 0.91291 0.91238 0.0
C1238 C 0.00921 0.89285 0.92126 0.0
C1239 C 0.97277 0.88595 0.92722 0.0
H1240 H 0.04166 0.91821 0.90777 0.0
H1241 H 0.68768 0.85034 0.96409 0.0
H1242 H 0.75272 0.60783 0.49711 0.0
H1243 H 0.72442 0.60985 0.46677 0.0
H1244 H 0.61695 0.63183 0.48978 0.0
H1245 H 0.64523 0.63007 0.52025 0.0
H1246 H 0.60534 0.59983 0.46537 0.0
H1247 H 0.67626 0.66708 0.46708 0.0
H1248 H 0.73362 0.69039 0.47161 0.0
H1249 H 0.79331 0.65635 0.42929 0.0
H1250 H 0.73647 0.63262 0.42468 0.0
H1251 H 0.5144 0.6273 0.38271 0.0
H1252 H 0.54386 0.62938 0.41283 0.0
H1253 H 0.65383 0.61109 0.39004 0.0
H1254 H 0.62452 0.60959 0.3597 0.0
H1255 H 0.66408 0.64177 0.4145 0.0
H1256 H 0.59424 0.57391 0.41329 0.0
H1257 H 0.53716 0.55043 0.4087 0.0
H1258 H 0.47599 0.58517 0.45013 0.0
H1259 H 0.5326 0.60905 0.45483 0.0
C1260 C 0.72326 0.61346 0.49573 0.0
C1261 C 0.70132 0.6189 0.51115 0.0
C1262 C 0.70708 0.61455 0.47835 0.0
C1263 C 0.66867 0.6212 0.47596 0.0
C1264 C 0.64665 0.62665 0.4913 0.0
C1265 C 0.66283 0.62557 0.50871 0.0
C1266 C 0.65115 0.62178 0.45752 0.0
C1267 C 0.61785 0.60927 0.45431 0.0
C1268 C 0.66806 0.63362 0.44297 0.0
C1269 C 0.70222 0.64794 0.44565 0.0
C1270 C 0.70172 0.66445 0.45884 0.0
C1271 C 0.73412 0.67776 0.4614 0.0
C1272 C 0.76712 0.67482 0.45077 0.0
C1273 C 0.76774 0.65859 0.43752 0.0
C1274 C 0.73543 0.64522 0.43492 0.0
C1275 C 0.54486 0.6237 0.38414 0.0
C1276 C 0.5671 0.61806 0.36891 0.0
C1277 C 0.56166 0.62485 0.40136 0.0
C1278 C 0.60092 0.61993 0.40381 0.0
C1279 C 0.62346 0.61486 0.38852 0.0
C1280 C 0.60673 0.614 0.37121 0.0
C1281 C 0.61823 0.61981 0.42233 0.0
C1282 C 0.65152 0.63237 0.42556 0.0
C1283 C 0.60141 0.60794 0.43691 0.0
C1284 C 0.56753 0.59339 0.43429 0.0
C1285 C 0.56853 0.57662 0.42135 0.0
C1286 C 0.53626 0.56323 0.41873 0.0
C1287 C 0.5029 0.56635 0.42907 0.0
C1288 C 0.50182 0.58279 0.44211 0.0
C1289 C 0.53401 0.59624 0.44477 0.0
H1290 H 0.4779 0.55601 0.42701 0.0
H1291 H 0.79217 0.68514 0.45278 0.0
H1292 H 0.29501 0.65326 0.99135 0.0
H1293 H 0.29811 0.65257 0.02452 0.0
H1294 H 0.40292 0.61495 0.02211 0.0
H1295 H 0.39923 0.61487 0.98893 0.0
H1296 H 0.35703 0.59981 0.04839 0.0
H1297 H 0.40572 0.6696 0.03041 0.0
H1298 H 0.40536 0.70506 0.0145 0.0
H1299 H 0.30343 0.7236 0.04374 0.0
H1300 H 0.30285 0.6881 0.05964 0.0
H1301 H 0.41203 0.61973 0.1407 0.0
H1302 H 0.41267 0.61977 0.10732 0.0
H1303 H 0.30169 0.65142 0.10669 0.0
H1304 H 0.30095 0.65146 0.13994 0.0
H1305 H 0.35395 0.66964 0.08204 0.0
H1306 H 0.30536 0.59874 0.09935 0.0
H1307 H 0.30757 0.56338 0.11537 0.0
H1308 H 0.41242 0.54726 0.08742 0.0
H1309 H 0.41113 0.58269 0.07142 0.0
C1310 C 0.31841 0.64455 0.99786 0.0
C1311 C 0.347 0.63423 0.98744 0.0
C1312 C 0.32038 0.64438 0.01684 0.0
C1313 C 0.35113 0.63403 0.02582 0.0
C1314 C 0.37907 0.62317 0.01549 0.0
C1315 C 0.37708 0.62329 0.99651 0.0
C1316 C 0.35436 0.63478 0.04596 0.0
C1317 C 0.35692 0.6151 0.05571 0.0
C1318 C 0.35375 0.65471 0.05558 0.0
C1319 C 0.35404 0.6761 0.04608 0.0
C1320 C 0.38305 0.68117 0.03334 0.0
C1321 C 0.38304 0.70128 0.02434 0.0
C1322 C 0.35433 0.71655 0.02807 0.0
C1323 C 0.32562 0.71174 0.04084 0.0
C1324 C 0.32546 0.69163 0.04986 0.0
C1325 C 0.38797 0.62685 0.13341 0.0
C1326 C 0.35633 0.63546 0.14289 0.0
C1327 C 0.38826 0.62676 0.11437 0.0
C1328 C 0.35706 0.63545 0.10455 0.0
C1329 C 0.32599 0.64459 0.11401 0.0
C1330 C 0.3255 0.64448 0.13299 0.0
C1331 C 0.35629 0.63471 0.0844 0.0
C1332 C 0.35423 0.65438 0.07466 0.0
C1333 C 0.35766 0.6148 0.0748 0.0
C1334 C 0.35838 0.59346 0.08434 0.0
C1335 C 0.32907 0.58774 0.09674 0.0
C1336 C 0.33012 0.56767 0.10579 0.0
C1337 C 0.36018 0.55311 0.10246 0.0
C1338 C 0.38919 0.55857 0.09002 0.0
C1339 C 0.38831 0.57863 0.08094 0.0
H1340 H 0.36093 0.53758 0.10948 0.0
H1341 H 0.35438 0.73212 0.02109 0.0
H1342 H 0.23287 0.84665 0.50081 0.0
H1343 H 0.20877 0.84305 0.53175 0.0
H1344 H 0.11822 0.88903 0.51981 0.0
H1345 H 0.14366 0.89371 0.48903 0.0
H1346 H 0.14901 0.89917 0.55048 0.0
H1347 H 0.09978 0.83312 0.52671 0.0
H1348 H 0.10016 0.7983 0.51017 0.0
H1349 H 0.18421 0.77276 0.54742 0.0
H1350 H 0.18478 0.80754 0.56406 0.0
H1351 H 0.07483 0.87953 0.64032 0.0
H1352 H 0.07659 0.87881 0.6069 0.0
H1353 H 0.1853 0.84482 0.60886 0.0
H1354 H 0.18376 0.84563 0.6421 0.0
H1355 H 0.13305 0.82832 0.58243 0.0
H1356 H 0.18665 0.89757 0.60297 0.0
H1357 H 0.18341 0.9324 0.61946 0.0
H1358 H 0.08518 0.95147 0.58758 0.0
H1359 H 0.08756 0.91658 0.57106 0.0
C1360 C 0.20785 0.85605 0.50472 0.0
C1361 C 0.19044 0.8706 0.49238 0.0
C1362 C 0.1937 0.85373 0.5224 0.0
C1363 C 0.16129 0.86555 0.52814 0.0
C1364 C 0.14317 0.87966 0.51573 0.0
C1365 C 0.15755 0.88215 0.49804 0.0
C1366 C 0.1482 0.86423 0.54741 0.0
C1367 C 0.14464 0.88365 0.55731 0.0
C1368 C 0.14274 0.84402 0.5565 0.0
C1369 C 0.1425 0.82302 0.54657 0.0
C1370 C 0.11856 0.82014 0.53131 0.0
C1371 C 0.11857 0.8004 0.52192 0.0
C1372 C 0.14224 0.78334 0.52772 0.0
C1373 C 0.1659 0.78599 0.54295 0.0
C1374 C 0.16602 0.80571 0.55238 0.0
C1375 C 0.09876 0.87165 0.63357 0.0
C1376 C 0.12931 0.86278 0.64374 0.0
C1377 C 0.09981 0.87131 0.61453 0.0
C1378 C 0.1312 0.86186 0.60543 0.0
C1379 C 0.16082 0.85217 0.61561 0.0
C1380 C 0.16003 0.85276 0.63457 0.0
C1381 C 0.1348 0.86315 0.58536 0.0
C1382 C 0.13665 0.84377 0.57539 0.0
C1383 C 0.13816 0.88336 0.57614 0.0
C1384 C 0.13699 0.90438 0.58595 0.0
C1385 C 0.16418 0.90912 0.59958 0.0
C1386 C 0.16253 0.92888 0.60891 0.0
C1387 C 0.13403 0.94411 0.60461 0.0
C1388 C 0.10719 0.93964 0.59092 0.0
C1389 C 0.10869 0.91988 0.58157 0.0
H1390 H 0.1328 0.9594 0.61184 0.0
H1391 H 0.1422 0.76807 0.52044 0.0
H1392 H 0.18569 0.3044 0.38837 0.0
H1393 H 0.13962 0.28252 0.37085 0.0
H1394 H 0.22939 0.26706 0.33242 0.0
H1395 H 0.27486 0.28956 0.34928 0.0
H1396 H 0.16594 0.27618 0.31487 0.0
H1397 H 0.19891 0.23091 0.36635 0.0
H1398 H 0.205 0.22167 0.39889 0.0
H1399 H 0.08263 0.22922 0.4058 0.0
H1400 H 0.0759 0.23881 0.37333 0.0
H1401 H 0.10697 0.16974 0.2833 0.0
H1402 H 0.13852 0.19711 0.30209 0.0
H1403 H 0.02976 0.22975 0.30943 0.0
H1404 H 0.99807 0.20305 0.28961 0.0
H1405 H 0.0941 0.21458 0.34308 0.0
H1406 H 0.06295 0.2606 0.29063 0.0
H1407 H 0.05967 0.2691 0.25787 0.0
H1408 H 0.18167 0.2583 0.25292 0.0
H1409 H 0.1855 0.24935 0.28563 0.0
C1410 C 0.1955 0.29651 0.37609 0.0
C1411 C 0.23414 0.2986 0.37036 0.0
C1412 C 0.16921 0.28383 0.36618 0.0
C1413 C 0.18111 0.2729 0.35041 0.0
C1414 C 0.21947 0.27526 0.34455 0.0
C1415 C 0.24562 0.28796 0.35436 0.0
C1416 C 0.154 0.25893 0.33988 0.0
C1417 C 0.15028 0.26274 0.32111 0.0
C1418 C 0.13293 0.24155 0.34797 0.0
C1419 C 0.13698 0.23585 0.36748 0.0
C1420 C 0.17335 0.23079 0.37485 0.0
C1421 C 0.17691 0.22546 0.39327 0.0
C1422 C 0.14424 0.22493 0.40442 0.0
C1423 C 0.10792 0.22969 0.39716 0.0
C1424 C 0.10422 0.23507 0.37875 0.0
C1425 C 0.08977 0.18295 0.2885 0.0
C1426 C 0.05016 0.18449 0.28443 0.0
C1427 C 0.10783 0.19845 0.29944 0.0
C1428 C 0.08649 0.21551 0.30696 0.0
C1429 C 0.04671 0.21676 0.30357 0.0
C1430 C 0.02871 0.20148 0.29226 0.0
C1431 C 0.10641 0.23193 0.31826 0.0
C1432 C 0.10914 0.22838 0.33705 0.0
C1433 C 0.12677 0.24947 0.31024 0.0
C1434 C 0.12441 0.2541 0.2905 0.0
C1435 C 0.08896 0.25973 0.2825 0.0
C1436 C 0.08704 0.26475 0.26397 0.0
C1437 C 0.12047 0.26436 0.25335 0.0
C1438 C 0.15583 0.25872 0.2612 0.0
C1439 C 0.15788 0.25364 0.27972 0.0
H1440 H 0.11896 0.26836 0.23902 0.0
H1441 H 0.14705 0.22078 0.41867 0.0
H1442 H 0.27342 0.19357 0.86879 0.0
H1443 H 0.29665 0.22526 0.85191 0.0
H1444 H 0.41379 0.21003 0.86725 0.0
H1445 H 0.39056 0.17956 0.88552 0.0
H1446 H 0.40821 0.25103 0.86705 0.0
H1447 H 0.37179 0.1962 0.8243 0.0
H1448 H 0.32917 0.16941 0.80939 0.0
H1449 H 0.24982 0.2203 0.79517 0.0
H1450 H 0.29176 0.24737 0.81022 0.0
H1451 H 0.50299 0.301 0.79051 0.0
H1452 H 0.47605 0.27522 0.81262 0.0
H1453 H 0.36461 0.30573 0.80756 0.0
H1454 H 0.39165 0.33214 0.78603 0.0
H1455 H 0.36557 0.25894 0.80299 0.0
H1456 H 0.41095 0.31415 0.84442 0.0
H1457 H 0.45986 0.3389 0.85743 0.0
H1458 H 0.5305 0.28419 0.87191 0.0
H1459 H 0.48227 0.2591 0.85874 0.0
C1460 C 0.30405 0.19716 0.86895 0.0
C1461 C 0.33005 0.18364 0.87842 0.0
C1462 C 0.31741 0.21518 0.85902 0.0
C1463 C 0.35716 0.21979 0.85785 0.0
C1464 C 0.38302 0.20679 0.86775 0.0
C1465 C 0.36965 0.18907 0.87801 0.0
C1466 C 0.372 0.2377 0.84594 0.0
C1467 C 0.39908 0.25259 0.85301 0.0
C1468 C 0.36001 0.24 0.82759 0.0
C1469 C 0.33468 0.22376 0.81858 0.0
C1470 C 0.3451 0.20165 0.81812 0.0
C1471 C 0.32109 0.18642 0.80962 0.0
C1472 C 0.28675 0.19314 0.80139 0.0
C1473 C 0.27639 0.21511 0.80159 0.0
C1474 C 0.30027 0.23041 0.8101 0.0
C1475 C 0.47278 0.30234 0.79415 0.0
C1476 C 0.44919 0.31834 0.78613 0.0
C1477 C 0.4575 0.28763 0.80684 0.0
C1478 C 0.41836 0.28857 0.81167 0.0
C1479 C 0.39487 0.30469 0.80392 0.0
C1480 C 0.41029 0.31965 0.79147 0.0
C1481 C 0.40157 0.27205 0.82414 0.0
C1482 C 0.3743 0.25741 0.81711 0.0
C1483 C 0.41423 0.26965 0.84231 0.0
C1484 C 0.4431 0.28473 0.85043 0.0
C1485 C 0.43705 0.30739 0.85024 0.0
C1486 C 0.46464 0.32148 0.85767 0.0
C1487 C 0.49834 0.31312 0.86543 0.0
C1488 C 0.50442 0.29064 0.86586 0.0
C1489 C 0.47693 0.27647 0.85843 0.0
H1490 H 0.51967 0.32406 0.87115 0.0
H1491 H 0.26821 0.18132 0.79481 0.0
H1492 H 0.69169 0.18748 0.63058 0.0
H1493 H 0.64799 0.21162 0.64717 0.0
H1494 H 0.74457 0.25255 0.66186 0.0
H1495 H 0.78821 0.22856 0.64542 0.0
H1496 H 0.70122 0.24467 0.6906 0.0
H1497 H 0.67871 0.26776 0.62887 0.0
H1498 H 0.66138 0.26275 0.59664 0.0
H1499 H 0.54941 0.23881 0.61227 0.0
H1500 H 0.56627 0.2434 0.64462 0.0
H1501 H 0.55528 0.34101 0.69787 0.0
H1502 H 0.59482 0.31669 0.67927 0.0
H1503 H 0.58525 0.26665 0.72051 0.0
H1504 H 0.54751 0.29126 0.73942 0.0
H1505 H 0.58546 0.27939 0.6635 0.0
H1506 H 0.66374 0.23533 0.72191 0.0
H1507 H 0.68304 0.24148 0.75376 0.0
H1508 H 0.68866 0.31036 0.74389 0.0
H1509 H 0.66954 0.30466 0.71188 0.0
C1510 C 0.7035 0.20176 0.63719 0.0
C1511 C 0.74346 0.20603 0.63677 0.0
C1512 C 0.67851 0.21554 0.64667 0.0
C1513 C 0.69296 0.23397 0.65573 0.0
C1514 C 0.73275 0.23837 0.6551 0.0
C1515 C 0.75769 0.2246 0.64572 0.0
C1516 C 0.66706 0.24843 0.66632 0.0
C1517 C 0.6759 0.25226 0.68465 0.0
C1518 C 0.63411 0.25843 0.6586 0.0
C1519 C 0.6239 0.25573 0.63916 0.0
C1520 C 0.6505 0.26127 0.62543 0.0
C1521 C 0.64075 0.25853 0.60715 0.0
C1522 C 0.60436 0.25041 0.60241 0.0
C1523 C 0.57761 0.24507 0.61596 0.0
C1524 C 0.58724 0.24775 0.63427 0.0
C1525 C 0.56155 0.32477 0.70288 0.0
C1526 C 0.54874 0.31806 0.72013 0.0
C1527 C 0.5841 0.31087 0.69226 0.0
C1528 C 0.59378 0.28995 0.69862 0.0
C1529 C 0.57925 0.28291 0.7155 0.0
C1530 C 0.55749 0.29694 0.72626 0.0
C1531 C 0.61968 0.27568 0.68779 0.0
C1532 C 0.61077 0.27181 0.66945 0.0
C1533 C 0.65291 0.26582 0.69545 0.0
C1534 C 0.66489 0.26957 0.71455 0.0
C1535 C 0.6692 0.2518 0.72651 0.0
C1536 C 0.68002 0.25522 0.74458 0.0
C1537 C 0.68685 0.27633 0.75083 0.0
C1538 C 0.68306 0.29407 0.739 0.0
C1539 C 0.6722 0.29076 0.72091 0.0
H1540 H 0.6952 0.27896 0.76484 0.0
H1541 H 0.59686 0.24831 0.58825 0.0
H1542 H 0.78506 0.32562 0.15419 0.0
H1543 H 0.81367 0.29717 0.17315 0.0
H1544 H 0.85581 0.26483 0.12523 0.0
H1545 H 0.82614 0.29288 0.1061 0.0
H1546 H 0.82843 0.23563 0.14982 0.0
H1547 H 0.91553 0.29657 0.15016 0.0
H1548 H 0.93473 0.33499 0.15411 0.0
H1549 H 0.90111 0.33198 0.21025 0.0
H1550 H 0.88118 0.2936 0.20656 0.0
H1551 H 0.96765 0.16942 0.195 0.0
H1552 H 0.93605 0.19586 0.17504 0.0
H1553 H 0.89477 0.2308 0.22185 0.0
H1554 H 0.92711 0.20485 0.24188 0.0
H1555 H 0.92219 0.2583 0.19718 0.0
H1556 H 0.83537 0.19663 0.19656 0.0
H1557 H 0.81777 0.15801 0.19219 0.0
H1558 H 0.85267 0.16207 0.1363 0.0
H1559 H 0.87085 0.20066 0.14035 0.0
C1560 C 0.79981 0.31227 0.14764 0.0
C1561 C 0.80346 0.31163 0.1286 0.0
C1562 C 0.8165 0.29612 0.15852 0.0
C1563 C 0.83743 0.27904 0.15064 0.0
C1564 C 0.83999 0.27791 0.13163 0.0
C1565 C 0.82328 0.29406 0.12072 0.0
C1566 C 0.85765 0.26279 0.16225 0.0
C1567 C 0.84925 0.24055 0.16004 0.0
C1568 C 0.88445 0.26922 0.17576 0.0
C1569 C 0.8965 0.29228 0.17804 0.0
C1570 C 0.91194 0.30415 0.16331 0.0
C1571 C 0.92301 0.32591 0.16551 0.0
C1572 C 0.91905 0.33594 0.18241 0.0
C1573 C 0.90411 0.3242 0.19716 0.0
C1574 C 0.89295 0.30244 0.19503 0.0
C1575 C 0.95192 0.18275 0.20106 0.0
C1576 C 0.94977 0.18492 0.22006 0.0
C1577 C 0.93364 0.19778 0.18962 0.0
C1578 C 0.91253 0.21515 0.19694 0.0
C1579 C 0.91078 0.2175 0.21588 0.0
C1580 C 0.92921 0.20258 0.22732 0.0
C1581 C 0.89269 0.23113 0.18492 0.0
C1582 C 0.90127 0.25335 0.18701 0.0
C1583 C 0.86618 0.22464 0.17128 0.0
C1584 C 0.85478 0.2015 0.1688 0.0
C1585 C 0.83951 0.18926 0.18337 0.0
C1586 C 0.82942 0.16738 0.18095 0.0
C1587 C 0.83424 0.15758 0.16401 0.0
C1588 C 0.84901 0.16967 0.14942 0.0
C1589 C 0.85915 0.19156 0.15176 0.0
H1590 H 0.82644 0.14064 0.16216 0.0
H1591 H 0.92764 0.35279 0.18409 0.0
H1592 H 0.87808 0.66781 0.63797 0.0
H1593 H 0.89887 0.69796 0.65714 0.0
H1594 H 0.79186 0.73132 0.64641 0.0
H1595 H 0.77037 0.7009 0.62736 0.0
H1596 H 0.85615 0.75872 0.64432 0.0
H1597 H 0.80282 0.70664 0.68614 0.0
H1598 H 0.79417 0.67031 0.70006 0.0
H1599 H 0.91385 0.66947 0.71537 0.0
H1600 H 0.92336 0.70567 0.7013 0.0
H1601 H 0.89446 0.83729 0.71326 0.0
H1602 H 0.86325 0.80915 0.6949 0.0
H1603 H 0.95836 0.76574 0.70571 0.0
H1604 H 0.98848 0.79334 0.7249 0.0
H1605 H 0.89301 0.74429 0.70843 0.0
H1606 H 0.9483 0.79433 0.66474 0.0
H1607 H 0.9587 0.83035 0.65049 0.0
H1608 H 0.83763 0.83476 0.63838 0.0
H1609 H 0.82644 0.79887 0.65279 0.0
C1610 C 0.8587 0.68142 0.63981 0.0
C1611 C 0.82231 0.68178 0.63129 0.0
C1612 C 0.87074 0.6987 0.65072 0.0
C1613 C 0.84669 0.71674 0.6534 0.0
C1614 C 0.81081 0.71751 0.64454 0.0
C1615 C 0.79864 0.70015 0.63362 0.0
C1616 C 0.8592 0.7346 0.66562 0.0
C1617 C 0.8636 0.75568 0.65843 0.0
C1618 C 0.86956 0.73051 0.68393 0.0
C1619 C 0.86386 0.7088 0.69254 0.0
C1620 C 0.82736 0.69864 0.69236 0.0
C1621 C 0.82229 0.67808 0.7003 0.0
C1622 C 0.85346 0.66757 0.70856 0.0
C1623 C 0.88974 0.67763 0.70895 0.0
C1624 C 0.89498 0.69818 0.70101 0.0
C1625 C 0.90839 0.82163 0.71194 0.0
C1626 C 0.94367 0.81745 0.7207 0.0
C1627 C 0.89076 0.80565 0.70125 0.0
C1628 C 0.90862 0.78537 0.69875 0.0
C1629 C 0.94396 0.78123 0.70745 0.0
C1630 C 0.96132 0.7971 0.7183 0.0
C1631 C 0.89084 0.76838 0.68706 0.0
C1632 C 0.88531 0.74742 0.69437 0.0
C1633 C 0.87973 0.77257 0.66883 0.0
C1634 C 0.88648 0.79402 0.66 0.0
C1635 C 0.92386 0.80305 0.65914 0.0
C1636 C 0.9299 0.82343 0.65103 0.0
C1637 C 0.89883 0.83486 0.64358 0.0
C1638 C 0.86166 0.8259 0.64418 0.0
C1639 C 0.85546 0.80553 0.65231 0.0
H1640 H 0.90356 0.85064 0.63731 0.0
H1641 H 0.84948 0.65165 0.71469 0.0
H1642 H 0.68652 0.79183 0.10607 0.0
H1643 H 0.64502 0.76652 0.1231 0.0
H1644 H 0.6794 0.79713 0.17326 0.0
H1645 H 0.72041 0.82251 0.15635 0.0
H1646 H 0.66145 0.73656 0.1469 0.0
H1647 H 0.60929 0.79387 0.20468 0.0
H1648 H 0.59238 0.83252 0.20882 0.0
H1649 H 0.56622 0.83831 0.15196 0.0
H1650 H 0.58243 0.79963 0.14752 0.0
H1651 H 0.60312 0.67445 0.22226 0.0
H1652 H 0.63244 0.70146 0.20223 0.0
H1653 H 0.51995 0.72798 0.19039 0.0
H1654 H 0.49043 0.70162 0.21131 0.0
H1655 H 0.56901 0.75991 0.19443 0.0
H1656 H 0.56814 0.69457 0.15987 0.0
H1657 H 0.57969 0.65564 0.15391 0.0
H1658 H 0.70179 0.66568 0.16016 0.0
H1659 H 0.69093 0.70462 0.16641 0.0
C1660 C 0.68504 0.79322 0.12072 0.0
C1661 C 0.70659 0.80929 0.12984 0.0
C1662 C 0.6613 0.77875 0.13044 0.0
C1663 C 0.65866 0.78003 0.14947 0.0
C1664 C 0.68015 0.79609 0.15857 0.0
C1665 C 0.70362 0.81063 0.14887 0.0
C1666 C 0.63485 0.76404 0.15993 0.0
C1667 C 0.64111 0.7417 0.15722 0.0
C1668 C 0.60763 0.77064 0.17317 0.0
C1669 C 0.59742 0.79388 0.17575 0.0
C1670 C 0.59976 0.80336 0.19307 0.0
C1671 C 0.59033 0.82528 0.19547 0.0
C1672 C 0.57834 0.83788 0.18066 0.0
C1673 C 0.57564 0.82856 0.16341 0.0
C1674 C 0.585 0.80664 0.16095 0.0
C1675 C 0.58452 0.68616 0.21563 0.0
C1676 C 0.54437 0.68595 0.2186 0.0
C1677 C 0.60136 0.70148 0.20395 0.0
C1678 C 0.5784 0.71659 0.19453 0.0
C1679 C 0.5383 0.71648 0.19748 0.0
C1680 C 0.52143 0.70132 0.20939 0.0
C1681 C 0.59643 0.7325 0.18171 0.0
C1682 C 0.58912 0.7548 0.184 0.0
C1683 C 0.62194 0.72585 0.16776 0.0
C1684 C 0.62868 0.7025 0.16372 0.0
C1685 C 0.59744 0.68846 0.16006 0.0
C1686 C 0.60387 0.66639 0.15663 0.0
C1687 C 0.64145 0.65819 0.15668 0.0
C1688 C 0.6727 0.67206 0.16012 0.0
C1689 C 0.66643 0.69414 0.16359 0.0
H1690 H 0.64636 0.64109 0.15404 0.0
H1691 H 0.57108 0.85485 0.18254 0.0
H1692 H 0.26351 0.81026 0.36119 0.0
H1693 H 0.28819 0.78096 0.34197 0.0
H1694 H 0.40319 0.79249 0.3625 0.0
H1695 H 0.37878 0.82186 0.38152 0.0
H1696 H 0.40634 0.78812 0.32738 0.0
H1697 H 0.34743 0.74813 0.37631 0.0
H1698 H 0.29494 0.73721 0.39715 0.0
H1699 H 0.22637 0.7161 0.35185 0.0
H1700 H 0.27828 0.72718 0.33071 0.0
H1701 H 0.45324 0.6679 0.30642 0.0
H1702 H 0.42435 0.69549 0.32596 0.0
H1703 H 0.39953 0.73525 0.27892 0.0
H1704 H 0.42853 0.70774 0.25924 0.0
H1705 H 0.35165 0.71324 0.32766 0.0
H1706 H 0.41699 0.7878 0.29038 0.0
H1707 H 0.47468 0.79714 0.27214 0.0
H1708 H 0.53891 0.74682 0.29922 0.0
H1709 H 0.48171 0.73726 0.3176 0.0
C1710 C 0.29397 0.80638 0.36172 0.0
C1711 C 0.31921 0.81842 0.37283 0.0
C1712 C 0.30807 0.78964 0.35072 0.0
C1713 C 0.34757 0.7844 0.35083 0.0
C1714 C 0.37267 0.79629 0.36207 0.0
C1715 C 0.35868 0.81309 0.37293 0.0
C1716 C 0.3631 0.76685 0.33904 0.0
C1717 C 0.3942 0.77179 0.32744 0.0
C1718 C 0.34781 0.74539 0.33924 0.0
C1719 C 0.31658 0.73869 0.35192 0.0
C1720 C 0.32104 0.74132 0.37078 0.0
C1721 C 0.29141 0.73507 0.38265 0.0
C1722 C 0.2573 0.72602 0.37583 0.0
C1723 C 0.25278 0.72315 0.35712 0.0
C1724 C 0.28231 0.72939 0.34519 0.0
C1725 C 0.44155 0.68248 0.3002 0.0
C1726 C 0.44326 0.68565 0.28126 0.0
C1727 C 0.42484 0.69817 0.3114 0.0
C1728 C 0.40995 0.71746 0.30392 0.0
C1729 C 0.41109 0.72054 0.28499 0.0
C1730 C 0.42757 0.70478 0.27376 0.0
C1731 C 0.39445 0.73466 0.31597 0.0
C1732 C 0.36344 0.72965 0.32757 0.0
C1733 C 0.41038 0.75592 0.31612 0.0
C1734 C 0.44497 0.7617 0.30521 0.0
C1735 C 0.44346 0.77877 0.29244 0.0
C1736 C 0.47605 0.78407 0.28206 0.0
C1737 C 0.51038 0.77251 0.28445 0.0
C1738 C 0.51224 0.75567 0.29727 0.0
C1739 C 0.47973 0.75027 0.30764 0.0
H1740 H 0.53558 0.77663 0.2764 0.0
H1741 H 0.23439 0.72119 0.38504 0.0
H1742 H 0.18825 0.6746 0.85625 0.0
H1743 H 0.14768 0.7001 0.83931 0.0
H1744 H 0.19838 0.75387 0.86839 0.0
H1745 H 0.24018 0.72867 0.88493 0.0
H1746 H 0.11526 0.75632 0.86358 0.0
H1747 H 0.23224 0.74458 0.82891 0.0
H1748 H 0.28094 0.72172 0.81382 0.0
H1749 H 0.19327 0.69481 0.77916 0.0
H1750 H 0.14393 0.71728 0.79425 0.0
H1751 H 0.05607 0.84248 0.80526 0.0
H1752 H 0.09252 0.81741 0.82472 0.0
H1753 H 0.0689 0.76502 0.78729 0.0
H1754 H 0.03452 0.79041 0.76738 0.0
H1755 H 0.13821 0.76164 0.79713 0.0
H1756 H 0.02081 0.77222 0.83033 0.0
H1757 H 0.96968 0.79361 0.84515 0.0
H1758 H 0.05288 0.82032 0.88226 0.0
H1759 H 0.10463 0.79932 0.86748 0.0
C1760 C 0.19093 0.69184 0.85906 0.0
C1761 C 0.21789 0.69952 0.87187 0.0
C1762 C 0.16748 0.70637 0.84944 0.0
C1763 C 0.17026 0.72886 0.85252 0.0
C1764 C 0.19572 0.73655 0.86587 0.0
C1765 C 0.21949 0.72206 0.87537 0.0
C1766 C 0.14842 0.74442 0.84102 0.0
C1767 C 0.12042 0.75769 0.84907 0.0
C1768 C 0.15462 0.74576 0.82205 0.0
C1769 C 0.18435 0.73245 0.81283 0.0
C1770 C 0.2233 0.73367 0.81817 0.0
C1771 C 0.25103 0.7208 0.8096 0.0
C1772 C 0.24019 0.70678 0.79557 0.0
C1773 C 0.20161 0.70565 0.79005 0.0
C1774 C 0.17377 0.71846 0.79859 0.0
C1775 C 0.05866 0.82557 0.8013 0.0
C1776 C 0.04254 0.81828 0.78492 0.0
C1777 C 0.07928 0.81121 0.81244 0.0
C1778 C 0.08294 0.78913 0.8077 0.0
C1779 C 0.0666 0.78192 0.79129 0.0
C1780 C 0.04688 0.79639 0.77994 0.0
C1781 C 0.10441 0.77359 0.81957 0.0
C1782 C 0.13263 0.76031 0.8116 0.0
C1783 C 0.09784 0.772 0.83857 0.0
C1784 C 0.06665 0.78433 0.8477 0.0
C1785 C 0.02823 0.78274 0.84159 0.0
C1786 C 0.99914 0.79479 0.84999 0.0
C1787 C 0.00804 0.80835 0.86461 0.0
C1788 C 0.04604 0.80982 0.87092 0.0
C1789 C 0.07526 0.79783 0.86255 0.0
H1790 H 0.98549 0.8177 0.87108 0.0
H1791 H 0.26169 0.69683 0.78896 0.0
loop_
_geom_bond_atom_site_label_1
_geom_bond_atom_site_label_2
_geom_bond_distance
_geom_bond_site_symmetry_2
_ccdc_geom_bond_type
P0 O11 1.490 . S
P0 C14 1.812 . S
P0 C20 1.803 . S
P0 C26 1.819 . S
H1 C15 0.941 . S
H2 C16 0.939 . S
H3 C18 0.940 . S
H4 C19 0.940 . S
H5 C21 0.939 . S
H6 C22 0.942 . S
H7 C24 0.940 . S
H8 C25 0.939 . S
H9 C27 0.941 . S
H10 C31 0.939 . S
O11 P0 1.490 . S
H12 C28 0.939 . S
H13 C30 0.940 . S
C14 P0 1.812 . S
C14 C15 1.389 . S
C14 C19 1.391 . S
C15 H1 0.941 . S
C15 C14 1.389 . S
C15 C16 1.397 . S
C16 H2 0.939 . S
C16 C15 1.397 . S
C16 C17 1.378 . S
C17 C16 1.378 . S
C17 C18 1.378 . S
C18 H3 0.940 . S
C18 C17 1.378 . S
C18 C19 1.396 . S
C19 H4 0.940 . S
C19 C14 1.391 . S
C19 C18 1.396 . S
C20 P0 1.803 . S
C20 C21 1.378 . S
C20 C25 1.400 . S
C21 H5 0.939 . S
C21 C20 1.378 . S
C21 C22 1.361 . S
C22 H6 0.942 . S
C22 C21 1.361 . S
C22 C23 1.369 . S
C23 C22 1.369 . S
C23 C24 1.404 . S
C24 H7 0.940 . S
C24 C23 1.404 . S
C24 C25 1.389 . S
C25 H8 0.939 . S
C25 C20 1.400 . S
C25 C24 1.389 . S
C26 P0 1.819 . S
C26 C27 1.391 . S
C26 C31 1.391 . S
C27 H9 0.941 . S
C27 C26 1.391 . S
C27 C28 1.396 . S
C28 H12 0.939 . S
C28 C27 1.396 . S
C28 C29 1.397 . S
C29 C28 1.397 . S
C29 C30 1.385 . S
C30 H13 0.940 . S
C30 C29 1.385 . S
C30 C31 1.388 . S
C31 H10 0.939 . S
C31 C26 1.391 . S
C31 C30 1.388 . S
P32 O43 1.490 . S
P32 C46 1.812 . S
P32 C52 1.803 . S
P32 C58 1.819 . S
H33 C47 0.941 . S
H34 C48 0.939 . S
H35 C50 0.940 . S
H36 C51 0.940 . S
H37 C53 0.939 . S
H38 C54 0.942 . S
H39 C56 0.940 . S
H40 C57 0.939 . S
H41 C59 0.941 . S
H42 C63 0.939 . S
O43 P32 1.490 . S
H44 C60 0.939 . S
H45 C62 0.940 . S
C46 P32 1.812 . S
C46 C47 1.389 . S
C46 C51 1.391 . S
C47 H33 0.941 . S
C47 C46 1.389 . S
C47 C48 1.397 . S
C48 H34 0.939 . S
C48 C47 1.397 . S
C48 C49 1.378 . S
C49 C48 1.378 . S
C49 C50 1.378 . S
C50 H35 0.940 . S
C50 C49 1.378 . S
C50 C51 1.396 . S
C51 H36 0.940 . S
C51 C46 1.391 . S
C51 C50 1.396 . S
C52 P32 1.803 . S
C52 C53 1.378 . S
C52 C57 1.400 . S
C53 H37 0.939 . S
C53 C52 1.378 . S
C53 C54 1.361 . S
C54 H38 0.942 . S
C54 C53 1.361 . S
C54 C55 1.369 . S
C55 C54 1.369 . S
C55 C56 1.404 . S
C56 H39 0.940 . S
C56 C55 1.404 . S
C56 C57 1.389 . S
C57 H40 0.939 . S
C57 C52 1.400 . S
C57 C56 1.389 . S
C58 P32 1.819 . S
C58 C59 1.391 . S
C58 C63 1.391 . S
C59 H41 0.941 . S
C59 C58 1.391 . S
C59 C60 1.396 . S
C60 H44 0.939 . S
C60 C59 1.396 . S
C60 C61 1.397 . S
C61 C60 1.397 . S
C61 C62 1.385 . S
C62 H45 0.940 . S
C62 C61 1.385 . S
C62 C63 1.388 . S
C63 H42 0.939 . S
C63 C58 1.391 . S
C63 C62 1.388 . S
P64 O75 1.490 . S
P64 C78 1.812 . S
P64 C84 1.803 . S
P64 C90 1.819 . S
H65 C79 0.941 . S
H66 C80 0.939 . S
H67 C82 0.940 . S
H68 C83 0.940 . S
H69 C85 0.939 . S
H70 C86 0.942 . S
H71 C88 0.940 . S
H72 C89 0.939 . S
H73 C91 0.941 . S
H74 C95 0.939 . S
O75 P64 1.490 . S
H76 C92 0.939 . S
H77 C94 0.940 . S
C78 P64 1.812 . S
C78 C79 1.389 . S
C78 C83 1.391 . S
C79 H65 0.941 . S
C79 C78 1.389 . S
C79 C80 1.397 . S
C80 H66 0.939 . S
C80 C79 1.397 . S
C80 C81 1.378 . S
C81 C80 1.378 . S
C81 C82 1.378 . S
C82 H67 0.940 . S
C82 C81 1.378 . S
C82 C83 1.396 . S
C83 H68 0.940 . S
C83 C78 1.391 . S
C83 C82 1.396 . S
C84 P64 1.803 . S
C84 C85 1.378 . S
C84 C89 1.400 . S
C85 H69 0.939 . S
C85 C84 1.378 . S
C85 C86 1.361 . S
C86 H70 0.942 . S
C86 C85 1.361 . S
C86 C87 1.369 . S
C87 C86 1.369 . S
C87 C88 1.404 . S
C88 H71 0.940 . S
C88 C87 1.404 . S
C88 C89 1.389 . S
C89 H72 0.939 . S
C89 C84 1.400 . S
C89 C88 1.389 . S
C90 P64 1.819 . S
C90 C91 1.391 . S
C90 C95 1.391 . S
C91 H73 0.941 . S
C91 C90 1.391 . S
C91 C92 1.396 . S
C92 H76 0.939 . S
C92 C91 1.396 . S
C92 C93 1.397 . S
C93 C92 1.397 . S
C93 C94 1.385 . S
C94 H77 0.940 . S
C94 C93 1.385 . S
C94 C95 1.388 . S
C95 H74 0.939 . S
C95 C90 1.391 . S
C95 C94 1.388 . S
P96 O107 1.490 . S
P96 C110 1.812 . S
P96 C116 1.803 . S
P96 C122 1.819 . S
H97 C111 0.941 . S
H98 C112 0.939 . S
H99 C114 0.940 . S
H100 C115 0.940 . S
H101 C117 0.939 . S
H102 C118 0.942 . S
H103 C120 0.940 . S
H104 C121 0.939 . S
H105 C123 0.941 . S
H106 C127 0.939 . S
O107 P96 1.490 . S
H108 C124 0.939 . S
H109 C126 0.940 . S
C110 P96 1.812 . S
C110 C111 1.389 . S
C110 C115 1.391 . S
C111 H97 0.941 . S
C111 C110 1.389 . S
C111 C112 1.397 . S
C112 H98 0.939 . S
C112 C111 1.397 . S
C112 C113 1.378 . S
C113 C112 1.378 . S
C113 C114 1.378 . S
C114 H99 0.940 . S
C114 C113 1.378 . S
C114 C115 1.396 . S
C115 H100 0.940 . S
C115 C110 1.391 . S
C115 C114 1.396 . S
C116 P96 1.803 . S
C116 C117 1.378 . S
C116 C121 1.400 . S
C117 H101 0.939 . S
C117 C116 1.378 . S
C117 C118 1.361 . S
C118 H102 0.942 . S
C118 C117 1.361 . S
C118 C119 1.369 . S
C119 C118 1.369 . S
C119 C120 1.404 . S
C120 H103 0.940 . S
C120 C119 1.404 . S
C120 C121 1.389 . S
C121 H104 0.939 . S
C121 C116 1.400 . S
C121 C120 1.389 . S
C122 P96 1.819 . S
C122 C123 1.391 . S
C122 C127 1.391 . S
C123 H105 0.941 . S
C123 C122 1.391 . S
C123 C124 1.396 . S
C124 H108 0.939 . S
C124 C123 1.396 . S
C124 C125 1.397 . S
C125 C124 1.397 . S
C125 C126 1.385 . S
C126 H109 0.940 . S
C126 C125 1.385 . S
C126 C127 1.388 . S
C127 H106 0.939 . S
C127 C122 1.391 . S
C127 C126 1.388 . S
P128 O139 1.490 . S
P128 C142 1.812 . S
P128 C148 1.803 . S
P128 C154 1.819 . S
H129 C143 0.941 . S
H130 C144 0.939 . S
H131 C146 0.940 . S
H132 C147 0.940 . S
H133 C149 0.939 . S
H134 C150 0.942 . S
H135 C152 0.940 . S
H136 C153 0.939 . S
H137 C155 0.941 . S
H138 C159 0.939 . S
O139 P128 1.490 . S
H140 C156 0.939 . S
H141 C158 0.940 . S
C142 P128 1.812 . S
C142 C143 1.389 . S
C142 C147 1.391 . S
C143 H129 0.941 . S
C143 C142 1.389 . S
C143 C144 1.397 . S
C144 H130 0.939 . S
C144 C143 1.397 . S
C144 C145 1.378 . S
C145 C144 1.378 . S
C145 C146 1.378 . S
C146 H131 0.940 . S
C146 C145 1.378 . S
C146 C147 1.396 . S
C147 H132 0.940 . S
C147 C142 1.391 . S
C147 C146 1.396 . S
C148 P128 1.803 . S
C148 C149 1.378 . S
C148 C153 1.400 . S
C149 H133 0.939 . S
C149 C148 1.378 . S
C149 C150 1.361 . S
C150 H134 0.942 . S
C150 C149 1.361 . S
C150 C151 1.369 . S
C151 C150 1.369 . S
C151 C152 1.404 . S
C152 H135 0.940 . S
C152 C151 1.404 . S
C152 C153 1.389 . S
C153 H136 0.939 . S
C153 C148 1.400 . S
C153 C152 1.389 . S
C154 P128 1.819 . S
C154 C155 1.391 . S
C154 C159 1.391 . S
C155 H137 0.941 . S
C155 C154 1.391 . S
C155 C156 1.396 . S
C156 H140 0.939 . S
C156 C155 1.396 . S
C156 C157 1.397 . S
C157 C156 1.397 . S
C157 C158 1.385 . S
C158 H141 0.940 . S
C158 C157 1.385 . S
C158 C159 1.388 . S
C159 H138 0.939 . S
C159 C154 1.391 . S
C159 C158 1.388 . S
P160 O171 1.490 . S
P160 C174 1.812 . S
P160 C180 1.803 . S
P160 C186 1.819 . S
H161 C175 0.941 . S
H162 C176 0.939 . S
H163 C178 0.940 . S
H164 C179 0.940 . S
H165 C181 0.939 . S
H166 C182 0.942 . S
H167 C184 0.940 . S
H168 C185 0.939 . S
H169 C187 0.941 . S
H170 C191 0.939 . S
O171 P160 1.490 . S
H172 C188 0.939 . S
H173 C190 0.940 . S
C174 P160 1.812 . S
C174 C175 1.389 . S
C174 C179 1.391 . S
C175 H161 0.941 . S
C175 C174 1.389 . S
C175 C176 1.397 . S
C176 H162 0.939 . S
C176 C175 1.397 . S
C176 C177 1.378 . S
C177 C176 1.378 . S
C177 C178 1.378 . S
C178 H163 0.940 . S
C178 C177 1.378 . S
C178 C179 1.396 . S
C179 H164 0.940 . S
C179 C174 1.391 . S
C179 C178 1.396 . S
C180 P160 1.803 . S
C180 C181 1.378 . S
C180 C185 1.400 . S
C181 H165 0.939 . S
C181 C180 1.378 . S
C181 C182 1.361 . S
C182 H166 0.942 . S
C182 C181 1.361 . S
C182 C183 1.369 . S
C183 C182 1.369 . S
C183 C184 1.404 . S
C184 H167 0.940 . S
C184 C183 1.404 . S
C184 C185 1.389 . S
C185 H168 0.939 . S
C185 C180 1.400 . S
C185 C184 1.389 . S
C186 P160 1.819 . S
C186 C187 1.391 . S
C186 C191 1.391 . S
C187 H169 0.941 . S
C187 C186 1.391 . S
C187 C188 1.396 . S
C188 H172 0.939 . S
C188 C187 1.396 . S
C188 C189 1.397 . S
C189 C188 1.397 . S
C189 C190 1.385 . S
C190 H173 0.940 . S
C190 C189 1.385 . S
C190 C191 1.388 . S
C191 H170 0.939 . S
C191 C186 1.391 . S
C191 C190 1.388 . S
P192 O203 1.490 . S
P192 C206 1.812 . S
P192 C212 1.803 . S
P192 C218 1.819 . S
H193 C207 0.941 . S
H194 C208 0.939 . S
H195 C210 0.940 . S
H196 C211 0.940 . S
H197 C213 0.939 . S
H198 C214 0.942 . S
H199 C216 0.940 . S
H200 C217 0.939 . S
H201 C219 0.941 . S
H202 C223 0.939 . S
O203 P192 1.490 . S
H204 C220 0.939 . S
H205 C222 0.940 . S
C206 P192 1.812 . S
C206 C207 1.389 . S
C206 C211 1.391 . S
C207 H193 0.941 . S
C207 C206 1.389 . S
C207 C208 1.397 . S
C208 H194 0.939 . S
C208 C207 1.397 . S
C208 C209 1.378 . S
C209 C208 1.378 . S
C209 C210 1.378 . S
C210 H195 0.940 . S
C210 C209 1.378 . S
C210 C211 1.396 . S
C211 H196 0.940 . S
C211 C206 1.391 . S
C211 C210 1.396 . S
C212 P192 1.803 . S
C212 C213 1.378 . S
C212 C217 1.400 . S
C213 H197 0.939 . S
C213 C212 1.378 . S
C213 C214 1.361 . S
C214 H198 0.942 . S
C214 C213 1.361 . S
C214 C215 1.369 . S
C215 C214 1.369 . S
C215 C216 1.404 . S
C216 H199 0.940 . S
C216 C215 1.404 . S
C216 C217 1.389 . S
C217 H200 0.939 . S
C217 C212 1.400 . S
C217 C216 1.389 . S
C218 P192 1.819 . S
C218 C219 1.391 . S
C218 C223 1.391 . S
C219 H201 0.941 . S
C219 C218 1.391 . S
C219 C220 1.396 . S
C220 H204 0.939 . S
C220 C219 1.396 . S
C220 C221 1.397 . S
C221 C220 1.397 . S
C221 C222 1.385 . S
C222 H205 0.940 . S
C222 C221 1.385 . S
C222 C223 1.388 . S
C223 H202 0.939 . S
C223 C218 1.391 . S
C223 C222 1.388 . S
P224 O235 1.490 . S
P224 C238 1.812 . S
P224 C244 1.803 . S
P224 C250 1.819 . S
H225 C239 0.941 . S
H226 C240 0.939 . S
H227 C242 0.940 . S
H228 C243 0.940 . S
H229 C245 0.939 . S
H230 C246 0.942 . S
H231 C248 0.940 . S
H232 C249 0.939 . S
H233 C251 0.941 . S
H234 C255 0.939 . S
O235 P224 1.490 . S
H236 C252 0.939 . S
H237 C254 0.940 . S
C238 P224 1.812 . S
C238 C239 1.389 . S
C238 C243 1.391 . S
C239 H225 0.941 . S
C239 C238 1.389 . S
C239 C240 1.397 . S
C240 H226 0.939 . S
C240 C239 1.397 . S
C240 C241 1.378 . S
C241 C240 1.378 . S
C241 C242 1.378 . S
C242 H227 0.940 . S
C242 C241 1.378 . S
C242 C243 1.396 . S
C243 H228 0.940 . S
C243 C238 1.391 . S
C243 C242 1.396 . S
C244 P224 1.803 . S
C244 C245 1.378 . S
C244 C249 1.400 . S
C245 H229 0.939 . S
C245 C244 1.378 . S
C245 C246 1.361 . S
C246 H230 0.942 . S
C246 C245 1.361 . S
C246 C247 1.369 . S
C247 C246 1.369 . S
C247 C248 1.404 . S
C248 H231 0.940 . S
C248 C247 1.404 . S
C248 C249 1.389 . S
C249 H232 0.939 . S
C249 C244 1.400 . S
C249 C248 1.389 . S
C250 P224 1.819 . S
C250 C251 1.391 . S
C250 C255 1.391 . S
C251 H233 0.941 . S
C251 C250 1.391 . S
C251 C252 1.396 . S
C252 H236 0.939 . S
C252 C251 1.396 . S
C252 C253 1.397 . S
C253 C252 1.397 . S
C253 C254 1.385 . S
C254 H237 0.940 . S
C254 C253 1.385 . S
C254 C255 1.388 . S
C255 H234 0.939 . S
C255 C250 1.391 . S
C255 C254 1.388 . S
C256 C258 1.422 . S
C256 C260 1.415 . S
C256 N262 1.369 . S
C257 C258 1.421 . S
C257 C259 1.417 . S
C257 C269 1.422 . S
C258 C256 1.422 . S
C258 C257 1.421 . S
C258 N268 1.359 . S
C259 C257 1.417 . S
C259 C261 1.329 . S
C259 H278 0.930 . S
C260 C256 1.415 . S
C260 C261 1.437 . S
C260 C264 1.413 . S
C261 C259 1.329 . S
C261 C260 1.437 . S
C261 H283 0.929 . S
N262 C256 1.369 . S
N262 C263 1.338 . S
N262 Gd267 2.622 . S
C263 N262 1.338 . S
C263 C265 1.378 . S
C263 H275 0.929 . S
C264 C260 1.413 . S
C264 C265 1.348 . S
C264 H280 0.931 . S
C265 C263 1.378 . S
C265 C264 1.348 . S
C265 H281 0.930 . S
Gd266 N286 2.622 . S
Gd266 N293 2.570 . S
Gd266 O300 2.353 . S
Gd266 O301 2.468 . S
Gd266 O302 2.427 . S
Gd266 O304 2.388 . S
Gd266 O305 2.386 . S
Gd266 O309 2.307 . S
Gd266 C319 2.805 . S
Gd267 N262 2.622 . S
Gd267 N268 2.570 . S
Gd267 O299 2.386 . S
Gd267 O303 2.307 1_655 S
Gd267 O306 2.353 1_655 S
Gd267 O307 2.468 . S
Gd267 O308 2.427 . S
Gd267 O310 2.388 . S
Gd267 C331 2.805 . S
N268 C258 1.359 . S
N268 Gd267 2.570 . S
N268 C270 1.343 . S
C269 C257 1.422 . S
C269 C271 1.321 . S
C269 H277 0.931 . S
C270 N268 1.343 . S
C270 C271 1.390 . S
C270 H272 0.931 . S
C271 C269 1.321 . S
C271 C270 1.390 . S
C271 H273 0.930 . S
H272 C270 0.931 . S
H273 C271 0.930 . S
H274 C297 0.931 . S
H275 C263 0.929 . S
H276 C298 0.930 . S
H277 C269 0.931 . S
H278 C259 0.930 . S
H279 C288 0.929 . S
H280 C264 0.931 . S
H281 C265 0.930 . S
H282 C320 0.930 . S
H283 C261 0.929 . S
H284 C289 0.931 . S
H285 C290 0.930 . S
N286 Gd266 2.622 . S
N286 C287 1.369 . S
N286 C288 1.338 . S
C287 N286 1.369 . S
C287 C291 1.415 . S
C287 C294 1.422 . S
C288 H279 0.929 . S
C288 N286 1.338 . S
C288 C290 1.378 . S
C289 H284 0.931 . S
C289 C290 1.348 . S
C289 C291 1.413 . S
C290 H285 0.930 . S
C290 C288 1.378 . S
C290 C289 1.348 . S
C291 C287 1.415 . S
C291 C289 1.413 . S
C291 C321 1.437 . S
H292 C321 0.929 . S
N293 Gd266 2.570 . S
N293 C294 1.359 . S
N293 C297 1.343 . S
C294 C287 1.422 . S
C294 N293 1.359 . S
C294 C296 1.421 . S
C295 C296 1.422 . S
C295 C298 1.321 . S
C295 H322 0.931 . S
C296 C294 1.421 . S
C296 C295 1.422 . S
C296 C320 1.417 . S
C297 H274 0.931 . S
C297 N293 1.343 . S
C297 C298 1.390 . S
C298 H276 0.930 . S
C298 C295 1.321 . S
C298 C297 1.390 . S
O299 Gd267 2.386 . S
O299 C311 1.265 . S
O300 Gd266 2.353 . S
O300 C311 1.242 1_455 S
O301 Gd266 2.468 . S
O301 C319 1.263 . S
O302 Gd266 2.427 . S
O302 C319 1.252 . S
O303 Gd267 2.307 1_455 S
O303 C312 1.261 . S
O304 Gd266 2.388 . S
O304 C312 1.252 . S
O305 Gd266 2.386 . S
O305 C323 1.265 . S
O306 Gd267 2.353 1_455 S
O306 C323 1.242 . S
O307 Gd267 2.468 . S
O307 C331 1.263 . S
O308 Gd267 2.427 . S
O308 C331 1.252 . S
O309 Gd266 2.307 . S
O309 C324 1.261 1_455 S
O310 Gd267 2.388 . S
O310 C324 1.252 . S
C311 O299 1.265 . S
C311 O300 1.242 1_655 S
C312 O303 1.261 . S
C312 O304 1.252 . S
C313 C316 1.394 . S
C313 C318 1.370 . S
C313 C319 1.500 . S
C314 C317 1.383 . S
C314 C318 1.395 . S
C315 C316 1.396 . S
C315 C317 1.365 . S
C315 H332 0.929 . S
C316 C313 1.394 . S
C316 C315 1.396 . S
C316 H333 0.930 . S
C317 C314 1.383 . S
C317 C315 1.365 . S
C317 H334 0.931 . S
C318 C313 1.370 . S
C318 C314 1.395 . S
C318 H335 0.930 . S
C319 Gd266 2.805 . S
C319 O301 1.263 . S
C319 O302 1.252 . S
C319 C313 1.500 . S
C320 H282 0.930 . S
C320 C296 1.417 . S
C320 C321 1.329 . S
C321 C291 1.437 . S
C321 H292 0.929 . S
C321 C320 1.329 . S
H322 C295 0.931 . S
C323 O305 1.265 . S
C323 O306 1.242 . S
C324 O309 1.261 1_655 S
C324 O310 1.252 . S
C325 C328 1.394 . S
C325 C330 1.370 . S
C325 C331 1.500 . S
C326 C329 1.383 . S
C326 C330 1.395 . S
C327 C328 1.396 . S
C327 C329 1.365 . S
C327 H336 0.929 . S
C328 C325 1.394 . S
C328 C327 1.396 . S
C328 H337 0.930 . S
C329 C326 1.383 . S
C329 C327 1.365 . S
C329 H338 0.931 . S
C330 C325 1.370 . S
C330 C326 1.395 . S
C330 H339 0.930 . S
C331 Gd267 2.805 . S
C331 O307 1.263 . S
C331 O308 1.252 . S
C331 C325 1.500 . S
H332 C315 0.929 . S
H333 C316 0.930 . S
H334 C317 0.931 . S
H335 C318 0.930 . S
H336 C327 0.929 . S
H337 C328 0.930 . S
H338 C329 0.931 . S
H339 C330 0.930 . S
C340 C342 1.422 . S
C340 C344 1.415 . S
C340 N346 1.369 . S
C341 C342 1.421 . S
C341 C343 1.417 . S
C341 C353 1.422 . S
C342 C340 1.422 . S
C342 C341 1.421 . S
C342 N352 1.359 . S
C343 C341 1.417 . S
C343 C345 1.329 . S
C343 H362 0.930 . S
C344 C340 1.415 . S
C344 C345 1.437 . S
C344 C348 1.413 . S
C345 C343 1.329 . S
C345 C344 1.437 . S
C345 H367 0.929 . S
N346 C340 1.369 . S
N346 C347 1.338 . S
N346 Gd351 2.622 . S
C347 N346 1.338 . S
C347 C349 1.378 . S
C347 H359 0.929 . S
C348 C344 1.413 . S
C348 C349 1.348 . S
C348 H364 0.931 . S
C349 C347 1.378 . S
C349 C348 1.348 . S
C349 H365 0.930 . S
Gd350 N370 2.622 . S
Gd350 N377 2.570 . S
Gd350 O384 2.353 . S
Gd350 O385 2.468 . S
Gd350 O386 2.427 . S
Gd350 O388 2.388 . S
Gd350 O389 2.386 . S
Gd350 O393 2.307 . S
Gd350 C403 2.805 . S
Gd351 N346 2.622 . S
Gd351 N352 2.570 . S
Gd351 O383 2.386 . S
Gd351 O387 2.307 . S
Gd351 O390 2.353 . S
Gd351 O391 2.468 . S
Gd351 O392 2.427 . S
Gd351 O394 2.388 . S
Gd351 C415 2.805 . S
N352 C342 1.359 . S
N352 Gd351 2.570 . S
N352 C354 1.343 . S
C353 C341 1.422 . S
C353 C355 1.321 . S
C353 H361 0.931 . S
C354 N352 1.343 . S
C354 C355 1.390 . S
C354 H356 0.931 . S
C355 C353 1.321 . S
C355 C354 1.390 . S
C355 H357 0.930 . S
H356 C354 0.931 . S
H357 C355 0.930 . S
H358 C381 0.931 . S
H359 C347 0.929 . S
H360 C382 0.930 . S
H361 C353 0.931 . S
H362 C343 0.930 . S
H363 C372 0.929 . S
H364 C348 0.931 . S
H365 C349 0.930 . S
H366 C404 0.930 . S
H367 C345 0.929 . S
H368 C373 0.931 . S
H369 C374 0.930 . S
N370 Gd350 2.622 . S
N370 C371 1.369 . S
N370 C372 1.338 . S
C371 N370 1.369 . S
C371 C375 1.415 . S
C371 C378 1.422 . S
C372 H363 0.929 . S
C372 N370 1.338 . S
C372 C374 1.378 . S
C373 H368 0.931 . S
C373 C374 1.348 . S
C373 C375 1.413 . S
C374 H369 0.930 . S
C374 C372 1.378 . S
C374 C373 1.348 . S
C375 C371 1.415 . S
C375 C373 1.413 . S
C375 C405 1.437 . S
H376 C405 0.929 . S
N377 Gd350 2.570 . S
N377 C378 1.359 . S
N377 C381 1.343 . S
C378 C371 1.422 . S
C378 N377 1.359 . S
C378 C380 1.421 . S
C379 C380 1.422 . S
C379 C382 1.321 . S
C379 H406 0.931 . S
C380 C378 1.421 . S
C380 C379 1.422 . S
C380 C404 1.417 . S
C381 H358 0.931 . S
C381 N377 1.343 . S
C381 C382 1.390 . S
C382 H360 0.930 . S
C382 C379 1.321 . S
C382 C381 1.390 . S
O383 Gd351 2.386 . S
O383 C395 1.265 . S
O384 Gd350 2.353 . S
O384 C395 1.242 . S
O385 Gd350 2.468 . S
O385 C403 1.263 . S
O386 Gd350 2.427 . S
O386 C403 1.252 . S
O387 Gd351 2.307 . S
O387 C396 1.261 . S
O388 Gd350 2.388 . S
O388 C396 1.252 . S
O389 Gd350 2.386 . S
O389 C407 1.265 . S
O390 Gd351 2.353 . S
O390 C407 1.242 . S
O391 Gd351 2.468 . S
O391 C415 1.263 . S
O392 Gd351 2.427 . S
O392 C415 1.252 . S
O393 Gd350 2.307 . S
O393 C408 1.261 . S
O394 Gd351 2.388 . S
O394 C408 1.252 . S
C395 O383 1.265 . S
C395 O384 1.242 . S
C396 O387 1.261 . S
C396 O388 1.252 . S
C397 C400 1.394 . S
C397 C402 1.370 . S
C397 C403 1.500 . S
C398 C401 1.383 . S
C398 C402 1.395 . S
C399 C400 1.396 . S
C399 C401 1.365 . S
C399 H416 0.929 . S
C400 C397 1.394 . S
C400 C399 1.396 . S
C400 H417 0.930 . S
C401 C398 1.383 . S
C401 C399 1.365 . S
C401 H418 0.931 . S
C402 C397 1.370 . S
C402 C398 1.395 . S
C402 H419 0.930 . S
C403 Gd350 2.805 . S
C403 O385 1.263 . S
C403 O386 1.252 . S
C403 C397 1.500 . S
C404 H366 0.930 . S
C404 C380 1.417 . S
C404 C405 1.329 . S
C405 C375 1.437 . S
C405 H376 0.929 . S
C405 C404 1.329 . S
H406 C379 0.931 . S
C407 O389 1.265 . S
C407 O390 1.242 . S
C408 O393 1.261 . S
C408 O394 1.252 . S
C409 C412 1.394 . S
C409 C414 1.370 . S
C409 C415 1.500 . S
C410 C413 1.383 . S
C410 C414 1.395 . S
C411 C412 1.396 . S
C411 C413 1.365 . S
C411 H420 0.929 . S
C412 C409 1.394 . S
C412 C411 1.396 . S
C412 H421 0.930 . S
C413 C410 1.383 . S
C413 C411 1.365 . S
C413 H422 0.931 . S
C414 C409 1.370 . S
C414 C410 1.395 . S
C414 H423 0.930 . S
C415 Gd351 2.805 . S
C415 O391 1.263 . S
C415 O392 1.252 . S
C415 C409 1.500 . S
H416 C399 0.929 . S
H417 C400 0.930 . S
H418 C401 0.931 . S
H419 C402 0.930 . S
H420 C411 0.929 . S
H421 C412 0.930 . S
H422 C413 0.931 . S
H423 C414 0.930 . S
C424 C426 1.422 . S
C424 C428 1.415 . S
C424 N430 1.369 . S
C425 C426 1.421 . S
C425 C427 1.417 . S
C425 C437 1.422 . S
C426 C424 1.422 . S
C426 C425 1.421 . S
C426 N436 1.359 . S
C427 C425 1.417 . S
C427 C429 1.329 . S
C427 H446 0.930 . S
C428 C424 1.415 . S
C428 C429 1.437 . S
C428 C432 1.413 . S
C429 C427 1.329 . S
C429 C428 1.437 . S
C429 H451 0.929 . S
N430 C424 1.369 . S
N430 C431 1.338 . S
N430 Gd435 2.622 . S
C431 N430 1.338 . S
C431 C433 1.378 . S
C431 H443 0.929 . S
C432 C428 1.413 . S
C432 C433 1.348 . S
C432 H448 0.931 . S
C433 C431 1.378 . S
C433 C432 1.348 . S
C433 H449 0.930 . S
Gd434 N454 2.622 . S
Gd434 N461 2.570 . S
Gd434 O468 2.353 . S
Gd434 O469 2.468 . S
Gd434 O470 2.427 . S
Gd434 O472 2.388 . S
Gd434 O473 2.386 . S
Gd434 O477 2.307 . S
Gd434 C487 2.805 . S
Gd435 N430 2.622 . S
Gd435 N436 2.570 . S
Gd435 O467 2.386 . S
Gd435 O471 2.307 1_655 S
Gd435 O474 2.353 1_655 S
Gd435 O475 2.468 . S
Gd435 O476 2.427 . S
Gd435 O478 2.388 . S
Gd435 C499 2.805 . S
N436 C426 1.359 . S
N436 Gd435 2.570 . S
N436 C438 1.343 . S
C437 C425 1.422 . S
C437 C439 1.321 . S
C437 H445 0.931 . S
C438 N436 1.343 . S
C438 C439 1.390 . S
C438 H440 0.931 . S
C439 C437 1.321 . S
C439 C438 1.390 . S
C439 H441 0.930 . S
H440 C438 0.931 . S
H441 C439 0.930 . S
H442 C465 0.931 . S
H443 C431 0.929 . S
H444 C466 0.930 . S
H445 C437 0.931 . S
H446 C427 0.930 . S
H447 C456 0.929 . S
H448 C432 0.931 . S
H449 C433 0.930 . S
H450 C488 0.930 . S
H451 C429 0.929 . S
H452 C457 0.931 . S
H453 C458 0.930 . S
N454 Gd434 2.622 . S
N454 C455 1.369 . S
N454 C456 1.338 . S
C455 N454 1.369 . S
C455 C459 1.415 . S
C455 C462 1.422 . S
C456 H447 0.929 . S
C456 N454 1.338 . S
C456 C458 1.378 . S
C457 H452 0.931 . S
C457 C458 1.348 . S
C457 C459 1.413 . S
C458 H453 0.930 . S
C458 C456 1.378 . S
C458 C457 1.348 . S
C459 C455 1.415 . S
C459 C457 1.413 . S
C459 C489 1.437 . S
H460 C489 0.929 . S
N461 Gd434 2.570 . S
N461 C462 1.359 . S
N461 C465 1.343 . S
C462 C455 1.422 . S
C462 N461 1.359 . S
C462 C464 1.421 . S
C463 C464 1.422 . S
C463 C466 1.321 . S
C463 H490 0.931 . S
C464 C462 1.421 . S
C464 C463 1.422 . S
C464 C488 1.417 . S
C465 H442 0.931 . S
C465 N461 1.343 . S
C465 C466 1.390 . S
C466 H444 0.930 . S
C466 C463 1.321 . S
C466 C465 1.390 . S
O467 Gd435 2.386 . S
O467 C479 1.265 . S
O468 Gd434 2.353 . S
O468 C479 1.242 1_455 S
O469 Gd434 2.468 . S
O469 C487 1.263 . S
O470 Gd434 2.427 . S
O470 C487 1.252 . S
O471 Gd435 2.307 1_455 S
O471 C480 1.261 . S
O472 Gd434 2.388 . S
O472 C480 1.252 . S
O473 Gd434 2.386 . S
O473 C491 1.265 . S
O474 Gd435 2.353 1_455 S
O474 C491 1.242 . S
O475 Gd435 2.468 . S
O475 C499 1.263 . S
O476 Gd435 2.427 . S
O476 C499 1.252 . S
O477 Gd434 2.307 . S
O477 C492 1.261 1_455 S
O478 Gd435 2.388 . S
O478 C492 1.252 . S
C479 O467 1.265 . S
C479 O468 1.242 1_655 S
C480 O471 1.261 . S
C480 O472 1.252 . S
C481 C484 1.394 . S
C481 C486 1.370 . S
C481 C487 1.500 . S
C482 C485 1.383 . S
C482 C486 1.395 . S
C483 C484 1.396 . S
C483 C485 1.365 . S
C483 H500 0.929 . S
C484 C481 1.394 . S
C484 C483 1.396 . S
C484 H501 0.930 . S
C485 C482 1.383 . S
C485 C483 1.365 . S
C485 H502 0.931 . S
C486 C481 1.370 . S
C486 C482 1.395 . S
C486 H503 0.930 . S
C487 Gd434 2.805 . S
C487 O469 1.263 . S
C487 O470 1.252 . S
C487 C481 1.500 . S
C488 H450 0.930 . S
C488 C464 1.417 . S
C488 C489 1.329 . S
C489 C459 1.437 . S
C489 H460 0.929 . S
C489 C488 1.329 . S
H490 C463 0.931 . S
C491 O473 1.265 . S
C491 O474 1.242 . S
C492 O477 1.261 1_655 S
C492 O478 1.252 . S
C493 C496 1.394 . S
C493 C498 1.370 . S
C493 C499 1.500 . S
C494 C497 1.383 . S
C494 C498 1.395 . S
C495 C496 1.396 . S
C495 C497 1.365 . S
C495 H504 0.929 . S
C496 C493 1.394 . S
C496 C495 1.396 . S
C496 H505 0.930 . S
C497 C494 1.383 . S
C497 C495 1.365 . S
C497 H506 0.931 . S
C498 C493 1.370 . S
C498 C494 1.395 . S
C498 H507 0.930 . S
C499 Gd435 2.805 . S
C499 O475 1.263 . S
C499 O476 1.252 . S
C499 C493 1.500 . S
H500 C483 0.929 . S
H501 C484 0.930 . S
H502 C485 0.931 . S
H503 C486 0.930 . S
H504 C495 0.929 . S
H505 C496 0.930 . S
H506 C497 0.931 . S
H507 C498 0.930 . S
C508 C510 1.422 . S
C508 C512 1.415 . S
C508 N514 1.369 . S
C509 C510 1.421 . S
C509 C511 1.417 . S
C509 C521 1.422 . S
C510 C508 1.422 . S
C510 C509 1.421 . S
C510 N520 1.359 . S
C511 C509 1.417 . S
C511 C513 1.329 . S
C511 H530 0.930 . S
C512 C508 1.415 . S
C512 C513 1.437 . S
C512 C516 1.413 . S
C513 C511 1.329 . S
C513 C512 1.437 . S
C513 H535 0.929 . S
N514 C508 1.369 . S
N514 C515 1.338 . S
N514 Gd519 2.622 . S
C515 N514 1.338 . S
C515 C517 1.378 . S
C515 H527 0.929 . S
C516 C512 1.413 . S
C516 C517 1.348 . S
C516 H532 0.931 . S
C517 C515 1.378 . S
C517 C516 1.348 . S
C517 H533 0.930 . S
Gd518 N538 2.622 . S
Gd518 N545 2.570 . S
Gd518 O552 2.353 . S
Gd518 O553 2.468 . S
Gd518 O554 2.427 . S
Gd518 O556 2.388 . S
Gd518 O557 2.386 . S
Gd518 O561 2.307 . S
Gd518 C571 2.805 . S
Gd519 N514 2.622 . S
Gd519 N520 2.570 . S
Gd519 O551 2.386 . S
Gd519 O555 2.307 . S
Gd519 O558 2.353 . S
Gd519 O559 2.468 . S
Gd519 O560 2.427 . S
Gd519 O562 2.388 . S
Gd519 C583 2.805 . S
N520 C510 1.359 . S
N520 Gd519 2.570 . S
N520 C522 1.343 . S
C521 C509 1.422 . S
C521 C523 1.321 . S
C521 H529 0.931 . S
C522 N520 1.343 . S
C522 C523 1.390 . S
C522 H524 0.931 . S
C523 C521 1.321 . S
C523 C522 1.390 . S
C523 H525 0.930 . S
H524 C522 0.931 . S
H525 C523 0.930 . S
H526 C549 0.931 . S
H527 C515 0.929 . S
H528 C550 0.930 . S
H529 C521 0.931 . S
H530 C511 0.930 . S
H531 C540 0.929 . S
H532 C516 0.931 . S
H533 C517 0.930 . S
H534 C572 0.930 . S
H535 C513 0.929 . S
H536 C541 0.931 . S
H537 C542 0.930 . S
N538 Gd518 2.622 . S
N538 C539 1.369 . S
N538 C540 1.338 . S
C539 N538 1.369 . S
C539 C543 1.415 . S
C539 C546 1.422 . S
C540 H531 0.929 . S
C540 N538 1.338 . S
C540 C542 1.378 . S
C541 H536 0.931 . S
C541 C542 1.348 . S
C541 C543 1.413 . S
C542 H537 0.930 . S
C542 C540 1.378 . S
C542 C541 1.348 . S
C543 C539 1.415 . S
C543 C541 1.413 . S
C543 C573 1.437 . S
H544 C573 0.929 . S
N545 Gd518 2.570 . S
N545 C546 1.359 . S
N545 C549 1.343 . S
C546 C539 1.422 . S
C546 N545 1.359 . S
C546 C548 1.421 . S
C547 C548 1.422 . S
C547 C550 1.321 . S
C547 H574 0.931 . S
C548 C546 1.421 . S
C548 C547 1.422 . S
C548 C572 1.417 . S
C549 H526 0.931 . S
C549 N545 1.343 . S
C549 C550 1.390 . S
C550 H528 0.930 . S
C550 C547 1.321 . S
C550 C549 1.390 . S
O551 Gd519 2.386 . S
O551 C563 1.265 . S
O552 Gd518 2.353 . S
O552 C563 1.242 . S
O553 Gd518 2.468 . S
O553 C571 1.263 . S
O554 Gd518 2.427 . S
O554 C571 1.252 . S
O555 Gd519 2.307 . S
O555 C564 1.261 . S
O556 Gd518 2.388 . S
O556 C564 1.252 . S
O557 Gd518 2.386 . S
O557 C575 1.265 . S
O558 Gd519 2.353 . S
O558 C575 1.242 . S
O559 Gd519 2.468 . S
O559 C583 1.263 . S
O560 Gd519 2.427 . S
O560 C583 1.252 . S
O561 Gd518 2.307 . S
O561 C576 1.261 . S
O562 Gd519 2.388 . S
O562 C576 1.252 . S
C563 O551 1.265 . S
C563 O552 1.242 . S
C564 O555 1.261 . S
C564 O556 1.252 . S
C565 C568 1.394 . S
C565 C570 1.370 . S
C565 C571 1.500 . S
C566 C569 1.383 . S
C566 C570 1.395 . S
C567 C568 1.396 . S
C567 C569 1.365 . S
C567 H584 0.929 . S
C568 C565 1.394 . S
C568 C567 1.396 . S
C568 H585 0.930 . S
C569 C566 1.383 . S
C569 C567 1.365 . S
C569 H586 0.931 . S
C570 C565 1.370 . S
C570 C566 1.395 . S
C570 H587 0.930 . S
C571 Gd518 2.805 . S
C571 O553 1.263 . S
C571 O554 1.252 . S
C571 C565 1.500 . S
C572 H534 0.930 . S
C572 C548 1.417 . S
C572 C573 1.329 . S
C573 C543 1.437 . S
C573 H544 0.929 . S
C573 C572 1.329 . S
H574 C547 0.931 . S
C575 O557 1.265 . S
C575 O558 1.242 . S
C576 O561 1.261 . S
C576 O562 1.252 . S
C577 C580 1.394 . S
C577 C582 1.370 . S
C577 C583 1.500 . S
C578 C581 1.383 . S
C578 C582 1.395 . S
C579 C580 1.396 . S
C579 C581 1.365 . S
C579 H588 0.929 . S
C580 C577 1.394 . S
C580 C579 1.396 . S
C580 H589 0.930 . S
C581 C578 1.383 . S
C581 C579 1.365 . S
C581 H590 0.931 . S
C582 C577 1.370 . S
C582 C578 1.395 . S
C582 H591 0.930 . S
C583 Gd519 2.805 . S
C583 O559 1.263 . S
C583 O560 1.252 . S
C583 C577 1.500 . S
H584 C567 0.929 . S
H585 C568 0.930 . S
H586 C569 0.931 . S
H587 C570 0.930 . S
H588 C579 0.929 . S
H589 C580 0.930 . S
H590 C581 0.931 . S
H591 C582 0.930 . S
H592 C610 0.951 . S
H593 C612 0.951 . S
H594 C614 0.950 . S
H595 C615 0.950 . S
H596 C617 0.950 . S
H597 C620 0.950 . S
H598 C621 0.950 . S
H599 C623 0.950 1_655 S
H600 C624 0.960 . S
H601 C625 0.951 . S
H602 C627 0.951 . S
H603 C629 0.950 . S
H604 C630 0.950 . S
H605 C632 0.950 . S
H606 C635 0.950 . S
H607 C636 0.950 . S
H608 C638 0.950 . S
H609 C639 0.950 . S
C610 H592 0.951 . S
C610 C611 1.366 . S
C610 C612 1.388 . S
C611 C610 1.366 . S
C611 C615 1.385 . S
C612 H593 0.951 . S
C612 C610 1.388 . S
C612 C613 1.366 . S
C613 C612 1.366 . S
C613 C614 1.414 . S
C613 C616 1.499 1_565 S
C614 H594 0.950 . S
C614 C613 1.414 . S
C614 C615 1.374 . S
C615 H595 0.950 . S
C615 C611 1.385 . S
C615 C614 1.374 . S
C616 C613 1.499 1_545 S
C616 C617 1.373 . S
C616 C618 1.389 . S
C617 H596 0.950 . S
C617 C616 1.373 . S
C617 C633 1.377 . S
C618 C616 1.389 . S
C618 C619 1.524 1_545 S
C618 C632 1.377 . S
C619 C618 1.524 1_565 S
C619 C620 1.397 . S
C619 C624 1.359 1_565 S
C620 H597 0.950 . S
C620 C619 1.397 . S
C620 C621 1.334 . S
C621 H598 0.950 . S
C621 C620 1.334 . S
C621 C622 1.287 . S
C622 C621 1.287 . S
C622 C623 1.524 . S
C622 H641 0.913 1_455 S
C623 H599 0.950 1_455 S
C623 C622 1.524 . S
C623 C624 1.409 1_565 S
C624 H600 0.960 . S
C624 C619 1.359 1_545 S
C624 C623 1.409 1_545 S
C625 H601 0.951 . S
C625 C626 1.366 . S
C625 C627 1.388 . S
C626 C625 1.366 . S
C626 C630 1.385 . S
C627 H602 0.951 . S
C627 C625 1.388 . S
C627 C628 1.366 . S
C628 C627 1.366 . S
C628 C629 1.414 . S
C628 C631 1.499 . S
C629 H603 0.950 . S
C629 C628 1.414 . S
C629 C630 1.374 . S
C630 H604 0.950 . S
C630 C626 1.385 . S
C630 C629 1.374 . S
C631 C628 1.499 . S
C631 C632 1.373 . S
C631 C633 1.389 . S
C632 H605 0.950 . S
C632 C618 1.377 . S
C632 C631 1.373 . S
C633 C617 1.377 . S
C633 C631 1.389 . S
C633 C634 1.524 . S
C634 C633 1.524 . S
C634 C635 1.397 . S
C634 C639 1.363 . S
C635 H606 0.950 . S
C635 C634 1.397 . S
C635 C636 1.334 . S
C636 H607 0.950 . S
C636 C635 1.334 . S
C636 C637 1.287 . S
C637 C636 1.287 . S
C637 C638 1.524 . S
C637 H640 0.999 . S
C638 H608 0.950 . S
C638 C637 1.524 . S
C638 C639 1.415 . S
C639 H609 0.950 . S
C639 C634 1.363 . S
C639 C638 1.415 . S
H640 C637 0.999 . S
H641 C622 0.913 1_655 S
H642 C660 0.951 . S
H643 C662 0.951 . S
H644 C664 0.950 . S
H645 C665 0.950 . S
H646 C667 0.950 . S
H647 C670 0.950 . S
H648 C671 0.950 . S
H649 C673 0.950 . S
H650 C674 0.950 . S
H651 C675 0.951 . S
H652 C677 0.951 . S
H653 C679 0.950 . S
H654 C680 0.950 . S
H655 C682 0.950 . S
H656 C685 0.950 . S
H657 C686 0.950 . S
H658 C688 0.950 . S
H659 C689 0.950 . S
C660 H642 0.951 . S
C660 C661 1.366 . S
C660 C662 1.388 . S
C661 C660 1.366 . S
C661 C665 1.385 . S
C662 H643 0.951 . S
C662 C660 1.388 . S
C662 C663 1.366 . S
C663 C662 1.366 . S
C663 C664 1.414 . S
C663 C666 1.499 . S
C664 H644 0.950 . S
C664 C663 1.414 . S
C664 C665 1.374 . S
C665 H645 0.950 . S
C665 C661 1.385 . S
C665 C664 1.374 . S
C666 C663 1.499 . S
C666 C667 1.373 . S
C666 C668 1.389 . S
C667 H646 0.950 . S
C667 C666 1.373 . S
C667 C683 1.377 . S
C668 C666 1.389 . S
C668 C669 1.524 . S
C668 C682 1.377 . S
C669 C668 1.524 . S
C669 C670 1.397 . S
C669 C674 1.363 . S
C670 H647 0.950 . S
C670 C669 1.397 . S
C670 C671 1.334 . S
C671 H648 0.950 . S
C671 C670 1.334 . S
C671 C672 1.287 . S
C672 C671 1.287 . S
C672 C673 1.524 . S
C672 H691 0.913 . S
C673 H649 0.950 . S
C673 C672 1.524 . S
C673 C674 1.415 . S
C674 H650 0.950 . S
C674 C669 1.363 . S
C674 C673 1.415 . S
C675 H651 0.951 . S
C675 C676 1.366 . S
C675 C677 1.388 . S
C676 C675 1.366 . S
C676 C680 1.385 . S
C677 H652 0.951 . S
C677 C675 1.388 . S
C677 C678 1.366 . S
C678 C677 1.366 . S
C678 C679 1.414 . S
C678 C681 1.499 . S
C679 H653 0.950 . S
C679 C678 1.414 . S
C679 C680 1.374 . S
C680 H654 0.950 . S
C680 C676 1.385 . S
C680 C679 1.374 . S
C681 C678 1.499 . S
C681 C682 1.373 . S
C681 C683 1.389 . S
C682 H655 0.950 . S
C682 C668 1.377 . S
C682 C681 1.373 . S
C683 C667 1.377 . S
C683 C681 1.389 . S
C683 C684 1.524 . S
C684 C683 1.524 . S
C684 C685 1.397 . S
C684 C689 1.363 . S
C685 H656 0.950 . S
C685 C684 1.397 . S
C685 C686 1.334 . S
C686 H657 0.950 . S
C686 C685 1.334 . S
C686 C687 1.287 . S
C687 C686 1.287 . S
C687 C688 1.524 . S
C687 H690 0.999 . S
C688 H658 0.950 . S
C688 C687 1.524 . S
C688 C689 1.415 . S
C689 H659 0.950 . S
C689 C684 1.363 . S
C689 C688 1.415 . S
H690 C687 0.999 . S
H691 C672 0.913 . S
H692 C710 0.951 . S
H693 C712 0.951 . S
H694 C714 0.950 . S
H695 C715 0.950 . S
H696 C717 0.950 . S
H697 C720 0.950 . S
H698 C721 0.950 . S
H699 C723 0.950 . S
H700 C724 0.950 . S
H701 C725 0.951 . S
H702 C727 0.951 . S
H703 C729 0.950 . S
H704 C730 0.950 . S
H705 C732 0.950 . S
H706 C735 0.950 . S
H707 C736 0.950 . S
H708 C738 0.950 . S
H709 C739 0.950 . S
C710 H692 0.951 . S
C710 C711 1.366 . S
C710 C712 1.388 . S
C711 C710 1.366 . S
C711 C715 1.385 . S
C712 H693 0.951 . S
C712 C710 1.388 . S
C712 C713 1.366 . S
C713 C712 1.366 . S
C713 C714 1.414 . S
C713 C716 1.499 . S
C714 H694 0.950 . S
C714 C713 1.414 . S
C714 C715 1.374 . S
C715 H695 0.950 . S
C715 C711 1.385 . S
C715 C714 1.374 . S
C716 C713 1.499 . S
C716 C717 1.373 . S
C716 C718 1.389 . S
C717 H696 0.950 . S
C717 C716 1.373 . S
C717 C733 1.377 . S
C718 C716 1.389 . S
C718 C719 1.524 . S
C718 C732 1.377 . S
C719 C718 1.524 . S
C719 C720 1.397 . S
C719 C724 1.363 . S
C720 H697 0.950 . S
C720 C719 1.397 . S
C720 C721 1.334 . S
C721 H698 0.950 . S
C721 C720 1.334 . S
C721 C722 1.287 . S
C722 C721 1.287 . S
C722 C723 1.524 . S
C722 H741 0.913 . S
C723 H699 0.950 . S
C723 C722 1.524 . S
C723 C724 1.415 . S
C724 H700 0.950 . S
C724 C719 1.363 . S
C724 C723 1.415 . S
C725 H701 0.951 . S
C725 C726 1.366 . S
C725 C727 1.388 . S
C726 C725 1.366 . S
C726 C730 1.385 . S
C727 H702 0.951 . S
C727 C725 1.388 . S
C727 C728 1.366 . S
C728 C727 1.366 . S
C728 C729 1.414 . S
C728 C731 1.499 . S
C729 H703 0.950 . S
C729 C728 1.414 . S
C729 C730 1.374 . S
C730 H704 0.950 . S
C730 C726 1.385 . S
C730 C729 1.374 . S
C731 C728 1.499 . S
C731 C732 1.373 . S
C731 C733 1.389 . S
C732 H705 0.950 . S
C732 C718 1.377 . S
C732 C731 1.373 . S
C733 C717 1.377 . S
C733 C731 1.389 . S
C733 C734 1.524 . S
C734 C733 1.524 . S
C734 C735 1.397 . S
C734 C739 1.363 . S
C735 H706 0.950 . S
C735 C734 1.397 . S
C735 C736 1.334 . S
C736 H707 0.950 . S
C736 C735 1.334 . S
C736 C737 1.287 . S
C737 C736 1.287 . S
C737 C738 1.524 . S
C737 H740 0.999 . S
C738 H708 0.950 . S
C738 C737 1.524 . S
C738 C739 1.415 . S
C739 H709 0.950 . S
C739 C734 1.363 . S
C739 C738 1.415 . S
H740 C737 0.999 . S
H741 C722 0.913 . S
H742 C760 0.951 . S
H743 C762 0.972 . S
H744 C764 0.950 . S
H745 C765 0.950 . S
H746 C767 0.950 . S
H747 C770 0.950 . S
H748 C771 0.950 . S
H749 C773 0.950 1_455 S
H750 C774 0.950 . S
H751 C775 0.951 . S
H752 C777 0.951 . S
H753 C779 0.950 . S
H754 C780 0.950 . S
H755 C782 0.950 . S
H756 C785 0.950 . S
H757 C786 0.950 . S
H758 C788 0.950 . S
H759 C789 0.950 . S
C760 H742 0.951 . S
C760 C761 1.366 . S
C760 C762 1.388 . S
C761 C760 1.366 . S
C761 C765 1.385 . S
C762 H743 0.972 . S
C762 C760 1.388 . S
C762 C763 1.366 . S
C763 C762 1.366 . S
C763 C764 1.414 . S
C763 C766 1.499 1_565 S
C764 H744 0.950 . S
C764 C763 1.414 . S
C764 C765 1.374 . S
C765 H745 0.950 . S
C765 C761 1.385 . S
C765 C764 1.374 . S
C766 C763 1.499 1_545 S
C766 C767 1.373 . S
C766 C768 1.389 . S
C767 H746 0.950 . S
C767 C766 1.373 . S
C767 C783 1.377 . S
C768 C766 1.389 . S
C768 C769 1.524 1_545 S
C768 C782 1.377 . S
C769 C768 1.524 1_565 S
C769 C770 1.397 . S
C769 C774 1.363 1_565 S
C770 H747 0.950 . S
C770 C769 1.397 . S
C770 C771 1.334 . S
C771 H748 0.950 . S
C771 C770 1.334 . S
C771 C772 1.287 . S
C772 C771 1.287 . S
C772 C773 1.524 . S
C772 H791 0.913 1_655 S
C773 H749 0.950 1_655 S
C773 C772 1.524 . S
C773 C774 1.415 1_565 S
C774 H750 0.950 . S
C774 C769 1.363 1_545 S
C774 C773 1.415 1_545 S
C775 H751 0.951 . S
C775 C776 1.366 . S
C775 C777 1.388 . S
C776 C775 1.366 . S
C776 C780 1.385 . S
C777 H752 0.951 . S
C777 C775 1.388 . S
C777 C778 1.366 . S
C778 C777 1.366 . S
C778 C779 1.414 . S
C778 C781 1.499 . S
C779 H753 0.950 . S
C779 C778 1.414 . S
C779 C780 1.374 . S
C780 H754 0.950 . S
C780 C776 1.385 . S
C780 C779 1.374 . S
C781 C778 1.499 . S
C781 C782 1.373 . S
C781 C783 1.389 . S
C782 H755 0.950 . S
C782 C768 1.377 . S
C782 C781 1.373 . S
C783 C767 1.377 . S
C783 C781 1.389 . S
C783 C784 1.524 . S
C784 C783 1.524 . S
C784 C785 1.397 . S
C784 C789 1.363 . S
C785 H756 0.950 . S
C785 C784 1.397 . S
C785 C786 1.334 . S
C786 H757 0.950 . S
C786 C785 1.334 . S
C786 C787 1.287 . S
C787 C786 1.287 . S
C787 C788 1.524 . S
C787 H790 0.999 . S
C788 H758 0.950 . S
C788 C787 1.524 . S
C788 C789 1.415 . S
C789 H759 0.950 . S
C789 C784 1.363 . S
C789 C788 1.415 . S
H790 C787 0.999 . S
H791 C772 0.913 1_455 S
H792 C810 0.951 . S
H793 C812 0.951 . S
H794 C814 0.911 1_565 S
H795 C815 0.950 . S
H796 C817 0.950 . S
H797 C820 0.950 . S
H798 C821 0.950 . S
H799 C823 0.950 . S
H800 C824 0.950 . S
H801 C825 0.951 . S
H802 C827 0.951 . S
H803 C829 0.950 . S
H804 C830 0.956 . S
H805 C832 0.950 . S
H806 C835 0.950 . S
H807 C836 0.950 . S
H808 C838 0.950 . S
H809 C839 0.950 . S
C810 H792 0.951 . S
C810 C811 1.366 . S
C810 C812 1.388 . S
C811 C810 1.366 . S
C811 C815 1.385 . S
C812 H793 0.951 . S
C812 C810 1.388 . S
C812 C813 1.366 . S
C813 C812 1.366 . S
C813 C814 1.414 . S
C813 C816 1.499 1_545 S
C814 H794 0.911 1_545 S
C814 C813 1.414 . S
C814 C815 1.374 . S
C815 H795 0.950 . S
C815 C811 1.385 . S
C815 C814 1.374 . S
C816 C813 1.499 1_565 S
C816 C817 1.373 . S
C816 C818 1.389 . S
C817 H796 0.950 . S
C817 C816 1.373 . S
C817 C833 1.377 . S
C818 C816 1.389 . S
C818 C819 1.524 . S
C818 C832 1.377 . S
C819 C818 1.524 . S
C819 C820 1.397 . S
C819 C824 1.363 1_565 S
C820 H797 0.950 . S
C820 C819 1.397 . S
C820 C821 1.334 . S
C821 H798 0.950 . S
C821 C820 1.334 . S
C821 C822 1.287 1_565 S
C822 C821 1.287 1_545 S
C822 C823 1.524 1_655 S
C822 H841 0.913 . S
C823 H799 0.950 . S
C823 C822 1.524 1_455 S
C823 C824 1.415 1_455 S
C824 H800 0.950 . S
C824 C819 1.363 1_545 S
C824 C823 1.415 1_655 S
C825 H801 0.951 . S
C825 C826 1.366 . S
C825 C827 1.388 . S
C826 C825 1.366 . S
C826 C830 1.385 . S
C827 H802 0.951 . S
C827 C825 1.388 . S
C827 C828 1.366 . S
C828 C827 1.366 . S
C828 C829 1.414 . S
C828 C831 1.499 . S
C829 H803 0.950 . S
C829 C828 1.414 . S
C829 C830 1.374 . S
C830 H804 0.956 . S
C830 C826 1.385 . S
C830 C829 1.374 . S
C831 C828 1.499 . S
C831 C832 1.373 . S
C831 C833 1.389 . S
C832 H805 0.950 . S
C832 C818 1.377 . S
C832 C831 1.373 . S
C833 C817 1.377 . S
C833 C831 1.389 . S
C833 C834 1.524 . S
C834 C833 1.524 . S
C834 C835 1.397 . S
C834 C839 1.363 . S
C835 H806 0.950 . S
C835 C834 1.397 . S
C835 C836 1.334 . S
C836 H807 0.950 . S
C836 C835 1.334 . S
C836 C837 1.287 . S
C837 C836 1.287 . S
C837 C838 1.524 . S
C837 H840 0.999 . S
C838 H808 0.950 . S
C838 C837 1.524 . S
C838 C839 1.415 . S
C839 H809 0.950 . S
C839 C834 1.363 . S
C839 C838 1.415 . S
H840 C837 0.999 . S
H841 C822 0.913 . S
H842 C860 0.951 . S
H843 C862 0.951 . S
H844 C864 0.950 . S
H845 C865 0.950 . S
H846 C867 0.950 . S
H847 C870 0.950 . S
H848 C871 0.950 . S
H849 C873 0.950 . S
H850 C874 0.950 . S
H851 C875 0.951 . S
H852 C877 0.951 . S
H853 C879 0.950 . S
H854 C880 0.950 . S
H855 C882 0.950 . S
H856 C885 0.950 . S
H857 C886 0.950 . S
H858 C888 0.950 . S
H859 C889 0.950 . S
C860 H842 0.951 . S
C860 C861 1.366 . S
C860 C862 1.388 . S
C861 C860 1.366 . S
C861 C865 1.385 . S
C862 H843 0.951 . S
C862 C860 1.388 . S
C862 C863 1.366 . S
C863 C862 1.366 . S
C863 C864 1.414 . S
C863 C866 1.499 . S
C864 H844 0.950 . S
C864 C863 1.414 . S
C864 C865 1.374 . S
C865 H845 0.950 . S
C865 C861 1.385 . S
C865 C864 1.374 . S
C866 C863 1.499 . S
C866 C867 1.373 . S
C866 C868 1.389 . S
C867 H846 0.950 . S
C867 C866 1.373 . S
C867 C883 1.377 . S
C868 C866 1.389 . S
C868 C869 1.524 . S
C868 C882 1.377 . S
C869 C868 1.524 . S
C869 C870 1.397 . S
C869 C874 1.363 . S
C870 H847 0.950 . S
C870 C869 1.397 . S
C870 C871 1.334 . S
C871 H848 0.950 . S
C871 C870 1.334 . S
C871 C872 1.287 . S
C872 C871 1.287 . S
C872 C873 1.524 . S
C872 H891 0.913 . S
C873 H849 0.950 . S
C873 C872 1.524 . S
C873 C874 1.415 . S
C874 H850 0.950 . S
C874 C869 1.363 . S
C874 C873 1.415 . S
C875 H851 0.951 . S
C875 C876 1.366 . S
C875 C877 1.388 . S
C876 C875 1.366 . S
C876 C880 1.385 . S
C877 H852 0.951 . S
C877 C875 1.388 . S
C877 C878 1.366 . S
C878 C877 1.366 . S
C878 C879 1.414 . S
C878 C881 1.499 . S
C879 H853 0.950 . S
C879 C878 1.414 . S
C879 C880 1.374 . S
C880 H854 0.950 . S
C880 C876 1.385 . S
C880 C879 1.374 . S
C881 C878 1.499 . S
C881 C882 1.373 . S
C881 C883 1.389 . S
C882 H855 0.950 . S
C882 C868 1.377 . S
C882 C881 1.373 . S
C883 C867 1.377 . S
C883 C881 1.389 . S
C883 C884 1.524 . S
C884 C883 1.524 . S
C884 C885 1.397 . S
C884 C889 1.363 . S
C885 H856 0.950 . S
C885 C884 1.397 . S
C885 C886 1.334 . S
C886 H857 0.950 . S
C886 C885 1.334 . S
C886 C887 1.287 . S
C887 C886 1.287 . S
C887 C888 1.524 . S
C887 H890 0.999 . S
C888 H858 0.950 . S
C888 C887 1.524 . S
C888 C889 1.415 . S
C889 H859 0.950 . S
C889 C884 1.363 . S
C889 C888 1.415 . S
H890 C887 0.999 . S
H891 C872 0.913 . S
H892 C910 0.951 . S
H893 C912 0.951 . S
H894 C914 0.950 . S
H895 C915 0.950 . S
H896 C917 0.950 . S
H897 C920 0.950 . S
H898 C921 0.950 . S
H899 C923 0.950 . S
H900 C924 0.950 . S
H901 C925 0.951 . S
H902 C927 0.951 . S
H903 C929 0.950 . S
H904 C930 0.950 . S
H905 C932 0.950 . S
H906 C935 0.950 . S
H907 C936 0.950 . S
H908 C938 0.950 . S
H909 C939 0.950 . S
C910 H892 0.951 . S
C910 C911 1.366 . S
C910 C912 1.388 . S
C911 C910 1.366 . S
C911 C915 1.385 . S
C912 H893 0.951 . S
C912 C910 1.388 . S
C912 C913 1.366 . S
C913 C912 1.366 . S
C913 C914 1.414 . S
C913 C916 1.499 . S
C914 H894 0.950 . S
C914 C913 1.414 . S
C914 C915 1.374 . S
C915 H895 0.950 . S
C915 C911 1.385 . S
C915 C914 1.374 . S
C916 C913 1.499 . S
C916 C917 1.373 . S
C916 C918 1.389 . S
C917 H896 0.950 . S
C917 C916 1.373 . S
C917 C933 1.377 . S
C918 C916 1.389 . S
C918 C919 1.524 . S
C918 C932 1.377 . S
C919 C918 1.524 . S
C919 C920 1.397 . S
C919 C924 1.363 . S
C920 H897 0.950 . S
C920 C919 1.397 . S
C920 C921 1.334 . S
C921 H898 0.950 . S
C921 C920 1.334 . S
C921 C922 1.287 . S
C922 C921 1.287 . S
C922 C923 1.524 . S
C922 H941 0.913 . S
C923 H899 0.950 . S
C923 C922 1.524 . S
C923 C924 1.415 . S
C924 H900 0.950 . S
C924 C919 1.363 . S
C924 C923 1.415 . S
C925 H901 0.951 . S
C925 C926 1.366 . S
C925 C927 1.388 . S
C926 C925 1.366 . S
C926 C930 1.385 . S
C927 H902 0.951 . S
C927 C925 1.388 . S
C927 C928 1.366 . S
C928 C927 1.366 . S
C928 C929 1.414 . S
C928 C931 1.499 . S
C929 H903 0.950 . S
C929 C928 1.414 . S
C929 C930 1.374 . S
C930 H904 0.950 . S
C930 C926 1.385 . S
C930 C929 1.374 . S
C931 C928 1.499 . S
C931 C932 1.373 . S
C931 C933 1.389 . S
C932 H905 0.950 . S
C932 C918 1.377 . S
C932 C931 1.373 . S
C933 C917 1.377 . S
C933 C931 1.389 . S
C933 C934 1.524 . S
C934 C933 1.524 . S
C934 C935 1.397 . S
C934 C939 1.363 . S
C935 H906 0.950 . S
C935 C934 1.397 . S
C935 C936 1.334 . S
C936 H907 0.950 . S
C936 C935 1.334 . S
C936 C937 1.287 . S
C937 C936 1.287 . S
C937 C938 1.524 . S
C937 H940 0.999 . S
C938 H908 0.950 . S
C938 C937 1.524 . S
C938 C939 1.415 . S
C939 H909 0.950 . S
C939 C934 1.363 . S
C939 C938 1.415 . S
H940 C937 0.999 . S
H941 C922 0.913 . S
H942 C960 0.951 . S
H943 C962 0.931 1_565 S
H944 C964 0.950 . S
H945 C965 0.950 . S
H946 C967 0.950 . S
H947 C970 0.950 . S
H948 C971 0.950 . S
H949 C973 0.950 1_565 S
H950 C974 0.950 . S
H951 C975 0.951 . S
H952 C977 0.951 . S
H953 C979 0.950 . S
H954 C980 0.950 . S
H955 C982 0.950 . S
H956 C985 0.950 . S
H957 C986 0.950 . S
H958 C988 0.931 1_655 S
H959 C989 0.950 . S
C960 H942 0.951 . S
C960 C961 1.366 . S
C960 C962 1.388 . S
C961 C960 1.366 . S
C961 C965 1.385 . S
C962 H943 0.931 1_545 S
C962 C960 1.388 . S
C962 C963 1.366 . S
C963 C962 1.366 . S
C963 C964 1.414 . S
C963 C966 1.499 1_545 S
C964 H944 0.950 . S
C964 C963 1.414 . S
C964 C965 1.374 . S
C965 H945 0.950 . S
C965 C961 1.385 . S
C965 C964 1.374 . S
C966 C963 1.499 1_565 S
C966 C967 1.373 . S
C966 C968 1.389 . S
C967 H946 0.950 . S
C967 C966 1.373 . S
C967 C983 1.377 . S
C968 C966 1.389 . S
C968 C969 1.524 1_565 S
C968 C982 1.377 . S
C969 C968 1.524 1_545 S
C969 C970 1.397 . S
C969 C974 1.363 1_545 S
C970 H947 0.950 . S
C970 C969 1.397 . S
C970 C971 1.334 . S
C971 H948 0.950 . S
C971 C970 1.334 . S
C971 C972 1.287 . S
C972 C971 1.287 . S
C972 C973 1.524 . S
C972 H991 0.913 . S
C973 H949 0.950 1_545 S
C973 C972 1.524 . S
C973 C974 1.415 1_545 S
C974 H950 0.950 . S
C974 C969 1.363 1_565 S
C974 C973 1.415 1_565 S
C975 H951 0.951 . S
C975 C976 1.366 . S
C975 C977 1.388 . S
C976 C975 1.366 . S
C976 C980 1.385 . S
C977 H952 0.951 . S
C977 C975 1.388 . S
C977 C978 1.366 . S
C978 C977 1.366 . S
C978 C979 1.414 . S
C978 C981 1.499 . S
C979 H953 0.950 . S
C979 C978 1.414 . S
C979 C980 1.374 . S
C980 H954 0.950 . S
C980 C976 1.385 . S
C980 C979 1.374 . S
C981 C978 1.499 . S
C981 C982 1.373 . S
C981 C983 1.389 . S
C982 H955 0.950 . S
C982 C968 1.377 . S
C982 C981 1.373 . S
C983 C967 1.377 . S
C983 C981 1.389 . S
C983 C984 1.524 . S
C984 C983 1.524 . S
C984 C985 1.397 . S
C984 C989 1.363 . S
C985 H956 0.950 . S
C985 C984 1.397 . S
C985 C986 1.334 . S
C986 H957 0.950 . S
C986 C985 1.334 . S
C986 C987 1.287 . S
C987 C986 1.287 . S
C987 C988 1.530 . S
C987 H990 0.999 1_455 S
C988 H958 0.931 1_455 S
C988 C987 1.530 . S
C988 C989 1.430 . S
C989 H959 0.950 . S
C989 C984 1.363 . S
C989 C988 1.430 . S
H990 C987 0.999 1_655 S
H991 C972 0.913 . S
H992 C1010 0.965 . S
H993 C1012 0.951 . S
H994 C1014 0.950 . S
H995 C1015 0.950 . S
H996 C1017 0.950 . S
H997 C1020 0.950 . S
H998 C1021 0.950 . S
H999 C1023 0.950 . S
H1000 C1024 0.950 . S
H1001 C1025 0.951 . S
H1002 C1027 0.951 . S
H1003 C1029 0.950 . S
H1004 C1030 0.950 . S
H1005 C1032 0.950 . S
H1006 C1035 0.950 . S
H1007 C1036 0.950 . S
H1008 C1038 0.950 . S
H1009 C1039 0.950 . S
C1010 H992 0.965 . S
C1010 C1011 1.406 . S
C1010 C1012 1.336 1_556 S
C1011 C1010 1.406 . S
C1011 C1015 1.385 . S
C1012 H993 0.951 . S
C1012 C1010 1.336 1_554 S
C1012 C1013 1.366 . S
C1013 C1012 1.366 . S
C1013 C1014 1.414 . S
C1013 C1016 1.499 . S
C1014 H994 0.950 . S
C1014 C1013 1.414 . S
C1014 C1015 1.374 1_554 S
C1015 H995 0.950 . S
C1015 C1011 1.385 . S
C1015 C1014 1.374 1_556 S
C1016 C1013 1.499 . S
C1016 C1017 1.373 . S
C1016 C1018 1.389 . S
C1017 H996 0.950 . S
C1017 C1016 1.373 . S
C1017 C1033 1.377 . S
C1018 C1016 1.389 . S
C1018 C1019 1.524 . S
C1018 C1032 1.377 . S
C1019 C1018 1.524 . S
C1019 C1020 1.397 . S
C1019 C1024 1.363 . S
C1020 H997 0.950 . S
C1020 C1019 1.397 . S
C1020 C1021 1.334 . S
C1021 H998 0.950 . S
C1021 C1020 1.334 . S
C1021 C1022 1.287 . S
C1022 C1021 1.287 . S
C1022 C1023 1.524 . S
C1022 H1041 0.913 . S
C1023 H999 0.950 . S
C1023 C1022 1.524 . S
C1023 C1024 1.415 . S
C1024 H1000 0.950 . S
C1024 C1019 1.363 . S
C1024 C1023 1.415 . S
C1025 H1001 0.951 . S
C1025 C1026 1.366 . S
C1025 C1027 1.388 . S
C1026 C1025 1.366 . S
C1026 C1030 1.385 . S
C1027 H1002 0.951 . S
C1027 C1025 1.388 . S
C1027 C1028 1.366 . S
C1028 C1027 1.366 . S
C1028 C1029 1.414 . S
C1028 C1031 1.499 . S
C1029 H1003 0.950 . S
C1029 C1028 1.414 . S
C1029 C1030 1.374 . S
C1030 H1004 0.950 . S
C1030 C1026 1.385 . S
C1030 C1029 1.374 . S
C1031 C1028 1.499 . S
C1031 C1032 1.373 . S
C1031 C1033 1.389 . S
C1032 H1005 0.950 . S
C1032 C1018 1.377 . S
C1032 C1031 1.373 . S
C1033 C1017 1.377 . S
C1033 C1031 1.389 . S
C1033 C1034 1.524 . S
C1034 C1033 1.524 . S
C1034 C1035 1.397 . S
C1034 C1039 1.363 . S
C1035 H1006 0.950 . S
C1035 C1034 1.397 . S
C1035 C1036 1.334 . S
C1036 H1007 0.950 . S
C1036 C1035 1.334 . S
C1036 C1037 1.287 . S
C1037 C1036 1.287 . S
C1037 C1038 1.524 . S
C1037 H1040 0.999 . S
C1038 H1008 0.950 . S
C1038 C1037 1.524 . S
C1038 C1039 1.415 . S
C1039 H1009 0.950 . S
C1039 C1034 1.363 . S
C1039 C1038 1.415 . S
H1040 C1037 0.999 . S
H1041 C1022 0.913 . S
H1042 C1060 0.951 . S
H1043 C1062 0.951 . S
H1044 C1064 0.950 . S
H1045 C1065 0.950 . S
H1046 C1067 0.950 . S
H1047 C1070 0.950 . S
H1048 C1071 0.950 . S
H1049 C1073 0.950 . S
H1050 C1074 0.950 . S
H1051 C1075 0.951 . S
H1052 C1077 0.951 . S
H1053 C1079 0.950 . S
H1054 C1080 0.950 . S
H1055 C1082 0.950 . S
H1056 C1085 0.950 . S
H1057 C1086 0.950 . S
H1058 C1088 0.950 . S
H1059 C1089 0.950 . S
C1060 H1042 0.951 . S
C1060 C1061 1.366 . S
C1060 C1062 1.388 . S
C1061 C1060 1.366 . S
C1061 C1065 1.385 . S
C1062 H1043 0.951 . S
C1062 C1060 1.388 . S
C1062 C1063 1.366 . S
C1063 C1062 1.366 . S
C1063 C1064 1.414 . S
C1063 C1066 1.499 . S
C1064 H1044 0.950 . S
C1064 C1063 1.414 . S
C1064 C1065 1.374 . S
C1065 H1045 0.950 . S
C1065 C1061 1.385 . S
C1065 C1064 1.374 . S
C1066 C1063 1.499 . S
C1066 C1067 1.373 . S
C1066 C1068 1.389 . S
C1067 H1046 0.950 . S
C1067 C1066 1.373 . S
C1067 C1083 1.377 . S
C1068 C1066 1.389 . S
C1068 C1069 1.524 . S
C1068 C1082 1.377 . S
C1069 C1068 1.524 . S
C1069 C1070 1.397 . S
C1069 C1074 1.363 . S
C1070 H1047 0.950 . S
C1070 C1069 1.397 . S
C1070 C1071 1.334 . S
C1071 H1048 0.950 . S
C1071 C1070 1.334 . S
C1071 C1072 1.287 . S
C1072 C1071 1.287 . S
C1072 C1073 1.524 . S
C1072 H1091 0.913 . S
C1073 H1049 0.950 . S
C1073 C1072 1.524 . S
C1073 C1074 1.415 . S
C1074 H1050 0.950 . S
C1074 C1069 1.363 . S
C1074 C1073 1.415 . S
C1075 H1051 0.951 . S
C1075 C1076 1.366 . S
C1075 C1077 1.388 . S
C1076 C1075 1.366 . S
C1076 C1080 1.385 . S
C1077 H1052 0.951 . S
C1077 C1075 1.388 . S
C1077 C1078 1.366 . S
C1078 C1077 1.366 . S
C1078 C1079 1.414 . S
C1078 C1081 1.499 . S
C1079 H1053 0.950 . S
C1079 C1078 1.414 . S
C1079 C1080 1.374 . S
C1080 H1054 0.950 . S
C1080 C1076 1.385 . S
C1080 C1079 1.374 . S
C1081 C1078 1.499 . S
C1081 C1082 1.373 . S
C1081 C1083 1.389 . S
C1082 H1055 0.950 . S
C1082 C1068 1.377 . S
C1082 C1081 1.373 . S
C1083 C1067 1.377 . S
C1083 C1081 1.389 . S
C1083 C1084 1.524 . S
C1084 C1083 1.524 . S
C1084 C1085 1.397 . S
C1084 C1089 1.363 . S
C1085 H1056 0.950 . S
C1085 C1084 1.397 . S
C1085 C1086 1.334 . S
C1086 H1057 0.950 . S
C1086 C1085 1.334 . S
C1086 C1087 1.287 . S
C1087 C1086 1.287 . S
C1087 C1088 1.524 . S
C1087 H1090 0.999 . S
C1088 H1058 0.950 . S
C1088 C1087 1.524 . S
C1088 C1089 1.415 . S
C1089 H1059 0.950 . S
C1089 C1084 1.363 . S
C1089 C1088 1.415 . S
H1090 C1087 0.999 . S
H1091 C1072 0.913 . S
H1092 C1110 0.951 . S
H1093 C1112 0.951 . S
H1094 C1114 0.950 . S
H1095 C1115 0.950 . S
H1096 C1117 0.950 . S
H1097 C1120 0.950 . S
H1098 C1121 0.950 . S
H1099 C1123 0.950 . S
H1100 C1124 0.950 . S
H1101 C1125 0.951 . S
H1102 C1127 0.951 . S
H1103 C1129 0.950 . S
H1104 C1130 0.950 . S
H1105 C1132 0.950 . S
H1106 C1135 0.950 . S
H1107 C1136 0.950 . S
H1108 C1138 0.950 . S
H1109 C1139 0.950 . S
C1110 H1092 0.951 . S
C1110 C1111 1.366 . S
C1110 C1112 1.388 1_554 S
C1111 C1110 1.366 . S
C1111 C1115 1.385 . S
C1112 H1093 0.951 . S
C1112 C1110 1.388 1_556 S
C1112 C1113 1.366 . S
C1113 C1112 1.366 . S
C1113 C1114 1.414 . S
C1113 C1116 1.499 . S
C1114 H1094 0.950 . S
C1114 C1113 1.414 . S
C1114 C1115 1.374 1_556 S
C1115 H1095 0.950 . S
C1115 C1111 1.385 . S
C1115 C1114 1.374 1_554 S
C1116 C1113 1.499 . S
C1116 C1117 1.373 . S
C1116 C1118 1.389 . S
C1117 H1096 0.950 . S
C1117 C1116 1.373 . S
C1117 C1133 1.377 . S
C1118 C1116 1.389 . S
C1118 C1119 1.524 . S
C1118 C1132 1.377 . S
C1119 C1118 1.524 . S
C1119 C1120 1.397 . S
C1119 C1124 1.363 . S
C1120 H1097 0.950 . S
C1120 C1119 1.397 . S
C1120 C1121 1.334 . S
C1121 H1098 0.950 . S
C1121 C1120 1.334 . S
C1121 C1122 1.287 . S
C1122 C1121 1.287 . S
C1122 C1123 1.524 . S
C1122 H1141 0.913 . S
C1123 H1099 0.950 . S
C1123 C1122 1.524 . S
C1123 C1124 1.415 . S
C1124 H1100 0.950 . S
C1124 C1119 1.363 . S
C1124 C1123 1.415 . S
C1125 H1101 0.951 . S
C1125 C1126 1.366 . S
C1125 C1127 1.388 . S
C1126 C1125 1.366 . S
C1126 C1130 1.385 . S
C1127 H1102 0.951 . S
C1127 C1125 1.388 . S
C1127 C1128 1.366 . S
C1128 C1127 1.366 . S
C1128 C1129 1.414 . S
C1128 C1131 1.499 . S
C1129 H1103 0.950 . S
C1129 C1128 1.414 . S
C1129 C1130 1.374 . S
C1130 H1104 0.950 . S
C1130 C1126 1.385 . S
C1130 C1129 1.374 . S
C1131 C1128 1.499 . S
C1131 C1132 1.373 . S
C1131 C1133 1.389 . S
C1132 H1105 0.950 . S
C1132 C1118 1.377 . S
C1132 C1131 1.373 . S
C1133 C1117 1.377 . S
C1133 C1131 1.389 . S
C1133 C1134 1.524 . S
C1134 C1133 1.524 . S
C1134 C1135 1.397 . S
C1134 C1139 1.363 . S
C1135 H1106 0.950 . S
C1135 C1134 1.397 . S
C1135 C1136 1.334 . S
C1136 H1107 0.950 . S
C1136 C1135 1.334 . S
C1136 C1137 1.287 . S
C1137 C1136 1.287 . S
C1137 C1138 1.524 . S
C1137 H1140 0.999 . S
C1138 H1108 0.950 . S
C1138 C1137 1.524 . S
C1138 C1139 1.415 . S
C1139 H1109 0.950 . S
C1139 C1134 1.363 . S
C1139 C1138 1.415 . S
H1140 C1137 0.999 . S
H1141 C1122 0.913 . S
H1142 C1160 0.951 . S
H1143 C1162 0.951 . S
H1144 C1164 0.950 . S
H1145 C1165 0.950 . S
H1146 C1167 0.950 . S
H1147 C1170 0.950 . S
H1148 C1171 0.950 . S
H1149 C1173 0.950 . S
H1150 C1174 0.950 . S
H1151 C1175 0.951 . S
H1152 C1177 0.951 . S
H1153 C1179 0.950 . S
H1154 C1180 0.950 . S
H1155 C1182 0.950 . S
H1156 C1185 0.950 . S
H1157 C1186 0.950 . S
H1158 C1188 0.950 . S
H1159 C1189 0.950 . S
C1160 H1142 0.951 . S
C1160 C1161 1.366 . S
C1160 C1162 1.388 . S
C1161 C1160 1.366 . S
C1161 C1165 1.385 . S
C1162 H1143 0.951 . S
C1162 C1160 1.388 . S
C1162 C1163 1.366 . S
C1163 C1162 1.366 . S
C1163 C1164 1.414 . S
C1163 C1166 1.499 . S
C1164 H1144 0.950 . S
C1164 C1163 1.414 . S
C1164 C1165 1.374 . S
C1165 H1145 0.950 . S
C1165 C1161 1.385 . S
C1165 C1164 1.374 . S
C1166 C1163 1.499 . S
C1166 C1167 1.373 . S
C1166 C1168 1.389 . S
C1167 H1146 0.950 . S
C1167 C1166 1.373 . S
C1167 C1183 1.377 . S
C1168 C1166 1.389 . S
C1168 C1169 1.524 . S
C1168 C1182 1.377 . S
C1169 C1168 1.524 . S
C1169 C1170 1.397 . S
C1169 C1174 1.363 . S
C1170 H1147 0.950 . S
C1170 C1169 1.397 . S
C1170 C1171 1.334 . S
C1171 H1148 0.950 . S
C1171 C1170 1.334 . S
C1171 C1172 1.287 . S
C1172 C1171 1.287 . S
C1172 C1173 1.524 . S
C1172 H1191 0.913 . S
C1173 H1149 0.950 . S
C1173 C1172 1.524 . S
C1173 C1174 1.415 . S
C1174 H1150 0.950 . S
C1174 C1169 1.363 . S
C1174 C1173 1.415 . S
C1175 H1151 0.951 . S
C1175 C1176 1.366 . S
C1175 C1177 1.388 . S
C1176 C1175 1.366 . S
C1176 C1180 1.385 . S
C1177 H1152 0.951 . S
C1177 C1175 1.388 . S
C1177 C1178 1.366 . S
C1178 C1177 1.366 . S
C1178 C1179 1.414 . S
C1178 C1181 1.499 . S
C1179 H1153 0.950 . S
C1179 C1178 1.414 . S
C1179 C1180 1.374 . S
C1180 H1154 0.950 . S
C1180 C1176 1.385 . S
C1180 C1179 1.374 . S
C1181 C1178 1.499 . S
C1181 C1182 1.373 . S
C1181 C1183 1.389 . S
C1182 H1155 0.950 . S
C1182 C1168 1.377 . S
C1182 C1181 1.373 . S
C1183 C1167 1.377 . S
C1183 C1181 1.389 . S
C1183 C1184 1.524 . S
C1184 C1183 1.524 . S
C1184 C1185 1.397 . S
C1184 C1189 1.363 . S
C1185 H1156 0.950 . S
C1185 C1184 1.397 . S
C1185 C1186 1.334 1_655 S
C1186 H1157 0.950 . S
C1186 C1185 1.334 1_455 S
C1186 C1187 1.287 . S
C1187 C1186 1.287 . S
C1187 C1188 1.524 1_455 S
C1187 H1190 0.999 . S
C1188 H1158 0.950 . S
C1188 C1187 1.524 1_655 S
C1188 C1189 1.415 . S
C1189 H1159 0.950 . S
C1189 C1184 1.363 . S
C1189 C1188 1.415 . S
H1190 C1187 0.999 . S
H1191 C1172 0.913 . S
H1192 C1210 0.946 1_554 S
H1193 C1212 0.951 . S
H1194 C1214 0.950 . S
H1195 C1215 0.950 . S
H1196 C1217 0.950 . S
H1197 C1220 0.950 . S
H1198 C1221 0.950 . S
H1199 C1223 0.950 . S
H1200 C1224 0.950 . S
H1201 C1225 0.951 . S
H1202 C1227 0.951 . S
H1203 C1229 0.950 . S
H1204 C1230 0.950 . S
H1205 C1232 0.950 . S
H1206 C1235 0.950 . S
H1207 C1236 0.950 . S
H1208 C1238 0.950 . S
H1209 C1239 0.950 . S
C1210 H1192 0.946 1_556 S
C1210 C1211 1.338 1_556 S
C1210 C1212 1.421 . S
C1211 C1210 1.338 1_554 S
C1211 C1215 1.385 . S
C1212 H1193 0.951 . S
C1212 C1210 1.421 . S
C1212 C1213 1.366 . S
C1213 C1212 1.366 . S
C1213 C1214 1.414 . S
C1213 C1216 1.499 . S
C1214 H1194 0.950 . S
C1214 C1213 1.414 . S
C1214 C1215 1.374 1_556 S
C1215 H1195 0.950 . S
C1215 C1211 1.385 . S
C1215 C1214 1.374 1_554 S
C1216 C1213 1.499 . S
C1216 C1217 1.373 . S
C1216 C1218 1.389 . S
C1217 H1196 0.950 . S
C1217 C1216 1.373 . S
C1217 C1233 1.377 . S
C1218 C1216 1.389 . S
C1218 C1219 1.524 . S
C1218 C1232 1.377 . S
C1219 C1218 1.524 . S
C1219 C1220 1.397 . S
C1219 C1224 1.363 . S
C1220 H1197 0.950 . S
C1220 C1219 1.397 . S
C1220 C1221 1.334 . S
C1221 H1198 0.950 . S
C1221 C1220 1.334 . S
C1221 C1222 1.287 . S
C1222 C1221 1.287 . S
C1222 C1223 1.524 . S
C1222 H1241 0.913 . S
C1223 H1199 0.950 . S
C1223 C1222 1.524 . S
C1223 C1224 1.415 . S
C1224 H1200 0.950 . S
C1224 C1219 1.363 . S
C1224 C1223 1.415 . S
C1225 H1201 0.951 . S
C1225 C1226 1.366 . S
C1225 C1227 1.388 . S
C1226 C1225 1.366 . S
C1226 C1230 1.385 . S
C1227 H1202 0.951 . S
C1227 C1225 1.388 . S
C1227 C1228 1.366 . S
C1228 C1227 1.366 . S
C1228 C1229 1.414 . S
C1228 C1231 1.499 . S
C1229 H1203 0.950 . S
C1229 C1228 1.414 . S
C1229 C1230 1.374 . S
C1230 H1204 0.950 . S
C1230 C1226 1.385 . S
C1230 C1229 1.374 . S
C1231 C1228 1.499 . S
C1231 C1232 1.373 . S
C1231 C1233 1.389 . S
C1232 H1205 0.950 . S
C1232 C1218 1.377 . S
C1232 C1231 1.373 . S
C1233 C1217 1.377 . S
C1233 C1231 1.389 . S
C1233 C1234 1.524 . S
C1234 C1233 1.524 . S
C1234 C1235 1.397 . S
C1234 C1239 1.363 . S
C1235 H1206 0.950 . S
C1235 C1234 1.397 . S
C1235 C1236 1.334 . S
C1236 H1207 0.950 . S
C1236 C1235 1.334 . S
C1236 C1237 1.287 . S
C1237 C1236 1.287 . S
C1237 C1238 1.524 . S
C1237 H1240 0.999 . S
C1238 H1208 0.950 . S
C1238 C1237 1.524 . S
C1238 C1239 1.415 . S
C1239 H1209 0.950 . S
C1239 C1234 1.363 . S
C1239 C1238 1.415 . S
H1240 C1237 0.999 . S
H1241 C1222 0.913 . S
H1242 C1260 0.951 . S
H1243 C1262 0.951 . S
H1244 C1264 0.950 . S
H1245 C1265 0.950 . S
H1246 C1267 0.950 . S
H1247 C1270 0.950 . S
H1248 C1271 0.950 . S
H1249 C1273 0.950 . S
H1250 C1274 0.950 . S
H1251 C1275 0.951 . S
H1252 C1277 0.951 . S
H1253 C1279 0.950 . S
H1254 C1280 0.950 . S
H1255 C1282 0.950 . S
H1256 C1285 0.950 . S
H1257 C1286 0.950 . S
H1258 C1288 0.950 . S
H1259 C1289 0.950 . S
C1260 H1242 0.951 . S
C1260 C1261 1.366 . S
C1260 C1262 1.388 . S
C1261 C1260 1.366 . S
C1261 C1265 1.385 . S
C1262 H1243 0.951 . S
C1262 C1260 1.388 . S
C1262 C1263 1.366 . S
C1263 C1262 1.366 . S
C1263 C1264 1.414 . S
C1263 C1266 1.499 . S
C1264 H1244 0.950 . S
C1264 C1263 1.414 . S
C1264 C1265 1.374 . S
C1265 H1245 0.950 . S
C1265 C1261 1.385 . S
C1265 C1264 1.374 . S
C1266 C1263 1.499 . S
C1266 C1267 1.373 . S
C1266 C1268 1.389 . S
C1267 H1246 0.950 . S
C1267 C1266 1.373 . S
C1267 C1283 1.377 . S
C1268 C1266 1.389 . S
C1268 C1269 1.524 . S
C1268 C1282 1.377 . S
C1269 C1268 1.524 . S
C1269 C1270 1.397 . S
C1269 C1274 1.363 . S
C1270 H1247 0.950 . S
C1270 C1269 1.397 . S
C1270 C1271 1.334 . S
C1271 H1248 0.950 . S
C1271 C1270 1.334 . S
C1271 C1272 1.287 . S
C1272 C1271 1.287 . S
C1272 C1273 1.524 . S
C1272 H1291 0.913 . S
C1273 H1249 0.950 . S
C1273 C1272 1.524 . S
C1273 C1274 1.415 . S
C1274 H1250 0.950 . S
C1274 C1269 1.363 . S
C1274 C1273 1.415 . S
C1275 H1251 0.951 . S
C1275 C1276 1.366 . S
C1275 C1277 1.388 . S
C1276 C1275 1.366 . S
C1276 C1280 1.385 . S
C1277 H1252 0.951 . S
C1277 C1275 1.388 . S
C1277 C1278 1.366 . S
C1278 C1277 1.366 . S
C1278 C1279 1.414 . S
C1278 C1281 1.499 . S
C1279 H1253 0.950 . S
C1279 C1278 1.414 . S
C1279 C1280 1.374 . S
C1280 H1254 0.950 . S
C1280 C1276 1.385 . S
C1280 C1279 1.374 . S
C1281 C1278 1.499 . S
C1281 C1282 1.373 . S
C1281 C1283 1.389 . S
C1282 H1255 0.950 . S
C1282 C1268 1.377 . S
C1282 C1281 1.373 . S
C1283 C1267 1.377 . S
C1283 C1281 1.389 . S
C1283 C1284 1.524 . S
C1284 C1283 1.524 . S
C1284 C1285 1.397 . S
C1284 C1289 1.363 . S
C1285 H1256 0.950 . S
C1285 C1284 1.397 . S
C1285 C1286 1.334 . S
C1286 H1257 0.950 . S
C1286 C1285 1.334 . S
C1286 C1287 1.287 . S
C1287 C1286 1.287 . S
C1287 C1288 1.524 . S
C1287 H1290 0.999 . S
C1288 H1258 0.950 . S
C1288 C1287 1.524 . S
C1288 C1289 1.415 . S
C1289 H1259 0.950 . S
C1289 C1284 1.363 . S
C1289 C1288 1.415 . S
H1290 C1287 0.999 . S
H1291 C1272 0.913 . S
H1292 C1310 0.951 . S
H1293 C1312 0.951 . S
H1294 C1314 0.950 . S
H1295 C1315 0.950 . S
H1296 C1317 0.950 . S
H1297 C1320 0.950 . S
H1298 C1321 0.950 1_556 S
H1299 C1323 0.950 . S
H1300 C1324 0.950 . S
H1301 C1325 0.951 . S
H1302 C1327 0.951 . S
H1303 C1329 0.950 . S
H1304 C1330 0.950 . S
H1305 C1332 0.950 . S
H1306 C1335 0.950 . S
H1307 C1336 0.950 . S
H1308 C1338 0.950 . S
H1309 C1339 0.950 . S
C1310 H1292 0.951 . S
C1310 C1311 1.366 . S
C1310 C1312 1.388 1_556 S
C1311 C1310 1.366 . S
C1311 C1315 1.385 . S
C1312 H1293 0.951 . S
C1312 C1310 1.388 1_554 S
C1312 C1313 1.366 . S
C1313 C1312 1.366 . S
C1313 C1314 1.414 . S
C1313 C1316 1.499 . S
C1314 H1294 0.950 . S
C1314 C1313 1.414 . S
C1314 C1315 1.374 1_554 S
C1315 H1295 0.950 . S
C1315 C1311 1.385 . S
C1315 C1314 1.374 1_556 S
C1316 C1313 1.499 . S
C1316 C1317 1.373 . S
C1316 C1318 1.389 . S
C1317 H1296 0.950 . S
C1317 C1316 1.373 . S
C1317 C1333 1.377 . S
C1318 C1316 1.389 . S
C1318 C1319 1.524 . S
C1318 C1332 1.377 . S
C1319 C1318 1.524 . S
C1319 C1320 1.397 . S
C1319 C1324 1.363 . S
C1320 H1297 0.950 . S
C1320 C1319 1.397 . S
C1320 C1321 1.334 . S
C1321 H1298 0.950 1_554 S
C1321 C1320 1.334 . S
C1321 C1322 1.287 . S
C1322 C1321 1.287 . S
C1322 C1323 1.524 . S
C1322 H1341 0.945 . S
C1323 H1299 0.950 . S
C1323 C1322 1.524 . S
C1323 C1324 1.415 . S
C1324 H1300 0.950 . S
C1324 C1319 1.363 . S
C1324 C1323 1.415 . S
C1325 H1301 0.951 . S
C1325 C1326 1.366 . S
C1325 C1327 1.388 . S
C1326 C1325 1.366 . S
C1326 C1330 1.385 . S
C1327 H1302 0.951 . S
C1327 C1325 1.388 . S
C1327 C1328 1.366 . S
C1328 C1327 1.366 . S
C1328 C1329 1.414 . S
C1328 C1331 1.499 . S
C1329 H1303 0.950 . S
C1329 C1328 1.414 . S
C1329 C1330 1.374 . S
C1330 H1304 0.950 . S
C1330 C1326 1.385 . S
C1330 C1329 1.374 . S
C1331 C1328 1.499 . S
C1331 C1332 1.373 . S
C1331 C1333 1.389 . S
C1332 H1305 0.950 . S
C1332 C1318 1.377 . S
C1332 C1331 1.373 . S
C1333 C1317 1.377 . S
C1333 C1331 1.389 . S
C1333 C1334 1.524 . S
C1334 C1333 1.524 . S
C1334 C1335 1.397 . S
C1334 C1339 1.363 . S
C1335 H1306 0.950 . S
C1335 C1334 1.397 . S
C1335 C1336 1.334 . S
C1336 H1307 0.950 . S
C1336 C1335 1.334 . S
C1336 C1337 1.287 . S
C1337 C1336 1.287 . S
C1337 C1338 1.524 . S
C1337 H1340 0.999 . S
C1338 H1308 0.950 . S
C1338 C1337 1.524 . S
C1338 C1339 1.415 . S
C1339 H1309 0.950 . S
C1339 C1334 1.363 . S
C1339 C1338 1.415 . S
H1340 C1337 0.999 . S
H1341 C1322 0.945 . S
H1342 C1360 0.951 . S
H1343 C1362 0.951 . S
H1344 C1364 0.950 . S
H1345 C1365 0.950 . S
H1346 C1367 0.950 . S
H1347 C1370 0.950 . S
H1348 C1371 0.950 . S
H1349 C1373 0.950 . S
H1350 C1374 0.950 . S
H1351 C1375 0.951 . S
H1352 C1377 0.951 . S
H1353 C1379 0.950 . S
H1354 C1380 0.950 . S
H1355 C1382 0.950 . S
H1356 C1385 0.950 . S
H1357 C1386 0.950 . S
H1358 C1388 0.950 . S
H1359 C1389 0.950 . S
C1360 H1342 0.951 . S
C1360 C1361 1.366 . S
C1360 C1362 1.388 . S
C1361 C1360 1.366 . S
C1361 C1365 1.385 . S
C1362 H1343 0.951 . S
C1362 C1360 1.388 . S
C1362 C1363 1.366 . S
C1363 C1362 1.366 . S
C1363 C1364 1.414 . S
C1363 C1366 1.499 . S
C1364 H1344 0.950 . S
C1364 C1363 1.414 . S
C1364 C1365 1.374 . S
C1365 H1345 0.950 . S
C1365 C1361 1.385 . S
C1365 C1364 1.374 . S
C1366 C1363 1.499 . S
C1366 C1367 1.373 . S
C1366 C1368 1.389 . S
C1367 H1346 0.950 . S
C1367 C1366 1.373 . S
C1367 C1383 1.377 . S
C1368 C1366 1.389 . S
C1368 C1369 1.524 . S
C1368 C1382 1.377 . S
C1369 C1368 1.524 . S
C1369 C1370 1.397 . S
C1369 C1374 1.363 . S
C1370 H1347 0.950 . S
C1370 C1369 1.397 . S
C1370 C1371 1.334 . S
C1371 H1348 0.950 . S
C1371 C1370 1.334 . S
C1371 C1372 1.287 . S
C1372 C1371 1.287 . S
C1372 C1373 1.524 . S
C1372 H1391 0.913 . S
C1373 H1349 0.950 . S
C1373 C1372 1.524 . S
C1373 C1374 1.415 . S
C1374 H1350 0.950 . S
C1374 C1369 1.363 . S
C1374 C1373 1.415 . S
C1375 H1351 0.951 . S
C1375 C1376 1.366 . S
C1375 C1377 1.388 . S
C1376 C1375 1.366 . S
C1376 C1380 1.385 . S
C1377 H1352 0.951 . S
C1377 C1375 1.388 . S
C1377 C1378 1.366 . S
C1378 C1377 1.366 . S
C1378 C1379 1.414 . S
C1378 C1381 1.499 . S
C1379 H1353 0.950 . S
C1379 C1378 1.414 . S
C1379 C1380 1.374 . S
C1380 H1354 0.950 . S
C1380 C1376 1.385 . S
C1380 C1379 1.374 . S
C1381 C1378 1.499 . S
C1381 C1382 1.373 . S
C1381 C1383 1.389 . S
C1382 H1355 0.950 . S
C1382 C1368 1.377 . S
C1382 C1381 1.373 . S
C1383 C1367 1.377 . S
C1383 C1381 1.389 . S
C1383 C1384 1.524 . S
C1384 C1383 1.524 . S
C1384 C1385 1.397 . S
C1384 C1389 1.363 . S
C1385 H1356 0.950 . S
C1385 C1384 1.397 . S
C1385 C1386 1.334 . S
C1386 H1357 0.950 . S
C1386 C1385 1.334 . S
C1386 C1387 1.287 . S
C1387 C1386 1.287 . S
C1387 C1388 1.524 . S
C1387 H1390 0.999 . S
C1388 H1358 0.950 . S
C1388 C1387 1.524 . S
C1388 C1389 1.415 . S
C1389 H1359 0.950 . S
C1389 C1384 1.363 . S
C1389 C1388 1.415 . S
H1390 C1387 0.999 . S
H1391 C1372 0.913 . S
H1392 C1410 0.951 . S
H1393 C1412 0.951 . S
H1394 C1414 0.950 . S
H1395 C1415 0.950 . S
H1396 C1417 0.950 . S
H1397 C1420 0.950 . S
H1398 C1421 0.950 . S
H1399 C1423 0.950 . S
H1400 C1424 0.950 . S
H1401 C1425 0.951 . S
H1402 C1427 0.951 . S
H1403 C1429 0.950 . S
H1404 C1430 0.950 . S
H1405 C1432 0.950 . S
H1406 C1435 0.950 . S
H1407 C1436 0.950 . S
H1408 C1438 0.950 . S
H1409 C1439 0.950 . S
C1410 H1392 0.951 . S
C1410 C1411 1.366 . S
C1410 C1412 1.388 . S
C1411 C1410 1.366 . S
C1411 C1415 1.385 . S
C1412 H1393 0.951 . S
C1412 C1410 1.388 . S
C1412 C1413 1.366 . S
C1413 C1412 1.366 . S
C1413 C1414 1.414 . S
C1413 C1416 1.499 . S
C1414 H1394 0.950 . S
C1414 C1413 1.414 . S
C1414 C1415 1.374 . S
C1415 H1395 0.950 . S
C1415 C1411 1.385 . S
C1415 C1414 1.374 . S
C1416 C1413 1.499 . S
C1416 C1417 1.373 . S
C1416 C1418 1.389 . S
C1417 H1396 0.950 . S
C1417 C1416 1.373 . S
C1417 C1433 1.377 . S
C1418 C1416 1.389 . S
C1418 C1419 1.524 . S
C1418 C1432 1.377 . S
C1419 C1418 1.524 . S
C1419 C1420 1.397 . S
C1419 C1424 1.363 . S
C1420 H1397 0.950 . S
C1420 C1419 1.397 . S
C1420 C1421 1.334 . S
C1421 H1398 0.950 . S
C1421 C1420 1.334 . S
C1421 C1422 1.287 . S
C1422 C1421 1.287 . S
C1422 C1423 1.524 . S
C1422 H1441 0.913 . S
C1423 H1399 0.950 . S
C1423 C1422 1.524 . S
C1423 C1424 1.415 . S
C1424 H1400 0.950 . S
C1424 C1419 1.363 . S
C1424 C1423 1.415 . S
C1425 H1401 0.951 . S
C1425 C1426 1.366 . S
C1425 C1427 1.388 . S
C1426 C1425 1.366 . S
C1426 C1430 1.385 . S
C1427 H1402 0.951 . S
C1427 C1425 1.388 . S
C1427 C1428 1.366 . S
C1428 C1427 1.366 . S
C1428 C1429 1.414 . S
C1428 C1431 1.499 . S
C1429 H1403 0.950 . S
C1429 C1428 1.414 . S
C1429 C1430 1.374 . S
C1430 H1404 0.950 . S
C1430 C1426 1.385 . S
C1430 C1429 1.374 . S
C1431 C1428 1.499 . S
C1431 C1432 1.373 . S
C1431 C1433 1.389 . S
C1432 H1405 0.950 . S
C1432 C1418 1.377 . S
C1432 C1431 1.373 . S
C1433 C1417 1.377 . S
C1433 C1431 1.389 . S
C1433 C1434 1.524 . S
C1434 C1433 1.524 . S
C1434 C1435 1.397 . S
C1434 C1439 1.363 . S
C1435 H1406 0.950 . S
C1435 C1434 1.397 . S
C1435 C1436 1.334 . S
C1436 H1407 0.950 . S
C1436 C1435 1.334 . S
C1436 C1437 1.287 . S
C1437 C1436 1.287 . S
C1437 C1438 1.524 . S
C1437 H1440 0.999 . S
C1438 H1408 0.950 . S
C1438 C1437 1.524 . S
C1438 C1439 1.415 . S
C1439 H1409 0.950 . S
C1439 C1434 1.363 . S
C1439 C1438 1.415 . S
H1440 C1437 0.999 . S
H1441 C1422 0.913 . S
H1442 C1460 0.951 . S
H1443 C1462 0.951 . S
H1444 C1464 0.950 . S
H1445 C1465 0.950 . S
H1446 C1467 0.950 . S
H1447 C1470 0.950 . S
H1448 C1471 0.950 . S
H1449 C1473 0.950 . S
H1450 C1474 0.950 . S
H1451 C1475 0.951 . S
H1452 C1477 0.951 . S
H1453 C1479 0.950 . S
H1454 C1480 0.950 . S
H1455 C1482 0.950 . S
H1456 C1485 0.950 . S
H1457 C1486 0.950 . S
H1458 C1488 0.950 . S
H1459 C1489 0.950 . S
C1460 H1442 0.951 . S
C1460 C1461 1.366 . S
C1460 C1462 1.388 . S
C1461 C1460 1.366 . S
C1461 C1465 1.385 . S
C1462 H1443 0.951 . S
C1462 C1460 1.388 . S
C1462 C1463 1.366 . S
C1463 C1462 1.366 . S
C1463 C1464 1.414 . S
C1463 C1466 1.499 . S
C1464 H1444 0.950 . S
C1464 C1463 1.414 . S
C1464 C1465 1.374 . S
C1465 H1445 0.950 . S
C1465 C1461 1.385 . S
C1465 C1464 1.374 . S
C1466 C1463 1.499 . S
C1466 C1467 1.373 . S
C1466 C1468 1.389 . S
C1467 H1446 0.950 . S
C1467 C1466 1.373 . S
C1467 C1483 1.377 . S
C1468 C1466 1.389 . S
C1468 C1469 1.524 . S
C1468 C1482 1.377 . S
C1469 C1468 1.524 . S
C1469 C1470 1.397 . S
C1469 C1474 1.363 . S
C1470 H1447 0.950 . S
C1470 C1469 1.397 . S
C1470 C1471 1.334 . S
C1471 H1448 0.950 . S
C1471 C1470 1.334 . S
C1471 C1472 1.287 . S
C1472 C1471 1.287 . S
C1472 C1473 1.524 . S
C1472 H1491 0.913 . S
C1473 H1449 0.950 . S
C1473 C1472 1.524 . S
C1473 C1474 1.415 . S
C1474 H1450 0.950 . S
C1474 C1469 1.363 . S
C1474 C1473 1.415 . S
C1475 H1451 0.951 . S
C1475 C1476 1.366 . S
C1475 C1477 1.388 . S
C1476 C1475 1.366 . S
C1476 C1480 1.385 . S
C1477 H1452 0.951 . S
C1477 C1475 1.388 . S
C1477 C1478 1.366 . S
C1478 C1477 1.366 . S
C1478 C1479 1.414 . S
C1478 C1481 1.499 . S
C1479 H1453 0.950 . S
C1479 C1478 1.414 . S
C1479 C1480 1.374 . S
C1480 H1454 0.950 . S
C1480 C1476 1.385 . S
C1480 C1479 1.374 . S
C1481 C1478 1.499 . S
C1481 C1482 1.373 . S
C1481 C1483 1.389 . S
C1482 H1455 0.950 . S
C1482 C1468 1.377 . S
C1482 C1481 1.373 . S
C1483 C1467 1.377 . S
C1483 C1481 1.389 . S
C1483 C1484 1.524 . S
C1484 C1483 1.524 . S
C1484 C1485 1.397 . S
C1484 C1489 1.363 . S
C1485 H1456 0.950 . S
C1485 C1484 1.397 . S
C1485 C1486 1.334 . S
C1486 H1457 0.950 . S
C1486 C1485 1.334 . S
C1486 C1487 1.287 . S
C1487 C1486 1.287 . S
C1487 C1488 1.524 . S
C1487 H1490 0.999 . S
C1488 H1458 0.950 . S
C1488 C1487 1.524 . S
C1488 C1489 1.415 . S
C1489 H1459 0.950 . S
C1489 C1484 1.363 . S
C1489 C1488 1.415 . S
H1490 C1487 0.999 . S
H1491 C1472 0.913 . S
H1492 C1510 0.951 . S
H1493 C1512 0.951 . S
H1494 C1514 0.950 . S
H1495 C1515 0.950 . S
H1496 C1517 0.950 . S
H1497 C1520 0.950 . S
H1498 C1521 0.950 . S
H1499 C1523 0.950 . S
H1500 C1524 0.950 . S
H1501 C1525 0.951 . S
H1502 C1527 0.951 . S
H1503 C1529 0.950 . S
H1504 C1530 0.950 . S
H1505 C1532 0.950 . S
H1506 C1535 0.950 . S
H1507 C1536 0.950 . S
H1508 C1538 0.950 . S
H1509 C1539 0.950 . S
C1510 H1492 0.951 . S
C1510 C1511 1.366 . S
C1510 C1512 1.388 . S
C1511 C1510 1.366 . S
C1511 C1515 1.385 . S
C1512 H1493 0.951 . S
C1512 C1510 1.388 . S
C1512 C1513 1.366 . S
C1513 C1512 1.366 . S
C1513 C1514 1.414 . S
C1513 C1516 1.499 . S
C1514 H1494 0.950 . S
C1514 C1513 1.414 . S
C1514 C1515 1.374 . S
C1515 H1495 0.950 . S
C1515 C1511 1.385 . S
C1515 C1514 1.374 . S
C1516 C1513 1.499 . S
C1516 C1517 1.373 . S
C1516 C1518 1.389 . S
C1517 H1496 0.950 . S
C1517 C1516 1.373 . S
C1517 C1533 1.377 . S
C1518 C1516 1.389 . S
C1518 C1519 1.524 . S
C1518 C1532 1.377 . S
C1519 C1518 1.524 . S
C1519 C1520 1.397 . S
C1519 C1524 1.363 . S
C1520 H1497 0.950 . S
C1520 C1519 1.397 . S
C1520 C1521 1.334 . S
C1521 H1498 0.950 . S
C1521 C1520 1.334 . S
C1521 C1522 1.287 . S
C1522 C1521 1.287 . S
C1522 C1523 1.524 . S
C1522 H1541 0.913 . S
C1523 H1499 0.950 . S
C1523 C1522 1.524 . S
C1523 C1524 1.415 . S
C1524 H1500 0.950 . S
C1524 C1519 1.363 . S
C1524 C1523 1.415 . S
C1525 H1501 0.951 . S
C1525 C1526 1.366 . S
C1525 C1527 1.388 . S
C1526 C1525 1.366 . S
C1526 C1530 1.385 . S
C1527 H1502 0.951 . S
C1527 C1525 1.388 . S
C1527 C1528 1.366 . S
C1528 C1527 1.366 . S
C1528 C1529 1.414 . S
C1528 C1531 1.499 . S
C1529 H1503 0.950 . S
C1529 C1528 1.414 . S
C1529 C1530 1.374 . S
C1530 H1504 0.950 . S
C1530 C1526 1.385 . S
C1530 C1529 1.374 . S
C1531 C1528 1.499 . S
C1531 C1532 1.373 . S
C1531 C1533 1.389 . S
C1532 H1505 0.950 . S
C1532 C1518 1.377 . S
C1532 C1531 1.373 . S
C1533 C1517 1.377 . S
C1533 C1531 1.389 . S
C1533 C1534 1.524 . S
C1534 C1533 1.524 . S
C1534 C1535 1.397 . S
C1534 C1539 1.363 . S
C1535 H1506 0.950 . S
C1535 C1534 1.397 . S
C1535 C1536 1.334 . S
C1536 H1507 0.950 . S
C1536 C1535 1.334 . S
C1536 C1537 1.287 . S
C1537 C1536 1.287 . S
C1537 C1538 1.524 . S
C1537 H1540 0.999 . S
C1538 H1508 0.950 . S
C1538 C1537 1.524 . S
C1538 C1539 1.415 . S
C1539 H1509 0.950 . S
C1539 C1534 1.363 . S
C1539 C1538 1.415 . S
H1540 C1537 0.999 . S
H1541 C1522 0.913 . S
H1542 C1560 0.951 . S
H1543 C1562 0.951 . S
H1544 C1564 0.950 . S
H1545 C1565 0.950 . S
H1546 C1567 0.950 . S
H1547 C1570 0.950 . S
H1548 C1571 0.950 . S
H1549 C1573 0.950 . S
H1550 C1574 0.950 . S
H1551 C1575 0.951 . S
H1552 C1577 0.951 . S
H1553 C1579 0.950 . S
H1554 C1580 0.950 . S
H1555 C1582 0.950 . S
H1556 C1585 0.950 . S
H1557 C1586 0.950 . S
H1558 C1588 0.950 . S
H1559 C1589 0.950 . S
C1560 H1542 0.951 . S
C1560 C1561 1.366 . S
C1560 C1562 1.388 . S
C1561 C1560 1.366 . S
C1561 C1565 1.385 . S
C1562 H1543 0.951 . S
C1562 C1560 1.388 . S
C1562 C1563 1.366 . S
C1563 C1562 1.366 . S
C1563 C1564 1.414 . S
C1563 C1566 1.499 . S
C1564 H1544 0.950 . S
C1564 C1563 1.414 . S
C1564 C1565 1.374 . S
C1565 H1545 0.950 . S
C1565 C1561 1.385 . S
C1565 C1564 1.374 . S
C1566 C1563 1.499 . S
C1566 C1567 1.373 . S
C1566 C1568 1.389 . S
C1567 H1546 0.950 . S
C1567 C1566 1.373 . S
C1567 C1583 1.377 . S
C1568 C1566 1.389 . S
C1568 C1569 1.524 . S
C1568 C1582 1.377 . S
C1569 C1568 1.524 . S
C1569 C1570 1.397 . S
C1569 C1574 1.363 . S
C1570 H1547 0.950 . S
C1570 C1569 1.397 . S
C1570 C1571 1.334 . S
C1571 H1548 0.950 . S
C1571 C1570 1.334 . S
C1571 C1572 1.287 . S
C1572 C1571 1.287 . S
C1572 C1573 1.524 . S
C1572 H1591 0.913 . S
C1573 H1549 0.950 . S
C1573 C1572 1.524 . S
C1573 C1574 1.415 . S
C1574 H1550 0.950 . S
C1574 C1569 1.363 . S
C1574 C1573 1.415 . S
C1575 H1551 0.951 . S
C1575 C1576 1.366 . S
C1575 C1577 1.388 . S
C1576 C1575 1.366 . S
C1576 C1580 1.385 . S
C1577 H1552 0.951 . S
C1577 C1575 1.388 . S
C1577 C1578 1.366 . S
C1578 C1577 1.366 . S
C1578 C1579 1.414 . S
C1578 C1581 1.499 . S
C1579 H1553 0.950 . S
C1579 C1578 1.414 . S
C1579 C1580 1.374 . S
C1580 H1554 0.950 . S
C1580 C1576 1.385 . S
C1580 C1579 1.374 . S
C1581 C1578 1.499 . S
C1581 C1582 1.373 . S
C1581 C1583 1.389 . S
C1582 H1555 0.950 . S
C1582 C1568 1.377 . S
C1582 C1581 1.373 . S
C1583 C1567 1.377 . S
C1583 C1581 1.389 . S
C1583 C1584 1.524 . S
C1584 C1583 1.524 . S
C1584 C1585 1.397 . S
C1584 C1589 1.363 . S
C1585 H1556 0.950 . S
C1585 C1584 1.397 . S
C1585 C1586 1.334 . S
C1586 H1557 0.950 . S
C1586 C1585 1.334 . S
C1586 C1587 1.287 . S
C1587 C1586 1.287 . S
C1587 C1588 1.524 . S
C1587 H1590 0.999 . S
C1588 H1558 0.950 . S
C1588 C1587 1.524 . S
C1588 C1589 1.415 . S
C1589 H1559 0.950 . S
C1589 C1584 1.363 . S
C1589 C1588 1.415 . S
H1590 C1587 0.999 . S
H1591 C1572 0.913 . S
H1592 C1610 0.951 . S
H1593 C1612 0.951 . S
H1594 C1614 0.950 . S
H1595 C1615 0.950 . S
H1596 C1617 0.950 . S
H1597 C1620 0.950 . S
H1598 C1621 0.950 . S
H1599 C1623 0.950 . S
H1600 C1624 0.950 . S
H1601 C1625 0.951 . S
H1602 C1627 0.951 . S
H1603 C1629 0.950 . S
H1604 C1630 0.950 1_455 S
H1605 C1632 0.950 . S
H1606 C1635 0.950 . S
H1607 C1636 0.950 . S
H1608 C1638 0.950 . S
H1609 C1639 0.950 . S
C1610 H1592 0.951 . S
C1610 C1611 1.366 . S
C1610 C1612 1.388 . S
C1611 C1610 1.366 . S
C1611 C1615 1.385 . S
C1612 H1593 0.951 . S
C1612 C1610 1.388 . S
C1612 C1613 1.366 . S
C1613 C1612 1.366 . S
C1613 C1614 1.414 . S
C1613 C1616 1.499 . S
C1614 H1594 0.950 . S
C1614 C1613 1.414 . S
C1614 C1615 1.374 . S
C1615 H1595 0.950 . S
C1615 C1611 1.385 . S
C1615 C1614 1.374 . S
C1616 C1613 1.499 . S
C1616 C1617 1.373 . S
C1616 C1618 1.389 . S
C1617 H1596 0.950 . S
C1617 C1616 1.373 . S
C1617 C1633 1.377 . S
C1618 C1616 1.389 . S
C1618 C1619 1.524 . S
C1618 C1632 1.377 . S
C1619 C1618 1.524 . S
C1619 C1620 1.397 . S
C1619 C1624 1.363 . S
C1620 H1597 0.950 . S
C1620 C1619 1.397 . S
C1620 C1621 1.334 . S
C1621 H1598 0.950 . S
C1621 C1620 1.334 . S
C1621 C1622 1.287 . S
C1622 C1621 1.287 . S
C1622 C1623 1.524 . S
C1622 H1641 0.913 . S
C1623 H1599 0.950 . S
C1623 C1622 1.524 . S
C1623 C1624 1.415 . S
C1624 H1600 0.950 . S
C1624 C1619 1.363 . S
C1624 C1623 1.415 . S
C1625 H1601 0.951 . S
C1625 C1626 1.366 . S
C1625 C1627 1.388 . S
C1626 C1625 1.366 . S
C1626 C1630 1.385 . S
C1627 H1602 0.951 . S
C1627 C1625 1.388 . S
C1627 C1628 1.366 . S
C1628 C1627 1.366 . S
C1628 C1629 1.414 . S
C1628 C1631 1.499 . S
C1629 H1603 0.950 . S
C1629 C1628 1.414 . S
C1629 C1630 1.374 . S
C1630 H1604 0.950 1_655 S
C1630 C1626 1.385 . S
C1630 C1629 1.374 . S
C1631 C1628 1.499 . S
C1631 C1632 1.373 . S
C1631 C1633 1.389 . S
C1632 H1605 0.950 . S
C1632 C1618 1.377 . S
C1632 C1631 1.373 . S
C1633 C1617 1.377 . S
C1633 C1631 1.389 . S
C1633 C1634 1.524 . S
C1634 C1633 1.524 . S
C1634 C1635 1.397 . S
C1634 C1639 1.363 . S
C1635 H1606 0.950 . S
C1635 C1634 1.397 . S
C1635 C1636 1.334 . S
C1636 H1607 0.950 . S
C1636 C1635 1.334 . S
C1636 C1637 1.287 . S
C1637 C1636 1.287 . S
C1637 C1638 1.524 . S
C1637 H1640 0.999 . S
C1638 H1608 0.950 . S
C1638 C1637 1.524 . S
C1638 C1639 1.415 . S
C1639 H1609 0.950 . S
C1639 C1634 1.363 . S
C1639 C1638 1.415 . S
H1640 C1637 0.999 . S
H1641 C1622 0.913 . S
H1642 C1660 0.951 . S
H1643 C1662 0.951 . S
H1644 C1664 0.950 . S
H1645 C1665 0.950 . S
H1646 C1667 0.950 . S
H1647 C1670 0.950 . S
H1648 C1671 0.950 . S
H1649 C1673 0.950 . S
H1650 C1674 0.950 . S
H1651 C1675 0.951 . S
H1652 C1677 0.951 . S
H1653 C1679 0.950 . S
H1654 C1680 0.950 . S
H1655 C1682 0.950 . S
H1656 C1685 0.950 . S
H1657 C1686 0.950 . S
H1658 C1688 0.950 . S
H1659 C1689 0.950 . S
C1660 H1642 0.951 . S
C1660 C1661 1.366 . S
C1660 C1662 1.388 . S
C1661 C1660 1.366 . S
C1661 C1665 1.385 . S
C1662 H1643 0.951 . S
C1662 C1660 1.388 . S
C1662 C1663 1.366 . S
C1663 C1662 1.366 . S
C1663 C1664 1.414 . S
C1663 C1666 1.499 . S
C1664 H1644 0.950 . S
C1664 C1663 1.414 . S
C1664 C1665 1.374 . S
C1665 H1645 0.950 . S
C1665 C1661 1.385 . S
C1665 C1664 1.374 . S
C1666 C1663 1.499 . S
C1666 C1667 1.373 . S
C1666 C1668 1.389 . S
C1667 H1646 0.950 . S
C1667 C1666 1.373 . S
C1667 C1683 1.377 . S
C1668 C1666 1.389 . S
C1668 C1669 1.524 . S
C1668 C1682 1.377 . S
C1669 C1668 1.524 . S
C1669 C1670 1.397 . S
C1669 C1674 1.363 . S
C1670 H1647 0.950 . S
C1670 C1669 1.397 . S
C1670 C1671 1.334 . S
C1671 H1648 0.950 . S
C1671 C1670 1.334 . S
C1671 C1672 1.287 . S
C1672 C1671 1.287 . S
C1672 C1673 1.524 . S
C1672 H1691 0.913 . S
C1673 H1649 0.950 . S
C1673 C1672 1.524 . S
C1673 C1674 1.415 . S
C1674 H1650 0.950 . S
C1674 C1669 1.363 . S
C1674 C1673 1.415 . S
C1675 H1651 0.951 . S
C1675 C1676 1.366 . S
C1675 C1677 1.388 . S
C1676 C1675 1.366 . S
C1676 C1680 1.385 . S
C1677 H1652 0.951 . S
C1677 C1675 1.388 . S
C1677 C1678 1.366 . S
C1678 C1677 1.366 . S
C1678 C1679 1.414 . S
C1678 C1681 1.499 . S
C1679 H1653 0.950 . S
C1679 C1678 1.414 . S
C1679 C1680 1.374 . S
C1680 H1654 0.950 . S
C1680 C1676 1.385 . S
C1680 C1679 1.374 . S
C1681 C1678 1.499 . S
C1681 C1682 1.373 . S
C1681 C1683 1.389 . S
C1682 H1655 0.950 . S
C1682 C1668 1.377 . S
C1682 C1681 1.373 . S
C1683 C1667 1.377 . S
C1683 C1681 1.389 . S
C1683 C1684 1.524 . S
C1684 C1683 1.524 . S
C1684 C1685 1.397 . S
C1684 C1689 1.363 . S
C1685 H1656 0.950 . S
C1685 C1684 1.397 . S
C1685 C1686 1.334 . S
C1686 H1657 0.950 . S
C1686 C1685 1.334 . S
C1686 C1687 1.287 . S
C1687 C1686 1.287 . S
C1687 C1688 1.524 . S
C1687 H1690 0.999 . S
C1688 H1658 0.950 . S
C1688 C1687 1.524 . S
C1688 C1689 1.415 . S
C1689 H1659 0.950 . S
C1689 C1684 1.363 . S
C1689 C1688 1.415 . S
H1690 C1687 0.999 . S
H1691 C1672 0.913 . S
H1692 C1710 0.951 . S
H1693 C1712 0.951 . S
H1694 C1714 0.950 . S
H1695 C1715 0.950 . S
H1696 C1717 0.950 . S
H1697 C1720 0.950 . S
H1698 C1721 0.950 . S
H1699 C1723 0.950 . S
H1700 C1724 0.950 . S
H1701 C1725 0.951 . S
H1702 C1727 0.951 . S
H1703 C1729 0.950 . S
H1704 C1730 0.950 . S
H1705 C1732 0.950 . S
H1706 C1735 0.950 . S
H1707 C1736 0.950 . S
H1708 C1738 0.950 . S
H1709 C1739 0.950 . S
C1710 H1692 0.951 . S
C1710 C1711 1.366 . S
C1710 C1712 1.388 . S
C1711 C1710 1.366 . S
C1711 C1715 1.385 . S
C1712 H1693 0.951 . S
C1712 C1710 1.388 . S
C1712 C1713 1.366 . S
C1713 C1712 1.366 . S
C1713 C1714 1.414 . S
C1713 C1716 1.499 . S
C1714 H1694 0.950 . S
C1714 C1713 1.414 . S
C1714 C1715 1.374 . S
C1715 H1695 0.950 . S
C1715 C1711 1.385 . S
C1715 C1714 1.374 . S
C1716 C1713 1.499 . S
C1716 C1717 1.373 . S
C1716 C1718 1.389 . S
C1717 H1696 0.950 . S
C1717 C1716 1.373 . S
C1717 C1733 1.377 . S
C1718 C1716 1.389 . S
C1718 C1719 1.524 . S
C1718 C1732 1.377 . S
C1719 C1718 1.524 . S
C1719 C1720 1.397 . S
C1719 C1724 1.363 . S
C1720 H1697 0.950 . S
C1720 C1719 1.397 . S
C1720 C1721 1.334 . S
C1721 H1698 0.950 . S
C1721 C1720 1.334 . S
C1721 C1722 1.287 . S
C1722 C1721 1.287 . S
C1722 C1723 1.524 . S
C1722 H1741 0.913 . S
C1723 H1699 0.950 . S
C1723 C1722 1.524 . S
C1723 C1724 1.415 . S
C1724 H1700 0.950 . S
C1724 C1719 1.363 . S
C1724 C1723 1.415 . S
C1725 H1701 0.951 . S
C1725 C1726 1.366 . S
C1725 C1727 1.388 . S
C1726 C1725 1.366 . S
C1726 C1730 1.385 . S
C1727 H1702 0.951 . S
C1727 C1725 1.388 . S
C1727 C1728 1.366 . S
C1728 C1727 1.366 . S
C1728 C1729 1.414 . S
C1728 C1731 1.499 . S
C1729 H1703 0.950 . S
C1729 C1728 1.414 . S
C1729 C1730 1.374 . S
C1730 H1704 0.950 . S
C1730 C1726 1.385 . S
C1730 C1729 1.374 . S
C1731 C1728 1.499 . S
C1731 C1732 1.373 . S
C1731 C1733 1.389 . S
C1732 H1705 0.950 . S
C1732 C1718 1.377 . S
C1732 C1731 1.373 . S
C1733 C1717 1.377 . S
C1733 C1731 1.389 . S
C1733 C1734 1.524 . S
C1734 C1733 1.524 . S
C1734 C1735 1.397 . S
C1734 C1739 1.363 . S
C1735 H1706 0.950 . S
C1735 C1734 1.397 . S
C1735 C1736 1.334 . S
C1736 H1707 0.950 . S
C1736 C1735 1.334 . S
C1736 C1737 1.287 . S
C1737 C1736 1.287 . S
C1737 C1738 1.524 . S
C1737 H1740 0.999 . S
C1738 H1708 0.950 . S
C1738 C1737 1.524 . S
C1738 C1739 1.415 . S
C1739 H1709 0.950 . S
C1739 C1734 1.363 . S
C1739 C1738 1.415 . S
H1740 C1737 0.999 . S
H1741 C1722 0.913 . S
H1742 C1760 0.951 . S
H1743 C1762 0.951 . S
H1744 C1764 0.950 . S
H1745 C1765 0.950 . S
H1746 C1767 0.950 . S
H1747 C1770 0.950 . S
H1748 C1771 0.950 . S
H1749 C1773 0.950 . S
H1750 C1774 0.950 . S
H1751 C1775 0.951 . S
H1752 C1777 0.951 . S
H1753 C1779 0.950 . S
H1754 C1780 0.950 . S
H1755 C1782 0.950 . S
H1756 C1785 0.950 . S
H1757 C1786 0.950 . S
H1758 C1788 0.950 . S
H1759 C1789 0.950 . S
C1760 H1742 0.951 . S
C1760 C1761 1.366 . S
C1760 C1762 1.388 . S
C1761 C1760 1.366 . S
C1761 C1765 1.385 . S
C1762 H1743 0.951 . S
C1762 C1760 1.388 . S
C1762 C1763 1.366 . S
C1763 C1762 1.366 . S
C1763 C1764 1.414 . S
C1763 C1766 1.499 . S
C1764 H1744 0.950 . S
C1764 C1763 1.414 . S
C1764 C1765 1.374 . S
C1765 H1745 0.950 . S
C1765 C1761 1.385 . S
C1765 C1764 1.374 . S
C1766 C1763 1.499 . S
C1766 C1767 1.373 . S
C1766 C1768 1.389 . S
C1767 H1746 0.950 . S
C1767 C1766 1.373 . S
C1767 C1783 1.377 . S
C1768 C1766 1.389 . S
C1768 C1769 1.524 . S
C1768 C1782 1.377 . S
C1769 C1768 1.524 . S
C1769 C1770 1.397 . S
C1769 C1774 1.363 . S
C1770 H1747 0.950 . S
C1770 C1769 1.397 . S
C1770 C1771 1.334 . S
C1771 H1748 0.950 . S
C1771 C1770 1.334 . S
C1771 C1772 1.287 . S
C1772 C1771 1.287 . S
C1772 C1773 1.524 . S
C1772 H1791 0.913 . S
C1773 H1749 0.950 . S
C1773 C1772 1.524 . S
C1773 C1774 1.415 . S
C1774 H1750 0.950 . S
C1774 C1769 1.363 . S
C1774 C1773 1.415 . S
C1775 H1751 0.951 . S
C1775 C1776 1.366 . S
C1775 C1777 1.388 . S
C1776 C1775 1.366 . S
C1776 C1780 1.385 . S
C1777 H1752 0.951 . S
C1777 C1775 1.388 . S
C1777 C1778 1.366 . S
C1778 C1777 1.366 . S
C1778 C1779 1.414 . S
C1778 C1781 1.499 . S
C1779 H1753 0.950 . S
C1779 C1778 1.414 . S
C1779 C1780 1.374 . S
C1780 H1754 0.950 . S
C1780 C1776 1.385 . S
C1780 C1779 1.374 . S
C1781 C1778 1.499 . S
C1781 C1782 1.373 . S
C1781 C1783 1.389 . S
C1782 H1755 0.950 . S
C1782 C1768 1.377 . S
C1782 C1781 1.373 . S
C1783 C1767 1.377 . S
C1783 C1781 1.389 . S
C1783 C1784 1.524 . S
C1784 C1783 1.524 . S
C1784 C1785 1.397 . S
C1784 C1789 1.363 . S
C1785 H1756 0.950 . S
C1785 C1784 1.397 . S
C1785 C1786 1.334 . S
C1786 H1757 0.950 . S
C1786 C1785 1.334 . S
C1786 C1787 1.287 . S
C1787 C1786 1.287 . S
C1787 C1788 1.524 . S
C1787 H1790 0.999 . S
C1788 H1758 0.950 . S
C1788 C1787 1.524 . S
C1788 C1789 1.415 . S
C1789 H1759 0.950 . S
C1789 C1784 1.363 . S
C1789 C1788 1.415 . S
H1790 C1787 0.999 . S
H1791 C1772 0.913 . S
C611 C221 1.468 . S
C626 C312 1.468 . S
C676 C396 1.469 . S
C661 C241 1.446 . S
C726 C395 1.472 . S
C711 C157 1.457 . S
C761 C177 1.431 . S
C776 C311 1.476 . S
C826 C492 1.468 . S
C811 C93 1.438 . S
C876 C576 1.469 . S
C861 C113 1.477 . S
C911 C29 1.421 . S
C926 C575 1.472 . S
C961 C49 1.467 . S
C976 C491 1.476 . S
C1026 C314 1.338 . S
C1011 C61 1.502 . S
C1076 C398 1.344 . S
C1061 C17 1.473 . S
C1126 C410 1.399 . S
C1111 C125 1.526 . S
C1176 C326 1.400 . S
C1161 C81 1.501 . S
C1226 C494 1.339 . S
C1211 C189 1.458 . S
C1261 C145 1.506 . S
C1276 C578 1.343 . S
C1326 C566 1.400 . S
C1311 C253 1.488 . S
C1361 C209 1.530 . S
C1376 C482 1.401 . S
C1426 C323 1.575 . S
C1411 C23 1.529 . S
C1476 C407 1.589 . S
C1461 C55 1.574 . S
C1511 C87 1.521 . S
C1526 C408 1.549 . S
C1576 C324 1.559 . S
C1561 C119 1.560 . S
C1626 C479 1.576 . S
C1611 C151 1.567 . S
C1661 C183 1.531 . S
C1676 C563 1.589 . S
C1711 C215 1.554 . S
C1726 C564 1.549 . S
C1761 C247 1.523 . S
C1776 C480 1.559 . S
