# Generated by pormake.
# Topology sit, (3,6)-cn, num edge types: 1
# Building blocks:
#     Node 0, Type 0, BuildingBlock: ESEHIV_clean_linker_0, # of connection points: 3
#     Node 1, Type 0, BuildingBlock: ESEHIV_clean_linker_0, # of connection points: 3
#     Node 2, Type 0, BuildingBlock: ESEHIV_clean_linker_0, # of connection points: 3
#     Node 3, Type 0, BuildingBlock: ESEHIV_clean_linker_0, # of connection points: 3
#     Node 4, Type 1, BuildingBlock: MIDCAF_clean_sbu_0, # of connection points: 6
#     Node 5, Type 1, BuildingBlock: MIDCAF_clean_sbu_0, # of connection points: 6
#     Edge 6, Type (0, 1), BuildingBlock: EZIPEK_clean_linker_0, # of connection points: 2
#     Edge 7, Type (0, 1), BuildingBlock: EZIPEK_clean_linker_0, # of connection points: 2
#     Edge 8, Type (0, 1), BuildingBlock: EZIPEK_clean_linker_0, # of connection points: 2
#     Edge 9, Type (0, 1), BuildingBlock: EZIPEK_clean_linker_0, # of connection points: 2
#     Edge 10, Type (0, 1), BuildingBlock: EZIPEK_clean_linker_0, # of connection points: 2
#     Edge 11, Type (0, 1), BuildingBlock: EZIPEK_clean_linker_0, # of connection points: 2
#     Edge 12, Type (0, 1), BuildingBlock: EZIPEK_clean_linker_0, # of connection points: 2
#     Edge 13, Type (0, 1), BuildingBlock: EZIPEK_clean_linker_0, # of connection points: 2
#     Edge 14, Type (0, 1), BuildingBlock: EZIPEK_clean_linker_0, # of connection points: 2
#     Edge 15, Type (0, 1), BuildingBlock: EZIPEK_clean_linker_0, # of connection points: 2
#     Edge 16, Type (0, 1), BuildingBlock: EZIPEK_clean_linker_0, # of connection points: 2
#     Edge 17, Type (0, 1), BuildingBlock: EZIPEK_clean_linker_0, # of connection points: 2
# Relax obj value: 0.110
# Max RMSD: 0.194
# Mean RMSD: 0.106
data_MOF--net-sit--node1-MIDCAF_clean_sbu_0--node2-ESEHIV_clean_linker_0--edge1-EZIPEK_clean_linker_0
_symmetry_space_group_name_H-M    P1
_symmetry_Int_Tables_number       1
_symmetry_cell_setting            triclinic
loop_
_symmetry_equiv_pos_as_xyz
'x, y, z'
_cell_length_a     16.968332
_cell_length_b     17.962556
_cell_length_c     25.029295
_cell_angle_alpha  90.091411
_cell_angle_beta   89.748572
_cell_angle_gamma 79.847698
loop_
_atom_site_label
_atom_site_type_symbol
_atom_site_fract_x
_atom_site_fract_y
_atom_site_fract_z
_atom_type_partial_charge
H0 H 0.07546 0.49386 0.92488 0.0
H1 H 0.18458 0.31241 0.02684 0.0
H2 H 0.92819 0.37322 0.02027 0.0
C3 C 0.06962 0.45013 0.95373 0.0
C4 C -0.00656 0.43649 -0.03196 0.0
C5 C 0.13838 0.40395 -0.02627 0.0
C6 C 0.13118 0.34732 0.01096 0.0
C7 C 0.05541 0.3388 0.03014 0.0
C8 C -0.01307 0.38169 0.0071 0.0
H9 H -0.0403 0.67825 0.94434 0.0
H10 H 0.84401 0.86857 0.03685 0.0
H11 H 0.10065 0.80937 0.03602 0.0
C12 C -0.03626 0.72461 -0.02857 0.0
C13 C 0.03897 0.74063 -0.01443 0.0
C14 C 0.89374 0.77231 -0.01148 0.0
C15 C 0.89849 0.83241 0.02331 0.0
C16 C -0.02713 0.84318 0.04318 0.0
C17 C 0.0429 0.79895 0.02261 0.0
H18 H 0.53826 1.03337 0.44223 0.0
H19 H 0.65331 0.84685 0.5374 0.0
H20 H 0.39653 0.9043 0.53557 0.0
C21 C 0.53403 0.98783 0.46993 0.0
C22 C 0.45871 0.97193 0.48436 0.0
C23 C 0.60397 0.94114 0.48766 0.0
C24 C 0.59892 0.88215 0.52328 0.0
C25 C 0.52426 0.87142 0.54314 0.0
C26 C 0.45441 0.91462 0.52204 0.0
H27 H 0.42303 0.22033 0.42627 0.0
H28 H 0.31266 0.40329 0.52767 0.0
H29 H 0.56914 0.34221 0.52098 0.0
C30 C 0.4285 0.26441 0.45499 0.0
C31 C 0.50449 0.27826 0.46914 0.0
C32 C 0.3595 0.31086 0.47493 0.0
C33 C 0.36624 0.36807 0.51191 0.0
C34 C 0.44179 0.37683 0.53093 0.0
C35 C 0.51054 0.33356 0.50798 0.0
Zn36 Zn 0.92562 0.26628 0.32658 0.0
Zn37 Zn 0.0479 0.9664 0.34346 0.0
Zn38 Zn -0.01304 0.11639 0.33415 0.0
C39 C 0.01894 1.00117 0.23443 0.0
C40 C 0.90057 0.99355 0.3956 0.0
O41 O 0.06692 0.18167 0.37422 0.0
O42 O 0.00611 0.30175 0.3735 0.0
C43 C -0.0258 0.20979 0.22411 0.0
O44 O -0.00114 1.06877 0.25286 0.0
O45 O 0.0424 0.94651 0.26551 0.0
O46 O -0.0401 0.94109 0.3889 0.0
O47 O 0.90058 1.0603 0.37685 0.0
O48 O -0.05448 0.27013 0.24853 0.0
O49 O -0.01044 0.14654 0.24923 0.0
O50 O 0.86651 0.1371 0.37083 0.0
O51 O 0.81877 0.25801 0.3549 0.0
C52 C 0.80981 0.19494 0.37382 0.0
O53 O 0.10067 0.10454 0.37815 0.0
O54 O 0.14901 0.98151 0.37689 0.0
C55 C 0.06482 0.25167 0.38644 0.0
C56 C 0.15568 1.04805 0.38977 0.0
Zn57 Zn 0.45026 0.74841 0.8457 0.0
Zn58 Zn 0.57394 0.44873 0.82516 0.0
Zn59 Zn 0.51206 0.59861 0.83434 0.0
C60 C 0.52477 0.50678 0.72348 0.0
C61 C 0.43457 0.46216 0.8855 0.0
O62 O 0.5981 0.65438 0.87724 0.0
O63 O 0.53814 0.77314 0.89107 0.0
C64 C 0.47923 0.71536 0.73601 0.0
O65 O 0.50934 0.56971 0.74921 0.0
O66 O 0.55387 0.44621 0.74718 0.0
O67 O 0.49343 0.4123 0.872 0.0
O68 O 0.43248 0.53232 0.87397 0.0
O69 O 0.45569 0.76943 0.76785 0.0
O70 O 0.49972 0.64749 0.75358 0.0
O71 O 0.39845 0.60923 0.87898 0.0
O72 O 0.34935 0.73211 0.87951 0.0
C73 C 0.34316 0.6652 0.89159 0.0
O74 O 0.63252 0.5777 0.87032 0.0
O75 O 0.68063 0.45705 0.85319 0.0
C76 C 0.59771 0.7208 0.89685 0.0
C77 C 0.68935 0.51994 0.87264 0.0
C78 C 0.08596 0.30105 0.12587 0.0
C79 C 0.04699 0.28972 0.0771 0.0
C80 C -0.02996 0.20532 0.12346 0.0
C81 C 0.00995 0.21758 0.17115 0.0
N82 N 0.12882 0.24722 0.21146 0.0
N83 N -0.02854 0.21177 0.02658 0.0
C84 C 0.07649 0.25453 0.1698 0.0
C85 C -0.0047 0.23522 0.07483 0.0
N86 N 0.12502 0.36069 0.1326 0.0
N87 N 0.90707 0.1675 0.12498 0.0
H88 H -0.00857 0.23094 -0.00952 0.0
H89 H -0.06123 0.16816 0.02249 0.0
H90 H 0.89015 0.14295 0.16003 0.0
H91 H 0.87025 0.16335 0.09231 0.0
H92 H 0.14827 0.3737 0.16926 0.0
H93 H 0.12511 0.40274 0.10414 0.0
H94 H 0.18191 0.26893 0.21042 0.0
H95 H 0.12311 0.21214 0.24397 0.0
C96 C 0.9315 0.88933 0.13573 0.0
C97 C -0.02301 0.89599 0.08874 0.0
C98 C 0.0434 0.98878 0.13481 0.0
C99 C -0.00489 0.98265 0.18014 0.0
N100 N 0.87047 0.95546 0.2134 0.0
N101 N 0.05838 0.96985 0.03899 0.0
C102 C 0.93094 0.94294 0.17671 0.0
C103 C 0.0275 0.95159 0.08665 0.0
N104 N 0.89484 0.82843 0.14391 0.0
N105 N 0.10499 1.02813 0.13817 0.0
H106 H 0.04492 0.94583 0.00292 0.0
H107 H 0.09033 1.014 0.03473 0.0
H108 H 0.11538 1.05769 0.17264 0.0
H109 H 0.14722 1.02841 0.10787 0.0
H110 H 0.86598 0.81983 0.17967 0.0
H111 H 0.90267 0.78177 0.11852 0.0
H112 H 0.81949 0.93066 0.21054 0.0
H113 H 0.86757 0.99795 0.24224 0.0
C114 C 0.56361 0.82924 0.63639 0.0
C115 C 0.51964 0.82011 0.5894 0.0
C116 C 0.45489 0.72675 0.63639 0.0
C117 C 0.50223 0.73489 0.68161 0.0
N118 N 0.62502 0.76607 0.71445 0.0
N119 N 0.44098 0.74316 0.54042 0.0
C120 C 0.56491 0.77646 0.67784 0.0
C121 C 0.4706 0.76327 0.58788 0.0
N122 N 0.59831 0.89148 0.64392 0.0
N123 N 0.39431 0.68618 0.64015 0.0
H124 H 0.45423 0.76679 0.50413 0.0
H125 H 0.41035 0.69803 0.53659 0.0
H126 H 0.38383 0.65736 0.67493 0.0
H127 H 0.35276 0.68432 0.60987 0.0
H128 H 0.62605 0.90183 0.67961 0.0
H129 H 0.58978 0.93736 0.61797 0.0
H130 H 0.67497 0.79238 0.71142 0.0
H131 H 0.62901 0.72359 0.74323 0.0
C132 C 0.41079 0.41646 0.6266 0.0
C133 C 0.44987 0.42686 0.57748 0.0
C134 C 0.52779 0.51109 0.62283 0.0
C135 C 0.48816 0.49941 0.67095 0.0
N136 N 0.36917 0.47112 0.71257 0.0
N137 N 0.52571 0.50375 0.526 0.0
C138 C 0.4211 0.46315 0.67034 0.0
C139 C 0.50195 0.48097 0.57456 0.0
N140 N 0.37088 0.35748 0.63382 0.0
N141 N 0.59102 0.54859 0.62363 0.0
H142 H 0.50534 0.48436 0.49016 0.0
H143 H 0.55873 0.54704 0.52143 0.0
H144 H 0.60825 0.5734 0.65846 0.0
H145 H 0.62766 0.5523 0.5906 0.0
H146 H 0.34767 0.34503 0.67074 0.0
H147 H 0.36982 0.31538 0.60544 0.0
H148 H 0.31566 0.45011 0.71208 0.0
H149 H 0.37571 0.506 0.74509 0.0
C150 C 0.24229 0.38438 0.90186 0.0
C151 C 0.21816 0.41272 0.95334 0.0
C152 C 0.34581 0.45665 0.96459 0.0
C153 C 0.36398 0.43889 0.91035 0.0
N154 N 0.3299 0.38825 0.82582 0.0
N155 N 0.24351 0.47901 0.03351 0.0
C156 C 0.31264 0.40284 0.87861 0.0
C157 C 0.2693 0.44922 -0.01504 0.0
N158 N 0.19922 0.33778 0.876 0.0
N159 N 0.40237 0.47923 -0.00344 0.0
H160 H 0.18631 0.47784 0.04837 0.0
H161 H 0.27628 0.50961 0.05747 0.0
H162 H 0.45876 0.48548 -0.01764 0.0
H163 H 0.39626 0.48602 0.03775 0.0
H164 H 0.2181 0.30904 0.84079 0.0
H165 H 0.14795 0.32199 0.89231 0.0
H166 H 0.28973 0.37143 0.79896 0.0
H167 H 0.38302 0.39704 0.80789 0.0
C168 C 0.76053 0.73072 -0.00158 0.0
C169 C 0.81536 0.76279 0.9666 0.0
C170 C 0.72522 0.77083 0.89022 0.0
C171 C 0.67051 0.7386 0.92186 0.0
N172 N 0.62559 0.704 0.00812 0.0
N173 N 0.84175 0.83151 0.88775 0.0
C174 C 0.68485 0.72368 -0.02321 0.0
C175 C 0.79549 0.78793 0.91395 0.0
N176 N 0.78187 0.7053 0.04863 0.0
N177 N 0.70989 0.7849 0.83733 0.0
H178 H 0.89224 0.84755 0.90472 0.0
H179 H 0.82631 0.85792 0.85136 0.0
H180 H 0.65534 0.78023 0.82003 0.0
H181 H 0.75203 0.79816 0.81024 0.0
H182 H 0.74671 0.67751 0.07305 0.0
H183 H 0.83807 0.70691 0.06468 0.0
H184 H 0.62887 0.69927 0.0495 0.0
H185 H 0.57008 0.69725 -0.00704 0.0
C186 C 0.85442 0.51221 -0.02523 0.0
C187 C 0.91953 0.47786 0.94208 0.0
C188 C 0.83561 0.50899 0.86323 0.0
C189 C 0.76748 0.5251 0.89658 0.0
N190 N 0.71003 0.53891 -0.01501 0.0
N191 N -0.03291 0.43398 0.85382 0.0
C192 C 0.77618 0.52727 0.95275 0.0
C193 C 0.90967 0.47509 0.88568 0.0
N194 N 0.86762 0.529 0.02684 0.0
N195 N 0.82853 0.5236 0.80978 0.0
H196 H 0.01965 0.40198 0.86831 0.0
H197 H -0.04153 0.42473 0.81332 0.0
H198 H 0.77421 0.54846 0.79267 0.0
H199 H 0.8777 0.51869 0.78409 0.0
H200 H 0.82285 0.55472 0.0527 0.0
H201 H 0.92509 0.52264 0.04289 0.0
H202 H 0.71258 0.53261 0.02633 0.0
H203 H 0.65194 0.5509 -0.03001 0.0
C204 C 0.12471 0.69486 0.90441 0.0
C205 C 0.11432 0.69866 0.96101 0.0
C206 C 0.25853 0.65632 -0.0275 0.0
C207 C 0.26764 0.65319 0.91636 0.0
N208 N 0.20877 0.6403 0.83071 0.0
N209 N 0.16724 0.65779 0.04754 0.0
C210 C 0.19998 0.66112 0.88316 0.0
C211 C 0.18007 0.67024 -0.00535 0.0
N212 N 0.06685 0.73042 0.87082 0.0
N213 N 0.32451 0.64993 0.00429 0.0
H214 H 0.10975 0.66351 0.06385 0.0
H215 H 0.21252 0.63548 0.07389 0.0
H216 H 0.3826 0.6379 -0.01121 0.0
H217 H 0.32152 0.65996 0.04531 0.0
H218 H 0.07567 0.73457 0.82978 0.0
H219 H 0.01379 0.7635 0.88384 0.0
H220 H 0.16025 0.63948 0.80543 0.0
H221 H 0.26431 0.61613 0.81457 0.0
C222 C 0.73687 0.98335 0.4974 0.0
C223 C 0.68264 0.95068 0.46571 0.0
C224 C 0.77332 0.94316 0.38906 0.0
C225 C 0.82759 0.97563 0.42067 0.0
N226 N 0.8716 1.01032 0.50698 0.0
N227 N 0.65788 0.88099 0.38695 0.0
C228 C 0.81271 0.99054 0.47567 0.0
C229 C 0.70324 0.92536 0.41301 0.0
N230 N 0.71481 1.00932 0.54755 0.0
N231 N 0.78874 0.92966 0.33599 0.0
H232 H 0.60775 0.86423 0.40417 0.0
H233 H 0.67396 0.85453 0.3505 0.0
H234 H 0.84293 0.93547 0.3183 0.0
H235 H 0.74679 0.91607 0.30911 0.0
H236 H 0.74956 1.03754 0.57183 0.0
H237 H 0.65842 1.00779 0.56364 0.0
H238 H 0.86789 1.0149 0.54839 0.0
H239 H 0.92722 1.01719 0.49176 0.0
C240 C 0.22849 0.2655 0.48612 0.0
C241 C 0.28004 0.30188 0.45453 0.0
C242 C 0.18698 0.31071 0.37964 0.0
C243 C 0.13525 0.27471 0.41131 0.0
N244 N 0.09542 0.23508 0.4975 0.0
N245 N 0.30015 0.37615 0.37714 0.0
C246 C 0.15247 0.25753 0.4656 0.0
C247 C 0.25679 0.32963 0.40297 0.0
N248 N 0.25343 0.23642 0.53481 0.0
N249 N 0.17052 0.32493 0.32684 0.0
H250 H 0.35098 0.39231 0.39354 0.0
H251 H 0.28187 0.40448 0.34185 0.0
H252 H 0.11766 0.31602 0.30892 0.0
H253 H 0.21106 0.34163 0.3 0.0
H254 H 0.22038 0.2059 0.55875 0.0
H255 H 0.31018 0.23825 0.54988 0.0
H256 H 0.10077 0.22873 0.53871 0.0
H257 H 0.03939 0.2284 0.4832 0.0
C258 C 0.37422 1.01515 0.40289 0.0
C259 C 0.3837 1.01311 0.45949 0.0
C260 C 0.23949 1.05719 0.47062 0.0
C261 C 0.23134 1.059 0.41444 0.0
N262 N 0.29201 1.06819 0.32856 0.0
N263 N 0.32967 1.05661 0.54564 0.0
C264 C 0.29961 1.04902 0.38128 0.0
C265 C 0.31758 1.04297 0.49288 0.0
N266 N 0.43233 0.97792 0.36973 0.0
N267 N 0.17294 1.06501 0.50237 0.0
H268 H 0.3869 1.05079 0.56201 0.0
H269 H 0.2841 1.07986 0.57183 0.0
H270 H 0.11512 1.07711 0.48681 0.0
H271 H 0.17513 1.05597 0.54347 0.0
H272 H 0.42415 0.97248 0.32876 0.0
H273 H 0.48484 0.94477 0.3832 0.0
H274 H 0.34107 1.06749 0.30323 0.0
H275 H 0.23698 1.09252 0.31215 0.0
C276 C 0.58933 0.23922 0.38675 0.0
C277 C 0.5787 0.23669 0.44315 0.0
C278 C 0.7219 0.18744 0.45381 0.0
C279 C 0.73141 0.18956 0.39766 0.0
N280 N 0.67173 0.1907 0.31081 0.0
N281 N 0.6294 0.18609 0.5279 0.0
C282 C 0.66378 0.20542 0.36429 0.0
C283 C 0.64334 0.20256 0.47583 0.0
N284 N 0.53227 0.28006 0.35493 0.0
N285 N 0.78761 0.17579 0.48604 0.0
H286 H 0.5717 0.19261 0.54394 0.0
H287 H 0.67377 0.16047 0.55375 0.0
H288 H 0.84589 0.16373 0.47099 0.0
H289 H 0.78452 0.18208 0.5274 0.0
H290 H 0.54147 0.28923 0.31446 0.0
H291 H 0.47936 0.3119 0.36943 0.0
H292 H 0.62297 0.19545 0.28508 0.0
H293 H 0.72636 0.16595 0.29369 0.0
loop_
_geom_bond_atom_site_label_1
_geom_bond_atom_site_label_2
_geom_bond_distance
_geom_bond_site_symmetry_2
_ccdc_geom_bond_type
H0 C3 0.931 . S
H1 C6 0.928 . S
H2 C8 0.930 1_655 S
C3 H0 0.931 . S
C3 C4 1.413 . S
C3 C5 1.360 1_556 S
C4 C3 1.413 . S
C4 C8 1.429 1_556 S
C5 C3 1.360 1_554 S
C5 C6 1.372 . S
C6 H1 0.928 . S
C6 C5 1.372 . S
C6 C7 1.404 . S
C7 C6 1.404 . S
C7 C8 1.391 . S
C8 H2 0.930 1_455 S
C8 C4 1.429 1_554 S
C8 C7 1.391 . S
H9 C12 0.931 . S
H10 C15 0.928 . S
H11 C17 0.930 . S
C12 H9 0.931 . S
C12 C13 1.413 1_556 S
C12 C14 1.360 1_456 S
C13 C12 1.413 1_554 S
C13 C17 1.429 . S
C14 C12 1.360 1_654 S
C14 C15 1.372 . S
C15 H10 0.928 . S
C15 C14 1.372 . S
C15 C16 1.404 1_655 S
C16 C15 1.404 1_455 S
C16 C17 1.391 . S
C17 H11 0.930 . S
C17 C13 1.429 . S
C17 C16 1.391 . S
H18 C21 0.931 . S
H19 C24 0.928 . S
H20 C26 0.930 . S
C21 H18 0.931 . S
C21 C22 1.413 . S
C21 C23 1.360 . S
C22 C21 1.413 . S
C22 C26 1.429 . S
C23 C21 1.360 . S
C23 C24 1.372 . S
C24 H19 0.928 . S
C24 C23 1.372 . S
C24 C25 1.404 . S
C25 C24 1.404 . S
C25 C26 1.391 . S
C26 H20 0.930 . S
C26 C22 1.429 . S
C26 C25 1.391 . S
H27 C30 0.931 . S
H28 C33 0.928 . S
H29 C35 0.930 . S
C30 H27 0.931 . S
C30 C31 1.413 . S
C30 C32 1.360 . S
C31 C30 1.413 . S
C31 C35 1.429 . S
C32 C30 1.360 . S
C32 C33 1.372 . S
C33 H28 0.928 . S
C33 C32 1.372 . S
C33 C34 1.404 . S
C34 C33 1.404 . S
C34 C35 1.391 . S
C35 H29 0.930 . S
C35 C31 1.429 . S
C35 C34 1.391 . S
Zn36 O42 1.920 . S
Zn36 O48 1.898 . S
Zn36 O51 1.905 1_455 S
Zn37 O45 1.905 . S
Zn37 O46 1.898 1_455 S
Zn37 O54 1.920 . S
Zn38 O41 2.080 . S
Zn38 O44 2.114 1_545 S
Zn38 O47 2.120 1_545 S
Zn38 O49 2.120 . S
Zn38 O50 2.114 1_455 S
Zn38 O53 2.080 1_545 S
C39 O44 1.166 . S
C39 O45 1.182 . S
C40 O46 1.167 . S
C40 O47 1.299 1_655 S
O41 Zn38 2.080 . S
O41 C55 1.305 . S
O42 Zn36 1.920 . S
O42 C55 1.234 . S
C43 O48 1.167 . S
C43 O49 1.299 . S
O44 Zn38 2.114 1_565 S
O44 C39 1.166 . S
O45 Zn37 1.905 . S
O45 C39 1.182 . S
O46 Zn37 1.898 1_655 S
O46 C40 1.167 . S
O47 Zn38 2.120 1_565 S
O47 C40 1.299 1_455 S
O48 Zn36 1.898 . S
O48 C43 1.167 . S
O49 Zn38 2.120 . S
O49 C43 1.299 . S
O50 Zn38 2.114 1_655 S
O50 C52 1.166 . S
O51 Zn36 1.905 1_655 S
O51 C52 1.182 . S
C52 O50 1.166 . S
C52 O51 1.182 . S
O53 Zn38 2.080 1_565 S
O53 C56 1.305 . S
O54 Zn37 1.920 . S
O54 C56 1.234 . S
C55 O41 1.305 . S
C55 O42 1.234 . S
C56 O53 1.305 . S
C56 O54 1.234 . S
Zn57 O63 1.920 . S
Zn57 O69 1.898 . S
Zn57 O72 1.905 . S
Zn58 O66 1.905 . S
Zn58 O67 1.898 . S
Zn58 O75 1.920 . S
Zn59 O62 2.080 . S
Zn59 O65 2.114 . S
Zn59 O68 2.120 . S
Zn59 O70 2.120 . S
Zn59 O71 2.114 . S
Zn59 O74 2.080 . S
C60 O65 1.166 . S
C60 O66 1.182 . S
C61 O67 1.167 . S
C61 O68 1.299 . S
O62 Zn59 2.080 . S
O62 C76 1.305 . S
O63 Zn57 1.920 . S
O63 C76 1.234 . S
C64 O69 1.167 . S
C64 O70 1.299 . S
O65 Zn59 2.114 . S
O65 C60 1.166 . S
O66 Zn58 1.905 . S
O66 C60 1.182 . S
O67 Zn58 1.898 . S
O67 C61 1.167 . S
O68 Zn59 2.120 . S
O68 C61 1.299 . S
O69 Zn57 1.898 . S
O69 C64 1.167 . S
O70 Zn59 2.120 . S
O70 C64 1.299 . S
O71 Zn59 2.114 . S
O71 C73 1.166 . S
O72 Zn57 1.905 . S
O72 C73 1.182 . S
C73 O71 1.166 . S
C73 O72 1.182 . S
O74 Zn59 2.080 . S
O74 C77 1.305 . S
O75 Zn58 1.920 . S
O75 C77 1.234 . S
C76 O62 1.305 . S
C76 O63 1.234 . S
C77 O74 1.305 . S
C77 O75 1.234 . S
C78 C79 1.363 . S
C78 C84 1.379 . S
C78 N86 1.356 . S
C79 C78 1.363 . S
C79 C85 1.363 . S
C80 C81 1.363 . S
C80 C85 1.379 . S
C80 N87 1.356 . S
C81 C80 1.363 . S
C81 C84 1.363 . S
N82 C84 1.356 . S
N82 H94 0.984 . S
N82 H95 0.985 . S
N83 C85 1.356 . S
N83 H88 0.984 . S
N83 H89 0.985 . S
C84 C78 1.379 . S
C84 C81 1.363 . S
C84 N82 1.356 . S
C85 C79 1.363 . S
C85 C80 1.379 . S
C85 N83 1.356 . S
N86 C78 1.356 . S
N86 H92 0.984 . S
N86 H93 0.984 . S
N87 C80 1.356 . S
N87 H90 0.984 . S
N87 H91 0.985 . S
H88 N83 0.984 . S
H89 N83 0.985 . S
H90 N87 0.984 . S
H91 N87 0.985 . S
H92 N86 0.984 . S
H93 N86 0.984 . S
H94 N82 0.984 . S
H95 N82 0.985 . S
C96 C97 1.363 1_655 S
C96 C102 1.379 1_655 S
C96 N104 1.356 . S
C97 C96 1.363 1_455 S
C97 C103 1.363 . S
C98 C99 1.363 . S
C98 C103 1.379 . S
C98 N105 1.356 . S
C99 C98 1.363 . S
C99 C102 1.363 . S
N100 C102 1.356 . S
N100 H112 0.984 1_455 S
N100 H113 0.985 . S
N101 C103 1.356 . S
N101 H106 0.984 . S
N101 H107 0.985 . S
C102 C96 1.379 1_455 S
C102 C99 1.363 . S
C102 N100 1.356 . S
C103 C97 1.363 . S
C103 C98 1.379 . S
C103 N101 1.356 . S
N104 C96 1.356 . S
N104 H110 0.984 . S
N104 H111 0.984 . S
N105 C98 1.356 . S
N105 H108 0.984 . S
N105 H109 0.985 1_565 S
H106 N101 0.984 . S
H107 N101 0.985 . S
H108 N105 0.984 . S
H109 N105 0.985 1_545 S
H110 N104 0.984 . S
H111 N104 0.984 . S
H112 N100 0.984 1_655 S
H113 N100 0.985 . S
C114 C115 1.363 . S
C114 C120 1.379 . S
C114 N122 1.356 . S
C115 C114 1.363 . S
C115 C121 1.363 . S
C116 C117 1.363 . S
C116 C121 1.379 . S
C116 N123 1.356 . S
C117 C116 1.363 . S
C117 C120 1.363 . S
N118 C120 1.356 . S
N118 H130 0.984 . S
N118 H131 0.985 . S
N119 C121 1.356 . S
N119 H124 0.984 . S
N119 H125 0.985 . S
C120 C114 1.379 . S
C120 C117 1.363 . S
C120 N118 1.356 . S
C121 C115 1.363 . S
C121 C116 1.379 . S
C121 N119 1.356 . S
N122 C114 1.356 . S
N122 H128 0.984 . S
N122 H129 0.984 . S
N123 C116 1.356 . S
N123 H126 0.984 . S
N123 H127 0.985 . S
H124 N119 0.984 . S
H125 N119 0.985 . S
H126 N123 0.984 . S
H127 N123 0.985 . S
H128 N122 0.984 . S
H129 N122 0.984 . S
H130 N118 0.984 . S
H131 N118 0.985 . S
C132 C133 1.363 . S
C132 C138 1.379 . S
C132 N140 1.356 . S
C133 C132 1.363 . S
C133 C139 1.363 . S
C134 C135 1.363 . S
C134 C139 1.379 . S
C134 N141 1.356 . S
C135 C134 1.363 . S
C135 C138 1.363 . S
N136 C138 1.356 . S
N136 H148 0.984 . S
N136 H149 0.985 . S
N137 C139 1.356 . S
N137 H142 0.984 . S
N137 H143 0.985 . S
C138 C132 1.379 . S
C138 C135 1.363 . S
C138 N136 1.356 . S
C139 C133 1.363 . S
C139 C134 1.379 . S
C139 N137 1.356 . S
N140 C132 1.356 . S
N140 H146 0.984 . S
N140 H147 0.984 . S
N141 C134 1.356 . S
N141 H144 0.984 . S
N141 H145 0.985 . S
H142 N137 0.984 . S
H143 N137 0.985 . S
H144 N141 0.984 . S
H145 N141 0.985 . S
H146 N140 0.984 . S
H147 N140 0.984 . S
H148 N136 0.984 . S
H149 N136 0.985 . S
C150 C151 1.363 . S
C150 C156 1.379 . S
C150 N158 1.356 . S
C151 C150 1.363 . S
C151 C157 1.363 1_556 S
C152 C153 1.363 1_554 S
C152 C157 1.379 . S
C152 N159 1.356 . S
C153 C152 1.363 1_556 S
C153 C156 1.363 . S
N154 C156 1.356 . S
N154 H166 0.984 . S
N154 H167 0.985 . S
N155 C157 1.356 . S
N155 H160 0.984 . S
N155 H161 0.985 . S
C156 C150 1.379 . S
C156 C153 1.363 . S
C156 N154 1.356 . S
C157 C151 1.363 1_554 S
C157 C152 1.379 . S
C157 N155 1.356 . S
N158 C150 1.356 . S
N158 H164 0.984 . S
N158 H165 0.984 . S
N159 C152 1.356 . S
N159 H162 0.984 . S
N159 H163 0.985 . S
H160 N155 0.984 . S
H161 N155 0.985 . S
H162 N159 0.984 . S
H163 N159 0.985 . S
H164 N158 0.984 . S
H165 N158 0.984 . S
H166 N154 0.984 . S
H167 N154 0.985 . S
C168 C169 1.363 1_554 S
C168 C174 1.379 . S
C168 N176 1.356 . S
C169 C168 1.363 1_556 S
C169 C175 1.363 . S
C170 C171 1.363 . S
C170 C175 1.379 . S
C170 N177 1.356 . S
C171 C170 1.363 . S
C171 C174 1.363 1_556 S
N172 C174 1.356 . S
N172 H184 0.984 . S
N172 H185 0.985 . S
N173 C175 1.356 . S
N173 H178 0.984 . S
N173 H179 0.985 . S
C174 C168 1.379 . S
C174 C171 1.363 1_554 S
C174 N172 1.356 . S
C175 C169 1.363 . S
C175 C170 1.379 . S
C175 N173 1.356 . S
N176 C168 1.356 . S
N176 H182 0.984 . S
N176 H183 0.984 . S
N177 C170 1.356 . S
N177 H180 0.984 . S
N177 H181 0.985 . S
H178 N173 0.984 . S
H179 N173 0.985 . S
H180 N177 0.984 . S
H181 N177 0.985 . S
H182 N176 0.984 . S
H183 N176 0.984 . S
H184 N172 0.984 . S
H185 N172 0.985 . S
C186 C187 1.363 1_554 S
C186 C192 1.379 1_554 S
C186 N194 1.356 . S
C187 C186 1.363 1_556 S
C187 C193 1.363 . S
C188 C189 1.363 . S
C188 C193 1.379 . S
C188 N195 1.356 . S
C189 C188 1.363 . S
C189 C192 1.363 . S
N190 C192 1.356 . S
N190 H202 0.984 1_556 S
N190 H203 0.985 . S
N191 C193 1.356 1_455 S
N191 H196 0.984 . S
N191 H197 0.985 . S
C192 C186 1.379 1_556 S
C192 C189 1.363 . S
C192 N190 1.356 . S
C193 C187 1.363 . S
C193 C188 1.379 . S
C193 N191 1.356 1_655 S
N194 C186 1.356 . S
N194 H200 0.984 . S
N194 H201 0.984 . S
N195 C188 1.356 . S
N195 H198 0.984 . S
N195 H199 0.985 . S
H196 N191 0.984 . S
H197 N191 0.985 . S
H198 N195 0.984 . S
H199 N195 0.985 . S
H200 N194 0.984 . S
H201 N194 0.984 . S
H202 N190 0.984 1_554 S
H203 N190 0.985 . S
C204 C205 1.363 . S
C204 C210 1.379 . S
C204 N212 1.356 . S
C205 C204 1.363 . S
C205 C211 1.363 1_556 S
C206 C207 1.363 . S
C206 C211 1.379 1_556 S
C206 N213 1.356 . S
C207 C206 1.363 . S
C207 C210 1.363 . S
N208 C210 1.356 . S
N208 H220 0.984 . S
N208 H221 0.985 . S
N209 C211 1.356 . S
N209 H214 0.984 . S
N209 H215 0.985 . S
C210 C204 1.379 . S
C210 C207 1.363 . S
C210 N208 1.356 . S
C211 C205 1.363 1_554 S
C211 C206 1.379 1_554 S
C211 N209 1.356 . S
N212 C204 1.356 . S
N212 H218 0.984 . S
N212 H219 0.984 . S
N213 C206 1.356 . S
N213 H216 0.984 . S
N213 H217 0.985 1_556 S
H214 N209 0.984 . S
H215 N209 0.985 . S
H216 N213 0.984 . S
H217 N213 0.985 1_554 S
H218 N212 0.984 . S
H219 N212 0.984 . S
H220 N208 0.984 . S
H221 N208 0.985 . S
C222 C223 1.363 . S
C222 C228 1.379 . S
C222 N230 1.356 . S
C223 C222 1.363 . S
C223 C229 1.363 . S
C224 C225 1.363 . S
C224 C229 1.379 . S
C224 N231 1.356 . S
C225 C224 1.363 . S
C225 C228 1.363 . S
N226 C228 1.356 . S
N226 H238 0.984 . S
N226 H239 0.985 . S
N227 C229 1.356 . S
N227 H232 0.984 . S
N227 H233 0.985 . S
C228 C222 1.379 . S
C228 C225 1.363 . S
C228 N226 1.356 . S
C229 C223 1.363 . S
C229 C224 1.379 . S
C229 N227 1.356 . S
N230 C222 1.356 . S
N230 H236 0.984 . S
N230 H237 0.984 . S
N231 C224 1.356 . S
N231 H234 0.984 1_655 S
N231 H235 0.985 . S
H232 N227 0.984 . S
H233 N227 0.985 . S
H234 N231 0.984 1_455 S
H235 N231 0.985 . S
H236 N230 0.984 . S
H237 N230 0.984 . S
H238 N226 0.984 . S
H239 N226 0.985 . S
C240 C241 1.363 . S
C240 C246 1.379 . S
C240 N248 1.356 . S
C241 C240 1.363 . S
C241 C247 1.363 . S
C242 C243 1.363 . S
C242 C247 1.379 . S
C242 N249 1.356 . S
C243 C242 1.363 . S
C243 C246 1.363 . S
N244 C246 1.356 . S
N244 H256 0.985 . S
N244 H257 0.985 . S
N245 C247 1.356 . S
N245 H250 0.984 . S
N245 H251 0.985 . S
C246 C240 1.379 . S
C246 C243 1.363 . S
C246 N244 1.356 . S
C247 C241 1.363 . S
C247 C242 1.379 . S
C247 N245 1.356 . S
N248 C240 1.356 . S
N248 H254 0.984 . S
N248 H255 0.984 . S
N249 C242 1.356 . S
N249 H252 0.984 . S
N249 H253 0.985 . S
H250 N245 0.984 . S
H251 N245 0.985 . S
H252 N249 0.984 . S
H253 N249 0.985 . S
H254 N248 0.984 . S
H255 N248 0.984 . S
H256 N244 0.985 . S
H257 N244 0.985 . S
C258 C259 1.363 . S
C258 C264 1.379 . S
C258 N266 1.356 . S
C259 C258 1.363 . S
C259 C265 1.363 . S
C260 C261 1.363 . S
C260 C265 1.379 . S
C260 N267 1.356 . S
C261 C260 1.363 . S
C261 C264 1.363 . S
N262 C264 1.356 . S
N262 H274 0.984 . S
N262 H275 0.985 . S
N263 C265 1.356 . S
N263 H268 0.984 . S
N263 H269 0.985 . S
C264 C258 1.379 . S
C264 C261 1.363 . S
C264 N262 1.356 . S
C265 C259 1.363 . S
C265 C260 1.379 . S
C265 N263 1.356 . S
N266 C258 1.356 . S
N266 H272 0.984 . S
N266 H273 0.984 . S
N267 C260 1.356 . S
N267 H270 0.984 . S
N267 H271 0.985 1_565 S
H268 N263 0.984 . S
H269 N263 0.985 . S
H270 N267 0.984 . S
H271 N267 0.985 1_545 S
H272 N266 0.984 . S
H273 N266 0.984 . S
H274 N262 0.984 . S
H275 N262 0.985 . S
C276 C277 1.363 . S
C276 C282 1.379 . S
C276 N284 1.356 . S
C277 C276 1.363 . S
C277 C283 1.363 . S
C278 C279 1.363 . S
C278 C283 1.379 . S
C278 N285 1.356 . S
C279 C278 1.363 . S
C279 C282 1.363 . S
N280 C282 1.356 . S
N280 H292 0.984 . S
N280 H293 0.985 . S
N281 C283 1.356 . S
N281 H286 0.984 . S
N281 H287 0.985 . S
C282 C276 1.379 . S
C282 C279 1.363 . S
C282 N280 1.356 . S
C283 C277 1.363 . S
C283 C278 1.379 . S
C283 N281 1.356 . S
N284 C276 1.356 . S
N284 H290 0.984 . S
N284 H291 0.984 . S
N285 C278 1.356 . S
N285 H288 0.984 . S
N285 H289 0.985 1_545 S
H286 N281 0.984 . S
H287 N281 0.985 . S
H288 N285 0.984 . S
H289 N285 0.985 1_565 S
H290 N284 0.984 . S
H291 N284 0.984 . S
H292 N280 0.984 . S
H293 N280 0.985 . S
C81 C43 1.392 . S
C79 C7 1.500 . S
C99 C39 1.399 . S
C97 C16 1.500 . S
C117 C64 1.392 . S
C115 C25 1.500 . S
C133 C34 1.500 . S
C135 C60 1.398 . S
C151 C5 1.369 1_556 S
C153 C61 1.198 . S
C171 C76 1.218 . S
C169 C14 1.388 1_556 S
C187 C4 1.614 1_655 S
C189 C77 1.490 . S
C207 C73 1.509 . S
C205 C13 1.626 1_556 S
C225 C40 1.198 . S
C223 C23 1.369 . S
C241 C32 1.388 . S
C243 C55 1.218 . S
C261 C56 1.490 . S
C259 C22 1.614 . S
C279 C52 1.509 . S
C277 C31 1.626 . S
