# Generated by pormake.
# Topology eea, (3,6)-cn, num edge types: 1
# Building blocks:
#     Node 0, Type 0, BuildingBlock: QEWDON_clean_linker_0, # of connection points: 3
#     Node 1, Type 0, BuildingBlock: QEWDON_clean_linker_0, # of connection points: 3
#     Node 2, Type 0, BuildingBlock: QEWDON_clean_linker_0, # of connection points: 3
#     Node 3, Type 0, BuildingBlock: QEWDON_clean_linker_0, # of connection points: 3
#     Node 4, Type 0, BuildingBlock: QEWDON_clean_linker_0, # of connection points: 3
#     Node 5, Type 0, BuildingBlock: QEWDON_clean_linker_0, # of connection points: 3
#     Node 6, Type 0, BuildingBlock: QEWDON_clean_linker_0, # of connection points: 3
#     Node 7, Type 0, BuildingBlock: QEWDON_clean_linker_0, # of connection points: 3
#     Node 8, Type 0, BuildingBlock: QEWDON_clean_linker_0, # of connection points: 3
#     Node 9, Type 0, BuildingBlock: QEWDON_clean_linker_0, # of connection points: 3
#     Node 10, Type 0, BuildingBlock: QEWDON_clean_linker_0, # of connection points: 3
#     Node 11, Type 0, BuildingBlock: QEWDON_clean_linker_0, # of connection points: 3
#     Node 12, Type 0, BuildingBlock: QEWDON_clean_linker_0, # of connection points: 3
#     Node 13, Type 0, BuildingBlock: QEWDON_clean_linker_0, # of connection points: 3
#     Node 14, Type 0, BuildingBlock: QEWDON_clean_linker_0, # of connection points: 3
#     Node 15, Type 0, BuildingBlock: QEWDON_clean_linker_0, # of connection points: 3
#     Node 16, Type 0, BuildingBlock: QEWDON_clean_linker_0, # of connection points: 3
#     Node 17, Type 0, BuildingBlock: QEWDON_clean_linker_0, # of connection points: 3
#     Node 18, Type 1, BuildingBlock: CUKXOW_clean_sbu_0, # of connection points: 6
#     Node 19, Type 1, BuildingBlock: CUKXOW_clean_sbu_0, # of connection points: 6
#     Node 20, Type 1, BuildingBlock: CUKXOW_clean_sbu_0, # of connection points: 6
#     Node 21, Type 1, BuildingBlock: CUKXOW_clean_sbu_0, # of connection points: 6
#     Node 22, Type 1, BuildingBlock: CUKXOW_clean_sbu_0, # of connection points: 6
#     Node 23, Type 1, BuildingBlock: CUKXOW_clean_sbu_0, # of connection points: 6
#     Node 24, Type 1, BuildingBlock: CUKXOW_clean_sbu_0, # of connection points: 6
#     Node 25, Type 1, BuildingBlock: CUKXOW_clean_sbu_0, # of connection points: 6
#     Node 26, Type 1, BuildingBlock: CUKXOW_clean_sbu_0, # of connection points: 6
#     Edge 27, Type (0, 1), BuildingBlock: MIFKUJ_clean_linker_0, # of connection points: 2
#     Edge 28, Type (0, 1), BuildingBlock: MIFKUJ_clean_linker_0, # of connection points: 2
#     Edge 29, Type (0, 1), BuildingBlock: MIFKUJ_clean_linker_0, # of connection points: 2
#     Edge 30, Type (0, 1), BuildingBlock: MIFKUJ_clean_linker_0, # of connection points: 2
#     Edge 31, Type (0, 1), BuildingBlock: MIFKUJ_clean_linker_0, # of connection points: 2
#     Edge 32, Type (0, 1), BuildingBlock: MIFKUJ_clean_linker_0, # of connection points: 2
#     Edge 33, Type (0, 1), BuildingBlock: MIFKUJ_clean_linker_0, # of connection points: 2
#     Edge 34, Type (0, 1), BuildingBlock: MIFKUJ_clean_linker_0, # of connection points: 2
#     Edge 35, Type (0, 1), BuildingBlock: MIFKUJ_clean_linker_0, # of connection points: 2
#     Edge 36, Type (0, 1), BuildingBlock: MIFKUJ_clean_linker_0, # of connection points: 2
#     Edge 37, Type (0, 1), BuildingBlock: MIFKUJ_clean_linker_0, # of connection points: 2
#     Edge 38, Type (0, 1), BuildingBlock: MIFKUJ_clean_linker_0, # of connection points: 2
#     Edge 39, Type (0, 1), BuildingBlock: MIFKUJ_clean_linker_0, # of connection points: 2
#     Edge 40, Type (0, 1), BuildingBlock: MIFKUJ_clean_linker_0, # of connection points: 2
#     Edge 41, Type (0, 1), BuildingBlock: MIFKUJ_clean_linker_0, # of connection points: 2
#     Edge 42, Type (0, 1), BuildingBlock: MIFKUJ_clean_linker_0, # of connection points: 2
#     Edge 43, Type (0, 1), BuildingBlock: MIFKUJ_clean_linker_0, # of connection points: 2
#     Edge 44, Type (0, 1), BuildingBlock: MIFKUJ_clean_linker_0, # of connection points: 2
#     Edge 45, Type (0, 1), BuildingBlock: MIFKUJ_clean_linker_0, # of connection points: 2
#     Edge 46, Type (0, 1), BuildingBlock: MIFKUJ_clean_linker_0, # of connection points: 2
#     Edge 47, Type (0, 1), BuildingBlock: MIFKUJ_clean_linker_0, # of connection points: 2
#     Edge 48, Type (0, 1), BuildingBlock: MIFKUJ_clean_linker_0, # of connection points: 2
#     Edge 49, Type (0, 1), BuildingBlock: MIFKUJ_clean_linker_0, # of connection points: 2
#     Edge 50, Type (0, 1), BuildingBlock: MIFKUJ_clean_linker_0, # of connection points: 2
#     Edge 51, Type (0, 1), BuildingBlock: MIFKUJ_clean_linker_0, # of connection points: 2
#     Edge 52, Type (0, 1), BuildingBlock: MIFKUJ_clean_linker_0, # of connection points: 2
#     Edge 53, Type (0, 1), BuildingBlock: MIFKUJ_clean_linker_0, # of connection points: 2
#     Edge 54, Type (0, 1), BuildingBlock: MIFKUJ_clean_linker_0, # of connection points: 2
#     Edge 55, Type (0, 1), BuildingBlock: MIFKUJ_clean_linker_0, # of connection points: 2
#     Edge 56, Type (0, 1), BuildingBlock: MIFKUJ_clean_linker_0, # of connection points: 2
#     Edge 57, Type (0, 1), BuildingBlock: MIFKUJ_clean_linker_0, # of connection points: 2
#     Edge 58, Type (0, 1), BuildingBlock: MIFKUJ_clean_linker_0, # of connection points: 2
#     Edge 59, Type (0, 1), BuildingBlock: MIFKUJ_clean_linker_0, # of connection points: 2
#     Edge 60, Type (0, 1), BuildingBlock: MIFKUJ_clean_linker_0, # of connection points: 2
#     Edge 61, Type (0, 1), BuildingBlock: MIFKUJ_clean_linker_0, # of connection points: 2
#     Edge 62, Type (0, 1), BuildingBlock: MIFKUJ_clean_linker_0, # of connection points: 2
#     Edge 63, Type (0, 1), BuildingBlock: MIFKUJ_clean_linker_0, # of connection points: 2
#     Edge 64, Type (0, 1), BuildingBlock: MIFKUJ_clean_linker_0, # of connection points: 2
#     Edge 65, Type (0, 1), BuildingBlock: MIFKUJ_clean_linker_0, # of connection points: 2
#     Edge 66, Type (0, 1), BuildingBlock: MIFKUJ_clean_linker_0, # of connection points: 2
#     Edge 67, Type (0, 1), BuildingBlock: MIFKUJ_clean_linker_0, # of connection points: 2
#     Edge 68, Type (0, 1), BuildingBlock: MIFKUJ_clean_linker_0, # of connection points: 2
#     Edge 69, Type (0, 1), BuildingBlock: MIFKUJ_clean_linker_0, # of connection points: 2
#     Edge 70, Type (0, 1), BuildingBlock: MIFKUJ_clean_linker_0, # of connection points: 2
#     Edge 71, Type (0, 1), BuildingBlock: MIFKUJ_clean_linker_0, # of connection points: 2
#     Edge 72, Type (0, 1), BuildingBlock: MIFKUJ_clean_linker_0, # of connection points: 2
#     Edge 73, Type (0, 1), BuildingBlock: MIFKUJ_clean_linker_0, # of connection points: 2
#     Edge 74, Type (0, 1), BuildingBlock: MIFKUJ_clean_linker_0, # of connection points: 2
#     Edge 75, Type (0, 1), BuildingBlock: MIFKUJ_clean_linker_0, # of connection points: 2
#     Edge 76, Type (0, 1), BuildingBlock: MIFKUJ_clean_linker_0, # of connection points: 2
#     Edge 77, Type (0, 1), BuildingBlock: MIFKUJ_clean_linker_0, # of connection points: 2
#     Edge 78, Type (0, 1), BuildingBlock: MIFKUJ_clean_linker_0, # of connection points: 2
#     Edge 79, Type (0, 1), BuildingBlock: MIFKUJ_clean_linker_0, # of connection points: 2
#     Edge 80, Type (0, 1), BuildingBlock: MIFKUJ_clean_linker_0, # of connection points: 2
# Relax obj value: 0.053
# Max RMSD: 0.210
# Mean RMSD: 0.129
data_MOF--net-eea--node1-CUKXOW_clean_sbu_0--node2-QEWDON_clean_linker_0--edge1-MIFKUJ_clean_linker_0
_symmetry_space_group_name_H-M    P1
_symmetry_Int_Tables_number       1
_symmetry_cell_setting            triclinic
loop_
_symmetry_equiv_pos_as_xyz
'x, y, z'
_cell_length_a     80.987566
_cell_length_b     77.562803
_cell_length_c     62.190581
_cell_angle_alpha  93.10451
_cell_angle_beta   93.184344
_cell_angle_gamma 119.90071
loop_
_atom_site_label
_atom_site_type_symbol
_atom_site_fract_x
_atom_site_fract_y
_atom_site_fract_z
_atom_type_partial_charge
H0 H 0.21908 0.12182 0.43676 0.0
C1 C 0.21863 0.1087 0.42905 0.0
C2 C 0.22997 0.10165 0.43857 0.0
C3 C 0.20557 0.09792 0.41083 0.0
H4 H 0.23723 0.07847 0.43714 0.0
C5 C 0.22856 0.08395 0.42958 0.0
C6 C 0.21588 0.07309 0.41124 0.0
C7 C 0.20469 0.08037 0.40173 0.0
C8 C 0.19129 0.10356 0.40304 0.0
H9 H 0.19464 0.07184 0.38779 0.0
C10 C 0.19619 0.12377 0.40256 0.0
C11 C 0.18203 0.12868 0.39705 0.0
C12 C 0.1721 0.08853 0.3974 0.0
H13 H 0.16766 0.0729 0.39806 0.0
C14 C 0.15818 0.09343 0.39162 0.0
H15 H 0.21084 0.13563 0.40681 0.0
C16 C 0.16305 0.11337 0.39159 0.0
H17 H 0.15198 0.11688 0.38729 0.0
H18 H 0.14347 0.08172 0.38747 0.0
H19 H 0.89576 0.09536 0.458 0.0
C20 C 0.90765 0.10779 0.45161 0.0
C21 C 0.91501 0.1273 0.46153 0.0
C22 C 0.91623 0.10411 0.43426 0.0
H23 H 0.93707 0.15819 0.46162 0.0
C24 C 0.93116 0.14319 0.45387 0.0
C25 C 0.93993 0.13984 0.43651 0.0
C26 C 0.93209 0.12032 0.42659 0.0
C27 C 0.90968 0.08333 0.42502 0.0
H28 H 0.93843 0.11768 0.41282 0.0
C29 C 0.89006 0.06869 0.42136 0.0
C30 C 0.88432 0.04909 0.41268 0.0
C31 C 0.92339 0.07801 0.42002 0.0
H32 H 0.93856 0.08868 0.4231 0.0
C33 C 0.91779 0.05879 0.41124 0.0
H34 H 0.87934 0.07251 0.42527 0.0
C35 C 0.89846 0.04448 0.40749 0.0
H36 H 0.89461 0.02977 0.40029 0.0
H37 H 0.9285 0.05497 0.40731 0.0
H38 H 0.91403 0.78549 0.45959 0.0
C39 C 0.90172 0.7855 0.45183 0.0
C40 C 0.88323 0.77156 0.45673 0.0
C41 C 0.90439 0.79996 0.4376 0.0
H42 H 0.85315 0.76131 0.45088 0.0
C43 C 0.86738 0.77195 0.44694 0.0
C44 C 0.86977 0.78643 0.43287 0.0
C45 C 0.88836 0.8003 0.4282 0.0
C46 C 0.92396 0.81562 0.43365 0.0
H47 H 0.89046 0.81177 0.41766 0.0
C48 C 0.93773 0.81066 0.42769 0.0
C49 C 0.956 0.82568 0.42317 0.0
C50 C 0.92882 0.83579 0.43561 0.0
H51 H 0.91859 0.84002 0.44044 0.0
C52 C 0.94699 0.85071 0.4316 0.0
H53 H 0.934 0.79512 0.42583 0.0
C54 C 0.96048 0.84574 0.42536 0.0
H55 H 0.9745 0.85764 0.42234 0.0
H56 H 0.95062 0.8662 0.43327 0.0
H57 H 0.10966 0.20463 0.55975 0.0
C58 C 0.09758 0.20489 0.56613 0.0
C59 C 0.09216 0.21838 0.55904 0.0
C60 C 0.08727 0.1915 0.58111 0.0
H61 H 0.07209 0.2288 0.56132 0.0
C62 C 0.07642 0.21859 0.56716 0.0
C63 C 0.06573 0.20509 0.58192 0.0
C64 C 0.07131 0.19161 0.58882 0.0
C65 C 0.09262 0.17679 0.58805 0.0
H66 H 0.06339 0.18133 0.60046 0.0
C67 C 0.11162 0.18282 0.59572 0.0
C68 C 0.11645 0.16871 0.60261 0.0
C69 C 0.07855 0.1565 0.58705 0.0
H70 H 0.0639 0.15148 0.58105 0.0
C71 C 0.08331 0.14245 0.59342 0.0
H72 H 0.12242 0.19852 0.59693 0.0
C73 C 0.10207 0.14845 0.60111 0.0
H74 H 0.10533 0.13713 0.60572 0.0
H75 H 0.0724 0.12682 0.59237 0.0
H76 H 0.7996 0.9067 0.59213 0.0
C77 C 0.79863 0.89368 0.5989 0.0
C78 C 0.78691 0.87473 0.58764 0.0
C79 C 0.80993 0.89595 0.61803 0.0
H80 H 0.77727 0.84331 0.58695 0.0
C81 C 0.78633 0.85789 0.5957 0.0
C82 C 0.79717 0.85972 0.61502 0.0
C83 C 0.80871 0.87877 0.62615 0.0
C84 C 0.8241 0.91619 0.62873 0.0
H85 H 0.81726 0.88031 0.64092 0.0
C86 C 0.82009 0.93198 0.63006 0.0
C87 C 0.83387 0.95107 0.64001 0.0
C88 C 0.84215 0.9199 0.63737 0.0
H89 H 0.84603 0.90843 0.63607 0.0
C90 C 0.85561 0.93857 0.64755 0.0
H91 H 0.80637 0.92946 0.62331 0.0
C92 C 0.85152 0.95399 0.64899 0.0
H93 H 0.86223 0.96823 0.6573 0.0
H94 H 0.86934 0.94112 0.6543 0.0
H95 H 0.10583 0.88173 0.57999 0.0
C96 C 0.11827 0.89434 0.58888 0.0
C97 C 0.13661 0.90062 0.58219 0.0
C98 C 0.11582 0.90492 0.60629 0.0
H99 H 0.16657 0.92293 0.58777 0.0
C100 C 0.15256 0.91743 0.59348 0.0
C101 C 0.15041 0.92816 0.61097 0.0
C102 C 0.13199 0.92161 0.61739 0.0
C103 C 0.09635 0.90025 0.61125 0.0
H104 H 0.13012 0.9298 0.63081 0.0
C105 C 0.0818 0.8806 0.61387 0.0
C106 C 0.0633 0.87668 0.6178 0.0
C107 C 0.09215 0.9158 0.61273 0.0
H108 H 0.10296 0.93097 0.61051 0.0
C109 C 0.0739 0.91194 0.61662 0.0
H110 H 0.08483 0.86847 0.6128 0.0
C111 C 0.05956 0.89254 0.61909 0.0
H112 H 0.04552 0.88995 0.62228 0.0
H113 H 0.07085 0.92403 0.61767 0.0
H114 H 0.87906 0.45596 0.76997 0.0
C115 C 0.87875 0.44294 0.76222 0.0
C116 C 0.8917 0.4372 0.77025 0.0
C117 C 0.86509 0.43158 0.74469 0.0
H118 H 0.90024 0.41498 0.76743 0.0
C119 C 0.89086 0.41992 0.76063 0.0
C120 C 0.87717 0.40824 0.74332 0.0
C121 C 0.86459 0.41439 0.73524 0.0
C122 C 0.85052 0.4368 0.73695 0.0
H123 H 0.85427 0.40564 0.72158 0.0
C124 C 0.85541 0.45679 0.7348 0.0
C125 C 0.84141 0.46138 0.72722 0.0
C126 C 0.83142 0.42152 0.73168 0.0
H127 H 0.82707 0.40608 0.73361 0.0
C128 C 0.8176 0.42595 0.72404 0.0
H129 H 0.87004 0.4687 0.73896 0.0
C130 C 0.82252 0.44565 0.72169 0.0
H131 H 0.8115 0.4485 0.71528 0.0
H132 H 0.80299 0.41403 0.71987 0.0
H133 H 0.55046 0.43086 0.77604 0.0
C134 C 0.56265 0.44319 0.76992 0.0
C135 C 0.56979 0.46271 0.77953 0.0
C136 C 0.57152 0.43935 0.75303 0.0
H137 H 0.59129 0.49366 0.7791 0.0
C138 C 0.58578 0.47861 0.77169 0.0
C139 C 0.59504 0.47516 0.75488 0.0
C140 C 0.58767 0.45544 0.74561 0.0
C141 C 0.56482 0.41839 0.74433 0.0
H142 H 0.59479 0.45246 0.73291 0.0
C143 C 0.54512 0.40412 0.74049 0.0
C144 C 0.539 0.38407 0.73351 0.0
C145 C 0.57825 0.41233 0.74072 0.0
H146 H 0.59345 0.42278 0.74388 0.0
C147 C 0.57223 0.39256 0.73357 0.0
H148 H 0.53456 0.40852 0.74316 0.0
C149 C 0.55278 0.3785 0.73007 0.0
H150 H 0.54848 0.36324 0.72449 0.0
H151 H 0.58271 0.38808 0.73091 0.0
H152 H 0.57974 0.12643 0.79349 0.0
C153 C 0.56737 0.12575 0.78497 0.0
C154 C 0.54891 0.11233 0.79056 0.0
C155 C 0.56995 0.13876 0.7689 0.0
H156 H 0.51875 0.1021 0.78429 0.0
C157 C 0.53298 0.11181 0.7796 0.0
C158 C 0.53529 0.12469 0.76361 0.0
C159 C 0.55376 0.13802 0.75828 0.0
C160 C 0.5895 0.15394 0.76396 0.0
H161 H 0.55548 0.14787 0.7458 0.0
C162 C 0.60413 0.1492 0.76216 0.0
C163 C 0.62248 0.16372 0.75708 0.0
C164 C 0.59357 0.17347 0.76097 0.0
H165 H 0.58282 0.17774 0.7627 0.0
C166 C 0.61159 0.18781 0.7559 0.0
H167 H 0.6012 0.13424 0.7646 0.0
C168 C 0.62589 0.18301 0.75381 0.0
H169 H 0.63956 0.19441 0.74931 0.0
H170 H 0.61446 0.20274 0.75346 0.0
H171 H 0.78689 0.56051 0.90629 0.0
C172 C 0.77551 0.56137 0.91376 0.0
C173 C 0.76851 0.57328 0.90548 0.0
C174 C 0.76721 0.54973 0.93087 0.0
H175 H 0.74806 0.58315 0.9087 0.0
C176 C 0.75325 0.57371 0.91476 0.0
C177 C 0.74485 0.56232 0.93198 0.0
C178 C 0.75203 0.5505 0.93996 0.0
C179 C 0.77362 0.53601 0.93872 0.0
H180 H 0.74551 0.5415 0.95308 0.0
C181 C 0.79322 0.54196 0.94182 0.0
C182 C 0.79894 0.52908 0.95034 0.0
C183 C 0.75994 0.51675 0.94353 0.0
H184 H 0.74478 0.5115 0.94081 0.0
C185 C 0.76561 0.50396 0.95176 0.0
H186 H 0.80399 0.55675 0.93832 0.0
C187 C 0.78497 0.5101 0.95532 0.0
H188 H 0.78905 0.49991 0.96174 0.0
H189 H 0.75494 0.48921 0.95543 0.0
H190 H 0.47007 0.24378 0.92099 0.0
C191 C 0.47039 0.23148 0.92808 0.0
C192 C 0.45812 0.21182 0.91874 0.0
C193 C 0.48351 0.23541 0.94602 0.0
H194 H 0.45002 0.18087 0.92006 0.0
C195 C 0.45893 0.19596 0.92768 0.0
C196 C 0.47203 0.19959 0.94552 0.0
C197 C 0.48404 0.21931 0.95474 0.0
C198 C 0.49766 0.25635 0.95463 0.0
H199 H 0.49396 0.22212 0.96871 0.0
C200 C 0.49248 0.27123 0.9566 0.0
C201 C 0.50634 0.29117 0.96375 0.0
C202 C 0.51682 0.26171 0.96021 0.0
H203 H 0.52139 0.2508 0.95849 0.0
C204 C 0.53047 0.28135 0.96757 0.0
H205 H 0.47781 0.26741 0.95238 0.0
C206 C 0.52532 0.296 0.96928 0.0
H207 H 0.53621 0.31115 0.97507 0.0
H208 H 0.54515 0.28527 0.97179 0.0
H209 H 0.77133 0.2306 0.90709 0.0
C210 C 0.78377 0.24316 0.91605 0.0
C211 C 0.80197 0.25008 0.90875 0.0
C212 C 0.78132 0.25335 0.93384 0.0
H213 H 0.83189 0.27243 0.91433 0.0
C214 C 0.81787 0.26695 0.92001 0.0
C215 C 0.81577 0.27725 0.93799 0.0
C216 C 0.79739 0.27027 0.94478 0.0
C217 C 0.76178 0.24772 0.93952 0.0
H218 H 0.79549 0.2781 0.95853 0.0
C219 C 0.74814 0.22781 0.94249 0.0
C220 C 0.72947 0.22282 0.94688 0.0
C221 C 0.75652 0.26246 0.94118 0.0
H222 H 0.76665 0.27782 0.93876 0.0
C223 C 0.738 0.25748 0.94542 0.0
H224 H 0.752 0.21629 0.94138 0.0
C225 C 0.72452 0.23777 0.94817 0.0
H226 H 0.71022 0.2342 0.95156 0.0
H227 H 0.73408 0.26892 0.94652 0.0
H228 H 0.55115 0.79 0.10572 0.0
C229 C 0.55212 0.77852 0.09609 0.0
C230 C 0.56323 0.77064 0.10443 0.0
C231 C 0.54102 0.77057 0.07614 0.0
H232 H 0.57117 0.74817 0.09899 0.0
C233 C 0.5631 0.75464 0.09234 0.0
C234 C 0.55208 0.74645 0.07226 0.0
C235 C 0.54159 0.75506 0.06409 0.0
C236 C 0.52679 0.77638 0.06914 0.0
H237 H 0.53328 0.74934 0.0485 0.0
C238 C 0.53174 0.79658 0.06901 0.0
C239 C 0.51764 0.80151 0.06317 0.0
C240 C 0.5077 0.76132 0.06323 0.0
H241 H 0.50345 0.74569 0.06347 0.0
C242 C 0.49378 0.7662 0.05745 0.0
H243 H 0.54639 0.80834 0.07351 0.0
C244 C 0.49867 0.78614 0.05747 0.0
H245 H 0.48762 0.78959 0.05278 0.0
H246 H 0.47913 0.75448 0.05301 0.0
H247 H 0.23072 0.7694 0.11412 0.0
C248 C 0.24154 0.78229 0.10713 0.0
C249 C 0.24804 0.8017 0.11694 0.0
C250 C 0.24963 0.77923 0.08894 0.0
H251 H 0.2674 0.83314 0.1147 0.0
C252 C 0.26276 0.81809 0.10797 0.0
C253 C 0.27158 0.81535 0.09029 0.0
C254 C 0.26469 0.79584 0.08075 0.0
C255 C 0.24332 0.75864 0.07922 0.0
H256 H 0.27135 0.79348 0.06715 0.0
C257 C 0.22373 0.74388 0.07551 0.0
C258 C 0.21808 0.72456 0.06593 0.0
C259 C 0.25712 0.75372 0.07347 0.0
H260 H 0.27226 0.76453 0.0765 0.0
C261 C 0.25163 0.73477 0.06389 0.0
H262 H 0.21296 0.74745 0.08 0.0
C263 C 0.23233 0.72036 0.06001 0.0
H264 H 0.22858 0.70592 0.05211 0.0
H265 H 0.26241 0.73125 0.05937 0.0
H266 H 0.24538 0.45433 0.13197 0.0
C267 C 0.23286 0.45379 0.124 0.0
C268 C 0.21478 0.44203 0.13149 0.0
C269 C 0.23508 0.46609 0.10731 0.0
H270 H 0.18478 0.43266 0.12666 0.0
C271 C 0.19883 0.4421 0.1214 0.0
C272 C 0.2008 0.45443 0.10487 0.0
C273 C 0.21899 0.46627 0.09784 0.0
C274 C 0.25438 0.48037 0.10117 0.0
H275 H 0.2208 0.47621 0.08544 0.0
C276 C 0.26718 0.47404 0.09511 0.0
C277 C 0.28509 0.48783 0.08837 0.0
C278 C 0.25989 0.50066 0.10106 0.0
H279 H 0.2504 0.50593 0.1059 0.0
C280 C 0.27773 0.51437 0.0949 0.0
H281 H 0.26294 0.45838 0.09491 0.0
C282 C 0.29023 0.50805 0.08854 0.0
H283 H 0.30402 0.51906 0.08388 0.0
H284 H 0.28187 0.52998 0.09499 0.0
H285 H 0.44735 0.87512 0.22638 0.0
C286 C 0.43542 0.87528 0.23323 0.0
C287 C 0.42898 0.88795 0.22577 0.0
C288 C 0.42589 0.86199 0.24867 0.0
H289 H 0.40826 0.89747 0.22925 0.0
C290 C 0.41297 0.88735 0.23432 0.0
C291 C 0.40304 0.87396 0.24951 0.0
C292 C 0.40975 0.86148 0.25668 0.0
C293 C 0.43212 0.8479 0.25579 0.0
H294 H 0.40218 0.85104 0.26832 0.0
C295 C 0.45165 0.85423 0.26095 0.0
C296 C 0.45709 0.84092 0.26887 0.0
C297 C 0.4183 0.82792 0.25792 0.0
H298 H 0.40325 0.82245 0.25363 0.0
C299 C 0.42371 0.8147 0.26549 0.0
H300 H 0.4625 0.86959 0.25957 0.0
C301 C 0.44293 0.82116 0.2711 0.0
H302 H 0.4468 0.81063 0.27702 0.0
H303 H 0.41293 0.79938 0.26709 0.0
H304 H 0.12581 0.56551 0.25653 0.0
C305 C 0.1257 0.55279 0.26306 0.0
C306 C 0.1135 0.53348 0.25263 0.0
C307 C 0.13826 0.55585 0.28133 0.0
H308 H 0.10513 0.50224 0.25256 0.0
C309 C 0.11384 0.5171 0.26085 0.0
C310 C 0.12621 0.5199 0.27902 0.0
C311 C 0.13814 0.53913 0.28933 0.0
C312 C 0.15262 0.57646 0.29098 0.0
H313 H 0.14763 0.54102 0.30338 0.0
C314 C 0.14826 0.592 0.29265 0.0
C315 C 0.16238 0.61152 0.30108 0.0
C316 C 0.17125 0.58082 0.29802 0.0
H317 H 0.17536 0.56953 0.29646 0.0
C318 C 0.18505 0.59994 0.30678 0.0
H319 H 0.13406 0.58903 0.28725 0.0
C320 C 0.18069 0.61516 0.30833 0.0
H321 H 0.19172 0.62986 0.31531 0.0
H322 H 0.19927 0.60302 0.31222 0.0
H323 H 0.44089 0.55128 0.24682 0.0
C324 C 0.45314 0.56378 0.25611 0.0
C325 C 0.47152 0.57083 0.24925 0.0
C326 C 0.45037 0.57397 0.27369 0.0
H327 H 0.50127 0.59369 0.25477 0.0
C328 C 0.48722 0.58787 0.26048 0.0
C329 C 0.48476 0.59811 0.27817 0.0
C330 C 0.46636 0.59077 0.28492 0.0
C331 C 0.43076 0.5688 0.27886 0.0
H332 H 0.46441 0.59856 0.29866 0.0
C333 C 0.41596 0.54881 0.27921 0.0
C334 C 0.39749 0.54449 0.28397 0.0
C335 C 0.42676 0.5843 0.28308 0.0
H336 H 0.43762 0.59977 0.28239 0.0
C337 C 0.40865 0.5801 0.28797 0.0
H338 H 0.41878 0.53673 0.27581 0.0
C339 C 0.39415 0.56041 0.28853 0.0
H340 H 0.38032 0.55768 0.29279 0.0
H341 H 0.40583 0.59218 0.29135 0.0
Tb342 Tb 0.52991 0.02478 0.01806 0.0
C343 C 0.51513 0.97966 0.02202 0.0
Tb344 Tb 0.48594 0.99601 0.01785 0.0
O345 O 0.5349 0.01923 0.05126 0.0
O346 O 0.50891 0.01664 0.04035 0.0
O347 O 0.52908 0.99624 0.01534 0.0
C348 C 0.45075 0.96929 0.027 0.0
O349 O 0.49823 0.97741 0.02599 0.0
C350 C 0.49784 0.00691 0.97998 0.0
C351 C 0.50084 0.04152 0.01475 0.0
O352 O 0.45928 0.96725 0.01081 0.0
O353 O 0.46198 0.98642 0.03793 0.0
O354 O 0.48031 1.00031 0.98432 0.0
O355 O 0.50689 0.00441 0.99553 0.0
O356 O 0.48653 0.02442 0.02008 0.0
O357 O 0.51805 0.04415 0.01169 0.0
C358 C 0.56504 0.05077 0.00814 0.0
O359 O 0.55281 0.03443 0.99644 0.0
O360 O 0.55757 0.05237 0.02555 0.0
C361 C 0.5176 0.01371 0.05593 0.0
Tb362 Tb 0.99522 0.51457 0.01151 0.0
C363 C 0.04003 0.54505 0.01027 0.0
Tb364 Tb 0.0243 0.49801 0.01097 0.0
O365 O 0.99188 0.50882 0.04572 0.0
O366 O 0.01693 0.5148 0.03222 0.0
O367 O 0.02233 0.54234 0.00887 0.0
C368 C 0.04936 0.48744 0.02496 0.0
O369 O 0.04375 0.53025 0.01231 0.0
C370 C 0.00745 0.49498 0.97215 0.0
C371 C 0.97959 0.46806 0.01116 0.0
O372 O 0.04967 0.49549 0.00708 0.0
O373 O 0.03479 0.48516 0.03495 0.0
O374 O 0.02019 0.48962 0.97556 0.0
O375 O 0.00559 0.5015 0.99015 0.0
O376 O 0.99722 0.47124 0.01592 0.0
O377 O 0.9759 0.48241 0.0064 0.0
C378 C 0.97184 0.52825 1.00003 0.0
O379 O 0.9759 0.52557 0.01962 0.0
O380 O 0.98127 0.5236 0.98694 0.0
C381 C 0.00827 0.50961 0.04891 0.0
Tb382 Tb 0.48582 0.5016 0.01 0.0
C383 C 0.49971 0.47073 0.00332 0.0
Tb384 Tb 0.52923 0.51769 0.00879 0.0
O385 O 0.47931 0.48834 0.97657 0.0
O386 O 0.50608 0.51323 0.98694 0.0
O387 O 0.48588 0.47348 0.01026 0.0
C388 C 0.56449 0.5267 0.99991 0.0
O389 O 0.51679 0.48572 0.99992 0.0
C390 C 0.51736 0.51894 0.047 0.0
C391 C 0.51557 0.54876 0.01121 0.0
O392 O 0.5565 0.51881 0.01709 0.0
O393 O 0.55263 0.52949 0.9878 0.0
O394 O 0.53429 0.53165 0.04197 0.0
O395 O 0.50873 0.50558 0.03157 0.0
O396 O 0.52938 0.5454 0.00568 0.0
O397 O 0.49841 0.5343 0.01554 0.0
C398 C 0.45148 0.49194 0.02281 0.0
O399 O 0.45845 0.50099 0.00576 0.0
O400 O 0.46391 0.48847 0.03272 0.0
C401 C 0.49654 0.50005 0.97142 0.0
Tb402 Tb 0.1919 0.35101 0.3506 0.0
C403 C 0.17955 0.30778 0.36153 0.0
Tb404 Tb 0.14862 0.32113 0.35269 0.0
O405 O 0.19837 0.35011 0.3851 0.0
O406 O 0.17144 0.34446 0.37326 0.0
O407 O 0.19256 0.32335 0.35235 0.0
C408 C 0.11418 0.29367 0.3631 0.0
O409 O 0.16271 0.30556 0.36569 0.0
C410 C 0.15994 0.32833 0.31365 0.0
C411 C 0.16102 0.36505 0.34472 0.0
O412 O 0.1256 0.29001 0.35249 0.0
O413 O 0.12202 0.31282 0.3676 0.0
O414 O 0.14257 0.32246 0.31816 0.0
O415 O 0.16911 0.32762 0.33021 0.0
O416 O 0.14809 0.3489 0.35316 0.0
O417 O 0.17795 0.36763 0.34024 0.0
C418 C 0.22593 0.37724 0.33813 0.0
O419 O 0.21805 0.38034 0.35439 0.0
O420 O 0.2147 0.35928 0.32896 0.0
C421 C 0.18099 0.34413 0.38979 0.0
Tb422 Tb 0.66022 0.84214 0.34764 0.0
C423 C 0.70435 0.87185 0.35326 0.0
Tb424 Tb 0.68715 0.82453 0.34996 0.0
O425 O 0.66906 0.85578 0.381 0.0
O426 O 0.67084 0.83052 0.37134 0.0
O427 O 0.68748 0.86964 0.3464 0.0
C428 C 0.71376 0.81478 0.36023 0.0
O429 O 0.70667 0.85653 0.35749 0.0
C430 C 0.67151 0.82281 0.31129 0.0
C431 C 0.64322 0.79477 0.34611 0.0
O432 O 0.71357 0.82453 0.34399 0.0
O433 O 0.69887 0.81034 0.3706 0.0
O434 O 0.67686 0.81033 0.31693 0.0
O435 O 0.67685 0.83652 0.32639 0.0
O436 O 0.66027 0.79741 0.35264 0.0
O437 O 0.64049 0.80979 0.34155 0.0
C438 C 0.6332 0.85078 0.33528 0.0
O439 O 0.63478 0.84415 0.35354 0.0
O440 O 0.64698 0.85277 0.32403 0.0
C441 C 0.67548 0.84411 0.38649 0.0
Tb442 Tb 0.15341 0.82873 0.34435 0.0
C443 C 0.16747 0.79794 0.33896 0.0
Tb444 Tb 0.19703 0.84512 0.34285 0.0
O445 O 0.14773 0.81625 0.31047 0.0
O446 O 0.17384 0.84137 0.3218 0.0
O447 O 0.15358 0.80079 0.34546 0.0
C448 C 0.23076 0.85305 0.32947 0.0
O449 O 0.18442 0.81289 0.33505 0.0
C450 C 0.18619 0.84596 0.38157 0.0
C451 C 0.1832 0.87597 0.34907 0.0
O452 O 0.22442 0.84571 0.3475 0.0
O453 O 0.2183 0.85627 0.3193 0.0
O454 O 0.20363 0.85733 0.37683 0.0
O455 O 0.17667 0.8332 0.36573 0.0
O456 O 0.19703 0.87313 0.34229 0.0
O457 O 0.16622 0.86098 0.35297 0.0
C458 C 0.11868 0.82003 0.35477 0.0
O459 O 0.12758 0.83093 0.33956 0.0
O460 O 0.12927 0.81383 0.36405 0.0
C461 C 0.16488 0.82874 0.30579 0.0
Tb462 Tb 0.85561 0.68568 0.68356 0.0
C463 C 0.84051 0.63901 0.68297 0.0
Tb464 Tb 0.81039 0.6543 0.68121 0.0
O465 O 0.85595 0.69581 0.71722 0.0
O466 O 0.83501 0.66743 0.70407 0.0
O467 O 0.85508 0.65709 0.68034 0.0
C468 C 0.77563 0.62792 0.69166 0.0
O469 O 0.82283 0.6353 0.68546 0.0
C470 C 0.82288 0.66527 0.64299 0.0
C471 C 0.82548 0.70077 0.68143 0.0
O472 O 0.78412 0.62513 0.67584 0.0
O473 O 0.78662 0.64571 0.70143 0.0
O474 O 0.80499 0.65311 0.64549 0.0
O475 O 0.83174 0.66932 0.66135 0.0
O476 O 0.8112 0.6829 0.68518 0.0
O477 O 0.84318 0.70464 0.67867 0.0
C478 C 0.8911 0.70866 0.67238 0.0
O479 O 0.87537 0.7022 0.66003 0.0
O480 O 0.88693 0.7019 0.6912 0.0
C481 C 0.83989 0.67998 0.72031 0.0
Tb482 Tb 0.31883 0.17118 0.68585 0.0
C483 C 0.36277 0.20422 0.68453 0.0
Tb484 Tb 0.35068 0.15838 0.6815 0.0
O485 O 0.32341 0.17717 0.72181 0.0
O486 O 0.33799 0.16691 0.70462 0.0
O487 O 0.34456 0.19979 0.68208 0.0
C488 C 0.3763 0.1476 0.69271 0.0
O489 O 0.36818 0.1907 0.68629 0.0
C490 C 0.33669 0.16504 0.64573 0.0
C491 C 0.30674 0.12498 0.68207 0.0
O492 O 0.3725 0.15929 0.70447 0.0
O493 O 0.36553 0.14178 0.67443 0.0
O494 O 0.35353 0.16663 0.64805 0.0
O495 O 0.32823 0.15808 0.66221 0.0
O496 O 0.32499 0.12948 0.68463 0.0
O497 O 0.30148 0.13867 0.6803 0.0
C498 C 0.29127 0.17957 0.6762 0.0
O499 O 0.2909 0.16787 0.6906 0.0
O500 O 0.30723 0.18659 0.66714 0.0
C501 C 0.33661 0.17227 0.72337 0.0
Tb502 Tb 0.82067 0.16549 0.68263 0.0
C503 C 0.83551 0.13535 0.67839 0.0
Tb504 Tb 0.86413 0.18261 0.67964 0.0
O505 O 0.81393 0.15128 0.64947 0.0
O506 O 0.84012 0.17717 0.65883 0.0
O507 O 0.82144 0.13798 0.68471 0.0
C508 C 0.89808 0.19131 0.66638 0.0
O509 O 0.85217 0.15028 0.67366 0.0
C510 C 0.85385 0.18445 0.7185 0.0
C511 C 0.8495 0.21282 0.68465 0.0
O512 O 0.89174 0.18366 0.68429 0.0
O513 O 0.88544 0.19428 0.65622 0.0
O514 O 0.87069 0.19683 0.71279 0.0
O515 O 0.84464 0.17091 0.70332 0.0
O516 O 0.86338 0.2101 0.67784 0.0
O517 O 0.83284 0.19784 0.68932 0.0
C518 C 0.78674 0.1577 0.69508 0.0
O519 O 0.79374 0.16558 0.67751 0.0
O520 O 0.79873 0.1539 0.70552 0.0
C521 C 0.83074 0.16358 0.64368 0.0
H522 H 0.28153 0.82178 0.04852 0.0
H523 H 0.31101 0.84864 0.03673 0.0
H524 H 0.32963 0.87548 0.10243 0.0
H525 H 0.30071 0.84827 0.11461 0.0
H526 H 0.33513 0.90317 0.07033 0.0
H527 H 0.34773 0.84998 0.08495 0.0
H528 H 0.34116 0.81526 0.08099 0.0
H529 H 0.34617 0.81837 0.01275 0.0
H530 H 0.35247 0.85303 0.01626 0.0
H531 H 0.43403 0.96951 0.06374 0.0
H532 H 0.40248 0.94443 0.07305 0.0
H533 H 0.39237 0.91064 0.01144 0.0
H534 H 0.42425 0.93538 0.0025 0.0
H535 H 0.38134 0.88632 0.0402 0.0
H536 H 0.3697 0.93913 0.0244 0.0
H537 H 0.37521 0.97347 0.02682 0.0
H538 H 0.36716 0.9711 0.09449 0.0
H539 H 0.36185 0.93683 0.09254 0.0
C540 C 0.29191 0.83328 0.06054 0.0
C541 C 0.28867 0.83267 0.0826 0.0
C542 C 0.3087 0.84872 0.05372 0.0
C543 C 0.32252 0.86398 0.06873 0.0
C544 C 0.31908 0.86388 0.09057 0.0
C545 C 0.30244 0.84832 0.09747 0.0
C546 C 0.34094 0.8796 0.06182 0.0
C547 C 0.34535 0.89958 0.06391 0.0
C548 C 0.354 0.87478 0.05292 0.0
C549 C 0.35035 0.85401 0.05083 0.0
C550 C 0.34726 0.8432 0.06907 0.0
C551 C 0.34362 0.82354 0.06691 0.0
C552 C 0.34319 0.81459 0.04662 0.0
C553 C 0.34647 0.8253 0.02845 0.0
C554 C 0.35008 0.84496 0.03051 0.0
C555 C 0.42498 0.9568 0.05213 0.0
C556 C 0.43149 0.95442 0.03235 0.0
C557 C 0.40686 0.94254 0.05737 0.0
C558 C 0.39475 0.92576 0.04277 0.0
C559 C 0.40133 0.92344 0.02297 0.0
C560 C 0.41954 0.93759 0.01784 0.0
C561 C 0.3757 0.91013 0.0486 0.0
C562 C 0.37114 0.89006 0.04641 0.0
C563 C 0.36241 0.91487 0.05713 0.0
C564 C 0.36554 0.93547 0.05836 0.0
C565 C 0.36924 0.94598 0.03983 0.0
C566 C 0.37231 0.96543 0.04112 0.0
C567 C 0.37158 0.97448 0.06081 0.0
C568 C 0.36774 0.96408 0.07925 0.0
C569 C 0.36468 0.94463 0.07806 0.0
H570 H 0.37396 0.98953 0.06177 0.0
H571 H 0.34037 0.79937 0.04498 0.0
H572 H 0.19085 0.45715 0.06274 0.0
H573 H 0.16439 0.46153 0.04897 0.0
H574 H 0.14662 0.45965 0.11331 0.0
H575 H 0.17312 0.45556 0.12725 0.0
H576 H 0.11614 0.43771 0.08336 0.0
H577 H 0.17146 0.50362 0.0926 0.0
H578 H 0.20446 0.52945 0.08756 0.0
H579 H 0.19008 0.52173 0.01887 0.0
H580 H 0.15704 0.49561 0.02348 0.0
H581 H 0.05477 0.47778 0.0653 0.0
H582 H 0.07981 0.47105 0.0788 0.0
H583 H 0.10132 0.47883 0.01595 0.0
H584 H 0.07677 0.48629 0.00271 0.0
H585 H 0.12984 0.49739 0.04531 0.0
H586 H 0.07446 0.43133 0.03589 0.0
H587 H 0.04149 0.40537 0.04093 0.0
H588 H 0.05583 0.41322 0.10964 0.0
H589 H 0.08885 0.43938 0.10503 0.0
C590 C 0.18135 0.45773 0.07397 0.0
C591 C 0.18415 0.45601 0.09611 0.0
C592 C 0.16621 0.46019 0.06607 0.0
C593 C 0.15362 0.46109 0.08015 0.0
C594 C 0.15611 0.45893 0.10214 0.0
C595 C 0.17124 0.4565 0.11006 0.0
C596 C 0.13813 0.46476 0.0721 0.0
C597 C 0.11913 0.45086 0.07522 0.0
C598 C 0.142 0.48173 0.06117 0.0
C599 C 0.16183 0.49752 0.05837 0.0
C600 C 0.17537 0.50731 0.0764 0.0
C601 C 0.19408 0.52202 0.07363 0.0
C602 C 0.19938 0.52719 0.0529 0.0
C603 C 0.18596 0.51769 0.03491 0.0
C604 C 0.16724 0.50294 0.0376 0.0
C605 C 0.06479 0.47792 0.05437 0.0
C606 C 0.06383 0.48246 0.03296 0.0
C607 C 0.07905 0.47399 0.06206 0.0
C608 C 0.09234 0.47414 0.04832 0.0
C609 C 0.09126 0.47861 0.02688 0.0
C610 C 0.0772 0.48281 0.0193 0.0
C611 C 0.10773 0.47023 0.05635 0.0
C612 C 0.12677 0.48416 0.05332 0.0
C613 C 0.10387 0.45325 0.06733 0.0
C614 C 0.08407 0.43742 0.07012 0.0
C615 C 0.07055 0.4276 0.05208 0.0
C616 C 0.05186 0.41283 0.05486 0.0
C617 C 0.04656 0.40767 0.07559 0.0
C618 C 0.05995 0.41723 0.09359 0.0
C619 C 0.07866 0.43201 0.0909 0.0
H620 H 0.03208 0.39625 0.0777 0.0
H621 H 0.21387 0.53858 0.05078 0.0
H622 H 0.57859 0.73377 0.07125 0.0
H623 H 0.57323 0.70138 0.05685 0.0
H624 H 0.51613 0.68499 0.03132 0.0
H625 H 0.52049 0.71611 0.04774 0.0
H626 H 0.51324 0.65637 0.0491 0.0
H627 H 0.55612 0.69577 0.99912 0.0
H628 H 0.58556 0.72315 0.98706 0.0
H629 H 0.61892 0.70141 0.01916 0.0
H630 H 0.5897 0.67403 0.03165 0.0
H631 H 0.49246 0.56324 0.99808 0.0
H632 H 0.49984 0.59806 0.0019 0.0
H633 H 0.5554 0.61589 0.03401 0.0
H634 H 0.54855 0.58138 0.02864 0.0
H635 H 0.55868 0.64393 0.01031 0.0
H636 H 0.5121 0.60375 0.05988 0.0
H637 H 0.48091 0.57513 0.06576 0.0
H638 H 0.45217 0.59953 0.02909 0.0
H639 H 0.48331 0.62783 0.02206 0.0
C640 C 0.5648 0.72325 0.06276 0.0
C641 C 0.54998 0.72781 0.06092 0.0
C642 C 0.56188 0.70478 0.0541 0.0
C643 C 0.54431 0.69064 0.04272 0.0
C644 C 0.52983 0.69552 0.04004 0.0
C645 C 0.53251 0.71365 0.04922 0.0
C646 C 0.54025 0.67016 0.03523 0.0
C647 C 0.52311 0.65379 0.04027 0.0
C648 C 0.55312 0.66651 0.02396 0.0
C649 C 0.57073 0.68295 0.01649 0.0
C650 C 0.56975 0.69691 0.00374 0.0
C651 C 0.5864 0.71242 0.99681 0.0
C652 C 0.60411 0.71405 0.00238 0.0
C653 C 0.6052 0.70014 0.01487 0.0
C654 C 0.5886 0.68461 0.02186 0.0
C655 C 0.50627 0.57467 0.00581 0.0
C656 C 0.51986 0.56967 0.01329 0.0
C657 C 0.5105 0.59456 0.00804 0.0
C658 C 0.52802 0.60965 0.0188 0.0
C659 C 0.54177 0.60463 0.02573 0.0
C660 C 0.5378 0.58488 0.0228 0.0
C661 C 0.53169 0.63034 0.02414 0.0
C662 C 0.54882 0.64669 0.01893 0.0
C663 C 0.5186 0.63407 0.03476 0.0
C664 C 0.50001 0.61777 0.0403 0.0
C665 C 0.49913 0.603 0.05309 0.0
C666 C 0.48143 0.58679 0.05654 0.0
C667 C 0.46452 0.58554 0.04786 0.0
C668 C 0.46528 0.60052 0.03576 0.0
C669 C 0.48295 0.61658 0.03195 0.0
H670 H 0.45079 0.57299 0.05038 0.0
H671 H 0.61698 0.72606 0.997 0.0
H672 H 0.85251 0.28496 0.9476 0.0
H673 H 0.88045 0.3164 0.96288 0.0
H674 H 0.84514 0.34324 0.96838 0.0
H675 H 0.81731 0.31214 0.95232 0.0
H676 H 0.87695 0.36756 0.95146 0.0
H677 H 0.86189 0.32936 0.01302 0.0
H678 H 0.85529 0.30036 0.03308 0.0
H679 H 0.9109 0.30916 0.02303 0.0
H680 H 0.91774 0.33807 0.00265 0.0
H681 H 0.94193 0.45629 0.01324 0.0
H682 H 0.91439 0.42271 0.00516 0.0
H683 H 0.95217 0.39927 0.99625 0.0
H684 H 0.97994 0.43291 0.00489 0.0
H685 H 0.91979 0.37298 0.01492 0.0
H686 H 0.93546 0.41349 0.95572 0.0
H687 H 0.94249 0.44446 0.93974 0.0
H688 H 0.88468 0.43101 0.94441 0.0
H689 H 0.87771 0.40081 0.96232 0.0
C690 C 0.85068 0.29756 0.95201 0.0
C691 C 0.8326 0.29595 0.94872 0.0
C692 C 0.86666 0.3155 0.96096 0.0
C693 C 0.86492 0.3322 0.967 0.0
C694 C 0.84687 0.33058 0.96391 0.0
C695 C 0.8309 0.31268 0.95492 0.0
C696 C 0.88197 0.35156 0.97583 0.0
C697 C 0.88615 0.36877 0.96552 0.0
C698 C 0.89432 0.35311 0.99384 0.0
C699 C 0.89025 0.33576 0.00612 0.0
C700 C 0.87266 0.32502 0.01494 0.0
C701 C 0.86888 0.30861 0.0264 0.0
C702 C 0.88265 0.30289 0.02928 0.0
C703 C 0.90024 0.31359 0.02076 0.0
C704 C 0.90408 0.33 0.00927 0.0
C705 C 0.94443 0.44397 0.00991 0.0
C706 C 0.96314 0.44733 0.00939 0.0
C707 C 0.92865 0.42476 0.00532 0.0
C708 C 0.9312 0.40853 0.99964 0.0
C709 C 0.94986 0.41159 1.0005 0.0
C710 C 0.96572 0.43083 0.00538 0.0
C711 C 0.91452 0.38895 0.99076 0.0
C712 C 0.91053 0.37173 0.0009 0.0
C713 C 0.90229 0.38739 0.9726 0.0
C714 C 0.90612 0.40494 0.96066 0.0
C715 C 0.92426 0.41719 0.95356 0.0
C716 C 0.92826 0.43465 0.94417 0.0
C717 C 0.91401 0.43961 0.94081 0.0
C718 C 0.89574 0.42717 0.94704 0.0
C719 C 0.8918 0.40996 0.95703 0.0
H720 H 0.91719 0.45311 0.93345 0.0
H721 H 0.8797 0.29019 0.03816 0.0
H722 H 0.71423 0.56179 0.91007 0.0
H723 H 0.68579 0.55917 0.92473 0.0
H724 H 0.70852 0.5589 0.98899 0.0
H725 H 0.73726 0.56196 0.97454 0.0
H726 H 0.67178 0.52856 0.97956 0.0
H727 H 0.70636 0.59914 0.97539 0.0
H728 H 0.72474 0.63018 0.95794 0.0
H729 H 0.67683 0.6124 0.91104 0.0
H730 H 0.65825 0.5811 0.92801 0.0
H731 H 0.59202 0.52524 0.02587 0.0
H732 H 0.62439 0.53429 0.01768 0.0
H733 H 0.61298 0.5482 0.95421 0.0
H734 H 0.58098 0.54004 0.96282 0.0
H735 H 0.64637 0.57396 0.96696 0.0
H736 H 0.61667 0.50058 0.96377 0.0
H737 H 0.59828 0.46789 0.97814 0.0
H738 H 0.63668 0.48985 0.0363 0.0
H739 H 0.65527 0.5227 0.02207 0.0
C740 C 0.71341 0.56161 0.92739 0.0
C741 C 0.72808 0.56206 0.9411 0.0
C742 C 0.69709 0.56006 0.93574 0.0
C743 C 0.69507 0.55896 0.95798 0.0
C744 C 0.70977 0.55969 0.97177 0.0
C745 C 0.72614 0.56134 0.96345 0.0
C746 C 0.67713 0.55587 0.96661 0.0
C747 C 0.66638 0.53868 0.97714 0.0
C748 C 0.66986 0.56882 0.96305 0.0
C749 C 0.68096 0.58769 0.95289 0.0
C750 C 0.69979 0.60177 0.96126 0.0
C751 C 0.71023 0.61943 0.95147 0.0
C752 C 0.70197 0.62324 0.93337 0.0
C753 C 0.68322 0.60943 0.92505 0.0
C754 C 0.67271 0.59173 0.93477 0.0
C755 C 0.59646 0.53019 0.01016 0.0
C756 C 0.58397 0.53184 0.99493 0.0
C757 C 0.61493 0.53517 0.00537 0.0
C758 C 0.62114 0.54142 0.98503 0.0
C759 C 0.60868 0.54338 0.97 0.0
C760 C 0.59031 0.53863 0.97488 0.0
C761 C 0.64062 0.54624 0.97938 0.0
C762 C 0.65176 0.56386 0.96951 0.0
C763 C 0.64821 0.53358 0.98329 0.0
C764 C 0.63701 0.5141 0.99207 0.0
C765 C 0.62096 0.49846 0.97973 0.0
C766 C 0.61059 0.47989 0.98781 0.0
C767 C 0.61618 0.47682 0.00824 0.0
C768 C 0.63229 0.49228 0.02053 0.0
C769 C 0.64278 0.51085 0.01244 0.0
H770 H 0.60813 0.46243 0.0145 0.0
H771 H 0.71009 0.63692 0.92581 0.0
H772 H 0.44363 0.16225 0.95319 0.0
H773 H 0.44733 0.13478 0.96566 0.0
H774 H 0.50869 0.17197 0.96845 0.0
H775 H 0.50509 0.19932 0.95578 0.0
H776 H 0.4957 0.13439 0.94834 0.0
H777 H 0.48691 0.16373 0.01405 0.0
H778 H 0.46992 0.17531 0.03716 0.0
H779 H 0.42107 0.11605 0.03111 0.0
H780 H 0.43769 0.10417 0.0077 0.0
H781 H 0.52707 0.07979 0.00762 0.0
H782 H 0.52095 0.10599 0.99686 0.0
H783 H 0.46049 0.067 1.00049 0.0
H784 H 0.46651 0.04073 0.01173 0.0
H785 H 0.47108 0.10403 0.01612 0.0
H786 H 0.48104 0.07372 0.95348 0.0
H787 H 0.49794 0.06188 0.93075 0.0
H788 H 0.54341 0.12223 0.92863 0.0
H789 H 0.52733 0.13441 0.95247 0.0
C790 C 0.45789 0.16453 0.95644 0.0
C791 C 0.47407 0.18299 0.95364 0.0
C792 C 0.45999 0.14888 0.96366 0.0
C793 C 0.4783 0.15138 0.96811 0.0
C794 C 0.49444 0.16973 0.96516 0.0
C795 C 0.49236 0.1854 0.9581 0.0
C796 C 0.48075 0.13488 0.97568 0.0
C797 C 0.49054 0.12788 0.96329 0.0
C798 C 0.47344 0.12599 0.99481 0.0
C799 C 0.46346 0.13311 0.00893 0.0
C800 C 0.47248 0.1532 0.0175 0.0
C801 C 0.46293 0.15982 0.03068 0.0
C802 C 0.4444 0.14644 0.03555 0.0
C803 C 0.43541 0.12641 0.02729 0.0
C804 C 0.44489 0.11972 0.01408 0.0
C805 C 0.51246 0.07678 0.00636 0.0
C806 C 0.49726 0.05805 0.01042 0.0
C807 C 0.50898 0.0918 1.00009 0.0
C808 C 0.49022 0.08835 0.99743 0.0
C809 C 0.47508 0.06997 0.00233 0.0
C810 C 0.47855 0.05496 0.00876 0.0
C811 C 0.48639 0.10373 0.98899 0.0
C812 C 0.47625 0.11046 0.00114 0.0
C813 C 0.49331 0.11229 0.96951 0.0
C814 C 0.50304 0.10498 0.95508 0.0
C815 C 0.49478 0.08448 0.94847 0.0
C816 C 0.50424 0.0777 0.93537 0.0
C817 C 0.52178 0.09129 0.92827 0.0
C818 C 0.52987 0.11171 0.93425 0.0
C819 C 0.52064 0.11855 0.94768 0.0
H820 H 0.52913 0.08606 0.91814 0.0
H821 H 0.43703 0.15159 0.04576 0.0
H822 H 0.72859 0.2029 0.98182 0.0
H823 H 0.70187 0.17137 0.99099 0.0
H824 H 0.67085 0.16508 0.92955 0.0
H825 H 0.69723 0.19718 0.92102 0.0
H826 H 0.6479 0.15763 0.95786 0.0
H827 H 0.69068 0.13414 0.94332 0.0
H828 H 0.72085 0.13348 0.94555 0.0
H829 H 0.71766 0.12673 0.01352 0.0
H830 H 0.68759 0.12763 0.01177 0.0
H831 H 0.57615 0.05615 0.96741 0.0
H832 H 0.60581 0.08357 0.95621 0.0
H833 H 0.62545 0.10707 0.02274 0.0
H834 H 0.59547 0.08015 0.03409 0.0
H835 H 0.6537 0.10373 0.99065 0.0
H836 H 0.61223 0.13203 0.00354 0.0
H837 H 0.58054 0.12934 0.99901 0.0
H838 H 0.58043 0.12318 0.92996 0.0
H839 H 0.61212 0.1257 0.93413 0.0
C840 C 0.7162 0.1945 0.97015 0.0
C841 C 0.71495 0.20224 0.95065 0.0
C842 C 0.70093 0.17644 0.97534 0.0
C843 C 0.68429 0.16558 0.96089 0.0
C844 C 0.68343 0.1731 0.94103 0.0
C845 C 0.69854 0.19133 0.93605 0.0
C846 C 0.66732 0.14721 0.96709 0.0
C847 C 0.64928 0.14579 0.9647 0.0
C848 C 0.66887 0.13165 0.97629 0.0
C849 C 0.68697 0.13114 0.97745 0.0
C850 C 0.69649 0.13268 0.95878 0.0
C851 C 0.71356 0.13223 0.95995 0.0
C852 C 0.72119 0.13011 0.97968 0.0
C853 C 0.71174 0.12839 0.99826 0.0
C854 C 0.69467 0.12885 0.99718 0.0
C855 C 0.58691 0.067 0.97967 0.0
C856 C 0.5836 0.06608 0.00162 0.0
C857 C 0.60381 0.08256 0.97324 0.0
C858 C 0.61782 0.09712 0.98864 0.0
C859 C 0.61485 0.09583 0.01065 0.0
C860 C 0.59774 0.08054 0.01707 0.0
C861 C 0.63478 0.11458 0.98154 0.0
C862 C 0.65261 0.1157 0.98371 0.0
C863 C 0.63307 0.12968 0.97176 0.0
C864 C 0.61446 0.129 0.96914 0.0
C865 C 0.60542 0.13009 0.9874 0.0
C866 C 0.58749 0.12859 0.9849 0.0
C867 C 0.57849 0.12609 0.96422 0.0
C868 C 0.58745 0.12516 0.94597 0.0
C869 C 0.60542 0.12667 0.94839 0.0
H870 H 0.5646 0.12491 0.96238 0.0
H871 H 0.7344 0.12976 0.98055 0.0
H872 H 0.81778 0.52964 0.9881 0.0
H873 H 0.85037 0.5354 0.99386 0.0
H874 H 0.85854 0.54691 0.92708 0.0
H875 H 0.82588 0.54143 0.92134 0.0
H876 H 0.86678 0.51727 0.94133 0.0
H877 H 0.88315 0.58445 0.96268 0.0
H878 H 0.88002 0.61089 0.98256 0.0
H879 H 0.89109 0.59247 0.04295 0.0
H880 H 0.89401 0.56571 0.02344 0.0
H881 H 0.96119 0.533 0.9593 0.0
H882 H 0.93466 0.53832 0.94817 0.0
H883 H 0.92202 0.53896 0.01463 0.0
H884 H 0.94879 0.53423 0.02581 0.0
H885 H 0.9179 0.56608 0.9964 0.0
H886 H 0.89847 0.49754 0.97688 0.0
H887 H 0.89861 0.46865 0.95862 0.0
H888 H 0.88986 0.48634 0.89675 0.0
H889 H 0.89055 0.51589 0.91459 0.0
C890 C 0.82667 0.53375 0.97477 0.0
C891 C 0.8194 0.53512 0.95429 0.0
C892 C 0.84527 0.53709 0.97807 0.0
C893 C 0.85688 0.54164 0.96091 0.0
C894 C 0.84982 0.54348 0.94054 0.0
C895 C 0.83126 0.54047 0.93731 0.0
C896 C 0.87576 0.5429 0.96407 0.0
C897 C 0.87821 0.52824 0.95297 0.0
C898 C 0.89032 0.55682 0.97977 0.0
C899 C 0.88868 0.57298 0.99158 0.0
C900 C 0.88477 0.58593 0.9802 0.0
C901 C 0.88306 0.601 0.9914 0.0
C902 C 0.88532 0.60334 0.014 0.0
C903 C 0.88934 0.59064 0.02544 0.0
C904 C 0.89105 0.57553 0.01432 0.0
C905 C 0.95288 0.53456 0.97153 0.0
C906 C 0.957 0.53318 0.99341 0.0
C907 C 0.93765 0.53746 0.96515 0.0
C908 C 0.92612 0.53876 0.98051 0.0
C909 C 0.93067 0.53802 0.00246 0.0
C910 C 0.94596 0.53528 0.00884 0.0
C911 C 0.90891 0.5402 0.97388 0.0
C912 C 0.90671 0.55533 0.98441 0.0
C913 C 0.89442 0.52645 0.95787 0.0
C914 C 0.89491 0.50917 0.9471 0.0
C915 C 0.89698 0.49553 0.95937 0.0
C916 C 0.89691 0.47901 0.94907 0.0
C917 C 0.8944 0.47574 0.92652 0.0
C918 C 0.89202 0.48901 0.91421 0.0
C919 C 0.89234 0.5057 0.9244 0.0
H920 H 0.89413 0.46284 0.91855 0.0
H921 H 0.88399 0.61501 0.02264 0.0
H922 H 0.47666 0.29112 0.98313 0.0
H923 H 0.47126 0.31941 0.98936 0.0
H924 H 0.51949 0.35549 0.95407 0.0
H925 H 0.52505 0.32751 0.94817 0.0
H926 H 0.52259 0.3746 0.99125 0.0
H927 H 0.47239 0.33792 0.9339 0.0
H928 H 0.44332 0.3086 0.91572 0.0
H929 H 0.4114 0.30954 0.9682 0.0
H930 H 0.44037 0.33871 0.98686 0.0
H931 H 0.51651 0.4591 0.97409 0.0
H932 H 0.51328 0.42626 0.96714 0.0
H933 H 0.47093 0.40277 0.01291 0.0
H934 H 0.47422 0.43596 0.02002 0.0
H935 H 0.46271 0.37603 0.97434 0.0
H936 H 0.51427 0.41558 0.02978 0.0
H937 H 0.54389 0.44578 0.04544 0.0
H938 H 0.57401 0.43953 0.99368 0.0
H939 H 0.54451 0.40973 0.97737 0.0
C940 C 0.48587 0.30501 0.97642 0.0
C941 C 0.50139 0.30721 0.96535 0.0
C942 C 0.48278 0.32116 0.97997 0.0
C943 C 0.49501 0.33964 0.97224 0.0
C944 C 0.50998 0.34148 0.96038 0.0
C945 C 0.51315 0.32548 0.95701 0.0
C946 C 0.49324 0.35756 0.97757 0.0
C947 C 0.50951 0.3749 0.98734 0.0
C948 C 0.47604 0.35786 0.97311 0.0
C949 C 0.4586 0.34035 0.9619 0.0
C950 C 0.45921 0.33177 0.94166 0.0
C951 C 0.44275 0.3152 0.93125 0.0
C952 C 0.42554 0.30717 0.94083 0.0
C953 C 0.42475 0.31574 0.96082 0.0
C954 C 0.44119 0.33231 0.97132 0.0
C955 C 0.50658 0.44698 0.98277 0.0
C956 C 0.49605 0.45022 0.99806 0.0
C957 C 0.50461 0.42818 0.97864 0.0
C958 C 0.49211 0.41216 0.98979 0.0
C959 C 0.48072 0.41498 0.00421 0.0
C960 C 0.48265 0.43392 0.00831 0.0
C961 C 0.49222 0.39307 0.98738 0.0
C962 C 0.47568 0.37557 0.97836 0.0
C963 C 0.50926 0.3926 0.99226 0.0
C964 C 0.52711 0.41048 0.00226 0.0
C965 C 0.52717 0.42077 0.02162 0.0
C966 C 0.54395 0.43786 0.03061 0.0
C967 C 0.56082 0.44468 0.0205 0.0
C968 C 0.56095 0.43438 0.00143 0.0
C969 C 0.54419 0.41738 0.99231 0.0
H970 H 0.57381 0.45789 0.02749 0.0
H971 H 0.41281 0.29434 0.93274 0.0
H972 H 0.20221 0.68474 0.07086 0.0
H973 H 0.16979 0.65793 0.05893 0.0
H974 H 0.15438 0.70105 0.04 0.0
H975 H 0.18725 0.7282 0.05113 0.0
H976 H 0.12592 0.66468 0.06467 0.0
H977 H 0.16061 0.68267 0.00119 0.0
H978 H 0.1887 0.69126 0.98107 0.0
H979 H 0.18358 0.6345 0.991 0.0
H980 H 0.15564 0.62571 0.0115 0.0
H981 H 0.04037 0.58089 0.01085 0.0
H982 H 0.06837 0.61464 0.0173 0.0
H983 H 0.10538 0.58955 0.02089 0.0
H984 H 0.07785 0.55616 0.01391 0.0
H985 H 0.12126 0.6213 1.00021 0.0
H986 H 0.08973 0.60393 0.06575 0.0
H987 H 0.0622 0.59387 0.08712 0.0
H988 H 0.06229 0.64812 0.07623 0.0
H989 H 0.08942 0.65815 0.054 0.0
C990 C 0.192 0.68863 0.06414 0.0
C991 C 0.19752 0.70867 0.06158 0.0
C992 C 0.17342 0.67326 0.05751 0.0
C993 C 0.15977 0.67751 0.04843 0.0
C994 C 0.16475 0.6975 0.047 0.0
C995 C 0.18352 0.71298 0.05343 0.0
C996 C 0.14089 0.66075 0.03908 0.0
C997 C 0.12471 0.65542 0.05028 0.0
C998 C 0.13949 0.64849 0.02059 0.0
C999 C 0.15612 0.6536 0.00802 0.0
C1000 C 0.16557 0.67209 0.99923 0.0
C1001 C 0.18145 0.67698 0.98774 0.0
C1002 C 0.18795 0.66345 0.9848 0.0
C1003 C 0.17854 0.64497 0.9933 0.0
C1004 C 0.16267 0.64002 0.00484 0.0
C1005 C 0.05449 0.58259 0.01272 0.0
C1006 C 0.05676 0.56571 0.012 0.0
C1007 C 0.0705 0.60191 0.01652 0.0
C1008 C 0.08903 0.60469 0.0199 0.0
C1009 C 0.09129 0.58788 0.01834 0.0
C1010 C 0.07542 0.56869 0.01443 0.0
C1011 C 0.10617 0.62481 0.02602 0.0
C1012 C 0.12218 0.63076 0.01427 0.0
C1013 C 0.10742 0.63745 0.04418 0.0
C1014 C 0.09144 0.63167 0.05797 0.0
C1015 C 0.0838 0.61365 0.06776 0.0
C1016 C 0.06826 0.60795 0.08005 0.0
C1017 C 0.06051 0.62036 0.0831 0.0
C1018 C 0.06829 0.6385 0.07383 0.0
C1019 C 0.0837 0.64417 0.06132 0.0
H1020 H 0.04848 0.61593 0.09264 0.0
H1021 H 0.20025 0.66727 0.9759 0.0
H1022 H 0.30501 0.49856 0.0529 0.0
H1023 H 0.32996 0.49178 0.04266 0.0
H1024 H 0.32062 0.4558 0.09617 0.0
H1025 H 0.29579 0.46305 0.1069 0.0
H1026 H 0.35767 0.48169 0.09538 0.0
H1027 H 0.30867 0.43413 0.04363 0.0
H1028 H 0.28182 0.421 0.01514 0.0
H1029 H 0.3184 0.46309 0.97304 0.0
H1030 H 0.34543 0.47668 0.00139 0.0
H1031 H 0.43197 0.46586 0.05214 0.0
H1032 H 0.4008 0.45764 0.06424 0.0
H1033 H 0.39783 0.49896 0.0227 0.0
H1034 H 0.42837 0.5062 0.00951 0.0
H1035 H 0.36422 0.46235 0.0204 0.0
H1036 H 0.39769 0.51715 0.09129 0.0
H1037 H 0.42178 0.53021 0.12299 0.0
H1038 H 0.41369 0.47162 0.12851 0.0
H1039 H 0.38883 0.45809 0.09762 0.0
C1040 C 0.30816 0.48909 0.06244 0.0
C1041 C 0.29855 0.48149 0.08084 0.0
C1042 C 0.32231 0.48503 0.05642 0.0
C1043 C 0.32709 0.47311 0.0685 0.0
C1044 C 0.31713 0.46498 0.08654 0.0
C1045 C 0.30288 0.46902 0.09259 0.0
C1046 C 0.34356 0.47069 0.06315 0.0
C1047 C 0.3589 0.47699 0.07908 0.0
C1048 C 0.34527 0.46465 0.04189 0.0
C1049 C 0.32908 0.45649 0.02471 0.0
C1050 C 0.31097 0.44068 0.02836 0.0
C1051 C 0.29572 0.43314 0.01222 0.0
C1052 C 0.2984 0.44122 0.9923 0.0
C1053 C 0.31635 0.45684 0.98847 0.0
C1054 C 0.33166 0.46444 0.00456 0.0
C1055 C 0.42462 0.47316 0.04563 0.0
C1056 C 0.43261 0.48677 0.03 0.0
C1057 C 0.40696 0.46873 0.05286 0.0
C1058 C 0.39727 0.47828 0.0451 0.0
C1059 C 0.40514 0.4916 0.02918 0.0
C1060 C 0.42256 0.4957 0.02159 0.0
C1061 C 0.37849 0.47389 0.05247 0.0
C1062 C 0.36275 0.46649 0.03682 0.0
C1063 C 0.37629 0.47863 0.07406 0.0
C1064 C 0.39209 0.4868 0.09156 0.0
C1065 C 0.40123 0.50713 0.09915 0.0
C1066 C 0.4148 0.51455 0.11717 0.0
C1067 C 0.41945 0.50181 0.12758 0.0
C1068 C 0.41028 0.48154 0.12024 0.0
C1069 C 0.39641 0.47398 0.10252 0.0
H1070 H 0.43006 0.50761 0.14141 0.0
H1071 H 0.28657 0.43537 0.97983 0.0
H1072 H 0.54422 0.83028 0.04059 0.0
H1073 H 0.54753 0.86285 0.03463 0.0
H1074 H 0.50461 0.85232 0.07846 0.0
H1075 H 0.50094 0.81965 0.08383 0.0
H1076 H 0.49575 0.86234 0.04254 0.0
H1077 H 0.55344 0.88846 0.09025 0.0
H1078 H 0.585 0.89334 0.10296 0.0
H1079 H 0.60725 0.91853 0.04415 0.0
H1080 H 0.57574 0.91355 0.03095 0.0
H1081 H 0.50009 0.95451 0.05282 0.0
H1082 H 0.50413 0.92628 0.06066 0.0
H1083 H 0.54281 0.94001 0.01092 0.0
H1084 H 0.5389 0.96866 0.00322 0.0
H1085 H 0.55487 0.92868 0.04715 0.0
H1086 H 0.4968 0.90327 1.00043 0.0
H1087 H 0.46517 0.89868 0.98865 0.0
H1088 H 0.4435 0.87209 0.04705 0.0
H1089 H 0.4751 0.87683 0.05936 0.0
C1090 C 0.53586 0.8352 0.04929 0.0
C1091 C 0.52228 0.8225 0.06259 0.0
C1092 C 0.53774 0.85379 0.0459 0.0
C1093 C 0.5263 0.86008 0.05608 0.0
C1094 C 0.5135 0.84777 0.07029 0.0
C1095 C 0.51145 0.82916 0.07343 0.0
C1096 C 0.5263 0.87854 0.05065 0.0
C1097 C 0.50869 0.87687 0.04387 0.0
C1098 C 0.54322 0.89743 0.05161 0.0
C1099 C 0.56217 0.90043 0.05951 0.0
C1100 C 0.56502 0.89488 0.07994 0.0
C1101 C 0.58291 0.8977 0.08726 0.0
C1102 C 0.59811 0.90618 0.07435 0.0
C1103 C 0.59546 0.91192 0.05412 0.0
C1104 C 0.57759 0.90912 0.04672 0.0
C1105 C 0.50933 0.9514 0.04345 0.0
C1106 C 0.51874 0.96337 0.02703 0.0
C1107 C 0.51172 0.93536 0.04801 0.0
C1108 C 0.52342 0.93075 0.03603 0.0
C1109 C 0.53359 0.94322 0.02024 0.0
C1110 C 0.53131 0.9595 0.01581 0.0
C1111 C 0.52429 0.91243 0.03961 0.0
C1112 C 0.542 0.9141 0.04585 0.0
C1113 C 0.50744 0.89348 0.0383 0.0
C1114 C 0.48837 0.89051 0.03086 0.0
C1115 C 0.48533 0.89656 0.01082 0.0
C1116 C 0.46739 0.89391 0.00404 0.0
C1117 C 0.45233 0.88506 0.01707 0.0
C1118 C 0.45517 0.87886 0.03693 0.0
C1119 C 0.47309 0.88154 0.04382 0.0
H1120 H 0.43846 0.88305 0.01181 0.0
H1121 H 0.61195 0.90836 0.08004 0.0
H1122 H 0.94892 0.1787 0.43254 0.0
H1123 H 0.97838 0.20589 0.42111 0.0
H1124 H 1.00034 0.16577 0.41186 0.0
H1125 H 0.97145 0.13886 0.42433 0.0
H1126 H 0.02751 0.19995 0.43074 0.0
H1127 H 0.98142 0.18 0.36886 0.0
H1128 H 0.95109 0.17287 0.34915 0.0
H1129 H 0.96501 0.23351 0.36487 0.0
H1130 H 0.99533 0.24093 0.38492 0.0
H1131 H 0.10009 0.25356 0.36187 0.0
H1132 H 0.07021 0.22849 0.37504 0.0
H1133 H 0.057 0.2744 0.39332 0.0
H1134 H 0.08704 0.2996 0.38045 0.0
H1135 H 0.02562 0.23899 0.37099 0.0
H1136 H 0.07356 0.25911 0.43034 0.0
H1137 H 0.10442 0.2657 0.4478 0.0
H1138 H 0.08703 0.20366 0.43603 0.0
H1139 H 0.05632 0.1968 0.41759 0.0
C1140 C 0.96009 0.1757 0.42828 0.0
C1141 C 0.95769 0.1565 0.42922 0.0
C1142 C 0.97687 0.19123 0.42151 0.0
C1143 C 0.99152 0.18784 0.4153 0.0
C1144 C 0.98924 0.16877 0.41647 0.0
C1145 C 0.97257 0.15331 0.42338 0.0
C1146 C 0.00925 0.20409 0.4076 0.0
C1147 C 0.02706 0.20832 0.41751 0.0
C1148 C 0.00875 0.21537 0.39065 0.0
C1149 C 0.99054 0.21095 0.37859 0.0
C1150 C 0.97794 0.19177 0.36826 0.0
C1151 C 0.96076 0.18768 0.357 0.0
C1152 C 0.9561 0.20271 0.35581 0.0
C1153 C 0.96863 0.22187 0.36583 0.0
C1154 C 0.98582 0.22603 0.37714 0.0
C1155 C 0.09075 0.25827 0.36858 0.0
C1156 C 0.09581 0.27848 0.37013 0.0
C1157 C 0.07373 0.24397 0.37614 0.0
C1158 C 0.06144 0.24962 0.38521 0.0
C1159 C 0.06628 0.26975 0.38634 0.0
C1160 C 0.08343 0.2841 0.37905 0.0
C1161 C 0.04373 0.23456 0.39392 0.0
C1162 C 0.02599 0.23063 0.38425 0.0
C1163 C 0.0443 0.22343 0.41096 0.0
C1164 C 0.06269 0.22748 0.42232 0.0
C1165 C 0.07638 0.2469 0.43122 0.0
C1166 C 0.09387 0.25069 0.4413 0.0
C1167 C 0.09773 0.23513 0.44298 0.0
C1168 C 0.08407 0.21573 0.43461 0.0
C1169 C 0.06663 0.21188 0.42428 0.0
H1170 H 0.11126 0.2381 0.45078 0.0
H1171 H 0.94279 0.19952 0.34708 0.0
H1172 H 0.86249 0.79467 0.39215 0.0
H1173 H 0.83558 0.79839 0.3786 0.0
H1174 H 0.81207 0.78485 0.44007 0.0
H1175 H 0.83906 0.78155 0.45392 0.0
H1176 H 0.78458 0.76503 0.40563 0.0
H1177 H 0.83562 0.83206 0.42828 0.0
H1178 H 0.86823 0.86097 0.42888 0.0
H1179 H 0.85928 0.86346 0.36068 0.0
H1180 H 0.82669 0.83436 0.35961 0.0
H1181 H 0.71836 0.7995 0.39703 0.0
H1182 H 0.74439 0.79346 0.40805 0.0
H1183 H 0.76945 0.81392 0.34846 0.0
H1184 H 0.74371 0.82052 0.33772 0.0
H1185 H 0.7962 0.82948 0.38059 0.0
H1186 H 0.74505 0.76333 0.35756 0.0
H1187 H 0.71256 0.7341 0.3563 0.0
H1188 H 0.72161 0.72934 0.42389 0.0
H1189 H 0.75407 0.75872 0.42563 0.0
C1190 C 0.85166 0.7926 0.40284 0.0
C1191 C 0.853 0.78783 0.42414 0.0
C1192 C 0.83626 0.79465 0.39503 0.0
C1193 C 0.82189 0.79202 0.40838 0.0
C1194 C 0.82295 0.78686 0.42947 0.0
C1195 C 0.83838 0.78489 0.43732 0.0
C1196 C 0.80594 0.79504 0.40057 0.0
C1197 C 0.78708 0.77918 0.40035 0.0
C1198 C 0.80925 0.81333 0.39319 0.0
C1199 C 0.82879 0.8309 0.39383 0.0
C1200 C 0.84066 0.83867 0.41338 0.0
C1201 C 0.85913 0.85511 0.4138 0.0
C1202 C 0.86584 0.86401 0.39481 0.0
C1203 C 0.85407 0.85653 0.37537 0.0
C1204 C 0.8356 0.84007 0.37484 0.0
C1205 C 0.72937 0.80257 0.38625 0.0
C1206 C 0.72901 0.81037 0.36649 0.0
C1207 C 0.7442 0.79905 0.39251 0.0
C1208 C 0.75878 0.80295 0.37895 0.0
C1209 C 0.75837 0.81075 0.35918 0.0
C1210 C 0.74364 0.81445 0.35302 0.0
C1211 C 0.77472 0.79947 0.38565 0.0
C1212 C 0.79362 0.81527 0.38572 0.0
C1213 C 0.77144 0.78106 0.39276 0.0
C1214 C 0.75194 0.76335 0.39177 0.0
C1215 C 0.74006 0.75614 0.3722 0.0
C1216 C 0.72166 0.73953 0.37139 0.0
C1217 C 0.71501 0.7299 0.39002 0.0
C1218 C 0.72677 0.73683 0.40948 0.0
C1219 C 0.74518 0.75345 0.41038 0.0
H1220 H 0.70075 0.71704 0.38936 0.0
H1221 H 0.88015 0.87673 0.39518 0.0
H1222 H 0.21327 0.05824 0.36927 0.0
H1223 H 0.2087 0.0255 0.35659 0.0
H1224 H 0.20761 0.01064 0.42256 0.0
H1225 H 0.21238 0.04325 0.43524 0.0
H1226 H 0.22811 0.99899 0.40221 0.0
H1227 H 0.16626 0.99255 0.38767 0.0
H1228 H 0.14324 1.00156 0.37201 0.0
H1229 H 0.15616 0.9916 0.30808 0.0
H1230 H 0.17946 0.98279 0.32339 0.0
H1231 H 0.15862 0.8878 0.36308 0.0
H1232 H 0.165 0.92176 0.37144 0.0
H1233 H 0.22226 0.9452 0.35266 0.0
H1234 H 0.2161 0.91118 0.34444 0.0
H1235 H 0.17424 0.95285 0.34824 0.0
H1236 H 0.25216 0.98736 0.38635 0.0
H1237 H 0.27274 0.97683 0.40541 0.0
H1238 H 0.22332 0.92794 0.42801 0.0
H1239 H 0.20251 0.93835 0.40934 0.0
C1240 C 0.21202 0.04794 0.38102 0.0
C1241 C 0.21328 0.05337 0.40325 0.0
C1242 C 0.2094 0.02924 0.37378 0.0
C1243 C 0.20769 0.0155 0.38861 0.0
C1244 C 0.20903 0.02098 0.41079 0.0
C1245 C 0.21178 0.03967 0.41803 0.0
C1246 C 0.20425 0.9953 0.38122 0.0
C1247 C 0.2164 0.98898 0.3903 0.0
C1248 C 0.1888 0.98203 0.36593 0.0
C1249 C 0.17475 0.98723 0.35669 0.0
C1250 C 0.16429 0.99243 0.37028 0.0
C1251 C 0.15118 0.99748 0.36147 0.0
C1252 C 0.14828 0.99721 0.33907 0.0
C1253 C 0.15845 0.99184 0.32543 0.0
C1254 C 0.1716 0.98681 0.33416 0.0
C1255 C 0.17257 0.90013 0.36061 0.0
C1256 C 0.18688 0.89669 0.35317 0.0
C1257 C 0.17616 0.91958 0.36533 0.0
C1258 C 0.19414 0.93605 0.36284 0.0
C1259 C 0.20833 0.93272 0.35495 0.0
C1260 C 0.20477 0.91324 0.3502 0.0
C1261 C 0.19812 0.95663 0.3692 0.0
C1262 C 0.1861 0.963 0.35993 0.0
C1263 C 0.21337 0.96976 0.38474 0.0
C1264 C 0.22578 0.96351 0.39623 0.0
C1265 C 0.24571 0.9744 0.39544 0.0
C1266 C 0.25741 0.96845 0.40617 0.0
C1267 C 0.24934 0.95168 0.41784 0.0
C1268 C 0.22955 0.94087 0.41889 0.0
C1269 C 0.2178 0.94678 0.40821 0.0
H1270 H 0.25842 0.94709 0.42612 0.0
H1271 H 0.13812 1.00112 0.33227 0.0
H1272 H 0.48428 0.6324 0.28928 0.0
H1273 H 0.51118 0.66504 0.30315 0.0
H1274 H 0.54905 0.64099 0.30252 0.0
H1275 H 0.52201 0.60801 0.28907 0.0
H1276 H 0.55638 0.66641 0.33937 0.0
H1277 H 0.54766 0.66717 0.26237 0.0
H1278 H 0.52945 0.66302 0.22749 0.0
H1279 H 0.5165 0.7076 0.25103 0.0
H1280 H 0.53443 0.71183 0.28617 0.0
H1281 H 0.64363 0.75963 0.34539 0.0
H1282 H 0.61671 0.72583 0.33609 0.0
H1283 H 0.57844 0.7492 0.32908 0.0
H1284 H 0.60536 0.7831 0.33778 0.0
H1285 H 0.57147 0.72361 0.29624 0.0
H1286 H 0.57974 0.72314 0.37308 0.0
H1287 H 0.59744 0.72738 0.40837 0.0
H1288 H 0.61062 0.68266 0.38599 0.0
H1289 H 0.59321 0.67835 0.35045 0.0
C1290 C 0.49825 0.63391 0.29247 0.0
C1291 C 0.50099 0.61757 0.28809 0.0
C1292 C 0.51365 0.65265 0.3002 0.0
C1293 C 0.53216 0.65551 0.30361 0.0
C1294 C 0.53489 0.63912 0.29992 0.0
C1295 C 0.51946 0.62034 0.29212 0.0
C1296 C 0.54869 0.67576 0.31037 0.0
C1297 C 0.55986 0.67889 0.32983 0.0
C1298 C 0.55294 0.69212 0.29815 0.0
C1299 C 0.54222 0.68966 0.27698 0.0
C1300 C 0.5408 0.67597 0.26017 0.0
C1301 C 0.53055 0.67362 0.24034 0.0
C1302 C 0.52176 0.68498 0.23707 0.0
C1303 C 0.52326 0.69876 0.25361 0.0
C1304 C 0.53349 0.70116 0.27347 0.0
C1305 C 0.62946 0.75759 0.34212 0.0
C1306 C 0.62668 0.77412 0.34237 0.0
C1307 C 0.61404 0.7382 0.33687 0.0
C1308 C 0.59546 0.73489 0.33208 0.0
C1309 C 0.59262 0.75135 0.33269 0.0
C1310 C 0.60805 0.77074 0.33774 0.0
C1311 C 0.57914 0.71442 0.32543 0.0
C1312 C 0.56802 0.7112 0.30588 0.0
C1313 C 0.57489 0.69804 0.33766 0.0
C1314 C 0.58533 0.70057 0.35903 0.0
C1315 C 0.58654 0.71432 0.37562 0.0
C1316 C 0.59649 0.71672 0.39568 0.0
C1317 C 0.60519 0.70533 0.3994 0.0
C1318 C 0.6039 0.69149 0.38308 0.0
C1319 C 0.59397 0.68905 0.36298 0.0
H1320 H 0.61289 0.70721 0.41494 0.0
H1321 H 0.51386 0.68317 0.2217 0.0
H1322 H 0.39126 0.86829 0.29047 0.0
H1323 H 0.36146 0.86432 0.30261 0.0
H1324 H 0.34495 0.87276 0.23869 0.0
H1325 H 0.37444 0.87617 0.22619 0.0
H1326 H 0.3389 0.89454 0.27105 0.0
H1327 H 0.32449 0.82745 0.2538 0.0
H1328 H 0.32932 0.79854 0.25485 0.0
H1329 H 0.32511 0.79923 0.32337 0.0
H1330 H 0.3205 0.82835 0.32279 0.0
H1331 H 0.24233 0.86309 0.28948 0.0
H1332 H 0.27115 0.86654 0.27485 0.0
H1333 H 0.28798 0.85257 0.33554 0.0
H1334 H 0.25891 0.84869 0.35008 0.0
H1335 H 0.2932 0.83298 0.30282 0.0
H1336 H 0.30949 0.90141 0.32028 0.0
H1337 H 0.30468 0.93036 0.31903 0.0
H1338 H 0.3053 0.927 0.24995 0.0
H1339 H 0.30988 0.89787 0.25078 0.0
C1340 C 0.38124 0.86912 0.2789 0.0
C1341 C 0.3853 0.87249 0.25729 0.0
C1342 C 0.36423 0.86692 0.2859 0.0
C1343 C 0.35092 0.86808 0.27151 0.0
C1344 C 0.35505 0.87185 0.25008 0.0
C1345 C 0.37199 0.87391 0.24301 0.0
C1346 C 0.33267 0.86532 0.27886 0.0
C1347 C 0.32878 0.88098 0.27775 0.0
C1348 C 0.3196 0.84774 0.28787 0.0
C1349 C 0.32232 0.8302 0.28828 0.0
C1350 C 0.32474 0.82154 0.26912 0.0
C1351 C 0.32741 0.80509 0.26963 0.0
C1352 C 0.32756 0.79708 0.28917 0.0
C1353 C 0.325 0.80547 0.30825 0.0
C1354 C 0.32234 0.82194 0.30784 0.0
C1355 C 0.25225 0.86088 0.29973 0.0
C1356 C 0.24851 0.85581 0.32098 0.0
C1357 C 0.26873 0.86287 0.29136 0.0
C1358 C 0.28189 0.86005 0.30416 0.0
C1359 C 0.27807 0.85484 0.32536 0.0
C1360 C 0.26152 0.85273 0.33369 0.0
C1361 C 0.29958 0.86237 0.29545 0.0
C1362 C 0.30332 0.84656 0.29617 0.0
C1363 C 0.31252 0.87983 0.2861 0.0
C1364 C 0.30988 0.89739 0.28558 0.0
C1365 C 0.30848 0.90678 0.30482 0.0
C1366 C 0.30581 0.92322 0.30418 0.0
C1367 C 0.30465 0.93049 0.28442 0.0
C1368 C 0.30619 0.92135 0.26525 0.0
C1369 C 0.30885 0.90489 0.26579 0.0
H1370 H 0.30258 0.94322 0.28396 0.0
H1371 H 0.32964 0.78435 0.28953 0.0
H1372 H 0.10377 0.49142 0.30476 0.0
H1373 H 0.10768 0.46376 0.31656 0.0
H1374 H 0.15698 0.48312 0.28043 0.0
H1375 H 0.15306 0.5107 0.26877 0.0
H1376 H 0.13346 0.44291 0.27418 0.0
H1377 H 0.16288 0.49324 0.33392 0.0
H1378 H 0.16484 0.51754 0.36265 0.0
H1379 H 0.11915 0.47025 0.39207 0.0
H1380 H 0.11672 0.44568 0.36328 0.0
H1381 H 0.17952 0.39502 0.31891 0.0
H1382 H 0.17113 0.41977 0.30849 0.0
H1383 H 0.123 0.39459 0.3465 0.0
H1384 H 0.13135 0.3697 0.3573 0.0
H1385 H 0.14315 0.43581 0.35198 0.0
H1386 H 0.11637 0.385 0.29244 0.0
H1387 H 0.11663 0.36176 0.26399 0.0
H1388 H 0.15954 0.41116 0.23411 0.0
H1389 H 0.15992 0.43473 0.26271 0.0
C1390 C 0.11538 0.48965 0.29939 0.0
C1391 C 0.12816 0.50305 0.28596 0.0
C1392 C 0.11765 0.47395 0.30615 0.0
C1393 C 0.1327 0.47143 0.29947 0.0
C1394 C 0.14527 0.48474 0.28576 0.0
C1395 C 0.14308 0.50048 0.27917 0.0
C1396 C 0.13551 0.45507 0.30682 0.0
C1397 C 0.13571 0.44144 0.29118 0.0
C1398 C 0.1381 0.45292 0.32902 0.0
C1399 C 0.13944 0.46766 0.34628 0.0
C1400 C 0.15311 0.48804 0.34638 0.0
C1401 C 0.15433 0.50186 0.3627 0.0
C1402 C 0.14208 0.49546 0.37913 0.0
C1403 C 0.1286 0.4752 0.37929 0.0
C1404 C 0.12729 0.46132 0.36298 0.0
C1405 C 0.16726 0.39481 0.32528 0.0
C1406 C 0.15616 0.38041 0.33904 0.0
C1407 C 0.16243 0.4089 0.31915 0.0
C1408 C 0.14639 0.40892 0.3265 0.0
C1409 C 0.13543 0.39481 0.34057 0.0
C1410 C 0.14019 0.38058 0.34667 0.0
C1411 C 0.14121 0.42373 0.31933 0.0
C1412 C 0.14063 0.4371 0.33498 0.0
C1413 C 0.13847 0.42578 0.29711 0.0
C1414 C 0.13822 0.41164 0.2798 0.0
C1415 C 0.12597 0.39092 0.2799 0.0
C1416 C 0.126 0.37769 0.26374 0.0
C1417 C 0.13807 0.38499 0.24724 0.0
C1418 C 0.15017 0.40554 0.24689 0.0
C1419 C 0.15028 0.41885 0.26308 0.0
H1420 H 0.13808 0.37472 0.23475 0.0
H1421 H 0.14306 0.50618 0.39177 0.0
H1422 H 0.36014 0.5286 0.26834 0.0
H1423 H 0.333 0.49676 0.27509 0.0
H1424 H 0.37132 0.48052 0.30695 0.0
H1425 H 0.39864 0.51311 0.30132 0.0
H1426 H 0.3193 0.45947 0.26572 0.0
H1427 H 0.35001 0.45302 0.34855 0.0
H1428 H 0.37459 0.47443 0.37826 0.0
H1429 H 0.36911 0.52453 0.36178 0.0
H1430 H 0.34436 0.50336 0.33216 0.0
H1431 H 0.2445 0.37217 0.30514 0.0
H1432 H 0.27528 0.39693 0.29348 0.0
H1433 H 0.27923 0.44069 0.34262 0.0
H1434 H 0.24906 0.41571 0.35493 0.0
H1435 H 0.31205 0.44462 0.34231 0.0
H1436 H 0.2685 0.4438 0.28376 0.0
H1437 H 0.2428 0.42876 0.25388 0.0
H1438 H 0.27016 0.39963 0.22413 0.0
H1439 H 0.2966 0.41538 0.25342 0.0
C1440 C 0.36285 0.51828 0.27679 0.0
C1441 C 0.38155 0.52363 0.28475 0.0
C1442 C 0.34728 0.49992 0.28043 0.0
C1443 C 0.35 0.48631 0.29192 0.0
C1444 C 0.36879 0.49093 0.29845 0.0
C1445 C 0.38443 0.50949 0.29502 0.0
C1446 C 0.33299 0.46818 0.2983 0.0
C1447 C 0.31784 0.45611 0.28246 0.0
C1448 C 0.33081 0.46385 0.32016 0.0
C1449 C 0.34555 0.47668 0.338 0.0
C1450 C 0.35405 0.4686 0.35131 0.0
C1451 C 0.368 0.48069 0.36813 0.0
C1452 C 0.37346 0.50085 0.37185 0.0
C1453 C 0.36493 0.50894 0.35883 0.0
C1454 C 0.35095 0.49691 0.34202 0.0
C1455 C 0.25204 0.38706 0.31348 0.0
C1456 C 0.24446 0.39204 0.33096 0.0
C1457 C 0.26954 0.40129 0.30667 0.0
C1458 C 0.27958 0.42085 0.31696 0.0
C1459 C 0.27191 0.42572 0.33445 0.0
C1460 C 0.25462 0.41145 0.34146 0.0
C1461 C 0.29812 0.43631 0.30983 0.0
C1462 C 0.31363 0.44774 0.32552 0.0
C1463 C 0.30039 0.44056 0.28798 0.0
C1464 C 0.28431 0.43049 0.27085 0.0
C1465 C 0.26894 0.43407 0.27091 0.0
C1466 C 0.25428 0.42547 0.25405 0.0
C1467 C 0.25462 0.41293 0.23728 0.0
C1468 C 0.26984 0.40924 0.23719 0.0
C1469 C 0.28476 0.41815 0.25379 0.0
H1470 H 0.24321 0.40622 0.22428 0.0
H1471 H 0.38427 0.51019 0.38486 0.0
H1472 H 0.47233 0.83814 0.30762 0.0
H1473 H 0.50495 0.84511 0.31719 0.0
H1474 H 0.5201 0.86425 0.25381 0.0
H1475 H 0.48736 0.85754 0.24427 0.0
H1476 H 0.52954 0.83483 0.26706 0.0
H1477 H 0.5388 0.89847 0.29345 0.0
H1478 H 0.53124 0.92142 0.31382 0.0
H1479 H 0.53738 0.89839 0.37312 0.0
H1480 H 0.5447 0.87508 0.35307 0.0
H1481 H 0.62595 0.8603 0.29555 0.0
H1482 H 0.5984 0.86339 0.28281 0.0
H1483 H 0.57708 0.85119 0.34554 0.0
H1484 H 0.60462 0.84823 0.35834 0.0
H1485 H 0.57276 0.88065 0.32968 0.0
H1486 H 0.55813 0.81452 0.30504 0.0
H1487 H 0.56425 0.7895 0.28682 0.0
H1488 H 0.56666 0.81495 0.22665 0.0
H1489 H 0.56067 0.84023 0.24458 0.0
C1490 C 0.48271 0.84411 0.29585 0.0
C1491 C 0.47739 0.84734 0.27523 0.0
C1492 C 0.50133 0.84811 0.30133 0.0
C1493 C 0.51496 0.85523 0.28622 0.0
C1494 C 0.5098 0.8588 0.2657 0.0
C1495 C 0.49119 0.8551 0.26032 0.0
C1496 C 0.53419 0.85781 0.29171 0.0
C1497 C 0.53922 0.84521 0.2804 0.0
C1498 C 0.54651 0.87087 0.30957 0.0
C1499 C 0.54216 0.88492 0.32172 0.0
C1500 C 0.53838 0.89818 0.31081 0.0
C1501 C 0.53417 0.91128 0.32231 0.0
C1502 C 0.53379 0.91134 0.34474 0.0
C1503 C 0.53767 0.89833 0.35574 0.0
C1504 C 0.54188 0.88518 0.34432 0.0
C1505 C 0.61547 0.85848 0.30665 0.0
C1506 C 0.61736 0.85398 0.32791 0.0
C1507 C 0.59971 0.86018 0.29935 0.0
C1508 C 0.58558 0.85736 0.31317 0.0
C1509 C 0.58781 0.85347 0.3346 0.0
C1510 C 0.6035 0.85171 0.34188 0.0
C1511 C 0.56804 0.85758 0.30513 0.0
C1512 C 0.56328 0.87059 0.31604 0.0
C1513 C 0.5558 0.84466 0.28713 0.0
C1514 C 0.55915 0.82938 0.27618 0.0
C1515 C 0.56007 0.81484 0.28795 0.0
C1516 C 0.56348 0.8006 0.27767 0.0
C1517 C 0.56586 0.80065 0.25561 0.0
C1518 C 0.56479 0.81492 0.24374 0.0
C1519 C 0.56136 0.8292 0.25394 0.0
H1520 H 0.56847 0.78958 0.24775 0.0
H1521 H 0.53053 0.9215 0.35361 0.0
H1522 H 0.18503 0.64912 0.2897 0.0
H1523 H 0.18145 0.67827 0.29658 0.0
H1524 H 0.12743 0.64164 0.32205 0.0
H1525 H 0.13107 0.61217 0.31542 0.0
H1526 H 0.12882 0.6724 0.29531 0.0
H1527 H 0.16261 0.66595 0.35726 0.0
H1528 H 0.18713 0.66069 0.37607 0.0
H1529 H 0.23151 0.71336 0.35214 0.0
H1530 H 0.20724 0.71876 0.33289 0.0
H1531 H 0.13506 0.7624 0.34465 0.0
H1532 H 0.13016 0.72857 0.33868 0.0
H1533 H 0.18725 0.75299 0.31906 0.0
H1534 H 0.19235 0.78659 0.32515 0.0
H1535 H 0.1805 0.72571 0.34665 0.0
H1536 H 0.14757 0.73074 0.28229 0.0
H1537 H 0.12372 0.73617 0.26212 0.0
H1538 H 0.07838 0.68679 0.28953 0.0
H1539 H 0.102 0.68125 0.31012 0.0
C1540 C 0.17231 0.64719 0.29666 0.0
C1541 C 0.1585 0.62839 0.30239 0.0
C1542 C 0.17025 0.66386 0.30049 0.0
C1543 C 0.15433 0.66218 0.31014 0.0
C1544 C 0.13986 0.64325 0.31464 0.0
C1545 C 0.14194 0.62644 0.31082 0.0
C1546 C 0.15384 0.68058 0.31687 0.0
C1547 C 0.13986 0.68393 0.30685 0.0
C1548 C 0.16843 0.69571 0.33171 0.0
C1549 C 0.18309 0.69267 0.34351 0.0
C1550 C 0.1776 0.67633 0.35589 0.0
C1551 C 0.19145 0.67333 0.36664 0.0
C1552 C 0.21087 0.68666 0.36527 0.0
C1553 C 0.21646 0.70305 0.35318 0.0
C1554 C 0.20266 0.70609 0.34237 0.0
C1555 C 0.14657 0.76056 0.33908 0.0
C1556 C 0.16412 0.77729 0.33546 0.0
C1557 C 0.14371 0.74119 0.33558 0.0
C1558 C 0.15831 0.73821 0.32832 0.0
C1559 C 0.17579 0.75489 0.32474 0.0
C1560 C 0.17866 0.77415 0.32821 0.0
C1561 C 0.15577 0.71787 0.32467 0.0
C1562 C 0.16923 0.71412 0.33534 0.0
C1563 C 0.14076 0.70249 0.31038 0.0
C1564 C 0.12656 0.70574 0.29794 0.0
C1565 C 0.13252 0.72115 0.28415 0.0
C1566 C 0.11905 0.72423 0.27262 0.0
C1567 C 0.09955 0.71188 0.27459 0.0
C1568 C 0.09349 0.69638 0.28805 0.0
C1569 C 0.10691 0.69325 0.29965 0.0
H1570 H 0.08913 0.71428 0.26565 0.0
H1571 H 0.22157 0.68431 0.37361 0.0
H1572 H 0.85377 0.05234 0.39603 0.0
H1573 H 0.82091 0.02499 0.38534 0.0
H1574 H 0.83583 0.98277 0.4088 0.0
H1575 H 0.86824 0.00984 0.42018 0.0
H1576 H 0.81988 0.97481 0.364 0.0
H1577 H 0.80863 0.99153 0.43617 0.0
H1578 H 0.80795 0.01425 0.46497 0.0
H1579 H 0.76908 0.02314 0.42367 0.0
H1580 H 0.76975 1.00067 0.3945 0.0
H1581 H 0.74077 0.88105 0.3658 0.0
H1582 H 0.76896 0.91364 0.37381 0.0
H1583 H 0.7358 0.94173 0.35871 0.0
H1584 H 0.70697 0.90862 0.35064 0.0
H1585 H 0.7595 0.96048 0.39463 0.0
H1586 H 0.76748 0.94134 0.32383 0.0
H1587 H 0.76789 0.91904 0.29432 0.0
H1588 H 0.81286 0.91609 0.3308 0.0
H1589 H 0.81255 0.93814 0.36066 0.0
C1590 C 0.84992 0.03729 0.39938 0.0
C1591 C 0.86376 0.03326 0.40864 0.0
C1592 C 0.83117 0.02169 0.39316 0.0
C1593 C 0.82604 1.00186 0.39608 0.0
C1594 C 0.83957 0.99795 0.4062 0.0
C1595 C 0.85813 0.01346 0.41258 0.0
C1596 C 0.80712 0.98484 0.38734 0.0
C1597 C 0.80666 0.97163 0.37071 0.0
C1598 C 0.78983 0.98117 0.39554 0.0
C1599 C 0.78945 0.99465 0.41306 0.0
C1600 C 0.8001 0.9985 0.43315 0.0
C1601 C 0.79968 0.01129 0.44956 0.0
C1602 C 0.78854 0.02019 0.44613 0.0
C1603 C 0.77774 0.01627 0.42629 0.0
C1604 C 0.77813 0.00351 0.40982 0.0
C1605 C 0.7393 0.89405 0.364 0.0
C1606 C 0.72151 0.89211 0.35737 0.0
C1607 C 0.75557 0.9128 0.36859 0.0
C1608 C 0.75464 0.93023 0.36664 0.0
C1609 C 0.7369 0.92848 0.36025 0.0
C1610 C 0.72046 0.90956 0.35554 0.0
C1611 C 0.77233 0.95006 0.37166 0.0
C1612 C 0.7726 0.96382 0.38755 0.0
C1613 C 0.78951 0.95444 0.36257 0.0
C1614 C 0.78993 0.94135 0.34453 0.0
C1615 C 0.77739 0.93586 0.3256 0.0
C1616 C 0.77762 0.92327 0.30881 0.0
C1617 C 0.79038 0.91614 0.31069 0.0
C1618 C 0.80299 0.92163 0.32935 0.0
C1619 C 0.80282 0.93421 0.3462 0.0
H1620 H 0.79052 0.90638 0.29768 0.0
H1621 H 0.78823 0.03008 0.45885 0.0
H1622 H 0.96645 0.79991 0.43949 0.0
H1623 H 0.99173 0.79365 0.42814 0.0
H1624 H 0.00329 0.83423 0.37883 0.0
H1625 H 0.97801 0.84025 0.38982 0.0
H1626 H 0.00318 0.80084 0.36359 0.0
H1627 H 0.03048 0.84875 0.42695 0.0
H1628 H 0.03284 0.86067 0.46518 0.0
H1629 H 0.03913 0.812 0.48535 0.0
H1630 H 0.03652 0.79961 0.4472 0.0
H1631 H 0.09748 0.83546 0.3387 0.0
H1632 H 0.06748 0.83108 0.35054 0.0
H1633 H 0.06769 0.79201 0.39724 0.0
H1634 H 0.09817 0.79688 0.3858 0.0
H1635 H 0.05953 0.81873 0.41517 0.0
H1636 H 0.03619 0.77312 0.35181 0.0
H1637 H 0.03459 0.76166 0.31359 0.0
H1638 H 0.02109 0.80563 0.29338 0.0
H1639 H 0.02289 0.81757 0.33148 0.0
C1640 C 0.97426 0.80728 0.42607 0.0
C1641 C 0.97037 0.82071 0.41567 0.0
C1642 C 0.98876 0.80381 0.4197 0.0
C1643 C 0.99954 0.81364 0.40278 0.0
C1644 C 0.99522 0.82651 0.39196 0.0
C1645 C 0.98085 0.83006 0.39837 0.0
C1646 C 0.0157 0.81111 0.39649 0.0
C1647 C 0.01554 0.80481 0.37485 0.0
C1648 C 0.03157 0.8157 0.41132 0.0
C1649 C 0.033 0.82308 0.43423 0.0
C1650 C 0.03215 0.84046 0.43954 0.0
C1651 C 0.03358 0.84733 0.46119 0.0
C1652 C 0.03605 0.83705 0.47769 0.0
C1653 C 0.03715 0.81991 0.47256 0.0
C1654 C 0.03569 0.81296 0.45093 0.0
C1655 C 0.09108 0.82584 0.35141 0.0
C1656 C 0.10008 0.81646 0.36132 0.0
C1657 C 0.07388 0.82326 0.3581 0.0
C1658 C 0.0652 0.81103 0.37464 0.0
C1659 C 0.07414 0.80154 0.38449 0.0
C1660 C 0.09147 0.80425 0.37789 0.0
C1661 C 0.04722 0.80895 0.38213 0.0
C1662 C 0.04704 0.81438 0.40398 0.0
C1663 C 0.03101 0.80353 0.3675 0.0
C1664 C 0.02979 0.79632 0.34453 0.0
C1665 C 0.03301 0.78044 0.33922 0.0
C1666 C 0.03205 0.77385 0.31757 0.0
C1667 C 0.02777 0.78293 0.30107 0.0
C1668 C 0.02441 0.79861 0.30618 0.0
C1669 C 0.02537 0.80528 0.32781 0.0
H1670 H 0.02704 0.7778 0.28432 0.0
H1671 H 0.03718 0.84241 0.49444 0.0
H1672 H 0.20352 0.15632 0.37007 0.0
H1673 H 0.20648 0.18912 0.36695 0.0
H1674 H 0.17351 0.18086 0.42166 0.0
H1675 H 0.16984 0.14773 0.42399 0.0
H1676 H 0.15998 0.19272 0.3923 0.0
H1677 H 0.22368 0.21605 0.42283 0.0
H1678 H 0.25544 0.21889 0.42642 0.0
H1679 H 0.26631 0.24089 0.36384 0.0
H1680 H 0.2345 0.23793 0.35974 0.0
H1681 H 0.16932 0.28777 0.39734 0.0
H1682 H 0.17402 0.26037 0.4072 0.0
H1683 H 0.20334 0.26486 0.35005 0.0
H1684 H 0.19966 0.29323 0.34087 0.0
H1685 H 0.21933 0.25565 0.38222 0.0
H1686 H 0.15317 0.23032 0.35287 0.0
H1687 H 0.12232 0.22955 0.35282 0.0
H1688 H 0.11713 0.21265 0.4178 0.0
H1689 H 0.14796 0.21348 0.41826 0.0
C1690 C 0.19727 0.16177 0.38164 0.0
C1691 C 0.18655 0.14967 0.39732 0.0
C1692 C 0.19899 0.18053 0.37992 0.0
C1693 C 0.19035 0.18766 0.39418 0.0
C1694 C 0.18026 0.17576 0.4104 0.0
C1695 C 0.17826 0.1569 0.41184 0.0
C1696 C 0.19054 0.20674 0.39128 0.0
C1697 C 0.17305 0.20652 0.39044 0.0
C1698 C 0.20748 0.22479 0.3885 0.0
C1699 C 0.22662 0.22658 0.39089 0.0
C1700 C 0.23278 0.22134 0.40975 0.0
C1701 C 0.2508 0.223 0.41189 0.0
C1702 C 0.26286 0.23001 0.39534 0.0
C1703 C 0.25694 0.23543 0.37663 0.0
C1704 C 0.23892 0.23379 0.3744 0.0
C1705 C 0.17694 0.28303 0.387 0.0
C1706 C 0.1839 0.29238 0.36817 0.0
C1707 C 0.17955 0.2673 0.3926 0.0
C1708 C 0.18849 0.26006 0.37901 0.0
C1709 C 0.19625 0.27004 0.3607 0.0
C1710 C 0.19411 0.2862 0.35542 0.0
C1711 C 0.18882 0.2415 0.38321 0.0
C1712 C 0.20634 0.24181 0.38418 0.0
C1713 C 0.17195 0.22357 0.38646 0.0
C1714 C 0.15292 0.22208 0.38565 0.0
C1715 C 0.14542 0.22641 0.36712 0.0
C1716 C 0.12794 0.226 0.36703 0.0
C1717 C 0.11777 0.2211 0.38531 0.0
C1718 C 0.12499 0.21645 0.40365 0.0
C1719 C 0.14244 0.21686 0.40382 0.0
H1720 H 0.1043 0.22088 0.38526 0.0
H1721 H 0.27681 0.23129 0.39703 0.0
H1722 H 0.62427 0.5076 0.77987 0.0
H1723 H 0.65396 0.53427 0.76846 0.0
H1724 H 0.63702 0.50701 0.70283 0.0
H1725 H 0.60677 0.48073 0.7138 0.0
H1726 H 0.67503 0.51706 0.71978 0.0
H1727 H 0.63538 0.54694 0.7129 0.0
H1728 H 0.61368 0.55811 0.72576 0.0
H1729 H 0.6567 0.59732 0.77627 0.0
H1730 H 0.67857 0.58616 0.76389 0.0
H1731 H 0.74952 0.59278 0.669 0.0
H1732 H 0.71858 0.56755 0.67948 0.0
H1733 H 0.72876 0.60329 0.7397 0.0
H1734 H 0.7594 0.62905 0.72867 0.0
H1735 H 0.6937 0.58867 0.72574 0.0
H1736 H 0.73166 0.55764 0.73727 0.0
H1737 H 0.75441 0.54671 0.72756 0.0
H1738 H 0.71572 0.50957 0.67286 0.0
H1739 H 0.69294 0.52058 0.6821 0.0
C1740 C 0.62655 0.50743 0.7629 0.0
C1741 C 0.61295 0.4919 0.74778 0.0
C1742 C 0.64366 0.52266 0.75645 0.0
C1743 C 0.64768 0.52262 0.73481 0.0
C1744 C 0.63421 0.50726 0.71964 0.0
C1745 C 0.61696 0.49217 0.726 0.0
C1746 C 0.66619 0.53832 0.72815 0.0
C1747 C 0.67903 0.53269 0.72077 0.0
C1748 C 0.67165 0.55877 0.7302 0.0
C1749 C 0.65855 0.56556 0.7376 0.0
C1750 C 0.64016 0.55781 0.72687 0.0
C1751 C 0.62783 0.56417 0.73405 0.0
C1752 C 0.63379 0.57837 0.75186 0.0
C1753 C 0.6521 0.58629 0.76249 0.0
C1754 C 0.66447 0.57997 0.75539 0.0
C1755 C 0.74511 0.59526 0.68444 0.0
C1756 C 0.75682 0.61285 0.69801 0.0
C1757 C 0.72748 0.58073 0.69055 0.0
C1758 C 0.72139 0.5832 0.71063 0.0
C1759 C 0.73306 0.60094 0.72413 0.0
C1760 C 0.75058 0.61566 0.71784 0.0
C1761 C 0.70271 0.56749 0.71731 0.0
C1762 C 0.6898 0.57307 0.72472 0.0
C1763 C 0.6973 0.547 0.71573 0.0
C1764 C 0.7108 0.54018 0.71017 0.0
C1765 C 0.72816 0.54733 0.72304 0.0
C1766 C 0.74101 0.54108 0.71766 0.0
C1767 C 0.73655 0.52753 0.69954 0.0
C1768 C 0.71918 0.52012 0.68684 0.0
C1769 C 0.70629 0.52634 0.69216 0.0
H1770 H 0.74652 0.52271 0.69539 0.0
H1771 H 0.62423 0.58328 0.75739 0.0
H1772 H 0.5309 0.1571 0.76058 0.0
H1773 H 0.50222 0.15761 0.74667 0.0
H1774 H 0.4731 0.09395 0.73009 0.0
H1775 H 0.50163 0.09324 0.74456 0.0
H1776 H 0.47513 0.13016 0.69755 0.0
H1777 H 0.45334 0.09279 0.76197 0.0
H1778 H 0.45908 0.08876 0.80023 0.0
H1779 H 0.46868 0.14743 0.81877 0.0
H1780 H 0.46333 0.15191 0.78049 0.0
H1781 H 0.38353 0.12013 0.67241 0.0
H1782 H 0.40892 0.1129 0.68309 0.0
H1783 H 0.42841 0.15748 0.73762 0.0
H1784 H 0.4027 0.16411 0.72747 0.0
H1785 H 0.43027 0.12764 0.75018 0.0
H1786 H 0.45082 0.16554 0.68854 0.0
H1787 H 0.44828 0.17319 0.65092 0.0
H1788 H 0.44397 0.11788 0.62739 0.0
H1789 H 0.44625 0.10979 0.66489 0.0
C1790 C 0.51845 0.14325 0.75375 0.0
C1791 C 0.51845 0.12512 0.75362 0.0
C1792 C 0.5021 0.14356 0.74588 0.0
C1793 C 0.4856 0.12581 0.73746 0.0
C1794 C 0.48572 0.10777 0.73662 0.0
C1795 C 0.50196 0.10738 0.74489 0.0
C1796 C 0.46805 0.1262 0.7304 0.0
C1797 C 0.46504 0.12921 0.70887 0.0
C1798 C 0.45535 0.12558 0.74539 0.0
C1799 C 0.45818 0.12277 0.76839 0.0
C1800 C 0.45687 0.1049 0.77419 0.0
C1801 C 0.46001 0.10251 0.79588 0.0
C1802 C 0.46431 0.11785 0.81193 0.0
C1803 C 0.46539 0.13557 0.80632 0.0
C1804 C 0.4623 0.13804 0.78463 0.0
C1805 C 0.39322 0.12829 0.6867 0.0
C1806 C 0.39124 0.14273 0.69905 0.0
C1807 C 0.40779 0.12424 0.69275 0.0
C1808 C 0.42085 0.13487 0.71099 0.0
C1809 C 0.41859 0.14907 0.72349 0.0
C1810 C 0.40392 0.15292 0.71761 0.0
C1811 C 0.43704 0.13153 0.71706 0.0
C1812 C 0.44 0.1282 0.73858 0.0
C1813 C 0.44984 0.13212 0.70203 0.0
C1814 C 0.44848 0.13696 0.6795 0.0
C1815 C 0.44919 0.15495 0.67533 0.0
C1816 C 0.44782 0.15937 0.65404 0.0
C1817 C 0.4459 0.146 0.63678 0.0
C1818 C 0.44541 0.1282 0.64078 0.0
C1819 C 0.44675 0.1237 0.66204 0.0
H1820 H 0.44485 0.14946 0.62031 0.0
H1821 H 0.46676 0.11599 0.82871 0.0
H1822 H 0.84408 0.37252 0.73353 0.0
H1823 H 0.84054 0.34018 0.72184 0.0
H1824 H 0.90183 0.36742 0.72292 0.0
H1825 H 0.90548 0.40003 0.73425 0.0
H1826 H 0.88258 0.34012 0.68694 0.0
H1827 H 0.88036 0.34215 0.76409 0.0
H1828 H 0.86895 0.34673 0.79871 0.0
H1829 H 0.81206 0.29964 0.7765 0.0
H1830 H 0.82308 0.29507 0.74158 0.0
H1831 H 0.88343 0.24817 0.68525 0.0
H1832 H 0.88911 0.28198 0.6936 0.0
H1833 H 0.82903 0.25802 0.70034 0.0
H1834 H 0.82331 0.2242 0.6927 0.0
H1835 H 0.84931 0.28451 0.73283 0.0
H1836 H 0.85079 0.28239 0.65562 0.0
H1837 H 0.86169 0.27753 0.62076 0.0
H1838 H 0.91892 0.32425 0.64221 0.0
H1839 H 0.9084 0.32922 0.67734 0.0
C1840 C 0.85681 0.37173 0.73094 0.0
C1841 C 0.87508 0.38886 0.73484 0.0
C1842 C 0.85477 0.35318 0.72445 0.0
C1843 C 0.87093 0.35135 0.72177 0.0
C1844 C 0.88917 0.3685 0.72497 0.0
C1845 C 0.89124 0.38708 0.73157 0.0
C1846 C 0.86874 0.3314 0.71622 0.0
C1847 C 0.87552 0.328 0.69708 0.0
C1848 C 0.8592 0.3155 0.72925 0.0
C1849 C 0.85253 0.31834 0.75018 0.0
C1850 C 0.86539 0.33289 0.76653 0.0
C1851 C 0.85899 0.33547 0.78621 0.0
C1852 C 0.83979 0.3235 0.7898 0.0
C1853 C 0.82693 0.30891 0.77371 0.0
C1854 C 0.83325 0.30631 0.75397 0.0
C1855 C 0.87139 0.25009 0.68834 0.0
C1856 C 0.85291 0.23344 0.68828 0.0
C1857 C 0.87465 0.26946 0.69305 0.0
C1858 C 0.85946 0.27258 0.69747 0.0
C1859 C 0.84098 0.25599 0.69711 0.0
C1860 C 0.83773 0.23664 0.69264 0.0
C1861 C 0.8628 0.29301 0.70328 0.0
C1862 C 0.85632 0.29655 0.72259 0.0
C1863 C 0.87249 0.30896 0.69031 0.0
C1864 C 0.87884 0.30603 0.66919 0.0
C1865 C 0.86573 0.29152 0.65297 0.0
C1866 C 0.87183 0.28876 0.63315 0.0
C1867 C 0.891 0.30053 0.6293 0.0
C1868 C 0.90409 0.31512 0.64523 0.0
C1869 C 0.89806 0.31793 0.66509 0.0
H1870 H 0.8957 0.29838 0.61394 0.0
H1871 H 0.83487 0.32551 0.80506 0.0
H1872 H 0.15157 0.96331 0.62255 0.0
H1873 H 0.17924 0.9952 0.63687 0.0
H1874 H 0.21502 0.96865 0.63588 0.0
H1875 H 0.18715 0.93636 0.62203 0.0
H1876 H 0.22393 0.99453 0.67265 0.0
H1877 H 0.21583 0.9958 0.59638 0.0
H1878 H 0.19829 0.99186 0.56108 0.0
H1879 H 0.18579 0.03707 0.58353 0.0
H1880 H 0.203 0.04107 0.61911 0.0
H1881 H 0.3104 0.09144 0.6793 0.0
H1882 H 0.28496 0.05677 0.66949 0.0
H1883 H 0.243 0.07555 0.66691 0.0
H1884 H 0.26812 0.11003 0.67655 0.0
H1885 H 0.23924 0.05252 0.63077 0.0
H1886 H 0.24672 0.04998 0.70792 0.0
H1887 H 0.26471 0.05369 0.74283 0.0
H1888 H 0.27945 0.01091 0.71791 0.0
H1889 H 0.26176 0.00715 0.68274 0.0
C1890 C 0.16522 0.96408 0.62576 0.0
C1891 C 0.16711 0.94722 0.62112 0.0
C1892 C 0.18109 0.98241 0.63376 0.0
C1893 C 0.19926 0.98439 0.63718 0.0
C1894 C 0.20114 0.96748 0.63329 0.0
C1895 C 0.18524 0.94909 0.62523 0.0
C1896 C 0.2163 0.00435 0.64396 0.0
C1897 C 0.22747 0.00716 0.66335 0.0
C1898 C 0.22085 0.02087 0.63191 0.0
C1899 C 0.21057 0.0186 0.61049 0.0
C1900 C 0.20921 0.0048 0.59385 0.0
C1901 C 0.19935 0.00257 0.57378 0.0
C1902 C 0.1909 0.01418 0.57008 0.0
C1903 C 0.19233 0.02808 0.58643 0.0
C1904 C 0.20215 0.03034 0.60655 0.0
C1905 C 0.29573 0.08817 0.67695 0.0
C1906 C 0.29139 0.10363 0.67864 0.0
C1907 C 0.28119 0.06831 0.67135 0.0
C1908 C 0.26205 0.06355 0.66742 0.0
C1909 C 0.25766 0.07886 0.66974 0.0
C1910 C 0.27211 0.09862 0.67534 0.0
C1911 C 0.2466 0.04287 0.65977 0.0
C1912 C 0.23577 0.03989 0.64007 0.0
C1913 C 0.24251 0.02624 0.67148 0.0
C1914 C 0.2531 0.02845 0.69262 0.0
C1915 C 0.25394 0.0415 0.70983 0.0
C1916 C 0.26405 0.04358 0.72967 0.0
C1917 C 0.27327 0.03259 0.73256 0.0
C1918 C 0.27234 0.01944 0.71563 0.0
C1919 C 0.26226 0.01732 0.69575 0.0
H1920 H 0.28109 0.03423 0.74794 0.0
H1921 H 0.18327 0.01244 0.55453 0.0
H1922 H 0.03091 0.17248 0.58686 0.0
H1923 H 0.00284 0.17202 0.60016 0.0
H1924 H 0.03337 0.23645 0.60758 0.0
H1925 H 0.06165 0.23701 0.59477 0.0
H1926 H 0.01539 0.22229 0.64223 0.0
H1927 H 0.99917 0.21007 0.5662 0.0
H1928 H 0.99286 0.1939 0.5291 0.0
H1929 H 0.94753 0.13952 0.549 0.0
H1930 H 0.95387 0.15519 0.58637 0.0
H1931 H 0.91106 0.20529 0.62807 0.0
H1932 H 0.94037 0.21021 0.61343 0.0
H1933 H 0.9547 0.18962 0.67079 0.0
H1934 H 0.92551 0.18501 0.68564 0.0
H1935 H 0.9508 0.1846 0.60232 0.0
H1936 H 0.00295 0.21142 0.68057 0.0
H1937 H 0.00884 0.23109 0.71555 0.0
H1938 H 0.98261 0.26201 0.68747 0.0
H1939 H 0.97681 0.24274 0.65226 0.0
C1940 C 0.0317 0.18655 0.59146 0.0
C1941 C 0.04856 0.20479 0.5898 0.0
C1942 C 0.01556 0.18627 0.59884 0.0
C1943 C 0.01591 0.2042 0.60469 0.0
C1944 C 0.03273 0.22242 0.60311 0.0
C1945 C 0.04885 0.22272 0.59565 0.0
C1946 C 0.99895 0.20395 0.61309 0.0
C1947 C 1.00127 0.21403 0.63348 0.0
C1948 C 0.98055 0.19349 0.60152 0.0
C1949 C 0.97721 0.18375 0.57922 0.0
C1950 C 0.98807 0.19456 0.56278 0.0
C1951 C 0.98444 0.1855 0.54167 0.0
C1952 C 0.96986 0.16568 0.53672 0.0
C1953 C 0.95888 0.15486 0.55288 0.0
C1954 C 0.96251 0.16381 0.57404 0.0
C1955 C 0.9206 0.20205 0.63766 0.0
C1956 C 0.91613 0.19492 0.65805 0.0
C1957 C 0.93731 0.20481 0.62925 0.0
C1958 C 0.94989 0.20052 0.64108 0.0
C1959 C 0.94544 0.19343 0.66153 0.0
C1960 C 0.92872 0.19069 0.66996 0.0
C1961 C 0.96719 0.20259 0.63159 0.0
C1962 C 0.96493 0.19281 0.61105 0.0
C1963 C 0.98569 0.21368 0.64277 0.0
C1964 C 0.98928 0.22548 0.66384 0.0
C1965 C 0.99851 0.22247 0.68184 0.0
C1966 C 1.00182 0.23354 0.70171 0.0
C1967 C 0.99605 0.24774 0.70375 0.0
C1968 C 0.98701 0.25095 0.6859 0.0
C1969 C 0.98368 0.23994 0.66599 0.0
H1970 H 0.99862 0.25629 0.71915 0.0
H1971 H 0.96701 0.15872 0.52034 0.0
H1972 H 0.7974 0.85025 0.65694 0.0
H1973 H 0.80113 0.82316 0.67018 0.0
H1974 H 0.80042 0.80158 0.60455 0.0
H1975 H 0.79759 0.82913 0.59125 0.0
H1976 H 0.78118 0.78372 0.66587 0.0
H1977 H 0.83129 0.78431 0.60237 0.0
H1978 H 0.85516 0.80802 0.57999 0.0
H1979 H 0.86626 0.85699 0.62563 0.0
H1980 H 0.84267 0.83357 0.64842 0.0
H1981 H 0.79097 0.69747 0.66915 0.0
H1982 H 0.78494 0.72423 0.6601 0.0
H1983 H 0.84438 0.76772 0.67843 0.0
H1984 H 0.85062 0.74094 0.68656 0.0
H1985 H 0.83494 0.77593 0.6428 0.0
H1986 H 0.80596 0.76139 0.70934 0.0
H1987 H 0.78455 0.7403 0.73541 0.0
H1988 H 0.73564 0.72386 0.69059 0.0
H1989 H 0.75678 0.74466 0.66413 0.0
C1990 C 0.79811 0.83979 0.64531 0.0
C1991 C 0.7974 0.84204 0.62302 0.0
C1992 C 0.80006 0.82418 0.65291 0.0
C1993 C 0.80135 0.81048 0.6384 0.0
C1994 C 0.79977 0.81215 0.6161 0.0
C1995 C 0.79794 0.82781 0.60849 0.0
C1996 C 0.80512 0.79497 0.64662 0.0
C1997 C 0.79292 0.78198 0.66082 0.0
C1998 C 0.82071 0.79299 0.64048 0.0
C1999 C 0.83505 0.80719 0.62697 0.0
C2000 C 0.83887 0.80013 0.60765 0.0
C2001 C 0.85235 0.81352 0.59489 0.0
C2002 C 0.86217 0.834 0.60134 0.0
C2003 C 0.85859 0.84113 0.62061 0.0
C2004 C 0.84515 0.82781 0.63344 0.0
C2005 C 0.80269 0.71277 0.67158 0.0
C2006 C 0.82127 0.71708 0.67859 0.0
C2007 C 0.79921 0.7281 0.66644 0.0
C2008 C 0.81415 0.74811 0.66872 0.0
C2009 C 0.8326 0.75244 0.6764 0.0
C2010 C 0.83615 0.73711 0.68114 0.0
C2011 C 0.81089 0.76443 0.66196 0.0
C2012 C 0.82318 0.77759 0.64792 0.0
C2013 C 0.79572 0.7669 0.66878 0.0
C2014 C 0.78297 0.75444 0.68469 0.0
C2015 C 0.79065 0.75317 0.70499 0.0
C2016 C 0.77856 0.74128 0.71984 0.0
C2017 C 0.75875 0.73071 0.71464 0.0
C2018 C 0.75099 0.73204 0.69459 0.0
C2019 C 0.76301 0.74389 0.67967 0.0
H2020 H 0.74942 0.72151 0.72616 0.0
H2021 H 0.87259 0.84434 0.59143 0.0
H2022 H 0.06349 0.85117 0.6465 0.0
H2023 H 0.03576 0.82035 0.6558 0.0
H2024 H 1.00013 0.82577 0.60551 0.0
H2025 H 0.02762 0.85669 0.59666 0.0
H2026 H 0.98406 0.82047 0.64127 0.0
H2027 H 0.01292 0.78851 0.60278 0.0
H2028 H 0.03866 0.78173 0.59436 0.0
H2029 H 0.04063 0.76407 0.65827 0.0
H2030 H 0.01506 0.771 0.66718 0.0
H2031 H 0.89915 0.72838 0.63634 0.0
H2032 H 0.93005 0.75524 0.62778 0.0
H2033 H 0.95729 0.74922 0.68618 0.0
H2034 H 0.92606 0.72248 0.69521 0.0
H2035 H 0.97856 0.75457 0.64933 0.0
H2036 H 0.94856 0.7858 0.68681 0.0
H2037 H 0.92202 0.79165 0.69395 0.0
H2038 H 0.92185 0.81022 0.63018 0.0
H2039 H 0.94823 0.80421 0.62254 0.0
C2040 C 0.04981 0.84547 0.63715 0.0
C2041 C 0.04765 0.85631 0.62093 0.0
C2042 C 0.03395 0.82787 0.64246 0.0
C2043 C 0.01577 0.82068 0.63139 0.0
C2044 C 0.01392 0.83104 0.61443 0.0
C2045 C 0.02965 0.84867 0.60932 0.0
C2046 C 0.99833 0.80338 0.63837 0.0
C2047 C 0.98285 0.80602 0.64274 0.0
C2048 C 0.99684 0.78463 0.64103 0.0
C2049 C 0.01223 0.78049 0.63572 0.0
C2050 C 0.01896 0.78335 0.61511 0.0
C2051 C 0.0335 0.77945 0.61023 0.0
C2052 C 0.04132 0.77254 0.62579 0.0
C2053 C 0.03459 0.76946 0.64625 0.0
C2054 C 0.02006 0.77336 0.65121 0.0
C2055 C 0.91173 0.73262 0.64729 0.0
C2056 C 0.91022 0.72342 0.6665 0.0
C2057 C 0.92939 0.74796 0.64236 0.0
C2058 C 0.94597 0.75427 0.65635 0.0
C2059 C 0.94467 0.74455 0.67514 0.0
C2060 C 0.92686 0.72934 0.6803 0.0
C2061 C 0.96434 0.77169 0.65168 0.0
C2062 C 0.97993 0.76909 0.64789 0.0
C2063 C 0.96596 0.7905 0.64939 0.0
C2064 C 0.95028 0.79442 0.65405 0.0
C2065 C 0.94279 0.79101 0.67426 0.0
C2066 C 0.92778 0.79437 0.6784 0.0
C2067 C 0.92023 0.80126 0.66251 0.0
C2068 C 0.92771 0.80487 0.64247 0.0
C2069 C 0.9427 0.80151 0.63823 0.0
H2070 H 0.9086 0.80384 0.66575 0.0
H2071 H 0.05257 0.76951 0.62198 0.0
H2072 H 0.15069 0.19687 0.58897 0.0
H2073 H 0.18301 0.20528 0.60279 0.0
H2074 H 0.1593 0.16233 0.64975 0.0
H2075 H 0.12722 0.15464 0.63684 0.0
H2076 H 0.19006 0.19389 0.66781 0.0
H2077 H 0.17362 0.15233 0.60028 0.0
H2078 H 0.1642 0.14336 0.5611 0.0
H2079 H 0.21418 0.19728 0.54773 0.0
H2080 H 0.22377 0.20669 0.58687 0.0
H2081 H 0.25535 0.1606 0.68901 0.0
H2082 H 0.22866 0.16552 0.67804 0.0
H2083 H 0.26503 0.21256 0.63992 0.0
H2084 H 0.29181 0.20741 0.65064 0.0
H2085 H 0.23149 0.18609 0.61704 0.0
H2086 H 0.25015 0.22398 0.68543 0.0
H2087 H 0.25955 0.2313 0.72469 0.0
H2088 H 0.2051 0.18227 0.73679 0.0
H2089 H 0.19546 0.17445 0.69758 0.0
C2090 C 0.15239 0.18946 0.60247 0.0
C2091 C 0.13629 0.17486 0.61158 0.0
C2092 C 0.17088 0.19414 0.61022 0.0
C2093 C 0.17363 0.18419 0.62709 0.0
C2094 C 0.15762 0.17016 0.63667 0.0
C2095 C 0.13921 0.1656 0.62906 0.0
C2096 C 0.19298 0.18771 0.63448 0.0
C2097 C 0.19904 0.19202 0.65671 0.0
C2098 C 0.20507 0.18593 0.61999 0.0
C2099 C 0.19926 0.18035 0.59649 0.0
C2100 C 0.18251 0.16236 0.58898 0.0
C2101 C 0.17715 0.15718 0.56679 0.0
C2102 C 0.18854 0.16978 0.55194 0.0
C2103 C 0.20534 0.18756 0.55926 0.0
C2104 C 0.21074 0.19283 0.58144 0.0
C2105 C 0.25772 0.17213 0.67846 0.0
C2106 C 0.2756 0.18355 0.67056 0.0
C2107 C 0.24248 0.17501 0.67229 0.0
C2108 C 0.24486 0.18955 0.6583 0.0
C2109 C 0.26287 0.20131 0.65078 0.0
C2110 C 0.27813 0.19835 0.65689 0.0
C2111 C 0.22813 0.19132 0.65045 0.0
C2112 C 0.22261 0.18813 0.62814 0.0
C2113 C 0.21644 0.19387 0.66489 0.0
C2114 C 0.22213 0.19856 0.68852 0.0
C2115 C 0.24023 0.21466 0.69645 0.0
C2116 C 0.24559 0.21892 0.7187 0.0
C2117 C 0.23294 0.20724 0.73323 0.0
C2118 C 0.21488 0.1913 0.72552 0.0
C2119 C 0.20945 0.18697 0.70328 0.0
H2120 H 0.23713 0.21055 0.75045 0.0
H2121 H 0.18438 0.16574 0.53476 0.0
H2122 H 0.8589 0.99014 0.63466 0.0
H2123 H 0.85466 0.01885 0.64163 0.0
H2124 H 0.79627 0.97978 0.65436 0.0
H2125 H 0.80058 0.95075 0.64828 0.0
H2126 H 0.80681 0.01622 0.62586 0.0
H2127 H 0.81947 0.99762 0.69558 0.0
H2128 H 0.83718 0.98779 0.72087 0.0
H2129 H 0.88928 0.0423 0.71428 0.0
H2130 H 0.87192 0.05229 0.68866 0.0
H2131 H 0.80168 0.09953 0.67372 0.0
H2132 H 0.79749 0.06599 0.66765 0.0
H2133 H 0.85875 0.09163 0.67158 0.0
H2134 H 0.86304 0.125 0.67757 0.0
H2135 H 0.84258 0.05913 0.69344 0.0
H2136 H 0.83331 0.07732 0.6233 0.0
H2137 H 0.81872 0.08866 0.5958 0.0
H2138 H 0.76368 0.03715 0.60059 0.0
H2139 H 0.77794 0.02561 0.62838 0.0
C2140 C 0.84513 0.98755 0.63898 0.0
C2141 C 0.8302 0.96811 0.64133 0.0
C2142 C 0.8427 0.004 0.64275 0.0
C2143 C 0.82522 1.00141 0.64865 0.0
C2144 C 0.80987 0.98202 0.64978 0.0
C2145 C 0.81235 0.96547 0.64625 0.0
C2146 C 0.8238 0.01923 0.65519 0.0
C2147 C 0.81419 0.02539 0.64087 0.0
C2148 C 0.834 0.03146 0.67443 0.0
C2149 C 0.84442 0.02562 0.69007 0.0
C2150 C 0.83473 0.00743 0.69938 0.0
C2151 C 0.8447 1.00184 0.7138 0.0
C2152 C 0.86435 0.01439 0.71915 0.0
C2153 C 0.87406 0.03258 0.71012 0.0
C2154 C 0.86416 0.03822 0.69567 0.0
C2155 C 0.81424 0.09798 0.67347 0.0
C2156 C 0.83269 0.11493 0.67602 0.0
C2157 C 0.81182 0.07883 0.66989 0.0
C2158 C 0.82781 0.07632 0.66897 0.0
C2159 C 0.84621 0.09319 0.67222 0.0
C2160 C 0.84863 0.11228 0.67554 0.0
C2161 C 0.82558 0.05626 0.66412 0.0
C2162 C 0.83472 0.04976 0.67868 0.0
C2163 C 0.81523 0.04395 0.64492 0.0
C2164 C 0.80664 0.05073 0.62811 0.0
C2165 C 0.81807 0.06849 0.61863 0.0
C2166 C 0.80987 0.07495 0.60297 0.0
C2167 C 0.79027 0.06368 0.59651 0.0
C2168 C 0.77885 0.04588 0.60565 0.0
C2169 C 0.78699 0.03937 0.62135 0.0
H2170 H 0.78394 0.0687 0.58438 0.0
H2171 H 0.87205 0.01004 0.73031 0.0
H2172 H 0.51043 0.38619 0.71018 0.0
H2173 H 0.47698 0.35944 0.70154 0.0
H2174 H 0.48781 0.32068 0.73968 0.0
H2175 H 0.52107 0.34724 0.74832 0.0
H2176 H 0.4646 0.32248 0.67969 0.0
H2177 H 0.44721 0.28971 0.76272 0.0
H2178 H 0.45466 0.30157 0.80153 0.0
H2179 H 0.46506 0.35939 0.78674 0.0
H2180 H 0.45738 0.3478 0.74787 0.0
H2181 H 0.39976 0.21897 0.67587 0.0
H2182 H 0.42618 0.25331 0.68276 0.0
H2183 H 0.38756 0.27192 0.70523 0.0
H2184 H 0.36082 0.23738 0.69816 0.0
H2185 H 0.4206 0.28478 0.7339 0.0
H2186 H 0.40492 0.2869 0.65948 0.0
H2187 H 0.39714 0.2749 0.62071 0.0
H2188 H 0.45194 0.27923 0.6182 0.0
H2189 H 0.45995 0.29097 0.65703 0.0
C2190 C 0.50555 0.37205 0.71698 0.0
C2191 C 0.51835 0.36875 0.72985 0.0
C2192 C 0.4865 0.35678 0.71196 0.0
C2193 C 0.47987 0.3381 0.72006 0.0
C2194 C 0.49253 0.33502 0.73343 0.0
C2195 C 0.51156 0.35016 0.73824 0.0
C2196 C 0.46016 0.32129 0.71353 0.0
C2197 C 0.45489 0.31436 0.69152 0.0
C2198 C 0.44738 0.31084 0.72894 0.0
C2199 C 0.45184 0.3179 0.75234 0.0
C2200 C 0.45099 0.30493 0.76775 0.0
C2201 C 0.45527 0.31161 0.78976 0.0
C2202 C 0.46037 0.33124 0.79659 0.0
C2203 C 0.46116 0.34421 0.78142 0.0
C2204 C 0.45687 0.3376 0.75939 0.0
C2205 C 0.39679 0.23038 0.68202 0.0
C2206 C 0.37818 0.22544 0.68648 0.0
C2207 C 0.41192 0.25003 0.68587 0.0
C2208 C 0.40883 0.26519 0.69443 0.0
C2209 C 0.39022 0.26044 0.69856 0.0
C2210 C 0.37496 0.24074 0.6944 0.0
C2211 C 0.42539 0.28563 0.70018 0.0
C2212 C 0.43013 0.29315 0.72204 0.0
C2213 C 0.43768 0.29664 0.68464 0.0
C2214 C 0.43299 0.28973 0.66122 0.0
C2215 C 0.41527 0.28517 0.6507 0.0
C2216 C 0.41082 0.27843 0.6287 0.0
C2217 C 0.42403 0.27628 0.61701 0.0
C2218 C 0.44173 0.28091 0.62728 0.0
C2219 C 0.44624 0.28764 0.64928 0.0
H2220 H 0.42056 0.27106 0.59998 0.0
H2221 H 0.46369 0.33638 0.81364 0.0
H2222 H 0.61961 0.1289 0.7392 0.0
H2223 H 0.64565 0.12255 0.73245 0.0
H2224 H 0.68674 0.18199 0.76089 0.0
H2225 H 0.66088 0.18785 0.76912 0.0
H2226 H 0.67142 0.13774 0.70726 0.0
H2227 H 0.72823 0.18693 0.77961 0.0
H2228 H 0.72915 0.1954 0.81861 0.0
H2229 H 0.67541 0.14161 0.82138 0.0
H2230 H 0.67429 0.13264 0.78247 0.0
H2231 H 0.76365 0.17027 0.67729 0.0
H2232 H 0.73441 0.16688 0.69034 0.0
H2233 H 0.73936 0.13475 0.74254 0.0
H2234 H 0.76927 0.13904 0.73004 0.0
H2235 H 0.72903 0.1584 0.75782 0.0
H2236 H 0.70529 0.11093 0.69657 0.0
H2237 H 0.70274 0.09774 0.6588 0.0
H2238 H 0.68701 0.13946 0.63642 0.0
H2239 H 0.68972 0.1531 0.67404 0.0
C2240 C 0.63415 0.14042 0.74459 0.0
C2241 C 0.63807 0.15896 0.75458 0.0
C2242 C 0.64908 0.13684 0.7405 0.0
C2243 C 0.66826 0.15172 0.74624 0.0
C2244 C 0.67214 0.17006 0.75664 0.0
C2245 C 0.65726 0.17352 0.76102 0.0
C2246 C 0.68429 0.14879 0.73998 0.0
C2247 C 0.68393 0.14211 0.71841 0.0
C2248 C 0.7005 0.15394 0.75457 0.0
C2249 C 0.70111 0.15919 0.77804 0.0
C2250 C 0.71665 0.17685 0.78855 0.0
C2251 C 0.7172 0.18175 0.81064 0.0
C2252 C 0.70233 0.16908 0.82245 0.0
C2253 C 0.68689 0.15145 0.8122 0.0
C2254 C 0.68628 0.14646 0.79011 0.0
C2255 C 0.75842 0.16236 0.69146 0.0
C2256 C 0.7686 0.15474 0.70254 0.0
C2257 C 0.74162 0.16033 0.69886 0.0
C2258 C 0.73433 0.15015 0.71719 0.0
C2259 C 0.74457 0.14257 0.72832 0.0
C2260 C 0.7616 0.14492 0.72111 0.0
C2261 C 0.71637 0.14801 0.72498 0.0
C2262 C 0.7164 0.15377 0.74679 0.0
C2263 C 0.69957 0.14132 0.71082 0.0
C2264 C 0.69783 0.13312 0.68814 0.0
C2265 C 0.7014 0.11737 0.68359 0.0
C2266 C 0.69991 0.10981 0.6622 0.0
C2267 C 0.69474 0.11778 0.64522 0.0
C2268 C 0.69101 0.13331 0.64959 0.0
C2269 C 0.6925 0.14094 0.67095 0.0
H2270 H 0.6936 0.1119 0.62868 0.0
H2271 H 0.70278 0.1729 0.83956 0.0
H2272 H 0.81987 0.4786 0.73608 0.0
H2273 H 0.82543 0.51123 0.72729 0.0
H2274 H 0.8796 0.52493 0.70465 0.0
H2275 H 0.87379 0.49174 0.71244 0.0
H2276 H 0.8711 0.55664 0.73727 0.0
H2277 H 0.85981 0.51884 0.66647 0.0
H2278 H 0.84222 0.48786 0.6419 0.0
H2279 H 0.7894 0.48656 0.65069 0.0
H2280 H 0.80669 0.51739 0.6756 0.0
H2281 H 0.87507 0.64018 0.68824 0.0
H2282 H 0.88027 0.61221 0.69446 0.0
H2283 H 0.81924 0.57194 0.68877 0.0
H2284 H 0.81392 0.59949 0.68224 0.0
H2285 H 0.83637 0.5552 0.66824 0.0
H2286 H 0.84448 0.59003 0.73785 0.0
H2287 H 0.85873 0.61936 0.76486 0.0
H2288 H 0.91402 0.62509 0.76129 0.0
H2289 H 0.90013 0.59595 0.73398 0.0
C2290 C 0.83297 0.48846 0.72918 0.0
C2291 C 0.84621 0.48233 0.7246 0.0
C2292 C 0.8362 0.50719 0.72439 0.0
C2293 C 0.85285 0.52036 0.71525 0.0
C2294 C 0.86666 0.5149 0.71175 0.0
C2295 C 0.86333 0.49597 0.7163 0.0
C2296 C 0.85473 0.53901 0.70784 0.0
C2297 C 0.86401 0.55658 0.72192 0.0
C2298 C 0.84487 0.53861 0.68819 0.0
C2299 C 0.83451 0.52026 0.67304 0.0
C2300 C 0.84443 0.51183 0.66331 0.0
C2301 C 0.83452 0.49433 0.6493 0.0
C2302 C 0.8147 0.48521 0.64478 0.0
C2303 C 0.80475 0.49362 0.65422 0.0
C2304 C 0.8146 0.51111 0.66827 0.0
C2305 C 0.86277 0.62533 0.68804 0.0
C2306 C 0.84408 0.62213 0.68485 0.0
C2307 C 0.86577 0.60938 0.69172 0.0
C2308 C 0.85013 0.59 0.69228 0.0
C2309 C 0.83152 0.58673 0.68838 0.0
C2310 C 0.82852 0.60258 0.68473 0.0
C2311 C 0.85287 0.57308 0.69759 0.0
C2312 C 0.84412 0.55564 0.68326 0.0
C2313 C 0.86298 0.57357 0.71718 0.0
C2314 C 0.87133 0.59099 0.73368 0.0
C2315 C 0.85971 0.59765 0.74269 0.0
C2316 C 0.86771 0.61422 0.75807 0.0
C2317 C 0.88727 0.62412 0.76473 0.0
C2318 C 0.89887 0.61743 0.75607 0.0
C2319 C 0.89095 0.60089 0.74065 0.0
H2320 H 0.89344 0.63694 0.77665 0.0
H2321 H 0.80705 0.47167 0.63392 0.0
H2322 H 0.46732 0.90876 0.21962 0.0
H2323 H 0.48236 0.92975 0.19066 0.0
H2324 H 0.42731 0.91922 0.16447 0.0
H2325 H 0.41203 0.89712 0.19234 0.0
H2326 H 0.44538 0.91704 0.13315 0.0
H2327 H 0.4623 0.96447 0.19467 0.0
H2328 H 0.47564 0.97988 0.23186 0.0
H2329 H 0.53102 0.9906 0.2173 0.0
H2330 H 0.51795 0.97501 0.18008 0.0
H2331 H 0.48332 0.00417 0.07131 0.0
H2332 H 0.46743 0.98119 0.09882 0.0
H2333 H 0.51676 0.97429 0.10987 0.0
H2334 H 0.53202 0.99602 0.08138 0.0
H2335 H 0.50173 0.98519 0.14822 0.0
H2336 H 0.48319 0.93917 0.08453 0.0
H2337 H 0.46814 0.92324 0.0479 0.0
H2338 H 0.4132 0.90902 0.0676 0.0
H2339 H 0.428 0.92614 0.10378 0.0
C2340 C 0.45836 0.91071 0.20757 0.0
C2341 C 0.43842 0.90127 0.2085 0.0
C2342 C 0.46704 0.92298 0.19116 0.0
C2343 C 0.45604 0.92641 0.17553 0.0
C2344 C 0.43616 0.91694 0.17636 0.0
C2345 C 0.42745 0.90446 0.19254 0.0
C2346 C 0.4651 0.9395 0.15802 0.0
C2347 C 0.4575 0.93208 0.13649 0.0
C2348 C 0.48119 0.95899 0.1623 0.0
C2349 C 0.4891 0.96839 0.18466 0.0
C2350 C 0.47729 0.96998 0.19945 0.0
C2351 C 0.48481 0.97877 0.22052 0.0
C2352 C 0.50415 0.98617 0.22696 0.0
C2353 C 0.51603 0.98484 0.2123 0.0
C2354 C 0.50858 0.97604 0.19121 0.0
C2355 C 0.49045 0.99722 0.07914 0.0
C2356 C 0.50858 1.00135 0.07374 0.0
C2357 C 0.4815 0.98432 0.095 0.0
C2358 C 0.49085 0.97586 0.10614 0.0
C2359 C 0.50927 0.98056 0.10132 0.0
C2360 C 0.518 0.99306 0.08514 0.0
C2361 C 0.48183 0.96278 0.12348 0.0
C2362 C 0.4895 0.97021 0.14495 0.0
C2363 C 0.46556 0.94346 0.11914 0.0
C2364 C 0.45685 0.93444 0.0968 0.0
C2365 C 0.46801 0.9333 0.08085 0.0
C2366 C 0.4595 0.92405 0.06014 0.0
C2367 C 0.43978 0.91544 0.05531 0.0
C2368 C 0.42852 0.91607 0.07119 0.0
C2369 C 0.43699 0.92569 0.09175 0.0
H2370 H 0.43319 0.90811 0.03935 0.0
H2371 H 0.50995 0.99297 0.24328 0.0
H2372 H 0.07653 0.50363 0.24079 0.0
H2373 H 0.05715 0.49793 0.2067 0.0
H2374 H 0.10351 0.55065 0.1845 0.0
H2375 H 0.123 0.55635 0.21839 0.0
H2376 H 0.07056 0.54957 0.17562 0.0
H2377 H 0.09382 0.5041 0.16597 0.0
H2378 H 0.09971 0.47684 0.17447 0.0
H2379 H 0.03919 0.43593 0.17087 0.0
H2380 H 0.03293 0.46304 0.16265 0.0
H2381 H 0.04617 0.52441 0.06002 0.0
H2382 H 0.06184 0.52694 0.09581 0.0
H2383 H 0.00693 0.49719 0.12135 0.0
H2384 H 0.99109 0.49515 0.08558 0.0
H2385 H 0.04219 0.48565 0.12893 0.0
H2386 H 0.02019 0.53372 0.13963 0.0
H2387 H 0.01639 0.56203 0.12988 0.0
H2388 H 0.0773 0.59888 0.13005 0.0
H2389 H 0.08141 0.5706 0.13931 0.0
C2390 C 0.08263 0.51396 0.2286 0.0
C2391 C 0.10132 0.53046 0.23235 0.0
C2392 C 0.07153 0.51068 0.20912 0.0
C2393 C 0.07893 0.52375 0.19294 0.0
C2394 C 0.09747 0.54039 0.19677 0.0
C2395 C 0.10856 0.54369 0.21622 0.0
C2396 C 0.06737 0.52023 0.17206 0.0
C2397 C 0.06444 0.5356 0.16543 0.0
C2398 C 0.05919 0.50194 0.15877 0.0
C2399 C 0.06291 0.48566 0.16397 0.0
C2400 C 0.08176 0.48934 0.16722 0.0
C2401 C 0.08517 0.47391 0.17193 0.0
C2402 C 0.06984 0.45468 0.17328 0.0
C2403 C 0.05106 0.45084 0.16988 0.0
C2404 C 0.04757 0.46623 0.16518 0.0
C2405 C 0.03741 0.5183 0.07322 0.0
C2406 C 0.01742 0.50964 0.0701 0.0
C2407 C 0.04639 0.5198 0.09362 0.0
C2408 C 0.03552 0.51239 0.11115 0.0
C2409 C 0.01551 0.50308 0.10797 0.0
C2410 C 0.00651 0.50193 0.0876 0.0
C2411 C 0.04531 0.51488 0.13283 0.0
C2412 C 0.04808 0.49944 0.13942 0.0
C2413 C 0.05353 0.53314 0.14599 0.0
C2414 C 0.05106 0.54996 0.13981 0.0
C2415 C 0.03274 0.54775 0.1372 0.0
C2416 C 0.03054 0.56381 0.13187 0.0
C2417 C 0.04659 0.58223 0.12932 0.0
C2418 C 0.06488 0.5846 0.13203 0.0
C2419 C 0.06714 0.56855 0.13727 0.0
H2420 H 0.04487 0.59468 0.1253 0.0
H2421 H 0.07251 0.44274 0.1769 0.0
H2422 H 0.45889 0.53135 0.23673 0.0
H2423 H 0.46331 0.5174 0.20238 0.0
H2424 H 0.49401 0.57666 0.18155 0.0
H2425 H 0.4898 0.59056 0.21558 0.0
H2426 H 0.46353 0.54714 0.15152 0.0
H2427 H 0.51857 0.5568 0.19782 0.0
H2428 H 0.53372 0.55076 0.22979 0.0
H2429 H 0.50359 0.48789 0.20958 0.0
H2430 H 0.48804 0.49355 0.17764 0.0
H2431 H 0.52545 0.55325 0.07036 0.0
H2432 H 0.5125 0.55677 0.10403 0.0
H2433 H 0.47846 0.49268 0.10272 0.0
H2434 H 0.49075 0.4891 0.0684 0.0
H2435 H 0.50493 0.51735 0.14398 0.0
H2436 H 0.45483 0.50828 0.09445 0.0
H2437 H 0.43507 0.51146 0.06547 0.0
H2438 H 0.45118 0.57014 0.09288 0.0
H2439 H 0.47219 0.56807 0.12147 0.0
C2440 C 0.46661 0.54132 0.22478 0.0
C2441 C 0.47414 0.56203 0.22884 0.0
C2442 C 0.4692 0.53338 0.20529 0.0
C2443 C 0.47907 0.54604 0.18953 0.0
C2444 C 0.48642 0.56666 0.19355 0.0
C2445 C 0.48409 0.57459 0.21303 0.0
C2446 C 0.48136 0.53811 0.16838 0.0
C2447 C 0.47277 0.54085 0.14974 0.0
C2448 C 0.49258 0.52892 0.16635 0.0
C2449 C 0.50195 0.52556 0.18551 0.0
C2450 C 0.51502 0.54167 0.20032 0.0
C2451 C 0.52372 0.53832 0.2184 0.0
C2452 C 0.51957 0.51895 0.22176 0.0
C2453 C 0.50676 0.50289 0.20699 0.0
C2454 C 0.49801 0.50616 0.18889 0.0
C2455 C 0.51509 0.53993 0.07719 0.0
C2456 C 0.5091 0.52091 0.06691 0.0
C2457 C 0.50766 0.54196 0.09633 0.0
C2458 C 0.49451 0.52499 0.10579 0.0
C2459 C 0.48855 0.50594 0.09559 0.0
C2460 C 0.49553 0.50392 0.07605 0.0
C2461 C 0.48789 0.52741 0.1269 0.0
C2462 C 0.49563 0.52358 0.14559 0.0
C2463 C 0.4758 0.5356 0.12898 0.0
C2464 C 0.46548 0.53813 0.11001 0.0
C2465 C 0.45496 0.52227 0.09385 0.0
C2466 C 0.44347 0.52385 0.07743 0.0
C2467 C 0.44199 0.54098 0.07712 0.0
C2468 C 0.45238 0.55686 0.09304 0.0
C2469 C 0.46428 0.5556 0.10925 0.0
H2470 H 0.43253 0.54176 0.06472 0.0
H2471 H 0.52632 0.51638 0.23576 0.0
H2472 H 0.88401 0.44883 0.80888 0.0
H2473 H 0.90537 0.46278 0.84237 0.0
H2474 H 0.95128 0.46423 0.80892 0.0
H2475 H 0.92981 0.44985 0.77558 0.0
H2476 H 0.94843 0.44698 0.84386 0.0
H2477 H 0.94991 0.50693 0.82719 0.0
H2478 H 0.93724 0.52897 0.81825 0.0
H2479 H 0.91195 0.52034 0.87848 0.0
H2480 H 0.92419 0.49793 0.88762 0.0
H2481 H 0.01878 0.49317 0.93245 0.0
H2482 H 1.00066 0.48702 0.89737 0.0
H2483 H 0.95346 0.4839 0.92947 0.0
H2484 H 0.97179 0.49041 0.96461 0.0
H2485 H 0.95814 0.50346 0.8947 0.0
H2486 H 0.9524 0.43942 0.9075 0.0
H2487 H 0.96518 0.41748 0.91675 0.0
H2488 H 0.99914 0.43485 0.86281 0.0
H2489 H 0.98672 0.45712 0.8536 0.0
C2490 C 0.89878 0.45255 0.8086 0.0
C2491 C 0.90526 0.44822 0.78967 0.0
C2492 C 0.911 0.46055 0.82774 0.0
C2493 C 0.93001 0.46467 0.8282 0.0
C2494 C 0.93668 0.46112 0.80902 0.0
C2495 C 0.92442 0.45292 0.78998 0.0
C2496 C 0.94242 0.47095 0.84895 0.0
C2497 C 0.9508 0.45958 0.85475 0.0
C2498 C 0.94517 0.48707 0.86351 0.0
C2499 C 0.93771 0.50047 0.85795 0.0
C2500 C 0.94144 0.50951 0.83842 0.0
C2501 C 0.93438 0.52212 0.83333 0.0
C2502 C 0.92371 0.52597 0.84774 0.0
C2503 C 0.92014 0.51727 0.86729 0.0
C2504 C 0.92713 0.50461 0.87243 0.0
C2505 C 0.0046 0.49134 0.93198 0.0
C2506 C 0.99676 0.49253 0.95118 0.0
C2507 C 0.99419 0.48768 0.91194 0.0
C2508 C 0.97553 0.48462 0.91074 0.0
C2509 C 0.96784 0.48624 0.92996 0.0
C2510 C 0.97836 0.49011 0.95003 0.0
C2511 C 0.96398 0.47943 0.88949 0.0
C2512 C 0.95578 0.49096 0.88366 0.0
C2513 C 0.96142 0.46353 0.87477 0.0
C2514 C 0.96887 0.45014 0.88016 0.0
C2515 C 0.96278 0.43872 0.89787 0.0
C2516 C 0.9699 0.42619 0.90303 0.0
C2517 C 0.98305 0.42484 0.89043 0.0
C2518 C 0.98901 0.43596 0.8726 0.0
C2519 C 0.98191 0.44852 0.8674 0.0
H2520 H 0.98856 0.41513 0.89443 0.0
H2521 H 0.91828 0.53576 0.84378 0.0
H2522 H 0.55905 0.44106 0.81451 0.0
H2523 H 0.54573 0.44716 0.84638 0.0
H2524 H 0.54879 0.49902 0.82039 0.0
H2525 H 0.56168 0.49267 0.78808 0.0
H2526 H 0.56101 0.47819 0.87647 0.0
H2527 H 0.51156 0.50412 0.83751 0.0
H2528 H 0.49246 0.49875 0.8029 0.0
H2529 H 0.48678 0.44097 0.79027 0.0
H2530 H 0.50562 0.44588 0.82492 0.0
H2531 H 0.53038 0.52519 0.95527 0.0
H2532 H 0.54291 0.51845 0.92274 0.0
H2533 H 0.49112 0.46137 0.90907 0.0
H2534 H 0.47899 0.46765 0.94198 0.0
H2535 H 0.50257 0.48385 0.87295 0.0
H2536 H 0.52811 0.46159 0.9297 0.0
H2537 H 0.54648 0.46438 0.96405 0.0
H2538 H 0.59783 0.50983 0.94091 0.0
H2539 H 0.57984 0.50784 0.90683 0.0
C2540 C 0.55662 0.45359 0.81539 0.0
C2541 C 0.5613 0.4663 0.79867 0.0
C2542 C 0.54918 0.45717 0.83373 0.0
C2543 C 0.54616 0.47347 0.83574 0.0
C2544 C 0.55081 0.48622 0.81909 0.0
C2545 C 0.5583 0.48266 0.80072 0.0
C2546 C 0.53847 0.47725 0.85546 0.0
C2547 C 0.54827 0.4795 0.87569 0.0
C2548 C 0.5217 0.4787 0.85446 0.0
C2549 C 0.51018 0.47548 0.8337 0.0
C2550 C 0.50618 0.49025 0.82737 0.0
C2551 C 0.49541 0.48728 0.80775 0.0
C2552 C 0.48847 0.46956 0.79436 0.0
C2553 C 0.49223 0.45472 0.80061 0.0
C2554 C 0.50298 0.4576 0.82023 0.0
C2555 C 0.52191 0.51106 0.94556 0.0
C2556 C 0.50394 0.49677 0.95138 0.0
C2557 C 0.52896 0.50731 0.92689 0.0
C2558 C 0.51796 0.48936 0.91359 0.0
C2559 C 0.49981 0.47531 0.91911 0.0
C2560 C 0.49291 0.47893 0.9379 0.0
C2561 C 0.5253 0.4851 0.89389 0.0
C2562 C 0.51541 0.48272 0.87369 0.0
C2563 C 0.54185 0.48327 0.89494 0.0
C2564 C 0.55253 0.48484 0.91582 0.0
C2565 C 0.54325 0.47248 0.93211 0.0
C2566 C 0.55359 0.47394 0.95157 0.0
C2567 C 0.57319 0.48757 0.95487 0.0
C2568 C 0.58259 0.49954 0.93858 0.0
C2569 C 0.57233 0.49829 0.91919 0.0
H2570 H 0.58108 0.48878 0.97002 0.0
H2571 H 0.48014 0.4673 0.77917 0.0
H2572 H 0.52124 0.07336 0.79264 0.0
H2573 H 0.51426 0.05416 0.82413 0.0
H2574 H 0.56315 0.10352 0.86132 0.0
H2575 H 0.57007 0.123 0.82998 0.0
H2576 H 0.55934 0.06686 0.86917 0.0
H2577 H 0.52076 0.09757 0.86825 0.0
H2578 H 0.49793 0.10678 0.85243 0.0
H2579 H 0.45488 0.04479 0.84056 0.0
H2580 H 0.47756 0.0352 0.85601 0.0
H2581 H 0.53107 0.04141 0.97511 0.0
H2582 H 0.54169 0.05715 0.94173 0.0
H2583 H 0.49067 0.0091 0.90606 0.0
H2584 H 0.48023 0.99326 0.93957 0.0
H2585 H 0.49586 0.04385 0.89627 0.0
H2586 H 0.53465 0.01426 0.90288 0.0
H2587 H 0.55811 0.0062 0.91912 0.0
H2588 H 0.60227 0.06762 0.92091 0.0
H2589 H 0.57887 0.07636 0.90593 0.0
C2590 C 0.53055 0.08013 0.80749 0.0
C2591 C 0.54611 0.09979 0.80883 0.0
C2592 C 0.52657 0.06912 0.82545 0.0
C2593 C 0.53804 0.07752 0.84513 0.0
C2594 C 0.55412 0.09676 0.84627 0.0
C2595 C 0.55809 0.10784 0.82831 0.0
C2596 C 0.53267 0.06656 0.86473 0.0
C2597 C 0.54562 0.06212 0.87542 0.0
C2598 C 0.51458 0.05999 0.87246 0.0
C2599 C 0.50092 0.06566 0.86303 0.0
C2600 C 0.50648 0.0859 0.86205 0.0
C2601 C 0.49357 0.09119 0.8532 0.0
C2602 C 0.47499 0.07638 0.84544 0.0
C2603 C 0.46929 0.05624 0.84654 0.0
C2604 C 0.48216 0.05087 0.85535 0.0
C2605 C 0.52262 0.03375 0.96006 0.0
C2606 C 0.50528 0.0157 0.95978 0.0
C2607 C 0.52854 0.0429 0.94098 0.0
C2608 C 0.51715 0.03412 0.92127 0.0
C2609 C 0.49977 0.01607 0.92102 0.0
C2610 C 0.49386 0.007 0.94012 0.0
C2611 C 0.52268 0.04442 0.90121 0.0
C2612 C 0.50967 0.04865 0.89026 0.0
C2613 C 0.54088 0.05107 0.89357 0.0
C2614 C 0.55487 0.04602 0.90351 0.0
C2615 C 0.54925 0.02616 0.90719 0.0
C2616 C 0.56256 0.02148 0.91623 0.0
C2617 C 0.58163 0.03644 0.92128 0.0
C2618 C 0.58743 0.05611 0.91731 0.0
C2619 C 0.57413 0.06096 0.90864 0.0
H2620 H 0.59194 0.03276 0.92813 0.0
H2621 H 0.46499 0.0805 0.83867 0.0
H2622 H 0.09621 0.20782 0.51812 0.0
H2623 H 0.11206 0.22992 0.49013 0.0
H2624 H 0.12779 0.28124 0.53521 0.0
H2625 H 0.11092 0.25899 0.56273 0.0
H2626 H 0.11711 0.28786 0.49984 0.0
H2627 H 0.15978 0.2644 0.51892 0.0
H2628 H 0.16991 0.2398 0.52524 0.0
H2629 H 0.15406 0.21675 0.45843 0.0
H2630 H 0.14364 0.24107 0.4517 0.0
H2631 H 0.19937 0.3362 0.42242 0.0
H2632 H 0.18535 0.31622 0.45247 0.0
H2633 H 0.12979 0.30612 0.42877 0.0
H2634 H 0.14431 0.32788 0.40024 0.0
H2635 H 0.16189 0.27996 0.45465 0.0
H2636 H 0.10042 0.29595 0.46656 0.0
H2637 H 0.09336 0.32321 0.46295 0.0
H2638 H 0.15332 0.36649 0.47385 0.0
H2639 H 0.16071 0.33949 0.47774 0.0
C2640 C 0.10315 0.22384 0.52197 0.0
C2641 C 0.10249 0.23179 0.5425 0.0
C2642 C 0.1123 0.23648 0.50603 0.0
C2643 C 0.12146 0.25735 0.51056 0.0
C2644 C 0.12084 0.26523 0.53122 0.0
C2645 C 0.11129 0.25257 0.54697 0.0
C2646 C 0.13121 0.27098 0.49369 0.0
C2647 C 0.12701 0.28618 0.4901 0.0
C2648 C 0.14431 0.26903 0.48099 0.0
C2649 C 0.15063 0.25439 0.4849 0.0
C2650 C 0.15829 0.25398 0.50561 0.0
C2651 C 0.16412 0.2401 0.50924 0.0
C2652 C 0.16256 0.22667 0.49225 0.0
C2653 C 0.15521 0.22714 0.47156 0.0
C2654 C 0.14934 0.24097 0.46783 0.0
C2655 C 0.18424 0.33004 0.42393 0.0
C2656 C 0.1728 0.33333 0.40882 0.0
C2657 C 0.17618 0.31843 0.44098 0.0
C2658 C 0.15648 0.30968 0.4431 0.0
C2659 C 0.14508 0.31299 0.42791 0.0
C2660 C 0.15327 0.32511 0.41129 0.0
C2661 C 0.1479 0.2969 0.46099 0.0
C2662 C 0.15217 0.28176 0.4646 0.0
C2663 C 0.1354 0.29934 0.47425 0.0
C2664 C 0.13111 0.3157 0.4723 0.0
C2665 C 0.11208 0.3113 0.4683 0.0
C2666 C 0.10803 0.32669 0.46617 0.0
C2667 C 0.12289 0.34657 0.46813 0.0
C2668 C 0.14183 0.35109 0.47228 0.0
C2669 C 0.14596 0.33575 0.47443 0.0
H2670 H 0.11972 0.35846 0.46645 0.0
H2671 H 0.16709 0.21595 0.4951 0.0
H2672 H 0.76039 0.88613 0.58013 0.0
H2673 H 0.74132 0.88141 0.54584 0.0
H2674 H 0.76994 0.85427 0.51423 0.0
H2675 H 0.78861 0.85843 0.54858 0.0
H2676 H 0.76625 0.88648 0.49219 0.0
H2677 H 0.73044 0.82384 0.52372 0.0
H2678 H 0.71421 0.80325 0.55298 0.0
H2679 H 0.67615 0.82677 0.55331 0.0
H2680 H 0.69239 0.84777 0.52425 0.0
H2681 H 0.70712 0.8405 0.39387 0.0
H2682 H 0.72617 0.84672 0.42832 0.0
H2683 H 0.68864 0.86193 0.46042 0.0
H2684 H 0.66945 0.85546 0.42583 0.0
H2685 H 0.69675 0.83684 0.48293 0.0
H2686 H 0.72999 0.89776 0.45102 0.0
H2687 H 0.747 0.92148 0.4244 0.0
H2688 H 0.78987 0.90431 0.42621 0.0
H2689 H 0.77292 0.88017 0.45252 0.0
C2690 C 0.7626 0.87922 0.56581 0.0
C2691 C 0.77586 0.87256 0.56691 0.0
C2692 C 0.75173 0.87652 0.54632 0.0
C2693 C 0.75426 0.86749 0.52758 0.0
C2694 C 0.76783 0.86128 0.52854 0.0
C2695 C 0.77839 0.86358 0.54811 0.0
C2696 C 0.74243 0.86411 0.50707 0.0
C2697 C 0.75112 0.87545 0.48997 0.0
C2698 C 0.72259 0.85019 0.5046 0.0
C2699 C 0.71279 0.83756 0.52202 0.0
C2700 C 0.71875 0.82479 0.53019 0.0
C2701 C 0.70952 0.81301 0.54671 0.0
C2702 C 0.6942 0.81375 0.55505 0.0
C2703 C 0.68805 0.82624 0.54686 0.0
C2704 C 0.69725 0.83808 0.53036 0.0
C2705 C 0.70262 0.84455 0.40833 0.0
C2706 C 0.68651 0.84687 0.40732 0.0
C2707 C 0.71372 0.8485 0.42796 0.0
C2708 C 0.70883 0.85482 0.44693 0.0
C2709 C 0.69262 0.85701 0.44598 0.0
C2710 C 0.6817 0.85332 0.42627 0.0
C2711 C 0.7206 0.85903 0.46777 0.0
C2712 C 0.7119 0.84787 0.48501 0.0
C2713 C 0.7404 0.87332 0.47042 0.0
C2714 C 0.75006 0.88698 0.45363 0.0
C2715 C 0.74287 0.89878 0.44549 0.0
C2716 C 0.75254 0.91237 0.43052 0.0
C2717 C 0.76953 0.91445 0.42371 0.0
C2718 C 0.77672 0.90271 0.43156 0.0
C2719 C 0.76708 0.88906 0.44649 0.0
H2720 H 0.77721 0.92526 0.41246 0.0
H2721 H 0.68706 0.80461 0.56782 0.0
H2722 H 0.16437 0.89103 0.57586 0.0
H2723 H 0.17081 0.87916 0.54186 0.0
H2724 H 0.12127 0.87691 0.50927 0.0
H2725 H 0.11476 0.88884 0.54321 0.0
H2726 H 0.12468 0.84526 0.495 0.0
H2727 H 0.16496 0.91624 0.506 0.0
H2728 H 0.18851 0.94836 0.5262 0.0
H2729 H 0.23031 0.92968 0.52888 0.0
H2730 H 0.20689 0.8973 0.50899 0.0
H2731 H 0.15226 0.84423 0.38788 0.0
H2732 H 0.14189 0.85102 0.42181 0.0
H2733 H 0.19418 0.86067 0.45587 0.0
H2734 H 0.20477 0.85461 0.42161 0.0
H2735 H 0.18825 0.88844 0.46923 0.0
H2736 H 0.14666 0.8167 0.45655 0.0
H2737 H 0.12215 0.78517 0.43606 0.0
H2738 H 0.08186 0.80586 0.43587 0.0
H2739 H 0.10625 0.83768 0.45584 0.0
C2740 C 0.15477 0.88788 0.56149 0.0
C2741 C 0.13913 0.89102 0.56223 0.0
C2742 C 0.15847 0.8811 0.54206 0.0
C2743 C 0.14671 0.87746 0.52293 0.0
C2744 C 0.13055 0.87964 0.52382 0.0
C2745 C 0.12681 0.88639 0.54327 0.0
C2746 C 0.15182 0.87238 0.50186 0.0
C2747 C 0.13851 0.85475 0.48923 0.0
C2748 C 0.16992 0.88472 0.49441 0.0
C2749 C 0.18411 0.90426 0.50619 0.0
C2750 C 0.17913 0.91892 0.51103 0.0
C2751 C 0.19246 0.93718 0.52241 0.0
C2752 C 0.21088 0.94104 0.52886 0.0
C2753 C 0.21603 0.92666 0.52389 0.0
C2754 C 0.20273 0.90835 0.51256 0.0
C2755 C 0.16124 0.84721 0.40265 0.0
C2756 C 0.17905 0.84835 0.40221 0.0
C2757 C 0.15536 0.85121 0.42212 0.0
C2758 C 0.16703 0.85597 0.44164 0.0
C2759 C 0.18483 0.85697 0.44113 0.0
C2760 C 0.19085 0.85341 0.42158 0.0
C2761 C 0.16129 0.86096 0.46241 0.0
C2762 C 0.17446 0.87875 0.47498 0.0
C2763 C 0.14298 0.84882 0.46965 0.0
C2764 C 0.12836 0.82966 0.45753 0.0
C2765 C 0.13263 0.8146 0.45195 0.0
C2766 C 0.11876 0.79667 0.44042 0.0
C2767 C 0.10048 0.79354 0.4346 0.0
C2768 C 0.09604 0.80832 0.4403 0.0
C2769 C 0.10989 0.82631 0.45171 0.0
H2770 H 0.08975 0.77964 0.42569 0.0
H2771 H 0.22118 0.95519 0.53767 0.0
H2772 H 0.5673 0.74878 0.13544 0.0
H2773 H 0.58477 0.76076 0.17108 0.0
H2774 H 0.59942 0.821 0.16013 0.0
H2775 H 0.58298 0.80927 0.1236 0.0
H2776 H 0.62917 0.82157 0.17908 0.0
H2777 H 0.56386 0.79172 0.19321 0.0
H2778 H 0.52979 0.76593 0.1919 0.0
H2779 H 0.54509 0.72649 0.22155 0.0
H2780 H 0.57923 0.75198 0.22297 0.0
H2781 H 0.66595 0.85047 0.29133 0.0
H2782 H 0.64588 0.84469 0.25751 0.0
H2783 H 0.6301 0.78254 0.25238 0.0
H2784 H 0.64974 0.78817 0.28612 0.0
H2785 H 0.59936 0.78718 0.24313 0.0
H2786 H 0.66455 0.81547 0.2237 0.0
H2787 H 0.69862 0.8415 0.22579 0.0
H2788 H 0.68295 0.88414 0.20643 0.0
H2789 H 0.64876 0.85839 0.2045 0.0
C2790 C 0.57449 0.76464 0.14034 0.0
C2791 C 0.57378 0.77805 0.12645 0.0
C2792 C 0.58423 0.77145 0.16099 0.0
C2793 C 0.59311 0.79175 0.16856 0.0
C2794 C 0.59257 0.80524 0.15475 0.0
C2795 C 0.58301 0.79847 0.13391 0.0
C2796 C 0.6033 0.7988 0.1907 0.0
C2797 C 0.62249 0.81431 0.19314 0.0
C2798 C 0.59472 0.78925 0.20911 0.0
C2799 C 0.57415 0.77376 0.20807 0.0
C2800 C 0.55997 0.7775 0.19932 0.0
C2801 C 0.54063 0.76295 0.19862 0.0
C2802 C 0.53526 0.74457 0.20665 0.0
C2803 C 0.54924 0.74073 0.21541 0.0
C2804 C 0.56859 0.75525 0.2162 0.0
C2805 C 0.65796 0.83556 0.28308 0.0
C2806 C 0.6593 0.81975 0.29132 0.0
C2807 C 0.64664 0.8323 0.26372 0.0
C2808 C 0.63657 0.81319 0.25236 0.0
C2809 C 0.6377 0.79738 0.26087 0.0
C2810 C 0.64902 0.80065 0.28007 0.0
C2811 C 0.62524 0.80947 0.23127 0.0
C2812 C 0.60585 0.79463 0.22907 0.0
C2813 C 0.6336 0.81965 0.21313 0.0
C2814 C 0.65412 0.83509 0.21421 0.0
C2815 C 0.66838 0.83044 0.22006 0.0
C2816 C 0.6877 0.84513 0.22118 0.0
C2817 C 0.69295 0.86448 0.21631 0.0
C2818 C 0.67887 0.86916 0.21024 0.0
C2819 C 0.65952 0.85452 0.20912 0.0
H2820 H 0.70792 0.87584 0.21719 0.0
H2821 H 0.52028 0.73331 0.20608 0.0
H2822 H 0.2663 0.83128 0.15081 0.0
H2823 H 0.2528 0.83723 0.18228 0.0
H2824 H 0.19864 0.78416 0.16165 0.0
H2825 H 0.21134 0.77943 0.12878 0.0
H2826 H 0.1912 0.80976 0.17502 0.0
H2827 H 0.23464 0.79005 0.20628 0.0
H2828 H 0.26538 0.79151 0.21544 0.0
H2829 H 0.28921 0.85125 0.2455 0.0
H2830 H 0.2587 0.85024 0.23627 0.0
H2831 H 0.15168 0.79608 0.27682 0.0
H2832 H 0.16635 0.79281 0.24454 0.0
H2833 H 0.21148 0.85422 0.2577 0.0
H2834 H 0.19634 0.85779 0.28943 0.0
H2835 H 0.22429 0.82625 0.24906 0.0
H2836 H 0.18045 0.84501 0.21866 0.0
H2837 H 0.14904 0.84254 0.2117 0.0
H2838 H 0.12555 0.78293 0.18139 0.0
H2839 H 0.15678 0.78494 0.18846 0.0
C2840 C 0.25138 0.82104 0.15259 0.0
C2841 C 0.23996 0.80488 0.13689 0.0
C2842 C 0.24377 0.82423 0.17103 0.0
C2843 C 0.22476 0.81092 0.17478 0.0
C2844 C 0.21339 0.79467 0.1593 0.0
C2845 C 0.2208 0.7918 0.14053 0.0
C2846 C 0.21636 0.81434 0.19421 0.0
C2847 C 0.19839 0.81299 0.1912 0.0
C2848 C 0.2259 0.81933 0.21543 0.0
C2849 C 0.24443 0.82013 0.22039 0.0
C2850 C 0.24649 0.80356 0.21465 0.0
C2851 C 0.26387 0.8043 0.21991 0.0
C2852 C 0.27924 0.82147 0.23104 0.0
C2853 C 0.27729 0.83796 0.2369 0.0
C2854 C 0.25997 0.83731 0.23166 0.0
C2855 C 0.16463 0.80892 0.27268 0.0
C2856 C 0.17317 0.82707 0.28582 0.0
C2857 C 0.17301 0.80702 0.25432 0.0
C2858 C 0.19005 0.82325 0.24885 0.0
C2859 C 0.19844 0.84148 0.2618 0.0
C2860 C 0.1899 0.84344 0.27998 0.0
C2861 C 0.19916 0.8211 0.22967 0.0
C2862 C 0.21722 0.82286 0.23278 0.0
C2863 C 0.18969 0.8163 0.20861 0.0
C2864 C 0.17091 0.81506 0.20428 0.0
C2865 C 0.16855 0.83131 0.21068 0.0
C2866 C 0.15078 0.83 0.20669 0.0
C2867 C 0.13529 0.81257 0.19616 0.0
C2868 C 0.13756 0.79642 0.18957 0.0
C2869 C 0.15529 0.79764 0.19355 0.0
H2870 H 0.12155 0.81159 0.19308 0.0
H2871 H 0.29265 0.82199 0.23513 0.0
H2872 H 0.23179 0.42016 0.1428 0.0
H2873 H 0.22753 0.40188 0.17498 0.0
H2874 H 0.18824 0.42026 0.19584 0.0
H2875 H 0.19309 0.43916 0.16458 0.0
H2876 H 0.21188 0.42383 0.22869 0.0
H2877 H 0.17312 0.37263 0.17015 0.0
H2878 H 0.16794 0.35355 0.13496 0.0
H2879 H 0.20817 0.33625 0.15752 0.0
H2880 H 0.21376 0.35545 0.19278 0.0
H2881 H 0.14867 0.35112 0.2929 0.0
H2882 H 0.16376 0.37219 0.26393 0.0
H2883 H 0.20575 0.35346 0.26442 0.0
H2884 H 0.19095 0.3327 0.29405 0.0
H2885 H 0.18717 0.35086 0.22229 0.0
H2886 H 0.21953 0.39578 0.28398 0.0
H2887 H 0.22617 0.41611 0.3185 0.0
H2888 H 0.20031 0.44724 0.29032 0.0
H2889 H 0.19253 0.42646 0.25591 0.0
C2890 C 0.22237 0.42042 0.15436 0.0
C2891 C 0.21256 0.43089 0.15091 0.0
C2892 C 0.21983 0.40983 0.17264 0.0
C2893 C 0.20735 0.40946 0.18768 0.0
C2894 C 0.19788 0.42023 0.18444 0.0
C2895 C 0.2005 0.43086 0.16636 0.0
C2896 C 0.20384 0.39789 0.20687 0.0
C2897 C 0.20622 0.40782 0.22733 0.0
C2898 C 0.1974 0.37719 0.20513 0.0
C2899 C 0.19402 0.36564 0.18398 0.0
C2900 C 0.18096 0.36488 0.16754 0.0
C2901 C 0.17793 0.35402 0.1476 0.0
C2902 C 0.18776 0.34374 0.14398 0.0
C2903 C 0.2006 0.34425 0.16032 0.0
C2904 C 0.2037 0.3551 0.18029 0.0
C2905 C 0.16108 0.35145 0.28679 0.0
C2906 C 0.16868 0.3403 0.2956 0.0
C2907 C 0.16974 0.36357 0.27036 0.0
C2908 C 0.18587 0.36441 0.26211 0.0
C2909 C 0.19333 0.35303 0.27064 0.0
C2910 C 0.18492 0.34124 0.2875 0.0
C2911 C 0.19433 0.37669 0.24402 0.0
C2912 C 0.19292 0.36689 0.22378 0.0
C2913 C 0.20162 0.39756 0.246 0.0
C2914 C 0.20504 0.40915 0.2673 0.0
C2915 C 0.21471 0.40652 0.28522 0.0
C2916 C 0.21884 0.41826 0.30479 0.0
C2917 C 0.21369 0.43294 0.30662 0.0
C2918 C 0.20429 0.43585 0.2889 0.0
C2919 C 0.19986 0.42395 0.2694 0.0
H2920 H 0.21696 0.44205 0.32177 0.0
H2921 H 0.18539 0.33534 0.12853 0.0
H2922 H 0.80633 0.59631 0.89883 0.0
H2923 H 0.81972 0.61598 0.86827 0.0
H2924 H 0.76273 0.59626 0.83945 0.0
H2925 H 0.74926 0.57634 0.86974 0.0
H2926 H 0.78613 0.59519 0.80944 0.0
H2927 H 0.78834 0.64168 0.86589 0.0
H2928 H 0.79685 0.65907 0.90263 0.0
H2929 H 0.85649 0.68263 0.89505 0.0
H2930 H 0.84831 0.66513 0.85834 0.0
H2931 H 0.80479 0.66587 0.7347 0.0
H2932 H 0.79405 0.64945 0.76783 0.0
H2933 H 0.85197 0.66499 0.78833 0.0
H2934 H 0.86252 0.68072 0.75463 0.0
H2935 H 0.82948 0.66863 0.82263 0.0
H2936 H 0.82811 0.62046 0.76896 0.0
H2937 H 0.8213 0.60529 0.73131 0.0
H2938 H 0.76195 0.58696 0.73324 0.0
H2939 H 0.76837 0.60189 0.77102 0.0
C2940 C 0.79667 0.59604 0.88588 0.0
C2941 C 0.77675 0.58489 0.88677 0.0
C2942 C 0.80433 0.60737 0.86851 0.0
C2943 C 0.79221 0.60773 0.85169 0.0
C2944 C 0.77233 0.59624 0.85228 0.0
C2945 C 0.76467 0.58501 0.86969 0.0
C2946 C 0.80023 0.62038 0.83368 0.0
C2947 C 0.79544 0.61125 0.81238 0.0
C2948 C 0.81276 0.64132 0.83745 0.0
C2949 C 0.8177 0.65193 0.85946 0.0
C2950 C 0.80326 0.65044 0.87212 0.0
C2951 C 0.80803 0.66034 0.89293 0.0
C2952 C 0.8272 0.6719 0.90119 0.0
C2953 C 0.84165 0.67364 0.88864 0.0
C2954 C 0.83696 0.66375 0.86783 0.0
C2955 C 0.81511 0.66559 0.74618 0.0
C2956 C 0.83426 0.67391 0.74192 0.0
C2957 C 0.80908 0.65653 0.76523 0.0
C2958 C 0.82221 0.65584 0.78036 0.0
C2959 C 0.84165 0.66542 0.77683 0.0
C2960 C 0.84764 0.67438 0.75766 0.0
C2961 C 0.81524 0.64341 0.79865 0.0
C2962 C 0.82022 0.65256 0.81986 0.0
C2963 C 0.80304 0.62251 0.79488 0.0
C2964 C 0.79872 0.61222 0.77278 0.0
C2965 C 0.81357 0.61304 0.76138 0.0
C2966 C 0.80977 0.60449 0.74003 0.0
C2967 C 0.79115 0.59507 0.7299 0.0
C2968 C 0.77629 0.59408 0.74119 0.0
C2969 C 0.77999 0.6025 0.7626 0.0
H2970 H 0.78822 0.58859 0.71331 0.0
H2971 H 0.83086 0.67956 0.9173 0.0
H2972 H 0.46676 0.23211 0.88264 0.0
H2973 H 0.446 0.2252 0.84946 0.0
H2974 H 0.39981 0.17572 0.87643 0.0
H2975 H 0.42063 0.18248 0.90966 0.0
H2976 H 0.40195 0.16523 0.83589 0.0
H2977 H 0.40111 0.22063 0.87274 0.0
H2978 H 0.41489 0.25437 0.89161 0.0
H2979 H 0.44186 0.28034 0.83506 0.0
H2980 H 0.42848 0.24673 0.81593 0.0
H2981 H 0.32604 0.16217 0.76347 0.0
H2982 H 0.34712 0.16833 0.79653 0.0
H2983 H 0.39644 0.19679 0.76049 0.0
H2984 H 0.37545 0.19033 0.72748 0.0
H2985 H 0.39235 0.21765 0.80507 0.0
H2986 H 0.39481 0.16158 0.7696 0.0
H2987 H 0.38005 0.12764 0.75092 0.0
H2988 H 0.34877 0.10317 0.80558 0.0
H2989 H 0.36316 0.13703 0.82446 0.0
C2990 C 0.45211 0.21992 0.88162 0.0
C2991 C 0.44528 0.20794 0.89883 0.0
C2992 C 0.44026 0.21596 0.86262 0.0
C2993 C 0.42126 0.20009 0.86054 0.0
C2994 C 0.41442 0.18804 0.87767 0.0
C2995 C 0.42631 0.19192 0.89663 0.0
C2996 C 0.40863 0.1959 0.84036 0.0
C2997 C 0.39972 0.17668 0.82933 0.0
C2998 C 0.40591 0.21088 0.83153 0.0
C2999 C 0.41394 0.23113 0.84297 0.0
C3000 C 0.41011 0.23352 0.86438 0.0
C3001 C 0.41782 0.25263 0.87511 0.0
C3002 C 0.42928 0.26948 0.86456 0.0
C3003 C 0.433 0.26727 0.84322 0.0
C3004 C 0.42535 0.24819 0.83242 0.0
C3005 C 0.34138 0.16953 0.76265 0.0
C3006 C 0.34917 0.17536 0.74294 0.0
C3007 C 0.35335 0.17304 0.78144 0.0
C3008 C 0.37326 0.18287 0.7808 0.0
C3009 C 0.38108 0.18902 0.76119 0.0
C3010 C 0.36909 0.18512 0.74233 0.0
C3011 C 0.38592 0.18716 0.80079 0.0
C3012 C 0.39471 0.20633 0.81174 0.0
C3013 C 0.38849 0.17218 0.80959 0.0
C3014 C 0.37984 0.15184 0.7983 0.0
C3015 C 0.38461 0.14899 0.77752 0.0
C3016 C 0.37636 0.12977 0.76693 0.0
C3017 C 0.36342 0.11327 0.77702 0.0
C3018 C 0.35876 0.11596 0.79776 0.0
C3019 C 0.36696 0.13516 0.80842 0.0
H3020 H 0.35706 0.0984 0.7688 0.0
H3021 H 0.43524 0.28426 0.8729 0.0
H3022 H 0.78571 0.21009 0.89553 0.0
H3023 H 0.78989 0.19498 0.86209 0.0
H3024 H 0.82764 0.2537 0.84297 0.0
H3025 H 0.82312 0.26881 0.87589 0.0
H3026 H 0.8031 0.22943 0.80929 0.0
H3027 H 0.84498 0.22593 0.86556 0.0
H3028 H 0.85234 0.21601 0.9002 0.0
H3029 H 0.81419 0.15423 0.87821 0.0
H3030 H 0.80641 0.16381 0.84352 0.0
H3031 H 0.86493 0.22032 0.74019 0.0
H3032 H 0.85107 0.22719 0.7712 0.0
H3033 H 0.81052 0.16425 0.77072 0.0
H3034 H 0.82425 0.15732 0.73931 0.0
H3035 H 0.83094 0.18523 0.81293 0.0
H3036 H 0.79243 0.18852 0.75474 0.0
H3037 H 0.78544 0.19844 0.71995 0.0
H3038 H 0.81693 0.26008 0.74513 0.0
H3039 H 0.82451 0.25065 0.77998 0.0
C3040 C 0.79478 0.21975 0.88411 0.0
C3041 C 0.80427 0.24066 0.8885 0.0
C3042 C 0.79724 0.21111 0.86507 0.0
C3043 C 0.80923 0.22321 0.85011 0.0
C3044 C 0.81835 0.24405 0.85428 0.0
C3045 C 0.81593 0.25267 0.87325 0.0
C3046 C 0.81277 0.2144 0.83031 0.0
C3047 C 0.80925 0.21983 0.81011 0.0
C3048 C 0.82024 0.20135 0.83126 0.0
C3049 C 0.82494 0.1956 0.85207 0.0
C3050 C 0.83804 0.21024 0.86819 0.0
C3051 C 0.84231 0.20468 0.88782 0.0
C3052 C 0.83369 0.18451 0.89144 0.0
C3053 C 0.82082 0.16985 0.87541 0.0
C3054 C 0.81648 0.17534 0.85576 0.0
C3055 C 0.8531 0.20795 0.74674 0.0
C3056 C 0.84561 0.1883 0.73744 0.0
C3057 C 0.84513 0.21189 0.76434 0.0
C3058 C 0.82973 0.19623 0.77316 0.0
C3059 C 0.82238 0.17652 0.76409 0.0
C3060 C 0.83015 0.1726 0.74617 0.0
C3061 C 0.82173 0.20072 0.7921 0.0
C3062 C 0.82445 0.19452 0.8121 0.0
C3063 C 0.81351 0.21304 0.79097 0.0
C3064 C 0.80915 0.21887 0.76997 0.0
C3065 C 0.79805 0.20422 0.75282 0.0
C3066 C 0.79395 0.20975 0.73309 0.0
C3067 C 0.80073 0.22986 0.73034 0.0
C3068 C 0.8117 0.24451 0.74729 0.0
C3069 C 0.81589 0.23909 0.76705 0.0
H3070 H 0.79744 0.23408 0.71508 0.0
H3071 H 0.83702 0.18023 0.90664 0.0
H3072 H 0.25932 0.14027 0.44733 0.0
H3073 H 0.2794 0.15581 0.48186 0.0
H3074 H 0.24683 0.10061 0.51068 0.0
H3075 H 0.2272 0.08498 0.47626 0.0
H3076 H 0.25304 0.13811 0.53466 0.0
H3077 H 0.28591 0.10827 0.49827 0.0
H3078 H 0.30233 0.10394 0.468 0.0
H3079 H 0.34416 0.16651 0.47648 0.0
H3080 H 0.32779 0.17126 0.50661 0.0
H3081 H 0.2992 0.13974 0.63312 0.0
H3082 H 0.28272 0.13341 0.5973 0.0
H3083 H 0.33418 0.18039 0.57478 0.0
H3084 H 0.35127 0.18546 0.61055 0.0
H3085 H 0.3201 0.15273 0.54556 0.0
H3086 H 0.28973 0.18369 0.58225 0.0
H3087 H 0.27349 0.19001 0.6113 0.0
H3088 H 0.22785 0.12894 0.60178 0.0
H3089 H 0.24369 0.12237 0.57225 0.0
C3090 C 0.25653 0.13156 0.4611 0.0
C3091 C 0.24185 0.11146 0.45925 0.0
C3092 C 0.26797 0.14038 0.4807 0.0
C3093 C 0.26457 0.12929 0.49871 0.0
C3094 C 0.24966 0.10936 0.49692 0.0
C3095 C 0.23853 0.10046 0.47731 0.0
C3096 C 0.27635 0.13826 0.51961 0.0
C3097 C 0.26771 0.14132 0.53714 0.0
C3098 C 0.29564 0.14305 0.52253 0.0
C3099 C 0.30548 0.14017 0.50448 0.0
C3100 C 0.29849 0.12114 0.49352 0.0
C3101 C 0.30781 0.1186 0.47643 0.0
C3102 C 0.32424 0.13495 0.47026 0.0
C3103 C 0.33141 0.15387 0.48123 0.0
C3104 C 0.32212 0.15649 0.49832 0.0
C3105 C 0.30696 0.14891 0.62061 0.0
C3106 C 0.32648 0.16319 0.6246 0.0
C3107 C 0.29743 0.14543 0.60009 0.0
C3108 C 0.30692 0.1568 0.58325 0.0
C3109 C 0.32642 0.17144 0.58741 0.0
C3110 C 0.33617 0.17444 0.60785 0.0
C3111 C 0.29673 0.15236 0.56111 0.0
C3112 C 0.30561 0.15005 0.54323 0.0
C3113 C 0.2777 0.14861 0.55773 0.0
C3114 C 0.26798 0.15252 0.57521 0.0
C3115 C 0.27626 0.1716 0.5864 0.0
C3116 C 0.2671 0.17522 0.60296 0.0
C3117 C 0.24975 0.1598 0.60862 0.0
C3118 C 0.24133 0.14083 0.59744 0.0
C3119 C 0.25032 0.13719 0.58069 0.0
H3120 H 0.24278 0.1625 0.62163 0.0
H3121 H 0.33145 0.13296 0.45703 0.0
H3122 H 0.87688 0.11082 0.46692 0.0
H3123 H 0.86242 0.11707 0.49763 0.0
H3124 H 0.91856 0.15889 0.52897 0.0
H3125 H 0.93313 0.15204 0.49876 0.0
H3126 H 0.89693 0.13671 0.5574 0.0
H3127 H 0.88965 0.17446 0.50321 0.0
H3128 H 0.88016 0.18031 0.46719 0.0
H3129 H 0.82138 0.13771 0.47385 0.0
H3130 H 0.83055 0.13139 0.5098 0.0
H3131 H 0.86248 0.19044 0.6256 0.0
H3132 H 0.87702 0.18376 0.59497 0.0
H3133 H 0.82949 0.12343 0.58469 0.0
H3134 H 0.81577 0.1295 0.61646 0.0
H3135 H 0.84706 0.1556 0.5463 0.0
H3136 H 0.856 0.11633 0.59985 0.0
H3137 H 0.86655 0.11141 0.63567 0.0
H3138 H 0.92376 0.15843 0.62971 0.0
H3139 H 0.91339 0.1642 0.59406 0.0
C3140 C 0.88616 0.12121 0.48043 0.0
C3141 C 0.90617 0.13104 0.48027 0.0
C3142 C 0.87786 0.12495 0.49788 0.0
C3143 C 0.88938 0.13875 0.51545 0.0
C3144 C 0.90936 0.14831 0.51553 0.0
C3145 C 0.91767 0.14451 0.49813 0.0
C3146 C 0.88059 0.14305 0.53385 0.0
C3147 C 0.88618 0.14104 0.55492 0.0
C3148 C 0.86639 0.14852 0.5307 0.0
C3149 C 0.86081 0.15232 0.50911 0.0
C3150 C 0.87472 0.16623 0.49692 0.0
C3151 C 0.86939 0.16964 0.47653 0.0
C3152 C 0.85019 0.15935 0.46821 0.0
C3153 C 0.83626 0.14565 0.4803 0.0
C3154 C 0.8415 0.14216 0.50069 0.0
C3155 C 0.85549 0.1756 0.61722 0.0
C3156 C 0.83846 0.16028 0.6239 0.0
C3157 C 0.86362 0.1719 0.59956 0.0
C3158 C 0.85446 0.153 0.58791 0.0
C3159 C 0.83688 0.138 0.59376 0.0
C3160 C 0.82903 0.14153 0.61179 0.0
C3161 C 0.86327 0.14897 0.56955 0.0
C3162 C 0.85779 0.15121 0.5486 0.0
C3163 C 0.87765 0.14387 0.57278 0.0
C3164 C 0.8838 0.14103 0.59454 0.0
C3165 C 0.87071 0.12601 0.60642 0.0
C3166 C 0.87667 0.12306 0.62671 0.0
C3167 C 0.89575 0.1349 0.63521 0.0
C3168 C 0.90893 0.14959 0.62331 0.0
C3169 C 0.90301 0.15272 0.60308 0.0
H3170 H 0.90036 0.13252 0.65089 0.0
H3171 H 0.84609 0.16202 0.45242 0.0
H3172 H 0.85759 0.73152 0.45461 0.0
H3173 H 0.84919 0.71023 0.48449 0.0
H3174 H 0.89331 0.75949 0.52707 0.0
H3175 H 0.90197 0.78068 0.49714 0.0
H3176 H 0.89064 0.72512 0.53694 0.0
H3177 H 0.84702 0.74934 0.52378 0.0
H3178 H 0.82413 0.7547 0.50145 0.0
H3179 H 0.78672 0.69128 0.48912 0.0
H3180 H 0.80957 0.68554 0.51109 0.0
H3181 H 0.85033 0.70365 0.63847 0.0
H3182 H 0.86302 0.71823 0.60511 0.0
H3183 H 0.82266 0.66258 0.56827 0.0
H3184 H 0.81083 0.64757 0.60198 0.0
H3185 H 0.82334 0.69706 0.55391 0.0
H3186 H 0.86619 0.67418 0.57382 0.0
H3187 H 0.88979 0.67052 0.59682 0.0
H3188 H 0.92996 0.73316 0.59715 0.0
H3189 H 0.90621 0.73752 0.5753 0.0
C3190 C 0.86569 0.73766 0.47027 0.0
C3191 C 0.88032 0.75778 0.47362 0.0
C3192 C 0.86087 0.72553 0.48733 0.0
C3193 C 0.87035 0.73339 0.50813 0.0
C3194 C 0.88577 0.75311 0.51118 0.0
C3195 C 0.89073 0.7652 0.49406 0.0
C3196 C 0.86322 0.72173 0.52705 0.0
C3197 C 0.87599 0.71911 0.54081 0.0
C3198 C 0.84398 0.7136 0.53183 0.0
C3199 C 0.83009 0.71701 0.51887 0.0
C3200 C 0.83397 0.73653 0.51619 0.0
C3201 C 0.82101 0.73964 0.5036 0.0
C3202 C 0.80401 0.72334 0.49383 0.0
C3203 C 0.79991 0.70389 0.49667 0.0
C3204 C 0.81286 0.7007 0.50918 0.0
C3205 C 0.84491 0.69424 0.62343 0.0
C3206 C 0.8304 0.6742 0.62289 0.0
C3207 C 0.85187 0.70269 0.60431 0.0
C3208 C 0.84404 0.69134 0.58427 0.0
C3209 C 0.82906 0.67148 0.58362 0.0
C3210 C 0.82232 0.66295 0.60281 0.0
C3211 C 0.85082 0.70064 0.56398 0.0
C3212 C 0.83797 0.70288 0.55 0.0
C3213 C 0.87007 0.70869 0.55928 0.0
C3214 C 0.88422 0.70623 0.57311 0.0
C3215 C 0.87987 0.6873 0.5792 0.0
C3216 C 0.89329 0.6851 0.59209 0.0
C3217 C 0.91129 0.70165 0.59865 0.0
C3218 C 0.91591 0.72042 0.59232 0.0
C3219 C 0.90243 0.72277 0.57977 0.0
H3220 H 0.9217 0.6999 0.60852 0.0
H3221 H 0.79399 0.72577 0.48409 0.0
loop_
_geom_bond_atom_site_label_1
_geom_bond_atom_site_label_2
_geom_bond_distance
_geom_bond_site_symmetry_2
_ccdc_geom_bond_type
H0 C1 0.949 . S
C1 H0 0.949 . S
C1 C2 1.395 . S
C1 C3 1.391 . S
C2 C1 1.395 . S
C2 C5 1.390 . S
C3 C1 1.391 . S
C3 C7 1.387 . S
C3 C8 1.491 . S
H4 C5 0.950 . S
C5 C2 1.390 . S
C5 H4 0.950 . S
C5 C6 1.378 . S
C6 C5 1.378 . S
C6 C7 1.409 . S
C7 C3 1.387 . S
C7 C6 1.409 . S
C7 H9 0.951 . S
C8 C3 1.491 . S
C8 C10 1.382 . S
C8 C12 1.404 . S
H9 C7 0.951 . S
C10 C8 1.382 . S
C10 C11 1.390 . S
C10 H15 0.949 . S
C11 C10 1.390 . S
C11 C16 1.399 . S
C12 C8 1.404 . S
C12 H13 0.950 . S
C12 C14 1.375 . S
H13 C12 0.950 . S
C14 C12 1.375 . S
C14 C16 1.382 . S
C14 H18 0.950 . S
H15 C10 0.949 . S
C16 C11 1.399 . S
C16 C14 1.382 . S
C16 H17 0.952 . S
H17 C16 0.952 . S
H18 C14 0.950 . S
H19 C20 0.949 . S
C20 H19 0.949 . S
C20 C21 1.395 . S
C20 C22 1.391 . S
C21 C20 1.395 . S
C21 C24 1.390 . S
C22 C20 1.391 . S
C22 C26 1.387 . S
C22 C27 1.491 . S
H23 C24 0.950 . S
C24 C21 1.390 . S
C24 H23 0.950 . S
C24 C25 1.378 . S
C25 C24 1.378 . S
C25 C26 1.409 . S
C26 C22 1.387 . S
C26 C25 1.409 . S
C26 H28 0.951 . S
C27 C22 1.491 . S
C27 C29 1.382 . S
C27 C31 1.404 . S
H28 C26 0.951 . S
C29 C27 1.382 . S
C29 C30 1.390 . S
C29 H34 0.949 . S
C30 C29 1.390 . S
C30 C35 1.399 . S
C31 C27 1.404 . S
C31 H32 0.950 . S
C31 C33 1.375 . S
H32 C31 0.950 . S
C33 C31 1.375 . S
C33 C35 1.382 . S
C33 H37 0.950 . S
H34 C29 0.949 . S
C35 C30 1.399 . S
C35 C33 1.382 . S
C35 H36 0.952 . S
H36 C35 0.952 . S
H37 C33 0.950 . S
H38 C39 0.949 . S
C39 H38 0.949 . S
C39 C40 1.395 . S
C39 C41 1.391 . S
C40 C39 1.395 . S
C40 C43 1.390 . S
C41 C39 1.391 . S
C41 C45 1.387 . S
C41 C46 1.491 . S
H42 C43 0.950 . S
C43 C40 1.390 . S
C43 H42 0.950 . S
C43 C44 1.378 . S
C44 C43 1.378 . S
C44 C45 1.409 . S
C45 C41 1.387 . S
C45 C44 1.409 . S
C45 H47 0.951 . S
C46 C41 1.491 . S
C46 C48 1.382 . S
C46 C50 1.404 . S
H47 C45 0.951 . S
C48 C46 1.382 . S
C48 C49 1.390 . S
C48 H53 0.949 . S
C49 C48 1.390 . S
C49 C54 1.399 . S
C50 C46 1.404 . S
C50 H51 0.950 . S
C50 C52 1.375 . S
H51 C50 0.950 . S
C52 C50 1.375 . S
C52 C54 1.382 . S
C52 H56 0.950 . S
H53 C48 0.949 . S
C54 C49 1.399 . S
C54 C52 1.382 . S
C54 H55 0.952 . S
H55 C54 0.952 . S
H56 C52 0.950 . S
H57 C58 0.949 . S
C58 H57 0.949 . S
C58 C59 1.395 . S
C58 C60 1.391 . S
C59 C58 1.395 . S
C59 C62 1.390 . S
C60 C58 1.391 . S
C60 C64 1.387 . S
C60 C65 1.491 . S
H61 C62 0.950 . S
C62 C59 1.390 . S
C62 H61 0.950 . S
C62 C63 1.378 . S
C63 C62 1.378 . S
C63 C64 1.409 . S
C64 C60 1.387 . S
C64 C63 1.409 . S
C64 H66 0.951 . S
C65 C60 1.491 . S
C65 C67 1.382 . S
C65 C69 1.404 . S
H66 C64 0.951 . S
C67 C65 1.382 . S
C67 C68 1.390 . S
C67 H72 0.949 . S
C68 C67 1.390 . S
C68 C73 1.399 . S
C69 C65 1.404 . S
C69 H70 0.950 . S
C69 C71 1.375 . S
H70 C69 0.950 . S
C71 C69 1.375 . S
C71 C73 1.382 . S
C71 H75 0.950 . S
H72 C67 0.949 . S
C73 C68 1.399 . S
C73 C71 1.382 . S
C73 H74 0.952 . S
H74 C73 0.952 . S
H75 C71 0.950 . S
H76 C77 0.949 . S
C77 H76 0.949 . S
C77 C78 1.395 . S
C77 C79 1.391 . S
C78 C77 1.395 . S
C78 C81 1.390 . S
C79 C77 1.391 . S
C79 C83 1.387 . S
C79 C84 1.491 . S
H80 C81 0.950 . S
C81 C78 1.390 . S
C81 H80 0.950 . S
C81 C82 1.378 . S
C82 C81 1.378 . S
C82 C83 1.409 . S
C83 C79 1.387 . S
C83 C82 1.409 . S
C83 H85 0.951 . S
C84 C79 1.491 . S
C84 C86 1.382 . S
C84 C88 1.404 . S
H85 C83 0.951 . S
C86 C84 1.382 . S
C86 C87 1.390 . S
C86 H91 0.949 . S
C87 C86 1.390 . S
C87 C92 1.399 . S
C88 C84 1.404 . S
C88 H89 0.950 . S
C88 C90 1.375 . S
H89 C88 0.950 . S
C90 C88 1.375 . S
C90 C92 1.382 . S
C90 H94 0.950 . S
H91 C86 0.949 . S
C92 C87 1.399 . S
C92 C90 1.382 . S
C92 H93 0.952 . S
H93 C92 0.952 . S
H94 C90 0.950 . S
H95 C96 0.949 . S
C96 H95 0.949 . S
C96 C97 1.395 . S
C96 C98 1.391 . S
C97 C96 1.395 . S
C97 C100 1.390 . S
C98 C96 1.391 . S
C98 C102 1.387 . S
C98 C103 1.491 . S
H99 C100 0.950 . S
C100 C97 1.390 . S
C100 H99 0.950 . S
C100 C101 1.378 . S
C101 C100 1.378 . S
C101 C102 1.409 . S
C102 C98 1.387 . S
C102 C101 1.409 . S
C102 H104 0.951 . S
C103 C98 1.491 . S
C103 C105 1.382 . S
C103 C107 1.404 . S
H104 C102 0.951 . S
C105 C103 1.382 . S
C105 C106 1.390 . S
C105 H110 0.949 . S
C106 C105 1.390 . S
C106 C111 1.399 . S
C107 C103 1.404 . S
C107 H108 0.950 . S
C107 C109 1.375 . S
H108 C107 0.950 . S
C109 C107 1.375 . S
C109 C111 1.382 . S
C109 H113 0.950 . S
H110 C105 0.949 . S
C111 C106 1.399 . S
C111 C109 1.382 . S
C111 H112 0.952 . S
H112 C111 0.952 . S
H113 C109 0.950 . S
H114 C115 0.949 . S
C115 H114 0.949 . S
C115 C116 1.395 . S
C115 C117 1.391 . S
C116 C115 1.395 . S
C116 C119 1.390 . S
C117 C115 1.391 . S
C117 C121 1.387 . S
C117 C122 1.491 . S
H118 C119 0.950 . S
C119 C116 1.390 . S
C119 H118 0.950 . S
C119 C120 1.378 . S
C120 C119 1.378 . S
C120 C121 1.409 . S
C121 C117 1.387 . S
C121 C120 1.409 . S
C121 H123 0.951 . S
C122 C117 1.491 . S
C122 C124 1.382 . S
C122 C126 1.404 . S
H123 C121 0.951 . S
C124 C122 1.382 . S
C124 C125 1.390 . S
C124 H129 0.949 . S
C125 C124 1.390 . S
C125 C130 1.399 . S
C126 C122 1.404 . S
C126 H127 0.950 . S
C126 C128 1.375 . S
H127 C126 0.950 . S
C128 C126 1.375 . S
C128 C130 1.382 . S
C128 H132 0.950 . S
H129 C124 0.949 . S
C130 C125 1.399 . S
C130 C128 1.382 . S
C130 H131 0.952 . S
H131 C130 0.952 . S
H132 C128 0.950 . S
H133 C134 0.949 . S
C134 H133 0.949 . S
C134 C135 1.395 . S
C134 C136 1.391 . S
C135 C134 1.395 . S
C135 C138 1.390 . S
C136 C134 1.391 . S
C136 C140 1.387 . S
C136 C141 1.491 . S
H137 C138 0.950 . S
C138 C135 1.390 . S
C138 H137 0.950 . S
C138 C139 1.378 . S
C139 C138 1.378 . S
C139 C140 1.409 . S
C140 C136 1.387 . S
C140 C139 1.409 . S
C140 H142 0.951 . S
C141 C136 1.491 . S
C141 C143 1.382 . S
C141 C145 1.404 . S
H142 C140 0.951 . S
C143 C141 1.382 . S
C143 C144 1.390 . S
C143 H148 0.949 . S
C144 C143 1.390 . S
C144 C149 1.399 . S
C145 C141 1.404 . S
C145 H146 0.950 . S
C145 C147 1.375 . S
H146 C145 0.950 . S
C147 C145 1.375 . S
C147 C149 1.382 . S
C147 H151 0.950 . S
H148 C143 0.949 . S
C149 C144 1.399 . S
C149 C147 1.382 . S
C149 H150 0.952 . S
H150 C149 0.952 . S
H151 C147 0.950 . S
H152 C153 0.949 . S
C153 H152 0.949 . S
C153 C154 1.395 . S
C153 C155 1.391 . S
C154 C153 1.395 . S
C154 C157 1.390 . S
C155 C153 1.391 . S
C155 C159 1.387 . S
C155 C160 1.491 . S
H156 C157 0.950 . S
C157 C154 1.390 . S
C157 H156 0.950 . S
C157 C158 1.378 . S
C158 C157 1.378 . S
C158 C159 1.409 . S
C159 C155 1.387 . S
C159 C158 1.409 . S
C159 H161 0.951 . S
C160 C155 1.491 . S
C160 C162 1.382 . S
C160 C164 1.404 . S
H161 C159 0.951 . S
C162 C160 1.382 . S
C162 C163 1.390 . S
C162 H167 0.949 . S
C163 C162 1.390 . S
C163 C168 1.399 . S
C164 C160 1.404 . S
C164 H165 0.950 . S
C164 C166 1.375 . S
H165 C164 0.950 . S
C166 C164 1.375 . S
C166 C168 1.382 . S
C166 H170 0.950 . S
H167 C162 0.949 . S
C168 C163 1.399 . S
C168 C166 1.382 . S
C168 H169 0.952 . S
H169 C168 0.952 . S
H170 C166 0.950 . S
H171 C172 0.949 . S
C172 H171 0.949 . S
C172 C173 1.395 . S
C172 C174 1.391 . S
C173 C172 1.395 . S
C173 C176 1.390 . S
C174 C172 1.391 . S
C174 C178 1.387 . S
C174 C179 1.491 . S
H175 C176 0.950 . S
C176 C173 1.390 . S
C176 H175 0.950 . S
C176 C177 1.378 . S
C177 C176 1.378 . S
C177 C178 1.409 . S
C178 C174 1.387 . S
C178 C177 1.409 . S
C178 H180 0.951 . S
C179 C174 1.491 . S
C179 C181 1.382 . S
C179 C183 1.404 . S
H180 C178 0.951 . S
C181 C179 1.382 . S
C181 C182 1.390 . S
C181 H186 0.949 . S
C182 C181 1.390 . S
C182 C187 1.399 . S
C183 C179 1.404 . S
C183 H184 0.950 . S
C183 C185 1.375 . S
H184 C183 0.950 . S
C185 C183 1.375 . S
C185 C187 1.382 . S
C185 H189 0.950 . S
H186 C181 0.949 . S
C187 C182 1.399 . S
C187 C185 1.382 . S
C187 H188 0.952 . S
H188 C187 0.952 . S
H189 C185 0.950 . S
H190 C191 0.949 . S
C191 H190 0.949 . S
C191 C192 1.395 . S
C191 C193 1.391 . S
C192 C191 1.395 . S
C192 C195 1.390 . S
C193 C191 1.391 . S
C193 C197 1.387 . S
C193 C198 1.491 . S
H194 C195 0.950 . S
C195 C192 1.390 . S
C195 H194 0.950 . S
C195 C196 1.378 . S
C196 C195 1.378 . S
C196 C197 1.409 . S
C197 C193 1.387 . S
C197 C196 1.409 . S
C197 H199 0.963 . S
C198 C193 1.491 . S
C198 C200 1.382 . S
C198 C202 1.404 . S
H199 C197 0.963 . S
C200 C198 1.382 . S
C200 C201 1.390 . S
C200 H205 0.949 . S
C201 C200 1.390 . S
C201 C206 1.399 1_556 S
C202 C198 1.404 . S
C202 H203 0.950 . S
C202 C204 1.375 1_556 S
H203 C202 0.950 . S
C204 C202 1.375 1_554 S
C204 C206 1.382 . S
C204 H208 0.950 . S
H205 C200 0.949 . S
C206 C201 1.399 1_554 S
C206 C204 1.382 . S
C206 H207 0.952 . S
H207 C206 0.952 . S
H208 C204 0.950 . S
H209 C210 0.949 . S
C210 H209 0.949 . S
C210 C211 1.395 . S
C210 C212 1.391 . S
C211 C210 1.395 . S
C211 C214 1.390 . S
C212 C210 1.391 . S
C212 C216 1.387 . S
C212 C217 1.491 . S
H213 C214 0.950 . S
C214 C211 1.390 . S
C214 H213 0.950 . S
C214 C215 1.378 . S
C215 C214 1.378 . S
C215 C216 1.409 . S
C216 C212 1.387 . S
C216 C215 1.409 . S
C216 H218 0.951 . S
C217 C212 1.491 . S
C217 C219 1.382 . S
C217 C221 1.404 . S
H218 C216 0.951 . S
C219 C217 1.382 . S
C219 C220 1.390 . S
C219 H224 0.949 . S
C220 C219 1.390 . S
C220 C225 1.399 . S
C221 C217 1.404 . S
C221 H222 0.950 . S
C221 C223 1.375 . S
H222 C221 0.950 . S
C223 C221 1.375 . S
C223 C225 1.382 . S
C223 H227 0.950 . S
H224 C219 0.949 . S
C225 C220 1.399 . S
C225 C223 1.382 . S
C225 H226 0.952 . S
H226 C225 0.952 . S
H227 C223 0.950 . S
H228 C229 0.949 . S
C229 H228 0.949 . S
C229 C230 1.395 . S
C229 C231 1.391 . S
C230 C229 1.395 . S
C230 C233 1.390 . S
C231 C229 1.391 . S
C231 C235 1.387 . S
C231 C236 1.491 . S
H232 C233 0.950 . S
C233 C230 1.390 . S
C233 H232 0.950 . S
C233 C234 1.378 . S
C234 C233 1.378 . S
C234 C235 1.409 . S
C235 C231 1.387 . S
C235 C234 1.409 . S
C235 H237 0.951 . S
C236 C231 1.491 . S
C236 C238 1.382 . S
C236 C240 1.404 . S
H237 C235 0.951 . S
C238 C236 1.382 . S
C238 C239 1.390 . S
C238 H243 0.949 . S
C239 C238 1.390 . S
C239 C244 1.399 . S
C240 C236 1.404 . S
C240 H241 0.950 . S
C240 C242 1.375 . S
H241 C240 0.950 . S
C242 C240 1.375 . S
C242 C244 1.382 . S
C242 H246 0.950 . S
H243 C238 0.949 . S
C244 C239 1.399 . S
C244 C242 1.382 . S
C244 H245 0.952 . S
H245 C244 0.952 . S
H246 C242 0.950 . S
H247 C248 0.949 . S
C248 H247 0.949 . S
C248 C249 1.395 . S
C248 C250 1.391 . S
C249 C248 1.395 . S
C249 C252 1.390 . S
C250 C248 1.391 . S
C250 C254 1.387 . S
C250 C255 1.491 . S
H251 C252 0.950 . S
C252 C249 1.390 . S
C252 H251 0.950 . S
C252 C253 1.378 . S
C253 C252 1.378 . S
C253 C254 1.409 . S
C254 C250 1.387 . S
C254 C253 1.409 . S
C254 H256 0.951 . S
C255 C250 1.491 . S
C255 C257 1.382 . S
C255 C259 1.404 . S
H256 C254 0.951 . S
C257 C255 1.382 . S
C257 C258 1.390 . S
C257 H262 0.949 . S
C258 C257 1.390 . S
C258 C263 1.399 . S
C259 C255 1.404 . S
C259 H260 0.950 . S
C259 C261 1.375 . S
H260 C259 0.950 . S
C261 C259 1.375 . S
C261 C263 1.382 . S
C261 H265 0.950 . S
H262 C257 0.949 . S
C263 C258 1.399 . S
C263 C261 1.382 . S
C263 H264 0.952 . S
H264 C263 0.952 . S
H265 C261 0.950 . S
H266 C267 0.949 . S
C267 H266 0.949 . S
C267 C268 1.395 . S
C267 C269 1.391 . S
C268 C267 1.395 . S
C268 C271 1.390 . S
C269 C267 1.391 . S
C269 C273 1.387 . S
C269 C274 1.491 . S
H270 C271 0.950 . S
C271 C268 1.390 . S
C271 H270 0.950 . S
C271 C272 1.378 . S
C272 C271 1.378 . S
C272 C273 1.409 . S
C273 C269 1.387 . S
C273 C272 1.409 . S
C273 H275 0.951 . S
C274 C269 1.491 . S
C274 C276 1.382 . S
C274 C278 1.404 . S
H275 C273 0.951 . S
C276 C274 1.382 . S
C276 C277 1.390 . S
C276 H281 0.949 . S
C277 C276 1.390 . S
C277 C282 1.399 . S
C278 C274 1.404 . S
C278 H279 0.950 . S
C278 C280 1.375 . S
H279 C278 0.950 . S
C280 C278 1.375 . S
C280 C282 1.382 . S
C280 H284 0.950 . S
H281 C276 0.949 . S
C282 C277 1.399 . S
C282 C280 1.382 . S
C282 H283 0.952 . S
H283 C282 0.952 . S
H284 C280 0.950 . S
H285 C286 0.949 . S
C286 H285 0.949 . S
C286 C287 1.395 . S
C286 C288 1.391 . S
C287 C286 1.395 . S
C287 C290 1.390 . S
C288 C286 1.391 . S
C288 C292 1.387 . S
C288 C293 1.491 . S
H289 C290 0.950 . S
C290 C287 1.390 . S
C290 H289 0.950 . S
C290 C291 1.378 . S
C291 C290 1.378 . S
C291 C292 1.409 . S
C292 C288 1.387 . S
C292 C291 1.409 . S
C292 H294 0.951 . S
C293 C288 1.491 . S
C293 C295 1.382 . S
C293 C297 1.404 . S
H294 C292 0.951 . S
C295 C293 1.382 . S
C295 C296 1.390 . S
C295 H300 0.949 . S
C296 C295 1.390 . S
C296 C301 1.399 . S
C297 C293 1.404 . S
C297 H298 0.950 . S
C297 C299 1.375 . S
H298 C297 0.950 . S
C299 C297 1.375 . S
C299 C301 1.382 . S
C299 H303 0.950 . S
H300 C295 0.949 . S
C301 C296 1.399 . S
C301 C299 1.382 . S
C301 H302 0.952 . S
H302 C301 0.952 . S
H303 C299 0.950 . S
H304 C305 0.949 . S
C305 H304 0.949 . S
C305 C306 1.395 . S
C305 C307 1.391 . S
C306 C305 1.395 . S
C306 C309 1.390 . S
C307 C305 1.391 . S
C307 C311 1.387 . S
C307 C312 1.491 . S
H308 C309 0.950 . S
C309 C306 1.390 . S
C309 H308 0.950 . S
C309 C310 1.378 . S
C310 C309 1.378 . S
C310 C311 1.409 . S
C311 C307 1.387 . S
C311 C310 1.409 . S
C311 H313 0.951 . S
C312 C307 1.491 . S
C312 C314 1.382 . S
C312 C316 1.404 . S
H313 C311 0.951 . S
C314 C312 1.382 . S
C314 C315 1.390 . S
C314 H319 0.949 . S
C315 C314 1.390 . S
C315 C320 1.399 . S
C316 C312 1.404 . S
C316 H317 0.950 . S
C316 C318 1.375 . S
H317 C316 0.950 . S
C318 C316 1.375 . S
C318 C320 1.382 . S
C318 H322 0.950 . S
H319 C314 0.949 . S
C320 C315 1.399 . S
C320 C318 1.382 . S
C320 H321 0.952 . S
H321 C320 0.952 . S
H322 C318 0.950 . S
H323 C324 0.949 . S
C324 H323 0.949 . S
C324 C325 1.395 . S
C324 C326 1.391 . S
C325 C324 1.395 . S
C325 C328 1.390 . S
C326 C324 1.391 . S
C326 C330 1.387 . S
C326 C331 1.491 . S
H327 C328 0.950 . S
C328 C325 1.390 . S
C328 H327 0.950 . S
C328 C329 1.378 . S
C329 C328 1.378 . S
C329 C330 1.409 . S
C330 C326 1.387 . S
C330 C329 1.409 . S
C330 H332 0.951 . S
C331 C326 1.491 . S
C331 C333 1.382 . S
C331 C335 1.404 . S
H332 C330 0.951 . S
C333 C331 1.382 . S
C333 C334 1.390 . S
C333 H338 0.949 . S
C334 C333 1.390 . S
C334 C339 1.399 . S
C335 C331 1.404 . S
C335 H336 0.950 . S
C335 C337 1.375 . S
H336 C335 0.950 . S
C337 C335 1.375 . S
C337 C339 1.382 . S
C337 H341 0.950 . S
H338 C333 0.949 . S
C339 C334 1.399 . S
C339 C337 1.382 . S
C339 H340 0.952 . S
H340 C339 0.952 . S
H341 C337 0.950 . S
Tb342 O345 2.453 . S
Tb342 O346 2.596 1_545 S
Tb342 O347 2.374 1_545 S
Tb342 O355 2.343 1_554 S
Tb342 O357 2.353 . S
Tb342 O359 2.427 . S
Tb342 O360 2.513 . S
C343 O347 1.251 . S
C343 O349 1.263 1_554 S
Tb344 O346 2.343 1_556 S
Tb344 O349 2.353 . S
Tb344 O352 2.427 1_556 S
Tb344 O353 2.513 1_556 S
Tb344 O354 2.453 . S
Tb344 O355 2.596 1_565 S
Tb344 O356 2.374 1_566 S
O345 Tb342 2.453 . S
O345 C361 1.245 1_545 S
O346 Tb342 2.596 1_565 S
O346 Tb344 2.343 1_554 S
O346 C361 1.259 . S
O347 Tb342 2.374 1_565 S
O347 C343 1.251 . S
C348 O352 1.275 . S
C348 O353 1.246 . S
O349 C343 1.263 1_556 S
O349 Tb344 2.353 . S
C350 O354 1.245 1_545 S
C350 O355 1.259 . S
C351 O356 1.250 . S
C351 O357 1.263 . S
O352 Tb344 2.427 1_554 S
O352 C348 1.275 . S
O353 Tb344 2.513 1_554 S
O353 C348 1.246 . S
O354 Tb344 2.453 . S
O354 C350 1.245 1_565 S
O355 Tb342 2.343 1_556 S
O355 Tb344 2.596 1_545 S
O355 C350 1.259 . S
O356 Tb344 2.374 1_544 S
O356 C351 1.250 . S
O357 Tb342 2.353 . S
O357 C351 1.263 . S
C358 O359 1.275 . S
C358 O360 1.246 . S
O359 Tb342 2.427 . S
O359 C358 1.275 . S
O360 Tb342 2.513 . S
O360 C358 1.246 . S
C361 O345 1.245 1_565 S
C361 O346 1.259 . S
Tb362 O365 2.453 . S
Tb362 O366 2.596 1_655 S
Tb362 O367 2.374 1_655 S
Tb362 O375 2.343 1_554 S
Tb362 O377 2.353 . S
Tb362 O379 2.427 . S
Tb362 O380 2.513 1_554 S
C363 O367 1.251 . S
C363 O369 1.263 . S
Tb364 O366 2.343 1_556 S
Tb364 O369 2.353 1_556 S
Tb364 O372 2.427 1_556 S
Tb364 O373 2.513 1_556 S
Tb364 O374 2.453 . S
Tb364 O375 2.596 1_455 S
Tb364 O376 2.374 1_456 S
O365 Tb362 2.453 . S
O365 C381 1.245 1_655 S
O366 Tb362 2.596 1_455 S
O366 Tb364 2.343 1_554 S
O366 C381 1.259 . S
O367 Tb362 2.374 1_455 S
O367 C363 1.251 . S
C368 O372 1.275 . S
C368 O373 1.246 . S
O369 C363 1.263 . S
O369 Tb364 2.353 1_554 S
C370 O374 1.245 1_655 S
C370 O375 1.259 . S
C371 O376 1.250 . S
C371 O377 1.263 . S
O372 Tb364 2.427 1_554 S
O372 C368 1.275 . S
O373 Tb364 2.513 1_554 S
O373 C368 1.246 . S
O374 Tb364 2.453 . S
O374 C370 1.245 1_455 S
O375 Tb362 2.343 1_556 S
O375 Tb364 2.596 1_655 S
O375 C370 1.259 . S
O376 Tb364 2.374 1_654 S
O376 C371 1.250 . S
O377 Tb362 2.353 . S
O377 C371 1.263 . S
C378 O379 1.275 1_556 S
C378 O380 1.246 . S
O379 Tb362 2.427 . S
O379 C378 1.275 1_554 S
O380 Tb362 2.513 1_556 S
O380 C378 1.246 . S
C381 O365 1.245 1_455 S
C381 O366 1.259 . S
Tb382 O385 2.453 1_554 S
Tb382 O386 2.596 1_554 S
Tb382 O387 2.374 . S
Tb382 O395 2.343 . S
Tb382 O397 2.353 . S
Tb382 O399 2.427 . S
Tb382 O400 2.513 . S
C383 O387 1.251 . S
C383 O389 1.263 . S
Tb384 O386 2.343 1_554 S
Tb384 O389 2.353 . S
Tb384 O392 2.427 . S
Tb384 O393 2.513 . S
Tb384 O394 2.453 . S
Tb384 O395 2.596 . S
Tb384 O396 2.374 . S
O385 Tb382 2.453 1_556 S
O385 C401 1.245 . S
O386 Tb382 2.596 1_556 S
O386 Tb384 2.343 1_556 S
O386 C401 1.259 . S
O387 Tb382 2.374 . S
O387 C383 1.251 . S
C388 O392 1.275 . S
C388 O393 1.246 . S
O389 C383 1.263 . S
O389 Tb384 2.353 . S
C390 O394 1.245 . S
C390 O395 1.259 . S
C391 O396 1.250 . S
C391 O397 1.263 . S
O392 Tb384 2.427 . S
O392 C388 1.275 . S
O393 Tb384 2.513 . S
O393 C388 1.246 . S
O394 Tb384 2.453 . S
O394 C390 1.245 . S
O395 Tb382 2.343 . S
O395 Tb384 2.596 . S
O395 C390 1.259 . S
O396 Tb384 2.374 . S
O396 C391 1.250 . S
O397 Tb382 2.353 . S
O397 C391 1.263 . S
C398 O399 1.275 . S
C398 O400 1.246 . S
O399 Tb382 2.427 . S
O399 C398 1.275 . S
O400 Tb382 2.513 . S
O400 C398 1.246 . S
C401 O385 1.245 . S
C401 O386 1.259 . S
Tb402 O405 2.453 . S
Tb402 O406 2.596 . S
Tb402 O407 2.374 . S
Tb402 O415 2.343 . S
Tb402 O417 2.353 . S
Tb402 O419 2.427 . S
Tb402 O420 2.513 . S
C403 O407 1.251 . S
C403 O409 1.263 . S
Tb404 O406 2.343 . S
Tb404 O409 2.353 . S
Tb404 O412 2.427 . S
Tb404 O413 2.513 . S
Tb404 O414 2.453 . S
Tb404 O415 2.596 . S
Tb404 O416 2.374 . S
O405 Tb402 2.453 . S
O405 C421 1.245 . S
O406 Tb402 2.596 . S
O406 Tb404 2.343 . S
O406 C421 1.259 . S
O407 Tb402 2.374 . S
O407 C403 1.251 . S
C408 O412 1.275 . S
C408 O413 1.246 . S
O409 C403 1.263 . S
O409 Tb404 2.353 . S
C410 O414 1.245 . S
C410 O415 1.259 . S
C411 O416 1.250 . S
C411 O417 1.263 . S
O412 Tb404 2.427 . S
O412 C408 1.275 . S
O413 Tb404 2.513 . S
O413 C408 1.246 . S
O414 Tb404 2.453 . S
O414 C410 1.245 . S
O415 Tb402 2.343 . S
O415 Tb404 2.596 . S
O415 C410 1.259 . S
O416 Tb404 2.374 . S
O416 C411 1.250 . S
O417 Tb402 2.353 . S
O417 C411 1.263 . S
C418 O419 1.275 . S
C418 O420 1.246 . S
O419 Tb402 2.427 . S
O419 C418 1.275 . S
O420 Tb402 2.513 . S
O420 C418 1.246 . S
C421 O405 1.245 . S
C421 O406 1.259 . S
Tb422 O425 2.453 . S
Tb422 O426 2.596 . S
Tb422 O427 2.374 . S
Tb422 O435 2.343 . S
Tb422 O437 2.353 . S
Tb422 O439 2.427 . S
Tb422 O440 2.513 . S
C423 O427 1.251 . S
C423 O429 1.263 . S
Tb424 O426 2.343 . S
Tb424 O429 2.353 . S
Tb424 O432 2.427 . S
Tb424 O433 2.513 . S
Tb424 O434 2.453 . S
Tb424 O435 2.596 . S
Tb424 O436 2.374 . S
O425 Tb422 2.453 . S
O425 C441 1.245 . S
O426 Tb422 2.596 . S
O426 Tb424 2.343 . S
O426 C441 1.259 . S
O427 Tb422 2.374 . S
O427 C423 1.251 . S
C428 O432 1.275 . S
C428 O433 1.246 . S
O429 C423 1.263 . S
O429 Tb424 2.353 . S
C430 O434 1.245 . S
C430 O435 1.259 . S
C431 O436 1.250 . S
C431 O437 1.263 . S
O432 Tb424 2.427 . S
O432 C428 1.275 . S
O433 Tb424 2.513 . S
O433 C428 1.246 . S
O434 Tb424 2.453 . S
O434 C430 1.245 . S
O435 Tb422 2.343 . S
O435 Tb424 2.596 . S
O435 C430 1.259 . S
O436 Tb424 2.374 . S
O436 C431 1.250 . S
O437 Tb422 2.353 . S
O437 C431 1.263 . S
C438 O439 1.275 . S
C438 O440 1.246 . S
O439 Tb422 2.427 . S
O439 C438 1.275 . S
O440 Tb422 2.513 . S
O440 C438 1.246 . S
C441 O425 1.245 . S
C441 O426 1.259 . S
Tb442 O445 2.453 . S
Tb442 O446 2.596 . S
Tb442 O447 2.374 . S
Tb442 O455 2.343 . S
Tb442 O457 2.353 . S
Tb442 O459 2.427 . S
Tb442 O460 2.513 . S
C443 O447 1.251 . S
C443 O449 1.263 . S
Tb444 O446 2.343 . S
Tb444 O449 2.353 . S
Tb444 O452 2.427 . S
Tb444 O453 2.513 . S
Tb444 O454 2.453 . S
Tb444 O455 2.596 . S
Tb444 O456 2.374 . S
O445 Tb442 2.453 . S
O445 C461 1.245 . S
O446 Tb442 2.596 . S
O446 Tb444 2.343 . S
O446 C461 1.259 . S
O447 Tb442 2.374 . S
O447 C443 1.251 . S
C448 O452 1.275 . S
C448 O453 1.246 . S
O449 C443 1.263 . S
O449 Tb444 2.353 . S
C450 O454 1.245 . S
C450 O455 1.259 . S
C451 O456 1.250 . S
C451 O457 1.263 . S
O452 Tb444 2.427 . S
O452 C448 1.275 . S
O453 Tb444 2.513 . S
O453 C448 1.246 . S
O454 Tb444 2.453 . S
O454 C450 1.245 . S
O455 Tb442 2.343 . S
O455 Tb444 2.596 . S
O455 C450 1.259 . S
O456 Tb444 2.374 . S
O456 C451 1.250 . S
O457 Tb442 2.353 . S
O457 C451 1.263 . S
C458 O459 1.275 . S
C458 O460 1.246 . S
O459 Tb442 2.427 . S
O459 C458 1.275 . S
O460 Tb442 2.513 . S
O460 C458 1.246 . S
C461 O445 1.245 . S
C461 O446 1.259 . S
Tb462 O465 2.453 . S
Tb462 O466 2.596 . S
Tb462 O467 2.374 . S
Tb462 O475 2.343 . S
Tb462 O477 2.353 . S
Tb462 O479 2.427 . S
Tb462 O480 2.513 . S
C463 O467 1.251 . S
C463 O469 1.263 . S
Tb464 O466 2.343 . S
Tb464 O469 2.353 . S
Tb464 O472 2.427 . S
Tb464 O473 2.513 . S
Tb464 O474 2.453 . S
Tb464 O475 2.596 . S
Tb464 O476 2.374 . S
O465 Tb462 2.453 . S
O465 C481 1.245 . S
O466 Tb462 2.596 . S
O466 Tb464 2.343 . S
O466 C481 1.259 . S
O467 Tb462 2.374 . S
O467 C463 1.251 . S
C468 O472 1.275 . S
C468 O473 1.246 . S
O469 C463 1.263 . S
O469 Tb464 2.353 . S
C470 O474 1.245 . S
C470 O475 1.259 . S
C471 O476 1.250 . S
C471 O477 1.263 . S
O472 Tb464 2.427 . S
O472 C468 1.275 . S
O473 Tb464 2.513 . S
O473 C468 1.246 . S
O474 Tb464 2.453 . S
O474 C470 1.245 . S
O475 Tb462 2.343 . S
O475 Tb464 2.596 . S
O475 C470 1.259 . S
O476 Tb464 2.374 . S
O476 C471 1.250 . S
O477 Tb462 2.353 . S
O477 C471 1.263 . S
C478 O479 1.275 . S
C478 O480 1.246 . S
O479 Tb462 2.427 . S
O479 C478 1.275 . S
O480 Tb462 2.513 . S
O480 C478 1.246 . S
C481 O465 1.245 . S
C481 O466 1.259 . S
Tb482 O485 2.453 . S
Tb482 O486 2.596 . S
Tb482 O487 2.374 . S
Tb482 O495 2.343 . S
Tb482 O497 2.353 . S
Tb482 O499 2.427 . S
Tb482 O500 2.513 . S
C483 O487 1.251 . S
C483 O489 1.263 . S
Tb484 O486 2.343 . S
Tb484 O489 2.353 . S
Tb484 O492 2.427 . S
Tb484 O493 2.513 . S
Tb484 O494 2.453 . S
Tb484 O495 2.596 . S
Tb484 O496 2.374 . S
O485 Tb482 2.453 . S
O485 C501 1.245 . S
O486 Tb482 2.596 . S
O486 Tb484 2.343 . S
O486 C501 1.259 . S
O487 Tb482 2.374 . S
O487 C483 1.251 . S
C488 O492 1.275 . S
C488 O493 1.246 . S
O489 C483 1.263 . S
O489 Tb484 2.353 . S
C490 O494 1.245 . S
C490 O495 1.259 . S
C491 O496 1.250 . S
C491 O497 1.263 . S
O492 Tb484 2.427 . S
O492 C488 1.275 . S
O493 Tb484 2.513 . S
O493 C488 1.246 . S
O494 Tb484 2.453 . S
O494 C490 1.245 . S
O495 Tb482 2.343 . S
O495 Tb484 2.596 . S
O495 C490 1.259 . S
O496 Tb484 2.374 . S
O496 C491 1.250 . S
O497 Tb482 2.353 . S
O497 C491 1.263 . S
C498 O499 1.275 . S
C498 O500 1.246 . S
O499 Tb482 2.427 . S
O499 C498 1.275 . S
O500 Tb482 2.513 . S
O500 C498 1.246 . S
C501 O485 1.245 . S
C501 O486 1.259 . S
Tb502 O505 2.453 . S
Tb502 O506 2.596 . S
Tb502 O507 2.374 . S
Tb502 O515 2.343 . S
Tb502 O517 2.353 . S
Tb502 O519 2.427 . S
Tb502 O520 2.513 . S
C503 O507 1.251 . S
C503 O509 1.263 . S
Tb504 O506 2.343 . S
Tb504 O509 2.353 . S
Tb504 O512 2.427 . S
Tb504 O513 2.513 . S
Tb504 O514 2.453 . S
Tb504 O515 2.596 . S
Tb504 O516 2.374 . S
O505 Tb502 2.453 . S
O505 C521 1.245 . S
O506 Tb502 2.596 . S
O506 Tb504 2.343 . S
O506 C521 1.259 . S
O507 Tb502 2.374 . S
O507 C503 1.251 . S
C508 O512 1.275 . S
C508 O513 1.246 . S
O509 C503 1.263 . S
O509 Tb504 2.353 . S
C510 O514 1.245 . S
C510 O515 1.259 . S
C511 O516 1.250 . S
C511 O517 1.263 . S
O512 Tb504 2.427 . S
O512 C508 1.275 . S
O513 Tb504 2.513 . S
O513 C508 1.246 . S
O514 Tb504 2.453 . S
O514 C510 1.245 . S
O515 Tb502 2.343 . S
O515 Tb504 2.596 . S
O515 C510 1.259 . S
O516 Tb504 2.374 . S
O516 C511 1.250 . S
O517 Tb502 2.353 . S
O517 C511 1.263 . S
C518 O519 1.275 . S
C518 O520 1.246 . S
O519 Tb502 2.427 . S
O519 C518 1.275 . S
O520 Tb502 2.513 . S
O520 C518 1.246 . S
C521 O505 1.245 . S
C521 O506 1.259 . S
H522 C540 0.951 . S
H523 C542 0.951 . S
H524 C544 0.950 . S
H525 C545 0.950 . S
H526 C547 0.950 . S
H527 C550 0.950 . S
H528 C551 0.950 . S
H529 C553 0.950 . S
H530 C554 0.950 1_556 S
H531 C555 0.951 . S
H532 C557 0.951 . S
H533 C559 0.950 . S
H534 C560 0.950 1_556 S
H535 C562 0.950 . S
H536 C565 0.950 . S
H537 C566 0.950 . S
H538 C568 0.950 . S
H539 C569 0.950 . S
C540 H522 0.951 . S
C540 C541 1.366 . S
C540 C542 1.388 . S
C541 C540 1.366 . S
C541 C545 1.385 . S
C542 H523 0.951 . S
C542 C540 1.388 . S
C542 C543 1.366 . S
C543 C542 1.366 . S
C543 C544 1.414 . S
C543 C546 1.499 . S
C544 H524 0.950 . S
C544 C543 1.414 . S
C544 C545 1.374 . S
C545 H525 0.950 . S
C545 C541 1.385 . S
C545 C544 1.374 . S
C546 C543 1.499 . S
C546 C547 1.373 . S
C546 C548 1.389 . S
C547 H526 0.950 . S
C547 C546 1.373 . S
C547 C563 1.377 . S
C548 C546 1.389 . S
C548 C549 1.524 . S
C548 C562 1.377 . S
C549 C548 1.524 . S
C549 C550 1.397 . S
C549 C554 1.363 . S
C550 H527 0.950 . S
C550 C549 1.397 . S
C550 C551 1.334 . S
C551 H528 0.950 . S
C551 C550 1.334 . S
C551 C552 1.287 . S
C552 C551 1.287 . S
C552 C553 1.524 1_554 S
C552 H571 0.913 . S
C553 H529 0.950 . S
C553 C552 1.524 1_556 S
C553 C554 1.415 1_556 S
C554 H530 0.950 1_554 S
C554 C549 1.363 . S
C554 C553 1.415 1_554 S
C555 H531 0.951 . S
C555 C556 1.366 . S
C555 C557 1.388 . S
C556 C555 1.366 . S
C556 C560 1.385 . S
C557 H532 0.951 . S
C557 C555 1.388 . S
C557 C558 1.366 . S
C558 C557 1.366 . S
C558 C559 1.414 . S
C558 C561 1.499 . S
C559 H533 0.950 . S
C559 C558 1.414 . S
C559 C560 1.374 . S
C560 H534 0.950 1_554 S
C560 C556 1.385 . S
C560 C559 1.374 . S
C561 C558 1.499 . S
C561 C562 1.373 . S
C561 C563 1.389 . S
C562 H535 0.950 . S
C562 C548 1.377 . S
C562 C561 1.373 . S
C563 C547 1.377 . S
C563 C561 1.389 . S
C563 C564 1.524 . S
C564 C563 1.524 . S
C564 C565 1.397 . S
C564 C569 1.363 . S
C565 H536 0.950 . S
C565 C564 1.397 . S
C565 C566 1.334 . S
C566 H537 0.950 . S
C566 C565 1.334 . S
C566 C567 1.287 . S
C567 C566 1.287 . S
C567 C568 1.524 . S
C567 H570 0.999 . S
C568 H538 0.950 . S
C568 C567 1.524 . S
C568 C569 1.415 . S
C569 H539 0.950 . S
C569 C564 1.363 . S
C569 C568 1.415 . S
H570 C567 0.999 . S
H571 C552 0.913 . S
H572 C590 0.951 . S
H573 C592 0.951 . S
H574 C594 0.950 . S
H575 C595 0.950 . S
H576 C597 0.950 . S
H577 C600 0.950 . S
H578 C601 0.950 . S
H579 C603 0.950 . S
H580 C604 0.950 . S
H581 C605 0.951 . S
H582 C607 0.951 . S
H583 C609 0.950 . S
H584 C610 0.950 . S
H585 C612 0.950 . S
H586 C615 0.950 . S
H587 C616 0.950 . S
H588 C618 0.950 . S
H589 C619 0.950 . S
C590 H572 0.951 . S
C590 C591 1.366 . S
C590 C592 1.388 . S
C591 C590 1.366 . S
C591 C595 1.385 . S
C592 H573 0.951 . S
C592 C590 1.388 . S
C592 C593 1.366 . S
C593 C592 1.366 . S
C593 C594 1.414 . S
C593 C596 1.499 . S
C594 H574 0.950 . S
C594 C593 1.414 . S
C594 C595 1.374 . S
C595 H575 0.950 . S
C595 C591 1.385 . S
C595 C594 1.374 . S
C596 C593 1.499 . S
C596 C597 1.373 . S
C596 C598 1.389 . S
C597 H576 0.950 . S
C597 C596 1.373 . S
C597 C613 1.377 . S
C598 C596 1.389 . S
C598 C599 1.524 . S
C598 C612 1.377 . S
C599 C598 1.524 . S
C599 C600 1.397 . S
C599 C604 1.363 . S
C600 H577 0.950 . S
C600 C599 1.397 . S
C600 C601 1.334 . S
C601 H578 0.950 . S
C601 C600 1.334 . S
C601 C602 1.287 . S
C602 C601 1.287 . S
C602 C603 1.524 . S
C602 H621 0.913 . S
C603 H579 0.950 . S
C603 C602 1.524 . S
C603 C604 1.415 . S
C604 H580 0.950 . S
C604 C599 1.363 . S
C604 C603 1.415 . S
C605 H581 0.951 . S
C605 C606 1.366 . S
C605 C607 1.388 . S
C606 C605 1.366 . S
C606 C610 1.385 . S
C607 H582 0.951 . S
C607 C605 1.388 . S
C607 C608 1.366 . S
C608 C607 1.366 . S
C608 C609 1.414 . S
C608 C611 1.499 . S
C609 H583 0.950 . S
C609 C608 1.414 . S
C609 C610 1.374 . S
C610 H584 0.950 . S
C610 C606 1.385 . S
C610 C609 1.374 . S
C611 C608 1.499 . S
C611 C612 1.373 . S
C611 C613 1.389 . S
C612 H585 0.950 . S
C612 C598 1.377 . S
C612 C611 1.373 . S
C613 C597 1.377 . S
C613 C611 1.389 . S
C613 C614 1.524 . S
C614 C613 1.524 . S
C614 C615 1.397 . S
C614 C619 1.363 . S
C615 H586 0.950 . S
C615 C614 1.397 . S
C615 C616 1.334 . S
C616 H587 0.950 . S
C616 C615 1.334 . S
C616 C617 1.287 . S
C617 C616 1.287 . S
C617 C618 1.524 . S
C617 H620 0.999 . S
C618 H588 0.950 . S
C618 C617 1.524 . S
C618 C619 1.415 . S
C619 H589 0.950 . S
C619 C614 1.363 . S
C619 C618 1.415 . S
H620 C617 0.999 . S
H621 C602 0.913 . S
H622 C640 0.951 . S
H623 C642 0.951 . S
H624 C644 0.950 . S
H625 C645 0.950 . S
H626 C647 0.950 . S
H627 C650 0.937 1_556 S
H628 C651 0.950 . S
H629 C653 0.950 . S
H630 C654 0.950 . S
H631 C655 0.951 . S
H632 C657 0.951 . S
H633 C659 0.950 . S
H634 C660 0.950 . S
H635 C662 0.950 . S
H636 C665 0.950 . S
H637 C666 0.950 . S
H638 C668 0.950 . S
H639 C669 0.950 . S
C640 H622 0.951 . S
C640 C641 1.366 . S
C640 C642 1.388 . S
C641 C640 1.366 . S
C641 C645 1.385 . S
C642 H623 0.951 . S
C642 C640 1.388 . S
C642 C643 1.366 . S
C643 C642 1.366 . S
C643 C644 1.414 . S
C643 C646 1.499 . S
C644 H624 0.950 . S
C644 C643 1.414 . S
C644 C645 1.374 . S
C645 H625 0.950 . S
C645 C641 1.385 . S
C645 C644 1.374 . S
C646 C643 1.499 . S
C646 C647 1.373 . S
C646 C648 1.389 . S
C647 H626 0.950 . S
C647 C646 1.373 . S
C647 C663 1.377 . S
C648 C646 1.389 . S
C648 C649 1.524 . S
C648 C662 1.377 . S
C649 C648 1.524 . S
C649 C650 1.397 . S
C649 C654 1.363 . S
C650 H627 0.937 1_554 S
C650 C649 1.397 . S
C650 C651 1.334 1_554 S
C651 H628 0.950 . S
C651 C650 1.334 1_556 S
C651 C652 1.287 1_556 S
C652 C651 1.287 1_554 S
C652 C653 1.524 . S
C652 H671 0.913 1_554 S
C653 H629 0.950 . S
C653 C652 1.524 . S
C653 C654 1.415 . S
C654 H630 0.950 . S
C654 C649 1.363 . S
C654 C653 1.415 . S
C655 H631 0.951 . S
C655 C656 1.366 . S
C655 C657 1.388 . S
C656 C655 1.366 . S
C656 C660 1.385 . S
C657 H632 0.951 . S
C657 C655 1.388 . S
C657 C658 1.366 . S
C658 C657 1.366 . S
C658 C659 1.414 . S
C658 C661 1.499 . S
C659 H633 0.950 . S
C659 C658 1.414 . S
C659 C660 1.374 . S
C660 H634 0.950 . S
C660 C656 1.385 . S
C660 C659 1.374 . S
C661 C658 1.499 . S
C661 C662 1.373 . S
C661 C663 1.389 . S
C662 H635 0.950 . S
C662 C648 1.377 . S
C662 C661 1.373 . S
C663 C647 1.377 . S
C663 C661 1.389 . S
C663 C664 1.524 . S
C664 C663 1.524 . S
C664 C665 1.397 . S
C664 C669 1.363 . S
C665 H636 0.950 . S
C665 C664 1.397 . S
C665 C666 1.334 . S
C666 H637 0.950 . S
C666 C665 1.334 . S
C666 C667 1.287 . S
C667 C666 1.287 . S
C667 C668 1.524 . S
C667 H670 0.999 . S
C668 H638 0.950 . S
C668 C667 1.524 . S
C668 C669 1.415 . S
C669 H639 0.950 . S
C669 C664 1.363 . S
C669 C668 1.415 . S
H670 C667 0.999 . S
H671 C652 0.913 1_556 S
H672 C690 0.951 . S
H673 C692 0.951 . S
H674 C694 0.950 . S
H675 C695 0.950 . S
H676 C697 0.950 . S
H677 C700 0.950 . S
H678 C701 0.950 . S
H679 C703 0.950 . S
H680 C704 0.950 . S
H681 C705 0.949 1_554 S
H682 C707 0.951 . S
H683 C709 0.950 . S
H684 C710 0.950 . S
H685 C712 0.950 1_554 S
H686 C715 0.950 . S
H687 C716 0.950 . S
H688 C718 0.950 . S
H689 C719 0.950 . S
C690 H672 0.951 . S
C690 C691 1.366 . S
C690 C692 1.388 . S
C691 C690 1.366 . S
C691 C695 1.385 . S
C692 H673 0.951 . S
C692 C690 1.388 . S
C692 C693 1.366 . S
C693 C692 1.366 . S
C693 C694 1.414 . S
C693 C696 1.499 . S
C694 H674 0.950 . S
C694 C693 1.414 . S
C694 C695 1.374 . S
C695 H675 0.950 . S
C695 C691 1.385 . S
C695 C694 1.374 . S
C696 C693 1.499 . S
C696 C697 1.373 . S
C696 C698 1.389 . S
C697 H676 0.950 . S
C697 C696 1.373 . S
C697 C713 1.377 . S
C698 C696 1.389 . S
C698 C699 1.524 1_556 S
C698 C712 1.377 . S
C699 C698 1.524 1_554 S
C699 C700 1.397 . S
C699 C704 1.363 . S
C700 H677 0.950 . S
C700 C699 1.397 . S
C700 C701 1.334 . S
C701 H678 0.950 . S
C701 C700 1.334 . S
C701 C702 1.287 . S
C702 C701 1.287 . S
C702 C703 1.524 . S
C702 H721 0.913 . S
C703 H679 0.950 . S
C703 C702 1.524 . S
C703 C704 1.415 . S
C704 H680 0.950 . S
C704 C699 1.363 . S
C704 C703 1.415 . S
C705 H681 0.949 1_556 S
C705 C706 1.366 1_556 S
C705 C707 1.388 . S
C706 C705 1.366 1_554 S
C706 C710 1.385 1_554 S
C707 H682 0.951 . S
C707 C705 1.388 . S
C707 C708 1.366 . S
C708 C707 1.366 . S
C708 C709 1.414 . S
C708 C711 1.499 . S
C709 H683 0.950 . S
C709 C708 1.414 . S
C709 C710 1.374 . S
C710 H684 0.950 . S
C710 C706 1.385 1_556 S
C710 C709 1.374 . S
C711 C708 1.499 . S
C711 C712 1.373 . S
C711 C713 1.389 . S
C712 H685 0.950 1_556 S
C712 C698 1.377 . S
C712 C711 1.373 . S
C713 C697 1.377 . S
C713 C711 1.389 . S
C713 C714 1.524 . S
C714 C713 1.524 . S
C714 C715 1.397 . S
C714 C719 1.363 . S
C715 H686 0.950 . S
C715 C714 1.397 . S
C715 C716 1.334 . S
C716 H687 0.950 . S
C716 C715 1.334 . S
C716 C717 1.287 . S
C717 C716 1.287 . S
C717 C718 1.524 . S
C717 H720 0.999 . S
C718 H688 0.950 . S
C718 C717 1.524 . S
C718 C719 1.415 . S
C719 H689 0.950 . S
C719 C714 1.363 . S
C719 C718 1.415 . S
H720 C717 0.999 . S
H721 C702 0.913 . S
H722 C740 0.951 . S
H723 C742 0.951 . S
H724 C744 0.950 . S
H725 C745 0.950 . S
H726 C747 0.950 . S
H727 C750 0.950 . S
H728 C751 0.950 . S
H729 C753 0.950 . S
H730 C754 0.950 . S
H731 C755 0.951 . S
H732 C757 0.951 . S
H733 C759 0.950 . S
H734 C760 0.950 . S
H735 C762 0.950 . S
H736 C765 0.950 . S
H737 C766 0.950 . S
H738 C768 0.950 . S
H739 C769 0.950 . S
C740 H722 0.951 . S
C740 C741 1.366 . S
C740 C742 1.388 . S
C741 C740 1.366 . S
C741 C745 1.385 . S
C742 H723 0.951 . S
C742 C740 1.388 . S
C742 C743 1.366 . S
C743 C742 1.366 . S
C743 C744 1.414 . S
C743 C746 1.499 . S
C744 H724 0.950 . S
C744 C743 1.414 . S
C744 C745 1.374 . S
C745 H725 0.950 . S
C745 C741 1.385 . S
C745 C744 1.374 . S
C746 C743 1.499 . S
C746 C747 1.373 . S
C746 C748 1.389 . S
C747 H726 0.950 . S
C747 C746 1.373 . S
C747 C763 1.377 . S
C748 C746 1.389 . S
C748 C749 1.524 . S
C748 C762 1.377 . S
C749 C748 1.524 . S
C749 C750 1.397 . S
C749 C754 1.363 . S
C750 H727 0.950 . S
C750 C749 1.397 . S
C750 C751 1.334 . S
C751 H728 0.950 . S
C751 C750 1.334 . S
C751 C752 1.287 . S
C752 C751 1.287 . S
C752 C753 1.524 . S
C752 H771 0.913 . S
C753 H729 0.950 . S
C753 C752 1.524 . S
C753 C754 1.415 . S
C754 H730 0.950 . S
C754 C749 1.363 . S
C754 C753 1.415 . S
C755 H731 0.951 . S
C755 C756 1.366 1_554 S
C755 C757 1.388 . S
C756 C755 1.366 1_556 S
C756 C760 1.385 . S
C757 H732 0.951 . S
C757 C755 1.388 . S
C757 C758 1.366 1_554 S
C758 C757 1.366 1_556 S
C758 C759 1.414 . S
C758 C761 1.499 . S
C759 H733 0.950 . S
C759 C758 1.414 . S
C759 C760 1.374 . S
C760 H734 0.950 . S
C760 C756 1.385 . S
C760 C759 1.374 . S
C761 C758 1.499 . S
C761 C762 1.373 . S
C761 C763 1.389 . S
C762 H735 0.950 . S
C762 C748 1.377 . S
C762 C761 1.373 . S
C763 C747 1.377 . S
C763 C761 1.389 . S
C763 C764 1.524 1_556 S
C764 C763 1.524 1_554 S
C764 C765 1.397 1_554 S
C764 C769 1.363 . S
C765 H736 0.950 . S
C765 C764 1.397 1_556 S
C765 C766 1.334 1_556 S
C766 H737 0.950 . S
C766 C765 1.334 1_554 S
C766 C767 1.287 . S
C767 C766 1.287 . S
C767 C768 1.524 . S
C767 H770 0.999 . S
C768 H738 0.950 . S
C768 C767 1.524 . S
C768 C769 1.415 . S
C769 H739 0.950 . S
C769 C764 1.363 . S
C769 C768 1.415 . S
H770 C767 0.999 . S
H771 C752 0.913 . S
H772 C790 0.951 . S
H773 C792 0.951 . S
H774 C794 0.973 . S
H775 C795 0.950 1_554 S
H776 C797 0.950 . S
H777 C800 0.950 . S
H778 C801 0.950 . S
H779 C803 0.950 . S
H780 C804 0.950 . S
H781 C805 0.951 . S
H782 C807 0.951 . S
H783 C809 0.950 . S
H784 C810 0.950 . S
H785 C812 0.950 . S
H786 C815 0.950 . S
H787 C816 0.950 . S
H788 C818 0.932 1_554 S
H789 C819 0.950 . S
C790 H772 0.951 . S
C790 C791 1.366 . S
C790 C792 1.388 . S
C791 C790 1.366 . S
C791 C795 1.385 . S
C792 H773 0.951 . S
C792 C790 1.388 . S
C792 C793 1.366 . S
C793 C792 1.366 . S
C793 C794 1.399 1_556 S
C793 C796 1.499 . S
C794 H774 0.973 . S
C794 C793 1.399 1_554 S
C794 C795 1.367 1_554 S
C795 H775 0.950 1_556 S
C795 C791 1.385 . S
C795 C794 1.367 1_556 S
C796 C793 1.499 . S
C796 C797 1.373 . S
C796 C798 1.389 . S
C797 H776 0.950 . S
C797 C796 1.373 . S
C797 C813 1.377 . S
C798 C796 1.389 . S
C798 C799 1.524 . S
C798 C812 1.377 . S
C799 C798 1.524 . S
C799 C800 1.397 1_556 S
C799 C804 1.363 . S
C800 H777 0.950 . S
C800 C799 1.397 1_554 S
C800 C801 1.334 . S
C801 H778 0.950 . S
C801 C800 1.334 . S
C801 C802 1.287 . S
C802 C801 1.287 . S
C802 C803 1.524 1_554 S
C802 H821 0.913 . S
C803 H779 0.950 . S
C803 C802 1.524 1_556 S
C803 C804 1.415 . S
C804 H780 0.950 . S
C804 C799 1.363 . S
C804 C803 1.415 . S
C805 H781 0.951 . S
C805 C806 1.366 . S
C805 C807 1.388 . S
C806 C805 1.366 . S
C806 C810 1.385 1_554 S
C807 H782 0.951 . S
C807 C805 1.388 . S
C807 C808 1.353 1_554 S
C808 C807 1.353 1_556 S
C808 C809 1.423 . S
C808 C811 1.503 . S
C809 H783 0.950 . S
C809 C808 1.423 . S
C809 C810 1.374 . S
C810 H784 0.950 . S
C810 C806 1.385 1_556 S
C810 C809 1.374 . S
C811 C808 1.503 . S
C811 C812 1.373 . S
C811 C813 1.389 . S
C812 H785 0.950 . S
C812 C798 1.377 . S
C812 C811 1.373 . S
C813 C797 1.377 . S
C813 C811 1.389 . S
C813 C814 1.524 . S
C814 C813 1.524 . S
C814 C815 1.397 . S
C814 C819 1.363 1_556 S
C815 H786 0.950 . S
C815 C814 1.397 . S
C815 C816 1.334 . S
C816 H787 0.950 . S
C816 C815 1.334 . S
C816 C817 1.287 . S
C817 C816 1.287 . S
C817 C818 1.555 . S
C817 H820 0.999 . S
C818 H788 0.932 1_556 S
C818 C817 1.555 . S
C818 C819 1.406 1_556 S
C819 H789 0.950 . S
C819 C814 1.363 1_554 S
C819 C818 1.406 1_554 S
H820 C817 0.999 . S
H821 C802 0.913 . S
H822 C840 0.951 . S
H823 C842 0.951 . S
H824 C844 0.950 . S
H825 C845 0.950 . S
H826 C847 0.950 . S
H827 C850 0.950 . S
H828 C851 0.950 . S
H829 C853 0.950 . S
H830 C854 0.950 . S
H831 C855 0.951 . S
H832 C857 0.951 . S
H833 C859 0.950 . S
H834 C860 0.950 . S
H835 C862 0.950 . S
H836 C865 0.950 . S
H837 C866 0.950 . S
H838 C868 0.943 1_556 S
H839 C869 0.950 . S
C840 H822 0.951 . S
C840 C841 1.366 . S
C840 C842 1.388 . S
C841 C840 1.366 . S
C841 C845 1.385 . S
C842 H823 0.951 . S
C842 C840 1.388 . S
C842 C843 1.366 . S
C843 C842 1.366 . S
C843 C844 1.414 . S
C843 C846 1.499 . S
C844 H824 0.950 . S
C844 C843 1.414 . S
C844 C845 1.374 . S
C845 H825 0.950 . S
C845 C841 1.385 . S
C845 C844 1.374 . S
C846 C843 1.499 . S
C846 C847 1.373 . S
C846 C848 1.389 . S
C847 H826 0.950 . S
C847 C846 1.373 . S
C847 C863 1.377 . S
C848 C846 1.389 . S
C848 C849 1.524 . S
C848 C862 1.377 . S
C849 C848 1.524 . S
C849 C850 1.397 . S
C849 C854 1.363 . S
C850 H827 0.950 . S
C850 C849 1.397 . S
C850 C851 1.334 . S
C851 H828 0.950 . S
C851 C850 1.334 . S
C851 C852 1.287 . S
C852 C851 1.287 . S
C852 C853 1.524 . S
C852 H871 0.913 . S
C853 H829 0.950 . S
C853 C852 1.524 . S
C853 C854 1.415 . S
C854 H830 0.950 . S
C854 C849 1.363 . S
C854 C853 1.415 . S
C855 H831 0.951 . S
C855 C856 1.366 . S
C855 C857 1.388 . S
C856 C855 1.366 . S
C856 C860 1.385 1_556 S
C857 H832 0.951 . S
C857 C855 1.388 . S
C857 C858 1.366 . S
C858 C857 1.366 . S
C858 C859 1.414 1_556 S
C858 C861 1.499 . S
C859 H833 0.950 . S
C859 C858 1.414 1_554 S
C859 C860 1.374 . S
C860 H834 0.950 . S
C860 C856 1.385 1_554 S
C860 C859 1.374 . S
C861 C858 1.499 . S
C861 C862 1.373 . S
C861 C863 1.389 . S
C862 H835 0.950 . S
C862 C848 1.377 . S
C862 C861 1.373 . S
C863 C847 1.377 . S
C863 C861 1.389 . S
C863 C864 1.524 1_556 S
C864 C863 1.524 1_554 S
C864 C865 1.397 . S
C864 C869 1.363 1_554 S
C865 H836 0.950 . S
C865 C864 1.397 . S
C865 C866 1.334 . S
C866 H837 0.950 . S
C866 C865 1.334 . S
C866 C867 1.287 . S
C867 C866 1.287 . S
C867 C868 1.538 . S
C867 H870 0.999 . S
C868 H838 0.943 1_554 S
C868 C867 1.538 . S
C868 C869 1.409 1_554 S
C869 H839 0.950 . S
C869 C864 1.363 1_556 S
C869 C868 1.409 1_556 S
H870 C867 0.999 . S
H871 C852 0.913 . S
H872 C890 0.951 . S
H873 C892 0.951 . S
H874 C894 0.950 . S
H875 C895 0.950 . S
H876 C897 0.950 . S
H877 C900 0.950 . S
H878 C901 0.950 . S
H879 C903 0.950 . S
H880 C904 0.950 . S
H881 C905 0.951 . S
H882 C907 0.951 . S
H883 C909 0.912 1_554 S
H884 C910 0.950 . S
H885 C912 0.950 . S
H886 C915 0.950 . S
H887 C916 0.950 . S
H888 C918 0.950 . S
H889 C919 0.950 . S
C890 H872 0.951 . S
C890 C891 1.366 . S
C890 C892 1.388 . S
C891 C890 1.366 . S
C891 C895 1.385 . S
C892 H873 0.951 . S
C892 C890 1.388 . S
C892 C893 1.366 . S
C893 C892 1.366 . S
C893 C894 1.414 . S
C893 C896 1.499 . S
C894 H874 0.950 . S
C894 C893 1.414 . S
C894 C895 1.374 . S
C895 H875 0.950 . S
C895 C891 1.385 . S
C895 C894 1.374 . S
C896 C893 1.499 . S
C896 C897 1.373 . S
C896 C898 1.389 . S
C897 H876 0.950 . S
C897 C896 1.373 . S
C897 C913 1.377 . S
C898 C896 1.389 . S
C898 C899 1.524 . S
C898 C912 1.377 . S
C899 C898 1.524 . S
C899 C900 1.397 . S
C899 C904 1.363 1_556 S
C900 H877 0.950 . S
C900 C899 1.397 . S
C900 C901 1.334 . S
C901 H878 0.950 . S
C901 C900 1.334 . S
C901 C902 1.287 . S
C902 C901 1.287 . S
C902 C903 1.524 1_556 S
C902 H921 0.913 . S
C903 H879 0.950 . S
C903 C902 1.524 1_554 S
C903 C904 1.415 . S
C904 H880 0.950 . S
C904 C899 1.363 1_554 S
C904 C903 1.415 . S
C905 H881 0.951 . S
C905 C906 1.366 . S
C905 C907 1.388 . S
C906 C905 1.366 . S
C906 C910 1.385 1_556 S
C907 H882 0.951 . S
C907 C905 1.388 . S
C907 C908 1.366 . S
C908 C907 1.366 . S
C908 C909 1.459 . S
C908 C911 1.499 . S
C909 H883 0.912 1_556 S
C909 C908 1.459 . S
C909 C910 1.368 1_556 S
C910 H884 0.950 . S
C910 C906 1.385 1_554 S
C910 C909 1.368 1_554 S
C911 C908 1.499 . S
C911 C912 1.373 . S
C911 C913 1.389 . S
C912 H885 0.950 . S
C912 C898 1.377 . S
C912 C911 1.373 . S
C913 C897 1.377 . S
C913 C911 1.389 . S
C913 C914 1.524 . S
C914 C913 1.524 . S
C914 C915 1.397 . S
C914 C919 1.363 . S
C915 H886 0.950 . S
C915 C914 1.397 . S
C915 C916 1.334 . S
C916 H887 0.950 . S
C916 C915 1.334 . S
C916 C917 1.287 . S
C917 C916 1.287 . S
C917 C918 1.524 . S
C917 H920 0.999 . S
C918 H888 0.950 . S
C918 C917 1.524 . S
C918 C919 1.415 . S
C919 H889 0.950 . S
C919 C914 1.363 . S
C919 C918 1.415 . S
H920 C917 0.999 . S
H921 C902 0.913 . S
H922 C940 0.951 . S
H923 C942 0.951 . S
H924 C944 0.950 . S
H925 C945 0.950 . S
H926 C947 0.950 . S
H927 C950 0.950 . S
H928 C951 0.950 . S
H929 C953 0.950 . S
H930 C954 0.950 . S
H931 C955 0.951 . S
H932 C957 0.951 . S
H933 C959 0.950 . S
H934 C960 0.950 . S
H935 C962 0.950 . S
H936 C965 0.950 . S
H937 C966 0.950 . S
H938 C968 0.950 . S
H939 C969 0.950 . S
C940 H922 0.951 . S
C940 C941 1.358 1_554 S
C940 C942 1.388 . S
C941 C940 1.358 1_556 S
C941 C945 1.396 . S
C942 H923 0.951 . S
C942 C940 1.388 . S
C942 C943 1.378 . S
C943 C942 1.378 . S
C943 C944 1.406 1_554 S
C943 C946 1.498 . S
C944 H924 0.950 . S
C944 C943 1.406 1_556 S
C944 C945 1.374 . S
C945 H925 0.950 . S
C945 C941 1.396 . S
C945 C944 1.374 . S
C946 C943 1.498 . S
C946 C947 1.373 . S
C946 C948 1.389 1_554 S
C947 H926 0.950 . S
C947 C946 1.373 . S
C947 C963 1.377 . S
C948 C946 1.389 1_556 S
C948 C949 1.524 . S
C948 C962 1.377 . S
C949 C948 1.524 . S
C949 C950 1.397 . S
C949 C954 1.363 . S
C950 H927 0.950 . S
C950 C949 1.397 . S
C950 C951 1.334 . S
C951 H928 0.950 . S
C951 C950 1.334 . S
C951 C952 1.287 . S
C952 C951 1.287 . S
C952 C953 1.524 . S
C952 H971 0.913 . S
C953 H929 0.950 . S
C953 C952 1.524 . S
C953 C954 1.415 . S
C954 H930 0.950 . S
C954 C949 1.363 . S
C954 C953 1.415 . S
C955 H931 0.951 . S
C955 C956 1.366 . S
C955 C957 1.388 . S
C956 C955 1.366 . S
C956 C960 1.385 . S
C957 H932 0.951 . S
C957 C955 1.388 . S
C957 C958 1.366 . S
C958 C957 1.366 . S
C958 C959 1.414 . S
C958 C961 1.499 . S
C959 H933 0.950 . S
C959 C958 1.414 . S
C959 C960 1.374 . S
C960 H934 0.950 . S
C960 C956 1.385 . S
C960 C959 1.374 . S
C961 C958 1.499 . S
C961 C962 1.373 1_554 S
C961 C963 1.389 . S
C962 H935 0.950 . S
C962 C948 1.377 . S
C962 C961 1.373 1_556 S
C963 C947 1.377 . S
C963 C961 1.389 . S
C963 C964 1.524 . S
C964 C963 1.524 . S
C964 C965 1.397 . S
C964 C969 1.363 . S
C965 H936 0.950 . S
C965 C964 1.397 . S
C965 C966 1.334 . S
C966 H937 0.950 . S
C966 C965 1.334 . S
C966 C967 1.287 . S
C967 C966 1.287 . S
C967 C968 1.524 . S
C967 H970 0.999 . S
C968 H938 0.950 . S
C968 C967 1.524 . S
C968 C969 1.415 . S
C969 H939 0.950 . S
C969 C964 1.363 . S
C969 C968 1.415 . S
H970 C967 0.999 . S
H971 C952 0.913 . S
H972 C990 0.951 . S
H973 C992 0.951 . S
H974 C994 0.950 . S
H975 C995 0.950 . S
H976 C997 0.950 . S
H977 C1000 0.950 . S
H978 C1001 0.950 . S
H979 C1003 0.950 . S
H980 C1004 0.950 . S
H981 C1005 0.951 . S
H982 C1007 0.951 . S
H983 C1009 0.950 . S
H984 C1010 0.950 . S
H985 C1012 0.962 . S
H986 C1015 0.950 . S
H987 C1016 0.950 . S
H988 C1018 0.950 . S
H989 C1019 0.950 . S
C990 H972 0.951 . S
C990 C991 1.366 . S
C990 C992 1.388 . S
C991 C990 1.366 . S
C991 C995 1.385 . S
C992 H973 0.951 . S
C992 C990 1.388 . S
C992 C993 1.366 . S
C993 C992 1.366 . S
C993 C994 1.414 . S
C993 C996 1.499 . S
C994 H974 0.950 . S
C994 C993 1.414 . S
C994 C995 1.374 . S
C995 H975 0.950 . S
C995 C991 1.385 . S
C995 C994 1.374 . S
C996 C993 1.499 . S
C996 C997 1.373 . S
C996 C998 1.389 . S
C997 H976 0.950 . S
C997 C996 1.373 . S
C997 C1013 1.377 . S
C998 C996 1.389 . S
C998 C999 1.524 1_554 S
C998 C1012 1.377 . S
C999 C998 1.524 1_556 S
C999 C1000 1.397 . S
C999 C1004 1.363 . S
C1000 H977 0.950 . S
C1000 C999 1.397 . S
C1000 C1001 1.334 . S
C1001 H978 0.950 . S
C1001 C1000 1.334 . S
C1001 C1002 1.287 . S
C1002 C1001 1.287 . S
C1002 C1003 1.524 . S
C1002 H1021 0.913 . S
C1003 H979 0.950 . S
C1003 C1002 1.524 . S
C1003 C1004 1.415 . S
C1004 H980 0.950 . S
C1004 C999 1.363 . S
C1004 C1003 1.415 . S
C1005 H981 0.951 . S
C1005 C1006 1.366 . S
C1005 C1007 1.388 . S
C1006 C1005 1.366 . S
C1006 C1010 1.385 . S
C1007 H982 0.951 . S
C1007 C1005 1.388 . S
C1007 C1008 1.366 . S
C1008 C1007 1.366 . S
C1008 C1009 1.414 . S
C1008 C1011 1.499 . S
C1009 H983 0.950 . S
C1009 C1008 1.414 . S
C1009 C1010 1.374 . S
C1010 H984 0.950 . S
C1010 C1006 1.385 . S
C1010 C1009 1.374 . S
C1011 C1008 1.499 . S
C1011 C1012 1.373 . S
C1011 C1013 1.389 . S
C1012 H985 0.962 . S
C1012 C998 1.377 . S
C1012 C1011 1.373 . S
C1013 C997 1.377 . S
C1013 C1011 1.389 . S
C1013 C1014 1.524 . S
C1014 C1013 1.524 . S
C1014 C1015 1.397 . S
C1014 C1019 1.363 . S
C1015 H986 0.950 . S
C1015 C1014 1.397 . S
C1015 C1016 1.334 . S
C1016 H987 0.950 . S
C1016 C1015 1.334 . S
C1016 C1017 1.287 . S
C1017 C1016 1.287 . S
C1017 C1018 1.524 . S
C1017 H1020 0.999 . S
C1018 H988 0.950 . S
C1018 C1017 1.524 . S
C1018 C1019 1.415 . S
C1019 H989 0.950 . S
C1019 C1014 1.363 . S
C1019 C1018 1.415 . S
H1020 C1017 0.999 . S
H1021 C1002 0.913 . S
H1022 C1040 0.951 . S
H1023 C1042 0.951 . S
H1024 C1044 0.950 . S
H1025 C1045 0.950 . S
H1026 C1047 0.950 . S
H1027 C1050 0.950 . S
H1028 C1051 0.950 . S
H1029 C1053 0.950 . S
H1030 C1054 0.950 . S
H1031 C1055 0.951 . S
H1032 C1057 0.951 . S
H1033 C1059 0.950 . S
H1034 C1060 0.950 . S
H1035 C1062 0.950 . S
H1036 C1065 0.950 . S
H1037 C1066 0.950 . S
H1038 C1068 0.950 . S
H1039 C1069 0.950 . S
C1040 H1022 0.951 . S
C1040 C1041 1.366 . S
C1040 C1042 1.388 . S
C1041 C1040 1.366 . S
C1041 C1045 1.385 . S
C1042 H1023 0.951 . S
C1042 C1040 1.388 . S
C1042 C1043 1.366 . S
C1043 C1042 1.366 . S
C1043 C1044 1.414 . S
C1043 C1046 1.499 . S
C1044 H1024 0.950 . S
C1044 C1043 1.414 . S
C1044 C1045 1.374 . S
C1045 H1025 0.950 . S
C1045 C1041 1.385 . S
C1045 C1044 1.374 . S
C1046 C1043 1.499 . S
C1046 C1047 1.373 . S
C1046 C1048 1.389 . S
C1047 H1026 0.950 . S
C1047 C1046 1.373 . S
C1047 C1063 1.377 . S
C1048 C1046 1.389 . S
C1048 C1049 1.524 . S
C1048 C1062 1.377 . S
C1049 C1048 1.524 . S
C1049 C1050 1.397 . S
C1049 C1054 1.363 . S
C1050 H1027 0.950 . S
C1050 C1049 1.397 . S
C1050 C1051 1.334 1_554 S
C1051 H1028 0.950 . S
C1051 C1050 1.334 1_556 S
C1051 C1052 1.287 . S
C1052 C1051 1.287 . S
C1052 C1053 1.524 . S
C1052 H1071 0.913 . S
C1053 H1029 0.950 . S
C1053 C1052 1.524 . S
C1053 C1054 1.415 1_556 S
C1054 H1030 0.950 . S
C1054 C1049 1.363 . S
C1054 C1053 1.415 1_554 S
C1055 H1031 0.951 . S
C1055 C1056 1.366 . S
C1055 C1057 1.388 . S
C1056 C1055 1.366 . S
C1056 C1060 1.385 . S
C1057 H1032 0.951 . S
C1057 C1055 1.388 . S
C1057 C1058 1.366 . S
C1058 C1057 1.366 . S
C1058 C1059 1.414 . S
C1058 C1061 1.499 . S
C1059 H1033 0.950 . S
C1059 C1058 1.414 . S
C1059 C1060 1.374 . S
C1060 H1034 0.950 . S
C1060 C1056 1.385 . S
C1060 C1059 1.374 . S
C1061 C1058 1.499 . S
C1061 C1062 1.373 . S
C1061 C1063 1.389 . S
C1062 H1035 0.950 . S
C1062 C1048 1.377 . S
C1062 C1061 1.373 . S
C1063 C1047 1.377 . S
C1063 C1061 1.389 . S
C1063 C1064 1.524 . S
C1064 C1063 1.524 . S
C1064 C1065 1.397 . S
C1064 C1069 1.363 . S
C1065 H1036 0.950 . S
C1065 C1064 1.397 . S
C1065 C1066 1.334 . S
C1066 H1037 0.950 . S
C1066 C1065 1.334 . S
C1066 C1067 1.287 . S
C1067 C1066 1.287 . S
C1067 C1068 1.524 . S
C1067 H1070 0.999 . S
C1068 H1038 0.950 . S
C1068 C1067 1.524 . S
C1068 C1069 1.415 . S
C1069 H1039 0.950 . S
C1069 C1064 1.363 . S
C1069 C1068 1.415 . S
H1070 C1067 0.999 . S
H1071 C1052 0.913 . S
H1072 C1090 0.951 . S
H1073 C1092 0.951 . S
H1074 C1094 0.950 . S
H1075 C1095 0.950 . S
H1076 C1097 0.950 . S
H1077 C1100 0.950 . S
H1078 C1101 0.950 . S
H1079 C1103 0.950 . S
H1080 C1104 0.950 . S
H1081 C1105 0.951 . S
H1082 C1107 0.951 . S
H1083 C1109 0.950 . S
H1084 C1110 0.955 . S
H1085 C1112 0.950 . S
H1086 C1115 0.950 . S
H1087 C1116 0.950 . S
H1088 C1118 0.965 . S
H1089 C1119 0.950 . S
C1090 H1072 0.951 . S
C1090 C1091 1.366 . S
C1090 C1092 1.388 . S
C1091 C1090 1.366 . S
C1091 C1095 1.385 . S
C1092 H1073 0.951 . S
C1092 C1090 1.388 . S
C1092 C1093 1.366 . S
C1093 C1092 1.366 . S
C1093 C1094 1.414 . S
C1093 C1096 1.499 . S
C1094 H1074 0.950 . S
C1094 C1093 1.414 . S
C1094 C1095 1.374 . S
C1095 H1075 0.950 . S
C1095 C1091 1.385 . S
C1095 C1094 1.374 . S
C1096 C1093 1.499 . S
C1096 C1097 1.373 . S
C1096 C1098 1.389 . S
C1097 H1076 0.950 . S
C1097 C1096 1.373 . S
C1097 C1113 1.377 . S
C1098 C1096 1.389 . S
C1098 C1099 1.524 . S
C1098 C1112 1.377 . S
C1099 C1098 1.524 . S
C1099 C1100 1.397 . S
C1099 C1104 1.363 . S
C1100 H1077 0.950 . S
C1100 C1099 1.397 . S
C1100 C1101 1.334 . S
C1101 H1078 0.950 . S
C1101 C1100 1.334 . S
C1101 C1102 1.287 . S
C1102 C1101 1.287 . S
C1102 C1103 1.524 . S
C1102 H1121 0.913 . S
C1103 H1079 0.950 . S
C1103 C1102 1.524 . S
C1103 C1104 1.415 . S
C1104 H1080 0.950 . S
C1104 C1099 1.363 . S
C1104 C1103 1.415 . S
C1105 H1081 0.951 . S
C1105 C1106 1.366 . S
C1105 C1107 1.388 . S
C1106 C1105 1.366 . S
C1106 C1110 1.385 . S
C1107 H1082 0.951 . S
C1107 C1105 1.388 . S
C1107 C1108 1.366 . S
C1108 C1107 1.366 . S
C1108 C1109 1.414 . S
C1108 C1111 1.499 . S
C1109 H1083 0.950 . S
C1109 C1108 1.414 . S
C1109 C1110 1.374 . S
C1110 H1084 0.955 . S
C1110 C1106 1.385 . S
C1110 C1109 1.374 . S
C1111 C1108 1.499 . S
C1111 C1112 1.373 . S
C1111 C1113 1.389 . S
C1112 H1085 0.950 . S
C1112 C1098 1.377 . S
C1112 C1111 1.373 . S
C1113 C1097 1.377 . S
C1113 C1111 1.389 . S
C1113 C1114 1.524 . S
C1114 C1113 1.524 . S
C1114 C1115 1.397 1_554 S
C1114 C1119 1.363 . S
C1115 H1086 0.950 . S
C1115 C1114 1.397 1_556 S
C1115 C1116 1.334 . S
C1116 H1087 0.950 . S
C1116 C1115 1.334 . S
C1116 C1117 1.287 . S
C1117 C1116 1.287 . S
C1117 C1118 1.494 1_556 S
C1117 H1120 0.999 . S
C1118 H1088 0.965 . S
C1118 C1117 1.494 1_554 S
C1118 C1119 1.429 . S
C1119 H1089 0.950 . S
C1119 C1114 1.363 . S
C1119 C1118 1.429 . S
H1120 C1117 0.999 . S
H1121 C1102 0.913 . S
H1122 C1140 0.951 . S
H1123 C1142 0.951 . S
H1124 C1144 0.950 . S
H1125 C1145 0.950 . S
H1126 C1147 0.950 . S
H1127 C1150 0.950 . S
H1128 C1151 0.950 . S
H1129 C1153 0.950 . S
H1130 C1154 0.950 . S
H1131 C1155 0.951 . S
H1132 C1157 0.951 . S
H1133 C1159 0.950 . S
H1134 C1160 0.950 . S
H1135 C1162 0.950 . S
H1136 C1165 0.950 . S
H1137 C1166 0.950 . S
H1138 C1168 0.950 . S
H1139 C1169 0.950 . S
C1140 H1122 0.951 . S
C1140 C1141 1.366 . S
C1140 C1142 1.388 . S
C1141 C1140 1.366 . S
C1141 C1145 1.385 . S
C1142 H1123 0.951 . S
C1142 C1140 1.388 . S
C1142 C1143 1.366 . S
C1143 C1142 1.366 . S
C1143 C1144 1.414 . S
C1143 C1146 1.499 . S
C1144 H1124 0.950 . S
C1144 C1143 1.414 . S
C1144 C1145 1.374 . S
C1145 H1125 0.950 . S
C1145 C1141 1.385 . S
C1145 C1144 1.374 . S
C1146 C1143 1.499 . S
C1146 C1147 1.373 . S
C1146 C1148 1.389 . S
C1147 H1126 0.950 . S
C1147 C1146 1.373 . S
C1147 C1163 1.377 1_655 S
C1148 C1146 1.389 . S
C1148 C1149 1.524 . S
C1148 C1162 1.377 . S
C1149 C1148 1.524 . S
C1149 C1150 1.397 . S
C1149 C1154 1.363 . S
C1150 H1127 0.950 . S
C1150 C1149 1.397 . S
C1150 C1151 1.334 . S
C1151 H1128 0.950 . S
C1151 C1150 1.334 . S
C1151 C1152 1.287 . S
C1152 C1151 1.287 . S
C1152 C1153 1.524 . S
C1152 H1171 0.913 . S
C1153 H1129 0.950 . S
C1153 C1152 1.524 . S
C1153 C1154 1.415 . S
C1154 H1130 0.950 . S
C1154 C1149 1.363 . S
C1154 C1153 1.415 . S
C1155 H1131 0.951 . S
C1155 C1156 1.366 . S
C1155 C1157 1.388 . S
C1156 C1155 1.366 . S
C1156 C1160 1.385 . S
C1157 H1132 0.951 . S
C1157 C1155 1.388 . S
C1157 C1158 1.366 . S
C1158 C1157 1.366 . S
C1158 C1159 1.414 . S
C1158 C1161 1.499 . S
C1159 H1133 0.950 . S
C1159 C1158 1.414 . S
C1159 C1160 1.374 . S
C1160 H1134 0.950 . S
C1160 C1156 1.385 . S
C1160 C1159 1.374 . S
C1161 C1158 1.499 . S
C1161 C1162 1.373 1_455 S
C1161 C1163 1.389 . S
C1162 H1135 0.950 . S
C1162 C1148 1.377 . S
C1162 C1161 1.373 1_655 S
C1163 C1147 1.377 1_455 S
C1163 C1161 1.389 . S
C1163 C1164 1.524 . S
C1164 C1163 1.524 . S
C1164 C1165 1.397 . S
C1164 C1169 1.363 . S
C1165 H1136 0.950 . S
C1165 C1164 1.397 . S
C1165 C1166 1.334 . S
C1166 H1137 0.950 . S
C1166 C1165 1.334 . S
C1166 C1167 1.287 . S
C1167 C1166 1.287 . S
C1167 C1168 1.524 . S
C1167 H1170 0.999 . S
C1168 H1138 0.950 . S
C1168 C1167 1.524 . S
C1168 C1169 1.415 . S
C1169 H1139 0.950 . S
C1169 C1164 1.363 . S
C1169 C1168 1.415 . S
H1170 C1167 0.999 . S
H1171 C1152 0.913 . S
H1172 C1190 0.951 . S
H1173 C1192 0.951 . S
H1174 C1194 0.950 . S
H1175 C1195 0.950 . S
H1176 C1197 0.950 . S
H1177 C1200 0.950 . S
H1178 C1201 0.950 . S
H1179 C1203 0.950 . S
H1180 C1204 0.950 . S
H1181 C1205 0.951 . S
H1182 C1207 0.951 . S
H1183 C1209 0.950 . S
H1184 C1210 0.950 . S
H1185 C1212 0.950 . S
H1186 C1215 0.950 . S
H1187 C1216 0.950 . S
H1188 C1218 0.950 . S
H1189 C1219 0.950 . S
C1190 H1172 0.951 . S
C1190 C1191 1.366 . S
C1190 C1192 1.388 . S
C1191 C1190 1.366 . S
C1191 C1195 1.385 . S
C1192 H1173 0.951 . S
C1192 C1190 1.388 . S
C1192 C1193 1.366 . S
C1193 C1192 1.366 . S
C1193 C1194 1.414 . S
C1193 C1196 1.499 . S
C1194 H1174 0.950 . S
C1194 C1193 1.414 . S
C1194 C1195 1.374 . S
C1195 H1175 0.950 . S
C1195 C1191 1.385 . S
C1195 C1194 1.374 . S
C1196 C1193 1.499 . S
C1196 C1197 1.373 . S
C1196 C1198 1.389 . S
C1197 H1176 0.950 . S
C1197 C1196 1.373 . S
C1197 C1213 1.377 . S
C1198 C1196 1.389 . S
C1198 C1199 1.524 . S
C1198 C1212 1.377 . S
C1199 C1198 1.524 . S
C1199 C1200 1.397 . S
C1199 C1204 1.363 . S
C1200 H1177 0.950 . S
C1200 C1199 1.397 . S
C1200 C1201 1.334 . S
C1201 H1178 0.950 . S
C1201 C1200 1.334 . S
C1201 C1202 1.287 . S
C1202 C1201 1.287 . S
C1202 C1203 1.524 . S
C1202 H1221 0.913 . S
C1203 H1179 0.950 . S
C1203 C1202 1.524 . S
C1203 C1204 1.415 . S
C1204 H1180 0.950 . S
C1204 C1199 1.363 . S
C1204 C1203 1.415 . S
C1205 H1181 0.951 . S
C1205 C1206 1.366 . S
C1205 C1207 1.388 . S
C1206 C1205 1.366 . S
C1206 C1210 1.385 . S
C1207 H1182 0.951 . S
C1207 C1205 1.388 . S
C1207 C1208 1.366 . S
C1208 C1207 1.366 . S
C1208 C1209 1.414 . S
C1208 C1211 1.499 . S
C1209 H1183 0.950 . S
C1209 C1208 1.414 . S
C1209 C1210 1.374 . S
C1210 H1184 0.950 . S
C1210 C1206 1.385 . S
C1210 C1209 1.374 . S
C1211 C1208 1.499 . S
C1211 C1212 1.373 . S
C1211 C1213 1.389 . S
C1212 H1185 0.950 . S
C1212 C1198 1.377 . S
C1212 C1211 1.373 . S
C1213 C1197 1.377 . S
C1213 C1211 1.389 . S
C1213 C1214 1.524 . S
C1214 C1213 1.524 . S
C1214 C1215 1.397 . S
C1214 C1219 1.363 . S
C1215 H1186 0.950 . S
C1215 C1214 1.397 . S
C1215 C1216 1.334 . S
C1216 H1187 0.950 . S
C1216 C1215 1.334 . S
C1216 C1217 1.287 . S
C1217 C1216 1.287 . S
C1217 C1218 1.524 . S
C1217 H1220 0.999 . S
C1218 H1188 0.950 . S
C1218 C1217 1.524 . S
C1218 C1219 1.415 . S
C1219 H1189 0.950 . S
C1219 C1214 1.363 . S
C1219 C1218 1.415 . S
H1220 C1217 0.999 . S
H1221 C1202 0.913 . S
H1222 C1240 0.951 . S
H1223 C1242 0.951 . S
H1224 C1244 0.950 . S
H1225 C1245 0.950 . S
H1226 C1247 0.950 . S
H1227 C1250 0.950 . S
H1228 C1251 0.950 . S
H1229 C1253 0.949 1_565 S
H1230 C1254 0.950 1_565 S
H1231 C1255 0.951 . S
H1232 C1257 0.951 . S
H1233 C1259 0.950 . S
H1234 C1260 0.950 . S
H1235 C1262 0.950 . S
H1236 C1265 0.950 . S
H1237 C1266 0.950 . S
H1238 C1268 0.950 . S
H1239 C1269 0.950 . S
C1240 H1222 0.951 . S
C1240 C1241 1.366 . S
C1240 C1242 1.388 . S
C1241 C1240 1.366 . S
C1241 C1245 1.385 . S
C1242 H1223 0.951 . S
C1242 C1240 1.388 . S
C1242 C1243 1.366 . S
C1243 C1242 1.366 . S
C1243 C1244 1.414 . S
C1243 C1246 1.499 . S
C1244 H1224 0.950 . S
C1244 C1243 1.414 . S
C1244 C1245 1.374 . S
C1245 H1225 0.950 . S
C1245 C1241 1.385 . S
C1245 C1244 1.374 . S
C1246 C1243 1.499 . S
C1246 C1247 1.373 . S
C1246 C1248 1.389 . S
C1247 H1226 0.950 . S
C1247 C1246 1.373 . S
C1247 C1263 1.377 . S
C1248 C1246 1.389 . S
C1248 C1249 1.524 . S
C1248 C1262 1.377 1_545 S
C1249 C1248 1.524 . S
C1249 C1250 1.397 . S
C1249 C1254 1.363 . S
C1250 H1227 0.950 . S
C1250 C1249 1.397 . S
C1250 C1251 1.334 . S
C1251 H1228 0.950 . S
C1251 C1250 1.334 . S
C1251 C1252 1.287 . S
C1252 C1251 1.287 . S
C1252 C1253 1.524 . S
C1252 H1271 0.913 . S
C1253 H1229 0.949 1_545 S
C1253 C1252 1.524 . S
C1253 C1254 1.415 . S
C1254 H1230 0.950 1_545 S
C1254 C1249 1.363 . S
C1254 C1253 1.415 . S
C1255 H1231 0.951 . S
C1255 C1256 1.366 . S
C1255 C1257 1.388 . S
C1256 C1255 1.366 . S
C1256 C1260 1.385 . S
C1257 H1232 0.951 . S
C1257 C1255 1.388 . S
C1257 C1258 1.366 . S
C1258 C1257 1.366 . S
C1258 C1259 1.414 . S
C1258 C1261 1.499 . S
C1259 H1233 0.950 . S
C1259 C1258 1.414 . S
C1259 C1260 1.374 . S
C1260 H1234 0.950 . S
C1260 C1256 1.385 . S
C1260 C1259 1.374 . S
C1261 C1258 1.499 . S
C1261 C1262 1.373 . S
C1261 C1263 1.389 1_565 S
C1262 H1235 0.950 . S
C1262 C1248 1.377 1_565 S
C1262 C1261 1.373 . S
C1263 C1247 1.377 . S
C1263 C1261 1.389 1_545 S
C1263 C1264 1.520 1_545 S
C1264 C1263 1.520 1_565 S
C1264 C1265 1.401 . S
C1264 C1269 1.362 1_565 S
C1265 H1236 0.950 . S
C1265 C1264 1.401 . S
C1265 C1266 1.334 . S
C1266 H1237 0.950 . S
C1266 C1265 1.334 . S
C1266 C1267 1.287 . S
C1267 C1266 1.287 . S
C1267 C1268 1.524 1_565 S
C1267 H1270 0.999 . S
C1268 H1238 0.950 . S
C1268 C1267 1.524 1_545 S
C1268 C1269 1.415 . S
C1269 H1239 0.950 . S
C1269 C1264 1.362 1_545 S
C1269 C1268 1.415 . S
H1270 C1267 0.999 . S
H1271 C1252 0.913 . S
H1272 C1290 0.951 . S
H1273 C1292 0.951 . S
H1274 C1294 0.950 . S
H1275 C1295 0.950 . S
H1276 C1297 0.950 . S
H1277 C1300 0.950 . S
H1278 C1301 0.950 . S
H1279 C1303 0.950 . S
H1280 C1304 0.950 . S
H1281 C1305 0.951 . S
H1282 C1307 0.951 . S
H1283 C1309 0.950 . S
H1284 C1310 0.950 . S
H1285 C1312 0.950 . S
H1286 C1315 0.950 . S
H1287 C1316 0.950 . S
H1288 C1318 0.950 . S
H1289 C1319 0.950 . S
C1290 H1272 0.951 . S
C1290 C1291 1.366 . S
C1290 C1292 1.388 . S
C1291 C1290 1.366 . S
C1291 C1295 1.385 . S
C1292 H1273 0.951 . S
C1292 C1290 1.388 . S
C1292 C1293 1.366 . S
C1293 C1292 1.366 . S
C1293 C1294 1.414 . S
C1293 C1296 1.499 . S
C1294 H1274 0.950 . S
C1294 C1293 1.414 . S
C1294 C1295 1.374 . S
C1295 H1275 0.950 . S
C1295 C1291 1.385 . S
C1295 C1294 1.374 . S
C1296 C1293 1.499 . S
C1296 C1297 1.373 . S
C1296 C1298 1.389 . S
C1297 H1276 0.950 . S
C1297 C1296 1.373 . S
C1297 C1313 1.377 . S
C1298 C1296 1.389 . S
C1298 C1299 1.524 . S
C1298 C1312 1.377 . S
C1299 C1298 1.524 . S
C1299 C1300 1.397 . S
C1299 C1304 1.363 . S
C1300 H1277 0.950 . S
C1300 C1299 1.397 . S
C1300 C1301 1.334 . S
C1301 H1278 0.950 . S
C1301 C1300 1.334 . S
C1301 C1302 1.287 . S
C1302 C1301 1.287 . S
C1302 C1303 1.524 . S
C1302 H1321 0.913 . S
C1303 H1279 0.950 . S
C1303 C1302 1.524 . S
C1303 C1304 1.415 . S
C1304 H1280 0.950 . S
C1304 C1299 1.363 . S
C1304 C1303 1.415 . S
C1305 H1281 0.951 . S
C1305 C1306 1.366 . S
C1305 C1307 1.388 . S
C1306 C1305 1.366 . S
C1306 C1310 1.385 . S
C1307 H1282 0.951 . S
C1307 C1305 1.388 . S
C1307 C1308 1.366 . S
C1308 C1307 1.366 . S
C1308 C1309 1.414 . S
C1308 C1311 1.499 . S
C1309 H1283 0.950 . S
C1309 C1308 1.414 . S
C1309 C1310 1.374 . S
C1310 H1284 0.950 . S
C1310 C1306 1.385 . S
C1310 C1309 1.374 . S
C1311 C1308 1.499 . S
C1311 C1312 1.373 . S
C1311 C1313 1.389 . S
C1312 H1285 0.950 . S
C1312 C1298 1.377 . S
C1312 C1311 1.373 . S
C1313 C1297 1.377 . S
C1313 C1311 1.389 . S
C1313 C1314 1.524 . S
C1314 C1313 1.524 . S
C1314 C1315 1.397 . S
C1314 C1319 1.363 . S
C1315 H1286 0.950 . S
C1315 C1314 1.397 . S
C1315 C1316 1.334 . S
C1316 H1287 0.950 . S
C1316 C1315 1.334 . S
C1316 C1317 1.287 . S
C1317 C1316 1.287 . S
C1317 C1318 1.524 . S
C1317 H1320 0.999 . S
C1318 H1288 0.950 . S
C1318 C1317 1.524 . S
C1318 C1319 1.415 . S
C1319 H1289 0.950 . S
C1319 C1314 1.363 . S
C1319 C1318 1.415 . S
H1320 C1317 0.999 . S
H1321 C1302 0.913 . S
H1322 C1340 0.951 . S
H1323 C1342 0.951 . S
H1324 C1344 0.950 . S
H1325 C1345 0.950 . S
H1326 C1347 0.950 . S
H1327 C1350 0.950 . S
H1328 C1351 0.950 . S
H1329 C1353 0.950 . S
H1330 C1354 0.950 . S
H1331 C1355 0.951 . S
H1332 C1357 0.951 . S
H1333 C1359 0.950 . S
H1334 C1360 0.950 . S
H1335 C1362 0.950 . S
H1336 C1365 0.950 . S
H1337 C1366 0.950 . S
H1338 C1368 0.950 . S
H1339 C1369 0.950 . S
C1340 H1322 0.951 . S
C1340 C1341 1.366 . S
C1340 C1342 1.388 . S
C1341 C1340 1.366 . S
C1341 C1345 1.385 . S
C1342 H1323 0.951 . S
C1342 C1340 1.388 . S
C1342 C1343 1.366 . S
C1343 C1342 1.366 . S
C1343 C1344 1.414 . S
C1343 C1346 1.499 . S
C1344 H1324 0.950 . S
C1344 C1343 1.414 . S
C1344 C1345 1.374 . S
C1345 H1325 0.950 . S
C1345 C1341 1.385 . S
C1345 C1344 1.374 . S
C1346 C1343 1.499 . S
C1346 C1347 1.373 . S
C1346 C1348 1.389 . S
C1347 H1326 0.950 . S
C1347 C1346 1.373 . S
C1347 C1363 1.377 . S
C1348 C1346 1.389 . S
C1348 C1349 1.524 . S
C1348 C1362 1.377 . S
C1349 C1348 1.524 . S
C1349 C1350 1.397 . S
C1349 C1354 1.363 . S
C1350 H1327 0.950 . S
C1350 C1349 1.397 . S
C1350 C1351 1.334 . S
C1351 H1328 0.950 . S
C1351 C1350 1.334 . S
C1351 C1352 1.287 . S
C1352 C1351 1.287 . S
C1352 C1353 1.524 . S
C1352 H1371 0.913 . S
C1353 H1329 0.950 . S
C1353 C1352 1.524 . S
C1353 C1354 1.415 . S
C1354 H1330 0.950 . S
C1354 C1349 1.363 . S
C1354 C1353 1.415 . S
C1355 H1331 0.951 . S
C1355 C1356 1.366 . S
C1355 C1357 1.388 . S
C1356 C1355 1.366 . S
C1356 C1360 1.385 . S
C1357 H1332 0.951 . S
C1357 C1355 1.388 . S
C1357 C1358 1.366 . S
C1358 C1357 1.366 . S
C1358 C1359 1.414 . S
C1358 C1361 1.499 . S
C1359 H1333 0.950 . S
C1359 C1358 1.414 . S
C1359 C1360 1.374 . S
C1360 H1334 0.950 . S
C1360 C1356 1.385 . S
C1360 C1359 1.374 . S
C1361 C1358 1.499 . S
C1361 C1362 1.373 . S
C1361 C1363 1.389 . S
C1362 H1335 0.950 . S
C1362 C1348 1.377 . S
C1362 C1361 1.373 . S
C1363 C1347 1.377 . S
C1363 C1361 1.389 . S
C1363 C1364 1.524 . S
C1364 C1363 1.524 . S
C1364 C1365 1.397 . S
C1364 C1369 1.363 . S
C1365 H1336 0.950 . S
C1365 C1364 1.397 . S
C1365 C1366 1.334 . S
C1366 H1337 0.950 . S
C1366 C1365 1.334 . S
C1366 C1367 1.287 . S
C1367 C1366 1.287 . S
C1367 C1368 1.524 . S
C1367 H1370 0.999 . S
C1368 H1338 0.950 . S
C1368 C1367 1.524 . S
C1368 C1369 1.415 . S
C1369 H1339 0.950 . S
C1369 C1364 1.363 . S
C1369 C1368 1.415 . S
H1370 C1367 0.999 . S
H1371 C1352 0.913 . S
H1372 C1390 0.951 . S
H1373 C1392 0.951 . S
H1374 C1394 0.950 . S
H1375 C1395 0.950 . S
H1376 C1397 0.950 . S
H1377 C1400 0.950 . S
H1378 C1401 0.950 . S
H1379 C1403 0.950 . S
H1380 C1404 0.950 . S
H1381 C1405 0.951 . S
H1382 C1407 0.951 . S
H1383 C1409 0.950 . S
H1384 C1410 0.950 . S
H1385 C1412 0.950 . S
H1386 C1415 0.950 . S
H1387 C1416 0.950 . S
H1388 C1418 0.950 . S
H1389 C1419 0.950 . S
C1390 H1372 0.951 . S
C1390 C1391 1.366 . S
C1390 C1392 1.388 . S
C1391 C1390 1.366 . S
C1391 C1395 1.385 . S
C1392 H1373 0.951 . S
C1392 C1390 1.388 . S
C1392 C1393 1.366 . S
C1393 C1392 1.366 . S
C1393 C1394 1.414 . S
C1393 C1396 1.499 . S
C1394 H1374 0.950 . S
C1394 C1393 1.414 . S
C1394 C1395 1.374 . S
C1395 H1375 0.950 . S
C1395 C1391 1.385 . S
C1395 C1394 1.374 . S
C1396 C1393 1.499 . S
C1396 C1397 1.373 . S
C1396 C1398 1.389 . S
C1397 H1376 0.950 . S
C1397 C1396 1.373 . S
C1397 C1413 1.377 . S
C1398 C1396 1.389 . S
C1398 C1399 1.524 . S
C1398 C1412 1.377 . S
C1399 C1398 1.524 . S
C1399 C1400 1.397 . S
C1399 C1404 1.363 . S
C1400 H1377 0.950 . S
C1400 C1399 1.397 . S
C1400 C1401 1.334 . S
C1401 H1378 0.950 . S
C1401 C1400 1.334 . S
C1401 C1402 1.287 . S
C1402 C1401 1.287 . S
C1402 C1403 1.524 . S
C1402 H1421 0.913 . S
C1403 H1379 0.950 . S
C1403 C1402 1.524 . S
C1403 C1404 1.415 . S
C1404 H1380 0.950 . S
C1404 C1399 1.363 . S
C1404 C1403 1.415 . S
C1405 H1381 0.951 . S
C1405 C1406 1.366 . S
C1405 C1407 1.388 . S
C1406 C1405 1.366 . S
C1406 C1410 1.385 . S
C1407 H1382 0.951 . S
C1407 C1405 1.388 . S
C1407 C1408 1.366 . S
C1408 C1407 1.366 . S
C1408 C1409 1.414 . S
C1408 C1411 1.499 . S
C1409 H1383 0.950 . S
C1409 C1408 1.414 . S
C1409 C1410 1.374 . S
C1410 H1384 0.950 . S
C1410 C1406 1.385 . S
C1410 C1409 1.374 . S
C1411 C1408 1.499 . S
C1411 C1412 1.373 . S
C1411 C1413 1.389 . S
C1412 H1385 0.950 . S
C1412 C1398 1.377 . S
C1412 C1411 1.373 . S
C1413 C1397 1.377 . S
C1413 C1411 1.389 . S
C1413 C1414 1.524 . S
C1414 C1413 1.524 . S
C1414 C1415 1.397 . S
C1414 C1419 1.363 . S
C1415 H1386 0.950 . S
C1415 C1414 1.397 . S
C1415 C1416 1.334 . S
C1416 H1387 0.950 . S
C1416 C1415 1.334 . S
C1416 C1417 1.287 . S
C1417 C1416 1.287 . S
C1417 C1418 1.524 . S
C1417 H1420 0.999 . S
C1418 H1388 0.950 . S
C1418 C1417 1.524 . S
C1418 C1419 1.415 . S
C1419 H1389 0.950 . S
C1419 C1414 1.363 . S
C1419 C1418 1.415 . S
H1420 C1417 0.999 . S
H1421 C1402 0.913 . S
H1422 C1440 0.951 . S
H1423 C1442 0.951 . S
H1424 C1444 0.950 . S
H1425 C1445 0.950 . S
H1426 C1447 0.950 . S
H1427 C1450 0.950 . S
H1428 C1451 0.950 . S
H1429 C1453 0.950 . S
H1430 C1454 0.950 . S
H1431 C1455 0.951 . S
H1432 C1457 0.951 . S
H1433 C1459 0.950 . S
H1434 C1460 0.950 . S
H1435 C1462 0.950 . S
H1436 C1465 0.950 . S
H1437 C1466 0.950 . S
H1438 C1468 0.950 . S
H1439 C1469 0.950 . S
C1440 H1422 0.951 . S
C1440 C1441 1.366 . S
C1440 C1442 1.388 . S
C1441 C1440 1.366 . S
C1441 C1445 1.385 . S
C1442 H1423 0.951 . S
C1442 C1440 1.388 . S
C1442 C1443 1.366 . S
C1443 C1442 1.366 . S
C1443 C1444 1.414 . S
C1443 C1446 1.499 . S
C1444 H1424 0.950 . S
C1444 C1443 1.414 . S
C1444 C1445 1.374 . S
C1445 H1425 0.950 . S
C1445 C1441 1.385 . S
C1445 C1444 1.374 . S
C1446 C1443 1.499 . S
C1446 C1447 1.373 . S
C1446 C1448 1.389 . S
C1447 H1426 0.950 . S
C1447 C1446 1.373 . S
C1447 C1463 1.377 . S
C1448 C1446 1.389 . S
C1448 C1449 1.524 . S
C1448 C1462 1.377 . S
C1449 C1448 1.524 . S
C1449 C1450 1.397 . S
C1449 C1454 1.363 . S
C1450 H1427 0.950 . S
C1450 C1449 1.397 . S
C1450 C1451 1.334 . S
C1451 H1428 0.950 . S
C1451 C1450 1.334 . S
C1451 C1452 1.287 . S
C1452 C1451 1.287 . S
C1452 C1453 1.524 . S
C1452 H1471 0.913 . S
C1453 H1429 0.950 . S
C1453 C1452 1.524 . S
C1453 C1454 1.415 . S
C1454 H1430 0.950 . S
C1454 C1449 1.363 . S
C1454 C1453 1.415 . S
C1455 H1431 0.951 . S
C1455 C1456 1.366 . S
C1455 C1457 1.388 . S
C1456 C1455 1.366 . S
C1456 C1460 1.385 . S
C1457 H1432 0.951 . S
C1457 C1455 1.388 . S
C1457 C1458 1.366 . S
C1458 C1457 1.366 . S
C1458 C1459 1.414 . S
C1458 C1461 1.499 . S
C1459 H1433 0.950 . S
C1459 C1458 1.414 . S
C1459 C1460 1.374 . S
C1460 H1434 0.950 . S
C1460 C1456 1.385 . S
C1460 C1459 1.374 . S
C1461 C1458 1.499 . S
C1461 C1462 1.373 . S
C1461 C1463 1.389 . S
C1462 H1435 0.950 . S
C1462 C1448 1.377 . S
C1462 C1461 1.373 . S
C1463 C1447 1.377 . S
C1463 C1461 1.389 . S
C1463 C1464 1.524 . S
C1464 C1463 1.524 . S
C1464 C1465 1.397 . S
C1464 C1469 1.363 . S
C1465 H1436 0.950 . S
C1465 C1464 1.397 . S
C1465 C1466 1.334 . S
C1466 H1437 0.950 . S
C1466 C1465 1.334 . S
C1466 C1467 1.287 . S
C1467 C1466 1.287 . S
C1467 C1468 1.524 . S
C1467 H1470 0.999 . S
C1468 H1438 0.950 . S
C1468 C1467 1.524 . S
C1468 C1469 1.415 . S
C1469 H1439 0.950 . S
C1469 C1464 1.363 . S
C1469 C1468 1.415 . S
H1470 C1467 0.999 . S
H1471 C1452 0.913 . S
H1472 C1490 0.951 . S
H1473 C1492 0.951 . S
H1474 C1494 0.950 . S
H1475 C1495 0.950 . S
H1476 C1497 0.950 . S
H1477 C1500 0.950 . S
H1478 C1501 0.950 . S
H1479 C1503 0.950 . S
H1480 C1504 0.950 . S
H1481 C1505 0.951 . S
H1482 C1507 0.951 . S
H1483 C1509 0.950 . S
H1484 C1510 0.950 . S
H1485 C1512 0.950 . S
H1486 C1515 0.950 . S
H1487 C1516 0.950 . S
H1488 C1518 0.950 . S
H1489 C1519 0.950 . S
C1490 H1472 0.951 . S
C1490 C1491 1.366 . S
C1490 C1492 1.388 . S
C1491 C1490 1.366 . S
C1491 C1495 1.385 . S
C1492 H1473 0.951 . S
C1492 C1490 1.388 . S
C1492 C1493 1.366 . S
C1493 C1492 1.366 . S
C1493 C1494 1.414 . S
C1493 C1496 1.499 . S
C1494 H1474 0.950 . S
C1494 C1493 1.414 . S
C1494 C1495 1.374 . S
C1495 H1475 0.950 . S
C1495 C1491 1.385 . S
C1495 C1494 1.374 . S
C1496 C1493 1.499 . S
C1496 C1497 1.373 . S
C1496 C1498 1.389 . S
C1497 H1476 0.950 . S
C1497 C1496 1.373 . S
C1497 C1513 1.377 . S
C1498 C1496 1.389 . S
C1498 C1499 1.524 . S
C1498 C1512 1.377 . S
C1499 C1498 1.524 . S
C1499 C1500 1.397 . S
C1499 C1504 1.363 . S
C1500 H1477 0.950 . S
C1500 C1499 1.397 . S
C1500 C1501 1.334 . S
C1501 H1478 0.950 . S
C1501 C1500 1.334 . S
C1501 C1502 1.287 . S
C1502 C1501 1.287 . S
C1502 C1503 1.524 . S
C1502 H1521 0.913 . S
C1503 H1479 0.950 . S
C1503 C1502 1.524 . S
C1503 C1504 1.415 . S
C1504 H1480 0.950 . S
C1504 C1499 1.363 . S
C1504 C1503 1.415 . S
C1505 H1481 0.951 . S
C1505 C1506 1.366 . S
C1505 C1507 1.388 . S
C1506 C1505 1.366 . S
C1506 C1510 1.385 . S
C1507 H1482 0.951 . S
C1507 C1505 1.388 . S
C1507 C1508 1.366 . S
C1508 C1507 1.366 . S
C1508 C1509 1.414 . S
C1508 C1511 1.499 . S
C1509 H1483 0.950 . S
C1509 C1508 1.414 . S
C1509 C1510 1.374 . S
C1510 H1484 0.950 . S
C1510 C1506 1.385 . S
C1510 C1509 1.374 . S
C1511 C1508 1.499 . S
C1511 C1512 1.373 . S
C1511 C1513 1.389 . S
C1512 H1485 0.950 . S
C1512 C1498 1.377 . S
C1512 C1511 1.373 . S
C1513 C1497 1.377 . S
C1513 C1511 1.389 . S
C1513 C1514 1.524 . S
C1514 C1513 1.524 . S
C1514 C1515 1.397 . S
C1514 C1519 1.363 . S
C1515 H1486 0.950 . S
C1515 C1514 1.397 . S
C1515 C1516 1.334 . S
C1516 H1487 0.950 . S
C1516 C1515 1.334 . S
C1516 C1517 1.287 . S
C1517 C1516 1.287 . S
C1517 C1518 1.524 . S
C1517 H1520 0.999 . S
C1518 H1488 0.950 . S
C1518 C1517 1.524 . S
C1518 C1519 1.415 . S
C1519 H1489 0.950 . S
C1519 C1514 1.363 . S
C1519 C1518 1.415 . S
H1520 C1517 0.999 . S
H1521 C1502 0.913 . S
H1522 C1540 0.951 . S
H1523 C1542 0.951 . S
H1524 C1544 0.950 . S
H1525 C1545 0.950 . S
H1526 C1547 0.950 . S
H1527 C1550 0.950 . S
H1528 C1551 0.950 . S
H1529 C1553 0.950 . S
H1530 C1554 0.950 . S
H1531 C1555 0.951 . S
H1532 C1557 0.951 . S
H1533 C1559 0.950 . S
H1534 C1560 0.950 . S
H1535 C1562 0.950 . S
H1536 C1565 0.950 . S
H1537 C1566 0.950 . S
H1538 C1568 0.950 . S
H1539 C1569 0.950 . S
C1540 H1522 0.951 . S
C1540 C1541 1.366 . S
C1540 C1542 1.388 . S
C1541 C1540 1.366 . S
C1541 C1545 1.385 . S
C1542 H1523 0.951 . S
C1542 C1540 1.388 . S
C1542 C1543 1.366 . S
C1543 C1542 1.366 . S
C1543 C1544 1.414 . S
C1543 C1546 1.499 . S
C1544 H1524 0.950 . S
C1544 C1543 1.414 . S
C1544 C1545 1.374 . S
C1545 H1525 0.950 . S
C1545 C1541 1.385 . S
C1545 C1544 1.374 . S
C1546 C1543 1.499 . S
C1546 C1547 1.373 . S
C1546 C1548 1.389 . S
C1547 H1526 0.950 . S
C1547 C1546 1.373 . S
C1547 C1563 1.377 . S
C1548 C1546 1.389 . S
C1548 C1549 1.524 . S
C1548 C1562 1.377 . S
C1549 C1548 1.524 . S
C1549 C1550 1.397 . S
C1549 C1554 1.363 . S
C1550 H1527 0.950 . S
C1550 C1549 1.397 . S
C1550 C1551 1.334 . S
C1551 H1528 0.950 . S
C1551 C1550 1.334 . S
C1551 C1552 1.287 . S
C1552 C1551 1.287 . S
C1552 C1553 1.524 . S
C1552 H1571 0.913 . S
C1553 H1529 0.950 . S
C1553 C1552 1.524 . S
C1553 C1554 1.415 . S
C1554 H1530 0.950 . S
C1554 C1549 1.363 . S
C1554 C1553 1.415 . S
C1555 H1531 0.951 . S
C1555 C1556 1.366 . S
C1555 C1557 1.388 . S
C1556 C1555 1.366 . S
C1556 C1560 1.385 . S
C1557 H1532 0.951 . S
C1557 C1555 1.388 . S
C1557 C1558 1.366 . S
C1558 C1557 1.366 . S
C1558 C1559 1.414 . S
C1558 C1561 1.499 . S
C1559 H1533 0.950 . S
C1559 C1558 1.414 . S
C1559 C1560 1.374 . S
C1560 H1534 0.950 . S
C1560 C1556 1.385 . S
C1560 C1559 1.374 . S
C1561 C1558 1.499 . S
C1561 C1562 1.373 . S
C1561 C1563 1.389 . S
C1562 H1535 0.950 . S
C1562 C1548 1.377 . S
C1562 C1561 1.373 . S
C1563 C1547 1.377 . S
C1563 C1561 1.389 . S
C1563 C1564 1.524 . S
C1564 C1563 1.524 . S
C1564 C1565 1.397 . S
C1564 C1569 1.363 . S
C1565 H1536 0.950 . S
C1565 C1564 1.397 . S
C1565 C1566 1.334 . S
C1566 H1537 0.950 . S
C1566 C1565 1.334 . S
C1566 C1567 1.287 . S
C1567 C1566 1.287 . S
C1567 C1568 1.524 . S
C1567 H1570 0.999 . S
C1568 H1538 0.950 . S
C1568 C1567 1.524 . S
C1568 C1569 1.415 . S
C1569 H1539 0.950 . S
C1569 C1564 1.363 . S
C1569 C1568 1.415 . S
H1570 C1567 0.999 . S
H1571 C1552 0.913 . S
H1572 C1590 0.951 . S
H1573 C1592 0.951 1_565 S
H1574 C1594 0.950 . S
H1575 C1595 0.950 . S
H1576 C1597 0.950 . S
H1577 C1600 0.950 . S
H1578 C1601 0.950 . S
H1579 C1603 0.950 . S
H1580 C1604 0.950 . S
H1581 C1605 0.951 . S
H1582 C1607 0.951 . S
H1583 C1609 0.950 . S
H1584 C1610 0.950 . S
H1585 C1612 0.950 . S
H1586 C1615 0.950 . S
H1587 C1616 0.950 . S
H1588 C1618 0.950 . S
H1589 C1619 0.950 . S
C1590 H1572 0.951 . S
C1590 C1591 1.366 . S
C1590 C1592 1.388 . S
C1591 C1590 1.366 . S
C1591 C1595 1.385 . S
C1592 H1573 0.951 1_545 S
C1592 C1590 1.388 . S
C1592 C1593 1.366 1_545 S
C1593 C1592 1.366 1_565 S
C1593 C1594 1.414 . S
C1593 C1596 1.499 . S
C1594 H1574 0.950 . S
C1594 C1593 1.414 . S
C1594 C1595 1.374 1_565 S
C1595 H1575 0.950 . S
C1595 C1591 1.385 . S
C1595 C1594 1.374 1_545 S
C1596 C1593 1.499 . S
C1596 C1597 1.373 . S
C1596 C1598 1.389 . S
C1597 H1576 0.950 . S
C1597 C1596 1.373 . S
C1597 C1613 1.377 . S
C1598 C1596 1.389 . S
C1598 C1599 1.524 . S
C1598 C1612 1.377 . S
C1599 C1598 1.524 . S
C1599 C1600 1.397 . S
C1599 C1604 1.363 . S
C1600 H1577 0.950 . S
C1600 C1599 1.397 . S
C1600 C1601 1.334 . S
C1601 H1578 0.950 . S
C1601 C1600 1.334 . S
C1601 C1602 1.287 . S
C1602 C1601 1.287 . S
C1602 C1603 1.524 . S
C1602 H1621 0.913 . S
C1603 H1579 0.950 . S
C1603 C1602 1.524 . S
C1603 C1604 1.415 . S
C1604 H1580 0.950 . S
C1604 C1599 1.363 . S
C1604 C1603 1.415 . S
C1605 H1581 0.951 . S
C1605 C1606 1.366 . S
C1605 C1607 1.388 . S
C1606 C1605 1.366 . S
C1606 C1610 1.385 . S
C1607 H1582 0.951 . S
C1607 C1605 1.388 . S
C1607 C1608 1.366 . S
C1608 C1607 1.366 . S
C1608 C1609 1.414 . S
C1608 C1611 1.499 . S
C1609 H1583 0.950 . S
C1609 C1608 1.414 . S
C1609 C1610 1.374 . S
C1610 H1584 0.950 . S
C1610 C1606 1.385 . S
C1610 C1609 1.374 . S
C1611 C1608 1.499 . S
C1611 C1612 1.373 . S
C1611 C1613 1.389 . S
C1612 H1585 0.950 . S
C1612 C1598 1.377 . S
C1612 C1611 1.373 . S
C1613 C1597 1.377 . S
C1613 C1611 1.389 . S
C1613 C1614 1.524 . S
C1614 C1613 1.524 . S
C1614 C1615 1.397 . S
C1614 C1619 1.363 . S
C1615 H1586 0.950 . S
C1615 C1614 1.397 . S
C1615 C1616 1.334 . S
C1616 H1587 0.950 . S
C1616 C1615 1.334 . S
C1616 C1617 1.287 . S
C1617 C1616 1.287 . S
C1617 C1618 1.524 . S
C1617 H1620 0.999 . S
C1618 H1588 0.950 . S
C1618 C1617 1.524 . S
C1618 C1619 1.415 . S
C1619 H1589 0.950 . S
C1619 C1614 1.363 . S
C1619 C1618 1.415 . S
H1620 C1617 0.999 . S
H1621 C1602 0.913 . S
H1622 C1640 0.951 . S
H1623 C1642 0.951 . S
H1624 C1644 0.950 . S
H1625 C1645 0.950 . S
H1626 C1647 0.950 . S
H1627 C1650 0.950 . S
H1628 C1651 0.950 . S
H1629 C1653 0.950 . S
H1630 C1654 0.950 . S
H1631 C1655 0.951 . S
H1632 C1657 0.951 . S
H1633 C1659 0.950 . S
H1634 C1660 0.950 . S
H1635 C1662 0.950 . S
H1636 C1665 0.950 . S
H1637 C1666 0.950 . S
H1638 C1668 0.950 . S
H1639 C1669 0.950 . S
C1640 H1622 0.951 . S
C1640 C1641 1.366 . S
C1640 C1642 1.388 1_655 S
C1641 C1640 1.366 . S
C1641 C1645 1.385 . S
C1642 H1623 0.951 . S
C1642 C1640 1.388 1_455 S
C1642 C1643 1.366 . S
C1643 C1642 1.366 . S
C1643 C1644 1.414 . S
C1643 C1646 1.499 . S
C1644 H1624 0.950 . S
C1644 C1643 1.414 . S
C1644 C1645 1.374 1_455 S
C1645 H1625 0.950 . S
C1645 C1641 1.385 . S
C1645 C1644 1.374 1_655 S
C1646 C1643 1.499 . S
C1646 C1647 1.373 . S
C1646 C1648 1.389 . S
C1647 H1626 0.950 . S
C1647 C1646 1.373 . S
C1647 C1663 1.377 . S
C1648 C1646 1.389 . S
C1648 C1649 1.524 . S
C1648 C1662 1.377 . S
C1649 C1648 1.524 . S
C1649 C1650 1.397 . S
C1649 C1654 1.363 . S
C1650 H1627 0.950 . S
C1650 C1649 1.397 . S
C1650 C1651 1.334 . S
C1651 H1628 0.950 . S
C1651 C1650 1.334 . S
C1651 C1652 1.287 . S
C1652 C1651 1.287 . S
C1652 C1653 1.524 . S
C1652 H1671 0.913 . S
C1653 H1629 0.950 . S
C1653 C1652 1.524 . S
C1653 C1654 1.415 . S
C1654 H1630 0.950 . S
C1654 C1649 1.363 . S
C1654 C1653 1.415 . S
C1655 H1631 0.951 . S
C1655 C1656 1.366 . S
C1655 C1657 1.388 . S
C1656 C1655 1.366 . S
C1656 C1660 1.385 . S
C1657 H1632 0.951 . S
C1657 C1655 1.388 . S
C1657 C1658 1.366 . S
C1658 C1657 1.366 . S
C1658 C1659 1.414 . S
C1658 C1661 1.499 . S
C1659 H1633 0.950 . S
C1659 C1658 1.414 . S
C1659 C1660 1.374 . S
C1660 H1634 0.950 . S
C1660 C1656 1.385 . S
C1660 C1659 1.374 . S
C1661 C1658 1.499 . S
C1661 C1662 1.373 . S
C1661 C1663 1.389 . S
C1662 H1635 0.950 . S
C1662 C1648 1.377 . S
C1662 C1661 1.373 . S
C1663 C1647 1.377 . S
C1663 C1661 1.389 . S
C1663 C1664 1.524 . S
C1664 C1663 1.524 . S
C1664 C1665 1.397 . S
C1664 C1669 1.363 . S
C1665 H1636 0.950 . S
C1665 C1664 1.397 . S
C1665 C1666 1.334 . S
C1666 H1637 0.950 . S
C1666 C1665 1.334 . S
C1666 C1667 1.287 . S
C1667 C1666 1.287 . S
C1667 C1668 1.524 . S
C1667 H1670 0.999 . S
C1668 H1638 0.950 . S
C1668 C1667 1.524 . S
C1668 C1669 1.415 . S
C1669 H1639 0.950 . S
C1669 C1664 1.363 . S
C1669 C1668 1.415 . S
H1670 C1667 0.999 . S
H1671 C1652 0.913 . S
H1672 C1690 0.951 . S
H1673 C1692 0.951 . S
H1674 C1694 0.950 . S
H1675 C1695 0.950 . S
H1676 C1697 0.950 . S
H1677 C1700 0.950 . S
H1678 C1701 0.950 . S
H1679 C1703 0.950 . S
H1680 C1704 0.950 . S
H1681 C1705 0.951 . S
H1682 C1707 0.951 . S
H1683 C1709 0.950 . S
H1684 C1710 0.950 . S
H1685 C1712 0.950 . S
H1686 C1715 0.950 . S
H1687 C1716 0.950 . S
H1688 C1718 0.950 . S
H1689 C1719 0.950 . S
C1690 H1672 0.951 . S
C1690 C1691 1.366 . S
C1690 C1692 1.388 . S
C1691 C1690 1.366 . S
C1691 C1695 1.385 . S
C1692 H1673 0.951 . S
C1692 C1690 1.388 . S
C1692 C1693 1.366 . S
C1693 C1692 1.366 . S
C1693 C1694 1.414 . S
C1693 C1696 1.499 . S
C1694 H1674 0.950 . S
C1694 C1693 1.414 . S
C1694 C1695 1.374 . S
C1695 H1675 0.950 . S
C1695 C1691 1.385 . S
C1695 C1694 1.374 . S
C1696 C1693 1.499 . S
C1696 C1697 1.373 . S
C1696 C1698 1.389 . S
C1697 H1676 0.950 . S
C1697 C1696 1.373 . S
C1697 C1713 1.377 . S
C1698 C1696 1.389 . S
C1698 C1699 1.524 . S
C1698 C1712 1.377 . S
C1699 C1698 1.524 . S
C1699 C1700 1.397 . S
C1699 C1704 1.363 . S
C1700 H1677 0.950 . S
C1700 C1699 1.397 . S
C1700 C1701 1.334 . S
C1701 H1678 0.950 . S
C1701 C1700 1.334 . S
C1701 C1702 1.287 . S
C1702 C1701 1.287 . S
C1702 C1703 1.524 . S
C1702 H1721 0.913 . S
C1703 H1679 0.950 . S
C1703 C1702 1.524 . S
C1703 C1704 1.415 . S
C1704 H1680 0.950 . S
C1704 C1699 1.363 . S
C1704 C1703 1.415 . S
C1705 H1681 0.951 . S
C1705 C1706 1.366 . S
C1705 C1707 1.388 . S
C1706 C1705 1.366 . S
C1706 C1710 1.385 . S
C1707 H1682 0.951 . S
C1707 C1705 1.388 . S
C1707 C1708 1.366 . S
C1708 C1707 1.366 . S
C1708 C1709 1.414 . S
C1708 C1711 1.499 . S
C1709 H1683 0.950 . S
C1709 C1708 1.414 . S
C1709 C1710 1.374 . S
C1710 H1684 0.950 . S
C1710 C1706 1.385 . S
C1710 C1709 1.374 . S
C1711 C1708 1.499 . S
C1711 C1712 1.373 . S
C1711 C1713 1.389 . S
C1712 H1685 0.950 . S
C1712 C1698 1.377 . S
C1712 C1711 1.373 . S
C1713 C1697 1.377 . S
C1713 C1711 1.389 . S
C1713 C1714 1.524 . S
C1714 C1713 1.524 . S
C1714 C1715 1.397 . S
C1714 C1719 1.363 . S
C1715 H1686 0.950 . S
C1715 C1714 1.397 . S
C1715 C1716 1.334 . S
C1716 H1687 0.950 . S
C1716 C1715 1.334 . S
C1716 C1717 1.287 . S
C1717 C1716 1.287 . S
C1717 C1718 1.524 . S
C1717 H1720 0.999 . S
C1718 H1688 0.950 . S
C1718 C1717 1.524 . S
C1718 C1719 1.415 . S
C1719 H1689 0.950 . S
C1719 C1714 1.363 . S
C1719 C1718 1.415 . S
H1720 C1717 0.999 . S
H1721 C1702 0.913 . S
H1722 C1740 0.951 . S
H1723 C1742 0.951 . S
H1724 C1744 0.950 . S
H1725 C1745 0.950 . S
H1726 C1747 0.950 . S
H1727 C1750 0.950 . S
H1728 C1751 0.950 . S
H1729 C1753 0.950 . S
H1730 C1754 0.950 . S
H1731 C1755 0.951 . S
H1732 C1757 0.951 . S
H1733 C1759 0.950 . S
H1734 C1760 0.950 . S
H1735 C1762 0.950 . S
H1736 C1765 0.950 . S
H1737 C1766 0.950 . S
H1738 C1768 0.950 . S
H1739 C1769 0.950 . S
C1740 H1722 0.951 . S
C1740 C1741 1.366 . S
C1740 C1742 1.388 . S
C1741 C1740 1.366 . S
C1741 C1745 1.385 . S
C1742 H1723 0.951 . S
C1742 C1740 1.388 . S
C1742 C1743 1.366 . S
C1743 C1742 1.366 . S
C1743 C1744 1.414 . S
C1743 C1746 1.499 . S
C1744 H1724 0.950 . S
C1744 C1743 1.414 . S
C1744 C1745 1.374 . S
C1745 H1725 0.950 . S
C1745 C1741 1.385 . S
C1745 C1744 1.374 . S
C1746 C1743 1.499 . S
C1746 C1747 1.373 . S
C1746 C1748 1.389 . S
C1747 H1726 0.950 . S
C1747 C1746 1.373 . S
C1747 C1763 1.377 . S
C1748 C1746 1.389 . S
C1748 C1749 1.524 . S
C1748 C1762 1.377 . S
C1749 C1748 1.524 . S
C1749 C1750 1.397 . S
C1749 C1754 1.363 . S
C1750 H1727 0.950 . S
C1750 C1749 1.397 . S
C1750 C1751 1.334 . S
C1751 H1728 0.950 . S
C1751 C1750 1.334 . S
C1751 C1752 1.287 . S
C1752 C1751 1.287 . S
C1752 C1753 1.524 . S
C1752 H1771 0.913 . S
C1753 H1729 0.950 . S
C1753 C1752 1.524 . S
C1753 C1754 1.415 . S
C1754 H1730 0.950 . S
C1754 C1749 1.363 . S
C1754 C1753 1.415 . S
C1755 H1731 0.951 . S
C1755 C1756 1.366 . S
C1755 C1757 1.388 . S
C1756 C1755 1.366 . S
C1756 C1760 1.385 . S
C1757 H1732 0.951 . S
C1757 C1755 1.388 . S
C1757 C1758 1.366 . S
C1758 C1757 1.366 . S
C1758 C1759 1.414 . S
C1758 C1761 1.499 . S
C1759 H1733 0.950 . S
C1759 C1758 1.414 . S
C1759 C1760 1.374 . S
C1760 H1734 0.950 . S
C1760 C1756 1.385 . S
C1760 C1759 1.374 . S
C1761 C1758 1.499 . S
C1761 C1762 1.373 . S
C1761 C1763 1.389 . S
C1762 H1735 0.950 . S
C1762 C1748 1.377 . S
C1762 C1761 1.373 . S
C1763 C1747 1.377 . S
C1763 C1761 1.389 . S
C1763 C1764 1.524 . S
C1764 C1763 1.524 . S
C1764 C1765 1.397 . S
C1764 C1769 1.363 . S
C1765 H1736 0.950 . S
C1765 C1764 1.397 . S
C1765 C1766 1.334 . S
C1766 H1737 0.950 . S
C1766 C1765 1.334 . S
C1766 C1767 1.287 . S
C1767 C1766 1.287 . S
C1767 C1768 1.524 . S
C1767 H1770 0.999 . S
C1768 H1738 0.950 . S
C1768 C1767 1.524 . S
C1768 C1769 1.415 . S
C1769 H1739 0.950 . S
C1769 C1764 1.363 . S
C1769 C1768 1.415 . S
H1770 C1767 0.999 . S
H1771 C1752 0.913 . S
H1772 C1790 0.951 . S
H1773 C1792 0.951 . S
H1774 C1794 0.950 . S
H1775 C1795 0.950 . S
H1776 C1797 0.950 . S
H1777 C1800 0.950 . S
H1778 C1801 0.950 . S
H1779 C1803 0.950 . S
H1780 C1804 0.950 . S
H1781 C1805 0.951 . S
H1782 C1807 0.951 . S
H1783 C1809 0.950 . S
H1784 C1810 0.950 . S
H1785 C1812 0.950 . S
H1786 C1815 0.950 . S
H1787 C1816 0.950 . S
H1788 C1818 0.950 . S
H1789 C1819 0.950 . S
C1790 H1772 0.951 . S
C1790 C1791 1.366 . S
C1790 C1792 1.388 . S
C1791 C1790 1.366 . S
C1791 C1795 1.385 . S
C1792 H1773 0.951 . S
C1792 C1790 1.388 . S
C1792 C1793 1.366 . S
C1793 C1792 1.366 . S
C1793 C1794 1.414 . S
C1793 C1796 1.499 . S
C1794 H1774 0.950 . S
C1794 C1793 1.414 . S
C1794 C1795 1.374 . S
C1795 H1775 0.950 . S
C1795 C1791 1.385 . S
C1795 C1794 1.374 . S
C1796 C1793 1.499 . S
C1796 C1797 1.373 . S
C1796 C1798 1.389 . S
C1797 H1776 0.950 . S
C1797 C1796 1.373 . S
C1797 C1813 1.377 . S
C1798 C1796 1.389 . S
C1798 C1799 1.524 . S
C1798 C1812 1.377 . S
C1799 C1798 1.524 . S
C1799 C1800 1.397 . S
C1799 C1804 1.363 . S
C1800 H1777 0.950 . S
C1800 C1799 1.397 . S
C1800 C1801 1.334 . S
C1801 H1778 0.950 . S
C1801 C1800 1.334 . S
C1801 C1802 1.287 . S
C1802 C1801 1.287 . S
C1802 C1803 1.524 . S
C1802 H1821 0.913 . S
C1803 H1779 0.950 . S
C1803 C1802 1.524 . S
C1803 C1804 1.415 . S
C1804 H1780 0.950 . S
C1804 C1799 1.363 . S
C1804 C1803 1.415 . S
C1805 H1781 0.951 . S
C1805 C1806 1.366 . S
C1805 C1807 1.388 . S
C1806 C1805 1.366 . S
C1806 C1810 1.385 . S
C1807 H1782 0.951 . S
C1807 C1805 1.388 . S
C1807 C1808 1.366 . S
C1808 C1807 1.366 . S
C1808 C1809 1.414 . S
C1808 C1811 1.499 . S
C1809 H1783 0.950 . S
C1809 C1808 1.414 . S
C1809 C1810 1.374 . S
C1810 H1784 0.950 . S
C1810 C1806 1.385 . S
C1810 C1809 1.374 . S
C1811 C1808 1.499 . S
C1811 C1812 1.373 . S
C1811 C1813 1.389 . S
C1812 H1785 0.950 . S
C1812 C1798 1.377 . S
C1812 C1811 1.373 . S
C1813 C1797 1.377 . S
C1813 C1811 1.389 . S
C1813 C1814 1.524 . S
C1814 C1813 1.524 . S
C1814 C1815 1.397 . S
C1814 C1819 1.363 . S
C1815 H1786 0.950 . S
C1815 C1814 1.397 . S
C1815 C1816 1.334 . S
C1816 H1787 0.950 . S
C1816 C1815 1.334 . S
C1816 C1817 1.287 . S
C1817 C1816 1.287 . S
C1817 C1818 1.524 . S
C1817 H1820 0.999 . S
C1818 H1788 0.950 . S
C1818 C1817 1.524 . S
C1818 C1819 1.415 . S
C1819 H1789 0.950 . S
C1819 C1814 1.363 . S
C1819 C1818 1.415 . S
H1820 C1817 0.999 . S
H1821 C1802 0.913 . S
H1822 C1840 0.951 . S
H1823 C1842 0.951 . S
H1824 C1844 0.950 . S
H1825 C1845 0.950 . S
H1826 C1847 0.950 . S
H1827 C1850 0.950 . S
H1828 C1851 0.950 . S
H1829 C1853 0.950 . S
H1830 C1854 0.950 . S
H1831 C1855 0.951 . S
H1832 C1857 0.951 . S
H1833 C1859 0.950 . S
H1834 C1860 0.950 . S
H1835 C1862 0.950 . S
H1836 C1865 0.950 . S
H1837 C1866 0.950 . S
H1838 C1868 0.950 . S
H1839 C1869 0.950 . S
C1840 H1822 0.951 . S
C1840 C1841 1.366 . S
C1840 C1842 1.388 . S
C1841 C1840 1.366 . S
C1841 C1845 1.385 . S
C1842 H1823 0.951 . S
C1842 C1840 1.388 . S
C1842 C1843 1.366 . S
C1843 C1842 1.366 . S
C1843 C1844 1.414 . S
C1843 C1846 1.499 . S
C1844 H1824 0.950 . S
C1844 C1843 1.414 . S
C1844 C1845 1.374 . S
C1845 H1825 0.950 . S
C1845 C1841 1.385 . S
C1845 C1844 1.374 . S
C1846 C1843 1.499 . S
C1846 C1847 1.373 . S
C1846 C1848 1.389 . S
C1847 H1826 0.950 . S
C1847 C1846 1.373 . S
C1847 C1863 1.377 . S
C1848 C1846 1.389 . S
C1848 C1849 1.524 . S
C1848 C1862 1.377 . S
C1849 C1848 1.524 . S
C1849 C1850 1.397 . S
C1849 C1854 1.363 . S
C1850 H1827 0.950 . S
C1850 C1849 1.397 . S
C1850 C1851 1.334 . S
C1851 H1828 0.950 . S
C1851 C1850 1.334 . S
C1851 C1852 1.287 . S
C1852 C1851 1.287 . S
C1852 C1853 1.524 . S
C1852 H1871 0.913 . S
C1853 H1829 0.950 . S
C1853 C1852 1.524 . S
C1853 C1854 1.415 . S
C1854 H1830 0.950 . S
C1854 C1849 1.363 . S
C1854 C1853 1.415 . S
C1855 H1831 0.951 . S
C1855 C1856 1.366 . S
C1855 C1857 1.388 . S
C1856 C1855 1.366 . S
C1856 C1860 1.385 . S
C1857 H1832 0.951 . S
C1857 C1855 1.388 . S
C1857 C1858 1.366 . S
C1858 C1857 1.366 . S
C1858 C1859 1.414 . S
C1858 C1861 1.499 . S
C1859 H1833 0.950 . S
C1859 C1858 1.414 . S
C1859 C1860 1.374 . S
C1860 H1834 0.950 . S
C1860 C1856 1.385 . S
C1860 C1859 1.374 . S
C1861 C1858 1.499 . S
C1861 C1862 1.373 . S
C1861 C1863 1.389 . S
C1862 H1835 0.950 . S
C1862 C1848 1.377 . S
C1862 C1861 1.373 . S
C1863 C1847 1.377 . S
C1863 C1861 1.389 . S
C1863 C1864 1.524 . S
C1864 C1863 1.524 . S
C1864 C1865 1.397 . S
C1864 C1869 1.363 . S
C1865 H1836 0.950 . S
C1865 C1864 1.397 . S
C1865 C1866 1.334 . S
C1866 H1837 0.950 . S
C1866 C1865 1.334 . S
C1866 C1867 1.287 . S
C1867 C1866 1.287 . S
C1867 C1868 1.524 . S
C1867 H1870 0.999 . S
C1868 H1838 0.950 . S
C1868 C1867 1.524 . S
C1868 C1869 1.415 . S
C1869 H1839 0.950 . S
C1869 C1864 1.363 . S
C1869 C1868 1.415 . S
H1870 C1867 0.999 . S
H1871 C1852 0.913 . S
H1872 C1890 0.951 . S
H1873 C1892 0.951 . S
H1874 C1894 0.950 . S
H1875 C1895 0.950 . S
H1876 C1897 0.950 . S
H1877 C1900 0.950 . S
H1878 C1901 0.950 . S
H1879 C1903 0.950 . S
H1880 C1904 0.950 . S
H1881 C1905 0.951 . S
H1882 C1907 0.951 . S
H1883 C1909 0.950 . S
H1884 C1910 0.950 . S
H1885 C1912 0.950 . S
H1886 C1915 0.950 . S
H1887 C1916 0.950 . S
H1888 C1918 0.950 . S
H1889 C1919 0.950 . S
C1890 H1872 0.951 . S
C1890 C1891 1.366 . S
C1890 C1892 1.388 . S
C1891 C1890 1.366 . S
C1891 C1895 1.385 . S
C1892 H1873 0.951 . S
C1892 C1890 1.388 . S
C1892 C1893 1.366 . S
C1893 C1892 1.366 . S
C1893 C1894 1.414 . S
C1893 C1896 1.499 . S
C1894 H1874 0.950 . S
C1894 C1893 1.414 . S
C1894 C1895 1.374 . S
C1895 H1875 0.950 . S
C1895 C1891 1.385 . S
C1895 C1894 1.374 . S
C1896 C1893 1.499 . S
C1896 C1897 1.373 . S
C1896 C1898 1.389 . S
C1897 H1876 0.950 . S
C1897 C1896 1.373 . S
C1897 C1913 1.377 1_565 S
C1898 C1896 1.389 . S
C1898 C1899 1.524 . S
C1898 C1912 1.377 1_565 S
C1899 C1898 1.524 . S
C1899 C1900 1.397 . S
C1899 C1904 1.363 1_565 S
C1900 H1877 0.950 . S
C1900 C1899 1.397 . S
C1900 C1901 1.334 . S
C1901 H1878 0.950 . S
C1901 C1900 1.334 . S
C1901 C1902 1.287 . S
C1902 C1901 1.287 . S
C1902 C1903 1.524 1_565 S
C1902 H1921 0.913 . S
C1903 H1879 0.950 . S
C1903 C1902 1.524 1_545 S
C1903 C1904 1.415 . S
C1904 H1880 0.950 . S
C1904 C1899 1.363 1_545 S
C1904 C1903 1.415 . S
C1905 H1881 0.951 . S
C1905 C1906 1.366 . S
C1905 C1907 1.388 . S
C1906 C1905 1.366 . S
C1906 C1910 1.385 . S
C1907 H1882 0.951 . S
C1907 C1905 1.388 . S
C1907 C1908 1.366 . S
C1908 C1907 1.366 . S
C1908 C1909 1.414 . S
C1908 C1911 1.499 . S
C1909 H1883 0.950 . S
C1909 C1908 1.414 . S
C1909 C1910 1.374 . S
C1910 H1884 0.950 . S
C1910 C1906 1.385 . S
C1910 C1909 1.374 . S
C1911 C1908 1.499 . S
C1911 C1912 1.373 . S
C1911 C1913 1.389 . S
C1912 H1885 0.950 . S
C1912 C1898 1.377 1_545 S
C1912 C1911 1.373 . S
C1913 C1897 1.377 1_545 S
C1913 C1911 1.389 . S
C1913 C1914 1.524 . S
C1914 C1913 1.524 . S
C1914 C1915 1.397 . S
C1914 C1919 1.363 1_545 S
C1915 H1886 0.950 . S
C1915 C1914 1.397 . S
C1915 C1916 1.334 . S
C1916 H1887 0.950 . S
C1916 C1915 1.334 . S
C1916 C1917 1.287 . S
C1917 C1916 1.287 . S
C1917 C1918 1.524 1_545 S
C1917 H1920 0.999 . S
C1918 H1888 0.950 . S
C1918 C1917 1.524 1_565 S
C1918 C1919 1.415 . S
C1919 H1889 0.950 . S
C1919 C1914 1.363 1_565 S
C1919 C1918 1.415 . S
H1920 C1917 0.999 . S
H1921 C1902 0.913 . S
H1922 C1940 0.951 . S
H1923 C1942 0.951 . S
H1924 C1944 0.950 . S
H1925 C1945 0.950 . S
H1926 C1947 0.950 . S
H1927 C1950 0.950 . S
H1928 C1951 0.950 . S
H1929 C1953 0.950 . S
H1930 C1954 0.950 . S
H1931 C1955 0.951 . S
H1932 C1957 0.951 . S
H1933 C1959 0.950 . S
H1934 C1960 0.950 . S
H1935 C1962 0.950 . S
H1936 C1965 0.949 . S
H1937 C1966 0.950 . S
H1938 C1968 0.950 . S
H1939 C1969 0.950 . S
C1940 H1922 0.951 . S
C1940 C1941 1.366 . S
C1940 C1942 1.388 . S
C1941 C1940 1.366 . S
C1941 C1945 1.385 . S
C1942 H1923 0.951 . S
C1942 C1940 1.388 . S
C1942 C1943 1.366 . S
C1943 C1942 1.366 . S
C1943 C1944 1.414 . S
C1943 C1946 1.499 . S
C1944 H1924 0.950 . S
C1944 C1943 1.414 . S
C1944 C1945 1.374 . S
C1945 H1925 0.950 . S
C1945 C1941 1.385 . S
C1945 C1944 1.374 . S
C1946 C1943 1.499 . S
C1946 C1947 1.373 . S
C1946 C1948 1.389 . S
C1947 H1926 0.950 . S
C1947 C1946 1.373 . S
C1947 C1963 1.377 . S
C1948 C1946 1.389 . S
C1948 C1949 1.524 . S
C1948 C1962 1.377 1_455 S
C1949 C1948 1.524 . S
C1949 C1950 1.397 . S
C1949 C1954 1.363 1_455 S
C1950 H1927 0.950 . S
C1950 C1949 1.397 . S
C1950 C1951 1.334 . S
C1951 H1928 0.950 . S
C1951 C1950 1.334 . S
C1951 C1952 1.287 1_455 S
C1952 C1951 1.287 1_655 S
C1952 C1953 1.527 . S
C1952 H1971 0.936 . S
C1953 H1929 0.950 . S
C1953 C1952 1.527 . S
C1953 C1954 1.415 . S
C1954 H1930 0.950 . S
C1954 C1949 1.363 1_655 S
C1954 C1953 1.415 . S
C1955 H1931 0.951 . S
C1955 C1956 1.366 . S
C1955 C1957 1.388 . S
C1956 C1955 1.366 . S
C1956 C1960 1.385 . S
C1957 H1932 0.951 . S
C1957 C1955 1.388 . S
C1957 C1958 1.366 . S
C1958 C1957 1.366 . S
C1958 C1959 1.414 . S
C1958 C1961 1.499 . S
C1959 H1933 0.950 . S
C1959 C1958 1.414 . S
C1959 C1960 1.374 . S
C1960 H1934 0.950 . S
C1960 C1956 1.385 . S
C1960 C1959 1.374 . S
C1961 C1958 1.499 . S
C1961 C1962 1.373 . S
C1961 C1963 1.389 1_655 S
C1962 H1935 0.950 . S
C1962 C1948 1.377 1_655 S
C1962 C1961 1.373 . S
C1963 C1947 1.377 . S
C1963 C1961 1.389 1_455 S
C1963 C1964 1.524 . S
C1964 C1963 1.524 . S
C1964 C1965 1.397 . S
C1964 C1969 1.363 . S
C1965 H1936 0.949 . S
C1965 C1964 1.397 . S
C1965 C1966 1.334 . S
C1966 H1937 0.950 . S
C1966 C1965 1.334 . S
C1966 C1967 1.287 . S
C1967 C1966 1.287 . S
C1967 C1968 1.524 . S
C1967 H1970 0.999 . S
C1968 H1938 0.950 . S
C1968 C1967 1.524 . S
C1968 C1969 1.415 . S
C1969 H1939 0.950 . S
C1969 C1964 1.363 . S
C1969 C1968 1.415 . S
H1970 C1967 0.999 . S
H1971 C1952 0.936 . S
H1972 C1990 0.951 . S
H1973 C1992 0.951 . S
H1974 C1994 0.950 . S
H1975 C1995 0.950 . S
H1976 C1997 0.950 . S
H1977 C2000 0.950 . S
H1978 C2001 0.950 . S
H1979 C2003 0.950 . S
H1980 C2004 0.950 . S
H1981 C2005 0.951 . S
H1982 C2007 0.951 . S
H1983 C2009 0.950 . S
H1984 C2010 0.950 . S
H1985 C2012 0.950 . S
H1986 C2015 0.950 . S
H1987 C2016 0.950 . S
H1988 C2018 0.950 . S
H1989 C2019 0.950 . S
C1990 H1972 0.951 . S
C1990 C1991 1.366 . S
C1990 C1992 1.388 . S
C1991 C1990 1.366 . S
C1991 C1995 1.385 . S
C1992 H1973 0.951 . S
C1992 C1990 1.388 . S
C1992 C1993 1.366 . S
C1993 C1992 1.366 . S
C1993 C1994 1.414 . S
C1993 C1996 1.499 . S
C1994 H1974 0.950 . S
C1994 C1993 1.414 . S
C1994 C1995 1.374 . S
C1995 H1975 0.950 . S
C1995 C1991 1.385 . S
C1995 C1994 1.374 . S
C1996 C1993 1.499 . S
C1996 C1997 1.373 . S
C1996 C1998 1.389 . S
C1997 H1976 0.950 . S
C1997 C1996 1.373 . S
C1997 C2013 1.377 . S
C1998 C1996 1.389 . S
C1998 C1999 1.524 . S
C1998 C2012 1.377 . S
C1999 C1998 1.524 . S
C1999 C2000 1.397 . S
C1999 C2004 1.363 . S
C2000 H1977 0.950 . S
C2000 C1999 1.397 . S
C2000 C2001 1.334 . S
C2001 H1978 0.950 . S
C2001 C2000 1.334 . S
C2001 C2002 1.287 . S
C2002 C2001 1.287 . S
C2002 C2003 1.524 . S
C2002 H2021 0.913 . S
C2003 H1979 0.950 . S
C2003 C2002 1.524 . S
C2003 C2004 1.415 . S
C2004 H1980 0.950 . S
C2004 C1999 1.363 . S
C2004 C2003 1.415 . S
C2005 H1981 0.951 . S
C2005 C2006 1.366 . S
C2005 C2007 1.388 . S
C2006 C2005 1.366 . S
C2006 C2010 1.385 . S
C2007 H1982 0.951 . S
C2007 C2005 1.388 . S
C2007 C2008 1.366 . S
C2008 C2007 1.366 . S
C2008 C2009 1.414 . S
C2008 C2011 1.499 . S
C2009 H1983 0.950 . S
C2009 C2008 1.414 . S
C2009 C2010 1.374 . S
C2010 H1984 0.950 . S
C2010 C2006 1.385 . S
C2010 C2009 1.374 . S
C2011 C2008 1.499 . S
C2011 C2012 1.373 . S
C2011 C2013 1.389 . S
C2012 H1985 0.950 . S
C2012 C1998 1.377 . S
C2012 C2011 1.373 . S
C2013 C1997 1.377 . S
C2013 C2011 1.389 . S
C2013 C2014 1.524 . S
C2014 C2013 1.524 . S
C2014 C2015 1.397 . S
C2014 C2019 1.363 . S
C2015 H1986 0.950 . S
C2015 C2014 1.397 . S
C2015 C2016 1.334 . S
C2016 H1987 0.950 . S
C2016 C2015 1.334 . S
C2016 C2017 1.287 . S
C2017 C2016 1.287 . S
C2017 C2018 1.524 . S
C2017 H2020 0.999 . S
C2018 H1988 0.950 . S
C2018 C2017 1.524 . S
C2018 C2019 1.415 . S
C2019 H1989 0.950 . S
C2019 C2014 1.363 . S
C2019 C2018 1.415 . S
H2020 C2017 0.999 . S
H2021 C2002 0.913 . S
H2022 C2040 0.951 . S
H2023 C2042 0.951 . S
H2024 C2044 0.957 . S
H2025 C2045 0.950 . S
H2026 C2047 0.950 . S
H2027 C2050 0.950 . S
H2028 C2051 0.950 1_455 S
H2029 C2053 0.950 . S
H2030 C2054 0.950 . S
H2031 C2055 0.951 . S
H2032 C2057 0.951 . S
H2033 C2059 0.950 . S
H2034 C2060 0.950 . S
H2035 C2062 0.950 . S
H2036 C2065 0.950 . S
H2037 C2066 0.950 . S
H2038 C2068 0.950 . S
H2039 C2069 0.950 . S
C2040 H2022 0.951 . S
C2040 C2041 1.366 . S
C2040 C2042 1.388 . S
C2041 C2040 1.366 . S
C2041 C2045 1.385 . S
C2042 H2023 0.951 . S
C2042 C2040 1.388 . S
C2042 C2043 1.366 . S
C2043 C2042 1.366 . S
C2043 C2044 1.414 . S
C2043 C2046 1.499 1_455 S
C2044 H2024 0.957 . S
C2044 C2043 1.414 . S
C2044 C2045 1.374 . S
C2045 H2025 0.950 . S
C2045 C2041 1.385 . S
C2045 C2044 1.374 . S
C2046 C2043 1.499 1_655 S
C2046 C2047 1.373 . S
C2046 C2048 1.389 . S
C2047 H2026 0.950 . S
C2047 C2046 1.373 . S
C2047 C2063 1.377 . S
C2048 C2046 1.389 . S
C2048 C2049 1.524 . S
C2048 C2062 1.377 . S
C2049 C2048 1.524 . S
C2049 C2050 1.397 . S
C2049 C2054 1.363 . S
C2050 H2027 0.950 . S
C2050 C2049 1.397 . S
C2050 C2051 1.334 . S
C2051 H2028 0.950 1_655 S
C2051 C2050 1.334 . S
C2051 C2052 1.287 . S
C2052 C2051 1.287 . S
C2052 C2053 1.524 . S
C2052 H2071 0.913 1_655 S
C2053 H2029 0.950 . S
C2053 C2052 1.524 . S
C2053 C2054 1.415 . S
C2054 H2030 0.950 . S
C2054 C2049 1.363 . S
C2054 C2053 1.415 . S
C2055 H2031 0.951 . S
C2055 C2056 1.366 . S
C2055 C2057 1.388 . S
C2056 C2055 1.366 . S
C2056 C2060 1.385 . S
C2057 H2032 0.951 . S
C2057 C2055 1.388 . S
C2057 C2058 1.366 . S
C2058 C2057 1.366 . S
C2058 C2059 1.414 . S
C2058 C2061 1.499 . S
C2059 H2033 0.950 . S
C2059 C2058 1.414 . S
C2059 C2060 1.374 . S
C2060 H2034 0.950 . S
C2060 C2056 1.385 . S
C2060 C2059 1.374 . S
C2061 C2058 1.499 . S
C2061 C2062 1.373 . S
C2061 C2063 1.389 . S
C2062 H2035 0.950 . S
C2062 C2048 1.377 . S
C2062 C2061 1.373 . S
C2063 C2047 1.377 . S
C2063 C2061 1.389 . S
C2063 C2064 1.524 . S
C2064 C2063 1.524 . S
C2064 C2065 1.397 . S
C2064 C2069 1.363 . S
C2065 H2036 0.950 . S
C2065 C2064 1.397 . S
C2065 C2066 1.334 . S
C2066 H2037 0.950 . S
C2066 C2065 1.334 . S
C2066 C2067 1.287 . S
C2067 C2066 1.287 . S
C2067 C2068 1.524 . S
C2067 H2070 0.999 . S
C2068 H2038 0.950 . S
C2068 C2067 1.524 . S
C2068 C2069 1.415 . S
C2069 H2039 0.950 . S
C2069 C2064 1.363 . S
C2069 C2068 1.415 . S
H2070 C2067 0.999 . S
H2071 C2052 0.913 1_455 S
H2072 C2090 0.951 . S
H2073 C2092 0.951 . S
H2074 C2094 0.950 . S
H2075 C2095 0.950 . S
H2076 C2097 0.950 . S
H2077 C2100 0.950 . S
H2078 C2101 0.950 . S
H2079 C2103 0.950 . S
H2080 C2104 0.950 . S
H2081 C2105 0.951 . S
H2082 C2107 0.951 . S
H2083 C2109 0.950 . S
H2084 C2110 0.950 . S
H2085 C2112 0.950 . S
H2086 C2115 0.950 . S
H2087 C2116 0.950 . S
H2088 C2118 0.950 . S
H2089 C2119 0.950 . S
C2090 H2072 0.951 . S
C2090 C2091 1.366 . S
C2090 C2092 1.388 . S
C2091 C2090 1.366 . S
C2091 C2095 1.385 . S
C2092 H2073 0.951 . S
C2092 C2090 1.388 . S
C2092 C2093 1.366 . S
C2093 C2092 1.366 . S
C2093 C2094 1.414 . S
C2093 C2096 1.499 . S
C2094 H2074 0.950 . S
C2094 C2093 1.414 . S
C2094 C2095 1.374 . S
C2095 H2075 0.950 . S
C2095 C2091 1.385 . S
C2095 C2094 1.374 . S
C2096 C2093 1.499 . S
C2096 C2097 1.373 . S
C2096 C2098 1.389 . S
C2097 H2076 0.950 . S
C2097 C2096 1.373 . S
C2097 C2113 1.377 . S
C2098 C2096 1.389 . S
C2098 C2099 1.524 . S
C2098 C2112 1.377 . S
C2099 C2098 1.524 . S
C2099 C2100 1.397 . S
C2099 C2104 1.363 . S
C2100 H2077 0.950 . S
C2100 C2099 1.397 . S
C2100 C2101 1.334 . S
C2101 H2078 0.950 . S
C2101 C2100 1.334 . S
C2101 C2102 1.287 . S
C2102 C2101 1.287 . S
C2102 C2103 1.524 . S
C2102 H2121 0.913 . S
C2103 H2079 0.950 . S
C2103 C2102 1.524 . S
C2103 C2104 1.415 . S
C2104 H2080 0.950 . S
C2104 C2099 1.363 . S
C2104 C2103 1.415 . S
C2105 H2081 0.951 . S
C2105 C2106 1.366 . S
C2105 C2107 1.388 . S
C2106 C2105 1.366 . S
C2106 C2110 1.385 . S
C2107 H2082 0.951 . S
C2107 C2105 1.388 . S
C2107 C2108 1.366 . S
C2108 C2107 1.366 . S
C2108 C2109 1.414 . S
C2108 C2111 1.499 . S
C2109 H2083 0.950 . S
C2109 C2108 1.414 . S
C2109 C2110 1.374 . S
C2110 H2084 0.950 . S
C2110 C2106 1.385 . S
C2110 C2109 1.374 . S
C2111 C2108 1.499 . S
C2111 C2112 1.373 . S
C2111 C2113 1.389 . S
C2112 H2085 0.950 . S
C2112 C2098 1.377 . S
C2112 C2111 1.373 . S
C2113 C2097 1.377 . S
C2113 C2111 1.389 . S
C2113 C2114 1.524 . S
C2114 C2113 1.524 . S
C2114 C2115 1.397 . S
C2114 C2119 1.363 . S
C2115 H2086 0.950 . S
C2115 C2114 1.397 . S
C2115 C2116 1.334 . S
C2116 H2087 0.950 . S
C2116 C2115 1.334 . S
C2116 C2117 1.287 . S
C2117 C2116 1.287 . S
C2117 C2118 1.524 . S
C2117 H2120 0.999 . S
C2118 H2088 0.950 . S
C2118 C2117 1.524 . S
C2118 C2119 1.415 . S
C2119 H2089 0.950 . S
C2119 C2114 1.363 . S
C2119 C2118 1.415 . S
H2120 C2117 0.999 . S
H2121 C2102 0.913 . S
H2122 C2140 0.951 . S
H2123 C2142 0.951 . S
H2124 C2144 0.950 1_545 S
H2125 C2145 0.950 . S
H2126 C2147 0.950 . S
H2127 C2150 0.950 . S
H2128 C2151 0.950 . S
H2129 C2153 0.950 . S
H2130 C2154 0.950 . S
H2131 C2155 0.951 . S
H2132 C2157 0.951 . S
H2133 C2159 0.950 . S
H2134 C2160 0.950 . S
H2135 C2162 0.950 . S
H2136 C2165 0.950 . S
H2137 C2166 0.950 . S
H2138 C2168 0.950 . S
H2139 C2169 0.950 . S
C2140 H2122 0.951 . S
C2140 C2141 1.366 . S
C2140 C2142 1.388 1_565 S
C2141 C2140 1.366 . S
C2141 C2145 1.385 . S
C2142 H2123 0.951 . S
C2142 C2140 1.388 1_545 S
C2142 C2143 1.366 . S
C2143 C2142 1.366 . S
C2143 C2144 1.414 1_545 S
C2143 C2146 1.499 . S
C2144 H2124 0.950 1_565 S
C2144 C2143 1.414 1_565 S
C2144 C2145 1.374 . S
C2145 H2125 0.950 . S
C2145 C2141 1.385 . S
C2145 C2144 1.374 . S
C2146 C2143 1.499 . S
C2146 C2147 1.373 . S
C2146 C2148 1.389 . S
C2147 H2126 0.950 . S
C2147 C2146 1.373 . S
C2147 C2163 1.377 . S
C2148 C2146 1.389 . S
C2148 C2149 1.524 . S
C2148 C2162 1.377 . S
C2149 C2148 1.524 . S
C2149 C2150 1.397 . S
C2149 C2154 1.363 . S
C2150 H2127 0.950 . S
C2150 C2149 1.397 . S
C2150 C2151 1.334 . S
C2151 H2128 0.950 . S
C2151 C2150 1.334 . S
C2151 C2152 1.287 . S
C2152 C2151 1.287 . S
C2152 C2153 1.524 . S
C2152 H2171 0.913 . S
C2153 H2129 0.950 . S
C2153 C2152 1.524 . S
C2153 C2154 1.415 . S
C2154 H2130 0.950 . S
C2154 C2149 1.363 . S
C2154 C2153 1.415 . S
C2155 H2131 0.951 . S
C2155 C2156 1.366 . S
C2155 C2157 1.388 . S
C2156 C2155 1.366 . S
C2156 C2160 1.385 . S
C2157 H2132 0.951 . S
C2157 C2155 1.388 . S
C2157 C2158 1.366 . S
C2158 C2157 1.366 . S
C2158 C2159 1.414 . S
C2158 C2161 1.499 . S
C2159 H2133 0.950 . S
C2159 C2158 1.414 . S
C2159 C2160 1.374 . S
C2160 H2134 0.950 . S
C2160 C2156 1.385 . S
C2160 C2159 1.374 . S
C2161 C2158 1.499 . S
C2161 C2162 1.373 . S
C2161 C2163 1.389 . S
C2162 H2135 0.950 . S
C2162 C2148 1.377 . S
C2162 C2161 1.373 . S
C2163 C2147 1.377 . S
C2163 C2161 1.389 . S
C2163 C2164 1.524 . S
C2164 C2163 1.524 . S
C2164 C2165 1.397 . S
C2164 C2169 1.363 . S
C2165 H2136 0.950 . S
C2165 C2164 1.397 . S
C2165 C2166 1.334 . S
C2166 H2137 0.950 . S
C2166 C2165 1.334 . S
C2166 C2167 1.287 . S
C2167 C2166 1.287 . S
C2167 C2168 1.524 . S
C2167 H2170 0.999 . S
C2168 H2138 0.950 . S
C2168 C2167 1.524 . S
C2168 C2169 1.415 . S
C2169 H2139 0.950 . S
C2169 C2164 1.363 . S
C2169 C2168 1.415 . S
H2170 C2167 0.999 . S
H2171 C2152 0.913 . S
H2172 C2190 0.951 . S
H2173 C2192 0.951 . S
H2174 C2194 0.950 . S
H2175 C2195 0.950 . S
H2176 C2197 0.950 . S
H2177 C2200 0.950 . S
H2178 C2201 0.950 . S
H2179 C2203 0.950 . S
H2180 C2204 0.950 . S
H2181 C2205 0.951 . S
H2182 C2207 0.951 . S
H2183 C2209 0.950 . S
H2184 C2210 0.950 . S
H2185 C2212 0.950 . S
H2186 C2215 0.950 . S
H2187 C2216 0.950 . S
H2188 C2218 0.950 . S
H2189 C2219 0.950 . S
C2190 H2172 0.951 . S
C2190 C2191 1.366 . S
C2190 C2192 1.388 . S
C2191 C2190 1.366 . S
C2191 C2195 1.385 . S
C2192 H2173 0.951 . S
C2192 C2190 1.388 . S
C2192 C2193 1.366 . S
C2193 C2192 1.366 . S
C2193 C2194 1.414 . S
C2193 C2196 1.499 . S
C2194 H2174 0.950 . S
C2194 C2193 1.414 . S
C2194 C2195 1.374 . S
C2195 H2175 0.950 . S
C2195 C2191 1.385 . S
C2195 C2194 1.374 . S
C2196 C2193 1.499 . S
C2196 C2197 1.373 . S
C2196 C2198 1.389 . S
C2197 H2176 0.950 . S
C2197 C2196 1.373 . S
C2197 C2213 1.377 . S
C2198 C2196 1.389 . S
C2198 C2199 1.524 . S
C2198 C2212 1.377 . S
C2199 C2198 1.524 . S
C2199 C2200 1.397 . S
C2199 C2204 1.363 . S
C2200 H2177 0.950 . S
C2200 C2199 1.397 . S
C2200 C2201 1.334 . S
C2201 H2178 0.950 . S
C2201 C2200 1.334 . S
C2201 C2202 1.287 . S
C2202 C2201 1.287 . S
C2202 C2203 1.524 . S
C2202 H2221 0.913 . S
C2203 H2179 0.950 . S
C2203 C2202 1.524 . S
C2203 C2204 1.415 . S
C2204 H2180 0.950 . S
C2204 C2199 1.363 . S
C2204 C2203 1.415 . S
C2205 H2181 0.951 . S
C2205 C2206 1.366 . S
C2205 C2207 1.388 . S
C2206 C2205 1.366 . S
C2206 C2210 1.385 . S
C2207 H2182 0.951 . S
C2207 C2205 1.388 . S
C2207 C2208 1.366 . S
C2208 C2207 1.366 . S
C2208 C2209 1.414 . S
C2208 C2211 1.499 . S
C2209 H2183 0.950 . S
C2209 C2208 1.414 . S
C2209 C2210 1.374 . S
C2210 H2184 0.950 . S
C2210 C2206 1.385 . S
C2210 C2209 1.374 . S
C2211 C2208 1.499 . S
C2211 C2212 1.373 . S
C2211 C2213 1.389 . S
C2212 H2185 0.950 . S
C2212 C2198 1.377 . S
C2212 C2211 1.373 . S
C2213 C2197 1.377 . S
C2213 C2211 1.389 . S
C2213 C2214 1.524 . S
C2214 C2213 1.524 . S
C2214 C2215 1.397 . S
C2214 C2219 1.363 . S
C2215 H2186 0.950 . S
C2215 C2214 1.397 . S
C2215 C2216 1.334 . S
C2216 H2187 0.950 . S
C2216 C2215 1.334 . S
C2216 C2217 1.287 . S
C2217 C2216 1.287 . S
C2217 C2218 1.524 . S
C2217 H2220 0.999 . S
C2218 H2188 0.950 . S
C2218 C2217 1.524 . S
C2218 C2219 1.415 . S
C2219 H2189 0.950 . S
C2219 C2214 1.363 . S
C2219 C2218 1.415 . S
H2220 C2217 0.999 . S
H2221 C2202 0.913 . S
H2222 C2240 0.951 . S
H2223 C2242 0.951 . S
H2224 C2244 0.950 . S
H2225 C2245 0.950 . S
H2226 C2247 0.950 . S
H2227 C2250 0.950 . S
H2228 C2251 0.950 . S
H2229 C2253 0.950 . S
H2230 C2254 0.950 . S
H2231 C2255 0.951 . S
H2232 C2257 0.951 . S
H2233 C2259 0.950 . S
H2234 C2260 0.950 . S
H2235 C2262 0.950 . S
H2236 C2265 0.950 . S
H2237 C2266 0.950 . S
H2238 C2268 0.950 . S
H2239 C2269 0.950 . S
C2240 H2222 0.951 . S
C2240 C2241 1.366 . S
C2240 C2242 1.388 . S
C2241 C2240 1.366 . S
C2241 C2245 1.385 . S
C2242 H2223 0.951 . S
C2242 C2240 1.388 . S
C2242 C2243 1.366 . S
C2243 C2242 1.366 . S
C2243 C2244 1.414 . S
C2243 C2246 1.499 . S
C2244 H2224 0.950 . S
C2244 C2243 1.414 . S
C2244 C2245 1.374 . S
C2245 H2225 0.950 . S
C2245 C2241 1.385 . S
C2245 C2244 1.374 . S
C2246 C2243 1.499 . S
C2246 C2247 1.373 . S
C2246 C2248 1.389 . S
C2247 H2226 0.950 . S
C2247 C2246 1.373 . S
C2247 C2263 1.377 . S
C2248 C2246 1.389 . S
C2248 C2249 1.524 . S
C2248 C2262 1.377 . S
C2249 C2248 1.524 . S
C2249 C2250 1.397 . S
C2249 C2254 1.363 . S
C2250 H2227 0.950 . S
C2250 C2249 1.397 . S
C2250 C2251 1.334 . S
C2251 H2228 0.950 . S
C2251 C2250 1.334 . S
C2251 C2252 1.287 . S
C2252 C2251 1.287 . S
C2252 C2253 1.524 . S
C2252 H2271 0.913 . S
C2253 H2229 0.950 . S
C2253 C2252 1.524 . S
C2253 C2254 1.415 . S
C2254 H2230 0.950 . S
C2254 C2249 1.363 . S
C2254 C2253 1.415 . S
C2255 H2231 0.951 . S
C2255 C2256 1.366 . S
C2255 C2257 1.388 . S
C2256 C2255 1.366 . S
C2256 C2260 1.385 . S
C2257 H2232 0.951 . S
C2257 C2255 1.388 . S
C2257 C2258 1.366 . S
C2258 C2257 1.366 . S
C2258 C2259 1.414 . S
C2258 C2261 1.499 . S
C2259 H2233 0.950 . S
C2259 C2258 1.414 . S
C2259 C2260 1.374 . S
C2260 H2234 0.950 . S
C2260 C2256 1.385 . S
C2260 C2259 1.374 . S
C2261 C2258 1.499 . S
C2261 C2262 1.373 . S
C2261 C2263 1.389 . S
C2262 H2235 0.950 . S
C2262 C2248 1.377 . S
C2262 C2261 1.373 . S
C2263 C2247 1.377 . S
C2263 C2261 1.389 . S
C2263 C2264 1.524 . S
C2264 C2263 1.524 . S
C2264 C2265 1.397 . S
C2264 C2269 1.363 . S
C2265 H2236 0.950 . S
C2265 C2264 1.397 . S
C2265 C2266 1.334 . S
C2266 H2237 0.950 . S
C2266 C2265 1.334 . S
C2266 C2267 1.287 . S
C2267 C2266 1.287 . S
C2267 C2268 1.524 . S
C2267 H2270 0.999 . S
C2268 H2238 0.950 . S
C2268 C2267 1.524 . S
C2268 C2269 1.415 . S
C2269 H2239 0.950 . S
C2269 C2264 1.363 . S
C2269 C2268 1.415 . S
H2270 C2267 0.999 . S
H2271 C2252 0.913 . S
H2272 C2290 0.951 . S
H2273 C2292 0.951 . S
H2274 C2294 0.950 . S
H2275 C2295 0.950 . S
H2276 C2297 0.950 . S
H2277 C2300 0.950 . S
H2278 C2301 0.950 . S
H2279 C2303 0.950 . S
H2280 C2304 0.950 . S
H2281 C2305 0.951 . S
H2282 C2307 0.951 . S
H2283 C2309 0.950 . S
H2284 C2310 0.950 . S
H2285 C2312 0.950 . S
H2286 C2315 0.950 . S
H2287 C2316 0.950 . S
H2288 C2318 0.950 . S
H2289 C2319 0.950 . S
C2290 H2272 0.951 . S
C2290 C2291 1.366 . S
C2290 C2292 1.388 . S
C2291 C2290 1.366 . S
C2291 C2295 1.385 . S
C2292 H2273 0.951 . S
C2292 C2290 1.388 . S
C2292 C2293 1.366 . S
C2293 C2292 1.366 . S
C2293 C2294 1.414 . S
C2293 C2296 1.499 . S
C2294 H2274 0.950 . S
C2294 C2293 1.414 . S
C2294 C2295 1.374 . S
C2295 H2275 0.950 . S
C2295 C2291 1.385 . S
C2295 C2294 1.374 . S
C2296 C2293 1.499 . S
C2296 C2297 1.373 . S
C2296 C2298 1.389 . S
C2297 H2276 0.950 . S
C2297 C2296 1.373 . S
C2297 C2313 1.377 . S
C2298 C2296 1.389 . S
C2298 C2299 1.524 . S
C2298 C2312 1.377 . S
C2299 C2298 1.524 . S
C2299 C2300 1.397 . S
C2299 C2304 1.363 . S
C2300 H2277 0.950 . S
C2300 C2299 1.397 . S
C2300 C2301 1.334 . S
C2301 H2278 0.950 . S
C2301 C2300 1.334 . S
C2301 C2302 1.287 . S
C2302 C2301 1.287 . S
C2302 C2303 1.524 . S
C2302 H2321 0.913 . S
C2303 H2279 0.950 . S
C2303 C2302 1.524 . S
C2303 C2304 1.415 . S
C2304 H2280 0.950 . S
C2304 C2299 1.363 . S
C2304 C2303 1.415 . S
C2305 H2281 0.951 . S
C2305 C2306 1.366 . S
C2305 C2307 1.388 . S
C2306 C2305 1.366 . S
C2306 C2310 1.385 . S
C2307 H2282 0.951 . S
C2307 C2305 1.388 . S
C2307 C2308 1.366 . S
C2308 C2307 1.366 . S
C2308 C2309 1.414 . S
C2308 C2311 1.499 . S
C2309 H2283 0.950 . S
C2309 C2308 1.414 . S
C2309 C2310 1.374 . S
C2310 H2284 0.950 . S
C2310 C2306 1.385 . S
C2310 C2309 1.374 . S
C2311 C2308 1.499 . S
C2311 C2312 1.373 . S
C2311 C2313 1.389 . S
C2312 H2285 0.950 . S
C2312 C2298 1.377 . S
C2312 C2311 1.373 . S
C2313 C2297 1.377 . S
C2313 C2311 1.389 . S
C2313 C2314 1.524 . S
C2314 C2313 1.524 . S
C2314 C2315 1.397 . S
C2314 C2319 1.363 . S
C2315 H2286 0.950 . S
C2315 C2314 1.397 . S
C2315 C2316 1.334 . S
C2316 H2287 0.950 . S
C2316 C2315 1.334 . S
C2316 C2317 1.287 . S
C2317 C2316 1.287 . S
C2317 C2318 1.524 . S
C2317 H2320 0.999 . S
C2318 H2288 0.950 . S
C2318 C2317 1.524 . S
C2318 C2319 1.415 . S
C2319 H2289 0.950 . S
C2319 C2314 1.363 . S
C2319 C2318 1.415 . S
H2320 C2317 0.999 . S
H2321 C2302 0.913 . S
H2322 C2340 0.951 . S
H2323 C2342 0.951 . S
H2324 C2344 0.950 . S
H2325 C2345 0.950 . S
H2326 C2347 0.950 . S
H2327 C2350 0.950 . S
H2328 C2351 0.950 . S
H2329 C2353 0.950 . S
H2330 C2354 0.950 . S
H2331 C2355 0.951 . S
H2332 C2357 0.951 . S
H2333 C2359 0.950 . S
H2334 C2360 0.950 . S
H2335 C2362 0.950 . S
H2336 C2365 0.950 . S
H2337 C2366 0.950 . S
H2338 C2368 0.950 . S
H2339 C2369 0.950 . S
C2340 H2322 0.951 . S
C2340 C2341 1.366 . S
C2340 C2342 1.388 . S
C2341 C2340 1.366 . S
C2341 C2345 1.385 . S
C2342 H2323 0.951 . S
C2342 C2340 1.388 . S
C2342 C2343 1.366 . S
C2343 C2342 1.366 . S
C2343 C2344 1.414 . S
C2343 C2346 1.499 . S
C2344 H2324 0.950 . S
C2344 C2343 1.414 . S
C2344 C2345 1.374 . S
C2345 H2325 0.950 . S
C2345 C2341 1.385 . S
C2345 C2344 1.374 . S
C2346 C2343 1.499 . S
C2346 C2347 1.373 . S
C2346 C2348 1.389 . S
C2347 H2326 0.950 . S
C2347 C2346 1.373 . S
C2347 C2363 1.377 . S
C2348 C2346 1.389 . S
C2348 C2349 1.524 . S
C2348 C2362 1.377 . S
C2349 C2348 1.524 . S
C2349 C2350 1.397 . S
C2349 C2354 1.363 . S
C2350 H2327 0.950 . S
C2350 C2349 1.397 . S
C2350 C2351 1.334 . S
C2351 H2328 0.950 . S
C2351 C2350 1.334 . S
C2351 C2352 1.287 . S
C2352 C2351 1.287 . S
C2352 C2353 1.524 . S
C2352 H2371 0.913 . S
C2353 H2329 0.950 . S
C2353 C2352 1.524 . S
C2353 C2354 1.415 . S
C2354 H2330 0.950 . S
C2354 C2349 1.363 . S
C2354 C2353 1.415 . S
C2355 H2331 0.951 . S
C2355 C2356 1.366 . S
C2355 C2357 1.388 . S
C2356 C2355 1.366 . S
C2356 C2360 1.385 . S
C2357 H2332 0.951 . S
C2357 C2355 1.388 . S
C2357 C2358 1.366 . S
C2358 C2357 1.366 . S
C2358 C2359 1.414 . S
C2358 C2361 1.499 . S
C2359 H2333 0.950 . S
C2359 C2358 1.414 . S
C2359 C2360 1.374 . S
C2360 H2334 0.950 . S
C2360 C2356 1.385 . S
C2360 C2359 1.374 . S
C2361 C2358 1.499 . S
C2361 C2362 1.373 . S
C2361 C2363 1.389 . S
C2362 H2335 0.950 . S
C2362 C2348 1.377 . S
C2362 C2361 1.373 . S
C2363 C2347 1.377 . S
C2363 C2361 1.389 . S
C2363 C2364 1.524 . S
C2364 C2363 1.524 . S
C2364 C2365 1.397 . S
C2364 C2369 1.363 . S
C2365 H2336 0.950 . S
C2365 C2364 1.397 . S
C2365 C2366 1.334 . S
C2366 H2337 0.950 . S
C2366 C2365 1.334 . S
C2366 C2367 1.287 . S
C2367 C2366 1.287 . S
C2367 C2368 1.524 . S
C2367 H2370 0.999 . S
C2368 H2338 0.950 . S
C2368 C2367 1.524 . S
C2368 C2369 1.415 . S
C2369 H2339 0.950 . S
C2369 C2364 1.363 . S
C2369 C2368 1.415 . S
H2370 C2367 0.999 . S
H2371 C2352 0.913 . S
H2372 C2390 0.951 . S
H2373 C2392 0.951 . S
H2374 C2394 0.950 . S
H2375 C2395 0.950 . S
H2376 C2397 0.950 . S
H2377 C2400 0.950 . S
H2378 C2401 0.950 . S
H2379 C2403 0.950 . S
H2380 C2404 0.950 . S
H2381 C2405 0.951 . S
H2382 C2407 0.951 . S
H2383 C2409 0.950 . S
H2384 C2410 0.950 . S
H2385 C2412 0.950 . S
H2386 C2415 0.950 . S
H2387 C2416 0.950 . S
H2388 C2418 0.950 . S
H2389 C2419 0.950 . S
C2390 H2372 0.951 . S
C2390 C2391 1.366 . S
C2390 C2392 1.388 . S
C2391 C2390 1.366 . S
C2391 C2395 1.385 . S
C2392 H2373 0.951 . S
C2392 C2390 1.388 . S
C2392 C2393 1.366 . S
C2393 C2392 1.366 . S
C2393 C2394 1.414 . S
C2393 C2396 1.499 . S
C2394 H2374 0.950 . S
C2394 C2393 1.414 . S
C2394 C2395 1.374 . S
C2395 H2375 0.950 . S
C2395 C2391 1.385 . S
C2395 C2394 1.374 . S
C2396 C2393 1.499 . S
C2396 C2397 1.373 . S
C2396 C2398 1.389 . S
C2397 H2376 0.950 . S
C2397 C2396 1.373 . S
C2397 C2413 1.377 . S
C2398 C2396 1.389 . S
C2398 C2399 1.524 . S
C2398 C2412 1.377 . S
C2399 C2398 1.524 . S
C2399 C2400 1.397 . S
C2399 C2404 1.363 . S
C2400 H2377 0.950 . S
C2400 C2399 1.397 . S
C2400 C2401 1.334 . S
C2401 H2378 0.950 . S
C2401 C2400 1.334 . S
C2401 C2402 1.287 . S
C2402 C2401 1.287 . S
C2402 C2403 1.524 . S
C2402 H2421 0.913 . S
C2403 H2379 0.950 . S
C2403 C2402 1.524 . S
C2403 C2404 1.415 . S
C2404 H2380 0.950 . S
C2404 C2399 1.363 . S
C2404 C2403 1.415 . S
C2405 H2381 0.951 . S
C2405 C2406 1.366 . S
C2405 C2407 1.388 . S
C2406 C2405 1.366 . S
C2406 C2410 1.385 . S
C2407 H2382 0.951 . S
C2407 C2405 1.388 . S
C2407 C2408 1.366 . S
C2408 C2407 1.366 . S
C2408 C2409 1.414 . S
C2408 C2411 1.499 . S
C2409 H2383 0.950 . S
C2409 C2408 1.414 . S
C2409 C2410 1.374 . S
C2410 H2384 0.950 . S
C2410 C2406 1.385 . S
C2410 C2409 1.374 . S
C2411 C2408 1.499 . S
C2411 C2412 1.373 . S
C2411 C2413 1.389 . S
C2412 H2385 0.950 . S
C2412 C2398 1.377 . S
C2412 C2411 1.373 . S
C2413 C2397 1.377 . S
C2413 C2411 1.389 . S
C2413 C2414 1.524 . S
C2414 C2413 1.524 . S
C2414 C2415 1.397 . S
C2414 C2419 1.363 . S
C2415 H2386 0.950 . S
C2415 C2414 1.397 . S
C2415 C2416 1.334 . S
C2416 H2387 0.950 . S
C2416 C2415 1.334 . S
C2416 C2417 1.287 . S
C2417 C2416 1.287 . S
C2417 C2418 1.524 . S
C2417 H2420 0.999 . S
C2418 H2388 0.950 . S
C2418 C2417 1.524 . S
C2418 C2419 1.415 . S
C2419 H2389 0.950 . S
C2419 C2414 1.363 . S
C2419 C2418 1.415 . S
H2420 C2417 0.999 . S
H2421 C2402 0.913 . S
H2422 C2440 0.951 . S
H2423 C2442 0.951 . S
H2424 C2444 0.950 . S
H2425 C2445 0.950 . S
H2426 C2447 0.950 . S
H2427 C2450 0.950 . S
H2428 C2451 0.950 . S
H2429 C2453 0.950 . S
H2430 C2454 0.950 . S
H2431 C2455 0.951 . S
H2432 C2457 0.951 . S
H2433 C2459 0.950 . S
H2434 C2460 0.950 . S
H2435 C2462 0.950 . S
H2436 C2465 0.950 . S
H2437 C2466 0.950 . S
H2438 C2468 0.950 . S
H2439 C2469 0.950 . S
C2440 H2422 0.951 . S
C2440 C2441 1.366 . S
C2440 C2442 1.388 . S
C2441 C2440 1.366 . S
C2441 C2445 1.385 . S
C2442 H2423 0.951 . S
C2442 C2440 1.388 . S
C2442 C2443 1.366 . S
C2443 C2442 1.366 . S
C2443 C2444 1.414 . S
C2443 C2446 1.499 . S
C2444 H2424 0.950 . S
C2444 C2443 1.414 . S
C2444 C2445 1.374 . S
C2445 H2425 0.950 . S
C2445 C2441 1.385 . S
C2445 C2444 1.374 . S
C2446 C2443 1.499 . S
C2446 C2447 1.373 . S
C2446 C2448 1.389 . S
C2447 H2426 0.950 . S
C2447 C2446 1.373 . S
C2447 C2463 1.377 . S
C2448 C2446 1.389 . S
C2448 C2449 1.524 . S
C2448 C2462 1.377 . S
C2449 C2448 1.524 . S
C2449 C2450 1.397 . S
C2449 C2454 1.363 . S
C2450 H2427 0.950 . S
C2450 C2449 1.397 . S
C2450 C2451 1.334 . S
C2451 H2428 0.950 . S
C2451 C2450 1.334 . S
C2451 C2452 1.287 . S
C2452 C2451 1.287 . S
C2452 C2453 1.524 . S
C2452 H2471 0.913 . S
C2453 H2429 0.950 . S
C2453 C2452 1.524 . S
C2453 C2454 1.415 . S
C2454 H2430 0.950 . S
C2454 C2449 1.363 . S
C2454 C2453 1.415 . S
C2455 H2431 0.951 . S
C2455 C2456 1.366 . S
C2455 C2457 1.388 . S
C2456 C2455 1.366 . S
C2456 C2460 1.385 . S
C2457 H2432 0.951 . S
C2457 C2455 1.388 . S
C2457 C2458 1.366 . S
C2458 C2457 1.366 . S
C2458 C2459 1.414 . S
C2458 C2461 1.499 . S
C2459 H2433 0.950 . S
C2459 C2458 1.414 . S
C2459 C2460 1.374 . S
C2460 H2434 0.950 . S
C2460 C2456 1.385 . S
C2460 C2459 1.374 . S
C2461 C2458 1.499 . S
C2461 C2462 1.373 . S
C2461 C2463 1.389 . S
C2462 H2435 0.950 . S
C2462 C2448 1.377 . S
C2462 C2461 1.373 . S
C2463 C2447 1.377 . S
C2463 C2461 1.389 . S
C2463 C2464 1.524 . S
C2464 C2463 1.524 . S
C2464 C2465 1.397 . S
C2464 C2469 1.363 . S
C2465 H2436 0.950 . S
C2465 C2464 1.397 . S
C2465 C2466 1.334 . S
C2466 H2437 0.950 . S
C2466 C2465 1.334 . S
C2466 C2467 1.287 . S
C2467 C2466 1.287 . S
C2467 C2468 1.524 . S
C2467 H2470 0.999 . S
C2468 H2438 0.950 . S
C2468 C2467 1.524 . S
C2468 C2469 1.415 . S
C2469 H2439 0.950 . S
C2469 C2464 1.363 . S
C2469 C2468 1.415 . S
H2470 C2467 0.999 . S
H2471 C2452 0.913 . S
H2472 C2490 0.951 . S
H2473 C2492 0.951 . S
H2474 C2494 0.950 . S
H2475 C2495 0.950 . S
H2476 C2497 0.950 . S
H2477 C2500 0.950 . S
H2478 C2501 0.950 . S
H2479 C2503 0.950 . S
H2480 C2504 0.950 . S
H2481 C2505 0.951 . S
H2482 C2507 0.951 . S
H2483 C2509 0.950 . S
H2484 C2510 0.950 . S
H2485 C2512 0.950 . S
H2486 C2515 0.950 . S
H2487 C2516 0.950 . S
H2488 C2518 0.950 . S
H2489 C2519 0.950 . S
C2490 H2472 0.951 . S
C2490 C2491 1.366 . S
C2490 C2492 1.388 . S
C2491 C2490 1.366 . S
C2491 C2495 1.385 . S
C2492 H2473 0.951 . S
C2492 C2490 1.388 . S
C2492 C2493 1.366 . S
C2493 C2492 1.366 . S
C2493 C2494 1.414 . S
C2493 C2496 1.499 . S
C2494 H2474 0.950 . S
C2494 C2493 1.414 . S
C2494 C2495 1.374 . S
C2495 H2475 0.950 . S
C2495 C2491 1.385 . S
C2495 C2494 1.374 . S
C2496 C2493 1.499 . S
C2496 C2497 1.373 . S
C2496 C2498 1.389 . S
C2497 H2476 0.950 . S
C2497 C2496 1.373 . S
C2497 C2513 1.377 . S
C2498 C2496 1.389 . S
C2498 C2499 1.524 . S
C2498 C2512 1.377 . S
C2499 C2498 1.524 . S
C2499 C2500 1.397 . S
C2499 C2504 1.363 . S
C2500 H2477 0.950 . S
C2500 C2499 1.397 . S
C2500 C2501 1.334 . S
C2501 H2478 0.950 . S
C2501 C2500 1.334 . S
C2501 C2502 1.287 . S
C2502 C2501 1.287 . S
C2502 C2503 1.524 . S
C2502 H2521 0.913 . S
C2503 H2479 0.950 . S
C2503 C2502 1.524 . S
C2503 C2504 1.415 . S
C2504 H2480 0.950 . S
C2504 C2499 1.363 . S
C2504 C2503 1.415 . S
C2505 H2481 0.951 . S
C2505 C2506 1.366 . S
C2505 C2507 1.388 . S
C2506 C2505 1.366 . S
C2506 C2510 1.385 . S
C2507 H2482 0.951 . S
C2507 C2505 1.388 . S
C2507 C2508 1.366 . S
C2508 C2507 1.366 . S
C2508 C2509 1.414 . S
C2508 C2511 1.499 . S
C2509 H2483 0.950 . S
C2509 C2508 1.414 . S
C2509 C2510 1.374 . S
C2510 H2484 0.950 . S
C2510 C2506 1.385 . S
C2510 C2509 1.374 . S
C2511 C2508 1.499 . S
C2511 C2512 1.373 . S
C2511 C2513 1.389 . S
C2512 H2485 0.950 . S
C2512 C2498 1.377 . S
C2512 C2511 1.373 . S
C2513 C2497 1.377 . S
C2513 C2511 1.389 . S
C2513 C2514 1.524 . S
C2514 C2513 1.524 . S
C2514 C2515 1.397 . S
C2514 C2519 1.363 . S
C2515 H2486 0.950 . S
C2515 C2514 1.397 . S
C2515 C2516 1.334 . S
C2516 H2487 0.950 . S
C2516 C2515 1.334 . S
C2516 C2517 1.287 . S
C2517 C2516 1.287 . S
C2517 C2518 1.524 . S
C2517 H2520 0.999 . S
C2518 H2488 0.950 . S
C2518 C2517 1.524 . S
C2518 C2519 1.415 . S
C2519 H2489 0.950 . S
C2519 C2514 1.363 . S
C2519 C2518 1.415 . S
H2520 C2517 0.999 . S
H2521 C2502 0.913 . S
H2522 C2540 0.951 . S
H2523 C2542 0.951 . S
H2524 C2544 0.950 . S
H2525 C2545 0.950 . S
H2526 C2547 0.950 . S
H2527 C2550 0.950 . S
H2528 C2551 0.950 . S
H2529 C2553 0.950 . S
H2530 C2554 0.950 . S
H2531 C2555 0.951 . S
H2532 C2557 0.951 . S
H2533 C2559 0.950 . S
H2534 C2560 0.950 . S
H2535 C2562 0.950 . S
H2536 C2565 0.950 . S
H2537 C2566 0.950 . S
H2538 C2568 0.950 . S
H2539 C2569 0.950 . S
C2540 H2522 0.951 . S
C2540 C2541 1.366 . S
C2540 C2542 1.388 . S
C2541 C2540 1.366 . S
C2541 C2545 1.385 . S
C2542 H2523 0.951 . S
C2542 C2540 1.388 . S
C2542 C2543 1.366 . S
C2543 C2542 1.366 . S
C2543 C2544 1.414 . S
C2543 C2546 1.499 . S
C2544 H2524 0.950 . S
C2544 C2543 1.414 . S
C2544 C2545 1.374 . S
C2545 H2525 0.950 . S
C2545 C2541 1.385 . S
C2545 C2544 1.374 . S
C2546 C2543 1.499 . S
C2546 C2547 1.373 . S
C2546 C2548 1.389 . S
C2547 H2526 0.950 . S
C2547 C2546 1.373 . S
C2547 C2563 1.377 . S
C2548 C2546 1.389 . S
C2548 C2549 1.524 . S
C2548 C2562 1.377 . S
C2549 C2548 1.524 . S
C2549 C2550 1.397 . S
C2549 C2554 1.363 . S
C2550 H2527 0.950 . S
C2550 C2549 1.397 . S
C2550 C2551 1.334 . S
C2551 H2528 0.950 . S
C2551 C2550 1.334 . S
C2551 C2552 1.287 . S
C2552 C2551 1.287 . S
C2552 C2553 1.524 . S
C2552 H2571 0.913 . S
C2553 H2529 0.950 . S
C2553 C2552 1.524 . S
C2553 C2554 1.415 . S
C2554 H2530 0.950 . S
C2554 C2549 1.363 . S
C2554 C2553 1.415 . S
C2555 H2531 0.951 . S
C2555 C2556 1.366 . S
C2555 C2557 1.388 . S
C2556 C2555 1.366 . S
C2556 C2560 1.385 . S
C2557 H2532 0.951 . S
C2557 C2555 1.388 . S
C2557 C2558 1.366 . S
C2558 C2557 1.366 . S
C2558 C2559 1.414 . S
C2558 C2561 1.499 . S
C2559 H2533 0.950 . S
C2559 C2558 1.414 . S
C2559 C2560 1.374 . S
C2560 H2534 0.950 . S
C2560 C2556 1.385 . S
C2560 C2559 1.374 . S
C2561 C2558 1.499 . S
C2561 C2562 1.373 . S
C2561 C2563 1.389 . S
C2562 H2535 0.950 . S
C2562 C2548 1.377 . S
C2562 C2561 1.373 . S
C2563 C2547 1.377 . S
C2563 C2561 1.389 . S
C2563 C2564 1.524 . S
C2564 C2563 1.524 . S
C2564 C2565 1.397 . S
C2564 C2569 1.363 . S
C2565 H2536 0.950 . S
C2565 C2564 1.397 . S
C2565 C2566 1.334 . S
C2566 H2537 0.950 . S
C2566 C2565 1.334 . S
C2566 C2567 1.287 . S
C2567 C2566 1.287 . S
C2567 C2568 1.524 . S
C2567 H2570 0.999 . S
C2568 H2538 0.950 . S
C2568 C2567 1.524 . S
C2568 C2569 1.415 . S
C2569 H2539 0.950 . S
C2569 C2564 1.363 . S
C2569 C2568 1.415 . S
H2570 C2567 0.999 . S
H2571 C2552 0.913 . S
H2572 C2590 0.951 . S
H2573 C2592 0.951 . S
H2574 C2594 0.950 . S
H2575 C2595 0.950 . S
H2576 C2597 0.950 . S
H2577 C2600 0.950 . S
H2578 C2601 0.950 . S
H2579 C2603 0.950 . S
H2580 C2604 0.950 . S
H2581 C2605 0.951 . S
H2582 C2607 0.951 . S
H2583 C2609 0.950 . S
H2584 C2610 0.950 1_565 S
H2585 C2612 0.950 . S
H2586 C2615 0.950 . S
H2587 C2616 0.950 . S
H2588 C2618 0.950 . S
H2589 C2619 0.950 . S
C2590 H2572 0.951 . S
C2590 C2591 1.366 . S
C2590 C2592 1.388 . S
C2591 C2590 1.366 . S
C2591 C2595 1.385 . S
C2592 H2573 0.951 . S
C2592 C2590 1.388 . S
C2592 C2593 1.366 . S
C2593 C2592 1.366 . S
C2593 C2594 1.414 . S
C2593 C2596 1.499 . S
C2594 H2574 0.950 . S
C2594 C2593 1.414 . S
C2594 C2595 1.374 . S
C2595 H2575 0.950 . S
C2595 C2591 1.385 . S
C2595 C2594 1.374 . S
C2596 C2593 1.499 . S
C2596 C2597 1.373 . S
C2596 C2598 1.389 . S
C2597 H2576 0.950 . S
C2597 C2596 1.373 . S
C2597 C2613 1.377 . S
C2598 C2596 1.389 . S
C2598 C2599 1.524 . S
C2598 C2612 1.377 . S
C2599 C2598 1.524 . S
C2599 C2600 1.397 . S
C2599 C2604 1.363 . S
C2600 H2577 0.950 . S
C2600 C2599 1.397 . S
C2600 C2601 1.334 . S
C2601 H2578 0.950 . S
C2601 C2600 1.334 . S
C2601 C2602 1.287 . S
C2602 C2601 1.287 . S
C2602 C2603 1.524 . S
C2602 H2621 0.913 . S
C2603 H2579 0.950 . S
C2603 C2602 1.524 . S
C2603 C2604 1.415 . S
C2604 H2580 0.950 . S
C2604 C2599 1.363 . S
C2604 C2603 1.415 . S
C2605 H2581 0.951 . S
C2605 C2606 1.366 . S
C2605 C2607 1.388 . S
C2606 C2605 1.366 . S
C2606 C2610 1.385 . S
C2607 H2582 0.951 . S
C2607 C2605 1.388 . S
C2607 C2608 1.366 . S
C2608 C2607 1.366 . S
C2608 C2609 1.414 . S
C2608 C2611 1.499 . S
C2609 H2583 0.950 . S
C2609 C2608 1.414 . S
C2609 C2610 1.374 . S
C2610 H2584 0.950 1_545 S
C2610 C2606 1.385 . S
C2610 C2609 1.374 . S
C2611 C2608 1.499 . S
C2611 C2612 1.373 . S
C2611 C2613 1.389 . S
C2612 H2585 0.950 . S
C2612 C2598 1.377 . S
C2612 C2611 1.373 . S
C2613 C2597 1.377 . S
C2613 C2611 1.389 . S
C2613 C2614 1.524 . S
C2614 C2613 1.524 . S
C2614 C2615 1.397 . S
C2614 C2619 1.363 . S
C2615 H2586 0.950 . S
C2615 C2614 1.397 . S
C2615 C2616 1.334 . S
C2616 H2587 0.950 . S
C2616 C2615 1.334 . S
C2616 C2617 1.287 . S
C2617 C2616 1.287 . S
C2617 C2618 1.524 . S
C2617 H2620 0.999 . S
C2618 H2588 0.950 . S
C2618 C2617 1.524 . S
C2618 C2619 1.415 . S
C2619 H2589 0.950 . S
C2619 C2614 1.363 . S
C2619 C2618 1.415 . S
H2620 C2617 0.999 . S
H2621 C2602 0.913 . S
H2622 C2640 0.951 . S
H2623 C2642 0.951 . S
H2624 C2644 0.950 . S
H2625 C2645 0.950 . S
H2626 C2647 0.950 . S
H2627 C2650 0.950 . S
H2628 C2651 0.950 . S
H2629 C2653 0.950 . S
H2630 C2654 0.950 . S
H2631 C2655 0.951 . S
H2632 C2657 0.951 . S
H2633 C2659 0.950 . S
H2634 C2660 0.950 . S
H2635 C2662 0.950 . S
H2636 C2665 0.950 . S
H2637 C2666 0.950 . S
H2638 C2668 0.950 . S
H2639 C2669 0.950 . S
C2640 H2622 0.951 . S
C2640 C2641 1.366 . S
C2640 C2642 1.388 . S
C2641 C2640 1.366 . S
C2641 C2645 1.385 . S
C2642 H2623 0.951 . S
C2642 C2640 1.388 . S
C2642 C2643 1.366 . S
C2643 C2642 1.366 . S
C2643 C2644 1.414 . S
C2643 C2646 1.499 . S
C2644 H2624 0.950 . S
C2644 C2643 1.414 . S
C2644 C2645 1.374 . S
C2645 H2625 0.950 . S
C2645 C2641 1.385 . S
C2645 C2644 1.374 . S
C2646 C2643 1.499 . S
C2646 C2647 1.373 . S
C2646 C2648 1.389 . S
C2647 H2626 0.950 . S
C2647 C2646 1.373 . S
C2647 C2663 1.377 . S
C2648 C2646 1.389 . S
C2648 C2649 1.524 . S
C2648 C2662 1.377 . S
C2649 C2648 1.524 . S
C2649 C2650 1.397 . S
C2649 C2654 1.363 . S
C2650 H2627 0.950 . S
C2650 C2649 1.397 . S
C2650 C2651 1.334 . S
C2651 H2628 0.950 . S
C2651 C2650 1.334 . S
C2651 C2652 1.287 . S
C2652 C2651 1.287 . S
C2652 C2653 1.524 . S
C2652 H2671 0.913 . S
C2653 H2629 0.950 . S
C2653 C2652 1.524 . S
C2653 C2654 1.415 . S
C2654 H2630 0.950 . S
C2654 C2649 1.363 . S
C2654 C2653 1.415 . S
C2655 H2631 0.951 . S
C2655 C2656 1.366 . S
C2655 C2657 1.388 . S
C2656 C2655 1.366 . S
C2656 C2660 1.385 . S
C2657 H2632 0.951 . S
C2657 C2655 1.388 . S
C2657 C2658 1.366 . S
C2658 C2657 1.366 . S
C2658 C2659 1.414 . S
C2658 C2661 1.499 . S
C2659 H2633 0.950 . S
C2659 C2658 1.414 . S
C2659 C2660 1.374 . S
C2660 H2634 0.950 . S
C2660 C2656 1.385 . S
C2660 C2659 1.374 . S
C2661 C2658 1.499 . S
C2661 C2662 1.373 . S
C2661 C2663 1.389 . S
C2662 H2635 0.950 . S
C2662 C2648 1.377 . S
C2662 C2661 1.373 . S
C2663 C2647 1.377 . S
C2663 C2661 1.389 . S
C2663 C2664 1.524 . S
C2664 C2663 1.524 . S
C2664 C2665 1.397 . S
C2664 C2669 1.363 . S
C2665 H2636 0.950 . S
C2665 C2664 1.397 . S
C2665 C2666 1.334 . S
C2666 H2637 0.950 . S
C2666 C2665 1.334 . S
C2666 C2667 1.287 . S
C2667 C2666 1.287 . S
C2667 C2668 1.524 . S
C2667 H2670 0.999 . S
C2668 H2638 0.950 . S
C2668 C2667 1.524 . S
C2668 C2669 1.415 . S
C2669 H2639 0.950 . S
C2669 C2664 1.363 . S
C2669 C2668 1.415 . S
H2670 C2667 0.999 . S
H2671 C2652 0.913 . S
H2672 C2690 0.951 . S
H2673 C2692 0.951 . S
H2674 C2694 0.950 . S
H2675 C2695 0.950 . S
H2676 C2697 0.950 . S
H2677 C2700 0.950 . S
H2678 C2701 0.950 . S
H2679 C2703 0.950 . S
H2680 C2704 0.950 . S
H2681 C2705 0.951 . S
H2682 C2707 0.951 . S
H2683 C2709 0.950 . S
H2684 C2710 0.950 . S
H2685 C2712 0.950 . S
H2686 C2715 0.950 . S
H2687 C2716 0.950 . S
H2688 C2718 0.950 . S
H2689 C2719 0.950 . S
C2690 H2672 0.951 . S
C2690 C2691 1.366 . S
C2690 C2692 1.388 . S
C2691 C2690 1.366 . S
C2691 C2695 1.385 . S
C2692 H2673 0.951 . S
C2692 C2690 1.388 . S
C2692 C2693 1.366 . S
C2693 C2692 1.366 . S
C2693 C2694 1.414 . S
C2693 C2696 1.499 . S
C2694 H2674 0.950 . S
C2694 C2693 1.414 . S
C2694 C2695 1.374 . S
C2695 H2675 0.950 . S
C2695 C2691 1.385 . S
C2695 C2694 1.374 . S
C2696 C2693 1.499 . S
C2696 C2697 1.373 . S
C2696 C2698 1.389 . S
C2697 H2676 0.950 . S
C2697 C2696 1.373 . S
C2697 C2713 1.377 . S
C2698 C2696 1.389 . S
C2698 C2699 1.524 . S
C2698 C2712 1.377 . S
C2699 C2698 1.524 . S
C2699 C2700 1.397 . S
C2699 C2704 1.363 . S
C2700 H2677 0.950 . S
C2700 C2699 1.397 . S
C2700 C2701 1.334 . S
C2701 H2678 0.950 . S
C2701 C2700 1.334 . S
C2701 C2702 1.287 . S
C2702 C2701 1.287 . S
C2702 C2703 1.524 . S
C2702 H2721 0.913 . S
C2703 H2679 0.950 . S
C2703 C2702 1.524 . S
C2703 C2704 1.415 . S
C2704 H2680 0.950 . S
C2704 C2699 1.363 . S
C2704 C2703 1.415 . S
C2705 H2681 0.951 . S
C2705 C2706 1.366 . S
C2705 C2707 1.388 . S
C2706 C2705 1.366 . S
C2706 C2710 1.385 . S
C2707 H2682 0.951 . S
C2707 C2705 1.388 . S
C2707 C2708 1.366 . S
C2708 C2707 1.366 . S
C2708 C2709 1.414 . S
C2708 C2711 1.499 . S
C2709 H2683 0.950 . S
C2709 C2708 1.414 . S
C2709 C2710 1.374 . S
C2710 H2684 0.950 . S
C2710 C2706 1.385 . S
C2710 C2709 1.374 . S
C2711 C2708 1.499 . S
C2711 C2712 1.373 . S
C2711 C2713 1.389 . S
C2712 H2685 0.950 . S
C2712 C2698 1.377 . S
C2712 C2711 1.373 . S
C2713 C2697 1.377 . S
C2713 C2711 1.389 . S
C2713 C2714 1.524 . S
C2714 C2713 1.524 . S
C2714 C2715 1.397 . S
C2714 C2719 1.363 . S
C2715 H2686 0.950 . S
C2715 C2714 1.397 . S
C2715 C2716 1.334 . S
C2716 H2687 0.950 . S
C2716 C2715 1.334 . S
C2716 C2717 1.287 . S
C2717 C2716 1.287 . S
C2717 C2718 1.524 . S
C2717 H2720 0.999 . S
C2718 H2688 0.950 . S
C2718 C2717 1.524 . S
C2718 C2719 1.415 . S
C2719 H2689 0.950 . S
C2719 C2714 1.363 . S
C2719 C2718 1.415 . S
H2720 C2717 0.999 . S
H2721 C2702 0.913 . S
H2722 C2740 0.951 . S
H2723 C2742 0.951 . S
H2724 C2744 0.950 . S
H2725 C2745 0.950 . S
H2726 C2747 0.950 . S
H2727 C2750 0.950 . S
H2728 C2751 0.950 . S
H2729 C2753 0.950 . S
H2730 C2754 0.950 . S
H2731 C2755 0.951 . S
H2732 C2757 0.951 . S
H2733 C2759 0.950 . S
H2734 C2760 0.950 . S
H2735 C2762 0.950 . S
H2736 C2765 0.950 . S
H2737 C2766 0.950 . S
H2738 C2768 0.950 . S
H2739 C2769 0.950 . S
C2740 H2722 0.951 . S
C2740 C2741 1.366 . S
C2740 C2742 1.388 . S
C2741 C2740 1.366 . S
C2741 C2745 1.385 . S
C2742 H2723 0.951 . S
C2742 C2740 1.388 . S
C2742 C2743 1.366 . S
C2743 C2742 1.366 . S
C2743 C2744 1.414 . S
C2743 C2746 1.499 . S
C2744 H2724 0.950 . S
C2744 C2743 1.414 . S
C2744 C2745 1.374 . S
C2745 H2725 0.950 . S
C2745 C2741 1.385 . S
C2745 C2744 1.374 . S
C2746 C2743 1.499 . S
C2746 C2747 1.373 . S
C2746 C2748 1.389 . S
C2747 H2726 0.950 . S
C2747 C2746 1.373 . S
C2747 C2763 1.377 . S
C2748 C2746 1.389 . S
C2748 C2749 1.524 . S
C2748 C2762 1.377 . S
C2749 C2748 1.524 . S
C2749 C2750 1.397 . S
C2749 C2754 1.363 . S
C2750 H2727 0.950 . S
C2750 C2749 1.397 . S
C2750 C2751 1.334 . S
C2751 H2728 0.950 . S
C2751 C2750 1.334 . S
C2751 C2752 1.287 . S
C2752 C2751 1.287 . S
C2752 C2753 1.524 . S
C2752 H2771 0.913 . S
C2753 H2729 0.950 . S
C2753 C2752 1.524 . S
C2753 C2754 1.415 . S
C2754 H2730 0.950 . S
C2754 C2749 1.363 . S
C2754 C2753 1.415 . S
C2755 H2731 0.951 . S
C2755 C2756 1.366 . S
C2755 C2757 1.388 . S
C2756 C2755 1.366 . S
C2756 C2760 1.385 . S
C2757 H2732 0.951 . S
C2757 C2755 1.388 . S
C2757 C2758 1.366 . S
C2758 C2757 1.366 . S
C2758 C2759 1.414 . S
C2758 C2761 1.499 . S
C2759 H2733 0.950 . S
C2759 C2758 1.414 . S
C2759 C2760 1.374 . S
C2760 H2734 0.950 . S
C2760 C2756 1.385 . S
C2760 C2759 1.374 . S
C2761 C2758 1.499 . S
C2761 C2762 1.373 . S
C2761 C2763 1.389 . S
C2762 H2735 0.950 . S
C2762 C2748 1.377 . S
C2762 C2761 1.373 . S
C2763 C2747 1.377 . S
C2763 C2761 1.389 . S
C2763 C2764 1.524 . S
C2764 C2763 1.524 . S
C2764 C2765 1.397 . S
C2764 C2769 1.363 . S
C2765 H2736 0.950 . S
C2765 C2764 1.397 . S
C2765 C2766 1.334 . S
C2766 H2737 0.950 . S
C2766 C2765 1.334 . S
C2766 C2767 1.287 . S
C2767 C2766 1.287 . S
C2767 C2768 1.524 . S
C2767 H2770 0.999 . S
C2768 H2738 0.950 . S
C2768 C2767 1.524 . S
C2768 C2769 1.415 . S
C2769 H2739 0.950 . S
C2769 C2764 1.363 . S
C2769 C2768 1.415 . S
H2770 C2767 0.999 . S
H2771 C2752 0.913 . S
H2772 C2790 0.951 . S
H2773 C2792 0.951 . S
H2774 C2794 0.950 . S
H2775 C2795 0.950 . S
H2776 C2797 0.950 . S
H2777 C2800 0.950 . S
H2778 C2801 0.950 . S
H2779 C2803 0.950 . S
H2780 C2804 0.950 . S
H2781 C2805 0.951 . S
H2782 C2807 0.951 . S
H2783 C2809 0.950 . S
H2784 C2810 0.950 . S
H2785 C2812 0.950 . S
H2786 C2815 0.950 . S
H2787 C2816 0.950 . S
H2788 C2818 0.950 . S
H2789 C2819 0.950 . S
C2790 H2772 0.951 . S
C2790 C2791 1.366 . S
C2790 C2792 1.388 . S
C2791 C2790 1.366 . S
C2791 C2795 1.385 . S
C2792 H2773 0.951 . S
C2792 C2790 1.388 . S
C2792 C2793 1.366 . S
C2793 C2792 1.366 . S
C2793 C2794 1.414 . S
C2793 C2796 1.499 . S
C2794 H2774 0.950 . S
C2794 C2793 1.414 . S
C2794 C2795 1.374 . S
C2795 H2775 0.950 . S
C2795 C2791 1.385 . S
C2795 C2794 1.374 . S
C2796 C2793 1.499 . S
C2796 C2797 1.373 . S
C2796 C2798 1.389 . S
C2797 H2776 0.950 . S
C2797 C2796 1.373 . S
C2797 C2813 1.377 . S
C2798 C2796 1.389 . S
C2798 C2799 1.524 . S
C2798 C2812 1.377 . S
C2799 C2798 1.524 . S
C2799 C2800 1.397 . S
C2799 C2804 1.363 . S
C2800 H2777 0.950 . S
C2800 C2799 1.397 . S
C2800 C2801 1.334 . S
C2801 H2778 0.950 . S
C2801 C2800 1.334 . S
C2801 C2802 1.287 . S
C2802 C2801 1.287 . S
C2802 C2803 1.524 . S
C2802 H2821 0.913 . S
C2803 H2779 0.950 . S
C2803 C2802 1.524 . S
C2803 C2804 1.415 . S
C2804 H2780 0.950 . S
C2804 C2799 1.363 . S
C2804 C2803 1.415 . S
C2805 H2781 0.951 . S
C2805 C2806 1.366 . S
C2805 C2807 1.388 . S
C2806 C2805 1.366 . S
C2806 C2810 1.385 . S
C2807 H2782 0.951 . S
C2807 C2805 1.388 . S
C2807 C2808 1.366 . S
C2808 C2807 1.366 . S
C2808 C2809 1.414 . S
C2808 C2811 1.499 . S
C2809 H2783 0.950 . S
C2809 C2808 1.414 . S
C2809 C2810 1.374 . S
C2810 H2784 0.950 . S
C2810 C2806 1.385 . S
C2810 C2809 1.374 . S
C2811 C2808 1.499 . S
C2811 C2812 1.373 . S
C2811 C2813 1.389 . S
C2812 H2785 0.950 . S
C2812 C2798 1.377 . S
C2812 C2811 1.373 . S
C2813 C2797 1.377 . S
C2813 C2811 1.389 . S
C2813 C2814 1.524 . S
C2814 C2813 1.524 . S
C2814 C2815 1.397 . S
C2814 C2819 1.363 . S
C2815 H2786 0.950 . S
C2815 C2814 1.397 . S
C2815 C2816 1.334 . S
C2816 H2787 0.950 . S
C2816 C2815 1.334 . S
C2816 C2817 1.287 . S
C2817 C2816 1.287 . S
C2817 C2818 1.524 . S
C2817 H2820 0.999 . S
C2818 H2788 0.950 . S
C2818 C2817 1.524 . S
C2818 C2819 1.415 . S
C2819 H2789 0.950 . S
C2819 C2814 1.363 . S
C2819 C2818 1.415 . S
H2820 C2817 0.999 . S
H2821 C2802 0.913 . S
H2822 C2840 0.951 . S
H2823 C2842 0.951 . S
H2824 C2844 0.950 . S
H2825 C2845 0.950 . S
H2826 C2847 0.950 . S
H2827 C2850 0.950 . S
H2828 C2851 0.950 . S
H2829 C2853 0.950 . S
H2830 C2854 0.950 . S
H2831 C2855 0.951 . S
H2832 C2857 0.951 . S
H2833 C2859 0.950 . S
H2834 C2860 0.950 . S
H2835 C2862 0.950 . S
H2836 C2865 0.950 . S
H2837 C2866 0.950 . S
H2838 C2868 0.950 . S
H2839 C2869 0.950 . S
C2840 H2822 0.951 . S
C2840 C2841 1.366 . S
C2840 C2842 1.388 . S
C2841 C2840 1.366 . S
C2841 C2845 1.385 . S
C2842 H2823 0.951 . S
C2842 C2840 1.388 . S
C2842 C2843 1.366 . S
C2843 C2842 1.366 . S
C2843 C2844 1.414 . S
C2843 C2846 1.499 . S
C2844 H2824 0.950 . S
C2844 C2843 1.414 . S
C2844 C2845 1.374 . S
C2845 H2825 0.950 . S
C2845 C2841 1.385 . S
C2845 C2844 1.374 . S
C2846 C2843 1.499 . S
C2846 C2847 1.373 . S
C2846 C2848 1.389 . S
C2847 H2826 0.950 . S
C2847 C2846 1.373 . S
C2847 C2863 1.377 . S
C2848 C2846 1.389 . S
C2848 C2849 1.524 . S
C2848 C2862 1.377 . S
C2849 C2848 1.524 . S
C2849 C2850 1.397 . S
C2849 C2854 1.363 . S
C2850 H2827 0.950 . S
C2850 C2849 1.397 . S
C2850 C2851 1.334 . S
C2851 H2828 0.950 . S
C2851 C2850 1.334 . S
C2851 C2852 1.287 . S
C2852 C2851 1.287 . S
C2852 C2853 1.524 . S
C2852 H2871 0.913 . S
C2853 H2829 0.950 . S
C2853 C2852 1.524 . S
C2853 C2854 1.415 . S
C2854 H2830 0.950 . S
C2854 C2849 1.363 . S
C2854 C2853 1.415 . S
C2855 H2831 0.951 . S
C2855 C2856 1.366 . S
C2855 C2857 1.388 . S
C2856 C2855 1.366 . S
C2856 C2860 1.385 . S
C2857 H2832 0.951 . S
C2857 C2855 1.388 . S
C2857 C2858 1.366 . S
C2858 C2857 1.366 . S
C2858 C2859 1.414 . S
C2858 C2861 1.499 . S
C2859 H2833 0.950 . S
C2859 C2858 1.414 . S
C2859 C2860 1.374 . S
C2860 H2834 0.950 . S
C2860 C2856 1.385 . S
C2860 C2859 1.374 . S
C2861 C2858 1.499 . S
C2861 C2862 1.373 . S
C2861 C2863 1.389 . S
C2862 H2835 0.950 . S
C2862 C2848 1.377 . S
C2862 C2861 1.373 . S
C2863 C2847 1.377 . S
C2863 C2861 1.389 . S
C2863 C2864 1.524 . S
C2864 C2863 1.524 . S
C2864 C2865 1.397 . S
C2864 C2869 1.363 . S
C2865 H2836 0.950 . S
C2865 C2864 1.397 . S
C2865 C2866 1.334 . S
C2866 H2837 0.950 . S
C2866 C2865 1.334 . S
C2866 C2867 1.287 . S
C2867 C2866 1.287 . S
C2867 C2868 1.524 . S
C2867 H2870 0.999 . S
C2868 H2838 0.950 . S
C2868 C2867 1.524 . S
C2868 C2869 1.415 . S
C2869 H2839 0.950 . S
C2869 C2864 1.363 . S
C2869 C2868 1.415 . S
H2870 C2867 0.999 . S
H2871 C2852 0.913 . S
H2872 C2890 0.951 . S
H2873 C2892 0.951 . S
H2874 C2894 0.950 . S
H2875 C2895 0.950 . S
H2876 C2897 0.950 . S
H2877 C2900 0.950 . S
H2878 C2901 0.950 . S
H2879 C2903 0.950 . S
H2880 C2904 0.950 . S
H2881 C2905 0.951 . S
H2882 C2907 0.951 . S
H2883 C2909 0.950 . S
H2884 C2910 0.950 . S
H2885 C2912 0.950 . S
H2886 C2915 0.950 . S
H2887 C2916 0.950 . S
H2888 C2918 0.950 . S
H2889 C2919 0.950 . S
C2890 H2872 0.951 . S
C2890 C2891 1.366 . S
C2890 C2892 1.388 . S
C2891 C2890 1.366 . S
C2891 C2895 1.385 . S
C2892 H2873 0.951 . S
C2892 C2890 1.388 . S
C2892 C2893 1.366 . S
C2893 C2892 1.366 . S
C2893 C2894 1.414 . S
C2893 C2896 1.499 . S
C2894 H2874 0.950 . S
C2894 C2893 1.414 . S
C2894 C2895 1.374 . S
C2895 H2875 0.950 . S
C2895 C2891 1.385 . S
C2895 C2894 1.374 . S
C2896 C2893 1.499 . S
C2896 C2897 1.373 . S
C2896 C2898 1.389 . S
C2897 H2876 0.950 . S
C2897 C2896 1.373 . S
C2897 C2913 1.377 . S
C2898 C2896 1.389 . S
C2898 C2899 1.524 . S
C2898 C2912 1.377 . S
C2899 C2898 1.524 . S
C2899 C2900 1.397 . S
C2899 C2904 1.363 . S
C2900 H2877 0.950 . S
C2900 C2899 1.397 . S
C2900 C2901 1.334 . S
C2901 H2878 0.950 . S
C2901 C2900 1.334 . S
C2901 C2902 1.287 . S
C2902 C2901 1.287 . S
C2902 C2903 1.524 . S
C2902 H2921 0.913 . S
C2903 H2879 0.950 . S
C2903 C2902 1.524 . S
C2903 C2904 1.415 . S
C2904 H2880 0.950 . S
C2904 C2899 1.363 . S
C2904 C2903 1.415 . S
C2905 H2881 0.951 . S
C2905 C2906 1.366 . S
C2905 C2907 1.388 . S
C2906 C2905 1.366 . S
C2906 C2910 1.385 . S
C2907 H2882 0.951 . S
C2907 C2905 1.388 . S
C2907 C2908 1.366 . S
C2908 C2907 1.366 . S
C2908 C2909 1.414 . S
C2908 C2911 1.499 . S
C2909 H2883 0.950 . S
C2909 C2908 1.414 . S
C2909 C2910 1.374 . S
C2910 H2884 0.950 . S
C2910 C2906 1.385 . S
C2910 C2909 1.374 . S
C2911 C2908 1.499 . S
C2911 C2912 1.373 . S
C2911 C2913 1.389 . S
C2912 H2885 0.950 . S
C2912 C2898 1.377 . S
C2912 C2911 1.373 . S
C2913 C2897 1.377 . S
C2913 C2911 1.389 . S
C2913 C2914 1.524 . S
C2914 C2913 1.524 . S
C2914 C2915 1.397 . S
C2914 C2919 1.363 . S
C2915 H2886 0.950 . S
C2915 C2914 1.397 . S
C2915 C2916 1.334 . S
C2916 H2887 0.950 . S
C2916 C2915 1.334 . S
C2916 C2917 1.287 . S
C2917 C2916 1.287 . S
C2917 C2918 1.524 . S
C2917 H2920 0.999 . S
C2918 H2888 0.950 . S
C2918 C2917 1.524 . S
C2918 C2919 1.415 . S
C2919 H2889 0.950 . S
C2919 C2914 1.363 . S
C2919 C2918 1.415 . S
H2920 C2917 0.999 . S
H2921 C2902 0.913 . S
H2922 C2940 0.951 . S
H2923 C2942 0.951 . S
H2924 C2944 0.950 . S
H2925 C2945 0.950 . S
H2926 C2947 0.950 . S
H2927 C2950 0.950 . S
H2928 C2951 0.950 . S
H2929 C2953 0.950 . S
H2930 C2954 0.950 . S
H2931 C2955 0.951 . S
H2932 C2957 0.951 . S
H2933 C2959 0.950 . S
H2934 C2960 0.950 . S
H2935 C2962 0.950 . S
H2936 C2965 0.950 . S
H2937 C2966 0.950 . S
H2938 C2968 0.950 . S
H2939 C2969 0.950 . S
C2940 H2922 0.951 . S
C2940 C2941 1.366 . S
C2940 C2942 1.388 . S
C2941 C2940 1.366 . S
C2941 C2945 1.385 . S
C2942 H2923 0.951 . S
C2942 C2940 1.388 . S
C2942 C2943 1.366 . S
C2943 C2942 1.366 . S
C2943 C2944 1.414 . S
C2943 C2946 1.499 . S
C2944 H2924 0.950 . S
C2944 C2943 1.414 . S
C2944 C2945 1.374 . S
C2945 H2925 0.950 . S
C2945 C2941 1.385 . S
C2945 C2944 1.374 . S
C2946 C2943 1.499 . S
C2946 C2947 1.373 . S
C2946 C2948 1.389 . S
C2947 H2926 0.950 . S
C2947 C2946 1.373 . S
C2947 C2963 1.377 . S
C2948 C2946 1.389 . S
C2948 C2949 1.524 . S
C2948 C2962 1.377 . S
C2949 C2948 1.524 . S
C2949 C2950 1.397 . S
C2949 C2954 1.363 . S
C2950 H2927 0.950 . S
C2950 C2949 1.397 . S
C2950 C2951 1.334 . S
C2951 H2928 0.950 . S
C2951 C2950 1.334 . S
C2951 C2952 1.287 . S
C2952 C2951 1.287 . S
C2952 C2953 1.524 . S
C2952 H2971 0.913 . S
C2953 H2929 0.950 . S
C2953 C2952 1.524 . S
C2953 C2954 1.415 . S
C2954 H2930 0.950 . S
C2954 C2949 1.363 . S
C2954 C2953 1.415 . S
C2955 H2931 0.951 . S
C2955 C2956 1.366 . S
C2955 C2957 1.388 . S
C2956 C2955 1.366 . S
C2956 C2960 1.385 . S
C2957 H2932 0.951 . S
C2957 C2955 1.388 . S
C2957 C2958 1.366 . S
C2958 C2957 1.366 . S
C2958 C2959 1.414 . S
C2958 C2961 1.499 . S
C2959 H2933 0.950 . S
C2959 C2958 1.414 . S
C2959 C2960 1.374 . S
C2960 H2934 0.950 . S
C2960 C2956 1.385 . S
C2960 C2959 1.374 . S
C2961 C2958 1.499 . S
C2961 C2962 1.373 . S
C2961 C2963 1.389 . S
C2962 H2935 0.950 . S
C2962 C2948 1.377 . S
C2962 C2961 1.373 . S
C2963 C2947 1.377 . S
C2963 C2961 1.389 . S
C2963 C2964 1.524 . S
C2964 C2963 1.524 . S
C2964 C2965 1.397 . S
C2964 C2969 1.363 . S
C2965 H2936 0.950 . S
C2965 C2964 1.397 . S
C2965 C2966 1.334 . S
C2966 H2937 0.950 . S
C2966 C2965 1.334 . S
C2966 C2967 1.287 . S
C2967 C2966 1.287 . S
C2967 C2968 1.524 . S
C2967 H2970 0.999 . S
C2968 H2938 0.950 . S
C2968 C2967 1.524 . S
C2968 C2969 1.415 . S
C2969 H2939 0.950 . S
C2969 C2964 1.363 . S
C2969 C2968 1.415 . S
H2970 C2967 0.999 . S
H2971 C2952 0.913 . S
H2972 C2990 0.951 . S
H2973 C2992 0.951 . S
H2974 C2994 0.950 . S
H2975 C2995 0.950 . S
H2976 C2997 0.950 . S
H2977 C3000 0.950 . S
H2978 C3001 0.950 . S
H2979 C3003 0.950 . S
H2980 C3004 0.950 . S
H2981 C3005 0.951 . S
H2982 C3007 0.951 . S
H2983 C3009 0.950 . S
H2984 C3010 0.950 . S
H2985 C3012 0.950 . S
H2986 C3015 0.950 . S
H2987 C3016 0.950 . S
H2988 C3018 0.950 . S
H2989 C3019 0.950 . S
C2990 H2972 0.951 . S
C2990 C2991 1.366 . S
C2990 C2992 1.388 . S
C2991 C2990 1.366 . S
C2991 C2995 1.385 . S
C2992 H2973 0.951 . S
C2992 C2990 1.388 . S
C2992 C2993 1.366 . S
C2993 C2992 1.366 . S
C2993 C2994 1.414 . S
C2993 C2996 1.499 . S
C2994 H2974 0.950 . S
C2994 C2993 1.414 . S
C2994 C2995 1.374 . S
C2995 H2975 0.950 . S
C2995 C2991 1.385 . S
C2995 C2994 1.374 . S
C2996 C2993 1.499 . S
C2996 C2997 1.373 . S
C2996 C2998 1.389 . S
C2997 H2976 0.950 . S
C2997 C2996 1.373 . S
C2997 C3013 1.377 . S
C2998 C2996 1.389 . S
C2998 C2999 1.524 . S
C2998 C3012 1.377 . S
C2999 C2998 1.524 . S
C2999 C3000 1.397 . S
C2999 C3004 1.363 . S
C3000 H2977 0.950 . S
C3000 C2999 1.397 . S
C3000 C3001 1.334 . S
C3001 H2978 0.950 . S
C3001 C3000 1.334 . S
C3001 C3002 1.287 . S
C3002 C3001 1.287 . S
C3002 C3003 1.524 . S
C3002 H3021 0.913 . S
C3003 H2979 0.950 . S
C3003 C3002 1.524 . S
C3003 C3004 1.415 . S
C3004 H2980 0.950 . S
C3004 C2999 1.363 . S
C3004 C3003 1.415 . S
C3005 H2981 0.951 . S
C3005 C3006 1.366 . S
C3005 C3007 1.388 . S
C3006 C3005 1.366 . S
C3006 C3010 1.385 . S
C3007 H2982 0.951 . S
C3007 C3005 1.388 . S
C3007 C3008 1.366 . S
C3008 C3007 1.366 . S
C3008 C3009 1.414 . S
C3008 C3011 1.499 . S
C3009 H2983 0.950 . S
C3009 C3008 1.414 . S
C3009 C3010 1.374 . S
C3010 H2984 0.950 . S
C3010 C3006 1.385 . S
C3010 C3009 1.374 . S
C3011 C3008 1.499 . S
C3011 C3012 1.373 . S
C3011 C3013 1.389 . S
C3012 H2985 0.950 . S
C3012 C2998 1.377 . S
C3012 C3011 1.373 . S
C3013 C2997 1.377 . S
C3013 C3011 1.389 . S
C3013 C3014 1.524 . S
C3014 C3013 1.524 . S
C3014 C3015 1.397 . S
C3014 C3019 1.363 . S
C3015 H2986 0.950 . S
C3015 C3014 1.397 . S
C3015 C3016 1.334 . S
C3016 H2987 0.950 . S
C3016 C3015 1.334 . S
C3016 C3017 1.287 . S
C3017 C3016 1.287 . S
C3017 C3018 1.524 . S
C3017 H3020 0.999 . S
C3018 H2988 0.950 . S
C3018 C3017 1.524 . S
C3018 C3019 1.415 . S
C3019 H2989 0.950 . S
C3019 C3014 1.363 . S
C3019 C3018 1.415 . S
H3020 C3017 0.999 . S
H3021 C3002 0.913 . S
H3022 C3040 0.951 . S
H3023 C3042 0.951 . S
H3024 C3044 0.950 . S
H3025 C3045 0.950 . S
H3026 C3047 0.950 . S
H3027 C3050 0.950 . S
H3028 C3051 0.950 . S
H3029 C3053 0.950 . S
H3030 C3054 0.950 . S
H3031 C3055 0.951 . S
H3032 C3057 0.951 . S
H3033 C3059 0.950 . S
H3034 C3060 0.950 . S
H3035 C3062 0.950 . S
H3036 C3065 0.950 . S
H3037 C3066 0.950 . S
H3038 C3068 0.950 . S
H3039 C3069 0.950 . S
C3040 H3022 0.951 . S
C3040 C3041 1.366 . S
C3040 C3042 1.388 . S
C3041 C3040 1.366 . S
C3041 C3045 1.385 . S
C3042 H3023 0.951 . S
C3042 C3040 1.388 . S
C3042 C3043 1.366 . S
C3043 C3042 1.366 . S
C3043 C3044 1.414 . S
C3043 C3046 1.499 . S
C3044 H3024 0.950 . S
C3044 C3043 1.414 . S
C3044 C3045 1.374 . S
C3045 H3025 0.950 . S
C3045 C3041 1.385 . S
C3045 C3044 1.374 . S
C3046 C3043 1.499 . S
C3046 C3047 1.373 . S
C3046 C3048 1.389 . S
C3047 H3026 0.950 . S
C3047 C3046 1.373 . S
C3047 C3063 1.377 . S
C3048 C3046 1.389 . S
C3048 C3049 1.524 . S
C3048 C3062 1.377 . S
C3049 C3048 1.524 . S
C3049 C3050 1.397 . S
C3049 C3054 1.363 . S
C3050 H3027 0.950 . S
C3050 C3049 1.397 . S
C3050 C3051 1.334 . S
C3051 H3028 0.950 . S
C3051 C3050 1.334 . S
C3051 C3052 1.287 . S
C3052 C3051 1.287 . S
C3052 C3053 1.524 . S
C3052 H3071 0.913 . S
C3053 H3029 0.950 . S
C3053 C3052 1.524 . S
C3053 C3054 1.415 . S
C3054 H3030 0.950 . S
C3054 C3049 1.363 . S
C3054 C3053 1.415 . S
C3055 H3031 0.951 . S
C3055 C3056 1.366 . S
C3055 C3057 1.388 . S
C3056 C3055 1.366 . S
C3056 C3060 1.385 . S
C3057 H3032 0.951 . S
C3057 C3055 1.388 . S
C3057 C3058 1.366 . S
C3058 C3057 1.366 . S
C3058 C3059 1.414 . S
C3058 C3061 1.499 . S
C3059 H3033 0.950 . S
C3059 C3058 1.414 . S
C3059 C3060 1.374 . S
C3060 H3034 0.950 . S
C3060 C3056 1.385 . S
C3060 C3059 1.374 . S
C3061 C3058 1.499 . S
C3061 C3062 1.373 . S
C3061 C3063 1.389 . S
C3062 H3035 0.950 . S
C3062 C3048 1.377 . S
C3062 C3061 1.373 . S
C3063 C3047 1.377 . S
C3063 C3061 1.389 . S
C3063 C3064 1.524 . S
C3064 C3063 1.524 . S
C3064 C3065 1.397 . S
C3064 C3069 1.363 . S
C3065 H3036 0.950 . S
C3065 C3064 1.397 . S
C3065 C3066 1.334 . S
C3066 H3037 0.950 . S
C3066 C3065 1.334 . S
C3066 C3067 1.287 . S
C3067 C3066 1.287 . S
C3067 C3068 1.524 . S
C3067 H3070 0.999 . S
C3068 H3038 0.950 . S
C3068 C3067 1.524 . S
C3068 C3069 1.415 . S
C3069 H3039 0.950 . S
C3069 C3064 1.363 . S
C3069 C3068 1.415 . S
H3070 C3067 0.999 . S
H3071 C3052 0.913 . S
H3072 C3090 0.951 . S
H3073 C3092 0.951 . S
H3074 C3094 0.950 . S
H3075 C3095 0.950 . S
H3076 C3097 0.950 . S
H3077 C3100 0.950 . S
H3078 C3101 0.950 . S
H3079 C3103 0.950 . S
H3080 C3104 0.950 . S
H3081 C3105 0.951 . S
H3082 C3107 0.951 . S
H3083 C3109 0.950 . S
H3084 C3110 0.950 . S
H3085 C3112 0.950 . S
H3086 C3115 0.950 . S
H3087 C3116 0.950 . S
H3088 C3118 0.950 . S
H3089 C3119 0.950 . S
C3090 H3072 0.951 . S
C3090 C3091 1.366 . S
C3090 C3092 1.388 . S
C3091 C3090 1.366 . S
C3091 C3095 1.385 . S
C3092 H3073 0.951 . S
C3092 C3090 1.388 . S
C3092 C3093 1.366 . S
C3093 C3092 1.366 . S
C3093 C3094 1.414 . S
C3093 C3096 1.499 . S
C3094 H3074 0.950 . S
C3094 C3093 1.414 . S
C3094 C3095 1.374 . S
C3095 H3075 0.950 . S
C3095 C3091 1.385 . S
C3095 C3094 1.374 . S
C3096 C3093 1.499 . S
C3096 C3097 1.373 . S
C3096 C3098 1.389 . S
C3097 H3076 0.950 . S
C3097 C3096 1.373 . S
C3097 C3113 1.377 . S
C3098 C3096 1.389 . S
C3098 C3099 1.524 . S
C3098 C3112 1.377 . S
C3099 C3098 1.524 . S
C3099 C3100 1.397 . S
C3099 C3104 1.363 . S
C3100 H3077 0.950 . S
C3100 C3099 1.397 . S
C3100 C3101 1.334 . S
C3101 H3078 0.950 . S
C3101 C3100 1.334 . S
C3101 C3102 1.287 . S
C3102 C3101 1.287 . S
C3102 C3103 1.524 . S
C3102 H3121 0.913 . S
C3103 H3079 0.950 . S
C3103 C3102 1.524 . S
C3103 C3104 1.415 . S
C3104 H3080 0.950 . S
C3104 C3099 1.363 . S
C3104 C3103 1.415 . S
C3105 H3081 0.951 . S
C3105 C3106 1.366 . S
C3105 C3107 1.388 . S
C3106 C3105 1.366 . S
C3106 C3110 1.385 . S
C3107 H3082 0.951 . S
C3107 C3105 1.388 . S
C3107 C3108 1.366 . S
C3108 C3107 1.366 . S
C3108 C3109 1.414 . S
C3108 C3111 1.499 . S
C3109 H3083 0.950 . S
C3109 C3108 1.414 . S
C3109 C3110 1.374 . S
C3110 H3084 0.950 . S
C3110 C3106 1.385 . S
C3110 C3109 1.374 . S
C3111 C3108 1.499 . S
C3111 C3112 1.373 . S
C3111 C3113 1.389 . S
C3112 H3085 0.950 . S
C3112 C3098 1.377 . S
C3112 C3111 1.373 . S
C3113 C3097 1.377 . S
C3113 C3111 1.389 . S
C3113 C3114 1.524 . S
C3114 C3113 1.524 . S
C3114 C3115 1.397 . S
C3114 C3119 1.363 . S
C3115 H3086 0.950 . S
C3115 C3114 1.397 . S
C3115 C3116 1.334 . S
C3116 H3087 0.950 . S
C3116 C3115 1.334 . S
C3116 C3117 1.287 . S
C3117 C3116 1.287 . S
C3117 C3118 1.524 . S
C3117 H3120 0.999 . S
C3118 H3088 0.950 . S
C3118 C3117 1.524 . S
C3118 C3119 1.415 . S
C3119 H3089 0.950 . S
C3119 C3114 1.363 . S
C3119 C3118 1.415 . S
H3120 C3117 0.999 . S
H3121 C3102 0.913 . S
H3122 C3140 0.951 . S
H3123 C3142 0.951 . S
H3124 C3144 0.950 . S
H3125 C3145 0.950 . S
H3126 C3147 0.950 . S
H3127 C3150 0.950 . S
H3128 C3151 0.950 . S
H3129 C3153 0.950 . S
H3130 C3154 0.950 . S
H3131 C3155 0.951 . S
H3132 C3157 0.951 . S
H3133 C3159 0.950 . S
H3134 C3160 0.950 . S
H3135 C3162 0.950 . S
H3136 C3165 0.950 . S
H3137 C3166 0.950 . S
H3138 C3168 0.950 . S
H3139 C3169 0.950 . S
C3140 H3122 0.951 . S
C3140 C3141 1.366 . S
C3140 C3142 1.388 . S
C3141 C3140 1.366 . S
C3141 C3145 1.385 . S
C3142 H3123 0.951 . S
C3142 C3140 1.388 . S
C3142 C3143 1.366 . S
C3143 C3142 1.366 . S
C3143 C3144 1.414 . S
C3143 C3146 1.499 . S
C3144 H3124 0.950 . S
C3144 C3143 1.414 . S
C3144 C3145 1.374 . S
C3145 H3125 0.950 . S
C3145 C3141 1.385 . S
C3145 C3144 1.374 . S
C3146 C3143 1.499 . S
C3146 C3147 1.373 . S
C3146 C3148 1.389 . S
C3147 H3126 0.950 . S
C3147 C3146 1.373 . S
C3147 C3163 1.377 . S
C3148 C3146 1.389 . S
C3148 C3149 1.524 . S
C3148 C3162 1.377 . S
C3149 C3148 1.524 . S
C3149 C3150 1.397 . S
C3149 C3154 1.363 . S
C3150 H3127 0.950 . S
C3150 C3149 1.397 . S
C3150 C3151 1.334 . S
C3151 H3128 0.950 . S
C3151 C3150 1.334 . S
C3151 C3152 1.287 . S
C3152 C3151 1.287 . S
C3152 C3153 1.524 . S
C3152 H3171 0.913 . S
C3153 H3129 0.950 . S
C3153 C3152 1.524 . S
C3153 C3154 1.415 . S
C3154 H3130 0.950 . S
C3154 C3149 1.363 . S
C3154 C3153 1.415 . S
C3155 H3131 0.951 . S
C3155 C3156 1.366 . S
C3155 C3157 1.388 . S
C3156 C3155 1.366 . S
C3156 C3160 1.385 . S
C3157 H3132 0.951 . S
C3157 C3155 1.388 . S
C3157 C3158 1.366 . S
C3158 C3157 1.366 . S
C3158 C3159 1.414 . S
C3158 C3161 1.499 . S
C3159 H3133 0.950 . S
C3159 C3158 1.414 . S
C3159 C3160 1.374 . S
C3160 H3134 0.950 . S
C3160 C3156 1.385 . S
C3160 C3159 1.374 . S
C3161 C3158 1.499 . S
C3161 C3162 1.373 . S
C3161 C3163 1.389 . S
C3162 H3135 0.950 . S
C3162 C3148 1.377 . S
C3162 C3161 1.373 . S
C3163 C3147 1.377 . S
C3163 C3161 1.389 . S
C3163 C3164 1.524 . S
C3164 C3163 1.524 . S
C3164 C3165 1.397 . S
C3164 C3169 1.363 . S
C3165 H3136 0.950 . S
C3165 C3164 1.397 . S
C3165 C3166 1.334 . S
C3166 H3137 0.950 . S
C3166 C3165 1.334 . S
C3166 C3167 1.287 . S
C3167 C3166 1.287 . S
C3167 C3168 1.524 . S
C3167 H3170 0.999 . S
C3168 H3138 0.950 . S
C3168 C3167 1.524 . S
C3168 C3169 1.415 . S
C3169 H3139 0.950 . S
C3169 C3164 1.363 . S
C3169 C3168 1.415 . S
H3170 C3167 0.999 . S
H3171 C3152 0.913 . S
H3172 C3190 0.951 . S
H3173 C3192 0.951 . S
H3174 C3194 0.950 . S
H3175 C3195 0.950 . S
H3176 C3197 0.950 . S
H3177 C3200 0.950 . S
H3178 C3201 0.950 . S
H3179 C3203 0.950 . S
H3180 C3204 0.950 . S
H3181 C3205 0.951 . S
H3182 C3207 0.951 . S
H3183 C3209 0.950 . S
H3184 C3210 0.950 . S
H3185 C3212 0.950 . S
H3186 C3215 0.950 . S
H3187 C3216 0.950 . S
H3188 C3218 0.950 . S
H3189 C3219 0.950 . S
C3190 H3172 0.951 . S
C3190 C3191 1.366 . S
C3190 C3192 1.388 . S
C3191 C3190 1.366 . S
C3191 C3195 1.385 . S
C3192 H3173 0.951 . S
C3192 C3190 1.388 . S
C3192 C3193 1.366 . S
C3193 C3192 1.366 . S
C3193 C3194 1.414 . S
C3193 C3196 1.499 . S
C3194 H3174 0.950 . S
C3194 C3193 1.414 . S
C3194 C3195 1.374 . S
C3195 H3175 0.950 . S
C3195 C3191 1.385 . S
C3195 C3194 1.374 . S
C3196 C3193 1.499 . S
C3196 C3197 1.373 . S
C3196 C3198 1.389 . S
C3197 H3176 0.950 . S
C3197 C3196 1.373 . S
C3197 C3213 1.377 . S
C3198 C3196 1.389 . S
C3198 C3199 1.524 . S
C3198 C3212 1.377 . S
C3199 C3198 1.524 . S
C3199 C3200 1.397 . S
C3199 C3204 1.363 . S
C3200 H3177 0.950 . S
C3200 C3199 1.397 . S
C3200 C3201 1.334 . S
C3201 H3178 0.950 . S
C3201 C3200 1.334 . S
C3201 C3202 1.287 . S
C3202 C3201 1.287 . S
C3202 C3203 1.524 . S
C3202 H3221 0.913 . S
C3203 H3179 0.950 . S
C3203 C3202 1.524 . S
C3203 C3204 1.415 . S
C3204 H3180 0.950 . S
C3204 C3199 1.363 . S
C3204 C3203 1.415 . S
C3205 H3181 0.951 . S
C3205 C3206 1.366 . S
C3205 C3207 1.388 . S
C3206 C3205 1.366 . S
C3206 C3210 1.385 . S
C3207 H3182 0.951 . S
C3207 C3205 1.388 . S
C3207 C3208 1.366 . S
C3208 C3207 1.366 . S
C3208 C3209 1.414 . S
C3208 C3211 1.499 . S
C3209 H3183 0.950 . S
C3209 C3208 1.414 . S
C3209 C3210 1.374 . S
C3210 H3184 0.950 . S
C3210 C3206 1.385 . S
C3210 C3209 1.374 . S
C3211 C3208 1.499 . S
C3211 C3212 1.373 . S
C3211 C3213 1.389 . S
C3212 H3185 0.950 . S
C3212 C3198 1.377 . S
C3212 C3211 1.373 . S
C3213 C3197 1.377 . S
C3213 C3211 1.389 . S
C3213 C3214 1.524 . S
C3214 C3213 1.524 . S
C3214 C3215 1.397 . S
C3214 C3219 1.363 . S
C3215 H3186 0.950 . S
C3215 C3214 1.397 . S
C3215 C3216 1.334 . S
C3216 H3187 0.950 . S
C3216 C3215 1.334 . S
C3216 C3217 1.287 . S
C3217 C3216 1.287 . S
C3217 C3218 1.524 . S
C3217 H3220 0.999 . S
C3218 H3188 0.950 . S
C3218 C3217 1.524 . S
C3218 C3219 1.415 . S
C3219 H3189 0.950 . S
C3219 C3214 1.363 . S
C3219 C3218 1.415 . S
H3220 C3217 0.999 . S
H3221 C3202 0.913 . S
C541 C253 1.606 . S
C556 C348 1.592 . S
C591 C272 1.574 . S
C606 C368 1.551 . S
C641 C234 1.531 . S
C656 C391 1.544 . S
C691 C215 1.400 . S
C706 C371 1.407 . S
C756 C388 1.440 1_556 S
C741 C177 1.456 . S
C791 C196 1.454 . S
C806 C351 1.463 . S
C856 C358 1.592 1_556 S
C841 C220 1.500 . S
C906 C378 1.450 . S
C891 C182 1.397 . S
C941 C201 1.550 . S
C956 C383 1.643 . S
C991 C258 1.402 . S
C1006 C363 1.488 . S
C1041 C277 1.337 . S
C1056 C398 1.412 . S
C1106 C343 1.591 . S
C1091 C239 1.485 . S
C1156 C408 1.591 . S
C1141 C25 1.606 . S
C1191 C44 1.574 . S
C1206 C428 1.551 . S
C1241 C6 1.531 . S
C1256 C451 1.544 . S
C1291 C329 1.401 . S
C1306 C431 1.407 . S
C1341 C291 1.456 . S
C1356 C448 1.440 . S
C1391 C310 1.454 . S
C1406 C411 1.463 . S
C1441 C334 1.501 . S
C1456 C418 1.591 . S
C1491 C296 1.397 . S
C1506 C438 1.450 . S
C1556 C443 1.643 . S
C1541 C315 1.551 . S
C1591 C30 1.402 . S
C1606 C423 1.489 . S
C1656 C458 1.413 . S
C1641 C49 1.337 . S
C1691 C11 1.485 . S
C1706 C403 1.590 . S
C1756 C468 1.592 . S
C1741 C139 1.606 . S
C1791 C158 1.574 . S
C1806 C488 1.551 . S
C1856 C511 1.544 . S
C1841 C120 1.531 . S
C1906 C491 1.407 . S
C1891 C101 1.401 . S
C1956 C508 1.440 . S
C1941 C63 1.456 . S
C1991 C82 1.454 . S
C2006 C471 1.464 . S
C2041 C106 1.500 . S
C2056 C478 1.592 . S
C2091 C68 1.399 . S
C2106 C498 1.451 . S
C2156 C503 1.643 . S
C2141 C87 1.550 . S
C2191 C144 1.402 . S
C2206 C483 1.488 . S
C2241 C163 1.337 . S
C2256 C518 1.413 . S
C2291 C125 1.486 . S
C2306 C463 1.591 . S
C2341 C287 1.358 . S
C2356 C361 1.303 . S
C2406 C381 1.779 . S
C2391 C306 1.869 . S
C2441 C325 1.566 . S
C2456 C390 1.544 . S
C2491 C116 1.791 . S
C2506 C370 1.753 . S
C2541 C135 1.698 . S
C2556 C401 1.622 . S
C2606 C350 1.294 . S
C2591 C154 1.306 . S
C2641 C59 1.358 . S
C2656 C421 1.303 . S
C2691 C78 1.869 . S
C2706 C441 1.778 . S
C2741 C97 1.566 . S
C2756 C450 1.545 . S
C2791 C230 1.791 . S
C2806 C430 1.754 . S
C2856 C461 1.623 . S
C2841 C249 1.698 . S
C2891 C268 1.306 . S
C2906 C410 1.293 . S
C2941 C173 1.359 . S
C2956 C481 1.303 . S
C2991 C192 1.869 . S
C3006 C501 1.778 . S
C3056 C510 1.544 . S
C3041 C211 1.566 . S
C3091 C2 1.791 . S
C3106 C490 1.753 . S
C3141 C21 1.698 . S
C3156 C521 1.623 . S
C3191 C40 1.306 . S
C3206 C470 1.294 . S
