# Generated by pormake.
# Topology ptr, (4,4)-cn, num edge types: 1
# Building blocks:
#     Node 0, Type 0, BuildingBlock: QUQFOY_clean_sbu_3, # of connection points: 4
#     Node 1, Type 0, BuildingBlock: QUQFOY_clean_sbu_3, # of connection points: 4
#     Node 2, Type 0, BuildingBlock: QUQFOY_clean_sbu_3, # of connection points: 4
#     Node 3, Type 0, BuildingBlock: QUQFOY_clean_sbu_3, # of connection points: 4
#     Node 4, Type 0, BuildingBlock: QUQFOY_clean_sbu_3, # of connection points: 4
#     Node 5, Type 0, BuildingBlock: QUQFOY_clean_sbu_3, # of connection points: 4
#     Node 6, Type 0, BuildingBlock: QUQFOY_clean_sbu_3, # of connection points: 4
#     Node 7, Type 0, BuildingBlock: QUQFOY_clean_sbu_3, # of connection points: 4
#     Node 8, Type 0, BuildingBlock: QUQFOY_clean_sbu_3, # of connection points: 4
#     Node 9, Type 0, BuildingBlock: QUQFOY_clean_sbu_3, # of connection points: 4
#     Node 10, Type 0, BuildingBlock: QUQFOY_clean_sbu_3, # of connection points: 4
#     Node 11, Type 0, BuildingBlock: QUQFOY_clean_sbu_3, # of connection points: 4
#     Node 12, Type 0, BuildingBlock: QUQFOY_clean_sbu_3, # of connection points: 4
#     Node 13, Type 0, BuildingBlock: QUQFOY_clean_sbu_3, # of connection points: 4
#     Node 14, Type 0, BuildingBlock: QUQFOY_clean_sbu_3, # of connection points: 4
#     Node 15, Type 0, BuildingBlock: QUQFOY_clean_sbu_3, # of connection points: 4
#     Node 16, Type 0, BuildingBlock: QUQFOY_clean_sbu_3, # of connection points: 4
#     Node 17, Type 0, BuildingBlock: QUQFOY_clean_sbu_3, # of connection points: 4
#     Node 18, Type 1, BuildingBlock: KUFVIS_clean_linker_0, # of connection points: 4
#     Node 19, Type 1, BuildingBlock: KUFVIS_clean_linker_0, # of connection points: 4
#     Node 20, Type 1, BuildingBlock: KUFVIS_clean_linker_0, # of connection points: 4
#     Node 21, Type 1, BuildingBlock: KUFVIS_clean_linker_0, # of connection points: 4
#     Node 22, Type 1, BuildingBlock: KUFVIS_clean_linker_0, # of connection points: 4
#     Node 23, Type 1, BuildingBlock: KUFVIS_clean_linker_0, # of connection points: 4
#     Node 24, Type 1, BuildingBlock: KUFVIS_clean_linker_0, # of connection points: 4
#     Node 25, Type 1, BuildingBlock: KUFVIS_clean_linker_0, # of connection points: 4
#     Node 26, Type 1, BuildingBlock: KUFVIS_clean_linker_0, # of connection points: 4
#     Node 27, Type 1, BuildingBlock: KUFVIS_clean_linker_0, # of connection points: 4
#     Node 28, Type 1, BuildingBlock: KUFVIS_clean_linker_0, # of connection points: 4
#     Node 29, Type 1, BuildingBlock: KUFVIS_clean_linker_0, # of connection points: 4
#     Node 30, Type 1, BuildingBlock: KUFVIS_clean_linker_0, # of connection points: 4
#     Node 31, Type 1, BuildingBlock: KUFVIS_clean_linker_0, # of connection points: 4
#     Node 32, Type 1, BuildingBlock: KUFVIS_clean_linker_0, # of connection points: 4
#     Node 33, Type 1, BuildingBlock: KUFVIS_clean_linker_0, # of connection points: 4
#     Node 34, Type 1, BuildingBlock: KUFVIS_clean_linker_0, # of connection points: 4
#     Node 35, Type 1, BuildingBlock: KUFVIS_clean_linker_0, # of connection points: 4
#     Edge 36, Type (0, 1), BuildingBlock: AJUNOK_clean_linker_0, # of connection points: 2
#     Edge 37, Type (0, 1), BuildingBlock: AJUNOK_clean_linker_0, # of connection points: 2
#     Edge 38, Type (0, 1), BuildingBlock: AJUNOK_clean_linker_0, # of connection points: 2
#     Edge 39, Type (0, 1), BuildingBlock: AJUNOK_clean_linker_0, # of connection points: 2
#     Edge 40, Type (0, 1), BuildingBlock: AJUNOK_clean_linker_0, # of connection points: 2
#     Edge 41, Type (0, 1), BuildingBlock: AJUNOK_clean_linker_0, # of connection points: 2
#     Edge 42, Type (0, 1), BuildingBlock: AJUNOK_clean_linker_0, # of connection points: 2
#     Edge 43, Type (0, 1), BuildingBlock: AJUNOK_clean_linker_0, # of connection points: 2
#     Edge 44, Type (0, 1), BuildingBlock: AJUNOK_clean_linker_0, # of connection points: 2
#     Edge 45, Type (0, 1), BuildingBlock: AJUNOK_clean_linker_0, # of connection points: 2
#     Edge 46, Type (0, 1), BuildingBlock: AJUNOK_clean_linker_0, # of connection points: 2
#     Edge 47, Type (0, 1), BuildingBlock: AJUNOK_clean_linker_0, # of connection points: 2
#     Edge 48, Type (0, 1), BuildingBlock: AJUNOK_clean_linker_0, # of connection points: 2
#     Edge 49, Type (0, 1), BuildingBlock: AJUNOK_clean_linker_0, # of connection points: 2
#     Edge 50, Type (0, 1), BuildingBlock: AJUNOK_clean_linker_0, # of connection points: 2
#     Edge 51, Type (0, 1), BuildingBlock: AJUNOK_clean_linker_0, # of connection points: 2
#     Edge 52, Type (0, 1), BuildingBlock: AJUNOK_clean_linker_0, # of connection points: 2
#     Edge 53, Type (0, 1), BuildingBlock: AJUNOK_clean_linker_0, # of connection points: 2
#     Edge 54, Type (0, 1), BuildingBlock: AJUNOK_clean_linker_0, # of connection points: 2
#     Edge 55, Type (0, 1), BuildingBlock: AJUNOK_clean_linker_0, # of connection points: 2
#     Edge 56, Type (0, 1), BuildingBlock: AJUNOK_clean_linker_0, # of connection points: 2
#     Edge 57, Type (0, 1), BuildingBlock: AJUNOK_clean_linker_0, # of connection points: 2
#     Edge 58, Type (0, 1), BuildingBlock: AJUNOK_clean_linker_0, # of connection points: 2
#     Edge 59, Type (0, 1), BuildingBlock: AJUNOK_clean_linker_0, # of connection points: 2
#     Edge 60, Type (0, 1), BuildingBlock: AJUNOK_clean_linker_0, # of connection points: 2
#     Edge 61, Type (0, 1), BuildingBlock: AJUNOK_clean_linker_0, # of connection points: 2
#     Edge 62, Type (0, 1), BuildingBlock: AJUNOK_clean_linker_0, # of connection points: 2
#     Edge 63, Type (0, 1), BuildingBlock: AJUNOK_clean_linker_0, # of connection points: 2
#     Edge 64, Type (0, 1), BuildingBlock: AJUNOK_clean_linker_0, # of connection points: 2
#     Edge 65, Type (0, 1), BuildingBlock: AJUNOK_clean_linker_0, # of connection points: 2
#     Edge 66, Type (0, 1), BuildingBlock: AJUNOK_clean_linker_0, # of connection points: 2
#     Edge 67, Type (0, 1), BuildingBlock: AJUNOK_clean_linker_0, # of connection points: 2
#     Edge 68, Type (0, 1), BuildingBlock: AJUNOK_clean_linker_0, # of connection points: 2
#     Edge 69, Type (0, 1), BuildingBlock: AJUNOK_clean_linker_0, # of connection points: 2
#     Edge 70, Type (0, 1), BuildingBlock: AJUNOK_clean_linker_0, # of connection points: 2
#     Edge 71, Type (0, 1), BuildingBlock: AJUNOK_clean_linker_0, # of connection points: 2
#     Edge 72, Type (0, 1), BuildingBlock: AJUNOK_clean_linker_0, # of connection points: 2
#     Edge 73, Type (0, 1), BuildingBlock: AJUNOK_clean_linker_0, # of connection points: 2
#     Edge 74, Type (0, 1), BuildingBlock: AJUNOK_clean_linker_0, # of connection points: 2
#     Edge 75, Type (0, 1), BuildingBlock: AJUNOK_clean_linker_0, # of connection points: 2
#     Edge 76, Type (0, 1), BuildingBlock: AJUNOK_clean_linker_0, # of connection points: 2
#     Edge 77, Type (0, 1), BuildingBlock: AJUNOK_clean_linker_0, # of connection points: 2
#     Edge 78, Type (0, 1), BuildingBlock: AJUNOK_clean_linker_0, # of connection points: 2
#     Edge 79, Type (0, 1), BuildingBlock: AJUNOK_clean_linker_0, # of connection points: 2
#     Edge 80, Type (0, 1), BuildingBlock: AJUNOK_clean_linker_0, # of connection points: 2
#     Edge 81, Type (0, 1), BuildingBlock: AJUNOK_clean_linker_0, # of connection points: 2
#     Edge 82, Type (0, 1), BuildingBlock: AJUNOK_clean_linker_0, # of connection points: 2
#     Edge 83, Type (0, 1), BuildingBlock: AJUNOK_clean_linker_0, # of connection points: 2
#     Edge 84, Type (0, 1), BuildingBlock: AJUNOK_clean_linker_0, # of connection points: 2
#     Edge 85, Type (0, 1), BuildingBlock: AJUNOK_clean_linker_0, # of connection points: 2
#     Edge 86, Type (0, 1), BuildingBlock: AJUNOK_clean_linker_0, # of connection points: 2
#     Edge 87, Type (0, 1), BuildingBlock: AJUNOK_clean_linker_0, # of connection points: 2
#     Edge 88, Type (0, 1), BuildingBlock: AJUNOK_clean_linker_0, # of connection points: 2
#     Edge 89, Type (0, 1), BuildingBlock: AJUNOK_clean_linker_0, # of connection points: 2
#     Edge 90, Type (0, 1), BuildingBlock: AJUNOK_clean_linker_0, # of connection points: 2
#     Edge 91, Type (0, 1), BuildingBlock: AJUNOK_clean_linker_0, # of connection points: 2
#     Edge 92, Type (0, 1), BuildingBlock: AJUNOK_clean_linker_0, # of connection points: 2
#     Edge 93, Type (0, 1), BuildingBlock: AJUNOK_clean_linker_0, # of connection points: 2
#     Edge 94, Type (0, 1), BuildingBlock: AJUNOK_clean_linker_0, # of connection points: 2
#     Edge 95, Type (0, 1), BuildingBlock: AJUNOK_clean_linker_0, # of connection points: 2
#     Edge 96, Type (0, 1), BuildingBlock: AJUNOK_clean_linker_0, # of connection points: 2
#     Edge 97, Type (0, 1), BuildingBlock: AJUNOK_clean_linker_0, # of connection points: 2
#     Edge 98, Type (0, 1), BuildingBlock: AJUNOK_clean_linker_0, # of connection points: 2
#     Edge 99, Type (0, 1), BuildingBlock: AJUNOK_clean_linker_0, # of connection points: 2
#     Edge 100, Type (0, 1), BuildingBlock: AJUNOK_clean_linker_0, # of connection points: 2
#     Edge 101, Type (0, 1), BuildingBlock: AJUNOK_clean_linker_0, # of connection points: 2
#     Edge 102, Type (0, 1), BuildingBlock: AJUNOK_clean_linker_0, # of connection points: 2
#     Edge 103, Type (0, 1), BuildingBlock: AJUNOK_clean_linker_0, # of connection points: 2
#     Edge 104, Type (0, 1), BuildingBlock: AJUNOK_clean_linker_0, # of connection points: 2
#     Edge 105, Type (0, 1), BuildingBlock: AJUNOK_clean_linker_0, # of connection points: 2
#     Edge 106, Type (0, 1), BuildingBlock: AJUNOK_clean_linker_0, # of connection points: 2
#     Edge 107, Type (0, 1), BuildingBlock: AJUNOK_clean_linker_0, # of connection points: 2
# Relax obj value: 0.042
# Max RMSD: 0.108
# Mean RMSD: 0.079
data_MOF--net-ptr--node1-QUQFOY_clean_sbu_3--node2-KUFVIS_clean_linker_0--edge1-AJUNOK_clean_linker_0
_symmetry_space_group_name_H-M    P1
_symmetry_Int_Tables_number       1
_symmetry_cell_setting            triclinic
loop_
_symmetry_equiv_pos_as_xyz
'x, y, z'
_cell_length_a     59.238287
_cell_length_b     59.567265
_cell_length_c     37.511991
_cell_angle_alpha  90.164218
_cell_angle_beta   89.813575
_cell_angle_gamma 120.58013
loop_
_atom_site_label
_atom_site_type_symbol
_atom_site_fract_x
_atom_site_fract_y
_atom_site_fract_z
_atom_type_partial_charge
C0 C 0.93421 0.30801 0.00824 0.0
O1 O 0.92277 0.31998 0.01877 0.0
Cd2 Cd 0.94633 0.36498 0.03705 0.0
O3 O 0.9592 0.31965 0.00759 0.0
Cd4 Cd 0.99848 0.36256 0.0226 0.0
C5 C 0.98185 0.39342 0.96102 0.0
O6 O 0.9805 0.37064 0.07694 0.0
O7 O 0.01655 0.40305 0.05741 0.0
O8 O 0.01989 0.33857 0.04185 0.0
C9 C 0.99896 0.39397 0.0813 0.0
O10 O 0.96369 0.39056 0.98217 0.0
C11 C 0.04139 0.35278 0.02553 0.0
O12 O 0.99598 0.38361 0.96847 0.0
O13 O 0.04292 0.37147 0.00737 0.0
C14 C 0.64447 0.69281 0.01029 0.0
O15 O 0.62155 0.68048 -0.00284 0.0
Cd16 Cd 0.60024 0.63586 0.9787 0.0
O17 O 0.65793 0.68168 0.0136 0.0
Cd18 Cd 0.65639 0.63997 -0.00045 0.0
C19 C 0.60551 0.60611 0.05559 0.0
O20 O 0.63267 0.63336 0.94506 0.0
O21 O 0.63647 0.60076 0.96026 0.0
O22 O 0.70192 0.66852 0.98318 0.0
C23 C 0.62762 0.61048 0.93826 0.0
O24 O 0.59182 0.60987 0.03286 0.0
C25 C 0.71056 0.65499 -0.00286 0.0
O26 O 0.63019 0.61645 0.05146 0.0
O27 O 0.69391 0.63425 0.01303 0.0
C28 C 0.32898 0.95557 0.0093 0.0
O29 O 0.34279 0.94667 -0.00329 0.0
Cd30 Cd 0.38802 0.97332 0.98145 0.0
O31 O 0.33922 0.98004 0.0149 0.0
Cd32 Cd 0.38212 0.02195 0.00654 0.0
C33 C 0.41593 0.00461 0.06111 0.0
O34 O 0.389 0.00813 0.94939 0.0
O35 O 0.42202 0.04365 0.96836 0.0
O36 O 0.35322 0.03888 -0.00488 0.0
C37 C 0.41185 0.02699 0.94358 0.0
O38 O 0.41345 0.98856 0.03673 0.0
C39 C 0.36844 0.0617 0.0069 0.0
O40 O 0.40478 0.01801 0.05822 0.0
O41 O 0.39004 0.06608 0.02001 0.0
C42 C 0.95469 0.63354 0.0038 0.0
O43 O 0.94521 0.61108 0.01763 0.0
Cd44 Cd 0.97049 0.59183 0.03411 0.0
O45 O 0.97941 0.64783 -0.0014 0.0
Cd46 Cd 0.02138 0.64766 0.0085 0.0
C47 C 1.00121 0.59618 0.95331 0.0
O48 O 0.00711 0.62535 0.06473 0.0
O49 O 0.04287 0.62903 0.04508 0.0
O50 O 0.04133 0.69411 0.02085 0.0
C51 C 0.02558 0.62087 0.06931 0.0
O52 O 0.9851 0.58262 0.97783 0.0
C53 C 0.06329 0.70089 0.00636 0.0
O54 O 0.01574 0.62081 0.95656 0.0
O55 O 0.06562 0.68299 0.99154 0.0
C56 C 0.31163 0.37898 -0.00074 0.0
O57 O 0.32472 0.40246 0.98869 0.0
Cd58 Cd 0.36987 0.42334 0.97066 0.0
O59 O 0.32223 0.36497 0.00049 0.0
Cd60 Cd 0.36445 0.36748 0.9866 0.0
C61 C 0.39777 0.416 0.04644 0.0
O62 O 0.37412 0.39348 0.93251 0.0
O63 O 0.40567 0.38934 0.95304 0.0
O64 O 0.3401 0.32192 0.96716 0.0
C65 C 0.39748 0.39837 0.92908 0.0
O66 O 0.39586 0.43151 0.02499 0.0
C67 C 0.35358 0.31469 0.98477 0.0
O68 O 0.38636 0.39168 0.03983 0.0
O69 O 0.3719 0.33194 0.00383 0.0
C70 C 0.69034 0.05188 0.98637 0.0
O71 O 0.67726 0.06178 -0.00163 0.0
Cd72 Cd 0.63263 0.03736 0.0169 0.0
O73 O 0.67958 0.02714 0.98306 0.0
Cd74 Cd 0.63637 0.98644 -0.00332 0.0
C75 C 0.60124 1.00177 0.94092 0.0
O76 O 0.63232 0.00434 0.05222 0.0
O77 O 0.5981 0.96821 0.03802 0.0
O78 O 0.6646 0.9692 0.01168 0.0
C79 C 0.60963 0.98634 0.06068 0.0
O80 O 0.60526 0.01932 0.96374 0.0
C81 C 0.64874 0.94577 0.00269 0.0
O82 O 0.6118 0.98786 0.94475 0.0
O83 O 0.62733 0.94124 0.9887 0.0
C84 C 0.60208 0.64259 0.33991 0.0
O85 O 0.59072 0.65404 0.35269 0.0
Cd86 Cd 0.61429 0.69879 0.37175 0.0
O87 O 0.62706 0.6545 0.33809 0.0
Cd88 Cd 0.66664 0.6971 0.35349 0.0
C89 C 0.64802 0.72761 0.29429 0.0
O90 O 0.64959 0.70453 0.40907 0.0
O91 O 0.68501 0.73738 0.38878 0.0
O92 O 0.68729 0.67212 0.371 0.0
C93 C 0.66787 0.72796 0.41325 0.0
O94 O 0.63034 0.72427 0.31666 0.0
C95 C 0.70896 0.68644 0.35514 0.0
O96 O 0.66289 0.71837 0.30026 0.0
O97 O 0.71106 0.70582 0.33811 0.0
C98 C 0.31137 0.02419 0.34339 0.0
O99 O 0.28812 0.01074 0.33171 0.0
Cd100 Cd 0.26769 0.96585 0.31533 0.0
O101 O 0.32564 0.0139 0.34673 0.0
Cd102 Cd 0.323 0.97122 0.33377 0.0
C103 C 0.27435 0.938 0.39247 0.0
O104 O 0.29891 0.96321 0.27862 0.0
O105 O 0.30113 0.93053 0.29796 0.0
O106 O 0.36873 0.99762 0.31632 0.0
C107 C 0.2936 0.94001 0.27379 0.0
O108 O 0.25967 0.94031 0.36981 0.0
C109 C 0.37609 0.98277 0.32947 0.0
O110 O 0.29899 0.94925 0.38745 0.0
O111 O 0.35885 0.9627 0.34591 0.0
C112 C 0.99118 0.28967 0.3419 0.0
O113 O 1.00326 0.2796 0.3271 0.0
Cd114 Cd 0.04884 0.30352 0.31285 0.0
O115 O 1.00323 0.31398 0.34941 0.0
Cd116 Cd 0.04696 0.35482 0.34261 0.0
C117 C 0.0752 0.33007 0.39578 0.0
O118 O 0.05388 0.3416 0.28551 0.0
O119 O 0.08762 0.37587 0.30605 0.0
O120 O 0.01938 0.37319 0.33126 0.0
C121 C 0.07736 0.35958 0.28086 0.0
O122 O 0.07179 0.31452 0.37021 0.0
C123 C 0.03494 0.39575 0.34357 0.0
O124 O 0.06684 0.34599 0.39361 0.0
O125 O 0.05614 0.39934 0.35719 0.0
C126 C 0.62595 0.97075 0.33688 0.0
O127 O 0.61559 0.94768 0.34892 0.0
Cd128 Cd 0.64022 0.92712 0.36266 0.0
O129 O 0.65073 0.98437 0.33222 0.0
Cd130 Cd 0.69117 0.9816 0.34186 0.0
C131 C 0.67177 0.93293 0.28249 0.0
O132 O 0.67613 0.95813 0.39763 0.0
O133 O 0.711 0.96051 0.3765 0.0
O134 O 0.7112 0.02753 0.3566 0.0
C135 C 0.69427 0.95305 0.40143 0.0
O136 O 0.65505 0.91849 0.30591 0.0
C137 C 0.7334 0.03454 0.34278 0.0
O138 O 0.68637 0.95731 0.28774 0.0
O139 O 0.736 0.01694 0.32751 0.0
C140 C 0.97922 0.71465 0.32908 0.0
O141 O 0.99185 0.73769 0.31681 0.0
Cd142 Cd 0.0366 0.75888 0.29747 0.0
O143 O 0.99001 0.70081 0.33097 0.0
Cd144 Cd 0.03238 0.70347 0.31641 0.0
C145 C 0.06496 0.75374 0.37441 0.0
O146 O 0.04049 0.72795 0.26148 0.0
O147 O 0.0731 0.7253 0.28093 0.0
O148 O 0.0083 0.65728 0.2994 0.0
C149 C 0.06393 0.73343 0.25706 0.0
O150 O 0.06252 0.76845 0.3521 0.0
C151 C 0.02263 0.65095 0.31674 0.0
O152 O 0.05441 0.72936 0.36863 0.0
O153 O 0.04125 0.66896 0.33458 0.0
C154 C 0.36208 0.38861 0.32339 0.0
O155 O 0.34955 0.39931 0.33457 0.0
Cd156 Cd 0.3048 0.37636 0.35264 0.0
O157 O 0.35064 0.36378 0.32076 0.0
Cd158 Cd 0.30681 0.3242 0.33464 0.0
C159 C 0.27297 0.34006 0.27732 0.0
O160 O 0.30253 0.34314 0.3896 0.0
O161 O 0.26783 0.3079 0.37382 0.0
O162 O 0.3334 0.30528 0.35126 0.0
C163 C 0.27917 0.32591 0.39666 0.0
O164 O 0.27728 0.35798 0.29965 0.0
C165 C 0.31725 0.28212 0.34148 0.0
O166 O 0.28314 0.32585 0.28178 0.0
O167 O 0.29629 0.2784 0.32694 0.0
C168 C 0.26747 0.97392 0.67314 0.0
O169 O 0.25549 0.98513 0.68458 0.0
Cd170 Cd 0.27821 0.03014 0.7027 0.0
O171 O 0.29245 0.98635 0.67147 0.0
Cd172 Cd 0.33139 0.02958 0.68545 0.0
C173 C 0.31197 0.05902 0.62538 0.0
O174 O 0.31364 0.03672 0.74053 0.0
O175 O 0.34914 0.06977 0.72081 0.0
O176 O 0.35284 0.0054 0.70317 0.0
C177 C 0.33171 0.06022 0.7449 0.0
O178 O 0.29405 0.05548 0.64743 0.0
C179 C 0.37437 0.01992 0.68711 0.0
O180 O 0.32711 0.05018 0.63186 0.0
O181 O 0.37604 0.03907 0.66997 0.0
C182 C 0.9768 0.35787 0.67899 0.0
O183 O 0.95371 0.3442 0.66679 0.0
Cd184 Cd 0.93408 0.29937 0.65013 0.0
O185 O 0.99133 0.34793 0.68278 0.0
Cd186 Cd 0.99093 0.30639 0.67078 0.0
C187 C 0.94095 0.27182 0.72794 0.0
O188 O 0.96701 0.29805 0.61593 0.0
O189 O 0.9715 0.26628 0.63334 0.0
O190 O 0.03629 0.33506 0.65328 0.0
C191 C 0.96273 0.27531 0.61017 0.0
O192 O 0.92651 0.27421 0.70491 0.0
C193 C 0.04529 0.32191 0.66748 0.0
O194 O 0.9657 0.28323 0.72357 0.0
O195 O 0.02901 0.30161 0.68449 0.0
C196 C 0.65681 0.61972 0.67218 0.0
O197 O 0.66933 0.60994 0.65792 0.0
Cd198 Cd 0.71494 0.63427 0.64422 0.0
O199 O 0.66849 0.64405 0.67961 0.0
Cd200 Cd 0.71249 0.68491 0.67338 0.0
C201 C 0.74081 0.66054 0.72722 0.0
O202 O 0.71965 0.67199 0.61597 0.0
O203 O 0.7534 0.70586 0.63725 0.0
O204 O 0.68558 0.70419 0.6621 0.0
C205 C 0.74314 0.69 0.6116 0.0
O206 O 0.73779 0.64513 0.70164 0.0
C207 C 0.70143 0.72659 0.67469 0.0
O208 O 0.73216 0.6762 0.72485 0.0
O209 O 0.72239 0.72962 0.68839 0.0
C210 C 0.28788 0.29783 0.66692 0.0
O211 O 0.27859 0.27474 0.67844 0.0
Cd212 Cd 0.30456 0.25611 0.69443 0.0
O213 O 0.31266 0.31291 0.66339 0.0
Cd214 Cd 0.35498 0.31365 0.67365 0.0
C215 C 0.33856 0.26432 0.61548 0.0
O216 O 0.33919 0.28947 0.7282 0.0
O217 O 0.37657 0.29568 0.71141 0.0
O218 O 0.3728 0.35957 0.68769 0.0
C219 C 0.35818 0.28602 0.73411 0.0
O220 O 0.32177 0.24942 0.63854 0.0
C221 C 0.39534 0.36751 0.67432 0.0
O222 O 0.35209 0.28884 0.62055 0.0
O223 O 0.39912 0.35045 0.65972 0.0
C224 C 0.64404 0.0444 0.6628 0.0
O225 O 0.65628 0.06751 0.65067 0.0
Cd226 Cd 0.70138 0.08959 0.63241 0.0
O227 O 0.65548 0.03122 0.66543 0.0
Cd228 Cd 0.6983 0.03456 0.65247 0.0
C229 C 0.72967 0.08529 0.71013 0.0
O230 O 0.70687 0.05915 0.59762 0.0
O231 O 0.7394 0.05671 0.61798 0.0
O232 O 0.67438 0.9885 0.63517 0.0
C233 C 0.73049 0.06499 0.59395 0.0
O234 O 0.72688 0.09959 0.68747 0.0
C235 C 0.68852 0.98203 0.6527 0.0
O236 O 0.71963 0.06091 0.70473 0.0
O237 O 0.70703 0.99993 0.67082 0.0
C238 C 0.02667 0.72023 0.65396 0.0
O239 O 0.01421 0.73094 0.66537 0.0
Cd240 Cd 0.96961 0.70801 0.68398 0.0
O241 O 0.01529 0.6954 0.65157 0.0
Cd242 Cd 0.97171 0.65602 0.66672 0.0
C243 C 0.93766 0.67125 0.60907 0.0
O244 O 0.96766 0.67524 0.72158 0.0
O245 O 0.93282 0.64007 0.7059 0.0
O246 O 0.99832 0.63743 0.68445 0.0
C247 C 0.94432 0.65803 0.72879 0.0
O248 O 0.94196 0.68927 0.63121 0.0
C249 C 0.98224 0.61416 0.67503 0.0
O250 O 0.94786 0.6571 0.61374 0.0
O251 O 0.96137 0.61026 0.65997 0.0
H252 H 0.24711 0.33894 0.11929 0.0
H253 H 0.19474 0.35557 0.06254 0.0
H254 H 0.18038 0.33194 0.17348 0.0
H255 H 0.16412 0.35717 0.17554 0.0
H256 H 0.09939 0.35569 0.12419 0.0
H257 H 0.15092 0.34026 0.06215 0.0
C258 C 0.22892 0.33917 0.11867 0.0
C259 C 0.21461 0.33489 0.15003 0.0
C260 C 0.22132 0.34575 0.08697 0.0
C261 C 0.19936 0.3489 0.08674 0.0
C262 C 0.18408 0.34414 0.11791 0.0
C263 C 0.19176 0.33645 0.1492 0.0
C264 C 0.16102 0.34823 0.11863 0.0
C265 C 0.15323 0.35436 0.15124 0.0
C266 C 0.13063 0.35611 0.15329 0.0
C267 C 0.11674 0.35393 0.12244 0.0
C268 C 0.12411 0.34861 0.08964 0.0
C269 C 0.14609 0.34545 0.08754 0.0
H270 H 0.67096 0.91055 0.1187 0.0
H271 H 0.65982 0.84263 0.06339 0.0
H272 H 0.68108 0.85447 0.17536 0.0
H273 H 0.6584 0.81322 0.17937 0.0
H274 H 0.6637 0.75101 0.13209 0.0
H275 H 0.67293 0.81368 0.06585 0.0
C276 C 0.67151 0.89262 0.11879 0.0
C277 C 0.67567 0.88338 0.1507 0.0
C278 C 0.66688 0.87848 0.08712 0.0
C279 C 0.665 0.85393 0.08773 0.0
C280 C 0.66949 0.84428 0.11986 0.0
C281 C 0.67597 0.86008 0.15067 0.0
C282 C 0.667 0.81786 0.12234 0.0
C283 C 0.66202 0.80509 0.15577 0.0
C284 C 0.66175 0.78158 0.15955 0.0
C285 C 0.66497 0.76976 0.12946 0.0
C286 C 0.66834 0.78097 0.09574 0.0
C287 C 0.66963 0.80509 0.0921 0.0
H288 H 0.26502 0.91617 0.12124 0.0
H289 H 0.20321 0.85956 0.05552 0.0
H290 H 0.20138 0.85003 0.17069 0.0
H291 H 0.16004 0.82842 0.16603 0.0
H292 H 0.10148 0.76432 0.10686 0.0
H293 H 0.17291 0.81833 0.05423 0.0
C294 C 0.24618 0.89829 0.11876 0.0
C295 C 0.2335 0.8845 0.14934 0.0
C296 C 0.23568 0.88901 0.08507 0.0
C297 C 0.2113 0.86579 0.08191 0.0
C298 C 0.19768 0.85135 0.11275 0.0
C299 C 0.20991 0.86072 0.14638 0.0
C300 C 0.1708 0.82715 0.11043 0.0
C301 C 0.1543 0.81806 0.14097 0.0
C302 C 0.12961 0.79537 0.13973 0.0
C303 C 0.12045 0.78218 0.10762 0.0
C304 C 0.13565 0.79087 0.07671 0.0
C305 C 0.16107 0.81286 0.07815 0.0
H306 H 0.34109 0.09587 0.89962 0.0
H307 H 0.35937 0.16707 0.95214 0.0
H308 H 0.33644 0.15444 0.84065 0.0
H309 H 0.36014 0.19624 0.83666 0.0
H310 H 0.35544 0.25852 0.88478 0.0
H311 H 0.34414 0.19475 0.9502 0.0
C312 C 0.34246 0.11474 0.89878 0.0
C313 C 0.33848 0.12383 0.86665 0.0
C314 C 0.34921 0.12994 0.92969 0.0
C315 C 0.35293 0.15518 0.9283 0.0
C316 C 0.34855 0.1648 0.89612 0.0
C317 C 0.34089 0.14846 0.86556 0.0
C318 C 0.3519 0.19157 0.89392 0.0
C319 C 0.35709 0.20451 0.86059 0.0
C320 C 0.35757 0.2281 0.8574 0.0
C321 C 0.35491 0.24011 0.88756 0.0
C322 C 0.35049 0.22839 0.92096 0.0
C323 C 0.34873 0.20403 0.92433 0.0
H324 H 0.75304 0.09359 0.86983 0.0
H325 H 0.81588 0.14606 0.93846 0.0
H326 H 0.81828 0.16104 0.82497 0.0
H327 H 0.85998 0.17801 0.83107 0.0
H328 H 0.91483 0.24629 0.88777 0.0
H329 H 0.84437 0.18976 0.94048 0.0
C330 C 0.77223 0.11087 0.87331 0.0
C331 C 0.78517 0.12608 0.84372 0.0
C332 C 0.78287 0.11822 0.90746 0.0
C333 C 0.8076 0.14093 0.91196 0.0
C334 C 0.82141 0.15652 0.88212 0.0
C335 C 0.80924 0.14911 0.84826 0.0
C336 C 0.84824 0.18042 0.8854 0.0
C337 C 0.86517 0.18925 0.85547 0.0
C338 C 0.88872 0.21321 0.85582 0.0
C339 C 0.89696 0.22737 0.88751 0.0
C340 C 0.88156 0.21845 0.91837 0.0
C341 C 0.85683 0.19542 0.91711 0.0
H342 H 0.76647 0.66555 0.88923 0.0
H343 H 0.8301 0.66958 0.94828 0.0
H344 H 0.82478 0.65787 0.83347 0.0
H345 H 0.86536 0.67403 0.83351 0.0
H346 H 0.92264 0.66319 0.88553 0.0
H347 H 0.85876 0.65699 0.94701 0.0
C348 C 0.78471 0.66538 0.88957 0.0
C349 C 0.79507 0.66254 0.85771 0.0
C350 C 0.797 0.66724 0.92206 0.0
C351 C 0.82066 0.66716 0.92281 0.0
C352 C 0.83186 0.66442 0.89078 0.0
C353 C 0.81801 0.66122 0.85851 0.0
C354 C 0.85772 0.66508 0.89036 0.0
C355 C 0.87169 0.66943 0.85794 0.0
C356 C 0.89436 0.66779 0.85603 0.0
C357 C 0.90508 0.66457 0.88712 0.0
C358 C 0.89278 0.6616 0.92 0.0
C359 C 0.86868 0.66095 0.92159 0.0
H360 H 0.91402 0.67214 0.45104 0.0
H361 H 0.86173 0.68852 0.39346 0.0
H362 H 0.84581 0.66297 0.50346 0.0
H363 H 0.8297 0.68832 0.50607 0.0
H364 H 0.76653 0.68922 0.45353 0.0
H365 H 0.81806 0.67344 0.39213 0.0
C366 C 0.89566 0.672 0.4499 0.0
C367 C 0.88065 0.66682 0.4808 0.0
C368 C 0.88856 0.67916 0.41823 0.0
C369 C 0.86619 0.68166 0.4176 0.0
C370 C 0.85039 0.67623 0.44835 0.0
C371 C 0.85763 0.66804 0.47955 0.0
C372 C 0.82741 0.68046 0.44889 0.0
C373 C 0.81928 0.68619 0.48152 0.0
C374 C 0.79694 0.68843 0.48324 0.0
C375 C 0.78372 0.68717 0.45208 0.0
C376 C 0.79145 0.68222 0.41929 0.0
C377 C 0.81305 0.67845 0.41752 0.0
H378 H 0.33966 0.24383 0.45278 0.0
H379 H 0.32676 0.17592 0.39543 0.0
H380 H 0.34926 0.18651 0.50691 0.0
H381 H 0.32391 0.14518 0.51031 0.0
H382 H 0.32814 0.08237 0.46319 0.0
H383 H 0.34022 0.14642 0.39729 0.0
C384 C 0.33997 0.22577 0.45216 0.0
C385 C 0.34431 0.21612 0.48353 0.0
C386 C 0.33475 0.2119 0.42014 0.0
C387 C 0.3324 0.18711 0.4199 0.0
C388 C 0.33692 0.17697 0.45155 0.0
C389 C 0.34414 0.1926 0.48262 0.0
C390 C 0.33346 0.15013 0.45358 0.0
C391 C 0.32758 0.137 0.4868 0.0
C392 C 0.32665 0.11318 0.49053 0.0
C393 C 0.32992 0.10134 0.4605 0.0
C394 C 0.33414 0.11288 0.42685 0.0
C395 C 0.33621 0.13742 0.42334 0.0
H396 H 0.93067 0.25185 0.45833 0.0
H397 H 0.86855 0.19402 0.39438 0.0
H398 H 0.86958 0.18412 0.50909 0.0
H399 H 0.82764 0.16176 0.50512 0.0
H400 H 0.77003 0.09686 0.44573 0.0
H401 H 0.84114 0.15195 0.39354 0.0
C402 C 0.91216 0.23356 0.4564 0.0
C403 C 0.9006 0.21935 0.48721 0.0
C404 C 0.90096 0.22415 0.42305 0.0
C405 C 0.87717 0.20037 0.42049 0.0
C406 C 0.86472 0.18553 0.4515 0.0
C407 C 0.87745 0.19509 0.48477 0.0
C408 C 0.83846 0.16071 0.44956 0.0
C409 C 0.82203 0.1513 0.48011 0.0
C410 C 0.79759 0.12827 0.47874 0.0
C411 C 0.78882 0.11493 0.44663 0.0
C412 C 0.80415 0.12385 0.41588 0.0
C413 C 0.8292 0.14624 0.41738 0.0
H414 H 0.00967 0.43093 0.23561 0.0
H415 H 0.02834 0.50245 0.28751 0.0
H416 H 1.00526 0.48939 0.17606 0.0
H417 H 0.02829 0.53106 0.17151 0.0
H418 H 0.02492 0.59407 0.2196 0.0
H419 H 0.01384 0.53059 0.28545 0.0
C420 C 0.01121 0.44988 0.23458 0.0
C421 C 0.0072 0.45885 0.20235 0.0
C422 C 0.01808 0.46522 0.26535 0.0
C423 C 0.02188 0.4905 0.26375 0.0
C424 C 0.0175 0.50005 0.23145 0.0
C425 C 0.00975 0.48355 0.20103 0.0
C426 C 0.02091 0.52688 0.22903 0.0
C427 C 0.02567 0.53956 0.19552 0.0
C428 C 0.02627 0.56322 0.19223 0.0
C429 C 0.02427 0.57559 0.22244 0.0
C430 C 0.02016 0.56413 0.25596 0.0
C431 C 0.0182 0.53967 0.25946 0.0
H432 H 0.42429 0.42464 0.20621 0.0
H433 H 0.48735 0.48021 0.27194 0.0
H434 H 0.48744 0.4917 0.15771 0.0
H435 H 0.52928 0.51109 0.16255 0.0
H436 H 0.58193 0.58219 0.21539 0.0
H437 H 0.51509 0.52343 0.27231 0.0
C438 C 0.4434 0.44218 0.20873 0.0
C439 C 0.45572 0.45656 0.17832 0.0
C440 C 0.45435 0.45089 0.24248 0.0
C441 C 0.47884 0.47406 0.2457 0.0
C442 C 0.49191 0.48897 0.21505 0.0
C443 C 0.47929 0.48025 0.18162 0.0
C444 C 0.51813 0.51378 0.21709 0.0
C445 C 0.53421 0.5229 0.18639 0.0
C446 C 0.55631 0.54794 0.1851 0.0
C447 C 0.56484 0.56271 0.21627 0.0
C448 C 0.5506 0.55348 0.24806 0.0
C449 C 0.52679 0.52941 0.24823 0.0
H450 H 0.43892 0.00449 0.22043 0.0
H451 H 0.49115 0.98931 0.27994 0.0
H452 H 0.50493 0.00948 0.1675 0.0
H453 H 0.5248 0.9885 0.16636 0.0
H454 H 0.58876 0.99085 0.22079 0.0
H455 H 0.53221 0.9994 0.28137 0.0
C456 C 0.45682 0.00373 0.22148 0.0
C457 C 0.47095 0.00697 0.19032 0.0
C458 C 0.46468 0.99837 0.25386 0.0
C459 C 0.48645 0.99492 0.25492 0.0
C460 C 0.50152 0.99849 0.22373 0.0
C461 C 0.49367 0.0053 0.19178 0.0
C462 C 0.52513 0.99513 0.22383 0.0
C463 C 0.53487 0.99108 0.19132 0.0
C464 C 0.55832 0.99084 0.19017 0.0
C465 C 0.57112 0.99214 0.22174 0.0
C466 C 0.56145 0.99466 0.2545 0.0
C467 C 0.53869 0.99649 0.25572 0.0
H468 H 0.57751 1.00221 0.78289 0.0
H469 H 0.52763 0.02158 0.72486 0.0
H470 H 0.51089 0.99695 0.83519 0.0
H471 H 0.49667 0.024 0.83703 0.0
H472 H 0.43436 0.0264 0.78422 0.0
H473 H 0.48373 0.00717 0.72366 0.0
C474 C 0.55963 1.00301 0.78171 0.0
C475 C 0.5449 0.99882 0.81266 0.0
C476 C 0.55295 0.01032 0.74983 0.0
C477 C 0.53153 0.01433 0.74909 0.0
C478 C 0.51593 0.00981 0.77985 0.0
C479 C 0.5226 1.0013 0.81125 0.0
C480 C 0.49371 0.01519 0.78011 0.0
C481 C 0.48623 0.02191 0.8125 0.0
C482 C 0.46442 0.02505 0.81406 0.0
C483 C 0.45121 0.02378 0.78288 0.0
C484 C 0.45828 0.01776 0.75032 0.0
C485 C 0.47927 0.01305 0.74879 0.0
H486 H 1.00071 0.57492 0.7904 0.0
H487 H 0.99232 0.5092 0.7318 0.0
H488 H 0.01323 0.51934 0.84387 0.0
H489 H 0.9912 0.47815 0.84718 0.0
H490 H 0.99699 0.41693 0.79805 0.0
H491 H 1.00471 0.47966 0.73314 0.0
C492 C 1.00173 0.55724 0.78961 0.0
C493 C 0.00578 0.54743 0.82102 0.0
C494 C 0.99804 0.54409 0.75724 0.0
C495 C 0.9969 0.51986 0.75666 0.0
C496 C 1.00149 0.50976 0.78831 0.0
C497 C 0.00754 0.52494 0.81967 0.0
C498 C 0.99945 0.48348 0.78998 0.0
C499 C 0.99503 0.47053 0.82321 0.0
C500 C 0.99558 0.44744 0.82639 0.0
C501 C 0.99815 0.43566 0.79581 0.0
C502 C 1.00074 0.44685 0.76223 0.0
C503 C 1.00187 0.47097 0.75925 0.0
H504 H 0.59483 0.58463 0.78777 0.0
H505 H 0.53278 0.52605 0.72447 0.0
H506 H 0.53326 0.51844 0.83985 0.0
H507 H 0.49215 0.49439 0.83662 0.0
H508 H 0.43373 0.42938 0.77858 0.0
H509 H 0.5031 0.48518 0.7238 0.0
C510 C 0.5762 0.56644 0.78598 0.0
C511 C 0.56422 0.55303 0.81708 0.0
C512 C 0.56528 0.5564 0.7527 0.0
C513 C 0.54119 0.53279 0.75058 0.0
C514 C 0.52839 0.51859 0.78193 0.0
C515 C 0.54105 0.5288 0.81513 0.0
C516 C 0.50198 0.49371 0.78044 0.0
C517 C 0.48624 0.48402 0.81159 0.0
C518 C 0.46209 0.46064 0.81107 0.0
C519 C 0.45246 0.44753 0.77899 0.0
C520 C 0.46688 0.45681 0.74755 0.0
C521 C 0.49191 0.47933 0.74827 0.0
H522 H 0.67915 0.76433 0.56782 0.0
H523 H 0.69569 0.83474 0.62117 0.0
H524 H 0.67341 0.82246 0.50937 0.0
H525 H 0.69583 0.86428 0.50569 0.0
H526 H 0.68955 0.92542 0.55479 0.0
H527 H 0.6805 0.86226 0.61954 0.0
C528 C 0.68031 0.78311 0.56712 0.0
C529 C 0.67608 0.79214 0.53511 0.0
C530 C 0.68662 0.79807 0.5982 0.0
C531 C 0.68974 0.8231 0.59711 0.0
C532 C 0.68528 0.83276 0.56495 0.0
C533 C 0.67804 0.81659 0.53422 0.0
C534 C 0.68785 0.85927 0.56301 0.0
C535 C 0.6925 0.87224 0.52972 0.0
C536 C 0.69212 0.89546 0.52672 0.0
C537 C 0.68927 0.90711 0.55718 0.0
C538 C 0.68556 0.89551 0.59055 0.0
C539 C 0.68454 0.87146 0.59364 0.0
H540 H 0.08818 0.75992 0.53461 0.0
H541 H 0.15161 0.81154 0.60309 0.0
H542 H 0.15371 0.82726 0.48995 0.0
H543 H 0.19545 0.84388 0.49604 0.0
H544 H 0.24984 0.91239 0.55277 0.0
H545 H 0.17963 0.85534 0.60543 0.0
C546 C 0.1075 0.77701 0.53806 0.0
C547 C 0.12042 0.79236 0.50855 0.0
C548 C 0.11833 0.78412 0.57218 0.0
C549 C 0.14319 0.8066 0.57665 0.0
C550 C 0.15691 0.82231 0.54693 0.0
C551 C 0.14464 0.8152 0.51313 0.0
C552 C 0.18369 0.84615 0.55036 0.0
C553 C 0.2006 0.85509 0.52047 0.0
C554 C 0.22394 0.87921 0.52082 0.0
C555 C 0.23213 0.89333 0.55254 0.0
C556 C 0.21675 0.88425 0.58341 0.0
C557 C 0.19214 0.8611 0.5821 0.0
H558 H 0.10146 0.33477 0.55721 0.0
H559 H 0.16461 0.33738 0.61588 0.0
H560 H 0.15912 0.32632 0.50099 0.0
H561 H 0.19982 0.34243 0.50102 0.0
H562 H 0.25623 0.32988 0.55237 0.0
H563 H 0.1923 0.32344 0.61394 0.0
C564 C 0.11959 0.3344 0.55747 0.0
C565 C 0.12978 0.33146 0.52551 0.0
C566 C 0.13178 0.33588 0.58993 0.0
C567 C 0.15522 0.33532 0.59047 0.0
C568 C 0.16624 0.33253 0.55829 0.0
C569 C 0.15248 0.32972 0.52611 0.0
C570 C 0.19185 0.33271 0.55765 0.0
C571 C 0.20594 0.33737 0.52526 0.0
C572 C 0.22845 0.33545 0.52317 0.0
C573 C 0.23882 0.33151 0.55408 0.0
C574 C 0.2263 0.32805 0.58688 0.0
C575 C 0.2024 0.32778 0.58863 0.0
C576 C 0.01813 0.43727 0.11203 0.0
C577 C 0.99918 0.41045 0.11127 0.0
C578 C 0.01961 0.45316 0.14068 0.0
C579 C 1.00233 0.44282 0.16977 0.0
H580 H 0.03228 0.44604 0.09063 0.0
H581 H 0.0351 0.47345 0.14075 0.0
S582 S 0.94791 0.37451 0.17989 0.0
N583 N 0.96173 0.37471 0.14149 0.0
N584 N 0.9647 0.40464 0.19528 0.0
C585 C 0.98272 0.41632 0.16885 0.0
C586 C 0.98109 0.40014 0.13963 0.0
C587 C 0.60768 0.58863 0.1155 0.0
C588 C 0.5925 0.58963 0.08736 0.0
C589 C 0.59588 0.5743 0.14654 0.0
C590 C 0.56847 0.56021 0.1505 0.0
H591 H 0.62889 0.59947 0.11397 0.0
H592 H 0.60832 0.57459 0.16788 0.0
S593 S 0.51968 0.55552 0.08453 0.0
N594 N 0.54834 0.57432 0.06524 0.0
N595 N 0.52639 0.54782 0.1237 0.0
C596 C 0.55302 0.56044 0.12229 0.0
C597 C 0.56497 0.57506 0.09074 0.0
C598 C 0.44209 0.99071 0.09751 0.0
C599 C 0.43183 0.00732 0.09319 0.0
C600 C 0.45599 0.99174 0.1282 0.0
C601 C 0.4602 0.00941 0.15583 0.0
H602 H 0.43885 0.97626 0.07745 0.0
H603 H 0.46251 0.97782 0.13096 0.0
S604 S 0.44028 0.05919 0.15643 0.0
N605 N 0.42885 0.04351 0.11835 0.0
N606 N 0.45512 0.04539 0.1759 0.0
C607 C 0.45117 0.02694 0.15131 0.0
C608 C 0.43696 0.02591 0.12007 0.0
C609 C 0.41357 0.00758 0.8858 0.0
C610 C 0.42652 0.02734 0.91143 0.0
C611 C 0.42637 0.0069 0.85496 0.0
C612 C 0.45263 0.02593 0.84837 0.0
H613 H 0.39326 0.99248 0.88937 0.0
H614 H 0.41551 0.99137 0.83588 0.0
S615 S 0.49575 0.08152 0.90691 0.0
N616 N 0.46745 0.06626 0.92841 0.0
N617 N 0.49149 0.06484 0.86978 0.0
C618 C 0.4661 0.04557 0.87381 0.0
C619 C 0.45301 0.04636 0.90545 0.0
C620 C 0.96874 0.41617 0.91661 0.0
C621 C 0.98639 0.40817 0.92726 0.0
C622 C 0.97212 0.42944 0.88438 0.0
C623 C 0.99323 0.43514 0.86159 0.0
H624 H 0.95191 0.41184 0.93298 0.0
H625 H 0.95776 0.43468 0.87685 0.0
S626 S 0.04631 0.42078 0.87805 0.0
N627 N 0.02674 0.40852 0.91294 0.0
N628 N 0.03299 0.43352 0.85266 0.0
C629 C 0.01142 0.42799 0.87226 0.0
C630 C 0.00803 0.4145 0.90499 0.0
C631 C 0.60514 0.56989 0.90086 0.0
C632 C 0.60944 0.59487 0.90918 0.0
C633 C 0.58895 0.55538 0.87227 0.0
C634 C 0.57651 0.5654 0.85131 0.0
H635 H 0.61491 0.56178 0.91584 0.0
H636 H 0.5871 0.53682 0.86553 0.0
S637 S 0.57905 0.62834 0.86371 0.0
N638 N 0.59817 0.62795 0.89532 0.0
N639 N 0.56788 0.60059 0.84189 0.0
C640 C 0.57963 0.58968 0.86029 0.0
C641 C 0.59608 0.60446 0.88914 0.0
C642 C 0.01979 0.59814 0.89246 0.0
C643 C 1.00291 0.58316 0.92043 0.0
C644 C 0.02114 0.58647 0.86067 0.0
C645 C 0.0058 0.55937 0.85573 0.0
H646 H 0.03189 0.61913 0.89486 0.0
H647 H 0.03416 0.59875 0.8397 0.0
S648 S 0.9584 0.51118 0.92022 0.0
N649 N 0.97065 0.5395 0.94087 0.0
N650 N 0.97303 0.5178 0.88098 0.0
C651 C 0.98908 0.54409 0.8835 0.0
C652 C 0.98766 0.55591 0.91584 0.0
C653 C 0.40453 0.42428 0.87365 0.0
C654 C 0.415 0.41607 0.90086 0.0
C655 C 0.42027 0.44003 0.84569 0.0
C656 C 0.44712 0.4484 0.84405 0.0
H657 H 0.38384 0.41796 0.87337 0.0
H658 H 0.41121 0.44509 0.82457 0.0
S659 S 0.48463 0.43379 0.90945 0.0
N660 N 0.45436 0.41866 0.92518 0.0
N661 N 0.48382 0.44826 0.8724 0.0
C662 C 0.45812 0.44127 0.8717 0.0
C663 C 0.44208 0.42506 0.90012 0.0
C664 C 0.57322 0.01408 0.90583 0.0
C665 C 0.58449 0.99827 0.90938 0.0
C666 C 0.55898 0.01286 0.87542 0.0
C667 C 0.55536 0.99581 0.84719 0.0
H668 H 0.576 0.02815 0.92624 0.0
H669 H 0.55188 0.02636 0.87328 0.0
S670 S 0.57782 0.94795 0.84457 0.0
N671 N 0.58893 0.9633 0.88295 0.0
N672 N 0.56198 0.96101 0.82591 0.0
C673 C 0.56525 0.9789 0.85105 0.0
C674 C 0.57982 0.98011 0.88207 0.0
C675 C 0.57033 0.96865 0.10086 0.0
C676 C 0.59638 0.98811 0.09317 0.0
C677 C 0.55763 0.96993 0.1318 0.0
C678 C 0.57065 0.99061 0.15603 0.0
H679 H 0.55974 0.9522 0.08307 0.0
H680 H 0.53779 0.95436 0.13725 0.0
S681 S 0.63811 0.04727 0.14758 0.0
N682 N 0.63422 0.0293 0.11198 0.0
N683 N 0.61022 0.03155 0.16977 0.0
C684 C 0.59637 0.01045 0.14831 0.0
C685 C 0.60928 0.00923 0.11698 0.0
C686 C 0.04774 0.60336 0.10772 0.0
C687 C 0.02497 0.60397 0.0986 0.0
C688 C 0.04787 0.58867 0.13691 0.0
C689 C 0.02513 0.5739 0.15736 0.0
H690 H 0.06581 0.61503 0.09306 0.0
H691 H 0.06603 0.58975 0.14443 0.0
S692 S 0.95992 0.56662 0.1428 0.0
N693 N 0.97866 0.58687 0.11126 0.0
N694 N 0.97904 0.55919 0.16553 0.0
C695 C 1.00202 0.57328 0.14749 0.0
C696 C 1.00189 0.58835 0.11825 0.0
C697 C 0.42269 0.45229 0.09014 0.0
C698 C 0.41371 0.42642 0.07926 0.0
C699 C 0.43712 0.46232 0.12162 0.0
C700 C 0.44306 0.44684 0.14329 0.0
H701 H 0.41813 0.46478 0.07464 0.0
H702 H 0.44295 0.48204 0.12963 0.0
S703 S 0.42678 0.379 0.12532 0.0
N704 N 0.41367 0.38624 0.09176 0.0
N705 N 0.44082 0.40529 0.15072 0.0
C706 C 0.4351 0.42136 0.13219 0.0
C707 C 0.42042 0.41109 0.10025 0.0
C708 C 0.68692 0.77113 0.44433 0.0
C709 C 0.66815 0.74426 0.4435 0.0
C710 C 0.68838 0.78686 0.47317 0.0
C711 C 0.67126 0.77629 0.50238 0.0
H712 H 0.70094 0.78008 0.42281 0.0
H713 H 0.70373 0.80721 0.4733 0.0
S714 S 0.61732 0.70775 0.51242 0.0
N715 N 0.63103 0.70822 0.47382 0.0
N716 N 0.63396 0.73786 0.52795 0.0
C717 C 0.65183 0.74974 0.50141 0.0
C718 C 0.65023 0.73372 0.47201 0.0
C719 C 0.2348 0.90787 0.42835 0.0
C720 C 0.26229 0.9218 0.42472 0.0
C721 C 0.22263 0.89312 0.4588 0.0
C722 C 0.23741 0.89169 0.48699 0.0
H723 H 0.22243 0.90864 0.40776 0.0
H724 H 0.20148 0.8836 0.46085 0.0
S725 S 0.30974 0.92257 0.49007 0.0
N726 N 0.3039 0.93189 0.45147 0.0
N727 N 0.28077 0.90396 0.50874 0.0
C728 C 0.26481 0.90471 0.48341 0.0
C729 C 0.2773 0.91977 0.45229 0.0
C730 C 0.09687 0.3497 0.45401 0.0
C731 C 0.0894 0.32991 0.4283 0.0
C732 C 0.11022 0.35016 0.48496 0.0
C733 C 0.11665 0.33085 0.49158 0.0
H734 H 0.09245 0.36509 0.45028 0.0
H735 H 0.11561 0.36585 0.50391 0.0
S736 S 0.10112 0.27431 0.43362 0.0
N737 N 0.08935 0.29022 0.41195 0.0
N738 N 0.11418 0.29109 0.47051 0.0
C739 C 0.10944 0.31097 0.46624 0.0
C740 C 0.09586 0.31048 0.43456 0.0
C741 C 0.08031 0.33815 0.22572 0.0
C742 C 0.09248 0.35916 0.24974 0.0
C743 C 0.09335 0.33707 0.1954 0.0
C744 C 0.11908 0.35695 0.18776 0.0
H745 H 0.06036 0.32242 0.23007 0.0
H746 H 0.08302 0.3207 0.17735 0.0
S747 S 0.16026 0.41575 0.24225 0.0
N748 N 0.13225 0.40002 0.26434 0.0
N749 N 0.15674 0.39787 0.20664 0.0
C750 C 0.1319 0.37774 0.21179 0.0
C751 C 0.11857 0.37891 0.24293 0.0
C752 C 0.67248 0.74801 0.23784 0.0
C753 C 0.65135 0.74227 0.26077 0.0
C754 C 0.67586 0.76111 0.2056 0.0
C755 C 0.65829 0.76908 0.19488 0.0
H756 H 0.68657 0.74224 0.24467 0.0
H757 H 0.69238 0.76499 0.18879 0.0
S758 S 0.59957 0.75878 0.24453 0.0
N759 N 0.61251 0.74579 0.2702 0.0
N760 N 0.61888 0.77018 0.20926 0.0
C761 C 0.63723 0.76378 0.21751 0.0
C762 C 0.63374 0.75042 0.25048 0.0
C763 C 0.26585 0.9351 0.22134 0.0
C764 C 0.27655 0.92414 0.24402 0.0
C765 C 0.2506 0.92136 0.19198 0.0
C766 C 0.24539 0.89611 0.1841 0.0
H767 H 0.26964 0.9547 0.22581 0.0
H768 H 0.24348 0.9309 0.17456 0.0
S769 S 0.26753 0.85792 0.23559 0.0
N770 N 0.27981 0.88587 0.25734 0.0
N771 N 0.25114 0.86015 0.20156 0.0
C772 C 0.25504 0.88442 0.20707 0.0
C773 C 0.27067 0.89844 0.23715 0.0
C774 C 0.65853 0.89383 0.2441 0.0
C775 C 0.67418 0.92099 0.24897 0.0
C776 C 0.65983 0.88187 0.21268 0.0
C777 C 0.67679 0.89654 0.18477 0.0
H778 H 0.64487 0.8816 0.26454 0.0
H779 H 0.64689 0.861 0.20983 0.0
S780 S 0.72313 0.96791 0.18443 0.0
N781 N 0.7081 0.9621 0.22336 0.0
N782 N 0.71049 0.93934 0.16433 0.0
C783 C 0.69298 0.92357 0.18937 0.0
C784 C 0.69172 0.93585 0.22145 0.0
C785 C 0.10771 0.75954 0.22742 0.0
C786 C 0.08079 0.75121 0.2284 0.0
C787 C 0.12392 0.77551 0.19986 0.0
C788 C 0.11375 0.7836 0.17223 0.0
H789 H 0.11629 0.75324 0.24766 0.0
H790 H 0.14424 0.78048 0.19922 0.0
S791 S 0.04538 0.7693 0.16368 0.0
N792 N 0.0452 0.7539 0.20031 0.0
N793 N 0.07578 0.78378 0.14853 0.0
C794 C 0.08722 0.7764 0.17362 0.0
C795 C 0.07071 0.76023 0.20167 0.0
C796 C 0.24429 0.3516 0.2424 0.0
C797 C 0.25604 0.33622 0.24587 0.0
C798 C 0.22953 0.34982 0.21229 0.0
C799 C 0.22588 0.3326 0.18426 0.0
H800 H 0.24699 0.36572 0.26271 0.0
H801 H 0.22199 0.36295 0.21022 0.0
S802 S 0.24975 0.28588 0.18139 0.0
N803 N 0.26107 0.30159 0.21948 0.0
N804 N 0.23319 0.29825 0.16298 0.0
C805 C 0.23637 0.31619 0.18798 0.0
C806 C 0.25144 0.31797 0.21871 0.0
C807 C 0.2796 0.34817 0.4532 0.0
C808 C 0.26523 0.32891 0.42741 0.0
C809 C 0.26734 0.3511 0.48329 0.0
C810 C 0.2402 0.33508 0.48852 0.0
H811 H 0.30064 0.36074 0.45063 0.0
H812 H 0.27925 0.36558 0.5031 0.0
S813 S 0.19335 0.28263 0.42831 0.0
N814 N 0.22209 0.29426 0.40846 0.0
N815 N 0.19909 0.29986 0.46523 0.0
C816 C 0.2254 0.31637 0.46245 0.0
C817 C 0.23791 0.31321 0.43187 0.0
C818 C 0.67195 0.92519 0.45417 0.0
C819 C 0.69389 0.93672 0.4314 0.0
C820 C 0.67113 0.91065 0.48376 0.0
C821 C 0.69221 0.90704 0.49191 0.0
H822 H 0.65535 0.92774 0.44953 0.0
H823 H 0.65413 0.90277 0.50112 0.0
S824 S 0.75369 0.93185 0.44025 0.0
N825 N 0.73683 0.94247 0.41822 0.0
N826 N 0.73519 0.91514 0.4745 0.0
C827 C 0.71387 0.91753 0.46886 0.0
C828 C 0.71476 0.93241 0.43847 0.0
C829 C 0.08567 0.74901 0.42952 0.0
C830 C 0.08032 0.76488 0.40755 0.0
C831 C 0.09927 0.75839 0.46156 0.0
C832 C 0.10812 0.78401 0.473 0.0
H833 H 0.07914 0.72903 0.42215 0.0
H834 H 0.10268 0.74536 0.47775 0.0
S835 S 0.09961 0.83374 0.42572 0.0
N836 N 0.08546 0.80785 0.39954 0.0
N837 N 0.11087 0.82527 0.46022 0.0
C838 C 0.10345 0.80034 0.45122 0.0
C839 C 0.08956 0.79081 0.41842 0.0
C840 C 0.3502 0.10324 0.77613 0.0
C841 C 0.33156 0.07636 0.77505 0.0
C842 C 0.35131 0.11882 0.80495 0.0
C843 C 0.33394 0.10808 0.83389 0.0
H844 H 0.36442 0.11232 0.75486 0.0
H845 H 0.3666 0.13919 0.8053 0.0
S846 S 0.28015 0.03941 0.84312 0.0
N847 N 0.29425 0.04009 0.80477 0.0
N848 N 0.29651 0.06946 0.85888 0.0
C849 C 0.31461 0.08151 0.83263 0.0
C850 C 0.31337 0.06563 0.80325 0.0
C851 C 0.90088 0.24176 0.76308 0.0
C852 C 0.92842 0.25548 0.75999 0.0
C853 C 0.88826 0.22707 0.79342 0.0
C854 C 0.90261 0.22546 0.82206 0.0
H855 H 0.88882 0.2427 0.74218 0.0
H856 H 0.86711 0.21776 0.79504 0.0
S857 S 0.97483 0.25556 0.82652 0.0
N858 N 0.96957 0.26503 0.78766 0.0
N859 N 0.94562 0.23721 0.8447 0.0
C860 C 0.93004 0.23819 0.81897 0.0
C861 C 0.94299 0.2532 0.78796 0.0
C862 C 0.76186 0.68015 0.7858 0.0
C863 C 0.75489 0.66051 0.75997 0.0
C864 C 0.77512 0.68075 0.81692 0.0
C865 C 0.78195 0.66173 0.82365 0.0
H866 H 0.75714 0.69532 0.782 0.0
H867 H 0.78014 0.69632 0.83593 0.0
S868 S 0.76775 0.60565 0.76548 0.0
N869 N 0.75572 0.62127 0.74365 0.0
N870 N 0.78034 0.62237 0.80254 0.0
C871 C 0.77521 0.64199 0.79821 0.0
C872 C 0.76173 0.64136 0.76635 0.0
C873 C 0.74569 0.6702 0.55458 0.0
C874 C 0.75824 0.69014 0.58008 0.0
C875 C 0.75879 0.6696 0.52402 0.0
C876 C 0.78498 0.6889 0.51759 0.0
H877 H 0.72542 0.65493 0.55799 0.0
H878 H 0.7482 0.65399 0.50495 0.0
S879 S 0.82719 0.74495 0.57603 0.0
N880 N 0.79879 0.72942 0.59724 0.0
N881 N 0.82339 0.72819 0.53912 0.0
C882 C 0.79811 0.70865 0.54301 0.0
C883 C 0.78471 0.70934 0.57438 0.0
C884 C 0.33654 0.07911 0.56891 0.0
C885 C 0.31541 0.0736 0.59173 0.0
C886 C 0.34015 0.09227 0.53667 0.0
C887 C 0.32284 0.10052 0.52581 0.0
H888 H 0.35045 0.07315 0.57583 0.0
H889 H 0.35667 0.09599 0.51999 0.0
S890 S 0.2643 0.09098 0.57517 0.0
N891 N 0.27687 0.07767 0.60094 0.0
N892 N 0.28371 0.1022 0.53997 0.0
C893 C 0.30179 0.09546 0.54832 0.0
C894 C 0.29804 0.08203 0.5813 0.0
C895 C 0.93345 0.26974 0.55934 0.0
C896 C 0.94533 0.25928 0.58074 0.0
C897 C 0.91773 0.25588 0.53038 0.0
C898 C 0.91318 0.23098 0.52165 0.0
H899 H 0.93666 0.28905 0.5645 0.0
H900 H 0.90969 0.26506 0.51395 0.0
S901 S 0.93849 0.19412 0.56969 0.0
N902 N 0.95046 0.22185 0.59193 0.0
N903 N 0.92087 0.19588 0.53694 0.0
C904 C 0.92404 0.21977 0.54336 0.0
C905 C 0.94017 0.23393 0.57301 0.0
C906 C 0.32679 0.22552 0.57716 0.0
C907 C 0.34198 0.25269 0.5823 0.0
C908 C 0.32856 0.21387 0.54572 0.0
C909 C 0.34556 0.22887 0.51804 0.0
H910 H 0.31298 0.21304 0.5973 0.0
H911 H 0.31578 0.193 0.54257 0.0
S912 S 0.39128 0.30037 0.5188 0.0
N913 N 0.37586 0.29413 0.55748 0.0
N914 N 0.37915 0.27196 0.49837 0.0
C915 C 0.36152 0.25589 0.52308 0.0
C916 C 0.35976 0.26786 0.5552 0.0
C917 C 0.77471 0.09167 0.56567 0.0
C918 C 0.74775 0.08325 0.56599 0.0
C919 C 0.79129 0.10801 0.53866 0.0
C920 C 0.78147 0.1164 0.51097 0.0
H921 H 0.78301 0.08512 0.58596 0.0
H922 H 0.81162 0.113 0.53843 0.0
S923 S 0.7132 0.1021 0.50089 0.0
N924 N 0.71253 0.08625 0.53729 0.0
N925 N 0.74381 0.11682 0.48654 0.0
C926 C 0.75492 0.10917 0.51177 0.0
C927 C 0.73802 0.09262 0.53925 0.0
C928 C 0.90879 0.68246 0.57403 0.0
C929 C 0.92087 0.66738 0.57745 0.0
C930 C 0.89439 0.68087 0.54362 0.0
C931 C 0.89144 0.66416 0.51524 0.0
H932 H 0.911 0.69623 0.5946 0.0
H933 H 0.8866 0.6938 0.54162 0.0
S934 S 0.91631 0.61825 0.51209 0.0
N935 N 0.92689 0.63347 0.55066 0.0
N936 N 0.89969 0.63051 0.49355 0.0
C937 C 0.9022 0.64798 0.5189 0.0
C938 C 0.9169 0.64956 0.54996 0.0
C939 C 0.9451 0.68031 0.78546 0.0
C940 C 0.93059 0.66095 0.75984 0.0
C941 C 0.93303 0.68324 0.81576 0.0
C942 C 0.90596 0.6671 0.8214 0.0
H943 H 0.9661 0.69302 0.78253 0.0
H944 H 0.94504 0.69788 0.83534 0.0
S945 S 0.85883 0.61419 0.76196 0.0
N946 N 0.88741 0.62596 0.74162 0.0
N947 N 0.86477 0.63153 0.7988 0.0
C948 C 0.89103 0.6482 0.79559 0.0
C949 C 0.90334 0.64506 0.76478 0.0
C950 C 0.38034 0.26932 0.77396 0.0
C951 C 0.35737 0.26905 0.76342 0.0
C952 C 0.3802 0.25464 0.80331 0.0
C953 C 0.35701 0.23903 0.8225 0.0
H954 H 0.39872 0.28167 0.76031 0.0
H955 H 0.39844 0.25635 0.81193 0.0
S956 S 0.29127 0.22935 0.80406 0.0
N957 N 0.31047 0.25024 0.77339 0.0
N958 N 0.3104 0.22265 0.82808 0.0
C959 C 0.33377 0.23757 0.81126 0.0
C960 C 0.33388 0.25259 0.78181 0.0
C961 C 0.75089 0.08167 0.76544 0.0
C962 C 0.74502 0.09698 0.74312 0.0
C963 C 0.76461 0.09162 0.79728 0.0
C964 C 0.77304 0.11728 0.80817 0.0
H965 H 0.7447 0.06169 0.75851 0.0
H966 H 0.76839 0.07899 0.8138 0.0
S967 S 0.76319 0.16573 0.75972 0.0
N968 N 0.74929 0.13951 0.73412 0.0
N969 N 0.77491 0.15799 0.79444 0.0
C970 C 0.76788 0.13307 0.786 0.0
C971 C 0.75388 0.12296 0.7534 0.0
C972 C 0.0603 0.32582 0.04579 0.0
C973 C 0.06423 0.34918 0.0308 0.0
C974 C 0.08134 0.32406 0.05955 0.0
C975 C 0.10701 0.34569 0.05922 0.0
H976 H 0.04063 0.30938 0.0494 0.0
H977 H 0.07705 0.30672 0.07436 0.0
S978 S 0.12855 0.4096 0.01712 0.0
N979 N 0.09647 0.393 0.01119 0.0
N980 N 0.13577 0.38975 0.03819 0.0
C981 C 0.11161 0.36803 0.04062 0.0
C982 C 0.09024 0.36981 0.02621 0.0
C983 C 0.63831 0.73052 0.0243 0.0
C984 C 0.65451 0.71951 0.02473 0.0
C985 C 0.64471 0.75297 0.04408 0.0
C986 C 0.66753 0.7652 0.06486 0.0
H987 H 0.61964 0.7208 0.01059 0.0
H988 H 0.63055 0.75934 0.04574 0.0
S989 S 0.71924 0.74784 0.06944 0.0
N990 N 0.69663 0.72541 0.04322 0.0
N991 N 0.70826 0.76741 0.08068 0.0
C992 C 0.68522 0.75617 0.06253 0.0
C993 C 0.67881 0.73335 0.0424 0.0
C994 C 0.28625 0.94701 0.03517 0.0
C995 C 0.30128 0.93723 0.01992 0.0
C996 C 0.26228 0.9304 0.05202 0.0
C997 C 0.25249 0.90341 0.05433 0.0
H998 H 0.2938 0.96781 0.03633 0.0
H999 H 0.25265 0.939 0.06644 0.0
S1000 S 0.28113 0.8672 0.01242 0.0
N1001 N 0.30211 0.89807 0.00294 0.0
N1002 N 0.25731 0.86714 0.03545 0.0
C1003 C 0.26564 0.89303 0.0357 0.0
C1004 C 0.29006 0.90988 0.01839 0.0
C1005 C 0.38378 0.10785 0.99033 0.0
C1006 C 0.363 0.08289 -0.00036 0.0
C1007 C 0.37901 0.12541 0.97158 0.0
C1008 C 0.35335 0.1186 0.9622 0.0
H1009 H 0.40392 0.11277 -0.00593 0.0
H1010 H 0.39556 0.14307 0.96104 0.0
S1011 S 0.29211 0.05841 0.98787 0.0
N1012 N 0.31575 0.05432 0.00374 0.0
N1013 N 0.3069 0.08748 0.96897 0.0
C1014 C 0.3324 0.09528 0.97563 0.0
C1015 C 0.3372 0.07731 -0.00578 0.0
C1016 C 0.89246 0.27199 0.98183 0.0
C1017 C 0.91851 0.28135 -0.00707 0.0
C1018 C 0.87909 0.2495 0.96063 0.0
C1019 C 0.89124 0.23554 0.95012 0.0
H1020 H 0.88296 0.28308 0.98734 0.0
H1021 H 0.86004 0.24429 0.95 0.0
S1022 S 0.95687 0.24862 0.97761 0.0
N1023 N 0.95426 0.2724 -0.00394 0.0
N1024 N 0.92904 0.23028 0.95622 0.0
C1025 C 0.91614 0.24315 0.96391 0.0
C1026 C 0.92981 0.26603 0.9853 0.0
C1027 C 0.74333 0.64082 0.98879 0.0
C1028 C 0.73771 0.66112 0.99005 0.0
C1029 C 0.76573 0.64417 0.97102 0.0
C1030 C 0.78321 0.66795 0.95443 0.0
H1031 H 0.72908 0.6215 -0.0018 0.0
H1032 H 0.76773 0.62726 0.96671 0.0
S1033 S 0.7809 0.72883 0.95812 0.0
N1034 N 0.75417 0.70719 0.97942 0.0
N1035 N 0.79615 0.71327 0.94601 0.0
C1036 C 0.77971 0.68928 0.9599 0.0
C1037 C 0.7569 0.68589 0.9777 0.0
C1038 C 0.94715 0.66779 0.97761 0.0
C1039 C 0.9367 0.64221 0.9905 0.0
C1040 C 0.93164 0.67503 0.95838 0.0
C1041 C 0.90511 0.65699 0.95119 0.0
H1042 H 0.96784 0.68194 0.98048 0.0
H1043 H 0.941 0.69426 0.94644 0.0
S1044 S 0.86701 0.58902 0.98375 0.0
N1045 N 0.89698 0.59986 -0.00115 0.0
N1046 N 0.86819 0.61362 0.96191 0.0
C1047 C 0.89374 0.63224 0.96679 0.0
C1048 C 0.90947 0.62479 0.9866 0.0
C1049 C 0.32678 0.26866 0.96361 0.0
C1050 C 0.34991 0.2883 0.97968 0.0
C1051 C 0.32533 0.24613 0.94962 0.0
C1052 C 0.34707 0.24261 0.95082 0.0
H1053 H 0.31039 0.2716 0.95931 0.0
H1054 H 0.30825 0.23291 0.93406 0.0
S1055 S 0.41024 0.28555 -0.00407 0.0
N1056 N 0.39344 0.30054 0.00126 0.0
N1057 N 0.39079 0.25844 0.97383 0.0
C1058 C 0.36906 0.26047 0.97049 0.0
C1059 C 0.37051 0.28334 0.98514 0.0
C1060 C 0.73086 0.05907 0.95471 0.0
C1061 C 0.71777 0.06941 0.97395 0.0
C1062 C 0.75444 0.07543 0.93681 0.0
C1063 C 0.76583 0.10272 0.9375 0.0
H1064 H 0.72201 0.03819 0.95136 0.0
H1065 H 0.76257 0.06662 0.91966 0.0
S1066 S 0.74261 0.13986 0.98982 0.0
N1067 N 0.72054 0.10899 -0.00256 0.0
N1068 N 0.76457 0.13948 0.96303 0.0
C1069 C 0.75461 0.11337 0.95972 0.0
C1070 C 0.73059 0.09678 0.97804 0.0
C1071 C 0.67932 0.93129 0.02291 0.0
C1072 C 0.6537 0.9247 0.01341 0.0
C1073 C 0.68392 0.91428 0.04308 0.0
C1074 C 0.66308 0.89008 0.05454 0.0
H1075 H 0.69575 0.95055 0.01717 0.0
H1076 H 0.70361 0.92114 0.0527 0.0
S1077 S 0.59299 0.86164 0.03187 0.0
N1078 N 0.60764 0.89063 0.01273 0.0
N1079 N 0.61646 0.85889 0.05128 0.0
C1080 C 0.63779 0.88205 0.04206 0.0
C1081 C 0.63305 0.89932 0.02126 0.0
C1082 C 0.08111 0.74825 0.01662 0.0
C1083 C 0.08582 0.72762 0.01137 0.0
C1084 C 0.10002 0.77162 0.0325 0.0
C1085 C 0.12401 0.77487 0.0444 0.0
H1086 H 0.0619 0.74551 0.01126 0.0
H1087 H 0.09453 0.78585 0.03963 0.0
S1088 S 0.14785 0.72889 0.03053 0.0
N1089 N 0.11799 0.71375 0.01352 0.0
N1090 N 0.15312 0.75744 0.04475 0.0
C1091 C 0.13023 0.75581 0.03521 0.0
C1092 C 0.11113 0.73212 0.01843 0.0
C1093 C 0.27629 0.38617 0.0234 0.0
C1094 C 0.28485 0.36875 0.01394 0.0
C1095 C 0.25367 0.37794 0.04414 0.0
C1096 C 0.23882 0.35202 0.05583 0.0
H1097 H 0.28808 0.4067 0.01698 0.0
H1098 H 0.24904 0.39236 0.0535 0.0
S1099 S 0.24948 0.29764 0.03246 0.0
N1100 N 0.27413 0.32347 0.01334 0.0
N1101 N 0.23174 0.30823 0.05239 0.0
C1102 C 0.24559 0.33392 0.0436 0.0
C1103 C 0.26859 0.34223 0.02263 0.0
C1104 C 0.75738 0.70403 0.35829 0.0
C1105 C 0.73161 0.68255 0.36024 0.0
C1106 C 0.77856 0.70266 0.37255 0.0
C1107 C 0.7747 0.67967 0.38863 0.0
H1108 H 0.7609 0.72274 0.34893 0.0
H1109 H 0.79743 0.72046 0.37462 0.0
S1110 S 0.71231 0.61647 0.39307 0.0
N1111 N 0.70432 0.6364 0.37392 0.0
N1112 N 0.7442 0.63394 0.40036 0.0
C1113 C 0.74973 0.65724 0.38642 0.0
C1114 C 0.72811 0.65867 0.37244 0.0
C1115 C 0.34395 0.06391 0.37714 0.0
C1116 C 0.32093 0.05115 0.35655 0.0
C1117 C 0.35023 0.08647 0.39659 0.0
C1118 C 0.33381 0.09715 0.39605 0.0
H1119 H 0.35621 0.05543 0.38048 0.0
H1120 H 0.36674 0.09425 0.41469 0.0
S1121 S 0.27457 0.07477 0.34055 0.0
N1122 N 0.28422 0.05372 0.33201 0.0
N1123 N 0.29601 0.09587 0.36922 0.0
C1124 C 0.31253 0.08645 0.37249 0.0
C1125 C 0.30604 0.06345 0.35264 0.0
C1126 C 0.95277 0.24509 0.3536 0.0
C1127 C 0.96368 0.27239 0.3539 0.0
C1128 C 0.92962 0.22856 0.37229 0.0
C1129 C 0.91658 0.23877 0.39168 0.0
H1130 H 0.96319 0.23651 0.34131 0.0
H1131 H 0.92347 0.2081 0.37458 0.0
S1132 S 0.93309 0.30766 0.39391 0.0
N1133 N 0.95667 0.30809 0.36976 0.0
N1134 N 0.91328 0.27686 0.40503 0.0
C1135 C 0.92536 0.26545 0.3885 0.0
C1136 C 0.94894 0.28234 0.36963 0.0
C1137 C 0.05159 0.44207 0.3264 0.0
C1138 C 0.03037 0.41751 0.33621 0.0
C1139 C 0.04743 0.45992 0.3073 0.0
C1140 C 0.02194 0.45383 0.29807 0.0
H1141 H 0.07155 0.44639 0.32999 0.0
H1142 H 0.06423 0.4772 0.29641 0.0
S1143 S 0.95985 0.39492 0.32476 0.0
N1144 N 0.983 0.39012 0.34076 0.0
N1145 N 0.97529 0.4238 0.30535 0.0
C1146 C 1.00063 0.43095 0.31191 0.0
C1147 C 1.00482 0.41269 0.33086 0.0
C1148 C 0.59925 0.60309 0.31195 0.0
C1149 C 0.58643 0.61624 0.32363 0.0
C1150 C 0.58648 0.58094 0.29026 0.0
C1151 C 0.56038 0.57098 0.27945 0.0
H1152 H 0.61978 0.61076 0.3179 0.0
H1153 H 0.59766 0.57255 0.27985 0.0
S1154 S 0.51671 0.59558 0.30658 0.0
N1155 N 0.54495 0.61558 0.32608 0.0
N1156 N 0.52122 0.57404 0.28482 0.0
C1157 C 0.54657 0.58242 0.29334 0.0
C1158 C 0.55954 0.60504 0.31556 0.0
C1159 C 0.42265 0.01245 0.31247 0.0
C1160 C 0.40252 0.9872 0.32153 0.0
C1161 C 0.44525 0.01646 0.29485 0.0
C1162 C 0.44833 0.99532 0.28532 0.0
H1163 H 0.42005 0.02902 0.31652 0.0
H1164 H 0.45909 0.03588 0.28527 0.0
S1165 S 0.40357 0.926 0.30827 0.0
N1166 N 0.38896 0.9412 0.32448 0.0
N1167 N 0.43132 0.94885 0.29033 0.0
C1168 C 0.42983 0.9704 0.2977 0.0
C1169 C 0.40687 0.9663 0.31607 0.0
C1170 C 0.58122 0.96359 0.32388 0.0
C1171 C 0.60866 0.9806 0.32467 0.0
C1172 C 0.56486 0.96999 0.30501 0.0
C1173 C 0.57534 0.99366 0.28653 0.0
H1174 H 0.57244 0.94431 0.3355 0.0
H1175 H 0.54437 0.95525 0.30184 0.0
S1176 S 0.6446 0.04737 0.28655 0.0
N1177 N 0.64471 0.02412 0.3103 0.0
N1178 N 0.6138 0.03585 0.27473 0.0
C1179 C 0.6021 0.01207 0.29066 0.0
C1180 C 0.61883 0.00559 0.30971 0.0
C1181 C 0.99613 0.60425 0.29802 0.0
C1182 C 0.01945 0.62466 0.31267 0.0
C1183 C 0.99487 0.58156 0.28497 0.0
C1184 C 0.01698 0.57863 0.28568 0.0
H1185 H 0.97936 0.60664 0.29405 0.0
H1186 H 0.97753 0.56769 0.27038 0.0
S1187 S 0.08099 0.62384 0.32726 0.0
N1188 N 0.06374 0.63838 0.3325 0.0
N1189 N 0.06141 0.59599 0.30679 0.0
C1190 C 0.03928 0.59736 0.30402 0.0
C1191 C 0.04055 0.6204 0.31773 0.0
C1192 C 0.40222 0.39389 0.29289 0.0
C1193 C 0.38961 0.40527 0.3109 0.0
C1194 C 0.4258 0.40931 0.2745 0.0
C1195 C 0.43762 0.43663 0.27339 0.0
H1196 H 0.39296 0.37289 0.2908 0.0
H1197 H 0.43353 0.39967 0.25823 0.0
S1198 S 0.41591 0.47637 0.32245 0.0
N1199 N 0.39344 0.44592 0.33169 0.0
N1200 N 0.43743 0.47463 0.29629 0.0
C1201 C 0.42697 0.44838 0.29461 0.0
C1202 C 0.40296 0.43274 0.31345 0.0
C1203 C 0.34725 0.26616 0.35884 0.0
C1204 C 0.32165 0.26046 0.35098 0.0
C1205 C 0.35169 0.24828 0.37708 0.0
C1206 C 0.3307 0.2241 0.38837 0.0
H1207 H 0.36389 0.28532 0.35322 0.0
H1208 H 0.37148 0.25445 0.38556 0.0
S1209 S 0.26034 0.19803 0.36975 0.0
N1210 N 0.27526 0.22739 0.35166 0.0
N1211 N 0.28376 0.19406 0.38678 0.0
C1212 C 0.30528 0.21705 0.37753 0.0
C1213 C 0.30071 0.2352 0.3586 0.0
C1214 C 0.75078 0.08164 0.35398 0.0
C1215 C 0.75573 0.06116 0.34879 0.0
C1216 C 0.76923 0.10479 0.37073 0.0
C1217 C 0.793 0.10796 0.38344 0.0
H1218 H 0.73167 0.0789 0.34785 0.0
H1219 H 0.76354 0.11889 0.37772 0.0
S1220 S 0.81736 0.06234 0.37038 0.0
N1221 N 0.7879 0.04735 0.35215 0.0
N1222 N 0.82223 0.09068 0.38489 0.0
C1223 C 0.79952 0.08909 0.37446 0.0
C1224 C 0.78087 0.0656 0.35686 0.0
C1225 C 0.93809 0.67847 0.35592 0.0
C1226 C 0.95271 0.70462 0.34472 0.0
C1227 C 0.9156 0.66963 0.37696 0.0
C1228 C 0.90683 0.68657 0.38763 0.0
H1229 H 0.9448 0.66499 0.35006 0.0
H1230 H 0.90595 0.64982 0.38693 0.0
S1231 S 0.93566 0.75578 0.36156 0.0
N1232 N 0.9548 0.74656 0.34247 0.0
N1233 N 0.91271 0.72983 0.38264 0.0
C1234 C 0.91982 0.71208 0.3742 0.0
C1235 C 0.94274 0.72114 0.3526 0.0
C1236 C 0.42293 0.03823 0.68956 0.0
C1237 C 0.39734 0.01651 0.69204 0.0
C1238 C 0.44445 0.03736 0.70355 0.0
C1239 C 0.44114 0.01466 0.71989 0.0
H1240 H 0.42606 0.05674 0.67997 0.0
H1241 H 0.4632 0.05535 0.70521 0.0
S1242 S 0.37936 0.95096 0.72567 0.0
N1243 N 0.37076 0.97041 0.70644 0.0
N1244 N 0.41129 0.96891 0.73243 0.0
C1245 C 0.41632 0.99197 0.71821 0.0
C1246 C 0.39435 0.99289 0.70448 0.0
C1247 C 0.01002 0.39848 0.7104 0.0
C1248 C 0.98606 0.38481 0.69195 0.0
C1249 C 0.0166 0.42117 0.72965 0.0
C1250 C 0.99954 0.43106 0.73105 0.0
H1251 H 0.02297 0.39067 0.71221 0.0
H1252 H 0.03399 0.42967 0.7462 0.0
S1253 S 0.93735 0.40611 0.68145 0.0
N1254 N 0.94744 0.38561 0.67141 0.0
N1255 N 0.95985 0.42807 0.70825 0.0
C1256 C 0.97712 0.41945 0.70952 0.0
C1257 C 0.97032 0.39629 0.68986 0.0
C1258 C 0.61539 0.61308 0.70007 0.0
C1259 C 0.62912 0.60232 0.68353 0.0
C1260 C 0.59193 0.59729 0.71848 0.0
C1261 C 0.58142 0.5702 0.72117 0.0
H1262 H 0.62371 0.63401 0.70109 0.0
H1263 H 0.58337 0.6066 0.73373 0.0
S1264 S 0.60625 0.53164 0.67608 0.0
N1265 N 0.62764 0.56218 0.66555 0.0
N1266 N 0.58386 0.53278 0.70106 0.0
C1267 C 0.59306 0.55885 0.70117 0.0
C1268 C 0.61693 0.57487 0.68221 0.0
C1269 C 0.71904 0.77323 0.6583 0.0
C1270 C 0.69746 0.74879 0.66771 0.0
C1271 C 0.71542 0.79166 0.63977 0.0
C1272 C 0.69014 0.7863 0.63079 0.0
H1273 H 0.73884 0.77705 0.66174 0.0
H1274 H 0.73246 0.80882 0.6291 0.0
S1275 S 0.62732 0.72789 0.65653 0.0
N1276 N 0.65001 0.72221 0.67203 0.0
N1277 N 0.64333 0.757 0.63782 0.0
C1278 C 0.66851 0.7635 0.64425 0.0
C1279 C 0.67214 0.74464 0.66255 0.0
C1280 C 0.22615 0.93716 0.64703 0.0
C1281 C 0.25234 0.94721 0.65797 0.0
C1282 C 0.21328 0.91464 0.62579 0.0
C1283 C 0.22612 0.90137 0.61512 0.0
H1284 H 0.21614 0.94775 0.65263 0.0
H1285 H 0.19408 0.9089 0.61525 0.0
S1286 S 0.29241 0.91633 0.64242 0.0
N1287 N 0.28898 0.9396 0.66097 0.0
N1288 N 0.26471 0.89741 0.62106 0.0
C1289 C 0.25118 0.90963 0.62883 0.0
C1290 C 0.26433 0.93254 0.65025 0.0
C1291 C 0.09025 0.35263 0.64483 0.0
C1292 C 0.07243 0.32818 0.65966 0.0
C1293 C 0.11266 0.35661 0.62661 0.0
C1294 C 0.11791 0.33624 0.6225 0.0
H1295 H 0.08572 0.3681 0.64452 0.0
H1296 H 0.12425 0.37471 0.61219 0.0
S1297 S 0.0808 0.27057 0.66289 0.0
N1298 N 0.06424 0.28489 0.67457 0.0
N1299 N 0.10623 0.29242 0.63961 0.0
C1300 C 0.10227 0.31295 0.64116 0.0
C1301 C 0.07946 0.30887 0.65993 0.0
C1302 C 0.28002 0.33273 0.64415 0.0
C1303 C 0.26976 0.30665 0.65471 0.0
C1304 C 0.26451 0.3405 0.62602 0.0
C1305 C 0.23819 0.32252 0.6177 0.0
H1306 H 0.3006 0.34696 0.64792 0.0
H1307 H 0.27379 0.3602 0.61566 0.0
S1308 S 0.2005 0.25315 0.64445 0.0
N1309 N 0.23034 0.26369 0.65986 0.0
N1310 N 0.20156 0.27851 0.62503 0.0
C1311 C 0.22694 0.29713 0.63112 0.0
C1312 C 0.24266 0.28912 0.64977 0.0
C1313 C 0.66179 0.93537 0.63401 0.0
C1314 C 0.68523 0.95572 0.6485 0.0
C1315 C 0.66041 0.91271 0.62058 0.0
C1316 C 0.68251 0.90977 0.62072 0.0
H1317 H 0.64502 0.93781 0.63042 0.0
H1318 H 0.64298 0.89892 0.60609 0.0
S1319 S 0.74679 0.95475 0.66184 0.0
N1320 N 0.72962 0.96931 0.66768 0.0
N1321 N 0.72706 0.92698 0.64129 0.0
C1322 C 0.70493 0.92838 0.63899 0.0
C1323 C 0.70632 0.95139 0.65308 0.0
C1324 C 0.06581 0.72577 0.62038 0.0
C1325 C 0.05398 0.73689 0.64077 0.0
C1326 C 0.08908 0.74149 0.6015 0.0
C1327 C 0.10139 0.76886 0.6024 0.0
H1328 H 0.05615 0.70484 0.61685 0.0
H1329 H 0.09625 0.73218 0.58358 0.0
S1330 S 0.0817 0.8077 0.6576 0.0
N1331 N 0.059 0.7771 0.66555 0.0
N1332 N 0.10244 0.80643 0.62934 0.0
C1333 C 0.09149 0.78021 0.62573 0.0
C1334 C 0.06778 0.76426 0.64501 0.0
C1335 C 0.01189 0.59849 0.69524 0.0
C1336 C 0.9865 0.59261 0.6857 0.0
C1337 C 0.01592 0.58075 0.71457 0.0
C1338 C 0.99471 0.55652 0.72519 0.0
H1339 H 0.02862 0.61767 0.69003 0.0
H1340 H 0.03548 0.58702 0.72421 0.0
S1341 S 0.92489 0.53 0.70251 0.0
N1342 N 0.94017 0.55934 0.68436 0.0
N1343 N 0.94791 0.52624 0.72141 0.0
C1344 C 0.96959 0.54931 0.71285 0.0
C1345 C 0.96543 0.56732 0.69287 0.0
C1346 C 0.44234 0.39908 0.68816 0.0
C1347 C 0.41704 0.39447 0.68066 0.0
C1348 C 0.46091 0.42207 0.70549 0.0
C1349 C 0.4548 0.44117 0.71515 0.0
H1350 H 0.44688 0.38378 0.68417 0.0
H1351 H 0.47888 0.42352 0.71492 0.0
S1352 S 0.39383 0.44113 0.69358 0.0
N1353 N 0.38868 0.41286 0.67836 0.0
N1354 N 0.42378 0.45616 0.71027 0.0
C1355 C 0.43102 0.4383 0.70326 0.0
C1356 C 0.412 0.41483 0.68625 0.0
C1357 C 0.60809 0.05087 0.68627 0.0
C1358 C 0.61725 0.03381 0.67762 0.0
C1359 C 0.58537 0.04245 0.70686 0.0
C1360 C 0.571 0.01667 0.71923 0.0
H1361 H 0.61947 0.07133 0.67926 0.0
H1362 H 0.58026 0.05668 0.71549 0.0
S1363 S 0.58332 0.96303 0.69798 0.0
N1364 N 0.60767 0.98891 0.67853 0.0
N1365 N 0.56501 0.97324 0.71714 0.0
C1366 C 0.5784 0.99884 0.70782 0.0
C1367 C 0.60154 0.00737 0.68705 0.0
loop_
_geom_bond_atom_site_label_1
_geom_bond_atom_site_label_2
_geom_bond_distance
_geom_bond_site_symmetry_2
_ccdc_geom_bond_type
C0 O1 1.306 1_556 S
C0 O3 1.160 . S
O1 C0 1.306 1_554 S
O1 Cd2 2.228 . S
Cd2 O1 2.228 . S
Cd2 O6 2.273 . S
Cd2 O10 2.277 1_554 S
O3 C0 1.160 . S
O3 Cd4 2.203 1_656 S
Cd4 O3 2.203 1_454 S
Cd4 O6 2.411 1_455 S
Cd4 O7 2.333 . S
Cd4 O8 2.352 . S
Cd4 O12 2.277 1_554 S
Cd4 O13 2.356 . S
C5 O10 1.209 1_455 S
C5 O12 1.226 . S
O6 Cd2 2.273 . S
O6 Cd4 2.411 1_655 S
O6 C9 1.319 1_655 S
O7 Cd4 2.333 . S
O7 C9 1.217 . S
O8 Cd4 2.352 . S
O8 C11 1.258 . S
C9 O6 1.319 1_455 S
C9 O7 1.217 . S
O10 Cd2 2.277 1_556 S
O10 C5 1.209 1_655 S
C11 O8 1.258 . S
C11 O13 1.282 . S
O12 Cd4 2.277 1_556 S
O12 C5 1.226 . S
O13 Cd4 2.356 . S
O13 C11 1.282 . S
C14 O15 1.306 . S
C14 O17 1.160 . S
O15 C14 1.306 . S
O15 Cd16 2.228 . S
Cd16 O15 2.228 . S
Cd16 O20 2.273 1_554 S
Cd16 O24 2.277 . S
O17 C14 1.160 . S
O17 Cd18 2.203 . S
Cd18 O17 2.203 . S
Cd18 O20 2.411 1_554 S
Cd18 O21 2.333 1_554 S
Cd18 O22 2.352 1_554 S
Cd18 O26 2.277 . S
Cd18 O27 2.356 . S
C19 O24 1.209 . S
C19 O26 1.226 . S
O20 Cd16 2.273 1_556 S
O20 Cd18 2.411 1_556 S
O20 C23 1.320 . S
O21 Cd18 2.333 1_556 S
O21 C23 1.214 . S
O22 Cd18 2.352 1_556 S
O22 C25 1.258 . S
C23 O20 1.320 . S
C23 O21 1.214 . S
O24 Cd16 2.277 . S
O24 C19 1.209 . S
C25 O22 1.258 . S
C25 O27 1.282 1_556 S
O26 Cd18 2.277 . S
O26 C19 1.226 . S
O27 Cd18 2.356 . S
O27 C25 1.282 1_554 S
C28 O29 1.306 . S
C28 O31 1.160 . S
O29 C28 1.306 . S
O29 Cd30 2.228 . S
Cd30 O29 2.228 . S
Cd30 O34 2.273 1_554 S
Cd30 O38 2.277 . S
O31 C28 1.160 . S
O31 Cd32 2.203 1_565 S
Cd32 O31 2.203 1_545 S
Cd32 O34 2.411 1_544 S
Cd32 O35 2.333 1_554 S
Cd32 O36 2.352 1_554 S
Cd32 O40 2.277 . S
Cd32 O41 2.356 . S
C33 O38 1.209 1_545 S
C33 O40 1.226 . S
O34 Cd30 2.273 1_556 S
O34 Cd32 2.411 1_566 S
O34 C37 1.320 1_565 S
O35 Cd32 2.333 1_556 S
O35 C37 1.214 . S
O36 Cd32 2.352 1_556 S
O36 C39 1.258 . S
C37 O34 1.320 1_545 S
C37 O35 1.214 . S
O38 Cd30 2.277 . S
O38 C33 1.209 1_565 S
C39 O36 1.258 . S
C39 O41 1.282 1_556 S
O40 Cd32 2.277 . S
O40 C33 1.226 . S
O41 Cd32 2.356 . S
O41 C39 1.282 1_554 S
C42 O43 1.306 . S
C42 O45 1.160 . S
O43 C42 1.306 . S
O43 Cd44 2.228 1_556 S
Cd44 O43 2.228 1_554 S
Cd44 O48 2.273 . S
Cd44 O52 2.277 1_554 S
O45 C42 1.160 . S
O45 Cd46 2.203 1_656 S
Cd46 O45 2.203 1_454 S
Cd46 O48 2.411 1_455 S
Cd46 O49 2.333 . S
Cd46 O50 2.352 . S
Cd46 O54 2.277 1_554 S
Cd46 O55 2.356 . S
C47 O52 1.209 1_455 S
C47 O54 1.226 . S
O48 Cd44 2.273 . S
O48 Cd46 2.411 1_655 S
O48 C51 1.321 1_655 S
O49 Cd46 2.333 . S
O49 C51 1.213 . S
O50 Cd46 2.352 . S
O50 C53 1.258 . S
C51 O48 1.321 1_455 S
C51 O49 1.213 . S
O52 Cd44 2.277 1_556 S
O52 C47 1.209 1_655 S
C53 O50 1.258 . S
C53 O55 1.282 . S
O54 Cd46 2.277 1_556 S
O54 C47 1.226 . S
O55 Cd46 2.356 . S
O55 C53 1.282 . S
C56 O57 1.306 . S
C56 O59 1.160 . S
O57 C56 1.306 . S
O57 Cd58 2.228 . S
Cd58 O57 2.228 . S
Cd58 O62 2.273 1_554 S
Cd58 O66 2.277 . S
O59 C56 1.160 . S
O59 Cd60 2.203 . S
Cd60 O59 2.203 . S
Cd60 O62 2.411 1_554 S
Cd60 O63 2.333 1_554 S
Cd60 O64 2.352 1_554 S
Cd60 O68 2.277 . S
Cd60 O69 2.356 . S
C61 O66 1.209 . S
C61 O68 1.226 . S
O62 Cd58 2.273 1_556 S
O62 Cd60 2.411 1_556 S
O62 C65 1.320 . S
O63 Cd60 2.333 1_556 S
O63 C65 1.214 . S
O64 Cd60 2.352 1_556 S
O64 C67 1.258 . S
C65 O62 1.320 . S
C65 O63 1.214 . S
O66 Cd58 2.277 . S
O66 C61 1.209 . S
C67 O64 1.258 . S
C67 O69 1.282 1_556 S
O68 Cd60 2.277 . S
O68 C61 1.226 . S
O69 Cd60 2.356 . S
O69 C67 1.282 1_554 S
C70 O71 1.304 1_556 S
C70 O73 1.160 . S
O71 C70 1.304 1_554 S
O71 Cd72 2.229 . S
Cd72 O71 2.229 . S
Cd72 O76 2.273 . S
Cd72 O80 2.277 1_554 S
O73 C70 1.160 . S
O73 Cd74 2.203 1_546 S
Cd74 O73 2.203 1_564 S
Cd74 O76 2.411 1_565 S
Cd74 O77 2.333 . S
Cd74 O78 2.352 . S
Cd74 O82 2.277 1_554 S
Cd74 O83 2.356 . S
C75 O80 1.173 1_565 S
C75 O82 1.277 . S
O76 Cd72 2.273 . S
O76 Cd74 2.411 1_545 S
O76 C79 1.341 . S
O77 Cd74 2.333 . S
O77 C79 1.170 1_565 S
O78 Cd74 2.352 . S
O78 C81 1.258 . S
C79 O76 1.341 . S
C79 O77 1.170 1_545 S
O80 Cd72 2.277 1_556 S
O80 C75 1.173 1_545 S
C81 O78 1.258 . S
C81 O83 1.282 . S
O82 Cd74 2.277 1_556 S
O82 C75 1.277 . S
O83 Cd74 2.356 . S
O83 C81 1.282 . S
C84 O85 1.306 . S
C84 O87 1.160 . S
O85 C84 1.306 . S
O85 Cd86 2.228 . S
Cd86 O85 2.228 . S
Cd86 O90 2.273 . S
Cd86 O94 2.277 . S
O87 C84 1.160 . S
O87 Cd88 2.203 . S
Cd88 O87 2.203 . S
Cd88 O90 2.411 . S
Cd88 O91 2.333 . S
Cd88 O92 2.352 . S
Cd88 O96 2.277 . S
Cd88 O97 2.356 . S
C89 O94 1.209 . S
C89 O96 1.226 . S
O90 Cd86 2.273 . S
O90 Cd88 2.411 . S
O90 C93 1.320 . S
O91 Cd88 2.333 . S
O91 C93 1.214 . S
O92 Cd88 2.352 . S
O92 C95 1.258 . S
C93 O90 1.320 . S
C93 O91 1.214 . S
O94 Cd86 2.277 . S
O94 C89 1.209 . S
C95 O92 1.258 . S
C95 O97 1.282 . S
O96 Cd88 2.277 . S
O96 C89 1.226 . S
O97 Cd88 2.356 . S
O97 C95 1.282 . S
C98 O99 1.306 . S
C98 O101 1.160 . S
O99 C98 1.306 . S
O99 Cd100 2.228 1_545 S
Cd100 O99 2.228 1_565 S
Cd100 O104 2.273 . S
Cd100 O108 2.277 . S
O101 C98 1.160 . S
O101 Cd102 2.203 1_545 S
Cd102 O101 2.203 1_565 S
Cd102 O104 2.411 . S
Cd102 O105 2.333 . S
Cd102 O106 2.352 1_565 S
Cd102 O110 2.277 . S
Cd102 O111 2.356 . S
C103 O108 1.209 . S
C103 O110 1.226 . S
O104 Cd100 2.273 . S
O104 Cd102 2.411 . S
O104 C107 1.320 . S
O105 Cd102 2.333 . S
O105 C107 1.214 . S
O106 Cd102 2.352 1_545 S
O106 C109 1.258 1_545 S
C107 O104 1.320 . S
C107 O105 1.214 . S
O108 Cd100 2.277 . S
O108 C103 1.209 . S
C109 O106 1.258 1_565 S
C109 O111 1.282 . S
O110 Cd102 2.277 . S
O110 C103 1.226 . S
O111 Cd102 2.356 . S
O111 C109 1.282 . S
C112 O113 1.306 . S
C112 O115 1.160 . S
O113 C112 1.306 . S
O113 Cd114 2.228 1_655 S
Cd114 O113 2.228 1_455 S
Cd114 O118 2.273 . S
Cd114 O122 2.277 . S
O115 C112 1.160 . S
O115 Cd116 2.203 1_655 S
Cd116 O115 2.203 1_455 S
Cd116 O118 2.411 . S
Cd116 O119 2.333 . S
Cd116 O120 2.352 . S
Cd116 O124 2.277 . S
Cd116 O125 2.356 . S
C117 O122 1.209 . S
C117 O124 1.226 . S
O118 Cd114 2.273 . S
O118 Cd116 2.411 . S
O118 C121 1.320 . S
O119 Cd116 2.333 . S
O119 C121 1.214 . S
O120 Cd116 2.352 . S
O120 C123 1.258 . S
C121 O118 1.320 . S
C121 O119 1.214 . S
O122 Cd114 2.277 . S
O122 C117 1.209 . S
C123 O120 1.258 . S
C123 O125 1.282 . S
O124 Cd116 2.277 . S
O124 C117 1.226 . S
O125 Cd116 2.356 . S
O125 C123 1.282 . S
C126 O127 1.306 . S
C126 O129 1.162 . S
O127 C126 1.306 . S
O127 Cd128 2.228 . S
Cd128 O127 2.228 . S
Cd128 O132 2.273 . S
Cd128 O136 2.277 . S
O129 C126 1.162 . S
O129 Cd130 2.226 . S
Cd130 O129 2.226 . S
Cd130 O132 2.411 . S
Cd130 O133 2.333 . S
Cd130 O134 2.352 1_565 S
Cd130 O138 2.277 . S
Cd130 O139 2.356 1_565 S
C131 O136 1.209 . S
C131 O138 1.226 . S
O132 Cd128 2.273 . S
O132 Cd130 2.411 . S
O132 C135 1.320 . S
O133 Cd130 2.333 . S
O133 C135 1.214 . S
O134 Cd130 2.352 1_545 S
O134 C137 1.258 . S
C135 O132 1.320 . S
C135 O133 1.214 . S
O136 Cd128 2.277 . S
O136 C131 1.209 . S
C137 O134 1.258 . S
C137 O139 1.282 . S
O138 Cd130 2.277 . S
O138 C131 1.226 . S
O139 Cd130 2.356 1_545 S
O139 C137 1.282 . S
C140 O141 1.306 . S
C140 O143 1.160 . S
O141 C140 1.306 . S
O141 Cd142 2.228 1_655 S
Cd142 O141 2.228 1_455 S
Cd142 O146 2.273 . S
Cd142 O150 2.277 . S
O143 C140 1.160 . S
O143 Cd144 2.203 1_655 S
Cd144 O143 2.203 1_455 S
Cd144 O146 2.411 . S
Cd144 O147 2.333 . S
Cd144 O148 2.352 1_455 S
Cd144 O152 2.277 . S
Cd144 O153 2.356 . S
C145 O150 1.209 . S
C145 O152 1.226 . S
O146 Cd142 2.273 . S
O146 Cd144 2.411 . S
O146 C149 1.320 . S
O147 Cd144 2.333 . S
O147 C149 1.214 . S
O148 Cd144 2.352 1_655 S
O148 C151 1.258 1_655 S
C149 O146 1.320 . S
C149 O147 1.214 . S
O150 Cd142 2.277 . S
O150 C145 1.209 . S
C151 O148 1.258 1_455 S
C151 O153 1.282 . S
O152 Cd144 2.277 . S
O152 C145 1.226 . S
O153 Cd144 2.356 . S
O153 C151 1.282 . S
C154 O155 1.306 . S
C154 O157 1.160 . S
O155 C154 1.306 . S
O155 Cd156 2.228 . S
Cd156 O155 2.228 . S
Cd156 O160 2.273 . S
Cd156 O164 2.277 . S
O157 C154 1.160 . S
O157 Cd158 2.203 . S
Cd158 O157 2.203 . S
Cd158 O160 2.411 . S
Cd158 O161 2.333 . S
Cd158 O162 2.352 . S
Cd158 O166 2.277 . S
Cd158 O167 2.356 . S
C159 O164 1.209 . S
C159 O166 1.226 . S
O160 Cd156 2.273 . S
O160 Cd158 2.411 . S
O160 C163 1.320 . S
O161 Cd158 2.333 . S
O161 C163 1.214 . S
O162 Cd158 2.352 . S
O162 C165 1.258 . S
C163 O160 1.320 . S
C163 O161 1.214 . S
O164 Cd156 2.277 . S
O164 C159 1.209 . S
C165 O162 1.258 . S
C165 O167 1.282 . S
O166 Cd158 2.277 . S
O166 C159 1.226 . S
O167 Cd158 2.356 . S
O167 C165 1.282 . S
C168 O169 1.306 . S
C168 O171 1.160 . S
O169 C168 1.306 . S
O169 Cd170 2.228 1_565 S
Cd170 O169 2.228 1_545 S
Cd170 O174 2.273 . S
Cd170 O178 2.277 . S
O171 C168 1.160 . S
O171 Cd172 2.203 1_565 S
Cd172 O171 2.203 1_545 S
Cd172 O174 2.411 . S
Cd172 O175 2.333 . S
Cd172 O176 2.352 1_545 S
Cd172 O180 2.277 . S
Cd172 O181 2.356 . S
C173 O178 1.209 . S
C173 O180 1.226 . S
O174 Cd170 2.273 . S
O174 Cd172 2.411 . S
O174 C177 1.320 . S
O175 Cd172 2.333 . S
O175 C177 1.214 . S
O176 Cd172 2.352 1_565 S
O176 C179 1.258 1_565 S
C177 O174 1.320 . S
C177 O175 1.214 . S
O178 Cd170 2.277 . S
O178 C173 1.209 . S
C179 O176 1.258 1_545 S
C179 O181 1.282 . S
O180 Cd172 2.277 . S
O180 C173 1.226 . S
O181 Cd172 2.356 . S
O181 C179 1.282 . S
C182 O183 1.306 . S
C182 O185 1.160 1_655 S
O183 C182 1.306 . S
O183 Cd184 2.228 . S
Cd184 O183 2.228 . S
Cd184 O188 2.273 . S
Cd184 O192 2.277 . S
O185 C182 1.160 1_455 S
O185 Cd186 2.203 1_455 S
Cd186 O185 2.203 1_655 S
Cd186 O188 2.411 . S
Cd186 O189 2.333 . S
Cd186 O190 2.352 1_655 S
Cd186 O194 2.277 . S
Cd186 O195 2.356 1_655 S
C187 O192 1.209 . S
C187 O194 1.226 . S
O188 Cd184 2.273 . S
O188 Cd186 2.411 . S
O188 C191 1.320 . S
O189 Cd186 2.333 . S
O189 C191 1.214 . S
O190 Cd186 2.352 1_455 S
O190 C193 1.258 . S
C191 O188 1.320 . S
C191 O189 1.214 . S
O192 Cd184 2.277 . S
O192 C187 1.209 . S
C193 O190 1.258 . S
C193 O195 1.282 . S
O194 Cd186 2.277 . S
O194 C187 1.226 . S
O195 Cd186 2.356 1_455 S
O195 C193 1.282 . S
C196 O197 1.306 . S
C196 O199 1.160 . S
O197 C196 1.306 . S
O197 Cd198 2.228 . S
Cd198 O197 2.228 . S
Cd198 O202 2.273 . S
Cd198 O206 2.277 . S
O199 C196 1.160 . S
O199 Cd200 2.203 . S
Cd200 O199 2.203 . S
Cd200 O202 2.411 . S
Cd200 O203 2.333 . S
Cd200 O204 2.352 . S
Cd200 O208 2.277 . S
Cd200 O209 2.356 . S
C201 O206 1.209 . S
C201 O208 1.226 . S
O202 Cd198 2.273 . S
O202 Cd200 2.411 . S
O202 C205 1.320 . S
O203 Cd200 2.333 . S
O203 C205 1.214 . S
O204 Cd200 2.352 . S
O204 C207 1.258 . S
C205 O202 1.320 . S
C205 O203 1.214 . S
O206 Cd198 2.277 . S
O206 C201 1.209 . S
C207 O204 1.258 . S
C207 O209 1.282 . S
O208 Cd200 2.277 . S
O208 C201 1.226 . S
O209 Cd200 2.356 . S
O209 C207 1.282 . S
C210 O211 1.306 . S
C210 O213 1.160 . S
O211 C210 1.306 . S
O211 Cd212 2.228 . S
Cd212 O211 2.228 . S
Cd212 O216 2.273 . S
Cd212 O220 2.277 . S
O213 C210 1.160 . S
O213 Cd214 2.203 . S
Cd214 O213 2.203 . S
Cd214 O216 2.411 . S
Cd214 O217 2.333 . S
Cd214 O218 2.352 . S
Cd214 O222 2.277 . S
Cd214 O223 2.356 . S
C215 O220 1.209 . S
C215 O222 1.226 . S
O216 Cd212 2.273 . S
O216 Cd214 2.411 . S
O216 C219 1.320 . S
O217 Cd214 2.333 . S
O217 C219 1.214 . S
O218 Cd214 2.352 . S
O218 C221 1.258 . S
C219 O216 1.320 . S
C219 O217 1.214 . S
O220 Cd212 2.277 . S
O220 C215 1.209 . S
C221 O218 1.258 . S
C221 O223 1.282 . S
O222 Cd214 2.277 . S
O222 C215 1.226 . S
O223 Cd214 2.356 . S
O223 C221 1.282 . S
C224 O225 1.306 . S
C224 O227 1.160 . S
O225 C224 1.306 . S
O225 Cd226 2.228 . S
Cd226 O225 2.228 . S
Cd226 O230 2.273 . S
Cd226 O234 2.277 . S
O227 C224 1.160 . S
O227 Cd228 2.203 . S
Cd228 O227 2.203 . S
Cd228 O230 2.411 . S
Cd228 O231 2.333 . S
Cd228 O232 2.352 1_545 S
Cd228 O236 2.277 . S
Cd228 O237 2.356 1_545 S
C229 O234 1.209 . S
C229 O236 1.226 . S
O230 Cd226 2.273 . S
O230 Cd228 2.411 . S
O230 C233 1.320 . S
O231 Cd228 2.333 . S
O231 C233 1.214 . S
O232 Cd228 2.352 1_565 S
O232 C235 1.258 . S
C233 O230 1.320 . S
C233 O231 1.214 . S
O234 Cd226 2.277 . S
O234 C229 1.209 . S
C235 O232 1.258 . S
C235 O237 1.282 . S
O236 Cd228 2.277 . S
O236 C229 1.226 . S
O237 Cd228 2.356 1_565 S
O237 C235 1.282 . S
C238 O239 1.306 . S
C238 O241 1.160 . S
O239 C238 1.306 . S
O239 Cd240 2.228 1_455 S
Cd240 O239 2.228 1_655 S
Cd240 O244 2.273 . S
Cd240 O248 2.277 . S
O241 C238 1.160 . S
O241 Cd242 2.203 1_455 S
Cd242 O241 2.203 1_655 S
Cd242 O244 2.411 . S
Cd242 O245 2.333 . S
Cd242 O246 2.352 1_655 S
Cd242 O250 2.277 . S
Cd242 O251 2.356 . S
C243 O248 1.209 . S
C243 O250 1.226 . S
O244 Cd240 2.273 . S
O244 Cd242 2.411 . S
O244 C247 1.320 . S
O245 Cd242 2.333 . S
O245 C247 1.214 . S
O246 Cd242 2.352 1_455 S
O246 C249 1.258 1_455 S
C247 O244 1.320 . S
C247 O245 1.214 . S
O248 Cd240 2.277 . S
O248 C243 1.209 . S
C249 O246 1.258 1_655 S
C249 O251 1.282 . S
O250 Cd242 2.277 . S
O250 C243 1.226 . S
O251 Cd242 2.356 . S
O251 C249 1.282 . S
H252 C258 0.930 . S
H253 C261 0.931 . S
H254 C263 0.931 . S
H255 C265 0.930 . S
H256 C267 0.930 . S
H257 C269 0.931 . S
C258 H252 0.930 . S
C258 C259 1.380 . S
C258 C260 1.394 . S
C259 C258 1.380 . S
C259 C263 1.382 . S
C260 C258 1.394 . S
C260 C261 1.400 . S
C261 H253 0.931 . S
C261 C260 1.400 . S
C261 C262 1.375 . S
C262 C261 1.375 . S
C262 C263 1.415 . S
C262 C264 1.501 . S
C263 H254 0.931 . S
C263 C259 1.382 . S
C263 C262 1.415 . S
C264 C262 1.501 . S
C264 C265 1.384 . S
C264 C269 1.408 . S
C265 H255 0.930 . S
C265 C264 1.384 . S
C265 C266 1.389 . S
C266 C265 1.389 . S
C266 C267 1.405 . S
C267 H256 0.930 . S
C267 C266 1.405 . S
C267 C268 1.364 . S
C268 C267 1.364 . S
C268 C269 1.400 . S
C269 H257 0.931 . S
C269 C264 1.408 . S
C269 C268 1.400 . S
H270 C276 0.930 . S
H271 C279 0.931 . S
H272 C281 0.931 . S
H273 C283 0.930 . S
H274 C285 0.930 . S
H275 C287 0.931 . S
C276 H270 0.930 . S
C276 C277 1.380 . S
C276 C278 1.394 . S
C277 C276 1.380 . S
C277 C281 1.382 . S
C278 C276 1.394 . S
C278 C279 1.400 . S
C279 H271 0.931 . S
C279 C278 1.400 . S
C279 C280 1.375 . S
C280 C279 1.375 . S
C280 C281 1.415 . S
C280 C282 1.501 . S
C281 H272 0.931 . S
C281 C277 1.382 . S
C281 C280 1.415 . S
C282 C280 1.501 . S
C282 C283 1.384 . S
C282 C287 1.408 . S
C283 H273 0.930 . S
C283 C282 1.384 . S
C283 C284 1.389 . S
C284 C283 1.389 . S
C284 C285 1.405 . S
C285 H274 0.930 . S
C285 C284 1.405 . S
C285 C286 1.364 . S
C286 C285 1.364 . S
C286 C287 1.400 . S
C287 H275 0.931 . S
C287 C282 1.408 . S
C287 C286 1.400 . S
H288 C294 0.930 . S
H289 C297 0.931 . S
H290 C299 0.931 . S
H291 C301 0.930 . S
H292 C303 0.930 . S
H293 C305 0.931 . S
C294 H288 0.930 . S
C294 C295 1.380 . S
C294 C296 1.394 . S
C295 C294 1.380 . S
C295 C299 1.382 . S
C296 C294 1.394 . S
C296 C297 1.400 . S
C297 H289 0.931 . S
C297 C296 1.400 . S
C297 C298 1.375 . S
C298 C297 1.375 . S
C298 C299 1.415 . S
C298 C300 1.501 . S
C299 H290 0.931 . S
C299 C295 1.382 . S
C299 C298 1.415 . S
C300 C298 1.501 . S
C300 C301 1.384 . S
C300 C305 1.408 . S
C301 H291 0.930 . S
C301 C300 1.384 . S
C301 C302 1.389 . S
C302 C301 1.389 . S
C302 C303 1.405 . S
C303 H292 0.930 . S
C303 C302 1.405 . S
C303 C304 1.364 . S
C304 C303 1.364 . S
C304 C305 1.400 . S
C305 H293 0.931 . S
C305 C300 1.408 . S
C305 C304 1.400 . S
H306 C312 0.930 . S
H307 C315 0.931 . S
H308 C317 0.931 . S
H309 C319 0.930 . S
H310 C321 0.930 . S
H311 C323 0.931 . S
C312 H306 0.930 . S
C312 C313 1.380 . S
C312 C314 1.394 . S
C313 C312 1.380 . S
C313 C317 1.382 . S
C314 C312 1.394 . S
C314 C315 1.400 . S
C315 H307 0.931 . S
C315 C314 1.400 . S
C315 C316 1.375 . S
C316 C315 1.375 . S
C316 C317 1.415 . S
C316 C318 1.501 . S
C317 H308 0.931 . S
C317 C313 1.382 . S
C317 C316 1.415 . S
C318 C316 1.501 . S
C318 C319 1.384 . S
C318 C323 1.408 . S
C319 H309 0.930 . S
C319 C318 1.384 . S
C319 C320 1.389 . S
C320 C319 1.389 . S
C320 C321 1.405 . S
C321 H310 0.930 . S
C321 C320 1.405 . S
C321 C322 1.364 . S
C322 C321 1.364 . S
C322 C323 1.400 . S
C323 H311 0.931 . S
C323 C318 1.408 . S
C323 C322 1.400 . S
H324 C330 0.930 . S
H325 C333 0.931 . S
H326 C335 0.931 . S
H327 C337 0.930 . S
H328 C339 0.930 . S
H329 C341 0.931 . S
C330 H324 0.930 . S
C330 C331 1.380 . S
C330 C332 1.394 . S
C331 C330 1.380 . S
C331 C335 1.382 . S
C332 C330 1.394 . S
C332 C333 1.400 . S
C333 H325 0.931 . S
C333 C332 1.400 . S
C333 C334 1.375 . S
C334 C333 1.375 . S
C334 C335 1.415 . S
C334 C336 1.501 . S
C335 H326 0.931 . S
C335 C331 1.382 . S
C335 C334 1.415 . S
C336 C334 1.501 . S
C336 C337 1.384 . S
C336 C341 1.408 . S
C337 H327 0.930 . S
C337 C336 1.384 . S
C337 C338 1.389 . S
C338 C337 1.389 . S
C338 C339 1.405 . S
C339 H328 0.930 . S
C339 C338 1.405 . S
C339 C340 1.364 . S
C340 C339 1.364 . S
C340 C341 1.400 . S
C341 H329 0.931 . S
C341 C336 1.408 . S
C341 C340 1.400 . S
H342 C348 0.930 . S
H343 C351 0.931 . S
H344 C353 0.931 . S
H345 C355 0.930 . S
H346 C357 0.930 . S
H347 C359 0.931 . S
C348 H342 0.930 . S
C348 C349 1.380 . S
C348 C350 1.394 . S
C349 C348 1.380 . S
C349 C353 1.382 . S
C350 C348 1.394 . S
C350 C351 1.400 . S
C351 H343 0.931 . S
C351 C350 1.400 . S
C351 C352 1.375 . S
C352 C351 1.375 . S
C352 C353 1.415 . S
C352 C354 1.501 . S
C353 H344 0.931 . S
C353 C349 1.382 . S
C353 C352 1.415 . S
C354 C352 1.501 . S
C354 C355 1.384 . S
C354 C359 1.408 . S
C355 H345 0.930 . S
C355 C354 1.384 . S
C355 C356 1.389 . S
C356 C355 1.389 . S
C356 C357 1.405 . S
C357 H346 0.930 . S
C357 C356 1.405 . S
C357 C358 1.364 . S
C358 C357 1.364 . S
C358 C359 1.400 . S
C359 H347 0.931 . S
C359 C354 1.408 . S
C359 C358 1.400 . S
H360 C366 0.930 . S
H361 C369 0.931 . S
H362 C371 0.931 . S
H363 C373 0.930 . S
H364 C375 0.930 . S
H365 C377 0.931 . S
C366 H360 0.930 . S
C366 C367 1.380 . S
C366 C368 1.394 . S
C367 C366 1.380 . S
C367 C371 1.382 . S
C368 C366 1.394 . S
C368 C369 1.400 . S
C369 H361 0.931 . S
C369 C368 1.400 . S
C369 C370 1.375 . S
C370 C369 1.375 . S
C370 C371 1.415 . S
C370 C372 1.501 . S
C371 H362 0.931 . S
C371 C367 1.382 . S
C371 C370 1.415 . S
C372 C370 1.501 . S
C372 C373 1.384 . S
C372 C377 1.408 . S
C373 H363 0.930 . S
C373 C372 1.384 . S
C373 C374 1.389 . S
C374 C373 1.389 . S
C374 C375 1.405 . S
C375 H364 0.930 . S
C375 C374 1.405 . S
C375 C376 1.364 . S
C376 C375 1.364 . S
C376 C377 1.400 . S
C377 H365 0.931 . S
C377 C372 1.408 . S
C377 C376 1.400 . S
H378 C384 0.930 . S
H379 C387 0.931 . S
H380 C389 0.931 . S
H381 C391 0.930 . S
H382 C393 0.930 . S
H383 C395 0.931 . S
C384 H378 0.930 . S
C384 C385 1.380 . S
C384 C386 1.394 . S
C385 C384 1.380 . S
C385 C389 1.382 . S
C386 C384 1.394 . S
C386 C387 1.400 . S
C387 H379 0.931 . S
C387 C386 1.400 . S
C387 C388 1.375 . S
C388 C387 1.375 . S
C388 C389 1.415 . S
C388 C390 1.501 . S
C389 H380 0.931 . S
C389 C385 1.382 . S
C389 C388 1.415 . S
C390 C388 1.501 . S
C390 C391 1.384 . S
C390 C395 1.408 . S
C391 H381 0.930 . S
C391 C390 1.384 . S
C391 C392 1.389 . S
C392 C391 1.389 . S
C392 C393 1.405 . S
C393 H382 0.930 . S
C393 C392 1.405 . S
C393 C394 1.364 . S
C394 C393 1.364 . S
C394 C395 1.400 . S
C395 H383 0.931 . S
C395 C390 1.408 . S
C395 C394 1.400 . S
H396 C402 0.930 . S
H397 C405 0.931 . S
H398 C407 0.931 . S
H399 C409 0.930 . S
H400 C411 0.930 . S
H401 C413 0.931 . S
C402 H396 0.930 . S
C402 C403 1.380 . S
C402 C404 1.394 . S
C403 C402 1.380 . S
C403 C407 1.382 . S
C404 C402 1.394 . S
C404 C405 1.400 . S
C405 H397 0.931 . S
C405 C404 1.400 . S
C405 C406 1.375 . S
C406 C405 1.375 . S
C406 C407 1.415 . S
C406 C408 1.501 . S
C407 H398 0.931 . S
C407 C403 1.382 . S
C407 C406 1.415 . S
C408 C406 1.501 . S
C408 C409 1.384 . S
C408 C413 1.408 . S
C409 H399 0.930 . S
C409 C408 1.384 . S
C409 C410 1.389 . S
C410 C409 1.389 . S
C410 C411 1.405 . S
C411 H400 0.930 . S
C411 C410 1.405 . S
C411 C412 1.364 . S
C412 C411 1.364 . S
C412 C413 1.400 . S
C413 H401 0.931 . S
C413 C408 1.408 . S
C413 C412 1.400 . S
H414 C420 0.922 . S
H415 C423 0.931 . S
H416 C425 0.931 . S
H417 C427 0.930 . S
H418 C429 0.930 . S
H419 C431 0.942 . S
C420 H414 0.922 . S
C420 C421 1.386 . S
C420 C422 1.395 1_655 S
C421 C420 1.386 . S
C421 C425 1.382 . S
C422 C420 1.395 1_455 S
C422 C423 1.400 . S
C423 H415 0.931 . S
C423 C422 1.400 . S
C423 C424 1.375 . S
C424 C423 1.375 . S
C424 C425 1.415 1_455 S
C424 C426 1.501 . S
C425 H416 0.931 . S
C425 C421 1.382 . S
C425 C424 1.415 1_655 S
C426 C424 1.501 . S
C426 C427 1.384 . S
C426 C431 1.421 . S
C427 H417 0.930 . S
C427 C426 1.384 . S
C427 C428 1.389 . S
C428 C427 1.389 . S
C428 C429 1.405 . S
C429 H418 0.930 . S
C429 C428 1.405 . S
C429 C430 1.359 . S
C430 C429 1.359 . S
C430 C431 1.391 . S
C431 H419 0.942 . S
C431 C426 1.421 . S
C431 C430 1.391 . S
H432 C438 0.930 . S
H433 C441 0.931 . S
H434 C443 0.931 . S
H435 C445 0.930 . S
H436 C447 0.930 . S
H437 C449 0.931 . S
C438 H432 0.930 . S
C438 C439 1.380 . S
C438 C440 1.394 . S
C439 C438 1.380 . S
C439 C443 1.382 . S
C440 C438 1.394 . S
C440 C441 1.400 . S
C441 H433 0.931 . S
C441 C440 1.400 . S
C441 C442 1.375 . S
C442 C441 1.375 . S
C442 C443 1.415 . S
C442 C444 1.501 . S
C443 H434 0.931 . S
C443 C439 1.382 . S
C443 C442 1.415 . S
C444 C442 1.501 . S
C444 C445 1.384 . S
C444 C449 1.408 . S
C445 H435 0.930 . S
C445 C444 1.384 . S
C445 C446 1.389 . S
C446 C445 1.389 . S
C446 C447 1.405 . S
C447 H436 0.930 . S
C447 C446 1.405 . S
C447 C448 1.364 . S
C448 C447 1.364 . S
C448 C449 1.400 . S
C449 H437 0.931 . S
C449 C444 1.408 . S
C449 C448 1.400 . S
H450 C456 0.930 . S
H451 C459 0.931 . S
H452 C461 0.931 . S
H453 C463 0.930 . S
H454 C465 0.930 . S
H455 C467 0.930 . S
C456 H450 0.930 . S
C456 C457 1.380 . S
C456 C458 1.394 1_545 S
C457 C456 1.380 . S
C457 C461 1.382 . S
C458 C456 1.394 1_565 S
C458 C459 1.400 . S
C459 H451 0.931 . S
C459 C458 1.400 . S
C459 C460 1.375 . S
C460 C459 1.375 . S
C460 C461 1.415 1_565 S
C460 C462 1.501 . S
C461 H452 0.931 . S
C461 C457 1.382 . S
C461 C460 1.415 1_545 S
C462 C460 1.501 . S
C462 C463 1.384 . S
C462 C467 1.408 . S
C463 H453 0.930 . S
C463 C462 1.384 . S
C463 C464 1.389 . S
C464 C463 1.389 . S
C464 C465 1.405 . S
C465 H454 0.930 . S
C465 C464 1.405 . S
C465 C466 1.381 . S
C466 C465 1.381 . S
C466 C467 1.374 . S
C467 H455 0.930 . S
C467 C462 1.408 . S
C467 C466 1.374 . S
H468 C474 0.915 . S
H469 C477 0.931 . S
H470 C479 0.926 1_545 S
H471 C481 0.930 . S
H472 C483 0.930 . S
H473 C485 0.931 . S
C474 H468 0.915 . S
C474 C475 1.382 . S
C474 C476 1.401 1_545 S
C475 C474 1.382 . S
C475 C479 1.403 1_545 S
C476 C474 1.401 1_565 S
C476 C477 1.400 . S
C477 H469 0.931 . S
C477 C476 1.400 . S
C477 C478 1.375 . S
C478 C477 1.375 . S
C478 C479 1.411 . S
C478 C480 1.501 . S
C479 H470 0.926 1_565 S
C479 C475 1.403 1_565 S
C479 C478 1.411 . S
C480 C478 1.501 . S
C480 C481 1.384 . S
C480 C485 1.408 1_565 S
C481 H471 0.930 . S
C481 C480 1.384 . S
C481 C482 1.389 . S
C482 C481 1.389 . S
C482 C483 1.405 . S
C483 H472 0.930 . S
C483 C482 1.405 . S
C483 C484 1.364 1_565 S
C484 C483 1.364 1_545 S
C484 C485 1.400 . S
C485 H473 0.931 . S
C485 C480 1.408 1_545 S
C485 C484 1.400 . S
H486 C492 0.955 . S
H487 C495 0.931 . S
H488 C497 0.936 1_655 S
H489 C499 0.930 . S
H490 C501 0.930 . S
H491 C503 0.931 . S
C492 H486 0.955 . S
C492 C493 1.379 . S
C492 C494 1.382 1_655 S
C493 C492 1.379 . S
C493 C497 1.358 1_655 S
C494 C492 1.382 1_455 S
C494 C495 1.400 . S
C495 H487 0.931 . S
C495 C494 1.400 . S
C495 C496 1.375 . S
C496 C495 1.375 . S
C496 C497 1.417 . S
C496 C498 1.501 . S
C497 H488 0.936 1_455 S
C497 C493 1.358 1_455 S
C497 C496 1.417 . S
C498 C496 1.501 . S
C498 C499 1.384 . S
C498 C503 1.408 1_455 S
C499 H489 0.930 . S
C499 C498 1.384 . S
C499 C500 1.389 . S
C500 C499 1.389 . S
C500 C501 1.405 . S
C501 H490 0.930 . S
C501 C500 1.405 . S
C501 C502 1.364 1_455 S
C502 C501 1.364 1_655 S
C502 C503 1.400 . S
C503 H491 0.931 . S
C503 C498 1.408 1_655 S
C503 C502 1.400 . S
H504 C510 0.930 . S
H505 C513 0.931 . S
H506 C515 0.931 . S
H507 C517 0.930 . S
H508 C519 0.930 . S
H509 C521 0.931 . S
C510 H504 0.930 . S
C510 C511 1.380 . S
C510 C512 1.394 . S
C511 C510 1.380 . S
C511 C515 1.382 . S
C512 C510 1.394 . S
C512 C513 1.400 . S
C513 H505 0.931 . S
C513 C512 1.400 . S
C513 C514 1.375 . S
C514 C513 1.375 . S
C514 C515 1.415 . S
C514 C516 1.501 . S
C515 H506 0.931 . S
C515 C511 1.382 . S
C515 C514 1.415 . S
C516 C514 1.501 . S
C516 C517 1.384 . S
C516 C521 1.408 . S
C517 H507 0.930 . S
C517 C516 1.384 . S
C517 C518 1.389 . S
C518 C517 1.389 . S
C518 C519 1.405 . S
C519 H508 0.930 . S
C519 C518 1.405 . S
C519 C520 1.364 . S
C520 C519 1.364 . S
C520 C521 1.400 . S
C521 H509 0.931 . S
C521 C516 1.408 . S
C521 C520 1.400 . S
H522 C528 0.930 . S
H523 C531 0.931 . S
H524 C533 0.931 . S
H525 C535 0.930 . S
H526 C537 0.930 . S
H527 C539 0.931 . S
C528 H522 0.930 . S
C528 C529 1.380 . S
C528 C530 1.394 . S
C529 C528 1.380 . S
C529 C533 1.382 . S
C530 C528 1.394 . S
C530 C531 1.400 . S
C531 H523 0.931 . S
C531 C530 1.400 . S
C531 C532 1.375 . S
C532 C531 1.375 . S
C532 C533 1.415 . S
C532 C534 1.501 . S
C533 H524 0.931 . S
C533 C529 1.382 . S
C533 C532 1.415 . S
C534 C532 1.501 . S
C534 C535 1.384 . S
C534 C539 1.408 . S
C535 H525 0.930 . S
C535 C534 1.384 . S
C535 C536 1.389 . S
C536 C535 1.389 . S
C536 C537 1.405 . S
C537 H526 0.930 . S
C537 C536 1.405 . S
C537 C538 1.364 . S
C538 C537 1.364 . S
C538 C539 1.400 . S
C539 H527 0.931 . S
C539 C534 1.408 . S
C539 C538 1.400 . S
H540 C546 0.930 . S
H541 C549 0.931 . S
H542 C551 0.931 . S
H543 C553 0.930 . S
H544 C555 0.930 . S
H545 C557 0.931 . S
C546 H540 0.930 . S
C546 C547 1.380 . S
C546 C548 1.394 . S
C547 C546 1.380 . S
C547 C551 1.382 . S
C548 C546 1.394 . S
C548 C549 1.400 . S
C549 H541 0.931 . S
C549 C548 1.400 . S
C549 C550 1.375 . S
C550 C549 1.375 . S
C550 C551 1.415 . S
C550 C552 1.501 . S
C551 H542 0.931 . S
C551 C547 1.382 . S
C551 C550 1.415 . S
C552 C550 1.501 . S
C552 C553 1.384 . S
C552 C557 1.408 . S
C553 H543 0.930 . S
C553 C552 1.384 . S
C553 C554 1.389 . S
C554 C553 1.389 . S
C554 C555 1.405 . S
C555 H544 0.930 . S
C555 C554 1.405 . S
C555 C556 1.364 . S
C556 C555 1.364 . S
C556 C557 1.400 . S
C557 H545 0.931 . S
C557 C552 1.408 . S
C557 C556 1.400 . S
H558 C564 0.930 . S
H559 C567 0.931 . S
H560 C569 0.931 . S
H561 C571 0.930 . S
H562 C573 0.930 . S
H563 C575 0.931 . S
C564 H558 0.930 . S
C564 C565 1.380 . S
C564 C566 1.394 . S
C565 C564 1.380 . S
C565 C569 1.382 . S
C566 C564 1.394 . S
C566 C567 1.400 . S
C567 H559 0.931 . S
C567 C566 1.400 . S
C567 C568 1.375 . S
C568 C567 1.375 . S
C568 C569 1.415 . S
C568 C570 1.501 . S
C569 H560 0.931 . S
C569 C565 1.382 . S
C569 C568 1.415 . S
C570 C568 1.501 . S
C570 C571 1.384 . S
C570 C575 1.408 . S
C571 H561 0.930 . S
C571 C570 1.384 . S
C571 C572 1.389 . S
C572 C571 1.389 . S
C572 C573 1.405 . S
C573 H562 0.930 . S
C573 C572 1.405 . S
C573 C574 1.364 . S
C574 C573 1.364 . S
C574 C575 1.400 . S
C575 H563 0.931 . S
C575 C570 1.408 . S
C575 C574 1.400 . S
C576 C577 1.369 1_455 S
C576 C578 1.419 . S
C576 H580 0.930 . S
C577 C576 1.369 1_655 S
C577 C586 1.429 . S
C578 C576 1.419 . S
C578 C579 1.363 1_455 S
C578 H581 0.929 . S
C579 C578 1.363 1_655 S
C579 C585 1.428 . S
H580 C576 0.930 . S
H581 C578 0.929 . S
S582 N583 1.613 . S
S582 N584 1.610 . S
N583 S582 1.613 . S
N583 C586 1.350 . S
N584 S582 1.610 . S
N584 C585 1.351 . S
C585 C579 1.428 . S
C585 N584 1.351 . S
C585 C586 1.434 . S
C586 C577 1.429 . S
C586 N583 1.350 . S
C586 C585 1.434 . S
C587 C588 1.369 . S
C587 C589 1.419 . S
C587 H591 0.930 . S
C588 C587 1.369 . S
C588 C597 1.429 . S
C589 C587 1.419 . S
C589 C590 1.363 . S
C589 H592 0.929 . S
C590 C589 1.363 . S
C590 C596 1.428 . S
H591 C587 0.930 . S
H592 C589 0.929 . S
S593 N594 1.613 . S
S593 N595 1.610 . S
N594 S593 1.613 . S
N594 C597 1.350 . S
N595 S593 1.610 . S
N595 C596 1.351 . S
C596 C590 1.428 . S
C596 N595 1.351 . S
C596 C597 1.434 . S
C597 C588 1.429 . S
C597 N594 1.350 . S
C597 C596 1.434 . S
C598 C599 1.369 1_565 S
C598 C600 1.419 . S
C598 H602 0.930 . S
C599 C598 1.369 1_545 S
C599 C608 1.429 . S
C600 C598 1.419 . S
C600 C601 1.363 1_565 S
C600 H603 0.929 . S
C601 C600 1.363 1_545 S
C601 C607 1.428 . S
H602 C598 0.930 . S
H603 C600 0.929 . S
S604 N605 1.613 . S
S604 N606 1.610 . S
N605 S604 1.613 . S
N605 C608 1.350 . S
N606 S604 1.610 . S
N606 C607 1.351 . S
C607 C601 1.428 . S
C607 N606 1.351 . S
C607 C608 1.434 . S
C608 C599 1.429 . S
C608 N605 1.350 . S
C608 C607 1.434 . S
C609 C610 1.369 . S
C609 C611 1.419 . S
C609 H613 0.930 . S
C610 C609 1.369 . S
C610 C619 1.429 1_565 S
C611 C609 1.419 . S
C611 C612 1.363 . S
C611 H614 0.929 . S
C612 C611 1.363 . S
C612 C618 1.428 1_565 S
H613 C609 0.930 . S
H614 C611 0.929 . S
S615 N616 1.613 . S
S615 N617 1.610 . S
N616 S615 1.613 . S
N616 C619 1.350 . S
N617 S615 1.610 . S
N617 C618 1.351 . S
C618 C612 1.428 1_545 S
C618 N617 1.351 . S
C618 C619 1.434 . S
C619 C610 1.429 1_545 S
C619 N616 1.350 . S
C619 C618 1.434 . S
C620 C621 1.369 1_655 S
C620 C622 1.419 . S
C620 H624 0.930 . S
C621 C620 1.369 1_455 S
C621 C630 1.429 . S
C622 C620 1.419 . S
C622 C623 1.363 1_655 S
C622 H625 0.929 . S
C623 C622 1.363 1_455 S
C623 C629 1.428 . S
H624 C620 0.930 . S
H625 C622 0.929 . S
S626 N627 1.613 . S
S626 N628 1.610 . S
N627 S626 1.613 . S
N627 C630 1.350 . S
N628 S626 1.610 . S
N628 C629 1.351 . S
C629 C623 1.428 . S
C629 N628 1.351 . S
C629 C630 1.434 . S
C630 C621 1.429 . S
C630 N627 1.350 . S
C630 C629 1.434 . S
C631 C632 1.369 . S
C631 C633 1.419 . S
C631 H635 0.930 . S
C632 C631 1.369 . S
C632 C641 1.429 . S
C633 C631 1.419 . S
C633 C634 1.363 . S
C633 H636 0.929 . S
C634 C633 1.363 . S
C634 C640 1.428 . S
H635 C631 0.930 . S
H636 C633 0.929 . S
S637 N638 1.613 . S
S637 N639 1.610 . S
N638 S637 1.613 . S
N638 C641 1.350 . S
N639 S637 1.610 . S
N639 C640 1.351 . S
C640 C634 1.428 . S
C640 N639 1.351 . S
C640 C641 1.434 . S
C641 C632 1.429 . S
C641 N638 1.350 . S
C641 C640 1.434 . S
C642 C643 1.369 . S
C642 C644 1.419 . S
C642 H646 0.930 . S
C643 C642 1.369 . S
C643 C652 1.429 1_455 S
C644 C642 1.419 . S
C644 C645 1.354 1_455 S
C644 H647 0.929 . S
C645 C644 1.354 1_655 S
C645 C651 1.445 . S
H646 C642 0.930 . S
H647 C644 0.929 . S
S648 N649 1.613 . S
S648 N650 1.610 . S
N649 S648 1.613 . S
N649 C652 1.350 . S
N650 S648 1.610 . S
N650 C651 1.351 . S
C651 C645 1.445 . S
C651 N650 1.351 . S
C651 C652 1.434 . S
C652 C643 1.429 1_655 S
C652 N649 1.350 . S
C652 C651 1.434 . S
C653 C654 1.369 . S
C653 C655 1.419 . S
C653 H657 0.930 . S
C654 C653 1.369 . S
C654 C663 1.429 . S
C655 C653 1.419 . S
C655 C656 1.363 . S
C655 H658 0.929 . S
C656 C655 1.363 . S
C656 C662 1.428 . S
H657 C653 0.930 . S
H658 C655 0.929 . S
S659 N660 1.613 . S
S659 N661 1.610 . S
N660 S659 1.613 . S
N660 C663 1.350 . S
N661 S659 1.610 . S
N661 C662 1.351 . S
C662 C656 1.428 . S
C662 N661 1.351 . S
C662 C663 1.434 . S
C663 C654 1.429 . S
C663 N660 1.350 . S
C663 C662 1.434 . S
C664 C665 1.369 1_545 S
C664 C666 1.419 . S
C664 H668 0.930 . S
C665 C664 1.369 1_565 S
C665 C674 1.429 . S
C666 C664 1.419 . S
C666 C667 1.365 . S
C666 H669 0.929 . S
C667 C666 1.365 . S
C667 C673 1.424 1_545 S
H668 C664 0.930 . S
H669 C666 0.929 . S
S670 N671 1.613 . S
S670 N672 1.610 . S
N671 S670 1.613 . S
N671 C674 1.350 . S
N672 S670 1.610 . S
N672 C673 1.351 . S
C673 C667 1.424 1_565 S
C673 N672 1.351 . S
C673 C674 1.434 . S
C674 C665 1.429 . S
C674 N671 1.350 . S
C674 C673 1.434 . S
C675 C676 1.369 1_565 S
C675 C677 1.418 . S
C675 H679 0.931 . S
C676 C675 1.369 1_545 S
C676 C685 1.429 . S
C677 C675 1.418 . S
C677 C678 1.364 . S
C677 H680 0.929 . S
C678 C677 1.364 . S
C678 C684 1.428 1_565 S
H679 C675 0.931 . S
H680 C677 0.929 . S
S681 N682 1.613 . S
S681 N683 1.610 . S
N682 S681 1.613 . S
N682 C685 1.350 . S
N683 S681 1.610 . S
N683 C684 1.351 . S
C684 C678 1.428 1_545 S
C684 N683 1.351 . S
C684 C685 1.434 . S
C685 C676 1.429 . S
C685 N682 1.350 . S
C685 C684 1.434 . S
C686 C687 1.366 1_455 S
C686 C688 1.439 . S
C686 H690 0.914 . S
C687 C686 1.366 1_655 S
C687 C696 1.429 . S
C688 C686 1.439 . S
C688 C689 1.366 1_455 S
C688 H691 0.929 . S
C689 C688 1.366 1_655 S
C689 C695 1.429 . S
H690 C686 0.914 . S
H691 C688 0.929 . S
S692 N693 1.613 . S
S692 N694 1.610 . S
N693 S692 1.613 . S
N693 C696 1.350 . S
N694 S692 1.610 . S
N694 C695 1.351 . S
C695 C689 1.429 . S
C695 N694 1.351 . S
C695 C696 1.434 . S
C696 C687 1.429 . S
C696 N693 1.350 . S
C696 C695 1.434 . S
C697 C698 1.369 . S
C697 C699 1.419 . S
C697 H701 0.930 . S
C698 C697 1.369 . S
C698 C707 1.429 . S
C699 C697 1.419 . S
C699 C700 1.363 . S
C699 H702 0.929 . S
C700 C699 1.363 . S
C700 C706 1.428 . S
H701 C697 0.930 . S
H702 C699 0.929 . S
S703 N704 1.613 . S
S703 N705 1.610 . S
N704 S703 1.613 . S
N704 C707 1.350 . S
N705 S703 1.610 . S
N705 C706 1.351 . S
C706 C700 1.428 . S
C706 N705 1.351 . S
C706 C707 1.434 . S
C707 C698 1.429 . S
C707 N704 1.350 . S
C707 C706 1.434 . S
C708 C709 1.369 . S
C708 C710 1.419 . S
C708 H712 0.930 . S
C709 C708 1.369 . S
C709 C718 1.429 . S
C710 C708 1.419 . S
C710 C711 1.363 . S
C710 H713 0.929 . S
C711 C710 1.363 . S
C711 C717 1.428 . S
H712 C708 0.930 . S
H713 C710 0.929 . S
S714 N715 1.613 . S
S714 N716 1.610 . S
N715 S714 1.613 . S
N715 C718 1.350 . S
N716 S714 1.610 . S
N716 C717 1.351 . S
C717 C711 1.428 . S
C717 N716 1.351 . S
C717 C718 1.434 . S
C718 C709 1.429 . S
C718 N715 1.350 . S
C718 C717 1.434 . S
C719 C720 1.369 . S
C719 C721 1.419 . S
C719 H723 0.930 . S
C720 C719 1.369 . S
C720 C729 1.429 . S
C721 C719 1.419 . S
C721 C722 1.363 . S
C721 H724 0.929 . S
C722 C721 1.363 . S
C722 C728 1.428 . S
H723 C719 0.930 . S
H724 C721 0.929 . S
S725 N726 1.613 . S
S725 N727 1.610 . S
N726 S725 1.613 . S
N726 C729 1.350 . S
N727 S725 1.610 . S
N727 C728 1.351 . S
C728 C722 1.428 . S
C728 N727 1.351 . S
C728 C729 1.434 . S
C729 C720 1.429 . S
C729 N726 1.350 . S
C729 C728 1.434 . S
C730 C731 1.369 . S
C730 C732 1.419 . S
C730 H734 0.930 . S
C731 C730 1.369 . S
C731 C740 1.429 . S
C732 C730 1.419 . S
C732 C733 1.363 . S
C732 H735 0.929 . S
C733 C732 1.363 . S
C733 C739 1.428 . S
H734 C730 0.930 . S
H735 C732 0.929 . S
S736 N737 1.613 . S
S736 N738 1.610 . S
N737 S736 1.613 . S
N737 C740 1.350 . S
N738 S736 1.610 . S
N738 C739 1.351 . S
C739 C733 1.428 . S
C739 N738 1.351 . S
C739 C740 1.434 . S
C740 C731 1.429 . S
C740 N737 1.350 . S
C740 C739 1.434 . S
C741 C742 1.369 . S
C741 C743 1.419 . S
C741 H745 0.930 . S
C742 C741 1.369 . S
C742 C751 1.429 . S
C743 C741 1.419 . S
C743 C744 1.363 . S
C743 H746 0.929 . S
C744 C743 1.363 . S
C744 C750 1.428 . S
H745 C741 0.930 . S
H746 C743 0.929 . S
S747 N748 1.613 . S
S747 N749 1.610 . S
N748 S747 1.613 . S
N748 C751 1.350 . S
N749 S747 1.610 . S
N749 C750 1.351 . S
C750 C744 1.428 . S
C750 N749 1.351 . S
C750 C751 1.434 . S
C751 C742 1.429 . S
C751 N748 1.350 . S
C751 C750 1.434 . S
C752 C753 1.369 . S
C752 C754 1.419 . S
C752 H756 0.930 . S
C753 C752 1.369 . S
C753 C762 1.429 . S
C754 C752 1.419 . S
C754 C755 1.363 . S
C754 H757 0.929 . S
C755 C754 1.363 . S
C755 C761 1.428 . S
H756 C752 0.930 . S
H757 C754 0.929 . S
S758 N759 1.613 . S
S758 N760 1.610 . S
N759 S758 1.613 . S
N759 C762 1.350 . S
N760 S758 1.610 . S
N760 C761 1.351 . S
C761 C755 1.428 . S
C761 N760 1.351 . S
C761 C762 1.434 . S
C762 C753 1.429 . S
C762 N759 1.350 . S
C762 C761 1.434 . S
C763 C764 1.369 . S
C763 C765 1.419 . S
C763 H767 0.930 . S
C764 C763 1.369 . S
C764 C773 1.429 . S
C765 C763 1.419 . S
C765 C766 1.363 . S
C765 H768 0.929 . S
C766 C765 1.363 . S
C766 C772 1.428 . S
H767 C763 0.930 . S
H768 C765 0.929 . S
S769 N770 1.613 . S
S769 N771 1.610 . S
N770 S769 1.613 . S
N770 C773 1.350 . S
N771 S769 1.610 . S
N771 C772 1.351 . S
C772 C766 1.428 . S
C772 N771 1.351 . S
C772 C773 1.434 . S
C773 C764 1.429 . S
C773 N770 1.350 . S
C773 C772 1.434 . S
C774 C775 1.369 . S
C774 C776 1.419 . S
C774 H778 0.930 . S
C775 C774 1.369 . S
C775 C784 1.429 . S
C776 C774 1.419 . S
C776 C777 1.363 . S
C776 H779 0.929 . S
C777 C776 1.363 . S
C777 C783 1.428 . S
H778 C774 0.930 . S
H779 C776 0.929 . S
S780 N781 1.613 . S
S780 N782 1.610 . S
N781 S780 1.613 . S
N781 C784 1.350 . S
N782 S780 1.610 . S
N782 C783 1.351 . S
C783 C777 1.428 . S
C783 N782 1.351 . S
C783 C784 1.434 . S
C784 C775 1.429 . S
C784 N781 1.350 . S
C784 C783 1.434 . S
C785 C786 1.369 . S
C785 C787 1.419 . S
C785 H789 0.930 . S
C786 C785 1.369 . S
C786 C795 1.429 . S
C787 C785 1.419 . S
C787 C788 1.363 . S
C787 H790 0.929 . S
C788 C787 1.363 . S
C788 C794 1.428 . S
H789 C785 0.930 . S
H790 C787 0.929 . S
S791 N792 1.613 . S
S791 N793 1.610 . S
N792 S791 1.613 . S
N792 C795 1.350 . S
N793 S791 1.610 . S
N793 C794 1.351 . S
C794 C788 1.428 . S
C794 N793 1.351 . S
C794 C795 1.434 . S
C795 C786 1.429 . S
C795 N792 1.350 . S
C795 C794 1.434 . S
C796 C797 1.369 . S
C796 C798 1.419 . S
C796 H800 0.930 . S
C797 C796 1.369 . S
C797 C806 1.429 . S
C798 C796 1.419 . S
C798 C799 1.363 . S
C798 H801 0.929 . S
C799 C798 1.363 . S
C799 C805 1.428 . S
H800 C796 0.930 . S
H801 C798 0.929 . S
S802 N803 1.613 . S
S802 N804 1.610 . S
N803 S802 1.613 . S
N803 C806 1.350 . S
N804 S802 1.610 . S
N804 C805 1.351 . S
C805 C799 1.428 . S
C805 N804 1.351 . S
C805 C806 1.434 . S
C806 C797 1.429 . S
C806 N803 1.350 . S
C806 C805 1.434 . S
C807 C808 1.369 . S
C807 C809 1.419 . S
C807 H811 0.930 . S
C808 C807 1.369 . S
C808 C817 1.429 . S
C809 C807 1.419 . S
C809 C810 1.363 . S
C809 H812 0.929 . S
C810 C809 1.363 . S
C810 C816 1.428 . S
H811 C807 0.930 . S
H812 C809 0.929 . S
S813 N814 1.613 . S
S813 N815 1.610 . S
N814 S813 1.613 . S
N814 C817 1.350 . S
N815 S813 1.610 . S
N815 C816 1.351 . S
C816 C810 1.428 . S
C816 N815 1.351 . S
C816 C817 1.434 . S
C817 C808 1.429 . S
C817 N814 1.350 . S
C817 C816 1.434 . S
C818 C819 1.369 . S
C818 C820 1.419 . S
C818 H822 0.930 . S
C819 C818 1.369 . S
C819 C828 1.429 . S
C820 C818 1.419 . S
C820 C821 1.363 . S
C820 H823 0.929 . S
C821 C820 1.363 . S
C821 C827 1.428 . S
H822 C818 0.930 . S
H823 C820 0.929 . S
S824 N825 1.613 . S
S824 N826 1.610 . S
N825 S824 1.613 . S
N825 C828 1.350 . S
N826 S824 1.610 . S
N826 C827 1.351 . S
C827 C821 1.428 . S
C827 N826 1.351 . S
C827 C828 1.434 . S
C828 C819 1.429 . S
C828 N825 1.350 . S
C828 C827 1.434 . S
C829 C830 1.369 . S
C829 C831 1.419 . S
C829 H833 0.930 . S
C830 C829 1.369 . S
C830 C839 1.429 . S
C831 C829 1.419 . S
C831 C832 1.363 . S
C831 H834 0.929 . S
C832 C831 1.363 . S
C832 C838 1.428 . S
H833 C829 0.930 . S
H834 C831 0.929 . S
S835 N836 1.613 . S
S835 N837 1.610 . S
N836 S835 1.613 . S
N836 C839 1.350 . S
N837 S835 1.610 . S
N837 C838 1.351 . S
C838 C832 1.428 . S
C838 N837 1.351 . S
C838 C839 1.434 . S
C839 C830 1.429 . S
C839 N836 1.350 . S
C839 C838 1.434 . S
C840 C841 1.369 . S
C840 C842 1.419 . S
C840 H844 0.930 . S
C841 C840 1.369 . S
C841 C850 1.429 . S
C842 C840 1.419 . S
C842 C843 1.363 . S
C842 H845 0.929 . S
C843 C842 1.363 . S
C843 C849 1.428 . S
H844 C840 0.930 . S
H845 C842 0.929 . S
S846 N847 1.613 . S
S846 N848 1.610 . S
N847 S846 1.613 . S
N847 C850 1.350 . S
N848 S846 1.610 . S
N848 C849 1.351 . S
C849 C843 1.428 . S
C849 N848 1.351 . S
C849 C850 1.434 . S
C850 C841 1.429 . S
C850 N847 1.350 . S
C850 C849 1.434 . S
C851 C852 1.369 . S
C851 C853 1.419 . S
C851 H855 0.930 . S
C852 C851 1.369 . S
C852 C861 1.429 . S
C853 C851 1.419 . S
C853 C854 1.363 . S
C853 H856 0.929 . S
C854 C853 1.363 . S
C854 C860 1.428 . S
H855 C851 0.930 . S
H856 C853 0.929 . S
S857 N858 1.613 . S
S857 N859 1.610 . S
N858 S857 1.613 . S
N858 C861 1.350 . S
N859 S857 1.610 . S
N859 C860 1.351 . S
C860 C854 1.428 . S
C860 N859 1.351 . S
C860 C861 1.434 . S
C861 C852 1.429 . S
C861 N858 1.350 . S
C861 C860 1.434 . S
C862 C863 1.369 . S
C862 C864 1.419 . S
C862 H866 0.930 . S
C863 C862 1.369 . S
C863 C872 1.429 . S
C864 C862 1.419 . S
C864 C865 1.363 . S
C864 H867 0.929 . S
C865 C864 1.363 . S
C865 C871 1.428 . S
H866 C862 0.930 . S
H867 C864 0.929 . S
S868 N869 1.613 . S
S868 N870 1.610 . S
N869 S868 1.613 . S
N869 C872 1.350 . S
N870 S868 1.610 . S
N870 C871 1.351 . S
C871 C865 1.428 . S
C871 N870 1.351 . S
C871 C872 1.434 . S
C872 C863 1.429 . S
C872 N869 1.350 . S
C872 C871 1.434 . S
C873 C874 1.369 . S
C873 C875 1.419 . S
C873 H877 0.930 . S
C874 C873 1.369 . S
C874 C883 1.429 . S
C875 C873 1.419 . S
C875 C876 1.363 . S
C875 H878 0.929 . S
C876 C875 1.363 . S
C876 C882 1.428 . S
H877 C873 0.930 . S
H878 C875 0.929 . S
S879 N880 1.613 . S
S879 N881 1.610 . S
N880 S879 1.613 . S
N880 C883 1.350 . S
N881 S879 1.610 . S
N881 C882 1.351 . S
C882 C876 1.428 . S
C882 N881 1.351 . S
C882 C883 1.434 . S
C883 C874 1.429 . S
C883 N880 1.350 . S
C883 C882 1.434 . S
C884 C885 1.369 . S
C884 C886 1.419 . S
C884 H888 0.930 . S
C885 C884 1.369 . S
C885 C894 1.429 . S
C886 C884 1.419 . S
C886 C887 1.363 . S
C886 H889 0.929 . S
C887 C886 1.363 . S
C887 C893 1.428 . S
H888 C884 0.930 . S
H889 C886 0.929 . S
S890 N891 1.613 . S
S890 N892 1.610 . S
N891 S890 1.613 . S
N891 C894 1.350 . S
N892 S890 1.610 . S
N892 C893 1.351 . S
C893 C887 1.428 . S
C893 N892 1.351 . S
C893 C894 1.434 . S
C894 C885 1.429 . S
C894 N891 1.350 . S
C894 C893 1.434 . S
C895 C896 1.369 . S
C895 C897 1.419 . S
C895 H899 0.930 . S
C896 C895 1.369 . S
C896 C905 1.429 . S
C897 C895 1.419 . S
C897 C898 1.363 . S
C897 H900 0.929 . S
C898 C897 1.363 . S
C898 C904 1.428 . S
H899 C895 0.930 . S
H900 C897 0.929 . S
S901 N902 1.613 . S
S901 N903 1.610 . S
N902 S901 1.613 . S
N902 C905 1.350 . S
N903 S901 1.610 . S
N903 C904 1.351 . S
C904 C898 1.428 . S
C904 N903 1.351 . S
C904 C905 1.434 . S
C905 C896 1.429 . S
C905 N902 1.350 . S
C905 C904 1.434 . S
C906 C907 1.369 . S
C906 C908 1.419 . S
C906 H910 0.930 . S
C907 C906 1.369 . S
C907 C916 1.429 . S
C908 C906 1.419 . S
C908 C909 1.363 . S
C908 H911 0.929 . S
C909 C908 1.363 . S
C909 C915 1.428 . S
H910 C906 0.930 . S
H911 C908 0.929 . S
S912 N913 1.613 . S
S912 N914 1.610 . S
N913 S912 1.613 . S
N913 C916 1.350 . S
N914 S912 1.610 . S
N914 C915 1.351 . S
C915 C909 1.428 . S
C915 N914 1.351 . S
C915 C916 1.434 . S
C916 C907 1.429 . S
C916 N913 1.350 . S
C916 C915 1.434 . S
C917 C918 1.369 . S
C917 C919 1.419 . S
C917 H921 0.930 . S
C918 C917 1.369 . S
C918 C927 1.429 . S
C919 C917 1.419 . S
C919 C920 1.363 . S
C919 H922 0.929 . S
C920 C919 1.363 . S
C920 C926 1.428 . S
H921 C917 0.930 . S
H922 C919 0.929 . S
S923 N924 1.613 . S
S923 N925 1.610 . S
N924 S923 1.613 . S
N924 C927 1.350 . S
N925 S923 1.610 . S
N925 C926 1.351 . S
C926 C920 1.428 . S
C926 N925 1.351 . S
C926 C927 1.434 . S
C927 C918 1.429 . S
C927 N924 1.350 . S
C927 C926 1.434 . S
C928 C929 1.369 . S
C928 C930 1.419 . S
C928 H932 0.930 . S
C929 C928 1.369 . S
C929 C938 1.429 . S
C930 C928 1.419 . S
C930 C931 1.363 . S
C930 H933 0.929 . S
C931 C930 1.363 . S
C931 C937 1.428 . S
H932 C928 0.930 . S
H933 C930 0.929 . S
S934 N935 1.613 . S
S934 N936 1.610 . S
N935 S934 1.613 . S
N935 C938 1.350 . S
N936 S934 1.610 . S
N936 C937 1.351 . S
C937 C931 1.428 . S
C937 N936 1.351 . S
C937 C938 1.434 . S
C938 C929 1.429 . S
C938 N935 1.350 . S
C938 C937 1.434 . S
C939 C940 1.369 . S
C939 C941 1.419 . S
C939 H943 0.930 . S
C940 C939 1.369 . S
C940 C949 1.429 . S
C941 C939 1.419 . S
C941 C942 1.363 . S
C941 H944 0.929 . S
C942 C941 1.363 . S
C942 C948 1.428 . S
H943 C939 0.930 . S
H944 C941 0.929 . S
S945 N946 1.613 . S
S945 N947 1.610 . S
N946 S945 1.613 . S
N946 C949 1.350 . S
N947 S945 1.610 . S
N947 C948 1.351 . S
C948 C942 1.428 . S
C948 N947 1.351 . S
C948 C949 1.434 . S
C949 C940 1.429 . S
C949 N946 1.350 . S
C949 C948 1.434 . S
C950 C951 1.369 . S
C950 C952 1.419 . S
C950 H954 0.930 . S
C951 C950 1.369 . S
C951 C960 1.429 . S
C952 C950 1.419 . S
C952 C953 1.363 . S
C952 H955 0.929 . S
C953 C952 1.363 . S
C953 C959 1.428 . S
H954 C950 0.930 . S
H955 C952 0.929 . S
S956 N957 1.613 . S
S956 N958 1.610 . S
N957 S956 1.613 . S
N957 C960 1.350 . S
N958 S956 1.610 . S
N958 C959 1.351 . S
C959 C953 1.428 . S
C959 N958 1.351 . S
C959 C960 1.434 . S
C960 C951 1.429 . S
C960 N957 1.350 . S
C960 C959 1.434 . S
C961 C962 1.369 . S
C961 C963 1.419 . S
C961 H965 0.930 . S
C962 C961 1.369 . S
C962 C971 1.429 . S
C963 C961 1.419 . S
C963 C964 1.363 . S
C963 H966 0.929 . S
C964 C963 1.363 . S
C964 C970 1.428 . S
H965 C961 0.930 . S
H966 C963 0.929 . S
S967 N968 1.613 . S
S967 N969 1.610 . S
N968 S967 1.613 . S
N968 C971 1.350 . S
N969 S967 1.610 . S
N969 C970 1.351 . S
C970 C964 1.428 . S
C970 N969 1.351 . S
C970 C971 1.434 . S
C971 C962 1.429 . S
C971 N968 1.350 . S
C971 C970 1.434 . S
C972 C973 1.369 . S
C972 C974 1.419 . S
C972 H976 0.930 . S
C973 C972 1.369 . S
C973 C982 1.429 . S
C974 C972 1.419 . S
C974 C975 1.363 . S
C974 H977 0.929 . S
C975 C974 1.363 . S
C975 C981 1.428 . S
H976 C972 0.930 . S
H977 C974 0.929 . S
S978 N979 1.613 . S
S978 N980 1.610 . S
N979 S978 1.613 . S
N979 C982 1.350 . S
N980 S978 1.610 . S
N980 C981 1.351 . S
C981 C975 1.428 . S
C981 N980 1.351 . S
C981 C982 1.434 . S
C982 C973 1.429 . S
C982 N979 1.350 . S
C982 C981 1.434 . S
C983 C984 1.369 . S
C983 C985 1.419 . S
C983 H987 0.930 . S
C984 C983 1.369 . S
C984 C993 1.429 . S
C985 C983 1.419 . S
C985 C986 1.363 . S
C985 H988 0.929 . S
C986 C985 1.363 . S
C986 C992 1.428 . S
H987 C983 0.930 . S
H988 C985 0.929 . S
S989 N990 1.613 1_556 S
S989 N991 1.610 1_556 S
N990 S989 1.613 1_554 S
N990 C993 1.350 . S
N991 S989 1.610 1_554 S
N991 C992 1.351 . S
C992 C986 1.428 . S
C992 N991 1.351 . S
C992 C993 1.434 . S
C993 C984 1.429 . S
C993 N990 1.350 . S
C993 C992 1.434 . S
C994 C995 1.369 . S
C994 C996 1.419 . S
C994 H998 0.930 . S
C995 C994 1.369 . S
C995 C1004 1.429 . S
C996 C994 1.419 . S
C996 C997 1.363 . S
C996 H999 0.929 . S
C997 C996 1.363 . S
C997 C1003 1.428 . S
H998 C994 0.930 . S
H999 C996 0.929 . S
S1000 N1001 1.613 . S
S1000 N1002 1.610 . S
N1001 S1000 1.613 . S
N1001 C1004 1.350 . S
N1002 S1000 1.610 . S
N1002 C1003 1.351 . S
C1003 C997 1.428 . S
C1003 N1002 1.351 . S
C1003 C1004 1.434 . S
C1004 C995 1.429 . S
C1004 N1001 1.350 . S
C1004 C1003 1.434 . S
C1005 C1006 1.369 . S
C1005 C1007 1.419 . S
C1005 H1009 0.930 . S
C1006 C1005 1.369 . S
C1006 C1015 1.429 . S
C1007 C1005 1.419 . S
C1007 C1008 1.363 . S
C1007 H1010 0.929 . S
C1008 C1007 1.363 . S
C1008 C1014 1.428 . S
H1009 C1005 0.930 . S
H1010 C1007 0.929 . S
S1011 N1012 1.613 . S
S1011 N1013 1.610 . S
N1012 S1011 1.613 . S
N1012 C1015 1.350 . S
N1013 S1011 1.610 . S
N1013 C1014 1.351 . S
C1014 C1008 1.428 . S
C1014 N1013 1.351 . S
C1014 C1015 1.434 . S
C1015 C1006 1.429 . S
C1015 N1012 1.350 . S
C1015 C1014 1.434 . S
C1016 C1017 1.369 . S
C1016 C1018 1.419 . S
C1016 H1020 0.930 . S
C1017 C1016 1.369 . S
C1017 C1026 1.429 . S
C1018 C1016 1.419 . S
C1018 C1019 1.363 . S
C1018 H1021 0.929 . S
C1019 C1018 1.363 . S
C1019 C1025 1.428 . S
H1020 C1016 0.930 . S
H1021 C1018 0.929 . S
S1022 N1023 1.613 . S
S1022 N1024 1.610 . S
N1023 S1022 1.613 . S
N1023 C1026 1.350 . S
N1024 S1022 1.610 . S
N1024 C1025 1.351 . S
C1025 C1019 1.428 . S
C1025 N1024 1.351 . S
C1025 C1026 1.434 . S
C1026 C1017 1.429 . S
C1026 N1023 1.350 . S
C1026 C1025 1.434 . S
C1027 C1028 1.369 . S
C1027 C1029 1.419 . S
C1027 H1031 0.930 . S
C1028 C1027 1.369 . S
C1028 C1037 1.429 . S
C1029 C1027 1.419 . S
C1029 C1030 1.363 . S
C1029 H1032 0.929 . S
C1030 C1029 1.363 . S
C1030 C1036 1.428 . S
H1031 C1027 0.930 . S
H1032 C1029 0.929 . S
S1033 N1034 1.613 . S
S1033 N1035 1.610 1_554 S
N1034 S1033 1.613 . S
N1034 C1037 1.350 1_554 S
N1035 S1033 1.610 1_556 S
N1035 C1036 1.351 . S
C1036 C1030 1.428 . S
C1036 N1035 1.351 . S
C1036 C1037 1.434 . S
C1037 C1028 1.429 . S
C1037 N1034 1.350 1_556 S
C1037 C1036 1.434 . S
C1038 C1039 1.369 . S
C1038 C1040 1.419 . S
C1038 H1042 0.930 1_556 S
C1039 C1038 1.369 . S
C1039 C1048 1.429 . S
C1040 C1038 1.419 . S
C1040 C1041 1.363 . S
C1040 H1043 0.929 . S
C1041 C1040 1.363 . S
C1041 C1047 1.428 . S
H1042 C1038 0.930 1_554 S
H1043 C1040 0.929 . S
S1044 N1045 1.613 . S
S1044 N1046 1.610 . S
N1045 S1044 1.613 . S
N1045 C1048 1.350 . S
N1046 S1044 1.610 . S
N1046 C1047 1.351 . S
C1047 C1041 1.428 . S
C1047 N1046 1.351 . S
C1047 C1048 1.434 . S
C1048 C1039 1.429 . S
C1048 N1045 1.350 . S
C1048 C1047 1.434 . S
C1049 C1050 1.369 . S
C1049 C1051 1.419 . S
C1049 H1053 0.930 . S
C1050 C1049 1.369 . S
C1050 C1059 1.429 . S
C1051 C1049 1.419 . S
C1051 C1052 1.363 . S
C1051 H1054 0.929 . S
C1052 C1051 1.363 . S
C1052 C1058 1.428 . S
H1053 C1049 0.930 . S
H1054 C1051 0.929 . S
S1055 N1056 1.613 . S
S1055 N1057 1.610 1_554 S
N1056 S1055 1.613 . S
N1056 C1059 1.350 1_554 S
N1057 S1055 1.610 1_556 S
N1057 C1058 1.351 . S
C1058 C1052 1.428 . S
C1058 N1057 1.351 . S
C1058 C1059 1.434 . S
C1059 C1050 1.429 . S
C1059 N1056 1.350 1_556 S
C1059 C1058 1.434 . S
C1060 C1061 1.369 . S
C1060 C1062 1.419 . S
C1060 H1064 0.930 . S
C1061 C1060 1.369 . S
C1061 C1070 1.429 . S
C1062 C1060 1.419 . S
C1062 C1063 1.363 . S
C1062 H1065 0.929 . S
C1063 C1062 1.363 . S
C1063 C1069 1.428 . S
H1064 C1060 0.930 . S
H1065 C1062 0.929 . S
S1066 N1067 1.613 . S
S1066 N1068 1.610 . S
N1067 S1066 1.613 . S
N1067 C1070 1.350 . S
N1068 S1066 1.610 . S
N1068 C1069 1.351 . S
C1069 C1063 1.428 . S
C1069 N1068 1.351 . S
C1069 C1070 1.434 . S
C1070 C1061 1.429 . S
C1070 N1067 1.350 . S
C1070 C1069 1.434 . S
C1071 C1072 1.369 . S
C1071 C1073 1.419 . S
C1071 H1075 0.930 . S
C1072 C1071 1.369 . S
C1072 C1081 1.429 . S
C1073 C1071 1.419 . S
C1073 C1074 1.363 . S
C1073 H1076 0.929 . S
C1074 C1073 1.363 . S
C1074 C1080 1.428 . S
H1075 C1071 0.930 . S
H1076 C1073 0.929 . S
S1077 N1078 1.613 . S
S1077 N1079 1.610 . S
N1078 S1077 1.613 . S
N1078 C1081 1.350 . S
N1079 S1077 1.610 . S
N1079 C1080 1.351 . S
C1080 C1074 1.428 . S
C1080 N1079 1.351 . S
C1080 C1081 1.434 . S
C1081 C1072 1.429 . S
C1081 N1078 1.350 . S
C1081 C1080 1.434 . S
C1082 C1083 1.369 . S
C1082 C1084 1.419 . S
C1082 H1086 0.930 . S
C1083 C1082 1.369 . S
C1083 C1092 1.429 . S
C1084 C1082 1.419 . S
C1084 C1085 1.363 . S
C1084 H1087 0.929 . S
C1085 C1084 1.363 . S
C1085 C1091 1.428 . S
H1086 C1082 0.930 . S
H1087 C1084 0.929 . S
S1088 N1089 1.613 . S
S1088 N1090 1.610 . S
N1089 S1088 1.613 . S
N1089 C1092 1.350 . S
N1090 S1088 1.610 . S
N1090 C1091 1.351 . S
C1091 C1085 1.428 . S
C1091 N1090 1.351 . S
C1091 C1092 1.434 . S
C1092 C1083 1.429 . S
C1092 N1089 1.350 . S
C1092 C1091 1.434 . S
C1093 C1094 1.369 . S
C1093 C1095 1.419 . S
C1093 H1097 0.930 . S
C1094 C1093 1.369 . S
C1094 C1103 1.429 . S
C1095 C1093 1.419 . S
C1095 C1096 1.363 . S
C1095 H1098 0.929 . S
C1096 C1095 1.363 . S
C1096 C1102 1.428 . S
H1097 C1093 0.930 . S
H1098 C1095 0.929 . S
S1099 N1100 1.613 . S
S1099 N1101 1.610 . S
N1100 S1099 1.613 . S
N1100 C1103 1.350 . S
N1101 S1099 1.610 . S
N1101 C1102 1.351 . S
C1102 C1096 1.428 . S
C1102 N1101 1.351 . S
C1102 C1103 1.434 . S
C1103 C1094 1.429 . S
C1103 N1100 1.350 . S
C1103 C1102 1.434 . S
C1104 C1105 1.369 . S
C1104 C1106 1.419 . S
C1104 H1108 0.930 . S
C1105 C1104 1.369 . S
C1105 C1114 1.429 . S
C1106 C1104 1.419 . S
C1106 C1107 1.363 . S
C1106 H1109 0.929 . S
C1107 C1106 1.363 . S
C1107 C1113 1.428 . S
H1108 C1104 0.930 . S
H1109 C1106 0.929 . S
S1110 N1111 1.613 . S
S1110 N1112 1.610 . S
N1111 S1110 1.613 . S
N1111 C1114 1.350 . S
N1112 S1110 1.610 . S
N1112 C1113 1.351 . S
C1113 C1107 1.428 . S
C1113 N1112 1.351 . S
C1113 C1114 1.434 . S
C1114 C1105 1.429 . S
C1114 N1111 1.350 . S
C1114 C1113 1.434 . S
C1115 C1116 1.369 . S
C1115 C1117 1.419 . S
C1115 H1119 0.930 . S
C1116 C1115 1.369 . S
C1116 C1125 1.429 . S
C1117 C1115 1.419 . S
C1117 C1118 1.363 . S
C1117 H1120 0.929 . S
C1118 C1117 1.363 . S
C1118 C1124 1.428 . S
H1119 C1115 0.930 . S
H1120 C1117 0.929 . S
S1121 N1122 1.613 . S
S1121 N1123 1.610 . S
N1122 S1121 1.613 . S
N1122 C1125 1.350 . S
N1123 S1121 1.610 . S
N1123 C1124 1.351 . S
C1124 C1118 1.428 . S
C1124 N1123 1.351 . S
C1124 C1125 1.434 . S
C1125 C1116 1.429 . S
C1125 N1122 1.350 . S
C1125 C1124 1.434 . S
C1126 C1127 1.369 . S
C1126 C1128 1.419 . S
C1126 H1130 0.930 . S
C1127 C1126 1.369 . S
C1127 C1136 1.429 . S
C1128 C1126 1.419 . S
C1128 C1129 1.363 . S
C1128 H1131 0.929 . S
C1129 C1128 1.363 . S
C1129 C1135 1.428 . S
H1130 C1126 0.930 . S
H1131 C1128 0.929 . S
S1132 N1133 1.613 . S
S1132 N1134 1.610 . S
N1133 S1132 1.613 . S
N1133 C1136 1.350 . S
N1134 S1132 1.610 . S
N1134 C1135 1.351 . S
C1135 C1129 1.428 . S
C1135 N1134 1.351 . S
C1135 C1136 1.434 . S
C1136 C1127 1.429 . S
C1136 N1133 1.350 . S
C1136 C1135 1.434 . S
C1137 C1138 1.369 . S
C1137 C1139 1.419 . S
C1137 H1141 0.930 . S
C1138 C1137 1.369 . S
C1138 C1147 1.429 1_455 S
C1139 C1137 1.419 . S
C1139 C1140 1.363 . S
C1139 H1142 0.929 . S
C1140 C1139 1.363 . S
C1140 C1146 1.428 1_455 S
H1141 C1137 0.930 . S
H1142 C1139 0.929 . S
S1143 N1144 1.613 . S
S1143 N1145 1.610 . S
N1144 S1143 1.613 . S
N1144 C1147 1.350 . S
N1145 S1143 1.610 . S
N1145 C1146 1.351 . S
C1146 C1140 1.428 1_655 S
C1146 N1145 1.351 . S
C1146 C1147 1.434 . S
C1147 C1138 1.429 1_655 S
C1147 N1144 1.350 . S
C1147 C1146 1.434 . S
C1148 C1149 1.369 . S
C1148 C1150 1.419 . S
C1148 H1152 0.930 . S
C1149 C1148 1.369 . S
C1149 C1158 1.429 . S
C1150 C1148 1.419 . S
C1150 C1151 1.363 . S
C1150 H1153 0.929 . S
C1151 C1150 1.363 . S
C1151 C1157 1.428 . S
H1152 C1148 0.930 . S
H1153 C1150 0.929 . S
S1154 N1155 1.613 . S
S1154 N1156 1.610 . S
N1155 S1154 1.613 . S
N1155 C1158 1.350 . S
N1156 S1154 1.610 . S
N1156 C1157 1.351 . S
C1157 C1151 1.428 . S
C1157 N1156 1.351 . S
C1157 C1158 1.434 . S
C1158 C1149 1.429 . S
C1158 N1155 1.350 . S
C1158 C1157 1.434 . S
C1159 C1160 1.369 1_545 S
C1159 C1161 1.419 . S
C1159 H1163 0.930 . S
C1160 C1159 1.369 1_565 S
C1160 C1169 1.429 . S
C1161 C1159 1.419 . S
C1161 C1162 1.363 1_545 S
C1161 H1164 0.929 . S
C1162 C1161 1.363 1_565 S
C1162 C1168 1.428 . S
H1163 C1159 0.930 . S
H1164 C1161 0.929 . S
S1165 N1166 1.613 . S
S1165 N1167 1.610 . S
N1166 S1165 1.613 . S
N1166 C1169 1.350 . S
N1167 S1165 1.610 . S
N1167 C1168 1.351 . S
C1168 C1162 1.428 . S
C1168 N1167 1.351 . S
C1168 C1169 1.434 . S
C1169 C1160 1.429 . S
C1169 N1166 1.350 . S
C1169 C1168 1.434 . S
C1170 C1171 1.369 . S
C1170 C1172 1.419 . S
C1170 H1174 0.930 . S
C1171 C1170 1.369 . S
C1171 C1180 1.429 1_565 S
C1172 C1170 1.419 . S
C1172 C1173 1.413 . S
C1172 H1175 0.929 . S
C1173 C1172 1.413 . S
C1173 C1179 1.408 1_565 S
H1174 C1170 0.930 . S
H1175 C1172 0.929 . S
S1176 N1177 1.613 . S
S1176 N1178 1.610 . S
N1177 S1176 1.613 . S
N1177 C1180 1.350 . S
N1178 S1176 1.610 . S
N1178 C1179 1.351 . S
C1179 C1173 1.408 1_545 S
C1179 N1178 1.351 . S
C1179 C1180 1.434 . S
C1180 C1171 1.429 1_545 S
C1180 N1177 1.350 . S
C1180 C1179 1.434 . S
C1181 C1182 1.369 1_655 S
C1181 C1183 1.419 . S
C1181 H1185 0.930 . S
C1182 C1181 1.369 1_455 S
C1182 C1191 1.429 . S
C1183 C1181 1.419 . S
C1183 C1184 1.327 1_655 S
C1183 H1186 0.929 . S
C1184 C1183 1.327 1_455 S
C1184 C1190 1.450 . S
H1185 C1181 0.930 . S
H1186 C1183 0.929 . S
S1187 N1188 1.613 . S
S1187 N1189 1.610 . S
N1188 S1187 1.613 . S
N1188 C1191 1.350 . S
N1189 S1187 1.610 . S
N1189 C1190 1.351 . S
C1190 C1184 1.450 . S
C1190 N1189 1.351 . S
C1190 C1191 1.434 . S
C1191 C1182 1.429 . S
C1191 N1188 1.350 . S
C1191 C1190 1.434 . S
C1192 C1193 1.369 . S
C1192 C1194 1.419 . S
C1192 H1196 0.930 . S
C1193 C1192 1.369 . S
C1193 C1202 1.429 . S
C1194 C1192 1.419 . S
C1194 C1195 1.363 . S
C1194 H1197 0.929 . S
C1195 C1194 1.363 . S
C1195 C1201 1.428 . S
H1196 C1192 0.930 . S
H1197 C1194 0.929 . S
S1198 N1199 1.613 . S
S1198 N1200 1.610 . S
N1199 S1198 1.613 . S
N1199 C1202 1.350 . S
N1200 S1198 1.610 . S
N1200 C1201 1.351 . S
C1201 C1195 1.428 . S
C1201 N1200 1.351 . S
C1201 C1202 1.434 . S
C1202 C1193 1.429 . S
C1202 N1199 1.350 . S
C1202 C1201 1.434 . S
C1203 C1204 1.369 . S
C1203 C1205 1.419 . S
C1203 H1207 0.930 . S
C1204 C1203 1.369 . S
C1204 C1213 1.429 . S
C1205 C1203 1.419 . S
C1205 C1206 1.363 . S
C1205 H1208 0.929 . S
C1206 C1205 1.363 . S
C1206 C1212 1.428 . S
H1207 C1203 0.930 . S
H1208 C1205 0.929 . S
S1209 N1210 1.613 . S
S1209 N1211 1.610 . S
N1210 S1209 1.613 . S
N1210 C1213 1.350 . S
N1211 S1209 1.610 . S
N1211 C1212 1.351 . S
C1212 C1206 1.428 . S
C1212 N1211 1.351 . S
C1212 C1213 1.434 . S
C1213 C1204 1.429 . S
C1213 N1210 1.350 . S
C1213 C1212 1.434 . S
C1214 C1215 1.369 . S
C1214 C1216 1.419 . S
C1214 H1218 0.930 . S
C1215 C1214 1.369 . S
C1215 C1224 1.429 . S
C1216 C1214 1.419 . S
C1216 C1217 1.363 . S
C1216 H1219 0.929 . S
C1217 C1216 1.363 . S
C1217 C1223 1.428 . S
H1218 C1214 0.930 . S
H1219 C1216 0.929 . S
S1220 N1221 1.613 . S
S1220 N1222 1.610 . S
N1221 S1220 1.613 . S
N1221 C1224 1.350 . S
N1222 S1220 1.610 . S
N1222 C1223 1.351 . S
C1223 C1217 1.428 . S
C1223 N1222 1.351 . S
C1223 C1224 1.434 . S
C1224 C1215 1.429 . S
C1224 N1221 1.350 . S
C1224 C1223 1.434 . S
C1225 C1226 1.369 . S
C1225 C1227 1.419 . S
C1225 H1229 0.930 . S
C1226 C1225 1.369 . S
C1226 C1235 1.429 . S
C1227 C1225 1.419 . S
C1227 C1228 1.363 . S
C1227 H1230 0.929 . S
C1228 C1227 1.363 . S
C1228 C1234 1.428 . S
H1229 C1225 0.930 . S
H1230 C1227 0.929 . S
S1231 N1232 1.613 . S
S1231 N1233 1.610 . S
N1232 S1231 1.613 . S
N1232 C1235 1.350 . S
N1233 S1231 1.610 . S
N1233 C1234 1.351 . S
C1234 C1228 1.428 . S
C1234 N1233 1.351 . S
C1234 C1235 1.434 . S
C1235 C1226 1.429 . S
C1235 N1232 1.350 . S
C1235 C1234 1.434 . S
C1236 C1237 1.369 . S
C1236 C1238 1.419 . S
C1236 H1240 0.943 1_545 S
C1237 C1236 1.369 . S
C1237 C1246 1.429 . S
C1238 C1236 1.419 . S
C1238 C1239 1.363 . S
C1238 H1241 0.929 1_545 S
C1239 C1238 1.363 . S
C1239 C1245 1.428 . S
H1240 C1236 0.943 1_565 S
H1241 C1238 0.929 1_565 S
S1242 N1243 1.613 . S
S1242 N1244 1.610 . S
N1243 S1242 1.613 . S
N1243 C1246 1.350 . S
N1244 S1242 1.610 . S
N1244 C1245 1.351 . S
C1245 C1239 1.428 . S
C1245 N1244 1.351 . S
C1245 C1246 1.434 . S
C1246 C1237 1.429 . S
C1246 N1243 1.350 . S
C1246 C1245 1.434 . S
C1247 C1248 1.369 1_455 S
C1247 C1249 1.419 . S
C1247 H1251 0.930 . S
C1248 C1247 1.369 1_655 S
C1248 C1257 1.429 . S
C1249 C1247 1.419 . S
C1249 C1250 1.363 1_455 S
C1249 H1252 0.929 . S
C1250 C1249 1.363 1_655 S
C1250 C1256 1.428 . S
H1251 C1247 0.930 . S
H1252 C1249 0.929 . S
S1253 N1254 1.613 . S
S1253 N1255 1.610 . S
N1254 S1253 1.613 . S
N1254 C1257 1.350 . S
N1255 S1253 1.610 . S
N1255 C1256 1.351 . S
C1256 C1250 1.428 . S
C1256 N1255 1.351 . S
C1256 C1257 1.434 . S
C1257 C1248 1.429 . S
C1257 N1254 1.350 . S
C1257 C1256 1.434 . S
C1258 C1259 1.369 . S
C1258 C1260 1.419 . S
C1258 H1262 0.930 . S
C1259 C1258 1.369 . S
C1259 C1268 1.429 . S
C1260 C1258 1.419 . S
C1260 C1261 1.363 . S
C1260 H1263 0.929 . S
C1261 C1260 1.363 . S
C1261 C1267 1.428 . S
H1262 C1258 0.930 . S
H1263 C1260 0.929 . S
S1264 N1265 1.613 . S
S1264 N1266 1.610 . S
N1265 S1264 1.613 . S
N1265 C1268 1.350 . S
N1266 S1264 1.610 . S
N1266 C1267 1.351 . S
C1267 C1261 1.428 . S
C1267 N1266 1.351 . S
C1267 C1268 1.434 . S
C1268 C1259 1.429 . S
C1268 N1265 1.350 . S
C1268 C1267 1.434 . S
C1269 C1270 1.369 . S
C1269 C1271 1.419 . S
C1269 H1273 0.930 . S
C1270 C1269 1.369 . S
C1270 C1279 1.429 . S
C1271 C1269 1.419 . S
C1271 C1272 1.363 . S
C1271 H1274 0.929 . S
C1272 C1271 1.363 . S
C1272 C1278 1.428 . S
H1273 C1269 0.930 . S
H1274 C1271 0.929 . S
S1275 N1276 1.613 . S
S1275 N1277 1.610 . S
N1276 S1275 1.613 . S
N1276 C1279 1.350 . S
N1277 S1275 1.610 . S
N1277 C1278 1.351 . S
C1278 C1272 1.428 . S
C1278 N1277 1.351 . S
C1278 C1279 1.434 . S
C1279 C1270 1.429 . S
C1279 N1276 1.350 . S
C1279 C1278 1.434 . S
C1280 C1281 1.369 . S
C1280 C1282 1.419 . S
C1280 H1284 0.930 . S
C1281 C1280 1.369 . S
C1281 C1290 1.429 . S
C1282 C1280 1.419 . S
C1282 C1283 1.363 . S
C1282 H1285 0.929 . S
C1283 C1282 1.363 . S
C1283 C1289 1.428 . S
H1284 C1280 0.930 . S
H1285 C1282 0.929 . S
S1286 N1287 1.613 . S
S1286 N1288 1.610 . S
N1287 S1286 1.613 . S
N1287 C1290 1.350 . S
N1288 S1286 1.610 . S
N1288 C1289 1.351 . S
C1289 C1283 1.428 . S
C1289 N1288 1.351 . S
C1289 C1290 1.434 . S
C1290 C1281 1.429 . S
C1290 N1287 1.350 . S
C1290 C1289 1.434 . S
C1291 C1292 1.369 . S
C1291 C1293 1.419 . S
C1291 H1295 0.930 . S
C1292 C1291 1.369 . S
C1292 C1301 1.429 . S
C1293 C1291 1.419 . S
C1293 C1294 1.363 . S
C1293 H1296 0.929 . S
C1294 C1293 1.363 . S
C1294 C1300 1.428 . S
H1295 C1291 0.930 . S
H1296 C1293 0.929 . S
S1297 N1298 1.613 . S
S1297 N1299 1.610 . S
N1298 S1297 1.613 . S
N1298 C1301 1.350 . S
N1299 S1297 1.610 . S
N1299 C1300 1.351 . S
C1300 C1294 1.428 . S
C1300 N1299 1.351 . S
C1300 C1301 1.434 . S
C1301 C1292 1.429 . S
C1301 N1298 1.350 . S
C1301 C1300 1.434 . S
C1302 C1303 1.369 . S
C1302 C1304 1.419 . S
C1302 H1306 0.930 . S
C1303 C1302 1.369 . S
C1303 C1312 1.429 . S
C1304 C1302 1.419 . S
C1304 C1305 1.363 . S
C1304 H1307 0.929 . S
C1305 C1304 1.363 . S
C1305 C1311 1.428 . S
H1306 C1302 0.930 . S
H1307 C1304 0.929 . S
S1308 N1309 1.613 . S
S1308 N1310 1.610 . S
N1309 S1308 1.613 . S
N1309 C1312 1.350 . S
N1310 S1308 1.610 . S
N1310 C1311 1.351 . S
C1311 C1305 1.428 . S
C1311 N1310 1.351 . S
C1311 C1312 1.434 . S
C1312 C1303 1.429 . S
C1312 N1309 1.350 . S
C1312 C1311 1.434 . S
C1313 C1314 1.369 . S
C1313 C1315 1.419 . S
C1313 H1317 0.930 . S
C1314 C1313 1.369 . S
C1314 C1323 1.429 . S
C1315 C1313 1.419 . S
C1315 C1316 1.363 . S
C1315 H1318 0.929 . S
C1316 C1315 1.363 . S
C1316 C1322 1.428 . S
H1317 C1313 0.930 . S
H1318 C1315 0.929 . S
S1319 N1320 1.613 . S
S1319 N1321 1.610 . S
N1320 S1319 1.613 . S
N1320 C1323 1.350 . S
N1321 S1319 1.610 . S
N1321 C1322 1.351 . S
C1322 C1316 1.428 . S
C1322 N1321 1.351 . S
C1322 C1323 1.434 . S
C1323 C1314 1.429 . S
C1323 N1320 1.350 . S
C1323 C1322 1.434 . S
C1324 C1325 1.369 . S
C1324 C1326 1.419 . S
C1324 H1328 0.930 . S
C1325 C1324 1.369 . S
C1325 C1334 1.429 . S
C1326 C1324 1.419 . S
C1326 C1327 1.363 . S
C1326 H1329 0.929 . S
C1327 C1326 1.363 . S
C1327 C1333 1.428 . S
H1328 C1324 0.930 . S
H1329 C1326 0.929 . S
S1330 N1331 1.613 . S
S1330 N1332 1.610 . S
N1331 S1330 1.613 . S
N1331 C1334 1.350 . S
N1332 S1330 1.610 . S
N1332 C1333 1.351 . S
C1333 C1327 1.428 . S
C1333 N1332 1.351 . S
C1333 C1334 1.434 . S
C1334 C1325 1.429 . S
C1334 N1331 1.350 . S
C1334 C1333 1.434 . S
C1335 C1336 1.369 1_455 S
C1335 C1337 1.419 . S
C1335 H1339 0.930 . S
C1336 C1335 1.369 1_655 S
C1336 C1345 1.429 . S
C1337 C1335 1.419 . S
C1337 C1338 1.364 . S
C1337 H1340 0.929 . S
C1338 C1337 1.364 . S
C1338 C1344 1.426 1_455 S
H1339 C1335 0.930 . S
H1340 C1337 0.929 . S
S1341 N1342 1.613 . S
S1341 N1343 1.610 . S
N1342 S1341 1.613 . S
N1342 C1345 1.350 . S
N1343 S1341 1.610 . S
N1343 C1344 1.351 . S
C1344 C1338 1.426 1_655 S
C1344 N1343 1.351 . S
C1344 C1345 1.434 . S
C1345 C1336 1.429 . S
C1345 N1342 1.350 . S
C1345 C1344 1.434 . S
C1346 C1347 1.369 . S
C1346 C1348 1.419 . S
C1346 H1350 0.930 . S
C1347 C1346 1.369 . S
C1347 C1356 1.429 . S
C1348 C1346 1.419 . S
C1348 C1349 1.363 . S
C1348 H1351 0.929 . S
C1349 C1348 1.363 . S
C1349 C1355 1.428 . S
H1350 C1346 0.930 . S
H1351 C1348 0.929 . S
S1352 N1353 1.613 . S
S1352 N1354 1.610 . S
N1353 S1352 1.613 . S
N1353 C1356 1.350 . S
N1354 S1352 1.610 . S
N1354 C1355 1.351 . S
C1355 C1349 1.428 . S
C1355 N1354 1.351 . S
C1355 C1356 1.434 . S
C1356 C1347 1.429 . S
C1356 N1353 1.350 . S
C1356 C1355 1.434 . S
C1357 C1358 1.369 . S
C1357 C1359 1.419 . S
C1357 H1361 0.930 . S
C1358 C1357 1.369 . S
C1358 C1367 1.429 1_545 S
C1359 C1357 1.419 . S
C1359 C1360 1.375 . S
C1359 H1362 0.929 . S
C1360 C1359 1.375 . S
C1360 C1366 1.402 1_545 S
H1361 C1357 0.930 . S
H1362 C1359 0.929 . S
S1363 N1364 1.613 . S
S1363 N1365 1.610 . S
N1364 S1363 1.613 . S
N1364 C1367 1.350 . S
N1365 S1363 1.610 . S
N1365 C1366 1.351 . S
C1366 C1360 1.402 1_565 S
C1366 N1365 1.351 . S
C1366 C1367 1.434 . S
C1367 C1358 1.429 1_565 S
C1367 N1364 1.350 . S
C1367 C1366 1.434 . S
C577 C9 1.550 1_655 S
C579 C421 1.520 . S
C588 C19 1.568 . S
C590 C446 1.541 . S
C601 C457 1.539 . S
C599 C33 1.571 . S
C610 C37 1.557 1_565 S
C612 C482 1.535 . S
C621 C5 1.531 . S
C623 C500 1.517 . S
C632 C23 1.602 . S
C634 C511 1.558 . S
C643 C47 1.536 . S
C645 C493 1.523 . S
C656 C518 1.548 . S
C654 C65 1.572 . S
C667 C475 1.501 . S
C665 C75 1.516 . S
C676 C79 1.528 . S
C678 C464 1.495 . S
C689 C428 1.542 1_655 S
C687 C51 1.555 1_655 S
C698 C61 1.550 . S
C700 C439 1.533 . S
C709 C93 1.648 . S
C711 C529 1.592 . S
C720 C103 1.600 . S
C722 C554 1.574 . S
C733 C565 1.582 . S
C731 C117 1.630 . S
C742 C121 1.615 . S
C744 C266 1.578 . S
C753 C89 1.607 . S
C755 C284 1.572 . S
C764 C107 1.625 . S
C766 C295 1.573 . S
C775 C131 1.561 . S
C777 C277 1.535 . S
C786 C149 1.589 . S
C788 C302 1.563 . S
C799 C259 1.542 . S
C797 C159 1.562 . S
C810 C572 1.552 . S
C808 C163 1.574 . S
C821 C536 1.577 . S
C819 C135 1.605 . S
C832 C547 1.558 . S
C830 C145 1.580 . S
C841 C177 1.615 . S
C843 C313 1.566 . S
C852 C187 1.582 . S
C854 C338 1.559 . S
C863 C201 1.630 . S
C865 C349 1.580 . S
C874 C205 1.645 . S
C876 C374 1.609 . S
C887 C392 1.575 . S
C885 C173 1.609 . S
C898 C403 1.588 . S
C896 C191 1.642 . S
C909 C385 1.567 . S
C907 C215 1.593 . S
C920 C410 1.581 . S
C918 C233 1.607 . S
C929 C243 1.562 . S
C931 C367 1.539 . S
C942 C356 1.516 . S
C940 C247 1.539 . S
C951 C219 1.605 . S
C953 C320 1.577 . S
C964 C331 1.549 . S
C962 C229 1.571 . S
C975 C268 1.430 . S
C973 C11 1.495 . S
C984 C14 1.475 . S
C986 C286 1.404 . S
C997 C296 1.468 . S
C995 C28 1.536 . S
C1008 C314 1.462 . S
C1006 C39 1.532 . S
C1019 C340 1.433 . S
C1017 C0 1.504 . S
C1030 C350 1.377 . S
C1028 C25 1.448 . S
C1039 C42 1.585 . S
C1041 C358 1.480 . S
C1050 C67 1.521 . S
C1052 C322 1.420 . S
C1061 C70 1.505 . S
C1063 C332 1.417 . S
C1072 C81 1.518 . S
C1074 C278 1.434 . S
C1085 C304 1.452 . S
C1083 C53 1.558 . S
C1094 C56 1.541 . S
C1096 C260 1.447 . S
C1107 C376 1.419 . S
C1105 C95 1.487 . S
C1116 C98 1.518 . S
C1118 C394 1.450 . S
C1127 C112 1.567 . S
C1129 C404 1.490 . S
C1140 C422 1.414 . S
C1138 C123 1.473 . S
C1149 C84 1.499 . S
C1151 C448 1.431 . S
C1160 C109 1.434 . S
C1162 C458 1.384 . S
C1171 C126 1.507 . S
C1173 C466 1.432 . S
C1182 C151 1.469 . S
C1184 C430 1.403 . S
C1195 C440 1.422 . S
C1193 C154 1.510 . S
C1204 C165 1.507 . S
C1206 C386 1.412 . S
C1215 C137 1.577 . S
C1217 C412 1.466 . S
C1228 C368 1.493 . S
C1226 C140 1.584 . S
C1239 C484 1.397 . S
C1237 C179 1.457 . S
C1248 C182 1.454 . S
C1250 C502 1.399 . S
C1259 C196 1.532 . S
C1261 C512 1.466 . S
C1272 C530 1.451 . S
C1270 C207 1.523 . S
C1283 C556 1.450 . S
C1281 C168 1.530 . S
C1292 C193 1.499 . S
C1294 C566 1.427 . S
C1303 C210 1.579 . S
C1305 C574 1.472 . S
C1314 C235 1.567 . S
C1316 C538 1.463 . S
C1327 C548 1.446 . S
C1325 C238 1.538 . S
C1338 C494 1.371 . S
C1336 C249 1.437 . S
C1349 C520 1.449 . S
C1347 C221 1.545 . S
C1358 C224 1.490 . S
C1360 C476 1.434 1_545 S
