# Generated by pormake.
# Topology anh, (6,3)-cn, num edge types: 1
# Building blocks:
#     Node 0, Type 0, BuildingBlock: BETFAJ_clean_sbu_0, # of connection points: 6
#     Node 1, Type 0, BuildingBlock: BETFAJ_clean_sbu_0, # of connection points: 6
#     Node 2, Type 0, BuildingBlock: BETFAJ_clean_sbu_0, # of connection points: 6
#     Node 3, Type 1, BuildingBlock: MIDCAF_clean_linker_0, # of connection points: 3
#     Node 4, Type 1, BuildingBlock: MIDCAF_clean_linker_0, # of connection points: 3
#     Node 5, Type 1, BuildingBlock: MIDCAF_clean_linker_0, # of connection points: 3
#     Node 6, Type 1, BuildingBlock: MIDCAF_clean_linker_0, # of connection points: 3
#     Node 7, Type 1, BuildingBlock: MIDCAF_clean_linker_0, # of connection points: 3
#     Node 8, Type 1, BuildingBlock: MIDCAF_clean_linker_0, # of connection points: 3
#     Edge 9, Type (0, 1), BuildingBlock: XUDNAN_clean_linker_2, # of connection points: 2
#     Edge 10, Type (0, 1), BuildingBlock: XUDNAN_clean_linker_2, # of connection points: 2
#     Edge 11, Type (0, 1), BuildingBlock: XUDNAN_clean_linker_2, # of connection points: 2
#     Edge 12, Type (0, 1), BuildingBlock: XUDNAN_clean_linker_2, # of connection points: 2
#     Edge 13, Type (0, 1), BuildingBlock: XUDNAN_clean_linker_2, # of connection points: 2
#     Edge 14, Type (0, 1), BuildingBlock: XUDNAN_clean_linker_2, # of connection points: 2
#     Edge 15, Type (0, 1), BuildingBlock: XUDNAN_clean_linker_2, # of connection points: 2
#     Edge 16, Type (0, 1), BuildingBlock: XUDNAN_clean_linker_2, # of connection points: 2
#     Edge 17, Type (0, 1), BuildingBlock: XUDNAN_clean_linker_2, # of connection points: 2
#     Edge 18, Type (0, 1), BuildingBlock: XUDNAN_clean_linker_2, # of connection points: 2
#     Edge 19, Type (0, 1), BuildingBlock: XUDNAN_clean_linker_2, # of connection points: 2
#     Edge 20, Type (0, 1), BuildingBlock: XUDNAN_clean_linker_2, # of connection points: 2
#     Edge 21, Type (0, 1), BuildingBlock: XUDNAN_clean_linker_2, # of connection points: 2
#     Edge 22, Type (0, 1), BuildingBlock: XUDNAN_clean_linker_2, # of connection points: 2
#     Edge 23, Type (0, 1), BuildingBlock: XUDNAN_clean_linker_2, # of connection points: 2
#     Edge 24, Type (0, 1), BuildingBlock: XUDNAN_clean_linker_2, # of connection points: 2
#     Edge 25, Type (0, 1), BuildingBlock: XUDNAN_clean_linker_2, # of connection points: 2
#     Edge 26, Type (0, 1), BuildingBlock: XUDNAN_clean_linker_2, # of connection points: 2
# Relax obj value: 0.184
# Max RMSD: 0.209
# Mean RMSD: 0.156
data_MOF--net-anh--node1-BETFAJ_clean_sbu_0--node2-MIDCAF_clean_linker_0--edge1-XUDNAN_clean_linker_2
_symmetry_space_group_name_H-M    P1
_symmetry_Int_Tables_number       1
_symmetry_cell_setting            triclinic
loop_
_symmetry_equiv_pos_as_xyz
'x, y, z'
_cell_length_a     38.536027
_cell_length_b     43.90086
_cell_length_c     66.409806
_cell_angle_alpha  92.141976
_cell_angle_beta   89.71004
_cell_angle_gamma 128.84109
loop_
_atom_site_label
_atom_site_type_symbol
_atom_site_fract_x
_atom_site_fract_y
_atom_site_fract_z
_atom_type_partial_charge
Sm0 Sm 0.06979 0.51489 0.14561 0.0
Sm1 Sm 1.0237 0.55492 0.15211 0.0
C2 C 0.10631 0.4863 0.12854 0.0
C3 C 0.14371 0.48654 0.13258 0.0
C4 C 0.18018 0.51626 0.14482 0.0
C5 C 0.2148 0.51504 0.14901 0.0
C6 C 0.21294 0.48385 0.14119 0.0
C7 C 0.17623 0.45422 0.12896 0.0
C8 C 0.1419 0.45559 0.12471 0.0
C9 C 0.06735 0.5294 0.18629 0.0
C10 C 0.13238 0.61273 0.15016 0.0
C11 C 0.97491 0.57388 0.16591 0.0
C12 C 0.93282 0.55081 0.1767 0.0
C13 C 0.91844 0.51623 0.18562 0.0
C14 C 0.87497 0.49001 0.19232 0.0
C15 C 0.84527 0.4981 0.19032 0.0
C16 C 0.86071 0.53408 0.18275 0.0
C17 C 0.90423 0.56021 0.17586 0.0
C18 C 0.04207 0.54697 0.113 0.0
C19 C 0.96146 0.45706 0.15136 0.0
O20 O 0.11624 0.51962 0.12366 0.0
O21 O 0.07342 0.46681 0.14108 0.0
O22 O 0.05381 0.53682 0.17159 0.0
O23 O 0.0855 0.51427 0.17951 0.0
O24 O 0.12869 0.58172 0.14365 0.0
O25 O 0.0975 0.60964 0.15627 0.0
O26 O 1.00974 0.58275 0.17578 0.0
O27 O 0.97194 0.56161 0.14724 0.0
O28 O 1.02793 0.52244 0.12649 0.0
O29 O 0.04431 0.57651 0.11957 0.0
O30 O 0.965 0.48867 0.15578 0.0
O31 O 0.99587 0.45944 0.14536 0.0
H32 H 0.18173 0.54019 0.15119 0.0
H33 H 0.24273 0.53818 0.15848 0.0
H34 H 0.17436 0.43025 0.1224 0.0
H35 H 0.11385 0.43241 0.11529 0.0
H36 H 0.93998 0.50841 0.18643 0.0
H37 H 0.86384 0.46249 0.1981 0.0
H38 H 0.83825 0.54076 0.1808 0.0
H39 H 0.91472 0.58665 0.16891 0.0
Sm40 Sm 0.57492 0.01403 0.47752 0.0
Sm41 Sm 0.52523 0.04561 0.47169 0.0
C42 C 0.6057 0.97847 0.49067 0.0
C43 C 0.59475 0.93978 0.49167 0.0
C44 C 0.60689 0.93115 0.5091 0.0
C45 C 0.59914 0.89562 0.51028 0.0
C46 C 0.57908 0.86789 0.49399 0.0
C47 C 0.56621 0.87634 0.47661 0.0
C48 C 0.57384 0.91194 0.47548 0.0
C49 C 0.56672 0.02622 0.438 0.0
C50 C 0.46518 0.95112 0.46979 0.0
C51 C 0.49296 0.08153 0.46132 0.0
C52 C 0.49522 0.11515 0.46796 0.0
C53 C 0.53328 0.14869 0.4778 0.0
C54 C 0.53293 0.17881 0.48529 0.0
C55 C 0.49438 0.17557 0.48326 0.0
C56 C 0.45689 0.14236 0.47291 0.0
C57 C 0.45736 0.11252 0.46534 0.0
C58 C 0.5323 0.03285 0.5112 0.0
C59 C 0.63555 0.10812 0.47604 0.0
O60 O 0.58225 0.9846 0.50173 0.0
O61 O 0.61506 0.99406 0.47306 0.0
O62 O 0.53676 0.01172 0.4509 0.0
O63 O 0.60213 0.03268 0.44529 0.0
O64 O 0.50052 0.95697 0.47774 0.0
O65 O 0.46833 0.9807 0.46299 0.0
O66 O 0.52855 0.08884 0.45343 0.0
O67 O 0.47285 0.05242 0.47338 0.0
O68 O 0.56325 0.04813 0.49871 0.0
O69 O 0.49715 0.02577 0.50336 0.0
O70 O 0.59936 0.10125 0.46855 0.0
O71 O 0.63362 0.07965 0.48357 0.0
H72 H 0.62313 0.95226 0.52174 0.0
H73 H 0.61004 0.89038 0.52377 0.0
H74 H 0.55025 0.85544 0.4639 0.0
H75 H 0.56386 0.91785 0.46191 0.0
H76 H 0.5628 0.15118 0.48009 0.0
H77 H 0.56219 0.2039 0.49332 0.0
H78 H 0.4269 0.13922 0.47087 0.0
H79 H 0.4277 0.08689 0.45778 0.0
Sm80 Sm 0.60956 0.58032 0.84954 0.0
Sm81 Sm 0.55226 0.48655 0.84706 0.0
C82 C 0.66091 0.65595 0.84192 0.0
C83 C 0.6576 0.68721 0.83827 0.0
C84 C 0.62216 0.67991 0.82689 0.0
C85 C 0.62219 0.71083 0.82205 0.0
C86 C 0.65772 0.74968 0.82842 0.0
C87 C 0.6921 0.75645 0.8405 0.0
C88 C 0.69204 0.72563 0.84531 0.0
C89 C 0.58137 0.54374 0.88541 0.0
C90 C 0.49693 0.5262 0.85035 0.0
C91 C 0.5138 0.41259 0.85453 0.0
C92 C 0.52372 0.3856 0.84932 0.0
C93 C 0.56787 0.39923 0.84892 0.0
C94 C 0.57699 0.37361 0.84401 0.0
C95 C 0.54224 0.33366 0.83928 0.0
C96 C 0.49807 0.32021 0.83942 0.0
C97 C 0.48895 0.34589 0.84443 0.0
C98 C 0.56856 0.51542 0.8088 0.0
C99 C 0.6657 0.54113 0.84825 0.0
O100 O 0.6441 0.62796 0.82797 0.0
O101 O 0.65401 0.64329 0.86019 0.0
O102 O 0.59421 0.53476 0.87055 0.0
O103 O 0.58789 0.5761 0.88248 0.0
O104 O 0.53606 0.56118 0.8468 0.0
O105 O 0.49624 0.49525 0.85287 0.0
O106 O 0.54175 0.44214 0.86707 0.0
O107 O 0.501 0.42248 0.83968 0.0
O108 O 0.57988 0.53384 0.82552 0.0
O109 O 0.54849 0.47894 0.81199 0.0
O110 O 0.62579 0.50533 0.84716 0.0
O111 O 0.66721 0.57286 0.84894 0.0
H112 H 0.59504 0.65048 0.82131 0.0
H113 H 0.59528 0.70448 0.81266 0.0
H114 H 0.71957 0.78579 0.84602 0.0
H115 H 0.7196 0.732 0.85418 0.0
H116 H 0.59545 0.42976 0.85241 0.0
H117 H 0.61145 0.38526 0.84375 0.0
H118 H 0.47044 0.28964 0.83603 0.0
H119 H 0.45465 0.33468 0.84456 0.0
C120 C 0.40437 0.90472 0.18804 0.0
C121 C 0.40671 0.88994 0.16938 0.0
C122 C 0.44559 0.91509 0.15805 0.0
C123 C 0.4815 0.95315 0.16556 0.0
H124 H 0.58752 0.09921 0.15989 0.0
H125 H 0.64658 0.16446 0.14751 0.0
H126 H 0.73293 0.18667 0.19699 0.0
H127 H 0.67452 0.12207 0.2092 0.0
H128 H 0.62377 0.09158 0.25288 0.0
H129 H 0.62148 0.09266 0.28978 0.0
H130 H 0.48598 0.98504 0.28666 0.0
H131 H 0.4879 0.98378 0.25013 0.0
H132 H 0.43687 0.95174 0.21023 0.0
H133 H 0.37569 0.88661 0.19744 0.0
H134 H 0.44863 0.90518 0.14347 0.0
H135 H 0.51136 0.97102 0.1568 0.0
N136 N 0.55316 0.03599 0.18481 0.0
N137 N 0.58945 0.06851 0.21597 0.0
N138 N 0.52128 0.00543 0.21535 0.0
C139 C 0.58861 0.06856 0.19547 0.0
C140 C 0.55594 0.03719 0.22603 0.0
C141 C 0.51923 1.00403 0.19491 0.0
C142 C 0.62595 0.10522 0.18562 0.0
C143 C 0.61942 0.11772 0.16786 0.0
C144 C 0.65325 0.15536 0.16089 0.0
C145 C 0.69474 0.18127 0.1713 0.0
C146 C 0.70183 0.16777 0.18843 0.0
C147 C 0.668 0.13057 0.19551 0.0
C148 C 0.55594 0.03773 0.24844 0.0
C149 C 0.59353 0.06811 0.26007 0.0
C150 C 0.59235 0.06866 0.2812 0.0
C151 C 0.55342 0.03913 0.29109 0.0
C152 C 0.51624 0.00854 0.27947 0.0
C153 C 0.5175 0.00776 0.25847 0.0
C154 C 0.47961 0.96691 0.18467 0.0
C155 C 0.44001 0.94234 0.1955 0.0
C156 C 0.53011 0.40851 0.56339 0.0
C157 C 0.53152 0.40384 0.54247 0.0
C158 C 0.54507 0.43493 0.53026 0.0
C159 C 0.55574 0.46968 0.53886 0.0
H160 H 0.54555 0.56078 0.528 0.0
H161 H 0.54272 0.6065 0.50972 0.0
H162 H 0.59541 0.68486 0.56254 0.0
H163 H 0.59706 0.6391 0.58086 0.0
H164 H 0.56694 0.592 0.6242 0.0
H165 H 0.57246 0.59776 0.66087 0.0
H166 H 0.61284 0.52542 0.66067 0.0
H167 H 0.60516 0.51818 0.62414 0.0
H168 H 0.53942 0.4454 0.58818 0.0
H169 H 0.52012 0.38513 0.57315 0.0
H170 H 0.54629 0.43194 0.51406 0.0
H171 H 0.5654 0.49295 0.5291 0.0
N172 N 0.56419 0.53592 0.55838 0.0
N173 N 0.57871 0.57375 0.58795 0.0
N174 N 0.57141 0.51687 0.58964 0.0
C175 C 0.57168 0.56792 0.56762 0.0
C176 C 0.57881 0.54848 0.59904 0.0
C177 C 0.564 0.51021 0.56938 0.0
C178 C 0.57128 0.59601 0.55598 0.0
C179 C 0.55655 0.58778 0.5357 0.0
C180 C 0.55507 0.61409 0.52519 0.0
C181 C 0.56845 0.64931 0.53468 0.0
C182 C 0.58381 0.65768 0.55484 0.0
C183 C 0.58506 0.63141 0.56534 0.0
C184 C 0.58524 0.55436 0.62124 0.0
C185 C 0.57719 0.57749 0.632 0.0
C186 C 0.58063 0.58096 0.65307 0.0
C187 C 0.59283 0.56186 0.66388 0.0
C188 C 0.60227 0.53978 0.65299 0.0
C189 C 0.59815 0.53582 0.63197 0.0
C190 C 0.55383 0.47414 0.55985 0.0
C191 C 0.54137 0.44322 0.57198 0.0
C192 C 0.97953 0.56416 0.84661 0.0
C193 C 0.93614 0.5386 0.85527 0.0
C194 C 0.93056 0.50892 0.86654 0.0
C195 C 0.96561 0.50617 0.86964 0.0
H196 H 0.1132 0.47983 0.84557 0.0
H197 H 0.17252 0.47454 0.84055 0.0
H198 H 0.26525 0.58406 0.87374 0.0
H199 H 0.2057 0.589 0.87874 0.0
H200 H 0.12894 0.52604 0.92693 0.0
H201 H 0.12602 0.52443 0.96361 0.0
H202 H 1.03063 0.54546 0.963 0.0
H203 H 1.03352 0.54724 0.92633 0.0
H204 H 0.04683 0.58303 0.84327 0.0
H205 H 0.98727 0.58758 0.83753 0.0
H206 H 0.89925 0.48829 0.87389 0.0
H207 H 0.95878 0.48388 0.87943 0.0
N208 N 0.08126 0.53403 0.8597 0.0
N209 N 0.11279 0.53654 0.8909 0.0
N210 N 0.05053 0.53467 0.89054 0.0
C211 C 0.11403 0.53532 0.87044 0.0
C212 C 0.08175 0.53613 0.90102 0.0
C213 C 0.04878 0.53385 0.87009 0.0
C214 C 0.15308 0.53583 0.86196 0.0
C215 C 0.14639 0.50375 0.85126 0.0
C216 C 0.18131 0.50037 0.84873 0.0
C217 C 0.226 0.52866 0.85673 0.0
C218 C 0.23285 0.56123 0.86692 0.0
C219 C 0.19781 0.56427 0.86967 0.0
C220 C 0.08131 0.53658 0.92352 0.0
C221 C 0.10747 0.53054 0.93456 0.0
C222 C 0.10565 0.52941 0.95563 0.0
C223 C 0.07798 0.53469 0.96628 0.0
C224 C 0.05258 0.54161 0.95531 0.0
C225 C 0.05405 0.54235 0.93422 0.0
C226 C 1.00914 0.53202 0.86134 0.0
C227 C 1.01454 0.56109 0.84955 0.0
C228 C 0.20351 0.65301 0.43666 0.0
C229 C 0.19829 0.67081 0.45311 0.0
C230 C 0.15756 0.64802 0.46335 0.0
C231 C 0.12235 0.60924 0.45667 0.0
H232 H 1.02123 0.45265 0.45891 0.0
H233 H 0.96078 0.38862 0.47117 0.0
H234 H 0.86632 0.38739 0.43534 0.0
H235 H 0.92757 0.44975 0.42203 0.0
H236 H 0.97393 0.47921 0.37368 0.0
H237 H 0.97031 0.48122 0.33702 0.0
H238 H 0.11363 0.56719 0.33609 0.0
H239 H 0.11743 0.56565 0.37268 0.0
H240 H 0.17279 0.60278 0.41642 0.0
H241 H 0.23407 0.66953 0.42831 0.0
H242 H 0.15241 0.66063 0.47618 0.0
H243 H 0.09087 0.59328 0.46429 0.0
N244 N 0.05318 0.52424 0.43958 0.0
N245 N 1.01447 0.49202 0.40882 0.0
N246 N 0.0845 0.55394 0.40877 0.0
C247 C 1.01663 0.49215 0.42927 0.0
C248 C 0.04836 0.52261 0.39846 0.0
C249 C 0.08731 0.55548 0.42922 0.0
C250 C 0.97931 0.4565 0.43959 0.0
C251 C 0.9874 0.43882 0.45393 0.0
C252 C 0.95225 0.40178 0.461 0.0
C253 C 0.90757 0.38162 0.45435 0.0
C254 C 0.89973 0.40057 0.44058 0.0
C255 C 0.93499 0.43696 0.43312 0.0
C256 C 0.04595 0.52237 0.37614 0.0
C257 C 1.00469 0.49839 0.36566 0.0
C258 C 1.00256 0.49968 0.34469 0.0
C259 C 0.04169 0.5244 0.33373 0.0
C260 C 0.08297 0.54769 0.34414 0.0
C261 C 0.08507 0.54694 0.36511 0.0
C262 C 0.12674 0.59253 0.43938 0.0
C263 C 0.16818 0.61466 0.42981 0.0
C264 C 0.56916 0.13396 0.76545 0.0
C265 C 0.57443 0.13849 0.78656 0.0
C266 C 0.5813 0.11487 0.79662 0.0
C267 C 0.58344 0.08795 0.78585 0.0
H268 H 0.57838 0.98379 0.79025 0.0
H269 H 0.59544 0.94382 0.80519 0.0
H270 H 0.64964 0.94098 0.74886 0.0
H271 H 0.63216 0.97975 0.73388 0.0
H272 H 0.56653 0.97181 0.69552 0.0
H273 H 0.5558 0.96536 0.65901 0.0
H274 H 0.57798 0.07468 0.65945 0.0
H275 H 0.58832 0.08118 0.69618 0.0
H276 H 0.56758 0.10506 0.73845 0.0
H277 H 0.56444 0.15188 0.7571 0.0
H278 H 0.5849 0.11707 0.81289 0.0
H279 H 0.58903 0.07054 0.79414 0.0
N280 N 0.58986 0.03354 0.76228 0.0
N281 N 0.59024 0.00755 0.73079 0.0
N282 N 0.57905 0.05416 0.73242 0.0
C283 C 0.59398 0.00914 0.75121 0.0
C284 C 0.58271 0.02978 0.72125 0.0
C285 C 0.58244 0.05628 0.75293 0.0
C286 C 0.60393 0.98513 0.76085 0.0
C287 C 0.59383 0.97452 0.78107 0.0
C288 C 0.60326 0.95143 0.78958 0.0
C289 C 0.62385 0.93933 0.77816 0.0
C290 C 0.63384 0.94993 0.75803 0.0
C291 C 0.62371 0.97217 0.74945 0.0
C292 C 0.57803 0.02692 0.69888 0.0
C293 C 0.56942 0.99468 0.6879 0.0
C294 C 0.56316 0.99089 0.66697 0.0
C295 C 0.56602 0.01949 0.65639 0.0
C296 C 0.5759 0.05233 0.6672 0.0
C297 C 0.58147 0.05585 0.68825 0.0
C298 C 0.57882 0.08389 0.7647 0.0
C299 C 0.57132 0.10714 0.75471 0.0
C300 C 0.56792 0.33074 0.11944 0.0
C301 C 0.553 0.32346 0.1394 0.0
C302 C 0.50901 0.30831 0.14307 0.0
C303 C 0.48227 0.30475 0.12754 0.0
H304 H 0.39768 0.33188 0.12644 0.0
H305 H 0.37325 0.36626 0.14284 0.0
H306 H 0.39705 0.4266 0.0883 0.0
H307 H 0.4208 0.39232 0.07177 0.0
H308 H 0.42406 0.33605 0.02921 0.0
H309 H 0.45417 0.37108 -0.00182 0.0
H310 H 0.58543 0.41322 0.01651 0.0
H311 H 0.55504 0.37774 0.04767 0.0
H312 H 0.55495 0.33602 0.08902 0.0
H313 H 0.60175 0.34265 0.11609 0.0
H314 H 0.49634 0.30176 0.15822 0.0
H315 H 0.44958 0.29554 0.13117 0.0
N316 N 0.44902 0.33094 0.10084 0.0
N317 N 0.44396 0.34928 0.06914 0.0
N318 N 0.48838 0.33049 0.07387 0.0
C319 C 0.43289 0.3439 0.0888 0.0
C320 C 0.47118 0.34231 0.06149 0.0
C321 C 0.47638 0.32378 0.09354 0.0
C322 C 0.41138 0.35944 0.09781 0.0
C323 C 0.39709 0.35207 0.11785 0.0
C324 C 0.38332 0.37178 0.12728 0.0
C325 C 0.38434 0.39958 0.11692 0.0
C326 C 0.39695 0.40586 0.09671 0.0
C327 C 0.41 0.3858 0.0872 0.0
C328 C 0.48728 0.35439 0.04086 0.0
C329 C 0.45909 0.35176 0.0263 0.0
C330 C 0.47632 0.37174 0.00851 0.0
C331 C 0.52222 0.39522 0.00505 0.0
C332 C 0.54995 0.39556 0.01892 0.0
C333 C 0.53252 0.37499 0.03663 0.0
C334 C 0.49903 0.3163 0.10804 0.0
C335 C 0.54109 0.32708 0.10387 0.0
H336 H 0.20612 0.42079 0.15138 0.0
H337 H 0.30229 0.54347 0.13823 0.0
H338 H 0.36193 0.53759 0.13758 0.0
H339 H 0.28595 0.41386 0.18083 0.0
H340 H 0.25932 0.36549 0.16989 0.0
H341 H 0.22708 0.38178 0.17478 0.0
H342 H 0.2002 0.36582 0.13739 0.0
H343 H 0.23248 0.3499 0.13234 0.0
H344 H 0.24087 0.38784 0.11782 0.0
H345 H 0.40603 0.51524 0.13038 0.0
H346 H 0.43202 0.47868 0.1186 0.0
H347 H 0.30766 0.37038 0.13646 0.0
C348 C 0.24005 0.44667 0.14903 0.0
C349 C 0.24977 0.48255 0.14487 0.0
C350 C 0.29435 0.51584 0.14173 0.0
C351 C 0.3284 0.51274 0.14133 0.0
C352 C 0.31729 0.47635 0.14445 0.0
C353 C 0.27426 0.444 0.14858 0.0
C354 C 0.26963 0.40712 0.14854 0.0
C355 C 0.25993 0.39113 0.16978 0.0
C356 C 0.23371 0.37588 0.1331 0.0
C357 C 0.31585 0.42322 0.14224 0.0
C358 C 0.34319 0.46337 0.14043 0.0
C359 C 0.38548 0.48404 0.13233 0.0
C360 C 0.39981 0.46307 0.12555 0.0
C361 C 0.37184 0.42192 0.12686 0.0
C362 C 0.32998 0.40198 0.13584 0.0
H363 H 0.66615 0.16571 0.4487 0.0
H364 H 0.70372 0.14238 0.50394 0.0
H365 H 0.77567 0.20961 0.50497 0.0
H366 H 0.77602 0.22161 0.42733 0.0
H367 H 0.77152 0.25518 0.41532 0.0
H368 H 0.72215 0.20602 0.41951 0.0
H369 H 0.68789 0.23338 0.43893 0.0
H370 H 0.73726 0.28264 0.43488 0.0
H371 H 0.71817 0.26749 0.46011 0.0
H372 H 0.84274 0.28096 0.50067 0.0
H373 H 0.90207 0.34742 0.48996 0.0
H374 H 0.82526 0.32227 0.43514 0.0
C375 C 0.68944 0.17488 0.46108 0.0
C376 C 0.67899 0.14876 0.47638 0.0
C377 C 0.71082 0.16173 0.49208 0.0
C378 C 0.75178 0.19999 0.49282 0.0
C379 C 0.7611 0.22499 0.47753 0.0
C380 C 0.7311 0.21276 0.46177 0.0
C381 C 0.75039 0.24476 0.44669 0.0
C382 C 0.75531 0.23107 0.42599 0.0
C383 C 0.72172 0.25783 0.44506 0.0
C384 C 0.79569 0.27699 0.4565 0.0
C385 C 0.80091 0.26513 0.4744 0.0
C386 C 0.83924 0.29024 0.48647 0.0
C387 C 0.87327 0.32818 0.48005 0.0
C388 C 0.86978 0.34108 0.46138 0.0
C389 C 0.82985 0.31453 0.44958 0.0
H390 H 0.59046 0.75597 0.82473 0.0
H391 H 0.73196 0.81971 0.81586 0.0
H392 H 0.73861 0.87555 0.80398 0.0
H393 H 0.5708 0.78893 0.78075 0.0
H394 H 0.53148 0.79291 0.79253 0.0
H395 H 0.53766 0.7581 0.80116 0.0
H396 H 0.55418 0.78865 0.83741 0.0
H397 H 0.5482 0.82366 0.82887 0.0
H398 H 0.59871 0.84033 0.84183 0.0
H399 H 0.73017 0.92337 0.79148 0.0
H400 H 0.70687 0.96072 0.77935 0.0
H401 H 0.57115 0.86808 0.7965 0.0
C402 C 0.62284 0.78169 0.8203 0.0
C403 C 0.66081 0.7834 0.82149 0.0
C404 C 0.70253 0.81777 0.81555 0.0
C405 C 0.70665 0.84967 0.80864 0.0
C406 C 0.6688 0.84711 0.80774 0.0
C407 C 0.62766 0.81411 0.81342 0.0
C408 C 0.59226 0.81903 0.8106 0.0
C409 C 0.55591 0.78789 0.79535 0.0
C410 C 0.57215 0.81785 0.83089 0.0
C411 C 0.61991 0.85971 0.80223 0.0
C412 C 0.66399 0.87524 0.80073 0.0
C413 C 0.69584 0.91167 0.79273 0.0
C414 C 0.68231 0.93266 0.78586 0.0
C415 C 0.63737 0.91747 0.78712 0.0
C416 C 0.60586 0.88066 0.79566 0.0
H417 H 0.79563 0.42448 0.17391 0.0
H418 H 0.78632 0.50255 0.21069 0.0
H419 H 0.70408 0.45411 0.20838 0.0
H420 H 0.72051 0.40155 0.13962 0.0
H421 H 0.69678 0.35111 0.1348 0.0
H422 H 0.75273 0.38565 0.14453 0.0
H423 H 0.73241 0.3421 0.17545 0.0
H424 H 0.67672 0.30731 0.16476 0.0
H425 H 0.68506 0.32688 0.19021 0.0
H426 H 0.62625 0.40571 0.19602 0.0
H427 H 0.56121 0.36531 0.17299 0.0
H428 H 0.62023 0.31855 0.14324 0.0
C429 C 0.77616 0.43042 0.18233 0.0
C430 C 0.79702 0.46676 0.19279 0.0
C431 C 0.77074 0.47455 0.20283 0.0
C432 C 0.72409 0.44709 0.20169 0.0
C433 C 0.7044 0.41209 0.19047 0.0
C434 C 0.72971 0.40364 0.18102 0.0
C435 C 0.70145 0.36786 0.16687 0.0
C436 C 0.7189 0.37713 0.1452 0.0
C437 C 0.69871 0.33399 0.17478 0.0
C438 C 0.65707 0.35955 0.16841 0.0
C439 C 0.65899 0.38429 0.18276 0.0
C440 C 0.62391 0.38544 0.18518 0.0
C441 C 0.58691 0.36219 0.17201 0.0
C442 C 0.58558 0.33858 0.15637 0.0
C443 C 0.62025 0.33603 0.15519 0.0
H444 H 0.44665 0.87868 0.46639 0.0
H445 H 0.38333 0.93263 0.47001 0.0
H446 H 0.3094 0.86733 0.46802 0.0
H447 H 0.368 0.80261 0.42965 0.0
H448 H 0.36872 0.76562 0.43998 0.0
H449 H 0.41699 0.81647 0.44295 0.0
H450 H 0.41523 0.81047 0.48161 0.0
H451 H 0.36684 0.75961 0.47878 0.0
H452 H 0.36512 0.79266 0.49482 0.0
H453 H 0.24188 0.79626 0.46604 0.0
H454 H 0.18545 0.72466 0.46076 0.0
H455 H 0.29062 0.71502 0.45613 0.0
C456 C 0.41718 0.87666 0.4669 0.0
C457 C 0.42097 0.911 0.46849 0.0
C458 C 0.38149 0.90698 0.46877 0.0
C459 C 0.33922 0.8699 0.46774 0.0
C460 C 0.33654 0.83672 0.46613 0.0
C461 C 0.3744 0.83964 0.46543 0.0
C462 C 0.36179 0.79917 0.46248 0.0
C463 C 0.37995 0.79578 0.44258 0.0
C464 C 0.37823 0.78994 0.4805 0.0
C465 C 0.31107 0.7732 0.46164 0.0
C466 C 0.29736 0.79556 0.46409 0.0
C467 C 0.25228 0.77847 0.46409 0.0
C468 C 0.22035 0.73761 0.46123 0.0
C469 C 0.23325 0.71386 0.45811 0.0
C470 C 0.27948 0.73218 0.45842 0.0
H471 H 0.50321 0.27351 0.80999 0.0
H472 H 0.60396 0.33156 0.858 0.0
H473 H 0.62196 0.28756 0.85019 0.0
H474 H 0.46486 0.1752 0.81758 0.0
H475 H 0.45653 0.16169 0.79104 0.0
H476 H 0.45097 0.19737 0.80058 0.0
H477 H 0.50967 0.24713 0.77546 0.0
H478 H 0.51547 0.21165 0.76587 0.0
H479 H 0.56378 0.2591 0.77532 0.0
H480 H 0.62975 0.23755 0.83699 0.0
H481 H 0.62786 0.1864 0.81892 0.0
H482 H 0.52124 0.15963 0.77973 0.0
C483 C 0.52875 0.27674 0.819 0.0
C484 C 0.55223 0.30626 0.83461 0.0
C485 C 0.58587 0.30968 0.8458 0.0
C486 C 0.59617 0.2846 0.84156 0.0
C487 C 0.5726 0.25604 0.82605 0.0
C488 C 0.53961 0.25197 0.81492 0.0
C489 C 0.51993 0.2193 0.79879 0.0
C490 C 0.47012 0.18644 0.80221 0.0
C491 C 0.52769 0.23526 0.7776 0.0
C492 C 0.54712 0.20577 0.80255 0.0
C493 C 0.57717 0.22726 0.81841 0.0
C494 C 0.60616 0.2204 0.82462 0.0
C495 C 0.6046 0.191 0.81431 0.0
C496 C 0.5743 0.16862 0.79788 0.0
C497 C 0.54511 0.17626 0.79207 0.0
H498 H 0.5513 0.82027 0.52606 0.0
H499 H 0.59502 0.83287 0.46443 0.0
H500 H 0.59187 0.77517 0.46717 0.0
H501 H 0.61495 0.79606 0.54587 0.0
H502 H 0.57333 0.76118 0.56305 0.0
H503 H 0.57478 0.80093 0.55556 0.0
H504 H 0.49243 0.75154 0.5431 0.0
H505 H 0.49065 0.71159 0.55064 0.0
H506 H 0.47621 0.71271 0.52506 0.0
H507 H 0.59029 0.7194 0.4778 0.0
H508 H 0.58895 0.66984 0.49514 0.0
H509 H 0.54494 0.69332 0.54956 0.0
C510 C 0.5599 0.81074 0.51307 0.0
C511 C 0.57337 0.83113 0.49501 0.0
C512 C 0.58401 0.81745 0.47833 0.0
C513 C 0.58252 0.7848 0.47978 0.0
C514 C 0.56995 0.76588 0.49795 0.0
C515 C 0.55846 0.7782 0.51424 0.0
C516 C 0.54786 0.75389 0.53233 0.0
C517 C 0.57963 0.77955 0.55025 0.0
C518 C 0.49887 0.73108 0.53812 0.0
C519 C 0.55638 0.72667 0.52388 0.0
C520 C 0.56875 0.73377 0.50399 0.0
C521 C 0.58005 0.71325 0.4933 0.0
C522 C 0.57898 0.68498 0.50326 0.0
C523 C 0.56684 0.67752 0.52375 0.0
C524 C 0.55485 0.69847 0.53398 0.0
H525 H 0.68337 0.48573 0.85342 0.0
H526 H 0.75341 0.60879 0.84431 0.0
H527 H 0.82484 0.62021 0.84475 0.0
H528 H 0.76883 0.50075 0.88785 0.0
H529 H 0.76259 0.45855 0.8783 0.0
H530 H 0.71624 0.45907 0.87687 0.0
H531 H 0.70923 0.44438 0.83858 0.0
H532 H 0.75557 0.44382 0.83984 0.0
H533 H 0.75698 0.47595 0.8231 0.0
H534 H 0.89318 0.61919 0.84576 0.0
H535 H 0.9469 0.60683 0.8485 0.0
H536 H 0.83808 0.48451 0.85816 0.0
C537 C 0.71358 0.51525 0.85145 0.0
C538 C 0.71055 0.54629 0.84869 0.0
C539 C 0.75257 0.58401 0.84641 0.0
C540 C 0.7942 0.59089 0.84663 0.0
C541 C 0.79584 0.56011 0.84935 0.0
C542 C 0.75638 0.52286 0.85187 0.0
C543 C 0.7681 0.49517 0.85495 0.0
C544 C 0.75302 0.4773 0.87573 0.0
C545 C 0.74614 0.46289 0.83812 0.0
C546 C 0.81988 0.52231 0.8537 0.0
C547 C 0.83489 0.55969 0.85033 0.0
C548 C 0.88096 0.58979 0.84837 0.0
C549 C 0.91199 0.58219 0.84984 0.0
C550 C 0.89909 0.54441 0.85343 0.0
C551 C 0.85114 0.5141 0.85546 0.0
H552 H 0.1568 0.68411 0.16483 0.0
H553 H 0.21093 0.63192 0.13618 0.0
H554 H 0.28536 0.69679 0.1366 0.0
H555 H 0.22471 0.7756 0.13893 0.0
H556 H 0.23177 0.8049 0.16072 0.0
H557 H 0.18233 0.75452 0.15772 0.0
H558 H 0.19794 0.74058 0.19267 0.0
H559 H 0.24735 0.79091 0.19579 0.0
H560 H 0.25106 0.75219 0.1978 0.0
H561 H 0.35525 0.76805 0.14066 0.0
H562 H 0.41425 0.83831 0.14917 0.0
H563 H 0.31518 0.84495 0.17483 0.0
C564 C 0.18419 0.68624 0.15855 0.0
C565 C 0.17748 0.65245 0.15041 0.0
C566 C 0.21471 0.65698 0.1425 0.0
C567 C 0.25732 0.69389 0.14263 0.0
C568 C 0.26271 0.72644 0.15075 0.0
C569 C 0.22715 0.72296 0.15861 0.0
C570 C 0.24219 0.76248 0.16687 0.0
C571 C 0.21886 0.77511 0.15537 0.0
C572 C 0.23416 0.76147 0.18963 0.0
C573 C 0.29175 0.78864 0.16256 0.0
C574 C 0.30286 0.76732 0.15314 0.0
C575 C 0.34675 0.785 0.14794 0.0
C576 C 0.38015 0.82523 0.1527 0.0
C577 C 0.36995 0.84783 0.16267 0.0
C578 C 0.3247 0.8289 0.1674 0.0
H579 H 0.55647 0.25628 0.48291 0.0
H580 H 0.42677 0.16187 0.50562 0.0
H581 H 0.42129 0.21007 0.52185 0.0
H582 H 0.59474 0.3214 0.52658 0.0
H583 H 0.6231 0.36514 0.5125 0.0
H584 H 0.61666 0.32327 0.5022 0.0
H585 H 0.57844 0.323 0.47015 0.0
H586 H 0.5846 0.3648 0.48038 0.0
H587 H 0.53026 0.32076 0.47259 0.0
H588 H 0.43056 0.26761 0.5367 0.0
H589 H 0.45389 0.33185 0.54912 0.0
H590 H 0.57684 0.39011 0.51643 0.0
C591 C 0.52699 0.24585 0.49132 0.0
C592 C 0.49188 0.20526 0.49288 0.0
C593 C 0.45374 0.19275 0.50395 0.0
C594 C 0.45039 0.21991 0.51329 0.0
C595 C 0.48535 0.25959 0.51138 0.0
C596 C 0.52289 0.27267 0.50064 0.0
C597 C 0.55568 0.31711 0.5011 0.0
C598 C 0.60017 0.33263 0.5112 0.0
C599 C 0.56264 0.3323 0.47979 0.0
C600 C 0.53089 0.32685 0.514 0.0
C601 C 0.49039 0.29312 0.51973 0.0
C602 C 0.46205 0.29425 0.53222 0.0
C603 C 0.4756 0.33081 0.53922 0.0
C604 C 0.517 0.36581 0.53366 0.0
C605 C 0.54475 0.36377 0.52067 0.0
H606 H 0.47925 0.58244 0.85234 0.0
H607 H 0.40892 0.45745 0.85068 0.0
H608 H 0.33732 0.44569 0.8517 0.0
H609 H 0.40206 0.5802 0.88724 0.0
H610 H 0.40508 0.61796 0.87528 0.0
H611 H 0.45142 0.61737 0.87401 0.0
H612 H 0.44846 0.61695 0.83525 0.0
H613 H 0.40209 0.6175 0.83641 0.0
H614 H 0.39708 0.57945 0.82177 0.0
H615 H 0.26858 0.44638 0.85225 0.0
H616 H 0.21491 0.4591 0.85399 0.0
H617 H 0.32448 0.58394 0.85683 0.0
C618 C 0.44893 0.55241 0.85217 0.0
C619 C 0.45197 0.52091 0.85131 0.0
C620 C 0.40981 0.4826 0.8513 0.0
C621 C 0.36805 0.47551 0.85185 0.0
C622 C 0.36641 0.50673 0.85267 0.0
C623 C 0.40605 0.54466 0.853 0.0
C624 C 0.39441 0.5729 0.85438 0.0
C625 C 0.41446 0.59866 0.87388 0.0
C626 C 0.41156 0.59823 0.83585 0.0
C627 C 0.34249 0.54527 0.85467 0.0
C628 C 0.32728 0.50713 0.85351 0.0
C629 C 0.28098 0.47638 0.85317 0.0
C630 C 0.24995 0.48412 0.85403 0.0
C631 C 0.26307 0.52271 0.85543 0.0
C632 C 0.31128 0.55372 0.85585 0.0
H633 H 0.94215 0.38606 0.15864 0.0
H634 H 0.87926 0.43852 0.14798 0.0
H635 H 0.80517 0.37361 0.14994 0.0
H636 H 0.86116 0.29281 0.13162 0.0
H637 H 0.86297 0.26455 0.14996 0.0
H638 H 0.91124 0.31461 0.14652 0.0
H639 H 0.9127 0.33102 0.18451 0.0
H640 H 0.86455 0.281 0.18808 0.0
H641 H 0.86354 0.3203 0.19564 0.0
H642 H 0.73719 0.30185 0.15141 0.0
H643 H 0.68109 0.23202 0.15867 0.0
H644 H 0.78711 0.22589 0.17075 0.0
C645 C 0.91277 0.38382 0.15652 0.0
C646 C 0.91679 0.41755 0.15281 0.0
C647 C 0.87733 0.41331 0.15067 0.0
C648 C 0.83496 0.37644 0.15167 0.0
C649 C 0.83216 0.34381 0.15518 0.0
C650 C 0.87002 0.34724 0.15797 0.0
C651 C 0.8576 0.30796 0.16299 0.0
C652 C 0.87424 0.29418 0.14681 0.0
C653 C 0.87567 0.31022 0.18405 0.0
C654 C 0.80693 0.28193 0.16253 0.0
C655 C 0.79299 0.30309 0.15762 0.0
C656 C 0.74779 0.28527 0.15572 0.0
C657 C 0.71605 0.24527 0.15961 0.0
C658 C 0.72925 0.22303 0.16539 0.0
C659 C 0.7756 0.24189 0.16662 0.0
H660 H 0.05731 0.58994 0.08009 0.0
H661 H 0.04207 0.48823 0.09809 0.0
H662 H 0.05222 0.4755 0.06287 0.0
H663 H 0.99588 0.54666 0.03337 0.0
H664 H 1.03087 0.59102 0.01979 0.0
H665 H 1.02509 0.59361 0.04659 0.0
H666 H 0.11079 0.63771 0.05164 0.0
H667 H 0.11685 0.63532 0.02484 0.0
H668 H 0.14022 0.621 0.0418 0.0
H669 H 0.06301 0.47322 0.02557 0.0
H670 H 0.07078 0.48 0.98874 0.0
H671 H 0.07652 0.58189 0.99444 0.0
C672 C 0.05651 0.5652 0.07662 0.0
C673 C 0.04939 0.54029 0.09188 0.0
C674 C 0.04792 0.50791 0.0867 0.0
C675 C 0.05359 0.50042 0.06671 0.0
C676 C 0.06032 0.52537 0.05199 0.0
C677 C 0.06159 0.55701 0.05666 0.0
C678 C 0.06756 0.57834 0.03783 0.0
C679 C 1.02746 0.57733 0.03419 0.0
C680 C 0.11147 0.6206 0.03911 0.0
C681 C 0.06927 0.55367 0.02186 0.0
C682 C 0.06541 0.52347 0.0304 0.0
C683 C 0.06617 0.49683 0.01874 0.0
C684 C 0.07084 0.50105 -0.00218 0.0
C685 C 0.07439 0.53151 0.98863 0.0
C686 C 0.07358 0.55812 0.00094 0.0
H687 H 0.62169 0.04505 0.40591 0.0
H688 H 0.49561 0.01696 0.42225 0.0
H689 H 0.48104 0.02121 0.38677 0.0
H690 H 0.64919 0.11382 0.36686 0.0
H691 H 0.67293 0.09779 0.35052 0.0
H692 H 0.67509 0.09506 0.37744 0.0
H693 H 0.63601 0.02101 0.37311 0.0
H694 H 0.63372 0.02351 0.3462 0.0
H695 H 0.58329 0.98911 0.35958 0.0
H696 H 0.47781 0.02478 0.34965 0.0
H697 H 0.48602 0.02739 0.31276 0.0
H698 H 0.61402 0.05304 0.31977 0.0
C699 C 0.59129 0.04024 0.402 0.0
C700 C 0.55974 0.03067 0.4168 0.0
C701 C 0.52017 0.02425 0.41114 0.0
C702 C 0.51165 0.0267 0.39103 0.0
C703 C 0.54308 0.03571 0.37675 0.0
C704 C 0.58216 0.04248 0.38191 0.0
C705 C 0.60939 0.05007 0.36338 0.0
C706 C 0.65432 0.09166 0.36463 0.0
C707 C 0.61597 0.01907 0.36039 0.0
C708 C 0.57912 0.04585 0.34701 0.0
C709 C 0.5412 0.0378 0.35513 0.0
C710 C 0.50745 0.03127 0.3431 0.0
C711 C 0.51231 0.0326 0.32216 0.0
C712 C 0.55058 0.04032 0.3134 0.0
C713 C 0.58467 0.04754 0.32606 0.0
H714 H 0.55814 0.47812 0.77313 0.0
H715 H 0.59595 0.58763 0.79866 0.0
H716 H 0.60997 0.61323 0.76446 0.0
H717 H 0.63552 0.51691 0.73241 0.0
H718 H 0.59605 0.47725 0.71485 0.0
H719 H 0.59207 0.46903 0.74143 0.0
H720 H 0.5103 0.44305 0.74052 0.0
H721 H 0.514 0.45111 0.71395 0.0
H722 H 0.49788 0.47317 0.73085 0.0
H723 H 0.61916 0.62605 0.72693 0.0
H724 H 0.61947 0.62423 0.68972 0.0
H725 H 0.56922 0.50373 0.68924 0.0
C726 C 0.56981 0.50766 0.77155 0.0
C727 C 0.57756 0.53155 0.78859 0.0
C728 C 0.59183 0.56964 0.78589 0.0
C729 C 0.59931 0.58415 0.76649 0.0
C730 C 0.59172 0.55989 0.74998 0.0
C731 C 0.57691 0.52231 0.75235 0.0
C732 C 0.56916 0.50133 0.73224 0.0
C733 C 0.60005 0.49051 0.73011 0.0
C734 C 0.51991 0.46503 0.72922 0.0
C735 C 0.58191 0.53294 0.7181 0.0
C736 C 0.59513 0.56661 0.72856 0.0
C737 C 0.6086 0.59973 0.7186 0.0
C738 C 0.60835 0.59829 0.69743 0.0
C739 C 0.59431 0.56381 0.68638 0.0
C740 C 0.58095 0.53084 0.69705 0.0
H741 H 0.59822 0.07765 0.54048 0.0
H742 H 0.46864 0.96514 0.52842 0.0
H743 H 0.46581 0.94806 0.56375 0.0
H744 H 0.63968 0.04619 0.5779 0.0
H745 H 0.66592 0.09005 0.59371 0.0
H746 H 0.66062 0.09164 0.56689 0.0
H747 H 0.61992 0.12061 0.57316 0.0
H748 H 0.6248 0.11887 0.59997 0.0
H749 H 0.57077 0.09471 0.58826 0.0
H750 H 0.47512 0.94395 0.60033 0.0
H751 H 0.49402 0.95434 0.6367 0.0
H752 H 0.61507 0.07151 0.62641 0.0
C753 C 0.56988 0.04912 0.54527 0.0
C754 C 0.53391 0.02231 0.53178 0.0
C755 C 0.4966 0.98579 0.53859 0.0
C756 C 0.49475 0.97585 0.55858 0.0
C757 C 0.5302 1.00308 0.57169 0.0
C758 C 0.56697 0.0391 0.56543 0.0
C759 C 0.59851 0.0642 0.58312 0.0
C760 C 0.64387 0.07356 0.58023 0.0
C761 C 0.60379 0.10182 0.58631 0.0
C762 C 0.57347 0.03679 0.60026 0.0
C763 C 0.53452 1.00148 0.5932 0.0
C764 C 0.5056 0.97141 0.60603 0.0
C765 C 0.51665 0.97754 0.62666 0.0
C766 C 0.55598 0.01365 0.63435 0.0
C767 C 0.5847 0.04367 0.62093 0.0
H768 H 0.52375 0.46811 0.89644 0.0
H769 H 0.62943 0.58611 0.91933 0.0
H770 H 0.62867 0.56041 0.95207 0.0
H771 H 0.46357 0.43303 0.94281 0.0
H772 H 0.4476 0.38482 0.93903 0.0
H773 H 0.45674 0.41287 0.91763 0.0
H774 H 0.51395 0.40488 0.90441 0.0
H775 H 0.5062 0.37772 0.92599 0.0
H776 H 0.56117 0.42107 0.92016 0.0
H777 H 0.61862 0.52148 0.98156 0.0
H778 H 0.59315 0.47308 0.00755 0.0
H779 H 0.49303 0.38021 0.96552 0.0
C780 C 0.54689 0.48833 0.90833 0.0
C781 C 0.57707 0.52887 0.90545 0.0
C782 C 0.60596 0.5549 0.92143 0.0
C783 C 0.60602 0.54055 0.93995 0.0
C784 C 0.57666 0.50018 0.94217 0.0
C785 C 0.54707 0.47448 0.92692 0.0
C786 C 0.51791 0.43257 0.93341 0.0
C787 C 0.46854 0.41479 0.93321 0.0
C788 C 0.52528 0.40761 0.92021 0.0
C789 C 0.53579 0.4387 0.95468 0.0
C790 C 0.57003 0.47786 0.95934 0.0
C791 C 0.59182 0.49075 0.9781 0.0
C792 C 0.57742 0.46301 0.99269 0.0
C793 C 0.54132 0.42291 0.98849 0.0
C794 C 0.52074 0.41067 0.96913 0.0
H795 H 0.10543 0.52367 0.21898 0.0
H796 H 1.01222 0.54276 0.20208 0.0
H797 H 0.99554 0.54396 0.23797 0.0
H798 H 0.04343 0.46045 0.25891 0.0
H799 H 0.09134 0.48004 0.275 0.0
H800 H 0.09686 0.48192 0.24804 0.0
H801 H 0.15925 0.55706 0.25135 0.0
H802 H 0.15414 0.5554 0.27834 0.0
H803 H 0.14866 0.58694 0.26467 0.0
H804 H 0.98592 0.539 0.27569 0.0
H805 H 0.9884 0.5336 0.31253 0.0
H806 H 0.09009 0.5202 0.30495 0.0
C807 C 0.08186 0.5285 0.22288 0.0
C808 C 0.06011 0.53329 0.20779 0.0
C809 C 1.02943 0.53943 0.21343 0.0
C810 C 1.01965 0.53996 0.23377 0.0
C811 C 0.04127 0.5347 0.2483 0.0
C812 C 0.07216 0.52957 0.24313 0.0
C813 C 0.09077 0.5246 0.26164 0.0
C814 C 0.07994 0.48436 0.26084 0.0
C815 C 0.1412 0.558 0.26414 0.0
C816 C 0.06521 0.52733 0.27802 0.0
C817 C 0.03661 0.53289 0.27001 0.0
C818 C 1.00846 0.53498 0.28214 0.0
C819 C 1.00988 0.53165 0.30301 0.0
C820 C 0.03952 0.52664 0.31156 0.0
C821 C 0.06748 0.52448 0.29883 0.0
loop_
_geom_bond_atom_site_label_1
_geom_bond_atom_site_label_2
_geom_bond_distance
_geom_bond_site_symmetry_2
_ccdc_geom_bond_type
Sm0 C2 2.846 . S
Sm0 O20 2.543 . S
Sm0 O21 2.450 . S
Sm0 O22 2.681 . S
Sm0 O23 2.464 . S
Sm0 O24 2.396 . S
Sm0 O28 2.386 . S
Sm0 O31 2.408 1_455 S
Sm1 C11 2.846 . S
Sm1 O22 2.386 1_655 S
Sm1 O25 2.408 1_655 S
Sm1 O26 2.543 . S
Sm1 O27 2.450 . S
Sm1 O28 2.681 1_655 S
Sm1 O29 2.464 . S
Sm1 O30 2.396 . S
C2 Sm0 2.846 . S
C2 C3 1.506 . S
C2 O20 1.261 . S
C2 O21 1.242 . S
C3 C2 1.506 . S
C3 C4 1.358 . S
C3 C8 1.382 . S
C4 C3 1.358 . S
C4 C5 1.385 . S
C4 H32 0.930 . S
C5 C4 1.385 . S
C5 C6 1.395 . S
C5 H33 0.929 . S
C6 C5 1.395 . S
C6 C7 1.335 . S
C7 C6 1.335 . S
C7 C8 1.398 . S
C7 H34 0.930 . S
C8 C3 1.382 . S
C8 C7 1.398 . S
C8 H35 0.929 . S
C9 O22 1.271 . S
C9 O23 1.251 . S
C10 O24 1.252 . S
C10 O25 1.272 . S
C11 Sm1 2.846 . S
C11 C12 1.506 . S
C11 O26 1.261 . S
C11 O27 1.242 . S
C12 C11 1.506 . S
C12 C13 1.358 . S
C12 C17 1.382 . S
C13 C12 1.358 . S
C13 C14 1.385 . S
C13 H36 0.930 . S
C14 C13 1.385 . S
C14 C15 1.395 . S
C14 H37 0.929 . S
C15 C14 1.395 . S
C15 C16 1.335 . S
C16 C15 1.335 . S
C16 C17 1.398 . S
C16 H38 0.930 . S
C17 C12 1.382 . S
C17 C16 1.398 . S
C17 H39 0.929 . S
C18 O28 1.271 . S
C18 O29 1.251 1_455 S
C19 O30 1.252 . S
C19 O31 1.272 . S
O20 Sm0 2.543 . S
O20 C2 1.261 . S
O21 Sm0 2.450 . S
O21 C2 1.242 . S
O22 Sm0 2.681 . S
O22 Sm1 2.386 1_455 S
O22 C9 1.271 . S
O23 Sm0 2.464 . S
O23 C9 1.251 . S
O24 Sm0 2.396 . S
O24 C10 1.252 . S
O25 Sm1 2.408 1_455 S
O25 C10 1.272 . S
O26 Sm1 2.543 . S
O26 C11 1.261 . S
O27 Sm1 2.450 . S
O27 C11 1.242 . S
O28 Sm0 2.386 . S
O28 Sm1 2.681 1_455 S
O28 C18 1.271 . S
O29 Sm1 2.464 . S
O29 C18 1.251 1_655 S
O30 Sm1 2.396 . S
O30 C19 1.252 . S
O31 Sm0 2.408 1_655 S
O31 C19 1.272 . S
H32 C4 0.930 . S
H33 C5 0.929 . S
H34 C7 0.930 . S
H35 C8 0.929 . S
H36 C13 0.930 . S
H37 C14 0.929 . S
H38 C16 0.930 . S
H39 C17 0.929 . S
Sm40 C42 2.846 . S
Sm40 O60 2.543 . S
Sm40 O61 2.450 . S
Sm40 O62 2.681 1_565 S
Sm40 O63 2.464 . S
Sm40 O64 2.396 . S
Sm40 O68 2.405 . S
Sm40 O71 2.408 1_565 S
Sm41 C51 2.846 . S
Sm41 O62 2.386 . S
Sm41 O65 2.408 1_545 S
Sm41 O66 2.543 . S
Sm41 O67 2.450 . S
Sm41 O68 2.652 1_545 S
Sm41 O69 2.464 . S
Sm41 O70 2.396 . S
C42 Sm40 2.846 . S
C42 C43 1.506 . S
C42 O60 1.261 . S
C42 O61 1.242 . S
C43 C42 1.506 . S
C43 C44 1.358 . S
C43 C48 1.382 . S
C44 C43 1.358 . S
C44 C45 1.385 . S
C44 H72 0.930 . S
C45 C44 1.385 . S
C45 C46 1.395 . S
C45 H73 0.929 . S
C46 C45 1.395 . S
C46 C47 1.335 . S
C47 C46 1.335 . S
C47 C48 1.398 . S
C47 H74 0.930 . S
C48 C43 1.382 . S
C48 C47 1.398 . S
C48 H75 0.929 . S
C49 O62 1.271 . S
C49 O63 1.251 1_545 S
C50 O64 1.252 . S
C50 O65 1.272 . S
C51 Sm41 2.846 . S
C51 C52 1.506 . S
C51 O66 1.261 . S
C51 O67 1.242 . S
C52 C51 1.506 . S
C52 C53 1.358 . S
C52 C57 1.382 . S
C53 C52 1.358 . S
C53 C54 1.385 . S
C53 H76 0.930 . S
C54 C53 1.385 . S
C54 C55 1.395 . S
C54 H77 0.929 . S
C55 C54 1.395 . S
C55 C56 1.335 . S
C56 C55 1.335 . S
C56 C57 1.398 . S
C56 H78 0.930 . S
C57 C52 1.382 . S
C57 C56 1.398 . S
C57 H79 0.929 . S
C58 O68 1.255 1_545 S
C58 O69 1.251 . S
C59 O70 1.252 . S
C59 O71 1.272 . S
O60 Sm40 2.543 . S
O60 C42 1.261 . S
O61 Sm40 2.450 . S
O61 C42 1.242 . S
O62 Sm40 2.681 1_545 S
O62 Sm41 2.386 . S
O62 C49 1.271 . S
O63 Sm40 2.464 . S
O63 C49 1.251 1_565 S
O64 Sm40 2.396 . S
O64 C50 1.252 . S
O65 Sm41 2.408 1_565 S
O65 C50 1.272 . S
O66 Sm41 2.543 . S
O66 C51 1.261 . S
O67 Sm41 2.450 . S
O67 C51 1.242 . S
O68 Sm40 2.405 . S
O68 Sm41 2.652 1_565 S
O68 C58 1.255 1_565 S
O69 Sm41 2.464 . S
O69 C58 1.251 . S
O70 Sm41 2.396 . S
O70 C59 1.252 . S
O71 Sm40 2.408 1_545 S
O71 C59 1.272 . S
H72 C44 0.930 . S
H73 C45 0.929 . S
H74 C47 0.930 . S
H75 C48 0.929 . S
H76 C53 0.930 . S
H77 C54 0.929 . S
H78 C56 0.930 . S
H79 C57 0.929 . S
Sm80 C82 2.846 . S
Sm80 O100 2.543 . S
Sm80 O101 2.450 . S
Sm80 O102 2.681 . S
Sm80 O103 2.464 . S
Sm80 O104 2.396 . S
Sm80 O108 2.386 . S
Sm80 O111 2.408 . S
Sm81 C91 2.846 . S
Sm81 O102 2.386 . S
Sm81 O105 2.408 . S
Sm81 O106 2.543 . S
Sm81 O107 2.450 . S
Sm81 O108 2.681 . S
Sm81 O109 2.464 . S
Sm81 O110 2.396 . S
C82 Sm80 2.846 . S
C82 C83 1.506 . S
C82 O100 1.261 . S
C82 O101 1.242 . S
C83 C82 1.506 . S
C83 C84 1.358 . S
C83 C88 1.382 . S
C84 C83 1.358 . S
C84 C85 1.385 . S
C84 H112 0.930 . S
C85 C84 1.385 . S
C85 C86 1.395 . S
C85 H113 0.929 . S
C86 C85 1.395 . S
C86 C87 1.335 . S
C87 C86 1.335 . S
C87 C88 1.398 . S
C87 H114 0.930 . S
C88 C83 1.382 . S
C88 C87 1.398 . S
C88 H115 0.929 . S
C89 O102 1.271 . S
C89 O103 1.251 . S
C90 O104 1.252 . S
C90 O105 1.272 . S
C91 Sm81 2.846 . S
C91 C92 1.506 . S
C91 O106 1.261 . S
C91 O107 1.242 . S
C92 C91 1.506 . S
C92 C93 1.358 . S
C92 C97 1.382 . S
C93 C92 1.358 . S
C93 C94 1.385 . S
C93 H116 0.930 . S
C94 C93 1.385 . S
C94 C95 1.395 . S
C94 H117 0.929 . S
C95 C94 1.395 . S
C95 C96 1.335 . S
C96 C95 1.335 . S
C96 C97 1.398 . S
C96 H118 0.930 . S
C97 C92 1.382 . S
C97 C96 1.398 . S
C97 H119 0.929 . S
C98 O108 1.271 . S
C98 O109 1.251 . S
C99 O110 1.252 . S
C99 O111 1.272 . S
O100 Sm80 2.543 . S
O100 C82 1.261 . S
O101 Sm80 2.450 . S
O101 C82 1.242 . S
O102 Sm80 2.681 . S
O102 Sm81 2.386 . S
O102 C89 1.271 . S
O103 Sm80 2.464 . S
O103 C89 1.251 . S
O104 Sm80 2.396 . S
O104 C90 1.252 . S
O105 Sm81 2.408 . S
O105 C90 1.272 . S
O106 Sm81 2.543 . S
O106 C91 1.261 . S
O107 Sm81 2.450 . S
O107 C91 1.242 . S
O108 Sm80 2.386 . S
O108 Sm81 2.681 . S
O108 C98 1.271 . S
O109 Sm81 2.464 . S
O109 C98 1.251 . S
O110 Sm81 2.396 . S
O110 C99 1.252 . S
O111 Sm80 2.408 . S
O111 C99 1.272 . S
H112 C84 0.930 . S
H113 C85 0.929 . S
H114 C87 0.930 . S
H115 C88 0.929 . S
H116 C93 0.930 . S
H117 C94 0.929 . S
H118 C96 0.930 . S
H119 C97 0.929 . S
C120 C121 1.384 . S
C120 H133 0.947 . S
C120 C155 1.382 . S
C121 C120 1.384 . S
C121 C122 1.378 . S
C122 C121 1.378 . S
C122 C123 1.378 . S
C122 H134 0.952 . S
C123 C122 1.378 . S
C123 H135 0.950 . S
C123 C154 1.383 . S
H124 C143 0.947 . S
H125 C144 0.946 . S
H126 C146 0.953 . S
H127 C147 0.945 . S
H128 C149 0.952 . S
H129 C150 0.949 . S
H130 C152 0.950 . S
H131 C153 0.948 . S
H132 C155 0.951 . S
H133 C120 0.947 . S
H134 C122 0.952 . S
H135 C123 0.950 . S
N136 C139 1.382 . S
N136 C141 1.363 1_545 S
N137 C139 1.371 . S
N137 C140 1.372 . S
N138 C140 1.361 1_565 S
N138 C141 1.377 . S
C139 N136 1.382 . S
C139 N137 1.371 . S
C139 C142 1.480 . S
C140 N137 1.372 . S
C140 N138 1.361 1_545 S
C140 C148 1.457 . S
C141 N136 1.363 1_565 S
C141 N138 1.377 . S
C141 C154 1.479 . S
C142 C139 1.480 . S
C142 C143 1.383 . S
C142 C147 1.385 . S
C143 H124 0.947 . S
C143 C142 1.383 . S
C143 C144 1.388 . S
C144 H125 0.946 . S
C144 C143 1.388 . S
C144 C145 1.384 . S
C145 C144 1.384 . S
C145 C146 1.377 . S
C146 H126 0.953 . S
C146 C145 1.377 . S
C146 C147 1.369 . S
C147 H127 0.945 . S
C147 C142 1.385 . S
C147 C146 1.369 . S
C148 C140 1.457 . S
C148 C149 1.372 . S
C148 C153 1.364 1_545 S
C149 H128 0.952 . S
C149 C148 1.372 . S
C149 C150 1.389 . S
C150 H129 0.949 . S
C150 C149 1.389 . S
C150 C151 1.387 . S
C151 C150 1.387 . S
C151 C152 1.372 1_545 S
C152 H130 0.950 . S
C152 C151 1.372 1_565 S
C152 C153 1.379 . S
C153 H131 0.948 . S
C153 C148 1.364 1_565 S
C153 C152 1.379 . S
C154 C123 1.383 . S
C154 C141 1.479 . S
C154 C155 1.398 . S
C155 C120 1.382 . S
C155 H132 0.951 . S
C155 C154 1.398 . S
C156 C157 1.384 . S
C156 H169 0.947 . S
C156 C191 1.382 . S
C157 C156 1.384 . S
C157 C158 1.378 . S
C158 C157 1.378 . S
C158 C159 1.378 . S
C158 H170 0.952 . S
C159 C158 1.378 . S
C159 H171 0.950 . S
C159 C190 1.383 . S
H160 C179 0.947 . S
H161 C180 0.946 . S
H162 C182 0.953 . S
H163 C183 0.945 . S
H164 C185 0.952 . S
H165 C186 0.949 . S
H166 C188 0.950 . S
H167 C189 0.948 . S
H168 C191 0.951 . S
H169 C156 0.947 . S
H170 C158 0.952 . S
H171 C159 0.950 . S
N172 C175 1.382 . S
N172 C177 1.363 . S
N173 C175 1.371 . S
N173 C176 1.372 . S
N174 C176 1.361 . S
N174 C177 1.377 . S
C175 N172 1.382 . S
C175 N173 1.371 . S
C175 C178 1.480 . S
C176 N173 1.372 . S
C176 N174 1.361 . S
C176 C184 1.457 . S
C177 N172 1.363 . S
C177 N174 1.377 . S
C177 C190 1.479 . S
C178 C175 1.480 . S
C178 C179 1.383 . S
C178 C183 1.385 . S
C179 H160 0.947 . S
C179 C178 1.383 . S
C179 C180 1.388 . S
C180 H161 0.946 . S
C180 C179 1.388 . S
C180 C181 1.384 . S
C181 C180 1.384 . S
C181 C182 1.377 . S
C182 H162 0.953 . S
C182 C181 1.377 . S
C182 C183 1.369 . S
C183 H163 0.945 . S
C183 C178 1.385 . S
C183 C182 1.369 . S
C184 C176 1.457 . S
C184 C185 1.372 . S
C184 C189 1.364 . S
C185 H164 0.952 . S
C185 C184 1.372 . S
C185 C186 1.389 . S
C186 H165 0.949 . S
C186 C185 1.389 . S
C186 C187 1.387 . S
C187 C186 1.387 . S
C187 C188 1.372 . S
C188 H166 0.950 . S
C188 C187 1.372 . S
C188 C189 1.379 . S
C189 H167 0.948 . S
C189 C184 1.364 . S
C189 C188 1.379 . S
C190 C159 1.383 . S
C190 C177 1.479 . S
C190 C191 1.398 . S
C191 C156 1.382 . S
C191 H168 0.951 . S
C191 C190 1.398 . S
C192 C193 1.384 . S
C192 H205 0.947 . S
C192 C227 1.382 . S
C193 C192 1.384 . S
C193 C194 1.378 . S
C194 C193 1.378 . S
C194 C195 1.378 . S
C194 H206 0.952 . S
C195 C194 1.378 . S
C195 H207 0.950 . S
C195 C226 1.383 . S
H196 C215 0.947 . S
H197 C216 0.946 . S
H198 C218 0.953 . S
H199 C219 0.945 . S
H200 C221 0.952 . S
H201 C222 0.949 . S
H202 C224 0.950 1_655 S
H203 C225 0.948 1_655 S
H204 C227 0.951 . S
H205 C192 0.947 . S
H206 C194 0.952 . S
H207 C195 0.950 . S
N208 C211 1.382 . S
N208 C213 1.363 . S
N209 C211 1.371 . S
N209 C212 1.372 . S
N210 C212 1.361 . S
N210 C213 1.377 . S
C211 N208 1.382 . S
C211 N209 1.371 . S
C211 C214 1.480 . S
C212 N209 1.372 . S
C212 N210 1.361 . S
C212 C220 1.457 . S
C213 N208 1.363 . S
C213 N210 1.377 . S
C213 C226 1.479 1_455 S
C214 C211 1.480 . S
C214 C215 1.383 . S
C214 C219 1.385 . S
C215 H196 0.947 . S
C215 C214 1.383 . S
C215 C216 1.388 . S
C216 H197 0.946 . S
C216 C215 1.388 . S
C216 C217 1.384 . S
C217 C216 1.384 . S
C217 C218 1.377 . S
C218 H198 0.953 . S
C218 C217 1.377 . S
C218 C219 1.369 . S
C219 H199 0.945 . S
C219 C214 1.385 . S
C219 C218 1.369 . S
C220 C212 1.457 . S
C220 C221 1.372 . S
C220 C225 1.364 . S
C221 H200 0.952 . S
C221 C220 1.372 . S
C221 C222 1.389 . S
C222 H201 0.949 . S
C222 C221 1.389 . S
C222 C223 1.387 . S
C223 C222 1.387 . S
C223 C224 1.372 . S
C224 H202 0.950 1_455 S
C224 C223 1.372 . S
C224 C225 1.379 . S
C225 H203 0.948 1_455 S
C225 C220 1.364 . S
C225 C224 1.379 . S
C226 C195 1.383 . S
C226 C213 1.479 1_655 S
C226 C227 1.398 . S
C227 C192 1.382 . S
C227 H204 0.951 . S
C227 C226 1.398 . S
C228 C229 1.384 . S
C228 H241 0.947 . S
C228 C263 1.382 . S
C229 C228 1.384 . S
C229 C230 1.378 . S
C230 C229 1.378 . S
C230 C231 1.378 . S
C230 H242 0.952 . S
C231 C230 1.378 . S
C231 H243 0.950 . S
C231 C262 1.383 . S
H232 C251 0.947 . S
H233 C252 0.946 . S
H234 C254 0.953 . S
H235 C255 0.945 . S
H236 C257 0.952 . S
H237 C258 0.949 . S
H238 C260 0.950 . S
H239 C261 0.948 . S
H240 C263 0.951 . S
H241 C228 0.947 . S
H242 C230 0.952 . S
H243 C231 0.950 . S
N244 C247 1.382 1_455 S
N244 C249 1.363 . S
N245 C247 1.371 . S
N245 C248 1.372 1_655 S
N246 C248 1.361 . S
N246 C249 1.377 . S
C247 N244 1.382 1_655 S
C247 N245 1.371 . S
C247 C250 1.480 . S
C248 N245 1.372 1_455 S
C248 N246 1.361 . S
C248 C256 1.457 . S
C249 N244 1.363 . S
C249 N246 1.377 . S
C249 C262 1.479 . S
C250 C247 1.480 . S
C250 C251 1.383 . S
C250 C255 1.385 . S
C251 H232 0.947 . S
C251 C250 1.383 . S
C251 C252 1.388 . S
C252 H233 0.946 . S
C252 C251 1.388 . S
C252 C253 1.384 . S
C253 C252 1.384 . S
C253 C254 1.377 . S
C254 H234 0.953 . S
C254 C253 1.377 . S
C254 C255 1.369 . S
C255 H235 0.945 . S
C255 C250 1.385 . S
C255 C254 1.369 . S
C256 C248 1.457 . S
C256 C257 1.372 1_455 S
C256 C261 1.364 . S
C257 H236 0.952 . S
C257 C256 1.372 1_655 S
C257 C258 1.389 . S
C258 H237 0.949 . S
C258 C257 1.389 . S
C258 C259 1.387 1_655 S
C259 C258 1.387 1_455 S
C259 C260 1.372 . S
C260 H238 0.950 . S
C260 C259 1.372 . S
C260 C261 1.379 . S
C261 H239 0.948 . S
C261 C256 1.364 . S
C261 C260 1.379 . S
C262 C231 1.383 . S
C262 C249 1.479 . S
C262 C263 1.398 . S
C263 C228 1.382 . S
C263 H240 0.951 . S
C263 C262 1.398 . S
C264 C265 1.384 . S
C264 H277 0.947 . S
C264 C299 1.382 . S
C265 C264 1.384 . S
C265 C266 1.378 . S
C266 C265 1.378 . S
C266 C267 1.378 . S
C266 H278 0.952 . S
C267 C266 1.378 . S
C267 H279 0.950 . S
C267 C298 1.383 . S
H268 C287 0.947 . S
H269 C288 0.946 . S
H270 C290 0.953 . S
H271 C291 0.945 . S
H272 C293 0.952 . S
H273 C294 0.949 . S
H274 C296 0.950 . S
H275 C297 0.948 . S
H276 C299 0.951 . S
H277 C264 0.947 . S
H278 C266 0.952 . S
H279 C267 0.950 . S
N280 C283 1.382 1_545 S
N280 C285 1.363 . S
N281 C283 1.371 . S
N281 C284 1.372 1_565 S
N282 C284 1.361 . S
N282 C285 1.377 . S
C283 N280 1.382 1_565 S
C283 N281 1.371 . S
C283 C286 1.480 . S
C284 N281 1.372 1_545 S
C284 N282 1.361 . S
C284 C292 1.457 . S
C285 N280 1.363 . S
C285 N282 1.377 . S
C285 C298 1.479 . S
C286 C283 1.480 . S
C286 C287 1.383 . S
C286 C291 1.385 . S
C287 H268 0.947 . S
C287 C286 1.383 . S
C287 C288 1.388 . S
C288 H269 0.946 . S
C288 C287 1.388 . S
C288 C289 1.384 . S
C289 C288 1.384 . S
C289 C290 1.377 . S
C290 H270 0.953 . S
C290 C289 1.377 . S
C290 C291 1.369 . S
C291 H271 0.945 . S
C291 C286 1.385 . S
C291 C290 1.369 . S
C292 C284 1.457 . S
C292 C293 1.372 1_545 S
C292 C297 1.364 . S
C293 H272 0.952 . S
C293 C292 1.372 1_565 S
C293 C294 1.389 . S
C294 H273 0.949 . S
C294 C293 1.389 . S
C294 C295 1.419 . S
C295 C294 1.419 . S
C295 C296 1.341 1_565 S
C296 H274 0.950 . S
C296 C295 1.341 1_545 S
C296 C297 1.379 . S
C297 H275 0.948 . S
C297 C292 1.364 . S
C297 C296 1.379 . S
C298 C267 1.383 . S
C298 C285 1.479 . S
C298 C299 1.398 . S
C299 C264 1.382 . S
C299 H276 0.951 . S
C299 C298 1.398 . S
C300 C301 1.384 . S
C300 H313 0.947 . S
C300 C335 1.382 . S
C301 C300 1.384 . S
C301 C302 1.378 . S
C302 C301 1.378 . S
C302 C303 1.378 . S
C302 H314 0.952 . S
C303 C302 1.378 . S
C303 H315 0.950 . S
C303 C334 1.383 . S
H304 C323 0.947 . S
H305 C324 0.946 . S
H306 C326 0.953 . S
H307 C327 0.945 . S
H308 C329 0.952 . S
H309 C330 0.949 . S
H310 C332 0.950 . S
H311 C333 0.948 . S
H312 C335 0.951 . S
H313 C300 0.947 . S
H314 C302 0.952 . S
H315 C303 0.950 . S
N316 C319 1.382 . S
N316 C321 1.363 . S
N317 C319 1.371 . S
N317 C320 1.372 . S
N318 C320 1.361 . S
N318 C321 1.377 . S
C319 N316 1.382 . S
C319 N317 1.371 . S
C319 C322 1.480 . S
C320 N317 1.372 . S
C320 N318 1.361 . S
C320 C328 1.457 . S
C321 N316 1.363 . S
C321 N318 1.377 . S
C321 C334 1.479 . S
C322 C319 1.480 . S
C322 C323 1.383 . S
C322 C327 1.385 . S
C323 H304 0.947 . S
C323 C322 1.383 . S
C323 C324 1.388 . S
C324 H305 0.946 . S
C324 C323 1.388 . S
C324 C325 1.384 . S
C325 C324 1.384 . S
C325 C326 1.377 . S
C326 H306 0.953 . S
C326 C325 1.377 . S
C326 C327 1.369 . S
C327 H307 0.945 . S
C327 C322 1.385 . S
C327 C326 1.369 . S
C328 C320 1.457 . S
C328 C329 1.372 . S
C328 C333 1.364 . S
C329 H308 0.952 . S
C329 C328 1.372 . S
C329 C330 1.389 . S
C330 H309 0.949 . S
C330 C329 1.389 . S
C330 C331 1.387 . S
C331 C330 1.387 . S
C331 C332 1.372 . S
C332 H310 0.950 . S
C332 C331 1.372 . S
C332 C333 1.379 . S
C333 H311 0.948 . S
C333 C328 1.364 . S
C333 C332 1.379 . S
C334 C303 1.383 . S
C334 C321 1.479 . S
C334 C335 1.398 . S
C335 C300 1.382 . S
C335 H312 0.951 . S
C335 C334 1.398 . S
H336 C348 0.930 . S
H337 C350 0.930 . S
H338 C351 0.930 . S
H339 C355 0.959 . S
H340 C355 0.959 . S
H341 C355 0.961 . S
H342 C356 0.960 . S
H343 C356 0.961 . S
H344 C356 0.959 . S
H345 C359 0.929 . S
H346 C360 0.931 . S
H347 C362 0.930 . S
C348 H336 0.930 . S
C348 C349 1.399 . S
C348 C353 1.399 . S
C349 C348 1.399 . S
C349 C350 1.376 . S
C350 H337 0.930 . S
C350 C349 1.376 . S
C350 C351 1.388 . S
C351 H338 0.930 . S
C351 C350 1.388 . S
C351 C352 1.390 . S
C352 C351 1.390 . S
C352 C353 1.394 . S
C352 C358 1.465 . S
C353 C348 1.399 . S
C353 C352 1.394 . S
C353 C354 1.516 . S
C354 C353 1.516 . S
C354 C355 1.502 . S
C354 C356 1.561 . S
C354 C357 1.526 . S
C355 H339 0.959 . S
C355 H340 0.959 . S
C355 H341 0.961 . S
C355 C354 1.502 . S
C356 H342 0.960 . S
C356 H343 0.961 . S
C356 H344 0.959 . S
C356 C354 1.561 . S
C357 C354 1.526 . S
C357 C358 1.396 . S
C357 C362 1.390 . S
C358 C352 1.465 . S
C358 C357 1.396 . S
C358 C359 1.399 . S
C359 H345 0.929 . S
C359 C358 1.399 . S
C359 C360 1.385 . S
C360 H346 0.931 . S
C360 C359 1.385 . S
C360 C361 1.389 . S
C361 C360 1.389 . S
C361 C362 1.387 . S
C362 H347 0.930 . S
C362 C357 1.390 . S
C362 C361 1.387 . S
H363 C375 0.930 . S
H364 C377 0.930 . S
H365 C378 0.930 . S
H366 C382 0.959 . S
H367 C382 0.959 . S
H368 C382 0.961 . S
H369 C383 0.960 . S
H370 C383 0.961 . S
H371 C383 0.959 . S
H372 C386 0.929 . S
H373 C387 0.931 . S
H374 C389 0.930 . S
C375 H363 0.930 . S
C375 C376 1.399 . S
C375 C380 1.399 . S
C376 C375 1.399 . S
C376 C377 1.376 . S
C377 H364 0.930 . S
C377 C376 1.376 . S
C377 C378 1.388 . S
C378 H365 0.930 . S
C378 C377 1.388 . S
C378 C379 1.390 . S
C379 C378 1.390 . S
C379 C380 1.394 . S
C379 C385 1.465 . S
C380 C375 1.399 . S
C380 C379 1.394 . S
C380 C381 1.516 . S
C381 C380 1.516 . S
C381 C382 1.502 . S
C381 C383 1.561 . S
C381 C384 1.526 . S
C382 H366 0.959 . S
C382 H367 0.959 . S
C382 H368 0.961 . S
C382 C381 1.502 . S
C383 H369 0.960 . S
C383 H370 0.961 . S
C383 H371 0.959 . S
C383 C381 1.561 . S
C384 C381 1.526 . S
C384 C385 1.396 . S
C384 C389 1.390 . S
C385 C379 1.465 . S
C385 C384 1.396 . S
C385 C386 1.399 . S
C386 H372 0.929 . S
C386 C385 1.399 . S
C386 C387 1.385 . S
C387 H373 0.931 . S
C387 C386 1.385 . S
C387 C388 1.389 . S
C388 C387 1.389 . S
C388 C389 1.387 . S
C389 H374 0.930 . S
C389 C384 1.390 . S
C389 C388 1.387 . S
H390 C402 0.930 . S
H391 C404 0.930 . S
H392 C405 0.930 . S
H393 C409 0.959 . S
H394 C409 0.959 . S
H395 C409 0.961 . S
H396 C410 0.960 . S
H397 C410 0.961 . S
H398 C410 0.959 . S
H399 C413 0.929 . S
H400 C414 0.931 . S
H401 C416 0.930 . S
C402 H390 0.930 . S
C402 C403 1.399 . S
C402 C407 1.399 . S
C403 C402 1.399 . S
C403 C404 1.376 . S
C404 H391 0.930 . S
C404 C403 1.376 . S
C404 C405 1.388 . S
C405 H392 0.930 . S
C405 C404 1.388 . S
C405 C406 1.390 . S
C406 C405 1.390 . S
C406 C407 1.394 . S
C406 C412 1.465 . S
C407 C402 1.399 . S
C407 C406 1.394 . S
C407 C408 1.516 . S
C408 C407 1.516 . S
C408 C409 1.502 . S
C408 C410 1.561 . S
C408 C411 1.526 . S
C409 H393 0.959 . S
C409 H394 0.959 . S
C409 H395 0.961 . S
C409 C408 1.502 . S
C410 H396 0.960 . S
C410 H397 0.961 . S
C410 H398 0.959 . S
C410 C408 1.561 . S
C411 C408 1.526 . S
C411 C412 1.396 . S
C411 C416 1.390 . S
C412 C406 1.465 . S
C412 C411 1.396 . S
C412 C413 1.399 . S
C413 H399 0.929 . S
C413 C412 1.399 . S
C413 C414 1.385 . S
C414 H400 0.931 . S
C414 C413 1.385 . S
C414 C415 1.389 . S
C415 C414 1.389 . S
C415 C416 1.387 . S
C416 H401 0.930 . S
C416 C411 1.390 . S
C416 C415 1.387 . S
H417 C429 0.930 . S
H418 C431 0.930 . S
H419 C432 0.930 . S
H420 C436 0.959 . S
H421 C436 0.959 . S
H422 C436 0.961 . S
H423 C437 0.960 . S
H424 C437 0.961 . S
H425 C437 0.959 . S
H426 C440 0.929 . S
H427 C441 0.931 . S
H428 C443 0.930 . S
C429 H417 0.930 . S
C429 C430 1.399 . S
C429 C434 1.399 . S
C430 C429 1.399 . S
C430 C431 1.376 . S
C431 H418 0.930 . S
C431 C430 1.376 . S
C431 C432 1.388 . S
C432 H419 0.930 . S
C432 C431 1.388 . S
C432 C433 1.390 . S
C433 C432 1.390 . S
C433 C434 1.394 . S
C433 C439 1.465 . S
C434 C429 1.399 . S
C434 C433 1.394 . S
C434 C435 1.516 . S
C435 C434 1.516 . S
C435 C436 1.502 . S
C435 C437 1.561 . S
C435 C438 1.526 . S
C436 H420 0.959 . S
C436 H421 0.959 . S
C436 H422 0.961 . S
C436 C435 1.502 . S
C437 H423 0.960 . S
C437 H424 0.961 . S
C437 H425 0.959 . S
C437 C435 1.561 . S
C438 C435 1.526 . S
C438 C439 1.396 . S
C438 C443 1.390 . S
C439 C433 1.465 . S
C439 C438 1.396 . S
C439 C440 1.399 . S
C440 H426 0.929 . S
C440 C439 1.399 . S
C440 C441 1.385 . S
C441 H427 0.931 . S
C441 C440 1.385 . S
C441 C442 1.389 . S
C442 C441 1.389 . S
C442 C443 1.387 . S
C443 H428 0.930 . S
C443 C438 1.390 . S
C443 C442 1.387 . S
H444 C456 0.930 . S
H445 C458 0.930 . S
H446 C459 0.930 . S
H447 C463 0.959 . S
H448 C463 0.959 . S
H449 C463 0.961 . S
H450 C464 0.960 . S
H451 C464 0.961 . S
H452 C464 0.959 . S
H453 C467 0.929 . S
H454 C468 0.931 . S
H455 C470 0.930 . S
C456 H444 0.930 . S
C456 C457 1.399 . S
C456 C461 1.399 . S
C457 C456 1.399 . S
C457 C458 1.376 . S
C458 H445 0.930 . S
C458 C457 1.376 . S
C458 C459 1.388 . S
C459 H446 0.930 . S
C459 C458 1.388 . S
C459 C460 1.390 . S
C460 C459 1.390 . S
C460 C461 1.394 . S
C460 C466 1.465 . S
C461 C456 1.399 . S
C461 C460 1.394 . S
C461 C462 1.516 . S
C462 C461 1.516 . S
C462 C463 1.502 . S
C462 C464 1.561 . S
C462 C465 1.526 . S
C463 H447 0.959 . S
C463 H448 0.959 . S
C463 H449 0.961 . S
C463 C462 1.502 . S
C464 H450 0.960 . S
C464 H451 0.961 . S
C464 H452 0.959 . S
C464 C462 1.561 . S
C465 C462 1.526 . S
C465 C466 1.396 . S
C465 C470 1.390 . S
C466 C460 1.465 . S
C466 C465 1.396 . S
C466 C467 1.399 . S
C467 H453 0.929 . S
C467 C466 1.399 . S
C467 C468 1.385 . S
C468 H454 0.931 . S
C468 C467 1.385 . S
C468 C469 1.389 . S
C469 C468 1.389 . S
C469 C470 1.387 . S
C470 H455 0.930 . S
C470 C465 1.390 . S
C470 C469 1.387 . S
H471 C483 0.930 . S
H472 C485 0.930 . S
H473 C486 0.930 . S
H474 C490 0.959 . S
H475 C490 0.959 . S
H476 C490 0.961 . S
H477 C491 0.960 . S
H478 C491 0.961 . S
H479 C491 0.959 . S
H480 C494 0.929 . S
H481 C495 0.931 . S
H482 C497 0.930 . S
C483 H471 0.930 . S
C483 C484 1.399 . S
C483 C488 1.399 . S
C484 C483 1.399 . S
C484 C485 1.376 . S
C485 H472 0.930 . S
C485 C484 1.376 . S
C485 C486 1.388 . S
C486 H473 0.930 . S
C486 C485 1.388 . S
C486 C487 1.390 . S
C487 C486 1.390 . S
C487 C488 1.394 . S
C487 C493 1.465 . S
C488 C483 1.399 . S
C488 C487 1.394 . S
C488 C489 1.516 . S
C489 C488 1.516 . S
C489 C490 1.502 . S
C489 C491 1.561 . S
C489 C492 1.526 . S
C490 H474 0.959 . S
C490 H475 0.959 . S
C490 H476 0.961 . S
C490 C489 1.502 . S
C491 H477 0.960 . S
C491 H478 0.961 . S
C491 H479 0.959 . S
C491 C489 1.561 . S
C492 C489 1.526 . S
C492 C493 1.396 . S
C492 C497 1.390 . S
C493 C487 1.465 . S
C493 C492 1.396 . S
C493 C494 1.399 . S
C494 H480 0.929 . S
C494 C493 1.399 . S
C494 C495 1.385 . S
C495 H481 0.931 . S
C495 C494 1.385 . S
C495 C496 1.389 . S
C496 C495 1.389 . S
C496 C497 1.387 . S
C497 H482 0.930 . S
C497 C492 1.390 . S
C497 C496 1.387 . S
H498 C510 0.930 . S
H499 C512 0.930 . S
H500 C513 0.930 . S
H501 C517 0.959 . S
H502 C517 0.959 . S
H503 C517 0.961 . S
H504 C518 0.960 . S
H505 C518 0.961 . S
H506 C518 0.959 . S
H507 C521 0.929 . S
H508 C522 0.931 . S
H509 C524 0.930 . S
C510 H498 0.930 . S
C510 C511 1.399 . S
C510 C515 1.399 . S
C511 C510 1.399 . S
C511 C512 1.376 . S
C512 H499 0.930 . S
C512 C511 1.376 . S
C512 C513 1.388 . S
C513 H500 0.930 . S
C513 C512 1.388 . S
C513 C514 1.390 . S
C514 C513 1.390 . S
C514 C515 1.394 . S
C514 C520 1.465 . S
C515 C510 1.399 . S
C515 C514 1.394 . S
C515 C516 1.516 . S
C516 C515 1.516 . S
C516 C517 1.502 . S
C516 C518 1.561 . S
C516 C519 1.526 . S
C517 H501 0.959 . S
C517 H502 0.959 . S
C517 H503 0.961 . S
C517 C516 1.502 . S
C518 H504 0.960 . S
C518 H505 0.961 . S
C518 H506 0.959 . S
C518 C516 1.561 . S
C519 C516 1.526 . S
C519 C520 1.396 . S
C519 C524 1.390 . S
C520 C514 1.465 . S
C520 C519 1.396 . S
C520 C521 1.399 . S
C521 H507 0.929 . S
C521 C520 1.399 . S
C521 C522 1.385 . S
C522 H508 0.931 . S
C522 C521 1.385 . S
C522 C523 1.389 . S
C523 C522 1.389 . S
C523 C524 1.387 . S
C524 H509 0.930 . S
C524 C519 1.390 . S
C524 C523 1.387 . S
H525 C537 0.930 . S
H526 C539 0.930 . S
H527 C540 0.930 . S
H528 C544 0.959 . S
H529 C544 0.959 . S
H530 C544 0.961 . S
H531 C545 0.960 . S
H532 C545 0.961 . S
H533 C545 0.959 . S
H534 C548 0.929 . S
H535 C549 0.931 . S
H536 C551 0.930 . S
C537 H525 0.930 . S
C537 C538 1.399 . S
C537 C542 1.399 . S
C538 C537 1.399 . S
C538 C539 1.376 . S
C539 H526 0.930 . S
C539 C538 1.376 . S
C539 C540 1.388 . S
C540 H527 0.930 . S
C540 C539 1.388 . S
C540 C541 1.390 . S
C541 C540 1.390 . S
C541 C542 1.394 . S
C541 C547 1.465 . S
C542 C537 1.399 . S
C542 C541 1.394 . S
C542 C543 1.516 . S
C543 C542 1.516 . S
C543 C544 1.502 . S
C543 C545 1.561 . S
C543 C546 1.526 . S
C544 H528 0.959 . S
C544 H529 0.959 . S
C544 H530 0.961 . S
C544 C543 1.502 . S
C545 H531 0.960 . S
C545 H532 0.961 . S
C545 H533 0.959 . S
C545 C543 1.561 . S
C546 C543 1.526 . S
C546 C547 1.396 . S
C546 C551 1.390 . S
C547 C541 1.465 . S
C547 C546 1.396 . S
C547 C548 1.399 . S
C548 H534 0.929 . S
C548 C547 1.399 . S
C548 C549 1.385 . S
C549 H535 0.931 . S
C549 C548 1.385 . S
C549 C550 1.389 . S
C550 C549 1.389 . S
C550 C551 1.387 . S
C551 H536 0.930 . S
C551 C546 1.390 . S
C551 C550 1.387 . S
H552 C564 0.930 . S
H553 C566 0.930 . S
H554 C567 0.930 . S
H555 C571 0.959 . S
H556 C571 0.959 . S
H557 C571 0.961 . S
H558 C572 0.960 . S
H559 C572 0.961 . S
H560 C572 0.959 . S
H561 C575 0.929 . S
H562 C576 0.931 . S
H563 C578 0.930 . S
C564 H552 0.930 . S
C564 C565 1.399 . S
C564 C569 1.399 . S
C565 C564 1.399 . S
C565 C566 1.376 . S
C566 H553 0.930 . S
C566 C565 1.376 . S
C566 C567 1.388 . S
C567 H554 0.930 . S
C567 C566 1.388 . S
C567 C568 1.390 . S
C568 C567 1.390 . S
C568 C569 1.394 . S
C568 C574 1.465 . S
C569 C564 1.399 . S
C569 C568 1.394 . S
C569 C570 1.516 . S
C570 C569 1.516 . S
C570 C571 1.502 . S
C570 C572 1.561 . S
C570 C573 1.526 . S
C571 H555 0.959 . S
C571 H556 0.959 . S
C571 H557 0.961 . S
C571 C570 1.502 . S
C572 H558 0.960 . S
C572 H559 0.961 . S
C572 H560 0.959 . S
C572 C570 1.561 . S
C573 C570 1.526 . S
C573 C574 1.396 . S
C573 C578 1.390 . S
C574 C568 1.465 . S
C574 C573 1.396 . S
C574 C575 1.399 . S
C575 H561 0.929 . S
C575 C574 1.399 . S
C575 C576 1.385 . S
C576 H562 0.931 . S
C576 C575 1.385 . S
C576 C577 1.389 . S
C577 C576 1.389 . S
C577 C578 1.387 . S
C578 H563 0.930 . S
C578 C573 1.390 . S
C578 C577 1.387 . S
H579 C591 0.930 . S
H580 C593 0.930 . S
H581 C594 0.930 . S
H582 C598 0.959 . S
H583 C598 0.959 . S
H584 C598 0.961 . S
H585 C599 0.960 . S
H586 C599 0.961 . S
H587 C599 0.959 . S
H588 C602 0.929 . S
H589 C603 0.931 . S
H590 C605 0.930 . S
C591 H579 0.930 . S
C591 C592 1.399 . S
C591 C596 1.399 . S
C592 C591 1.399 . S
C592 C593 1.376 . S
C593 H580 0.930 . S
C593 C592 1.376 . S
C593 C594 1.388 . S
C594 H581 0.930 . S
C594 C593 1.388 . S
C594 C595 1.390 . S
C595 C594 1.390 . S
C595 C596 1.394 . S
C595 C601 1.465 . S
C596 C591 1.399 . S
C596 C595 1.394 . S
C596 C597 1.516 . S
C597 C596 1.516 . S
C597 C598 1.502 . S
C597 C599 1.561 . S
C597 C600 1.526 . S
C598 H582 0.959 . S
C598 H583 0.959 . S
C598 H584 0.961 . S
C598 C597 1.502 . S
C599 H585 0.960 . S
C599 H586 0.961 . S
C599 H587 0.959 . S
C599 C597 1.561 . S
C600 C597 1.526 . S
C600 C601 1.396 . S
C600 C605 1.390 . S
C601 C595 1.465 . S
C601 C600 1.396 . S
C601 C602 1.399 . S
C602 H588 0.929 . S
C602 C601 1.399 . S
C602 C603 1.385 . S
C603 H589 0.931 . S
C603 C602 1.385 . S
C603 C604 1.389 . S
C604 C603 1.389 . S
C604 C605 1.387 . S
C605 H590 0.930 . S
C605 C600 1.390 . S
C605 C604 1.387 . S
H606 C618 0.930 . S
H607 C620 0.930 . S
H608 C621 0.930 . S
H609 C625 0.959 . S
H610 C625 0.959 . S
H611 C625 0.961 . S
H612 C626 0.960 . S
H613 C626 0.961 . S
H614 C626 0.959 . S
H615 C629 0.929 . S
H616 C630 0.931 . S
H617 C632 0.930 . S
C618 H606 0.930 . S
C618 C619 1.399 . S
C618 C623 1.399 . S
C619 C618 1.399 . S
C619 C620 1.376 . S
C620 H607 0.930 . S
C620 C619 1.376 . S
C620 C621 1.388 . S
C621 H608 0.930 . S
C621 C620 1.388 . S
C621 C622 1.390 . S
C622 C621 1.390 . S
C622 C623 1.394 . S
C622 C628 1.465 . S
C623 C618 1.399 . S
C623 C622 1.394 . S
C623 C624 1.516 . S
C624 C623 1.516 . S
C624 C625 1.502 . S
C624 C626 1.561 . S
C624 C627 1.526 . S
C625 H609 0.959 . S
C625 H610 0.959 . S
C625 H611 0.961 . S
C625 C624 1.502 . S
C626 H612 0.960 . S
C626 H613 0.961 . S
C626 H614 0.959 . S
C626 C624 1.561 . S
C627 C624 1.526 . S
C627 C628 1.396 . S
C627 C632 1.390 . S
C628 C622 1.465 . S
C628 C627 1.396 . S
C628 C629 1.399 . S
C629 H615 0.929 . S
C629 C628 1.399 . S
C629 C630 1.385 . S
C630 H616 0.931 . S
C630 C629 1.385 . S
C630 C631 1.389 . S
C631 C630 1.389 . S
C631 C632 1.387 . S
C632 H617 0.930 . S
C632 C627 1.390 . S
C632 C631 1.387 . S
H633 C645 0.930 . S
H634 C647 0.930 . S
H635 C648 0.930 . S
H636 C652 0.959 . S
H637 C652 0.959 . S
H638 C652 0.961 . S
H639 C653 0.960 . S
H640 C653 0.961 . S
H641 C653 0.959 . S
H642 C656 0.929 . S
H643 C657 0.931 . S
H644 C659 0.930 . S
C645 H633 0.930 . S
C645 C646 1.399 . S
C645 C650 1.399 . S
C646 C645 1.399 . S
C646 C647 1.376 . S
C647 H634 0.930 . S
C647 C646 1.376 . S
C647 C648 1.388 . S
C648 H635 0.930 . S
C648 C647 1.388 . S
C648 C649 1.390 . S
C649 C648 1.390 . S
C649 C650 1.394 . S
C649 C655 1.465 . S
C650 C645 1.399 . S
C650 C649 1.394 . S
C650 C651 1.516 . S
C651 C650 1.516 . S
C651 C652 1.502 . S
C651 C653 1.561 . S
C651 C654 1.526 . S
C652 H636 0.959 . S
C652 H637 0.959 . S
C652 H638 0.961 . S
C652 C651 1.502 . S
C653 H639 0.960 . S
C653 H640 0.961 . S
C653 H641 0.959 . S
C653 C651 1.561 . S
C654 C651 1.526 . S
C654 C655 1.396 . S
C654 C659 1.390 . S
C655 C649 1.465 . S
C655 C654 1.396 . S
C655 C656 1.399 . S
C656 H642 0.929 . S
C656 C655 1.399 . S
C656 C657 1.385 . S
C657 H643 0.931 . S
C657 C656 1.385 . S
C657 C658 1.389 . S
C658 C657 1.389 . S
C658 C659 1.387 . S
C659 H644 0.930 . S
C659 C654 1.390 . S
C659 C658 1.387 . S
H660 C672 0.930 . S
H661 C674 0.930 . S
H662 C675 0.930 . S
H663 C679 0.959 . S
H664 C679 0.959 . S
H665 C679 0.961 . S
H666 C680 0.960 . S
H667 C680 0.961 . S
H668 C680 0.959 . S
H669 C683 0.929 . S
H670 C684 0.931 1_556 S
H671 C686 0.930 . S
C672 H660 0.930 . S
C672 C673 1.399 . S
C672 C677 1.399 . S
C673 C672 1.399 . S
C673 C674 1.376 . S
C674 H661 0.930 . S
C674 C673 1.376 . S
C674 C675 1.388 . S
C675 H662 0.930 . S
C675 C674 1.388 . S
C675 C676 1.390 . S
C676 C675 1.390 . S
C676 C677 1.394 . S
C676 C682 1.465 . S
C677 C672 1.399 . S
C677 C676 1.394 . S
C677 C678 1.516 . S
C678 C677 1.516 . S
C678 C679 1.502 . S
C678 C680 1.561 . S
C678 C681 1.526 . S
C679 H663 0.959 . S
C679 H664 0.959 . S
C679 H665 0.961 . S
C679 C678 1.502 . S
C680 H666 0.960 . S
C680 H667 0.961 . S
C680 H668 0.959 . S
C680 C678 1.561 . S
C681 C678 1.526 . S
C681 C682 1.396 . S
C681 C686 1.390 . S
C682 C676 1.465 . S
C682 C681 1.396 . S
C682 C683 1.399 . S
C683 H669 0.929 . S
C683 C682 1.399 . S
C683 C684 1.385 . S
C684 H670 0.931 1_554 S
C684 C683 1.385 . S
C684 C685 1.383 1_554 S
C685 C684 1.383 1_556 S
C685 C686 1.371 1_556 S
C686 H671 0.930 . S
C686 C681 1.390 . S
C686 C685 1.371 1_554 S
H687 C699 0.930 . S
H688 C701 0.930 . S
H689 C702 0.930 . S
H690 C706 0.959 . S
H691 C706 0.959 . S
H692 C706 0.961 . S
H693 C707 0.960 . S
H694 C707 0.961 . S
H695 C707 0.959 . S
H696 C710 0.929 . S
H697 C711 0.931 . S
H698 C713 0.930 . S
C699 H687 0.930 . S
C699 C700 1.399 1_565 S
C699 C704 1.399 . S
C700 C699 1.399 1_545 S
C700 C701 1.376 . S
C701 H688 0.930 . S
C701 C700 1.376 . S
C701 C702 1.388 . S
C702 H689 0.930 . S
C702 C701 1.388 . S
C702 C703 1.390 . S
C703 C702 1.390 . S
C703 C704 1.394 1_545 S
C703 C709 1.465 . S
C704 C699 1.399 . S
C704 C703 1.394 1_565 S
C704 C705 1.516 . S
C705 C704 1.516 . S
C705 C706 1.502 . S
C705 C707 1.561 . S
C705 C708 1.546 . S
C706 H690 0.959 . S
C706 H691 0.959 . S
C706 H692 0.961 . S
C706 C705 1.502 . S
C707 H693 0.960 . S
C707 H694 0.961 . S
C707 H695 0.959 . S
C707 C705 1.561 . S
C708 C705 1.546 . S
C708 C709 1.368 1_565 S
C708 C713 1.394 . S
C709 C703 1.465 . S
C709 C708 1.368 1_545 S
C709 C710 1.399 . S
C710 H696 0.929 . S
C710 C709 1.399 . S
C710 C711 1.385 . S
C711 H697 0.931 . S
C711 C710 1.385 . S
C711 C712 1.389 . S
C712 C711 1.389 . S
C712 C713 1.387 1_545 S
C713 H698 0.930 . S
C713 C708 1.394 . S
C713 C712 1.387 1_565 S
H714 C726 0.930 . S
H715 C728 0.930 . S
H716 C729 0.930 . S
H717 C733 0.959 . S
H718 C733 0.959 . S
H719 C733 0.961 . S
H720 C734 0.960 . S
H721 C734 0.961 . S
H722 C734 0.959 . S
H723 C737 0.929 . S
H724 C738 0.931 . S
H725 C740 0.930 . S
C726 H714 0.930 . S
C726 C727 1.399 . S
C726 C731 1.399 . S
C727 C726 1.399 . S
C727 C728 1.376 . S
C728 H715 0.930 . S
C728 C727 1.376 . S
C728 C729 1.388 . S
C729 H716 0.930 . S
C729 C728 1.388 . S
C729 C730 1.390 . S
C730 C729 1.390 . S
C730 C731 1.394 . S
C730 C736 1.465 . S
C731 C726 1.399 . S
C731 C730 1.394 . S
C731 C732 1.516 . S
C732 C731 1.516 . S
C732 C733 1.502 . S
C732 C734 1.561 . S
C732 C735 1.526 . S
C733 H717 0.959 . S
C733 H718 0.959 . S
C733 H719 0.961 . S
C733 C732 1.502 . S
C734 H720 0.960 . S
C734 H721 0.961 . S
C734 H722 0.959 . S
C734 C732 1.561 . S
C735 C732 1.526 . S
C735 C736 1.396 . S
C735 C740 1.390 . S
C736 C730 1.465 . S
C736 C735 1.396 . S
C736 C737 1.399 . S
C737 H723 0.929 . S
C737 C736 1.399 . S
C737 C738 1.385 . S
C738 H724 0.931 . S
C738 C737 1.385 . S
C738 C739 1.389 . S
C739 C738 1.389 . S
C739 C740 1.387 . S
C740 H725 0.930 . S
C740 C735 1.390 . S
C740 C739 1.387 . S
H741 C753 0.930 . S
H742 C755 0.930 . S
H743 C756 0.930 . S
H744 C760 0.959 . S
H745 C760 0.959 . S
H746 C760 0.961 . S
H747 C761 0.960 . S
H748 C761 0.961 . S
H749 C761 0.959 . S
H750 C764 0.929 . S
H751 C765 0.931 . S
H752 C767 0.930 . S
C753 H741 0.930 . S
C753 C754 1.399 . S
C753 C758 1.399 . S
C754 C753 1.399 . S
C754 C755 1.376 1_545 S
C755 H742 0.930 . S
C755 C754 1.376 1_565 S
C755 C756 1.388 . S
C756 H743 0.930 . S
C756 C755 1.388 . S
C756 C757 1.390 . S
C757 C756 1.390 . S
C757 C758 1.394 1_565 S
C757 C763 1.465 . S
C758 C753 1.399 . S
C758 C757 1.394 1_545 S
C758 C759 1.516 . S
C759 C758 1.516 . S
C759 C760 1.502 . S
C759 C761 1.561 . S
C759 C762 1.526 . S
C760 H744 0.959 . S
C760 H745 0.959 . S
C760 H746 0.961 . S
C760 C759 1.502 . S
C761 H747 0.960 . S
C761 H748 0.961 . S
C761 H749 0.959 . S
C761 C759 1.561 . S
C762 C759 1.526 . S
C762 C763 1.396 1_545 S
C762 C767 1.390 . S
C763 C757 1.465 . S
C763 C762 1.396 1_565 S
C763 C764 1.399 . S
C764 H750 0.929 . S
C764 C763 1.399 . S
C764 C765 1.385 . S
C765 H751 0.931 . S
C765 C764 1.385 . S
C765 C766 1.389 . S
C766 C765 1.389 . S
C766 C767 1.387 1_565 S
C767 H752 0.930 . S
C767 C762 1.390 . S
C767 C766 1.387 1_545 S
H768 C780 0.930 . S
H769 C782 0.930 . S
H770 C783 0.930 . S
H771 C787 0.959 . S
H772 C787 0.959 . S
H773 C787 0.961 . S
H774 C788 0.960 . S
H775 C788 0.961 . S
H776 C788 0.959 . S
H777 C791 0.929 . S
H778 C792 0.943 . S
H779 C794 0.930 . S
C780 H768 0.930 . S
C780 C781 1.399 . S
C780 C785 1.399 . S
C781 C780 1.399 . S
C781 C782 1.376 . S
C782 H769 0.930 . S
C782 C781 1.376 . S
C782 C783 1.388 . S
C783 H770 0.930 . S
C783 C782 1.388 . S
C783 C784 1.390 . S
C784 C783 1.390 . S
C784 C785 1.394 . S
C784 C790 1.465 . S
C785 C780 1.399 . S
C785 C784 1.394 . S
C785 C786 1.516 . S
C786 C785 1.516 . S
C786 C787 1.502 . S
C786 C788 1.561 . S
C786 C789 1.526 . S
C787 H771 0.959 . S
C787 H772 0.959 . S
C787 H773 0.961 . S
C787 C786 1.502 . S
C788 H774 0.960 . S
C788 H775 0.961 . S
C788 H776 0.959 . S
C788 C786 1.561 . S
C789 C786 1.526 . S
C789 C790 1.396 . S
C789 C794 1.390 . S
C790 C784 1.465 . S
C790 C789 1.396 . S
C790 C791 1.399 . S
C791 H777 0.929 . S
C791 C790 1.399 . S
C791 C792 1.385 . S
C792 H778 0.943 . S
C792 C791 1.385 . S
C792 C793 1.389 . S
C793 C792 1.389 . S
C793 C794 1.387 . S
C794 H779 0.930 . S
C794 C789 1.390 . S
C794 C793 1.387 . S
H795 C807 0.930 . S
H796 C809 0.930 . S
H797 C810 0.930 . S
H798 C814 0.959 . S
H799 C814 0.959 . S
H800 C814 0.961 . S
H801 C815 0.960 . S
H802 C815 0.961 . S
H803 C815 0.959 . S
H804 C818 0.929 . S
H805 C819 0.931 . S
H806 C821 0.930 . S
C807 H795 0.930 . S
C807 C808 1.399 . S
C807 C812 1.399 . S
C808 C807 1.399 . S
C808 C809 1.376 1_455 S
C809 H796 0.930 . S
C809 C808 1.376 1_655 S
C809 C810 1.388 . S
C810 H797 0.930 . S
C810 C809 1.388 . S
C810 C811 1.390 . S
C811 C810 1.390 . S
C811 C812 1.394 1_655 S
C811 C817 1.465 . S
C812 C807 1.399 . S
C812 C811 1.394 1_455 S
C812 C813 1.516 . S
C813 C812 1.516 . S
C813 C814 1.502 . S
C813 C815 1.561 . S
C813 C816 1.526 . S
C814 H798 0.959 . S
C814 H799 0.959 . S
C814 H800 0.961 . S
C814 C813 1.502 . S
C815 H801 0.960 . S
C815 H802 0.961 . S
C815 H803 0.959 . S
C815 C813 1.561 . S
C816 C813 1.526 . S
C816 C817 1.396 1_455 S
C816 C821 1.390 . S
C817 C811 1.465 . S
C817 C816 1.396 1_655 S
C817 C818 1.399 . S
C818 H804 0.929 . S
C818 C817 1.399 . S
C818 C819 1.385 . S
C819 H805 0.931 . S
C819 C818 1.385 . S
C819 C820 1.389 . S
C820 C819 1.389 . S
C820 C821 1.387 1_655 S
C821 H806 0.930 . S
C821 C816 1.390 . S
C821 C820 1.387 1_455 S
C349 C6 0.523 . S
C361 C325 0.526 . S
C376 C59 1.919 . S
C388 C253 1.890 . S
C403 C86 1.215 . S
C415 C289 1.190 . S
C430 C15 0.526 . S
C442 C301 0.396 . S
C469 C229 1.966 . S
C457 C50 2.008 . S
C496 C265 1.317 . S
C484 C95 1.323 . S
C511 C46 1.186 . S
C523 C181 1.189 . S
C538 C99 3.101 . S
C550 C193 3.047 . S
C565 C10 2.034 . S
C577 C121 1.997 . S
C604 C157 1.295 . S
C592 C55 1.253 . S
C631 C217 2.958 . S
C619 C90 3.014 . S
C646 C19 1.920 . S
C658 C145 1.895 . S
C685 C223 1.776 . S
C673 C18 1.732 . S
C700 C49 1.365 . S
C712 C151 1.381 . S
C727 C98 1.473 . S
C739 C187 1.503 . S
C766 C295 1.491 . S
C754 C58 1.420 . S
C793 C331 1.091 1_556 S
C781 C89 1.046 . S
C808 C9 1.340 . S
C820 C259 1.367 1_655 S
