# Generated by pormake.
# Topology eea, (3,6)-cn, num edge types: 1
# Building blocks:
#     Node 0, Type 0, BuildingBlock: BETDAH_clean_linker_0, # of connection points: 3
#     Node 1, Type 0, BuildingBlock: BETDAH_clean_linker_0, # of connection points: 3
#     Node 2, Type 0, BuildingBlock: BETDAH_clean_linker_0, # of connection points: 3
#     Node 3, Type 0, BuildingBlock: BETDAH_clean_linker_0, # of connection points: 3
#     Node 4, Type 0, BuildingBlock: BETDAH_clean_linker_0, # of connection points: 3
#     Node 5, Type 0, BuildingBlock: BETDAH_clean_linker_0, # of connection points: 3
#     Node 6, Type 0, BuildingBlock: BETDAH_clean_linker_0, # of connection points: 3
#     Node 7, Type 0, BuildingBlock: BETDAH_clean_linker_0, # of connection points: 3
#     Node 8, Type 0, BuildingBlock: BETDAH_clean_linker_0, # of connection points: 3
#     Node 9, Type 0, BuildingBlock: BETDAH_clean_linker_0, # of connection points: 3
#     Node 10, Type 0, BuildingBlock: BETDAH_clean_linker_0, # of connection points: 3
#     Node 11, Type 0, BuildingBlock: BETDAH_clean_linker_0, # of connection points: 3
#     Node 12, Type 0, BuildingBlock: BETDAH_clean_linker_0, # of connection points: 3
#     Node 13, Type 0, BuildingBlock: BETDAH_clean_linker_0, # of connection points: 3
#     Node 14, Type 0, BuildingBlock: BETDAH_clean_linker_0, # of connection points: 3
#     Node 15, Type 0, BuildingBlock: BETDAH_clean_linker_0, # of connection points: 3
#     Node 16, Type 0, BuildingBlock: BETDAH_clean_linker_0, # of connection points: 3
#     Node 17, Type 0, BuildingBlock: BETDAH_clean_linker_0, # of connection points: 3
#     Node 18, Type 1, BuildingBlock: NUHQIS_clean_sbu_0, # of connection points: 6
#     Node 19, Type 1, BuildingBlock: NUHQIS_clean_sbu_0, # of connection points: 6
#     Node 20, Type 1, BuildingBlock: NUHQIS_clean_sbu_0, # of connection points: 6
#     Node 21, Type 1, BuildingBlock: NUHQIS_clean_sbu_0, # of connection points: 6
#     Node 22, Type 1, BuildingBlock: NUHQIS_clean_sbu_0, # of connection points: 6
#     Node 23, Type 1, BuildingBlock: NUHQIS_clean_sbu_0, # of connection points: 6
#     Node 24, Type 1, BuildingBlock: NUHQIS_clean_sbu_0, # of connection points: 6
#     Node 25, Type 1, BuildingBlock: NUHQIS_clean_sbu_0, # of connection points: 6
#     Node 26, Type 1, BuildingBlock: NUHQIS_clean_sbu_0, # of connection points: 6
#     Edge 27, Type (0, 1), BuildingBlock: CIFDUS_clean_linker_0, # of connection points: 2
#     Edge 28, Type (0, 1), BuildingBlock: CIFDUS_clean_linker_0, # of connection points: 2
#     Edge 29, Type (0, 1), BuildingBlock: CIFDUS_clean_linker_0, # of connection points: 2
#     Edge 30, Type (0, 1), BuildingBlock: CIFDUS_clean_linker_0, # of connection points: 2
#     Edge 31, Type (0, 1), BuildingBlock: CIFDUS_clean_linker_0, # of connection points: 2
#     Edge 32, Type (0, 1), BuildingBlock: CIFDUS_clean_linker_0, # of connection points: 2
#     Edge 33, Type (0, 1), BuildingBlock: CIFDUS_clean_linker_0, # of connection points: 2
#     Edge 34, Type (0, 1), BuildingBlock: CIFDUS_clean_linker_0, # of connection points: 2
#     Edge 35, Type (0, 1), BuildingBlock: CIFDUS_clean_linker_0, # of connection points: 2
#     Edge 36, Type (0, 1), BuildingBlock: CIFDUS_clean_linker_0, # of connection points: 2
#     Edge 37, Type (0, 1), BuildingBlock: CIFDUS_clean_linker_0, # of connection points: 2
#     Edge 38, Type (0, 1), BuildingBlock: CIFDUS_clean_linker_0, # of connection points: 2
#     Edge 39, Type (0, 1), BuildingBlock: CIFDUS_clean_linker_0, # of connection points: 2
#     Edge 40, Type (0, 1), BuildingBlock: CIFDUS_clean_linker_0, # of connection points: 2
#     Edge 41, Type (0, 1), BuildingBlock: CIFDUS_clean_linker_0, # of connection points: 2
#     Edge 42, Type (0, 1), BuildingBlock: CIFDUS_clean_linker_0, # of connection points: 2
#     Edge 43, Type (0, 1), BuildingBlock: CIFDUS_clean_linker_0, # of connection points: 2
#     Edge 44, Type (0, 1), BuildingBlock: CIFDUS_clean_linker_0, # of connection points: 2
#     Edge 45, Type (0, 1), BuildingBlock: CIFDUS_clean_linker_0, # of connection points: 2
#     Edge 46, Type (0, 1), BuildingBlock: CIFDUS_clean_linker_0, # of connection points: 2
#     Edge 47, Type (0, 1), BuildingBlock: CIFDUS_clean_linker_0, # of connection points: 2
#     Edge 48, Type (0, 1), BuildingBlock: CIFDUS_clean_linker_0, # of connection points: 2
#     Edge 49, Type (0, 1), BuildingBlock: CIFDUS_clean_linker_0, # of connection points: 2
#     Edge 50, Type (0, 1), BuildingBlock: CIFDUS_clean_linker_0, # of connection points: 2
#     Edge 51, Type (0, 1), BuildingBlock: CIFDUS_clean_linker_0, # of connection points: 2
#     Edge 52, Type (0, 1), BuildingBlock: CIFDUS_clean_linker_0, # of connection points: 2
#     Edge 53, Type (0, 1), BuildingBlock: CIFDUS_clean_linker_0, # of connection points: 2
#     Edge 54, Type (0, 1), BuildingBlock: CIFDUS_clean_linker_0, # of connection points: 2
#     Edge 55, Type (0, 1), BuildingBlock: CIFDUS_clean_linker_0, # of connection points: 2
#     Edge 56, Type (0, 1), BuildingBlock: CIFDUS_clean_linker_0, # of connection points: 2
#     Edge 57, Type (0, 1), BuildingBlock: CIFDUS_clean_linker_0, # of connection points: 2
#     Edge 58, Type (0, 1), BuildingBlock: CIFDUS_clean_linker_0, # of connection points: 2
#     Edge 59, Type (0, 1), BuildingBlock: CIFDUS_clean_linker_0, # of connection points: 2
#     Edge 60, Type (0, 1), BuildingBlock: CIFDUS_clean_linker_0, # of connection points: 2
#     Edge 61, Type (0, 1), BuildingBlock: CIFDUS_clean_linker_0, # of connection points: 2
#     Edge 62, Type (0, 1), BuildingBlock: CIFDUS_clean_linker_0, # of connection points: 2
#     Edge 63, Type (0, 1), BuildingBlock: CIFDUS_clean_linker_0, # of connection points: 2
#     Edge 64, Type (0, 1), BuildingBlock: CIFDUS_clean_linker_0, # of connection points: 2
#     Edge 65, Type (0, 1), BuildingBlock: CIFDUS_clean_linker_0, # of connection points: 2
#     Edge 66, Type (0, 1), BuildingBlock: CIFDUS_clean_linker_0, # of connection points: 2
#     Edge 67, Type (0, 1), BuildingBlock: CIFDUS_clean_linker_0, # of connection points: 2
#     Edge 68, Type (0, 1), BuildingBlock: CIFDUS_clean_linker_0, # of connection points: 2
#     Edge 69, Type (0, 1), BuildingBlock: CIFDUS_clean_linker_0, # of connection points: 2
#     Edge 70, Type (0, 1), BuildingBlock: CIFDUS_clean_linker_0, # of connection points: 2
#     Edge 71, Type (0, 1), BuildingBlock: CIFDUS_clean_linker_0, # of connection points: 2
#     Edge 72, Type (0, 1), BuildingBlock: CIFDUS_clean_linker_0, # of connection points: 2
#     Edge 73, Type (0, 1), BuildingBlock: CIFDUS_clean_linker_0, # of connection points: 2
#     Edge 74, Type (0, 1), BuildingBlock: CIFDUS_clean_linker_0, # of connection points: 2
#     Edge 75, Type (0, 1), BuildingBlock: CIFDUS_clean_linker_0, # of connection points: 2
#     Edge 76, Type (0, 1), BuildingBlock: CIFDUS_clean_linker_0, # of connection points: 2
#     Edge 77, Type (0, 1), BuildingBlock: CIFDUS_clean_linker_0, # of connection points: 2
#     Edge 78, Type (0, 1), BuildingBlock: CIFDUS_clean_linker_0, # of connection points: 2
#     Edge 79, Type (0, 1), BuildingBlock: CIFDUS_clean_linker_0, # of connection points: 2
#     Edge 80, Type (0, 1), BuildingBlock: CIFDUS_clean_linker_0, # of connection points: 2
# Relax obj value: 0.058
# Max RMSD: 0.213
# Mean RMSD: 0.151
data_MOF--net-eea--node1-NUHQIS_clean_sbu_0--node2-BETDAH_clean_linker_0--edge1-CIFDUS_clean_linker_0
_symmetry_space_group_name_H-M    P1
_symmetry_Int_Tables_number       1
_symmetry_cell_setting            triclinic
loop_
_symmetry_equiv_pos_as_xyz
'x, y, z'
_cell_length_a     47.962231
_cell_length_b     48.207563
_cell_length_c     61.695685
_cell_angle_alpha  93.146726
_cell_angle_beta   93.645231
_cell_angle_gamma 119.79451
loop_
_atom_site_label
_atom_site_type_symbol
_atom_site_fract_x
_atom_site_fract_y
_atom_site_fract_z
_atom_type_partial_charge
H0 H 0.25866 0.08598 0.43865 0.0
H1 H 0.29922 0.1868 0.43111 0.0
H2 H 0.25136 0.1174 0.37558 0.0
C3 C 0.2628 0.10513 0.42858 0.0
C4 C 0.2522 0.09761 0.4061 0.0
C5 C 0.2799 0.13726 0.43793 0.0
C6 C 0.28591 0.16183 0.42444 0.0
C7 C 0.27526 0.15456 0.40215 0.0
C8 C 0.2583 0.12258 0.39303 0.0
N9 N 0.28474 0.17964 0.38851 0.0
C10 C 0.26442 0.19119 0.38237 0.0
H11 H 0.956 0.18664 0.4381 0.0
H12 H 0.86514 0.09719 0.42906 0.0
H13 H 0.92878 0.12398 0.37874 0.0
C14 C 0.93891 0.16451 0.42829 0.0
C15 C 0.94636 0.15763 0.40767 0.0
C16 C 0.90949 0.14292 0.43623 0.0
C17 C 0.88759 0.11425 0.42314 0.0
C18 C 0.89475 0.1076 0.40241 0.0
C19 C 0.92384 0.1293 0.39489 0.0
N20 N 0.87336 0.0796 0.38835 0.0
C21 C 0.84563 0.05335 0.39398 0.0
H22 H 0.82282 0.74198 0.44862 0.0
H23 H 0.92458 0.77542 0.45088 0.0
H24 H 0.87992 0.80593 0.40275 0.0
C25 C 0.84545 0.75518 0.44162 0.0
C26 C 0.84724 0.77321 0.42402 0.0
C27 C 0.87293 0.75529 0.45126 0.0
C28 C 0.90298 0.77415 0.44319 0.0
C29 C 0.90523 0.79239 0.42565 0.0
C30 C 0.87748 0.79167 0.41622 0.0
N31 N 0.93554 0.81546 0.41935 0.0
C32 C 0.95823 0.80875 0.4113 0.0
H33 H 0.06504 0.25538 0.59441 0.0
H34 H 0.15714 0.25928 0.60196 0.0
H35 H 0.09907 0.23716 0.65525 0.0
C36 C 0.08283 0.25238 0.6041 0.0
C37 C 0.07788 0.24483 0.62582 0.0
C38 C 0.11143 0.25787 0.59521 0.0
C39 C 0.13492 0.25493 0.6083 0.0
C40 C 0.1303 0.24767 0.62998 0.0
C41 C 0.10208 0.24282 0.6385 0.0
N42 N 0.15494 0.2487 0.64458 0.0
C43 C 0.17404 0.23525 0.64019 0.0
H44 H 0.76288 0.82243 0.61501 0.0
H45 H 0.77371 0.91662 0.62112 0.0
H46 H 0.80223 0.88222 0.67605 0.0
C47 C 0.77062 0.84486 0.62481 0.0
C48 C 0.7832 0.84908 0.64672 0.0
C49 C 0.7676 0.86923 0.61532 0.0
C50 C 0.77595 0.89772 0.62829 0.0
C51 C 0.78795 0.90195 0.65036 0.0
C52 C 0.79175 0.87787 0.65928 0.0
N53 N 0.79708 0.93021 0.6642 0.0
C54 C 0.79651 0.95709 0.65783 0.0
H55 H 0.18443 0.93119 0.59935 0.0
H56 H 0.12485 0.83015 0.60468 0.0
H57 H 0.14248 0.89783 0.65919 0.0
C58 C 0.16919 0.91182 0.6087 0.0
C59 C 0.16551 0.91877 0.6305 0.0
C60 C 0.15482 0.87998 0.59921 0.0
C61 C 0.1357 0.85491 0.61156 0.0
C62 C 0.1303 0.86133 0.63281 0.0
C63 C 0.14512 0.89324 0.64227 0.0
N64 N 0.11348 0.83514 0.64525 0.0
C65 C 0.08664 0.82974 0.65571 0.0
H66 H 0.9364 0.42242 0.77511 0.0
H67 H 0.96923 0.52139 0.76493 0.0
H68 H 0.94406 0.45162 0.71017 0.0
C69 C 0.94152 0.44094 0.76426 0.0
C70 C 0.93765 0.43291 0.7416 0.0
C71 C 0.9531 0.47284 0.77301 0.0
C72 C 0.96005 0.49664 0.75861 0.0
C73 C 0.95659 0.48877 0.73597 0.0
C74 C 0.94568 0.45715 0.72764 0.0
N75 N 0.9668 0.51271 0.72132 0.0
C76 C 0.95568 0.53428 0.72044 0.0
H77 H 0.63222 0.52618 0.7815 0.0
H78 H 0.54613 0.43415 0.76482 0.0
H79 H 0.61305 0.47607 0.71742 0.0
C80 C 0.61691 0.50586 0.76963 0.0
C81 C 0.62666 0.5046 0.74866 0.0
C82 C 0.58787 0.48058 0.77566 0.0
C83 C 0.56859 0.45361 0.76046 0.0
C84 C 0.57805 0.452 0.73956 0.0
C85 C 0.60673 0.47746 0.73383 0.0
N86 N 0.55956 0.42533 0.72369 0.0
C87 C 0.5294 0.39906 0.7258 0.0
H88 H 0.50536 0.10053 0.79269 0.0
H89 H 0.59042 0.09595 0.77967 0.0
H90 H 0.54134 0.11948 0.72993 0.0
C91 C 0.52337 0.10345 0.7819 0.0
C92 C 0.5207 0.11188 0.76068 0.0
C93 C 0.54812 0.09724 0.789 0.0
C94 C 0.57149 0.10107 0.77474 0.0
C95 C 0.56922 0.10971 0.75354 0.0
C96 C 0.5437 0.11457 0.74667 0.0
N97 N 0.58893 0.10894 0.73754 0.0
C98 C 0.6224 0.12259 0.74009 0.0
H99 H 0.72776 0.57447 0.92371 0.0
H100 H 0.82642 0.59826 0.93963 0.0
H101 H 0.75961 0.56276 0.98772 0.0
C102 C 0.74632 0.57511 0.93504 0.0
C103 C 0.73924 0.56617 0.95628 0.0
C104 C 0.77767 0.58675 0.92872 0.0
C105 C 0.802 0.58895 0.94394 0.0
C106 C 0.79536 0.58018 0.96508 0.0
C107 C 0.76417 0.56894 0.97119 0.0
N108 N 0.82104 0.58758 0.9812 0.0
C109 C 0.83329 0.56727 0.98481 0.0
H110 H 0.41261 0.15579 0.94956 0.0
H111 H 0.37995 0.22323 0.96221 0.0
H112 H 0.41847 0.19456 1.01536 0.0
C113 C 0.40898 0.1714 0.96089 0.0
C114 C 0.41821 0.17369 0.98334 0.0
C115 C 0.39455 0.18869 0.95303 0.0
C116 C 0.39044 0.20922 0.96793 0.0
C117 C 0.39911 0.21122 0.99034 0.0
C118 C 0.4124 0.19314 0.99795 0.0
N119 N 0.3943 0.23106 1.00557 0.0
C120 C 0.40312 0.26239 1.00207 0.0
H121 H 0.83922 0.27411 0.93146 0.0
H122 H 0.76462 0.1748 0.91904 0.0
H123 H 0.78166 0.22502 0.98244 0.0
C124 C 0.81952 0.25271 0.93681 0.0
C125 C 0.81234 0.25319 0.95856 0.0
C126 C 0.80232 0.22475 0.92217 0.0
C127 C 0.77787 0.19688 0.92979 0.0
C128 C 0.76999 0.19702 0.95127 0.0
C129 C 0.78689 0.22533 0.96559 0.0
N130 N 0.74823 0.16732 0.95883 0.0
C131 C 0.72008 0.16105 0.96784 0.0
H132 H 0.58256 0.74663 0.11269 0.0
H133 H 0.59654 0.83777 0.09558 0.0
H134 H 0.5644 0.75933 0.04582 0.0
C135 C 0.58123 0.76141 0.10051 0.0
C136 C 0.57196 0.74869 0.07853 0.0
C137 C 0.59008 0.79345 0.10687 0.0
C138 C 0.58957 0.81301 0.09089 0.0
C139 C 0.58038 0.80049 0.06882 0.0
C140 C 0.57185 0.76865 0.06285 0.0
N141 N 0.58013 0.81913 0.0519 0.0
C142 C 0.57821 0.84688 0.05458 0.0
H143 H 0.28744 0.86037 0.1101 0.0
H144 H 0.20379 0.76521 0.10692 0.0
H145 H 0.27263 0.78688 0.06035 0.0
C146 C 0.2729 0.83607 0.1023 0.0
C147 C 0.28361 0.82645 0.08409 0.0
C148 C 0.24426 0.81404 0.111 0.0
C149 C 0.22602 0.7823 0.10076 0.0
C150 C 0.23646 0.77264 0.08254 0.0
C151 C 0.26507 0.79467 0.07452 0.0
N152 N 0.21947 0.74097 0.07178 0.0
C153 C 0.18896 0.71644 0.07531 0.0
H154 H 0.1579 0.41561 0.11239 0.0
H155 H 0.24514 0.41209 0.10505 0.0
H156 H 0.20523 0.44231 0.05384 0.0
C157 C 0.17799 0.42009 0.1032 0.0
C158 C 0.17879 0.43062 0.08226 0.0
C159 C 0.2018 0.41336 0.11181 0.0
C160 C 0.22694 0.41766 0.09906 0.0
C161 C 0.22766 0.42774 0.07804 0.0
C162 C 0.2039 0.43431 0.07 0.0
N163 N 0.24904 0.42751 0.06323 0.0
C164 C 0.28187 0.43858 0.06779 0.0
H165 H 0.38741 0.90652 0.26323 0.0
H166 H 0.48706 0.93093 0.27359 0.0
H167 H 0.4248 0.89082 0.32374 0.0
C168 C 0.40716 0.90743 0.27341 0.0
C169 C 0.40195 0.89643 0.29427 0.0
C170 C 0.4378 0.92017 0.26573 0.0
C171 C 0.46302 0.92033 0.27881 0.0
C172 C 0.45803 0.90929 0.29955 0.0
C173 C 0.42777 0.89774 0.30725 0.0
N174 N 0.48434 0.91409 0.31411 0.0
C175 C 0.50071 0.89742 0.31116 0.0
H176 H 0.09382 0.49812 0.27902 0.0
H177 H 0.07316 0.57331 0.29695 0.0
H178 H 0.11713 0.54221 0.34509 0.0
C179 C 0.09459 0.51577 0.29106 0.0
C180 C 0.10807 0.51854 0.31256 0.0
C181 C 0.08155 0.5352 0.2852 0.0
C182 C 0.08275 0.55794 0.30117 0.0
C183 C 0.09562 0.5603 0.32274 0.0
C184 C 0.10788 0.54052 0.32827 0.0
N185 N 0.09568 0.58151 0.33958 0.0
C186 C 0.09498 0.60932 0.33612 0.0
H187 H 0.50661 0.58048 0.26487 0.0
H188 H 0.43399 0.48458 0.27567 0.0
H189 H 0.48343 0.55647 0.32992 0.0
C190 C 0.49204 0.56329 0.27578 0.0
C191 C 0.49721 0.57275 0.29829 0.0
C192 C 0.46948 0.53155 0.26731 0.0
C193 C 0.45102 0.50933 0.28174 0.0
C194 C 0.45573 0.51859 0.30425 0.0
C195 C 0.47892 0.55008 0.31242 0.0
N196 N 0.4412 0.49537 0.31914 0.0
C197 C 0.40868 0.48094 0.3223 0.0
Tb198 Tb 0.49135 0.99544 1.00366 0.0
Eu199 Eu 0.50502 0.02817 0.05452 0.0
C200 C 0.51613 0.97009 0.04182 0.0
C201 C 0.43785 0.96592 0.03586 0.0
C202 C 0.49293 0.99318 0.94334 0.0
C203 C 0.52677 0.01249 0.91343 0.0
C204 C 0.51864 0.99587 0.9321 0.0
C205 C 0.47514 0.00707 0.9352 0.0
C206 C 0.48314 0.02353 0.91648 0.0
C207 C 0.50925 0.02675 0.90538 0.0
C208 C 0.48556 0.97654 0.96365 0.0
O209 O 0.46678 0.02288 1.0052 0.0
O210 O 0.49701 0.06122 0.03377 0.0
O211 O 0.55265 0.05041 0.04027 0.0
O212 O 0.53231 0.04416 1.00475 0.0
C213 C 0.47644 0.05089 1.01604 0.0
O214 O 0.48989 0.04448 0.08291 0.0
O215 O 0.53615 0.04672 0.08526 0.0
O216 O 0.50326 0.98082 0.05568 0.0
O217 O 0.51972 0.97888 0.02195 0.0
O218 O 0.45233 0.95903 0.02067 0.0
O219 O 0.45178 0.99422 0.04707 0.0
C220 C 0.55666 0.05779 0.02012 0.0
O221 O 0.51036 0.98322 0.97736 0.0
O222 O 0.46192 0.9752 0.97379 0.0
C223 C 0.50665 0.03162 0.11571 0.0
C224 C 0.49204 0.99877 0.15361 0.0
C225 C 0.50021 0.03123 0.15447 0.0
C226 C 0.50752 0.04753 0.13567 0.0
C227 C 0.49819 0.99917 0.11473 0.0
C228 C 0.49107 0.98293 0.1335 0.0
C229 C 0.51447 0.04869 0.09593 0.0
H230 H 0.54722 0.01467 0.90557 0.0
H231 H 0.5328 0.98541 0.93793 0.0
H232 H 0.45508 0.00542 0.94333 0.0
H233 H 0.46861 0.03357 0.91062 0.0
H234 H 0.50143 0.04417 0.16974 0.0
H235 H 0.51396 0.07255 0.13673 0.0
H236 H 0.49712 0.98636 0.09944 0.0
H237 H 0.48444 0.95785 0.13221 0.0
Tb238 Tb 0.00496 0.48342 1.00695 0.0
Eu239 Eu 0.97859 0.48006 0.05556 0.0
C240 C 0.03547 0.54489 0.04073 0.0
C241 C 0.04138 0.47339 0.04767 0.0
C242 C 0.00649 0.48072 0.94594 0.0
C243 C 0.99814 0.50659 0.91528 0.0
C244 C 0.01032 0.50845 0.93692 0.0
C245 C 0.99032 0.45122 0.93284 0.0
C246 C 0.97805 0.44934 0.91134 0.0
C247 C 0.98185 0.47698 0.90225 0.0
C248 C 0.02027 0.48213 0.96847 0.0
O249 O 0.9806 0.43441 1.0156 0.0
O250 O 0.94172 0.43535 0.03398 0.0
O251 O 0.95478 0.50099 0.03492 0.0
O252 O 0.95904 0.48237 1.00085 0.0
C253 C 0.95103 0.41979 0.02098 0.0
O254 O 0.95902 0.45294 0.08338 0.0
O255 O 0.96756 0.50152 0.08335 0.0
O256 O 0.02577 0.52686 0.05693 0.0
O257 O 0.02388 0.5329 0.0204 0.0
O258 O 0.04373 0.4851 0.02861 0.0
O259 O 0.01642 0.46551 0.05877 0.0
C260 C 0.94672 0.49525 1.01372 0.0
O261 O 0.03082 0.50842 0.98138 0.0
O262 O 1.00442 0.45681 0.97872 0.0
C263 C 0.978 0.48543 0.11683 0.0
C264 C 0.01139 0.49957 0.15897 0.0
C265 C 0.97739 0.48138 0.15587 0.0
C266 C 0.96087 0.47441 0.13499 0.0
C267 C 0.01187 0.50354 0.11975 0.0
C268 C 0.0284 0.51063 0.14062 0.0
C269 C 0.9606 0.47735 0.09484 0.0
H270 H 1.00137 0.52829 0.90877 0.0
H271 H 0.02289 0.53161 0.94649 0.0
H272 H 0.98743 0.4295 0.93915 0.0
H273 H 0.96622 0.42627 0.90164 0.0
H274 H 0.96351 0.47201 0.16954 0.0
H275 H 0.93473 0.46018 0.13299 0.0
H276 H 0.02552 0.51215 0.10587 0.0
H277 H 0.05452 0.52501 0.14237 0.0
Tb278 Tb 0.52553 0.51256 0.04261 0.0
Eu279 Eu 0.5052 0.5154 0.99089 0.0
C280 C 0.49692 0.45213 1.0098 0.0
C281 C 0.57523 0.52783 1.00725 0.0
C282 C 0.52605 0.51381 0.10323 0.0
C283 C 0.48959 0.49079 0.13128 0.0
C284 C 0.50086 0.48717 0.11155 0.0
C285 C 0.53983 0.5441 0.11521 0.0
C286 C 0.52855 0.54771 0.13492 0.0
C287 C 0.50332 0.5211 0.14323 0.0
C288 C 0.5384 0.50983 0.0825 0.0
O289 O 0.52051 0.55467 0.04166 0.0
O290 O 0.53472 0.56611 1.00728 0.0
O291 O 0.46541 0.5143 1.009 0.0
O292 O 0.4731 0.49244 0.03953 0.0
C293 C 0.5318 0.57521 0.02704 0.0
O294 O 0.50951 0.543 0.96303 0.0
O295 O 0.47911 0.49138 0.95903 0.0
O296 O 0.48202 0.46368 0.99807 0.0
O297 O 0.5215 0.47099 0.02415 0.0
O298 O 0.57085 0.5348 0.02729 0.0
O299 O 0.55115 0.51378 0.99173 0.0
C300 C 0.45532 0.50016 0.02686 0.0
O301 O 0.51877 0.48483 0.06893 0.0
O302 O 0.55417 0.53542 0.07234 0.0
C303 C 0.50591 0.51642 0.92875 0.0
C304 C 0.5318 0.51478 0.88908 0.0
C305 C 0.51256 0.52909 0.89116 0.0
C306 C 0.49973 0.52984 0.91078 0.0
C307 C 0.52528 0.50229 0.92688 0.0
C308 C 0.53799 0.50134 0.90718 0.0
C309 C 0.49215 0.51761 0.94927 0.0
H310 H 0.46999 0.46984 0.13712 0.0
H311 H 0.48986 0.46342 0.10284 0.0
H312 H 0.55954 0.56506 0.10946 0.0
H313 H 0.5401 0.57131 0.14389 0.0
H314 H 0.50703 0.53934 0.87749 0.0
H315 H 0.48487 0.54087 0.91191 0.0
H316 H 0.53059 0.49203 0.94064 0.0
H317 H 0.553 0.49048 0.90621 0.0
Tb318 Tb 0.15452 0.32219 0.32939 0.0
Eu319 Eu 0.17537 0.35665 0.38064 0.0
C320 C 0.17979 0.29472 0.36613 0.0
C321 C 0.10507 0.29703 0.3643 0.0
C322 C 0.14895 0.31757 0.26899 0.0
C323 C 0.14914 0.31498 0.22946 0.0
C324 C 0.1421 0.29966 0.24871 0.0
C325 C 0.16303 0.35109 0.26977 0.0
C326 C 0.17006 0.36642 0.25056 0.0
C327 C 0.16322 0.3486 0.23009 0.0
C328 C 0.14244 0.30141 0.28928 0.0
O329 O 0.13407 0.35318 0.33317 0.0
O330 O 0.16994 0.39141 0.36012 0.0
O331 O 0.22105 0.3751 0.36408 0.0
O332 O 0.1982 0.36855 0.32909 0.0
C333 C 0.14769 0.38215 0.34345 0.0
O334 O 0.16576 0.37797 0.40939 0.0
O335 O 0.20743 0.3717 0.41098 0.0
O336 O 0.17068 0.30798 0.38113 0.0
O337 O 0.18081 0.30203 0.34588 0.0
O338 O 0.11678 0.28836 0.34815 0.0
O339 O 0.12151 0.32547 0.37533 0.0
C340 C 0.22371 0.38096 0.34354 0.0
O341 O 0.16788 0.30634 0.30158 0.0
O342 O 0.12182 0.30387 0.30086 0.0
C343 C 0.18145 0.36571 0.44312 0.0
C344 C 0.16867 0.34045 0.48411 0.0
C345 C 0.1876 0.37378 0.4828 0.0
C346 C 0.19391 0.38622 0.46254 0.0
C347 C 0.16217 0.33247 0.44422 0.0
C348 C 0.15578 0.31996 0.46451 0.0
C349 C 0.18939 0.37925 0.42196 0.0
H350 H 0.14313 0.30039 0.21404 0.0
H351 H 0.13134 0.27379 0.24775 0.0
H352 H 0.16877 0.36543 0.28529 0.0
H353 H 0.18127 0.39234 0.25178 0.0
H354 H 0.19749 0.39038 0.49746 0.0
H355 H 0.20875 0.41193 0.46207 0.0
H356 H 0.15236 0.31618 0.42939 0.0
H357 H 0.14136 0.29419 0.46485 0.0
Tb358 Tb 0.6671 0.81628 0.33771 0.0
Eu359 Eu 0.64882 0.8121 0.38879 0.0
C360 C 0.6969 0.87744 0.37085 0.0
C361 C 0.70865 0.80608 0.37462 0.0
C362 C 0.66739 0.82096 0.27729 0.0
C363 C 0.67176 0.82565 0.2385 0.0
C364 C 0.68549 0.82665 0.25942 0.0
C365 C 0.63576 0.81554 0.27417 0.0
C366 C 0.62194 0.8144 0.25322 0.0
C367 C 0.63957 0.81876 0.23507 0.0
C368 C 0.68093 0.8183 0.29863 0.0
O369 O 0.64166 0.76598 0.34429 0.0
O370 O 0.60927 0.76799 0.36905 0.0
O371 O 0.61812 0.82818 0.37064 0.0
O372 O 0.62114 0.81535 0.33455 0.0
C373 C 0.61475 0.75209 0.35364 0.0
O374 O 0.63657 0.78712 0.41825 0.0
O375 O 0.63912 0.83325 0.41735 0.0
O376 O 0.69359 0.8598 0.38701 0.0
O377 O 0.68073 0.86429 0.35162 0.0
O378 O 0.70905 0.82134 0.35751 0.0
O379 O 0.6841 0.79432 0.38637 0.0
C380 C 0.60826 0.82419 0.34974 0.0
O381 O 0.69319 0.84335 0.31291 0.0
O382 O 0.66326 0.79197 0.30746 0.0
C383 C 0.65073 0.82001 0.45158 0.0
C384 C 0.67993 0.84029 0.49492 0.0
C385 C 0.64616 0.82485 0.49036 0.0
C386 C 0.63173 0.81481 0.46889 0.0
C387 C 0.68443 0.83536 0.45591 0.0
C388 C 0.69894 0.84537 0.47745 0.0
C389 C 0.63486 0.81011 0.42918 0.0
H390 H 0.68587 0.82875 0.22487 0.0
H391 H 0.70991 0.83079 0.26153 0.0
H392 H 0.62143 0.8112 0.2878 0.0
H393 H 0.59722 0.80939 0.25115 0.0
H394 H 0.63081 0.82011 0.50343 0.0
H395 H 0.60566 0.80303 0.46578 0.0
H396 H 0.69944 0.83973 0.44266 0.0
H397 H 0.72503 0.85743 0.48041 0.0
Tb398 Tb 0.19079 0.8501 0.37222 0.0
Eu399 Eu 0.1649 0.85998 0.32387 0.0
C400 C 0.15433 0.7934 0.33612 0.0
C401 C 0.23494 0.868 0.33455 0.0
C402 C 0.2021 0.85014 0.43252 0.0
C403 C 0.17984 0.83228 0.4668 0.0
C404 C 0.18613 0.82548 0.44594 0.0
C405 C 0.21208 0.88192 0.44049 0.0
C406 C 0.20605 0.88878 0.46146 0.0
C407 C 0.18966 0.86402 0.47487 0.0
C408 C 0.20699 0.84191 0.41013 0.0
O409 O 0.21297 0.90148 0.37045 0.0
O410 O 0.17732 0.90491 0.34546 0.0
O411 O 0.12224 0.8419 0.34417 0.0
O412 O 0.15174 0.85922 0.37793 0.0
C413 C 0.20073 0.91785 0.36163 0.0
O414 O 0.17236 0.88816 0.29597 0.0
O415 O 0.13182 0.83977 0.29387 0.0
O416 O 0.1659 0.81373 0.32147 0.0
O417 O 0.15457 0.80354 0.35625 0.0
O418 O 0.22413 0.84875 0.3501 0.0
O419 O 0.21845 0.88045 0.326 0.0
C420 C 0.12437 0.84833 0.3655 0.0
O421 O 0.18102 0.82075 0.39793 0.0
O422 O 0.22591 0.86542 0.39924 0.0
C423 C 0.16031 0.8558 0.26275 0.0
C424 C 0.18091 0.84007 0.22415 0.0
C425 C 0.16342 0.85646 0.22345 0.0
C426 C 0.15316 0.86418 0.24256 0.0
C427 C 0.17818 0.83994 0.26358 0.0
C428 C 0.18828 0.83212 0.24454 0.0
C429 C 0.14982 0.86392 0.28305 0.0
H430 H 0.16669 0.81247 0.47641 0.0
H431 H 0.17804 0.80077 0.44013 0.0
H432 H 0.22437 0.9015 0.43053 0.0
H433 H 0.21442 0.91356 0.46719 0.0
H434 H 0.1571 0.86278 0.20806 0.0
H435 H 0.13955 0.87657 0.24156 0.0
H436 H 0.18436 0.83359 0.27901 0.0
H437 H 0.20214 0.82001 0.24584 0.0
Tb438 Tb 0.84218 0.66098 0.66715 0.0
Eu439 Eu 0.85621 0.69368 0.71852 0.0
C440 C 0.87124 0.63872 0.705 0.0
C441 C 0.79052 0.62879 0.70047 0.0
C442 C 0.84261 0.6561 0.60702 0.0
C443 C 0.8476 0.6537 0.56803 0.0
C444 C 0.83956 0.63851 0.58727 0.0
C445 C 0.85375 0.68911 0.60727 0.0
C446 C 0.8617 0.70431 0.58805 0.0
C447 C 0.85889 0.68687 0.56814 0.0
C448 C 0.83572 0.6403 0.62743 0.0
O449 O 0.81859 0.68948 0.66796 0.0
O450 O 0.84648 0.72581 0.69816 0.0
O451 O 0.90336 0.7189 0.70323 0.0
O452 O 0.88157 0.71002 0.66769 0.0
C453 C 0.82774 0.71679 0.67966 0.0
O454 O 0.84243 0.71285 0.74617 0.0
O455 O 0.88607 0.70993 0.74982 0.0
O456 O 0.85769 0.64797 0.71926 0.0
O457 O 0.87372 0.64781 0.68519 0.0
O458 O 0.805 0.62389 0.68444 0.0
O459 O 0.80344 0.6566 0.71231 0.0
C460 C 0.90614 0.72535 0.68277 0.0
O461 O 0.86095 0.64816 0.64105 0.0
O462 O 0.81245 0.63998 0.63746 0.0
C463 C 0.85692 0.70165 0.78053 0.0
C464 C 0.84136 0.67569 0.82099 0.0
C465 C 0.85569 0.70902 0.81966 0.0
C466 C 0.8634 0.72183 0.79964 0.0
C467 C 0.84217 0.66834 0.7816 0.0
C468 C 0.83445 0.65546 0.80165 0.0
C469 C 0.86594 0.71567 0.7597 0.0
H470 H 0.84552 0.63951 0.55315 0.0
H471 H 0.83133 0.61308 0.58677 0.0
H472 H 0.85651 0.70318 0.62239 0.0
H473 H 0.86983 0.72973 0.5888 0.0
H474 H 0.86084 0.72528 0.8341 0.0
H475 H 0.87459 0.74757 0.79911 0.0
H476 H 0.83693 0.65235 0.76697 0.0
H477 H 0.82371 0.62975 0.80205 0.0
Tb478 Tb 0.35253 0.16996 0.67079 0.0
Eu479 Eu 0.32521 0.15107 0.71867 0.0
C480 C 0.38217 0.22111 0.71192 0.0
C481 C 0.38865 0.15059 0.70603 0.0
C482 C 0.3567 0.17338 0.61078 0.0
C483 C 0.36203 0.16731 0.57219 0.0
C484 C 0.37569 0.1756 0.59391 0.0
C485 C 0.32367 0.16232 0.60571 0.0
C486 C 0.30998 0.15415 0.58396 0.0
C487 C 0.32905 0.15675 0.5669 0.0
C488 C 0.37179 0.18296 0.63347 0.0
O489 O 0.32432 0.11777 0.66872 0.0
O490 O 0.28918 0.11036 0.69422 0.0
O491 O 0.30043 0.17517 0.70296 0.0
O492 O 0.30447 0.16461 0.66697 0.0
C493 C 0.29713 0.0997 0.67701 0.0
O494 O 0.30873 0.11797 0.74393 0.0
O495 O 0.30968 0.16334 0.74831 0.0
O496 O 0.37213 0.19819 0.72501 0.0
O497 O 0.3711 0.21514 0.69116 0.0
O498 O 0.39182 0.17041 0.69125 0.0
O499 O 0.36171 0.13518 0.71515 0.0
C500 C 0.2913 0.17305 0.68213 0.0
O501 O 0.36334 0.20002 0.64554 0.0
O502 O 0.37265 0.16062 0.64393 0.0
C503 C 0.32015 0.14325 0.77979 0.0
C504 C 0.34746 0.15547 0.82353 0.0
C505 C 0.31422 0.13408 0.81792 0.0
C506 C 0.30071 0.12809 0.79624 0.0
C507 C 0.35342 0.16414 0.78514 0.0
C508 C 0.36698 0.17022 0.80685 0.0
C509 C 0.30529 0.13776 0.75726 0.0
H510 H 0.37731 0.16902 0.55954 0.0
H511 H 0.40118 0.18386 0.59753 0.0
H512 H 0.30854 0.16032 0.61854 0.0
H513 H 0.28461 0.14641 0.58051 0.0
H514 H 0.2986 0.12188 0.83028 0.0
H515 H 0.275 0.11179 0.79235 0.0
H516 H 0.36879 0.17606 0.77258 0.0
H517 H 0.39259 0.187 0.81061 0.0
Tb518 Tb 0.86203 0.19961 0.6998 0.0
Eu519 Eu 0.83245 0.19392 0.64824 0.0
C520 C 0.82544 0.13352 0.67154 0.0
C521 C 0.90401 0.20451 0.66062 0.0
C522 C 0.87218 0.20531 0.76117 0.0
C523 C 0.83252 0.17582 0.78612 0.0
C524 C 0.84366 0.17788 0.76544 0.0
C525 C 0.88922 0.23053 0.77779 0.0
C526 C 0.87797 0.22863 0.79831 0.0
C527 C 0.84946 0.20132 0.80272 0.0
C528 C 0.88426 0.20921 0.73948 0.0
O529 O 0.8844 0.2455 0.68654 0.0
O530 O 0.84103 0.24015 0.66604 0.0
O531 O 0.78966 0.17698 0.66747 0.0
O532 O 0.81485 0.19579 0.70265 0.0
C533 C 0.86737 0.25799 0.67927 0.0
O534 O 0.83509 0.21718 0.61846 0.0
O535 O 0.79928 0.16698 0.61913 0.0
O536 O 0.8328 0.14818 0.65366 0.0
O537 O 0.82839 0.14909 0.69045 0.0
O538 O 0.89769 0.19652 0.68063 0.0
O539 O 0.88483 0.2096 0.6474 0.0
C540 C 0.78883 0.18298 0.68843 0.0
O541 O 0.877 0.18343 0.72679 0.0
O542 O 0.8816 0.23045 0.72875 0.0
C543 C 0.82176 0.18327 0.58588 0.0
C544 C 0.83865 0.17023 0.54499 0.0
C545 C 0.81762 0.18262 0.54637 0.0
C546 C 0.8093 0.18906 0.56661 0.0
C547 C 0.84287 0.17109 0.58471 0.0
C548 C 0.85127 0.16464 0.56445 0.0
C549 C 0.81312 0.19072 0.60706 0.0
H550 H 0.81035 0.15457 0.78899 0.0
H551 H 0.82987 0.15824 0.7528 0.0
H552 H 0.91121 0.25195 0.77483 0.0
H553 H 0.89179 0.24849 0.8108 0.0
H554 H 0.80785 0.18773 0.53181 0.0
H555 H 0.79318 0.19871 0.56721 0.0
H556 H 0.85279 0.16652 0.59945 0.0
H557 H 0.86724 0.15483 0.56402 0.0
H558 H 0.30484 0.88848 0.07532 0.0
H559 H 0.33084 0.81476 0.07163 0.0
H560 H 0.37896 0.84972 0.05425 0.0
H561 H 0.41494 0.90223 0.04081 0.0
H562 H 0.3896 0.97632 0.04577 0.0
H563 H 0.34018 0.94042 0.06152 0.0
C564 C 0.32119 0.88019 0.0709 0.0
C565 C 0.31409 0.84897 0.07481 0.0
C566 C 0.34892 0.90045 0.0608 0.0
C567 C 0.33546 0.83855 0.06867 0.0
C568 C 0.36306 0.85855 0.0587 0.0
C569 C 0.39819 0.91017 0.04491 0.0
C570 C 0.40574 0.94176 0.04187 0.0
C571 C 0.37006 0.88957 0.05459 0.0
C572 C 0.38421 0.95202 0.0478 0.0
C573 C 0.35602 0.93157 0.05696 0.0
H574 H 0.146 0.45578 0.10305 0.0
H575 H 0.15255 0.41833 0.0395 0.0
H576 H 0.11324 0.43085 0.02312 0.0
H577 H 0.07592 0.45164 0.02657 0.0
H578 H 0.0647 0.48349 0.09038 0.0
H579 H 0.10638 0.47364 0.10683 0.0
C580 C 0.13861 0.44994 0.08566 0.0
C581 C 0.153 0.43664 0.07262 0.0
C582 C 0.11502 0.45627 0.07629 0.0
C583 C 0.14295 0.42952 0.05003 0.0
C584 C 0.12012 0.43641 0.04057 0.0
C585 C 0.08286 0.45665 0.04404 0.0
C586 C 0.06755 0.46855 0.05722 0.0
C587 C 0.10608 0.44991 0.05349 0.0
C588 C 0.07623 0.47435 0.0799 0.0
C589 C 0.10003 0.46869 0.08931 0.0
H590 H 0.58519 0.72453 0.04194 0.0
H591 H 0.53669 0.69602 0.10024 0.0
H592 H 0.52066 0.64025 0.08959 0.0
H593 H 0.51965 0.59949 0.06362 0.0
H594 H 0.56566 0.62721 1.00439 0.0
H595 H 0.58269 0.68335 1.01531 0.0
C596 C 0.57076 0.70612 0.05222 0.0
C597 C 0.5623 0.71465 0.07193 0.0
C598 C 0.56099 0.67392 0.04578 0.0
C599 C 0.5441 0.69038 0.08519 0.0
C600 C 0.53465 0.65839 0.07902 0.0
C601 C 0.5334 0.61777 0.05305 0.0
C602 C 0.54142 0.60913 0.03322 0.0
C603 C 0.54293 0.6499 0.05935 0.0
C604 C 0.55908 0.63316 0.01971 0.0
C605 C 0.5689 0.66528 0.02597 0.0
H606 H 0.87738 0.28506 0.96537 0.0
H607 H 0.79415 0.28647 0.98642 0.0
H608 H 0.82958 0.33737 1.00911 0.0
H609 H 0.88478 0.38365 0.02075 0.0
H610 H 0.96705 0.38043 0.99893 0.0
H611 H 0.93154 0.32828 0.9789 0.0
C612 C 0.86699 0.29649 0.97498 0.0
C613 C 0.83324 0.28233 0.97399 0.0
C614 C 0.88741 0.32558 0.98782 0.0
C615 C 0.82009 0.297 0.98688 0.0
C616 C 0.84036 0.32615 0.99977 0.0
C617 C 0.89489 0.3713 1.01186 0.0
C618 C 0.92864 0.38626 1.01126 0.0
C619 C 0.87414 0.341 1.00009 0.0
C620 C 0.94127 0.36982 0.99961 0.0
C621 C 0.92095 0.33989 0.98807 0.0
H622 H 0.72292 0.58044 0.9955 0.0
H623 H 0.68092 0.52715 0.93223 0.0
H624 H 0.62697 0.51077 0.94244 0.0
H625 H 0.59166 0.51186 0.96902 0.0
H626 H 0.63309 0.5637 0.03275 0.0
H627 H 0.68723 0.57972 0.02276 0.0
C628 C 0.702 0.56485 0.98402 0.0
C629 C 0.70622 0.55522 0.96303 0.0
C630 C 0.67087 0.55517 0.99008 0.0
C631 C 0.67863 0.53544 0.94833 0.0
C632 C 0.64768 0.52586 0.95421 0.0
C633 C 0.61246 0.52661 0.98082 0.0
C634 C 0.60816 0.53661 1.00163 0.0
C635 C 0.64352 0.53571 0.97498 0.0
C636 C 0.63555 0.55559 1.01664 0.0
C637 C 0.66657 0.56483 1.01091 0.0
H638 H 0.40129 0.11203 0.97068 0.0
H639 H 0.46901 0.19427 1.01495 0.0
H640 H 0.49275 0.1636 0.02946 0.0
H641 H 0.49431 0.11316 0.02946 0.0
H642 H 0.42711 0.03191 0.98405 0.0
H643 H 0.40365 0.06263 0.96999 0.0
C644 C 0.42153 0.12342 0.98329 0.0
C645 C 0.4333 0.15536 0.99169 0.0
C646 C 0.43523 0.1058 0.99141 0.0
C647 C 0.45918 0.16953 1.00836 0.0
C648 C 0.47289 0.15207 1.0166 0.0
C649 C 0.4745 0.1022 1.01653 0.0
C650 C 0.46255 0.07025 1.00793 0.0
C651 C 0.46105 0.12011 1.0083 0.0
C652 C 0.43695 0.05647 0.99105 0.0
C653 C 0.4234 0.074 0.98294 0.0
H654 H 0.70473 0.14672 1.00849 0.0
H655 H 0.66461 0.14389 0.94342 0.0
H656 H 0.60976 0.1128 0.9541 0.0
H657 H 0.57346 0.08287 0.98122 0.0
H658 H 0.61376 0.08535 0.04639 0.0
H659 H 0.66811 0.1202 0.03651 0.0
C660 C 0.68387 0.13984 0.99687 0.0
C661 C 0.68838 0.14769 0.97532 0.0
C662 C 0.65248 0.1216 1.00309 0.0
C663 C 0.66146 0.13833 0.96018 0.0
C664 C 0.63017 0.12039 0.96625 0.0
C665 C 0.59407 0.09123 0.99334 0.0
C666 C 0.5894 0.0812 1.01449 0.0
C667 C 0.62538 0.1113 0.98754 0.0
C668 C 0.61651 0.09253 0.02998 0.0
C669 C 0.64769 0.11248 0.02434 0.0
H670 H 0.86538 0.5454 0.96118 0.0
H671 H 0.83672 0.55138 0.02524 0.0
H672 H 0.86813 0.52792 0.03982 0.0
H673 H 0.90642 0.50905 0.03487 0.0
H674 H 0.93538 0.50253 0.97085 0.0
H675 H 0.90106 0.52248 0.95569 0.0
C676 C 0.86574 0.54103 0.97823 0.0
C677 C 0.84885 0.54987 0.99221 0.0
C678 C 0.88405 0.52767 0.98651 0.0
C679 C 0.8495 0.54449 1.01427 0.0
C680 C 0.86754 0.53123 0.0226 0.0
C681 C 0.90512 0.51179 0.01756 0.0
C682 C 0.92372 0.50454 1.00409 0.0
C683 C 0.88536 0.52326 1.00896 0.0
C684 C 0.92137 0.50791 0.98164 0.0
C685 C 0.90181 0.51944 0.97295 0.0
H686 H 0.46187 0.30889 0.01739 0.0
H687 H 0.37302 0.29035 0.98207 0.0
H688 H 0.3952 0.34826 0.97998 0.0
H689 H 0.43925 0.40408 0.98981 0.0
H690 H 0.52759 0.42189 0.02605 0.0
H691 H 0.50641 0.36431 0.02604 0.0
C692 C 0.44756 0.31771 1.00916 0.0
C693 C 0.41606 0.29599 0.99996 0.0
C694 C 0.46038 0.35076 1.00821 0.0
C695 C 0.39741 0.30709 0.98929 0.0
C696 C 0.41008 0.34005 0.98811 0.0
C697 C 0.45399 0.39535 0.99749 0.0
C698 C 0.4849 0.41725 1.00798 0.0
C699 C 0.44146 0.36213 0.99771 0.0
C700 C 0.50364 0.40556 0.01797 0.0
C701 C 0.49157 0.37263 0.01799 0.0
H702 H 0.14562 0.68935 0.04054 0.0
H703 H 0.16488 0.67714 0.10736 0.0
H704 H 0.11707 0.62294 0.10312 0.0
H705 H 0.07252 0.57746 0.0792 0.0
H706 H 0.05532 0.59015 1.01185 0.0
H707 H 0.09935 0.64557 0.01748 0.0
C708 C 0.13884 0.67498 0.05426 0.0
C709 C 0.15824 0.68701 0.07426 0.0
C710 C 0.11192 0.64377 0.05149 0.0
C711 C 0.14985 0.66826 0.0919 0.0
C712 C 0.12271 0.63726 0.0894 0.0
C713 C 0.07817 0.59245 0.06582 0.0
C714 C 0.06067 0.5794 0.04507 0.0
C715 C 0.10395 0.62447 0.0691 0.0
C716 C 0.06843 0.59929 0.02795 0.0
C717 C 0.09365 0.63111 0.03114 0.0
H718 H 0.31389 0.47375 0.03688 0.0
H719 H 0.32478 0.42893 0.09273 0.0
H720 H 0.3804 0.44498 0.08536 0.0
H721 H 0.42484 0.46972 0.06178 0.0
H722 H 0.41227 0.5132 1.00533 0.0
H723 H 0.35848 0.49972 1.01415 0.0
C724 C 0.3287 0.46792 0.04758 0.0
C725 C 0.3157 0.45056 0.0654 0.0
C726 C 0.3602 0.47673 0.04298 0.0
C727 C 0.33464 0.44263 0.07905 0.0
C728 C 0.36629 0.45165 0.07474 0.0
C729 C 0.4104 0.47634 0.05142 0.0
C730 C 0.42274 0.49235 0.03279 0.0
C731 C 0.37919 0.46836 0.05655 0.0
C732 C 0.40355 0.50077 0.01967 0.0
C733 C 0.3727 0.49311 0.02472 0.0
H734 H 0.54155 0.86321 0.07744 0.0
H735 H 0.60458 0.89048 0.02628 0.0
H736 H 0.59162 0.93215 0.01807 0.0
H737 H 0.55956 0.95814 0.02378 0.0
H738 H 0.49684 0.93184 0.07527 0.0
H739 H 0.51245 0.89258 0.08513 0.0
C740 C 0.5528 0.87879 0.06481 0.0
C741 C 0.57405 0.87424 0.0525 0.0
C742 C 0.54499 0.9025 0.0601 0.0
C743 C 0.58836 0.89402 0.03601 0.0
C744 C 0.5808 0.91762 0.03124 0.0
C745 C 0.54935 0.94386 0.03719 0.0
C746 C 0.52678 0.94758 0.04859 0.0
C747 C 0.55864 0.92162 0.04287 0.0
C748 C 0.51419 0.92933 0.06618 0.0
C749 C 0.52308 0.90686 0.07182 0.0
H750 H 0.97541 0.2227 0.40794 0.0
H751 H 0.9864 0.14199 0.38745 0.0
H752 H 0.03498 0.1773 0.37063 0.0
H753 H 0.07504 0.23154 0.36203 0.0
H754 H 0.06462 0.31224 0.38361 0.0
H755 H 0.01531 0.27668 0.39948 0.0
C756 C 0.98867 0.21293 0.40002 0.0
C757 C 0.97725 0.17977 0.39895 0.0
C758 C 0.01661 0.23338 0.39033 0.0
C759 C 0.9945 0.16742 0.38834 0.0
C760 C 0.02231 0.18759 0.37871 0.0
C761 C 0.06167 0.24118 0.36993 0.0
C762 C 0.07339 0.27442 0.37154 0.0
C763 C 0.03355 0.22062 0.37948 0.0
C764 C 0.05611 0.2867 0.38216 0.0
C765 C 0.02794 0.26641 0.39132 0.0
H766 H 0.84416 0.82278 0.40597 0.0
H767 H 0.78349 0.72476 0.42034 0.0
H768 H 0.73567 0.72676 0.40729 0.0
H769 H 0.7106 0.75639 0.39194 0.0
H770 H 0.77148 0.85161 0.37345 0.0
H771 H 0.81966 0.85018 0.3873 0.0
C772 C 0.82068 0.80145 0.40586 0.0
C773 C 0.81792 0.77379 0.41454 0.0
C774 C 0.79312 0.80221 0.39747 0.0
C775 C 0.78678 0.74683 0.41448 0.0
C776 C 0.75923 0.74777 0.40677 0.0
C777 C 0.73446 0.77673 0.3909 0.0
C778 C 0.73756 0.80413 0.38183 0.0
C779 C 0.76208 0.7754 0.39837 0.0
C780 C 0.76854 0.8302 0.38029 0.0
C781 C 0.79607 0.82943 0.38829 0.0
H782 H 0.27319 0.05589 0.41287 0.0
H783 H 0.19907 0.0646 0.37589 0.0
H784 H 0.17675 0.00994 0.35816 0.0
H785 H 0.17837 0.95933 0.35347 0.0
H786 H 0.25352 0.9524 0.39102 0.0
H787 H 0.27507 0.00646 0.40819 0.0
C788 C 0.25186 0.04568 0.40116 0.0
C789 C 0.2376 0.06409 0.39589 0.0
C790 C 0.23938 0.01453 0.39101 0.0
C791 C 0.21049 0.05084 0.38023 0.0
C792 C 0.19772 0.01961 0.37011 0.0
C793 C 0.19955 0.96974 0.3653 0.0
C794 C 0.21414 0.95161 0.37088 0.0
C795 C 0.21203 0.00119 0.37534 0.0
C796 C 0.24157 0.96554 0.38635 0.0
C797 C 0.25402 0.99657 0.39628 0.0
H798 H 0.4947 0.61221 0.33061 0.0
H799 H 0.55802 0.60734 0.28578 0.0
H800 H 0.59988 0.66198 0.29908 0.0
H801 H 0.61836 0.71149 0.32297 0.0
H802 H 0.55561 0.7163 0.36835 0.0
H803 H 0.51403 0.66125 0.35555 0.0
C804 C 0.51777 0.62299 0.32391 0.0
C805 C 0.52298 0.60575 0.30704 0.0
C806 C 0.54194 0.65443 0.33176 0.0
C807 C 0.553 0.62024 0.29843 0.0
C808 C 0.5771 0.65144 0.30614 0.0
C809 C 0.59567 0.7005 0.33016 0.0
C810 C 0.59019 0.71812 0.34659 0.0
C811 C 0.57178 0.66884 0.32269 0.0
C812 C 0.56057 0.70337 0.35569 0.0
C813 C 0.5367 0.67186 0.34835 0.0
H814 H 0.36462 0.9239 0.29037 0.0
H815 H 0.36882 0.84607 0.3187 0.0
H816 H 0.31811 0.83073 0.33445 0.0
H817 H 0.27203 0.8394 0.33992 0.0
H818 H 0.26868 0.917 0.31029 0.0
H819 H 0.31918 0.93202 0.29521 0.0
C820 C 0.35425 0.90324 0.29969 0.0
C821 C 0.37045 0.88607 0.30319 0.0
C822 C 0.32513 0.89449 0.30857 0.0
C823 C 0.35696 0.85987 0.31583 0.0
C824 C 0.3279 0.85101 0.32481 0.0
C825 C 0.28247 0.85965 0.33025 0.0
C826 C 0.26641 0.87693 0.32628 0.0
C827 C 0.31174 0.86821 0.32132 0.0
C828 C 0.28025 0.90305 0.31358 0.0
C829 C 0.30925 0.91177 0.3049 0.0
H830 H 0.08156 0.45444 0.30183 0.0
H831 H 0.16383 0.53605 0.33839 0.0
H832 H 0.18323 0.5012 0.35171 0.0
H833 H 0.17625 0.44713 0.35344 0.0
H834 H 0.09413 0.36607 0.31606 0.0
H835 H 0.07554 0.40111 0.30255 0.0
C836 C 0.10401 0.46467 0.31243 0.0
C837 C 0.12116 0.49773 0.31913 0.0
C838 C 0.11501 0.44454 0.32003 0.0
C839 C 0.14996 0.51056 0.33317 0.0
C840 C 0.16112 0.49067 0.34077 0.0
C841 C 0.15425 0.43717 0.34241 0.0
C842 C 0.13663 0.40401 0.33589 0.0
C843 C 0.14366 0.45754 0.33448 0.0
C844 C 0.10829 0.39151 0.32139 0.0
C845 C 0.09755 0.41152 0.3136 0.0
H846 H 0.35162 0.4586 0.29758 0.0
H847 H 0.3946 0.4673 0.36286 0.0
H848 H 0.34102 0.43813 0.37564 0.0
H849 H 0.28207 0.40868 0.36802 0.0
H850 H 0.23848 0.39925 0.30261 0.0
H851 H 0.29191 0.43024 0.29017 0.0
C852 C 0.34903 0.45418 0.31459 0.0
C853 C 0.37668 0.46492 0.32935 0.0
C854 C 0.31808 0.43726 0.32178 0.0
C855 C 0.37342 0.45917 0.35132 0.0
C856 C 0.34285 0.4425 0.3586 0.0
C857 C 0.28417 0.41355 0.35107 0.0
C858 C 0.25617 0.40153 0.33632 0.0
C859 C 0.315 0.43122 0.34395 0.0
C860 C 0.25953 0.40813 0.31438 0.0
C861 C 0.29013 0.42584 0.3072 0.0
H862 H 0.50194 0.86417 0.34351 0.0
H863 H 0.54013 0.89462 0.28244 0.0
H864 H 0.57514 0.87119 0.28784 0.0
H865 H 0.59797 0.84609 0.31181 0.0
H866 H 0.5609 0.81876 0.37384 0.0
H867 H 0.52211 0.83652 0.36617 0.0
C868 C 0.51763 0.86518 0.33128 0.0
C869 C 0.51866 0.88079 0.31264 0.0
C870 C 0.53795 0.85236 0.33477 0.0
C871 C 0.53907 0.88243 0.29687 0.0
C872 C 0.55908 0.86918 0.30002 0.0
C873 C 0.58101 0.84356 0.32343 0.0
C874 C 0.58241 0.83132 0.34342 0.0
C875 C 0.55918 0.85462 0.31915 0.0
C876 C 0.5605 0.8284 0.35844 0.0
C877 C 0.5383 0.83855 0.35408 0.0
H878 H 0.12504 0.65302 0.30807 0.0
H879 H 0.07153 0.63456 0.36417 0.0
H880 H 0.08324 0.69023 0.36812 0.0
H881 H 0.11298 0.74492 0.35777 0.0
H882 H 0.16712 0.76441 0.30182 0.0
H883 H 0.15063 0.70744 0.29538 0.0
C884 C 0.11548 0.66124 0.32082 0.0
C885 C 0.09748 0.64021 0.33582 0.0
C886 C 0.1227 0.69336 0.3231 0.0
C887 C 0.08529 0.65065 0.35244 0.0
C888 C 0.09213 0.6824 0.35475 0.0
C889 C 0.12099 0.73667 0.34406 0.0
C890 C 0.14161 0.7588 0.33049 0.0
C891 C 0.11151 0.70412 0.34054 0.0
C892 C 0.15132 0.74776 0.31254 0.0
C893 C 0.142 0.71525 0.30891 0.0
H894 H 0.79474 0.02385 0.36432 0.0
H895 H 0.83374 0.01495 0.42662 0.0
H896 H 0.78887 0.95947 0.42592 0.0
H897 H 0.74147 0.91221 0.40571 0.0
H898 H 0.70428 0.92142 0.34254 0.0
H899 H 0.74533 0.97807 0.34545 0.0
C900 C 0.79289 0.00985 0.37791 0.0
C901 C 0.81698 0.02307 0.39556 0.0
C902 C 0.76761 0.97799 0.37707 0.0
C903 C 0.81502 0.00499 0.413 0.0
C904 C 0.78956 0.97333 0.4125 0.0
C905 C 0.7421 0.9267 0.39271 0.0
C906 C 0.71999 0.91245 0.37385 0.0
C907 C 0.76613 0.95932 0.39435 0.0
C908 C 0.72116 0.93162 0.35715 0.0
C909 C 0.74463 0.96408 0.35879 0.0
H910 H 0.02076 0.84339 0.42615 0.0
H911 H 0.95494 0.77628 0.37311 0.0
H912 H 1.00063 0.783 0.35351 0.0
H913 H 0.05983 0.80969 0.35111 0.0
H914 H 0.12483 0.87679 0.4048 0.0
H915 H 0.07926 0.86862 0.4243 0.0
C916 C 0.01654 0.82985 0.41046 0.0
C917 C 0.98478 0.80903 0.40115 0.0
C918 C 0.04287 0.83425 0.39924 0.0
C919 C 0.97936 0.79204 0.38067 0.0
C920 C 0.00546 0.79612 0.36941 0.0
C921 C 0.06395 0.82265 0.36699 0.0
C922 C 0.09582 0.84396 0.37635 0.0
C923 C 0.0374 0.81752 0.37841 0.0
C924 C 0.10067 0.86023 0.39713 0.0
C925 C 0.07457 0.85555 0.40838 0.0
H926 H 0.23738 0.21515 0.40852 0.0
H927 H 0.25048 0.19986 0.34139 0.0
H928 H 0.22319 0.22908 0.33005 0.0
H929 H 0.1989 0.26177 0.33962 0.0
H930 H 0.18647 0.27793 0.407 0.0
H931 H 0.20988 0.24532 0.41786 0.0
C932 C 0.2338 0.21798 0.39141 0.0
C933 C 0.24566 0.2056 0.37571 0.0
C934 C 0.21841 0.23503 0.38512 0.0
C935 C 0.24129 0.20929 0.35363 0.0
C936 C 0.22582 0.22602 0.34719 0.0
C937 C 0.20106 0.258 0.35668 0.0
C938 C 0.19118 0.27255 0.37247 0.0
C939 C 0.21477 0.23945 0.36285 0.0
C940 C 0.19398 0.26715 0.39447 0.0
C941 C 0.20743 0.24854 0.40074 0.0
H942 H 0.66841 0.50091 0.72169 0.0
H943 H 0.65402 0.56946 0.76029 0.0
H944 H 0.7031 0.61337 0.74891 0.0
H945 H 0.74968 0.6326 0.72762 0.0
H946 H 0.76233 0.56448 0.68723 0.0
H947 H 0.71363 0.52027 0.69912 0.0
C948 C 0.67558 0.52542 0.72742 0.0
C949 C 0.6572 0.53155 0.74195 0.0
C950 C 0.70342 0.55077 0.7203 0.0
C951 C 0.66772 0.56367 0.74948 0.0
C952 C 0.69571 0.58894 0.74279 0.0
C953 C 0.74179 0.6081 0.72132 0.0
C954 C 0.75979 0.60197 0.70653 0.0
C955 C 0.71368 0.58278 0.72816 0.0
C956 C 0.74897 0.57001 0.69851 0.0
C957 C 0.72117 0.54467 0.70541 0.0
H958 H 0.52047 0.15477 0.73324 0.0
H959 H 0.45755 0.07717 0.76949 0.0
H960 H 0.41184 0.08261 0.75606 0.0
H961 H 0.38923 0.1086 0.73367 0.0
H962 H 0.45122 0.18459 0.69604 0.0
H963 H 0.49743 0.17991 0.70994 0.0
C964 C 0.49674 0.13881 0.73809 0.0
C965 C 0.49281 0.11576 0.75259 0.0
C966 C 0.4702 0.14156 0.72989 0.0
C967 C 0.46175 0.09566 0.75882 0.0
C968 C 0.43539 0.09851 0.75094 0.0
C969 C 0.4128 0.12415 0.72842 0.0
C970 C 0.41659 0.14693 0.71377 0.0
C971 C 0.4393 0.12131 0.73645 0.0
C972 C 0.44743 0.16675 0.7072 0.0
C973 C 0.47395 0.16416 0.71522 0.0
H974 H 0.8928 0.39763 0.7071 0.0
H975 H 0.95954 0.39389 0.75554 0.0
H976 H 0.94408 0.33991 0.74006 0.0
H977 H 0.91224 0.29427 0.71287 0.0
H978 H 0.84417 0.29632 0.66467 0.0
H979 H 0.85989 0.35083 0.67979 0.0
C980 C 0.90397 0.38496 0.71419 0.0
C981 C 0.92721 0.39968 0.73248 0.0
C982 C 0.89494 0.35385 0.70519 0.0
C983 C 0.94129 0.38292 0.74167 0.0
C984 C 0.93264 0.35217 0.73273 0.0
C985 C 0.90088 0.30661 0.70551 0.0
C986 C 0.87721 0.29132 0.68753 0.0
C987 C 0.9096 0.33749 0.71449 0.0
C988 C 0.86254 0.30761 0.67845 0.0
C989 C 0.87148 0.33872 0.68712 0.0
H990 H 0.22806 0.96166 0.6258 0.0
H991 H 0.14822 0.95109 0.66013 0.0
H992 H 0.18192 0.00576 0.67811 0.0
H993 H 0.23428 0.05709 0.68362 0.0
H994 H 0.31246 0.06683 0.64751 0.0
H995 H 0.27889 0.01226 0.63041 0.0
C996 C 0.21766 0.97137 0.63688 0.0
C997 C 0.18542 0.95225 0.64134 0.0
C998 C 0.23695 0.00283 0.64688 0.0
C999 C 0.17296 0.96513 0.6564 0.0
C1000 C 0.1922 0.99647 0.66663 0.0
C1001 C 0.24395 0.04723 0.67204 0.0
C1002 C 0.27595 0.0662 0.66692 0.0
C1003 C 0.22428 0.01561 0.66197 0.0
C1004 C 0.28797 0.053 0.65177 0.0
C1005 C 0.26879 0.02168 0.64195 0.0
H1006 H 0.01557 0.21474 0.60637 0.0
H1007 H 0.07285 0.26365 0.66759 0.0
H1008 H 0.0243 0.25302 0.68434 0.0
H1009 H 0.96511 0.23081 0.6816 0.0
H1010 H 0.90883 0.18587 0.61959 0.0
H1011 H 0.95708 0.19404 0.60332 0.0
C1012 C 0.01757 0.22343 0.62331 0.0
C1013 C 0.04805 0.2397 0.63563 0.0
C1014 C 0.9895 0.2178 0.63284 0.0
C1015 C 0.04981 0.2504 0.65769 0.0
C1016 C 0.02198 0.24451 0.66733 0.0
C1017 C 0.96347 0.22252 0.66462 0.0
C1018 C 0.93341 0.20759 0.65187 0.0
C1019 C 0.99163 0.22815 0.65511 0.0
C1020 C 0.9317 0.19746 0.62976 0.0
C1021 C 0.95931 0.20217 0.6204 0.0
H1022 H 0.80051 0.80921 0.62608 0.0
H1023 H 0.7784 0.83259 0.68898 0.0
H1024 H 0.79155 0.79487 0.70497 0.0
H1025 H 0.80998 0.75537 0.70118 0.0
H1026 H 0.82552 0.72789 0.63736 0.0
H1027 H 0.81339 0.76647 0.62154 0.0
C1028 C 0.79773 0.80567 0.64318 0.0
C1029 C 0.78872 0.82419 0.65624 0.0
C1030 C 0.80416 0.78309 0.65214 0.0
C1031 C 0.78608 0.81943 0.67852 0.0
C1032 C 0.79333 0.79761 0.6877 0.0
C1033 C 0.81057 0.75788 0.68382 0.0
C1034 C 0.81879 0.73911 0.67044 0.0
C1035 C 0.80266 0.77949 0.67471 0.0
C1036 C 0.81914 0.7421 0.64793 0.0
C1037 C 0.8123 0.76419 0.6389 0.0
H1038 H 0.02872 0.81185 0.63501 0.0
H1039 H 0.07745 0.81847 0.69775 0.0
H1040 H 0.02532 0.78866 0.71265 0.0
H1041 H 0.96569 0.7562 0.70662 0.0
H1042 H 0.91763 0.74883 0.64313 0.0
H1043 H 0.96937 0.78346 0.62985 0.0
C1044 C 0.02779 0.80733 0.65206 0.0
C1045 C 0.05656 0.81741 0.6654 0.0
C1046 C 0.99779 0.78968 0.66031 0.0
C1047 C 0.05539 0.81113 0.68734 0.0
C1048 C 0.02562 0.79392 0.69578 0.0
C1049 C 0.96651 0.76254 0.68998 0.0
C1050 C 0.93769 0.74955 0.6759 0.0
C1051 C 0.99659 0.78237 0.68226 0.0
C1052 C 0.93932 0.75811 0.65436 0.0
C1053 C 0.96897 0.77799 0.64668 0.0
H1054 H 0.18222 0.20995 0.67516 0.0
H1055 H 0.21255 0.23071 0.61099 0.0
H1056 H 0.25067 0.21106 0.61766 0.0
H1057 H 0.27736 0.19065 0.643 0.0
H1058 H 0.24721 0.17253 0.70772 0.0
H1059 H 0.20701 0.18824 0.6996 0.0
C1060 C 0.19698 0.20979 0.66257 0.0
C1061 C 0.19469 0.22146 0.64263 0.0
C1062 C 0.21898 0.19908 0.66672 0.0
C1063 C 0.21395 0.22156 0.62643 0.0
C1064 C 0.23574 0.21045 0.6303 0.0
C1065 C 0.26175 0.18985 0.65521 0.0
C1066 C 0.26549 0.18056 0.676 0.0
C1067 C 0.23878 0.19951 0.65055 0.0
C1068 C 0.24516 0.17984 0.69168 0.0
C1069 C 0.22206 0.18879 0.68706 0.0
H1070 H 0.78441 0.99083 0.68713 0.0
H1071 H 0.81392 0.99098 0.62268 0.0
H1072 H 0.82349 0.04577 0.62041 0.0
H1073 H 0.82723 0.09487 0.63819 0.0
H1074 H 0.79915 0.09425 0.70342 0.0
H1075 H 0.78508 0.03838 0.70395 0.0
C1076 C 0.79246 0.00282 0.67249 0.0
C1077 C 0.7984 0.98736 0.65506 0.0
C1078 C 0.7984 0.03424 0.67156 0.0
C1079 C 0.80909 0.00276 0.6362 0.0
C1080 C 0.81466 0.034 0.63497 0.0
C1081 C 0.81771 0.0824 0.65242 0.0
C1082 C 0.81454 0.09886 0.6708 0.0
C1083 C 0.80999 0.05022 0.65276 0.0
C1084 C 0.80217 0.08232 0.68912 0.0
C1085 C 0.79405 0.05032 0.68946 0.0
H1086 H 0.50901 0.34907 0.75036 0.0
H1087 H 0.48065 0.38443 0.69552 0.0
H1088 H 0.43071 0.33268 0.68724 0.0
H1089 H 0.39775 0.27616 0.69358 0.0
H1090 H 0.4255 0.24 0.74836 0.0
H1091 H 0.47274 0.29323 0.7589 0.0
C1092 C 0.49147 0.34545 0.7369 0.0
C1093 C 0.49813 0.37022 0.72354 0.0
C1094 C 0.46292 0.31547 0.73214 0.0
C1095 C 0.47567 0.36554 0.70603 0.0
C1096 C 0.44727 0.33596 0.70124 0.0
C1097 C 0.41395 0.27996 0.70796 0.0
C1098 C 0.4083 0.25405 0.72001 0.0
C1099 C 0.44103 0.31054 0.71386 0.0
C1100 C 0.42929 0.25952 0.73878 0.0
C1101 C 0.45641 0.28994 0.74476 0.0
H1102 H 0.64397 0.14027 0.70197 0.0
H1103 H 0.67506 0.13447 0.7677 0.0
H1104 H 0.73051 0.15461 0.75792 0.0
H1105 H 0.76952 0.17177 0.72978 0.0
H1106 H 0.73603 0.17525 0.66386 0.0
H1107 H 0.68241 0.15836 0.67458 0.0
C1108 C 0.66302 0.14369 0.71418 0.0
C1109 C 0.65575 0.13612 0.73548 0.0
C1110 C 0.69442 0.15479 0.70833 0.0
C1111 C 0.68033 0.14034 0.7512 0.0
C1112 C 0.71193 0.15177 0.74557 0.0
C1113 C 0.75055 0.16912 0.71784 0.0
C1114 C 0.75694 0.17473 0.69598 0.0
C1115 C 0.71924 0.15883 0.72408 0.0
C1116 C 0.73191 0.17091 0.68072 0.0
C1117 C 0.70114 0.16126 0.68683 0.0
H1118 H 0.91914 0.54925 0.74458 0.0
H1119 H 0.96563 0.56646 0.68532 0.0
H1120 H 0.94345 0.60052 0.67512 0.0
H1121 H 0.91009 0.62437 0.68268 0.0
H1122 H 0.86364 0.60803 0.74211 0.0
H1123 H 0.88647 0.5747 0.75266 0.0
C1124 C 0.92449 0.56077 0.72956 0.0
C1125 C 0.94393 0.55576 0.71568 0.0
C1126 C 0.91155 0.58025 0.72381 0.0
C1127 C 0.95076 0.57036 0.69621 0.0
C1128 C 0.93803 0.58968 0.69036 0.0
C1129 C 0.90487 0.6135 0.69793 0.0
C1130 C 0.88504 0.61857 0.71151 0.0
C1131 C 0.91822 0.5946 0.70396 0.0
C1132 C 0.87881 0.6045 0.73132 0.0
C1133 C 0.89186 0.58543 0.73738 0.0
H1134 H 0.47357 0.91682 0.23389 0.0
H1135 H 0.41662 0.9597 0.25132 0.0
H1136 H 0.42802 0.98734 0.21831 0.0
H1137 H 0.45479 1.00017 0.18469 0.0
H1138 H 0.5125 0.95821 0.16733 0.0
H1139 H 0.50028 0.92956 0.20003 0.0
C1140 C 0.46373 0.93227 0.23048 0.0
C1141 C 0.44409 0.93594 0.24506 0.0
C1142 C 0.47059 0.94839 0.21147 0.0
C1143 C 0.43132 0.95589 0.24025 0.0
C1144 C 0.43804 0.97197 0.22144 0.0
C1145 C 0.46489 0.98495 0.18815 0.0
C1146 C 0.48459 0.98143 0.17359 0.0
C1147 C 0.45775 0.96852 0.20698 0.0
C1148 C 0.49703 0.96115 0.17815 0.0
C1149 C 0.49016 0.94485 0.1969 0.0
H1150 H 0.10043 0.5238 0.24637 0.0
H1151 H 0.0261 0.53624 0.27348 0.0
H1152 H 0.9987 0.52755 0.23701 0.0
H1153 H 0.995 0.51521 0.19746 0.0
H1154 H 0.0676 0.49971 0.17049 0.0
H1155 H 0.09635 0.51076 0.20681 0.0
C1156 C 0.07811 0.52438 0.24435 0.0
C1157 C 0.06549 0.53077 0.26275 0.0
C1158 C 0.06208 0.51879 0.22331 0.0
C1159 C 0.03677 0.53194 0.25967 0.0
C1160 C 0.02088 0.52669 0.2388 0.0
C1161 C 0.01695 0.51394 0.19951 0.0
C1162 C 0.02902 0.50661 0.18117 0.0
C1163 C 0.03319 0.51989 0.22051 0.0
C1164 C 0.05789 0.50571 0.1842 0.0
C1165 C 0.07429 0.51182 0.20501 0.0
H1166 H 0.47048 0.56379 0.23213 0.0
H1167 H 0.46681 0.47676 0.24983 0.0
H1168 H 0.47428 0.46447 0.21246 0.0
H1169 H 0.48805 0.48155 0.1759 0.0
H1170 H 0.49346 0.56952 0.1586 0.0
H1171 H 0.47996 0.5787 0.19478 0.0
C1172 C 0.4711 0.54201 0.22778 0.0
C1173 C 0.46834 0.5214 0.24386 0.0
C1174 C 0.47636 0.53556 0.20641 0.0
C1175 C 0.46856 0.49295 0.2378 0.0
C1176 C 0.47322 0.48608 0.21646 0.0
C1177 C 0.4857 0.50243 0.17989 0.0
C1178 C 0.49216 0.52499 0.16459 0.0
C1179 C 0.47803 0.50765 0.20079 0.0
C1180 C 0.48928 0.55208 0.17018 0.0
C1181 C 0.48137 0.55727 0.19083 0.0
H1182 H 0.917 0.43975 0.80491 0.0
H1183 H 0.00619 0.52482 0.79533 0.0
H1184 H 0.02168 0.53524 0.83466 0.0
H1185 H 0.01237 0.51728 0.87148 0.0
H1186 H 0.92389 0.43127 0.8808 0.0
H1187 H 0.90599 0.42388 0.84192 0.0
C1188 C 0.93979 0.46064 0.81142 0.0
C1189 C 0.96045 0.48132 0.7971 0.0
C1190 C 0.94891 0.46611 0.83404 0.0
C1191 C 0.98962 0.50863 0.80591 0.0
C1192 C 0.99867 0.51446 0.82843 0.0
C1193 C 0.98892 0.49725 0.86507 0.0
C1194 C 0.96967 0.47469 0.87903 0.0
C1195 C 0.97884 0.49298 0.84261 0.0
C1196 C 0.93945 0.4487 0.87038 0.0
C1197 C 0.92913 0.4445 0.84815 0.0
H1198 H 0.5892 0.53183 0.79787 0.0
H1199 H 0.563 0.4331 0.80307 0.0
H1200 H 0.54413 0.43512 0.83867 0.0
H1201 H 0.53383 0.46454 0.86806 0.0
H1202 H 0.55988 0.56321 0.86275 0.0
H1203 H 0.5801 0.56162 0.82763 0.0
C1204 C 0.5797 0.51086 0.80691 0.0
C1205 C 0.5775 0.48235 0.79774 0.0
C1206 C 0.56873 0.51213 0.82737 0.0
C1207 C 0.56465 0.45526 0.80958 0.0
C1208 C 0.55396 0.45643 0.83 0.0
C1209 C 0.54425 0.4858 0.85932 0.0
C1210 C 0.54522 0.51392 0.86805 0.0
C1211 C 0.55571 0.48467 0.83902 0.0
C1212 C 0.55843 0.54111 0.85633 0.0
C1213 C 0.57014 0.54028 0.83626 0.0
H1214 H 0.53502 0.11553 0.82811 0.0
H1215 H 0.55803 0.04753 0.79795 0.0
H1216 H 0.54935 0.02056 0.83132 0.0
H1217 H 0.53104 0.01361 0.86813 0.0
H1218 H 0.50814 0.08186 0.89818 0.0
H1219 H 0.52 0.11059 0.86566 0.0
C1220 C 0.53826 0.09487 0.82883 0.0
C1221 C 0.54708 0.08362 0.81039 0.0
C1222 C 0.53264 0.07905 0.84799 0.0
C1223 C 0.55165 0.05708 0.81187 0.0
C1224 C 0.54634 0.04138 0.83093 0.0
C1225 C 0.52906 0.03502 0.86776 0.0
C1226 C 0.51821 0.04512 0.88568 0.0
C1227 C 0.53625 0.05178 0.84897 0.0
C1228 C 0.5156 0.07287 0.88458 0.0
C1229 C 0.52267 0.08957 0.866 0.0
H1230 H 0.16753 0.30442 0.58155 0.0
H1231 H 0.06851 0.23526 0.5582 0.0
H1232 H 0.07734 0.2542 0.52194 0.0
H1233 H 0.11292 0.29139 0.49693 0.0
H1234 H 0.21214 0.35985 0.52045 0.0
H1235 H 0.20344 0.34015 0.55637 0.0
C1236 C 0.14796 0.29311 0.56848 0.0
C1237 C 0.11737 0.26836 0.57273 0.0
C1238 C 0.15318 0.30417 0.54762 0.0
C1239 C 0.09222 0.25455 0.55556 0.0
C1240 C 0.09728 0.2653 0.53475 0.0
C1241 C 0.13275 0.3018 0.50983 0.0
C1242 C 0.16311 0.32733 0.50588 0.0
C1243 C 0.12762 0.29026 0.5306 0.0
C1244 C 0.18835 0.34064 0.52299 0.0
C1245 C 0.18347 0.32923 0.54357 0.0
H1246 H 0.72309 0.88211 0.59593 0.0
H1247 H 0.7871 0.8463 0.58176 0.0
H1248 H 0.76662 0.83539 0.54321 0.0
H1249 H 0.72875 0.83357 0.51379 0.0
H1250 H 0.66472 0.86948 0.52766 0.0
H1251 H 0.68697 0.88282 0.56597 0.0
C1252 C 0.7328 0.8723 0.58433 0.0
C1253 C 0.75636 0.86476 0.59173 0.0
C1254 C 0.72078 0.86591 0.56215 0.0
C1255 C 0.76856 0.85182 0.57653 0.0
C1256 C 0.75696 0.84569 0.55447 0.0
C1257 C 0.72 0.84477 0.52512 0.0
C1258 C 0.69501 0.85036 0.51787 0.0
C1259 C 0.7328 0.85226 0.54713 0.0
C1260 C 0.68364 0.86448 0.53287 0.0
C1261 C 0.69644 0.87225 0.55477 0.0
H1262 H 0.15429 0.90888 0.56245 0.0
H1263 H 0.17102 0.8353 0.58614 0.0
H1264 H 0.18345 0.82412 0.55005 0.0
H1265 H 0.19066 0.83586 0.512 0.0
H1266 H 0.17221 0.90821 0.4878 0.0
H1267 H 0.16035 0.91982 0.52394 0.0
C1268 C 0.16076 0.89048 0.55971 0.0
C1269 C 0.16159 0.87289 0.57698 0.0
C1270 C 0.16792 0.88414 0.53886 0.0
C1271 C 0.16973 0.84889 0.57309 0.0
C1272 C 0.17707 0.84262 0.55248 0.0
C1273 C 0.18367 0.85392 0.51449 0.0
C1274 C 0.18248 0.87114 0.49705 0.0
C1275 C 0.17626 0.8601 0.53525 0.0
C1276 C 0.17394 0.89489 0.50088 0.0
C1277 C 0.16686 0.9014 0.52155 0.0
H1278 H 0.56049 0.76624 0.14219 0.0
H1279 H 0.64457 0.84901 0.1237 0.0
H1280 H 0.66647 0.86579 0.16212 0.0
H1281 H 0.66377 0.85406 0.20067 0.0
H1282 H 0.57976 0.77043 0.21861 0.0
H1283 H 0.55568 0.75707 0.18082 0.0
C1284 C 0.58347 0.78812 0.14662 0.0
C1285 C 0.60105 0.80621 0.13016 0.0
C1286 C 0.596 0.79737 0.16865 0.0
C1287 C 0.63055 0.83476 0.1361 0.0
C1288 C 0.64317 0.84421 0.15804 0.0
C1289 C 0.64011 0.83304 0.1963 0.0
C1290 C 0.6237 0.81321 0.21247 0.0
C1291 C 0.62646 0.82527 0.17441 0.0
C1292 C 0.59282 0.78631 0.20659 0.0
C1293 C 0.57911 0.77848 0.18492 0.0
H1294 H 0.21886 0.77946 0.14548 0.0
H1295 H 0.2458 0.871 0.12155 0.0
H1296 H 0.22859 0.88709 0.15405 0.0
H1297 H 0.20585 0.87523 0.18954 0.0
H1298 H 0.17835 0.78318 0.21285 0.0
H1299 H 0.19553 0.76732 0.18038 0.0
C1300 C 0.22068 0.80283 0.1472 0.0
C1301 C 0.23363 0.82389 0.13091 0.0
C1302 C 0.21062 0.81193 0.16593 0.0
C1303 C 0.23631 0.85433 0.13382 0.0
C1304 C 0.22627 0.86352 0.15239 0.0
C1305 C 0.20336 0.8516 0.18743 0.0
C1306 C 0.1909 0.83056 0.20381 0.0
C1307 C 0.21337 0.84252 0.16859 0.0
C1308 C 0.18827 0.80015 0.20079 0.0
C1309 C 0.19795 0.79094 0.18212 0.0
H1310 H 0.18278 0.42979 0.14904 0.0
H1311 H 0.21342 0.36543 0.12312 0.0
H1312 H 0.20521 0.34057 0.1573 0.0
H1313 H 0.1875 0.33565 0.19425 0.0
H1314 H 0.15474 0.39858 0.21951 0.0
H1315 H 0.16544 0.42513 0.18599 0.0
C1316 C 0.18756 0.41024 0.15079 0.0
C1317 C 0.19875 0.39964 0.13335 0.0
C1318 C 0.18227 0.3956 0.17044 0.0
C1319 C 0.2053 0.37457 0.13623 0.0
C1320 C 0.2003 0.36007 0.15577 0.0
C1321 C 0.18247 0.35502 0.1924 0.0
C1322 C 0.17027 0.36497 0.20953 0.0
C1323 C 0.18847 0.37014 0.17292 0.0
C1324 C 0.1645 0.39056 0.20683 0.0
C1325 C 0.17045 0.4057 0.18756 0.0
H1326 H 0.83119 0.64036 0.91859 0.0
H1327 H 0.74118 0.55944 0.88929 0.0
H1328 H 0.7528 0.57954 0.8535 0.0
H1329 H 0.7882 0.6207 0.83056 0.0
H1330 H 0.87885 0.70064 0.86005 0.0
H1331 H 0.86729 0.68021 0.89561 0.0
C1332 C 0.81429 0.6268 0.90436 0.0
C1333 C 0.78535 0.59834 0.90672 0.0
C1334 C 0.82115 0.63843 0.88381 0.0
C1335 C 0.76348 0.58157 0.88806 0.0
C1336 C 0.77018 0.59298 0.86754 0.0
C1337 C 0.8056 0.63349 0.84471 0.0
C1338 C 0.83429 0.66236 0.84254 0.0
C1339 C 0.79889 0.62148 0.86522 0.0
C1340 C 0.85631 0.67872 0.8612 0.0
C1341 C 0.84983 0.66694 0.88158 0.0
H1342 H 0.42317 0.18314 0.9173 0.0
H1343 H 0.33811 0.18359 0.93592 0.0
H1344 H 0.3168 0.17452 0.89771 0.0
H1345 H 0.32152 0.16524 0.85907 0.0
H1346 H 0.40513 0.16218 0.8402 0.0
H1347 H 0.42773 0.17347 0.87841 0.0
C1348 C 0.39988 0.18105 0.91302 0.0
C1349 C 0.38237 0.18416 0.92955 0.0
C1350 C 0.38745 0.17532 0.89095 0.0
C1351 C 0.35243 0.18187 0.9236 0.0
C1352 C 0.34005 0.1764 0.90173 0.0
C1353 C 0.34454 0.16671 0.8633 0.0
C1354 C 0.36148 0.16268 0.84675 0.0
C1355 C 0.35723 0.17288 0.88529 0.0
C1356 C 0.39167 0.16544 0.85255 0.0
C1357 C 0.40454 0.17172 0.87442 0.0
H1358 H 0.80393 0.17664 0.89732 0.0
H1359 H 0.81921 0.27256 0.89508 0.0
H1360 H 0.83488 0.27364 0.85819 0.0
H1361 H 0.84484 0.24773 0.82659 0.0
H1362 H 0.82779 0.15124 0.8281 0.0
H1363 H 0.81127 0.14967 0.86495 0.0
C1364 C 0.81019 0.19763 0.8887 0.0
C1365 C 0.81057 0.22459 0.89921 0.0
C1366 C 0.81874 0.19795 0.86726 0.0
C1367 C 0.81929 0.2517 0.88771 0.0
C1368 C 0.82805 0.25227 0.8665 0.0
C1369 C 0.83756 0.22638 0.83501 0.0
C1370 C 0.83774 0.19971 0.82465 0.0
C1371 C 0.82808 0.22565 0.85617 0.0
C1372 C 0.8277 0.17202 0.83564 0.0
C1373 C 0.81842 0.17118 0.85676 0.0
H1374 H 0.25103 0.1063 0.47296 0.0
H1375 H 0.33901 0.18618 0.45566 0.0
H1376 H 0.36129 0.1996 0.49381 0.0
H1377 H 0.35625 0.18863 0.53205 0.0
H1378 H 0.26967 0.10727 0.54947 0.0
H1379 H 0.24648 0.09458 0.51137 0.0
C1380 C 0.27517 0.1265 0.4775 0.0
C1381 C 0.29314 0.14528 0.46137 0.0
C1382 C 0.28814 0.13389 0.49953 0.0
C1383 C 0.32428 0.17162 0.46768 0.0
C1384 C 0.33721 0.17921 0.48952 0.0
C1385 C 0.33245 0.16788 0.52752 0.0
C1386 C 0.31483 0.14892 0.54367 0.0
C1387 C 0.31941 0.16048 0.50556 0.0
C1388 C 0.28369 0.12254 0.53747 0.0
C1389 C 0.27046 0.11513 0.51564 0.0
H1390 H 0.85126 0.1329 0.44751 0.0
H1391 H 0.94989 0.16938 0.47431 0.0
H1392 H 0.9369 0.18115 0.51008 0.0
H1393 H 0.89744 0.18102 0.53389 0.0
H1394 H 0.79847 0.1428 0.5071 0.0
H1395 H 0.81172 0.13168 0.47135 0.0
C1396 C 0.86989 0.14311 0.4612 0.0
C1397 C 0.90154 0.1502 0.4581 0.0
C1398 C 0.8622 0.14958 0.48181 0.0
C1399 C 0.92543 0.16403 0.47605 0.0
C1400 C 0.91797 0.17059 0.49659 0.0
C1401 C 0.87868 0.16997 0.5203 0.0
C1402 C 0.84699 0.16293 0.52328 0.0
C1403 C 0.88642 0.16343 0.49969 0.0
C1404 C 0.82316 0.149 0.50531 0.0
C1405 C 0.83067 0.14243 0.48483 0.0
H1406 H 0.90919 0.77627 0.49099 0.0
H1407 H 0.82843 0.69293 0.45478 0.0
H1408 H 0.81753 0.66412 0.48738 0.0
H1409 H 0.82848 0.66379 0.52672 0.0
H1410 H 0.9093 0.74693 0.56325 0.0
H1411 H 0.92229 0.77461 0.53019 0.0
C1412 C 0.88962 0.7516 0.49018 0.0
C1413 C 0.86963 0.73679 0.47047 0.0
C1414 C 0.88311 0.73528 0.50917 0.0
C1415 C 0.84406 0.70493 0.46977 0.0
C1416 C 0.83776 0.68846 0.48842 0.0
C1417 C 0.84926 0.68777 0.52746 0.0
C1418 C 0.86765 0.7032 0.54763 0.0
C1419 C 0.85674 0.70357 0.50832 0.0
C1420 C 0.89422 0.73455 0.54813 0.0
C1421 C 0.90187 0.75038 0.52915 0.0
loop_
_geom_bond_atom_site_label_1
_geom_bond_atom_site_label_2
_geom_bond_distance
_geom_bond_site_symmetry_2
_ccdc_geom_bond_type
H0 C3 0.929 . S
H1 C6 0.929 . S
H2 C8 0.930 . S
C3 H0 0.929 . S
C3 C4 1.398 . S
C3 C5 1.396 . S
C4 C3 1.398 . S
C4 C8 1.407 . S
C5 C3 1.396 . S
C5 C6 1.394 . S
C6 H1 0.929 . S
C6 C5 1.394 . S
C6 C7 1.382 . S
C7 C6 1.382 . S
C7 C8 1.392 . S
C7 N9 1.420 . S
C8 H2 0.930 . S
C8 C4 1.407 . S
C8 C7 1.392 . S
N9 C7 1.420 . S
N9 C10 1.244 . S
C10 N9 1.244 . S
H11 C14 0.929 . S
H12 C17 0.929 . S
H13 C19 0.930 . S
C14 H11 0.929 . S
C14 C15 1.398 . S
C14 C16 1.396 . S
C15 C14 1.398 . S
C15 C19 1.407 . S
C16 C14 1.396 . S
C16 C17 1.394 . S
C17 H12 0.929 . S
C17 C16 1.394 . S
C17 C18 1.382 . S
C18 C17 1.382 . S
C18 C19 1.392 . S
C18 N20 1.420 . S
C19 H13 0.930 . S
C19 C15 1.407 . S
C19 C18 1.392 . S
N20 C18 1.420 . S
N20 C21 1.244 . S
C21 N20 1.244 . S
H22 C25 0.929 . S
H23 C28 0.929 . S
H24 C30 0.930 . S
C25 H22 0.929 . S
C25 C26 1.398 . S
C25 C27 1.396 . S
C26 C25 1.398 . S
C26 C30 1.407 . S
C27 C25 1.396 . S
C27 C28 1.394 . S
C28 H23 0.929 . S
C28 C27 1.394 . S
C28 C29 1.382 . S
C29 C28 1.382 . S
C29 C30 1.392 . S
C29 N31 1.420 . S
C30 H24 0.930 . S
C30 C26 1.407 . S
C30 C29 1.392 . S
N31 C29 1.420 . S
N31 C32 1.244 . S
C32 N31 1.244 . S
H33 C36 0.929 . S
H34 C39 0.929 . S
H35 C41 0.930 . S
C36 H33 0.929 . S
C36 C37 1.398 . S
C36 C38 1.396 . S
C37 C36 1.398 . S
C37 C41 1.407 . S
C38 C36 1.396 . S
C38 C39 1.394 . S
C39 H34 0.929 . S
C39 C38 1.394 . S
C39 C40 1.382 . S
C40 C39 1.382 . S
C40 C41 1.392 . S
C40 N42 1.420 . S
C41 H35 0.930 . S
C41 C37 1.407 . S
C41 C40 1.392 . S
N42 C40 1.420 . S
N42 C43 1.244 . S
C43 N42 1.244 . S
H44 C47 0.929 . S
H45 C50 0.929 . S
H46 C52 0.930 . S
C47 H44 0.929 . S
C47 C48 1.398 . S
C47 C49 1.396 . S
C48 C47 1.398 . S
C48 C52 1.407 . S
C49 C47 1.396 . S
C49 C50 1.394 . S
C50 H45 0.929 . S
C50 C49 1.394 . S
C50 C51 1.382 . S
C51 C50 1.382 . S
C51 C52 1.392 . S
C51 N53 1.420 . S
C52 H46 0.930 . S
C52 C48 1.407 . S
C52 C51 1.392 . S
N53 C51 1.420 . S
N53 C54 1.244 . S
C54 N53 1.244 . S
H55 C58 0.929 . S
H56 C61 0.929 . S
H57 C63 0.930 . S
C58 H55 0.929 . S
C58 C59 1.398 . S
C58 C60 1.396 . S
C59 C58 1.398 . S
C59 C63 1.407 . S
C60 C58 1.396 . S
C60 C61 1.394 . S
C61 H56 0.929 . S
C61 C60 1.394 . S
C61 C62 1.382 . S
C62 C61 1.382 . S
C62 C63 1.392 . S
C62 N64 1.420 . S
C63 H57 0.930 . S
C63 C59 1.407 . S
C63 C62 1.392 . S
N64 C62 1.420 . S
N64 C65 1.244 . S
C65 N64 1.244 . S
H66 C69 0.929 . S
H67 C72 0.929 . S
H68 C74 0.930 . S
C69 H66 0.929 . S
C69 C70 1.398 . S
C69 C71 1.396 . S
C70 C69 1.398 . S
C70 C74 1.407 . S
C71 C69 1.396 . S
C71 C72 1.394 . S
C72 H67 0.929 . S
C72 C71 1.394 . S
C72 C73 1.382 . S
C73 C72 1.382 . S
C73 C74 1.392 . S
C73 N75 1.420 . S
C74 H68 0.930 . S
C74 C70 1.407 . S
C74 C73 1.392 . S
N75 C73 1.420 . S
N75 C76 1.244 . S
C76 N75 1.244 . S
H77 C80 0.929 . S
H78 C83 0.929 . S
H79 C85 0.930 . S
C80 H77 0.929 . S
C80 C81 1.398 . S
C80 C82 1.396 . S
C81 C80 1.398 . S
C81 C85 1.407 . S
C82 C80 1.396 . S
C82 C83 1.394 . S
C83 H78 0.929 . S
C83 C82 1.394 . S
C83 C84 1.382 . S
C84 C83 1.382 . S
C84 C85 1.392 . S
C84 N86 1.420 . S
C85 H79 0.930 . S
C85 C81 1.407 . S
C85 C84 1.392 . S
N86 C84 1.420 . S
N86 C87 1.244 . S
C87 N86 1.244 . S
H88 C91 0.929 . S
H89 C94 0.929 . S
H90 C96 0.930 . S
C91 H88 0.929 . S
C91 C92 1.398 . S
C91 C93 1.396 . S
C92 C91 1.398 . S
C92 C96 1.407 . S
C93 C91 1.396 . S
C93 C94 1.394 . S
C94 H89 0.929 . S
C94 C93 1.394 . S
C94 C95 1.382 . S
C95 C94 1.382 . S
C95 C96 1.392 . S
C95 N97 1.420 . S
C96 H90 0.930 . S
C96 C92 1.407 . S
C96 C95 1.392 . S
N97 C95 1.420 . S
N97 C98 1.244 . S
C98 N97 1.244 . S
H99 C102 0.929 . S
H100 C105 0.929 . S
H101 C107 0.930 . S
C102 H99 0.929 . S
C102 C103 1.398 . S
C102 C104 1.396 . S
C103 C102 1.398 . S
C103 C107 1.407 . S
C104 C102 1.396 . S
C104 C105 1.394 . S
C105 H100 0.929 . S
C105 C104 1.394 . S
C105 C106 1.382 . S
C106 C105 1.382 . S
C106 C107 1.392 . S
C106 N108 1.420 . S
C107 H101 0.930 . S
C107 C103 1.407 . S
C107 C106 1.392 . S
N108 C106 1.420 . S
N108 C109 1.244 . S
C109 N108 1.244 . S
H110 C113 0.929 . S
H111 C116 0.929 . S
H112 C118 0.882 1_554 S
C113 H110 0.929 . S
C113 C114 1.398 . S
C113 C115 1.396 . S
C114 C113 1.398 . S
C114 C118 1.407 . S
C115 C113 1.396 . S
C115 C116 1.394 . S
C116 H111 0.929 . S
C116 C115 1.394 . S
C116 C117 1.382 . S
C117 C116 1.382 . S
C117 C118 1.392 . S
C117 N119 1.420 . S
C118 H112 0.882 1_556 S
C118 C114 1.407 . S
C118 C117 1.392 . S
N119 C117 1.420 . S
N119 C120 1.244 . S
C120 N119 1.244 . S
H121 C124 0.929 . S
H122 C127 0.929 . S
H123 C129 0.930 . S
C124 H121 0.929 . S
C124 C125 1.398 . S
C124 C126 1.396 . S
C125 C124 1.398 . S
C125 C129 1.407 . S
C126 C124 1.396 . S
C126 C127 1.394 . S
C127 H122 0.929 . S
C127 C126 1.394 . S
C127 C128 1.382 . S
C128 C127 1.382 . S
C128 C129 1.392 . S
C128 N130 1.420 . S
C129 H123 0.930 . S
C129 C125 1.407 . S
C129 C128 1.392 . S
N130 C128 1.420 . S
N130 C131 1.244 . S
C131 N130 1.244 . S
H132 C135 0.929 . S
H133 C138 0.929 . S
H134 C140 0.930 . S
C135 H132 0.929 . S
C135 C136 1.398 . S
C135 C137 1.396 . S
C136 C135 1.398 . S
C136 C140 1.407 . S
C137 C135 1.396 . S
C137 C138 1.394 . S
C138 H133 0.929 . S
C138 C137 1.394 . S
C138 C139 1.382 . S
C139 C138 1.382 . S
C139 C140 1.392 . S
C139 N141 1.420 . S
C140 H134 0.930 . S
C140 C136 1.407 . S
C140 C139 1.392 . S
N141 C139 1.420 . S
N141 C142 1.244 . S
C142 N141 1.244 . S
H143 C146 0.929 . S
H144 C149 0.929 . S
H145 C151 0.930 . S
C146 H143 0.929 . S
C146 C147 1.398 . S
C146 C148 1.396 . S
C147 C146 1.398 . S
C147 C151 1.407 . S
C148 C146 1.396 . S
C148 C149 1.394 . S
C149 H144 0.929 . S
C149 C148 1.394 . S
C149 C150 1.382 . S
C150 C149 1.382 . S
C150 C151 1.392 . S
C150 N152 1.420 . S
C151 H145 0.930 . S
C151 C147 1.407 . S
C151 C150 1.392 . S
N152 C150 1.420 . S
N152 C153 1.244 . S
C153 N152 1.244 . S
H154 C157 0.929 . S
H155 C160 0.929 . S
H156 C162 0.930 . S
C157 H154 0.929 . S
C157 C158 1.398 . S
C157 C159 1.396 . S
C158 C157 1.398 . S
C158 C162 1.407 . S
C159 C157 1.396 . S
C159 C160 1.394 . S
C160 H155 0.929 . S
C160 C159 1.394 . S
C160 C161 1.382 . S
C161 C160 1.382 . S
C161 C162 1.392 . S
C161 N163 1.420 . S
C162 H156 0.930 . S
C162 C158 1.407 . S
C162 C161 1.392 . S
N163 C161 1.420 . S
N163 C164 1.244 . S
C164 N163 1.244 . S
H165 C168 0.929 . S
H166 C171 0.929 . S
H167 C173 0.930 . S
C168 H165 0.929 . S
C168 C169 1.398 . S
C168 C170 1.396 . S
C169 C168 1.398 . S
C169 C173 1.407 . S
C170 C168 1.396 . S
C170 C171 1.394 . S
C171 H166 0.929 . S
C171 C170 1.394 . S
C171 C172 1.382 . S
C172 C171 1.382 . S
C172 C173 1.392 . S
C172 N174 1.420 . S
C173 H167 0.930 . S
C173 C169 1.407 . S
C173 C172 1.392 . S
N174 C172 1.420 . S
N174 C175 1.244 . S
C175 N174 1.244 . S
H176 C179 0.929 . S
H177 C182 0.929 . S
H178 C184 0.930 . S
C179 H176 0.929 . S
C179 C180 1.398 . S
C179 C181 1.396 . S
C180 C179 1.398 . S
C180 C184 1.407 . S
C181 C179 1.396 . S
C181 C182 1.394 . S
C182 H177 0.929 . S
C182 C181 1.394 . S
C182 C183 1.382 . S
C183 C182 1.382 . S
C183 C184 1.392 . S
C183 N185 1.420 . S
C184 H178 0.930 . S
C184 C180 1.407 . S
C184 C183 1.392 . S
N185 C183 1.420 . S
N185 C186 1.244 . S
C186 N185 1.244 . S
H187 C190 0.929 . S
H188 C193 0.929 . S
H189 C195 0.930 . S
C190 H187 0.929 . S
C190 C191 1.398 . S
C190 C192 1.396 . S
C191 C190 1.398 . S
C191 C195 1.407 . S
C192 C190 1.396 . S
C192 C193 1.394 . S
C193 H188 0.929 . S
C193 C192 1.394 . S
C193 C194 1.382 . S
C194 C193 1.382 . S
C194 C195 1.392 . S
C194 N196 1.420 . S
C195 H189 0.930 . S
C195 C191 1.407 . S
C195 C194 1.392 . S
N196 C194 1.420 . S
N196 C197 1.244 . S
C197 N196 1.244 . S
Tb198 C208 2.825 1_565 S
Tb198 O209 2.347 1_565 S
Tb198 O212 2.366 1_565 S
Tb198 O217 2.418 . S
Tb198 O218 2.384 . S
Tb198 O221 2.479 . S
Tb198 O222 2.471 1_565 S
Eu199 O210 2.418 . S
Eu199 O211 2.384 . S
Eu199 O214 2.479 . S
Eu199 O215 2.471 1_545 S
Eu199 O216 2.347 1_545 S
Eu199 O219 2.366 1_545 S
Eu199 C229 2.825 . S
C200 O216 1.259 . S
C200 O217 1.265 1_554 S
C201 O218 1.255 1_554 S
C201 O219 1.265 . S
C202 C204 1.380 1_545 S
C202 C205 1.374 . S
C202 C208 1.507 . S
C203 C204 1.384 1_545 S
C203 C207 1.387 . S
C203 H230 0.930 1_545 S
C204 C202 1.380 1_565 S
C204 C203 1.384 1_565 S
C204 H231 0.931 . S
C205 C202 1.374 . S
C205 C206 1.390 . S
C205 H232 0.930 . S
C206 C205 1.390 . S
C206 C207 1.391 . S
C206 H233 0.930 . S
C207 C203 1.387 . S
C207 C206 1.391 . S
C208 Tb198 2.825 1_545 S
C208 C202 1.507 . S
C208 O221 1.238 1_545 S
C208 O222 1.247 . S
O209 Tb198 2.347 1_545 S
O209 C213 1.259 1_556 S
O210 Eu199 2.418 . S
O210 C213 1.265 . S
O211 Eu199 2.384 . S
O211 C220 1.255 1_554 S
O212 Tb198 2.366 1_545 S
O212 C220 1.265 . S
C213 O209 1.259 1_554 S
C213 O210 1.265 . S
O214 Eu199 2.479 . S
O214 C229 1.238 . S
O215 Eu199 2.471 1_565 S
O215 C229 1.247 1_565 S
O216 Eu199 2.347 1_565 S
O216 C200 1.259 . S
O217 Tb198 2.418 . S
O217 C200 1.265 1_556 S
O218 Tb198 2.384 . S
O218 C201 1.255 1_556 S
O219 Eu199 2.366 1_565 S
O219 C201 1.265 . S
C220 O211 1.255 1_556 S
C220 O212 1.265 . S
O221 Tb198 2.479 . S
O221 C208 1.238 1_565 S
O222 Tb198 2.471 1_545 S
O222 C208 1.247 . S
C223 C226 1.380 1_565 S
C223 C227 1.374 . S
C223 C229 1.507 1_565 S
C224 C225 1.387 1_565 S
C224 C228 1.391 . S
C225 C224 1.387 1_545 S
C225 C226 1.384 . S
C225 H234 0.930 . S
C226 C223 1.380 1_545 S
C226 C225 1.384 . S
C226 H235 0.931 . S
C227 C223 1.374 . S
C227 C228 1.390 . S
C227 H236 0.930 . S
C228 C224 1.391 . S
C228 C227 1.390 . S
C228 H237 0.930 . S
C229 Eu199 2.825 . S
C229 O214 1.238 . S
C229 O215 1.247 1_545 S
C229 C223 1.507 1_545 S
H230 C203 0.930 1_565 S
H231 C204 0.931 . S
H232 C205 0.930 . S
H233 C206 0.930 . S
H234 C225 0.930 . S
H235 C226 0.931 . S
H236 C227 0.930 . S
H237 C228 0.930 . S
Tb238 C248 2.826 . S
Tb238 O249 2.347 1_455 S
Tb238 O252 2.366 1_455 S
Tb238 O257 2.418 . S
Tb238 O258 2.384 1_556 S
Tb238 O261 2.479 . S
Tb238 O262 2.471 1_455 S
Eu239 O250 2.418 . S
Eu239 O251 2.384 . S
Eu239 O254 2.479 . S
Eu239 O255 2.471 1_655 S
Eu239 O256 2.347 1_655 S
Eu239 O259 2.366 1_655 S
Eu239 C269 2.825 1_655 S
C240 O256 1.259 . S
C240 O257 1.265 1_554 S
C241 O258 1.255 . S
C241 O259 1.265 . S
C242 C244 1.380 1_655 S
C242 C245 1.374 . S
C242 C248 1.506 1_655 S
C243 C244 1.384 1_655 S
C243 C247 1.387 . S
C243 H270 0.930 1_655 S
C244 C242 1.380 1_455 S
C244 C243 1.384 1_455 S
C244 H271 0.931 . S
C245 C242 1.374 . S
C245 C246 1.390 . S
C245 H272 0.930 . S
C246 C245 1.390 . S
C246 C247 1.391 . S
C246 H273 0.930 . S
C247 C243 1.387 . S
C247 C246 1.391 . S
C248 Tb238 2.826 . S
C248 C242 1.506 1_455 S
C248 O261 1.238 . S
C248 O262 1.247 1_455 S
O249 Tb238 2.347 1_655 S
O249 C253 1.243 1_556 S
O250 Eu239 2.418 . S
O250 C253 1.296 . S
O251 Eu239 2.384 . S
O251 C260 1.255 1_554 S
O252 Tb238 2.366 1_655 S
O252 C260 1.265 . S
C253 O249 1.243 1_554 S
C253 O250 1.296 . S
O254 Eu239 2.479 . S
O254 C269 1.238 1_655 S
O255 Eu239 2.471 1_455 S
O255 C269 1.247 . S
O256 Eu239 2.347 1_455 S
O256 C240 1.259 . S
O257 Tb238 2.418 . S
O257 C240 1.265 1_556 S
O258 Tb238 2.384 1_554 S
O258 C241 1.255 . S
O259 Eu239 2.366 1_455 S
O259 C241 1.265 . S
C260 O251 1.255 1_556 S
C260 O252 1.265 . S
O261 Tb238 2.479 . S
O261 C248 1.238 . S
O262 Tb238 2.471 1_655 S
O262 C248 1.247 1_655 S
C263 C266 1.380 1_455 S
C263 C267 1.374 . S
C263 C269 1.507 . S
C264 C265 1.387 . S
C264 C268 1.391 . S
C265 C264 1.387 . S
C265 C266 1.384 1_455 S
C265 H274 0.930 1_455 S
C266 C263 1.380 1_655 S
C266 C265 1.384 1_655 S
C266 H275 0.931 . S
C267 C263 1.374 . S
C267 C268 1.390 . S
C267 H276 0.930 . S
C268 C264 1.391 . S
C268 C267 1.390 . S
C268 H277 0.930 . S
C269 Eu239 2.825 1_455 S
C269 O254 1.238 1_455 S
C269 O255 1.247 . S
C269 C263 1.507 . S
H270 C243 0.930 1_455 S
H271 C244 0.931 . S
H272 C245 0.930 . S
H273 C246 0.930 . S
H274 C265 0.930 1_655 S
H275 C266 0.931 . S
H276 C267 0.930 . S
H277 C268 0.930 . S
Tb278 C288 2.825 . S
Tb278 O289 2.347 . S
Tb278 O292 2.366 . S
Tb278 O297 2.418 . S
Tb278 O298 2.384 . S
Tb278 O301 2.479 . S
Tb278 O302 2.471 . S
Eu279 O290 2.418 . S
Eu279 O291 2.384 1_556 S
Eu279 O294 2.479 . S
Eu279 O295 2.471 . S
Eu279 O296 2.347 . S
Eu279 O299 2.366 . S
Eu279 C309 2.825 . S
C280 O296 1.259 1_554 S
C280 O297 1.265 . S
C281 O298 1.255 1_556 S
C281 O299 1.265 . S
C282 C284 1.380 . S
C282 C285 1.374 . S
C282 C288 1.507 . S
C283 C284 1.384 . S
C283 C287 1.387 . S
C283 H310 0.930 . S
C284 C282 1.380 . S
C284 C283 1.384 . S
C284 H311 0.931 . S
C285 C282 1.374 . S
C285 C286 1.390 . S
C285 H312 0.930 . S
C286 C285 1.390 . S
C286 C287 1.391 . S
C286 H313 0.930 . S
C287 C283 1.387 . S
C287 C286 1.391 . S
C288 Tb278 2.825 . S
C288 C282 1.507 . S
C288 O301 1.238 . S
C288 O302 1.247 . S
O289 Tb278 2.347 . S
O289 C293 1.259 . S
O290 Eu279 2.418 . S
O290 C293 1.265 1_556 S
O291 Eu279 2.384 1_554 S
O291 C300 1.255 . S
O292 Tb278 2.366 . S
O292 C300 1.265 . S
C293 O289 1.259 . S
C293 O290 1.265 1_554 S
O294 Eu279 2.479 . S
O294 C309 1.238 . S
O295 Eu279 2.471 . S
O295 C309 1.247 . S
O296 Eu279 2.347 . S
O296 C280 1.259 1_556 S
O297 Tb278 2.418 . S
O297 C280 1.265 . S
O298 Tb278 2.384 . S
O298 C281 1.255 1_554 S
O299 Eu279 2.366 . S
O299 C281 1.265 . S
C300 O291 1.255 . S
C300 O292 1.265 . S
O301 Tb278 2.479 . S
O301 C288 1.238 . S
O302 Tb278 2.471 . S
O302 C288 1.247 . S
C303 C306 1.380 . S
C303 C307 1.374 . S
C303 C309 1.507 . S
C304 C305 1.387 . S
C304 C308 1.391 . S
C305 C304 1.387 . S
C305 C306 1.384 . S
C305 H314 0.930 . S
C306 C303 1.380 . S
C306 C305 1.384 . S
C306 H315 0.931 . S
C307 C303 1.374 . S
C307 C308 1.390 . S
C307 H316 0.930 . S
C308 C304 1.391 . S
C308 C307 1.390 . S
C308 H317 0.930 . S
C309 Eu279 2.825 . S
C309 O294 1.238 . S
C309 O295 1.247 . S
C309 C303 1.507 . S
H310 C283 0.930 . S
H311 C284 0.931 . S
H312 C285 0.930 . S
H313 C286 0.930 . S
H314 C305 0.930 . S
H315 C306 0.931 . S
H316 C307 0.930 . S
H317 C308 0.930 . S
Tb318 C328 2.825 . S
Tb318 O329 2.347 . S
Tb318 O332 2.366 . S
Tb318 O337 2.418 . S
Tb318 O338 2.384 . S
Tb318 O341 2.479 . S
Tb318 O342 2.471 . S
Eu319 O330 2.418 . S
Eu319 O331 2.384 . S
Eu319 O334 2.479 . S
Eu319 O335 2.471 . S
Eu319 O336 2.347 . S
Eu319 O339 2.366 . S
Eu319 C349 2.825 . S
C320 O336 1.259 . S
C320 O337 1.265 . S
C321 O338 1.255 . S
C321 O339 1.265 . S
C322 C324 1.380 . S
C322 C325 1.374 . S
C322 C328 1.507 . S
C323 C324 1.384 . S
C323 C327 1.387 . S
C323 H350 0.930 . S
C324 C322 1.380 . S
C324 C323 1.384 . S
C324 H351 0.931 . S
C325 C322 1.374 . S
C325 C326 1.390 . S
C325 H352 0.930 . S
C326 C325 1.390 . S
C326 C327 1.391 . S
C326 H353 0.930 . S
C327 C323 1.387 . S
C327 C326 1.391 . S
C328 Tb318 2.825 . S
C328 C322 1.507 . S
C328 O341 1.238 . S
C328 O342 1.247 . S
O329 Tb318 2.347 . S
O329 C333 1.259 . S
O330 Eu319 2.418 . S
O330 C333 1.265 . S
O331 Eu319 2.384 . S
O331 C340 1.255 . S
O332 Tb318 2.366 . S
O332 C340 1.265 . S
C333 O329 1.259 . S
C333 O330 1.265 . S
O334 Eu319 2.479 . S
O334 C349 1.238 . S
O335 Eu319 2.471 . S
O335 C349 1.247 . S
O336 Eu319 2.347 . S
O336 C320 1.259 . S
O337 Tb318 2.418 . S
O337 C320 1.265 . S
O338 Tb318 2.384 . S
O338 C321 1.255 . S
O339 Eu319 2.366 . S
O339 C321 1.265 . S
C340 O331 1.255 . S
C340 O332 1.265 . S
O341 Tb318 2.479 . S
O341 C328 1.238 . S
O342 Tb318 2.471 . S
O342 C328 1.247 . S
C343 C346 1.380 . S
C343 C347 1.374 . S
C343 C349 1.507 . S
C344 C345 1.387 . S
C344 C348 1.391 . S
C345 C344 1.387 . S
C345 C346 1.384 . S
C345 H354 0.930 . S
C346 C343 1.380 . S
C346 C345 1.384 . S
C346 H355 0.931 . S
C347 C343 1.374 . S
C347 C348 1.390 . S
C347 H356 0.930 . S
C348 C344 1.391 . S
C348 C347 1.390 . S
C348 H357 0.930 . S
C349 Eu319 2.825 . S
C349 O334 1.238 . S
C349 O335 1.247 . S
C349 C343 1.507 . S
H350 C323 0.930 . S
H351 C324 0.931 . S
H352 C325 0.930 . S
H353 C326 0.930 . S
H354 C345 0.930 . S
H355 C346 0.931 . S
H356 C347 0.930 . S
H357 C348 0.930 . S
Tb358 C368 2.825 . S
Tb358 O369 2.347 . S
Tb358 O372 2.366 . S
Tb358 O377 2.418 . S
Tb358 O378 2.384 . S
Tb358 O381 2.479 . S
Tb358 O382 2.471 . S
Eu359 O370 2.418 . S
Eu359 O371 2.384 . S
Eu359 O374 2.479 . S
Eu359 O375 2.471 . S
Eu359 O376 2.347 . S
Eu359 O379 2.366 . S
Eu359 C389 2.825 . S
C360 O376 1.259 . S
C360 O377 1.265 . S
C361 O378 1.255 . S
C361 O379 1.265 . S
C362 C364 1.380 . S
C362 C365 1.374 . S
C362 C368 1.507 . S
C363 C364 1.384 . S
C363 C367 1.387 . S
C363 H390 0.930 . S
C364 C362 1.380 . S
C364 C363 1.384 . S
C364 H391 0.931 . S
C365 C362 1.374 . S
C365 C366 1.390 . S
C365 H392 0.930 . S
C366 C365 1.390 . S
C366 C367 1.391 . S
C366 H393 0.930 . S
C367 C363 1.387 . S
C367 C366 1.391 . S
C368 Tb358 2.825 . S
C368 C362 1.507 . S
C368 O381 1.238 . S
C368 O382 1.247 . S
O369 Tb358 2.347 . S
O369 C373 1.259 . S
O370 Eu359 2.418 . S
O370 C373 1.265 . S
O371 Eu359 2.384 . S
O371 C380 1.255 . S
O372 Tb358 2.366 . S
O372 C380 1.265 . S
C373 O369 1.259 . S
C373 O370 1.265 . S
O374 Eu359 2.479 . S
O374 C389 1.238 . S
O375 Eu359 2.471 . S
O375 C389 1.247 . S
O376 Eu359 2.347 . S
O376 C360 1.259 . S
O377 Tb358 2.418 . S
O377 C360 1.265 . S
O378 Tb358 2.384 . S
O378 C361 1.255 . S
O379 Eu359 2.366 . S
O379 C361 1.265 . S
C380 O371 1.255 . S
C380 O372 1.265 . S
O381 Tb358 2.479 . S
O381 C368 1.238 . S
O382 Tb358 2.471 . S
O382 C368 1.247 . S
C383 C386 1.380 . S
C383 C387 1.374 . S
C383 C389 1.507 . S
C384 C385 1.387 . S
C384 C388 1.391 . S
C385 C384 1.387 . S
C385 C386 1.384 . S
C385 H394 0.930 . S
C386 C383 1.380 . S
C386 C385 1.384 . S
C386 H395 0.931 . S
C387 C383 1.374 . S
C387 C388 1.390 . S
C387 H396 0.930 . S
C388 C384 1.391 . S
C388 C387 1.390 . S
C388 H397 0.930 . S
C389 Eu359 2.825 . S
C389 O374 1.238 . S
C389 O375 1.247 . S
C389 C383 1.507 . S
H390 C363 0.930 . S
H391 C364 0.931 . S
H392 C365 0.930 . S
H393 C366 0.930 . S
H394 C385 0.930 . S
H395 C386 0.931 . S
H396 C387 0.930 . S
H397 C388 0.930 . S
Tb398 C408 2.825 . S
Tb398 O409 2.347 . S
Tb398 O412 2.366 . S
Tb398 O417 2.418 . S
Tb398 O418 2.384 . S
Tb398 O421 2.479 . S
Tb398 O422 2.471 . S
Eu399 O410 2.418 . S
Eu399 O411 2.384 . S
Eu399 O414 2.479 . S
Eu399 O415 2.471 . S
Eu399 O416 2.347 . S
Eu399 O419 2.366 . S
Eu399 C429 2.825 . S
C400 O416 1.259 . S
C400 O417 1.265 . S
C401 O418 1.255 . S
C401 O419 1.265 . S
C402 C404 1.380 . S
C402 C405 1.374 . S
C402 C408 1.507 . S
C403 C404 1.384 . S
C403 C407 1.387 . S
C403 H430 0.930 . S
C404 C402 1.380 . S
C404 C403 1.384 . S
C404 H431 0.931 . S
C405 C402 1.374 . S
C405 C406 1.390 . S
C405 H432 0.930 . S
C406 C405 1.390 . S
C406 C407 1.391 . S
C406 H433 0.930 . S
C407 C403 1.387 . S
C407 C406 1.391 . S
C408 Tb398 2.825 . S
C408 C402 1.507 . S
C408 O421 1.238 . S
C408 O422 1.247 . S
O409 Tb398 2.347 . S
O409 C413 1.259 . S
O410 Eu399 2.418 . S
O410 C413 1.265 . S
O411 Eu399 2.384 . S
O411 C420 1.255 . S
O412 Tb398 2.366 . S
O412 C420 1.265 . S
C413 O409 1.259 . S
C413 O410 1.265 . S
O414 Eu399 2.479 . S
O414 C429 1.238 . S
O415 Eu399 2.471 . S
O415 C429 1.247 . S
O416 Eu399 2.347 . S
O416 C400 1.259 . S
O417 Tb398 2.418 . S
O417 C400 1.265 . S
O418 Tb398 2.384 . S
O418 C401 1.255 . S
O419 Eu399 2.366 . S
O419 C401 1.265 . S
C420 O411 1.255 . S
C420 O412 1.265 . S
O421 Tb398 2.479 . S
O421 C408 1.238 . S
O422 Tb398 2.471 . S
O422 C408 1.247 . S
C423 C426 1.380 . S
C423 C427 1.374 . S
C423 C429 1.507 . S
C424 C425 1.387 . S
C424 C428 1.391 . S
C425 C424 1.387 . S
C425 C426 1.384 . S
C425 H434 0.930 . S
C426 C423 1.380 . S
C426 C425 1.384 . S
C426 H435 0.931 . S
C427 C423 1.374 . S
C427 C428 1.390 . S
C427 H436 0.930 . S
C428 C424 1.391 . S
C428 C427 1.390 . S
C428 H437 0.930 . S
C429 Eu399 2.825 . S
C429 O414 1.238 . S
C429 O415 1.247 . S
C429 C423 1.507 . S
H430 C403 0.930 . S
H431 C404 0.931 . S
H432 C405 0.930 . S
H433 C406 0.930 . S
H434 C425 0.930 . S
H435 C426 0.931 . S
H436 C427 0.930 . S
H437 C428 0.930 . S
Tb438 C448 2.825 . S
Tb438 O449 2.347 . S
Tb438 O452 2.366 . S
Tb438 O457 2.418 . S
Tb438 O458 2.384 . S
Tb438 O461 2.479 . S
Tb438 O462 2.471 . S
Eu439 O450 2.418 . S
Eu439 O451 2.384 . S
Eu439 O454 2.479 . S
Eu439 O455 2.471 . S
Eu439 O456 2.347 . S
Eu439 O459 2.366 . S
Eu439 C469 2.825 . S
C440 O456 1.259 . S
C440 O457 1.265 . S
C441 O458 1.255 . S
C441 O459 1.265 . S
C442 C444 1.380 . S
C442 C445 1.374 . S
C442 C448 1.507 . S
C443 C444 1.384 . S
C443 C447 1.387 . S
C443 H470 0.930 . S
C444 C442 1.380 . S
C444 C443 1.384 . S
C444 H471 0.931 . S
C445 C442 1.374 . S
C445 C446 1.390 . S
C445 H472 0.930 . S
C446 C445 1.390 . S
C446 C447 1.391 . S
C446 H473 0.930 . S
C447 C443 1.387 . S
C447 C446 1.391 . S
C448 Tb438 2.825 . S
C448 C442 1.507 . S
C448 O461 1.238 . S
C448 O462 1.247 . S
O449 Tb438 2.347 . S
O449 C453 1.259 . S
O450 Eu439 2.418 . S
O450 C453 1.265 . S
O451 Eu439 2.384 . S
O451 C460 1.255 . S
O452 Tb438 2.366 . S
O452 C460 1.265 . S
C453 O449 1.259 . S
C453 O450 1.265 . S
O454 Eu439 2.479 . S
O454 C469 1.238 . S
O455 Eu439 2.471 . S
O455 C469 1.247 . S
O456 Eu439 2.347 . S
O456 C440 1.259 . S
O457 Tb438 2.418 . S
O457 C440 1.265 . S
O458 Tb438 2.384 . S
O458 C441 1.255 . S
O459 Eu439 2.366 . S
O459 C441 1.265 . S
C460 O451 1.255 . S
C460 O452 1.265 . S
O461 Tb438 2.479 . S
O461 C448 1.238 . S
O462 Tb438 2.471 . S
O462 C448 1.247 . S
C463 C466 1.380 . S
C463 C467 1.374 . S
C463 C469 1.507 . S
C464 C465 1.387 . S
C464 C468 1.391 . S
C465 C464 1.387 . S
C465 C466 1.384 . S
C465 H474 0.930 . S
C466 C463 1.380 . S
C466 C465 1.384 . S
C466 H475 0.931 . S
C467 C463 1.374 . S
C467 C468 1.390 . S
C467 H476 0.930 . S
C468 C464 1.391 . S
C468 C467 1.390 . S
C468 H477 0.930 . S
C469 Eu439 2.825 . S
C469 O454 1.238 . S
C469 O455 1.247 . S
C469 C463 1.507 . S
H470 C443 0.930 . S
H471 C444 0.931 . S
H472 C445 0.930 . S
H473 C446 0.930 . S
H474 C465 0.930 . S
H475 C466 0.931 . S
H476 C467 0.930 . S
H477 C468 0.930 . S
Tb478 C488 2.825 . S
Tb478 O489 2.347 . S
Tb478 O492 2.366 . S
Tb478 O497 2.418 . S
Tb478 O498 2.384 . S
Tb478 O501 2.479 . S
Tb478 O502 2.471 . S
Eu479 O490 2.418 . S
Eu479 O491 2.384 . S
Eu479 O494 2.479 . S
Eu479 O495 2.471 . S
Eu479 O496 2.347 . S
Eu479 O499 2.366 . S
Eu479 C509 2.825 . S
C480 O496 1.259 . S
C480 O497 1.265 . S
C481 O498 1.255 . S
C481 O499 1.265 . S
C482 C484 1.380 . S
C482 C485 1.374 . S
C482 C488 1.507 . S
C483 C484 1.384 . S
C483 C487 1.387 . S
C483 H510 0.930 . S
C484 C482 1.380 . S
C484 C483 1.384 . S
C484 H511 0.931 . S
C485 C482 1.374 . S
C485 C486 1.390 . S
C485 H512 0.930 . S
C486 C485 1.390 . S
C486 C487 1.391 . S
C486 H513 0.930 . S
C487 C483 1.387 . S
C487 C486 1.391 . S
C488 Tb478 2.825 . S
C488 C482 1.507 . S
C488 O501 1.238 . S
C488 O502 1.247 . S
O489 Tb478 2.347 . S
O489 C493 1.259 . S
O490 Eu479 2.418 . S
O490 C493 1.265 . S
O491 Eu479 2.384 . S
O491 C500 1.255 . S
O492 Tb478 2.366 . S
O492 C500 1.265 . S
C493 O489 1.259 . S
C493 O490 1.265 . S
O494 Eu479 2.479 . S
O494 C509 1.238 . S
O495 Eu479 2.471 . S
O495 C509 1.247 . S
O496 Eu479 2.347 . S
O496 C480 1.259 . S
O497 Tb478 2.418 . S
O497 C480 1.265 . S
O498 Tb478 2.384 . S
O498 C481 1.255 . S
O499 Eu479 2.366 . S
O499 C481 1.265 . S
C500 O491 1.255 . S
C500 O492 1.265 . S
O501 Tb478 2.479 . S
O501 C488 1.238 . S
O502 Tb478 2.471 . S
O502 C488 1.247 . S
C503 C506 1.380 . S
C503 C507 1.374 . S
C503 C509 1.507 . S
C504 C505 1.387 . S
C504 C508 1.391 . S
C505 C504 1.387 . S
C505 C506 1.384 . S
C505 H514 0.930 . S
C506 C503 1.380 . S
C506 C505 1.384 . S
C506 H515 0.931 . S
C507 C503 1.374 . S
C507 C508 1.390 . S
C507 H516 0.930 . S
C508 C504 1.391 . S
C508 C507 1.390 . S
C508 H517 0.930 . S
C509 Eu479 2.825 . S
C509 O494 1.238 . S
C509 O495 1.247 . S
C509 C503 1.507 . S
H510 C483 0.930 . S
H511 C484 0.931 . S
H512 C485 0.930 . S
H513 C486 0.930 . S
H514 C505 0.930 . S
H515 C506 0.931 . S
H516 C507 0.930 . S
H517 C508 0.930 . S
Tb518 C528 2.825 . S
Tb518 O529 2.347 . S
Tb518 O532 2.366 . S
Tb518 O537 2.418 . S
Tb518 O538 2.384 . S
Tb518 O541 2.479 . S
Tb518 O542 2.471 . S
Eu519 O530 2.418 . S
Eu519 O531 2.384 . S
Eu519 O534 2.479 . S
Eu519 O535 2.471 . S
Eu519 O536 2.347 . S
Eu519 O539 2.366 . S
Eu519 C549 2.825 . S
C520 O536 1.259 . S
C520 O537 1.265 . S
C521 O538 1.255 . S
C521 O539 1.265 . S
C522 C524 1.380 . S
C522 C525 1.374 . S
C522 C528 1.507 . S
C523 C524 1.384 . S
C523 C527 1.387 . S
C523 H550 0.930 . S
C524 C522 1.380 . S
C524 C523 1.384 . S
C524 H551 0.931 . S
C525 C522 1.374 . S
C525 C526 1.390 . S
C525 H552 0.930 . S
C526 C525 1.390 . S
C526 C527 1.391 . S
C526 H553 0.930 . S
C527 C523 1.387 . S
C527 C526 1.391 . S
C528 Tb518 2.825 . S
C528 C522 1.507 . S
C528 O541 1.238 . S
C528 O542 1.247 . S
O529 Tb518 2.347 . S
O529 C533 1.259 . S
O530 Eu519 2.418 . S
O530 C533 1.265 . S
O531 Eu519 2.384 . S
O531 C540 1.255 . S
O532 Tb518 2.366 . S
O532 C540 1.265 . S
C533 O529 1.259 . S
C533 O530 1.265 . S
O534 Eu519 2.479 . S
O534 C549 1.238 . S
O535 Eu519 2.471 . S
O535 C549 1.247 . S
O536 Eu519 2.347 . S
O536 C520 1.259 . S
O537 Tb518 2.418 . S
O537 C520 1.265 . S
O538 Tb518 2.384 . S
O538 C521 1.255 . S
O539 Eu519 2.366 . S
O539 C521 1.265 . S
C540 O531 1.255 . S
C540 O532 1.265 . S
O541 Tb518 2.479 . S
O541 C528 1.238 . S
O542 Tb518 2.471 . S
O542 C528 1.247 . S
C543 C546 1.380 . S
C543 C547 1.374 . S
C543 C549 1.507 . S
C544 C545 1.387 . S
C544 C548 1.391 . S
C545 C544 1.387 . S
C545 C546 1.384 . S
C545 H554 0.930 . S
C546 C543 1.380 . S
C546 C545 1.384 . S
C546 H555 0.931 . S
C547 C543 1.374 . S
C547 C548 1.390 . S
C547 H556 0.930 . S
C548 C544 1.391 . S
C548 C547 1.390 . S
C548 H557 0.930 . S
C549 Eu519 2.825 . S
C549 O534 1.238 . S
C549 O535 1.247 . S
C549 C543 1.507 . S
H550 C523 0.930 . S
H551 C524 0.931 . S
H552 C525 0.930 . S
H553 C526 0.930 . S
H554 C545 0.930 . S
H555 C546 0.931 . S
H556 C547 0.930 . S
H557 C548 0.930 . S
H558 C564 0.930 . S
H559 C567 0.930 . S
H560 C568 0.930 . S
H561 C569 0.930 . S
H562 C572 0.930 . S
H563 C573 0.930 . S
C564 H558 0.930 . S
C564 C565 1.355 . S
C564 C566 1.415 . S
C565 C564 1.355 . S
C565 C567 1.419 . S
C566 C564 1.415 . S
C566 C571 1.425 . S
C566 C573 1.409 . S
C567 H559 0.930 . S
C567 C565 1.419 . S
C567 C568 1.362 . S
C568 H560 0.930 . S
C568 C567 1.362 . S
C568 C571 1.409 . S
C569 H561 0.930 . S
C569 C570 1.355 . S
C569 C571 1.415 . S
C570 C569 1.355 . S
C570 C572 1.419 . S
C571 C566 1.425 . S
C571 C568 1.409 . S
C571 C569 1.415 . S
C572 H562 0.930 . S
C572 C570 1.419 . S
C572 C573 1.362 . S
C573 H563 0.930 . S
C573 C566 1.409 . S
C573 C572 1.362 . S
H574 C580 0.930 . S
H575 C583 0.930 . S
H576 C584 0.930 . S
H577 C585 0.930 . S
H578 C588 0.930 . S
H579 C589 0.930 . S
C580 H574 0.930 . S
C580 C581 1.355 . S
C580 C582 1.415 . S
C581 C580 1.355 . S
C581 C583 1.419 . S
C582 C580 1.415 . S
C582 C587 1.425 . S
C582 C589 1.409 . S
C583 H575 0.930 . S
C583 C581 1.419 . S
C583 C584 1.362 . S
C584 H576 0.930 . S
C584 C583 1.362 . S
C584 C587 1.409 . S
C585 H577 0.930 . S
C585 C586 1.355 . S
C585 C587 1.415 . S
C586 C585 1.355 . S
C586 C588 1.419 . S
C587 C582 1.425 . S
C587 C584 1.409 . S
C587 C585 1.415 . S
C588 H578 0.930 . S
C588 C586 1.419 . S
C588 C589 1.362 . S
C589 H579 0.930 . S
C589 C582 1.409 . S
C589 C588 1.362 . S
H590 C596 0.930 . S
H591 C599 0.930 . S
H592 C600 0.930 . S
H593 C601 0.930 . S
H594 C604 0.930 1_556 S
H595 C605 0.930 1_556 S
C596 H590 0.930 . S
C596 C597 1.355 . S
C596 C598 1.415 . S
C597 C596 1.355 . S
C597 C599 1.419 . S
C598 C596 1.415 . S
C598 C603 1.425 . S
C598 C605 1.409 . S
C599 H591 0.930 . S
C599 C597 1.419 . S
C599 C600 1.362 . S
C600 H592 0.930 . S
C600 C599 1.362 . S
C600 C603 1.409 . S
C601 H593 0.930 . S
C601 C602 1.355 . S
C601 C603 1.415 . S
C602 C601 1.355 . S
C602 C604 1.419 . S
C603 C598 1.425 . S
C603 C600 1.409 . S
C603 C601 1.415 . S
C604 H594 0.930 1_554 S
C604 C602 1.419 . S
C604 C605 1.362 . S
C605 H595 0.930 1_554 S
C605 C598 1.409 . S
C605 C604 1.362 . S
H606 C612 0.930 . S
H607 C615 0.930 . S
H608 C616 0.930 . S
H609 C617 0.930 . S
H610 C620 0.930 . S
H611 C621 0.930 . S
C612 H606 0.930 . S
C612 C613 1.355 . S
C612 C614 1.415 . S
C613 C612 1.355 . S
C613 C615 1.419 . S
C614 C612 1.415 . S
C614 C619 1.425 . S
C614 C621 1.409 . S
C615 H607 0.930 . S
C615 C613 1.419 . S
C615 C616 1.362 . S
C616 H608 0.930 . S
C616 C615 1.362 . S
C616 C619 1.409 . S
C617 H609 0.930 . S
C617 C618 1.355 . S
C617 C619 1.415 . S
C618 C617 1.355 . S
C618 C620 1.419 . S
C619 C614 1.425 . S
C619 C616 1.409 . S
C619 C617 1.415 . S
C620 H610 0.930 . S
C620 C618 1.419 . S
C620 C621 1.362 . S
C621 H611 0.930 . S
C621 C614 1.409 . S
C621 C620 1.362 . S
H622 C628 0.930 . S
H623 C631 0.930 . S
H624 C632 0.930 . S
H625 C633 0.930 . S
H626 C636 0.914 1_554 S
H627 C637 0.930 1_554 S
C628 H622 0.930 . S
C628 C629 1.355 . S
C628 C630 1.415 . S
C629 C628 1.355 . S
C629 C631 1.419 . S
C630 C628 1.415 . S
C630 C635 1.425 . S
C630 C637 1.409 . S
C631 H623 0.930 . S
C631 C629 1.419 . S
C631 C632 1.362 . S
C632 H624 0.930 . S
C632 C631 1.362 . S
C632 C635 1.409 . S
C633 H625 0.930 . S
C633 C634 1.355 . S
C633 C635 1.415 . S
C634 C633 1.355 . S
C634 C636 1.429 . S
C635 C630 1.425 . S
C635 C632 1.409 . S
C635 C633 1.415 . S
C636 H626 0.914 1_556 S
C636 C634 1.429 . S
C636 C637 1.369 . S
C637 H627 0.930 1_556 S
C637 C630 1.409 . S
C637 C636 1.369 . S
H638 C644 0.930 . S
H639 C647 0.930 . S
H640 C648 0.930 . S
H641 C649 0.930 . S
H642 C652 0.913 1_554 S
H643 C653 0.930 . S
C644 H638 0.930 . S
C644 C645 1.355 . S
C644 C646 1.415 . S
C645 C644 1.355 . S
C645 C647 1.419 . S
C646 C644 1.415 . S
C646 C651 1.425 . S
C646 C653 1.409 . S
C647 H639 0.930 . S
C647 C645 1.419 . S
C647 C648 1.362 . S
C648 H640 0.930 . S
C648 C647 1.362 . S
C648 C651 1.409 . S
C649 H641 0.930 . S
C649 C650 1.355 . S
C649 C651 1.415 . S
C650 C649 1.355 . S
C650 C652 1.429 . S
C651 C646 1.425 . S
C651 C648 1.409 . S
C651 C649 1.415 . S
C652 H642 0.913 1_556 S
C652 C650 1.429 . S
C652 C653 1.372 . S
C653 H643 0.930 . S
C653 C646 1.409 . S
C653 C652 1.372 . S
H654 C660 0.930 . S
H655 C663 0.930 . S
H656 C664 0.930 . S
H657 C665 0.930 . S
H658 C668 0.930 . S
H659 C669 0.930 . S
C660 H654 0.930 . S
C660 C661 1.355 . S
C660 C662 1.415 . S
C661 C660 1.355 . S
C661 C663 1.419 . S
C662 C660 1.415 . S
C662 C667 1.425 . S
C662 C669 1.409 . S
C663 H655 0.930 . S
C663 C661 1.419 . S
C663 C664 1.362 . S
C664 H656 0.930 . S
C664 C663 1.362 . S
C664 C667 1.409 . S
C665 H657 0.930 . S
C665 C666 1.355 . S
C665 C667 1.415 . S
C666 C665 1.355 . S
C666 C668 1.419 . S
C667 C662 1.425 . S
C667 C664 1.409 . S
C667 C665 1.415 . S
C668 H658 0.930 . S
C668 C666 1.419 . S
C668 C669 1.362 . S
C669 H659 0.930 . S
C669 C662 1.409 . S
C669 C668 1.362 . S
H670 C676 0.930 . S
H671 C679 0.930 . S
H672 C680 0.930 . S
H673 C681 0.930 . S
H674 C684 0.930 . S
H675 C685 0.930 . S
C676 H670 0.930 . S
C676 C677 1.355 . S
C676 C678 1.415 . S
C677 C676 1.355 . S
C677 C679 1.419 . S
C678 C676 1.415 . S
C678 C683 1.425 . S
C678 C685 1.409 . S
C679 H671 0.930 . S
C679 C677 1.419 . S
C679 C680 1.362 . S
C680 H672 0.930 . S
C680 C679 1.362 . S
C680 C683 1.409 . S
C681 H673 0.930 . S
C681 C682 1.355 . S
C681 C683 1.415 . S
C682 C681 1.355 . S
C682 C684 1.419 . S
C683 C678 1.425 . S
C683 C680 1.409 . S
C683 C681 1.415 . S
C684 H674 0.930 . S
C684 C682 1.419 . S
C684 C685 1.362 . S
C685 H675 0.930 . S
C685 C678 1.409 . S
C685 C684 1.362 . S
H686 C692 0.930 . S
H687 C695 0.930 . S
H688 C696 0.930 . S
H689 C697 0.930 . S
H690 C700 0.930 . S
H691 C701 0.930 . S
C692 H686 0.930 . S
C692 C693 1.355 . S
C692 C694 1.415 . S
C693 C692 1.355 . S
C693 C695 1.419 1_556 S
C694 C692 1.415 . S
C694 C699 1.425 1_556 S
C694 C701 1.409 . S
C695 H687 0.930 . S
C695 C693 1.419 1_554 S
C695 C696 1.362 . S
C696 H688 0.930 . S
C696 C695 1.362 . S
C696 C699 1.409 . S
C697 H689 0.930 . S
C697 C698 1.355 1_554 S
C697 C699 1.415 . S
C698 C697 1.355 1_556 S
C698 C700 1.419 . S
C699 C694 1.425 1_554 S
C699 C696 1.409 . S
C699 C697 1.415 . S
C700 H690 0.930 . S
C700 C698 1.419 . S
C700 C701 1.362 . S
C701 H691 0.930 . S
C701 C694 1.409 . S
C701 C700 1.362 . S
H702 C708 0.930 . S
H703 C711 0.930 . S
H704 C712 0.930 . S
H705 C713 0.930 . S
H706 C716 0.930 . S
H707 C717 0.930 . S
C708 H702 0.930 . S
C708 C709 1.355 . S
C708 C710 1.415 . S
C709 C708 1.355 . S
C709 C711 1.419 . S
C710 C708 1.415 . S
C710 C715 1.425 . S
C710 C717 1.409 . S
C711 H703 0.930 . S
C711 C709 1.419 . S
C711 C712 1.362 . S
C712 H704 0.930 . S
C712 C711 1.362 . S
C712 C715 1.409 . S
C713 H705 0.930 . S
C713 C714 1.355 . S
C713 C715 1.415 . S
C714 C713 1.355 . S
C714 C716 1.419 . S
C715 C710 1.425 . S
C715 C712 1.409 . S
C715 C713 1.415 . S
C716 H706 0.930 . S
C716 C714 1.419 . S
C716 C717 1.362 . S
C717 H707 0.930 . S
C717 C710 1.409 . S
C717 C716 1.362 . S
H718 C724 0.930 . S
H719 C727 0.930 . S
H720 C728 0.930 . S
H721 C729 0.930 . S
H722 C732 0.930 . S
H723 C733 0.930 . S
C724 H718 0.930 . S
C724 C725 1.355 . S
C724 C726 1.415 . S
C725 C724 1.355 . S
C725 C727 1.419 . S
C726 C724 1.415 . S
C726 C731 1.425 . S
C726 C733 1.409 . S
C727 H719 0.930 . S
C727 C725 1.419 . S
C727 C728 1.362 . S
C728 H720 0.930 . S
C728 C727 1.362 . S
C728 C731 1.409 . S
C729 H721 0.930 . S
C729 C730 1.355 . S
C729 C731 1.415 . S
C730 C729 1.355 . S
C730 C732 1.419 . S
C731 C726 1.425 . S
C731 C728 1.409 . S
C731 C729 1.415 . S
C732 H722 0.930 . S
C732 C730 1.419 . S
C732 C733 1.362 . S
C733 H723 0.930 . S
C733 C726 1.409 . S
C733 C732 1.362 . S
H734 C740 0.930 . S
H735 C743 0.930 1_556 S
H736 C744 0.930 . S
H737 C745 0.930 1_556 S
H738 C748 0.930 . S
H739 C749 0.930 . S
C740 H734 0.930 . S
C740 C741 1.355 . S
C740 C742 1.415 . S
C741 C740 1.355 . S
C741 C743 1.419 . S
C742 C740 1.415 . S
C742 C747 1.425 . S
C742 C749 1.409 . S
C743 H735 0.930 1_554 S
C743 C741 1.419 . S
C743 C744 1.362 1_554 S
C744 H736 0.930 . S
C744 C743 1.362 1_556 S
C744 C747 1.409 1_556 S
C745 H737 0.930 1_554 S
C745 C746 1.355 . S
C745 C747 1.415 . S
C746 C745 1.355 . S
C746 C748 1.419 . S
C747 C742 1.425 . S
C747 C744 1.409 1_554 S
C747 C745 1.415 . S
C748 H738 0.930 . S
C748 C746 1.419 . S
C748 C749 1.362 . S
C749 H739 0.930 . S
C749 C742 1.409 . S
C749 C748 1.362 . S
H750 C756 0.930 . S
H751 C759 0.930 . S
H752 C760 0.930 . S
H753 C761 0.930 . S
H754 C764 0.930 . S
H755 C765 0.930 . S
C756 H750 0.930 . S
C756 C757 1.355 . S
C756 C758 1.415 . S
C757 C756 1.355 . S
C757 C759 1.419 . S
C758 C756 1.415 . S
C758 C763 1.425 . S
C758 C765 1.409 . S
C759 H751 0.930 . S
C759 C757 1.419 . S
C759 C760 1.362 . S
C760 H752 0.930 . S
C760 C759 1.362 . S
C760 C763 1.409 . S
C761 H753 0.930 . S
C761 C762 1.355 . S
C761 C763 1.415 1_455 S
C762 C761 1.355 . S
C762 C764 1.419 . S
C763 C758 1.425 . S
C763 C760 1.409 . S
C763 C761 1.415 1_655 S
C764 H754 0.930 . S
C764 C762 1.419 . S
C764 C765 1.362 1_455 S
C765 H755 0.930 . S
C765 C758 1.409 . S
C765 C764 1.362 1_655 S
H766 C772 0.930 . S
H767 C775 0.930 . S
H768 C776 0.930 . S
H769 C777 0.930 . S
H770 C780 0.930 . S
H771 C781 0.930 . S
C772 H766 0.930 . S
C772 C773 1.355 . S
C772 C774 1.415 . S
C773 C772 1.355 . S
C773 C775 1.419 . S
C774 C772 1.415 . S
C774 C779 1.425 . S
C774 C781 1.409 . S
C775 H767 0.930 . S
C775 C773 1.419 . S
C775 C776 1.362 . S
C776 H768 0.930 . S
C776 C775 1.362 . S
C776 C779 1.409 . S
C777 H769 0.930 . S
C777 C778 1.355 . S
C777 C779 1.415 . S
C778 C777 1.355 . S
C778 C780 1.419 . S
C779 C774 1.425 . S
C779 C776 1.409 . S
C779 C777 1.415 . S
C780 H770 0.930 . S
C780 C778 1.419 . S
C780 C781 1.362 . S
C781 H771 0.930 . S
C781 C774 1.409 . S
C781 C780 1.362 . S
H782 C788 0.930 . S
H783 C791 0.930 . S
H784 C792 0.930 . S
H785 C793 0.930 . S
H786 C796 0.930 . S
H787 C797 0.930 . S
C788 H782 0.930 . S
C788 C789 1.355 . S
C788 C790 1.415 . S
C789 C788 1.355 . S
C789 C791 1.419 . S
C790 C788 1.415 . S
C790 C795 1.425 . S
C790 C797 1.409 . S
C791 H783 0.930 . S
C791 C789 1.419 . S
C791 C792 1.362 . S
C792 H784 0.930 . S
C792 C791 1.362 . S
C792 C795 1.409 . S
C793 H785 0.930 . S
C793 C794 1.355 . S
C793 C795 1.415 1_565 S
C794 C793 1.355 . S
C794 C796 1.419 . S
C795 C790 1.425 . S
C795 C792 1.409 . S
C795 C793 1.415 1_545 S
C796 H786 0.930 . S
C796 C794 1.419 . S
C796 C797 1.362 1_565 S
C797 H787 0.930 . S
C797 C790 1.409 . S
C797 C796 1.362 1_545 S
H798 C804 0.930 . S
H799 C807 0.930 . S
H800 C808 0.930 . S
H801 C809 0.930 . S
H802 C812 0.930 . S
H803 C813 0.930 . S
C804 H798 0.930 . S
C804 C805 1.355 . S
C804 C806 1.415 . S
C805 C804 1.355 . S
C805 C807 1.419 . S
C806 C804 1.415 . S
C806 C811 1.425 . S
C806 C813 1.409 . S
C807 H799 0.930 . S
C807 C805 1.419 . S
C807 C808 1.362 . S
C808 H800 0.930 . S
C808 C807 1.362 . S
C808 C811 1.409 . S
C809 H801 0.930 . S
C809 C810 1.355 . S
C809 C811 1.415 . S
C810 C809 1.355 . S
C810 C812 1.419 . S
C811 C806 1.425 . S
C811 C808 1.409 . S
C811 C809 1.415 . S
C812 H802 0.930 . S
C812 C810 1.419 . S
C812 C813 1.362 . S
C813 H803 0.930 . S
C813 C806 1.409 . S
C813 C812 1.362 . S
H814 C820 0.930 . S
H815 C823 0.930 . S
H816 C824 0.930 . S
H817 C825 0.930 . S
H818 C828 0.930 . S
H819 C829 0.930 . S
C820 H814 0.930 . S
C820 C821 1.355 . S
C820 C822 1.415 . S
C821 C820 1.355 . S
C821 C823 1.419 . S
C822 C820 1.415 . S
C822 C827 1.425 . S
C822 C829 1.409 . S
C823 H815 0.930 . S
C823 C821 1.419 . S
C823 C824 1.362 . S
C824 H816 0.930 . S
C824 C823 1.362 . S
C824 C827 1.409 . S
C825 H817 0.930 . S
C825 C826 1.355 . S
C825 C827 1.415 . S
C826 C825 1.355 . S
C826 C828 1.419 . S
C827 C822 1.425 . S
C827 C824 1.409 . S
C827 C825 1.415 . S
C828 H818 0.930 . S
C828 C826 1.419 . S
C828 C829 1.362 . S
C829 H819 0.930 . S
C829 C822 1.409 . S
C829 C828 1.362 . S
H830 C836 0.930 . S
H831 C839 0.930 . S
H832 C840 0.930 . S
H833 C841 0.930 . S
H834 C844 0.930 . S
H835 C845 0.930 . S
C836 H830 0.930 . S
C836 C837 1.355 . S
C836 C838 1.415 . S
C837 C836 1.355 . S
C837 C839 1.419 . S
C838 C836 1.415 . S
C838 C843 1.425 . S
C838 C845 1.409 . S
C839 H831 0.930 . S
C839 C837 1.419 . S
C839 C840 1.362 . S
C840 H832 0.930 . S
C840 C839 1.362 . S
C840 C843 1.409 . S
C841 H833 0.930 . S
C841 C842 1.355 . S
C841 C843 1.415 . S
C842 C841 1.355 . S
C842 C844 1.419 . S
C843 C838 1.425 . S
C843 C840 1.409 . S
C843 C841 1.415 . S
C844 H834 0.930 . S
C844 C842 1.419 . S
C844 C845 1.362 . S
C845 H835 0.930 . S
C845 C838 1.409 . S
C845 C844 1.362 . S
H846 C852 0.930 . S
H847 C855 0.930 . S
H848 C856 0.930 . S
H849 C857 0.930 . S
H850 C860 0.930 . S
H851 C861 0.930 . S
C852 H846 0.930 . S
C852 C853 1.355 . S
C852 C854 1.415 . S
C853 C852 1.355 . S
C853 C855 1.419 . S
C854 C852 1.415 . S
C854 C859 1.425 . S
C854 C861 1.409 . S
C855 H847 0.930 . S
C855 C853 1.419 . S
C855 C856 1.362 . S
C856 H848 0.930 . S
C856 C855 1.362 . S
C856 C859 1.409 . S
C857 H849 0.930 . S
C857 C858 1.355 . S
C857 C859 1.415 . S
C858 C857 1.355 . S
C858 C860 1.419 . S
C859 C854 1.425 . S
C859 C856 1.409 . S
C859 C857 1.415 . S
C860 H850 0.930 . S
C860 C858 1.419 . S
C860 C861 1.362 . S
C861 H851 0.930 . S
C861 C854 1.409 . S
C861 C860 1.362 . S
H862 C868 0.930 . S
H863 C871 0.930 . S
H864 C872 0.930 . S
H865 C873 0.930 . S
H866 C876 0.930 . S
H867 C877 0.930 . S
C868 H862 0.930 . S
C868 C869 1.355 . S
C868 C870 1.415 . S
C869 C868 1.355 . S
C869 C871 1.419 . S
C870 C868 1.415 . S
C870 C875 1.425 . S
C870 C877 1.409 . S
C871 H863 0.930 . S
C871 C869 1.419 . S
C871 C872 1.362 . S
C872 H864 0.930 . S
C872 C871 1.362 . S
C872 C875 1.409 . S
C873 H865 0.930 . S
C873 C874 1.355 . S
C873 C875 1.415 . S
C874 C873 1.355 . S
C874 C876 1.419 . S
C875 C870 1.425 . S
C875 C872 1.409 . S
C875 C873 1.415 . S
C876 H866 0.930 . S
C876 C874 1.419 . S
C876 C877 1.362 . S
C877 H867 0.930 . S
C877 C870 1.409 . S
C877 C876 1.362 . S
H878 C884 0.930 . S
H879 C887 0.930 . S
H880 C888 0.930 . S
H881 C889 0.930 . S
H882 C892 0.930 . S
H883 C893 0.930 . S
C884 H878 0.930 . S
C884 C885 1.355 . S
C884 C886 1.415 . S
C885 C884 1.355 . S
C885 C887 1.419 . S
C886 C884 1.415 . S
C886 C891 1.425 . S
C886 C893 1.409 . S
C887 H879 0.930 . S
C887 C885 1.419 . S
C887 C888 1.362 . S
C888 H880 0.930 . S
C888 C887 1.362 . S
C888 C891 1.409 . S
C889 H881 0.930 . S
C889 C890 1.355 . S
C889 C891 1.415 . S
C890 C889 1.355 . S
C890 C892 1.419 . S
C891 C886 1.425 . S
C891 C888 1.409 . S
C891 C889 1.415 . S
C892 H882 0.930 . S
C892 C890 1.419 . S
C892 C893 1.362 . S
C893 H883 0.930 . S
C893 C886 1.409 . S
C893 C892 1.362 . S
H894 C900 0.930 . S
H895 C903 0.930 . S
H896 C904 0.930 . S
H897 C905 0.930 . S
H898 C908 0.930 . S
H899 C909 0.930 . S
C900 H894 0.930 . S
C900 C901 1.355 . S
C900 C902 1.415 1_545 S
C901 C900 1.355 . S
C901 C903 1.419 . S
C902 C900 1.415 1_565 S
C902 C907 1.425 . S
C902 C909 1.409 . S
C903 H895 0.930 . S
C903 C901 1.419 . S
C903 C904 1.362 1_545 S
C904 H896 0.930 . S
C904 C903 1.362 1_565 S
C904 C907 1.409 . S
C905 H897 0.930 . S
C905 C906 1.355 . S
C905 C907 1.415 . S
C906 C905 1.355 . S
C906 C908 1.419 . S
C907 C902 1.425 . S
C907 C904 1.409 . S
C907 C905 1.415 . S
C908 H898 0.930 . S
C908 C906 1.419 . S
C908 C909 1.362 . S
C909 H899 0.930 . S
C909 C902 1.409 . S
C909 C908 1.362 . S
H910 C916 0.930 . S
H911 C919 0.922 1_655 S
H912 C920 0.930 . S
H913 C921 0.930 . S
H914 C924 0.930 . S
H915 C925 0.930 . S
C916 H910 0.930 . S
C916 C917 1.349 1_455 S
C916 C918 1.415 . S
C917 C916 1.349 1_655 S
C917 C919 1.407 1_655 S
C918 C916 1.415 . S
C918 C923 1.425 . S
C918 C925 1.409 . S
C919 H911 0.922 1_455 S
C919 C917 1.407 1_455 S
C919 C920 1.378 . S
C920 H912 0.930 . S
C920 C919 1.378 . S
C920 C923 1.409 . S
C921 H913 0.930 . S
C921 C922 1.355 . S
C921 C923 1.415 . S
C922 C921 1.355 . S
C922 C924 1.419 . S
C923 C918 1.425 . S
C923 C920 1.409 . S
C923 C921 1.415 . S
C924 H914 0.930 . S
C924 C922 1.419 . S
C924 C925 1.362 . S
C925 H915 0.930 . S
C925 C918 1.409 . S
C925 C924 1.362 . S
H926 C932 0.930 . S
H927 C935 0.930 . S
H928 C936 0.930 . S
H929 C937 0.930 . S
H930 C940 0.930 . S
H931 C941 0.930 . S
C932 H926 0.930 . S
C932 C933 1.355 . S
C932 C934 1.415 . S
C933 C932 1.355 . S
C933 C935 1.419 . S
C934 C932 1.415 . S
C934 C939 1.425 . S
C934 C941 1.409 . S
C935 H927 0.930 . S
C935 C933 1.419 . S
C935 C936 1.362 . S
C936 H928 0.930 . S
C936 C935 1.362 . S
C936 C939 1.409 . S
C937 H929 0.930 . S
C937 C938 1.355 . S
C937 C939 1.415 . S
C938 C937 1.355 . S
C938 C940 1.419 . S
C939 C934 1.425 . S
C939 C936 1.409 . S
C939 C937 1.415 . S
C940 H930 0.930 . S
C940 C938 1.419 . S
C940 C941 1.362 . S
C941 H931 0.930 . S
C941 C934 1.409 . S
C941 C940 1.362 . S
H942 C948 0.930 . S
H943 C951 0.930 . S
H944 C952 0.930 . S
H945 C953 0.930 . S
H946 C956 0.930 . S
H947 C957 0.930 . S
C948 H942 0.930 . S
C948 C949 1.355 . S
C948 C950 1.415 . S
C949 C948 1.355 . S
C949 C951 1.419 . S
C950 C948 1.415 . S
C950 C955 1.425 . S
C950 C957 1.409 . S
C951 H943 0.930 . S
C951 C949 1.419 . S
C951 C952 1.362 . S
C952 H944 0.930 . S
C952 C951 1.362 . S
C952 C955 1.409 . S
C953 H945 0.930 . S
C953 C954 1.355 . S
C953 C955 1.415 . S
C954 C953 1.355 . S
C954 C956 1.419 . S
C955 C950 1.425 . S
C955 C952 1.409 . S
C955 C953 1.415 . S
C956 H946 0.930 . S
C956 C954 1.419 . S
C956 C957 1.362 . S
C957 H947 0.930 . S
C957 C950 1.409 . S
C957 C956 1.362 . S
H958 C964 0.930 . S
H959 C967 0.930 . S
H960 C968 0.930 . S
H961 C969 0.930 . S
H962 C972 0.930 . S
H963 C973 0.930 . S
C964 H958 0.930 . S
C964 C965 1.355 . S
C964 C966 1.415 . S
C965 C964 1.355 . S
C965 C967 1.419 . S
C966 C964 1.415 . S
C966 C971 1.425 . S
C966 C973 1.409 . S
C967 H959 0.930 . S
C967 C965 1.419 . S
C967 C968 1.362 . S
C968 H960 0.930 . S
C968 C967 1.362 . S
C968 C971 1.409 . S
C969 H961 0.930 . S
C969 C970 1.355 . S
C969 C971 1.415 . S
C970 C969 1.355 . S
C970 C972 1.419 . S
C971 C966 1.425 . S
C971 C968 1.409 . S
C971 C969 1.415 . S
C972 H962 0.930 . S
C972 C970 1.419 . S
C972 C973 1.362 . S
C973 H963 0.930 . S
C973 C966 1.409 . S
C973 C972 1.362 . S
H974 C980 0.930 . S
H975 C983 0.930 . S
H976 C984 0.930 . S
H977 C985 0.930 . S
H978 C988 0.930 . S
H979 C989 0.930 . S
C980 H974 0.930 . S
C980 C981 1.355 . S
C980 C982 1.415 . S
C981 C980 1.355 . S
C981 C983 1.419 . S
C982 C980 1.415 . S
C982 C987 1.425 . S
C982 C989 1.409 . S
C983 H975 0.930 . S
C983 C981 1.419 . S
C983 C984 1.362 . S
C984 H976 0.930 . S
C984 C983 1.362 . S
C984 C987 1.409 . S
C985 H977 0.930 . S
C985 C986 1.355 . S
C985 C987 1.415 . S
C986 C985 1.355 . S
C986 C988 1.419 . S
C987 C982 1.425 . S
C987 C984 1.409 . S
C987 C985 1.415 . S
C988 H978 0.930 . S
C988 C986 1.419 . S
C988 C989 1.362 . S
C989 H979 0.930 . S
C989 C982 1.409 . S
C989 C988 1.362 . S
H990 C996 0.930 . S
H991 C999 0.930 . S
H992 C1000 0.950 . S
H993 C1001 0.930 . S
H994 C1004 0.930 . S
H995 C1005 0.930 . S
C996 H990 0.930 . S
C996 C997 1.355 . S
C996 C998 1.415 . S
C997 C996 1.355 . S
C997 C999 1.419 . S
C998 C996 1.415 . S
C998 C1003 1.442 . S
C998 C1005 1.409 . S
C999 H991 0.930 . S
C999 C997 1.419 . S
C999 C1000 1.362 . S
C1000 H992 0.950 . S
C1000 C999 1.362 . S
C1000 C1003 1.408 . S
C1001 H993 0.930 . S
C1001 C1002 1.355 . S
C1001 C1003 1.400 1_545 S
C1002 C1001 1.355 . S
C1002 C1004 1.419 . S
C1003 C998 1.442 . S
C1003 C1000 1.408 . S
C1003 C1001 1.400 1_565 S
C1004 H994 0.930 . S
C1004 C1002 1.419 . S
C1004 C1005 1.362 1_545 S
C1005 H995 0.930 . S
C1005 C998 1.409 . S
C1005 C1004 1.362 1_565 S
H1006 C1012 0.930 . S
H1007 C1015 0.930 . S
H1008 C1016 0.930 . S
H1009 C1017 0.930 . S
H1010 C1020 0.930 . S
H1011 C1021 0.930 . S
C1012 H1006 0.930 . S
C1012 C1013 1.355 . S
C1012 C1014 1.415 . S
C1013 C1012 1.355 . S
C1013 C1015 1.419 . S
C1014 C1012 1.415 . S
C1014 C1019 1.425 . S
C1014 C1021 1.409 1_455 S
C1015 H1007 0.930 . S
C1015 C1013 1.419 . S
C1015 C1016 1.362 . S
C1016 H1008 0.930 . S
C1016 C1015 1.362 . S
C1016 C1019 1.409 . S
C1017 H1009 0.930 . S
C1017 C1018 1.355 . S
C1017 C1019 1.415 1_655 S
C1018 C1017 1.355 . S
C1018 C1020 1.419 . S
C1019 C1014 1.425 . S
C1019 C1016 1.409 . S
C1019 C1017 1.415 1_455 S
C1020 H1010 0.930 . S
C1020 C1018 1.419 . S
C1020 C1021 1.362 . S
C1021 H1011 0.930 . S
C1021 C1014 1.409 1_655 S
C1021 C1020 1.362 . S
H1022 C1028 0.930 . S
H1023 C1031 0.930 . S
H1024 C1032 0.930 . S
H1025 C1033 0.930 . S
H1026 C1036 0.930 . S
H1027 C1037 0.930 . S
C1028 H1022 0.930 . S
C1028 C1029 1.355 . S
C1028 C1030 1.415 . S
C1029 C1028 1.355 . S
C1029 C1031 1.419 . S
C1030 C1028 1.415 . S
C1030 C1035 1.425 . S
C1030 C1037 1.409 . S
C1031 H1023 0.930 . S
C1031 C1029 1.419 . S
C1031 C1032 1.362 . S
C1032 H1024 0.930 . S
C1032 C1031 1.362 . S
C1032 C1035 1.409 . S
C1033 H1025 0.930 . S
C1033 C1034 1.355 . S
C1033 C1035 1.415 . S
C1034 C1033 1.355 . S
C1034 C1036 1.419 . S
C1035 C1030 1.425 . S
C1035 C1032 1.409 . S
C1035 C1033 1.415 . S
C1036 H1026 0.930 . S
C1036 C1034 1.419 . S
C1036 C1037 1.362 . S
C1037 H1027 0.930 . S
C1037 C1030 1.409 . S
C1037 C1036 1.362 . S
H1038 C1044 0.930 . S
H1039 C1047 0.930 . S
H1040 C1048 0.930 . S
H1041 C1049 0.930 . S
H1042 C1052 0.930 . S
H1043 C1053 0.930 . S
C1044 H1038 0.930 . S
C1044 C1045 1.355 1_655 S
C1044 C1046 1.415 . S
C1045 C1044 1.355 1_455 S
C1045 C1047 1.419 . S
C1046 C1044 1.415 . S
C1046 C1051 1.425 . S
C1046 C1053 1.409 . S
C1047 H1039 0.930 . S
C1047 C1045 1.419 . S
C1047 C1048 1.362 1_455 S
C1048 H1040 0.930 . S
C1048 C1047 1.362 1_655 S
C1048 C1051 1.409 . S
C1049 H1041 0.930 . S
C1049 C1050 1.355 . S
C1049 C1051 1.415 . S
C1050 C1049 1.355 . S
C1050 C1052 1.419 . S
C1051 C1046 1.425 . S
C1051 C1048 1.409 . S
C1051 C1049 1.415 . S
C1052 H1042 0.930 . S
C1052 C1050 1.419 . S
C1052 C1053 1.362 . S
C1053 H1043 0.930 . S
C1053 C1046 1.409 . S
C1053 C1052 1.362 . S
H1054 C1060 0.930 . S
H1055 C1063 0.930 . S
H1056 C1064 0.930 . S
H1057 C1065 0.930 . S
H1058 C1068 0.930 . S
H1059 C1069 0.930 . S
C1060 H1054 0.930 . S
C1060 C1061 1.355 . S
C1060 C1062 1.415 . S
C1061 C1060 1.355 . S
C1061 C1063 1.419 . S
C1062 C1060 1.415 . S
C1062 C1067 1.425 . S
C1062 C1069 1.409 . S
C1063 H1055 0.930 . S
C1063 C1061 1.419 . S
C1063 C1064 1.362 . S
C1064 H1056 0.930 . S
C1064 C1063 1.362 . S
C1064 C1067 1.409 . S
C1065 H1057 0.930 . S
C1065 C1066 1.355 . S
C1065 C1067 1.415 . S
C1066 C1065 1.355 . S
C1066 C1068 1.419 . S
C1067 C1062 1.425 . S
C1067 C1064 1.409 . S
C1067 C1065 1.415 . S
C1068 H1058 0.930 . S
C1068 C1066 1.419 . S
C1068 C1069 1.362 . S
C1069 H1059 0.930 . S
C1069 C1062 1.409 . S
C1069 C1068 1.362 . S
H1070 C1076 0.930 1_565 S
H1071 C1079 0.930 . S
H1072 C1080 0.930 . S
H1073 C1081 0.930 . S
H1074 C1084 0.930 . S
H1075 C1085 0.930 . S
C1076 H1070 0.930 1_545 S
C1076 C1077 1.355 1_545 S
C1076 C1078 1.415 . S
C1077 C1076 1.355 1_565 S
C1077 C1079 1.419 . S
C1078 C1076 1.415 . S
C1078 C1083 1.425 . S
C1078 C1085 1.409 . S
C1079 H1071 0.930 . S
C1079 C1077 1.419 . S
C1079 C1080 1.362 1_565 S
C1080 H1072 0.930 . S
C1080 C1079 1.362 1_545 S
C1080 C1083 1.409 . S
C1081 H1073 0.930 . S
C1081 C1082 1.355 . S
C1081 C1083 1.415 . S
C1082 C1081 1.355 . S
C1082 C1084 1.419 . S
C1083 C1078 1.425 . S
C1083 C1080 1.409 . S
C1083 C1081 1.415 . S
C1084 H1074 0.930 . S
C1084 C1082 1.419 . S
C1084 C1085 1.362 . S
C1085 H1075 0.930 . S
C1085 C1078 1.409 . S
C1085 C1084 1.362 . S
H1086 C1092 0.930 . S
H1087 C1095 0.930 . S
H1088 C1096 0.930 . S
H1089 C1097 0.930 . S
H1090 C1100 0.930 . S
H1091 C1101 0.930 . S
C1092 H1086 0.930 . S
C1092 C1093 1.355 . S
C1092 C1094 1.415 . S
C1093 C1092 1.355 . S
C1093 C1095 1.419 . S
C1094 C1092 1.415 . S
C1094 C1099 1.425 . S
C1094 C1101 1.409 . S
C1095 H1087 0.930 . S
C1095 C1093 1.419 . S
C1095 C1096 1.362 . S
C1096 H1088 0.930 . S
C1096 C1095 1.362 . S
C1096 C1099 1.409 . S
C1097 H1089 0.930 . S
C1097 C1098 1.355 . S
C1097 C1099 1.415 . S
C1098 C1097 1.355 . S
C1098 C1100 1.419 . S
C1099 C1094 1.425 . S
C1099 C1096 1.409 . S
C1099 C1097 1.415 . S
C1100 H1090 0.930 . S
C1100 C1098 1.419 . S
C1100 C1101 1.362 . S
C1101 H1091 0.930 . S
C1101 C1094 1.409 . S
C1101 C1100 1.362 . S
H1102 C1108 0.930 . S
H1103 C1111 0.930 . S
H1104 C1112 0.930 . S
H1105 C1113 0.930 . S
H1106 C1116 0.930 . S
H1107 C1117 0.930 . S
C1108 H1102 0.930 . S
C1108 C1109 1.355 . S
C1108 C1110 1.415 . S
C1109 C1108 1.355 . S
C1109 C1111 1.419 . S
C1110 C1108 1.415 . S
C1110 C1115 1.425 . S
C1110 C1117 1.409 . S
C1111 H1103 0.930 . S
C1111 C1109 1.419 . S
C1111 C1112 1.362 . S
C1112 H1104 0.930 . S
C1112 C1111 1.362 . S
C1112 C1115 1.409 . S
C1113 H1105 0.930 . S
C1113 C1114 1.355 . S
C1113 C1115 1.415 . S
C1114 C1113 1.355 . S
C1114 C1116 1.419 . S
C1115 C1110 1.425 . S
C1115 C1112 1.409 . S
C1115 C1113 1.415 . S
C1116 H1106 0.930 . S
C1116 C1114 1.419 . S
C1116 C1117 1.362 . S
C1117 H1107 0.930 . S
C1117 C1110 1.409 . S
C1117 C1116 1.362 . S
H1118 C1124 0.930 . S
H1119 C1127 0.930 . S
H1120 C1128 0.930 . S
H1121 C1129 0.930 . S
H1122 C1132 0.930 . S
H1123 C1133 0.930 . S
C1124 H1118 0.930 . S
C1124 C1125 1.355 . S
C1124 C1126 1.415 . S
C1125 C1124 1.355 . S
C1125 C1127 1.419 . S
C1126 C1124 1.415 . S
C1126 C1131 1.425 . S
C1126 C1133 1.409 . S
C1127 H1119 0.930 . S
C1127 C1125 1.419 . S
C1127 C1128 1.362 . S
C1128 H1120 0.930 . S
C1128 C1127 1.362 . S
C1128 C1131 1.409 . S
C1129 H1121 0.930 . S
C1129 C1130 1.355 . S
C1129 C1131 1.415 . S
C1130 C1129 1.355 . S
C1130 C1132 1.419 . S
C1131 C1126 1.425 . S
C1131 C1128 1.409 . S
C1131 C1129 1.415 . S
C1132 H1122 0.930 . S
C1132 C1130 1.419 . S
C1132 C1133 1.362 . S
C1133 H1123 0.930 . S
C1133 C1126 1.409 . S
C1133 C1132 1.362 . S
H1134 C1140 0.930 . S
H1135 C1143 0.930 . S
H1136 C1144 0.930 . S
H1137 C1145 0.930 . S
H1138 C1148 0.930 . S
H1139 C1149 0.930 . S
C1140 H1134 0.930 . S
C1140 C1141 1.355 . S
C1140 C1142 1.415 . S
C1141 C1140 1.355 . S
C1141 C1143 1.419 . S
C1142 C1140 1.415 . S
C1142 C1147 1.425 . S
C1142 C1149 1.409 . S
C1143 H1135 0.930 . S
C1143 C1141 1.419 . S
C1143 C1144 1.362 . S
C1144 H1136 0.930 . S
C1144 C1143 1.362 . S
C1144 C1147 1.409 . S
C1145 H1137 0.930 . S
C1145 C1146 1.355 . S
C1145 C1147 1.415 . S
C1146 C1145 1.355 . S
C1146 C1148 1.419 . S
C1147 C1142 1.425 . S
C1147 C1144 1.409 . S
C1147 C1145 1.415 . S
C1148 H1138 0.930 . S
C1148 C1146 1.419 . S
C1148 C1149 1.362 . S
C1149 H1139 0.930 . S
C1149 C1142 1.409 . S
C1149 C1148 1.362 . S
H1150 C1156 0.930 . S
H1151 C1159 0.930 . S
H1152 C1160 0.930 . S
H1153 C1161 0.930 . S
H1154 C1164 0.930 . S
H1155 C1165 0.930 . S
C1156 H1150 0.930 . S
C1156 C1157 1.355 . S
C1156 C1158 1.415 . S
C1157 C1156 1.355 . S
C1157 C1159 1.419 . S
C1158 C1156 1.415 . S
C1158 C1163 1.425 . S
C1158 C1165 1.409 . S
C1159 H1151 0.930 . S
C1159 C1157 1.419 . S
C1159 C1160 1.362 . S
C1160 H1152 0.930 . S
C1160 C1159 1.362 . S
C1160 C1163 1.409 . S
C1161 H1153 0.930 . S
C1161 C1162 1.355 . S
C1161 C1163 1.415 . S
C1162 C1161 1.355 . S
C1162 C1164 1.419 . S
C1163 C1158 1.425 . S
C1163 C1160 1.409 . S
C1163 C1161 1.415 . S
C1164 H1154 0.930 . S
C1164 C1162 1.419 . S
C1164 C1165 1.362 . S
C1165 H1155 0.930 . S
C1165 C1158 1.409 . S
C1165 C1164 1.362 . S
H1166 C1172 0.930 . S
H1167 C1175 0.930 . S
H1168 C1176 0.930 . S
H1169 C1177 0.930 . S
H1170 C1180 0.930 . S
H1171 C1181 0.930 . S
C1172 H1166 0.930 . S
C1172 C1173 1.355 . S
C1172 C1174 1.415 . S
C1173 C1172 1.355 . S
C1173 C1175 1.419 . S
C1174 C1172 1.415 . S
C1174 C1179 1.425 . S
C1174 C1181 1.409 . S
C1175 H1167 0.930 . S
C1175 C1173 1.419 . S
C1175 C1176 1.362 . S
C1176 H1168 0.930 . S
C1176 C1175 1.362 . S
C1176 C1179 1.409 . S
C1177 H1169 0.930 . S
C1177 C1178 1.355 . S
C1177 C1179 1.415 . S
C1178 C1177 1.355 . S
C1178 C1180 1.419 . S
C1179 C1174 1.425 . S
C1179 C1176 1.409 . S
C1179 C1177 1.415 . S
C1180 H1170 0.930 . S
C1180 C1178 1.419 . S
C1180 C1181 1.362 . S
C1181 H1171 0.930 . S
C1181 C1174 1.409 . S
C1181 C1180 1.362 . S
H1182 C1188 0.930 . S
H1183 C1191 0.930 1_455 S
H1184 C1192 0.930 1_455 S
H1185 C1193 0.930 . S
H1186 C1196 0.930 . S
H1187 C1197 0.930 . S
C1188 H1182 0.930 . S
C1188 C1189 1.355 . S
C1188 C1190 1.415 . S
C1189 C1188 1.355 . S
C1189 C1191 1.419 . S
C1190 C1188 1.415 . S
C1190 C1195 1.425 . S
C1190 C1197 1.409 . S
C1191 H1183 0.930 1_655 S
C1191 C1189 1.419 . S
C1191 C1192 1.362 . S
C1192 H1184 0.930 1_655 S
C1192 C1191 1.362 . S
C1192 C1195 1.409 . S
C1193 H1185 0.930 . S
C1193 C1194 1.355 . S
C1193 C1195 1.415 . S
C1194 C1193 1.355 . S
C1194 C1196 1.419 . S
C1195 C1190 1.425 . S
C1195 C1192 1.409 . S
C1195 C1193 1.415 . S
C1196 H1186 0.930 . S
C1196 C1194 1.419 . S
C1196 C1197 1.362 . S
C1197 H1187 0.930 . S
C1197 C1190 1.409 . S
C1197 C1196 1.362 . S
H1198 C1204 0.930 . S
H1199 C1207 0.930 . S
H1200 C1208 0.930 . S
H1201 C1209 0.930 . S
H1202 C1212 0.930 . S
H1203 C1213 0.930 . S
C1204 H1198 0.930 . S
C1204 C1205 1.355 . S
C1204 C1206 1.415 . S
C1205 C1204 1.355 . S
C1205 C1207 1.419 . S
C1206 C1204 1.415 . S
C1206 C1211 1.425 . S
C1206 C1213 1.409 . S
C1207 H1199 0.930 . S
C1207 C1205 1.419 . S
C1207 C1208 1.362 . S
C1208 H1200 0.930 . S
C1208 C1207 1.362 . S
C1208 C1211 1.409 . S
C1209 H1201 0.930 . S
C1209 C1210 1.355 . S
C1209 C1211 1.415 . S
C1210 C1209 1.355 . S
C1210 C1212 1.419 . S
C1211 C1206 1.425 . S
C1211 C1208 1.409 . S
C1211 C1209 1.415 . S
C1212 H1202 0.930 . S
C1212 C1210 1.419 . S
C1212 C1213 1.362 . S
C1213 H1203 0.930 . S
C1213 C1206 1.409 . S
C1213 C1212 1.362 . S
H1214 C1220 0.930 . S
H1215 C1223 0.930 . S
H1216 C1224 0.930 . S
H1217 C1225 0.930 . S
H1218 C1228 0.930 . S
H1219 C1229 0.930 . S
C1220 H1214 0.930 . S
C1220 C1221 1.355 . S
C1220 C1222 1.415 . S
C1221 C1220 1.355 . S
C1221 C1223 1.419 . S
C1222 C1220 1.415 . S
C1222 C1227 1.425 . S
C1222 C1229 1.409 . S
C1223 H1215 0.930 . S
C1223 C1221 1.419 . S
C1223 C1224 1.362 . S
C1224 H1216 0.930 . S
C1224 C1223 1.362 . S
C1224 C1227 1.409 . S
C1225 H1217 0.930 . S
C1225 C1226 1.355 . S
C1225 C1227 1.415 . S
C1226 C1225 1.355 . S
C1226 C1228 1.419 . S
C1227 C1222 1.425 . S
C1227 C1224 1.409 . S
C1227 C1225 1.415 . S
C1228 H1218 0.930 . S
C1228 C1226 1.419 . S
C1228 C1229 1.362 . S
C1229 H1219 0.930 . S
C1229 C1222 1.409 . S
C1229 C1228 1.362 . S
H1230 C1236 0.930 . S
H1231 C1239 0.930 . S
H1232 C1240 0.930 . S
H1233 C1241 0.930 . S
H1234 C1244 0.930 . S
H1235 C1245 0.930 . S
C1236 H1230 0.930 . S
C1236 C1237 1.355 . S
C1236 C1238 1.415 . S
C1237 C1236 1.355 . S
C1237 C1239 1.419 . S
C1238 C1236 1.415 . S
C1238 C1243 1.425 . S
C1238 C1245 1.409 . S
C1239 H1231 0.930 . S
C1239 C1237 1.419 . S
C1239 C1240 1.362 . S
C1240 H1232 0.930 . S
C1240 C1239 1.362 . S
C1240 C1243 1.409 . S
C1241 H1233 0.930 . S
C1241 C1242 1.355 . S
C1241 C1243 1.415 . S
C1242 C1241 1.355 . S
C1242 C1244 1.419 . S
C1243 C1238 1.425 . S
C1243 C1240 1.409 . S
C1243 C1241 1.415 . S
C1244 H1234 0.930 . S
C1244 C1242 1.419 . S
C1244 C1245 1.362 . S
C1245 H1235 0.930 . S
C1245 C1238 1.409 . S
C1245 C1244 1.362 . S
H1246 C1252 0.930 . S
H1247 C1255 0.930 . S
H1248 C1256 0.930 . S
H1249 C1257 0.930 . S
H1250 C1260 0.930 . S
H1251 C1261 0.930 . S
C1252 H1246 0.930 . S
C1252 C1253 1.355 . S
C1252 C1254 1.415 . S
C1253 C1252 1.355 . S
C1253 C1255 1.419 . S
C1254 C1252 1.415 . S
C1254 C1259 1.425 . S
C1254 C1261 1.409 . S
C1255 H1247 0.930 . S
C1255 C1253 1.419 . S
C1255 C1256 1.362 . S
C1256 H1248 0.930 . S
C1256 C1255 1.362 . S
C1256 C1259 1.409 . S
C1257 H1249 0.930 . S
C1257 C1258 1.355 . S
C1257 C1259 1.415 . S
C1258 C1257 1.355 . S
C1258 C1260 1.419 . S
C1259 C1254 1.425 . S
C1259 C1256 1.409 . S
C1259 C1257 1.415 . S
C1260 H1250 0.930 . S
C1260 C1258 1.419 . S
C1260 C1261 1.362 . S
C1261 H1251 0.930 . S
C1261 C1254 1.409 . S
C1261 C1260 1.362 . S
H1262 C1268 0.930 . S
H1263 C1271 0.930 . S
H1264 C1272 0.930 . S
H1265 C1273 0.930 . S
H1266 C1276 0.930 . S
H1267 C1277 0.930 . S
C1268 H1262 0.930 . S
C1268 C1269 1.355 . S
C1268 C1270 1.415 . S
C1269 C1268 1.355 . S
C1269 C1271 1.419 . S
C1270 C1268 1.415 . S
C1270 C1275 1.425 . S
C1270 C1277 1.409 . S
C1271 H1263 0.930 . S
C1271 C1269 1.419 . S
C1271 C1272 1.362 . S
C1272 H1264 0.930 . S
C1272 C1271 1.362 . S
C1272 C1275 1.409 . S
C1273 H1265 0.930 . S
C1273 C1274 1.355 . S
C1273 C1275 1.415 . S
C1274 C1273 1.355 . S
C1274 C1276 1.419 . S
C1275 C1270 1.425 . S
C1275 C1272 1.409 . S
C1275 C1273 1.415 . S
C1276 H1266 0.930 . S
C1276 C1274 1.419 . S
C1276 C1277 1.362 . S
C1277 H1267 0.930 . S
C1277 C1270 1.409 . S
C1277 C1276 1.362 . S
H1278 C1284 0.930 . S
H1279 C1287 0.930 . S
H1280 C1288 0.930 . S
H1281 C1289 0.930 . S
H1282 C1292 0.930 . S
H1283 C1293 0.930 . S
C1284 H1278 0.930 . S
C1284 C1285 1.355 . S
C1284 C1286 1.415 . S
C1285 C1284 1.355 . S
C1285 C1287 1.419 . S
C1286 C1284 1.415 . S
C1286 C1291 1.425 . S
C1286 C1293 1.409 . S
C1287 H1279 0.930 . S
C1287 C1285 1.419 . S
C1287 C1288 1.362 . S
C1288 H1280 0.930 . S
C1288 C1287 1.362 . S
C1288 C1291 1.409 . S
C1289 H1281 0.930 . S
C1289 C1290 1.355 . S
C1289 C1291 1.415 . S
C1290 C1289 1.355 . S
C1290 C1292 1.419 . S
C1291 C1286 1.425 . S
C1291 C1288 1.409 . S
C1291 C1289 1.415 . S
C1292 H1282 0.930 . S
C1292 C1290 1.419 . S
C1292 C1293 1.362 . S
C1293 H1283 0.930 . S
C1293 C1286 1.409 . S
C1293 C1292 1.362 . S
H1294 C1300 0.930 . S
H1295 C1303 0.930 . S
H1296 C1304 0.930 . S
H1297 C1305 0.930 . S
H1298 C1308 0.930 . S
H1299 C1309 0.930 . S
C1300 H1294 0.930 . S
C1300 C1301 1.355 . S
C1300 C1302 1.415 . S
C1301 C1300 1.355 . S
C1301 C1303 1.419 . S
C1302 C1300 1.415 . S
C1302 C1307 1.425 . S
C1302 C1309 1.409 . S
C1303 H1295 0.930 . S
C1303 C1301 1.419 . S
C1303 C1304 1.362 . S
C1304 H1296 0.930 . S
C1304 C1303 1.362 . S
C1304 C1307 1.409 . S
C1305 H1297 0.930 . S
C1305 C1306 1.355 . S
C1305 C1307 1.415 . S
C1306 C1305 1.355 . S
C1306 C1308 1.419 . S
C1307 C1302 1.425 . S
C1307 C1304 1.409 . S
C1307 C1305 1.415 . S
C1308 H1298 0.930 . S
C1308 C1306 1.419 . S
C1308 C1309 1.362 . S
C1309 H1299 0.930 . S
C1309 C1302 1.409 . S
C1309 C1308 1.362 . S
H1310 C1316 0.930 . S
H1311 C1319 0.930 . S
H1312 C1320 0.930 . S
H1313 C1321 0.930 . S
H1314 C1324 0.930 . S
H1315 C1325 0.930 . S
C1316 H1310 0.930 . S
C1316 C1317 1.355 . S
C1316 C1318 1.415 . S
C1317 C1316 1.355 . S
C1317 C1319 1.419 . S
C1318 C1316 1.415 . S
C1318 C1323 1.425 . S
C1318 C1325 1.409 . S
C1319 H1311 0.930 . S
C1319 C1317 1.419 . S
C1319 C1320 1.362 . S
C1320 H1312 0.930 . S
C1320 C1319 1.362 . S
C1320 C1323 1.409 . S
C1321 H1313 0.930 . S
C1321 C1322 1.355 . S
C1321 C1323 1.415 . S
C1322 C1321 1.355 . S
C1322 C1324 1.419 . S
C1323 C1318 1.425 . S
C1323 C1320 1.409 . S
C1323 C1321 1.415 . S
C1324 H1314 0.930 . S
C1324 C1322 1.419 . S
C1324 C1325 1.362 . S
C1325 H1315 0.930 . S
C1325 C1318 1.409 . S
C1325 C1324 1.362 . S
H1326 C1332 0.930 . S
H1327 C1335 0.930 . S
H1328 C1336 0.930 . S
H1329 C1337 0.930 . S
H1330 C1340 0.930 . S
H1331 C1341 0.930 . S
C1332 H1326 0.930 . S
C1332 C1333 1.355 . S
C1332 C1334 1.415 . S
C1333 C1332 1.355 . S
C1333 C1335 1.419 . S
C1334 C1332 1.415 . S
C1334 C1339 1.425 . S
C1334 C1341 1.409 . S
C1335 H1327 0.930 . S
C1335 C1333 1.419 . S
C1335 C1336 1.362 . S
C1336 H1328 0.930 . S
C1336 C1335 1.362 . S
C1336 C1339 1.409 . S
C1337 H1329 0.930 . S
C1337 C1338 1.355 . S
C1337 C1339 1.415 . S
C1338 C1337 1.355 . S
C1338 C1340 1.419 . S
C1339 C1334 1.425 . S
C1339 C1336 1.409 . S
C1339 C1337 1.415 . S
C1340 H1330 0.930 . S
C1340 C1338 1.419 . S
C1340 C1341 1.362 . S
C1341 H1331 0.930 . S
C1341 C1334 1.409 . S
C1341 C1340 1.362 . S
H1342 C1348 0.930 . S
H1343 C1351 0.930 . S
H1344 C1352 0.930 . S
H1345 C1353 0.930 . S
H1346 C1356 0.930 . S
H1347 C1357 0.930 . S
C1348 H1342 0.930 . S
C1348 C1349 1.355 . S
C1348 C1350 1.415 . S
C1349 C1348 1.355 . S
C1349 C1351 1.419 . S
C1350 C1348 1.415 . S
C1350 C1355 1.425 . S
C1350 C1357 1.409 . S
C1351 H1343 0.930 . S
C1351 C1349 1.419 . S
C1351 C1352 1.362 . S
C1352 H1344 0.930 . S
C1352 C1351 1.362 . S
C1352 C1355 1.409 . S
C1353 H1345 0.930 . S
C1353 C1354 1.355 . S
C1353 C1355 1.415 . S
C1354 C1353 1.355 . S
C1354 C1356 1.419 . S
C1355 C1350 1.425 . S
C1355 C1352 1.409 . S
C1355 C1353 1.415 . S
C1356 H1346 0.930 . S
C1356 C1354 1.419 . S
C1356 C1357 1.362 . S
C1357 H1347 0.930 . S
C1357 C1350 1.409 . S
C1357 C1356 1.362 . S
H1358 C1364 0.930 . S
H1359 C1367 0.930 . S
H1360 C1368 0.930 . S
H1361 C1369 0.930 . S
H1362 C1372 0.930 . S
H1363 C1373 0.930 . S
C1364 H1358 0.930 . S
C1364 C1365 1.355 . S
C1364 C1366 1.415 . S
C1365 C1364 1.355 . S
C1365 C1367 1.419 . S
C1366 C1364 1.415 . S
C1366 C1371 1.425 . S
C1366 C1373 1.409 . S
C1367 H1359 0.930 . S
C1367 C1365 1.419 . S
C1367 C1368 1.362 . S
C1368 H1360 0.930 . S
C1368 C1367 1.362 . S
C1368 C1371 1.409 . S
C1369 H1361 0.930 . S
C1369 C1370 1.355 . S
C1369 C1371 1.415 . S
C1370 C1369 1.355 . S
C1370 C1372 1.419 . S
C1371 C1366 1.425 . S
C1371 C1368 1.409 . S
C1371 C1369 1.415 . S
C1372 H1362 0.930 . S
C1372 C1370 1.419 . S
C1372 C1373 1.362 . S
C1373 H1363 0.930 . S
C1373 C1366 1.409 . S
C1373 C1372 1.362 . S
H1374 C1380 0.930 . S
H1375 C1383 0.930 . S
H1376 C1384 0.930 . S
H1377 C1385 0.930 . S
H1378 C1388 0.930 . S
H1379 C1389 0.930 . S
C1380 H1374 0.930 . S
C1380 C1381 1.355 . S
C1380 C1382 1.415 . S
C1381 C1380 1.355 . S
C1381 C1383 1.419 . S
C1382 C1380 1.415 . S
C1382 C1387 1.425 . S
C1382 C1389 1.409 . S
C1383 H1375 0.930 . S
C1383 C1381 1.419 . S
C1383 C1384 1.362 . S
C1384 H1376 0.930 . S
C1384 C1383 1.362 . S
C1384 C1387 1.409 . S
C1385 H1377 0.930 . S
C1385 C1386 1.355 . S
C1385 C1387 1.415 . S
C1386 C1385 1.355 . S
C1386 C1388 1.419 . S
C1387 C1382 1.425 . S
C1387 C1384 1.409 . S
C1387 C1385 1.415 . S
C1388 H1378 0.930 . S
C1388 C1386 1.419 . S
C1388 C1389 1.362 . S
C1389 H1379 0.930 . S
C1389 C1382 1.409 . S
C1389 C1388 1.362 . S
H1390 C1396 0.930 . S
H1391 C1399 0.930 . S
H1392 C1400 0.930 . S
H1393 C1401 0.930 . S
H1394 C1404 0.930 . S
H1395 C1405 0.930 . S
C1396 H1390 0.930 . S
C1396 C1397 1.355 . S
C1396 C1398 1.415 . S
C1397 C1396 1.355 . S
C1397 C1399 1.419 . S
C1398 C1396 1.415 . S
C1398 C1403 1.425 . S
C1398 C1405 1.409 . S
C1399 H1391 0.930 . S
C1399 C1397 1.419 . S
C1399 C1400 1.362 . S
C1400 H1392 0.930 . S
C1400 C1399 1.362 . S
C1400 C1403 1.409 . S
C1401 H1393 0.930 . S
C1401 C1402 1.355 . S
C1401 C1403 1.415 . S
C1402 C1401 1.355 . S
C1402 C1404 1.419 . S
C1403 C1398 1.425 . S
C1403 C1400 1.409 . S
C1403 C1401 1.415 . S
C1404 H1394 0.930 . S
C1404 C1402 1.419 . S
C1404 C1405 1.362 . S
C1405 H1395 0.930 . S
C1405 C1398 1.409 . S
C1405 C1404 1.362 . S
H1406 C1412 0.930 . S
H1407 C1415 0.930 . S
H1408 C1416 0.930 . S
H1409 C1417 0.930 . S
H1410 C1420 0.930 . S
H1411 C1421 0.930 . S
C1412 H1406 0.930 . S
C1412 C1413 1.355 . S
C1412 C1414 1.415 . S
C1413 C1412 1.355 . S
C1413 C1415 1.419 . S
C1414 C1412 1.415 . S
C1414 C1419 1.425 . S
C1414 C1421 1.409 . S
C1415 H1407 0.930 . S
C1415 C1413 1.419 . S
C1415 C1416 1.362 . S
C1416 H1408 0.930 . S
C1416 C1415 1.362 . S
C1416 C1419 1.409 . S
C1417 H1409 0.930 . S
C1417 C1418 1.355 . S
C1417 C1419 1.415 . S
C1418 C1417 1.355 . S
C1418 C1420 1.419 . S
C1419 C1414 1.425 . S
C1419 C1416 1.409 . S
C1419 C1417 1.415 . S
C1420 H1410 0.930 . S
C1420 C1418 1.419 . S
C1420 C1421 1.362 . S
C1421 H1411 0.930 . S
C1421 C1414 1.409 . S
C1421 C1420 1.362 . S
C565 C147 1.655 . S
C570 C201 1.668 . S
C581 C158 1.772 . S
C586 C241 1.764 . S
C597 C136 1.567 . S
C602 C293 1.574 . S
C613 C125 1.481 . S
C618 C253 1.473 1_556 S
C634 C281 1.509 . S
C629 C103 1.504 . S
C645 C114 1.363 . S
C650 C213 1.383 1_556 S
C666 C220 1.645 . S
C661 C131 1.620 . S
C682 C260 1.647 . S
C677 C109 1.637 . S
C693 C120 1.676 . S
C698 C280 1.692 1_556 S
C709 C153 1.520 . S
C714 C240 1.518 . S
C725 C164 1.467 . S
C730 C300 1.475 . S
C746 C200 1.512 . S
C741 C142 1.494 . S
C762 C321 1.668 . S
C757 C15 1.654 . S
C773 C26 1.767 . S
C778 C361 1.759 . S
C789 C4 1.579 . S
C794 C413 1.590 . S
C805 C191 1.484 . S
C810 C373 1.444 . S
C821 C169 1.506 . S
C826 C401 1.510 . S
C837 C180 1.357 . S
C842 C333 1.375 . S
C853 C197 1.670 . S
C858 C340 1.681 . S
C869 C175 1.634 . S
C874 C380 1.649 . S
C890 C400 1.691 . S
C885 C186 1.662 . S
C901 C21 1.490 . S
C906 C360 1.493 . S
C922 C420 1.480 . S
C917 C32 1.490 . S
C933 C10 1.472 . S
C938 C320 1.501 . S
C954 C441 1.665 . S
C949 C81 1.662 . S
C965 C92 1.762 . S
C970 C481 1.755 . S
C986 C533 1.551 . S
C981 C70 1.569 . S
C1002 C493 1.466 . S
C997 C59 1.468 . S
C1018 C521 1.505 . S
C1013 C37 1.508 . S
C1029 C48 1.392 . S
C1034 C453 1.371 . S
C1045 C65 1.636 . S
C1050 C460 1.651 . S
C1061 C43 1.646 . S
C1066 C500 1.659 . S
C1082 C520 1.645 . S
C1077 C54 1.621 . S
C1093 C87 1.506 . S
C1098 C480 1.527 . S
C1109 C98 1.472 . S
C1114 C540 1.478 . S
C1125 C76 1.488 . S
C1130 C440 1.510 . S
C1141 C170 1.505 . S
C1146 C224 1.471 . S
C1162 C264 1.905 . S
C1157 C181 1.937 . S
C1173 C192 1.555 . S
C1178 C287 1.578 . S
C1189 C71 1.768 . S
C1194 C247 1.762 . S
C1205 C82 1.664 . S
C1210 C304 1.641 . S
C1226 C207 1.340 . S
C1221 C93 1.311 . S
C1237 C38 1.505 . S
C1242 C344 1.468 . S
C1253 C49 1.899 . S
C1258 C384 1.852 . S
C1269 C60 1.562 . S
C1274 C407 1.579 . S
C1285 C137 1.755 . S
C1290 C367 1.736 . S
C1306 C424 1.642 . S
C1301 C148 1.664 . S
C1317 C159 1.342 . S
C1322 C327 1.331 . S
C1333 C104 1.521 . S
C1338 C464 1.484 . S
C1349 C115 1.933 . S
C1354 C504 1.901 . S
C1370 C527 1.551 . S
C1365 C126 1.529 . S
C1381 C5 1.759 . S
C1386 C487 1.741 . S
C1397 C16 1.656 . S
C1402 C544 1.629 . S
C1413 C27 1.319 . S
C1418 C447 1.339 . S
