# Generated by pormake.
# Topology pyr, (3,6)-cn, num edge types: 1
# Building blocks:
#     Node 0, Type 0, BuildingBlock: KAKCAD_clean_linker_0, # of connection points: 3
#     Node 1, Type 0, BuildingBlock: KAKCAD_clean_linker_0, # of connection points: 3
#     Node 2, Type 0, BuildingBlock: KAKCAD_clean_linker_0, # of connection points: 3
#     Node 3, Type 0, BuildingBlock: KAKCAD_clean_linker_0, # of connection points: 3
#     Node 4, Type 0, BuildingBlock: KAKCAD_clean_linker_0, # of connection points: 3
#     Node 5, Type 0, BuildingBlock: KAKCAD_clean_linker_0, # of connection points: 3
#     Node 6, Type 0, BuildingBlock: KAKCAD_clean_linker_0, # of connection points: 3
#     Node 7, Type 0, BuildingBlock: KAKCAD_clean_linker_0, # of connection points: 3
#     Node 8, Type 1, BuildingBlock: INOVEN_clean_sbu_0, # of connection points: 6
#     Node 9, Type 1, BuildingBlock: INOVEN_clean_sbu_0, # of connection points: 6
#     Node 10, Type 1, BuildingBlock: INOVEN_clean_sbu_0, # of connection points: 6
#     Node 11, Type 1, BuildingBlock: INOVEN_clean_sbu_0, # of connection points: 6
#     Edge 12, Type (0, 1), BuildingBlock: AJUNOK_clean_linker_0, # of connection points: 2
#     Edge 13, Type (0, 1), BuildingBlock: AJUNOK_clean_linker_0, # of connection points: 2
#     Edge 14, Type (0, 1), BuildingBlock: AJUNOK_clean_linker_0, # of connection points: 2
#     Edge 15, Type (0, 1), BuildingBlock: AJUNOK_clean_linker_0, # of connection points: 2
#     Edge 16, Type (0, 1), BuildingBlock: AJUNOK_clean_linker_0, # of connection points: 2
#     Edge 17, Type (0, 1), BuildingBlock: AJUNOK_clean_linker_0, # of connection points: 2
#     Edge 18, Type (0, 1), BuildingBlock: AJUNOK_clean_linker_0, # of connection points: 2
#     Edge 19, Type (0, 1), BuildingBlock: AJUNOK_clean_linker_0, # of connection points: 2
#     Edge 20, Type (0, 1), BuildingBlock: AJUNOK_clean_linker_0, # of connection points: 2
#     Edge 21, Type (0, 1), BuildingBlock: AJUNOK_clean_linker_0, # of connection points: 2
#     Edge 22, Type (0, 1), BuildingBlock: AJUNOK_clean_linker_0, # of connection points: 2
#     Edge 23, Type (0, 1), BuildingBlock: AJUNOK_clean_linker_0, # of connection points: 2
#     Edge 24, Type (0, 1), BuildingBlock: AJUNOK_clean_linker_0, # of connection points: 2
#     Edge 25, Type (0, 1), BuildingBlock: AJUNOK_clean_linker_0, # of connection points: 2
#     Edge 26, Type (0, 1), BuildingBlock: AJUNOK_clean_linker_0, # of connection points: 2
#     Edge 27, Type (0, 1), BuildingBlock: AJUNOK_clean_linker_0, # of connection points: 2
#     Edge 28, Type (0, 1), BuildingBlock: AJUNOK_clean_linker_0, # of connection points: 2
#     Edge 29, Type (0, 1), BuildingBlock: AJUNOK_clean_linker_0, # of connection points: 2
#     Edge 30, Type (0, 1), BuildingBlock: AJUNOK_clean_linker_0, # of connection points: 2
#     Edge 31, Type (0, 1), BuildingBlock: AJUNOK_clean_linker_0, # of connection points: 2
#     Edge 32, Type (0, 1), BuildingBlock: AJUNOK_clean_linker_0, # of connection points: 2
#     Edge 33, Type (0, 1), BuildingBlock: AJUNOK_clean_linker_0, # of connection points: 2
#     Edge 34, Type (0, 1), BuildingBlock: AJUNOK_clean_linker_0, # of connection points: 2
#     Edge 35, Type (0, 1), BuildingBlock: AJUNOK_clean_linker_0, # of connection points: 2
# Relax obj value: 0.127
# Max RMSD: 0.139
# Mean RMSD: 0.064
data_MOF--net-pyr--node1-INOVEN_clean_sbu_0--node2-KAKCAD_clean_linker_0--edge1-AJUNOK_clean_linker_0
_symmetry_space_group_name_H-M    P1
_symmetry_Int_Tables_number       1
_symmetry_cell_setting            triclinic
loop_
_symmetry_equiv_pos_as_xyz
'x, y, z'
_cell_length_a     37.194252
_cell_length_b     38.02264
_cell_length_c     33.433107
_cell_angle_alpha  90.285782
_cell_angle_beta   87.660616
_cell_angle_gamma 102.93783
loop_
_atom_site_label
_atom_site_type_symbol
_atom_site_fract_x
_atom_site_fract_y
_atom_site_fract_z
_atom_type_partial_charge
C0 C 0.27861 0.30011 0.37004 0.0
C1 C 0.29264 0.27804 0.39583 0.0
C2 C 0.30095 0.31907 0.33932 0.0
C3 C 0.33822 0.31696 0.33403 0.0
C4 C 0.35316 0.2979 0.36278 0.0
C5 C 0.33038 0.27807 0.39301 0.0
C6 C 0.35862 0.32886 0.29525 0.0
C7 C 0.3496 0.35649 0.27268 0.0
C8 C 0.35814 0.35969 0.23137 0.0
C9 C 0.37979 0.33758 0.21337 0.0
C10 C 0.39188 0.31181 0.23623 0.0
C11 C 0.381 0.30758 0.27697 0.0
C12 C 0.41071 0.28513 0.2171 0.0
C13 C 0.39676 0.26672 0.18253 0.0
C14 C 0.43985 0.27474 0.23601 0.0
C15 C 0.4535 0.24542 0.22179 0.0
C16 C 0.43803 0.22578 0.18865 0.0
C17 C 0.33718 0.38004 0.20694 0.0
C18 C 0.31545 0.36212 0.17638 0.0
C19 C 0.33237 0.41413 0.21937 0.0
C20 C 0.30407 0.42835 0.2043 0.0
C21 C 0.27991 0.40859 0.1768 0.0
C22 C 0.28704 0.37625 0.16149 0.0
C23 C 0.41029 0.23732 0.16845 0.0
H24 H 0.24942 0.3 0.37116 0.0
H25 H 0.28774 0.33261 0.31781 0.0
H26 H 0.38188 0.29635 0.36045 0.0
H27 H 0.34173 0.26115 0.4127 0.0
H28 H 0.33239 0.37313 0.28632 0.0
H29 H 0.38706 0.28518 0.29323 0.0
H30 H 0.38592 0.33945 0.18137 0.0
H31 H 0.37409 0.27383 0.16753 0.0
H32 H 0.45123 0.28859 0.26261 0.0
H33 H 0.47506 0.23717 0.2377 0.0
H34 H 0.31818 0.33563 0.16648 0.0
H35 H 0.34894 0.42865 0.24266 0.0
H36 H 0.39841 0.22298 0.14234 0.0
H37 H 0.26894 0.36047 0.1402 0.0
H38 H 0.29985 0.45388 0.21576 0.0
C39 C 0.21214 0.8432 0.85644 0.0
C40 C 0.24903 0.84004 0.85752 0.0
C41 C 0.19134 0.83139 0.82301 0.0
C42 C 0.20722 0.81666 0.78984 0.0
C43 C 0.24351 0.81174 0.7922 0.0
C44 C 0.26396 0.82298 0.82573 0.0
C45 C 0.18829 0.81043 0.75116 0.0
C46 C 0.16882 0.83527 0.73717 0.0
C47 C 0.15816 0.83445 0.69724 0.0
C48 C 0.16744 0.80852 0.671 0.0
C49 C 0.18631 0.78314 0.68475 0.0
C50 C 0.19505 0.78334 0.7252 0.0
C51 C 0.20446 0.76176 0.65653 0.0
C52 C 0.20565 0.72616 0.66635 0.0
C53 C 0.22846 0.77975 0.62585 0.0
C54 C 0.25651 0.7644 0.60946 0.0
C55 C 0.26084 0.73093 0.62357 0.0
C56 C 0.14127 0.86343 0.68227 0.0
C57 C 0.11322 0.87459 0.70503 0.0
C58 C 0.15463 0.88161 0.64632 0.0
C59 C 0.1407 0.91073 0.63378 0.0
C60 C 0.1132 0.92229 0.65693 0.0
C61 C 0.09919 0.90364 0.69237 0.0
C62 C 0.2337 0.71084 0.64998 0.0
H63 H 0.20002 0.85669 0.8803 0.0
H64 H 0.16337 0.8352 0.82247 0.0
H65 H 0.25722 0.80126 0.76718 0.0
H66 H 0.29227 0.82005 0.82586 0.0
H67 H 0.16455 0.85718 0.7563 0.0
H68 H 0.21033 0.76425 0.73559 0.0
H69 H 0.16112 0.80876 0.63965 0.0
H70 H 0.18723 0.71162 0.68967 0.0
H71 H 0.22823 0.80723 0.61768 0.0
H72 H 0.27679 0.78008 0.58853 0.0
H73 H 0.10228 0.86093 0.73275 0.0
H74 H 0.17653 0.87394 0.62837 0.0
H75 H 0.23629 0.68485 0.66113 0.0
H76 H 0.07781 0.91193 0.7106 0.0
H77 H 0.15143 0.92422 0.6059 0.0
C78 C 0.77271 0.47335 0.9653 0.0
C79 C 0.8012 0.45517 0.97132 0.0
C80 C 0.74063 0.45633 0.94597 0.0
C81 C 0.73582 0.42044 0.93277 0.0
C82 C 0.76413 0.40219 0.93902 0.0
C83 C 0.79637 0.41933 0.95787 0.0
C84 C 0.70091 0.40159 0.91393 0.0
C85 C 0.68497 0.41859 0.88404 0.0
C86 C 0.65185 0.40088 0.86641 0.0
C87 C 0.63427 0.36592 0.88028 0.0
C88 C 0.64986 0.34856 0.91003 0.0
C89 C 0.68325 0.3664 0.92623 0.0
C90 C 0.63092 0.31217 0.92547 0.0
C91 C 0.59792 0.30758 0.94868 0.0
C92 C 0.6467 0.28222 0.91899 0.0
C93 C 0.62963 0.24824 0.93514 0.0
C94 C 0.59687 0.24358 0.95926 0.0
C95 C 0.63606 0.41862 0.83322 0.0
C96 C 0.63704 0.45591 0.83377 0.0
C97 C 0.6203 0.3985 0.80026 0.0
C98 C 0.60637 0.41513 0.76875 0.0
C99 C 0.60772 0.45244 0.76914 0.0
C100 C 0.62295 0.4725 0.80232 0.0
C101 C 0.58132 0.27389 0.96564 0.0
H102 H 0.77484 0.50058 0.97617 0.0
H103 H 0.71914 0.47098 0.94227 0.0
H104 H 0.7615 0.37464 0.92898 0.0
H105 H 0.81774 0.40453 0.96156 0.0
H106 H 0.69907 0.44526 0.87368 0.0
H107 H 0.69488 0.35317 0.94954 0.0
H108 H 0.60836 0.35212 0.86806 0.0
H109 H 0.58543 0.33034 0.95452 0.0
H110 H 0.67216 0.28508 0.90112 0.0
H111 H 0.64195 0.22562 0.9282 0.0
H112 H 0.64846 0.47234 0.85873 0.0
H113 H 0.61921 0.36984 0.7984 0.0
H114 H 0.55643 0.27177 0.98429 0.0
H115 H 0.6244 0.50125 0.80374 0.0
H116 H 0.59422 0.39862 0.74416 0.0
C117 C 0.88833 0.64162 0.27112 0.0
C118 C 0.9256 0.63967 0.2718 0.0
C119 C 0.87235 0.65926 0.30172 0.0
C120 C 0.89339 0.67609 0.33344 0.0
C121 C 0.93086 0.6746 0.33383 0.0
C122 C 0.94665 0.65619 0.30363 0.0
C123 C 0.87584 0.69456 0.36607 0.0
C124 C 0.84247 0.67638 0.38549 0.0
C125 C 0.82428 0.69356 0.41504 0.0
C126 C 0.83985 0.72998 0.42395 0.0
C127 C 0.8736 0.74846 0.40594 0.0
C128 C 0.89173 0.73034 0.37736 0.0
C129 C 0.88956 0.78658 0.41795 0.0
C130 C 0.86774 0.81248 0.41858 0.0
C131 C 0.92555 0.79666 0.43197 0.0
C132 C 0.93877 0.83126 0.44782 0.0
C133 C 0.91656 0.8568 0.44933 0.0
C134 C 0.78931 0.67383 0.43689 0.0
C135 C 0.76387 0.6458 0.41865 0.0
C136 C 0.78084 0.68312 0.47651 0.0
C137 C 0.74758 0.66638 0.49637 0.0
C138 C 0.72181 0.63902 0.47786 0.0
C139 C 0.73094 0.62837 0.43901 0.0
C140 C 0.88121 0.84726 0.4337 0.0
H141 H 0.87137 0.629 0.24712 0.0
H142 H 0.84348 0.66003 0.30039 0.0
H143 H 0.94777 0.68709 0.35791 0.0
H144 H 0.97543 0.6551 0.30494 0.0
H145 H 0.83132 0.64844 0.37803 0.0
H146 H 0.91748 0.7445 0.36291 0.0
H147 H 0.82588 0.74429 0.4454 0.0
H148 H 0.83993 0.80561 0.40791 0.0
H149 H 0.94294 0.77731 0.43216 0.0
H150 H 0.96622 0.83793 0.45945 0.0
H151 H 0.76888 0.63758 0.3883 0.0
H152 H 0.79986 0.70349 0.49257 0.0
H153 H 0.86347 0.86632 0.4345 0.0
H154 H 0.71264 0.60654 0.42411 0.0
H155 H 0.74183 0.67549 0.5262 0.0
C156 C 0.72492 0.77548 0.74356 0.0
C157 C 0.73234 0.81192 0.73215 0.0
C158 C 0.69999 0.76307 0.77566 0.0
C159 C 0.68295 0.78719 0.79751 0.0
C160 C 0.68798 0.82281 0.78324 0.0
C161 C 0.71212 0.83487 0.75081 0.0
C162 C 0.66607 0.77792 0.83848 0.0
C163 C 0.68185 0.75692 0.864 0.0
C164 C 0.67319 0.75504 0.90536 0.0
C165 C 0.64892 0.7755 0.92148 0.0
C166 C 0.63286 0.79687 0.8964 0.0
C167 C 0.63978 0.79586 0.8548 0.0
C168 C 0.61382 0.82446 0.9135 0.0
C169 C 0.5905 0.81753 0.94809 0.0
C170 C 0.62105 0.85921 0.89631 0.0
C171 C 0.60559 0.88628 0.9132 0.0
C172 C 0.58273 0.87957 0.94798 0.0
C173 C 0.6943 0.73592 0.93134 0.0
C174 C 0.7032 0.70362 0.91815 0.0
C175 C 0.71026 0.75227 0.96615 0.0
C176 C 0.73665 0.73812 0.9854 0.0
C177 C 0.74789 0.70758 0.97003 0.0
C178 C 0.73004 0.68993 0.93685 0.0
C179 C 0.57515 0.84485 0.96521 0.0
H180 H 0.73994 0.75721 0.72923 0.0
H181 H 0.69599 0.73518 0.78493 0.0
H182 H 0.67606 0.8426 0.7991 0.0
H183 H 0.71755 0.86321 0.7428 0.0
H184 H 0.7036 0.74451 0.85236 0.0
H185 H 0.62662 0.81141 0.83532 0.0
H186 H 0.64412 0.77624 0.95361 0.0
H187 H 0.58438 0.79114 0.96213 0.0
H188 H 0.63965 0.86601 0.87033 0.0
H189 H 0.61193 0.91272 0.89924 0.0
H190 H 0.69104 0.69007 0.89173 0.0
H191 H 0.7043 0.7773 0.97704 0.0
H192 H 0.55818 0.83906 0.99251 0.0
H193 H 0.73842 0.66687 0.92352 0.0
H194 H 0.74964 0.75216 1.01115 0.0
C195 C 0.8019 0.24068 0.30327 0.0
C196 C 0.7891 0.25978 0.27318 0.0
C197 C 0.82763 0.25857 0.32976 0.0
C198 C 0.84142 0.29606 0.3267 0.0
C199 C 0.82995 0.31498 0.29528 0.0
C200 C 0.80397 0.29695 0.26868 0.0
C201 C 0.86373 0.31538 0.3593 0.0
C202 C 0.88915 0.2995 0.37826 0.0
C203 C 0.90319 0.31231 0.41527 0.0
C204 C 0.89307 0.34286 0.43226 0.0
C205 C 0.86859 0.35987 0.41293 0.0
C206 C 0.85448 0.3461 0.37627 0.0
C207 C 0.85186 0.38739 0.43359 0.0
C208 C 0.83739 0.38126 0.47308 0.0
C209 C 0.8438 0.41595 0.41166 0.0
C210 C 0.81854 0.43522 0.42714 0.0
C211 C 0.80116 0.42654 0.46502 0.0
C212 C 0.92274 0.28968 0.43866 0.0
C213 C 0.94806 0.2719 0.41959 0.0
C214 C 0.91193 0.28139 0.47891 0.0
C215 C 0.92444 0.25453 0.49887 0.0
C216 C 0.94815 0.23543 0.47912 0.0
C217 C 0.96049 0.2449 0.43957 0.0
C218 C 0.81226 0.40067 0.48863 0.0
H219 H 0.79108 0.21192 0.3071 0.0
H220 H 0.83514 0.24315 0.35396 0.0
H221 H 0.84018 0.34386 0.29208 0.0
H222 H 0.79439 0.31225 0.24575 0.0
H223 H 0.89557 0.27519 0.36573 0.0
H224 H 0.83329 0.35716 0.36297 0.0
H225 H 0.90301 0.35249 0.46124 0.0
H226 H 0.84284 0.35935 0.49071 0.0
H227 H 0.85482 0.4215 0.38127 0.0
H228 H 0.81031 0.45468 0.40799 0.0
H229 H 0.95713 0.27787 0.38867 0.0
H230 H 0.8919 0.29394 0.49429 0.0
H231 H 0.79946 0.39362 0.51806 0.0
H232 H 0.97894 0.23073 0.42376 0.0
H233 H 0.91388 0.24735 0.52911 0.0
C234 C 0.21631 0.65319 0.22987 0.0
C235 C 0.21537 0.64775 0.18823 0.0
C236 C 0.24971 0.6682 0.24792 0.0
C237 C 0.28266 0.67873 0.22455 0.0
C238 C 0.28167 0.67291 0.18298 0.0
C239 C 0.24849 0.65724 0.16509 0.0
C240 C 0.31766 0.69761 0.2428 0.0
C241 C 0.33206 0.68248 0.2752 0.0
C242 C 0.36585 0.70006 0.29147 0.0
C243 C 0.38467 0.73374 0.27501 0.0
C244 C 0.37035 0.74962 0.24286 0.0
C245 C 0.33686 0.73105 0.22714 0.0
C246 C 0.38967 0.78565 0.22554 0.0
C247 C 0.40745 0.81393 0.2501 0.0
C248 C 0.3893 0.7925 0.18413 0.0
C249 C 0.40535 0.82662 0.16798 0.0
C250 C 0.42253 0.85495 0.19263 0.0
C251 C 0.38165 0.6829 0.32509 0.0
C252 C 0.35867 0.66456 0.35651 0.0
C253 C 0.41977 0.68408 0.32575 0.0
C254 C 0.43437 0.66736 0.3567 0.0
C255 C 0.4114 0.64922 0.38817 0.0
C256 C 0.37331 0.648 0.38755 0.0
C257 C 0.4238 0.84805 0.23382 0.0
H258 H 0.19118 0.64586 0.2484 0.0
H259 H 0.24963 0.67256 0.27996 0.0
H260 H 0.30665 0.68066 0.16425 0.0
H261 H 0.24853 0.6533 0.13298 0.0
H262 H 0.31746 0.6564 0.28679 0.0
H263 H 0.32496 0.74303 0.20307 0.0
H264 H 0.41052 0.74759 0.28726 0.0
H265 H 0.40807 0.81001 0.28209 0.0
H266 H 0.37679 0.77134 0.16393 0.0
H267 H 0.40481 0.83068 0.13599 0.0
H268 H 0.32925 0.66318 0.35734 0.0
H269 H 0.43836 0.69743 0.30193 0.0
H270 H 0.43698 0.86928 0.2536 0.0
H271 H 0.35464 0.63378 0.41083 0.0
H272 H 0.46381 0.66885 0.35615 0.0
C273 C 0.1421 0.26305 0.70279 0.0
C274 C 0.10377 0.25325 0.6987 0.0
C275 C 0.15859 0.29597 0.72015 0.0
C276 C 0.13733 0.32051 0.73342 0.0
C277 C 0.09865 0.31001 0.73072 0.0
C278 C 0.08206 0.27665 0.71369 0.0
C279 C 0.15607 0.3573 0.74802 0.0
C280 C 0.18994 0.37517 0.72964 0.0
C281 C 0.20986 0.40863 0.74349 0.0
C282 C 0.19443 0.42513 0.77574 0.0
C283 C 0.15989 0.40859 0.79412 0.0
C284 C 0.141 0.37458 0.77997 0.0
C285 C 0.14384 0.42691 0.82818 0.0
C286 C 0.16636 0.44463 0.85838 0.0
C287 C 0.10609 0.42759 0.83043 0.0
C288 C 0.09157 0.44628 0.86127 0.0
C289 C 0.11433 0.46479 0.89086 0.0
C290 C 0.24677 0.42568 0.72394 0.0
C291 C 0.27056 0.40394 0.70947 0.0
C292 C 0.25823 0.46334 0.71829 0.0
C293 C 0.29194 0.47854 0.69787 0.0
C294 C 0.3148 0.45644 0.68232 0.0
C295 C 0.30381 0.41905 0.68868 0.0
C296 C 0.1518 0.46307 0.88933 0.0
H297 H 0.15946 0.24532 0.69203 0.0
H298 H 0.18827 0.30235 0.72271 0.0
H299 H 0.08129 0.32805 0.74042 0.0
H300 H 0.0524 0.26974 0.71086 0.0
H301 H 0.20065 0.3631 0.70369 0.0
H302 H 0.11511 0.36112 0.79465 0.0
H303 H 0.20931 0.45096 0.7866 0.0
H304 H 0.19534 0.44408 0.85828 0.0
H305 H 0.08788 0.41447 0.80768 0.0
H306 H 0.06263 0.447 0.86135 0.0
H307 H 0.26351 0.375 0.71408 0.0
H308 H 0.24073 0.48106 0.72858 0.0
H309 H 0.17001 0.47592 0.9122 0.0
H310 H 0.32107 0.40137 0.6775 0.0
H311 H 0.29961 0.50747 0.69319 0.0
Gd312 Gd 0.02705 0.07239 0.53276 0.0
Gd313 Gd 0.97514 1.05005 0.60428 0.0
C314 C 0.03945 0.12043 0.61285 0.0
C315 C 0.06354 0.09676 0.46791 0.0
C316 C 0.10013 0.12054 0.46179 0.0
C317 C 0.1151 0.12909 0.42307 0.0
C318 C 0.12006 0.13534 0.49497 0.0
C319 C 0.169 0.16855 0.45071 0.0
C320 C 0.1542 0.15943 0.48948 0.0
C321 C 0.14948 0.15286 0.41755 0.0
C322 C 0.05389 1.03672 0.59039 0.0
C323 C 0.96685 0.99744 0.52597 0.0
C324 C 0.93008 1.01884 0.66045 0.0
C325 C 0.90591 0.98309 0.66768 0.0
C326 C 0.86975 0.98148 0.68216 0.0
C327 C 0.91673 0.95106 0.65693 0.0
C328 C 0.85475 0.91646 0.67391 0.0
C329 C 0.89126 0.91779 0.66031 0.0
C330 C 0.84439 0.94853 0.68516 0.0
C331 C 0.96299 0.10619 0.56176 0.0
O332 O 0.04155 0.12082 0.57321 0.0
O333 O 0.01993 0.09188 0.63274 0.0
O334 O 0.0633 0.06491 0.48276 0.0
O335 O 0.03861 0.11198 0.4851 0.0
O336 O 0.07365 0.06357 0.56994 0.0
O337 O 0.0215 1.02966 0.57847 0.0
O338 O 0.95735 1.00174 0.56395 0.0
O339 O 0.99104 1.02268 0.50601 0.0
O340 O 0.92023 1.03678 0.63108 0.0
O341 O 0.96594 1.02192 0.66139 0.0
O342 O 0.96019 0.10391 0.60033 0.0
O343 O 0.97064 0.07796 0.54719 0.0
H344 H 0.10005 0.11776 0.39721 0.0
H345 H 0.10897 0.12849 0.52508 0.0
H346 H 0.16897 0.17105 0.51539 0.0
H347 H 0.16042 0.15976 0.38736 0.0
H348 H 0.86086 1.00591 0.69036 0.0
H349 H 0.94452 0.95182 0.6454 0.0
H350 H 0.89983 0.8933 0.65179 0.0
H351 H 0.81657 0.94807 0.69647 0.0
Gd352 Gd 0.54409 1.0555 0.09413 0.0
Gd353 Gd 0.47281 1.04278 1.05784 0.0
C354 C 0.48414 0.09887 0.12729 0.0
C355 C 0.60713 0.07711 0.12662 0.0
C356 C 0.63099 0.10809 0.14553 0.0
C357 C 0.65223 0.10124 0.17692 0.0
C358 C 0.63324 0.14382 0.13315 0.0
C359 C 0.67825 0.16532 0.18352 0.0
C360 C 0.65705 0.17237 0.15193 0.0
C361 C 0.67556 0.12957 0.19585 0.0
C362 C 0.49915 0.99193 0.11878 0.0
C363 C 0.53217 0.99847 1.02543 0.0
C364 C 0.40946 1.01983 1.02639 0.0
C365 C 0.38694 0.98631 1.01071 0.0
C366 C 0.40327 0.9615 0.98969 0.0
C367 C 0.3484 0.98042 1.01421 0.0
C368 C 0.34265 0.92747 0.97192 0.0
C369 C 0.32636 0.95123 0.9949 0.0
C370 C 0.38127 0.93226 0.97045 0.0
C371 C 0.518 0.10617 1.03283 0.0
O372 O 0.5196 0.10031 0.12029 0.0
O373 O 0.45917 0.0734 0.11112 0.0
O374 O 0.57686 0.06196 0.14677 0.0
O375 O 0.60275 0.07881 0.08815 0.0
O376 O 0.53434 0.99722 0.11204 0.0
O377 O 0.48886 1.02121 0.11409 0.0
O378 O 0.49684 0.99764 1.03222 0.0
O379 O 0.55754 1.02386 1.04133 0.0
O380 O 0.43972 1.03416 1.00566 0.0
O381 O 0.41368 1.02128 1.06498 0.0
O382 O 0.48288 0.10107 1.04017 0.0
O383 O 0.52814 0.07679 1.03753 0.0
H384 H 0.65081 0.07383 0.1868 0.0
H385 H 0.61666 0.1496 0.1092 0.0
H386 H 0.65858 0.19982 0.14223 0.0
H387 H 0.69185 0.12354 0.21998 0.0
H388 H 0.43299 0.96563 0.98663 0.0
H389 H 0.33539 0.99935 1.03035 0.0
H390 H 0.29673 0.94858 0.99594 0.0
H391 H 0.39448 0.91428 0.95294 0.0
Gd392 Gd 0.51951 0.52171 0.54683 0.0
Gd393 Gd 0.51362 0.58533 0.6044 0.0
C394 C 0.54673 0.52256 0.63901 0.0
C395 C 0.55019 0.48291 0.49873 0.0
C396 C 0.58815 0.47814 0.494 0.0
C397 C 0.59607 0.45114 0.46885 0.0
C398 C 0.61635 0.49947 0.51596 0.0
C399 C 0.66008 0.46616 0.48819 0.0
C400 C 0.65215 0.49361 0.51298 0.0
C401 C 0.63177 0.44514 0.46599 0.0
C402 C 0.45304 0.50532 0.58839 0.0
C403 C 0.4776 0.58022 0.51482 0.0
C404 C 0.49194 0.63654 0.64204 0.0
C405 C 0.4592 0.65216 0.63808 0.0
C406 C 0.46268 0.6854 0.61841 0.0
C407 C 0.42396 0.63331 0.65189 0.0
C408 C 0.39638 0.68031 0.62597 0.0
C409 C 0.39293 0.64722 0.64588 0.0
C410 C 0.43156 0.69925 0.61221 0.0
C411 C 0.58067 0.58903 0.56693 0.0
O412 O 0.55254 0.51436 0.60096 0.0
O413 O 0.52718 0.54665 0.64883 0.0
O414 O 0.53282 0.47049 0.53234 0.0
O415 O 0.5453 0.51477 0.489 0.0
O416 O 0.46277 0.48515 0.56035 0.0
O417 O 0.47845 0.53326 0.59074 0.0
O418 O 0.47975 0.59414 0.55143 0.0
O419 O 0.49249 0.55273 0.5048 0.0
O420 O 0.51622 0.6424 0.61194 0.0
O421 O 0.48602 0.60352 0.65608 0.0
O422 O 0.57639 0.6001 0.60325 0.0
O423 O 0.54945 0.5783 0.55239 0.0
H424 H 0.57456 0.43438 0.45185 0.0
H425 H 0.61048 0.52016 0.53594 0.0
H426 H 0.67333 0.50983 0.53081 0.0
H427 H 0.63728 0.42391 0.44655 0.0
H428 H 0.48942 0.70046 0.60723 0.0
H429 H 0.42017 0.60763 0.6671 0.0
H430 H 0.36621 0.63222 0.65717 0.0
H431 H 0.43498 0.7245 0.59612 0.0
Gd432 Gd 1.01364 0.51573 0.09127 0.0
Gd433 Gd 1.01112 0.59029 1.053 0.0
C434 C 0.0783 0.58749 0.10814 0.0
C435 C 0.03616 0.45672 0.09922 0.0
C436 C 0.06906 0.44838 0.11624 0.0
C437 C 0.09115 0.47313 0.14142 0.0
C438 C 0.08127 0.41791 0.10288 0.0
C439 C 0.13797 0.4375 0.1386 0.0
C440 C 0.11545 0.41248 0.11397 0.0
C441 C 0.12534 0.46772 0.15255 0.0
C442 C 0.98457 0.55641 0.14664 0.0
C443 C 0.94026 0.52069 1.04703 0.0
C444 C 0.99185 0.64619 1.02482 0.0
C445 C 0.95585 0.65525 1.02024 0.0
C446 C 0.95268 0.6829 0.99407 0.0
C447 C 0.92413 0.63531 1.04058 0.0
C448 C 0.8863 0.6709 1.00902 0.0
C449 C 0.88982 0.64348 1.03565 0.0
C450 C 0.91819 0.69057 0.98835 0.0
C451 C 0.05069 0.54939 1.01126 0.0
O452 O 0.06913 0.5519 0.10447 0.0
O453 O 0.05777 0.60869 0.09432 0.0
O454 O 1.01191 0.46618 0.12418 0.0
O455 O 0.04328 0.47716 1.06731 0.0
O456 O 0.98912 0.52407 0.15342 0.0
O457 O 0.99543 0.56449 0.11087 0.0
O458 O 0.95339 0.55612 1.04545 0.0
O459 O 0.95915 0.49849 1.06204 0.0
O460 O 0.99793 0.6197 1.00239 0.0
O461 O 1.00219 0.64425 1.06157 0.0
O462 O 0.06055 0.58428 1.01402 0.0
O463 O 0.02006 0.53839 1.03002 0.0
H464 H 0.08249 0.4972 0.15142 0.0
H465 H 0.06485 0.39888 0.08288 0.0
H466 H 0.12448 0.3889 0.10297 0.0
H467 H 0.1424 0.48772 0.17102 0.0
H468 H 0.9768 0.69825 0.97768 0.0
H469 H 0.92582 0.61337 1.06032 0.0
H470 H 0.86615 0.62838 1.05286 0.0
H471 H 0.91642 0.71161 0.96728 0.0
C472 C 0.26382 0.21361 0.40889 0.0
C473 C 0.26625 0.25 0.41901 0.0
C474 C 0.23297 0.1869 0.42108 0.0
C475 C 0.20391 0.19567 0.44429 0.0
H476 H 0.28451 0.20614 0.38888 0.0
H477 H 0.23104 0.15949 0.41081 0.0
S478 S 0.19906 0.28622 0.48246 0.0
N479 N 0.23865 0.29296 0.45623 0.0
N480 N 0.18076 0.24251 0.47979 0.0
C481 C 0.20727 0.23144 0.45711 0.0
C482 C 0.23847 0.25872 0.44428 0.0
C483 C 0.30771 0.88134 0.87634 0.0
C484 C 0.2736 0.85889 0.8885 0.0
C485 C 0.33046 0.90213 0.90393 0.0
C486 C 0.31998 0.90145 0.94481 0.0
H487 H 0.31634 0.88399 0.84494 0.0
H488 H 0.35574 0.92007 0.89282 0.0
S489 S 0.23532 0.84451 0.99279 0.0
N490 N 0.23172 0.8351 0.94461 0.0
N491 N 0.27461 0.87464 0.99673 0.0
C492 C 0.28659 0.87825 0.95772 0.0
C493 C 0.26336 0.85689 0.92951 0.0
C494 C 0.56934 0.494 0.74331 0.0
C495 C 0.59299 0.47033 0.73536 0.0
C496 C 0.55475 0.51071 0.71218 0.0
C497 C 0.56324 0.50475 0.67151 0.0
H498 H 0.56154 0.49927 0.77394 0.0
H499 H 0.53639 0.52828 0.72024 0.0
S500 S 0.62611 0.44709 0.63445 0.0
N501 N 0.62569 0.44323 0.68364 0.0
N502 N 0.59844 0.47427 0.62537 0.0
C503 C 0.58738 0.48152 0.66318 0.0
C504 C 0.60213 0.46444 0.69493 0.0
C505 C 0.9555 0.58932 0.24872 0.0
C506 C 0.94212 0.62 0.23957 0.0
C507 C 0.96918 0.56928 0.21841 0.0
C508 C 0.97073 0.57938 0.17767 0.0
H509 H 0.95465 0.58026 0.27948 0.0
H510 H 0.9786 0.54556 0.22709 0.0
S511 S 0.94084 0.6589 0.13845 0.0
N512 N 0.93222 0.66021 0.18718 0.0
N513 N 0.95841 0.62309 0.13054 0.0
C514 C 0.95819 0.61053 0.1684 0.0
C515 C 0.94375 0.63063 0.1992 0.0
C516 C 0.48714 0.19284 0.1682 0.0
C517 C 0.44964 0.19241 0.17608 0.0
C518 C 0.49828 0.16193 0.15417 0.0
C519 C 0.4723 0.12941 0.14772 0.0
H520 H 0.5079 0.21755 0.17169 0.0
H521 H 0.52735 0.16401 0.14704 0.0
S522 S 0.37113 0.11324 0.1694 0.0
N523 N 0.38693 0.15616 0.18035 0.0
N524 N 0.40759 0.09805 0.15413 0.0
C525 C 0.43486 0.12827 0.15751 0.0
C526 C 0.42359 0.15977 0.1716 0.0
C527 C 0.06034 0.94954 0.64056 0.0
C528 C 0.09858 0.95327 0.64357 0.0
C529 C 0.04604 0.97741 0.6249 0.0
C530 C 0.06949 1.01004 0.61176 0.0
H531 H 0.04139 0.92442 0.64905 0.0
H532 H 0.01647 0.97287 0.6219 0.0
S533 S 0.17139 1.03481 0.61798 0.0
N534 N 0.15941 0.99317 0.63567 0.0
N535 N 0.13257 1.04562 0.60605 0.0
C536 C 0.10765 1.01479 0.61649 0.0
C537 C 0.1222 0.98634 0.63234 0.0
C538 C 0.85124 0.45416 1.02005 0.0
C539 C 0.83583 0.47316 0.99161 0.0
C540 C 0.88447 0.46982 1.0383 0.0
C541 C 0.90377 0.50535 1.02921 0.0
H542 H 0.83749 0.42681 1.02835 0.0
H543 H 0.89514 0.45382 1.05965 0.0
S544 S 0.87629 0.56643 0.95547 0.0
N545 N 0.84339 0.52927 0.95435 0.0
N546 N 0.90511 0.55885 0.98892 0.0
C547 C 0.8885 0.52482 1.00106 0.0
C548 C 0.8548 0.50876 0.98228 0.0
C549 C 0.68378 0.61624 0.54078 0.0
C550 C 0.68549 0.62266 0.4991 0.0
C551 C 0.6499 0.60457 0.56225 0.0
C552 C 0.61619 0.59814 0.54297 0.0
H553 H 0.70888 0.62077 0.55723 0.0
H554 H 0.65012 0.60092 0.59435 0.0
S555 S 0.60453 0.6095 0.43444 0.0
N556 N 0.64959 0.62123 0.43953 0.0
N557 N 0.58641 0.59779 0.47961 0.0
C558 C 0.61733 0.60292 0.50119 0.0
C559 C 0.65178 0.61547 0.47935 0.0
C560 C 0.23402 0.41864 0.12754 0.0
C561 C 0.24514 0.41929 0.16731 0.0
C562 C 0.19955 0.42506 0.11848 0.0
C563 C 0.17491 0.43234 0.14884 0.0
H564 H 0.25194 0.41274 0.10329 0.0
H565 H 0.19204 0.42417 0.08746 0.0
S566 S 0.18995 0.43543 0.25785 0.0
N567 N 0.22817 0.42675 0.2374 0.0
N568 N 0.1636 0.43908 0.22022 0.0
C569 C 0.18579 0.43343 0.18864 0.0
C570 C 0.22083 0.42684 0.19791 0.0
C571 C 0.53932 0.19674 0.97863 0.0
C572 C 0.57816 0.20741 0.97702 0.0
C573 C 0.52064 0.16397 0.99631 0.0
C574 C 0.53971 0.13968 1.01265 0.0
H575 H 0.52293 0.21383 0.96603 0.0
H576 H 0.49073 0.15766 0.99704 0.0
S577 S 0.6414 0.15387 1.01654 0.0
N578 N 0.63511 0.1907 0.99455 0.0
N579 N 0.59975 0.12827 1.02555 0.0
C580 C 0.57849 0.14934 1.01053 0.0
C581 C 0.59772 0.18327 0.99325 0.0
C582 C 0.93192 0.9251 0.44781 0.0
C583 C 0.92939 0.89261 0.46901 0.0
C584 C 0.9441 0.95898 0.46618 0.0
C585 C 0.95305 0.96165 0.5068 0.0
H586 H 0.92494 0.9243 0.41663 0.0
H587 H 0.94616 0.98324 0.44858 0.0
S588 S 0.95112 0.88468 0.57542 0.0
N589 N 0.9372 0.86542 0.53267 0.0
N590 N 0.95906 0.92859 0.56729 0.0
C591 C 0.95026 0.92931 0.52831 0.0
C592 C 0.93871 0.89497 0.50942 0.0
C593 C 0.29768 0.68491 0.60603 0.0
C594 C 0.2966 0.72023 0.61769 0.0
C595 C 0.33046 0.67262 0.60724 0.0
C596 C 0.36321 0.69511 0.62051 0.0
H597 H 0.27275 0.66637 0.59708 0.0
H598 H 0.32998 0.64501 0.59863 0.0
S599 S 0.37456 0.78965 0.65511 0.0
N600 N 0.33099 0.77754 0.64287 0.0
N601 N 0.39238 0.75431 0.64557 0.0
C602 C 0.36267 0.73077 0.63122 0.0
C603 C 0.32941 0.74334 0.62974 0.0
C604 C 0.76169 0.85266 0.67629 0.0
C605 C 0.76521 0.82851 0.70679 0.0
C606 C 0.79213 0.87903 0.66236 0.0
C607 C 0.82702 0.88204 0.6785 0.0
H608 H 0.73464 0.85331 0.66584 0.0
H609 H 0.78771 0.89908 0.64131 0.0
S610 S 0.85192 0.82156 0.75391 0.0
N611 N 0.80718 0.80614 0.74876 0.0
N612 N 0.86448 0.85582 0.72238 0.0
C613 C 0.83178 0.85553 0.70555 0.0
C614 C 0.80076 0.82863 0.71976 0.0
C615 C 0.72701 0.21924 0.26804 0.0
C616 C 0.7586 0.24064 0.24867 0.0
C617 C 0.69993 0.19656 0.24633 0.0
C618 C 0.70335 0.19458 0.20445 0.0
H619 H 0.72382 0.21909 0.30041 0.0
H620 H 0.6768 0.17936 0.26254 0.0
S621 S 0.77929 0.24701 0.13923 0.0
N622 N 0.79074 0.26013 0.18509 0.0
N623 N 0.73941 0.21736 0.14406 0.0
C624 C 0.73362 0.21736 0.18444 0.0
C625 C 0.76138 0.24049 0.20664 0.0
C626 C 0.4517 0.60874 0.41205 0.0
C627 C 0.42718 0.63132 0.42113 0.0
C628 C 0.46708 0.59183 0.44237 0.0
C629 C 0.4591 0.59707 0.48332 0.0
H630 H 0.45893 0.60387 0.38113 0.0
H631 H 0.48596 0.575 0.43351 0.0
S632 S 0.39653 0.65377 0.52328 0.0
N633 N 0.39568 0.658 0.47424 0.0
N634 N 0.42445 0.62653 0.53106 0.0
C635 C 0.43452 0.61957 0.49282 0.0
C636 C 0.4186 0.63651 0.46187 0.0
C637 C 0.06496 0.47204 0.94291 0.0
C638 C 0.09915 0.48628 0.92268 0.0
C639 C 0.04986 0.49214 0.9721 0.0
C640 C 0.06817 0.52746 0.98226 0.0
H641 H 0.04969 0.44506 0.93619 0.0
H642 H 0.02329 0.48008 0.98631 0.0
S643 S 0.15806 0.57771 0.93791 0.0
N644 N 0.15044 0.53845 0.91477 0.0
N645 N 0.12252 0.57568 0.96973 0.0
C646 C 0.10245 0.5419 0.96253 0.0
C647 C 0.11781 0.5215 0.93283 0.0
C648 C 0.59287 0.94315 0.97262 0.0
C649 C 0.56858 0.90951 0.96698 0.0
C650 C 0.58066 0.97189 0.99074 0.0
C651 C 0.54359 0.96827 1.00387 0.0
H652 H 0.62181 0.94715 0.96353 0.0
H653 H 0.6006 0.99707 0.99475 0.0
S654 S 0.46865 0.88578 0.99552 0.0
N655 N 0.50554 0.87439 0.97503 0.0
N656 N 0.48261 0.92803 1.01003 0.0
C657 C 0.51888 0.93479 0.99814 0.0
C658 C 0.53139 0.9055 0.9796 0.0
C659 C 0.95091 0.1701 0.47914 0.0
C660 C 0.95706 0.20368 0.4988 0.0
C661 C 0.95419 0.13863 0.49915 0.0
C662 C 0.96333 0.13973 0.53955 0.0
H663 H 0.94198 0.16784 0.44861 0.0
H664 H 0.94809 0.11314 0.48343 0.0
S665 S 0.98837 0.22177 0.60229 0.0
N666 N 0.97744 0.23673 0.55917 0.0
N667 N 0.98272 0.1777 0.59708 0.0
C668 C 0.97153 0.17342 0.55881 0.0
C669 C 0.9686 0.20538 0.53836 0.0
C670 C 0.17556 0.60048 0.14656 0.0
C671 C 0.17996 0.63266 0.16862 0.0
C672 C 0.14258 0.58604 0.12733 0.0
C673 C 0.11302 0.60371 0.1285 0.0
H674 H 0.1977 0.58617 0.14448 0.0
H675 H 0.14043 0.56101 0.11101 0.0
S676 S 0.11084 0.6889 0.1823 0.0
N677 N 0.15201 0.68162 0.19088 0.0
N678 N 0.09043 0.6551 0.15406 0.0
C679 C 0.11724 0.63607 0.1503 0.0
C680 C 0.15055 0.65035 0.17054 0.0
C681 C 0.35484 0.45787 0.61984 0.0
C682 C 0.34945 0.47168 0.6582 0.0
C683 C 0.38803 0.4698 0.59732 0.0
C684 C 0.41737 0.49603 0.61214 0.0
H685 H 0.33325 0.43738 0.60722 0.0
H686 H 0.39086 0.45796 0.56814 0.0
S687 S 0.41836 0.53881 0.71216 0.0
N688 N 0.37673 0.51217 0.71063 0.0
N689 N 0.43932 0.53415 0.66855 0.0
C690 C 0.41236 0.51016 0.65042 0.0
C691 C 0.37837 0.49812 0.67335 0.0
C692 C 0.81319 0.72409 0.99143 0.0
C693 C 0.78125 0.69712 0.98493 0.0
C694 C 0.8466 0.7153 1.00021 0.0
C695 C 0.84967 0.67916 1.00256 0.0
H696 H 0.81286 0.75234 0.9882 0.0
H697 H 0.87041 0.7371 1.00459 0.0
S698 S 0.77368 0.59821 0.99056 0.0
N699 N 0.75414 0.63265 0.98448 0.0
N700 N 0.81741 0.61607 0.99885 0.0
C701 C 0.81769 0.65184 0.99733 0.0
C702 C 0.78346 0.66083 0.98894 0.0
C703 C 0.47725 0.90712 0.18335 0.0
C704 C 0.4404 0.89112 0.17516 0.0
C705 C 0.49554 0.94001 0.16551 0.0
C706 C 0.47757 0.95881 0.13941 0.0
H707 H 0.49247 0.89359 0.20284 0.0
H708 H 0.52419 0.9507 0.17208 0.0
S709 S 0.38097 0.92905 0.10849 0.0
N710 N 0.3864 0.89696 0.13931 0.0
N711 N 0.42079 0.95894 0.10638 0.0
C712 C 0.44055 0.94358 0.13159 0.0
C713 C 0.42201 0.90971 0.14923 0.0
C714 C 0.06102 0.19145 0.69556 0.0
C715 C 0.08717 0.21962 0.6767 0.0
C716 C 0.0464 0.15913 0.67516 0.0
C717 C 0.05692 0.15395 0.63488 0.0
H718 H 0.05213 0.19425 0.72644 0.0
H719 H 0.02628 0.13831 0.69096 0.0
S720 S 0.12357 0.22065 0.57172 0.0
N721 N 0.12243 0.24072 0.61549 0.0
N722 N 0.09486 0.18087 0.57696 0.0
C723 C 0.08279 0.18236 0.61571 0.0
C724 C 0.09791 0.21489 0.63663 0.0
C725 C 0.73483 0.4131 0.48741 0.0
C726 C 0.76704 0.43901 0.47634 0.0
C727 C 0.70065 0.42245 0.49223 0.0
C728 C 0.69727 0.4581 0.48636 0.0
H729 H 0.73566 0.38495 0.49059 0.0
H730 H 0.67647 0.4014 0.49981 0.0
S731 S 0.77339 0.53673 0.4602 0.0
N732 N 0.79374 0.50236 0.46208 0.0
N733 N 0.72914 0.51993 0.47098 0.0
C734 C 0.72938 0.48467 0.477 0.0
C735 C 0.76432 0.4751 0.47189 0.0
loop_
_geom_bond_atom_site_label_1
_geom_bond_atom_site_label_2
_geom_bond_distance
_geom_bond_site_symmetry_2
_ccdc_geom_bond_type
C0 C1 1.386 . S
C0 C2 1.397 . S
C0 H24 0.931 . S
C1 C0 1.386 . S
C1 C5 1.397 . S
C2 C0 1.397 . S
C2 C3 1.384 . S
C2 H25 0.930 . S
C3 C2 1.384 . S
C3 C4 1.377 . S
C3 C6 1.481 . S
C4 C3 1.377 . S
C4 C5 1.389 . S
C4 H26 0.929 . S
C5 C1 1.397 . S
C5 C4 1.389 . S
C5 H27 0.931 . S
C6 C3 1.481 . S
C6 C7 1.387 . S
C6 C11 1.390 . S
C7 C6 1.387 . S
C7 C8 1.401 . S
C7 H28 0.930 . S
C8 C7 1.401 . S
C8 C9 1.376 . S
C8 C17 1.511 . S
C9 C8 1.376 . S
C9 C10 1.392 . S
C9 H30 0.931 . S
C10 C9 1.392 . S
C10 C11 1.361 . S
C10 C12 1.500 . S
C11 C6 1.390 . S
C11 C10 1.361 . S
C11 H29 0.931 . S
C12 C10 1.500 . S
C12 C13 1.371 . S
C12 C14 1.365 . S
C13 C12 1.371 . S
C13 C23 1.386 . S
C13 H31 0.931 . S
C14 C12 1.365 . S
C14 C15 1.409 . S
C14 H32 0.929 . S
C15 C14 1.409 . S
C15 C16 1.380 . S
C15 H33 0.930 . S
C16 C15 1.380 . S
C16 C23 1.357 . S
C17 C8 1.511 . S
C17 C18 1.341 . S
C17 C19 1.371 . S
C18 C17 1.341 . S
C18 C22 1.394 . S
C18 H34 0.930 . S
C19 C17 1.371 . S
C19 C20 1.392 . S
C19 H35 0.931 . S
C20 C19 1.392 . S
C20 C21 1.331 . S
C20 H38 0.932 . S
C21 C20 1.331 . S
C21 C22 1.336 . S
C22 C18 1.394 . S
C22 C21 1.336 . S
C22 H37 0.929 . S
C23 C13 1.386 . S
C23 C16 1.357 . S
C23 H36 0.928 . S
H24 C0 0.931 . S
H25 C2 0.930 . S
H26 C4 0.929 . S
H27 C5 0.931 . S
H28 C7 0.930 . S
H29 C11 0.931 . S
H30 C9 0.931 . S
H31 C13 0.931 . S
H32 C14 0.929 . S
H33 C15 0.930 . S
H34 C18 0.930 . S
H35 C19 0.931 . S
H36 C23 0.928 . S
H37 C22 0.929 . S
H38 C20 0.932 . S
C39 C40 1.386 . S
C39 C41 1.397 . S
C39 H63 0.931 . S
C40 C39 1.386 . S
C40 C44 1.397 . S
C41 C39 1.397 . S
C41 C42 1.384 . S
C41 H64 0.930 . S
C42 C41 1.384 . S
C42 C43 1.377 . S
C42 C45 1.481 . S
C43 C42 1.377 . S
C43 C44 1.389 . S
C43 H65 0.929 . S
C44 C40 1.397 . S
C44 C43 1.389 . S
C44 H66 0.931 . S
C45 C42 1.481 . S
C45 C46 1.387 . S
C45 C50 1.390 . S
C46 C45 1.387 . S
C46 C47 1.401 . S
C46 H67 0.930 . S
C47 C46 1.401 . S
C47 C48 1.376 . S
C47 C56 1.511 . S
C48 C47 1.376 . S
C48 C49 1.392 . S
C48 H69 0.931 . S
C49 C48 1.392 . S
C49 C50 1.361 . S
C49 C51 1.500 . S
C50 C45 1.390 . S
C50 C49 1.361 . S
C50 H68 0.931 . S
C51 C49 1.500 . S
C51 C52 1.371 . S
C51 C53 1.365 . S
C52 C51 1.371 . S
C52 C62 1.386 . S
C52 H70 0.931 . S
C53 C51 1.365 . S
C53 C54 1.409 . S
C53 H71 0.929 . S
C54 C53 1.409 . S
C54 C55 1.380 . S
C54 H72 0.930 . S
C55 C54 1.380 . S
C55 C62 1.357 . S
C56 C47 1.511 . S
C56 C57 1.341 . S
C56 C58 1.371 . S
C57 C56 1.341 . S
C57 C61 1.394 . S
C57 H73 0.930 . S
C58 C56 1.371 . S
C58 C59 1.392 . S
C58 H74 0.931 . S
C59 C58 1.392 . S
C59 C60 1.331 . S
C59 H77 0.932 . S
C60 C59 1.331 . S
C60 C61 1.336 . S
C61 C57 1.394 . S
C61 C60 1.336 . S
C61 H76 0.929 . S
C62 C52 1.386 . S
C62 C55 1.357 . S
C62 H75 0.928 . S
H63 C39 0.931 . S
H64 C41 0.930 . S
H65 C43 0.929 . S
H66 C44 0.931 . S
H67 C46 0.930 . S
H68 C50 0.931 . S
H69 C48 0.931 . S
H70 C52 0.931 . S
H71 C53 0.929 . S
H72 C54 0.930 . S
H73 C57 0.930 . S
H74 C58 0.931 . S
H75 C62 0.928 . S
H76 C61 0.929 . S
H77 C59 0.932 . S
C78 C79 1.386 . S
C78 C80 1.397 . S
C78 H102 0.931 . S
C79 C78 1.386 . S
C79 C83 1.397 . S
C80 C78 1.397 . S
C80 C81 1.384 . S
C80 H103 0.930 . S
C81 C80 1.384 . S
C81 C82 1.377 . S
C81 C84 1.481 . S
C82 C81 1.377 . S
C82 C83 1.389 . S
C82 H104 0.929 . S
C83 C79 1.397 . S
C83 C82 1.389 . S
C83 H105 0.931 . S
C84 C81 1.481 . S
C84 C85 1.387 . S
C84 C89 1.390 . S
C85 C84 1.387 . S
C85 C86 1.401 . S
C85 H106 0.930 . S
C86 C85 1.401 . S
C86 C87 1.376 . S
C86 C95 1.511 . S
C87 C86 1.376 . S
C87 C88 1.392 . S
C87 H108 0.931 . S
C88 C87 1.392 . S
C88 C89 1.361 . S
C88 C90 1.500 . S
C89 C84 1.390 . S
C89 C88 1.361 . S
C89 H107 0.931 . S
C90 C88 1.500 . S
C90 C91 1.371 . S
C90 C92 1.365 . S
C91 C90 1.371 . S
C91 C101 1.386 . S
C91 H109 0.931 . S
C92 C90 1.365 . S
C92 C93 1.409 . S
C92 H110 0.929 . S
C93 C92 1.409 . S
C93 C94 1.380 . S
C93 H111 0.930 . S
C94 C93 1.380 . S
C94 C101 1.357 . S
C95 C86 1.511 . S
C95 C96 1.341 . S
C95 C97 1.371 . S
C96 C95 1.341 . S
C96 C100 1.394 . S
C96 H112 0.930 . S
C97 C95 1.371 . S
C97 C98 1.392 . S
C97 H113 0.931 . S
C98 C97 1.392 . S
C98 C99 1.331 . S
C98 H116 0.932 . S
C99 C98 1.331 . S
C99 C100 1.336 . S
C100 C96 1.394 . S
C100 C99 1.336 . S
C100 H115 0.929 . S
C101 C91 1.386 . S
C101 C94 1.357 . S
C101 H114 0.928 . S
H102 C78 0.931 . S
H103 C80 0.930 . S
H104 C82 0.929 . S
H105 C83 0.931 . S
H106 C85 0.930 . S
H107 C89 0.931 . S
H108 C87 0.931 . S
H109 C91 0.931 . S
H110 C92 0.929 . S
H111 C93 0.930 . S
H112 C96 0.930 . S
H113 C97 0.931 . S
H114 C101 0.928 . S
H115 C100 0.929 . S
H116 C98 0.932 . S
C117 C118 1.386 . S
C117 C119 1.397 . S
C117 H141 0.931 . S
C118 C117 1.386 . S
C118 C122 1.397 . S
C119 C117 1.397 . S
C119 C120 1.384 . S
C119 H142 0.930 . S
C120 C119 1.384 . S
C120 C121 1.377 . S
C120 C123 1.481 . S
C121 C120 1.377 . S
C121 C122 1.389 . S
C121 H143 0.929 . S
C122 C118 1.397 . S
C122 C121 1.389 . S
C122 H144 0.931 . S
C123 C120 1.481 . S
C123 C124 1.387 . S
C123 C128 1.390 . S
C124 C123 1.387 . S
C124 C125 1.401 . S
C124 H145 0.930 . S
C125 C124 1.401 . S
C125 C126 1.376 . S
C125 C134 1.511 . S
C126 C125 1.376 . S
C126 C127 1.392 . S
C126 H147 0.931 . S
C127 C126 1.392 . S
C127 C128 1.361 . S
C127 C129 1.500 . S
C128 C123 1.390 . S
C128 C127 1.361 . S
C128 H146 0.931 . S
C129 C127 1.500 . S
C129 C130 1.371 . S
C129 C131 1.365 . S
C130 C129 1.371 . S
C130 C140 1.386 . S
C130 H148 0.931 . S
C131 C129 1.365 . S
C131 C132 1.409 . S
C131 H149 0.929 . S
C132 C131 1.409 . S
C132 C133 1.380 . S
C132 H150 0.930 . S
C133 C132 1.380 . S
C133 C140 1.357 . S
C134 C125 1.511 . S
C134 C135 1.341 . S
C134 C136 1.371 . S
C135 C134 1.341 . S
C135 C139 1.394 . S
C135 H151 0.930 . S
C136 C134 1.371 . S
C136 C137 1.392 . S
C136 H152 0.931 . S
C137 C136 1.392 . S
C137 C138 1.331 . S
C137 H155 0.932 . S
C138 C137 1.331 . S
C138 C139 1.336 . S
C139 C135 1.394 . S
C139 C138 1.336 . S
C139 H154 0.929 . S
C140 C130 1.386 . S
C140 C133 1.357 . S
C140 H153 0.928 . S
H141 C117 0.931 . S
H142 C119 0.930 . S
H143 C121 0.929 . S
H144 C122 0.931 . S
H145 C124 0.930 . S
H146 C128 0.931 . S
H147 C126 0.931 . S
H148 C130 0.931 . S
H149 C131 0.929 . S
H150 C132 0.930 . S
H151 C135 0.930 . S
H152 C136 0.931 . S
H153 C140 0.928 . S
H154 C139 0.929 . S
H155 C137 0.932 . S
C156 C157 1.386 . S
C156 C158 1.397 . S
C156 H180 0.931 . S
C157 C156 1.386 . S
C157 C161 1.397 . S
C158 C156 1.397 . S
C158 C159 1.384 . S
C158 H181 0.930 . S
C159 C158 1.384 . S
C159 C160 1.377 . S
C159 C162 1.481 . S
C160 C159 1.377 . S
C160 C161 1.389 . S
C160 H182 0.929 . S
C161 C157 1.397 . S
C161 C160 1.389 . S
C161 H183 0.931 . S
C162 C159 1.481 . S
C162 C163 1.387 . S
C162 C167 1.390 . S
C163 C162 1.387 . S
C163 C164 1.401 . S
C163 H184 0.930 . S
C164 C163 1.401 . S
C164 C165 1.376 . S
C164 C173 1.511 . S
C165 C164 1.376 . S
C165 C166 1.392 . S
C165 H186 0.931 . S
C166 C165 1.392 . S
C166 C167 1.361 . S
C166 C168 1.500 . S
C167 C162 1.390 . S
C167 C166 1.361 . S
C167 H185 0.931 . S
C168 C166 1.500 . S
C168 C169 1.371 . S
C168 C170 1.365 . S
C169 C168 1.371 . S
C169 C179 1.386 . S
C169 H187 0.931 . S
C170 C168 1.365 . S
C170 C171 1.409 . S
C170 H188 0.929 . S
C171 C170 1.409 . S
C171 C172 1.380 . S
C171 H189 0.930 . S
C172 C171 1.380 . S
C172 C179 1.357 . S
C173 C164 1.511 . S
C173 C174 1.341 . S
C173 C175 1.371 . S
C174 C173 1.341 . S
C174 C178 1.394 . S
C174 H190 0.930 . S
C175 C173 1.371 . S
C175 C176 1.392 . S
C175 H191 0.931 . S
C176 C175 1.392 . S
C176 C177 1.331 . S
C176 H194 0.932 . S
C177 C176 1.331 . S
C177 C178 1.336 . S
C178 C174 1.394 . S
C178 C177 1.336 . S
C178 H193 0.929 . S
C179 C169 1.386 . S
C179 C172 1.357 . S
C179 H192 0.928 . S
H180 C156 0.931 . S
H181 C158 0.930 . S
H182 C160 0.929 . S
H183 C161 0.931 . S
H184 C163 0.930 . S
H185 C167 0.931 . S
H186 C165 0.931 . S
H187 C169 0.931 . S
H188 C170 0.929 . S
H189 C171 0.930 . S
H190 C174 0.930 . S
H191 C175 0.931 . S
H192 C179 0.928 . S
H193 C178 0.929 . S
H194 C176 0.932 . S
C195 C196 1.386 . S
C195 C197 1.397 . S
C195 H219 0.931 . S
C196 C195 1.386 . S
C196 C200 1.397 . S
C197 C195 1.397 . S
C197 C198 1.384 . S
C197 H220 0.930 . S
C198 C197 1.384 . S
C198 C199 1.377 . S
C198 C201 1.481 . S
C199 C198 1.377 . S
C199 C200 1.389 . S
C199 H221 0.929 . S
C200 C196 1.397 . S
C200 C199 1.389 . S
C200 H222 0.931 . S
C201 C198 1.481 . S
C201 C202 1.387 . S
C201 C206 1.390 . S
C202 C201 1.387 . S
C202 C203 1.401 . S
C202 H223 0.930 . S
C203 C202 1.401 . S
C203 C204 1.376 . S
C203 C212 1.511 . S
C204 C203 1.376 . S
C204 C205 1.392 . S
C204 H225 0.931 . S
C205 C204 1.392 . S
C205 C206 1.361 . S
C205 C207 1.500 . S
C206 C201 1.390 . S
C206 C205 1.361 . S
C206 H224 0.931 . S
C207 C205 1.500 . S
C207 C208 1.371 . S
C207 C209 1.365 . S
C208 C207 1.371 . S
C208 C218 1.386 . S
C208 H226 0.931 . S
C209 C207 1.365 . S
C209 C210 1.409 . S
C209 H227 0.929 . S
C210 C209 1.409 . S
C210 C211 1.380 . S
C210 H228 0.930 . S
C211 C210 1.380 . S
C211 C218 1.357 . S
C212 C203 1.511 . S
C212 C213 1.341 . S
C212 C214 1.371 . S
C213 C212 1.341 . S
C213 C217 1.394 . S
C213 H229 0.930 . S
C214 C212 1.371 . S
C214 C215 1.392 . S
C214 H230 0.931 . S
C215 C214 1.392 . S
C215 C216 1.331 . S
C215 H233 0.932 . S
C216 C215 1.331 . S
C216 C217 1.336 . S
C217 C213 1.394 . S
C217 C216 1.336 . S
C217 H232 0.929 . S
C218 C208 1.386 . S
C218 C211 1.357 . S
C218 H231 0.928 . S
H219 C195 0.931 . S
H220 C197 0.930 . S
H221 C199 0.929 . S
H222 C200 0.931 . S
H223 C202 0.930 . S
H224 C206 0.931 . S
H225 C204 0.931 . S
H226 C208 0.931 . S
H227 C209 0.929 . S
H228 C210 0.930 . S
H229 C213 0.930 . S
H230 C214 0.931 . S
H231 C218 0.928 . S
H232 C217 0.929 . S
H233 C215 0.932 . S
C234 C235 1.386 . S
C234 C236 1.397 . S
C234 H258 0.931 . S
C235 C234 1.386 . S
C235 C239 1.397 . S
C236 C234 1.397 . S
C236 C237 1.384 . S
C236 H259 0.930 . S
C237 C236 1.384 . S
C237 C238 1.377 . S
C237 C240 1.481 . S
C238 C237 1.377 . S
C238 C239 1.389 . S
C238 H260 0.929 . S
C239 C235 1.397 . S
C239 C238 1.389 . S
C239 H261 0.931 . S
C240 C237 1.481 . S
C240 C241 1.387 . S
C240 C245 1.390 . S
C241 C240 1.387 . S
C241 C242 1.401 . S
C241 H262 0.930 . S
C242 C241 1.401 . S
C242 C243 1.376 . S
C242 C251 1.511 . S
C243 C242 1.376 . S
C243 C244 1.392 . S
C243 H264 0.931 . S
C244 C243 1.392 . S
C244 C245 1.361 . S
C244 C246 1.500 . S
C245 C240 1.390 . S
C245 C244 1.361 . S
C245 H263 0.931 . S
C246 C244 1.500 . S
C246 C247 1.371 . S
C246 C248 1.365 . S
C247 C246 1.371 . S
C247 C257 1.386 . S
C247 H265 0.931 . S
C248 C246 1.365 . S
C248 C249 1.409 . S
C248 H266 0.929 . S
C249 C248 1.409 . S
C249 C250 1.380 . S
C249 H267 0.930 . S
C250 C249 1.380 . S
C250 C257 1.357 . S
C251 C242 1.511 . S
C251 C252 1.341 . S
C251 C253 1.371 . S
C252 C251 1.341 . S
C252 C256 1.394 . S
C252 H268 0.930 . S
C253 C251 1.371 . S
C253 C254 1.392 . S
C253 H269 0.931 . S
C254 C253 1.392 . S
C254 C255 1.331 . S
C254 H272 0.932 . S
C255 C254 1.331 . S
C255 C256 1.336 . S
C256 C252 1.394 . S
C256 C255 1.336 . S
C256 H271 0.929 . S
C257 C247 1.386 . S
C257 C250 1.357 . S
C257 H270 0.928 . S
H258 C234 0.931 . S
H259 C236 0.930 . S
H260 C238 0.929 . S
H261 C239 0.931 . S
H262 C241 0.930 . S
H263 C245 0.931 . S
H264 C243 0.931 . S
H265 C247 0.931 . S
H266 C248 0.929 . S
H267 C249 0.930 . S
H268 C252 0.930 . S
H269 C253 0.931 . S
H270 C257 0.928 . S
H271 C256 0.929 . S
H272 C254 0.932 . S
C273 C274 1.386 . S
C273 C275 1.397 . S
C273 H297 0.931 . S
C274 C273 1.386 . S
C274 C278 1.397 . S
C275 C273 1.397 . S
C275 C276 1.384 . S
C275 H298 0.930 . S
C276 C275 1.384 . S
C276 C277 1.377 . S
C276 C279 1.481 . S
C277 C276 1.377 . S
C277 C278 1.389 . S
C277 H299 0.929 . S
C278 C274 1.397 . S
C278 C277 1.389 . S
C278 H300 0.931 . S
C279 C276 1.481 . S
C279 C280 1.387 . S
C279 C284 1.390 . S
C280 C279 1.387 . S
C280 C281 1.401 . S
C280 H301 0.930 . S
C281 C280 1.401 . S
C281 C282 1.376 . S
C281 C290 1.511 . S
C282 C281 1.376 . S
C282 C283 1.392 . S
C282 H303 0.931 . S
C283 C282 1.392 . S
C283 C284 1.361 . S
C283 C285 1.500 . S
C284 C279 1.390 . S
C284 C283 1.361 . S
C284 H302 0.931 . S
C285 C283 1.500 . S
C285 C286 1.371 . S
C285 C287 1.365 . S
C286 C285 1.371 . S
C286 C296 1.386 . S
C286 H304 0.931 . S
C287 C285 1.365 . S
C287 C288 1.409 . S
C287 H305 0.929 . S
C288 C287 1.409 . S
C288 C289 1.380 . S
C288 H306 0.930 . S
C289 C288 1.380 . S
C289 C296 1.357 . S
C290 C281 1.511 . S
C290 C291 1.341 . S
C290 C292 1.371 . S
C291 C290 1.341 . S
C291 C295 1.394 . S
C291 H307 0.930 . S
C292 C290 1.371 . S
C292 C293 1.392 . S
C292 H308 0.931 . S
C293 C292 1.392 . S
C293 C294 1.331 . S
C293 H311 0.932 . S
C294 C293 1.331 . S
C294 C295 1.336 . S
C295 C291 1.394 . S
C295 C294 1.336 . S
C295 H310 0.929 . S
C296 C286 1.386 . S
C296 C289 1.357 . S
C296 H309 0.928 . S
H297 C273 0.931 . S
H298 C275 0.930 . S
H299 C277 0.929 . S
H300 C278 0.931 . S
H301 C280 0.930 . S
H302 C284 0.931 . S
H303 C282 0.931 . S
H304 C286 0.931 . S
H305 C287 0.929 . S
H306 C288 0.930 . S
H307 C291 0.930 . S
H308 C292 0.931 . S
H309 C296 0.928 . S
H310 C295 0.929 . S
H311 C293 0.932 . S
Gd312 C315 2.818 . S
Gd312 O332 2.377 . S
Gd312 O334 2.448 . S
Gd312 O335 2.506 . S
Gd312 O336 2.435 1_545 S
Gd312 O337 2.717 1_545 S
Gd312 O339 2.395 1_445 S
Gd312 O343 2.327 1_455 S
Gd313 C324 2.818 . S
Gd313 O333 2.395 1_665 S
Gd313 O337 2.327 1_655 S
Gd313 O338 2.377 . S
Gd313 O340 2.448 . S
Gd313 O341 2.506 . S
Gd313 O342 2.435 1_565 S
Gd313 O343 2.717 1_565 S
C314 O332 1.240 . S
C314 O333 1.240 . S
C315 Gd312 2.818 . S
C315 C316 1.510 . S
C315 O334 1.249 . S
C315 O335 1.252 . S
C316 C315 1.510 . S
C316 C317 1.404 . S
C316 C318 1.352 . S
C317 C316 1.404 . S
C317 C321 1.389 . S
C317 H344 0.930 . S
C318 C316 1.352 . S
C318 C320 1.374 . S
C318 H345 0.931 . S
C319 C320 1.359 . S
C319 C321 1.364 . S
C320 C318 1.374 . S
C320 C319 1.359 . S
C320 H346 0.931 . S
C321 C317 1.389 . S
C321 C319 1.364 . S
C321 H347 0.931 . S
C322 O336 1.256 . S
C322 O337 1.257 . S
C323 O338 1.240 . S
C323 O339 1.240 . S
C324 Gd313 2.818 . S
C324 C325 1.510 . S
C324 O340 1.249 . S
C324 O341 1.252 . S
C325 C324 1.510 . S
C325 C326 1.404 . S
C325 C327 1.352 . S
C326 C325 1.404 . S
C326 C330 1.389 . S
C326 H348 0.930 . S
C327 C325 1.352 . S
C327 C329 1.374 . S
C327 H349 0.931 . S
C328 C329 1.359 . S
C328 C330 1.364 . S
C329 C327 1.374 . S
C329 C328 1.359 . S
C329 H350 0.931 . S
C330 C326 1.389 . S
C330 C328 1.364 . S
C330 H351 0.931 . S
C331 O342 1.256 . S
C331 O343 1.257 . S
O332 Gd312 2.377 . S
O332 C314 1.240 . S
O333 Gd313 2.395 1_445 S
O333 C314 1.240 . S
O334 Gd312 2.448 . S
O334 C315 1.249 . S
O335 Gd312 2.506 . S
O335 C315 1.252 . S
O336 Gd312 2.435 1_565 S
O336 C322 1.256 . S
O337 Gd312 2.717 1_565 S
O337 Gd313 2.327 1_455 S
O337 C322 1.257 . S
O338 Gd313 2.377 . S
O338 C323 1.240 . S
O339 Gd312 2.395 1_665 S
O339 C323 1.240 . S
O340 Gd313 2.448 . S
O340 C324 1.249 . S
O341 Gd313 2.506 . S
O341 C324 1.252 . S
O342 Gd313 2.435 1_545 S
O342 C331 1.256 . S
O343 Gd312 2.327 1_655 S
O343 Gd313 2.717 1_545 S
O343 C331 1.257 . S
H344 C317 0.930 . S
H345 C318 0.931 . S
H346 C320 0.931 . S
H347 C321 0.931 . S
H348 C326 0.930 . S
H349 C327 0.931 . S
H350 C329 0.931 . S
H351 C330 0.931 . S
Gd352 C355 2.818 1_565 S
Gd352 O372 2.377 1_565 S
Gd352 O374 2.448 1_565 S
Gd352 O375 2.506 1_565 S
Gd352 O376 2.435 . S
Gd352 O377 2.717 . S
Gd352 O379 2.395 1_554 S
Gd352 O383 2.327 1_564 S
Gd353 C364 2.818 1_545 S
Gd353 O373 2.395 1_556 S
Gd353 O377 2.327 1_546 S
Gd353 O378 2.377 1_545 S
Gd353 O380 2.448 1_545 S
Gd353 O381 2.506 1_545 S
Gd353 O382 2.435 . S
Gd353 O383 2.717 . S
C354 O372 1.240 . S
C354 O373 1.240 . S
C355 Gd352 2.818 1_545 S
C355 C356 1.510 . S
C355 O374 1.249 . S
C355 O375 1.252 . S
C356 C355 1.510 . S
C356 C357 1.404 . S
C356 C358 1.352 . S
C357 C356 1.404 . S
C357 C361 1.389 . S
C357 H384 0.930 . S
C358 C356 1.352 . S
C358 C360 1.374 . S
C358 H385 0.931 . S
C359 C360 1.359 . S
C359 C361 1.364 . S
C360 C358 1.374 . S
C360 C359 1.359 . S
C360 H386 0.931 . S
C361 C357 1.389 . S
C361 C359 1.364 . S
C361 H387 0.931 . S
C362 O376 1.256 . S
C362 O377 1.257 . S
C363 O378 1.240 . S
C363 O379 1.240 . S
C364 Gd353 2.818 1_565 S
C364 C365 1.510 . S
C364 O380 1.249 . S
C364 O381 1.252 . S
C365 C364 1.510 . S
C365 C366 1.404 . S
C365 C367 1.352 . S
C366 C365 1.404 . S
C366 C370 1.389 . S
C366 H388 0.930 . S
C367 C365 1.352 . S
C367 C369 1.374 . S
C367 H389 0.931 . S
C368 C369 1.359 . S
C368 C370 1.364 . S
C369 C367 1.374 . S
C369 C368 1.359 . S
C369 H390 0.931 . S
C370 C366 1.389 . S
C370 C368 1.364 . S
C370 H391 0.931 . S
C371 O382 1.256 . S
C371 O383 1.257 . S
O372 Gd352 2.377 1_545 S
O372 C354 1.240 . S
O373 Gd353 2.395 1_554 S
O373 C354 1.240 . S
O374 Gd352 2.448 1_545 S
O374 C355 1.249 . S
O375 Gd352 2.506 1_545 S
O375 C355 1.252 . S
O376 Gd352 2.435 . S
O376 C362 1.256 . S
O377 Gd352 2.717 . S
O377 Gd353 2.327 1_564 S
O377 C362 1.257 . S
O378 Gd353 2.377 1_565 S
O378 C363 1.240 . S
O379 Gd352 2.395 1_556 S
O379 C363 1.240 . S
O380 Gd353 2.448 1_565 S
O380 C364 1.249 . S
O381 Gd353 2.506 1_565 S
O381 C364 1.252 . S
O382 Gd353 2.435 . S
O382 C371 1.256 . S
O383 Gd352 2.327 1_546 S
O383 Gd353 2.717 . S
O383 C371 1.257 . S
H384 C357 0.930 . S
H385 C358 0.931 . S
H386 C360 0.931 . S
H387 C361 0.931 . S
H388 C366 0.930 . S
H389 C367 0.931 . S
H390 C369 0.931 . S
H391 C370 0.931 . S
Gd392 C395 2.818 . S
Gd392 O412 2.377 . S
Gd392 O414 2.448 . S
Gd392 O415 2.506 . S
Gd392 O416 2.435 . S
Gd392 O417 2.717 . S
Gd392 O419 2.395 . S
Gd392 O423 2.327 . S
Gd393 C404 2.818 . S
Gd393 O413 2.395 . S
Gd393 O417 2.327 . S
Gd393 O418 2.377 . S
Gd393 O420 2.448 . S
Gd393 O421 2.506 . S
Gd393 O422 2.435 . S
Gd393 O423 2.717 . S
C394 O412 1.240 . S
C394 O413 1.240 . S
C395 Gd392 2.818 . S
C395 C396 1.510 . S
C395 O414 1.249 . S
C395 O415 1.252 . S
C396 C395 1.510 . S
C396 C397 1.404 . S
C396 C398 1.352 . S
C397 C396 1.404 . S
C397 C401 1.389 . S
C397 H424 0.930 . S
C398 C396 1.352 . S
C398 C400 1.374 . S
C398 H425 0.931 . S
C399 C400 1.359 . S
C399 C401 1.364 . S
C400 C398 1.374 . S
C400 C399 1.359 . S
C400 H426 0.931 . S
C401 C397 1.389 . S
C401 C399 1.364 . S
C401 H427 0.931 . S
C402 O416 1.256 . S
C402 O417 1.257 . S
C403 O418 1.240 . S
C403 O419 1.240 . S
C404 Gd393 2.818 . S
C404 C405 1.510 . S
C404 O420 1.249 . S
C404 O421 1.252 . S
C405 C404 1.510 . S
C405 C406 1.404 . S
C405 C407 1.352 . S
C406 C405 1.404 . S
C406 C410 1.389 . S
C406 H428 0.930 . S
C407 C405 1.352 . S
C407 C409 1.374 . S
C407 H429 0.931 . S
C408 C409 1.359 . S
C408 C410 1.364 . S
C409 C407 1.374 . S
C409 C408 1.359 . S
C409 H430 0.931 . S
C410 C406 1.389 . S
C410 C408 1.364 . S
C410 H431 0.931 . S
C411 O422 1.256 . S
C411 O423 1.257 . S
O412 Gd392 2.377 . S
O412 C394 1.240 . S
O413 Gd393 2.395 . S
O413 C394 1.240 . S
O414 Gd392 2.448 . S
O414 C395 1.249 . S
O415 Gd392 2.506 . S
O415 C395 1.252 . S
O416 Gd392 2.435 . S
O416 C402 1.256 . S
O417 Gd392 2.717 . S
O417 Gd393 2.327 . S
O417 C402 1.257 . S
O418 Gd393 2.377 . S
O418 C403 1.240 . S
O419 Gd392 2.395 . S
O419 C403 1.240 . S
O420 Gd393 2.448 . S
O420 C404 1.249 . S
O421 Gd393 2.506 . S
O421 C404 1.252 . S
O422 Gd393 2.435 . S
O422 C411 1.256 . S
O423 Gd392 2.327 . S
O423 Gd393 2.717 . S
O423 C411 1.257 . S
H424 C397 0.930 . S
H425 C398 0.931 . S
H426 C400 0.931 . S
H427 C401 0.931 . S
H428 C406 0.930 . S
H429 C407 0.931 . S
H430 C409 0.931 . S
H431 C410 0.931 . S
Gd432 C435 2.818 . S
Gd432 O452 2.377 . S
Gd432 O454 2.448 . S
Gd432 O455 2.506 . S
Gd432 O456 2.435 1_455 S
Gd432 O457 2.717 1_455 S
Gd432 O459 2.395 1_454 S
Gd432 O463 2.327 1_554 S
Gd433 C444 2.818 . S
Gd433 O453 2.395 1_656 S
Gd433 O457 2.327 1_556 S
Gd433 O458 2.377 . S
Gd433 O460 2.448 . S
Gd433 O461 2.506 . S
Gd433 O462 2.435 1_655 S
Gd433 O463 2.717 1_655 S
C434 O452 1.240 . S
C434 O453 1.240 . S
C435 Gd432 2.818 . S
C435 C436 1.510 . S
C435 O454 1.249 . S
C435 O455 1.252 . S
C436 C435 1.510 . S
C436 C437 1.404 . S
C436 C438 1.352 . S
C437 C436 1.404 . S
C437 C441 1.389 . S
C437 H464 0.930 . S
C438 C436 1.352 . S
C438 C440 1.374 . S
C438 H465 0.931 . S
C439 C440 1.359 . S
C439 C441 1.364 . S
C440 C438 1.374 . S
C440 C439 1.359 . S
C440 H466 0.931 . S
C441 C437 1.389 . S
C441 C439 1.364 . S
C441 H467 0.931 . S
C442 O456 1.256 . S
C442 O457 1.257 . S
C443 O458 1.240 . S
C443 O459 1.240 . S
C444 Gd433 2.818 . S
C444 C445 1.510 . S
C444 O460 1.249 . S
C444 O461 1.252 . S
C445 C444 1.510 . S
C445 C446 1.404 . S
C445 C447 1.352 . S
C446 C445 1.404 . S
C446 C450 1.389 . S
C446 H468 0.930 . S
C447 C445 1.352 . S
C447 C449 1.374 . S
C447 H469 0.931 . S
C448 C449 1.359 . S
C448 C450 1.364 . S
C449 C447 1.374 . S
C449 C448 1.359 . S
C449 H470 0.931 . S
C450 C446 1.389 . S
C450 C448 1.364 . S
C450 H471 0.931 . S
C451 O462 1.256 . S
C451 O463 1.257 . S
O452 Gd432 2.377 . S
O452 C434 1.240 . S
O453 Gd433 2.395 1_454 S
O453 C434 1.240 . S
O454 Gd432 2.448 . S
O454 C435 1.249 . S
O455 Gd432 2.506 . S
O455 C435 1.252 . S
O456 Gd432 2.435 1_655 S
O456 C442 1.256 . S
O457 Gd432 2.717 1_655 S
O457 Gd433 2.327 1_554 S
O457 C442 1.257 . S
O458 Gd433 2.377 . S
O458 C443 1.240 . S
O459 Gd432 2.395 1_656 S
O459 C443 1.240 . S
O460 Gd433 2.448 . S
O460 C444 1.249 . S
O461 Gd433 2.506 . S
O461 C444 1.252 . S
O462 Gd433 2.435 1_455 S
O462 C451 1.256 . S
O463 Gd432 2.327 1_556 S
O463 Gd433 2.717 1_455 S
O463 C451 1.257 . S
H464 C437 0.930 . S
H465 C438 0.931 . S
H466 C440 0.931 . S
H467 C441 0.931 . S
H468 C446 0.930 . S
H469 C447 0.931 . S
H470 C449 0.931 . S
H471 C450 0.931 . S
C472 C473 1.369 . S
C472 C474 1.419 . S
C472 H476 0.930 . S
C473 C472 1.369 . S
C473 C482 1.429 . S
C474 C472 1.419 . S
C474 C475 1.363 . S
C474 H477 0.929 . S
C475 C474 1.363 . S
C475 C481 1.428 . S
H476 C472 0.930 . S
H477 C474 0.929 . S
S478 N479 1.613 . S
S478 N480 1.610 . S
N479 S478 1.613 . S
N479 C482 1.350 . S
N480 S478 1.610 . S
N480 C481 1.351 . S
C481 C475 1.428 . S
C481 N480 1.351 . S
C481 C482 1.434 . S
C482 C473 1.429 . S
C482 N479 1.350 . S
C482 C481 1.434 . S
C483 C484 1.369 . S
C483 C485 1.419 . S
C483 H487 0.930 . S
C484 C483 1.369 . S
C484 C493 1.429 . S
C485 C483 1.419 . S
C485 C486 1.363 . S
C485 H488 0.929 . S
C486 C485 1.363 . S
C486 C492 1.428 . S
H487 C483 0.930 . S
H488 C485 0.929 . S
S489 N490 1.613 . S
S489 N491 1.610 . S
N490 S489 1.613 . S
N490 C493 1.350 . S
N491 S489 1.610 . S
N491 C492 1.351 . S
C492 C486 1.428 . S
C492 N491 1.351 . S
C492 C493 1.434 . S
C493 C484 1.429 . S
C493 N490 1.350 . S
C493 C492 1.434 . S
C494 C495 1.369 . S
C494 C496 1.419 . S
C494 H498 0.930 . S
C495 C494 1.369 . S
C495 C504 1.429 . S
C496 C494 1.419 . S
C496 C497 1.363 . S
C496 H499 0.929 . S
C497 C496 1.363 . S
C497 C503 1.428 . S
H498 C494 0.930 . S
H499 C496 0.929 . S
S500 N501 1.613 . S
S500 N502 1.610 . S
N501 S500 1.613 . S
N501 C504 1.350 . S
N502 S500 1.610 . S
N502 C503 1.351 . S
C503 C497 1.428 . S
C503 N502 1.351 . S
C503 C504 1.434 . S
C504 C495 1.429 . S
C504 N501 1.350 . S
C504 C503 1.434 . S
C505 C506 1.369 . S
C505 C507 1.419 . S
C505 H509 0.930 . S
C506 C505 1.369 . S
C506 C515 1.429 . S
C507 C505 1.419 . S
C507 C508 1.363 . S
C507 H510 0.929 . S
C508 C507 1.363 . S
C508 C514 1.428 . S
H509 C505 0.930 . S
H510 C507 0.929 . S
S511 N512 1.613 . S
S511 N513 1.610 . S
N512 S511 1.613 . S
N512 C515 1.350 . S
N513 S511 1.610 . S
N513 C514 1.351 . S
C514 C508 1.428 . S
C514 N513 1.351 . S
C514 C515 1.434 . S
C515 C506 1.429 . S
C515 N512 1.350 . S
C515 C514 1.434 . S
C516 C517 1.369 . S
C516 C518 1.419 . S
C516 H520 0.930 . S
C517 C516 1.369 . S
C517 C526 1.429 . S
C518 C516 1.419 . S
C518 C519 1.363 . S
C518 H521 0.929 . S
C519 C518 1.363 . S
C519 C525 1.428 . S
H520 C516 0.930 . S
H521 C518 0.929 . S
S522 N523 1.613 . S
S522 N524 1.610 . S
N523 S522 1.613 . S
N523 C526 1.350 . S
N524 S522 1.610 . S
N524 C525 1.351 . S
C525 C519 1.428 . S
C525 N524 1.351 . S
C525 C526 1.434 . S
C526 C517 1.429 . S
C526 N523 1.350 . S
C526 C525 1.434 . S
C527 C528 1.369 . S
C527 C529 1.419 . S
C527 H531 0.930 . S
C528 C527 1.369 . S
C528 C537 1.429 . S
C529 C527 1.419 . S
C529 C530 1.363 . S
C529 H532 0.929 . S
C530 C529 1.363 . S
C530 C536 1.428 . S
H531 C527 0.930 . S
H532 C529 0.929 . S
S533 N534 1.613 . S
S533 N535 1.610 . S
N534 S533 1.613 . S
N534 C537 1.350 . S
N535 S533 1.610 . S
N535 C536 1.351 . S
C536 C530 1.428 . S
C536 N535 1.351 . S
C536 C537 1.434 . S
C537 C528 1.429 . S
C537 N534 1.350 . S
C537 C536 1.434 . S
C538 C539 1.369 . S
C538 C540 1.419 . S
C538 H542 0.930 . S
C539 C538 1.369 . S
C539 C548 1.429 . S
C540 C538 1.419 . S
C540 C541 1.363 . S
C540 H543 0.929 . S
C541 C540 1.363 . S
C541 C547 1.428 . S
H542 C538 0.930 . S
H543 C540 0.929 . S
S544 N545 1.613 . S
S544 N546 1.610 . S
N545 S544 1.613 . S
N545 C548 1.350 . S
N546 S544 1.610 . S
N546 C547 1.351 . S
C547 C541 1.428 . S
C547 N546 1.351 . S
C547 C548 1.434 . S
C548 C539 1.429 . S
C548 N545 1.350 . S
C548 C547 1.434 . S
C549 C550 1.369 . S
C549 C551 1.419 . S
C549 H553 0.930 . S
C550 C549 1.369 . S
C550 C559 1.429 . S
C551 C549 1.419 . S
C551 C552 1.363 . S
C551 H554 0.929 . S
C552 C551 1.363 . S
C552 C558 1.428 . S
H553 C549 0.930 . S
H554 C551 0.929 . S
S555 N556 1.613 . S
S555 N557 1.610 . S
N556 S555 1.613 . S
N556 C559 1.350 . S
N557 S555 1.610 . S
N557 C558 1.351 . S
C558 C552 1.428 . S
C558 N557 1.351 . S
C558 C559 1.434 . S
C559 C550 1.429 . S
C559 N556 1.350 . S
C559 C558 1.434 . S
C560 C561 1.369 . S
C560 C562 1.419 . S
C560 H564 0.930 . S
C561 C560 1.369 . S
C561 C570 1.429 . S
C562 C560 1.419 . S
C562 C563 1.363 . S
C562 H565 0.929 . S
C563 C562 1.363 . S
C563 C569 1.428 . S
H564 C560 0.930 . S
H565 C562 0.929 . S
S566 N567 1.613 . S
S566 N568 1.610 . S
N567 S566 1.613 . S
N567 C570 1.350 . S
N568 S566 1.610 . S
N568 C569 1.351 . S
C569 C563 1.428 . S
C569 N568 1.351 . S
C569 C570 1.434 . S
C570 C561 1.429 . S
C570 N567 1.350 . S
C570 C569 1.434 . S
C571 C572 1.369 . S
C571 C573 1.419 . S
C571 H575 0.930 . S
C572 C571 1.369 . S
C572 C581 1.429 . S
C573 C571 1.419 . S
C573 C574 1.363 . S
C573 H576 0.929 . S
C574 C573 1.363 . S
C574 C580 1.428 . S
H575 C571 0.930 . S
H576 C573 0.929 . S
S577 N578 1.613 . S
S577 N579 1.610 . S
N578 S577 1.613 . S
N578 C581 1.350 . S
N579 S577 1.610 . S
N579 C580 1.351 . S
C580 C574 1.428 . S
C580 N579 1.351 . S
C580 C581 1.434 . S
C581 C572 1.429 . S
C581 N578 1.350 . S
C581 C580 1.434 . S
C582 C583 1.369 . S
C582 C584 1.419 . S
C582 H586 0.930 . S
C583 C582 1.369 . S
C583 C592 1.429 . S
C584 C582 1.419 . S
C584 C585 1.363 . S
C584 H587 0.929 . S
C585 C584 1.363 . S
C585 C591 1.428 . S
H586 C582 0.930 . S
H587 C584 0.929 . S
S588 N589 1.613 . S
S588 N590 1.610 . S
N589 S588 1.613 . S
N589 C592 1.350 . S
N590 S588 1.610 . S
N590 C591 1.351 . S
C591 C585 1.428 . S
C591 N590 1.351 . S
C591 C592 1.434 . S
C592 C583 1.429 . S
C592 N589 1.350 . S
C592 C591 1.434 . S
C593 C594 1.369 . S
C593 C595 1.419 . S
C593 H597 0.930 . S
C594 C593 1.369 . S
C594 C603 1.429 . S
C595 C593 1.419 . S
C595 C596 1.363 . S
C595 H598 0.929 . S
C596 C595 1.363 . S
C596 C602 1.428 . S
H597 C593 0.930 . S
H598 C595 0.929 . S
S599 N600 1.613 . S
S599 N601 1.610 . S
N600 S599 1.613 . S
N600 C603 1.350 . S
N601 S599 1.610 . S
N601 C602 1.351 . S
C602 C596 1.428 . S
C602 N601 1.351 . S
C602 C603 1.434 . S
C603 C594 1.429 . S
C603 N600 1.350 . S
C603 C602 1.434 . S
C604 C605 1.369 . S
C604 C606 1.419 . S
C604 H608 0.930 . S
C605 C604 1.369 . S
C605 C614 1.429 . S
C606 C604 1.419 . S
C606 C607 1.363 . S
C606 H609 0.929 . S
C607 C606 1.363 . S
C607 C613 1.428 . S
H608 C604 0.930 . S
H609 C606 0.929 . S
S610 N611 1.613 . S
S610 N612 1.610 . S
N611 S610 1.613 . S
N611 C614 1.350 . S
N612 S610 1.610 . S
N612 C613 1.351 . S
C613 C607 1.428 . S
C613 N612 1.351 . S
C613 C614 1.434 . S
C614 C605 1.429 . S
C614 N611 1.350 . S
C614 C613 1.434 . S
C615 C616 1.369 . S
C615 C617 1.419 . S
C615 H619 0.930 . S
C616 C615 1.369 . S
C616 C625 1.429 . S
C617 C615 1.419 . S
C617 C618 1.363 . S
C617 H620 0.929 . S
C618 C617 1.363 . S
C618 C624 1.428 . S
H619 C615 0.930 . S
H620 C617 0.929 . S
S621 N622 1.613 . S
S621 N623 1.610 . S
N622 S621 1.613 . S
N622 C625 1.350 . S
N623 S621 1.610 . S
N623 C624 1.351 . S
C624 C618 1.428 . S
C624 N623 1.351 . S
C624 C625 1.434 . S
C625 C616 1.429 . S
C625 N622 1.350 . S
C625 C624 1.434 . S
C626 C627 1.369 . S
C626 C628 1.419 . S
C626 H630 0.930 . S
C627 C626 1.369 . S
C627 C636 1.429 . S
C628 C626 1.419 . S
C628 C629 1.363 . S
C628 H631 0.929 . S
C629 C628 1.363 . S
C629 C635 1.428 . S
H630 C626 0.930 . S
H631 C628 0.929 . S
S632 N633 1.613 . S
S632 N634 1.610 . S
N633 S632 1.613 . S
N633 C636 1.350 . S
N634 S632 1.610 . S
N634 C635 1.351 . S
C635 C629 1.428 . S
C635 N634 1.351 . S
C635 C636 1.434 . S
C636 C627 1.429 . S
C636 N633 1.350 . S
C636 C635 1.434 . S
C637 C638 1.369 . S
C637 C639 1.419 . S
C637 H641 0.930 . S
C638 C637 1.369 . S
C638 C647 1.429 . S
C639 C637 1.419 . S
C639 C640 1.363 . S
C639 H642 0.929 . S
C640 C639 1.363 . S
C640 C646 1.428 . S
H641 C637 0.930 . S
H642 C639 0.929 . S
S643 N644 1.613 . S
S643 N645 1.610 . S
N644 S643 1.613 . S
N644 C647 1.350 . S
N645 S643 1.610 . S
N645 C646 1.351 . S
C646 C640 1.428 . S
C646 N645 1.351 . S
C646 C647 1.434 . S
C647 C638 1.429 . S
C647 N644 1.350 . S
C647 C646 1.434 . S
C648 C649 1.369 . S
C648 C650 1.419 . S
C648 H652 0.930 . S
C649 C648 1.369 . S
C649 C658 1.429 . S
C650 C648 1.419 . S
C650 C651 1.363 . S
C650 H653 0.929 . S
C651 C650 1.363 . S
C651 C657 1.428 . S
H652 C648 0.930 . S
H653 C650 0.929 . S
S654 N655 1.613 . S
S654 N656 1.610 . S
N655 S654 1.613 . S
N655 C658 1.350 . S
N656 S654 1.610 . S
N656 C657 1.351 . S
C657 C651 1.428 . S
C657 N656 1.351 . S
C657 C658 1.434 . S
C658 C649 1.429 . S
C658 N655 1.350 . S
C658 C657 1.434 . S
C659 C660 1.369 . S
C659 C661 1.419 . S
C659 H663 0.930 . S
C660 C659 1.369 . S
C660 C669 1.429 . S
C661 C659 1.419 . S
C661 C662 1.363 . S
C661 H664 0.929 . S
C662 C661 1.363 . S
C662 C668 1.428 . S
H663 C659 0.930 . S
H664 C661 0.929 . S
S665 N666 1.613 . S
S665 N667 1.610 . S
N666 S665 1.613 . S
N666 C669 1.350 . S
N667 S665 1.610 . S
N667 C668 1.351 . S
C668 C662 1.428 . S
C668 N667 1.351 . S
C668 C669 1.434 . S
C669 C660 1.429 . S
C669 N666 1.350 . S
C669 C668 1.434 . S
C670 C671 1.369 . S
C670 C672 1.419 . S
C670 H674 0.930 . S
C671 C670 1.369 . S
C671 C680 1.429 . S
C672 C670 1.419 . S
C672 C673 1.363 . S
C672 H675 0.929 . S
C673 C672 1.363 . S
C673 C679 1.428 . S
H674 C670 0.930 . S
H675 C672 0.929 . S
S676 N677 1.613 . S
S676 N678 1.610 . S
N677 S676 1.613 . S
N677 C680 1.350 . S
N678 S676 1.610 . S
N678 C679 1.351 . S
C679 C673 1.428 . S
C679 N678 1.351 . S
C679 C680 1.434 . S
C680 C671 1.429 . S
C680 N677 1.350 . S
C680 C679 1.434 . S
C681 C682 1.369 . S
C681 C683 1.419 . S
C681 H685 0.930 . S
C682 C681 1.369 . S
C682 C691 1.429 . S
C683 C681 1.419 . S
C683 C684 1.363 . S
C683 H686 0.929 . S
C684 C683 1.363 . S
C684 C690 1.428 . S
H685 C681 0.930 . S
H686 C683 0.929 . S
S687 N688 1.613 . S
S687 N689 1.610 . S
N688 S687 1.613 . S
N688 C691 1.350 . S
N689 S687 1.610 . S
N689 C690 1.351 . S
C690 C684 1.428 . S
C690 N689 1.351 . S
C690 C691 1.434 . S
C691 C682 1.429 . S
C691 N688 1.350 . S
C691 C690 1.434 . S
C692 C693 1.369 . S
C692 C694 1.419 . S
C692 H696 0.930 . S
C693 C692 1.369 . S
C693 C702 1.429 . S
C694 C692 1.419 . S
C694 C695 1.363 . S
C694 H697 0.929 . S
C695 C694 1.363 . S
C695 C701 1.428 . S
H696 C692 0.930 . S
H697 C694 0.929 . S
S698 N699 1.613 . S
S698 N700 1.610 . S
N699 S698 1.613 . S
N699 C702 1.350 . S
N700 S698 1.610 . S
N700 C701 1.351 . S
C701 C695 1.428 . S
C701 N700 1.351 . S
C701 C702 1.434 . S
C702 C693 1.429 . S
C702 N699 1.350 . S
C702 C701 1.434 . S
C703 C704 1.369 . S
C703 C705 1.419 . S
C703 H707 0.930 . S
C704 C703 1.369 . S
C704 C713 1.429 . S
C705 C703 1.419 . S
C705 C706 1.363 . S
C705 H708 0.929 . S
C706 C705 1.363 . S
C706 C712 1.428 . S
H707 C703 0.930 . S
H708 C705 0.929 . S
S709 N710 1.601 1_556 S
S709 N711 1.608 1_556 S
N710 S709 1.601 1_554 S
N710 C713 1.350 . S
N711 S709 1.608 1_554 S
N711 C712 1.351 . S
C712 C706 1.428 . S
C712 N711 1.351 . S
C712 C713 1.434 . S
C713 C704 1.429 . S
C713 N710 1.350 . S
C713 C712 1.434 . S
C714 C715 1.369 . S
C714 C716 1.419 . S
C714 H718 0.930 . S
C715 C714 1.369 . S
C715 C724 1.429 . S
C716 C714 1.419 . S
C716 C717 1.363 . S
C716 H719 0.929 . S
C717 C716 1.363 . S
C717 C723 1.428 . S
H718 C714 0.930 . S
H719 C716 0.929 . S
S720 N721 1.613 . S
S720 N722 1.610 . S
N721 S720 1.613 . S
N721 C724 1.350 . S
N722 S720 1.610 . S
N722 C723 1.351 . S
C723 C717 1.428 . S
C723 N722 1.351 . S
C723 C724 1.434 . S
C724 C715 1.429 . S
C724 N721 1.350 . S
C724 C723 1.434 . S
C725 C726 1.369 . S
C725 C727 1.419 . S
C725 H729 0.930 . S
C726 C725 1.369 . S
C726 C735 1.429 . S
C727 C725 1.419 . S
C727 C728 1.363 . S
C727 H730 0.929 . S
C728 C727 1.363 . S
C728 C734 1.428 . S
H729 C725 0.930 . S
H730 C727 0.929 . S
S731 N732 1.613 . S
S731 N733 1.610 . S
N732 S731 1.613 . S
N732 C735 1.350 . S
N733 S731 1.610 . S
N733 C734 1.351 . S
C734 C728 1.428 . S
C734 N733 1.351 . S
C734 C735 1.434 . S
C735 C726 1.429 . S
C735 N732 1.350 . S
C735 C734 1.434 . S
C473 C1 1.313 . S
C475 C319 1.432 . S
C484 C40 1.116 . S
C486 C368 1.117 . S
C497 C394 2.478 . S
C495 C99 2.517 . S
C506 C118 2.438 . S
C508 C442 2.384 . S
C519 C354 2.624 . S
C517 C16 2.414 . S
C530 C322 0.925 . S
C528 C60 0.946 . S
C541 C443 1.936 . S
C539 C79 1.979 . S
C552 C411 1.653 . S
C550 C138 1.666 . S
C561 C21 1.722 . S
C563 C439 1.862 . S
C574 C371 2.343 . S
C572 C94 2.426 . S
C583 C133 2.329 . S
C585 C323 2.323 . S
C594 C55 1.133 . S
C596 C408 1.181 . S
C607 C328 1.437 . S
C605 C157 1.320 . S
C616 C196 1.120 . S
C618 C359 1.114 . S
C627 C255 2.516 . S
C629 C403 2.474 . S
C638 C289 2.435 . S
C640 C451 2.377 . S
C649 C172 2.406 . S
C651 C363 2.621 . S
C662 C331 0.928 . S
C660 C216 0.949 . S
C673 C434 1.935 . S
C671 C235 1.982 . S
C684 C402 1.652 . S
C682 C294 1.669 . S
C693 C177 1.755 . S
C695 C448 1.855 . S
C706 C362 2.343 . S
C704 C250 2.426 . S
C717 C314 2.328 . S
C715 C274 2.331 . S
C726 C211 1.152 . S
C728 C399 1.172 . S
