# Generated by pormake.
# Topology zzz, (3,6)-cn, num edge types: 1
# Building blocks:
#     Node 0, Type 0, BuildingBlock: BELTOD_clean_linker_0, # of connection points: 3
#     Node 1, Type 0, BuildingBlock: BELTOD_clean_linker_0, # of connection points: 3
#     Node 2, Type 0, BuildingBlock: BELTOD_clean_linker_0, # of connection points: 3
#     Node 3, Type 0, BuildingBlock: BELTOD_clean_linker_0, # of connection points: 3
#     Node 4, Type 0, BuildingBlock: BELTOD_clean_linker_0, # of connection points: 3
#     Node 5, Type 0, BuildingBlock: BELTOD_clean_linker_0, # of connection points: 3
#     Node 6, Type 0, BuildingBlock: BELTOD_clean_linker_0, # of connection points: 3
#     Node 7, Type 0, BuildingBlock: BELTOD_clean_linker_0, # of connection points: 3
#     Node 8, Type 1, BuildingBlock: CUKXOW_clean_sbu_0, # of connection points: 6
#     Node 9, Type 1, BuildingBlock: CUKXOW_clean_sbu_0, # of connection points: 6
#     Node 10, Type 1, BuildingBlock: CUKXOW_clean_sbu_0, # of connection points: 6
#     Node 11, Type 1, BuildingBlock: CUKXOW_clean_sbu_0, # of connection points: 6
#     Edge 12, Type (0, 1), BuildingBlock: AJUNOK_clean_linker_0, # of connection points: 2
#     Edge 13, Type (0, 1), BuildingBlock: AJUNOK_clean_linker_0, # of connection points: 2
#     Edge 14, Type (0, 1), BuildingBlock: AJUNOK_clean_linker_0, # of connection points: 2
#     Edge 15, Type (0, 1), BuildingBlock: AJUNOK_clean_linker_0, # of connection points: 2
#     Edge 16, Type (0, 1), BuildingBlock: AJUNOK_clean_linker_0, # of connection points: 2
#     Edge 17, Type (0, 1), BuildingBlock: AJUNOK_clean_linker_0, # of connection points: 2
#     Edge 18, Type (0, 1), BuildingBlock: AJUNOK_clean_linker_0, # of connection points: 2
#     Edge 19, Type (0, 1), BuildingBlock: AJUNOK_clean_linker_0, # of connection points: 2
#     Edge 20, Type (0, 1), BuildingBlock: AJUNOK_clean_linker_0, # of connection points: 2
#     Edge 21, Type (0, 1), BuildingBlock: AJUNOK_clean_linker_0, # of connection points: 2
#     Edge 22, Type (0, 1), BuildingBlock: AJUNOK_clean_linker_0, # of connection points: 2
#     Edge 23, Type (0, 1), BuildingBlock: AJUNOK_clean_linker_0, # of connection points: 2
#     Edge 24, Type (0, 1), BuildingBlock: AJUNOK_clean_linker_0, # of connection points: 2
#     Edge 25, Type (0, 1), BuildingBlock: AJUNOK_clean_linker_0, # of connection points: 2
#     Edge 26, Type (0, 1), BuildingBlock: AJUNOK_clean_linker_0, # of connection points: 2
#     Edge 27, Type (0, 1), BuildingBlock: AJUNOK_clean_linker_0, # of connection points: 2
#     Edge 28, Type (0, 1), BuildingBlock: AJUNOK_clean_linker_0, # of connection points: 2
#     Edge 29, Type (0, 1), BuildingBlock: AJUNOK_clean_linker_0, # of connection points: 2
#     Edge 30, Type (0, 1), BuildingBlock: AJUNOK_clean_linker_0, # of connection points: 2
#     Edge 31, Type (0, 1), BuildingBlock: AJUNOK_clean_linker_0, # of connection points: 2
#     Edge 32, Type (0, 1), BuildingBlock: AJUNOK_clean_linker_0, # of connection points: 2
#     Edge 33, Type (0, 1), BuildingBlock: AJUNOK_clean_linker_0, # of connection points: 2
#     Edge 34, Type (0, 1), BuildingBlock: AJUNOK_clean_linker_0, # of connection points: 2
#     Edge 35, Type (0, 1), BuildingBlock: AJUNOK_clean_linker_0, # of connection points: 2
# Relax obj value: 0.190
# Max RMSD: 0.214
# Mean RMSD: 0.175
data_MOF--net-zzz--node1-CUKXOW_clean_sbu_0--node2-BELTOD_clean_linker_0--edge1-AJUNOK_clean_linker_0
_symmetry_space_group_name_H-M    P1
_symmetry_Int_Tables_number       1
_symmetry_cell_setting            triclinic
loop_
_symmetry_equiv_pos_as_xyz
'x, y, z'
_cell_length_a     41.773104
_cell_length_b     41.561518
_cell_length_c     14.777991
_cell_angle_alpha  93.274242
_cell_angle_beta   87.651406
_cell_angle_gamma 95.765617
loop_
_atom_site_label
_atom_site_type_symbol
_atom_site_fract_x
_atom_site_fract_y
_atom_site_fract_z
_atom_type_partial_charge
P0 P 0.74899 0.39283 0.10128 0.0
H1 H 0.75409 0.36853 0.28248 0.0
H2 H 0.78629 0.38996 0.41067 0.0
H3 H 0.8108 0.47899 0.27471 0.0
H4 H 0.77644 0.4585 0.15151 0.0
H5 H 0.72255 0.38683 0.9224 0.0
H6 H 0.67709 0.40895 0.85705 0.0
H7 H 0.65564 0.45751 0.11526 0.0
H8 H 0.70136 0.43527 0.18059 0.0
H9 H 0.80363 0.35517 0.05863 0.0
H10 H 0.77103 0.4447 0.98177 0.0
O11 O 0.73903 0.35331 0.11211 0.0
H12 H 0.85604 0.36956 0.98248 0.0
H13 H 0.82338 0.45925 0.90749 0.0
C14 C 0.76303 0.41182 0.20703 0.0
C15 C 0.76528 0.39318 0.28215 0.0
C16 C 0.78405 0.40536 0.35504 0.0
C17 C 0.8015 0.43615 0.35313 0.0
C18 C 0.79731 0.45552 0.28023 0.0
C19 C 0.77784 0.44363 0.20871 0.0
C20 C 0.7155 0.40979 0.05586 0.0
C21 C 0.70816 0.40237 0.96488 0.0
C22 C 0.68228 0.41503 0.92756 0.0
C23 C 0.66292 0.43488 0.98115 0.0
C24 C 0.67009 0.44203 0.07277 0.0
C25 C 0.69624 0.42951 0.10996 0.0
C26 C 0.78327 0.39858 0.0244 0.0
C27 C 0.80731 0.3773 0.02265 0.0
C28 C 0.83719 0.38553 0.97951 0.0
C29 C 0.84342 0.4154 0.93932 0.0
C30 C 0.81889 0.436 0.93769 0.0
C31 C 0.78897 0.42758 0.97966 0.0
P32 P 0.97563 0.75654 0.11162 0.0
H33 H 0.00731 0.77582 0.2798 0.0
H34 H 0.9926 0.81206 0.40576 0.0
H35 H 0.89681 0.81011 0.30474 0.0
H36 H 0.91185 0.77342 0.1774 0.0
H37 H 0.96541 0.73404 0.9246 0.0
H38 H 0.95092 0.67955 0.86073 0.0
H39 H 0.91953 0.64863 0.12679 0.0
H40 H 0.93497 0.70332 0.19107 0.0
H41 H 0.03213 0.79662 0.04509 0.0
H42 H 0.92897 0.79191 0.02567 0.0
O43 O 0.01174 0.74386 0.12473 0.0
H44 H 0.03801 0.84788 0.97017 0.0
H45 H 0.93481 0.84377 0.95202 0.0
C46 C 0.9607 0.77202 0.21919 0.0
C47 C 0.98273 0.78202 0.2864 0.0
C48 C 0.97426 0.80279 0.35866 0.0
C49 C 0.94371 0.81428 0.36421 0.0
C50 C 0.92066 0.80193 0.30123 0.0
C51 C 0.92917 0.78088 0.2289 0.0
C52 C 0.95121 0.72268 0.06248 0.0
C53 C 0.95396 0.71601 0.9687 0.0
C54 C 0.94562 0.68477 0.93213 0.0
C55 C 0.93478 0.65975 0.98922 0.0
C56 C 0.92836 0.66743 0.08163 0.0
C57 C 0.93692 0.69871 0.11828 0.0
C58 C 0.98012 0.79043 0.04052 0.0
C59 C 0.01078 0.80624 0.02307 0.0
C60 C 0.01414 0.83554 0.98045 0.0
C61 C 0.98684 0.84972 0.95623 0.0
C62 C 0.95616 0.83334 0.97091 0.0
C63 C 0.95285 0.80376 0.01255 0.0
P64 P 0.74175 0.08367 0.14583 0.0
H65 H 0.72974 0.10393 0.33545 0.0
H66 H 0.69054 0.08052 0.44632 0.0
H67 H 0.6774 0.99262 0.27686 0.0
H68 H 0.71665 0.01617 0.16495 0.0
H69 H 0.78005 0.10801 0.99399 0.0
H70 H 0.82857 0.09161 0.91399 0.0
H71 H 0.83053 0.01356 0.09395 0.0
H72 H 0.78146 0.02995 0.17351 0.0
H73 H 0.68039 0.11086 0.15504 0.0
H74 H 0.72993 0.04579 0.97361 0.0
O75 O 0.7498 0.12277 0.17715 0.0
H76 H 0.63299 0.10189 0.06085 0.0
H77 H 0.68283 0.03727 0.87881 0.0
C78 C 0.7261 0.06177 0.24193 0.0
C79 C 0.71972 0.07906 0.3238 0.0
C80 C 0.6973 0.06573 0.38717 0.0
C81 C 0.68116 0.03491 0.36951 0.0
C82 C 0.68999 0.01627 0.2921 0.0
C83 C 0.71242 0.02969 0.22844 0.0
C84 C 0.77731 0.07025 0.08954 0.0
C85 C 0.79088 0.08731 0.01613 0.0
C86 C 0.81855 0.07794 0.97055 0.0
C87 C 0.8332 0.05127 0.99763 0.0
C88 C 0.81941 0.03393 0.07093 0.0
C89 C 0.79154 0.04339 0.11673 0.0
C90 C 0.70899 0.07984 0.06972 0.0
C91 C 0.68129 0.09519 0.09402 0.0
C92 C 0.6542 0.08983 0.04092 0.0
C93 C 0.65455 0.06915 0.96252 0.0
C94 C 0.68228 0.05371 0.93832 0.0
C95 C 0.70923 0.05877 0.99213 0.0
P96 P 0.54721 0.76115 0.25523 0.0
H97 H 0.53013 0.75363 0.44646 0.0
H98 H 0.54832 0.71534 0.54568 0.0
H99 H 0.6316 0.70446 0.36787 0.0
H100 H 0.61297 0.74315 0.26739 0.0
H101 H 0.53666 0.82893 0.28682 0.0
H102 H 0.54748 0.87473 0.19084 0.0
H103 H 0.60647 0.81836 0.00923 0.0
H104 H 0.59518 0.77219 0.10583 0.0
H105 H 0.55439 0.69172 0.2692 0.0
H106 H 0.52709 0.75372 0.06649 0.0
O107 O 0.51009 0.76763 0.29317 0.0
H108 H 0.54768 0.64535 0.16214 0.0
H109 H 0.51868 0.70624 0.95979 0.0
C110 C 0.56975 0.75054 0.34833 0.0
C111 C 0.55317 0.74443 0.43078 0.0
C112 C 0.56365 0.7224 0.48781 0.0
C113 C 0.59077 0.70606 0.46272 0.0
C114 C 0.6102 0.71621 0.38762 0.0
C115 C 0.5998 0.73864 0.3308 0.0
C116 C 0.56438 0.79699 0.20187 0.0
C117 C 0.55275 0.8267 0.22793 0.0
C118 C 0.5592 0.85302 0.17328 0.0
C119 C 0.57766 0.85007 0.09209 0.0
C120 C 0.59196 0.82119 0.07108 0.0
C121 C 0.58555 0.79485 0.12617 0.0
C122 C 0.5429 0.72677 0.17474 0.0
C123 C 0.54792 0.69577 0.20106 0.0
C124 C 0.54388 0.66905 0.13995 0.0
C125 C 0.53354 0.67256 0.05244 0.0
C126 C 0.52741 0.70326 0.02653 0.0
C127 C 0.53219 0.73026 0.08734 0.0
P128 P 0.25423 0.51946 0.33571 0.0
H129 H 0.24515 0.4719 0.18345 0.0
H130 H 0.20841 0.46951 0.05918 0.0
H131 H 0.19416 0.57012 0.1164 0.0
H132 H 0.23252 0.57298 0.23839 0.0
H133 H 0.32081 0.52328 0.27095 0.0
H134 H 0.36982 0.53959 0.35321 0.0
H135 H 0.31435 0.58883 0.56087 0.0
H136 H 0.26546 0.57065 0.48251 0.0
H137 H 0.21961 0.57591 0.39433 0.0
H138 H 0.20962 0.47291 0.42957 0.0
O139 O 0.2641 0.48187 0.34513 0.0
H140 H 0.16576 0.57972 0.46366 0.0
H141 H 0.15594 0.47685 0.49825 0.0
C142 C 0.24107 0.52245 0.22202 0.0
C143 C 0.23534 0.49393 0.16728 0.0
C144 C 0.21397 0.49243 0.09665 0.0
C145 C 0.19747 0.51927 0.08069 0.0
C146 C 0.2062 0.54892 0.12813 0.0
C147 C 0.22809 0.55054 0.19808 0.0
C148 C 0.28925 0.54537 0.37041 0.0
C149 C 0.31932 0.53873 0.33226 0.0
C150 C 0.34739 0.54806 0.3795 0.0
C151 C 0.34571 0.56454 0.4651 0.0
C152 C 0.31619 0.57523 0.49643 0.0
C153 C 0.28808 0.56518 0.45044 0.0
C154 C 0.2189 0.52416 0.40744 0.0
C155 C 0.20636 0.55431 0.41931 0.0
C156 C 0.17569 0.55656 0.45914 0.0
C157 C 0.15708 0.52859 0.48612 0.0
C158 C 0.17017 0.49874 0.47834 0.0
C159 C 0.20085 0.49654 0.43916 0.0
P160 P 0.13881 0.24788 0.36064 0.0
H161 H 0.17888 0.2335 0.19719 0.0
H162 H 0.16643 0.20055 0.05684 0.0
H163 H 0.06636 0.18818 0.14399 0.0
H164 H 0.07879 0.21882 0.28443 0.0
H165 H 0.16552 0.30999 0.44248 0.0
H166 H 0.14191 0.36038 0.48442 0.0
H167 H 0.05234 0.31983 0.36872 0.0
H168 H 0.07676 0.27131 0.32031 0.0
H169 H 0.15985 0.1882 0.41932 0.0
H170 H 0.07719 0.24209 0.46734 0.0
O171 O 0.17861 0.25239 0.37237 0.0
H172 H 0.12961 0.1409 0.48327 0.0
H173 H 0.0464 0.1945 0.52556 0.0
C174 C 0.12964 0.22945 0.25052 0.0
C175 C 0.15418 0.22428 0.1851 0.0
C176 C 0.14713 0.20556 0.1052 0.0
C177 C 0.11539 0.1926 0.08958 0.0
C178 C 0.09085 0.19875 0.15371 0.0
C179 C 0.09798 0.2166 0.23387 0.0
C180 C 0.12298 0.28661 0.3785 0.0
C181 C 0.14112 0.31234 0.42369 0.0
C182 C 0.1275 0.34109 0.44815 0.0
C183 C 0.09516 0.34426 0.42998 0.0
C184 C 0.07752 0.31882 0.38165 0.0
C185 C 0.09148 0.29056 0.35492 0.0
C186 C 0.12087 0.21874 0.43806 0.0
C187 C 0.13552 0.1902 0.44584 0.0
C188 C 0.11801 0.16298 0.48074 0.0
C189 C 0.08525 0.16365 0.50611 0.0
C190 C 0.0715 0.19312 0.50579 0.0
C191 C 0.08922 0.22048 0.47227 0.0
P192 P 0.2879 0.05358 0.29829 0.0
H193 H 0.30979 0.08899 0.13834 0.0
H194 H 0.34463 0.07374 0.01017 0.0
H195 H 0.33013 0.97395 0.08184 0.0
H196 H 0.29602 0.98943 0.21199 0.0
H197 H 0.24396 0.08674 0.41698 0.0
H198 H 0.19148 0.07024 0.48572 0.0
H199 H 0.18904 0.9783 0.3335 0.0
H200 H 0.24167 0.99549 0.2615 0.0
H201 H 0.35241 0.07639 0.35306 0.0
H202 H 0.28422 0.99303 0.39464 0.0
O203 O 0.29448 0.09391 0.30863 0.0
H204 H 0.39339 0.05015 0.42536 0.0
H205 H 0.32543 0.96649 0.46641 0.0
C206 C 0.30039 0.04042 0.18538 0.0
C207 C 0.31307 0.06363 0.12495 0.0
C208 C 0.33309 0.0549 0.05152 0.0
C209 C 0.34075 0.0228 0.03763 0.0
C210 C 0.32519 0.999 0.09239 0.0
C211 C 0.30525 0.00779 0.16604 0.0
C212 C 0.24676 0.04244 0.33378 0.0
C213 C 0.23199 0.06329 0.3965 0.0
C214 C 0.20211 0.05371 0.43661 0.0
C215 C 0.18667 0.0227 0.4165 0.0
C216 C 0.20065 0.00226 0.35044 0.0
C217 C 0.23066 0.01207 0.30938 0.0
C218 C 0.315 0.03707 0.37049 0.0
C219 C 0.34596 0.05284 0.38017 0.0
C220 C 0.36948 0.0377 0.42091 0.0
C221 C 0.36261 0.00641 0.45261 0.0
C222 C 0.3313 0.99088 0.44469 0.0
C223 C 0.30769 0.0061 0.40367 0.0
P224 P 0.3746 0.27361 0.30101 0.0
H225 H 0.33118 0.29655 0.17507 0.0
H226 H 0.34394 0.33032 0.04638 0.0
H227 H 0.44274 0.30831 0.04541 0.0
H228 H 0.42983 0.27435 0.17412 0.0
H229 H 0.38288 0.24818 0.47438 0.0
H230 H 0.39971 0.1975 0.52086 0.0
H231 H 0.4075 0.163 0.24007 0.0
H232 H 0.39169 0.21492 0.19353 0.0
H233 H 0.36466 0.34118 0.33242 0.0
H234 H 0.43828 0.27971 0.38525 0.0
O235 O 0.3361 0.27475 0.33484 0.0
H236 H 0.39734 0.38779 0.39904 0.0
H237 H 0.47024 0.32606 0.45796 0.0
C238 C 0.37956 0.28283 0.1839 0.0
C239 C 0.35519 0.29749 0.14426 0.0
C240 C 0.36252 0.31702 0.07105 0.0
C241 C 0.39434 0.32212 0.03671 0.0
C242 C 0.41793 0.30446 0.06987 0.0
C243 C 0.41055 0.28493 0.14327 0.0
C244 C 0.38667 0.23546 0.33071 0.0
C245 C 0.38823 0.22975 0.4227 0.0
C246 C 0.3974 0.20054 0.44919 0.0
C247 C 0.40431 0.17597 0.38415 0.0
C248 C 0.40225 0.18152 0.29158 0.0
C249 C 0.39331 0.21111 0.26498 0.0
C250 C 0.39824 0.30672 0.35793 0.0
C251 C 0.38748 0.33757 0.36064 0.0
C252 C 0.40621 0.36416 0.39869 0.0
C253 C 0.43589 0.36035 0.43645 0.0
C254 C 0.44729 0.32962 0.43044 0.0
C255 C 0.42874 0.30303 0.39041 0.0
Tb256 Tb 0.99204 0.98736 0.6468 0.0
C257 C 0.06622 0.00397 0.61775 0.0
Tb258 Tb 0.02685 0.03808 0.77905 0.0
O259 O 0.0021 0.019 0.53368 0.0
O260 O 0.9976 0.03823 0.6663 0.0
O261 O 0.04162 0.98185 0.60112 0.0
C262 C 0.0616 0.08918 0.85423 0.0
O263 O 0.06424 0.02924 0.67615 0.0
C264 C 0.0137 0.97998 0.83677 0.0
C265 C 0.95239 0.02407 0.8046 0.0
O266 O 0.06677 0.05919 0.86174 0.0
O267 O 0.03653 0.09021 0.80612 0.0
O268 O 0.0154 0.00589 0.8906 0.0
O269 O 0.02219 0.98735 0.7575 0.0
O270 O 0.97778 0.04515 0.82083 0.0
O271 O 0.95325 0.99883 0.74505 0.0
C272 C 0.96065 0.93308 0.57759 0.0
O273 O 0.95917 0.96186 0.54898 0.0
O274 O 0.97984 0.93504 0.64489 0.0
C275 C 0.00529 0.04529 0.58599 0.0
Tb276 Tb 0.49582 0.03539 0.63255 0.0
C277 C 0.5602 0.00766 0.56985 0.0
Tb278 Tb 0.51729 0.97939 0.73616 0.0
O279 O 0.53618 0.06878 0.67943 0.0
O280 O 0.51758 0.03025 0.7566 0.0
O281 O 0.53563 0.02249 0.54404 0.0
C282 C 0.54745 0.94161 0.83757 0.0
O283 O 0.55916 0.99186 0.64586 0.0
C284 C 0.47273 0.96401 0.61531 0.0
C285 C 0.45317 0.00739 0.79909 0.0
O286 O 0.53509 0.93293 0.75961 0.0
O287 O 0.54264 0.97153 0.85839 0.0
O288 O 0.47461 0.94837 0.68837 0.0
O289 O 0.49641 0.98499 0.61157 0.0
O290 O 0.47782 0.99294 0.82581 0.0
O291 O 0.45378 0.02113 0.71997 0.0
C292 C 0.46293 0.07383 0.54154 0.0
O293 O 0.46445 0.07411 0.62892 0.0
O294 O 0.48045 0.05224 0.50448 0.0
C295 C 0.54034 0.0523 0.74928 0.0
Tb296 Tb 0.52791 0.53158 0.68238 0.0
C297 C 0.45272 0.54058 0.67836 0.0
Tb298 Tb 0.47955 0.49134 0.80395 0.0
O299 O 0.53271 0.48821 0.59014 0.0
O300 O 0.49059 0.49417 0.66524 0.0
O301 O 0.48279 0.55264 0.65846 0.0
C302 C 0.44711 0.43757 0.86252 0.0
O303 O 0.44607 0.51437 0.7259 0.0
C304 C 0.49811 0.54871 0.87092 0.0
C305 C 0.55558 0.48516 0.81399 0.0
O306 O 0.44306 0.46685 0.89386 0.0
O307 O 0.46949 0.43876 0.79915 0.0
O308 O 0.47094 0.53278 0.89508 0.0
O309 O 0.51498 0.53046 0.82234 0.0
O310 O 0.5255 0.47432 0.83746 0.0
O311 O 0.56253 0.50888 0.75761 0.0
C312 C 0.56334 0.58284 0.61695 0.0
O313 O 0.557 0.55507 0.57307 0.0
O314 O 0.54966 0.58155 0.69713 0.0
C315 C 0.50432 0.47458 0.61345 0.0
Tb316 Tb 0.96957 0.48877 0.64875 0.0
C317 C 0.02738 0.44614 0.61237 0.0
Tb318 Tb 0.02655 0.49701 0.78066 0.0
O319 O 0.99924 0.50796 0.5359 0.0
O320 O 0.0116 0.52083 0.66884 0.0
O321 O 0.99666 0.44896 0.59678 0.0
C322 C 0.08158 0.50375 0.86961 0.0
O323 O 0.04405 0.46444 0.67401 0.0
C324 C 0.9737 0.46327 0.83605 0.0
C325 C 0.97126 0.54164 0.81399 0.0
O326 O 0.06016 0.47892 0.8702 0.0
O327 O 0.07214 0.52499 0.81795 0.0
O328 O 0.99308 0.48044 0.89039 0.0
O329 O 0.98544 0.46414 0.75666 0.0
O330 O 0.00228 0.53897 0.82442 0.0
O331 O 0.95324 0.52258 0.75649 0.0
C332 C 0.91226 0.47392 0.57485 0.0
O333 O 0.92799 0.50253 0.57904 0.0
O334 O 0.92888 0.4538 0.61194 0.0
C335 C 0.02162 0.52213 0.58718 0.0
C336 C 0.12832 0.00074 0.42447 0.0
C337 C 0.15688 0.01183 0.46867 0.0
C338 C 0.0989 0.99563 0.47389 0.0
C339 C 0.09735 0.00182 0.56846 0.0
H340 H 0.12841 0.99775 0.35117 0.0
H341 H 0.07706 0.98892 0.43739 0.0
S342 S 0.16622 0.02503 0.71693 0.0
N343 N 0.18244 0.02393 0.61318 0.0
N344 N 0.12726 0.01523 0.70528 0.0
C345 C 0.1261 0.01046 0.61361 0.0
C346 C 0.15587 0.01526 0.56385 0.0
C347 C 0.44383 0.13421 0.37486 0.0
C348 C 0.41559 0.14571 0.41429 0.0
C349 C 0.45825 0.10941 0.41346 0.0
C350 C 0.44518 0.09593 0.49344 0.0
H351 H 0.45582 0.1456 0.31686 0.0
H352 H 0.48071 0.10213 0.38366 0.0
S353 S 0.36814 0.11237 0.61143 0.0
N354 N 0.37219 0.13747 0.52809 0.0
N355 N 0.40036 0.09225 0.60334 0.0
C356 C 0.41594 0.10561 0.5299 0.0
C357 C 0.40081 0.13011 0.48941 0.0
C358 C 0.40476 0.57293 0.49721 0.0
C359 C 0.37276 0.56472 0.5276 0.0
C360 C 0.43078 0.56738 0.54963 0.0
C361 C 0.42567 0.55301 0.63373 0.0
H362 H 0.40971 0.58249 0.43085 0.0
H363 H 0.45497 0.57254 0.52141 0.0
S364 S 0.3466 0.52953 0.74741 0.0
N365 N 0.33757 0.54322 0.64996 0.0
N366 N 0.38627 0.53349 0.74861 0.0
C367 C 0.39383 0.54656 0.66725 0.0
C368 C 0.36743 0.55222 0.61417 0.0
C369 C 0.08482 0.38252 0.56161 0.0
C370 C 0.07884 0.37201 0.47115 0.0
C371 C 0.0681 0.40661 0.60583 0.0
C372 C 0.0442 0.4208 0.56224 0.0
H373 H 0.10195 0.37143 0.59986 0.0
H374 H 0.07346 0.41359 0.67577 0.0
S375 S 0.02067 0.40388 0.3239 0.0
N376 N 0.04888 0.37958 0.33718 0.0
N377 N 0.01605 0.42376 0.42283 0.0
C378 C 0.038 0.4109 0.47174 0.0
C379 C 0.05566 0.3868 0.42561 0.0
C380 C 0.88886 0.0674 0.9387 0.0
C381 C 0.86358 0.0429 0.95107 0.0
C382 C 0.9174 0.06091 0.89168 0.0
C383 C 0.92178 0.02968 0.85437 0.0
H384 H 0.88655 0.09188 0.96571 0.0
H385 H 0.936 0.08076 0.88363 0.0
S386 S 0.86316 0.95674 0.87028 0.0
N387 N 0.84478 0.98605 0.92388 0.0
N388 N 0.89868 0.97364 0.83556 0.0
C389 C 0.89682 0.00478 0.86714 0.0
C390 C 0.86772 0.01141 0.91571 0.0
C391 C 0.56692 0.86417 0.93528 0.0
C392 C 0.57681 0.87451 0.02304 0.0
C393 C 0.55909 0.88634 0.87388 0.0
C394 C 0.56079 0.91963 0.89802 0.0
H395 H 0.56327 0.83859 0.91566 0.0
H396 H 0.55014 0.8771 0.8087 0.0
S397 S 0.59037 0.95965 0.11383 0.0
N398 N 0.59169 0.92059 0.12685 0.0
N399 N 0.57674 0.96235 0.01145 0.0
C400 C 0.5728 0.93057 0.98303 0.0
C401 C 0.58084 0.90796 0.04562 0.0
C402 C 0.63983 0.46456 0.8605 0.0
C403 C 0.63526 0.44785 0.94083 0.0
C404 C 0.61396 0.47654 0.82008 0.0
C405 C 0.58243 0.47184 0.85773 0.0
H406 H 0.66366 0.46863 0.82899 0.0
H407 H 0.61875 0.48936 0.75843 0.0
S408 S 0.55783 0.4289 0.06729 0.0
N409 N 0.59706 0.42676 0.05622 0.0
N410 N 0.54831 0.44905 0.98079 0.0
C411 C 0.57758 0.45492 0.93806 0.0
C412 C 0.60402 0.44304 0.97954 0.0
C413 C 0.92526 0.6144 0.87112 0.0
C414 C 0.9375 0.62582 0.95563 0.0
C415 C 0.9345 0.58566 0.82784 0.0
C416 C 0.95673 0.56787 0.8671 0.0
H417 H 0.9098 0.62866 0.83622 0.0
H418 H 0.92588 0.57854 0.76078 0.0
S419 S 0.9928 0.58518 0.09187 0.0
N420 N 0.97073 0.61537 0.08028 0.0
N421 N 0.98782 0.56145 0.9991 0.0
C422 C 0.9673 0.57775 0.95417 0.0
C423 C 0.95772 0.60672 0.99851 0.0
C424 C 0.04222 0.13243 0.59851 0.0
C425 C 0.06473 0.13328 0.52496 0.0
C426 C 0.02218 0.10414 0.61574 0.0
C427 C 0.02417 0.07564 0.56083 0.0
H428 H 0.04023 0.15371 0.64345 0.0
H429 H 0.005 0.10456 0.67259 0.0
S430 S 0.0763 0.06614 0.35361 0.0
N431 N 0.0855 0.10392 0.39154 0.0
N432 N 0.04857 0.05062 0.42581 0.0
C433 C 0.04564 0.07647 0.48513 0.0
C434 C 0.06589 0.10526 0.46712 0.0
C435 C 0.41926 0.99208 0.44444 0.0
C436 C 0.38885 0.98997 0.48949 0.0
C437 C 0.44581 0.98104 0.48303 0.0
C438 C 0.44298 0.96713 0.56765 0.0
H439 H 0.42289 0.00346 0.38017 0.0
H440 H 0.46913 0.98486 0.44829 0.0
S441 S 0.36801 0.95197 0.70826 0.0
N442 N 0.35689 0.97036 0.62018 0.0
N443 N 0.40687 0.94849 0.6912 0.0
C444 C 0.41229 0.96231 0.61015 0.0
C445 C 0.38518 0.97405 0.57144 0.0
C446 C 0.48704 0.39652 0.46701 0.0
C447 C 0.45392 0.38832 0.48511 0.0
C448 C 0.50349 0.42426 0.50937 0.0
C449 C 0.48734 0.44466 0.57104 0.0
H450 H 0.50013 0.38184 0.41835 0.0
H451 H 0.52886 0.42995 0.4929 0.0
S452 S 0.40088 0.43239 0.64508 0.0
N453 N 0.40626 0.40135 0.5736 0.0
N454 N 0.43615 0.45402 0.64816 0.0
C455 C 0.45429 0.43623 0.5902 0.0
C456 C 0.43786 0.40791 0.54867 0.0
C457 C 0.11181 0.54518 0.58939 0.0
C458 C 0.12254 0.52937 0.50895 0.0
C459 C 0.07879 0.54398 0.61285 0.0
C460 C 0.05576 0.52698 0.55657 0.0
H461 H 0.12902 0.55784 0.63513 0.0
H462 H 0.07123 0.55618 0.67555 0.0
S463 S 0.07213 0.48539 0.33256 0.0
N464 N 0.10802 0.49899 0.3692 0.0
N465 N 0.04615 0.49679 0.41229 0.0
C466 C 0.06635 0.51271 0.47342 0.0
C467 C 0.09977 0.51377 0.45008 0.0
C468 C 0.01117 0.88909 0.84544 0.0
C469 C 0.99068 0.88255 0.92139 0.0
C470 C 0.0178 0.9207 0.8169 0.0
C471 C 0.00465 0.9468 0.8645 0.0
H472 H 0.02248 0.86968 0.80872 0.0
H473 H 0.03408 0.92485 0.75883 0.0
S474 S 0.94835 0.94228 0.06473 0.0
N475 N 0.95623 0.90447 0.04134 0.0
N476 N 0.96907 0.96404 0.98811 0.0
C477 C 0.98357 0.94053 0.93918 0.0
C478 C 0.97643 0.9083 0.96745 0.0
C479 C 0.59592 0.05228 0.94505 0.0
C480 C 0.62592 0.06377 0.90622 0.0
C481 C 0.56827 0.04797 0.89331 0.0
C482 C 0.56971 0.05574 0.8019 0.0
H483 H 0.59388 0.04652 0.01578 0.0
H484 H 0.54554 0.03918 0.92546 0.0
S485 S 0.64268 0.08528 0.66777 0.0
N486 N 0.65568 0.08158 0.77039 0.0
N487 N 0.60359 0.07428 0.6737 0.0
C488 C 0.59959 0.06692 0.76214 0.0
C489 C 0.62778 0.07069 0.81421 0.0
C490 C 0.49384 0.63334 0.97388 0.0
C491 C 0.52606 0.64337 0.99283 0.0
C492 C 0.48522 0.60286 0.93176 0.0
C493 C 0.50861 0.58173 0.90595 0.0
H494 H 0.47502 0.64848 0.99584 0.0
H495 H 0.45997 0.59549 0.92115 0.0
S496 S 0.59657 0.59782 0.93481 0.0
N497 N 0.58163 0.63076 0.97924 0.0
N498 N 0.56551 0.57357 0.89788 0.0
C499 C 0.54111 0.59214 0.9204 0.0
C500 C 0.54982 0.62298 0.96464 0.0
C501 C 0.89209 0.45442 0.95582 0.0
C502 C 0.87648 0.42707 0.91002 0.0
C503 C 0.92383 0.46569 0.93212 0.0
C504 C 0.94072 0.45029 0.86083 0.0
H505 H 0.87977 0.46694 0.01112 0.0
H506 H 0.93504 0.48688 0.96898 0.0
S507 S 0.91061 0.37765 0.72043 0.0
N508 N 0.88012 0.38464 0.79121 0.0
N509 N 0.93992 0.4061 0.74559 0.0
C510 C 0.92538 0.42297 0.81433 0.0
C511 C 0.89318 0.41122 0.83934 0.0
C512 C 0.11865 0.13846 0.01222 0.0
C513 C 0.10755 0.16927 0.01319 0.0
C514 C 0.10471 0.11284 0.95666 0.0
C515 C 0.07935 0.11738 0.90048 0.0
H516 H 0.13658 0.13359 0.05925 0.0
H517 H 0.11275 0.08902 0.96123 0.0
S518 S 0.04519 0.19486 0.86935 0.0
N519 N 0.0724 0.20392 0.94717 0.0
N520 N 0.04637 0.15593 0.8415 0.0
C521 C 0.06986 0.14873 0.89578 0.0
C522 C 0.08393 0.17468 0.95265 0.0
C523 C 0.36996 0.02671 0.88649 0.0
C524 C 0.36793 0.01541 0.97453 0.0
C525 C 0.3973 0.02339 0.82989 0.0
C526 C 0.42382 0.00871 0.85913 0.0
H527 H 0.35044 0.03869 0.86168 0.0
H528 H 0.39769 0.03283 0.76299 0.0
S529 S 0.43042 0.97535 0.08494 0.0
N530 N 0.39472 0.98923 0.08905 0.0
N531 N 0.44586 0.98241 0.98257 0.0
C532 C 0.42177 0.99672 0.94666 0.0
C533 C 0.3939 0.00018 0.00429 0.0
C534 C 0.39661 0.38123 0.01532 0.0
C535 C 0.40418 0.35039 0.9819 0.0
C536 C 0.4097 0.4093 0.97412 0.0
C537 C 0.43079 0.40754 0.898 0.0
H538 H 0.38169 0.38382 0.07652 0.0
H539 H 0.40414 0.43257 0.00416 0.0
S540 S 0.455 0.33247 0.77749 0.0
N541 N 0.43181 0.31954 0.86388 0.0
N542 N 0.4563 0.37238 0.7854 0.0
C543 C 0.4372 0.3768 0.86084 0.0
C544 C 0.42397 0.34818 0.90322 0.0
C545 C 0.16383 0.53616 0.95687 0.0
C546 C 0.1683 0.51493 0.02515 0.0
C547 C 0.13574 0.53243 0.90625 0.0
C548 C 0.1112 0.50742 0.92252 0.0
H549 H 0.18221 0.55564 0.94228 0.0
H550 H 0.13327 0.54916 0.85396 0.0
S551 S 0.10985 0.44751 0.0999 0.0
N552 N 0.14472 0.46957 0.11062 0.0
N553 N 0.09252 0.46225 0.01503 0.0
C554 C 0.11522 0.4864 0.99151 0.0
C555 C 0.1436 0.49026 0.04299 0.0
C556 C 0.94863 0.84364 0.51586 0.0
C557 C 0.93872 0.84285 0.42589 0.0
C558 C 0.95329 0.87293 0.56744 0.0
C559 C 0.94816 0.90239 0.53077 0.0
H560 H 0.9549 0.82176 0.54441 0.0
H561 H 0.96287 0.87268 0.63441 0.0
S562 S 0.91793 0.91292 0.30298 0.0
N563 N 0.92087 0.87367 0.30552 0.0
N564 N 0.929 0.92865 0.40335 0.0
C565 C 0.93541 0.90161 0.4441 0.0
C566 C 0.9308 0.87179 0.39136 0.0
C567 C 0.62428 0.04313 0.40582 0.0
C568 C 0.65069 0.02588 0.41955 0.0
C569 C 0.59491 0.03615 0.45245 0.0
C570 C 0.59084 0.0118 0.51557 0.0
H571 H 0.62646 0.06239 0.3588 0.0
H572 H 0.57555 0.05069 0.44039 0.0
S573 S 0.65293 0.95895 0.573 0.0
N574 N 0.67123 0.98286 0.49722 0.0
N575 N 0.61595 0.96972 0.58712 0.0
C576 C 0.61712 0.99396 0.52881 0.0
C577 C 0.64706 0.00096 0.48013 0.0
C578 C 0.58978 0.67177 0.59671 0.0
C579 C 0.59357 0.67447 0.50235 0.0
C580 C 0.5823 0.64153 0.63391 0.0
C581 C 0.57831 0.61295 0.57805 0.0
H582 H 0.59045 0.69335 0.64158 0.0
H583 H 0.57773 0.6408 0.70652 0.0
S584 S 0.5893 0.60642 0.32768 0.0
N585 N 0.59554 0.64558 0.35451 0.0
N586 N 0.58201 0.58881 0.42477 0.0
C587 C 0.58473 0.61498 0.48442 0.0
C588 C 0.59228 0.64577 0.44645 0.0
C589 C 0.8476 0.42322 0.4438 0.0
C590 C 0.82711 0.44608 0.41968 0.0
C591 C 0.87434 0.43233 0.49704 0.0
C592 C 0.88207 0.46475 0.52694 0.0
H593 H 0.84383 0.39823 0.41832 0.0
H594 H 0.8898 0.41399 0.51169 0.0
S595 S 0.83435 0.53337 0.49354 0.0
N596 N 0.81463 0.50209 0.43944 0.0
N597 N 0.86587 0.51936 0.53589 0.0
C598 C 0.8613 0.48769 0.50672 0.0
C599 C 0.83362 0.47833 0.45393 0.0
loop_
_geom_bond_atom_site_label_1
_geom_bond_atom_site_label_2
_geom_bond_distance
_geom_bond_site_symmetry_2
_ccdc_geom_bond_type
P0 O11 1.490 . S
P0 C14 1.812 . S
P0 C20 1.803 . S
P0 C26 1.819 1_554 S
H1 C15 0.941 . S
H2 C16 0.939 . S
H3 C18 0.940 . S
H4 C19 0.940 . S
H5 C21 0.939 . S
H6 C22 0.942 . S
H7 C24 0.940 . S
H8 C25 0.939 . S
H9 C27 0.941 1_554 S
H10 C31 0.939 . S
O11 P0 1.490 . S
H12 C28 0.939 . S
H13 C30 0.940 . S
C14 P0 1.812 . S
C14 C15 1.389 . S
C14 C19 1.391 . S
C15 H1 0.941 . S
C15 C14 1.389 . S
C15 C16 1.397 . S
C16 H2 0.939 . S
C16 C15 1.397 . S
C16 C17 1.378 . S
C17 C16 1.378 . S
C17 C18 1.378 . S
C18 H3 0.940 . S
C18 C17 1.378 . S
C18 C19 1.396 . S
C19 H4 0.940 . S
C19 C14 1.391 . S
C19 C18 1.396 . S
C20 P0 1.803 . S
C20 C21 1.378 1_554 S
C20 C25 1.400 . S
C21 H5 0.939 . S
C21 C20 1.378 1_556 S
C21 C22 1.361 . S
C22 H6 0.942 . S
C22 C21 1.361 . S
C22 C23 1.370 . S
C23 C22 1.370 . S
C23 C24 1.403 1_556 S
C24 H7 0.940 . S
C24 C23 1.403 1_554 S
C24 C25 1.389 . S
C25 H8 0.939 . S
C25 C20 1.400 . S
C25 C24 1.389 . S
C26 P0 1.819 1_556 S
C26 C27 1.391 . S
C26 C31 1.391 . S
C27 H9 0.941 1_556 S
C27 C26 1.391 . S
C27 C28 1.396 . S
C28 H12 0.939 . S
C28 C27 1.396 . S
C28 C29 1.397 . S
C29 C28 1.397 . S
C29 C30 1.385 . S
C30 H13 0.940 . S
C30 C29 1.385 . S
C30 C31 1.388 . S
C31 H10 0.939 . S
C31 C26 1.391 . S
C31 C30 1.388 . S
P32 O43 1.490 . S
P32 C46 1.812 . S
P32 C52 1.803 . S
P32 C58 1.819 1_554 S
H33 C47 0.941 . S
H34 C48 0.939 . S
H35 C50 0.940 . S
H36 C51 0.940 . S
H37 C53 0.939 . S
H38 C54 0.942 . S
H39 C56 0.940 . S
H40 C57 0.939 . S
H41 C59 0.941 . S
H42 C63 0.939 . S
O43 P32 1.490 . S
H44 C60 0.939 . S
H45 C62 0.940 . S
C46 P32 1.812 . S
C46 C47 1.389 . S
C46 C51 1.391 . S
C47 H33 0.941 . S
C47 C46 1.389 . S
C47 C48 1.397 . S
C48 H34 0.939 . S
C48 C47 1.397 . S
C48 C49 1.378 . S
C49 C48 1.378 . S
C49 C50 1.378 . S
C50 H35 0.940 . S
C50 C49 1.378 . S
C50 C51 1.396 . S
C51 H36 0.940 . S
C51 C46 1.391 . S
C51 C50 1.396 . S
C52 P32 1.803 . S
C52 C53 1.378 1_554 S
C52 C57 1.400 . S
C53 H37 0.939 . S
C53 C52 1.378 1_556 S
C53 C54 1.361 . S
C54 H38 0.942 . S
C54 C53 1.361 . S
C54 C55 1.369 . S
C55 C54 1.369 . S
C55 C56 1.404 1_556 S
C56 H39 0.940 . S
C56 C55 1.404 1_554 S
C56 C57 1.389 . S
C57 H40 0.939 . S
C57 C52 1.400 . S
C57 C56 1.389 . S
C58 P32 1.819 1_556 S
C58 C59 1.391 . S
C58 C63 1.391 . S
C59 H41 0.941 . S
C59 C58 1.391 . S
C59 C60 1.396 . S
C60 H44 0.939 . S
C60 C59 1.396 . S
C60 C61 1.397 . S
C61 C60 1.397 . S
C61 C62 1.385 . S
C62 H45 0.940 . S
C62 C61 1.385 . S
C62 C63 1.388 . S
C63 H42 0.939 . S
C63 C58 1.391 . S
C63 C62 1.388 . S
P64 O75 1.490 . S
P64 C78 1.812 . S
P64 C84 1.803 . S
P64 C90 1.819 . S
H65 C79 0.941 . S
H66 C80 0.939 . S
H67 C82 0.940 . S
H68 C83 0.949 . S
H69 C85 0.939 . S
H70 C86 0.942 1_556 S
H71 C88 0.940 . S
H72 C89 0.958 . S
H73 C91 0.941 . S
H74 C95 0.926 1_565 S
O75 P64 1.490 . S
H76 C92 0.939 . S
H77 C94 0.940 . S
C78 P64 1.812 . S
C78 C79 1.389 . S
C78 C83 1.376 1_545 S
C79 H65 0.941 . S
C79 C78 1.389 . S
C79 C80 1.397 . S
C80 H66 0.939 . S
C80 C79 1.397 . S
C80 C81 1.378 . S
C81 C80 1.378 . S
C81 C82 1.378 1_545 S
C82 H67 0.940 . S
C82 C81 1.378 1_565 S
C82 C83 1.403 . S
C83 H68 0.949 . S
C83 C78 1.376 1_565 S
C83 C82 1.403 . S
C84 P64 1.803 . S
C84 C85 1.378 . S
C84 C89 1.367 1_545 S
C85 H69 0.939 . S
C85 C84 1.378 . S
C85 C86 1.361 . S
C86 H70 0.942 1_554 S
C86 C85 1.361 . S
C86 C87 1.369 . S
C87 C86 1.369 . S
C87 C88 1.404 1_545 S
C88 H71 0.940 . S
C88 C87 1.404 1_565 S
C88 C89 1.404 . S
C89 H72 0.958 . S
C89 C84 1.367 1_565 S
C89 C88 1.404 . S
C90 P64 1.819 . S
C90 C91 1.391 . S
C90 C95 1.391 1_554 S
C91 H73 0.941 . S
C91 C90 1.391 . S
C91 C92 1.396 1_554 S
C92 H76 0.939 . S
C92 C91 1.396 1_556 S
C92 C93 1.397 . S
C93 C92 1.397 . S
C93 C94 1.385 1_545 S
C94 H77 0.940 . S
C94 C93 1.385 1_565 S
C94 C95 1.388 1_565 S
C95 H74 0.926 1_545 S
C95 C90 1.391 1_556 S
C95 C94 1.388 1_545 S
P96 O107 1.490 . S
P96 C110 1.812 . S
P96 C116 1.803 . S
P96 C122 1.819 . S
H97 C111 0.941 . S
H98 C112 0.939 . S
H99 C114 0.940 . S
H100 C115 0.940 . S
H101 C117 0.939 . S
H102 C118 0.942 1_556 S
H103 C120 0.940 . S
H104 C121 0.939 . S
H105 C123 0.941 . S
H106 C127 0.939 . S
O107 P96 1.490 . S
H108 C124 0.939 . S
H109 C126 0.940 . S
C110 P96 1.812 . S
C110 C111 1.389 . S
C110 C115 1.391 . S
C111 H97 0.941 . S
C111 C110 1.389 . S
C111 C112 1.397 . S
C112 H98 0.939 . S
C112 C111 1.397 . S
C112 C113 1.378 . S
C113 C112 1.378 . S
C113 C114 1.378 . S
C114 H99 0.940 . S
C114 C113 1.378 . S
C114 C115 1.396 . S
C115 H100 0.940 . S
C115 C110 1.391 . S
C115 C114 1.396 . S
C116 P96 1.803 . S
C116 C117 1.378 . S
C116 C121 1.400 . S
C117 H101 0.939 . S
C117 C116 1.378 . S
C117 C118 1.361 . S
C118 H102 0.942 1_554 S
C118 C117 1.361 . S
C118 C119 1.369 . S
C119 C118 1.369 . S
C119 C120 1.404 . S
C120 H103 0.940 . S
C120 C119 1.404 . S
C120 C121 1.389 . S
C121 H104 0.939 . S
C121 C116 1.400 . S
C121 C120 1.389 . S
C122 P96 1.819 . S
C122 C123 1.391 . S
C122 C127 1.391 1_554 S
C123 H105 0.941 . S
C123 C122 1.391 . S
C123 C124 1.396 1_554 S
C124 H108 0.939 . S
C124 C123 1.396 1_556 S
C124 C125 1.397 . S
C125 C124 1.397 . S
C125 C126 1.385 . S
C126 H109 0.940 . S
C126 C125 1.385 . S
C126 C127 1.388 . S
C127 H106 0.939 . S
C127 C122 1.391 1_556 S
C127 C126 1.388 . S
P128 O139 1.490 . S
P128 C142 1.812 . S
P128 C148 1.803 . S
P128 C154 1.819 . S
H129 C143 0.941 . S
H130 C144 0.939 . S
H131 C146 0.940 . S
H132 C147 0.940 . S
H133 C149 0.939 . S
H134 C150 0.942 . S
H135 C152 0.940 . S
H136 C153 0.939 . S
H137 C155 0.941 . S
H138 C159 0.939 . S
O139 P128 1.490 . S
H140 C156 0.939 . S
H141 C158 0.940 . S
C142 P128 1.812 . S
C142 C143 1.389 . S
C142 C147 1.391 . S
C143 H129 0.941 . S
C143 C142 1.389 . S
C143 C144 1.397 . S
C144 H130 0.939 . S
C144 C143 1.397 . S
C144 C145 1.378 . S
C145 C144 1.378 . S
C145 C146 1.378 . S
C146 H131 0.940 . S
C146 C145 1.378 . S
C146 C147 1.396 . S
C147 H132 0.940 . S
C147 C142 1.391 . S
C147 C146 1.396 . S
C148 P128 1.803 . S
C148 C149 1.378 . S
C148 C153 1.400 . S
C149 H133 0.939 . S
C149 C148 1.378 . S
C149 C150 1.361 . S
C150 H134 0.942 . S
C150 C149 1.361 . S
C150 C151 1.369 . S
C151 C150 1.369 . S
C151 C152 1.404 . S
C152 H135 0.940 . S
C152 C151 1.404 . S
C152 C153 1.389 . S
C153 H136 0.939 . S
C153 C148 1.400 . S
C153 C152 1.389 . S
C154 P128 1.819 . S
C154 C155 1.391 . S
C154 C159 1.391 . S
C155 H137 0.941 . S
C155 C154 1.391 . S
C155 C156 1.396 . S
C156 H140 0.939 . S
C156 C155 1.396 . S
C156 C157 1.397 . S
C157 C156 1.397 . S
C157 C158 1.385 . S
C158 H141 0.940 . S
C158 C157 1.385 . S
C158 C159 1.388 . S
C159 H138 0.939 . S
C159 C154 1.391 . S
C159 C158 1.388 . S
P160 O171 1.490 . S
P160 C174 1.812 . S
P160 C180 1.803 . S
P160 C186 1.819 . S
H161 C175 0.941 . S
H162 C176 0.939 . S
H163 C178 0.940 . S
H164 C179 0.940 . S
H165 C181 0.939 . S
H166 C182 0.942 . S
H167 C184 0.940 . S
H168 C185 0.939 . S
H169 C187 0.941 . S
H170 C191 0.939 . S
O171 P160 1.490 . S
H172 C188 0.939 . S
H173 C190 0.940 . S
C174 P160 1.812 . S
C174 C175 1.389 . S
C174 C179 1.391 . S
C175 H161 0.941 . S
C175 C174 1.389 . S
C175 C176 1.397 . S
C176 H162 0.939 . S
C176 C175 1.397 . S
C176 C177 1.378 . S
C177 C176 1.378 . S
C177 C178 1.378 . S
C178 H163 0.940 . S
C178 C177 1.378 . S
C178 C179 1.396 . S
C179 H164 0.940 . S
C179 C174 1.391 . S
C179 C178 1.396 . S
C180 P160 1.803 . S
C180 C181 1.378 . S
C180 C185 1.400 . S
C181 H165 0.939 . S
C181 C180 1.378 . S
C181 C182 1.361 . S
C182 H166 0.942 . S
C182 C181 1.361 . S
C182 C183 1.369 . S
C183 C182 1.369 . S
C183 C184 1.404 . S
C184 H167 0.940 . S
C184 C183 1.404 . S
C184 C185 1.389 . S
C185 H168 0.939 . S
C185 C180 1.400 . S
C185 C184 1.389 . S
C186 P160 1.819 . S
C186 C187 1.391 . S
C186 C191 1.391 . S
C187 H169 0.941 . S
C187 C186 1.391 . S
C187 C188 1.396 . S
C188 H172 0.939 . S
C188 C187 1.396 . S
C188 C189 1.397 . S
C189 C188 1.397 . S
C189 C190 1.385 . S
C190 H173 0.940 . S
C190 C189 1.385 . S
C190 C191 1.388 . S
C191 H170 0.939 . S
C191 C186 1.391 . S
C191 C190 1.388 . S
P192 O203 1.490 . S
P192 C206 1.812 . S
P192 C212 1.803 . S
P192 C218 1.819 . S
H193 C207 0.941 . S
H194 C208 0.939 . S
H195 C210 0.940 1_565 S
H196 C211 0.940 . S
H197 C213 0.939 . S
H198 C214 0.942 . S
H199 C216 0.940 1_565 S
H200 C217 0.939 . S
H201 C219 0.941 . S
H202 C223 0.939 . S
O203 P192 1.490 . S
H204 C220 0.939 . S
H205 C222 0.940 1_565 S
C206 P192 1.812 . S
C206 C207 1.389 . S
C206 C211 1.391 . S
C207 H193 0.941 . S
C207 C206 1.389 . S
C207 C208 1.397 . S
C208 H194 0.939 . S
C208 C207 1.397 . S
C208 C209 1.378 . S
C209 C208 1.378 . S
C209 C210 1.378 . S
C210 H195 0.940 1_545 S
C210 C209 1.378 . S
C210 C211 1.396 . S
C211 H196 0.940 . S
C211 C206 1.391 . S
C211 C210 1.396 . S
C212 P192 1.803 . S
C212 C213 1.378 . S
C212 C217 1.400 . S
C213 H197 0.939 . S
C213 C212 1.378 . S
C213 C214 1.361 . S
C214 H198 0.942 . S
C214 C213 1.361 . S
C214 C215 1.369 . S
C215 C214 1.369 . S
C215 C216 1.404 . S
C216 H199 0.940 1_545 S
C216 C215 1.404 . S
C216 C217 1.389 . S
C217 H200 0.939 . S
C217 C212 1.400 . S
C217 C216 1.389 . S
C218 P192 1.819 . S
C218 C219 1.391 . S
C218 C223 1.391 . S
C219 H201 0.941 . S
C219 C218 1.391 . S
C219 C220 1.396 . S
C220 H204 0.939 . S
C220 C219 1.396 . S
C220 C221 1.397 . S
C221 C220 1.397 . S
C221 C222 1.385 . S
C222 H205 0.940 1_545 S
C222 C221 1.385 . S
C222 C223 1.388 . S
C223 H202 0.939 . S
C223 C218 1.391 . S
C223 C222 1.388 . S
P224 O235 1.490 . S
P224 C238 1.812 . S
P224 C244 1.803 . S
P224 C250 1.819 . S
H225 C239 0.941 . S
H226 C240 0.939 . S
H227 C242 0.940 . S
H228 C243 0.940 . S
H229 C245 0.939 . S
H230 C246 0.942 . S
H231 C248 0.940 . S
H232 C249 0.939 . S
H233 C251 0.941 . S
H234 C255 0.939 . S
O235 P224 1.490 . S
H236 C252 0.939 . S
H237 C254 0.940 . S
C238 P224 1.812 . S
C238 C239 1.389 . S
C238 C243 1.391 . S
C239 H225 0.941 . S
C239 C238 1.389 . S
C239 C240 1.397 . S
C240 H226 0.939 . S
C240 C239 1.397 . S
C240 C241 1.378 . S
C241 C240 1.378 . S
C241 C242 1.378 . S
C242 H227 0.940 . S
C242 C241 1.378 . S
C242 C243 1.396 . S
C243 H228 0.940 . S
C243 C238 1.391 . S
C243 C242 1.396 . S
C244 P224 1.803 . S
C244 C245 1.378 . S
C244 C249 1.400 . S
C245 H229 0.939 . S
C245 C244 1.378 . S
C245 C246 1.361 . S
C246 H230 0.942 . S
C246 C245 1.361 . S
C246 C247 1.369 . S
C247 C246 1.369 . S
C247 C248 1.404 . S
C248 H231 0.940 . S
C248 C247 1.404 . S
C248 C249 1.389 . S
C249 H232 0.939 . S
C249 C244 1.400 . S
C249 C248 1.389 . S
C250 P224 1.819 . S
C250 C251 1.391 . S
C250 C255 1.391 . S
C251 H233 0.941 . S
C251 C250 1.391 . S
C251 C252 1.396 . S
C252 H236 0.939 . S
C252 C251 1.396 . S
C252 C253 1.397 . S
C253 C252 1.397 . S
C253 C254 1.385 . S
C254 H237 0.940 . S
C254 C253 1.385 . S
C254 C255 1.388 . S
C255 H234 0.939 . S
C255 C250 1.391 . S
C255 C254 1.388 . S
Tb256 O259 2.453 1_655 S
Tb256 O260 2.596 1_655 S
Tb256 O261 2.374 1_645 S
Tb256 O269 2.343 1_545 S
Tb256 O271 2.353 . S
Tb256 O273 2.427 1_545 S
Tb256 O274 2.513 1_545 S
C257 O261 1.250 1_545 S
C257 O263 1.262 1_545 S
Tb258 O260 2.343 . S
Tb258 O263 2.353 1_545 S
Tb258 O266 2.427 . S
Tb258 O267 2.513 . S
Tb258 O268 2.453 1_545 S
Tb258 O269 2.596 1_445 S
Tb258 O270 2.374 1_455 S
O259 Tb256 2.453 1_455 S
O259 C275 1.245 . S
O260 Tb256 2.596 1_455 S
O260 Tb258 2.343 . S
O260 C275 1.259 . S
O261 Tb256 2.374 1_465 S
O261 C257 1.250 1_565 S
C262 O266 1.275 . S
C262 O267 1.246 . S
O263 C257 1.262 1_565 S
O263 Tb258 2.353 1_565 S
C264 O268 1.245 1_655 S
C264 O269 1.259 . S
C265 O270 1.250 . S
C265 O271 1.263 . S
O266 Tb258 2.427 . S
O266 C262 1.275 . S
O267 Tb258 2.513 . S
O267 C262 1.246 . S
O268 Tb258 2.453 1_565 S
O268 C264 1.245 1_455 S
O269 Tb256 2.343 1_565 S
O269 Tb258 2.596 1_665 S
O269 C264 1.259 . S
O270 Tb258 2.374 1_655 S
O270 C265 1.250 . S
O271 Tb256 2.353 . S
O271 C265 1.263 . S
C272 O273 1.275 . S
C272 O274 1.246 . S
O273 Tb256 2.427 1_565 S
O273 C272 1.275 . S
O274 Tb256 2.513 1_565 S
O274 C272 1.246 . S
C275 O259 1.245 . S
C275 O260 1.259 . S
Tb276 O279 2.453 . S
Tb276 O280 2.596 . S
Tb276 O281 2.374 . S
Tb276 O289 2.343 . S
Tb276 O291 2.353 . S
Tb276 O293 2.427 . S
Tb276 O294 2.513 . S
C277 O281 1.251 . S
C277 O283 1.263 1_545 S
Tb278 O280 2.343 1_565 S
Tb278 O283 2.353 . S
Tb278 O286 2.427 . S
Tb278 O287 2.513 . S
Tb278 O288 2.453 . S
Tb278 O289 2.596 1_565 S
Tb278 O290 2.374 . S
O279 Tb276 2.453 . S
O279 C295 1.245 . S
O280 Tb276 2.596 . S
O280 Tb278 2.343 1_545 S
O280 C295 1.259 . S
O281 Tb276 2.374 . S
O281 C277 1.251 . S
C282 O286 1.275 . S
C282 O287 1.246 . S
O283 C277 1.263 1_565 S
O283 Tb278 2.353 . S
C284 O288 1.245 . S
C284 O289 1.259 1_565 S
C285 O290 1.250 1_545 S
C285 O291 1.263 . S
O286 Tb278 2.427 . S
O286 C282 1.275 . S
O287 Tb278 2.513 . S
O287 C282 1.246 . S
O288 Tb278 2.453 . S
O288 C284 1.245 . S
O289 Tb276 2.343 . S
O289 Tb278 2.596 1_545 S
O289 C284 1.259 1_545 S
O290 Tb278 2.374 . S
O290 C285 1.250 1_565 S
O291 Tb276 2.353 . S
O291 C285 1.263 . S
C292 O293 1.275 . S
C292 O294 1.246 . S
O293 Tb276 2.427 . S
O293 C292 1.275 . S
O294 Tb276 2.513 . S
O294 C292 1.246 . S
C295 O279 1.245 . S
C295 O280 1.259 . S
Tb296 O299 2.453 . S
Tb296 O300 2.596 . S
Tb296 O301 2.374 . S
Tb296 O309 2.343 . S
Tb296 O311 2.353 . S
Tb296 O313 2.427 . S
Tb296 O314 2.513 . S
C297 O301 1.251 . S
C297 O303 1.263 . S
Tb298 O300 2.343 . S
Tb298 O303 2.353 . S
Tb298 O306 2.427 . S
Tb298 O307 2.513 . S
Tb298 O308 2.453 . S
Tb298 O309 2.596 . S
Tb298 O310 2.374 . S
O299 Tb296 2.453 . S
O299 C315 1.245 . S
O300 Tb296 2.596 . S
O300 Tb298 2.343 . S
O300 C315 1.259 . S
O301 Tb296 2.374 . S
O301 C297 1.251 . S
C302 O306 1.275 . S
C302 O307 1.246 . S
O303 C297 1.263 . S
O303 Tb298 2.353 . S
C304 O308 1.245 . S
C304 O309 1.259 . S
C305 O310 1.250 . S
C305 O311 1.263 . S
O306 Tb298 2.427 . S
O306 C302 1.275 . S
O307 Tb298 2.513 . S
O307 C302 1.246 . S
O308 Tb298 2.453 . S
O308 C304 1.245 . S
O309 Tb296 2.343 . S
O309 Tb298 2.596 . S
O309 C304 1.259 . S
O310 Tb298 2.374 . S
O310 C305 1.250 . S
O311 Tb296 2.353 . S
O311 C305 1.263 . S
C312 O313 1.275 . S
C312 O314 1.246 . S
O313 Tb296 2.427 . S
O313 C312 1.275 . S
O314 Tb296 2.513 . S
O314 C312 1.246 . S
C315 O299 1.245 . S
C315 O300 1.259 . S
Tb316 O319 2.453 1_655 S
Tb316 O320 2.596 1_655 S
Tb316 O321 2.374 1_655 S
Tb316 O329 2.343 . S
Tb316 O331 2.353 . S
Tb316 O333 2.427 . S
Tb316 O334 2.513 . S
C317 O321 1.251 . S
C317 O323 1.263 . S
Tb318 O320 2.343 . S
Tb318 O323 2.353 . S
Tb318 O326 2.427 . S
Tb318 O327 2.513 . S
Tb318 O328 2.453 1_455 S
Tb318 O329 2.596 1_455 S
Tb318 O330 2.374 . S
O319 Tb316 2.453 1_455 S
O319 C335 1.245 . S
O320 Tb316 2.596 1_455 S
O320 Tb318 2.343 . S
O320 C335 1.259 . S
O321 Tb316 2.374 1_455 S
O321 C317 1.251 . S
C322 O326 1.275 . S
C322 O327 1.246 . S
O323 C317 1.263 . S
O323 Tb318 2.353 . S
C324 O328 1.245 . S
C324 O329 1.259 . S
C325 O330 1.250 1_655 S
C325 O331 1.263 . S
O326 Tb318 2.427 . S
O326 C322 1.275 . S
O327 Tb318 2.513 . S
O327 C322 1.246 . S
O328 Tb318 2.453 1_655 S
O328 C324 1.245 . S
O329 Tb316 2.343 . S
O329 Tb318 2.596 1_655 S
O329 C324 1.259 . S
O330 Tb318 2.374 . S
O330 C325 1.250 1_455 S
O331 Tb316 2.353 . S
O331 C325 1.263 . S
C332 O333 1.275 . S
C332 O334 1.246 . S
O333 Tb316 2.427 . S
O333 C332 1.275 . S
O334 Tb316 2.513 . S
O334 C332 1.246 . S
C335 O319 1.245 . S
C335 O320 1.259 . S
C336 C337 1.369 . S
C336 C338 1.419 . S
C336 H340 0.930 . S
C337 C336 1.369 . S
C337 C346 1.429 1_545 S
C338 C336 1.419 . S
C338 C339 1.363 . S
C338 H341 0.929 . S
C339 C338 1.363 . S
C339 C345 1.428 1_545 S
H340 C336 0.930 . S
H341 C338 0.929 . S
S342 N343 1.613 . S
S342 N344 1.610 . S
N343 S342 1.613 . S
N343 C346 1.350 . S
N344 S342 1.610 . S
N344 C345 1.351 . S
C345 C339 1.428 1_565 S
C345 N344 1.351 . S
C345 C346 1.434 . S
C346 C337 1.429 1_565 S
C346 N343 1.350 . S
C346 C345 1.434 . S
C347 C348 1.369 . S
C347 C349 1.419 . S
C347 H351 0.930 . S
C348 C347 1.369 . S
C348 C357 1.429 . S
C349 C347 1.419 . S
C349 C350 1.363 . S
C349 H352 0.929 . S
C350 C349 1.363 . S
C350 C356 1.428 . S
H351 C347 0.930 . S
H352 C349 0.929 . S
S353 N354 1.613 . S
S353 N355 1.610 . S
N354 S353 1.613 . S
N354 C357 1.350 . S
N355 S353 1.610 . S
N355 C356 1.351 . S
C356 C350 1.428 . S
C356 N355 1.351 . S
C356 C357 1.434 . S
C357 C348 1.429 . S
C357 N354 1.350 . S
C357 C356 1.434 . S
C358 C359 1.369 . S
C358 C360 1.419 . S
C358 H362 0.930 . S
C359 C358 1.369 . S
C359 C368 1.429 . S
C360 C358 1.419 . S
C360 C361 1.363 . S
C360 H363 0.929 . S
C361 C360 1.363 . S
C361 C367 1.428 . S
H362 C358 0.930 . S
H363 C360 0.929 . S
S364 N365 1.613 . S
S364 N366 1.610 . S
N365 S364 1.613 . S
N365 C368 1.350 . S
N366 S364 1.610 . S
N366 C367 1.351 . S
C367 C361 1.428 . S
C367 N366 1.351 . S
C367 C368 1.434 . S
C368 C359 1.429 . S
C368 N365 1.350 . S
C368 C367 1.434 . S
C369 C370 1.369 . S
C369 C371 1.419 . S
C369 H373 0.930 . S
C370 C369 1.369 . S
C370 C379 1.429 . S
C371 C369 1.419 . S
C371 C372 1.363 . S
C371 H374 0.929 . S
C372 C371 1.363 . S
C372 C378 1.428 . S
H373 C369 0.930 . S
H374 C371 0.929 . S
S375 N376 1.613 . S
S375 N377 1.610 . S
N376 S375 1.613 . S
N376 C379 1.350 . S
N377 S375 1.610 . S
N377 C378 1.351 . S
C378 C372 1.428 . S
C378 N377 1.351 . S
C378 C379 1.434 . S
C379 C370 1.429 . S
C379 N376 1.350 . S
C379 C378 1.434 . S
C380 C381 1.369 1_554 S
C380 C382 1.419 1_554 S
C380 H384 0.930 . S
C381 C380 1.369 1_556 S
C381 C390 1.429 1_545 S
C382 C380 1.419 1_556 S
C382 C383 1.363 . S
C382 H385 0.929 . S
C383 C382 1.363 . S
C383 C389 1.428 . S
H384 C380 0.930 . S
H385 C382 0.929 . S
S386 N387 1.613 . S
S386 N388 1.610 . S
N387 S386 1.613 . S
N387 C390 1.350 . S
N388 S386 1.610 . S
N388 C389 1.351 1_565 S
C389 C383 1.428 . S
C389 N388 1.351 1_545 S
C389 C390 1.434 1_545 S
C390 C381 1.429 1_565 S
C390 N387 1.350 . S
C390 C389 1.434 1_565 S
C391 C392 1.369 . S
C391 C393 1.419 . S
C391 H395 0.930 . S
C392 C391 1.369 . S
C392 C401 1.429 1_556 S
C393 C391 1.419 . S
C393 C394 1.363 . S
C393 H396 0.929 . S
C394 C393 1.363 . S
C394 C400 1.428 . S
H395 C391 0.930 . S
H396 C393 0.929 . S
S397 N398 1.613 . S
S397 N399 1.610 . S
N398 S397 1.613 . S
N398 C401 1.350 . S
N399 S397 1.610 . S
N399 C400 1.351 1_554 S
C400 C394 1.428 . S
C400 N399 1.351 1_556 S
C400 C401 1.434 1_556 S
C401 C392 1.429 1_554 S
C401 N398 1.350 . S
C401 C400 1.434 1_554 S
C402 C403 1.369 . S
C402 C404 1.419 . S
C402 H406 0.930 . S
C403 C402 1.369 . S
C403 C412 1.429 . S
C404 C402 1.419 . S
C404 C405 1.363 . S
C404 H407 0.929 . S
C405 C404 1.363 . S
C405 C411 1.428 . S
H406 C402 0.930 . S
H407 C404 0.929 . S
S408 N409 1.613 . S
S408 N410 1.610 1_554 S
N409 S408 1.613 . S
N409 C412 1.350 1_554 S
N410 S408 1.610 1_556 S
N410 C411 1.351 . S
C411 C405 1.428 . S
C411 N410 1.351 . S
C411 C412 1.434 . S
C412 C403 1.429 . S
C412 N409 1.350 1_556 S
C412 C411 1.434 . S
C413 C414 1.369 . S
C413 C415 1.419 . S
C413 H417 0.930 . S
C414 C413 1.369 . S
C414 C423 1.429 . S
C415 C413 1.419 . S
C415 C416 1.363 . S
C415 H418 0.929 . S
C416 C415 1.363 . S
C416 C422 1.428 . S
H417 C413 0.930 . S
H418 C415 0.929 . S
S419 N420 1.613 . S
S419 N421 1.610 1_554 S
N420 S419 1.613 . S
N420 C423 1.350 1_554 S
N421 S419 1.610 1_556 S
N421 C422 1.351 . S
C422 C416 1.428 . S
C422 N421 1.351 . S
C422 C423 1.434 . S
C423 C414 1.429 . S
C423 N420 1.350 1_556 S
C423 C422 1.434 . S
C424 C425 1.369 . S
C424 C426 1.419 . S
C424 H428 0.930 . S
C425 C424 1.369 . S
C425 C434 1.429 . S
C426 C424 1.419 . S
C426 C427 1.363 . S
C426 H429 0.929 . S
C427 C426 1.363 . S
C427 C433 1.428 . S
H428 C424 0.930 . S
H429 C426 0.929 . S
S430 N431 1.613 . S
S430 N432 1.610 . S
N431 S430 1.613 . S
N431 C434 1.350 . S
N432 S430 1.610 . S
N432 C433 1.351 . S
C433 C427 1.428 . S
C433 N432 1.351 . S
C433 C434 1.434 . S
C434 C425 1.429 . S
C434 N431 1.350 . S
C434 C433 1.434 . S
C435 C436 1.369 . S
C435 C437 1.419 . S
C435 H439 0.930 . S
C436 C435 1.369 . S
C436 C445 1.426 1_545 S
C437 C435 1.419 . S
C437 C438 1.363 . S
C437 H440 0.929 . S
C438 C437 1.363 . S
C438 C444 1.428 1_545 S
H439 C435 0.930 . S
H440 C437 0.929 . S
S441 N442 1.613 . S
S441 N443 1.610 . S
N442 S441 1.613 . S
N442 C445 1.351 . S
N443 S441 1.610 . S
N443 C444 1.351 . S
C444 C438 1.428 1_565 S
C444 N443 1.351 . S
C444 C445 1.435 . S
C445 C436 1.426 1_565 S
C445 N442 1.351 . S
C445 C444 1.435 . S
C446 C447 1.369 . S
C446 C448 1.419 . S
C446 H450 0.930 . S
C447 C446 1.369 . S
C447 C456 1.429 . S
C448 C446 1.419 . S
C448 C449 1.363 . S
C448 H451 0.929 . S
C449 C448 1.363 . S
C449 C455 1.428 . S
H450 C446 0.930 . S
H451 C448 0.929 . S
S452 N453 1.613 . S
S452 N454 1.610 . S
N453 S452 1.613 . S
N453 C456 1.350 . S
N454 S452 1.610 . S
N454 C455 1.351 . S
C455 C449 1.428 . S
C455 N454 1.351 . S
C455 C456 1.434 . S
C456 C447 1.429 . S
C456 N453 1.350 . S
C456 C455 1.434 . S
C457 C458 1.369 . S
C457 C459 1.419 . S
C457 H461 0.930 . S
C458 C457 1.369 . S
C458 C467 1.429 . S
C459 C457 1.419 . S
C459 C460 1.363 . S
C459 H462 0.929 . S
C460 C459 1.363 . S
C460 C466 1.428 . S
H461 C457 0.930 . S
H462 C459 0.929 . S
S463 N464 1.613 . S
S463 N465 1.610 . S
N464 S463 1.613 . S
N464 C467 1.350 . S
N465 S463 1.610 . S
N465 C466 1.351 . S
C466 C460 1.428 . S
C466 N465 1.351 . S
C466 C467 1.434 . S
C467 C458 1.429 . S
C467 N464 1.350 . S
C467 C466 1.434 . S
C468 C469 1.369 . S
C468 C470 1.419 . S
C468 H472 0.930 . S
C469 C468 1.369 . S
C469 C478 1.429 . S
C470 C468 1.419 . S
C470 C471 1.363 . S
C470 H473 0.929 . S
C471 C470 1.363 . S
C471 C477 1.428 . S
H472 C468 0.930 . S
H473 C470 0.929 . S
S474 N475 1.613 . S
S474 N476 1.610 . S
N475 S474 1.613 . S
N475 C478 1.350 . S
N476 S474 1.610 . S
N476 C477 1.351 . S
C477 C471 1.428 . S
C477 N476 1.351 . S
C477 C478 1.434 . S
C478 C469 1.429 . S
C478 N475 1.350 . S
C478 C477 1.434 . S
C479 C480 1.369 1_565 S
C479 C481 1.419 . S
C479 H483 0.930 . S
C480 C479 1.369 1_545 S
C480 C489 1.429 . S
C481 C479 1.419 . S
C481 C482 1.363 1_565 S
C481 H484 0.929 . S
C482 C481 1.363 1_545 S
C482 C488 1.428 . S
H483 C479 0.930 . S
H484 C481 0.929 . S
S485 N486 1.613 . S
S485 N487 1.610 . S
N486 S485 1.613 . S
N486 C489 1.350 . S
N487 S485 1.610 . S
N487 C488 1.351 . S
C488 C482 1.428 . S
C488 N487 1.351 . S
C488 C489 1.434 . S
C489 C480 1.429 . S
C489 N486 1.350 . S
C489 C488 1.434 . S
C490 C491 1.369 . S
C490 C492 1.419 . S
C490 H494 0.930 . S
C491 C490 1.369 . S
C491 C500 1.429 . S
C492 C490 1.419 . S
C492 C493 1.363 . S
C492 H495 0.929 . S
C493 C492 1.363 . S
C493 C499 1.428 . S
H494 C490 0.930 . S
H495 C492 0.929 . S
S496 N497 1.613 . S
S496 N498 1.610 . S
N497 S496 1.613 . S
N497 C500 1.350 . S
N498 S496 1.610 . S
N498 C499 1.351 . S
C499 C493 1.428 . S
C499 N498 1.351 . S
C499 C500 1.434 . S
C500 C491 1.429 . S
C500 N497 1.350 . S
C500 C499 1.434 . S
C501 C502 1.369 . S
C501 C503 1.419 . S
C501 H505 0.930 . S
C502 C501 1.369 . S
C502 C511 1.429 . S
C503 C501 1.419 . S
C503 C504 1.363 . S
C503 H506 0.929 . S
C504 C503 1.363 . S
C504 C510 1.428 . S
H505 C501 0.930 . S
H506 C503 0.929 . S
S507 N508 1.613 . S
S507 N509 1.610 . S
N508 S507 1.613 . S
N508 C511 1.350 . S
N509 S507 1.610 . S
N509 C510 1.351 . S
C510 C504 1.428 . S
C510 N509 1.351 . S
C510 C511 1.434 . S
C511 C502 1.429 . S
C511 N508 1.350 . S
C511 C510 1.434 . S
C512 C513 1.369 . S
C512 C514 1.419 . S
C512 H516 0.930 . S
C513 C512 1.369 . S
C513 C522 1.429 1_554 S
C514 C512 1.419 . S
C514 C515 1.363 1_554 S
C514 H517 0.929 . S
C515 C514 1.363 1_556 S
C515 C521 1.428 . S
H516 C512 0.930 . S
H517 C514 0.929 . S
S518 N519 1.613 . S
S518 N520 1.610 . S
N519 S518 1.613 . S
N519 C522 1.350 . S
N520 S518 1.610 . S
N520 C521 1.351 . S
C521 C515 1.428 . S
C521 N520 1.351 . S
C521 C522 1.434 . S
C522 C513 1.429 1_556 S
C522 N519 1.350 . S
C522 C521 1.434 . S
C523 C524 1.369 . S
C523 C525 1.419 . S
C523 H527 0.930 1_545 S
C524 C523 1.369 . S
C524 C533 1.429 1_556 S
C525 C523 1.419 . S
C525 C526 1.363 . S
C525 H528 0.929 1_545 S
C526 C525 1.363 . S
C526 C532 1.428 1_556 S
H527 C523 0.930 1_565 S
H528 C525 0.929 1_565 S
S529 N530 1.613 . S
S529 N531 1.610 . S
N530 S529 1.613 . S
N530 C533 1.350 . S
N531 S529 1.610 . S
N531 C532 1.351 . S
C532 C526 1.428 1_554 S
C532 N531 1.351 . S
C532 C533 1.434 . S
C533 C524 1.429 1_554 S
C533 N530 1.350 . S
C533 C532 1.434 . S
C534 C535 1.369 1_556 S
C534 C536 1.419 . S
C534 H538 0.930 . S
C535 C534 1.369 1_554 S
C535 C544 1.429 . S
C536 C534 1.419 . S
C536 C537 1.363 . S
C536 H539 0.929 . S
C537 C536 1.363 . S
C537 C543 1.428 1_556 S
H538 C534 0.930 . S
H539 C536 0.929 . S
S540 N541 1.613 . S
S540 N542 1.610 . S
N541 S540 1.613 . S
N541 C544 1.350 . S
N542 S540 1.610 . S
N542 C543 1.351 . S
C543 C537 1.428 1_554 S
C543 N542 1.351 . S
C543 C544 1.434 . S
C544 C535 1.429 . S
C544 N541 1.350 . S
C544 C543 1.434 . S
C545 C546 1.369 1_556 S
C545 C547 1.419 . S
C545 H549 0.930 1_556 S
C546 C545 1.369 1_554 S
C546 C555 1.429 . S
C547 C545 1.419 . S
C547 C548 1.363 . S
C547 H550 0.929 . S
C548 C547 1.363 . S
C548 C554 1.428 . S
H549 C545 0.930 1_554 S
H550 C547 0.929 . S
S551 N552 1.616 . S
S551 N553 1.606 1_554 S
N552 S551 1.616 . S
N552 C555 1.350 . S
N553 S551 1.606 1_556 S
N553 C554 1.351 . S
C554 C548 1.428 . S
C554 N553 1.351 . S
C554 C555 1.434 1_556 S
C555 C546 1.429 . S
C555 N552 1.350 . S
C555 C554 1.434 1_554 S
C556 C557 1.369 . S
C556 C558 1.419 . S
C556 H560 0.930 . S
C557 C556 1.369 . S
C557 C566 1.429 . S
C558 C556 1.419 . S
C558 C559 1.363 . S
C558 H561 0.929 . S
C559 C558 1.363 . S
C559 C565 1.428 . S
H560 C556 0.930 . S
H561 C558 0.929 . S
S562 N563 1.613 . S
S562 N564 1.610 . S
N563 S562 1.613 . S
N563 C566 1.350 . S
N564 S562 1.610 . S
N564 C565 1.351 . S
C565 C559 1.428 . S
C565 N564 1.351 . S
C565 C566 1.434 . S
C566 C557 1.429 . S
C566 N563 1.350 . S
C566 C565 1.434 . S
C567 C568 1.386 . S
C567 C569 1.419 . S
C567 H571 0.930 . S
C568 C567 1.386 . S
C568 C577 1.414 1_545 S
C569 C567 1.419 . S
C569 C570 1.363 . S
C569 H572 0.929 . S
C570 C569 1.363 . S
C570 C576 1.428 1_545 S
H571 C567 0.930 . S
H572 C569 0.929 . S
S573 N574 1.613 . S
S573 N575 1.610 . S
N574 S573 1.613 . S
N574 C577 1.350 . S
N575 S573 1.610 . S
N575 C576 1.351 . S
C576 C570 1.428 1_565 S
C576 N575 1.351 . S
C576 C577 1.434 . S
C577 C568 1.414 1_565 S
C577 N574 1.350 . S
C577 C576 1.434 . S
C578 C579 1.369 . S
C578 C580 1.419 . S
C578 H582 0.930 . S
C579 C578 1.369 . S
C579 C588 1.429 . S
C580 C578 1.419 . S
C580 C581 1.363 . S
C580 H583 0.929 . S
C581 C580 1.363 . S
C581 C587 1.428 . S
H582 C578 0.930 . S
H583 C580 0.929 . S
S584 N585 1.613 . S
S584 N586 1.610 . S
N585 S584 1.613 . S
N585 C588 1.350 . S
N586 S584 1.610 . S
N586 C587 1.351 . S
C587 C581 1.428 . S
C587 N586 1.351 . S
C587 C588 1.434 . S
C588 C579 1.429 . S
C588 N585 1.350 . S
C588 C587 1.434 . S
C589 C590 1.369 . S
C589 C591 1.419 . S
C589 H593 0.930 . S
C590 C589 1.369 . S
C590 C599 1.429 . S
C591 C589 1.419 . S
C591 C592 1.363 . S
C591 H594 0.929 . S
C592 C591 1.363 . S
C592 C598 1.428 . S
H593 C589 0.930 . S
H594 C591 0.929 . S
S595 N596 1.613 . S
S595 N597 1.610 . S
N596 S595 1.613 . S
N596 C599 1.350 . S
N597 S595 1.610 . S
N597 C598 1.351 . S
C598 C592 1.428 . S
C598 N597 1.351 . S
C598 C599 1.434 . S
C599 C590 1.429 . S
C599 N596 1.350 . S
C599 C598 1.434 . S
C337 C215 1.549 . S
C339 C257 1.571 . S
C350 C292 2.088 . S
C348 C247 2.022 . S
C361 C297 1.416 . S
C359 C151 1.364 . S
C372 C317 1.889 . S
C370 C183 1.861 . S
C383 C265 1.572 . S
C381 C87 1.512 1_556 S
C392 C119 1.752 1_556 S
C394 C282 2.088 . S
C403 C23 1.445 . S
C405 C305 1.418 . S
C414 C55 1.611 . S
C416 C325 1.890 . S
C427 C275 1.728 . S
C425 C189 1.643 . S
C438 C284 0.985 1_545 S
C436 C221 0.979 . S
C449 C315 1.813 . S
C447 C253 1.744 . S
C458 C157 1.025 . S
C460 C335 1.117 . S
C469 C61 1.356 . S
C471 C264 1.728 . S
C482 C295 0.983 . S
C480 C93 0.951 . S
C493 C304 1.815 . S
C491 C125 1.404 . S
C502 C29 1.095 . S
C504 C324 1.113 . S
C513 C177 1.914 . S
C515 C262 1.981 . S
C524 C209 1.696 1_556 S
C526 C285 1.856 . S
C537 C302 2.133 . S
C535 C241 2.018 . S
C548 C322 1.924 . S
C546 C145 1.738 . S
C557 C49 1.735 . S
C559 C272 1.980 . S
C570 C277 1.855 . S
C568 C81 1.693 . S
C581 C312 2.133 . S
C579 C113 1.820 . S
C590 C17 1.825 . S
C592 C332 1.923 . S
