# Generated by pormake.
# Topology zzz, (3,6)-cn, num edge types: 1
# Building blocks:
#     Node 0, Type 0, BuildingBlock: BELTOD_clean_linker_0, # of connection points: 3
#     Node 1, Type 0, BuildingBlock: BELTOD_clean_linker_0, # of connection points: 3
#     Node 2, Type 0, BuildingBlock: BELTOD_clean_linker_0, # of connection points: 3
#     Node 3, Type 0, BuildingBlock: BELTOD_clean_linker_0, # of connection points: 3
#     Node 4, Type 0, BuildingBlock: BELTOD_clean_linker_0, # of connection points: 3
#     Node 5, Type 0, BuildingBlock: BELTOD_clean_linker_0, # of connection points: 3
#     Node 6, Type 0, BuildingBlock: BELTOD_clean_linker_0, # of connection points: 3
#     Node 7, Type 0, BuildingBlock: BELTOD_clean_linker_0, # of connection points: 3
#     Node 8, Type 1, BuildingBlock: KUMJIN_clean_sbu_1, # of connection points: 6
#     Node 9, Type 1, BuildingBlock: KUMJIN_clean_sbu_1, # of connection points: 6
#     Node 10, Type 1, BuildingBlock: KUMJIN_clean_sbu_1, # of connection points: 6
#     Node 11, Type 1, BuildingBlock: KUMJIN_clean_sbu_1, # of connection points: 6
#     Edge 12, Type (0, 1), BuildingBlock: MIFKUJ_clean_linker_0, # of connection points: 2
#     Edge 13, Type (0, 1), BuildingBlock: MIFKUJ_clean_linker_0, # of connection points: 2
#     Edge 14, Type (0, 1), BuildingBlock: MIFKUJ_clean_linker_0, # of connection points: 2
#     Edge 15, Type (0, 1), BuildingBlock: MIFKUJ_clean_linker_0, # of connection points: 2
#     Edge 16, Type (0, 1), BuildingBlock: MIFKUJ_clean_linker_0, # of connection points: 2
#     Edge 17, Type (0, 1), BuildingBlock: MIFKUJ_clean_linker_0, # of connection points: 2
#     Edge 18, Type (0, 1), BuildingBlock: MIFKUJ_clean_linker_0, # of connection points: 2
#     Edge 19, Type (0, 1), BuildingBlock: MIFKUJ_clean_linker_0, # of connection points: 2
#     Edge 20, Type (0, 1), BuildingBlock: MIFKUJ_clean_linker_0, # of connection points: 2
#     Edge 21, Type (0, 1), BuildingBlock: MIFKUJ_clean_linker_0, # of connection points: 2
#     Edge 22, Type (0, 1), BuildingBlock: MIFKUJ_clean_linker_0, # of connection points: 2
#     Edge 23, Type (0, 1), BuildingBlock: MIFKUJ_clean_linker_0, # of connection points: 2
#     Edge 24, Type (0, 1), BuildingBlock: MIFKUJ_clean_linker_0, # of connection points: 2
#     Edge 25, Type (0, 1), BuildingBlock: MIFKUJ_clean_linker_0, # of connection points: 2
#     Edge 26, Type (0, 1), BuildingBlock: MIFKUJ_clean_linker_0, # of connection points: 2
#     Edge 27, Type (0, 1), BuildingBlock: MIFKUJ_clean_linker_0, # of connection points: 2
#     Edge 28, Type (0, 1), BuildingBlock: MIFKUJ_clean_linker_0, # of connection points: 2
#     Edge 29, Type (0, 1), BuildingBlock: MIFKUJ_clean_linker_0, # of connection points: 2
#     Edge 30, Type (0, 1), BuildingBlock: MIFKUJ_clean_linker_0, # of connection points: 2
#     Edge 31, Type (0, 1), BuildingBlock: MIFKUJ_clean_linker_0, # of connection points: 2
#     Edge 32, Type (0, 1), BuildingBlock: MIFKUJ_clean_linker_0, # of connection points: 2
#     Edge 33, Type (0, 1), BuildingBlock: MIFKUJ_clean_linker_0, # of connection points: 2
#     Edge 34, Type (0, 1), BuildingBlock: MIFKUJ_clean_linker_0, # of connection points: 2
#     Edge 35, Type (0, 1), BuildingBlock: MIFKUJ_clean_linker_0, # of connection points: 2
# Relax obj value: 0.272
# Max RMSD: 0.194
# Mean RMSD: 0.169
data_MOF--net-zzz--node1-KUMJIN_clean_sbu_1--node2-BELTOD_clean_linker_0--edge1-MIFKUJ_clean_linker_0
_symmetry_space_group_name_H-M    P1
_symmetry_Int_Tables_number       1
_symmetry_cell_setting            triclinic
loop_
_symmetry_equiv_pos_as_xyz
'x, y, z'
_cell_length_a     67.615602
_cell_length_b     67.626603
_cell_length_c     24.8652
_cell_angle_alpha  90.026208
_cell_angle_beta   89.877275
_cell_angle_gamma 90.358264
loop_
_atom_site_label
_atom_site_type_symbol
_atom_site_fract_x
_atom_site_fract_y
_atom_site_fract_z
_atom_type_partial_charge
P0 P 0.74544 0.5044 0.17309 0.0
H1 H 0.74691 0.49521 0.28798 0.0
H2 H 0.77203 0.50305 0.35517 0.0
H3 H 0.79652 0.5476 0.24956 0.0
H4 H 0.77144 0.53961 0.18243 0.0
H5 H 0.71288 0.47936 0.13908 0.0
H6 H 0.68281 0.48594 0.08976 0.0
H7 H 0.69257 0.54871 0.10855 0.0
H8 H 0.72277 0.54191 0.16048 0.0
H9 H 0.77788 0.48137 0.12782 0.0
H10 H 0.74774 0.53571 0.09074 0.0
O11 O 0.74581 0.48028 0.18741 0.0
H12 H 0.79883 0.4858 0.0487 0.0
H13 H 0.76877 0.54035 0.01211 0.0
C14 C 0.75741 0.51651 0.22951 0.0
C15 C 0.7572 0.50719 0.27997 0.0
C16 C 0.77169 0.51166 0.31848 0.0
C17 C 0.7867 0.52559 0.30729 0.0
C18 C 0.78553 0.5364 0.25899 0.0
C19 C 0.77099 0.53197 0.22062 0.0
C20 C 0.72024 0.51011 0.1538 0.0
C21 C 0.70836 0.49459 0.1345 0.0
C22 C 0.69119 0.49837 0.10535 0.0
C23 C 0.68549 0.51785 0.09377 0.0
C24 C 0.69655 0.53351 0.11653 0.0
C25 C 0.71381 0.52965 0.14638 0.0
C26 C 0.7608 0.50787 0.11446 0.0
C27 C 0.77567 0.4942 0.10258 0.0
C28 C 0.78779 0.49687 0.05761 0.0
C29 C 0.7854 0.5134 0.02397 0.0
C30 C 0.77074 0.52728 0.03664 0.0
C31 C 0.75863 0.52459 0.08164 0.0
P32 P 0.01367 0.74379 0.19712 0.0
H33 H 0.02645 0.74537 0.30949 0.0
H34 H 0.02051 0.77018 0.37903 0.0
H35 H 0.97357 0.79477 0.2827 0.0
H36 H 0.97898 0.76942 0.21508 0.0
H37 H 0.04112 0.71484 0.15579 0.0
H38 H 0.0366 0.68299 0.11387 0.0
H39 H 0.97527 0.68248 0.16311 0.0
H40 H 0.98001 0.71515 0.20521 0.0
H41 H 0.0214 0.78352 0.15831 0.0
H42 H 0.98673 0.73314 0.10701 0.0
O43 O 0.03793 0.74836 0.20065 0.0
H44 H 0.01125 0.8015 0.07794 0.0
H45 H 0.97653 0.75104 0.02707 0.0
C46 C 0.00337 0.75555 0.25651 0.0
C47 C 0.01432 0.75557 0.30439 0.0
C48 C 0.01114 0.7701 0.34378 0.0
C49 C 0.99697 0.78505 0.33609 0.0
C50 C 0.98468 0.78368 0.29047 0.0
C51 C 0.98777 0.76904 0.25138 0.0
C52 C 0.01101 0.71743 0.18467 0.0
C53 C 0.02682 0.7077 0.15969 0.0
C54 C 0.02418 0.68928 0.13531 0.0
C55 C 0.00553 0.67996 0.13466 0.0
C56 C 0.98982 0.68923 0.16229 0.0
C57 C 0.99257 0.70778 0.18726 0.0
C58 C 0.00519 0.75685 0.13842 0.0
C59 C 0.01158 0.77634 0.12991 0.0
C60 C 0.00559 0.78666 0.08425 0.0
C61 C 0.99309 0.77764 0.04621 0.0
C62 C 0.98632 0.75827 0.05545 0.0
C63 C 0.99222 0.748 0.10137 0.0
P64 P 0.77678 0.01728 0.21093 0.0
H65 H 0.77225 0.03093 0.3219 0.0
H66 H 0.7462 0.02471 0.38801 0.0
H67 H 0.72455 0.97612 0.29144 0.0
H68 H 0.75093 0.98223 0.22595 0.0
H69 H 0.81238 0.04107 0.19517 0.0
H70 H 0.84279 0.03413 0.14723 0.0
H71 H 0.82824 0.97192 0.14628 0.0
H72 H 0.7975 0.97898 0.1958 0.0
H73 H 0.73561 0.0243 0.18537 0.0
H74 H 0.78649 1.00061 0.10287 0.0
O75 O 0.77623 0.0418 0.21859 0.0
H76 H 0.71586 0.01941 0.10461 0.0
H77 H 0.76666 0.99464 0.02363 0.0
C78 C 0.76346 0.00725 0.26839 0.0
C79 C 0.76234 0.01849 0.31575 0.0
C80 C 0.7472 0.01509 0.35328 0.0
C81 C 0.73284 1.00027 0.34449 0.0
C82 C 0.73523 0.98772 0.29965 0.0
C83 C 0.75043 0.99116 0.26207 0.0
C84 C 0.8024 0.01058 0.19891 0.0
C85 C 0.8159 0.02579 0.18676 0.0
C86 C 0.83331 0.02184 0.15856 0.0
C87 C 0.83768 1.00256 0.14138 0.0
C88 C 0.82527 0.98697 0.15867 0.0
C89 C 0.80776 0.99096 0.18747 0.0
C90 C 0.76246 0.01244 0.15111 0.0
C91 C 0.74246 0.01768 0.15034 0.0
C92 C 0.73113 0.01471 0.10416 0.0
C93 C 0.73959 0.00638 0.05765 0.0
C94 C 0.75967 1.00116 0.05856 0.0
C95 C 0.77103 0.00434 0.1046 0.0
P96 P 0.5038 0.77873 0.19236 0.0
H97 H 0.4772 0.76302 0.27544 0.0
H98 H 0.48158 0.73616 0.33921 0.0
H99 H 0.54468 0.73844 0.31252 0.0
H100 H 0.54009 0.76541 0.24793 0.0
H101 H 0.47483 0.81038 0.17903 0.0
H102 H 0.47797 0.84211 0.13385 0.0
H103 H 0.54155 0.83794 0.14225 0.0
H104 H 0.53829 0.80602 0.18873 0.0
H105 H 0.51655 0.73801 0.17732 0.0
H106 H 0.52216 0.79307 0.09065 0.0
O107 O 0.48061 0.77312 0.1749 0.0
H108 H 0.53403 0.72123 0.10611 0.0
H109 H 0.541 0.77665 0.02111 0.0
C110 C 0.50827 0.76619 0.25603 0.0
C111 C 0.49209 0.75832 0.28458 0.0
C112 C 0.49463 0.74277 0.32121 0.0
C113 C 0.51347 0.73465 0.33036 0.0
C114 C 0.52989 0.74393 0.30567 0.0
C115 C 0.52733 0.75966 0.26932 0.0
C116 C 0.50633 0.80547 0.18645 0.0
C117 C 0.4895 0.81655 0.17341 0.0
C118 C 0.4913 0.8348 0.14714 0.0
C119 C 0.51001 0.84237 0.13297 0.0
C120 C 0.5269 0.83234 0.15163 0.0
C121 C 0.52505 0.81422 0.1791 0.0
C122 C 0.51891 0.76711 0.1415 0.0
C123 C 0.52236 0.74675 0.14437 0.0
C124 C 0.53258 0.73714 0.10343 0.0
C125 C 0.53945 0.74763 0.05809 0.0
C126 C 0.53612 0.7681 0.05551 0.0
C127 C 0.52556 0.77763 0.09615 0.0
P128 P 0.27157 0.44751 0.05329 0.0
H129 H 0.26367 0.44791 0.93714 0.0
H130 H 0.23663 0.46291 0.88675 0.0
H131 H 0.22167 0.49839 0.02499 0.0
H132 H 0.24922 0.48394 0.07469 0.0
H133 H 0.30153 0.42463 0.1059 0.0
H134 H 0.33067 0.43296 0.1581 0.0
H135 H 0.3216 0.49493 0.12388 0.0
H136 H 0.29167 0.48627 0.07262 0.0
H137 H 0.23738 0.42109 0.05848 0.0
H138 H 0.2661 0.46388 0.16098 0.0
O139 O 0.27561 0.42664 0.01922 0.0
H140 H 0.20813 0.42183 0.11617 0.0
H141 H 0.23688 0.46552 0.2169 0.0
C142 C 0.25845 0.46457 0.01009 0.0
C143 C 0.25519 0.45954 0.95601 0.0
C144 C 0.2396 0.46805 0.92722 0.0
C145 C 0.22679 0.48153 0.95229 0.0
C146 C 0.23114 0.48784 0.00487 0.0
C147 C 0.24702 0.47966 0.03318 0.0
C148 C 0.29466 0.45477 0.08431 0.0
C149 C 0.30599 0.44001 0.10867 0.0
C150 C 0.32279 0.44483 0.13854 0.0
C151 C 0.32881 0.46465 0.14498 0.0
C152 C 0.31744 0.47951 0.12009 0.0
C153 C 0.30043 0.47461 0.09022 0.0
C154 C 0.25396 0.4423 0.10566 0.0
C155 C 0.23768 0.43008 0.09454 0.0
C156 C 0.22084 0.43074 0.12718 0.0
C157 C 0.21991 0.44401 0.17074 0.0
C158 C 0.237 0.45491 0.18428 0.0
C159 C 0.25386 0.45402 0.15208 0.0
P160 P 0.06355 0.28162 0.05943 0.0
H161 H 0.06833 0.27508 0.94347 0.0
H162 H 0.05671 0.24812 0.8864 0.0
H163 H 0.01595 0.22983 0.01096 0.0
H164 H 0.02747 0.25712 0.06768 0.0
H165 H 0.08307 0.31867 0.08646 0.0
H166 H 0.07364 0.34671 0.1413 0.0
H167 H 0.01445 0.32284 0.15574 0.0
H168 H 0.02422 0.29435 0.10027 0.0
H169 H 0.0816 0.24293 0.05774 0.0
H170 H 0.0538 0.28044 0.17591 0.0
O171 O 0.08557 0.28645 0.03174 0.0
H172 H 0.07889 0.21493 0.1191 0.0
H173 H 0.05142 0.25266 0.23761 0.0
C174 C 0.04887 0.26821 0.01019 0.0
C175 C 0.05636 0.26579 0.95792 0.0
C176 C 0.04989 0.25009 0.92547 0.0
C177 C 0.03575 0.23639 0.94449 0.0
C178 C 0.02687 0.24001 0.99484 0.0
C179 C 0.03334 0.25579 0.02729 0.0
C180 C 0.05429 0.30447 0.08813 0.0
C181 C 0.06786 0.31964 0.09982 0.0
C182 C 0.06242 0.33579 0.13154 0.0
C183 C 0.04324 0.33719 0.15317 0.0
C184 C 0.02939 0.32224 0.14009 0.0
C185 C 0.03486 0.30606 0.10772 0.0
C186 C 0.06757 0.26369 0.11166 0.0
C187 C 0.07557 0.24532 0.0976 0.0
C188 C 0.07406 0.22932 0.13282 0.0
C189 C 0.06459 0.23152 0.1828 0.0
C190 C 0.0584 0.25044 0.19883 0.0
C191 C 0.05979 0.2664 0.16343 0.0
P192 P 0.24259 0.06762 0.06619 0.0
H193 H 0.24182 0.06245 0.94895 0.0
H194 H 0.26613 0.04842 0.88738 0.0
H195 H 0.29726 0.0233 0.02248 0.0
H196 H 0.27238 0.03664 0.08334 0.0
H197 H 0.20991 0.08982 0.10946 0.0
H198 H 0.18153 0.08126 0.16536 0.0
H199 H 0.19749 0.01963 0.1568 0.0
H200 H 0.22626 0.02843 0.10014 0.0
H201 H 0.28029 0.08779 0.05602 0.0
H202 H 0.24505 0.06308 0.18455 0.0
O203 O 0.23711 0.08781 0.03076 0.0
H204 H 0.30759 0.09302 0.1181 0.0
H205 H 0.2719 0.06924 0.24768 0.0
C206 C 0.25533 0.05086 0.02099 0.0
C207 C 0.25346 0.05332 0.96522 0.0
C208 C 0.26765 0.04554 0.92999 0.0
C209 C 0.28415 0.03518 0.94975 0.0
C210 C 0.28489 0.03117 0.00537 0.0
C211 C 0.27056 0.0388 0.04049 0.0
C212 C 0.22002 0.05974 0.09955 0.0
C213 C 0.20715 0.07438 0.11851 0.0
C214 C 0.19099 0.0695 0.15108 0.0
C215 C 0.18725 0.04978 0.16589 0.0
C216 C 0.19987 0.03495 0.14574 0.0
C217 C 0.21628 0.03993 0.11327 0.0
C218 C 0.26065 0.07506 0.1155 0.0
C219 C 0.27822 0.08407 0.09805 0.0
C220 C 0.2938 0.08719 0.13384 0.0
C221 C 0.29204 0.08153 0.18813 0.0
C222 C 0.27392 0.07351 0.20605 0.0
C223 C 0.25843 0.07012 0.16995 0.0
P224 P 0.45368 0.23742 0.04127 0.0
H225 H 0.44341 0.24656 0.92936 0.0
H226 H 0.45496 0.27273 0.86944 0.0
H227 H 0.5043 0.28401 0.9752 0.0
H228 H 0.49271 0.25771 0.03499 0.0
H229 H 0.42884 0.20595 0.08273 0.0
H230 H 0.43564 0.1758 0.13148 0.0
H231 H 0.49807 0.18339 0.09974 0.0
H232 H 0.49098 0.21413 0.05059 0.0
H233 H 0.42938 0.26876 0.08921 0.0
H234 H 0.48474 0.23984 0.12263 0.0
O235 O 0.42975 0.23762 0.02467 0.0
H236 H 0.43496 0.29104 0.16581 0.0
H237 H 0.49035 0.26201 0.19814 0.0
C238 C 0.46691 0.25022 0.98756 0.0
C239 C 0.4571 0.25414 0.93897 0.0
C240 C 0.46373 0.26926 0.90454 0.0
C241 C 0.48034 0.28091 0.91796 0.0
C242 C 0.49118 0.2757 0.96415 0.0
C243 C 0.48462 0.26045 0.99831 0.0
C244 C 0.45933 0.21228 0.06184 0.0
C245 C 0.44398 0.20089 0.08437 0.0
C246 C 0.44792 0.1835 0.11267 0.0
C247 C 0.46744 0.17697 0.11996 0.0
C248 C 0.48285 0.18799 0.0955 0.0
C249 C 0.47882 0.20546 0.06667 0.0
C250 C 0.45652 0.25244 0.10055 0.0
C251 C 0.44254 0.26696 0.11339 0.0
C252 C 0.44571 0.27966 0.15705 0.0
C253 C 0.46309 0.2782 0.18753 0.0
C254 C 0.47687 0.26346 0.17502 0.0
C255 C 0.47358 0.25068 0.13203 0.0
Eu256 Eu 0.98637 0.02077 0.59493 0.0
C257 C 0.06133 0.03453 0.73088 0.0
N258 N 0.05887 0.02331 0.68594 0.0
C259 C 0.08897 0.03632 0.64864 0.0
C260 C 0.07767 0.04749 0.73574 0.0
C261 C 0.07254 0.02373 0.64551 0.0
C262 C 0.0915 0.04833 0.69381 0.0
C263 C 0.04928 0.04517 0.81819 0.0
C264 C 0.04715 0.03347 0.77153 0.0
C265 C 0.06548 0.05814 0.82296 0.0
C266 C 0.07962 0.05931 0.78186 0.0
Eu267 Eu 0.03075 1.00249 0.68472 0.0
N268 N 0.03128 0.02114 0.76539 0.0
C269 C 0.03515 0.04337 0.85903 0.0
C270 C 0.01801 0.01869 0.80626 0.0
C271 C 0.01954 0.02997 0.85322 0.0
H272 H 0.07108 0.01403 0.6114 0.0
H273 H 0.00885 0.02806 0.8853 0.0
H274 H 0.94597 0.00473 0.66143 0.0
H275 H 0.00661 0.01138 0.38373 0.0
H276 H 0.00657 0.00768 0.8039 0.0
H277 H 0.03647 0.05193 0.89569 0.0
H278 H 0.00932 0.02505 0.47434 0.0
H279 H 0.09974 0.03665 0.61637 0.0
H280 H 0.06724 0.06731 0.8584 0.0
H281 H 0.09202 0.06941 0.78616 0.0
H282 H 0.91703 0.98338 0.64479 0.0
H283 H 0.10424 0.0581 0.69605 0.0
H284 H 0.9798 0.98779 0.36199 0.0
N285 N 0.95848 1.00013 0.58407 0.0
C286 C 0.95623 0.99181 0.53462 0.0
C287 C 0.928 0.98548 0.61367 0.0
C288 C 0.93956 0.97989 0.52298 0.0
C289 C 0.94457 0.9974 0.62321 0.0
C290 C 0.9255 0.97663 0.56343 0.0
N291 N 0.98641 0.00707 0.50736 0.0
C292 C 0.99869 0.01349 0.46731 0.0
C293 C 0.96788 0.98777 0.4429 0.0
C294 C 0.97056 0.99532 0.49536 0.0
C295 C 0.98147 0.99306 0.40288 0.0
C296 C 0.99674 0.00624 0.41501 0.0
H297 H 0.91253 0.96755 0.55606 0.0
H298 H 0.92455 0.96274 0.46165 0.0
H299 H 0.94883 0.97031 0.39114 0.0
O300 O 0.98648 0.04925 0.55465 0.0
O301 O 0.98885 0.98716 0.60369 0.0
O302 O 0.02206 0.982 0.61629 0.0
O303 O 0.95859 0.03602 0.57796 0.0
O304 O 0.0181 0.02765 0.56684 0.0
O305 O 0.03657 1.00134 0.59534 0.0
O306 O 0.03331 0.9779 0.74111 0.0
O307 O 0.02667 0.03575 0.67053 0.0
O308 O 0.99319 0.03919 0.66872 0.0
O309 O 0.05881 0.98728 0.69526 0.0
O310 O 0.99959 0.99412 0.71468 0.0
O311 O 0.97903 0.0188 0.68362 0.0
C312 C 0.00443 0.97562 0.60213 0.0
C313 C 0.9604 0.052 0.49286 0.0
C314 C 0.96653 0.06541 0.4033 0.0
C315 C 0.94957 0.05566 0.38418 0.0
C316 C 0.94356 0.04209 0.47313 0.0
C317 C 0.9382 0.04398 0.41905 0.0
C318 C 0.97167 0.06368 0.45761 0.0
C319 C 0.03325 0.01566 0.56099 0.0
C320 C 0.96733 0.04945 0.54871 0.0
C321 C 0.9373 0.97183 0.47137 0.0
C322 C 0.95128 0.97595 0.43133 0.0
C323 C 0.01075 0.04615 0.68079 0.0
C324 C 0.05504 0.95297 0.70872 0.0
C325 C 0.04449 0.91839 0.70103 0.0
C326 C 0.06272 0.91393 0.6766 0.0
C327 C 0.07319 0.94808 0.68472 0.0
C328 C 0.04066 0.9381 0.7159 0.0
C329 C 0.07687 0.92872 0.66826 0.0
C330 C 0.98307 0.00442 0.71758 0.0
C331 C 0.05123 0.97358 0.72568 0.0
H332 H 0.94524 0.057 0.34244 0.0
H333 H 0.93465 0.03277 0.49916 0.0
H334 H 0.92523 0.03631 0.40409 0.0
H335 H 0.98457 0.07157 0.47253 0.0
H336 H 0.06639 0.8989 0.66558 0.0
H337 H 0.08455 0.95923 0.67863 0.0
H338 H 0.02651 0.94184 0.7335 0.0
H339 H 0.09092 0.92509 0.6499 0.0
Eu340 Eu 0.50969 0.03072 0.66456 0.0
C341 C 0.49312 0.94245 0.62355 0.0
N342 N 0.50602 0.95513 0.59967 0.0
C343 C 0.5319 0.93119 0.60621 0.0
C344 C 0.49941 0.92386 0.64235 0.0
C345 C 0.52499 0.94956 0.58874 0.0
C346 C 0.51913 0.91841 0.63389 0.0
C347 C 0.45948 0.93471 0.65005 0.0
C348 C 0.47343 0.9478 0.62701 0.0
C349 C 0.46583 0.91661 0.67155 0.0
C350 C 0.48575 0.91119 0.66764 0.0
Eu351 Eu 0.49344 0.98575 0.5706 0.0
N352 N 0.46773 0.96516 0.60453 0.0
C353 C 0.43947 0.93987 0.64897 0.0
C354 C 0.4481 0.96945 0.59957 0.0
C355 C 0.43374 0.95716 0.62279 0.0
H356 H 0.53483 0.95951 0.56743 0.0
H357 H 0.41824 0.96092 0.61995 0.0
H358 H 0.46622 0.04547 0.72258 0.0
H359 H 0.56354 0.07608 0.55762 0.0
H360 H 0.44339 0.98236 0.57758 0.0
H361 H 0.4283 0.93025 0.6664 0.0
H362 H 0.55131 0.04667 0.60748 0.0
H363 H 0.54705 0.92695 0.5985 0.0
H364 H 0.45535 0.90644 0.68981 0.0
H365 H 0.49033 0.89696 0.68307 0.0
H366 H 0.44215 0.07217 0.71119 0.0
H367 H 0.52452 0.90422 0.64758 0.0
H368 H 0.54084 0.10381 0.5388 0.0
N369 N 0.48608 0.05655 0.66276 0.0
C370 C 0.49103 0.07241 0.63168 0.0
C371 C 0.4557 0.07227 0.68793 0.0
C372 C 0.47801 0.08849 0.62588 0.0
C373 C 0.46926 0.05688 0.69333 0.0
C374 C 0.45991 0.08797 0.65326 0.0
N375 N 0.52212 0.05771 0.61526 0.0
C376 C 0.5414 0.05875 0.59906 0.0
C377 C 0.51596 0.09015 0.57979 0.0
C378 C 0.50974 0.07323 0.60843 0.0
C379 C 0.53547 0.09101 0.56074 0.0
C380 C 0.54833 0.07537 0.57117 0.0
H381 H 0.44948 0.1 0.6497 0.0
H382 H 0.47383 0.11727 0.58939 0.0
H383 H 0.5071 0.11877 0.54935 0.0
O384 O 0.53406 0.02674 0.72023 0.0
O385 O 0.51015 0.03363 0.57301 0.0
O386 O 0.48268 0.0164 0.54847 0.0
O387 O 0.51474 0.05172 0.73035 0.0
O388 O 0.53498 0.01134 0.63514 0.0
O389 O 0.52403 0.99862 0.55416 0.0
O390 O 0.47796 0.97124 0.50393 0.0
O391 O 0.51009 0.98001 0.64969 0.0
O392 O 0.49809 0.00341 0.70711 0.0
O393 O 0.50819 0.98095 0.49377 0.0
O394 O 0.46871 0.00619 0.59975 0.0
O395 O 0.47969 0.01668 0.68285 0.0
C396 C 0.49473 0.03144 0.54155 0.0
C397 C 0.54929 0.05664 0.74338 0.0
C398 C 0.58523 0.05876 0.74906 0.0
C399 C 0.5846 0.07814 0.729 0.0
C400 C 0.54881 0.07621 0.7243 0.0
C401 C 0.56642 0.08687 0.71726 0.0
C402 C 0.56752 0.04823 0.75661 0.0
C403 C 0.53835 0.00398 0.58697 0.0
C404 C 0.53157 0.04381 0.74333 0.0
C405 C 0.48373 0.10489 0.5947 0.0
C406 C 0.50269 0.10577 0.57196 0.0
C407 C 0.50443 0.98541 0.69821 0.0
C408 C 0.48823 0.98211 0.4172 0.0
C409 C 0.46975 0.0045 0.35912 0.0
C410 C 0.48186 0.99892 0.31566 0.0
C411 C 0.50009 0.97676 0.37332 0.0
C412 C 0.4732 0.99612 0.41013 0.0
C413 C 0.49694 0.98518 0.32288 0.0
C414 C 0.46533 0.01164 0.64978 0.0
C415 C 0.49259 0.9737 0.47037 0.0
H416 H 0.59811 0.08656 0.72306 0.0
H417 H 0.53497 0.08307 0.71323 0.0
H418 H 0.56599 0.10183 0.70189 0.0
H419 H 0.56798 0.03306 0.77071 0.0
H420 H 0.47947 0.00487 0.2758 0.0
H421 H 0.51191 0.96616 0.37822 0.0
H422 H 0.46438 1.00061 0.44441 0.0
H423 H 0.50615 0.98097 0.28917 0.0
Eu424 Eu 0.52691 0.49611 0.57589 0.0
C425 C 0.4496 0.48999 0.71357 0.0
N426 N 0.45352 0.50035 0.66781 0.0
C427 C 0.42184 0.49111 0.63206 0.0
C428 C 0.43166 0.47944 0.71968 0.0
C429 C 0.43953 0.50184 0.62852 0.0
C430 C 0.41798 0.47965 0.67755 0.0
C431 C 0.45848 0.48184 0.80558 0.0
C432 C 0.46287 0.4911 0.75613 0.0
C433 C 0.44084 0.47103 0.81127 0.0
C434 C 0.42749 0.46979 0.7684 0.0
Eu435 Eu 0.48397 0.51789 0.66671 0.0
N436 N 0.47964 0.50204 0.75012 0.0
C437 C 0.47162 0.48431 0.84854 0.0
C438 C 0.49197 0.50538 0.79259 0.0
C439 C 0.48834 0.49631 0.84215 0.0
H440 H 0.44157 0.51173 0.59506 0.0
H441 H 0.49832 0.49874 0.87552 0.0
H442 H 0.56538 0.52145 0.62452 0.0
H443 H 0.50206 0.48994 0.36681 0.0
H444 H 0.50458 0.51508 0.78828 0.0
H445 H 0.46874 0.47744 0.88715 0.0
H446 H 0.50614 0.479 0.46061 0.0
H447 H 0.41097 0.4921 0.6003 0.0
H448 H 0.43715 0.46405 0.84919 0.0
H449 H 0.41369 0.46182 0.77387 0.0
H450 H 0.58831 0.54818 0.59567 0.0
H451 H 0.40407 0.47169 0.68068 0.0
H452 H 0.51999 0.51961 0.33415 0.0
N453 N 0.54958 0.52117 0.5508 0.0
C454 C 0.54847 0.52796 0.49955 0.0
C455 C 0.57706 0.54275 0.56844 0.0
C456 C 0.56106 0.54327 0.48148 0.0
C457 C 0.56411 0.52767 0.58466 0.0
C458 C 0.57533 0.5508 0.51689 0.0
N459 N 0.52407 0.50359 0.48296 0.0
C460 C 0.51313 0.49257 0.44778 0.0
C461 C 0.53383 0.5255 0.41098 0.0
C462 C 0.53504 0.51915 0.4649 0.0
C463 C 0.52131 0.51522 0.37588 0.0
C464 C 0.51116 0.49848 0.39417 0.0
H465 H 0.58532 0.56254 0.5045 0.0
H466 H 0.56862 0.56219 0.41408 0.0
H467 H 0.54475 0.54664 0.35229 0.0
O468 O 0.54325 0.47427 0.52874 0.0
O469 O 0.52352 0.52954 0.58914 0.0
O470 O 0.49026 0.53281 0.58698 0.0
O471 O 0.5516 0.48011 0.61087 0.0
O472 O 0.49566 0.4865 0.55102 0.0
O473 O 0.4762 0.51255 0.57867 0.0
O474 O 0.48867 0.54802 0.69409 0.0
O475 O 0.49757 0.48821 0.6902 0.0
O476 O 0.50397 0.47443 0.6083 0.0
O477 O 0.45921 0.53536 0.69701 0.0
O478 O 0.51527 0.52562 0.69437 0.0
O479 O 0.53389 0.49939 0.66445 0.0
C480 C 0.50787 0.53967 0.57512 0.0
C481 C 0.55382 0.44715 0.58245 0.0
C482 C 0.5412 0.4136 0.56873 0.0
C483 C 0.55302 0.40701 0.61147 0.0
C484 C 0.56572 0.44021 0.62454 0.0
C485 C 0.5652 0.42028 0.63912 0.0
C486 C 0.5415 0.43377 0.55494 0.0
C487 C 0.47966 0.49746 0.54648 0.0
C488 C 0.55371 0.46847 0.56971 0.0
C489 C 0.55926 0.55026 0.42856 0.0
C490 C 0.54564 0.54142 0.39341 0.0
C491 C 0.49938 0.47251 0.65939 0.0
C492 C 0.46866 0.55799 0.76547 0.0
C493 C 0.47817 0.58374 0.82872 0.0
C494 C 0.46936 0.57288 0.87067 0.0
C495 C 0.45975 0.54724 0.80746 0.0
C496 C 0.47759 0.57622 0.77633 0.0
C497 C 0.46007 0.55476 0.85987 0.0
C498 C 0.53112 0.51443 0.697 0.0
C499 C 0.47054 0.55013 0.71079 0.0
H500 H 0.55323 0.39154 0.6227 0.0
H501 H 0.57526 0.45027 0.64655 0.0
H502 H 0.57437 0.41507 0.67175 0.0
H503 H 0.53198 0.43904 0.52308 0.0
H504 H 0.4696 0.57842 0.91154 0.0
H505 H 0.45291 0.53298 0.80008 0.0
H506 H 0.48486 0.58421 0.74393 0.0
H507 H 0.45331 0.54642 0.89227 0.0
Eu508 Eu 0.01701 0.53689 0.58478 0.0
C509 C 0.99881 0.46571 0.77336 0.0
N510 N 0.00714 0.4671 0.72393 0.0
C511 C 0.03019 0.44162 0.74657 0.0
C512 C 0.00616 0.45248 0.81218 0.0
C513 C 0.0222 0.45485 0.70936 0.0
C514 C 0.02227 0.44057 0.79846 0.0
C515 C 0.97236 0.47509 0.83373 0.0
C516 C 0.98224 0.47681 0.78394 0.0
C517 C 0.97999 0.46249 0.87344 0.0
C518 C 0.99688 0.45121 0.86269 0.0
Eu519 Eu 0.99393 0.49073 0.66405 0.0
N520 N 0.97519 0.48856 0.74438 0.0
C521 C 0.95486 0.48568 0.84148 0.0
C522 C 0.95783 0.49847 0.75107 0.0
C523 C 0.94745 0.49725 0.79969 0.0
H524 H 0.02832 0.45557 0.66922 0.0
H525 H 0.93371 0.50515 0.80479 0.0
H526 H 0.0165 0.57375 0.67987 0.0
H527 H 0.98503 0.54093 0.38461 0.0
H528 H 0.95196 0.50743 0.719 0.0
H529 H 0.94677 0.48471 0.87905 0.0
H530 H 0.00832 0.52956 0.45482 0.0
H531 H 0.04239 0.43221 0.73519 0.0
H532 H 0.9727 0.46106 0.91211 0.0
H533 H 0.00237 0.44124 0.89323 0.0
H534 H 0.99476 0.60102 0.70671 0.0
H535 H 0.02838 0.43023 0.82713 0.0
H536 H 0.95989 0.56614 0.40681 0.0
N537 N 0.99886 0.5653 0.61241 0.0
C538 C 0.98446 0.57131 0.57804 0.0
C539 C 0.99146 0.59252 0.67103 0.0
C540 C 0.97225 0.58752 0.59059 0.0
C541 C 0.00347 0.57667 0.65621 0.0
C542 C 0.97547 0.59768 0.63878 0.0
N543 N 0.99607 0.54789 0.51556 0.0
C544 C 0.99737 0.5406 0.46449 0.0
C545 C 0.96962 0.56939 0.48932 0.0
C546 C 0.9832 0.5625 0.52784 0.0
C547 C 0.97006 0.56121 0.43757 0.0
C548 C 0.98425 0.547 0.42483 0.0
H549 H 0.9664 0.61019 0.64994 0.0
H550 H 0.94851 0.60621 0.56258 0.0
H551 H 0.94589 0.59004 0.47419 0.0
O552 O 0.04407 0.53529 0.53689 0.0
O553 O 0.98846 0.52132 0.56081 0.0
O554 O 0.97467 0.51673 0.64215 0.0
O555 O 0.03294 0.56372 0.56142 0.0
O556 O 0.01719 0.50783 0.53912 0.0
O557 O 0.02011 0.48547 0.60801 0.0
O558 O 0.9748 0.46483 0.65483 0.0
O559 O 0.02634 0.49505 0.68714 0.0
O560 O 0.03898 0.52326 0.64403 0.0
O561 O 0.98316 0.48168 0.58463 0.0
O562 O 0.98852 0.52125 0.69993 0.0
O563 O 0.01658 0.53869 0.67649 0.0
C564 C 0.97272 0.52159 0.59167 0.0
C565 C 0.04801 0.56152 0.47548 0.0
C566 C 0.06568 0.55912 0.3902 0.0
C567 C 0.05232 0.57243 0.36705 0.0
C568 C 0.03486 0.57504 0.45202 0.0
C569 C 0.03707 0.58045 0.39806 0.0
C570 C 0.06344 0.55383 0.44447 0.0
C571 C 0.02133 0.49 0.55664 0.0
C572 C 0.04545 0.55437 0.53106 0.0
C573 C 0.95797 0.59378 0.55347 0.0
C574 C 0.95659 0.58467 0.503 0.0
C575 C 0.04069 0.50795 0.6771 0.0
C576 C 0.95157 0.46734 0.58428 0.0
C577 C 0.91671 0.47499 0.59899 0.0
C578 C 0.91231 0.46703 0.54805 0.0
C579 C 0.94695 0.4595 0.53369 0.0
C580 C 0.93655 0.47547 0.61596 0.0
C581 C 0.9274 0.45948 0.51555 0.0
C582 C 0.00238 0.53436 0.71095 0.0
C583 C 0.97211 0.46752 0.60338 0.0
H584 H 0.05371 0.57665 0.32518 0.0
H585 H 0.02272 0.58118 0.47494 0.0
H586 H 0.02681 0.59073 0.38009 0.0
H587 H 0.07335 0.54311 0.46228 0.0
H588 H 0.89724 0.46628 0.53358 0.0
H589 H 0.95845 0.45342 0.50829 0.0
H590 H 0.94047 0.4823 0.65381 0.0
H591 H 0.92388 0.45339 0.47645 0.0
H592 H 0.17821 0.06891 0.25937 0.0
H593 H 0.15099 0.06224 0.32173 0.0
H594 H 0.13158 0.01366 0.2223 0.0
H595 H 0.15899 0.0203 0.15933 0.0
H596 H 0.09978 0.03835 0.25943 0.0
H597 H 0.1551 1.00266 0.3303 0.0
H598 H 0.18948 0.99853 0.36094 0.0
H599 H 0.18051 0.04233 0.48354 0.0
H600 H 0.14613 0.04693 0.45308 0.0
H601 H 0.06105 0.98968 0.52487 0.0
H602 H 0.08576 0.99456 0.45435 0.0
H603 H 0.06306 0.05292 0.42403 0.0
H604 H 0.03833 0.04824 0.49537 0.0
H605 H 0.11541 0.02155 0.44889 0.0
H606 H 0.06783 0.06362 0.2996 0.0
H607 H 0.03298 0.06466 0.26998 0.0
H608 H 0.02667 1.00258 0.30151 0.0
H609 H 0.06123 1.00128 0.33297 0.0
C610 C 0.1681 0.05686 0.25049 0.0
C611 C 0.17079 0.04515 0.20422 0.0
C612 C 0.15255 0.05303 0.28632 0.0
C613 C 0.13918 0.03747 0.2768 0.0
C614 C 0.14166 0.02581 0.23041 0.0
C615 C 0.15742 0.0295 0.19473 0.0
C616 C 0.12313 0.03307 0.31649 0.0
C617 C 0.10323 0.03469 0.30082 0.0
C618 C 0.12748 0.02807 0.37049 0.0
C619 C 0.1481 0.02528 0.38907 0.0
C620 C 0.16051 0.01153 0.3635 0.0
C621 C 0.17998 0.00908 0.38089 0.0
C622 C 0.18719 0.0202 0.42407 0.0
C623 C 0.17491 0.03375 0.45004 0.0
C624 C 0.15543 0.03627 0.43276 0.0
C625 C 0.06124 0.00358 0.50325 0.0
C626 C 0.04766 0.01858 0.51605 0.0
C627 C 0.07542 0.00633 0.46282 0.0
C628 C 0.0763 0.02406 0.43356 0.0
C629 C 0.06258 0.039 0.44554 0.0
C630 C 0.04845 0.03632 0.48645 0.0
C631 C 0.09208 0.02708 0.39213 0.0
C632 C 0.11196 0.02527 0.40753 0.0
C633 C 0.08771 0.03163 0.33789 0.0
C634 C 0.06704 0.03237 0.31861 0.0
C635 C 0.05899 0.05021 0.30014 0.0
C636 C 0.03928 0.05087 0.2833 0.0
C637 C 0.02763 0.03373 0.28384 0.0
C638 C 0.03566 0.01588 0.30136 0.0
C639 C 0.05525 0.01519 0.31909 0.0
H640 H 0.0124 0.0343 0.2707 0.0
H641 H 0.20227 0.01828 0.43748 0.0
H642 H 0.44592 0.14238 0.13099 0.0
H643 H 0.45017 0.11619 0.19764 0.0
H644 H 0.5022 0.14574 0.25821 0.0
H645 H 0.49789 0.1722 0.19225 0.0
H646 H 0.5071 0.10508 0.25075 0.0
H647 H 0.4561 0.15001 0.31984 0.0
H648 H 0.42384 0.16676 0.31426 0.0
H649 H 0.39433 0.11054 0.30114 0.0
H650 H 0.42643 0.09354 0.30605 0.0
H651 H 0.52154 0.05696 0.49665 0.0
H652 H 0.51639 0.08094 0.42548 0.0
H653 H 0.45636 0.05998 0.40721 0.0
H654 H 0.46102 0.03725 0.48219 0.0
H655 H 0.45443 0.09445 0.38681 0.0
H656 H 0.50057 0.04792 0.32072 0.0
H657 H 0.53058 0.02756 0.31814 0.0
H658 H 0.56664 0.08001 0.31208 0.0
H659 H 0.53677 0.10073 0.31525 0.0
C660 C 0.45829 0.14339 0.15844 0.0
C661 C 0.47145 0.15966 0.15622 0.0
C662 C 0.46071 0.12832 0.19662 0.0
C663 C 0.47633 0.12907 0.23378 0.0
C664 C 0.48999 0.14479 0.23019 0.0
C665 C 0.48756 0.15991 0.19207 0.0
C666 C 0.4782 0.11388 0.27732 0.0
C667 C 0.49566 0.10282 0.28083 0.0
C668 C 0.4629 0.11015 0.31512 0.0
C669 C 0.44366 0.12051 0.3128 0.0
C670 C 0.44274 0.14125 0.31545 0.0
C671 C 0.42448 0.15078 0.31247 0.0
C672 C 0.40705 0.13973 0.30724 0.0
C673 C 0.40783 0.1191 0.30516 0.0
C674 C 0.42604 0.10951 0.30808 0.0
C675 C 0.50713 0.0577 0.4782 0.0
C676 C 0.49168 0.04529 0.49578 0.0
C677 C 0.50429 0.07116 0.43623 0.0
C678 C 0.4862 0.07188 0.40836 0.0
C679 C 0.47065 0.05959 0.42649 0.0
C680 C 0.47335 0.04645 0.46949 0.0
C681 C 0.4835 0.0855 0.36104 0.0
C682 C 0.46587 0.09633 0.35665 0.0
C683 C 0.49832 0.08834 0.32097 0.0
C684 C 0.51635 0.07591 0.31839 0.0
C685 C 0.51486 0.05514 0.31884 0.0
C686 C 0.53187 0.04352 0.31737 0.0
C687 C 0.55052 0.05249 0.31498 0.0
C688 C 0.55218 0.07309 0.31393 0.0
C689 C 0.5352 0.08478 0.3155 0.0
H690 H 0.56368 0.04347 0.31391 0.0
H691 H 0.39294 0.14714 0.30491 0.0
H692 H 0.3635 0.4439 0.15507 0.0
H693 H 0.39032 0.44949 0.21894 0.0
H694 H 0.36155 0.50217 0.27604 0.0
H695 H 0.33415 0.49632 0.21366 0.0
H696 H 0.40379 0.5061 0.26068 0.0
H697 H 0.35641 0.46225 0.34619 0.0
H698 H 0.33572 0.43219 0.35258 0.0
H699 H 0.38755 0.39601 0.3427 0.0
H700 H 0.40854 0.42586 0.3351 0.0
H701 H 0.45259 0.52301 0.50522 0.0
H702 H 0.42866 0.51716 0.43411 0.0
H703 H 0.45126 0.45816 0.41214 0.0
H704 H 0.47444 0.4635 0.48659 0.0
H705 H 0.41355 0.45647 0.40498 0.0
H706 H 0.46154 0.49815 0.32236 0.0
H707 H 0.48366 0.52707 0.31329 0.0
H708 H 0.43354 0.56571 0.3126 0.0
H709 H 0.41108 0.53704 0.32225 0.0
C710 C 0.36272 0.45665 0.18132 0.0
C711 C 0.34637 0.46948 0.17947 0.0
C712 C 0.37819 0.45987 0.21765 0.0
C713 C 0.37786 0.47611 0.25273 0.0
C714 C 0.36212 0.48952 0.24935 0.0
C715 C 0.34648 0.48619 0.21336 0.0
C716 C 0.3935 0.47862 0.29439 0.0
C717 C 0.40582 0.49538 0.2926 0.0
C718 C 0.39664 0.46425 0.33488 0.0
C719 C 0.38402 0.44629 0.33942 0.0
C720 C 0.36338 0.44788 0.34478 0.0
C721 C 0.3516 0.43088 0.34869 0.0
C722 C 0.36031 0.4122 0.34781 0.0
C723 C 0.38082 0.41049 0.34315 0.0
C724 C 0.39267 0.42744 0.33904 0.0
C725 C 0.4524 0.50868 0.48575 0.0
C726 C 0.4655 0.49372 0.5018 0.0
C727 C 0.43884 0.50545 0.44433 0.0
C728 C 0.43834 0.48736 0.41653 0.0
C729 C 0.45137 0.47232 0.43255 0.0
C730 C 0.46475 0.47543 0.47487 0.0
C731 C 0.42387 0.48412 0.37186 0.0
C732 C 0.41173 0.46719 0.37296 0.0
C733 C 0.42118 0.49815 0.33008 0.0
C734 C 0.43462 0.51544 0.32342 0.0
C735 C 0.45522 0.51282 0.32056 0.0
C736 C 0.46783 0.52917 0.31532 0.0
C737 C 0.46002 0.54822 0.31257 0.0
C738 C 0.43957 0.55095 0.31479 0.0
C739 C 0.42688 0.53465 0.32005 0.0
H740 H 0.46981 0.56086 0.30859 0.0
H741 H 0.35117 0.39905 0.35092 0.0
H742 H 0.02139 0.33531 0.24674 0.0
H743 H 0.01687 0.36125 0.31431 0.0
H744 H 0.05014 0.402 0.21556 0.0
H745 H 0.05454 0.37626 0.14774 0.0
H746 H 0.06342 0.40276 0.31617 0.0
H747 H 0.99961 0.40613 0.233 0.0
H748 H 0.96767 0.39318 0.20023 0.0
H749 H 0.9522 0.37495 0.36036 0.0
H750 H 0.98419 0.38755 0.39399 0.0
H751 H 0.03526 0.49363 0.45334 0.0
H752 H 0.0397 0.46734 0.38624 0.0
H753 H 0.01939 0.42409 0.50128 0.0
H754 H 0.01568 0.45011 0.56913 0.0
H755 H 0.99957 0.42417 0.3945 0.0
H756 H 0.06254 0.42217 0.47838 0.0
H757 H 0.09563 0.43172 0.51072 0.0
H758 H 0.1137 0.44525 0.34925 0.0
H759 H 0.08042 0.43674 0.31611 0.0
C760 C 0.02738 0.3499 0.23878 0.0
C761 C 0.03842 0.35357 0.19166 0.0
C762 C 0.02484 0.36476 0.27766 0.0
C763 C 0.03316 0.38369 0.27027 0.0
C764 C 0.04368 0.38753 0.22259 0.0
C765 C 0.04621 0.37273 0.18377 0.0
C766 C 0.03182 0.39922 0.31312 0.0
C767 C 0.04942 0.40773 0.33254 0.0
C768 C 0.01361 0.40522 0.33603 0.0
C769 C 0.99439 0.3976 0.3159 0.0
C770 C 0.98948 0.3992 0.26115 0.0
C771 C 0.97135 0.39195 0.24243 0.0
C772 C 0.95794 0.3832 0.27816 0.0
C773 C 0.96261 0.38171 0.33271 0.0
C774 C 0.98074 0.38892 0.35163 0.0
C775 C 0.03201 0.47848 0.4646 0.0
C776 C 0.02526 0.47399 0.51681 0.0
C777 C 0.03456 0.46347 0.42618 0.0
C778 C 0.02992 0.44372 0.43871 0.0
C779 C 0.02314 0.4392 0.49074 0.0
C780 C 0.02112 0.45411 0.52958 0.0
C781 C 0.03119 0.42795 0.39683 0.0
C782 C 0.01356 0.41936 0.37774 0.0
C783 C 0.04941 0.4219 0.37417 0.0
C784 C 0.06878 0.42908 0.3948 0.0
C785 C 0.07334 0.42773 0.44987 0.0
C786 C 0.0922 0.43285 0.46834 0.0
C787 C 0.10677 0.43903 0.43205 0.0
C788 C 0.10241 0.44044 0.37733 0.0
C789 C 0.0835 0.43562 0.35874 0.0
H790 H 0.12144 0.44274 0.44633 0.0
H791 H 0.9439 0.3776 0.26359 0.0
H792 H 0.86664 0.97375 0.13777 0.0
H793 H 0.89254 0.96957 0.06877 0.0
H794 H 0.87009 0.02009 0.9832 0.0
H795 H 0.84444 0.02424 0.05111 0.0
H796 H 0.87705 0.98912 0.91586 0.0
H797 H 0.91137 0.02385 0.05869 0.0
H798 H 0.92391 0.02814 0.15104 0.0
H799 H 0.9573 0.97459 0.13632 0.0
H800 H 0.94473 0.96985 0.04405 0.0
H801 H 0.95067 0.02634 0.74476 0.0
H802 H 0.92728 0.02095 0.81784 0.0
H803 H 0.95977 0.96962 0.86845 0.0
H804 H 0.9833 0.97468 0.79406 0.0
H805 H 0.94879 0.99464 0.95509 0.0
H806 H 0.91727 0.96136 0.81004 0.0
H807 H 0.90444 0.9563 0.7183 0.0
H808 H 0.86583 0.00599 0.73742 0.0
H809 H 0.87852 0.01144 0.82924 0.0
C810 C 0.86728 0.98392 0.10419 0.0
C811 C 0.85361 0.99948 0.10041 0.0
C812 C 0.88213 0.98159 0.06492 0.0
C813 C 0.88338 0.99461 0.02081 0.0
C814 C 0.86952 0.00988 0.01674 0.0
C815 C 0.85492 0.01233 0.05598 0.0
C816 C 0.89886 0.99253 0.97817 0.0
C817 C 0.89273 0.99041 0.92453 0.0
C818 C 0.91939 0.99354 0.98933 0.0
C819 C 0.9269 0.99635 0.04477 0.0
C820 C 0.92123 0.01288 0.07534 0.0
C821 C 0.92838 0.01542 0.12762 0.0
C822 C 0.94134 1.00161 0.14961 0.0
C823 C 0.94722 0.98525 0.11929 0.0
C824 C 0.9401 0.98264 0.067 0.0
C825 C 0.95287 0.01375 0.77091 0.0
C826 C 0.96887 1.00083 0.76283 0.0
C827 C 0.93941 0.01071 0.81291 0.0
C828 C 0.94159 0.99477 0.84849 0.0
C829 C 0.95772 0.98199 0.84144 0.0
C830 C 0.97114 0.98489 0.79878 0.0
C831 C 0.92689 0.99179 0.89277 0.0
C832 C 0.93313 0.993 0.94656 0.0
C833 C 0.90642 0.98985 0.8819 0.0
C834 C 0.89894 0.98688 0.8264 0.0
C835 C 0.90615 0.97131 0.79454 0.0
C836 C 0.89885 0.96832 0.74261 0.0
C837 C 0.88432 0.98082 0.72206 0.0
C838 C 0.87707 0.99632 0.75342 0.0
C839 C 0.88427 0.99933 0.80546 0.0
H840 H 0.87871 0.9785 0.68179 0.0
H841 H 0.94687 0.0036 0.19008 0.0
H842 H 0.53352 0.84476 0.04352 0.0
H843 H 0.53326 0.86982 0.97291 0.0
H844 H 0.4897 0.90294 0.06172 0.0
H845 H 0.48945 0.87742 0.13167 0.0
H846 H 0.47905 0.90315 0.96408 0.0
H847 H 0.54097 0.91752 0.04684 0.0
H848 H 0.57423 0.9111 0.08306 0.0
H849 H 0.59387 0.89212 0.92714 0.0
H850 H 0.56063 0.89817 0.89011 0.0
H851 H 0.48585 0.98806 0.79579 0.0
H852 H 0.48791 0.96544 0.87206 0.0
H853 H 0.52754 0.92818 0.78185 0.0
H854 H 0.52656 0.9516 0.70686 0.0
H855 H 0.53996 0.93112 0.88189 0.0
H856 H 0.47578 0.91783 0.80145 0.0
H857 H 0.44296 0.92823 0.76902 0.0
H858 H 0.42798 0.94892 0.92696 0.0
H859 H 0.46077 0.93893 0.96032 0.0
C860 C 0.52418 0.85758 0.04862 0.0
C861 C 0.51164 0.85911 0.09368 0.0
C862 C 0.52403 0.87199 0.00801 0.0
C863 C 0.51165 0.88861 0.01176 0.0
C864 C 0.49939 0.89034 0.05736 0.0
C865 C 0.49932 0.87576 0.09762 0.0
C866 C 0.51092 0.90369 0.96731 0.0
C867 C 0.49242 0.90941 0.94676 0.0
C868 C 0.52826 0.91189 0.94365 0.0
C869 C 0.54824 0.90811 0.96583 0.0
C870 C 0.55233 0.91182 0.02037 0.0
C871 C 0.57119 0.90827 0.04103 0.0
C872 C 0.58614 0.90116 0.00746 0.0
C873 C 0.58227 0.89761 0.95312 0.0
C874 C 0.56342 0.9011 0.93226 0.0
C875 C 0.49507 0.97509 0.79215 0.0
C876 C 0.5057 0.97142 0.74444 0.0
C877 C 0.4961 0.96201 0.83579 0.0
C878 C 0.50751 0.94471 0.83265 0.0
C879 C 0.51844 0.94125 0.7854 0.0
C880 C 0.51764 0.9545 0.74204 0.0
C881 C 0.50817 0.93034 0.87857 0.0
C882 C 0.52664 0.92477 0.89931 0.0
C883 C 0.49081 0.92256 0.90299 0.0
C884 C 0.47078 0.92773 0.88333 0.0
C885 C 0.4655 0.92462 0.82926 0.0
C886 C 0.44693 0.93049 0.81067 0.0
C887 C 0.43346 0.93931 0.84581 0.0
C888 C 0.43845 0.94214 0.89975 0.0
C889 C 0.45701 0.93635 0.91856 0.0
H890 H 0.41913 0.94391 0.83125 0.0
H891 H 0.60074 0.89844 0.02352 0.0
H892 H 0.65529 0.54531 0.09818 0.0
H893 H 0.62828 0.5498 0.03316 0.0
H894 H 0.652 0.5028 0.9356 0.0
H895 H 0.67898 0.4986 0.9991 0.0
H896 H 0.64118 0.53282 0.8736 0.0
H897 H 0.61193 0.49592 0.0215 0.0
H898 H 0.60205 0.49072 0.11602 0.0
H899 H 0.56675 0.54326 0.11114 0.0
H900 H 0.57664 0.5489 0.01673 0.0
H901 H 0.56529 0.4941 0.71485 0.0
H902 H 0.59009 0.49972 0.78394 0.0
H903 H 0.55639 0.54859 0.84615 0.0
H904 H 0.53122 0.54307 0.77648 0.0
H905 H 0.57099 0.5242 0.92773 0.0
H906 H 0.59679 0.55871 0.77641 0.0
H907 H 0.60576 0.56328 0.68108 0.0
H908 H 0.64721 0.51561 0.69193 0.0
H909 H 0.6383 0.51059 0.78725 0.0
C910 C 0.65478 0.53605 0.06267 0.0
C911 C 0.66918 0.52139 0.05439 0.0
C912 C 0.63926 0.53853 0.02567 0.0
C913 C 0.63792 0.52649 0.97956 0.0
C914 C 0.65259 0.51225 0.97076 0.0
C915 C 0.66795 0.50973 0.00756 0.0
C916 C 0.62129 0.52825 0.94028 0.0
C917 C 0.62586 0.53087 0.88555 0.0
C918 C 0.60115 0.52636 0.95567 0.0
C919 C 0.59522 0.52297 0.01233 0.0
C920 C 0.6022 0.50645 0.04074 0.0
C921 C 0.59657 0.50341 0.09425 0.0
C922 C 0.58384 0.51669 0.11963 0.0
C923 C 0.57666 0.53301 0.09148 0.0
C924 C 0.58226 0.53613 0.03797 0.0
C925 C 0.56303 0.5061 0.74299 0.0
C926 C 0.54617 0.51815 0.73972 0.0
C927 C 0.57733 0.50932 0.78258 0.0
C928 C 0.57527 0.52471 0.82005 0.0
C929 C 0.55834 0.53664 0.81765 0.0
C930 C 0.54399 0.53349 0.77764 0.0
C931 C 0.59102 0.52814 0.86112 0.0
C932 C 0.58629 0.52651 0.91599 0.0
C933 C 0.61103 0.53099 0.84596 0.0
C934 C 0.61678 0.5342 0.78894 0.0
C935 C 0.60774 0.54913 0.75841 0.0
C936 C 0.61282 0.5518 0.70437 0.0
C937 C 0.627 0.5397 0.68041 0.0
C938 C 0.63621 0.52496 0.71054 0.0
C939 C 0.63119 0.52222 0.76463 0.0
H940 H 0.63088 0.54177 0.63852 0.0
H941 H 0.57949 0.5143 0.16105 0.0
H942 H 0.97342 0.6696 0.07198 0.0
H943 H 0.97096 0.64234 0.00732 0.0
H944 H 0.02871 0.62216 0.0543 0.0
H945 H 0.03103 0.64882 0.12022 0.0
H946 H 0.02508 0.62795 0.94367 0.0
H947 H 0.98941 0.59535 0.08621 0.0
H948 H 0.96315 0.59188 0.15456 0.0
H949 H 0.91887 0.59567 0.03154 0.0
H950 H 0.94488 0.59946 0.96249 0.0
H951 H 0.03254 0.54463 0.77741 0.0
H952 H 0.03146 0.56629 0.85599 0.0
H953 H 0.96869 0.5741 0.83311 0.0
H954 H 0.96964 0.55098 0.75692 0.0
H955 H 0.97415 0.57503 0.93253 0.0
H956 H 0.00773 0.60994 0.79145 0.0
H957 H 0.03271 0.61465 0.71984 0.0
H958 H 0.07917 0.6096 0.83644 0.0
H959 H 0.05445 0.60434 0.90823 0.0
C960 C 0.98538 0.65906 0.06978 0.0
C961 C 0.00253 0.66167 0.10125 0.0
C962 C 0.98399 0.64351 0.03242 0.0
C963 C 0.99972 0.63023 0.02554 0.0
C964 C 0.01645 0.63228 0.05843 0.0
C965 C 0.01777 0.64765 0.09607 0.0
C966 C 0.99946 0.61509 0.98166 0.0
C967 C 0.01409 0.61621 0.94165 0.0
C968 C 0.98474 0.60018 0.97778 0.0
C969 C 0.9691 0.59792 0.01925 0.0
C970 C 0.97408 0.59564 0.07378 0.0
C971 C 0.95924 0.59357 0.11264 0.0
C972 C 0.93936 0.59361 0.09743 0.0
C973 C 0.93428 0.59568 0.04328 0.0
C974 C 0.94906 0.59777 0.00426 0.0
C975 C 0.01848 0.5508 0.78968 0.0
C976 C 1.00119 0.54622 0.76103 0.0
C977 C 0.01788 0.56342 0.83431 0.0
C978 C 1.00011 0.5726 0.84991 0.0
C979 C 0.98266 0.56745 0.82214 0.0
C980 C 0.98317 0.55423 0.77853 0.0
C981 C 0.99988 0.58777 0.89422 0.0
C982 C 0.98516 0.58674 0.93431 0.0
C983 C 0.01432 0.60308 0.89775 0.0
C984 C 0.02925 0.60649 0.8549 0.0
C985 C 0.02329 0.60964 0.80152 0.0
C986 C 0.03739 0.6124 0.76097 0.0
C987 C 0.05752 0.61233 0.77353 0.0
C988 C 0.06358 0.60958 0.8267 0.0
C989 C 0.04952 0.60668 0.86732 0.0
H990 H 0.06843 0.61447 0.74212 0.0
H991 H 0.92789 0.592 0.12757 0.0
H992 H 0.0288 0.22461 0.22873 0.0
H993 H 0.0167 0.19413 0.26878 0.0
H994 H 0.07383 0.1673 0.24541 0.0
H995 H 0.08612 0.19806 0.2045 0.0
H996 H 0.04567 0.14343 0.21076 0.0
H997 H 0.05699 0.1779 0.37276 0.0
H998 H 0.05668 0.20557 0.4373 0.0
H999 H 0.99319 0.20424 0.4398 0.0
H1000 H 0.99309 0.17674 0.37466 0.0
H1001 H 0.00633 0.06406 0.38689 0.0
H1002 H 0.02699 0.09002 0.34609 0.0
H1003 H 0.97457 0.12233 0.30314 0.0
H1004 H 0.95385 0.09642 0.34367 0.0
H1005 H 0.0055 0.14092 0.37777 0.0
H1006 H 0.99629 0.10611 0.2087 0.0
H1007 H 0.99893 0.07768 0.14719 0.0
H1008 H 0.06212 0.07848 0.16398 0.0
H1009 H 0.05982 0.10662 0.22677 0.0
C1010 C 0.03902 0.21247 0.23349 0.0
C1011 C 0.05849 0.21382 0.21392 0.0
C1012 C 0.03205 0.19498 0.25632 0.0
C1013 C 0.04443 0.1785 0.26074 0.0
C1014 C 0.06405 0.17988 0.24247 0.0
C1015 C 0.07105 0.19743 0.21924 0.0
C1016 C 0.03616 0.15957 0.28096 0.0
C1017 C 0.03725 0.14275 0.24791 0.0
C1018 C 0.02513 0.1587 0.32931 0.0
C1019 C 0.02505 0.1753 0.36851 0.0
C1020 C 0.04295 0.1836 0.38674 0.0
C1021 C 0.04285 0.19924 0.4235 0.0
C1022 C 0.02492 0.20668 0.44258 0.0
C1023 C 0.00706 0.19846 0.42499 0.0
C1024 C 0.00708 0.18282 0.3882 0.0
C1025 C 0.99926 0.07646 0.36733 0.0
C1026 C 0.97856 0.07839 0.36838 0.0
C1027 C 0.01103 0.09118 0.34404 0.0
C1028 C 0.00223 0.10796 0.32171 0.0
C1029 C 0.98154 0.10936 0.32002 0.0
C1030 C 0.96975 0.09456 0.34279 0.0
C1031 C 0.01445 0.1252 0.30661 0.0
C1032 C 0.01417 0.1416 0.34104 0.0
C1033 C 0.02655 0.12547 0.26025 0.0
C1034 C 0.02785 0.1083 0.22321 0.0
C1035 C 0.01072 0.10004 0.20006 0.0
C1036 C 0.01217 0.08401 0.16474 0.0
C1037 C 0.03068 0.07625 0.15177 0.0
C1038 C 0.04779 0.08451 0.17402 0.0
C1039 C 0.04642 0.10048 0.20958 0.0
H1040 H 0.03176 0.06385 0.12441 0.0
H1041 H 0.02488 0.21879 0.47106 0.0
H1042 H 0.32198 0.10934 0.19243 0.0
H1043 H 0.35415 0.10564 0.23613 0.0
H1044 H 0.33429 0.05115 0.3087 0.0
H1045 H 0.30253 0.05421 0.26393 0.0
H1046 H 0.36131 0.07524 0.37528 0.0
H1047 H 0.35388 0.04802 0.19053 0.0
H1048 H 0.34663 0.05254 0.09409 0.0
H1049 H 0.39207 0.09705 0.08335 0.0
H1050 H 0.39935 0.09298 0.18002 0.0
H1051 H 0.43267 1.00274 0.40272 0.0
H1052 H 0.40501 0.02461 0.38606 0.0
H1053 H 0.44155 0.06015 0.28066 0.0
H1054 H 0.46905 0.0377 0.2953 0.0
H1055 H 0.40952 0.05535 0.23483 0.0
H1056 H 0.42358 0.07778 0.409 0.0
H1057 H 0.43271 0.07521 0.50472 0.0
H1058 H 0.37786 0.04528 0.53833 0.0
H1059 H 0.36864 0.0473 0.44253 0.0
C1060 C 0.32433 0.0967 0.2183 0.0
C1061 C 0.30972 0.08189 0.22375 0.0
C1062 C 0.34265 0.09476 0.24371 0.0
C1063 C 0.34658 0.07806 0.27526 0.0
C1064 C 0.33146 0.06422 0.28479 0.0
C1065 C 0.31325 0.06603 0.25906 0.0
C1066 C 0.36706 0.07297 0.29037 0.0
C1067 C 0.37197 0.07096 0.34486 0.0
C1068 C 0.38119 0.0682 0.25054 0.0
C1069 C 0.377 0.07035 0.19242 0.0
C1070 C 0.36223 0.05885 0.16761 0.0
C1071 C 0.35812 0.06132 0.11296 0.0
C1072 C 0.36885 0.07511 0.08264 0.0
C1073 C 0.38375 0.08641 0.1069 0.0
C1074 C 0.38786 0.08403 0.16159 0.0
C1075 C 0.43497 0.0154 0.37675 0.0
C1076 C 0.45321 0.01855 0.35089 0.0
C1077 C 0.41912 0.02804 0.3675 0.0
C1078 C 0.42123 0.04443 0.33316 0.0
C1079 C 0.43949 0.0477 0.30755 0.0
C1080 C 0.45525 0.03481 0.31595 0.0
C1081 C 0.40379 0.05682 0.3202 0.0
C1082 C 0.39933 0.06017 0.26587 0.0
C1083 C 0.39041 0.06338 0.36037 0.0
C1084 C 0.3955 0.06258 0.41844 0.0
C1085 C 0.41354 0.07054 0.43676 0.0
C1086 C 0.41873 0.06919 0.49103 0.0
C1087 C 0.40588 0.06006 0.52758 0.0
C1088 C 0.3878 0.05235 0.50994 0.0
C1089 C 0.38257 0.05362 0.45565 0.0
H1090 H 0.40991 0.05901 0.56958 0.0
H1091 H 0.36566 0.077 0.04033 0.0
H1092 H 0.44006 0.28845 0.2737 0.0
H1093 H 0.44917 0.31065 0.34806 0.0
H1094 H 0.50518 0.32273 0.27055 0.0
H1095 H 0.49636 0.30022 0.19767 0.0
H1096 H 0.51146 0.31521 0.36998 0.0
H1097 H 0.46603 0.3561 0.27273 0.0
H1098 H 0.43435 0.36528 0.23098 0.0
H1099 H 0.40534 0.36112 0.38437 0.0
H1100 H 0.43683 0.35161 0.42695 0.0
H1101 H 0.53688 0.4126 0.45991 0.0
H1102 H 0.51852 0.38849 0.40639 0.0
H1103 H 0.50036 0.35816 0.55088 0.0
H1104 H 0.51889 0.38223 0.60518 0.0
H1105 H 0.47193 0.37245 0.43206 0.0
H1106 H 0.52236 0.3292 0.52391 0.0
H1107 H 0.55677 0.32483 0.55494 0.0
H1108 H 0.57834 0.33891 0.39699 0.0
H1109 H 0.54411 0.34361 0.36528 0.0
C1110 C 0.45422 0.29601 0.27265 0.0
C1111 C 0.46761 0.29258 0.23048 0.0
C1112 C 0.4594 0.30868 0.31495 0.0
C1113 C 0.47788 0.31833 0.31492 0.0
C1114 C 0.49095 0.31528 0.27181 0.0
C1115 C 0.48591 0.30247 0.23017 0.0
C1116 C 0.48414 0.33118 0.36017 0.0
C1117 C 0.50264 0.32758 0.38373 0.0
C1118 C 0.4727 0.34734 0.37846 0.0
C1119 C 0.45372 0.35284 0.35287 0.0
C1120 C 0.45286 0.35692 0.29746 0.0
C1121 C 0.43494 0.36223 0.27367 0.0
C1122 C 0.41783 0.36369 0.30495 0.0
C1123 C 0.4186 0.35991 0.36016 0.0
C1124 C 0.43647 0.35455 0.38414 0.0
C1125 C 0.52869 0.40105 0.48052 0.0
C1126 C 0.52922 0.39941 0.53687 0.0
C1127 C 0.51825 0.38729 0.44985 0.0
C1128 C 0.5081 0.37172 0.47489 0.0
C1129 C 0.50811 0.3702 0.53108 0.0
C1130 C 0.51876 0.38387 0.56191 0.0
C1131 C 0.49901 0.35628 0.44117 0.0
C1132 C 0.48021 0.35956 0.41942 0.0
C1133 C 0.51028 0.34006 0.42347 0.0
C1134 C 0.53075 0.3369 0.44243 0.0
C1135 C 0.53447 0.3315 0.49598 0.0
C1136 C 0.55391 0.32894 0.51366 0.0
C1137 C 0.56971 0.33164 0.47802 0.0
C1138 C 0.5661 0.33685 0.42457 0.0
C1139 C 0.5467 0.33944 0.40673 0.0
H1140 H 0.58474 0.32966 0.4918 0.0
H1141 H 0.40398 0.3678 0.28644 0.0
H1142 H 0.18359 0.44598 0.12231 0.0
H1143 H 0.1541 0.46182 0.15728 0.0
H1144 H 0.18328 0.47147 0.30923 0.0
H1145 H 0.2124 0.45418 0.27603 0.0
H1146 H 0.14539 0.46722 0.32607 0.0
H1147 H 0.18562 0.50583 0.20511 0.0
H1148 H 0.20306 0.51324 0.12016 0.0
H1149 H 0.14804 0.51071 0.03445 0.0
H1150 H 0.1303 0.50299 0.11887 0.0
H1151 H 0.1044 0.555 0.41681 0.0
H1152 H 0.12869 0.5338 0.37275 0.0
H1153 H 0.08669 0.52037 0.24742 0.0
H1154 H 0.06219 0.54157 0.29161 0.0
H1155 H 0.12802 0.52505 0.21285 0.0
H1156 H 0.08798 0.49014 0.34332 0.0
H1157 H 0.07276 0.48722 0.43305 0.0
H1158 H 0.13025 0.48603 0.50573 0.0
H1159 H 0.14587 0.48937 0.41637 0.0
C1160 C 0.18355 0.45064 0.16396 0.0
C1161 C 0.20063 0.44913 0.19598 0.0
C1162 C 0.16669 0.45999 0.18364 0.0
C1163 C 0.16676 0.46849 0.23512 0.0
C1164 C 0.183 0.46531 0.26901 0.0
C1165 C 0.19974 0.45558 0.24975 0.0
C1166 C 0.15106 0.48248 0.25144 0.0
C1167 C 0.14162 0.47983 0.30128 0.0
C1168 C 0.14605 0.49898 0.21901 0.0
C1169 C 0.15666 0.50366 0.1682 0.0
C1170 C 0.17726 0.50673 0.16809 0.0
C1171 C 0.18719 0.511 0.12007 0.0
C1172 C 0.17666 0.51247 0.07198 0.0
C1173 C 0.15617 0.50959 0.07177 0.0
C1174 C 0.14617 0.50527 0.11968 0.0
C1175 C 0.10048 0.54781 0.37935 0.0
C1176 C 0.08137 0.54966 0.35793 0.0
C1177 C 0.11434 0.53577 0.35422 0.0
C1178 C 0.10928 0.52532 0.30748 0.0
C1179 C 0.09078 0.52833 0.2836 0.0
C1180 C 0.07685 0.54044 0.30876 0.0
C1181 C 0.12258 0.50976 0.28727 0.0
C1182 C 0.13155 0.51218 0.23693 0.0
C1183 C 0.12743 0.49329 0.31962 0.0
C1184 C 0.1181 0.49016 0.37313 0.0
C1185 C 0.09739 0.48939 0.37844 0.0
C1186 C 0.08868 0.48767 0.42926 0.0
C1187 C 0.10051 0.48653 0.47511 0.0
C1188 C 0.1211 0.48698 0.47018 0.0
C1189 C 0.1299 0.48874 0.41943 0.0
H1190 H 0.09372 0.48517 0.51441 0.0
H1191 H 0.18436 0.5159 0.03492 0.0
H1192 H 0.98191 0.81609 0.03436 0.0
H1193 H 0.97983 0.83473 0.95071 0.0
H1194 H 0.99103 0.78152 0.86004 0.0
H1195 H 0.99364 0.76285 0.94398 0.0
H1196 H 0.01711 0.80926 0.83697 0.0
H1197 H 0.94757 0.80675 0.84113 0.0
H1198 H 0.91402 0.8082 0.87983 0.0
H1199 H 0.92253 0.8696 0.91775 0.0
H1200 H 0.95624 0.86849 0.88008 0.0
H1201 H 0.03583 0.88421 0.64491 0.0
H1202 H 0.01664 0.85573 0.67721 0.0
H1203 H 0.002 0.88777 0.82175 0.0
H1204 H 0.0213 0.91582 0.79099 0.0
H1205 H 0.97132 0.86344 0.78897 0.0
H1206 H 0.04315 0.86178 0.81248 0.0
H1207 H 0.07758 0.86055 0.77989 0.0
H1208 H 0.06503 0.80627 0.69665 0.0
H1209 H 0.03035 0.80747 0.72776 0.0
C1210 C 0.98357 0.8083 0.99655 0.0
C1211 C 0.9882 0.78809 0.99568 0.0
C1212 C 0.9821 0.81891 0.94868 0.0
C1213 C 0.98512 0.80949 0.89901 0.0
C1214 C 0.98851 0.78904 0.8979 0.0
C1215 C 0.98995 0.77839 0.94587 0.0
C1216 C 0.98821 0.82166 0.85016 0.0
C1217 C 0.00678 0.82066 0.82507 0.0
C1218 C 0.97483 0.83666 0.83509 0.0
C1219 C 0.9545 0.83751 0.85774 0.0
C1220 C 0.94235 0.82055 0.85799 0.0
C1221 C 0.92328 0.82131 0.87973 0.0
C1222 C 0.91615 0.83898 0.90124 0.0
C1223 C 0.92806 0.85593 0.901 0.0
C1224 C 0.94714 0.85525 0.87933 0.0
C1225 C 0.02827 0.8853 0.68319 0.0
C1226 C 0.0303 0.90233 0.71544 0.0
C1227 C 0.01717 0.86908 0.70128 0.0
C1228 C 0.00802 0.86964 0.75198 0.0
C1229 C 0.00879 0.8871 0.78226 0.0
C1230 C 0.01989 0.9032 0.76444 0.0
C1231 C 1.00048 0.85148 0.77823 0.0
C1232 C 0.98118 0.85142 0.79912 0.0
C1233 C 0.01324 0.83556 0.79006 0.0
C1234 C 0.03405 0.83497 0.77125 0.0
C1235 C 0.04765 0.84975 0.78656 0.0
C1236 C 0.06722 0.84904 0.76846 0.0
C1237 C 0.07346 0.83342 0.73589 0.0
C1238 C 0.06015 0.81843 0.72162 0.0
C1239 C 0.04053 0.81916 0.73926 0.0
H1240 H 0.08862 0.83287 0.72198 0.0
H1241 H 0.90139 0.83953 0.91807 0.0
H1242 H 0.70073 0.99531 0.04946 0.0
H1243 H 0.67997 0.99643 0.97013 0.0
H1244 H 0.73068 0.01185 0.87263 0.0
H1245 H 0.75136 0.01224 0.95297 0.0
H1246 H 0.70387 0.03594 0.85137 0.0
H1247 H 0.70332 0.96689 0.85294 0.0
H1248 H 0.70196 0.93286 0.88821 0.0
H1249 H 0.64235 0.94197 0.9421 0.0
H1250 H 0.64341 0.97616 0.90801 0.0
H1251 H 0.61873 0.05631 0.68702 0.0
H1252 H 0.64973 0.03945 0.70995 0.0
H1253 H 0.62497 0.02298 0.86389 0.0
H1254 H 0.59418 0.03939 0.84089 0.0
H1255 H 0.64563 0.99263 0.81957 0.0
H1256 H 0.65579 0.06584 0.84587 0.0
H1257 H 0.65773 0.09943 0.80714 0.0
H1258 H 0.70062 0.07957 0.69178 0.0
H1259 H 0.69884 0.04587 0.72985 0.0
C1260 C 0.70753 0.99889 0.01119 0.0
C1261 C 0.72767 0.00401 0.00789 0.0
C1262 C 0.69569 0.99911 0.96542 0.0
C1263 C 0.70376 0.00395 0.91495 0.0
C1264 C 0.72411 0.00797 0.911 0.0
C1265 C 0.73594 0.00806 0.95703 0.0
C1266 C 0.69035 0.00762 0.86885 0.0
C1267 C 0.6915 0.02611 0.8432 0.0
C1268 C 0.6743 0.99478 0.85706 0.0
C1269 C 0.67347 0.97416 0.87778 0.0
C1270 C 0.68995 0.9617 0.87256 0.0
C1271 C 0.68923 0.94236 0.89234 0.0
C1272 C 0.67208 0.93526 0.91735 0.0
C1273 C 0.65561 0.94748 0.92261 0.0
C1274 C 0.65625 0.96684 0.90292 0.0
C1275 C 0.62004 0.0491 0.72574 0.0
C1276 C 0.60419 0.04921 0.76243 0.0
C1277 C 0.63764 0.03939 0.7386 0.0
C1278 C 0.63963 0.02995 0.78863 0.0
C1279 C 0.62368 0.02994 0.8248 0.0
C1280 C 0.60615 0.03943 0.81184 0.0
C1281 C 0.65858 0.02137 0.80652 0.0
C1282 C 0.65851 1.00194 0.82631 0.0
C1283 C 0.67578 0.03313 0.81223 0.0
C1284 C 0.6771 0.05342 0.79038 0.0
C1285 C 0.66562 0.06869 0.81225 0.0
C1286 C 0.66668 0.08772 0.79042 0.0
C1287 C 0.67927 0.09162 0.74698 0.0
C1288 C 0.69088 0.07652 0.72541 0.0
C1289 C 0.68987 0.05748 0.74712 0.0
H1290 H 0.68005 0.10635 0.73008 0.0
H1291 H 0.67155 0.92028 0.93265 0.0
H1292 H 0.56266 0.71442 0.05646 0.0
H1293 H 0.56218 0.68981 0.98554 0.0
H1294 H 0.53412 0.73145 0.87914 0.0
H1295 H 0.53288 0.7555 0.95127 0.0
H1296 H 0.50999 0.70389 0.9006 0.0
H1297 H 0.57594 0.7031 0.84 0.0
H1298 H 0.61234 0.70369 0.84442 0.0
H1299 H 0.61177 0.64876 0.93091 0.0
H1300 H 0.57536 0.64795 0.92783 0.0
H1301 H 0.47556 0.61774 0.77091 0.0
H1302 H 0.49471 0.64814 0.78284 0.0
H1303 H 0.52354 0.62277 0.92102 0.0
H1304 H 0.50492 0.59192 0.90792 0.0
H1305 H 0.54955 0.64459 0.85627 0.0
H1306 H 0.48454 0.65196 0.9386 0.0
H1307 H 0.44806 0.65165 0.93812 0.0
H1308 H 0.44797 0.69531 0.81275 0.0
H1309 H 0.48449 0.69568 0.81209 0.0
C1310 C 0.55682 0.71854 0.01754 0.0
C1311 C 0.54686 0.73655 0.01058 0.0
C1312 C 0.55694 0.70452 0.97641 0.0
C1313 C 0.54763 0.70859 0.92725 0.0
C1314 C 0.54108 0.72789 0.9171 0.0
C1315 C 0.54045 0.74172 0.95866 0.0
C1316 C 0.53952 0.69193 0.89529 0.0
C1317 C 0.51887 0.69126 0.88908 0.0
C1318 C 0.55087 0.67514 0.8816 0.0
C1319 C 0.57284 0.6755 0.88375 0.0
C1320 C 0.58354 0.6912 0.86031 0.0
C1321 C 0.6042 0.69156 0.86253 0.0
C1322 C 0.61436 0.67627 0.88794 0.0
C1323 C 0.60388 0.66058 0.91116 0.0
C1324 C 0.58322 0.66014 0.90908 0.0
C1325 C 0.48611 0.6186 0.80356 0.0
C1326 C 0.48872 0.60256 0.83872 0.0
C1327 C 0.49702 0.63593 0.81027 0.0
C1328 C 0.51051 0.63764 0.85274 0.0
C1329 C 0.51329 0.62162 0.88771 0.0
C1330 C 0.50242 0.60419 0.88084 0.0
C1331 C 0.52033 0.65673 0.86384 0.0
C1332 C 0.54105 0.65766 0.86611 0.0
C1333 C 0.50914 0.67386 0.87433 0.0
C1334 C 0.4872 0.67366 0.87481 0.0
C1335 C 0.47673 0.66137 0.91065 0.0
C1336 C 0.45605 0.66121 0.91064 0.0
C1337 C 0.4457 0.6734 0.8753 0.0
C1338 C 0.45601 0.68584 0.84001 0.0
C1339 C 0.47669 0.68603 0.83981 0.0
H1340 H 0.42969 0.67326 0.87536 0.0
H1341 H 0.63035 0.67658 0.88961 0.0
H1342 H 0.77401 0.52541 0.92358 0.0
H1343 H 0.79419 0.52668 0.84185 0.0
H1344 H 0.84501 0.50769 0.93236 0.0
H1345 H 0.82513 0.50704 0.01443 0.0
H1346 H 0.85522 0.53514 0.85683 0.0
H1347 H 0.81587 0.47449 0.86626 0.0
H1348 H 0.7845 0.45578 0.87203 0.0
H1349 H 0.76431 0.48327 0.72666 0.0
H1350 H 0.7955 0.50234 0.72046 0.0
H1351 H 0.91537 0.47306 0.70893 0.0
H1352 H 0.89107 0.48733 0.76897 0.0
H1353 H 0.85697 0.50717 0.6332 0.0
H1354 H 0.88178 0.49354 0.57191 0.0
H1355 H 0.83498 0.48703 0.71617 0.0
H1356 H 0.8797 0.53979 0.69532 0.0
H1357 H 0.91205 0.55658 0.6893 0.0
H1358 H 0.92317 0.54358 0.85542 0.0
H1359 H 0.89112 0.52618 0.86209 0.0
C1360 C 0.78958 0.52192 0.92629 0.0
C1361 C 0.79793 0.51588 0.97534 0.0
C1362 C 0.80106 0.52257 0.87951 0.0
C1363 C 0.82103 0.51705 0.88096 0.0
C1364 C 0.82962 0.51198 0.93034 0.0
C1365 C 0.81819 0.51138 0.97708 0.0
C1366 C 0.83264 0.51471 0.8308 0.0
C1367 C 0.85083 0.52467 0.82596 0.0
C1368 C 0.82653 0.50154 0.78969 0.0
C1369 C 0.80787 0.49001 0.79328 0.0
C1370 C 0.80467 0.47664 0.83576 0.0
C1371 C 0.78694 0.46596 0.83908 0.0
C1372 C 0.77239 0.46838 0.79984 0.0
C1373 C 0.77557 0.48145 0.7571 0.0
C1374 C 0.79327 0.49219 0.75366 0.0
C1375 C 0.90299 0.48078 0.69135 0.0
C1376 C 0.90091 0.48254 0.63522 0.0
C1377 C 0.88901 0.48882 0.72594 0.0
C1378 C 0.87247 0.49857 0.70543 0.0
C1379 C 0.86978 0.49978 0.64964 0.0
C1380 C 0.88393 0.49186 0.61474 0.0
C1381 C 0.85789 0.50685 0.74336 0.0
C1382 C 0.83915 0.49799 0.74604 0.0
C1383 C 0.86358 0.52097 0.7825 0.0
C1384 C 0.88291 0.53161 0.77913 0.0
C1385 C 0.88908 0.54037 0.7305 0.0
C1386 C 0.90739 0.55 0.72695 0.0
C1387 C 0.91964 0.55117 0.77198 0.0
C1388 C 0.91362 0.54271 0.82061 0.0
C1389 C 0.89537 0.53293 0.82427 0.0
H1390 H 0.93378 0.55869 0.76923 0.0
H1391 H 0.75868 0.4601 0.80247 0.0
H1392 H 0.06255 0.21279 0.893 0.0
H1393 H 0.05688 0.18141 0.84732 0.0
H1394 H 0.99454 0.18523 0.88256 0.0
H1395 H 1.00021 0.21675 0.92917 0.0
H1396 H 0.00608 0.14909 0.8999 0.0
H1397 H 0.01409 0.19342 0.75277 0.0
H1398 H 0.02991 0.21943 0.6978 0.0
H1399 H 0.08117 0.18305 0.67686 0.0
H1400 H 0.06577 0.15691 0.73234 0.0
H1401 H 0.98133 0.06822 0.72685 0.0
H1402 H 0.9841 0.10061 0.76983 0.0
H1403 H 0.04692 0.10112 0.73911 0.0
H1404 H 0.04394 0.0694 0.69276 0.0
H1405 H 0.03321 0.13569 0.71818 0.0
H1406 H 0.02371 0.09136 0.87081 0.0
H1407 H 0.00587 0.06629 0.92501 0.0
H1408 H 0.95481 0.1035 0.93126 0.0
H1409 H 0.97223 0.12881 0.87735 0.0
C1410 C 0.04755 0.2072 0.89033 0.0
C1411 C 0.03181 0.21756 0.91433 0.0
C1412 C 0.04432 0.18913 0.86412 0.0
C1413 C 0.02521 0.18093 0.86042 0.0
C1414 C 0.00944 0.19117 0.88459 0.0
C1415 C 0.01269 0.20923 0.91126 0.0
C1416 C 0.02189 0.16151 0.83254 0.0
C1417 C 0.01179 0.14628 0.85983 0.0
C1418 C 0.02949 0.15757 0.78043 0.0
C1419 C 0.03884 0.17327 0.74715 0.0
C1420 C 0.0288 0.19102 0.73681 0.0
C1421 C 0.03768 0.20578 0.70549 0.0
C1422 C 0.05655 0.20292 0.68396 0.0
C1423 C 0.06657 0.18526 0.69362 0.0
C1424 C 0.05776 0.17046 0.72496 0.0
C1425 C 0.99575 0.07524 0.72909 0.0
C1426 C 0.0125 0.06593 0.70711 0.0
C1427 C 0.99736 0.09374 0.75435 0.0
C1428 C 0.01582 0.1033 0.75917 0.0
C1429 C 0.03251 0.09411 0.73658 0.0
C1430 C 0.03084 0.07577 0.71057 0.0
C1431 C 0.01772 0.12313 0.78592 0.0
C1432 C 0.02753 0.13847 0.75829 0.0
C1433 C 0.00962 0.12723 0.83743 0.0
C1434 C 0.99922 0.11191 0.86966 0.0
C1435 C 0.00864 0.09415 0.88347 0.0
C1436 C 0.99862 0.07991 0.91415 0.0
C1437 C 0.97924 0.08325 0.93121 0.0
C1438 C 0.96982 0.10091 0.91792 0.0
C1439 C 0.97976 0.11523 0.88747 0.0
H1440 H 0.97154 0.07219 0.95489 0.0
H1441 H 0.0634 0.21436 0.6597 0.0
H1442 H 0.29901 0.05675 0.86487 0.0
H1443 H 0.32794 0.04994 0.80947 0.0
H1444 H 0.33799 0.99611 0.89771 0.0
H1445 H 0.30868 1.00256 0.95285 0.0
H1446 H 0.37188 0.01757 0.88689 0.0
H1447 H 0.32051 0.99492 0.76892 0.0
H1448 H 0.28948 0.99726 0.71745 0.0
H1449 H 0.31322 0.04625 0.62789 0.0
H1450 H 0.3443 0.04439 0.67938 0.0
H1451 H 0.45132 0.98667 0.72581 0.0
H1452 H 0.41895 0.98723 0.76999 0.0
H1453 H 0.40205 0.03683 0.67117 0.0
H1454 H 0.434 0.03509 0.62407 0.0
H1455 H 0.37103 0.01594 0.68743 0.0
H1456 H 0.4209 0.04085 0.80822 0.0
H1457 H 0.45246 0.03903 0.85751 0.0
H1458 H 0.43181 0.98733 0.94123 0.0
H1459 H 0.40022 0.98867 0.89182 0.0
C1460 C 0.30701 0.04319 0.87193 0.0
C1461 C 0.30123 0.03017 0.91349 0.0
C1462 C 0.32371 0.03936 0.84018 0.0
C1463 C 0.33516 0.02241 0.84893 0.0
C1464 C 0.32945 0.00931 0.8901 0.0
C1465 C 0.31266 0.01307 0.92178 0.0
C1466 C 0.35347 0.01882 0.81645 0.0
C1467 C 0.37162 0.0169 0.8433 0.0
C1468 C 0.35335 0.01848 0.75943 0.0
C1469 C 0.33467 0.01963 0.7284 0.0
C1470 C 0.31905 0.0063 0.73858 0.0
C1471 C 0.30147 0.00752 0.70933 0.0
C1472 C 0.29936 0.02193 0.66953 0.0
C1473 C 0.31486 0.03511 0.65879 0.0
C1474 C 0.33247 0.03397 0.68797 0.0
C1475 C 0.4405 0.99745 0.71306 0.0
C1476 C 0.44504 0.01087 0.67178 0.0
C1477 C 0.42206 0.99793 0.73867 0.0
C1478 C 0.40812 0.01254 0.72551 0.0
C1479 C 0.41247 0.02549 0.6826 0.0
C1480 C 0.43072 0.02454 0.65566 0.0
C1481 C 0.3895 0.01481 0.75781 0.0
C1482 C 0.3713 0.01654 0.73101 0.0
C1483 C 0.38957 0.01522 0.81493 0.0
C1484 C 0.40825 0.0148 0.84614 0.0
C1485 C 0.4231 0.02908 0.83713 0.0
C1486 C 0.441 0.02811 0.865 0.0
C1487 C 0.44415 0.01304 0.90239 0.0
C1488 C 0.42935 0.99897 0.91219 0.0
C1489 C 0.41143 0.99985 0.88434 0.0
H1490 H 0.45803 0.01228 0.92383 0.0
H1491 H 0.28574 0.02284 0.64691 0.0
H1492 H 0.47962 0.28719 0.80801 0.0
H1493 H 0.48391 0.31862 0.75985 0.0
H1494 H 0.49538 0.34831 0.91008 0.0
H1495 H 0.49098 0.31713 0.95834 0.0
H1496 H 0.46659 0.3667 0.84898 0.0
H1497 H 0.53268 0.34026 0.81857 0.0
H1498 H 0.55597 0.31514 0.78505 0.0
H1499 H 0.53187 0.32072 0.6262 0.0
H1500 H 0.50852 0.34591 0.65867 0.0
H1501 H 0.49675 0.46214 0.76598 0.0
H1502 H 0.4932 0.42919 0.80478 0.0
H1503 H 0.49353 0.40374 0.64578 0.0
H1504 H 0.49734 0.43676 0.60667 0.0
H1505 H 0.51546 0.38196 0.70582 0.0
H1506 H 0.45029 0.40448 0.72352 0.0
H1507 H 0.42061 0.4237 0.74654 0.0
H1508 H 0.43609 0.42153 0.91381 0.0
H1509 H 0.46591 0.40229 0.89177 0.0
C1510 C 0.48324 0.30037 0.83078 0.0
C1511 C 0.485 0.2995 0.88723 0.0
C1512 C 0.48581 0.31835 0.80308 0.0
C1513 C 0.49008 0.33593 0.83117 0.0
C1514 C 0.49218 0.335 0.88733 0.0
C1515 C 0.48981 0.31706 0.91492 0.0
C1516 C 0.49103 0.35552 0.80306 0.0
C1517 C 0.47752 0.37017 0.81834 0.0
C1518 C 0.50447 0.35973 0.76071 0.0
C1519 C 0.51874 0.34482 0.74118 0.0
C1520 C 0.53231 0.33606 0.77654 0.0
C1521 C 0.54558 0.32187 0.75766 0.0
C1522 C 0.54543 0.31635 0.70349 0.0
C1523 C 0.53207 0.32508 0.66804 0.0
C1524 C 0.51884 0.33934 0.68663 0.0
C1525 C 0.49582 0.44961 0.73909 0.0
C1526 C 0.4971 0.45228 0.68305 0.0
C1527 C 0.49378 0.43065 0.76144 0.0
C1528 C 0.49291 0.41376 0.72842 0.0
C1529 C 0.49429 0.41639 0.67238 0.0
C1530 C 0.49638 0.43537 0.64999 0.0
C1531 C 0.49123 0.39344 0.7526 0.0
C1532 C 0.50455 0.37863 0.73657 0.0
C1533 C 0.47708 0.38877 0.7929 0.0
C1534 C 0.46042 0.40209 0.80593 0.0
C1535 C 0.44755 0.40838 0.76512 0.0
C1536 C 0.4306 0.41911 0.77805 0.0
C1537 C 0.42638 0.42367 0.83165 0.0
C1538 C 0.4393 0.41785 0.87236 0.0
C1539 C 0.45623 0.40703 0.85968 0.0
H1540 H 0.41317 0.43185 0.84164 0.0
H1541 H 0.55567 0.30532 0.68897 0.0
H1542 H 0.18967 0.47862 0.99425 0.0
H1543 H 0.15808 0.48457 0.94899 0.0
H1544 H 0.1893 0.50246 0.80555 0.0
H1545 H 0.22103 0.49624 0.85056 0.0
H1546 H 0.15438 0.52751 0.84023 0.0
H1547 H 0.17347 0.45983 0.80125 0.0
H1548 H 0.18407 0.42635 0.82728 0.0
H1549 H 0.13161 0.41916 0.9231 0.0
H1550 H 0.12085 0.45274 0.89827 0.0
H1551 H 0.07685 0.52359 0.6503 0.0
H1552 H 0.10814 0.52002 0.698 0.0
H1553 H 0.07917 0.48383 0.81779 0.0
H1554 H 0.04794 0.48676 0.76908 0.0
H1555 H 0.11301 0.46864 0.79827 0.0
H1556 H 0.09233 0.53401 0.83885 0.0
H1557 H 0.0805 0.56765 0.81946 0.0
H1558 H 0.13386 0.58021 0.73161 0.0
H1559 H 0.14587 0.54649 0.74964 0.0
C1560 C 0.18981 0.48416 0.95337 0.0
C1561 C 0.20783 0.4871 0.92605 0.0
C1562 C 0.17175 0.48745 0.92749 0.0
C1563 C 0.17132 0.49394 0.87387 0.0
C1564 C 0.18929 0.49753 0.847 0.0
C1565 C 0.20739 0.49391 0.87263 0.0
C1566 C 0.15213 0.49583 0.84505 0.0
C1567 C 0.14542 0.51466 0.83037 0.0
C1568 C 0.14012 0.47912 0.83394 0.0
C1569 C 0.14646 0.45886 0.84835 0.0
C1570 C 0.16428 0.45117 0.82823 0.0
C1571 C 0.1703 0.43217 0.8427 0.0
C1572 C 0.15855 0.42066 0.87694 0.0
C1573 C 0.14071 0.42811 0.89664 0.0
C1574 C 0.13464 0.44711 0.88236 0.0
C1575 C 0.0771 0.51487 0.68683 0.0
C1576 C 0.05981 0.50553 0.70589 0.0
C1577 C 0.09504 0.51292 0.71433 0.0
C1578 C 0.09608 0.50198 0.76233 0.0
C1579 C 0.07886 0.4924 0.78101 0.0
C1580 C 0.06096 0.4941 0.75307 0.0
C1581 C 0.11512 0.50041 0.79269 0.0
C1582 C 0.12185 0.4816 0.80794 0.0
C1583 C 0.12692 0.51722 0.80534 0.0
C1584 C 0.11992 0.53764 0.79518 0.0
C1585 C 0.1015 0.5439 0.81512 0.0
C1586 C 0.09476 0.563 0.80438 0.0
C1587 C 0.10641 0.57605 0.77421 0.0
C1588 C 0.12485 0.57007 0.75491 0.0
C1589 C 0.13163 0.55096 0.76539 0.0
H1590 H 0.10117 0.59082 0.76583 0.0
H1591 H 0.16324 0.40595 0.8881 0.0
H1592 H 0.02801 0.80408 0.38614 0.0
H1593 H 0.02756 0.8347 0.43779 0.0
H1594 H 0.9644 0.83827 0.41784 0.0
H1595 H 0.96457 0.80724 0.36715 0.0
H1596 H 0.983 0.87312 0.39223 0.0
H1597 H 0.98468 0.82742 0.54143 0.0
H1598 H 0.99799 0.79939 0.59312 0.0
H1599 H 0.05395 0.82931 0.60687 0.0
H1600 H 0.04101 0.85747 0.55518 0.0
H1601 H 0.9709 0.95616 0.5668 0.0
H1602 H 0.96847 0.92352 0.52518 0.0
H1603 H 0.03104 0.91518 0.54823 0.0
H1604 H 0.0337 0.9481 0.58811 0.0
H1605 H 0.01119 0.8823 0.5744 0.0
H1606 H 0.013 0.92597 0.42531 0.0
H1607 H 0.00406 0.95299 0.36368 0.0
H1608 H 0.94638 0.92731 0.34214 0.0
H1609 H 0.95487 0.90027 0.40438 0.0
C1610 C 0.01388 0.81098 0.39377 0.0
C1611 C 0.9963 0.80291 0.37222 0.0
C1612 C 0.01369 0.82866 0.42328 0.0
C1613 C 0.99594 0.83885 0.43216 0.0
C1614 C 0.97832 0.83075 0.41154 0.0
C1615 C 0.97846 0.81298 0.38227 0.0
C1616 C 0.99597 0.85847 0.4602 0.0
C1617 C 0.98879 0.87505 0.43256 0.0
C1618 C 0.00427 0.86124 0.51199 0.0
C1619 C 0.01194 0.84445 0.5439 0.0
C1620 C 0.99985 0.82797 0.55525 0.0
C1621 C 0.00732 0.81207 0.58467 0.0
C1622 C 0.02683 0.81252 0.60306 0.0
C1623 C 0.03885 0.82895 0.59256 0.0
C1624 C 0.03145 0.8449 0.56329 0.0
C1625 C 0.98422 0.94762 0.56216 0.0
C1626 C 0.00257 0.95518 0.57958 0.0
C1627 C 0.98279 0.92881 0.53855 0.0
C1628 C 0.99962 0.9169 0.53258 0.0
C1629 C 0.01783 0.92408 0.55184 0.0
C1630 C 0.01932 0.943 0.57467 0.0
C1631 C 0.99828 0.89698 0.50643 0.0
C1632 C 0.00522 0.88036 0.53436 0.0
C1633 C 0.99017 0.89425 0.45442 0.0
C1634 C 0.98451 0.91118 0.41994 0.0
C1635 C 0.9983 0.92623 0.40812 0.0
C1636 C 0.99336 0.94149 0.37281 0.0
C1637 C 0.97473 0.94176 0.34868 0.0
C1638 C 0.96086 0.92699 0.3606 0.0
C1639 C 0.96571 0.91172 0.39596 0.0
H1640 H 0.971 0.95346 0.3209 0.0
H1641 H 0.03262 0.80013 0.62547 0.0
H1642 H 0.71092 0.03099 0.38415 0.0
H1643 H 0.67986 0.02965 0.43386 0.0
H1644 H 0.68167 0.96591 0.43186 0.0
H1645 H 0.71279 0.96718 0.38129 0.0
H1646 H 0.64681 0.9757 0.40891 0.0
H1647 H 0.68928 0.99466 0.5491 0.0
H1648 H 0.71454 0.01301 0.60049 0.0
H1649 H 0.67897 0.06532 0.5945 0.0
H1650 H 0.65366 0.04742 0.54199 0.0
H1651 H 0.57239 1.0007 0.64631 0.0
H1652 H 0.60637 0.99768 0.61296 0.0
H1653 H 0.58525 0.00324 0.44997 0.0
H1654 H 0.55133 0.00499 0.483 0.0
H1655 H 0.63118 0.01841 0.56529 0.0
H1656 H 0.61306 0.98082 0.35967 0.0
H1657 H 0.5883 0.95761 0.3226 0.0
H1658 H 0.57757 0.93411 0.48046 0.0
H1659 H 0.60247 0.95694 0.51834 0.0
C1660 C 0.70498 0.01664 0.39515 0.0
C1661 C 0.71456 0.99918 0.37879 0.0
C1662 C 0.6871 0.0159 0.42376 0.0
C1663 C 0.67832 0.99768 0.4375 0.0
C1664 C 0.68799 0.9802 0.42186 0.0
C1665 C 0.70584 0.98093 0.39284 0.0
C1666 C 0.65855 0.99697 0.46514 0.0
C1667 C 0.64349 0.98502 0.44322 0.0
C1668 C 0.65411 0.00861 0.51114 0.0
C1669 C 0.66965 0.01972 0.54091 0.0
C1670 C 0.68695 0.01015 0.55799 0.0
C1671 C 0.70127 0.02047 0.58748 0.0
C1672 C 0.6984 0.04034 0.60054 0.0
C1673 C 0.68121 0.04994 0.58416 0.0
C1674 C 0.66687 0.03972 0.55448 0.0
C1675 C 0.57502 1.0011 0.60333 0.0
C1676 C 0.5591 1.00275 0.5673 0.0
C1677 C 0.5945 0.99945 0.58421 0.0
C1678 C 0.59857 0.99974 0.52862 0.0
C1679 C 0.58266 1.0022 0.49286 0.0
C1680 C 0.56319 0.00334 0.51186 0.0
C1681 C 0.61935 0.99766 0.50788 0.0
C1682 C 0.63457 0.00906 0.53108 0.0
C1683 C 0.62417 0.98487 0.46458 0.0
C1684 C 0.60953 0.97072 0.44187 0.0
C1685 C 0.60551 0.97061 0.38641 0.0
C1686 C 0.59143 0.95754 0.36527 0.0
C1687 C 0.58133 0.94443 0.39917 0.0
C1688 C 0.58536 0.9443 0.45426 0.0
C1689 C 0.59945 0.95731 0.47558 0.0
H1690 H 0.57041 0.93436 0.38274 0.0
H1691 H 0.70948 0.04827 0.6235 0.0
H1692 H 0.53765 0.70314 0.30775 0.0
H1693 H 0.53855 0.67082 0.35164 0.0
H1694 H 0.4943 0.68992 0.46498 0.0
H1695 H 0.49368 0.72251 0.4221 0.0
H1696 H 0.52154 0.66731 0.51512 0.0
H1697 H 0.48179 0.66201 0.35562 0.0
H1698 H 0.47473 0.66506 0.25873 0.0
H1699 H 0.52225 0.62537 0.22244 0.0
H1700 H 0.52978 0.6223 0.31913 0.0
H1701 H 0.48054 0.55923 0.5147 0.0
H1702 H 0.48307 0.59236 0.47547 0.0
H1703 H 0.54209 0.59853 0.53896 0.0
H1704 H 0.53944 0.56549 0.57912 0.0
H1705 H 0.50722 0.60865 0.40144 0.0
H1706 H 0.54916 0.64832 0.57318 0.0
H1707 H 0.55388 0.64514 0.67119 0.0
H1708 H 0.49751 0.61601 0.6854 0.0
H1709 H 0.49227 0.6194 0.58783 0.0
C1710 C 0.52839 0.70069 0.34272 0.0
C1711 C 0.51554 0.7156 0.36106 0.0
C1712 C 0.52877 0.68204 0.36753 0.0
C1713 C 0.51628 0.67768 0.41133 0.0
C1714 C 0.50404 0.69277 0.4312 0.0
C1715 C 0.50361 0.71143 0.4063 0.0
C1716 C 0.5153 0.65721 0.43474 0.0
C1717 C 0.51852 0.6545 0.49013 0.0
C1718 C 0.51105 0.64036 0.40266 0.0
C1719 C 0.50648 0.64209 0.34456 0.0
C1720 C 0.49083 0.65404 0.32695 0.0
C1721 C 0.48673 0.65576 0.27207 0.0
C1722 C 0.49807 0.64545 0.23444 0.0
C1723 C 0.5135 0.63337 0.25163 0.0
C1724 C 0.51769 0.63163 0.30646 0.0
C1725 C 0.49407 0.56764 0.52037 0.0
C1726 C 0.50983 0.55963 0.54996 0.0
C1727 C 0.49555 0.58658 0.49761 0.0
C1728 C 0.51271 0.59815 0.5044 0.0
C1729 C 0.52859 0.59007 0.53343 0.0
C1730 C 0.52714 0.57106 0.55601 0.0
C1731 C 0.51377 0.61869 0.48164 0.0
C1732 C 0.51048 0.62143 0.42636 0.0
C1733 C 0.51771 0.63555 0.51399 0.0
C1734 C 0.52045 0.63391 0.57303 0.0
C1735 C 0.53773 0.64134 0.59728 0.0
C1736 C 0.54049 0.63951 0.65279 0.0
C1737 C 0.52604 0.63032 0.68451 0.0
C1738 C 0.50872 0.62308 0.66084 0.0
C1739 C 0.50585 0.62495 0.60542 0.0
H1740 H 0.52826 0.62883 0.7274 0.0
H1741 H 0.49487 0.6468 0.19197 0.0
H1742 H 0.82538 0.52839 0.27592 0.0
H1743 H 0.85495 0.52791 0.33192 0.0
H1744 H 0.81865 0.52489 0.47441 0.0
H1745 H 0.78877 0.52561 0.41834 0.0
H1746 H 0.85095 0.55062 0.48647 0.0
H1747 H 0.83953 0.48405 0.43255 0.0
H1748 H 0.83267 0.45669 0.36962 0.0
H1749 H 0.88688 0.46907 0.28555 0.0
H1750 H 0.89392 0.49673 0.34749 0.0
H1751 H 0.93741 0.52816 0.64312 0.0
H1752 H 0.90439 0.52918 0.60354 0.0
H1753 H 0.92973 0.51932 0.44629 0.0
H1754 H 0.96243 0.51713 0.48627 0.0
H1755 H 0.89995 0.49783 0.4521 0.0
H1756 H 0.90901 0.56749 0.50129 0.0
H1757 H 0.91461 0.59516 0.5643 0.0
H1758 H 0.86486 0.57638 0.65912 0.0
H1759 H 0.85885 0.54865 0.59659 0.0
C1760 C 0.82358 0.52801 0.3192 0.0
C1761 C 0.80459 0.52711 0.34248 0.0
C1762 C 0.84057 0.52752 0.35121 0.0
C1763 C 0.83909 0.52612 0.40743 0.0
C1764 C 0.82019 0.52589 0.43113 0.0
C1765 C 0.80312 0.52622 0.39899 0.0
C1766 C 0.85736 0.52441 0.44076 0.0
C1767 C 0.86159 0.53895 0.47944 0.0
C1768 C 0.8713 0.50923 0.43169 0.0
C1769 C 0.86715 0.49259 0.39439 0.0
C1770 C 0.8499 0.48105 0.40037 0.0
C1771 C 0.846 0.46547 0.36492 0.0
C1772 C 0.85931 0.46117 0.32353 0.0
C1773 C 0.87658 0.47243 0.31759 0.0
C1774 C 0.88054 0.48805 0.35289 0.0
C1775 C 0.9359 0.52621 0.60009 0.0
C1776 C 0.95263 0.5228 0.56776 0.0
C1777 C 0.91696 0.527 0.57726 0.0
C1778 C 0.91432 0.52457 0.52144 0.0
C1779 C 0.93114 0.52123 0.48936 0.0
C1780 C 0.94997 0.52023 0.51222 0.0
C1781 C 0.89422 0.52471 0.49597 0.0
C1782 C 0.88946 0.50962 0.45913 0.0
C1783 C 0.87982 0.53939 0.50686 0.0
C1784 C 0.88358 0.55594 0.54454 0.0
C1785 C 0.89933 0.56921 0.53575 0.0
C1786 C 0.90258 0.58489 0.57136 0.0
C1787 C 0.89021 0.58744 0.61586 0.0
C1788 C 0.87444 0.57439 0.62464 0.0
C1789 C 0.87107 0.55872 0.58908 0.0
H1790 H 0.8928 0.59957 0.64343 0.0
H1791 H 0.85626 0.4491 0.29614 0.0
loop_
_geom_bond_atom_site_label_1
_geom_bond_atom_site_label_2
_geom_bond_distance
_geom_bond_site_symmetry_2
_ccdc_geom_bond_type
P0 O11 1.490 . S
P0 C14 1.812 . S
P0 C20 1.803 . S
P0 C26 1.819 . S
H1 C15 0.941 . S
H2 C16 0.939 . S
H3 C18 0.940 . S
H4 C19 0.940 . S
H5 C21 0.939 . S
H6 C22 0.942 . S
H7 C24 0.940 . S
H8 C25 0.939 . S
H9 C27 0.941 . S
H10 C31 0.939 . S
O11 P0 1.490 . S
H12 C28 0.939 . S
H13 C30 0.940 . S
C14 P0 1.812 . S
C14 C15 1.389 . S
C14 C19 1.391 . S
C15 H1 0.941 . S
C15 C14 1.389 . S
C15 C16 1.397 . S
C16 H2 0.939 . S
C16 C15 1.397 . S
C16 C17 1.378 . S
C17 C16 1.378 . S
C17 C18 1.378 . S
C18 H3 0.940 . S
C18 C17 1.378 . S
C18 C19 1.396 . S
C19 H4 0.940 . S
C19 C14 1.391 . S
C19 C18 1.396 . S
C20 P0 1.803 . S
C20 C21 1.378 . S
C20 C25 1.400 . S
C21 H5 0.939 . S
C21 C20 1.378 . S
C21 C22 1.361 . S
C22 H6 0.942 . S
C22 C21 1.361 . S
C22 C23 1.369 . S
C23 C22 1.369 . S
C23 C24 1.404 . S
C24 H7 0.940 . S
C24 C23 1.404 . S
C24 C25 1.389 . S
C25 H8 0.939 . S
C25 C20 1.400 . S
C25 C24 1.389 . S
C26 P0 1.819 . S
C26 C27 1.391 . S
C26 C31 1.391 . S
C27 H9 0.941 . S
C27 C26 1.391 . S
C27 C28 1.396 . S
C28 H12 0.939 . S
C28 C27 1.396 . S
C28 C29 1.397 . S
C29 C28 1.397 . S
C29 C30 1.385 . S
C30 H13 0.940 . S
C30 C29 1.385 . S
C30 C31 1.388 . S
C31 H10 0.939 . S
C31 C26 1.391 . S
C31 C30 1.388 . S
P32 O43 1.490 1_655 S
P32 C46 1.812 . S
P32 C52 1.803 . S
P32 C58 1.819 . S
H33 C47 0.941 1_455 S
H34 C48 0.939 . S
H35 C50 0.940 . S
H36 C51 0.940 . S
H37 C53 0.939 1_455 S
H38 C54 0.942 . S
H39 C56 0.940 . S
H40 C57 0.939 . S
H41 C59 0.898 1_455 S
H42 C63 0.939 . S
O43 P32 1.490 1_455 S
H44 C60 0.939 . S
H45 C62 0.940 . S
C46 P32 1.812 . S
C46 C47 1.389 . S
C46 C51 1.391 . S
C47 H33 0.941 1_655 S
C47 C46 1.389 . S
C47 C48 1.397 . S
C48 H34 0.939 . S
C48 C47 1.397 . S
C48 C49 1.378 . S
C49 C48 1.378 . S
C49 C50 1.378 . S
C50 H35 0.940 . S
C50 C49 1.378 . S
C50 C51 1.396 . S
C51 H36 0.940 . S
C51 C46 1.391 . S
C51 C50 1.396 . S
C52 P32 1.803 . S
C52 C53 1.378 . S
C52 C57 1.400 . S
C53 H37 0.939 1_655 S
C53 C52 1.378 . S
C53 C54 1.361 . S
C54 H38 0.942 . S
C54 C53 1.361 . S
C54 C55 1.369 . S
C55 C54 1.369 . S
C55 C56 1.404 . S
C56 H39 0.940 . S
C56 C55 1.404 . S
C56 C57 1.389 . S
C57 H40 0.939 . S
C57 C52 1.400 . S
C57 C56 1.389 . S
C58 P32 1.819 . S
C58 C59 1.391 . S
C58 C63 1.391 . S
C59 H41 0.898 1_655 S
C59 C58 1.391 . S
C59 C60 1.396 . S
C60 H44 0.939 . S
C60 C59 1.396 . S
C60 C61 1.397 . S
C61 C60 1.397 . S
C61 C62 1.385 . S
C62 H45 0.940 . S
C62 C61 1.385 . S
C62 C63 1.388 . S
C63 H42 0.939 . S
C63 C58 1.391 . S
C63 C62 1.388 . S
P64 O75 1.490 1_565 S
P64 C78 1.812 . S
P64 C84 1.803 . S
P64 C90 1.819 . S
H65 C79 0.941 1_545 S
H66 C80 0.939 . S
H67 C82 0.940 . S
H68 C83 0.940 . S
H69 C85 0.939 1_545 S
H70 C86 0.942 . S
H71 C88 0.940 . S
H72 C89 0.939 . S
H73 C91 0.941 1_545 S
H74 C95 0.939 . S
O75 P64 1.490 1_545 S
H76 C92 0.939 . S
H77 C94 0.940 . S
C78 P64 1.812 . S
C78 C79 1.389 . S
C78 C83 1.391 . S
C79 H65 0.941 1_565 S
C79 C78 1.389 . S
C79 C80 1.397 . S
C80 H66 0.939 . S
C80 C79 1.397 . S
C80 C81 1.378 . S
C81 C80 1.378 . S
C81 C82 1.378 . S
C82 H67 0.940 . S
C82 C81 1.378 . S
C82 C83 1.396 . S
C83 H68 0.940 . S
C83 C78 1.391 . S
C83 C82 1.396 . S
C84 P64 1.803 . S
C84 C85 1.378 . S
C84 C89 1.400 . S
C85 H69 0.939 1_565 S
C85 C84 1.378 . S
C85 C86 1.361 . S
C86 H70 0.942 . S
C86 C85 1.361 . S
C86 C87 1.369 . S
C87 C86 1.369 . S
C87 C88 1.404 . S
C88 H71 0.940 . S
C88 C87 1.404 . S
C88 C89 1.389 . S
C89 H72 0.939 . S
C89 C84 1.400 . S
C89 C88 1.389 . S
C90 P64 1.819 . S
C90 C91 1.391 . S
C90 C95 1.391 . S
C91 H73 0.941 1_565 S
C91 C90 1.391 . S
C91 C92 1.396 . S
C92 H76 0.939 . S
C92 C91 1.396 . S
C92 C93 1.397 . S
C93 C92 1.397 . S
C93 C94 1.385 . S
C94 H77 0.940 . S
C94 C93 1.385 . S
C94 C95 1.388 . S
C95 H74 0.939 . S
C95 C90 1.391 . S
C95 C94 1.388 . S
P96 O107 1.490 . S
P96 C110 1.812 . S
P96 C116 1.803 . S
P96 C122 1.819 . S
H97 C111 0.941 . S
H98 C112 0.939 . S
H99 C114 0.940 . S
H100 C115 0.940 . S
H101 C117 0.939 . S
H102 C118 0.942 . S
H103 C120 0.940 . S
H104 C121 0.939 . S
H105 C123 0.941 . S
H106 C127 0.939 . S
O107 P96 1.490 . S
H108 C124 0.939 . S
H109 C126 0.940 . S
C110 P96 1.812 . S
C110 C111 1.389 . S
C110 C115 1.391 . S
C111 H97 0.941 . S
C111 C110 1.389 . S
C111 C112 1.397 . S
C112 H98 0.939 . S
C112 C111 1.397 . S
C112 C113 1.378 . S
C113 C112 1.378 . S
C113 C114 1.378 . S
C114 H99 0.940 . S
C114 C113 1.378 . S
C114 C115 1.396 . S
C115 H100 0.940 . S
C115 C110 1.391 . S
C115 C114 1.396 . S
C116 P96 1.803 . S
C116 C117 1.378 . S
C116 C121 1.400 . S
C117 H101 0.939 . S
C117 C116 1.378 . S
C117 C118 1.361 . S
C118 H102 0.942 . S
C118 C117 1.361 . S
C118 C119 1.369 . S
C119 C118 1.369 . S
C119 C120 1.404 . S
C120 H103 0.940 . S
C120 C119 1.404 . S
C120 C121 1.389 . S
C121 H104 0.939 . S
C121 C116 1.400 . S
C121 C120 1.389 . S
C122 P96 1.819 . S
C122 C123 1.391 . S
C122 C127 1.391 . S
C123 H105 0.941 . S
C123 C122 1.391 . S
C123 C124 1.396 . S
C124 H108 0.939 . S
C124 C123 1.396 . S
C124 C125 1.397 . S
C125 C124 1.397 . S
C125 C126 1.385 . S
C126 H109 0.940 . S
C126 C125 1.385 . S
C126 C127 1.388 . S
C127 H106 0.939 . S
C127 C122 1.391 . S
C127 C126 1.388 . S
P128 O139 1.490 . S
P128 C142 1.812 1_554 S
P128 C148 1.803 . S
P128 C154 1.819 . S
H129 C143 0.941 . S
H130 C144 0.939 . S
H131 C146 0.940 . S
H132 C147 0.957 . S
H133 C149 0.939 . S
H134 C150 0.942 . S
H135 C152 0.940 . S
H136 C153 0.939 . S
H137 C155 0.941 . S
H138 C159 0.939 . S
O139 P128 1.490 . S
H140 C156 0.939 . S
H141 C158 0.940 . S
C142 P128 1.812 1_556 S
C142 C143 1.389 . S
C142 C147 1.391 . S
C143 H129 0.941 . S
C143 C142 1.389 . S
C143 C144 1.397 . S
C144 H130 0.939 . S
C144 C143 1.397 . S
C144 C145 1.378 . S
C145 C144 1.378 . S
C145 C146 1.378 . S
C146 H131 0.940 . S
C146 C145 1.378 . S
C146 C147 1.396 . S
C147 H132 0.957 . S
C147 C142 1.391 . S
C147 C146 1.396 . S
C148 P128 1.803 . S
C148 C149 1.378 . S
C148 C153 1.400 . S
C149 H133 0.939 . S
C149 C148 1.378 . S
C149 C150 1.361 . S
C150 H134 0.942 . S
C150 C149 1.361 . S
C150 C151 1.369 . S
C151 C150 1.369 . S
C151 C152 1.404 . S
C152 H135 0.940 . S
C152 C151 1.404 . S
C152 C153 1.389 . S
C153 H136 0.939 . S
C153 C148 1.400 . S
C153 C152 1.389 . S
C154 P128 1.819 . S
C154 C155 1.391 . S
C154 C159 1.391 . S
C155 H137 0.941 . S
C155 C154 1.391 . S
C155 C156 1.396 . S
C156 H140 0.939 . S
C156 C155 1.396 . S
C156 C157 1.397 . S
C157 C156 1.397 . S
C157 C158 1.385 . S
C158 H141 0.940 . S
C158 C157 1.385 . S
C158 C159 1.388 . S
C159 H138 0.939 . S
C159 C154 1.391 . S
C159 C158 1.388 . S
P160 O171 1.490 . S
P160 C174 1.812 1_554 S
P160 C180 1.803 . S
P160 C186 1.819 . S
H161 C175 0.941 . S
H162 C176 0.939 . S
H163 C178 0.940 . S
H164 C179 0.927 1_554 S
H165 C181 0.939 . S
H166 C182 0.942 . S
H167 C184 0.940 . S
H168 C185 0.939 . S
H169 C187 0.941 . S
H170 C191 0.939 . S
O171 P160 1.490 . S
H172 C188 0.939 . S
H173 C190 0.940 . S
C174 P160 1.812 1_556 S
C174 C175 1.389 . S
C174 C179 1.391 . S
C175 H161 0.941 . S
C175 C174 1.389 . S
C175 C176 1.397 . S
C176 H162 0.939 . S
C176 C175 1.397 . S
C176 C177 1.378 . S
C177 C176 1.378 . S
C177 C178 1.378 . S
C178 H163 0.940 . S
C178 C177 1.378 . S
C178 C179 1.396 . S
C179 H164 0.927 1_556 S
C179 C174 1.391 . S
C179 C178 1.396 . S
C180 P160 1.803 . S
C180 C181 1.378 . S
C180 C185 1.400 . S
C181 H165 0.939 . S
C181 C180 1.378 . S
C181 C182 1.361 . S
C182 H166 0.942 . S
C182 C181 1.361 . S
C182 C183 1.369 . S
C183 C182 1.369 . S
C183 C184 1.404 . S
C184 H167 0.940 . S
C184 C183 1.404 . S
C184 C185 1.389 . S
C185 H168 0.939 . S
C185 C180 1.400 . S
C185 C184 1.389 . S
C186 P160 1.819 . S
C186 C187 1.391 . S
C186 C191 1.391 . S
C187 H169 0.941 . S
C187 C186 1.391 . S
C187 C188 1.396 . S
C188 H172 0.939 . S
C188 C187 1.396 . S
C188 C189 1.397 . S
C189 C188 1.397 . S
C189 C190 1.385 . S
C190 H173 0.940 . S
C190 C189 1.385 . S
C190 C191 1.388 . S
C191 H170 0.939 . S
C191 C186 1.391 . S
C191 C190 1.388 . S
P192 O203 1.490 . S
P192 C206 1.812 1_554 S
P192 C212 1.803 . S
P192 C218 1.819 . S
H193 C207 0.941 . S
H194 C208 0.939 . S
H195 C210 0.940 . S
H196 C211 0.937 1_554 S
H197 C213 0.939 . S
H198 C214 0.942 . S
H199 C216 0.940 . S
H200 C217 0.939 . S
H201 C219 0.941 . S
H202 C223 0.939 . S
O203 P192 1.490 . S
H204 C220 0.939 . S
H205 C222 0.940 . S
C206 P192 1.812 1_556 S
C206 C207 1.389 . S
C206 C211 1.391 . S
C207 H193 0.941 . S
C207 C206 1.389 . S
C207 C208 1.397 . S
C208 H194 0.939 . S
C208 C207 1.397 . S
C208 C209 1.378 . S
C209 C208 1.378 . S
C209 C210 1.378 . S
C210 H195 0.940 . S
C210 C209 1.378 . S
C210 C211 1.396 . S
C211 H196 0.937 1_556 S
C211 C206 1.391 . S
C211 C210 1.396 . S
C212 P192 1.803 . S
C212 C213 1.378 . S
C212 C217 1.400 . S
C213 H197 0.939 . S
C213 C212 1.378 . S
C213 C214 1.361 . S
C214 H198 0.942 . S
C214 C213 1.361 . S
C214 C215 1.369 . S
C215 C214 1.369 . S
C215 C216 1.404 . S
C216 H199 0.940 . S
C216 C215 1.404 . S
C216 C217 1.389 . S
C217 H200 0.939 . S
C217 C212 1.400 . S
C217 C216 1.389 . S
C218 P192 1.819 . S
C218 C219 1.391 . S
C218 C223 1.391 . S
C219 H201 0.941 . S
C219 C218 1.391 . S
C219 C220 1.396 . S
C220 H204 0.939 . S
C220 C219 1.396 . S
C220 C221 1.397 . S
C221 C220 1.397 . S
C221 C222 1.385 . S
C222 H205 0.940 . S
C222 C221 1.385 . S
C222 C223 1.388 . S
C223 H202 0.939 . S
C223 C218 1.391 . S
C223 C222 1.388 . S
P224 O235 1.490 . S
P224 C238 1.812 1_554 S
P224 C244 1.803 . S
P224 C250 1.819 . S
H225 C239 0.941 . S
H226 C240 0.939 . S
H227 C242 0.940 . S
H228 C243 0.940 . S
H229 C245 0.939 . S
H230 C246 0.942 . S
H231 C248 0.940 . S
H232 C249 0.939 . S
H233 C251 0.941 . S
H234 C255 0.939 . S
O235 P224 1.490 . S
H236 C252 0.939 . S
H237 C254 0.940 . S
C238 P224 1.812 1_556 S
C238 C239 1.389 . S
C238 C243 1.391 . S
C239 H225 0.941 . S
C239 C238 1.389 . S
C239 C240 1.397 . S
C240 H226 0.939 . S
C240 C239 1.397 . S
C240 C241 1.378 . S
C241 C240 1.378 . S
C241 C242 1.378 . S
C242 H227 0.940 . S
C242 C241 1.378 . S
C242 C243 1.396 . S
C243 H228 0.940 . S
C243 C238 1.391 . S
C243 C242 1.396 . S
C244 P224 1.803 . S
C244 C245 1.378 . S
C244 C249 1.400 . S
C245 H229 0.939 . S
C245 C244 1.378 . S
C245 C246 1.361 . S
C246 H230 0.942 . S
C246 C245 1.361 . S
C246 C247 1.369 . S
C247 C246 1.369 . S
C247 C248 1.404 . S
C248 H231 0.940 . S
C248 C247 1.404 . S
C248 C249 1.389 . S
C249 H232 0.939 . S
C249 C244 1.400 . S
C249 C248 1.389 . S
C250 P224 1.819 . S
C250 C251 1.391 . S
C250 C255 1.391 . S
C251 H233 0.941 . S
C251 C250 1.391 . S
C251 C252 1.396 . S
C252 H236 0.939 . S
C252 C251 1.396 . S
C252 C253 1.397 . S
C253 C252 1.397 . S
C253 C254 1.385 . S
C254 H237 0.940 . S
C254 C253 1.385 . S
C254 C255 1.388 . S
C255 H234 0.939 . S
C255 C250 1.391 . S
C255 C254 1.388 . S
Eu256 N285 2.600 . S
Eu256 N291 2.562 . S
Eu256 O300 2.466 . S
Eu256 O301 2.373 1_545 S
Eu256 O303 2.432 . S
Eu256 O304 2.291 1_655 S
Eu256 O308 2.335 1_655 S
Eu256 O311 2.372 . S
Eu256 C320 2.787 . S
C257 N258 1.349 1_545 S
C257 C260 1.405 . S
C257 C264 1.448 . S
N258 C257 1.349 1_565 S
N258 C261 1.324 . S
N258 Eu267 2.608 . S
C259 C261 1.397 1_545 S
C259 C262 1.367 . S
C259 H279 0.931 . S
C260 C257 1.405 . S
C260 C262 1.403 . S
C260 C266 1.439 . S
C261 N258 1.324 . S
C261 C259 1.397 1_565 S
C261 H272 0.930 . S
C262 C259 1.367 . S
C262 C260 1.403 . S
C262 H283 0.929 . S
C263 C264 1.430 . S
C263 C265 1.387 . S
C263 C269 1.404 . S
C264 C257 1.448 . S
C264 C263 1.430 . S
C264 N268 1.351 . S
C265 C263 1.387 . S
C265 C266 1.374 . S
C265 H280 0.931 . S
C266 C260 1.439 . S
C266 C265 1.374 . S
C266 H281 0.931 . S
Eu267 N258 2.608 . S
Eu267 N268 2.562 1_565 S
Eu267 O302 2.335 . S
Eu267 O305 2.372 . S
Eu267 O306 2.462 . S
Eu267 O307 2.373 1_565 S
Eu267 O309 2.432 . S
Eu267 O310 2.291 1_465 S
Eu267 C331 2.787 . S
N268 C264 1.351 . S
N268 Eu267 2.562 1_545 S
N268 C270 1.325 . S
C269 C263 1.404 . S
C269 C271 1.366 . S
C269 H277 0.930 . S
C270 N268 1.325 . S
C270 C271 1.416 . S
C270 H276 0.932 1_455 S
C271 C269 1.366 . S
C271 C270 1.416 . S
C271 H273 0.916 1_455 S
H272 C261 0.930 . S
H273 C271 0.916 1_655 S
H274 C289 0.930 . S
H275 C296 0.936 1_455 S
H276 C270 0.932 1_655 S
H277 C269 0.930 . S
H278 C292 0.891 1_455 S
H279 C259 0.931 . S
H280 C265 0.931 . S
H281 C266 0.931 . S
H282 C287 0.931 . S
H283 C262 0.929 . S
H284 C295 0.930 . S
N285 Eu256 2.600 . S
N285 C286 1.365 . S
N285 C289 1.319 . S
C286 N285 1.365 . S
C286 C288 1.405 1_545 S
C286 C294 1.448 . S
C287 H282 0.931 . S
C287 C289 1.397 . S
C287 C290 1.389 . S
C288 C286 1.405 1_565 S
C288 C290 1.398 1_565 S
C288 C321 1.439 . S
C289 H274 0.930 . S
C289 N285 1.319 . S
C289 C287 1.397 . S
C290 C287 1.389 . S
C290 C288 1.398 1_545 S
C290 H297 0.916 1_545 S
N291 Eu256 2.562 . S
N291 C292 1.360 . S
N291 C294 1.351 . S
C292 H278 0.891 1_655 S
C292 N291 1.360 . S
C292 C296 1.396 1_545 S
C293 C294 1.430 1_565 S
C293 C295 1.404 . S
C293 C322 1.387 . S
C294 C286 1.448 . S
C294 N291 1.351 . S
C294 C293 1.430 1_545 S
C295 H284 0.930 . S
C295 C293 1.404 . S
C295 C296 1.384 . S
C296 H275 0.936 1_655 S
C296 C292 1.396 1_565 S
C296 C295 1.384 . S
H297 C290 0.916 1_565 S
H298 C321 0.931 . S
H299 C322 0.931 . S
O300 Eu256 2.466 . S
O300 C320 1.263 . S
O301 Eu256 2.373 1_565 S
O301 C312 1.249 . S
O302 Eu267 2.335 . S
O302 C312 1.264 1_455 S
O303 Eu256 2.432 . S
O303 C320 1.268 . S
O304 Eu256 2.291 1_455 S
O304 C319 1.255 . S
O305 Eu267 2.372 . S
O305 C319 1.257 1_565 S
O306 Eu267 2.462 . S
O306 C331 1.252 . S
O307 Eu267 2.373 1_545 S
O307 C323 1.249 . S
O308 Eu256 2.335 1_455 S
O308 C323 1.264 . S
O309 Eu267 2.432 . S
O309 C331 1.268 . S
O310 Eu267 2.291 1_645 S
O310 C330 1.255 . S
O311 Eu256 2.372 . S
O311 C330 1.257 . S
C312 O301 1.249 . S
C312 O302 1.264 1_655 S
C313 C316 1.382 . S
C313 C318 1.390 . S
C313 C320 1.506 . S
C314 C315 1.398 . S
C314 C318 1.392 . S
C315 C314 1.398 . S
C315 C317 1.372 . S
C315 H332 0.931 . S
C316 C313 1.382 . S
C316 C317 1.390 . S
C316 H333 0.931 . S
C317 C315 1.372 . S
C317 C316 1.390 . S
C317 H334 0.929 . S
C318 C313 1.390 . S
C318 C314 1.392 . S
C318 H335 0.930 1_655 S
C319 O304 1.255 . S
C319 O305 1.257 1_545 S
C320 Eu256 2.787 . S
C320 O300 1.263 . S
C320 O303 1.268 . S
C320 C313 1.506 . S
C321 C288 1.439 . S
C321 H298 0.931 . S
C321 C322 1.374 . S
C322 C293 1.387 . S
C322 H299 0.931 . S
C322 C321 1.374 . S
C323 O307 1.249 . S
C323 O308 1.264 . S
C324 C327 1.382 . S
C324 C328 1.390 . S
C324 C331 1.506 . S
C325 C326 1.398 . S
C325 C328 1.392 . S
C326 C325 1.398 . S
C326 C329 1.372 . S
C326 H336 0.931 . S
C327 C324 1.382 . S
C327 C329 1.390 . S
C327 H337 0.931 . S
C328 C324 1.390 . S
C328 C325 1.392 . S
C328 H338 0.905 1_455 S
C329 C326 1.372 . S
C329 C327 1.390 . S
C329 H339 0.929 . S
C330 O310 1.255 . S
C330 O311 1.257 . S
C331 Eu267 2.787 . S
C331 O306 1.252 . S
C331 O309 1.268 . S
C331 C324 1.506 . S
H332 C315 0.931 . S
H333 C316 0.931 . S
H334 C317 0.929 . S
H335 C318 0.930 1_455 S
H336 C326 0.931 . S
H337 C327 0.931 . S
H338 C328 0.905 1_655 S
H339 C329 0.929 . S
Eu340 N369 2.600 . S
Eu340 N375 2.562 . S
Eu340 O384 2.462 . S
Eu340 O385 2.373 . S
Eu340 O387 2.432 . S
Eu340 O388 2.291 . S
Eu340 O392 2.335 1_545 S
Eu340 O395 2.372 . S
Eu340 C404 2.787 . S
C341 N342 1.365 . S
C341 C344 1.405 . S
C341 C348 1.448 . S
N342 C341 1.365 . S
N342 C345 1.319 . S
N342 Eu351 2.600 . S
C343 C345 1.397 . S
C343 C346 1.367 . S
C343 H363 0.931 . S
C344 C341 1.405 . S
C344 C346 1.403 . S
C344 C350 1.439 . S
C345 N342 1.319 . S
C345 C343 1.397 . S
C345 H356 0.930 . S
C346 C343 1.367 . S
C346 C344 1.403 . S
C346 H367 0.929 . S
C347 C348 1.430 . S
C347 C349 1.387 . S
C347 C353 1.404 . S
C348 C341 1.448 . S
C348 C347 1.430 . S
C348 N352 1.351 . S
C349 C347 1.387 . S
C349 C350 1.374 . S
C349 H364 0.931 . S
C350 C344 1.439 . S
C350 C349 1.374 . S
C350 H365 0.931 . S
Eu351 N342 2.600 . S
Eu351 N352 2.562 . S
Eu351 O386 2.335 1_565 S
Eu351 O389 2.372 . S
Eu351 O390 2.462 . S
Eu351 O391 2.373 . S
Eu351 O393 2.432 . S
Eu351 O394 2.291 1_565 S
Eu351 C415 2.787 . S
N352 C348 1.351 . S
N352 Eu351 2.562 . S
N352 C354 1.325 . S
C353 C347 1.404 . S
C353 C355 1.366 . S
C353 H361 0.930 . S
C354 N352 1.325 . S
C354 C355 1.416 . S
C354 H360 0.929 . S
C355 C353 1.366 . S
C355 C354 1.416 . S
C355 H357 0.930 . S
H356 C345 0.930 . S
H357 C355 0.930 . S
H358 C373 0.930 . S
H359 C380 0.930 . S
H360 C354 0.929 . S
H361 C353 0.930 . S
H362 C376 0.929 . S
H363 C343 0.931 . S
H364 C349 0.931 . S
H365 C350 0.931 . S
H366 C371 0.931 . S
H367 C346 0.929 . S
H368 C379 0.930 . S
N369 Eu340 2.600 . S
N369 C370 1.365 . S
N369 C373 1.319 . S
C370 N369 1.365 . S
C370 C372 1.405 . S
C370 C378 1.448 . S
C371 H366 0.931 . S
C371 C373 1.397 . S
C371 C374 1.367 . S
C372 C370 1.405 . S
C372 C374 1.403 . S
C372 C405 1.439 . S
C373 H358 0.930 . S
C373 N369 1.319 . S
C373 C371 1.397 . S
C374 C371 1.367 . S
C374 C372 1.403 . S
C374 H381 0.929 . S
N375 Eu340 2.562 . S
N375 C376 1.325 . S
N375 C378 1.351 . S
C376 H362 0.929 . S
C376 N375 1.325 . S
C376 C380 1.416 . S
C377 C378 1.430 . S
C377 C379 1.404 . S
C377 C406 1.387 . S
C378 C370 1.448 . S
C378 N375 1.351 . S
C378 C377 1.430 . S
C379 H368 0.930 . S
C379 C377 1.404 . S
C379 C380 1.366 . S
C380 H359 0.930 . S
C380 C376 1.416 . S
C380 C379 1.366 . S
H381 C374 0.929 . S
H382 C405 0.931 . S
H383 C406 0.931 . S
O384 Eu340 2.462 . S
O384 C404 1.252 . S
O385 Eu340 2.373 . S
O385 C396 1.249 . S
O386 Eu351 2.335 1_545 S
O386 C396 1.264 . S
O387 Eu340 2.432 . S
O387 C404 1.268 . S
O388 Eu340 2.291 . S
O388 C403 1.255 1_545 S
O389 Eu351 2.372 . S
O389 C403 1.257 . S
O390 Eu351 2.462 . S
O390 C415 1.252 . S
O391 Eu351 2.373 . S
O391 C407 1.249 . S
O392 Eu340 2.335 1_565 S
O392 C407 1.264 . S
O393 Eu351 2.432 . S
O393 C415 1.268 . S
O394 Eu351 2.291 1_545 S
O394 C414 1.255 . S
O395 Eu340 2.372 . S
O395 C414 1.257 . S
C396 O385 1.249 . S
C396 O386 1.264 . S
C397 C400 1.382 . S
C397 C402 1.390 . S
C397 C404 1.506 . S
C398 C399 1.398 . S
C398 C402 1.392 . S
C399 C398 1.398 . S
C399 C401 1.372 . S
C399 H416 0.931 . S
C400 C397 1.382 . S
C400 C401 1.390 . S
C400 H417 0.931 . S
C401 C399 1.372 . S
C401 C400 1.390 . S
C401 H418 0.929 . S
C402 C397 1.390 . S
C402 C398 1.392 . S
C402 H419 0.930 . S
C403 O388 1.255 1_565 S
C403 O389 1.257 . S
C404 Eu340 2.787 . S
C404 O384 1.252 . S
C404 O387 1.268 . S
C404 C397 1.506 . S
C405 C372 1.439 . S
C405 H382 0.931 . S
C405 C406 1.374 . S
C406 C377 1.387 . S
C406 H383 0.931 . S
C406 C405 1.374 . S
C407 O391 1.249 . S
C407 O392 1.264 . S
C408 C411 1.382 . S
C408 C412 1.390 1_565 S
C408 C415 1.506 . S
C409 C410 1.398 1_545 S
C409 C412 1.392 . S
C410 C409 1.398 1_565 S
C410 C413 1.372 . S
C410 H420 0.931 . S
C411 C408 1.382 . S
C411 C413 1.390 . S
C411 H421 0.931 . S
C412 C408 1.390 1_545 S
C412 C409 1.392 . S
C412 H422 0.930 . S
C413 C410 1.372 . S
C413 C411 1.390 . S
C413 H423 0.929 . S
C414 O394 1.255 . S
C414 O395 1.257 . S
C415 Eu351 2.787 . S
C415 O390 1.252 . S
C415 O393 1.268 . S
C415 C408 1.506 . S
H416 C399 0.931 . S
H417 C400 0.931 . S
H418 C401 0.929 . S
H419 C402 0.930 . S
H420 C410 0.931 . S
H421 C411 0.931 . S
H422 C412 0.930 . S
H423 C413 0.929 . S
Eu424 N453 2.600 . S
Eu424 N459 2.562 . S
Eu424 O468 2.462 . S
Eu424 O469 2.373 . S
Eu424 O471 2.432 . S
Eu424 O472 2.291 . S
Eu424 O476 2.335 . S
Eu424 O479 2.372 . S
Eu424 C488 2.787 . S
C425 N426 1.365 . S
C425 C428 1.405 . S
C425 C432 1.448 . S
N426 C425 1.365 . S
N426 C429 1.319 . S
N426 Eu435 2.600 . S
C427 C429 1.397 . S
C427 C430 1.367 . S
C427 H447 0.931 . S
C428 C425 1.405 . S
C428 C430 1.403 . S
C428 C434 1.439 . S
C429 N426 1.319 . S
C429 C427 1.397 . S
C429 H440 0.930 . S
C430 C427 1.367 . S
C430 C428 1.403 . S
C430 H451 0.929 . S
C431 C432 1.430 . S
C431 C433 1.387 . S
C431 C437 1.404 . S
C432 C425 1.448 . S
C432 C431 1.430 . S
C432 N436 1.351 . S
C433 C431 1.387 . S
C433 C434 1.374 . S
C433 H448 0.931 . S
C434 C428 1.439 . S
C434 C433 1.374 . S
C434 H449 0.931 . S
Eu435 N426 2.600 . S
Eu435 N436 2.562 . S
Eu435 O470 2.335 . S
Eu435 O473 2.372 . S
Eu435 O474 2.462 . S
Eu435 O475 2.373 . S
Eu435 O477 2.432 . S
Eu435 O478 2.291 . S
Eu435 C499 2.787 . S
N436 C432 1.351 . S
N436 Eu435 2.562 . S
N436 C438 1.325 . S
C437 C431 1.404 . S
C437 C439 1.366 . S
C437 H445 0.930 . S
C438 N436 1.325 . S
C438 C439 1.416 . S
C438 H444 0.929 . S
C439 C437 1.366 . S
C439 C438 1.416 . S
C439 H441 0.930 . S
H440 C429 0.930 . S
H441 C439 0.930 . S
H442 C457 0.930 . S
H443 C464 0.930 . S
H444 C438 0.929 . S
H445 C437 0.930 . S
H446 C460 0.929 . S
H447 C427 0.931 . S
H448 C433 0.931 . S
H449 C434 0.931 . S
H450 C455 0.931 . S
H451 C430 0.929 . S
H452 C463 0.930 . S
N453 Eu424 2.600 . S
N453 C454 1.365 . S
N453 C457 1.319 . S
C454 N453 1.365 . S
C454 C456 1.405 . S
C454 C462 1.448 . S
C455 H450 0.931 . S
C455 C457 1.397 . S
C455 C458 1.367 . S
C456 C454 1.405 . S
C456 C458 1.403 . S
C456 C489 1.439 . S
C457 H442 0.930 . S
C457 N453 1.319 . S
C457 C455 1.397 . S
C458 C455 1.367 . S
C458 C456 1.403 . S
C458 H465 0.929 . S
N459 Eu424 2.562 . S
N459 C460 1.325 . S
N459 C462 1.351 . S
C460 H446 0.929 . S
C460 N459 1.325 . S
C460 C464 1.416 . S
C461 C462 1.430 . S
C461 C463 1.404 . S
C461 C490 1.387 . S
C462 C454 1.448 . S
C462 N459 1.351 . S
C462 C461 1.430 . S
C463 H452 0.930 . S
C463 C461 1.404 . S
C463 C464 1.366 . S
C464 H443 0.930 . S
C464 C460 1.416 . S
C464 C463 1.366 . S
H465 C458 0.929 . S
H466 C489 0.931 . S
H467 C490 0.931 . S
O468 Eu424 2.462 . S
O468 C488 1.252 . S
O469 Eu424 2.373 . S
O469 C480 1.249 . S
O470 Eu435 2.335 . S
O470 C480 1.264 . S
O471 Eu424 2.432 . S
O471 C488 1.268 . S
O472 Eu424 2.291 . S
O472 C487 1.255 . S
O473 Eu435 2.372 . S
O473 C487 1.257 . S
O474 Eu435 2.462 . S
O474 C499 1.252 . S
O475 Eu435 2.373 . S
O475 C491 1.249 . S
O476 Eu424 2.335 . S
O476 C491 1.264 . S
O477 Eu435 2.432 . S
O477 C499 1.268 . S
O478 Eu435 2.291 . S
O478 C498 1.255 . S
O479 Eu424 2.372 . S
O479 C498 1.257 . S
C480 O469 1.249 . S
C480 O470 1.264 . S
C481 C484 1.382 . S
C481 C486 1.390 . S
C481 C488 1.506 . S
C482 C483 1.398 . S
C482 C486 1.392 . S
C483 C482 1.398 . S
C483 C485 1.372 . S
C483 H500 0.931 . S
C484 C481 1.382 . S
C484 C485 1.390 . S
C484 H501 0.931 . S
C485 C483 1.372 . S
C485 C484 1.390 . S
C485 H502 0.929 . S
C486 C481 1.390 . S
C486 C482 1.392 . S
C486 H503 0.930 . S
C487 O472 1.255 . S
C487 O473 1.257 . S
C488 Eu424 2.787 . S
C488 O468 1.252 . S
C488 O471 1.268 . S
C488 C481 1.506 . S
C489 C456 1.439 . S
C489 H466 0.931 . S
C489 C490 1.374 . S
C490 C461 1.387 . S
C490 H467 0.931 . S
C490 C489 1.374 . S
C491 O475 1.249 . S
C491 O476 1.264 . S
C492 C495 1.382 . S
C492 C496 1.390 . S
C492 C499 1.506 . S
C493 C494 1.398 . S
C493 C496 1.392 . S
C494 C493 1.398 . S
C494 C497 1.372 . S
C494 H504 0.931 . S
C495 C492 1.382 . S
C495 C497 1.390 . S
C495 H505 0.931 . S
C496 C492 1.390 . S
C496 C493 1.392 . S
C496 H506 0.930 . S
C497 C494 1.372 . S
C497 C495 1.390 . S
C497 H507 0.929 . S
C498 O478 1.255 . S
C498 O479 1.257 . S
C499 Eu435 2.787 . S
C499 O474 1.252 . S
C499 O477 1.268 . S
C499 C492 1.506 . S
H500 C483 0.931 . S
H501 C484 0.931 . S
H502 C485 0.929 . S
H503 C486 0.930 . S
H504 C494 0.931 . S
H505 C495 0.931 . S
H506 C496 0.930 . S
H507 C497 0.929 . S
Eu508 N537 2.600 . S
Eu508 N543 2.562 . S
Eu508 O552 2.462 . S
Eu508 O553 2.373 1_455 S
Eu508 O555 2.432 . S
Eu508 O556 2.291 . S
Eu508 O560 2.335 . S
Eu508 O563 2.372 . S
Eu508 C572 2.787 . S
C509 N510 1.365 1_455 S
C509 C512 1.405 . S
C509 C516 1.448 . S
N510 C509 1.365 1_655 S
N510 C513 1.319 . S
N510 Eu519 2.600 . S
C511 C513 1.397 1_455 S
C511 C514 1.367 . S
C511 H531 0.930 1_455 S
C512 C509 1.405 . S
C512 C514 1.403 . S
C512 C518 1.439 . S
C513 N510 1.319 . S
C513 C511 1.397 1_655 S
C513 H524 0.930 . S
C514 C511 1.367 . S
C514 C512 1.403 . S
C514 H535 0.929 . S
C515 C516 1.430 . S
C515 C517 1.387 . S
C515 C521 1.404 . S
C516 C509 1.448 . S
C516 C515 1.430 . S
C516 N520 1.368 . S
C517 C515 1.387 . S
C517 C518 1.374 . S
C517 H532 0.931 . S
C518 C512 1.439 . S
C518 C517 1.374 . S
C518 H533 0.931 . S
Eu519 N510 2.600 . S
Eu519 N520 2.548 1_655 S
Eu519 O554 2.335 . S
Eu519 O557 2.372 . S
Eu519 O558 2.462 . S
Eu519 O559 2.373 1_655 S
Eu519 O561 2.432 . S
Eu519 O562 2.297 . S
Eu519 C583 2.787 . S
N520 C516 1.368 . S
N520 Eu519 2.548 1_455 S
N520 C522 1.331 . S
C521 C515 1.404 . S
C521 C523 1.366 . S
C521 H529 0.930 . S
C522 N520 1.331 . S
C522 C523 1.416 . S
C522 H528 0.929 1_455 S
C523 C521 1.366 . S
C523 C522 1.416 . S
C523 H525 0.930 . S
H524 C513 0.930 . S
H525 C523 0.930 . S
H526 C541 0.930 . S
H527 C548 0.930 . S
H528 C522 0.929 1_655 S
H529 C521 0.930 . S
H530 C544 0.929 . S
H531 C511 0.930 1_655 S
H532 C517 0.931 . S
H533 C518 0.931 . S
H534 C539 0.931 . S
H535 C514 0.929 . S
H536 C547 0.930 . S
N537 Eu508 2.600 . S
N537 C538 1.365 . S
N537 C541 1.319 . S
C538 N537 1.365 . S
C538 C540 1.405 1_455 S
C538 C546 1.448 . S
C539 H534 0.931 . S
C539 C541 1.397 . S
C539 C542 1.372 . S
C540 C538 1.405 1_655 S
C540 C542 1.402 1_655 S
C540 C573 1.439 . S
C541 H526 0.930 . S
C541 N537 1.319 . S
C541 C539 1.397 . S
C542 C539 1.372 . S
C542 C540 1.402 1_455 S
C542 H549 0.926 1_455 S
N543 Eu508 2.562 . S
N543 C544 1.325 . S
N543 C546 1.351 . S
C544 H530 0.929 . S
C544 N543 1.325 . S
C544 C548 1.416 1_455 S
C545 C546 1.430 1_655 S
C545 C547 1.404 . S
C545 C574 1.387 . S
C546 C538 1.448 . S
C546 N543 1.351 . S
C546 C545 1.430 1_455 S
C547 H536 0.930 . S
C547 C545 1.404 . S
C547 C548 1.366 . S
C548 H527 0.930 . S
C548 C544 1.416 1_655 S
C548 C547 1.366 . S
H549 C542 0.926 1_655 S
H550 C573 0.931 . S
H551 C574 0.931 . S
O552 Eu508 2.462 . S
O552 C572 1.252 . S
O553 Eu508 2.373 1_655 S
O553 C564 1.249 . S
O554 Eu519 2.335 . S
O554 C564 1.264 . S
O555 Eu508 2.432 . S
O555 C572 1.268 . S
O556 Eu508 2.291 . S
O556 C571 1.255 . S
O557 Eu519 2.372 . S
O557 C571 1.257 1_655 S
O558 Eu519 2.462 . S
O558 C583 1.252 . S
O559 Eu519 2.373 1_455 S
O559 C575 1.249 . S
O560 Eu508 2.335 . S
O560 C575 1.264 . S
O561 Eu519 2.432 . S
O561 C583 1.268 . S
O562 Eu519 2.297 . S
O562 C582 1.251 1_655 S
O563 Eu508 2.372 . S
O563 C582 1.257 . S
C564 O553 1.249 . S
C564 O554 1.264 . S
C565 C568 1.382 . S
C565 C570 1.390 . S
C565 C572 1.506 . S
C566 C567 1.398 . S
C566 C570 1.392 . S
C567 C566 1.398 . S
C567 C569 1.372 . S
C567 H584 0.931 . S
C568 C565 1.382 . S
C568 C569 1.390 . S
C568 H585 0.931 . S
C569 C567 1.372 . S
C569 C568 1.390 . S
C569 H586 0.929 . S
C570 C565 1.390 . S
C570 C566 1.392 . S
C570 H587 0.930 . S
C571 O556 1.255 . S
C571 O557 1.257 1_455 S
C572 Eu508 2.787 . S
C572 O552 1.252 . S
C572 O555 1.268 . S
C572 C565 1.506 . S
C573 C540 1.439 . S
C573 H550 0.931 . S
C573 C574 1.374 . S
C574 C545 1.387 . S
C574 H551 0.931 . S
C574 C573 1.374 . S
C575 O559 1.249 . S
C575 O560 1.264 . S
C576 C579 1.382 . S
C576 C580 1.390 . S
C576 C583 1.506 . S
C577 C578 1.398 . S
C577 C580 1.392 . S
C578 C577 1.398 . S
C578 C581 1.372 . S
C578 H588 0.931 . S
C579 C576 1.382 . S
C579 C581 1.390 . S
C579 H589 0.931 . S
C580 C576 1.390 . S
C580 C577 1.392 . S
C580 H590 0.930 . S
C581 C578 1.372 . S
C581 C579 1.390 . S
C581 H591 0.929 . S
C582 O562 1.251 1_455 S
C582 O563 1.257 . S
C583 Eu519 2.787 . S
C583 O558 1.252 . S
C583 O561 1.268 . S
C583 C576 1.506 . S
H584 C567 0.931 . S
H585 C568 0.931 . S
H586 C569 0.929 . S
H587 C570 0.930 . S
H588 C578 0.931 . S
H589 C579 0.931 . S
H590 C580 0.930 . S
H591 C581 0.929 . S
H592 C610 0.951 . S
H593 C612 0.951 . S
H594 C614 0.950 . S
H595 C615 0.950 . S
H596 C617 0.950 . S
H597 C620 0.950 . S
H598 C621 0.950 . S
H599 C623 0.952 . S
H600 C624 0.950 . S
H601 C625 0.951 . S
H602 C627 0.951 . S
H603 C629 0.950 . S
H604 C630 0.950 . S
H605 C632 0.950 . S
H606 C635 0.950 . S
H607 C636 0.950 . S
H608 C638 0.950 . S
H609 C639 0.950 . S
C610 H592 0.951 . S
C610 C611 1.366 . S
C610 C612 1.388 . S
C611 C610 1.366 . S
C611 C615 1.385 . S
C612 H593 0.951 . S
C612 C610 1.388 . S
C612 C613 1.366 . S
C613 C612 1.366 . S
C613 C614 1.414 . S
C613 C616 1.499 . S
C614 H594 0.950 . S
C614 C613 1.414 . S
C614 C615 1.374 . S
C615 H595 0.950 . S
C615 C611 1.385 . S
C615 C614 1.374 . S
C616 C613 1.499 . S
C616 C617 1.373 . S
C616 C618 1.389 . S
C617 H596 0.950 . S
C617 C616 1.373 . S
C617 C633 1.377 . S
C618 C616 1.389 . S
C618 C619 1.524 . S
C618 C632 1.377 . S
C619 C618 1.524 . S
C619 C620 1.397 1_545 S
C619 C624 1.363 . S
C620 H597 0.950 . S
C620 C619 1.397 1_565 S
C620 C621 1.334 . S
C621 H598 0.950 . S
C621 C620 1.334 . S
C621 C622 1.287 . S
C622 C621 1.287 . S
C622 C623 1.502 1_565 S
C622 H641 0.913 . S
C623 H599 0.952 . S
C623 C622 1.502 1_545 S
C623 C624 1.435 . S
C624 H600 0.950 . S
C624 C619 1.363 . S
C624 C623 1.435 . S
C625 H601 0.951 . S
C625 C626 1.366 . S
C625 C627 1.388 . S
C626 C625 1.366 . S
C626 C630 1.385 . S
C627 H602 0.951 . S
C627 C625 1.388 . S
C627 C628 1.366 . S
C628 C627 1.366 . S
C628 C629 1.414 . S
C628 C631 1.499 . S
C629 H603 0.950 . S
C629 C628 1.414 . S
C629 C630 1.374 . S
C630 H604 0.950 . S
C630 C626 1.385 . S
C630 C629 1.374 . S
C631 C628 1.499 . S
C631 C632 1.373 . S
C631 C633 1.389 . S
C632 H605 0.950 . S
C632 C618 1.377 . S
C632 C631 1.373 . S
C633 C617 1.377 . S
C633 C631 1.389 . S
C633 C634 1.524 . S
C634 C633 1.524 . S
C634 C635 1.397 . S
C634 C639 1.363 . S
C635 H606 0.950 . S
C635 C634 1.397 . S
C635 C636 1.334 . S
C636 H607 0.950 . S
C636 C635 1.334 . S
C636 C637 1.287 . S
C637 C636 1.287 . S
C637 C638 1.524 . S
C637 H640 0.999 . S
C638 H608 0.950 . S
C638 C637 1.524 . S
C638 C639 1.415 . S
C639 H609 0.950 . S
C639 C634 1.363 . S
C639 C638 1.415 . S
H640 C637 0.999 . S
H641 C622 0.913 . S
H642 C660 0.951 . S
H643 C662 0.951 . S
H644 C664 0.950 . S
H645 C665 0.950 . S
H646 C667 0.950 . S
H647 C670 0.950 . S
H648 C671 0.950 . S
H649 C673 0.950 . S
H650 C674 0.950 . S
H651 C675 0.951 . S
H652 C677 0.951 . S
H653 C679 0.950 . S
H654 C680 0.950 . S
H655 C682 0.950 . S
H656 C685 0.950 . S
H657 C686 0.950 . S
H658 C688 0.950 . S
H659 C689 0.950 . S
C660 H642 0.951 . S
C660 C661 1.366 . S
C660 C662 1.388 . S
C661 C660 1.366 . S
C661 C665 1.385 . S
C662 H643 0.951 . S
C662 C660 1.388 . S
C662 C663 1.366 . S
C663 C662 1.366 . S
C663 C664 1.414 . S
C663 C666 1.499 . S
C664 H644 0.950 . S
C664 C663 1.414 . S
C664 C665 1.374 . S
C665 H645 0.950 . S
C665 C661 1.385 . S
C665 C664 1.374 . S
C666 C663 1.499 . S
C666 C667 1.373 . S
C666 C668 1.389 . S
C667 H646 0.950 . S
C667 C666 1.373 . S
C667 C683 1.377 . S
C668 C666 1.389 . S
C668 C669 1.524 . S
C668 C682 1.377 . S
C669 C668 1.524 . S
C669 C670 1.397 . S
C669 C674 1.363 . S
C670 H647 0.950 . S
C670 C669 1.397 . S
C670 C671 1.334 . S
C671 H648 0.950 . S
C671 C670 1.334 . S
C671 C672 1.287 . S
C672 C671 1.287 . S
C672 C673 1.524 . S
C672 H691 0.913 . S
C673 H649 0.950 . S
C673 C672 1.524 . S
C673 C674 1.415 . S
C674 H650 0.950 . S
C674 C669 1.363 . S
C674 C673 1.415 . S
C675 H651 0.951 . S
C675 C676 1.366 . S
C675 C677 1.388 . S
C676 C675 1.366 . S
C676 C680 1.385 . S
C677 H652 0.951 . S
C677 C675 1.388 . S
C677 C678 1.366 . S
C678 C677 1.366 . S
C678 C679 1.414 . S
C678 C681 1.499 . S
C679 H653 0.950 . S
C679 C678 1.414 . S
C679 C680 1.374 . S
C680 H654 0.950 . S
C680 C676 1.385 . S
C680 C679 1.374 . S
C681 C678 1.499 . S
C681 C682 1.373 . S
C681 C683 1.389 . S
C682 H655 0.950 . S
C682 C668 1.377 . S
C682 C681 1.373 . S
C683 C667 1.377 . S
C683 C681 1.389 . S
C683 C684 1.524 . S
C684 C683 1.524 . S
C684 C685 1.397 . S
C684 C689 1.363 . S
C685 H656 0.950 . S
C685 C684 1.397 . S
C685 C686 1.334 . S
C686 H657 0.950 . S
C686 C685 1.334 . S
C686 C687 1.287 . S
C687 C686 1.287 . S
C687 C688 1.524 . S
C687 H690 0.999 . S
C688 H658 0.950 . S
C688 C687 1.524 . S
C688 C689 1.415 . S
C689 H659 0.950 . S
C689 C684 1.363 . S
C689 C688 1.415 . S
H690 C687 0.999 . S
H691 C672 0.913 . S
H692 C710 0.951 . S
H693 C712 0.951 . S
H694 C714 0.950 . S
H695 C715 0.950 . S
H696 C717 0.950 . S
H697 C720 0.950 . S
H698 C721 0.950 . S
H699 C723 0.950 . S
H700 C724 0.950 . S
H701 C725 0.951 . S
H702 C727 0.951 . S
H703 C729 0.950 . S
H704 C730 0.950 . S
H705 C732 0.950 . S
H706 C735 0.950 . S
H707 C736 0.950 . S
H708 C738 0.950 . S
H709 C739 0.950 . S
C710 H692 0.951 . S
C710 C711 1.366 . S
C710 C712 1.388 . S
C711 C710 1.366 . S
C711 C715 1.385 . S
C712 H693 0.951 . S
C712 C710 1.388 . S
C712 C713 1.366 . S
C713 C712 1.366 . S
C713 C714 1.414 . S
C713 C716 1.499 . S
C714 H694 0.950 . S
C714 C713 1.414 . S
C714 C715 1.374 . S
C715 H695 0.950 . S
C715 C711 1.385 . S
C715 C714 1.374 . S
C716 C713 1.499 . S
C716 C717 1.373 . S
C716 C718 1.389 . S
C717 H696 0.950 . S
C717 C716 1.373 . S
C717 C733 1.377 . S
C718 C716 1.389 . S
C718 C719 1.524 . S
C718 C732 1.377 . S
C719 C718 1.524 . S
C719 C720 1.397 . S
C719 C724 1.363 . S
C720 H697 0.950 . S
C720 C719 1.397 . S
C720 C721 1.334 . S
C721 H698 0.950 . S
C721 C720 1.334 . S
C721 C722 1.287 . S
C722 C721 1.287 . S
C722 C723 1.524 . S
C722 H741 0.913 . S
C723 H699 0.950 . S
C723 C722 1.524 . S
C723 C724 1.415 . S
C724 H700 0.950 . S
C724 C719 1.363 . S
C724 C723 1.415 . S
C725 H701 0.951 . S
C725 C726 1.366 . S
C725 C727 1.388 . S
C726 C725 1.366 . S
C726 C730 1.385 . S
C727 H702 0.951 . S
C727 C725 1.388 . S
C727 C728 1.366 . S
C728 C727 1.366 . S
C728 C729 1.414 . S
C728 C731 1.499 . S
C729 H703 0.950 . S
C729 C728 1.414 . S
C729 C730 1.374 . S
C730 H704 0.950 . S
C730 C726 1.385 . S
C730 C729 1.374 . S
C731 C728 1.499 . S
C731 C732 1.373 . S
C731 C733 1.389 . S
C732 H705 0.950 . S
C732 C718 1.377 . S
C732 C731 1.373 . S
C733 C717 1.377 . S
C733 C731 1.389 . S
C733 C734 1.524 . S
C734 C733 1.524 . S
C734 C735 1.397 . S
C734 C739 1.363 . S
C735 H706 0.950 . S
C735 C734 1.397 . S
C735 C736 1.334 . S
C736 H707 0.950 . S
C736 C735 1.334 . S
C736 C737 1.287 . S
C737 C736 1.287 . S
C737 C738 1.524 . S
C737 H740 0.999 . S
C738 H708 0.950 . S
C738 C737 1.524 . S
C738 C739 1.415 . S
C739 H709 0.950 . S
C739 C734 1.363 . S
C739 C738 1.415 . S
H740 C737 0.999 . S
H741 C722 0.913 . S
H742 C760 0.951 . S
H743 C762 0.951 . S
H744 C764 0.950 . S
H745 C765 0.950 . S
H746 C767 0.950 . S
H747 C770 0.975 . S
H748 C771 0.950 . S
H749 C773 0.950 . S
H750 C774 0.950 . S
H751 C775 0.951 . S
H752 C777 0.951 . S
H753 C779 0.950 . S
H754 C780 0.923 1_655 S
H755 C782 0.950 1_655 S
H756 C785 0.950 . S
H757 C786 0.950 . S
H758 C788 0.950 . S
H759 C789 0.950 . S
C760 H742 0.951 . S
C760 C761 1.366 . S
C760 C762 1.388 . S
C761 C760 1.366 . S
C761 C765 1.385 . S
C762 H743 0.951 . S
C762 C760 1.388 . S
C762 C763 1.366 . S
C763 C762 1.366 . S
C763 C764 1.414 . S
C763 C766 1.499 . S
C764 H744 0.950 . S
C764 C763 1.414 . S
C764 C765 1.374 . S
C765 H745 0.950 . S
C765 C761 1.385 . S
C765 C764 1.374 . S
C766 C763 1.499 . S
C766 C767 1.373 . S
C766 C768 1.389 . S
C767 H746 0.950 . S
C767 C766 1.373 . S
C767 C783 1.377 . S
C768 C766 1.389 . S
C768 C769 1.524 1_455 S
C768 C782 1.377 . S
C769 C768 1.524 1_655 S
C769 C770 1.397 . S
C769 C774 1.363 . S
C770 H747 0.975 . S
C770 C769 1.397 . S
C770 C771 1.334 . S
C771 H748 0.950 . S
C771 C770 1.334 . S
C771 C772 1.287 . S
C772 C771 1.287 . S
C772 C773 1.524 . S
C772 H791 0.913 . S
C773 H749 0.950 . S
C773 C772 1.524 . S
C773 C774 1.415 . S
C774 H750 0.950 . S
C774 C769 1.363 . S
C774 C773 1.415 . S
C775 H751 0.951 . S
C775 C776 1.366 . S
C775 C777 1.388 . S
C776 C775 1.366 . S
C776 C780 1.385 . S
C777 H752 0.951 . S
C777 C775 1.388 . S
C777 C778 1.366 . S
C778 C777 1.366 . S
C778 C779 1.414 . S
C778 C781 1.499 . S
C779 H753 0.950 . S
C779 C778 1.414 . S
C779 C780 1.374 . S
C780 H754 0.923 1_455 S
C780 C776 1.385 . S
C780 C779 1.374 . S
C781 C778 1.499 . S
C781 C782 1.373 . S
C781 C783 1.389 . S
C782 H755 0.950 1_455 S
C782 C768 1.377 . S
C782 C781 1.373 . S
C783 C767 1.377 . S
C783 C781 1.389 . S
C783 C784 1.524 . S
C784 C783 1.524 . S
C784 C785 1.397 . S
C784 C789 1.363 . S
C785 H756 0.950 . S
C785 C784 1.397 . S
C785 C786 1.334 . S
C786 H757 0.950 . S
C786 C785 1.334 . S
C786 C787 1.287 . S
C787 C786 1.287 . S
C787 C788 1.524 . S
C787 H790 0.999 . S
C788 H758 0.950 . S
C788 C787 1.524 . S
C788 C789 1.415 . S
C789 H759 0.950 . S
C789 C784 1.363 . S
C789 C788 1.415 . S
H790 C787 0.999 . S
H791 C772 0.913 . S
H792 C810 0.951 . S
H793 C812 0.951 . S
H794 C814 0.950 1_556 S
H795 C815 0.950 . S
H796 C817 0.950 . S
H797 C820 0.950 . S
H798 C821 0.950 . S
H799 C823 0.950 . S
H800 C824 0.950 . S
H801 C825 0.951 . S
H802 C827 0.951 . S
H803 C829 0.950 . S
H804 C830 0.950 . S
H805 C832 0.950 . S
H806 C835 0.950 . S
H807 C836 0.950 . S
H808 C838 0.950 . S
H809 C839 0.950 . S
C810 H792 0.951 . S
C810 C811 1.366 . S
C810 C812 1.388 . S
C811 C810 1.366 . S
C811 C815 1.385 . S
C812 H793 0.951 . S
C812 C810 1.388 . S
C812 C813 1.366 . S
C813 C812 1.366 . S
C813 C814 1.414 . S
C813 C816 1.499 1_554 S
C814 H794 0.950 1_554 S
C814 C813 1.414 . S
C814 C815 1.374 . S
C815 H795 0.950 . S
C815 C811 1.385 . S
C815 C814 1.374 . S
C816 C813 1.499 1_556 S
C816 C817 1.373 . S
C816 C818 1.389 . S
C817 H796 0.950 . S
C817 C816 1.373 . S
C817 C833 1.377 . S
C818 C816 1.389 . S
C818 C819 1.524 1_556 S
C818 C832 1.377 . S
C819 C818 1.524 1_554 S
C819 C820 1.397 1_565 S
C819 C824 1.363 . S
C820 H797 0.950 . S
C820 C819 1.397 1_545 S
C820 C821 1.334 . S
C821 H798 0.950 . S
C821 C820 1.334 . S
C821 C822 1.287 . S
C822 C821 1.287 . S
C822 C823 1.524 1_545 S
C822 H841 0.913 . S
C823 H799 0.950 . S
C823 C822 1.524 1_565 S
C823 C824 1.415 . S
C824 H800 0.950 . S
C824 C819 1.363 . S
C824 C823 1.415 . S
C825 H801 0.951 . S
C825 C826 1.366 1_545 S
C825 C827 1.388 . S
C826 C825 1.366 1_565 S
C826 C830 1.385 . S
C827 H802 0.951 . S
C827 C825 1.388 . S
C827 C828 1.366 1_545 S
C828 C827 1.366 1_565 S
C828 C829 1.414 . S
C828 C831 1.499 . S
C829 H803 0.950 . S
C829 C828 1.414 . S
C829 C830 1.374 . S
C830 H804 0.950 . S
C830 C826 1.385 . S
C830 C829 1.374 . S
C831 C828 1.499 . S
C831 C832 1.373 . S
C831 C833 1.389 . S
C832 H805 0.950 . S
C832 C818 1.377 . S
C832 C831 1.373 . S
C833 C817 1.377 . S
C833 C831 1.389 . S
C833 C834 1.524 . S
C834 C833 1.524 . S
C834 C835 1.397 . S
C834 C839 1.363 . S
C835 H806 0.950 . S
C835 C834 1.397 . S
C835 C836 1.334 . S
C836 H807 0.950 . S
C836 C835 1.334 . S
C836 C837 1.287 . S
C837 C836 1.287 . S
C837 C838 1.524 . S
C837 H840 0.999 . S
C838 H808 0.950 . S
C838 C837 1.524 . S
C838 C839 1.415 . S
C839 H809 0.950 . S
C839 C834 1.363 . S
C839 C838 1.415 . S
H840 C837 0.999 . S
H841 C822 0.913 . S
H842 C860 0.951 . S
H843 C862 0.951 1_556 S
H844 C864 0.950 . S
H845 C865 0.950 . S
H846 C867 0.950 . S
H847 C870 0.950 . S
H848 C871 0.950 . S
H849 C873 0.950 . S
H850 C874 0.950 . S
H851 C875 0.951 . S
H852 C877 0.951 . S
H853 C879 0.950 . S
H854 C880 0.950 . S
H855 C882 0.950 . S
H856 C885 0.950 . S
H857 C886 0.950 . S
H858 C888 0.950 . S
H859 C889 0.950 . S
C860 H842 0.951 . S
C860 C861 1.366 . S
C860 C862 1.388 . S
C861 C860 1.366 . S
C861 C865 1.385 . S
C862 H843 0.951 1_554 S
C862 C860 1.388 . S
C862 C863 1.366 . S
C863 C862 1.366 . S
C863 C864 1.414 . S
C863 C866 1.499 1_554 S
C864 H844 0.950 . S
C864 C863 1.414 . S
C864 C865 1.374 . S
C865 H845 0.950 . S
C865 C861 1.385 . S
C865 C864 1.374 . S
C866 C863 1.499 1_556 S
C866 C867 1.373 . S
C866 C868 1.389 . S
C867 H846 0.950 . S
C867 C866 1.373 . S
C867 C883 1.377 . S
C868 C866 1.389 . S
C868 C869 1.524 . S
C868 C882 1.377 . S
C869 C868 1.524 . S
C869 C870 1.397 . S
C869 C874 1.363 . S
C870 H847 0.950 . S
C870 C869 1.397 . S
C870 C871 1.334 . S
C871 H848 0.950 . S
C871 C870 1.334 . S
C871 C872 1.287 . S
C872 C871 1.287 . S
C872 C873 1.524 . S
C872 H891 0.913 . S
C873 H849 0.950 . S
C873 C872 1.524 . S
C873 C874 1.415 . S
C874 H850 0.950 . S
C874 C869 1.363 . S
C874 C873 1.415 . S
C875 H851 0.951 . S
C875 C876 1.366 . S
C875 C877 1.388 . S
C876 C875 1.366 . S
C876 C880 1.385 . S
C877 H852 0.951 . S
C877 C875 1.388 . S
C877 C878 1.366 . S
C878 C877 1.366 . S
C878 C879 1.414 . S
C878 C881 1.499 . S
C879 H853 0.950 . S
C879 C878 1.414 . S
C879 C880 1.374 . S
C880 H854 0.950 . S
C880 C876 1.385 . S
C880 C879 1.374 . S
C881 C878 1.499 . S
C881 C882 1.373 . S
C881 C883 1.389 . S
C882 H855 0.950 . S
C882 C868 1.377 . S
C882 C881 1.373 . S
C883 C867 1.377 . S
C883 C881 1.389 . S
C883 C884 1.524 . S
C884 C883 1.524 . S
C884 C885 1.397 . S
C884 C889 1.363 . S
C885 H856 0.950 . S
C885 C884 1.397 . S
C885 C886 1.334 . S
C886 H857 0.950 . S
C886 C885 1.334 . S
C886 C887 1.287 . S
C887 C886 1.287 . S
C887 C888 1.524 . S
C887 H890 0.999 . S
C888 H858 0.950 . S
C888 C887 1.524 . S
C888 C889 1.415 . S
C889 H859 0.950 . S
C889 C884 1.363 . S
C889 C888 1.415 . S
H890 C887 0.999 . S
H891 C872 0.913 . S
H892 C910 0.951 . S
H893 C912 0.951 . S
H894 C914 0.950 1_556 S
H895 C915 0.950 . S
H896 C917 0.950 . S
H897 C920 0.950 . S
H898 C921 0.950 . S
H899 C923 0.950 . S
H900 C924 0.950 . S
H901 C925 0.951 . S
H902 C927 0.951 . S
H903 C929 0.950 . S
H904 C930 0.950 . S
H905 C932 0.950 . S
H906 C935 0.950 . S
H907 C936 0.950 . S
H908 C938 0.950 . S
H909 C939 0.950 . S
C910 H892 0.951 . S
C910 C911 1.366 . S
C910 C912 1.388 . S
C911 C910 1.366 . S
C911 C915 1.385 . S
C912 H893 0.951 . S
C912 C910 1.388 . S
C912 C913 1.366 . S
C913 C912 1.366 . S
C913 C914 1.414 . S
C913 C916 1.499 1_554 S
C914 H894 0.950 1_554 S
C914 C913 1.414 . S
C914 C915 1.374 . S
C915 H895 0.950 . S
C915 C911 1.385 . S
C915 C914 1.374 . S
C916 C913 1.499 1_556 S
C916 C917 1.373 . S
C916 C918 1.389 . S
C917 H896 0.950 . S
C917 C916 1.373 . S
C917 C933 1.377 . S
C918 C916 1.389 . S
C918 C919 1.524 1_556 S
C918 C932 1.377 . S
C919 C918 1.524 1_554 S
C919 C920 1.397 . S
C919 C924 1.363 . S
C920 H897 0.950 . S
C920 C919 1.397 . S
C920 C921 1.334 . S
C921 H898 0.950 . S
C921 C920 1.334 . S
C921 C922 1.287 . S
C922 C921 1.287 . S
C922 C923 1.524 . S
C922 H941 0.913 . S
C923 H899 0.950 . S
C923 C922 1.524 . S
C923 C924 1.415 . S
C924 H900 0.950 . S
C924 C919 1.363 . S
C924 C923 1.415 . S
C925 H901 0.951 . S
C925 C926 1.366 . S
C925 C927 1.388 . S
C926 C925 1.366 . S
C926 C930 1.385 . S
C927 H902 0.951 . S
C927 C925 1.388 . S
C927 C928 1.366 . S
C928 C927 1.366 . S
C928 C929 1.414 . S
C928 C931 1.499 . S
C929 H903 0.950 . S
C929 C928 1.414 . S
C929 C930 1.374 . S
C930 H904 0.950 . S
C930 C926 1.385 . S
C930 C929 1.374 . S
C931 C928 1.499 . S
C931 C932 1.373 . S
C931 C933 1.389 . S
C932 H905 0.950 . S
C932 C918 1.377 . S
C932 C931 1.373 . S
C933 C917 1.377 . S
C933 C931 1.389 . S
C933 C934 1.524 . S
C934 C933 1.524 . S
C934 C935 1.397 . S
C934 C939 1.363 . S
C935 H906 0.950 . S
C935 C934 1.397 . S
C935 C936 1.334 . S
C936 H907 0.950 . S
C936 C935 1.334 . S
C936 C937 1.287 . S
C937 C936 1.287 . S
C937 C938 1.524 . S
C937 H940 0.999 . S
C938 H908 0.950 . S
C938 C937 1.524 . S
C938 C939 1.415 . S
C939 H909 0.950 . S
C939 C934 1.363 . S
C939 C938 1.415 . S
H940 C937 0.999 . S
H941 C922 0.913 . S
H942 C960 0.951 . S
H943 C962 0.951 . S
H944 C964 0.950 1_455 S
H945 C965 0.950 . S
H946 C967 0.950 . S
H947 C970 0.950 . S
H948 C971 0.950 . S
H949 C973 0.950 . S
H950 C974 0.950 . S
H951 C975 0.951 . S
H952 C977 0.951 . S
H953 C979 0.950 . S
H954 C980 0.950 . S
H955 C982 0.950 . S
H956 C985 0.950 . S
H957 C986 0.938 1_655 S
H958 C988 0.950 . S
H959 C989 0.950 . S
C960 H942 0.951 . S
C960 C961 1.366 . S
C960 C962 1.388 . S
C961 C960 1.366 . S
C961 C965 1.385 . S
C962 H943 0.951 . S
C962 C960 1.388 . S
C962 C963 1.366 . S
C963 C962 1.366 . S
C963 C964 1.414 . S
C963 C966 1.499 1_554 S
C964 H944 0.950 1_655 S
C964 C963 1.414 . S
C964 C965 1.374 . S
C965 H945 0.950 . S
C965 C961 1.385 . S
C965 C964 1.374 . S
C966 C963 1.499 1_556 S
C966 C967 1.373 . S
C966 C968 1.389 . S
C967 H946 0.950 . S
C967 C966 1.373 . S
C967 C983 1.377 . S
C968 C966 1.389 . S
C968 C969 1.524 . S
C968 C982 1.377 . S
C969 C968 1.524 . S
C969 C970 1.397 1_556 S
C969 C974 1.363 . S
C970 H947 0.950 . S
C970 C969 1.397 1_554 S
C970 C971 1.334 . S
C971 H948 0.950 . S
C971 C970 1.334 . S
C971 C972 1.287 . S
C972 C971 1.287 . S
C972 C973 1.524 . S
C972 H991 0.913 . S
C973 H949 0.950 . S
C973 C972 1.524 . S
C973 C974 1.415 1_554 S
C974 H950 0.950 . S
C974 C969 1.363 . S
C974 C973 1.415 1_556 S
C975 H951 0.951 . S
C975 C976 1.366 1_455 S
C975 C977 1.388 . S
C976 C975 1.366 1_655 S
C976 C980 1.385 . S
C977 H952 0.951 . S
C977 C975 1.388 . S
C977 C978 1.366 1_455 S
C978 C977 1.366 1_655 S
C978 C979 1.414 . S
C978 C981 1.499 . S
C979 H953 0.950 . S
C979 C978 1.414 . S
C979 C980 1.374 . S
C980 H954 0.950 . S
C980 C976 1.385 . S
C980 C979 1.374 . S
C981 C978 1.499 . S
C981 C982 1.373 . S
C981 C983 1.389 . S
C982 H955 0.950 . S
C982 C968 1.377 . S
C982 C981 1.373 . S
C983 C967 1.377 . S
C983 C981 1.389 . S
C983 C984 1.524 1_655 S
C984 C983 1.524 1_455 S
C984 C985 1.397 1_455 S
C984 C989 1.363 . S
C985 H956 0.950 . S
C985 C984 1.397 1_655 S
C985 C986 1.334 1_655 S
C986 H957 0.938 1_455 S
C986 C985 1.334 1_455 S
C986 C987 1.287 . S
C987 C986 1.287 . S
C987 C988 1.524 . S
C987 H990 0.999 . S
C988 H958 0.950 . S
C988 C987 1.524 . S
C988 C989 1.415 . S
C989 H959 0.950 . S
C989 C984 1.363 . S
C989 C988 1.415 . S
H990 C987 0.999 . S
H991 C972 0.913 . S
H992 C1010 0.951 . S
H993 C1012 0.951 . S
H994 C1014 0.950 . S
H995 C1015 0.950 . S
H996 C1017 0.950 . S
H997 C1020 0.950 . S
H998 C1021 0.950 . S
H999 C1023 0.950 . S
H1000 C1024 0.950 . S
H1001 C1025 0.951 . S
H1002 C1027 0.951 . S
H1003 C1029 0.950 . S
H1004 C1030 0.950 . S
H1005 C1032 0.950 . S
H1006 C1035 0.950 . S
H1007 C1036 0.950 . S
H1008 C1038 0.950 . S
H1009 C1039 0.950 . S
C1010 H992 0.951 . S
C1010 C1011 1.366 . S
C1010 C1012 1.388 . S
C1011 C1010 1.366 . S
C1011 C1015 1.385 . S
C1012 H993 0.951 . S
C1012 C1010 1.388 . S
C1012 C1013 1.366 . S
C1013 C1012 1.366 . S
C1013 C1014 1.414 . S
C1013 C1016 1.499 . S
C1014 H994 0.950 . S
C1014 C1013 1.414 . S
C1014 C1015 1.374 . S
C1015 H995 0.950 . S
C1015 C1011 1.385 . S
C1015 C1014 1.374 . S
C1016 C1013 1.499 . S
C1016 C1017 1.373 . S
C1016 C1018 1.389 . S
C1017 H996 0.950 . S
C1017 C1016 1.373 . S
C1017 C1033 1.377 . S
C1018 C1016 1.389 . S
C1018 C1019 1.524 . S
C1018 C1032 1.377 . S
C1019 C1018 1.524 . S
C1019 C1020 1.397 . S
C1019 C1024 1.363 . S
C1020 H997 0.950 . S
C1020 C1019 1.397 . S
C1020 C1021 1.334 . S
C1021 H998 0.950 . S
C1021 C1020 1.334 . S
C1021 C1022 1.287 . S
C1022 C1021 1.287 . S
C1022 C1023 1.524 . S
C1022 H1041 0.913 . S
C1023 H999 0.950 . S
C1023 C1022 1.524 . S
C1023 C1024 1.415 . S
C1024 H1000 0.950 . S
C1024 C1019 1.363 . S
C1024 C1023 1.415 . S
C1025 H1001 0.951 . S
C1025 C1026 1.366 . S
C1025 C1027 1.388 . S
C1026 C1025 1.366 . S
C1026 C1030 1.385 1_455 S
C1027 H1002 0.951 . S
C1027 C1025 1.388 . S
C1027 C1028 1.366 . S
C1028 C1027 1.366 . S
C1028 C1029 1.414 1_455 S
C1028 C1031 1.499 . S
C1029 H1003 0.950 . S
C1029 C1028 1.414 1_655 S
C1029 C1030 1.374 . S
C1030 H1004 0.950 . S
C1030 C1026 1.385 1_655 S
C1030 C1029 1.374 . S
C1031 C1028 1.499 . S
C1031 C1032 1.373 . S
C1031 C1033 1.389 . S
C1032 H1005 0.950 . S
C1032 C1018 1.377 . S
C1032 C1031 1.373 . S
C1033 C1017 1.377 . S
C1033 C1031 1.389 . S
C1033 C1034 1.524 . S
C1034 C1033 1.524 . S
C1034 C1035 1.397 1_455 S
C1034 C1039 1.363 . S
C1035 H1006 0.950 . S
C1035 C1034 1.397 1_655 S
C1035 C1036 1.334 . S
C1036 H1007 0.950 . S
C1036 C1035 1.334 . S
C1036 C1037 1.287 1_655 S
C1037 C1036 1.287 1_455 S
C1037 C1038 1.524 . S
C1037 H1040 0.990 1_455 S
C1038 H1008 0.950 . S
C1038 C1037 1.524 . S
C1038 C1039 1.415 . S
C1039 H1009 0.950 . S
C1039 C1034 1.363 . S
C1039 C1038 1.415 . S
H1040 C1037 0.990 1_655 S
H1041 C1022 0.913 . S
H1042 C1060 0.951 . S
H1043 C1062 0.951 . S
H1044 C1064 0.950 . S
H1045 C1065 0.950 . S
H1046 C1067 0.950 . S
H1047 C1070 0.950 . S
H1048 C1071 0.950 . S
H1049 C1073 0.950 . S
H1050 C1074 0.950 . S
H1051 C1075 0.951 . S
H1052 C1077 0.951 . S
H1053 C1079 0.950 . S
H1054 C1080 0.950 . S
H1055 C1082 0.950 . S
H1056 C1085 0.950 . S
H1057 C1086 0.950 . S
H1058 C1088 0.950 . S
H1059 C1089 0.950 . S
C1060 H1042 0.951 . S
C1060 C1061 1.366 . S
C1060 C1062 1.388 . S
C1061 C1060 1.366 . S
C1061 C1065 1.385 . S
C1062 H1043 0.951 . S
C1062 C1060 1.388 . S
C1062 C1063 1.366 . S
C1063 C1062 1.366 . S
C1063 C1064 1.414 . S
C1063 C1066 1.499 . S
C1064 H1044 0.950 . S
C1064 C1063 1.414 . S
C1064 C1065 1.374 . S
C1065 H1045 0.950 . S
C1065 C1061 1.385 . S
C1065 C1064 1.374 . S
C1066 C1063 1.499 . S
C1066 C1067 1.373 . S
C1066 C1068 1.389 . S
C1067 H1046 0.950 . S
C1067 C1066 1.373 . S
C1067 C1083 1.377 . S
C1068 C1066 1.389 . S
C1068 C1069 1.524 . S
C1068 C1082 1.377 . S
C1069 C1068 1.524 . S
C1069 C1070 1.397 . S
C1069 C1074 1.363 . S
C1070 H1047 0.950 . S
C1070 C1069 1.397 . S
C1070 C1071 1.334 . S
C1071 H1048 0.950 . S
C1071 C1070 1.334 . S
C1071 C1072 1.287 . S
C1072 C1071 1.287 . S
C1072 C1073 1.524 . S
C1072 H1091 0.913 . S
C1073 H1049 0.950 . S
C1073 C1072 1.524 . S
C1073 C1074 1.415 . S
C1074 H1050 0.950 . S
C1074 C1069 1.363 . S
C1074 C1073 1.415 . S
C1075 H1051 0.951 . S
C1075 C1076 1.366 1_565 S
C1075 C1077 1.388 . S
C1076 C1075 1.366 1_545 S
C1076 C1080 1.385 . S
C1077 H1052 0.951 . S
C1077 C1075 1.388 . S
C1077 C1078 1.366 1_565 S
C1078 C1077 1.366 1_545 S
C1078 C1079 1.414 . S
C1078 C1081 1.499 . S
C1079 H1053 0.950 . S
C1079 C1078 1.414 . S
C1079 C1080 1.374 . S
C1080 H1054 0.950 . S
C1080 C1076 1.385 . S
C1080 C1079 1.374 . S
C1081 C1078 1.499 . S
C1081 C1082 1.373 . S
C1081 C1083 1.389 . S
C1082 H1055 0.950 . S
C1082 C1068 1.377 . S
C1082 C1081 1.373 . S
C1083 C1067 1.377 . S
C1083 C1081 1.389 . S
C1083 C1084 1.524 . S
C1084 C1083 1.524 . S
C1084 C1085 1.397 . S
C1084 C1089 1.363 1_545 S
C1085 H1056 0.950 . S
C1085 C1084 1.397 . S
C1085 C1086 1.334 . S
C1086 H1057 0.950 . S
C1086 C1085 1.334 . S
C1086 C1087 1.287 1_545 S
C1087 C1086 1.287 1_565 S
C1087 C1088 1.524 . S
C1087 H1090 0.999 . S
C1088 H1058 0.950 . S
C1088 C1087 1.524 . S
C1088 C1089 1.415 . S
C1089 H1059 0.950 . S
C1089 C1084 1.363 1_565 S
C1089 C1088 1.415 . S
H1090 C1087 0.999 . S
H1091 C1072 0.913 . S
H1092 C1110 0.951 . S
H1093 C1112 0.951 . S
H1094 C1114 0.950 . S
H1095 C1115 0.950 . S
H1096 C1117 0.950 . S
H1097 C1120 0.950 . S
H1098 C1121 0.950 . S
H1099 C1123 0.950 . S
H1100 C1124 0.950 . S
H1101 C1125 0.951 . S
H1102 C1127 0.951 . S
H1103 C1129 0.950 . S
H1104 C1130 0.950 . S
H1105 C1132 0.950 . S
H1106 C1135 0.950 . S
H1107 C1136 0.950 . S
H1108 C1138 0.950 . S
H1109 C1139 0.950 . S
C1110 H1092 0.951 . S
C1110 C1111 1.366 . S
C1110 C1112 1.388 . S
C1111 C1110 1.366 . S
C1111 C1115 1.385 . S
C1112 H1093 0.951 . S
C1112 C1110 1.388 . S
C1112 C1113 1.366 . S
C1113 C1112 1.366 . S
C1113 C1114 1.414 . S
C1113 C1116 1.499 . S
C1114 H1094 0.950 . S
C1114 C1113 1.414 . S
C1114 C1115 1.374 . S
C1115 H1095 0.950 . S
C1115 C1111 1.385 . S
C1115 C1114 1.374 . S
C1116 C1113 1.499 . S
C1116 C1117 1.373 . S
C1116 C1118 1.389 . S
C1117 H1096 0.950 . S
C1117 C1116 1.373 . S
C1117 C1133 1.377 . S
C1118 C1116 1.389 . S
C1118 C1119 1.524 . S
C1118 C1132 1.377 . S
C1119 C1118 1.524 . S
C1119 C1120 1.397 . S
C1119 C1124 1.363 . S
C1120 H1097 0.950 . S
C1120 C1119 1.397 . S
C1120 C1121 1.334 . S
C1121 H1098 0.950 . S
C1121 C1120 1.334 . S
C1121 C1122 1.287 . S
C1122 C1121 1.287 . S
C1122 C1123 1.524 . S
C1122 H1141 0.913 . S
C1123 H1099 0.950 . S
C1123 C1122 1.524 . S
C1123 C1124 1.415 . S
C1124 H1100 0.950 . S
C1124 C1119 1.363 . S
C1124 C1123 1.415 . S
C1125 H1101 0.951 . S
C1125 C1126 1.366 . S
C1125 C1127 1.388 . S
C1126 C1125 1.366 . S
C1126 C1130 1.385 . S
C1127 H1102 0.951 . S
C1127 C1125 1.388 . S
C1127 C1128 1.366 . S
C1128 C1127 1.366 . S
C1128 C1129 1.414 . S
C1128 C1131 1.499 . S
C1129 H1103 0.950 . S
C1129 C1128 1.414 . S
C1129 C1130 1.374 . S
C1130 H1104 0.950 . S
C1130 C1126 1.385 . S
C1130 C1129 1.374 . S
C1131 C1128 1.499 . S
C1131 C1132 1.373 . S
C1131 C1133 1.389 . S
C1132 H1105 0.950 . S
C1132 C1118 1.377 . S
C1132 C1131 1.373 . S
C1133 C1117 1.377 . S
C1133 C1131 1.389 . S
C1133 C1134 1.524 . S
C1134 C1133 1.524 . S
C1134 C1135 1.397 . S
C1134 C1139 1.363 . S
C1135 H1106 0.950 . S
C1135 C1134 1.397 . S
C1135 C1136 1.334 . S
C1136 H1107 0.950 . S
C1136 C1135 1.334 . S
C1136 C1137 1.287 . S
C1137 C1136 1.287 . S
C1137 C1138 1.524 . S
C1137 H1140 0.999 . S
C1138 H1108 0.950 . S
C1138 C1137 1.524 . S
C1138 C1139 1.415 . S
C1139 H1109 0.950 . S
C1139 C1134 1.363 . S
C1139 C1138 1.415 . S
H1140 C1137 0.999 . S
H1141 C1122 0.913 . S
H1142 C1160 0.951 . S
H1143 C1162 0.951 . S
H1144 C1164 0.950 . S
H1145 C1165 0.950 . S
H1146 C1167 0.950 . S
H1147 C1170 0.950 . S
H1148 C1171 0.950 . S
H1149 C1173 0.950 . S
H1150 C1174 0.950 . S
H1151 C1175 0.951 . S
H1152 C1177 0.951 . S
H1153 C1179 0.950 . S
H1154 C1180 0.950 . S
H1155 C1182 0.950 . S
H1156 C1185 0.950 . S
H1157 C1186 0.950 . S
H1158 C1188 0.950 . S
H1159 C1189 0.950 . S
C1160 H1142 0.951 . S
C1160 C1161 1.366 . S
C1160 C1162 1.388 . S
C1161 C1160 1.366 . S
C1161 C1165 1.385 . S
C1162 H1143 0.951 . S
C1162 C1160 1.388 . S
C1162 C1163 1.366 . S
C1163 C1162 1.366 . S
C1163 C1164 1.414 . S
C1163 C1166 1.499 . S
C1164 H1144 0.950 . S
C1164 C1163 1.414 . S
C1164 C1165 1.374 . S
C1165 H1145 0.950 . S
C1165 C1161 1.385 . S
C1165 C1164 1.374 . S
C1166 C1163 1.499 . S
C1166 C1167 1.373 . S
C1166 C1168 1.389 . S
C1167 H1146 0.950 . S
C1167 C1166 1.373 . S
C1167 C1183 1.377 . S
C1168 C1166 1.389 . S
C1168 C1169 1.524 . S
C1168 C1182 1.377 . S
C1169 C1168 1.524 . S
C1169 C1170 1.397 . S
C1169 C1174 1.363 . S
C1170 H1147 0.950 . S
C1170 C1169 1.397 . S
C1170 C1171 1.334 . S
C1171 H1148 0.950 . S
C1171 C1170 1.334 . S
C1171 C1172 1.287 . S
C1172 C1171 1.287 . S
C1172 C1173 1.524 . S
C1172 H1191 0.913 . S
C1173 H1149 0.950 . S
C1173 C1172 1.524 . S
C1173 C1174 1.415 . S
C1174 H1150 0.950 . S
C1174 C1169 1.363 . S
C1174 C1173 1.415 . S
C1175 H1151 0.951 . S
C1175 C1176 1.366 . S
C1175 C1177 1.388 . S
C1176 C1175 1.366 . S
C1176 C1180 1.385 . S
C1177 H1152 0.951 . S
C1177 C1175 1.388 . S
C1177 C1178 1.366 . S
C1178 C1177 1.366 . S
C1178 C1179 1.414 . S
C1178 C1181 1.499 . S
C1179 H1153 0.950 . S
C1179 C1178 1.414 . S
C1179 C1180 1.374 . S
C1180 H1154 0.950 . S
C1180 C1176 1.385 . S
C1180 C1179 1.374 . S
C1181 C1178 1.499 . S
C1181 C1182 1.373 . S
C1181 C1183 1.389 . S
C1182 H1155 0.950 . S
C1182 C1168 1.377 . S
C1182 C1181 1.373 . S
C1183 C1167 1.377 . S
C1183 C1181 1.389 . S
C1183 C1184 1.524 . S
C1184 C1183 1.524 . S
C1184 C1185 1.397 . S
C1184 C1189 1.363 . S
C1185 H1156 0.950 . S
C1185 C1184 1.397 . S
C1185 C1186 1.334 . S
C1186 H1157 0.950 . S
C1186 C1185 1.334 . S
C1186 C1187 1.287 . S
C1187 C1186 1.287 . S
C1187 C1188 1.524 . S
C1187 H1190 0.999 . S
C1188 H1158 0.950 . S
C1188 C1187 1.524 . S
C1188 C1189 1.415 . S
C1189 H1159 0.950 . S
C1189 C1184 1.363 . S
C1189 C1188 1.415 . S
H1190 C1187 0.999 . S
H1191 C1172 0.913 . S
H1192 C1210 0.951 . S
H1193 C1212 0.951 . S
H1194 C1214 0.950 . S
H1195 C1215 0.950 . S
H1196 C1217 0.950 1_455 S
H1197 C1220 0.950 . S
H1198 C1221 0.950 . S
H1199 C1223 0.950 . S
H1200 C1224 0.950 . S
H1201 C1225 0.951 . S
H1202 C1227 0.951 . S
H1203 C1229 0.950 . S
H1204 C1230 0.950 . S
H1205 C1232 0.950 . S
H1206 C1235 0.950 . S
H1207 C1236 0.950 . S
H1208 C1238 0.950 . S
H1209 C1239 0.950 . S
C1210 H1192 0.951 . S
C1210 C1211 1.366 . S
C1210 C1212 1.388 . S
C1211 C1210 1.366 . S
C1211 C1215 1.385 . S
C1212 H1193 0.951 . S
C1212 C1210 1.388 . S
C1212 C1213 1.366 1_554 S
C1213 C1212 1.366 1_556 S
C1213 C1214 1.414 . S
C1213 C1216 1.499 . S
C1214 H1194 0.950 . S
C1214 C1213 1.414 . S
C1214 C1215 1.374 1_556 S
C1215 H1195 0.950 . S
C1215 C1211 1.385 . S
C1215 C1214 1.374 1_554 S
C1216 C1213 1.499 . S
C1216 C1217 1.373 . S
C1216 C1218 1.389 . S
C1217 H1196 0.950 1_655 S
C1217 C1216 1.373 . S
C1217 C1233 1.377 1_655 S
C1218 C1216 1.389 . S
C1218 C1219 1.524 . S
C1218 C1232 1.377 . S
C1219 C1218 1.524 . S
C1219 C1220 1.397 . S
C1219 C1224 1.363 . S
C1220 H1197 0.950 . S
C1220 C1219 1.397 . S
C1220 C1221 1.334 . S
C1221 H1198 0.950 . S
C1221 C1220 1.334 . S
C1221 C1222 1.287 . S
C1222 C1221 1.287 . S
C1222 C1223 1.524 . S
C1222 H1241 0.913 . S
C1223 H1199 0.950 . S
C1223 C1222 1.524 . S
C1223 C1224 1.415 . S
C1224 H1200 0.950 . S
C1224 C1219 1.363 . S
C1224 C1223 1.415 . S
C1225 H1201 0.951 . S
C1225 C1226 1.366 . S
C1225 C1227 1.388 . S
C1226 C1225 1.366 . S
C1226 C1230 1.385 1_455 S
C1227 H1202 0.951 . S
C1227 C1225 1.388 . S
C1227 C1228 1.366 1_455 S
C1228 C1227 1.366 1_655 S
C1228 C1229 1.414 . S
C1228 C1231 1.499 . S
C1229 H1203 0.950 . S
C1229 C1228 1.414 . S
C1229 C1230 1.374 . S
C1230 H1204 0.950 . S
C1230 C1226 1.385 1_655 S
C1230 C1229 1.374 . S
C1231 C1228 1.499 . S
C1231 C1232 1.373 . S
C1231 C1233 1.389 1_655 S
C1232 H1205 0.950 . S
C1232 C1218 1.377 . S
C1232 C1231 1.373 . S
C1233 C1217 1.377 1_455 S
C1233 C1231 1.389 1_455 S
C1233 C1234 1.524 . S
C1234 C1233 1.524 . S
C1234 C1235 1.397 . S
C1234 C1239 1.363 . S
C1235 H1206 0.950 . S
C1235 C1234 1.397 . S
C1235 C1236 1.334 . S
C1236 H1207 0.950 . S
C1236 C1235 1.334 . S
C1236 C1237 1.287 . S
C1237 C1236 1.287 . S
C1237 C1238 1.524 . S
C1237 H1240 0.999 . S
C1238 H1208 0.950 . S
C1238 C1237 1.524 . S
C1238 C1239 1.415 . S
C1239 H1209 0.950 . S
C1239 C1234 1.363 . S
C1239 C1238 1.415 . S
H1240 C1237 0.999 . S
H1241 C1222 0.913 . S
H1242 C1260 0.951 . S
H1243 C1262 0.951 . S
H1244 C1264 0.950 . S
H1245 C1265 0.950 . S
H1246 C1267 0.950 1_545 S
H1247 C1270 0.950 . S
H1248 C1271 0.950 . S
H1249 C1273 0.950 . S
H1250 C1274 0.950 1_554 S
H1251 C1275 0.951 . S
H1252 C1277 0.951 . S
H1253 C1279 0.950 . S
H1254 C1280 0.953 . S
H1255 C1282 0.950 . S
H1256 C1285 0.950 . S
H1257 C1286 0.950 . S
H1258 C1288 0.950 . S
H1259 C1289 0.950 . S
C1260 H1242 0.951 . S
C1260 C1261 1.366 . S
C1260 C1262 1.388 . S
C1261 C1260 1.366 . S
C1261 C1265 1.385 . S
C1262 H1243 0.951 . S
C1262 C1260 1.388 . S
C1262 C1263 1.366 1_554 S
C1263 C1262 1.366 1_556 S
C1263 C1264 1.414 . S
C1263 C1266 1.499 . S
C1264 H1244 0.950 . S
C1264 C1263 1.414 . S
C1264 C1265 1.374 1_556 S
C1265 H1245 0.950 . S
C1265 C1261 1.385 . S
C1265 C1264 1.374 1_554 S
C1266 C1263 1.499 . S
C1266 C1267 1.373 . S
C1266 C1268 1.389 . S
C1267 H1246 0.950 1_565 S
C1267 C1266 1.373 . S
C1267 C1283 1.377 1_565 S
C1268 C1266 1.389 . S
C1268 C1269 1.524 . S
C1268 C1282 1.377 . S
C1269 C1268 1.524 . S
C1269 C1270 1.397 . S
C1269 C1274 1.363 . S
C1270 H1247 0.950 . S
C1270 C1269 1.397 . S
C1270 C1271 1.334 . S
C1271 H1248 0.950 . S
C1271 C1270 1.334 . S
C1271 C1272 1.287 . S
C1272 C1271 1.287 . S
C1272 C1273 1.524 1_556 S
C1272 H1291 0.913 . S
C1273 H1249 0.950 . S
C1273 C1272 1.524 1_554 S
C1273 C1274 1.415 1_554 S
C1274 H1250 0.950 1_556 S
C1274 C1269 1.363 . S
C1274 C1273 1.415 1_556 S
C1275 H1251 0.951 . S
C1275 C1276 1.366 . S
C1275 C1277 1.388 . S
C1276 C1275 1.366 . S
C1276 C1280 1.376 1_545 S
C1277 H1252 0.951 . S
C1277 C1275 1.388 . S
C1277 C1278 1.366 1_545 S
C1278 C1277 1.366 1_565 S
C1278 C1279 1.414 . S
C1278 C1281 1.499 . S
C1279 H1253 0.950 . S
C1279 C1278 1.414 . S
C1279 C1280 1.379 . S
C1280 H1254 0.953 . S
C1280 C1276 1.376 1_565 S
C1280 C1279 1.379 . S
C1281 C1278 1.499 . S
C1281 C1282 1.373 . S
C1281 C1283 1.389 1_565 S
C1282 H1255 0.950 . S
C1282 C1268 1.377 . S
C1282 C1281 1.373 . S
C1283 C1267 1.377 1_545 S
C1283 C1281 1.389 1_545 S
C1283 C1284 1.524 . S
C1284 C1283 1.524 . S
C1284 C1285 1.397 . S
C1284 C1289 1.363 . S
C1285 H1256 0.950 . S
C1285 C1284 1.397 . S
C1285 C1286 1.334 . S
C1286 H1257 0.950 . S
C1286 C1285 1.334 . S
C1286 C1287 1.287 . S
C1287 C1286 1.287 . S
C1287 C1288 1.524 . S
C1287 H1290 0.999 . S
C1288 H1258 0.950 . S
C1288 C1287 1.524 . S
C1288 C1289 1.415 . S
C1289 H1259 0.950 . S
C1289 C1284 1.363 . S
C1289 C1288 1.415 . S
H1290 C1287 0.999 . S
H1291 C1272 0.913 . S
H1292 C1310 0.951 . S
H1293 C1312 0.951 . S
H1294 C1314 0.947 1_556 S
H1295 C1315 0.950 . S
H1296 C1317 0.950 . S
H1297 C1320 0.950 . S
H1298 C1321 0.950 . S
H1299 C1323 0.950 . S
H1300 C1324 0.950 . S
H1301 C1325 0.951 . S
H1302 C1327 0.951 . S
H1303 C1329 0.950 . S
H1304 C1330 0.950 . S
H1305 C1332 0.950 . S
H1306 C1335 0.950 . S
H1307 C1336 0.950 . S
H1308 C1338 0.950 . S
H1309 C1339 0.950 . S
C1310 H1292 0.951 . S
C1310 C1311 1.366 . S
C1310 C1312 1.388 . S
C1311 C1310 1.366 . S
C1311 C1315 1.385 . S
C1312 H1293 0.951 . S
C1312 C1310 1.388 . S
C1312 C1313 1.366 1_554 S
C1313 C1312 1.366 1_556 S
C1313 C1314 1.414 1_556 S
C1313 C1316 1.499 . S
C1314 H1294 0.947 1_554 S
C1314 C1313 1.414 1_554 S
C1314 C1315 1.377 . S
C1315 H1295 0.950 . S
C1315 C1311 1.385 . S
C1315 C1314 1.377 . S
C1316 C1313 1.499 . S
C1316 C1317 1.373 . S
C1316 C1318 1.389 . S
C1317 H1296 0.950 . S
C1317 C1316 1.373 . S
C1317 C1333 1.377 . S
C1318 C1316 1.389 . S
C1318 C1319 1.524 . S
C1318 C1332 1.377 . S
C1319 C1318 1.524 . S
C1319 C1320 1.397 . S
C1319 C1324 1.363 . S
C1320 H1297 0.950 . S
C1320 C1319 1.397 . S
C1320 C1321 1.334 . S
C1321 H1298 0.950 . S
C1321 C1320 1.334 . S
C1321 C1322 1.287 . S
C1322 C1321 1.287 . S
C1322 C1323 1.524 . S
C1322 H1341 0.913 . S
C1323 H1299 0.950 . S
C1323 C1322 1.524 . S
C1323 C1324 1.415 . S
C1324 H1300 0.950 . S
C1324 C1319 1.363 . S
C1324 C1323 1.415 . S
C1325 H1301 0.951 . S
C1325 C1326 1.366 . S
C1325 C1327 1.388 . S
C1326 C1325 1.366 . S
C1326 C1330 1.385 . S
C1327 H1302 0.951 . S
C1327 C1325 1.388 . S
C1327 C1328 1.366 . S
C1328 C1327 1.366 . S
C1328 C1329 1.414 . S
C1328 C1331 1.499 . S
C1329 H1303 0.950 . S
C1329 C1328 1.414 . S
C1329 C1330 1.374 . S
C1330 H1304 0.950 . S
C1330 C1326 1.385 . S
C1330 C1329 1.374 . S
C1331 C1328 1.499 . S
C1331 C1332 1.373 . S
C1331 C1333 1.389 . S
C1332 H1305 0.950 . S
C1332 C1318 1.377 . S
C1332 C1331 1.373 . S
C1333 C1317 1.377 . S
C1333 C1331 1.389 . S
C1333 C1334 1.524 . S
C1334 C1333 1.524 . S
C1334 C1335 1.397 . S
C1334 C1339 1.363 . S
C1335 H1306 0.950 . S
C1335 C1334 1.397 . S
C1335 C1336 1.334 . S
C1336 H1307 0.950 . S
C1336 C1335 1.334 . S
C1336 C1337 1.287 . S
C1337 C1336 1.287 . S
C1337 C1338 1.524 . S
C1337 H1340 0.999 . S
C1338 H1308 0.950 . S
C1338 C1337 1.524 . S
C1338 C1339 1.415 . S
C1339 H1309 0.950 . S
C1339 C1334 1.363 . S
C1339 C1338 1.415 . S
H1340 C1337 0.999 . S
H1341 C1322 0.913 . S
H1342 C1360 0.951 . S
H1343 C1362 0.951 . S
H1344 C1364 0.950 . S
H1345 C1365 0.950 . S
H1346 C1367 0.950 . S
H1347 C1370 0.950 . S
H1348 C1371 0.950 . S
H1349 C1373 0.950 . S
H1350 C1374 0.950 . S
H1351 C1375 0.951 . S
H1352 C1377 0.951 . S
H1353 C1379 0.950 . S
H1354 C1380 0.950 . S
H1355 C1382 0.950 . S
H1356 C1385 0.950 . S
H1357 C1386 0.950 . S
H1358 C1388 0.950 . S
H1359 C1389 0.950 . S
C1360 H1342 0.951 . S
C1360 C1361 1.366 . S
C1360 C1362 1.388 1_554 S
C1361 C1360 1.366 . S
C1361 C1365 1.385 . S
C1362 H1343 0.951 . S
C1362 C1360 1.388 1_556 S
C1362 C1363 1.366 1_556 S
C1363 C1362 1.366 1_554 S
C1363 C1364 1.414 . S
C1363 C1366 1.499 1_554 S
C1364 H1344 0.950 . S
C1364 C1363 1.414 . S
C1364 C1365 1.374 . S
C1365 H1345 0.950 . S
C1365 C1361 1.385 . S
C1365 C1364 1.374 . S
C1366 C1363 1.499 1_556 S
C1366 C1367 1.373 . S
C1366 C1368 1.389 . S
C1367 H1346 0.950 . S
C1367 C1366 1.373 . S
C1367 C1383 1.377 . S
C1368 C1366 1.389 . S
C1368 C1369 1.524 . S
C1368 C1382 1.377 . S
C1369 C1368 1.524 . S
C1369 C1370 1.397 1_556 S
C1369 C1374 1.363 . S
C1370 H1347 0.950 . S
C1370 C1369 1.397 1_554 S
C1370 C1371 1.334 . S
C1371 H1348 0.950 . S
C1371 C1370 1.334 . S
C1371 C1372 1.287 1_554 S
C1372 C1371 1.287 1_556 S
C1372 C1373 1.524 . S
C1372 H1391 0.913 . S
C1373 H1349 0.950 . S
C1373 C1372 1.524 . S
C1373 C1374 1.415 . S
C1374 H1350 0.950 . S
C1374 C1369 1.363 . S
C1374 C1373 1.415 . S
C1375 H1351 0.951 . S
C1375 C1376 1.366 . S
C1375 C1377 1.388 . S
C1376 C1375 1.366 . S
C1376 C1380 1.385 . S
C1377 H1352 0.951 . S
C1377 C1375 1.388 . S
C1377 C1378 1.366 . S
C1378 C1377 1.366 . S
C1378 C1379 1.414 . S
C1378 C1381 1.499 . S
C1379 H1353 0.950 . S
C1379 C1378 1.414 . S
C1379 C1380 1.374 . S
C1380 H1354 0.950 . S
C1380 C1376 1.385 . S
C1380 C1379 1.374 . S
C1381 C1378 1.499 . S
C1381 C1382 1.373 . S
C1381 C1383 1.389 . S
C1382 H1355 0.950 . S
C1382 C1368 1.377 . S
C1382 C1381 1.373 . S
C1383 C1367 1.377 . S
C1383 C1381 1.389 . S
C1383 C1384 1.524 . S
C1384 C1383 1.524 . S
C1384 C1385 1.397 . S
C1384 C1389 1.363 . S
C1385 H1356 0.950 . S
C1385 C1384 1.397 . S
C1385 C1386 1.334 . S
C1386 H1357 0.950 . S
C1386 C1385 1.334 . S
C1386 C1387 1.287 . S
C1387 C1386 1.287 . S
C1387 C1388 1.524 . S
C1387 H1390 0.999 . S
C1388 H1358 0.950 . S
C1388 C1387 1.524 . S
C1388 C1389 1.415 . S
C1389 H1359 0.950 . S
C1389 C1384 1.363 . S
C1389 C1388 1.415 . S
H1390 C1387 0.999 . S
H1391 C1372 0.913 . S
H1392 C1410 0.951 . S
H1393 C1412 0.951 . S
H1394 C1414 0.950 . S
H1395 C1415 0.950 . S
H1396 C1417 0.950 . S
H1397 C1420 0.950 . S
H1398 C1421 0.950 . S
H1399 C1423 0.950 . S
H1400 C1424 0.950 . S
H1401 C1425 0.951 1_655 S
H1402 C1427 0.951 1_655 S
H1403 C1429 0.950 . S
H1404 C1430 0.950 . S
H1405 C1432 0.950 . S
H1406 C1435 0.950 . S
H1407 C1436 0.950 . S
H1408 C1438 0.950 . S
H1409 C1439 0.950 . S
C1410 H1392 0.951 . S
C1410 C1411 1.366 . S
C1410 C1412 1.388 . S
C1411 C1410 1.366 . S
C1411 C1415 1.385 . S
C1412 H1393 0.951 . S
C1412 C1410 1.388 . S
C1412 C1413 1.366 . S
C1413 C1412 1.366 . S
C1413 C1414 1.414 . S
C1413 C1416 1.499 . S
C1414 H1394 0.950 . S
C1414 C1413 1.414 . S
C1414 C1415 1.374 . S
C1415 H1395 0.950 . S
C1415 C1411 1.385 . S
C1415 C1414 1.374 . S
C1416 C1413 1.499 . S
C1416 C1417 1.373 . S
C1416 C1418 1.389 . S
C1417 H1396 0.950 . S
C1417 C1416 1.373 . S
C1417 C1433 1.377 . S
C1418 C1416 1.389 . S
C1418 C1419 1.524 . S
C1418 C1432 1.377 . S
C1419 C1418 1.524 . S
C1419 C1420 1.397 . S
C1419 C1424 1.363 . S
C1420 H1397 0.950 . S
C1420 C1419 1.397 . S
C1420 C1421 1.334 . S
C1421 H1398 0.950 . S
C1421 C1420 1.334 . S
C1421 C1422 1.287 . S
C1422 C1421 1.287 . S
C1422 C1423 1.524 . S
C1422 H1441 0.913 . S
C1423 H1399 0.950 . S
C1423 C1422 1.524 . S
C1423 C1424 1.415 . S
C1424 H1400 0.950 . S
C1424 C1419 1.363 . S
C1424 C1423 1.415 . S
C1425 H1401 0.951 1_455 S
C1425 C1426 1.366 . S
C1425 C1427 1.388 . S
C1426 C1425 1.366 . S
C1426 C1430 1.385 . S
C1427 H1402 0.951 1_455 S
C1427 C1425 1.388 . S
C1427 C1428 1.366 . S
C1428 C1427 1.366 . S
C1428 C1429 1.414 . S
C1428 C1431 1.499 . S
C1429 H1403 0.950 . S
C1429 C1428 1.414 . S
C1429 C1430 1.374 . S
C1430 H1404 0.950 . S
C1430 C1426 1.385 . S
C1430 C1429 1.374 . S
C1431 C1428 1.499 . S
C1431 C1432 1.373 . S
C1431 C1433 1.389 . S
C1432 H1405 0.950 . S
C1432 C1418 1.377 . S
C1432 C1431 1.373 . S
C1433 C1417 1.377 . S
C1433 C1431 1.389 . S
C1433 C1434 1.524 . S
C1434 C1433 1.524 . S
C1434 C1435 1.397 . S
C1434 C1439 1.363 1_455 S
C1435 H1406 0.950 . S
C1435 C1434 1.397 . S
C1435 C1436 1.334 . S
C1436 H1407 0.950 . S
C1436 C1435 1.334 . S
C1436 C1437 1.287 1_455 S
C1437 C1436 1.287 1_655 S
C1437 C1438 1.524 . S
C1437 H1440 0.999 . S
C1438 H1408 0.950 . S
C1438 C1437 1.524 . S
C1438 C1439 1.415 . S
C1439 H1409 0.950 . S
C1439 C1434 1.363 1_655 S
C1439 C1438 1.415 . S
H1440 C1437 0.999 . S
H1441 C1422 0.913 . S
H1442 C1460 0.951 . S
H1443 C1462 0.951 . S
H1444 C1464 0.950 . S
H1445 C1465 0.950 . S
H1446 C1467 0.950 . S
H1447 C1470 0.950 . S
H1448 C1471 0.950 . S
H1449 C1473 0.950 . S
H1450 C1474 0.950 . S
H1451 C1475 0.951 1_565 S
H1452 C1477 0.951 1_565 S
H1453 C1479 0.950 . S
H1454 C1480 0.950 . S
H1455 C1482 0.950 . S
H1456 C1485 0.950 . S
H1457 C1486 0.950 1_545 S
H1458 C1488 0.950 . S
H1459 C1489 0.950 . S
C1460 H1442 0.951 . S
C1460 C1461 1.366 . S
C1460 C1462 1.388 . S
C1461 C1460 1.366 . S
C1461 C1465 1.385 . S
C1462 H1443 0.951 . S
C1462 C1460 1.388 . S
C1462 C1463 1.366 . S
C1463 C1462 1.366 . S
C1463 C1464 1.414 . S
C1463 C1466 1.499 . S
C1464 H1444 0.950 . S
C1464 C1463 1.414 . S
C1464 C1465 1.374 . S
C1465 H1445 0.950 . S
C1465 C1461 1.385 . S
C1465 C1464 1.374 . S
C1466 C1463 1.499 . S
C1466 C1467 1.373 . S
C1466 C1468 1.389 . S
C1467 H1446 0.950 . S
C1467 C1466 1.373 . S
C1467 C1483 1.377 . S
C1468 C1466 1.389 . S
C1468 C1469 1.524 . S
C1468 C1482 1.377 . S
C1469 C1468 1.524 . S
C1469 C1470 1.397 . S
C1469 C1474 1.363 . S
C1470 H1447 0.950 . S
C1470 C1469 1.397 . S
C1470 C1471 1.334 . S
C1471 H1448 0.950 . S
C1471 C1470 1.334 . S
C1471 C1472 1.287 . S
C1472 C1471 1.287 . S
C1472 C1473 1.524 . S
C1472 H1491 0.913 . S
C1473 H1449 0.950 . S
C1473 C1472 1.524 . S
C1473 C1474 1.415 . S
C1474 H1450 0.950 . S
C1474 C1469 1.363 . S
C1474 C1473 1.415 . S
C1475 H1451 0.951 1_545 S
C1475 C1476 1.366 . S
C1475 C1477 1.388 . S
C1476 C1475 1.366 . S
C1476 C1480 1.385 . S
C1477 H1452 0.951 1_545 S
C1477 C1475 1.388 . S
C1477 C1478 1.366 . S
C1478 C1477 1.366 . S
C1478 C1479 1.414 . S
C1478 C1481 1.499 . S
C1479 H1453 0.950 . S
C1479 C1478 1.414 . S
C1479 C1480 1.374 . S
C1480 H1454 0.950 . S
C1480 C1476 1.385 . S
C1480 C1479 1.374 . S
C1481 C1478 1.499 . S
C1481 C1482 1.373 . S
C1481 C1483 1.389 . S
C1482 H1455 0.950 . S
C1482 C1468 1.377 . S
C1482 C1481 1.373 . S
C1483 C1467 1.377 . S
C1483 C1481 1.389 . S
C1483 C1484 1.524 . S
C1484 C1483 1.524 . S
C1484 C1485 1.397 . S
C1484 C1489 1.363 1_545 S
C1485 H1456 0.950 . S
C1485 C1484 1.397 . S
C1485 C1486 1.334 1_545 S
C1486 H1457 0.950 1_565 S
C1486 C1485 1.334 1_565 S
C1486 C1487 1.287 . S
C1487 C1486 1.287 . S
C1487 C1488 1.524 . S
C1487 H1490 0.999 . S
C1488 H1458 0.950 . S
C1488 C1487 1.524 . S
C1488 C1489 1.415 . S
C1489 H1459 0.950 . S
C1489 C1484 1.363 1_565 S
C1489 C1488 1.415 . S
H1490 C1487 0.999 . S
H1491 C1472 0.913 . S
H1492 C1510 0.951 . S
H1493 C1512 0.951 . S
H1494 C1514 0.950 . S
H1495 C1515 0.950 . S
H1496 C1517 0.950 . S
H1497 C1520 0.950 . S
H1498 C1521 0.950 . S
H1499 C1523 0.950 . S
H1500 C1524 0.950 . S
H1501 C1525 0.951 . S
H1502 C1527 0.951 . S
H1503 C1529 0.950 . S
H1504 C1530 0.950 . S
H1505 C1532 0.950 . S
H1506 C1535 0.950 . S
H1507 C1536 0.950 . S
H1508 C1538 0.950 . S
H1509 C1539 0.950 . S
C1510 H1492 0.951 . S
C1510 C1511 1.366 . S
C1510 C1512 1.388 . S
C1511 C1510 1.366 . S
C1511 C1515 1.385 . S
C1512 H1493 0.951 . S
C1512 C1510 1.388 . S
C1512 C1513 1.366 . S
C1513 C1512 1.366 . S
C1513 C1514 1.414 . S
C1513 C1516 1.499 . S
C1514 H1494 0.950 . S
C1514 C1513 1.414 . S
C1514 C1515 1.374 . S
C1515 H1495 0.950 . S
C1515 C1511 1.385 . S
C1515 C1514 1.374 . S
C1516 C1513 1.499 . S
C1516 C1517 1.373 . S
C1516 C1518 1.389 . S
C1517 H1496 0.950 . S
C1517 C1516 1.373 . S
C1517 C1533 1.377 . S
C1518 C1516 1.389 . S
C1518 C1519 1.524 . S
C1518 C1532 1.377 . S
C1519 C1518 1.524 . S
C1519 C1520 1.397 . S
C1519 C1524 1.363 . S
C1520 H1497 0.950 . S
C1520 C1519 1.397 . S
C1520 C1521 1.334 . S
C1521 H1498 0.950 . S
C1521 C1520 1.334 . S
C1521 C1522 1.287 . S
C1522 C1521 1.287 . S
C1522 C1523 1.524 . S
C1522 H1541 0.913 . S
C1523 H1499 0.950 . S
C1523 C1522 1.524 . S
C1523 C1524 1.415 . S
C1524 H1500 0.950 . S
C1524 C1519 1.363 . S
C1524 C1523 1.415 . S
C1525 H1501 0.951 . S
C1525 C1526 1.366 . S
C1525 C1527 1.388 . S
C1526 C1525 1.366 . S
C1526 C1530 1.385 . S
C1527 H1502 0.951 . S
C1527 C1525 1.388 . S
C1527 C1528 1.366 . S
C1528 C1527 1.366 . S
C1528 C1529 1.414 . S
C1528 C1531 1.499 . S
C1529 H1503 0.950 . S
C1529 C1528 1.414 . S
C1529 C1530 1.374 . S
C1530 H1504 0.950 . S
C1530 C1526 1.385 . S
C1530 C1529 1.374 . S
C1531 C1528 1.499 . S
C1531 C1532 1.373 . S
C1531 C1533 1.389 . S
C1532 H1505 0.950 . S
C1532 C1518 1.377 . S
C1532 C1531 1.373 . S
C1533 C1517 1.377 . S
C1533 C1531 1.389 . S
C1533 C1534 1.524 . S
C1534 C1533 1.524 . S
C1534 C1535 1.397 . S
C1534 C1539 1.363 . S
C1535 H1506 0.950 . S
C1535 C1534 1.397 . S
C1535 C1536 1.334 . S
C1536 H1507 0.950 . S
C1536 C1535 1.334 . S
C1536 C1537 1.287 . S
C1537 C1536 1.287 . S
C1537 C1538 1.524 . S
C1537 H1540 0.999 . S
C1538 H1508 0.950 . S
C1538 C1537 1.524 . S
C1538 C1539 1.415 . S
C1539 H1509 0.950 . S
C1539 C1534 1.363 . S
C1539 C1538 1.415 . S
H1540 C1537 0.999 . S
H1541 C1522 0.913 . S
H1542 C1560 0.951 . S
H1543 C1562 0.951 . S
H1544 C1564 0.950 . S
H1545 C1565 0.950 . S
H1546 C1567 0.950 . S
H1547 C1570 0.950 . S
H1548 C1571 0.950 . S
H1549 C1573 0.950 . S
H1550 C1574 0.950 . S
H1551 C1575 0.951 . S
H1552 C1577 0.951 . S
H1553 C1579 0.950 . S
H1554 C1580 0.950 . S
H1555 C1582 0.950 . S
H1556 C1585 0.950 . S
H1557 C1586 0.950 . S
H1558 C1588 0.950 . S
H1559 C1589 0.950 . S
C1560 H1542 0.951 . S
C1560 C1561 1.366 . S
C1560 C1562 1.388 . S
C1561 C1560 1.366 . S
C1561 C1565 1.385 . S
C1562 H1543 0.951 . S
C1562 C1560 1.388 . S
C1562 C1563 1.366 . S
C1563 C1562 1.366 . S
C1563 C1564 1.414 . S
C1563 C1566 1.499 . S
C1564 H1544 0.950 . S
C1564 C1563 1.414 . S
C1564 C1565 1.374 . S
C1565 H1545 0.950 . S
C1565 C1561 1.385 . S
C1565 C1564 1.374 . S
C1566 C1563 1.499 . S
C1566 C1567 1.373 . S
C1566 C1568 1.389 . S
C1567 H1546 0.950 . S
C1567 C1566 1.373 . S
C1567 C1583 1.377 . S
C1568 C1566 1.389 . S
C1568 C1569 1.524 . S
C1568 C1582 1.377 . S
C1569 C1568 1.524 . S
C1569 C1570 1.397 . S
C1569 C1574 1.363 . S
C1570 H1547 0.950 . S
C1570 C1569 1.397 . S
C1570 C1571 1.334 . S
C1571 H1548 0.950 . S
C1571 C1570 1.334 . S
C1571 C1572 1.287 . S
C1572 C1571 1.287 . S
C1572 C1573 1.524 . S
C1572 H1591 0.913 . S
C1573 H1549 0.950 . S
C1573 C1572 1.524 . S
C1573 C1574 1.415 . S
C1574 H1550 0.950 . S
C1574 C1569 1.363 . S
C1574 C1573 1.415 . S
C1575 H1551 0.951 . S
C1575 C1576 1.366 . S
C1575 C1577 1.388 . S
C1576 C1575 1.366 . S
C1576 C1580 1.385 . S
C1577 H1552 0.951 . S
C1577 C1575 1.388 . S
C1577 C1578 1.366 . S
C1578 C1577 1.366 . S
C1578 C1579 1.414 . S
C1578 C1581 1.499 . S
C1579 H1553 0.950 . S
C1579 C1578 1.414 . S
C1579 C1580 1.374 . S
C1580 H1554 0.950 . S
C1580 C1576 1.385 . S
C1580 C1579 1.374 . S
C1581 C1578 1.499 . S
C1581 C1582 1.373 . S
C1581 C1583 1.389 . S
C1582 H1555 0.950 . S
C1582 C1568 1.377 . S
C1582 C1581 1.373 . S
C1583 C1567 1.377 . S
C1583 C1581 1.389 . S
C1583 C1584 1.524 . S
C1584 C1583 1.524 . S
C1584 C1585 1.397 . S
C1584 C1589 1.363 . S
C1585 H1556 0.950 . S
C1585 C1584 1.397 . S
C1585 C1586 1.334 . S
C1586 H1557 0.950 . S
C1586 C1585 1.334 . S
C1586 C1587 1.287 . S
C1587 C1586 1.287 . S
C1587 C1588 1.524 . S
C1587 H1590 0.999 . S
C1588 H1558 0.950 . S
C1588 C1587 1.524 . S
C1588 C1589 1.415 . S
C1589 H1559 0.950 . S
C1589 C1584 1.363 . S
C1589 C1588 1.415 . S
H1590 C1587 0.999 . S
H1591 C1572 0.913 . S
H1592 C1610 0.951 . S
H1593 C1612 0.951 . S
H1594 C1614 0.950 . S
H1595 C1615 0.950 . S
H1596 C1617 0.950 . S
H1597 C1620 0.950 1_655 S
H1598 C1621 0.950 . S
H1599 C1623 0.950 . S
H1600 C1624 0.950 . S
H1601 C1625 0.951 . S
H1602 C1627 0.951 . S
H1603 C1629 0.950 . S
H1604 C1630 0.950 . S
H1605 C1632 0.950 1_455 S
H1606 C1635 0.950 . S
H1607 C1636 0.950 . S
H1608 C1638 0.950 . S
H1609 C1639 0.950 . S
C1610 H1592 0.951 . S
C1610 C1611 1.366 . S
C1610 C1612 1.388 . S
C1611 C1610 1.366 . S
C1611 C1615 1.385 . S
C1612 H1593 0.951 . S
C1612 C1610 1.388 . S
C1612 C1613 1.366 . S
C1613 C1612 1.366 . S
C1613 C1614 1.414 . S
C1613 C1616 1.499 . S
C1614 H1594 0.950 . S
C1614 C1613 1.414 . S
C1614 C1615 1.374 . S
C1615 H1595 0.950 . S
C1615 C1611 1.385 . S
C1615 C1614 1.374 . S
C1616 C1613 1.499 . S
C1616 C1617 1.373 . S
C1616 C1618 1.389 . S
C1617 H1596 0.950 . S
C1617 C1616 1.373 . S
C1617 C1633 1.377 . S
C1618 C1616 1.389 . S
C1618 C1619 1.524 1_655 S
C1618 C1632 1.377 . S
C1619 C1618 1.524 1_455 S
C1619 C1620 1.397 . S
C1619 C1624 1.363 . S
C1620 H1597 0.950 1_455 S
C1620 C1619 1.397 . S
C1620 C1621 1.334 . S
C1621 H1598 0.950 . S
C1621 C1620 1.334 . S
C1621 C1622 1.287 . S
C1622 C1621 1.287 . S
C1622 C1623 1.524 . S
C1622 H1641 0.913 . S
C1623 H1599 0.950 . S
C1623 C1622 1.524 . S
C1623 C1624 1.415 . S
C1624 H1600 0.950 . S
C1624 C1619 1.363 . S
C1624 C1623 1.415 . S
C1625 H1601 0.951 . S
C1625 C1626 1.366 . S
C1625 C1627 1.388 . S
C1626 C1625 1.366 . S
C1626 C1630 1.385 1_655 S
C1627 H1602 0.951 . S
C1627 C1625 1.388 . S
C1627 C1628 1.366 . S
C1628 C1627 1.366 . S
C1628 C1629 1.414 1_655 S
C1628 C1631 1.499 . S
C1629 H1603 0.950 . S
C1629 C1628 1.414 1_455 S
C1629 C1630 1.374 . S
C1630 H1604 0.950 . S
C1630 C1626 1.385 1_455 S
C1630 C1629 1.374 . S
C1631 C1628 1.499 . S
C1631 C1632 1.373 . S
C1631 C1633 1.389 . S
C1632 H1605 0.950 1_655 S
C1632 C1618 1.377 . S
C1632 C1631 1.373 . S
C1633 C1617 1.377 . S
C1633 C1631 1.389 . S
C1633 C1634 1.524 . S
C1634 C1633 1.524 . S
C1634 C1635 1.397 . S
C1634 C1639 1.363 . S
C1635 H1606 0.950 . S
C1635 C1634 1.397 . S
C1635 C1636 1.334 . S
C1636 H1607 0.950 . S
C1636 C1635 1.334 . S
C1636 C1637 1.287 . S
C1637 C1636 1.287 . S
C1637 C1638 1.524 . S
C1637 H1640 0.999 . S
C1638 H1608 0.950 . S
C1638 C1637 1.524 . S
C1638 C1639 1.415 . S
C1639 H1609 0.950 . S
C1639 C1634 1.363 . S
C1639 C1638 1.415 . S
H1640 C1637 0.999 . S
H1641 C1622 0.913 . S
H1642 C1660 0.951 . S
H1643 C1662 0.951 1_545 S
H1644 C1664 0.950 . S
H1645 C1665 0.950 . S
H1646 C1667 0.950 . S
H1647 C1670 0.950 . S
H1648 C1671 0.950 . S
H1649 C1673 0.950 . S
H1650 C1674 0.950 . S
H1651 C1675 0.951 . S
H1652 C1677 0.951 . S
H1653 C1679 0.950 . S
H1654 C1680 0.950 . S
H1655 C1682 0.950 . S
H1656 C1685 0.950 . S
H1657 C1686 0.950 . S
H1658 C1688 0.950 . S
H1659 C1689 0.950 . S
C1660 H1642 0.951 . S
C1660 C1661 1.366 . S
C1660 C1662 1.388 . S
C1661 C1660 1.366 . S
C1661 C1665 1.385 . S
C1662 H1643 0.951 1_565 S
C1662 C1660 1.388 . S
C1662 C1663 1.366 . S
C1663 C1662 1.366 . S
C1663 C1664 1.414 . S
C1663 C1666 1.499 . S
C1664 H1644 0.950 . S
C1664 C1663 1.414 . S
C1664 C1665 1.374 . S
C1665 H1645 0.950 . S
C1665 C1661 1.385 . S
C1665 C1664 1.374 . S
C1666 C1663 1.499 . S
C1666 C1667 1.373 . S
C1666 C1668 1.389 . S
C1667 H1646 0.950 . S
C1667 C1666 1.373 . S
C1667 C1683 1.377 . S
C1668 C1666 1.389 . S
C1668 C1669 1.524 . S
C1668 C1682 1.377 . S
C1669 C1668 1.524 . S
C1669 C1670 1.397 . S
C1669 C1674 1.363 1_565 S
C1670 H1647 0.950 . S
C1670 C1669 1.397 . S
C1670 C1671 1.334 . S
C1671 H1648 0.950 . S
C1671 C1670 1.334 . S
C1671 C1672 1.323 . S
C1672 C1671 1.323 . S
C1672 C1673 1.493 1_565 S
C1672 H1691 0.906 1_565 S
C1673 H1649 0.950 . S
C1673 C1672 1.493 1_545 S
C1673 C1674 1.415 . S
C1674 H1650 0.950 . S
C1674 C1669 1.363 1_545 S
C1674 C1673 1.415 . S
C1675 H1651 0.951 . S
C1675 C1676 1.366 . S
C1675 C1677 1.388 . S
C1676 C1675 1.366 . S
C1676 C1680 1.385 1_565 S
C1677 H1652 0.951 . S
C1677 C1675 1.388 . S
C1677 C1678 1.366 . S
C1678 C1677 1.366 . S
C1678 C1679 1.414 1_565 S
C1678 C1681 1.499 . S
C1679 H1653 0.950 . S
C1679 C1678 1.414 1_545 S
C1679 C1680 1.374 . S
C1680 H1654 0.950 . S
C1680 C1676 1.385 1_545 S
C1680 C1679 1.374 . S
C1681 C1678 1.499 . S
C1681 C1682 1.373 . S
C1681 C1683 1.389 . S
C1682 H1655 0.950 . S
C1682 C1668 1.377 . S
C1682 C1681 1.373 . S
C1683 C1667 1.377 . S
C1683 C1681 1.389 . S
C1683 C1684 1.524 . S
C1684 C1683 1.524 . S
C1684 C1685 1.397 . S
C1684 C1689 1.363 . S
C1685 H1656 0.950 . S
C1685 C1684 1.397 . S
C1685 C1686 1.334 . S
C1686 H1657 0.950 . S
C1686 C1685 1.334 . S
C1686 C1687 1.287 . S
C1687 C1686 1.287 . S
C1687 C1688 1.524 . S
C1687 H1690 0.999 . S
C1688 H1658 0.950 . S
C1688 C1687 1.524 . S
C1688 C1689 1.415 . S
C1689 H1659 0.950 . S
C1689 C1684 1.363 . S
C1689 C1688 1.415 . S
H1690 C1687 0.999 . S
H1691 C1672 0.906 1_545 S
H1692 C1710 0.951 . S
H1693 C1712 0.951 . S
H1694 C1714 0.950 . S
H1695 C1715 0.950 . S
H1696 C1717 0.950 . S
H1697 C1720 0.950 . S
H1698 C1721 0.950 . S
H1699 C1723 0.950 . S
H1700 C1724 0.950 . S
H1701 C1725 0.951 . S
H1702 C1727 0.951 . S
H1703 C1729 0.950 . S
H1704 C1730 0.950 . S
H1705 C1732 0.950 . S
H1706 C1735 0.950 . S
H1707 C1736 0.950 . S
H1708 C1738 0.950 . S
H1709 C1739 0.950 . S
C1710 H1692 0.951 . S
C1710 C1711 1.366 . S
C1710 C1712 1.388 . S
C1711 C1710 1.366 . S
C1711 C1715 1.385 . S
C1712 H1693 0.951 . S
C1712 C1710 1.388 . S
C1712 C1713 1.366 . S
C1713 C1712 1.366 . S
C1713 C1714 1.414 . S
C1713 C1716 1.499 . S
C1714 H1694 0.950 . S
C1714 C1713 1.414 . S
C1714 C1715 1.374 . S
C1715 H1695 0.950 . S
C1715 C1711 1.385 . S
C1715 C1714 1.374 . S
C1716 C1713 1.499 . S
C1716 C1717 1.373 . S
C1716 C1718 1.389 . S
C1717 H1696 0.950 . S
C1717 C1716 1.373 . S
C1717 C1733 1.377 . S
C1718 C1716 1.389 . S
C1718 C1719 1.524 . S
C1718 C1732 1.377 . S
C1719 C1718 1.524 . S
C1719 C1720 1.397 . S
C1719 C1724 1.363 . S
C1720 H1697 0.950 . S
C1720 C1719 1.397 . S
C1720 C1721 1.334 . S
C1721 H1698 0.950 . S
C1721 C1720 1.334 . S
C1721 C1722 1.287 . S
C1722 C1721 1.287 . S
C1722 C1723 1.524 . S
C1722 H1741 0.913 . S
C1723 H1699 0.950 . S
C1723 C1722 1.524 . S
C1723 C1724 1.415 . S
C1724 H1700 0.950 . S
C1724 C1719 1.363 . S
C1724 C1723 1.415 . S
C1725 H1701 0.951 . S
C1725 C1726 1.366 . S
C1725 C1727 1.388 . S
C1726 C1725 1.366 . S
C1726 C1730 1.385 . S
C1727 H1702 0.951 . S
C1727 C1725 1.388 . S
C1727 C1728 1.366 . S
C1728 C1727 1.366 . S
C1728 C1729 1.414 . S
C1728 C1731 1.499 . S
C1729 H1703 0.950 . S
C1729 C1728 1.414 . S
C1729 C1730 1.374 . S
C1730 H1704 0.950 . S
C1730 C1726 1.385 . S
C1730 C1729 1.374 . S
C1731 C1728 1.499 . S
C1731 C1732 1.373 . S
C1731 C1733 1.389 . S
C1732 H1705 0.950 . S
C1732 C1718 1.377 . S
C1732 C1731 1.373 . S
C1733 C1717 1.377 . S
C1733 C1731 1.389 . S
C1733 C1734 1.524 . S
C1734 C1733 1.524 . S
C1734 C1735 1.397 . S
C1734 C1739 1.363 . S
C1735 H1706 0.950 . S
C1735 C1734 1.397 . S
C1735 C1736 1.334 . S
C1736 H1707 0.950 . S
C1736 C1735 1.334 . S
C1736 C1737 1.287 . S
C1737 C1736 1.287 . S
C1737 C1738 1.524 . S
C1737 H1740 0.999 . S
C1738 H1708 0.950 . S
C1738 C1737 1.524 . S
C1738 C1739 1.415 . S
C1739 H1709 0.950 . S
C1739 C1734 1.363 . S
C1739 C1738 1.415 . S
H1740 C1737 0.999 . S
H1741 C1722 0.913 . S
H1742 C1760 0.951 . S
H1743 C1762 0.951 . S
H1744 C1764 0.950 . S
H1745 C1765 0.950 . S
H1746 C1767 0.950 . S
H1747 C1770 0.950 . S
H1748 C1771 0.950 . S
H1749 C1773 0.950 . S
H1750 C1774 0.950 . S
H1751 C1775 0.951 . S
H1752 C1777 0.951 . S
H1753 C1779 0.950 . S
H1754 C1780 0.950 . S
H1755 C1782 0.950 . S
H1756 C1785 0.950 . S
H1757 C1786 0.950 . S
H1758 C1788 0.950 . S
H1759 C1789 0.950 . S
C1760 H1742 0.951 . S
C1760 C1761 1.366 . S
C1760 C1762 1.388 . S
C1761 C1760 1.366 . S
C1761 C1765 1.385 . S
C1762 H1743 0.951 . S
C1762 C1760 1.388 . S
C1762 C1763 1.366 . S
C1763 C1762 1.366 . S
C1763 C1764 1.414 . S
C1763 C1766 1.499 . S
C1764 H1744 0.950 . S
C1764 C1763 1.414 . S
C1764 C1765 1.374 . S
C1765 H1745 0.950 . S
C1765 C1761 1.385 . S
C1765 C1764 1.374 . S
C1766 C1763 1.499 . S
C1766 C1767 1.373 . S
C1766 C1768 1.389 . S
C1767 H1746 0.950 . S
C1767 C1766 1.373 . S
C1767 C1783 1.377 . S
C1768 C1766 1.389 . S
C1768 C1769 1.524 . S
C1768 C1782 1.377 . S
C1769 C1768 1.524 . S
C1769 C1770 1.397 . S
C1769 C1774 1.363 . S
C1770 H1747 0.950 . S
C1770 C1769 1.397 . S
C1770 C1771 1.334 . S
C1771 H1748 0.950 . S
C1771 C1770 1.334 . S
C1771 C1772 1.287 . S
C1772 C1771 1.287 . S
C1772 C1773 1.524 . S
C1772 H1791 0.913 . S
C1773 H1749 0.950 . S
C1773 C1772 1.524 . S
C1773 C1774 1.415 . S
C1774 H1750 0.950 . S
C1774 C1769 1.363 . S
C1774 C1773 1.415 . S
C1775 H1751 0.951 . S
C1775 C1776 1.366 . S
C1775 C1777 1.388 . S
C1776 C1775 1.366 . S
C1776 C1780 1.385 . S
C1777 H1752 0.951 . S
C1777 C1775 1.388 . S
C1777 C1778 1.366 . S
C1778 C1777 1.366 . S
C1778 C1779 1.414 . S
C1778 C1781 1.499 . S
C1779 H1753 0.950 . S
C1779 C1778 1.414 . S
C1779 C1780 1.374 . S
C1780 H1754 0.950 . S
C1780 C1776 1.385 . S
C1780 C1779 1.374 . S
C1781 C1778 1.499 . S
C1781 C1782 1.373 . S
C1781 C1783 1.389 . S
C1782 H1755 0.950 . S
C1782 C1768 1.377 . S
C1782 C1781 1.373 . S
C1783 C1767 1.377 . S
C1783 C1781 1.389 . S
C1783 C1784 1.524 . S
C1784 C1783 1.524 . S
C1784 C1785 1.397 . S
C1784 C1789 1.363 . S
C1785 H1756 0.950 . S
C1785 C1784 1.397 . S
C1785 C1786 1.334 . S
C1786 H1757 0.950 . S
C1786 C1785 1.334 . S
C1786 C1787 1.287 . S
C1787 C1786 1.287 . S
C1787 C1788 1.524 . S
C1787 H1790 0.999 . S
C1788 H1758 0.950 . S
C1788 C1787 1.524 . S
C1788 C1789 1.415 . S
C1789 H1759 0.950 . S
C1789 C1784 1.363 . S
C1789 C1788 1.415 . S
H1790 C1787 0.999 . S
H1791 C1772 0.913 . S
C611 C215 1.974 . S
C626 C319 2.043 . S
C676 C396 2.058 . S
C661 C247 1.982 . S
C726 C487 2.035 . S
C711 C151 1.964 . S
C776 C571 2.023 . S
C761 C183 1.954 . S
C826 C330 2.043 1_565 S
C811 C87 1.909 . S
C861 C119 1.916 . S
C876 C407 2.058 . S
C911 C23 1.902 . S
C926 C498 2.035 . S
C961 C55 1.890 . S
C976 C582 2.023 1_655 S
C1026 C314 0.449 1_455 S
C1011 C189 0.286 . S
C1076 C409 0.532 . S
C1061 C221 0.254 . S
C1126 C482 0.449 . S
C1111 C253 0.290 . S
C1161 C157 0.269 . S
C1176 C566 0.442 . S
C1211 C61 0.483 . S
C1226 C325 0.451 . S
C1276 C398 0.535 . S
C1261 C93 0.479 . S
C1326 C493 0.448 . S
C1311 C125 0.489 . S
C1361 C29 0.483 . S
C1376 C577 0.441 . S
C1411 C177 2.197 . S
C1426 C323 2.361 . S
C1461 C209 2.195 . S
C1476 C414 2.367 . S
C1526 C491 2.379 . S
C1511 C241 2.215 . S
C1576 C575 2.384 . S
C1561 C145 2.219 . S
C1611 C49 2.145 . S
C1626 C312 2.361 . S
C1676 C403 2.367 . S
C1661 C81 2.140 . S
C1726 C480 2.380 . S
C1711 C113 2.161 . S
C1761 C17 2.168 . S
C1776 C564 2.384 . S
