# Generated by pormake.
# Topology cml, (3,6)-cn, num edge types: 1
# Building blocks:
#     Node 0, Type 0, BuildingBlock: PAMTOO_clean_linker_0, # of connection points: 3
#     Node 1, Type 0, BuildingBlock: PAMTOO_clean_linker_0, # of connection points: 3
#     Node 2, Type 0, BuildingBlock: PAMTOO_clean_linker_0, # of connection points: 3
#     Node 3, Type 0, BuildingBlock: PAMTOO_clean_linker_0, # of connection points: 3
#     Node 4, Type 0, BuildingBlock: PAMTOO_clean_linker_0, # of connection points: 3
#     Node 5, Type 0, BuildingBlock: PAMTOO_clean_linker_0, # of connection points: 3
#     Node 6, Type 0, BuildingBlock: PAMTOO_clean_linker_0, # of connection points: 3
#     Node 7, Type 0, BuildingBlock: PAMTOO_clean_linker_0, # of connection points: 3
#     Node 8, Type 1, BuildingBlock: IZENUY_clean_sbu_0, # of connection points: 6
#     Node 9, Type 1, BuildingBlock: IZENUY_clean_sbu_0, # of connection points: 6
#     Node 10, Type 1, BuildingBlock: IZENUY_clean_sbu_0, # of connection points: 6
#     Node 11, Type 1, BuildingBlock: IZENUY_clean_sbu_0, # of connection points: 6
#     Edge 12, Type (0, 1), BuildingBlock: AJUNOK_clean_linker_0, # of connection points: 2
#     Edge 13, Type (0, 1), BuildingBlock: AJUNOK_clean_linker_0, # of connection points: 2
#     Edge 14, Type (0, 1), BuildingBlock: AJUNOK_clean_linker_0, # of connection points: 2
#     Edge 15, Type (0, 1), BuildingBlock: AJUNOK_clean_linker_0, # of connection points: 2
#     Edge 16, Type (0, 1), BuildingBlock: AJUNOK_clean_linker_0, # of connection points: 2
#     Edge 17, Type (0, 1), BuildingBlock: AJUNOK_clean_linker_0, # of connection points: 2
#     Edge 18, Type (0, 1), BuildingBlock: AJUNOK_clean_linker_0, # of connection points: 2
#     Edge 19, Type (0, 1), BuildingBlock: AJUNOK_clean_linker_0, # of connection points: 2
#     Edge 20, Type (0, 1), BuildingBlock: AJUNOK_clean_linker_0, # of connection points: 2
#     Edge 21, Type (0, 1), BuildingBlock: AJUNOK_clean_linker_0, # of connection points: 2
#     Edge 22, Type (0, 1), BuildingBlock: AJUNOK_clean_linker_0, # of connection points: 2
#     Edge 23, Type (0, 1), BuildingBlock: AJUNOK_clean_linker_0, # of connection points: 2
#     Edge 24, Type (0, 1), BuildingBlock: AJUNOK_clean_linker_0, # of connection points: 2
#     Edge 25, Type (0, 1), BuildingBlock: AJUNOK_clean_linker_0, # of connection points: 2
#     Edge 26, Type (0, 1), BuildingBlock: AJUNOK_clean_linker_0, # of connection points: 2
#     Edge 27, Type (0, 1), BuildingBlock: AJUNOK_clean_linker_0, # of connection points: 2
#     Edge 28, Type (0, 1), BuildingBlock: AJUNOK_clean_linker_0, # of connection points: 2
#     Edge 29, Type (0, 1), BuildingBlock: AJUNOK_clean_linker_0, # of connection points: 2
#     Edge 30, Type (0, 1), BuildingBlock: AJUNOK_clean_linker_0, # of connection points: 2
#     Edge 31, Type (0, 1), BuildingBlock: AJUNOK_clean_linker_0, # of connection points: 2
#     Edge 32, Type (0, 1), BuildingBlock: AJUNOK_clean_linker_0, # of connection points: 2
#     Edge 33, Type (0, 1), BuildingBlock: AJUNOK_clean_linker_0, # of connection points: 2
#     Edge 34, Type (0, 1), BuildingBlock: AJUNOK_clean_linker_0, # of connection points: 2
#     Edge 35, Type (0, 1), BuildingBlock: AJUNOK_clean_linker_0, # of connection points: 2
# Relax obj value: 0.004
# Max RMSD: 0.065
# Mean RMSD: 0.051
data_MOF--net-cml--node1-IZENUY_clean_sbu_0--node2-PAMTOO_clean_linker_0--edge1-AJUNOK_clean_linker_0
_symmetry_space_group_name_H-M    P1
_symmetry_Int_Tables_number       1
_symmetry_cell_setting            triclinic
loop_
_symmetry_equiv_pos_as_xyz
'x, y, z'
_cell_length_a     27.076875
_cell_length_b     30.212393
_cell_length_c     26.251948
_cell_angle_alpha  89.892727
_cell_angle_beta   89.014979
_cell_angle_gamma 89.82118
loop_
_atom_site_label
_atom_site_type_symbol
_atom_site_fract_x
_atom_site_fract_y
_atom_site_fract_z
_atom_type_partial_charge
H0 H 0.3883 0.45814 0.06552 0.0
H1 H 0.30026 0.42318 0.93665 0.0
H2 H 0.2832 0.35221 0.07807 0.0
H3 H 0.28191 0.29844 0.98573 0.0
C4 C 0.26152 0.32109 0.95997 0.0
O5 O 0.25108 0.36042 0.98463 0.0
H6 H 0.2858 0.32765 0.92617 0.0
C7 C 0.36005 0.43785 0.04848 0.0
C8 C 0.33729 0.40468 0.07781 0.0
C9 C 0.34801 0.44431 0.99721 0.0
C10 C 0.31045 0.41849 0.97603 0.0
C11 C 0.28694 0.38544 1.00528 0.0
C12 C 0.30082 0.37824 0.05594 0.0
H13 H 0.64369 0.57545 0.55005 0.0
H14 H 0.73799 0.68897 0.56355 0.0
H15 H 0.74254 0.61135 0.42669 0.0
H16 H 0.84015 0.64185 0.46665 0.0
C17 C 0.82781 0.67434 0.48229 0.0
O18 O 0.77836 0.68066 0.47318 0.0
H19 H 0.83423 0.67379 0.52408 0.0
C20 C 0.67256 0.59659 0.53452 0.0
C21 C 0.69195 0.58822 0.48552 0.0
C22 C 0.68872 0.63275 0.56307 0.0
C23 C 0.72451 0.66111 0.54194 0.0
C24 C 0.74377 0.65328 0.49293 0.0
C25 C 0.72736 0.61709 0.46458 0.0
H26 H 0.64172 0.46046 0.05704 0.0
H27 H 0.73815 0.34769 0.07048 0.0
H28 H 0.75394 0.43554 0.94241 0.0
H29 H 0.7601 0.34092 0.91775 0.0
C30 C 0.77686 0.32823 0.95335 0.0
O31 O 0.78702 0.36309 0.98538 0.0
H32 H 0.74951 0.30571 0.972 0.0
C33 C 0.67249 0.44082 0.04263 0.0
C34 C 0.69593 0.45294 0.99664 0.0
C35 C 0.68696 0.40271 0.06929 0.0
C36 C 0.72676 0.37737 0.05057 0.0
C37 C 0.7506 0.38913 1.0047 0.0
C38 C 0.73541 0.42695 0.97796 0.0
H39 H 0.38348 0.58063 0.56844 0.0
H40 H 0.29023 0.61335 0.44249 0.0
H41 H 0.288 0.69468 0.57638 0.0
H42 H 0.18913 0.67214 0.52402 0.0
C43 C 0.20319 0.67618 0.48419 0.0
O44 O 0.25323 0.68463 0.48413 0.0
H45 H 0.19625 0.64455 0.46388 0.0
C46 C 0.3551 0.60117 0.55172 0.0
C47 C 0.33656 0.63772 0.57916 0.0
C48 C 0.33918 0.59194 0.50223 0.0
C49 C 0.30389 0.62003 0.48023 0.0
C50 C 0.28568 0.65704 0.50678 0.0
C51 C 0.3021 0.66594 0.55615 0.0
H52 H 0.89251 0.95542 0.05492 0.0
H53 H 0.79226 0.92526 0.93436 0.0
H54 H 0.7929 0.84534 0.06998 0.0
H55 H 0.7865 0.79615 0.97097 0.0
C56 C 0.76338 0.82027 0.94982 0.0
O57 O 0.75308 0.85653 0.98016 0.0
H58 H 0.7848 0.831 0.91541 0.0
C59 C 0.86292 0.93551 0.0398 0.0
C60 C 0.84414 0.90014 0.06894 0.0
C61 C 0.84485 0.94501 0.99115 0.0
C62 C 0.80747 0.91816 0.9714 0.0
C63 C 0.7892 0.882 0.99955 0.0
C64 C 0.80762 0.87295 0.04821 0.0
H65 H 0.15409 0.06896 0.56576 0.0
H66 H 0.25414 0.1791 0.57267 0.0
H67 H 0.24975 0.09943 0.43779 0.0
H68 H 0.34838 0.13124 0.45839 0.0
C69 C 0.33908 0.16112 0.48138 0.0
O70 O 0.28901 0.16887 0.47996 0.0
H71 H 0.35069 0.15454 0.52118 0.0
C72 C 0.18366 0.08842 0.54872 0.0
C73 C 0.19978 0.07925 0.49877 0.0
C74 C 0.20284 0.12435 0.57568 0.0
C75 C 0.23923 0.15097 0.55258 0.0
C76 C 0.25596 0.1418 0.50297 0.0
C77 C 0.23658 0.10593 0.47626 0.0
H78 H 0.16021 0.97315 0.06688 0.0
H79 H 0.26063 0.86338 0.08077 0.0
H80 H 0.25926 0.93962 0.94266 0.0
H81 H 0.26184 0.84086 0.93012 0.0
C82 C 0.28351 0.83239 0.96445 0.0
O83 O 0.29767 0.8707 0.98874 0.0
H84 H 0.25927 0.81244 0.99031 0.0
C85 C 0.19043 0.95338 0.05147 0.0
C86 C 0.20807 0.96165 1.00181 0.0
C87 C 0.20873 0.91791 0.08014 0.0
C88 C 0.24619 0.89104 0.05924 0.0
C89 C 0.26398 0.89868 0.00961 0.0
C90 C 0.2453 0.93414 0.98107 0.0
H91 H 0.89844 0.08639 0.55097 0.0
H92 H 0.79088 0.11866 0.43781 0.0
H93 H 0.80675 0.20214 0.56881 0.0
H94 H 0.70239 0.18308 0.53586 0.0
C95 C 0.70946 0.18274 0.49397 0.0
O96 O 0.75888 0.19018 0.48375 0.0
H97 H 0.69897 0.14942 0.47977 0.0
C98 C 0.86941 0.10784 0.53712 0.0
C99 C 0.85592 0.14559 0.56536 0.0
C100 C 0.84673 0.09782 0.49084 0.0
C101 C 0.8092 0.12585 0.47319 0.0
C102 C 0.79455 0.16312 0.50155 0.0
C103 C 0.81777 0.17289 0.54761 0.0
Fe104 Fe 0.01852 0.83225 0.31207 0.0
Fe105 Fe 1.01262 0.88095 0.41498 0.0
O106 O 0.01528 0.8823 0.34746 0.0
Fe107 Fe 0.01538 0.93395 0.31544 0.0
O108 O 0.98192 0.91408 0.26016 0.0
O109 O 0.96213 0.84521 0.27802 0.0
O110 O 0.98028 0.80082 0.35747 0.0
C111 C 0.95053 0.81281 0.39258 0.0
C112 C 0.08443 0.88906 0.25824 0.0
O113 O 0.95574 0.8494 0.41503 0.0
C114 C 0.07692 0.94956 0.39929 0.0
O115 O 0.07515 0.81509 0.34319 0.0
O116 O 0.04991 0.83065 0.42108 0.0
O117 O 0.07475 0.92231 0.28561 0.0
O118 O 0.05732 0.85503 0.26045 0.0
C119 C 0.94791 0.95223 0.39064 0.0
O120 O 0.0697 0.91218 0.41958 0.0
O121 O 0.04884 0.96339 0.36474 0.0
C122 C 0.08013 0.81189 0.39082 0.0
O123 O 0.97471 0.9312 0.42158 0.0
O124 O 0.95608 0.94963 0.34331 0.0
C125 C 0.95475 0.88067 0.25374 0.0
Fe126 Fe 0.01822 0.15852 0.91772 0.0
Fe127 Fe 0.02159 0.10671 0.81749 0.0
O128 O 0.02003 0.15786 0.85025 0.0
Fe129 Fe 0.02112 0.20823 0.81547 0.0
O130 O 0.0778 0.22524 0.84537 0.0
O131 O 0.05492 0.20942 0.92383 0.0
O132 O 0.07609 0.12789 0.92138 0.0
C133 C 0.08383 0.09065 0.90093 0.0
C134 C 0.95301 0.22541 0.89641 0.0
O135 O 0.05569 0.07687 0.86651 0.0
C136 C 0.9605 0.16032 0.75516 0.0
O137 O 0.98127 0.1077 0.92378 0.0
O138 O 0.96267 0.08995 0.84518 0.0
O139 O 0.98254 0.23886 0.8618 0.0
O140 O 0.96039 0.18895 0.9186 0.0
C141 C 0.08851 0.15334 0.76035 0.0
O142 O 0.98821 0.12711 0.7619 0.0
O143 O 0.96463 0.19453 0.78223 0.0
C144 C 0.95464 0.0869 0.89257 0.0
O145 O 0.08071 0.11988 0.78808 0.0
O146 O 0.05997 0.1866 0.76304 0.0
C147 C 0.08466 0.2278 0.89265 0.0
Fe148 Fe 0.5139 0.33038 0.31811 0.0
Fe149 Fe 0.51433 0.38223 0.41909 0.0
O150 O 0.51394 0.38133 0.35162 0.0
Fe151 Fe 0.51324 0.43193 0.31738 0.0
O152 O 0.45422 0.41853 0.29003 0.0
O153 O 0.47481 0.35113 0.26623 0.0
O154 O 0.45753 0.31241 0.34991 0.0
C155 C 0.45109 0.30976 0.39749 0.0
C156 C 0.5749 0.3779 0.25545 0.0
O157 O 0.47761 0.33179 0.42743 0.0
C158 C 0.5805 0.45083 0.3901 0.0
O159 O 0.55245 0.30077 0.36426 0.0
O160 O 0.57161 0.35107 0.42092 0.0
O161 O 0.54639 0.41064 0.26143 0.0
O162 O 0.57063 0.34409 0.28329 0.0
C163 C 0.45074 0.451 0.40179 0.0
O164 O 0.55193 0.43245 0.42249 0.0
O165 O 0.57227 0.44839 0.34296 0.0
C166 C 0.57917 0.31387 0.40045 0.0
O167 O 0.4567 0.41374 0.42275 0.0
O168 O 0.47967 0.46322 0.36633 0.0
C169 C 0.44645 0.38461 0.26334 0.0
Fe170 Fe 0.51957 0.65828 0.91611 0.0
Fe171 Fe 0.51696 0.60632 0.81597 0.0
O172 O 0.51763 0.65745 0.84863 0.0
Fe173 Fe 0.51684 0.70796 0.81398 0.0
O174 O 0.5758 0.72427 0.84016 0.0
O175 O 0.55575 0.70954 0.91964 0.0
O176 O 0.57784 0.62799 0.91662 0.0
C177 C 0.58461 0.59071 0.89577 0.0
C178 C 0.45326 0.72497 0.89832 0.0
O179 O 0.55556 0.57716 0.86192 0.0
C180 C 0.44984 0.65952 0.76063 0.0
O181 O 0.48449 0.60688 0.92505 0.0
O182 O 0.4604 0.58897 0.84841 0.0
O183 O 0.48189 0.73856 0.86304 0.0
O184 O 0.46128 0.6883 0.91995 0.0
C185 C 0.57924 0.65329 0.75324 0.0
O186 O 0.47825 0.62636 0.76435 0.0
O187 O 0.45807 0.69484 0.78476 0.0
C188 C 0.45621 0.58563 0.89611 0.0
O189 O 0.57342 0.6196 0.7811 0.0
O190 O 0.55128 0.68658 0.75868 0.0
C191 C 0.58477 0.72699 0.88709 0.0
C192 C 0.20055 0.29909 0.89259 0.0
C193 C 0.21424 0.29903 0.94398 0.0
C194 C 0.15821 0.27671 0.87665 0.0
C195 C 0.12752 0.2536 0.91152 0.0
H196 H 0.22325 0.31592 0.86428 0.0
H197 H 0.14993 0.27716 0.83643 0.0
S198 S 0.14625 0.24584 0.05125 0.0
N199 N 0.19317 0.27588 0.0301 0.0
N200 N 0.1135 0.23377 1.00066 0.0
C201 C 0.14022 0.25449 0.96343 0.0
C202 C 0.18348 0.27726 0.97951 0.0
C203 C 0.87048 0.7483 0.48633 0.0
C204 C 0.85688 0.71113 0.45772 0.0
C205 C 0.89905 0.7822 0.46442 0.0
C206 C 0.91485 0.78005 0.4131 0.0
H207 H 0.85986 0.75071 0.5262 0.0
H208 H 0.91023 0.80941 0.48839 0.0
S209 S 0.88246 0.69259 0.32036 0.0
N210 N 0.85648 0.67627 0.37455 0.0
N211 N 0.91031 0.73976 0.33307 0.0
C212 C 0.89909 0.74411 0.38349 0.0
C213 C 0.86993 0.70977 0.40583 0.0
C214 C 0.83293 0.26158 0.96184 0.0
C215 C 0.8237 0.3033 0.94016 0.0
C216 C 0.87515 0.23705 0.94808 0.0
C217 C 0.91001 0.25338 0.91225 0.0
H218 H 0.80689 0.24744 0.98906 0.0
H219 H 0.87999 0.20472 0.9652 0.0
S220 S 0.904 0.36278 0.84739 0.0
N221 N 0.85346 0.36109 0.88342 0.0
N222 N 0.93298 0.31546 0.85731 0.0
C223 C 0.90171 0.29583 0.89145 0.0
C224 C 0.85863 0.32068 0.90556 0.0
C225 C 0.16114 0.70995 0.40769 0.0
C226 C 0.17593 0.71363 0.45867 0.0
C227 C 0.1321 0.74291 0.38489 0.0
C228 C 0.11681 0.78067 0.41236 0.0
H229 H 0.17082 0.68074 0.38579 0.0
H230 H 0.11987 0.73783 0.34627 0.0
S231 S 0.15229 0.80888 0.54442 0.0
N232 N 0.17799 0.76002 0.5339 0.0
N233 N 0.12337 0.82188 0.49154 0.0
C234 C 0.13394 0.78583 0.46238 0.0
C235 C 0.16363 0.75242 0.48535 0.0
C236 C 0.70091 0.79816 0.88371 0.0
C237 C 0.71597 0.79793 0.93472 0.0
C238 C 0.65818 0.77573 0.86882 0.0
C239 C 0.62856 0.75237 0.90441 0.0
H240 H 0.7227 0.8153 0.85491 0.0
H241 H 0.64862 0.77643 0.82893 0.0
S242 S 0.65186 0.74303 0.04329 0.0
N243 N 0.69791 0.77354 0.02102 0.0
N244 N 0.61757 0.73144 0.99368 0.0
C245 C 0.64296 0.75272 0.95587 0.0
C246 C 0.68656 0.77549 0.97083 0.0
C247 C 0.37752 0.20326 0.40795 0.0
C248 C 0.36589 0.20083 0.46023 0.0
C249 C 0.40328 0.23953 0.38755 0.0
C250 C 0.41822 0.27482 0.41872 0.0
H251 H 0.36739 0.17651 0.38281 0.0
H252 H 0.41284 0.23913 0.34732 0.0
S253 S 0.39033 0.28669 0.55709 0.0
N254 N 0.36643 0.23837 0.54185 0.0
N255 N 0.4151 0.30663 0.50394 0.0
C256 C 0.40446 0.27368 0.47072 0.0
C257 C 0.37811 0.23675 0.49134 0.0
C258 C 0.33934 0.76534 0.9721 0.0
C259 C 0.32846 0.80594 0.94845 0.0
C260 C 0.37999 0.73964 0.95609 0.0
C261 C 0.41153 0.75367 0.91598 0.0
H262 H 0.31589 0.75305 1.00281 0.0
H263 H 0.38638 0.70834 0.97509 0.0
S264 S 0.39942 0.8589 0.84321 0.0
N265 N 0.35264 0.8598 0.88434 0.0
N266 N 0.42913 0.8121 0.85398 0.0
C267 C 0.40133 0.79486 0.89275 0.0
C268 C 0.35988 0.82083 0.9091 0.0
C269 C 0.65502 0.20935 0.42268 0.0
C270 C 0.67858 0.21801 0.46887 0.0
C271 C 0.6241 0.24096 0.40024 0.0
C272 C 0.61576 0.2827 0.42289 0.0
H273 H 0.65974 0.17753 0.40424 0.0
H274 H 0.60597 0.23219 0.36523 0.0
S275 S 0.67277 0.32248 0.54226 0.0
N276 N 0.69451 0.27175 0.53494 0.0
N277 N 0.63649 0.33137 0.49335 0.0
C278 C 0.64091 0.29224 0.46824 0.0
C279 C 0.67234 0.25992 0.49098 0.0
C280 C 0.35112 0.50991 0.9377 0.0
C281 C 0.37595 0.47756 0.96647 0.0
C282 C 0.37722 0.5445 0.91343 0.0
C283 C 0.42871 0.54791 0.91786 0.0
H284 H 0.31123 0.50935 0.93542 0.0
H285 H 0.35694 0.56945 0.89265 0.0
S286 S 0.51177 0.46827 0.98167 0.0
N287 N 0.45574 0.4484 0.99209 0.0
N288 N 0.50406 0.51406 0.94833 0.0
C289 C 0.45406 0.51477 0.94434 0.0
C290 C 0.42786 0.47939 0.96818 0.0
C291 C 0.65291 0.55651 0.40782 0.0
C292 C 0.67299 0.55013 0.45638 0.0
C293 C 0.62579 0.52287 0.38437 0.0
C294 C 0.61772 0.48206 0.40905 0.0
H295 H 0.65551 0.58852 0.38931 0.0
H296 H 0.60833 0.52995 0.34842 0.0
S297 S 0.67042 0.44644 0.532 0.0
N298 N 0.68929 0.49798 0.52463 0.0
N299 N 0.63745 0.43525 0.4813 0.0
C300 C 0.64094 0.47426 0.45566 0.0
C301 C 0.66883 0.50818 0.47915 0.0
C302 C 0.66509 0.53119 0.99145 0.0
C303 C 0.6757 0.4907 0.96705 0.0
C304 C 0.63827 0.56468 0.96703 0.0
C305 C 0.62055 0.55876 0.91741 0.0
H306 H 0.6761 0.53639 0.03046 0.0
H307 H 0.62927 0.59442 0.98826 0.0
S308 S 0.64228 0.46025 0.83532 0.0
N309 N 0.6692 0.44768 0.88942 0.0
N310 N 0.61949 0.51056 0.84314 0.0
C311 C 0.63344 0.51936 0.89158 0.0
C312 C 0.66083 0.48538 0.91645 0.0
C313 C 0.3698 0.51323 0.49783 0.0
C314 C 0.36169 0.55418 0.47341 0.0
C315 C 0.39638 0.47897 0.47364 0.0
C316 C 0.41599 0.48432 0.42404 0.0
H317 H 0.35653 0.50796 0.53652 0.0
H318 H 0.40325 0.44882 0.49481 0.0
S319 S 0.4012 0.58353 0.34152 0.0
N320 N 0.37331 0.59706 0.39567 0.0
N321 N 0.42136 0.53246 0.34957 0.0
C322 C 0.40564 0.52419 0.39814 0.0
C323 C 0.37899 0.55912 0.42291 0.0
C324 C 0.87399 0.02354 0.98657 0.0
C325 C 0.86607 0.98293 0.96182 0.0
C326 C 0.90049 0.05777 0.96277 0.0
C327 C 0.91985 0.05307 0.91299 0.0
H328 H 0.86088 0.02843 0.02539 0.0
H329 H 0.90712 0.08774 0.98418 0.0
S330 S 0.90714 0.95427 0.83037 0.0
N331 N 0.8781 0.9406 0.88392 0.0
N332 N 0.92704 1.00532 0.83865 0.0
C333 C 0.90991 1.01357 0.88667 0.0
C334 C 0.88322 0.97844 0.91119 0.0
C335 C 0.16543 1.0026 0.49174 0.0
C336 C 0.17457 0.04426 0.46943 0.0
C337 C 0.13561 0.97126 0.46785 0.0
C338 C 0.1135 0.98054 0.42086 0.0
H339 H 0.1804 0.99464 0.52866 0.0
H340 H 0.12844 0.94024 0.48733 0.0
S341 S 0.12901 0.08371 0.34479 0.0
N342 N 0.16111 0.09237 0.39667 0.0
N343 N 0.10623 0.03337 0.35102 0.0
C344 C 0.12447 0.02131 0.39697 0.0
C345 C 0.1547 0.05317 0.4214 0.0
C346 C 0.17447 0.03862 0.99275 0.0
C347 C 0.18363 0.99666 0.97123 0.0
C348 C 0.14402 0.06966 0.96872 0.0
C349 C 0.1212 0.05985 0.92232 0.0
H350 H 0.18965 0.04695 0.02942 0.0
H351 H 0.13684 0.10085 0.98778 0.0
S352 S 0.13701 0.95596 0.84791 0.0
N353 N 0.16997 0.94791 0.89942 0.0
N354 N 0.11362 1.00625 0.85358 0.0
C355 C 0.13238 0.01886 0.899 0.0
C356 C 0.16339 0.9873 0.92356 0.0
C357 C 0.8723 0.01823 0.48649 0.0
C358 C 0.86411 0.05861 0.46117 0.0
C359 C 0.8967 0.98299 0.46219 0.0
C360 C 0.91365 0.98648 0.41138 0.0
H361 H 0.86143 1.01439 0.52616 0.0
H362 H 0.90402 0.95334 0.48412 0.0
S363 S 0.89759 0.08378 0.32656 0.0
N364 N 0.87212 0.09913 0.38136 0.0
N365 N 0.91707 0.03252 0.3352 0.0
C366 C 0.90272 0.02558 0.38442 0.0
C367 C 0.87816 0.06173 0.40943 0.0
C368 C 0.37964 0.35682 0.14128 0.0
C369 C 0.35514 0.39657 0.13 0.0
C370 C 0.40675 0.35226 0.1861 0.0
C371 C 0.41031 0.38733 0.22127 0.0
H372 H 0.38044 0.33009 0.11381 0.0
H373 H 0.42707 0.32177 0.19179 0.0
S374 S 0.34605 0.49595 0.21212 0.0
N375 N 0.33136 0.46976 0.15938 0.0
N376 N 0.38151 0.46143 0.24394 0.0
C377 C 0.38264 0.42608 0.21196 0.0
C378 C 0.35536 0.43067 0.16621 0.0
C379 C 0.66229 0.60553 0.64919 0.0
C380 C 0.66678 0.64077 0.61435 0.0
C381 C 0.63607 0.6105 0.69525 0.0
C382 C 0.61302 0.65089 0.70816 0.0
H383 H 0.67809 0.57344 0.64012 0.0
H384 H 0.63234 0.58187 0.71992 0.0
S385 S 0.61758 0.75451 0.63156 0.0
N386 N 0.64868 0.71804 0.59687 0.0
N387 N 0.60007 0.72794 0.68378 0.0
C388 C 0.61958 0.68712 0.67475 0.0
C389 C 0.64629 0.68194 0.62779 0.0
C390 C 0.68286 0.38206 0.1621 0.0
C391 C 0.65876 0.38909 0.1156 0.0
C392 C 0.65566 0.37549 0.20764 0.0
C393 C 0.60379 0.37576 0.20765 0.0
H394 H 0.72275 0.38388 0.16367 0.0
H395 H 0.67513 0.37256 0.2432 0.0
S396 S 0.52353 0.38598 0.09529 0.0
N397 N 0.58029 0.39047 0.07183 0.0
N398 N 0.52954 0.37907 0.15727 0.0
C399 C 0.57954 0.37999 0.16109 0.0
C400 C 0.60696 0.38638 0.11503 0.0
C401 C 0.37838 0.68746 0.64182 0.0
C402 C 0.35583 0.6467 0.6308 0.0
C403 C 0.40581 0.69302 0.68643 0.0
C404 C 0.41161 0.65788 0.72112 0.0
H405 H 0.37752 0.7142 0.6143 0.0
H406 H 0.42537 0.72382 0.69192 0.0
S407 S 0.35231 0.54763 0.71437 0.0
N408 N 0.33524 0.5731 0.66178 0.0
N409 N 0.3872 0.58325 0.74486 0.0
C410 C 0.38593 0.61835 0.71242 0.0
C411 C 0.35791 0.61283 0.66746 0.0
C412 C 0.88539 0.85149 0.13372 0.0
C413 C 0.86381 0.89238 0.12075 0.0
C414 C 0.91227 0.84662 0.17889 0.0
C415 C 0.91849 0.88259 0.21219 0.0
H416 H 0.88393 0.82393 0.10746 0.0
H417 H 0.93073 0.81544 0.18612 0.0
S418 S 0.86172 0.99394 0.19993 0.0
N419 N 0.84472 0.96734 0.14825 0.0
N420 N 0.89548 0.95846 0.23234 0.0
C421 C 0.89394 0.92249 0.20135 0.0
C422 C 0.86653 0.92732 0.15584 0.0
C423 C 0.17693 0.10217 0.66364 0.0
C424 C 0.18139 0.13534 0.62631 0.0
C425 C 0.14936 0.10927 0.70845 0.0
C426 C 0.12472 0.14974 0.71742 0.0
H427 H 0.1934 0.06987 0.65724 0.0
H428 H 0.14555 0.08199 0.73506 0.0
S429 S 0.12866 0.24857 0.63294 0.0
N430 N 0.1619 0.21095 0.60223 0.0
N431 N 0.11043 0.22483 0.6867 0.0
C432 C 0.1315 0.18414 0.68161 0.0
C433 C 0.1597 0.17681 0.63597 0.0
C434 C 0.17662 0.94091 0.16578 0.0
C435 C 0.18473 0.90722 0.12974 0.0
C436 C 0.14633 0.93394 0.20877 0.0
C437 C 0.12256 0.89307 0.21715 0.0
H438 H 0.19236 0.97346 0.15967 0.0
H439 H 0.13989 0.96154 0.23434 0.0
S440 S 0.13592 0.79278 0.13622 0.0
N441 N 0.16964 0.83067 0.1067 0.0
N442 N 0.11317 0.8171 0.18779 0.0
C443 C 0.13292 0.85823 0.18288 0.0
C444 C 0.16389 0.86541 0.13911 0.0
C445 C 0.85687 0.16314 0.65927 0.0
C446 C 0.88272 0.15595 0.6129 0.0
C447 C 0.88213 0.1667 0.70558 0.0
C448 C 0.93384 0.16293 0.70671 0.0
H449 H 0.81687 0.16403 0.66004 0.0
H450 H 0.86107 0.17043 0.74078 0.0
S451 S 0.01899 0.15091 0.59546 0.0
N452 N 0.96329 0.15079 0.5708 0.0
N453 N 1.01021 0.15617 0.65753 0.0
C454 C 0.96007 0.15822 0.66045 0.0
C455 C 0.93465 0.1551 0.61359 0.0
loop_
_geom_bond_atom_site_label_1
_geom_bond_atom_site_label_2
_geom_bond_distance
_geom_bond_site_symmetry_2
_ccdc_geom_bond_type
H0 C7 0.929 . S
H1 C10 0.930 . S
H2 C12 0.929 . S
H3 C4 0.969 . S
C4 H3 0.969 . S
C4 O5 1.550 1_556 S
C4 H6 0.973 . S
O5 C4 1.550 1_554 S
O5 C11 1.412 . S
H6 C4 0.973 . S
C7 H0 0.929 . S
C7 C8 1.400 . S
C7 C9 1.364 1_554 S
C8 C7 1.400 . S
C8 C12 1.377 . S
C9 C7 1.364 1_556 S
C9 C10 1.374 . S
C10 H1 0.930 . S
C10 C9 1.374 . S
C10 C11 1.383 1_556 S
C11 O5 1.412 . S
C11 C10 1.383 1_554 S
C11 C12 1.394 . S
C12 H2 0.929 . S
C12 C8 1.377 . S
C12 C11 1.394 . S
H13 C20 0.929 . S
H14 C23 0.930 . S
H15 C25 0.929 . S
H16 C17 0.969 . S
C17 H16 0.969 . S
C17 O18 1.550 . S
C17 H19 0.973 . S
O18 C17 1.550 . S
O18 C24 1.412 . S
H19 C17 0.973 . S
C20 H13 0.929 . S
C20 C21 1.400 . S
C20 C22 1.364 . S
C21 C20 1.400 . S
C21 C25 1.377 . S
C22 C20 1.364 . S
C22 C23 1.374 . S
C23 H14 0.930 . S
C23 C22 1.374 . S
C23 C24 1.383 . S
C24 O18 1.412 . S
C24 C23 1.383 . S
C24 C25 1.394 . S
C25 H15 0.929 . S
C25 C21 1.377 . S
C25 C24 1.394 . S
H26 C33 0.929 . S
H27 C36 0.930 . S
H28 C38 0.929 . S
H29 C30 0.969 . S
C30 H29 0.969 . S
C30 O31 1.550 . S
C30 H32 0.973 1_556 S
O31 C30 1.550 . S
O31 C37 1.412 . S
H32 C30 0.973 1_554 S
C33 H26 0.929 . S
C33 C34 1.400 1_554 S
C33 C35 1.364 . S
C34 C33 1.400 1_556 S
C34 C38 1.377 . S
C35 C33 1.364 . S
C35 C36 1.374 . S
C36 H27 0.930 . S
C36 C35 1.374 . S
C36 C37 1.383 1_554 S
C37 O31 1.412 . S
C37 C36 1.383 1_556 S
C37 C38 1.394 . S
C38 H28 0.929 . S
C38 C34 1.377 . S
C38 C37 1.394 . S
H39 C46 0.929 . S
H40 C49 0.930 . S
H41 C51 0.929 . S
H42 C43 0.969 . S
C43 H42 0.969 . S
C43 O44 1.550 . S
C43 H45 0.973 . S
O44 C43 1.550 . S
O44 C50 1.412 . S
H45 C43 0.973 . S
C46 H39 0.929 . S
C46 C47 1.400 . S
C46 C48 1.364 . S
C47 C46 1.400 . S
C47 C51 1.377 . S
C48 C46 1.364 . S
C48 C49 1.374 . S
C49 H40 0.930 . S
C49 C48 1.374 . S
C49 C50 1.383 . S
C50 O44 1.412 . S
C50 C49 1.383 . S
C50 C51 1.394 . S
C51 H41 0.929 . S
C51 C47 1.377 . S
C51 C50 1.394 . S
H52 C59 0.929 . S
H53 C62 0.930 . S
H54 C64 0.929 . S
H55 C56 0.969 . S
C56 H55 0.969 . S
C56 O57 1.550 1_556 S
C56 H58 0.973 . S
O57 C56 1.550 1_554 S
O57 C63 1.412 . S
H58 C56 0.973 . S
C59 H52 0.929 . S
C59 C60 1.400 . S
C59 C61 1.364 1_554 S
C60 C59 1.400 . S
C60 C64 1.377 . S
C61 C59 1.364 1_556 S
C61 C62 1.374 . S
C62 H53 0.930 . S
C62 C61 1.374 . S
C62 C63 1.383 1_556 S
C63 O57 1.412 . S
C63 C62 1.383 1_554 S
C63 C64 1.394 . S
C64 H54 0.929 . S
C64 C60 1.377 . S
C64 C63 1.394 . S
H65 C72 0.929 . S
H66 C75 0.930 . S
H67 C77 0.929 . S
H68 C69 0.969 . S
C69 H68 0.969 . S
C69 O70 1.550 . S
C69 H71 0.973 . S
O70 C69 1.550 . S
O70 C76 1.412 . S
H71 C69 0.973 . S
C72 H65 0.929 . S
C72 C73 1.400 . S
C72 C74 1.364 . S
C73 C72 1.400 . S
C73 C77 1.377 . S
C74 C72 1.364 . S
C74 C75 1.374 . S
C75 H66 0.930 . S
C75 C74 1.374 . S
C75 C76 1.383 . S
C76 O70 1.412 . S
C76 C75 1.383 . S
C76 C77 1.394 . S
C77 H67 0.929 . S
C77 C73 1.377 . S
C77 C76 1.394 . S
H78 C85 0.929 . S
H79 C88 0.930 . S
H80 C90 0.929 . S
H81 C82 0.969 . S
C82 H81 0.969 . S
C82 O83 1.550 . S
C82 H84 0.973 1_556 S
O83 C82 1.550 . S
O83 C89 1.412 . S
H84 C82 0.973 1_554 S
C85 H78 0.929 . S
C85 C86 1.400 1_554 S
C85 C87 1.364 . S
C86 C85 1.400 1_556 S
C86 C90 1.377 . S
C87 C85 1.364 . S
C87 C88 1.374 . S
C88 H79 0.930 . S
C88 C87 1.374 . S
C88 C89 1.383 1_554 S
C89 O83 1.412 . S
C89 C88 1.383 1_556 S
C89 C90 1.394 . S
C90 H80 0.929 . S
C90 C86 1.377 . S
C90 C89 1.394 . S
H91 C98 0.929 . S
H92 C101 0.930 . S
H93 C103 0.929 . S
H94 C95 0.969 . S
C95 H94 0.969 . S
C95 O96 1.550 . S
C95 H97 0.973 . S
O96 C95 1.550 . S
O96 C102 1.412 . S
H97 C95 0.973 . S
C98 H91 0.929 . S
C98 C99 1.400 . S
C98 C100 1.364 . S
C99 C98 1.400 . S
C99 C103 1.377 . S
C100 C98 1.364 . S
C100 C101 1.374 . S
C101 H92 0.930 . S
C101 C100 1.374 . S
C101 C102 1.383 . S
C102 O96 1.412 . S
C102 C101 1.383 . S
C102 C103 1.394 . S
C103 H93 0.929 . S
C103 C99 1.377 . S
C103 C102 1.394 . S
Fe104 O106 1.918 . S
Fe104 O109 1.997 1_455 S
Fe104 O110 2.002 1_455 S
Fe104 O115 1.976 . S
Fe104 O118 1.996 . S
Fe105 O106 1.918 . S
Fe105 O113 1.997 1_455 S
Fe105 O116 1.996 . S
Fe105 O120 1.976 . S
Fe105 O123 2.002 1_455 S
O106 Fe104 1.918 . S
O106 Fe105 1.918 . S
O106 Fe107 1.918 . S
Fe107 O106 1.918 . S
Fe107 O108 2.002 1_455 S
Fe107 O117 1.976 . S
Fe107 O121 1.996 . S
Fe107 O124 1.997 1_455 S
O108 Fe107 2.002 1_655 S
O108 C125 1.295 . S
O109 Fe104 1.997 1_655 S
O109 C125 1.235 . S
O110 Fe104 2.002 1_655 S
O110 C111 1.295 . S
C111 O110 1.295 . S
C111 O113 1.235 . S
C112 O117 1.287 . S
C112 O118 1.255 . S
O113 Fe105 1.997 1_655 S
O113 C111 1.235 . S
C114 O120 1.287 . S
C114 O121 1.255 . S
O115 Fe104 1.976 . S
O115 C122 1.287 . S
O116 Fe105 1.996 . S
O116 C122 1.255 . S
O117 Fe107 1.976 . S
O117 C112 1.287 . S
O118 Fe104 1.996 . S
O118 C112 1.255 . S
C119 O123 1.295 . S
C119 O124 1.235 . S
O120 Fe105 1.976 . S
O120 C114 1.287 . S
O121 Fe107 1.996 . S
O121 C114 1.255 . S
C122 O115 1.287 . S
C122 O116 1.255 . S
O123 Fe105 2.002 1_655 S
O123 C119 1.295 . S
O124 Fe107 1.997 1_655 S
O124 C119 1.235 . S
C125 O108 1.295 . S
C125 O109 1.235 . S
Fe126 O128 1.919 . S
Fe126 O131 2.003 . S
Fe126 O132 2.010 . S
Fe126 O137 1.969 1_455 S
Fe126 O140 1.989 1_455 S
Fe127 O128 1.918 . S
Fe127 O135 1.997 . S
Fe127 O138 1.996 1_455 S
Fe127 O142 1.976 1_455 S
Fe127 O145 2.002 . S
O128 Fe126 1.919 . S
O128 Fe127 1.918 . S
O128 Fe129 1.918 . S
Fe129 O128 1.918 . S
Fe129 O130 2.002 . S
Fe129 O139 1.976 1_455 S
Fe129 O143 1.996 1_455 S
Fe129 O146 1.997 . S
O130 Fe129 2.002 . S
O130 C147 1.295 . S
O131 Fe126 2.003 . S
O131 C147 1.235 . S
O132 Fe126 2.010 . S
O132 C133 1.295 . S
C133 O132 1.295 . S
C133 O135 1.235 . S
C134 O139 1.287 . S
C134 O140 1.255 . S
O135 Fe127 1.997 . S
O135 C133 1.235 . S
C136 O142 1.287 . S
C136 O143 1.255 . S
O137 Fe126 1.969 1_655 S
O137 C144 1.287 . S
O138 Fe127 1.996 1_655 S
O138 C144 1.255 . S
O139 Fe129 1.976 1_655 S
O139 C134 1.287 . S
O140 Fe126 1.989 1_655 S
O140 C134 1.255 . S
C141 O145 1.295 . S
C141 O146 1.235 . S
O142 Fe127 1.976 1_655 S
O142 C136 1.287 . S
O143 Fe129 1.996 1_655 S
O143 C136 1.255 . S
C144 O137 1.287 . S
C144 O138 1.255 . S
O145 Fe127 2.002 . S
O145 C141 1.295 . S
O146 Fe129 1.997 . S
O146 C141 1.235 . S
C147 O130 1.295 . S
C147 O131 1.235 . S
Fe148 O150 1.918 . S
Fe148 O153 1.997 . S
Fe148 O154 2.002 . S
Fe148 O159 1.976 . S
Fe148 O162 1.996 . S
Fe149 O150 1.918 . S
Fe149 O157 1.997 . S
Fe149 O160 1.996 . S
Fe149 O164 1.976 . S
Fe149 O167 2.002 . S
O150 Fe148 1.918 . S
O150 Fe149 1.918 . S
O150 Fe151 1.918 . S
Fe151 O150 1.918 . S
Fe151 O152 2.002 . S
Fe151 O161 1.976 . S
Fe151 O165 1.996 . S
Fe151 O168 1.997 . S
O152 Fe151 2.002 . S
O152 C169 1.295 . S
O153 Fe148 1.997 . S
O153 C169 1.235 . S
O154 Fe148 2.002 . S
O154 C155 1.295 . S
C155 O154 1.295 . S
C155 O157 1.235 . S
C156 O161 1.287 . S
C156 O162 1.255 . S
O157 Fe149 1.997 . S
O157 C155 1.235 . S
C158 O164 1.287 . S
C158 O165 1.255 . S
O159 Fe148 1.976 . S
O159 C166 1.287 . S
O160 Fe149 1.996 . S
O160 C166 1.255 . S
O161 Fe151 1.976 . S
O161 C156 1.287 . S
O162 Fe148 1.996 . S
O162 C156 1.255 . S
C163 O167 1.295 . S
C163 O168 1.235 . S
O164 Fe149 1.976 . S
O164 C158 1.287 . S
O165 Fe151 1.996 . S
O165 C158 1.255 . S
C166 O159 1.287 . S
C166 O160 1.255 . S
O167 Fe149 2.002 . S
O167 C163 1.295 . S
O168 Fe151 1.997 . S
O168 C163 1.235 . S
C169 O152 1.295 . S
C169 O153 1.235 . S
Fe170 O172 1.918 . S
Fe170 O175 1.997 . S
Fe170 O176 2.002 . S
Fe170 O181 1.976 . S
Fe170 O184 1.996 . S
Fe171 O172 1.918 . S
Fe171 O179 1.997 . S
Fe171 O182 1.996 . S
Fe171 O186 1.976 . S
Fe171 O189 2.002 . S
O172 Fe170 1.918 . S
O172 Fe171 1.918 . S
O172 Fe173 1.918 . S
Fe173 O172 1.918 . S
Fe173 O174 2.002 . S
Fe173 O183 1.976 . S
Fe173 O187 1.996 . S
Fe173 O190 1.997 . S
O174 Fe173 2.002 . S
O174 C191 1.295 . S
O175 Fe170 1.997 . S
O175 C191 1.235 . S
O176 Fe170 2.002 . S
O176 C177 1.295 . S
C177 O176 1.295 . S
C177 O179 1.235 . S
C178 O183 1.287 . S
C178 O184 1.255 . S
O179 Fe171 1.997 . S
O179 C177 1.235 . S
C180 O186 1.287 . S
C180 O187 1.255 . S
O181 Fe170 1.976 . S
O181 C188 1.287 . S
O182 Fe171 1.996 . S
O182 C188 1.255 . S
O183 Fe173 1.976 . S
O183 C178 1.287 . S
O184 Fe170 1.996 . S
O184 C178 1.255 . S
C185 O189 1.295 . S
C185 O190 1.235 . S
O186 Fe171 1.976 . S
O186 C180 1.287 . S
O187 Fe173 1.996 . S
O187 C180 1.255 . S
C188 O181 1.287 . S
C188 O182 1.255 . S
O189 Fe171 2.002 . S
O189 C185 1.295 . S
O190 Fe173 1.997 . S
O190 C185 1.235 . S
C191 O174 1.295 . S
C191 O175 1.235 . S
C192 C193 1.369 . S
C192 C194 1.419 . S
C192 H196 0.930 . S
C193 C192 1.369 . S
C193 C202 1.429 . S
C194 C192 1.419 . S
C194 C195 1.363 . S
C194 H197 0.929 . S
C195 C194 1.363 . S
C195 C201 1.428 . S
H196 C192 0.930 . S
H197 C194 0.929 . S
S198 N199 1.613 . S
S198 N200 1.610 1_554 S
N199 S198 1.613 . S
N199 C202 1.350 1_554 S
N200 S198 1.610 1_556 S
N200 C201 1.351 . S
C201 C195 1.428 . S
C201 N200 1.351 . S
C201 C202 1.434 . S
C202 C193 1.429 . S
C202 N199 1.350 1_556 S
C202 C201 1.434 . S
C203 C204 1.369 . S
C203 C205 1.419 . S
C203 H207 0.930 . S
C204 C203 1.369 . S
C204 C213 1.429 . S
C205 C203 1.419 . S
C205 C206 1.363 . S
C205 H208 0.929 . S
C206 C205 1.363 . S
C206 C212 1.428 . S
H207 C203 0.930 . S
H208 C205 0.929 . S
S209 N210 1.613 . S
S209 N211 1.610 . S
N210 S209 1.613 . S
N210 C213 1.350 . S
N211 S209 1.610 . S
N211 C212 1.351 . S
C212 C206 1.428 . S
C212 N211 1.351 . S
C212 C213 1.434 . S
C213 C204 1.429 . S
C213 N210 1.350 . S
C213 C212 1.434 . S
C214 C215 1.369 . S
C214 C216 1.419 . S
C214 H218 0.930 . S
C215 C214 1.369 . S
C215 C224 1.429 . S
C216 C214 1.419 . S
C216 C217 1.363 . S
C216 H219 0.929 . S
C217 C216 1.363 . S
C217 C223 1.428 . S
H218 C214 0.930 . S
H219 C216 0.929 . S
S220 N221 1.613 . S
S220 N222 1.610 . S
N221 S220 1.613 . S
N221 C224 1.350 . S
N222 S220 1.610 . S
N222 C223 1.351 . S
C223 C217 1.428 . S
C223 N222 1.351 . S
C223 C224 1.434 . S
C224 C215 1.429 . S
C224 N221 1.350 . S
C224 C223 1.434 . S
C225 C226 1.369 . S
C225 C227 1.419 . S
C225 H229 0.930 . S
C226 C225 1.369 . S
C226 C235 1.429 . S
C227 C225 1.419 . S
C227 C228 1.363 . S
C227 H230 0.929 . S
C228 C227 1.363 . S
C228 C234 1.428 . S
H229 C225 0.930 . S
H230 C227 0.929 . S
S231 N232 1.613 . S
S231 N233 1.610 . S
N232 S231 1.613 . S
N232 C235 1.350 . S
N233 S231 1.610 . S
N233 C234 1.351 . S
C234 C228 1.428 . S
C234 N233 1.351 . S
C234 C235 1.434 . S
C235 C226 1.429 . S
C235 N232 1.350 . S
C235 C234 1.434 . S
C236 C237 1.369 . S
C236 C238 1.419 . S
C236 H240 0.930 . S
C237 C236 1.369 . S
C237 C246 1.429 . S
C238 C236 1.419 . S
C238 C239 1.363 . S
C238 H241 0.929 . S
C239 C238 1.363 . S
C239 C245 1.428 . S
H240 C236 0.930 . S
H241 C238 0.929 . S
S242 N243 1.613 . S
S242 N244 1.610 1_554 S
N243 S242 1.613 . S
N243 C246 1.350 1_554 S
N244 S242 1.610 1_556 S
N244 C245 1.351 . S
C245 C239 1.428 . S
C245 N244 1.351 . S
C245 C246 1.434 . S
C246 C237 1.429 . S
C246 N243 1.350 1_556 S
C246 C245 1.434 . S
C247 C248 1.369 . S
C247 C249 1.419 . S
C247 H251 0.930 . S
C248 C247 1.369 . S
C248 C257 1.429 . S
C249 C247 1.419 . S
C249 C250 1.363 . S
C249 H252 0.929 . S
C250 C249 1.363 . S
C250 C256 1.428 . S
H251 C247 0.930 . S
H252 C249 0.929 . S
S253 N254 1.613 . S
S253 N255 1.610 . S
N254 S253 1.613 . S
N254 C257 1.350 . S
N255 S253 1.610 . S
N255 C256 1.351 . S
C256 C250 1.428 . S
C256 N255 1.351 . S
C256 C257 1.434 . S
C257 C248 1.429 . S
C257 N254 1.350 . S
C257 C256 1.434 . S
C258 C259 1.369 . S
C258 C260 1.419 . S
C258 H262 0.930 . S
C259 C258 1.369 . S
C259 C268 1.429 . S
C260 C258 1.419 . S
C260 C261 1.363 . S
C260 H263 0.929 . S
C261 C260 1.363 . S
C261 C267 1.428 . S
H262 C258 0.930 . S
H263 C260 0.929 . S
S264 N265 1.613 . S
S264 N266 1.610 . S
N265 S264 1.613 . S
N265 C268 1.350 . S
N266 S264 1.610 . S
N266 C267 1.351 . S
C267 C261 1.428 . S
C267 N266 1.351 . S
C267 C268 1.434 . S
C268 C259 1.429 . S
C268 N265 1.350 . S
C268 C267 1.434 . S
C269 C270 1.369 . S
C269 C271 1.419 . S
C269 H273 0.930 . S
C270 C269 1.369 . S
C270 C279 1.429 . S
C271 C269 1.419 . S
C271 C272 1.363 . S
C271 H274 0.929 . S
C272 C271 1.363 . S
C272 C278 1.428 . S
H273 C269 0.930 . S
H274 C271 0.929 . S
S275 N276 1.613 . S
S275 N277 1.610 . S
N276 S275 1.613 . S
N276 C279 1.350 . S
N277 S275 1.610 . S
N277 C278 1.351 . S
C278 C272 1.428 . S
C278 N277 1.351 . S
C278 C279 1.434 . S
C279 C270 1.429 . S
C279 N276 1.350 . S
C279 C278 1.434 . S
C280 C281 1.369 . S
C280 C282 1.419 . S
C280 H284 0.930 . S
C281 C280 1.369 . S
C281 C290 1.429 . S
C282 C280 1.419 . S
C282 C283 1.363 . S
C282 H285 0.929 . S
C283 C282 1.363 . S
C283 C289 1.428 . S
H284 C280 0.930 . S
H285 C282 0.929 . S
S286 N287 1.613 . S
S286 N288 1.610 1_554 S
N287 S286 1.613 . S
N287 C290 1.350 1_554 S
N288 S286 1.610 1_556 S
N288 C289 1.351 . S
C289 C283 1.428 . S
C289 N288 1.351 . S
C289 C290 1.434 . S
C290 C281 1.429 . S
C290 N287 1.350 1_556 S
C290 C289 1.434 . S
C291 C292 1.369 . S
C291 C293 1.419 . S
C291 H295 0.930 . S
C292 C291 1.369 . S
C292 C301 1.429 . S
C293 C291 1.419 . S
C293 C294 1.363 . S
C293 H296 0.929 . S
C294 C293 1.363 . S
C294 C300 1.428 . S
H295 C291 0.930 . S
H296 C293 0.929 . S
S297 N298 1.613 . S
S297 N299 1.610 . S
N298 S297 1.613 . S
N298 C301 1.350 . S
N299 S297 1.610 . S
N299 C300 1.351 . S
C300 C294 1.428 . S
C300 N299 1.351 . S
C300 C301 1.434 . S
C301 C292 1.429 . S
C301 N298 1.350 . S
C301 C300 1.434 . S
C302 C303 1.369 . S
C302 C304 1.419 . S
C302 H306 0.930 1_556 S
C303 C302 1.369 . S
C303 C312 1.429 . S
C304 C302 1.419 . S
C304 C305 1.363 . S
C304 H307 0.929 . S
C305 C304 1.363 . S
C305 C311 1.428 . S
H306 C302 0.930 1_554 S
H307 C304 0.929 . S
S308 N309 1.613 . S
S308 N310 1.610 . S
N309 S308 1.613 . S
N309 C312 1.350 . S
N310 S308 1.610 . S
N310 C311 1.351 . S
C311 C305 1.428 . S
C311 N310 1.351 . S
C311 C312 1.434 . S
C312 C303 1.429 . S
C312 N309 1.350 . S
C312 C311 1.434 . S
C313 C314 1.369 . S
C313 C315 1.419 . S
C313 H317 0.930 . S
C314 C313 1.369 . S
C314 C323 1.429 . S
C315 C313 1.419 . S
C315 C316 1.363 . S
C315 H318 0.929 . S
C316 C315 1.363 . S
C316 C322 1.428 . S
H317 C313 0.930 . S
H318 C315 0.929 . S
S319 N320 1.613 . S
S319 N321 1.610 . S
N320 S319 1.613 . S
N320 C323 1.350 . S
N321 S319 1.610 . S
N321 C322 1.351 . S
C322 C316 1.428 . S
C322 N321 1.351 . S
C322 C323 1.434 . S
C323 C314 1.429 . S
C323 N320 1.350 . S
C323 C322 1.434 . S
C324 C325 1.369 . S
C324 C326 1.419 1_565 S
C324 H328 0.930 1_565 S
C325 C324 1.369 . S
C325 C334 1.429 . S
C326 C324 1.419 1_545 S
C326 C327 1.363 . S
C326 H329 0.929 . S
C327 C326 1.363 . S
C327 C333 1.428 1_545 S
H328 C324 0.930 1_545 S
H329 C326 0.929 . S
S330 N331 1.613 . S
S330 N332 1.610 . S
N331 S330 1.613 . S
N331 C334 1.350 . S
N332 S330 1.610 . S
N332 C333 1.351 . S
C333 C327 1.428 1_565 S
C333 N332 1.351 . S
C333 C334 1.434 . S
C334 C325 1.429 . S
C334 N331 1.350 . S
C334 C333 1.434 . S
C335 C336 1.369 1_565 S
C335 C337 1.419 . S
C335 H339 0.930 . S
C336 C335 1.369 1_545 S
C336 C345 1.429 . S
C337 C335 1.419 . S
C337 C338 1.363 . S
C337 H340 0.929 . S
C338 C337 1.363 . S
C338 C344 1.428 1_565 S
H339 C335 0.930 . S
H340 C337 0.929 . S
S341 N342 1.613 . S
S341 N343 1.610 . S
N342 S341 1.613 . S
N342 C345 1.350 . S
N343 S341 1.610 . S
N343 C344 1.351 . S
C344 C338 1.428 1_545 S
C344 N343 1.351 . S
C344 C345 1.434 . S
C345 C336 1.429 . S
C345 N342 1.350 . S
C345 C344 1.434 . S
C346 C347 1.369 1_545 S
C346 C348 1.419 . S
C346 H350 0.930 . S
C347 C346 1.369 1_565 S
C347 C356 1.429 . S
C348 C346 1.419 . S
C348 C349 1.363 . S
C348 H351 0.929 . S
C349 C348 1.363 . S
C349 C355 1.428 1_545 S
H350 C346 0.930 . S
H351 C348 0.929 . S
S352 N353 1.613 . S
S352 N354 1.610 . S
N353 S352 1.613 . S
N353 C356 1.350 . S
N354 S352 1.610 . S
N354 C355 1.351 . S
C355 C349 1.428 1_565 S
C355 N354 1.351 . S
C355 C356 1.434 . S
C356 C347 1.429 . S
C356 N353 1.350 . S
C356 C355 1.434 . S
C357 C358 1.369 . S
C357 C359 1.419 1_545 S
C357 H361 0.930 . S
C358 C357 1.369 . S
C358 C367 1.429 . S
C359 C357 1.419 1_565 S
C359 C360 1.363 . S
C359 H362 0.929 . S
C360 C359 1.363 . S
C360 C366 1.428 . S
H361 C357 0.930 . S
H362 C359 0.929 . S
S363 N364 1.613 . S
S363 N365 1.610 1_545 S
N364 S363 1.613 . S
N364 C367 1.350 . S
N365 S363 1.610 1_565 S
N365 C366 1.351 . S
C366 C360 1.428 . S
C366 N365 1.351 . S
C366 C367 1.434 1_565 S
C367 C358 1.429 . S
C367 N364 1.350 . S
C367 C366 1.434 1_545 S
C368 C369 1.369 . S
C368 C370 1.419 . S
C368 H372 0.930 . S
C369 C368 1.369 . S
C369 C378 1.429 . S
C370 C368 1.419 . S
C370 C371 1.363 . S
C370 H373 0.929 . S
C371 C370 1.363 . S
C371 C377 1.428 . S
H372 C368 0.930 . S
H373 C370 0.929 . S
S374 N375 1.613 . S
S374 N376 1.610 . S
N375 S374 1.613 . S
N375 C378 1.350 . S
N376 S374 1.610 . S
N376 C377 1.351 . S
C377 C371 1.428 . S
C377 N376 1.351 . S
C377 C378 1.434 . S
C378 C369 1.429 . S
C378 N375 1.350 . S
C378 C377 1.434 . S
C379 C380 1.369 . S
C379 C381 1.419 . S
C379 H383 0.930 . S
C380 C379 1.369 . S
C380 C389 1.429 . S
C381 C379 1.419 . S
C381 C382 1.363 . S
C381 H384 0.929 . S
C382 C381 1.363 . S
C382 C388 1.428 . S
H383 C379 0.930 . S
H384 C381 0.929 . S
S385 N386 1.613 . S
S385 N387 1.610 . S
N386 S385 1.613 . S
N386 C389 1.350 . S
N387 S385 1.610 . S
N387 C388 1.351 . S
C388 C382 1.428 . S
C388 N387 1.351 . S
C388 C389 1.434 . S
C389 C380 1.429 . S
C389 N386 1.350 . S
C389 C388 1.434 . S
C390 C391 1.369 . S
C390 C392 1.419 . S
C390 H394 0.930 . S
C391 C390 1.369 . S
C391 C400 1.429 . S
C392 C390 1.419 . S
C392 C393 1.363 . S
C392 H395 0.929 . S
C393 C392 1.363 . S
C393 C399 1.428 . S
H394 C390 0.930 . S
H395 C392 0.929 . S
S396 N397 1.613 . S
S396 N398 1.610 . S
N397 S396 1.613 . S
N397 C400 1.350 . S
N398 S396 1.610 . S
N398 C399 1.351 . S
C399 C393 1.428 . S
C399 N398 1.351 . S
C399 C400 1.434 . S
C400 C391 1.429 . S
C400 N397 1.350 . S
C400 C399 1.434 . S
C401 C402 1.369 . S
C401 C403 1.419 . S
C401 H405 0.930 . S
C402 C401 1.369 . S
C402 C411 1.429 . S
C403 C401 1.419 . S
C403 C404 1.363 . S
C403 H406 0.929 . S
C404 C403 1.363 . S
C404 C410 1.428 . S
H405 C401 0.930 . S
H406 C403 0.929 . S
S407 N408 1.613 . S
S407 N409 1.610 . S
N408 S407 1.613 . S
N408 C411 1.350 . S
N409 S407 1.610 . S
N409 C410 1.351 . S
C410 C404 1.428 . S
C410 N409 1.351 . S
C410 C411 1.434 . S
C411 C402 1.429 . S
C411 N408 1.350 . S
C411 C410 1.434 . S
C412 C413 1.369 . S
C412 C414 1.419 . S
C412 H416 0.930 . S
C413 C412 1.369 . S
C413 C422 1.429 . S
C414 C412 1.419 . S
C414 C415 1.363 . S
C414 H417 0.929 . S
C415 C414 1.363 . S
C415 C421 1.428 . S
H416 C412 0.930 . S
H417 C414 0.929 . S
S418 N419 1.613 . S
S418 N420 1.610 . S
N419 S418 1.613 . S
N419 C422 1.350 . S
N420 S418 1.610 . S
N420 C421 1.351 . S
C421 C415 1.428 . S
C421 N420 1.351 . S
C421 C422 1.434 . S
C422 C413 1.429 . S
C422 N419 1.350 . S
C422 C421 1.434 . S
C423 C424 1.369 . S
C423 C425 1.419 . S
C423 H427 0.930 . S
C424 C423 1.369 . S
C424 C433 1.429 . S
C425 C423 1.419 . S
C425 C426 1.363 . S
C425 H428 0.929 . S
C426 C425 1.363 . S
C426 C432 1.428 . S
H427 C423 0.930 . S
H428 C425 0.929 . S
S429 N430 1.613 . S
S429 N431 1.610 . S
N430 S429 1.613 . S
N430 C433 1.350 . S
N431 S429 1.610 . S
N431 C432 1.351 . S
C432 C426 1.428 . S
C432 N431 1.351 . S
C432 C433 1.434 . S
C433 C424 1.429 . S
C433 N430 1.350 . S
C433 C432 1.434 . S
C434 C435 1.369 . S
C434 C436 1.419 . S
C434 H438 0.930 . S
C435 C434 1.369 . S
C435 C444 1.429 . S
C436 C434 1.419 . S
C436 C437 1.363 . S
C436 H439 0.929 . S
C437 C436 1.363 . S
C437 C443 1.428 . S
H438 C434 0.930 . S
H439 C436 0.929 . S
S440 N441 1.613 . S
S440 N442 1.610 . S
N441 S440 1.613 . S
N441 C444 1.350 . S
N442 S440 1.610 . S
N442 C443 1.351 . S
C443 C437 1.428 . S
C443 N442 1.351 . S
C443 C444 1.434 . S
C444 C435 1.429 . S
C444 N441 1.350 . S
C444 C443 1.434 . S
C445 C446 1.369 . S
C445 C447 1.419 . S
C445 H449 0.930 . S
C446 C445 1.369 . S
C446 C455 1.429 . S
C447 C445 1.419 . S
C447 C448 1.363 . S
C447 H450 0.929 . S
C448 C447 1.363 . S
C448 C454 1.428 . S
H449 C445 0.930 . S
H450 C447 0.929 . S
S451 N452 1.613 . S
S451 N453 1.610 . S
N452 S451 1.613 . S
N452 C455 1.350 . S
N453 S451 1.610 . S
N453 C454 1.351 . S
C454 C448 1.428 . S
C454 N453 1.351 . S
C454 C455 1.434 . S
C455 C446 1.429 . S
C455 N452 1.350 . S
C455 C454 1.434 . S
C193 C4 1.527 . S
C195 C147 1.587 . S
C206 C111 1.477 . S
C204 C17 1.476 . S
C217 C134 1.482 . S
C215 C30 1.411 . S
C228 C122 1.593 . S
C226 C43 1.574 . S
C239 C191 1.586 . S
C237 C56 1.528 . S
C250 C155 1.476 . S
C248 C69 1.472 . S
C259 C82 1.410 . S
C261 C178 1.483 . S
C272 C166 1.592 . S
C270 C95 1.571 . S
C281 C9 1.534 . S
C283 C188 1.574 . S
C294 C158 1.466 . S
C292 C21 1.455 . S
C303 C34 1.469 . S
C305 C177 1.479 . S
C314 C48 1.563 . S
C316 C163 1.588 . S
C327 C144 1.574 . S
C325 C61 1.534 . S
C336 C73 1.452 . S
C338 C114 1.466 . S
C349 C133 1.476 . S
C347 C86 1.465 . S
C360 C119 1.589 . S
C358 C100 1.563 . S
C371 C169 1.529 . S
C369 C8 1.522 . S
C382 C185 1.534 . S
C380 C22 1.514 . S
C391 C35 1.482 . S
C393 C156 1.517 . S
C404 C180 1.513 . S
C402 C47 1.502 . S
C415 C125 1.529 . S
C413 C60 1.522 . S
C424 C74 1.511 . S
C426 C141 1.533 . S
C435 C87 1.481 . S
C437 C112 1.517 . S
C446 C99 1.499 . S
C448 C136 1.513 . S
