# Generated by pormake.
# Topology apo, (3,6)-cn, num edge types: 1
# Building blocks:
#     Node 0, Type 0, BuildingBlock: VETTIZ_charged_linker_0, # of connection points: 3
#     Node 1, Type 0, BuildingBlock: VETTIZ_charged_linker_0, # of connection points: 3
#     Node 2, Type 0, BuildingBlock: VETTIZ_charged_linker_0, # of connection points: 3
#     Node 3, Type 0, BuildingBlock: VETTIZ_charged_linker_0, # of connection points: 3
#     Node 4, Type 0, BuildingBlock: VETTIZ_charged_linker_0, # of connection points: 3
#     Node 5, Type 0, BuildingBlock: VETTIZ_charged_linker_0, # of connection points: 3
#     Node 6, Type 0, BuildingBlock: VETTIZ_charged_linker_0, # of connection points: 3
#     Node 7, Type 0, BuildingBlock: VETTIZ_charged_linker_0, # of connection points: 3
#     Node 8, Type 1, BuildingBlock: KUMBOL_clean_sbu_1, # of connection points: 6
#     Node 9, Type 1, BuildingBlock: KUMBOL_clean_sbu_1, # of connection points: 6
#     Node 10, Type 1, BuildingBlock: KUMBOL_clean_sbu_1, # of connection points: 6
#     Node 11, Type 1, BuildingBlock: KUMBOL_clean_sbu_1, # of connection points: 6
#     Edge 12, Type (0, 1), BuildingBlock: TEMPAE_clean_linker_10, # of connection points: 2
#     Edge 13, Type (0, 1), BuildingBlock: TEMPAE_clean_linker_10, # of connection points: 2
#     Edge 14, Type (0, 1), BuildingBlock: TEMPAE_clean_linker_10, # of connection points: 2
#     Edge 15, Type (0, 1), BuildingBlock: TEMPAE_clean_linker_10, # of connection points: 2
#     Edge 16, Type (0, 1), BuildingBlock: TEMPAE_clean_linker_10, # of connection points: 2
#     Edge 17, Type (0, 1), BuildingBlock: TEMPAE_clean_linker_10, # of connection points: 2
#     Edge 18, Type (0, 1), BuildingBlock: TEMPAE_clean_linker_10, # of connection points: 2
#     Edge 19, Type (0, 1), BuildingBlock: TEMPAE_clean_linker_10, # of connection points: 2
#     Edge 20, Type (0, 1), BuildingBlock: TEMPAE_clean_linker_10, # of connection points: 2
#     Edge 21, Type (0, 1), BuildingBlock: TEMPAE_clean_linker_10, # of connection points: 2
#     Edge 22, Type (0, 1), BuildingBlock: TEMPAE_clean_linker_10, # of connection points: 2
#     Edge 23, Type (0, 1), BuildingBlock: TEMPAE_clean_linker_10, # of connection points: 2
#     Edge 24, Type (0, 1), BuildingBlock: TEMPAE_clean_linker_10, # of connection points: 2
#     Edge 25, Type (0, 1), BuildingBlock: TEMPAE_clean_linker_10, # of connection points: 2
#     Edge 26, Type (0, 1), BuildingBlock: TEMPAE_clean_linker_10, # of connection points: 2
#     Edge 27, Type (0, 1), BuildingBlock: TEMPAE_clean_linker_10, # of connection points: 2
#     Edge 28, Type (0, 1), BuildingBlock: TEMPAE_clean_linker_10, # of connection points: 2
#     Edge 29, Type (0, 1), BuildingBlock: TEMPAE_clean_linker_10, # of connection points: 2
#     Edge 30, Type (0, 1), BuildingBlock: TEMPAE_clean_linker_10, # of connection points: 2
#     Edge 31, Type (0, 1), BuildingBlock: TEMPAE_clean_linker_10, # of connection points: 2
#     Edge 32, Type (0, 1), BuildingBlock: TEMPAE_clean_linker_10, # of connection points: 2
#     Edge 33, Type (0, 1), BuildingBlock: TEMPAE_clean_linker_10, # of connection points: 2
#     Edge 34, Type (0, 1), BuildingBlock: TEMPAE_clean_linker_10, # of connection points: 2
#     Edge 35, Type (0, 1), BuildingBlock: TEMPAE_clean_linker_10, # of connection points: 2
# Relax obj value: 0.010
# Max RMSD: 0.096
# Mean RMSD: 0.076
data_MOF--net-apo--node1-KUMBOL_clean_sbu_1--node2-VETTIZ_charged_linker_0--edge1-TEMPAE_clean_linker_10
_symmetry_space_group_name_H-M    P1
_symmetry_Int_Tables_number       1
_symmetry_cell_setting            triclinic
loop_
_symmetry_equiv_pos_as_xyz
'x, y, z'
_cell_length_a     29.337118
_cell_length_b     52.526797
_cell_length_c     64.182811
_cell_angle_alpha  89.963089
_cell_angle_beta   90.016869
_cell_angle_gamma 90.492543
loop_
_atom_site_label
_atom_site_type_symbol
_atom_site_fract_x
_atom_site_fract_y
_atom_site_fract_z
_atom_type_partial_charge
C0 C 0.29159 0.36827 0.49027 0.0
C1 C 0.31909 0.38522 0.50181 0.0
C2 C 0.33991 0.40598 0.49152 0.0
C3 C 0.30529 0.39299 0.45884 0.0
C4 C 0.28551 0.37237 0.46886 0.0
C5 C 0.25851 0.35576 0.45415 0.0
H6 H 0.19307 0.3299 0.35513 0.0
C7 C 0.2921 0.39187 0.43662 0.0
C8 C 0.26494 0.36996 0.43372 0.0
H9 H 0.1589 0.28748 0.41094 0.0
H10 H 0.20076 0.31795 0.43173 0.0
H11 H 0.16737 0.38188 0.37396 0.0
H12 H 0.29642 0.34507 0.36672 0.0
H13 H 0.30311 0.37704 0.35889 0.0
H14 H 0.26282 0.35689 0.34547 0.0
H15 H 0.19865 0.38384 0.35003 0.0
H16 H 0.20701 0.40673 0.37072 0.0
C17 C 0.20809 0.35556 0.46128 0.0
C18 C 0.28086 0.32917 0.4537 0.0
C19 C 0.34215 0.46235 0.38681 0.0
C20 C 0.33353 0.46669 0.36553 0.0
C21 C 0.30756 0.44871 0.35426 0.0
C22 C 0.29038 0.42678 0.36394 0.0
C23 C 0.2989 0.42275 0.38522 0.0
C24 C 0.32423 0.4404 0.39634 0.0
C25 C 0.32892 0.43304 0.41893 0.0
C26 C 0.30175 0.40826 0.41951 0.0
C27 C 0.28467 0.4023 0.39968 0.0
C28 C 0.30648 0.45404 0.43229 0.0
C29 C 0.38014 0.42882 0.4236 0.0
C30 C 0.19383 0.32715 0.37184 0.0
C31 C 0.17259 0.30591 0.38121 0.0
C32 C 0.17557 0.30325 0.40309 0.0
C33 C 0.19969 0.32111 0.41522 0.0
C34 C 0.22085 0.34208 0.40548 0.0
C35 C 0.21696 0.34499 0.38417 0.0
C36 C 0.23909 0.36911 0.37649 0.0
C37 C 0.25839 0.37981 0.3966 0.0
C38 C 0.24807 0.36385 0.41354 0.0
C39 C 0.20142 0.38633 0.36717 0.0
C40 C 0.27727 0.36186 0.36096 0.0
H41 H 0.34958 0.42624 0.46328 0.0
H42 H 0.27565 0.35196 0.49771 0.0
H43 H 0.31868 0.33097 0.45372 0.0
H44 H 0.27254 0.31821 0.43953 0.0
H45 H 0.27082 0.31777 0.46757 0.0
H46 H 0.19837 0.3744 0.46775 0.0
H47 H 0.20211 0.34106 0.47361 0.0
H48 H 0.184 0.35216 0.44833 0.0
H49 H 0.36181 0.47592 0.39589 0.0
H50 H 0.30103 0.45148 0.3378 0.0
H51 H 0.27121 0.41379 0.35442 0.0
H52 H 0.27441 0.46068 0.42488 0.0
H53 H 0.32955 0.47079 0.43398 0.0
H54 H 0.29632 0.44738 0.44792 0.0
H55 H 0.39821 0.42139 0.40965 0.0
H56 H 0.38584 0.41433 0.43579 0.0
H57 H 0.39728 0.44689 0.42822 0.0
H58 H 0.36103 0.41935 0.50011 0.0
C59 C 0.33305 0.41 0.47015 0.0
C60 C 0.30172 0.18042 0.86765 0.0
C61 C 0.31286 0.20435 0.87614 0.0
C62 C 0.30214 0.20904 0.89726 0.0
C63 C 0.26936 0.1666 0.90065 0.0
C64 C 0.27969 0.16216 0.87997 0.0
C65 C 0.26339 0.13654 0.87265 0.0
H66 H 0.1486 0.02704 0.89147 0.0
C67 C 0.24571 0.14364 0.90885 0.0
C68 C 0.24185 0.12613 0.89236 0.0
H69 H 0.21045 0.0522 0.83381 0.0
H70 H 0.23878 0.0901 0.85072 0.0
H71 H 0.23185 0.04153 0.91985 0.0
H72 H 0.10888 0.0815 0.90528 0.0
H73 H 0.1183 0.08468 0.93222 0.0
H74 H 0.11055 0.05341 0.9212 0.0
H75 H 0.17932 0.03471 0.93306 0.0
H76 H 0.2186 0.05882 0.94237 0.0
C77 C 0.30551 0.12089 0.86598 0.0
C78 C 0.22771 0.14074 0.85514 0.0
C79 C 0.19919 0.13739 0.98541 0.0
C80 C 0.17813 0.11779 0.99704 0.0
C81 C 0.1642 0.09535 0.98673 0.0
C82 C 0.17167 0.09218 0.9654 0.0
C83 C 0.1933 0.11164 0.95404 0.0
C84 C 0.20666 0.13384 0.96396 0.0
C85 C 0.22941 0.15228 0.94912 0.0
C86 C 0.22827 0.13718 0.92888 0.0
C87 C 0.20672 0.11348 0.93194 0.0
C88 C 0.27872 0.15717 0.95677 0.0
C89 C 0.1999 0.17652 0.94783 0.0
C90 C 0.16808 0.04081 0.8825 0.0
C91 C 0.17709 0.03673 0.86126 0.0
C92 C 0.20333 0.05485 0.85022 0.0
C93 C 0.21945 0.07695 0.86005 0.0
C94 C 0.2093 0.08106 0.88118 0.0
C95 C 0.18461 0.06297 0.89212 0.0
C96 C 0.17819 0.07027 0.91458 0.0
C97 C 0.20191 0.09609 0.91513 0.0
C98 C 0.21979 0.10232 0.89552 0.0
C99 C 0.20287 0.05033 0.92831 0.0
C100 C 0.12634 0.07247 0.91875 0.0
H101 H 0.27327 0.19503 0.92544 0.0
H102 H 0.30995 0.17582 0.85165 0.0
H103 H 0.20805 0.15846 0.85785 0.0
H104 H 0.20153 0.12553 0.85443 0.0
H105 H 0.2444 0.14251 0.83967 0.0
H106 H 0.33527 0.12521 0.87618 0.0
H107 H 0.31562 0.12535 0.8497 0.0
H108 H 0.30009 0.10014 0.86751 0.0
H109 H 0.21031 0.15485 0.99288 0.0
H110 H 0.14708 0.08019 0.99519 0.0
H111 H 0.16023 0.07463 0.95859 0.0
H112 H 0.29478 0.13902 0.96171 0.0
H113 H 0.27916 0.17029 0.97033 0.0
H114 H 0.30117 0.16506 0.94455 0.0
H115 H 0.16301 0.17166 0.94905 0.0
H116 H 0.20336 0.18652 0.93277 0.0
H117 H 0.20831 0.18994 0.96067 0.0
H118 H 0.30966 0.22736 0.90423 0.0
C119 C 0.28064 0.19029 0.90954 0.0
C120 C 0.80971 0.14285 0.52783 0.0
C121 C 0.83406 0.1252 0.51575 0.0
C122 C 0.85113 0.10318 0.52552 0.0
C123 C 0.81925 0.1165 0.55864 0.0
C124 C 0.80285 0.13819 0.54913 0.0
C125 C 0.77812 0.15518 0.56418 0.0
H126 H 0.71254 0.17954 0.66356 0.0
C127 C 0.80608 0.11732 0.58091 0.0
C128 C 0.78203 0.14003 0.58425 0.0
H129 H 0.68821 0.22565 0.60907 0.0
H130 H 0.72558 0.19428 0.58734 0.0
H131 H 0.68142 0.12962 0.64343 0.0
H132 H 0.81538 0.16126 0.65204 0.0
H133 H 0.81704 0.12894 0.65929 0.0
H134 H 0.77935 0.15011 0.67281 0.0
H135 H 0.71217 0.12507 0.66725 0.0
H136 H 0.71713 0.10315 0.64568 0.0
C137 C 0.72799 0.15749 0.5569 0.0
C138 C 0.80429 0.18085 0.5654 0.0
C139 C 0.84842 0.04466 0.62991 0.0
C140 C 0.83818 0.03993 0.65099 0.0
C141 C 0.81283 0.05787 0.66227 0.0
C142 C 0.79806 0.08032 0.65282 0.0
C143 C 0.8083 0.08487 0.63176 0.0
C144 C 0.83263 0.0671 0.62055 0.0
C145 C 0.83823 0.07483 0.59806 0.0
C146 C 0.81342 0.10016 0.59773 0.0
C147 C 0.79657 0.10598 0.6176 0.0
C148 C 0.8141 0.05455 0.58433 0.0
C149 C 0.8898 0.07815 0.5936 0.0
C150 C 0.71575 0.18293 0.64696 0.0
C151 C 0.69828 0.20513 0.63797 0.0
C152 C 0.70178 0.20866 0.61627 0.0
C153 C 0.72354 0.19047 0.60374 0.0
C154 C 0.74142 0.1684 0.61302 0.0
C155 C 0.7366 0.16482 0.63426 0.0
C156 C 0.75497 0.13971 0.64139 0.0
C157 C 0.77328 0.12914 0.6211 0.0
C158 C 0.76563 0.14602 0.60452 0.0
C159 C 0.71466 0.12349 0.65003 0.0
C160 C 0.79358 0.14506 0.65733 0.0
H161 H 0.85751 0.08157 0.55328 0.0
H162 H 0.79668 0.16014 0.52092 0.0
H163 H 0.84174 0.17768 0.56545 0.0
H164 H 0.79731 0.19153 0.57982 0.0
H165 H 0.79621 0.19311 0.5518 0.0
H166 H 0.7156 0.13928 0.54998 0.0
H167 H 0.72442 0.17257 0.54489 0.0
H168 H 0.70425 0.16135 0.56984 0.0
H169 H 0.86753 0.031 0.62087 0.0
H170 H 0.8049 0.05461 0.67855 0.0
H171 H 0.77931 0.09328 0.66236 0.0
H172 H 0.78248 0.04739 0.592 0.0
H173 H 0.83653 0.03797 0.58157 0.0
H174 H 0.80264 0.06214 0.56919 0.0
H175 H 0.90755 0.08684 0.6072 0.0
H176 H 0.89692 0.09119 0.58048 0.0
H177 H 0.90599 0.05951 0.59042 0.0
H178 H 0.86964 0.08917 0.51658 0.0
C179 C 0.84382 0.09873 0.54683 0.0
C180 C 0.80234 0.3245 0.14525 0.0
C181 C 0.81531 0.30087 0.13707 0.0
C182 C 0.80452 0.29508 0.11617 0.0
C183 C 0.7684 0.33626 0.11209 0.0
C184 C 0.77876 0.34167 0.13264 0.0
C185 C 0.76075 0.36697 0.13947 0.0
H186 H 0.63487 0.47127 0.12006 0.0
C187 C 0.74256 0.35808 0.10358 0.0
C188 C 0.73767 0.37594 0.11967 0.0
H189 H 0.70735 0.45147 0.17632 0.0
H190 H 0.73606 0.41367 0.15992 0.0
H191 H 0.71915 0.45735 0.08973 0.0
H192 H 0.59971 0.41421 0.1075 0.0
H193 H 0.60765 0.411 0.08043 0.0
H194 H 0.59721 0.44203 0.09128 0.0
H195 H 0.66384 0.46416 0.07927 0.0
H196 H 0.70038 0.44066 0.06762 0.0
C197 C 0.8019 0.38423 0.14546 0.0
C198 C 0.72605 0.36217 0.15731 0.0
C199 C 0.69501 0.35953 0.02728 0.0
C200 C 0.67047 0.37703 0.01505 0.0
C201 C 0.65257 0.39884 0.02484 0.0
C202 C 0.65964 0.40336 0.04616 0.0
C203 C 0.68485 0.38591 0.058 0.0
C204 C 0.70163 0.36428 0.04858 0.0
C205 C 0.72668 0.34751 0.06373 0.0
C206 C 0.72368 0.36312 0.08359 0.0
C207 C 0.69905 0.38561 0.08016 0.0
C208 C 0.77648 0.34484 0.05617 0.0
C209 C 0.70032 0.32191 0.06558 0.0
C210 C 0.65678 0.45862 0.12876 0.0
C211 C 0.66871 0.46413 0.14953 0.0
C212 C 0.69793 0.44759 0.1603 0.0
C213 C 0.71438 0.42559 0.15075 0.0
C214 C 0.70177 0.42004 0.13012 0.0
C215 C 0.67418 0.43665 0.11929 0.0
C216 C 0.66684 0.42822 0.09707 0.0
C217 C 0.69322 0.40339 0.09666 0.0
C218 C 0.7131 0.39868 0.11616 0.0
C219 C 0.68826 0.44861 0.08252 0.0
C220 C 0.61516 0.42373 0.09369 0.0
H221 H 0.77435 0.3073 0.0878 0.0
H222 H 0.80945 0.32931 0.16134 0.0
H223 H 0.70606 0.3444 0.15449 0.0
H224 H 0.7002 0.37721 0.15867 0.0
H225 H 0.74366 0.36008 0.17253 0.0
H226 H 0.83275 0.37932 0.13626 0.0
H227 H 0.81069 0.38216 0.1622 0.0
H228 H 0.79604 0.40456 0.14195 0.0
H229 H 0.70962 0.34266 0.02038 0.0
H230 H 0.63276 0.41242 0.01603 0.0
H231 H 0.64516 0.42031 0.0526 0.0
H232 H 0.79028 0.3636 0.05099 0.0
H233 H 0.77859 0.3315 0.04279 0.0
H234 H 0.79978 0.33826 0.06849 0.0
H235 H 0.6631 0.32462 0.0632 0.0
H236 H 0.70308 0.3133 0.08124 0.0
H237 H 0.71212 0.30802 0.05374 0.0
H238 H 0.81432 0.27698 0.10953 0.0
C239 C 0.78137 0.31271 0.10361 0.0
C240 C 0.69618 0.54935 0.64505 0.0
C241 C 0.67757 0.52674 0.63672 0.0
C242 C 0.67212 0.52497 0.61488 0.0
C243 C 0.70159 0.56797 0.61047 0.0
C244 C 0.70832 0.5694 0.63173 0.0
C245 C 0.73017 0.59412 0.6382 0.0
H246 H 0.8156 0.71007 0.61308 0.0
C247 C 0.71669 0.59249 0.60121 0.0
C248 C 0.73387 0.60774 0.6174 0.0
H249 H 0.8157 0.67199 0.67283 0.0
H250 H 0.77591 0.63619 0.65805 0.0
H251 H 0.84098 0.65957 0.58549 0.0
H252 H 0.71201 0.69382 0.60058 0.0
H253 H 0.70887 0.68294 0.57475 0.0
H254 H 0.74972 0.70749 0.58152 0.0
H255 H 0.82446 0.69036 0.57608 0.0
H256 H 0.80766 0.66171 0.56271 0.0
C257 C 0.77767 0.58819 0.64767 0.0
C258 C 0.69716 0.60788 0.65321 0.0
C259 C 0.69577 0.60863 0.52368 0.0
C260 C 0.70352 0.62997 0.51087 0.0
C261 C 0.72084 0.65252 0.51991 0.0
C262 C 0.7311 0.65364 0.54128 0.0
C263 C 0.72367 0.63203 0.55383 0.0
C264 C 0.70566 0.61013 0.54501 0.0
C265 C 0.69816 0.58936 0.56082 0.0
C266 C 0.71506 0.60225 0.58056 0.0
C267 C 0.73045 0.62719 0.57637 0.0
C268 C 0.7281 0.56637 0.55476 0.0
C269 C 0.6464 0.58338 0.56174 0.0
C270 C 0.80685 0.69398 0.62289 0.0
C271 C 0.81927 0.69369 0.6441 0.0
C272 C 0.80728 0.67244 0.65639 0.0
C273 C 0.78406 0.65165 0.64777 0.0
C274 C 0.77275 0.65185 0.62653 0.0
C275 C 0.78396 0.67275 0.6144 0.0
C276 C 0.76952 0.66911 0.59202 0.0
C277 C 0.74897 0.64239 0.59273 0.0
C278 C 0.75074 0.63258 0.61306 0.0
C279 C 0.81268 0.67037 0.57819 0.0
C280 C 0.73337 0.68943 0.58673 0.0
H281 H 0.67856 0.54289 0.58536 0.0
H282 H 0.7007 0.55172 0.66167 0.0
H283 H 0.66136 0.60598 0.64765 0.0
H284 H 0.70368 0.62857 0.65423 0.0
H285 H 0.69886 0.59961 0.66912 0.0
H286 H 0.79104 0.56967 0.64201 0.0
H287 H 0.77615 0.58715 0.66494 0.0
H288 H 0.80405 0.60228 0.64304 0.0
H289 H 0.68182 0.59116 0.51725 0.0
H290 H 0.72723 0.66917 0.51035 0.0
H291 H 0.74461 0.67125 0.54719 0.0
H292 H 0.76081 0.57285 0.54768 0.0
H293 H 0.71047 0.55396 0.54324 0.0
H294 H 0.73824 0.55478 0.56834 0.0
H295 H 0.62627 0.60118 0.56058 0.0
H296 H 0.63567 0.57453 0.57654 0.0
H297 H 0.6359 0.57078 0.54866 0.0
H298 H 0.65904 0.50769 0.60781 0.0
C299 C 0.68379 0.54543 0.60177 0.0
C300 C 0.69219 0.8253 0.14375 0.0
C301 C 0.68141 0.80118 0.13553 0.0
C302 C 0.69221 0.7962 0.11447 0.0
C303 C 0.72643 0.8383 0.11092 0.0
C304 C 0.71507 0.84325 0.1314 0.0
C305 C 0.73166 0.86893 0.13854 0.0
H306 H 0.87246 0.96895 0.12432 0.0
C307 C 0.75284 0.86044 0.10294 0.0
C308 C 0.75651 0.87823 0.11921 0.0
H309 H 0.77764 0.95543 0.17513 0.0
H310 H 0.74915 0.9184 0.15778 0.0
H311 H 0.89893 0.91137 0.11207 0.0
H312 H 0.79253 0.96108 0.09109 0.0
H313 H 0.8077 0.9425 0.06956 0.0
H314 H 0.84948 0.96361 0.08113 0.0
H315 H 0.90911 0.93974 0.09706 0.0
H316 H 0.89587 0.90985 0.08464 0.0
C317 C 0.76451 0.86485 0.15714 0.0
C318 C 0.68963 0.88555 0.1437 0.0
C319 C 0.80633 0.86391 0.02739 0.0
C320 C 0.83407 0.8813 0.01637 0.0
C321 C 0.85493 0.90155 0.02727 0.0
C322 C 0.84706 0.90506 0.04861 0.0
C323 C 0.8182 0.88804 0.0593 0.0
C324 C 0.79927 0.86748 0.04885 0.0
C325 C 0.77191 0.85051 0.06323 0.0
C326 C 0.77449 0.86544 0.0835 0.0
C327 C 0.80171 0.88742 0.08107 0.0
C328 C 0.7963 0.82451 0.06488 0.0
C329 C 0.7225 0.84863 0.05494 0.0
C330 C 0.84541 0.9583 0.13185 0.0
C331 C 0.82926 0.965 0.15188 0.0
C332 C 0.79315 0.95034 0.16045 0.0
C333 C 0.77593 0.92884 0.15018 0.0
C334 C 0.79394 0.92189 0.13081 0.0
C335 C 0.82653 0.93716 0.12149 0.0
C336 C 0.83665 0.92867 0.09953 0.0
C337 C 0.80674 0.90493 0.09784 0.0
C338 C 0.78284 0.90077 0.11647 0.0
C339 C 0.88788 0.92216 0.09806 0.0
C340 C 0.82121 0.95 0.08443 0.0
H341 H 0.72201 0.8097 0.08629 0.0
H342 H 0.68345 0.83013 0.15965 0.0
H343 H 0.65822 0.87838 0.13586 0.0
H344 H 0.69372 0.90537 0.13802 0.0
H345 H 0.68271 0.88584 0.16071 0.0
H346 H 0.7892 0.8495 0.15354 0.0
H347 H 0.74539 0.85918 0.17136 0.0
H348 H 0.78525 0.88179 0.16094 0.0
H349 H 0.79054 0.84792 0.01946 0.0
H350 H 0.87636 0.91517 0.0191 0.0
H351 H 0.86348 0.92103 0.05595 0.0
H352 H 0.8335 0.82646 0.06183 0.0
H353 H 0.78232 0.81062 0.05345 0.0
H354 H 0.79414 0.81624 0.08071 0.0
H355 H 0.70961 0.86786 0.05086 0.0
H356 H 0.69848 0.84072 0.06653 0.0
H357 H 0.72079 0.83663 0.04071 0.0
H358 H 0.68456 0.77779 0.10766 0.0
C359 C 0.71445 0.81464 0.10213 0.0
C360 C 0.18751 0.95663 0.36998 0.0
C361 C 0.16074 0.97592 0.37868 0.0
C362 C 0.1464 0.97364 0.39958 0.0
C363 C 0.18467 0.93298 0.40252 0.0
C364 C 0.1986 0.93536 0.38202 0.0
C365 C 0.22416 0.91248 0.37453 0.0
H366 H 0.29771 0.79257 0.39075 0.0
C367 C 0.20029 0.90795 0.41027 0.0
C368 C 0.22305 0.89582 0.39383 0.0
H369 H 0.31476 0.83935 0.33594 0.0
H370 H 0.27695 0.87425 0.35304 0.0
H371 H 0.32656 0.83773 0.42281 0.0
H372 H 0.19579 0.80941 0.40246 0.0
H373 H 0.19221 0.815 0.42941 0.0
H374 H 0.23193 0.79181 0.41973 0.0
H375 H 0.30362 0.80782 0.4316 0.0
H376 H 0.29061 0.83728 0.44466 0.0
C377 C 0.27336 0.92105 0.36888 0.0
C378 C 0.19688 0.90047 0.35626 0.0
C379 C 0.17049 0.88124 0.48546 0.0
C380 C 0.17918 0.85867 0.49667 0.0
C381 C 0.19956 0.83814 0.48606 0.0
C382 C 0.21186 0.84015 0.46504 0.0
C383 C 0.20347 0.86285 0.4542 0.0
C384 C 0.18262 0.88283 0.46433 0.0
C385 C 0.17447 0.90504 0.44995 0.0
C386 C 0.19553 0.89542 0.42982 0.0
C387 C 0.2125 0.87068 0.43244 0.0
C388 C 0.2005 0.92849 0.4586 0.0
C389 C 0.1223 0.90883 0.44789 0.0
C390 C 0.29298 0.81038 0.38255 0.0
C391 C 0.30855 0.8134 0.362 0.0
C392 C 0.30272 0.8368 0.35178 0.0
C393 C 0.28074 0.85696 0.36174 0.0
C394 C 0.26466 0.85372 0.38221 0.0
C395 C 0.27159 0.8309 0.39243 0.0
C396 C 0.25427 0.83154 0.41453 0.0
C397 C 0.23473 0.85824 0.41564 0.0
C398 C 0.24055 0.87095 0.39658 0.0
C399 C 0.29559 0.82826 0.42931 0.0
C400 C 0.21677 0.8108 0.41687 0.0
H401 H 0.14668 0.9517 0.4274 0.0
H402 H 0.19834 0.95766 0.35386 0.0
H403 H 0.15956 0.90156 0.35919 0.0
H404 H 0.20357 0.88001 0.3541 0.0
H405 H 0.20404 0.91058 0.3414 0.0
H406 H 0.28466 0.93743 0.37866 0.0
H407 H 0.27573 0.9271 0.35233 0.0
H408 H 0.29886 0.90612 0.37192 0.0
H409 H 0.15494 0.89745 0.49296 0.0
H410 H 0.20554 0.82024 0.49393 0.0
H411 H 0.22722 0.82382 0.45799 0.0
H412 H 0.23542 0.92309 0.46361 0.0
H413 H 0.18265 0.93655 0.47233 0.0
H414 H 0.20519 0.9437 0.44692 0.0
H415 H 0.10344 0.89052 0.44993 0.0
H416 H 0.1122 0.91558 0.43226 0.0
H417 H 0.10951 0.92229 0.45983 0.0
H418 H 0.1258 0.98835 0.40659 0.0
C419 C 0.1585 0.95236 0.41159 0.0
C420 C 0.20384 0.67565 0.86448 0.0
C421 C 0.18474 0.69788 0.87265 0.0
C422 C 0.18612 0.70213 0.8943 0.0
C423 C 0.22789 0.66285 0.89914 0.0
C424 C 0.22468 0.65834 0.87796 0.0
C425 C 0.24529 0.6334 0.87179 0.0
H426 H 0.36943 0.53014 0.89685 0.0
C427 C 0.25368 0.64161 0.90854 0.0
C428 C 0.26354 0.62424 0.89258 0.0
H429 H 0.30495 0.54789 0.83812 0.0
H430 H 0.27364 0.58611 0.85282 0.0
H431 H 0.40338 0.5858 0.90753 0.0
H432 H 0.28088 0.54578 0.92549 0.0
H433 H 0.30277 0.56137 0.94763 0.0
H434 H 0.33641 0.53744 0.93492 0.0
H435 H 0.40338 0.56199 0.92758 0.0
H436 H 0.39127 0.59493 0.93322 0.0
C437 C 0.28411 0.6389 0.85601 0.0
C438 C 0.20667 0.61581 0.86334 0.0
C439 C 0.29861 0.64437 0.98518 0.0
C440 C 0.32713 0.62904 0.99758 0.0
C441 C 0.34732 0.60748 0.98835 0.0
C442 C 0.33915 0.60124 0.96745 0.0
C443 C 0.3109 0.61682 0.95535 0.0
C444 C 0.2915 0.63811 0.96418 0.0
C445 C 0.26464 0.65329 0.94856 0.0
C446 C 0.27053 0.63734 0.92902 0.0
C447 C 0.29737 0.61587 0.93316 0.0
C448 C 0.28754 0.67986 0.9465 0.0
C449 C 0.21431 0.65394 0.95576 0.0
C450 C 0.34851 0.54234 0.88725 0.0
C451 C 0.33956 0.53609 0.86632 0.0
C452 C 0.31188 0.55223 0.85432 0.0
C453 C 0.29387 0.57446 0.86288 0.0
C454 C 0.30332 0.58063 0.88373 0.0
C455 C 0.32962 0.56451 0.89567 0.0
C456 C 0.33453 0.57381 0.91776 0.0
C457 C 0.30672 0.5981 0.91705 0.0
C458 C 0.28921 0.60212 0.89699 0.0
C459 C 0.38572 0.5793 0.92195 0.0
C460 C 0.31287 0.5536 0.93237 0.0
H461 H 0.20825 0.68911 0.92394 0.0
H462 H 0.20226 0.67175 0.84791 0.0
H463 H 0.17262 0.62157 0.86925 0.0
H464 H 0.21035 0.59584 0.86857 0.0
H465 H 0.20516 0.61631 0.84606 0.0
H466 H 0.30506 0.65549 0.86119 0.0
H467 H 0.27009 0.64342 0.84038 0.0
H468 H 0.30819 0.62302 0.85441 0.0
H469 H 0.2821 0.66096 0.99159 0.0
H470 H 0.37039 0.5956 0.99714 0.0
H471 H 0.35569 0.58466 0.96146 0.0
H472 H 0.32532 0.67826 0.94704 0.0
H473 H 0.27704 0.69259 0.95942 0.0
H474 H 0.28025 0.68929 0.93154 0.0
H475 H 0.20405 0.63546 0.96292 0.0
H476 H 0.19026 0.65672 0.94273 0.0
H477 H 0.20896 0.66908 0.96755 0.0
H478 H 0.17122 0.71914 0.90084 0.0
C479 C 0.20778 0.68476 0.90761 0.0
C480 C 0.86821 0.10632 0.26299 0.0
C481 C 0.88237 0.06435 0.27718 0.0
C482 C 0.89541 0.09008 0.27457 0.0
C483 C 0.84321 0.05497 0.26707 0.0
C484 C 0.82814 0.09718 0.25331 0.0
C485 C 0.81616 0.07134 0.25517 0.0
N486 N 0.88145 0.13104 0.26087 0.0
C487 C 0.85547 0.14788 0.25 0.0
C488 C 0.80157 0.11427 0.24189 0.0
C489 C 0.8152 0.13975 0.24031 0.0
Gd490 Gd 0.06176 0.14174 0.23945 0.0
Gd491 Gd 0.95006 0.14291 0.27699 0.0
N492 N 0.9333 0.0997 0.28409 0.0
C493 C 0.90817 0.04904 0.29047 0.0
C494 C 0.9551 0.0856 0.29887 0.0
C495 C 0.944 0.0599 0.30176 0.0
H496 H 0.98013 0.09416 0.309 0.0
H497 H 0.96241 0.04866 0.31307 0.0
H498 H 0.04479 0.20408 0.23041 0.0
H499 H 0.86601 0.16755 0.24876 0.0
H500 H 0.08927 0.24406 0.23158 0.0
H501 H 0.8993 0.02919 0.2929 0.0
H502 H 0.83304 0.03519 0.26869 0.0
H503 H 0.1312 0.09583 0.25661 0.0
H504 H 0.77057 0.10797 0.23421 0.0
H505 H 0.79483 0.15311 0.23156 0.0
H506 H 0.23747 0.21845 0.25486 0.0
H507 H 0.78582 0.06388 0.24763 0.0
H508 H 0.26005 0.13037 0.27111 0.0
H509 H 0.21025 0.09216 0.26945 0.0
N510 N 0.1357 0.13586 0.25204 0.0
C511 C 0.16252 0.15709 0.25264 0.0
C512 C 0.15227 0.11272 0.25783 0.0
C513 C 0.22523 0.13214 0.2657 0.0
C514 C 0.19718 0.11053 0.26485 0.0
C515 C 0.20809 0.15578 0.25951 0.0
H516 H 0.27005 0.17739 0.26534 0.0
N517 N 0.09921 0.18123 0.24131 0.0
C518 C 0.14404 0.18034 0.24676 0.0
C519 C 0.15068 0.22588 0.24211 0.0
C520 C 0.17081 0.20274 0.24756 0.0
C521 C 0.0797 0.2036 0.2355 0.0
C522 C 0.10498 0.22629 0.236 0.0
O523 O 0.94513 0.12571 0.24456 0.0
O524 O 0.01503 0.10745 0.2402 0.0
O525 O 0.05891 0.14919 0.20617 0.0
O526 O 0.10863 0.12296 0.2184 0.0
O527 O 0.01723 0.12757 0.28928 0.0
O528 O 0.04946 0.10831 0.2607 0.0
O529 O 0.06901 0.16389 0.26967 0.0
O530 O 0.99623 0.17725 0.27626 0.0
O531 O 0.94056 0.14452 0.31096 0.0
O532 O 0.8958 0.16557 0.29004 0.0
O533 O 0.99958 0.16247 0.22748 0.0
O534 O 0.95427 0.17638 0.25493 0.0
C535 C 0.97104 0.10797 0.23656 0.0
C536 C 0.04473 0.11066 0.28096 0.0
C537 C 0.08124 0.11555 0.18436 0.0
C538 C 0.08384 0.10626 0.14708 0.0
C539 C 0.05067 0.07561 0.17132 0.0
C540 C 0.06032 0.09189 0.18793 0.0
C541 C 0.06228 0.08269 0.15103 0.0
C542 C 0.09301 0.12269 0.16394 0.0
C543 C 0.09083 0.13297 0.20176 0.0
C544 C 0.21641 0.20143 0.25413 0.0
C545 C 0.23495 0.17804 0.26013 0.0
H546 H 0.17008 0.24352 0.24257 0.0
C547 C 0.03995 0.1777 0.2803 0.0
C548 C 0.96757 0.17717 0.23527 0.0
C549 C 0.88052 0.17039 0.32695 0.0
C550 C 0.86319 0.17228 0.36423 0.0
C551 C 0.82844 0.20224 0.34025 0.0
C552 C 0.85128 0.19105 0.32362 0.0
C553 C 0.83444 0.19303 0.36042 0.0
C554 C 0.8861 0.16086 0.34736 0.0
C555 C 0.90628 0.15993 0.30914 0.0
H556 H 0.03463 0.05732 0.1742 0.0
H557 H 0.05193 0.08601 0.2036 0.0
H558 H 0.05531 0.06943 0.13848 0.0
H559 H 0.10908 0.14105 0.16122 0.0
H560 H 0.80612 0.21819 0.3375 0.0
H561 H 0.84647 0.19885 0.30816 0.0
H562 H 0.81613 0.20198 0.37307 0.0
H563 H 0.90864 0.14498 0.35019 0.0
C564 C 0.65633 0.38785 0.75534 0.0
C565 C 0.65468 0.43214 0.76597 0.0
C566 C 0.63579 0.40735 0.76649 0.0
C567 C 0.69307 0.4372 0.75351 0.0
C568 C 0.69511 0.39279 0.74297 0.0
C569 C 0.71318 0.4176 0.74203 0.0
N570 N 0.63688 0.36425 0.75579 0.0
C571 C 0.65568 0.34447 0.74515 0.0
C572 C 0.71403 0.37271 0.73162 0.0
C573 C 0.69439 0.34842 0.73283 0.0
Gd574 Gd 0.45472 0.36554 0.74094 0.0
Gd575 Gd 0.57 0.35981 0.77544 0.0
N576 N 0.59768 0.40206 0.77791 0.0
C577 C 0.63481 0.45103 0.77825 0.0
C578 C 0.58097 0.41986 0.79132 0.0
C579 C 0.59841 0.44471 0.79131 0.0
H580 H 0.55506 0.41499 0.80254 0.0
H581 H 0.58421 0.45888 0.80162 0.0
H582 H 0.46452 0.30367 0.72626 0.0
H583 H 0.64064 0.32567 0.74614 0.0
H584 H 0.42337 0.26332 0.73162 0.0
H585 H 0.64831 0.4703 0.7783 0.0
H586 H 0.70769 0.45619 0.75277 0.0
H587 H 0.38923 0.41073 0.76143 0.0
H588 H 0.74375 0.37577 0.72189 0.0
H589 H 0.70891 0.33276 0.7242 0.0
H590 H 0.28927 0.28689 0.76948 0.0
H591 H 0.74274 0.42183 0.73247 0.0
H592 H 0.2695 0.37494 0.78653 0.0
H593 H 0.31602 0.41375 0.78034 0.0
N594 N 0.38432 0.37068 0.75743 0.0
C595 C 0.35907 0.34914 0.76039 0.0
C596 C 0.36929 0.3937 0.76427 0.0
C597 C 0.30158 0.37351 0.77826 0.0
C598 C 0.32777 0.39547 0.77484 0.0
C599 C 0.31705 0.34998 0.771 0.0
H600 H 0.25987 0.32762 0.78242 0.0
N601 N 0.41755 0.32574 0.74371 0.0
C602 C 0.37607 0.32602 0.7533 0.0
C603 C 0.36869 0.28051 0.74883 0.0
C604 C 0.35093 0.30334 0.75641 0.0
C605 C 0.43377 0.30373 0.73534 0.0
C606 C 0.40998 0.28078 0.73803 0.0
O607 O 0.57211 0.37556 0.74244 0.0
O608 O 0.50574 0.39777 0.73982 0.0
O609 O 0.45343 0.36159 0.70729 0.0
O610 O 0.40506 0.38623 0.72243 0.0
O611 O 0.50917 0.38038 0.78931 0.0
O612 O 0.47429 0.39912 0.76091 0.0
O613 O 0.44978 0.34765 0.77296 0.0
O614 O 0.51836 0.32794 0.77858 0.0
O615 O 0.58555 0.3613 0.80894 0.0
O616 O 0.62244 0.33564 0.78827 0.0
O617 O 0.51293 0.34235 0.72788 0.0
O618 O 0.55262 0.3254 0.75585 0.0
C619 C 0.5489 0.39486 0.73523 0.0
C620 C 0.48223 0.3977 0.78107 0.0
C621 C 0.38143 0.3651 0.6916 0.0
C622 C 0.35002 0.35793 0.65683 0.0
C623 C 0.31522 0.33763 0.68699 0.0
C624 C 0.3474 0.34921 0.69998 0.0
C625 C 0.31664 0.34179 0.66552 0.0
C626 C 0.38233 0.36965 0.67 0.0
C627 C 0.41761 0.3758 0.70497 0.0
C628 C 0.30899 0.30414 0.76693 0.0
C629 C 0.29217 0.32736 0.77424 0.0
H630 H 0.35045 0.26267 0.75094 0.0
C631 C 0.47454 0.33022 0.78207 0.0
C632 C 0.54163 0.3259 0.73597 0.0
C633 C 0.64427 0.33426 0.82476 0.0
C634 C 0.66709 0.33476 0.86156 0.0
C635 C 0.69979 0.30398 0.8376 0.0
C636 C 0.67413 0.31392 0.82131 0.0
C637 C 0.69629 0.31421 0.85754 0.0
C638 C 0.64071 0.34462 0.84501 0.0
C639 C 0.6168 0.34398 0.80714 0.0
H640 H 0.2892 0.32531 0.69358 0.0
H641 H 0.34582 0.34561 0.7165 0.0
H642 H 0.29131 0.33266 0.6557 0.0
H643 H 0.40868 0.38181 0.66341 0.0
H644 H 0.72238 0.28817 0.83478 0.0
H645 H 0.67749 0.30549 0.806 0.0
H646 H 0.71618 0.30576 0.86993 0.0
H647 H 0.61803 0.36042 0.84782 0.0
C648 C 0.85983 0.82234 0.77355 0.0
C649 C 0.8735 0.7842 0.79382 0.0
C650 C 0.88767 0.80843 0.78673 0.0
C651 C 0.83167 0.77396 0.78701 0.0
C652 C 0.81733 0.81243 0.76707 0.0
C653 C 0.80358 0.78808 0.77373 0.0
N654 N 0.87443 0.84557 0.76699 0.0
C655 C 0.84716 0.86069 0.7551 0.0
C656 C 0.78996 0.82732 0.75407 0.0
C657 C 0.80479 0.85165 0.74821 0.0
Gd658 Gd 0.04842 0.86246 0.73734 0.0
Gd659 Gd 0.94479 0.85964 0.77982 0.0
N660 N 0.92763 0.81901 0.79328 0.0
C661 C 0.90122 0.77126 0.80799 0.0
C662 C 0.953 0.80726 0.80826 0.0
C663 C 0.94083 0.78301 0.81545 0.0
H664 H 0.98206 0.81673 0.81515 0.0
H665 H 0.96155 0.77362 0.82705 0.0
H666 H 0.03326 0.91946 0.71616 0.0
H667 H 0.85837 0.87961 0.75079 0.0
H668 H 0.07031 0.96208 0.71662 0.0
H669 H 0.89159 0.75259 0.81378 0.0
H670 H 0.82036 0.75532 0.79221 0.0
H671 H 0.12526 0.82211 0.75917 0.0
H672 H 0.75713 0.82035 0.7487 0.0
H673 H 0.78354 0.86347 0.73847 0.0
H674 H 0.20092 0.95103 0.76075 0.0
H675 H 0.77119 0.78006 0.7688 0.0
H676 H 0.23123 0.86724 0.78646 0.0
H677 H 0.19501 0.82524 0.78022 0.0
N678 N 0.11783 0.86227 0.75592 0.0
C679 C 0.13904 0.88531 0.75785 0.0
C680 C 0.13885 0.84072 0.7628 0.0
C681 C 0.19963 0.86608 0.77776 0.0
C682 C 0.17922 0.84235 0.77433 0.0
C683 C 0.18031 0.88785 0.76897 0.0
H684 H 0.23336 0.91414 0.77895 0.0
N685 N 0.08102 0.90324 0.73707 0.0
C686 C 0.1207 0.90626 0.74774 0.0
C687 C 0.12418 0.95046 0.73733 0.0
C688 C 0.14297 0.93012 0.74845 0.0
C689 C 0.0637 0.92257 0.72534 0.0
C690 C 0.08464 0.94659 0.72554 0.0
O691 O 0.9336 0.84025 0.74844 0.0
O692 O 0.00516 0.82693 0.73846 0.0
O693 O 0.04128 0.8646 0.70358 0.0
O694 O 0.10344 0.85052 0.71714 0.0
O695 O 0.01387 0.84375 0.78828 0.0
O696 O 0.04462 0.82731 0.75807 0.0
O697 O 0.03197 0.8952 0.75904 0.0
O698 O 0.01383 0.87462 0.78907 0.0
O699 O 0.91497 0.8613 0.81108 0.0
O700 O 0.91408 0.89472 0.79064 0.0
O701 O 0.98016 0.87705 0.72672 0.0
O702 O 0.94375 0.89209 0.75642 0.0
C703 C 0.96053 0.82596 0.737 0.0
C704 C 0.03763 0.82643 0.77836 0.0
C705 C 0.08345 0.83499 0.68385 0.0
C706 C 0.0954 0.82375 0.64724 0.0
C707 C 0.08528 0.79064 0.67356 0.0
C708 C 0.0808 0.80909 0.68903 0.0
C709 C 0.09282 0.79783 0.65287 0.0
C710 C 0.09022 0.84223 0.66299 0.0
C711 C 0.08103 0.85475 0.70003 0.0
C712 C 0.18332 0.93284 0.76001 0.0
C713 C 0.20179 0.91181 0.77036 0.0
H714 H 0.14024 0.96911 0.73754 0.0
C715 C 0.03337 0.8937 0.77939 0.0
C716 C 0.95208 0.89267 0.73618 0.0
C717 C 0.87896 0.89967 0.82476 0.0
C718 C 0.85677 0.90681 0.86115 0.0
C719 C 0.82953 0.93483 0.83362 0.0
C720 C 0.85355 0.92098 0.81881 0.0
C721 C 0.83087 0.9278 0.85456 0.0
C722 C 0.88048 0.89259 0.84598 0.0
C723 C 0.9031 0.88491 0.80863 0.0
H724 H 0.08336 0.77067 0.67764 0.0
H725 H 0.07544 0.80317 0.70503 0.0
H726 H 0.09752 0.783 0.64139 0.0
H727 H 0.09157 0.86231 0.65912 0.0
H728 H 0.80955 0.95105 0.82884 0.0
H729 H 0.8517 0.92675 0.80263 0.0
H730 H 0.81113 0.93875 0.86557 0.0
H731 H 0.90075 0.87642 0.85067 0.0
C732 C 0.63315 0.68116 0.26079 0.0
C733 C 0.61999 0.72243 0.27634 0.0
C734 C 0.60749 0.69667 0.27359 0.0
C735 C 0.65723 0.73254 0.26521 0.0
C736 C 0.67162 0.69088 0.25023 0.0
C737 C 0.68307 0.71678 0.25223 0.0
N738 N 0.6207 0.65632 0.25891 0.0
C739 C 0.64715 0.63962 0.24812 0.0
C740 C 0.69771 0.67417 0.23823 0.0
C741 C 0.68576 0.64836 0.23741 0.0
Gd742 Gd 0.44435 0.64032 0.2372 0.0
Gd743 Gd 0.55401 0.64346 0.27618 0.0
N744 N 0.57198 0.68618 0.28427 0.0
C745 C 0.59566 0.737 0.29073 0.0
C746 C 0.55099 0.69969 0.29963 0.0
C747 C 0.56159 0.72543 0.30272 0.0
H748 H 0.52653 0.69063 0.3098 0.0
H749 H 0.54394 0.73621 0.31456 0.0
H750 H 0.4476 0.58069 0.21987 0.0
H751 H 0.63767 0.61971 0.24741 0.0
H752 H 0.40589 0.5399 0.2252 0.0
H753 H 0.60414 0.75687 0.2933 0.0
H754 H 0.66705 0.75236 0.26695 0.0
H755 H 0.37296 0.68599 0.25413 0.0
H756 H 0.72748 0.68092 0.22983 0.0
H757 H 0.70613 0.63522 0.22845 0.0
H758 H 0.2843 0.5617 0.27194 0.0
H759 H 0.71236 0.72468 0.24415 0.0
H760 H 0.26531 0.64998 0.28842 0.0
H761 H 0.30479 0.68916 0.27643 0.0
N762 N 0.37582 0.64562 0.25585 0.0
C763 C 0.35268 0.62398 0.2609 0.0
C764 C 0.35757 0.66883 0.26023 0.0
C765 C 0.29608 0.64852 0.27918 0.0
C766 C 0.31829 0.67067 0.27247 0.0
C767 C 0.31239 0.62478 0.27285 0.0
H768 H 0.25796 0.60225 0.28665 0.0
N769 N 0.40546 0.6013 0.24069 0.0
C770 C 0.36749 0.60113 0.25275 0.0
C771 C 0.35734 0.55609 0.24653 0.0
C772 C 0.34274 0.57843 0.25629 0.0
C773 C 0.41833 0.57998 0.2301 0.0
C774 C 0.39489 0.55695 0.23312 0.0
O775 O 0.55908 0.65703 0.24269 0.0
O776 O 0.48979 0.67519 0.23681 0.0
O777 O 0.44983 0.63395 0.20393 0.0
O778 O 0.39215 0.65424 0.21602 0.0
O779 O 0.48751 0.66074 0.28705 0.0
O780 O 0.45351 0.67583 0.25708 0.0
O781 O 0.46101 0.60836 0.25962 0.0
O782 O 0.4865 0.62934 0.28843 0.0
O783 O 0.59071 0.64527 0.30586 0.0
O784 O 0.5862 0.60948 0.28849 0.0
O785 O 0.50875 0.62164 0.22572 0.0
O786 O 0.54981 0.60881 0.255 0.0
C787 C 0.53394 0.67445 0.23376 0.0
C788 C 0.46074 0.67691 0.27735 0.0
C789 C 0.41887 0.66537 0.18247 0.0
C790 C 0.41355 0.67551 0.14549 0.0
C791 C 0.44942 0.70538 0.16944 0.0
C792 C 0.44077 0.68881 0.18602 0.0
C793 C 0.43635 0.6987 0.14921 0.0
C794 C 0.40476 0.65893 0.16224 0.0
C795 C 0.41349 0.64676 0.1994 0.0
C796 C 0.30377 0.57894 0.26898 0.0
C797 C 0.28875 0.60205 0.27734 0.0
H798 H 0.33933 0.53823 0.24891 0.0
C799 C 0.4639 0.61048 0.27991 0.0
C800 C 0.53826 0.6067 0.23514 0.0
C801 C 0.62776 0.60826 0.32131 0.0
C802 C 0.65413 0.60446 0.35728 0.0
C803 C 0.67538 0.57277 0.33164 0.0
C804 C 0.65078 0.5857 0.31639 0.0
C805 C 0.67702 0.58205 0.35199 0.0
C806 C 0.62965 0.61768 0.34188 0.0
C807 C 0.60084 0.62124 0.30507 0.0
H808 H 0.46652 0.72338 0.17227 0.0
H809 H 0.4515 0.6941 0.20156 0.0
H810 H 0.44356 0.71171 0.13651 0.0
H811 H 0.38809 0.64074 0.15943 0.0
H812 H 0.69302 0.55542 0.3277 0.0
H813 H 0.6498 0.57805 0.30073 0.0
H814 H 0.69597 0.57166 0.36368 0.0
H815 H 0.61166 0.6349 0.34599 0.0
C816 C 0.09998 0.00398 0.36425 0.0
C817 C 0.14617 0.99761 0.36555 0.0
C818 C 0.08514 0.02301 0.35051 0.0
C819 C 0.11739 0.0362 0.338 0.0
C820 C 0.16425 0.03031 0.33969 0.0
C821 C 0.17804 0.01092 0.35332 0.0
C822 C 0.03478 0.02837 0.34886 0.0
C823 C 0.19971 0.04426 0.3269 0.0
C824 C 0.07408 0.06713 0.28832 0.0
C825 C 0.06714 0.09222 0.29489 0.0
C826 C 0.09092 0.04874 0.30214 0.0
C827 C 0.10187 0.05578 0.32287 0.0
C828 C 0.09648 0.08136 0.3293 0.0
C829 C 0.07876 0.09923 0.31528 0.0
C830 C 0.09553 0.02159 0.29476 0.0
C831 C 0.10843 0.08971 0.35115 0.0
H832 H 0.07525 0.99345 0.37346 0.0
H833 H 0.21381 0.00608 0.35441 0.0
H834 H 0.02832 0.049 0.35082 0.0
H835 H 0.02247 0.02293 0.33312 0.0
H836 H 0.01449 0.01769 0.36063 0.0
H837 H 0.23492 0.03818 0.33072 0.0
H838 H 0.19353 0.04085 0.31008 0.0
H839 H 0.19714 0.06508 0.32954 0.0
H840 H 0.06463 0.06163 0.27261 0.0
H841 H 0.07356 0.11869 0.32032 0.0
H842 H 0.07256 0.00902 0.30396 0.0
H843 H 0.13084 0.01489 0.29729 0.0
H844 H 0.08696 0.01942 0.27799 0.0
H845 H 0.08567 0.07996 0.36248 0.0
H846 H 0.10512 0.1106 0.35326 0.0
H847 H 0.1439 0.08419 0.35496 0.0
C848 C 0.40708 0.50942 0.85774 0.0
C849 C 0.35998 0.51333 0.8566 0.0
C850 C 0.42757 0.48954 0.84664 0.0
C851 C 0.4001 0.47302 0.83441 0.0
C852 C 0.35223 0.4762 0.83401 0.0
C853 C 0.33278 0.49648 0.84498 0.0
C854 C 0.47877 0.48694 0.84722 0.0
C855 C 0.32175 0.4587 0.82144 0.0
C856 C 0.45265 0.44131 0.78723 0.0
C857 C 0.46162 0.41688 0.79483 0.0
C858 C 0.43312 0.45983 0.80006 0.0
C859 C 0.42163 0.45358 0.82088 0.0
C860 C 0.43041 0.42885 0.82861 0.0
C861 C 0.45077 0.41082 0.81551 0.0
C862 C 0.42486 0.48609 0.79132 0.0
C863 C 0.41785 0.42137 0.85059 0.0
H864 H 0.42813 0.52259 0.86659 0.0
H865 H 0.29626 0.49939 0.84427 0.0
H866 H 0.48821 0.46725 0.8516 0.0
H867 H 0.49301 0.49062 0.83147 0.0
H868 H 0.49498 0.50039 0.85839 0.0
H869 H 0.28502 0.46232 0.82428 0.0
H870 H 0.32873 0.46135 0.80459 0.0
H871 H 0.32899 0.43852 0.82523 0.0
H872 H 0.46145 0.44606 0.77128 0.0
H873 H 0.45742 0.39182 0.82133 0.0
H874 H 0.44255 0.5006 0.80103 0.0
H875 H 0.38792 0.49038 0.79177 0.0
H876 H 0.43696 0.48805 0.77499 0.0
H877 H 0.43564 0.43399 0.86187 0.0
H878 H 0.42671 0.40131 0.85415 0.0
H879 H 0.3807 0.42384 0.85302 0.0
C880 C 0.68629 0.5007 0.66953 0.0
C881 C 0.66291 0.50551 0.65081 0.0
C882 C 0.67059 0.48221 0.68371 0.0
C883 C 0.63136 0.46756 0.67881 0.0
C884 C 0.60872 0.47148 0.65961 0.0
C885 C 0.62434 0.49059 0.64601 0.0
C886 C 0.69528 0.47883 0.70417 0.0
C887 C 0.5672 0.45592 0.65366 0.0
C888 C 0.60667 0.40602 0.70813 0.0
C889 C 0.5715 0.41355 0.72147 0.0
C890 C 0.62709 0.42346 0.69434 0.0
C891 C 0.61236 0.44908 0.69418 0.0
C892 C 0.57791 0.4569 0.70819 0.0
C893 C 0.55753 0.43896 0.72151 0.0
C894 C 0.66333 0.41428 0.67953 0.0
C895 C 0.5622 0.48419 0.70896 0.0
H896 H 0.71678 0.51153 0.67327 0.0
H897 H 0.60541 0.49425 0.63185 0.0
H898 H 0.67154 0.48223 0.71732 0.0
H899 H 0.70746 0.45899 0.70565 0.0
H900 H 0.72494 0.49197 0.70576 0.0
H901 H 0.55586 0.45979 0.63746 0.0
H902 H 0.57449 0.4353 0.65517 0.0
H903 H 0.53869 0.46025 0.6644 0.0
H904 H 0.61739 0.38632 0.70809 0.0
H905 H 0.53079 0.44485 0.73208 0.0
H906 H 0.6947 0.42603 0.68114 0.0
H907 H 0.65123 0.41639 0.66324 0.0
H908 H 0.67217 0.39401 0.68224 0.0
H909 H 0.59183 0.49716 0.71125 0.0
H910 H 0.53727 0.48749 0.72169 0.0
H911 H 0.54605 0.48938 0.69394 0.0
C912 C 0.87094 0.0075 0.15374 0.0
C913 C 0.84966 0.98683 0.16392 0.0
C914 C 0.89134 0.02751 0.16503 0.0
C915 C 0.88854 0.02766 0.18704 0.0
C916 C 0.86611 0.00742 0.19744 0.0
C917 C 0.84824 0.98701 0.18587 0.0
C918 C 0.91646 0.04834 0.15341 0.0
C919 C 0.86075 0.00738 0.22086 0.0
C920 C 0.97326 0.0648 0.22017 0.0
C921 C 0.95003 0.08761 0.22369 0.0
C922 C 0.95437 0.04558 0.20761 0.0
C923 C 0.91004 0.04862 0.19929 0.0
C924 C 0.88594 0.07137 0.20319 0.0
C925 C 0.9067 0.09082 0.21492 0.0
C926 C 0.98187 0.02198 0.20332 0.0
C927 C 0.83777 0.07491 0.1955 0.0
H928 H 0.87176 0.00826 0.1369 0.0
H929 H 0.83354 0.97107 0.19425 0.0
H930 H 0.90047 0.06701 0.15652 0.0
H931 H 0.95221 0.04959 0.15901 0.0
H932 H 0.91679 0.04508 0.13631 0.0
H933 H 0.84024 0.9909 0.22651 0.0
H934 H 0.89464 0.00688 0.22849 0.0
H935 H 0.84391 0.02517 0.22593 0.0
H936 H 0.00641 0.06193 0.22721 0.0
H937 H 0.88881 0.10851 0.21731 0.0
H938 H 0.98181 0.01765 0.1864 0.0
H939 H 0.96632 0.00542 0.21145 0.0
H940 H 0.01777 0.02404 0.20863 0.0
H941 H 0.83545 0.07098 0.17856 0.0
H942 H 0.82509 0.09444 0.19845 0.0
H943 H 0.81487 0.06113 0.20352 0.0
C944 C 0.90029 0.01092 0.66257 0.0
C945 C 0.85378 0.01655 0.66155 0.0
C946 C 0.91579 0.99022 0.67441 0.0
C947 C 0.88382 0.97455 0.68505 0.0
C948 C 0.83667 0.97967 0.68339 0.0
C949 C 0.82225 0.0008 0.67184 0.0
C950 C 0.96639 0.9856 0.67609 0.0
C951 C 0.8015 0.96308 0.69411 0.0
C952 C 0.92351 0.90916 0.70221 0.0
C953 C 0.93178 0.91307 0.72349 0.0
C954 C 0.90704 0.92886 0.68959 0.0
C955 C 0.89976 0.9532 0.69837 0.0
C956 C 0.90795 0.95721 0.71988 0.0
C957 C 0.92337 0.93698 0.73225 0.0
C958 C 0.89773 0.92367 0.66684 0.0
C959 C 0.90145 0.98302 0.72973 0.0
H960 H 0.92461 0.0233 0.65475 0.0
H961 H 0.78624 0.00517 0.67093 0.0
H962 H 0.97725 0.98719 0.69261 0.0
H963 H 0.97443 0.96603 0.67087 0.0
H964 H 0.9867 0.99933 0.66666 0.0
H965 H 0.7661 0.96874 0.69021 0.0
H966 H 0.80618 0.94288 0.68961 0.0
H967 H 0.80597 0.96427 0.71124 0.0
H968 H 0.92988 0.89062 0.69543 0.0
H969 H 0.93037 0.94013 0.74864 0.0
H970 H 0.92024 0.93577 0.65701 0.0
H971 H 0.86203 0.92868 0.66299 0.0
H972 H 0.90333 0.90342 0.66264 0.0
H973 H 0.92358 0.99731 0.72185 0.0
H974 H 0.90965 0.98302 0.74663 0.0
H975 H 0.86569 0.98925 0.72771 0.0
C976 C 0.60313 0.4901 0.16188 0.0
C977 C 0.65029 0.48666 0.16038 0.0
C978 C 0.58515 0.50995 0.17393 0.0
C979 C 0.61516 0.527 0.18431 0.0
C980 C 0.66287 0.52405 0.18225 0.0
C981 C 0.67986 0.50372 0.17049 0.0
C982 C 0.53408 0.51224 0.17601 0.0
C983 C 0.69595 0.54218 0.19267 0.0
C984 C 0.56672 0.59058 0.2011 0.0
C985 C 0.5597 0.58667 0.22247 0.0
C986 C 0.58557 0.57151 0.18857 0.0
C987 C 0.59663 0.54773 0.19755 0.0
C988 C 0.58965 0.5437 0.21917 0.0
C989 C 0.57177 0.56337 0.23143 0.0
C990 C 0.59354 0.57678 0.16572 0.0
C991 C 0.60025 0.51846 0.22924 0.0
H992 H 0.58033 0.4767 0.15424 0.0
H993 H 0.71637 0.50106 0.16923 0.0
H994 H 0.52418 0.5104 0.19264 0.0
H995 H 0.52298 0.5313 0.17068 0.0
H996 H 0.51546 0.49751 0.16689 0.0
H997 H 0.73194 0.53802 0.18864 0.0
H998 H 0.6884 0.56206 0.18805 0.0
H999 H 0.69207 0.54099 0.20984 0.0
H1000 H 0.55779 0.60871 0.19417 0.0
H1001 H 0.56597 0.56027 0.24793 0.0
H1002 H 0.57268 0.56354 0.15613 0.0
H1003 H 0.6298 0.57341 0.16174 0.0
H1004 H 0.58482 0.59662 0.16135 0.0
H1005 H 0.58015 0.50308 0.22162 0.0
H1006 H 0.5925 0.51834 0.24618 0.0
H1007 H 0.6368 0.51391 0.22709 0.0
C1008 C 0.32352 0.50398 0.34179 0.0
C1009 C 0.35176 0.48965 0.35486 0.0
C1010 C 0.34086 0.52474 0.33045 0.0
C1011 C 0.38773 0.53108 0.33199 0.0
C1012 C 0.4162 0.51704 0.34554 0.0
C1013 C 0.39778 0.49657 0.35693 0.0
C1014 C 0.30931 0.53927 0.31626 0.0
C1015 C 0.46643 0.5231 0.34745 0.0
C1016 C 0.44182 0.56523 0.28599 0.0
C1017 C 0.44467 0.59029 0.29329 0.0
C1018 C 0.4234 0.54578 0.29844 0.0
C1019 C 0.40739 0.55159 0.31868 0.0
C1020 C 0.41008 0.57695 0.32611 0.0
C1021 C 0.42904 0.596 0.31335 0.0
C1022 C 0.42125 0.519 0.28993 0.0
C1023 C 0.39245 0.58397 0.34742 0.0
H1024 H 0.2878 0.49882 0.34033 0.0
H1025 H 0.41973 0.48539 0.36691 0.0
H1026 H 0.31438 0.56011 0.31813 0.0
H1027 H 0.31719 0.53446 0.29985 0.0
H1028 H 0.2729 0.53457 0.31923 0.0
H1029 H 0.48352 0.51103 0.35928 0.0
H1030 H 0.48335 0.52016 0.33219 0.0
H1031 H 0.4715 0.54338 0.35174 0.0
H1032 H 0.45464 0.56074 0.2706 0.0
H1033 H 0.43098 0.61546 0.31894 0.0
H1034 H 0.38531 0.51234 0.28925 0.0
H1035 H 0.43981 0.50589 0.30044 0.0
H1036 H 0.43614 0.51761 0.27406 0.0
H1037 H 0.35566 0.57907 0.34857 0.0
H1038 H 0.39697 0.60456 0.35085 0.0
H1039 H 0.4104 0.57284 0.35956 0.0
C1040 C 0.11201 0.00741 0.853 0.0
C1041 C 0.15798 0.01417 0.85038 0.0
C1042 C 0.09263 0.9871 0.84181 0.0
C1043 C 0.12 0.9731 0.8278 0.0
C1044 C 0.16679 0.97935 0.82558 0.0
C1045 C 0.18512 0.99997 0.83677 0.0
C1046 C 0.04257 0.98105 0.84456 0.0
C1047 C 0.19726 0.96493 0.81087 0.0
C1048 C 0.07517 0.90825 0.81105 0.0
C1049 C 0.05609 0.91386 0.79159 0.0
C1050 C 0.0969 0.92727 0.82286 0.0
C1051 C 0.09914 0.95246 0.81505 0.0
C1052 C 0.08024 0.95812 0.7953 0.0
C1053 C 0.05876 0.93873 0.78384 0.0
C1054 C 0.11751 0.92042 0.84365 0.0
C1055 C 0.08236 0.98468 0.78634 0.0
H1056 H 0.09082 0.01852 0.86335 0.0
H1057 H 0.22079 0.00502 0.83484 0.0
H1058 H 0.02446 0.98371 0.82954 0.0
H1059 H 0.03793 0.96084 0.84918 0.0
H1060 H 0.02633 0.99329 0.8565 0.0
H1061 H 0.23392 0.9682 0.81439 0.0
H1062 H 0.19006 0.94417 0.81146 0.0
H1063 H 0.19074 0.97153 0.79475 0.0
H1064 H 0.07347 0.88892 0.81696 0.0
H1065 H 0.04351 0.94312 0.7689 0.0
H1066 H 0.10095 0.9315 0.85622 0.0
H1067 H 0.1543 0.92552 0.84378 0.0
H1068 H 0.11379 0.89981 0.84726 0.0
H1069 H 0.06558 0.99823 0.79709 0.0
H1070 H 0.06565 0.98592 0.77084 0.0
H1071 H 0.11843 0.99086 0.78469 0.0
C1072 C 0.15135 0.14237 0.0283 0.0
C1073 C 0.17021 0.12022 0.01983 0.0
C1074 C 0.13897 0.14348 0.04947 0.0
C1075 C 0.14562 0.12193 0.06238 0.0
C1076 C 0.16667 0.10001 0.05409 0.0
C1077 C 0.1788 0.09946 0.03298 0.0
C1078 C 0.11701 0.16728 0.05778 0.0
C1079 C 0.17472 0.07666 0.06731 0.0
C1080 C 0.14102 0.12384 0.12157 0.0
C1081 C 0.09786 0.11312 0.12548 0.0
C1082 C 0.1563 0.12805 0.10108 0.0
C1083 C 0.12779 0.12131 0.08412 0.0
C1084 C 0.08343 0.11158 0.088 0.0
C1085 C 0.069 0.10765 0.1086 0.0
C1086 C 0.20372 0.13858 0.0976 0.0
C1087 C 0.05186 0.10424 0.07037 0.0
H1088 H 0.14454 0.15845 0.01821 0.0
H1089 H 0.19424 0.08248 0.02661 0.0
H1090 H 0.08063 0.1633 0.06134 0.0
H1091 H 0.13362 0.17331 0.07253 0.0
H1092 H 0.11886 0.18327 0.04647 0.0
H1093 H 0.19386 0.06175 0.05882 0.0
H1094 H 0.19399 0.08186 0.08158 0.0
H1095 H 0.14152 0.06846 0.07235 0.0
H1096 H 0.16367 0.12797 0.13449 0.0
H1097 H 0.03528 0.09984 0.11151 0.0
H1098 H 0.2031 0.15429 0.08604 0.0
H1099 H 0.22578 0.12343 0.09118 0.0
H1100 H 0.21938 0.14577 0.11225 0.0
H1101 H 0.04856 0.12026 0.05921 0.0
H1102 H 0.01732 0.09876 0.07597 0.0
H1103 H 0.06635 0.08793 0.0617 0.0
C1104 C 0.36974 0.38244 0.53318 0.0
C1105 C 0.32587 0.38143 0.52452 0.0
C1106 C 0.37656 0.37881 0.55465 0.0
C1107 C 0.3385 0.3745 0.5678 0.0
C1108 C 0.29409 0.37372 0.55913 0.0
C1109 C 0.28836 0.37697 0.53757 0.0
C1110 C 0.42449 0.37931 0.56322 0.0
C1111 C 0.25257 0.36955 0.57264 0.0
C1112 C 0.35117 0.34169 0.62025 0.0
C1113 C 0.35073 0.36237 0.63402 0.0
C1114 C 0.34885 0.34543 0.59862 0.0
C1115 C 0.34496 0.37045 0.5906 0.0
C1116 C 0.34527 0.39145 0.60446 0.0
C1117 C 0.34864 0.38716 0.62603 0.0
C1118 C 0.34969 0.32258 0.58436 0.0
C1119 C 0.34048 0.41837 0.59656 0.0
H1120 H 0.39884 0.38565 0.52308 0.0
H1121 H 0.25437 0.37646 0.53094 0.0
H1122 H 0.42786 0.3944 0.57522 0.0
H1123 H 0.432 0.36091 0.57094 0.0
H1124 H 0.45041 0.38281 0.55091 0.0
H1125 H 0.22034 0.37018 0.56357 0.0
H1126 H 0.25462 0.35079 0.58053 0.0
H1127 H 0.25131 0.3843 0.58499 0.0
H1128 H 0.35317 0.32252 0.62646 0.0
H1129 H 0.34798 0.40313 0.63671 0.0
H1130 H 0.37652 0.32508 0.57233 0.0
H1131 H 0.3166 0.32074 0.57611 0.0
H1132 H 0.35612 0.3046 0.59296 0.0
H1133 H 0.36729 0.42266 0.58486 0.0
H1134 H 0.34288 0.43263 0.60929 0.0
H1135 H 0.30706 0.42048 0.58867 0.0
C1136 C 0.66677 0.39328 0.97809 0.0
C1137 C 0.66436 0.37279 0.99217 0.0
C1138 C 0.66347 0.38937 0.95646 0.0
C1139 C 0.6582 0.36434 0.94859 0.0
C1140 C 0.65456 0.34366 0.9627 0.0
C1141 C 0.65741 0.34814 0.98425 0.0
C1142 C 0.66711 0.41197 0.94199 0.0
C1143 C 0.64909 0.31665 0.955 0.0
C1144 C 0.62249 0.35088 0.89242 0.0
C1145 C 0.66454 0.34527 0.88313 0.0
C1146 C 0.61989 0.35801 0.91355 0.0
C1147 C 0.66024 0.35942 0.92568 0.0
C1148 C 0.70285 0.35481 0.91613 0.0
C1149 C 0.70447 0.34799 0.89502 0.0
C1150 C 0.57386 0.36315 0.92307 0.0
C1151 C 0.74676 0.35614 0.92841 0.0
H1152 H 0.67264 0.41238 0.98392 0.0
H1153 H 0.65448 0.33221 0.99492 0.0
H1154 H 0.69941 0.41099 0.93306 0.0
H1155 H 0.63877 0.41166 0.93055 0.0
H1156 H 0.66646 0.43035 0.95054 0.0
H1157 H 0.64462 0.30281 0.96795 0.0
H1158 H 0.61922 0.31513 0.94446 0.0
H1159 H 0.6796 0.3112 0.94586 0.0
H1160 H 0.59144 0.34876 0.88341 0.0
H1161 H 0.73721 0.34425 0.88787 0.0
H1162 H 0.57448 0.38153 0.93158 0.0
H1163 H 0.56546 0.34804 0.93457 0.0
H1164 H 0.54636 0.36369 0.91118 0.0
H1165 H 0.75026 0.37497 0.93609 0.0
H1166 H 0.77722 0.35301 0.91849 0.0
H1167 H 0.74622 0.3415 0.94088 0.0
C1168 C 0.806 0.1388 0.48055 0.0
C1169 C 0.84154 0.12973 0.49307 0.0
C1170 C 0.8127 0.14385 0.45927 0.0
C1171 C 0.85611 0.13988 0.45023 0.0
C1172 C 0.89198 0.13033 0.46268 0.0
C1173 C 0.88424 0.12532 0.48394 0.0
C1174 C 0.77342 0.15384 0.44654 0.0
C1175 C 0.93881 0.12601 0.45369 0.0
C1176 C 0.8585 0.13737 0.39087 0.0
C1177 C 0.8682 0.16283 0.38592 0.0
C1178 C 0.85615 0.12929 0.41177 0.0
C1179 C 0.86422 0.14707 0.42801 0.0
C1180 C 0.87666 0.17244 0.42297 0.0
C1181 C 0.87821 0.18003 0.40201 0.0
C1182 C 0.84265 0.10211 0.41648 0.0
C1183 C 0.8863 0.19192 0.43973 0.0
H1184 H 0.77273 0.14186 0.4874 0.0
H1185 H 0.91201 0.11853 0.49354 0.0
H1186 H 0.78176 0.17321 0.4407 0.0
H1187 H 0.76757 0.14151 0.43275 0.0
H1188 H 0.7413 0.15479 0.45566 0.0
H1189 H 0.96229 0.11714 0.46511 0.0
H1190 H 0.93648 0.1136 0.43974 0.0
H1191 H 0.95378 0.14445 0.44856 0.0
H1192 H 0.85048 0.12409 0.37845 0.0
H1193 H 0.88612 0.19969 0.39817 0.0
H1194 H 0.80826 0.10169 0.42368 0.0
H1195 H 0.86661 0.09362 0.42785 0.0
H1196 H 0.84189 0.09009 0.40224 0.0
H1197 H 0.85452 0.1959 0.44846 0.0
H1198 H 0.89959 0.21013 0.43323 0.0
H1199 H 0.91146 0.18445 0.45104 0.0
C1200 C 0.80123 0.8789 0.98044 0.0
C1201 C 0.83964 0.87941 0.99342 0.0
C1202 C 0.8057 0.88073 0.95867 0.0
C1203 C 0.84971 0.88261 0.94964 0.0
C1204 C 0.88868 0.88158 0.96266 0.0
C1205 C 0.88316 0.88034 0.9844 0.0
C1206 C 0.76323 0.88219 0.94545 0.0
C1207 C 0.93619 0.88287 0.95369 0.0
C1208 C 0.85757 0.87469 0.89057 0.0
C1209 C 0.85852 0.90015 0.88382 0.0
C1210 C 0.85601 0.86859 0.91195 0.0
C1211 C 0.85471 0.88837 0.92694 0.0
C1212 C 0.85681 0.91403 0.92023 0.0
C1213 C 0.85924 0.91956 0.89887 0.0
C1214 C 0.8548 0.84099 0.91848 0.0
C1215 C 0.85538 0.93577 0.93562 0.0
H1216 H 0.76755 0.87839 0.98739 0.0
H1217 H 0.91292 0.88054 0.99443 0.0
H1218 H 0.76099 0.90139 0.93831 0.0
H1219 H 0.76471 0.86818 0.93256 0.0
H1220 H 0.73174 0.87859 0.95464 0.0
H1221 H 0.96263 0.87847 0.96553 0.0
H1222 H 0.93953 0.86934 0.94052 0.0
H1223 H 0.94295 0.90226 0.94749 0.0
H1224 H 0.85678 0.85951 0.87916 0.0
H1225 H 0.86128 0.93927 0.89395 0.0
H1226 H 0.82135 0.83642 0.92568 0.0
H1227 H 0.88136 0.83735 0.93041 0.0
H1228 H 0.86018 0.82791 0.90513 0.0
H1229 H 0.82338 0.93471 0.94481 0.0
H1230 H 0.85725 0.95467 0.92787 0.0
H1231 H 0.88415 0.93433 0.94676 0.0
C1232 C 0.66928 0.64755 0.47801 0.0
C1233 C 0.69418 0.62849 0.48812 0.0
C1234 C 0.65976 0.646 0.45655 0.0
C1235 C 0.67614 0.6251 0.44489 0.0
C1236 C 0.7017 0.60596 0.45503 0.0
C1237 C 0.71012 0.60781 0.47651 0.0
C1238 C 0.63188 0.66659 0.44639 0.0
C1239 C 0.72031 0.58351 0.44316 0.0
C1240 C 0.62342 0.60417 0.39344 0.0
C1241 C 0.65558 0.61331 0.37911 0.0
C1242 C 0.62848 0.60892 0.41488 0.0
C1243 C 0.6668 0.62301 0.42208 0.0
C1244 C 0.69828 0.63319 0.40746 0.0
C1245 C 0.69236 0.62811 0.38612 0.0
C1246 C 0.59407 0.59778 0.42988 0.0
C1247 C 0.7395 0.64832 0.41444 0.0
H1248 H 0.65656 0.66346 0.48698 0.0
H1249 H 0.7298 0.59318 0.48422 0.0
H1250 H 0.6516 0.67561 0.43358 0.0
H1251 H 0.60066 0.65815 0.43938 0.0
H1252 H 0.62168 0.6816 0.45761 0.0
H1253 H 0.74005 0.57045 0.45329 0.0
H1254 H 0.69192 0.57258 0.43592 0.0
H1255 H 0.74279 0.59028 0.43037 0.0
H1256 H 0.59529 0.59246 0.38793 0.0
H1257 H 0.7174 0.6349 0.37495 0.0
H1258 H 0.58227 0.61257 0.44093 0.0
H1259 H 0.61026 0.58254 0.43921 0.0
H1260 H 0.56396 0.58955 0.42173 0.0
H1261 H 0.72922 0.66379 0.42517 0.0
H1262 H 0.75834 0.65685 0.4011 0.0
H1263 H 0.76298 0.63573 0.42313 0.0
C1264 C 0.34024 0.66135 0.02608 0.0
C1265 C 0.33694 0.63577 0.0198 0.0
C1266 C 0.35072 0.6679 0.04676 0.0
C1267 C 0.35942 0.64848 0.06149 0.0
C1268 C 0.35603 0.62266 0.05537 0.0
C1269 C 0.34421 0.61663 0.03473 0.0
C1270 C 0.35307 0.69567 0.05278 0.0
C1271 C 0.36574 0.60137 0.07052 0.0
C1272 C 0.43236 0.66668 0.10827 0.0
C1273 C 0.39967 0.66843 0.12408 0.0
C1274 C 0.4198 0.65977 0.08791 0.0
C1275 C 0.37326 0.6552 0.08317 0.0
C1276 C 0.34006 0.6572 0.09911 0.0
C1277 C 0.35378 0.66346 0.11946 0.0
C1278 C 0.45636 0.6572 0.07151 0.0
C1279 C 0.29003 0.65309 0.09459 0.0
H1280 H 0.33555 0.6764 0.01476 0.0
H1281 H 0.34077 0.5968 0.03032 0.0
H1282 H 0.33107 0.69921 0.06653 0.0
H1283 H 0.38846 0.70087 0.05726 0.0
H1284 H 0.34219 0.7084 0.03991 0.0
H1285 H 0.36194 0.58227 0.06327 0.0
H1286 H 0.40099 0.60336 0.07661 0.0
H1287 H 0.34233 0.60248 0.08404 0.0
H1288 H 0.46789 0.67034 0.11195 0.0
H1289 H 0.32855 0.66498 0.13173 0.0
H1290 H 0.45044 0.67101 0.05874 0.0
H1291 H 0.45493 0.63786 0.06458 0.0
H1292 H 0.4911 0.66053 0.07791 0.0
H1293 H 0.27874 0.66662 0.08239 0.0
H1294 H 0.2685 0.65571 0.10865 0.0
H1295 H 0.28416 0.6336 0.08846 0.0
C1296 C 0.19441 0.84205 0.53279 0.0
C1297 C 0.16685 0.85621 0.51921 0.0
C1298 C 0.18201 0.83811 0.55368 0.0
C1299 C 0.14156 0.84908 0.56147 0.0
C1300 C 0.11442 0.8642 0.54814 0.0
C1301 C 0.12711 0.86737 0.52715 0.0
C1302 C 0.21179 0.82169 0.5673 0.0
C1303 C 0.07155 0.87668 0.55597 0.0
C1304 C 0.08735 0.81683 0.60854 0.0
C1305 C 0.10482 0.83134 0.62516 0.0
C1306 C 0.0985 0.82263 0.58778 0.0
C1307 C 0.12699 0.84384 0.58335 0.0
C1308 C 0.14331 0.85919 0.59992 0.0
C1309 C 0.13249 0.85261 0.62059 0.0
C1310 C 0.08075 0.80559 0.57059 0.0
C1311 C 0.17308 0.88225 0.59586 0.0
H1312 H 0.2258 0.83389 0.52709 0.0
H1313 H 0.1052 0.87814 0.51687 0.0
H1314 H 0.22334 0.8326 0.58114 0.0
H1315 H 0.19187 0.80506 0.57304 0.0
H1316 H 0.24228 0.81463 0.5589 0.0
H1317 H 0.0562 0.88947 0.54415 0.0
H1318 H 0.04603 0.86188 0.56024 0.0
H1319 H 0.07899 0.8879 0.57023 0.0
H1320 H 0.06508 0.80074 0.61174 0.0
H1321 H 0.14682 0.86382 0.63318 0.0
H1322 H 0.10979 0.79691 0.56219 0.0
H1323 H 0.06132 0.81692 0.55908 0.0
H1324 H 0.05833 0.79009 0.57658 0.0
H1325 H 0.2064 0.87616 0.58949 0.0
H1326 H 0.17937 0.89356 0.61021 0.0
H1327 H 0.15704 0.89472 0.58403 0.0
C1328 C 0.12579 0.29408 0.34971 0.0
C1329 C 0.14815 0.28664 0.36808 0.0
C1330 C 0.10653 0.27606 0.33612 0.0
C1331 C 0.10794 0.24992 0.34134 0.0
C1332 C 0.12815 0.24228 0.36035 0.0
C1333 C 0.14862 0.26065 0.37332 0.0
C1334 C 0.08607 0.28497 0.3158 0.0
C1335 C 0.1292 0.21462 0.36673 0.0
C1336 C 0.0277 0.20655 0.31083 0.0
C1337 C 0.05745 0.19572 0.29625 0.0
C1338 C 0.04385 0.22355 0.32609 0.0
C1339 C 0.09057 0.23056 0.32631 0.0
C1340 C 0.12074 0.21959 0.3117 0.0
C1341 C 0.10397 0.20185 0.29724 0.0
C1342 C 0.01093 0.234 0.34194 0.0
C1343 C 0.17059 0.22699 0.31101 0.0
H1344 H 0.12374 0.31407 0.34571 0.0
H1345 H 0.16607 0.25447 0.38728 0.0
H1346 H 0.10454 0.27625 0.30254 0.0
H1347 H 0.04996 0.27871 0.31468 0.0
H1348 H 0.0876 0.306 0.31407 0.0
H1349 H 0.14148 0.21211 0.38298 0.0
H1350 H 0.09469 0.20596 0.36537 0.0
H1351 H 0.15205 0.20395 0.35617 0.0
H1352 H 0.9918 0.20148 0.31052 0.0
H1353 H 0.12744 0.19308 0.28655 0.0
H1354 H 0.00746 0.25484 0.33978 0.0
H1355 H 0.02419 0.23087 0.35792 0.0
H1356 H 0.97657 0.22506 0.3407 0.0
H1357 H 0.174 0.24775 0.3081 0.0
H1358 H 0.18946 0.21668 0.29866 0.0
H1359 H 0.18697 0.22301 0.32622 0.0
C1360 C 0.3241 0.22623 0.84163 0.0
C1361 C 0.33531 0.22415 0.86286 0.0
C1362 C 0.34678 0.24361 0.82856 0.0
C1363 C 0.38069 0.25989 0.83699 0.0
C1364 C 0.39126 0.25854 0.85849 0.0
C1365 C 0.36879 0.24053 0.87112 0.0
C1366 C 0.33473 0.24436 0.80568 0.0
C1367 C 0.42666 0.27596 0.86809 0.0
C1368 C 0.46942 0.28822 0.80034 0.0
C1369 C 0.45144 0.31238 0.79647 0.0
C1370 C 0.44668 0.27092 0.81349 0.0
C1371 C 0.40541 0.27815 0.82322 0.0
C1372 C 0.38739 0.30264 0.8195 0.0
C1373 C 0.41055 0.31941 0.80612 0.0
C1374 C 0.46638 0.24475 0.81668 0.0
C1375 C 0.34366 0.31116 0.82964 0.0
H1376 H 0.29749 0.21422 0.83512 0.0
H1377 H 0.37818 0.23898 0.88739 0.0
H1378 H 0.32125 0.26336 0.80157 0.0
H1379 H 0.36569 0.24135 0.79609 0.0
H1380 H 0.30884 0.22972 0.8014 0.0
H1381 H 0.42944 0.27333 0.88522 0.0
H1382 H 0.46046 0.27234 0.86099 0.0
H1383 H 0.4181 0.29612 0.86486 0.0
H1384 H 0.5008 0.28265 0.79276 0.0
H1385 H 0.39674 0.33819 0.80333 0.0
H1386 H 0.44146 0.23004 0.81152 0.0
H1387 H 0.47301 0.24145 0.83348 0.0
H1388 H 0.49869 0.24209 0.80796 0.0
H1389 H 0.31501 0.2987 0.82461 0.0
H1390 H 0.33514 0.33116 0.82566 0.0
H1391 H 0.34645 0.30945 0.84682 0.0
C1392 C 0.70001 0.23491 0.66823 0.0
C1393 C 0.67613 0.22428 0.6514 0.0
C1394 C 0.67889 0.25207 0.68184 0.0
C1395 C 0.63241 0.25816 0.67885 0.0
C1396 C 0.6082 0.24749 0.6618 0.0
C1397 C 0.63057 0.23089 0.64811 0.0
C1398 C 0.70623 0.26358 0.69947 0.0
C1399 C 0.5584 0.25315 0.65832 0.0
C1400 C 0.56769 0.28247 0.72612 0.0
C1401 C 0.56473 0.30844 0.72161 0.0
C1402 C 0.58892 0.26576 0.71213 0.0
C1403 C 0.60907 0.27554 0.69366 0.0
C1404 C 0.60708 0.30197 0.6894 0.0
C1405 C 0.58414 0.31803 0.70326 0.0
C1406 C 0.58935 0.23764 0.71697 0.0
C1407 C 0.62955 0.31332 0.67034 0.0
H1408 H 0.73534 0.2298 0.67069 0.0
H1409 H 0.61208 0.22242 0.63518 0.0
H1410 H 0.70431 0.28466 0.69889 0.0
H1411 H 0.69172 0.25745 0.71464 0.0
H1412 H 0.74264 0.25797 0.69894 0.0
H1413 H 0.54436 0.24309 0.64449 0.0
H1414 H 0.53838 0.24738 0.67224 0.0
H1415 H 0.5536 0.27391 0.65618 0.0
H1416 H 0.5524 0.27517 0.74032 0.0
H1417 H 0.58228 0.33826 0.70001 0.0
H1418 H 0.62498 0.23099 0.71849 0.0
H1419 H 0.57348 0.22682 0.70397 0.0
H1420 H 0.57078 0.23301 0.73159 0.0
H1421 H 0.66624 0.30835 0.67008 0.0
H1422 H 0.62653 0.33438 0.6698 0.0
H1423 H 0.61388 0.30524 0.65605 0.0
C1424 C 0.82352 0.25706 0.15203 0.0
C1425 C 0.8391 0.2823 0.1506 0.0
C1426 C 0.84393 0.2398 0.16585 0.0
C1427 C 0.88122 0.2479 0.1783 0.0
C1428 C 0.89762 0.27325 0.1766 0.0
C1429 C 0.87616 0.29018 0.16288 0.0
C1430 C 0.82516 0.21301 0.16739 0.0
C1431 C 0.93776 0.28252 0.18932 0.0
C1432 C 0.91014 0.21128 0.22772 0.0
C1433 C 0.94569 0.19563 0.2209 0.0
C1434 C 0.88853 0.22819 0.21398 0.0
C1435 C 0.90333 0.22985 0.19301 0.0
C1436 C 0.9396 0.21442 0.18611 0.0
C1437 C 0.96013 0.19744 0.20007 0.0
C1438 C 0.84971 0.24421 0.22188 0.0
C1439 C 0.95683 0.21586 0.16396 0.0
H1440 H 0.79453 0.25101 0.14273 0.0
H1441 H 0.88848 0.30964 0.16168 0.0
H1442 H 0.85218 0.19911 0.1636 0.0
H1443 H 0.81396 0.20907 0.1836 0.0
H1444 H 0.79584 0.20974 0.15674 0.0
H1445 H 0.94688 0.30266 0.18587 0.0
H1446 H 0.92993 0.28082 0.20617 0.0
H1447 H 0.9679 0.27049 0.1862 0.0
H1448 H 0.8989 0.21027 0.24377 0.0
H1449 H 0.98769 0.18561 0.19457 0.0
H1450 H 0.81871 0.24057 0.21239 0.0
H1451 H 0.85842 0.2647 0.22024 0.0
H1452 H 0.84159 0.24025 0.23848 0.0
H1453 H 0.92892 0.21098 0.15296 0.0
H1454 H 0.98574 0.20279 0.16112 0.0
H1455 H 0.96812 0.23558 0.16034 0.0
C1456 C 0.88233 0.71025 0.66656 0.0
C1457 C 0.84457 0.71519 0.65383 0.0
C1458 C 0.90327 0.72969 0.67817 0.0
C1459 C 0.88585 0.7547 0.67713 0.0
C1460 C 0.84925 0.7601 0.66345 0.0
C1461 C 0.82909 0.74025 0.65186 0.0
C1462 C 0.94266 0.72319 0.6923 0.0
C1463 C 0.83003 0.78658 0.66181 0.0
C1464 C 0.90245 0.79345 0.72646 0.0
C1465 C 0.9402 0.80863 0.7214 0.0
C1466 C 0.8836 0.77642 0.71194 0.0
C1467 C 0.90323 0.77443 0.69185 0.0
C1468 C 0.94097 0.79012 0.6865 0.0
C1469 C 0.95909 0.80697 0.70141 0.0
C1470 C 0.84344 0.76002 0.71833 0.0
C1471 C 0.96302 0.78868 0.66529 0.0
H1472 H 0.8948 0.69093 0.66784 0.0
H1473 H 0.79987 0.7441 0.64205 0.0
H1474 H 0.9718 0.73632 0.68941 0.0
H1475 H 0.93229 0.72562 0.7088 0.0
H1476 H 0.95436 0.70331 0.69011 0.0
H1477 H 0.80458 0.78818 0.64907 0.0
H1478 H 0.81334 0.79172 0.67673 0.0
H1479 H 0.8578 0.80066 0.65907 0.0
H1480 H 0.88869 0.79415 0.742 0.0
H1481 H 0.9879 0.81901 0.6974 0.0
H1482 H 0.85316 0.73965 0.71798 0.0
H1483 H 0.81494 0.76248 0.70717 0.0
H1484 H 0.83105 0.76462 0.73422 0.0
H1485 H 0.98377 0.77116 0.66435 0.0
H1486 H 0.98568 0.80532 0.66224 0.0
H1487 H 0.93693 0.7876 0.6528 0.0
C1488 C 0.67367 0.77921 0.17014 0.0
C1489 C 0.66031 0.78129 0.14918 0.0
C1490 C 0.65305 0.76146 0.18357 0.0
C1491 C 0.61879 0.74488 0.17583 0.0
C1492 C 0.60596 0.74628 0.15457 0.0
C1493 C 0.62659 0.76461 0.14155 0.0
C1494 C 0.66794 0.76049 0.20609 0.0
C1495 C 0.56966 0.72891 0.14564 0.0
C1496 C 0.59426 0.68525 0.20771 0.0
C1497 C 0.55513 0.69228 0.21873 0.0
C1498 C 0.61494 0.702 0.19345 0.0
C1499 C 0.59604 0.7264 0.19016 0.0
C1500 C 0.5563 0.73351 0.20118 0.0
C1501 C 0.5363 0.71634 0.21534 0.0
C1502 C 0.65699 0.69358 0.18189 0.0
C1503 C 0.53537 0.75942 0.19831 0.0
H1504 H 0.70051 0.79148 0.17612 0.0
H1505 H 0.61562 0.76616 0.12548 0.0
H1506 H 0.63805 0.76248 0.21654 0.0
H1507 H 0.68344 0.74176 0.20942 0.0
H1508 H 0.69318 0.77565 0.20996 0.0
H1509 H 0.56977 0.72904 0.12833 0.0
H1510 H 0.5742 0.70904 0.15111 0.0
H1511 H 0.53573 0.73532 0.15101 0.0
H1512 H 0.60847 0.6665 0.21006 0.0
H1513 H 0.50622 0.72188 0.22397 0.0
H1514 H 0.68617 0.70624 0.18584 0.0
H1515 H 0.65131 0.6951 0.16484 0.0
H1516 H 0.66644 0.67366 0.18568 0.0
H1517 H 0.56019 0.7744 0.20304 0.0
H1518 H 0.50371 0.76172 0.20759 0.0
H1519 H 0.52723 0.7626 0.18164 0.0
C1520 C 0.30446 0.77203 0.34319 0.0
C1521 C 0.33069 0.79227 0.35094 0.0
C1522 C 0.32454 0.75283 0.33115 0.0
C1523 C 0.37203 0.7538 0.32718 0.0
C1524 C 0.39875 0.774 0.33544 0.0
C1525 C 0.37758 0.7932 0.34705 0.0
C1526 C 0.29486 0.73183 0.32231 0.0
C1527 C 0.4496 0.77541 0.33188 0.0
C1528 C 0.43123 0.69282 0.31139 0.0
C1529 C 0.43722 0.69644 0.2899 0.0
C1530 C 0.41018 0.71134 0.32371 0.0
C1531 C 0.39381 0.73381 0.31425 0.0
C1532 C 0.39896 0.73739 0.2925 0.0
C1533 C 0.42112 0.71878 0.28062 0.0
C1534 C 0.40597 0.707 0.34689 0.0
C1535 C 0.38126 0.76091 0.28179 0.0
H1536 H 0.26805 0.77162 0.34611 0.0
H1537 H 0.39759 0.80902 0.35307 0.0
H1538 H 0.29699 0.73197 0.30505 0.0
H1539 H 0.30718 0.71302 0.32765 0.0
H1540 H 0.25856 0.73378 0.32693 0.0
H1541 H 0.46568 0.79183 0.34004 0.0
H1542 H 0.46586 0.75764 0.33739 0.0
H1543 H 0.45684 0.77713 0.31498 0.0
H1544 H 0.44331 0.6755 0.31865 0.0
H1545 H 0.42599 0.72178 0.26405 0.0
H1546 H 0.3696 0.70739 0.3516 0.0
H1547 H 0.4237 0.72255 0.35544 0.0
H1548 H 0.42065 0.68853 0.35183 0.0
H1549 H 0.3444 0.76316 0.28512 0.0
H1550 H 0.38613 0.76025 0.26463 0.0
H1551 H 0.39905 0.77805 0.28793 0.0
C1552 C 0.1179 0.72278 0.86023 0.0
C1553 C 0.16407 0.71668 0.85846 0.0
C1554 C 0.0977 0.74005 0.84638 0.0
C1555 C 0.12473 0.75191 0.83079 0.0
C1556 C 0.17156 0.74595 0.82912 0.0
C1557 C 0.19054 0.72811 0.84283 0.0
C1558 C 0.04745 0.74553 0.84834 0.0
C1559 C 0.20172 0.75867 0.81306 0.0
C1560 C 0.06543 0.78225 0.78436 0.0
C1561 C 0.06225 0.80755 0.79095 0.0
C1562 C 0.08579 0.76384 0.79716 0.0
C1563 C 0.10427 0.77119 0.81669 0.0
C1564 C 0.10248 0.79697 0.82299 0.0
C1565 C 0.08103 0.81479 0.81013 0.0
C1566 C 0.08643 0.73646 0.79006 0.0
C1567 C 0.12273 0.80571 0.84343 0.0
H1568 H 0.09748 0.71367 0.87223 0.0
H1569 H 0.22634 0.72336 0.84158 0.0
H1570 H 0.04228 0.76605 0.85155 0.0
H1571 H 0.02994 0.74112 0.83343 0.0
H1572 H 0.03101 0.73426 0.86097 0.0
H1573 H 0.23752 0.75204 0.81392 0.0
H1574 H 0.18844 0.75482 0.79718 0.0
H1575 H 0.20142 0.77961 0.81532 0.0
H1576 H 0.05062 0.77673 0.76954 0.0
H1577 H 0.07895 0.83449 0.81508 0.0
H1578 H 0.067 0.72444 0.80123 0.0
H1579 H 0.12191 0.72935 0.78982 0.0
H1580 H 0.07139 0.73398 0.7743 0.0
H1581 H 0.10447 0.79642 0.85656 0.0
H1582 H 0.12074 0.82668 0.84546 0.0
H1583 H 0.15899 0.8 0.84444 0.0
loop_
_geom_bond_atom_site_label_1
_geom_bond_atom_site_label_2
_geom_bond_distance
_geom_bond_site_symmetry_2
_ccdc_geom_bond_type
C0 C1 1.391 . S
C0 C4 1.391 . S
C0 H42 0.948 . S
C1 C0 1.391 . S
C1 C2 1.391 . S
C2 C1 1.391 . S
C2 H58 0.947 . S
C2 C59 1.392 . S
C3 C4 1.391 . S
C3 C7 1.397 . S
C3 C59 1.419 . S
C4 C0 1.391 . S
C4 C3 1.391 . S
C4 C5 1.399 . S
C5 C4 1.399 . S
C5 C8 1.396 . S
C5 C17 1.453 . S
C5 C18 1.684 . S
H6 C30 0.948 . S
C7 C3 1.397 . S
C7 C8 1.394 . S
C7 C26 1.723 . S
C8 C5 1.396 . S
C8 C7 1.394 . S
C8 C38 1.723 . S
H9 C32 0.947 . S
H10 C33 0.948 . S
H11 C39 0.982 . S
H12 C40 0.979 . S
H13 C40 0.980 . S
H14 C40 0.983 . S
H15 C39 0.979 . S
H16 C39 0.977 . S
C17 C5 1.453 . S
C17 H46 0.982 . S
C17 H47 0.979 . S
C17 H48 0.977 . S
C18 C5 1.684 . S
C18 H43 0.979 . S
C18 H44 0.980 . S
C18 H45 0.983 . S
C19 C20 1.391 . S
C19 C24 1.391 . S
C19 H49 0.948 . S
C20 C19 1.391 . S
C20 C21 1.391 . S
C21 C20 1.391 . S
C21 C22 1.392 . S
C21 H50 0.947 . S
C22 C21 1.392 . S
C22 C23 1.419 . S
C22 H51 0.948 . S
C23 C22 1.419 . S
C23 C24 1.391 . S
C23 C27 1.397 . S
C24 C19 1.391 . S
C24 C23 1.391 . S
C24 C25 1.399 . S
C25 C24 1.399 . S
C25 C26 1.396 . S
C25 C28 1.453 . S
C25 C29 1.684 . S
C26 C7 1.723 . S
C26 C25 1.396 . S
C26 C27 1.394 . S
C27 C23 1.397 . S
C27 C26 1.394 . S
C27 C37 1.723 . S
C28 C25 1.453 . S
C28 H52 0.982 . S
C28 H53 0.979 . S
C28 H54 0.977 . S
C29 C25 1.684 . S
C29 H55 0.979 . S
C29 H56 0.980 . S
C29 H57 0.983 . S
C30 H6 0.948 . S
C30 C31 1.391 . S
C30 C35 1.391 . S
C31 C30 1.391 . S
C31 C32 1.391 . S
C32 H9 0.947 . S
C32 C31 1.391 . S
C32 C33 1.392 . S
C33 H10 0.948 . S
C33 C32 1.392 . S
C33 C34 1.419 . S
C34 C33 1.419 . S
C34 C35 1.391 . S
C34 C38 1.397 . S
C35 C30 1.391 . S
C35 C34 1.391 . S
C35 C36 1.399 . S
C36 C35 1.399 . S
C36 C37 1.396 . S
C36 C39 1.453 . S
C36 C40 1.684 . S
C37 C27 1.723 . S
C37 C36 1.396 . S
C37 C38 1.394 . S
C38 C8 1.723 . S
C38 C34 1.397 . S
C38 C37 1.394 . S
C39 H11 0.982 . S
C39 H15 0.979 . S
C39 H16 0.977 . S
C39 C36 1.453 . S
C40 H12 0.979 . S
C40 H13 0.980 . S
C40 H14 0.983 . S
C40 C36 1.684 . S
H41 C59 0.948 . S
H42 C0 0.948 . S
H43 C18 0.979 . S
H44 C18 0.980 . S
H45 C18 0.983 . S
H46 C17 0.982 . S
H47 C17 0.979 . S
H48 C17 0.977 . S
H49 C19 0.948 . S
H50 C21 0.947 . S
H51 C22 0.948 . S
H52 C28 0.982 . S
H53 C28 0.979 . S
H54 C28 0.977 . S
H55 C29 0.979 . S
H56 C29 0.980 . S
H57 C29 0.983 . S
H58 C2 0.947 . S
C59 C2 1.392 . S
C59 C3 1.419 . S
C59 H41 0.948 . S
C60 C61 1.391 . S
C60 C64 1.391 . S
C60 H102 0.948 . S
C61 C60 1.391 . S
C61 C62 1.391 . S
C62 C61 1.391 . S
C62 H118 0.947 . S
C62 C119 1.392 . S
C63 C64 1.391 . S
C63 C67 1.397 . S
C63 C119 1.419 . S
C64 C60 1.391 . S
C64 C63 1.391 . S
C64 C65 1.399 . S
C65 C64 1.399 . S
C65 C68 1.396 . S
C65 C77 1.453 . S
C65 C78 1.684 . S
H66 C90 0.948 . S
C67 C63 1.397 . S
C67 C68 1.394 . S
C67 C86 1.723 . S
C68 C65 1.396 . S
C68 C67 1.394 . S
C68 C98 1.723 . S
H69 C92 0.947 . S
H70 C93 0.948 . S
H71 C99 0.982 . S
H72 C100 0.979 . S
H73 C100 0.980 . S
H74 C100 0.983 . S
H75 C99 0.979 . S
H76 C99 0.977 . S
C77 C65 1.453 . S
C77 H106 0.982 . S
C77 H107 0.979 . S
C77 H108 0.977 . S
C78 C65 1.684 . S
C78 H103 0.979 . S
C78 H104 0.980 . S
C78 H105 0.983 . S
C79 C80 1.391 . S
C79 C84 1.391 . S
C79 H109 0.948 . S
C80 C79 1.391 . S
C80 C81 1.391 . S
C81 C80 1.391 . S
C81 C82 1.392 . S
C81 H110 0.947 . S
C82 C81 1.392 . S
C82 C83 1.419 . S
C82 H111 0.948 . S
C83 C82 1.419 . S
C83 C84 1.391 . S
C83 C87 1.397 . S
C84 C79 1.391 . S
C84 C83 1.391 . S
C84 C85 1.399 . S
C85 C84 1.399 . S
C85 C86 1.396 . S
C85 C88 1.453 . S
C85 C89 1.684 . S
C86 C67 1.723 . S
C86 C85 1.396 . S
C86 C87 1.394 . S
C87 C83 1.397 . S
C87 C86 1.394 . S
C87 C97 1.723 . S
C88 C85 1.453 . S
C88 H112 0.982 . S
C88 H113 0.979 . S
C88 H114 0.977 . S
C89 C85 1.684 . S
C89 H115 0.979 . S
C89 H116 0.980 . S
C89 H117 0.983 . S
C90 H66 0.948 . S
C90 C91 1.391 . S
C90 C95 1.391 . S
C91 C90 1.391 . S
C91 C92 1.391 . S
C92 H69 0.947 . S
C92 C91 1.391 . S
C92 C93 1.392 . S
C93 H70 0.948 . S
C93 C92 1.392 . S
C93 C94 1.419 . S
C94 C93 1.419 . S
C94 C95 1.391 . S
C94 C98 1.397 . S
C95 C90 1.391 . S
C95 C94 1.391 . S
C95 C96 1.399 . S
C96 C95 1.399 . S
C96 C97 1.396 . S
C96 C99 1.453 . S
C96 C100 1.684 . S
C97 C87 1.723 . S
C97 C96 1.396 . S
C97 C98 1.394 . S
C98 C68 1.723 . S
C98 C94 1.397 . S
C98 C97 1.394 . S
C99 H71 0.982 . S
C99 H75 0.979 . S
C99 H76 0.977 . S
C99 C96 1.453 . S
C100 H72 0.979 . S
C100 H73 0.980 . S
C100 H74 0.983 . S
C100 C96 1.684 . S
H101 C119 0.948 . S
H102 C60 0.948 . S
H103 C78 0.979 . S
H104 C78 0.980 . S
H105 C78 0.983 . S
H106 C77 0.982 . S
H107 C77 0.979 . S
H108 C77 0.977 . S
H109 C79 0.948 . S
H110 C81 0.947 . S
H111 C82 0.948 . S
H112 C88 0.982 . S
H113 C88 0.979 . S
H114 C88 0.977 . S
H115 C89 0.979 . S
H116 C89 0.980 . S
H117 C89 0.983 . S
H118 C62 0.947 . S
C119 C62 1.392 . S
C119 C63 1.419 . S
C119 H101 0.948 . S
C120 C121 1.391 . S
C120 C124 1.391 . S
C120 H162 0.948 . S
C121 C120 1.391 . S
C121 C122 1.391 . S
C122 C121 1.391 . S
C122 H178 0.947 . S
C122 C179 1.392 . S
C123 C124 1.391 . S
C123 C127 1.397 . S
C123 C179 1.419 . S
C124 C120 1.391 . S
C124 C123 1.391 . S
C124 C125 1.399 . S
C125 C124 1.399 . S
C125 C128 1.396 . S
C125 C137 1.453 . S
C125 C138 1.684 . S
H126 C150 0.948 . S
C127 C123 1.397 . S
C127 C128 1.394 . S
C127 C146 1.723 . S
C128 C125 1.396 . S
C128 C127 1.394 . S
C128 C158 1.723 . S
H129 C152 0.947 . S
H130 C153 0.948 . S
H131 C159 0.982 . S
H132 C160 0.979 . S
H133 C160 0.980 . S
H134 C160 0.983 . S
H135 C159 0.979 . S
H136 C159 0.977 . S
C137 C125 1.453 . S
C137 H166 0.982 . S
C137 H167 0.979 . S
C137 H168 0.977 . S
C138 C125 1.684 . S
C138 H163 0.979 . S
C138 H164 0.980 . S
C138 H165 0.983 . S
C139 C140 1.391 . S
C139 C144 1.391 . S
C139 H169 0.948 . S
C140 C139 1.391 . S
C140 C141 1.391 . S
C141 C140 1.391 . S
C141 C142 1.392 . S
C141 H170 0.947 . S
C142 C141 1.392 . S
C142 C143 1.419 . S
C142 H171 0.948 . S
C143 C142 1.419 . S
C143 C144 1.391 . S
C143 C147 1.397 . S
C144 C139 1.391 . S
C144 C143 1.391 . S
C144 C145 1.399 . S
C145 C144 1.399 . S
C145 C146 1.396 . S
C145 C148 1.453 . S
C145 C149 1.684 . S
C146 C127 1.723 . S
C146 C145 1.396 . S
C146 C147 1.394 . S
C147 C143 1.397 . S
C147 C146 1.394 . S
C147 C157 1.723 . S
C148 C145 1.453 . S
C148 H172 0.982 . S
C148 H173 0.979 . S
C148 H174 0.977 . S
C149 C145 1.684 . S
C149 H175 0.979 . S
C149 H176 0.980 . S
C149 H177 0.983 . S
C150 H126 0.948 . S
C150 C151 1.391 . S
C150 C155 1.391 . S
C151 C150 1.391 . S
C151 C152 1.391 . S
C152 H129 0.947 . S
C152 C151 1.391 . S
C152 C153 1.392 . S
C153 H130 0.948 . S
C153 C152 1.392 . S
C153 C154 1.419 . S
C154 C153 1.419 . S
C154 C155 1.391 . S
C154 C158 1.397 . S
C155 C150 1.391 . S
C155 C154 1.391 . S
C155 C156 1.399 . S
C156 C155 1.399 . S
C156 C157 1.396 . S
C156 C159 1.453 . S
C156 C160 1.684 . S
C157 C147 1.723 . S
C157 C156 1.396 . S
C157 C158 1.394 . S
C158 C128 1.723 . S
C158 C154 1.397 . S
C158 C157 1.394 . S
C159 H131 0.982 . S
C159 H135 0.979 . S
C159 H136 0.977 . S
C159 C156 1.453 . S
C160 H132 0.979 . S
C160 H133 0.980 . S
C160 H134 0.983 . S
C160 C156 1.684 . S
H161 C179 0.948 . S
H162 C120 0.948 . S
H163 C138 0.979 . S
H164 C138 0.980 . S
H165 C138 0.983 . S
H166 C137 0.982 . S
H167 C137 0.979 . S
H168 C137 0.977 . S
H169 C139 0.948 . S
H170 C141 0.947 . S
H171 C142 0.948 . S
H172 C148 0.982 . S
H173 C148 0.979 . S
H174 C148 0.977 . S
H175 C149 0.979 . S
H176 C149 0.980 . S
H177 C149 0.983 . S
H178 C122 0.947 . S
C179 C122 1.392 . S
C179 C123 1.419 . S
C179 H161 0.948 . S
C180 C181 1.391 . S
C180 C184 1.391 . S
C180 H222 0.948 . S
C181 C180 1.391 . S
C181 C182 1.391 . S
C182 C181 1.391 . S
C182 H238 0.947 . S
C182 C239 1.392 . S
C183 C184 1.391 . S
C183 C187 1.397 . S
C183 C239 1.419 . S
C184 C180 1.391 . S
C184 C183 1.391 . S
C184 C185 1.399 . S
C185 C184 1.399 . S
C185 C188 1.396 . S
C185 C197 1.453 . S
C185 C198 1.684 . S
H186 C210 0.948 . S
C187 C183 1.397 . S
C187 C188 1.394 . S
C187 C206 1.723 . S
C188 C185 1.396 . S
C188 C187 1.394 . S
C188 C218 1.723 . S
H189 C212 0.947 . S
H190 C213 0.948 . S
H191 C219 0.982 . S
H192 C220 0.979 . S
H193 C220 0.980 . S
H194 C220 0.983 . S
H195 C219 0.979 . S
H196 C219 0.977 . S
C197 C185 1.453 . S
C197 H226 0.982 . S
C197 H227 0.979 . S
C197 H228 0.977 . S
C198 C185 1.684 . S
C198 H223 0.979 . S
C198 H224 0.980 . S
C198 H225 0.983 . S
C199 C200 1.391 . S
C199 C204 1.391 . S
C199 H229 0.948 . S
C200 C199 1.391 . S
C200 C201 1.391 . S
C201 C200 1.391 . S
C201 C202 1.392 . S
C201 H230 0.947 . S
C202 C201 1.392 . S
C202 C203 1.419 . S
C202 H231 0.948 . S
C203 C202 1.419 . S
C203 C204 1.391 . S
C203 C207 1.397 . S
C204 C199 1.391 . S
C204 C203 1.391 . S
C204 C205 1.399 . S
C205 C204 1.399 . S
C205 C206 1.396 . S
C205 C208 1.453 . S
C205 C209 1.684 . S
C206 C187 1.723 . S
C206 C205 1.396 . S
C206 C207 1.394 . S
C207 C203 1.397 . S
C207 C206 1.394 . S
C207 C217 1.723 . S
C208 C205 1.453 . S
C208 H232 0.982 . S
C208 H233 0.979 . S
C208 H234 0.977 . S
C209 C205 1.684 . S
C209 H235 0.979 . S
C209 H236 0.980 . S
C209 H237 0.983 . S
C210 H186 0.948 . S
C210 C211 1.391 . S
C210 C215 1.391 . S
C211 C210 1.391 . S
C211 C212 1.391 . S
C212 H189 0.947 . S
C212 C211 1.391 . S
C212 C213 1.392 . S
C213 H190 0.948 . S
C213 C212 1.392 . S
C213 C214 1.419 . S
C214 C213 1.419 . S
C214 C215 1.391 . S
C214 C218 1.397 . S
C215 C210 1.391 . S
C215 C214 1.391 . S
C215 C216 1.399 . S
C216 C215 1.399 . S
C216 C217 1.396 . S
C216 C219 1.453 . S
C216 C220 1.684 . S
C217 C207 1.723 . S
C217 C216 1.396 . S
C217 C218 1.394 . S
C218 C188 1.723 . S
C218 C214 1.397 . S
C218 C217 1.394 . S
C219 H191 0.982 . S
C219 H195 0.979 . S
C219 H196 0.977 . S
C219 C216 1.453 . S
C220 H192 0.979 . S
C220 H193 0.980 . S
C220 H194 0.983 . S
C220 C216 1.684 . S
H221 C239 0.948 . S
H222 C180 0.948 . S
H223 C198 0.979 . S
H224 C198 0.980 . S
H225 C198 0.983 . S
H226 C197 0.982 . S
H227 C197 0.979 . S
H228 C197 0.977 . S
H229 C199 0.948 . S
H230 C201 0.947 . S
H231 C202 0.948 . S
H232 C208 0.982 . S
H233 C208 0.979 . S
H234 C208 0.977 . S
H235 C209 0.979 . S
H236 C209 0.980 . S
H237 C209 0.983 . S
H238 C182 0.947 . S
C239 C182 1.392 . S
C239 C183 1.419 . S
C239 H221 0.948 . S
C240 C241 1.391 . S
C240 C244 1.391 . S
C240 H282 0.948 . S
C241 C240 1.391 . S
C241 C242 1.391 . S
C242 C241 1.391 . S
C242 H298 0.947 . S
C242 C299 1.392 . S
C243 C244 1.391 . S
C243 C247 1.397 . S
C243 C299 1.419 . S
C244 C240 1.391 . S
C244 C243 1.391 . S
C244 C245 1.399 . S
C245 C244 1.399 . S
C245 C248 1.396 . S
C245 C257 1.453 . S
C245 C258 1.684 . S
H246 C270 0.948 . S
C247 C243 1.397 . S
C247 C248 1.394 . S
C247 C266 1.723 . S
C248 C245 1.396 . S
C248 C247 1.394 . S
C248 C278 1.723 . S
H249 C272 0.947 . S
H250 C273 0.948 . S
H251 C279 0.982 . S
H252 C280 0.979 . S
H253 C280 0.980 . S
H254 C280 0.983 . S
H255 C279 0.979 . S
H256 C279 0.977 . S
C257 C245 1.453 . S
C257 H286 0.982 . S
C257 H287 0.979 . S
C257 H288 0.977 . S
C258 C245 1.684 . S
C258 H283 0.979 . S
C258 H284 0.980 . S
C258 H285 0.983 . S
C259 C260 1.391 . S
C259 C264 1.391 . S
C259 H289 0.948 . S
C260 C259 1.391 . S
C260 C261 1.391 . S
C261 C260 1.391 . S
C261 C262 1.392 . S
C261 H290 0.947 . S
C262 C261 1.392 . S
C262 C263 1.419 . S
C262 H291 0.948 . S
C263 C262 1.419 . S
C263 C264 1.391 . S
C263 C267 1.397 . S
C264 C259 1.391 . S
C264 C263 1.391 . S
C264 C265 1.399 . S
C265 C264 1.399 . S
C265 C266 1.396 . S
C265 C268 1.453 . S
C265 C269 1.684 . S
C266 C247 1.723 . S
C266 C265 1.396 . S
C266 C267 1.394 . S
C267 C263 1.397 . S
C267 C266 1.394 . S
C267 C277 1.723 . S
C268 C265 1.453 . S
C268 H292 0.982 . S
C268 H293 0.979 . S
C268 H294 0.977 . S
C269 C265 1.684 . S
C269 H295 0.979 . S
C269 H296 0.980 . S
C269 H297 0.983 . S
C270 H246 0.948 . S
C270 C271 1.391 . S
C270 C275 1.391 . S
C271 C270 1.391 . S
C271 C272 1.391 . S
C272 H249 0.947 . S
C272 C271 1.391 . S
C272 C273 1.392 . S
C273 H250 0.948 . S
C273 C272 1.392 . S
C273 C274 1.419 . S
C274 C273 1.419 . S
C274 C275 1.391 . S
C274 C278 1.397 . S
C275 C270 1.391 . S
C275 C274 1.391 . S
C275 C276 1.399 . S
C276 C275 1.399 . S
C276 C277 1.396 . S
C276 C279 1.453 . S
C276 C280 1.684 . S
C277 C267 1.723 . S
C277 C276 1.396 . S
C277 C278 1.394 . S
C278 C248 1.723 . S
C278 C274 1.397 . S
C278 C277 1.394 . S
C279 H251 0.982 . S
C279 H255 0.979 . S
C279 H256 0.977 . S
C279 C276 1.453 . S
C280 H252 0.979 . S
C280 H253 0.980 . S
C280 H254 0.983 . S
C280 C276 1.684 . S
H281 C299 0.948 . S
H282 C240 0.948 . S
H283 C258 0.979 . S
H284 C258 0.980 . S
H285 C258 0.983 . S
H286 C257 0.982 . S
H287 C257 0.979 . S
H288 C257 0.977 . S
H289 C259 0.948 . S
H290 C261 0.947 . S
H291 C262 0.948 . S
H292 C268 0.982 . S
H293 C268 0.979 . S
H294 C268 0.977 . S
H295 C269 0.979 . S
H296 C269 0.980 . S
H297 C269 0.983 . S
H298 C242 0.947 . S
C299 C242 1.392 . S
C299 C243 1.419 . S
C299 H281 0.948 . S
C300 C301 1.391 . S
C300 C304 1.391 . S
C300 H342 0.948 . S
C301 C300 1.391 . S
C301 C302 1.391 . S
C302 C301 1.391 . S
C302 H358 0.947 . S
C302 C359 1.392 . S
C303 C304 1.391 . S
C303 C307 1.397 . S
C303 C359 1.419 . S
C304 C300 1.391 . S
C304 C303 1.391 . S
C304 C305 1.399 . S
C305 C304 1.399 . S
C305 C308 1.396 . S
C305 C317 1.453 . S
C305 C318 1.684 . S
H306 C330 0.948 . S
C307 C303 1.397 . S
C307 C308 1.394 . S
C307 C326 1.723 . S
C308 C305 1.396 . S
C308 C307 1.394 . S
C308 C338 1.723 . S
H309 C332 0.947 . S
H310 C333 0.948 . S
H311 C339 0.982 . S
H312 C340 0.979 . S
H313 C340 0.980 . S
H314 C340 0.983 . S
H315 C339 0.979 . S
H316 C339 0.977 . S
C317 C305 1.453 . S
C317 H346 0.982 . S
C317 H347 0.979 . S
C317 H348 0.977 . S
C318 C305 1.684 . S
C318 H343 0.979 . S
C318 H344 0.980 . S
C318 H345 0.983 . S
C319 C320 1.391 . S
C319 C324 1.391 . S
C319 H349 0.948 . S
C320 C319 1.391 . S
C320 C321 1.391 . S
C321 C320 1.391 . S
C321 C322 1.392 . S
C321 H350 0.947 . S
C322 C321 1.392 . S
C322 C323 1.419 . S
C322 H351 0.948 . S
C323 C322 1.419 . S
C323 C324 1.391 . S
C323 C327 1.397 . S
C324 C319 1.391 . S
C324 C323 1.391 . S
C324 C325 1.399 . S
C325 C324 1.399 . S
C325 C326 1.396 . S
C325 C328 1.453 . S
C325 C329 1.684 . S
C326 C307 1.723 . S
C326 C325 1.396 . S
C326 C327 1.394 . S
C327 C323 1.397 . S
C327 C326 1.394 . S
C327 C337 1.723 . S
C328 C325 1.453 . S
C328 H352 0.982 . S
C328 H353 0.979 . S
C328 H354 0.977 . S
C329 C325 1.684 . S
C329 H355 0.979 . S
C329 H356 0.980 . S
C329 H357 0.983 . S
C330 H306 0.948 . S
C330 C331 1.391 . S
C330 C335 1.391 . S
C331 C330 1.391 . S
C331 C332 1.391 . S
C332 H309 0.947 . S
C332 C331 1.391 . S
C332 C333 1.392 . S
C333 H310 0.948 . S
C333 C332 1.392 . S
C333 C334 1.419 . S
C334 C333 1.419 . S
C334 C335 1.391 . S
C334 C338 1.397 . S
C335 C330 1.391 . S
C335 C334 1.391 . S
C335 C336 1.399 . S
C336 C335 1.399 . S
C336 C337 1.396 . S
C336 C339 1.453 . S
C336 C340 1.684 . S
C337 C327 1.723 . S
C337 C336 1.396 . S
C337 C338 1.394 . S
C338 C308 1.723 . S
C338 C334 1.397 . S
C338 C337 1.394 . S
C339 H311 0.982 . S
C339 H315 0.979 . S
C339 H316 0.977 . S
C339 C336 1.453 . S
C340 H312 0.979 . S
C340 H313 0.980 . S
C340 H314 0.983 . S
C340 C336 1.684 . S
H341 C359 0.948 . S
H342 C300 0.948 . S
H343 C318 0.979 . S
H344 C318 0.980 . S
H345 C318 0.983 . S
H346 C317 0.982 . S
H347 C317 0.979 . S
H348 C317 0.977 . S
H349 C319 0.948 . S
H350 C321 0.947 . S
H351 C322 0.948 . S
H352 C328 0.982 . S
H353 C328 0.979 . S
H354 C328 0.977 . S
H355 C329 0.979 . S
H356 C329 0.980 . S
H357 C329 0.983 . S
H358 C302 0.947 . S
C359 C302 1.392 . S
C359 C303 1.419 . S
C359 H341 0.948 . S
C360 C361 1.391 . S
C360 C364 1.391 . S
C360 H402 0.948 . S
C361 C360 1.391 . S
C361 C362 1.391 . S
C362 C361 1.391 . S
C362 H418 0.947 . S
C362 C419 1.392 . S
C363 C364 1.391 . S
C363 C367 1.397 . S
C363 C419 1.419 . S
C364 C360 1.391 . S
C364 C363 1.391 . S
C364 C365 1.399 . S
C365 C364 1.399 . S
C365 C368 1.396 . S
C365 C377 1.453 . S
C365 C378 1.684 . S
H366 C390 0.948 . S
C367 C363 1.397 . S
C367 C368 1.394 . S
C367 C386 1.723 . S
C368 C365 1.396 . S
C368 C367 1.394 . S
C368 C398 1.723 . S
H369 C392 0.947 . S
H370 C393 0.948 . S
H371 C399 0.982 . S
H372 C400 0.979 . S
H373 C400 0.980 . S
H374 C400 0.983 . S
H375 C399 0.979 . S
H376 C399 0.977 . S
C377 C365 1.453 . S
C377 H406 0.982 . S
C377 H407 0.979 . S
C377 H408 0.977 . S
C378 C365 1.684 . S
C378 H403 0.979 . S
C378 H404 0.980 . S
C378 H405 0.983 . S
C379 C380 1.391 . S
C379 C384 1.391 . S
C379 H409 0.948 . S
C380 C379 1.391 . S
C380 C381 1.391 . S
C381 C380 1.391 . S
C381 C382 1.392 . S
C381 H410 0.947 . S
C382 C381 1.392 . S
C382 C383 1.419 . S
C382 H411 0.948 . S
C383 C382 1.419 . S
C383 C384 1.391 . S
C383 C387 1.397 . S
C384 C379 1.391 . S
C384 C383 1.391 . S
C384 C385 1.399 . S
C385 C384 1.399 . S
C385 C386 1.396 . S
C385 C388 1.453 . S
C385 C389 1.684 . S
C386 C367 1.723 . S
C386 C385 1.396 . S
C386 C387 1.394 . S
C387 C383 1.397 . S
C387 C386 1.394 . S
C387 C397 1.723 . S
C388 C385 1.453 . S
C388 H412 0.982 . S
C388 H413 0.979 . S
C388 H414 0.977 . S
C389 C385 1.684 . S
C389 H415 0.979 . S
C389 H416 0.980 . S
C389 H417 0.983 . S
C390 H366 0.948 . S
C390 C391 1.391 . S
C390 C395 1.391 . S
C391 C390 1.391 . S
C391 C392 1.391 . S
C392 H369 0.947 . S
C392 C391 1.391 . S
C392 C393 1.392 . S
C393 H370 0.948 . S
C393 C392 1.392 . S
C393 C394 1.419 . S
C394 C393 1.419 . S
C394 C395 1.391 . S
C394 C398 1.397 . S
C395 C390 1.391 . S
C395 C394 1.391 . S
C395 C396 1.399 . S
C396 C395 1.399 . S
C396 C397 1.396 . S
C396 C399 1.453 . S
C396 C400 1.684 . S
C397 C387 1.723 . S
C397 C396 1.396 . S
C397 C398 1.394 . S
C398 C368 1.723 . S
C398 C394 1.397 . S
C398 C397 1.394 . S
C399 H371 0.982 . S
C399 H375 0.979 . S
C399 H376 0.977 . S
C399 C396 1.453 . S
C400 H372 0.979 . S
C400 H373 0.980 . S
C400 H374 0.983 . S
C400 C396 1.684 . S
H401 C419 0.948 . S
H402 C360 0.948 . S
H403 C378 0.979 . S
H404 C378 0.980 . S
H405 C378 0.983 . S
H406 C377 0.982 . S
H407 C377 0.979 . S
H408 C377 0.977 . S
H409 C379 0.948 . S
H410 C381 0.947 . S
H411 C382 0.948 . S
H412 C388 0.982 . S
H413 C388 0.979 . S
H414 C388 0.977 . S
H415 C389 0.979 . S
H416 C389 0.980 . S
H417 C389 0.983 . S
H418 C362 0.947 . S
C419 C362 1.392 . S
C419 C363 1.419 . S
C419 H401 0.948 . S
C420 C421 1.391 . S
C420 C424 1.391 . S
C420 H462 0.948 . S
C421 C420 1.391 . S
C421 C422 1.391 . S
C422 C421 1.391 . S
C422 H478 0.947 . S
C422 C479 1.392 . S
C423 C424 1.391 . S
C423 C427 1.397 . S
C423 C479 1.419 . S
C424 C420 1.391 . S
C424 C423 1.391 . S
C424 C425 1.399 . S
C425 C424 1.399 . S
C425 C428 1.396 . S
C425 C437 1.453 . S
C425 C438 1.684 . S
H426 C450 0.948 . S
C427 C423 1.397 . S
C427 C428 1.394 . S
C427 C446 1.723 . S
C428 C425 1.396 . S
C428 C427 1.394 . S
C428 C458 1.723 . S
H429 C452 0.947 . S
H430 C453 0.948 . S
H431 C459 0.982 . S
H432 C460 0.979 . S
H433 C460 0.980 . S
H434 C460 0.983 . S
H435 C459 0.979 . S
H436 C459 0.977 . S
C437 C425 1.453 . S
C437 H466 0.982 . S
C437 H467 0.979 . S
C437 H468 0.977 . S
C438 C425 1.684 . S
C438 H463 0.979 . S
C438 H464 0.980 . S
C438 H465 0.983 . S
C439 C440 1.391 . S
C439 C444 1.391 . S
C439 H469 0.948 . S
C440 C439 1.391 . S
C440 C441 1.391 . S
C441 C440 1.391 . S
C441 C442 1.392 . S
C441 H470 0.947 . S
C442 C441 1.392 . S
C442 C443 1.419 . S
C442 H471 0.948 . S
C443 C442 1.419 . S
C443 C444 1.391 . S
C443 C447 1.397 . S
C444 C439 1.391 . S
C444 C443 1.391 . S
C444 C445 1.399 . S
C445 C444 1.399 . S
C445 C446 1.396 . S
C445 C448 1.453 . S
C445 C449 1.684 . S
C446 C427 1.723 . S
C446 C445 1.396 . S
C446 C447 1.394 . S
C447 C443 1.397 . S
C447 C446 1.394 . S
C447 C457 1.723 . S
C448 C445 1.453 . S
C448 H472 0.982 . S
C448 H473 0.979 . S
C448 H474 0.977 . S
C449 C445 1.684 . S
C449 H475 0.979 . S
C449 H476 0.980 . S
C449 H477 0.983 . S
C450 H426 0.948 . S
C450 C451 1.391 . S
C450 C455 1.391 . S
C451 C450 1.391 . S
C451 C452 1.391 . S
C452 H429 0.947 . S
C452 C451 1.391 . S
C452 C453 1.392 . S
C453 H430 0.948 . S
C453 C452 1.392 . S
C453 C454 1.419 . S
C454 C453 1.419 . S
C454 C455 1.391 . S
C454 C458 1.397 . S
C455 C450 1.391 . S
C455 C454 1.391 . S
C455 C456 1.399 . S
C456 C455 1.399 . S
C456 C457 1.396 . S
C456 C459 1.453 . S
C456 C460 1.684 . S
C457 C447 1.723 . S
C457 C456 1.396 . S
C457 C458 1.394 . S
C458 C428 1.723 . S
C458 C454 1.397 . S
C458 C457 1.394 . S
C459 H431 0.982 . S
C459 H435 0.979 . S
C459 H436 0.977 . S
C459 C456 1.453 . S
C460 H432 0.979 . S
C460 H433 0.980 . S
C460 H434 0.983 . S
C460 C456 1.684 . S
H461 C479 0.948 . S
H462 C420 0.948 . S
H463 C438 0.979 . S
H464 C438 0.980 . S
H465 C438 0.983 . S
H466 C437 0.982 . S
H467 C437 0.979 . S
H468 C437 0.977 . S
H469 C439 0.948 . S
H470 C441 0.947 . S
H471 C442 0.948 . S
H472 C448 0.982 . S
H473 C448 0.979 . S
H474 C448 0.977 . S
H475 C449 0.979 . S
H476 C449 0.980 . S
H477 C449 0.983 . S
H478 C422 0.947 . S
C479 C422 1.392 . S
C479 C423 1.419 . S
C479 H461 0.948 . S
C480 C482 1.422 . S
C480 C484 1.415 . S
C480 N486 1.369 . S
C481 C482 1.421 . S
C481 C483 1.417 . S
C481 C493 1.422 . S
C482 C480 1.422 . S
C482 C481 1.421 . S
C482 N492 1.359 . S
C483 C481 1.417 . S
C483 C485 1.329 . S
C483 H502 0.930 . S
C484 C480 1.415 . S
C484 C485 1.437 . S
C484 C488 1.413 . S
C485 C483 1.329 . S
C485 C484 1.437 . S
C485 H507 0.929 . S
N486 C480 1.369 . S
N486 C487 1.338 . S
N486 Gd491 2.622 . S
C487 N486 1.338 . S
C487 C489 1.378 . S
C487 H499 0.929 . S
C488 C484 1.413 . S
C488 C489 1.348 . S
C488 H504 0.931 . S
C489 C487 1.378 . S
C489 C488 1.348 . S
C489 H505 0.930 . S
Gd490 N510 2.622 . S
Gd490 N517 2.570 . S
Gd490 O524 2.353 . S
Gd490 O525 2.468 . S
Gd490 O526 2.427 . S
Gd490 O528 2.388 . S
Gd490 O529 2.386 . S
Gd490 O533 2.307 . S
Gd490 C543 2.805 . S
Gd491 N486 2.622 . S
Gd491 N492 2.570 . S
Gd491 O523 2.386 . S
Gd491 O527 2.307 1_655 S
Gd491 O530 2.353 1_655 S
Gd491 O531 2.468 . S
Gd491 O532 2.427 . S
Gd491 O534 2.388 . S
Gd491 C555 2.805 . S
N492 C482 1.359 . S
N492 Gd491 2.570 . S
N492 C494 1.343 . S
C493 C481 1.422 . S
C493 C495 1.321 . S
C493 H501 0.931 . S
C494 N492 1.343 . S
C494 C495 1.390 . S
C494 H496 0.931 . S
C495 C493 1.321 . S
C495 C494 1.390 . S
C495 H497 0.930 . S
H496 C494 0.931 . S
H497 C495 0.930 . S
H498 C521 0.931 . S
H499 C487 0.929 . S
H500 C522 0.930 . S
H501 C493 0.931 . S
H502 C483 0.930 . S
H503 C512 0.929 . S
H504 C488 0.931 . S
H505 C489 0.930 . S
H506 C544 0.930 . S
H507 C485 0.929 . S
H508 C513 0.931 . S
H509 C514 0.930 . S
N510 Gd490 2.622 . S
N510 C511 1.369 . S
N510 C512 1.338 . S
C511 N510 1.369 . S
C511 C515 1.415 . S
C511 C518 1.422 . S
C512 H503 0.929 . S
C512 N510 1.338 . S
C512 C514 1.378 . S
C513 H508 0.931 . S
C513 C514 1.348 . S
C513 C515 1.413 . S
C514 H509 0.930 . S
C514 C512 1.378 . S
C514 C513 1.348 . S
C515 C511 1.415 . S
C515 C513 1.413 . S
C515 C545 1.437 . S
H516 C545 0.929 . S
N517 Gd490 2.570 . S
N517 C518 1.359 . S
N517 C521 1.343 . S
C518 C511 1.422 . S
C518 N517 1.359 . S
C518 C520 1.421 . S
C519 C520 1.422 . S
C519 C522 1.321 . S
C519 H546 0.931 . S
C520 C518 1.421 . S
C520 C519 1.422 . S
C520 C544 1.417 . S
C521 H498 0.931 . S
C521 N517 1.343 . S
C521 C522 1.390 . S
C522 H500 0.930 . S
C522 C519 1.321 . S
C522 C521 1.390 . S
O523 Gd491 2.386 . S
O523 C535 1.265 . S
O524 Gd490 2.353 . S
O524 C535 1.242 1_455 S
O525 Gd490 2.468 . S
O525 C543 1.263 . S
O526 Gd490 2.427 . S
O526 C543 1.252 . S
O527 Gd491 2.307 1_455 S
O527 C536 1.261 . S
O528 Gd490 2.388 . S
O528 C536 1.252 . S
O529 Gd490 2.386 . S
O529 C547 1.265 . S
O530 Gd491 2.353 1_455 S
O530 C547 1.242 . S
O531 Gd491 2.468 . S
O531 C555 1.263 . S
O532 Gd491 2.427 . S
O532 C555 1.252 . S
O533 Gd490 2.307 . S
O533 C548 1.261 1_455 S
O534 Gd491 2.388 . S
O534 C548 1.252 . S
C535 O523 1.265 . S
C535 O524 1.242 1_655 S
C536 O527 1.261 . S
C536 O528 1.252 . S
C537 C540 1.394 . S
C537 C542 1.370 . S
C537 C543 1.500 . S
C538 C541 1.383 . S
C538 C542 1.395 . S
C539 C540 1.396 . S
C539 C541 1.365 . S
C539 H556 0.929 . S
C540 C537 1.394 . S
C540 C539 1.396 . S
C540 H557 0.930 . S
C541 C538 1.383 . S
C541 C539 1.365 . S
C541 H558 0.931 . S
C542 C537 1.370 . S
C542 C538 1.395 . S
C542 H559 0.930 . S
C543 Gd490 2.805 . S
C543 O525 1.263 . S
C543 O526 1.252 . S
C543 C537 1.500 . S
C544 H506 0.930 . S
C544 C520 1.417 . S
C544 C545 1.329 . S
C545 C515 1.437 . S
C545 H516 0.929 . S
C545 C544 1.329 . S
H546 C519 0.931 . S
C547 O529 1.265 . S
C547 O530 1.242 . S
C548 O533 1.261 1_655 S
C548 O534 1.252 . S
C549 C552 1.394 . S
C549 C554 1.370 . S
C549 C555 1.500 . S
C550 C553 1.383 . S
C550 C554 1.395 . S
C551 C552 1.396 . S
C551 C553 1.365 . S
C551 H560 0.929 . S
C552 C549 1.394 . S
C552 C551 1.396 . S
C552 H561 0.930 . S
C553 C550 1.383 . S
C553 C551 1.365 . S
C553 H562 0.931 . S
C554 C549 1.370 . S
C554 C550 1.395 . S
C554 H563 0.930 . S
C555 Gd491 2.805 . S
C555 O531 1.263 . S
C555 O532 1.252 . S
C555 C549 1.500 . S
H556 C539 0.929 . S
H557 C540 0.930 . S
H558 C541 0.931 . S
H559 C542 0.930 . S
H560 C551 0.929 . S
H561 C552 0.930 . S
H562 C553 0.931 . S
H563 C554 0.930 . S
C564 C566 1.422 . S
C564 C568 1.415 . S
C564 N570 1.369 . S
C565 C566 1.421 . S
C565 C567 1.417 . S
C565 C577 1.422 . S
C566 C564 1.422 . S
C566 C565 1.421 . S
C566 N576 1.359 . S
C567 C565 1.417 . S
C567 C569 1.329 . S
C567 H586 0.930 . S
C568 C564 1.415 . S
C568 C569 1.437 . S
C568 C572 1.413 . S
C569 C567 1.329 . S
C569 C568 1.437 . S
C569 H591 0.929 . S
N570 C564 1.369 . S
N570 C571 1.338 . S
N570 Gd575 2.622 . S
C571 N570 1.338 . S
C571 C573 1.378 . S
C571 H583 0.929 . S
C572 C568 1.413 . S
C572 C573 1.348 . S
C572 H588 0.931 . S
C573 C571 1.378 . S
C573 C572 1.348 . S
C573 H589 0.930 . S
Gd574 N594 2.622 . S
Gd574 N601 2.570 . S
Gd574 O608 2.353 . S
Gd574 O609 2.468 . S
Gd574 O610 2.427 . S
Gd574 O612 2.388 . S
Gd574 O613 2.386 . S
Gd574 O617 2.307 . S
Gd574 C627 2.805 . S
Gd575 N570 2.622 . S
Gd575 N576 2.570 . S
Gd575 O607 2.386 . S
Gd575 O611 2.307 . S
Gd575 O614 2.353 . S
Gd575 O615 2.468 . S
Gd575 O616 2.427 . S
Gd575 O618 2.388 . S
Gd575 C639 2.805 . S
N576 C566 1.359 . S
N576 Gd575 2.570 . S
N576 C578 1.343 . S
C577 C565 1.422 . S
C577 C579 1.321 . S
C577 H585 0.931 . S
C578 N576 1.343 . S
C578 C579 1.390 . S
C578 H580 0.931 . S
C579 C577 1.321 . S
C579 C578 1.390 . S
C579 H581 0.930 . S
H580 C578 0.931 . S
H581 C579 0.930 . S
H582 C605 0.931 . S
H583 C571 0.929 . S
H584 C606 0.930 . S
H585 C577 0.931 . S
H586 C567 0.930 . S
H587 C596 0.929 . S
H588 C572 0.931 . S
H589 C573 0.930 . S
H590 C628 0.930 . S
H591 C569 0.929 . S
H592 C597 0.931 . S
H593 C598 0.930 . S
N594 Gd574 2.622 . S
N594 C595 1.369 . S
N594 C596 1.338 . S
C595 N594 1.369 . S
C595 C599 1.415 . S
C595 C602 1.422 . S
C596 H587 0.929 . S
C596 N594 1.338 . S
C596 C598 1.378 . S
C597 H592 0.931 . S
C597 C598 1.348 . S
C597 C599 1.413 . S
C598 H593 0.930 . S
C598 C596 1.378 . S
C598 C597 1.348 . S
C599 C595 1.415 . S
C599 C597 1.413 . S
C599 C629 1.437 . S
H600 C629 0.929 . S
N601 Gd574 2.570 . S
N601 C602 1.359 . S
N601 C605 1.343 . S
C602 C595 1.422 . S
C602 N601 1.359 . S
C602 C604 1.421 . S
C603 C604 1.422 . S
C603 C606 1.321 . S
C603 H630 0.931 . S
C604 C602 1.421 . S
C604 C603 1.422 . S
C604 C628 1.417 . S
C605 H582 0.931 . S
C605 N601 1.343 . S
C605 C606 1.390 . S
C606 H584 0.930 . S
C606 C603 1.321 . S
C606 C605 1.390 . S
O607 Gd575 2.386 . S
O607 C619 1.265 . S
O608 Gd574 2.353 . S
O608 C619 1.242 . S
O609 Gd574 2.468 . S
O609 C627 1.263 . S
O610 Gd574 2.427 . S
O610 C627 1.252 . S
O611 Gd575 2.307 . S
O611 C620 1.261 . S
O612 Gd574 2.388 . S
O612 C620 1.252 . S
O613 Gd574 2.386 . S
O613 C631 1.265 . S
O614 Gd575 2.353 . S
O614 C631 1.242 . S
O615 Gd575 2.468 . S
O615 C639 1.263 . S
O616 Gd575 2.427 . S
O616 C639 1.252 . S
O617 Gd574 2.307 . S
O617 C632 1.261 . S
O618 Gd575 2.388 . S
O618 C632 1.252 . S
C619 O607 1.265 . S
C619 O608 1.242 . S
C620 O611 1.261 . S
C620 O612 1.252 . S
C621 C624 1.394 . S
C621 C626 1.370 . S
C621 C627 1.500 . S
C622 C625 1.383 . S
C622 C626 1.395 . S
C623 C624 1.396 . S
C623 C625 1.365 . S
C623 H640 0.929 . S
C624 C621 1.394 . S
C624 C623 1.396 . S
C624 H641 0.930 . S
C625 C622 1.383 . S
C625 C623 1.365 . S
C625 H642 0.931 . S
C626 C621 1.370 . S
C626 C622 1.395 . S
C626 H643 0.930 . S
C627 Gd574 2.805 . S
C627 O609 1.263 . S
C627 O610 1.252 . S
C627 C621 1.500 . S
C628 H590 0.930 . S
C628 C604 1.417 . S
C628 C629 1.329 . S
C629 C599 1.437 . S
C629 H600 0.929 . S
C629 C628 1.329 . S
H630 C603 0.931 . S
C631 O613 1.265 . S
C631 O614 1.242 . S
C632 O617 1.261 . S
C632 O618 1.252 . S
C633 C636 1.394 . S
C633 C638 1.370 . S
C633 C639 1.500 . S
C634 C637 1.383 . S
C634 C638 1.395 . S
C635 C636 1.396 . S
C635 C637 1.365 . S
C635 H644 0.929 . S
C636 C633 1.394 . S
C636 C635 1.396 . S
C636 H645 0.930 . S
C637 C634 1.383 . S
C637 C635 1.365 . S
C637 H646 0.931 . S
C638 C633 1.370 . S
C638 C634 1.395 . S
C638 H647 0.930 . S
C639 Gd575 2.805 . S
C639 O615 1.263 . S
C639 O616 1.252 . S
C639 C633 1.500 . S
H640 C623 0.929 . S
H641 C624 0.930 . S
H642 C625 0.931 . S
H643 C626 0.930 . S
H644 C635 0.929 . S
H645 C636 0.930 . S
H646 C637 0.931 . S
H647 C638 0.930 . S
C648 C650 1.422 . S
C648 C652 1.415 . S
C648 N654 1.369 . S
C649 C650 1.421 . S
C649 C651 1.417 . S
C649 C661 1.422 . S
C650 C648 1.422 . S
C650 C649 1.421 . S
C650 N660 1.359 . S
C651 C649 1.417 . S
C651 C653 1.329 . S
C651 H670 0.930 . S
C652 C648 1.415 . S
C652 C653 1.437 . S
C652 C656 1.413 . S
C653 C651 1.329 . S
C653 C652 1.437 . S
C653 H675 0.929 . S
N654 C648 1.369 . S
N654 C655 1.338 . S
N654 Gd659 2.622 . S
C655 N654 1.338 . S
C655 C657 1.378 . S
C655 H667 0.929 . S
C656 C652 1.413 . S
C656 C657 1.348 . S
C656 H672 0.931 . S
C657 C655 1.378 . S
C657 C656 1.348 . S
C657 H673 0.930 . S
Gd658 N678 2.622 . S
Gd658 N685 2.570 . S
Gd658 O692 2.353 . S
Gd658 O693 2.468 . S
Gd658 O694 2.427 . S
Gd658 O696 2.388 . S
Gd658 O697 2.386 . S
Gd658 O701 2.307 . S
Gd658 C711 2.805 . S
Gd659 N654 2.622 . S
Gd659 N660 2.570 . S
Gd659 O691 2.386 . S
Gd659 O695 2.307 1_655 S
Gd659 O698 2.353 1_655 S
Gd659 O699 2.468 . S
Gd659 O700 2.427 . S
Gd659 O702 2.388 . S
Gd659 C723 2.805 . S
N660 C650 1.359 . S
N660 Gd659 2.570 . S
N660 C662 1.343 . S
C661 C649 1.422 . S
C661 C663 1.321 . S
C661 H669 0.931 . S
C662 N660 1.343 . S
C662 C663 1.390 . S
C662 H664 0.931 . S
C663 C661 1.321 . S
C663 C662 1.390 . S
C663 H665 0.930 . S
H664 C662 0.931 . S
H665 C663 0.930 . S
H666 C689 0.931 . S
H667 C655 0.929 . S
H668 C690 0.930 . S
H669 C661 0.931 . S
H670 C651 0.930 . S
H671 C680 0.929 . S
H672 C656 0.931 . S
H673 C657 0.930 . S
H674 C712 0.930 . S
H675 C653 0.929 . S
H676 C681 0.931 . S
H677 C682 0.930 . S
N678 Gd658 2.622 . S
N678 C679 1.369 . S
N678 C680 1.338 . S
C679 N678 1.369 . S
C679 C683 1.415 . S
C679 C686 1.422 . S
C680 H671 0.929 . S
C680 N678 1.338 . S
C680 C682 1.378 . S
C681 H676 0.931 . S
C681 C682 1.348 . S
C681 C683 1.413 . S
C682 H677 0.930 . S
C682 C680 1.378 . S
C682 C681 1.348 . S
C683 C679 1.415 . S
C683 C681 1.413 . S
C683 C713 1.437 . S
H684 C713 0.929 . S
N685 Gd658 2.570 . S
N685 C686 1.359 . S
N685 C689 1.343 . S
C686 C679 1.422 . S
C686 N685 1.359 . S
C686 C688 1.421 . S
C687 C688 1.422 . S
C687 C690 1.321 . S
C687 H714 0.931 . S
C688 C686 1.421 . S
C688 C687 1.422 . S
C688 C712 1.417 . S
C689 H666 0.931 . S
C689 N685 1.343 . S
C689 C690 1.390 . S
C690 H668 0.930 . S
C690 C687 1.321 . S
C690 C689 1.390 . S
O691 Gd659 2.386 . S
O691 C703 1.265 . S
O692 Gd658 2.353 . S
O692 C703 1.242 1_455 S
O693 Gd658 2.468 . S
O693 C711 1.263 . S
O694 Gd658 2.427 . S
O694 C711 1.252 . S
O695 Gd659 2.307 1_455 S
O695 C704 1.261 . S
O696 Gd658 2.388 . S
O696 C704 1.252 . S
O697 Gd658 2.386 . S
O697 C715 1.265 . S
O698 Gd659 2.353 1_455 S
O698 C715 1.242 . S
O699 Gd659 2.468 . S
O699 C723 1.263 . S
O700 Gd659 2.427 . S
O700 C723 1.252 . S
O701 Gd658 2.307 . S
O701 C716 1.261 1_455 S
O702 Gd659 2.388 . S
O702 C716 1.252 . S
C703 O691 1.265 . S
C703 O692 1.242 1_655 S
C704 O695 1.261 . S
C704 O696 1.252 . S
C705 C708 1.394 . S
C705 C710 1.370 . S
C705 C711 1.500 . S
C706 C709 1.383 . S
C706 C710 1.395 . S
C707 C708 1.396 . S
C707 C709 1.365 . S
C707 H724 0.929 . S
C708 C705 1.394 . S
C708 C707 1.396 . S
C708 H725 0.930 . S
C709 C706 1.383 . S
C709 C707 1.365 . S
C709 H726 0.931 . S
C710 C705 1.370 . S
C710 C706 1.395 . S
C710 H727 0.930 . S
C711 Gd658 2.805 . S
C711 O693 1.263 . S
C711 O694 1.252 . S
C711 C705 1.500 . S
C712 H674 0.930 . S
C712 C688 1.417 . S
C712 C713 1.329 . S
C713 C683 1.437 . S
C713 H684 0.929 . S
C713 C712 1.329 . S
H714 C687 0.931 . S
C715 O697 1.265 . S
C715 O698 1.242 . S
C716 O701 1.261 1_655 S
C716 O702 1.252 . S
C717 C720 1.394 . S
C717 C722 1.370 . S
C717 C723 1.500 . S
C718 C721 1.383 . S
C718 C722 1.395 . S
C719 C720 1.396 . S
C719 C721 1.365 . S
C719 H728 0.929 . S
C720 C717 1.394 . S
C720 C719 1.396 . S
C720 H729 0.930 . S
C721 C718 1.383 . S
C721 C719 1.365 . S
C721 H730 0.931 . S
C722 C717 1.370 . S
C722 C718 1.395 . S
C722 H731 0.930 . S
C723 Gd659 2.805 . S
C723 O699 1.263 . S
C723 O700 1.252 . S
C723 C717 1.500 . S
H724 C707 0.929 . S
H725 C708 0.930 . S
H726 C709 0.931 . S
H727 C710 0.930 . S
H728 C719 0.929 . S
H729 C720 0.930 . S
H730 C721 0.931 . S
H731 C722 0.930 . S
C732 C734 1.422 . S
C732 C736 1.415 . S
C732 N738 1.369 . S
C733 C734 1.421 . S
C733 C735 1.417 . S
C733 C745 1.422 . S
C734 C732 1.422 . S
C734 C733 1.421 . S
C734 N744 1.359 . S
C735 C733 1.417 . S
C735 C737 1.329 . S
C735 H754 0.930 . S
C736 C732 1.415 . S
C736 C737 1.437 . S
C736 C740 1.413 . S
C737 C735 1.329 . S
C737 C736 1.437 . S
C737 H759 0.929 . S
N738 C732 1.369 . S
N738 C739 1.338 . S
N738 Gd743 2.622 . S
C739 N738 1.338 . S
C739 C741 1.378 . S
C739 H751 0.929 . S
C740 C736 1.413 . S
C740 C741 1.348 . S
C740 H756 0.931 . S
C741 C739 1.378 . S
C741 C740 1.348 . S
C741 H757 0.930 . S
Gd742 N762 2.622 . S
Gd742 N769 2.570 . S
Gd742 O776 2.353 . S
Gd742 O777 2.468 . S
Gd742 O778 2.427 . S
Gd742 O780 2.388 . S
Gd742 O781 2.386 . S
Gd742 O785 2.307 . S
Gd742 C795 2.805 . S
Gd743 N738 2.622 . S
Gd743 N744 2.570 . S
Gd743 O775 2.386 . S
Gd743 O779 2.307 . S
Gd743 O782 2.353 . S
Gd743 O783 2.468 . S
Gd743 O784 2.427 . S
Gd743 O786 2.388 . S
Gd743 C807 2.805 . S
N744 C734 1.359 . S
N744 Gd743 2.570 . S
N744 C746 1.343 . S
C745 C733 1.422 . S
C745 C747 1.321 . S
C745 H753 0.931 . S
C746 N744 1.343 . S
C746 C747 1.390 . S
C746 H748 0.931 . S
C747 C745 1.321 . S
C747 C746 1.390 . S
C747 H749 0.930 . S
H748 C746 0.931 . S
H749 C747 0.930 . S
H750 C773 0.931 . S
H751 C739 0.929 . S
H752 C774 0.930 . S
H753 C745 0.931 . S
H754 C735 0.930 . S
H755 C764 0.929 . S
H756 C740 0.931 . S
H757 C741 0.930 . S
H758 C796 0.930 . S
H759 C737 0.929 . S
H760 C765 0.931 . S
H761 C766 0.930 . S
N762 Gd742 2.622 . S
N762 C763 1.369 . S
N762 C764 1.338 . S
C763 N762 1.369 . S
C763 C767 1.415 . S
C763 C770 1.422 . S
C764 H755 0.929 . S
C764 N762 1.338 . S
C764 C766 1.378 . S
C765 H760 0.931 . S
C765 C766 1.348 . S
C765 C767 1.413 . S
C766 H761 0.930 . S
C766 C764 1.378 . S
C766 C765 1.348 . S
C767 C763 1.415 . S
C767 C765 1.413 . S
C767 C797 1.437 . S
H768 C797 0.929 . S
N769 Gd742 2.570 . S
N769 C770 1.359 . S
N769 C773 1.343 . S
C770 C763 1.422 . S
C770 N769 1.359 . S
C770 C772 1.421 . S
C771 C772 1.422 . S
C771 C774 1.321 . S
C771 H798 0.931 . S
C772 C770 1.421 . S
C772 C771 1.422 . S
C772 C796 1.417 . S
C773 H750 0.931 . S
C773 N769 1.343 . S
C773 C774 1.390 . S
C774 H752 0.930 . S
C774 C771 1.321 . S
C774 C773 1.390 . S
O775 Gd743 2.386 . S
O775 C787 1.265 . S
O776 Gd742 2.353 . S
O776 C787 1.242 . S
O777 Gd742 2.468 . S
O777 C795 1.263 . S
O778 Gd742 2.427 . S
O778 C795 1.252 . S
O779 Gd743 2.307 . S
O779 C788 1.261 . S
O780 Gd742 2.388 . S
O780 C788 1.252 . S
O781 Gd742 2.386 . S
O781 C799 1.265 . S
O782 Gd743 2.353 . S
O782 C799 1.242 . S
O783 Gd743 2.468 . S
O783 C807 1.263 . S
O784 Gd743 2.427 . S
O784 C807 1.252 . S
O785 Gd742 2.307 . S
O785 C800 1.261 . S
O786 Gd743 2.388 . S
O786 C800 1.252 . S
C787 O775 1.265 . S
C787 O776 1.242 . S
C788 O779 1.261 . S
C788 O780 1.252 . S
C789 C792 1.394 . S
C789 C794 1.370 . S
C789 C795 1.500 . S
C790 C793 1.383 . S
C790 C794 1.395 . S
C791 C792 1.396 . S
C791 C793 1.365 . S
C791 H808 0.929 . S
C792 C789 1.394 . S
C792 C791 1.396 . S
C792 H809 0.930 . S
C793 C790 1.383 . S
C793 C791 1.365 . S
C793 H810 0.931 . S
C794 C789 1.370 . S
C794 C790 1.395 . S
C794 H811 0.930 . S
C795 Gd742 2.805 . S
C795 O777 1.263 . S
C795 O778 1.252 . S
C795 C789 1.500 . S
C796 H758 0.930 . S
C796 C772 1.417 . S
C796 C797 1.329 . S
C797 C767 1.437 . S
C797 H768 0.929 . S
C797 C796 1.329 . S
H798 C771 0.931 . S
C799 O781 1.265 . S
C799 O782 1.242 . S
C800 O785 1.261 . S
C800 O786 1.252 . S
C801 C804 1.394 . S
C801 C806 1.370 . S
C801 C807 1.500 . S
C802 C805 1.383 . S
C802 C806 1.395 . S
C803 C804 1.396 . S
C803 C805 1.365 . S
C803 H812 0.929 . S
C804 C801 1.394 . S
C804 C803 1.396 . S
C804 H813 0.930 . S
C805 C802 1.383 . S
C805 C803 1.365 . S
C805 H814 0.931 . S
C806 C801 1.370 . S
C806 C802 1.395 . S
C806 H815 0.930 . S
C807 Gd743 2.805 . S
C807 O783 1.263 . S
C807 O784 1.252 . S
C807 C801 1.500 . S
H808 C791 0.929 . S
H809 C792 0.930 . S
H810 C793 0.931 . S
H811 C794 0.930 . S
H812 C803 0.929 . S
H813 C804 0.930 . S
H814 C805 0.931 . S
H815 C806 0.930 . S
C816 C817 1.391 1_545 S
C816 C818 1.394 . S
C816 H832 0.931 1_545 S
C817 C816 1.391 1_565 S
C817 C821 1.376 1_565 S
C818 C816 1.394 . S
C818 C819 1.369 . S
C818 C822 1.531 . S
C819 C818 1.369 . S
C819 C820 1.410 . S
C819 C827 1.503 . S
C820 C819 1.410 . S
C820 C821 1.392 . S
C820 C823 1.511 . S
C821 C817 1.376 1_545 S
C821 C820 1.392 . S
C821 H833 0.929 1_545 S
C822 C818 1.531 . S
C822 H834 0.960 . S
C822 H835 0.962 . S
C822 H836 0.960 . S
C823 C820 1.511 . S
C823 H837 0.961 . S
C823 H838 0.961 . S
C823 H839 0.961 . S
C824 C825 1.370 . S
C824 C826 1.363 . S
C824 H840 0.931 . S
C825 C824 1.370 . S
C825 C829 1.408 . S
C826 C824 1.363 . S
C826 C827 1.370 . S
C826 C830 1.524 . S
C827 C819 1.503 . S
C827 C826 1.370 . S
C827 C828 1.403 . S
C828 C827 1.403 . S
C828 C829 1.404 . S
C828 C831 1.539 . S
C829 C825 1.408 . S
C829 C828 1.404 . S
C829 H841 0.930 . S
C830 C826 1.524 . S
C830 H842 0.956 . S
C830 H843 0.961 . S
C830 H844 0.961 . S
C831 C828 1.539 . S
C831 H845 0.958 . S
C831 H846 0.961 . S
C831 H847 0.960 . S
H832 C816 0.931 1_565 S
H833 C821 0.929 1_565 S
H834 C822 0.960 . S
H835 C822 0.962 . S
H836 C822 0.960 . S
H837 C823 0.961 . S
H838 C823 0.961 . S
H839 C823 0.961 . S
H840 C824 0.931 . S
H841 C829 0.930 . S
H842 C830 0.956 . S
H843 C830 0.961 . S
H844 C830 0.961 . S
H845 C831 0.958 . S
H846 C831 0.961 . S
H847 C831 0.960 . S
C848 C849 1.391 . S
C848 C850 1.394 . S
C848 H864 0.931 . S
C849 C848 1.391 . S
C849 C853 1.376 . S
C850 C848 1.394 . S
C850 C851 1.369 . S
C850 C854 1.531 . S
C851 C850 1.369 . S
C851 C852 1.410 . S
C851 C859 1.503 . S
C852 C851 1.410 . S
C852 C853 1.392 . S
C852 C855 1.511 . S
C853 C849 1.376 . S
C853 C852 1.392 . S
C853 H865 0.929 . S
C854 C850 1.531 . S
C854 H866 0.960 . S
C854 H867 0.962 . S
C854 H868 0.960 . S
C855 C852 1.511 . S
C855 H869 0.961 . S
C855 H870 0.961 . S
C855 H871 0.961 . S
C856 C857 1.370 . S
C856 C858 1.363 . S
C856 H872 0.931 . S
C857 C856 1.370 . S
C857 C861 1.408 . S
C858 C856 1.363 . S
C858 C859 1.370 . S
C858 C862 1.524 . S
C859 C851 1.503 . S
C859 C858 1.370 . S
C859 C860 1.403 . S
C860 C859 1.403 . S
C860 C861 1.404 . S
C860 C863 1.539 . S
C861 C857 1.408 . S
C861 C860 1.404 . S
C861 H873 0.930 . S
C862 C858 1.524 . S
C862 H874 0.956 . S
C862 H875 0.961 . S
C862 H876 0.961 . S
C863 C860 1.539 . S
C863 H877 0.958 . S
C863 H878 0.961 . S
C863 H879 0.960 . S
H864 C848 0.931 . S
H865 C853 0.929 . S
H866 C854 0.960 . S
H867 C854 0.962 . S
H868 C854 0.960 . S
H869 C855 0.961 . S
H870 C855 0.961 . S
H871 C855 0.961 . S
H872 C856 0.931 . S
H873 C861 0.930 . S
H874 C862 0.956 . S
H875 C862 0.961 . S
H876 C862 0.961 . S
H877 C863 0.958 . S
H878 C863 0.961 . S
H879 C863 0.960 . S
C880 C881 1.391 . S
C880 C882 1.394 . S
C880 H896 0.931 . S
C881 C880 1.391 . S
C881 C885 1.376 . S
C882 C880 1.394 . S
C882 C883 1.369 . S
C882 C886 1.531 . S
C883 C882 1.369 . S
C883 C884 1.410 . S
C883 C891 1.503 . S
C884 C883 1.410 . S
C884 C885 1.392 . S
C884 C887 1.511 . S
C885 C881 1.376 . S
C885 C884 1.392 . S
C885 H897 0.929 . S
C886 C882 1.531 . S
C886 H898 0.960 . S
C886 H899 0.962 . S
C886 H900 0.960 . S
C887 C884 1.511 . S
C887 H901 0.961 . S
C887 H902 0.961 . S
C887 H903 0.961 . S
C888 C889 1.370 . S
C888 C890 1.363 . S
C888 H904 0.931 . S
C889 C888 1.370 . S
C889 C893 1.408 . S
C890 C888 1.363 . S
C890 C891 1.370 . S
C890 C894 1.524 . S
C891 C883 1.503 . S
C891 C890 1.370 . S
C891 C892 1.403 . S
C892 C891 1.403 . S
C892 C893 1.404 . S
C892 C895 1.539 . S
C893 C889 1.408 . S
C893 C892 1.404 . S
C893 H905 0.930 . S
C894 C890 1.524 . S
C894 H906 0.956 . S
C894 H907 0.961 . S
C894 H908 0.961 . S
C895 C892 1.539 . S
C895 H909 0.958 . S
C895 H910 0.961 . S
C895 H911 0.960 . S
H896 C880 0.931 . S
H897 C885 0.929 . S
H898 C886 0.960 . S
H899 C886 0.962 . S
H900 C886 0.960 . S
H901 C887 0.961 . S
H902 C887 0.961 . S
H903 C887 0.961 . S
H904 C888 0.931 . S
H905 C893 0.930 . S
H906 C894 0.956 . S
H907 C894 0.961 . S
H908 C894 0.961 . S
H909 C895 0.958 . S
H910 C895 0.961 . S
H911 C895 0.960 . S
C912 C913 1.391 1_545 S
C912 C914 1.394 . S
C912 H928 0.931 . S
C913 C912 1.391 1_565 S
C913 C917 1.376 . S
C914 C912 1.394 . S
C914 C915 1.369 . S
C914 C918 1.531 . S
C915 C914 1.369 . S
C915 C916 1.410 . S
C915 C923 1.503 . S
C916 C915 1.410 . S
C916 C917 1.392 1_545 S
C916 C919 1.511 . S
C917 C913 1.376 . S
C917 C916 1.392 1_565 S
C917 H929 0.929 . S
C918 C914 1.531 . S
C918 H930 0.960 . S
C918 H931 0.962 . S
C918 H932 0.960 . S
C919 C916 1.511 . S
C919 H933 0.961 1_545 S
C919 H934 0.961 . S
C919 H935 0.961 . S
C920 C921 1.370 . S
C920 C922 1.363 . S
C920 H936 0.931 . S
C921 C920 1.370 . S
C921 C925 1.408 . S
C922 C920 1.363 . S
C922 C923 1.370 . S
C922 C926 1.524 . S
C923 C915 1.503 . S
C923 C922 1.370 . S
C923 C924 1.403 . S
C924 C923 1.403 . S
C924 C925 1.404 . S
C924 C927 1.539 . S
C925 C921 1.408 . S
C925 C924 1.404 . S
C925 H937 0.930 . S
C926 C922 1.524 . S
C926 H938 0.956 . S
C926 H939 0.961 . S
C926 H940 0.961 . S
C927 C924 1.539 . S
C927 H941 0.958 . S
C927 H942 0.961 . S
C927 H943 0.960 . S
H928 C912 0.931 . S
H929 C917 0.929 . S
H930 C918 0.960 . S
H931 C918 0.962 . S
H932 C918 0.960 . S
H933 C919 0.961 1_565 S
H934 C919 0.961 . S
H935 C919 0.961 . S
H936 C920 0.931 . S
H937 C925 0.930 . S
H938 C926 0.956 . S
H939 C926 0.961 . S
H940 C926 0.961 . S
H941 C927 0.958 . S
H942 C927 0.961 . S
H943 C927 0.960 . S
C944 C945 1.391 . S
C944 C946 1.394 1_545 S
C944 H960 0.931 . S
C945 C944 1.391 . S
C945 C949 1.376 . S
C946 C944 1.394 1_565 S
C946 C947 1.369 . S
C946 C950 1.531 . S
C947 C946 1.369 . S
C947 C948 1.410 . S
C947 C955 1.503 . S
C948 C947 1.410 . S
C948 C949 1.392 1_565 S
C948 C951 1.511 . S
C949 C945 1.376 . S
C949 C948 1.392 1_545 S
C949 H961 0.929 . S
C950 C946 1.531 . S
C950 H962 0.960 . S
C950 H963 0.962 . S
C950 H964 0.960 . S
C951 C948 1.511 . S
C951 H965 0.961 . S
C951 H966 0.961 . S
C951 H967 0.961 . S
C952 C953 1.370 . S
C952 C954 1.363 . S
C952 H968 0.931 . S
C953 C952 1.370 . S
C953 C957 1.408 . S
C954 C952 1.363 . S
C954 C955 1.370 . S
C954 C958 1.524 . S
C955 C947 1.503 . S
C955 C954 1.370 . S
C955 C956 1.403 . S
C956 C955 1.403 . S
C956 C957 1.404 . S
C956 C959 1.539 . S
C957 C953 1.408 . S
C957 C956 1.404 . S
C957 H969 0.930 . S
C958 C954 1.524 . S
C958 H970 0.956 . S
C958 H971 0.961 . S
C958 H972 0.961 . S
C959 C956 1.539 . S
C959 H973 0.958 . S
C959 H974 0.961 . S
C959 H975 0.960 . S
H960 C944 0.931 . S
H961 C949 0.929 . S
H962 C950 0.960 . S
H963 C950 0.962 . S
H964 C950 0.960 . S
H965 C951 0.961 . S
H966 C951 0.961 . S
H967 C951 0.961 . S
H968 C952 0.931 . S
H969 C957 0.930 . S
H970 C958 0.956 . S
H971 C958 0.961 . S
H972 C958 0.961 . S
H973 C959 0.958 . S
H974 C959 0.961 . S
H975 C959 0.960 . S
C976 C977 1.391 . S
C976 C978 1.394 . S
C976 H992 0.931 . S
C977 C976 1.391 . S
C977 C981 1.376 . S
C978 C976 1.394 . S
C978 C979 1.369 . S
C978 C982 1.531 . S
C979 C978 1.369 . S
C979 C980 1.410 . S
C979 C987 1.503 . S
C980 C979 1.410 . S
C980 C981 1.392 . S
C980 C983 1.511 . S
C981 C977 1.376 . S
C981 C980 1.392 . S
C981 H993 0.929 . S
C982 C978 1.531 . S
C982 H994 0.960 . S
C982 H995 0.962 . S
C982 H996 0.960 . S
C983 C980 1.511 . S
C983 H997 0.961 . S
C983 H998 0.961 . S
C983 H999 0.961 . S
C984 C985 1.370 . S
C984 C986 1.363 . S
C984 H1000 0.931 . S
C985 C984 1.370 . S
C985 C989 1.408 . S
C986 C984 1.363 . S
C986 C987 1.370 . S
C986 C990 1.524 . S
C987 C979 1.503 . S
C987 C986 1.370 . S
C987 C988 1.403 . S
C988 C987 1.403 . S
C988 C989 1.404 . S
C988 C991 1.539 . S
C989 C985 1.408 . S
C989 C988 1.404 . S
C989 H1001 0.930 . S
C990 C986 1.524 . S
C990 H1002 0.956 . S
C990 H1003 0.961 . S
C990 H1004 0.961 . S
C991 C988 1.539 . S
C991 H1005 0.958 . S
C991 H1006 0.961 . S
C991 H1007 0.960 . S
H992 C976 0.931 . S
H993 C981 0.929 . S
H994 C982 0.960 . S
H995 C982 0.962 . S
H996 C982 0.960 . S
H997 C983 0.961 . S
H998 C983 0.961 . S
H999 C983 0.961 . S
H1000 C984 0.931 . S
H1001 C989 0.930 . S
H1002 C990 0.956 . S
H1003 C990 0.961 . S
H1004 C990 0.961 . S
H1005 C991 0.958 . S
H1006 C991 0.961 . S
H1007 C991 0.960 . S
C1008 C1009 1.391 . S
C1008 C1010 1.394 . S
C1008 H1024 0.931 . S
C1009 C1008 1.391 . S
C1009 C1013 1.376 . S
C1010 C1008 1.394 . S
C1010 C1011 1.369 . S
C1010 C1014 1.531 . S
C1011 C1010 1.369 . S
C1011 C1012 1.410 . S
C1011 C1019 1.503 . S
C1012 C1011 1.410 . S
C1012 C1013 1.392 . S
C1012 C1015 1.511 . S
C1013 C1009 1.376 . S
C1013 C1012 1.392 . S
C1013 H1025 0.929 . S
C1014 C1010 1.531 . S
C1014 H1026 0.960 . S
C1014 H1027 0.962 . S
C1014 H1028 0.960 . S
C1015 C1012 1.511 . S
C1015 H1029 0.961 . S
C1015 H1030 0.961 . S
C1015 H1031 0.961 . S
C1016 C1017 1.370 . S
C1016 C1018 1.363 . S
C1016 H1032 0.931 . S
C1017 C1016 1.370 . S
C1017 C1021 1.408 . S
C1018 C1016 1.363 . S
C1018 C1019 1.370 . S
C1018 C1022 1.524 . S
C1019 C1011 1.503 . S
C1019 C1018 1.370 . S
C1019 C1020 1.403 . S
C1020 C1019 1.403 . S
C1020 C1021 1.404 . S
C1020 C1023 1.539 . S
C1021 C1017 1.408 . S
C1021 C1020 1.404 . S
C1021 H1033 0.930 . S
C1022 C1018 1.524 . S
C1022 H1034 0.956 . S
C1022 H1035 0.961 . S
C1022 H1036 0.961 . S
C1023 C1020 1.539 . S
C1023 H1037 0.958 . S
C1023 H1038 0.961 . S
C1023 H1039 0.960 . S
H1024 C1008 0.931 . S
H1025 C1013 0.929 . S
H1026 C1014 0.960 . S
H1027 C1014 0.962 . S
H1028 C1014 0.960 . S
H1029 C1015 0.961 . S
H1030 C1015 0.961 . S
H1031 C1015 0.961 . S
H1032 C1016 0.931 . S
H1033 C1021 0.930 . S
H1034 C1022 0.956 . S
H1035 C1022 0.961 . S
H1036 C1022 0.961 . S
H1037 C1023 0.958 . S
H1038 C1023 0.961 . S
H1039 C1023 0.960 . S
C1040 C1041 1.391 . S
C1040 C1042 1.394 1_545 S
C1040 H1056 0.931 . S
C1041 C1040 1.391 . S
C1041 C1045 1.376 1_545 S
C1042 C1040 1.394 1_565 S
C1042 C1043 1.369 . S
C1042 C1046 1.531 . S
C1043 C1042 1.369 . S
C1043 C1044 1.410 . S
C1043 C1051 1.503 . S
C1044 C1043 1.410 . S
C1044 C1045 1.392 . S
C1044 C1047 1.511 . S
C1045 C1041 1.376 1_565 S
C1045 C1044 1.392 . S
C1045 H1057 0.929 . S
C1046 C1042 1.531 . S
C1046 H1058 0.960 . S
C1046 H1059 0.962 . S
C1046 H1060 0.960 1_565 S
C1047 C1044 1.511 . S
C1047 H1061 0.961 . S
C1047 H1062 0.961 . S
C1047 H1063 0.961 . S
C1048 C1049 1.370 . S
C1048 C1050 1.363 . S
C1048 H1064 0.931 . S
C1049 C1048 1.370 . S
C1049 C1053 1.408 . S
C1050 C1048 1.363 . S
C1050 C1051 1.370 . S
C1050 C1054 1.524 . S
C1051 C1043 1.503 . S
C1051 C1050 1.370 . S
C1051 C1052 1.403 . S
C1052 C1051 1.403 . S
C1052 C1053 1.404 . S
C1052 C1055 1.539 . S
C1053 C1049 1.408 . S
C1053 C1052 1.404 . S
C1053 H1065 0.930 . S
C1054 C1050 1.524 . S
C1054 H1066 0.956 . S
C1054 H1067 0.961 . S
C1054 H1068 0.961 . S
C1055 C1052 1.539 . S
C1055 H1069 0.958 . S
C1055 H1070 0.961 . S
C1055 H1071 0.960 . S
H1056 C1040 0.931 . S
H1057 C1045 0.929 . S
H1058 C1046 0.960 . S
H1059 C1046 0.962 . S
H1060 C1046 0.960 1_545 S
H1061 C1047 0.961 . S
H1062 C1047 0.961 . S
H1063 C1047 0.961 . S
H1064 C1048 0.931 . S
H1065 C1053 0.930 . S
H1066 C1054 0.956 . S
H1067 C1054 0.961 . S
H1068 C1054 0.961 . S
H1069 C1055 0.958 . S
H1070 C1055 0.961 . S
H1071 C1055 0.960 . S
C1072 C1073 1.391 . S
C1072 C1074 1.394 . S
C1072 H1088 0.931 . S
C1073 C1072 1.391 . S
C1073 C1077 1.376 . S
C1074 C1072 1.394 . S
C1074 C1075 1.369 . S
C1074 C1078 1.531 . S
C1075 C1074 1.369 . S
C1075 C1076 1.410 . S
C1075 C1083 1.503 . S
C1076 C1075 1.410 . S
C1076 C1077 1.392 . S
C1076 C1079 1.511 . S
C1077 C1073 1.376 . S
C1077 C1076 1.392 . S
C1077 H1089 0.929 . S
C1078 C1074 1.531 . S
C1078 H1090 0.960 . S
C1078 H1091 0.962 . S
C1078 H1092 0.960 . S
C1079 C1076 1.511 . S
C1079 H1093 0.961 . S
C1079 H1094 0.961 . S
C1079 H1095 0.961 . S
C1080 C1081 1.370 . S
C1080 C1082 1.363 . S
C1080 H1096 0.931 . S
C1081 C1080 1.370 . S
C1081 C1085 1.408 . S
C1082 C1080 1.363 . S
C1082 C1083 1.370 . S
C1082 C1086 1.524 . S
C1083 C1075 1.503 . S
C1083 C1082 1.370 . S
C1083 C1084 1.403 . S
C1084 C1083 1.403 . S
C1084 C1085 1.404 . S
C1084 C1087 1.539 . S
C1085 C1081 1.408 . S
C1085 C1084 1.404 . S
C1085 H1097 0.930 . S
C1086 C1082 1.524 . S
C1086 H1098 0.956 . S
C1086 H1099 0.961 . S
C1086 H1100 0.961 . S
C1087 C1084 1.539 . S
C1087 H1101 0.958 . S
C1087 H1102 0.961 . S
C1087 H1103 0.960 . S
H1088 C1072 0.931 . S
H1089 C1077 0.929 . S
H1090 C1078 0.960 . S
H1091 C1078 0.962 . S
H1092 C1078 0.960 . S
H1093 C1079 0.961 . S
H1094 C1079 0.961 . S
H1095 C1079 0.961 . S
H1096 C1080 0.931 . S
H1097 C1085 0.930 . S
H1098 C1086 0.956 . S
H1099 C1086 0.961 . S
H1100 C1086 0.961 . S
H1101 C1087 0.958 . S
H1102 C1087 0.961 . S
H1103 C1087 0.960 . S
C1104 C1105 1.391 . S
C1104 C1106 1.394 . S
C1104 H1120 0.931 . S
C1105 C1104 1.391 . S
C1105 C1109 1.376 . S
C1106 C1104 1.394 . S
C1106 C1107 1.369 . S
C1106 C1110 1.531 . S
C1107 C1106 1.369 . S
C1107 C1108 1.410 . S
C1107 C1115 1.503 . S
C1108 C1107 1.410 . S
C1108 C1109 1.392 . S
C1108 C1111 1.511 . S
C1109 C1105 1.376 . S
C1109 C1108 1.392 . S
C1109 H1121 0.929 . S
C1110 C1106 1.531 . S
C1110 H1122 0.960 . S
C1110 H1123 0.962 . S
C1110 H1124 0.960 . S
C1111 C1108 1.511 . S
C1111 H1125 0.961 . S
C1111 H1126 0.961 . S
C1111 H1127 0.961 . S
C1112 C1113 1.370 . S
C1112 C1114 1.363 . S
C1112 H1128 0.931 . S
C1113 C1112 1.370 . S
C1113 C1117 1.408 . S
C1114 C1112 1.363 . S
C1114 C1115 1.370 . S
C1114 C1118 1.524 . S
C1115 C1107 1.503 . S
C1115 C1114 1.370 . S
C1115 C1116 1.403 . S
C1116 C1115 1.403 . S
C1116 C1117 1.404 . S
C1116 C1119 1.539 . S
C1117 C1113 1.408 . S
C1117 C1116 1.404 . S
C1117 H1129 0.930 . S
C1118 C1114 1.524 . S
C1118 H1130 0.956 . S
C1118 H1131 0.961 . S
C1118 H1132 0.961 . S
C1119 C1116 1.539 . S
C1119 H1133 0.958 . S
C1119 H1134 0.961 . S
C1119 H1135 0.960 . S
H1120 C1104 0.931 . S
H1121 C1109 0.929 . S
H1122 C1110 0.960 . S
H1123 C1110 0.962 . S
H1124 C1110 0.960 . S
H1125 C1111 0.961 . S
H1126 C1111 0.961 . S
H1127 C1111 0.961 . S
H1128 C1112 0.931 . S
H1129 C1117 0.930 . S
H1130 C1118 0.956 . S
H1131 C1118 0.961 . S
H1132 C1118 0.961 . S
H1133 C1119 0.958 . S
H1134 C1119 0.961 . S
H1135 C1119 0.960 . S
C1136 C1137 1.391 . S
C1136 C1138 1.394 . S
C1136 H1152 0.931 . S
C1137 C1136 1.391 . S
C1137 C1141 1.376 . S
C1138 C1136 1.394 . S
C1138 C1139 1.369 . S
C1138 C1142 1.531 . S
C1139 C1138 1.369 . S
C1139 C1140 1.410 . S
C1139 C1147 1.503 . S
C1140 C1139 1.410 . S
C1140 C1141 1.392 . S
C1140 C1143 1.511 . S
C1141 C1137 1.376 . S
C1141 C1140 1.392 . S
C1141 H1153 0.929 . S
C1142 C1138 1.531 . S
C1142 H1154 0.960 . S
C1142 H1155 0.962 . S
C1142 H1156 0.960 . S
C1143 C1140 1.511 . S
C1143 H1157 0.961 . S
C1143 H1158 0.961 . S
C1143 H1159 0.961 . S
C1144 C1145 1.370 . S
C1144 C1146 1.363 . S
C1144 H1160 0.931 . S
C1145 C1144 1.370 . S
C1145 C1149 1.408 . S
C1146 C1144 1.363 . S
C1146 C1147 1.370 . S
C1146 C1150 1.524 . S
C1147 C1139 1.503 . S
C1147 C1146 1.370 . S
C1147 C1148 1.403 . S
C1148 C1147 1.403 . S
C1148 C1149 1.404 . S
C1148 C1151 1.539 . S
C1149 C1145 1.408 . S
C1149 C1148 1.404 . S
C1149 H1161 0.930 . S
C1150 C1146 1.524 . S
C1150 H1162 0.956 . S
C1150 H1163 0.961 . S
C1150 H1164 0.961 . S
C1151 C1148 1.539 . S
C1151 H1165 0.958 . S
C1151 H1166 0.961 . S
C1151 H1167 0.960 . S
H1152 C1136 0.931 . S
H1153 C1141 0.929 . S
H1154 C1142 0.960 . S
H1155 C1142 0.962 . S
H1156 C1142 0.960 . S
H1157 C1143 0.961 . S
H1158 C1143 0.961 . S
H1159 C1143 0.961 . S
H1160 C1144 0.931 . S
H1161 C1149 0.930 . S
H1162 C1150 0.956 . S
H1163 C1150 0.961 . S
H1164 C1150 0.961 . S
H1165 C1151 0.958 . S
H1166 C1151 0.961 . S
H1167 C1151 0.960 . S
C1168 C1169 1.391 . S
C1168 C1170 1.394 . S
C1168 H1184 0.931 . S
C1169 C1168 1.391 . S
C1169 C1173 1.376 . S
C1170 C1168 1.394 . S
C1170 C1171 1.369 . S
C1170 C1174 1.531 . S
C1171 C1170 1.369 . S
C1171 C1172 1.410 . S
C1171 C1179 1.503 . S
C1172 C1171 1.410 . S
C1172 C1173 1.392 . S
C1172 C1175 1.511 . S
C1173 C1169 1.376 . S
C1173 C1172 1.392 . S
C1173 H1185 0.929 . S
C1174 C1170 1.531 . S
C1174 H1186 0.960 . S
C1174 H1187 0.962 . S
C1174 H1188 0.960 . S
C1175 C1172 1.511 . S
C1175 H1189 0.961 . S
C1175 H1190 0.961 . S
C1175 H1191 0.961 . S
C1176 C1177 1.370 . S
C1176 C1178 1.363 . S
C1176 H1192 0.931 . S
C1177 C1176 1.370 . S
C1177 C1181 1.408 . S
C1178 C1176 1.363 . S
C1178 C1179 1.370 . S
C1178 C1182 1.524 . S
C1179 C1171 1.503 . S
C1179 C1178 1.370 . S
C1179 C1180 1.403 . S
C1180 C1179 1.403 . S
C1180 C1181 1.404 . S
C1180 C1183 1.539 . S
C1181 C1177 1.408 . S
C1181 C1180 1.404 . S
C1181 H1193 0.930 . S
C1182 C1178 1.524 . S
C1182 H1194 0.956 . S
C1182 H1195 0.961 . S
C1182 H1196 0.961 . S
C1183 C1180 1.539 . S
C1183 H1197 0.958 . S
C1183 H1198 0.961 . S
C1183 H1199 0.960 . S
H1184 C1168 0.931 . S
H1185 C1173 0.929 . S
H1186 C1174 0.960 . S
H1187 C1174 0.962 . S
H1188 C1174 0.960 . S
H1189 C1175 0.961 . S
H1190 C1175 0.961 . S
H1191 C1175 0.961 . S
H1192 C1176 0.931 . S
H1193 C1181 0.930 . S
H1194 C1182 0.956 . S
H1195 C1182 0.961 . S
H1196 C1182 0.961 . S
H1197 C1183 0.958 . S
H1198 C1183 0.961 . S
H1199 C1183 0.960 . S
C1200 C1201 1.391 . S
C1200 C1202 1.394 . S
C1200 H1216 0.931 . S
C1201 C1200 1.391 . S
C1201 C1205 1.376 . S
C1202 C1200 1.394 . S
C1202 C1203 1.369 . S
C1202 C1206 1.531 . S
C1203 C1202 1.369 . S
C1203 C1204 1.410 . S
C1203 C1211 1.503 . S
C1204 C1203 1.410 . S
C1204 C1205 1.392 . S
C1204 C1207 1.511 . S
C1205 C1201 1.376 . S
C1205 C1204 1.392 . S
C1205 H1217 0.929 . S
C1206 C1202 1.531 . S
C1206 H1218 0.960 . S
C1206 H1219 0.962 . S
C1206 H1220 0.960 . S
C1207 C1204 1.511 . S
C1207 H1221 0.961 . S
C1207 H1222 0.961 . S
C1207 H1223 0.961 . S
C1208 C1209 1.370 . S
C1208 C1210 1.363 . S
C1208 H1224 0.931 . S
C1209 C1208 1.370 . S
C1209 C1213 1.408 . S
C1210 C1208 1.363 . S
C1210 C1211 1.370 . S
C1210 C1214 1.524 . S
C1211 C1203 1.503 . S
C1211 C1210 1.370 . S
C1211 C1212 1.403 . S
C1212 C1211 1.403 . S
C1212 C1213 1.404 . S
C1212 C1215 1.539 . S
C1213 C1209 1.408 . S
C1213 C1212 1.404 . S
C1213 H1225 0.930 . S
C1214 C1210 1.524 . S
C1214 H1226 0.956 . S
C1214 H1227 0.961 . S
C1214 H1228 0.961 . S
C1215 C1212 1.539 . S
C1215 H1229 0.958 . S
C1215 H1230 0.961 . S
C1215 H1231 0.960 . S
H1216 C1200 0.931 . S
H1217 C1205 0.929 . S
H1218 C1206 0.960 . S
H1219 C1206 0.962 . S
H1220 C1206 0.960 . S
H1221 C1207 0.961 . S
H1222 C1207 0.961 . S
H1223 C1207 0.961 . S
H1224 C1208 0.931 . S
H1225 C1213 0.930 . S
H1226 C1214 0.956 . S
H1227 C1214 0.961 . S
H1228 C1214 0.961 . S
H1229 C1215 0.958 . S
H1230 C1215 0.961 . S
H1231 C1215 0.960 . S
C1232 C1233 1.391 . S
C1232 C1234 1.394 . S
C1232 H1248 0.931 . S
C1233 C1232 1.391 . S
C1233 C1237 1.376 . S
C1234 C1232 1.394 . S
C1234 C1235 1.369 . S
C1234 C1238 1.531 . S
C1235 C1234 1.369 . S
C1235 C1236 1.410 . S
C1235 C1243 1.503 . S
C1236 C1235 1.410 . S
C1236 C1237 1.392 . S
C1236 C1239 1.511 . S
C1237 C1233 1.376 . S
C1237 C1236 1.392 . S
C1237 H1249 0.929 . S
C1238 C1234 1.531 . S
C1238 H1250 0.960 . S
C1238 H1251 0.962 . S
C1238 H1252 0.960 . S
C1239 C1236 1.511 . S
C1239 H1253 0.961 . S
C1239 H1254 0.961 . S
C1239 H1255 0.961 . S
C1240 C1241 1.370 . S
C1240 C1242 1.363 . S
C1240 H1256 0.931 . S
C1241 C1240 1.370 . S
C1241 C1245 1.408 . S
C1242 C1240 1.363 . S
C1242 C1243 1.370 . S
C1242 C1246 1.524 . S
C1243 C1235 1.503 . S
C1243 C1242 1.370 . S
C1243 C1244 1.403 . S
C1244 C1243 1.403 . S
C1244 C1245 1.404 . S
C1244 C1247 1.539 . S
C1245 C1241 1.408 . S
C1245 C1244 1.404 . S
C1245 H1257 0.930 . S
C1246 C1242 1.524 . S
C1246 H1258 0.956 . S
C1246 H1259 0.961 . S
C1246 H1260 0.961 . S
C1247 C1244 1.539 . S
C1247 H1261 0.958 . S
C1247 H1262 0.961 . S
C1247 H1263 0.960 . S
H1248 C1232 0.931 . S
H1249 C1237 0.929 . S
H1250 C1238 0.960 . S
H1251 C1238 0.962 . S
H1252 C1238 0.960 . S
H1253 C1239 0.961 . S
H1254 C1239 0.961 . S
H1255 C1239 0.961 . S
H1256 C1240 0.931 . S
H1257 C1245 0.930 . S
H1258 C1246 0.956 . S
H1259 C1246 0.961 . S
H1260 C1246 0.961 . S
H1261 C1247 0.958 . S
H1262 C1247 0.961 . S
H1263 C1247 0.960 . S
C1264 C1265 1.391 . S
C1264 C1266 1.394 . S
C1264 H1280 0.931 . S
C1265 C1264 1.391 . S
C1265 C1269 1.376 . S
C1266 C1264 1.394 . S
C1266 C1267 1.369 . S
C1266 C1270 1.531 . S
C1267 C1266 1.369 . S
C1267 C1268 1.410 . S
C1267 C1275 1.503 . S
C1268 C1267 1.410 . S
C1268 C1269 1.392 . S
C1268 C1271 1.511 . S
C1269 C1265 1.376 . S
C1269 C1268 1.392 . S
C1269 H1281 0.929 . S
C1270 C1266 1.531 . S
C1270 H1282 0.960 . S
C1270 H1283 0.962 . S
C1270 H1284 0.960 . S
C1271 C1268 1.511 . S
C1271 H1285 0.961 . S
C1271 H1286 0.961 . S
C1271 H1287 0.961 . S
C1272 C1273 1.370 . S
C1272 C1274 1.363 . S
C1272 H1288 0.931 . S
C1273 C1272 1.370 . S
C1273 C1277 1.408 . S
C1274 C1272 1.363 . S
C1274 C1275 1.370 . S
C1274 C1278 1.524 . S
C1275 C1267 1.503 . S
C1275 C1274 1.370 . S
C1275 C1276 1.403 . S
C1276 C1275 1.403 . S
C1276 C1277 1.404 . S
C1276 C1279 1.539 . S
C1277 C1273 1.408 . S
C1277 C1276 1.404 . S
C1277 H1289 0.930 . S
C1278 C1274 1.524 . S
C1278 H1290 0.956 . S
C1278 H1291 0.961 . S
C1278 H1292 0.961 . S
C1279 C1276 1.539 . S
C1279 H1293 0.958 . S
C1279 H1294 0.961 . S
C1279 H1295 0.960 . S
H1280 C1264 0.931 . S
H1281 C1269 0.929 . S
H1282 C1270 0.960 . S
H1283 C1270 0.962 . S
H1284 C1270 0.960 . S
H1285 C1271 0.961 . S
H1286 C1271 0.961 . S
H1287 C1271 0.961 . S
H1288 C1272 0.931 . S
H1289 C1277 0.930 . S
H1290 C1278 0.956 . S
H1291 C1278 0.961 . S
H1292 C1278 0.961 . S
H1293 C1279 0.958 . S
H1294 C1279 0.961 . S
H1295 C1279 0.960 . S
C1296 C1297 1.391 . S
C1296 C1298 1.394 . S
C1296 H1312 0.931 . S
C1297 C1296 1.391 . S
C1297 C1301 1.376 . S
C1298 C1296 1.394 . S
C1298 C1299 1.369 . S
C1298 C1302 1.531 . S
C1299 C1298 1.369 . S
C1299 C1300 1.410 . S
C1299 C1307 1.503 . S
C1300 C1299 1.410 . S
C1300 C1301 1.392 . S
C1300 C1303 1.511 . S
C1301 C1297 1.376 . S
C1301 C1300 1.392 . S
C1301 H1313 0.929 . S
C1302 C1298 1.531 . S
C1302 H1314 0.960 . S
C1302 H1315 0.962 . S
C1302 H1316 0.960 . S
C1303 C1300 1.511 . S
C1303 H1317 0.961 . S
C1303 H1318 0.961 . S
C1303 H1319 0.961 . S
C1304 C1305 1.370 . S
C1304 C1306 1.363 . S
C1304 H1320 0.931 . S
C1305 C1304 1.370 . S
C1305 C1309 1.408 . S
C1306 C1304 1.363 . S
C1306 C1307 1.370 . S
C1306 C1310 1.524 . S
C1307 C1299 1.503 . S
C1307 C1306 1.370 . S
C1307 C1308 1.403 . S
C1308 C1307 1.403 . S
C1308 C1309 1.404 . S
C1308 C1311 1.539 . S
C1309 C1305 1.408 . S
C1309 C1308 1.404 . S
C1309 H1321 0.930 . S
C1310 C1306 1.524 . S
C1310 H1322 0.956 . S
C1310 H1323 0.961 . S
C1310 H1324 0.961 . S
C1311 C1308 1.539 . S
C1311 H1325 0.958 . S
C1311 H1326 0.961 . S
C1311 H1327 0.960 . S
H1312 C1296 0.931 . S
H1313 C1301 0.929 . S
H1314 C1302 0.960 . S
H1315 C1302 0.962 . S
H1316 C1302 0.960 . S
H1317 C1303 0.961 . S
H1318 C1303 0.961 . S
H1319 C1303 0.961 . S
H1320 C1304 0.931 . S
H1321 C1309 0.930 . S
H1322 C1310 0.956 . S
H1323 C1310 0.961 . S
H1324 C1310 0.961 . S
H1325 C1311 0.958 . S
H1326 C1311 0.961 . S
H1327 C1311 0.960 . S
C1328 C1329 1.391 . S
C1328 C1330 1.394 . S
C1328 H1344 0.931 . S
C1329 C1328 1.391 . S
C1329 C1333 1.376 . S
C1330 C1328 1.394 . S
C1330 C1331 1.369 . S
C1330 C1334 1.531 . S
C1331 C1330 1.369 . S
C1331 C1332 1.410 . S
C1331 C1339 1.503 . S
C1332 C1331 1.410 . S
C1332 C1333 1.392 . S
C1332 C1335 1.511 . S
C1333 C1329 1.376 . S
C1333 C1332 1.392 . S
C1333 H1345 0.929 . S
C1334 C1330 1.531 . S
C1334 H1346 0.960 . S
C1334 H1347 0.962 . S
C1334 H1348 0.960 . S
C1335 C1332 1.511 . S
C1335 H1349 0.961 . S
C1335 H1350 0.961 . S
C1335 H1351 0.961 . S
C1336 C1337 1.370 . S
C1336 C1338 1.363 . S
C1336 H1352 0.931 . S
C1337 C1336 1.370 . S
C1337 C1341 1.408 . S
C1338 C1336 1.363 . S
C1338 C1339 1.370 . S
C1338 C1342 1.524 . S
C1339 C1331 1.503 . S
C1339 C1338 1.370 . S
C1339 C1340 1.403 . S
C1340 C1339 1.403 . S
C1340 C1341 1.404 . S
C1340 C1343 1.539 . S
C1341 C1337 1.408 . S
C1341 C1340 1.404 . S
C1341 H1353 0.930 . S
C1342 C1338 1.524 . S
C1342 H1354 0.956 . S
C1342 H1355 0.961 . S
C1342 H1356 0.961 . S
C1343 C1340 1.539 . S
C1343 H1357 0.958 . S
C1343 H1358 0.961 . S
C1343 H1359 0.960 . S
H1344 C1328 0.931 . S
H1345 C1333 0.929 . S
H1346 C1334 0.960 . S
H1347 C1334 0.962 . S
H1348 C1334 0.960 . S
H1349 C1335 0.961 . S
H1350 C1335 0.961 . S
H1351 C1335 0.961 . S
H1352 C1336 0.931 . S
H1353 C1341 0.930 . S
H1354 C1342 0.956 . S
H1355 C1342 0.961 . S
H1356 C1342 0.961 . S
H1357 C1343 0.958 . S
H1358 C1343 0.961 . S
H1359 C1343 0.960 . S
C1360 C1361 1.391 . S
C1360 C1362 1.394 . S
C1360 H1376 0.931 . S
C1361 C1360 1.391 . S
C1361 C1365 1.376 . S
C1362 C1360 1.394 . S
C1362 C1363 1.369 . S
C1362 C1366 1.531 . S
C1363 C1362 1.369 . S
C1363 C1364 1.410 . S
C1363 C1371 1.503 . S
C1364 C1363 1.410 . S
C1364 C1365 1.392 . S
C1364 C1367 1.511 . S
C1365 C1361 1.376 . S
C1365 C1364 1.392 . S
C1365 H1377 0.929 . S
C1366 C1362 1.531 . S
C1366 H1378 0.960 . S
C1366 H1379 0.962 . S
C1366 H1380 0.960 . S
C1367 C1364 1.511 . S
C1367 H1381 0.961 . S
C1367 H1382 0.961 . S
C1367 H1383 0.961 . S
C1368 C1369 1.370 . S
C1368 C1370 1.363 . S
C1368 H1384 0.931 . S
C1369 C1368 1.370 . S
C1369 C1373 1.408 . S
C1370 C1368 1.363 . S
C1370 C1371 1.370 . S
C1370 C1374 1.524 . S
C1371 C1363 1.503 . S
C1371 C1370 1.370 . S
C1371 C1372 1.403 . S
C1372 C1371 1.403 . S
C1372 C1373 1.404 . S
C1372 C1375 1.539 . S
C1373 C1369 1.408 . S
C1373 C1372 1.404 . S
C1373 H1385 0.930 . S
C1374 C1370 1.524 . S
C1374 H1386 0.956 . S
C1374 H1387 0.961 . S
C1374 H1388 0.961 . S
C1375 C1372 1.539 . S
C1375 H1389 0.958 . S
C1375 H1390 0.961 . S
C1375 H1391 0.960 . S
H1376 C1360 0.931 . S
H1377 C1365 0.929 . S
H1378 C1366 0.960 . S
H1379 C1366 0.962 . S
H1380 C1366 0.960 . S
H1381 C1367 0.961 . S
H1382 C1367 0.961 . S
H1383 C1367 0.961 . S
H1384 C1368 0.931 . S
H1385 C1373 0.930 . S
H1386 C1374 0.956 . S
H1387 C1374 0.961 . S
H1388 C1374 0.961 . S
H1389 C1375 0.958 . S
H1390 C1375 0.961 . S
H1391 C1375 0.960 . S
C1392 C1393 1.391 . S
C1392 C1394 1.394 . S
C1392 H1408 0.931 . S
C1393 C1392 1.391 . S
C1393 C1397 1.376 . S
C1394 C1392 1.394 . S
C1394 C1395 1.369 . S
C1394 C1398 1.531 . S
C1395 C1394 1.369 . S
C1395 C1396 1.410 . S
C1395 C1403 1.503 . S
C1396 C1395 1.410 . S
C1396 C1397 1.392 . S
C1396 C1399 1.511 . S
C1397 C1393 1.376 . S
C1397 C1396 1.392 . S
C1397 H1409 0.929 . S
C1398 C1394 1.531 . S
C1398 H1410 0.960 . S
C1398 H1411 0.962 . S
C1398 H1412 0.960 . S
C1399 C1396 1.511 . S
C1399 H1413 0.961 . S
C1399 H1414 0.961 . S
C1399 H1415 0.961 . S
C1400 C1401 1.370 . S
C1400 C1402 1.363 . S
C1400 H1416 0.931 . S
C1401 C1400 1.370 . S
C1401 C1405 1.408 . S
C1402 C1400 1.363 . S
C1402 C1403 1.370 . S
C1402 C1406 1.524 . S
C1403 C1395 1.503 . S
C1403 C1402 1.370 . S
C1403 C1404 1.403 . S
C1404 C1403 1.403 . S
C1404 C1405 1.404 . S
C1404 C1407 1.539 . S
C1405 C1401 1.408 . S
C1405 C1404 1.404 . S
C1405 H1417 0.930 . S
C1406 C1402 1.524 . S
C1406 H1418 0.956 . S
C1406 H1419 0.961 . S
C1406 H1420 0.961 . S
C1407 C1404 1.539 . S
C1407 H1421 0.958 . S
C1407 H1422 0.961 . S
C1407 H1423 0.960 . S
H1408 C1392 0.931 . S
H1409 C1397 0.929 . S
H1410 C1398 0.960 . S
H1411 C1398 0.962 . S
H1412 C1398 0.960 . S
H1413 C1399 0.961 . S
H1414 C1399 0.961 . S
H1415 C1399 0.961 . S
H1416 C1400 0.931 . S
H1417 C1405 0.930 . S
H1418 C1406 0.956 . S
H1419 C1406 0.961 . S
H1420 C1406 0.961 . S
H1421 C1407 0.958 . S
H1422 C1407 0.961 . S
H1423 C1407 0.960 . S
C1424 C1425 1.391 . S
C1424 C1426 1.394 . S
C1424 H1440 0.931 . S
C1425 C1424 1.391 . S
C1425 C1429 1.376 . S
C1426 C1424 1.394 . S
C1426 C1427 1.369 . S
C1426 C1430 1.531 . S
C1427 C1426 1.369 . S
C1427 C1428 1.410 . S
C1427 C1435 1.503 . S
C1428 C1427 1.410 . S
C1428 C1429 1.392 . S
C1428 C1431 1.511 . S
C1429 C1425 1.376 . S
C1429 C1428 1.392 . S
C1429 H1441 0.929 . S
C1430 C1426 1.531 . S
C1430 H1442 0.960 . S
C1430 H1443 0.962 . S
C1430 H1444 0.960 . S
C1431 C1428 1.511 . S
C1431 H1445 0.961 . S
C1431 H1446 0.961 . S
C1431 H1447 0.961 . S
C1432 C1433 1.370 . S
C1432 C1434 1.363 . S
C1432 H1448 0.931 . S
C1433 C1432 1.370 . S
C1433 C1437 1.408 . S
C1434 C1432 1.363 . S
C1434 C1435 1.370 . S
C1434 C1438 1.524 . S
C1435 C1427 1.503 . S
C1435 C1434 1.370 . S
C1435 C1436 1.403 . S
C1436 C1435 1.403 . S
C1436 C1437 1.404 . S
C1436 C1439 1.539 . S
C1437 C1433 1.408 . S
C1437 C1436 1.404 . S
C1437 H1449 0.930 . S
C1438 C1434 1.524 . S
C1438 H1450 0.956 . S
C1438 H1451 0.961 . S
C1438 H1452 0.961 . S
C1439 C1436 1.539 . S
C1439 H1453 0.958 . S
C1439 H1454 0.961 . S
C1439 H1455 0.960 . S
H1440 C1424 0.931 . S
H1441 C1429 0.929 . S
H1442 C1430 0.960 . S
H1443 C1430 0.962 . S
H1444 C1430 0.960 . S
H1445 C1431 0.961 . S
H1446 C1431 0.961 . S
H1447 C1431 0.961 . S
H1448 C1432 0.931 . S
H1449 C1437 0.930 . S
H1450 C1438 0.956 . S
H1451 C1438 0.961 . S
H1452 C1438 0.961 . S
H1453 C1439 0.958 . S
H1454 C1439 0.961 . S
H1455 C1439 0.960 . S
C1456 C1457 1.391 . S
C1456 C1458 1.394 . S
C1456 H1472 0.931 . S
C1457 C1456 1.391 . S
C1457 C1461 1.376 . S
C1458 C1456 1.394 . S
C1458 C1459 1.369 . S
C1458 C1462 1.531 . S
C1459 C1458 1.369 . S
C1459 C1460 1.410 . S
C1459 C1467 1.503 . S
C1460 C1459 1.410 . S
C1460 C1461 1.392 . S
C1460 C1463 1.511 . S
C1461 C1457 1.376 . S
C1461 C1460 1.392 . S
C1461 H1473 0.929 . S
C1462 C1458 1.531 . S
C1462 H1474 0.960 . S
C1462 H1475 0.962 . S
C1462 H1476 0.960 . S
C1463 C1460 1.511 . S
C1463 H1477 0.961 . S
C1463 H1478 0.961 . S
C1463 H1479 0.961 . S
C1464 C1465 1.370 . S
C1464 C1466 1.363 . S
C1464 H1480 0.931 . S
C1465 C1464 1.370 . S
C1465 C1469 1.408 . S
C1466 C1464 1.363 . S
C1466 C1467 1.370 . S
C1466 C1470 1.524 . S
C1467 C1459 1.503 . S
C1467 C1466 1.370 . S
C1467 C1468 1.403 . S
C1468 C1467 1.403 . S
C1468 C1469 1.404 . S
C1468 C1471 1.539 . S
C1469 C1465 1.408 . S
C1469 C1468 1.404 . S
C1469 H1481 0.930 . S
C1470 C1466 1.524 . S
C1470 H1482 0.956 . S
C1470 H1483 0.961 . S
C1470 H1484 0.961 . S
C1471 C1468 1.539 . S
C1471 H1485 0.958 1_655 S
C1471 H1486 0.961 . S
C1471 H1487 0.960 . S
H1472 C1456 0.931 . S
H1473 C1461 0.929 . S
H1474 C1462 0.960 . S
H1475 C1462 0.962 . S
H1476 C1462 0.960 . S
H1477 C1463 0.961 . S
H1478 C1463 0.961 . S
H1479 C1463 0.961 . S
H1480 C1464 0.931 . S
H1481 C1469 0.930 . S
H1482 C1470 0.956 . S
H1483 C1470 0.961 . S
H1484 C1470 0.961 . S
H1485 C1471 0.958 1_455 S
H1486 C1471 0.961 . S
H1487 C1471 0.960 . S
C1488 C1489 1.391 . S
C1488 C1490 1.394 . S
C1488 H1504 0.931 . S
C1489 C1488 1.391 . S
C1489 C1493 1.376 . S
C1490 C1488 1.394 . S
C1490 C1491 1.369 . S
C1490 C1494 1.531 . S
C1491 C1490 1.369 . S
C1491 C1492 1.410 . S
C1491 C1499 1.503 . S
C1492 C1491 1.410 . S
C1492 C1493 1.392 . S
C1492 C1495 1.511 . S
C1493 C1489 1.376 . S
C1493 C1492 1.392 . S
C1493 H1505 0.929 . S
C1494 C1490 1.531 . S
C1494 H1506 0.960 . S
C1494 H1507 0.962 . S
C1494 H1508 0.960 . S
C1495 C1492 1.511 . S
C1495 H1509 0.961 . S
C1495 H1510 0.961 . S
C1495 H1511 0.961 . S
C1496 C1497 1.370 . S
C1496 C1498 1.363 . S
C1496 H1512 0.931 . S
C1497 C1496 1.370 . S
C1497 C1501 1.408 . S
C1498 C1496 1.363 . S
C1498 C1499 1.370 . S
C1498 C1502 1.524 . S
C1499 C1491 1.503 . S
C1499 C1498 1.370 . S
C1499 C1500 1.403 . S
C1500 C1499 1.403 . S
C1500 C1501 1.404 . S
C1500 C1503 1.539 . S
C1501 C1497 1.408 . S
C1501 C1500 1.404 . S
C1501 H1513 0.930 . S
C1502 C1498 1.524 . S
C1502 H1514 0.956 . S
C1502 H1515 0.961 . S
C1502 H1516 0.961 . S
C1503 C1500 1.539 . S
C1503 H1517 0.958 . S
C1503 H1518 0.961 . S
C1503 H1519 0.960 . S
H1504 C1488 0.931 . S
H1505 C1493 0.929 . S
H1506 C1494 0.960 . S
H1507 C1494 0.962 . S
H1508 C1494 0.960 . S
H1509 C1495 0.961 . S
H1510 C1495 0.961 . S
H1511 C1495 0.961 . S
H1512 C1496 0.931 . S
H1513 C1501 0.930 . S
H1514 C1502 0.956 . S
H1515 C1502 0.961 . S
H1516 C1502 0.961 . S
H1517 C1503 0.958 . S
H1518 C1503 0.961 . S
H1519 C1503 0.960 . S
C1520 C1521 1.391 . S
C1520 C1522 1.394 . S
C1520 H1536 0.931 . S
C1521 C1520 1.391 . S
C1521 C1525 1.376 . S
C1522 C1520 1.394 . S
C1522 C1523 1.369 . S
C1522 C1526 1.531 . S
C1523 C1522 1.369 . S
C1523 C1524 1.410 . S
C1523 C1531 1.503 . S
C1524 C1523 1.410 . S
C1524 C1525 1.392 . S
C1524 C1527 1.511 . S
C1525 C1521 1.376 . S
C1525 C1524 1.392 . S
C1525 H1537 0.929 . S
C1526 C1522 1.531 . S
C1526 H1538 0.960 . S
C1526 H1539 0.962 . S
C1526 H1540 0.960 . S
C1527 C1524 1.511 . S
C1527 H1541 0.961 . S
C1527 H1542 0.961 . S
C1527 H1543 0.961 . S
C1528 C1529 1.370 . S
C1528 C1530 1.363 . S
C1528 H1544 0.931 . S
C1529 C1528 1.370 . S
C1529 C1533 1.408 . S
C1530 C1528 1.363 . S
C1530 C1531 1.370 . S
C1530 C1534 1.524 . S
C1531 C1523 1.503 . S
C1531 C1530 1.370 . S
C1531 C1532 1.403 . S
C1532 C1531 1.403 . S
C1532 C1533 1.404 . S
C1532 C1535 1.539 . S
C1533 C1529 1.408 . S
C1533 C1532 1.404 . S
C1533 H1545 0.930 . S
C1534 C1530 1.524 . S
C1534 H1546 0.956 . S
C1534 H1547 0.961 . S
C1534 H1548 0.961 . S
C1535 C1532 1.539 . S
C1535 H1549 0.958 . S
C1535 H1550 0.961 . S
C1535 H1551 0.960 . S
H1536 C1520 0.931 . S
H1537 C1525 0.929 . S
H1538 C1526 0.960 . S
H1539 C1526 0.962 . S
H1540 C1526 0.960 . S
H1541 C1527 0.961 . S
H1542 C1527 0.961 . S
H1543 C1527 0.961 . S
H1544 C1528 0.931 . S
H1545 C1533 0.930 . S
H1546 C1534 0.956 . S
H1547 C1534 0.961 . S
H1548 C1534 0.961 . S
H1549 C1535 0.958 . S
H1550 C1535 0.961 . S
H1551 C1535 0.960 . S
C1552 C1553 1.391 . S
C1552 C1554 1.394 . S
C1552 H1568 0.931 . S
C1553 C1552 1.391 . S
C1553 C1557 1.376 . S
C1554 C1552 1.394 . S
C1554 C1555 1.369 . S
C1554 C1558 1.531 . S
C1555 C1554 1.369 . S
C1555 C1556 1.410 . S
C1555 C1563 1.503 . S
C1556 C1555 1.410 . S
C1556 C1557 1.392 . S
C1556 C1559 1.511 . S
C1557 C1553 1.376 . S
C1557 C1556 1.392 . S
C1557 H1569 0.929 . S
C1558 C1554 1.531 . S
C1558 H1570 0.960 . S
C1558 H1571 0.962 . S
C1558 H1572 0.960 . S
C1559 C1556 1.511 . S
C1559 H1573 0.961 . S
C1559 H1574 0.961 . S
C1559 H1575 0.961 . S
C1560 C1561 1.370 . S
C1560 C1562 1.363 . S
C1560 H1576 0.931 . S
C1561 C1560 1.370 . S
C1561 C1565 1.408 . S
C1562 C1560 1.363 . S
C1562 C1563 1.370 . S
C1562 C1566 1.524 . S
C1563 C1555 1.503 . S
C1563 C1562 1.370 . S
C1563 C1564 1.403 . S
C1564 C1563 1.403 . S
C1564 C1565 1.404 . S
C1564 C1567 1.539 . S
C1565 C1561 1.408 . S
C1565 C1564 1.404 . S
C1565 H1577 0.930 . S
C1566 C1562 1.524 . S
C1566 H1578 0.956 . S
C1566 H1579 0.961 . S
C1566 H1580 0.961 . S
C1567 C1564 1.539 . S
C1567 H1581 0.958 . S
C1567 H1582 0.961 . S
C1567 H1583 0.960 . S
H1568 C1552 0.931 . S
H1569 C1557 0.929 . S
H1570 C1558 0.960 . S
H1571 C1558 0.962 . S
H1572 C1558 0.960 . S
H1573 C1559 0.961 . S
H1574 C1559 0.961 . S
H1575 C1559 0.961 . S
H1576 C1560 0.931 . S
H1577 C1565 0.930 . S
H1578 C1566 0.956 . S
H1579 C1566 0.961 . S
H1580 C1566 0.961 . S
H1581 C1567 0.958 . S
H1582 C1567 0.961 . S
H1583 C1567 0.960 . S
C817 C361 1.447 . S
C825 C536 1.460 . S
C857 C620 1.462 . S
C849 C451 1.464 . S
C889 C619 1.466 . S
C881 C241 1.420 . S
C913 C331 1.433 . S
C921 C535 1.460 . S
C953 C716 1.448 . S
C945 C140 1.404 . S
C985 C800 1.447 . S
C977 C211 1.404 . S
C1009 C20 1.448 . S
C1017 C799 1.459 . S
C1041 C91 1.393 . S
C1049 C715 1.465 . S
C1081 C538 1.347 . S
C1073 C80 1.442 1_554 S
C1113 C622 1.311 . S
C1105 C1 1.473 . S
C1145 C634 1.392 . S
C1137 C200 1.516 1_556 S
C1177 C550 1.413 . S
C1169 C121 1.483 . S
C1209 C718 1.330 . S
C1201 C320 1.473 1_556 S
C1233 C260 1.469 . S
C1241 C802 1.335 . S
C1273 C790 1.394 . S
C1265 C440 1.519 1_554 S
C1297 C380 1.528 . S
C1305 C706 1.403 . S
C1337 C547 1.587 . S
C1329 C31 1.558 . S
C1369 C631 1.580 . S
C1361 C61 1.538 . S
C1393 C151 1.526 . S
C1401 C632 1.561 . S
C1433 C548 1.565 . S
C1425 C181 1.545 . S
C1465 C703 1.581 . S
C1457 C271 1.549 . S
C1489 C301 1.586 . S
C1497 C787 1.586 . S
C1521 C391 1.482 . S
C1529 C788 1.553 . S
C1553 C421 1.558 . S
C1561 C704 1.566 . S
