# Generated by pormake.
# Topology nom, (4,4)-cn, num edge types: 1
# Building blocks:
#     Node 0, Type 0, BuildingBlock: GIZVER_clean_linker_0, # of connection points: 4
#     Node 1, Type 0, BuildingBlock: GIZVER_clean_linker_0, # of connection points: 4
#     Node 2, Type 0, BuildingBlock: GIZVER_clean_linker_0, # of connection points: 4
#     Node 3, Type 0, BuildingBlock: GIZVER_clean_linker_0, # of connection points: 4
#     Node 4, Type 0, BuildingBlock: GIZVER_clean_linker_0, # of connection points: 4
#     Node 5, Type 0, BuildingBlock: GIZVER_clean_linker_0, # of connection points: 4
#     Node 6, Type 1, BuildingBlock: UXUYUI_clean_sbu_0, # of connection points: 4
#     Node 7, Type 1, BuildingBlock: UXUYUI_clean_sbu_0, # of connection points: 4
#     Node 8, Type 1, BuildingBlock: UXUYUI_clean_sbu_0, # of connection points: 4
#     Node 9, Type 1, BuildingBlock: UXUYUI_clean_sbu_0, # of connection points: 4
#     Node 10, Type 1, BuildingBlock: UXUYUI_clean_sbu_0, # of connection points: 4
#     Node 11, Type 1, BuildingBlock: UXUYUI_clean_sbu_0, # of connection points: 4
#     Edge 12, Type (0, 1), BuildingBlock: XUDNAN_clean_linker_2, # of connection points: 2
#     Edge 13, Type (0, 1), BuildingBlock: XUDNAN_clean_linker_2, # of connection points: 2
#     Edge 14, Type (0, 1), BuildingBlock: XUDNAN_clean_linker_2, # of connection points: 2
#     Edge 15, Type (0, 1), BuildingBlock: XUDNAN_clean_linker_2, # of connection points: 2
#     Edge 16, Type (0, 1), BuildingBlock: XUDNAN_clean_linker_2, # of connection points: 2
#     Edge 17, Type (0, 1), BuildingBlock: XUDNAN_clean_linker_2, # of connection points: 2
#     Edge 18, Type (0, 1), BuildingBlock: XUDNAN_clean_linker_2, # of connection points: 2
#     Edge 19, Type (0, 1), BuildingBlock: XUDNAN_clean_linker_2, # of connection points: 2
#     Edge 20, Type (0, 1), BuildingBlock: XUDNAN_clean_linker_2, # of connection points: 2
#     Edge 21, Type (0, 1), BuildingBlock: XUDNAN_clean_linker_2, # of connection points: 2
#     Edge 22, Type (0, 1), BuildingBlock: XUDNAN_clean_linker_2, # of connection points: 2
#     Edge 23, Type (0, 1), BuildingBlock: XUDNAN_clean_linker_2, # of connection points: 2
#     Edge 24, Type (0, 1), BuildingBlock: XUDNAN_clean_linker_2, # of connection points: 2
#     Edge 25, Type (0, 1), BuildingBlock: XUDNAN_clean_linker_2, # of connection points: 2
#     Edge 26, Type (0, 1), BuildingBlock: XUDNAN_clean_linker_2, # of connection points: 2
#     Edge 27, Type (0, 1), BuildingBlock: XUDNAN_clean_linker_2, # of connection points: 2
#     Edge 28, Type (0, 1), BuildingBlock: XUDNAN_clean_linker_2, # of connection points: 2
#     Edge 29, Type (0, 1), BuildingBlock: XUDNAN_clean_linker_2, # of connection points: 2
#     Edge 30, Type (0, 1), BuildingBlock: XUDNAN_clean_linker_2, # of connection points: 2
#     Edge 31, Type (0, 1), BuildingBlock: XUDNAN_clean_linker_2, # of connection points: 2
#     Edge 32, Type (0, 1), BuildingBlock: XUDNAN_clean_linker_2, # of connection points: 2
#     Edge 33, Type (0, 1), BuildingBlock: XUDNAN_clean_linker_2, # of connection points: 2
#     Edge 34, Type (0, 1), BuildingBlock: XUDNAN_clean_linker_2, # of connection points: 2
#     Edge 35, Type (0, 1), BuildingBlock: XUDNAN_clean_linker_2, # of connection points: 2
# Relax obj value: 0.036
# Max RMSD: 0.149
# Mean RMSD: 0.105
data_MOF--net-nom--node1-UXUYUI_clean_sbu_0--node2-GIZVER_clean_linker_0--edge1-XUDNAN_clean_linker_2
_symmetry_space_group_name_H-M    P1
_symmetry_Int_Tables_number       1
_symmetry_cell_setting            triclinic
loop_
_symmetry_equiv_pos_as_xyz
'x, y, z'
_cell_length_a     57.044464
_cell_length_b     57.074665
_cell_length_c     56.765084
_cell_angle_alpha  90.056781
_cell_angle_beta   89.965216
_cell_angle_gamma 120.06681
loop_
_atom_site_label
_atom_site_type_symbol
_atom_site_fract_x
_atom_site_fract_y
_atom_site_fract_z
_atom_type_partial_charge
H0 H 0.98153 0.55785 0.35772 0.0
H1 H 0.01462 0.55801 0.28955 0.0
H2 H 0.93285 0.49768 0.30636 0.0
H3 H 0.02415 0.59509 0.34716 0.0
H4 H 0.03067 0.60089 0.31645 0.0
H5 H 0.04737 0.57711 0.37088 0.0
H6 H 0.11817 0.58059 0.34051 0.0
H7 H 0.06339 0.59156 0.29649 0.0
C8 C 0.97957 0.54834 0.34074 0.0
C9 C 0.95449 0.52613 0.33404 0.0
C10 C 1.00156 0.55969 0.32487 0.0
C11 C 0.99823 0.54854 0.30216 0.0
C12 C 0.9734 0.52619 0.29526 0.0
C13 C 0.95214 0.51469 0.31164 0.0
C14 C 0.02695 0.58609 0.33074 0.0
C15 C 0.05165 0.58296 0.33319 0.0
C16 C 0.05946 0.57865 0.35559 0.0
C17 C 0.0839 0.57858 0.3585 0.0
C18 C 0.09941 0.58089 0.33853 0.0
C19 C 0.09229 0.58574 0.31625 0.0
C20 C 0.06844 0.58689 0.31359 0.0
H21 H 0.44498 0.98319 0.52647 0.0
H22 H 0.459 0.99893 0.45204 0.0
H23 H 0.45565 0.92822 0.48234 0.0
H24 H 0.43551 0.01578 0.50722 0.0
H25 H 0.43883 0.02034 0.47611 0.0
H26 H 0.47937 0.03653 0.53235 0.0
H27 H 0.53732 0.11634 0.50861 0.0
H28 H 0.47519 0.06133 0.46142 0.0
C29 C 0.44961 0.9781 0.50935 0.0
C30 C 0.45066 0.9542 0.50664 0.0
C31 C 0.45349 0.99485 0.48977 0.0
C32 C 0.45763 0.98694 0.46733 0.0
C33 C 0.4578 0.96255 0.4644 0.0
C34 C 0.45541 0.94701 0.48434 0.0
C35 C 0.44924 0.01886 0.49214 0.0
C36 C 0.47545 0.04522 0.49592 0.0
C37 C 0.48788 0.05131 0.51829 0.0
C38 C 0.50983 0.07722 0.52303 0.0
C39 C 0.52007 0.09649 0.50499 0.0
C40 C 0.50743 0.09134 0.48294 0.0
C41 C 0.48549 0.06536 0.47823 0.0
H42 H 0.44303 0.47653 0.62521 0.0
H43 H 0.46637 0.48357 0.69827 0.0
H44 H 0.45418 0.54472 0.66582 0.0
H45 H 0.43877 0.43772 0.64594 0.0
H46 H 0.44252 0.43897 0.67712 0.0
H47 H 0.48311 0.46112 0.62072 0.0
H48 H 0.53994 0.43861 0.64641 0.0
H49 H 0.47873 0.43489 0.69269 0.0
C50 C 0.44934 0.48806 0.64145 0.0
C51 C 0.44881 0.51231 0.64316 0.0
C52 C 0.45635 0.47785 0.66121 0.0
C53 C 0.46257 0.49214 0.68269 0.0
C54 C 0.46135 0.51607 0.68457 0.0
C55 C 0.45542 0.52639 0.66449 0.0
C56 C 0.45262 0.4497 0.66056 0.0
C57 C 0.47897 0.44973 0.65747 0.0
C58 C 0.49147 0.4552 0.63515 0.0
C59 C 0.51323 0.45077 0.63097 0.0
C60 C 0.52308 0.44197 0.64951 0.0
C61 C 0.51065 0.43589 0.67165 0.0
C62 C 0.48893 0.44036 0.67579 0.0
H63 H 0.98235 0.43461 0.78984 0.0
H64 H 1.00079 0.46483 0.86082 0.0
H65 H 0.9242 0.44481 0.82994 0.0
H66 H 0.01994 0.43631 0.80922 0.0
H67 H 0.02072 0.43824 0.84048 0.0
H68 H 0.04089 0.48203 0.78598 0.0
H69 H 0.11868 0.53804 0.81496 0.0
H70 H 0.05875 0.47469 0.85845 0.0
C71 C 0.97695 0.44151 0.80563 0.0
C72 C 0.95113 0.43887 0.8074 0.0
C73 C 0.99519 0.45139 0.82471 0.0
C74 C 0.98746 0.45887 0.84567 0.0
C75 C 0.96169 0.45629 0.84775 0.0
C76 C 0.9442 0.44721 0.82825 0.0
C77 C 0.02046 0.44906 0.82427 0.0
C78 C 0.04636 0.47611 0.82274 0.0
C79 C 0.05433 0.48986 0.80104 0.0
C80 C 0.08051 0.51215 0.79824 0.0
C81 C 0.09824 0.52134 0.81752 0.0
C82 C 0.09077 0.50811 0.83935 0.0
C83 C 0.06458 0.48558 0.8419 0.0
H84 H 0.60016 0.0582 0.03343 0.0
H85 H 0.57213 0.03194 0.96276 0.0
H86 H 0.60256 0.11498 0.9825 0.0
H87 H 0.59349 0.01567 0.02057 0.0
H88 H 0.59384 0.01082 0.98962 0.0
H89 H 0.54727 1.00321 0.03989 0.0
H90 H 0.4833 0.92757 0.01356 0.0
H91 H 0.55601 0.97296 0.97285 0.0
C92 C 0.59552 0.06248 0.01599 0.0
C93 C 0.60167 0.08896 0.01032 0.0
C94 C 0.5848 0.0418 -0.00109 0.0
C95 C 0.57966 0.04766 0.97609 0.0
C96 C 0.58564 0.074 0.97011 0.0
C97 C 0.5963 0.09432 0.98742 0.0
C98 C 0.58294 0.01489 0.00386 0.0
C99 C 0.55405 0.99176 0.00533 0.0
C100 C 0.53873 0.98849 0.02576 0.0
C101 C 0.51311 0.96543 0.02859 0.0
C102 C 0.50276 0.94572 0.01088 0.0
C103 C 0.51827 0.9478 0.99097 0.0
C104 C 0.54361 0.97135 0.98791 0.0
H105 H 0.60768 0.56334 0.12204 0.0
H106 H 0.57825 0.56172 0.19207 0.0
H107 H 0.60577 0.50666 0.17279 0.0
H108 H 0.60261 0.60001 0.1345 0.0
H109 H 0.60568 0.60603 0.16533 0.0
H110 H 0.55624 0.57475 0.11606 0.0
H111 H 0.49901 0.59238 0.1489 0.0
H112 H 0.56917 0.60444 0.18726 0.0
C113 C 0.60231 0.55418 0.13935 0.0
C114 C 0.60687 0.53277 0.14499 0.0
C115 C 0.59216 0.56482 0.15634 0.0
C116 C 0.58563 0.55322 0.17892 0.0
C117 C 0.58996 0.53177 0.18491 0.0
C118 C 0.60055 0.52179 0.16779 0.0
C119 C 0.59272 0.59117 0.15168 0.0
C120 C 0.56496 0.58849 0.15204 0.0
C121 C 0.54904 0.58043 0.1315 0.0
C122 C 0.52533 0.5821 0.1302 0.0
C123 C 0.51705 0.5907 0.1501 0.0
C124 C 0.53276 0.59926 0.17071 0.0
C125 C 0.55653 0.59756 0.17167 0.0
Li126 Li 0.63802 0.40648 0.4274 0.0
Li127 Li 0.6324 0.36716 0.4056 0.0
Li128 Li 0.67465 0.4111 0.40469 0.0
Li129 Li 0.63633 0.4076 0.38387 0.0
C130 C 0.65851 0.3869 0.45581 0.0
N131 N 0.65807 0.3889 0.50443 0.0
C132 C 0.63854 0.3651 0.46859 0.0
C133 C 0.67843 0.40958 0.46775 0.0
C134 C 0.63862 0.36653 0.49317 0.0
C135 C 0.67782 0.41025 0.49234 0.0
C136 C 0.58406 0.36656 0.3948 0.0
C137 C 0.55952 0.33783 0.36199 0.0
N138 N 0.53602 0.33449 0.3712 0.0
C139 C 0.5597 0.36288 0.40393 0.0
C140 C 0.58403 0.35398 0.37365 0.0
C141 C 0.53561 0.34657 0.39174 0.0
C142 C 0.63777 0.44255 0.46199 0.0
N143 N 0.62513 0.41647 0.45434 0.0
C144 C 0.58941 0.40409 0.4822 0.0
C145 C 0.60149 0.39728 0.46409 0.0
C146 C 0.60173 0.43099 0.49025 0.0
C147 C 0.62641 0.45028 0.48007 0.0
H148 H 0.65631 0.45751 0.4537 0.0
H149 H 0.59167 0.37679 0.45736 0.0
C150 C 0.62219 0.3132 0.39474 0.0
N151 N 0.61374 0.32831 0.40669 0.0
C152 C 0.60864 0.28503 0.39747 0.0
C153 C 0.57714 0.28839 0.42374 0.0
C154 C 0.59142 0.31642 0.42069 0.0
C155 C 0.586 0.27224 0.41247 0.0
H156 H 0.63965 0.32294 0.38334 0.0
H157 H 0.5849 0.32882 0.42981 0.0
C158 C 0.68175 0.46179 0.40282 0.0
N159 N 0.72548 0.51328 0.39648 0.0
C160 C 0.68497 0.47552 0.3816 0.0
C161 C 0.70064 0.4744 0.42089 0.0
C162 C 0.70723 0.5015 0.37873 0.0
C163 C 0.72266 0.50038 0.41732 0.0
C164 C 0.67596 0.38653 0.36625 0.0
C165 C 0.68652 0.40082 0.34528 0.0
C166 C 0.68821 0.37318 0.3767 0.0
C167 C 0.70913 0.40146 0.33508 0.0
C168 C 0.71081 0.37434 0.36597 0.0
N169 N 0.72071 0.38833 0.34556 0.0
C170 C 0.7277 0.42116 0.41769 0.0
C171 C 0.72653 0.44625 0.38499 0.0
C172 C 0.75574 0.43238 0.41515 0.0
N173 N 0.71368 0.42817 0.40263 0.0
C174 C 0.75446 0.45828 0.38209 0.0
C175 C 0.76955 0.45114 0.39702 0.0
H176 H 0.717 0.40631 0.43129 0.0
H177 H 0.715 0.451 0.3728 0.0
C178 C 0.61099 0.43431 0.36695 0.0
N179 N 0.62251 0.4198 0.3594 0.0
C180 C 0.60249 0.44688 0.35079 0.0
C181 C 0.61687 0.42844 0.31924 0.0
C182 C 0.62497 0.41605 0.33609 0.0
C183 C 0.60601 0.44463 0.32655 0.0
H184 H 0.60915 0.43672 0.38565 0.0
H185 H 0.63381 0.40405 0.33058 0.0
O186 O 0.65832 0.38624 0.43172 0.0
O187 O 0.60777 0.38247 0.40659 0.0
O188 O 0.66004 0.43632 0.40594 0.0
O189 O 0.65424 0.3862 0.37686 0.0
H190 H 0.62302 0.34737 0.45966 0.0
H191 H 0.69415 0.42652 0.45815 0.0
H192 H 0.62318 0.34988 0.50328 0.0
H193 H 0.69304 0.42774 0.50181 0.0
H194 H 0.55918 0.32796 0.34561 0.0
H195 H 0.55941 0.37253 0.42027 0.0
H196 H 0.60268 0.35659 0.36629 0.0
H197 H 0.51658 0.34352 0.3986 0.0
H198 H 0.57021 0.38861 0.48928 0.0
H199 H 0.63678 0.47115 0.48592 0.0
H200 H 0.61636 0.27354 0.38849 0.0
H201 H 0.55945 0.27953 0.43501 0.0
H202 H 0.67063 0.46616 0.36738 0.0
H203 H 0.69851 0.46416 0.43742 0.0
H204 H 0.71005 0.51228 0.36235 0.0
H205 H 0.73752 0.51027 0.4311 0.0
H206 H 0.67767 0.41171 0.33715 0.0
H207 H 0.68077 0.36265 0.39327 0.0
H208 H 0.71758 0.41255 0.31891 0.0
H209 H 0.72061 0.36429 0.37398 0.0
H210 H 0.76629 0.42581 0.42687 0.0
H211 H 0.76402 0.47295 0.36812 0.0
H212 H 0.59372 0.45865 0.35724 0.0
H213 H 0.62009 0.42623 0.30076 0.0
Li214 Li 0.26165 0.6422 0.60335 0.0
Li215 Li 0.29577 0.63664 0.58119 0.0
Li216 Li 0.29642 0.68111 0.58018 0.0
Li217 Li 0.26183 0.64099 0.55931 0.0
C218 C 0.30907 0.67256 0.63004 0.0
N219 N 0.32341 0.6933 0.67511 0.0
C220 C 0.32036 0.66199 0.64563 0.0
C221 C 0.3054 0.69392 0.6373 0.0
C222 C 0.32739 0.67269 0.66837 0.0
C223 C 0.31269 0.70407 0.66017 0.0
C224 C 0.25325 0.58744 0.58629 0.0
C225 C 0.25332 0.54741 0.57274 0.0
N226 N 0.24923 0.53797 0.59523 0.0
C227 C 0.24887 0.57726 0.60925 0.0
C228 C 0.25531 0.57232 0.56785 0.0
C229 C 0.24694 0.55223 0.61341 0.0
C230 C 0.2104 0.61928 0.62231 0.0
N231 N 0.23667 0.63001 0.62902 0.0
C232 C 0.22331 0.61902 0.66926 0.0
C233 C 0.24347 0.6302 0.652 0.0
C234 C 0.19588 0.60729 0.66278 0.0
C235 C 0.1896 0.60779 0.63893 0.0
H236 H 0.2056 0.61916 0.60386 0.0
H237 H 0.26439 0.63846 0.65698 0.0
C238 C 0.33292 0.62127 0.56309 0.0
N239 N 0.31774 0.61987 0.5821 0.0
C240 C 0.34893 0.60907 0.56368 0.0
C241 C 0.33355 0.59434 0.60343 0.0
C242 C 0.31783 0.60676 0.60205 0.0
C243 C 0.34946 0.59538 0.58408 0.0
H244 H 0.33271 0.63196 0.54747 0.0
H245 H 0.30569 0.60598 0.61696 0.0
C246 C 0.24853 0.68412 0.58479 0.0
N247 N 0.23178 0.72118 0.59343 0.0
C248 C 0.24184 0.69559 0.56609 0.0
C249 C 0.24611 0.69108 0.60792 0.0
C250 C 0.2336 0.71442 0.5708 0.0
C251 C 0.23777 0.70996 0.61192 0.0
C252 C 0.30252 0.66085 0.52977 0.0
C253 C 0.31117 0.68483 0.51718 0.0
C254 C 0.29429 0.63665 0.5176 0.0
C255 C 0.31104 0.68413 0.49258 0.0
C256 C 0.29442 0.63678 0.49299 0.0
N257 N 0.3027 0.66031 0.48109 0.0
C258 C 0.34229 0.73216 0.59176 0.0
C259 C 0.31318 0.7342 0.5632 0.0
C260 C 0.3599 0.76008 0.59005 0.0
N261 N 0.31933 0.71981 0.57855 0.0
C262 C 0.33042 0.7621 0.56064 0.0
C263 C 0.3543 0.77551 0.57411 0.0
H264 H 0.34722 0.72028 0.60341 0.0
H265 H 0.29536 0.72387 0.55226 0.0
C266 C 0.218 0.60214 0.53241 0.0
N267 N 0.23743 0.62873 0.53326 0.0
C268 C 0.19803 0.59274 0.51499 0.0
C269 C 0.21854 0.63824 0.49955 0.0
C270 C 0.23819 0.64671 0.51718 0.0
C271 C 0.19788 0.61094 0.49841 0.0
H272 H 0.21764 0.58831 0.54558 0.0
H273 H 0.25371 0.66778 0.51836 0.0
O274 O 0.3019 0.66219 0.60775 0.0
O275 O 0.25567 0.61213 0.58191 0.0
O276 O 0.25643 0.66546 0.58046 0.0
O277 O 0.30211 0.66104 0.55388 0.0
H278 H 0.32365 0.64569 0.64029 0.0
H279 H 0.29737 0.70283 0.62533 0.0
H280 H 0.33604 0.6646 0.68064 0.0
H281 H 0.30993 0.72057 0.66599 0.0
H282 H 0.25503 0.53557 0.55865 0.0
H283 H 0.24732 0.58868 0.62376 0.0
H284 H 0.25852 0.57978 0.54996 0.0
H285 H 0.24373 0.5442 0.63112 0.0
H286 H 0.22917 0.6194 0.68746 0.0
H287 H 0.1688 0.59866 0.63303 0.0
H288 H 0.36064 0.61023 0.54825 0.0
H289 H 0.33362 0.5845 0.61971 0.0
H290 H 0.24319 0.69023 0.54809 0.0
H291 H 0.2504 0.68192 0.62269 0.0
H292 H 0.22862 0.72362 0.55646 0.0
H293 H 0.23595 0.7156 0.62974 0.0
H294 H 0.31789 0.70378 0.52628 0.0
H295 H 0.28765 0.61795 0.52706 0.0
H296 H 0.31757 0.70253 0.48261 0.0
H297 H 0.2879 0.61815 0.48336 0.0
H298 H 0.37784 0.76937 0.60101 0.0
H299 H 0.32546 0.77278 0.54763 0.0
H300 H 0.18282 0.57146 0.51462 0.0
H301 H 0.21911 0.65313 0.48741 0.0
Li302 Li 0.67354 0.28051 0.7466 0.0
Li303 Li 0.63554 0.24646 0.76872 0.0
Li304 Li 0.63325 0.2456 0.72707 0.0
Li305 Li 0.62894 0.28077 0.74906 0.0
C306 C 0.67703 0.23572 0.75808 0.0
N307 N 0.71294 0.22512 0.7819 0.0
C308 C 0.68895 0.24931 0.77905 0.0
C309 C 0.6833 0.21665 0.74927 0.0
C310 C 0.70707 0.24371 0.79083 0.0
C311 C 0.70152 0.21159 0.76155 0.0
C312 C 0.65247 0.29312 0.79707 0.0
C313 C 0.62553 0.2987 0.82693 0.0
N314 N 0.64642 0.30709 0.8424 0.0
C315 C 0.67375 0.30197 0.81325 0.0
C316 C 0.62822 0.2916 0.80394 0.0
C317 C 0.67026 0.30886 0.83609 0.0
C318 C 0.7247 0.3239 0.7604 0.0
N319 N 0.71208 0.30252 0.74546 0.0
C320 C 0.75476 0.30993 0.73126 0.0
C321 C 0.72644 0.29547 0.73087 0.0
C322 C 0.76852 0.33164 0.7471 0.0
C323 C 0.75297 0.33869 0.76162 0.0
H324 H 0.71279 0.32906 0.77182 0.0
H325 H 0.71588 0.27822 0.71928 0.0
C326 C 0.6193 0.19611 0.78744 0.0
N327 N 0.62539 0.22129 0.79453 0.0
C328 C 0.61218 0.17542 0.80377 0.0
C329 C 0.6182 0.2069 0.8348 0.0
C330 C 0.62476 0.22695 0.81774 0.0
C331 C 0.61194 0.18069 0.82792 0.0
H332 H 0.62012 0.19209 0.76893 0.0
H333 H 0.62972 0.24697 0.82321 0.0
C334 C 0.64968 0.28491 0.69721 0.0
N335 N 0.64229 0.2808 0.64899 0.0
C336 C 0.62815 0.28646 0.68716 0.0
C337 C 0.66755 0.28142 0.68277 0.0
C338 C 0.62474 0.28431 0.66273 0.0
C339 C 0.66344 0.27934 0.65842 0.0
C340 C 0.5824 0.21985 0.7585 0.0
C341 C 0.57423 0.19354 0.75095 0.0
C342 C 0.56771 0.22395 0.77613 0.0
C343 C 0.55177 0.17171 0.76148 0.0
C344 C 0.54536 0.2016 0.78622 0.0
N345 N 0.53794 0.17616 0.77876 0.0
C346 C 0.63327 0.2101 0.69202 0.0
C347 C 0.59515 0.21626 0.69164 0.0
C348 C 0.62207 0.19087 0.67401 0.0
N349 N 0.6196 0.2221 0.70055 0.0
C350 C 0.58323 0.19723 0.67362 0.0
C351 C 0.59658 0.18402 0.66471 0.0
H352 H 0.65271 0.21521 0.69944 0.0
H353 H 0.58463 0.22595 0.69897 0.0
C354 C 0.6262 0.32918 0.7541 0.0
N355 N 0.61213 0.30242 0.74848 0.0
C356 C 0.61405 0.34515 0.75183 0.0
C357 C 0.57315 0.30559 0.7384 0.0
C358 C 0.58599 0.2904 0.74107 0.0
C359 C 0.58731 0.33345 0.74347 0.0
H360 H 0.64702 0.33822 0.75986 0.0
H361 H 0.57533 0.26909 0.73666 0.0
O362 O 0.65917 0.24082 0.7462 0.0
O363 O 0.65562 0.28654 0.77455 0.0
O364 O 0.65285 0.28609 0.72113 0.0
O365 O 0.60453 0.24147 0.74859 0.0
H366 H 0.68424 0.26398 0.7862 0.0
H367 H 0.67417 0.20582 0.73312 0.0
H368 H 0.71644 0.25412 0.80707 0.0
H369 H 0.70657 0.19689 0.75492 0.0
H370 H 0.60682 0.29752 0.83247 0.0
H371 H 0.69277 0.30347 0.80829 0.0
H372 H 0.6116 0.28495 0.79173 0.0
H373 H 0.68651 0.31564 0.84879 0.0
H374 H 0.76569 0.30392 0.71942 0.0
H375 H 0.76242 0.35486 0.77442 0.0
H376 H 0.607 0.1555 0.79743 0.0
H377 H 0.61872 0.21217 0.85319 0.0
H378 H 0.61407 0.28903 0.69811 0.0
H379 H 0.6842 0.28001 0.69031 0.0
H380 H 0.60809 0.28534 0.6547 0.0
H381 H 0.677 0.27647 0.64703 0.0
H382 H 0.58536 0.18993 0.73737 0.0
H383 H 0.57343 0.24415 0.78195 0.0
H384 H 0.54539 0.15123 0.75594 0.0
H385 H 0.53389 0.20449 0.79995 0.0
H386 H 0.63324 0.1815 0.66742 0.0
H387 H 0.56344 0.1924 0.66717 0.0
H388 H 0.62579 0.36659 0.75571 0.0
H389 H 0.55243 0.2957 0.73215 0.0
Li390 Li 0.40599 0.63224 0.92877 0.0
Li391 Li 0.41093 0.67222 0.91035 0.0
Li392 Li 0.36637 0.63066 0.90718 0.0
Li393 Li 0.40748 0.63694 0.88591 0.0
C394 C 0.38377 0.6693 0.94968 0.0
N395 N 0.38219 0.70942 0.97564 0.0
C396 C 0.39857 0.67856 0.97058 0.0
C397 C 0.36795 0.68021 0.94208 0.0
C398 C 0.39755 0.69891 0.98344 0.0
C399 C 0.36749 0.70056 0.95543 0.0
C400 C 0.46116 0.67965 0.91297 0.0
C401 C 0.49937 0.72184 0.90014 0.0
N402 N 0.51151 0.72435 0.92133 0.0
C403 C 0.4741 0.6826 0.93459 0.0
C404 C 0.47396 0.69935 0.89554 0.0
C405 C 0.49953 0.70536 0.93849 0.0
C406 C 0.43554 0.61053 0.94896 0.0
N407 N 0.41597 0.61682 0.95365 0.0
C408 C 0.41313 0.60249 0.99357 0.0
C409 C 0.40444 0.61274 0.97532 0.0
C410 C 0.43358 0.59613 0.98928 0.0
C411 C 0.44455 0.5999 0.96655 0.0
H412 H 0.44454 0.6143 0.9316 0.0
H413 H 0.3888 0.61781 0.97848 0.0
C414 C 0.42034 0.72546 0.90025 0.0
N415 N 0.42702 0.71084 0.91489 0.0
C416 C 0.43112 0.75326 0.90388 0.0
C417 C 0.4552 0.75042 0.93771 0.0
C418 C 0.44393 0.72277 0.93348 0.0
C419 C 0.44875 0.76611 0.92291 0.0
H420 H 0.40625 0.71545 0.88598 0.0
H421 H 0.44838 0.71075 0.94532 0.0
C422 C 0.3797 0.58182 0.91052 0.0
N423 N 0.37817 0.53443 0.92361 0.0
C424 C 0.3997 0.57634 0.90266 0.0
C425 C 0.35891 0.56316 0.92501 0.0
C426 C 0.39857 0.55228 0.90947 0.0
C427 C 0.35849 0.53933 0.93145 0.0
C428 C 0.3901 0.66007 0.85813 0.0
C429 C 0.37059 0.63982 0.84371 0.0
C430 C 0.41259 0.68218 0.8479 0.0
C431 C 0.37392 0.64205 0.81927 0.0
C432 C 0.41519 0.68367 0.8234 0.0
N433 N 0.39597 0.66374 0.80971 0.0
C434 C 0.3158 0.62077 0.88897 0.0
C435 C 0.31292 0.59739 0.92425 0.0
C436 C 0.28758 0.60774 0.88742 0.0
N437 N 0.32784 0.61487 0.90683 0.0
C438 C 0.28461 0.58395 0.92347 0.0
C439 C 0.2715 0.58865 0.90461 0.0
H440 H 0.32809 0.63531 0.87568 0.0
H441 H 0.32301 0.59367 0.93865 0.0
C442 C 0.44574 0.63854 0.85283 0.0
N443 N 0.41903 0.62598 0.85858 0.0
C444 C 0.45473 0.62829 0.83479 0.0
C445 C 0.40847 0.59263 0.8287 0.0
C446 C 0.40042 0.60349 0.8469 0.0
C447 C 0.43602 0.60485 0.82264 0.0
H448 H 0.46021 0.65599 0.86272 0.0
H449 H 0.37941 0.59347 0.8523 0.0
O450 O 0.38503 0.6499 0.93653 0.0
O451 O 0.43625 0.6575 0.90883 0.0
O452 O 0.3807 0.6055 0.90439 0.0
O453 O 0.38756 0.65793 0.88213 0.0
H454 H 0.41103 0.67039 0.9766 0.0
H455 H 0.35643 0.67326 0.92589 0.0
H456 H 0.40906 0.70643 -0.00044 0.0
H457 H 0.3555 0.70935 0.94969 0.0
H458 H 0.50941 0.73731 0.88685 0.0
H459 H 0.46448 0.66771 0.94837 0.0
H460 H 0.46431 0.69743 0.87872 0.0
H461 H 0.50968 0.70797 0.95518 0.0
H462 H 0.40413 0.59975 0.01089 0.0
H463 H 0.46063 0.59563 0.96264 0.0
H464 H 0.42516 0.7644 0.89227 0.0
H465 H 0.46884 0.75938 0.9525 0.0
H466 H 0.41623 0.5907 0.89178 0.0
H467 H 0.34332 0.56705 0.93133 0.0
H468 H 0.41401 0.54787 0.90361 0.0
H469 H 0.34254 0.52475 0.9427 0.0
H470 H 0.35338 0.62223 0.85128 0.0
H471 H 0.42794 0.69798 0.85875 0.0
H472 H 0.35908 0.62643 0.80792 0.0
H473 H 0.43252 0.70065 0.81527 0.0
H474 H 0.27852 0.61198 0.87247 0.0
H475 H 0.27313 0.56991 0.93741 0.0
H476 H 0.47611 0.63845 0.83056 0.0
H477 H 0.39341 0.57428 0.82007 0.0
Li478 Li 0.7605 0.40824 0.07733 0.0
Li479 Li 0.79735 0.40498 0.09822 0.0
Li480 Li 0.79792 0.40605 0.05492 0.0
Li481 Li 0.76466 0.3673 0.07589 0.0
C482 C 0.82136 0.4578 0.06946 0.0
N483 N 0.86458 0.50466 0.05172 0.0
C484 C 0.84787 0.4652 0.07581 0.0
C485 C 0.81686 0.47426 0.0541 0.0
C486 C 0.86944 0.48896 0.06666 0.0
C487 C 0.83897 0.49786 0.04531 0.0
C488 C 0.75807 0.38247 0.1277 0.0
C489 C 0.7586 0.3599 0.16343 0.0
N490 N 0.76224 0.38168 0.17616 0.0
C491 C 0.76171 0.40458 0.14115 0.0
C492 C 0.75642 0.35991 0.13892 0.0
C493 C 0.76382 0.40381 0.16562 0.0
C494 C 0.72153 0.4191 0.09764 0.0
N495 N 0.7371 0.42324 0.07823 0.0
C496 C 0.7219 0.45175 0.06141 0.0
C497 C 0.73702 0.43863 0.06 0.0
C498 C 0.70659 0.4489 0.08176 0.0
C499 C 0.70617 0.43186 0.09984 0.0
H500 H 0.72141 0.40628 0.11167 0.0
H501 H 0.74901 0.44102 0.04448 0.0
C502 C 0.83464 0.40675 0.13314 0.0
N503 N 0.82145 0.41923 0.12455 0.0
C504 C 0.85515 0.41969 0.14993 0.0
C505 C 0.84774 0.45782 0.14898 0.0
C506 C 0.82725 0.44407 0.13243 0.0
C507 C 0.86235 0.44585 0.15758 0.0
H508 H 0.83003 0.38724 0.12637 0.0
H509 H 0.81663 0.45365 0.12515 0.0
C510 C 0.73764 0.36589 0.0375 0.0
N511 N 0.69518 0.32209 0.01539 0.0
C512 C 0.74252 0.3541 0.01791 0.0
C513 C 0.71119 0.35562 0.04573 0.0
C514 C 0.72076 0.33192 0.007 0.0
C515 C 0.68999 0.3334 0.03434 0.0
C516 C 0.80927 0.36177 0.07537 0.0
C517 C 0.82098 0.35742 0.05542 0.0
C518 C 0.80207 0.34405 0.09449 0.0
C519 C 0.82511 0.33528 0.05488 0.0
C520 C 0.80649 0.32212 0.09324 0.0
N521 N 0.81781 0.31822 0.07363 0.0
C522 C 0.84821 0.42707 0.03282 0.0
C523 C 0.81326 0.42197 0.00705 0.0
C524 C 0.86707 0.43706 0.01455 0.0
N525 N 0.82193 0.41978 0.02879 0.0
C526 C 0.83141 0.43154 0.98813 0.0
C527 C 0.85871 0.43918 0.9918 0.0
H528 H 0.85444 0.42481 0.05026 0.0
H529 H 0.79223 0.41606 0.00438 0.0
C530 C 0.72053 0.31447 0.08712 0.0
N531 N 0.74294 0.32832 0.07339 0.0
C532 C 0.70454 0.28626 0.08523 0.0
C533 C 0.73482 0.28716 0.05502 0.0
C534 C 0.7498 0.31527 0.05711 0.0
C535 C 0.71198 0.27238 0.06926 0.0
H536 H 0.71499 0.32533 0.09945 0.0
H537 H 0.76681 0.32669 0.04554 0.0
O538 O 0.79997 0.43434 0.07789 0.0
O539 O 0.75663 0.38313 0.10366 0.0
O540 O 0.75871 0.38711 0.04882 0.0
O541 O 0.80495 0.38328 0.07616 0.0
H542 H 0.85184 0.45249 0.08731 0.0
H543 H 0.79655 0.46883 0.04891 0.0
H544 H 0.89005 0.49483 0.07133 0.0
H545 H 0.83577 0.51074 0.03336 0.0
H546 H 0.75742 0.34259 0.17233 0.0
H547 H 0.76346 0.4224 0.13275 0.0
H548 H 0.75352 0.34257 0.12884 0.0
H549 H 0.76686 0.42087 0.17622 0.0
H550 H 0.72241 0.46418 0.04681 0.0
H551 H 0.69487 0.42912 0.11592 0.0
H552 H 0.86603 0.40984 0.15607 0.0
H553 H 0.85241 0.47782 0.15469 0.0
H554 H 0.76293 0.36179 0.01142 0.0
H555 H 0.70716 0.36453 0.06094 0.0
H556 H 0.72423 0.32244 0.99192 0.0
H557 H 0.66943 0.32509 0.04061 0.0
H558 H 0.82652 0.37078 0.04039 0.0
H559 H 0.79289 0.34701 0.11 0.0
H560 H 0.83403 0.3316 0.03951 0.0
H561 H 0.80085 0.30816 0.10786 0.0
H562 H 0.88781 0.44232 0.01804 0.0
H563 H 0.82422 0.43299 0.97084 0.0
H564 H 0.68683 0.2754 0.09632 0.0
H565 H 0.74079 0.27706 0.04221 0.0
Li566 Li 0.40508 0.78555 0.26416 0.0
Li567 Li 0.36421 0.74826 0.24343 0.0
Li568 Li 0.41088 0.7527 0.24175 0.0
Li569 Li 0.40248 0.78501 0.22207 0.0
C570 C 0.38576 0.74495 0.29357 0.0
N571 N 0.38417 0.74581 0.3422 0.0
C572 C 0.36098 0.73472 0.30527 0.0
C573 C 0.40972 0.75545 0.3066 0.0
C574 C 0.3606 0.73535 0.32986 0.0
C575 C 0.4085 0.75577 0.33117 0.0
C576 C 0.37146 0.80524 0.23478 0.0
C577 C 0.34407 0.81541 0.20917 0.0
N578 N 0.36147 0.84232 0.21249 0.0
C579 C 0.38897 0.83295 0.23811 0.0
C580 C 0.34874 0.79632 0.22033 0.0
C581 C 0.38361 0.85139 0.22661 0.0
C582 C 0.44209 0.82972 0.29208 0.0
N583 N 0.4157 0.81004 0.29008 0.0
C584 C 0.40346 0.82892 0.32215 0.0
C585 C 0.39641 0.80931 0.30462 0.0
C586 C 0.4306 0.84964 0.3246 0.0
C587 C 0.45006 0.84967 0.30939 0.0
H588 H 0.45688 0.83037 0.27982 0.0
H589 H 0.37544 0.79388 0.30218 0.0
C590 C 0.31553 0.69929 0.23425 0.0
N591 N 0.32616 0.72361 0.24533 0.0
C592 C 0.28787 0.68054 0.23594 0.0
C593 C 0.2827 0.71188 0.261 0.0
C594 C 0.31038 0.73029 0.25835 0.0
C595 C 0.27097 0.68644 0.24979 0.0
H596 H 0.32859 0.69444 0.22408 0.0
H597 H 0.31945 0.7497 0.26718 0.0
C598 C 0.45862 0.79567 0.23575 0.0
N599 N 0.50768 0.80016 0.22374 0.0
C600 C 0.46483 0.79433 0.21215 0.0
C601 C 0.47746 0.79948 0.25324 0.0
C602 C 0.48971 0.79661 0.20643 0.0
C603 C 0.50212 0.80165 0.24681 0.0
C604 C 0.3786 0.74261 0.1921 0.0
C605 C 0.39836 0.74575 0.17582 0.0
C606 C 0.35291 0.73634 0.18411 0.0
C607 C 0.39218 0.74279 0.1518 0.0
C608 C 0.34749 0.73345 0.15995 0.0
N609 N 0.36708 0.73675 0.14443 0.0
C610 C 0.42358 0.71491 0.22151 0.0
C611 C 0.44614 0.73366 0.25753 0.0
C612 C 0.43703 0.70022 0.21912 0.0
N613 N 0.42867 0.73161 0.24028 0.0
C614 C 0.46022 0.71951 0.25577 0.0
C615 C 0.45591 0.70268 0.23624 0.0
H616 H 0.4092 0.71312 0.20825 0.0
H617 H 0.44953 0.7466 0.27254 0.0
C618 C 0.43638 0.83408 0.19943 0.0
N619 N 0.41232 0.81074 0.19667 0.0
C620 C 0.44498 0.85494 0.18298 0.0
C621 C 0.4036 0.82784 0.16126 0.0
C622 C 0.39574 0.80752 0.17822 0.0
C623 C 0.42859 0.85196 0.16348 0.0
H624 H 0.44874 0.83678 0.21473 0.0
H625 H 0.37615 0.78955 0.17686 0.0
O626 O 0.38659 0.74493 0.26949 0.0
O627 O 0.3768 0.78691 0.24531 0.0
O628 O 0.43408 0.79286 0.24173 0.0
O629 O 0.38415 0.7451 0.21573 0.0
H630 H 0.34224 0.72639 0.29547 0.0
H631 H 0.4291 0.76381 0.29783 0.0
H632 H 0.34157 0.72756 0.33915 0.0
H633 H 0.4269 0.76407 0.34147 0.0
H634 H 0.32666 0.80884 0.1978 0.0
H635 H 0.40669 0.84011 0.24922 0.0
H636 H 0.33506 0.77491 0.21756 0.0
H637 H 0.3971 0.87292 0.22885 0.0
H638 H 0.38766 0.82832 0.33317 0.0
H639 H 0.47123 0.86505 0.31072 0.0
H640 H 0.27994 0.66157 0.22651 0.0
H641 H 0.27091 0.71735 0.27229 0.0
H642 H 0.45061 0.79158 0.19838 0.0
H643 H 0.4729 0.80019 0.27164 0.0
H644 H 0.49472 0.79553 0.18823 0.0
H645 H 0.51678 0.80437 0.26019 0.0
H646 H 0.41825 0.75029 0.18162 0.0
H647 H 0.33746 0.73426 0.19633 0.0
H648 H 0.40732 0.74523 0.13903 0.0
H649 H 0.32775 0.72877 0.15354 0.0
H650 H 0.43318 0.68762 0.20369 0.0
H651 H 0.47431 0.72172 0.26955 0.0
H652 H 0.4641 0.8734 0.18577 0.0
H653 H 0.39026 0.82457 0.14652 0.0
H654 H 0.12099 0.6348 0.29504 0.0
H655 H 0.11063 0.55435 0.29688 0.0
H656 H 0.15309 0.57059 0.27436 0.0
H657 H 0.157 0.65595 0.23523 0.0
H658 H 0.179 0.68987 0.24583 0.0
H659 H 0.14478 0.67057 0.25671 0.0
H660 H 0.16323 0.67841 0.29937 0.0
H661 H 0.19746 0.69711 0.28872 0.0
H662 H 0.18727 0.66804 0.30738 0.0
H663 H 0.20042 0.59706 0.25985 0.0
H664 H 0.24773 0.63091 0.25149 0.0
H665 H 0.22766 0.69481 0.25739 0.0
C666 C 0.12696 0.62038 0.28946 0.0
C667 C 0.11231 0.5932 0.29705 0.0
C668 C 0.12133 0.57507 0.29065 0.0
C669 C 0.14546 0.58418 0.27797 0.0
C670 C 0.16027 0.61146 0.27179 0.0
C671 C 0.15115 0.62925 0.27692 0.0
C672 C 0.1725 0.65813 0.27099 0.0
C673 C 0.16274 0.66928 0.25099 0.0
C674 C 0.18058 0.67648 0.29292 0.0
C675 C 0.19546 0.65395 0.26286 0.0
C676 C 0.18786 0.62686 0.26318 0.0
C677 C 0.20637 0.61826 0.25875 0.0
C678 C 0.23332 0.63778 0.2539 0.0
C679 C 0.24174 0.66579 0.25338 0.0
C680 C 0.22221 0.67372 0.25762 0.0
H681 H 0.51711 0.14172 0.4941 0.0
H682 H 0.51636 0.09339 0.4348 0.0
H683 H 0.53431 0.13406 0.4091 0.0
H684 H 0.49934 0.18577 0.46246 0.0
H685 H 0.52168 0.21487 0.47998 0.0
H686 H 0.50649 0.18145 0.49257 0.0
H687 H 0.55408 0.18954 0.50357 0.0
H688 H 0.56944 0.22293 0.491 0.0
H689 H 0.57946 0.19927 0.48092 0.0
H690 H 0.55547 0.18184 0.39082 0.0
H691 H 0.57655 0.23069 0.38174 0.0
H692 H 0.56514 0.24644 0.45445 0.0
C693 C 0.52064 0.13956 0.47567 0.0
C694 C 0.51563 0.11445 0.46647 0.0
C695 C 0.52 0.11243 0.44218 0.0
C696 C 0.53028 0.13544 0.42753 0.0
C697 C 0.53584 0.16013 0.43748 0.0
C698 C 0.53099 0.16214 0.46103 0.0
C699 C 0.53973 0.19092 0.46802 0.0
C700 C 0.51535 0.19339 0.47623 0.0
C701 C 0.562 0.20126 0.48699 0.0
C702 C 0.55063 0.2051 0.44478 0.0
C703 C 0.54811 0.18713 0.42726 0.0
C704 C 0.55742 0.19599 0.40444 0.0
C705 C 0.56956 0.22384 0.39949 0.0
C706 C 0.57244 0.24257 0.41731 0.0
C707 C 0.56277 0.23279 0.44021 0.0
H708 H 0.39616 0.49721 0.63841 0.0
H709 H 0.47547 0.54991 0.60885 0.0
H710 H 0.45682 0.57374 0.58575 0.0
H711 H 0.35439 0.49568 0.58587 0.0
H712 H 0.3295 0.49649 0.60491 0.0
H713 H 0.34776 0.48 0.61451 0.0
H714 H 0.36303 0.51003 0.65194 0.0
H715 H 0.3454 0.52702 0.64231 0.0
H716 H 0.38109 0.54635 0.64888 0.0
H717 H 0.43117 0.59635 0.57146 0.0
H718 H 0.4009 0.61522 0.56638 0.0
H719 H 0.33814 0.54768 0.60572 0.0
C720 C 0.40916 0.51282 0.62606 0.0
C721 C 0.43694 0.5212 0.62459 0.0
C722 C 0.45393 0.54271 0.60944 0.0
C723 C 0.44351 0.5564 0.59642 0.0
C724 C 0.41612 0.54832 0.59893 0.0
C725 C 0.39911 0.52678 0.6132 0.0
C726 C 0.37147 0.52427 0.61532 0.0
C727 C 0.34948 0.49752 0.6045 0.0
C728 C 0.36489 0.5271 0.64114 0.0
C729 C 0.3758 0.54829 0.60072 0.0
C730 C 0.40153 0.5617 0.59113 0.0
C731 C 0.41078 0.58564 0.57844 0.0
C732 C 0.39337 0.59618 0.57559 0.0
C733 C 0.36701 0.58293 0.58554 0.0
C734 C 0.35815 0.55843 0.59795 0.0
H735 H 0.91178 0.44936 0.79121 0.0
H736 H 0.94037 0.39205 0.78486 0.0
H737 H 0.89878 0.36074 0.76334 0.0
H738 H 0.84719 0.403 0.80588 0.0
H739 H 0.83064 0.41817 0.79027 0.0
H740 H 0.86499 0.43889 0.80013 0.0
H741 H 0.88047 0.45604 0.75758 0.0
H742 H 0.84601 0.43567 0.74755 0.0
H743 H 0.87257 0.43194 0.73408 0.0
H744 H 0.85091 0.33221 0.74969 0.0
H745 H 0.80181 0.30984 0.74282 0.0
H746 H 0.80379 0.38553 0.7576 0.0
C747 C 0.90967 0.43057 0.78467 0.0
C748 C 0.92953 0.42332 0.78965 0.0
C749 C 0.92585 0.39844 0.78088 0.0
C750 C 0.90212 0.38036 0.76876 0.0
C751 C 0.88232 0.38752 0.76533 0.0
C752 C 0.88602 0.41223 0.7727 0.0
C753 C 0.8605 0.41382 0.76922 0.0
C754 C 0.85024 0.41875 0.79277 0.0
C755 C 0.86517 0.43566 0.75102 0.0
C756 C 0.8415 0.3857 0.75975 0.0
C757 C 0.85457 0.37098 0.75734 0.0
C758 C 0.84064 0.34377 0.75087 0.0
C759 C 0.81264 0.33125 0.74689 0.0
C760 C 0.79867 0.34585 0.74939 0.0
C761 C 0.81362 0.37362 0.75555 0.0
H762 H 0.49718 0.89538 0.00494 0.0
H763 H 0.51996 0.94559 0.94233 0.0
H764 H 0.50458 0.90456 0.91752 0.0
H765 H 0.51732 0.84901 0.98484 0.0
H766 H 0.48943 0.8202 -0.00113 0.0
H767 H 0.50238 0.8535 0.01122 0.0
H768 H 0.45443 0.8479 0.00929 0.0
H769 H 0.4413 0.81454 0.997 0.0
H770 H 0.43653 0.83946 0.98161 0.0
H771 H 0.48583 0.85693 0.89984 0.0
H772 H 0.46691 0.80821 0.89112 0.0
H773 H 0.45554 0.79051 0.96595 0.0
C774 C 0.49862 0.89784 0.98598 0.0
C775 C 0.5094 0.92369 0.97554 0.0
C776 C 0.51173 0.92598 0.95069 0.0
C777 C 0.50296 0.90279 0.9365 0.0
C778 C 0.49207 0.87756 0.94748 0.0
C779 C 0.48999 0.87509 0.9717 0.0
C780 C 0.47778 0.84594 0.97943 0.0
C781 C 0.49793 0.84194 0.99447 0.0
C782 C 0.45091 0.83641 0.9926 0.0
C783 C 0.47319 0.83218 0.95578 0.0
C784 C 0.48152 0.85063 0.93749 0.0
C785 C 0.47923 0.84237 0.91406 0.0
C786 C 0.4683 0.81463 0.90927 0.0
C787 C 0.45982 0.79545 0.92783 0.0
C788 C 0.46223 0.80457 0.95133 0.0
H789 H 0.59794 0.48112 0.13817 0.0
H790 H 0.64908 0.56417 0.11504 0.0
H791 H 0.67696 0.55035 0.0923 0.0
H792 H 0.65044 0.46896 0.14935 0.0
H793 H 0.63291 0.43412 0.13986 0.0
H794 H 0.614 0.44931 0.15078 0.0
H795 H 0.58615 0.43664 0.11211 0.0
H796 H 0.60487 0.42119 0.1011 0.0
H797 H 0.60351 0.44723 0.08424 0.0
H798 H 0.70282 0.52881 0.07636 0.0
H799 H 0.72429 0.50136 0.06838 0.0
H800 H 0.65702 0.43247 0.10264 0.0
C801 C 0.61472 0.49637 0.12802 0.0
C802 C 0.6211 0.52376 0.12836 0.0
C803 C 0.64329 0.54298 0.11474 0.0
C804 C 0.65941 0.53534 0.10185 0.0
C805 C 0.65311 0.50839 0.10265 0.0
C806 C 0.63117 0.48916 0.11527 0.0
C807 C 0.63019 0.46212 0.11509 0.0
C808 C 0.632 0.45312 0.14026 0.0
C809 C 0.60466 0.44052 0.10237 0.0
C810 C 0.65551 0.46937 0.10103 0.0
C811 C 0.66823 0.49604 0.09373 0.0
C812 C 0.69278 0.50776 0.08162 0.0
C813 C 0.70477 0.49193 0.07707 0.0
C814 C 0.69234 0.46463 0.08473 0.0
C815 C 0.66715 0.45325 0.09658 0.0
H816 H 0.40062 0.92296 0.5253 0.0
H817 H 0.48295 0.9384 0.52833 0.0
H818 H 0.46756 0.89646 0.55145 0.0
H819 H 0.37704 0.88733 0.58466 0.0
H820 H 0.34432 0.86363 0.57264 0.0
H821 H 0.36265 0.89778 0.56151 0.0
H822 H 0.35893 0.87896 0.51931 0.0
H823 H 0.34117 0.84484 0.53026 0.0
H824 H 0.37178 0.85641 0.51336 0.0
H825 H 0.44242 0.84936 0.56714 0.0
H826 H 0.40999 0.80162 0.57586 0.0
H827 H 0.34332 0.81631 0.56325 0.0
C828 C 0.4155 0.91817 0.53202 0.0
C829 C 0.44305 0.93419 0.5258 0.0
C830 C 0.4619 0.92669 0.53361 0.0
C831 C 0.45329 0.90287 0.54662 0.0
C832 C 0.42575 0.88678 0.55161 0.0
C833 C 0.40713 0.89428 0.54483 0.0
C834 C 0.37839 0.8718 0.54963 0.0
C835 C 0.3648 0.88067 0.56822 0.0
C836 C 0.3616 0.86246 0.52678 0.0
C837 C 0.38368 0.8501 0.55922 0.0
C838 C 0.41112 0.85928 0.56052 0.0
C839 C 0.4209 0.84218 0.56684 0.0
C840 C 0.40221 0.815 0.57187 0.0
C841 C 0.3739 0.80498 0.57055 0.0
C842 C 0.36472 0.82309 0.56445 0.0
H843 H 0.51228 0.39001 0.66388 0.0
H844 H 0.52768 0.44997 0.71762 0.0
H845 H 0.54693 0.42869 0.74358 0.0
H846 H 0.49485 0.33275 0.70355 0.0
H847 H 0.51127 0.31968 0.6849 0.0
H848 H 0.49643 0.33815 0.67216 0.0
H849 H 0.54243 0.37135 0.65264 0.0
H850 H 0.55746 0.35316 0.66544 0.0
H851 H 0.57225 0.38896 0.67077 0.0
H852 H 0.56894 0.40299 0.76158 0.0
H853 H 0.58871 0.37404 0.77091 0.0
H854 H 0.55823 0.33161 0.70465 0.0
C855 C 0.51928 0.39838 0.6813 0.0
C856 C 0.5186 0.42159 0.68884 0.0
C857 C 0.5279 0.43204 0.71168 0.0
C858 C 0.53893 0.42015 0.72642 0.0
C859 C 0.54012 0.3977 0.71806 0.0
C860 C 0.53017 0.38678 0.6961 0.0
C861 C 0.5348 0.36351 0.69052 0.0
C862 C 0.50772 0.33695 0.68762 0.0
C863 C 0.55281 0.36963 0.66855 0.0
C864 C 0.54939 0.36319 0.7126 0.0
C865 C 0.5523 0.38297 0.72836 0.0
C866 C 0.56642 0.38724 0.74947 0.0
C867 C 0.57772 0.37083 0.75456 0.0
C868 C 0.57475 0.35036 0.73863 0.0
C869 C 0.56031 0.34661 0.71746 0.0
H870 H 0.13043 0.55932 0.8521 0.0
H871 H 0.10018 0.47443 0.86734 0.0
H872 H 0.14098 0.48688 0.89105 0.0
H873 H 0.19498 0.57457 0.84055 0.0
H874 H 0.21168 0.60818 0.85295 0.0
H875 H 0.17763 0.59365 0.84204 0.0
H876 H 0.16147 0.60121 0.88252 0.0
H877 H 0.19563 0.61618 0.89354 0.0
H878 H 0.16838 0.588 0.9088 0.0
H879 H 0.18833 0.50764 0.90696 0.0
H880 H 0.23738 0.53488 0.9146 0.0
H881 H 0.23747 0.60631 0.88823 0.0
C882 C 0.13201 0.54337 0.86095 0.0
C883 C 0.11193 0.51587 0.85789 0.0
C884 C 0.11489 0.49566 0.86975 0.0
C885 C 0.13816 0.50255 0.88316 0.0
C886 C 0.15823 0.52974 0.88469 0.0
C887 C 0.15522 0.54987 0.87412 0.0
C888 C 0.18095 0.57712 0.87599 0.0
C889 C 0.19195 0.58906 0.85143 0.0
C890 C 0.17633 0.59679 0.89112 0.0
C891 C 0.19931 0.56901 0.88837 0.0
C892 C 0.18571 0.54169 0.89361 0.0
C893 C 0.19901 0.52917 0.90343 0.0
C894 C 0.22693 0.54488 0.90779 0.0
C895 C 0.24142 0.57286 0.90218 0.0
C896 C 0.22713 0.58501 0.89271 0.0
H897 H 0.59497 0.13281 0.01855 0.0
H898 H 0.64458 0.09805 0.03826 0.0
H899 H 0.67537 0.1398 0.05988 0.0
H900 H 0.64771 0.19635 0.00574 0.0
H901 H 0.63222 0.21495 0.01691 0.0
H902 H 0.61134 0.1808 0.0066 0.0
H903 H 0.58664 0.16702 0.04684 0.0
H904 H 0.60733 0.20128 0.05726 0.0
H905 H 0.6061 0.17357 0.07352 0.0
H906 H 0.70478 0.18754 0.07344 0.0
H907 H 0.72899 0.23707 0.08028 0.0
H908 H 0.66045 0.24115 0.05247 0.0
C909 C 0.61195 0.13373 0.02791 0.0
C910 C 0.61718 0.11199 0.02683 0.0
C911 C 0.63974 0.1141 0.0392 0.0
C912 C 0.65749 0.13786 0.05142 0.0
C913 C 0.6523 0.15927 0.05135 0.0
C914 C 0.62986 0.15731 0.04019 0.0
C915 C 0.63014 0.18401 0.04107 0.0
C916 C 0.63038 0.19464 0.0161 0.0
C917 C 0.60612 0.1813 0.05554 0.0
C918 C 0.65676 0.20158 0.05367 0.0
C919 C 0.66913 0.18684 0.0596 0.0
C920 C 0.695 0.19914 0.06943 0.0
C921 C 0.70862 0.2272 0.07319 0.0
C922 C 0.69628 0.24258 0.06728 0.0
C923 C 0.66992 0.22958 0.05769 0.0
H924 H 0.48233 0.58795 0.18631 0.0
H925 H 0.56816 0.64451 0.19597 0.0
H926 H 0.55712 0.67412 0.21924 0.0
H927 H 0.4663 0.6364 0.17303 0.0
H928 H 0.43351 0.62032 0.18699 0.0
H929 H 0.44742 0.60013 0.17645 0.0
H930 H 0.44246 0.57933 0.21797 0.0
H931 H 0.42813 0.59921 0.22864 0.0
H932 H 0.45728 0.60132 0.24304 0.0
H933 H 0.5372 0.70126 0.23563 0.0
H934 H 0.51016 0.72319 0.2439 0.0
H935 H 0.43752 0.65053 0.2211 0.0
C936 C 0.49888 0.60626 0.19374 0.0
C937 C 0.52617 0.61372 0.18923 0.0
C938 C 0.54709 0.63786 0.19948 0.0
C939 C 0.541 0.65501 0.21263 0.0
C940 C 0.51392 0.64779 0.21543 0.0
C941 C 0.49317 0.62385 0.20642 0.0
C942 C 0.46603 0.62239 0.2091 0.0
C943 C 0.45254 0.61966 0.18496 0.0
C944 C 0.44737 0.59918 0.22568 0.0
C945 C 0.47485 0.6497 0.2202 0.0
C946 C 0.50247 0.66382 0.22418 0.0
C947 C 0.5155 0.69017 0.233 0.0
C948 C 0.49995 0.70246 0.23769 0.0
C949 C 0.4717 0.68856 0.23324 0.0
C950 C 0.45906 0.6617 0.22467 0.0
H951 H 0.90308 0.51061 0.3192 0.0
H952 H 0.94957 0.52008 0.3826 0.0
H953 H 0.90752 0.50263 0.4063 0.0
H954 H 0.85635 0.52809 0.34308 0.0
H955 H 0.82818 0.50296 0.32618 0.0
H956 H 0.8621 0.51743 0.31481 0.0
H957 H 0.85593 0.46943 0.31033 0.0
H958 H 0.82194 0.45479 0.32157 0.0
H959 H 0.84577 0.44723 0.3355 0.0
H960 H 0.85906 0.48345 0.42274 0.0
H961 H 0.81005 0.46433 0.43006 0.0
H962 H 0.79659 0.46386 0.35472 0.0
C963 C 0.9046 0.50869 0.33803 0.0
C964 C 0.92974 0.51641 0.34894 0.0
C965 C 0.93063 0.5144 0.37379 0.0
C966 C 0.90681 0.50438 0.38737 0.0
C967 C 0.88231 0.49639 0.37582 0.0
C968 C 0.88119 0.49839 0.35166 0.0
C969 C 0.85255 0.48787 0.34312 0.0
C970 C 0.84964 0.51044 0.3311 0.0
C971 C 0.84352 0.46338 0.32667 0.0
C972 C 0.83751 0.47965 0.36626 0.0
C973 C 0.85489 0.48482 0.38501 0.0
C974 C 0.84532 0.4792 0.40812 0.0
C975 C 0.81737 0.46813 0.41209 0.0
C976 C 0.79921 0.46259 0.39302 0.0
C977 C 0.8097 0.46829 0.36984 0.0
H978 H 0.13621 0.61058 0.37271 0.0
H979 H 0.05739 0.5489 0.39814 0.0
H980 H 0.07769 0.55041 0.43719 0.0
H981 H 0.17463 0.58528 0.40171 0.0
H982 H 0.20293 0.61855 0.40753 0.0
H983 H 0.18174 0.613 0.38223 0.0
H984 H 0.17277 0.65099 0.39645 0.0
H985 H 0.19388 0.65663 0.42182 0.0
H986 H 0.15945 0.64919 0.42562 0.0
H987 H 0.10759 0.55887 0.47345 0.0
H988 H 0.14362 0.57353 0.50344 0.0
H989 H 0.20267 0.62757 0.45238 0.0
C990 C 0.12315 0.59706 0.38634 0.0
C991 C 0.09523 0.57931 0.38226 0.0
C992 C 0.07881 0.56267 0.40088 0.0
C993 C 0.0902 0.56332 0.42304 0.0
C994 C 0.11796 0.58077 0.42622 0.0
C995 C 0.13414 0.59731 0.4083 0.0
C996 C 0.16339 0.61411 0.41586 0.0
C997 C 0.18175 0.60731 0.40095 0.0
C998 C 0.17292 0.64453 0.41488 0.0
C999 C 0.16132 0.60447 0.44093 0.0
C1000 C 0.13499 0.58532 0.44669 0.0
C1001 C 0.12826 0.57375 0.46905 0.0
C1002 C 0.14895 0.58208 0.48592 0.0
C1003 C 0.1761 0.6017 0.48033 0.0
C1004 C 0.18216 0.61283 0.45742 0.0
H1005 H 0.51634 0.12205 0.5453 0.0
H1006 H 0.52719 0.05277 0.55511 0.0
H1007 H 0.54946 0.07162 0.59367 0.0
H1008 H 0.57951 0.1709 0.56721 0.0
H1009 H 0.56719 0.19115 0.58094 0.0
H1010 H 0.55007 0.17081 0.55557 0.0
H1011 H 0.50497 0.14684 0.57893 0.0
H1012 H 0.52189 0.16725 0.60436 0.0
H1013 H 0.50366 0.13086 0.60667 0.0
H1014 H 0.57377 0.10066 0.62988 0.0
H1015 H 0.5954 0.13534 0.66109 0.0
H1016 H 0.56895 0.18551 0.62584 0.0
C1017 C 0.5232 0.11069 0.55565 0.0
C1018 C 0.5203 0.08608 0.54724 0.0
C1019 C 0.52919 0.07162 0.56135 0.0
C1020 C 0.54192 0.08225 0.58316 0.0
C1021 C 0.54527 0.10714 0.59053 0.0
C1022 C 0.53586 0.12096 0.57721 0.0
C1023 C 0.54265 0.14771 0.58831 0.0
C1024 C 0.56094 0.17154 0.57204 0.0
C1025 C 0.51675 0.14818 0.59497 0.0
C1026 C 0.55775 0.14713 0.60992 0.0
C1027 C 0.55905 0.12359 0.61102 0.0
C1028 C 0.57269 0.11905 0.62922 0.0
C1029 C 0.58511 0.13896 0.64676 0.0
C1030 C 0.58382 0.16314 0.64596 0.0
C1031 C 0.56995 0.16711 0.62721 0.0
H1032 H 0.4259 0.53069 0.70126 0.0
H1033 H 0.49871 0.52912 0.72031 0.0
H1034 H 0.50054 0.55191 0.75817 0.0
H1035 H 0.44577 0.59602 0.7243 0.0
H1036 H 0.4122 0.58673 0.73426 0.0
H1037 H 0.4165 0.5697 0.70934 0.0
H1038 H 0.38725 0.52339 0.72993 0.0
H1039 H 0.38277 0.54024 0.7549 0.0
H1040 H 0.39642 0.51809 0.759 0.0
H1041 H 0.49463 0.57646 0.79344 0.0
H1042 H 0.4805 0.59819 0.82364 0.0
H1043 H 0.41199 0.58371 0.78014 0.0
C1044 C 0.44237 0.53528 0.71331 0.0
C1045 C 0.46241 0.52852 0.70778 0.0
C1046 C 0.48321 0.5342 0.72426 0.0
C1047 C 0.48443 0.54721 0.7457 0.0
C1048 C 0.46457 0.5541 0.75032 0.0
C1049 C 0.44385 0.54811 0.73459 0.0
C1050 C 0.42492 0.55749 0.74347 0.0
C1051 C 0.42486 0.57875 0.72686 0.0
C1052 C 0.39614 0.53336 0.74704 0.0
C1053 C 0.43823 0.5699 0.76671 0.0
C1054 C 0.4611 0.56784 0.77041 0.0
C1055 C 0.47676 0.57813 0.79069 0.0
C1056 C 0.46868 0.59062 0.80766 0.0
C1057 C 0.44513 0.59264 0.80425 0.0
C1058 C 0.4299 0.58221 0.7834 0.0
H1059 H 0.91129 0.42399 0.86643 0.0
H1060 H 0.98877 0.49533 0.88187 0.0
H1061 H 0.97074 0.49968 0.9204 0.0
H1062 H 0.86967 0.44873 0.89158 0.0
H1063 H 0.84473 0.41585 0.90239 0.0
H1064 H 0.86403 0.4186 0.87636 0.0
H1065 H 0.87987 0.38767 0.89553 0.0
H1066 H 0.86065 0.38481 0.9216 0.0
H1067 H 0.89639 0.39669 0.92385 0.0
H1068 H 0.94379 0.49511 0.95782 0.0
H1069 H 0.91063 0.48234 0.99037 0.0
H1070 H 0.85084 0.41533 0.9486 0.0
C1071 C 0.92445 0.44093 0.8776 0.0
C1072 C 0.95139 0.45959 0.87091 0.0
C1073 C 0.96808 0.48078 0.8866 0.0
C1074 C 0.95796 0.48347 0.90845 0.0
C1075 C 0.93113 0.46485 0.91425 0.0
C1076 C 0.91465 0.44405 0.89918 0.0
C1077 C 0.88667 0.42647 0.90939 0.0
C1078 C 0.865 0.42749 0.89402 0.0
C1079 C 0.88056 0.39719 0.9128 0.0
C1080 C 0.88989 0.44048 0.93273 0.0
C1081 C 0.91566 0.46254 0.93531 0.0
C1082 C 0.92353 0.47799 0.95588 0.0
C1083 C 0.90462 0.47056 0.97427 0.0
C1084 C 0.87814 0.44799 0.97189 0.0
C1085 C 0.87075 0.43299 0.95074 0.0
H1086 H 0.53076 0.95433 0.06879 0.0
H1087 H 0.46289 0.95768 0.03858 0.0
H1088 H 0.43501 0.93384 0.07347 0.0
H1089 H 0.49445 0.8894 0.08625 0.0
H1090 H 0.51266 0.89249 0.11309 0.0
H1091 H 0.52934 0.91571 0.08929 0.0
H1092 H 0.54136 0.95642 0.11682 0.0
H1093 H 0.52513 0.93333 0.14096 0.0
H1094 H 0.5149 0.95754 0.13329 0.0
H1095 H 0.4127 0.90329 0.10811 0.0
H1096 H 0.39788 0.86931 0.13993 0.0
H1097 H 0.47988 0.88358 0.14587 0.0
C1098 C 0.51049 0.95133 0.07024 0.0
C1099 C 0.49911 0.95854 0.05154 0.0
C1100 C 0.47206 0.95295 0.05317 0.0
C1101 C 0.45612 0.93935 0.07284 0.0
C1102 C 0.46755 0.93135 0.09058 0.0
C1103 C 0.49424 0.93736 0.08953 0.0
C1104 C 0.50056 0.92319 0.10895 0.0
C1105 C 0.50978 0.90407 0.09877 0.0
C1106 C 0.52174 0.94386 0.12602 0.0
C1107 C 0.47307 0.90752 0.12058 0.0
C1108 C 0.45441 0.91283 0.11001 0.0
C1109 C 0.42724 0.89928 0.11673 0.0
C1110 C 0.41896 0.87978 0.13464 0.0
C1111 C 0.4377 0.87373 0.14546 0.0
C1112 C 0.46514 0.8881 0.13838 0.0
H1113 H 0.57188 0.47963 0.19998 0.0
H1114 H 0.60227 0.56152 0.22577 0.0
H1115 H 0.60404 0.54635 0.26596 0.0
H1116 H 0.53334 0.44301 0.25376 0.0
H1117 H 0.54331 0.41776 0.25077 0.0
H1118 H 0.53931 0.43377 0.22493 0.0
H1119 H 0.58832 0.44814 0.21215 0.0
H1120 H 0.59258 0.43247 0.23801 0.0
H1121 H 0.61595 0.46771 0.23211 0.0
H1122 H 0.60895 0.52419 0.30197 0.0
H1123 H 0.61586 0.49653 0.33135 0.0
H1124 H 0.58361 0.42912 0.2822 0.0
C1125 C 0.57843 0.49431 0.21413 0.0
C1126 C 0.58676 0.52178 0.20961 0.0
C1127 C 0.59518 0.54027 0.22871 0.0
C1128 C 0.59644 0.53186 0.25165 0.0
C1129 C 0.58917 0.50491 0.25525 0.0
C1130 C 0.58014 0.48635 0.23705 0.0
C1131 C 0.57622 0.4593 0.24511 0.0
C1132 C 0.54626 0.43715 0.24356 0.0
C1133 C 0.59435 0.45147 0.23101 0.0
C1134 C 0.58542 0.46586 0.27048 0.0
C1135 C 0.59238 0.49214 0.27606 0.0
C1136 C 0.60302 0.5034 0.29797 0.0
C1137 C 0.60677 0.48744 0.3146 0.0
C1138 C 0.60003 0.46049 0.30924 0.0
C1139 C 0.58896 0.4496 0.28689 0.0
H1140 H 0.4258 0.91041 0.44965 0.0
H1141 H 0.48834 0.98932 0.42527 0.0
H1142 H 0.48777 0.96938 0.38625 0.0
H1143 H 0.45149 0.87213 0.42141 0.0
H1144 H 0.41838 0.84396 0.41482 0.0
H1145 H 0.42311 0.8649 0.44013 0.0
H1146 H 0.38572 0.87417 0.42478 0.0
H1147 H 0.38089 0.85328 0.39939 0.0
H1148 H 0.38856 0.88776 0.39559 0.0
H1149 H 0.48072 0.93983 0.35013 0.0
H1150 H 0.46765 0.90399 0.32016 0.0
H1151 H 0.41127 0.84457 0.36976 0.0
C1152 C 0.43962 0.92356 0.43623 0.0
C1153 C 0.45739 0.9514 0.44061 0.0
C1154 C 0.47454 0.96796 0.42229 0.0
C1155 C 0.47441 0.95678 0.40014 0.0
C1156 C 0.45694 0.92909 0.39665 0.0
C1157 C 0.43984 0.91278 0.41424 0.0
C1158 C 0.42323 0.88361 0.40638 0.0
C1159 C 0.42944 0.86507 0.42159 0.0
C1160 C 0.3928 0.87416 0.40654 0.0
C1161 C 0.43372 0.88588 0.38155 0.0
C1162 C 0.45307 0.91224 0.37618 0.0
C1163 C 0.46564 0.91913 0.35421 0.0
C1164 C 0.45821 0.89856 0.33736 0.0
C1165 C 0.43846 0.87136 0.34257 0.0
C1166 C 0.42616 0.86514 0.36504 0.0
H1167 H 0.52192 0.41304 0.60993 0.0
H1168 H 0.52919 0.49144 0.59795 0.0
H1169 H 0.55153 0.49463 0.55952 0.0
H1170 H 0.58591 0.42952 0.58797 0.0
H1171 H 0.57469 0.39671 0.57508 0.0
H1172 H 0.55733 0.39985 0.6003 0.0
H1173 H 0.51193 0.37626 0.57737 0.0
H1174 H 0.52911 0.37287 0.55209 0.0
H1175 H 0.50955 0.38959 0.54926 0.0
H1176 H 0.57592 0.48995 0.52353 0.0
H1177 H 0.59809 0.47724 0.49263 0.0
H1178 H 0.57561 0.40257 0.52997 0.0
C1179 C 0.5281 0.43088 0.5992 0.0
C1180 C 0.52411 0.45215 0.60695 0.0
C1181 C 0.53204 0.47492 0.59225 0.0
C1182 C 0.54481 0.47691 0.5705 0.0
C1183 C 0.5492 0.45585 0.56378 0.0
C1184 C 0.54083 0.43319 0.57769 0.0
C1185 C 0.5486 0.4137 0.56714 0.0
C1186 C 0.56777 0.40973 0.58361 0.0
C1187 C 0.52329 0.3865 0.56111 0.0
C1188 C 0.56304 0.42902 0.54516 0.0
C1189 C 0.56314 0.45324 0.54341 0.0
C1190 C 0.57584 0.47099 0.52472 0.0
C1191 C 0.58858 0.46368 0.50736 0.0
C1192 C 0.5886 0.43887 0.50884 0.0
C1193 C 0.57564 0.42146 0.52808 0.0
H1194 H 0.12653 0.51953 0.77747 0.0
H1195 H 0.05863 0.53238 0.76649 0.0
H1196 H 0.0799 0.55719 0.72943 0.0
H1197 H 0.17743 0.58353 0.75907 0.0
H1198 H 0.19784 0.57155 0.74509 0.0
H1199 H 0.17609 0.553 0.76933 0.0
H1200 H 0.15246 0.50962 0.74364 0.0
H1201 H 0.17437 0.52795 0.71937 0.0
H1202 H 0.13813 0.51064 0.71563 0.0
H1203 H 0.11115 0.58382 0.69516 0.0
H1204 H 0.14775 0.6075 0.66591 0.0
H1205 H 0.19426 0.57588 0.69997 0.0
C1206 C 0.11601 0.52737 0.76714 0.0
C1207 C 0.09107 0.52428 0.7748 0.0
C1208 C 0.07772 0.53451 0.76078 0.0
C1209 C 0.08971 0.54867 0.73983 0.0
C1210 C 0.11483 0.55207 0.73317 0.0
C1211 C 0.12759 0.54138 0.74634 0.0
C1212 C 0.15474 0.54833 0.73599 0.0
C1213 C 0.17788 0.5651 0.75341 0.0
C1214 C 0.15492 0.5226 0.72819 0.0
C1215 C 0.15564 0.56509 0.71508 0.0
C1216 C 0.13246 0.56701 0.71363 0.0
C1217 C 0.12921 0.58215 0.69602 0.0
C1218 C 0.15009 0.59548 0.67944 0.0
C1219 C 0.17396 0.59361 0.68058 0.0
C1220 C 0.17653 0.57811 0.6987 0.0
H1221 H 0.56867 0.10828 0.95339 0.0
H1222 H 0.60198 0.05824 0.93079 0.0
H1223 H 0.60818 0.07708 0.89075 0.0
H1224 H 0.53504 0.10692 0.89642 0.0
H1225 H 0.54365 0.14176 0.89959 0.0
H1226 H 0.53767 0.12108 0.92536 0.0
H1227 H 0.58483 0.15642 0.94156 0.0
H1228 H 0.59114 0.177 0.91575 0.0
H1229 H 0.61455 0.1659 0.92392 0.0
H1230 H 0.61743 0.10623 0.85533 0.0
H1231 H 0.62599 0.14116 0.8259 0.0
H1232 H 0.58563 0.17189 0.87078 0.0
C1233 C 0.57668 0.10082 0.93987 0.0
C1234 C 0.58465 0.08161 0.94523 0.0
C1235 C 0.59519 0.07248 0.92706 0.0
C1236 C 0.59897 0.08323 0.90427 0.0
C1237 C 0.59192 0.10292 0.89985 0.0
C1238 C 0.58061 0.11135 0.91703 0.0
C1239 C 0.57669 0.13422 0.90819 0.0
C1240 C 0.54646 0.12546 0.90733 0.0
C1241 C 0.59277 0.15989 0.92325 0.0
C1242 C 0.58849 0.13798 0.88364 0.0
C1243 C 0.59695 0.11958 0.87916 0.0
C1244 C 0.61024 0.12028 0.85838 0.0
C1245 C 0.61488 0.1402 0.84167 0.0
C1246 C 0.60616 0.1592 0.8457 0.0
C1247 C 0.59264 0.15781 0.86702 0.0
H1248 H 0.50481 0.61277 0.11275 0.0
H1249 H 0.51379 0.5435 0.09573 0.0
H1250 H 0.49001 0.53835 0.05785 0.0
H1251 H 0.43716 0.58527 0.08934 0.0
H1252 H 0.44342 0.61778 0.07905 0.0
H1253 H 0.46119 0.61573 0.10447 0.0
H1254 H 0.5071 0.64841 0.08453 0.0
H1255 H 0.48951 0.65056 0.05907 0.0
H1256 H 0.51446 0.64023 0.05579 0.0
H1257 H 0.46618 0.5422 0.02108 0.0
H1258 H 0.44427 0.55425 0.98933 0.0
H1259 H 0.44926 0.61921 0.03264 0.0
C1260 C 0.50134 0.59607 0.10141 0.0
C1261 C 0.51086 0.57826 0.10744 0.0
C1262 C 0.50672 0.55741 0.09149 0.0
C1263 C 0.49311 0.55425 0.07002 0.0
C1264 C 0.48368 0.57202 0.06489 0.0
C1265 C 0.48758 0.59244 0.08025 0.0
C1266 C 0.47583 0.60911 0.07081 0.0
C1267 C 0.45304 0.60682 0.08687 0.0
C1268 C 0.49806 0.63883 0.06734 0.0
C1269 C 0.46482 0.59509 0.04752 0.0
C1270 C 0.46956 0.57379 0.0443 0.0
C1271 C 0.46217 0.55867 0.02354 0.0
C1272 C 0.44982 0.56567 0.00562 0.0
C1273 C 0.44484 0.58745 0.0087 0.0
C1274 C 0.45227 0.60209 0.03002 0.0
H1275 H 0.94276 0.47436 0.27798 0.0
H1276 H 0.98927 0.55833 0.25593 0.0
H1277 H 0.97037 0.54522 0.216 0.0
H1278 H 0.94206 0.4422 0.21952 0.0
H1279 H 0.90749 0.41574 0.22394 0.0
H1280 H 0.92972 0.43048 0.24889 0.0
H1281 H 0.89519 0.44176 0.26776 0.0
H1282 H 0.87309 0.42755 0.2428 0.0
H1283 H 0.88456 0.462 0.25157 0.0
H1284 H 0.94011 0.52499 0.18127 0.0
H1285 H 0.90282 0.49845 0.1534 0.0
H1286 H 0.87411 0.42789 0.19833 0.0
C1287 C 0.94961 0.4899 0.26457 0.0
C1288 C 0.96763 0.51739 0.27018 0.0
C1289 C 0.976 0.53707 0.25209 0.0
C1290 C 0.96517 0.52983 0.22932 0.0
C1291 C 0.94612 0.50282 0.22485 0.0
C1292 C 0.93869 0.48306 0.24188 0.0
C1293 C 0.91536 0.45619 0.23356 0.0
C1294 C 0.92419 0.43489 0.23134 0.0
C1295 C 0.8906 0.44632 0.24989 0.0
C1296 C 0.91004 0.46423 0.2096 0.0
C1297 C 0.92827 0.49112 0.20479 0.0
C1298 C 0.92606 0.50379 0.18464 0.0
C1299 C 0.90466 0.48864 0.16904 0.0
C1300 C 0.88562 0.46113 0.17372 0.0
C1301 C 0.88865 0.44874 0.19412 0.0
loop_
_geom_bond_atom_site_label_1
_geom_bond_atom_site_label_2
_geom_bond_distance
_geom_bond_site_symmetry_2
_ccdc_geom_bond_type
H0 C8 0.930 . S
H1 C11 0.930 . S
H2 C13 0.930 . S
H3 C14 0.970 . S
H4 C14 0.970 . S
H5 C16 0.930 . S
H6 C18 0.930 . S
H7 C20 0.930 . S
C8 H0 0.930 . S
C8 C9 1.382 . S
C8 C10 1.426 . S
C9 C8 1.382 . S
C9 C13 1.389 . S
C10 C8 1.426 . S
C10 C11 1.375 . S
C10 C14 1.532 1_655 S
C11 H1 0.930 . S
C11 C10 1.375 . S
C11 C12 1.416 . S
C12 C11 1.416 . S
C12 C13 1.371 . S
C13 H2 0.930 . S
C13 C9 1.389 . S
C13 C12 1.371 . S
C14 H3 0.970 . S
C14 H4 0.970 . S
C14 C10 1.532 1_455 S
C14 C15 1.499 . S
C15 C14 1.499 . S
C15 C16 1.370 . S
C15 C20 1.415 . S
C16 H5 0.930 . S
C16 C15 1.370 . S
C16 C17 1.407 . S
C17 C16 1.407 . S
C17 C18 1.365 . S
C18 H6 0.930 . S
C18 C17 1.365 . S
C18 C19 1.393 . S
C19 C18 1.393 . S
C19 C20 1.387 . S
C20 H7 0.930 . S
C20 C15 1.415 . S
C20 C19 1.387 . S
H21 C29 0.930 . S
H22 C32 0.932 . S
H23 C34 0.930 . S
H24 C35 0.970 . S
H25 C35 0.970 . S
H26 C37 0.930 . S
H27 C39 0.930 . S
H28 C41 0.930 . S
C29 H21 0.930 . S
C29 C30 1.382 . S
C29 C31 1.426 . S
C30 C29 1.382 . S
C30 C34 1.389 . S
C31 C29 1.426 . S
C31 C32 1.375 . S
C31 C35 1.532 1_565 S
C32 H22 0.932 . S
C32 C31 1.375 . S
C32 C33 1.416 . S
C33 C32 1.416 . S
C33 C34 1.371 . S
C34 H23 0.930 . S
C34 C30 1.389 . S
C34 C33 1.371 . S
C35 H24 0.970 . S
C35 H25 0.970 . S
C35 C31 1.532 1_545 S
C35 C36 1.499 . S
C36 C35 1.499 . S
C36 C37 1.370 . S
C36 C41 1.415 . S
C37 H26 0.930 . S
C37 C36 1.370 . S
C37 C38 1.407 . S
C38 C37 1.407 . S
C38 C39 1.365 . S
C39 H27 0.930 . S
C39 C38 1.365 . S
C39 C40 1.393 . S
C40 C39 1.393 . S
C40 C41 1.387 . S
C41 H28 0.930 . S
C41 C36 1.415 . S
C41 C40 1.387 . S
H42 C50 0.930 . S
H43 C53 0.930 . S
H44 C55 0.930 . S
H45 C56 0.970 . S
H46 C56 0.970 . S
H47 C58 0.930 . S
H48 C60 0.930 . S
H49 C62 0.930 . S
C50 H42 0.930 . S
C50 C51 1.382 . S
C50 C52 1.426 . S
C51 C50 1.382 . S
C51 C55 1.389 . S
C52 C50 1.426 . S
C52 C53 1.375 . S
C52 C56 1.532 . S
C53 H43 0.930 . S
C53 C52 1.375 . S
C53 C54 1.416 . S
C54 C53 1.416 . S
C54 C55 1.371 . S
C55 H44 0.930 . S
C55 C51 1.389 . S
C55 C54 1.371 . S
C56 H45 0.970 . S
C56 H46 0.970 . S
C56 C52 1.532 . S
C56 C57 1.499 . S
C57 C56 1.499 . S
C57 C58 1.370 . S
C57 C62 1.415 . S
C58 H47 0.930 . S
C58 C57 1.370 . S
C58 C59 1.407 . S
C59 C58 1.407 . S
C59 C60 1.365 . S
C60 H48 0.930 . S
C60 C59 1.365 . S
C60 C61 1.393 . S
C61 C60 1.393 . S
C61 C62 1.387 . S
C62 H49 0.930 . S
C62 C57 1.415 . S
C62 C61 1.387 . S
H63 C71 0.930 . S
H64 C74 0.929 . S
H65 C76 0.930 . S
H66 C77 0.970 . S
H67 C77 0.970 . S
H68 C79 0.930 . S
H69 C81 0.930 . S
H70 C83 0.930 . S
C71 H63 0.930 . S
C71 C72 1.382 . S
C71 C73 1.426 . S
C72 C71 1.382 . S
C72 C76 1.389 . S
C73 C71 1.426 . S
C73 C74 1.375 . S
C73 C77 1.532 1_655 S
C74 H64 0.929 . S
C74 C73 1.375 . S
C74 C75 1.416 . S
C75 C74 1.416 . S
C75 C76 1.371 . S
C76 H65 0.930 . S
C76 C72 1.389 . S
C76 C75 1.371 . S
C77 H66 0.970 . S
C77 H67 0.970 . S
C77 C73 1.532 1_455 S
C77 C78 1.499 . S
C78 C77 1.499 . S
C78 C79 1.370 . S
C78 C83 1.415 . S
C79 H68 0.930 . S
C79 C78 1.370 . S
C79 C80 1.407 . S
C80 C79 1.407 . S
C80 C81 1.365 . S
C81 H69 0.930 . S
C81 C80 1.365 . S
C81 C82 1.393 . S
C82 C81 1.393 . S
C82 C83 1.387 . S
C83 H70 0.930 . S
C83 C78 1.415 . S
C83 C82 1.387 . S
H84 C92 0.930 . S
H85 C95 0.930 . S
H86 C97 0.930 . S
H87 C98 0.970 1_554 S
H88 C98 0.970 . S
H89 C100 0.938 . S
H90 C102 0.930 . S
H91 C104 0.930 . S
C92 H84 0.930 . S
C92 C93 1.389 . S
C92 C94 1.426 1_554 S
C93 C92 1.389 . S
C93 C97 1.364 1_554 S
C94 C92 1.426 1_556 S
C94 C95 1.375 . S
C94 C98 1.532 . S
C95 H85 0.930 . S
C95 C94 1.375 . S
C95 C96 1.416 . S
C96 C95 1.416 . S
C96 C97 1.371 . S
C97 H86 0.930 . S
C97 C93 1.364 1_556 S
C97 C96 1.371 . S
C98 H87 0.970 1_556 S
C98 H88 0.970 . S
C98 C94 1.532 . S
C98 C99 1.499 1_546 S
C99 C98 1.499 1_564 S
C99 C100 1.370 . S
C99 C104 1.415 1_554 S
C100 H89 0.938 . S
C100 C99 1.370 . S
C100 C101 1.407 . S
C101 C100 1.407 . S
C101 C102 1.365 . S
C102 H90 0.930 . S
C102 C101 1.365 . S
C102 C103 1.393 1_554 S
C103 C102 1.393 1_556 S
C103 C104 1.387 . S
C104 H91 0.930 . S
C104 C99 1.415 1_556 S
C104 C103 1.387 . S
H105 C113 0.930 . S
H106 C116 0.930 . S
H107 C118 0.930 . S
H108 C119 0.970 . S
H109 C119 0.970 . S
H110 C121 0.930 . S
H111 C123 0.930 . S
H112 C125 0.930 . S
C113 H105 0.930 . S
C113 C114 1.382 . S
C113 C115 1.426 . S
C114 C113 1.382 . S
C114 C118 1.389 . S
C115 C113 1.426 . S
C115 C116 1.375 . S
C115 C119 1.532 . S
C116 H106 0.930 . S
C116 C115 1.375 . S
C116 C117 1.416 . S
C117 C116 1.416 . S
C117 C118 1.371 . S
C118 H107 0.930 . S
C118 C114 1.389 . S
C118 C117 1.371 . S
C119 H108 0.970 . S
C119 H109 0.970 . S
C119 C115 1.532 . S
C119 C120 1.499 . S
C120 C119 1.499 . S
C120 C121 1.370 . S
C120 C125 1.415 . S
C121 H110 0.930 . S
C121 C120 1.370 . S
C121 C122 1.407 . S
C122 C121 1.407 . S
C122 C123 1.365 . S
C123 H111 0.930 . S
C123 C122 1.365 . S
C123 C124 1.393 . S
C124 C123 1.393 . S
C124 C125 1.387 . S
C125 H112 0.930 . S
C125 C120 1.415 . S
C125 C124 1.387 . S
Li126 N143 1.990 . S
Li126 O186 1.956 . S
Li126 O187 1.970 . S
Li126 O188 1.961 . S
Li127 N151 1.990 . S
Li127 O186 1.970 . S
Li127 O187 1.956 . S
Li127 O189 1.961 . S
Li128 N173 1.990 . S
Li128 O186 1.961 . S
Li128 O188 1.956 . S
Li128 O189 1.970 . S
Li129 N179 1.990 . S
Li129 O187 1.961 . S
Li129 O188 1.970 . S
Li129 O189 1.956 . S
C130 C132 1.348 . S
C130 C133 1.356 . S
C130 O186 1.325 . S
N131 C134 1.314 . S
N131 C135 1.279 . S
C132 C130 1.348 . S
C132 C134 1.353 . S
C132 H190 0.929 . S
C133 C130 1.356 . S
C133 C135 1.358 . S
C133 H191 0.930 . S
C134 N131 1.314 . S
C134 C132 1.353 . S
C134 H192 0.930 . S
C135 N131 1.279 . S
C135 C133 1.358 . S
C135 H193 0.930 . S
C136 C139 1.348 . S
C136 C140 1.356 . S
C136 O187 1.325 . S
C137 N138 1.279 . S
C137 C140 1.358 . S
C137 H194 0.930 . S
N138 C137 1.279 . S
N138 C141 1.314 . S
C139 C136 1.348 . S
C139 C141 1.353 . S
C139 H195 0.929 . S
C140 C136 1.356 . S
C140 C137 1.358 . S
C140 H196 0.930 . S
C141 N138 1.314 . S
C141 C139 1.353 . S
C141 H197 0.930 . S
C142 N143 1.314 . S
C142 C147 1.353 . S
C142 H148 0.930 . S
N143 Li126 1.990 . S
N143 C142 1.314 . S
N143 C145 1.279 . S
C144 C145 1.358 . S
C144 C146 1.356 . S
C144 H198 0.930 . S
C145 N143 1.279 . S
C145 C144 1.358 . S
C145 H149 0.930 . S
C146 C144 1.356 . S
C146 C147 1.348 . S
C147 C142 1.353 . S
C147 C146 1.348 . S
C147 H199 0.929 . S
H148 C142 0.930 . S
H149 C145 0.930 . S
C150 N151 1.314 . S
C150 C152 1.353 . S
C150 H156 0.930 . S
N151 Li127 1.990 . S
N151 C150 1.314 . S
N151 C154 1.279 . S
C152 C150 1.353 . S
C152 C155 1.348 . S
C152 H200 0.929 . S
C153 C154 1.358 . S
C153 C155 1.356 . S
C153 H201 0.930 . S
C154 N151 1.279 . S
C154 C153 1.358 . S
C154 H157 0.930 . S
C155 C152 1.348 . S
C155 C153 1.356 . S
H156 C150 0.930 . S
H157 C154 0.930 . S
C158 C160 1.348 . S
C158 C161 1.356 . S
C158 O188 1.325 . S
N159 C162 1.314 . S
N159 C163 1.279 . S
C160 C158 1.348 . S
C160 C162 1.353 . S
C160 H202 0.929 . S
C161 C158 1.356 . S
C161 C163 1.358 . S
C161 H203 0.930 . S
C162 N159 1.314 . S
C162 C160 1.353 . S
C162 H204 0.930 . S
C163 N159 1.279 . S
C163 C161 1.358 . S
C163 H205 0.930 . S
C164 C165 1.348 . S
C164 C166 1.356 . S
C164 O189 1.325 . S
C165 C164 1.348 . S
C165 C167 1.353 . S
C165 H206 0.929 . S
C166 C164 1.356 . S
C166 C168 1.358 . S
C166 H207 0.930 . S
C167 C165 1.353 . S
C167 N169 1.314 . S
C167 H208 0.930 . S
C168 C166 1.358 . S
C168 N169 1.279 . S
C168 H209 0.930 . S
N169 C167 1.314 . S
N169 C168 1.279 . S
C170 C172 1.353 . S
C170 N173 1.314 . S
C170 H176 0.930 . S
C171 N173 1.279 . S
C171 C174 1.358 . S
C171 H177 0.930 . S
C172 C170 1.353 . S
C172 C175 1.348 . S
C172 H210 0.929 . S
N173 Li128 1.990 . S
N173 C170 1.314 . S
N173 C171 1.279 . S
C174 C171 1.358 . S
C174 C175 1.356 . S
C174 H211 0.930 . S
C175 C172 1.348 . S
C175 C174 1.356 . S
H176 C170 0.930 . S
H177 C171 0.930 . S
C178 N179 1.314 . S
C178 C180 1.353 . S
C178 H184 0.930 . S
N179 Li129 1.990 . S
N179 C178 1.314 . S
N179 C182 1.279 . S
C180 C178 1.353 . S
C180 C183 1.348 . S
C180 H212 0.929 . S
C181 C182 1.358 . S
C181 C183 1.356 . S
C181 H213 0.930 . S
C182 N179 1.279 . S
C182 C181 1.358 . S
C182 H185 0.930 . S
C183 C180 1.348 . S
C183 C181 1.356 . S
H184 C178 0.930 . S
H185 C182 0.930 . S
O186 Li126 1.956 . S
O186 Li127 1.970 . S
O186 Li128 1.961 . S
O186 C130 1.325 . S
O187 Li126 1.970 . S
O187 Li127 1.956 . S
O187 Li129 1.961 . S
O187 C136 1.325 . S
O188 Li126 1.961 . S
O188 Li128 1.956 . S
O188 Li129 1.970 . S
O188 C158 1.325 . S
O189 Li127 1.961 . S
O189 Li128 1.970 . S
O189 Li129 1.956 . S
O189 C164 1.325 . S
H190 C132 0.929 . S
H191 C133 0.930 . S
H192 C134 0.930 . S
H193 C135 0.930 . S
H194 C137 0.930 . S
H195 C139 0.929 . S
H196 C140 0.930 . S
H197 C141 0.930 . S
H198 C144 0.930 . S
H199 C147 0.929 . S
H200 C152 0.929 . S
H201 C153 0.930 . S
H202 C160 0.929 . S
H203 C161 0.930 . S
H204 C162 0.930 . S
H205 C163 0.930 . S
H206 C165 0.929 . S
H207 C166 0.930 . S
H208 C167 0.930 . S
H209 C168 0.930 . S
H210 C172 0.929 . S
H211 C174 0.930 . S
H212 C180 0.929 . S
H213 C181 0.930 . S
Li214 N231 1.990 . S
Li214 O274 1.956 . S
Li214 O275 1.970 . S
Li214 O276 1.961 . S
Li215 N239 1.990 . S
Li215 O274 1.970 . S
Li215 O275 1.956 . S
Li215 O277 1.961 . S
Li216 N261 1.990 . S
Li216 O274 1.961 . S
Li216 O276 1.956 . S
Li216 O277 1.970 . S
Li217 N267 1.990 . S
Li217 O275 1.961 . S
Li217 O276 1.970 . S
Li217 O277 1.956 . S
C218 C220 1.348 . S
C218 C221 1.356 . S
C218 O274 1.325 . S
N219 C222 1.314 . S
N219 C223 1.279 . S
C220 C218 1.348 . S
C220 C222 1.353 . S
C220 H278 0.929 . S
C221 C218 1.356 . S
C221 C223 1.358 . S
C221 H279 0.930 . S
C222 N219 1.314 . S
C222 C220 1.353 . S
C222 H280 0.930 . S
C223 N219 1.279 . S
C223 C221 1.358 . S
C223 H281 0.930 . S
C224 C227 1.348 . S
C224 C228 1.356 . S
C224 O275 1.325 . S
C225 N226 1.279 . S
C225 C228 1.358 . S
C225 H282 0.930 . S
N226 C225 1.279 . S
N226 C229 1.314 . S
C227 C224 1.348 . S
C227 C229 1.353 . S
C227 H283 0.929 . S
C228 C224 1.356 . S
C228 C225 1.358 . S
C228 H284 0.930 . S
C229 N226 1.314 . S
C229 C227 1.353 . S
C229 H285 0.930 . S
C230 N231 1.314 . S
C230 C235 1.353 . S
C230 H236 0.930 . S
N231 Li214 1.990 . S
N231 C230 1.314 . S
N231 C233 1.279 . S
C232 C233 1.358 . S
C232 C234 1.356 . S
C232 H286 0.930 . S
C233 N231 1.279 . S
C233 C232 1.358 . S
C233 H237 0.930 . S
C234 C232 1.356 . S
C234 C235 1.348 . S
C235 C230 1.353 . S
C235 C234 1.348 . S
C235 H287 0.929 . S
H236 C230 0.930 . S
H237 C233 0.930 . S
C238 N239 1.314 . S
C238 C240 1.353 . S
C238 H244 0.930 . S
N239 Li215 1.990 . S
N239 C238 1.314 . S
N239 C242 1.279 . S
C240 C238 1.353 . S
C240 C243 1.348 . S
C240 H288 0.929 . S
C241 C242 1.358 . S
C241 C243 1.356 . S
C241 H289 0.930 . S
C242 N239 1.279 . S
C242 C241 1.358 . S
C242 H245 0.930 . S
C243 C240 1.348 . S
C243 C241 1.356 . S
H244 C238 0.930 . S
H245 C242 0.930 . S
C246 C248 1.348 . S
C246 C249 1.356 . S
C246 O276 1.325 . S
N247 C250 1.314 . S
N247 C251 1.279 . S
C248 C246 1.348 . S
C248 C250 1.353 . S
C248 H290 0.929 . S
C249 C246 1.356 . S
C249 C251 1.358 . S
C249 H291 0.930 . S
C250 N247 1.314 . S
C250 C248 1.353 . S
C250 H292 0.930 . S
C251 N247 1.279 . S
C251 C249 1.358 . S
C251 H293 0.930 . S
C252 C253 1.348 . S
C252 C254 1.356 . S
C252 O277 1.325 . S
C253 C252 1.348 . S
C253 C255 1.353 . S
C253 H294 0.929 . S
C254 C252 1.356 . S
C254 C256 1.358 . S
C254 H295 0.930 . S
C255 C253 1.353 . S
C255 N257 1.314 . S
C255 H296 0.930 . S
C256 C254 1.358 . S
C256 N257 1.279 . S
C256 H297 0.930 . S
N257 C255 1.314 . S
N257 C256 1.279 . S
C258 C260 1.353 . S
C258 N261 1.314 . S
C258 H264 0.930 . S
C259 N261 1.279 . S
C259 C262 1.358 . S
C259 H265 0.930 . S
C260 C258 1.353 . S
C260 C263 1.348 . S
C260 H298 0.929 . S
N261 Li216 1.990 . S
N261 C258 1.314 . S
N261 C259 1.279 . S
C262 C259 1.358 . S
C262 C263 1.356 . S
C262 H299 0.930 . S
C263 C260 1.348 . S
C263 C262 1.356 . S
H264 C258 0.930 . S
H265 C259 0.930 . S
C266 N267 1.314 . S
C266 C268 1.353 . S
C266 H272 0.930 . S
N267 Li217 1.990 . S
N267 C266 1.314 . S
N267 C270 1.279 . S
C268 C266 1.353 . S
C268 C271 1.348 . S
C268 H300 0.929 . S
C269 C270 1.358 . S
C269 C271 1.356 . S
C269 H301 0.930 . S
C270 N267 1.279 . S
C270 C269 1.358 . S
C270 H273 0.930 . S
C271 C268 1.348 . S
C271 C269 1.356 . S
H272 C266 0.930 . S
H273 C270 0.930 . S
O274 Li214 1.956 . S
O274 Li215 1.970 . S
O274 Li216 1.961 . S
O274 C218 1.325 . S
O275 Li214 1.970 . S
O275 Li215 1.956 . S
O275 Li217 1.961 . S
O275 C224 1.325 . S
O276 Li214 1.961 . S
O276 Li216 1.956 . S
O276 Li217 1.970 . S
O276 C246 1.325 . S
O277 Li215 1.961 . S
O277 Li216 1.970 . S
O277 Li217 1.956 . S
O277 C252 1.325 . S
H278 C220 0.929 . S
H279 C221 0.930 . S
H280 C222 0.930 . S
H281 C223 0.930 . S
H282 C225 0.930 . S
H283 C227 0.929 . S
H284 C228 0.930 . S
H285 C229 0.930 . S
H286 C232 0.930 . S
H287 C235 0.929 . S
H288 C240 0.929 . S
H289 C241 0.930 . S
H290 C248 0.929 . S
H291 C249 0.930 . S
H292 C250 0.930 . S
H293 C251 0.930 . S
H294 C253 0.929 . S
H295 C254 0.930 . S
H296 C255 0.930 . S
H297 C256 0.930 . S
H298 C260 0.929 . S
H299 C262 0.930 . S
H300 C268 0.929 . S
H301 C269 0.930 . S
Li302 N319 1.990 . S
Li302 O362 1.956 . S
Li302 O363 1.970 . S
Li302 O364 1.961 . S
Li303 N327 1.990 . S
Li303 O362 1.970 . S
Li303 O363 1.956 . S
Li303 O365 1.961 . S
Li304 N349 1.990 . S
Li304 O362 1.961 . S
Li304 O364 1.956 . S
Li304 O365 1.970 . S
Li305 N355 1.990 . S
Li305 O363 1.961 . S
Li305 O364 1.970 . S
Li305 O365 1.956 . S
C306 C308 1.348 . S
C306 C309 1.356 . S
C306 O362 1.325 . S
N307 C310 1.314 . S
N307 C311 1.279 . S
C308 C306 1.348 . S
C308 C310 1.353 . S
C308 H366 0.929 . S
C309 C306 1.356 . S
C309 C311 1.358 . S
C309 H367 0.930 . S
C310 N307 1.314 . S
C310 C308 1.353 . S
C310 H368 0.930 . S
C311 N307 1.279 . S
C311 C309 1.358 . S
C311 H369 0.930 . S
C312 C315 1.348 . S
C312 C316 1.356 . S
C312 O363 1.325 . S
C313 N314 1.279 . S
C313 C316 1.358 . S
C313 H370 0.930 . S
N314 C313 1.279 . S
N314 C317 1.314 . S
C315 C312 1.348 . S
C315 C317 1.353 . S
C315 H371 0.929 . S
C316 C312 1.356 . S
C316 C313 1.358 . S
C316 H372 0.930 . S
C317 N314 1.314 . S
C317 C315 1.353 . S
C317 H373 0.930 . S
C318 N319 1.314 . S
C318 C323 1.353 . S
C318 H324 0.930 . S
N319 Li302 1.990 . S
N319 C318 1.314 . S
N319 C321 1.279 . S
C320 C321 1.358 . S
C320 C322 1.356 . S
C320 H374 0.930 . S
C321 N319 1.279 . S
C321 C320 1.358 . S
C321 H325 0.930 . S
C322 C320 1.356 . S
C322 C323 1.348 . S
C323 C318 1.353 . S
C323 C322 1.348 . S
C323 H375 0.929 . S
H324 C318 0.930 . S
H325 C321 0.930 . S
C326 N327 1.314 . S
C326 C328 1.353 . S
C326 H332 0.930 . S
N327 Li303 1.990 . S
N327 C326 1.314 . S
N327 C330 1.279 . S
C328 C326 1.353 . S
C328 C331 1.348 . S
C328 H376 0.929 . S
C329 C330 1.358 . S
C329 C331 1.356 . S
C329 H377 0.930 . S
C330 N327 1.279 . S
C330 C329 1.358 . S
C330 H333 0.930 . S
C331 C328 1.348 . S
C331 C329 1.356 . S
H332 C326 0.930 . S
H333 C330 0.930 . S
C334 C336 1.348 . S
C334 C337 1.356 . S
C334 O364 1.325 . S
N335 C338 1.314 . S
N335 C339 1.279 . S
C336 C334 1.348 . S
C336 C338 1.353 . S
C336 H378 0.929 . S
C337 C334 1.356 . S
C337 C339 1.358 . S
C337 H379 0.930 . S
C338 N335 1.314 . S
C338 C336 1.353 . S
C338 H380 0.930 . S
C339 N335 1.279 . S
C339 C337 1.358 . S
C339 H381 0.930 . S
C340 C341 1.348 . S
C340 C342 1.356 . S
C340 O365 1.325 . S
C341 C340 1.348 . S
C341 C343 1.353 . S
C341 H382 0.929 . S
C342 C340 1.356 . S
C342 C344 1.358 . S
C342 H383 0.930 . S
C343 C341 1.353 . S
C343 N345 1.314 . S
C343 H384 0.930 . S
C344 C342 1.358 . S
C344 N345 1.279 . S
C344 H385 0.930 . S
N345 C343 1.314 . S
N345 C344 1.279 . S
C346 C348 1.353 . S
C346 N349 1.314 . S
C346 H352 0.930 . S
C347 N349 1.279 . S
C347 C350 1.358 . S
C347 H353 0.930 . S
C348 C346 1.353 . S
C348 C351 1.348 . S
C348 H386 0.929 . S
N349 Li304 1.990 . S
N349 C346 1.314 . S
N349 C347 1.279 . S
C350 C347 1.358 . S
C350 C351 1.356 . S
C350 H387 0.930 . S
C351 C348 1.348 . S
C351 C350 1.356 . S
H352 C346 0.930 . S
H353 C347 0.930 . S
C354 N355 1.314 . S
C354 C356 1.353 . S
C354 H360 0.930 . S
N355 Li305 1.990 . S
N355 C354 1.314 . S
N355 C358 1.279 . S
C356 C354 1.353 . S
C356 C359 1.348 . S
C356 H388 0.929 . S
C357 C358 1.358 . S
C357 C359 1.356 . S
C357 H389 0.930 . S
C358 N355 1.279 . S
C358 C357 1.358 . S
C358 H361 0.930 . S
C359 C356 1.348 . S
C359 C357 1.356 . S
H360 C354 0.930 . S
H361 C358 0.930 . S
O362 Li302 1.956 . S
O362 Li303 1.970 . S
O362 Li304 1.961 . S
O362 C306 1.325 . S
O363 Li302 1.970 . S
O363 Li303 1.956 . S
O363 Li305 1.961 . S
O363 C312 1.325 . S
O364 Li302 1.961 . S
O364 Li304 1.956 . S
O364 Li305 1.970 . S
O364 C334 1.325 . S
O365 Li303 1.961 . S
O365 Li304 1.970 . S
O365 Li305 1.956 . S
O365 C340 1.325 . S
H366 C308 0.929 . S
H367 C309 0.930 . S
H368 C310 0.930 . S
H369 C311 0.930 . S
H370 C313 0.930 . S
H371 C315 0.929 . S
H372 C316 0.930 . S
H373 C317 0.930 . S
H374 C320 0.930 . S
H375 C323 0.929 . S
H376 C328 0.929 . S
H377 C329 0.930 . S
H378 C336 0.929 . S
H379 C337 0.930 . S
H380 C338 0.930 . S
H381 C339 0.930 . S
H382 C341 0.929 . S
H383 C342 0.930 . S
H384 C343 0.930 . S
H385 C344 0.930 . S
H386 C348 0.929 . S
H387 C350 0.930 . S
H388 C356 0.929 . S
H389 C357 0.930 . S
Li390 N407 1.990 . S
Li390 O450 1.956 . S
Li390 O451 1.970 . S
Li390 O452 1.961 . S
Li391 N415 1.990 . S
Li391 O450 1.970 . S
Li391 O451 1.956 . S
Li391 O453 1.961 . S
Li392 N437 1.990 . S
Li392 O450 1.961 . S
Li392 O452 1.956 . S
Li392 O453 1.970 . S
Li393 N443 1.990 . S
Li393 O451 1.961 . S
Li393 O452 1.970 . S
Li393 O453 1.956 . S
C394 C396 1.348 . S
C394 C397 1.356 . S
C394 O450 1.325 . S
N395 C398 1.314 . S
N395 C399 1.279 . S
C396 C394 1.348 . S
C396 C398 1.353 . S
C396 H454 0.929 . S
C397 C394 1.356 . S
C397 C399 1.358 . S
C397 H455 0.930 . S
C398 N395 1.314 . S
C398 C396 1.353 . S
C398 H456 0.930 . S
C399 N395 1.279 . S
C399 C397 1.358 . S
C399 H457 0.930 . S
C400 C403 1.348 . S
C400 C404 1.356 . S
C400 O451 1.325 . S
C401 N402 1.279 . S
C401 C404 1.358 . S
C401 H458 0.930 . S
N402 C401 1.279 . S
N402 C405 1.314 . S
C403 C400 1.348 . S
C403 C405 1.353 . S
C403 H459 0.929 . S
C404 C400 1.356 . S
C404 C401 1.358 . S
C404 H460 0.930 . S
C405 N402 1.314 . S
C405 C403 1.353 . S
C405 H461 0.930 . S
C406 N407 1.314 . S
C406 C411 1.353 . S
C406 H412 0.930 . S
N407 Li390 1.990 . S
N407 C406 1.314 . S
N407 C409 1.279 . S
C408 C409 1.358 1_554 S
C408 C410 1.356 . S
C408 H462 0.930 . S
C409 N407 1.279 . S
C409 C408 1.358 1_556 S
C409 H413 0.930 . S
C410 C408 1.356 . S
C410 C411 1.348 1_554 S
C411 C406 1.353 . S
C411 C410 1.348 1_556 S
C411 H463 0.929 . S
H412 C406 0.930 . S
H413 C409 0.930 . S
C414 N415 1.314 . S
C414 C416 1.353 . S
C414 H420 0.930 . S
N415 Li391 1.990 . S
N415 C414 1.314 . S
N415 C418 1.279 . S
C416 C414 1.353 . S
C416 C419 1.348 . S
C416 H464 0.929 . S
C417 C418 1.358 . S
C417 C419 1.356 . S
C417 H465 0.930 . S
C418 N415 1.279 . S
C418 C417 1.358 . S
C418 H421 0.930 . S
C419 C416 1.348 . S
C419 C417 1.356 . S
H420 C414 0.930 . S
H421 C418 0.930 . S
C422 C424 1.348 . S
C422 C425 1.356 . S
C422 O452 1.325 . S
N423 C426 1.314 . S
N423 C427 1.279 . S
C424 C422 1.348 . S
C424 C426 1.353 . S
C424 H466 0.929 . S
C425 C422 1.356 . S
C425 C427 1.358 . S
C425 H467 0.930 . S
C426 N423 1.314 . S
C426 C424 1.353 . S
C426 H468 0.930 . S
C427 N423 1.279 . S
C427 C425 1.358 . S
C427 H469 0.930 . S
C428 C429 1.348 . S
C428 C430 1.356 . S
C428 O453 1.325 . S
C429 C428 1.348 . S
C429 C431 1.353 . S
C429 H470 0.929 . S
C430 C428 1.356 . S
C430 C432 1.358 . S
C430 H471 0.930 . S
C431 C429 1.353 . S
C431 N433 1.314 . S
C431 H472 0.930 . S
C432 C430 1.358 . S
C432 N433 1.279 . S
C432 H473 0.930 . S
N433 C431 1.314 . S
N433 C432 1.279 . S
C434 C436 1.353 . S
C434 N437 1.314 . S
C434 H440 0.930 . S
C435 N437 1.279 . S
C435 C438 1.358 . S
C435 H441 0.930 . S
C436 C434 1.353 . S
C436 C439 1.348 . S
C436 H474 0.929 . S
N437 Li392 1.990 . S
N437 C434 1.314 . S
N437 C435 1.279 . S
C438 C435 1.358 . S
C438 C439 1.356 . S
C438 H475 0.930 . S
C439 C436 1.348 . S
C439 C438 1.356 . S
H440 C434 0.930 . S
H441 C435 0.930 . S
C442 N443 1.314 . S
C442 C444 1.353 . S
C442 H448 0.930 . S
N443 Li393 1.990 . S
N443 C442 1.314 . S
N443 C446 1.279 . S
C444 C442 1.353 . S
C444 C447 1.348 . S
C444 H476 0.929 . S
C445 C446 1.358 . S
C445 C447 1.356 . S
C445 H477 0.930 . S
C446 N443 1.279 . S
C446 C445 1.358 . S
C446 H449 0.930 . S
C447 C444 1.348 . S
C447 C445 1.356 . S
H448 C442 0.930 . S
H449 C446 0.930 . S
O450 Li390 1.956 . S
O450 Li391 1.970 . S
O450 Li392 1.961 . S
O450 C394 1.325 . S
O451 Li390 1.970 . S
O451 Li391 1.956 . S
O451 Li393 1.961 . S
O451 C400 1.325 . S
O452 Li390 1.961 . S
O452 Li392 1.956 . S
O452 Li393 1.970 . S
O452 C422 1.325 . S
O453 Li391 1.961 . S
O453 Li392 1.970 . S
O453 Li393 1.956 . S
O453 C428 1.325 . S
H454 C396 0.929 . S
H455 C397 0.930 . S
H456 C398 0.930 . S
H457 C399 0.930 . S
H458 C401 0.930 . S
H459 C403 0.929 . S
H460 C404 0.930 . S
H461 C405 0.930 . S
H462 C408 0.930 . S
H463 C411 0.929 . S
H464 C416 0.929 . S
H465 C417 0.930 . S
H466 C424 0.929 . S
H467 C425 0.930 . S
H468 C426 0.930 . S
H469 C427 0.930 . S
H470 C429 0.929 . S
H471 C430 0.930 . S
H472 C431 0.930 . S
H473 C432 0.930 . S
H474 C436 0.929 . S
H475 C438 0.930 . S
H476 C444 0.929 . S
H477 C445 0.930 . S
Li478 N495 1.990 . S
Li478 O538 1.956 . S
Li478 O539 1.970 . S
Li478 O540 1.961 . S
Li479 N503 1.990 . S
Li479 O538 1.970 . S
Li479 O539 1.956 . S
Li479 O541 1.961 . S
Li480 N525 1.990 . S
Li480 O538 1.961 . S
Li480 O540 1.956 . S
Li480 O541 1.970 . S
Li481 N531 1.990 . S
Li481 O539 1.961 . S
Li481 O540 1.970 . S
Li481 O541 1.956 . S
C482 C484 1.348 . S
C482 C485 1.356 . S
C482 O538 1.325 . S
N483 C486 1.314 . S
N483 C487 1.279 . S
C484 C482 1.348 . S
C484 C486 1.353 . S
C484 H542 0.929 . S
C485 C482 1.356 . S
C485 C487 1.358 . S
C485 H543 0.930 . S
C486 N483 1.314 . S
C486 C484 1.353 . S
C486 H544 0.930 . S
C487 N483 1.279 . S
C487 C485 1.358 . S
C487 H545 0.930 . S
C488 C491 1.348 . S
C488 C492 1.356 . S
C488 O539 1.325 . S
C489 N490 1.279 . S
C489 C492 1.358 . S
C489 H546 0.930 . S
N490 C489 1.279 . S
N490 C493 1.314 . S
C491 C488 1.348 . S
C491 C493 1.353 . S
C491 H547 0.929 . S
C492 C488 1.356 . S
C492 C489 1.358 . S
C492 H548 0.930 . S
C493 N490 1.314 . S
C493 C491 1.353 . S
C493 H549 0.930 . S
C494 N495 1.314 . S
C494 C499 1.353 . S
C494 H500 0.930 . S
N495 Li478 1.990 . S
N495 C494 1.314 . S
N495 C497 1.279 . S
C496 C497 1.358 . S
C496 C498 1.356 . S
C496 H550 0.930 . S
C497 N495 1.279 . S
C497 C496 1.358 . S
C497 H501 0.930 . S
C498 C496 1.356 . S
C498 C499 1.348 . S
C499 C494 1.353 . S
C499 C498 1.348 . S
C499 H551 0.929 . S
H500 C494 0.930 . S
H501 C497 0.930 . S
C502 N503 1.314 . S
C502 C504 1.353 . S
C502 H508 0.930 . S
N503 Li479 1.990 . S
N503 C502 1.314 . S
N503 C506 1.279 . S
C504 C502 1.353 . S
C504 C507 1.348 . S
C504 H552 0.929 . S
C505 C506 1.358 . S
C505 C507 1.356 . S
C505 H553 0.930 . S
C506 N503 1.279 . S
C506 C505 1.358 . S
C506 H509 0.930 . S
C507 C504 1.348 . S
C507 C505 1.356 . S
H508 C502 0.930 . S
H509 C506 0.930 . S
C510 C512 1.348 . S
C510 C513 1.356 . S
C510 O540 1.325 . S
N511 C514 1.314 1_556 S
N511 C515 1.279 1_556 S
C512 C510 1.348 . S
C512 C514 1.353 . S
C512 H554 0.929 . S
C513 C510 1.356 . S
C513 C515 1.358 . S
C513 H555 0.930 . S
C514 N511 1.314 1_554 S
C514 C512 1.353 . S
C514 H556 0.930 1_554 S
C515 N511 1.279 1_554 S
C515 C513 1.358 . S
C515 H557 0.914 1_554 S
C516 C517 1.348 . S
C516 C518 1.356 . S
C516 O541 1.325 . S
C517 C516 1.348 . S
C517 C519 1.353 . S
C517 H558 0.929 . S
C518 C516 1.356 . S
C518 C520 1.358 . S
C518 H559 0.930 . S
C519 C517 1.353 . S
C519 N521 1.314 . S
C519 H560 0.930 . S
C520 C518 1.358 . S
C520 N521 1.279 . S
C520 H561 0.930 . S
N521 C519 1.314 . S
N521 C520 1.279 . S
C522 C524 1.353 . S
C522 N525 1.314 . S
C522 H528 0.930 . S
C523 N525 1.279 . S
C523 C526 1.358 1_554 S
C523 H529 0.930 . S
C524 C522 1.353 . S
C524 C527 1.348 1_554 S
C524 H562 0.929 . S
N525 Li480 1.990 . S
N525 C522 1.314 . S
N525 C523 1.279 . S
C526 C523 1.358 1_556 S
C526 C527 1.356 . S
C526 H563 0.930 . S
C527 C524 1.348 1_556 S
C527 C526 1.356 . S
H528 C522 0.930 . S
H529 C523 0.930 . S
C530 N531 1.314 . S
C530 C532 1.353 . S
C530 H536 0.930 . S
N531 Li481 1.990 . S
N531 C530 1.314 . S
N531 C534 1.279 . S
C532 C530 1.353 . S
C532 C535 1.348 . S
C532 H564 0.929 . S
C533 C534 1.358 . S
C533 C535 1.356 . S
C533 H565 0.930 . S
C534 N531 1.279 . S
C534 C533 1.358 . S
C534 H537 0.930 . S
C535 C532 1.348 . S
C535 C533 1.356 . S
H536 C530 0.930 . S
H537 C534 0.930 . S
O538 Li478 1.956 . S
O538 Li479 1.970 . S
O538 Li480 1.961 . S
O538 C482 1.325 . S
O539 Li478 1.970 . S
O539 Li479 1.956 . S
O539 Li481 1.961 . S
O539 C488 1.325 . S
O540 Li478 1.961 . S
O540 Li480 1.956 . S
O540 Li481 1.970 . S
O540 C510 1.325 . S
O541 Li479 1.961 . S
O541 Li480 1.970 . S
O541 Li481 1.956 . S
O541 C516 1.325 . S
H542 C484 0.929 . S
H543 C485 0.930 . S
H544 C486 0.930 . S
H545 C487 0.930 . S
H546 C489 0.930 . S
H547 C491 0.929 . S
H548 C492 0.930 . S
H549 C493 0.930 . S
H550 C496 0.930 . S
H551 C499 0.929 . S
H552 C504 0.929 . S
H553 C505 0.930 . S
H554 C512 0.929 . S
H555 C513 0.930 . S
H556 C514 0.930 1_556 S
H557 C515 0.914 1_556 S
H558 C517 0.929 . S
H559 C518 0.930 . S
H560 C519 0.930 . S
H561 C520 0.930 . S
H562 C524 0.929 . S
H563 C526 0.930 . S
H564 C532 0.929 . S
H565 C533 0.930 . S
Li566 N583 1.990 . S
Li566 O626 1.956 . S
Li566 O627 1.970 . S
Li566 O628 1.961 . S
Li567 N591 1.990 . S
Li567 O626 1.970 . S
Li567 O627 1.956 . S
Li567 O629 1.961 . S
Li568 N613 1.990 . S
Li568 O626 1.961 . S
Li568 O628 1.956 . S
Li568 O629 1.970 . S
Li569 N619 1.990 . S
Li569 O627 1.961 . S
Li569 O628 1.970 . S
Li569 O629 1.956 . S
C570 C572 1.348 . S
C570 C573 1.356 . S
C570 O626 1.325 . S
N571 C574 1.314 . S
N571 C575 1.279 . S
C572 C570 1.348 . S
C572 C574 1.353 . S
C572 H630 0.929 . S
C573 C570 1.356 . S
C573 C575 1.358 . S
C573 H631 0.930 . S
C574 N571 1.314 . S
C574 C572 1.353 . S
C574 H632 0.930 . S
C575 N571 1.279 . S
C575 C573 1.358 . S
C575 H633 0.930 . S
C576 C579 1.348 . S
C576 C580 1.356 . S
C576 O627 1.325 . S
C577 N578 1.279 . S
C577 C580 1.358 . S
C577 H634 0.930 . S
N578 C577 1.279 . S
N578 C581 1.314 . S
C579 C576 1.348 . S
C579 C581 1.353 . S
C579 H635 0.929 . S
C580 C576 1.356 . S
C580 C577 1.358 . S
C580 H636 0.930 . S
C581 N578 1.314 . S
C581 C579 1.353 . S
C581 H637 0.930 . S
C582 N583 1.314 . S
C582 C587 1.353 . S
C582 H588 0.930 . S
N583 Li566 1.990 . S
N583 C582 1.314 . S
N583 C585 1.279 . S
C584 C585 1.358 . S
C584 C586 1.356 . S
C584 H638 0.930 . S
C585 N583 1.279 . S
C585 C584 1.358 . S
C585 H589 0.930 . S
C586 C584 1.356 . S
C586 C587 1.348 . S
C587 C582 1.353 . S
C587 C586 1.348 . S
C587 H639 0.929 . S
H588 C582 0.930 . S
H589 C585 0.930 . S
C590 N591 1.314 . S
C590 C592 1.353 . S
C590 H596 0.930 . S
N591 Li567 1.990 . S
N591 C590 1.314 . S
N591 C594 1.279 . S
C592 C590 1.353 . S
C592 C595 1.348 . S
C592 H640 0.929 . S
C593 C594 1.358 . S
C593 C595 1.356 . S
C593 H641 0.930 . S
C594 N591 1.279 . S
C594 C593 1.358 . S
C594 H597 0.930 . S
C595 C592 1.348 . S
C595 C593 1.356 . S
H596 C590 0.930 . S
H597 C594 0.930 . S
C598 C600 1.348 . S
C598 C601 1.356 . S
C598 O628 1.325 . S
N599 C602 1.314 . S
N599 C603 1.279 . S
C600 C598 1.348 . S
C600 C602 1.353 . S
C600 H642 0.929 . S
C601 C598 1.356 . S
C601 C603 1.358 . S
C601 H643 0.930 . S
C602 N599 1.314 . S
C602 C600 1.353 . S
C602 H644 0.930 . S
C603 N599 1.279 . S
C603 C601 1.358 . S
C603 H645 0.930 . S
C604 C605 1.348 . S
C604 C606 1.356 . S
C604 O629 1.325 . S
C605 C604 1.348 . S
C605 C607 1.353 . S
C605 H646 0.929 . S
C606 C604 1.356 . S
C606 C608 1.358 . S
C606 H647 0.930 . S
C607 C605 1.353 . S
C607 N609 1.314 . S
C607 H648 0.930 . S
C608 C606 1.358 . S
C608 N609 1.279 . S
C608 H649 0.930 . S
N609 C607 1.314 . S
N609 C608 1.279 . S
C610 C612 1.353 . S
C610 N613 1.314 . S
C610 H616 0.930 . S
C611 N613 1.279 . S
C611 C614 1.358 . S
C611 H617 0.930 . S
C612 C610 1.353 . S
C612 C615 1.348 . S
C612 H650 0.929 . S
N613 Li568 1.990 . S
N613 C610 1.314 . S
N613 C611 1.279 . S
C614 C611 1.358 . S
C614 C615 1.356 . S
C614 H651 0.930 . S
C615 C612 1.348 . S
C615 C614 1.356 . S
H616 C610 0.930 . S
H617 C611 0.930 . S
C618 N619 1.314 . S
C618 C620 1.353 . S
C618 H624 0.930 . S
N619 Li569 1.990 . S
N619 C618 1.314 . S
N619 C622 1.279 . S
C620 C618 1.353 . S
C620 C623 1.348 . S
C620 H652 0.929 . S
C621 C622 1.358 . S
C621 C623 1.356 . S
C621 H653 0.930 . S
C622 N619 1.279 . S
C622 C621 1.358 . S
C622 H625 0.930 . S
C623 C620 1.348 . S
C623 C621 1.356 . S
H624 C618 0.930 . S
H625 C622 0.930 . S
O626 Li566 1.956 . S
O626 Li567 1.970 . S
O626 Li568 1.961 . S
O626 C570 1.325 . S
O627 Li566 1.970 . S
O627 Li567 1.956 . S
O627 Li569 1.961 . S
O627 C576 1.325 . S
O628 Li566 1.961 . S
O628 Li568 1.956 . S
O628 Li569 1.970 . S
O628 C598 1.325 . S
O629 Li567 1.961 . S
O629 Li568 1.970 . S
O629 Li569 1.956 . S
O629 C604 1.325 . S
H630 C572 0.929 . S
H631 C573 0.930 . S
H632 C574 0.930 . S
H633 C575 0.930 . S
H634 C577 0.930 . S
H635 C579 0.929 . S
H636 C580 0.930 . S
H637 C581 0.930 . S
H638 C584 0.930 . S
H639 C587 0.929 . S
H640 C592 0.929 . S
H641 C593 0.930 . S
H642 C600 0.929 . S
H643 C601 0.930 . S
H644 C602 0.930 . S
H645 C603 0.930 . S
H646 C605 0.929 . S
H647 C606 0.930 . S
H648 C607 0.930 . S
H649 C608 0.930 . S
H650 C612 0.929 . S
H651 C614 0.930 . S
H652 C620 0.929 . S
H653 C621 0.930 . S
H654 C666 0.930 . S
H655 C668 0.930 . S
H656 C669 0.930 . S
H657 C673 0.959 . S
H658 C673 0.959 . S
H659 C673 0.961 . S
H660 C674 0.960 . S
H661 C674 0.961 . S
H662 C674 0.959 . S
H663 C677 0.929 . S
H664 C678 0.931 . S
H665 C680 0.930 . S
C666 H654 0.930 . S
C666 C667 1.399 . S
C666 C671 1.399 . S
C667 C666 1.399 . S
C667 C668 1.376 . S
C668 H655 0.930 . S
C668 C667 1.376 . S
C668 C669 1.388 . S
C669 H656 0.930 . S
C669 C668 1.388 . S
C669 C670 1.390 . S
C670 C669 1.390 . S
C670 C671 1.394 . S
C670 C676 1.465 . S
C671 C666 1.399 . S
C671 C670 1.394 . S
C671 C672 1.516 . S
C672 C671 1.516 . S
C672 C673 1.502 . S
C672 C674 1.561 . S
C672 C675 1.526 . S
C673 H657 0.959 . S
C673 H658 0.959 . S
C673 H659 0.961 . S
C673 C672 1.502 . S
C674 H660 0.960 . S
C674 H661 0.961 . S
C674 H662 0.959 . S
C674 C672 1.561 . S
C675 C672 1.526 . S
C675 C676 1.396 . S
C675 C680 1.390 . S
C676 C670 1.465 . S
C676 C675 1.396 . S
C676 C677 1.399 . S
C677 H663 0.929 . S
C677 C676 1.399 . S
C677 C678 1.385 . S
C678 H664 0.931 . S
C678 C677 1.385 . S
C678 C679 1.389 . S
C679 C678 1.389 . S
C679 C680 1.387 . S
C680 H665 0.930 . S
C680 C675 1.390 . S
C680 C679 1.387 . S
H681 C693 0.930 . S
H682 C695 0.930 . S
H683 C696 0.930 . S
H684 C700 0.959 . S
H685 C700 0.959 . S
H686 C700 0.961 . S
H687 C701 0.960 . S
H688 C701 0.961 . S
H689 C701 0.959 . S
H690 C704 0.929 . S
H691 C705 0.931 . S
H692 C707 0.930 . S
C693 H681 0.930 . S
C693 C694 1.399 . S
C693 C698 1.399 . S
C694 C693 1.399 . S
C694 C695 1.376 . S
C695 H682 0.930 . S
C695 C694 1.376 . S
C695 C696 1.388 . S
C696 H683 0.930 . S
C696 C695 1.388 . S
C696 C697 1.390 . S
C697 C696 1.390 . S
C697 C698 1.394 . S
C697 C703 1.465 . S
C698 C693 1.399 . S
C698 C697 1.394 . S
C698 C699 1.516 . S
C699 C698 1.516 . S
C699 C700 1.502 . S
C699 C701 1.561 . S
C699 C702 1.526 . S
C700 H684 0.959 . S
C700 H685 0.959 . S
C700 H686 0.961 . S
C700 C699 1.502 . S
C701 H687 0.960 . S
C701 H688 0.961 . S
C701 H689 0.959 . S
C701 C699 1.561 . S
C702 C699 1.526 . S
C702 C703 1.396 . S
C702 C707 1.390 . S
C703 C697 1.465 . S
C703 C702 1.396 . S
C703 C704 1.399 . S
C704 H690 0.929 . S
C704 C703 1.399 . S
C704 C705 1.385 . S
C705 H691 0.931 . S
C705 C704 1.385 . S
C705 C706 1.389 . S
C706 C705 1.389 . S
C706 C707 1.387 . S
C707 H692 0.930 . S
C707 C702 1.390 . S
C707 C706 1.387 . S
H708 C720 0.930 . S
H709 C722 0.930 . S
H710 C723 0.930 . S
H711 C727 0.959 . S
H712 C727 0.959 . S
H713 C727 0.961 . S
H714 C728 0.960 . S
H715 C728 0.961 . S
H716 C728 0.959 . S
H717 C731 0.929 . S
H718 C732 0.931 . S
H719 C734 0.930 . S
C720 H708 0.930 . S
C720 C721 1.399 . S
C720 C725 1.399 . S
C721 C720 1.399 . S
C721 C722 1.376 . S
C722 H709 0.930 . S
C722 C721 1.376 . S
C722 C723 1.388 . S
C723 H710 0.930 . S
C723 C722 1.388 . S
C723 C724 1.390 . S
C724 C723 1.390 . S
C724 C725 1.394 . S
C724 C730 1.465 . S
C725 C720 1.399 . S
C725 C724 1.394 . S
C725 C726 1.516 . S
C726 C725 1.516 . S
C726 C727 1.502 . S
C726 C728 1.561 . S
C726 C729 1.526 . S
C727 H711 0.959 . S
C727 H712 0.959 . S
C727 H713 0.961 . S
C727 C726 1.502 . S
C728 H714 0.960 . S
C728 H715 0.961 . S
C728 H716 0.959 . S
C728 C726 1.561 . S
C729 C726 1.526 . S
C729 C730 1.396 . S
C729 C734 1.390 . S
C730 C724 1.465 . S
C730 C729 1.396 . S
C730 C731 1.399 . S
C731 H717 0.929 . S
C731 C730 1.399 . S
C731 C732 1.385 . S
C732 H718 0.931 . S
C732 C731 1.385 . S
C732 C733 1.389 . S
C733 C732 1.389 . S
C733 C734 1.387 . S
C734 H719 0.930 . S
C734 C729 1.390 . S
C734 C733 1.387 . S
H735 C747 0.930 . S
H736 C749 0.930 . S
H737 C750 0.930 . S
H738 C754 0.959 . S
H739 C754 0.959 . S
H740 C754 0.961 . S
H741 C755 0.960 . S
H742 C755 0.961 . S
H743 C755 0.959 . S
H744 C758 0.929 . S
H745 C759 0.931 . S
H746 C761 0.930 . S
C747 H735 0.930 . S
C747 C748 1.399 . S
C747 C752 1.399 . S
C748 C747 1.399 . S
C748 C749 1.376 . S
C749 H736 0.930 . S
C749 C748 1.376 . S
C749 C750 1.388 . S
C750 H737 0.930 . S
C750 C749 1.388 . S
C750 C751 1.390 . S
C751 C750 1.390 . S
C751 C752 1.394 . S
C751 C757 1.465 . S
C752 C747 1.399 . S
C752 C751 1.394 . S
C752 C753 1.516 . S
C753 C752 1.516 . S
C753 C754 1.502 . S
C753 C755 1.561 . S
C753 C756 1.526 . S
C754 H738 0.959 . S
C754 H739 0.959 . S
C754 H740 0.961 . S
C754 C753 1.502 . S
C755 H741 0.960 . S
C755 H742 0.961 . S
C755 H743 0.959 . S
C755 C753 1.561 . S
C756 C753 1.526 . S
C756 C757 1.396 . S
C756 C761 1.390 . S
C757 C751 1.465 . S
C757 C756 1.396 . S
C757 C758 1.399 . S
C758 H744 0.929 . S
C758 C757 1.399 . S
C758 C759 1.385 . S
C759 H745 0.931 . S
C759 C758 1.385 . S
C759 C760 1.389 . S
C760 C759 1.389 . S
C760 C761 1.387 . S
C761 H746 0.930 . S
C761 C756 1.390 . S
C761 C760 1.387 . S
H762 C774 0.930 1_554 S
H763 C776 0.930 . S
H764 C777 0.930 . S
H765 C781 0.959 1_556 S
H766 C781 0.959 . S
H767 C781 0.961 . S
H768 C782 0.960 1_554 S
H769 C782 0.961 . S
H770 C782 0.959 . S
H771 C785 0.929 . S
H772 C786 0.931 . S
H773 C788 0.930 . S
C774 H762 0.930 1_556 S
C774 C775 1.399 . S
C774 C779 1.399 . S
C775 C774 1.399 . S
C775 C776 1.376 . S
C776 H763 0.930 . S
C776 C775 1.376 . S
C776 C777 1.388 . S
C777 H764 0.930 . S
C777 C776 1.388 . S
C777 C778 1.390 . S
C778 C777 1.390 . S
C778 C779 1.394 . S
C778 C784 1.465 . S
C779 C774 1.399 . S
C779 C778 1.394 . S
C779 C780 1.516 . S
C780 C779 1.516 . S
C780 C781 1.502 1_556 S
C780 C782 1.561 . S
C780 C783 1.526 . S
C781 H765 0.959 1_554 S
C781 H766 0.959 . S
C781 H767 0.961 . S
C781 C780 1.502 1_554 S
C782 H768 0.960 1_556 S
C782 H769 0.961 . S
C782 H770 0.959 . S
C782 C780 1.561 . S
C783 C780 1.526 . S
C783 C784 1.396 . S
C783 C788 1.390 . S
C784 C778 1.465 . S
C784 C783 1.396 . S
C784 C785 1.399 . S
C785 H771 0.929 . S
C785 C784 1.399 . S
C785 C786 1.385 . S
C786 H772 0.931 . S
C786 C785 1.385 . S
C786 C787 1.389 . S
C787 C786 1.389 . S
C787 C788 1.387 . S
C788 H773 0.930 . S
C788 C783 1.390 . S
C788 C787 1.387 . S
H789 C801 0.930 . S
H790 C803 0.930 . S
H791 C804 0.930 . S
H792 C808 0.959 . S
H793 C808 0.959 . S
H794 C808 0.961 . S
H795 C809 0.960 . S
H796 C809 0.961 . S
H797 C809 0.959 . S
H798 C812 0.929 . S
H799 C813 0.931 . S
H800 C815 0.930 . S
C801 H789 0.930 . S
C801 C802 1.399 . S
C801 C806 1.399 . S
C802 C801 1.399 . S
C802 C803 1.376 . S
C803 H790 0.930 . S
C803 C802 1.376 . S
C803 C804 1.388 . S
C804 H791 0.930 . S
C804 C803 1.388 . S
C804 C805 1.390 . S
C805 C804 1.390 . S
C805 C806 1.394 . S
C805 C811 1.465 . S
C806 C801 1.399 . S
C806 C805 1.394 . S
C806 C807 1.516 . S
C807 C806 1.516 . S
C807 C808 1.502 . S
C807 C809 1.561 . S
C807 C810 1.526 . S
C808 H792 0.959 . S
C808 H793 0.959 . S
C808 H794 0.961 . S
C808 C807 1.502 . S
C809 H795 0.960 . S
C809 H796 0.961 . S
C809 H797 0.959 . S
C809 C807 1.561 . S
C810 C807 1.526 . S
C810 C811 1.396 . S
C810 C815 1.390 . S
C811 C805 1.465 . S
C811 C810 1.396 . S
C811 C812 1.399 . S
C812 H798 0.929 . S
C812 C811 1.399 . S
C812 C813 1.385 . S
C813 H799 0.931 . S
C813 C812 1.385 . S
C813 C814 1.389 . S
C814 C813 1.389 . S
C814 C815 1.387 . S
C815 H800 0.930 . S
C815 C810 1.390 . S
C815 C814 1.387 . S
H816 C828 0.930 . S
H817 C830 0.930 . S
H818 C831 0.930 . S
H819 C835 0.959 . S
H820 C835 0.959 . S
H821 C835 0.961 . S
H822 C836 0.960 . S
H823 C836 0.961 . S
H824 C836 0.959 . S
H825 C839 0.929 . S
H826 C840 0.931 . S
H827 C842 0.930 . S
C828 H816 0.930 . S
C828 C829 1.399 . S
C828 C833 1.399 . S
C829 C828 1.399 . S
C829 C830 1.376 . S
C830 H817 0.930 . S
C830 C829 1.376 . S
C830 C831 1.388 . S
C831 H818 0.930 . S
C831 C830 1.388 . S
C831 C832 1.390 . S
C832 C831 1.390 . S
C832 C833 1.394 . S
C832 C838 1.465 . S
C833 C828 1.399 . S
C833 C832 1.394 . S
C833 C834 1.516 . S
C834 C833 1.516 . S
C834 C835 1.502 . S
C834 C836 1.561 . S
C834 C837 1.526 . S
C835 H819 0.959 . S
C835 H820 0.959 . S
C835 H821 0.961 . S
C835 C834 1.502 . S
C836 H822 0.960 . S
C836 H823 0.961 . S
C836 H824 0.959 . S
C836 C834 1.561 . S
C837 C834 1.526 . S
C837 C838 1.396 . S
C837 C842 1.390 . S
C838 C832 1.465 . S
C838 C837 1.396 . S
C838 C839 1.399 . S
C839 H825 0.929 . S
C839 C838 1.399 . S
C839 C840 1.385 . S
C840 H826 0.931 . S
C840 C839 1.385 . S
C840 C841 1.389 . S
C841 C840 1.389 . S
C841 C842 1.387 . S
C842 H827 0.930 . S
C842 C837 1.390 . S
C842 C841 1.387 . S
H843 C855 0.930 . S
H844 C857 0.930 . S
H845 C858 0.930 . S
H846 C862 0.959 . S
H847 C862 0.959 . S
H848 C862 0.961 . S
H849 C863 0.960 . S
H850 C863 0.961 . S
H851 C863 0.959 . S
H852 C866 0.929 . S
H853 C867 0.931 . S
H854 C869 0.930 . S
C855 H843 0.930 . S
C855 C856 1.399 . S
C855 C860 1.399 . S
C856 C855 1.399 . S
C856 C857 1.376 . S
C857 H844 0.930 . S
C857 C856 1.376 . S
C857 C858 1.388 . S
C858 H845 0.930 . S
C858 C857 1.388 . S
C858 C859 1.390 . S
C859 C858 1.390 . S
C859 C860 1.394 . S
C859 C865 1.465 . S
C860 C855 1.399 . S
C860 C859 1.394 . S
C860 C861 1.516 . S
C861 C860 1.516 . S
C861 C862 1.502 . S
C861 C863 1.561 . S
C861 C864 1.526 . S
C862 H846 0.959 . S
C862 H847 0.959 . S
C862 H848 0.961 . S
C862 C861 1.502 . S
C863 H849 0.960 . S
C863 H850 0.961 . S
C863 H851 0.959 . S
C863 C861 1.561 . S
C864 C861 1.526 . S
C864 C865 1.396 . S
C864 C869 1.390 . S
C865 C859 1.465 . S
C865 C864 1.396 . S
C865 C866 1.399 . S
C866 H852 0.929 . S
C866 C865 1.399 . S
C866 C867 1.385 . S
C867 H853 0.931 . S
C867 C866 1.385 . S
C867 C868 1.389 . S
C868 C867 1.389 . S
C868 C869 1.387 . S
C869 H854 0.930 . S
C869 C864 1.390 . S
C869 C868 1.387 . S
H870 C882 0.930 . S
H871 C884 0.930 . S
H872 C885 0.930 . S
H873 C889 0.959 . S
H874 C889 0.959 . S
H875 C889 0.961 . S
H876 C890 0.960 . S
H877 C890 0.961 . S
H878 C890 0.959 . S
H879 C893 0.929 . S
H880 C894 0.931 . S
H881 C896 0.930 . S
C882 H870 0.930 . S
C882 C883 1.399 . S
C882 C887 1.399 . S
C883 C882 1.399 . S
C883 C884 1.376 . S
C884 H871 0.930 . S
C884 C883 1.376 . S
C884 C885 1.388 . S
C885 H872 0.930 . S
C885 C884 1.388 . S
C885 C886 1.390 . S
C886 C885 1.390 . S
C886 C887 1.394 . S
C886 C892 1.465 . S
C887 C882 1.399 . S
C887 C886 1.394 . S
C887 C888 1.516 . S
C888 C887 1.516 . S
C888 C889 1.502 . S
C888 C890 1.561 . S
C888 C891 1.526 . S
C889 H873 0.959 . S
C889 H874 0.959 . S
C889 H875 0.961 . S
C889 C888 1.502 . S
C890 H876 0.960 . S
C890 H877 0.961 . S
C890 H878 0.959 . S
C890 C888 1.561 . S
C891 C888 1.526 . S
C891 C892 1.396 . S
C891 C896 1.390 . S
C892 C886 1.465 . S
C892 C891 1.396 . S
C892 C893 1.399 . S
C893 H879 0.929 . S
C893 C892 1.399 . S
C893 C894 1.385 . S
C894 H880 0.931 . S
C894 C893 1.385 . S
C894 C895 1.389 . S
C895 C894 1.389 . S
C895 C896 1.387 . S
C896 H881 0.930 . S
C896 C891 1.390 . S
C896 C895 1.387 . S
H897 C909 0.930 . S
H898 C911 0.930 . S
H899 C912 0.930 . S
H900 C916 0.959 . S
H901 C916 0.959 . S
H902 C916 0.961 . S
H903 C917 0.960 . S
H904 C917 0.961 . S
H905 C917 0.959 . S
H906 C920 0.929 . S
H907 C921 0.931 . S
H908 C923 0.930 . S
C909 H897 0.930 . S
C909 C910 1.399 . S
C909 C914 1.399 . S
C910 C909 1.399 . S
C910 C911 1.376 . S
C911 H898 0.930 . S
C911 C910 1.376 . S
C911 C912 1.388 . S
C912 H899 0.930 . S
C912 C911 1.388 . S
C912 C913 1.390 . S
C913 C912 1.390 . S
C913 C914 1.394 . S
C913 C919 1.465 . S
C914 C909 1.399 . S
C914 C913 1.394 . S
C914 C915 1.516 . S
C915 C914 1.516 . S
C915 C916 1.502 . S
C915 C917 1.561 . S
C915 C918 1.526 . S
C916 H900 0.959 . S
C916 H901 0.959 . S
C916 H902 0.961 . S
C916 C915 1.502 . S
C917 H903 0.960 . S
C917 H904 0.961 . S
C917 H905 0.959 . S
C917 C915 1.561 . S
C918 C915 1.526 . S
C918 C919 1.396 . S
C918 C923 1.390 . S
C919 C913 1.465 . S
C919 C918 1.396 . S
C919 C920 1.399 . S
C920 H906 0.929 . S
C920 C919 1.399 . S
C920 C921 1.385 . S
C921 H907 0.931 . S
C921 C920 1.385 . S
C921 C922 1.389 . S
C922 C921 1.389 . S
C922 C923 1.387 . S
C923 H908 0.930 . S
C923 C918 1.390 . S
C923 C922 1.387 . S
H924 C936 0.930 . S
H925 C938 0.930 . S
H926 C939 0.930 . S
H927 C943 0.959 . S
H928 C943 0.959 . S
H929 C943 0.961 . S
H930 C944 0.960 . S
H931 C944 0.961 . S
H932 C944 0.959 . S
H933 C947 0.929 . S
H934 C948 0.931 . S
H935 C950 0.930 . S
C936 H924 0.930 . S
C936 C937 1.399 . S
C936 C941 1.399 . S
C937 C936 1.399 . S
C937 C938 1.376 . S
C938 H925 0.930 . S
C938 C937 1.376 . S
C938 C939 1.388 . S
C939 H926 0.930 . S
C939 C938 1.388 . S
C939 C940 1.390 . S
C940 C939 1.390 . S
C940 C941 1.394 . S
C940 C946 1.465 . S
C941 C936 1.399 . S
C941 C940 1.394 . S
C941 C942 1.516 . S
C942 C941 1.516 . S
C942 C943 1.502 . S
C942 C944 1.561 . S
C942 C945 1.526 . S
C943 H927 0.959 . S
C943 H928 0.959 . S
C943 H929 0.961 . S
C943 C942 1.502 . S
C944 H930 0.960 . S
C944 H931 0.961 . S
C944 H932 0.959 . S
C944 C942 1.561 . S
C945 C942 1.526 . S
C945 C946 1.396 . S
C945 C950 1.390 . S
C946 C940 1.465 . S
C946 C945 1.396 . S
C946 C947 1.399 . S
C947 H933 0.929 . S
C947 C946 1.399 . S
C947 C948 1.385 . S
C948 H934 0.931 . S
C948 C947 1.385 . S
C948 C949 1.389 . S
C949 C948 1.389 . S
C949 C950 1.387 . S
C950 H935 0.930 . S
C950 C945 1.390 . S
C950 C949 1.387 . S
H951 C963 0.930 . S
H952 C965 0.930 . S
H953 C966 0.930 . S
H954 C970 0.959 . S
H955 C970 0.959 . S
H956 C970 0.961 . S
H957 C971 0.960 . S
H958 C971 0.961 . S
H959 C971 0.959 . S
H960 C974 0.929 . S
H961 C975 0.931 . S
H962 C977 0.930 . S
C963 H951 0.930 . S
C963 C964 1.399 . S
C963 C968 1.399 . S
C964 C963 1.399 . S
C964 C965 1.376 . S
C965 H952 0.930 . S
C965 C964 1.376 . S
C965 C966 1.388 . S
C966 H953 0.930 . S
C966 C965 1.388 . S
C966 C967 1.390 . S
C967 C966 1.390 . S
C967 C968 1.394 . S
C967 C973 1.465 . S
C968 C963 1.399 . S
C968 C967 1.394 . S
C968 C969 1.516 . S
C969 C968 1.516 . S
C969 C970 1.502 . S
C969 C971 1.561 . S
C969 C972 1.526 . S
C970 H954 0.959 . S
C970 H955 0.959 . S
C970 H956 0.961 . S
C970 C969 1.502 . S
C971 H957 0.960 . S
C971 H958 0.961 . S
C971 H959 0.959 . S
C971 C969 1.561 . S
C972 C969 1.526 . S
C972 C973 1.396 . S
C972 C977 1.390 . S
C973 C967 1.465 . S
C973 C972 1.396 . S
C973 C974 1.399 . S
C974 H960 0.929 . S
C974 C973 1.399 . S
C974 C975 1.385 . S
C975 H961 0.931 . S
C975 C974 1.385 . S
C975 C976 1.389 . S
C976 C975 1.389 . S
C976 C977 1.387 . S
C977 H962 0.930 . S
C977 C972 1.390 . S
C977 C976 1.387 . S
H978 C990 0.930 . S
H979 C992 0.930 . S
H980 C993 0.930 . S
H981 C997 0.959 . S
H982 C997 0.959 . S
H983 C997 0.961 . S
H984 C998 0.960 . S
H985 C998 0.961 . S
H986 C998 0.959 . S
H987 C1001 0.929 . S
H988 C1002 0.931 . S
H989 C1004 0.930 . S
C990 H978 0.930 . S
C990 C991 1.399 . S
C990 C995 1.399 . S
C991 C990 1.399 . S
C991 C992 1.376 . S
C992 H979 0.930 . S
C992 C991 1.376 . S
C992 C993 1.388 . S
C993 H980 0.930 . S
C993 C992 1.388 . S
C993 C994 1.390 . S
C994 C993 1.390 . S
C994 C995 1.394 . S
C994 C1000 1.465 . S
C995 C990 1.399 . S
C995 C994 1.394 . S
C995 C996 1.516 . S
C996 C995 1.516 . S
C996 C997 1.502 . S
C996 C998 1.561 . S
C996 C999 1.526 . S
C997 H981 0.959 . S
C997 H982 0.959 . S
C997 H983 0.961 . S
C997 C996 1.502 . S
C998 H984 0.960 . S
C998 H985 0.961 . S
C998 H986 0.959 . S
C998 C996 1.561 . S
C999 C996 1.526 . S
C999 C1000 1.396 . S
C999 C1004 1.390 . S
C1000 C994 1.465 . S
C1000 C999 1.396 . S
C1000 C1001 1.399 . S
C1001 H987 0.929 . S
C1001 C1000 1.399 . S
C1001 C1002 1.385 . S
C1002 H988 0.931 . S
C1002 C1001 1.385 . S
C1002 C1003 1.389 . S
C1003 C1002 1.389 . S
C1003 C1004 1.387 . S
C1004 H989 0.930 . S
C1004 C999 1.390 . S
C1004 C1003 1.387 . S
H1005 C1017 0.930 . S
H1006 C1019 0.930 . S
H1007 C1020 0.930 . S
H1008 C1024 0.959 . S
H1009 C1024 0.959 . S
H1010 C1024 0.961 . S
H1011 C1025 0.960 . S
H1012 C1025 0.961 . S
H1013 C1025 0.959 . S
H1014 C1028 0.929 . S
H1015 C1029 0.931 . S
H1016 C1031 0.930 . S
C1017 H1005 0.930 . S
C1017 C1018 1.399 . S
C1017 C1022 1.399 . S
C1018 C1017 1.399 . S
C1018 C1019 1.376 . S
C1019 H1006 0.930 . S
C1019 C1018 1.376 . S
C1019 C1020 1.388 . S
C1020 H1007 0.930 . S
C1020 C1019 1.388 . S
C1020 C1021 1.390 . S
C1021 C1020 1.390 . S
C1021 C1022 1.394 . S
C1021 C1027 1.465 . S
C1022 C1017 1.399 . S
C1022 C1021 1.394 . S
C1022 C1023 1.516 . S
C1023 C1022 1.516 . S
C1023 C1024 1.502 . S
C1023 C1025 1.561 . S
C1023 C1026 1.526 . S
C1024 H1008 0.959 . S
C1024 H1009 0.959 . S
C1024 H1010 0.961 . S
C1024 C1023 1.502 . S
C1025 H1011 0.960 . S
C1025 H1012 0.961 . S
C1025 H1013 0.959 . S
C1025 C1023 1.561 . S
C1026 C1023 1.526 . S
C1026 C1027 1.396 . S
C1026 C1031 1.390 . S
C1027 C1021 1.465 . S
C1027 C1026 1.396 . S
C1027 C1028 1.399 . S
C1028 H1014 0.929 . S
C1028 C1027 1.399 . S
C1028 C1029 1.385 . S
C1029 H1015 0.931 . S
C1029 C1028 1.385 . S
C1029 C1030 1.389 . S
C1030 C1029 1.389 . S
C1030 C1031 1.387 . S
C1031 H1016 0.930 . S
C1031 C1026 1.390 . S
C1031 C1030 1.387 . S
H1032 C1044 0.930 . S
H1033 C1046 0.930 . S
H1034 C1047 0.930 . S
H1035 C1051 0.959 . S
H1036 C1051 0.959 . S
H1037 C1051 0.961 . S
H1038 C1052 0.960 . S
H1039 C1052 0.961 . S
H1040 C1052 0.959 . S
H1041 C1055 0.929 . S
H1042 C1056 0.931 . S
H1043 C1058 0.930 . S
C1044 H1032 0.930 . S
C1044 C1045 1.399 . S
C1044 C1049 1.399 . S
C1045 C1044 1.399 . S
C1045 C1046 1.376 . S
C1046 H1033 0.930 . S
C1046 C1045 1.376 . S
C1046 C1047 1.388 . S
C1047 H1034 0.930 . S
C1047 C1046 1.388 . S
C1047 C1048 1.390 . S
C1048 C1047 1.390 . S
C1048 C1049 1.394 . S
C1048 C1054 1.465 . S
C1049 C1044 1.399 . S
C1049 C1048 1.394 . S
C1049 C1050 1.516 . S
C1050 C1049 1.516 . S
C1050 C1051 1.502 . S
C1050 C1052 1.561 . S
C1050 C1053 1.526 . S
C1051 H1035 0.959 . S
C1051 H1036 0.959 . S
C1051 H1037 0.961 . S
C1051 C1050 1.502 . S
C1052 H1038 0.960 . S
C1052 H1039 0.961 . S
C1052 H1040 0.959 . S
C1052 C1050 1.561 . S
C1053 C1050 1.526 . S
C1053 C1054 1.396 . S
C1053 C1058 1.390 . S
C1054 C1048 1.465 . S
C1054 C1053 1.396 . S
C1054 C1055 1.399 . S
C1055 H1041 0.929 . S
C1055 C1054 1.399 . S
C1055 C1056 1.385 . S
C1056 H1042 0.931 . S
C1056 C1055 1.385 . S
C1056 C1057 1.389 . S
C1057 C1056 1.389 . S
C1057 C1058 1.387 . S
C1058 H1043 0.930 . S
C1058 C1053 1.390 . S
C1058 C1057 1.387 . S
H1059 C1071 0.930 . S
H1060 C1073 0.930 . S
H1061 C1074 0.930 . S
H1062 C1078 0.959 . S
H1063 C1078 0.959 . S
H1064 C1078 0.961 . S
H1065 C1079 0.960 . S
H1066 C1079 0.961 . S
H1067 C1079 0.959 . S
H1068 C1082 0.929 . S
H1069 C1083 0.931 . S
H1070 C1085 0.930 . S
C1071 H1059 0.930 . S
C1071 C1072 1.399 . S
C1071 C1076 1.399 . S
C1072 C1071 1.399 . S
C1072 C1073 1.376 . S
C1073 H1060 0.930 . S
C1073 C1072 1.376 . S
C1073 C1074 1.388 . S
C1074 H1061 0.930 . S
C1074 C1073 1.388 . S
C1074 C1075 1.390 . S
C1075 C1074 1.390 . S
C1075 C1076 1.394 . S
C1075 C1081 1.465 . S
C1076 C1071 1.399 . S
C1076 C1075 1.394 . S
C1076 C1077 1.516 . S
C1077 C1076 1.516 . S
C1077 C1078 1.502 . S
C1077 C1079 1.561 . S
C1077 C1080 1.526 . S
C1078 H1062 0.959 . S
C1078 H1063 0.959 . S
C1078 H1064 0.961 . S
C1078 C1077 1.502 . S
C1079 H1065 0.960 . S
C1079 H1066 0.961 . S
C1079 H1067 0.959 . S
C1079 C1077 1.561 . S
C1080 C1077 1.526 . S
C1080 C1081 1.396 . S
C1080 C1085 1.390 . S
C1081 C1075 1.465 . S
C1081 C1080 1.396 . S
C1081 C1082 1.399 . S
C1082 H1068 0.929 . S
C1082 C1081 1.399 . S
C1082 C1083 1.385 . S
C1083 H1069 0.931 . S
C1083 C1082 1.385 . S
C1083 C1084 1.389 . S
C1084 C1083 1.389 . S
C1084 C1085 1.387 . S
C1085 H1070 0.930 . S
C1085 C1080 1.390 . S
C1085 C1084 1.387 . S
H1086 C1098 0.930 . S
H1087 C1100 0.930 . S
H1088 C1101 0.930 . S
H1089 C1105 0.959 . S
H1090 C1105 0.959 . S
H1091 C1105 0.961 . S
H1092 C1106 0.960 . S
H1093 C1106 0.961 . S
H1094 C1106 0.959 . S
H1095 C1109 0.929 . S
H1096 C1110 0.931 . S
H1097 C1112 0.930 . S
C1098 H1086 0.930 . S
C1098 C1099 1.399 . S
C1098 C1103 1.399 . S
C1099 C1098 1.399 . S
C1099 C1100 1.376 . S
C1100 H1087 0.930 . S
C1100 C1099 1.376 . S
C1100 C1101 1.388 . S
C1101 H1088 0.930 . S
C1101 C1100 1.388 . S
C1101 C1102 1.390 . S
C1102 C1101 1.390 . S
C1102 C1103 1.394 . S
C1102 C1108 1.465 . S
C1103 C1098 1.399 . S
C1103 C1102 1.394 . S
C1103 C1104 1.516 . S
C1104 C1103 1.516 . S
C1104 C1105 1.502 . S
C1104 C1106 1.561 . S
C1104 C1107 1.526 . S
C1105 H1089 0.959 . S
C1105 H1090 0.959 . S
C1105 H1091 0.961 . S
C1105 C1104 1.502 . S
C1106 H1092 0.960 . S
C1106 H1093 0.961 . S
C1106 H1094 0.959 . S
C1106 C1104 1.561 . S
C1107 C1104 1.526 . S
C1107 C1108 1.396 . S
C1107 C1112 1.390 . S
C1108 C1102 1.465 . S
C1108 C1107 1.396 . S
C1108 C1109 1.399 . S
C1109 H1095 0.929 . S
C1109 C1108 1.399 . S
C1109 C1110 1.385 . S
C1110 H1096 0.931 . S
C1110 C1109 1.385 . S
C1110 C1111 1.389 . S
C1111 C1110 1.389 . S
C1111 C1112 1.387 . S
C1112 H1097 0.930 . S
C1112 C1107 1.390 . S
C1112 C1111 1.387 . S
H1113 C1125 0.930 . S
H1114 C1127 0.930 . S
H1115 C1128 0.930 . S
H1116 C1132 0.959 . S
H1117 C1132 0.959 . S
H1118 C1132 0.961 . S
H1119 C1133 0.960 . S
H1120 C1133 0.961 . S
H1121 C1133 0.959 . S
H1122 C1136 0.929 . S
H1123 C1137 0.931 . S
H1124 C1139 0.930 . S
C1125 H1113 0.930 . S
C1125 C1126 1.399 . S
C1125 C1130 1.399 . S
C1126 C1125 1.399 . S
C1126 C1127 1.376 . S
C1127 H1114 0.930 . S
C1127 C1126 1.376 . S
C1127 C1128 1.388 . S
C1128 H1115 0.930 . S
C1128 C1127 1.388 . S
C1128 C1129 1.390 . S
C1129 C1128 1.390 . S
C1129 C1130 1.394 . S
C1129 C1135 1.465 . S
C1130 C1125 1.399 . S
C1130 C1129 1.394 . S
C1130 C1131 1.516 . S
C1131 C1130 1.516 . S
C1131 C1132 1.502 . S
C1131 C1133 1.561 . S
C1131 C1134 1.526 . S
C1132 H1116 0.959 . S
C1132 H1117 0.959 . S
C1132 H1118 0.961 . S
C1132 C1131 1.502 . S
C1133 H1119 0.960 . S
C1133 H1120 0.961 . S
C1133 H1121 0.959 . S
C1133 C1131 1.561 . S
C1134 C1131 1.526 . S
C1134 C1135 1.396 . S
C1134 C1139 1.390 . S
C1135 C1129 1.465 . S
C1135 C1134 1.396 . S
C1135 C1136 1.399 . S
C1136 H1122 0.929 . S
C1136 C1135 1.399 . S
C1136 C1137 1.385 . S
C1137 H1123 0.931 . S
C1137 C1136 1.385 . S
C1137 C1138 1.389 . S
C1138 C1137 1.389 . S
C1138 C1139 1.387 . S
C1139 H1124 0.930 . S
C1139 C1134 1.390 . S
C1139 C1138 1.387 . S
H1140 C1152 0.930 . S
H1141 C1154 0.930 . S
H1142 C1155 0.930 . S
H1143 C1159 0.959 . S
H1144 C1159 0.959 . S
H1145 C1159 0.961 . S
H1146 C1160 0.960 . S
H1147 C1160 0.961 . S
H1148 C1160 0.959 . S
H1149 C1163 0.929 . S
H1150 C1164 0.931 . S
H1151 C1166 0.930 . S
C1152 H1140 0.930 . S
C1152 C1153 1.399 . S
C1152 C1157 1.399 . S
C1153 C1152 1.399 . S
C1153 C1154 1.376 . S
C1154 H1141 0.930 . S
C1154 C1153 1.376 . S
C1154 C1155 1.388 . S
C1155 H1142 0.930 . S
C1155 C1154 1.388 . S
C1155 C1156 1.390 . S
C1156 C1155 1.390 . S
C1156 C1157 1.394 . S
C1156 C1162 1.465 . S
C1157 C1152 1.399 . S
C1157 C1156 1.394 . S
C1157 C1158 1.516 . S
C1158 C1157 1.516 . S
C1158 C1159 1.502 . S
C1158 C1160 1.561 . S
C1158 C1161 1.526 . S
C1159 H1143 0.959 . S
C1159 H1144 0.959 . S
C1159 H1145 0.961 . S
C1159 C1158 1.502 . S
C1160 H1146 0.960 . S
C1160 H1147 0.961 . S
C1160 H1148 0.959 . S
C1160 C1158 1.561 . S
C1161 C1158 1.526 . S
C1161 C1162 1.396 . S
C1161 C1166 1.390 . S
C1162 C1156 1.465 . S
C1162 C1161 1.396 . S
C1162 C1163 1.399 . S
C1163 H1149 0.929 . S
C1163 C1162 1.399 . S
C1163 C1164 1.385 . S
C1164 H1150 0.931 . S
C1164 C1163 1.385 . S
C1164 C1165 1.389 . S
C1165 C1164 1.389 . S
C1165 C1166 1.387 . S
C1166 H1151 0.930 . S
C1166 C1161 1.390 . S
C1166 C1165 1.387 . S
H1167 C1179 0.930 . S
H1168 C1181 0.930 . S
H1169 C1182 0.930 . S
H1170 C1186 0.959 . S
H1171 C1186 0.959 . S
H1172 C1186 0.961 . S
H1173 C1187 0.960 . S
H1174 C1187 0.961 . S
H1175 C1187 0.959 . S
H1176 C1190 0.929 . S
H1177 C1191 0.931 . S
H1178 C1193 0.930 . S
C1179 H1167 0.930 . S
C1179 C1180 1.399 . S
C1179 C1184 1.399 . S
C1180 C1179 1.399 . S
C1180 C1181 1.376 . S
C1181 H1168 0.930 . S
C1181 C1180 1.376 . S
C1181 C1182 1.388 . S
C1182 H1169 0.930 . S
C1182 C1181 1.388 . S
C1182 C1183 1.390 . S
C1183 C1182 1.390 . S
C1183 C1184 1.394 . S
C1183 C1189 1.465 . S
C1184 C1179 1.399 . S
C1184 C1183 1.394 . S
C1184 C1185 1.516 . S
C1185 C1184 1.516 . S
C1185 C1186 1.502 . S
C1185 C1187 1.561 . S
C1185 C1188 1.526 . S
C1186 H1170 0.959 . S
C1186 H1171 0.959 . S
C1186 H1172 0.961 . S
C1186 C1185 1.502 . S
C1187 H1173 0.960 . S
C1187 H1174 0.961 . S
C1187 H1175 0.959 . S
C1187 C1185 1.561 . S
C1188 C1185 1.526 . S
C1188 C1189 1.396 . S
C1188 C1193 1.390 . S
C1189 C1183 1.465 . S
C1189 C1188 1.396 . S
C1189 C1190 1.399 . S
C1190 H1176 0.929 . S
C1190 C1189 1.399 . S
C1190 C1191 1.385 . S
C1191 H1177 0.931 . S
C1191 C1190 1.385 . S
C1191 C1192 1.389 . S
C1192 C1191 1.389 . S
C1192 C1193 1.387 . S
C1193 H1178 0.930 . S
C1193 C1188 1.390 . S
C1193 C1192 1.387 . S
H1194 C1206 0.930 . S
H1195 C1208 0.930 . S
H1196 C1209 0.930 . S
H1197 C1213 0.959 . S
H1198 C1213 0.959 . S
H1199 C1213 0.961 . S
H1200 C1214 0.960 . S
H1201 C1214 0.961 . S
H1202 C1214 0.959 . S
H1203 C1217 0.929 . S
H1204 C1218 0.931 . S
H1205 C1220 0.930 . S
C1206 H1194 0.930 . S
C1206 C1207 1.399 . S
C1206 C1211 1.399 . S
C1207 C1206 1.399 . S
C1207 C1208 1.376 . S
C1208 H1195 0.930 . S
C1208 C1207 1.376 . S
C1208 C1209 1.388 . S
C1209 H1196 0.930 . S
C1209 C1208 1.388 . S
C1209 C1210 1.390 . S
C1210 C1209 1.390 . S
C1210 C1211 1.394 . S
C1210 C1216 1.465 . S
C1211 C1206 1.399 . S
C1211 C1210 1.394 . S
C1211 C1212 1.516 . S
C1212 C1211 1.516 . S
C1212 C1213 1.502 . S
C1212 C1214 1.561 . S
C1212 C1215 1.526 . S
C1213 H1197 0.959 . S
C1213 H1198 0.959 . S
C1213 H1199 0.961 . S
C1213 C1212 1.502 . S
C1214 H1200 0.960 . S
C1214 H1201 0.961 . S
C1214 H1202 0.959 . S
C1214 C1212 1.561 . S
C1215 C1212 1.526 . S
C1215 C1216 1.396 . S
C1215 C1220 1.390 . S
C1216 C1210 1.465 . S
C1216 C1215 1.396 . S
C1216 C1217 1.399 . S
C1217 H1203 0.929 . S
C1217 C1216 1.399 . S
C1217 C1218 1.385 . S
C1218 H1204 0.931 . S
C1218 C1217 1.385 . S
C1218 C1219 1.389 . S
C1219 C1218 1.389 . S
C1219 C1220 1.387 . S
C1220 H1205 0.930 . S
C1220 C1215 1.390 . S
C1220 C1219 1.387 . S
H1221 C1233 0.930 . S
H1222 C1235 0.930 . S
H1223 C1236 0.930 . S
H1224 C1240 0.959 . S
H1225 C1240 0.959 . S
H1226 C1240 0.961 . S
H1227 C1241 0.960 . S
H1228 C1241 0.961 . S
H1229 C1241 0.959 . S
H1230 C1244 0.929 . S
H1231 C1245 0.931 . S
H1232 C1247 0.930 . S
C1233 H1221 0.930 . S
C1233 C1234 1.399 . S
C1233 C1238 1.399 . S
C1234 C1233 1.399 . S
C1234 C1235 1.376 . S
C1235 H1222 0.930 . S
C1235 C1234 1.376 . S
C1235 C1236 1.388 . S
C1236 H1223 0.930 . S
C1236 C1235 1.388 . S
C1236 C1237 1.390 . S
C1237 C1236 1.390 . S
C1237 C1238 1.394 . S
C1237 C1243 1.465 . S
C1238 C1233 1.399 . S
C1238 C1237 1.394 . S
C1238 C1239 1.516 . S
C1239 C1238 1.516 . S
C1239 C1240 1.502 . S
C1239 C1241 1.561 . S
C1239 C1242 1.526 . S
C1240 H1224 0.959 . S
C1240 H1225 0.959 . S
C1240 H1226 0.961 . S
C1240 C1239 1.502 . S
C1241 H1227 0.960 . S
C1241 H1228 0.961 . S
C1241 H1229 0.959 . S
C1241 C1239 1.561 . S
C1242 C1239 1.526 . S
C1242 C1243 1.396 . S
C1242 C1247 1.390 . S
C1243 C1237 1.465 . S
C1243 C1242 1.396 . S
C1243 C1244 1.399 . S
C1244 H1230 0.929 . S
C1244 C1243 1.399 . S
C1244 C1245 1.385 . S
C1245 H1231 0.931 . S
C1245 C1244 1.385 . S
C1245 C1246 1.389 . S
C1246 C1245 1.389 . S
C1246 C1247 1.387 . S
C1247 H1232 0.930 . S
C1247 C1242 1.390 . S
C1247 C1246 1.387 . S
H1248 C1260 0.930 . S
H1249 C1262 0.930 . S
H1250 C1263 0.930 . S
H1251 C1267 0.959 . S
H1252 C1267 0.959 . S
H1253 C1267 0.961 . S
H1254 C1268 0.960 . S
H1255 C1268 0.961 . S
H1256 C1268 0.959 . S
H1257 C1271 0.929 . S
H1258 C1272 0.931 . S
H1259 C1274 0.930 . S
C1260 H1248 0.930 . S
C1260 C1261 1.399 . S
C1260 C1265 1.399 . S
C1261 C1260 1.399 . S
C1261 C1262 1.376 . S
C1262 H1249 0.930 . S
C1262 C1261 1.376 . S
C1262 C1263 1.388 . S
C1263 H1250 0.930 . S
C1263 C1262 1.388 . S
C1263 C1264 1.390 . S
C1264 C1263 1.390 . S
C1264 C1265 1.394 . S
C1264 C1270 1.465 . S
C1265 C1260 1.399 . S
C1265 C1264 1.394 . S
C1265 C1266 1.516 . S
C1266 C1265 1.516 . S
C1266 C1267 1.502 . S
C1266 C1268 1.561 . S
C1266 C1269 1.526 . S
C1267 H1251 0.959 . S
C1267 H1252 0.959 . S
C1267 H1253 0.961 . S
C1267 C1266 1.502 . S
C1268 H1254 0.960 . S
C1268 H1255 0.961 . S
C1268 H1256 0.959 . S
C1268 C1266 1.561 . S
C1269 C1266 1.526 . S
C1269 C1270 1.396 . S
C1269 C1274 1.390 . S
C1270 C1264 1.465 . S
C1270 C1269 1.396 . S
C1270 C1271 1.399 . S
C1271 H1257 0.929 . S
C1271 C1270 1.399 . S
C1271 C1272 1.385 . S
C1272 H1258 0.931 . S
C1272 C1271 1.385 . S
C1272 C1273 1.389 . S
C1273 C1272 1.389 . S
C1273 C1274 1.387 . S
C1274 H1259 0.930 . S
C1274 C1269 1.390 . S
C1274 C1273 1.387 . S
H1275 C1287 0.930 . S
H1276 C1289 0.930 . S
H1277 C1290 0.930 . S
H1278 C1294 0.959 . S
H1279 C1294 0.959 . S
H1280 C1294 0.961 . S
H1281 C1295 0.960 . S
H1282 C1295 0.961 . S
H1283 C1295 0.959 . S
H1284 C1298 0.929 . S
H1285 C1299 0.931 . S
H1286 C1301 0.930 . S
C1287 H1275 0.930 . S
C1287 C1288 1.399 . S
C1287 C1292 1.399 . S
C1288 C1287 1.399 . S
C1288 C1289 1.376 . S
C1289 H1276 0.930 . S
C1289 C1288 1.376 . S
C1289 C1290 1.388 . S
C1290 H1277 0.930 . S
C1290 C1289 1.388 . S
C1290 C1291 1.390 . S
C1291 C1290 1.390 . S
C1291 C1292 1.394 . S
C1291 C1297 1.465 . S
C1292 C1287 1.399 . S
C1292 C1291 1.394 . S
C1292 C1293 1.516 . S
C1293 C1292 1.516 . S
C1293 C1294 1.502 . S
C1293 C1295 1.561 . S
C1293 C1296 1.526 . S
C1294 H1278 0.959 . S
C1294 H1279 0.959 . S
C1294 H1280 0.961 . S
C1294 C1293 1.502 . S
C1295 H1281 0.960 . S
C1295 H1282 0.961 . S
C1295 H1283 0.959 . S
C1295 C1293 1.561 . S
C1296 C1293 1.526 . S
C1296 C1297 1.396 . S
C1296 C1301 1.390 . S
C1297 C1291 1.465 . S
C1297 C1296 1.396 . S
C1297 C1298 1.399 . S
C1298 H1284 0.929 . S
C1298 C1297 1.399 . S
C1298 C1299 1.385 . S
C1299 H1285 0.931 . S
C1299 C1298 1.385 . S
C1299 C1300 1.389 . S
C1300 C1299 1.389 . S
C1300 C1301 1.387 . S
C1301 H1286 0.930 . S
C1301 C1296 1.390 . S
C1301 C1300 1.387 . S
C679 C595 1.570 . S
C667 C19 1.520 . S
C694 C40 1.541 . S
C706 C155 1.583 . S
C721 C51 1.463 . S
C733 C243 1.579 . S
C748 C72 1.428 . S
C760 C322 1.585 . S
C787 C419 1.594 . S
C775 C103 1.536 . S
C802 C114 1.448 . S
C814 C498 1.571 . S
C829 C30 1.502 . S
C841 C263 1.580 . S
C856 C61 1.540 . S
C868 C359 1.582 . S
C883 C82 1.456 . S
C895 C439 1.567 . S
C922 C535 1.602 . S
C910 C93 1.479 . S
C949 C615 1.581 . S
C937 C124 1.445 . S
C976 C175 1.589 . S
C964 C9 1.532 . S
C991 C17 1.472 . S
C1003 C271 1.521 . S
C1018 C38 1.464 . S
C1030 C351 1.517 . S
C1057 C447 1.511 . S
C1045 C54 1.447 . S
C1072 C75 1.486 . S
C1084 C527 1.535 . S
C1111 C623 1.544 . S
C1099 C101 1.461 . S
C1138 C183 1.513 . S
C1126 C117 1.403 . S
C1165 C586 1.511 . S
C1153 C33 1.444 . S
C1180 C59 1.473 . S
C1192 C146 1.519 . S
C1219 C234 1.542 . S
C1207 C80 1.485 . S
C1234 C96 1.443 . S
C1246 C331 1.512 . S
C1261 C122 1.474 . S
C1273 C410 1.540 . S
C1288 C12 1.383 . S
C1300 C507 1.527 . S
