# Generated by pormake.
# Topology zzz, (3,6)-cn, num edge types: 1
# Building blocks:
#     Node 0, Type 0, BuildingBlock: BELTOD_clean_linker_0, # of connection points: 3
#     Node 1, Type 0, BuildingBlock: BELTOD_clean_linker_0, # of connection points: 3
#     Node 2, Type 0, BuildingBlock: BELTOD_clean_linker_0, # of connection points: 3
#     Node 3, Type 0, BuildingBlock: BELTOD_clean_linker_0, # of connection points: 3
#     Node 4, Type 0, BuildingBlock: BELTOD_clean_linker_0, # of connection points: 3
#     Node 5, Type 0, BuildingBlock: BELTOD_clean_linker_0, # of connection points: 3
#     Node 6, Type 0, BuildingBlock: BELTOD_clean_linker_0, # of connection points: 3
#     Node 7, Type 0, BuildingBlock: BELTOD_clean_linker_0, # of connection points: 3
#     Node 8, Type 1, BuildingBlock: INOVEN_clean_sbu_0, # of connection points: 6
#     Node 9, Type 1, BuildingBlock: INOVEN_clean_sbu_0, # of connection points: 6
#     Node 10, Type 1, BuildingBlock: INOVEN_clean_sbu_0, # of connection points: 6
#     Node 11, Type 1, BuildingBlock: INOVEN_clean_sbu_0, # of connection points: 6
#     Edge 12, Type (0, 1), BuildingBlock: KIFKEQ_clean_linker_1, # of connection points: 2
#     Edge 13, Type (0, 1), BuildingBlock: KIFKEQ_clean_linker_1, # of connection points: 2
#     Edge 14, Type (0, 1), BuildingBlock: KIFKEQ_clean_linker_1, # of connection points: 2
#     Edge 15, Type (0, 1), BuildingBlock: KIFKEQ_clean_linker_1, # of connection points: 2
#     Edge 16, Type (0, 1), BuildingBlock: KIFKEQ_clean_linker_1, # of connection points: 2
#     Edge 17, Type (0, 1), BuildingBlock: KIFKEQ_clean_linker_1, # of connection points: 2
#     Edge 18, Type (0, 1), BuildingBlock: KIFKEQ_clean_linker_1, # of connection points: 2
#     Edge 19, Type (0, 1), BuildingBlock: KIFKEQ_clean_linker_1, # of connection points: 2
#     Edge 20, Type (0, 1), BuildingBlock: KIFKEQ_clean_linker_1, # of connection points: 2
#     Edge 21, Type (0, 1), BuildingBlock: KIFKEQ_clean_linker_1, # of connection points: 2
#     Edge 22, Type (0, 1), BuildingBlock: KIFKEQ_clean_linker_1, # of connection points: 2
#     Edge 23, Type (0, 1), BuildingBlock: KIFKEQ_clean_linker_1, # of connection points: 2
#     Edge 24, Type (0, 1), BuildingBlock: KIFKEQ_clean_linker_1, # of connection points: 2
#     Edge 25, Type (0, 1), BuildingBlock: KIFKEQ_clean_linker_1, # of connection points: 2
#     Edge 26, Type (0, 1), BuildingBlock: KIFKEQ_clean_linker_1, # of connection points: 2
#     Edge 27, Type (0, 1), BuildingBlock: KIFKEQ_clean_linker_1, # of connection points: 2
#     Edge 28, Type (0, 1), BuildingBlock: KIFKEQ_clean_linker_1, # of connection points: 2
#     Edge 29, Type (0, 1), BuildingBlock: KIFKEQ_clean_linker_1, # of connection points: 2
#     Edge 30, Type (0, 1), BuildingBlock: KIFKEQ_clean_linker_1, # of connection points: 2
#     Edge 31, Type (0, 1), BuildingBlock: KIFKEQ_clean_linker_1, # of connection points: 2
#     Edge 32, Type (0, 1), BuildingBlock: KIFKEQ_clean_linker_1, # of connection points: 2
#     Edge 33, Type (0, 1), BuildingBlock: KIFKEQ_clean_linker_1, # of connection points: 2
#     Edge 34, Type (0, 1), BuildingBlock: KIFKEQ_clean_linker_1, # of connection points: 2
#     Edge 35, Type (0, 1), BuildingBlock: KIFKEQ_clean_linker_1, # of connection points: 2
# Relax obj value: 0.416
# Max RMSD: 0.256
# Mean RMSD: 0.243
data_MOF--net-zzz--node1-INOVEN_clean_sbu_0--node2-BELTOD_clean_linker_0--edge1-KIFKEQ_clean_linker_1
_symmetry_space_group_name_H-M    P1
_symmetry_Int_Tables_number       1
_symmetry_cell_setting            triclinic
loop_
_symmetry_equiv_pos_as_xyz
'x, y, z'
_cell_length_a     56.780718
_cell_length_b     56.844641
_cell_length_c     17.306675
_cell_angle_alpha  90.022266
_cell_angle_beta   90.04144
_cell_angle_gamma 90.111127
loop_
_atom_site_label
_atom_site_type_symbol
_atom_site_fract_x
_atom_site_fract_y
_atom_site_fract_z
_atom_type_partial_charge
P0 P 0.71782 0.47186 0.37274 0.0
H1 H 0.72905 0.49607 0.51851 0.0
H2 H 0.76637 0.51044 0.57014 0.0
H3 H 0.79847 0.50055 0.34577 0.0
H4 H 0.76073 0.48807 0.29399 0.0
H5 H 0.66842 0.45997 0.35805 0.0
H6 H 0.63824 0.47107 0.26585 0.0
H7 H 0.68514 0.52351 0.16991 0.0
H8 H 0.71578 0.5114 0.26153 0.0
H9 H 0.75487 0.43854 0.40769 0.0
H10 H 0.71058 0.4548 0.21227 0.0
O11 O 0.70627 0.4595 0.45157 0.0
H12 H 0.78084 0.41608 0.3243 0.0
H13 H 0.73568 0.43124 0.1292 0.0
C14 C 0.7421 0.49058 0.40264 0.0
C15 C 0.74393 0.49784 0.47982 0.0
C16 C 0.76555 0.50564 0.50968 0.0
C17 C 0.786 0.50594 0.46332 0.0
C18 C 0.78342 0.50067 0.38406 0.0
C19 C 0.76166 0.49342 0.35398 0.0
C20 C 0.69423 0.48518 0.31794 0.0
C21 C 0.67202 0.47436 0.31875 0.0
C22 C 0.65465 0.48079 0.2656 0.0
C23 C 0.65903 0.49826 0.20976 0.0
C24 C 0.68111 0.50978 0.21118 0.0
C25 C 0.6986 0.50315 0.26435 0.0
C26 C 0.7311 0.44881 0.31619 0.0
C27 C 0.75019 0.43646 0.34736 0.0
C28 C 0.765 0.42345 0.29936 0.0
C29 C 0.76071 0.42224 0.2193 0.0
C30 C 0.73993 0.43238 0.19009 0.0
C31 C 0.7254 0.4458 0.23795 0.0
P32 P 0.04217 0.72482 0.36881 0.0
H33 H 0.0307 0.74072 0.52542 0.0
H34 H 0.01703 0.7786 0.57233 0.0
H35 H 0.99878 0.79865 0.33904 0.0
H36 H 0.01326 0.76072 0.29222 0.0
H37 H 0.06131 0.67987 0.32644 0.0
H38 H 0.04898 0.64919 0.23841 0.0
H39 H 0.98287 0.68535 0.2022 0.0
H40 H 0.99634 0.71703 0.28797 0.0
H41 H 0.0733 0.76407 0.40037 0.0
H42 H 0.05628 0.72024 0.20437 0.0
O43 O 0.05709 0.71339 0.4429 0.0
H44 H 0.09457 0.79088 0.31619 0.0
H45 H 0.07885 0.74605 0.12064 0.0
C46 C 0.02295 0.7477 0.40515 0.0
C47 C 0.02298 0.75286 0.48446 0.0
C48 C 0.01516 0.77473 0.51138 0.0
C49 C 0.00713 0.79203 0.45951 0.0
C50 C 1.0053 0.78602 0.38066 0.0
C51 C 0.01315 0.7641 0.35381 0.0
C52 C 0.02963 0.70057 0.31491 0.0
C53 C 0.04394 0.681 0.3008 0.0
C54 C 0.03672 0.66327 0.25025 0.0
C55 C 0.01471 0.66437 0.21283 0.0
C56 C 1.00005 0.68386 0.22881 0.0
C57 C 0.00757 0.70192 0.27878 0.0
C58 C 0.06294 0.74031 0.30887 0.0
C59 C 0.07486 0.75976 0.3396 0.0
C60 C 0.08724 0.77501 0.29121 0.0
C61 C 0.08824 0.77086 0.21106 0.0
C62 C 0.078 0.75013 0.18169 0.0
C63 C 0.06519 0.73515 0.22997 0.0
P64 P 0.7861 0.03481 0.35882 0.0
H65 H 0.77127 0.02283 0.51618 0.0
H66 H 0.73289 0.01146 0.56728 0.0
H67 H 0.70787 0.99886 0.33533 0.0
H68 H 0.74638 0.0103 0.28434 0.0
H69 H 0.83636 0.04309 0.34561 0.0
H70 H 0.86589 0.03058 0.25284 0.0
H71 H 0.81501 0.98442 0.14544 0.0
H72 H 0.78531 0.99691 0.24015 0.0
H73 H 0.7585 0.07538 0.4044 0.0
H74 H 0.77998 0.04244 0.19127 0.0
O75 O 0.79943 0.04803 0.43314 0.0
H76 H 0.72887 0.09801 0.33414 0.0
H77 H 0.75025 0.06435 0.12161 0.0
C78 C 0.76194 0.01732 0.39619 0.0
C79 C 0.75788 0.01683 0.47618 0.0
C80 C 0.73574 0.01061 0.50546 0.0
C81 C 0.71712 1.00466 0.45541 0.0
C82 C 0.7218 1.00325 0.37563 0.0
C83 C 0.74397 0.0096 0.34634 0.0
C84 C 0.8086 0.02074 0.30085 0.0
C85 C 0.83162 0.02971 0.30382 0.0
C86 C 0.84859 0.02255 0.25039 0.0
C87 C 0.84287 0.0065 0.1915 0.0
C88 C 0.81996 0.99691 0.18988 0.0
C89 C 0.80301 1.00386 0.24446 0.0
C90 C 0.77148 0.05718 0.30332 0.0
C91 C 0.7575 0.07368 0.34214 0.0
C92 C 0.74044 0.08645 0.30202 0.0
C93 C 0.73697 0.08271 0.2225 0.0
C94 C 0.75255 0.06783 0.18268 0.0
C95 C 0.76959 0.05509 0.22285 0.0
P96 P 0.4775 0.79046 0.34886 0.0
H97 H 0.48801 0.77531 0.50713 0.0
H98 H 0.49907 0.73711 0.55862 0.0
H99 H 0.51483 0.71299 0.32757 0.0
H100 H 0.50254 0.75085 0.27634 0.0
H101 H 0.48425 0.84158 0.34818 0.0
H102 H 0.49501 0.86899 0.24585 0.0
H103 H 0.51327 0.81058 0.09815 0.0
H104 H 0.50206 0.78323 0.20021 0.0
H105 H 0.44781 0.75066 0.39041 0.0
H106 H 0.45231 0.79999 0.20146 0.0
O107 O 0.4666 0.80615 0.42207 0.0
H108 H 0.42248 0.72546 0.31357 0.0
H109 H 0.42648 0.77494 0.12432 0.0
C110 C 0.4947 0.76632 0.3876 0.0
C111 C 0.49461 0.76214 0.46757 0.0
C112 C 0.50094 0.74009 0.49715 0.0
C113 C 0.50753 0.72164 0.44735 0.0
C114 C 0.50937 0.72652 0.36776 0.0
C115 C 0.50286 0.74852 0.33826 0.0
C116 C 0.49245 0.81019 0.28262 0.0
C117 C 0.49124 0.83458 0.29476 0.0
C118 C 0.49742 0.85034 0.23594 0.0
C119 C 0.50476 0.84202 0.16332 0.0
C120 C 0.5074 0.8176 0.15304 0.0
C121 C 0.50135 0.80186 0.2121 0.0
C122 C 0.45307 0.77653 0.30028 0.0
C123 C 0.44294 0.75636 0.33289 0.0
C124 C 0.42814 0.74204 0.28896 0.0
C125 C 0.4229 0.74787 0.21185 0.0
C126 C 0.43075 0.76962 0.18276 0.0
C127 C 0.44566 0.78392 0.22684 0.0
P128 P 0.28853 0.45827 0.0411 0.0
H129 H 0.26927 0.45736 0.88467 0.0
H130 H 0.231 0.46863 0.83606 0.0
H131 H 0.21823 0.50822 0.04525 0.0
H132 H 0.25612 0.49536 0.09565 0.0
H133 H 0.33507 0.441 0.07685 0.0
H134 H 0.36562 0.45379 0.16572 0.0
H135 H 0.32632 0.51714 0.21319 0.0
H136 H 0.29559 0.50415 0.12287 0.0
H137 H 0.25743 0.41794 0.02302 0.0
H138 H 0.2797 0.46418 0.2068 0.0
O139 O 0.2997 0.4394 0.97695 0.0
H140 H 0.22326 0.40616 0.09943 0.0
H141 H 0.24558 0.45327 0.28166 0.0
C142 C 0.2661 0.47581 0.99355 0.0
C143 C 0.25871 0.4692 0.91922 0.0
C144 C 0.2365 0.47568 0.89129 0.0
C145 C 0.22097 0.48917 0.93673 0.0
C146 C 0.22925 0.49737 0.00884 0.0
C147 C 0.2514 0.49057 0.03716 0.0
C148 C 0.31305 0.47169 0.09201 0.0
C149 C 0.33326 0.45802 0.1043 0.0
C150 C 0.35082 0.46537 0.15553 0.0
C151 C 0.34851 0.48651 0.19697 0.0
C152 C 0.3286 0.50066 0.18269 0.0
C153 C 0.31105 0.49335 0.13046 0.0
C154 C 0.27114 0.44194 0.10905 0.0
C155 C 0.2556 0.42473 0.08118 0.0
C156 C 0.2359 0.41824 0.12456 0.0
C157 C 0.23135 0.42916 0.19593 0.0
C158 C 0.24848 0.44433 0.22725 0.0
C159 C 0.26817 0.4507 0.18404 0.0
P160 P 0.04878 0.2919 0.04672 0.0
H161 H 0.03655 0.27674 0.88944 0.0
H162 H 0.02465 0.2382 0.84126 0.0
H163 H 0.00919 0.21604 0.07436 0.0
H164 H 0.02124 0.25461 0.12228 0.0
H165 H 0.06414 0.33957 0.07758 0.0
H166 H 0.05298 0.36885 0.17323 0.0
H167 H 0.99636 0.32377 0.25036 0.0
H168 H 0.00779 0.29431 0.15373 0.0
H169 H 0.08634 0.26057 0.99909 0.0
H170 H 0.05596 0.28455 0.21336 0.0
O171 O 0.06275 0.30465 0.97289 0.0
H172 H 0.10119 0.22554 0.06425 0.0
H173 H 0.0702 0.24966 0.27796 0.0
C174 C 0.0297 0.26885 0.00969 0.0
C175 C 0.02963 0.26402 0.93008 0.0
C176 C 0.02294 0.24179 0.90245 0.0
C177 C 0.01638 0.22379 0.954 0.0
C178 C 0.01453 0.22933 0.03308 0.0
C179 C 0.021 0.25164 0.06051 0.0
C180 C 0.03658 0.31485 0.10727 0.0
C181 C 0.0489 0.33617 0.11353 0.0
C182 C 0.04249 0.35299 0.16856 0.0
C183 C 0.02372 0.34878 0.21972 0.0
C184 C 0.01101 0.32755 0.21229 0.0
C185 C 0.01738 0.31075 0.15649 0.0
C186 C 0.06982 0.27508 0.10101 0.0
C187 C 0.08396 0.25898 0.06097 0.0
C188 C 0.09221 0.2388 0.0981 0.0
C189 C 0.08632 0.23451 0.17571 0.0
C190 C 0.07509 0.25236 0.21813 0.0
C191 C 0.06683 0.27248 0.18092 0.0
P192 P 0.22356 0.0512 0.04762 0.0
H193 H 0.23153 0.03317 0.89064 0.0
H194 H 0.26675 0.0165 0.83174 0.0
H195 H 0.29755 0.0078 0.05828 0.0
H196 H 0.26199 0.02384 0.11666 0.0
H197 H 0.17496 0.06569 0.06933 0.0
H198 H 0.14522 0.05634 0.16551 0.0
H199 H 0.19178 1.00471 0.26626 0.0
H200 H 0.22183 0.01455 0.16954 0.0
H201 H 0.26429 0.07754 0.99704 0.0
H202 H 0.22476 0.06974 0.20816 0.0
O203 O 0.21098 0.06554 0.97433 0.0
H204 H 0.2969 0.09421 0.06852 0.0
H205 H 0.25668 0.08817 0.2801 0.0
C206 C 0.244 0.02983 0.00828 0.0
C207 C 0.24544 0.02681 0.92796 0.0
C208 C 0.26585 0.01759 0.89413 0.0
C209 C 0.2854 0.01134 0.93988 0.0
C210 C 0.28296 0.01232 0.02087 0.0
C211 C 0.26244 0.02138 0.05463 0.0
C212 C 0.20051 0.04048 0.11093 0.0
C213 C 0.17865 0.05194 0.11084 0.0
C214 C 0.16156 0.04654 0.16619 0.0
C215 C 0.16594 0.02968 0.22387 0.0
C216 C 0.1878 0.01791 0.22314 0.0
C217 C 0.20494 0.02331 0.16727 0.0
C218 C 0.24241 0.07172 0.0974 0.0
C219 C 0.26224 0.08037 0.05859 0.0
C220 C 0.28094 0.09014 0.09993 0.0
C221 C 0.2799 0.09198 0.18103 0.0
C222 C 0.25857 0.08618 0.21821 0.0
C223 C 0.2401 0.07579 0.17688 0.0
P224 P 0.45875 0.24394 0.16837 0.0
H225 H 0.42599 0.26363 0.05526 0.0
H226 H 0.43132 0.29558 0.96284 0.0
H227 H 0.50675 0.28943 0.98716 0.0
H228 H 0.50134 0.25704 0.07672 0.0
H229 H 0.4205 0.21678 0.23677 0.0
H230 H 0.4196 0.17758 0.29098 0.0
H231 H 0.48587 0.16181 0.18071 0.0
H232 H 0.48601 0.20113 0.12186 0.0
H233 H 0.46265 0.27828 0.29345 0.0
H234 H 0.50842 0.22842 0.18047 0.0
O235 O 0.43474 0.25682 0.2046 0.0
H236 H 0.49617 0.29443 0.36251 0.0
H237 H 0.5421 0.24475 0.24942 0.0
C238 C 0.46318 0.2582 0.07546 0.0
C239 C 0.44372 0.26849 0.03863 0.0
C240 C 0.4468 0.2871 0.98644 0.0
C241 C 0.46947 0.2958 0.96954 0.0
C242 C 0.489 0.2835 0.99915 0.0
C243 C 0.48587 0.26482 0.05117 0.0
C244 C 0.45383 0.21247 0.17727 0.0
C245 C 0.43457 0.20485 0.2216 0.0
C246 C 0.43414 0.18233 0.25357 0.0
C247 C 0.45312 0.16685 0.24293 0.0
C248 C 0.47112 0.17343 0.19116 0.0
C249 C 0.47135 0.19606 0.15804 0.0
C250 C 0.48282 0.25207 0.2313 0.0
C251 C 0.47972 0.27027 0.2849 0.0
C252 C 0.49896 0.27943 0.325 0.0
C253 C 0.52176 0.27078 0.31145 0.0
C254 C 0.5247 0.25167 0.2611 0.0
C255 C 0.50533 0.24227 0.22185 0.0
Gd256 Gd 0.01862 1.00071 0.77833 0.0
Gd257 Gd 0.99154 0.01529 0.64215 0.0
C258 C 1.00039 0.9603 0.65688 0.0
C259 C 0.03588 0.98224 0.90233 0.0
C260 C 0.05025 0.96149 0.92065 0.0
C261 C 0.06873 0.96347 0.974 0.0
C262 C 0.0459 0.93976 0.88495 0.0
C263 C 0.07744 0.92178 0.95952 0.0
C264 C 0.05928 0.92009 0.90441 0.0
C265 C 0.08227 0.94381 0.99319 0.0
C266 C 0.04607 0.01332 0.65631 0.0
C267 C 0.00948 0.05444 0.76247 0.0
C268 C 0.97955 0.03639 0.51639 0.0
C269 C 0.99255 0.0542 0.4712 0.0
C270 C 0.98342 0.07697 0.46325 0.0
C271 C 0.0152 0.04934 0.44238 0.0
C272 C 0.02001 0.0901 0.40362 0.0
C273 C 0.02878 0.0671 0.40905 0.0
C274 C 0.99702 0.09477 0.42976 0.0
C275 C 0.9638 1.00251 0.76279 0.0
O276 O 0.00914 0.96509 0.72614 0.0
O277 O 0.99365 0.97726 0.60992 0.0
O278 O 0.04654 0.99881 0.86346 0.0
O279 O 0.01434 0.9783 0.87832 0.0
O280 O 0.05097 0.0182 0.72753 0.0
O281 O 0.02745 1.00133 0.65336 0.0
O282 O 0.00805 0.04918 0.68816 0.0
O283 O 0.00929 0.03736 0.81378 0.0
O284 O 0.97216 0.04315 0.58439 0.0
O285 O 0.98865 0.0153 0.5176 0.0
O286 O 0.95855 0.99862 0.69094 0.0
O287 O 0.98251 0.01439 0.76682 0.0
H288 H 0.07254 0.9802 1.00141 0.0
H289 H 0.03187 0.93786 0.84308 0.0
H290 H 0.05475 0.90337 0.87825 0.0
H291 H 0.0963 0.9458 0.03511 0.0
H292 H 0.96603 0.08116 0.48494 0.0
H293 H 0.0228 0.03199 0.44753 0.0
H294 H 0.04647 0.06295 0.38999 0.0
H295 H 0.98962 0.11226 0.42506 0.0
Gd296 Gd 0.50413 0.01482 0.75351 0.0
Gd297 Gd 0.49168 0.9874 0.60017 0.0
C298 C 0.54623 0.99913 0.63162 0.0
C299 C 0.52163 0.03205 0.87906 0.0
C300 C 0.5439 0.04303 0.90399 0.0
C301 C 0.54351 0.06594 0.93414 0.0
C302 C 0.56549 0.03117 0.89791 0.0
C303 C 0.5859 0.06483 0.9542 0.0
C304 C 0.58626 0.04193 0.9231 0.0
C305 C 0.56429 0.07679 0.95861 0.0
C306 C 0.48598 0.04015 0.63524 0.0
C307 C 0.45196 0.99774 0.73213 0.0
C308 C 0.47532 0.98523 0.4625 0.0
C309 C 0.45762 1.00119 0.42847 0.0
C310 C 0.43565 1.0041 0.46452 0.0
C311 C 0.4638 0.01622 0.36726 0.0
C312 C 0.42693 0.03758 0.38208 0.0
C313 C 0.44854 0.03422 0.34404 0.0
C314 C 0.42053 0.02202 0.44158 0.0
C315 C 0.50089 0.95642 0.7156 0.0
O316 O 0.53999 0.01026 0.69621 0.0
O317 O 0.53082 0.98861 0.58548 0.0
O318 O 0.50905 0.04436 0.83046 0.0
O319 O 0.52185 0.00951 0.86298 0.0
O320 O 0.48089 0.04404 0.70716 0.0
O321 O 0.50077 0.0238 0.63046 0.0
O322 O 0.45671 0.99716 0.65691 0.0
O323 O 0.46888 1.00012 0.78403 0.0
O324 O 0.46795 0.97122 0.51774 0.0
O325 O 0.49562 0.99512 0.47826 0.0
O326 O 0.49656 0.94988 0.64474 0.0
O327 O 0.50088 0.9785 0.71778 0.0
H328 H 0.52706 0.07546 0.93891 0.0
H329 H 0.56635 0.01352 0.87449 0.0
H330 H 0.60249 0.03202 0.92 0.0
H331 H 0.56338 0.09454 0.98115 0.0
H332 H 0.43031 0.99296 0.51214 0.0
H333 H 0.48078 0.01458 0.33933 0.0
H334 H 0.45395 0.04589 0.29788 0.0
H335 H 0.40372 0.02363 0.47061 0.0
Gd336 Gd 0.48678 0.51537 0.77497 0.0
Gd337 Gd 0.51607 0.49836 0.6328 0.0
C338 C 0.50772 0.55448 0.65401 0.0
C339 C 0.47002 0.53454 0.89853 0.0
C340 C 0.4567 0.55586 0.91817 0.0
C341 C 0.43905 0.55469 0.97456 0.0
C342 C 0.46131 0.57734 0.88123 0.0
C343 C 0.43168 0.59665 0.96053 0.0
C344 C 0.44898 0.59757 0.9024 0.0
C345 C 0.42659 0.57488 0.99549 0.0
C346 C 0.46155 0.50386 0.64706 0.0
C347 C 0.49689 0.46054 0.75798 0.0
C348 C 0.5291 0.48132 0.50223 0.0
C349 C 0.54342 0.46064 0.4838 0.0
C350 C 0.55519 0.45896 0.41295 0.0
C351 C 0.5453 0.44232 0.53755 0.0
C352 C 0.5683 0.4194 0.44611 0.0
C353 C 0.55745 0.42185 0.51877 0.0
C354 C 0.56766 0.43852 0.39431 0.0
C355 C 0.5445 0.50013 0.7603 0.0
O356 O 0.49682 0.55031 0.72048 0.0
O357 O 0.51547 0.5373 0.609 0.0
O358 O 0.45857 0.51873 0.85841 0.0
O359 O 0.49179 0.53749 0.87536 0.0
O360 O 0.45444 0.50028 0.71721 0.0
O361 O 0.48105 0.51449 0.64813 0.0
O362 O 0.50152 0.46456 0.68404 0.0
O363 O 0.49468 0.47801 0.80803 0.0
O364 O 0.5404 0.49853 0.53657 0.0
O365 O 0.50847 0.47676 0.53328 0.0
O366 O 0.55155 0.49378 0.69235 0.0
O367 O 0.52299 0.50502 0.7555 0.0
H368 H 0.43507 0.53818 1.00303 0.0
H369 H 0.47472 0.5786 0.83704 0.0
H370 H 0.45364 0.61407 0.87506 0.0
H371 H 0.41317 0.57349 0.03969 0.0
H372 H 0.55428 0.4732 0.37144 0.0
H373 H 0.53666 0.44348 0.59322 0.0
H374 H 0.55713 0.4075 0.55986 0.0
H375 H 0.57613 0.43742 0.33841 0.0
Gd376 Gd 0.99461 0.48992 0.79026 0.0
Gd377 Gd 0.00853 0.51862 0.65586 0.0
C378 C 0.95354 0.51 0.67352 0.0
C379 C 0.97581 0.47251 0.91353 0.0
C380 C 0.95426 0.45926 0.93191 0.0
C381 C 0.95535 0.44049 0.98425 0.0
C382 C 0.93266 0.46497 0.89734 0.0
C383 C 0.91314 0.43402 0.97065 0.0
C384 C 0.91229 0.45253 0.9167 0.0
C385 C 0.93498 0.42794 1.00341 0.0
C386 C 0.00615 0.46383 0.66462 0.0
C387 C 0.04866 0.49846 0.77035 0.0
C388 C 0.02917 0.53123 0.53006 0.0
C389 C 0.04731 0.5181 0.48802 0.0
C390 C 0.06387 0.52959 0.44147 0.0
C391 C 0.04888 0.4937 0.49863 0.0
C392 C 0.08354 0.49216 0.4171 0.0
C393 C 0.06657 0.48081 0.46289 0.0
C394 C 0.08192 0.51671 0.40629 0.0
C395 C 0.99724 0.54511 0.78053 0.0
O396 O 0.95884 0.49878 0.73832 0.0
O397 O 0.97003 0.51896 0.6287 0.0
O398 O 0.99142 0.46128 0.87223 0.0
O399 O 0.97311 0.49446 0.89225 0.0
O400 O 0.01124 0.45801 0.735 0.0
O401 O 0.9944 0.48261 0.66434 0.0
O402 O 0.04282 0.50223 0.69746 0.0
O403 O 0.03214 0.49681 0.82347 0.0
O404 O 0.03558 0.53912 0.59787 0.0
O405 O 0.00846 0.52116 0.53122 0.0
O406 O 0.99343 0.55138 0.70951 0.0
O407 O 0.0086 0.52604 0.78182 0.0
H408 H 0.97193 0.43566 0.01083 0.0
H409 H 0.93139 0.4793 0.85638 0.0
H410 H 0.89575 0.45798 0.89127 0.0
H411 H 0.93631 0.41362 0.04443 0.0
H412 H 0.0631 0.54848 0.43361 0.0
H413 H 0.03654 0.48462 0.53564 0.0
H414 H 0.06699 0.46195 0.47159 0.0
H415 H 0.09493 0.52605 0.37233 0.0
H416 H 0.11768 0.02762 0.2109 0.0
H417 H 0.17373 0.02244 0.37884 0.0
H418 H 0.08865 0.0242 0.31393 0.0
H419 H 0.1447 0.01797 0.48149 0.0
H420 H 0.0875 0.03768 0.65558 0.0
H421 H 0.11612 0.04092 0.55085 0.0
H422 H 0.07173 0.99747 0.40635 0.0
H423 H 0.04297 0.99461 0.51098 0.0
C424 C 0.12386 0.02562 0.26974 0.0
C425 C 0.14816 0.02544 0.28626 0.0
C426 C 0.10715 0.02341 0.3289 0.0
C427 C 0.11423 0.02091 0.40641 0.0
C428 C 0.13852 0.02022 0.42274 0.0
C429 C 0.15524 0.02244 0.36357 0.0
C430 C 0.08385 0.02887 0.60133 0.0
C431 C 0.06299 0.0159 0.59153 0.0
C432 C 0.10034 0.03058 0.54137 0.0
C433 C 0.09641 0.01933 0.46998 0.0
C434 C 0.07532 0.00656 0.46007 0.0
C435 C 0.05885 1.00484 0.52016 0.0
H436 H 0.46743 0.12169 0.20508 0.0
H437 H 0.4446 0.16441 0.39704 0.0
H438 H 0.47231 0.08813 0.29275 0.0
H439 H 0.44992 0.13163 0.4839 0.0
H440 H 0.44711 0.06796 0.62828 0.0
H441 H 0.43608 0.09535 0.52615 0.0
H442 H 0.49683 0.07382 0.39344 0.0
H443 H 0.50696 0.04551 0.49421 0.0
C444 C 0.46339 0.1239 0.26579 0.0
C445 C 0.45535 0.1457 0.29369 0.0
C446 C 0.46623 0.10469 0.3162 0.0
C447 C 0.46133 0.10694 0.39581 0.0
C448 C 0.45323 0.12879 0.42302 0.0
C449 C 0.45023 0.14777 0.3729 0.0
C450 C 0.45791 0.06893 0.5768 0.0
C451 C 0.47808 0.05492 0.56971 0.0
C452 C 0.45172 0.08474 0.5183 0.0
C453 C 0.46586 0.08736 0.45188 0.0
C454 C 0.48543 0.07238 0.44331 0.0
C455 C 0.49135 0.05621 0.50134 0.0
H456 H 0.33981 0.50408 0.34175 0.0
H457 H 0.39671 0.48199 0.19327 0.0
H458 H 0.36764 0.50954 0.4477 0.0
H459 H 0.42445 0.48674 0.29999 0.0
H460 H 0.47093 0.51647 0.497 0.0
H461 H 0.44411 0.51461 0.38607 0.0
H462 H 0.39037 0.48421 0.53191 0.0
H463 H 0.41697 0.48637 0.64221 0.0
C464 C 0.3583 0.50071 0.33127 0.0
C465 C 0.36594 0.49249 0.25885 0.0
C466 C 0.37425 0.50352 0.39245 0.0
C467 C 0.39831 0.49828 0.38292 0.0
C468 C 0.40611 0.49101 0.30957 0.0
C469 C 0.39014 0.48811 0.24845 0.0
C470 C 0.4534 0.50932 0.50506 0.0
C471 C 0.44604 0.50163 0.57837 0.0
C472 C 0.43803 0.50821 0.44152 0.0
C473 C 0.41493 0.49946 0.44999 0.0
C474 C 0.40781 0.49149 0.52335 0.0
C475 C 0.42315 0.49254 0.58657 0.0
H476 H 0.02346 0.3971 0.21253 0.0
H477 H 0.01278 0.33944 0.37112 0.0
H478 H 0.01905 0.42502 0.31866 0.0
H479 H 0.00759 0.36737 0.47676 0.0
H480 H 0.02875 0.42163 0.66021 0.0
H481 H 0.03169 0.39419 0.55219 0.0
H482 H 0.99106 0.44162 0.41009 0.0
H483 H 0.98839 0.46922 0.51835 0.0
C484 C 0.02 0.39036 0.26994 0.0
C485 C 0.01859 0.36594 0.28309 0.0
C486 C 0.01726 0.40641 0.33078 0.0
C487 C 0.01311 0.39851 0.40661 0.0
C488 C 0.01111 0.37412 0.4194 0.0
C489 C 0.01377 0.35807 0.35851 0.0
C490 C 0.02044 0.42619 0.6059 0.0
C491 C 0.00828 0.44755 0.5979 0.0
C492 C 0.02199 0.41038 0.54403 0.0
C493 C 0.01146 0.41554 0.47235 0.0
C494 C 0.99952 0.4371 0.46416 0.0
C495 C 0.99789 0.45288 0.52628 0.0
H496 H 0.83551 1.00493 0.03511 0.0
H497 H 0.88999 0.99712 0.20711 0.0
H498 H 0.86491 1.00175 0.93307 0.0
H499 H 0.91941 0.9934 0.10528 0.0
H500 H 0.96804 0.01902 0.9104 0.0
H501 H 0.93893 0.01739 0.01371 0.0
H502 H 0.89215 0.97787 0.86502 0.0
H503 H 0.92109 0.98027 0.76093 0.0
C504 C 0.85371 1.00198 0.05113 0.0
C505 C 0.86038 1.0014 0.12937 0.0
C506 C 0.87065 1.00015 0.99251 0.0
C507 C 0.89471 0.99753 0.01051 0.0
C508 C 0.90119 0.99596 0.0889 0.0
C509 C 0.88428 0.99795 0.14744 0.0
C510 C 0.95158 0.00988 0.89998 0.0
C511 C 0.9468 0.99992 0.82734 0.0
C512 C 0.93489 0.00878 0.95947 0.0
C513 C 0.91302 0.99752 0.94812 0.0
C514 C 0.90856 0.98703 0.87578 0.0
C515 C 0.92522 0.98827 0.81614 0.0
H516 H 0.52568 0.88579 0.16067 0.0
H517 H 0.48897 0.83594 0.01568 0.0
H518 H 0.52729 0.91359 0.05305 0.0
H519 H 0.49009 0.86367 0.90914 0.0
H520 H 0.51008 0.90962 0.70947 0.0
H521 H 0.51399 0.88214 0.81666 0.0
H522 H 0.50316 0.93915 0.97816 0.0
H523 H 0.50013 0.96671 0.87021 0.0
C524 C 0.51799 0.88075 0.10581 0.0
C525 C 0.50736 0.85853 0.09677 0.0
C526 C 0.51881 0.89674 0.0441 0.0
C527 C 0.50886 0.89099 0.97189 0.0
C528 C 0.49843 0.86865 0.963 0.0
C529 C 0.49777 0.85266 0.02435 0.0
C530 C 0.50878 0.91629 0.76795 0.0
C531 C 0.50484 0.9403 0.78151 0.0
C532 C 0.51084 0.90051 0.82958 0.0
C533 C 0.50866 0.90826 0.90656 0.0
C534 C 0.50525 0.93249 0.91997 0.0
C535 C 0.50344 0.94833 0.85811 0.0
H536 H 0.66739 0.50903 0.05726 0.0
H537 H 0.61042 0.4975 0.21844 0.0
H538 H 0.63918 0.51228 0.95262 0.0
H539 H 0.58227 0.49903 0.11241 0.0
H540 H 0.53489 0.51815 0.9053 0.0
H541 H 0.56205 0.52093 0.01541 0.0
H542 H 0.6159 0.48656 0.87995 0.0
H543 H 0.58927 0.48474 0.77068 0.0
C544 C 0.64885 0.50743 0.07089 0.0
C545 C 0.64139 0.50277 0.14689 0.0
C546 C 0.63259 0.50888 0.01024 0.0
C547 C 0.60833 0.50541 0.02326 0.0
C548 C 0.60073 0.50181 0.09972 0.0
C549 C 0.617 0.50061 0.16064 0.0
C550 C 0.55257 0.51131 0.89944 0.0
C551 C 0.55998 0.50138 0.82925 0.0
C552 C 0.56815 0.51279 0.96255 0.0
C553 C 0.59142 0.50424 0.95676 0.0
C554 C 0.59847 0.49397 0.88651 0.0
C555 C 0.58305 0.49269 0.82377 0.0
H556 H 0.98765 0.66895 0.08067 0.0
H557 H 0.02634 0.61725 0.21238 0.0
H558 H 0.97963 0.63966 0.98232 0.0
H559 H 0.02073 0.58888 0.11039 0.0
H560 H 0.99891 0.53519 0.93499 0.0
H561 H 0.99885 0.56289 0.04255 0.0
H562 H 0.99575 0.62073 0.88017 0.0
H563 H 0.99383 0.59286 0.7742 0.0
C564 C 0.99444 0.65137 0.08917 0.0
C565 C 0.008 0.64584 0.15483 0.0
C566 C 0.99023 0.63453 0.03146 0.0
C567 C 0.99986 0.61172 0.03653 0.0
C568 C 0.01273 0.60601 0.10354 0.0
C569 C 0.01642 0.62263 0.162 0.0
C570 C 0.99788 0.55385 0.92277 0.0
C571 C 0.99635 0.56184 0.84625 0.0
C572 C 0.99811 0.56987 0.98447 0.0
C573 C 0.99752 0.59438 0.97117 0.0
C574 C 0.99574 0.60218 0.89401 0.0
C575 C 0.99486 0.58614 0.83266 0.0
H576 H 0.09802 0.21982 0.32212 0.0
H577 H 0.0737 0.19443 0.10053 0.0
H578 H 0.08726 0.18217 0.38059 0.0
H579 H 0.06301 0.15718 0.15849 0.0
H580 H 0.04933 0.08883 0.27802 0.0
H581 H 0.07304 0.12094 0.2255 0.0
H582 H 0.0478 0.16683 0.4064 0.0
H583 H 0.02488 0.13461 0.46034 0.0
C584 C 0.09101 0.20601 0.28556 0.0
C585 C 0.08656 0.21021 0.20689 0.0
C586 C 0.08474 0.18452 0.31903 0.0
C587 C 0.07391 0.16686 0.2744 0.0
C588 C 0.07148 0.17031 0.19445 0.0
C589 C 0.07774 0.19173 0.16105 0.0
C590 C 0.04917 0.10568 0.30722 0.0
C591 C 0.03501 0.10929 0.37276 0.0
C592 C 0.06267 0.12408 0.27697 0.0
C593 C 0.06233 0.14642 0.3118 0.0
C594 C 0.04875 0.14976 0.37878 0.0
C595 C 0.03526 0.13141 0.40892 0.0
H596 H 0.31908 0.11886 0.14387 0.0
H597 H 0.29158 0.0725 0.32073 0.0
H598 H 0.35848 0.11451 0.19883 0.0
H599 H 0.33027 0.06952 0.37699 0.0
H600 H 0.40043 0.06597 0.4753 0.0
H601 H 0.36634 0.08928 0.43671 0.0
H602 H 0.38205 0.07543 0.197 0.0
H603 H 0.41578 0.05171 0.23534 0.0
C604 C 0.32118 0.10826 0.19534 0.0
C605 C 0.30202 0.09557 0.22632 0.0
C606 C 0.34374 0.10597 0.22706 0.0
C607 C 0.34743 0.09152 0.29164 0.0
C608 C 0.32794 0.08098 0.32758 0.0
C609 C 0.30556 0.08283 0.29511 0.0
C610 C 0.39685 0.06826 0.41428 0.0
C611 C 0.41033 0.05638 0.35838 0.0
C612 C 0.37747 0.08176 0.39231 0.0
C613 C 0.37139 0.08386 0.31402 0.0
C614 C 0.3864 0.07421 0.25781 0.0
C615 C 0.40571 0.06054 0.27981 0.0
H616 H 0.52956 0.28751 0.45715 0.0
H617 H 0.55962 0.2856 0.2282 0.0
H618 H 0.55468 0.32078 0.48968 0.0
H619 H 0.58509 0.31872 0.26106 0.0
H620 H 0.56427 0.39937 0.30316 0.0
H621 H 0.56628 0.35799 0.27356 0.0
H622 H 0.5923 0.34365 0.50325 0.0
H623 H 0.59116 0.38566 0.5326 0.0
C624 C 0.54229 0.29358 0.41498 0.0
C625 C 0.54226 0.28441 0.3397 0.0
C626 C 0.55687 0.31252 0.43374 0.0
C627 C 0.5715 0.32267 0.37723 0.0
C628 C 0.57375 0.31141 0.30534 0.0
C629 C 0.55923 0.29237 0.2867 0.0
C630 C 0.57159 0.38773 0.34641 0.0
C631 C 0.57683 0.39586 0.42119 0.0
C632 C 0.57277 0.36381 0.32926 0.0
C633 C 0.57898 0.34749 0.3867 0.0
C634 C 0.58707 0.35584 0.45833 0.0
C635 C 0.5862 0.37987 0.47522 0.0
H636 H 0.18943 0.43026 0.11874 0.0
H637 H 0.21881 0.42857 0.34922 0.0
H638 H 0.15124 0.4403 0.17162 0.0
H639 H 0.18089 0.44025 0.40175 0.0
H640 H 0.10783 0.45567 0.4826 0.0
H641 H 0.14041 0.43357 0.42788 0.0
H642 H 0.13736 0.47658 0.2221 0.0
H643 H 0.10378 0.49759 0.27464 0.0
C644 C 0.18765 0.43133 0.18093 0.0
C645 C 0.20733 0.42891 0.22971 0.0
C646 C 0.16578 0.43756 0.21114 0.0
C647 C 0.16314 0.44176 0.29064 0.0
C648 C 0.18226 0.43722 0.34015 0.0
C649 C 0.20409 0.43071 0.31 0.0
C650 C 0.11375 0.46007 0.4249 0.0
C651 C 0.10317 0.47845 0.38298 0.0
C652 C 0.13262 0.44754 0.39392 0.0
C653 C 0.14153 0.45324 0.32061 0.0
C654 C 0.13072 0.47139 0.27821 0.0
C655 C 0.1117 0.48377 0.3089 0.0
H656 H 0.06992 0.78289 0.07043 0.0
H657 H 0.12487 0.80221 0.23189 0.0
H658 H 0.07687 0.81866 0.99873 0.0
H659 H 0.13116 0.8388 0.16062 0.0
H660 H 0.09015 0.91063 0.10734 0.0
H661 H 0.10223 0.87247 0.15567 0.0
H662 H 0.10352 0.84526 0.92276 0.0
H663 H 0.09191 0.88381 0.87361 0.0
C664 C 0.08411 0.79427 0.0893 0.0
C665 C 0.09656 0.78973 0.15802 0.0
C666 C 0.08807 0.81492 0.04791 0.0
C667 C 0.10437 0.83165 0.07461 0.0
C668 C 0.11827 0.82629 0.13939 0.0
C669 C 0.11453 0.80542 0.18038 0.0
C670 C 0.09388 0.89685 0.06592 0.0
C671 C 0.0896 0.90019 0.98665 0.0
C672 C 0.10086 0.87492 0.09376 0.0
C673 C 0.10357 0.85583 0.043 0.0
C674 C 0.10127 0.85964 0.96318 0.0
C675 C 0.09446 0.88165 0.93522 0.0
H676 H 0.73103 0.10032 0.07574 0.0
H677 H 0.69278 0.08125 0.28223 0.0
H678 H 0.69382 0.10355 0.00531 0.0
H679 H 0.65604 0.08416 0.21259 0.0
H680 H 0.5906 0.09209 0.08397 0.0
H681 H 0.62683 0.1055 0.14452 0.0
H682 H 0.66708 0.07391 0.95987 0.0
H683 H 0.63079 0.06191 0.89658 0.0
C684 C 0.71468 0.09734 0.10645 0.0
C685 C 0.71487 0.09038 0.18439 0.0
C686 C 0.69339 0.09909 0.06613 0.0
C687 C 0.67194 0.09381 0.10295 0.0
C688 C 0.67212 0.08868 0.1824 0.0
C689 C 0.69331 0.08702 0.22261 0.0
C690 C 0.60711 0.08864 0.05489 0.0
C691 C 0.60777 0.07556 0.98591 0.0
C692 C 0.62793 0.09613 0.09015 0.0
C693 C 0.64991 0.09048 0.05781 0.0
C694 C 0.6505 0.07872 0.98631 0.0
C695 C 0.62967 0.07145 0.95062 0.0
H696 H 0.43673 0.73816 0.06452 0.0
H697 H 0.38793 0.71546 0.2411 0.0
H698 H 0.42993 0.70204 0.99396 0.0
H699 H 0.38131 0.67887 0.17014 0.0
H700 H 0.4167 0.6347 0.87584 0.0
H701 H 0.40524 0.67328 0.92539 0.0
H702 H 0.41022 0.64681 0.15876 0.0
H703 H 0.42188 0.60864 0.10982 0.0
C704 C 0.42377 0.72593 0.08684 0.0
C705 C 0.41323 0.72954 0.15939 0.0
C706 C 0.41988 0.70509 0.04618 0.0
C707 C 0.40543 0.68739 0.07724 0.0
C708 C 0.39292 0.69203 0.14561 0.0
C709 C 0.39673 0.71296 0.18622 0.0
C710 C 0.41504 0.63707 0.93769 0.0
C711 C 0.42057 0.61867 0.98889 0.0
C712 C 0.40834 0.65911 0.96596 0.0
C713 C 0.40694 0.66313 0.04595 0.0
C714 C 0.41076 0.64424 0.09677 0.0
C715 C 0.41754 0.62229 0.0686 0.0
H716 H 0.79252 0.38606 0.23928 0.0
H717 H 0.77259 0.44099 0.07927 0.0
H718 H 0.82937 0.38072 0.16858 0.0
H719 H 0.80869 0.43509 0.00837 0.0
H720 H 0.8746 0.42144 0.88389 0.0
H721 H 0.83579 0.40999 0.93186 0.0
H722 H 0.86292 0.40931 0.16501 0.0
H723 H 0.9014 0.42109 0.11773 0.0
C724 C 0.79566 0.39659 0.18817 0.0
C725 C 0.77968 0.41426 0.16607 0.0
C726 C 0.81671 0.39343 0.14756 0.0
C727 C 0.82202 0.40766 0.08351 0.0
C728 C 0.80504 0.42366 0.057 0.0
C729 C 0.78418 0.427 0.09791 0.0
C730 C 0.87234 0.41853 0.94528 0.0
C731 C 0.89101 0.42261 0.99711 0.0
C732 C 0.85017 0.41183 0.9726 0.0
C733 C 0.84628 0.40893 0.05219 0.0
C734 C 0.86541 0.41112 0.10325 0.0
C735 C 0.88752 0.41794 0.07604 0.0
H736 H 0.03327 0.18389 0.0225 0.0
H737 H 0.99462 0.20732 0.82204 0.0
H738 H 0.03177 0.14368 0.97518 0.0
H739 H 0.99263 0.16681 0.77499 0.0
H740 H 0.01379 0.09475 0.67509 0.0
H741 H 0.01499 0.13547 0.72065 0.0
H742 H 0.00703 0.11115 0.95576 0.0
H743 H 0.00668 0.07073 0.91059 0.0
C744 C 0.02402 0.1804 0.96893 0.0
C745 C 0.01389 0.19892 0.92653 0.0
C746 C 0.02317 0.15723 0.94156 0.0
C747 C 0.012 0.15174 0.87105 0.0
C748 C 1.0017 0.17027 0.82885 0.0
C749 C 1.00272 0.19354 0.85606 0.0
C750 C 0.01241 0.09814 0.73652 0.0
C751 C 0.01032 0.07938 0.7891 0.0
C752 C 0.0129 0.12154 0.76274 0.0
C753 C 0.01118 0.12682 0.84221 0.0
C754 C 0.00889 0.10796 0.89439 0.0
C755 C 0.00856 0.08465 0.86831 0.0
H756 H 0.30517 0.03225 0.81254 0.0
H757 H 0.31923 0.97936 0.98564 0.0
H758 H 0.34443 0.02681 0.75975 0.0
H759 H 0.35874 0.97405 0.93284 0.0
H760 H 0.41136 0.99971 0.64529 0.0
H761 H 0.3707 1.00042 0.69136 0.0
H762 H 0.39548 0.99569 0.92682 0.0
H763 H 0.43594 0.99455 0.88093 0.0
C764 C 0.31641 0.01907 0.83851 0.0
C765 C 0.30882 0.00623 0.90357 0.0
C766 C 0.33906 0.01599 0.80815 0.0
C767 C 0.35491 1.00005 0.84201 0.0
C768 C 0.34718 0.98677 0.90591 0.0
C769 C 0.32446 0.98981 0.93622 0.0
C770 C 0.40814 0.99861 0.70683 0.0
C771 C 0.42704 0.99712 0.75924 0.0
C772 C 0.38479 0.99917 0.73336 0.0
C773 C 0.37969 0.99814 0.81298 0.0
C774 C 0.39861 0.9962 0.86513 0.0
C775 C 0.42191 0.99574 0.83869 0.0
H776 H 0.50366 0.30917 0.86419 0.0
H777 H 0.44281 0.33555 0.98601 0.0
H778 H 0.5107 0.34846 0.81093 0.0
H779 H 0.44939 0.37431 0.93111 0.0
H780 H 0.48408 0.44588 0.90261 0.0
H781 H 0.47752 0.40595 0.9481 0.0
H782 H 0.49527 0.37896 0.72235 0.0
H783 H 0.50216 0.41915 0.67663 0.0
C784 C 0.49165 0.32322 0.8791 0.0
C785 C 0.47263 0.31901 0.92953 0.0
C786 C 0.49559 0.34574 0.84805 0.0
C787 C 0.48075 0.3647 0.86717 0.0
C788 C 0.46142 0.3603 0.91593 0.0
C789 C 0.45743 0.33786 0.94658 0.0
C790 C 0.48666 0.43151 0.86242 0.0
C791 C 0.49357 0.43588 0.78569 0.0
C792 C 0.48272 0.40852 0.88849 0.0
C793 C 0.48562 0.38913 0.83882 0.0
C794 C 0.49296 0.39342 0.76237 0.0
C795 C 0.4968 0.41651 0.73605 0.0
H796 H 0.20305 0.49359 0.78857 0.0
H797 H 0.18116 0.49268 0.02772 0.0
H798 H 0.16223 0.49478 0.74838 0.0
H799 H 0.14051 0.49636 0.98773 0.0
H800 H 0.06753 0.47864 0.90047 0.0
H801 H 0.10869 0.47691 0.93897 0.0
H802 H 0.12807 0.51513 0.7323 0.0
H803 H 0.08701 0.51533 0.69192 0.0
C804 C 0.18963 0.49385 0.83293 0.0
C805 C 0.19582 0.49283 0.91176 0.0
C806 C 0.16598 0.49495 0.80966 0.0
C807 C 0.1476 0.49556 0.86436 0.0
C808 C 0.15385 0.49537 0.94324 0.0
C809 C 0.17747 0.49379 0.96648 0.0
C810 C 0.08064 0.48654 0.86309 0.0
C811 C 0.07393 0.49705 0.793 0.0
C812 C 0.10437 0.4858 0.88556 0.0
C813 C 0.12214 0.49604 0.83946 0.0
C814 C 0.11526 0.50661 0.76919 0.0
C815 C 0.09157 0.50688 0.74598 0.0
H816 H 0.98739 0.80716 0.59659 0.0
H817 H 0.01818 0.83322 0.385 0.0
H818 H 0.98435 0.84741 0.64491 0.0
H819 H 0.01488 0.87329 0.4329 0.0
H820 H 0.98772 0.94436 0.51329 0.0
H821 H 0.98711 0.90403 0.46591 0.0
H822 H 0.01 0.87934 0.68955 0.0
H823 H 0.01022 0.91973 0.73751 0.0
C824 C 0.99346 0.82141 0.56017 0.0
C825 C 1.00301 0.81675 0.48662 0.0
C826 C 0.99175 0.84454 0.58803 0.0
C827 C 0.99943 0.86369 0.54303 0.0
C828 C 0.00845 0.85908 0.46885 0.0
C829 C 0.01025 0.83599 0.44115 0.0
C830 C 0.99251 0.93037 0.55272 0.0
C831 C 0.99915 0.93545 0.62935 0.0
C832 C 0.99229 0.90718 0.52526 0.0
C833 C 0.99861 0.88833 0.57363 0.0
C834 C 1.0048 0.89334 0.65074 0.0
C835 C 1.00511 0.91658 0.67817 0.0
H836 H 0.6948 0.03262 0.56075 0.0
H837 H 0.68361 0.97156 0.4171 0.0
H838 H 0.6542 0.03059 0.60468 0.0
H839 H 0.643 0.96896 0.46279 0.0
H840 H 0.56504 0.98641 0.49204 0.0
H841 H 0.60606 0.98692 0.45244 0.0
H842 H 0.62623 0.01089 0.68017 0.0
H843 H 0.58494 0.01127 0.71876 0.0
C844 C 0.68377 0.01843 0.53966 0.0
C845 C 0.69257 1.00219 0.48556 0.0
C846 C 0.66038 0.01722 0.56505 0.0
C847 C 0.64505 0.9996 0.53763 0.0
C848 C 0.65401 0.98308 0.48438 0.0
C849 C 0.67738 0.98446 0.45834 0.0
C850 C 0.57819 0.99175 0.5339 0.0
C851 C 0.57155 0.99886 0.60868 0.0
C852 C 0.60187 0.99188 0.51123 0.0
C853 C 0.61974 0.9989 0.56285 0.0
C854 C 0.61308 0.00574 0.63809 0.0
C855 C 0.58933 0.00584 0.66053 0.0
H856 H 0.49409 0.68044 0.3772 0.0
H857 H 0.52639 0.7068 0.58633 0.0
H858 H 0.49596 0.64065 0.42793 0.0
H859 H 0.52775 0.66678 0.63776 0.0
H860 H 0.49828 0.59554 0.73243 0.0
H861 H 0.5 0.63578 0.68312 0.0
H862 H 0.52412 0.60969 0.46271 0.0
H863 H 0.52218 0.56956 0.5114 0.0
C864 C 0.50202 0.67779 0.43344 0.0
C865 C 0.51023 0.69704 0.47721 0.0
C866 C 0.50297 0.65488 0.46275 0.0
C867 C 0.51199 0.65045 0.53701 0.0
C868 C 0.52041 0.66958 0.58072 0.0
C869 C 0.51963 0.69255 0.55113 0.0
C870 C 0.504 0.59836 0.67354 0.0
C871 C 0.50993 0.57918 0.62594 0.0
C872 C 0.50516 0.62148 0.6454 0.0
C873 C 0.5121 0.62601 0.56876 0.0
C874 C 0.51841 0.60686 0.52168 0.0
C875 C 0.51741 0.5838 0.5499 0.0
H876 H 0.80121 0.49454 0.61015 0.0
H877 H 0.826 0.5253 0.39664 0.0
H878 H 0.84026 0.49806 0.6645 0.0
H879 H 0.86563 0.52657 0.44843 0.0
H880 H 0.93355 0.54182 0.57469 0.0
H881 H 0.893 0.54324 0.52911 0.0
H882 H 0.87686 0.4814 0.66496 0.0
H883 H 0.91701 0.48102 0.71366 0.0
C884 C 0.81484 0.50224 0.57453 0.0
C885 C 0.81002 0.50961 0.49837 0.0
C886 C 0.8376 0.50378 0.60551 0.0
C887 C 0.85656 0.51229 0.56106 0.0
C888 C 0.85168 0.52011 0.4854 0.0
C889 C 0.8288 0.519 0.4549 0.0
C890 C 0.92123 0.52866 0.59525 0.0
C891 C 0.92854 0.51136 0.64805 0.0
C892 C 0.89791 0.52932 0.56854 0.0
C893 C 0.88128 0.51238 0.59259 0.0
C894 C 0.88873 0.49513 0.64591 0.0
C895 C 0.91192 0.49478 0.67376 0.0
loop_
_geom_bond_atom_site_label_1
_geom_bond_atom_site_label_2
_geom_bond_distance
_geom_bond_site_symmetry_2
_ccdc_geom_bond_type
P0 O11 1.490 . S
P0 C14 1.812 . S
P0 C20 1.803 . S
P0 C26 1.819 . S
H1 C15 0.941 . S
H2 C16 0.939 . S
H3 C18 0.940 . S
H4 C19 0.940 . S
H5 C21 0.939 . S
H6 C22 0.942 . S
H7 C24 0.940 . S
H8 C25 0.939 . S
H9 C27 0.941 . S
H10 C31 0.939 . S
O11 P0 1.490 . S
H12 C28 0.939 . S
H13 C30 0.940 . S
C14 P0 1.812 . S
C14 C15 1.389 . S
C14 C19 1.391 . S
C15 H1 0.941 . S
C15 C14 1.389 . S
C15 C16 1.397 . S
C16 H2 0.939 . S
C16 C15 1.397 . S
C16 C17 1.378 . S
C17 C16 1.378 . S
C17 C18 1.378 . S
C18 H3 0.940 . S
C18 C17 1.378 . S
C18 C19 1.396 . S
C19 H4 0.940 . S
C19 C14 1.391 . S
C19 C18 1.396 . S
C20 P0 1.803 . S
C20 C21 1.378 . S
C20 C25 1.400 . S
C21 H5 0.939 . S
C21 C20 1.378 . S
C21 C22 1.361 . S
C22 H6 0.942 . S
C22 C21 1.361 . S
C22 C23 1.369 . S
C23 C22 1.369 . S
C23 C24 1.404 . S
C24 H7 0.940 . S
C24 C23 1.404 . S
C24 C25 1.389 . S
C25 H8 0.939 . S
C25 C20 1.400 . S
C25 C24 1.389 . S
C26 P0 1.819 . S
C26 C27 1.391 . S
C26 C31 1.391 . S
C27 H9 0.941 . S
C27 C26 1.391 . S
C27 C28 1.396 . S
C28 H12 0.939 . S
C28 C27 1.396 . S
C28 C29 1.397 . S
C29 C28 1.397 . S
C29 C30 1.385 . S
C30 H13 0.940 . S
C30 C29 1.385 . S
C30 C31 1.388 . S
C31 H10 0.939 . S
C31 C26 1.391 . S
C31 C30 1.388 . S
P32 O43 1.490 . S
P32 C46 1.812 . S
P32 C52 1.803 . S
P32 C58 1.819 . S
H33 C47 0.941 . S
H34 C48 0.939 . S
H35 C50 0.940 . S
H36 C51 0.940 . S
H37 C53 0.939 . S
H38 C54 0.942 . S
H39 C56 0.940 . S
H40 C57 0.939 . S
H41 C59 0.941 . S
H42 C63 0.939 1_655 S
O43 P32 1.490 . S
H44 C60 0.939 . S
H45 C62 0.940 . S
C46 P32 1.812 . S
C46 C47 1.389 . S
C46 C51 1.391 1_455 S
C47 H33 0.941 . S
C47 C46 1.389 . S
C47 C48 1.397 . S
C48 H34 0.939 . S
C48 C47 1.397 . S
C48 C49 1.378 . S
C49 C48 1.378 . S
C49 C50 1.378 1_455 S
C50 H35 0.940 . S
C50 C49 1.378 1_655 S
C50 C51 1.396 . S
C51 H36 0.940 . S
C51 C46 1.391 1_655 S
C51 C50 1.396 . S
C52 P32 1.803 . S
C52 C53 1.378 . S
C52 C57 1.400 1_455 S
C53 H37 0.939 . S
C53 C52 1.378 . S
C53 C54 1.361 . S
C54 H38 0.942 . S
C54 C53 1.361 . S
C54 C55 1.369 . S
C55 C54 1.369 . S
C55 C56 1.404 1_455 S
C56 H39 0.940 . S
C56 C55 1.404 1_655 S
C56 C57 1.389 . S
C57 H40 0.939 . S
C57 C52 1.400 1_655 S
C57 C56 1.389 . S
C58 P32 1.819 . S
C58 C59 1.391 . S
C58 C63 1.391 . S
C59 H41 0.941 . S
C59 C58 1.391 . S
C59 C60 1.396 . S
C60 H44 0.939 . S
C60 C59 1.396 . S
C60 C61 1.397 . S
C61 C60 1.397 . S
C61 C62 1.385 1_455 S
C62 H45 0.940 . S
C62 C61 1.385 1_655 S
C62 C63 1.388 1_655 S
C63 H42 0.939 1_455 S
C63 C58 1.391 . S
C63 C62 1.388 1_455 S
P64 O75 1.490 . S
P64 C78 1.812 . S
P64 C84 1.803 . S
P64 C90 1.819 . S
H65 C79 0.941 . S
H66 C80 0.939 . S
H67 C82 0.940 . S
H68 C83 0.940 . S
H69 C85 0.939 . S
H70 C86 0.942 . S
H71 C88 0.940 . S
H72 C89 0.939 . S
H73 C91 0.941 . S
H74 C95 0.939 1_565 S
O75 P64 1.490 . S
H76 C92 0.939 . S
H77 C94 0.940 . S
C78 P64 1.812 . S
C78 C79 1.389 . S
C78 C83 1.391 1_545 S
C79 H65 0.941 . S
C79 C78 1.389 . S
C79 C80 1.397 . S
C80 H66 0.939 . S
C80 C79 1.397 . S
C80 C81 1.378 . S
C81 C80 1.378 . S
C81 C82 1.378 1_545 S
C82 H67 0.940 . S
C82 C81 1.378 1_565 S
C82 C83 1.396 . S
C83 H68 0.940 . S
C83 C78 1.391 1_565 S
C83 C82 1.396 . S
C84 P64 1.803 . S
C84 C85 1.378 . S
C84 C89 1.400 1_545 S
C85 H69 0.939 . S
C85 C84 1.378 . S
C85 C86 1.361 . S
C86 H70 0.942 . S
C86 C85 1.361 . S
C86 C87 1.369 . S
C87 C86 1.369 . S
C87 C88 1.404 1_545 S
C88 H71 0.940 . S
C88 C87 1.404 1_565 S
C88 C89 1.389 . S
C89 H72 0.939 . S
C89 C84 1.400 1_565 S
C89 C88 1.389 . S
C90 P64 1.819 . S
C90 C91 1.391 . S
C90 C95 1.391 . S
C91 H73 0.941 . S
C91 C90 1.391 . S
C91 C92 1.396 . S
C92 H76 0.939 . S
C92 C91 1.396 . S
C92 C93 1.397 . S
C93 C92 1.397 . S
C93 C94 1.385 1_545 S
C94 H77 0.940 . S
C94 C93 1.385 1_565 S
C94 C95 1.388 1_565 S
C95 H74 0.939 1_545 S
C95 C90 1.391 . S
C95 C94 1.388 1_545 S
P96 O107 1.490 . S
P96 C110 1.812 . S
P96 C116 1.803 . S
P96 C122 1.819 . S
H97 C111 0.941 . S
H98 C112 0.939 . S
H99 C114 0.940 . S
H100 C115 0.940 . S
H101 C117 0.939 . S
H102 C118 0.942 . S
H103 C120 0.940 . S
H104 C121 0.939 . S
H105 C123 0.941 . S
H106 C127 0.939 . S
O107 P96 1.490 . S
H108 C124 0.939 . S
H109 C126 0.940 . S
C110 P96 1.812 . S
C110 C111 1.389 . S
C110 C115 1.391 . S
C111 H97 0.941 . S
C111 C110 1.389 . S
C111 C112 1.397 . S
C112 H98 0.939 . S
C112 C111 1.397 . S
C112 C113 1.378 . S
C113 C112 1.378 . S
C113 C114 1.378 . S
C114 H99 0.940 . S
C114 C113 1.378 . S
C114 C115 1.396 . S
C115 H100 0.940 . S
C115 C110 1.391 . S
C115 C114 1.396 . S
C116 P96 1.803 . S
C116 C117 1.378 . S
C116 C121 1.400 . S
C117 H101 0.939 . S
C117 C116 1.378 . S
C117 C118 1.361 . S
C118 H102 0.942 . S
C118 C117 1.361 . S
C118 C119 1.369 . S
C119 C118 1.369 . S
C119 C120 1.404 . S
C120 H103 0.940 . S
C120 C119 1.404 . S
C120 C121 1.389 . S
C121 H104 0.939 . S
C121 C116 1.400 . S
C121 C120 1.389 . S
C122 P96 1.819 . S
C122 C123 1.391 . S
C122 C127 1.391 . S
C123 H105 0.941 . S
C123 C122 1.391 . S
C123 C124 1.396 . S
C124 H108 0.939 . S
C124 C123 1.396 . S
C124 C125 1.397 . S
C125 C124 1.397 . S
C125 C126 1.385 . S
C126 H109 0.940 . S
C126 C125 1.385 . S
C126 C127 1.388 . S
C127 H106 0.939 . S
C127 C122 1.391 . S
C127 C126 1.388 . S
P128 O139 1.490 . S
P128 C142 1.812 1_554 S
P128 C148 1.803 . S
P128 C154 1.819 . S
H129 C143 0.941 . S
H130 C144 0.939 . S
H131 C146 0.940 . S
H132 C147 0.940 . S
H133 C149 0.939 . S
H134 C150 0.942 . S
H135 C152 0.940 . S
H136 C153 0.939 1_556 S
H137 C155 0.941 . S
H138 C159 0.939 . S
O139 P128 1.490 . S
H140 C156 0.939 . S
H141 C158 0.940 . S
C142 P128 1.812 1_556 S
C142 C143 1.389 . S
C142 C147 1.391 . S
C143 H129 0.941 . S
C143 C142 1.389 . S
C143 C144 1.397 . S
C144 H130 0.939 . S
C144 C143 1.397 . S
C144 C145 1.378 . S
C145 C144 1.378 . S
C145 C146 1.378 . S
C146 H131 0.940 . S
C146 C145 1.378 . S
C146 C147 1.396 . S
C147 H132 0.940 . S
C147 C142 1.391 . S
C147 C146 1.396 . S
C148 P128 1.803 . S
C148 C149 1.378 . S
C148 C153 1.400 . S
C149 H133 0.939 . S
C149 C148 1.378 . S
C149 C150 1.361 . S
C150 H134 0.942 . S
C150 C149 1.361 . S
C150 C151 1.369 . S
C151 C150 1.369 . S
C151 C152 1.404 . S
C152 H135 0.940 . S
C152 C151 1.404 . S
C152 C153 1.389 . S
C153 H136 0.939 1_554 S
C153 C148 1.400 . S
C153 C152 1.389 . S
C154 P128 1.819 . S
C154 C155 1.391 . S
C154 C159 1.391 . S
C155 H137 0.941 . S
C155 C154 1.391 . S
C155 C156 1.396 . S
C156 H140 0.939 . S
C156 C155 1.396 . S
C156 C157 1.397 . S
C157 C156 1.397 . S
C157 C158 1.385 . S
C158 H141 0.940 . S
C158 C157 1.385 . S
C158 C159 1.388 . S
C159 H138 0.939 . S
C159 C154 1.391 . S
C159 C158 1.388 . S
P160 O171 1.490 . S
P160 C174 1.812 1_554 S
P160 C180 1.803 . S
P160 C186 1.819 . S
H161 C175 0.941 . S
H162 C176 0.939 . S
H163 C178 0.940 . S
H164 C179 0.940 1_655 S
H165 C181 0.939 . S
H166 C182 0.942 . S
H167 C184 0.940 . S
H168 C185 0.939 1_656 S
H169 C187 0.941 . S
H170 C191 0.939 . S
O171 P160 1.490 . S
H172 C188 0.939 . S
H173 C190 0.940 . S
C174 P160 1.812 1_556 S
C174 C175 1.389 . S
C174 C179 1.391 . S
C175 H161 0.941 . S
C175 C174 1.389 . S
C175 C176 1.397 . S
C176 H162 0.939 . S
C176 C175 1.397 . S
C176 C177 1.378 . S
C177 C176 1.378 . S
C177 C178 1.378 1_455 S
C178 H163 0.940 . S
C178 C177 1.378 1_655 S
C178 C179 1.396 1_655 S
C179 H164 0.940 1_455 S
C179 C174 1.391 . S
C179 C178 1.396 1_455 S
C180 P160 1.803 . S
C180 C181 1.378 . S
C180 C185 1.400 . S
C181 H165 0.939 . S
C181 C180 1.378 . S
C181 C182 1.361 . S
C182 H166 0.942 . S
C182 C181 1.361 . S
C182 C183 1.369 . S
C183 C182 1.369 . S
C183 C184 1.404 1_455 S
C184 H167 0.940 . S
C184 C183 1.404 1_655 S
C184 C185 1.389 1_655 S
C185 H168 0.939 1_454 S
C185 C180 1.400 . S
C185 C184 1.389 1_455 S
C186 P160 1.819 . S
C186 C187 1.391 . S
C186 C191 1.391 . S
C187 H169 0.941 . S
C187 C186 1.391 . S
C187 C188 1.396 . S
C188 H172 0.939 . S
C188 C187 1.396 . S
C188 C189 1.397 . S
C189 C188 1.397 . S
C189 C190 1.385 1_455 S
C190 H173 0.940 . S
C190 C189 1.385 1_655 S
C190 C191 1.388 1_655 S
C191 H170 0.939 . S
C191 C186 1.391 . S
C191 C190 1.388 1_455 S
P192 O203 1.490 . S
P192 C206 1.812 1_554 S
P192 C212 1.803 . S
P192 C218 1.819 . S
H193 C207 0.941 . S
H194 C208 0.939 . S
H195 C210 0.940 . S
H196 C211 0.940 1_565 S
H197 C213 0.939 . S
H198 C214 0.942 . S
H199 C216 0.940 . S
H200 C217 0.939 1_566 S
H201 C219 0.941 . S
H202 C223 0.939 . S
O203 P192 1.490 . S
H204 C220 0.939 . S
H205 C222 0.962 . S
C206 P192 1.812 1_556 S
C206 C207 1.389 . S
C206 C211 1.391 . S
C207 H193 0.941 . S
C207 C206 1.389 . S
C207 C208 1.397 . S
C208 H194 0.939 . S
C208 C207 1.397 . S
C208 C209 1.378 . S
C209 C208 1.378 . S
C209 C210 1.378 1_545 S
C210 H195 0.940 . S
C210 C209 1.378 1_565 S
C210 C211 1.396 1_565 S
C211 H196 0.940 1_545 S
C211 C206 1.391 . S
C211 C210 1.396 1_545 S
C212 P192 1.803 . S
C212 C213 1.378 . S
C212 C217 1.400 . S
C213 H197 0.939 . S
C213 C212 1.378 . S
C213 C214 1.361 . S
C214 H198 0.942 . S
C214 C213 1.361 . S
C214 C215 1.369 . S
C215 C214 1.369 . S
C215 C216 1.404 1_545 S
C216 H199 0.940 . S
C216 C215 1.404 1_565 S
C216 C217 1.389 1_565 S
C217 H200 0.939 1_544 S
C217 C212 1.400 . S
C217 C216 1.389 1_545 S
C218 P192 1.819 . S
C218 C219 1.391 . S
C218 C223 1.391 . S
C219 H201 0.941 . S
C219 C218 1.391 . S
C219 C220 1.396 . S
C220 H204 0.939 . S
C220 C219 1.396 . S
C220 C221 1.397 . S
C221 C220 1.397 . S
C221 C222 1.374 1_545 S
C222 H205 0.962 . S
C222 C221 1.374 1_565 S
C222 C223 1.378 1_565 S
C223 H202 0.939 . S
C223 C218 1.391 . S
C223 C222 1.378 1_545 S
P224 O235 1.490 . S
P224 C238 1.812 1_554 S
P224 C244 1.803 . S
P224 C250 1.819 . S
H225 C239 0.941 . S
H226 C240 0.939 . S
H227 C242 0.940 . S
H228 C243 0.940 . S
H229 C245 0.939 . S
H230 C246 0.942 . S
H231 C248 0.940 . S
H232 C249 0.939 1_556 S
H233 C251 0.941 . S
H234 C255 0.939 . S
O235 P224 1.490 . S
H236 C252 0.939 . S
H237 C254 0.940 . S
C238 P224 1.812 1_556 S
C238 C239 1.389 . S
C238 C243 1.391 . S
C239 H225 0.941 . S
C239 C238 1.389 . S
C239 C240 1.397 . S
C240 H226 0.939 . S
C240 C239 1.397 . S
C240 C241 1.378 . S
C241 C240 1.378 . S
C241 C242 1.378 . S
C242 H227 0.940 . S
C242 C241 1.378 . S
C242 C243 1.396 . S
C243 H228 0.940 . S
C243 C238 1.391 . S
C243 C242 1.396 . S
C244 P224 1.803 . S
C244 C245 1.378 . S
C244 C249 1.400 . S
C245 H229 0.939 . S
C245 C244 1.378 . S
C245 C246 1.361 . S
C246 H230 0.942 . S
C246 C245 1.361 . S
C246 C247 1.369 . S
C247 C246 1.369 . S
C247 C248 1.404 . S
C248 H231 0.940 . S
C248 C247 1.404 . S
C248 C249 1.389 . S
C249 H232 0.939 1_554 S
C249 C244 1.400 . S
C249 C248 1.389 . S
C250 P224 1.819 . S
C250 C251 1.391 . S
C250 C255 1.391 . S
C251 H233 0.941 . S
C251 C250 1.391 . S
C251 C252 1.396 . S
C252 H236 0.939 . S
C252 C251 1.396 . S
C252 C253 1.397 . S
C253 C252 1.397 . S
C253 C254 1.385 . S
C254 H237 0.940 . S
C254 C253 1.385 . S
C254 C255 1.388 . S
C255 H234 0.939 . S
C255 C250 1.391 . S
C255 C254 1.388 . S
Gd256 C259 2.818 . S
Gd256 O276 2.377 . S
Gd256 O278 2.448 . S
Gd256 O279 2.506 . S
Gd256 O280 2.435 . S
Gd256 O281 2.717 1_565 S
Gd256 O283 2.395 1_565 S
Gd256 O287 2.327 1_455 S
Gd257 C268 2.818 . S
Gd257 O277 2.395 1_545 S
Gd257 O281 2.327 1_655 S
Gd257 O282 2.377 . S
Gd257 O284 2.448 . S
Gd257 O285 2.506 . S
Gd257 O286 2.435 . S
Gd257 O287 2.717 1_545 S
C258 O276 1.240 1_655 S
C258 O277 1.240 . S
C259 Gd256 2.818 . S
C259 C260 1.510 . S
C259 O278 1.249 . S
C259 O279 1.252 . S
C260 C259 1.510 . S
C260 C261 1.404 . S
C260 C262 1.352 . S
C261 C260 1.404 . S
C261 C265 1.389 . S
C261 H288 0.930 . S
C262 C260 1.352 . S
C262 C264 1.374 . S
C262 H289 0.931 1_455 S
C263 C264 1.359 . S
C263 C265 1.364 . S
C264 C262 1.374 . S
C264 C263 1.359 . S
C264 H290 0.931 1_455 S
C265 C261 1.389 . S
C265 C263 1.364 . S
C265 H291 0.931 . S
C266 O280 1.274 . S
C266 O281 1.248 1_565 S
C267 O282 1.240 1_455 S
C267 O283 1.240 . S
C268 Gd257 2.818 . S
C268 C269 1.510 . S
C268 O284 1.249 . S
C268 O285 1.252 . S
C269 C268 1.510 . S
C269 C270 1.404 . S
C269 C271 1.352 . S
C270 C269 1.404 . S
C270 C274 1.389 . S
C270 H292 0.930 . S
C271 C269 1.352 . S
C271 C273 1.374 . S
C271 H293 0.931 1_655 S
C272 C273 1.359 . S
C272 C274 1.364 . S
C273 C271 1.374 . S
C273 C272 1.359 . S
C273 H294 0.931 1_655 S
C274 C270 1.389 . S
C274 C272 1.364 . S
C274 H295 0.931 . S
C275 O286 1.281 . S
C275 O287 1.244 1_545 S
O276 Gd256 2.377 . S
O276 C258 1.240 1_455 S
O277 Gd257 2.395 1_565 S
O277 C258 1.240 . S
O278 Gd256 2.448 . S
O278 C259 1.249 . S
O279 Gd256 2.506 . S
O279 C259 1.252 . S
O280 Gd256 2.435 . S
O280 C266 1.274 . S
O281 Gd256 2.717 1_545 S
O281 Gd257 2.327 1_455 S
O281 C266 1.248 1_545 S
O282 Gd257 2.377 . S
O282 C267 1.240 1_655 S
O283 Gd256 2.395 1_545 S
O283 C267 1.240 . S
O284 Gd257 2.448 . S
O284 C268 1.249 . S
O285 Gd257 2.506 . S
O285 C268 1.252 . S
O286 Gd257 2.435 . S
O286 C275 1.281 . S
O287 Gd256 2.327 1_655 S
O287 Gd257 2.717 1_565 S
O287 C275 1.244 1_565 S
H288 C261 0.930 . S
H289 C262 0.931 1_655 S
H290 C264 0.931 1_655 S
H291 C265 0.931 . S
H292 C270 0.930 . S
H293 C271 0.931 1_455 S
H294 C273 0.931 1_455 S
H295 C274 0.931 . S
Gd296 C299 2.818 . S
Gd296 O316 2.377 . S
Gd296 O318 2.448 . S
Gd296 O319 2.506 . S
Gd296 O320 2.435 . S
Gd296 O321 2.717 . S
Gd296 O323 2.395 . S
Gd296 O327 2.327 1_545 S
Gd297 C308 2.818 . S
Gd297 O317 2.395 . S
Gd297 O321 2.327 1_565 S
Gd297 O322 2.377 . S
Gd297 O324 2.448 . S
Gd297 O325 2.506 . S
Gd297 O326 2.435 . S
Gd297 O327 2.717 . S
C298 O316 1.240 1_565 S
C298 O317 1.240 . S
C299 Gd296 2.818 . S
C299 C300 1.510 . S
C299 O318 1.249 . S
C299 O319 1.252 . S
C300 C299 1.510 . S
C300 C301 1.404 . S
C300 C302 1.352 . S
C301 C300 1.404 . S
C301 C305 1.389 . S
C301 H328 0.930 . S
C302 C300 1.352 . S
C302 C304 1.374 . S
C302 H329 0.931 1_545 S
C303 C304 1.359 . S
C303 C305 1.364 . S
C304 C302 1.374 . S
C304 C303 1.359 . S
C304 H330 0.931 1_545 S
C305 C301 1.389 . S
C305 C303 1.364 . S
C305 H331 0.931 . S
C306 O320 1.256 . S
C306 O321 1.257 . S
C307 O322 1.240 1_545 S
C307 O323 1.240 . S
C308 Gd297 2.818 . S
C308 C309 1.510 . S
C308 O324 1.249 . S
C308 O325 1.252 . S
C309 C308 1.510 . S
C309 C310 1.404 . S
C309 C311 1.352 . S
C310 C309 1.404 . S
C310 C314 1.389 . S
C310 H332 0.930 . S
C311 C309 1.352 . S
C311 C313 1.374 . S
C311 H333 0.931 1_565 S
C312 C313 1.359 . S
C312 C314 1.364 . S
C313 C311 1.374 . S
C313 C312 1.359 . S
C313 H334 0.931 1_565 S
C314 C310 1.389 . S
C314 C312 1.364 . S
C314 H335 0.931 . S
C315 O326 1.256 . S
C315 O327 1.257 . S
O316 Gd296 2.377 . S
O316 C298 1.240 1_545 S
O317 Gd297 2.395 . S
O317 C298 1.240 . S
O318 Gd296 2.448 . S
O318 C299 1.249 . S
O319 Gd296 2.506 . S
O319 C299 1.252 . S
O320 Gd296 2.435 . S
O320 C306 1.256 . S
O321 Gd296 2.717 . S
O321 Gd297 2.327 1_545 S
O321 C306 1.257 . S
O322 Gd297 2.377 . S
O322 C307 1.240 1_565 S
O323 Gd296 2.395 . S
O323 C307 1.240 . S
O324 Gd297 2.448 . S
O324 C308 1.249 . S
O325 Gd297 2.506 . S
O325 C308 1.252 . S
O326 Gd297 2.435 . S
O326 C315 1.256 . S
O327 Gd296 2.327 1_565 S
O327 Gd297 2.717 . S
O327 C315 1.257 . S
H328 C301 0.930 . S
H329 C302 0.931 1_565 S
H330 C304 0.931 1_565 S
H331 C305 0.931 . S
H332 C310 0.930 . S
H333 C311 0.931 1_545 S
H334 C313 0.931 1_545 S
H335 C314 0.931 . S
Gd336 C339 2.818 . S
Gd336 O356 2.377 . S
Gd336 O358 2.448 . S
Gd336 O359 2.506 . S
Gd336 O360 2.435 . S
Gd336 O361 2.717 . S
Gd336 O363 2.395 . S
Gd336 O367 2.327 . S
Gd337 C348 2.818 . S
Gd337 O357 2.395 . S
Gd337 O361 2.327 . S
Gd337 O362 2.377 . S
Gd337 O364 2.448 . S
Gd337 O365 2.506 . S
Gd337 O366 2.435 . S
Gd337 O367 2.717 . S
C338 O356 1.240 . S
C338 O357 1.240 . S
C339 Gd336 2.818 . S
C339 C340 1.510 . S
C339 O358 1.249 . S
C339 O359 1.252 . S
C340 C339 1.510 . S
C340 C341 1.404 . S
C340 C342 1.352 . S
C341 C340 1.404 . S
C341 C345 1.389 . S
C341 H368 0.930 . S
C342 C340 1.352 . S
C342 C344 1.374 . S
C342 H369 0.931 . S
C343 C344 1.359 . S
C343 C345 1.364 . S
C344 C342 1.374 . S
C344 C343 1.359 . S
C344 H370 0.931 . S
C345 C341 1.389 . S
C345 C343 1.364 . S
C345 H371 0.931 . S
C346 O360 1.256 . S
C346 O361 1.257 . S
C347 O362 1.240 . S
C347 O363 1.240 . S
C348 Gd337 2.818 . S
C348 C349 1.510 . S
C348 O364 1.249 . S
C348 O365 1.252 . S
C349 C348 1.510 . S
C349 C350 1.404 . S
C349 C351 1.352 . S
C350 C349 1.404 . S
C350 C354 1.389 . S
C350 H372 0.930 . S
C351 C349 1.352 . S
C351 C353 1.374 . S
C351 H373 0.931 . S
C352 C353 1.359 . S
C352 C354 1.364 . S
C353 C351 1.374 . S
C353 C352 1.359 . S
C353 H374 0.931 . S
C354 C350 1.389 . S
C354 C352 1.364 . S
C354 H375 0.931 . S
C355 O366 1.256 . S
C355 O367 1.257 . S
O356 Gd336 2.377 . S
O356 C338 1.240 . S
O357 Gd337 2.395 . S
O357 C338 1.240 . S
O358 Gd336 2.448 . S
O358 C339 1.249 . S
O359 Gd336 2.506 . S
O359 C339 1.252 . S
O360 Gd336 2.435 . S
O360 C346 1.256 . S
O361 Gd336 2.717 . S
O361 Gd337 2.327 . S
O361 C346 1.257 . S
O362 Gd337 2.377 . S
O362 C347 1.240 . S
O363 Gd336 2.395 . S
O363 C347 1.240 . S
O364 Gd337 2.448 . S
O364 C348 1.249 . S
O365 Gd337 2.506 . S
O365 C348 1.252 . S
O366 Gd337 2.435 . S
O366 C355 1.256 . S
O367 Gd336 2.327 . S
O367 Gd337 2.717 . S
O367 C355 1.257 . S
H368 C341 0.930 . S
H369 C342 0.931 . S
H370 C344 0.931 . S
H371 C345 0.931 . S
H372 C350 0.930 . S
H373 C351 0.931 . S
H374 C353 0.931 . S
H375 C354 0.931 . S
Gd376 C379 2.818 . S
Gd376 O396 2.377 . S
Gd376 O398 2.448 . S
Gd376 O399 2.506 . S
Gd376 O400 2.435 . S
Gd376 O401 2.717 1_655 S
Gd376 O403 2.395 1_655 S
Gd376 O407 2.327 . S
Gd377 C388 2.818 . S
Gd377 O397 2.395 1_455 S
Gd377 O401 2.327 . S
Gd377 O402 2.377 . S
Gd377 O404 2.448 . S
Gd377 O405 2.506 . S
Gd377 O406 2.435 . S
Gd377 O407 2.717 1_455 S
C378 O396 1.240 . S
C378 O397 1.240 . S
C379 Gd376 2.818 . S
C379 C380 1.510 . S
C379 O398 1.249 . S
C379 O399 1.252 . S
C380 C379 1.510 . S
C380 C381 1.404 . S
C380 C382 1.352 . S
C381 C380 1.404 . S
C381 C385 1.389 . S
C381 H408 0.930 . S
C382 C380 1.352 . S
C382 C384 1.374 . S
C382 H409 0.931 . S
C383 C384 1.359 . S
C383 C385 1.364 . S
C384 C382 1.374 . S
C384 C383 1.359 . S
C384 H410 0.931 . S
C385 C381 1.389 . S
C385 C383 1.364 . S
C385 H411 0.931 . S
C386 O400 1.276 . S
C386 O401 1.247 1_655 S
C387 O402 1.240 . S
C387 O403 1.240 . S
C388 Gd377 2.818 . S
C388 C389 1.510 . S
C388 O404 1.249 . S
C388 O405 1.252 . S
C389 C388 1.510 . S
C389 C390 1.404 . S
C389 C391 1.352 . S
C390 C389 1.404 . S
C390 C394 1.389 . S
C390 H412 0.930 . S
C391 C389 1.352 . S
C391 C393 1.374 . S
C391 H413 0.931 . S
C392 C393 1.359 . S
C392 C394 1.364 . S
C393 C391 1.374 . S
C393 C392 1.359 . S
C393 H414 0.931 . S
C394 C390 1.389 . S
C394 C392 1.364 . S
C394 H415 0.931 . S
C395 O406 1.256 . S
C395 O407 1.257 1_455 S
O396 Gd376 2.377 . S
O396 C378 1.240 . S
O397 Gd377 2.395 1_655 S
O397 C378 1.240 . S
O398 Gd376 2.448 . S
O398 C379 1.249 . S
O399 Gd376 2.506 . S
O399 C379 1.252 . S
O400 Gd376 2.435 . S
O400 C386 1.276 . S
O401 Gd376 2.717 1_455 S
O401 Gd377 2.327 . S
O401 C386 1.247 1_455 S
O402 Gd377 2.377 . S
O402 C387 1.240 . S
O403 Gd376 2.395 1_455 S
O403 C387 1.240 . S
O404 Gd377 2.448 . S
O404 C388 1.249 . S
O405 Gd377 2.506 . S
O405 C388 1.252 . S
O406 Gd377 2.435 . S
O406 C395 1.256 . S
O407 Gd376 2.327 . S
O407 Gd377 2.717 1_655 S
O407 C395 1.257 1_655 S
H408 C381 0.930 . S
H409 C382 0.931 . S
H410 C384 0.931 . S
H411 C385 0.931 . S
H412 C390 0.930 . S
H413 C391 0.931 . S
H414 C393 0.931 . S
H415 C394 0.931 . S
H416 C424 0.950 . S
H417 C429 0.950 . S
H418 C426 0.950 . S
H419 C428 0.950 . S
H420 C430 0.950 . S
H421 C432 0.950 . S
H422 C434 0.950 . S
H423 C435 0.950 . S
C424 H416 0.950 . S
C424 C425 1.386 1_565 S
C424 C426 1.391 . S
C425 C424 1.386 1_545 S
C425 C429 1.393 . S
C426 H418 0.950 . S
C426 C424 1.391 . S
C426 C427 1.400 1_565 S
C427 C426 1.400 1_545 S
C427 C428 1.398 . S
C427 C433 1.491 . S
C428 H419 0.950 . S
C428 C427 1.398 . S
C428 C429 1.391 . S
C429 H417 0.950 . S
C429 C425 1.393 . S
C429 C428 1.391 . S
C430 H420 0.950 . S
C430 C431 1.386 . S
C430 C432 1.391 . S
C431 C430 1.386 . S
C431 C435 1.393 1_545 S
C432 H421 0.950 . S
C432 C430 1.391 . S
C432 C433 1.400 . S
C433 C427 1.491 . S
C433 C432 1.400 . S
C433 C434 1.398 1_545 S
C434 H422 0.950 . S
C434 C433 1.398 1_565 S
C434 C435 1.391 . S
C435 H423 0.950 . S
C435 C431 1.393 1_565 S
C435 C434 1.391 . S
H436 C444 0.950 . S
H437 C449 0.950 . S
H438 C446 0.950 . S
H439 C448 0.950 . S
H440 C450 0.950 . S
H441 C452 0.950 . S
H442 C454 0.950 . S
H443 C455 0.950 . S
C444 H436 0.950 . S
C444 C445 1.386 . S
C444 C446 1.391 . S
C445 C444 1.386 . S
C445 C449 1.393 . S
C446 H438 0.950 . S
C446 C444 1.391 . S
C446 C447 1.400 . S
C447 C446 1.400 . S
C447 C448 1.398 . S
C447 C453 1.491 . S
C448 H439 0.950 . S
C448 C447 1.398 . S
C448 C449 1.391 . S
C449 H437 0.950 . S
C449 C445 1.393 . S
C449 C448 1.391 . S
C450 H440 0.950 . S
C450 C451 1.386 . S
C450 C452 1.391 . S
C451 C450 1.386 . S
C451 C455 1.393 . S
C452 H441 0.950 . S
C452 C450 1.391 . S
C452 C453 1.400 . S
C453 C447 1.491 . S
C453 C452 1.400 . S
C453 C454 1.398 . S
C454 H442 0.950 . S
C454 C453 1.398 . S
C454 C455 1.391 . S
C455 H443 0.950 . S
C455 C451 1.393 . S
C455 C454 1.391 . S
H456 C464 0.950 . S
H457 C469 0.950 . S
H458 C466 0.950 . S
H459 C468 0.950 . S
H460 C470 0.950 . S
H461 C472 0.950 . S
H462 C474 0.950 . S
H463 C475 0.950 . S
C464 H456 0.950 . S
C464 C465 1.386 . S
C464 C466 1.391 . S
C465 C464 1.386 . S
C465 C469 1.393 . S
C466 H458 0.950 . S
C466 C464 1.391 . S
C466 C467 1.400 . S
C467 C466 1.400 . S
C467 C468 1.398 . S
C467 C473 1.491 . S
C468 H459 0.950 . S
C468 C467 1.398 . S
C468 C469 1.391 . S
C469 H457 0.950 . S
C469 C465 1.393 . S
C469 C468 1.391 . S
C470 H460 0.950 . S
C470 C471 1.386 . S
C470 C472 1.391 . S
C471 C470 1.386 . S
C471 C475 1.393 . S
C472 H461 0.950 . S
C472 C470 1.391 . S
C472 C473 1.400 . S
C473 C467 1.491 . S
C473 C472 1.400 . S
C473 C474 1.398 . S
C474 H462 0.950 . S
C474 C473 1.398 . S
C474 C475 1.391 . S
C475 H463 0.950 . S
C475 C471 1.393 . S
C475 C474 1.391 . S
H476 C484 0.950 . S
H477 C489 0.950 . S
H478 C486 0.950 . S
H479 C488 0.950 . S
H480 C490 0.948 1_655 S
H481 C492 0.949 1_655 S
H482 C494 0.950 . S
H483 C495 0.950 . S
C484 H476 0.950 . S
C484 C485 1.386 . S
C484 C486 1.391 . S
C485 C484 1.386 . S
C485 C489 1.393 1_455 S
C486 H478 0.950 . S
C486 C484 1.391 . S
C486 C487 1.400 . S
C487 C486 1.400 . S
C487 C488 1.398 1_455 S
C487 C493 1.491 . S
C488 H479 0.950 . S
C488 C487 1.398 1_655 S
C488 C489 1.391 . S
C489 H477 0.950 . S
C489 C485 1.393 1_655 S
C489 C488 1.391 . S
C490 H480 0.948 1_455 S
C490 C491 1.388 . S
C490 C492 1.391 . S
C491 C490 1.388 . S
C491 C495 1.393 . S
C492 H481 0.949 1_455 S
C492 C490 1.391 . S
C492 C493 1.401 . S
C493 C487 1.491 . S
C493 C492 1.401 . S
C493 C494 1.398 . S
C494 H482 0.950 . S
C494 C493 1.398 . S
C494 C495 1.391 . S
C495 H483 0.950 . S
C495 C491 1.393 . S
C495 C494 1.391 . S
H496 C504 0.950 . S
H497 C509 0.950 . S
H498 C506 0.950 . S
H499 C508 0.950 . S
H500 C510 0.950 . S
H501 C512 0.948 1_554 S
H502 C514 0.950 . S
H503 C515 0.950 . S
C504 H496 0.950 . S
C504 C505 1.386 . S
C504 C506 1.391 . S
C505 C504 1.386 . S
C505 C509 1.393 1_565 S
C506 H498 0.950 . S
C506 C504 1.391 . S
C506 C507 1.400 . S
C507 C506 1.400 . S
C507 C508 1.398 1_565 S
C507 C513 1.491 . S
C508 H499 0.950 . S
C508 C507 1.398 1_545 S
C508 C509 1.391 . S
C509 H497 0.950 . S
C509 C505 1.393 1_545 S
C509 C508 1.391 . S
C510 H500 0.950 . S
C510 C511 1.386 1_545 S
C510 C512 1.391 . S
C511 C510 1.386 1_565 S
C511 C515 1.393 . S
C512 H501 0.948 1_556 S
C512 C510 1.391 . S
C512 C513 1.400 1_546 S
C513 C507 1.491 . S
C513 C512 1.400 1_564 S
C513 C514 1.398 1_554 S
C514 H502 0.950 . S
C514 C513 1.398 1_556 S
C514 C515 1.391 . S
C515 H503 0.950 . S
C515 C511 1.393 . S
C515 C514 1.391 . S
H516 C524 0.950 . S
H517 C529 0.950 . S
H518 C526 0.950 . S
H519 C528 0.950 . S
H520 C530 0.950 . S
H521 C532 0.950 . S
H522 C534 0.950 . S
H523 C535 0.950 . S
C524 H516 0.950 . S
C524 C525 1.386 . S
C524 C526 1.391 . S
C525 C524 1.386 . S
C525 C529 1.393 . S
C526 H518 0.950 . S
C526 C524 1.391 . S
C526 C527 1.400 . S
C527 C526 1.400 . S
C527 C528 1.398 . S
C527 C533 1.491 . S
C528 H519 0.950 . S
C528 C527 1.398 . S
C528 C529 1.391 . S
C529 H517 0.950 . S
C529 C525 1.393 . S
C529 C528 1.391 . S
C530 H520 0.950 . S
C530 C531 1.386 . S
C530 C532 1.391 . S
C531 C530 1.386 . S
C531 C535 1.393 . S
C532 H521 0.950 . S
C532 C530 1.391 . S
C532 C533 1.400 1_556 S
C533 C527 1.491 . S
C533 C532 1.400 1_554 S
C533 C534 1.398 1_554 S
C534 H522 0.950 . S
C534 C533 1.398 1_556 S
C534 C535 1.391 . S
C535 H523 0.950 . S
C535 C531 1.393 . S
C535 C534 1.391 . S
H536 C544 0.950 . S
H537 C549 0.950 . S
H538 C546 0.950 . S
H539 C548 0.950 . S
H540 C550 0.950 . S
H541 C552 0.950 1_554 S
H542 C554 0.950 . S
H543 C555 0.950 . S
C544 H536 0.950 . S
C544 C545 1.386 . S
C544 C546 1.391 . S
C545 C544 1.386 . S
C545 C549 1.393 . S
C546 H538 0.950 . S
C546 C544 1.391 . S
C546 C547 1.400 . S
C547 C546 1.400 . S
C547 C548 1.398 . S
C547 C553 1.491 . S
C548 H539 0.950 . S
C548 C547 1.398 . S
C548 C549 1.391 . S
C549 H537 0.950 . S
C549 C545 1.393 . S
C549 C548 1.391 . S
C550 H540 0.950 . S
C550 C551 1.386 . S
C550 C552 1.391 . S
C551 C550 1.386 . S
C551 C555 1.393 . S
C552 H541 0.950 1_556 S
C552 C550 1.391 . S
C552 C553 1.400 1_556 S
C553 C547 1.491 . S
C553 C552 1.400 1_554 S
C553 C554 1.398 1_554 S
C554 H542 0.950 . S
C554 C553 1.398 1_556 S
C554 C555 1.391 . S
C555 H543 0.950 . S
C555 C551 1.393 . S
C555 C554 1.391 . S
H556 C564 0.950 . S
H557 C569 0.950 . S
H558 C566 0.950 . S
H559 C568 0.950 . S
H560 C570 0.950 . S
H561 C572 0.950 . S
H562 C574 0.950 . S
H563 C575 0.950 . S
C564 H556 0.950 . S
C564 C565 1.386 . S
C564 C566 1.391 . S
C565 C564 1.386 . S
C565 C569 1.393 1_655 S
C566 H558 0.950 . S
C566 C564 1.391 . S
C566 C567 1.400 . S
C567 C566 1.400 . S
C567 C568 1.398 1_655 S
C567 C573 1.491 . S
C568 H559 0.950 . S
C568 C567 1.398 1_455 S
C568 C569 1.391 . S
C569 H557 0.950 . S
C569 C565 1.393 1_455 S
C569 C568 1.391 . S
C570 H560 0.950 . S
C570 C571 1.386 1_455 S
C570 C572 1.391 1_556 S
C571 C570 1.386 1_655 S
C571 C575 1.393 . S
C572 H561 0.950 . S
C572 C570 1.391 1_554 S
C572 C573 1.400 1_455 S
C573 C567 1.491 . S
C573 C572 1.400 1_655 S
C573 C574 1.398 1_554 S
C574 H562 0.950 . S
C574 C573 1.398 1_556 S
C574 C575 1.391 . S
C575 H563 0.950 . S
C575 C571 1.393 . S
C575 C574 1.391 . S
H576 C584 0.950 . S
H577 C589 0.950 . S
H578 C586 0.950 . S
H579 C588 0.950 . S
H580 C590 0.950 . S
H581 C592 0.950 . S
H582 C594 0.950 . S
H583 C595 0.950 . S
C584 H576 0.950 . S
C584 C585 1.386 1_655 S
C584 C586 1.391 . S
C585 C584 1.386 1_455 S
C585 C589 1.393 . S
C586 H578 0.950 . S
C586 C584 1.391 . S
C586 C587 1.400 . S
C587 C586 1.400 . S
C587 C588 1.398 1_655 S
C587 C593 1.491 . S
C588 H579 0.950 . S
C588 C587 1.398 1_455 S
C588 C589 1.391 . S
C589 H577 0.950 . S
C589 C585 1.393 . S
C589 C588 1.391 . S
C590 H580 0.950 . S
C590 C591 1.386 . S
C590 C592 1.391 . S
C591 C590 1.386 . S
C591 C595 1.393 . S
C592 H581 0.950 . S
C592 C590 1.391 . S
C592 C593 1.400 . S
C593 C587 1.491 . S
C593 C592 1.400 . S
C593 C594 1.398 . S
C594 H582 0.950 . S
C594 C593 1.398 . S
C594 C595 1.391 . S
C595 H583 0.950 . S
C595 C591 1.393 . S
C595 C594 1.391 . S
H596 C604 0.950 . S
H597 C609 0.950 . S
H598 C606 0.950 . S
H599 C608 0.950 . S
H600 C610 0.950 . S
H601 C612 0.950 . S
H602 C614 0.950 1_545 S
H603 C615 0.950 . S
C604 H596 0.950 . S
C604 C605 1.386 . S
C604 C606 1.391 . S
C605 C604 1.386 . S
C605 C609 1.393 1_545 S
C606 H598 0.950 . S
C606 C604 1.391 . S
C606 C607 1.400 1_545 S
C607 C606 1.400 1_565 S
C607 C608 1.398 . S
C607 C613 1.491 . S
C608 H599 0.950 . S
C608 C607 1.398 . S
C608 C609 1.391 . S
C609 H597 0.950 . S
C609 C605 1.393 1_565 S
C609 C608 1.391 . S
C610 H600 0.950 . S
C610 C611 1.386 . S
C610 C612 1.391 . S
C611 C610 1.386 . S
C611 C615 1.393 . S
C612 H601 0.950 . S
C612 C610 1.391 . S
C612 C613 1.400 . S
C613 C607 1.491 . S
C613 C612 1.400 . S
C613 C614 1.398 . S
C614 H602 0.950 1_565 S
C614 C613 1.398 . S
C614 C615 1.391 . S
C615 H603 0.950 . S
C615 C611 1.393 . S
C615 C614 1.391 . S
H616 C624 0.950 . S
H617 C629 0.950 . S
H618 C626 0.950 . S
H619 C628 0.950 . S
H620 C630 0.950 . S
H621 C632 0.950 . S
H622 C634 0.950 . S
H623 C635 0.950 . S
C624 H616 0.950 . S
C624 C625 1.386 . S
C624 C626 1.391 . S
C625 C624 1.386 . S
C625 C629 1.393 . S
C626 H618 0.950 . S
C626 C624 1.391 . S
C626 C627 1.400 . S
C627 C626 1.400 . S
C627 C628 1.398 . S
C627 C633 1.491 . S
C628 H619 0.950 . S
C628 C627 1.398 . S
C628 C629 1.391 . S
C629 H617 0.950 . S
C629 C625 1.393 . S
C629 C628 1.391 . S
C630 H620 0.950 . S
C630 C631 1.386 . S
C630 C632 1.391 . S
C631 C630 1.386 . S
C631 C635 1.393 . S
C632 H621 0.950 . S
C632 C630 1.391 . S
C632 C633 1.400 . S
C633 C627 1.491 . S
C633 C632 1.400 . S
C633 C634 1.398 . S
C634 H622 0.950 . S
C634 C633 1.398 . S
C634 C635 1.391 . S
C635 H623 0.950 . S
C635 C631 1.393 . S
C635 C634 1.391 . S
H636 C644 0.950 . S
H637 C649 0.950 . S
H638 C646 0.950 . S
H639 C648 0.950 . S
H640 C650 0.950 . S
H641 C652 0.950 . S
H642 C654 0.950 . S
H643 C655 0.950 . S
C644 H636 0.950 . S
C644 C645 1.386 . S
C644 C646 1.391 . S
C645 C644 1.386 . S
C645 C649 1.393 . S
C646 H638 0.950 . S
C646 C644 1.391 . S
C646 C647 1.400 . S
C647 C646 1.400 . S
C647 C648 1.398 . S
C647 C653 1.491 . S
C648 H639 0.950 . S
C648 C647 1.398 . S
C648 C649 1.391 . S
C649 H637 0.950 . S
C649 C645 1.393 . S
C649 C648 1.391 . S
C650 H640 0.950 . S
C650 C651 1.386 . S
C650 C652 1.391 . S
C651 C650 1.386 . S
C651 C655 1.393 . S
C652 H641 0.950 . S
C652 C650 1.391 . S
C652 C653 1.400 . S
C653 C647 1.491 . S
C653 C652 1.400 . S
C653 C654 1.398 . S
C654 H642 0.950 . S
C654 C653 1.398 . S
C654 C655 1.391 . S
C655 H643 0.950 . S
C655 C651 1.393 . S
C655 C654 1.391 . S
H656 C664 0.950 . S
H657 C669 0.950 . S
H658 C666 0.950 . S
H659 C668 0.950 . S
H660 C670 0.950 . S
H661 C672 0.950 . S
H662 C674 0.950 1_655 S
H663 C675 0.950 . S
C664 H656 0.950 . S
C664 C665 1.386 . S
C664 C666 1.391 . S
C665 C664 1.386 . S
C665 C669 1.393 1_655 S
C666 H658 0.950 . S
C666 C664 1.391 . S
C666 C667 1.400 1_655 S
C667 C666 1.400 1_455 S
C667 C668 1.398 . S
C667 C673 1.491 . S
C668 H659 0.950 . S
C668 C667 1.398 . S
C668 C669 1.391 . S
C669 H657 0.950 . S
C669 C665 1.393 1_455 S
C669 C668 1.391 . S
C670 H660 0.950 . S
C670 C671 1.386 1_554 S
C670 C672 1.391 . S
C671 C670 1.386 1_556 S
C671 C675 1.393 . S
C672 H661 0.950 . S
C672 C670 1.391 . S
C672 C673 1.400 . S
C673 C667 1.491 . S
C673 C672 1.400 . S
C673 C674 1.398 1_554 S
C674 H662 0.950 1_455 S
C674 C673 1.398 1_556 S
C674 C675 1.391 . S
C675 H663 0.950 . S
C675 C671 1.393 . S
C675 C674 1.391 . S
H676 C684 0.950 . S
H677 C689 0.950 . S
H678 C686 0.962 . S
H679 C688 0.950 . S
H680 C690 0.950 . S
H681 C692 0.950 . S
H682 C694 0.950 . S
H683 C695 0.950 . S
C684 H676 0.950 . S
C684 C685 1.386 . S
C684 C686 1.391 1_565 S
C685 C684 1.386 . S
C685 C689 1.393 . S
C686 H678 0.962 . S
C686 C684 1.391 1_545 S
C686 C687 1.400 . S
C687 C686 1.400 . S
C687 C688 1.398 . S
C687 C693 1.491 . S
C688 H679 0.950 . S
C688 C687 1.398 . S
C688 C689 1.391 1_545 S
C689 H677 0.950 . S
C689 C685 1.393 . S
C689 C688 1.391 1_565 S
C690 H680 0.950 . S
C690 C691 1.386 1_554 S
C690 C692 1.391 . S
C691 C690 1.386 1_556 S
C691 C695 1.393 . S
C692 H681 0.950 . S
C692 C690 1.391 . S
C692 C693 1.400 . S
C693 C687 1.491 . S
C693 C692 1.400 . S
C693 C694 1.398 1_554 S
C694 H682 0.950 . S
C694 C693 1.398 1_556 S
C694 C695 1.391 . S
C695 H683 0.950 . S
C695 C691 1.393 . S
C695 C694 1.391 . S
H696 C704 0.950 . S
H697 C709 0.950 . S
H698 C706 0.950 . S
H699 C708 0.958 . S
H700 C710 0.950 . S
H701 C712 0.950 . S
H702 C714 0.950 . S
H703 C715 0.950 . S
C704 H696 0.950 . S
C704 C705 1.386 . S
C704 C706 1.391 . S
C705 C704 1.386 . S
C705 C709 1.393 . S
C706 H698 0.950 . S
C706 C704 1.391 . S
C706 C707 1.400 . S
C707 C706 1.400 . S
C707 C708 1.398 . S
C707 C713 1.491 . S
C708 H699 0.958 . S
C708 C707 1.398 . S
C708 C709 1.391 . S
C709 H697 0.950 . S
C709 C705 1.393 . S
C709 C708 1.391 . S
C710 H700 0.950 . S
C710 C711 1.386 . S
C710 C712 1.391 . S
C711 C710 1.386 . S
C711 C715 1.393 1_556 S
C712 H701 0.950 . S
C712 C710 1.391 . S
C712 C713 1.400 1_556 S
C713 C707 1.491 . S
C713 C712 1.400 1_554 S
C713 C714 1.398 . S
C714 H702 0.950 . S
C714 C713 1.398 . S
C714 C715 1.391 . S
C715 H703 0.950 . S
C715 C711 1.393 1_554 S
C715 C714 1.391 . S
H716 C724 0.950 . S
H717 C729 0.950 . S
H718 C726 0.950 . S
H719 C728 0.950 . S
H720 C730 0.950 . S
H721 C732 0.950 . S
H722 C734 0.950 . S
H723 C735 0.950 . S
C724 H716 0.950 . S
C724 C725 1.386 . S
C724 C726 1.391 . S
C725 C724 1.386 . S
C725 C729 1.393 . S
C726 H718 0.950 . S
C726 C724 1.391 . S
C726 C727 1.400 . S
C727 C726 1.400 . S
C727 C728 1.398 . S
C727 C733 1.491 . S
C728 H719 0.950 . S
C728 C727 1.398 . S
C728 C729 1.391 . S
C729 H717 0.950 . S
C729 C725 1.393 . S
C729 C728 1.391 . S
C730 H720 0.950 . S
C730 C731 1.386 . S
C730 C732 1.391 . S
C731 C730 1.386 . S
C731 C735 1.393 1_556 S
C732 H721 0.950 . S
C732 C730 1.391 . S
C732 C733 1.400 1_556 S
C733 C727 1.491 . S
C733 C732 1.400 1_554 S
C733 C734 1.398 . S
C734 H722 0.950 . S
C734 C733 1.398 . S
C734 C735 1.391 . S
C735 H723 0.950 . S
C735 C731 1.393 1_554 S
C735 C734 1.391 . S
H736 C744 0.950 . S
H737 C749 0.950 . S
H738 C746 0.950 . S
H739 C748 0.950 . S
H740 C750 0.950 . S
H741 C752 0.950 . S
H742 C754 0.950 . S
H743 C755 0.950 . S
C744 H736 0.950 . S
C744 C745 1.386 . S
C744 C746 1.391 . S
C745 C744 1.386 . S
C745 C749 1.393 1_455 S
C746 H738 0.950 . S
C746 C744 1.391 . S
C746 C747 1.400 . S
C747 C746 1.400 . S
C747 C748 1.398 1_455 S
C747 C753 1.491 . S
C748 H739 0.950 . S
C748 C747 1.398 1_655 S
C748 C749 1.391 . S
C749 H737 0.950 . S
C749 C745 1.393 1_655 S
C749 C748 1.391 . S
C750 H740 0.950 . S
C750 C751 1.386 1_655 S
C750 C752 1.391 . S
C751 C750 1.386 1_455 S
C751 C755 1.393 . S
C752 H741 0.950 . S
C752 C750 1.391 . S
C752 C753 1.400 1_655 S
C753 C747 1.491 . S
C753 C752 1.400 1_455 S
C753 C754 1.398 . S
C754 H742 0.950 . S
C754 C753 1.398 . S
C754 C755 1.391 . S
C755 H743 0.950 . S
C755 C751 1.393 . S
C755 C754 1.391 . S
H756 C764 0.950 . S
H757 C769 0.950 . S
H758 C766 0.950 . S
H759 C768 0.950 . S
H760 C770 0.950 . S
H761 C772 0.950 . S
H762 C774 0.950 . S
H763 C775 0.950 . S
C764 H756 0.950 . S
C764 C765 1.386 . S
C764 C766 1.391 . S
C765 C764 1.386 . S
C765 C769 1.393 1_545 S
C766 H758 0.950 . S
C766 C764 1.391 . S
C766 C767 1.400 . S
C767 C766 1.400 . S
C767 C768 1.398 1_545 S
C767 C773 1.491 . S
C768 H759 0.950 . S
C768 C767 1.398 1_565 S
C768 C769 1.391 . S
C769 H757 0.950 . S
C769 C765 1.393 1_565 S
C769 C768 1.391 . S
C770 H760 0.950 . S
C770 C771 1.386 1_565 S
C770 C772 1.391 . S
C771 C770 1.386 1_545 S
C771 C775 1.393 . S
C772 H761 0.950 . S
C772 C770 1.391 . S
C772 C773 1.400 1_565 S
C773 C767 1.491 . S
C773 C772 1.400 1_545 S
C773 C774 1.398 . S
C774 H762 0.950 . S
C774 C773 1.398 . S
C774 C775 1.391 . S
C775 H763 0.950 . S
C775 C771 1.393 . S
C775 C774 1.391 . S
H776 C784 0.950 . S
H777 C789 0.950 . S
H778 C786 0.950 . S
H779 C788 0.950 . S
H780 C790 0.950 . S
H781 C792 0.950 . S
H782 C794 0.950 . S
H783 C795 0.950 . S
C784 H776 0.950 . S
C784 C785 1.386 . S
C784 C786 1.391 . S
C785 C784 1.386 . S
C785 C789 1.393 . S
C786 H778 0.950 . S
C786 C784 1.391 . S
C786 C787 1.400 . S
C787 C786 1.400 . S
C787 C788 1.398 . S
C787 C793 1.491 . S
C788 H779 0.950 . S
C788 C787 1.398 . S
C788 C789 1.391 . S
C789 H777 0.950 . S
C789 C785 1.393 . S
C789 C788 1.391 . S
C790 H780 0.950 . S
C790 C791 1.386 . S
C790 C792 1.391 . S
C791 C790 1.386 . S
C791 C795 1.393 . S
C792 H781 0.950 . S
C792 C790 1.391 . S
C792 C793 1.400 . S
C793 C787 1.491 . S
C793 C792 1.400 . S
C793 C794 1.398 . S
C794 H782 0.950 . S
C794 C793 1.398 . S
C794 C795 1.391 . S
C795 H783 0.950 . S
C795 C791 1.393 . S
C795 C794 1.391 . S
H796 C804 0.950 . S
H797 C809 0.950 . S
H798 C806 0.950 . S
H799 C808 0.950 . S
H800 C810 0.950 . S
H801 C812 0.950 . S
H802 C814 0.950 . S
H803 C815 0.950 . S
C804 H796 0.950 . S
C804 C805 1.386 . S
C804 C806 1.391 . S
C805 C804 1.386 . S
C805 C809 1.393 . S
C806 H798 0.950 . S
C806 C804 1.391 . S
C806 C807 1.400 . S
C807 C806 1.400 . S
C807 C808 1.398 . S
C807 C813 1.491 . S
C808 H799 0.950 . S
C808 C807 1.398 . S
C808 C809 1.391 . S
C809 H797 0.950 . S
C809 C805 1.393 . S
C809 C808 1.391 . S
C810 H800 0.950 . S
C810 C811 1.386 . S
C810 C812 1.391 . S
C811 C810 1.386 . S
C811 C815 1.393 . S
C812 H801 0.950 . S
C812 C810 1.391 . S
C812 C813 1.400 . S
C813 C807 1.491 . S
C813 C812 1.400 . S
C813 C814 1.398 . S
C814 H802 0.950 . S
C814 C813 1.398 . S
C814 C815 1.391 . S
C815 H803 0.950 . S
C815 C811 1.393 . S
C815 C814 1.391 . S
H816 C824 0.950 . S
H817 C829 0.950 . S
H818 C826 0.950 . S
H819 C828 0.950 . S
H820 C830 0.950 . S
H821 C832 0.950 . S
H822 C834 0.950 . S
H823 C835 0.950 1_455 S
C824 H816 0.950 . S
C824 C825 1.386 1_455 S
C824 C826 1.391 . S
C825 C824 1.386 1_655 S
C825 C829 1.393 . S
C826 H818 0.950 . S
C826 C824 1.391 . S
C826 C827 1.400 1_455 S
C827 C826 1.400 1_655 S
C827 C828 1.398 . S
C827 C833 1.491 . S
C828 H819 0.950 . S
C828 C827 1.398 . S
C828 C829 1.391 . S
C829 H817 0.950 . S
C829 C825 1.393 . S
C829 C828 1.391 . S
C830 H820 0.950 . S
C830 C831 1.386 . S
C830 C832 1.391 . S
C831 C830 1.386 . S
C831 C835 1.393 . S
C832 H821 0.950 . S
C832 C830 1.391 . S
C832 C833 1.400 . S
C833 C827 1.491 . S
C833 C832 1.400 . S
C833 C834 1.398 1_655 S
C834 H822 0.950 . S
C834 C833 1.398 1_455 S
C834 C835 1.391 1_455 S
C835 H823 0.950 1_655 S
C835 C831 1.393 . S
C835 C834 1.391 1_655 S
H836 C844 0.950 . S
H837 C849 0.950 . S
H838 C846 0.950 . S
H839 C848 0.950 . S
H840 C850 0.950 . S
H841 C852 0.950 . S
H842 C854 0.950 . S
H843 C855 0.950 . S
C844 H836 0.950 . S
C844 C845 1.386 1_545 S
C844 C846 1.391 . S
C845 C844 1.386 1_565 S
C845 C849 1.393 . S
C846 H838 0.950 . S
C846 C844 1.391 . S
C846 C847 1.400 1_545 S
C847 C846 1.400 1_565 S
C847 C848 1.398 . S
C847 C853 1.491 . S
C848 H839 0.950 . S
C848 C847 1.398 . S
C848 C849 1.391 . S
C849 H837 0.950 . S
C849 C845 1.393 . S
C849 C848 1.391 . S
C850 H840 0.950 . S
C850 C851 1.386 . S
C850 C852 1.391 . S
C851 C850 1.386 . S
C851 C855 1.393 1_565 S
C852 H841 0.950 . S
C852 C850 1.391 . S
C852 C853 1.400 . S
C853 C847 1.491 . S
C853 C852 1.400 . S
C853 C854 1.398 1_565 S
C854 H842 0.950 . S
C854 C853 1.398 1_545 S
C854 C855 1.391 . S
C855 H843 0.950 . S
C855 C851 1.393 1_545 S
C855 C854 1.391 . S
H856 C864 0.950 . S
H857 C869 0.950 . S
H858 C866 0.950 . S
H859 C868 0.950 . S
H860 C870 0.950 . S
H861 C872 0.950 . S
H862 C874 0.950 . S
H863 C875 0.950 . S
C864 H856 0.950 . S
C864 C865 1.386 . S
C864 C866 1.391 . S
C865 C864 1.386 . S
C865 C869 1.393 . S
C866 H858 0.950 . S
C866 C864 1.391 . S
C866 C867 1.400 . S
C867 C866 1.400 . S
C867 C868 1.398 . S
C867 C873 1.491 . S
C868 H859 0.950 . S
C868 C867 1.398 . S
C868 C869 1.391 . S
C869 H857 0.950 . S
C869 C865 1.393 . S
C869 C868 1.391 . S
C870 H860 0.950 . S
C870 C871 1.386 . S
C870 C872 1.391 . S
C871 C870 1.386 . S
C871 C875 1.393 . S
C872 H861 0.950 . S
C872 C870 1.391 . S
C872 C873 1.400 . S
C873 C867 1.491 . S
C873 C872 1.400 . S
C873 C874 1.398 . S
C874 H862 0.950 . S
C874 C873 1.398 . S
C874 C875 1.391 . S
C875 H863 0.950 . S
C875 C871 1.393 . S
C875 C874 1.391 . S
H876 C884 0.950 . S
H877 C889 0.950 . S
H878 C886 0.950 . S
H879 C888 0.950 . S
H880 C890 0.950 . S
H881 C892 0.950 . S
H882 C894 0.950 . S
H883 C895 0.950 . S
C884 H876 0.950 . S
C884 C885 1.386 . S
C884 C886 1.391 . S
C885 C884 1.386 . S
C885 C889 1.393 . S
C886 H878 0.950 . S
C886 C884 1.391 . S
C886 C887 1.400 . S
C887 C886 1.400 . S
C887 C888 1.398 . S
C887 C893 1.491 . S
C888 H879 0.950 . S
C888 C887 1.398 . S
C888 C889 1.391 . S
C889 H877 0.950 . S
C889 C885 1.393 . S
C889 C888 1.391 . S
C890 H880 0.950 . S
C890 C891 1.386 . S
C890 C892 1.391 . S
C891 C890 1.386 . S
C891 C895 1.393 . S
C892 H881 0.950 . S
C892 C890 1.391 . S
C892 C893 1.400 . S
C893 C887 1.491 . S
C893 C892 1.400 . S
C893 C894 1.398 . S
C894 H882 0.950 . S
C894 C893 1.398 . S
C894 C895 1.391 . S
C895 H883 0.950 . S
C895 C891 1.393 . S
C895 C894 1.391 . S
C425 C215 2.003 . S
C431 C266 2.162 1_545 S
C451 C306 2.165 . S
C445 C247 2.000 . S
C471 C346 2.159 . S
C465 C151 1.995 . S
C491 C386 2.164 1_455 S
C485 C183 2.013 . S
C511 C275 2.159 1_565 S
C505 C87 1.992 1_565 S
C525 C119 2.018 . S
C531 C315 2.165 . S
C545 C23 2.009 . S
C551 C355 2.168 . S
C565 C55 1.998 1_655 S
C571 C395 2.167 1_655 S
C591 C272 0.460 . S
C585 C189 0.408 . S
C611 C312 0.486 . S
C605 C221 0.429 . S
C631 C352 0.452 . S
C625 C253 0.428 . S
C645 C157 0.420 . S
C651 C392 0.513 . S
C665 C61 0.563 1_655 S
C671 C263 0.508 . S
C691 C303 0.527 . S
C685 C93 0.596 1_565 S
C711 C343 0.447 . S
C705 C125 0.511 . S
C725 C29 0.553 . S
C731 C383 0.474 . S
C745 C177 2.463 . S
C751 C267 2.788 . S
C765 C209 2.457 . S
C771 C307 2.786 . S
C791 C347 2.783 . S
C785 C241 2.470 . S
C811 C387 2.781 . S
C805 C145 2.458 . S
C825 C49 2.480 1_655 S
C831 C258 2.788 . S
C851 C298 2.786 . S
C845 C81 2.477 1_565 S
C871 C338 2.781 . S
C865 C113 2.494 . S
C885 C17 2.481 . S
C891 C378 2.783 . S
