# Generated by pormake.
# Topology zzz, (3,6)-cn, num edge types: 1
# Building blocks:
#     Node 0, Type 0, BuildingBlock: KAKCAD_clean_linker_0, # of connection points: 3
#     Node 1, Type 0, BuildingBlock: KAKCAD_clean_linker_0, # of connection points: 3
#     Node 2, Type 0, BuildingBlock: KAKCAD_clean_linker_0, # of connection points: 3
#     Node 3, Type 0, BuildingBlock: KAKCAD_clean_linker_0, # of connection points: 3
#     Node 4, Type 0, BuildingBlock: KAKCAD_clean_linker_0, # of connection points: 3
#     Node 5, Type 0, BuildingBlock: KAKCAD_clean_linker_0, # of connection points: 3
#     Node 6, Type 0, BuildingBlock: KAKCAD_clean_linker_0, # of connection points: 3
#     Node 7, Type 0, BuildingBlock: KAKCAD_clean_linker_0, # of connection points: 3
#     Node 8, Type 1, BuildingBlock: KUMBUR_clean_sbu_0, # of connection points: 6
#     Node 9, Type 1, BuildingBlock: KUMBUR_clean_sbu_0, # of connection points: 6
#     Node 10, Type 1, BuildingBlock: KUMBUR_clean_sbu_0, # of connection points: 6
#     Node 11, Type 1, BuildingBlock: KUMBUR_clean_sbu_0, # of connection points: 6
#     Edge 12, Type (0, 1), BuildingBlock: XUDNAN_clean_linker_2, # of connection points: 2
#     Edge 13, Type (0, 1), BuildingBlock: XUDNAN_clean_linker_2, # of connection points: 2
#     Edge 14, Type (0, 1), BuildingBlock: XUDNAN_clean_linker_2, # of connection points: 2
#     Edge 15, Type (0, 1), BuildingBlock: XUDNAN_clean_linker_2, # of connection points: 2
#     Edge 16, Type (0, 1), BuildingBlock: XUDNAN_clean_linker_2, # of connection points: 2
#     Edge 17, Type (0, 1), BuildingBlock: XUDNAN_clean_linker_2, # of connection points: 2
#     Edge 18, Type (0, 1), BuildingBlock: XUDNAN_clean_linker_2, # of connection points: 2
#     Edge 19, Type (0, 1), BuildingBlock: XUDNAN_clean_linker_2, # of connection points: 2
#     Edge 20, Type (0, 1), BuildingBlock: XUDNAN_clean_linker_2, # of connection points: 2
#     Edge 21, Type (0, 1), BuildingBlock: XUDNAN_clean_linker_2, # of connection points: 2
#     Edge 22, Type (0, 1), BuildingBlock: XUDNAN_clean_linker_2, # of connection points: 2
#     Edge 23, Type (0, 1), BuildingBlock: XUDNAN_clean_linker_2, # of connection points: 2
#     Edge 24, Type (0, 1), BuildingBlock: XUDNAN_clean_linker_2, # of connection points: 2
#     Edge 25, Type (0, 1), BuildingBlock: XUDNAN_clean_linker_2, # of connection points: 2
#     Edge 26, Type (0, 1), BuildingBlock: XUDNAN_clean_linker_2, # of connection points: 2
#     Edge 27, Type (0, 1), BuildingBlock: XUDNAN_clean_linker_2, # of connection points: 2
#     Edge 28, Type (0, 1), BuildingBlock: XUDNAN_clean_linker_2, # of connection points: 2
#     Edge 29, Type (0, 1), BuildingBlock: XUDNAN_clean_linker_2, # of connection points: 2
#     Edge 30, Type (0, 1), BuildingBlock: XUDNAN_clean_linker_2, # of connection points: 2
#     Edge 31, Type (0, 1), BuildingBlock: XUDNAN_clean_linker_2, # of connection points: 2
#     Edge 32, Type (0, 1), BuildingBlock: XUDNAN_clean_linker_2, # of connection points: 2
#     Edge 33, Type (0, 1), BuildingBlock: XUDNAN_clean_linker_2, # of connection points: 2
#     Edge 34, Type (0, 1), BuildingBlock: XUDNAN_clean_linker_2, # of connection points: 2
#     Edge 35, Type (0, 1), BuildingBlock: XUDNAN_clean_linker_2, # of connection points: 2
# Relax obj value: 0.295
# Max RMSD: 0.225
# Mean RMSD: 0.211
data_MOF--net-zzz--node1-KUMBUR_clean_sbu_0--node2-KAKCAD_clean_linker_0--edge1-XUDNAN_clean_linker_2
_symmetry_space_group_name_H-M    P1
_symmetry_Int_Tables_number       1
_symmetry_cell_setting            triclinic
loop_
_symmetry_equiv_pos_as_xyz
'x, y, z'
_cell_length_a     57.232807
_cell_length_b     57.219667
_cell_length_c     19.874887
_cell_angle_alpha  90.980291
_cell_angle_beta   90.001538
_cell_angle_gamma 89.898193
loop_
_atom_site_label
_atom_site_type_symbol
_atom_site_fract_x
_atom_site_fract_y
_atom_site_fract_z
_atom_type_partial_charge
C0 C 0.80817 0.60249 0.02758 0.0
C1 C 0.81093 0.58982 0.96673 0.0
C2 C 0.7913 0.59584 0.07427 0.0
C3 C 0.77652 0.57684 0.06008 0.0
C4 C 0.77734 0.56608 0.99624 0.0
C5 C 0.79443 0.57242 0.95011 0.0
C6 C 0.76278 0.56596 0.11406 0.0
C7 C 0.73953 0.55959 0.10324 0.0
C8 C 0.72713 0.54681 0.15111 0.0
C9 C 0.73853 0.54014 0.21129 0.0
C10 C 0.76218 0.54658 0.22247 0.0
C11 C 0.77386 0.5596 0.17374 0.0
C12 C 0.77602 0.54014 0.28299 0.0
C13 C 0.77583 0.55491 0.34014 0.0
C14 C 0.79421 0.52369 0.27622 0.0
C15 C 0.81254 0.52297 0.32324 0.0
C16 C 0.81334 0.53895 0.37787 0.0
C17 C 0.70247 0.54099 0.13396 0.0
C18 C 0.68612 0.55929 0.13109 0.0
C19 C 0.69715 0.5197 0.10097 0.0
C20 C 0.67671 0.51739 0.0619 0.0
C21 C 0.66144 0.53649 0.05431 0.0
C22 C 0.66589 0.55709 0.0918 0.0
C23 C 0.79421 0.55429 0.38707 0.0
H24 H 0.82015 0.61641 0.0413 0.0
H25 H 0.79066 0.60466 0.12291 0.0
H26 H 0.76614 0.55135 0.98414 0.0
H27 H 0.79596 0.56204 0.90428 0.0
H28 H 0.73106 0.56436 0.05658 0.0
H29 H 0.79209 0.56412 0.18146 0.0
H30 H 0.72925 0.53009 0.24842 0.0
H31 H 0.76241 0.56816 0.34586 0.0
H32 H 0.79518 0.51255 0.23167 0.0
H33 H 0.82695 0.51106 0.31385 0.0
H34 H 0.68999 0.57607 0.15461 0.0
H35 H 0.70974 0.50554 0.10065 0.0
H36 H 0.79397 0.56664 0.42894 0.0
H37 H 0.65441 0.57206 0.08744 0.0
H38 H 0.67386 0.50136 0.03336 0.0
C39 C 0.91648 0.79705 0.91643 0.0
C40 C 0.92039 0.82119 0.91381 0.0
C41 C 0.92656 0.7839 0.96792 0.0
C42 C 0.94147 0.79458 0.01604 0.0
C43 C 0.9447 0.81894 0.01349 0.0
C44 C 0.93406 0.83203 0.96381 0.0
C45 C 0.95534 0.78055 0.06494 0.0
C46 C 0.963 0.75786 0.04815 0.0
C47 C 0.9785 0.74562 0.08974 0.0
C48 C 0.98725 0.75687 0.14881 0.0
C49 C 0.97945 0.77968 0.1668 0.0
C50 C 0.96298 0.79072 0.12587 0.0
C51 C 0.98873 0.79372 0.22502 0.0
C52 C 0.97995 0.79067 0.29028 0.0
C53 C 1.00168 0.81405 0.21217 0.0
C54 C 1.00476 0.83145 0.26201 0.0
C55 C 0.99486 0.82918 0.3265 0.0
C56 C 0.98568 0.72158 0.0669 0.0
C57 C 0.9684 0.70497 0.05032 0.0
C58 C 1.00898 0.71638 0.05017 0.0
C59 C 0.01467 0.69555 0.01492 0.0
C60 C 0.9972 0.6793 0.99572 0.0
C61 C 0.97406 0.68415 0.01568 0.0
C62 C 0.98306 0.80811 0.34045 0.0
H63 H 0.90623 0.78831 0.87773 0.0
H64 H 0.92316 0.76532 0.96861 0.0
H65 H 0.95653 0.828 0.04735 0.0
H66 H 0.93794 0.85054 0.96172 0.0
H67 H 0.95779 0.74985 1.00072 0.0
H68 H 0.95663 0.80783 0.14132 0.0
H69 H 0.99993 0.74809 0.18001 0.0
H70 H 0.96945 0.77549 0.30136 0.0
H71 H 1.00813 0.81719 0.16187 0.0
H72 H 0.01369 0.84734 0.24834 0.0
H73 H 0.95025 0.7085 0.06222 0.0
H74 H 0.02262 0.72899 0.06094 0.0
H75 H 0.97549 0.80538 0.38959 0.0
H76 H 0.96012 0.672 1.00373 0.0
H77 H 0.03268 0.69275 1.00021 0.0
C78 C 0.73893 0.93425 0.93165 0.0
C79 C 0.71516 0.93993 0.92826 0.0
C80 C 0.75119 0.93758 0.99204 0.0
C81 C 0.74008 0.9477 0.049 0.0
C82 C 0.7159 0.95212 0.04551 0.0
C83 C 0.70358 0.94793 0.9863 0.0
C84 C 0.75375 0.95616 0.10875 0.0
C85 C 0.77668 0.96425 0.10116 0.0
C86 C 0.78872 0.97507 0.15457 0.0
C87 C 0.77714 0.97898 0.21675 0.0
C88 C 0.75398 0.97072 0.2257 0.0
C89 C 0.74309 0.95863 0.17209 0.0
C90 C 0.73938 0.9761 0.28673 0.0
C91 C 0.72445 0.95886 0.31251 0.0
C92 C 0.73637 0.99925 0.30988 0.0
C93 C 0.71762 1.00525 0.35271 0.0
C94 C 0.70119 0.98831 0.37296 0.0
C95 C 0.81342 0.98161 0.14107 0.0
C96 C 0.83042 0.96385 0.14129 0.0
C97 C 0.81829 1.00224 0.10618 0.0
C98 C 0.83886 1.00424 0.0679 0.0
C99 C 0.85473 0.9855 0.06311 0.0
C100 C 0.85078 0.96572 0.1025 0.0
C101 C 0.70557 0.96485 0.35434 0.0
H102 H 0.74818 0.92825 0.88704 0.0
H103 H 0.76958 0.9332 0.99287 0.0
H104 H 0.70651 0.96044 0.08663 0.0
H105 H 0.68533 0.95297 0.98427 0.0
H106 H 0.78528 0.96285 0.0527 0.0
H107 H 0.72554 0.9521 0.17903 0.0
H108 H 0.78599 0.98816 0.25743 0.0
H109 H 0.72637 0.94078 0.29631 0.0
H110 H 0.74746 0.013 0.29113 0.0
H111 H 0.71554 0.02341 0.3676 0.0
H112 H 0.82683 0.94749 0.1659 0.0
H113 H 0.80518 0.01586 0.10323 0.0
H114 H 0.69361 0.95113 0.36821 0.0
H115 H 0.86255 0.95091 0.09909 0.0
H116 H 0.84125 0.0195 0.03714 0.0
C117 C 0.52013 0.71945 0.34072 0.0
C118 C 0.53853 0.7101 0.37923 0.0
C119 C 0.52468 0.73549 0.28928 0.0
C120 C 0.54771 0.74241 0.27512 0.0
C121 C 0.56586 0.73383 0.31542 0.0
C122 C 0.5614 0.71789 0.3662 0.0
C123 C 0.55373 0.75526 0.21269 0.0
C124 C 0.54266 0.77629 0.1939 0.0
C125 C 0.54902 0.78718 0.13326 0.0
C126 C 0.56604 0.77682 0.09161 0.0
C127 C 0.57648 0.75556 0.10833 0.0
C128 C 0.5705 0.74519 0.16934 0.0
C129 C 0.59061 0.74221 0.05808 0.0
C130 C 0.58272 0.7403 0.99131 0.0
C131 C 0.60956 0.7283 0.07826 0.0
C132 C 0.61846 0.71089 0.03509 0.0
C133 C 0.60846 0.70705 0.97121 0.0
C134 C 0.53691 0.8081 0.1074 0.0
C135 C 0.52088 0.80521 0.05461 0.0
C136 C 0.54507 0.83066 0.12328 0.0
C137 C 0.53786 0.8499 0.08537 0.0
C138 C 0.52252 0.8469 0.03034 0.0
C139 C 0.51377 0.82429 0.01661 0.0
C140 C 0.59156 0.72294 0.94833 0.0
H141 H 0.50227 0.71411 0.34955 0.0
H142 H 0.51035 0.74157 0.25855 0.0
H143 H 0.58381 0.73873 0.30565 0.0
H144 H 0.5762 0.71094 0.39328 0.0
H145 H 0.52921 0.78398 0.22564 0.0
H146 H 0.57789 0.72831 0.18144 0.0
H147 H 0.57045 0.78494 0.04436 0.0
H148 H 0.5681 0.75063 0.97402 0.0
H149 H 0.61639 0.72977 0.12899 0.0
H150 H 0.63182 0.69923 0.05373 0.0
H151 H 0.5149 0.78788 0.04012 0.0
H152 H 0.55793 0.83321 0.16272 0.0
H153 H 0.58324 0.72051 0.89979 0.0
H154 H 0.50237 0.82098 0.97407 0.0
H155 H 0.54478 0.867 0.09815 0.0
C156 C 0.2393 0.43405 0.35231 0.0
C157 C 0.21736 0.42387 0.33796 0.0
C158 C 0.25273 0.44398 0.30153 0.0
C159 C 0.24545 0.44288 0.23389 0.0
C160 C 0.22547 0.42964 0.21835 0.0
C161 C 0.21148 0.42066 0.26926 0.0
C162 C 0.2575 0.45681 0.18094 0.0
C163 C 0.28115 0.46276 0.18725 0.0
C164 C 0.29201 0.47799 0.14234 0.0
C165 C 0.2791 0.48666 0.0872 0.0
C166 C 0.25556 0.47965 0.0774 0.0
C167 C 0.24498 0.46542 0.12567 0.0
C168 C 0.24114 0.48635 0.01768 0.0
C169 C 0.2369 0.50982 1.00175 0.0
C170 C 0.22876 0.4689 0.98184 0.0
C171 C 0.2119 0.47466 0.93373 0.0
C172 C 0.2067 0.49813 0.91977 0.0
C173 C 0.31681 0.48421 0.15708 0.0
C174 C 0.32237 0.50592 0.18728 0.0
C175 C 0.33352 0.46618 0.15919 0.0
C176 C 0.35432 0.46906 0.19548 0.0
C177 C 0.35908 0.49008 0.23053 0.0
C178 C 0.3434 0.50888 0.22336 0.0
C179 C 0.21987 0.51565 0.95347 0.0
H180 H 0.24587 0.43573 0.40303 0.0
H181 H 0.26815 0.45361 0.31665 0.0
H182 H 0.21986 0.42702 0.16678 0.0
H183 H 0.19542 0.41254 0.2531 0.0
H184 H 0.29138 0.45581 0.22816 0.0
H185 H 0.22654 0.46162 0.12045 0.0
H186 H 0.28743 0.49807 0.05154 0.0
H187 H 0.24588 0.52369 0.02897 0.0
H188 H 0.23167 0.45062 0.99259 0.0
H189 H 0.20273 0.4606 0.90797 0.0
H190 H 0.30962 0.51993 0.18788 0.0
H191 H 0.32958 0.44916 0.13737 0.0
H192 H 0.21639 0.53394 0.94463 0.0
H193 H 0.34649 0.52526 0.24998 0.0
H194 H 0.36611 0.45431 0.19939 0.0
C195 C 0.10419 0.21735 0.31095 0.0
C196 C 0.11661 0.19883 0.28028 0.0
C197 C 0.09422 0.23479 0.27204 0.0
C198 C 0.0967 0.23424 0.20164 0.0
C199 C 0.1119 0.21755 0.17231 0.0
C200 C 0.12157 0.19984 0.21121 0.0
C201 C 0.08021 0.24783 0.1593 0.0
C202 C 0.07205 0.26986 0.18034 0.0
C203 C 0.05284 0.28051 0.14905 0.0
C204 C 0.04219 0.26906 0.09289 0.0
C205 C 0.05096 0.24716 0.06909 0.0
C206 C 0.06977 0.23695 0.10329 0.0
C207 C 0.0401 0.23276 0.01345 0.0
C208 C 0.01645 0.22631 0.0155 0.0
C209 C 0.05468 0.22115 0.9664 0.0
C210 C 0.04652 0.2022 0.92742 0.0
C211 C 0.02331 0.19434 0.93316 0.0
C212 C 0.04366 0.3025 0.18147 0.0
C213 C 0.0372 0.30207 0.24976 0.0
C214 C 0.04598 0.32438 0.15084 0.0
C215 C 0.04331 0.34529 0.18898 0.0
C216 C 0.03856 0.34468 0.25861 0.0
C217 C 0.03474 0.32278 0.28769 0.0
C218 C 1.00814 0.20747 0.97563 0.0
H219 H 0.09987 0.217 0.364 0.0
H220 H 0.08263 0.24721 0.29676 0.0
H221 H 0.11481 0.21705 0.11846 0.0
H222 H 0.13127 0.18588 0.18644 0.0
H223 H 0.08013 0.27848 0.2234 0.0
H224 H 0.07521 0.21942 0.0888 0.0
H225 H 0.0271 0.27681 0.06909 0.0
H226 H 1.00473 0.23474 0.0512 0.0
H227 H 0.07302 0.22567 0.96329 0.0
H228 H 0.05899 0.19286 0.89608 0.0
H229 H 0.03544 0.28552 0.27499 0.0
H230 H 0.05135 0.3253 0.09871 0.0
H231 H 0.98993 0.2027 0.98025 0.0
H232 H 0.03071 0.32159 0.34078 0.0
H233 H 0.04641 0.36184 0.16498 0.0
C234 C 0.30034 0.12183 0.26992 0.0
C235 C 0.31677 0.13515 0.23427 0.0
C236 C 0.28182 0.11104 0.2362 0.0
C237 C 0.27943 0.11338 0.16642 0.0
C238 C 0.29314 0.13004 0.13351 0.0
C239 C 0.31158 0.14106 0.16747 0.0
C240 C 0.26768 0.0945 0.12742 0.0
C241 C 0.24618 0.08547 0.14804 0.0
C242 C 0.23745 0.06457 0.11985 0.0
C243 C 0.25063 0.05249 0.06972 0.0
C244 C 0.27248 0.06146 0.04903 0.0
C245 C 0.28042 0.08258 0.07732 0.0
C246 C 0.28885 0.04885 1.00253 0.0
C247 C 0.31082 0.0419 0.02697 0.0
C248 C 0.28534 0.04897 0.93264 0.0
C249 C 0.30386 0.04368 0.88827 0.0
C250 C 0.32641 0.03834 0.91275 0.0
C251 C 0.2153 0.0554 0.14813 0.0
C252 C 0.21516 0.04611 0.21315 0.0
C253 C 0.19387 0.06026 0.1171 0.0
C254 C 0.17272 0.05644 0.15104 0.0
C255 C 0.17246 0.04767 0.21705 0.0
C256 C 0.19405 0.04215 0.247 0.0
C257 C 0.32931 0.03669 0.98287 0.0
H258 H 0.30341 0.11693 0.32154 0.0
H259 H 0.27141 0.09848 0.26316 0.0
H260 H 0.29123 0.1326 0.07991 0.0
H261 H 0.32339 0.15192 0.13916 0.0
H262 H 0.23653 0.09432 0.18797 0.0
H263 H 0.29753 0.08899 0.06313 0.0
H264 H 0.24441 0.03599 0.04917 0.0
H265 H 0.31417 0.0421 0.08065 0.0
H266 H 0.26875 0.05465 0.91233 0.0
H267 H 0.3007 0.04468 0.8347 0.0
H268 H 0.23149 0.0427 0.23878 0.0
H269 H 0.19351 0.06811 0.06789 0.0
H270 H 0.34627 0.0329 1.0042 0.0
H271 H 0.19471 0.03502 0.29707 0.0
H272 H 0.15661 0.06129 0.12635 0.0
C273 C 0.48487 0.30475 0.88745 0.0
C274 C 0.49997 0.32364 0.90191 0.0
C275 C 0.47918 0.28854 0.93713 0.0
C276 C 0.48855 0.29074 1.0022 0.0
C277 C 0.50462 0.30874 0.01567 0.0
C278 C 0.51038 0.32489 0.96613 0.0
C279 C 0.47734 0.27859 0.05919 0.0
C280 C 0.48295 0.25552 0.07736 0.0
C281 C 0.47193 0.24527 0.13344 0.0
C282 C 0.45518 0.25839 0.16992 0.0
C283 C 0.44991 0.28155 0.15339 0.0
C284 C 0.46112 0.29134 0.09771 0.0
C285 C 0.43491 0.29656 0.19793 0.0
C286 C 0.43556 0.29438 0.26836 0.0
C287 C 0.4222 0.31524 0.17104 0.0
C288 C 0.41383 0.33321 0.21278 0.0
C289 C 0.41723 0.33263 0.28304 0.0
C290 C 0.47895 0.22193 0.1596 0.0
C291 C 0.50264 0.21608 0.16759 0.0
C292 C 0.46201 0.20689 0.18643 0.0
C293 C 0.46852 0.18776 0.2252 0.0
C294 C 0.49222 0.18284 0.23759 0.0
C295 C 0.50918 0.19674 0.20588 0.0
C296 C 0.42633 0.31195 0.31034 0.0
H297 H 0.47631 0.30326 0.839 0.0
H298 H 0.46625 0.27522 0.92602 0.0
H299 H 0.51173 0.31109 0.06586 0.0
H300 H 0.5224 0.33886 0.97898 0.0
H301 H 0.49596 0.24581 0.04878 0.0
H302 H 0.45797 0.30943 0.08514 0.0
H303 H 0.44688 0.25082 0.21335 0.0
H304 H 0.44478 0.28011 0.29162 0.0
H305 H 0.42023 0.31696 0.11717 0.0
H306 H 0.40667 0.34838 0.1885 0.0
H307 H 0.51617 0.22723 0.14773 0.0
H308 H 0.44357 0.21061 0.18034 0.0
H309 H 0.42813 0.31003 0.36415 0.0
H310 H 0.52762 0.1932 0.21246 0.0
H311 H 0.45483 0.17768 0.24849 0.0
Tb312 Tb 0.0322 1.00806 0.68321 0.0
C313 C 0.93946 0.98801 0.53674 0.0
C314 C 0.94843 0.96089 0.44593 0.0
C315 C 0.91011 0.96014 0.49848 0.0
C316 C 0.9551 0.97913 0.49054 0.0
C317 C 0.91661 0.97895 0.54073 0.0
C318 C 0.92601 0.95112 0.45104 0.0
C319 C 0.90793 1.00881 0.62436 0.0
N320 N 0.94646 1.00616 0.57633 0.0
C321 C 0.93075 0.01722 0.61818 0.0
C322 C 0.9009 0.9894 0.58603 0.0
Tb323 Tb 0.98468 0.01793 0.56626 0.0
N324 N 0.97662 0.98895 0.48783 0.0
C325 C 0.99178 0.98228 0.43778 0.0
C326 C 0.96432 0.95336 0.39671 0.0
C327 C 0.98593 0.96439 0.39199 0.0
H328 H 0.93603 0.03204 0.64883 0.0
H329 H 0.99821 0.95909 0.35326 0.0
H330 H 0.92066 0.93693 0.41774 0.0
H331 H 0.89583 0.01724 0.6589 0.0
H332 H 1.00875 0.99007 0.43344 0.0
H333 H 0.02006 0.06016 0.91078 0.0
H334 H 0.95991 0.9394 0.36146 0.0
H335 H 0.08195 0.99326 0.60934 0.0
H336 H 0.0104 0.02965 0.82789 0.0
H337 H 0.12282 1.00647 0.6088 0.0
H338 H 0.89271 0.95278 0.50111 0.0
H339 H 0.05631 0.08313 0.89918 0.0
H340 H 0.09475 0.08839 0.84028 0.0
H341 H 0.8832 0.98293 0.5908 0.0
H342 H 0.12319 0.07362 0.75693 0.0
N343 N 0.03982 0.03614 0.76474 0.0
C344 C 0.02601 0.03969 0.82026 0.0
C345 C 0.05196 0.06993 0.86151 0.0
C346 C 0.06725 0.06461 0.80862 0.0
C347 C 0.03154 0.05696 0.86832 0.0
C348 C 0.06066 0.04729 0.76091 0.0
H349 H 0.13422 0.04225 0.67247 0.0
N350 N 0.07018 0.02067 0.67509 0.0
C351 C 0.1099 0.01621 0.63747 0.0
C352 C 0.07656 0.03909 0.71447 0.0
C353 C 0.08673 1.00862 0.63852 0.0
C354 C 0.11624 0.03636 0.67354 0.0
C355 C 0.09961 0.04779 0.71389 0.0
O356 O 0.05474 0.98077 0.70961 0.0
O357 O 1.00782 0.99316 0.61146 0.0
O358 O 0.97185 0.99668 0.64843 0.0
O359 O 0.99736 1.00787 0.73436 0.0
O360 O 0.03996 0.97856 0.61305 0.0
O361 O 0.02519 0.98958 0.7718 0.0
O362 O 0.96376 0.04641 0.53909 0.0
O363 O 1.00852 0.03297 0.64007 0.0
O364 O 0.04653 0.02776 0.59751 0.0
O365 O 0.01896 0.0181 0.51557 0.0
O366 O 0.97592 0.04713 0.635 0.0
O367 O 0.9914 0.03404 0.47386 0.0
C368 C 0.01979 0.97685 0.58546 0.0
C369 C 0.03575 0.94965 0.75932 0.0
C370 C 1.00816 0.91793 0.73736 0.0
C371 C 0.01343 0.94194 0.73975 0.0
C372 C 0.02591 0.90177 0.75292 0.0
C373 C 0.05311 0.93327 0.77445 0.0
C374 C 0.04821 0.90944 0.77085 0.0
C375 C 0.97686 0.99954 0.71306 0.0
C376 C 0.04186 0.97455 0.75976 0.0
C377 C 0.10568 0.06644 0.75723 0.0
C378 C 0.08949 0.07484 0.80468 0.0
C379 C 0.99574 0.04915 0.66429 0.0
C380 C 0.98725 0.07508 0.49021 0.0
C381 C 0.01089 0.0789 0.47404 0.0
C382 C 0.02121 0.10071 0.4868 0.0
C383 C 1.00756 0.1191 0.51318 0.0
C384 C 0.97382 0.09381 0.51583 0.0
C385 C 0.98396 0.11567 0.52716 0.0
C386 C 0.03998 0.02578 0.53352 0.0
C387 C 0.97722 0.05129 0.4884 0.0
H388 H 1.00018 0.9546 0.7267 0.0
H389 H 0.02245 0.88319 0.75367 0.0
H390 H 0.07051 0.93894 0.78856 0.0
H391 H 0.06165 0.89687 0.78296 0.0
H392 H 0.02146 0.06489 0.45323 0.0
H393 H 0.0151 0.13624 0.52187 0.0
H394 H 0.9556 0.09137 0.52873 0.0
H395 H 0.97355 0.12995 0.54743 0.0
Tb396 Tb 0.52367 0.03203 0.69744 0.0
C397 C 0.52657 0.95135 0.50913 0.0
C398 C 0.5559 0.96315 0.42966 0.0
C399 C 0.55206 0.92215 0.45725 0.0
C400 C 0.53775 0.96869 0.47534 0.0
C401 C 0.53298 0.92773 0.49898 0.0
C402 C 0.56346 0.93987 0.42235 0.0
C403 C 0.499 0.91682 0.56283 0.0
N404 N 0.50785 0.95753 0.54691 0.0
C405 C 0.49319 0.94047 0.57026 0.0
C406 C 0.51926 0.91041 0.52809 0.0
Tb407 Tb 0.50072 0.99706 0.56335 0.0
N408 N 0.5293 0.99072 0.48255 0.0
C409 C 0.5371 1.00773 0.44032 0.0
C410 C 0.56505 0.98092 0.3903 0.0
C411 C 0.55519 1.00317 0.39452 0.0
H412 H 0.47748 0.94523 0.59737 0.0
H413 H 0.56162 0.01694 0.36277 0.0
H414 H 0.57744 0.93527 0.3878 0.0
H415 H 0.48779 0.90356 0.58369 0.0
H416 H 0.53002 0.02514 0.44172 0.0
H417 H 0.56583 0.99662 0.91704 0.0
H418 H 0.57904 0.97744 0.35477 0.0
H419 H 0.48062 0.07324 0.6912 0.0
H420 H 0.56344 1.00874 0.79893 0.0
H421 H 0.44979 0.08774 0.76517 0.0
H422 H 0.55744 0.90415 0.4493 0.0
H423 H 0.53247 1.00382 0.99384 0.0
H424 H 0.49335 0.02273 0.01365 0.0
H425 H 0.5236 0.89207 0.5216 0.0
H426 H 0.46181 0.04789 0.97214 0.0
N427 N 0.52859 0.0215 0.80728 0.0
C428 C 0.54873 0.01181 0.83162 0.0
C429 C 0.53127 1.00902 0.94179 0.0
C430 C 0.51162 0.02096 0.9182 0.0
C431 C 0.55014 1.00494 0.89864 0.0
C432 C 0.51093 0.02734 0.84999 0.0
H433 H 0.44559 0.07247 0.87995 0.0
N434 N 0.49422 0.04864 0.76147 0.0
C435 C 0.46177 0.07454 0.78287 0.0
C436 C 0.49312 0.04133 0.82624 0.0
C437 C 0.47954 0.06604 0.7407 0.0
C438 C 0.45939 0.06582 0.84752 0.0
C439 C 0.47554 0.04949 0.87065 0.0
O440 O 0.54985 0.05301 0.65528 0.0
O441 O 0.53124 0.01429 0.60262 0.0
O442 O 0.51221 0.9734 0.64365 0.0
O443 O 0.51807 0.9972 0.73884 0.0
O444 O 0.55329 1.00817 0.67981 0.0
O445 O 0.53911 0.05906 0.75631 0.0
O446 O 0.46986 0.98154 0.52702 0.0
O447 O 0.49202 0.02114 0.64633 0.0
O448 O 0.50883 0.05623 0.62543 0.0
O449 O 0.50471 0.03325 0.52851 0.0
O450 O 0.47324 0.99105 0.63731 0.0
O451 O 0.48333 0.01187 0.4805 0.0
C452 C 0.55025 1.00412 0.61652 0.0
C453 C 0.57893 0.0647 0.73217 0.0
C454 C 0.61622 0.04445 0.74575 0.0
C455 C 0.59378 0.04573 0.71775 0.0
C456 C 0.62451 0.06363 0.78402 0.0
C457 C 0.58742 0.0836 0.77057 0.0
C458 C 0.61027 0.0832 0.79542 0.0
C459 C 0.51542 0.97656 0.70922 0.0
C460 C 0.5543 0.06422 0.7107 0.0
C461 C 0.47531 0.04199 0.93759 0.0
C462 C 0.49329 0.02768 0.96128 0.0
C463 C 0.47537 0.00988 0.67244 0.0
C464 C 0.44231 1.00956 0.4928 0.0
C465 C 0.43724 0.0296 0.45579 0.0
C466 C 0.41567 0.04117 0.46332 0.0
C467 C 0.39908 0.03224 0.50837 0.0
C468 C 0.42538 1.00088 0.53721 0.0
C469 C 0.40396 0.01223 0.54493 0.0
C470 C 0.50614 0.05382 0.55973 0.0
C471 C 0.46543 0.99821 0.48597 0.0
H472 H 0.5878 0.03157 0.68601 0.0
H473 H 0.64161 0.06321 0.80729 0.0
H474 H 0.57629 0.09848 0.78203 0.0
H475 H 0.6167 0.09776 0.82551 0.0
H476 H 0.45025 0.0363 0.42157 0.0
H477 H 0.3821 0.04038 0.51442 0.0
H478 H 0.42869 0.98544 0.56654 0.0
H479 H 0.39107 1.00549 0.57938 0.0
Tb480 Tb 0.5385 0.51352 0.5826 0.0
C481 C 0.43861 0.49342 0.67206 0.0
C482 C 0.41422 0.51269 0.5908 0.0
C483 C 0.40056 0.47722 0.64321 0.0
C484 C 0.43534 0.51114 0.6273 0.0
C485 C 0.42098 0.47663 0.68228 0.0
C486 C 0.39718 0.49526 0.59749 0.0
C487 C 0.44363 0.46187 0.77472 0.0
N488 N 0.45843 0.49362 0.70914 0.0
C489 C 0.46047 0.47899 0.76292 0.0
C490 C 0.424 0.46036 0.7333 0.0
Tb491 Tb 0.48614 0.52132 0.68356 0.0
N492 N 0.45238 0.52749 0.62195 0.0
C493 C 0.44815 0.5471 0.58496 0.0
C494 C 0.41063 0.53197 0.54997 0.0
C495 C 0.42748 0.54946 0.54819 0.0
H496 H 0.47557 0.48013 0.79544 0.0
H497 H 0.4246 0.56486 0.5184 0.0
H498 H 0.38106 0.49595 0.56898 0.0
H499 H 0.44572 0.44997 0.816 0.0
H500 H 0.4604 0.56124 0.58233 0.0
H501 H 0.60219 0.47149 0.74354 0.0
H502 H 0.39468 0.53382 0.52114 0.0
H503 H 0.54446 0.55824 0.47889 0.0
H504 H 0.56554 0.47429 0.6825 0.0
H505 H 0.5729 0.58985 0.45934 0.0
H506 H 0.38696 0.4643 0.64959 0.0
H507 H 0.63131 0.50322 0.73816 0.0
H508 H 0.64346 0.54151 0.68972 0.0
H509 H 0.41087 0.44721 0.7428 0.0
H510 H 0.6355 0.57377 0.61262 0.0
N511 N 0.57269 0.50797 0.64154 0.0
C512 C 0.57763 0.48854 0.67843 0.0
C513 C 0.61509 0.50463 0.71036 0.0
C514 C 0.61062 0.52385 0.6699 0.0
C515 C 0.59868 0.48673 0.71366 0.0
C516 C 0.58917 0.52487 0.63499 0.0
H517 H 0.60936 0.59183 0.52612 0.0
N518 N 0.56431 0.54289 0.55752 0.0
C519 C 0.57644 0.57683 0.49687 0.0
C520 C 0.58478 0.54299 0.59178 0.0
C521 C 0.56045 0.55886 0.50788 0.0
C522 C 0.59695 0.57792 0.5348 0.0
C523 C 0.60155 0.56065 0.58209 0.0
O524 O 0.5512 0.51128 0.48408 0.0
O525 O 0.5008 0.51138 0.58752 0.0
O526 O 0.49093 0.48369 0.66589 0.0
O527 O 0.5301 0.48046 0.63287 0.0
O528 O 0.51419 0.52354 0.50091 0.0
O529 O 0.5481 0.48033 0.5438 0.0
O530 O 0.47486 0.52588 0.78335 0.0
O531 O 0.52382 0.5223 0.67939 0.0
O532 O 0.53565 0.54987 0.61564 0.0
O533 O 0.49563 0.55361 0.62886 0.0
O534 O 0.50979 0.51131 0.76653 0.0
O535 O 0.47758 0.5553 0.71807 0.0
C536 C 0.49502 0.51805 0.52999 0.0
C537 C 0.54048 0.47752 0.42619 0.0
C538 C 0.50609 0.45981 0.37465 0.0
C539 C 0.51829 0.46735 0.43233 0.0
C540 C 0.5163 0.46242 0.31092 0.0
C541 C 0.55055 0.47973 0.36228 0.0
C542 C 0.53849 0.4722 0.30494 0.0
C543 C 0.51036 0.47151 0.65603 0.0
C544 C 0.55216 0.48863 0.4841 0.0
C545 C 0.6225 0.56024 0.6188 0.0
C546 C 0.62704 0.54186 0.66262 0.0
C547 C 0.52928 0.51556 0.73731 0.0
C548 C 0.48599 0.56113 0.83392 0.0
C549 C 0.50875 0.56979 0.82569 0.0
C550 C 0.52027 0.58125 0.87949 0.0
C551 C 0.50864 0.58352 0.94182 0.0
C552 C 0.47486 0.56348 0.89641 0.0
C553 C 0.48619 0.57458 0.95011 0.0
C554 C 0.51644 0.56255 0.61538 0.0
C555 C 0.47397 0.54844 0.77935 0.0
H556 H 0.5103 0.46577 0.4815 0.0
H557 H 0.50733 0.45641 0.26587 0.0
H558 H 0.56752 0.48784 0.35665 0.0
H559 H 0.5463 0.47407 0.25573 0.0
H560 H 0.51736 0.56762 0.77748 0.0
H561 H 0.51654 0.59283 0.98386 0.0
H562 H 0.45742 0.55663 0.90369 0.0
H563 H 0.47743 0.5765 0.99817 0.0
Tb564 Tb 0.02449 0.54037 0.5491 0.0
C565 C 0.0137 0.44015 0.62802 0.0
C566 C 0.98493 0.42788 0.54573 0.0
C567 C 0.01084 0.3991 0.59392 0.0
C568 C 0.99541 0.44564 0.58601 0.0
C569 C 0.02164 0.41678 0.6324 0.0
C570 C 0.99248 0.40464 0.55077 0.0
C571 C 0.04999 0.4297 0.71412 0.0
N572 N 0.02423 0.45773 0.66313 0.0
C573 C 0.04137 0.45242 0.70865 0.0
C574 C 0.04024 0.41179 0.6753 0.0
Tb575 Tb 1.00735 0.49429 0.65802 0.0
N576 N 0.98924 0.46853 0.5804 0.0
C577 C 0.97456 0.47447 0.52838 0.0
C578 C 0.96791 0.43404 0.49916 0.0
C579 C 0.96321 0.4575 0.48912 0.0
H580 H 0.04797 0.46544 0.7432 0.0
H581 H 0.95143 0.46264 0.4494 0.0
H582 H 0.98462 0.3909 0.5202 0.0
H583 H 0.06381 0.42595 0.74958 0.0
H584 H 0.9723 0.49216 0.51282 0.0
H585 H 0.05938 0.61124 0.70238 0.0
H586 H 0.95932 0.42093 0.468 0.0
H587 H 0.98727 0.54179 0.4205 0.0
H588 H 0.05847 0.57171 0.65371 0.0
H589 H 0.95894 0.5695 0.37226 0.0
H590 H 0.01673 0.38113 0.59665 0.0
H591 H 0.0293 0.64014 0.67135 0.0
H592 H 0.99454 0.6502 0.60003 0.0
H593 H 0.04683 0.39412 0.6799 0.0
H594 H 0.96716 0.63886 0.5097 0.0
N595 N 0.0273 0.57716 0.59689 0.0
C596 C 0.04497 0.58377 0.63951 0.0
C597 C 0.02862 0.62262 0.64994 0.0
C598 C 0.01146 0.61629 0.60307 0.0
C599 C 0.04567 0.60638 0.66738 0.0
C600 C 0.01143 0.59324 0.57675 0.0
H601 H 0.95398 0.60889 0.42366 0.0
N602 N 0.99763 0.56495 0.50025 0.0
C603 C 0.96921 0.57461 0.41579 0.0
C604 C 0.99618 0.58699 0.52608 0.0
C605 C 0.98534 0.55901 0.44307 0.0
C606 C 0.96643 0.5968 0.44502 0.0
C607 C 0.98033 0.60342 0.50002 0.0
O608 O 0.03378 0.54375 0.44785 0.0
O609 O 0.02535 0.50306 0.56707 0.0
O610 O 0.04614 0.49764 0.66681 0.0
O611 O 0.05471 0.53295 0.61491 0.0
O612 O 0.01732 0.51309 0.47214 0.0
O613 O 0.05855 0.55178 0.52581 0.0
O614 O 0.01603 0.49324 0.7608 0.0
O615 O 0.01832 0.53056 0.65099 0.0
O616 O 0.98596 0.54171 0.5632 0.0
O617 O 0.97392 0.50836 0.62114 0.0
O618 O 0.99097 0.52408 0.71166 0.0
O619 O 0.98563 0.47524 0.7222 0.0
C620 C 0.02166 0.49534 0.5084 0.0
C621 C 0.07183 0.53264 0.4265 0.0
C622 C 0.09303 0.49575 0.41984 0.0
C623 C 0.08006 0.51226 0.45715 0.0
C624 C 0.09759 0.49984 0.35141 0.0
C625 C 0.07665 0.53649 0.35848 0.0
C626 C 0.08947 0.52011 0.32112 0.0
C627 C 0.06095 0.5148 0.65197 0.0
C628 C 0.05543 0.54823 0.46161 0.0
C629 C 0.97939 0.62604 0.52842 0.0
C630 C 0.99496 0.63248 0.57987 0.0
C631 C 1.00431 0.54042 0.69144 0.0
C632 C 0.98388 0.49021 0.83371 0.0
C633 C 0.96473 0.50521 0.82479 0.0
C634 C 0.95308 0.51541 0.88029 0.0
C635 C 0.96001 0.50881 0.94542 0.0
C636 C 0.99077 0.48435 0.89884 0.0
C637 C 0.97867 0.49339 0.95438 0.0
C638 C 0.9695 0.52763 0.58667 0.0
C639 C 0.99745 0.48131 0.77585 0.0
H640 H 0.07609 0.50902 0.50945 0.0
H641 H 0.10803 0.48769 0.32169 0.0
H642 H 0.06999 0.55189 0.3339 0.0
H643 H 0.09313 0.52312 0.26855 0.0
H644 H 0.95924 0.50923 0.77442 0.0
H645 H 0.95095 0.51524 0.98977 0.0
H646 H 1.00549 0.47278 0.90667 0.0
H647 H 0.98387 0.48858 1.00465 0.0
H648 H 0.1634 0.05438 0.35377 0.0
H649 H 0.12994 0.03371 0.16584 0.0
H650 H 0.09273 0.02875 0.22589 0.0
H651 H 0.13249 0.01274 0.46069 0.0
H652 H 0.13297 0.03412 0.5286 0.0
H653 H 0.15521 0.03453 0.4654 0.0
H654 H 0.14329 0.0784 0.45495 0.0
H655 H 0.11836 0.07571 0.50985 0.0
H656 H 0.11456 0.08536 0.42479 0.0
H657 H 0.05948 0.02492 0.30511 0.0
H658 H 0.03225 0.02057 0.39848 0.0
H659 H 0.08614 0.04296 0.53931 0.0
C660 C 0.14833 0.04864 0.32512 0.0
C661 C 0.14985 0.04456 0.25445 0.0
C662 C 0.12941 0.03741 0.21941 0.0
C663 C 0.10812 0.03439 0.25327 0.0
C664 C 0.10733 0.03848 0.32258 0.0
C665 C 0.12685 0.04538 0.3583 0.0
C666 C 0.12123 0.04797 0.43298 0.0
C667 C 0.13634 0.03127 0.47426 0.0
C668 C 0.12456 0.07338 0.45716 0.0
C669 C 0.09551 0.04099 0.43382 0.0
C670 C 0.08798 0.03585 0.36916 0.0
C671 C 0.06522 0.02874 0.35599 0.0
C672 C 0.04983 0.02619 0.41008 0.0
C673 C 0.05696 0.03058 0.47761 0.0
C674 C 0.08013 0.03869 0.48908 0.0
H675 H 0.4703 0.14069 0.26495 0.0
H676 H 0.52914 0.18398 0.32637 0.0
H677 H 0.53898 0.15574 0.41397 0.0
H678 H 0.45494 0.12731 0.43516 0.0
H679 H 0.44529 0.09804 0.41768 0.0
H680 H 0.44267 0.1201 0.35406 0.0
H681 H 0.46637 0.09543 0.26888 0.0
H682 H 0.46872 0.07233 0.32892 0.0
H683 H 0.49473 0.0844 0.2922 0.0
H684 H 0.54104 0.12404 0.5005 0.0
H685 H 0.53703 0.08947 0.57248 0.0
H686 H 0.47742 0.06633 0.45487 0.0
C687 C 0.48533 0.1443 0.29645 0.0
C688 C 0.49905 0.16465 0.28752 0.0
C689 C 0.51859 0.16839 0.3304 0.0
C690 C 0.52423 0.15252 0.38107 0.0
C691 C 0.51014 0.13292 0.38891 0.0
C692 C 0.49116 0.1287 0.34763 0.0
C693 C 0.47822 0.10691 0.36889 0.0
C694 C 0.45381 0.11346 0.39536 0.0
C695 C 0.47694 0.08869 0.31126 0.0
C696 C 0.49368 0.09873 0.42584 0.0
C697 C 0.51158 0.11443 0.43797 0.0
C698 C 0.52723 0.11152 0.49091 0.0
C699 C 0.52474 0.09191 0.53176 0.0
C700 C 0.50705 0.07516 0.51877 0.0
C701 C 0.4913 0.07868 0.46515 0.0
H702 H 0.39399 0.52358 0.24774 0.0
H703 H 0.36782 0.45873 0.32857 0.0
H704 H 0.39911 0.45926 0.41385 0.0
H705 H 0.45549 0.50959 0.26855 0.0
H706 H 0.46388 0.53898 0.29164 0.0
H707 H 0.43907 0.53403 0.23744 0.0
H708 H 0.41368 0.55843 0.31826 0.0
H709 H 0.43756 0.56293 0.37613 0.0
H710 H 0.41067 0.55 0.40457 0.0
H711 H 0.43422 0.46543 0.48705 0.0
H712 H 0.46957 0.47835 0.54807 0.0
H713 H 0.47383 0.5394 0.42266 0.0
C714 C 0.3949 0.50953 0.28344 0.0
C715 C 0.37848 0.491 0.28102 0.0
C716 C 0.38031 0.47293 0.32873 0.0
C717 C 0.39797 0.47315 0.37769 0.0
C718 C 0.41407 0.49136 0.37809 0.0
C719 C 0.41282 0.50922 0.33222 0.0
C720 C 0.43268 0.5265 0.34358 0.0
C721 C 0.44873 0.52731 0.28162 0.0
C722 C 0.4231 0.55092 0.36177 0.0
C723 C 0.44516 0.51559 0.40299 0.0
C724 C 0.43412 0.49526 0.42177 0.0
C725 C 0.44272 0.48158 0.47365 0.0
C726 C 0.4628 0.48909 0.50826 0.0
C727 C 0.47392 0.51033 0.49198 0.0
C728 C 0.46531 0.52339 0.43731 0.0
H729 H 0.01725 0.38801 0.2412 0.0
H730 H 0.06231 0.3501 0.37687 0.0
H731 H 0.06402 0.3846 0.45293 0.0
H732 H 0.04423 0.44582 0.26629 0.0
H733 H 0.01668 0.4611 0.26397 0.0
H734 H 0.02028 0.43396 0.21773 0.0
H735 H 0.98435 0.4177 0.27824 0.0
H736 H 0.98084 0.44388 0.32894 0.0
H737 H 0.98423 0.41593 0.3685 0.0
H738 H 0.06299 0.42442 0.51157 0.0
H739 H 0.05365 0.46393 0.55706 0.0
H740 H 1.00634 0.47497 0.39056 0.0
C741 C 0.02773 0.38711 0.28644 0.0
C742 C 0.03971 0.36624 0.30272 0.0
C743 C 0.05285 0.36574 0.36326 0.0
C744 C 0.05408 0.38534 0.40669 0.0
C745 C 0.04215 0.4056 0.38928 0.0
C746 C 0.02898 0.40657 0.331 0.0
C747 C 0.01655 0.43001 0.32665 0.0
C748 C 0.02494 0.44352 0.26499 0.0
C749 C 0.98991 0.42671 0.32555 0.0
C750 C 0.02461 0.4419 0.39166 0.0
C751 C 0.03984 0.42772 0.42625 0.0
C752 C 0.05057 0.43538 0.48577 0.0
C753 C 0.04502 0.45778 0.51167 0.0
C754 C 0.02827 0.47198 0.47958 0.0
C755 C 0.01859 0.46415 0.41756 0.0
H756 H 0.89532 0.01167 0.04426 0.0
H757 H 0.85302 0.95647 0.95535 0.0
H758 H 0.87996 0.95381 0.85853 0.0
H759 H 0.91159 0.03972 0.88937 0.0
H760 H 0.94125 0.04582 0.9145 0.0
H761 H 0.91861 0.0439 0.97719 0.0
H762 H 0.94232 0.01213 0.03868 0.0
H763 H 0.96501 0.01399 0.97612 0.0
H764 H 0.95153 0.98624 0.99291 0.0
H765 H 0.90927 0.95883 0.76802 0.0
H766 H 0.94215 0.96794 0.69346 0.0
H767 H 0.96858 0.01775 0.84194 0.0
C768 C 0.89188 0.99903 1.00435 0.0
C769 C 0.87207 0.98422 1.00716 0.0
C770 C 0.86813 0.96784 0.95423 0.0
C771 C 0.88329 0.96626 0.89896 0.0
C772 C 0.90262 0.981 0.89743 0.0
C773 C 0.90725 0.99687 0.94892 0.0
C774 C 0.92977 0.01011 0.93465 0.0
C775 C 0.92501 0.03645 0.92857 0.0
C776 C 0.94825 1.00533 0.98882 0.0
C777 C 0.93684 0.9993 0.86705 0.0
C778 C 0.92065 0.98279 0.84644 0.0
C779 C 0.92232 0.97138 0.78422 0.0
C780 C 0.94108 0.97677 0.74203 0.0
C781 C 0.95825 0.9933 0.76199 0.0
C782 C 0.95611 1.00463 0.82577 0.0
H783 H 0.55063 0.88372 0.99018 0.0
H784 H 0.48074 0.85517 0.96649 0.0
H785 H 0.47203 0.88476 0.88169 0.0
H786 H 0.53255 0.94561 0.97318 0.0
H787 H 0.55906 0.95301 0.92958 0.0
H788 H 0.55922 0.92995 0.99013 0.0
H789 H 0.57633 0.90199 0.89819 0.0
H790 H 0.57535 0.92499 0.83752 0.0
H791 H 0.56063 0.89771 0.8203 0.0
H792 H 0.47146 0.91555 0.79407 0.0
H793 H 0.47776 0.9485 0.71756 0.0
H794 H 0.54684 0.95935 0.8015 0.0
C795 C 0.53331 0.88392 0.96836 0.0
C796 C 0.51652 0.86669 0.98486 0.0
C797 C 0.49418 0.86765 0.95396 0.0
C798 C 0.48897 0.88453 0.90585 0.0
C799 C 0.50608 0.90075 0.88958 0.0
C800 C 0.52766 0.90093 0.92069 0.0
C801 C 0.54282 0.9205 0.8939 0.0
C802 C 0.54875 0.93833 0.95006 0.0
C803 C 0.5651 0.9107 0.8605 0.0
C804 C 0.52651 0.931 0.84219 0.0
C805 C 0.50547 0.91917 0.84034 0.0
C806 C 0.48782 0.92499 0.79527 0.0
C807 C 0.49166 0.94353 0.75141 0.0
C808 C 0.51288 0.95612 0.75296 0.0
C809 C 0.53048 0.9499 0.7993 0.0
H810 H 0.62629 0.50376 0.02878 0.0
H811 H 0.65533 0.56876 0.95747 0.0
H812 H 0.62527 0.57008 0.86865 0.0
H813 H 0.61167 0.47991 0.86511 0.0
H814 H 0.58441 0.46682 0.88981 0.0
H815 H 0.60774 0.47025 0.9501 0.0
H816 H 0.58108 0.49367 0.03113 0.0
H817 H 0.55715 0.48981 0.97311 0.0
H818 H 0.56544 0.51878 1.00089 0.0
H819 H 0.5911 0.56588 0.79143 0.0
H820 H 0.55654 0.55461 0.7249 0.0
H821 H 0.54914 0.49184 0.84177 0.0
C822 C 0.62625 0.51825 0.99447 0.0
C823 C 0.64299 0.53641 1.00093 0.0
C824 C 0.64245 0.55494 0.95453 0.0
C825 C 0.62549 0.5558 0.90368 0.0
C826 C 0.60894 0.53806 0.89964 0.0
C827 C 0.60917 0.51953 0.9434 0.0
C828 C 0.58929 0.50272 0.92711 0.0
C829 C 0.59884 0.47848 0.9068 0.0
C830 C 0.57223 0.50116 0.98661 0.0
C831 C 0.57797 0.51473 0.86762 0.0
C832 C 0.58958 0.53516 0.853 0.0
C833 C 0.58213 0.54969 0.80167 0.0
C834 C 0.56253 0.54303 0.76355 0.0
C835 C 0.55068 0.52185 0.776 0.0
C836 C 0.55826 0.50781 0.82986 0.0
H837 H 0.97032 0.65741 0.89637 0.0
H838 H 0.03702 0.65191 0.99928 0.0
H839 H 0.04669 0.61715 0.92957 0.0
H840 H 0.95931 0.59526 0.88548 0.0
H841 H 0.94589 0.59629 0.80354 0.0
H842 H 0.94423 0.62131 0.85953 0.0
H843 H 0.96171 0.64708 0.76923 0.0
H844 H 0.96483 0.62268 0.71137 0.0
H845 H 0.98989 0.64017 0.7341 0.0
H846 H 0.04875 0.58176 0.85051 0.0
H847 H 0.04281 0.54919 0.76835 0.0
H848 H 0.97493 0.57728 0.7172 0.0
C849 C 0.98689 0.64884 0.90508 0.0
C850 C 1.00289 0.65777 0.95387 0.0
C851 C 0.02452 0.64594 0.96193 0.0
C852 C 0.03015 0.62598 0.92269 0.0
C853 C 0.01402 0.6178 0.87523 0.0
C854 C 0.99277 0.62881 0.86648 0.0
C855 C 0.97841 0.6163 0.81246 0.0
C856 C 0.95561 0.60669 0.84204 0.0
C857 C 0.97342 0.63251 0.75324 0.0
C858 C 0.99491 0.5966 0.79204 0.0
C859 C 0.01536 0.59773 0.82901 0.0
C860 C 0.03292 0.58093 0.82079 0.0
C861 C 0.02949 0.56257 0.77379 0.0
C862 C 1.00884 0.56128 0.73474 0.0
C863 C 0.99122 0.57835 0.74483 0.0
H864 H 0.10213 0.15658 0.23552 0.0
H865 H 0.13277 0.19172 0.40841 0.0
H866 H 0.12012 0.15951 0.48042 0.0
H867 H 0.05375 0.14626 0.298 0.0
H868 H 0.04736 0.11758 0.26371 0.0
H869 H 0.06744 0.13605 0.22113 0.0
H870 H 0.09899 0.10412 0.22588 0.0
H871 H 0.07943 0.08501 0.27005 0.0
H872 H 0.10759 0.09217 0.30523 0.0
H873 H 0.09321 0.1333 0.53693 0.0
H874 H 0.05609 0.11523 0.57105 0.0
H875 H 0.04117 0.0969 0.36362 0.0
C876 C 0.10765 0.15657 0.28761 0.0
C877 C 0.11851 0.17648 0.31647 0.0
C878 C 0.12463 0.17649 0.38536 0.0
C879 C 0.11751 0.1582 0.42656 0.0
C880 C 0.10453 0.13994 0.39793 0.0
C881 C 0.10021 0.1386 0.32935 0.0
C882 C 0.08167 0.12043 0.31298 0.0
C883 C 0.06138 0.13073 0.27167 0.0
C884 C 0.09256 0.09917 0.27643 0.0
C885 C 0.07402 0.11417 0.38327 0.0
C886 C 0.08813 0.12477 0.43149 0.0
C887 C 0.08243 0.12449 0.49972 0.0
C888 C 0.06122 0.1144 0.5187 0.0
C889 C 0.04589 0.105 0.4696 0.0
C890 C 0.05296 0.10367 0.40181 0.0
H891 H 0.33238 0.1416 0.36438 0.0
H892 H 0.35658 0.12844 0.16044 0.0
H893 H 0.39223 0.11096 0.20364 0.0
H894 H 0.39611 0.14395 0.44755 0.0
H895 H 0.38449 0.12917 0.51955 0.0
H896 H 0.36682 0.15023 0.47602 0.0
H897 H 0.33457 0.11889 0.46191 0.0
H898 H 0.35229 0.09752 0.50251 0.0
H899 H 0.34134 0.09169 0.41885 0.0
H900 H 0.41466 0.08127 0.26085 0.0
H901 H 0.42711 0.04873 0.33141 0.0
H902 H 0.39074 0.08019 0.50195 0.0
C903 C 0.34583 0.13623 0.32909 0.0
C904 C 0.34131 0.13601 0.25916 0.0
C905 C 0.35938 0.12901 0.2143 0.0
C906 C 0.37985 0.1188 0.2385 0.0
C907 C 0.38226 0.11616 0.30761 0.0
C908 C 0.36624 0.12559 0.35279 0.0
C909 C 0.37052 0.11659 0.42313 0.0
C910 C 0.38006 0.13615 0.46929 0.0
C911 C 0.34837 0.10551 0.45323 0.0
C912 C 0.38917 0.09843 0.40842 0.0
C913 C 0.39618 0.09894 0.34194 0.0
C914 C 0.41017 0.08136 0.31373 0.0
C915 C 0.41714 0.06285 0.35432 0.0
C916 C 0.41014 0.06199 0.4226 0.0
C917 C 0.39648 0.08039 0.45008 0.0
H918 H 0.44294 0.34422 0.39602 0.0
H919 H 0.39002 0.37236 0.26318 0.0
H920 H 0.40213 0.41204 0.29582 0.0
H921 H 0.43882 0.39829 0.52683 0.0
H922 H 0.46958 0.39474 0.54308 0.0
H923 H 0.45142 0.36941 0.52872 0.0
H924 H 0.47946 0.35573 0.43403 0.0
H925 H 0.49724 0.38106 0.44623 0.0
H926 H 0.48501 0.37475 0.3643 0.0
H927 H 0.4306 0.4442 0.30059 0.0
H928 H 0.46574 0.46903 0.30657 0.0
H929 H 0.49649 0.42239 0.45092 0.0
C930 C 0.43268 0.35846 0.37674 0.0
C931 C 0.41632 0.35486 0.324 0.0
C932 C 0.40355 0.37441 0.30081 0.0
C933 C 0.41005 0.39716 0.31992 0.0
C934 C 0.42834 0.40006 0.36555 0.0
C935 C 0.43849 0.38124 0.39713 0.0
C936 C 0.4597 0.38878 0.43782 0.0
C937 C 0.45456 0.38775 0.51361 0.0
C938 C 0.48161 0.37424 0.41933 0.0
C939 C 0.46189 0.41384 0.41578 0.0
C940 C 0.44338 0.4202 0.37506 0.0
C941 C 0.44434 0.4402 0.33597 0.0
C942 C 0.4645 0.45402 0.33882 0.0
C943 C 0.48341 0.44782 0.38059 0.0
C944 C 0.48173 0.42797 0.42111 0.0
H945 H 0.17433 0.40063 0.332 0.0
H946 H 0.21807 0.43996 0.47246 0.0
H947 H 0.18432 0.44857 0.54057 0.0
H948 H 0.14072 0.44153 0.30487 0.0
H949 H 0.11306 0.42661 0.29732 0.0
H950 H 0.13948 0.41085 0.28248 0.0
H951 H 0.12821 0.38101 0.37406 0.0
H952 H 0.10134 0.39695 0.38646 0.0
H953 H 0.12016 0.39135 0.4571 0.0
H954 H 0.14817 0.46795 0.56587 0.0
H955 H 0.11758 0.49609 0.53723 0.0
H956 H 0.09443 0.45064 0.37464 0.0
C957 C 0.17715 0.41095 0.37709 0.0
C958 C 0.19927 0.42077 0.3926 0.0
C959 C 0.20176 0.43241 0.45602 0.0
C960 C 0.18231 0.43742 0.49642 0.0
C961 C 0.16023 0.431 0.47327 0.0
C962 C 0.15756 0.41752 0.41526 0.0
C963 C 0.13261 0.41867 0.38968 0.0
C964 C 0.13145 0.42484 0.31427 0.0
C965 C 0.11984 0.39561 0.40272 0.0
C966 C 0.12307 0.43809 0.43474 0.0
C967 C 0.13854 0.44348 0.48639 0.0
C968 C 0.13567 0.46348 0.52689 0.0
C969 C 0.11819 0.47949 0.51023 0.0
C970 C 0.10411 0.47556 0.45281 0.0
C971 C 0.10525 0.45382 0.41851 0.0
H972 H 0.93631 0.81409 0.78815 0.0
H973 H 0.89364 0.86046 0.90963 0.0
H974 H 0.9022 0.89271 0.83399 0.0
H975 H 0.97943 0.8414 0.77995 0.0
H976 H 0.98945 0.83848 0.69413 0.0
H977 H 0.9701 0.81718 0.72703 0.0
H978 H 0.94054 0.82451 0.63147 0.0
H979 H 0.96031 0.8457 0.59691 0.0
H980 H 0.93053 0.85377 0.61548 0.0
H981 H 0.92985 0.92016 0.79464 0.0
H982 H 0.96801 0.93858 0.78306 0.0
H983 H 0.99344 0.87787 0.6727 0.0
C984 C 0.9273 0.83062 0.79477 0.0
C985 C 0.91443 0.83499 0.8541 0.0
C986 C 0.90337 0.85683 0.86384 0.0
C987 C 0.90827 0.8753 0.82094 0.0
C988 C 0.92401 0.8715 0.76813 0.0
C989 C 0.9325 0.84931 0.75244 0.0
C990 C 0.95308 0.85069 0.70431 0.0
C991 C 0.97423 0.83613 0.72797 0.0
C992 C 0.94566 0.84323 0.63281 0.0
C993 C 0.95786 0.87672 0.70758 0.0
C994 C 0.94011 0.88857 0.74125 0.0
C995 C 0.94317 0.91149 0.76474 0.0
C996 C 0.96508 0.92196 0.7578 0.0
C997 C 0.98375 0.90971 0.72669 0.0
C998 C 0.97945 0.88755 0.69696 0.0
H999 H 0.72536 0.9717 0.8358 0.0
H1000 H 0.67647 0.91697 0.88301 0.0
H1001 H 0.64735 0.93449 0.80781 0.0
H1002 H 0.69181 0.01352 0.86084 0.0
H1003 H 0.69968 0.03335 0.7951 0.0
H1004 H 0.72036 0.01204 0.82243 0.0
H1005 H 0.72451 0.99506 0.70148 0.0
H1006 H 0.70443 0.01708 0.67264 0.0
H1007 H 0.69876 0.98663 0.65483 0.0
H1008 H 0.62047 0.96362 0.76548 0.0
H1009 H 0.59878 0.99994 0.75071 0.0
H1010 H 0.66385 0.03819 0.73426 0.0
C1011 C 0.70917 0.96253 0.82566 0.0
C1012 C 0.70316 0.94283 0.86353 0.0
C1013 C 0.68145 0.93173 0.85279 0.0
C1014 C 0.6648 0.94169 0.81036 0.0
C1015 C 0.67025 0.96267 0.77924 0.0
C1016 C 0.69221 0.9727 0.78469 0.0
C1017 C 0.69208 0.9976 0.75944 0.0
C1018 C 0.70151 0.01512 0.81267 0.0
C1019 C 0.70576 0.99918 0.69315 0.0
C1020 C 0.66622 1.00095 0.74739 0.0
C1021 C 0.65413 0.98033 0.75633 0.0
C1022 C 0.62983 0.97967 0.75632 0.0
C1023 C 0.6176 1.00057 0.74795 0.0
C1024 C 0.62956 0.02211 0.74161 0.0
C1025 C 0.65421 0.02205 0.73903 0.0
H1026 H 0.60963 0.66441 0.02873 0.0
H1027 H 0.61049 0.69773 0.83472 0.0
H1028 H 0.5974 0.66099 0.78093 0.0
H1029 H 0.62349 0.60198 0.95988 0.0
H1030 H 0.6036 0.58865 0.01845 0.0
H1031 H 0.62054 0.61391 0.04359 0.0
H1032 H 0.58451 0.63755 0.07688 0.0
H1033 H 0.56645 0.61291 0.0575 0.0
H1034 H 0.56071 0.64049 0.01806 0.0
H1035 H 0.56967 0.62954 0.75904 0.0
H1036 H 0.53549 0.6041 0.76849 0.0
H1037 H 0.55619 0.58607 0.97046 0.0
C1038 C 0.60867 0.66356 0.97439 0.0
C1039 C 0.61083 0.68402 0.93608 0.0
C1040 C 0.60872 0.68233 0.86521 0.0
C1041 C 0.60137 0.66144 0.83417 0.0
C1042 C 0.59687 0.64222 0.87446 0.0
C1043 C 0.60128 0.64282 0.94294 0.0
C1044 C 0.59117 0.62161 0.97701 0.0
C1045 C 0.61084 0.60554 1.00117 0.0
C1046 C 0.57474 0.6286 0.03567 0.0
C1047 C 0.57788 0.61058 0.91876 0.0
C1048 C 0.58185 0.62239 0.85959 0.0
C1049 C 0.5674 0.61922 0.80367 0.0
C1050 C 0.54798 0.60452 0.80919 0.0
C1051 C 0.54335 0.59264 0.86955 0.0
C1052 C 0.55933 0.59479 0.92344 0.0
H1053 H 0.85468 0.5961 0.01816 0.0
H1054 H 0.81794 0.58409 0.82983 0.0
H1055 H 0.85466 0.57063 0.77745 0.0
H1056 H 0.91362 0.61244 0.93633 0.0
H1057 H 0.92983 0.59767 1.00086 0.0
H1058 H 0.90296 0.61272 0.0214 0.0
H1059 H 0.88522 0.5759 0.07136 0.0
H1060 H 0.91158 0.56001 0.05425 0.0
H1061 H 0.88416 0.54924 0.02168 0.0
H1062 H 0.8896 0.54597 0.76063 0.0
H1063 H 0.9222 0.51882 0.77284 0.0
H1064 H 0.93958 0.55158 0.96551 0.0
C1065 C 0.85451 0.59215 0.96476 0.0
C1066 C 0.83327 0.59079 0.92857 0.0
C1067 C 0.83389 0.58484 0.8591 0.0
C1068 C 0.85474 0.57732 0.82871 0.0
C1069 C 0.87495 0.5767 0.8678 0.0
C1070 C 0.87522 0.58489 0.93367 0.0
C1071 C 0.8982 0.57936 0.96777 0.0
C1072 C 0.912 0.60187 0.98243 0.0
C1073 C 0.89453 0.56529 0.03248 0.0
C1074 C 0.90977 0.56468 0.91321 0.0
C1075 C 0.89626 0.56363 0.85559 0.0
C1076 C 0.901 0.54758 0.80392 0.0
C1077 C 0.91976 0.5321 0.81154 0.0
C1078 C 0.93398 0.5329 0.87016 0.0
C1079 C 0.92918 0.5501 0.92025 0.0
H1080 H 0.03902 0.17327 0.81277 0.0
H1081 H 0.9907 0.16271 0.9783 0.0
H1082 H 0.97954 0.12476 0.9287 0.0
H1083 H 1.00325 0.14447 0.68407 0.0
H1084 H 0.02793 0.13168 0.64127 0.0
H1085 H 0.03122 0.15895 0.68662 0.0
H1086 H 0.06494 0.14118 0.75177 0.0
H1087 H 0.06163 0.11266 0.71301 0.0
H1088 H 0.06014 0.11618 0.80338 0.0
H1089 H 0.97192 0.08857 0.85848 0.0
H1090 H 0.97069 0.05546 0.77727 0.0
H1091 H 0.02731 0.08598 0.66433 0.0
C1092 C 0.02617 0.16306 0.83919 0.0
C1093 C 0.01568 0.17162 0.89982 0.0
C1094 C 0.99869 0.15735 0.93119 0.0
C1095 C 0.99235 0.13545 0.90367 0.0
C1096 C 1.00323 0.12759 0.84474 0.0
C1097 C 0.01982 0.14091 0.81286 0.0
C1098 C 0.02899 0.12813 0.75033 0.0
C1099 C 0.02246 0.14163 0.68684 0.0
C1100 C 0.0555 0.12427 0.75482 0.0
C1101 C 0.0156 0.10517 0.75342 0.0
C1102 C 1.00033 0.10564 0.8074 0.0
C1103 C 0.98428 0.08773 0.8173 0.0
C1104 C 0.98382 0.06887 0.7712 0.0
C1105 C 0.99995 0.06729 0.71727 0.0
C1106 C 0.0159 0.0859 0.7078 0.0
H1107 H 0.36566 1.00965 0.92193 0.0
H1108 H 0.33501 0.06371 0.79891 0.0
H1109 H 0.36999 0.06313 0.72672 0.0
H1110 H 0.42378 0.03167 0.91796 0.0
H1111 H 0.43803 1.00355 0.91276 0.0
H1112 H 0.41012 1.00648 0.95402 0.0
H1113 H 0.39194 0.97493 0.87619 0.0
H1114 H 0.41988 0.97091 0.83589 0.0
H1115 H 0.39445 0.97757 0.78621 0.0
H1116 H 0.40876 0.05687 0.66705 0.0
H1117 H 0.44762 0.04448 0.62427 0.0
H1118 H 0.45391 0.99571 0.78743 0.0
C1119 C 0.36622 0.02141 0.8799 0.0
C1120 C 0.3472 0.03662 0.86638 0.0
C1121 C 0.34888 0.0515 0.81009 0.0
C1122 C 0.36888 0.0515 0.76895 0.0
C1123 C 0.38732 0.03657 0.78436 0.0
C1124 C 0.38612 0.02168 0.83826 0.0
C1125 C 0.40844 1.0074 0.84397 0.0
C1126 C 0.42084 0.01258 0.91117 0.0
C1127 C 0.40337 0.98115 0.83502 0.0
C1128 C 0.42239 0.01662 0.78506 0.0
C1129 C 0.40988 0.03345 0.75126 0.0
C1130 C 0.41881 0.04398 0.69384 0.0
C1131 C 0.44096 0.037 0.67015 0.0
C1132 C 0.45412 0.01991 0.70427 0.0
C1133 C 0.44455 1.00946 0.762 0.0
H1134 H 0.50311 0.37104 0.92753 0.0
H1135 H 0.50426 0.32 0.7635 0.0
H1136 H 0.50782 0.35202 0.68205 0.0
H1137 H 0.46929 0.41356 0.84594 0.0
H1138 H 0.48489 0.43831 0.88074 0.0
H1139 H 0.48351 0.41147 0.92653 0.0
H1140 H 0.52864 0.40969 0.93214 0.0
H1141 H 0.53029 0.43673 0.88727 0.0
H1142 H 0.5454 0.41118 0.85553 0.0
H1143 H 0.51059 0.39052 0.61756 0.0
H1144 H 0.51182 0.43154 0.57802 0.0
H1145 H 0.50955 0.45658 0.78464 0.0
C1146 C 0.50458 0.36645 0.87464 0.0
C1147 C 0.50351 0.34281 0.85233 0.0
C1148 C 0.50485 0.33787 0.78219 0.0
C1149 C 0.50701 0.35598 0.73544 0.0
C1150 C 0.50786 0.37905 0.75932 0.0
C1151 C 0.50677 0.38426 0.82743 0.0
C1152 C 0.50744 0.41045 0.84039 0.0
C1153 C 0.48494 0.41895 0.87547 0.0
C1154 C 0.52924 0.41742 0.88124 0.0
C1155 C 0.50888 0.41921 0.76903 0.0
C1156 C 0.50922 0.4009 0.72273 0.0
C1157 C 0.51039 0.40492 0.65356 0.0
C1158 C 0.51112 0.4282 0.63146 0.0
C1159 C 0.5105 0.44704 0.67838 0.0
C1160 C 0.50959 0.44242 0.74782 0.0
H1161 H 0.16414 0.47577 0.90133 0.0
H1162 H 0.20482 0.53413 0.82876 0.0
H1163 H 0.17282 0.54398 0.75059 0.0
H1164 H 0.13897 0.4589 0.73913 0.0
H1165 H 0.11115 0.45117 0.77485 0.0
H1166 H 0.13742 0.44848 0.82413 0.0
H1167 H 0.11925 0.47502 0.91742 0.0
H1168 H 0.09298 0.47772 0.86831 0.0
H1169 H 0.10843 0.50356 0.89608 0.0
H1170 H 0.13563 0.54761 0.67978 0.0
H1171 H 0.09672 0.5455 0.62675 0.0
H1172 H 0.08067 0.48461 0.74505 0.0
C1173 C 0.16657 0.49045 0.86847 0.0
C1174 C 0.18729 0.50409 0.87163 0.0
C1175 C 0.1892 0.52348 0.82834 0.0
C1176 C 0.17112 0.52912 0.78321 0.0
C1177 C 0.15106 0.51526 0.78145 0.0
C1178 C 0.14871 0.49632 0.82307 0.0
C1179 C 0.12519 0.48449 0.81241 0.0
C1180 C 0.12838 0.45926 0.78607 0.0
C1181 C 0.11061 0.48525 0.87742 0.0
C1182 C 0.11455 0.49986 0.75886 0.0
C1183 C 0.12979 0.51742 0.74129 0.0
C1184 C 0.12364 0.53388 0.69336 0.0
C1185 C 0.10135 0.53251 0.66342 0.0
C1186 C 0.08517 0.51486 0.68131 0.0
C1187 C 0.09224 0.49825 0.7294 0.0
H1188 H 0.02982 0.86224 0.34921 0.0
H1189 H 0.96042 0.84284 0.41642 0.0
H1190 H 0.95952 0.87751 0.4918 0.0
H1191 H 0.0503 0.8861 0.51115 0.0
H1192 H 0.06646 0.9093 0.47242 0.0
H1193 H 0.06227 0.88193 0.42789 0.0
H1194 H 0.04473 0.90433 0.32887 0.0
H1195 H 0.04738 0.93196 0.37301 0.0
H1196 H 0.01932 0.9224 0.34185 0.0
H1197 H 0.96554 0.91588 0.5577 0.0
H1198 H 0.97832 0.95368 0.6075 0.0
H1199 H 0.04309 0.9488 0.49541 0.0
C1200 C 0.0144 0.86514 0.37975 0.0
C1201 C 0.99523 0.84941 0.3764 0.0
C1202 C 0.97559 0.8541 0.41834 0.0
C1203 C 0.97481 0.87397 0.46119 0.0
C1204 C 0.9938 0.88921 0.4622 0.0
C1205 C 0.01331 0.88492 0.42287 0.0
C1206 C 0.03119 0.90433 0.43202 0.0
C1207 C 0.0539 0.89484 0.4627 0.0
C1208 C 0.03593 0.91649 0.36499 0.0
C1209 C 0.01854 0.92045 0.48148 0.0
C1210 C 0.99705 0.91136 0.49878 0.0
C1211 C 0.98228 0.92315 0.54397 0.0
C1212 C 0.98959 0.94478 0.57166 0.0
C1213 C 0.01137 0.95462 0.5537 0.0
C1214 C 0.02613 0.94195 0.509 0.0
H1215 H 0.67428 0.96298 0.46401 0.0
H1216 H 0.67594 0.02911 0.35951 0.0
H1217 H 0.63821 0.03982 0.4102 0.0
H1218 H 0.61318 0.9533 0.43834 0.0
H1219 H 0.60774 0.94034 0.51897 0.0
H1220 H 0.63607 0.9375 0.47998 0.0
H1221 H 0.65652 0.95584 0.58286 0.0
H1222 H 0.62876 0.95813 0.62507 0.0
H1223 H 0.64676 0.98379 0.6151 0.0
H1224 H 0.59975 0.04344 0.47028 0.0
H1225 H 0.56351 0.03972 0.53607 0.0
H1226 H 0.58517 0.97095 0.60001 0.0
C1227 C 0.66681 0.97971 0.45128 0.0
C1228 C 0.67869 0.99521 0.40775 0.0
C1229 C 0.66794 0.01702 0.39381 0.0
C1230 C 0.64621 0.02322 0.42185 0.0
C1231 C 0.63501 1.00744 0.46357 0.0
C1232 C 0.64489 0.98612 0.47819 0.0
C1233 C 0.62888 0.97219 0.52358 0.0
C1234 C 0.62099 0.94947 0.48815 0.0
C1235 C 0.64094 0.96718 0.59074 0.0
C1236 C 0.60855 0.98914 0.53285 0.0
C1237 C 0.6125 1.00933 0.49739 0.0
C1238 C 0.59646 0.02767 0.49795 0.0
C1239 C 0.57584 0.02536 0.53547 0.0
C1240 C 0.57117 1.00482 0.57192 0.0
C1241 C 0.58798 0.9866 0.57127 0.0
H1242 H 0.50663 0.67327 0.37728 0.0
H1243 H 0.56146 0.70489 0.49947 0.0
H1244 H 0.55971 0.67181 0.57637 0.0
H1245 H 0.47316 0.64996 0.52313 0.0
H1246 H 0.4648 0.62375 0.47769 0.0
H1247 H 0.46927 0.65057 0.43316 0.0
H1248 H 0.49941 0.62967 0.35553 0.0
H1249 H 0.49503 0.60288 0.39996 0.0
H1250 H 0.52399 0.61489 0.39259 0.0
H1251 H 0.55719 0.63261 0.62795 0.0
H1252 H 0.54931 0.59224 0.66274 0.0
H1253 H 0.49178 0.5877 0.52183 0.0
C1254 C 0.51784 0.67361 0.42113 0.0
C1255 C 0.53456 0.69169 0.43102 0.0
C1256 C 0.549 0.69109 0.48906 0.0
C1257 C 0.54802 0.6724 0.53363 0.0
C1258 C 0.53203 0.65456 0.52106 0.0
C1259 C 0.51676 0.65521 0.46731 0.0
C1260 C 0.50151 0.63341 0.46536 0.0
C1261 C 0.47565 0.63981 0.47544 0.0
C1262 C 0.50522 0.61939 0.39944 0.0
C1263 C 0.51103 0.62027 0.5254 0.0
C1264 C 0.52886 0.63276 0.5561 0.0
C1265 C 0.54254 0.62314 0.60659 0.0
C1266 C 0.5378 0.60028 0.62659 0.0
C1267 C 0.51898 0.58749 0.59839 0.0
C1268 C 0.50536 0.59766 0.54709 0.0
H1269 H 0.8426 0.50422 0.4277 0.0
H1270 H 0.83412 0.57955 0.42153 0.0
H1271 H 0.87126 0.58463 0.48261 0.0
H1272 H 0.86977 0.50288 0.5964 0.0
H1273 H 0.8895 0.47948 0.57357 0.0
H1274 H 0.86139 0.48152 0.53318 0.0
H1275 H 0.88157 0.48174 0.41635 0.0
H1276 H 0.9096 0.47951 0.45677 0.0
H1277 H 0.90388 0.50313 0.40019 0.0
H1278 H 0.9113 0.58187 0.53513 0.0
H1279 H 0.95028 0.57117 0.5783 0.0
H1280 H 0.93261 0.49778 0.55661 0.0
C1281 C 0.84841 0.52179 0.4398 0.0
C1282 C 0.83507 0.54148 0.42005 0.0
C1283 C 0.84354 0.56413 0.43704 0.0
C1284 C 0.86479 0.56722 0.4715 0.0
C1285 C 0.87753 0.54753 0.48966 0.0
C1286 C 0.86958 0.52522 0.47503 0.0
C1287 C 0.88704 0.50705 0.49889 0.0
C1288 C 0.87628 0.49183 0.55378 0.0
C1289 C 0.89605 0.49198 0.4395 0.0
C1290 C 0.90625 0.52263 0.5276 0.0
C1291 C 0.90039 0.54594 0.52168 0.0
C1292 C 0.91591 0.56365 0.54062 0.0
C1293 C 0.93811 0.55741 0.56487 0.0
C1294 C 0.94475 0.53366 0.57041 0.0
C1295 C 0.92822 0.5161 0.55328 0.0
loop_
_geom_bond_atom_site_label_1
_geom_bond_atom_site_label_2
_geom_bond_distance
_geom_bond_site_symmetry_2
_ccdc_geom_bond_type
C0 C1 1.386 . S
C0 C2 1.397 . S
C0 H24 0.931 1_554 S
C1 C0 1.386 . S
C1 C5 1.397 . S
C2 C0 1.397 . S
C2 C3 1.384 . S
C2 H25 0.930 . S
C3 C2 1.384 . S
C3 C4 1.377 . S
C3 C6 1.481 . S
C4 C3 1.377 . S
C4 C5 1.389 . S
C4 H26 0.929 . S
C5 C1 1.397 . S
C5 C4 1.389 . S
C5 H27 0.931 . S
C6 C3 1.481 . S
C6 C7 1.387 . S
C6 C11 1.390 . S
C7 C6 1.387 . S
C7 C8 1.401 . S
C7 H28 0.930 . S
C8 C7 1.401 . S
C8 C9 1.376 . S
C8 C17 1.511 . S
C9 C8 1.376 . S
C9 C10 1.392 . S
C9 H30 0.931 . S
C10 C9 1.392 . S
C10 C11 1.361 . S
C10 C12 1.500 . S
C11 C6 1.390 . S
C11 C10 1.361 . S
C11 H29 0.931 . S
C12 C10 1.500 . S
C12 C13 1.371 . S
C12 C14 1.365 . S
C13 C12 1.371 . S
C13 C23 1.386 . S
C13 H31 0.931 . S
C14 C12 1.365 . S
C14 C15 1.409 . S
C14 H32 0.929 . S
C15 C14 1.409 . S
C15 C16 1.380 . S
C15 H33 0.930 . S
C16 C15 1.380 . S
C16 C23 1.357 . S
C17 C8 1.511 . S
C17 C18 1.341 . S
C17 C19 1.371 . S
C18 C17 1.341 . S
C18 C22 1.394 . S
C18 H34 0.930 . S
C19 C17 1.371 . S
C19 C20 1.392 . S
C19 H35 0.931 . S
C20 C19 1.392 . S
C20 C21 1.331 . S
C20 H38 0.932 . S
C21 C20 1.331 . S
C21 C22 1.336 . S
C22 C18 1.394 . S
C22 C21 1.336 . S
C22 H37 0.929 . S
C23 C13 1.386 . S
C23 C16 1.357 . S
C23 H36 0.928 . S
H24 C0 0.931 1_556 S
H25 C2 0.930 . S
H26 C4 0.929 . S
H27 C5 0.931 . S
H28 C7 0.930 . S
H29 C11 0.931 . S
H30 C9 0.931 . S
H31 C13 0.931 . S
H32 C14 0.929 . S
H33 C15 0.930 . S
H34 C18 0.930 . S
H35 C19 0.931 . S
H36 C23 0.928 . S
H37 C22 0.929 . S
H38 C20 0.932 . S
C39 C40 1.386 . S
C39 C41 1.397 . S
C39 H63 0.931 1_554 S
C40 C39 1.386 . S
C40 C44 1.397 . S
C41 C39 1.397 . S
C41 C42 1.384 . S
C41 H64 0.930 . S
C42 C41 1.384 . S
C42 C43 1.377 . S
C42 C45 1.481 . S
C43 C42 1.377 . S
C43 C44 1.389 . S
C43 H65 0.929 . S
C44 C40 1.397 . S
C44 C43 1.389 . S
C44 H66 0.931 . S
C45 C42 1.481 . S
C45 C46 1.387 . S
C45 C50 1.390 . S
C46 C45 1.387 . S
C46 C47 1.401 . S
C46 H67 0.930 . S
C47 C46 1.401 . S
C47 C48 1.376 . S
C47 C56 1.511 . S
C48 C47 1.376 . S
C48 C49 1.392 . S
C48 H69 0.931 . S
C49 C48 1.392 . S
C49 C50 1.361 . S
C49 C51 1.500 . S
C50 C45 1.390 . S
C50 C49 1.361 . S
C50 H68 0.931 . S
C51 C49 1.500 . S
C51 C52 1.371 . S
C51 C53 1.365 . S
C52 C51 1.371 . S
C52 C62 1.386 . S
C52 H70 0.931 . S
C53 C51 1.365 . S
C53 C54 1.409 . S
C53 H71 0.929 . S
C54 C53 1.409 . S
C54 C55 1.380 . S
C54 H72 0.930 . S
C55 C54 1.380 . S
C55 C62 1.357 . S
C56 C47 1.511 . S
C56 C57 1.341 . S
C56 C58 1.371 . S
C57 C56 1.341 . S
C57 C61 1.394 . S
C57 H73 0.930 . S
C58 C56 1.371 . S
C58 C59 1.392 . S
C58 H74 0.931 . S
C59 C58 1.392 . S
C59 C60 1.331 . S
C59 H77 0.932 . S
C60 C59 1.331 . S
C60 C61 1.336 . S
C61 C57 1.394 . S
C61 C60 1.336 . S
C61 H76 0.929 . S
C62 C52 1.386 . S
C62 C55 1.357 . S
C62 H75 0.928 . S
H63 C39 0.931 1_556 S
H64 C41 0.930 . S
H65 C43 0.929 . S
H66 C44 0.931 . S
H67 C46 0.930 . S
H68 C50 0.931 . S
H69 C48 0.931 . S
H70 C52 0.931 . S
H71 C53 0.929 . S
H72 C54 0.930 . S
H73 C57 0.930 . S
H74 C58 0.931 . S
H75 C62 0.928 . S
H76 C61 0.929 . S
H77 C59 0.932 . S
C78 C79 1.386 . S
C78 C80 1.397 . S
C78 H102 0.931 1_554 S
C79 C78 1.386 . S
C79 C83 1.397 . S
C80 C78 1.397 . S
C80 C81 1.384 . S
C80 H103 0.930 . S
C81 C80 1.384 . S
C81 C82 1.377 . S
C81 C84 1.481 . S
C82 C81 1.377 . S
C82 C83 1.389 . S
C82 H104 0.929 . S
C83 C79 1.397 . S
C83 C82 1.389 . S
C83 H105 0.931 . S
C84 C81 1.481 . S
C84 C85 1.387 . S
C84 C89 1.390 . S
C85 C84 1.387 . S
C85 C86 1.401 . S
C85 H106 0.930 . S
C86 C85 1.401 . S
C86 C87 1.376 . S
C86 C95 1.511 . S
C87 C86 1.376 . S
C87 C88 1.392 . S
C87 H108 0.931 . S
C88 C87 1.392 . S
C88 C89 1.361 . S
C88 C90 1.500 . S
C89 C84 1.390 . S
C89 C88 1.361 . S
C89 H107 0.931 . S
C90 C88 1.500 . S
C90 C91 1.371 . S
C90 C92 1.365 . S
C91 C90 1.371 . S
C91 C101 1.386 . S
C91 H109 0.931 . S
C92 C90 1.365 . S
C92 C93 1.409 . S
C92 H110 0.929 . S
C93 C92 1.409 . S
C93 C94 1.380 . S
C93 H111 0.930 . S
C94 C93 1.380 . S
C94 C101 1.357 . S
C95 C86 1.511 . S
C95 C96 1.341 . S
C95 C97 1.371 . S
C96 C95 1.341 . S
C96 C100 1.394 . S
C96 H112 0.930 . S
C97 C95 1.371 . S
C97 C98 1.392 . S
C97 H113 0.931 . S
C98 C97 1.392 . S
C98 C99 1.331 . S
C98 H116 0.932 . S
C99 C98 1.331 . S
C99 C100 1.336 . S
C100 C96 1.394 . S
C100 C99 1.336 . S
C100 H115 0.929 . S
C101 C91 1.386 . S
C101 C94 1.357 . S
C101 H114 0.928 . S
H102 C78 0.931 1_556 S
H103 C80 0.930 . S
H104 C82 0.929 . S
H105 C83 0.931 . S
H106 C85 0.930 . S
H107 C89 0.931 . S
H108 C87 0.931 . S
H109 C91 0.931 . S
H110 C92 0.929 . S
H111 C93 0.930 . S
H112 C96 0.930 . S
H113 C97 0.931 . S
H114 C101 0.928 . S
H115 C100 0.929 . S
H116 C98 0.932 . S
C117 C118 1.386 . S
C117 C119 1.397 . S
C117 H141 0.931 . S
C118 C117 1.386 . S
C118 C122 1.397 . S
C119 C117 1.397 . S
C119 C120 1.384 . S
C119 H142 0.930 . S
C120 C119 1.384 . S
C120 C121 1.377 . S
C120 C123 1.481 . S
C121 C120 1.377 . S
C121 C122 1.389 . S
C121 H143 0.929 . S
C122 C118 1.397 . S
C122 C121 1.389 . S
C122 H144 0.931 . S
C123 C120 1.481 . S
C123 C124 1.387 . S
C123 C128 1.390 . S
C124 C123 1.387 . S
C124 C125 1.401 . S
C124 H145 0.930 . S
C125 C124 1.401 . S
C125 C126 1.376 . S
C125 C134 1.511 . S
C126 C125 1.376 . S
C126 C127 1.392 . S
C126 H147 0.931 . S
C127 C126 1.392 . S
C127 C128 1.361 . S
C127 C129 1.500 . S
C128 C123 1.390 . S
C128 C127 1.361 . S
C128 H146 0.931 . S
C129 C127 1.500 . S
C129 C130 1.371 . S
C129 C131 1.365 . S
C130 C129 1.371 . S
C130 C140 1.386 1_554 S
C130 H148 0.931 . S
C131 C129 1.365 . S
C131 C132 1.409 . S
C131 H149 0.929 . S
C132 C131 1.409 . S
C132 C133 1.380 . S
C132 H150 0.930 . S
C133 C132 1.380 . S
C133 C140 1.357 1_554 S
C134 C125 1.511 . S
C134 C135 1.341 . S
C134 C136 1.371 . S
C135 C134 1.341 . S
C135 C139 1.394 . S
C135 H151 0.930 . S
C136 C134 1.371 . S
C136 C137 1.392 . S
C136 H152 0.931 . S
C137 C136 1.392 . S
C137 C138 1.331 . S
C137 H155 0.932 . S
C138 C137 1.331 . S
C138 C139 1.336 . S
C139 C135 1.394 . S
C139 C138 1.336 . S
C139 H154 0.929 . S
C140 C130 1.386 1_556 S
C140 C133 1.357 1_556 S
C140 H153 0.928 . S
H141 C117 0.931 . S
H142 C119 0.930 . S
H143 C121 0.929 . S
H144 C122 0.931 . S
H145 C124 0.930 . S
H146 C128 0.931 . S
H147 C126 0.931 . S
H148 C130 0.931 . S
H149 C131 0.929 . S
H150 C132 0.930 . S
H151 C135 0.930 . S
H152 C136 0.931 . S
H153 C140 0.928 . S
H154 C139 0.929 . S
H155 C137 0.932 . S
C156 C157 1.386 . S
C156 C158 1.397 . S
C156 H180 0.931 . S
C157 C156 1.386 . S
C157 C161 1.397 . S
C158 C156 1.397 . S
C158 C159 1.384 . S
C158 H181 0.930 . S
C159 C158 1.384 . S
C159 C160 1.377 . S
C159 C162 1.481 . S
C160 C159 1.377 . S
C160 C161 1.389 . S
C160 H182 0.929 . S
C161 C157 1.397 . S
C161 C160 1.389 . S
C161 H183 0.931 . S
C162 C159 1.481 . S
C162 C163 1.387 . S
C162 C167 1.390 . S
C163 C162 1.387 . S
C163 C164 1.401 . S
C163 H184 0.930 . S
C164 C163 1.401 . S
C164 C165 1.376 1_554 S
C164 C173 1.511 . S
C165 C164 1.376 1_556 S
C165 C166 1.392 . S
C165 H186 0.931 . S
C166 C165 1.392 . S
C166 C167 1.361 1_556 S
C166 C168 1.500 . S
C167 C162 1.390 . S
C167 C166 1.361 1_554 S
C167 H185 0.928 1_554 S
C168 C166 1.500 . S
C168 C169 1.371 . S
C168 C170 1.365 . S
C169 C168 1.371 . S
C169 C179 1.386 . S
C169 H187 0.931 . S
C170 C168 1.365 . S
C170 C171 1.409 . S
C170 H188 0.929 . S
C171 C170 1.409 . S
C171 C172 1.380 . S
C171 H189 0.930 . S
C172 C171 1.380 . S
C172 C179 1.357 . S
C173 C164 1.511 . S
C173 C174 1.341 . S
C173 C175 1.371 . S
C174 C173 1.341 . S
C174 C178 1.394 . S
C174 H190 0.930 . S
C175 C173 1.371 . S
C175 C176 1.392 . S
C175 H191 0.931 1_554 S
C176 C175 1.392 . S
C176 C177 1.331 . S
C176 H194 0.932 1_554 S
C177 C176 1.331 . S
C177 C178 1.336 . S
C178 C174 1.394 . S
C178 C177 1.336 . S
C178 H193 0.929 . S
C179 C169 1.386 . S
C179 C172 1.357 . S
C179 H192 0.928 . S
H180 C156 0.931 . S
H181 C158 0.930 . S
H182 C160 0.929 . S
H183 C161 0.931 . S
H184 C163 0.930 . S
H185 C167 0.928 1_556 S
H186 C165 0.931 . S
H187 C169 0.931 . S
H188 C170 0.929 . S
H189 C171 0.930 . S
H190 C174 0.930 . S
H191 C175 0.931 1_556 S
H192 C179 0.928 . S
H193 C178 0.929 . S
H194 C176 0.932 1_556 S
C195 C196 1.386 . S
C195 C197 1.397 . S
C195 H219 0.931 . S
C196 C195 1.386 . S
C196 C200 1.397 . S
C197 C195 1.397 . S
C197 C198 1.384 . S
C197 H220 0.930 . S
C198 C197 1.384 . S
C198 C199 1.377 . S
C198 C201 1.481 . S
C199 C198 1.377 . S
C199 C200 1.389 . S
C199 H221 0.929 . S
C200 C196 1.397 . S
C200 C199 1.389 . S
C200 H222 0.931 . S
C201 C198 1.481 . S
C201 C202 1.387 . S
C201 C206 1.390 . S
C202 C201 1.387 . S
C202 C203 1.401 . S
C202 H223 0.930 . S
C203 C202 1.401 . S
C203 C204 1.376 1_554 S
C203 C212 1.511 . S
C204 C203 1.376 1_556 S
C204 C205 1.392 . S
C204 H225 0.931 . S
C205 C204 1.392 . S
C205 C206 1.361 1_556 S
C205 C207 1.500 . S
C206 C201 1.390 . S
C206 C205 1.361 1_554 S
C206 H224 0.931 1_554 S
C207 C205 1.500 . S
C207 C208 1.371 . S
C207 C209 1.365 . S
C208 C207 1.371 . S
C208 C218 1.386 . S
C208 H226 0.931 . S
C209 C207 1.365 . S
C209 C210 1.409 . S
C209 H227 0.929 . S
C210 C209 1.409 . S
C210 C211 1.380 . S
C210 H228 0.930 . S
C211 C210 1.380 . S
C211 C218 1.357 . S
C212 C203 1.511 . S
C212 C213 1.341 . S
C212 C214 1.371 . S
C213 C212 1.341 . S
C213 C217 1.394 . S
C213 H229 0.930 . S
C214 C212 1.371 . S
C214 C215 1.392 . S
C214 H230 0.931 1_554 S
C215 C214 1.392 . S
C215 C216 1.331 . S
C215 H233 0.932 1_554 S
C216 C215 1.331 . S
C216 C217 1.336 . S
C217 C213 1.394 . S
C217 C216 1.336 . S
C217 H232 0.929 . S
C218 C208 1.386 . S
C218 C211 1.357 . S
C218 H231 0.928 . S
H219 C195 0.931 . S
H220 C197 0.930 . S
H221 C199 0.929 . S
H222 C200 0.931 . S
H223 C202 0.930 . S
H224 C206 0.931 1_556 S
H225 C204 0.931 . S
H226 C208 0.931 . S
H227 C209 0.929 . S
H228 C210 0.930 . S
H229 C213 0.930 . S
H230 C214 0.931 1_556 S
H231 C218 0.928 . S
H232 C217 0.929 . S
H233 C215 0.932 1_556 S
C234 C235 1.386 . S
C234 C236 1.397 . S
C234 H258 0.931 . S
C235 C234 1.386 . S
C235 C239 1.397 . S
C236 C234 1.397 . S
C236 C237 1.384 . S
C236 H259 0.930 . S
C237 C236 1.384 . S
C237 C238 1.377 . S
C237 C240 1.481 . S
C238 C237 1.377 . S
C238 C239 1.389 . S
C238 H260 0.929 . S
C239 C235 1.397 . S
C239 C238 1.389 . S
C239 H261 0.931 . S
C240 C237 1.481 . S
C240 C241 1.387 . S
C240 C245 1.404 . S
C241 C240 1.387 . S
C241 C242 1.401 . S
C241 H262 0.930 . S
C242 C241 1.401 . S
C242 C243 1.376 1_554 S
C242 C251 1.511 . S
C243 C242 1.376 1_556 S
C243 C244 1.392 . S
C243 H264 0.931 . S
C244 C243 1.392 . S
C244 C245 1.350 1_556 S
C244 C246 1.500 . S
C245 C240 1.404 . S
C245 C244 1.350 1_554 S
C245 H263 0.928 1_554 S
C246 C244 1.500 . S
C246 C247 1.371 . S
C246 C248 1.365 . S
C247 C246 1.371 . S
C247 C257 1.386 . S
C247 H265 0.931 . S
C248 C246 1.365 . S
C248 C249 1.409 . S
C248 H266 0.929 . S
C249 C248 1.409 . S
C249 C250 1.380 . S
C249 H267 0.930 . S
C250 C249 1.380 . S
C250 C257 1.357 . S
C251 C242 1.511 . S
C251 C252 1.341 . S
C251 C253 1.371 . S
C252 C251 1.341 . S
C252 C256 1.394 . S
C252 H268 0.930 . S
C253 C251 1.371 . S
C253 C254 1.392 . S
C253 H269 0.931 1_554 S
C254 C253 1.392 . S
C254 C255 1.331 . S
C254 H272 0.932 1_554 S
C255 C254 1.331 . S
C255 C256 1.336 . S
C256 C252 1.394 . S
C256 C255 1.336 . S
C256 H271 0.929 . S
C257 C247 1.386 . S
C257 C250 1.357 . S
C257 H270 0.928 . S
H258 C234 0.931 . S
H259 C236 0.930 . S
H260 C238 0.929 . S
H261 C239 0.931 . S
H262 C241 0.930 . S
H263 C245 0.928 1_556 S
H264 C243 0.931 . S
H265 C247 0.931 . S
H266 C248 0.929 . S
H267 C249 0.930 . S
H268 C252 0.930 . S
H269 C253 0.931 1_556 S
H270 C257 0.928 . S
H271 C256 0.929 . S
H272 C254 0.932 1_556 S
C273 C274 1.386 . S
C273 C275 1.397 . S
C273 H297 0.931 . S
C274 C273 1.386 . S
C274 C278 1.397 . S
C275 C273 1.397 . S
C275 C276 1.384 . S
C275 H298 0.930 . S
C276 C275 1.384 . S
C276 C277 1.377 . S
C276 C279 1.481 . S
C277 C276 1.377 . S
C277 C278 1.389 . S
C277 H299 0.929 . S
C278 C274 1.397 . S
C278 C277 1.389 . S
C278 H300 0.931 . S
C279 C276 1.481 . S
C279 C280 1.387 . S
C279 C284 1.390 1_556 S
C280 C279 1.387 . S
C280 C281 1.401 1_556 S
C280 H301 0.930 . S
C281 C280 1.401 1_554 S
C281 C282 1.376 . S
C281 C290 1.511 . S
C282 C281 1.376 . S
C282 C283 1.392 . S
C282 H303 0.931 . S
C283 C282 1.392 . S
C283 C284 1.361 . S
C283 C285 1.500 . S
C284 C279 1.390 1_554 S
C284 C283 1.361 . S
C284 H302 0.928 1_554 S
C285 C283 1.500 . S
C285 C286 1.371 . S
C285 C287 1.365 . S
C286 C285 1.371 . S
C286 C296 1.386 . S
C286 H304 0.931 . S
C287 C285 1.365 . S
C287 C288 1.409 . S
C287 H305 0.929 . S
C288 C287 1.409 . S
C288 C289 1.380 . S
C288 H306 0.930 . S
C289 C288 1.380 . S
C289 C296 1.357 . S
C290 C281 1.511 . S
C290 C291 1.341 . S
C290 C292 1.371 . S
C291 C290 1.341 . S
C291 C295 1.394 . S
C291 H307 0.930 1_554 S
C292 C290 1.371 . S
C292 C293 1.392 . S
C292 H308 0.931 . S
C293 C292 1.392 . S
C293 C294 1.331 . S
C293 H311 0.932 . S
C294 C293 1.331 . S
C294 C295 1.336 . S
C295 C291 1.394 . S
C295 C294 1.336 . S
C295 H310 0.929 1_554 S
C296 C286 1.386 . S
C296 C289 1.357 . S
C296 H309 0.928 . S
H297 C273 0.931 . S
H298 C275 0.930 . S
H299 C277 0.929 . S
H300 C278 0.931 . S
H301 C280 0.930 . S
H302 C284 0.928 1_556 S
H303 C282 0.931 . S
H304 C286 0.931 . S
H305 C287 0.929 . S
H306 C288 0.930 . S
H307 C291 0.930 1_556 S
H308 C292 0.931 . S
H309 C296 0.928 . S
H310 C295 0.929 1_556 S
H311 C293 0.932 . S
Tb312 N343 2.660 1_565 S
Tb312 N350 2.600 . S
Tb312 O356 2.546 . S
Tb312 O357 2.610 1_455 S
Tb312 O359 2.320 1_455 S
Tb312 O360 2.552 . S
Tb312 O361 2.413 . S
Tb312 O363 2.362 1_565 S
Tb312 O364 2.421 . S
Tb312 C376 2.833 . S
C313 C316 1.432 1_545 S
C313 C317 1.414 . S
C313 N320 1.359 . S
C314 C316 1.417 . S
C314 C318 1.432 . S
C314 C326 1.410 . S
C315 C317 1.444 1_565 S
C315 C318 1.317 . S
C315 H338 0.929 . S
C316 C313 1.432 1_565 S
C316 C314 1.417 . S
C316 N324 1.361 1_565 S
C317 C313 1.414 . S
C317 C315 1.444 1_545 S
C317 C322 1.385 . S
C318 C314 1.432 . S
C318 C315 1.317 . S
C318 H330 0.930 . S
C319 C321 1.392 . S
C319 C322 1.370 . S
C319 H331 0.931 . S
N320 C313 1.359 . S
N320 C321 1.327 . S
N320 Tb323 2.600 . S
C321 C319 1.392 . S
C321 N320 1.327 . S
C321 H328 0.930 . S
C322 C317 1.385 . S
C322 C319 1.370 . S
C322 H341 0.930 . S
Tb323 N320 2.600 . S
Tb323 N324 2.657 . S
Tb323 O357 2.362 1_545 S
Tb323 O358 2.421 . S
Tb323 O362 2.546 . S
Tb323 O363 2.610 1_655 S
Tb323 O365 2.320 1_655 S
Tb323 O366 2.552 1_655 S
Tb323 O367 2.413 . S
Tb323 C387 2.833 . S
N324 C316 1.361 1_545 S
N324 Tb323 2.657 . S
N324 C325 1.307 1_645 S
C325 N324 1.307 1_465 S
C325 C327 1.408 . S
C325 H332 0.930 . S
C326 C314 1.410 . S
C326 C327 1.340 1_655 S
C326 H334 0.930 . S
C327 C325 1.408 . S
C327 C326 1.340 1_455 S
C327 H329 0.934 . S
H328 C321 0.930 . S
H329 C327 0.934 . S
H330 C318 0.930 . S
H331 C319 0.931 . S
H332 C325 0.930 . S
H333 C347 0.930 1_655 S
H334 C326 0.930 . S
H335 C353 0.930 . S
H336 C344 0.930 1_655 S
H337 C351 0.931 . S
H338 C315 0.929 . S
H339 C345 0.930 . S
H340 C378 0.930 . S
H341 C322 0.930 . S
H342 C377 0.929 . S
N343 Tb312 2.660 1_545 S
N343 C344 1.305 . S
N343 C348 1.360 . S
C344 H336 0.930 1_455 S
C344 N343 1.305 . S
C344 C347 1.407 . S
C345 H339 0.930 . S
C345 C346 1.410 . S
C345 C347 1.345 . S
C346 C345 1.410 . S
C346 C348 1.417 . S
C346 C378 1.432 . S
C347 H333 0.930 1_455 S
C347 C344 1.407 . S
C347 C345 1.345 . S
C348 N343 1.360 . S
C348 C346 1.417 . S
C348 C352 1.432 . S
H349 C354 0.927 1_545 S
N350 Tb312 2.600 . S
N350 C352 1.359 1_565 S
N350 C353 1.327 . S
C351 H337 0.931 . S
C351 C353 1.392 . S
C351 C354 1.378 . S
C352 C348 1.432 . S
C352 N350 1.359 1_545 S
C352 C355 1.414 . S
C353 H335 0.930 . S
C353 N350 1.327 . S
C353 C351 1.392 . S
C354 H349 0.927 1_565 S
C354 C351 1.378 . S
C354 C355 1.377 1_565 S
C355 C352 1.414 . S
C355 C354 1.377 1_545 S
C355 C377 1.444 . S
O356 Tb312 2.546 . S
O356 C376 1.251 . S
O357 Tb312 2.610 1_655 S
O357 Tb323 2.362 1_565 S
O357 C368 1.283 . S
O358 Tb323 2.421 . S
O358 C375 1.262 . S
O359 Tb312 2.320 1_655 S
O359 C375 1.260 1_565 S
O360 Tb312 2.552 . S
O360 C368 1.243 1_455 S
O361 Tb312 2.413 . S
O361 C376 1.256 . S
O362 Tb323 2.546 . S
O362 C387 1.251 . S
O363 Tb312 2.362 1_545 S
O363 Tb323 2.610 1_455 S
O363 C379 1.283 . S
O364 Tb312 2.421 . S
O364 C386 1.262 1_565 S
O365 Tb323 2.320 1_455 S
O365 C386 1.260 . S
O366 Tb323 2.552 1_455 S
O366 C379 1.243 . S
O367 Tb323 2.413 . S
O367 C387 1.256 . S
C368 O357 1.283 . S
C368 O360 1.243 1_655 S
C369 C371 1.382 . S
C369 C373 1.393 . S
C369 C376 1.500 . S
C370 C371 1.400 . S
C370 C372 1.384 . S
C371 C369 1.382 . S
C371 C370 1.400 . S
C371 H388 0.916 1_455 S
C372 C370 1.384 . S
C372 C374 1.392 . S
C372 H389 0.931 . S
C373 C369 1.393 . S
C373 C374 1.401 . S
C373 H390 0.930 . S
C374 C372 1.392 . S
C374 C373 1.401 . S
C374 H391 0.930 . S
C375 O358 1.262 . S
C375 O359 1.260 1_545 S
C376 Tb312 2.833 . S
C376 O356 1.251 . S
C376 O361 1.256 . S
C376 C369 1.500 . S
C377 H342 0.929 . S
C377 C355 1.444 . S
C377 C378 1.317 . S
C378 H340 0.930 . S
C378 C346 1.432 . S
C378 C377 1.317 . S
C379 O363 1.283 . S
C379 O366 1.243 . S
C380 C381 1.382 . S
C380 C384 1.393 . S
C380 C387 1.500 . S
C381 C380 1.382 . S
C381 C382 1.400 . S
C381 H392 0.930 1_655 S
C382 C381 1.400 . S
C382 C383 1.384 . S
C383 C382 1.384 . S
C383 C385 1.392 . S
C383 H393 0.931 . S
C384 C380 1.393 . S
C384 C385 1.401 . S
C384 H394 0.930 . S
C385 C383 1.392 . S
C385 C384 1.401 . S
C385 H395 0.930 . S
C386 O364 1.262 1_545 S
C386 O365 1.260 . S
C387 Tb323 2.833 . S
C387 O362 1.251 . S
C387 O367 1.256 . S
C387 C380 1.500 . S
H388 C371 0.916 1_655 S
H389 C372 0.931 . S
H390 C373 0.930 . S
H391 C374 0.930 . S
H392 C381 0.930 1_455 S
H393 C383 0.931 . S
H394 C384 0.930 . S
H395 C385 0.930 . S
Tb396 N427 2.660 . S
Tb396 N434 2.600 . S
Tb396 O440 2.546 . S
Tb396 O441 2.610 1_545 S
Tb396 O443 2.320 1_545 S
Tb396 O444 2.552 . S
Tb396 O445 2.413 . S
Tb396 O447 2.362 . S
Tb396 O448 2.421 . S
Tb396 C460 2.833 . S
C397 C400 1.432 . S
C397 C401 1.414 . S
C397 N404 1.359 . S
C398 C400 1.417 . S
C398 C402 1.432 . S
C398 C410 1.410 . S
C399 C401 1.444 . S
C399 C402 1.317 . S
C399 H422 0.929 . S
C400 C397 1.432 . S
C400 C398 1.417 . S
C400 N408 1.360 . S
C401 C397 1.414 . S
C401 C399 1.444 . S
C401 C406 1.385 . S
C402 C398 1.432 . S
C402 C399 1.317 . S
C402 H414 0.930 . S
C403 C405 1.392 . S
C403 C406 1.370 . S
C403 H415 0.931 . S
N404 C397 1.359 . S
N404 C405 1.327 . S
N404 Tb407 2.600 . S
C405 C403 1.392 . S
C405 N404 1.327 . S
C405 H412 0.930 . S
C406 C401 1.385 . S
C406 C403 1.370 . S
C406 H425 0.930 . S
Tb407 N404 2.600 . S
Tb407 N408 2.660 . S
Tb407 O441 2.362 . S
Tb407 O442 2.421 . S
Tb407 O446 2.546 . S
Tb407 O447 2.610 1_565 S
Tb407 O449 2.320 1_565 S
Tb407 O450 2.552 1_565 S
Tb407 O451 2.413 . S
Tb407 C471 2.833 . S
N408 C400 1.360 . S
N408 Tb407 2.660 . S
N408 C409 1.305 1_565 S
C409 N408 1.305 1_545 S
C409 C411 1.407 . S
C409 H416 0.930 . S
C410 C398 1.410 . S
C410 C411 1.345 1_565 S
C410 H418 0.930 . S
C411 C409 1.407 . S
C411 C410 1.345 1_545 S
C411 H413 0.930 . S
H412 C405 0.930 . S
H413 C411 0.930 . S
H414 C402 0.930 . S
H415 C403 0.931 . S
H416 C409 0.930 . S
H417 C431 0.930 1_565 S
H418 C410 0.930 . S
H419 C437 0.930 . S
H420 C428 0.930 1_565 S
H421 C435 0.931 . S
H422 C399 0.929 . S
H423 C429 0.930 . S
H424 C462 0.930 . S
H425 C406 0.930 . S
H426 C461 0.929 . S
N427 Tb396 2.660 . S
N427 C428 1.305 . S
N427 C432 1.360 . S
C428 H420 0.930 1_545 S
C428 N427 1.305 . S
C428 C431 1.407 . S
C429 H423 0.930 . S
C429 C430 1.410 . S
C429 C431 1.345 . S
C430 C429 1.410 . S
C430 C432 1.417 . S
C430 C462 1.432 . S
C431 H417 0.930 1_545 S
C431 C428 1.407 . S
C431 C429 1.345 . S
C432 N427 1.360 . S
C432 C430 1.417 . S
C432 C436 1.432 . S
H433 C438 0.930 . S
N434 Tb396 2.600 . S
N434 C436 1.359 . S
N434 C437 1.327 . S
C435 H421 0.931 . S
C435 C437 1.392 . S
C435 C438 1.370 . S
C436 C432 1.432 . S
C436 N434 1.359 . S
C436 C439 1.414 . S
C437 H419 0.930 . S
C437 N434 1.327 . S
C437 C435 1.392 . S
C438 H433 0.930 . S
C438 C435 1.370 . S
C438 C439 1.385 . S
C439 C436 1.414 . S
C439 C438 1.385 . S
C439 C461 1.444 . S
O440 Tb396 2.546 . S
O440 C460 1.251 . S
O441 Tb396 2.610 1_565 S
O441 Tb407 2.362 . S
O441 C452 1.283 . S
O442 Tb407 2.421 . S
O442 C459 1.262 . S
O443 Tb396 2.320 1_565 S
O443 C459 1.260 . S
O444 Tb396 2.552 . S
O444 C452 1.243 1_545 S
O445 Tb396 2.413 . S
O445 C460 1.256 . S
O446 Tb407 2.546 . S
O446 C471 1.251 . S
O447 Tb396 2.362 . S
O447 Tb407 2.610 1_545 S
O447 C463 1.283 . S
O448 Tb396 2.421 . S
O448 C470 1.262 . S
O449 Tb407 2.320 1_545 S
O449 C470 1.260 . S
O450 Tb407 2.552 1_545 S
O450 C463 1.243 . S
O451 Tb407 2.413 . S
O451 C471 1.256 . S
C452 O441 1.283 . S
C452 O444 1.243 1_565 S
C453 C455 1.382 . S
C453 C457 1.393 . S
C453 C460 1.500 . S
C454 C455 1.400 . S
C454 C456 1.384 . S
C455 C453 1.382 . S
C455 C454 1.400 . S
C455 H472 0.930 . S
C456 C454 1.384 . S
C456 C458 1.392 . S
C456 H473 0.931 . S
C457 C453 1.393 . S
C457 C458 1.401 . S
C457 H474 0.930 . S
C458 C456 1.392 . S
C458 C457 1.401 . S
C458 H475 0.930 . S
C459 O442 1.262 . S
C459 O443 1.260 . S
C460 Tb396 2.833 . S
C460 O440 1.251 . S
C460 O445 1.256 . S
C460 C453 1.500 . S
C461 H426 0.929 . S
C461 C439 1.444 . S
C461 C462 1.317 . S
C462 H424 0.930 . S
C462 C430 1.432 . S
C462 C461 1.317 . S
C463 O447 1.283 . S
C463 O450 1.243 . S
C464 C465 1.382 . S
C464 C468 1.393 . S
C464 C471 1.500 . S
C465 C464 1.382 . S
C465 C466 1.400 . S
C465 H476 0.930 1_565 S
C466 C465 1.400 . S
C466 C467 1.384 . S
C467 C466 1.384 . S
C467 C469 1.392 . S
C467 H477 0.931 . S
C468 C464 1.393 . S
C468 C469 1.401 . S
C468 H478 0.930 . S
C469 C467 1.392 . S
C469 C468 1.401 . S
C469 H479 0.930 . S
C470 O448 1.262 . S
C470 O449 1.260 . S
C471 Tb407 2.833 . S
C471 O446 1.251 . S
C471 O451 1.256 . S
C471 C464 1.500 . S
H472 C455 0.930 . S
H473 C456 0.931 . S
H474 C457 0.930 . S
H475 C458 0.930 . S
H476 C465 0.930 1_545 S
H477 C467 0.931 . S
H478 C468 0.930 . S
H479 C469 0.930 . S
Tb480 N511 2.660 . S
Tb480 N518 2.600 . S
Tb480 O524 2.546 . S
Tb480 O525 2.610 . S
Tb480 O527 2.320 . S
Tb480 O528 2.552 . S
Tb480 O529 2.413 . S
Tb480 O531 2.362 . S
Tb480 O532 2.421 . S
Tb480 C544 2.833 . S
C481 C484 1.432 . S
C481 C485 1.414 . S
C481 N488 1.359 . S
C482 C484 1.417 . S
C482 C486 1.432 . S
C482 C494 1.410 . S
C483 C485 1.444 . S
C483 C486 1.317 . S
C483 H506 0.929 . S
C484 C481 1.432 . S
C484 C482 1.417 . S
C484 N492 1.360 . S
C485 C481 1.414 . S
C485 C483 1.444 . S
C485 C490 1.385 . S
C486 C482 1.432 . S
C486 C483 1.317 . S
C486 H498 0.930 . S
C487 C489 1.392 . S
C487 C490 1.370 . S
C487 H499 0.931 . S
N488 C481 1.359 . S
N488 C489 1.327 . S
N488 Tb491 2.600 . S
C489 C487 1.392 . S
C489 N488 1.327 . S
C489 H496 0.930 . S
C490 C485 1.385 . S
C490 C487 1.370 . S
C490 H509 0.930 . S
Tb491 N488 2.600 . S
Tb491 N492 2.660 . S
Tb491 O525 2.362 . S
Tb491 O526 2.421 . S
Tb491 O530 2.546 . S
Tb491 O531 2.610 . S
Tb491 O533 2.320 . S
Tb491 O534 2.552 . S
Tb491 O535 2.413 . S
Tb491 C555 2.833 . S
N492 C484 1.360 . S
N492 Tb491 2.660 . S
N492 C493 1.305 . S
C493 N492 1.305 . S
C493 C495 1.407 . S
C493 H500 0.930 . S
C494 C482 1.410 . S
C494 C495 1.345 . S
C494 H502 0.930 . S
C495 C493 1.407 . S
C495 C494 1.345 . S
C495 H497 0.930 . S
H496 C489 0.930 . S
H497 C495 0.930 . S
H498 C486 0.930 . S
H499 C487 0.931 . S
H500 C493 0.930 . S
H501 C515 0.930 . S
H502 C494 0.930 . S
H503 C521 0.930 . S
H504 C512 0.930 . S
H505 C519 0.931 . S
H506 C483 0.929 . S
H507 C513 0.930 . S
H508 C546 0.930 . S
H509 C490 0.930 . S
H510 C545 0.929 . S
N511 Tb480 2.660 . S
N511 C512 1.305 . S
N511 C516 1.360 . S
C512 H504 0.930 . S
C512 N511 1.305 . S
C512 C515 1.407 . S
C513 H507 0.930 . S
C513 C514 1.410 . S
C513 C515 1.345 . S
C514 C513 1.410 . S
C514 C516 1.417 . S
C514 C546 1.432 . S
C515 H501 0.930 . S
C515 C512 1.407 . S
C515 C513 1.345 . S
C516 N511 1.360 . S
C516 C514 1.417 . S
C516 C520 1.432 . S
H517 C522 0.930 . S
N518 Tb480 2.600 . S
N518 C520 1.359 . S
N518 C521 1.327 . S
C519 H505 0.931 . S
C519 C521 1.392 . S
C519 C522 1.370 . S
C520 C516 1.432 . S
C520 N518 1.359 . S
C520 C523 1.414 . S
C521 H503 0.930 . S
C521 N518 1.327 . S
C521 C519 1.392 . S
C522 H517 0.930 . S
C522 C519 1.370 . S
C522 C523 1.385 . S
C523 C520 1.414 . S
C523 C522 1.385 . S
C523 C545 1.444 . S
O524 Tb480 2.546 . S
O524 C544 1.251 . S
O525 Tb480 2.610 . S
O525 Tb491 2.362 . S
O525 C536 1.283 . S
O526 Tb491 2.421 . S
O526 C543 1.262 . S
O527 Tb480 2.320 . S
O527 C543 1.260 . S
O528 Tb480 2.552 . S
O528 C536 1.243 . S
O529 Tb480 2.413 . S
O529 C544 1.256 . S
O530 Tb491 2.546 . S
O530 C555 1.251 . S
O531 Tb480 2.362 . S
O531 Tb491 2.610 . S
O531 C547 1.283 . S
O532 Tb480 2.421 . S
O532 C554 1.262 . S
O533 Tb491 2.320 . S
O533 C554 1.260 . S
O534 Tb491 2.552 . S
O534 C547 1.243 . S
O535 Tb491 2.413 . S
O535 C555 1.256 . S
C536 O525 1.283 . S
C536 O528 1.243 . S
C537 C539 1.382 . S
C537 C541 1.393 . S
C537 C544 1.500 . S
C538 C539 1.400 . S
C538 C540 1.384 . S
C539 C537 1.382 . S
C539 C538 1.400 . S
C539 H556 0.930 . S
C540 C538 1.384 . S
C540 C542 1.392 . S
C540 H557 0.931 . S
C541 C537 1.393 . S
C541 C542 1.401 . S
C541 H558 0.930 . S
C542 C540 1.392 . S
C542 C541 1.401 . S
C542 H559 0.930 . S
C543 O526 1.262 . S
C543 O527 1.260 . S
C544 Tb480 2.833 . S
C544 O524 1.251 . S
C544 O529 1.256 . S
C544 C537 1.500 . S
C545 H510 0.929 . S
C545 C523 1.444 . S
C545 C546 1.317 . S
C546 H508 0.930 . S
C546 C514 1.432 . S
C546 C545 1.317 . S
C547 O531 1.283 . S
C547 O534 1.243 . S
C548 C549 1.382 . S
C548 C552 1.393 . S
C548 C555 1.500 . S
C549 C548 1.382 . S
C549 C550 1.400 . S
C549 H560 0.930 . S
C550 C549 1.400 . S
C550 C551 1.384 . S
C551 C550 1.384 . S
C551 C553 1.392 . S
C551 H561 0.931 . S
C552 C548 1.393 . S
C552 C553 1.401 . S
C552 H562 0.930 . S
C553 C551 1.392 . S
C553 C552 1.401 . S
C553 H563 0.930 . S
C554 O532 1.262 . S
C554 O533 1.260 . S
C555 Tb491 2.833 . S
C555 O530 1.251 . S
C555 O535 1.256 . S
C555 C548 1.500 . S
H556 C539 0.930 . S
H557 C540 0.931 . S
H558 C541 0.930 . S
H559 C542 0.930 . S
H560 C549 0.930 . S
H561 C551 0.931 . S
H562 C552 0.930 . S
H563 C553 0.930 . S
Tb564 N595 2.660 . S
Tb564 N602 2.600 . S
Tb564 O608 2.546 . S
Tb564 O609 2.610 . S
Tb564 O611 2.320 . S
Tb564 O612 2.552 . S
Tb564 O613 2.413 . S
Tb564 O615 2.374 . S
Tb564 O616 2.421 1_455 S
Tb564 C628 2.833 . S
C565 C568 1.432 . S
C565 C569 1.414 . S
C565 N572 1.359 . S
C566 C568 1.417 . S
C566 C570 1.432 . S
C566 C578 1.410 . S
C567 C569 1.444 . S
C567 C570 1.317 . S
C567 H590 0.929 . S
C568 C565 1.432 . S
C568 C566 1.417 . S
C568 N576 1.360 . S
C569 C565 1.414 . S
C569 C567 1.444 . S
C569 C574 1.385 . S
C570 C566 1.432 . S
C570 C567 1.317 . S
C570 H582 0.930 . S
C571 C573 1.392 . S
C571 C574 1.370 1_455 S
C571 H583 0.931 . S
N572 C565 1.359 . S
N572 C573 1.327 1_655 S
N572 Tb575 2.600 . S
C573 C571 1.392 . S
C573 N572 1.327 1_455 S
C573 H580 0.930 . S
C574 C569 1.385 . S
C574 C571 1.370 1_655 S
C574 H593 0.936 . S
Tb575 N572 2.600 . S
Tb575 N576 2.660 . S
Tb575 O609 2.362 1_655 S
Tb575 O610 2.421 1_655 S
Tb575 O614 2.546 . S
Tb575 O615 2.602 1_655 S
Tb575 O617 2.320 . S
Tb575 O618 2.552 . S
Tb575 O619 2.413 . S
Tb575 C639 2.833 . S
N576 C568 1.360 . S
N576 Tb575 2.660 . S
N576 C577 1.305 . S
C577 N576 1.305 . S
C577 C579 1.407 . S
C577 H584 0.930 . S
C578 C566 1.410 . S
C578 C579 1.345 . S
C578 H586 0.930 . S
C579 C577 1.407 . S
C579 C578 1.345 . S
C579 H581 0.930 . S
H580 C573 0.930 . S
H581 C579 0.930 . S
H582 C570 0.930 . S
H583 C571 0.931 . S
H584 C577 0.930 . S
H585 C599 0.930 . S
H586 C578 0.930 . S
H587 C605 0.930 1_655 S
H588 C596 0.930 . S
H589 C603 0.923 1_655 S
H590 C567 0.929 . S
H591 C597 0.930 . S
H592 C630 0.930 . S
H593 C574 0.936 . S
H594 C629 0.929 . S
N595 Tb564 2.660 . S
N595 C596 1.305 . S
N595 C600 1.360 . S
C596 H588 0.930 . S
C596 N595 1.305 . S
C596 C599 1.407 . S
C597 H591 0.930 . S
C597 C598 1.410 . S
C597 C599 1.345 . S
C598 C597 1.410 . S
C598 C600 1.417 . S
C598 C630 1.432 . S
C599 H585 0.930 . S
C599 C596 1.407 . S
C599 C597 1.345 . S
C600 N595 1.360 . S
C600 C598 1.417 . S
C600 C604 1.432 . S
H601 C606 0.930 . S
N602 Tb564 2.600 . S
N602 C604 1.359 . S
N602 C605 1.327 . S
C603 H589 0.923 1_455 S
C603 C605 1.394 . S
C603 C606 1.376 . S
C604 C600 1.432 . S
C604 N602 1.359 . S
C604 C607 1.414 . S
C605 H587 0.930 1_455 S
C605 N602 1.327 . S
C605 C603 1.394 . S
C606 H601 0.930 . S
C606 C603 1.376 . S
C606 C607 1.385 . S
C607 C604 1.414 . S
C607 C606 1.385 . S
C607 C629 1.444 . S
O608 Tb564 2.546 . S
O608 C628 1.251 . S
O609 Tb564 2.610 . S
O609 Tb575 2.362 1_455 S
O609 C620 1.283 . S
O610 Tb575 2.421 1_455 S
O610 C627 1.262 . S
O611 Tb564 2.320 . S
O611 C627 1.260 . S
O612 Tb564 2.552 . S
O612 C620 1.243 . S
O613 Tb564 2.413 . S
O613 C628 1.256 . S
O614 Tb575 2.546 . S
O614 C639 1.251 . S
O615 Tb564 2.374 . S
O615 Tb575 2.602 1_455 S
O615 C631 1.274 1_455 S
O616 Tb564 2.421 1_655 S
O616 C638 1.262 . S
O617 Tb575 2.320 . S
O617 C638 1.260 . S
O618 Tb575 2.552 . S
O618 C631 1.243 . S
O619 Tb575 2.413 . S
O619 C639 1.256 . S
C620 O609 1.283 . S
C620 O612 1.243 . S
C621 C623 1.382 . S
C621 C625 1.393 . S
C621 C628 1.500 . S
C622 C623 1.400 . S
C622 C624 1.384 . S
C623 C621 1.382 . S
C623 C622 1.400 . S
C623 H640 0.930 . S
C624 C622 1.384 . S
C624 C626 1.392 . S
C624 H641 0.931 . S
C625 C621 1.393 . S
C625 C626 1.401 . S
C625 H642 0.930 . S
C626 C624 1.392 . S
C626 C625 1.401 . S
C626 H643 0.930 . S
C627 O610 1.262 . S
C627 O611 1.260 . S
C628 Tb564 2.833 . S
C628 O608 1.251 . S
C628 O613 1.256 . S
C628 C621 1.500 . S
C629 H594 0.929 . S
C629 C607 1.444 . S
C629 C630 1.317 . S
C630 H592 0.930 . S
C630 C598 1.432 . S
C630 C629 1.317 . S
C631 O615 1.274 1_655 S
C631 O618 1.243 . S
C632 C633 1.382 . S
C632 C636 1.393 . S
C632 C639 1.500 . S
C633 C632 1.382 . S
C633 C634 1.400 . S
C633 H644 0.930 . S
C634 C633 1.400 . S
C634 C635 1.384 . S
C635 C634 1.384 . S
C635 C637 1.392 . S
C635 H645 0.931 . S
C636 C632 1.393 . S
C636 C637 1.401 . S
C636 H646 0.930 . S
C637 C635 1.392 . S
C637 C636 1.401 . S
C637 H647 0.930 . S
C638 O616 1.262 . S
C638 O617 1.260 . S
C639 Tb575 2.833 . S
C639 O614 1.251 . S
C639 O619 1.256 . S
C639 C632 1.500 . S
H640 C623 0.930 . S
H641 C624 0.931 . S
H642 C625 0.930 . S
H643 C626 0.930 . S
H644 C633 0.930 . S
H645 C635 0.931 . S
H646 C636 0.930 . S
H647 C637 0.930 . S
H648 C660 0.930 . S
H649 C662 0.930 . S
H650 C663 0.930 . S
H651 C667 0.959 . S
H652 C667 0.959 . S
H653 C667 0.961 . S
H654 C668 0.960 . S
H655 C668 0.961 . S
H656 C668 0.959 . S
H657 C671 0.929 . S
H658 C672 0.931 . S
H659 C674 0.930 . S
C660 H648 0.930 . S
C660 C661 1.399 . S
C660 C665 1.399 . S
C661 C660 1.399 . S
C661 C662 1.376 . S
C662 H649 0.930 . S
C662 C661 1.376 . S
C662 C663 1.388 . S
C663 H650 0.930 . S
C663 C662 1.388 . S
C663 C664 1.390 . S
C664 C663 1.390 . S
C664 C665 1.394 . S
C664 C670 1.465 . S
C665 C660 1.399 . S
C665 C664 1.394 . S
C665 C666 1.516 . S
C666 C665 1.516 . S
C666 C667 1.502 . S
C666 C668 1.561 . S
C666 C669 1.526 . S
C667 H651 0.959 . S
C667 H652 0.959 . S
C667 H653 0.961 . S
C667 C666 1.502 . S
C668 H654 0.960 . S
C668 H655 0.961 . S
C668 H656 0.959 . S
C668 C666 1.561 . S
C669 C666 1.526 . S
C669 C670 1.396 . S
C669 C674 1.390 . S
C670 C664 1.465 . S
C670 C669 1.396 . S
C670 C671 1.399 . S
C671 H657 0.929 . S
C671 C670 1.399 . S
C671 C672 1.385 . S
C672 H658 0.931 . S
C672 C671 1.385 . S
C672 C673 1.389 . S
C673 C672 1.389 . S
C673 C674 1.387 . S
C674 H659 0.930 . S
C674 C669 1.390 . S
C674 C673 1.387 . S
H675 C687 0.930 . S
H676 C689 0.930 . S
H677 C690 0.930 . S
H678 C694 0.959 . S
H679 C694 0.959 . S
H680 C694 0.961 . S
H681 C695 0.960 . S
H682 C695 0.961 . S
H683 C695 0.959 . S
H684 C698 0.929 . S
H685 C699 0.931 . S
H686 C701 0.930 . S
C687 H675 0.930 . S
C687 C688 1.399 . S
C687 C692 1.399 . S
C688 C687 1.399 . S
C688 C689 1.376 . S
C689 H676 0.930 . S
C689 C688 1.376 . S
C689 C690 1.388 . S
C690 H677 0.930 . S
C690 C689 1.388 . S
C690 C691 1.390 . S
C691 C690 1.390 . S
C691 C692 1.394 . S
C691 C697 1.465 . S
C692 C687 1.399 . S
C692 C691 1.394 . S
C692 C693 1.516 . S
C693 C692 1.516 . S
C693 C694 1.502 . S
C693 C695 1.561 . S
C693 C696 1.526 . S
C694 H678 0.959 . S
C694 H679 0.959 . S
C694 H680 0.961 . S
C694 C693 1.502 . S
C695 H681 0.960 . S
C695 H682 0.961 . S
C695 H683 0.959 . S
C695 C693 1.561 . S
C696 C693 1.526 . S
C696 C697 1.396 . S
C696 C701 1.390 . S
C697 C691 1.465 . S
C697 C696 1.396 . S
C697 C698 1.399 . S
C698 H684 0.929 . S
C698 C697 1.399 . S
C698 C699 1.385 . S
C699 H685 0.931 . S
C699 C698 1.385 . S
C699 C700 1.389 . S
C700 C699 1.389 . S
C700 C701 1.387 . S
C701 H686 0.930 . S
C701 C696 1.390 . S
C701 C700 1.387 . S
H702 C714 0.930 . S
H703 C716 0.930 . S
H704 C717 0.930 . S
H705 C721 0.959 . S
H706 C721 0.959 . S
H707 C721 0.961 . S
H708 C722 0.960 . S
H709 C722 0.961 . S
H710 C722 0.959 . S
H711 C725 0.929 . S
H712 C726 0.931 . S
H713 C728 0.930 . S
C714 H702 0.930 . S
C714 C715 1.399 . S
C714 C719 1.399 . S
C715 C714 1.399 . S
C715 C716 1.376 . S
C716 H703 0.930 . S
C716 C715 1.376 . S
C716 C717 1.388 . S
C717 H704 0.930 . S
C717 C716 1.388 . S
C717 C718 1.390 . S
C718 C717 1.390 . S
C718 C719 1.394 . S
C718 C724 1.465 . S
C719 C714 1.399 . S
C719 C718 1.394 . S
C719 C720 1.516 . S
C720 C719 1.516 . S
C720 C721 1.502 . S
C720 C722 1.561 . S
C720 C723 1.526 . S
C721 H705 0.959 . S
C721 H706 0.959 . S
C721 H707 0.961 . S
C721 C720 1.502 . S
C722 H708 0.960 . S
C722 H709 0.961 . S
C722 H710 0.959 . S
C722 C720 1.561 . S
C723 C720 1.526 . S
C723 C724 1.396 . S
C723 C728 1.390 . S
C724 C718 1.465 . S
C724 C723 1.396 . S
C724 C725 1.399 . S
C725 H711 0.929 . S
C725 C724 1.399 . S
C725 C726 1.385 . S
C726 H712 0.931 . S
C726 C725 1.385 . S
C726 C727 1.389 . S
C727 C726 1.389 . S
C727 C728 1.387 . S
C728 H713 0.930 . S
C728 C723 1.390 . S
C728 C727 1.387 . S
H729 C741 0.930 . S
H730 C743 0.930 . S
H731 C744 0.930 . S
H732 C748 0.959 . S
H733 C748 0.959 . S
H734 C748 0.961 . S
H735 C749 0.960 . S
H736 C749 0.961 . S
H737 C749 0.959 . S
H738 C752 0.929 . S
H739 C753 0.931 . S
H740 C755 0.930 . S
C741 H729 0.930 . S
C741 C742 1.399 . S
C741 C746 1.399 . S
C742 C741 1.399 . S
C742 C743 1.376 . S
C743 H730 0.930 . S
C743 C742 1.376 . S
C743 C744 1.388 . S
C744 H731 0.930 . S
C744 C743 1.388 . S
C744 C745 1.390 . S
C745 C744 1.390 . S
C745 C746 1.394 . S
C745 C751 1.465 . S
C746 C741 1.399 . S
C746 C745 1.394 . S
C746 C747 1.516 . S
C747 C746 1.516 . S
C747 C748 1.502 . S
C747 C749 1.561 . S
C747 C750 1.526 . S
C748 H732 0.959 . S
C748 H733 0.959 . S
C748 H734 0.961 . S
C748 C747 1.502 . S
C749 H735 0.960 . S
C749 H736 0.961 . S
C749 H737 0.959 . S
C749 C747 1.561 . S
C750 C747 1.526 . S
C750 C751 1.396 . S
C750 C755 1.390 . S
C751 C745 1.465 . S
C751 C750 1.396 . S
C751 C752 1.399 . S
C752 H738 0.929 . S
C752 C751 1.399 . S
C752 C753 1.385 . S
C753 H739 0.931 . S
C753 C752 1.385 . S
C753 C754 1.389 . S
C754 C753 1.389 . S
C754 C755 1.387 . S
C755 H740 0.930 . S
C755 C750 1.390 . S
C755 C754 1.387 . S
H756 C768 0.930 . S
H757 C770 0.930 . S
H758 C771 0.930 . S
H759 C775 0.959 . S
H760 C775 0.959 . S
H761 C775 0.961 1_554 S
H762 C776 0.960 1_554 S
H763 C776 0.961 . S
H764 C776 0.959 . S
H765 C779 0.929 . S
H766 C780 0.931 . S
H767 C782 0.930 . S
C768 H756 0.930 . S
C768 C769 1.399 . S
C768 C773 1.399 1_554 S
C769 C768 1.399 . S
C769 C770 1.376 . S
C770 H757 0.930 . S
C770 C769 1.376 . S
C770 C771 1.388 1_554 S
C771 H758 0.930 . S
C771 C770 1.388 1_556 S
C771 C772 1.390 . S
C772 C771 1.390 . S
C772 C773 1.394 . S
C772 C778 1.465 . S
C773 C768 1.399 1_556 S
C773 C772 1.394 . S
C773 C774 1.516 . S
C774 C773 1.516 . S
C774 C775 1.502 1_565 S
C774 C776 1.561 . S
C774 C777 1.526 . S
C775 H759 0.959 . S
C775 H760 0.959 . S
C775 H761 0.961 1_556 S
C775 C774 1.502 1_545 S
C776 H762 0.960 1_556 S
C776 H763 0.961 . S
C776 H764 0.959 . S
C776 C774 1.561 . S
C777 C774 1.526 . S
C777 C778 1.396 . S
C777 C782 1.390 . S
C778 C772 1.465 . S
C778 C777 1.396 . S
C778 C779 1.399 . S
C779 H765 0.929 . S
C779 C778 1.399 . S
C779 C780 1.385 . S
C780 H766 0.931 . S
C780 C779 1.385 . S
C780 C781 1.389 . S
C781 C780 1.389 . S
C781 C782 1.387 . S
C782 H767 0.930 . S
C782 C777 1.390 . S
C782 C781 1.387 . S
H783 C795 0.930 . S
H784 C797 0.930 . S
H785 C798 0.930 . S
H786 C802 0.959 . S
H787 C802 0.959 . S
H788 C802 0.961 . S
H789 C803 0.960 . S
H790 C803 0.961 . S
H791 C803 0.959 . S
H792 C806 0.929 . S
H793 C807 0.931 . S
H794 C809 0.930 . S
C795 H783 0.930 . S
C795 C796 1.399 . S
C795 C800 1.399 1_554 S
C796 C795 1.399 . S
C796 C797 1.376 . S
C797 H784 0.930 . S
C797 C796 1.376 . S
C797 C798 1.388 . S
C798 H785 0.930 . S
C798 C797 1.388 . S
C798 C799 1.390 1_554 S
C799 C798 1.390 1_556 S
C799 C800 1.394 . S
C799 C805 1.465 . S
C800 C795 1.399 1_556 S
C800 C799 1.394 . S
C800 C801 1.516 . S
C801 C800 1.516 . S
C801 C802 1.502 . S
C801 C803 1.561 . S
C801 C804 1.526 . S
C802 H786 0.959 . S
C802 H787 0.959 . S
C802 H788 0.961 . S
C802 C801 1.502 . S
C803 H789 0.960 . S
C803 H790 0.961 . S
C803 H791 0.959 . S
C803 C801 1.561 . S
C804 C801 1.526 . S
C804 C805 1.396 . S
C804 C809 1.390 . S
C805 C799 1.465 . S
C805 C804 1.396 . S
C805 C806 1.399 . S
C806 H792 0.929 . S
C806 C805 1.399 . S
C806 C807 1.385 . S
C807 H793 0.931 . S
C807 C806 1.385 . S
C807 C808 1.389 . S
C808 C807 1.389 . S
C808 C809 1.387 . S
C809 H794 0.930 . S
C809 C804 1.390 . S
C809 C808 1.387 . S
H810 C822 0.930 . S
H811 C824 0.930 . S
H812 C825 0.930 . S
H813 C829 0.959 . S
H814 C829 0.959 . S
H815 C829 0.961 . S
H816 C830 0.960 1_554 S
H817 C830 0.961 . S
H818 C830 0.959 . S
H819 C833 0.929 . S
H820 C834 0.931 . S
H821 C836 0.930 . S
C822 H810 0.930 . S
C822 C823 1.399 . S
C822 C827 1.399 1_554 S
C823 C822 1.399 . S
C823 C824 1.376 . S
C824 H811 0.930 . S
C824 C823 1.376 . S
C824 C825 1.388 1_554 S
C825 H812 0.930 . S
C825 C824 1.388 1_556 S
C825 C826 1.390 . S
C826 C825 1.390 . S
C826 C827 1.394 . S
C826 C832 1.465 . S
C827 C822 1.399 1_556 S
C827 C826 1.394 . S
C827 C828 1.516 . S
C828 C827 1.516 . S
C828 C829 1.502 . S
C828 C830 1.561 . S
C828 C831 1.526 . S
C829 H813 0.959 . S
C829 H814 0.959 . S
C829 H815 0.961 . S
C829 C828 1.502 . S
C830 H816 0.960 1_556 S
C830 H817 0.961 . S
C830 H818 0.959 . S
C830 C828 1.561 . S
C831 C828 1.526 . S
C831 C832 1.396 . S
C831 C836 1.390 . S
C832 C826 1.465 . S
C832 C831 1.396 . S
C832 C833 1.399 . S
C833 H819 0.929 . S
C833 C832 1.399 . S
C833 C834 1.385 . S
C834 H820 0.931 . S
C834 C833 1.385 . S
C834 C835 1.389 . S
C835 C834 1.389 . S
C835 C836 1.387 . S
C836 H821 0.930 . S
C836 C831 1.390 . S
C836 C835 1.387 . S
H837 C849 0.930 1_556 S
H838 C851 0.930 . S
H839 C852 0.930 . S
H840 C856 0.959 . S
H841 C856 0.959 . S
H842 C856 0.961 . S
H843 C857 0.960 . S
H844 C857 0.961 . S
H845 C857 0.959 . S
H846 C860 0.929 . S
H847 C861 0.931 . S
H848 C863 0.930 . S
C849 H837 0.930 1_554 S
C849 C850 1.399 . S
C849 C854 1.399 1_554 S
C850 C849 1.399 . S
C850 C851 1.376 . S
C851 H838 0.930 . S
C851 C850 1.376 . S
C851 C852 1.388 . S
C852 H839 0.930 . S
C852 C851 1.388 . S
C852 C853 1.390 1_554 S
C853 C852 1.390 1_556 S
C853 C854 1.394 . S
C853 C859 1.465 . S
C854 C849 1.399 1_556 S
C854 C853 1.394 . S
C854 C855 1.516 . S
C855 C854 1.516 . S
C855 C856 1.502 . S
C855 C857 1.561 . S
C855 C858 1.526 . S
C856 H840 0.959 . S
C856 H841 0.959 . S
C856 H842 0.961 . S
C856 C855 1.502 . S
C857 H843 0.960 . S
C857 H844 0.961 . S
C857 H845 0.959 . S
C857 C855 1.561 . S
C858 C855 1.526 . S
C858 C859 1.396 . S
C858 C863 1.390 . S
C859 C853 1.465 . S
C859 C858 1.396 . S
C859 C860 1.399 . S
C860 H846 0.929 . S
C860 C859 1.399 . S
C860 C861 1.385 . S
C861 H847 0.931 . S
C861 C860 1.385 . S
C861 C862 1.389 . S
C862 C861 1.389 . S
C862 C863 1.387 . S
C863 H848 0.930 . S
C863 C858 1.390 . S
C863 C862 1.387 . S
H864 C876 0.930 . S
H865 C878 0.930 . S
H866 C879 0.930 . S
H867 C883 0.957 . S
H868 C883 0.959 1_655 S
H869 C883 0.961 . S
H870 C884 0.960 . S
H871 C884 0.961 . S
H872 C884 0.959 . S
H873 C887 0.929 . S
H874 C888 0.931 . S
H875 C890 0.930 1_655 S
C876 H864 0.930 . S
C876 C877 1.399 . S
C876 C881 1.399 . S
C877 C876 1.399 . S
C877 C878 1.376 . S
C878 H865 0.930 . S
C878 C877 1.376 . S
C878 C879 1.388 . S
C879 H866 0.930 . S
C879 C878 1.388 . S
C879 C880 1.390 . S
C880 C879 1.390 . S
C880 C881 1.394 . S
C880 C886 1.465 . S
C881 C876 1.399 . S
C881 C880 1.394 . S
C881 C882 1.516 . S
C882 C881 1.516 . S
C882 C883 1.502 . S
C882 C884 1.561 . S
C882 C885 1.526 . S
C883 H867 0.957 . S
C883 H868 0.959 1_455 S
C883 H869 0.961 . S
C883 C882 1.502 . S
C884 H870 0.960 . S
C884 H871 0.961 . S
C884 H872 0.959 . S
C884 C882 1.561 . S
C885 C882 1.526 . S
C885 C886 1.396 . S
C885 C890 1.390 . S
C886 C880 1.465 . S
C886 C885 1.396 . S
C886 C887 1.399 . S
C887 H873 0.929 . S
C887 C886 1.399 . S
C887 C888 1.385 . S
C888 H874 0.931 . S
C888 C887 1.385 . S
C888 C889 1.389 . S
C889 C888 1.389 . S
C889 C890 1.387 . S
C890 H875 0.930 1_455 S
C890 C885 1.390 . S
C890 C889 1.387 . S
H891 C903 0.930 . S
H892 C905 0.930 . S
H893 C906 0.930 . S
H894 C910 0.959 . S
H895 C910 0.959 . S
H896 C910 0.961 . S
H897 C911 0.960 . S
H898 C911 0.961 . S
H899 C911 0.959 . S
H900 C914 0.929 1_565 S
H901 C915 0.931 . S
H902 C917 0.930 . S
C903 H891 0.930 . S
C903 C904 1.399 . S
C903 C908 1.399 . S
C904 C903 1.399 . S
C904 C905 1.376 . S
C905 H892 0.930 . S
C905 C904 1.376 . S
C905 C906 1.388 . S
C906 H893 0.930 . S
C906 C905 1.388 . S
C906 C907 1.390 . S
C907 C906 1.390 . S
C907 C908 1.394 . S
C907 C913 1.465 . S
C908 C903 1.399 . S
C908 C907 1.394 . S
C908 C909 1.516 . S
C909 C908 1.516 . S
C909 C910 1.502 . S
C909 C911 1.561 . S
C909 C912 1.526 . S
C910 H894 0.959 . S
C910 H895 0.959 . S
C910 H896 0.961 . S
C910 C909 1.502 . S
C911 H897 0.960 . S
C911 H898 0.961 . S
C911 H899 0.959 . S
C911 C909 1.561 . S
C912 C909 1.526 . S
C912 C913 1.396 . S
C912 C917 1.390 . S
C913 C907 1.465 . S
C913 C912 1.396 . S
C913 C914 1.399 . S
C914 H900 0.929 1_545 S
C914 C913 1.399 . S
C914 C915 1.385 1_545 S
C915 H901 0.931 . S
C915 C914 1.385 1_565 S
C915 C916 1.395 . S
C916 C915 1.395 . S
C916 C917 1.374 1_565 S
C917 H902 0.930 . S
C917 C912 1.390 . S
C917 C916 1.374 1_545 S
H918 C930 0.930 . S
H919 C932 0.930 . S
H920 C933 0.930 . S
H921 C937 0.959 . S
H922 C937 0.959 . S
H923 C937 0.961 . S
H924 C938 0.960 . S
H925 C938 0.961 . S
H926 C938 0.959 . S
H927 C941 0.929 . S
H928 C942 0.931 . S
H929 C944 0.930 . S
C930 H918 0.930 . S
C930 C931 1.399 . S
C930 C935 1.399 . S
C931 C930 1.399 . S
C931 C932 1.376 . S
C932 H919 0.930 . S
C932 C931 1.376 . S
C932 C933 1.388 . S
C933 H920 0.930 . S
C933 C932 1.388 . S
C933 C934 1.390 . S
C934 C933 1.390 . S
C934 C935 1.394 . S
C934 C940 1.465 . S
C935 C930 1.399 . S
C935 C934 1.394 . S
C935 C936 1.516 . S
C936 C935 1.516 . S
C936 C937 1.502 . S
C936 C938 1.561 . S
C936 C939 1.526 . S
C937 H921 0.959 . S
C937 H922 0.959 . S
C937 H923 0.961 . S
C937 C936 1.502 . S
C938 H924 0.960 . S
C938 H925 0.961 . S
C938 H926 0.959 . S
C938 C936 1.561 . S
C939 C936 1.526 . S
C939 C940 1.396 . S
C939 C944 1.390 . S
C940 C934 1.465 . S
C940 C939 1.396 . S
C940 C941 1.399 . S
C941 H927 0.929 . S
C941 C940 1.399 . S
C941 C942 1.385 . S
C942 H928 0.931 . S
C942 C941 1.385 . S
C942 C943 1.389 . S
C943 C942 1.389 . S
C943 C944 1.387 . S
C944 H929 0.930 . S
C944 C939 1.390 . S
C944 C943 1.387 . S
H945 C957 0.930 . S
H946 C959 0.930 . S
H947 C960 0.930 . S
H948 C964 0.959 . S
H949 C964 0.959 . S
H950 C964 0.961 . S
H951 C965 0.960 . S
H952 C965 0.961 . S
H953 C965 0.959 . S
H954 C968 0.929 . S
H955 C969 0.931 . S
H956 C971 0.930 . S
C957 H945 0.930 . S
C957 C958 1.399 . S
C957 C962 1.399 . S
C958 C957 1.399 . S
C958 C959 1.376 . S
C959 H946 0.930 . S
C959 C958 1.376 . S
C959 C960 1.388 . S
C960 H947 0.930 . S
C960 C959 1.388 . S
C960 C961 1.390 . S
C961 C960 1.390 . S
C961 C962 1.394 . S
C961 C967 1.465 . S
C962 C957 1.399 . S
C962 C961 1.394 . S
C962 C963 1.516 . S
C963 C962 1.516 . S
C963 C964 1.502 . S
C963 C965 1.561 . S
C963 C966 1.526 . S
C964 H948 0.959 . S
C964 H949 0.959 . S
C964 H950 0.961 . S
C964 C963 1.502 . S
C965 H951 0.960 . S
C965 H952 0.961 . S
C965 H953 0.959 . S
C965 C963 1.561 . S
C966 C963 1.526 . S
C966 C967 1.396 . S
C966 C971 1.390 . S
C967 C961 1.465 . S
C967 C966 1.396 . S
C967 C968 1.399 . S
C968 H954 0.929 . S
C968 C967 1.399 . S
C968 C969 1.385 . S
C969 H955 0.931 . S
C969 C968 1.385 . S
C969 C970 1.389 . S
C970 C969 1.389 . S
C970 C971 1.387 . S
C971 H956 0.930 . S
C971 C966 1.390 . S
C971 C970 1.387 . S
H972 C984 0.930 . S
H973 C986 0.930 . S
H974 C987 0.930 . S
H975 C991 0.959 1_455 S
H976 C991 0.959 1_455 S
H977 C991 0.961 . S
H978 C992 0.960 . S
H979 C992 0.961 . S
H980 C992 0.959 . S
H981 C995 0.929 . S
H982 C996 0.931 . S
H983 C998 0.930 . S
C984 H972 0.930 . S
C984 C985 1.399 . S
C984 C989 1.399 . S
C985 C984 1.399 . S
C985 C986 1.376 1_556 S
C986 H973 0.930 . S
C986 C985 1.376 1_554 S
C986 C987 1.388 . S
C987 H974 0.930 . S
C987 C986 1.388 . S
C987 C988 1.390 1_554 S
C988 C987 1.390 1_556 S
C988 C989 1.394 . S
C988 C994 1.465 . S
C989 C984 1.399 . S
C989 C988 1.394 . S
C989 C990 1.516 . S
C990 C989 1.516 . S
C990 C991 1.502 . S
C990 C992 1.561 . S
C990 C993 1.526 . S
C991 H975 0.959 1_655 S
C991 H976 0.959 1_655 S
C991 H977 0.961 . S
C991 C990 1.502 . S
C992 H978 0.960 . S
C992 H979 0.961 . S
C992 H980 0.959 . S
C992 C990 1.561 . S
C993 C990 1.526 . S
C993 C994 1.396 . S
C993 C998 1.390 1_655 S
C994 C988 1.465 . S
C994 C993 1.396 . S
C994 C995 1.399 . S
C995 H981 0.929 . S
C995 C994 1.399 . S
C995 C996 1.385 . S
C996 H982 0.931 . S
C996 C995 1.385 . S
C996 C997 1.389 1_655 S
C997 C996 1.389 1_455 S
C997 C998 1.387 . S
C998 H983 0.930 . S
C998 C993 1.390 1_455 S
C998 C997 1.387 . S
H999 C1011 0.930 . S
H1000 C1013 0.930 . S
H1001 C1014 0.930 . S
H1002 C1018 0.959 1_545 S
H1003 C1018 0.959 1_545 S
H1004 C1018 0.961 . S
H1005 C1019 0.960 . S
H1006 C1019 0.961 . S
H1007 C1019 0.959 . S
H1008 C1022 0.929 . S
H1009 C1023 0.925 1_545 S
H1010 C1025 0.930 . S
C1011 H999 0.930 . S
C1011 C1012 1.399 . S
C1011 C1016 1.399 . S
C1012 C1011 1.399 . S
C1012 C1013 1.376 1_556 S
C1013 H1000 0.930 . S
C1013 C1012 1.376 1_554 S
C1013 C1014 1.388 . S
C1014 H1001 0.930 . S
C1014 C1013 1.388 . S
C1014 C1015 1.390 1_554 S
C1015 C1014 1.390 1_556 S
C1015 C1016 1.394 . S
C1015 C1021 1.465 . S
C1016 C1011 1.399 . S
C1016 C1015 1.394 . S
C1016 C1017 1.516 . S
C1017 C1016 1.516 . S
C1017 C1018 1.502 . S
C1017 C1019 1.561 . S
C1017 C1020 1.526 . S
C1018 H1002 0.959 1_565 S
C1018 H1003 0.959 1_565 S
C1018 H1004 0.961 . S
C1018 C1017 1.502 . S
C1019 H1005 0.960 . S
C1019 H1006 0.961 . S
C1019 H1007 0.959 . S
C1019 C1017 1.561 . S
C1020 C1017 1.526 . S
C1020 C1021 1.396 . S
C1020 C1025 1.390 1_565 S
C1021 C1015 1.465 . S
C1021 C1020 1.396 . S
C1021 C1022 1.399 . S
C1022 H1008 0.929 . S
C1022 C1021 1.399 . S
C1022 C1023 1.404 . S
C1023 H1009 0.925 1_565 S
C1023 C1022 1.404 . S
C1023 C1024 1.378 1_565 S
C1024 C1023 1.378 1_545 S
C1024 C1025 1.387 . S
C1025 H1010 0.930 . S
C1025 C1020 1.390 1_545 S
C1025 C1024 1.387 . S
H1026 C1038 0.930 . S
H1027 C1040 0.930 . S
H1028 C1041 0.930 . S
H1029 C1045 0.959 . S
H1030 C1045 0.959 . S
H1031 C1045 0.961 . S
H1032 C1046 0.960 . S
H1033 C1046 0.961 . S
H1034 C1046 0.959 . S
H1035 C1049 0.929 . S
H1036 C1050 0.931 . S
H1037 C1052 0.930 . S
C1038 H1026 0.930 . S
C1038 C1039 1.399 1_554 S
C1038 C1043 1.399 1_554 S
C1039 C1038 1.399 1_556 S
C1039 C1040 1.376 . S
C1040 H1027 0.930 . S
C1040 C1039 1.376 . S
C1040 C1041 1.388 . S
C1041 H1028 0.930 . S
C1041 C1040 1.388 . S
C1041 C1042 1.390 . S
C1042 C1041 1.390 . S
C1042 C1043 1.394 . S
C1042 C1048 1.465 . S
C1043 C1038 1.399 1_556 S
C1043 C1042 1.394 . S
C1043 C1044 1.516 1_556 S
C1044 C1043 1.516 1_554 S
C1044 C1045 1.503 . S
C1044 C1046 1.562 . S
C1044 C1047 1.525 1_554 S
C1045 H1029 0.959 . S
C1045 H1030 0.959 . S
C1045 H1031 0.961 . S
C1045 C1044 1.503 . S
C1046 H1032 0.960 . S
C1046 H1033 0.961 . S
C1046 H1034 0.959 . S
C1046 C1044 1.562 . S
C1047 C1044 1.525 1_556 S
C1047 C1048 1.396 . S
C1047 C1052 1.390 . S
C1048 C1042 1.465 . S
C1048 C1047 1.396 . S
C1048 C1049 1.399 . S
C1049 H1035 0.929 . S
C1049 C1048 1.399 . S
C1049 C1050 1.385 . S
C1050 H1036 0.931 . S
C1050 C1049 1.385 . S
C1050 C1051 1.389 . S
C1051 C1050 1.389 . S
C1051 C1052 1.387 . S
C1052 H1037 0.930 . S
C1052 C1047 1.390 . S
C1052 C1051 1.387 . S
H1053 C1065 0.930 . S
H1054 C1067 0.930 . S
H1055 C1068 0.930 . S
H1056 C1072 0.959 . S
H1057 C1072 0.959 . S
H1058 C1072 0.961 . S
H1059 C1073 0.960 . S
H1060 C1073 0.961 . S
H1061 C1073 0.959 1_556 S
H1062 C1076 0.929 . S
H1063 C1077 0.931 . S
H1064 C1079 0.930 . S
C1065 H1053 0.930 . S
C1065 C1066 1.399 1_554 S
C1065 C1070 1.399 1_554 S
C1066 C1065 1.399 1_556 S
C1066 C1067 1.376 . S
C1067 H1054 0.930 . S
C1067 C1066 1.376 . S
C1067 C1068 1.388 . S
C1068 H1055 0.930 . S
C1068 C1067 1.388 . S
C1068 C1069 1.390 . S
C1069 C1068 1.390 . S
C1069 C1070 1.394 . S
C1069 C1075 1.465 . S
C1070 C1065 1.399 1_556 S
C1070 C1069 1.394 . S
C1070 C1071 1.516 . S
C1071 C1070 1.516 . S
C1071 C1072 1.502 1_556 S
C1071 C1073 1.561 1_556 S
C1071 C1074 1.526 . S
C1072 H1056 0.959 . S
C1072 H1057 0.959 . S
C1072 H1058 0.961 . S
C1072 C1071 1.502 1_554 S
C1073 H1059 0.960 . S
C1073 H1060 0.961 . S
C1073 H1061 0.959 1_554 S
C1073 C1071 1.561 1_554 S
C1074 C1071 1.526 . S
C1074 C1075 1.396 . S
C1074 C1079 1.390 . S
C1075 C1069 1.465 . S
C1075 C1074 1.396 . S
C1075 C1076 1.399 . S
C1076 H1062 0.929 . S
C1076 C1075 1.399 . S
C1076 C1077 1.385 . S
C1077 H1063 0.931 . S
C1077 C1076 1.385 . S
C1077 C1078 1.389 . S
C1078 C1077 1.389 . S
C1078 C1079 1.387 . S
C1079 H1064 0.930 . S
C1079 C1074 1.390 . S
C1079 C1078 1.387 . S
H1080 C1092 0.930 . S
H1081 C1094 0.930 . S
H1082 C1095 0.930 . S
H1083 C1099 0.959 . S
H1084 C1099 0.959 . S
H1085 C1099 0.961 . S
H1086 C1100 0.960 . S
H1087 C1100 0.961 . S
H1088 C1100 0.959 . S
H1089 C1103 0.929 . S
H1090 C1104 0.931 . S
H1091 C1106 0.930 . S
C1092 H1080 0.930 . S
C1092 C1093 1.399 . S
C1092 C1097 1.399 . S
C1093 C1092 1.399 . S
C1093 C1094 1.376 . S
C1094 H1081 0.930 . S
C1094 C1093 1.376 . S
C1094 C1095 1.388 . S
C1095 H1082 0.930 . S
C1095 C1094 1.388 . S
C1095 C1096 1.390 . S
C1096 C1095 1.390 . S
C1096 C1097 1.394 . S
C1096 C1102 1.465 . S
C1097 C1092 1.399 . S
C1097 C1096 1.394 . S
C1097 C1098 1.516 . S
C1098 C1097 1.516 . S
C1098 C1099 1.502 . S
C1098 C1100 1.561 . S
C1098 C1101 1.526 . S
C1099 H1083 0.959 . S
C1099 H1084 0.959 . S
C1099 H1085 0.961 . S
C1099 C1098 1.502 . S
C1100 H1086 0.960 . S
C1100 H1087 0.961 . S
C1100 H1088 0.959 . S
C1100 C1098 1.561 . S
C1101 C1098 1.526 . S
C1101 C1102 1.396 . S
C1101 C1106 1.390 . S
C1102 C1096 1.465 . S
C1102 C1101 1.396 . S
C1102 C1103 1.399 . S
C1103 H1089 0.929 . S
C1103 C1102 1.399 . S
C1103 C1104 1.385 . S
C1104 H1090 0.931 . S
C1104 C1103 1.385 . S
C1104 C1105 1.389 . S
C1105 C1104 1.389 . S
C1105 C1106 1.387 . S
C1106 H1091 0.930 . S
C1106 C1101 1.390 . S
C1106 C1105 1.387 . S
H1107 C1119 0.930 . S
H1108 C1121 0.930 . S
H1109 C1122 0.930 . S
H1110 C1126 0.957 1_565 S
H1111 C1126 0.959 1_565 S
H1112 C1126 0.961 . S
H1113 C1127 0.960 . S
H1114 C1127 0.961 . S
H1115 C1127 0.959 . S
H1116 C1130 0.929 . S
H1117 C1131 0.931 . S
H1118 C1133 0.930 . S
C1119 H1107 0.930 . S
C1119 C1120 1.399 . S
C1119 C1124 1.399 . S
C1120 C1119 1.399 . S
C1120 C1121 1.376 . S
C1121 H1108 0.930 . S
C1121 C1120 1.376 . S
C1121 C1122 1.388 . S
C1122 H1109 0.930 . S
C1122 C1121 1.388 . S
C1122 C1123 1.390 . S
C1123 C1122 1.390 . S
C1123 C1124 1.394 . S
C1123 C1129 1.465 . S
C1124 C1119 1.399 . S
C1124 C1123 1.394 . S
C1124 C1125 1.516 . S
C1125 C1124 1.516 . S
C1125 C1126 1.502 . S
C1125 C1127 1.561 . S
C1125 C1128 1.526 . S
C1126 H1110 0.957 1_545 S
C1126 H1111 0.959 1_545 S
C1126 H1112 0.961 . S
C1126 C1125 1.502 . S
C1127 H1113 0.960 . S
C1127 H1114 0.961 . S
C1127 H1115 0.959 . S
C1127 C1125 1.561 . S
C1128 C1125 1.526 . S
C1128 C1129 1.396 . S
C1128 C1133 1.390 . S
C1129 C1123 1.465 . S
C1129 C1128 1.396 . S
C1129 C1130 1.399 . S
C1130 H1116 0.929 . S
C1130 C1129 1.399 . S
C1130 C1131 1.385 . S
C1131 H1117 0.931 . S
C1131 C1130 1.385 . S
C1131 C1132 1.389 . S
C1132 C1131 1.389 . S
C1132 C1133 1.387 . S
C1133 H1118 0.930 . S
C1133 C1128 1.390 . S
C1133 C1132 1.387 . S
H1134 C1146 0.930 . S
H1135 C1148 0.930 . S
H1136 C1149 0.930 . S
H1137 C1153 0.959 . S
H1138 C1153 0.959 . S
H1139 C1153 0.961 . S
H1140 C1154 0.960 . S
H1141 C1154 0.961 . S
H1142 C1154 0.959 . S
H1143 C1157 0.929 . S
H1144 C1158 0.931 . S
H1145 C1160 0.930 . S
C1146 H1134 0.930 . S
C1146 C1147 1.399 . S
C1146 C1151 1.399 . S
C1147 C1146 1.399 . S
C1147 C1148 1.376 . S
C1148 H1135 0.930 . S
C1148 C1147 1.376 . S
C1148 C1149 1.388 . S
C1149 H1136 0.930 . S
C1149 C1148 1.388 . S
C1149 C1150 1.390 . S
C1150 C1149 1.390 . S
C1150 C1151 1.394 . S
C1150 C1156 1.465 . S
C1151 C1146 1.399 . S
C1151 C1150 1.394 . S
C1151 C1152 1.516 . S
C1152 C1151 1.516 . S
C1152 C1153 1.502 . S
C1152 C1154 1.561 . S
C1152 C1155 1.526 . S
C1153 H1137 0.959 . S
C1153 H1138 0.959 . S
C1153 H1139 0.961 . S
C1153 C1152 1.502 . S
C1154 H1140 0.960 . S
C1154 H1141 0.961 . S
C1154 H1142 0.959 . S
C1154 C1152 1.561 . S
C1155 C1152 1.526 . S
C1155 C1156 1.396 . S
C1155 C1160 1.390 . S
C1156 C1150 1.465 . S
C1156 C1155 1.396 . S
C1156 C1157 1.399 . S
C1157 H1143 0.929 . S
C1157 C1156 1.399 . S
C1157 C1158 1.385 . S
C1158 H1144 0.931 . S
C1158 C1157 1.385 . S
C1158 C1159 1.389 . S
C1159 C1158 1.389 . S
C1159 C1160 1.387 . S
C1160 H1145 0.930 . S
C1160 C1155 1.390 . S
C1160 C1159 1.387 . S
H1161 C1173 0.930 . S
H1162 C1175 0.930 . S
H1163 C1176 0.930 . S
H1164 C1180 0.959 . S
H1165 C1180 0.959 . S
H1166 C1180 0.961 . S
H1167 C1181 0.960 . S
H1168 C1181 0.961 . S
H1169 C1181 0.959 . S
H1170 C1184 0.929 . S
H1171 C1185 0.931 . S
H1172 C1187 0.930 . S
C1173 H1161 0.930 . S
C1173 C1174 1.399 . S
C1173 C1178 1.399 . S
C1174 C1173 1.399 . S
C1174 C1175 1.376 . S
C1175 H1162 0.930 . S
C1175 C1174 1.376 . S
C1175 C1176 1.388 . S
C1176 H1163 0.930 . S
C1176 C1175 1.388 . S
C1176 C1177 1.390 . S
C1177 C1176 1.390 . S
C1177 C1178 1.394 . S
C1177 C1183 1.465 . S
C1178 C1173 1.399 . S
C1178 C1177 1.394 . S
C1178 C1179 1.516 . S
C1179 C1178 1.516 . S
C1179 C1180 1.502 . S
C1179 C1181 1.561 . S
C1179 C1182 1.526 . S
C1180 H1164 0.959 . S
C1180 H1165 0.959 . S
C1180 H1166 0.961 . S
C1180 C1179 1.502 . S
C1181 H1167 0.960 . S
C1181 H1168 0.961 . S
C1181 H1169 0.959 . S
C1181 C1179 1.561 . S
C1182 C1179 1.526 . S
C1182 C1183 1.396 . S
C1182 C1187 1.390 . S
C1183 C1177 1.465 . S
C1183 C1182 1.396 . S
C1183 C1184 1.399 . S
C1184 H1170 0.929 . S
C1184 C1183 1.399 . S
C1184 C1185 1.385 . S
C1185 H1171 0.931 . S
C1185 C1184 1.385 . S
C1185 C1186 1.389 . S
C1186 C1185 1.389 . S
C1186 C1187 1.387 . S
C1187 H1172 0.930 . S
C1187 C1182 1.390 . S
C1187 C1186 1.387 . S
H1188 C1200 0.930 . S
H1189 C1202 0.930 . S
H1190 C1203 0.930 . S
H1191 C1207 0.959 . S
H1192 C1207 0.959 . S
H1193 C1207 0.961 . S
H1194 C1208 0.960 . S
H1195 C1208 0.961 . S
H1196 C1208 0.959 . S
H1197 C1211 0.929 . S
H1198 C1212 0.931 . S
H1199 C1214 0.930 . S
C1200 H1188 0.930 . S
C1200 C1201 1.399 . S
C1200 C1205 1.399 . S
C1201 C1200 1.399 . S
C1201 C1202 1.376 . S
C1202 H1189 0.930 . S
C1202 C1201 1.376 . S
C1202 C1203 1.388 . S
C1203 H1190 0.930 . S
C1203 C1202 1.388 . S
C1203 C1204 1.390 . S
C1204 C1203 1.390 . S
C1204 C1205 1.394 . S
C1204 C1210 1.465 . S
C1205 C1200 1.399 . S
C1205 C1204 1.394 . S
C1205 C1206 1.516 . S
C1206 C1205 1.516 . S
C1206 C1207 1.502 . S
C1206 C1208 1.561 . S
C1206 C1209 1.526 . S
C1207 H1191 0.959 . S
C1207 H1192 0.959 . S
C1207 H1193 0.961 . S
C1207 C1206 1.502 . S
C1208 H1194 0.960 . S
C1208 H1195 0.961 . S
C1208 H1196 0.959 . S
C1208 C1206 1.561 . S
C1209 C1206 1.526 . S
C1209 C1210 1.396 . S
C1209 C1214 1.390 . S
C1210 C1204 1.465 . S
C1210 C1209 1.396 . S
C1210 C1211 1.399 . S
C1211 H1197 0.929 . S
C1211 C1210 1.399 . S
C1211 C1212 1.385 . S
C1212 H1198 0.931 . S
C1212 C1211 1.385 . S
C1212 C1213 1.389 . S
C1213 C1212 1.389 . S
C1213 C1214 1.387 . S
C1214 H1199 0.930 . S
C1214 C1209 1.390 . S
C1214 C1213 1.387 . S
H1215 C1227 0.930 . S
H1216 C1229 0.930 . S
H1217 C1230 0.930 . S
H1218 C1234 0.959 . S
H1219 C1234 0.959 . S
H1220 C1234 0.961 . S
H1221 C1235 0.960 . S
H1222 C1235 0.961 . S
H1223 C1235 0.959 . S
H1224 C1238 0.929 . S
H1225 C1239 0.941 . S
H1226 C1241 0.930 . S
C1227 H1215 0.930 . S
C1227 C1228 1.399 . S
C1227 C1232 1.399 . S
C1228 C1227 1.399 . S
C1228 C1229 1.376 . S
C1229 H1216 0.930 . S
C1229 C1228 1.376 . S
C1229 C1230 1.388 . S
C1230 H1217 0.930 . S
C1230 C1229 1.388 . S
C1230 C1231 1.390 . S
C1231 C1230 1.390 . S
C1231 C1232 1.394 . S
C1231 C1237 1.465 . S
C1232 C1227 1.399 . S
C1232 C1231 1.394 . S
C1232 C1233 1.516 . S
C1233 C1232 1.516 . S
C1233 C1234 1.502 . S
C1233 C1235 1.561 . S
C1233 C1236 1.526 . S
C1234 H1218 0.959 . S
C1234 H1219 0.959 . S
C1234 H1220 0.961 . S
C1234 C1233 1.502 . S
C1235 H1221 0.960 . S
C1235 H1222 0.961 . S
C1235 H1223 0.959 . S
C1235 C1233 1.561 . S
C1236 C1233 1.526 . S
C1236 C1237 1.396 . S
C1236 C1241 1.390 . S
C1237 C1231 1.465 . S
C1237 C1236 1.396 . S
C1237 C1238 1.399 . S
C1238 H1224 0.929 . S
C1238 C1237 1.399 . S
C1238 C1239 1.385 . S
C1239 H1225 0.941 . S
C1239 C1238 1.385 . S
C1239 C1240 1.389 . S
C1240 C1239 1.389 . S
C1240 C1241 1.387 . S
C1241 H1226 0.930 . S
C1241 C1236 1.390 . S
C1241 C1240 1.387 . S
H1242 C1254 0.930 . S
H1243 C1256 0.930 . S
H1244 C1257 0.930 . S
H1245 C1261 0.959 . S
H1246 C1261 0.959 . S
H1247 C1261 0.961 . S
H1248 C1262 0.960 . S
H1249 C1262 0.961 . S
H1250 C1262 0.959 . S
H1251 C1265 0.929 . S
H1252 C1266 0.931 . S
H1253 C1268 0.930 . S
C1254 H1242 0.930 . S
C1254 C1255 1.399 . S
C1254 C1259 1.399 . S
C1255 C1254 1.399 . S
C1255 C1256 1.376 . S
C1256 H1243 0.930 . S
C1256 C1255 1.376 . S
C1256 C1257 1.388 . S
C1257 H1244 0.930 . S
C1257 C1256 1.388 . S
C1257 C1258 1.390 . S
C1258 C1257 1.390 . S
C1258 C1259 1.394 . S
C1258 C1264 1.465 . S
C1259 C1254 1.399 . S
C1259 C1258 1.394 . S
C1259 C1260 1.516 . S
C1260 C1259 1.516 . S
C1260 C1261 1.502 . S
C1260 C1262 1.561 . S
C1260 C1263 1.526 . S
C1261 H1245 0.959 . S
C1261 H1246 0.959 . S
C1261 H1247 0.961 . S
C1261 C1260 1.502 . S
C1262 H1248 0.960 . S
C1262 H1249 0.961 . S
C1262 H1250 0.959 . S
C1262 C1260 1.561 . S
C1263 C1260 1.526 . S
C1263 C1264 1.396 . S
C1263 C1268 1.390 . S
C1264 C1258 1.465 . S
C1264 C1263 1.396 . S
C1264 C1265 1.399 . S
C1265 H1251 0.929 . S
C1265 C1264 1.399 . S
C1265 C1266 1.385 . S
C1266 H1252 0.931 . S
C1266 C1265 1.385 . S
C1266 C1267 1.389 . S
C1267 C1266 1.389 . S
C1267 C1268 1.387 . S
C1268 H1253 0.930 . S
C1268 C1263 1.390 . S
C1268 C1267 1.387 . S
H1269 C1281 0.930 . S
H1270 C1283 0.930 . S
H1271 C1284 0.930 . S
H1272 C1288 0.959 . S
H1273 C1288 0.959 . S
H1274 C1288 0.961 . S
H1275 C1289 0.960 . S
H1276 C1289 0.961 . S
H1277 C1289 0.959 . S
H1278 C1292 0.929 . S
H1279 C1293 0.931 . S
H1280 C1295 0.930 . S
C1281 H1269 0.930 . S
C1281 C1282 1.399 . S
C1281 C1286 1.399 . S
C1282 C1281 1.399 . S
C1282 C1283 1.376 . S
C1283 H1270 0.930 . S
C1283 C1282 1.376 . S
C1283 C1284 1.388 . S
C1284 H1271 0.930 . S
C1284 C1283 1.388 . S
C1284 C1285 1.390 . S
C1285 C1284 1.390 . S
C1285 C1286 1.394 . S
C1285 C1291 1.465 . S
C1286 C1281 1.399 . S
C1286 C1285 1.394 . S
C1286 C1287 1.516 . S
C1287 C1286 1.516 . S
C1287 C1288 1.502 . S
C1287 C1289 1.561 . S
C1287 C1290 1.526 . S
C1288 H1272 0.959 . S
C1288 H1273 0.959 . S
C1288 H1274 0.961 . S
C1288 C1287 1.502 . S
C1289 H1275 0.960 . S
C1289 H1276 0.961 . S
C1289 H1277 0.959 . S
C1289 C1287 1.561 . S
C1290 C1287 1.526 . S
C1290 C1291 1.396 . S
C1290 C1295 1.390 . S
C1291 C1285 1.465 . S
C1291 C1290 1.396 . S
C1291 C1292 1.399 . S
C1292 H1278 0.929 . S
C1292 C1291 1.399 . S
C1292 C1293 1.385 . S
C1293 H1279 0.931 . S
C1293 C1292 1.385 . S
C1293 C1294 1.389 . S
C1294 C1293 1.389 . S
C1294 C1295 1.387 . S
C1295 H1280 0.930 . S
C1295 C1290 1.390 . S
C1295 C1294 1.387 . S
C661 C255 2.303 . S
C673 C386 2.322 . S
C700 C470 2.395 . S
C688 C294 2.240 . S
C727 C536 2.287 . S
C715 C177 2.372 . S
C754 C620 2.302 . S
C742 C216 2.356 . S
C781 C375 2.378 1_565 S
C769 C99 2.259 . S
C796 C138 2.245 . S
C808 C459 2.357 . S
C823 C21 2.432 . S
C835 C547 2.249 . S
C850 C60 2.418 . S
C862 C631 2.230 . S
C889 C382 0.692 1_455 S
C877 C196 0.779 . S
C916 C466 0.560 . S
C904 C235 0.514 . S
C943 C538 0.627 . S
C931 C289 0.717 . S
C958 C157 0.599 . S
C970 C622 0.632 . S
C985 C40 0.727 1_556 S
C997 C370 0.681 . S
C1024 C454 0.615 . S
C1012 C79 0.661 1_556 S
C1051 C550 0.659 . S
C1039 C133 0.647 1_556 S
C1066 C1 0.705 1_556 S
C1078 C634 0.705 . S
C1093 C211 2.733 . S
C1105 C379 2.943 . S
C1120 C250 2.708 . S
C1132 C463 2.901 . S
C1159 C543 2.940 . S
C1147 C274 2.639 . S
C1186 C627 2.965 . S
C1174 C172 2.613 . S
C1201 C55 2.790 . S
C1213 C368 2.905 . S
C1240 C452 2.876 . S
C1228 C94 2.693 . S
C1267 C554 2.961 . S
C1255 C118 2.613 . S
C1282 C16 2.615 . S
C1294 C638 2.990 . S
