# Generated by pormake.
# Topology rtl, (3,6)-cn, num edge types: 1
# Building blocks:
#     Node 0, Type 0, BuildingBlock: PAMTOO_clean_linker_0, # of connection points: 3
#     Node 1, Type 0, BuildingBlock: PAMTOO_clean_linker_0, # of connection points: 3
#     Node 2, Type 0, BuildingBlock: PAMTOO_clean_linker_0, # of connection points: 3
#     Node 3, Type 0, BuildingBlock: PAMTOO_clean_linker_0, # of connection points: 3
#     Node 4, Type 1, BuildingBlock: KUMBOL_clean_sbu_1, # of connection points: 6
#     Node 5, Type 1, BuildingBlock: KUMBOL_clean_sbu_1, # of connection points: 6
#     Edge 6, Type (0, 1), BuildingBlock: XIVTED_clean_linker_0, # of connection points: 2
#     Edge 7, Type (0, 1), BuildingBlock: XIVTED_clean_linker_0, # of connection points: 2
#     Edge 8, Type (0, 1), BuildingBlock: XIVTED_clean_linker_0, # of connection points: 2
#     Edge 9, Type (0, 1), BuildingBlock: XIVTED_clean_linker_0, # of connection points: 2
#     Edge 10, Type (0, 1), BuildingBlock: XIVTED_clean_linker_0, # of connection points: 2
#     Edge 11, Type (0, 1), BuildingBlock: XIVTED_clean_linker_0, # of connection points: 2
#     Edge 12, Type (0, 1), BuildingBlock: XIVTED_clean_linker_0, # of connection points: 2
#     Edge 13, Type (0, 1), BuildingBlock: XIVTED_clean_linker_0, # of connection points: 2
#     Edge 14, Type (0, 1), BuildingBlock: XIVTED_clean_linker_0, # of connection points: 2
#     Edge 15, Type (0, 1), BuildingBlock: XIVTED_clean_linker_0, # of connection points: 2
#     Edge 16, Type (0, 1), BuildingBlock: XIVTED_clean_linker_0, # of connection points: 2
#     Edge 17, Type (0, 1), BuildingBlock: XIVTED_clean_linker_0, # of connection points: 2
# Relax obj value: 0.052
# Max RMSD: 0.218
# Mean RMSD: 0.164
data_MOF--net-rtl--node1-KUMBOL_clean_sbu_1--node2-PAMTOO_clean_linker_0--edge1-XIVTED_clean_linker_0
_symmetry_space_group_name_H-M    P1
_symmetry_Int_Tables_number       1
_symmetry_cell_setting            triclinic
loop_
_symmetry_equiv_pos_as_xyz
'x, y, z'
_cell_length_a     35.105375
_cell_length_b     35.450278
_cell_length_c     27.425692
_cell_angle_alpha  79.299583
_cell_angle_beta   99.33481
_cell_angle_gamma 91.505391
loop_
_atom_site_label
_atom_site_type_symbol
_atom_site_fract_x
_atom_site_fract_y
_atom_site_fract_z
_atom_type_partial_charge
H0 H 0.16313 0.89837 0.99216 0.0
H1 H 0.22586 0.80846 0.10091 0.0
H2 H 0.23962 0.82417 0.94587 0.0
H3 H 0.22893 0.74562 0.00125 0.0
C4 C 0.2509 0.74712 0.03507 0.0
O5 O 0.2621 0.78461 0.03599 0.0
H6 H 0.23742 0.73571 0.06883 0.0
C7 C 0.18356 0.87474 0.00164 0.0
C8 C 0.20011 0.86368 0.96319 0.0
C9 C 0.19187 0.85479 0.05152 0.0
C10 C 0.21897 0.82456 0.06295 0.0
C11 C 0.23635 0.81387 0.0249 0.0
C12 C 0.22664 0.83317 0.97513 0.0
H13 H 0.63641 0.65298 0.64198 0.0
H14 H 0.72467 0.71537 0.56807 0.0
H15 H 0.70966 0.73187 0.71487 0.0
H16 H 0.72331 0.80454 0.64627 0.0
C17 C 0.7388 0.7927 0.62008 0.0
O18 O 0.74739 0.75447 0.63913 0.0
H19 H 0.71926 0.79566 0.58325 0.0
C20 C 0.65989 0.67343 0.64148 0.0
C21 C 0.67086 0.69098 0.68341 0.0
C22 C 0.67934 0.68122 0.59974 0.0
C23 C 0.70908 0.70866 0.59958 0.0
C24 C 0.71946 0.72738 0.64055 0.0
C25 C 0.70095 0.71791 0.68288 0.0
H26 H 0.86294 0.12047 0.09242 0.0
H27 H 0.78957 0.20471 0.9883 0.0
H28 H 0.79568 0.19836 0.14726 0.0
H29 H 0.71846 0.20516 0.08639 0.0
C30 C 0.72477 0.22724 0.05415 0.0
O31 O 0.76396 0.23379 0.05818 0.0
H32 H 0.71436 0.21603 0.01904 0.0
C33 C 0.84177 0.14339 0.08515 0.0
C34 C 0.83069 0.15677 0.12582 0.0
C35 C 0.82737 0.16041 0.03533 0.0
C36 C 0.80125 0.19127 0.02641 0.0
C37 C 0.78964 0.2046 0.06684 0.0
C38 C 0.80469 0.18768 0.11635 0.0
H39 H 0.39868 0.37502 0.43716 0.0
H40 H 0.31212 0.31158 0.51335 0.0
H41 H 0.324 0.29685 0.36481 0.0
H42 H 0.24324 0.2926 0.38504 0.0
C43 C 0.24901 0.28277 0.42651 0.0
O44 O 0.28764 0.27368 0.44152 0.0
H45 H 0.2412 0.30666 0.44432 0.0
C46 C 0.37529 0.35449 0.4381 0.0
C47 C 0.36348 0.33737 0.39594 0.0
C48 C 0.35672 0.34621 0.48061 0.0
C49 C 0.32707 0.31866 0.48128 0.0
C50 C 0.31559 0.3007 0.43982 0.0
C51 C 0.3334 0.31046 0.39696 0.0
C52 C 0.96347 0.13404 0.51113 0.0
C53 C 0.89827 0.12337 0.47077 0.0
C54 C 0.93253 0.10947 0.50282 0.0
C55 C 0.89563 0.16211 0.44709 0.0
C56 C 0.96089 0.17297 0.48748 0.0
C57 C 0.92684 0.18683 0.45541 0.0
N58 N 0.99636 0.11968 0.54151 0.0
C59 C 0.02715 0.14288 0.55137 0.0
C60 C 0.99273 0.19676 0.49653 0.0
C61 C 0.02593 0.18167 0.52883 0.0
Gd62 Gd 0.04474 0.97591 0.51552 0.0
Gd63 Gd 0.99612 0.05412 0.57619 0.0
N64 N 0.93646 0.07173 0.5248 0.0
C65 C 0.86775 0.09784 0.46318 0.0
C66 C 0.90614 0.04718 0.51932 0.0
C67 C 0.87159 0.05969 0.48797 0.0
H68 H 0.90804 0.0181 0.53938 0.0
H69 H 0.84783 0.03992 0.48322 0.0
H70 H 0.13087 0.02243 0.51021 0.0
H71 H 0.05236 0.1316 0.57749 0.0
H72 H 0.19681 0.0164 0.55671 0.0
H73 H 0.84098 0.10737 0.43877 0.0
H74 H 0.8696 0.17323 0.42216 0.0
H75 H 1.00068 0.89368 0.55347 0.0
H76 H 0.99188 0.22683 0.47905 0.0
H77 H 0.05051 0.19994 0.53658 0.0
H78 H 0.19799 0.89495 0.66786 0.0
H79 H 0.92438 0.21662 0.43679 0.0
H80 H 0.08244 0.81991 0.659 0.0
H81 H 0.01644 0.83182 0.61127 0.0
N82 N 0.05697 0.91644 0.56905 0.0
C83 C 0.09368 0.91025 0.59396 0.0
C84 C 0.02944 0.88875 0.57446 0.0
C85 C 0.07571 0.84702 0.63361 0.0
C86 C 0.03837 0.85367 0.60688 0.0
C87 C 0.1039 0.87543 0.62742 0.0
H88 H 0.14986 0.84394 0.68047 0.0
N89 N 0.10998 0.97277 0.55461 0.0
C90 C 0.12069 0.93944 0.58727 0.0
C91 C 0.18603 0.96267 0.60351 0.0
C92 C 0.15883 0.93388 0.6133 0.0
C93 C 0.13744 0.999 0.54137 0.0
C94 C 0.17546 0.99498 0.5666 0.0
O95 O 0.99253 0.06428 0.4917 0.0
O96 O 0.99026 1.00451 0.46984 0.0
O97 O 0.07179 0.9799 0.44864 0.0
O98 O 0.04161 0.92843 0.47545 0.0
O99 O 0.97227 0.99331 0.58701 0.0
O100 O 0.98155 0.9655 0.51946 0.0
O101 O 0.04276 0.96605 0.59913 0.0
O102 O 0.05116 0.02562 0.6196 0.0
O103 O 0.9604 0.0421 0.63469 0.0
O104 O 0.99768 0.09172 0.63067 0.0
O105 O 0.0638 0.0383 0.4993 0.0
O106 O 0.05954 0.06124 0.57168 0.0
C107 C 0.98193 0.04133 0.45958 0.0
C108 C 0.96368 0.96761 0.55763 0.0
C109 C 0.04107 0.94468 0.38845 0.0
C110 C 0.04631 0.93142 0.30545 0.0
C111 C 0.98397 0.94716 0.32509 0.0
C112 C 1.00125 0.95065 0.37352 0.0
C113 C 1.00616 0.93736 0.29136 0.0
C114 C 0.06352 0.93547 0.35434 0.0
C115 C 0.05933 0.94649 0.44005 0.0
C116 C 0.16892 0.8995 0.64727 0.0
C117 C 0.14157 0.87035 0.65425 0.0
H118 H 0.2156 0.95948 0.62269 0.0
C119 C 0.05725 0.98847 0.63037 0.0
C120 C 0.07385 0.06287 0.52985 0.0
C121 C 0.98455 0.06246 0.71049 0.0
C122 C 0.97032 0.06749 0.79316 0.0
C123 C 0.02624 0.03109 0.78557 0.0
C124 C 0.01705 0.03987 0.73326 0.0
C125 C 1.00299 0.04468 0.81545 0.0
C126 C 0.9614 0.07636 0.74043 0.0
C127 C 0.9737 0.07091 0.65566 0.0
H128 H 0.95315 0.95151 0.31387 0.0
H129 H 0.98353 0.95738 0.39958 0.0
H130 H 0.99162 0.93374 0.25459 0.0
H131 H 0.09436 0.9315 0.36611 0.0
H132 H 0.05137 0.01363 0.80299 0.0
H133 H 0.03511 0.02894 0.71064 0.0
H134 H 0.01078 0.03766 0.85595 0.0
H135 H 0.936 0.0934 0.72262 0.0
C136 C 0.6285 0.57926 0.04727 0.0
C137 C 0.61042 0.64597 0.01552 0.0
C138 C 0.60113 0.60852 0.0382 0.0
C139 C 0.64682 0.65327 0.00085 0.0
C140 C 0.66518 0.58658 0.03294 0.0
C141 C 0.67412 0.62369 0.00955 0.0
N142 N 0.61867 0.54325 0.06834 0.0
C143 C 0.64436 0.51359 0.07752 0.0
C144 C 0.69158 0.55619 0.04172 0.0
C145 C 0.68114 0.51957 0.06426 0.0
Gd146 Gd 0.47681 0.49399 0.99031 0.0
Gd147 Gd 0.55648 0.536 0.08911 0.0
N148 N 0.56572 0.60048 0.05191 0.0
C149 C 0.58308 0.67521 0.00903 0.0
C150 C 0.54046 0.62965 0.04959 0.0
C151 C 0.54825 0.66712 0.027 0.0
H152 H 0.51486 0.62484 0.06664 0.0
H153 H 0.5277 0.68992 0.02442 0.0
H154 H 0.51634 0.40433 0.01462 0.0
H155 H 0.63665 0.48542 0.0957 0.0
H156 H 0.50209 0.33986 0.05768 0.0
H157 H 0.58912 0.70434 0.99182 0.0
H158 H 0.65428 0.68182 0.98309 0.0
H159 H 0.39668 0.54582 0.97853 0.0
H160 H 0.72003 0.56067 0.0312 0.0
H161 H 0.70144 0.49596 0.07148 0.0
H162 H 0.37499 0.35133 0.09597 0.0
H163 H 0.70207 0.6298 0.998 0.0
H164 H 0.31151 0.47353 0.04356 0.0
H165 H 0.33142 0.53724 0.00166 0.0
N166 N 0.41385 0.48822 0.00883 0.0
C167 C 0.40318 0.45268 0.03048 0.0
C168 C 0.3885 0.51824 0.99782 0.0
C169 C 0.34022 0.47723 0.03372 0.0
C170 C 0.3514 0.51329 0.01029 0.0
C171 C 0.36614 0.44634 0.044 0.0
H172 H 0.32811 0.40434 0.07888 0.0
N173 N 0.46572 0.42997 0.02773 0.0
C174 C 0.42997 0.42285 0.04069 0.0
C175 C 0.44669 0.35601 0.07151 0.0
C176 C 0.41983 0.38582 0.06384 0.0
C177 C 0.49052 0.40023 0.03117 0.0
C178 C 0.48189 0.36312 0.05421 0.0
O179 O 0.56716 0.53843 0.00932 0.0
O180 O 0.50757 0.54822 0.96052 0.0
O181 O 0.48378 0.46736 0.92687 0.0
O182 O 0.43235 0.50015 0.92462 0.0
O183 O 0.49497 0.55881 0.07582 0.0
O184 O 0.47053 0.55668 0.9928 0.0
O185 O 0.46629 0.49037 0.07046 0.0
O186 O 0.5261 0.4817 0.11915 0.0
O187 O 0.5507 0.56224 0.15329 0.0
O188 O 0.60178 0.52948 0.15391 0.0
O189 O 0.53801 0.47018 0.00456 0.0
O190 O 0.56349 0.47331 0.08715 0.0
C191 C 0.54507 0.55359 0.96737 0.0
C192 C 0.47044 0.57055 0.03411 0.0
C193 C 0.45296 0.49931 0.84759 0.0
C194 C 0.44167 0.4944 0.75868 0.0
C195 C 0.46159 0.55512 0.78452 0.0
C196 C 0.46239 0.53816 0.83481 0.0
C197 C 0.45101 0.5336 0.74665 0.0
C198 C 0.44316 0.47748 0.80971 0.0
C199 C 0.45155 0.48147 0.9 0.0
C200 C 0.3831 0.37953 0.07783 0.0
C201 C 0.35634 0.40968 0.06792 0.0
H202 H 0.44 0.32717 0.08912 0.0
C203 C 0.48875 0.47552 0.11229 0.0
C204 C 0.5625 0.45846 0.04633 0.0
C205 C 0.58225 0.52966 0.23177 0.0
C206 C 0.59431 0.53383 0.32092 0.0
C207 C 0.57398 0.47344 0.29439 0.0
C208 C 0.57281 0.49079 0.24417 0.0
C209 C 0.58493 0.49461 0.33256 0.0
C210 C 0.59246 0.55114 0.26997 0.0
C211 C 0.5831 0.54793 0.17936 0.0
H212 H 0.46859 0.58522 0.77479 0.0
H213 H 0.46975 0.55541 0.86362 0.0
H214 H 0.44947 0.54801 0.70796 0.0
H215 H 0.43665 0.4473 0.82029 0.0
H216 H 0.56694 0.44333 0.30382 0.0
H217 H 0.56513 0.47381 0.21512 0.0
H218 H 0.58672 0.47993 0.37117 0.0
H219 H 0.59897 0.58134 0.2597 0.0
H220 H 0.21214 0.23336 0.36791 0.0
H221 H 0.11917 0.10466 0.59163 0.0
H222 H 0.23165 0.25357 0.52008 0.0
H223 H 0.09254 0.09075 0.43682 0.0
H224 H 0.16317 0.15692 0.56727 0.0
H225 H 0.17124 0.17849 0.39345 0.0
C226 C 0.20774 0.22615 0.40673 0.0
C227 C 0.22472 0.24824 0.44186 0.0
C228 C 0.14773 0.14244 0.53861 0.0
C229 C 0.17827 0.18541 0.47156 0.0
C230 C 0.12248 0.11269 0.55247 0.0
C231 C 0.10173 0.09365 0.51611 0.0
C232 C 0.15253 0.15312 0.488 0.0
C233 C 0.10783 0.10472 0.4661 0.0
C234 C 0.18442 0.19487 0.42133 0.0
C235 C 0.21862 0.23743 0.49184 0.0
N236 N 0.13254 0.13377 0.45352 0.0
N237 N 0.19577 0.20689 0.50519 0.0
H238 H 0.28093 0.73433 0.95322 0.0
H239 H 0.4466 0.59079 0.11588 0.0
H240 H 0.2997 0.70671 0.11502 0.0
H241 H 0.42631 0.61573 0.95367 0.0
H242 H 0.39526 0.63584 0.11629 0.0
H243 H 0.33629 0.69372 0.95243 0.0
C244 C 0.29679 0.71958 0.98854 0.0
C245 C 0.28543 0.72309 0.0342 0.0
C246 C 0.40207 0.63157 0.08057 0.0
C247 C 0.34888 0.67703 0.03383 0.0
C248 C 0.43149 0.60591 0.08031 0.0
C249 C 0.44058 0.59922 0.03465 0.0
C250 C 0.38155 0.65086 0.03485 0.0
C251 C 0.42 0.61969 0.98975 0.0
C252 C 0.32835 0.69649 0.98815 0.0
C253 C 0.30725 0.70414 0.07904 0.0
N254 N 0.39135 0.64444 0.99097 0.0
N255 N 0.33779 0.68173 0.07773 0.0
H256 H 0.78006 0.79839 0.54213 0.0
H257 H 0.92635 0.95603 0.63948 0.0
H258 H 0.78006 0.83755 0.68171 0.0
H259 H 0.9292 0.91584 0.50082 0.0
H260 H 0.87426 0.9112 0.65656 0.0
H261 H 0.83651 0.83887 0.52774 0.0
C262 C 0.79216 0.81543 0.5698 0.0
C263 C 0.77516 0.81519 0.61274 0.0
C264 C 0.8863 0.91205 0.62244 0.0
C265 C 0.83957 0.86146 0.59677 0.0
C266 C 0.91609 0.93778 0.61254 0.0
C267 C 0.93228 0.93989 0.56851 0.0
C268 C 0.87229 0.88816 0.58806 0.0
C269 C 0.91771 0.91526 0.53527 0.0
C270 C 0.82428 0.83854 0.56161 0.0
C271 C 0.79208 0.83734 0.64783 0.0
N272 N 0.8885 0.89054 0.54564 0.0
N273 N 0.82315 0.85978 0.6389 0.0
H274 H 0.71276 0.25857 0.13465 0.0
H275 H 0.58206 0.43195 0.96618 0.0
H276 H 0.69054 0.27926 0.97276 0.0
H277 H 0.60483 0.41305 0.12832 0.0
H278 H 0.62425 0.37795 0.96802 0.0
H279 H 0.67621 0.31693 0.13345 0.0
C280 C 0.70014 0.27553 0.09889 0.0
C281 C 0.70389 0.26387 0.05377 0.0
C282 C 0.62019 0.38566 0.00323 0.0
C283 C 0.6624 0.33059 0.0519 0.0
C284 C 0.59603 0.41651 0.00222 0.0
C285 C 0.58969 0.42695 0.04719 0.0
C286 C 0.63819 0.36489 0.04957 0.0
C287 C 0.60886 0.40603 0.09272 0.0
C288 C 0.67935 0.30878 0.09816 0.0
C289 C 0.6877 0.28704 0.00835 0.0
N290 N 0.63208 0.37587 0.09276 0.0
N291 N 0.66742 0.31915 0.00856 0.0
H292 H 0.11617 0.87689 0.0401 0.0
H293 H 0.10962 0.88301 0.32573 0.0
H294 H 0.21862 0.85464 0.15223 0.0
H295 H 0.03698 0.95454 0.20275 0.0
H296 H 0.14644 0.86442 0.26541 0.0
H297 H 0.08255 0.89646 0.10216 0.0
C298 C 0.13186 0.87645 0.0776 0.0
C299 C 0.17074 0.86479 0.09043 0.0
C300 C 0.12248 0.88427 0.25189 0.0
C301 C 0.13156 0.8861 0.16239 0.0
C302 C 0.10151 0.89515 0.28626 0.0
C303 C 0.06984 0.92041 0.26954 0.0
C304 C 0.11135 0.89816 0.20036 0.0
C305 C 0.06045 0.93438 0.21762 0.0
C306 C 0.11244 0.88744 0.11312 0.0
C307 C 0.18872 0.86333 0.14049 0.0
N308 N 0.08089 0.92285 0.18496 0.0
N309 N 0.16895 0.87384 0.17471 0.0
H310 H 0.59356 0.68854 0.6876 0.0
H311 H 0.62014 0.55103 0.95377 0.0
H312 H 0.70475 0.66463 0.78036 0.0
H313 H 0.51193 0.60808 0.88795 0.0
H314 H 0.6512 0.59064 0.88894 0.0
H315 H 0.56237 0.65836 0.75878 0.0
C316 C 0.61134 0.67744 0.72329 0.0
C317 C 0.65175 0.67898 0.72822 0.0
C318 C 0.6207 0.5947 0.88876 0.0
C319 C 0.6164 0.64378 0.80933 0.0
C320 C 0.60294 0.57217 0.92591 0.0
C321 C 0.56344 0.57652 0.92666 0.0
C322 C 0.59865 0.62123 0.85111 0.0
C323 C 0.54238 0.60354 0.88858 0.0
C324 C 0.59356 0.66023 0.76382 0.0
C325 C 0.67351 0.66422 0.77515 0.0
N326 N 0.5602 0.62473 0.85212 0.0
N327 N 0.65558 0.64672 0.81372 0.0
H328 H 0.83877 0.08037 0.16645 0.0
H329 H 0.97696 0.11657 0.41393 0.0
H330 H 0.86221 0.19282 0.20287 0.0
H331 H 0.93343 1.00442 0.3946 0.0
H332 H 0.93608 0.14472 0.33583 0.0
H333 H 0.87379 0.05162 0.24903 0.0
C334 C 0.85108 0.09897 0.19206 0.0
C335 C 0.84782 0.13904 0.17778 0.0
C336 C 0.93541 0.11395 0.34859 0.0
C337 C 0.88809 0.1064 0.27208 0.0
C338 C 0.95875 0.09781 0.39325 0.0
C339 C 0.9586 0.05802 0.41087 0.0
C340 C 0.9121 0.09012 0.32072 0.0
C341 C 0.93486 0.03513 0.38206 0.0
C342 C 0.87097 0.08256 0.23918 0.0
C343 C 0.8639 0.16182 0.21251 0.0
N344 N 0.91261 0.05151 0.33826 0.0
N345 N 0.88369 0.14518 0.25789 0.0
H346 H 0.35867 0.31963 0.58248 0.0
H347 H 0.4669 0.50118 0.66738 0.0
H348 H 0.37998 0.42126 0.47628 0.0
H349 H 0.38917 0.43498 0.75705 0.0
H350 H 0.44513 0.46514 0.6005 0.0
H351 H 0.37874 0.35507 0.65102 0.0
C352 C 0.36734 0.3493 0.57335 0.0
C353 C 0.36795 0.36717 0.5232 0.0
C354 C 0.43295 0.45859 0.63494 0.0
C355 C 0.39195 0.40732 0.60167 0.0
C356 C 0.44515 0.47931 0.67314 0.0
C357 C 0.42976 0.47152 0.7182 0.0
C358 C 0.4057 0.42927 0.64196 0.0
C359 C 0.40245 0.4418 0.72357 0.0
C360 C 0.37898 0.36938 0.61257 0.0
C361 C 0.38005 0.40567 0.51414 0.0
N362 N 0.39142 0.42167 0.686 0.0
N363 N 0.39187 0.42426 0.55293 0.0
H364 H 0.67861 0.70747 0.4981 0.0
H365 H 0.56962 0.52647 0.4126 0.0
H366 H 0.65604 0.6062 0.60408 0.0
H367 H 0.64709 0.59297 0.32282 0.0
H368 H 0.59179 0.56208 0.47982 0.0
H369 H 0.65879 0.67202 0.42952 0.0
C370 C 0.66976 0.67785 0.50717 0.0
C371 C 0.66866 0.66009 0.55724 0.0
C372 C 0.60385 0.56878 0.4453 0.0
C373 C 0.64497 0.61993 0.47872 0.0
C374 C 0.59141 0.54831 0.4069 0.0
C375 C 0.60658 0.55634 0.3617 0.0
C376 C 0.63113 0.59808 0.43835 0.0
C377 C 0.63397 0.58598 0.35642 0.0
C378 C 0.65826 0.65777 0.46792 0.0
C379 C 0.65635 0.62168 0.56624 0.0
N380 N 0.64523 0.60588 0.39418 0.0
N381 N 0.64466 0.60308 0.52742 0.0
H382 H 0.8366 0.08602 0.02557 0.0
H383 H 0.93944 0.13952 0.78178 0.0
H384 H 0.84992 0.20261 0.95014 0.0
H385 H 0.94416 0.02743 0.87638 0.0
H386 H 0.89919 0.16218 0.83572 0.0
H387 H 0.8678 0.06315 0.96324 0.0
C388 C 0.84592 0.10682 0.99566 0.0
C389 C 0.84115 0.14632 0.99348 0.0
C390 C 0.90896 0.13262 0.84454 0.0
C391 C 0.87689 0.12029 0.92178 0.0
C392 C 0.93179 0.11963 0.8137 0.0
C393 C 0.94536 0.08159 0.82483 0.0
C394 C 0.89938 0.10728 0.88654 0.0
C395 C 0.93483 0.05713 0.86686 0.0
C396 C 0.86372 0.09374 0.96006 0.0
C397 C 0.85298 0.17191 0.95321 0.0
N398 N 0.9125 0.07039 0.89614 0.0
N399 N 0.87065 0.15847 0.91916 0.0
H400 H 0.32769 0.36252 0.29951 0.0
H401 H 0.52355 0.42127 0.19041 0.0
H402 H 0.44042 0.34168 0.38933 0.0
H403 H 0.41365 0.47575 0.127 0.0
H404 H 0.4931 0.38224 0.25707 0.0
H405 H 0.35833 0.39278 0.22772 0.0
C406 C 0.3589 0.36363 0.30375 0.0
C407 C 0.38159 0.34982 0.35036 0.0
C408 C 0.47567 0.4026 0.22831 0.0
C409 C 0.41674 0.38461 0.2689 0.0
C410 C 0.49307 0.42507 0.19053 0.0
C411 C 0.47108 0.45175 0.15302 0.0
C412 C 0.43593 0.40657 0.22821 0.0
C413 C 0.43155 0.45502 0.15456 0.0
C414 C 0.37634 0.38121 0.26303 0.0
C415 C 0.42192 0.35231 0.35407 0.0
N416 N 0.41522 0.43265 0.1914 0.0
N417 N 0.43823 0.36954 0.31395 0.0
H418 H 0.1741 0.82886 0.88342 0.0
H419 H 0.11273 0.02316 0.68919 0.0
H420 H 0.19444 0.94049 0.9236 0.0
H421 H 0.05498 0.91503 0.68154 0.0
H422 H 0.15295 0.993 0.76792 0.0
H423 H 0.14224 0.85978 0.79981 0.0
C424 C 0.17254 0.85991 0.87423 0.0
C425 C 0.18669 0.88221 0.91039 0.0
C426 C 0.13161 0.97591 0.7487 0.0
C427 C 0.15002 0.91761 0.81543 0.0
C428 C 0.10859 0.99309 0.70404 0.0
C429 C 0.08088 0.97135 0.67857 0.0
C430 C 0.12705 0.93672 0.76758 0.0
C431 C 0.07663 0.93255 0.69938 0.0
C432 C 0.15404 0.87748 0.82682 0.0
C433 C 0.18357 0.92233 0.89681 0.0
N434 N 0.09963 0.91639 0.74249 0.0
N435 N 0.16541 0.9388 0.8504 0.0
loop_
_geom_bond_atom_site_label_1
_geom_bond_atom_site_label_2
_geom_bond_distance
_geom_bond_site_symmetry_2
_ccdc_geom_bond_type
H0 C7 0.929 . S
H1 C10 0.930 . S
H2 C12 0.929 . S
H3 C4 0.969 . S
C4 H3 0.969 . S
C4 O5 1.550 . S
C4 H6 0.973 . S
O5 C4 1.550 . S
O5 C11 1.412 . S
H6 C4 0.973 . S
C7 H0 0.929 . S
C7 C8 1.400 1_554 S
C7 C9 1.364 . S
C8 C7 1.400 1_556 S
C8 C12 1.377 . S
C9 C7 1.364 . S
C9 C10 1.374 . S
C10 H1 0.930 . S
C10 C9 1.374 . S
C10 C11 1.383 . S
C11 O5 1.412 . S
C11 C10 1.383 . S
C11 C12 1.394 1_554 S
C12 H2 0.929 . S
C12 C8 1.377 . S
C12 C11 1.394 1_556 S
H13 C20 0.929 . S
H14 C23 0.930 . S
H15 C25 0.929 . S
H16 C17 0.969 . S
C17 H16 0.969 . S
C17 O18 1.550 . S
C17 H19 0.973 . S
O18 C17 1.550 . S
O18 C24 1.412 . S
H19 C17 0.973 . S
C20 H13 0.929 . S
C20 C21 1.400 . S
C20 C22 1.364 . S
C21 C20 1.400 . S
C21 C25 1.377 . S
C22 C20 1.364 . S
C22 C23 1.374 . S
C23 H14 0.930 . S
C23 C22 1.374 . S
C23 C24 1.383 . S
C24 O18 1.412 . S
C24 C23 1.383 . S
C24 C25 1.394 . S
C25 H15 0.929 . S
C25 C21 1.377 . S
C25 C24 1.394 . S
H26 C33 0.929 . S
H27 C36 0.930 1_556 S
H28 C38 0.929 . S
H29 C30 0.969 . S
C30 H29 0.969 . S
C30 O31 1.550 . S
C30 H32 0.973 1_554 S
O31 C30 1.550 . S
O31 C37 1.412 . S
H32 C30 0.973 1_556 S
C33 H26 0.929 . S
C33 C34 1.400 . S
C33 C35 1.364 . S
C34 C33 1.400 . S
C34 C38 1.377 . S
C35 C33 1.364 . S
C35 C36 1.374 . S
C36 H27 0.930 1_554 S
C36 C35 1.374 . S
C36 C37 1.383 . S
C37 O31 1.412 . S
C37 C36 1.383 . S
C37 C38 1.394 . S
C38 H28 0.929 . S
C38 C34 1.377 . S
C38 C37 1.394 . S
H39 C46 0.929 . S
H40 C49 0.930 . S
H41 C51 0.929 . S
H42 C43 0.969 . S
C43 H42 0.969 . S
C43 O44 1.550 . S
C43 H45 0.973 . S
O44 C43 1.550 . S
O44 C50 1.412 . S
H45 C43 0.973 . S
C46 H39 0.929 . S
C46 C47 1.400 . S
C46 C48 1.364 . S
C47 C46 1.400 . S
C47 C51 1.377 . S
C48 C46 1.364 . S
C48 C49 1.374 . S
C49 H40 0.930 . S
C49 C48 1.374 . S
C49 C50 1.383 . S
C50 O44 1.412 . S
C50 C49 1.383 . S
C50 C51 1.394 . S
C51 H41 0.929 . S
C51 C47 1.377 . S
C51 C50 1.394 . S
C52 C54 1.422 . S
C52 C56 1.415 . S
C52 N58 1.369 . S
C53 C54 1.421 . S
C53 C55 1.417 . S
C53 C65 1.422 . S
C54 C52 1.422 . S
C54 C53 1.421 . S
C54 N64 1.359 . S
C55 C53 1.417 . S
C55 C57 1.329 . S
C55 H74 0.930 . S
C56 C52 1.415 . S
C56 C57 1.437 . S
C56 C60 1.413 . S
C57 C55 1.329 . S
C57 C56 1.437 . S
C57 H79 0.929 . S
N58 C52 1.369 . S
N58 C59 1.338 1_655 S
N58 Gd63 2.622 . S
C59 N58 1.338 1_455 S
C59 C61 1.378 . S
C59 H71 0.929 . S
C60 C56 1.413 . S
C60 C61 1.348 1_655 S
C60 H76 0.931 . S
C61 C59 1.378 . S
C61 C60 1.348 1_455 S
C61 H77 0.930 . S
Gd62 N82 2.622 . S
Gd62 N89 2.570 . S
Gd62 O96 2.353 1_465 S
Gd62 O97 2.468 . S
Gd62 O98 2.427 . S
Gd62 O100 2.388 1_455 S
Gd62 O101 2.386 . S
Gd62 O105 2.307 1_565 S
Gd62 C115 2.805 . S
Gd63 N58 2.622 . S
Gd63 N64 2.570 . S
Gd63 O95 2.386 . S
Gd63 O99 2.307 1_545 S
Gd63 O102 2.353 1_655 S
Gd63 O103 2.468 . S
Gd63 O104 2.427 . S
Gd63 O106 2.388 1_655 S
Gd63 C127 2.805 . S
N64 C54 1.359 . S
N64 Gd63 2.570 . S
N64 C66 1.343 . S
C65 C53 1.422 . S
C65 C67 1.321 . S
C65 H73 0.931 . S
C66 N64 1.343 . S
C66 C67 1.390 . S
C66 H68 0.931 . S
C67 C65 1.321 . S
C67 C66 1.390 . S
C67 H69 0.930 . S
H68 C66 0.931 . S
H69 C67 0.930 . S
H70 C93 0.931 . S
H71 C59 0.929 . S
H72 C94 0.930 . S
H73 C65 0.931 . S
H74 C55 0.930 . S
H75 C84 0.929 1_655 S
H76 C60 0.931 . S
H77 C61 0.930 . S
H78 C116 0.930 . S
H79 C57 0.929 . S
H80 C85 0.931 . S
H81 C86 0.930 1_655 S
N82 Gd62 2.622 . S
N82 C83 1.369 . S
N82 C84 1.338 . S
C83 N82 1.369 . S
C83 C87 1.415 . S
C83 C90 1.422 . S
C84 H75 0.929 1_455 S
C84 N82 1.338 . S
C84 C86 1.378 . S
C85 H80 0.931 . S
C85 C86 1.348 . S
C85 C87 1.413 . S
C86 H81 0.930 1_455 S
C86 C84 1.378 . S
C86 C85 1.348 . S
C87 C83 1.415 . S
C87 C85 1.413 . S
C87 C117 1.437 . S
H88 C117 0.929 . S
N89 Gd62 2.570 . S
N89 C90 1.359 . S
N89 C93 1.343 . S
C90 C83 1.422 . S
C90 N89 1.359 . S
C90 C92 1.421 . S
C91 C92 1.422 . S
C91 C94 1.321 . S
C91 H118 0.931 . S
C92 C90 1.421 . S
C92 C91 1.422 . S
C92 C116 1.417 . S
C93 H70 0.931 . S
C93 N89 1.343 . S
C93 C94 1.390 . S
C94 H72 0.930 . S
C94 C91 1.321 . S
C94 C93 1.390 . S
O95 Gd63 2.386 . S
O95 C107 1.265 . S
O96 Gd62 2.353 1_645 S
O96 C107 1.242 . S
O97 Gd62 2.468 . S
O97 C115 1.263 . S
O98 Gd62 2.427 . S
O98 C115 1.252 . S
O99 Gd63 2.307 1_565 S
O99 C108 1.261 . S
O100 Gd62 2.388 1_655 S
O100 C108 1.252 . S
O101 Gd62 2.386 . S
O101 C119 1.265 . S
O102 Gd63 2.353 1_455 S
O102 C119 1.242 1_545 S
O103 Gd63 2.468 . S
O103 C127 1.263 . S
O104 Gd63 2.427 . S
O104 C127 1.252 . S
O105 Gd62 2.307 1_545 S
O105 C120 1.261 . S
O106 Gd63 2.388 1_455 S
O106 C120 1.252 . S
C107 O95 1.265 . S
C107 O96 1.242 . S
C108 O99 1.261 . S
C108 O100 1.252 . S
C109 C112 1.394 . S
C109 C114 1.370 . S
C109 C115 1.500 . S
C110 C113 1.383 . S
C110 C114 1.395 . S
C111 C112 1.396 . S
C111 C113 1.365 . S
C111 H128 0.929 . S
C112 C109 1.394 . S
C112 C111 1.396 . S
C112 H129 0.930 . S
C113 C110 1.383 . S
C113 C111 1.365 . S
C113 H130 0.931 . S
C114 C109 1.370 . S
C114 C110 1.395 . S
C114 H131 0.930 . S
C115 Gd62 2.805 . S
C115 O97 1.263 . S
C115 O98 1.252 . S
C115 C109 1.500 . S
C116 H78 0.930 . S
C116 C92 1.417 . S
C116 C117 1.329 . S
C117 C87 1.437 . S
C117 H88 0.929 . S
C117 C116 1.329 . S
H118 C91 0.931 . S
C119 O101 1.265 . S
C119 O102 1.242 1_565 S
C120 O105 1.261 . S
C120 O106 1.252 . S
C121 C124 1.394 . S
C121 C126 1.370 . S
C121 C127 1.500 . S
C122 C125 1.383 . S
C122 C126 1.395 . S
C123 C124 1.396 . S
C123 C125 1.365 . S
C123 H132 0.929 . S
C124 C121 1.394 . S
C124 C123 1.396 . S
C124 H133 0.930 . S
C125 C122 1.383 . S
C125 C123 1.365 . S
C125 H134 0.931 . S
C126 C121 1.370 . S
C126 C122 1.395 . S
C126 H135 0.930 . S
C127 Gd63 2.805 . S
C127 O103 1.263 . S
C127 O104 1.252 . S
C127 C121 1.500 . S
H128 C111 0.929 . S
H129 C112 0.930 . S
H130 C113 0.931 . S
H131 C114 0.930 . S
H132 C123 0.929 . S
H133 C124 0.930 . S
H134 C125 0.931 . S
H135 C126 0.930 . S
C136 C138 1.422 . S
C136 C140 1.415 . S
C136 N142 1.369 . S
C137 C138 1.421 . S
C137 C139 1.417 . S
C137 C149 1.422 . S
C138 C136 1.422 . S
C138 C137 1.421 . S
C138 N148 1.359 . S
C139 C137 1.417 . S
C139 C141 1.329 . S
C139 H158 0.930 . S
C140 C136 1.415 . S
C140 C141 1.437 . S
C140 C144 1.413 . S
C141 C139 1.329 . S
C141 C140 1.437 . S
C141 H163 0.929 . S
N142 C136 1.369 . S
N142 C143 1.338 . S
N142 Gd147 2.622 . S
C143 N142 1.338 . S
C143 C145 1.378 . S
C143 H155 0.929 . S
C144 C140 1.413 . S
C144 C145 1.348 . S
C144 H160 0.931 . S
C145 C143 1.378 . S
C145 C144 1.348 . S
C145 H161 0.930 . S
Gd146 N166 2.622 . S
Gd146 N173 2.570 1_556 S
Gd146 O180 2.353 . S
Gd146 O181 2.468 . S
Gd146 O182 2.427 . S
Gd146 O184 2.388 1_556 S
Gd146 O185 2.386 1_556 S
Gd146 O189 2.307 1_556 S
Gd146 C199 2.805 . S
Gd147 N142 2.622 . S
Gd147 N148 2.570 . S
Gd147 O179 2.386 . S
Gd147 O183 2.307 . S
Gd147 O186 2.353 . S
Gd147 O187 2.468 . S
Gd147 O188 2.427 . S
Gd147 O190 2.388 . S
Gd147 C211 2.805 . S
N148 C138 1.359 . S
N148 Gd147 2.570 . S
N148 C150 1.343 . S
C149 C137 1.422 . S
C149 C151 1.321 . S
C149 H157 0.931 . S
C150 N148 1.343 . S
C150 C151 1.390 . S
C150 H152 0.931 . S
C151 C149 1.321 . S
C151 C150 1.390 . S
C151 H153 0.930 . S
H152 C150 0.931 . S
H153 C151 0.930 . S
H154 C177 0.931 . S
H155 C143 0.929 . S
H156 C178 0.930 . S
H157 C149 0.931 . S
H158 C139 0.930 . S
H159 C168 0.929 . S
H160 C144 0.931 . S
H161 C145 0.930 . S
H162 C200 0.930 . S
H163 C141 0.929 . S
H164 C169 0.931 . S
H165 C170 0.930 . S
N166 Gd146 2.622 . S
N166 C167 1.369 1_556 S
N166 C168 1.338 . S
C167 N166 1.369 1_554 S
C167 C171 1.415 . S
C167 C174 1.422 . S
C168 H159 0.929 . S
C168 N166 1.338 . S
C168 C170 1.378 . S
C169 H164 0.931 . S
C169 C170 1.348 1_554 S
C169 C171 1.413 . S
C170 H165 0.930 . S
C170 C168 1.378 . S
C170 C169 1.348 1_556 S
C171 C167 1.415 . S
C171 C169 1.413 . S
C171 C201 1.437 . S
H172 C201 0.929 . S
N173 Gd146 2.570 1_554 S
N173 C174 1.359 . S
N173 C177 1.343 . S
C174 C167 1.422 . S
C174 N173 1.359 . S
C174 C176 1.421 . S
C175 C176 1.422 . S
C175 C178 1.321 . S
C175 H202 0.931 . S
C176 C174 1.421 . S
C176 C175 1.422 . S
C176 C200 1.417 . S
C177 H154 0.931 . S
C177 N173 1.343 . S
C177 C178 1.390 . S
C178 H156 0.930 . S
C178 C175 1.321 . S
C178 C177 1.390 . S
O179 Gd147 2.386 . S
O179 C191 1.265 1_554 S
O180 Gd146 2.353 . S
O180 C191 1.242 . S
O181 Gd146 2.468 . S
O181 C199 1.263 . S
O182 Gd146 2.427 . S
O182 C199 1.252 . S
O183 Gd147 2.307 . S
O183 C192 1.261 . S
O184 Gd146 2.388 1_554 S
O184 C192 1.252 . S
O185 Gd146 2.386 1_554 S
O185 C203 1.265 . S
O186 Gd147 2.353 . S
O186 C203 1.242 . S
O187 Gd147 2.468 . S
O187 C211 1.263 . S
O188 Gd147 2.427 . S
O188 C211 1.252 . S
O189 Gd146 2.307 1_554 S
O189 C204 1.261 . S
O190 Gd147 2.388 . S
O190 C204 1.252 . S
C191 O179 1.265 1_556 S
C191 O180 1.242 . S
C192 O183 1.261 . S
C192 O184 1.252 . S
C193 C196 1.394 . S
C193 C198 1.370 . S
C193 C199 1.500 . S
C194 C197 1.383 . S
C194 C198 1.395 . S
C195 C196 1.396 . S
C195 C197 1.365 . S
C195 H212 0.929 . S
C196 C193 1.394 . S
C196 C195 1.396 . S
C196 H213 0.930 . S
C197 C194 1.383 . S
C197 C195 1.365 . S
C197 H214 0.931 . S
C198 C193 1.370 . S
C198 C194 1.395 . S
C198 H215 0.930 . S
C199 Gd146 2.805 . S
C199 O181 1.263 . S
C199 O182 1.252 . S
C199 C193 1.500 . S
C200 H162 0.930 . S
C200 C176 1.417 . S
C200 C201 1.329 . S
C201 C171 1.437 . S
C201 H172 0.929 . S
C201 C200 1.329 . S
H202 C175 0.931 . S
C203 O185 1.265 . S
C203 O186 1.242 . S
C204 O189 1.261 . S
C204 O190 1.252 . S
C205 C208 1.394 . S
C205 C210 1.370 . S
C205 C211 1.500 . S
C206 C209 1.383 . S
C206 C210 1.395 . S
C207 C208 1.396 . S
C207 C209 1.365 . S
C207 H216 0.929 . S
C208 C205 1.394 . S
C208 C207 1.396 . S
C208 H217 0.930 . S
C209 C206 1.383 . S
C209 C207 1.365 . S
C209 H218 0.931 . S
C210 C205 1.370 . S
C210 C206 1.395 . S
C210 H219 0.930 . S
C211 Gd147 2.805 . S
C211 O187 1.263 . S
C211 O188 1.252 . S
C211 C205 1.500 . S
H212 C195 0.929 . S
H213 C196 0.930 . S
H214 C197 0.931 . S
H215 C198 0.930 . S
H216 C207 0.929 . S
H217 C208 0.930 . S
H218 C209 0.931 . S
H219 C210 0.930 . S
H220 C226 0.930 . S
H221 C230 0.930 . S
H222 C235 0.929 . S
H223 C233 0.929 . S
H224 C228 0.929 . S
H225 C234 0.929 . S
C226 H220 0.930 . S
C226 C227 1.367 . S
C226 C234 1.378 . S
C227 C226 1.367 . S
C227 C235 1.433 . S
C228 H224 0.929 . S
C228 C230 1.378 . S
C228 C232 1.350 . S
C229 C232 1.463 . S
C229 C234 1.350 . S
C229 N237 1.427 . S
C230 H221 0.930 . S
C230 C228 1.378 . S
C230 C231 1.367 . S
C231 C230 1.367 . S
C231 C233 1.433 . S
C232 C228 1.350 . S
C232 C229 1.463 . S
C232 N236 1.427 . S
C233 H223 0.929 . S
C233 C231 1.433 . S
C233 N236 1.384 . S
C234 H225 0.929 . S
C234 C226 1.378 . S
C234 C229 1.350 . S
C235 H222 0.929 . S
C235 C227 1.433 . S
C235 N237 1.384 . S
N236 C232 1.427 . S
N236 C233 1.384 . S
N237 C229 1.427 . S
N237 C235 1.384 . S
H238 C244 0.930 . S
H239 C248 0.930 . S
H240 C253 0.929 . S
H241 C251 0.929 . S
H242 C246 0.929 . S
H243 C252 0.929 . S
C244 H238 0.930 . S
C244 C245 1.367 . S
C244 C252 1.378 . S
C245 C244 1.367 . S
C245 C253 1.433 . S
C246 H242 0.929 . S
C246 C248 1.378 . S
C246 C250 1.350 . S
C247 C250 1.463 . S
C247 C252 1.350 . S
C247 N255 1.427 . S
C248 H239 0.930 . S
C248 C246 1.378 . S
C248 C249 1.367 . S
C249 C248 1.367 . S
C249 C251 1.433 . S
C250 C246 1.350 . S
C250 C247 1.463 . S
C250 N254 1.427 . S
C251 H241 0.929 . S
C251 C249 1.433 . S
C251 N254 1.384 . S
C252 H243 0.929 . S
C252 C244 1.378 . S
C252 C247 1.350 . S
C253 H240 0.929 . S
C253 C245 1.433 . S
C253 N255 1.384 . S
N254 C250 1.427 . S
N254 C251 1.384 . S
N255 C247 1.427 . S
N255 C253 1.384 . S
H256 C262 0.930 . S
H257 C266 0.930 . S
H258 C271 0.929 . S
H259 C269 0.929 . S
H260 C264 0.929 . S
H261 C270 0.929 . S
C262 H256 0.930 . S
C262 C263 1.367 . S
C262 C270 1.378 . S
C263 C262 1.367 . S
C263 C271 1.433 . S
C264 H260 0.929 . S
C264 C266 1.378 . S
C264 C268 1.350 . S
C265 C268 1.463 . S
C265 C270 1.350 . S
C265 N273 1.427 . S
C266 H257 0.930 . S
C266 C264 1.378 . S
C266 C267 1.367 . S
C267 C266 1.367 . S
C267 C269 1.433 . S
C268 C264 1.350 . S
C268 C265 1.463 . S
C268 N272 1.427 . S
C269 H259 0.929 . S
C269 C267 1.433 . S
C269 N272 1.384 . S
C270 H261 0.929 . S
C270 C262 1.378 . S
C270 C265 1.350 . S
C271 H258 0.929 . S
C271 C263 1.433 . S
C271 N273 1.384 . S
N272 C268 1.427 . S
N272 C269 1.384 . S
N273 C265 1.427 . S
N273 C271 1.384 . S
H274 C280 0.930 . S
H275 C284 0.930 . S
H276 C289 0.929 . S
H277 C287 0.929 . S
H278 C282 0.929 . S
H279 C288 0.929 . S
C280 H274 0.930 . S
C280 C281 1.367 . S
C280 C288 1.378 . S
C281 C280 1.367 . S
C281 C289 1.433 . S
C282 H278 0.929 . S
C282 C284 1.378 . S
C282 C286 1.350 . S
C283 C286 1.463 . S
C283 C288 1.350 . S
C283 N291 1.427 . S
C284 H275 0.930 . S
C284 C282 1.378 . S
C284 C285 1.367 . S
C285 C284 1.367 . S
C285 C287 1.433 . S
C286 C282 1.350 . S
C286 C283 1.463 . S
C286 N290 1.427 . S
C287 H277 0.929 . S
C287 C285 1.433 . S
C287 N290 1.384 . S
C288 H279 0.929 . S
C288 C280 1.378 . S
C288 C283 1.350 . S
C289 H276 0.929 . S
C289 C281 1.433 . S
C289 N291 1.384 . S
N290 C286 1.427 . S
N290 C287 1.384 . S
N291 C283 1.427 . S
N291 C289 1.384 . S
H292 C298 0.930 . S
H293 C302 0.930 . S
H294 C307 0.929 . S
H295 C305 0.929 . S
H296 C300 0.929 . S
H297 C306 0.929 . S
C298 H292 0.930 . S
C298 C299 1.367 . S
C298 C306 1.378 . S
C299 C298 1.367 . S
C299 C307 1.433 . S
C300 H296 0.929 . S
C300 C302 1.378 . S
C300 C304 1.350 . S
C301 C304 1.463 . S
C301 C306 1.350 . S
C301 N309 1.427 . S
C302 H293 0.930 . S
C302 C300 1.378 . S
C302 C303 1.367 . S
C303 C302 1.367 . S
C303 C305 1.433 . S
C304 C300 1.350 . S
C304 C301 1.463 . S
C304 N308 1.427 . S
C305 H295 0.929 . S
C305 C303 1.433 . S
C305 N308 1.384 . S
C306 H297 0.929 . S
C306 C298 1.378 . S
C306 C301 1.350 . S
C307 H294 0.929 . S
C307 C299 1.433 . S
C307 N309 1.384 . S
N308 C304 1.427 . S
N308 C305 1.384 . S
N309 C301 1.427 . S
N309 C307 1.384 . S
H310 C316 0.930 . S
H311 C320 0.930 . S
H312 C325 0.929 . S
H313 C323 0.929 . S
H314 C318 0.929 . S
H315 C324 0.929 . S
C316 H310 0.930 . S
C316 C317 1.367 . S
C316 C324 1.378 . S
C317 C316 1.367 . S
C317 C325 1.433 . S
C318 H314 0.929 . S
C318 C320 1.378 . S
C318 C322 1.350 . S
C319 C322 1.463 . S
C319 C324 1.350 . S
C319 N327 1.427 . S
C320 H311 0.930 . S
C320 C318 1.378 . S
C320 C321 1.367 . S
C321 C320 1.367 . S
C321 C323 1.433 . S
C322 C318 1.350 . S
C322 C319 1.463 . S
C322 N326 1.427 . S
C323 H313 0.929 . S
C323 C321 1.433 . S
C323 N326 1.384 . S
C324 H315 0.929 . S
C324 C316 1.378 . S
C324 C319 1.350 . S
C325 H312 0.929 . S
C325 C317 1.433 . S
C325 N327 1.384 . S
N326 C322 1.427 . S
N326 C323 1.384 . S
N327 C319 1.427 . S
N327 C325 1.384 . S
H328 C334 0.930 . S
H329 C338 0.930 . S
H330 C343 0.929 . S
H331 C341 0.929 . S
H332 C336 0.929 . S
H333 C342 0.929 . S
C334 H328 0.930 . S
C334 C335 1.367 . S
C334 C342 1.378 . S
C335 C334 1.367 . S
C335 C343 1.433 . S
C336 H332 0.929 . S
C336 C338 1.378 . S
C336 C340 1.350 . S
C337 C340 1.463 . S
C337 C342 1.350 . S
C337 N345 1.427 . S
C338 H329 0.930 . S
C338 C336 1.378 . S
C338 C339 1.367 . S
C339 C338 1.367 . S
C339 C341 1.433 . S
C340 C336 1.350 . S
C340 C337 1.463 . S
C340 N344 1.427 . S
C341 H331 0.929 . S
C341 C339 1.433 . S
C341 N344 1.384 . S
C342 H333 0.929 . S
C342 C334 1.378 . S
C342 C337 1.350 . S
C343 H330 0.929 . S
C343 C335 1.433 . S
C343 N345 1.384 . S
N344 C340 1.427 . S
N344 C341 1.384 . S
N345 C337 1.427 . S
N345 C343 1.384 . S
H346 C352 0.930 . S
H347 C356 0.930 . S
H348 C361 0.929 . S
H349 C359 0.929 . S
H350 C354 0.929 . S
H351 C360 0.929 . S
C352 H346 0.930 . S
C352 C353 1.367 . S
C352 C360 1.378 . S
C353 C352 1.367 . S
C353 C361 1.433 . S
C354 H350 0.929 . S
C354 C356 1.378 . S
C354 C358 1.350 . S
C355 C358 1.463 . S
C355 C360 1.350 . S
C355 N363 1.427 . S
C356 H347 0.930 . S
C356 C354 1.378 . S
C356 C357 1.367 . S
C357 C356 1.367 . S
C357 C359 1.433 . S
C358 C354 1.350 . S
C358 C355 1.463 . S
C358 N362 1.427 . S
C359 H349 0.929 . S
C359 C357 1.433 . S
C359 N362 1.384 . S
C360 H351 0.929 . S
C360 C352 1.378 . S
C360 C355 1.350 . S
C361 H348 0.929 . S
C361 C353 1.433 . S
C361 N363 1.384 . S
N362 C358 1.427 . S
N362 C359 1.384 . S
N363 C355 1.427 . S
N363 C361 1.384 . S
H364 C370 0.930 . S
H365 C374 0.930 . S
H366 C379 0.929 . S
H367 C377 0.929 . S
H368 C372 0.929 . S
H369 C378 0.929 . S
C370 H364 0.930 . S
C370 C371 1.367 . S
C370 C378 1.378 . S
C371 C370 1.367 . S
C371 C379 1.433 . S
C372 H368 0.929 . S
C372 C374 1.378 . S
C372 C376 1.350 . S
C373 C376 1.463 . S
C373 C378 1.350 . S
C373 N381 1.427 . S
C374 H365 0.930 . S
C374 C372 1.378 . S
C374 C375 1.367 . S
C375 C374 1.367 . S
C375 C377 1.433 . S
C376 C372 1.350 . S
C376 C373 1.463 . S
C376 N380 1.427 . S
C377 H367 0.929 . S
C377 C375 1.433 . S
C377 N380 1.384 . S
C378 H369 0.929 . S
C378 C370 1.378 . S
C378 C373 1.350 . S
C379 H366 0.929 . S
C379 C371 1.433 . S
C379 N381 1.384 . S
N380 C376 1.427 . S
N380 C377 1.384 . S
N381 C373 1.427 . S
N381 C379 1.384 . S
H382 C388 0.930 1_554 S
H383 C392 0.930 . S
H384 C397 0.929 . S
H385 C395 0.929 . S
H386 C390 0.929 . S
H387 C396 0.929 . S
C388 H382 0.930 1_556 S
C388 C389 1.367 . S
C388 C396 1.378 . S
C389 C388 1.367 . S
C389 C397 1.433 . S
C390 H386 0.929 . S
C390 C392 1.378 . S
C390 C394 1.350 . S
C391 C394 1.463 . S
C391 C396 1.350 . S
C391 N399 1.427 . S
C392 H383 0.930 . S
C392 C390 1.378 . S
C392 C393 1.367 . S
C393 C392 1.367 . S
C393 C395 1.433 . S
C394 C390 1.350 . S
C394 C391 1.463 . S
C394 N398 1.427 . S
C395 H385 0.929 . S
C395 C393 1.433 . S
C395 N398 1.384 . S
C396 H387 0.929 . S
C396 C388 1.378 . S
C396 C391 1.350 . S
C397 H384 0.929 . S
C397 C389 1.433 . S
C397 N399 1.384 . S
N398 C394 1.427 . S
N398 C395 1.384 . S
N399 C391 1.427 . S
N399 C397 1.384 . S
H400 C406 0.930 . S
H401 C410 0.930 . S
H402 C415 0.929 . S
H403 C413 0.929 . S
H404 C408 0.929 . S
H405 C414 0.929 . S
C406 H400 0.930 . S
C406 C407 1.367 . S
C406 C414 1.378 . S
C407 C406 1.367 . S
C407 C415 1.433 . S
C408 H404 0.929 . S
C408 C410 1.378 . S
C408 C412 1.350 . S
C409 C412 1.463 . S
C409 C414 1.350 . S
C409 N417 1.427 . S
C410 H401 0.930 . S
C410 C408 1.378 . S
C410 C411 1.367 . S
C411 C410 1.367 . S
C411 C413 1.433 . S
C412 C408 1.350 . S
C412 C409 1.463 . S
C412 N416 1.427 . S
C413 H403 0.929 . S
C413 C411 1.433 . S
C413 N416 1.384 . S
C414 H405 0.929 . S
C414 C406 1.378 . S
C414 C409 1.350 . S
C415 H402 0.929 . S
C415 C407 1.433 . S
C415 N417 1.384 . S
N416 C412 1.427 . S
N416 C413 1.384 . S
N417 C409 1.427 . S
N417 C415 1.384 . S
H418 C424 0.930 . S
H419 C428 0.930 1_545 S
H420 C433 0.929 . S
H421 C431 0.929 . S
H422 C426 0.929 . S
H423 C432 0.929 . S
C424 H418 0.930 . S
C424 C425 1.367 . S
C424 C432 1.378 . S
C425 C424 1.367 . S
C425 C433 1.433 . S
C426 H422 0.929 . S
C426 C428 1.378 . S
C426 C430 1.350 . S
C427 C430 1.463 . S
C427 C432 1.350 . S
C427 N435 1.427 . S
C428 H419 0.930 1_565 S
C428 C426 1.378 . S
C428 C429 1.367 . S
C429 C428 1.367 . S
C429 C431 1.433 . S
C430 C426 1.350 . S
C430 C427 1.463 . S
C430 N434 1.427 . S
C431 H421 0.929 . S
C431 C429 1.433 . S
C431 N434 1.384 . S
C432 H423 0.929 . S
C432 C424 1.378 . S
C432 C427 1.350 . S
C433 H420 0.929 . S
C433 C425 1.433 . S
C433 N435 1.384 . S
N434 C430 1.427 . S
N434 C431 1.384 . S
N435 C427 1.427 . S
N435 C433 1.384 . S
C231 C120 1.648 . S
C227 C43 1.578 . S
C245 C4 1.606 . S
C249 C192 1.639 . S
C263 C17 1.592 . S
C267 C108 1.656 . S
C281 C30 1.640 . S
C285 C204 1.638 . S
C303 C110 1.406 . S
C299 C9 1.571 . S
C321 C191 1.669 . S
C317 C21 1.668 . S
C335 C34 1.622 . S
C339 C107 1.627 . S
C353 C48 1.583 . S
C357 C194 1.397 . S
C375 C206 1.409 . S
C371 C22 1.584 . S
C393 C122 1.395 . S
C389 C35 1.574 1_556 S
C411 C203 1.672 . S
C407 C47 1.664 . S
C425 C8 1.614 . S
C429 C119 1.628 . S
