# Generated by pormake.
# Topology pth, (4,4)-cn, num edge types: 1
# Building blocks:
#     Node 0, Type 0, BuildingBlock: UXUYUI_clean_sbu_0, # of connection points: 4
#     Node 1, Type 0, BuildingBlock: UXUYUI_clean_sbu_0, # of connection points: 4
#     Node 2, Type 0, BuildingBlock: UXUYUI_clean_sbu_0, # of connection points: 4
#     Node 3, Type 1, BuildingBlock: MIFKUJ_clean_linker_1, # of connection points: 4
#     Node 4, Type 1, BuildingBlock: MIFKUJ_clean_linker_1, # of connection points: 4
#     Node 5, Type 1, BuildingBlock: MIFKUJ_clean_linker_1, # of connection points: 4
#     Edge 6, Type (0, 1), BuildingBlock: TEMPAE_clean_linker_10, # of connection points: 2
#     Edge 7, Type (0, 1), BuildingBlock: TEMPAE_clean_linker_10, # of connection points: 2
#     Edge 8, Type (0, 1), BuildingBlock: TEMPAE_clean_linker_10, # of connection points: 2
#     Edge 9, Type (0, 1), BuildingBlock: TEMPAE_clean_linker_10, # of connection points: 2
#     Edge 10, Type (0, 1), BuildingBlock: TEMPAE_clean_linker_10, # of connection points: 2
#     Edge 11, Type (0, 1), BuildingBlock: TEMPAE_clean_linker_10, # of connection points: 2
#     Edge 12, Type (0, 1), BuildingBlock: TEMPAE_clean_linker_10, # of connection points: 2
#     Edge 13, Type (0, 1), BuildingBlock: TEMPAE_clean_linker_10, # of connection points: 2
#     Edge 14, Type (0, 1), BuildingBlock: TEMPAE_clean_linker_10, # of connection points: 2
#     Edge 15, Type (0, 1), BuildingBlock: TEMPAE_clean_linker_10, # of connection points: 2
#     Edge 16, Type (0, 1), BuildingBlock: TEMPAE_clean_linker_10, # of connection points: 2
#     Edge 17, Type (0, 1), BuildingBlock: TEMPAE_clean_linker_10, # of connection points: 2
# Relax obj value: 0.075
# Max RMSD: 0.209
# Mean RMSD: 0.121
data_MOF--net-pth--node1-UXUYUI_clean_sbu_0--node2-MIFKUJ_clean_linker_1--edge1-TEMPAE_clean_linker_10
_symmetry_space_group_name_H-M    P1
_symmetry_Int_Tables_number       1
_symmetry_cell_setting            triclinic
loop_
_symmetry_equiv_pos_as_xyz
'x, y, z'
_cell_length_a     35.469642
_cell_length_b     35.494279
_cell_length_c     76.521668
_cell_angle_alpha  90.019406
_cell_angle_beta   89.995919
_cell_angle_gamma 120.00166
loop_
_atom_site_label
_atom_site_type_symbol
_atom_site_fract_x
_atom_site_fract_y
_atom_site_fract_z
_atom_type_partial_charge
Li0 Li 0.03872 0.0266 0.02961 0.0
Li1 Li 0.99031 0.03007 0.05146 0.0
Li2 Li 0.00824 0.97018 0.05277 0.0
Li3 Li 0.95896 0.97078 0.03068 0.0
C4 C 0.09018 0.05295 0.06089 0.0
N5 N 0.17557 0.09069 0.07211 0.0
C6 C 0.11194 0.09591 0.0669 0.0
C7 C 0.11179 0.02907 0.06078 0.0
C8 C 0.15512 0.11445 0.07245 0.0
C9 C 0.15495 0.04874 0.06646 0.0
C10 C 0.98061 0.06807 0.02288 0.0
C11 C 0.93275 0.09784 0.02089 0.0
N12 N 0.96766 0.13782 0.0177 0.0
C13 C 0.01599 0.10938 0.01944 0.0
C14 C 0.93861 0.06214 0.02349 0.0
C15 C 0.00878 0.14426 0.01691 0.0
C16 C 0.0711 0.06031 0.99698 0.0
N17 N 0.08455 0.06061 0.01363 0.0
C18 C 0.15743 0.11418 0.00614 0.0
C19 C 0.12694 0.0863 0.01833 0.0
C20 C 0.14406 0.11583 0.98902 0.0
C21 C 0.1004 0.08788 0.9844 0.0
H22 H 0.03715 0.03963 0.99363 0.0
H23 H 0.13714 0.08625 0.03157 0.0
C24 C 0.94911 0.05615 0.07689 0.0
N25 N 0.98229 0.07007 0.0652 0.0
C26 C 0.94608 0.08593 0.08793 0.0
C27 C 0.01109 0.14362 0.0745 0.0
C28 C 0.01279 0.11283 0.06375 0.0
C29 C 0.97778 0.13023 0.08697 0.0
H30 H 0.9257 0.02186 0.07799 0.0
H31 H 0.03906 0.12294 0.05448 0.0
C32 C 0.0292 0.93994 0.02135 0.0
N33 N 0.06873 0.89466 0.00938 0.0
C34 C 0.00398 0.89761 0.01493 0.0
C35 C 0.07455 0.95953 0.02134 0.0
C36 C 0.02456 0.87516 0.00905 0.0
C37 C 0.09392 0.93604 0.01533 0.0
C38 C 0.90855 0.93808 0.0591 0.0
C39 C 0.89606 0.89724 0.06623 0.0
C40 C 0.87676 0.94854 0.05449 0.0
C41 C 0.85182 0.86722 0.06836 0.0
C42 C 0.83286 0.91763 0.05681 0.0
N43 N 0.8214 0.87793 0.06362 0.0
C44 C 0.03356 0.94584 0.08395 0.0
C45 C 0.0004 0.89028 0.06261 0.0
C46 C 0.03614 0.91692 0.09561 0.0
N47 N 0.01608 0.93211 0.06779 0.0
C48 C 0.00217 0.86029 0.07383 0.0
C49 C 0.01988 0.87339 0.09063 0.0
H50 H 0.04468 0.97902 0.08791 0.0
H51 H 0.98519 0.87981 0.04996 0.0
C52 C 0.89803 0.94756 0.00287 0.0
N53 N 0.91066 0.93254 0.01671 0.0
C54 C 0.86504 0.91836 0.99174 0.0
C55 C 0.85821 0.85913 0.00963 0.0
C56 C 0.89157 0.88934 0.02024 0.0
C57 C 0.84498 0.87337 0.99494 0.0
H58 H 0.91445 0.98207 0.00017 0.0
H59 H 0.90301 0.87825 0.03107 0.0
O60 O 0.0478 0.0343 0.05546 0.0
O61 O 0.98703 0.03356 0.02549 0.0
O62 O 0.0095 0.96244 0.02705 0.0
O63 O 0.95168 0.96769 0.05669 0.0
H64 H 0.09577 0.11485 0.06725 0.0
H65 H 0.09546 0.99566 0.05643 0.0
H66 H 0.17237 0.14772 0.07706 0.0
H67 H 0.17204 0.03063 0.0664 0.0
H68 H 0.90042 0.09374 0.02139 0.0
H69 H 0.04876 0.11464 0.01897 0.0
H70 H 0.91081 0.03031 0.02588 0.0
H71 H 0.0359 0.17646 0.01436 0.0
H72 H 0.19072 0.13549 0.01028 0.0
H73 H 0.08889 0.08785 0.97129 0.0
H74 H 0.92014 0.07424 0.0975 0.0
H75 H 0.03587 0.17753 0.07319 0.0
H76 H 0.96887 0.88212 0.01461 0.0
H77 H 0.09467 0.99263 0.02577 0.0
H78 H 0.00541 0.84225 0.00418 0.0
H79 H 0.12899 0.95078 0.01532 0.0
H80 H 0.92023 0.88873 0.07001 0.0
H81 H 0.8859 0.98013 0.04912 0.0
H82 H 0.84168 0.8354 0.07377 0.0
H83 H 0.8079 0.9252 0.0532 0.0
H84 H 0.04944 0.92815 0.10855 0.0
H85 H 0.98941 0.82707 0.06946 0.0
H86 H 0.85642 0.93084 0.98044 0.0
H87 H 0.84334 0.8249 0.0128 0.0
Li88 Li 0.99124 0.96112 0.36521 0.0
Li89 Li 0.03999 0.01226 0.38711 0.0
Li90 Li 0.95988 0.98736 0.38791 0.0
Li91 Li 0.00823 0.03855 0.36584 0.0
C92 C 0.97135 0.91152 0.39714 0.0
N93 N 0.93421 0.82772 0.41004 0.0
C94 C 0.99769 0.89567 0.40353 0.0
C95 C 0.92609 0.88504 0.39767 0.0
C96 C 0.97831 0.85312 0.40989 0.0
C97 C 0.90794 0.8427 0.40414 0.0
C98 C 0.0906 0.02845 0.35882 0.0
C99 C 0.16639 0.08347 0.36091 0.0
N100 N 0.17765 0.05468 0.35454 0.0
C101 C 0.10289 -0.00049 0.35214 0.0
C102 C 0.12254 0.07088 0.3631 0.0
C103 C 0.14709 0.01336 0.35013 0.0
C104 C 0.96685 0.91181 0.33411 0.0
N105 N 0.98341 0.91478 0.3504 0.0
C106 C 0.99513 0.85533 0.34456 0.0
C107 C 0.99763 0.88753 0.35575 0.0
C108 C 0.97819 0.85141 0.32764 0.0
C109 C 0.96367 0.88002 0.32249 0.0
H110 H 0.95671 0.93459 0.33007 0.0
H111 H 0.01233 0.89173 0.36847 0.0
C112 C 0.09994 0.05233 0.41499 0.0
N113 N 0.0885 0.02413 0.40135 0.0
C114 C 0.1334 0.05813 0.42629 0.0
C115 C 0.14308 0.00649 0.40904 0.0
C116 C 0.10912 0.00122 0.39827 0.0
C117 C 0.15526 0.03488 0.42337 0.0
H118 H 0.08241 0.06952 0.41732 0.0
H119 H 0.09841 0.97797 0.38769 0.0
C120 C 0.9091 0.95988 0.35637 0.0
N121 N 0.82447 0.90964 0.34463 0.0
C122 C 0.88707 0.97963 0.34917 0.0
C123 C 0.88818 0.91451 0.35742 0.0
C124 C 0.84426 0.95369 0.34336 0.0
C125 C 0.84538 0.8897 0.35145 0.0
C126 C 0.01693 0.08737 0.39377 0.0
C127 C 0.98125 0.09298 0.39699 0.0
C128 C 0.05866 0.12372 0.39272 0.0
C129 C 0.98789 0.13503 0.39885 0.0
C130 C 0.06395 0.16523 0.39465 0.0
N131 N 0.02875 0.16998 0.39763 0.0
C132 C 0.92634 0.98854 0.42035 0.0
C133 C 0.87142 0.95916 0.39862 0.0
C134 C 0.8965 0.98661 0.43272 0.0
N135 N 0.91358 0.97563 0.40362 0.0
C136 C 0.84041 0.95632 0.41059 0.0
C137 C 0.85303 0.97096 0.4278 0.0
H138 H 0.96014 0.00171 0.42393 0.0
H139 H 0.86182 0.9493 0.38529 0.0
C140 C 0.04934 0.10541 0.34025 0.0
N141 N 0.01563 0.08566 0.35168 0.0
C142 C 0.05211 0.13772 0.329 0.0
C143 C 0.98573 0.12891 0.34167 0.0
C144 C 0.98428 0.09689 0.35264 0.0
C145 C 0.01964 0.14937 0.32948 0.0
H146 H 0.07345 0.09534 0.33955 0.0
H147 H 0.95763 0.08035 0.36172 0.0
O148 O 0.98986 0.95326 0.39101 0.0
O149 O 0.04751 0.01531 0.36109 0.0
O150 O 0.95111 0.9849 0.36207 0.0
O151 O 0.01106 0.04648 0.39176 0.0
H152 H 0.03276 0.91588 0.40346 0.0
H153 H 0.90512 0.89707 0.39329 0.0
H154 H -0.00167 0.84033 0.41473 0.0
H155 H 0.87296 0.82181 0.40455 0.0
H156 H 0.19146 0.11614 0.36428 0.0
H157 H 0.07861 0.96666 0.34863 0.0
H158 H 0.11355 0.09376 0.36813 0.0
H159 H 0.15708 0.99124 0.34507 0.0
H160 H 0.00767 0.83468 0.34892 0.0
H161 H 0.95024 0.87803 0.30959 0.0
H162 H 0.14188 0.08024 0.43725 0.0
H163 H 0.15861 0.98736 0.40657 0.0
H164 H 0.90276 0.01461 0.34807 0.0
H165 H 0.90479 0.89853 0.36267 0.0
H166 H 0.8268 0.96859 0.33783 0.0
H167 H 0.82883 0.85458 0.35222 0.0
H168 H 0.9487 0.06524 0.3978 0.0
H169 H 0.08667 0.11993 0.39046 0.0
H170 H 0.96054 0.13988 0.40122 0.0
H171 H 0.09605 0.19367 0.39379 0.0
H172 H 0.90744 0.99785 0.4459 0.0
H173 H 0.8073 0.94445 0.40623 0.0
H174 H 0.07854 0.15239 0.31966 0.0
H175 H 0.96035 0.13731 0.34264 0.0
Li176 Li 0.02208 0.98211 0.69625 0.0
Li177 Li 0.02873 0.0347 0.71832 0.0
Li178 Li 0.97295 0.95806 0.72093 0.0
Li179 Li 0.96768 0.00494 0.69891 0.0
C180 C 0.0441 0.96233 0.73415 0.0
N181 N 0.05563 0.91752 0.76119 0.0
C182 C 0.0582 0.98199 0.75051 0.0
C183 C 0.03619 0.92003 0.7315 0.0
C184 C 0.06378 0.95876 0.76402 0.0
C185 C 0.04209 0.89786 0.74535 0.0
C186 C 0.06411 0.08132 0.69047 0.0
C187 C 0.09675 0.15923 0.69275 0.0
N188 N 0.13581 0.16383 0.68803 0.0
C189 C 0.10452 0.08681 0.68557 0.0
C190 C 0.06008 0.11778 0.69401 0.0
C191 C 0.1404 0.12881 0.68443 0.0
C192 C 0.04905 0.9711 0.66287 0.0
N193 N 0.05496 0.96915 0.68032 0.0
C194 C 0.11573 0.95907 0.67517 0.0
C195 C 0.08725 0.96296 0.68662 0.0
C196 C 0.11082 0.96141 0.65703 0.0
C197 C 0.07631 0.96665 0.65094 0.0
H198 H 0.02403 0.97751 0.65823 0.0
H199 H 0.09205 0.96289 0.70057 0.0
C200 C 0.05933 0.10718 0.74154 0.0
N201 N 0.07058 0.0832 0.73122 0.0
C202 C 0.09065 0.14023 0.75205 0.0
C203 C 0.14436 0.12345 0.74086 0.0
C204 C 0.11211 0.09087 0.73059 0.0
C205 C 0.13367 0.1482 0.75198 0.0
H206 H 0.02589 0.09989 0.74196 0.0
H207 H 0.11988 0.07087 0.72238 0.0
C208 C 0.94993 0.9169 0.68278 0.0
N209 N 0.93681 0.86116 0.65529 0.0
C210 C 0.93587 0.92344 0.66658 0.0
C211 C 0.95697 0.88183 0.68504 0.0
C212 C 0.92949 0.89492 0.65284 0.0
C213 C 0.95029 0.85409 0.67096 0.0
C214 C 0.93313 0.01709 0.72702 0.0
C215 C 0.89269 0.98294 0.73233 0.0
C216 C 0.93784 0.05781 0.72336 0.0
C217 C 0.85745 0.99004 0.73375 0.0
C218 C 0.90179 0.06356 0.7249 0.0
N219 N 0.86268 0.02984 0.73001 0.0
C220 C 0.94578 0.92093 0.75433 0.0
C221 C 0.9076 0.87385 0.73075 0.0
C222 C 0.91884 0.88947 0.76639 0.0
N223 N 0.93975 0.91257 0.73691 0.0
C224 C 0.87941 0.8417 0.74234 0.0
C225 C 0.88449 0.84943 0.76046 0.0
H226 H 0.97076 0.95252 0.75884 0.0
H227 H 0.90278 0.86855 0.71683 0.0
C228 C 0.93994 0.04797 0.67513 0.0
N229 N 0.92692 0.01343 0.68603 0.0
C230 C 0.90948 0.05141 0.66469 0.0
C231 C 0.85295 0.98405 0.67714 0.0
C232 C 0.88446 0.98182 0.68724 0.0
C233 C 0.86538 0.01894 0.66553 0.0
H234 H 0.97403 0.07229 0.67426 0.0
H235 H 0.8753 0.95424 0.69575 0.0
O236 O 0.03802 0.98435 0.72079 0.0
O237 O 0.02882 0.04046 0.69205 0.0
O238 O 0.95675 0.94466 0.69635 0.0
O239 O 0.96782 0.01059 0.72521 0.0
H240 H 0.06426 0.01462 0.75282 0.0
H241 H 0.02544 0.90444 0.71891 0.0
H242 H 0.07444 0.97347 0.77677 0.0
H243 H 0.03589 0.86503 0.74351 0.0
H244 H 0.09417 0.18772 0.69557 0.0
H245 H 0.10829 0.05898 0.68283 0.0
H246 H 0.02908 0.11408 0.69789 0.0
H247 H 0.17192 0.13354 0.68073 0.0
H248 H 0.14236 0.9561 0.68054 0.0
H249 H 0.07087 0.9682 0.6371 0.0
H250 H 0.08101 0.1583 0.76058 0.0
H251 H 0.17722 0.1289 0.74024 0.0
H252 H 0.93041 0.9505 0.66457 0.0
H253 H 0.96765 0.87621 0.6975 0.0
H254 H 0.91884 0.89971 0.64021 0.0
H255 H 0.95581 0.82693 0.6725 0.0
H256 H 0.8884 0.95119 0.73517 0.0
H257 H 0.96887 0.08452 0.71917 0.0
H258 H 0.8259 0.96385 0.73776 0.0
H259 H 0.90489 0.09481 0.72199 0.0
H260 H 0.92443 0.89683 0.7802 0.0
H261 H 0.85289 0.81184 0.73709 0.0
H262 H 0.92032 0.07892 0.65595 0.0
H263 H 0.81945 0.95796 0.67797 0.0
H264 H 0.05718 0.47039 0.17348 0.0
H265 H 0.04997 0.41087 0.15503 0.0
H266 H 0.9336 0.32096 0.18308 0.0
H267 H 0.94061 0.38063 0.20139 0.0
H268 H 0.00789 0.50403 0.17644 0.0
H269 H 0.0607 0.43932 0.21576 0.0
H270 H 0.06599 0.38526 0.23377 0.0
H271 H 0.94971 0.3603 0.26157 0.0
H272 H 0.94441 0.41422 0.24347 0.0
H273 H 0.93454 0.52357 0.23934 0.0
H274 H 0.92999 0.57907 0.25667 0.0
H275 H 0.0557 0.67648 0.23705 0.0
H276 H 0.06048 0.62053 0.22003 0.0
H277 H 0.99593 0.49738 0.24106 0.0
H278 H 0.9461 0.56483 0.19801 0.0
H279 H 0.9516 0.62546 0.18079 0.0
H280 H 0.07693 0.65194 0.16132 0.0
H281 H 0.07094 0.59101 0.17841 0.0
C282 C -0.00034 0.42998 0.18892 0.0
C283 C 0.03014 0.43786 0.17568 0.0
C284 C 0.02592 0.40388 0.16512 0.0
C285 C 0.99114 0.36132 0.1676 0.0
C286 C 0.96098 0.35334 0.18101 0.0
C287 C 0.96505 0.38741 0.1915 0.0
C288 C 0.0027 0.46658 0.19942 0.0
C289 C 0.00593 0.50275 0.19059 0.0
C290 C 7e-05 0.46507 0.21788 0.0
C291 C 0.00196 0.43062 0.22817 0.0
C292 C 0.03595 0.42173 0.22554 0.0
C293 C 0.03899 0.39088 0.23586 0.0
C294 C 0.00835 0.36869 0.24912 0.0
C295 C 0.97413 0.37734 0.25161 0.0
C296 C 0.97099 0.40803 0.24124 0.0
C297 C 0.9977 0.56801 0.22834 0.0
C298 C 0.96113 0.55688 0.2388 0.0
C299 C 0.95841 0.58866 0.24857 0.0
C300 C 0.9924 0.63214 0.24814 0.0
C301 C 0.02913 0.64319 0.23771 0.0
C302 C 0.03178 0.61136 0.2279 0.0
C303 C 6e-05 0.53395 0.21803 0.0
C304 C -0.00206 0.4984 0.22691 0.0
C305 C 0.00494 0.53656 0.19967 0.0
C306 C 0.00823 0.57362 0.18954 0.0
C307 C 0.97489 0.58395 0.19013 0.0
C308 C 0.97815 0.61868 0.18033 0.0
C309 C 0.01473 0.64352 0.16969 0.0
C310 C 0.0481 0.6331 0.1692 0.0
C311 C 0.04479 0.59839 0.17898 0.0
H312 H 0.5895 0.05778 0.51072 0.0
H313 H 0.64607 0.05399 0.49382 0.0
H314 H 0.60947 0.92979 0.51752 0.0
H315 H 0.55364 0.93422 0.53456 0.0
H316 H 0.50338 0.00654 0.51071 0.0
H317 H 0.61471 0.05642 0.55226 0.0
H318 H 0.67339 0.06129 0.57058 0.0
H319 H 0.58269 0.93992 0.59544 0.0
H320 H 0.52426 0.93459 0.5767 0.0
H321 H 0.39691 0.92126 0.56787 0.0
H322 H 0.33466 0.91486 0.58437 0.0
H323 H 0.37856 0.05033 0.57443 0.0
H324 H 0.44042 0.05639 0.55762 0.0
H325 H 0.48999 0.98537 0.57498 0.0
H326 H 0.37687 0.94431 0.53114 0.0
H327 H 0.3238 0.95396 0.51438 0.0
H328 H 0.42744 0.07596 0.49435 0.0
H329 H 0.47993 0.06732 0.512 0.0
C330 C 0.5676 0.99647 0.52398 0.0
C331 C 0.59379 0.02982 0.51227 0.0
C332 C 0.62597 0.0275 0.50259 0.0
C333 C 0.6323 0.99157 0.50431 0.0
C334 C 0.60599 0.95826 0.51609 0.0
C335 C 0.57397 0.96069 0.52581 0.0
C336 C 0.53268 0.99819 0.53397 0.0
C337 C 0.5008 0.00254 0.52479 0.0
C338 C 0.52939 0.99313 0.55233 0.0
C339 C 0.56517 0.99491 0.56299 0.0
C340 C 0.60757 0.03051 0.56147 0.0
C341 C 0.64098 0.03351 0.57207 0.0
C342 C 0.63262 0.00106 0.58448 0.0
C343 C 0.59022 0.96521 0.58587 0.0
C344 C 0.55676 0.96226 0.57527 0.0
C345 C 0.423 0.98923 0.56154 0.0
C346 C 0.39299 0.9495 0.56922 0.0
C347 C 0.35746 0.94582 0.57852 0.0
C348 C 0.35198 0.9821 0.58059 0.0
C349 C 0.38228 0.02199 0.57302 0.0
C350 C 0.41742 0.02545 0.56343 0.0
C351 C 0.46036 0.99267 0.55166 0.0
C352 C 0.49271 0.98938 0.56089 0.0
C353 C 0.46481 0.00025 0.53344 0.0
C354 C 0.43233 0.00545 0.52308 0.0
C355 C 0.38806 0.97353 0.5234 0.0
C356 C 0.3578 0.97883 0.51361 0.0
C357 C 0.37129 0.01581 0.50301 0.0
C358 C 0.41575 0.04748 0.50259 0.0
C359 C 0.44591 0.04237 0.51253 0.0
H360 H 0.47376 0.41099 0.8407 0.0
H361 H 0.41632 0.35674 0.82196 0.0
H362 H 0.32358 0.38643 0.84563 0.0
H363 H 0.38098 0.44038 0.86434 0.0
H364 H 0.50698 0.49563 0.84254 0.0
H365 H 0.44218 0.3803 0.88254 0.0
H366 H 0.38602 0.31961 0.89927 0.0
H367 H 0.34775 0.4062 0.92276 0.0
H368 H 0.40456 0.46699 0.90614 0.0
H369 H 0.51393 0.5863 0.9057 0.0
H370 H 0.56595 0.6475 0.92363 0.0
H371 H 0.67026 0.62924 0.90452 0.0
H372 H 0.61808 0.5673 0.88702 0.0
H373 H 0.49065 0.50236 0.90668 0.0
H374 H 0.55565 0.61598 0.86013 0.0
H375 H 0.61787 0.67178 0.84349 0.0
H376 H 0.66212 0.58027 0.83396 0.0
H377 H 0.59952 0.52443 0.85029 0.0
C378 C 0.4316 0.42944 0.85403 0.0
C379 C 0.44102 0.4057 0.84187 0.0
C380 C 0.40822 0.37486 0.83114 0.0
C381 C 0.36542 0.36733 0.83232 0.0
C382 C 0.35606 0.391 0.84459 0.0
C383 C 0.38885 0.42184 0.85529 0.0
C384 C 0.46665 0.46356 0.86491 0.0
C385 C 0.5036 0.49671 0.8566 0.0
C386 C 0.46252 0.46504 0.88325 0.0
C387 C 0.42736 0.42811 0.89301 0.0
C388 C 0.42139 0.38612 0.89117 0.0
C389 C 0.38919 0.35142 0.90071 0.0
C390 C 0.36236 0.35804 0.91234 0.0
C391 C 0.36825 0.40013 0.91409 0.0
C392 C 0.40059 0.43487 0.90456 0.0
C393 C 0.56214 0.57256 0.8948 0.0
C394 C 0.54799 0.59541 0.90539 0.0
C395 C 0.57767 0.63033 0.91561 0.0
C396 C 0.6221 0.64321 0.91534 0.0
C397 C 0.63628 0.62041 0.90473 0.0
C398 C 0.6065 0.58511 0.89469 0.0
C399 C 0.53016 0.5351 0.88421 0.0
C400 C 0.49385 0.5012 0.89262 0.0
C401 C 0.53545 0.53224 0.86603 0.0
C402 C 0.57321 0.56628 0.8564 0.0
C403 C 0.57883 0.60808 0.85446 0.0
C404 C 0.61418 0.63975 0.84498 0.0
C405 C 0.64464 0.63015 0.83755 0.0
C406 C 0.6392 0.58845 0.8397 0.0
C407 C 0.60346 0.55659 0.84891 0.0
C408 C 0.01618 0.19342 0.10728 0.0
C409 C 0.97736 0.16225 0.09932 0.0
C410 C 0.01684 0.22452 0.11875 0.0
C411 C 0.9777 0.22451 0.12234 0.0
C412 C 0.93825 0.1928 0.11455 0.0
C413 C 0.93853 0.16192 0.10314 0.0
C414 C 0.05951 0.25763 0.1269 0.0
C415 C 0.89594 0.19194 0.11804 0.0
C416 C 0.97652 0.28527 0.16301 0.0
C417 C 0.98602 0.32558 0.15601 0.0
C418 C 0.97283 0.25168 0.15217 0.0
C419 C 0.97856 0.25857 0.13391 0.0
C420 C 0.98721 0.29888 0.12674 0.0
C421 C 0.99095 0.33193 0.13788 0.0
C422 C 0.96383 0.20921 0.16029 0.0
C423 C 0.99322 0.30734 0.10731 0.0
H424 H 0.04614 0.1933 0.10462 0.0
H425 H 0.90851 0.13805 0.09693 0.0
H426 H 0.06765 0.29088 0.12287 0.0
H427 H 0.05668 0.25614 0.14135 0.0
H428 H 0.08682 0.25247 0.12309 0.0
H429 H 0.8679 0.16436 0.11137 0.0
H430 H 0.88933 0.18943 0.13229 0.0
H431 H 0.89839 0.22278 0.11351 0.0
H432 H 0.97299 0.28037 0.17703 0.0
H433 H 0.99759 0.36282 0.1324 0.0
H434 H 0.99179 0.20405 0.15792 0.0
H435 H 0.93483 0.18167 0.15412 0.0
H436 H 0.95823 0.20834 0.17461 0.0
H437 H 0.02204 0.30562 0.10279 0.0
H438 H 0.99781 0.33971 0.10376 0.0
H439 H 0.96453 0.28194 0.10015 0.0
C440 C 0.83367 0.00974 0.45021 0.0
C441 C 0.82159 0.97227 0.44021 0.0
C442 C 0.80362 0.01272 0.4612 0.0
C443 C 0.76052 0.97728 0.46227 0.0
C444 C 0.74838 0.93898 0.45251 0.0
C445 C 0.77905 0.937 0.44153 0.0
C446 C 0.81768 0.05423 0.47129 0.0
C447 C 0.70282 0.90038 0.45345 0.0
C448 C 0.6912 0.9725 0.50097 0.0
C449 C 0.66557 0.98835 0.49362 0.0
C450 C 0.7221 0.9685 0.49091 0.0
C451 C 0.72772 0.98094 0.47311 0.0
C452 C 0.70218 0.99718 0.46563 0.0
C453 C 0.67132 0.00054 0.47596 0.0
C454 C 0.74874 0.951 0.49932 0.0
C455 C 0.70734 0.01089 0.4467 0.0
H456 H 0.86636 0.03731 0.44904 0.0
H457 H 0.76974 0.90784 0.43394 0.0
H458 H 0.79852 0.06944 0.46694 0.0
H459 H 0.81114 0.04703 0.48543 0.0
H460 H 0.85283 0.07812 0.46953 0.0
H461 H 0.69914 0.87237 0.44562 0.0
H462 H 0.69412 0.88979 0.46722 0.0
H463 H 0.67917 0.90973 0.44859 0.0
H464 H 0.68737 0.96355 0.51467 0.0
H465 H 0.65118 0.01214 0.4701 0.0
H466 H 0.78386 0.97563 0.49856 0.0
H467 H 0.74402 0.92177 0.49215 0.0
H468 H 0.73993 0.94214 0.51325 0.0
H469 H 0.74143 0.03668 0.44415 0.0
H470 H 0.68532 0.02336 0.44294 0.0
H471 H 0.70041 0.98292 0.43814 0.0
C472 C 0.8339 0.77226 0.76982 0.0
C473 C 0.85258 0.81705 0.77297 0.0
C474 C 0.80125 0.74155 0.78077 0.0
C475 C 0.78752 0.75592 0.79542 0.0
C476 C 0.8073 0.80092 0.79907 0.0
C477 C 0.83922 0.83093 0.78771 0.0
C478 C 0.78061 0.6938 0.77637 0.0
C479 C 0.79394 0.81745 0.81473 0.0
C480 C 0.6735 0.68337 0.81302 0.0
C481 C 0.6814 0.66313 0.82711 0.0
C482 C 0.70778 0.71342 0.80252 0.0
C483 C 0.75101 0.72402 0.80646 0.0
C484 C 0.7592 0.70415 0.82088 0.0
C485 C 0.72415 0.67351 0.83094 0.0
C486 C 0.69769 0.73336 0.78707 0.0
C487 C 0.80493 0.71537 0.8257 0.0
H488 H 0.8445 0.76111 0.75867 0.0
H489 H 0.85276 0.86538 0.79016 0.0
H490 H 0.78346 0.67567 0.78762 0.0
H491 H 0.74537 0.68019 0.77377 0.0
H492 H 0.79572 0.68791 0.76475 0.0
H493 H 0.81496 0.85313 0.81653 0.0
H494 H 0.75978 0.80995 0.81315 0.0
H495 H 0.79536 0.80081 0.82677 0.0
H496 H 0.64031 0.67491 0.80999 0.0
H497 H 0.73013 0.65793 0.84193 0.0
H498 H 0.70978 0.72609 0.77487 0.0
H499 H 0.7147 0.76926 0.78848 0.0
H500 H 0.66225 0.7211 0.78564 0.0
H501 H 0.82007 0.70733 0.81471 0.0
H502 H 0.80579 0.69771 0.83754 0.0
H503 H 0.82518 0.75086 0.82811 0.0
C504 C 0.05678 0.85194 0.11327 0.0
C505 C 0.01997 0.84134 0.10305 0.0
C506 C 0.05736 0.82141 0.12477 0.0
C507 C 0.02018 0.77943 0.12609 0.0
C508 C 0.9827 0.76881 0.11601 0.0
C509 C 0.98307 0.79989 0.10462 0.0
C510 C 0.09795 0.83381 0.13527 0.0
C511 C 0.94233 0.72446 0.11714 0.0
C512 C 0.03231 0.68449 0.14146 0.0
C513 C 0.01757 0.67943 0.15878 0.0
C514 C 0.03414 0.71747 0.1308 0.0
C515 C 0.02074 0.746 0.13759 0.0
C516 C 0.00634 0.74147 0.15512 0.0
C517 C 0.00494 0.70822 0.16552 0.0
C518 C 0.0496 0.72124 0.11215 0.0
C519 C 0.99187 0.77136 0.16281 0.0
H520 H 0.08548 0.88385 0.11201 0.0
H521 H 0.95425 0.79181 0.09698 0.0
H522 H 0.08998 0.82867 0.1494 0.0
H523 H 0.11139 0.81261 0.13159 0.0
H524 H 0.12352 0.86826 0.13321 0.0
H525 H 0.91556 0.72176 0.10873 0.0
H526 H 0.9501 0.69907 0.11312 0.0
H527 H 0.93059 0.71743 0.13084 0.0
H528 H 0.04154 0.66199 0.13609 0.0
H529 H 0.99408 0.70483 0.17896 0.0
H530 H 0.07688 0.75461 0.10962 0.0
H531 H 0.02286 0.7154 0.10305 0.0
H532 H 0.06065 0.69768 0.10911 0.0
H533 H 0.01821 0.80573 0.16155 0.0
H534 H 0.98285 0.76436 0.17683 0.0
H535 H 0.96334 0.76796 0.15548 0.0
C536 C 0.18065 0.03295 0.45365 0.0
C537 C 0.18902 0.03811 0.43565 0.0
C538 C 0.21052 0.03148 0.46526 0.0
C539 C 0.24983 0.03582 0.4587 0.0
C540 C 0.25915 0.04276 0.44061 0.0
C541 C 0.22845 0.0435 0.42928 0.0
C542 C 0.19922 0.02352 0.48444 0.0
C543 C 0.30102 0.04821 0.43316 0.0
C544 C 0.34292 0.06183 0.48999 0.0
C545 C 0.33933 0.02086 0.49212 0.0
C546 C 0.31389 0.06721 0.47924 0.0
C547 C 0.28015 0.03068 0.47057 0.0
C548 C 0.27583 0.98914 0.4729 0.0
C549 C 0.30561 0.98479 0.48354 0.0
C550 C 0.31962 0.11205 0.47699 0.0
C551 C 0.24006 0.94933 0.46395 0.0
H552 H 0.14994 0.02831 0.45856 0.0
H553 H 0.23506 0.04787 0.41537 0.0
H554 H 0.19544 0.99168 0.4883 0.0
H555 H 0.22592 0.04883 0.49247 0.0
H556 H 0.16858 0.0234 0.48758 0.0
H557 H 0.30461 0.05634 0.41902 0.0
H558 H 0.32936 0.07431 0.44024 0.0
H559 H 0.302 0.0177 0.43494 0.0
H560 H 0.36842 0.08977 0.49678 0.0
H561 H 0.30293 0.95314 0.48486 0.0
H562 H 0.28951 0.11195 0.48099 0.0
H563 H 0.32533 0.12156 0.46301 0.0
H564 H 0.34731 0.13705 0.48477 0.0
H565 H 0.20786 0.94549 0.46725 0.0
H566 H 0.24006 0.9191 0.46771 0.0
H567 H 0.24395 0.95322 0.44956 0.0
C568 C 0.19501 0.17084 0.77313 0.0
C569 C 0.16694 0.18085 0.76391 0.0
C570 C 0.22686 0.2012 0.7844 0.0
C571 C 0.23074 0.24259 0.78653 0.0
C572 C 0.20233 0.25284 0.77738 0.0
C573 C 0.17067 0.22178 0.76618 0.0
C574 C 0.2564 0.18898 0.79401 0.0
C575 C 0.20562 0.29673 0.77931 0.0
C576 C 0.28904 0.30697 0.82712 0.0
C577 C 0.33079 0.33548 0.82059 0.0
C578 C 0.25599 0.27687 0.81614 0.0
C579 C 0.26494 0.27525 0.79821 0.0
C580 C 0.30692 0.30407 0.79152 0.0
C581 C 0.33934 0.33385 0.80279 0.0
C582 C 0.21163 0.24652 0.82375 0.0
C583 C 0.31765 0.30332 0.77247 0.0
H584 H 0.19175 0.13897 0.77166 0.0
H585 H 0.14926 0.22975 0.75899 0.0
H586 H 0.29082 0.21175 0.79046 0.0
H587 H 0.25337 0.19183 0.80832 0.0
H588 H 0.24886 0.15529 0.79102 0.0
H589 H 0.18068 0.29935 0.77146 0.0
H590 H 0.20171 0.30281 0.79323 0.0
H591 H 0.23835 0.32274 0.77512 0.0
H592 H 0.28238 0.30777 0.8409 0.0
H593 H 0.37134 0.35626 0.79762 0.0
H594 H 0.20377 0.21229 0.82211 0.0
H595 H 0.18635 0.25013 0.81665 0.0
H596 H 0.20968 0.25268 0.83787 0.0
H597 H 0.31293 0.27088 0.76901 0.0
H598 H 0.35168 0.32839 0.76928 0.0
H599 H 0.29525 0.30883 0.76415 0.0
C600 C 0.84189 0.02979 0.63601 0.0
C601 C 0.83266 0.02008 0.6538 0.0
C602 C 0.81025 0.02811 0.62452 0.0
C603 C 0.76847 0.01657 0.631 0.0
C604 C 0.75925 0.00766 0.64902 0.0
C605 C 0.79146 0.00946 0.6602 0.0
C606 C 0.82122 0.0377 0.60538 0.0
C607 C 0.71516 0.99556 0.65644 0.0
C608 C 0.69617 0.04509 0.60417 0.0
C609 C 0.66781 0.00513 0.5962 0.0
C610 C 0.72921 0.04935 0.61549 0.0
C611 C 0.73401 0.01278 0.61888 0.0
C612 C 0.70564 0.97241 0.6108 0.0
C613 C 0.67282 0.96906 0.59957 0.0
C614 C 0.75873 0.09286 0.62392 0.0
C615 C 0.70992 0.93274 0.61404 0.0
H616 H 0.87349 0.03746 0.63096 0.0
H617 H 0.78437 0.00242 0.67398 0.0
H618 H 0.79982 0.00843 0.59749 0.0
H619 H 0.81518 0.06405 0.60104 0.0
H620 H 0.85566 0.0476 0.60253 0.0
H621 H 0.7137 0.99096 0.67083 0.0
H622 H 0.70706 0.02123 0.65335 0.0
H623 H 0.68976 0.96497 0.65032 0.0
H624 H 0.69206 0.07293 0.60179 0.0
H625 H 0.6513 0.93825 0.59328 0.0
H626 H 0.79316 0.10396 0.62059 0.0
H627 H 0.75577 0.0897 0.63835 0.0
H628 H 0.75102 0.11823 0.61975 0.0
H629 H 0.74295 0.93957 0.61027 0.0
H630 H 0.68551 0.90389 0.60661 0.0
H631 H 0.70584 0.92466 0.62817 0.0
C632 C 0.81126 0.80238 0.97885 0.0
C633 C 0.81173 0.84127 0.98275 0.0
C634 C 0.77987 0.7713 0.96764 0.0
C635 C 0.74853 0.77953 0.95986 0.0
C636 C 0.74917 0.81897 0.96345 0.0
C637 C 0.78061 0.84928 0.97494 0.0
C638 C 0.78013 0.72951 0.96421 0.0
C639 C 0.71648 0.82901 0.95524 0.0
C640 C 0.69281 0.71233 0.91951 0.0
C641 C 0.65346 0.67954 0.92649 0.0
C642 C 0.7235 0.74599 0.93011 0.0
C643 C 0.71481 0.74639 0.94815 0.0
C644 C 0.67482 0.71367 0.95521 0.0
C645 C 0.64449 0.68076 0.94425 0.0
C646 C 0.76551 0.78067 0.92208 0.0
C647 C 0.66465 0.71264 0.97442 0.0
H648 H 0.83575 0.79627 0.98446 0.0
H649 H 0.78042 0.87901 0.97798 0.0
H650 H 0.74839 0.70123 0.96806 0.0
H651 H 0.78452 0.72625 0.95005 0.0
H652 H 0.80641 0.72789 0.97147 0.0
H653 H 0.72235 0.86182 0.95887 0.0
H654 H 0.71771 0.8271 0.94079 0.0
H655 H 0.68309 0.80445 0.95938 0.0
H656 H 0.69954 0.71163 0.90573 0.0
H657 H 0.61422 0.65518 0.94969 0.0
H658 H 0.79336 0.77887 0.92774 0.0
H659 H 0.77054 0.81343 0.92515 0.0
H660 H 0.76603 0.77727 0.90766 0.0
H661 H 0.68848 0.70811 0.98221 0.0
H662 H 0.63135 0.68602 0.9777 0.0
H663 H 0.66771 0.74406 0.97848 0.0
C664 C 0.99011 0.83009 0.2978 0.0
C665 C 0.97738 0.81879 0.31526 0.0
C666 C 0.99164 0.80027 0.2862 0.0
C667 C 0.9803 0.75822 0.29222 0.0
C668 C 0.9667 0.74634 0.30973 0.0
C669 C 0.96536 0.77676 0.32104 0.0
C670 C 0.00627 0.81407 0.2676 0.0
C671 C 0.95421 0.70171 0.31661 0.0
C672 C 0.95101 0.667 0.25963 0.0
C673 C 0.9898 0.66559 0.25887 0.0
C674 C 0.94761 0.6974 0.27024 0.0
C675 C 0.98383 0.72697 0.28036 0.0
C676 C 0.02325 0.72608 0.27947 0.0
C677 C 0.02577 0.69542 0.26871 0.0
C678 C 0.90516 0.69762 0.27076 0.0
C679 C 0.06252 0.75701 0.29013 0.0
H680 H -0.0 0.8627 0.29331 0.0
H681 H 0.95491 0.76764 0.33445 0.0
H682 H 0.03684 0.81359 0.26509 0.0
H683 H 0.98145 0.79083 0.25834 0.0
H684 H 0.01204 0.84724 0.26476 0.0
H685 H 0.94337 0.69728 0.33045 0.0
H686 H 0.92758 0.67632 0.30857 0.0
H687 H 0.98239 0.69636 0.31561 0.0
H688 H 0.9233 0.64434 0.25186 0.0
H689 H 0.05565 0.69412 0.26832 0.0
H690 H 0.91071 0.73029 0.26717 0.0
H691 H 0.89178 0.69064 0.28423 0.0
H692 H 0.88043 0.6732 0.26176 0.0
H693 H 0.07171 0.79113 0.28716 0.0
H694 H 0.09107 0.75285 0.2876 0.0
H695 H 0.05455 0.75168 0.30426 0.0
C696 C 0.15653 0.98825 0.62988 0.0
C697 C 0.14313 0.96116 0.64466 0.0
C698 C 0.18879 0.99036 0.61866 0.0
C699 C 0.20887 0.9655 0.62248 0.0
C700 C 0.19517 0.93761 0.63719 0.0
C701 C 0.16218 0.93545 0.648 0.0
C702 C 0.20213 0.02003 0.60294 0.0
C703 C 0.21613 0.91089 0.64177 0.0
C704 C 0.27248 0.94593 0.58721 0.0
C705 C 0.3152 0.97844 0.59099 0.0
C706 C 0.23738 0.94167 0.5972 0.0
C707 C 0.24547 0.97004 0.6115 0.0
C708 C 0.28865 0.00283 0.61539 0.0
C709 C 0.323 0.00691 0.60496 0.0
C710 C 0.1917 0.90698 0.59243 0.0
C711 C 0.29864 0.0332 0.63072 0.0
H712 H 0.14271 0.00887 0.62729 0.0
H713 H 0.15158 0.91383 0.65918 0.0
H714 H 0.23624 0.04676 0.60451 0.0
H715 H 0.20082 0.00183 0.59095 0.0
H716 H 0.18102 0.03457 0.60104 0.0
H717 H 0.20118 0.89021 0.65349 0.0
H718 H 0.21336 0.88964 0.63064 0.0
H719 H 0.25135 0.93276 0.64432 0.0
H720 H 0.26657 0.92414 0.5763 0.0
H721 H 0.35615 0.03176 0.60795 0.0
H722 H 0.17133 0.92205 0.58992 0.0
H723 H 0.17663 0.884 0.60348 0.0
H724 H 0.19091 0.88825 0.58066 0.0
H725 H 0.28145 0.0519 0.62919 0.0
H726 H 0.33405 0.05654 0.6321 0.0
H727 H 0.28666 0.01414 0.64298 0.0
C728 C 0.21756 0.1561 0.9749 0.0
C729 C 0.17489 0.14842 0.97642 0.0
C730 C 0.24773 0.1888 0.96382 0.0
C731 C 0.23496 0.21457 0.95415 0.0
C732 C 0.1917 0.2064 0.95537 0.0
C733 C 0.16216 0.17336 0.96647 0.0
C734 C 0.2935 0.19632 0.96271 0.0
C735 C 0.17696 0.2334 0.94535 0.0
C736 C 0.32314 0.32753 0.9406 0.0
C737 C 0.32909 0.32134 0.92293 0.0
C738 C 0.2925 0.29308 0.95087 0.0
C739 C 0.26734 0.25132 0.94332 0.0
C740 C 0.27308 0.24479 0.9255 0.0
C741 C 0.30381 0.27992 0.9155 0.0
C742 C 0.28721 0.30132 0.96984 0.0
C743 C 0.24682 0.2007 0.91701 0.0
H744 H 0.22737 0.13658 0.98243 0.0
H745 H 0.12939 0.16796 0.96779 0.0
H746 H 0.30212 0.19472 0.9489 0.0
H747 H 0.3169 0.22934 0.96763 0.0
H748 H 0.29764 0.17212 0.97043 0.0
H749 H 0.14168 0.22155 0.94712 0.0
H750 H 0.19559 0.26774 0.94978 0.0
H751 H 0.1836 0.23305 0.93121 0.0
H752 H 0.34301 0.35925 0.94651 0.0
H753 H 0.30782 0.27502 0.90179 0.0
H754 H 0.29461 0.2805 0.97833 0.0
H755 H 0.25298 0.29249 0.97243 0.0
H756 H 0.30883 0.33584 0.97363 0.0
H757 H 0.25212 0.1764 0.92404 0.0
H758 H 0.25547 0.20098 0.90304 0.0
H759 H 0.21159 0.18971 0.91789 0.0
C760 C 0.05884 0.22037 0.31338 0.0
C761 C 0.02011 0.18162 0.31701 0.0
C762 C 0.05915 0.25146 0.30194 0.0
C763 C 0.01982 0.24346 0.29394 0.0
C764 C 0.98081 0.20407 0.29732 0.0
C765 C 0.98144 0.17364 0.3088 0.0
C766 C 0.10135 0.29317 0.29866 0.0
C767 C 0.93827 0.19425 0.28896 0.0
C768 C 0.00681 0.33797 0.27869 0.0
C769 C 0.01253 0.33728 0.26058 0.0
C770 C 0.00997 0.30815 0.28972 0.0
C771 C 0.01895 0.27679 0.28247 0.0
C772 C 0.02535 0.27626 0.26423 0.0
C773 C 0.02213 0.3066 0.25349 0.0
C774 C 0.00316 0.30987 0.30913 0.0
C775 C 0.03479 0.24316 0.25602 0.0
H776 H 0.08874 0.22681 0.31979 0.0
H777 H 0.95157 0.14338 0.3113 0.0
H778 H 0.10824 0.29768 0.28444 0.0
H779 H 0.09855 0.32129 0.3033 0.0
H780 H 0.12938 0.29369 0.30537 0.0
H781 H 0.91108 0.16155 0.29257 0.0
H782 H 0.92961 0.21899 0.29302 0.0
H783 H 0.94159 0.19603 0.27452 0.0
H784 H 0.00011 0.36211 0.28426 0.0
H785 H 0.02624 0.30574 0.23949 0.0
H786 H 0.03179 0.31341 0.31642 0.0
H787 H 0.97448 0.27897 0.31344 0.0
H788 H 0.9979 0.33721 0.31275 0.0
H789 H 0.06379 0.24471 0.26224 0.0
H790 H 0.04063 0.24821 0.24173 0.0
H791 H 0.00696 0.20992 0.25826 0.0
loop_
_geom_bond_atom_site_label_1
_geom_bond_atom_site_label_2
_geom_bond_distance
_geom_bond_site_symmetry_2
_ccdc_geom_bond_type
Li0 N17 1.990 . S
Li0 O60 1.956 . S
Li0 O61 1.970 1_455 S
Li0 O62 1.961 1_545 S
Li1 N25 1.990 . S
Li1 O60 1.970 1_655 S
Li1 O61 1.956 . S
Li1 O63 1.961 1_545 S
Li2 N47 1.990 . S
Li2 O60 1.961 1_565 S
Li2 O62 1.956 . S
Li2 O63 1.970 1_455 S
Li3 N53 1.990 . S
Li3 O61 1.961 1_565 S
Li3 O62 1.970 1_655 S
Li3 O63 1.956 . S
C4 C6 1.348 . S
C4 C7 1.356 . S
C4 O60 1.325 . S
N5 C8 1.314 . S
N5 C9 1.279 . S
C6 C4 1.348 . S
C6 C8 1.353 . S
C6 H64 0.929 . S
C7 C4 1.356 . S
C7 C9 1.358 . S
C7 H65 0.930 . S
C8 N5 1.314 . S
C8 C6 1.353 . S
C8 H66 0.930 . S
C9 N5 1.279 . S
C9 C7 1.358 . S
C9 H67 0.930 . S
C10 C13 1.348 1_655 S
C10 C14 1.356 . S
C10 O61 1.325 . S
C11 N12 1.300 . S
C11 C14 1.358 . S
C11 H68 0.930 . S
N12 C11 1.300 . S
N12 C15 1.321 . S
C13 C10 1.348 1_455 S
C13 C15 1.353 1_455 S
C13 H69 0.929 . S
C14 C10 1.356 . S
C14 C11 1.358 . S
C14 H70 0.930 . S
C15 N12 1.321 . S
C15 C13 1.353 1_655 S
C15 H71 0.930 1_654 S
C16 N17 1.368 . S
C16 C21 1.318 1_554 S
C16 H22 0.910 1_554 S
N17 Li0 1.990 . S
N17 C16 1.368 . S
N17 C19 1.279 . S
C18 C19 1.358 . S
C18 C20 1.356 1_554 S
C18 H72 0.930 . S
C19 N17 1.279 . S
C19 C18 1.358 . S
C19 H23 0.930 . S
C20 C18 1.356 1_556 S
C20 C21 1.348 . S
C21 C16 1.318 1_556 S
C21 C20 1.348 . S
C21 H73 0.929 . S
H22 C16 0.910 1_556 S
H23 C19 0.930 . S
C24 N25 1.314 . S
C24 C26 1.353 . S
C24 H30 0.930 . S
N25 Li1 1.990 . S
N25 C24 1.314 . S
N25 C28 1.279 . S
C26 C24 1.353 . S
C26 C29 1.348 . S
C26 H74 0.929 . S
C27 C28 1.358 . S
C27 C29 1.356 . S
C27 H75 0.930 . S
C28 N25 1.279 . S
C28 C27 1.358 . S
C28 H31 0.930 . S
C29 C26 1.348 . S
C29 C27 1.356 . S
H30 C24 0.930 . S
H31 C28 0.930 . S
C32 C34 1.348 1_455 S
C32 C35 1.356 . S
C32 O62 1.325 . S
N33 C36 1.320 . S
N33 C37 1.299 . S
C34 C32 1.348 1_655 S
C34 C36 1.353 1_655 S
C34 H76 0.929 . S
C35 C32 1.356 . S
C35 C37 1.358 . S
C35 H77 0.930 . S
C36 N33 1.320 . S
C36 C34 1.353 1_455 S
C36 H78 0.930 1_454 S
C37 N33 1.299 . S
C37 C35 1.358 . S
C37 H79 0.930 . S
C38 C39 1.348 . S
C38 C40 1.356 . S
C38 O63 1.325 . S
C39 C38 1.348 . S
C39 C41 1.353 . S
C39 H80 0.929 . S
C40 C38 1.356 . S
C40 C42 1.358 . S
C40 H81 0.930 . S
C41 C39 1.353 . S
C41 N43 1.314 . S
C41 H82 0.930 . S
C42 C40 1.358 . S
C42 N43 1.279 . S
C42 H83 0.930 . S
N43 C41 1.314 . S
N43 C42 1.279 . S
C44 C46 1.353 . S
C44 N47 1.314 . S
C44 H50 0.930 . S
C45 N47 1.279 . S
C45 C48 1.358 . S
C45 H51 0.930 . S
C46 C44 1.353 . S
C46 C49 1.348 . S
C46 H84 0.929 . S
N47 Li2 1.990 . S
N47 C44 1.314 . S
N47 C45 1.279 . S
C48 C45 1.358 . S
C48 C49 1.356 . S
C48 H85 0.930 . S
C49 C46 1.348 . S
C49 C48 1.356 . S
H50 C44 0.930 . S
H51 C45 0.930 . S
C52 N53 1.367 . S
C52 C54 1.319 1_554 S
C52 H58 0.910 1_554 S
N53 Li3 1.990 . S
N53 C52 1.367 . S
N53 C56 1.279 . S
C54 C52 1.319 1_556 S
C54 C57 1.348 . S
C54 H86 0.929 . S
C55 C56 1.358 . S
C55 C57 1.356 1_554 S
C55 H87 0.930 . S
C56 N53 1.279 . S
C56 C55 1.358 . S
C56 H59 0.930 . S
C57 C54 1.348 . S
C57 C55 1.356 1_556 S
H58 C52 0.910 1_556 S
H59 C56 0.930 . S
O60 Li0 1.956 . S
O60 Li1 1.970 1_455 S
O60 Li2 1.961 1_545 S
O60 C4 1.325 . S
O61 Li0 1.970 1_655 S
O61 Li1 1.956 . S
O61 Li3 1.961 1_545 S
O61 C10 1.325 . S
O62 Li0 1.961 1_565 S
O62 Li2 1.956 . S
O62 Li3 1.970 1_455 S
O62 C32 1.325 . S
O63 Li1 1.961 1_565 S
O63 Li2 1.970 1_655 S
O63 Li3 1.956 . S
O63 C38 1.325 . S
H64 C6 0.929 . S
H65 C7 0.930 . S
H66 C8 0.930 . S
H67 C9 0.930 . S
H68 C11 0.930 . S
H69 C13 0.929 . S
H70 C14 0.930 . S
H71 C15 0.930 1_456 S
H72 C18 0.930 . S
H73 C21 0.929 . S
H74 C26 0.929 . S
H75 C27 0.930 . S
H76 C34 0.929 . S
H77 C35 0.930 . S
H78 C36 0.930 1_656 S
H79 C37 0.930 . S
H80 C39 0.929 . S
H81 C40 0.930 . S
H82 C41 0.930 . S
H83 C42 0.930 . S
H84 C46 0.929 . S
H85 C48 0.930 . S
H86 C54 0.929 . S
H87 C55 0.930 . S
Li88 N105 1.990 . S
Li88 O148 1.956 . S
Li88 O149 1.970 1_665 S
Li88 O150 1.961 . S
Li89 N113 1.990 . S
Li89 O148 1.970 1_445 S
Li89 O149 1.956 . S
Li89 O151 1.961 . S
Li90 N135 1.990 . S
Li90 O148 1.961 . S
Li90 O150 1.956 . S
Li90 O151 1.970 1_665 S
Li91 N141 1.990 . S
Li91 O149 1.961 . S
Li91 O150 1.970 1_445 S
Li91 O151 1.956 . S
C92 C94 1.348 1_655 S
C92 C95 1.356 . S
C92 O148 1.325 . S
N93 C96 1.314 . S
N93 C97 1.279 . S
C94 C92 1.348 1_455 S
C94 C96 1.353 1_455 S
C94 H152 0.929 . S
C95 C92 1.356 . S
C95 C97 1.358 . S
C95 H153 0.930 . S
C96 N93 1.314 . S
C96 C94 1.353 1_655 S
C96 H154 0.930 1_655 S
C97 N93 1.279 . S
C97 C95 1.358 . S
C97 H155 0.930 . S
C98 C101 1.348 1_545 S
C98 C102 1.356 . S
C98 O149 1.325 . S
C99 N100 1.279 . S
C99 C102 1.358 . S
C99 H156 0.930 . S
N100 C99 1.279 . S
N100 C103 1.314 . S
C101 C98 1.348 1_565 S
C101 C103 1.353 1_565 S
C101 H157 0.929 . S
C102 C98 1.356 . S
C102 C99 1.358 . S
C102 H158 0.930 . S
C103 N100 1.314 . S
C103 C101 1.353 1_545 S
C103 H159 0.930 1_545 S
C104 N105 1.314 . S
C104 C109 1.353 . S
C104 H110 0.930 . S
N105 Li88 1.990 . S
N105 C104 1.314 . S
N105 C107 1.279 . S
C106 C107 1.358 . S
C106 C108 1.356 . S
C106 H160 0.930 . S
C107 N105 1.279 . S
C107 C106 1.358 . S
C107 H111 0.930 . S
C108 C106 1.356 . S
C108 C109 1.348 . S
C109 C104 1.353 . S
C109 C108 1.348 . S
C109 H161 0.929 . S
H110 C104 0.930 . S
H111 C107 0.930 . S
C112 N113 1.314 . S
C112 C114 1.353 . S
C112 H118 0.930 . S
N113 Li89 1.990 . S
N113 C112 1.314 . S
N113 C116 1.279 . S
C114 C112 1.353 . S
C114 C117 1.348 . S
C114 H162 0.929 . S
C115 C116 1.358 . S
C115 C117 1.356 . S
C115 H163 0.930 . S
C116 N113 1.279 . S
C116 C115 1.358 . S
C116 H119 0.930 . S
C117 C114 1.348 . S
C117 C115 1.356 . S
H118 C112 0.930 . S
H119 C116 0.930 . S
C120 C122 1.348 1_565 S
C120 C123 1.356 . S
C120 O150 1.325 . S
N121 C124 1.314 . S
N121 C125 1.279 . S
C122 C120 1.348 1_545 S
C122 C124 1.353 1_545 S
C122 H164 0.929 . S
C123 C120 1.356 . S
C123 C125 1.358 . S
C123 H165 0.930 . S
C124 N121 1.314 . S
C124 C122 1.353 1_565 S
C124 H166 0.930 1_565 S
C125 N121 1.279 . S
C125 C123 1.358 . S
C125 H167 0.930 . S
C126 C127 1.348 1_455 S
C126 C128 1.356 . S
C126 O151 1.325 . S
C127 C126 1.348 1_655 S
C127 C129 1.353 1_655 S
C127 H168 0.929 . S
C128 C126 1.356 . S
C128 C130 1.358 . S
C128 H169 0.930 . S
C129 C127 1.353 1_455 S
C129 N131 1.314 . S
C129 H170 0.930 1_455 S
C130 C128 1.358 . S
C130 N131 1.279 . S
C130 H171 0.930 . S
N131 C129 1.314 . S
N131 C130 1.279 . S
C132 C134 1.353 . S
C132 N135 1.314 . S
C132 H138 0.930 . S
C133 N135 1.279 . S
C133 C136 1.358 . S
C133 H139 0.930 . S
C134 C132 1.353 . S
C134 C137 1.348 . S
C134 H172 0.929 . S
N135 Li90 1.990 . S
N135 C132 1.314 . S
N135 C133 1.279 . S
C136 C133 1.358 . S
C136 C137 1.356 . S
C136 H173 0.930 . S
C137 C134 1.348 . S
C137 C136 1.356 . S
H138 C132 0.930 . S
H139 C133 0.930 . S
C140 N141 1.314 . S
C140 C142 1.353 . S
C140 H146 0.930 . S
N141 Li91 1.990 . S
N141 C140 1.314 . S
N141 C144 1.279 . S
C142 C140 1.353 . S
C142 C145 1.348 . S
C142 H174 0.929 . S
C143 C144 1.358 . S
C143 C145 1.356 . S
C143 H175 0.930 . S
C144 N141 1.279 . S
C144 C143 1.358 . S
C144 H147 0.930 . S
C145 C142 1.348 . S
C145 C143 1.356 . S
H146 C140 0.930 . S
H147 C144 0.930 . S
O148 Li88 1.956 . S
O148 Li89 1.970 1_665 S
O148 Li90 1.961 . S
O148 C92 1.325 . S
O149 Li88 1.970 1_445 S
O149 Li89 1.956 . S
O149 Li91 1.961 . S
O149 C98 1.325 . S
O150 Li88 1.961 . S
O150 Li90 1.956 . S
O150 Li91 1.970 1_665 S
O150 C120 1.325 . S
O151 Li89 1.961 . S
O151 Li90 1.970 1_445 S
O151 Li91 1.956 . S
O151 C126 1.325 . S
H152 C94 0.929 . S
H153 C95 0.930 . S
H154 C96 0.930 1_455 S
H155 C97 0.930 . S
H156 C99 0.930 . S
H157 C101 0.929 . S
H158 C102 0.930 . S
H159 C103 0.930 1_565 S
H160 C106 0.930 . S
H161 C109 0.929 . S
H162 C114 0.929 . S
H163 C115 0.930 . S
H164 C122 0.929 . S
H165 C123 0.930 . S
H166 C124 0.930 1_545 S
H167 C125 0.930 . S
H168 C127 0.929 . S
H169 C128 0.930 . S
H170 C129 0.930 1_655 S
H171 C130 0.930 . S
H172 C134 0.929 . S
H173 C136 0.930 . S
H174 C142 0.929 . S
H175 C143 0.930 . S
Li176 N193 1.990 . S
Li176 O236 1.956 . S
Li176 O237 1.970 1_565 S
Li176 O238 1.961 1_455 S
Li177 N201 1.990 . S
Li177 O236 1.970 1_545 S
Li177 O237 1.956 . S
Li177 O239 1.961 1_455 S
Li178 N223 1.990 . S
Li178 O236 1.961 1_655 S
Li178 O238 1.956 . S
Li178 O239 1.970 1_565 S
Li179 N229 1.990 . S
Li179 O237 1.961 1_655 S
Li179 O238 1.970 1_545 S
Li179 O239 1.956 . S
C180 C182 1.348 1_565 S
C180 C183 1.356 . S
C180 O236 1.325 . S
N181 C184 1.314 . S
N181 C185 1.279 . S
C182 C180 1.348 1_545 S
C182 C184 1.353 1_545 S
C182 H240 0.929 . S
C183 C180 1.356 . S
C183 C185 1.358 . S
C183 H241 0.930 . S
C184 N181 1.314 . S
C184 C182 1.353 1_565 S
C184 H242 0.930 1_565 S
C185 N181 1.279 . S
C185 C183 1.358 . S
C185 H243 0.930 . S
C186 C189 1.348 . S
C186 C190 1.356 . S
C186 O237 1.325 . S
C187 N188 1.279 . S
C187 C190 1.358 . S
C187 H244 0.930 . S
N188 C187 1.279 . S
N188 C191 1.314 . S
C189 C186 1.348 . S
C189 C191 1.353 . S
C189 H245 0.929 . S
C190 C186 1.356 . S
C190 C187 1.358 . S
C190 H246 0.930 . S
C191 N188 1.314 . S
C191 C189 1.353 . S
C191 H247 0.930 . S
C192 N193 1.314 . S
C192 C197 1.353 . S
C192 H198 0.930 . S
N193 Li176 1.990 . S
N193 C192 1.314 . S
N193 C195 1.279 . S
C194 C195 1.358 . S
C194 C196 1.356 . S
C194 H248 0.930 . S
C195 N193 1.279 . S
C195 C194 1.358 . S
C195 H199 0.930 . S
C196 C194 1.356 . S
C196 C197 1.348 . S
C197 C192 1.353 . S
C197 C196 1.348 . S
C197 H249 0.929 . S
H198 C192 0.930 . S
H199 C195 0.930 . S
C200 N201 1.314 . S
C200 C202 1.353 . S
C200 H206 0.930 . S
N201 Li177 1.990 . S
N201 C200 1.314 . S
N201 C204 1.279 . S
C202 C200 1.353 . S
C202 C205 1.348 . S
C202 H250 0.929 . S
C203 C204 1.358 . S
C203 C205 1.356 . S
C203 H251 0.930 . S
C204 N201 1.279 . S
C204 C203 1.358 . S
C204 H207 0.930 . S
C205 C202 1.348 . S
C205 C203 1.356 . S
H206 C200 0.930 . S
H207 C204 0.930 . S
C208 C210 1.348 . S
C208 C211 1.356 . S
C208 O238 1.325 . S
N209 C212 1.314 . S
N209 C213 1.279 . S
C210 C208 1.348 . S
C210 C212 1.353 . S
C210 H252 0.929 . S
C211 C208 1.356 . S
C211 C213 1.358 . S
C211 H253 0.930 . S
C212 N209 1.314 . S
C212 C210 1.353 . S
C212 H254 0.930 . S
C213 N209 1.279 . S
C213 C211 1.358 . S
C213 H255 0.930 . S
C214 C215 1.348 1_545 S
C214 C216 1.356 . S
C214 O239 1.325 . S
C215 C214 1.348 1_565 S
C215 C217 1.353 1_565 S
C215 H256 0.929 . S
C216 C214 1.356 . S
C216 C218 1.358 . S
C216 H257 0.930 . S
C217 C215 1.353 1_545 S
C217 N219 1.314 . S
C217 H258 0.930 1_545 S
C218 C216 1.358 . S
C218 N219 1.279 . S
C218 H259 0.930 . S
N219 C217 1.314 . S
N219 C218 1.279 . S
C220 C222 1.353 . S
C220 N223 1.314 . S
C220 H226 0.930 . S
C221 N223 1.279 . S
C221 C224 1.358 . S
C221 H227 0.930 . S
C222 C220 1.353 . S
C222 C225 1.348 . S
C222 H260 0.929 . S
N223 Li178 1.990 . S
N223 C220 1.314 . S
N223 C221 1.279 . S
C224 C221 1.358 . S
C224 C225 1.356 . S
C224 H261 0.930 . S
C225 C222 1.348 . S
C225 C224 1.356 . S
H226 C220 0.930 . S
H227 C221 0.930 . S
C228 N229 1.314 . S
C228 C230 1.353 . S
C228 H234 0.930 . S
N229 Li179 1.990 . S
N229 C228 1.314 . S
N229 C232 1.279 . S
C230 C228 1.353 . S
C230 C233 1.348 . S
C230 H262 0.929 . S
C231 C232 1.358 . S
C231 C233 1.356 . S
C231 H263 0.930 . S
C232 N229 1.279 . S
C232 C231 1.358 . S
C232 H235 0.930 . S
C233 C230 1.348 . S
C233 C231 1.356 . S
H234 C228 0.930 . S
H235 C232 0.930 . S
O236 Li176 1.956 . S
O236 Li177 1.970 1_565 S
O236 Li178 1.961 1_455 S
O236 C180 1.325 . S
O237 Li176 1.970 1_545 S
O237 Li177 1.956 . S
O237 Li179 1.961 1_455 S
O237 C186 1.325 . S
O238 Li176 1.961 1_655 S
O238 Li178 1.956 . S
O238 Li179 1.970 1_565 S
O238 C208 1.325 . S
O239 Li177 1.961 1_655 S
O239 Li178 1.970 1_545 S
O239 Li179 1.956 . S
O239 C214 1.325 . S
H240 C182 0.929 . S
H241 C183 0.930 . S
H242 C184 0.930 1_545 S
H243 C185 0.930 . S
H244 C187 0.930 . S
H245 C189 0.929 . S
H246 C190 0.930 . S
H247 C191 0.930 . S
H248 C194 0.930 . S
H249 C197 0.929 . S
H250 C202 0.929 . S
H251 C203 0.930 . S
H252 C210 0.929 . S
H253 C211 0.930 . S
H254 C212 0.930 . S
H255 C213 0.930 . S
H256 C215 0.929 . S
H257 C216 0.930 . S
H258 C217 0.930 1_565 S
H259 C218 0.930 . S
H260 C222 0.929 . S
H261 C224 0.930 . S
H262 C230 0.929 . S
H263 C231 0.930 . S
H264 C283 0.949 . S
H265 C284 0.950 . S
H266 C286 0.950 . S
H267 C287 0.950 . S
H268 C289 0.950 . S
H269 C292 0.950 . S
H270 C293 0.950 . S
H271 C295 0.951 . S
H272 C296 0.949 . S
H273 C298 0.949 . S
H274 C299 0.950 . S
H275 C301 0.950 . S
H276 C302 0.950 . S
H277 C304 0.950 . S
H278 C307 0.950 . S
H279 C308 0.950 . S
H280 C310 0.951 . S
H281 C311 0.949 . S
C282 C283 1.376 . S
C282 C287 1.386 1_455 S
C282 C288 1.483 . S
C283 H264 0.949 . S
C283 C282 1.376 . S
C283 C284 1.397 . S
C284 H265 0.950 . S
C284 C283 1.397 . S
C284 C285 1.391 . S
C285 C284 1.391 . S
C285 C286 1.405 1_455 S
C286 H266 0.950 . S
C286 C285 1.405 1_655 S
C286 C287 1.367 . S
C287 H267 0.950 . S
C287 C282 1.386 1_655 S
C287 C286 1.367 . S
C288 C282 1.483 . S
C288 C289 1.382 . S
C288 C290 1.403 1_455 S
C289 H268 0.950 . S
C289 C288 1.382 . S
C289 C305 1.411 . S
C290 C288 1.403 1_655 S
C290 C291 1.489 . S
C290 C304 1.411 . S
C291 C290 1.489 . S
C291 C292 1.383 1_655 S
C291 C296 1.382 . S
C292 H269 0.950 . S
C292 C291 1.383 1_455 S
C292 C293 1.395 . S
C293 H270 0.950 . S
C293 C292 1.395 . S
C293 C294 1.288 1_455 S
C294 C293 1.288 1_655 S
C294 C295 1.392 . S
C295 H271 0.951 . S
C295 C294 1.392 . S
C295 C296 1.392 . S
C296 H272 0.949 . S
C296 C291 1.382 . S
C296 C295 1.392 . S
C297 C298 1.376 . S
C297 C302 1.386 1_655 S
C297 C303 1.483 . S
C298 H273 0.949 . S
C298 C297 1.376 . S
C298 C299 1.397 . S
C299 H274 0.950 . S
C299 C298 1.397 . S
C299 C300 1.399 . S
C300 C299 1.399 . S
C300 C301 1.390 1_655 S
C301 H275 0.950 . S
C301 C300 1.390 1_455 S
C301 C302 1.367 . S
C302 H276 0.950 . S
C302 C297 1.386 1_455 S
C302 C301 1.367 . S
C303 C297 1.483 . S
C303 C304 1.382 . S
C303 C305 1.403 1_655 S
C304 H277 0.950 . S
C304 C290 1.411 . S
C304 C303 1.382 . S
C305 C289 1.411 . S
C305 C303 1.403 1_455 S
C305 C306 1.489 . S
C306 C305 1.489 . S
C306 C307 1.383 1_455 S
C306 C311 1.382 . S
C307 H278 0.950 . S
C307 C306 1.383 1_655 S
C307 C308 1.395 . S
C308 H279 0.950 . S
C308 C307 1.395 . S
C308 C309 1.288 1_655 S
C309 C308 1.288 1_455 S
C309 C310 1.392 . S
C310 H280 0.951 . S
C310 C309 1.392 . S
C310 C311 1.392 . S
C311 H281 0.949 . S
C311 C306 1.382 . S
C311 C310 1.392 . S
H312 C331 0.949 . S
H313 C332 0.950 . S
H314 C334 0.950 . S
H315 C335 0.950 . S
H316 C337 0.950 . S
H317 C340 0.950 . S
H318 C341 0.950 . S
H319 C343 0.951 . S
H320 C344 0.949 . S
H321 C346 0.949 . S
H322 C347 0.950 . S
H323 C349 0.950 . S
H324 C350 0.950 . S
H325 C352 0.950 . S
H326 C355 0.950 . S
H327 C356 0.950 . S
H328 C358 0.951 . S
H329 C359 0.949 . S
C330 C331 1.376 . S
C330 C335 1.386 1_545 S
C330 C336 1.483 . S
C331 H312 0.949 . S
C331 C330 1.376 . S
C331 C332 1.397 . S
C332 H313 0.950 . S
C332 C331 1.397 . S
C332 C333 1.391 . S
C333 C332 1.391 . S
C333 C334 1.405 1_545 S
C334 H314 0.950 . S
C334 C333 1.405 1_565 S
C334 C335 1.367 . S
C335 H315 0.950 . S
C335 C330 1.386 1_565 S
C335 C334 1.367 . S
C336 C330 1.483 . S
C336 C337 1.382 . S
C336 C338 1.403 1_545 S
C337 H316 0.950 . S
C337 C336 1.382 . S
C337 C353 1.411 . S
C338 C336 1.403 1_565 S
C338 C339 1.489 . S
C338 C352 1.411 . S
C339 C338 1.489 . S
C339 C340 1.383 1_565 S
C339 C344 1.382 . S
C340 H317 0.950 . S
C340 C339 1.383 1_545 S
C340 C341 1.395 . S
C341 H318 0.950 . S
C341 C340 1.395 . S
C341 C342 1.288 1_545 S
C342 C341 1.288 1_565 S
C342 C343 1.392 . S
C343 H319 0.951 . S
C343 C342 1.392 . S
C343 C344 1.392 . S
C344 H320 0.949 . S
C344 C339 1.382 . S
C344 C343 1.392 . S
C345 C346 1.376 . S
C345 C350 1.386 1_565 S
C345 C351 1.483 . S
C346 H321 0.949 . S
C346 C345 1.376 . S
C346 C347 1.397 . S
C347 H322 0.950 . S
C347 C346 1.397 . S
C347 C348 1.412 . S
C348 C347 1.412 . S
C348 C349 1.394 1_565 S
C349 H323 0.950 . S
C349 C348 1.394 1_545 S
C349 C350 1.367 . S
C350 H324 0.950 . S
C350 C345 1.386 1_545 S
C350 C349 1.367 . S
C351 C345 1.483 . S
C351 C352 1.382 . S
C351 C353 1.403 1_565 S
C352 H325 0.950 . S
C352 C338 1.411 . S
C352 C351 1.382 . S
C353 C337 1.411 . S
C353 C351 1.403 1_545 S
C353 C354 1.489 . S
C354 C353 1.489 . S
C354 C355 1.383 1_545 S
C354 C359 1.382 . S
C355 H326 0.950 . S
C355 C354 1.383 1_565 S
C355 C356 1.395 . S
C356 H327 0.950 . S
C356 C355 1.395 . S
C356 C357 1.288 1_565 S
C357 C356 1.288 1_545 S
C357 C358 1.392 . S
C358 H328 0.951 . S
C358 C357 1.392 . S
C358 C359 1.392 . S
C359 H329 0.949 . S
C359 C354 1.382 . S
C359 C358 1.392 . S
H360 C379 0.949 . S
H361 C380 0.950 . S
H362 C382 0.950 . S
H363 C383 0.950 . S
H364 C385 0.950 . S
H365 C388 0.950 . S
H366 C389 0.950 . S
H367 C391 0.951 . S
H368 C392 0.949 . S
H369 C394 0.949 . S
H370 C395 0.950 . S
H371 C397 0.950 . S
H372 C398 0.950 . S
H373 C400 0.950 . S
H374 C403 0.950 . S
H375 C404 0.950 . S
H376 C406 0.951 . S
H377 C407 0.949 . S
C378 C379 1.376 . S
C378 C383 1.386 . S
C378 C384 1.483 . S
C379 H360 0.949 . S
C379 C378 1.376 . S
C379 C380 1.397 . S
C380 H361 0.950 . S
C380 C379 1.397 . S
C380 C381 1.391 . S
C381 C380 1.391 . S
C381 C382 1.405 . S
C382 H362 0.950 . S
C382 C381 1.405 . S
C382 C383 1.367 . S
C383 H363 0.950 . S
C383 C378 1.386 . S
C383 C382 1.367 . S
C384 C378 1.483 . S
C384 C385 1.382 . S
C384 C386 1.403 . S
C385 H364 0.950 . S
C385 C384 1.382 . S
C385 C401 1.411 . S
C386 C384 1.403 . S
C386 C387 1.489 . S
C386 C400 1.411 . S
C387 C386 1.489 . S
C387 C388 1.383 . S
C387 C392 1.382 . S
C388 H365 0.950 . S
C388 C387 1.383 . S
C388 C389 1.395 . S
C389 H366 0.950 . S
C389 C388 1.395 . S
C389 C390 1.288 . S
C390 C389 1.288 . S
C390 C391 1.392 . S
C391 H367 0.951 . S
C391 C390 1.392 . S
C391 C392 1.392 . S
C392 H368 0.949 . S
C392 C387 1.382 . S
C392 C391 1.392 . S
C393 C394 1.376 . S
C393 C398 1.386 . S
C393 C399 1.483 . S
C394 H369 0.949 . S
C394 C393 1.376 . S
C394 C395 1.397 . S
C395 H370 0.950 . S
C395 C394 1.397 . S
C395 C396 1.391 . S
C396 C395 1.391 . S
C396 C397 1.405 . S
C397 H371 0.950 . S
C397 C396 1.405 . S
C397 C398 1.367 . S
C398 H372 0.950 . S
C398 C393 1.386 . S
C398 C397 1.367 . S
C399 C393 1.483 . S
C399 C400 1.382 . S
C399 C401 1.403 . S
C400 H373 0.950 . S
C400 C386 1.411 . S
C400 C399 1.382 . S
C401 C385 1.411 . S
C401 C399 1.403 . S
C401 C402 1.489 . S
C402 C401 1.489 . S
C402 C403 1.383 . S
C402 C407 1.382 . S
C403 H374 0.950 . S
C403 C402 1.383 . S
C403 C404 1.395 . S
C404 H375 0.950 . S
C404 C403 1.395 . S
C404 C405 1.288 . S
C405 C404 1.288 . S
C405 C406 1.392 . S
C406 H376 0.951 . S
C406 C405 1.392 . S
C406 C407 1.392 . S
C407 H377 0.949 . S
C407 C402 1.382 . S
C407 C406 1.392 . S
C408 C409 1.391 . S
C408 C410 1.394 1_655 S
C408 H424 0.931 1_655 S
C409 C408 1.391 . S
C409 C413 1.376 . S
C410 C408 1.394 1_455 S
C410 C411 1.369 1_455 S
C410 C414 1.531 . S
C411 C410 1.369 1_655 S
C411 C412 1.410 . S
C411 C419 1.503 . S
C412 C411 1.410 . S
C412 C413 1.392 . S
C412 C415 1.511 . S
C413 C409 1.376 . S
C413 C412 1.392 . S
C413 H425 0.929 . S
C414 C410 1.531 . S
C414 H426 0.960 . S
C414 H427 0.962 . S
C414 H428 0.960 . S
C415 C412 1.511 . S
C415 H429 0.961 . S
C415 H430 0.961 . S
C415 H431 0.961 . S
C416 C417 1.370 1_455 S
C416 C418 1.363 1_455 S
C416 H432 0.931 . S
C417 C416 1.370 1_655 S
C417 C421 1.408 . S
C418 C416 1.363 1_655 S
C418 C419 1.370 . S
C418 C422 1.524 . S
C419 C411 1.503 . S
C419 C418 1.370 . S
C419 C420 1.403 . S
C420 C419 1.403 . S
C420 C421 1.404 . S
C420 C423 1.539 . S
C421 C417 1.408 . S
C421 C420 1.404 . S
C421 H433 0.930 . S
C422 C418 1.524 . S
C422 H434 0.956 1_655 S
C422 H435 0.961 . S
C422 H436 0.961 1_655 S
C423 C420 1.539 . S
C423 H437 0.958 . S
C423 H438 0.961 . S
C423 H439 0.960 . S
H424 C408 0.931 1_455 S
H425 C413 0.929 . S
H426 C414 0.960 . S
H427 C414 0.962 . S
H428 C414 0.960 . S
H429 C415 0.961 . S
H430 C415 0.961 . S
H431 C415 0.961 . S
H432 C416 0.931 . S
H433 C421 0.930 . S
H434 C422 0.956 1_455 S
H435 C422 0.961 . S
H436 C422 0.961 1_455 S
H437 C423 0.958 . S
H438 C423 0.961 . S
H439 C423 0.960 . S
C440 C441 1.391 . S
C440 C442 1.394 1_565 S
C440 H456 0.931 1_565 S
C441 C440 1.391 . S
C441 C445 1.376 . S
C442 C440 1.394 1_545 S
C442 C443 1.369 1_545 S
C442 C446 1.531 . S
C443 C442 1.369 1_565 S
C443 C444 1.410 . S
C443 C451 1.503 . S
C444 C443 1.410 . S
C444 C445 1.392 . S
C444 C447 1.511 . S
C445 C441 1.376 . S
C445 C444 1.392 . S
C445 H457 0.929 . S
C446 C442 1.531 . S
C446 H458 0.960 . S
C446 H459 0.962 . S
C446 H460 0.960 . S
C447 C444 1.511 . S
C447 H461 0.961 . S
C447 H462 0.961 . S
C447 H463 0.961 . S
C448 C449 1.370 . S
C448 C450 1.363 . S
C448 H464 0.931 . S
C449 C448 1.370 . S
C449 C453 1.408 1_565 S
C450 C448 1.363 . S
C450 C451 1.370 . S
C450 C454 1.524 . S
C451 C443 1.503 . S
C451 C450 1.370 . S
C451 C452 1.403 1_565 S
C452 C451 1.403 1_545 S
C452 C453 1.404 . S
C452 C455 1.539 . S
C453 C449 1.408 1_545 S
C453 C452 1.404 . S
C453 H465 0.930 . S
C454 C450 1.524 . S
C454 H466 0.956 . S
C454 H467 0.961 . S
C454 H468 0.961 . S
C455 C452 1.539 . S
C455 H469 0.958 . S
C455 H470 0.961 . S
C455 H471 0.960 1_545 S
H456 C440 0.931 1_545 S
H457 C445 0.929 . S
H458 C446 0.960 . S
H459 C446 0.962 . S
H460 C446 0.960 . S
H461 C447 0.961 . S
H462 C447 0.961 . S
H463 C447 0.961 . S
H464 C448 0.931 . S
H465 C453 0.930 . S
H466 C454 0.956 . S
H467 C454 0.961 . S
H468 C454 0.961 . S
H469 C455 0.958 . S
H470 C455 0.961 . S
H471 C455 0.960 1_565 S
C472 C473 1.391 . S
C472 C474 1.394 . S
C472 H488 0.931 . S
C473 C472 1.391 . S
C473 C477 1.376 . S
C474 C472 1.394 . S
C474 C475 1.369 . S
C474 C478 1.531 . S
C475 C474 1.369 . S
C475 C476 1.410 . S
C475 C483 1.503 . S
C476 C475 1.410 . S
C476 C477 1.392 . S
C476 C479 1.511 . S
C477 C473 1.376 . S
C477 C476 1.392 . S
C477 H489 0.929 . S
C478 C474 1.531 . S
C478 H490 0.960 . S
C478 H491 0.962 . S
C478 H492 0.960 . S
C479 C476 1.511 . S
C479 H493 0.961 . S
C479 H494 0.961 . S
C479 H495 0.961 . S
C480 C481 1.370 . S
C480 C482 1.363 . S
C480 H496 0.931 . S
C481 C480 1.370 . S
C481 C485 1.408 . S
C482 C480 1.363 . S
C482 C483 1.370 . S
C482 C486 1.524 . S
C483 C475 1.503 . S
C483 C482 1.370 . S
C483 C484 1.403 . S
C484 C483 1.403 . S
C484 C485 1.404 . S
C484 C487 1.539 . S
C485 C481 1.408 . S
C485 C484 1.404 . S
C485 H497 0.930 . S
C486 C482 1.524 . S
C486 H498 0.956 . S
C486 H499 0.961 . S
C486 H500 0.961 . S
C487 C484 1.539 . S
C487 H501 0.958 . S
C487 H502 0.961 . S
C487 H503 0.960 . S
H488 C472 0.931 . S
H489 C477 0.929 . S
H490 C478 0.960 . S
H491 C478 0.962 . S
H492 C478 0.960 . S
H493 C479 0.961 . S
H494 C479 0.961 . S
H495 C479 0.961 . S
H496 C480 0.931 . S
H497 C485 0.930 . S
H498 C486 0.956 . S
H499 C486 0.961 . S
H500 C486 0.961 . S
H501 C487 0.958 . S
H502 C487 0.961 . S
H503 C487 0.960 . S
C504 C505 1.391 . S
C504 C506 1.394 . S
C504 H520 0.931 . S
C505 C504 1.391 . S
C505 C509 1.376 . S
C506 C504 1.394 . S
C506 C507 1.369 . S
C506 C510 1.531 . S
C507 C506 1.369 . S
C507 C508 1.410 1_455 S
C507 C515 1.503 . S
C508 C507 1.410 1_655 S
C508 C509 1.392 1_655 S
C508 C511 1.511 . S
C509 C505 1.376 . S
C509 C508 1.392 1_455 S
C509 H521 0.929 1_455 S
C510 C506 1.531 . S
C510 H522 0.960 . S
C510 H523 0.962 . S
C510 H524 0.960 . S
C511 C508 1.511 . S
C511 H525 0.961 . S
C511 H526 0.961 . S
C511 H527 0.961 . S
C512 C513 1.370 . S
C512 C514 1.363 . S
C512 H528 0.931 . S
C513 C512 1.370 . S
C513 C517 1.408 1_455 S
C514 C512 1.363 . S
C514 C515 1.370 . S
C514 C518 1.524 . S
C515 C507 1.503 . S
C515 C514 1.370 . S
C515 C516 1.403 . S
C516 C515 1.403 . S
C516 C517 1.404 1_455 S
C516 C519 1.539 1_455 S
C517 C513 1.408 1_655 S
C517 C516 1.404 1_655 S
C517 H529 0.930 . S
C518 C514 1.524 . S
C518 H530 0.956 . S
C518 H531 0.961 . S
C518 H532 0.961 . S
C519 C516 1.539 1_655 S
C519 H533 0.958 1_655 S
C519 H534 0.961 . S
C519 H535 0.960 . S
H520 C504 0.931 . S
H521 C509 0.929 1_655 S
H522 C510 0.960 . S
H523 C510 0.962 . S
H524 C510 0.960 . S
H525 C511 0.961 . S
H526 C511 0.961 . S
H527 C511 0.961 . S
H528 C512 0.931 . S
H529 C517 0.930 . S
H530 C518 0.956 . S
H531 C518 0.961 . S
H532 C518 0.961 . S
H533 C519 0.958 1_455 S
H534 C519 0.961 . S
H535 C519 0.960 . S
C536 C537 1.391 . S
C536 C538 1.379 1_545 S
C536 H552 0.931 1_545 S
C537 C536 1.391 . S
C537 C541 1.376 . S
C538 C536 1.379 1_565 S
C538 C539 1.369 1_565 S
C538 C542 1.547 . S
C539 C538 1.369 1_545 S
C539 C540 1.410 . S
C539 C547 1.503 . S
C540 C539 1.410 . S
C540 C541 1.392 . S
C540 C543 1.511 . S
C541 C537 1.376 . S
C541 C540 1.392 . S
C541 H553 0.929 . S
C542 C538 1.547 . S
C542 H554 0.960 . S
C542 H555 0.962 . S
C542 H556 0.960 . S
C543 C540 1.511 . S
C543 H557 0.961 . S
C543 H558 0.961 . S
C543 H559 0.961 . S
C544 C545 1.370 . S
C544 C546 1.363 . S
C544 H560 0.931 . S
C545 C544 1.370 . S
C545 C549 1.408 1_545 S
C546 C544 1.363 . S
C546 C547 1.370 . S
C546 C550 1.524 . S
C547 C539 1.503 . S
C547 C546 1.370 . S
C547 C548 1.403 1_545 S
C548 C547 1.403 1_565 S
C548 C549 1.404 . S
C548 C551 1.539 . S
C549 C545 1.408 1_565 S
C549 C548 1.404 . S
C549 H561 0.930 . S
C550 C546 1.524 . S
C550 H562 0.956 . S
C550 H563 0.961 . S
C550 H564 0.961 . S
C551 C548 1.539 . S
C551 H565 0.958 . S
C551 H566 0.961 . S
C551 H567 0.960 . S
H552 C536 0.931 1_565 S
H553 C541 0.929 . S
H554 C542 0.960 . S
H555 C542 0.962 . S
H556 C542 0.960 . S
H557 C543 0.961 . S
H558 C543 0.961 . S
H559 C543 0.961 . S
H560 C544 0.931 . S
H561 C549 0.930 . S
H562 C550 0.956 . S
H563 C550 0.961 . S
H564 C550 0.961 . S
H565 C551 0.958 . S
H566 C551 0.961 . S
H567 C551 0.960 . S
C568 C569 1.391 . S
C568 C570 1.394 . S
C568 H584 0.931 . S
C569 C568 1.391 . S
C569 C573 1.376 . S
C570 C568 1.394 . S
C570 C571 1.369 . S
C570 C574 1.531 . S
C571 C570 1.369 . S
C571 C572 1.410 . S
C571 C579 1.503 . S
C572 C571 1.410 . S
C572 C573 1.392 . S
C572 C575 1.511 . S
C573 C569 1.376 . S
C573 C572 1.392 . S
C573 H585 0.929 . S
C574 C570 1.531 . S
C574 H586 0.960 . S
C574 H587 0.962 . S
C574 H588 0.960 . S
C575 C572 1.511 . S
C575 H589 0.961 . S
C575 H590 0.961 . S
C575 H591 0.961 . S
C576 C577 1.370 . S
C576 C578 1.363 . S
C576 H592 0.931 . S
C577 C576 1.370 . S
C577 C581 1.408 . S
C578 C576 1.363 . S
C578 C579 1.370 . S
C578 C582 1.524 . S
C579 C571 1.503 . S
C579 C578 1.370 . S
C579 C580 1.403 . S
C580 C579 1.403 . S
C580 C581 1.404 . S
C580 C583 1.539 . S
C581 C577 1.408 . S
C581 C580 1.404 . S
C581 H593 0.930 . S
C582 C578 1.524 . S
C582 H594 0.956 . S
C582 H595 0.961 . S
C582 H596 0.961 . S
C583 C580 1.539 . S
C583 H597 0.958 . S
C583 H598 0.961 . S
C583 H599 0.960 . S
H584 C568 0.931 . S
H585 C573 0.929 . S
H586 C574 0.960 . S
H587 C574 0.962 . S
H588 C574 0.960 . S
H589 C575 0.961 . S
H590 C575 0.961 . S
H591 C575 0.961 . S
H592 C576 0.931 . S
H593 C581 0.930 . S
H594 C582 0.956 . S
H595 C582 0.961 . S
H596 C582 0.961 . S
H597 C583 0.958 . S
H598 C583 0.961 . S
H599 C583 0.960 . S
C600 C601 1.391 . S
C600 C602 1.394 . S
C600 H616 0.931 . S
C601 C600 1.391 . S
C601 C605 1.376 . S
C602 C600 1.394 . S
C602 C603 1.369 . S
C602 C606 1.531 . S
C603 C602 1.369 . S
C603 C604 1.410 . S
C603 C611 1.503 . S
C604 C603 1.410 . S
C604 C605 1.392 . S
C604 C607 1.511 . S
C605 C601 1.376 . S
C605 C604 1.392 . S
C605 H617 0.929 . S
C606 C602 1.531 . S
C606 H618 0.960 1_545 S
C606 H619 0.962 . S
C606 H620 0.960 . S
C607 C604 1.511 . S
C607 H621 0.961 . S
C607 H622 0.961 . S
C607 H623 0.961 1_545 S
C608 C609 1.370 . S
C608 C610 1.363 . S
C608 H624 0.931 . S
C609 C608 1.370 . S
C609 C613 1.408 1_545 S
C610 C608 1.363 . S
C610 C611 1.370 . S
C610 C614 1.524 . S
C611 C603 1.503 . S
C611 C610 1.370 . S
C611 C612 1.403 1_545 S
C612 C611 1.403 1_565 S
C612 C613 1.404 . S
C612 C615 1.539 . S
C613 C609 1.408 1_565 S
C613 C612 1.404 . S
C613 H625 0.930 . S
C614 C610 1.524 . S
C614 H626 0.956 . S
C614 H627 0.961 . S
C614 H628 0.961 . S
C615 C612 1.539 . S
C615 H629 0.958 . S
C615 H630 0.961 . S
C615 H631 0.960 . S
H616 C600 0.931 . S
H617 C605 0.929 . S
H618 C606 0.960 1_565 S
H619 C606 0.962 . S
H620 C606 0.960 . S
H621 C607 0.961 . S
H622 C607 0.961 . S
H623 C607 0.961 1_565 S
H624 C608 0.931 . S
H625 C613 0.930 . S
H626 C614 0.956 . S
H627 C614 0.961 . S
H628 C614 0.961 . S
H629 C615 0.958 . S
H630 C615 0.961 . S
H631 C615 0.960 . S
C632 C633 1.391 . S
C632 C634 1.394 . S
C632 H648 0.931 . S
C633 C632 1.391 . S
C633 C637 1.376 . S
C634 C632 1.394 . S
C634 C635 1.369 . S
C634 C638 1.531 . S
C635 C634 1.369 . S
C635 C636 1.410 . S
C635 C643 1.503 . S
C636 C635 1.410 . S
C636 C637 1.392 . S
C636 C639 1.511 . S
C637 C633 1.376 . S
C637 C636 1.392 . S
C637 H649 0.929 . S
C638 C634 1.531 . S
C638 H650 0.960 . S
C638 H651 0.962 . S
C638 H652 0.960 . S
C639 C636 1.511 . S
C639 H653 0.961 . S
C639 H654 0.961 . S
C639 H655 0.961 . S
C640 C641 1.370 . S
C640 C642 1.363 . S
C640 H656 0.931 . S
C641 C640 1.370 . S
C641 C645 1.408 . S
C642 C640 1.363 . S
C642 C643 1.370 . S
C642 C646 1.524 . S
C643 C635 1.503 . S
C643 C642 1.370 . S
C643 C644 1.403 . S
C644 C643 1.403 . S
C644 C645 1.404 . S
C644 C647 1.539 . S
C645 C641 1.408 . S
C645 C644 1.404 . S
C645 H657 0.930 . S
C646 C642 1.524 . S
C646 H658 0.956 . S
C646 H659 0.961 . S
C646 H660 0.961 . S
C647 C644 1.539 . S
C647 H661 0.958 . S
C647 H662 0.961 . S
C647 H663 0.960 . S
H648 C632 0.931 . S
H649 C637 0.929 . S
H650 C638 0.960 . S
H651 C638 0.962 . S
H652 C638 0.960 . S
H653 C639 0.961 . S
H654 C639 0.961 . S
H655 C639 0.961 . S
H656 C640 0.931 . S
H657 C645 0.930 . S
H658 C646 0.956 . S
H659 C646 0.961 . S
H660 C646 0.961 . S
H661 C647 0.958 . S
H662 C647 0.961 . S
H663 C647 0.960 . S
C664 C665 1.391 . S
C664 C666 1.394 . S
C664 H680 0.931 . S
C665 C664 1.391 . S
C665 C669 1.376 . S
C666 C664 1.394 . S
C666 C667 1.369 . S
C666 C670 1.531 1_655 S
C667 C666 1.369 . S
C667 C668 1.410 . S
C667 C675 1.503 . S
C668 C667 1.410 . S
C668 C669 1.392 . S
C668 C671 1.511 . S
C669 C665 1.376 . S
C669 C668 1.392 . S
C669 H681 0.929 . S
C670 C666 1.531 1_455 S
C670 H682 0.960 . S
C670 H683 0.962 1_455 S
C670 H684 0.960 . S
C671 C668 1.511 . S
C671 H685 0.961 . S
C671 H686 0.961 . S
C671 H687 0.961 . S
C672 C673 1.370 . S
C672 C674 1.363 . S
C672 H688 0.931 . S
C673 C672 1.370 . S
C673 C677 1.408 1_655 S
C674 C672 1.363 . S
C674 C675 1.370 . S
C674 C678 1.524 . S
C675 C667 1.503 . S
C675 C674 1.370 . S
C675 C676 1.403 1_655 S
C676 C675 1.403 1_455 S
C676 C677 1.404 . S
C676 C679 1.539 . S
C677 C673 1.408 1_455 S
C677 C676 1.404 . S
C677 H689 0.930 . S
C678 C674 1.524 . S
C678 H690 0.956 . S
C678 H691 0.961 . S
C678 H692 0.961 . S
C679 C676 1.539 . S
C679 H693 0.958 . S
C679 H694 0.961 . S
C679 H695 0.960 . S
H680 C664 0.931 . S
H681 C669 0.929 . S
H682 C670 0.960 . S
H683 C670 0.962 1_655 S
H684 C670 0.960 . S
H685 C671 0.961 . S
H686 C671 0.961 . S
H687 C671 0.961 . S
H688 C672 0.931 . S
H689 C677 0.930 . S
H690 C678 0.956 . S
H691 C678 0.961 . S
H692 C678 0.961 . S
H693 C679 0.958 . S
H694 C679 0.961 . S
H695 C679 0.960 . S
C696 C697 1.391 . S
C696 C698 1.394 1_565 S
C696 H712 0.931 1_565 S
C697 C696 1.391 . S
C697 C701 1.376 . S
C698 C696 1.394 1_545 S
C698 C699 1.369 1_545 S
C698 C702 1.531 . S
C699 C698 1.369 1_565 S
C699 C700 1.410 . S
C699 C707 1.503 . S
C700 C699 1.410 . S
C700 C701 1.392 . S
C700 C703 1.511 . S
C701 C697 1.376 . S
C701 C700 1.392 . S
C701 H713 0.929 . S
C702 C698 1.531 . S
C702 H714 0.960 . S
C702 H715 0.962 . S
C702 H716 0.960 . S
C703 C700 1.511 . S
C703 H717 0.961 . S
C703 H718 0.961 . S
C703 H719 0.961 . S
C704 C705 1.370 . S
C704 C706 1.363 . S
C704 H720 0.931 . S
C705 C704 1.370 . S
C705 C709 1.408 1_565 S
C706 C704 1.363 . S
C706 C707 1.370 . S
C706 C710 1.524 . S
C707 C699 1.503 . S
C707 C706 1.370 . S
C707 C708 1.403 1_565 S
C708 C707 1.403 1_545 S
C708 C709 1.404 . S
C708 C711 1.539 . S
C709 C705 1.408 1_545 S
C709 C708 1.404 . S
C709 H721 0.930 . S
C710 C706 1.524 . S
C710 H722 0.956 . S
C710 H723 0.961 . S
C710 H724 0.961 . S
C711 C708 1.539 . S
C711 H725 0.958 . S
C711 H726 0.961 . S
C711 H727 0.960 . S
H712 C696 0.931 1_545 S
H713 C701 0.929 . S
H714 C702 0.960 . S
H715 C702 0.962 . S
H716 C702 0.960 . S
H717 C703 0.961 . S
H718 C703 0.961 . S
H719 C703 0.961 . S
H720 C704 0.931 . S
H721 C709 0.930 . S
H722 C710 0.956 . S
H723 C710 0.961 . S
H724 C710 0.961 . S
H725 C711 0.958 . S
H726 C711 0.961 . S
H727 C711 0.960 . S
C728 C729 1.391 . S
C728 C730 1.394 . S
C728 H744 0.931 . S
C729 C728 1.391 . S
C729 C733 1.376 . S
C730 C728 1.394 . S
C730 C731 1.369 . S
C730 C734 1.531 . S
C731 C730 1.369 . S
C731 C732 1.410 . S
C731 C739 1.503 . S
C732 C731 1.410 . S
C732 C733 1.392 . S
C732 C735 1.511 . S
C733 C729 1.376 . S
C733 C732 1.392 . S
C733 H745 0.929 . S
C734 C730 1.531 . S
C734 H746 0.960 . S
C734 H747 0.962 . S
C734 H748 0.960 . S
C735 C732 1.511 . S
C735 H749 0.961 . S
C735 H750 0.961 . S
C735 H751 0.961 . S
C736 C737 1.370 . S
C736 C738 1.363 . S
C736 H752 0.931 . S
C737 C736 1.370 . S
C737 C741 1.408 . S
C738 C736 1.363 . S
C738 C739 1.370 . S
C738 C742 1.524 . S
C739 C731 1.503 . S
C739 C738 1.370 . S
C739 C740 1.403 . S
C740 C739 1.403 . S
C740 C741 1.404 . S
C740 C743 1.539 . S
C741 C737 1.408 . S
C741 C740 1.404 . S
C741 H753 0.930 . S
C742 C738 1.524 . S
C742 H754 0.956 . S
C742 H755 0.961 . S
C742 H756 0.961 . S
C743 C740 1.539 . S
C743 H757 0.958 . S
C743 H758 0.961 . S
C743 H759 0.960 . S
H744 C728 0.931 . S
H745 C733 0.929 . S
H746 C734 0.960 . S
H747 C734 0.962 . S
H748 C734 0.960 . S
H749 C735 0.961 . S
H750 C735 0.961 . S
H751 C735 0.961 . S
H752 C736 0.931 . S
H753 C741 0.930 . S
H754 C742 0.956 . S
H755 C742 0.961 . S
H756 C742 0.961 . S
H757 C743 0.958 . S
H758 C743 0.961 . S
H759 C743 0.960 . S
C760 C761 1.391 . S
C760 C762 1.394 . S
C760 H776 0.931 . S
C761 C760 1.391 . S
C761 C765 1.376 . S
C762 C760 1.394 . S
C762 C763 1.369 . S
C762 C766 1.531 . S
C763 C762 1.369 . S
C763 C764 1.410 1_455 S
C763 C771 1.503 . S
C764 C763 1.410 1_655 S
C764 C765 1.392 1_655 S
C764 C767 1.511 . S
C765 C761 1.376 . S
C765 C764 1.392 1_455 S
C765 H777 0.929 1_455 S
C766 C762 1.531 . S
C766 H778 0.960 . S
C766 H779 0.962 . S
C766 H780 0.960 . S
C767 C764 1.511 . S
C767 H781 0.961 . S
C767 H782 0.961 . S
C767 H783 0.961 . S
C768 C769 1.370 . S
C768 C770 1.363 . S
C768 H784 0.931 . S
C769 C768 1.370 . S
C769 C773 1.408 . S
C770 C768 1.363 . S
C770 C771 1.370 . S
C770 C774 1.524 . S
C771 C763 1.503 . S
C771 C770 1.370 . S
C771 C772 1.403 . S
C772 C771 1.403 . S
C772 C773 1.404 . S
C772 C775 1.539 . S
C773 C769 1.408 . S
C773 C772 1.404 . S
C773 H785 0.930 . S
C774 C770 1.524 . S
C774 H786 0.956 . S
C774 H787 0.961 . S
C774 H788 0.961 . S
C775 C772 1.539 . S
C775 H789 0.958 . S
C775 H790 0.961 1_455 S
C775 H791 0.960 . S
H776 C760 0.931 . S
H777 C765 0.929 1_655 S
H778 C766 0.960 . S
H779 C766 0.962 . S
H780 C766 0.960 . S
H781 C767 0.961 . S
H782 C767 0.961 . S
H783 C767 0.961 . S
H784 C768 0.931 . S
H785 C773 0.930 . S
H786 C774 0.956 . S
H787 C774 0.961 . S
H788 C774 0.961 . S
H789 C775 0.958 . S
H790 C775 0.961 1_655 S
H791 C775 0.960 . S
C417 C285 1.475 1_655 S
C409 C29 1.455 . S
C441 C137 1.442 . S
C449 C333 1.477 1_565 S
C473 C225 1.462 . S
C481 C405 1.454 . S
C505 C49 1.446 . S
C513 C309 1.460 . S
C545 C357 1.458 . S
C537 C117 1.434 . S
C569 C205 1.435 . S
C577 C381 1.477 . S
C609 C342 1.477 1_545 S
C601 C233 1.429 . S
C633 C57 1.456 . S
C641 C396 1.466 . S
C673 C300 1.482 . S
C665 C108 1.429 . S
C705 C348 1.463 . S
C697 C196 1.440 . S
C737 C390 1.478 . S
C729 C20 1.458 . S
C761 C145 1.451 . S
C769 C294 1.478 1_455 S
