# Generated by pormake.
# Topology anh, (6,3)-cn, num edge types: 1
# Building blocks:
#     Node 0, Type 0, BuildingBlock: CUKXOW_clean_sbu_0, # of connection points: 6
#     Node 1, Type 0, BuildingBlock: CUKXOW_clean_sbu_0, # of connection points: 6
#     Node 2, Type 0, BuildingBlock: CUKXOW_clean_sbu_0, # of connection points: 6
#     Node 3, Type 1, BuildingBlock: BETDAH_clean_linker_0, # of connection points: 3
#     Node 4, Type 1, BuildingBlock: BETDAH_clean_linker_0, # of connection points: 3
#     Node 5, Type 1, BuildingBlock: BETDAH_clean_linker_0, # of connection points: 3
#     Node 6, Type 1, BuildingBlock: BETDAH_clean_linker_0, # of connection points: 3
#     Node 7, Type 1, BuildingBlock: BETDAH_clean_linker_0, # of connection points: 3
#     Node 8, Type 1, BuildingBlock: BETDAH_clean_linker_0, # of connection points: 3
#     Edge 9, Type (0, 1), BuildingBlock: AJUNOK_clean_linker_0, # of connection points: 2
#     Edge 10, Type (0, 1), BuildingBlock: AJUNOK_clean_linker_0, # of connection points: 2
#     Edge 11, Type (0, 1), BuildingBlock: AJUNOK_clean_linker_0, # of connection points: 2
#     Edge 12, Type (0, 1), BuildingBlock: AJUNOK_clean_linker_0, # of connection points: 2
#     Edge 13, Type (0, 1), BuildingBlock: AJUNOK_clean_linker_0, # of connection points: 2
#     Edge 14, Type (0, 1), BuildingBlock: AJUNOK_clean_linker_0, # of connection points: 2
#     Edge 15, Type (0, 1), BuildingBlock: AJUNOK_clean_linker_0, # of connection points: 2
#     Edge 16, Type (0, 1), BuildingBlock: AJUNOK_clean_linker_0, # of connection points: 2
#     Edge 17, Type (0, 1), BuildingBlock: AJUNOK_clean_linker_0, # of connection points: 2
#     Edge 18, Type (0, 1), BuildingBlock: AJUNOK_clean_linker_0, # of connection points: 2
#     Edge 19, Type (0, 1), BuildingBlock: AJUNOK_clean_linker_0, # of connection points: 2
#     Edge 20, Type (0, 1), BuildingBlock: AJUNOK_clean_linker_0, # of connection points: 2
#     Edge 21, Type (0, 1), BuildingBlock: AJUNOK_clean_linker_0, # of connection points: 2
#     Edge 22, Type (0, 1), BuildingBlock: AJUNOK_clean_linker_0, # of connection points: 2
#     Edge 23, Type (0, 1), BuildingBlock: AJUNOK_clean_linker_0, # of connection points: 2
#     Edge 24, Type (0, 1), BuildingBlock: AJUNOK_clean_linker_0, # of connection points: 2
#     Edge 25, Type (0, 1), BuildingBlock: AJUNOK_clean_linker_0, # of connection points: 2
#     Edge 26, Type (0, 1), BuildingBlock: AJUNOK_clean_linker_0, # of connection points: 2
# Relax obj value: 0.076
# Max RMSD: 0.146
# Mean RMSD: 0.087
data_MOF--net-anh--node1-CUKXOW_clean_sbu_0--node2-BETDAH_clean_linker_0--edge1-AJUNOK_clean_linker_0
_symmetry_space_group_name_H-M    P1
_symmetry_Int_Tables_number       1
_symmetry_cell_setting            triclinic
loop_
_symmetry_equiv_pos_as_xyz
'x, y, z'
_cell_length_a     20.924623
_cell_length_b     20.554467
_cell_length_c     34.730536
_cell_angle_alpha  96.993035
_cell_angle_beta   91.987347
_cell_angle_gamma 109.25591
loop_
_atom_site_label
_atom_site_type_symbol
_atom_site_fract_x
_atom_site_fract_y
_atom_site_fract_z
_atom_type_partial_charge
Tb0 Tb 0.10443 0.57862 0.15866 0.0
C1 C 0.05766 0.5312 0.23953 0.0
Tb2 Tb 1.02249 0.42277 0.16243 0.0
O3 O 1.0179 0.61548 0.14701 0.0
O4 O 1.00254 0.5133 0.15225 0.0
O5 O 0.10014 0.57846 0.22112 0.0
C6 C 0.92214 0.30477 0.16683 0.0
O7 O 1.01937 0.46857 0.22211 0.0
C8 C 0.15563 0.45438 0.15888 0.0
C9 C 0.06638 0.46777 0.08175 0.0
O10 O 0.98232 0.32304 0.18482 0.0
O11 O 0.91913 0.35269 0.1465 0.0
O12 O 0.11114 0.39342 0.14639 0.0
O13 O 0.12459 0.49145 0.17627 0.0
O14 O 1.02284 0.42157 0.10011 0.0
O15 O 0.10563 0.53006 0.09931 0.0
C16 C 0.21634 0.68889 0.15971 0.0
O17 O 0.20506 0.62816 0.13969 0.0
O18 O 0.16326 0.68828 0.17825 0.0
C19 C 0.97117 0.55484 0.14659 0.0
Tb20 Tb 0.53836 0.02544 0.50261 0.0
C21 C 0.60285 0.05704 0.42216 0.0
Tb22 Tb 0.69066 0.11967 0.50315 0.0
O23 O 0.51073 0.11629 0.52454 0.0
O24 O 0.5934 0.12765 0.49115 0.0
O25 O 0.54926 0.0241 0.44037 0.0
C26 C 0.79075 0.24103 0.50924 0.0
O27 O 0.66177 0.09881 0.44043 0.0
C28 C 0.67853 0.98778 0.50728 0.0
C29 C 0.62525 0.07949 0.58226 0.0
O30 O 0.78844 0.18509 0.48633 0.0
O31 O 0.73789 0.22757 0.52924 0.0
O32 O 0.73675 0.0367 0.50586 0.0
O33 O 0.63466 0.01721 0.50703 0.0
O34 O 0.67182 0.12562 0.56504 0.0
O35 O 0.57441 0.02794 0.56228 0.0
C36 C 0.42493 0.9158 0.49122 0.0
O37 O 0.43037 0.97637 0.50979 0.0
O38 O 0.48307 0.9174 0.47889 0.0
C39 C 0.56216 0.16081 0.51138 0.0
Tb40 Tb 0.53718 0.60942 0.82705 0.0
C41 C 0.59689 0.62321 0.91281 0.0
Tb42 Tb 0.68577 0.63999 0.83938 0.0
O43 O 0.51813 0.50571 0.84343 0.0
O44 O 0.60352 0.55194 0.81524 0.0
O45 O 0.54206 0.61833 0.89058 0.0
C46 C 0.79661 0.6118 0.85783 0.0
O47 O 0.65689 0.63228 0.89882 0.0
C48 C 0.65426 0.75133 0.83482 0.0
C49 C 0.62532 0.62691 0.75547 0.0
O50 O 0.73799 0.58606 0.87115 0.0
O51 O 0.79396 0.65596 0.83455 0.0
O52 O 0.71323 0.74668 0.82743 0.0
O53 O 0.62043 0.69922 0.85011 0.0
O54 O 0.67024 0.6113 0.77687 0.0
O55 O 0.57417 0.64151 0.77154 0.0
C56 C 0.40888 0.58864 0.80253 0.0
O57 O 0.4486 0.55874 0.78639 0.0
O58 O 0.44224 0.6323 0.83266 0.0
C59 C 0.5742 0.50008 0.8316 0.0
H60 H 0.45894 0.90887 0.26234 0.0
H61 H 0.65591 0.04122 0.2378 0.0
H62 H 0.51929 0.90106 0.14536 0.0
C63 C 0.49586 0.92824 0.24169 0.0
C64 C 0.48099 0.89949 0.20232 0.0
C65 C 0.55843 0.98017 0.25479 0.0
C66 C 0.60727 1.00183 0.22795 0.0
C67 C 0.59322 0.97224 0.18849 0.0
C68 C 0.53019 0.92185 0.17599 0.0
N69 N 0.64122 0.99135 0.16051 0.0
C70 C 0.69757 0.05149 0.16602 0.0
H71 H 0.61822 0.45765 0.59945 0.0
H72 H 0.63079 0.65707 0.56874 0.0
H73 H 0.60259 0.48372 0.47867 0.0
C74 C 0.61822 0.49022 0.57712 0.0
C75 C 0.60964 0.4612 0.53773 0.0
C76 C 0.62482 0.56016 0.58834 0.0
C77 C 0.6252 0.60298 0.55983 0.0
C78 C 0.61824 0.57605 0.5201 0.0
C79 C 0.6101 0.50497 0.50924 0.0
N80 N 0.61781 0.61863 0.4906 0.0
C81 C 0.62904 0.69026 0.49751 0.0
H82 H 0.99868 0.49574 0.93457 0.0
H83 H 0.10656 0.36142 0.88981 0.0
H84 H 0.99345 0.4375 0.81108 0.0
C85 C 1.0135 0.4676 0.90992 0.0
C86 C 0.99058 0.47073 0.87222 0.0
C87 C 0.05422 0.42774 0.9165 0.0
C88 C 0.07357 0.39116 0.88494 0.0
C89 C 0.05198 0.3955 0.84683 0.0
C90 C 1.01017 0.43483 0.84055 0.0
N91 N 0.07968 0.36872 0.81482 0.0
C92 C 0.13715 0.41384 0.80191 0.0
H93 H 0.18532 0.68175 0.39543 0.0
H94 H 0.99953 0.53811 0.42683 0.0
H95 H 0.14482 0.67992 0.51561 0.0
C96 C 0.15235 0.66016 0.41749 0.0
C97 C 0.17264 0.68601 0.4567 0.0
C98 C 0.08947 0.60793 0.40635 0.0
C99 C 1.04794 0.5789 0.43521 0.0
C100 C 0.06816 0.60535 0.47484 0.0
C101 C 0.12968 0.65956 0.48516 0.0
N102 N 1.02768 0.58009 0.50519 0.0
C103 C 0.97929 0.51435 0.50202 0.0
H104 H 0.62388 0.24438 0.73994 0.0
H105 H 0.60989 0.04283 0.76875 0.0
H106 H 0.59103 0.20015 0.85687 0.0
C107 C 0.61923 0.20929 0.76141 0.0
C108 C 0.60977 0.23121 0.79999 0.0
C109 C 0.61905 0.14135 0.74977 0.0
C110 C 0.60977 0.09515 0.77749 0.0
C111 C 0.59925 0.11638 0.81621 0.0
C112 C 0.59923 0.18413 0.82707 0.0
N113 N 0.58712 0.07082 0.84482 0.0
C114 C 0.59507 1.006 0.83954 0.0
H115 H 0.71136 0.55607 0.06146 0.0
H116 H 0.5105 0.55236 0.08819 0.0
H117 H 0.64239 0.51312 0.17377 0.0
C118 C 0.67187 0.54865 0.08156 0.0
C119 C 0.68501 0.53343 0.11876 0.0
C120 C 0.60946 0.55618 0.07021 0.0
C121 C 0.55806 0.54557 0.09636 0.0
C122 C 0.56886 0.52892 0.13362 0.0
C123 C 0.63311 0.52433 0.14482 0.0
N124 N 0.51736 0.5183 0.16079 0.0
C125 C 0.44907 0.51351 0.15364 0.0
C126 C 0.27857 0.52876 0.18042 0.0
C127 C 0.231 0.47372 0.1552 0.0
C128 C 0.34947 0.54284 0.17905 0.0
C129 C 0.37584 0.50333 0.15198 0.0
H130 H 0.26092 0.55989 0.20215 0.0
H131 H 0.38386 0.58423 0.19984 0.0
S132 S 0.27419 0.35811 0.07718 0.0
N133 N 0.21674 0.38247 0.10073 0.0
N134 N 0.3488 0.40968 0.09806 0.0
C135 C 0.32915 0.45019 0.12575 0.0
C136 C 0.2572 0.4353 0.12735 0.0
C137 C 0.89475 0.32067 0.48512 0.0
C138 C 0.8399 0.31121 0.50865 0.0
C139 C 0.93985 0.38752 0.48254 0.0
C140 C 0.93081 0.44646 0.50314 0.0
H141 H 0.9028 0.27627 0.46853 0.0
H142 H 0.98204 0.39309 0.46449 0.0
S143 S 0.79502 0.45068 0.56786 0.0
N144 N 0.77916 0.36716 0.55265 0.0
N145 N 0.86376 0.4925 0.5472 0.0
C146 C 0.87635 0.4381 0.5265 0.0
C147 C 0.83082 0.37033 0.52945 0.0
C148 C 0.58079 0.8232 0.85234 0.0
C149 C 0.63676 0.81498 0.83359 0.0
C150 C 0.56638 0.88542 0.85351 0.0
C151 C 0.60717 0.94064 0.8357 0.0
H152 H 0.54889 0.78204 0.86694 0.0
H153 H 0.52388 0.89076 0.86898 0.0
S154 S 0.75596 0.94386 0.78051 0.0
N155 N 0.73065 0.86634 0.79497 0.0
N156 N 0.70323 0.98301 0.79747 0.0
C157 C 0.66172 0.93254 0.81592 0.0
C158 C 0.67659 0.86956 0.81474 0.0
C159 C 0.86993 0.59162 0.16186 0.0
C160 C 0.89585 0.54187 0.14299 0.0
C161 C 0.80092 0.58604 0.15591 0.0
C162 C 0.75471 0.53131 0.13001 0.0
H163 H 0.90374 0.63624 0.18097 0.0
H164 H 0.78437 0.62675 0.17036 0.0
S165 S 0.79633 0.3881 0.07242 0.0
N166 N 0.86887 0.43574 0.09728 0.0
N167 N 0.74046 0.42621 0.08524 0.0
C168 C 0.77978 0.48082 0.11122 0.0
C169 C 0.84977 0.48574 0.11794 0.0
C170 C 0.30126 0.86093 0.49743 0.0
C171 C 0.36213 0.85529 0.4841 0.0
C172 C 0.24019 0.80507 0.48938 0.0
C173 C 0.2382 0.74213 0.46758 0.0
H174 H 0.30053 0.90913 0.51365 0.0
H175 H 0.19394 0.81177 0.49933 0.0
S176 S 0.38433 0.69896 0.42885 0.0
N177 N 0.41741 0.78041 0.45011 0.0
N178 N 0.3023 0.67551 0.4349 0.0
C179 C 0.29894 0.73513 0.45506 0.0
C180 C 0.3611 0.79177 0.46337 0.0
C181 C 0.54227 0.37446 0.83846 0.0
C182 C 0.5886 0.43403 0.82659 0.0
C183 C 0.55069 0.30944 0.83081 0.0
C184 C 0.60597 0.3017 0.81118 0.0
H185 H 0.49797 0.37754 0.85278 0.0
H186 H 0.5123 0.2645 0.83913 0.0
S187 S 0.74609 0.44292 0.77821 0.0
N188 N 0.69444 0.48208 0.79675 0.0
N189 N 0.7112 0.36007 0.78332 0.0
C190 C 0.65445 0.36142 0.80082 0.0
C191 C 0.64561 0.42759 0.80836 0.0
C192 C 0.6042 0.86572 0.51466 0.0
C193 C 0.66691 0.91182 0.50596 0.0
C194 C 0.59216 0.79357 0.51237 0.0
C195 C 0.64266 0.76515 0.50165 0.0
H196 H 0.56434 0.8855 0.52363 0.0
H197 H 0.54295 0.75987 0.51884 0.0
S198 S 0.81602 0.86259 0.47737 0.0
N199 N 0.78053 0.92297 0.48713 0.0
N200 N 0.75779 0.78813 0.48316 0.0
C201 C 0.70574 0.81048 0.49364 0.0
C202 C 0.718 0.88366 0.49584 0.0
C203 C 0.84142 0.53139 0.88719 0.0
C204 C 0.85074 0.58234 0.86243 0.0
C205 C 0.88647 0.49499 0.88937 0.0
C206 C 0.94298 0.50858 0.86717 0.0
H207 H 0.79807 0.51824 0.90453 0.0
H208 H 0.87667 0.4554 0.90847 0.0
S209 S 0.99129 0.63814 0.79856 0.0
N210 N 0.92059 0.64526 0.81534 0.0
N211 N 1.00721 0.5773 0.82028 0.0
C212 C 0.95361 0.55986 0.84252 0.0
C213 C 0.90715 0.59697 0.84011 0.0
C214 C 0.29008 0.80715 0.19039 0.0
C215 C 0.28319 0.74452 0.16655 0.0
C216 C 0.35415 0.85737 0.20127 0.0
C217 C 0.41368 0.8466 0.18887 0.0
H218 H 0.2458 0.81691 0.20141 0.0
H219 H 0.35712 0.90482 0.21981 0.0
S220 S 0.423 0.69094 0.12601 0.0
N221 N 0.34104 0.67484 0.13014 0.0
N222 N 0.46153 0.76827 0.15156 0.0
C223 C 0.40735 0.78457 0.16447 0.0
C224 C 0.34206 0.73376 0.15308 0.0
C225 C 0.54036 0.26624 0.54317 0.0
C226 C 0.57512 0.23734 0.51587 0.0
C227 C 0.55066 0.33783 0.54895 0.0
C228 C 0.59643 0.38443 0.5278 0.0
H229 H 0.50504 0.2333 0.56063 0.0
H230 H 0.52247 0.35691 0.5705 0.0
S231 S 0.69763 0.33497 0.45098 0.0
N232 N 0.65468 0.26044 0.46571 0.0
N233 N 0.67554 0.39551 0.47734 0.0
C234 C 0.6305 0.35609 0.49963 0.0
C235 C 0.61972 0.28264 0.49361 0.0
C236 C 0.29438 0.56792 0.82641 0.0
C237 C 0.33454 0.55801 0.79616 0.0
C238 C 0.22769 0.52264 0.8267 0.0
C239 C 0.1996 0.46689 0.79668 0.0
H240 H 0.31614 0.60706 0.85149 0.0
H241 H 0.19947 0.52871 0.8517 0.0
S242 S 0.27894 0.4262 0.70769 0.0
N243 N 0.33793 0.49428 0.73277 0.0
N244 N 0.21237 0.40899 0.73383 0.0
C245 C 0.23658 0.46019 0.76465 0.0
C246 C 0.30432 0.50623 0.7642 0.0
C247 C 0.80542 0.22575 0.14432 0.0
C248 C 0.86538 0.23982 0.1683 0.0
C249 C 0.7506 0.16426 0.14418 0.0
C250 C 0.75395 0.11516 0.16809 0.0
H251 H 0.80088 0.2622 0.12522 0.0
H252 H 0.70552 0.15487 0.12502 0.0
S253 S 0.89752 0.12736 0.23707 0.0
N254 N 0.92393 0.19983 0.21724 0.0
N255 N 0.82003 0.08394 0.21688 0.0
C256 C 0.81275 0.12847 0.19256 0.0
C257 C 0.86886 0.19107 0.19269 0.0
C258 C 0.11847 0.49711 0.01961 0.0
C259 C 0.07152 0.44938 0.03959 0.0
C260 C 0.11885 0.4853 0.97911 0.0
C261 C 0.07291 0.42511 0.95724 0.0
H262 H 0.15294 0.54577 0.03498 0.0
H263 H 0.15149 0.52604 0.96451 0.0
S264 S 0.94639 0.27933 0.99503 0.0
N265 N 0.98297 0.33537 0.03417 0.0
N266 N 0.98409 0.31438 0.95791 0.0
C267 C 1.02983 0.37435 0.9768 0.0
C268 C 1.02898 0.3862 0.01806 0.0
C269 C 0.64571 0.03383 0.35737 0.0
C270 C 0.595 0.04714 0.37925 0.0
C271 C 0.63469 0.01473 0.31681 0.0
C272 C 0.57292 0.00922 0.29682 0.0
H273 H 0.69277 0.0348 0.37186 0.0
H274 H 0.67363 1.0013 0.30128 0.0
S275 S 0.42937 0.05137 0.34046 0.0
N276 N 0.48423 0.06119 0.37786 0.0
N277 N 0.46446 0.02814 0.30167 0.0
C278 C 0.52392 0.02729 0.31828 0.0
C279 C 0.53472 0.04551 0.35949 0.0
C280 C 0.67799 0.59401 0.69611 0.0
C281 C 0.62863 0.61938 0.71258 0.0
C282 C 0.67799 0.57774 0.65582 0.0
C283 C 0.62917 0.58684 0.63028 0.0
H284 H 0.71579 0.58415 0.71442 0.0
H285 H 0.71551 0.55616 0.64456 0.0
S286 S 0.49184 0.65609 0.65765 0.0
N287 N 0.53174 0.65649 0.6996 0.0
N288 N 0.53215 0.62578 0.62368 0.0
C289 C 0.58147 0.61513 0.64597 0.0
C290 C 0.58108 0.6314 0.68715 0.0
C291 C 0.67638 0.14765 0.64733 0.0
C292 C 0.62791 0.0886 0.62557 0.0
C293 C 0.67496 0.16252 0.68769 0.0
C294 C 0.62518 0.11894 0.70809 0.0
H295 H 0.71458 0.18425 0.63303 0.0
H296 H 0.7122 0.20961 0.70295 0.0
S297 S 0.48963 0.95495 0.66578 0.0
N298 N 0.53128 0.98345 0.62832 0.0
N299 N 0.52811 0.01254 0.70397 0.0
C300 C 0.57832 0.05807 0.68715 0.0
C301 C 0.57976 0.04268 0.64598 0.0
C302 C 0.64962 0.64836 0.98084 0.0
C303 C 0.59242 0.61388 0.95449 0.0
C304 C 0.65318 0.63121 0.0185 0.0
C305 C 0.60012 0.57796 0.03141 0.0
H306 H 0.69311 0.6877 0.97187 0.0
H307 H 0.69882 0.65892 0.03739 0.0
S308 S 0.43801 0.47286 0.97401 0.0
N309 N 0.48011 0.52593 0.94435 0.0
N310 N 0.48728 0.49227 0.01491 0.0
C311 C 0.5413 0.54485 0.00588 0.0
C312 C 0.53737 0.56309 0.9675 0.0
C313 C 1.04727 0.49806 0.30682 0.0
C314 C 0.05551 0.54892 0.28189 0.0
C315 C 0.05408 0.51644 0.34749 0.0
C316 C 0.06865 0.58606 0.36427 0.0
H317 H 1.03902 0.44445 0.29493 0.0
H318 H 0.0515 0.47674 0.36581 0.0
S319 S 0.08214 0.73607 0.31167 0.0
N320 N 0.07037 0.66991 0.27691 0.0
N321 N 0.08183 0.70403 0.35303 0.0
C322 C 0.07169 0.63616 0.33957 0.0
C323 C 0.06555 0.61772 0.29843 0.0
loop_
_geom_bond_atom_site_label_1
_geom_bond_atom_site_label_2
_geom_bond_distance
_geom_bond_site_symmetry_2
_ccdc_geom_bond_type
Tb0 O3 2.453 1_455 S
Tb0 O4 2.596 1_455 S
Tb0 O5 2.374 . S
Tb0 O13 2.343 . S
Tb0 O15 2.353 . S
Tb0 O17 2.427 . S
Tb0 O18 2.513 . S
C1 O5 1.251 . S
C1 O7 1.263 . S
Tb2 O4 2.343 1_455 S
Tb2 O7 2.353 . S
Tb2 O10 2.427 1_455 S
Tb2 O11 2.513 1_455 S
Tb2 O12 2.453 . S
Tb2 O13 2.596 . S
Tb2 O14 2.374 . S
O3 Tb0 2.453 1_655 S
O3 C19 1.245 . S
O4 Tb0 2.596 1_655 S
O4 Tb2 2.343 1_655 S
O4 C19 1.259 . S
O5 Tb0 2.374 . S
O5 C1 1.251 . S
C6 O10 1.275 . S
C6 O11 1.246 . S
O7 C1 1.263 . S
O7 Tb2 2.353 . S
C8 O12 1.245 . S
C8 O13 1.259 . S
C9 O14 1.250 . S
C9 O15 1.263 . S
O10 Tb2 2.427 1_655 S
O10 C6 1.275 . S
O11 Tb2 2.513 1_655 S
O11 C6 1.246 . S
O12 Tb2 2.453 . S
O12 C8 1.245 . S
O13 Tb0 2.343 . S
O13 Tb2 2.596 . S
O13 C8 1.259 . S
O14 Tb2 2.374 . S
O14 C9 1.250 . S
O15 Tb0 2.353 . S
O15 C9 1.263 . S
C16 O17 1.275 . S
C16 O18 1.246 . S
O17 Tb0 2.427 . S
O17 C16 1.275 . S
O18 Tb0 2.513 . S
O18 C16 1.246 . S
C19 O3 1.245 . S
C19 O4 1.259 . S
Tb20 O23 2.453 . S
Tb20 O24 2.596 . S
Tb20 O25 2.374 . S
Tb20 O33 2.343 1_545 S
Tb20 O35 2.353 . S
Tb20 O37 2.427 1_545 S
Tb20 O38 2.513 1_545 S
C21 O25 1.251 . S
C21 O27 1.263 . S
Tb22 O24 2.343 . S
Tb22 O27 2.353 . S
Tb22 O30 2.427 . S
Tb22 O31 2.513 . S
Tb22 O32 2.453 1_545 S
Tb22 O33 2.596 1_545 S
Tb22 O34 2.374 . S
O23 Tb20 2.453 . S
O23 C39 1.245 . S
O24 Tb20 2.596 . S
O24 Tb22 2.343 . S
O24 C39 1.259 . S
O25 Tb20 2.374 . S
O25 C21 1.251 . S
C26 O30 1.275 . S
C26 O31 1.246 . S
O27 C21 1.263 . S
O27 Tb22 2.353 . S
C28 O32 1.245 . S
C28 O33 1.259 . S
C29 O34 1.250 . S
C29 O35 1.263 . S
O30 Tb22 2.427 . S
O30 C26 1.275 . S
O31 Tb22 2.513 . S
O31 C26 1.246 . S
O32 Tb22 2.453 1_565 S
O32 C28 1.245 . S
O33 Tb20 2.343 1_565 S
O33 Tb22 2.596 1_565 S
O33 C28 1.259 . S
O34 Tb22 2.374 . S
O34 C29 1.250 . S
O35 Tb20 2.353 . S
O35 C29 1.263 . S
C36 O37 1.275 . S
C36 O38 1.246 . S
O37 Tb20 2.427 1_565 S
O37 C36 1.275 . S
O38 Tb20 2.513 1_565 S
O38 C36 1.246 . S
C39 O23 1.245 . S
C39 O24 1.259 . S
Tb40 O43 2.453 . S
Tb40 O44 2.596 . S
Tb40 O45 2.374 . S
Tb40 O53 2.343 . S
Tb40 O55 2.353 . S
Tb40 O57 2.427 . S
Tb40 O58 2.513 . S
C41 O45 1.251 . S
C41 O47 1.263 . S
Tb42 O44 2.343 . S
Tb42 O47 2.353 . S
Tb42 O50 2.427 . S
Tb42 O51 2.513 . S
Tb42 O52 2.453 . S
Tb42 O53 2.596 . S
Tb42 O54 2.374 . S
O43 Tb40 2.453 . S
O43 C59 1.245 . S
O44 Tb40 2.596 . S
O44 Tb42 2.343 . S
O44 C59 1.259 . S
O45 Tb40 2.374 . S
O45 C41 1.251 . S
C46 O50 1.275 . S
C46 O51 1.246 . S
O47 C41 1.263 . S
O47 Tb42 2.353 . S
C48 O52 1.245 . S
C48 O53 1.259 . S
C49 O54 1.250 . S
C49 O55 1.263 . S
O50 Tb42 2.427 . S
O50 C46 1.275 . S
O51 Tb42 2.513 . S
O51 C46 1.246 . S
O52 Tb42 2.453 . S
O52 C48 1.245 . S
O53 Tb40 2.343 . S
O53 Tb42 2.596 . S
O53 C48 1.259 . S
O54 Tb42 2.374 . S
O54 C49 1.250 . S
O55 Tb40 2.353 . S
O55 C49 1.263 . S
C56 O57 1.275 . S
C56 O58 1.246 . S
O57 Tb40 2.427 . S
O57 C56 1.275 . S
O58 Tb40 2.513 . S
O58 C56 1.246 . S
C59 O43 1.245 . S
C59 O44 1.259 . S
H60 C63 0.929 1_565 S
H61 C66 0.929 . S
H62 C68 0.930 . S
C63 H60 0.929 1_545 S
C63 C64 1.398 1_545 S
C63 C65 1.396 . S
C64 C63 1.398 1_565 S
C64 C68 1.407 1_565 S
C65 C63 1.396 . S
C65 C66 1.394 . S
C66 H61 0.929 . S
C66 C65 1.394 . S
C66 C67 1.382 . S
C67 C66 1.382 . S
C67 C68 1.392 . S
C67 N69 1.420 . S
C68 H62 0.930 . S
C68 C64 1.407 1_545 S
C68 C67 1.392 . S
N69 C67 1.420 . S
N69 C70 1.244 . S
C70 N69 1.244 . S
H71 C74 0.929 . S
H72 C77 0.929 . S
H73 C79 0.930 . S
C74 H71 0.929 . S
C74 C75 1.398 . S
C74 C76 1.396 . S
C75 C74 1.398 . S
C75 C79 1.407 . S
C76 C74 1.396 . S
C76 C77 1.394 . S
C77 H72 0.929 . S
C77 C76 1.394 . S
C77 C78 1.382 . S
C78 C77 1.382 . S
C78 C79 1.392 . S
C78 N80 1.420 . S
C79 H73 0.930 . S
C79 C75 1.407 . S
C79 C78 1.392 . S
N80 C78 1.420 . S
N80 C81 1.244 . S
C81 N80 1.244 . S
H82 C85 0.929 1_655 S
H83 C88 0.929 . S
H84 C90 0.930 . S
C85 H82 0.929 1_455 S
C85 C86 1.398 1_455 S
C85 C87 1.396 . S
C86 C85 1.398 1_655 S
C86 C90 1.407 1_655 S
C87 C85 1.396 . S
C87 C88 1.394 . S
C88 H83 0.929 . S
C88 C87 1.394 . S
C88 C89 1.382 . S
C89 C88 1.382 . S
C89 C90 1.392 . S
C89 N91 1.420 . S
C90 H84 0.930 . S
C90 C86 1.407 1_455 S
C90 C89 1.392 . S
N91 C89 1.420 . S
N91 C92 1.244 . S
C92 N91 1.244 . S
H93 C96 0.929 . S
H94 C99 0.929 . S
H95 C101 0.930 . S
C96 H93 0.929 . S
C96 C97 1.398 . S
C96 C98 1.396 . S
C97 C96 1.398 . S
C97 C101 1.407 . S
C98 C96 1.396 . S
C98 C99 1.394 1_455 S
C99 H94 0.929 . S
C99 C98 1.394 1_655 S
C99 C100 1.382 . S
C100 C99 1.382 . S
C100 C101 1.392 1_655 S
C100 N102 1.420 . S
C101 H95 0.930 . S
C101 C97 1.407 . S
C101 C100 1.392 1_455 S
N102 C100 1.420 . S
N102 C103 1.244 . S
C103 N102 1.244 . S
H104 C107 0.929 . S
H105 C110 0.929 1_565 S
H106 C112 0.930 . S
C107 H104 0.929 . S
C107 C108 1.398 . S
C107 C109 1.396 . S
C108 C107 1.398 . S
C108 C112 1.407 . S
C109 C107 1.396 . S
C109 C110 1.394 . S
C110 H105 0.929 1_545 S
C110 C109 1.394 . S
C110 C111 1.382 . S
C111 C110 1.382 . S
C111 C112 1.392 . S
C111 N113 1.420 1_545 S
C112 H106 0.930 . S
C112 C108 1.407 . S
C112 C111 1.392 . S
N113 C111 1.420 1_565 S
N113 C114 1.244 . S
C114 N113 1.244 . S
H115 C118 0.929 . S
H116 C121 0.929 . S
H117 C123 0.930 . S
C118 H115 0.929 . S
C118 C119 1.398 . S
C118 C120 1.396 . S
C119 C118 1.398 . S
C119 C123 1.407 . S
C120 C118 1.396 . S
C120 C121 1.394 . S
C121 H116 0.929 . S
C121 C120 1.394 . S
C121 C122 1.382 . S
C122 C121 1.382 . S
C122 C123 1.392 . S
C122 N124 1.420 . S
C123 H117 0.930 . S
C123 C119 1.407 . S
C123 C122 1.392 . S
N124 C122 1.420 . S
N124 C125 1.244 . S
C125 N124 1.244 . S
C126 C127 1.369 . S
C126 C128 1.419 . S
C126 H130 0.930 . S
C127 C126 1.369 . S
C127 C136 1.429 . S
C128 C126 1.419 . S
C128 C129 1.363 . S
C128 H131 0.929 . S
C129 C128 1.363 . S
C129 C135 1.428 . S
H130 C126 0.930 . S
H131 C128 0.929 . S
S132 N133 1.613 . S
S132 N134 1.610 . S
N133 S132 1.613 . S
N133 C136 1.350 . S
N134 S132 1.610 . S
N134 C135 1.351 . S
C135 C129 1.428 . S
C135 N134 1.351 . S
C135 C136 1.434 . S
C136 C127 1.429 . S
C136 N133 1.350 . S
C136 C135 1.434 . S
C137 C138 1.369 . S
C137 C139 1.419 . S
C137 H141 0.930 . S
C138 C137 1.369 . S
C138 C147 1.429 . S
C139 C137 1.419 . S
C139 C140 1.363 . S
C139 H142 0.929 . S
C140 C139 1.363 . S
C140 C146 1.428 . S
H141 C137 0.930 . S
H142 C139 0.929 . S
S143 N144 1.613 . S
S143 N145 1.610 . S
N144 S143 1.613 . S
N144 C147 1.350 . S
N145 S143 1.610 . S
N145 C146 1.351 . S
C146 C140 1.428 . S
C146 N145 1.351 . S
C146 C147 1.434 . S
C147 C138 1.429 . S
C147 N144 1.350 . S
C147 C146 1.434 . S
C148 C149 1.369 . S
C148 C150 1.419 . S
C148 H152 0.930 . S
C149 C148 1.369 . S
C149 C158 1.429 . S
C150 C148 1.419 . S
C150 C151 1.363 . S
C150 H153 0.929 . S
C151 C150 1.363 . S
C151 C157 1.428 . S
H152 C148 0.930 . S
H153 C150 0.929 . S
S154 N155 1.613 . S
S154 N156 1.610 . S
N155 S154 1.613 . S
N155 C158 1.350 . S
N156 S154 1.610 . S
N156 C157 1.351 . S
C157 C151 1.428 . S
C157 N156 1.351 . S
C157 C158 1.434 . S
C158 C149 1.429 . S
C158 N155 1.350 . S
C158 C157 1.434 . S
C159 C160 1.369 . S
C159 C161 1.419 . S
C159 H163 0.930 . S
C160 C159 1.369 . S
C160 C169 1.429 . S
C161 C159 1.419 . S
C161 C162 1.363 . S
C161 H164 0.929 . S
C162 C161 1.363 . S
C162 C168 1.428 . S
H163 C159 0.930 . S
H164 C161 0.929 . S
S165 N166 1.613 . S
S165 N167 1.610 . S
N166 S165 1.613 . S
N166 C169 1.350 . S
N167 S165 1.610 . S
N167 C168 1.351 . S
C168 C162 1.428 . S
C168 N167 1.351 . S
C168 C169 1.434 . S
C169 C160 1.429 . S
C169 N166 1.350 . S
C169 C168 1.434 . S
C170 C171 1.369 . S
C170 C172 1.419 . S
C170 H174 0.930 . S
C171 C170 1.369 . S
C171 C180 1.429 . S
C172 C170 1.419 . S
C172 C173 1.363 . S
C172 H175 0.929 . S
C173 C172 1.363 . S
C173 C179 1.428 . S
H174 C170 0.930 . S
H175 C172 0.929 . S
S176 N177 1.613 . S
S176 N178 1.610 . S
N177 S176 1.613 . S
N177 C180 1.350 . S
N178 S176 1.610 . S
N178 C179 1.351 . S
C179 C173 1.428 . S
C179 N178 1.351 . S
C179 C180 1.434 . S
C180 C171 1.429 . S
C180 N177 1.350 . S
C180 C179 1.434 . S
C181 C182 1.369 . S
C181 C183 1.419 . S
C181 H185 0.930 . S
C182 C181 1.369 . S
C182 C191 1.429 . S
C183 C181 1.419 . S
C183 C184 1.363 . S
C183 H186 0.929 . S
C184 C183 1.363 . S
C184 C190 1.428 . S
H185 C181 0.930 . S
H186 C183 0.929 . S
S187 N188 1.613 . S
S187 N189 1.610 . S
N188 S187 1.613 . S
N188 C191 1.350 . S
N189 S187 1.610 . S
N189 C190 1.351 . S
C190 C184 1.428 . S
C190 N189 1.351 . S
C190 C191 1.434 . S
C191 C182 1.429 . S
C191 N188 1.350 . S
C191 C190 1.434 . S
C192 C193 1.369 . S
C192 C194 1.419 . S
C192 H196 0.930 . S
C193 C192 1.369 . S
C193 C202 1.429 . S
C194 C192 1.419 . S
C194 C195 1.363 . S
C194 H197 0.929 . S
C195 C194 1.363 . S
C195 C201 1.428 . S
H196 C192 0.930 . S
H197 C194 0.929 . S
S198 N199 1.613 . S
S198 N200 1.610 . S
N199 S198 1.613 . S
N199 C202 1.350 . S
N200 S198 1.610 . S
N200 C201 1.351 . S
C201 C195 1.428 . S
C201 N200 1.351 . S
C201 C202 1.434 . S
C202 C193 1.429 . S
C202 N199 1.350 . S
C202 C201 1.434 . S
C203 C204 1.369 . S
C203 C205 1.419 . S
C203 H207 0.930 . S
C204 C203 1.369 . S
C204 C213 1.429 . S
C205 C203 1.419 . S
C205 C206 1.363 . S
C205 H208 0.929 . S
C206 C205 1.363 . S
C206 C212 1.428 . S
H207 C203 0.930 . S
H208 C205 0.929 . S
S209 N210 1.613 . S
S209 N211 1.610 . S
N210 S209 1.613 . S
N210 C213 1.350 . S
N211 S209 1.610 . S
N211 C212 1.351 . S
C212 C206 1.428 . S
C212 N211 1.351 . S
C212 C213 1.434 . S
C213 C204 1.429 . S
C213 N210 1.350 . S
C213 C212 1.434 . S
C214 C215 1.369 . S
C214 C216 1.419 . S
C214 H218 0.930 . S
C215 C214 1.369 . S
C215 C224 1.429 . S
C216 C214 1.419 . S
C216 C217 1.363 . S
C216 H219 0.929 . S
C217 C216 1.363 . S
C217 C223 1.428 . S
H218 C214 0.930 . S
H219 C216 0.929 . S
S220 N221 1.613 . S
S220 N222 1.610 . S
N221 S220 1.613 . S
N221 C224 1.350 . S
N222 S220 1.610 . S
N222 C223 1.351 . S
C223 C217 1.428 . S
C223 N222 1.351 . S
C223 C224 1.434 . S
C224 C215 1.429 . S
C224 N221 1.350 . S
C224 C223 1.434 . S
C225 C226 1.369 . S
C225 C227 1.419 . S
C225 H229 0.930 . S
C226 C225 1.369 . S
C226 C235 1.429 . S
C227 C225 1.419 . S
C227 C228 1.363 . S
C227 H230 0.929 . S
C228 C227 1.363 . S
C228 C234 1.428 . S
H229 C225 0.930 . S
H230 C227 0.929 . S
S231 N232 1.613 . S
S231 N233 1.610 . S
N232 S231 1.613 . S
N232 C235 1.350 . S
N233 S231 1.610 . S
N233 C234 1.351 . S
C234 C228 1.428 . S
C234 N233 1.351 . S
C234 C235 1.434 . S
C235 C226 1.429 . S
C235 N232 1.350 . S
C235 C234 1.434 . S
C236 C237 1.369 . S
C236 C238 1.419 . S
C236 H240 0.930 . S
C237 C236 1.369 . S
C237 C246 1.429 . S
C238 C236 1.419 . S
C238 C239 1.363 . S
C238 H241 0.929 . S
C239 C238 1.363 . S
C239 C245 1.428 . S
H240 C236 0.930 . S
H241 C238 0.929 . S
S242 N243 1.613 . S
S242 N244 1.610 . S
N243 S242 1.613 . S
N243 C246 1.350 . S
N244 S242 1.610 . S
N244 C245 1.351 . S
C245 C239 1.428 . S
C245 N244 1.351 . S
C245 C246 1.434 . S
C246 C237 1.429 . S
C246 N243 1.350 . S
C246 C245 1.434 . S
C247 C248 1.369 . S
C247 C249 1.419 . S
C247 H251 0.930 . S
C248 C247 1.369 . S
C248 C257 1.429 . S
C249 C247 1.419 . S
C249 C250 1.363 . S
C249 H252 0.929 . S
C250 C249 1.363 . S
C250 C256 1.428 . S
H251 C247 0.930 . S
H252 C249 0.929 . S
S253 N254 1.613 . S
S253 N255 1.610 . S
N254 S253 1.613 . S
N254 C257 1.350 . S
N255 S253 1.610 . S
N255 C256 1.351 . S
C256 C250 1.428 . S
C256 N255 1.351 . S
C256 C257 1.434 . S
C257 C248 1.429 . S
C257 N254 1.350 . S
C257 C256 1.434 . S
C258 C259 1.369 . S
C258 C260 1.419 1_554 S
C258 H262 0.930 . S
C259 C258 1.369 . S
C259 C268 1.417 1_455 S
C260 C258 1.419 1_556 S
C260 C261 1.363 . S
C260 H263 0.929 . S
C261 C260 1.363 . S
C261 C267 1.428 . S
H262 C258 0.930 . S
H263 C260 0.929 . S
S264 N265 1.613 1_556 S
S264 N266 1.610 . S
N265 S264 1.613 1_554 S
N265 C268 1.363 . S
N266 S264 1.610 . S
N266 C267 1.351 1_655 S
C267 C261 1.428 . S
C267 N266 1.351 1_455 S
C267 C268 1.432 1_456 S
C268 C259 1.417 1_655 S
C268 N265 1.363 . S
C268 C267 1.432 1_654 S
C269 C270 1.369 . S
C269 C271 1.419 . S
C269 H273 0.930 1_545 S
C270 C269 1.369 . S
C270 C279 1.429 . S
C271 C269 1.419 . S
C271 C272 1.363 . S
C271 H274 0.929 1_545 S
C272 C271 1.363 . S
C272 C278 1.428 . S
H273 C269 0.930 1_565 S
H274 C271 0.929 1_565 S
S275 N276 1.613 . S
S275 N277 1.610 . S
N276 S275 1.613 . S
N276 C279 1.350 . S
N277 S275 1.610 . S
N277 C278 1.351 . S
C278 C272 1.428 . S
C278 N277 1.351 . S
C278 C279 1.434 . S
C279 C270 1.429 . S
C279 N276 1.350 . S
C279 C278 1.434 . S
C280 C281 1.369 . S
C280 C282 1.419 . S
C280 H284 0.930 . S
C281 C280 1.369 . S
C281 C290 1.429 . S
C282 C280 1.419 . S
C282 C283 1.363 . S
C282 H285 0.929 . S
C283 C282 1.363 . S
C283 C289 1.428 . S
H284 C280 0.930 . S
H285 C282 0.929 . S
S286 N287 1.613 . S
S286 N288 1.610 . S
N287 S286 1.613 . S
N287 C290 1.350 . S
N288 S286 1.610 . S
N288 C289 1.351 . S
C289 C283 1.428 . S
C289 N288 1.351 . S
C289 C290 1.434 . S
C290 C281 1.429 . S
C290 N287 1.350 . S
C290 C289 1.434 . S
C291 C292 1.369 . S
C291 C293 1.419 . S
C291 H295 0.930 . S
C292 C291 1.369 . S
C292 C301 1.429 1_545 S
C293 C291 1.419 . S
C293 C294 1.363 . S
C293 H296 0.929 . S
C294 C293 1.363 . S
C294 C300 1.428 1_545 S
H295 C291 0.930 . S
H296 C293 0.929 . S
S297 N298 1.613 . S
S297 N299 1.610 . S
N298 S297 1.613 . S
N298 C301 1.350 . S
N299 S297 1.610 . S
N299 C300 1.351 . S
C300 C294 1.428 1_565 S
C300 N299 1.351 . S
C300 C301 1.434 . S
C301 C292 1.429 1_565 S
C301 N298 1.350 . S
C301 C300 1.434 . S
C302 C303 1.369 . S
C302 C304 1.419 1_556 S
C302 H306 0.930 . S
C303 C302 1.369 . S
C303 C312 1.429 . S
C304 C302 1.419 1_554 S
C304 C305 1.363 . S
C304 H307 0.929 . S
C305 C304 1.363 . S
C305 C311 1.446 . S
H306 C302 0.930 . S
H307 C304 0.929 . S
S308 N309 1.613 . S
S308 N310 1.610 1_556 S
N309 S308 1.613 . S
N309 C312 1.350 . S
N310 S308 1.610 1_554 S
N310 C311 1.359 . S
C311 C305 1.446 . S
C311 N310 1.359 . S
C311 C312 1.406 1_554 S
C312 C303 1.429 . S
C312 N309 1.350 . S
C312 C311 1.406 1_556 S
C313 C314 1.369 . S
C313 C315 1.419 . S
C313 H317 0.930 1_455 S
C314 C313 1.369 . S
C314 C323 1.429 . S
C315 C313 1.419 . S
C315 C316 1.363 . S
C315 H318 0.929 1_455 S
C316 C315 1.363 . S
C316 C322 1.428 . S
H317 C313 0.930 1_655 S
H318 C315 0.929 1_655 S
S319 N320 1.613 . S
S319 N321 1.610 . S
N320 S319 1.613 . S
N320 C323 1.350 . S
N321 S319 1.610 . S
N321 C322 1.351 . S
C322 C316 1.428 . S
C322 N321 1.351 . S
C322 C323 1.434 . S
C323 C314 1.429 . S
C323 N320 1.350 . S
C323 C322 1.434 . S
C127 C8 1.991 . S
C129 C125 2.029 . S
C138 C26 1.415 . S
C140 C103 1.415 . S
C149 C48 1.562 . S
C151 C114 1.596 . S
C160 C19 1.788 . S
C162 C119 1.820 . S
C173 C97 1.362 . S
C171 C36 1.360 . S
C184 C108 1.584 . S
C182 C59 1.529 . S
C193 C28 1.571 . S
C195 C81 1.612 . S
C204 C46 1.103 . S
C206 C86 1.115 . S
C215 C16 1.376 . S
C217 C64 1.362 . S
C228 C75 1.567 . S
C226 C39 1.537 . S
C239 C92 1.119 . S
C237 C56 1.101 . S
C248 C6 1.444 . S
C250 C70 1.437 . S
C261 C87 1.453 . S
C259 C9 1.434 . S
C270 C21 1.523 . S
C272 C65 1.536 . S
C281 C49 1.503 . S
C283 C76 1.500 . S
C294 C109 1.495 . S
C292 C29 1.501 . S
C305 C120 1.607 . S
C303 C41 1.571 . S
C314 C1 1.498 . S
C316 C98 1.510 . S
