# Generated by pormake.
# Topology anh, (6,3)-cn, num edge types: 1
# Building blocks:
#     Node 0, Type 0, BuildingBlock: BETFAJ_clean_sbu_0, # of connection points: 6
#     Node 1, Type 0, BuildingBlock: BETFAJ_clean_sbu_0, # of connection points: 6
#     Node 2, Type 0, BuildingBlock: BETFAJ_clean_sbu_0, # of connection points: 6
#     Node 3, Type 1, BuildingBlock: QEWDON_clean_linker_0, # of connection points: 3
#     Node 4, Type 1, BuildingBlock: QEWDON_clean_linker_0, # of connection points: 3
#     Node 5, Type 1, BuildingBlock: QEWDON_clean_linker_0, # of connection points: 3
#     Node 6, Type 1, BuildingBlock: QEWDON_clean_linker_0, # of connection points: 3
#     Node 7, Type 1, BuildingBlock: QEWDON_clean_linker_0, # of connection points: 3
#     Node 8, Type 1, BuildingBlock: QEWDON_clean_linker_0, # of connection points: 3
#     Edge 9, Type (0, 1), BuildingBlock: MIFKUJ_clean_linker_0, # of connection points: 2
#     Edge 10, Type (0, 1), BuildingBlock: MIFKUJ_clean_linker_0, # of connection points: 2
#     Edge 11, Type (0, 1), BuildingBlock: MIFKUJ_clean_linker_0, # of connection points: 2
#     Edge 12, Type (0, 1), BuildingBlock: MIFKUJ_clean_linker_0, # of connection points: 2
#     Edge 13, Type (0, 1), BuildingBlock: MIFKUJ_clean_linker_0, # of connection points: 2
#     Edge 14, Type (0, 1), BuildingBlock: MIFKUJ_clean_linker_0, # of connection points: 2
#     Edge 15, Type (0, 1), BuildingBlock: MIFKUJ_clean_linker_0, # of connection points: 2
#     Edge 16, Type (0, 1), BuildingBlock: MIFKUJ_clean_linker_0, # of connection points: 2
#     Edge 17, Type (0, 1), BuildingBlock: MIFKUJ_clean_linker_0, # of connection points: 2
#     Edge 18, Type (0, 1), BuildingBlock: MIFKUJ_clean_linker_0, # of connection points: 2
#     Edge 19, Type (0, 1), BuildingBlock: MIFKUJ_clean_linker_0, # of connection points: 2
#     Edge 20, Type (0, 1), BuildingBlock: MIFKUJ_clean_linker_0, # of connection points: 2
#     Edge 21, Type (0, 1), BuildingBlock: MIFKUJ_clean_linker_0, # of connection points: 2
#     Edge 22, Type (0, 1), BuildingBlock: MIFKUJ_clean_linker_0, # of connection points: 2
#     Edge 23, Type (0, 1), BuildingBlock: MIFKUJ_clean_linker_0, # of connection points: 2
#     Edge 24, Type (0, 1), BuildingBlock: MIFKUJ_clean_linker_0, # of connection points: 2
#     Edge 25, Type (0, 1), BuildingBlock: MIFKUJ_clean_linker_0, # of connection points: 2
#     Edge 26, Type (0, 1), BuildingBlock: MIFKUJ_clean_linker_0, # of connection points: 2
# Relax obj value: 0.110
# Max RMSD: 0.159
# Mean RMSD: 0.126
data_MOF--net-anh--node1-BETFAJ_clean_sbu_0--node2-QEWDON_clean_linker_0--edge1-MIFKUJ_clean_linker_0
_symmetry_space_group_name_H-M    P1
_symmetry_Int_Tables_number       1
_symmetry_cell_setting            triclinic
loop_
_symmetry_equiv_pos_as_xyz
'x, y, z'
_cell_length_a     42.333832
_cell_length_b     49.068176
_cell_length_c     62.599052
_cell_angle_alpha  95.535207
_cell_angle_beta   92.469081
_cell_angle_gamma 128.2948
loop_
_atom_site_label
_atom_site_type_symbol
_atom_site_fract_x
_atom_site_fract_y
_atom_site_fract_z
_atom_type_partial_charge
Sm0 Sm 0.11191 0.56349 0.16582 0.0
Sm1 Sm 0.07168 0.59483 0.16018 0.0
C2 C 0.16042 0.54804 0.1661 0.0
C3 C 0.20135 0.57209 0.16073 0.0
C4 C 0.20903 0.59305 0.14471 0.0
C5 C 0.24859 0.61939 0.14125 0.0
C6 C 0.28083 0.62511 0.15382 0.0
C7 C 0.27308 0.60552 0.17075 0.0
C8 C 0.23351 0.57909 0.17413 0.0
C9 C 0.07954 0.56652 0.20187 0.0
C10 C 0.1693 0.64934 0.16471 0.0
C11 C 1.04047 0.62587 0.17063 0.0
C12 C 1.00766 0.6147 0.18325 0.0
C13 C 0.99692 0.58971 0.19686 0.0
C14 C 0.95726 0.56732 0.20158 0.0
C15 C 0.92894 0.57062 0.19311 0.0
C16 C 0.94095 0.59816 0.18163 0.0
C17 C 0.98036 0.6202 0.17667 0.0
C18 C 0.08554 0.58211 0.11915 0.0
C19 C 1.01514 0.5093 0.1567 0.0
O20 O 0.13133 0.53462 0.15006 0.0
O21 O 0.155 0.56008 0.1839 0.0
O22 O 0.09937 0.5911 0.19068 0.0
O23 O 0.07585 0.53928 0.19375 0.0
O24 O 0.16843 0.62234 0.16677 0.0
O25 O 0.13575 0.64528 0.16173 0.0
O26 O 0.07381 0.63504 0.18125 0.0
O27 O 1.02862 0.60463 0.1524 0.0
O28 O 0.09512 0.57534 0.13602 0.0
O29 O 0.06787 0.59561 0.12344 0.0
O30 O 1.01682 0.53693 0.1623 0.0
O31 O 1.04805 0.51322 0.153 0.0
H32 H 0.18444 0.58905 0.1348 0.0
H33 H 0.25397 0.63388 0.128 0.0
H34 H 0.29744 0.60883 0.18039 0.0
H35 H 0.22799 0.56405 0.18709 0.0
H36 H 1.01772 0.5849 0.20176 0.0
H37 H 0.94797 0.54584 0.21025 0.0
H38 H 0.91884 0.60036 0.17469 0.0
H39 H 0.9881 0.63879 0.16575 0.0
Sm40 Sm 0.57992 0.04117 0.49096 0.0
Sm41 Sm 0.52638 0.071 0.48902 0.0
C42 C 0.61665 0.01737 0.50519 0.0
C43 C 0.60654 0.98255 0.50371 0.0
C44 C 0.57192 0.95466 0.5117 0.0
C45 C 0.56338 0.92208 0.5105 0.0
C46 C 0.58922 0.91681 0.50128 0.0
C47 C 0.62309 0.94442 0.49272 0.0
C48 C 0.63172 0.97701 0.494 0.0
C49 C 0.55112 0.03722 0.44934 0.0
C50 C 0.47919 0.98547 0.48735 0.0
C51 C 0.49098 0.09569 0.47422 0.0
C52 C 0.49959 0.12982 0.47815 0.0
C53 C 0.49285 0.14261 0.46094 0.0
C54 C 0.50392 0.17624 0.46405 0.0
C55 C 0.52186 0.19754 0.48446 0.0
C56 C 0.52838 0.1845 0.5017 0.0
C57 C 0.51751 0.15098 0.49855 0.0
C58 C 0.55322 0.07259 0.53066 0.0
C59 C 0.62746 0.12648 0.49184 0.0
O60 O 0.59558 0.02265 0.51706 0.0
O61 O 0.62357 0.03071 0.48716 0.0
O62 O 0.54641 0.04787 0.46699 0.0
O63 O 0.57162 0.02624 0.45339 0.0
O64 O 0.51429 0.99172 0.49196 0.0
O65 O 0.47636 0.01027 0.48368 0.0
O66 O 0.51762 0.09576 0.46422 0.0
O67 O 0.47902 0.07736 0.49027 0.0
O68 O 0.55926 0.06379 0.51283 0.0
O69 O 0.53214 0.08318 0.52695 0.0
O70 O 0.59258 0.1212 0.48957 0.0
O71 O 0.6304 0.1013 0.49367 0.0
H72 H 0.55164 0.95802 0.51908 0.0
H73 H 0.53721 0.90136 0.51735 0.0
H74 H 0.6431 0.94089 0.48514 0.0
H75 H 0.65827 0.99799 0.48751 0.0
H76 H 0.47951 0.12676 0.44502 0.0
H77 H 0.49825 0.1855 0.45052 0.0
H78 H 0.54269 0.20052 0.51752 0.0
H79 H 0.52374 0.14186 0.51196 0.0
Sm80 Sm 0.66863 0.58278 0.83344 0.0
Sm81 Sm 0.60802 0.4997 0.83137 0.0
C82 C 0.7065 0.64914 0.82899 0.0
C83 C 0.69589 0.67245 0.827 0.0
C84 C 0.69235 0.68094 0.80672 0.0
C85 C 0.68363 0.70387 0.80486 0.0
C86 C 0.67847 0.71888 0.82327 0.0
C87 C 0.68158 0.71008 0.84352 0.0
C88 C 0.69031 0.6872 0.84539 0.0
C89 C 0.65484 0.55781 0.87191 0.0
C90 C 0.56629 0.53969 0.83271 0.0
C91 C 0.57268 0.43777 0.8433 0.0
C92 C 0.57855 0.41098 0.83947 0.0
C93 C 0.60612 0.41233 0.85386 0.0
C94 C 0.61403 0.38877 0.84964 0.0
C95 C 0.59423 0.36302 0.83107 0.0
C96 C 0.56592 0.36102 0.81693 0.0
C97 C 0.55816 0.38477 0.82107 0.0
C98 C 0.62213 0.51649 0.78993 0.0
C99 C 0.71016 0.54303 0.83308 0.0
O100 O 0.69352 0.62439 0.8126 0.0
O101 O 0.70417 0.63871 0.84772 0.0
O102 O 0.62885 0.546 0.85571 0.0
O103 O 0.69049 0.58488 0.86845 0.0
O104 O 0.60315 0.56898 0.83021 0.0
O105 O 0.561 0.51033 0.83503 0.0
O106 O 0.60249 0.46746 0.85553 0.0
O107 O 0.55708 0.44221 0.82668 0.0
O108 O 0.63708 0.53675 0.8077 0.0
O109 O 0.59773 0.48432 0.79373 0.0
O110 O 0.67334 0.51423 0.83571 0.0
O111 O 0.71544 0.572 0.82961 0.0
H112 H 0.69657 0.67004 0.79228 0.0
H113 H 0.68086 0.7098 0.78899 0.0
H114 H 0.67821 0.72154 0.85803 0.0
H115 H 0.69309 0.68143 0.86131 0.0
H116 H 0.62202 0.4319 0.86833 0.0
H117 H 0.63541 0.39051 0.86105 0.0
H118 H 0.55027 0.34148 0.80245 0.0
H119 H 0.53661 0.38287 0.80971 0.0
H120 H 0.60488 0.11027 0.21933 0.0
C121 C 0.58248 0.08318 0.21174 0.0
C122 C 0.56161 0.05658 0.2249 0.0
C123 C 0.57385 0.07471 0.18883 0.0
H124 H 0.51262 1.00112 0.22454 0.0
C125 C 0.53102 0.0217 0.21488 0.0
C126 C 0.52279 0.01256 0.19246 0.0
C127 C 0.54464 0.03876 0.17952 0.0
C128 C 0.59294 0.10273 0.17443 0.0
H129 H 0.53841 0.03072 0.16215 0.0
C130 C 0.63186 0.13631 0.18033 0.0
C131 C 0.64771 0.16187 0.16629 0.0
C132 C 0.57092 0.0959 0.15433 0.0
H133 H 0.54035 0.07174 0.14939 0.0
C134 C 0.58736 0.12031 0.14017 0.0
H135 H 0.64952 0.14284 0.19572 0.0
C136 C 0.62537 0.15282 0.14599 0.0
H137 H 0.63715 0.17125 0.13457 0.0
H138 H 0.57016 0.11416 0.12468 0.0
H139 H 0.56759 0.58078 0.56231 0.0
C140 C 0.57689 0.56564 0.55619 0.0
C141 C 0.59008 0.55353 0.57088 0.0
C142 C 0.57236 0.55538 0.53365 0.0
H143 H 0.6073 0.52085 0.57428 0.0
C144 C 0.59892 0.53153 0.563 0.0
C145 C 0.59423 0.52102 0.54081 0.0
C146 C 0.58306 0.5344 0.52626 0.0
C147 C 0.55148 0.562 0.51772 0.0
H148 H 0.57949 0.52599 0.50906 0.0
C149 C 0.55805 0.59406 0.51972 0.0
C150 C 0.53777 0.5994 0.50431 0.0
C151 C 0.5239 0.53531 0.50027 0.0
H152 H 0.51674 0.50979 0.49858 0.0
C153 C 0.50465 0.54085 0.4848 0.0
H154 H 0.5786 0.61464 0.53322 0.0
C155 C 0.51164 0.57268 0.48669 0.0
H156 H 0.49649 0.57637 0.4743 0.0
H157 H 0.484 0.52026 0.47135 0.0
H158 H 0.15075 0.54316 0.88635 0.0
C159 C 0.12579 0.54067 0.8782 0.0
C160 C 0.09656 0.53716 0.89049 0.0
C161 C 0.1241 0.5425 0.85587 0.0
H162 H 1.04271 0.53279 0.89039 0.0
C163 C 0.06441 0.5349 0.88054 0.0
C164 C 0.06064 0.53724 0.85858 0.0
C165 C 0.09086 0.54101 0.84624 0.0
C166 C 0.15958 0.55027 0.84367 0.0
H167 H 0.08812 0.54248 0.82922 0.0
C168 C 0.18527 0.54043 0.84858 0.0
C169 C 0.21909 0.55072 0.83662 0.0
C170 C 0.16983 0.57086 0.82717 0.0
H171 H 0.1534 0.58029 0.82312 0.0
C172 C 0.2026 0.58147 0.81611 0.0
H173 H 0.17863 0.52455 0.86114 0.0
C174 C 0.22666 0.57191 0.82076 0.0
H175 H 0.25214 0.58186 0.81175 0.0
H176 H 0.20985 0.59789 0.80378 0.0
H177 H 1.01766 0.53641 0.43547 0.0
C178 C 1.04638 0.56032 0.44354 0.0
C179 C 0.07592 0.58429 0.4311 0.0
C180 C 0.05241 0.5688 0.46632 0.0
H181 H 0.13547 0.6344 0.43236 0.0
C182 C 0.11239 0.61582 0.44172 0.0
C183 C 0.11877 0.62492 0.46417 0.0
C184 C 0.089 0.60137 0.47647 0.0
C185 C 1.01861 0.54658 0.47935 0.0
H186 H 0.09381 0.60895 0.49387 0.0
C187 C 0.99464 0.50941 0.47669 0.0
C188 C 0.9633 0.48971 0.48972 0.0
C189 C 1.00984 0.5633 0.49459 0.0
H190 H 1.02678 0.59151 0.49666 0.0
C191 C 0.97863 0.544 0.50706 0.0
H192 H 1.00101 0.4961 0.46505 0.0
C193 C 0.95562 0.50767 0.50469 0.0
H194 H 0.93122 0.49349 0.51449 0.0
H195 H 0.9721 0.55728 0.51858 0.0
H196 H 0.6077 0.00823 0.75762 0.0
C197 C 0.61545 0.03282 0.76513 0.0
C198 C 0.62358 0.05818 0.75215 0.0
C199 C 0.61618 0.0391 0.78782 0.0
H200 H 0.6336 0.10731 0.75257 0.0
C201 C 0.6309 0.08888 0.76217 0.0
C202 C 0.63276 0.09557 0.78447 0.0
C203 C 0.62694 0.07153 0.79723 0.0
C204 C 0.60294 0.01186 0.80208 0.0
H205 H 0.62895 0.07768 0.81458 0.0
C206 C 0.6121 0.98857 0.79953 0.0
C207 C 0.6018 0.96537 0.81467 0.0
C208 C 0.58162 0.01017 0.8193 0.0
H209 H 0.57195 0.02606 0.82126 0.0
C210 C 0.57297 0.98853 0.83461 0.0
H211 H 0.62721 0.98868 0.78599 0.0
C212 C 0.58367 0.96691 0.83261 0.0
H213 H 0.5774 0.95121 0.84524 0.0
H214 H 0.55796 0.98861 0.84816 0.0
H215 H 0.55189 0.54601 0.0986 0.0
C216 C 0.5558 0.5276 0.10336 0.0
C217 C 0.56182 0.50818 0.08832 0.0
C218 C 0.55683 0.52427 0.12534 0.0
H219 H 0.58761 0.48135 0.08688 0.0
C220 C 0.57407 0.48987 0.09677 0.0
C221 C 0.57323 0.48576 0.11862 0.0
C222 C 0.5588 0.49911 0.13189 0.0
C223 C 0.5652 0.55089 0.14279 0.0
H224 H 0.5568 0.4954 0.14873 0.0
C225 C 0.53289 0.54691 0.15102 0.0
C226 C 0.53814 0.56387 0.1719 0.0
C227 C 0.60399 0.57346 0.1549 0.0
H228 H 0.62922 0.57599 0.14894 0.0
C229 C 0.60972 0.59063 0.17551 0.0
H230 H 0.50364 0.52995 0.14104 0.0
C231 C 0.57688 0.5854 0.18419 0.0
H232 H 0.582 0.59843 0.20041 0.0
H233 H 0.63945 0.60726 0.185 0.0
H234 H 0.35711 0.67622 0.17538 0.0
H235 H 0.40506 0.66449 0.17292 0.0
H236 H 0.33847 0.5966 0.11191 0.0
H237 H 0.2916 0.60944 0.11389 0.0
H238 H 0.33371 0.56411 0.15279 0.0
H239 H 0.42385 0.64428 0.10717 0.0
H240 H 0.4623 0.70277 0.09597 0.0
H241 H 0.53722 0.75006 0.15764 0.0
H242 H 0.49871 0.69185 0.16934 0.0
H243 H 0.45577 0.50901 0.16306 0.0
H244 H 0.40775 0.5196 0.15669 0.0
H245 H 0.49197 0.62274 0.19512 0.0
H246 H 0.54278 0.61493 0.19801 0.0
H247 H 0.48223 0.63017 0.15651 0.0
H248 H 0.3871 0.55057 0.20372 0.0
H249 H 0.3449 0.49282 0.21605 0.0
H250 H 0.27657 0.44386 0.15269 0.0
H251 H 0.31872 0.50125 0.13988 0.0
C252 C 0.35482 0.66131 0.1606 0.0
C253 C 0.31968 0.64192 0.14548 0.0
C254 C 0.38158 0.65393 0.15942 0.0
C255 C 0.37358 0.6284 0.14274 0.0
C256 C 0.34405 0.61563 0.12514 0.0
C257 C 0.3179 0.62366 0.12613 0.0
C258 C 0.39072 0.61074 0.14615 0.0
C259 C 0.36606 0.57793 0.15323 0.0
C260 C 0.43258 0.62926 0.1468 0.0
C261 C 0.45855 0.66372 0.13909 0.0
C262 C 0.44874 0.66714 0.11828 0.0
C263 C 0.4704 0.70025 0.11188 0.0
C264 C 0.50222 0.73012 0.12608 0.0
C265 C 0.51265 0.72688 0.14663 0.0
C266 C 0.491 0.69381 0.15314 0.0
C267 C 0.46406 0.53395 0.17028 0.0
C268 C 0.50433 0.56228 0.17922 0.0
C269 C 0.436 0.53963 0.16706 0.0
C270 C 0.44702 0.57263 0.17467 0.0
C271 C 0.48362 0.59756 0.18838 0.0
C272 C 0.51263 0.59279 0.1903 0.0
C273 C 0.42584 0.58424 0.16476 0.0
C274 C 0.44977 0.61577 0.15602 0.0
C275 C 0.3832 0.56435 0.16269 0.0
C276 C 0.35626 0.53024 0.17081 0.0
C277 C 0.36307 0.52751 0.19241 0.0
C278 C 0.3392 0.49482 0.19948 0.0
C279 C 0.30813 0.46469 0.18515 0.0
C280 C 0.30065 0.46723 0.16377 0.0
C281 C 0.32447 0.49985 0.15661 0.0
H282 H 0.28984 0.43939 0.19063 0.0
H283 H 0.51876 0.75578 0.12116 0.0
H284 H 0.65085 0.18724 0.51548 0.0
H285 H 0.71216 0.24721 0.5145 0.0
H286 H 0.74853 0.20745 0.46524 0.0
H287 H 0.689 0.14723 0.46784 0.0
H288 H 0.81212 0.25751 0.48809 0.0
H289 H 0.69881 0.24943 0.45713 0.0
H290 H 0.63301 0.23756 0.45773 0.0
H291 H 0.68328 0.3176 0.51332 0.0
H292 H 0.74908 0.32958 0.51329 0.0
H293 H 0.92708 0.4391 0.4531 0.0
H294 H 0.87503 0.37506 0.45146 0.0
H295 H 0.88754 0.38827 0.52112 0.0
H296 H 0.94024 0.45149 0.52294 0.0
H297 H 0.80094 0.35179 0.48441 0.0
H298 H 0.90803 0.35028 0.51891 0.0
H299 H 0.97311 0.3608 0.51958 0.0
H300 H 0.93353 0.29901 0.45644 0.0
H301 H 0.86844 0.28871 0.45529 0.0
C302 C 0.67221 0.19141 0.5046 0.0
C303 C 0.66524 0.16268 0.49172 0.0
C304 C 0.7071 0.22581 0.5038 0.0
C305 C 0.73477 0.23247 0.4892 0.0
C306 C 0.7279 0.20346 0.47657 0.0
C307 C 0.6938 0.16896 0.47802 0.0
C308 C 0.7708 0.26939 0.48715 0.0
C309 C 0.80922 0.27781 0.48699 0.0
C310 C 0.76794 0.2966 0.48587 0.0
C311 C 0.72875 0.29018 0.4853 0.0
C312 C 0.69578 0.26445 0.46949 0.0
C313 C 0.6585 0.25768 0.46975 0.0
C314 C 0.65403 0.27673 0.48562 0.0
C315 C 0.68683 0.30283 0.5011 0.0
C316 C 0.72411 0.30963 0.50095 0.0
C317 C 0.9197 0.42821 0.46804 0.0
C318 C 0.93759 0.45059 0.48815 0.0
C319 C 0.88982 0.39164 0.46709 0.0
C320 C 0.87759 0.37687 0.48619 0.0
C321 C 0.8968 0.39896 0.50619 0.0
C322 C 0.92673 0.43522 0.50717 0.0
C323 C 0.84148 0.3394 0.48558 0.0
C324 C 0.80324 0.33106 0.48519 0.0
C325 C 0.84444 0.31238 0.48638 0.0
C326 C 0.88386 0.31943 0.48681 0.0
C327 C 0.91354 0.33954 0.50501 0.0
C328 C 0.95033 0.34529 0.50553 0.0
C329 C 0.95756 0.33077 0.48801 0.0
C330 C 0.92798 0.31041 0.46995 0.0
C331 C 0.89118 0.30465 0.46935 0.0
H332 H 0.98599 0.33514 0.48847 0.0
H333 H 0.62519 0.27128 0.486 0.0
H334 H 0.71551 0.77286 0.7997 0.0
H335 H 0.70314 0.81501 0.79689 0.0
H336 H 0.6124 0.76485 0.84013 0.0
H337 H 0.62466 0.72262 0.84303 0.0
H338 H 0.58749 0.77764 0.80263 0.0
H339 H 0.69873 0.83921 0.85977 0.0
H340 H 0.76657 0.86307 0.87677 0.0
H341 H 0.82143 0.92812 0.82746 0.0
H342 H 0.75379 0.90428 0.81 0.0
H343 H 0.55538 0.89968 0.8262 0.0
H344 H 0.57074 0.86 0.82696 0.0
H345 H 0.67728 0.92845 0.79596 0.0
H346 H 0.66484 0.97111 0.79768 0.0
H347 H 0.69542 0.90603 0.82542 0.0
H348 H 0.58113 0.84467 0.7691 0.0
H349 H 0.51207 0.81953 0.75335 0.0
H350 H 0.46152 0.7525 0.80199 0.0
H351 H 0.53025 0.77748 0.81816 0.0
C352 C 0.69271 0.77065 0.80848 0.0
C353 C 0.67081 0.74428 0.82147 0.0
C354 C 0.68594 0.7949 0.807 0.0
C355 C 0.65703 0.79307 0.81838 0.0
C356 C 0.6349 0.76667 0.83125 0.0
C357 C 0.64201 0.74268 0.83295 0.0
C358 C 0.64952 0.8185 0.81662 0.0
C359 C 0.6109 0.80571 0.80776 0.0
C360 C 0.68045 0.85507 0.8229 0.0
C361 C 0.72118 0.86971 0.83346 0.0
C362 C 0.72524 0.8584 0.85245 0.0
C363 C 0.76365 0.87196 0.86219 0.0
C364 C 0.79828 0.89703 0.85317 0.0
C365 C 0.79457 0.90867 0.83442 0.0
C366 C 0.7562 0.89518 0.82461 0.0
C367 C 0.58263 0.90696 0.81988 0.0
C368 C 0.60926 0.93925 0.81226 0.0
C369 C 0.59084 0.88356 0.81984 0.0
C370 C 0.62462 0.89057 0.81101 0.0
C371 C 0.65082 0.92227 0.80277 0.0
C372 C 0.64336 0.94648 0.80349 0.0
C373 C 0.6331 0.86533 0.81129 0.0
C374 C 0.67198 0.87807 0.81996 0.0
C375 C 0.60226 0.82856 0.80487 0.0
C376 C 0.56087 0.81309 0.79489 0.0
C377 C 0.55529 0.82465 0.77647 0.0
C378 C 0.51619 0.81042 0.76747 0.0
C379 C 0.48244 0.78447 0.77668 0.0
C380 C 0.48768 0.77259 0.79486 0.0
C381 C 0.52668 0.78672 0.80392 0.0
H382 H 0.45221 0.77355 0.76971 0.0
H383 H 0.828 0.90749 0.86073 0.0
H384 H 0.87726 0.56944 0.21718 0.0
H385 H 0.80487 0.53493 0.20543 0.0
H386 H 0.81194 0.4754 0.15315 0.0
H387 H 0.88491 0.51065 0.1648 0.0
H388 H 0.7878 0.51396 0.14055 0.0
H389 H 0.73961 0.42525 0.19084 0.0
H390 H 0.75269 0.41746 0.22776 0.0
H391 H 0.73768 0.49209 0.2548 0.0
H392 H 0.72545 0.50069 0.21804 0.0
H393 H 0.58403 0.43835 0.10175 0.0
H394 H 0.63703 0.43571 0.11557 0.0
H395 H 0.66825 0.50902 0.17241 0.0
H396 H 0.61933 0.51468 0.15832 0.0
H397 H 0.66763 0.45191 0.18017 0.0
H398 H 0.72159 0.54722 0.14145 0.0
H399 H 0.72617 0.57788 0.11134 0.0
H400 H 0.74357 0.51495 0.06928 0.0
H401 H 0.73821 0.48332 0.09912 0.0
C402 C 0.86271 0.54766 0.20398 0.0
C403 C 0.88577 0.54212 0.19197 0.0
C404 C 0.82149 0.52794 0.19725 0.0
C405 C 0.80315 0.50239 0.17859 0.0
C406 C 0.82568 0.49481 0.1677 0.0
C407 C 0.86699 0.51458 0.17445 0.0
C408 C 0.76304 0.48872 0.1685 0.0
C409 C 0.76091 0.49897 0.14866 0.0
C410 C 0.72923 0.47167 0.18 0.0
C411 C 0.73189 0.46363 0.20183 0.0
C412 C 0.73921 0.43993 0.20474 0.0
C413 C 0.74647 0.43542 0.22559 0.0
C414 C 0.74606 0.45431 0.24363 0.0
C415 C 0.7379 0.47741 0.24083 0.0
C416 C 0.73062 0.48198 0.21999 0.0
C417 C 0.60187 0.45359 0.11729 0.0
C418 C 0.59711 0.47664 0.1288 0.0
C419 C 0.63175 0.4518 0.12518 0.0
C420 C 0.65601 0.47214 0.14492 0.0
C421 C 0.64916 0.4928 0.15727 0.0
C422 C 0.62056 0.49557 0.14915 0.0
C423 C 0.69187 0.47567 0.15176 0.0
C424 C 0.6936 0.46463 0.17127 0.0
C425 C 0.72614 0.49398 0.14059 0.0
C426 C 0.72839 0.51221 0.12236 0.0
C427 C 0.72556 0.53939 0.12567 0.0
C428 C 0.72852 0.55709 0.10869 0.0
C429 C 0.73485 0.54819 0.08836 0.0
C430 C 0.73838 0.52164 0.08501 0.0
C431 C 0.73532 0.50377 0.10194 0.0
H432 H 0.73725 0.56198 0.07524 0.0
H433 H 0.75202 0.45101 0.25977 0.0
H434 H 0.47261 0.92752 0.49304 0.0
H435 H 0.41121 0.86716 0.4916 0.0
H436 H 0.33794 0.89824 0.47769 0.0
H437 H 0.39956 0.95922 0.47936 0.0
H438 H 0.30802 0.8545 0.50745 0.0
H439 H 0.35064 0.85368 0.43781 0.0
H440 H 0.39773 0.86329 0.41193 0.0
H441 H 0.41152 0.79399 0.4397 0.0
H442 H 0.36491 0.78431 0.46593 0.0
H443 H 0.12209 0.68193 0.47026 0.0
H444 H 0.18302 0.74367 0.47748 0.0
H445 H 0.25698 0.71166 0.48564 0.0
H446 H 0.19575 0.64973 0.47754 0.0
H447 H 0.2868 0.75651 0.45943 0.0
H448 H 0.24304 0.75632 0.52887 0.0
H449 H 0.19591 0.7468 0.5547 0.0
H450 H 0.184 0.81759 0.52758 0.0
H451 H 0.23067 0.82721 0.5014 0.0
C452 C 0.44354 0.92174 0.48962 0.0
C453 C 0.44127 0.94851 0.48624 0.0
C454 C 0.40832 0.88699 0.48871 0.0
C455 C 0.36979 0.87789 0.48426 0.0
C456 C 0.36728 0.90452 0.4811 0.0
C457 C 0.40261 0.93942 0.48199 0.0
C458 C 0.33233 0.84067 0.48317 0.0
C459 C 0.3031 0.83308 0.49675 0.0
C460 C 0.32627 0.81253 0.46963 0.0
C461 C 0.35461 0.81857 0.45399 0.0
C462 C 0.36401 0.84075 0.43853 0.0
C463 C 0.39055 0.84615 0.42377 0.0
C464 C 0.40769 0.82933 0.42421 0.0
C465 C 0.39827 0.80704 0.43939 0.0
C466 C 0.37177 0.80157 0.4542 0.0
C467 C 0.15131 0.68823 0.47431 0.0
C468 C 0.15431 0.66124 0.47378 0.0
C469 C 0.18621 0.72355 0.47844 0.0
C470 C 0.2249 0.73266 0.48235 0.0
C471 C 0.22762 0.7055 0.48272 0.0
C472 C 0.19267 0.67012 0.47834 0.0
C473 C 0.26245 0.77007 0.48392 0.0
C474 C 0.2917 0.77778 0.47029 0.0
C475 C 0.26848 0.79825 0.49745 0.0
C476 C 0.24009 0.79223 0.51304 0.0
C477 C 0.2301 0.76962 0.52828 0.0
C478 C 0.20352 0.76426 0.54302 0.0
C479 C 0.1869 0.78152 0.54275 0.0
C480 C 0.19686 0.80422 0.52776 0.0
C481 C 0.22341 0.80966 0.51299 0.0
H482 H 0.16636 0.77736 0.55418 0.0
H483 H 0.4282 0.83352 0.41275 0.0
H484 H 0.53948 0.29205 0.81796 0.0
H485 H 0.55313 0.25037 0.81266 0.0
H486 H 0.68148 0.33545 0.82944 0.0
H487 H 0.6681 0.37749 0.83444 0.0
H488 H 0.66301 0.28641 0.79364 0.0
H489 H 0.63223 0.28724 0.86647 0.0
H490 H 0.59183 0.28397 0.89483 0.0
H491 H 0.49037 0.17905 0.86534 0.0
H492 H 0.52998 0.18189 0.8366 0.0
H493 H 0.69973 0.16373 0.79819 0.0
H494 H 0.70048 0.21338 0.81042 0.0
H495 H 0.56936 0.14237 0.80271 0.0
H496 H 0.56889 0.093 0.79125 0.0
H497 H 0.59801 0.18975 0.83762 0.0
H498 H 0.62367 0.19029 0.76306 0.0
H499 H 0.66152 0.19159 0.73377 0.0
H500 H 0.76944 0.29188 0.76513 0.0
H501 H 0.73233 0.29088 0.79481 0.0
C502 C 0.57064 0.30194 0.82026 0.0
C503 C 0.60269 0.33798 0.82676 0.0
C504 C 0.57837 0.2781 0.81738 0.0
C505 C 0.61826 0.28984 0.82096 0.0
C506 C 0.65048 0.32591 0.82673 0.0
C507 C 0.64275 0.34979 0.82973 0.0
C508 C 0.62594 0.26417 0.81918 0.0
C509 C 0.64944 0.26562 0.8035 0.0
C510 C 0.60774 0.23684 0.83188 0.0
C511 C 0.584 0.23489 0.8493 0.0
C512 C 0.60122 0.26356 0.86595 0.0
C513 C 0.57847 0.26177 0.88211 0.0
C514 C 0.53854 0.23135 0.88187 0.0
C515 C 0.52131 0.20261 0.8655 0.0
C516 C 0.54391 0.20428 0.84929 0.0
C517 C 0.6713 0.15897 0.79953 0.0
C518 C 0.63425 0.12498 0.79387 0.0
C519 C 0.67166 0.18716 0.80638 0.0
C520 C 0.63493 0.1816 0.80718 0.0
C521 C 0.59802 0.14727 0.80226 0.0
C522 C 0.59771 0.11917 0.79567 0.0
C523 C 0.63428 0.21143 0.81173 0.0
C524 C 0.61211 0.21081 0.82796 0.0
C525 C 0.65332 0.23926 0.79937 0.0
C526 C 0.67535 0.24036 0.78124 0.0
C527 C 0.65552 0.21255 0.76375 0.0
C528 C 0.67683 0.21322 0.74709 0.0
C529 C 0.71789 0.24176 0.74762 0.0
C530 C 0.73765 0.26976 0.76477 0.0
C531 C 0.7165 0.26917 0.78151 0.0
H532 H 0.73436 0.24222 0.73472 0.0
H533 H 0.52097 0.23002 0.89438 0.0
H534 H 0.64557 0.90851 0.5115 0.0
H535 H 0.63485 0.85381 0.51236 0.0
H536 H 0.50647 0.79455 0.49311 0.0
H537 H 0.51703 0.84955 0.49216 0.0
H538 H 0.5214 0.76954 0.52582 0.0
H539 H 0.56313 0.79694 0.45622 0.0
H540 H 0.6062 0.83549 0.43042 0.0
H541 H 0.70927 0.85169 0.46295 0.0
H542 H 0.66683 0.81343 0.48908 0.0
H543 H 0.47901 0.60601 0.49744 0.0
H544 H 0.48755 0.65984 0.49751 0.0
H545 H 0.61637 0.72146 0.51664 0.0
H546 H 0.60827 0.6673 0.51564 0.0
H547 H 0.59976 0.74465 0.48354 0.0
H548 H 0.5543 0.71488 0.55326 0.0
H549 H 0.50818 0.67441 0.57748 0.0
H550 H 0.40823 0.66033 0.5426 0.0
H551 H 0.45372 0.70051 0.51805 0.0
C552 C 0.6151 0.88385 0.50718 0.0
C553 C 0.58221 0.8833 0.50153 0.0
C554 C 0.60901 0.85262 0.50775 0.0
C555 C 0.56997 0.82017 0.50252 0.0
C556 C 0.53686 0.81939 0.49717 0.0
C557 C 0.54293 0.85076 0.49665 0.0
C558 C 0.56415 0.78721 0.50272 0.0
C559 C 0.53808 0.76382 0.51636 0.0
C560 C 0.58638 0.78008 0.4906 0.0
C561 C 0.61187 0.80251 0.47467 0.0
C562 C 0.59502 0.80884 0.45792 0.0
C563 C 0.6193 0.83061 0.44323 0.0
C564 C 0.66046 0.84608 0.44506 0.0
C565 C 0.67737 0.83968 0.46154 0.0
C566 C 0.6532 0.81788 0.47627 0.0
C567 C 0.50924 0.63099 0.5016 0.0
C568 C 0.54304 0.63241 0.50638 0.0
C569 C 0.51398 0.66175 0.50185 0.0
C570 C 0.55251 0.69463 0.50729 0.0
C571 C 0.58634 0.69628 0.51245 0.0
C572 C 0.58163 0.66538 0.51207 0.0
C573 C 0.55738 0.72714 0.50686 0.0
C574 C 0.58319 0.75041 0.49307 0.0
C575 C 0.53451 0.7339 0.51865 0.0
C576 C 0.50737 0.71055 0.53377 0.0
C577 C 0.52246 0.70308 0.55073 0.0
C578 C 0.49644 0.6802 0.56452 0.0
C579 C 0.45529 0.66477 0.56156 0.0
C580 C 0.44012 0.67232 0.54487 0.0
C581 C 0.46602 0.69521 0.53106 0.0
H582 H 0.43517 0.64699 0.57221 0.0
H583 H 0.67924 0.86299 0.4337 0.0
H584 H 0.79268 0.5973 0.83103 0.0
H585 H 0.85039 0.597 0.83403 0.0
H586 H 0.76989 0.48762 0.84108 0.0
H587 H 0.7123 0.48819 0.83871 0.0
H588 H 0.83418 0.51313 0.86601 0.0
H589 H 0.82275 0.52712 0.79156 0.0
H590 H 0.81976 0.55555 0.76198 0.0
H591 H 0.93693 0.65221 0.78828 0.0
H592 H 0.94043 0.62442 0.81813 0.0
H593 H 0.9781 0.48281 0.85533 0.0
H594 H 0.92105 0.48343 0.84948 0.0
H595 H 1.00373 0.59173 0.84022 0.0
H596 H 0.06084 0.59038 0.84514 0.0
H597 H 0.93917 0.56799 0.81659 0.0
H598 H 0.95187 0.55581 0.89067 0.0
H599 H 0.95588 0.52947 0.92125 0.0
H600 H 0.83781 0.43214 0.89717 0.0
H601 H 0.83329 0.4578 0.8663 0.0
C602 C 0.78687 0.57296 0.83311 0.0
C603 C 0.74665 0.54273 0.83443 0.0
C604 C 0.82047 0.57269 0.83468 0.0
C605 C 0.8159 0.54204 0.83739 0.0
C606 C 0.77569 0.51193 0.83894 0.0
C607 C 0.74213 0.51223 0.83746 0.0
C608 C 0.85232 0.54132 0.83894 0.0
C609 C 0.85656 0.52476 0.85486 0.0
C610 C 0.88355 0.55718 0.82517 0.0
C611 C 0.88168 0.57378 0.80716 0.0
C612 C 0.84778 0.55448 0.79107 0.0
C613 C 0.84601 0.57047 0.77426 0.0
C614 C 0.87809 0.60568 0.77328 0.0
C615 C 0.91209 0.62495 0.78907 0.0
C616 C 0.91401 0.60908 0.80592 0.0
C617 C 0.98428 0.50661 0.85146 0.0
C618 C 1.02489 0.53622 0.85024 0.0
C619 C 0.9512 0.50727 0.84855 0.0
C620 C 0.9567 0.53801 0.84498 0.0
C621 C 0.99723 0.56737 0.84301 0.0
C622 C 1.03041 0.56654 0.84566 0.0
C623 C 0.92083 0.53951 0.84356 0.0
C624 C 0.91674 0.55626 0.82771 0.0
C625 C 0.88988 0.52409 0.85753 0.0
C626 C 0.89243 0.50862 0.87607 0.0
C627 C 0.92687 0.52873 0.89184 0.0
C628 C 0.92922 0.51393 0.90923 0.0
C629 C 0.89716 0.47913 0.91112 0.0
C630 C 0.86264 0.45908 0.89566 0.0
C631 C 0.86015 0.47375 0.87823 0.0
H632 H 0.89904 0.46771 0.92459 0.0
H633 H 0.87664 0.61803 0.76027 0.0
H634 H 0.17875 0.70893 0.16191 0.0
H635 H 0.2409 0.76861 0.16405 0.0
H636 H 0.31136 0.73337 0.17235 0.0
H637 H 0.24834 0.67262 0.17067 0.0
H638 H 0.34171 0.79488 0.20061 0.0
H639 H 0.29743 0.75339 0.12347 0.0
H640 H 0.24632 0.72575 0.09108 0.0
H641 H 0.23455 0.80662 0.10237 0.0
H642 H 0.28512 0.83445 0.135 0.0
H643 H 0.52493 0.95831 0.1913 0.0
H644 H 0.46719 0.89537 0.18295 0.0
H645 H 0.38814 0.91988 0.16654 0.0
H646 H 0.44642 0.98292 0.17416 0.0
H647 H 0.36336 0.8625 0.14108 0.0
H648 H 0.39759 0.90192 0.21664 0.0
H649 H 0.44239 0.93145 0.25145 0.0
H650 H 0.46503 0.85716 0.2467 0.0
H651 H 0.42101 0.8276 0.21158 0.0
C652 C 0.20729 0.71349 0.16414 0.0
C653 C 0.2083 0.68562 0.16593 0.0
C654 C 0.24297 0.74788 0.16527 0.0
C655 C 0.28089 0.75554 0.16793 0.0
C656 C 0.28238 0.72804 0.1701 0.0
C657 C 0.24637 0.69331 0.16905 0.0
C658 C 0.31856 0.79246 0.1686 0.0
C659 C 0.34697 0.80942 0.18738 0.0
C660 C 0.32441 0.81205 0.1518 0.0
C661 C 0.295 0.79594 0.13173 0.0
C662 C 0.28388 0.76523 0.11907 0.0
C663 C 0.25497 0.74951 0.10068 0.0
C664 C 0.23718 0.7644 0.09468 0.0
C665 C 0.24837 0.79512 0.10702 0.0
C666 C 0.27721 0.81091 0.12545 0.0
C667 C 0.4954 0.95011 0.18527 0.0
C668 C 0.49002 0.97525 0.18313 0.0
C669 C 0.46233 0.9142 0.18073 0.0
C670 C 0.42301 0.90274 0.17455 0.0
C671 C 0.41806 0.92794 0.17129 0.0
C672 C 0.45132 0.96392 0.17556 0.0
C673 C 0.38695 0.86483 0.17296 0.0
C674 C 0.35861 0.84782 0.15415 0.0
C675 C 0.3804 0.84548 0.19003 0.0
C676 C 0.40637 0.86278 0.21133 0.0
C677 C 0.41236 0.89202 0.22293 0.0
C678 C 0.43761 0.90877 0.24272 0.0
C679 C 0.45663 0.89625 0.25125 0.0
C680 C 0.45034 0.86688 0.24004 0.0
C681 C 0.42525 0.85012 0.22018 0.0
H682 H 0.47618 0.90925 0.26658 0.0
H683 H 0.21474 0.75214 0.08046 0.0
H684 H 0.50991 0.22804 0.51842 0.0
H685 H 0.52916 0.28687 0.52386 0.0
H686 H 0.58056 0.30682 0.46385 0.0
H687 H 0.56069 0.24761 0.45801 0.0
H688 H 0.62799 0.36438 0.50846 0.0
H689 H 0.50835 0.29515 0.45423 0.0
H690 H 0.43974 0.24061 0.43992 0.0
H691 H 0.39432 0.25171 0.49737 0.0
H692 H 0.46293 0.306 0.5122 0.0
H693 H 0.63377 0.51545 0.50919 0.0
H694 H 0.62595 0.46263 0.49513 0.0
H695 H 0.54124 0.40564 0.54023 0.0
H696 H 0.54921 0.45797 0.55435 0.0
H697 H 0.51462 0.36903 0.49728 0.0
H698 H 0.63044 0.43284 0.55279 0.0
H699 H 0.69775 0.4863 0.56988 0.0
H700 H 0.74953 0.48509 0.51265 0.0
H701 H 0.68226 0.43185 0.49507 0.0
C702 C 0.52565 0.24504 0.50648 0.0
C703 C 0.53384 0.23327 0.4878 0.0
C704 C 0.53666 0.27858 0.50963 0.0
C705 C 0.55649 0.30102 0.49431 0.0
C706 C 0.56548 0.28977 0.47586 0.0
C707 C 0.55365 0.25588 0.47244 0.0
C708 C 0.56455 0.33504 0.49699 0.0
C709 C 0.60357 0.36571 0.50552 0.0
C710 C 0.53234 0.33632 0.49355 0.0
C711 C 0.49081 0.30443 0.48439 0.0
C712 C 0.48378 0.28581 0.46387 0.0
C713 C 0.4449 0.25497 0.45566 0.0
C714 C 0.4127 0.24265 0.46775 0.0
C715 C 0.4193 0.26127 0.48803 0.0
C716 C 0.45818 0.29209 0.49634 0.0
C717 C 0.61383 0.49165 0.51613 0.0
C718 C 0.59262 0.49078 0.53305 0.0
C719 C 0.60925 0.46162 0.50808 0.0
C720 C 0.58292 0.43038 0.51666 0.0
C721 C 0.56156 0.42951 0.53339 0.0
C722 C 0.56656 0.45949 0.54162 0.0
C723 C 0.57809 0.39853 0.50881 0.0
C724 C 0.53946 0.36808 0.49956 0.0
C725 C 0.61061 0.39749 0.51174 0.0
C726 C 0.65131 0.42861 0.52254 0.0
C727 C 0.65615 0.44408 0.54381 0.0
C728 C 0.69427 0.47434 0.55359 0.0
C729 C 0.72788 0.48915 0.54234 0.0
C730 C 0.72345 0.47361 0.52133 0.0
C731 C 0.68534 0.44338 0.51145 0.0
H732 H 0.75736 0.51263 0.54991 0.0
H733 H 0.38263 0.21873 0.46138 0.0
H734 H 0.54153 0.56913 0.8075 0.0
H735 H 0.48255 0.56715 0.80837 0.0
H736 H 0.45017 0.5116 0.86306 0.0
H737 H 0.50667 0.51016 0.86032 0.0
H738 H 0.38562 0.49068 0.84952 0.0
H739 H 0.49656 0.61517 0.85788 0.0
H740 H 0.55755 0.67037 0.8488 0.0
H741 H 0.49399 0.65113 0.78678 0.0
H742 H 0.4326 0.59576 0.79553 0.0
H743 H 0.25988 0.54944 0.87384 0.0
H744 H 0.31514 0.54489 0.87517 0.0
H745 H 0.30285 0.52893 0.80566 0.0
H746 H 0.24692 0.53113 0.80417 0.0
H747 H 0.38908 0.58726 0.82889 0.0
H748 H 0.2752 0.46395 0.82542 0.0
H749 H 0.21584 0.41214 0.83828 0.0
H750 H 0.28936 0.43502 0.89721 0.0
H751 H 0.34905 0.48733 0.88484 0.0
C752 C 0.52196 0.55649 0.81979 0.0
C753 C 0.53002 0.54001 0.83388 0.0
C754 C 0.48781 0.55587 0.82064 0.0
C755 C 0.46072 0.54048 0.83645 0.0
C756 C 0.46911 0.52398 0.85053 0.0
C757 C 0.50226 0.5233 0.84906 0.0
C758 C 0.42385 0.5407 0.83812 0.0
C759 C 0.38751 0.51252 0.84534 0.0
C760 C 0.42343 0.56823 0.83264 0.0
C761 C 0.46023 0.60124 0.82727 0.0
C762 C 0.49571 0.62268 0.84227 0.0
C763 C 0.53032 0.65401 0.83719 0.0
C764 C 0.52971 0.66422 0.81718 0.0
C765 C 0.49443 0.64318 0.80225 0.0
C766 C 0.45971 0.61187 0.80728 0.0
C767 C 0.26797 0.54396 0.85878 0.0
C768 C 0.24799 0.54115 0.83888 0.0
C769 C 0.30034 0.54171 0.85953 0.0
C770 C 0.31474 0.53709 0.84047 0.0
C771 C 0.29375 0.53298 0.82078 0.0
C772 C 0.26115 0.53433 0.82001 0.0
C773 C 0.35202 0.5378 0.8405 0.0
C774 C 0.38804 0.56594 0.83338 0.0
C775 C 0.35253 0.51087 0.84673 0.0
C776 C 0.31646 0.47989 0.85434 0.0
C777 C 0.27859 0.45826 0.84126 0.0
C778 C 0.24491 0.42871 0.84842 0.0
C779 C 0.24878 0.42037 0.86859 0.0
C780 C 0.28636 0.44156 0.88162 0.0
C781 C 0.32012 0.47116 0.87454 0.0
H782 H 0.2227 0.39743 0.87409 0.0
H783 H 0.55649 0.68846 0.81324 0.0
H784 H 0.9355 0.48262 0.14918 0.0
H785 H 0.87483 0.42372 0.15329 0.0
H786 H 0.95061 0.39756 0.17376 0.0
H787 H 1.01058 0.45511 0.1681 0.0
H788 H 0.88924 0.34335 0.15106 0.0
H789 H 0.90262 0.42115 0.21094 0.0
H790 H 0.9113 0.47388 0.22657 0.0
H791 H 0.80015 0.43519 0.18898 0.0
H792 H 0.79062 0.38223 0.17321 0.0
H793 H 0.72292 0.18458 0.18424 0.0
H794 H 0.78804 0.2444 0.18766 0.0
H795 H 0.72529 0.28098 0.16364 0.0
H796 H 0.66083 0.22241 0.16144 0.0
H797 H 0.78381 0.33031 0.19177 0.0
H798 H 0.77408 0.2539 0.13059 0.0
H799 H 0.76844 0.20297 0.11424 0.0
H800 H 0.87647 0.24069 0.15499 0.0
H801 H 0.8825 0.29165 0.1717 0.0
C802 C 0.93902 0.46409 0.15433 0.0
C803 C 0.97776 0.47343 0.15816 0.0
C804 C 0.90436 0.4305 0.15694 0.0
C805 C 0.90787 0.40612 0.1644 0.0
C806 C 0.9467 0.41555 0.16799 0.0
C807 C 0.9811 0.44859 0.16473 0.0
C808 C 0.87145 0.37093 0.16857 0.0
C809 C 0.86657 0.34067 0.16026 0.0
C810 C 0.84148 0.36693 0.1805 0.0
C811 C 0.84588 0.39773 0.19094 0.0
C812 C 0.87986 0.4238 0.20615 0.0
C813 C 0.88489 0.45372 0.21505 0.0
C814 C 0.85601 0.45773 0.20895 0.0
C815 C 0.82211 0.43183 0.19394 0.0
C816 C 0.81681 0.40182 0.18506 0.0
C817 C 0.72307 0.20564 0.18024 0.0
C818 C 0.68671 0.19854 0.17218 0.0
C819 C 0.76037 0.23979 0.18191 0.0
C820 C 0.76198 0.26729 0.17529 0.0
C821 C 0.7253 0.26048 0.16868 0.0
C822 C 0.68831 0.22675 0.16727 0.0
C823 C 0.80125 0.30267 0.17394 0.0
C824 C 0.80676 0.33304 0.1828 0.0
C825 C 0.83203 0.30679 0.16271 0.0
C826 C 0.82849 0.27632 0.15253 0.0
C827 C 0.7965 0.2512 0.13611 0.0
C828 C 0.79325 0.22236 0.12678 0.0
C829 C 0.82201 0.21855 0.13362 0.0
C830 C 0.85417 0.24364 0.14974 0.0
C831 C 0.85754 0.2725 0.15913 0.0
H832 H 0.81943 0.19619 0.12638 0.0
H833 H 0.85995 0.48093 0.21576 0.0
H834 H 0.14955 0.62625 0.09812 0.0
H835 H 0.15541 0.61702 0.05968 0.0
H836 H 1.03984 0.51279 0.05181 0.0
H837 H 1.03449 0.52198 0.09037 0.0
H838 H 0.0914 0.51223 0.02879 0.0
H839 H 1.04657 0.58094 0.03619 0.0
H840 H 1.04897 0.6304 0.05178 0.0
H841 H 0.16595 0.70356 0.03137 0.0
H842 H 0.16438 0.65449 0.01581 0.0
H843 H 1.03977 0.48994 0.91436 0.0
H844 H 1.04242 0.49627 0.95388 0.0
H845 H 0.1638 0.59475 0.96013 0.0
H846 H 0.16136 0.58825 0.92053 0.0
H847 H 0.11113 0.59855 0.98395 0.0
H848 H 0.15224 0.52682 0.97456 0.0
H849 H 0.14653 0.4757 0.95876 0.0
H850 H 1.03201 0.40619 0.98246 0.0
H851 H 1.03678 0.45691 -0.00184 0.0
C852 C 0.1259 0.60117 0.0882 0.0
C853 C 0.09181 0.57465 0.09708 0.0
C854 C 0.12902 0.59598 0.06623 0.0
C855 C 0.09777 0.56436 0.05269 0.0
C856 C 0.06435 0.53738 0.06185 0.0
C857 C 0.06131 0.54257 0.08385 0.0
C858 C 0.09917 0.55998 0.02889 0.0
C859 C 0.09532 0.53094 0.01898 0.0
C860 C 0.10473 0.58453 0.016 0.0
C861 C 0.10554 0.61408 0.02502 0.0
C862 C 0.0729 0.60759 0.03513 0.0
C863 C 0.07409 0.63554 0.04393 0.0
C864 C 0.10764 0.67011 0.04261 0.0
C865 C 0.13999 0.67677 0.03239 0.0
C866 C 0.13895 0.6489 0.02354 0.0
C867 C 0.06729 0.51259 0.92421 0.0
C868 C 0.10051 0.53846 0.91439 0.0
C869 C 0.06876 0.51622 0.94677 0.0
C870 C 0.10333 0.54598 0.96001 0.0
C871 C 0.13684 0.57155 0.95026 0.0
C872 C 0.13559 0.56767 0.92767 0.0
C873 C 0.1037 0.55098 0.98393 0.0
C874 C 0.10756 0.58001 0.99381 0.0
C875 C 0.09763 0.5262 -0.00328 0.0
C876 C 0.0947 0.49565 0.98737 0.0
C877 C 0.12568 0.50062 0.97625 0.0
C878 C 0.12264 0.47172 0.96734 0.0
C879 C 0.08888 0.43771 0.96956 0.0
C880 C 0.05813 0.43255 0.98074 0.0
C881 C 0.061 0.46137 0.98966 0.0
H882 H 0.0866 0.41537 0.96266 0.0
H883 H 0.10854 0.69173 0.04948 0.0
H884 H 0.5139 0.98797 0.41359 0.0
H885 H 0.51442 0.99821 0.37608 0.0
H886 H 0.57282 0.1074 0.39845 0.0
H887 H 0.57011 0.09655 0.43613 0.0
H888 H 0.5233 0.08242 0.35873 0.0
H889 H 0.63006 0.08148 0.38994 0.0
H890 H 0.6529 0.05371 0.40916 0.0
H891 H 0.5861 0.96424 0.35862 0.0
H892 H 0.56244 0.99127 0.33926 0.0
H893 H 0.58387 0.11499 0.25313 0.0
H894 H 0.58853 0.12178 0.29269 0.0
H895 H 0.55774 0.01946 0.29051 0.0
H896 H 0.55922 0.01512 0.25204 0.0
H897 H 0.60301 0.05272 0.3231 0.0
H898 H 0.48685 0.0445 0.29444 0.0
H899 H 0.45642 0.06611 0.27484 0.0
H900 H 0.53134 0.16423 0.3183 0.0
H901 H 0.56243 0.14327 0.33802 0.0
C902 C 0.52535 0.01379 0.41044 0.0
C903 C 0.54189 0.04146 0.42759 0.0
C904 C 0.52591 0.01972 0.38905 0.0
C905 C 0.5448 0.05383 0.38446 0.0
C906 C 0.55831 0.08094 0.40159 0.0
C907 C 0.55665 0.07472 0.42309 0.0
C908 C 0.55528 0.06175 0.3623 0.0
C909 C 0.54094 0.07617 0.35091 0.0
C910 C 0.57834 0.05366 0.35208 0.0
C911 C 0.59448 0.0384 0.36318 0.0
C912 C 0.62034 0.05593 0.38292 0.0
C913 C 0.63334 0.04028 0.39386 0.0
C914 C 0.62096 0.00724 0.38512 0.0
C915 C 0.59572 0.98985 0.36536 0.0
C916 C 0.58257 1.00536 0.35438 0.0
C917 C 0.57929 0.09445 0.26118 0.0
C918 C 0.56981 0.06393 0.24912 0.0
C919 C 0.58107 0.098 0.28386 0.0
C920 C 0.57184 0.07053 0.29482 0.0
C921 C 0.56463 0.04109 0.28278 0.0
C922 C 0.56469 0.0383 0.26047 0.0
C923 C 0.56856 0.07108 0.31858 0.0
C924 C 0.58515 0.05893 0.33064 0.0
C925 C 0.54656 0.08029 0.32908 0.0
C926 C 0.52718 0.09247 0.31754 0.0
C927 C 0.49683 0.07069 0.29977 0.0
C928 C 0.47951 0.08284 0.28864 0.0
C929 C 0.49202 0.11656 0.29529 0.0
C930 C 0.52173 0.13814 0.31315 0.0
C931 C 0.53918 0.12615 0.32431 0.0
H932 H 0.47864 0.12594 0.28663 0.0
H933 H 0.63093 0.9951 0.39366 0.0
H934 H 0.65604 0.58166 0.77976 0.0
H935 H 0.65659 0.59752 0.74385 0.0
H936 H 0.59359 0.48968 0.71507 0.0
H937 H 0.59394 0.47411 0.75101 0.0
H938 H 0.65182 0.53361 0.69188 0.0
H939 H 0.54311 0.52283 0.72333 0.0
H940 H 0.51403 0.53668 0.75153 0.0
H941 H 0.59186 0.64486 0.74235 0.0
H942 H 0.62179 0.63171 0.71428 0.0
H943 H 0.54248 0.50351 0.5951 0.0
H944 H 0.55356 0.50824 0.63434 0.0
H945 H 0.64921 0.61994 0.63938 0.0
H946 H 0.63855 0.61514 0.59967 0.0
H947 H 0.5843 0.5847 0.67526 0.0
H948 H 0.68976 0.59206 0.64104 0.0
H949 H 0.71371 0.57405 0.61197 0.0
H950 H 0.6375 0.46853 0.62615 0.0
H951 H 0.61246 0.48579 0.65504 0.0
C952 C 0.64307 0.56159 0.76579 0.0
C953 C 0.62522 0.5268 0.76822 0.0
C954 C 0.64299 0.57055 0.74525 0.0
C955 C 0.62473 0.54472 0.72674 0.0
C956 C 0.60787 0.51008 0.7291 0.0
C957 C 0.60798 0.50119 0.74965 0.0
C958 C 0.62199 0.55328 0.70495 0.0
C959 C 0.63717 0.54488 0.68833 0.0
C960 C 0.60344 0.56854 0.7003 0.0
C961 C 0.585 0.57637 0.71689 0.0
C962 C 0.55419 0.54961 0.72742 0.0
C963 C 0.53753 0.55732 0.74337 0.0
C964 C 0.55117 0.59165 0.74877 0.0
C965 C 0.58138 0.6183 0.73817 0.0
C966 C 0.59818 0.61073 0.72223 0.0
C967 C 0.56496 0.52927 0.60465 0.0
C968 C 0.58974 0.55897 0.59448 0.0
C969 C 0.5713 0.53192 0.62702 0.0
C970 C 0.60236 0.56435 0.63965 0.0
C971 C 0.62499 0.59471 0.62982 0.0
C972 C 0.61882 0.59201 0.60724 0.0
C973 C 0.61396 0.56483 0.6624 0.0
C974 C 0.60003 0.57447 0.67908 0.0
C975 C 0.63345 0.55051 0.66715 0.0
C976 C 0.64893 0.54015 0.65004 0.0
C977 C 0.6778 0.56494 0.63782 0.0
C978 C 0.69162 0.55488 0.6214 0.0
C979 C 0.67705 0.52014 0.61718 0.0
C980 C 0.64871 0.49542 0.62942 0.0
C981 C 0.63471 0.50533 0.64582 0.0
H982 H 0.6878 0.5124 0.60447 0.0
H983 H 0.53828 0.59757 0.76115 0.0
H984 H 0.54241 0.01509 0.54145 0.0
H985 H 0.55636 1.00612 0.57758 0.0
H986 H 0.59994 0.10996 0.60418 0.0
H987 H 0.58511 0.11862 0.56817 0.0
H988 H 0.6513 0.08533 0.61512 0.0
H989 H 0.51772 0.05674 0.61432 0.0
H990 H 0.44622 0.02338 0.59881 0.0
H991 H 0.42321 0.92642 0.60555 0.0
H992 H 0.49481 0.95926 0.62079 0.0
H993 H 0.67117 0.10824 0.72704 0.0
H994 H 0.65933 0.10429 0.68855 0.0
H995 H 0.56487 0.99203 0.68272 0.0
H996 H 0.5727 0.99684 0.72228 0.0
H997 H 0.53878 0.01211 0.65815 0.0
H998 H 0.66762 0.03806 0.6636 0.0
H999 H 0.73877 0.06903 0.67875 0.0
H1000 H 0.77199 0.16567 0.66174 0.0
H1001 H 0.701 0.13541 0.64672 0.0
C1002 C 0.55569 0.03618 0.55496 0.0
C1003 C 0.56353 0.06782 0.55206 0.0
C1004 C 0.56326 0.03092 0.57558 0.0
C1005 C 0.57934 0.05745 0.59349 0.0
C1006 C 0.5877 0.08925 0.59052 0.0
C1007 C 0.57921 0.09416 0.57002 0.0
C1008 C 0.58678 0.05199 0.61548 0.0
C1009 C 0.62685 0.06943 0.62464 0.0
C1010 C 0.5547 0.03006 0.62745 0.0
C1011 C 0.5117 0.01041 0.61839 0.0
C1012 C 0.49752 0.0283 0.61226 0.0
C1013 C 0.45696 0.00949 0.60357 0.0
C1014 C 0.43022 0.97279 0.60111 0.0
C1015 C 0.44397 0.95484 0.60741 0.0
C1016 C 0.48453 0.97353 0.61607 0.0
C1017 C 0.64755 0.08258 0.71773 0.0
C1018 C 0.62219 0.05303 0.72805 0.0
C1019 C 0.64147 0.08019 0.69539 0.0
C1020 C 0.61179 0.04771 0.68225 0.0
C1021 C 0.58806 0.01753 0.69233 0.0
C1022 C 0.59297 0.02018 0.715 0.0
C1023 C 0.60387 0.04626 0.65842 0.0
C1024 C 0.56357 0.02748 0.64872 0.0
C1025 C 0.63585 0.0664 0.64575 0.0
C1026 C 0.67892 0.08442 0.65405 0.0
C1027 C 0.6901 0.06591 0.66309 0.0
C1028 C 0.7304 0.08336 0.67168 0.0
C1029 C 0.75987 0.11929 0.67121 0.0
C1030 C 0.74914 0.13782 0.66206 0.0
C1031 C 0.7089 0.12051 0.65344 0.0
H1032 H 0.79102 0.13277 0.67795 0.0
H1033 H 0.39883 0.95827 0.5944 0.0
H1034 H 0.70491 0.57845 0.90938 0.0
H1035 H 0.68472 0.56757 0.9458 0.0
H1036 H 0.55937 0.50897 0.91907 0.0
H1037 H 0.5789 0.5183 0.88292 0.0
H1038 H 0.64622 0.58744 0.96843 0.0
H1039 H 0.50963 0.45045 0.9338 0.0
H1040 H 0.49241 0.39934 0.90898 0.0
H1041 H 0.60504 0.42357 0.93319 0.0
H1042 H 0.62319 0.47521 0.9577 0.0
H1043 H 0.56171 0.55491 0.06551 0.0
H1044 H 0.56594 0.55857 0.0274 0.0
H1045 H 0.56823 0.4714 0.01907 0.0
H1046 H 0.55401 0.46215 0.05519 0.0
H1047 H 0.54244 0.46756 0.98532 0.0
H1048 H 0.66061 0.5748 0.03059 0.0
H1049 H 0.69547 0.62849 0.05768 0.0
H1050 H 0.64813 0.66665 0.01915 0.0
H1051 H 0.61273 0.61304 0.99195 0.0
C1052 C 0.67304 0.56275 0.91136 0.0
C1053 C 0.64343 0.54906 0.89345 0.0
C1054 C 0.6616 0.55672 0.93207 0.0
C1055 C 0.62053 0.53713 0.935 0.0
C1056 C 0.59107 0.52333 0.91706 0.0
C1057 C 0.60234 0.52884 0.89643 0.0
C1058 C 0.60803 0.53191 0.9568 0.0
C1059 C 0.6238 0.56132 0.97238 0.0
C1060 C 0.57938 0.49795 0.96186 0.0
C1061 C 0.56773 0.46656 0.94742 0.0
C1062 C 0.53059 0.44475 0.93379 0.0
C1063 C 0.5208 0.41585 0.91972 0.0
C1064 C 0.54764 0.40824 0.91949 0.0
C1065 C 0.58436 0.42956 0.9333 0.0
C1066 C 0.5945 0.45872 0.94717 0.0
C1067 C 0.56198 0.53578 0.05565 0.0
C1068 C 0.56043 0.50962 0.06447 0.0
C1069 C 0.5654 0.53852 0.03367 0.0
C1070 C 0.57026 0.51688 0.02035 0.0
C1071 C 0.56555 0.48924 0.02874 0.0
C1072 C 0.55893 0.48478 0.05007 0.0
C1073 C 0.58195 0.52327 -0.00186 0.0
C1074 C 0.56533 0.49397 0.98199 0.0
C1075 C 0.61213 0.55751 0.99319 0.0
C1076 C 0.63373 0.58982 0.00941 0.0
C1077 C 0.6576 0.59463 0.02796 0.0
C1078 C 0.67741 0.62502 0.04332 0.0
C1079 C 0.67391 0.65091 0.04017 0.0
C1080 C 0.65074 0.64655 0.0216 0.0
C1081 C 0.63082 0.61619 0.00621 0.0
H1082 H 0.68923 0.67439 0.05209 0.0
H1083 H 0.53997 0.38582 0.90863 0.0
H1084 H 1.02585 0.51495 0.2236 0.0
H1085 H 1.02239 0.51866 0.26245 0.0
H1086 H 0.11798 0.63088 0.27098 0.0
H1087 H 0.12154 0.62721 0.2317 0.0
H1088 H 0.13048 0.59749 0.30076 0.0
H1089 H 1.02732 0.60379 0.27694 0.0
H1090 H 0.96819 0.58617 0.25256 0.0
H1091 H 0.896 0.48354 0.27123 0.0
H1092 H 0.95494 0.50044 0.29558 0.0
H1093 H 0.09153 0.63257 0.40592 0.0
H1094 H 0.08745 0.62733 0.36663 0.0
H1095 H 1.03693 0.51876 0.36198 0.0
H1096 H 1.04245 0.52412 0.40179 0.0
H1097 H 1.00194 0.55135 0.33071 0.0
H1098 H 0.11179 0.54645 0.35193 0.0
H1099 H 0.17245 0.56772 0.37656 0.0
H1100 H 0.23289 0.67264 0.3632 0.0
H1101 H 0.17229 0.65197 0.33866 0.0
C1102 C 1.04568 0.54053 0.2337 0.0
C1103 C 0.07381 0.57082 0.22468 0.0
C1104 C 1.04376 0.5426 0.2559 0.0
C1105 C 0.06995 0.57502 0.26963 0.0
C1106 C 0.09758 0.60558 0.26065 0.0
C1107 C 0.09926 0.60355 0.23824 0.0
C1108 C 0.0682 0.57629 0.29333 0.0
C1109 C 0.10248 0.5877 0.30728 0.0
C1110 C 1.03161 0.56325 0.30189 0.0
C1111 C 0.99557 0.55333 0.28802 0.0
C1112 C 0.99884 0.57743 0.27583 0.0
C1113 C 0.96539 0.56758 0.26201 0.0
C1114 C 0.92836 0.53376 0.26036 0.0
C1115 C 0.92469 0.50976 0.27259 0.0
C1116 C 0.9581 0.51948 0.28644 0.0
C1117 C 0.07967 0.60751 0.39663 0.0
C1118 C 0.06818 0.57894 0.40704 0.0
C1119 C 0.07703 0.60455 0.37415 0.0
C1120 C 0.06219 0.57281 0.3615 0.0
C1121 C 1.04851 0.54351 0.37159 0.0
C1122 C 0.05158 0.54657 0.39427 0.0
C1123 C 0.06379 0.57161 0.33788 0.0
C1124 C 1.0297 0.56072 0.32405 0.0
C1125 C 0.10062 0.58542 0.32945 0.0
C1126 C 0.13748 0.59773 0.34362 0.0
C1127 C 0.13795 0.57408 0.35435 0.0
C1128 C 0.17231 0.58602 0.36827 0.0
C1129 C 0.20647 0.62153 0.37148 0.0
C1130 C 0.2064 0.64515 0.36069 0.0
C1131 C 0.17208 0.63333 0.34675 0.0
H1132 H 0.23302 0.63074 0.3823 0.0
H1133 H 0.90253 0.52617 0.24961 0.0
loop_
_geom_bond_atom_site_label_1
_geom_bond_atom_site_label_2
_geom_bond_distance
_geom_bond_site_symmetry_2
_ccdc_geom_bond_type
Sm0 C2 2.846 . S
Sm0 O20 2.543 . S
Sm0 O21 2.450 . S
Sm0 O22 2.681 . S
Sm0 O23 2.464 . S
Sm0 O24 2.396 . S
Sm0 O28 2.386 . S
Sm0 O31 2.408 1_455 S
Sm1 C11 2.846 1_455 S
Sm1 O22 2.386 . S
Sm1 O25 2.408 . S
Sm1 O26 2.543 1_455 S
Sm1 O27 2.450 1_455 S
Sm1 O28 2.681 . S
Sm1 O29 2.464 . S
Sm1 O30 2.396 1_455 S
C2 Sm0 2.846 . S
C2 C3 1.506 . S
C2 O20 1.261 . S
C2 O21 1.242 . S
C3 C2 1.506 . S
C3 C4 1.358 . S
C3 C8 1.382 . S
C4 C3 1.358 . S
C4 C5 1.385 . S
C4 H32 0.930 . S
C5 C4 1.385 . S
C5 C6 1.395 . S
C5 H33 0.929 . S
C6 C5 1.395 . S
C6 C7 1.335 . S
C7 C6 1.335 . S
C7 C8 1.398 . S
C7 H34 0.930 . S
C8 C3 1.382 . S
C8 C7 1.398 . S
C8 H35 0.929 . S
C9 O22 1.271 . S
C9 O23 1.251 . S
C10 O24 1.252 . S
C10 O25 1.272 . S
C11 Sm1 2.846 1_655 S
C11 C12 1.506 . S
C11 O26 1.261 . S
C11 O27 1.242 . S
C12 C11 1.506 . S
C12 C13 1.358 . S
C12 C17 1.382 . S
C13 C12 1.358 . S
C13 C14 1.385 . S
C13 H36 0.930 . S
C14 C13 1.385 . S
C14 C15 1.395 . S
C14 H37 0.929 . S
C15 C14 1.395 . S
C15 C16 1.335 . S
C16 C15 1.335 . S
C16 C17 1.398 . S
C16 H38 0.930 . S
C17 C12 1.382 . S
C17 C16 1.398 . S
C17 H39 0.929 . S
C18 O28 1.271 . S
C18 O29 1.251 . S
C19 O30 1.252 . S
C19 O31 1.272 . S
O20 Sm0 2.543 . S
O20 C2 1.261 . S
O21 Sm0 2.450 . S
O21 C2 1.242 . S
O22 Sm0 2.681 . S
O22 Sm1 2.386 . S
O22 C9 1.271 . S
O23 Sm0 2.464 . S
O23 C9 1.251 . S
O24 Sm0 2.396 . S
O24 C10 1.252 . S
O25 Sm1 2.408 . S
O25 C10 1.272 . S
O26 Sm1 2.543 1_655 S
O26 C11 1.261 . S
O27 Sm1 2.450 1_655 S
O27 C11 1.242 . S
O28 Sm0 2.386 . S
O28 Sm1 2.681 . S
O28 C18 1.271 . S
O29 Sm1 2.464 . S
O29 C18 1.251 . S
O30 Sm1 2.396 1_655 S
O30 C19 1.252 . S
O31 Sm0 2.408 1_655 S
O31 C19 1.272 . S
H32 C4 0.930 . S
H33 C5 0.929 . S
H34 C7 0.930 . S
H35 C8 0.929 . S
H36 C13 0.930 . S
H37 C14 0.929 . S
H38 C16 0.930 . S
H39 C17 0.929 . S
Sm40 C42 2.846 1_545 S
Sm40 O60 2.543 1_545 S
Sm40 O61 2.450 1_545 S
Sm40 O62 2.681 . S
Sm40 O63 2.464 . S
Sm40 O64 2.396 1_545 S
Sm40 O68 2.386 . S
Sm40 O71 2.408 . S
Sm41 C51 2.846 . S
Sm41 O62 2.386 . S
Sm41 O65 2.408 . S
Sm41 O66 2.543 . S
Sm41 O67 2.450 . S
Sm41 O68 2.681 . S
Sm41 O69 2.464 . S
Sm41 O70 2.396 . S
C42 Sm40 2.846 1_565 S
C42 C43 1.506 . S
C42 O60 1.261 . S
C42 O61 1.242 . S
C43 C42 1.506 . S
C43 C44 1.358 . S
C43 C48 1.382 . S
C44 C43 1.358 . S
C44 C45 1.385 . S
C44 H72 0.930 . S
C45 C44 1.385 . S
C45 C46 1.395 . S
C45 H73 0.929 . S
C46 C45 1.395 . S
C46 C47 1.335 . S
C47 C46 1.335 . S
C47 C48 1.398 . S
C47 H74 0.930 . S
C48 C43 1.382 . S
C48 C47 1.398 . S
C48 H75 0.929 . S
C49 O62 1.271 . S
C49 O63 1.251 . S
C50 O64 1.252 . S
C50 O65 1.272 1_565 S
C51 Sm41 2.846 . S
C51 C52 1.506 . S
C51 O66 1.261 . S
C51 O67 1.242 . S
C52 C51 1.506 . S
C52 C53 1.358 . S
C52 C57 1.382 . S
C53 C52 1.358 . S
C53 C54 1.385 . S
C53 H76 0.930 . S
C54 C53 1.385 . S
C54 C55 1.395 . S
C54 H77 0.929 . S
C55 C54 1.395 . S
C55 C56 1.335 . S
C56 C55 1.335 . S
C56 C57 1.398 . S
C56 H78 0.930 . S
C57 C52 1.382 . S
C57 C56 1.398 . S
C57 H79 0.929 . S
C58 O68 1.271 . S
C58 O69 1.251 . S
C59 O70 1.252 . S
C59 O71 1.272 . S
O60 Sm40 2.543 1_565 S
O60 C42 1.261 . S
O61 Sm40 2.450 1_565 S
O61 C42 1.242 . S
O62 Sm40 2.681 . S
O62 Sm41 2.386 . S
O62 C49 1.271 . S
O63 Sm40 2.464 . S
O63 C49 1.251 . S
O64 Sm40 2.396 1_565 S
O64 C50 1.252 . S
O65 Sm41 2.408 . S
O65 C50 1.272 1_545 S
O66 Sm41 2.543 . S
O66 C51 1.261 . S
O67 Sm41 2.450 . S
O67 C51 1.242 . S
O68 Sm40 2.386 . S
O68 Sm41 2.681 . S
O68 C58 1.271 . S
O69 Sm41 2.464 . S
O69 C58 1.251 . S
O70 Sm41 2.396 . S
O70 C59 1.252 . S
O71 Sm40 2.408 . S
O71 C59 1.272 . S
H72 C44 0.930 . S
H73 C45 0.929 . S
H74 C47 0.930 . S
H75 C48 0.929 . S
H76 C53 0.930 . S
H77 C54 0.929 . S
H78 C56 0.930 . S
H79 C57 0.929 . S
Sm80 C82 2.846 . S
Sm80 O100 2.543 . S
Sm80 O101 2.450 . S
Sm80 O102 2.681 . S
Sm80 O103 2.464 . S
Sm80 O104 2.396 . S
Sm80 O108 2.386 . S
Sm80 O111 2.408 . S
Sm81 C91 2.846 . S
Sm81 O102 2.386 . S
Sm81 O105 2.408 . S
Sm81 O106 2.543 . S
Sm81 O107 2.450 . S
Sm81 O108 2.681 . S
Sm81 O109 2.464 . S
Sm81 O110 2.396 . S
C82 Sm80 2.846 . S
C82 C83 1.506 . S
C82 O100 1.261 . S
C82 O101 1.242 . S
C83 C82 1.506 . S
C83 C84 1.358 . S
C83 C88 1.382 . S
C84 C83 1.358 . S
C84 C85 1.385 . S
C84 H112 0.930 . S
C85 C84 1.385 . S
C85 C86 1.395 . S
C85 H113 0.929 . S
C86 C85 1.395 . S
C86 C87 1.335 . S
C87 C86 1.335 . S
C87 C88 1.398 . S
C87 H114 0.930 . S
C88 C83 1.382 . S
C88 C87 1.398 . S
C88 H115 0.929 . S
C89 O102 1.271 . S
C89 O103 1.251 . S
C90 O104 1.252 . S
C90 O105 1.272 . S
C91 Sm81 2.846 . S
C91 C92 1.506 . S
C91 O106 1.261 . S
C91 O107 1.242 . S
C92 C91 1.506 . S
C92 C93 1.358 . S
C92 C97 1.382 . S
C93 C92 1.358 . S
C93 C94 1.385 . S
C93 H116 0.930 . S
C94 C93 1.385 . S
C94 C95 1.395 . S
C94 H117 0.929 . S
C95 C94 1.395 . S
C95 C96 1.335 . S
C96 C95 1.335 . S
C96 C97 1.398 . S
C96 H118 0.930 . S
C97 C92 1.382 . S
C97 C96 1.398 . S
C97 H119 0.929 . S
C98 O108 1.271 . S
C98 O109 1.251 . S
C99 O110 1.252 . S
C99 O111 1.272 . S
O100 Sm80 2.543 . S
O100 C82 1.261 . S
O101 Sm80 2.450 . S
O101 C82 1.242 . S
O102 Sm80 2.681 . S
O102 Sm81 2.386 . S
O102 C89 1.271 . S
O103 Sm80 2.464 . S
O103 C89 1.251 . S
O104 Sm80 2.396 . S
O104 C90 1.252 . S
O105 Sm81 2.408 . S
O105 C90 1.272 . S
O106 Sm81 2.543 . S
O106 C91 1.261 . S
O107 Sm81 2.450 . S
O107 C91 1.242 . S
O108 Sm80 2.386 . S
O108 Sm81 2.681 . S
O108 C98 1.271 . S
O109 Sm81 2.464 . S
O109 C98 1.251 . S
O110 Sm81 2.396 . S
O110 C99 1.252 . S
O111 Sm80 2.408 . S
O111 C99 1.272 . S
H112 C84 0.930 . S
H113 C85 0.929 . S
H114 C87 0.930 . S
H115 C88 0.929 . S
H116 C93 0.930 . S
H117 C94 0.929 . S
H118 C96 0.930 . S
H119 C97 0.929 . S
H120 C121 0.949 . S
C121 H120 0.949 . S
C121 C122 1.395 . S
C121 C123 1.391 . S
C122 C121 1.395 . S
C122 C125 1.390 . S
C123 C121 1.391 . S
C123 C127 1.387 . S
C123 C128 1.491 . S
H124 C125 0.934 1_565 S
C125 C122 1.390 . S
C125 H124 0.934 1_545 S
C125 C126 1.378 . S
C126 C125 1.378 . S
C126 C127 1.409 . S
C127 C123 1.387 . S
C127 C126 1.409 . S
C127 H129 0.951 . S
C128 C123 1.491 . S
C128 C130 1.382 . S
C128 C132 1.404 . S
H129 C127 0.951 . S
C130 C128 1.382 . S
C130 C131 1.390 . S
C130 H135 0.949 . S
C131 C130 1.390 . S
C131 C136 1.399 . S
C132 C128 1.404 . S
C132 H133 0.950 . S
C132 C134 1.375 . S
H133 C132 0.950 . S
C134 C132 1.375 . S
C134 C136 1.382 . S
C134 H138 0.950 . S
H135 C130 0.949 . S
C136 C131 1.399 . S
C136 C134 1.382 . S
C136 H137 0.952 . S
H137 C136 0.952 . S
H138 C134 0.950 . S
H139 C140 0.949 . S
C140 H139 0.949 . S
C140 C141 1.395 . S
C140 C142 1.391 . S
C141 C140 1.395 . S
C141 C144 1.390 . S
C142 C140 1.391 . S
C142 C146 1.387 . S
C142 C147 1.491 . S
H143 C144 0.950 . S
C144 C141 1.390 . S
C144 H143 0.950 . S
C144 C145 1.378 . S
C145 C144 1.378 . S
C145 C146 1.409 . S
C146 C142 1.387 . S
C146 C145 1.409 . S
C146 H148 0.951 . S
C147 C142 1.491 . S
C147 C149 1.382 . S
C147 C151 1.404 . S
H148 C146 0.951 . S
C149 C147 1.382 . S
C149 C150 1.390 . S
C149 H154 0.949 . S
C150 C149 1.390 . S
C150 C155 1.399 . S
C151 C147 1.404 . S
C151 H152 0.950 . S
C151 C153 1.375 . S
H152 C151 0.950 . S
C153 C151 1.375 . S
C153 C155 1.382 . S
C153 H157 0.950 . S
H154 C149 0.949 . S
C155 C150 1.399 . S
C155 C153 1.382 . S
C155 H156 0.952 . S
H156 C155 0.952 . S
H157 C153 0.950 . S
H158 C159 0.949 . S
C159 H158 0.949 . S
C159 C160 1.395 . S
C159 C161 1.391 . S
C160 C159 1.395 . S
C160 C163 1.390 . S
C161 C159 1.391 . S
C161 C165 1.387 . S
C161 C166 1.491 . S
H162 C163 0.950 . S
C163 C160 1.390 . S
C163 H162 0.950 . S
C163 C164 1.378 . S
C164 C163 1.378 . S
C164 C165 1.409 . S
C165 C161 1.387 . S
C165 C164 1.409 . S
C165 H167 0.951 . S
C166 C161 1.491 . S
C166 C168 1.382 . S
C166 C170 1.404 . S
H167 C165 0.951 . S
C168 C166 1.382 . S
C168 C169 1.390 . S
C168 H173 0.949 . S
C169 C168 1.390 . S
C169 C174 1.399 . S
C170 C166 1.404 . S
C170 H171 0.950 . S
C170 C172 1.375 . S
H171 C170 0.950 . S
C172 C170 1.375 . S
C172 C174 1.382 . S
C172 H176 0.950 . S
H173 C168 0.949 . S
C174 C169 1.399 . S
C174 C172 1.382 . S
C174 H175 0.952 . S
H175 C174 0.952 . S
H176 C172 0.950 . S
H177 C178 0.949 . S
C178 H177 0.949 . S
C178 C179 1.395 1_655 S
C178 C180 1.391 1_655 S
C179 C178 1.395 1_455 S
C179 C182 1.390 . S
C180 C178 1.391 1_455 S
C180 C184 1.387 . S
C180 C185 1.491 1_455 S
H181 C182 0.950 . S
C182 C179 1.390 . S
C182 H181 0.950 . S
C182 C183 1.378 . S
C183 C182 1.378 . S
C183 C184 1.409 . S
C184 C180 1.387 . S
C184 C183 1.409 . S
C184 H186 0.951 . S
C185 C180 1.491 1_655 S
C185 C187 1.382 . S
C185 C189 1.404 . S
H186 C184 0.951 . S
C187 C185 1.382 . S
C187 C188 1.390 . S
C187 H192 0.949 . S
C188 C187 1.390 . S
C188 C193 1.399 . S
C189 C185 1.404 . S
C189 H190 0.950 . S
C189 C191 1.375 . S
H190 C189 0.950 . S
C191 C189 1.375 . S
C191 C193 1.382 . S
C191 H195 0.950 . S
H192 C187 0.949 . S
C193 C188 1.399 . S
C193 C191 1.382 . S
C193 H194 0.952 . S
H194 C193 0.952 . S
H195 C191 0.950 . S
H196 C197 0.949 . S
C197 H196 0.949 . S
C197 C198 1.395 . S
C197 C199 1.391 . S
C198 C197 1.395 . S
C198 C201 1.390 . S
C199 C197 1.391 . S
C199 C203 1.387 . S
C199 C204 1.491 . S
H200 C201 0.950 . S
C201 C198 1.390 . S
C201 H200 0.950 . S
C201 C202 1.378 . S
C202 C201 1.378 . S
C202 C203 1.409 . S
C203 C199 1.387 . S
C203 C202 1.409 . S
C203 H205 0.951 . S
C204 C199 1.491 . S
C204 C206 1.382 1_545 S
C204 C208 1.404 1_545 S
H205 C203 0.951 . S
C206 C204 1.382 1_565 S
C206 C207 1.390 . S
C206 H211 0.949 . S
C207 C206 1.390 . S
C207 C212 1.399 . S
C208 C204 1.404 1_565 S
C208 H209 0.950 1_565 S
C208 C210 1.375 . S
H209 C208 0.950 1_545 S
C210 C208 1.375 . S
C210 C212 1.382 . S
C210 H214 0.950 . S
H211 C206 0.949 . S
C212 C207 1.399 . S
C212 C210 1.382 . S
C212 H213 0.952 . S
H213 C212 0.952 . S
H214 C210 0.950 . S
H215 C216 0.949 . S
C216 H215 0.949 . S
C216 C217 1.395 . S
C216 C218 1.391 . S
C217 C216 1.395 . S
C217 C220 1.390 . S
C218 C216 1.391 . S
C218 C222 1.387 . S
C218 C223 1.491 . S
H219 C220 0.950 . S
C220 C217 1.390 . S
C220 H219 0.950 . S
C220 C221 1.378 . S
C221 C220 1.378 . S
C221 C222 1.409 . S
C222 C218 1.387 . S
C222 C221 1.409 . S
C222 H224 0.951 . S
C223 C218 1.491 . S
C223 C225 1.382 . S
C223 C227 1.404 . S
H224 C222 0.951 . S
C225 C223 1.382 . S
C225 C226 1.390 . S
C225 H230 0.949 . S
C226 C225 1.390 . S
C226 C231 1.399 . S
C227 C223 1.404 . S
C227 H228 0.950 . S
C227 C229 1.375 . S
H228 C227 0.950 . S
C229 C227 1.375 . S
C229 C231 1.382 . S
C229 H233 0.950 . S
H230 C225 0.949 . S
C231 C226 1.399 . S
C231 C229 1.382 . S
C231 H232 0.952 . S
H232 C231 0.952 . S
H233 C229 0.950 . S
H234 C252 0.951 . S
H235 C254 0.951 . S
H236 C256 0.950 . S
H237 C257 0.950 . S
H238 C259 0.950 . S
H239 C262 0.950 . S
H240 C263 0.950 . S
H241 C265 0.950 . S
H242 C266 0.950 . S
H243 C267 0.951 . S
H244 C269 0.951 . S
H245 C271 0.950 . S
H246 C272 0.950 . S
H247 C274 0.950 . S
H248 C277 0.950 . S
H249 C278 0.950 . S
H250 C280 0.950 . S
H251 C281 0.950 . S
C252 H234 0.951 . S
C252 C253 1.366 . S
C252 C254 1.388 . S
C253 C252 1.366 . S
C253 C257 1.385 . S
C254 H235 0.951 . S
C254 C252 1.388 . S
C254 C255 1.366 . S
C255 C254 1.366 . S
C255 C256 1.414 . S
C255 C258 1.499 . S
C256 H236 0.950 . S
C256 C255 1.414 . S
C256 C257 1.374 . S
C257 H237 0.950 . S
C257 C253 1.385 . S
C257 C256 1.374 . S
C258 C255 1.499 . S
C258 C259 1.373 . S
C258 C260 1.389 . S
C259 H238 0.950 . S
C259 C258 1.373 . S
C259 C275 1.377 . S
C260 C258 1.389 . S
C260 C261 1.524 . S
C260 C274 1.377 . S
C261 C260 1.524 . S
C261 C262 1.397 . S
C261 C266 1.363 . S
C262 H239 0.950 . S
C262 C261 1.397 . S
C262 C263 1.334 . S
C263 H240 0.950 . S
C263 C262 1.334 . S
C263 C264 1.287 . S
C264 C263 1.287 . S
C264 C265 1.524 . S
C264 H283 0.913 . S
C265 H241 0.950 . S
C265 C264 1.524 . S
C265 C266 1.415 . S
C266 H242 0.950 . S
C266 C261 1.363 . S
C266 C265 1.415 . S
C267 H243 0.951 . S
C267 C268 1.366 . S
C267 C269 1.388 . S
C268 C267 1.366 . S
C268 C272 1.385 . S
C269 H244 0.951 . S
C269 C267 1.388 . S
C269 C270 1.366 . S
C270 C269 1.366 . S
C270 C271 1.414 . S
C270 C273 1.499 . S
C271 H245 0.950 . S
C271 C270 1.414 . S
C271 C272 1.374 . S
C272 H246 0.950 . S
C272 C268 1.385 . S
C272 C271 1.374 . S
C273 C270 1.499 . S
C273 C274 1.373 . S
C273 C275 1.389 . S
C274 H247 0.950 . S
C274 C260 1.377 . S
C274 C273 1.373 . S
C275 C259 1.377 . S
C275 C273 1.389 . S
C275 C276 1.524 . S
C276 C275 1.524 . S
C276 C277 1.397 . S
C276 C281 1.363 . S
C277 H248 0.950 . S
C277 C276 1.397 . S
C277 C278 1.334 . S
C278 H249 0.950 . S
C278 C277 1.334 . S
C278 C279 1.287 . S
C279 C278 1.287 . S
C279 C280 1.524 . S
C279 H282 0.999 . S
C280 H250 0.950 . S
C280 C279 1.524 . S
C280 C281 1.415 . S
C281 H251 0.950 . S
C281 C276 1.363 . S
C281 C280 1.415 . S
H282 C279 0.999 . S
H283 C264 0.913 . S
H284 C302 0.951 . S
H285 C304 0.951 . S
H286 C306 0.950 . S
H287 C307 0.950 . S
H288 C309 0.950 . S
H289 C312 0.950 . S
H290 C313 0.950 . S
H291 C315 0.950 . S
H292 C316 0.950 . S
H293 C317 0.951 . S
H294 C319 0.951 . S
H295 C321 0.950 . S
H296 C322 0.950 . S
H297 C324 0.950 . S
H298 C327 0.950 . S
H299 C328 0.950 . S
H300 C330 0.950 . S
H301 C331 0.950 . S
C302 H284 0.951 . S
C302 C303 1.366 . S
C302 C304 1.388 . S
C303 C302 1.366 . S
C303 C307 1.385 . S
C304 H285 0.951 . S
C304 C302 1.388 . S
C304 C305 1.366 . S
C305 C304 1.366 . S
C305 C306 1.414 . S
C305 C308 1.499 . S
C306 H286 0.950 . S
C306 C305 1.414 . S
C306 C307 1.374 . S
C307 H287 0.950 . S
C307 C303 1.385 . S
C307 C306 1.374 . S
C308 C305 1.499 . S
C308 C309 1.373 . S
C308 C310 1.389 . S
C309 H288 0.950 . S
C309 C308 1.373 . S
C309 C325 1.377 . S
C310 C308 1.389 . S
C310 C311 1.524 . S
C310 C324 1.377 . S
C311 C310 1.524 . S
C311 C312 1.397 . S
C311 C316 1.363 . S
C312 H289 0.950 . S
C312 C311 1.397 . S
C312 C313 1.334 . S
C313 H290 0.950 . S
C313 C312 1.334 . S
C313 C314 1.287 . S
C314 C313 1.287 . S
C314 C315 1.524 . S
C314 H333 0.913 . S
C315 H291 0.950 . S
C315 C314 1.524 . S
C315 C316 1.415 . S
C316 H292 0.950 . S
C316 C311 1.363 . S
C316 C315 1.415 . S
C317 H293 0.951 . S
C317 C318 1.366 . S
C317 C319 1.388 . S
C318 C317 1.366 . S
C318 C322 1.385 . S
C319 H294 0.951 . S
C319 C317 1.388 . S
C319 C320 1.366 . S
C320 C319 1.366 . S
C320 C321 1.414 . S
C320 C323 1.499 . S
C321 H295 0.950 . S
C321 C320 1.414 . S
C321 C322 1.374 . S
C322 H296 0.950 . S
C322 C318 1.385 . S
C322 C321 1.374 . S
C323 C320 1.499 . S
C323 C324 1.373 . S
C323 C325 1.389 . S
C324 H297 0.950 . S
C324 C310 1.377 . S
C324 C323 1.373 . S
C325 C309 1.377 . S
C325 C323 1.389 . S
C325 C326 1.524 . S
C326 C325 1.524 . S
C326 C327 1.397 . S
C326 C331 1.363 . S
C327 H298 0.950 . S
C327 C326 1.397 . S
C327 C328 1.334 . S
C328 H299 0.950 . S
C328 C327 1.334 . S
C328 C329 1.287 . S
C329 C328 1.287 . S
C329 C330 1.524 . S
C329 H332 0.999 . S
C330 H300 0.950 . S
C330 C329 1.524 . S
C330 C331 1.415 . S
C331 H301 0.950 . S
C331 C326 1.363 . S
C331 C330 1.415 . S
H332 C329 0.999 . S
H333 C314 0.913 . S
H334 C352 0.951 . S
H335 C354 0.951 . S
H336 C356 0.950 . S
H337 C357 0.950 . S
H338 C359 0.950 . S
H339 C362 0.950 . S
H340 C363 0.950 . S
H341 C365 0.950 . S
H342 C366 0.950 . S
H343 C367 0.951 . S
H344 C369 0.951 . S
H345 C371 0.950 . S
H346 C372 0.950 . S
H347 C374 0.950 . S
H348 C377 0.950 . S
H349 C378 0.950 . S
H350 C380 0.950 . S
H351 C381 0.950 . S
C352 H334 0.951 . S
C352 C353 1.366 . S
C352 C354 1.388 . S
C353 C352 1.366 . S
C353 C357 1.385 . S
C354 H335 0.951 . S
C354 C352 1.388 . S
C354 C355 1.366 . S
C355 C354 1.366 . S
C355 C356 1.414 . S
C355 C358 1.499 . S
C356 H336 0.950 . S
C356 C355 1.414 . S
C356 C357 1.374 . S
C357 H337 0.950 . S
C357 C353 1.385 . S
C357 C356 1.374 . S
C358 C355 1.499 . S
C358 C359 1.373 . S
C358 C360 1.389 . S
C359 H338 0.950 . S
C359 C358 1.373 . S
C359 C375 1.377 . S
C360 C358 1.389 . S
C360 C361 1.524 . S
C360 C374 1.377 . S
C361 C360 1.524 . S
C361 C362 1.397 . S
C361 C366 1.363 . S
C362 H339 0.950 . S
C362 C361 1.397 . S
C362 C363 1.334 . S
C363 H340 0.950 . S
C363 C362 1.334 . S
C363 C364 1.287 . S
C364 C363 1.287 . S
C364 C365 1.524 . S
C364 H383 0.913 . S
C365 H341 0.950 . S
C365 C364 1.524 . S
C365 C366 1.415 . S
C366 H342 0.950 . S
C366 C361 1.363 . S
C366 C365 1.415 . S
C367 H343 0.951 . S
C367 C368 1.366 . S
C367 C369 1.388 . S
C368 C367 1.366 . S
C368 C372 1.385 . S
C369 H344 0.951 . S
C369 C367 1.388 . S
C369 C370 1.366 . S
C370 C369 1.366 . S
C370 C371 1.414 . S
C370 C373 1.499 . S
C371 H345 0.950 . S
C371 C370 1.414 . S
C371 C372 1.374 . S
C372 H346 0.950 . S
C372 C368 1.385 . S
C372 C371 1.374 . S
C373 C370 1.499 . S
C373 C374 1.373 . S
C373 C375 1.389 . S
C374 H347 0.950 . S
C374 C360 1.377 . S
C374 C373 1.373 . S
C375 C359 1.377 . S
C375 C373 1.389 . S
C375 C376 1.524 . S
C376 C375 1.524 . S
C376 C377 1.397 . S
C376 C381 1.363 . S
C377 H348 0.950 . S
C377 C376 1.397 . S
C377 C378 1.334 . S
C378 H349 0.950 . S
C378 C377 1.334 . S
C378 C379 1.287 . S
C379 C378 1.287 . S
C379 C380 1.524 . S
C379 H382 0.999 . S
C380 H350 0.950 . S
C380 C379 1.524 . S
C380 C381 1.415 . S
C381 H351 0.950 . S
C381 C376 1.363 . S
C381 C380 1.415 . S
H382 C379 0.999 . S
H383 C364 0.913 . S
H384 C402 0.951 . S
H385 C404 0.951 . S
H386 C406 0.950 . S
H387 C407 0.950 . S
H388 C409 0.950 . S
H389 C412 0.950 . S
H390 C413 0.950 . S
H391 C415 0.950 . S
H392 C416 0.950 . S
H393 C417 0.951 . S
H394 C419 0.951 . S
H395 C421 0.950 . S
H396 C422 0.950 . S
H397 C424 0.950 . S
H398 C427 0.950 . S
H399 C428 0.950 . S
H400 C430 0.950 . S
H401 C431 0.950 . S
C402 H384 0.951 . S
C402 C403 1.366 . S
C402 C404 1.388 . S
C403 C402 1.366 . S
C403 C407 1.385 . S
C404 H385 0.951 . S
C404 C402 1.388 . S
C404 C405 1.366 . S
C405 C404 1.366 . S
C405 C406 1.414 . S
C405 C408 1.499 . S
C406 H386 0.950 . S
C406 C405 1.414 . S
C406 C407 1.374 . S
C407 H387 0.950 . S
C407 C403 1.385 . S
C407 C406 1.374 . S
C408 C405 1.499 . S
C408 C409 1.373 . S
C408 C410 1.389 . S
C409 H388 0.950 . S
C409 C408 1.373 . S
C409 C425 1.377 . S
C410 C408 1.389 . S
C410 C411 1.524 . S
C410 C424 1.377 . S
C411 C410 1.524 . S
C411 C412 1.397 . S
C411 C416 1.363 . S
C412 H389 0.950 . S
C412 C411 1.397 . S
C412 C413 1.334 . S
C413 H390 0.950 . S
C413 C412 1.334 . S
C413 C414 1.287 . S
C414 C413 1.287 . S
C414 C415 1.524 . S
C414 H433 0.913 . S
C415 H391 0.950 . S
C415 C414 1.524 . S
C415 C416 1.415 . S
C416 H392 0.950 . S
C416 C411 1.363 . S
C416 C415 1.415 . S
C417 H393 0.951 . S
C417 C418 1.366 . S
C417 C419 1.388 . S
C418 C417 1.366 . S
C418 C422 1.385 . S
C419 H394 0.951 . S
C419 C417 1.388 . S
C419 C420 1.366 . S
C420 C419 1.366 . S
C420 C421 1.414 . S
C420 C423 1.499 . S
C421 H395 0.950 . S
C421 C420 1.414 . S
C421 C422 1.374 . S
C422 H396 0.950 . S
C422 C418 1.385 . S
C422 C421 1.374 . S
C423 C420 1.499 . S
C423 C424 1.373 . S
C423 C425 1.389 . S
C424 H397 0.950 . S
C424 C410 1.377 . S
C424 C423 1.373 . S
C425 C409 1.377 . S
C425 C423 1.389 . S
C425 C426 1.524 . S
C426 C425 1.524 . S
C426 C427 1.397 . S
C426 C431 1.363 . S
C427 H398 0.950 . S
C427 C426 1.397 . S
C427 C428 1.334 . S
C428 H399 0.950 . S
C428 C427 1.334 . S
C428 C429 1.287 . S
C429 C428 1.287 . S
C429 C430 1.524 . S
C429 H432 0.999 . S
C430 H400 0.950 . S
C430 C429 1.524 . S
C430 C431 1.415 . S
C431 H401 0.950 . S
C431 C426 1.363 . S
C431 C430 1.415 . S
H432 C429 0.999 . S
H433 C414 0.913 . S
H434 C452 0.951 . S
H435 C454 0.951 . S
H436 C456 0.950 . S
H437 C457 0.950 . S
H438 C459 0.950 . S
H439 C462 0.950 . S
H440 C463 0.950 . S
H441 C465 0.950 . S
H442 C466 0.950 . S
H443 C467 0.951 . S
H444 C469 0.951 . S
H445 C471 0.950 . S
H446 C472 0.950 . S
H447 C474 0.950 . S
H448 C477 0.950 . S
H449 C478 0.950 . S
H450 C480 0.950 . S
H451 C481 0.950 . S
C452 H434 0.951 . S
C452 C453 1.366 . S
C452 C454 1.388 . S
C453 C452 1.366 . S
C453 C457 1.385 . S
C454 H435 0.951 . S
C454 C452 1.388 . S
C454 C455 1.366 . S
C455 C454 1.366 . S
C455 C456 1.414 . S
C455 C458 1.499 . S
C456 H436 0.950 . S
C456 C455 1.414 . S
C456 C457 1.374 . S
C457 H437 0.950 . S
C457 C453 1.385 . S
C457 C456 1.374 . S
C458 C455 1.499 . S
C458 C459 1.373 . S
C458 C460 1.389 . S
C459 H438 0.950 . S
C459 C458 1.373 . S
C459 C475 1.377 . S
C460 C458 1.389 . S
C460 C461 1.524 . S
C460 C474 1.377 . S
C461 C460 1.524 . S
C461 C462 1.397 . S
C461 C466 1.363 . S
C462 H439 0.950 . S
C462 C461 1.397 . S
C462 C463 1.334 . S
C463 H440 0.950 . S
C463 C462 1.334 . S
C463 C464 1.287 . S
C464 C463 1.287 . S
C464 C465 1.524 . S
C464 H483 0.913 . S
C465 H441 0.950 . S
C465 C464 1.524 . S
C465 C466 1.415 . S
C466 H442 0.950 . S
C466 C461 1.363 . S
C466 C465 1.415 . S
C467 H443 0.951 . S
C467 C468 1.366 . S
C467 C469 1.388 . S
C468 C467 1.366 . S
C468 C472 1.385 . S
C469 H444 0.951 . S
C469 C467 1.388 . S
C469 C470 1.366 . S
C470 C469 1.366 . S
C470 C471 1.414 . S
C470 C473 1.499 . S
C471 H445 0.950 . S
C471 C470 1.414 . S
C471 C472 1.374 . S
C472 H446 0.950 . S
C472 C468 1.385 . S
C472 C471 1.374 . S
C473 C470 1.499 . S
C473 C474 1.373 . S
C473 C475 1.389 . S
C474 H447 0.950 . S
C474 C460 1.377 . S
C474 C473 1.373 . S
C475 C459 1.377 . S
C475 C473 1.389 . S
C475 C476 1.524 . S
C476 C475 1.524 . S
C476 C477 1.397 . S
C476 C481 1.363 . S
C477 H448 0.950 . S
C477 C476 1.397 . S
C477 C478 1.334 . S
C478 H449 0.950 . S
C478 C477 1.334 . S
C478 C479 1.287 . S
C479 C478 1.287 . S
C479 C480 1.524 . S
C479 H482 0.999 . S
C480 H450 0.950 . S
C480 C479 1.524 . S
C480 C481 1.415 . S
C481 H451 0.950 . S
C481 C476 1.363 . S
C481 C480 1.415 . S
H482 C479 0.999 . S
H483 C464 0.913 . S
H484 C502 0.951 . S
H485 C504 0.951 . S
H486 C506 0.950 . S
H487 C507 0.950 . S
H488 C509 0.950 . S
H489 C512 0.950 . S
H490 C513 0.950 . S
H491 C515 0.950 . S
H492 C516 0.950 . S
H493 C517 0.951 . S
H494 C519 0.951 . S
H495 C521 0.950 . S
H496 C522 0.950 . S
H497 C524 0.950 . S
H498 C527 0.950 . S
H499 C528 0.950 . S
H500 C530 0.950 . S
H501 C531 0.950 . S
C502 H484 0.951 . S
C502 C503 1.366 . S
C502 C504 1.388 . S
C503 C502 1.366 . S
C503 C507 1.385 . S
C504 H485 0.951 . S
C504 C502 1.388 . S
C504 C505 1.366 . S
C505 C504 1.366 . S
C505 C506 1.414 . S
C505 C508 1.499 . S
C506 H486 0.950 . S
C506 C505 1.414 . S
C506 C507 1.374 . S
C507 H487 0.950 . S
C507 C503 1.385 . S
C507 C506 1.374 . S
C508 C505 1.499 . S
C508 C509 1.373 . S
C508 C510 1.389 . S
C509 H488 0.950 . S
C509 C508 1.373 . S
C509 C525 1.377 . S
C510 C508 1.389 . S
C510 C511 1.524 . S
C510 C524 1.377 . S
C511 C510 1.524 . S
C511 C512 1.397 . S
C511 C516 1.363 . S
C512 H489 0.950 . S
C512 C511 1.397 . S
C512 C513 1.334 . S
C513 H490 0.950 . S
C513 C512 1.334 . S
C513 C514 1.287 . S
C514 C513 1.287 . S
C514 C515 1.524 . S
C514 H533 0.913 . S
C515 H491 0.950 . S
C515 C514 1.524 . S
C515 C516 1.415 . S
C516 H492 0.950 . S
C516 C511 1.363 . S
C516 C515 1.415 . S
C517 H493 0.951 . S
C517 C518 1.366 . S
C517 C519 1.388 . S
C518 C517 1.366 . S
C518 C522 1.385 . S
C519 H494 0.951 . S
C519 C517 1.388 . S
C519 C520 1.366 . S
C520 C519 1.366 . S
C520 C521 1.414 . S
C520 C523 1.499 . S
C521 H495 0.950 . S
C521 C520 1.414 . S
C521 C522 1.374 . S
C522 H496 0.950 . S
C522 C518 1.385 . S
C522 C521 1.374 . S
C523 C520 1.499 . S
C523 C524 1.373 . S
C523 C525 1.389 . S
C524 H497 0.950 . S
C524 C510 1.377 . S
C524 C523 1.373 . S
C525 C509 1.377 . S
C525 C523 1.389 . S
C525 C526 1.524 . S
C526 C525 1.524 . S
C526 C527 1.397 . S
C526 C531 1.363 . S
C527 H498 0.950 . S
C527 C526 1.397 . S
C527 C528 1.334 . S
C528 H499 0.950 . S
C528 C527 1.334 . S
C528 C529 1.287 . S
C529 C528 1.287 . S
C529 C530 1.524 . S
C529 H532 0.999 . S
C530 H500 0.950 . S
C530 C529 1.524 . S
C530 C531 1.415 . S
C531 H501 0.950 . S
C531 C526 1.363 . S
C531 C530 1.415 . S
H532 C529 0.999 . S
H533 C514 0.913 . S
H534 C552 0.951 . S
H535 C554 0.951 . S
H536 C556 0.950 . S
H537 C557 0.950 . S
H538 C559 0.950 . S
H539 C562 0.950 . S
H540 C563 0.950 . S
H541 C565 0.950 . S
H542 C566 0.950 . S
H543 C567 0.951 . S
H544 C569 0.951 . S
H545 C571 0.950 . S
H546 C572 0.950 . S
H547 C574 0.950 . S
H548 C577 0.950 . S
H549 C578 0.950 . S
H550 C580 0.950 . S
H551 C581 0.950 . S
C552 H534 0.951 . S
C552 C553 1.366 . S
C552 C554 1.388 . S
C553 C552 1.366 . S
C553 C557 1.385 . S
C554 H535 0.951 . S
C554 C552 1.388 . S
C554 C555 1.366 . S
C555 C554 1.366 . S
C555 C556 1.414 . S
C555 C558 1.499 . S
C556 H536 0.950 . S
C556 C555 1.414 . S
C556 C557 1.374 . S
C557 H537 0.950 . S
C557 C553 1.385 . S
C557 C556 1.374 . S
C558 C555 1.499 . S
C558 C559 1.373 . S
C558 C560 1.389 . S
C559 H538 0.950 . S
C559 C558 1.373 . S
C559 C575 1.377 . S
C560 C558 1.389 . S
C560 C561 1.524 . S
C560 C574 1.377 . S
C561 C560 1.524 . S
C561 C562 1.397 . S
C561 C566 1.363 . S
C562 H539 0.950 . S
C562 C561 1.397 . S
C562 C563 1.334 . S
C563 H540 0.950 . S
C563 C562 1.334 . S
C563 C564 1.287 . S
C564 C563 1.287 . S
C564 C565 1.524 . S
C564 H583 0.913 . S
C565 H541 0.950 . S
C565 C564 1.524 . S
C565 C566 1.415 . S
C566 H542 0.950 . S
C566 C561 1.363 . S
C566 C565 1.415 . S
C567 H543 0.951 . S
C567 C568 1.366 . S
C567 C569 1.388 . S
C568 C567 1.366 . S
C568 C572 1.385 . S
C569 H544 0.951 . S
C569 C567 1.388 . S
C569 C570 1.366 . S
C570 C569 1.366 . S
C570 C571 1.414 . S
C570 C573 1.499 . S
C571 H545 0.950 . S
C571 C570 1.414 . S
C571 C572 1.374 . S
C572 H546 0.950 . S
C572 C568 1.385 . S
C572 C571 1.374 . S
C573 C570 1.499 . S
C573 C574 1.373 . S
C573 C575 1.389 . S
C574 H547 0.950 . S
C574 C560 1.377 . S
C574 C573 1.373 . S
C575 C559 1.377 . S
C575 C573 1.389 . S
C575 C576 1.524 . S
C576 C575 1.524 . S
C576 C577 1.397 . S
C576 C581 1.363 . S
C577 H548 0.950 . S
C577 C576 1.397 . S
C577 C578 1.334 . S
C578 H549 0.950 . S
C578 C577 1.334 . S
C578 C579 1.287 . S
C579 C578 1.287 . S
C579 C580 1.524 . S
C579 H582 0.999 . S
C580 H550 0.950 . S
C580 C579 1.524 . S
C580 C581 1.415 . S
C581 H551 0.950 . S
C581 C576 1.363 . S
C581 C580 1.415 . S
H582 C579 0.999 . S
H583 C564 0.913 . S
H584 C602 0.951 . S
H585 C604 0.951 . S
H586 C606 0.950 . S
H587 C607 0.950 . S
H588 C609 0.950 . S
H589 C612 0.950 . S
H590 C613 0.950 . S
H591 C615 0.950 . S
H592 C616 0.950 . S
H593 C617 0.951 . S
H594 C619 0.951 . S
H595 C621 0.950 . S
H596 C622 0.950 . S
H597 C624 0.950 . S
H598 C627 0.950 . S
H599 C628 0.950 . S
H600 C630 0.950 . S
H601 C631 0.950 . S
C602 H584 0.951 . S
C602 C603 1.366 . S
C602 C604 1.388 . S
C603 C602 1.366 . S
C603 C607 1.385 . S
C604 H585 0.951 . S
C604 C602 1.388 . S
C604 C605 1.366 . S
C605 C604 1.366 . S
C605 C606 1.414 . S
C605 C608 1.499 . S
C606 H586 0.950 . S
C606 C605 1.414 . S
C606 C607 1.374 . S
C607 H587 0.950 . S
C607 C603 1.385 . S
C607 C606 1.374 . S
C608 C605 1.499 . S
C608 C609 1.373 . S
C608 C610 1.389 . S
C609 H588 0.950 . S
C609 C608 1.373 . S
C609 C625 1.377 . S
C610 C608 1.389 . S
C610 C611 1.524 . S
C610 C624 1.377 . S
C611 C610 1.524 . S
C611 C612 1.397 . S
C611 C616 1.363 . S
C612 H589 0.950 . S
C612 C611 1.397 . S
C612 C613 1.334 . S
C613 H590 0.950 . S
C613 C612 1.334 . S
C613 C614 1.287 . S
C614 C613 1.287 . S
C614 C615 1.524 . S
C614 H633 0.913 . S
C615 H591 0.950 . S
C615 C614 1.524 . S
C615 C616 1.415 . S
C616 H592 0.950 . S
C616 C611 1.363 . S
C616 C615 1.415 . S
C617 H593 0.951 . S
C617 C618 1.366 . S
C617 C619 1.388 . S
C618 C617 1.366 . S
C618 C622 1.385 . S
C619 H594 0.951 . S
C619 C617 1.388 . S
C619 C620 1.366 . S
C620 C619 1.366 . S
C620 C621 1.414 . S
C620 C623 1.499 . S
C621 H595 0.950 . S
C621 C620 1.414 . S
C621 C622 1.374 . S
C622 H596 0.950 . S
C622 C618 1.385 . S
C622 C621 1.374 . S
C623 C620 1.499 . S
C623 C624 1.373 . S
C623 C625 1.389 . S
C624 H597 0.950 . S
C624 C610 1.377 . S
C624 C623 1.373 . S
C625 C609 1.377 . S
C625 C623 1.389 . S
C625 C626 1.524 . S
C626 C625 1.524 . S
C626 C627 1.397 . S
C626 C631 1.363 . S
C627 H598 0.950 . S
C627 C626 1.397 . S
C627 C628 1.334 . S
C628 H599 0.950 . S
C628 C627 1.334 . S
C628 C629 1.287 . S
C629 C628 1.287 . S
C629 C630 1.524 . S
C629 H632 0.999 . S
C630 H600 0.950 . S
C630 C629 1.524 . S
C630 C631 1.415 . S
C631 H601 0.950 . S
C631 C626 1.363 . S
C631 C630 1.415 . S
H632 C629 0.999 . S
H633 C614 0.913 . S
H634 C652 0.951 . S
H635 C654 0.951 . S
H636 C656 0.950 . S
H637 C657 0.950 . S
H638 C659 0.950 . S
H639 C662 0.950 . S
H640 C663 0.950 . S
H641 C665 0.950 . S
H642 C666 0.950 . S
H643 C667 0.951 . S
H644 C669 0.951 . S
H645 C671 0.950 . S
H646 C672 0.950 . S
H647 C674 0.950 . S
H648 C677 0.950 . S
H649 C678 0.950 . S
H650 C680 0.950 . S
H651 C681 0.950 . S
C652 H634 0.951 . S
C652 C653 1.366 . S
C652 C654 1.388 . S
C653 C652 1.366 . S
C653 C657 1.385 . S
C654 H635 0.951 . S
C654 C652 1.388 . S
C654 C655 1.366 . S
C655 C654 1.366 . S
C655 C656 1.414 . S
C655 C658 1.499 . S
C656 H636 0.950 . S
C656 C655 1.414 . S
C656 C657 1.374 . S
C657 H637 0.950 . S
C657 C653 1.385 . S
C657 C656 1.374 . S
C658 C655 1.499 . S
C658 C659 1.373 . S
C658 C660 1.389 . S
C659 H638 0.950 . S
C659 C658 1.373 . S
C659 C675 1.377 . S
C660 C658 1.389 . S
C660 C661 1.524 . S
C660 C674 1.377 . S
C661 C660 1.524 . S
C661 C662 1.397 . S
C661 C666 1.363 . S
C662 H639 0.950 . S
C662 C661 1.397 . S
C662 C663 1.334 . S
C663 H640 0.950 . S
C663 C662 1.334 . S
C663 C664 1.287 . S
C664 C663 1.287 . S
C664 C665 1.524 . S
C664 H683 0.913 . S
C665 H641 0.950 . S
C665 C664 1.524 . S
C665 C666 1.415 . S
C666 H642 0.950 . S
C666 C661 1.363 . S
C666 C665 1.415 . S
C667 H643 0.951 . S
C667 C668 1.366 . S
C667 C669 1.388 . S
C668 C667 1.366 . S
C668 C672 1.385 . S
C669 H644 0.951 . S
C669 C667 1.388 . S
C669 C670 1.366 . S
C670 C669 1.366 . S
C670 C671 1.414 . S
C670 C673 1.499 . S
C671 H645 0.950 . S
C671 C670 1.414 . S
C671 C672 1.374 . S
C672 H646 0.950 . S
C672 C668 1.385 . S
C672 C671 1.374 . S
C673 C670 1.499 . S
C673 C674 1.373 . S
C673 C675 1.389 . S
C674 H647 0.950 . S
C674 C660 1.377 . S
C674 C673 1.373 . S
C675 C659 1.377 . S
C675 C673 1.389 . S
C675 C676 1.524 . S
C676 C675 1.524 . S
C676 C677 1.397 . S
C676 C681 1.363 . S
C677 H648 0.950 . S
C677 C676 1.397 . S
C677 C678 1.334 . S
C678 H649 0.950 . S
C678 C677 1.334 . S
C678 C679 1.287 . S
C679 C678 1.287 . S
C679 C680 1.524 . S
C679 H682 0.999 . S
C680 H650 0.950 . S
C680 C679 1.524 . S
C680 C681 1.415 . S
C681 H651 0.950 . S
C681 C676 1.363 . S
C681 C680 1.415 . S
H682 C679 0.999 . S
H683 C664 0.913 . S
H684 C702 0.951 . S
H685 C704 0.951 . S
H686 C706 0.950 . S
H687 C707 0.950 . S
H688 C709 0.950 . S
H689 C712 0.950 . S
H690 C713 0.950 . S
H691 C715 0.950 . S
H692 C716 0.950 . S
H693 C717 0.951 . S
H694 C719 0.951 . S
H695 C721 0.950 . S
H696 C722 0.950 . S
H697 C724 0.950 . S
H698 C727 0.950 . S
H699 C728 0.950 . S
H700 C730 0.950 . S
H701 C731 0.950 . S
C702 H684 0.951 . S
C702 C703 1.366 . S
C702 C704 1.388 . S
C703 C702 1.366 . S
C703 C707 1.385 . S
C704 H685 0.951 . S
C704 C702 1.388 . S
C704 C705 1.366 . S
C705 C704 1.366 . S
C705 C706 1.414 . S
C705 C708 1.499 . S
C706 H686 0.950 . S
C706 C705 1.414 . S
C706 C707 1.374 . S
C707 H687 0.950 . S
C707 C703 1.385 . S
C707 C706 1.374 . S
C708 C705 1.499 . S
C708 C709 1.373 . S
C708 C710 1.389 . S
C709 H688 0.950 . S
C709 C708 1.373 . S
C709 C725 1.377 . S
C710 C708 1.389 . S
C710 C711 1.524 . S
C710 C724 1.377 . S
C711 C710 1.524 . S
C711 C712 1.397 . S
C711 C716 1.363 . S
C712 H689 0.950 . S
C712 C711 1.397 . S
C712 C713 1.334 . S
C713 H690 0.950 . S
C713 C712 1.334 . S
C713 C714 1.287 . S
C714 C713 1.287 . S
C714 C715 1.524 . S
C714 H733 0.913 . S
C715 H691 0.950 . S
C715 C714 1.524 . S
C715 C716 1.415 . S
C716 H692 0.950 . S
C716 C711 1.363 . S
C716 C715 1.415 . S
C717 H693 0.951 . S
C717 C718 1.366 . S
C717 C719 1.388 . S
C718 C717 1.366 . S
C718 C722 1.385 . S
C719 H694 0.951 . S
C719 C717 1.388 . S
C719 C720 1.366 . S
C720 C719 1.366 . S
C720 C721 1.414 . S
C720 C723 1.499 . S
C721 H695 0.950 . S
C721 C720 1.414 . S
C721 C722 1.374 . S
C722 H696 0.950 . S
C722 C718 1.385 . S
C722 C721 1.374 . S
C723 C720 1.499 . S
C723 C724 1.373 . S
C723 C725 1.389 . S
C724 H697 0.950 . S
C724 C710 1.377 . S
C724 C723 1.373 . S
C725 C709 1.377 . S
C725 C723 1.389 . S
C725 C726 1.524 . S
C726 C725 1.524 . S
C726 C727 1.397 . S
C726 C731 1.363 . S
C727 H698 0.950 . S
C727 C726 1.397 . S
C727 C728 1.334 . S
C728 H699 0.950 . S
C728 C727 1.334 . S
C728 C729 1.287 . S
C729 C728 1.287 . S
C729 C730 1.524 . S
C729 H732 0.999 . S
C730 H700 0.950 . S
C730 C729 1.524 . S
C730 C731 1.415 . S
C731 H701 0.950 . S
C731 C726 1.363 . S
C731 C730 1.415 . S
H732 C729 0.999 . S
H733 C714 0.913 . S
H734 C752 0.951 . S
H735 C754 0.951 . S
H736 C756 0.950 . S
H737 C757 0.950 . S
H738 C759 0.950 . S
H739 C762 0.950 . S
H740 C763 0.950 . S
H741 C765 0.950 . S
H742 C766 0.950 . S
H743 C767 0.951 . S
H744 C769 0.951 . S
H745 C771 0.950 . S
H746 C772 0.950 . S
H747 C774 0.950 . S
H748 C777 0.950 . S
H749 C778 0.950 . S
H750 C780 0.950 . S
H751 C781 0.950 . S
C752 H734 0.951 . S
C752 C753 1.366 . S
C752 C754 1.388 . S
C753 C752 1.366 . S
C753 C757 1.385 . S
C754 H735 0.951 . S
C754 C752 1.388 . S
C754 C755 1.366 . S
C755 C754 1.366 . S
C755 C756 1.414 . S
C755 C758 1.499 . S
C756 H736 0.950 . S
C756 C755 1.414 . S
C756 C757 1.374 . S
C757 H737 0.950 . S
C757 C753 1.385 . S
C757 C756 1.374 . S
C758 C755 1.499 . S
C758 C759 1.373 . S
C758 C760 1.389 . S
C759 H738 0.950 . S
C759 C758 1.373 . S
C759 C775 1.377 . S
C760 C758 1.389 . S
C760 C761 1.524 . S
C760 C774 1.377 . S
C761 C760 1.524 . S
C761 C762 1.397 . S
C761 C766 1.363 . S
C762 H739 0.950 . S
C762 C761 1.397 . S
C762 C763 1.334 . S
C763 H740 0.950 . S
C763 C762 1.334 . S
C763 C764 1.287 . S
C764 C763 1.287 . S
C764 C765 1.524 . S
C764 H783 0.913 . S
C765 H741 0.950 . S
C765 C764 1.524 . S
C765 C766 1.415 . S
C766 H742 0.950 . S
C766 C761 1.363 . S
C766 C765 1.415 . S
C767 H743 0.951 . S
C767 C768 1.366 . S
C767 C769 1.388 . S
C768 C767 1.366 . S
C768 C772 1.385 . S
C769 H744 0.951 . S
C769 C767 1.388 . S
C769 C770 1.366 . S
C770 C769 1.366 . S
C770 C771 1.414 . S
C770 C773 1.499 . S
C771 H745 0.950 . S
C771 C770 1.414 . S
C771 C772 1.374 . S
C772 H746 0.950 . S
C772 C768 1.385 . S
C772 C771 1.374 . S
C773 C770 1.499 . S
C773 C774 1.373 . S
C773 C775 1.389 . S
C774 H747 0.950 . S
C774 C760 1.377 . S
C774 C773 1.373 . S
C775 C759 1.377 . S
C775 C773 1.389 . S
C775 C776 1.524 . S
C776 C775 1.524 . S
C776 C777 1.397 . S
C776 C781 1.363 . S
C777 H748 0.950 . S
C777 C776 1.397 . S
C777 C778 1.334 . S
C778 H749 0.950 . S
C778 C777 1.334 . S
C778 C779 1.287 . S
C779 C778 1.287 . S
C779 C780 1.524 . S
C779 H782 0.999 . S
C780 H750 0.950 . S
C780 C779 1.524 . S
C780 C781 1.415 . S
C781 H751 0.950 . S
C781 C776 1.363 . S
C781 C780 1.415 . S
H782 C779 0.999 . S
H783 C764 0.913 . S
H784 C802 0.951 . S
H785 C804 0.951 . S
H786 C806 0.950 . S
H787 C807 0.950 . S
H788 C809 0.950 . S
H789 C812 0.950 . S
H790 C813 0.950 . S
H791 C815 0.950 . S
H792 C816 0.950 . S
H793 C817 0.951 . S
H794 C819 0.951 . S
H795 C821 0.950 . S
H796 C822 0.950 . S
H797 C824 0.950 . S
H798 C827 0.950 . S
H799 C828 0.950 . S
H800 C830 0.950 . S
H801 C831 0.950 . S
C802 H784 0.951 . S
C802 C803 1.366 . S
C802 C804 1.388 . S
C803 C802 1.366 . S
C803 C807 1.385 . S
C804 H785 0.951 . S
C804 C802 1.388 . S
C804 C805 1.366 . S
C805 C804 1.366 . S
C805 C806 1.414 . S
C805 C808 1.499 . S
C806 H786 0.950 . S
C806 C805 1.414 . S
C806 C807 1.374 . S
C807 H787 0.950 . S
C807 C803 1.385 . S
C807 C806 1.374 . S
C808 C805 1.499 . S
C808 C809 1.373 . S
C808 C810 1.389 . S
C809 H788 0.950 . S
C809 C808 1.373 . S
C809 C825 1.377 . S
C810 C808 1.389 . S
C810 C811 1.524 . S
C810 C824 1.377 . S
C811 C810 1.524 . S
C811 C812 1.397 . S
C811 C816 1.363 . S
C812 H789 0.950 . S
C812 C811 1.397 . S
C812 C813 1.334 . S
C813 H790 0.950 . S
C813 C812 1.334 . S
C813 C814 1.287 . S
C814 C813 1.287 . S
C814 C815 1.524 . S
C814 H833 0.913 . S
C815 H791 0.950 . S
C815 C814 1.524 . S
C815 C816 1.415 . S
C816 H792 0.950 . S
C816 C811 1.363 . S
C816 C815 1.415 . S
C817 H793 0.951 . S
C817 C818 1.366 . S
C817 C819 1.388 . S
C818 C817 1.366 . S
C818 C822 1.385 . S
C819 H794 0.951 . S
C819 C817 1.388 . S
C819 C820 1.366 . S
C820 C819 1.366 . S
C820 C821 1.414 . S
C820 C823 1.499 . S
C821 H795 0.950 . S
C821 C820 1.414 . S
C821 C822 1.374 . S
C822 H796 0.950 . S
C822 C818 1.385 . S
C822 C821 1.374 . S
C823 C820 1.499 . S
C823 C824 1.373 . S
C823 C825 1.389 . S
C824 H797 0.950 . S
C824 C810 1.377 . S
C824 C823 1.373 . S
C825 C809 1.377 . S
C825 C823 1.389 . S
C825 C826 1.524 . S
C826 C825 1.524 . S
C826 C827 1.397 . S
C826 C831 1.363 . S
C827 H798 0.950 . S
C827 C826 1.397 . S
C827 C828 1.334 . S
C828 H799 0.950 . S
C828 C827 1.334 . S
C828 C829 1.287 . S
C829 C828 1.287 . S
C829 C830 1.524 . S
C829 H832 0.999 . S
C830 H800 0.950 . S
C830 C829 1.524 . S
C830 C831 1.415 . S
C831 H801 0.950 . S
C831 C826 1.363 . S
C831 C830 1.415 . S
H832 C829 0.999 . S
H833 C814 0.913 . S
H834 C852 0.951 . S
H835 C854 0.951 . S
H836 C856 0.950 1_655 S
H837 C857 0.950 1_655 S
H838 C859 0.950 . S
H839 C862 0.950 . S
H840 C863 0.943 1_655 S
H841 C865 0.950 . S
H842 C866 0.950 . S
H843 C867 0.951 . S
H844 C869 0.951 . S
H845 C871 0.950 . S
H846 C872 0.950 . S
H847 C874 0.950 1_556 S
H848 C877 0.950 . S
H849 C878 0.950 . S
H850 C880 0.950 1_655 S
H851 C881 0.950 1_654 S
C852 H834 0.951 . S
C852 C853 1.366 . S
C852 C854 1.388 . S
C853 C852 1.366 . S
C853 C857 1.385 . S
C854 H835 0.951 . S
C854 C852 1.388 . S
C854 C855 1.366 . S
C855 C854 1.366 . S
C855 C856 1.414 . S
C855 C858 1.499 . S
C856 H836 0.950 1_455 S
C856 C855 1.414 . S
C856 C857 1.374 . S
C857 H837 0.950 1_455 S
C857 C853 1.385 . S
C857 C856 1.374 . S
C858 C855 1.499 . S
C858 C859 1.373 . S
C858 C860 1.389 . S
C859 H838 0.950 . S
C859 C858 1.373 . S
C859 C875 1.377 . S
C860 C858 1.389 . S
C860 C861 1.524 . S
C860 C874 1.377 . S
C861 C860 1.524 . S
C861 C862 1.397 . S
C861 C866 1.363 . S
C862 H839 0.950 . S
C862 C861 1.397 . S
C862 C863 1.334 . S
C863 H840 0.943 1_455 S
C863 C862 1.334 . S
C863 C864 1.287 . S
C864 C863 1.287 . S
C864 C865 1.524 . S
C864 H883 0.913 . S
C865 H841 0.950 . S
C865 C864 1.524 . S
C865 C866 1.415 . S
C866 H842 0.950 . S
C866 C861 1.363 . S
C866 C865 1.415 . S
C867 H843 0.951 . S
C867 C868 1.366 . S
C867 C869 1.388 . S
C868 C867 1.366 . S
C868 C872 1.385 . S
C869 H844 0.951 . S
C869 C867 1.388 . S
C869 C870 1.366 . S
C870 C869 1.366 . S
C870 C871 1.414 . S
C870 C873 1.499 . S
C871 H845 0.950 . S
C871 C870 1.414 . S
C871 C872 1.374 . S
C872 H846 0.950 . S
C872 C868 1.385 . S
C872 C871 1.374 . S
C873 C870 1.499 . S
C873 C874 1.373 1_556 S
C873 C875 1.389 1_556 S
C874 H847 0.950 1_554 S
C874 C860 1.377 . S
C874 C873 1.373 1_554 S
C875 C859 1.377 . S
C875 C873 1.389 1_554 S
C875 C876 1.524 1_554 S
C876 C875 1.524 1_556 S
C876 C877 1.397 . S
C876 C881 1.363 . S
C877 H848 0.950 . S
C877 C876 1.397 . S
C877 C878 1.334 . S
C878 H849 0.950 . S
C878 C877 1.334 . S
C878 C879 1.287 . S
C879 C878 1.287 . S
C879 C880 1.524 . S
C879 H882 0.999 . S
C880 H850 0.950 1_455 S
C880 C879 1.524 . S
C880 C881 1.415 . S
C881 H851 0.950 1_456 S
C881 C876 1.363 . S
C881 C880 1.415 . S
H882 C879 0.999 . S
H883 C864 0.913 . S
H884 C902 0.951 1_565 S
H885 C904 0.951 1_565 S
H886 C906 0.950 . S
H887 C907 0.950 . S
H888 C909 0.950 . S
H889 C912 0.950 . S
H890 C913 0.950 . S
H891 C915 0.950 . S
H892 C916 0.950 . S
H893 C917 0.951 . S
H894 C919 0.951 . S
H895 C921 0.950 1_565 S
H896 C922 0.950 . S
H897 C924 0.950 . S
H898 C927 0.950 . S
H899 C928 0.950 . S
H900 C930 0.950 . S
H901 C931 0.950 . S
C902 H884 0.951 1_545 S
C902 C903 1.366 . S
C902 C904 1.388 . S
C903 C902 1.366 . S
C903 C907 1.385 . S
C904 H885 0.951 1_545 S
C904 C902 1.388 . S
C904 C905 1.366 . S
C905 C904 1.366 . S
C905 C906 1.414 . S
C905 C908 1.499 . S
C906 H886 0.950 . S
C906 C905 1.414 . S
C906 C907 1.374 . S
C907 H887 0.950 . S
C907 C903 1.385 . S
C907 C906 1.374 . S
C908 C905 1.499 . S
C908 C909 1.373 . S
C908 C910 1.389 . S
C909 H888 0.950 . S
C909 C908 1.373 . S
C909 C925 1.377 . S
C910 C908 1.389 . S
C910 C911 1.524 . S
C910 C924 1.377 . S
C911 C910 1.524 . S
C911 C912 1.397 . S
C911 C916 1.363 1_545 S
C912 H889 0.950 . S
C912 C911 1.397 . S
C912 C913 1.334 . S
C913 H890 0.950 . S
C913 C912 1.334 . S
C913 C914 1.287 1_545 S
C914 C913 1.287 1_565 S
C914 C915 1.524 . S
C914 H933 0.913 . S
C915 H891 0.950 . S
C915 C914 1.524 . S
C915 C916 1.415 . S
C916 H892 0.950 . S
C916 C911 1.363 1_565 S
C916 C915 1.415 . S
C917 H893 0.951 . S
C917 C918 1.366 . S
C917 C919 1.388 . S
C918 C917 1.366 . S
C918 C922 1.385 . S
C919 H894 0.951 . S
C919 C917 1.388 . S
C919 C920 1.366 . S
C920 C919 1.366 . S
C920 C921 1.414 . S
C920 C923 1.499 . S
C921 H895 0.950 1_545 S
C921 C920 1.414 . S
C921 C922 1.374 . S
C922 H896 0.950 . S
C922 C918 1.385 . S
C922 C921 1.374 . S
C923 C920 1.499 . S
C923 C924 1.373 . S
C923 C925 1.389 . S
C924 H897 0.950 . S
C924 C910 1.377 . S
C924 C923 1.373 . S
C925 C909 1.377 . S
C925 C923 1.389 . S
C925 C926 1.524 . S
C926 C925 1.524 . S
C926 C927 1.397 . S
C926 C931 1.363 . S
C927 H898 0.950 . S
C927 C926 1.397 . S
C927 C928 1.334 . S
C928 H899 0.950 . S
C928 C927 1.334 . S
C928 C929 1.287 . S
C929 C928 1.287 . S
C929 C930 1.524 . S
C929 H932 0.999 . S
C930 H900 0.950 . S
C930 C929 1.524 . S
C930 C931 1.415 . S
C931 H901 0.950 . S
C931 C926 1.363 . S
C931 C930 1.415 . S
H932 C929 0.999 . S
H933 C914 0.913 . S
H934 C952 0.951 . S
H935 C954 0.951 . S
H936 C956 0.950 . S
H937 C957 0.950 . S
H938 C959 0.950 . S
H939 C962 0.950 . S
H940 C963 0.950 . S
H941 C965 0.950 . S
H942 C966 0.950 . S
H943 C967 0.951 . S
H944 C969 0.951 . S
H945 C971 0.950 . S
H946 C972 0.950 . S
H947 C974 0.950 . S
H948 C977 0.950 . S
H949 C978 0.950 . S
H950 C980 0.950 . S
H951 C981 0.950 . S
C952 H934 0.951 . S
C952 C953 1.366 . S
C952 C954 1.388 . S
C953 C952 1.366 . S
C953 C957 1.385 . S
C954 H935 0.951 . S
C954 C952 1.388 . S
C954 C955 1.366 . S
C955 C954 1.366 . S
C955 C956 1.414 . S
C955 C958 1.499 . S
C956 H936 0.950 . S
C956 C955 1.414 . S
C956 C957 1.374 . S
C957 H937 0.950 . S
C957 C953 1.385 . S
C957 C956 1.374 . S
C958 C955 1.499 . S
C958 C959 1.373 . S
C958 C960 1.389 . S
C959 H938 0.950 . S
C959 C958 1.373 . S
C959 C975 1.377 . S
C960 C958 1.389 . S
C960 C961 1.524 . S
C960 C974 1.377 . S
C961 C960 1.524 . S
C961 C962 1.397 . S
C961 C966 1.363 . S
C962 H939 0.950 . S
C962 C961 1.397 . S
C962 C963 1.334 . S
C963 H940 0.950 . S
C963 C962 1.334 . S
C963 C964 1.287 . S
C964 C963 1.287 . S
C964 C965 1.524 . S
C964 H983 0.913 . S
C965 H941 0.950 . S
C965 C964 1.524 . S
C965 C966 1.415 . S
C966 H942 0.950 . S
C966 C961 1.363 . S
C966 C965 1.415 . S
C967 H943 0.951 . S
C967 C968 1.366 . S
C967 C969 1.388 . S
C968 C967 1.366 . S
C968 C972 1.385 . S
C969 H944 0.951 . S
C969 C967 1.388 . S
C969 C970 1.366 . S
C970 C969 1.366 . S
C970 C971 1.414 . S
C970 C973 1.499 . S
C971 H945 0.950 . S
C971 C970 1.414 . S
C971 C972 1.374 . S
C972 H946 0.950 . S
C972 C968 1.385 . S
C972 C971 1.374 . S
C973 C970 1.499 . S
C973 C974 1.373 . S
C973 C975 1.389 . S
C974 H947 0.950 . S
C974 C960 1.377 . S
C974 C973 1.373 . S
C975 C959 1.377 . S
C975 C973 1.389 . S
C975 C976 1.524 . S
C976 C975 1.524 . S
C976 C977 1.397 . S
C976 C981 1.363 . S
C977 H948 0.950 . S
C977 C976 1.397 . S
C977 C978 1.334 . S
C978 H949 0.950 . S
C978 C977 1.334 . S
C978 C979 1.287 . S
C979 C978 1.287 . S
C979 C980 1.524 . S
C979 H982 0.999 . S
C980 H950 0.950 . S
C980 C979 1.524 . S
C980 C981 1.415 . S
C981 H951 0.950 . S
C981 C976 1.363 . S
C981 C980 1.415 . S
H982 C979 0.999 . S
H983 C964 0.913 . S
H984 C1002 0.951 1_565 S
H985 C1004 0.951 1_565 S
H986 C1006 0.950 . S
H987 C1007 0.950 . S
H988 C1009 0.950 . S
H989 C1012 0.950 . S
H990 C1013 0.950 . S
H991 C1015 0.950 . S
H992 C1016 0.950 . S
H993 C1017 0.951 . S
H994 C1019 0.951 . S
H995 C1021 0.950 1_565 S
H996 C1022 0.950 1_565 S
H997 C1024 0.950 . S
H998 C1027 0.950 . S
H999 C1028 0.950 . S
H1000 C1030 0.950 . S
H1001 C1031 0.950 . S
C1002 H984 0.951 1_545 S
C1002 C1003 1.366 . S
C1002 C1004 1.388 . S
C1003 C1002 1.366 . S
C1003 C1007 1.385 . S
C1004 H985 0.951 1_545 S
C1004 C1002 1.388 . S
C1004 C1005 1.366 . S
C1005 C1004 1.366 . S
C1005 C1006 1.414 . S
C1005 C1008 1.499 . S
C1006 H986 0.950 . S
C1006 C1005 1.414 . S
C1006 C1007 1.374 . S
C1007 H987 0.950 . S
C1007 C1003 1.385 . S
C1007 C1006 1.374 . S
C1008 C1005 1.499 . S
C1008 C1009 1.373 . S
C1008 C1010 1.389 . S
C1009 H988 0.950 . S
C1009 C1008 1.373 . S
C1009 C1025 1.377 . S
C1010 C1008 1.389 . S
C1010 C1011 1.524 . S
C1010 C1024 1.377 . S
C1011 C1010 1.524 . S
C1011 C1012 1.397 . S
C1011 C1016 1.363 1_545 S
C1012 H989 0.950 . S
C1012 C1011 1.397 . S
C1012 C1013 1.334 . S
C1013 H990 0.950 . S
C1013 C1012 1.334 . S
C1013 C1014 1.287 1_545 S
C1014 C1013 1.287 1_565 S
C1014 C1015 1.524 . S
C1014 H1033 0.913 . S
C1015 H991 0.950 . S
C1015 C1014 1.524 . S
C1015 C1016 1.415 . S
C1016 H992 0.950 . S
C1016 C1011 1.363 1_565 S
C1016 C1015 1.415 . S
C1017 H993 0.951 . S
C1017 C1018 1.366 . S
C1017 C1019 1.388 . S
C1018 C1017 1.366 . S
C1018 C1022 1.385 . S
C1019 H994 0.951 . S
C1019 C1017 1.388 . S
C1019 C1020 1.366 . S
C1020 C1019 1.366 . S
C1020 C1021 1.414 . S
C1020 C1023 1.499 . S
C1021 H995 0.950 1_545 S
C1021 C1020 1.414 . S
C1021 C1022 1.374 . S
C1022 H996 0.950 1_545 S
C1022 C1018 1.385 . S
C1022 C1021 1.374 . S
C1023 C1020 1.499 . S
C1023 C1024 1.373 . S
C1023 C1025 1.389 . S
C1024 H997 0.950 . S
C1024 C1010 1.377 . S
C1024 C1023 1.373 . S
C1025 C1009 1.377 . S
C1025 C1023 1.389 . S
C1025 C1026 1.524 . S
C1026 C1025 1.524 . S
C1026 C1027 1.397 . S
C1026 C1031 1.363 . S
C1027 H998 0.950 . S
C1027 C1026 1.397 . S
C1027 C1028 1.334 . S
C1028 H999 0.950 . S
C1028 C1027 1.334 . S
C1028 C1029 1.287 . S
C1029 C1028 1.287 . S
C1029 C1030 1.524 . S
C1029 H1032 0.999 . S
C1030 H1000 0.950 . S
C1030 C1029 1.524 . S
C1030 C1031 1.415 . S
C1031 H1001 0.950 . S
C1031 C1026 1.363 . S
C1031 C1030 1.415 . S
H1032 C1029 0.999 . S
H1033 C1014 0.913 . S
H1034 C1052 0.951 . S
H1035 C1054 0.951 . S
H1036 C1056 0.950 . S
H1037 C1057 0.950 . S
H1038 C1059 0.950 . S
H1039 C1062 0.950 . S
H1040 C1063 0.950 . S
H1041 C1065 0.950 . S
H1042 C1066 0.950 . S
H1043 C1067 0.951 . S
H1044 C1069 0.951 . S
H1045 C1071 0.950 . S
H1046 C1072 0.950 . S
H1047 C1074 0.950 1_554 S
H1048 C1077 0.950 . S
H1049 C1078 0.950 . S
H1050 C1080 0.950 . S
H1051 C1081 0.950 1_556 S
C1052 H1034 0.951 . S
C1052 C1053 1.366 . S
C1052 C1054 1.388 . S
C1053 C1052 1.366 . S
C1053 C1057 1.385 . S
C1054 H1035 0.951 . S
C1054 C1052 1.388 . S
C1054 C1055 1.366 . S
C1055 C1054 1.366 . S
C1055 C1056 1.414 . S
C1055 C1058 1.499 . S
C1056 H1036 0.950 . S
C1056 C1055 1.414 . S
C1056 C1057 1.374 . S
C1057 H1037 0.950 . S
C1057 C1053 1.385 . S
C1057 C1056 1.374 . S
C1058 C1055 1.499 . S
C1058 C1059 1.373 . S
C1058 C1060 1.389 . S
C1059 H1038 0.950 . S
C1059 C1058 1.373 . S
C1059 C1075 1.327 1_556 S
C1060 C1058 1.389 . S
C1060 C1061 1.524 . S
C1060 C1074 1.377 . S
C1061 C1060 1.524 . S
C1061 C1062 1.397 . S
C1061 C1066 1.363 . S
C1062 H1039 0.950 . S
C1062 C1061 1.397 . S
C1062 C1063 1.334 . S
C1063 H1040 0.950 . S
C1063 C1062 1.334 . S
C1063 C1064 1.287 . S
C1064 C1063 1.287 . S
C1064 C1065 1.524 . S
C1064 H1083 0.913 . S
C1065 H1041 0.950 . S
C1065 C1064 1.524 . S
C1065 C1066 1.415 . S
C1066 H1042 0.950 . S
C1066 C1061 1.363 . S
C1066 C1065 1.415 . S
C1067 H1043 0.951 . S
C1067 C1068 1.366 . S
C1067 C1069 1.388 . S
C1068 C1067 1.366 . S
C1068 C1072 1.385 . S
C1069 H1044 0.951 . S
C1069 C1067 1.388 . S
C1069 C1070 1.366 . S
C1070 C1069 1.366 . S
C1070 C1071 1.414 . S
C1070 C1073 1.499 . S
C1071 H1045 0.950 . S
C1071 C1070 1.414 . S
C1071 C1072 1.374 . S
C1072 H1046 0.950 . S
C1072 C1068 1.385 . S
C1072 C1071 1.374 . S
C1073 C1070 1.499 . S
C1073 C1074 1.373 1_554 S
C1073 C1075 1.418 . S
C1074 H1047 0.950 1_556 S
C1074 C1060 1.377 . S
C1074 C1073 1.373 1_556 S
C1075 C1059 1.327 1_554 S
C1075 C1073 1.418 . S
C1075 C1076 1.545 . S
C1076 C1075 1.545 . S
C1076 C1077 1.397 . S
C1076 C1081 1.363 . S
C1077 H1048 0.950 . S
C1077 C1076 1.397 . S
C1077 C1078 1.334 . S
C1078 H1049 0.950 . S
C1078 C1077 1.334 . S
C1078 C1079 1.287 . S
C1079 C1078 1.287 . S
C1079 C1080 1.524 . S
C1079 H1082 0.999 . S
C1080 H1050 0.950 . S
C1080 C1079 1.524 . S
C1080 C1081 1.415 . S
C1081 H1051 0.950 1_554 S
C1081 C1076 1.363 . S
C1081 C1080 1.415 . S
H1082 C1079 0.999 . S
H1083 C1064 0.913 . S
H1084 C1102 0.951 1_655 S
H1085 C1104 0.951 1_655 S
H1086 C1106 0.950 . S
H1087 C1107 0.950 . S
H1088 C1109 0.950 . S
H1089 C1112 0.950 . S
H1090 C1113 0.950 . S
H1091 C1115 0.950 . S
H1092 C1116 0.950 . S
H1093 C1117 0.951 . S
H1094 C1119 0.951 . S
H1095 C1121 0.950 . S
H1096 C1122 0.950 . S
H1097 C1124 0.950 . S
H1098 C1127 0.950 . S
H1099 C1128 0.950 . S
H1100 C1130 0.950 . S
H1101 C1131 0.950 . S
C1102 H1084 0.951 1_455 S
C1102 C1103 1.366 . S
C1102 C1104 1.388 . S
C1103 C1102 1.366 . S
C1103 C1107 1.385 . S
C1104 H1085 0.951 1_455 S
C1104 C1102 1.388 . S
C1104 C1105 1.366 . S
C1105 C1104 1.366 . S
C1105 C1106 1.414 . S
C1105 C1108 1.499 . S
C1106 H1086 0.950 . S
C1106 C1105 1.414 . S
C1106 C1107 1.374 . S
C1107 H1087 0.950 . S
C1107 C1103 1.385 . S
C1107 C1106 1.374 . S
C1108 C1105 1.499 . S
C1108 C1109 1.373 . S
C1108 C1110 1.403 . S
C1109 H1088 0.950 . S
C1109 C1108 1.373 . S
C1109 C1125 1.377 . S
C1110 C1108 1.403 . S
C1110 C1111 1.510 1_455 S
C1110 C1124 1.376 1_455 S
C1111 C1110 1.510 1_655 S
C1111 C1112 1.397 . S
C1111 C1116 1.363 . S
C1112 H1089 0.950 . S
C1112 C1111 1.397 . S
C1112 C1113 1.334 . S
C1113 H1090 0.950 . S
C1113 C1112 1.334 . S
C1113 C1114 1.287 . S
C1114 C1113 1.287 . S
C1114 C1115 1.524 . S
C1114 H1133 0.913 . S
C1115 H1091 0.950 . S
C1115 C1114 1.524 . S
C1115 C1116 1.415 . S
C1116 H1092 0.950 . S
C1116 C1111 1.363 . S
C1116 C1115 1.415 . S
C1117 H1093 0.951 . S
C1117 C1118 1.366 . S
C1117 C1119 1.388 . S
C1118 C1117 1.366 . S
C1118 C1122 1.385 1_455 S
C1119 H1094 0.951 . S
C1119 C1117 1.388 . S
C1119 C1120 1.366 . S
C1120 C1119 1.366 . S
C1120 C1121 1.414 1_455 S
C1120 C1123 1.499 . S
C1121 H1095 0.950 . S
C1121 C1120 1.414 1_655 S
C1121 C1122 1.374 . S
C1122 H1096 0.950 . S
C1122 C1118 1.385 1_655 S
C1122 C1121 1.374 . S
C1123 C1120 1.499 . S
C1123 C1124 1.373 1_455 S
C1123 C1125 1.389 . S
C1124 H1097 0.950 . S
C1124 C1110 1.376 1_655 S
C1124 C1123 1.373 1_655 S
C1125 C1109 1.377 . S
C1125 C1123 1.389 . S
C1125 C1126 1.524 . S
C1126 C1125 1.524 . S
C1126 C1127 1.397 . S
C1126 C1131 1.363 . S
C1127 H1098 0.950 . S
C1127 C1126 1.397 . S
C1127 C1128 1.334 . S
C1128 H1099 0.950 . S
C1128 C1127 1.334 . S
C1128 C1129 1.287 . S
C1129 C1128 1.287 . S
C1129 C1130 1.524 . S
C1129 H1132 0.999 . S
C1130 H1100 0.950 . S
C1130 C1129 1.524 . S
C1130 C1131 1.415 . S
C1131 H1101 0.950 . S
C1131 C1126 1.363 . S
C1131 C1130 1.415 . S
H1132 C1129 0.999 . S
H1133 C1114 0.913 . S
C253 C6 0.627 . S
C268 C226 0.663 . S
C303 C59 1.992 . S
C318 C188 1.925 . S
C353 C86 1.276 . S
C368 C207 1.221 . S
C403 C15 0.183 . S
C418 C221 0.214 . S
C468 C183 1.840 . S
C453 C50 1.865 . S
C518 C202 1.083 . S
C503 C95 1.095 . S
C553 C46 1.335 . S
C568 C150 1.263 . S
C603 C99 3.017 . S
C618 C164 2.986 1_655 S
C653 C10 1.874 . S
C668 C126 1.858 1_565 S
C718 C145 1.071 . S
C703 C55 1.082 . S
C768 C169 3.026 . S
C753 C90 3.085 . S
C803 C19 1.999 . S
C818 C131 1.938 . S
C868 C160 1.709 . S
C853 C18 1.692 . S
C903 C49 1.479 . S
C918 C122 1.541 . S
C953 C98 1.561 . S
C968 C141 1.578 . S
C1018 C198 1.572 . S
C1003 C58 1.575 . S
C1068 C217 1.403 . S
C1053 C89 1.372 . S
C1103 C9 1.450 . S
C1118 C179 1.499 . S
