# Generated by pormake.
# Topology scu, (8,4)-cn, num edge types: 1
# Building blocks:
#     Node 0, Type 0, BuildingBlock: TAGTUT_clean_sbu_3, # of connection points: 8
#     Node 1, Type 1, BuildingBlock: IZENUY_clean_linker_0, # of connection points: 4
#     Node 2, Type 1, BuildingBlock: IZENUY_clean_linker_0, # of connection points: 4
#     Edge 3, Type (0, 1), BuildingBlock: ZUJKAS_clean_linker_0, # of connection points: 2
#     Edge 4, Type (0, 1), BuildingBlock: ZUJKAS_clean_linker_0, # of connection points: 2
#     Edge 5, Type (0, 1), BuildingBlock: ZUJKAS_clean_linker_0, # of connection points: 2
#     Edge 6, Type (0, 1), BuildingBlock: ZUJKAS_clean_linker_0, # of connection points: 2
#     Edge 7, Type (0, 1), BuildingBlock: ZUJKAS_clean_linker_0, # of connection points: 2
#     Edge 8, Type (0, 1), BuildingBlock: ZUJKAS_clean_linker_0, # of connection points: 2
#     Edge 9, Type (0, 1), BuildingBlock: ZUJKAS_clean_linker_0, # of connection points: 2
#     Edge 10, Type (0, 1), BuildingBlock: ZUJKAS_clean_linker_0, # of connection points: 2
# Relax obj value: 0.055
# Max RMSD: 0.179
# Mean RMSD: 0.142
data_MOF--net-scu--node1-TAGTUT_clean_sbu_3--node2-IZENUY_clean_linker_0--edge1-ZUJKAS_clean_linker_0
_symmetry_space_group_name_H-M    P1
_symmetry_Int_Tables_number       1
_symmetry_cell_setting            triclinic
loop_
_symmetry_equiv_pos_as_xyz
'x, y, z'
_cell_length_a     38.700048
_cell_length_b     34.068497
_cell_length_c     23.919594
_cell_angle_alpha  91.225125
_cell_angle_beta   90.276162
_cell_angle_gamma 89.946713
loop_
_atom_site_label
_atom_site_type_symbol
_atom_site_fract_x
_atom_site_fract_y
_atom_site_fract_z
_atom_type_partial_charge
C0 C 1.01273 0.93707 0.07271 0.0
C1 C 0.88574 1.00062 0.05859 0.0
C2 C 0.91589 0.0257 0.8932 0.0
Mg3 Mg 0.083 0.96231 0.00934 0.0
Mg4 Mg 0.09497 0.05276 0.96902 0.0
O5 O 0.06638 0.00855 0.96536 0.0
Mg6 Mg 0.01757 0.01278 0.9926 0.0
O7 O 0.96869 0.01235 0.02011 0.0
Mg8 Mg 0.95203 0.9618 0.98414 0.0
Mg9 Mg 0.94059 0.05607 0.00669 0.0
C10 C 0.02746 0.09034 0.91426 0.0
O11 O 0.02714 0.06726 0.05069 0.0
O12 O 0.13343 0.96422 0.95482 0.0
O13 O 0.97673 0.09999 0.03905 0.0
O14 O 0.11169 1.00043 0.07636 0.0
O15 O 0.138 0.0265 0.92594 0.0
O16 O 0.11288 0.06335 0.05304 0.0
O17 O 1.00393 0.96006 0.9357 0.0
O18 O 0.05283 0.9255 0.94438 0.0
C19 C 0.02211 0.92932 0.92474 0.0
C20 C 0.14915 0.99106 0.92751 0.0
O21 O 1.00818 0.06091 0.92652 0.0
O22 O 0.90174 0.97056 0.03763 0.0
O23 O 0.05921 0.0932 0.92997 0.0
O24 O 0.92376 0.99183 0.91134 0.0
O25 O 0.89673 0.03584 0.05292 0.0
O26 O 0.92349 0.05686 0.92104 0.0
O27 O 0.03104 0.96626 0.05714 0.0
O28 O 0.9818 0.93202 0.05441 0.0
C29 C 0.12011 0.03613 0.08693 0.0
C30 C 1.00816 0.0982 0.05667 0.0
H31 H 0.03609 0.46012 0.42405 0.0
H32 H 0.99374 0.45668 0.5904 0.0
H33 H 1.01159 0.3495 0.49717 0.0
H34 H 1.00024 0.57155 0.56049 0.0
H35 H 0.04986 0.5747 0.39935 0.0
H36 H 0.02452 0.68212 0.48736 0.0
N37 N 0.01484 0.50512 0.5128 0.0
N38 N 0.02575 0.52632 0.47479 0.0
C39 C 0.02644 0.44365 0.45892 0.0
C40 C 0.02583 0.40243 0.45523 0.0
C41 C 0.01487 0.46344 0.50785 0.0
C42 C 1.0026 0.44159 0.55278 0.0
C43 C 1.00107 0.40047 0.54877 0.0
C44 C 1.01277 0.38129 0.50011 0.0
C45 C 1.01115 0.58788 0.52645 0.0
C46 C 1.01034 0.62907 0.52882 0.0
C47 C 0.02533 0.56801 0.47945 0.0
C48 C 0.03907 0.58983 0.43558 0.0
C49 C 0.03936 0.63101 0.43879 0.0
C50 C 0.02478 0.65027 0.48524 0.0
H51 H 0.55606 0.98443 0.41122 0.0
H52 H 0.57678 0.99852 0.58808 0.0
H53 H 0.66006 0.97661 0.47334 0.0
H54 H 0.47296 0.98396 0.57602 0.0
H55 H 0.45407 0.01963 0.40658 0.0
H56 H 0.36971 0.00858 0.5221 0.0
N57 N 0.52616 0.99547 0.51364 0.0
N58 N 0.50363 0.99865 0.47644 0.0
C59 C 0.574 0.9852 0.44613 0.0
C60 C 0.60939 0.97914 0.43633 0.0
C61 C 0.56197 0.99151 0.50131 0.0
C62 C 0.58588 0.99314 0.54582 0.0
C63 C 0.62133 0.98755 0.536 0.0
C64 C 0.63263 0.98012 0.48134 0.0
C65 C 0.45536 0.99294 0.54333 0.0
C66 C 0.41999 0.99619 0.55496 0.0
C67 C 0.46782 1.00151 0.48954 0.0
C68 C 0.44437 0.01288 0.44767 0.0
C69 C 0.40878 0.01641 0.45915 0.0
C70 C 0.3971 0.00754 0.51286 0.0
H71 H 0.99074 0.17365 0.03736 0.0
H72 H 1.00595 0.23176 0.09328 0.0
H73 H 0.07142 0.16125 0.19775 0.0
H74 H 0.05688 0.10275 0.14059 0.0
H75 H 0.98781 0.23593 0.20206 0.0
H76 H 0.12889 0.26089 0.18305 0.0
H77 H 0.10486 0.23031 0.134 0.0
H78 H 0.11731 0.21169 0.2009 0.0
C79 C 1.00892 0.1706 0.07161 0.0
C80 C 0.02219 0.1336 0.08529 0.0
C81 C 0.01771 0.20389 0.10336 0.0
C82 C 0.03981 0.20093 0.14969 0.0
C83 C 0.05476 0.16438 0.16162 0.0
H84 H 0.06768 0.33809 0.44944 0.0
H85 H 0.07529 0.29329 0.36925 0.0
C86 C 0.04627 0.13094 0.12921 0.0
C87 C 0.04287 0.23478 0.18945 0.0
H88 H 0.09986 0.29659 0.25618 0.0
C89 C 1.0123 0.24952 0.21329 0.0
C90 C 0.07485 0.25216 0.20446 0.0
C91 C 0.10835 0.23823 0.17895 0.0
C92 C 1.01278 0.28059 0.25252 0.0
C93 C 0.04472 0.29803 0.2677 0.0
C94 C 0.07539 0.28347 0.24385 0.0
C95 C 0.04649 0.32914 0.31183 0.0
C96 C 0.97914 0.29347 0.27899 0.0
C97 C 0.02924 0.36509 0.30533 0.0
C98 C 0.02457 0.39064 0.35129 0.0
C99 C 0.03719 0.38055 0.40424 0.0
C100 C 0.05715 0.34624 0.40927 0.0
C101 C 0.06173 0.32075 0.36345 0.0
H102 H 0.95814 0.27178 0.27128 0.0
H103 H 0.9823 0.29793 0.32486 0.0
H104 H 0.97092 0.32178 0.26105 0.0
H105 H 0.01769 0.37229 0.26551 0.0
H106 H 1.00913 0.41687 0.34618 0.0
H107 H 0.83668 0.05583 0.08195 0.0
H108 H 0.78331 0.04822 0.13402 0.0
H109 H 0.80659 0.92585 0.15754 0.0
H110 H 0.86002 0.93295 0.10365 0.0
H111 H 0.73738 0.9384 0.13314 0.0
H112 H 0.781 0.04088 0.30212 0.0
H113 H 0.7818 0.06266 0.23456 0.0
H114 H 0.80989 0.02193 0.24912 0.0
C115 C 0.83062 0.02723 0.09821 0.0
C116 C 0.85296 0.9951 0.08933 0.0
C117 C 0.80005 0.02298 0.12811 0.0
C118 C 0.79134 0.98672 0.15082 0.0
C119 C 0.81295 0.9542 0.14069 0.0
H120 H 0.64371 0.9158 0.39424 0.0
H121 H 0.68312 0.91539 0.31447 0.0
C122 C 0.8435 0.95831 0.11005 0.0
C123 C 0.76012 0.98335 0.18626 0.0
H124 H 0.72207 0.02197 0.30363 0.0
C125 C 0.73404 0.95656 0.17051 0.0
C126 C 0.75585 0.00695 0.23521 0.0
C127 C 0.78377 0.03442 0.25663 0.0
C128 C 0.70359 0.95327 0.202 0.0
C129 C 0.69921 0.97737 0.25025 0.0
C130 C 0.72526 0.00405 0.26595 0.0
C131 C 0.66924 0.97368 0.28808 0.0
C132 C 0.67618 0.92436 0.18341 0.0
C133 C 0.64749 0.00605 0.29847 0.0
C134 C 0.62468 0.00614 0.34372 0.0
C135 C 0.62376 0.97407 0.37952 0.0
C136 C 0.64365 0.94059 0.3666 0.0
C137 C 0.66616 0.94036 0.3211 0.0
H138 H 0.67987 0.91432 0.13935 0.0
H139 H 0.67734 0.89829 0.2104 0.0
H140 H 0.65004 0.93754 0.18774 0.0
H141 H 0.64978 0.0322 0.27376 0.0
H142 H 0.61006 0.03251 0.35355 0.0
H143 H 0.98503 0.86557 0.09288 0.0
H144 H 1.00814 0.81383 0.15031 0.0
H145 H 0.09781 0.88447 0.1891 0.0
H146 H 0.07472 0.93727 0.13076 0.0
H147 H 0.0778 0.77431 0.14249 0.0
H148 H 0.05027 0.85459 0.34316 0.0
H149 H 0.02863 0.86758 0.27912 0.0
H150 H 0.07352 0.87885 0.28869 0.0
C151 C 1.00972 0.87042 0.1134 0.0
C152 C 0.02788 0.90587 0.10752 0.0
C153 C 0.02298 0.84056 0.14597 0.0
C154 C 0.05459 0.84534 0.17386 0.0
C155 C 0.07327 0.88034 0.16783 0.0
H156 H 0.091 0.68472 0.44675 0.0
H157 H 0.10564 0.73446 0.37835 0.0
C158 C 0.06005 0.91042 0.13461 0.0
C159 C 0.06627 0.8139 0.21127 0.0
H160 H 0.06194 0.78742 0.34758 0.0
C161 C 0.0752 0.77727 0.18753 0.0
C162 C 0.06297 0.81797 0.26985 0.0
C163 C 0.05326 0.85675 0.29716 0.0
C164 C 0.07921 0.74404 0.22073 0.0
C165 C 0.07314 0.7474 0.27894 0.0
C166 C 0.06646 0.78468 0.30296 0.0
C167 C 0.06993 0.71262 0.31509 0.0
C168 C 0.08919 0.7056 0.19283 0.0
C169 C 0.04584 0.6829 0.30171 0.0
C170 C 0.03794 0.65407 0.34042 0.0
C171 C 0.05349 0.65498 0.39349 0.0
C172 C 0.07882 0.68341 0.40586 0.0
C173 C 0.08709 0.71185 0.36691 0.0
H174 H 0.10557 0.71055 0.15561 0.0
H175 H 0.10341 0.68632 0.22192 0.0
H176 H 0.06549 0.69014 0.17819 0.0
H177 H 0.03146 0.6834 0.2628 0.0
H178 H 0.0179 0.63284 0.33043 0.0
H179 H 0.16866 0.09393 0.09311 0.0
H180 H 0.21886 0.09659 0.15505 0.0
H181 H 0.17801 1.00007 0.24806 0.0
H182 H 0.12871 0.99562 0.18371 0.0
H183 H 0.23486 0.10795 0.25751 0.0
H184 H 0.2679 0.95367 0.20528 0.0
H185 H 0.23328 0.97906 0.17077 0.0
H186 H 0.22637 0.95706 0.23773 0.0
C187 C 0.16998 0.07372 0.12741 0.0
C188 C 0.14491 0.04422 0.13309 0.0
C189 C 0.19888 0.07516 0.16273 0.0
C190 C 0.20303 0.04754 0.20504 0.0
C191 C 0.17625 0.02058 0.21423 0.0
H192 H 0.35178 0.06316 0.47364 0.0
H193 H 0.30431 0.07272 0.40885 0.0
C194 C 0.14777 0.01845 0.17798 0.0
C195 C 0.23596 0.04597 0.2376 0.0
H196 H 0.29926 0.98345 0.28085 0.0
C197 C 0.24904 0.08074 0.26225 0.0
C198 C 0.25534 0.01083 0.24235 0.0
C199 C 0.24522 0.97319 0.21206 0.0
C200 C 0.2802 0.08111 0.29276 0.0
C201 C 0.29809 0.04537 0.30118 0.0
C202 C 0.28553 0.01086 0.27516 0.0
C203 C 0.32874 0.04243 0.33898 0.0
C204 C 0.29379 0.12008 0.31444 0.0
C205 C 0.35845 0.02149 0.32219 0.0
C206 C 0.38531 0.01443 0.36026 0.0
C207 C 0.38308 0.02836 0.41591 0.0
C208 C 0.35416 0.05114 0.43155 0.0
C209 C 0.32711 0.0574 0.39401 0.0
H210 H 0.28583 0.14428 0.28673 0.0
H211 H 0.28273 0.12649 0.35636 0.0
H212 H 0.32241 0.12011 0.3178 0.0
H213 H 0.36041 0.00952 0.28 0.0
H214 H 0.40701 0.9966 0.34672 0.0
H215 H 0.04749 0.85511 0.91473 0.0
H216 H 0.02764 0.80223 0.85279 0.0
H217 H 0.94399 0.87502 0.79548 0.0
H218 H 0.96397 0.92885 0.85766 0.0
H219 H 0.96193 0.76238 0.84004 0.0
H220 H 1.00114 0.84647 0.65316 0.0
H221 H 0.01517 0.86046 0.72281 0.0
H222 H 0.97144 0.86946 0.70137 0.0
C223 C 0.02472 0.86002 0.8893 0.0
C224 C 1.00762 0.89649 0.89051 0.0
C225 C 1.01327 0.82955 0.8542 0.0
C226 C 0.98458 0.83483 0.81926 0.0
C227 C 0.96641 0.87055 0.82187 0.0
H228 H 0.9582 0.68219 0.52563 0.0
H229 H 0.94178 0.7292 0.59966 0.0
C230 C 0.97781 0.9012 0.85741 0.0
C231 C 0.97612 0.80371 0.77728 0.0
H232 H 0.98645 0.78065 0.63903 0.0
C233 C 0.9666 0.76644 0.79586 0.0
C234 C 0.98225 0.80917 0.71977 0.0
C235 C 0.99325 0.84841 0.69774 0.0
C236 C 0.96429 0.73407 0.75863 0.0
C237 C 0.97249 0.73903 0.70165 0.0
C238 C 0.98018 0.77679 0.68271 0.0
C239 C 0.97651 0.70544 0.66159 0.0
C240 C 0.95362 0.69485 0.78091 0.0
C241 C 1.00059 0.67552 0.67231 0.0
C242 C 1.00961 0.64829 0.63021 0.0
C243 C 0.99512 0.65107 0.57659 0.0
C244 C 0.96963 0.67952 0.56682 0.0
C245 C 0.96031 0.70637 0.609 0.0
H246 H 0.93653 0.69857 0.81784 0.0
H247 H 0.93996 0.67678 0.74858 0.0
H248 H 0.97699 0.67869 0.79453 0.0
H249 H 1.01413 0.67474 0.71198 0.0
H250 H 0.02968 0.62695 0.63835 0.0
H251 H 0.18066 0.91894 0.91081 0.0
H252 H 0.23601 0.9057 0.86381 0.0
H253 H 0.24728 0.0291 0.83225 0.0
H254 H 0.19272 0.04263 0.87843 0.0
H255 H 0.25397 0.92514 0.75063 0.0
H256 H 0.34055 0.99882 0.90429 0.0
H257 H 0.29732 0.98323 0.9215 0.0
H258 H 0.30414 0.02876 0.88636 0.0
C259 C 0.19501 0.94323 0.89398 0.0
C260 C 0.18215 0.98186 0.89852 0.0
C261 C 0.22663 0.93561 0.86731 0.0
C262 C 0.24606 0.96655 0.84566 0.0
C263 C 0.23312 0.00491 0.84982 0.0
H264 H 0.38737 0.04754 0.62408 0.0
H265 H 0.35106 0.03189 0.70388 0.0
C266 C 0.20164 0.0125 0.87589 0.0
C267 C 0.27894 0.95946 0.81555 0.0
H268 H 0.36153 0.99411 0.80903 0.0
C269 C 0.27787 0.93913 0.76398 0.0
C270 C 0.31008 0.97763 0.83331 0.0
C271 C 0.31326 0.998 0.8897 0.0
C272 C 0.30618 0.93961 0.72738 0.0
C273 C 0.3364 0.9605 0.74337 0.0
C274 C 0.33834 0.97819 0.79679 0.0
C275 C 0.36344 0.96992 0.70203 0.0
C276 C 0.30252 0.92051 0.67014 0.0
C277 C 0.3837 0.94054 0.67615 0.0
C278 C 0.40475 0.94959 0.63062 0.0
C279 C 0.40564 0.98805 0.61065 0.0
C280 C 0.3872 0.01774 0.63908 0.0
C281 C 0.36644 0.00879 0.68451 0.0
H282 H 0.27596 0.90934 0.6621 0.0
H283 H 0.3091 0.94173 0.63724 0.0
H284 H 0.32074 0.89544 0.66639 0.0
H285 H 0.38202 0.91043 0.68949 0.0
H286 H 0.41851 0.92621 0.60886 0.0
H287 H 0.96905 0.0912 0.84767 0.0
H288 H 0.94787 0.14594 0.79152 0.0
H289 H 0.03198 0.21816 0.85257 0.0
H290 H 0.05284 0.16444 0.90893 0.0
H291 H 0.96618 0.25755 0.8481 0.0
H292 H 1.00087 0.17897 0.64928 0.0
H293 H 0.97249 0.15442 0.69649 0.0
H294 H 0.01664 0.16317 0.71626 0.0
C295 C 0.98273 0.1189 0.84956 0.0
C296 C 1.01288 0.12326 0.88221 0.0
C297 C 0.9707 0.15006 0.81734 0.0
C298 C 0.9886 0.18595 0.81756 0.0
C299 C 0.01781 0.19072 0.85177 0.0
H300 H 0.02479 0.39964 0.65622 0.0
H301 H 1.01313 0.34939 0.72535 0.0
C302 C 0.02987 0.15977 0.8836 0.0
C303 C 0.9789 0.21806 0.77974 0.0
H304 H 0.98465 0.24476 0.64356 0.0
C305 C 0.96958 0.25469 0.8032 0.0
C306 C 0.98335 0.21418 0.72127 0.0
C307 C 0.99407 0.17572 0.69401 0.0
C308 C 0.96575 0.2879 0.76988 0.0
C309 C 0.97217 0.28451 0.71181 0.0
C310 C 0.97976 0.24741 0.68809 0.0
C311 C 0.97422 0.31914 0.67522 0.0
C312 C 0.95532 0.32633 0.79738 0.0
C313 C 0.95602 0.31926 0.62433 0.0
C314 C 0.96306 0.3476 0.58463 0.0
C315 C 0.98832 0.37646 0.59519 0.0
C316 C 1.00487 0.37801 0.6475 0.0
C317 C 0.99809 0.34935 0.68706 0.0
H318 H 0.93966 0.32142 0.83541 0.0
H319 H 0.97889 0.34267 0.81051 0.0
H320 H 0.94023 0.34481 0.76836 0.0
H321 H 0.93758 0.29625 0.61417 0.0
H322 H 0.94998 0.34585 0.54451 0.0
H323 H 0.89991 0.96748 0.81714 0.0
H324 H 0.85018 0.96545 0.75401 0.0
H325 H 0.82584 0.08549 0.7993 0.0
H326 H 0.87598 0.08808 0.86171 0.0
H327 H 0.78463 0.97369 0.79372 0.0
H328 H 0.80857 0.08479 0.63205 0.0
H329 H 0.84256 0.06619 0.67618 0.0
H330 H 0.81336 0.10316 0.70257 0.0
C331 C 0.88463 0.99388 0.81244 0.0
C332 C 0.89182 0.02785 0.84489 0.0
C333 C 0.85608 0.9926 0.77648 0.0
C334 C 0.83416 0.02524 0.772 0.0
C335 C 0.8426 0.06009 0.80138 0.0
H336 H 0.63091 0.04842 0.61087 0.0
H337 H 0.68069 0.05863 0.67391 0.0
C338 C 0.87135 0.0615 0.83715 0.0
C339 C 0.80066 0.02119 0.74174 0.0
H340 H 0.75198 0.05788 0.63532 0.0
C341 C 0.77758 0.99205 0.75896 0.0
C342 C 0.79124 0.04547 0.69688 0.0
C343 C 0.81532 0.07645 0.67541 0.0
C344 C 0.74553 0.98631 0.73235 0.0
C345 C 0.73637 0.0101 0.68695 0.0
C346 C 0.75904 0.03981 0.67038 0.0
C347 C 0.70456 0.0027 0.65355 0.0
C348 C 0.72165 0.95488 0.7531 0.0
C349 C 0.70127 0.96767 0.6221 0.0
C350 C 0.67304 0.96185 0.58634 0.0
C351 C 0.64748 0.99093 0.58136 0.0
C352 C 0.65001 0.02535 0.61457 0.0
C353 C 0.67853 0.03133 0.6501 0.0
H354 H 0.72812 0.94653 0.79658 0.0
H355 H 0.69431 0.96474 0.75167 0.0
H356 H 0.72414 0.92828 0.72582 0.0
H357 H 0.72125 0.94542 0.6236 0.0
H358 H 0.67177 0.93514 0.56101 0.0
loop_
_geom_bond_atom_site_label_1
_geom_bond_atom_site_label_2
_geom_bond_distance
_geom_bond_site_symmetry_2
_ccdc_geom_bond_type
C0 O27 1.291 1_655 S
C0 O28 1.238 . S
C1 O22 1.332 1_545 S
C1 O25 1.242 . S
C2 O24 1.264 1_545 S
C2 O26 1.273 . S
Mg3 O5 1.936 1_565 S
Mg3 O12 2.081 . S
Mg3 O14 2.023 1_556 S
Mg3 O18 2.031 . S
Mg3 O27 2.291 1_556 S
Mg4 O5 1.963 . S
Mg4 O15 1.942 . S
Mg4 O16 1.955 1_556 S
Mg4 O23 1.986 . S
O5 Mg3 1.936 1_545 S
O5 Mg4 1.963 . S
O5 Mg6 1.912 1_556 S
Mg6 O5 1.912 1_554 S
Mg6 O7 1.918 1_455 S
Mg6 O11 2.020 . S
Mg6 O17 2.108 1_444 S
Mg6 O21 2.006 1_454 S
Mg6 O27 2.120 1_545 S
O7 Mg6 1.918 1_655 S
O7 Mg8 1.936 1_545 S
O7 Mg9 1.963 . S
Mg8 O7 1.936 1_565 S
Mg8 O17 2.291 1_554 S
Mg8 O22 2.081 . S
Mg8 O24 2.023 1_554 S
Mg8 O28 2.031 . S
Mg9 O7 1.963 . S
Mg9 O13 1.986 . S
Mg9 O25 1.942 . S
Mg9 O26 1.955 1_554 S
C10 O21 1.191 1_455 S
C10 O23 1.307 . S
O11 Mg6 2.020 . S
O11 C30 1.191 1_455 S
O12 Mg3 2.081 . S
O12 C20 1.331 . S
O13 Mg9 1.986 . S
O13 C30 1.307 . S
O14 Mg3 2.023 1_554 S
O14 C29 1.264 1_565 S
O15 Mg4 1.942 . S
O15 C20 1.244 1_545 S
O16 Mg4 1.955 1_554 S
O16 C29 1.273 . S
O17 Mg6 2.108 1_666 S
O17 Mg8 2.291 1_556 S
O17 C19 1.312 1_655 S
O18 Mg3 2.031 . S
O18 C19 1.208 . S
C19 O17 1.312 1_455 S
C19 O18 1.208 . S
C20 O12 1.331 . S
C20 O15 1.244 1_565 S
O21 Mg6 2.006 1_656 S
O21 C10 1.191 1_655 S
O22 C1 1.332 1_565 S
O22 Mg8 2.081 . S
O23 Mg4 1.986 . S
O23 C10 1.307 . S
O24 C2 1.264 1_565 S
O24 Mg8 2.023 1_556 S
O25 C1 1.242 . S
O25 Mg9 1.942 . S
O26 C2 1.273 . S
O26 Mg9 1.955 1_556 S
O27 C0 1.291 1_455 S
O27 Mg3 2.291 1_554 S
O27 Mg6 2.120 1_565 S
O28 C0 1.238 . S
O28 Mg8 2.031 . S
C29 O14 1.264 1_545 S
C29 O16 1.273 . S
C30 O11 1.191 1_655 S
C30 O13 1.307 . S
H31 C39 0.940 . S
H32 C42 0.940 . S
H33 C44 0.940 1_655 S
H34 C45 0.940 . S
H35 C48 0.940 . S
H36 C50 0.940 1_655 S
N37 N38 1.190 . S
N37 C41 1.477 . S
N38 N37 1.190 . S
N38 C47 1.477 . S
C39 H31 0.940 . S
C39 C40 1.390 . S
C39 C41 1.322 . S
C40 C39 1.390 . S
C40 C44 1.370 . S
C41 N37 1.477 . S
C41 C39 1.322 . S
C41 C42 1.447 . S
C42 H32 0.940 . S
C42 C41 1.447 . S
C42 C43 1.373 . S
C43 C42 1.373 . S
C43 C44 1.417 . S
C44 H33 0.940 1_455 S
C44 C40 1.370 . S
C44 C43 1.417 . S
C45 H34 0.940 . S
C45 C46 1.390 . S
C45 C47 1.322 . S
C46 C45 1.390 . S
C46 C50 1.370 . S
C47 N38 1.477 . S
C47 C45 1.322 . S
C47 C48 1.447 . S
C48 H35 0.940 . S
C48 C47 1.447 . S
C48 C49 1.373 . S
C49 C48 1.373 . S
C49 C50 1.417 . S
C50 H36 0.940 1_455 S
C50 C46 1.370 . S
C50 C49 1.417 . S
H51 C59 0.940 . S
H52 C62 0.940 . S
H53 C64 0.940 1_565 S
H54 C65 0.940 . S
H55 C68 0.940 . S
H56 C70 0.940 1_565 S
N57 N58 1.190 . S
N57 C61 1.477 . S
N58 N57 1.190 . S
N58 C67 1.477 . S
C59 H51 0.940 . S
C59 C60 1.390 . S
C59 C61 1.322 . S
C60 C59 1.390 . S
C60 C64 1.370 . S
C61 N57 1.477 . S
C61 C59 1.322 . S
C61 C62 1.447 . S
C62 H52 0.940 . S
C62 C61 1.447 . S
C62 C63 1.373 . S
C63 C62 1.373 . S
C63 C64 1.417 . S
C64 H53 0.940 1_545 S
C64 C60 1.370 . S
C64 C63 1.417 . S
C65 H54 0.940 . S
C65 C66 1.390 . S
C65 C67 1.322 . S
C66 C65 1.390 . S
C66 C70 1.370 . S
C67 N58 1.477 . S
C67 C65 1.322 . S
C67 C68 1.447 . S
C68 H55 0.940 . S
C68 C67 1.447 . S
C68 C69 1.373 . S
C69 C68 1.373 . S
C69 C70 1.417 . S
C70 H56 0.940 1_545 S
C70 C66 1.370 . S
C70 C69 1.417 . S
H71 C79 0.929 . S
H72 C81 0.930 . S
H73 C83 0.930 . S
H74 C86 0.929 . S
H75 C89 0.930 . S
H76 C91 0.960 . S
H77 C91 0.960 . S
H78 C91 0.960 . S
C79 H71 0.929 . S
C79 C80 1.377 1_655 S
C79 C81 1.384 . S
C80 C79 1.377 1_455 S
C80 C86 1.390 . S
C81 H72 0.930 . S
C81 C79 1.384 . S
C81 C82 1.373 1_655 S
C82 C81 1.373 1_455 S
C82 C83 1.399 . S
C82 C87 1.490 1_455 S
C83 H73 0.930 . S
C83 C82 1.399 . S
C83 C86 1.386 . S
H84 C100 0.930 . S
H85 C101 0.931 . S
C86 H74 0.929 . S
C86 C80 1.390 . S
C86 C83 1.386 . S
C87 C82 1.490 1_655 S
C87 C89 1.395 . S
C87 C90 1.403 1_655 S
H88 C94 0.930 . S
C89 H75 0.930 . S
C89 C87 1.395 . S
C89 C92 1.403 . S
C90 C87 1.403 1_455 S
C90 C91 1.524 . S
C90 C94 1.400 . S
C91 H76 0.960 . S
C91 H77 0.960 . S
C91 H78 0.960 . S
C91 C90 1.524 . S
C92 C89 1.403 . S
C92 C93 1.392 . S
C92 C96 1.495 . S
C93 C92 1.392 . S
C93 C94 1.385 1_655 S
C93 C95 1.478 . S
C94 H88 0.930 . S
C94 C90 1.400 . S
C94 C93 1.385 1_455 S
C95 C93 1.478 . S
C95 C97 1.381 . S
C95 C101 1.383 1_655 S
C96 C92 1.495 . S
C96 H102 0.959 . S
C96 H103 0.961 . S
C96 H104 0.960 . S
C97 C95 1.381 . S
C97 C98 1.394 . S
C97 H105 0.930 . S
C98 C97 1.394 . S
C98 C99 1.383 . S
C98 H106 0.929 . S
C99 C98 1.383 . S
C99 C100 1.377 1_655 S
C100 H84 0.930 . S
C100 C99 1.377 1_455 S
C100 C101 1.379 . S
C101 H85 0.931 . S
C101 C95 1.383 1_455 S
C101 C100 1.379 . S
H102 C96 0.959 . S
H103 C96 0.961 . S
H104 C96 0.960 . S
H105 C97 0.930 . S
H106 C98 0.929 . S
H107 C115 0.929 . S
H108 C117 0.930 . S
H109 C119 0.930 . S
H110 C122 0.929 . S
H111 C125 0.930 . S
H112 C127 0.960 . S
H113 C127 0.960 . S
H114 C127 0.960 . S
C115 H107 0.929 . S
C115 C116 1.377 1_545 S
C115 C117 1.384 . S
C116 C115 1.377 1_565 S
C116 C122 1.390 . S
C117 H108 0.930 . S
C117 C115 1.384 . S
C117 C118 1.362 1_545 S
C118 C117 1.362 1_565 S
C118 C119 1.410 . S
C118 C123 1.491 . S
C119 H109 0.930 . S
C119 C118 1.410 . S
C119 C122 1.386 . S
H120 C136 0.930 . S
H121 C137 0.931 . S
C122 H110 0.929 . S
C122 C116 1.390 . S
C122 C119 1.386 . S
C123 C118 1.491 . S
C123 C125 1.395 . S
C123 C126 1.403 1_565 S
H124 C130 0.930 . S
C125 H111 0.930 . S
C125 C123 1.395 . S
C125 C128 1.403 . S
C126 C123 1.403 1_545 S
C126 C127 1.524 . S
C126 C130 1.400 . S
C127 H112 0.960 . S
C127 H113 0.960 . S
C127 H114 0.960 . S
C127 C126 1.524 . S
C128 C125 1.403 . S
C128 C129 1.392 . S
C128 C132 1.495 . S
C129 C128 1.392 . S
C129 C130 1.385 1_565 S
C129 C131 1.478 . S
C130 H124 0.930 . S
C130 C126 1.400 . S
C130 C129 1.385 1_545 S
C131 C129 1.478 . S
C131 C133 1.381 1_565 S
C131 C137 1.383 . S
C132 C128 1.495 . S
C132 H138 0.959 . S
C132 H139 0.961 . S
C132 H140 0.960 . S
C133 C131 1.381 1_545 S
C133 C134 1.394 . S
C133 H141 0.930 . S
C134 C133 1.394 . S
C134 C135 1.383 1_545 S
C134 H142 0.929 . S
C135 C134 1.383 1_565 S
C135 C136 1.377 . S
C136 H120 0.930 . S
C136 C135 1.377 . S
C136 C137 1.379 . S
C137 H121 0.931 . S
C137 C131 1.383 . S
C137 C136 1.379 . S
H138 C132 0.959 . S
H139 C132 0.961 . S
H140 C132 0.960 . S
H141 C133 0.930 . S
H142 C134 0.929 . S
H143 C151 0.929 . S
H144 C153 0.930 . S
H145 C155 0.930 . S
H146 C158 0.929 . S
H147 C161 0.930 . S
H148 C163 0.960 . S
H149 C163 0.960 . S
H150 C163 0.960 . S
C151 H143 0.929 . S
C151 C152 1.377 1_655 S
C151 C153 1.384 . S
C152 C151 1.377 1_455 S
C152 C158 1.390 . S
C153 H144 0.930 . S
C153 C151 1.384 . S
C153 C154 1.372 1_655 S
C154 C153 1.372 1_455 S
C154 C155 1.400 . S
C154 C159 1.490 . S
C155 H145 0.930 . S
C155 C154 1.400 . S
C155 C158 1.386 . S
H156 C172 0.930 . S
H157 C173 0.931 . S
C158 H146 0.929 . S
C158 C152 1.390 . S
C158 C155 1.386 . S
C159 C154 1.490 . S
C159 C161 1.395 1_455 S
C159 C162 1.403 . S
H160 C166 0.930 . S
C161 H147 0.930 . S
C161 C159 1.395 1_655 S
C161 C164 1.403 . S
C162 C159 1.403 . S
C162 C163 1.524 . S
C162 C166 1.400 . S
C163 H148 0.960 . S
C163 H149 0.960 . S
C163 H150 0.960 . S
C163 C162 1.524 . S
C164 C161 1.403 . S
C164 C165 1.392 1_655 S
C164 C168 1.495 . S
C165 C164 1.392 1_455 S
C165 C166 1.385 . S
C165 C167 1.478 . S
C166 H160 0.930 . S
C166 C162 1.400 . S
C166 C165 1.385 . S
C167 C165 1.478 . S
C167 C169 1.381 1_455 S
C167 C173 1.383 . S
C168 C164 1.495 . S
C168 H174 0.959 . S
C168 H175 0.961 . S
C168 H176 0.960 . S
C169 C167 1.381 1_655 S
C169 C170 1.394 . S
C169 H177 0.930 . S
C170 C169 1.394 . S
C170 C171 1.383 1_655 S
C170 H178 0.929 . S
C171 C170 1.383 1_455 S
C171 C172 1.377 . S
C172 H156 0.930 . S
C172 C171 1.377 . S
C172 C173 1.379 . S
C173 H157 0.931 . S
C173 C167 1.383 . S
C173 C172 1.379 . S
H174 C168 0.959 . S
H175 C168 0.961 . S
H176 C168 0.960 . S
H177 C169 0.930 . S
H178 C170 0.929 . S
H179 C187 0.929 . S
H180 C189 0.930 . S
H181 C191 0.930 . S
H182 C194 0.929 . S
H183 C197 0.930 . S
H184 C199 0.960 . S
H185 C199 0.960 . S
H186 C199 0.960 . S
C187 H179 0.929 . S
C187 C188 1.377 . S
C187 C189 1.384 . S
C188 C187 1.377 . S
C188 C194 1.390 . S
C189 H180 0.930 . S
C189 C187 1.384 . S
C189 C190 1.372 . S
C190 C189 1.372 . S
C190 C191 1.400 . S
C190 C195 1.490 . S
C191 H181 0.930 . S
C191 C190 1.400 . S
C191 C194 1.386 . S
H192 C208 0.930 . S
H193 C209 0.931 . S
C194 H182 0.929 . S
C194 C188 1.390 . S
C194 C191 1.386 . S
C195 C190 1.490 . S
C195 C197 1.395 . S
C195 C198 1.403 1_545 S
H196 C202 0.930 . S
C197 H183 0.930 . S
C197 C195 1.395 . S
C197 C200 1.403 . S
C198 C195 1.403 1_565 S
C198 C199 1.524 . S
C198 C202 1.400 . S
C199 H184 0.960 . S
C199 H185 0.960 . S
C199 H186 0.960 . S
C199 C198 1.524 . S
C200 C197 1.403 . S
C200 C201 1.392 . S
C200 C204 1.495 . S
C201 C200 1.392 . S
C201 C202 1.385 1_545 S
C201 C203 1.478 . S
C202 H196 0.930 . S
C202 C198 1.400 . S
C202 C201 1.385 1_565 S
C203 C201 1.478 . S
C203 C205 1.381 . S
C203 C209 1.383 . S
C204 C200 1.495 . S
C204 H210 0.959 . S
C204 H211 0.961 . S
C204 H212 0.960 . S
C205 C203 1.381 . S
C205 C206 1.394 . S
C205 H213 0.930 . S
C206 C205 1.394 . S
C206 C207 1.383 . S
C206 H214 0.929 . S
C207 C206 1.383 . S
C207 C208 1.377 . S
C208 H192 0.930 . S
C208 C207 1.377 . S
C208 C209 1.379 . S
C209 H193 0.931 . S
C209 C203 1.383 . S
C209 C208 1.379 . S
H210 C204 0.959 . S
H211 C204 0.961 . S
H212 C204 0.960 . S
H213 C205 0.930 . S
H214 C206 0.929 . S
H215 C223 0.929 . S
H216 C225 0.930 . S
H217 C227 0.930 . S
H218 C230 0.929 . S
H219 C233 0.930 . S
H220 C235 0.960 . S
H221 C235 0.960 . S
H222 C235 0.960 . S
C223 H215 0.929 . S
C223 C224 1.377 . S
C223 C225 1.384 . S
C224 C223 1.377 . S
C224 C230 1.390 1_455 S
C225 H216 0.930 . S
C225 C223 1.384 . S
C225 C226 1.372 . S
C226 C225 1.372 . S
C226 C227 1.400 1_455 S
C226 C231 1.490 . S
C227 H217 0.930 . S
C227 C226 1.400 1_655 S
C227 C230 1.386 . S
H228 C244 0.930 . S
H229 C245 0.931 . S
C230 H218 0.929 . S
C230 C224 1.390 1_655 S
C230 C227 1.386 . S
C231 C226 1.490 . S
C231 C233 1.395 . S
C231 C234 1.403 1_455 S
H232 C238 0.930 . S
C233 H219 0.930 . S
C233 C231 1.395 . S
C233 C236 1.403 . S
C234 C231 1.403 1_655 S
C234 C235 1.524 . S
C234 C238 1.400 . S
C235 H220 0.960 . S
C235 H221 0.960 . S
C235 H222 0.960 . S
C235 C234 1.524 . S
C236 C233 1.403 . S
C236 C237 1.392 . S
C236 C240 1.495 . S
C237 C236 1.392 . S
C237 C238 1.385 1_455 S
C237 C239 1.478 . S
C238 H232 0.930 . S
C238 C234 1.400 . S
C238 C237 1.385 1_655 S
C239 C237 1.478 . S
C239 C241 1.381 . S
C239 C245 1.383 1_455 S
C240 C236 1.495 . S
C240 H246 0.959 . S
C240 H247 0.961 . S
C240 H248 0.960 . S
C241 C239 1.381 . S
C241 C242 1.394 . S
C241 H249 0.930 . S
C242 C241 1.394 . S
C242 C243 1.383 . S
C242 H250 0.929 . S
C243 C242 1.383 . S
C243 C244 1.377 1_455 S
C244 H228 0.930 . S
C244 C243 1.377 1_655 S
C244 C245 1.379 . S
C245 H229 0.931 . S
C245 C239 1.383 1_655 S
C245 C244 1.379 . S
H246 C240 0.959 . S
H247 C240 0.961 . S
H248 C240 0.960 . S
H249 C241 0.930 . S
H250 C242 0.929 . S
H251 C259 0.929 . S
H252 C261 0.930 . S
H253 C263 0.930 . S
H254 C266 0.929 . S
H255 C269 0.930 . S
H256 C271 0.960 . S
H257 C271 0.955 1_565 S
H258 C271 0.960 . S
C259 H251 0.929 . S
C259 C260 1.377 . S
C259 C261 1.384 . S
C260 C259 1.377 . S
C260 C266 1.390 1_565 S
C261 H252 0.930 . S
C261 C259 1.384 . S
C261 C262 1.372 . S
C262 C261 1.372 . S
C262 C263 1.400 1_565 S
C262 C267 1.490 . S
C263 H253 0.930 . S
C263 C262 1.400 1_545 S
C263 C266 1.386 . S
H264 C280 0.930 . S
H265 C281 0.931 . S
C266 H254 0.929 . S
C266 C260 1.390 1_545 S
C266 C263 1.386 . S
C267 C262 1.490 . S
C267 C269 1.395 . S
C267 C270 1.403 1_565 S
H268 C274 0.930 . S
C269 H255 0.930 . S
C269 C267 1.395 . S
C269 C272 1.403 . S
C270 C267 1.403 1_545 S
C270 C271 1.524 . S
C270 C274 1.400 . S
C271 H256 0.960 . S
C271 H257 0.955 1_545 S
C271 H258 0.960 . S
C271 C270 1.524 . S
C272 C269 1.403 . S
C272 C273 1.392 . S
C272 C276 1.495 . S
C273 C272 1.392 . S
C273 C274 1.385 1_565 S
C273 C275 1.478 . S
C274 H268 0.930 . S
C274 C270 1.400 . S
C274 C273 1.385 1_545 S
C275 C273 1.478 . S
C275 C277 1.381 . S
C275 C281 1.383 1_565 S
C276 C272 1.495 . S
C276 H282 0.959 . S
C276 H283 0.961 . S
C276 H284 0.960 . S
C277 C275 1.381 . S
C277 C278 1.394 . S
C277 H285 0.930 . S
C278 C277 1.394 . S
C278 C279 1.383 . S
C278 H286 0.929 . S
C279 C278 1.383 . S
C279 C280 1.377 1_565 S
C280 H264 0.930 . S
C280 C279 1.377 1_545 S
C280 C281 1.379 . S
C281 H265 0.931 . S
C281 C275 1.383 1_545 S
C281 C280 1.379 . S
H282 C276 0.959 . S
H283 C276 0.961 . S
H284 C276 0.960 . S
H285 C277 0.930 . S
H286 C278 0.929 . S
H287 C295 0.929 . S
H288 C297 0.930 . S
H289 C299 0.930 . S
H290 C302 0.929 . S
H291 C305 0.930 . S
H292 C307 0.960 . S
H293 C307 0.960 . S
H294 C307 0.960 . S
C295 H287 0.929 . S
C295 C296 1.377 1_655 S
C295 C297 1.384 . S
C296 C295 1.377 1_455 S
C296 C302 1.390 . S
C297 H288 0.930 . S
C297 C295 1.384 . S
C297 C298 1.372 1_655 S
C298 C297 1.372 1_455 S
C298 C299 1.400 . S
C298 C303 1.490 . S
C299 H289 0.930 . S
C299 C298 1.400 . S
C299 C302 1.386 . S
H300 C316 0.930 . S
H301 C317 0.931 . S
C302 H290 0.929 . S
C302 C296 1.390 . S
C302 C299 1.386 . S
C303 C298 1.490 . S
C303 C305 1.395 1_455 S
C303 C306 1.403 . S
H304 C310 0.930 . S
C305 H291 0.930 . S
C305 C303 1.395 1_655 S
C305 C308 1.403 . S
C306 C303 1.403 . S
C306 C307 1.524 . S
C306 C310 1.400 . S
C307 H292 0.960 . S
C307 H293 0.960 . S
C307 H294 0.960 . S
C307 C306 1.524 . S
C308 C305 1.403 . S
C308 C309 1.381 1_655 S
C308 C312 1.495 . S
C309 C308 1.381 1_455 S
C309 C310 1.397 . S
C309 C311 1.478 . S
C310 H304 0.930 . S
C310 C306 1.400 . S
C310 C309 1.397 . S
C311 C309 1.478 . S
C311 C313 1.381 1_455 S
C311 C317 1.383 . S
C312 C308 1.495 . S
C312 H318 0.959 . S
C312 H319 0.961 . S
C312 H320 0.960 . S
C313 C311 1.381 1_655 S
C313 C314 1.394 . S
C313 H321 0.930 . S
C314 C313 1.394 . S
C314 C315 1.383 1_655 S
C314 H322 0.929 . S
C315 C314 1.383 1_455 S
C315 C316 1.377 . S
C316 H300 0.930 . S
C316 C315 1.377 . S
C316 C317 1.379 . S
C317 H301 0.931 . S
C317 C311 1.383 . S
C317 C316 1.379 . S
H318 C312 0.959 . S
H319 C312 0.961 . S
H320 C312 0.960 . S
H321 C313 0.930 . S
H322 C314 0.929 . S
H323 C331 0.929 . S
H324 C333 0.930 . S
H325 C335 0.930 . S
H326 C338 0.929 . S
H327 C341 0.930 . S
H328 C343 0.960 . S
H329 C343 0.960 . S
H330 C343 0.960 . S
C331 H323 0.929 . S
C331 C332 1.377 1_565 S
C331 C333 1.384 . S
C332 C331 1.377 1_545 S
C332 C338 1.390 . S
C333 H324 0.930 . S
C333 C331 1.384 . S
C333 C334 1.372 1_565 S
C334 C333 1.372 1_545 S
C334 C335 1.400 . S
C334 C339 1.490 . S
C335 H325 0.930 . S
C335 C334 1.400 . S
C335 C338 1.386 . S
H336 C352 0.930 . S
H337 C353 0.931 . S
C338 H326 0.929 . S
C338 C332 1.390 . S
C338 C335 1.386 . S
C339 C334 1.490 . S
C339 C341 1.395 1_545 S
C339 C342 1.403 . S
H340 C346 0.930 . S
C341 H327 0.930 . S
C341 C339 1.395 1_565 S
C341 C344 1.403 . S
C342 C339 1.403 . S
C342 C343 1.524 . S
C342 C346 1.400 . S
C343 H328 0.960 . S
C343 H329 0.960 . S
C343 H330 0.960 . S
C343 C342 1.524 . S
C344 C341 1.403 . S
C344 C345 1.392 1_565 S
C344 C348 1.495 . S
C345 C344 1.392 1_545 S
C345 C346 1.385 . S
C345 C347 1.478 . S
C346 H340 0.930 . S
C346 C342 1.400 . S
C346 C345 1.385 . S
C347 C345 1.478 . S
C347 C349 1.381 1_545 S
C347 C353 1.383 . S
C348 C344 1.495 . S
C348 H354 0.959 . S
C348 H355 0.961 . S
C348 H356 0.960 . S
C349 C347 1.381 1_565 S
C349 C350 1.394 . S
C349 H357 0.930 . S
C350 C349 1.394 . S
C350 C351 1.383 1_565 S
C350 H358 0.929 . S
C351 C350 1.383 1_545 S
C351 C352 1.377 . S
C352 H336 0.930 . S
C352 C351 1.377 . S
C352 C353 1.379 . S
C353 H337 0.931 . S
C353 C347 1.383 . S
C353 C352 1.379 . S
H354 C348 0.959 . S
H355 C348 0.961 . S
H356 C348 0.960 . S
H357 C349 0.930 . S
H358 C350 0.929 . S
C80 C30 1.438 1_455 S
C99 C40 1.413 1_655 S
C116 C1 1.737 1_565 S
C135 C60 1.719 1_565 S
C152 C0 1.402 1_455 S
C171 C49 1.460 . S
C188 C29 1.751 . S
C207 C69 1.765 . S
C224 C19 1.431 . S
C243 C46 1.444 . S
C260 C20 1.737 . S
C279 C66 1.674 1_565 S
C315 C43 1.449 . S
C296 C10 1.423 . S
C332 C2 1.756 . S
C351 C63 1.769 . S
