# Generated by pormake.
# Topology anh, (6,3)-cn, num edge types: 1
# Building blocks:
#     Node 0, Type 0, BuildingBlock: CUWYAW_clean_sbu_0, # of connection points: 6
#     Node 1, Type 0, BuildingBlock: CUWYAW_clean_sbu_0, # of connection points: 6
#     Node 2, Type 0, BuildingBlock: CUWYAW_clean_sbu_0, # of connection points: 6
#     Node 3, Type 1, BuildingBlock: BETDIP_clean_linker_0, # of connection points: 3
#     Node 4, Type 1, BuildingBlock: BETDIP_clean_linker_0, # of connection points: 3
#     Node 5, Type 1, BuildingBlock: BETDIP_clean_linker_0, # of connection points: 3
#     Node 6, Type 1, BuildingBlock: BETDIP_clean_linker_0, # of connection points: 3
#     Node 7, Type 1, BuildingBlock: BETDIP_clean_linker_0, # of connection points: 3
#     Node 8, Type 1, BuildingBlock: BETDIP_clean_linker_0, # of connection points: 3
#     Edge 9, Type (0, 1), BuildingBlock: KIFKEQ_clean_linker_1, # of connection points: 2
#     Edge 10, Type (0, 1), BuildingBlock: KIFKEQ_clean_linker_1, # of connection points: 2
#     Edge 11, Type (0, 1), BuildingBlock: KIFKEQ_clean_linker_1, # of connection points: 2
#     Edge 12, Type (0, 1), BuildingBlock: KIFKEQ_clean_linker_1, # of connection points: 2
#     Edge 13, Type (0, 1), BuildingBlock: KIFKEQ_clean_linker_1, # of connection points: 2
#     Edge 14, Type (0, 1), BuildingBlock: KIFKEQ_clean_linker_1, # of connection points: 2
#     Edge 15, Type (0, 1), BuildingBlock: KIFKEQ_clean_linker_1, # of connection points: 2
#     Edge 16, Type (0, 1), BuildingBlock: KIFKEQ_clean_linker_1, # of connection points: 2
#     Edge 17, Type (0, 1), BuildingBlock: KIFKEQ_clean_linker_1, # of connection points: 2
#     Edge 18, Type (0, 1), BuildingBlock: KIFKEQ_clean_linker_1, # of connection points: 2
#     Edge 19, Type (0, 1), BuildingBlock: KIFKEQ_clean_linker_1, # of connection points: 2
#     Edge 20, Type (0, 1), BuildingBlock: KIFKEQ_clean_linker_1, # of connection points: 2
#     Edge 21, Type (0, 1), BuildingBlock: KIFKEQ_clean_linker_1, # of connection points: 2
#     Edge 22, Type (0, 1), BuildingBlock: KIFKEQ_clean_linker_1, # of connection points: 2
#     Edge 23, Type (0, 1), BuildingBlock: KIFKEQ_clean_linker_1, # of connection points: 2
#     Edge 24, Type (0, 1), BuildingBlock: KIFKEQ_clean_linker_1, # of connection points: 2
#     Edge 25, Type (0, 1), BuildingBlock: KIFKEQ_clean_linker_1, # of connection points: 2
#     Edge 26, Type (0, 1), BuildingBlock: KIFKEQ_clean_linker_1, # of connection points: 2
# Relax obj value: 0.258
# Max RMSD: 0.188
# Mean RMSD: 0.131
data_MOF--net-anh--node1-CUWYAW_clean_sbu_0--node2-BETDIP_clean_linker_0--edge1-KIFKEQ_clean_linker_1
_symmetry_space_group_name_H-M    P1
_symmetry_Int_Tables_number       1
_symmetry_cell_setting            triclinic
loop_
_symmetry_equiv_pos_as_xyz
'x, y, z'
_cell_length_a     32.21238
_cell_length_b     32.145039
_cell_length_c     50.534356
_cell_angle_alpha  92.778481
_cell_angle_beta   90.082803
_cell_angle_gamma 120.20341
loop_
_atom_site_label
_atom_site_type_symbol
_atom_site_fract_x
_atom_site_fract_y
_atom_site_fract_z
_atom_type_partial_charge
C0 C 1.05417 0.44266 0.15129 0.0
Eu1 Eu 0.11445 0.53447 0.15951 0.0
C2 C 1.00109 0.41539 0.1518 0.0
C3 C 0.97829 0.38859 0.17376 0.0
C4 C 0.92937 0.37097 0.17725 0.0
C5 C 0.90225 0.37935 0.1587 0.0
C6 C 0.92411 0.40274 0.13568 0.0
C7 C 0.97314 0.42073 0.13227 0.0
C8 C 0.14063 0.57781 0.20924 0.0
C9 C 1.04556 0.58627 0.15723 0.0
C10 C 0.21762 0.72997 0.16771 0.0
Eu11 Eu 0.16239 0.63739 0.15893 0.0
C12 C 0.26519 0.76882 0.16048 0.0
C13 C 0.26853 0.81007 0.15025 0.0
C14 C 0.3131 0.84891 0.14446 0.0
C15 C 0.35541 0.84742 0.14892 0.0
C16 C 0.35191 0.80528 0.15828 0.0
C17 C 0.30705 0.76611 0.16393 0.0
C18 C 0.13574 0.59284 0.11013 0.0
C19 C 0.23133 0.58489 0.1541 0.0
O20 O 1.07316 0.47202 0.13217 0.0
O21 O 1.07639 0.46208 0.1741 0.0
O22 O 0.14615 0.54238 0.20048 0.0
O23 O 0.12181 0.58975 0.19121 0.0
O24 O 1.04879 0.54668 0.15269 0.0
O25 O 1.08601 0.6272 0.16381 0.0
O26 O 0.21573 0.69845 0.18388 0.0
O27 O 0.18544 0.71048 0.14841 0.0
O28 O 0.13261 0.63031 0.11729 0.0
O29 O 0.1548 0.5823 0.12836 0.0
O30 O 0.22955 0.62555 0.15821 0.0
O31 O 0.18968 0.54331 0.15199 0.0
H32 H 0.99881 0.3835 0.18896 0.0
H33 H 0.91309 0.35229 0.19497 0.0
H34 H 0.90401 0.40976 0.12111 0.0
H35 H 0.98948 0.441 0.11501 0.0
H36 H 0.23664 0.81278 0.14739 0.0
H37 H 0.31451 0.88112 0.13782 0.0
H38 H 0.38391 0.80311 0.16186 0.0
H39 H 0.30528 0.73432 0.17151 0.0
C40 C 0.51987 0.1828 0.4817 0.0
Eu41 Eu 0.5729 0.14531 0.49225 0.0
C42 C 0.53034 0.23208 0.47692 0.0
C43 C 0.52217 0.25856 0.49699 0.0
C44 C 0.53882 0.30747 0.4948 0.0
C45 C 0.56341 0.331 0.47223 0.0
C46 C 0.56821 0.30351 0.45122 0.0
C47 C 0.55198 0.25455 0.45356 0.0
C48 C 0.60187 0.14161 0.54216 0.0
C49 C 0.68984 0.21456 0.48942 0.0
C50 C 0.6848 0.06484 0.50368 0.0
Eu51 Eu 0.62415 0.09315 0.49285 0.0
C52 C 0.69548 1.02656 0.50847 0.0
C53 C 0.73862 1.03963 0.52201 0.0
C54 C 0.75441 1.0067 0.52364 0.0
C55 C 0.72719 0.95991 0.51184 0.0
C56 C 0.68267 0.94594 0.49934 0.0
C57 C 0.66701 0.9793 0.49748 0.0
C58 C 0.59959 0.10475 0.44383 0.0
C59 C 0.50782 1.02284 0.48847 0.0
O60 O 0.53293 0.16145 0.46365 0.0
O61 O 0.52934 0.176 0.50574 0.0
O62 O 0.60458 0.17942 0.53241 0.0
O63 O 0.58365 0.10625 0.52498 0.0
O64 O 0.64792 0.21264 0.48554 0.0
O65 O 0.68862 0.17355 0.49466 0.0
O66 O 0.66382 0.07716 0.52205 0.0
O67 O 0.67152 0.06717 0.47965 0.0
O68 O 0.59587 0.06454 0.45058 0.0
O69 O 0.61688 0.13607 0.46267 0.0
O70 O 0.54909 1.02401 0.49335 0.0
O71 O 0.50916 0.06481 0.48613 0.0
H72 H 0.5051 0.24203 0.51508 0.0
H73 H 0.53488 0.32726 0.5116 0.0
H74 H 0.58604 0.32016 0.43333 0.0
H75 H 0.55811 0.23491 0.43749 0.0
H76 H 0.76107 0.07602 0.53051 0.0
H77 H 0.78842 1.01808 0.5338 0.0
H78 H 0.66104 0.90999 0.49017 0.0
H79 H 0.63366 0.96875 0.48682 0.0
C80 C 0.76073 0.66958 0.81846 0.0
Eu81 Eu 0.67119 0.64055 0.82754 0.0
C82 C 0.78617 0.64334 0.82314 0.0
C83 C 0.76946 0.60923 0.84257 0.0
C84 C 0.78703 0.57785 0.84445 0.0
C85 C 0.82155 0.57967 0.82688 0.0
C86 C 0.8398 0.61507 0.80807 0.0
C87 C 0.82186 0.64656 0.80608 0.0
C88 C 0.63701 0.6275 0.87758 0.0
C89 C 0.61841 0.51903 0.82373 0.0
C90 C 0.47792 0.54703 0.83925 0.0
Eu91 Eu 0.5681 0.58551 0.82763 0.0
C92 C 0.43264 0.54786 0.83692 0.0
C93 C 0.39879 0.51961 0.81662 0.0
C94 C 0.35123 0.50901 0.81821 0.0
C95 C 0.33655 0.52624 0.84023 0.0
C96 C 0.37147 0.55846 0.85912 0.0
C97 C 0.41905 0.56895 0.85758 0.0
C98 C 0.60375 0.60053 0.77837 0.0
C99 C 0.62044 0.70681 0.82396 0.0
O100 O 0.72672 0.64898 0.8001 0.0
O101 O 0.74692 0.68378 0.83966 0.0
O102 O 0.67153 0.66773 0.86958 0.0
O103 O 0.62167 0.59521 0.8588 0.0
O104 O 0.65757 0.56152 0.82003 0.0
O105 O 0.57852 0.51925 0.83015 0.0
O106 O 0.51293 0.57978 0.85476 0.0
O107 O 0.49305 0.53445 0.81804 0.0
O108 O 0.56689 0.56028 0.78458 0.0
O109 O 0.61775 0.63094 0.79764 0.0
O110 O 0.58051 0.66509 0.82872 0.0
O111 O 0.66097 0.70579 0.82043 0.0
H112 H 0.74139 0.60557 0.85571 0.0
H113 H 0.77296 0.55152 0.85946 0.0
H114 H 0.86648 0.61717 0.79433 0.0
H115 H 0.83453 0.67213 0.79067 0.0
H116 H 0.408 0.50256 0.80049 0.0
H117 H 0.32524 0.48384 0.80341 0.0
H118 H 0.36132 0.5729 0.8761 0.0
H119 H 0.44426 0.59081 0.87355 0.0
H120 H 0.54001 0.21471 0.18787 0.0
H121 H 0.54741 0.25087 0.27145 0.0
H122 H 0.54854 0.12272 0.24406 0.0
H123 H 0.55432 0.32998 0.19369 0.0
C124 C 0.56934 0.31091 0.20341 0.0
C125 C 0.54297 0.20679 0.20816 0.0
C126 C 0.54446 0.16508 0.2134 0.0
C127 C 0.54428 0.23788 0.22912 0.0
C128 C 0.54668 0.22692 0.25536 0.0
C129 C 0.54894 0.1857 0.26083 0.0
C130 C 0.54783 0.15509 0.23979 0.0
N131 N 0.54333 0.28046 0.22405 0.0
H132 H 0.83001 0.69012 0.53498 0.0
H133 H 0.83563 0.72826 0.61803 0.0
H134 H 0.70644 0.60907 0.58173 0.0
H135 H 0.93525 0.79926 0.54603 0.0
C136 C 0.8993 0.78471 0.55358 0.0
C137 C 0.81255 0.68419 0.55387 0.0
C138 C 0.76505 0.64682 0.55581 0.0
C139 C 0.83785 0.71352 0.57638 0.0
C140 C 0.81574 0.70484 0.60094 0.0
C141 C 0.76765 0.66796 0.60309 0.0
C142 C 0.74273 0.63909 0.5803 0.0
N143 N 0.88544 0.75252 0.57442 0.0
H144 H 0.93367 0.32396 0.87303 0.0
H145 H 0.99577 0.33151 0.9497 0.0
H146 H 0.94832 0.43112 0.93234 0.0
H147 H 0.98636 0.2532 0.86735 0.0
C148 C 0.998 0.2868 0.87889 0.0
C149 C 0.94436 0.3404 0.89294 0.0
C150 C 0.93721 0.37851 0.90104 0.0
C151 C 0.96441 0.32275 0.91079 0.0
C152 C 0.9784 0.34414 0.93654 0.0
C153 C 0.97506 0.385 0.94405 0.0
C154 C 0.9526 0.4006 0.9265 0.0
N155 N 0.97345 0.28538 0.9025 0.0
H156 H 0.13972 0.66198 0.48624 0.0
H157 H 1.07132 0.57757 0.41338 0.0
H158 H 0.20866 0.70681 0.41118 0.0
H159 H 1.04267 0.51354 0.44031 0.0
C160 C 1.02704 0.52565 0.4557 0.0
C161 C 0.13978 0.65628 0.46496 0.0
C162 C 0.18075 0.69122 0.4504 0.0
C163 C 0.09962 0.61304 0.45186 0.0
C164 C 0.10136 0.6077 0.42406 0.0
C165 C 0.14001 0.64126 0.40937 0.0
C166 C 0.17886 0.68188 0.4227 0.0
N167 N 1.05753 0.5762 0.46573 0.0
H168 H 0.61655 0.15334 0.8215 0.0
H169 H 0.61233 0.07548 0.748 0.0
H170 H 0.61967 0.21195 0.74571 0.0
H171 H 0.6541 1.05027 0.77224 0.0
C172 C 0.63175 1.03687 0.78936 0.0
C173 C 0.61639 0.1506 0.80008 0.0
C174 C 0.61869 0.1898 0.78537 0.0
C175 C 0.61559 0.10859 0.7868 0.0
C176 C 0.61461 0.1065 0.75879 0.0
C177 C 0.61656 0.14358 0.74411 0.0
C178 C 0.61884 0.18425 0.75749 0.0
N179 N 0.61472 0.06857 0.80075 0.0
H180 H 0.59712 0.58644 0.15422 0.0
H181 H 0.66884 0.59122 0.0809 0.0
H182 H 0.5342 0.58799 0.07882 0.0
H183 H 0.69686 0.54936 0.10271 0.0
C184 C 0.71095 0.57104 0.12116 0.0
C185 C 0.59836 0.58727 0.13285 0.0
C186 C 0.55887 0.58688 0.11822 0.0
C187 C 0.63881 0.58724 0.11951 0.0
C188 C 0.63868 0.58874 0.09159 0.0
C189 C 0.60167 0.58954 0.07703 0.0
C190 C 0.56262 0.58815 0.09043 0.0
N191 N 0.67968 0.58751 0.1334 0.0
H192 H 0.24884 0.50863 0.14316 0.0
H193 H 0.3279 0.66259 0.15748 0.0
H194 H 0.32389 0.50823 0.13776 0.0
H195 H 0.40369 0.66262 0.15172 0.0
H196 H 0.54455 0.65186 0.15229 0.0
H197 H 0.46958 0.65225 0.16151 0.0
H198 H 0.38944 0.51754 0.11562 0.0
H199 H 0.46366 0.51732 0.10696 0.0
C200 C 0.28213 0.54285 0.14516 0.0
C201 C 0.28027 0.5856 0.15087 0.0
C202 C 0.32635 0.54275 0.14181 0.0
C203 C 0.37244 0.58544 0.14396 0.0
C204 C 0.37055 0.62831 0.14993 0.0
C205 C 0.32612 0.6284 0.15318 0.0
C206 C 0.51089 0.62143 0.1448 0.0
C207 C 0.51184 0.58373 0.12938 0.0
C208 C 0.46698 0.62198 0.14973 0.0
C209 C 0.4209 0.58486 0.13958 0.0
C210 C 0.42226 0.54695 0.12459 0.0
C211 C 0.46589 0.54664 0.11956 0.0
H212 H 0.71062 0.30996 0.4817 0.0
H213 H 0.78366 0.23022 0.49062 0.0
H214 H 0.78835 0.38394 0.47638 0.0
H215 H 0.8608 0.30343 0.4854 0.0
H216 H 0.99312 0.42918 0.44926 0.0
H217 H 0.91597 0.35937 0.45777 0.0
H218 H 0.86721 0.45259 0.49112 0.0
H219 H 0.94621 0.52379 0.48237 0.0
C220 C 0.743 0.3077 0.48265 0.0
C221 C 0.73903 0.26231 0.48666 0.0
C222 C 0.78848 0.35099 0.47965 0.0
C223 C 0.83307 0.35173 0.48011 0.0
C224 C 0.82876 0.30622 0.48432 0.0
C225 C 0.78354 0.26327 0.48756 0.0
C226 C 0.96663 0.43553 0.45888 0.0
C227 C 0.97818 0.48377 0.46534 0.0
C228 C 0.92129 0.39447 0.46391 0.0
C229 C 0.88311 0.3981 0.47551 0.0
C230 C 0.89432 0.44654 0.48211 0.0
C231 C 0.94058 0.48817 0.47734 0.0
H232 H 0.54537 0.72865 0.82998 0.0
H233 H 0.69488 0.79747 0.81126 0.0
H234 H 0.54632 0.8049 0.82431 0.0
H235 H 0.69625 0.873 0.80596 0.0
H236 H 0.6841 0.99624 0.77268 0.0
H237 H 0.67997 0.92094 0.78126 0.0
H238 H 0.56529 0.88793 0.83514 0.0
H239 H 0.56942 0.96509 0.82601 0.0
C240 C 0.57874 0.75977 0.82471 0.0
C241 C 0.62002 0.755 0.82108 0.0
C242 C 0.57939 0.80445 0.82152 0.0
C243 C 0.62126 0.8473 0.81423 0.0
C244 C 0.66244 0.84221 0.81094 0.0
C245 C 0.66183 0.79791 0.81425 0.0
C246 C 0.65802 0.97368 0.78672 0.0
C247 C 0.62772 0.98907 0.79866 0.0
C248 C 0.65576 0.9294 0.79186 0.0
C249 C 0.6226 0.89614 0.80935 0.0
C250 C 0.59168 0.91112 0.82145 0.0
C251 C 0.59428 0.95636 0.81638 0.0
H252 H 0.95384 0.50904 0.14178 0.0
H253 H 1.0219 0.65968 0.16575 0.0
H254 H 0.87702 0.50599 0.1362 0.0
H255 H 0.9448 0.65709 0.15989 0.0
H256 H 0.78657 0.63511 0.1598 0.0
H257 H 0.86408 0.63916 0.16932 0.0
H258 H 0.82421 0.51941 0.11291 0.0
H259 H 0.74846 0.51557 0.10383 0.0
C260 C 0.95295 0.54193 0.14591 0.0
C261 C 0.99609 0.58463 0.1543 0.0
C262 C 0.9079 0.54036 0.14245 0.0
C263 C 0.90229 0.5814 0.14716 0.0
C264 C 0.94545 0.62405 0.15597 0.0
C265 C 0.9907 0.62563 0.1593 0.0
C266 C 0.7938 0.60907 0.14969 0.0
C267 C 0.759 0.57441 0.13106 0.0
C268 C 0.83932 0.61163 0.15499 0.0
C269 C 0.85271 0.57945 0.14223 0.0
C270 C 0.81727 0.54482 0.12397 0.0
C271 C 0.77267 0.54267 0.11856 0.0
H272 H 0.48965 0.92736 0.48737 0.0
H273 H 0.41269 1.00383 0.48143 0.0
H274 H 0.41412 0.85056 0.48137 0.0
H275 H 0.33683 0.92696 0.47524 0.0
H276 H 0.19449 0.77684 0.47797 0.0
H277 H 0.26973 0.85375 0.48775 0.0
H278 H 0.35048 0.79026 0.45593 0.0
H279 H 0.27583 0.71429 0.44652 0.0
C280 C 0.45678 0.92832 0.48481 0.0
C281 C 0.45917 0.97368 0.48504 0.0
C282 C 0.41244 0.8833 0.48111 0.0
C283 C 0.36701 0.88018 0.47754 0.0
C284 C 0.36948 0.92573 0.47806 0.0
C285 C 0.41395 0.97081 0.48155 0.0
C286 C 0.22825 0.77862 0.47371 0.0
C287 C 0.22744 0.73718 0.46192 0.0
C288 C 0.27228 0.82379 0.47895 0.0
C289 C 0.31852 0.83055 0.47286 0.0
C290 C 0.31732 0.78854 0.46162 0.0
C291 C 0.27354 0.74386 0.45617 0.0
H292 H 0.69339 0.5025 0.80881 0.0
H293 H 0.54551 0.4228 0.83053 0.0
H294 H 0.69482 0.42747 0.80259 0.0
H295 H 0.54649 0.34721 0.82419 0.0
H296 H 0.55973 0.20803 0.82093 0.0
H297 H 0.5597 0.28381 0.83095 0.0
H298 H 0.68369 0.35853 0.78283 0.0
H299 H 0.684 0.28392 0.77367 0.0
C300 C 0.6608 0.46908 0.81236 0.0
C301 C 0.61933 0.47066 0.82032 0.0
C302 C 0.66146 0.42484 0.80861 0.0
C303 C 0.62078 0.37861 0.81266 0.0
C304 C 0.57936 0.38042 0.82088 0.0
C305 C 0.57864 0.42475 0.8245 0.0
C306 C 0.58789 0.24078 0.81302 0.0
C307 C 0.62239 0.23811 0.79663 0.0
C308 C 0.5875 0.28513 0.81845 0.0
C309 C 0.62161 0.32992 0.80789 0.0
C310 C 0.65661 0.32693 0.79208 0.0
C311 C 0.65685 0.28294 0.78666 0.0
H312 H 0.68221 0.86668 0.52664 0.0
H313 H 0.81617 0.97917 0.49791 0.0
H314 H 0.71891 0.81679 0.53267 0.0
H315 H 0.85294 0.93003 0.50423 0.0
H316 H 0.90135 0.82068 0.50585 0.0
H317 H 0.85382 0.85566 0.49064 0.0
H318 H 0.78167 0.82668 0.56521 0.0
H319 H 0.82933 0.79295 0.58041 0.0
C320 C 0.71918 0.88028 0.52119 0.0
C321 C 0.74663 0.92691 0.51218 0.0
C322 C 0.74025 0.85197 0.52477 0.0
C323 C 0.78891 0.86968 0.5191 0.0
C324 C 0.81533 0.91519 0.50858 0.0
C325 C 0.79444 0.94353 0.50523 0.0
C326 C 0.87486 0.82136 0.51877 0.0
C327 C 0.86831 0.80307 0.54402 0.0
C328 C 0.84769 0.84128 0.51011 0.0
C329 C 0.81362 0.84341 0.52664 0.0
C330 C 0.80665 0.82438 0.55174 0.0
C331 C 0.83396 0.80482 0.56042 0.0
H332 H 0.76501 0.48304 0.83014 0.0
H333 H 0.91347 0.59559 0.82739 0.0
H334 H 0.78994 0.42562 0.84086 0.0
H335 H 0.93869 0.53817 0.83859 0.0
H336 H 0.96908 0.4173 0.85327 0.0
H337 H 0.93917 0.46041 0.82757 0.0
H338 H 0.8269 0.42543 0.88385 0.0
H339 H 0.85682 0.38295 0.90922 0.0
C340 C 0.80301 0.4952 0.83137 0.0
C341 C 0.83732 0.54384 0.82842 0.0
C342 C 0.81727 0.46239 0.8375 0.0
C343 C 0.8662 0.47763 0.84097 0.0
C344 C 0.9007 0.52538 0.83589 0.0
C345 C 0.88633 0.55828 0.82959 0.0
C346 C 0.93731 0.418 0.85959 0.0
C347 C 0.91504 0.39703 0.88308 0.0
C348 C 0.92045 0.44281 0.84507 0.0
C349 C 0.88072 0.44619 0.8537 0.0
C350 C 0.85714 0.42287 0.87647 0.0
C351 C 0.87431 0.39877 0.89108 0.0
H352 H 0.43043 0.88384 0.18461 0.0
H353 H 0.3862 0.91317 0.11043 0.0
H354 H 0.49442 0.96696 0.19005 0.0
H355 H 0.45094 0.99708 0.11579 0.0
H356 H 0.59379 0.11686 0.20567 0.0
H357 H 0.56529 1.04107 0.17945 0.0
H358 H 0.44852 1.05476 0.14738 0.0
H359 H 0.47721 0.13015 0.17324 0.0
C360 C 0.43573 0.90753 0.16883 0.0
C361 C 0.40251 0.89232 0.14746 0.0
C362 C 0.47267 0.95544 0.17191 0.0
C363 C 0.4771 0.98905 0.15364 0.0
C364 C 0.44772 0.97229 0.13051 0.0
C365 C 0.41067 0.9243 0.12745 0.0
C366 C 0.56292 0.10426 0.19233 0.0
C367 C 0.53694 0.12864 0.19197 0.0
C368 C 0.54665 1.06095 0.17732 0.0
C369 C 0.504 1.04125 0.16181 0.0
C370 C 0.48161 0.06883 0.159 0.0
C371 C 0.49797 0.11217 0.17393 0.0
H372 H 0.53408 0.39195 0.49343 0.0
H373 H 0.65117 0.39203 0.4517 0.0
H374 H 0.58489 0.4768 0.50549 0.0
H375 H 0.7006 0.47814 0.46143 0.0
H376 H 0.79202 0.5896 0.52942 0.0
H377 H 0.74215 0.52003 0.49978 0.0
H378 H 0.63096 0.55824 0.5007 0.0
H379 H 0.68041 0.62622 0.532 0.0
C380 C 0.57029 0.41035 0.48618 0.0
C381 C 0.58895 0.38457 0.47247 0.0
C382 C 0.59942 0.45954 0.49272 0.0
C383 C 0.64766 0.48447 0.48513 0.0
C384 C 0.66425 0.45988 0.46847 0.0
C385 C 0.63545 0.4104 0.46247 0.0
C386 C 0.7574 0.58365 0.52267 0.0
C387 C 0.73962 0.61258 0.53308 0.0
C388 C 0.7287 0.54386 0.50548 0.0
C389 C 0.68186 0.5327 0.49801 0.0
C390 C 0.66616 0.56474 0.50657 0.0
C391 C 0.69451 0.60391 0.52428 0.0
H392 H 0.26082 0.50371 0.80575 0.0
H393 H 0.29491 0.49498 0.88726 0.0
H394 H 0.17518 0.45273 0.81409 0.0
H395 H 0.21071 0.44396 0.89542 0.0
H396 H 1.05913 0.36731 0.91107 0.0
H397 H 0.13496 0.43494 0.90011 0.0
H398 H 0.12175 0.36921 0.82154 0.0
H399 H 1.04238 0.30304 0.83188 0.0
C400 C 0.24999 0.49159 0.82552 0.0
C401 C 0.28466 0.50356 0.84586 0.0
C402 C 0.20102 0.46218 0.83026 0.0
C403 C 0.18589 0.44398 0.8554 0.0
C404 C 0.22063 0.45797 0.87595 0.0
C405 C 0.26924 0.48747 0.87127 0.0
C406 C 1.0707 0.36803 0.89102 0.0
C407 C 1.04366 0.33014 0.87208 0.0
C408 C 0.1152 0.40662 0.88489 0.0
C409 C 0.13495 0.4075 0.86002 0.0
C410 C 0.10747 0.3702 0.8408 0.0
C411 C 1.06223 0.33198 0.84679 0.0
H412 H 0.87185 0.40076 0.20457 0.0
H413 H 0.82187 0.33419 0.12598 0.0
H414 H 0.79181 0.3855 0.21459 0.0
H415 H 0.74078 0.31745 0.13621 0.0
H416 H 0.61297 0.33908 0.15645 0.0
H417 H 0.69354 0.35586 0.14471 0.0
H418 H 0.71483 0.32072 0.22323 0.0
H419 H 0.63655 0.30739 0.23526 0.0
C420 C 0.84339 0.38205 0.18959 0.0
C421 C 0.85281 0.36802 0.16464 0.0
C422 C 0.79748 0.37327 0.19531 0.0
C423 C 0.75968 0.34978 0.17631 0.0
C424 C 0.76919 0.33602 0.15121 0.0
C425 C 0.81544 0.34529 0.14539 0.0
C426 C 0.63513 0.33507 0.17109 0.0
C427 C 0.61797 0.3206 0.19646 0.0
C428 C 0.681 0.34424 0.16435 0.0
C429 C 0.71057 0.33935 0.18297 0.0
C430 C 0.69327 0.32523 0.20843 0.0
C431 C 0.64782 0.31659 0.21519 0.0
H432 H 1.08259 0.60438 0.07259 0.0
H433 H 0.14021 0.51375 0.09233 0.0
H434 H 1.04332 0.55269 0.03285 0.0
H435 H 0.10083 0.46183 0.05245 0.0
H436 H 0.97722 0.35416 -0.00633 0.0
H437 H 1.01745 0.40436 0.03401 0.0
H438 H 1.06791 0.53237 0.99016 0.0
H439 H 1.02855 0.48274 0.95011 0.0
C440 C 1.08709 0.57359 0.0683 0.0
C441 C 0.11433 0.56298 0.08547 0.0
C442 C 1.06465 0.54399 0.04557 0.0
C443 C 1.06895 0.50317 0.03959 0.0
C444 C 0.09642 0.4927 0.05675 0.0
C445 C 0.11914 0.52253 0.07943 0.0
C446 C 0.99709 0.393 0.99269 0.0
C447 C 0.99899 0.41446 0.9688 0.0
C448 C 1.02014 0.42169 0.01573 0.0
C449 C 1.04541 0.47228 0.01524 0.0
C450 C 1.04786 0.49355 0.99128 0.0
C451 C 1.02511 0.46503 0.96835 0.0
H452 H 0.5709 1.0456 0.39857 0.0
H453 H 0.60633 0.18773 0.42923 0.0
H454 H 0.55732 0.06531 0.3544 0.0
H455 H 0.59028 0.20657 0.38585 0.0
H456 H 0.61276 0.24524 0.29965 0.0
H457 H 0.62412 0.22464 0.34383 0.0
H458 H 0.50482 0.07972 0.32828 0.0
H459 H 0.49484 0.10022 0.28376 0.0
C460 C 0.57523 0.08078 0.39589 0.0
C461 C 0.58958 0.11508 0.41725 0.0
C462 C 0.56713 0.09204 0.37068 0.0
C463 C 0.57281 0.13765 0.36649 0.0
C464 C 0.58645 0.17148 0.38813 0.0
C465 C 0.59514 0.16048 0.41312 0.0
C466 C 0.58873 0.2092 0.30587 0.0
C467 C 0.55299 0.17433 0.28839 0.0
C468 C 0.5951 0.1973 0.33118 0.0
C469 C 0.56542 0.1504 0.33967 0.0
C470 C 0.52893 0.11586 0.32227 0.0
C471 C 0.52295 0.12765 0.29685 0.0
H472 H 0.57404 0.54192 0.73306 0.0
H473 H 0.68425 0.68179 0.76512 0.0
H474 H 0.61352 0.55873 0.69024 0.0
H475 H 0.72409 0.69794 0.7227 0.0
H476 H 0.67354 0.64048 0.61225 0.0
H477 H 0.63297 0.6226 0.65438 0.0
H478 H 0.76603 0.65931 0.69491 0.0
H479 H 0.80651 0.67509 0.65271 0.0
C480 C 0.60662 0.57614 0.73093 0.0
C481 C 0.62626 0.61046 0.75235 0.0
C482 C 0.62909 0.58577 0.70651 0.0
C483 C 0.67191 0.6295 0.70334 0.0
C484 C 0.69139 0.66377 0.72476 0.0
C485 C 0.66853 0.65453 0.74897 0.0
C486 C 0.69414 0.64405 0.63003 0.0
C487 C 0.74338 0.65901 0.62897 0.0
C488 C 0.67084 0.63397 0.65414 0.0
C489 C 0.69641 0.6395 0.67777 0.0
C490 C 0.74565 0.65513 0.67691 0.0
C491 C 0.76884 0.66446 0.65275 0.0
H492 H 0.628 0.21395 0.57974 0.0
H493 H 0.58578 0.0635 0.57109 0.0
H494 H 0.63196 0.21202 0.62737 0.0
H495 H 0.59161 1.06175 0.61955 0.0
H496 H 0.55794 0.06672 0.70934 0.0
H497 H 0.55612 0.06379 0.66082 0.0
H498 H 0.67573 0.20998 0.66306 0.0
H499 H 0.67622 0.21313 0.71124 0.0
C500 C 0.62006 0.18035 0.58802 0.0
C501 C 0.6065 0.13885 0.5714 0.0
C502 C 0.62277 0.17934 0.61559 0.0
C503 C 0.6126 0.13687 0.62777 0.0
C504 C 0.59934 0.09515 0.61112 0.0
C505 C 0.59631 0.09613 0.58327 0.0
C506 C 0.58399 0.09811 0.69941 0.0
C507 C 0.61684 0.1404 0.71432 0.0
C508 C 0.58311 0.0964 0.67148 0.0
C509 C 0.61535 0.13682 0.65761 0.0
C510 C 0.64927 0.17844 0.6727 0.0
C511 C 0.64976 0.18029 0.7005 0.0
H512 H 0.6618 0.69531 0.91797 0.0
H513 H 0.59057 0.54123 0.90239 0.0
H514 H 0.65118 0.68438 0.96536 0.0
H515 H 0.58 0.53008 0.95024 0.0
H516 H 0.62503 0.53901 0.04012 0.0
H517 H 0.63 0.54567 0.99196 0.0
H518 H 0.58831 0.65394 -0.00143 0.0
H519 H 0.58381 0.64763 0.04655 0.0
C520 C 0.64353 0.65896 0.92467 0.0
C521 C 0.62702 0.61917 0.9063 0.0
C522 C 0.63725 0.65267 0.95193 0.0
C523 C 0.61471 0.60633 0.96183 0.0
C524 C 0.59786 0.56633 0.94342 0.0
C525 C 0.60359 0.57265 0.91597 0.0
C526 C 0.61703 0.56432 0.0313 0.0
C527 C 0.60409 0.59283 0.04739 0.0
C528 C 0.61941 0.5678 0.00361 0.0
C529 C 0.60961 0.60039 0.99121 0.0
C530 C 0.5965 0.62871 0.00732 0.0
C531 C 0.59356 0.62482 0.0349 0.0
H532 H 0.11669 0.64084 0.23467 0.0
H533 H 0.16943 0.54434 0.24963 0.0
H534 H 0.11637 0.65737 0.28266 0.0
H535 H 0.16954 0.56092 0.29711 0.0
H536 H 0.11349 0.55673 0.38013 0.0
H537 H 0.1135 0.54367 0.33222 0.0
H538 H 0.16759 0.69507 0.323 0.0
H539 H 0.16641 0.70795 0.37107 0.0
C540 C 0.12851 0.62343 0.24815 0.0
C541 C 0.14282 0.59104 0.23821 0.0
C542 C 0.12848 0.63298 0.27569 0.0
C543 C 0.14245 0.61012 0.294 0.0
C544 C 0.1576 0.57852 0.28385 0.0
C545 C 0.15786 0.56924 0.25648 0.0
C546 C 0.125 0.58727 0.36795 0.0
C547 C 0.14 0.63345 0.37971 0.0
C548 C 0.1255 0.57986 0.34036 0.0
C549 C 0.14083 0.61832 0.32349 0.0
C550 C 0.15527 0.66446 0.33519 0.0
C551 C 0.15507 0.67194 0.36287 0.0
loop_
_geom_bond_atom_site_label_1
_geom_bond_atom_site_label_2
_geom_bond_distance
_geom_bond_site_symmetry_2
_ccdc_geom_bond_type
C0 Eu1 2.835 1_655 S
C0 C2 1.500 . S
C0 O20 1.257 . S
C0 O21 1.260 . S
Eu1 C0 2.835 1_455 S
Eu1 O20 2.473 1_455 S
Eu1 O21 2.480 1_455 S
Eu1 O22 2.430 . S
Eu1 O23 2.670 . S
Eu1 O24 2.394 1_455 S
Eu1 O29 2.355 . S
Eu1 O31 2.374 . S
C2 C0 1.500 . S
C2 C3 1.377 . S
C2 C7 1.377 . S
C3 C2 1.377 . S
C3 C4 1.395 . S
C3 H32 0.931 . S
C4 C3 1.395 . S
C4 C5 1.383 . S
C4 H33 0.931 . S
C5 C4 1.383 . S
C5 C6 1.394 . S
C6 C5 1.394 . S
C6 C7 1.378 . S
C6 H34 0.931 . S
C7 C2 1.377 . S
C7 C6 1.378 . S
C7 H35 0.931 . S
C8 O22 1.259 . S
C8 O23 1.270 . S
C9 O24 1.251 . S
C9 O25 1.251 . S
C10 Eu11 2.835 . S
C10 C12 1.500 . S
C10 O26 1.257 . S
C10 O27 1.260 . S
Eu11 C10 2.835 . S
Eu11 O23 2.355 . S
Eu11 O25 2.374 1_455 S
Eu11 O26 2.473 . S
Eu11 O27 2.480 . S
Eu11 O28 2.430 . S
Eu11 O29 2.670 . S
Eu11 O30 2.394 . S
C12 C10 1.500 . S
C12 C13 1.377 . S
C12 C17 1.377 . S
C13 C12 1.377 . S
C13 C14 1.395 . S
C13 H36 0.931 . S
C14 C13 1.395 . S
C14 C15 1.383 . S
C14 H37 0.931 . S
C15 C14 1.383 . S
C15 C16 1.394 . S
C16 C15 1.394 . S
C16 C17 1.378 . S
C16 H38 0.931 . S
C17 C12 1.377 . S
C17 C16 1.378 . S
C17 H39 0.931 . S
C18 O28 1.259 . S
C18 O29 1.270 . S
C19 O30 1.251 . S
C19 O31 1.251 . S
O20 C0 1.257 . S
O20 Eu1 2.473 1_655 S
O21 C0 1.260 . S
O21 Eu1 2.480 1_655 S
O22 Eu1 2.430 . S
O22 C8 1.259 . S
O23 Eu1 2.670 . S
O23 C8 1.270 . S
O23 Eu11 2.355 . S
O24 Eu1 2.394 1_655 S
O24 C9 1.251 . S
O25 C9 1.251 . S
O25 Eu11 2.374 1_655 S
O26 C10 1.257 . S
O26 Eu11 2.473 . S
O27 C10 1.260 . S
O27 Eu11 2.480 . S
O28 Eu11 2.430 . S
O28 C18 1.259 . S
O29 Eu1 2.355 . S
O29 Eu11 2.670 . S
O29 C18 1.270 . S
O30 Eu11 2.394 . S
O30 C19 1.251 . S
O31 Eu1 2.374 . S
O31 C19 1.251 . S
H32 C3 0.931 . S
H33 C4 0.931 . S
H34 C6 0.931 . S
H35 C7 0.931 . S
H36 C13 0.931 . S
H37 C14 0.931 . S
H38 C16 0.931 . S
H39 C17 0.931 . S
C40 Eu41 2.835 . S
C40 C42 1.500 . S
C40 O60 1.257 . S
C40 O61 1.260 . S
Eu41 C40 2.835 . S
Eu41 O60 2.473 . S
Eu41 O61 2.480 . S
Eu41 O62 2.430 . S
Eu41 O63 2.670 . S
Eu41 O64 2.394 . S
Eu41 O69 2.355 . S
Eu41 O71 2.397 . S
C42 C40 1.500 . S
C42 C43 1.377 . S
C42 C47 1.377 . S
C43 C42 1.377 . S
C43 C44 1.395 . S
C43 H72 0.931 . S
C44 C43 1.395 . S
C44 C45 1.383 . S
C44 H73 0.931 . S
C45 C44 1.383 . S
C45 C46 1.394 . S
C46 C45 1.394 . S
C46 C47 1.378 . S
C46 H74 0.931 . S
C47 C42 1.377 . S
C47 C46 1.378 . S
C47 H75 0.931 . S
C48 O62 1.259 . S
C48 O63 1.270 . S
C49 O64 1.251 . S
C49 O65 1.251 . S
C50 Eu51 2.835 1_565 S
C50 C52 1.500 . S
C50 O66 1.257 . S
C50 O67 1.260 . S
Eu51 C50 2.835 1_545 S
Eu51 O63 2.355 . S
Eu51 O65 2.374 . S
Eu51 O66 2.473 1_545 S
Eu51 O67 2.480 1_545 S
Eu51 O68 2.430 . S
Eu51 O69 2.670 . S
Eu51 O70 2.394 1_545 S
C52 C50 1.500 . S
C52 C53 1.377 . S
C52 C57 1.377 . S
C53 C52 1.377 . S
C53 C54 1.395 . S
C53 H76 0.931 . S
C54 C53 1.395 . S
C54 C55 1.383 . S
C54 H77 0.931 . S
C55 C54 1.383 . S
C55 C56 1.394 . S
C56 C55 1.394 . S
C56 C57 1.378 . S
C56 H78 0.931 . S
C57 C52 1.377 . S
C57 C56 1.378 . S
C57 H79 0.931 . S
C58 O68 1.259 . S
C58 O69 1.270 . S
C59 O70 1.251 . S
C59 O71 1.223 1_565 S
O60 C40 1.257 . S
O60 Eu41 2.473 . S
O61 C40 1.260 . S
O61 Eu41 2.480 . S
O62 Eu41 2.430 . S
O62 C48 1.259 . S
O63 Eu41 2.670 . S
O63 C48 1.270 . S
O63 Eu51 2.355 . S
O64 Eu41 2.394 . S
O64 C49 1.251 . S
O65 C49 1.251 . S
O65 Eu51 2.374 . S
O66 C50 1.257 . S
O66 Eu51 2.473 1_565 S
O67 C50 1.260 . S
O67 Eu51 2.480 1_565 S
O68 Eu51 2.430 . S
O68 C58 1.259 . S
O69 Eu41 2.355 . S
O69 Eu51 2.670 . S
O69 C58 1.270 . S
O70 Eu51 2.394 1_565 S
O70 C59 1.251 . S
O71 Eu41 2.397 . S
O71 C59 1.223 1_545 S
H72 C43 0.931 . S
H73 C44 0.931 . S
H74 C46 0.931 . S
H75 C47 0.931 . S
H76 C53 0.931 . S
H77 C54 0.931 . S
H78 C56 0.931 . S
H79 C57 0.931 . S
C80 Eu81 2.835 . S
C80 C82 1.500 . S
C80 O100 1.257 . S
C80 O101 1.260 . S
Eu81 C80 2.835 . S
Eu81 O100 2.473 . S
Eu81 O101 2.480 . S
Eu81 O102 2.430 . S
Eu81 O103 2.670 . S
Eu81 O104 2.394 . S
Eu81 O109 2.355 . S
Eu81 O111 2.374 . S
C82 C80 1.500 . S
C82 C83 1.377 . S
C82 C87 1.377 . S
C83 C82 1.377 . S
C83 C84 1.395 . S
C83 H112 0.931 . S
C84 C83 1.395 . S
C84 C85 1.383 . S
C84 H113 0.931 . S
C85 C84 1.383 . S
C85 C86 1.394 . S
C86 C85 1.394 . S
C86 C87 1.378 . S
C86 H114 0.931 . S
C87 C82 1.377 . S
C87 C86 1.378 . S
C87 H115 0.931 . S
C88 O102 1.259 . S
C88 O103 1.270 . S
C89 O104 1.251 . S
C89 O105 1.251 . S
C90 Eu91 2.835 . S
C90 C92 1.500 . S
C90 O106 1.257 . S
C90 O107 1.260 . S
Eu91 C90 2.835 . S
Eu91 O103 2.355 . S
Eu91 O105 2.374 . S
Eu91 O106 2.473 . S
Eu91 O107 2.480 . S
Eu91 O108 2.430 . S
Eu91 O109 2.670 . S
Eu91 O110 2.394 . S
C92 C90 1.500 . S
C92 C93 1.377 . S
C92 C97 1.377 . S
C93 C92 1.377 . S
C93 C94 1.395 . S
C93 H116 0.931 . S
C94 C93 1.395 . S
C94 C95 1.383 . S
C94 H117 0.931 . S
C95 C94 1.383 . S
C95 C96 1.394 . S
C96 C95 1.394 . S
C96 C97 1.378 . S
C96 H118 0.931 . S
C97 C92 1.377 . S
C97 C96 1.378 . S
C97 H119 0.931 . S
C98 O108 1.259 . S
C98 O109 1.270 . S
C99 O110 1.251 . S
C99 O111 1.251 . S
O100 C80 1.257 . S
O100 Eu81 2.473 . S
O101 C80 1.260 . S
O101 Eu81 2.480 . S
O102 Eu81 2.430 . S
O102 C88 1.259 . S
O103 Eu81 2.670 . S
O103 C88 1.270 . S
O103 Eu91 2.355 . S
O104 Eu81 2.394 . S
O104 C89 1.251 . S
O105 C89 1.251 . S
O105 Eu91 2.374 . S
O106 C90 1.257 . S
O106 Eu91 2.473 . S
O107 C90 1.260 . S
O107 Eu91 2.480 . S
O108 Eu91 2.430 . S
O108 C98 1.259 . S
O109 Eu81 2.355 . S
O109 Eu91 2.670 . S
O109 C98 1.270 . S
O110 Eu91 2.394 . S
O110 C99 1.251 . S
O111 Eu81 2.374 . S
O111 C99 1.251 . S
H112 C83 0.931 . S
H113 C84 0.931 . S
H114 C86 0.931 . S
H115 C87 0.931 . S
H116 C93 0.931 . S
H117 C94 0.931 . S
H118 C96 0.931 . S
H119 C97 0.931 . S
H120 C125 0.930 . S
H121 C128 0.930 . S
H122 C130 0.930 . S
H123 C124 1.016 . S
C124 H123 1.016 . S
C124 N131 1.286 . S
C125 H120 0.930 . S
C125 C126 1.397 . S
C125 C127 1.361 . S
C126 C125 1.397 . S
C126 C130 1.390 . S
C127 C125 1.361 . S
C127 C128 1.393 . S
C127 N131 1.413 . S
C128 H121 0.930 . S
C128 C127 1.393 . S
C128 C129 1.399 . S
C129 C128 1.399 . S
C129 C130 1.381 . S
C130 H122 0.930 . S
C130 C126 1.390 . S
C130 C129 1.381 . S
N131 C124 1.286 . S
N131 C127 1.413 . S
H132 C137 0.930 . S
H133 C140 0.930 . S
H134 C142 0.930 . S
H135 C136 1.016 . S
C136 H135 1.016 . S
C136 N143 1.286 . S
C137 H132 0.930 . S
C137 C138 1.397 . S
C137 C139 1.361 . S
C138 C137 1.397 . S
C138 C142 1.390 . S
C139 C137 1.361 . S
C139 C140 1.393 . S
C139 N143 1.413 . S
C140 H133 0.930 . S
C140 C139 1.393 . S
C140 C141 1.399 . S
C141 C140 1.399 . S
C141 C142 1.381 . S
C142 H134 0.930 . S
C142 C138 1.390 . S
C142 C141 1.381 . S
N143 C136 1.286 . S
N143 C139 1.413 . S
H144 C149 0.930 . S
H145 C152 0.930 . S
H146 C154 0.930 . S
H147 C148 1.016 . S
C148 H147 1.016 . S
C148 N155 1.286 . S
C149 H144 0.930 . S
C149 C150 1.397 . S
C149 C151 1.361 1_655 S
C150 C149 1.397 . S
C150 C154 1.390 . S
C151 C149 1.361 1_455 S
C151 C152 1.393 . S
C151 N155 1.413 . S
C152 H145 0.930 . S
C152 C151 1.393 . S
C152 C153 1.388 1_455 S
C153 C152 1.388 1_655 S
C153 C154 1.393 . S
C154 H146 0.930 . S
C154 C150 1.390 . S
C154 C153 1.393 . S
N155 C148 1.286 . S
N155 C151 1.413 . S
H156 C161 0.930 . S
H157 C164 0.930 1_655 S
H158 C166 0.930 . S
H159 C160 1.016 . S
C160 H159 1.016 . S
C160 N167 1.286 . S
C161 H156 0.930 . S
C161 C162 1.397 . S
C161 C163 1.361 . S
C162 C161 1.397 . S
C162 C166 1.390 . S
C163 C161 1.361 . S
C163 C164 1.393 . S
C163 N167 1.413 1_455 S
C164 H157 0.930 1_455 S
C164 C163 1.393 . S
C164 C165 1.399 . S
C165 C164 1.399 . S
C165 C166 1.381 . S
C166 H158 0.930 . S
C166 C162 1.390 . S
C166 C165 1.381 . S
N167 C160 1.286 . S
N167 C163 1.413 1_655 S
H168 C173 0.930 . S
H169 C176 0.930 . S
H170 C178 0.930 . S
H171 C172 1.016 . S
C172 H171 1.016 . S
C172 N179 1.286 . S
C173 H168 0.930 . S
C173 C174 1.397 . S
C173 C175 1.371 . S
C174 C173 1.397 . S
C174 C178 1.390 . S
C175 C173 1.371 . S
C175 C176 1.393 1_545 S
C175 N179 1.404 1_545 S
C176 H169 0.930 . S
C176 C175 1.393 1_565 S
C176 C177 1.399 1_565 S
C177 C176 1.399 1_545 S
C177 C178 1.381 . S
C178 H170 0.930 . S
C178 C174 1.390 . S
C178 C177 1.381 . S
N179 C172 1.286 . S
N179 C175 1.404 1_565 S
H180 C185 0.930 . S
H181 C188 0.930 . S
H182 C190 0.930 . S
H183 C184 1.016 . S
C184 H183 1.016 . S
C184 N191 1.286 . S
C185 H180 0.930 . S
C185 C186 1.397 . S
C185 C187 1.361 . S
C186 C185 1.397 . S
C186 C190 1.390 . S
C187 C185 1.361 . S
C187 C188 1.393 . S
C187 N191 1.413 . S
C188 H181 0.930 . S
C188 C187 1.393 . S
C188 C189 1.399 . S
C189 C188 1.399 . S
C189 C190 1.381 . S
C190 H182 0.930 . S
C190 C186 1.390 . S
C190 C189 1.381 . S
N191 C184 1.286 . S
N191 C187 1.413 . S
H192 C200 0.950 . S
H193 C205 0.950 . S
H194 C202 0.950 . S
H195 C204 0.950 . S
H196 C206 0.950 . S
H197 C208 0.950 . S
H198 C210 0.950 . S
H199 C211 0.950 . S
C200 H192 0.950 . S
C200 C201 1.386 . S
C200 C202 1.391 . S
C201 C200 1.386 . S
C201 C205 1.393 . S
C202 H194 0.950 . S
C202 C200 1.391 . S
C202 C203 1.400 . S
C203 C202 1.400 . S
C203 C204 1.398 . S
C203 C209 1.491 . S
C204 H195 0.950 . S
C204 C203 1.398 . S
C204 C205 1.391 . S
C205 H193 0.950 . S
C205 C201 1.393 . S
C205 C204 1.391 . S
C206 H196 0.950 . S
C206 C207 1.386 . S
C206 C208 1.391 . S
C207 C206 1.386 . S
C207 C211 1.393 . S
C208 H197 0.950 . S
C208 C206 1.391 . S
C208 C209 1.400 . S
C209 C203 1.491 . S
C209 C208 1.400 . S
C209 C210 1.398 . S
C210 H198 0.950 . S
C210 C209 1.398 . S
C210 C211 1.391 . S
C211 H199 0.950 . S
C211 C207 1.393 . S
C211 C210 1.391 . S
H212 C220 0.950 . S
H213 C225 0.950 . S
H214 C222 0.950 . S
H215 C224 0.950 . S
H216 C226 0.950 . S
H217 C228 0.950 . S
H218 C230 0.950 . S
H219 C231 0.950 . S
C220 H212 0.950 . S
C220 C221 1.386 . S
C220 C222 1.391 . S
C221 C220 1.386 . S
C221 C225 1.393 . S
C222 H214 0.950 . S
C222 C220 1.391 . S
C222 C223 1.400 . S
C223 C222 1.400 . S
C223 C224 1.398 . S
C223 C229 1.491 . S
C224 H215 0.950 . S
C224 C223 1.398 . S
C224 C225 1.391 . S
C225 H213 0.950 . S
C225 C221 1.393 . S
C225 C224 1.391 . S
C226 H216 0.950 . S
C226 C227 1.386 . S
C226 C228 1.391 . S
C227 C226 1.386 . S
C227 C231 1.393 . S
C228 H217 0.950 . S
C228 C226 1.391 . S
C228 C229 1.400 . S
C229 C223 1.491 . S
C229 C228 1.400 . S
C229 C230 1.398 . S
C230 H218 0.950 . S
C230 C229 1.398 . S
C230 C231 1.391 . S
C231 H219 0.950 . S
C231 C227 1.393 . S
C231 C230 1.391 . S
H232 C240 0.950 . S
H233 C245 0.950 . S
H234 C242 0.950 . S
H235 C244 0.950 . S
H236 C246 0.950 . S
H237 C248 0.950 . S
H238 C250 0.950 . S
H239 C251 0.950 . S
C240 H232 0.950 . S
C240 C241 1.386 . S
C240 C242 1.391 . S
C241 C240 1.386 . S
C241 C245 1.393 . S
C242 H234 0.950 . S
C242 C240 1.391 . S
C242 C243 1.400 . S
C243 C242 1.400 . S
C243 C244 1.398 . S
C243 C249 1.491 . S
C244 H235 0.950 . S
C244 C243 1.398 . S
C244 C245 1.391 . S
C245 H233 0.950 . S
C245 C241 1.393 . S
C245 C244 1.391 . S
C246 H236 0.950 . S
C246 C247 1.386 . S
C246 C248 1.391 . S
C247 C246 1.386 . S
C247 C251 1.393 . S
C248 H237 0.950 . S
C248 C246 1.391 . S
C248 C249 1.400 . S
C249 C243 1.491 . S
C249 C248 1.400 . S
C249 C250 1.398 . S
C250 H238 0.950 . S
C250 C249 1.398 . S
C250 C251 1.391 . S
C251 H239 0.950 . S
C251 C247 1.393 . S
C251 C250 1.391 . S
H252 C260 0.950 . S
H253 C265 0.950 . S
H254 C262 0.950 . S
H255 C264 0.950 . S
H256 C266 0.950 . S
H257 C268 0.950 . S
H258 C270 0.950 . S
H259 C271 0.950 . S
C260 H252 0.950 . S
C260 C261 1.386 . S
C260 C262 1.391 . S
C261 C260 1.386 . S
C261 C265 1.393 . S
C262 H254 0.950 . S
C262 C260 1.391 . S
C262 C263 1.400 . S
C263 C262 1.400 . S
C263 C264 1.398 . S
C263 C269 1.491 . S
C264 H255 0.950 . S
C264 C263 1.398 . S
C264 C265 1.391 . S
C265 H253 0.950 . S
C265 C261 1.393 . S
C265 C264 1.391 . S
C266 H256 0.950 . S
C266 C267 1.386 . S
C266 C268 1.391 . S
C267 C266 1.386 . S
C267 C271 1.393 . S
C268 H257 0.950 . S
C268 C266 1.391 . S
C268 C269 1.400 . S
C269 C263 1.491 . S
C269 C268 1.400 . S
C269 C270 1.398 . S
C270 H258 0.950 . S
C270 C269 1.398 . S
C270 C271 1.391 . S
C271 H259 0.950 . S
C271 C267 1.393 . S
C271 C270 1.391 . S
H272 C280 0.950 . S
H273 C285 0.950 . S
H274 C282 0.950 . S
H275 C284 0.950 . S
H276 C286 0.950 . S
H277 C288 0.950 . S
H278 C290 0.950 . S
H279 C291 0.950 . S
C280 H272 0.950 . S
C280 C281 1.386 . S
C280 C282 1.391 . S
C281 C280 1.386 . S
C281 C285 1.393 . S
C282 H274 0.950 . S
C282 C280 1.391 . S
C282 C283 1.400 . S
C283 C282 1.400 . S
C283 C284 1.398 . S
C283 C289 1.491 . S
C284 H275 0.950 . S
C284 C283 1.398 . S
C284 C285 1.391 . S
C285 H273 0.950 . S
C285 C281 1.393 . S
C285 C284 1.391 . S
C286 H276 0.950 . S
C286 C287 1.386 . S
C286 C288 1.391 . S
C287 C286 1.386 . S
C287 C291 1.393 . S
C288 H277 0.950 . S
C288 C286 1.391 . S
C288 C289 1.400 . S
C289 C283 1.491 . S
C289 C288 1.400 . S
C289 C290 1.398 . S
C290 H278 0.950 . S
C290 C289 1.398 . S
C290 C291 1.391 . S
C291 H279 0.950 . S
C291 C287 1.393 . S
C291 C290 1.391 . S
H292 C300 0.950 . S
H293 C305 0.950 . S
H294 C302 0.950 . S
H295 C304 0.950 . S
H296 C306 0.950 . S
H297 C308 0.950 . S
H298 C310 0.950 . S
H299 C311 0.950 . S
C300 H292 0.950 . S
C300 C301 1.386 . S
C300 C302 1.391 . S
C301 C300 1.386 . S
C301 C305 1.393 . S
C302 H294 0.950 . S
C302 C300 1.391 . S
C302 C303 1.400 . S
C303 C302 1.400 . S
C303 C304 1.398 . S
C303 C309 1.491 . S
C304 H295 0.950 . S
C304 C303 1.398 . S
C304 C305 1.391 . S
C305 H293 0.950 . S
C305 C301 1.393 . S
C305 C304 1.391 . S
C306 H296 0.950 . S
C306 C307 1.386 . S
C306 C308 1.391 . S
C307 C306 1.386 . S
C307 C311 1.393 . S
C308 H297 0.950 . S
C308 C306 1.391 . S
C308 C309 1.400 . S
C309 C303 1.491 . S
C309 C308 1.400 . S
C309 C310 1.398 . S
C310 H298 0.950 . S
C310 C309 1.398 . S
C310 C311 1.391 . S
C311 H299 0.950 . S
C311 C307 1.393 . S
C311 C310 1.391 . S
H312 C320 0.950 . S
H313 C325 0.950 . S
H314 C322 0.950 . S
H315 C324 0.950 . S
H316 C326 0.950 . S
H317 C328 0.950 . S
H318 C330 0.950 . S
H319 C331 0.950 . S
C320 H312 0.950 . S
C320 C321 1.386 . S
C320 C322 1.391 . S
C321 C320 1.386 . S
C321 C325 1.393 . S
C322 H314 0.950 . S
C322 C320 1.391 . S
C322 C323 1.400 . S
C323 C322 1.400 . S
C323 C324 1.398 . S
C323 C329 1.491 . S
C324 H315 0.950 . S
C324 C323 1.398 . S
C324 C325 1.391 . S
C325 H313 0.950 . S
C325 C321 1.393 . S
C325 C324 1.391 . S
C326 H316 0.950 . S
C326 C327 1.386 . S
C326 C328 1.391 . S
C327 C326 1.386 . S
C327 C331 1.393 . S
C328 H317 0.950 . S
C328 C326 1.391 . S
C328 C329 1.400 . S
C329 C323 1.491 . S
C329 C328 1.400 . S
C329 C330 1.398 . S
C330 H318 0.950 . S
C330 C329 1.398 . S
C330 C331 1.391 . S
C331 H319 0.950 . S
C331 C327 1.393 . S
C331 C330 1.391 . S
H332 C340 0.950 . S
H333 C345 0.950 . S
H334 C342 0.950 . S
H335 C344 0.950 . S
H336 C346 0.950 . S
H337 C348 0.950 . S
H338 C350 0.950 . S
H339 C351 0.950 . S
C340 H332 0.950 . S
C340 C341 1.386 . S
C340 C342 1.391 . S
C341 C340 1.386 . S
C341 C345 1.393 . S
C342 H334 0.950 . S
C342 C340 1.391 . S
C342 C343 1.400 . S
C343 C342 1.400 . S
C343 C344 1.398 . S
C343 C349 1.491 . S
C344 H335 0.950 . S
C344 C343 1.398 . S
C344 C345 1.391 . S
C345 H333 0.950 . S
C345 C341 1.393 . S
C345 C344 1.391 . S
C346 H336 0.950 . S
C346 C347 1.386 . S
C346 C348 1.391 . S
C347 C346 1.386 . S
C347 C351 1.393 . S
C348 H337 0.950 . S
C348 C346 1.391 . S
C348 C349 1.400 . S
C349 C343 1.491 . S
C349 C348 1.400 . S
C349 C350 1.398 . S
C350 H338 0.950 . S
C350 C349 1.398 . S
C350 C351 1.391 . S
C351 H339 0.950 . S
C351 C347 1.393 . S
C351 C350 1.391 . S
H352 C360 0.950 . S
H353 C365 0.950 . S
H354 C362 0.950 . S
H355 C364 0.950 . S
H356 C366 0.950 . S
H357 C368 0.950 . S
H358 C370 0.950 . S
H359 C371 0.950 . S
C360 H352 0.950 . S
C360 C361 1.386 . S
C360 C362 1.391 . S
C361 C360 1.386 . S
C361 C365 1.393 . S
C362 H354 0.950 . S
C362 C360 1.391 . S
C362 C363 1.400 . S
C363 C362 1.400 . S
C363 C364 1.398 . S
C363 C369 1.491 . S
C364 H355 0.950 . S
C364 C363 1.398 . S
C364 C365 1.391 . S
C365 H353 0.950 . S
C365 C361 1.393 . S
C365 C364 1.391 . S
C366 H356 0.950 . S
C366 C367 1.386 . S
C366 C368 1.391 1_545 S
C367 C366 1.386 . S
C367 C371 1.393 . S
C368 H357 0.950 . S
C368 C366 1.391 1_565 S
C368 C369 1.400 . S
C369 C363 1.491 . S
C369 C368 1.400 . S
C369 C370 1.398 . S
C370 H358 0.950 . S
C370 C369 1.398 . S
C370 C371 1.391 1_565 S
C371 H359 0.950 . S
C371 C367 1.393 . S
C371 C370 1.391 1_545 S
H372 C380 0.950 . S
H373 C385 0.950 . S
H374 C382 0.950 . S
H375 C384 0.950 . S
H376 C386 0.950 . S
H377 C388 0.950 . S
H378 C390 0.950 . S
H379 C391 0.950 . S
C380 H372 0.950 . S
C380 C381 1.386 . S
C380 C382 1.391 . S
C381 C380 1.386 . S
C381 C385 1.393 . S
C382 H374 0.950 . S
C382 C380 1.391 . S
C382 C383 1.400 . S
C383 C382 1.400 . S
C383 C384 1.398 . S
C383 C389 1.491 . S
C384 H375 0.950 . S
C384 C383 1.398 . S
C384 C385 1.391 . S
C385 H373 0.950 . S
C385 C381 1.393 . S
C385 C384 1.391 . S
C386 H376 0.950 . S
C386 C387 1.386 . S
C386 C388 1.391 . S
C387 C386 1.386 . S
C387 C391 1.393 . S
C388 H377 0.950 . S
C388 C386 1.391 . S
C388 C389 1.400 . S
C389 C383 1.491 . S
C389 C388 1.400 . S
C389 C390 1.398 . S
C390 H378 0.950 . S
C390 C389 1.398 . S
C390 C391 1.391 . S
C391 H379 0.950 . S
C391 C387 1.393 . S
C391 C390 1.391 . S
H392 C400 0.950 . S
H393 C405 0.950 . S
H394 C402 0.950 . S
H395 C404 0.950 . S
H396 C406 0.950 . S
H397 C408 0.950 . S
H398 C410 0.950 . S
H399 C411 0.950 . S
C400 H392 0.950 . S
C400 C401 1.386 . S
C400 C402 1.391 . S
C401 C400 1.386 . S
C401 C405 1.393 . S
C402 H394 0.950 . S
C402 C400 1.391 . S
C402 C403 1.400 . S
C403 C402 1.400 . S
C403 C404 1.398 . S
C403 C409 1.491 . S
C404 H395 0.950 . S
C404 C403 1.398 . S
C404 C405 1.391 . S
C405 H393 0.950 . S
C405 C401 1.393 . S
C405 C404 1.391 . S
C406 H396 0.950 . S
C406 C407 1.386 . S
C406 C408 1.391 . S
C407 C406 1.386 . S
C407 C411 1.393 . S
C408 H397 0.950 . S
C408 C406 1.391 . S
C408 C409 1.400 . S
C409 C403 1.491 . S
C409 C408 1.400 . S
C409 C410 1.398 . S
C410 H398 0.950 . S
C410 C409 1.398 . S
C410 C411 1.391 . S
C411 H399 0.950 . S
C411 C407 1.393 . S
C411 C410 1.391 . S
H412 C420 0.950 . S
H413 C425 0.950 . S
H414 C422 0.950 . S
H415 C424 0.950 . S
H416 C426 0.950 . S
H417 C428 0.950 . S
H418 C430 0.950 . S
H419 C431 0.950 . S
C420 H412 0.950 . S
C420 C421 1.386 . S
C420 C422 1.391 . S
C421 C420 1.386 . S
C421 C425 1.393 . S
C422 H414 0.950 . S
C422 C420 1.391 . S
C422 C423 1.400 . S
C423 C422 1.400 . S
C423 C424 1.398 . S
C423 C429 1.491 . S
C424 H415 0.950 . S
C424 C423 1.398 . S
C424 C425 1.391 . S
C425 H413 0.950 . S
C425 C421 1.393 . S
C425 C424 1.391 . S
C426 H416 0.950 . S
C426 C427 1.386 . S
C426 C428 1.391 . S
C427 C426 1.386 . S
C427 C431 1.393 . S
C428 H417 0.950 . S
C428 C426 1.391 . S
C428 C429 1.400 . S
C429 C423 1.491 . S
C429 C428 1.400 . S
C429 C430 1.398 . S
C430 H418 0.950 . S
C430 C429 1.398 . S
C430 C431 1.391 . S
C431 H419 0.950 . S
C431 C427 1.393 . S
C431 C430 1.391 . S
H432 C440 0.950 . S
H433 C445 0.950 . S
H434 C442 0.950 . S
H435 C444 0.950 1_655 S
H436 C446 0.950 . S
H437 C448 0.950 1_554 S
H438 C450 0.950 . S
H439 C451 0.950 . S
C440 H432 0.950 . S
C440 C441 1.386 . S
C440 C442 1.391 . S
C441 C440 1.386 . S
C441 C445 1.393 . S
C442 H434 0.950 . S
C442 C440 1.391 . S
C442 C443 1.400 . S
C443 C442 1.400 . S
C443 C444 1.398 . S
C443 C449 1.491 . S
C444 H435 0.950 1_455 S
C444 C443 1.398 . S
C444 C445 1.391 . S
C445 H433 0.950 . S
C445 C441 1.393 . S
C445 C444 1.391 . S
C446 H436 0.950 . S
C446 C447 1.386 1_655 S
C446 C448 1.391 . S
C447 C446 1.386 1_455 S
C447 C451 1.393 . S
C448 H437 0.950 1_556 S
C448 C446 1.391 . S
C448 C449 1.400 1_656 S
C449 C443 1.491 . S
C449 C448 1.400 1_454 S
C449 C450 1.398 1_554 S
C450 H438 0.950 . S
C450 C449 1.398 1_556 S
C450 C451 1.391 . S
C451 H439 0.950 . S
C451 C447 1.393 . S
C451 C450 1.391 . S
H452 C460 0.950 . S
H453 C465 0.950 . S
H454 C462 0.950 . S
H455 C464 0.950 . S
H456 C466 0.950 . S
H457 C468 0.950 . S
H458 C470 0.950 . S
H459 C471 0.950 . S
C460 H452 0.950 . S
C460 C461 1.386 . S
C460 C462 1.391 . S
C461 C460 1.386 . S
C461 C465 1.393 . S
C462 H454 0.950 . S
C462 C460 1.391 . S
C462 C463 1.400 . S
C463 C462 1.400 . S
C463 C464 1.398 . S
C463 C469 1.491 . S
C464 H455 0.950 . S
C464 C463 1.398 . S
C464 C465 1.391 . S
C465 H453 0.950 . S
C465 C461 1.393 . S
C465 C464 1.391 . S
C466 H456 0.950 . S
C466 C467 1.386 . S
C466 C468 1.391 . S
C467 C466 1.386 . S
C467 C471 1.393 . S
C468 H457 0.950 . S
C468 C466 1.391 . S
C468 C469 1.400 . S
C469 C463 1.491 . S
C469 C468 1.400 . S
C469 C470 1.398 . S
C470 H458 0.950 . S
C470 C469 1.398 . S
C470 C471 1.391 . S
C471 H459 0.950 . S
C471 C467 1.393 . S
C471 C470 1.391 . S
H472 C480 0.950 . S
H473 C485 0.950 . S
H474 C482 0.950 . S
H475 C484 0.950 . S
H476 C486 0.950 . S
H477 C488 0.950 . S
H478 C490 0.950 . S
H479 C491 0.950 . S
C480 H472 0.950 . S
C480 C481 1.386 . S
C480 C482 1.391 . S
C481 C480 1.386 . S
C481 C485 1.393 . S
C482 H474 0.950 . S
C482 C480 1.391 . S
C482 C483 1.400 . S
C483 C482 1.400 . S
C483 C484 1.398 . S
C483 C489 1.491 . S
C484 H475 0.950 . S
C484 C483 1.398 . S
C484 C485 1.391 . S
C485 H473 0.950 . S
C485 C481 1.393 . S
C485 C484 1.391 . S
C486 H476 0.950 . S
C486 C487 1.386 . S
C486 C488 1.391 . S
C487 C486 1.386 . S
C487 C491 1.393 . S
C488 H477 0.950 . S
C488 C486 1.391 . S
C488 C489 1.400 . S
C489 C483 1.491 . S
C489 C488 1.400 . S
C489 C490 1.398 . S
C490 H478 0.950 . S
C490 C489 1.398 . S
C490 C491 1.391 . S
C491 H479 0.950 . S
C491 C487 1.393 . S
C491 C490 1.391 . S
H492 C500 0.950 . S
H493 C505 0.956 . S
H494 C502 0.950 . S
H495 C504 0.950 . S
H496 C506 0.950 . S
H497 C508 0.950 . S
H498 C510 0.950 . S
H499 C511 0.950 . S
C500 H492 0.950 . S
C500 C501 1.386 . S
C500 C502 1.391 . S
C501 C500 1.386 . S
C501 C505 1.385 1_545 S
C502 H494 0.950 . S
C502 C500 1.391 . S
C502 C503 1.400 . S
C503 C502 1.400 . S
C503 C504 1.398 1_545 S
C503 C509 1.491 . S
C504 H495 0.950 . S
C504 C503 1.398 1_565 S
C504 C505 1.392 . S
C505 H493 0.956 . S
C505 C501 1.385 1_565 S
C505 C504 1.392 . S
C506 H496 0.950 . S
C506 C507 1.386 1_565 S
C506 C508 1.391 . S
C507 C506 1.386 1_545 S
C507 C511 1.393 . S
C508 H497 0.950 . S
C508 C506 1.391 . S
C508 C509 1.400 1_565 S
C509 C503 1.491 . S
C509 C508 1.400 1_545 S
C509 C510 1.398 . S
C510 H498 0.950 . S
C510 C509 1.398 . S
C510 C511 1.391 . S
C511 H499 0.950 . S
C511 C507 1.393 . S
C511 C510 1.391 . S
H512 C520 0.950 . S
H513 C525 0.950 . S
H514 C522 0.950 . S
H515 C524 0.950 . S
H516 C526 0.950 . S
H517 C528 0.950 . S
H518 C530 0.950 . S
H519 C531 0.950 . S
C520 H512 0.950 . S
C520 C521 1.386 . S
C520 C522 1.391 . S
C521 C520 1.386 . S
C521 C525 1.393 . S
C522 H514 0.950 . S
C522 C520 1.391 . S
C522 C523 1.400 . S
C523 C522 1.400 . S
C523 C524 1.398 . S
C523 C529 1.463 1_556 S
C524 H515 0.950 . S
C524 C523 1.398 . S
C524 C525 1.391 . S
C525 H513 0.950 . S
C525 C521 1.393 . S
C525 C524 1.391 . S
C526 H516 0.950 . S
C526 C527 1.386 . S
C526 C528 1.391 . S
C527 C526 1.386 . S
C527 C531 1.393 . S
C528 H517 0.950 . S
C528 C526 1.391 . S
C528 C529 1.414 . S
C529 C523 1.463 1_554 S
C529 C528 1.414 . S
C529 C530 1.413 . S
C530 H518 0.950 . S
C530 C529 1.413 . S
C530 C531 1.391 . S
C531 H519 0.950 . S
C531 C527 1.393 . S
C531 C530 1.391 . S
H532 C540 0.950 . S
H533 C545 0.950 . S
H534 C542 0.950 . S
H535 C544 0.950 . S
H536 C546 0.950 . S
H537 C548 0.950 . S
H538 C550 0.950 . S
H539 C551 0.950 . S
C540 H532 0.950 . S
C540 C541 1.386 . S
C540 C542 1.391 . S
C541 C540 1.386 . S
C541 C545 1.393 . S
C542 H534 0.950 . S
C542 C540 1.391 . S
C542 C543 1.400 . S
C543 C542 1.400 . S
C543 C544 1.398 . S
C543 C549 1.491 . S
C544 H535 0.950 . S
C544 C543 1.398 . S
C544 C545 1.391 . S
C545 H533 0.950 . S
C545 C541 1.393 . S
C545 C544 1.391 . S
C546 H536 0.950 . S
C546 C547 1.386 . S
C546 C548 1.391 . S
C547 C546 1.386 . S
C547 C551 1.393 . S
C548 H537 0.950 . S
C548 C546 1.391 . S
C548 C549 1.400 . S
C549 C543 1.491 . S
C549 C548 1.400 . S
C549 C550 1.398 . S
C550 H538 0.950 . S
C550 C549 1.398 . S
C550 C551 1.391 . S
C551 H539 0.950 . S
C551 C547 1.393 . S
C551 C550 1.391 . S
C201 C19 3.241 . S
C207 C186 3.251 . S
C221 C49 3.137 . S
C227 C160 3.045 . S
C241 C99 3.044 . S
C247 C172 2.977 . S
C261 C9 2.841 . S
C267 C184 2.724 . S
C287 C162 2.884 . S
C281 C59 2.917 . S
C307 C174 2.941 . S
C301 C89 2.981 . S
C321 C55 0.570 . S
C327 C136 0.582 . S
C341 C85 0.588 . S
C347 C150 0.503 . S
C361 C15 0.217 . S
C367 C126 0.286 . S
C387 C138 0.268 . S
C381 C45 0.378 . S
C407 C148 0.337 . S
C401 C95 0.115 . S
C421 C5 0.453 . S
C427 C124 0.355 . S
C447 C153 1.240 1_455 S
C441 C18 1.223 . S
C461 C58 1.173 . S
C467 C129 1.211 . S
C481 C98 1.240 . S
C487 C141 1.265 . S
C507 C177 1.738 . S
C501 C48 1.682 . S
C527 C189 1.825 . S
C521 C88 1.733 . S
C541 C8 1.670 . S
C547 C165 1.792 . S
