# Generated by pormake.
# Topology nom, (4,4)-cn, num edge types: 1
# Building blocks:
#     Node 0, Type 0, BuildingBlock: KUFVIS_clean_linker_0, # of connection points: 4
#     Node 1, Type 0, BuildingBlock: KUFVIS_clean_linker_0, # of connection points: 4
#     Node 2, Type 0, BuildingBlock: KUFVIS_clean_linker_0, # of connection points: 4
#     Node 3, Type 0, BuildingBlock: KUFVIS_clean_linker_0, # of connection points: 4
#     Node 4, Type 0, BuildingBlock: KUFVIS_clean_linker_0, # of connection points: 4
#     Node 5, Type 0, BuildingBlock: KUFVIS_clean_linker_0, # of connection points: 4
#     Node 6, Type 1, BuildingBlock: TATPOV_clean_sbu_0, # of connection points: 4
#     Node 7, Type 1, BuildingBlock: TATPOV_clean_sbu_0, # of connection points: 4
#     Node 8, Type 1, BuildingBlock: TATPOV_clean_sbu_0, # of connection points: 4
#     Node 9, Type 1, BuildingBlock: TATPOV_clean_sbu_0, # of connection points: 4
#     Node 10, Type 1, BuildingBlock: TATPOV_clean_sbu_0, # of connection points: 4
#     Node 11, Type 1, BuildingBlock: TATPOV_clean_sbu_0, # of connection points: 4
#     Edge 12, Type (0, 1), BuildingBlock: MIFKUJ_clean_linker_0, # of connection points: 2
#     Edge 13, Type (0, 1), BuildingBlock: MIFKUJ_clean_linker_0, # of connection points: 2
#     Edge 14, Type (0, 1), BuildingBlock: MIFKUJ_clean_linker_0, # of connection points: 2
#     Edge 15, Type (0, 1), BuildingBlock: MIFKUJ_clean_linker_0, # of connection points: 2
#     Edge 16, Type (0, 1), BuildingBlock: MIFKUJ_clean_linker_0, # of connection points: 2
#     Edge 17, Type (0, 1), BuildingBlock: MIFKUJ_clean_linker_0, # of connection points: 2
#     Edge 18, Type (0, 1), BuildingBlock: MIFKUJ_clean_linker_0, # of connection points: 2
#     Edge 19, Type (0, 1), BuildingBlock: MIFKUJ_clean_linker_0, # of connection points: 2
#     Edge 20, Type (0, 1), BuildingBlock: MIFKUJ_clean_linker_0, # of connection points: 2
#     Edge 21, Type (0, 1), BuildingBlock: MIFKUJ_clean_linker_0, # of connection points: 2
#     Edge 22, Type (0, 1), BuildingBlock: MIFKUJ_clean_linker_0, # of connection points: 2
#     Edge 23, Type (0, 1), BuildingBlock: MIFKUJ_clean_linker_0, # of connection points: 2
#     Edge 24, Type (0, 1), BuildingBlock: MIFKUJ_clean_linker_0, # of connection points: 2
#     Edge 25, Type (0, 1), BuildingBlock: MIFKUJ_clean_linker_0, # of connection points: 2
#     Edge 26, Type (0, 1), BuildingBlock: MIFKUJ_clean_linker_0, # of connection points: 2
#     Edge 27, Type (0, 1), BuildingBlock: MIFKUJ_clean_linker_0, # of connection points: 2
#     Edge 28, Type (0, 1), BuildingBlock: MIFKUJ_clean_linker_0, # of connection points: 2
#     Edge 29, Type (0, 1), BuildingBlock: MIFKUJ_clean_linker_0, # of connection points: 2
#     Edge 30, Type (0, 1), BuildingBlock: MIFKUJ_clean_linker_0, # of connection points: 2
#     Edge 31, Type (0, 1), BuildingBlock: MIFKUJ_clean_linker_0, # of connection points: 2
#     Edge 32, Type (0, 1), BuildingBlock: MIFKUJ_clean_linker_0, # of connection points: 2
#     Edge 33, Type (0, 1), BuildingBlock: MIFKUJ_clean_linker_0, # of connection points: 2
#     Edge 34, Type (0, 1), BuildingBlock: MIFKUJ_clean_linker_0, # of connection points: 2
#     Edge 35, Type (0, 1), BuildingBlock: MIFKUJ_clean_linker_0, # of connection points: 2
# Relax obj value: 0.019
# Max RMSD: 0.117
# Mean RMSD: 0.079
data_MOF--net-nom--node1-TATPOV_clean_sbu_0--node2-KUFVIS_clean_linker_0--edge1-MIFKUJ_clean_linker_0
_symmetry_space_group_name_H-M    P1
_symmetry_Int_Tables_number       1
_symmetry_cell_setting            triclinic
loop_
_symmetry_equiv_pos_as_xyz
'x, y, z'
_cell_length_a     58.737872
_cell_length_b     59.469395
_cell_length_c     59.232803
_cell_angle_alpha  90.624979
_cell_angle_beta   90.55039
_cell_angle_gamma 119.98267
loop_
_atom_site_label
_atom_site_type_symbol
_atom_site_fract_x
_atom_site_fract_y
_atom_site_fract_z
_atom_type_partial_charge
H0 H 0.10715 0.53615 0.33024 0.0
H1 H 0.04005 0.50932 0.28637 0.0
H2 H 0.02992 0.4944 0.35805 0.0
H3 H 0.992 0.49541 0.34985 0.0
H4 H 0.92617 0.44745 0.3063 0.0
H5 H 1.00374 0.46927 0.28471 0.0
C6 C 0.08594 0.52589 0.32797 0.0
C7 C 0.06982 0.51653 0.34682 0.0
C8 C 0.07534 0.52324 0.30626 0.0
C9 C 0.04797 0.51037 0.30318 0.0
C10 C 0.03105 0.49901 0.32167 0.0
C11 C 0.04235 0.50239 0.34355 0.0
C12 C 1.0018 0.48393 0.318 0.0
C13 C 0.98442 0.48409 0.33436 0.0
C14 C 0.95712 0.47084 0.33013 0.0
C15 C 0.94716 0.45706 0.30976 0.0
C16 C 0.96386 0.45679 0.29325 0.0
C17 C 0.99106 0.46993 0.29753 0.0
H18 H 0.5362 0.11138 0.48857 0.0
H19 H 0.51356 0.05052 0.43918 0.0
H20 H 0.52396 0.03767 0.50965 0.0
H21 H 0.49151 0.99737 0.50135 0.0
H22 H 0.48796 0.9397 0.45538 0.0
H23 H 0.52178 0.01822 0.43368 0.0
C24 C 0.53052 0.09139 0.48446 0.0
C25 C 0.52979 0.07514 0.50156 0.0
C26 C 0.52534 0.0828 0.46201 0.0
C27 C 0.51825 0.057 0.45661 0.0
C28 C 0.51687 0.03984 0.47376 0.0
C29 C 0.52356 0.04966 0.4962 0.0
C30 C 0.50871 0.01196 0.46852 0.0
C31 C 0.49629 0.99259 0.48505 0.0
C32 C 0.48958 0.96671 0.48059 0.0
C33 C 0.49442 0.95991 0.45927 0.0
C34 C 0.50534 0.97825 0.44227 0.0
C35 C 0.51281 1.00426 0.44696 0.0
H36 H 0.53629 0.46433 0.63267 0.0
H37 H 0.49939 0.49017 0.68017 0.0
H38 H 0.51454 0.52024 0.61232 0.0
H39 H 0.47311 0.51836 0.62065 0.0
H40 H 0.46341 0.56691 0.66924 0.0
H41 H 0.51129 0.53381 0.68643 0.0
C42 C 0.52758 0.47624 0.63657 0.0
C43 C 0.52661 0.49238 0.62005 0.0
C44 C 0.51798 0.47549 0.65816 0.0
C45 C 0.50694 0.49104 0.66339 0.0
C46 C 0.5052 0.50719 0.64686 0.0
C47 C 0.51498 0.50752 0.62506 0.0
C48 C 0.49397 0.52419 0.65265 0.0
C49 C 0.47781 0.528 0.63706 0.0
C50 C 0.46656 0.54324 0.64315 0.0
C51 C 0.47227 0.55536 0.66445 0.0
C52 C 0.48828 0.55201 0.68003 0.0
C53 C 0.49896 0.53633 0.67419 0.0
H54 H 0.09415 0.53164 0.80232 0.0
H55 H 0.02855 0.48828 0.8444 0.0
H56 H 0.01651 0.50034 0.77403 0.0
H57 H 0.97726 0.465 0.77817 0.0
H58 H 0.91336 0.43916 0.824 0.0
H59 H 0.99164 0.48762 0.84917 0.0
C60 C 0.073 0.52029 0.80411 0.0
C61 C 0.05648 0.51588 0.78545 0.0
C62 C 0.06289 0.51081 0.82524 0.0
C63 C 0.03567 0.49635 0.82798 0.0
C64 C 0.01814 0.49239 0.80971 0.0
C65 C 0.02904 0.50258 0.78838 0.0
C66 C 0.98885 0.47795 0.81322 0.0
C67 C 0.97064 0.46489 0.79516 0.0
C68 C 0.94343 0.45147 0.79908 0.0
C69 C 0.93436 0.44981 0.82103 0.0
C70 C 0.95176 0.46228 0.83907 0.0
C71 C 0.97875 0.47705 0.83504 0.0
H72 H 0.51371 0.9296 0.0026 0.0
H73 H 0.55062 0.99091 0.95506 0.0
H74 H 0.54331 0.00808 0.02517 0.0
H75 H 0.58161 0.04487 0.0182 0.0
H76 H 0.59701 0.10636 0.97304 0.0
H77 H 0.54795 0.02755 0.95036 0.0
C78 C 0.52388 0.9502 -0.00102 0.0
C79 C 0.52854 0.96809 0.01632 0.0
C80 C 0.53123 0.95827 0.9769 0.0
C81 C 0.54444 0.98494 0.97218 0.0
C82 C 0.54949 1.00359 0.98956 0.0
C83 C 0.54083 0.99464 0.01162 0.0
C84 C 0.56316 0.03217 0.9848 0.0
C85 C 0.57866 0.05084 0.00175 0.0
C86 C 0.5908 0.07752 -0.00258 0.0
C87 C 0.58765 0.0857 0.97626 0.0
C88 C 0.57233 0.06784 0.95932 0.0
C89 C 0.56027 0.04112 0.96349 0.0
H90 H 0.50821 0.59949 0.14906 0.0
H91 H 0.52113 0.55491 0.19856 0.0
H92 H 0.51842 0.53656 0.12711 0.0
H93 H 0.54639 0.52369 0.13694 0.0
H94 H 0.53909 0.46387 0.18051 0.0
H95 H 0.51057 0.51397 0.20252 0.0
C96 C 0.51265 0.58433 0.15315 0.0
C97 C 0.51451 0.56943 0.13569 0.0
C98 C 0.51434 0.57877 0.17576 0.0
C99 C 0.51912 0.55843 0.18098 0.0
C100 C 0.52152 0.54316 0.16355 0.0
C101 C 0.51832 0.54859 0.1409 0.0
C102 C 0.52678 0.52136 0.16866 0.0
C103 C 0.53921 0.5134 0.15256 0.0
C104 C 0.54275 0.49209 0.1565 0.0
C105 C 0.53499 0.47938 0.17702 0.0
C106 C 0.52416 0.48768 0.19384 0.0
C107 C 0.51968 0.50836 0.18953 0.0
Zn108 Zn 0.6808 0.44953 0.39775 0.0
Zn109 Zn 0.65377 0.39971 0.40492 0.0
O110 O 0.69362 0.40979 0.40532 0.0
O111 O 0.71561 0.45248 0.40418 0.0
O112 O 0.63396 0.36035 0.40933 0.0
O113 O 0.6615 0.45592 0.4223 0.0
O114 O 0.64163 0.41464 0.4313 0.0
C115 C 0.71543 0.43123 0.40582 0.0
C116 C 0.64606 0.42306 0.36116 0.0
O117 O 0.63851 0.40411 0.37463 0.0
O118 O 0.66608 0.44473 0.36618 0.0
C119 C 0.64314 0.3462 0.40228 0.0
O120 O 0.6658 0.35722 0.39197 0.0
C121 C 0.64581 0.43767 0.43473 0.0
Zn122 Zn 0.24321 0.68742 0.56646 0.0
Zn123 Zn 0.27121 0.66433 0.57303 0.0
O124 O 0.29918 0.7036 0.56851 0.0
O125 O 0.27533 0.72242 0.5645 0.0
O126 O 0.29306 0.64697 0.57873 0.0
O127 O 0.2247 0.67438 0.59572 0.0
O128 O 0.24775 0.65495 0.60136 0.0
C129 C 0.29763 0.72407 0.56557 0.0
C130 C 0.2315 0.64731 0.53348 0.0
O131 O 0.2484 0.64454 0.54496 0.0
O132 O 0.22663 0.66516 0.53872 0.0
C133 C 0.31113 0.64947 0.56552 0.0
O134 O 0.31612 0.66399 0.54764 0.0
C135 C 0.22998 0.65997 0.6076 0.0
Zn136 Zn 0.56917 0.24253 0.73857 0.0
Zn137 Zn 0.62138 0.26944 0.73846 0.0
O138 O 0.60973 0.29755 0.73861 0.0
O139 O 0.56675 0.27473 0.74198 0.0
O140 O 0.66138 0.29005 0.73815 0.0
O141 O 0.56984 0.22325 0.76584 0.0
O142 O 0.61306 0.24633 0.76674 0.0
C143 C 0.58757 0.2965 0.74064 0.0
C144 C 0.59045 0.23246 0.69898 0.0
O145 O 0.61222 0.24759 0.70905 0.0
O146 O 0.56898 0.22798 0.70763 0.0
C147 C 0.67472 0.31216 0.74786 0.0
O148 O 0.6623 0.32217 0.7586 0.0
C149 C 0.59159 0.22859 0.77493 0.0
Zn150 Zn 0.35497 0.58935 0.91248 0.0
Zn151 Zn 0.37902 0.64006 0.91052 0.0
O152 O 0.33864 0.62754 0.90814 0.0
O153 O 0.31927 0.58521 0.91237 0.0
O154 O 0.39613 0.67952 0.91088 0.0
O155 O 0.37221 0.59013 0.94164 0.0
O156 O 0.39328 0.63278 0.94042 0.0
C157 C 0.31772 0.60544 0.90967 0.0
C158 C 0.38867 0.60901 0.87412 0.0
O159 O 0.39376 0.63103 0.8823 0.0
O160 O 0.37219 0.58835 0.88367 0.0
C161 C 0.42097 0.69444 0.91143 0.0
O162 O 0.43618 0.68409 0.91122 0.0
C163 C 0.38867 0.61192 0.95023 0.0
Zn164 Zn 0.78405 0.44509 0.07326 0.0
Zn165 Zn 0.75648 0.39437 0.06895 0.0
O166 O 0.72795 0.40532 0.0744 0.0
O167 O 0.75217 0.44766 0.07917 0.0
O168 O 0.73634 0.35503 0.0642 0.0
O169 O 0.79816 0.44973 0.04226 0.0
O170 O 0.77765 0.40713 0.03921 0.0
C171 C 0.72979 0.42737 0.07834 0.0
C172 C 0.8001 0.42007 0.10531 0.0
O173 O 0.78107 0.39954 0.09641 0.0
O174 O 0.80534 0.44216 0.09834 0.0
C175 C 0.71344 0.33948 0.07137 0.0
O176 O 0.70083 0.34883 0.08274 0.0
C177 C 0.79305 0.42946 0.03111 0.0
Zn178 Zn 0.34527 0.77979 0.22647 0.0
Zn179 Zn 0.37386 0.7563 0.2284 0.0
O180 O 0.33464 0.72637 0.22889 0.0
O181 O 0.31134 0.74595 0.22644 0.0
O182 O 0.39473 0.73737 0.22852 0.0
O183 O 0.36196 0.79656 0.19731 0.0
O184 O 0.38661 0.77837 0.19949 0.0
C185 C 0.31235 0.72526 0.22788 0.0
C186 C 0.38072 0.79599 0.26514 0.0
O187 O 0.38714 0.78008 0.25685 0.0
O188 O 0.36285 0.79872 0.25565 0.0
C189 C 0.38758 0.71658 0.23936 0.0
O190 O 0.36608 0.70701 0.2513 0.0
C191 C 0.38012 0.79331 0.1895 0.0
H192 H 0.11382 0.51392 0.29264 0.0
H193 H 0.15227 0.54296 0.27069 0.0
H194 H 0.11813 0.59101 0.25702 0.0
H195 H 0.07938 0.56173 0.27894 0.0
H196 H 0.15142 0.58935 0.22091 0.0
H197 H 0.15436 0.60866 0.30075 0.0
H198 H 0.14771 0.59606 0.34069 0.0
H199 H 0.20265 0.56864 0.33515 0.0
H200 H 0.20962 0.58116 0.29516 0.0
H201 H 0.2627 0.71606 0.21938 0.0
H202 H 0.22126 0.6762 0.22512 0.0
H203 H 0.26345 0.63749 0.24551 0.0
H204 H 0.30534 0.67764 0.23988 0.0
H205 H 0.2263 0.63124 0.27567 0.0
H206 H 0.22886 0.62104 0.19577 0.0
H207 H 0.23373 0.6343 0.15601 0.0
H208 H 0.1673 0.64569 0.16123 0.0
H209 H 0.16225 0.63285 0.20113 0.0
C210 C 0.11407 0.53009 0.28417 0.0
C211 C 0.09377 0.53572 0.28752 0.0
C212 C 0.13604 0.54669 0.27169 0.0
C213 C 0.1382 0.56932 0.26253 0.0
C214 C 0.11679 0.5736 0.26392 0.0
C215 C 0.09466 0.55687 0.27638 0.0
C216 C 0.16423 0.59037 0.25523 0.0
C217 C 0.1678 0.59866 0.23282 0.0
C218 C 0.18564 0.60225 0.27075 0.0
C219 C 0.18235 0.59564 0.29499 0.0
C220 C 0.16497 0.5999 0.30808 0.0
C221 C 0.16113 0.59276 0.33072 0.0
C222 C 0.17459 0.58138 0.34046 0.0
C223 C 0.19216 0.57739 0.32762 0.0
C224 C 0.19615 0.5846 0.30498 0.0
C225 C 0.26328 0.69903 0.22483 0.0
C226 C 0.2874 0.70012 0.22929 0.0
C227 C 0.23949 0.67614 0.22795 0.0
C228 C 0.23919 0.65375 0.23556 0.0
C229 C 0.26322 0.65453 0.23953 0.0
C230 C 0.28713 0.67746 0.23626 0.0
C231 C 0.2138 0.63041 0.24118 0.0
C232 C 0.2102 0.62175 0.26349 0.0
C233 C 0.19239 0.61851 0.22554 0.0
C234 C 0.1953 0.62616 0.20151 0.0
C235 C 0.21541 0.62656 0.1885 0.0
C236 C 0.21818 0.63397 0.16592 0.0
C237 C 0.20086 0.64088 0.15611 0.0
C238 C 0.1807 0.64034 0.16885 0.0
C239 C 0.17786 0.63296 0.19144 0.0
H240 H 0.20304 0.64661 0.13863 0.0
H241 H 0.1714 0.57573 0.35795 0.0
H242 H 0.56618 0.10544 0.43348 0.0
H243 H 0.58311 0.14861 0.41736 0.0
H244 H 0.51319 0.1492 0.4379 0.0
H245 H 0.49641 0.10614 0.45424 0.0
H246 H 0.53555 0.17702 0.39666 0.0
H247 H 0.55888 0.17248 0.47354 0.0
H248 H 0.57533 0.15678 0.50453 0.0
H249 H 0.65031 0.18865 0.47268 0.0
H250 H 0.63413 0.2042 0.44129 0.0
H251 H 0.59186 0.31491 0.4149 0.0
H252 H 0.5686 0.26773 0.42001 0.0
H253 H 0.63876 0.26589 0.40261 0.0
H254 H 0.66199 0.31281 0.39726 0.0
H255 H 0.61501 0.23821 0.4415 0.0
H256 H 0.59047 0.24507 0.36507 0.0
H257 H 0.57223 0.26042 0.33523 0.0
H258 H 0.49766 0.22464 0.36808 0.0
H259 H 0.51557 0.20939 0.39831 0.0
C260 C 0.55385 0.11421 0.43345 0.0
C261 C 0.5299 0.10242 0.44484 0.0
C262 C 0.56363 0.13898 0.42447 0.0
C263 C 0.54956 0.15225 0.42673 0.0
C264 C 0.52434 0.1393 0.43593 0.0
C265 C 0.51467 0.11464 0.44511 0.0
C266 C 0.56277 0.18068 0.42297 0.0
C267 C 0.5528 0.19044 0.40653 0.0
C268 C 0.58524 0.19819 0.43593 0.0
C269 C 0.5952 0.18924 0.45493 0.0
C270 C 0.57881 0.17596 0.47305 0.0
C271 C 0.58808 0.16711 0.4907 0.0
C272 C 0.61382 0.17163 0.49053 0.0
C273 C 0.63036 0.18511 0.47275 0.0
C274 C 0.62115 0.19396 0.45503 0.0
C275 C 0.60232 0.30445 0.41215 0.0
C276 C 0.62879 0.31767 0.40564 0.0
C277 C 0.58897 0.27747 0.41498 0.0
C278 C 0.6019 0.26324 0.41156 0.0
C279 C 0.62837 0.27644 0.40531 0.0
C280 C 0.64161 0.30329 0.4022 0.0
C281 C 0.58811 0.23467 0.41487 0.0
C282 C 0.59787 0.22485 0.43145 0.0
C283 C 0.56526 0.21723 0.40225 0.0
C284 C 0.55445 0.22634 0.38408 0.0
C285 C 0.57025 0.24068 0.36605 0.0
C286 C 0.55996 0.24932 0.34904 0.0
C287 C 0.53383 0.24357 0.34979 0.0
C288 C 0.51791 0.22911 0.36753 0.0
C289 C 0.52812 0.22045 0.3846 0.0
H290 H 0.52589 0.25027 0.3366 0.0
H291 H 0.62097 0.16476 0.5042 0.0
H292 H 0.41639 0.52969 0.65244 0.0
H293 H 0.38892 0.54375 0.63311 0.0
H294 H 0.44726 0.57882 0.58151 0.0
H295 H 0.47517 0.56504 0.60132 0.0
H296 H 0.43428 0.61259 0.59789 0.0
H297 H 0.38552 0.52594 0.5694 0.0
H298 H 0.36186 0.47814 0.57073 0.0
H299 H 0.30519 0.47944 0.61517 0.0
H300 H 0.32872 0.52728 0.61438 0.0
H301 H 0.35275 0.653 0.54207 0.0
H302 H 0.37803 0.63139 0.54991 0.0
H303 H 0.32949 0.59419 0.60723 0.0
H304 H 0.30396 0.61558 0.59942 0.0
H305 H 0.33829 0.56035 0.58248 0.0
H306 H 0.39024 0.64675 0.61436 0.0
H307 H 0.41419 0.6946 0.61366 0.0
H308 H 0.46509 0.69333 0.56273 0.0
H309 H 0.44118 0.64542 0.56292 0.0
C310 C 0.42299 0.53976 0.63661 0.0
C311 C 0.44782 0.54622 0.62829 0.0
C312 C 0.40725 0.54775 0.62552 0.0
C313 C 0.41587 0.56226 0.60573 0.0
C314 C 0.44014 0.5676 0.59672 0.0
C315 C 0.45596 0.55952 0.60788 0.0
C316 C 0.4007 0.57395 0.59602 0.0
C317 C 0.41341 0.60105 0.59397 0.0
C318 C 0.37331 0.55906 0.59145 0.0
C319 C 0.359 0.53025 0.59193 0.0
C320 C 0.36812 0.51606 0.57959 0.0
C321 C 0.35471 0.48894 0.58023 0.0
C322 C 0.33206 0.47576 0.59305 0.0
C323 C 0.32274 0.48967 0.60524 0.0
C324 C 0.33609 0.51679 0.60467 0.0
C325 C 0.34739 0.6402 0.55634 0.0
C326 C 0.32636 0.63615 0.57018 0.0
C327 C 0.36193 0.62789 0.56082 0.0
C328 C 0.35582 0.6113 0.57927 0.0
C329 C 0.33457 0.60688 0.59289 0.0
C330 C 0.32006 0.61924 0.58846 0.0
C331 C 0.37184 0.59892 0.58469 0.0
C332 C 0.35925 0.57176 0.58601 0.0
C333 C 0.39935 0.61373 0.58858 0.0
C334 C 0.41372 0.64251 0.58846 0.0
C335 C 0.40639 0.65667 0.60287 0.0
C336 C 0.41998 0.6838 0.60259 0.0
C337 C 0.44109 0.697 0.5881 0.0
C338 C 0.4487 0.68308 0.57391 0.0
C339 C 0.43514 0.65595 0.5741 0.0
H340 H 0.4516 0.71801 0.58792 0.0
H341 H 0.32171 0.45477 0.59353 0.0
H342 H 0.91377 0.47035 0.7823 0.0
H343 H 0.86986 0.44426 0.76541 0.0
H344 H 0.88195 0.37868 0.75992 0.0
H345 H 0.92589 0.40473 0.77747 0.0
H346 H 0.84616 0.39155 0.72194 0.0
H347 H 0.85702 0.36919 0.79919 0.0
H348 H 0.87287 0.37909 0.83874 0.0
H349 H 0.83387 0.42332 0.84737 0.0
H350 H 0.81873 0.41456 0.80764 0.0
H351 H 0.70714 0.29671 0.7284 0.0
H352 H 0.75532 0.31944 0.72977 0.0
H353 H 0.75644 0.38223 0.76786 0.0
H354 H 0.70852 0.35962 0.76679 0.0
H355 H 0.78684 0.36679 0.78748 0.0
H356 H 0.77417 0.38828 0.71203 0.0
H357 H 0.75701 0.37899 0.67284 0.0
H358 H 0.7974 0.33671 0.66055 0.0
H359 H 0.81451 0.34545 0.69979 0.0
C360 C 0.9076 0.45079 0.77637 0.0
C361 C 0.92325 0.43959 0.78091 0.0
C362 C 0.88246 0.43586 0.76687 0.0
C363 C 0.87265 0.40954 0.76157 0.0
C364 C 0.8893 0.39903 0.76377 0.0
C365 C 0.91444 0.41394 0.77362 0.0
C366 C 0.84391 0.39245 0.75814 0.0
C367 C 0.83311 0.38564 0.73622 0.0
C368 C 0.82696 0.38529 0.77676 0.0
C369 C 0.83713 0.39159 0.80034 0.0
C370 C 0.85236 0.38154 0.80937 0.0
C371 C 0.86116 0.38688 0.83185 0.0
C372 C 0.85449 0.40192 0.84554 0.0
C373 C 0.83923 0.41185 0.83673 0.0
C374 C 0.8306 0.40677 0.81422 0.0
C375 C 0.71766 0.31544 0.73694 0.0
C376 C 0.70392 0.32626 0.7476 0.0
C377 C 0.74523 0.32848 0.7376 0.0
C378 C 0.75956 0.35263 0.74883 0.0
C379 C 0.74584 0.36361 0.75912 0.0
C380 C 0.71839 0.35063 0.75849 0.0
C381 C 0.78872 0.36593 0.75121 0.0
C382 C 0.79971 0.37223 0.77307 0.0
C383 C 0.80565 0.37253 0.73249 0.0
C384 C 0.79536 0.36725 0.70893 0.0
C385 C 0.77919 0.37679 0.70104 0.0
C386 C 0.76952 0.37167 0.6788 0.0
C387 C 0.77604 0.3572 0.66424 0.0
C388 C 0.79232 0.34787 0.67186 0.0
C389 C 0.80202 0.35292 0.69409 0.0
H390 H 0.76854 0.35326 0.64702 0.0
H391 H 0.86091 0.40562 0.86303 0.0
H392 H 0.55958 0.937 0.96054 0.0
H393 H 0.54112 0.89399 0.94224 0.0
H394 H 0.46521 0.88864 0.93807 0.0
H395 H 0.48373 0.93159 0.9562 0.0
H396 H 0.46448 0.8489 0.96169 0.0
H397 H 0.49572 0.88955 0.8906 0.0
H398 H 0.52843 0.91966 0.86392 0.0
H399 H 0.57446 0.88257 0.8732 0.0
H400 H 0.5422 0.85244 0.90021 0.0
H401 H 0.39537 0.72236 0.91381 0.0
H402 H 0.41477 0.76931 0.91893 0.0
H403 H 0.49238 0.77848 0.91882 0.0
H404 H 0.47317 0.73158 0.91341 0.0
H405 H 0.49173 0.81681 0.89547 0.0
H406 H 0.46376 0.77902 0.9681 0.0
H407 H 0.43296 0.74961 -0.00371 0.0
H408 H 0.383 0.78222 0.98579 0.0
H409 H 0.41335 0.81161 0.95729 0.0
C410 C 0.53931 0.92714 0.95465 0.0
C411 C 0.52316 0.93774 0.95931 0.0
C412 C 0.52869 0.90249 0.94437 0.0
C413 C 0.50172 0.88802 0.93884 0.0
C414 C 0.48604 0.89943 0.94214 0.0
C415 C 0.49668 0.92408 0.95225 0.0
C416 C 0.48922 0.85996 0.93257 0.0
C417 C 0.47007 0.84193 0.94693 0.0
C418 C 0.49719 0.85079 0.91381 0.0
C419 C 0.51666 0.86889 0.89761 0.0
C420 C 0.51294 0.88796 0.88712 0.0
C421 C 0.53138 0.905 0.8719 0.0
C422 C 0.55355 0.90307 0.86691 0.0
C423 C 0.55729 0.88405 0.8771 0.0
C424 C 0.53892 0.86697 0.89235 0.0
C425 C 0.41658 0.73435 0.91473 0.0
C426 C 0.43268 0.72311 0.91336 0.0
C427 C 0.42766 0.76122 0.91772 0.0
C428 C 0.45507 0.77747 0.91955 0.0
C429 C 0.4712 0.7664 0.91748 0.0
C430 C 0.46015 0.73952 0.91448 0.0
C431 C 0.46683 0.80581 0.92451 0.0
C432 C 0.48594 0.82384 0.91006 0.0
C433 C 0.45907 0.81508 0.94337 0.0
C434 C 0.44067 0.79729 0.96036 0.0
C435 C 0.44608 0.77975 0.97164 0.0
C436 C 0.42873 0.76312 0.98771 0.0
C437 C 0.406 0.76399 0.99278 0.0
C438 C 0.40059 0.78153 0.98182 0.0
C439 C 0.41786 0.79819 0.96571 0.0
H440 H 0.39261 0.75112 0.00525 0.0
H441 H 0.56779 0.91627 0.85512 0.0
H442 H 0.59039 0.52185 0.13686 0.0
H443 H 0.61643 0.5063 0.11701 0.0
H444 H 0.55206 0.42755 0.12073 0.0
H445 H 0.52617 0.44303 0.1408 0.0
H446 H 0.59546 0.43046 0.13634 0.0
H447 H 0.5719 0.45839 0.06963 0.0
H448 H 0.56583 0.48829 0.04512 0.0
H449 H 0.64881 0.54233 0.04832 0.0
H450 H 0.65536 0.51293 0.07312 0.0
H451 H 0.67762 0.38897 0.08156 0.0
H452 H 0.63983 0.39507 0.08871 0.0
H453 H 0.6915 0.4781 0.09061 0.0
H454 H 0.72878 0.47232 0.08329 0.0
H455 H 0.64799 0.46629 0.06745 0.0
H456 H 0.67011 0.44216 0.13893 0.0
H457 H 0.67659 0.41345 0.16471 0.0
H458 H 0.59648 0.35343 0.15328 0.0
H459 H 0.58964 0.38169 0.12719 0.0
C460 C 0.58154 0.50134 0.13278 0.0
C461 C 0.55628 0.48366 0.14032 0.0
C462 C 0.59643 0.49243 0.12148 0.0
C463 C 0.58619 0.46571 0.1173 0.0
C464 C 0.56041 0.44821 0.12378 0.0
C465 C 0.54561 0.45708 0.13516 0.0
C466 C 0.60321 0.4559 0.10823 0.0
C467 C 0.60653 0.43793 0.12101 0.0
C468 C 0.61791 0.46577 0.08837 0.0
C469 C 0.61409 0.4835 0.07337 0.0
C470 C 0.58884 0.47673 0.06524 0.0
C471 C 0.58531 0.49358 0.05127 0.0
C472 C 0.60691 0.51721 0.0452 0.0
C473 C 0.6321 0.52402 0.05304 0.0
C474 C 0.63573 0.50725 0.06703 0.0
C475 C 0.68082 0.40848 0.08339 0.0
C476 C 0.70629 0.43011 0.08197 0.0
C477 C 0.65925 0.41196 0.08751 0.0
C478 C 0.66284 0.43708 0.0903 0.0
C479 C 0.68815 0.45855 0.08842 0.0
C480 C 0.70955 0.45514 0.08436 0.0
C481 C 0.64079 0.44157 0.09598 0.0
C482 C 0.63652 0.45852 0.08255 0.0
C483 C 0.62532 0.4309 0.11533 0.0
C484 C 0.62949 0.41387 0.13086 0.0
C485 C 0.65396 0.42274 0.14174 0.0
C486 C 0.65768 0.40658 0.15645 0.0
C487 C 0.63699 0.38159 0.16056 0.0
C488 C 0.61251 0.37275 0.15002 0.0
C489 C 0.6087 0.38883 0.13528 0.0
H490 H 0.6399 0.36911 0.17196 0.0
H491 H 0.60414 0.53023 0.03438 0.0
H492 H 0.44473 0.95467 0.50341 0.0
H493 H 0.41719 0.91488 0.5242 0.0
H494 H 0.47507 0.89124 0.51512 0.0
H495 H 0.50235 0.93075 0.49408 0.0
H496 H 0.42887 0.85374 0.50199 0.0
H497 H 0.46194 0.90786 0.568 0.0
H498 H 0.473 0.9458 0.5926 0.0
H499 H 0.39149 0.92401 0.5948 0.0
H500 H 0.37996 0.88614 0.56994 0.0
H501 H 0.34906 0.73583 0.56023 0.0
H502 H 0.38706 0.77847 0.55206 0.0
H503 H 0.33769 0.81297 0.55541 0.0
H504 H 0.30009 0.77096 0.56387 0.0
H505 H 0.38428 0.84469 0.57476 0.0
H506 H 0.35264 0.79485 0.50472 0.0
H507 H 0.34119 0.75735 0.47939 0.0
H508 H 0.42038 0.77181 0.48465 0.0
H509 H 0.4322 0.80923 0.51024 0.0
C510 C 0.45189 0.94134 0.50648 0.0
C511 C 0.47565 0.94578 0.49716 0.0
C512 C 0.43614 0.91856 0.51832 0.0
C513 C 0.44404 0.89999 0.52129 0.0
C514 C 0.46847 0.90515 0.513 0.0
C515 C 0.48409 0.92778 0.50107 0.0
C516 C 0.42586 0.8742 0.53105 0.0
C517 C 0.41959 0.85179 0.51816 0.0
C518 C 0.41327 0.87154 0.55192 0.0
C519 C 0.42011 0.89425 0.56695 0.0
C520 C 0.44639 0.91126 0.57359 0.0
C521 C 0.45274 0.93274 0.58761 0.0
C522 C 0.43297 0.93734 0.59522 0.0
C523 C 0.40679 0.92043 0.58888 0.0
C524 C 0.40033 0.89894 0.57484 0.0
C525 C 0.34642 0.75258 0.55949 0.0
C526 C 0.32144 0.74987 0.5625 0.0
C527 C 0.36812 0.77692 0.55474 0.0
C528 C 0.36519 0.79893 0.55286 0.0
C529 C 0.34051 0.79636 0.55677 0.0
C530 C 0.31893 0.77219 0.56148 0.0
C531 C 0.38715 0.8244 0.54556 0.0
C532 C 0.39401 0.84671 0.55882 0.0
C533 C 0.40028 0.82704 0.525 0.0
C534 C 0.39321 0.80461 0.5096 0.0
C535 C 0.36755 0.7899 0.5006 0.0
C536 C 0.361 0.76869 0.48618 0.0
C537 C 0.38003 0.76215 0.48048 0.0
C538 C 0.40565 0.77686 0.48913 0.0
C539 C 0.41229 0.79807 0.50358 0.0
H540 H 0.37492 0.74572 0.46931 0.0
H541 H 0.43793 0.95398 0.60607 0.0
H542 H 0.4938 0.4231 0.65684 0.0
H543 H 0.50713 0.39601 0.67743 0.0
H544 H 0.56376 0.46317 0.71604 0.0
H545 H 0.54998 0.49026 0.69556 0.0
H546 H 0.55492 0.40219 0.67399 0.0
H547 H 0.57768 0.44053 0.76601 0.0
H548 H 0.56216 0.46016 0.79449 0.0
H549 H 0.4856 0.42258 0.76282 0.0
H550 H 0.50056 0.40247 0.73435 0.0
H551 H 0.62251 0.34425 0.72357 0.0
H552 H 0.61405 0.37999 0.71602 0.0
H553 H 0.53858 0.33749 0.74758 0.0
H554 H 0.54688 0.30203 0.75523 0.0
H555 H 0.56079 0.38966 0.75605 0.0
H556 H 0.54304 0.3312 0.69193 0.0
H557 H 0.55498 0.30859 0.66333 0.0
H558 H 0.61497 0.38189 0.63865 0.0
H559 H 0.60359 0.40493 0.66734 0.0
C560 C 0.50837 0.43183 0.67033 0.0
C561 C 0.5207 0.45863 0.67484 0.0
C562 C 0.5162 0.41645 0.68191 0.0
C563 C 0.53663 0.42757 0.69814 0.0
C564 C 0.54783 0.4541 0.70372 0.0
C565 C 0.53986 0.46953 0.69215 0.0
C566 C 0.54769 0.41179 0.70737 0.0
C567 C 0.55631 0.39962 0.69196 0.0
C568 C 0.54967 0.40847 0.73079 0.0
C569 C 0.54036 0.42027 0.7479 0.0
C570 C 0.55752 0.43642 0.76517 0.0
C571 C 0.54882 0.44763 0.7813 0.0
C572 C 0.52294 0.4427 0.78041 0.0
C573 C 0.50568 0.42648 0.76343 0.0
C574 C 0.51428 0.41521 0.74726 0.0
C575 C 0.60443 0.34285 0.72938 0.0
C576 C 0.58521 0.32016 0.73969 0.0
C577 C 0.59958 0.36324 0.72502 0.0
C578 C 0.57551 0.36125 0.73098 0.0
C579 C 0.55725 0.33948 0.74281 0.0
C580 C 0.56198 0.31912 0.74702 0.0
C581 C 0.56772 0.37997 0.72263 0.0
C582 C 0.55979 0.39269 0.73812 0.0
C583 C 0.56595 0.38356 0.69924 0.0
C584 C 0.57269 0.36975 0.68193 0.0
C585 C 0.55891 0.34248 0.68051 0.0
C586 C 0.56555 0.32959 0.66427 0.0
C587 C 0.58578 0.34379 0.64923 0.0
C588 C 0.59935 0.37092 0.65035 0.0
C589 C 0.59281 0.3839 0.66659 0.0
H590 H 0.59089 0.33378 0.63667 0.0
H591 H 0.51625 0.4514 0.79291 0.0
H592 H 0.08195 0.55278 0.85315 0.0
H593 H 0.12408 0.57215 0.87381 0.0
H594 H 0.12996 0.50413 0.85864 0.0
H595 H 0.08807 0.48505 0.83762 0.0
H596 H 0.15017 0.5618 0.90795 0.0
H597 H 0.19256 0.52643 0.8371 0.0
H598 H 0.18154 0.50973 0.79787 0.0
H599 H 0.13969 0.55093 0.78816 0.0
H600 H 0.15119 0.56865 0.82704 0.0
H601 H 0.27321 0.57016 0.93003 0.0
H602 H 0.22817 0.55924 0.92102 0.0
H603 H 0.25691 0.62173 0.8736 0.0
H604 H 0.3024 0.63307 0.88289 0.0
H605 H 0.22009 0.57328 0.85504 0.0
H606 H 0.22725 0.62663 0.9181 0.0
H607 H 0.23792 0.64342 0.9573 0.0
H608 H 0.18126 0.56854 0.98181 0.0
H609 H 0.17052 0.55118 0.94277 0.0
C610 C 0.09169 0.54152 0.85521 0.0
C611 C 0.08181 0.51738 0.8441 0.0
C612 C 0.1158 0.55263 0.86688 0.0
C613 C 0.13036 0.53978 0.86736 0.0
C614 C 0.11914 0.51447 0.85824 0.0
C615 C 0.09512 0.50345 0.84646 0.0
C616 C 0.15852 0.55418 0.87433 0.0
C617 C 0.16548 0.56427 0.89644 0.0
C618 C 0.17854 0.5581 0.85901 0.0
C619 C 0.17253 0.54865 0.83515 0.0
C620 C 0.18122 0.53215 0.82654 0.0
C621 C 0.1749 0.52252 0.80435 0.0
C622 C 0.15985 0.52921 0.79057 0.0
C623 C 0.15125 0.54569 0.7989 0.0
C624 C 0.15776 0.55563 0.82099 0.0
C625 C 0.26999 0.58199 0.91807 0.0
C626 C 0.29128 0.60243 0.90711 0.0
C627 C 0.24423 0.57577 0.91299 0.0
C628 C 0.23919 0.58967 0.89666 0.0
C629 C 0.26043 0.61082 0.88632 0.0
C630 C 0.28636 0.61738 0.89171 0.0
C631 C 0.21171 0.58014 0.8889 0.0
C632 C 0.20484 0.57097 0.86655 0.0
C633 C 0.19186 0.57721 0.90394 0.0
C634 C 0.19821 0.58755 0.92748 0.0
C635 C 0.21722 0.61368 0.93185 0.0
C636 C 0.22325 0.62331 0.95405 0.0
C637 C 0.21031 0.60705 0.97204 0.0
C638 C 0.19127 0.58112 0.96786 0.0
C639 C 0.18518 0.57138 0.94569 0.0
H640 H 0.215 0.61454 0.98921 0.0
H641 H 0.15487 0.52167 0.77342 0.0
H642 H 0.57097 0.09221 0.03202 0.0
H643 H 0.59301 0.13495 0.051 0.0
H644 H 0.66564 0.15281 0.01898 0.0
H645 H 0.64352 0.11018 -0.00012 0.0
H646 H 0.67332 0.17578 0.06278 0.0
H647 H 0.62762 0.16711 0.99306 0.0
H648 H 0.58966 0.14804 0.96668 0.0
H649 H 0.54664 0.16921 0.01206 0.0
H650 H 0.58427 0.18807 0.03894 0.0
H651 H 0.73572 0.31313 0.05199 0.0
H652 H 0.71545 0.26638 0.04488 0.0
H653 H 0.64325 0.25454 0.07379 0.0
H654 H 0.66335 0.30131 0.08091 0.0
H655 H 0.63453 0.2276 0.03403 0.0
H656 H 0.6828 0.23877 0.10309 0.0
H657 H 0.722 0.25823 0.12816 0.0
H658 H 0.76153 0.2332 0.08241 0.0
H659 H 0.72268 0.2139 0.0569 0.0
C660 C 0.59193 0.10478 0.02997 0.0
C661 C 0.60569 0.09788 0.01477 0.0
C662 C 0.60445 0.12928 0.04061 0.0
C663 C 0.63089 0.14719 0.03615 0.0
C664 C 0.64528 0.13929 0.02271 0.0
C665 C 0.6327 0.1149 0.01192 0.0
C666 C 0.64234 0.17507 0.04256 0.0
C667 C 0.66493 0.18716 0.05645 0.0
C668 C 0.6313 0.18989 0.03434 0.0
C669 C 0.60868 0.17875 0.01814 0.0
C670 C 0.61 0.16753 -0.00249 0.0
C671 C 0.58854 0.15676 0.98246 0.0
C672 C 0.56572 0.15734 0.98771 0.0
C673 C 0.56433 0.16874 0.00803 0.0
C674 C 0.58572 0.17947 0.02319 0.0
C675 C 0.71554 0.30061 0.05689 0.0
C676 C 0.70119 0.31104 0.06707 0.0
C677 C 0.70401 0.27383 0.05291 0.0
C678 C 0.67789 0.25686 0.05902 0.0
C679 C 0.66345 0.26722 0.069 0.0
C680 C 0.67501 0.29399 0.0731 0.0
C681 C 0.66546 0.2284 0.05448 0.0
C682 C 0.64275 0.21621 0.0407 0.0
C683 C 0.67656 0.2136 0.06263 0.0
C684 C 0.6999 0.22509 0.07799 0.0
C685 C 0.69992 0.23759 0.09829 0.0
C686 C 0.72207 0.24856 0.11259 0.0
C687 C 0.74427 0.24701 0.10686 0.0
C688 C 0.74434 0.23441 0.08683 0.0
C689 C 0.72225 0.22343 0.07245 0.0
H690 H 0.76139 0.25551 0.11796 0.0
H691 H 0.54913 0.14901 0.97602 0.0
H692 H 0.53685 0.63111 0.18119 0.0
H693 H 0.51757 0.65402 0.20019 0.0
H694 H 0.45781 0.58182 0.22776 0.0
H695 H 0.4768 0.55868 0.20808 0.0
H696 H 0.43592 0.60424 0.20582 0.0
H697 H 0.50342 0.63373 0.26215 0.0
H698 H 0.5486 0.65276 0.27749 0.0
H699 H 0.56998 0.72466 0.24495 0.0
H700 H 0.52503 0.70596 0.22913 0.0
H701 H 0.37436 0.66894 0.25612 0.0
H702 H 0.39832 0.64532 0.25239 0.0
H703 H 0.45897 0.70898 0.21572 0.0
H704 H 0.43513 0.73281 0.21938 0.0
H705 H 0.47931 0.68883 0.24718 0.0
H706 H 0.4138 0.65722 0.18731 0.0
H707 H 0.3689 0.63822 0.17131 0.0
H708 H 0.34426 0.56995 0.21078 0.0
H709 H 0.38897 0.58872 0.22725 0.0
C710 C 0.52019 0.62029 0.192 0.0
C711 C 0.5083 0.59312 0.19314 0.0
C712 C 0.50915 0.63341 0.20291 0.0
C713 C 0.48615 0.61972 0.21545 0.0
C714 C 0.47552 0.59283 0.21816 0.0
C715 C 0.48657 0.57964 0.20715 0.0
C716 C 0.47146 0.63286 0.22291 0.0
C717 C 0.44527 0.62239 0.2154 0.0
C718 C 0.48378 0.65698 0.2348 0.0
C719 C 0.51085 0.66836 0.24433 0.0
C720 C 0.5178 0.65354 0.25812 0.0
C721 C 0.54336 0.66428 0.26693 0.0
C722 C 0.56215 0.68988 0.26216 0.0
C723 C 0.5554 0.70482 0.24862 0.0
C724 C 0.52986 0.69418 0.23976 0.0
C725 C 0.39287 0.67803 0.24737 0.0
C726 C 0.40273 0.70274 0.23793 0.0
C727 C 0.40653 0.66445 0.24523 0.0
C728 C 0.43035 0.67529 0.23364 0.0
C729 C 0.44064 0.70025 0.22475 0.0
C730 C 0.42691 0.71379 0.22676 0.0
C731 C 0.44401 0.6602 0.22997 0.0
C732 C 0.46994 0.6704 0.23803 0.0
C733 C 0.43151 0.63581 0.21859 0.0
C734 C 0.40463 0.62451 0.20872 0.0
C735 C 0.39875 0.63826 0.19273 0.0
C736 C 0.37335 0.62751 0.18354 0.0
C737 C 0.35372 0.60293 0.19008 0.0
C738 C 0.35947 0.58901 0.20577 0.0
C739 C 0.38484 0.59969 0.21503 0.0
H740 H 0.33406 0.59464 0.18295 0.0
H741 H 0.58194 0.69816 0.269 0.0
H742 H 0.92349 0.48804 0.32041 0.0
H743 H 0.88632 0.48252 0.34242 0.0
H744 H 0.91028 0.45092 0.39695 0.0
H745 H 0.94751 0.45588 0.37436 0.0
H746 H 0.85956 0.42078 0.38846 0.0
H747 H 0.91356 0.51051 0.40305 0.0
H748 H 0.94416 0.55654 0.39503 0.0
H749 H 0.88607 0.55835 0.35173 0.0
H750 H 0.85524 0.51222 0.35922 0.0
H751 H 0.75899 0.46548 0.42957 0.0
H752 H 0.80325 0.47177 0.42691 0.0
H753 H 0.7742 0.40667 0.3801 0.0
H754 H 0.72955 0.39938 0.38404 0.0
H755 H 0.83225 0.48714 0.39435 0.0
H756 H 0.81493 0.38329 0.37418 0.0
H757 H 0.78616 0.33834 0.38644 0.0
H758 H 0.77419 0.36659 0.44966 0.0
H759 H 0.80317 0.41171 0.43792 0.0
C760 C 0.92116 0.48043 0.3373 0.0
C761 C 0.93834 0.47241 0.34573 0.0
C762 C 0.89994 0.47735 0.34993 0.0
C763 C 0.8955 0.46647 0.37147 0.0
C764 C 0.9133 0.4594 0.38039 0.0
C765 C 0.93469 0.46248 0.36763 0.0
C766 C 0.87115 0.46091 0.38357 0.0
C767 C 0.85366 0.43533 0.39003 0.0
C768 C 0.86367 0.48 0.38622 0.0
C769 C 0.88211 0.50782 0.38165 0.0
C770 C 0.90736 0.52066 0.39171 0.0
C771 C 0.92474 0.54679 0.38727 0.0
C772 C 0.91707 0.56035 0.37286 0.0
C773 C 0.89198 0.54782 0.3629 0.0
C774 C 0.87452 0.52169 0.36727 0.0
C775 C 0.76199 0.45207 0.41924 0.0
C776 C 0.74091 0.43192 0.40704 0.0
C777 C 0.78734 0.45575 0.4176 0.0
C778 C 0.79235 0.43978 0.40327 0.0
C779 C 0.771 0.41898 0.3917 0.0
C780 C 0.74543 0.41484 0.39386 0.0
C781 C 0.82005 0.44669 0.39858 0.0
C782 C 0.83818 0.47258 0.39335 0.0
C783 C 0.82833 0.42802 0.39778 0.0
C784 C 0.8111 0.40091 0.40508 0.0
C785 C 0.80629 0.37992 0.39075 0.0
C786 C 0.78991 0.3544 0.3976 0.0
C787 C 0.77831 0.34961 0.41879 0.0
C788 C 0.78312 0.37033 0.43322 0.0
C789 C 0.79949 0.39588 0.42646 0.0
H790 H 0.76561 0.32984 0.42405 0.0
H791 H 0.93056 0.58058 0.36945 0.0
H792 H 0.11007 0.56301 0.36141 0.0
H793 H 0.13495 0.5733 0.39671 0.0
H794 H 0.0824 0.49625 0.42042 0.0
H795 H 0.05792 0.48514 0.38411 0.0
H796 H 0.09613 0.54188 0.45189 0.0
H797 H 0.13395 0.50232 0.40933 0.0
H798 H 0.15271 0.49194 0.37654 0.0
H799 H 0.2177 0.57006 0.37713 0.0
H800 H 0.19881 0.58128 0.40929 0.0
H801 H 0.2295 0.60145 0.52153 0.0
H802 H 0.19873 0.56826 0.49447 0.0
H803 H 0.16633 0.61719 0.47801 0.0
H804 H 0.19658 0.65009 0.50478 0.0
H805 H 0.19091 0.56909 0.44936 0.0
H806 H 0.10148 0.5824 0.47158 0.0
H807 H 0.08328 0.59177 0.50539 0.0
H808 H 0.12143 0.56186 0.54769 0.0
H809 H 0.13952 0.5519 0.51412 0.0
C810 C 0.10394 0.54804 0.37393 0.0
C811 C 0.08242 0.52302 0.36968 0.0
C812 C 0.11812 0.55403 0.39416 0.0
C813 C 0.11081 0.53538 0.41093 0.0
C814 C 0.08846 0.51078 0.40748 0.0
C815 C 0.07443 0.50454 0.38686 0.0
C816 C 0.12684 0.54249 0.43197 0.0
C817 C 0.11675 0.54746 0.45153 0.0
C818 C 0.15358 0.54909 0.43156 0.0
C819 C 0.16479 0.54269 0.41173 0.0
C820 C 0.15201 0.51743 0.40226 0.0
C821 C 0.16269 0.51138 0.38376 0.0
C822 C 0.18636 0.53033 0.37472 0.0
C823 C 0.19936 0.55538 0.38414 0.0
C824 C 0.18861 0.56163 0.40247 0.0
C825 C 0.21597 0.60519 0.51197 0.0
C826 C 0.21541 0.62837 0.51543 0.0
C827 C 0.19833 0.58617 0.49663 0.0
C828 C 0.1798 0.58999 0.4847 0.0
C829 C 0.17996 0.61351 0.48751 0.0
C830 C 0.19748 0.63243 0.50271 0.0
C831 C 0.16059 0.57006 0.46865 0.0
C832 C 0.17013 0.56281 0.45 0.0
C833 C 0.13331 0.56108 0.47002 0.0
C834 C 0.12194 0.56647 0.49028 0.0
C835 C 0.10581 0.5776 0.48806 0.0
C836 C 0.09556 0.58307 0.5072 0.0
C837 C 0.10122 0.57744 0.52867 0.0
C838 C 0.1171 0.56626 0.53105 0.0
C839 C 0.12738 0.56072 0.51197 0.0
H840 H 0.09329 0.58175 0.54345 0.0
H841 H 0.19464 0.52559 0.36044 0.0
H842 H 0.56967 0.08028 0.52931 0.0
H843 H 0.58568 0.10699 0.56414 0.0
H844 H 0.52079 0.12156 0.56006 0.0
H845 H 0.50509 0.09529 0.52539 0.0
H846 H 0.5676 0.16603 0.56303 0.0
H847 H 0.52393 0.0831 0.60039 0.0
H848 H 0.51561 0.03912 0.60876 0.0
H849 H 0.59592 0.07075 0.63069 0.0
H850 H 0.6048 0.11493 0.62215 0.0
H851 H 0.55139 0.21226 0.66715 0.0
H852 H 0.54803 0.18646 0.63366 0.0
H853 H 0.62382 0.19506 0.64951 0.0
H854 H 0.62757 0.22142 0.68313 0.0
H855 H 0.58159 0.14204 0.63977 0.0
H856 H 0.62311 0.22574 0.60716 0.0
H857 H 0.63054 0.26951 0.59937 0.0
H858 H 0.55375 0.23627 0.56855 0.0
H859 H 0.54567 0.19228 0.57648 0.0
C860 C 0.5585 0.08859 0.53633 0.0
C861 C 0.53619 0.08582 0.52484 0.0
C862 C 0.56769 0.10392 0.55609 0.0
C863 C 0.55452 0.11642 0.56454 0.0
C864 C 0.53137 0.11229 0.55371 0.0
C865 C 0.52231 0.09716 0.53404 0.0
C866 C 0.56556 0.13541 0.58359 0.0
C867 C 0.57054 0.16073 0.57984 0.0
C868 C 0.57045 0.1288 0.60525 0.0
C869 C 0.56511 0.10227 0.61035 0.0
C870 C 0.53988 0.08065 0.60678 0.0
C871 C 0.53504 0.05569 0.61161 0.0
C872 C 0.55525 0.05213 0.62017 0.0
C873 C 0.58031 0.07354 0.624 0.0
C874 C 0.58525 0.09853 0.61918 0.0
C875 C 0.56749 0.20891 0.66343 0.0
C876 C 0.58975 0.21887 0.67774 0.0
C877 C 0.56555 0.1942 0.64428 0.0
C878 C 0.58569 0.18892 0.63916 0.0
C879 C 0.6081 0.19898 0.65324 0.0
C880 C 0.61027 0.21413 0.6723 0.0
C881 C 0.5825 0.17222 0.61933 0.0
C882 C 0.57912 0.14743 0.62286 0.0
C883 C 0.57899 0.17924 0.59741 0.0
C884 C 0.58373 0.20568 0.59256 0.0
C885 C 0.60771 0.22775 0.59889 0.0
C886 C 0.61205 0.25261 0.59442 0.0
C887 C 0.59261 0.25567 0.5835 0.0
C888 C 0.56879 0.23387 0.57701 0.0
C889 C 0.56433 0.20896 0.58147 0.0
H890 H 0.59601 0.27494 0.58005 0.0
H891 H 0.55146 0.0328 0.62391 0.0
H892 H 0.47425 0.52561 0.71922 0.0
H893 H 0.4653 0.54102 0.75474 0.0
H894 H 0.49807 0.61799 0.72795 0.0
H895 H 0.50671 0.60255 0.69226 0.0
H896 H 0.50475 0.61293 0.77935 0.0
H897 H 0.44131 0.58869 0.71754 0.0
H898 H 0.41446 0.55944 0.68625 0.0
H899 H 0.37483 0.49716 0.73273 0.0
H900 H 0.40185 0.52599 0.76426 0.0
H901 H 0.42689 0.64838 0.849 0.0
H902 H 0.45034 0.64375 0.81676 0.0
H903 H 0.40568 0.56042 0.82251 0.0
H904 H 0.38203 0.56476 0.85403 0.0
H905 H 0.40763 0.57321 0.78009 0.0
H906 H 0.47013 0.59724 0.84218 0.0
H907 H 0.49834 0.62548 0.87343 0.0
H908 H 0.54012 0.68753 0.82719 0.0
H909 H 0.51191 0.65974 0.7957 0.0
C910 C 0.48062 0.54605 0.72131 0.0
C911 C 0.49101 0.56291 0.70308 0.0
C912 C 0.47545 0.55482 0.74154 0.0
C913 C 0.48086 0.58057 0.74381 0.0
C914 C 0.4939 0.59811 0.72652 0.0
C915 C 0.49875 0.58927 0.70617 0.0
C916 C 0.46825 0.58755 0.76192 0.0
C917 C 0.48357 0.60456 0.77948 0.0
C918 C 0.44065 0.57654 0.76197 0.0
C919 C 0.42376 0.55941 0.7432 0.0
C920 C 0.42699 0.56871 0.72106 0.0
C921 C 0.41175 0.55222 0.70328 0.0
C922 C 0.393 0.52643 0.70748 0.0
C923 C 0.38939 0.51713 0.72949 0.0
C924 C 0.40465 0.53354 0.74733 0.0
C925 C 0.42201 0.6291 0.84327 0.0
C926 C 0.40254 0.60697 0.85411 0.0
C927 C 0.43553 0.62648 0.82496 0.0
C928 C 0.42992 0.60172 0.81734 0.0
C929 C 0.41034 0.57972 0.82802 0.0
C930 C 0.39683 0.58228 0.84613 0.0
C931 C 0.44397 0.59821 0.79811 0.0
C932 C 0.42885 0.58184 0.78008 0.0
C933 C 0.47173 0.60986 0.79775 0.0
C934 C 0.48872 0.62652 0.81665 0.0
C935 C 0.4852 0.61697 0.83872 0.0
C936 C 0.50121 0.63288 0.85646 0.0
C937 C 0.52095 0.65831 0.85231 0.0
C938 C 0.52478 0.66785 0.83039 0.0
C939 C 0.5088 0.65202 0.81259 0.0
H940 H 0.53333 0.67059 0.86607 0.0
H941 H 0.38124 0.51368 0.69369 0.0
H942 H 0.91903 0.41776 0.86046 0.0
H943 H 0.89494 0.41323 0.89509 0.0
H944 H 0.93574 0.49657 0.9038 0.0
H945 H 0.95988 0.50116 0.8689 0.0
H946 H 0.90573 0.42723 0.93923 0.0
H947 H 0.88878 0.51295 0.92114 0.0
H948 H 0.88949 0.53942 0.88906 0.0
H949 H 0.8711 0.47595 0.84319 0.0
H950 H 0.86995 0.44909 0.87508 0.0
H951 H 0.82685 0.47439 0.01034 0.0
H952 H 0.85549 0.48003 0.979 0.0
H953 H 0.82067 0.3969 0.97209 0.0
H954 H 0.79227 0.39105 0.00417 0.0
H955 H 0.84923 0.46731 0.93653 0.0
H956 H 0.86735 0.38226 0.95585 0.0
H957 H 0.86751 0.35684 0.98845 0.0
H958 H 0.88527 0.42112 0.03311 0.0
H959 H 0.88557 0.44702 0.00076 0.0
C960 C 0.92318 0.43508 0.87001 0.0
C961 C 0.94103 0.45981 0.86197 0.0
C962 C 0.9095 0.43248 0.88982 0.0
C963 C 0.91317 0.45456 0.90176 0.0
C964 C 0.93236 0.47928 0.89461 0.0
C965 C 0.94622 0.4819 0.87481 0.0
C966 C 0.89519 0.45151 0.92034 0.0
C967 C 0.89325 0.43586 0.93861 0.0
C968 C 0.87924 0.46315 0.91968 0.0
C969 C 0.87954 0.47908 0.90044 0.0
C970 C 0.8848 0.50463 0.90421 0.0
C971 C 0.88528 0.51971 0.88608 0.0
C972 C 0.88042 0.50941 0.86409 0.0
C973 C 0.87494 0.48395 0.86021 0.0
C974 C 0.87437 0.4688 0.8783 0.0
C975 C 0.82503 0.45721 0.0021 0.0
C976 C 0.8074 0.43223 0.00995 0.0
C977 C 0.84146 0.46051 0.9841 0.0
C978 C 0.84063 0.43895 0.97345 0.0
C979 C 0.82207 0.41387 0.9804 0.0
C980 C 0.80568 0.41053 -0.0014 0.0
C981 C 0.85972 0.44301 0.9555 0.0
C982 C 0.86182 0.45881 0.9373 0.0
C983 C 0.876 0.43174 0.95635 0.0
C984 C 0.87619 0.41645 0.9759 0.0
C985 C 0.87137 0.39098 0.97262 0.0
C986 C 0.87137 0.37649 0.99106 0.0
C987 C 0.8763 0.38732 0.01285 0.0
C988 C 0.88135 0.41271 0.01624 0.0
C989 C 0.88141 0.42729 -0.00214 0.0
H990 H 0.87627 0.37607 0.02709 0.0
H991 H 0.88085 0.52113 0.85007 0.0
H992 H 0.48624 0.96474 0.03755 0.0
H993 H 0.46375 0.9372 0.0697 0.0
H994 H 0.52645 0.91974 0.07732 0.0
H995 H 0.54838 0.94662 0.04471 0.0
H996 H 0.48153 0.87684 0.07477 0.0
H997 H 0.51412 0.95592 0.1178 0.0
H998 H 0.52241 1.00006 0.12645 0.0
H999 H 0.43933 0.97166 0.12722 0.0
H1000 H 0.43053 0.92739 0.11826 0.0
H1001 H 0.42769 0.80159 0.17429 0.0
H1002 H 0.45551 0.83309 0.14625 0.0
H1003 H 0.39518 0.85278 0.13345 0.0
H1004 H 0.36753 0.82176 0.16158 0.0
H1005 H 0.44135 0.89547 0.14033 0.0
H1006 H 0.40891 0.81736 0.09504 0.0
H1007 H 0.40026 0.77325 0.08558 0.0
H1008 H 0.48303 0.80011 0.08872 0.0
H1009 H 0.49215 0.84433 0.09848 0.0
C1010 C 0.49559 0.95576 0.04669 0.0
C1011 C 0.51911 0.95796 0.039 0.0
C1012 C 0.48275 0.93996 0.065 0.0
C1013 C 0.49343 0.9264 0.07602 0.0
C1014 C 0.5178 0.92994 0.06909 0.0
C1015 C 0.53045 0.94548 0.05066 0.0
C1016 C 0.47798 0.90648 0.09303 0.0
C1017 C 0.47319 0.88107 0.08937 0.0
C1018 C 0.46643 0.91175 0.11171 0.0
C1019 C 0.47167 0.93836 0.11718 0.0
C1020 C 0.49761 0.95911 0.11964 0.0
C1021 C 0.50241 0.98416 0.12463 0.0
C1022 C 0.48141 0.98867 0.12733 0.0
C1023 C 0.45558 0.96814 0.12511 0.0
C1024 C 0.45067 0.94306 0.1201 0.0
C1025 C 0.42016 0.81229 0.16521 0.0
C1026 C 0.39542 0.80921 0.17024 0.0
C1027 C 0.43611 0.83033 0.1492 0.0
C1028 C 0.42746 0.84536 0.13777 0.0
C1029 C 0.40237 0.84156 0.14218 0.0
C1030 C 0.38652 0.82369 0.1582 0.0
C1031 C 0.44485 0.86589 0.12196 0.0
C1032 C 0.44994 0.89136 0.12585 0.0
C1033 C 0.45666 0.8607 0.10346 0.0
C1034 C 0.45118 0.83408 0.09774 0.0
C1035 C 0.42525 0.8138 0.09392 0.0
C1036 C 0.42026 0.7888 0.08846 0.0
C1037 C 0.44107 0.78386 0.08662 0.0
C1038 C 0.46692 0.80395 0.09019 0.0
C1039 C 0.47201 0.82899 0.09567 0.0
H1040 H 0.43717 0.7645 0.08237 0.0
H1041 H 0.48517 0.00808 0.13119 0.0
H1042 H 0.54466 0.5136 0.23372 0.0
H1043 H 0.55611 0.49573 0.26611 0.0
H1044 H 0.51108 0.41884 0.23677 0.0
H1045 H 0.49907 0.43649 0.20467 0.0
H1046 H 0.5319 0.45047 0.29863 0.0
H1047 H 0.55956 0.40314 0.22786 0.0
H1048 H 0.56827 0.40788 0.18694 0.0
H1049 H 0.5972 0.48981 0.19301 0.0
H1050 H 0.58914 0.48561 0.23395 0.0
H1051 H 0.59364 0.38871 0.35369 0.0
H1052 H 0.56472 0.39302 0.3261 0.0
H1053 H 0.63185 0.45898 0.29756 0.0
H1054 H 0.66075 0.45478 0.32491 0.0
H1055 H 0.59624 0.42927 0.26502 0.0
H1056 H 0.59737 0.46808 0.33756 0.0
H1057 H 0.59151 0.46755 0.37877 0.0
H1058 H 0.51007 0.40971 0.3702 0.0
H1059 H 0.51557 0.40964 0.32894 0.0
C1060 C 0.53591 0.49273 0.23484 0.0
C1061 C 0.52134 0.47645 0.21656 0.0
C1062 C 0.54257 0.48254 0.25332 0.0
C1063 C 0.53483 0.45606 0.25353 0.0
C1064 C 0.51735 0.43935 0.2368 0.0
C1065 C 0.51048 0.44945 0.2185 0.0
C1066 C 0.54937 0.44713 0.26794 0.0
C1067 C 0.54572 0.4455 0.29133 0.0
C1068 C 0.56777 0.44117 0.25837 0.0
C1069 C 0.57342 0.44398 0.23388 0.0
C1070 C 0.56788 0.42216 0.22045 0.0
C1071 C 0.57272 0.42476 0.19727 0.0
C1072 C 0.5832 0.44912 0.18739 0.0
C1073 C 0.58905 0.47095 0.20068 0.0
C1074 C 0.58431 0.46846 0.22385 0.0
C1075 C 0.60231 0.40365 0.34111 0.0
C1076 C 0.62946 0.42155 0.34159 0.0
C1077 C 0.58573 0.40622 0.32549 0.0
C1078 C 0.5961 0.42661 0.31005 0.0
C1079 C 0.62341 0.44317 0.30938 0.0
C1080 C 0.63991 0.44076 0.32505 0.0
C1081 C 0.57869 0.43228 0.29585 0.0
C1082 C 0.58195 0.43353 0.27238 0.0
C1083 C 0.56035 0.43837 0.30546 0.0
C1084 C 0.55695 0.43863 0.33021 0.0
C1085 C 0.57826 0.45512 0.34449 0.0
C1086 C 0.575 0.45494 0.36785 0.0
C1087 C 0.55045 0.43855 0.37711 0.0
C1088 C 0.52909 0.42236 0.36301 0.0
C1089 C 0.53226 0.42242 0.33964 0.0
H1090 H 0.54797 0.43843 0.3952 0.0
H1091 H 0.58686 0.45111 0.16946 0.0
H1092 H 0.47971 0.98243 0.40578 0.0
H1093 H 0.465 0.95329 0.37269 0.0
H1094 H 0.5135 0.92166 0.39397 0.0
H1095 H 0.52798 0.95057 0.42733 0.0
H1096 H 0.50498 0.92434 0.34273 0.0
H1097 H 0.46091 0.89153 0.4137 0.0
H1098 H 0.44045 0.89553 0.44854 0.0
H1099 H 0.38267 0.90256 0.40908 0.0
H1100 H 0.40315 0.89912 0.37398 0.0
H1101 H 0.42504 0.80151 0.28665 0.0
H1102 H 0.45174 0.83374 0.31596 0.0
H1103 H 0.39704 0.86217 0.31623 0.0
H1104 H 0.37016 0.82994 0.2875 0.0
H1105 H 0.41178 0.85989 0.35791 0.0
H1106 H 0.45546 0.89269 0.28696 0.0
H1107 H 0.47696 0.89101 0.25192 0.0
H1108 H 0.53562 0.88479 0.29075 0.0
H1109 H 0.51425 0.8861 0.32603 0.0
C1110 C 0.48825 0.97022 0.40279 0.0
C1111 C 0.50487 0.96862 0.41906 0.0
C1112 C 0.47973 0.95348 0.38397 0.0
C1113 C 0.48796 0.93517 0.38112 0.0
C1114 C 0.50702 0.93572 0.39589 0.0
C1115 C 0.51528 0.95223 0.41489 0.0
C1116 C 0.47299 0.91262 0.36568 0.0
C1117 C 0.48472 0.91002 0.3461 0.0
C1118 C 0.44657 0.89408 0.37017 0.0
C1119 C 0.43371 0.89533 0.39123 0.0
C1120 C 0.44396 0.89412 0.41245 0.0
C1121 C 0.43236 0.89627 0.43225 0.0
C1122 C 0.41032 0.89937 0.43103 0.0
C1123 C 0.39977 0.9002 0.41 0.0
C1124 C 0.41136 0.89814 0.39015 0.0
C1125 C 0.41853 0.8144 0.2932 0.0
C1126 C 0.39552 0.81321 0.28462 0.0
C1127 C 0.43392 0.83294 0.30981 0.0
C1128 C 0.42662 0.85067 0.31803 0.0
C1129 C 0.40313 0.84878 0.31012 0.0
C1130 C 0.38778 0.83031 0.29362 0.0
C1131 C 0.44348 0.87167 0.33448 0.0
C1132 C 0.43209 0.87399 0.35446 0.0
C1133 C 0.4702 0.88988 0.33029 0.0
C1134 C 0.4831 0.88919 0.30911 0.0
C1135 C 0.47283 0.89077 0.28802 0.0
C1136 C 0.48501 0.88992 0.26812 0.0
C1137 C 0.50759 0.88772 0.26911 0.0
C1138 C 0.51809 0.88644 0.29001 0.0
C1139 C 0.50597 0.88725 0.30996 0.0
H1140 H 0.517 0.88707 0.25369 0.0
H1141 H 0.40137 0.90106 0.44637 0.0
H1142 H 0.57597 0.50164 0.61323 0.0
H1143 H 0.59382 0.49487 0.57856 0.0
H1144 H 0.52279 0.47813 0.54233 0.0
H1145 H 0.50442 0.48421 0.57758 0.0
H1146 H 0.5357 0.44222 0.53273 0.0
H1147 H 0.58123 0.53422 0.5327 0.0
H1148 H 0.60757 0.57875 0.54825 0.0
H1149 H 0.67201 0.56571 0.56152 0.0
H1150 H 0.64593 0.52096 0.54634 0.0
H1151 H 0.63996 0.48005 0.43723 0.0
H1152 H 0.61682 0.49073 0.46525 0.0
H1153 H 0.59643 0.41999 0.50025 0.0
H1154 H 0.61899 0.40861 0.47146 0.0
H1155 H 0.62609 0.50191 0.50676 0.0
H1156 H 0.53992 0.40004 0.52937 0.0
H1157 H 0.51169 0.35739 0.51085 0.0
H1158 H 0.52486 0.39382 0.44638 0.0
H1159 H 0.55287 0.4367 0.46454 0.0
C1160 C 0.56434 0.49697 0.59778 0.0
C1161 C 0.53882 0.4934 0.59804 0.0
C1162 C 0.57459 0.49319 0.57794 0.0
C1163 C 0.55974 0.48612 0.55776 0.0
C1164 C 0.5346 0.48357 0.55772 0.0
C1165 C 0.52424 0.48733 0.57773 0.0
C1166 C 0.57017 0.47995 0.53728 0.0
C1167 C 0.55538 0.45535 0.5269 0.0
C1168 C 0.59569 0.4972 0.52941 0.0
C1169 C 0.61154 0.52416 0.53849 0.0
C1170 C 0.60096 0.54078 0.53907 0.0
C1171 C 0.61586 0.56608 0.5478 0.0
C1172 C 0.64144 0.57504 0.5559 0.0
C1173 C 0.65219 0.55874 0.55524 0.0
C1174 C 0.63737 0.53342 0.54654 0.0
C1175 C 0.63055 0.46665 0.45085 0.0
C1176 C 0.6315 0.44351 0.45219 0.0
C1177 C 0.61728 0.47283 0.4669 0.0
C1178 C 0.60475 0.4562 0.48488 0.0
C1179 C 0.60557 0.43298 0.48633 0.0
C1180 C 0.61861 0.42655 0.46997 0.0
C1181 C 0.59185 0.46393 0.50242 0.0
C1182 C 0.60628 0.48883 0.51235 0.0
C1183 C 0.56575 0.44723 0.50936 0.0
C1184 C 0.5487 0.42155 0.49831 0.0
C1185 C 0.53671 0.39896 0.51126 0.0
C1186 C 0.52076 0.37474 0.50082 0.0
C1187 C 0.51655 0.37289 0.47744 0.0
C1188 C 0.52822 0.39527 0.46447 0.0
C1189 C 0.54416 0.41953 0.47483 0.0
H1190 H 0.50422 0.35412 0.4694 0.0
H1191 H 0.65294 0.59462 0.56266 0.0
H1192 H 0.09499 0.51017 0.76611 0.0
H1193 H 0.12309 0.53506 0.73519 0.0
H1194 H 0.07496 0.56993 0.72386 0.0
H1195 H 0.047 0.54548 0.75555 0.0
H1196 H 0.09247 0.55565 0.68329 0.0
H1197 H 0.12635 0.6037 0.7519 0.0
H1198 H 0.14309 0.61459 0.79111 0.0
H1199 H 0.20569 0.5999 0.77524 0.0
H1200 H 0.18893 0.58822 0.73604 0.0
H1201 H 0.18744 0.66273 0.62193 0.0
H1202 H 0.15651 0.63723 0.65103 0.0
H1203 H 0.2029 0.60151 0.66675 0.0
H1204 H 0.2341 0.62691 0.63736 0.0
H1205 H 0.18542 0.61725 0.70499 0.0
H1206 H 0.14993 0.56849 0.63571 0.0
H1207 H 0.13482 0.56214 0.59596 0.0
H1208 H 0.07585 0.5816 0.61321 0.0
H1209 H 0.09088 0.58848 0.65303 0.0
C1210 C 0.09011 0.52285 0.75683 0.0
C1211 C 0.069 0.52617 0.76342 0.0
C1212 C 0.10624 0.53709 0.73921 0.0
C1213 C 0.10138 0.55468 0.72757 0.0
C1214 C 0.07908 0.55654 0.73281 0.0
C1215 C 0.06303 0.54245 0.75075 0.0
C1216 C 0.12055 0.57192 0.71081 0.0
C1217 C 0.1127 0.56938 0.68805 0.0
C1218 C 0.14706 0.58952 0.71705 0.0
C1219 C 0.15619 0.59481 0.74102 0.0
C1220 C 0.1434 0.60232 0.75683 0.0
C1221 C 0.153 0.6088 0.77904 0.0
C1222 C 0.17556 0.60814 0.78561 0.0
C1223 C 0.18834 0.6006 0.77007 0.0
C1224 C 0.17873 0.59394 0.74788 0.0
C1225 C 0.19133 0.64967 0.63168 0.0
C1226 C 0.21326 0.64681 0.62721 0.0
C1227 C 0.17348 0.63499 0.64823 0.0
C1228 C 0.1772 0.61721 0.66075 0.0
C1229 C 0.19963 0.61505 0.65711 0.0
C1230 C 0.21745 0.62961 0.64036 0.0
C1231 C 0.15745 0.60073 0.67748 0.0
C1232 C 0.1652 0.60345 0.70024 0.0
C1233 C 0.13086 0.58348 0.67126 0.0
C1234 C 0.12172 0.57925 0.64733 0.0
C1235 C 0.1339 0.57164 0.631 0.0
C1236 C 0.12532 0.56791 0.60846 0.0
C1237 C 0.10443 0.57152 0.60206 0.0
C1238 C 0.09205 0.57884 0.61819 0.0
C1239 C 0.10058 0.58264 0.64075 0.0
H1240 H 0.09779 0.56858 0.58461 0.0
H1241 H 0.18303 0.61328 0.80279 0.0
H1242 H 0.58461 0.0585 0.91709 0.0
H1243 H 0.58949 0.084 0.88316 0.0
H1244 H 0.55929 0.12663 0.91933 0.0
H1245 H 0.5543 0.10124 0.95297 0.0
H1246 H 0.55735 0.09512 0.8563 0.0
H1247 H 0.59969 0.19131 0.90917 0.0
H1248 H 0.62514 0.21058 0.94443 0.0
H1249 H 0.65659 0.15921 0.94068 0.0
H1250 H 0.63179 0.13999 0.90517 0.0
H1251 H 0.54907 0.19174 0.79708 0.0
H1252 H 0.54801 0.16267 0.82612 0.0
H1253 H 0.63256 0.19948 0.82519 0.0
H1254 H 0.63388 0.22907 0.79596 0.0
H1255 H 0.61436 0.19033 0.86788 0.0
H1256 H 0.59638 0.1413 0.79969 0.0
H1257 H 0.57473 0.12275 0.76289 0.0
H1258 H 0.50032 0.07956 0.79531 0.0
H1259 H 0.52145 0.09816 0.83229 0.0
C1260 C 0.57828 0.07277 0.91747 0.0
C1261 C 0.56927 0.07811 0.93758 0.0
C1262 C 0.58123 0.08741 0.8982 0.0
C1263 C 0.57533 0.10759 0.89895 0.0
C1264 C 0.56444 0.1115 0.91854 0.0
C1265 C 0.56145 0.09691 0.93767 0.0
C1266 C 0.5819 0.12569 0.87993 0.0
C1267 C 0.56986 0.11591 0.85878 0.0
C1268 C 0.59887 0.15279 0.88305 0.0
C1269 C 0.61373 0.1641 0.90454 0.0
C1270 C 0.61213 0.1842 0.9158 0.0
C1271 C 0.62649 0.19516 0.93581 0.0
C1272 C 0.64257 0.18621 0.94471 0.0
C1273 C 0.64417 0.16616 0.93373 0.0
C1274 C 0.62994 0.15521 0.91367 0.0
C1275 C 0.56754 0.19385 0.80305 0.0
C1276 C 0.59159 0.21269 0.79405 0.0
C1277 C 0.56685 0.17705 0.8196 0.0
C1278 C 0.59014 0.17853 0.82748 0.0
C1279 C 0.61432 0.19788 0.81918 0.0
C1280 C 0.61505 0.2148 0.80253 0.0
C1281 C 0.58892 0.15986 0.84452 0.0
C1282 C 0.602 0.16952 0.86532 0.0
C1283 C 0.5733 0.13265 0.84095 0.0
C1284 C 0.56049 0.12127 0.81876 0.0
C1285 C 0.57537 0.12799 0.79896 0.0
C1286 C 0.56319 0.11744 0.77807 0.0
C1287 C 0.53616 0.10002 0.77676 0.0
C1288 C 0.52126 0.09307 0.79635 0.0
C1289 C 0.53333 0.10358 0.81729 0.0
H1290 H 0.52677 0.09188 0.76056 0.0
H1291 H 0.65375 0.19479 0.96015 0.0
H1292 H 0.53921 0.6158 0.11454 0.0
H1293 H 0.52443 0.62725 0.08001 0.0
H1294 H 0.46412 0.54716 0.07009 0.0
H1295 H 0.47904 0.53561 0.10457 0.0
H1296 H 0.4839 0.57143 0.02982 0.0
H1297 H 0.45092 0.58751 0.0988 0.0
H1298 H 0.45578 0.60659 0.13694 0.0
H1299 H 0.49957 0.6832 0.11002 0.0
H1300 H 0.4954 0.66453 0.07174 0.0
H1301 H 0.37817 0.5714 0.97724 0.0
H1302 H 0.40606 0.56945 0.0068 0.0
H1303 H 0.46153 0.65088 -0.00088 0.0
H1304 H 0.43356 0.6531 0.969 0.0
H1305 H 0.45047 0.63182 0.046 0.0
H1306 H 0.47784 0.61389 0.97539 0.0
H1307 H 0.47094 0.59289 0.93788 0.0
H1308 H 0.43534 0.51799 0.96847 0.0
H1309 H 0.44164 0.53852 0.00617 0.0
C1310 C 0.52328 0.60056 0.1046 0.0
C1311 C 0.51006 0.57488 0.11225 0.0
C1312 C 0.51481 0.60712 0.08497 0.0
C1313 C 0.49282 0.58816 0.07281 0.0
C1314 C 0.48107 0.5621 0.07931 0.0
C1315 C 0.48964 0.55549 0.09893 0.0
C1316 C 0.48027 0.59578 0.05497 0.0
C1317 C 0.47659 0.58461 0.03334 0.0
C1318 C 0.47111 0.61335 0.05954 0.0
C1319 C 0.47311 0.62462 0.08245 0.0
C1320 C 0.46173 0.60842 0.10103 0.0
C1321 C 0.46436 0.61916 0.12267 0.0
C1322 C 0.47803 0.64609 0.12591 0.0
C1323 C 0.48903 0.66234 0.10749 0.0
C1324 C 0.48655 0.65169 0.08582 0.0
C1325 C 0.39614 0.58906 0.98191 0.0
C1326 C 0.40381 0.61237 0.97053 0.0
C1327 C 0.41206 0.58785 -0.00117 0.0
C1328 C 0.43602 0.60988 0.0048 0.0
C1329 C 0.44313 0.63364 0.99457 0.0
C1330 C 0.42713 0.63488 0.97744 0.0
C1331 C 0.45387 0.60722 0.02095 0.0
C1332 C 0.45837 0.61916 0.04232 0.0
C1333 C 0.46358 0.59018 0.01623 0.0
C1334 C 0.46008 0.57775 0.9936 0.0
C1335 C 0.46837 0.59293 0.97412 0.0
C1336 C 0.46459 0.58111 0.95282 0.0
C1337 C 0.45267 0.55412 0.95079 0.0
C1338 C 0.44457 0.5389 0.97007 0.0
C1339 C 0.44828 0.55062 0.99141 0.0
H1340 H 0.44975 0.54501 0.93428 0.0
H1341 H 0.48006 0.65436 0.14268 0.0
H1342 H 0.92129 0.40925 0.283 0.0
H1343 H 0.89551 0.3969 0.2477 0.0
H1344 H 0.9544 0.4676 0.21746 0.0
H1345 H 0.98014 0.4801 0.25272 0.0
H1346 H 0.90492 0.46281 0.21979 0.0
H1347 H 0.94251 0.41093 0.19601 0.0
H1348 H 0.95444 0.37687 0.2 0.0
H1349 H 0.87299 0.31924 0.20608 0.0
H1350 H 0.86058 0.35303 0.20245 0.0
H1351 H 0.85052 0.45641 0.11476 0.0
H1352 H 0.87935 0.45636 0.14439 0.0
H1353 H 0.81826 0.38122 0.16567 0.0
H1354 H 0.78924 0.38072 0.13511 0.0
H1355 H 0.86674 0.38531 0.16882 0.0
H1356 H 0.8284 0.43511 0.19397 0.0
H1357 H 0.8147 0.46804 0.19162 0.0
H1358 H 0.89528 0.52811 0.18588 0.0
H1359 H 0.90944 0.49549 0.18787 0.0
C1360 C 0.92914 0.4217 0.26854 0.0
C1361 C 0.95258 0.44573 0.27062 0.0
C1362 C 0.91444 0.41459 0.24839 0.0
C1363 C 0.92299 0.43143 0.23005 0.0
C1364 C 0.9475 0.45435 0.23146 0.0
C1365 C 0.96228 0.46139 0.25155 0.0
C1366 C 0.90463 0.42742 0.21109 0.0
C1367 C 0.89695 0.44608 0.20839 0.0
C1368 C 0.89321 0.40491 0.19704 0.0
C1369 C 0.90063 0.38457 0.19918 0.0
C1370 C 0.92715 0.39104 0.19841 0.0
C1371 C 0.934 0.37177 0.20056 0.0
C1372 C 0.91449 0.34592 0.20335 0.0
C1373 C 0.88808 0.33927 0.20394 0.0
C1374 C 0.88113 0.35848 0.20181 0.0
C1375 C 0.84313 0.43979 0.12568 0.0
C1376 C 0.81741 0.41877 0.1229 0.0
C1377 C 0.85969 0.43979 0.14261 0.0
C1378 C 0.85077 0.41909 0.15759 0.0
C1379 C 0.82546 0.39748 0.15436 0.0
C1380 C 0.80889 0.39726 0.13702 0.0
C1381 C 0.86768 0.42112 0.17718 0.0
C1382 C 0.87482 0.40205 0.18019 0.0
C1383 C 0.87838 0.44307 0.19191 0.0
C1384 C 0.86996 0.46282 0.1909 0.0
C1385 C 0.84319 0.45532 0.19206 0.0
C1386 C 0.83534 0.47393 0.19081 0.0
C1387 C 0.8541 0.50014 0.18856 0.0
C1388 C 0.88076 0.5078 0.18761 0.0
C1389 C 0.88872 0.48926 0.18882 0.0
H1390 H 0.84798 0.51452 0.18759 0.0
H1391 H 0.91983 0.33102 0.205 0.0
loop_
_geom_bond_atom_site_label_1
_geom_bond_atom_site_label_2
_geom_bond_distance
_geom_bond_site_symmetry_2
_ccdc_geom_bond_type
H0 C6 0.930 . S
H1 C9 0.931 . S
H2 C11 0.931 . S
H3 C13 0.930 . S
H4 C15 0.930 . S
H5 C17 0.931 . S
C6 H0 0.930 . S
C6 C7 1.380 . S
C6 C8 1.394 . S
C7 C6 1.380 . S
C7 C11 1.382 . S
C8 C6 1.394 . S
C8 C9 1.400 . S
C9 H1 0.931 . S
C9 C8 1.400 . S
C9 C10 1.375 . S
C10 C9 1.375 . S
C10 C11 1.415 . S
C10 C12 1.501 1_455 S
C11 H2 0.931 . S
C11 C7 1.382 . S
C11 C10 1.415 . S
C12 C10 1.501 1_655 S
C12 C13 1.384 . S
C12 C17 1.408 . S
C13 H3 0.930 . S
C13 C12 1.384 . S
C13 C14 1.389 . S
C14 C13 1.389 . S
C14 C15 1.405 . S
C15 H4 0.930 . S
C15 C14 1.405 . S
C15 C16 1.364 . S
C16 C15 1.364 . S
C16 C17 1.400 . S
C17 H5 0.931 . S
C17 C12 1.408 . S
C17 C16 1.400 . S
H18 C24 0.930 . S
H19 C27 0.931 . S
H20 C29 0.931 . S
H21 C31 0.930 . S
H22 C33 0.930 . S
H23 C35 0.931 . S
C24 H18 0.930 . S
C24 C25 1.380 . S
C24 C26 1.394 . S
C25 C24 1.380 . S
C25 C29 1.382 . S
C26 C24 1.394 . S
C26 C27 1.400 . S
C27 H19 0.931 . S
C27 C26 1.400 . S
C27 C28 1.375 . S
C28 C27 1.375 . S
C28 C29 1.415 . S
C28 C30 1.501 1_545 S
C29 H20 0.931 . S
C29 C25 1.382 . S
C29 C28 1.415 . S
C30 C28 1.501 1_565 S
C30 C31 1.384 . S
C30 C35 1.408 . S
C31 H21 0.930 . S
C31 C30 1.384 . S
C31 C32 1.389 . S
C32 C31 1.389 . S
C32 C33 1.405 . S
C33 H22 0.930 . S
C33 C32 1.405 . S
C33 C34 1.364 . S
C34 C33 1.364 . S
C34 C35 1.400 . S
C35 H23 0.931 . S
C35 C30 1.408 . S
C35 C34 1.400 . S
H36 C42 0.930 . S
H37 C45 0.931 . S
H38 C47 0.931 . S
H39 C49 0.930 . S
H40 C51 0.930 . S
H41 C53 0.931 . S
C42 H36 0.930 . S
C42 C43 1.380 . S
C42 C44 1.394 . S
C43 C42 1.380 . S
C43 C47 1.382 . S
C44 C42 1.394 . S
C44 C45 1.400 . S
C45 H37 0.931 . S
C45 C44 1.400 . S
C45 C46 1.375 . S
C46 C45 1.375 . S
C46 C47 1.415 . S
C46 C48 1.501 . S
C47 H38 0.931 . S
C47 C43 1.382 . S
C47 C46 1.415 . S
C48 C46 1.501 . S
C48 C49 1.384 . S
C48 C53 1.408 . S
C49 H39 0.930 . S
C49 C48 1.384 . S
C49 C50 1.389 . S
C50 C49 1.389 . S
C50 C51 1.405 . S
C51 H40 0.930 . S
C51 C50 1.405 . S
C51 C52 1.364 . S
C52 C51 1.364 . S
C52 C53 1.400 . S
C53 H41 0.931 . S
C53 C48 1.408 . S
C53 C52 1.400 . S
H54 C60 0.930 . S
H55 C63 0.931 . S
H56 C65 0.931 . S
H57 C67 0.930 . S
H58 C69 0.930 . S
H59 C71 0.904 1_455 S
C60 H54 0.930 . S
C60 C61 1.380 . S
C60 C62 1.394 . S
C61 C60 1.380 . S
C61 C65 1.382 . S
C62 C60 1.394 . S
C62 C63 1.400 . S
C63 H55 0.931 . S
C63 C62 1.400 . S
C63 C64 1.375 . S
C64 C63 1.375 . S
C64 C65 1.415 . S
C64 C66 1.501 1_455 S
C65 H56 0.931 . S
C65 C61 1.382 . S
C65 C64 1.415 . S
C66 C64 1.501 1_655 S
C66 C67 1.384 . S
C66 C71 1.408 . S
C67 H57 0.930 . S
C67 C66 1.384 . S
C67 C68 1.389 . S
C68 C67 1.389 . S
C68 C69 1.405 . S
C69 H58 0.930 . S
C69 C68 1.405 . S
C69 C70 1.364 . S
C70 C69 1.364 . S
C70 C71 1.400 . S
C71 H59 0.904 1_655 S
C71 C66 1.408 . S
C71 C70 1.400 . S
H72 C78 0.930 . S
H73 C81 0.931 . S
H74 C83 0.931 1_545 S
H75 C85 0.930 . S
H76 C87 0.930 . S
H77 C89 0.931 . S
C78 H72 0.930 . S
C78 C79 1.380 . S
C78 C80 1.394 1_554 S
C79 C78 1.380 . S
C79 C83 1.382 . S
C80 C78 1.394 1_556 S
C80 C81 1.400 . S
C81 H73 0.931 . S
C81 C80 1.400 . S
C81 C82 1.375 . S
C82 C81 1.375 . S
C82 C83 1.415 1_556 S
C82 C84 1.501 1_565 S
C83 H74 0.931 1_565 S
C83 C79 1.382 . S
C83 C82 1.415 1_554 S
C84 C82 1.501 1_545 S
C84 C85 1.384 1_556 S
C84 C89 1.408 . S
C85 H75 0.930 . S
C85 C84 1.384 1_554 S
C85 C86 1.389 1_554 S
C86 C85 1.389 1_556 S
C86 C87 1.405 . S
C87 H76 0.930 . S
C87 C86 1.405 . S
C87 C88 1.364 . S
C88 C87 1.364 . S
C88 C89 1.400 . S
C89 H77 0.931 . S
C89 C84 1.408 . S
C89 C88 1.400 . S
H90 C96 0.930 . S
H91 C99 0.931 . S
H92 C101 0.931 . S
H93 C103 0.930 . S
H94 C105 0.930 . S
H95 C107 0.931 . S
C96 H90 0.930 . S
C96 C97 1.380 . S
C96 C98 1.394 . S
C97 C96 1.380 . S
C97 C101 1.382 . S
C98 C96 1.394 . S
C98 C99 1.400 . S
C99 H91 0.931 . S
C99 C98 1.400 . S
C99 C100 1.375 . S
C100 C99 1.375 . S
C100 C101 1.415 . S
C100 C102 1.501 . S
C101 H92 0.931 . S
C101 C97 1.382 . S
C101 C100 1.415 . S
C102 C100 1.501 . S
C102 C103 1.384 . S
C102 C107 1.408 . S
C103 H93 0.930 . S
C103 C102 1.384 . S
C103 C104 1.389 . S
C104 C103 1.389 . S
C104 C105 1.405 . S
C105 H94 0.930 . S
C105 C104 1.405 . S
C105 C106 1.364 . S
C106 C105 1.364 . S
C106 C107 1.400 . S
C107 H95 0.931 . S
C107 C102 1.408 . S
C107 C106 1.400 . S
Zn108 O111 2.031 . S
Zn108 O113 2.049 . S
Zn108 O118 2.067 . S
Zn109 O110 1.962 . S
Zn109 O112 1.986 . S
Zn109 O114 1.996 . S
Zn109 O117 1.943 . S
O110 Zn109 1.962 . S
O110 C115 1.254 . S
O111 Zn108 2.031 . S
O111 C115 1.269 . S
O112 Zn109 1.986 . S
O112 C119 1.262 . S
O113 Zn108 2.049 . S
O113 C121 1.260 . S
O114 Zn109 1.996 . S
O114 C121 1.257 . S
C115 O110 1.254 . S
C115 O111 1.269 . S
C116 O117 1.249 . S
C116 O118 1.270 . S
O117 Zn109 1.943 . S
O117 C116 1.249 . S
O118 Zn108 2.067 . S
O118 C116 1.270 . S
C119 O112 1.262 . S
C119 O120 1.232 . S
O120 C119 1.232 . S
C121 O113 1.260 . S
C121 O114 1.257 . S
Zn122 O125 2.031 . S
Zn122 O127 2.049 . S
Zn122 O132 2.067 . S
Zn123 O124 1.962 . S
Zn123 O126 1.986 . S
Zn123 O128 1.996 . S
Zn123 O131 1.943 . S
O124 Zn123 1.962 . S
O124 C129 1.254 . S
O125 Zn122 2.031 . S
O125 C129 1.269 . S
O126 Zn123 1.986 . S
O126 C133 1.262 . S
O127 Zn122 2.049 . S
O127 C135 1.260 . S
O128 Zn123 1.996 . S
O128 C135 1.257 . S
C129 O124 1.254 . S
C129 O125 1.269 . S
C130 O131 1.249 . S
C130 O132 1.270 . S
O131 Zn123 1.943 . S
O131 C130 1.249 . S
O132 Zn122 2.067 . S
O132 C130 1.270 . S
C133 O126 1.262 . S
C133 O134 1.232 . S
O134 C133 1.232 . S
C135 O127 1.260 . S
C135 O128 1.257 . S
Zn136 O139 2.031 . S
Zn136 O141 2.049 . S
Zn136 O146 2.067 . S
Zn137 O138 1.962 . S
Zn137 O140 1.986 . S
Zn137 O142 1.996 . S
Zn137 O145 1.943 . S
O138 Zn137 1.962 . S
O138 C143 1.254 . S
O139 Zn136 2.031 . S
O139 C143 1.269 . S
O140 Zn137 1.986 . S
O140 C147 1.262 . S
O141 Zn136 2.049 . S
O141 C149 1.260 . S
O142 Zn137 1.996 . S
O142 C149 1.257 . S
C143 O138 1.254 . S
C143 O139 1.269 . S
C144 O145 1.249 . S
C144 O146 1.270 . S
O145 Zn137 1.943 . S
O145 C144 1.249 . S
O146 Zn136 2.067 . S
O146 C144 1.270 . S
C147 O140 1.262 . S
C147 O148 1.232 . S
O148 C147 1.232 . S
C149 O141 1.260 . S
C149 O142 1.257 . S
Zn150 O153 2.031 . S
Zn150 O155 2.049 . S
Zn150 O160 2.067 . S
Zn151 O152 1.962 . S
Zn151 O154 1.986 . S
Zn151 O156 1.996 . S
Zn151 O159 1.943 . S
O152 Zn151 1.962 . S
O152 C157 1.254 . S
O153 Zn150 2.031 . S
O153 C157 1.269 . S
O154 Zn151 1.986 . S
O154 C161 1.262 . S
O155 Zn150 2.049 . S
O155 C163 1.260 . S
O156 Zn151 1.996 . S
O156 C163 1.257 . S
C157 O152 1.254 . S
C157 O153 1.269 . S
C158 O159 1.249 . S
C158 O160 1.270 . S
O159 Zn151 1.943 . S
O159 C158 1.249 . S
O160 Zn150 2.067 . S
O160 C158 1.270 . S
C161 O154 1.262 . S
C161 O162 1.232 . S
O162 C161 1.232 . S
C163 O155 1.260 . S
C163 O156 1.257 . S
Zn164 O167 2.031 . S
Zn164 O169 2.049 . S
Zn164 O174 2.067 . S
Zn165 O166 1.962 . S
Zn165 O168 1.986 . S
Zn165 O170 1.996 . S
Zn165 O173 1.943 . S
O166 Zn165 1.962 . S
O166 C171 1.254 . S
O167 Zn164 2.031 . S
O167 C171 1.269 . S
O168 Zn165 1.986 . S
O168 C175 1.262 . S
O169 Zn164 2.049 . S
O169 C177 1.260 . S
O170 Zn165 1.996 . S
O170 C177 1.257 . S
C171 O166 1.254 . S
C171 O167 1.269 . S
C172 O173 1.249 . S
C172 O174 1.270 . S
O173 Zn165 1.943 . S
O173 C172 1.249 . S
O174 Zn164 2.067 . S
O174 C172 1.270 . S
C175 O168 1.262 . S
C175 O176 1.232 . S
O176 C175 1.232 . S
C177 O169 1.260 . S
C177 O170 1.257 . S
Zn178 O181 2.031 . S
Zn178 O183 2.049 . S
Zn178 O188 2.067 . S
Zn179 O180 1.962 . S
Zn179 O182 1.986 . S
Zn179 O184 1.996 . S
Zn179 O187 1.943 . S
O180 Zn179 1.962 . S
O180 C185 1.254 . S
O181 Zn178 2.031 . S
O181 C185 1.269 . S
O182 Zn179 1.986 . S
O182 C189 1.262 . S
O183 Zn178 2.049 . S
O183 C191 1.260 . S
O184 Zn179 1.996 . S
O184 C191 1.257 . S
C185 O180 1.254 . S
C185 O181 1.269 . S
C186 O187 1.249 . S
C186 O188 1.270 . S
O187 Zn179 1.943 . S
O187 C186 1.249 . S
O188 Zn178 2.067 . S
O188 C186 1.270 . S
C189 O182 1.262 . S
C189 O190 1.232 . S
O190 C189 1.232 . S
C191 O183 1.260 . S
C191 O184 1.257 . S
H192 C210 0.951 . S
H193 C212 0.951 . S
H194 C214 0.950 . S
H195 C215 0.950 . S
H196 C217 0.950 . S
H197 C220 0.950 . S
H198 C221 0.950 . S
H199 C223 0.950 . S
H200 C224 0.950 . S
H201 C225 0.951 . S
H202 C227 0.951 . S
H203 C229 0.950 . S
H204 C230 0.950 . S
H205 C232 0.950 . S
H206 C235 0.950 . S
H207 C236 0.950 . S
H208 C238 0.950 . S
H209 C239 0.950 . S
C210 H192 0.951 . S
C210 C211 1.366 . S
C210 C212 1.388 . S
C211 C210 1.366 . S
C211 C215 1.385 . S
C212 H193 0.951 . S
C212 C210 1.388 . S
C212 C213 1.366 . S
C213 C212 1.366 . S
C213 C214 1.414 . S
C213 C216 1.499 . S
C214 H194 0.950 . S
C214 C213 1.414 . S
C214 C215 1.374 . S
C215 H195 0.950 . S
C215 C211 1.385 . S
C215 C214 1.374 . S
C216 C213 1.499 . S
C216 C217 1.373 . S
C216 C218 1.389 . S
C217 H196 0.950 . S
C217 C216 1.373 . S
C217 C233 1.377 . S
C218 C216 1.389 . S
C218 C219 1.524 . S
C218 C232 1.377 . S
C219 C218 1.524 . S
C219 C220 1.397 . S
C219 C224 1.363 . S
C220 H197 0.950 . S
C220 C219 1.397 . S
C220 C221 1.334 . S
C221 H198 0.950 . S
C221 C220 1.334 . S
C221 C222 1.287 . S
C222 C221 1.287 . S
C222 C223 1.524 . S
C222 H241 0.913 . S
C223 H199 0.950 . S
C223 C222 1.524 . S
C223 C224 1.415 . S
C224 H200 0.950 . S
C224 C219 1.363 . S
C224 C223 1.415 . S
C225 H201 0.951 . S
C225 C226 1.366 . S
C225 C227 1.388 . S
C226 C225 1.366 . S
C226 C230 1.385 . S
C227 H202 0.951 . S
C227 C225 1.388 . S
C227 C228 1.366 . S
C228 C227 1.366 . S
C228 C229 1.414 . S
C228 C231 1.499 . S
C229 H203 0.950 . S
C229 C228 1.414 . S
C229 C230 1.374 . S
C230 H204 0.950 . S
C230 C226 1.385 . S
C230 C229 1.374 . S
C231 C228 1.499 . S
C231 C232 1.373 . S
C231 C233 1.389 . S
C232 H205 0.950 . S
C232 C218 1.377 . S
C232 C231 1.373 . S
C233 C217 1.377 . S
C233 C231 1.389 . S
C233 C234 1.524 . S
C234 C233 1.524 . S
C234 C235 1.397 . S
C234 C239 1.363 . S
C235 H206 0.950 . S
C235 C234 1.397 . S
C235 C236 1.334 . S
C236 H207 0.950 . S
C236 C235 1.334 . S
C236 C237 1.287 . S
C237 C236 1.287 . S
C237 C238 1.524 . S
C237 H240 0.999 . S
C238 H208 0.950 . S
C238 C237 1.524 . S
C238 C239 1.415 . S
C239 H209 0.950 . S
C239 C234 1.363 . S
C239 C238 1.415 . S
H240 C237 0.999 . S
H241 C222 0.913 . S
H242 C260 0.951 . S
H243 C262 0.951 . S
H244 C264 0.950 . S
H245 C265 0.950 . S
H246 C267 0.950 . S
H247 C270 0.950 . S
H248 C271 0.950 . S
H249 C273 0.950 . S
H250 C274 0.950 . S
H251 C275 0.951 . S
H252 C277 0.951 . S
H253 C279 0.950 . S
H254 C280 0.950 . S
H255 C282 0.950 . S
H256 C285 0.950 . S
H257 C286 0.950 . S
H258 C288 0.950 . S
H259 C289 0.950 . S
C260 H242 0.951 . S
C260 C261 1.366 . S
C260 C262 1.388 . S
C261 C260 1.366 . S
C261 C265 1.385 . S
C262 H243 0.951 . S
C262 C260 1.388 . S
C262 C263 1.366 . S
C263 C262 1.366 . S
C263 C264 1.414 . S
C263 C266 1.499 . S
C264 H244 0.950 . S
C264 C263 1.414 . S
C264 C265 1.374 . S
C265 H245 0.950 . S
C265 C261 1.385 . S
C265 C264 1.374 . S
C266 C263 1.499 . S
C266 C267 1.373 . S
C266 C268 1.389 . S
C267 H246 0.950 . S
C267 C266 1.373 . S
C267 C283 1.377 . S
C268 C266 1.389 . S
C268 C269 1.524 . S
C268 C282 1.377 . S
C269 C268 1.524 . S
C269 C270 1.397 . S
C269 C274 1.363 . S
C270 H247 0.950 . S
C270 C269 1.397 . S
C270 C271 1.334 . S
C271 H248 0.950 . S
C271 C270 1.334 . S
C271 C272 1.287 . S
C272 C271 1.287 . S
C272 C273 1.524 . S
C272 H291 0.913 . S
C273 H249 0.950 . S
C273 C272 1.524 . S
C273 C274 1.415 . S
C274 H250 0.950 . S
C274 C269 1.363 . S
C274 C273 1.415 . S
C275 H251 0.951 . S
C275 C276 1.366 . S
C275 C277 1.388 . S
C276 C275 1.366 . S
C276 C280 1.385 . S
C277 H252 0.951 . S
C277 C275 1.388 . S
C277 C278 1.366 . S
C278 C277 1.366 . S
C278 C279 1.414 . S
C278 C281 1.499 . S
C279 H253 0.950 . S
C279 C278 1.414 . S
C279 C280 1.374 . S
C280 H254 0.950 . S
C280 C276 1.385 . S
C280 C279 1.374 . S
C281 C278 1.499 . S
C281 C282 1.373 . S
C281 C283 1.389 . S
C282 H255 0.950 . S
C282 C268 1.377 . S
C282 C281 1.373 . S
C283 C267 1.377 . S
C283 C281 1.389 . S
C283 C284 1.524 . S
C284 C283 1.524 . S
C284 C285 1.397 . S
C284 C289 1.363 . S
C285 H256 0.950 . S
C285 C284 1.397 . S
C285 C286 1.334 . S
C286 H257 0.950 . S
C286 C285 1.334 . S
C286 C287 1.287 . S
C287 C286 1.287 . S
C287 C288 1.524 . S
C287 H290 0.999 . S
C288 H258 0.950 . S
C288 C287 1.524 . S
C288 C289 1.415 . S
C289 H259 0.950 . S
C289 C284 1.363 . S
C289 C288 1.415 . S
H290 C287 0.999 . S
H291 C272 0.913 . S
H292 C310 0.951 . S
H293 C312 0.951 . S
H294 C314 0.950 . S
H295 C315 0.950 . S
H296 C317 0.950 . S
H297 C320 0.950 . S
H298 C321 0.950 . S
H299 C323 0.950 . S
H300 C324 0.950 . S
H301 C325 0.951 . S
H302 C327 0.951 . S
H303 C329 0.950 . S
H304 C330 0.950 . S
H305 C332 0.950 . S
H306 C335 0.950 . S
H307 C336 0.950 . S
H308 C338 0.950 . S
H309 C339 0.950 . S
C310 H292 0.951 . S
C310 C311 1.366 . S
C310 C312 1.388 . S
C311 C310 1.366 . S
C311 C315 1.385 . S
C312 H293 0.951 . S
C312 C310 1.388 . S
C312 C313 1.366 . S
C313 C312 1.366 . S
C313 C314 1.414 . S
C313 C316 1.499 . S
C314 H294 0.950 . S
C314 C313 1.414 . S
C314 C315 1.374 . S
C315 H295 0.950 . S
C315 C311 1.385 . S
C315 C314 1.374 . S
C316 C313 1.499 . S
C316 C317 1.373 . S
C316 C318 1.389 . S
C317 H296 0.950 . S
C317 C316 1.373 . S
C317 C333 1.377 . S
C318 C316 1.389 . S
C318 C319 1.524 . S
C318 C332 1.377 . S
C319 C318 1.524 . S
C319 C320 1.397 . S
C319 C324 1.363 . S
C320 H297 0.950 . S
C320 C319 1.397 . S
C320 C321 1.334 . S
C321 H298 0.950 . S
C321 C320 1.334 . S
C321 C322 1.287 . S
C322 C321 1.287 . S
C322 C323 1.524 . S
C322 H341 0.913 . S
C323 H299 0.950 . S
C323 C322 1.524 . S
C323 C324 1.415 . S
C324 H300 0.950 . S
C324 C319 1.363 . S
C324 C323 1.415 . S
C325 H301 0.951 . S
C325 C326 1.366 . S
C325 C327 1.388 . S
C326 C325 1.366 . S
C326 C330 1.385 . S
C327 H302 0.951 . S
C327 C325 1.388 . S
C327 C328 1.366 . S
C328 C327 1.366 . S
C328 C329 1.414 . S
C328 C331 1.499 . S
C329 H303 0.950 . S
C329 C328 1.414 . S
C329 C330 1.374 . S
C330 H304 0.950 . S
C330 C326 1.385 . S
C330 C329 1.374 . S
C331 C328 1.499 . S
C331 C332 1.373 . S
C331 C333 1.389 . S
C332 H305 0.950 . S
C332 C318 1.377 . S
C332 C331 1.373 . S
C333 C317 1.377 . S
C333 C331 1.389 . S
C333 C334 1.524 . S
C334 C333 1.524 . S
C334 C335 1.397 . S
C334 C339 1.363 . S
C335 H306 0.950 . S
C335 C334 1.397 . S
C335 C336 1.334 . S
C336 H307 0.950 . S
C336 C335 1.334 . S
C336 C337 1.287 . S
C337 C336 1.287 . S
C337 C338 1.524 . S
C337 H340 0.999 . S
C338 H308 0.950 . S
C338 C337 1.524 . S
C338 C339 1.415 . S
C339 H309 0.950 . S
C339 C334 1.363 . S
C339 C338 1.415 . S
H340 C337 0.999 . S
H341 C322 0.913 . S
H342 C360 0.951 . S
H343 C362 0.951 . S
H344 C364 0.950 . S
H345 C365 0.950 . S
H346 C367 0.950 . S
H347 C370 0.950 . S
H348 C371 0.950 . S
H349 C373 0.950 . S
H350 C374 0.950 . S
H351 C375 0.951 . S
H352 C377 0.951 . S
H353 C379 0.950 . S
H354 C380 0.950 . S
H355 C382 0.950 . S
H356 C385 0.950 . S
H357 C386 0.950 . S
H358 C388 0.950 . S
H359 C389 0.950 . S
C360 H342 0.951 . S
C360 C361 1.366 . S
C360 C362 1.388 . S
C361 C360 1.366 . S
C361 C365 1.385 . S
C362 H343 0.951 . S
C362 C360 1.388 . S
C362 C363 1.366 . S
C363 C362 1.366 . S
C363 C364 1.414 . S
C363 C366 1.499 . S
C364 H344 0.950 . S
C364 C363 1.414 . S
C364 C365 1.374 . S
C365 H345 0.950 . S
C365 C361 1.385 . S
C365 C364 1.374 . S
C366 C363 1.499 . S
C366 C367 1.373 . S
C366 C368 1.389 . S
C367 H346 0.950 . S
C367 C366 1.373 . S
C367 C383 1.377 . S
C368 C366 1.389 . S
C368 C369 1.524 . S
C368 C382 1.377 . S
C369 C368 1.524 . S
C369 C370 1.397 . S
C369 C374 1.363 . S
C370 H347 0.950 . S
C370 C369 1.397 . S
C370 C371 1.334 . S
C371 H348 0.950 . S
C371 C370 1.334 . S
C371 C372 1.287 . S
C372 C371 1.287 . S
C372 C373 1.524 . S
C372 H391 0.913 . S
C373 H349 0.950 . S
C373 C372 1.524 . S
C373 C374 1.415 . S
C374 H350 0.950 . S
C374 C369 1.363 . S
C374 C373 1.415 . S
C375 H351 0.951 . S
C375 C376 1.366 . S
C375 C377 1.388 . S
C376 C375 1.366 . S
C376 C380 1.385 . S
C377 H352 0.951 . S
C377 C375 1.388 . S
C377 C378 1.366 . S
C378 C377 1.366 . S
C378 C379 1.414 . S
C378 C381 1.499 . S
C379 H353 0.950 . S
C379 C378 1.414 . S
C379 C380 1.374 . S
C380 H354 0.950 . S
C380 C376 1.385 . S
C380 C379 1.374 . S
C381 C378 1.499 . S
C381 C382 1.373 . S
C381 C383 1.389 . S
C382 H355 0.950 . S
C382 C368 1.377 . S
C382 C381 1.373 . S
C383 C367 1.377 . S
C383 C381 1.389 . S
C383 C384 1.524 . S
C384 C383 1.524 . S
C384 C385 1.397 . S
C384 C389 1.363 . S
C385 H356 0.950 . S
C385 C384 1.397 . S
C385 C386 1.334 . S
C386 H357 0.950 . S
C386 C385 1.334 . S
C386 C387 1.287 . S
C387 C386 1.287 . S
C387 C388 1.524 . S
C387 H390 0.999 . S
C388 H358 0.950 . S
C388 C387 1.524 . S
C388 C389 1.415 . S
C389 H359 0.950 . S
C389 C384 1.363 . S
C389 C388 1.415 . S
H390 C387 0.999 . S
H391 C372 0.913 . S
H392 C410 0.951 . S
H393 C412 0.951 . S
H394 C414 0.950 . S
H395 C415 0.950 . S
H396 C417 0.950 . S
H397 C420 0.950 . S
H398 C421 0.950 . S
H399 C423 0.950 . S
H400 C424 0.950 . S
H401 C425 0.951 . S
H402 C427 0.951 . S
H403 C429 0.950 . S
H404 C430 0.950 . S
H405 C432 0.950 . S
H406 C435 0.950 . S
H407 C436 0.950 . S
H408 C438 0.950 . S
H409 C439 0.950 . S
C410 H392 0.951 . S
C410 C411 1.366 . S
C410 C412 1.388 . S
C411 C410 1.366 . S
C411 C415 1.385 . S
C412 H393 0.951 . S
C412 C410 1.388 . S
C412 C413 1.366 . S
C413 C412 1.366 . S
C413 C414 1.414 . S
C413 C416 1.499 . S
C414 H394 0.950 . S
C414 C413 1.414 . S
C414 C415 1.374 . S
C415 H395 0.950 . S
C415 C411 1.385 . S
C415 C414 1.374 . S
C416 C413 1.499 . S
C416 C417 1.373 . S
C416 C418 1.389 . S
C417 H396 0.950 . S
C417 C416 1.373 . S
C417 C433 1.377 . S
C418 C416 1.389 . S
C418 C419 1.524 . S
C418 C432 1.377 . S
C419 C418 1.524 . S
C419 C420 1.397 . S
C419 C424 1.363 . S
C420 H397 0.950 . S
C420 C419 1.397 . S
C420 C421 1.334 . S
C421 H398 0.950 . S
C421 C420 1.334 . S
C421 C422 1.287 . S
C422 C421 1.287 . S
C422 C423 1.524 . S
C422 H441 0.913 . S
C423 H399 0.950 . S
C423 C422 1.524 . S
C423 C424 1.415 . S
C424 H400 0.950 . S
C424 C419 1.363 . S
C424 C423 1.415 . S
C425 H401 0.951 . S
C425 C426 1.366 . S
C425 C427 1.388 . S
C426 C425 1.366 . S
C426 C430 1.385 . S
C427 H402 0.951 . S
C427 C425 1.388 . S
C427 C428 1.366 . S
C428 C427 1.366 . S
C428 C429 1.414 . S
C428 C431 1.499 . S
C429 H403 0.950 . S
C429 C428 1.414 . S
C429 C430 1.374 . S
C430 H404 0.950 . S
C430 C426 1.385 . S
C430 C429 1.374 . S
C431 C428 1.499 . S
C431 C432 1.373 . S
C431 C433 1.389 . S
C432 H405 0.950 . S
C432 C418 1.377 . S
C432 C431 1.373 . S
C433 C417 1.377 . S
C433 C431 1.389 . S
C433 C434 1.524 . S
C434 C433 1.524 . S
C434 C435 1.397 . S
C434 C439 1.363 1_556 S
C435 H406 0.950 . S
C435 C434 1.397 . S
C435 C436 1.334 . S
C436 H407 0.950 . S
C436 C435 1.334 . S
C436 C437 1.287 1_556 S
C437 C436 1.287 1_554 S
C437 C438 1.524 . S
C437 H440 0.999 . S
C438 H408 0.950 . S
C438 C437 1.524 . S
C438 C439 1.415 . S
C439 H409 0.950 . S
C439 C434 1.363 1_554 S
C439 C438 1.415 . S
H440 C437 0.999 . S
H441 C422 0.913 . S
H442 C460 0.951 . S
H443 C462 0.951 . S
H444 C464 0.950 . S
H445 C465 0.950 . S
H446 C467 0.950 . S
H447 C470 0.950 . S
H448 C471 0.950 . S
H449 C473 0.950 . S
H450 C474 0.950 . S
H451 C475 0.951 . S
H452 C477 0.951 . S
H453 C479 0.950 . S
H454 C480 0.950 . S
H455 C482 0.950 . S
H456 C485 0.950 . S
H457 C486 0.950 . S
H458 C488 0.950 . S
H459 C489 0.950 . S
C460 H442 0.951 . S
C460 C461 1.366 . S
C460 C462 1.388 . S
C461 C460 1.366 . S
C461 C465 1.385 . S
C462 H443 0.951 . S
C462 C460 1.388 . S
C462 C463 1.366 . S
C463 C462 1.366 . S
C463 C464 1.414 . S
C463 C466 1.499 . S
C464 H444 0.950 . S
C464 C463 1.414 . S
C464 C465 1.374 . S
C465 H445 0.950 . S
C465 C461 1.385 . S
C465 C464 1.374 . S
C466 C463 1.499 . S
C466 C467 1.373 . S
C466 C468 1.389 . S
C467 H446 0.950 . S
C467 C466 1.373 . S
C467 C483 1.377 . S
C468 C466 1.389 . S
C468 C469 1.524 . S
C468 C482 1.377 . S
C469 C468 1.524 . S
C469 C470 1.397 . S
C469 C474 1.363 . S
C470 H447 0.950 . S
C470 C469 1.397 . S
C470 C471 1.334 . S
C471 H448 0.950 . S
C471 C470 1.334 . S
C471 C472 1.287 . S
C472 C471 1.287 . S
C472 C473 1.524 . S
C472 H491 0.913 . S
C473 H449 0.950 . S
C473 C472 1.524 . S
C473 C474 1.415 . S
C474 H450 0.950 . S
C474 C469 1.363 . S
C474 C473 1.415 . S
C475 H451 0.951 . S
C475 C476 1.366 . S
C475 C477 1.388 . S
C476 C475 1.366 . S
C476 C480 1.385 . S
C477 H452 0.951 . S
C477 C475 1.388 . S
C477 C478 1.366 . S
C478 C477 1.366 . S
C478 C479 1.414 . S
C478 C481 1.499 . S
C479 H453 0.950 . S
C479 C478 1.414 . S
C479 C480 1.374 . S
C480 H454 0.950 . S
C480 C476 1.385 . S
C480 C479 1.374 . S
C481 C478 1.499 . S
C481 C482 1.373 . S
C481 C483 1.389 . S
C482 H455 0.950 . S
C482 C468 1.377 . S
C482 C481 1.373 . S
C483 C467 1.377 . S
C483 C481 1.389 . S
C483 C484 1.524 . S
C484 C483 1.524 . S
C484 C485 1.397 . S
C484 C489 1.363 . S
C485 H456 0.950 . S
C485 C484 1.397 . S
C485 C486 1.334 . S
C486 H457 0.950 . S
C486 C485 1.334 . S
C486 C487 1.287 . S
C487 C486 1.287 . S
C487 C488 1.524 . S
C487 H490 0.999 . S
C488 H458 0.950 . S
C488 C487 1.524 . S
C488 C489 1.415 . S
C489 H459 0.950 . S
C489 C484 1.363 . S
C489 C488 1.415 . S
H490 C487 0.999 . S
H491 C472 0.913 . S
H492 C510 0.951 . S
H493 C512 0.951 . S
H494 C514 0.950 . S
H495 C515 0.950 . S
H496 C517 0.950 . S
H497 C520 0.950 . S
H498 C521 0.950 . S
H499 C523 0.950 . S
H500 C524 0.950 . S
H501 C525 0.951 . S
H502 C527 0.951 . S
H503 C529 0.950 . S
H504 C530 0.950 . S
H505 C532 0.950 . S
H506 C535 0.950 . S
H507 C536 0.950 . S
H508 C538 0.950 . S
H509 C539 0.950 . S
C510 H492 0.951 . S
C510 C511 1.366 . S
C510 C512 1.388 . S
C511 C510 1.366 . S
C511 C515 1.385 . S
C512 H493 0.951 . S
C512 C510 1.388 . S
C512 C513 1.366 . S
C513 C512 1.366 . S
C513 C514 1.414 . S
C513 C516 1.499 . S
C514 H494 0.950 . S
C514 C513 1.414 . S
C514 C515 1.374 . S
C515 H495 0.950 . S
C515 C511 1.385 . S
C515 C514 1.374 . S
C516 C513 1.499 . S
C516 C517 1.373 . S
C516 C518 1.389 . S
C517 H496 0.950 . S
C517 C516 1.373 . S
C517 C533 1.377 . S
C518 C516 1.389 . S
C518 C519 1.524 . S
C518 C532 1.377 . S
C519 C518 1.524 . S
C519 C520 1.397 . S
C519 C524 1.363 . S
C520 H497 0.950 . S
C520 C519 1.397 . S
C520 C521 1.334 . S
C521 H498 0.950 . S
C521 C520 1.334 . S
C521 C522 1.287 . S
C522 C521 1.287 . S
C522 C523 1.524 . S
C522 H541 0.913 . S
C523 H499 0.950 . S
C523 C522 1.524 . S
C523 C524 1.415 . S
C524 H500 0.950 . S
C524 C519 1.363 . S
C524 C523 1.415 . S
C525 H501 0.951 . S
C525 C526 1.366 . S
C525 C527 1.388 . S
C526 C525 1.366 . S
C526 C530 1.385 . S
C527 H502 0.951 . S
C527 C525 1.388 . S
C527 C528 1.366 . S
C528 C527 1.366 . S
C528 C529 1.414 . S
C528 C531 1.499 . S
C529 H503 0.950 . S
C529 C528 1.414 . S
C529 C530 1.374 . S
C530 H504 0.950 . S
C530 C526 1.385 . S
C530 C529 1.374 . S
C531 C528 1.499 . S
C531 C532 1.373 . S
C531 C533 1.389 . S
C532 H505 0.950 . S
C532 C518 1.377 . S
C532 C531 1.373 . S
C533 C517 1.377 . S
C533 C531 1.389 . S
C533 C534 1.524 . S
C534 C533 1.524 . S
C534 C535 1.397 . S
C534 C539 1.363 . S
C535 H506 0.950 . S
C535 C534 1.397 . S
C535 C536 1.334 . S
C536 H507 0.950 . S
C536 C535 1.334 . S
C536 C537 1.287 . S
C537 C536 1.287 . S
C537 C538 1.524 . S
C537 H540 0.999 . S
C538 H508 0.950 . S
C538 C537 1.524 . S
C538 C539 1.415 . S
C539 H509 0.950 . S
C539 C534 1.363 . S
C539 C538 1.415 . S
H540 C537 0.999 . S
H541 C522 0.913 . S
H542 C560 0.951 . S
H543 C562 0.951 . S
H544 C564 0.950 . S
H545 C565 0.950 . S
H546 C567 0.950 . S
H547 C570 0.950 . S
H548 C571 0.950 . S
H549 C573 0.950 . S
H550 C574 0.950 . S
H551 C575 0.951 . S
H552 C577 0.951 . S
H553 C579 0.950 . S
H554 C580 0.950 . S
H555 C582 0.950 . S
H556 C585 0.950 . S
H557 C586 0.950 . S
H558 C588 0.950 . S
H559 C589 0.950 . S
C560 H542 0.951 . S
C560 C561 1.366 . S
C560 C562 1.388 . S
C561 C560 1.366 . S
C561 C565 1.385 . S
C562 H543 0.951 . S
C562 C560 1.388 . S
C562 C563 1.366 . S
C563 C562 1.366 . S
C563 C564 1.414 . S
C563 C566 1.499 . S
C564 H544 0.950 . S
C564 C563 1.414 . S
C564 C565 1.374 . S
C565 H545 0.950 . S
C565 C561 1.385 . S
C565 C564 1.374 . S
C566 C563 1.499 . S
C566 C567 1.373 . S
C566 C568 1.389 . S
C567 H546 0.950 . S
C567 C566 1.373 . S
C567 C583 1.377 . S
C568 C566 1.389 . S
C568 C569 1.524 . S
C568 C582 1.377 . S
C569 C568 1.524 . S
C569 C570 1.397 . S
C569 C574 1.363 . S
C570 H547 0.950 . S
C570 C569 1.397 . S
C570 C571 1.334 . S
C571 H548 0.950 . S
C571 C570 1.334 . S
C571 C572 1.287 . S
C572 C571 1.287 . S
C572 C573 1.524 . S
C572 H591 0.913 . S
C573 H549 0.950 . S
C573 C572 1.524 . S
C573 C574 1.415 . S
C574 H550 0.950 . S
C574 C569 1.363 . S
C574 C573 1.415 . S
C575 H551 0.951 . S
C575 C576 1.366 . S
C575 C577 1.388 . S
C576 C575 1.366 . S
C576 C580 1.385 . S
C577 H552 0.951 . S
C577 C575 1.388 . S
C577 C578 1.366 . S
C578 C577 1.366 . S
C578 C579 1.414 . S
C578 C581 1.499 . S
C579 H553 0.950 . S
C579 C578 1.414 . S
C579 C580 1.374 . S
C580 H554 0.950 . S
C580 C576 1.385 . S
C580 C579 1.374 . S
C581 C578 1.499 . S
C581 C582 1.373 . S
C581 C583 1.389 . S
C582 H555 0.950 . S
C582 C568 1.377 . S
C582 C581 1.373 . S
C583 C567 1.377 . S
C583 C581 1.389 . S
C583 C584 1.524 . S
C584 C583 1.524 . S
C584 C585 1.397 . S
C584 C589 1.363 . S
C585 H556 0.950 . S
C585 C584 1.397 . S
C585 C586 1.334 . S
C586 H557 0.950 . S
C586 C585 1.334 . S
C586 C587 1.287 . S
C587 C586 1.287 . S
C587 C588 1.524 . S
C587 H590 0.999 . S
C588 H558 0.950 . S
C588 C587 1.524 . S
C588 C589 1.415 . S
C589 H559 0.950 . S
C589 C584 1.363 . S
C589 C588 1.415 . S
H590 C587 0.999 . S
H591 C572 0.913 . S
H592 C610 0.951 . S
H593 C612 0.951 . S
H594 C614 0.950 . S
H595 C615 0.950 . S
H596 C617 0.950 . S
H597 C620 0.950 . S
H598 C621 0.950 . S
H599 C623 0.950 . S
H600 C624 0.950 . S
H601 C625 0.951 . S
H602 C627 0.951 . S
H603 C629 0.950 . S
H604 C630 0.950 . S
H605 C632 0.950 . S
H606 C635 0.950 . S
H607 C636 0.950 . S
H608 C638 0.950 . S
H609 C639 0.950 . S
C610 H592 0.951 . S
C610 C611 1.366 . S
C610 C612 1.388 . S
C611 C610 1.366 . S
C611 C615 1.385 . S
C612 H593 0.951 . S
C612 C610 1.388 . S
C612 C613 1.366 . S
C613 C612 1.366 . S
C613 C614 1.414 . S
C613 C616 1.499 . S
C614 H594 0.950 . S
C614 C613 1.414 . S
C614 C615 1.374 . S
C615 H595 0.950 . S
C615 C611 1.385 . S
C615 C614 1.374 . S
C616 C613 1.499 . S
C616 C617 1.373 . S
C616 C618 1.389 . S
C617 H596 0.950 . S
C617 C616 1.373 . S
C617 C633 1.377 . S
C618 C616 1.389 . S
C618 C619 1.524 . S
C618 C632 1.377 . S
C619 C618 1.524 . S
C619 C620 1.397 . S
C619 C624 1.363 . S
C620 H597 0.950 . S
C620 C619 1.397 . S
C620 C621 1.334 . S
C621 H598 0.950 . S
C621 C620 1.334 . S
C621 C622 1.287 . S
C622 C621 1.287 . S
C622 C623 1.524 . S
C622 H641 0.913 . S
C623 H599 0.950 . S
C623 C622 1.524 . S
C623 C624 1.415 . S
C624 H600 0.950 . S
C624 C619 1.363 . S
C624 C623 1.415 . S
C625 H601 0.951 . S
C625 C626 1.366 . S
C625 C627 1.388 . S
C626 C625 1.366 . S
C626 C630 1.385 . S
C627 H602 0.951 . S
C627 C625 1.388 . S
C627 C628 1.366 . S
C628 C627 1.366 . S
C628 C629 1.414 . S
C628 C631 1.499 . S
C629 H603 0.950 . S
C629 C628 1.414 . S
C629 C630 1.374 . S
C630 H604 0.950 . S
C630 C626 1.385 . S
C630 C629 1.374 . S
C631 C628 1.499 . S
C631 C632 1.373 . S
C631 C633 1.389 . S
C632 H605 0.950 . S
C632 C618 1.377 . S
C632 C631 1.373 . S
C633 C617 1.377 . S
C633 C631 1.389 . S
C633 C634 1.524 . S
C634 C633 1.524 . S
C634 C635 1.397 . S
C634 C639 1.363 . S
C635 H606 0.950 . S
C635 C634 1.397 . S
C635 C636 1.334 . S
C636 H607 0.950 . S
C636 C635 1.334 . S
C636 C637 1.287 . S
C637 C636 1.287 . S
C637 C638 1.524 . S
C637 H640 0.999 . S
C638 H608 0.950 . S
C638 C637 1.524 . S
C638 C639 1.415 . S
C639 H609 0.950 . S
C639 C634 1.363 . S
C639 C638 1.415 . S
H640 C637 0.999 . S
H641 C622 0.913 . S
H642 C660 0.951 . S
H643 C662 0.951 . S
H644 C664 0.950 . S
H645 C665 0.950 . S
H646 C667 0.950 . S
H647 C670 0.950 . S
H648 C671 0.950 . S
H649 C673 0.950 . S
H650 C674 0.950 1_554 S
H651 C675 0.951 . S
H652 C677 0.951 . S
H653 C679 0.950 . S
H654 C680 0.950 . S
H655 C682 0.950 . S
H656 C685 0.950 . S
H657 C686 0.950 . S
H658 C688 0.950 . S
H659 C689 0.950 . S
C660 H642 0.951 . S
C660 C661 1.366 . S
C660 C662 1.388 . S
C661 C660 1.366 . S
C661 C665 1.385 . S
C662 H643 0.951 . S
C662 C660 1.388 . S
C662 C663 1.366 . S
C663 C662 1.366 . S
C663 C664 1.414 . S
C663 C666 1.499 . S
C664 H644 0.950 . S
C664 C663 1.414 . S
C664 C665 1.374 . S
C665 H645 0.950 . S
C665 C661 1.385 . S
C665 C664 1.374 . S
C666 C663 1.499 . S
C666 C667 1.373 . S
C666 C668 1.389 . S
C667 H646 0.950 . S
C667 C666 1.373 . S
C667 C683 1.377 . S
C668 C666 1.389 . S
C668 C669 1.524 1_554 S
C668 C682 1.377 . S
C669 C668 1.524 1_556 S
C669 C670 1.397 . S
C669 C674 1.363 . S
C670 H647 0.950 . S
C670 C669 1.397 . S
C670 C671 1.334 . S
C671 H648 0.950 . S
C671 C670 1.334 . S
C671 C672 1.287 . S
C672 C671 1.287 . S
C672 C673 1.524 . S
C672 H691 0.913 . S
C673 H649 0.950 . S
C673 C672 1.524 . S
C673 C674 1.415 . S
C674 H650 0.950 1_556 S
C674 C669 1.363 . S
C674 C673 1.415 . S
C675 H651 0.951 . S
C675 C676 1.366 . S
C675 C677 1.388 . S
C676 C675 1.366 . S
C676 C680 1.385 . S
C677 H652 0.951 . S
C677 C675 1.388 . S
C677 C678 1.366 . S
C678 C677 1.366 . S
C678 C679 1.414 . S
C678 C681 1.499 . S
C679 H653 0.950 . S
C679 C678 1.414 . S
C679 C680 1.374 . S
C680 H654 0.950 . S
C680 C676 1.385 . S
C680 C679 1.374 . S
C681 C678 1.499 . S
C681 C682 1.373 . S
C681 C683 1.389 . S
C682 H655 0.950 . S
C682 C668 1.377 . S
C682 C681 1.373 . S
C683 C667 1.377 . S
C683 C681 1.389 . S
C683 C684 1.524 . S
C684 C683 1.524 . S
C684 C685 1.397 . S
C684 C689 1.363 . S
C685 H656 0.950 . S
C685 C684 1.397 . S
C685 C686 1.334 . S
C686 H657 0.950 . S
C686 C685 1.334 . S
C686 C687 1.287 . S
C687 C686 1.287 . S
C687 C688 1.524 . S
C687 H690 0.999 . S
C688 H658 0.950 . S
C688 C687 1.524 . S
C688 C689 1.415 . S
C689 H659 0.950 . S
C689 C684 1.363 . S
C689 C688 1.415 . S
H690 C687 0.999 . S
H691 C672 0.913 . S
H692 C710 0.951 . S
H693 C712 0.951 . S
H694 C714 0.950 . S
H695 C715 0.950 . S
H696 C717 0.950 . S
H697 C720 0.950 . S
H698 C721 0.950 . S
H699 C723 0.950 . S
H700 C724 0.950 . S
H701 C725 0.951 . S
H702 C727 0.951 . S
H703 C729 0.950 . S
H704 C730 0.950 . S
H705 C732 0.950 . S
H706 C735 0.950 . S
H707 C736 0.950 . S
H708 C738 0.950 . S
H709 C739 0.950 . S
C710 H692 0.951 . S
C710 C711 1.366 . S
C710 C712 1.388 . S
C711 C710 1.366 . S
C711 C715 1.385 . S
C712 H693 0.951 . S
C712 C710 1.388 . S
C712 C713 1.366 . S
C713 C712 1.366 . S
C713 C714 1.414 . S
C713 C716 1.499 . S
C714 H694 0.950 . S
C714 C713 1.414 . S
C714 C715 1.374 . S
C715 H695 0.950 . S
C715 C711 1.385 . S
C715 C714 1.374 . S
C716 C713 1.499 . S
C716 C717 1.373 . S
C716 C718 1.389 . S
C717 H696 0.950 . S
C717 C716 1.373 . S
C717 C733 1.377 . S
C718 C716 1.389 . S
C718 C719 1.524 . S
C718 C732 1.377 . S
C719 C718 1.524 . S
C719 C720 1.397 . S
C719 C724 1.363 . S
C720 H697 0.950 . S
C720 C719 1.397 . S
C720 C721 1.334 . S
C721 H698 0.950 . S
C721 C720 1.334 . S
C721 C722 1.287 . S
C722 C721 1.287 . S
C722 C723 1.524 . S
C722 H741 0.913 . S
C723 H699 0.950 . S
C723 C722 1.524 . S
C723 C724 1.415 . S
C724 H700 0.950 . S
C724 C719 1.363 . S
C724 C723 1.415 . S
C725 H701 0.951 . S
C725 C726 1.366 . S
C725 C727 1.388 . S
C726 C725 1.366 . S
C726 C730 1.385 . S
C727 H702 0.951 . S
C727 C725 1.388 . S
C727 C728 1.366 . S
C728 C727 1.366 . S
C728 C729 1.414 . S
C728 C731 1.499 . S
C729 H703 0.950 . S
C729 C728 1.414 . S
C729 C730 1.374 . S
C730 H704 0.950 . S
C730 C726 1.385 . S
C730 C729 1.374 . S
C731 C728 1.499 . S
C731 C732 1.373 . S
C731 C733 1.389 . S
C732 H705 0.950 . S
C732 C718 1.377 . S
C732 C731 1.373 . S
C733 C717 1.377 . S
C733 C731 1.389 . S
C733 C734 1.524 . S
C734 C733 1.524 . S
C734 C735 1.397 . S
C734 C739 1.363 . S
C735 H706 0.950 . S
C735 C734 1.397 . S
C735 C736 1.334 . S
C736 H707 0.950 . S
C736 C735 1.334 . S
C736 C737 1.287 . S
C737 C736 1.287 . S
C737 C738 1.524 . S
C737 H740 0.999 . S
C738 H708 0.950 . S
C738 C737 1.524 . S
C738 C739 1.415 . S
C739 H709 0.950 . S
C739 C734 1.363 . S
C739 C738 1.415 . S
H740 C737 0.999 . S
H741 C722 0.913 . S
H742 C760 0.951 . S
H743 C762 0.951 . S
H744 C764 0.950 . S
H745 C765 0.950 . S
H746 C767 0.950 . S
H747 C770 0.950 . S
H748 C771 0.950 . S
H749 C773 0.950 . S
H750 C774 0.950 . S
H751 C775 0.951 . S
H752 C777 0.951 . S
H753 C779 0.950 . S
H754 C780 0.950 . S
H755 C782 0.950 . S
H756 C785 0.950 . S
H757 C786 0.950 . S
H758 C788 0.950 . S
H759 C789 0.950 . S
C760 H742 0.951 . S
C760 C761 1.366 . S
C760 C762 1.388 . S
C761 C760 1.366 . S
C761 C765 1.385 . S
C762 H743 0.951 . S
C762 C760 1.388 . S
C762 C763 1.366 . S
C763 C762 1.366 . S
C763 C764 1.414 . S
C763 C766 1.499 . S
C764 H744 0.950 . S
C764 C763 1.414 . S
C764 C765 1.374 . S
C765 H745 0.950 . S
C765 C761 1.385 . S
C765 C764 1.374 . S
C766 C763 1.499 . S
C766 C767 1.373 . S
C766 C768 1.389 . S
C767 H746 0.950 . S
C767 C766 1.373 . S
C767 C783 1.377 . S
C768 C766 1.389 . S
C768 C769 1.524 . S
C768 C782 1.377 . S
C769 C768 1.524 . S
C769 C770 1.397 . S
C769 C774 1.363 . S
C770 H747 0.950 . S
C770 C769 1.397 . S
C770 C771 1.334 . S
C771 H748 0.950 . S
C771 C770 1.334 . S
C771 C772 1.287 . S
C772 C771 1.287 . S
C772 C773 1.524 . S
C772 H791 0.913 . S
C773 H749 0.950 . S
C773 C772 1.524 . S
C773 C774 1.415 . S
C774 H750 0.950 . S
C774 C769 1.363 . S
C774 C773 1.415 . S
C775 H751 0.951 . S
C775 C776 1.366 . S
C775 C777 1.388 . S
C776 C775 1.366 . S
C776 C780 1.385 . S
C777 H752 0.951 . S
C777 C775 1.388 . S
C777 C778 1.366 . S
C778 C777 1.366 . S
C778 C779 1.414 . S
C778 C781 1.499 . S
C779 H753 0.950 . S
C779 C778 1.414 . S
C779 C780 1.374 . S
C780 H754 0.950 . S
C780 C776 1.385 . S
C780 C779 1.374 . S
C781 C778 1.499 . S
C781 C782 1.373 . S
C781 C783 1.389 . S
C782 H755 0.950 . S
C782 C768 1.377 . S
C782 C781 1.373 . S
C783 C767 1.377 . S
C783 C781 1.389 . S
C783 C784 1.524 . S
C784 C783 1.524 . S
C784 C785 1.397 . S
C784 C789 1.363 . S
C785 H756 0.950 . S
C785 C784 1.397 . S
C785 C786 1.334 . S
C786 H757 0.950 . S
C786 C785 1.334 . S
C786 C787 1.287 . S
C787 C786 1.287 . S
C787 C788 1.524 . S
C787 H790 0.999 . S
C788 H758 0.950 . S
C788 C787 1.524 . S
C788 C789 1.415 . S
C789 H759 0.950 . S
C789 C784 1.363 . S
C789 C788 1.415 . S
H790 C787 0.999 . S
H791 C772 0.913 . S
H792 C810 0.951 . S
H793 C812 0.951 . S
H794 C814 0.950 . S
H795 C815 0.950 . S
H796 C817 0.950 . S
H797 C820 0.950 . S
H798 C821 0.950 . S
H799 C823 0.950 . S
H800 C824 0.950 . S
H801 C825 0.951 . S
H802 C827 0.951 . S
H803 C829 0.950 . S
H804 C830 0.950 . S
H805 C832 0.950 . S
H806 C835 0.950 . S
H807 C836 0.950 . S
H808 C838 0.950 . S
H809 C839 0.950 . S
C810 H792 0.951 . S
C810 C811 1.366 . S
C810 C812 1.388 . S
C811 C810 1.366 . S
C811 C815 1.385 . S
C812 H793 0.951 . S
C812 C810 1.388 . S
C812 C813 1.366 . S
C813 C812 1.366 . S
C813 C814 1.414 . S
C813 C816 1.499 . S
C814 H794 0.950 . S
C814 C813 1.414 . S
C814 C815 1.374 . S
C815 H795 0.950 . S
C815 C811 1.385 . S
C815 C814 1.374 . S
C816 C813 1.499 . S
C816 C817 1.373 . S
C816 C818 1.389 . S
C817 H796 0.950 . S
C817 C816 1.373 . S
C817 C833 1.377 . S
C818 C816 1.389 . S
C818 C819 1.524 . S
C818 C832 1.377 . S
C819 C818 1.524 . S
C819 C820 1.397 . S
C819 C824 1.363 . S
C820 H797 0.950 . S
C820 C819 1.397 . S
C820 C821 1.334 . S
C821 H798 0.950 . S
C821 C820 1.334 . S
C821 C822 1.287 . S
C822 C821 1.287 . S
C822 C823 1.524 . S
C822 H841 0.913 . S
C823 H799 0.950 . S
C823 C822 1.524 . S
C823 C824 1.415 . S
C824 H800 0.950 . S
C824 C819 1.363 . S
C824 C823 1.415 . S
C825 H801 0.951 . S
C825 C826 1.366 . S
C825 C827 1.388 . S
C826 C825 1.366 . S
C826 C830 1.385 . S
C827 H802 0.951 . S
C827 C825 1.388 . S
C827 C828 1.366 . S
C828 C827 1.366 . S
C828 C829 1.414 . S
C828 C831 1.499 . S
C829 H803 0.950 . S
C829 C828 1.414 . S
C829 C830 1.374 . S
C830 H804 0.950 . S
C830 C826 1.385 . S
C830 C829 1.374 . S
C831 C828 1.499 . S
C831 C832 1.373 . S
C831 C833 1.389 . S
C832 H805 0.950 . S
C832 C818 1.377 . S
C832 C831 1.373 . S
C833 C817 1.377 . S
C833 C831 1.389 . S
C833 C834 1.524 . S
C834 C833 1.524 . S
C834 C835 1.397 . S
C834 C839 1.363 . S
C835 H806 0.950 . S
C835 C834 1.397 . S
C835 C836 1.334 . S
C836 H807 0.950 . S
C836 C835 1.334 . S
C836 C837 1.287 . S
C837 C836 1.287 . S
C837 C838 1.524 . S
C837 H840 0.999 . S
C838 H808 0.950 . S
C838 C837 1.524 . S
C838 C839 1.415 . S
C839 H809 0.950 . S
C839 C834 1.363 . S
C839 C838 1.415 . S
H840 C837 0.999 . S
H841 C822 0.913 . S
H842 C860 0.951 . S
H843 C862 0.951 . S
H844 C864 0.950 . S
H845 C865 0.950 . S
H846 C867 0.950 . S
H847 C870 0.950 . S
H848 C871 0.950 . S
H849 C873 0.950 . S
H850 C874 0.950 . S
H851 C875 0.951 . S
H852 C877 0.951 . S
H853 C879 0.950 . S
H854 C880 0.950 . S
H855 C882 0.950 . S
H856 C885 0.950 . S
H857 C886 0.950 . S
H858 C888 0.950 . S
H859 C889 0.950 . S
C860 H842 0.951 . S
C860 C861 1.366 . S
C860 C862 1.388 . S
C861 C860 1.366 . S
C861 C865 1.385 . S
C862 H843 0.951 . S
C862 C860 1.388 . S
C862 C863 1.366 . S
C863 C862 1.366 . S
C863 C864 1.414 . S
C863 C866 1.499 . S
C864 H844 0.950 . S
C864 C863 1.414 . S
C864 C865 1.374 . S
C865 H845 0.950 . S
C865 C861 1.385 . S
C865 C864 1.374 . S
C866 C863 1.499 . S
C866 C867 1.373 . S
C866 C868 1.389 . S
C867 H846 0.950 . S
C867 C866 1.373 . S
C867 C883 1.377 . S
C868 C866 1.389 . S
C868 C869 1.524 . S
C868 C882 1.377 . S
C869 C868 1.524 . S
C869 C870 1.397 . S
C869 C874 1.363 . S
C870 H847 0.950 . S
C870 C869 1.397 . S
C870 C871 1.334 . S
C871 H848 0.950 . S
C871 C870 1.334 . S
C871 C872 1.287 . S
C872 C871 1.287 . S
C872 C873 1.524 . S
C872 H891 0.913 . S
C873 H849 0.950 . S
C873 C872 1.524 . S
C873 C874 1.415 . S
C874 H850 0.950 . S
C874 C869 1.363 . S
C874 C873 1.415 . S
C875 H851 0.951 . S
C875 C876 1.366 . S
C875 C877 1.388 . S
C876 C875 1.366 . S
C876 C880 1.385 . S
C877 H852 0.951 . S
C877 C875 1.388 . S
C877 C878 1.366 . S
C878 C877 1.366 . S
C878 C879 1.414 . S
C878 C881 1.499 . S
C879 H853 0.950 . S
C879 C878 1.414 . S
C879 C880 1.374 . S
C880 H854 0.950 . S
C880 C876 1.385 . S
C880 C879 1.374 . S
C881 C878 1.499 . S
C881 C882 1.373 . S
C881 C883 1.389 . S
C882 H855 0.950 . S
C882 C868 1.377 . S
C882 C881 1.373 . S
C883 C867 1.377 . S
C883 C881 1.389 . S
C883 C884 1.524 . S
C884 C883 1.524 . S
C884 C885 1.397 . S
C884 C889 1.363 . S
C885 H856 0.950 . S
C885 C884 1.397 . S
C885 C886 1.334 . S
C886 H857 0.950 . S
C886 C885 1.334 . S
C886 C887 1.287 . S
C887 C886 1.287 . S
C887 C888 1.524 . S
C887 H890 0.999 . S
C888 H858 0.950 . S
C888 C887 1.524 . S
C888 C889 1.415 . S
C889 H859 0.950 . S
C889 C884 1.363 . S
C889 C888 1.415 . S
H890 C887 0.999 . S
H891 C872 0.913 . S
H892 C910 0.951 . S
H893 C912 0.951 . S
H894 C914 0.950 . S
H895 C915 0.950 . S
H896 C917 0.950 . S
H897 C920 0.950 . S
H898 C921 0.950 . S
H899 C923 0.950 . S
H900 C924 0.950 . S
H901 C925 0.951 . S
H902 C927 0.951 . S
H903 C929 0.950 . S
H904 C930 0.950 . S
H905 C932 0.950 . S
H906 C935 0.950 . S
H907 C936 0.950 . S
H908 C938 0.950 . S
H909 C939 0.950 . S
C910 H892 0.951 . S
C910 C911 1.366 . S
C910 C912 1.388 . S
C911 C910 1.366 . S
C911 C915 1.385 . S
C912 H893 0.951 . S
C912 C910 1.388 . S
C912 C913 1.366 . S
C913 C912 1.366 . S
C913 C914 1.414 . S
C913 C916 1.499 . S
C914 H894 0.950 . S
C914 C913 1.414 . S
C914 C915 1.374 . S
C915 H895 0.950 . S
C915 C911 1.385 . S
C915 C914 1.374 . S
C916 C913 1.499 . S
C916 C917 1.373 . S
C916 C918 1.389 . S
C917 H896 0.950 . S
C917 C916 1.373 . S
C917 C933 1.377 . S
C918 C916 1.389 . S
C918 C919 1.524 . S
C918 C932 1.377 . S
C919 C918 1.524 . S
C919 C920 1.397 . S
C919 C924 1.363 . S
C920 H897 0.950 . S
C920 C919 1.397 . S
C920 C921 1.334 . S
C921 H898 0.950 . S
C921 C920 1.334 . S
C921 C922 1.287 . S
C922 C921 1.287 . S
C922 C923 1.524 . S
C922 H941 0.913 . S
C923 H899 0.950 . S
C923 C922 1.524 . S
C923 C924 1.415 . S
C924 H900 0.950 . S
C924 C919 1.363 . S
C924 C923 1.415 . S
C925 H901 0.951 . S
C925 C926 1.366 . S
C925 C927 1.388 . S
C926 C925 1.366 . S
C926 C930 1.385 . S
C927 H902 0.951 . S
C927 C925 1.388 . S
C927 C928 1.366 . S
C928 C927 1.366 . S
C928 C929 1.414 . S
C928 C931 1.499 . S
C929 H903 0.950 . S
C929 C928 1.414 . S
C929 C930 1.374 . S
C930 H904 0.950 . S
C930 C926 1.385 . S
C930 C929 1.374 . S
C931 C928 1.499 . S
C931 C932 1.373 . S
C931 C933 1.389 . S
C932 H905 0.950 . S
C932 C918 1.377 . S
C932 C931 1.373 . S
C933 C917 1.377 . S
C933 C931 1.389 . S
C933 C934 1.524 . S
C934 C933 1.524 . S
C934 C935 1.397 . S
C934 C939 1.363 . S
C935 H906 0.950 . S
C935 C934 1.397 . S
C935 C936 1.334 . S
C936 H907 0.950 . S
C936 C935 1.334 . S
C936 C937 1.287 . S
C937 C936 1.287 . S
C937 C938 1.524 . S
C937 H940 0.999 . S
C938 H908 0.950 . S
C938 C937 1.524 . S
C938 C939 1.415 . S
C939 H909 0.950 . S
C939 C934 1.363 . S
C939 C938 1.415 . S
H940 C937 0.999 . S
H941 C922 0.913 . S
H942 C960 0.951 . S
H943 C962 0.951 . S
H944 C964 0.950 . S
H945 C965 0.950 . S
H946 C967 0.950 . S
H947 C970 0.950 . S
H948 C971 0.950 . S
H949 C973 0.950 . S
H950 C974 0.950 . S
H951 C975 0.951 . S
H952 C977 0.951 . S
H953 C979 0.950 . S
H954 C980 0.950 . S
H955 C982 0.950 . S
H956 C985 0.950 . S
H957 C986 0.950 . S
H958 C988 0.950 . S
H959 C989 0.950 . S
C960 H942 0.951 . S
C960 C961 1.366 . S
C960 C962 1.388 . S
C961 C960 1.366 . S
C961 C965 1.385 . S
C962 H943 0.951 . S
C962 C960 1.388 . S
C962 C963 1.366 . S
C963 C962 1.366 . S
C963 C964 1.414 . S
C963 C966 1.499 . S
C964 H944 0.950 . S
C964 C963 1.414 . S
C964 C965 1.374 . S
C965 H945 0.950 . S
C965 C961 1.385 . S
C965 C964 1.374 . S
C966 C963 1.499 . S
C966 C967 1.373 . S
C966 C968 1.389 . S
C967 H946 0.950 . S
C967 C966 1.373 . S
C967 C983 1.377 . S
C968 C966 1.389 . S
C968 C969 1.524 . S
C968 C982 1.377 . S
C969 C968 1.524 . S
C969 C970 1.397 . S
C969 C974 1.363 . S
C970 H947 0.950 . S
C970 C969 1.397 . S
C970 C971 1.334 . S
C971 H948 0.950 . S
C971 C970 1.334 . S
C971 C972 1.287 . S
C972 C971 1.287 . S
C972 C973 1.524 . S
C972 H991 0.913 . S
C973 H949 0.950 . S
C973 C972 1.524 . S
C973 C974 1.415 . S
C974 H950 0.950 . S
C974 C969 1.363 . S
C974 C973 1.415 . S
C975 H951 0.951 . S
C975 C976 1.366 . S
C975 C977 1.388 . S
C976 C975 1.366 . S
C976 C980 1.385 1_554 S
C977 H952 0.951 . S
C977 C975 1.388 . S
C977 C978 1.366 1_554 S
C978 C977 1.366 1_556 S
C978 C979 1.414 . S
C978 C981 1.499 . S
C979 H953 0.950 . S
C979 C978 1.414 . S
C979 C980 1.374 . S
C980 H954 0.950 . S
C980 C976 1.385 1_556 S
C980 C979 1.374 . S
C981 C978 1.499 . S
C981 C982 1.373 . S
C981 C983 1.389 . S
C982 H955 0.950 . S
C982 C968 1.377 . S
C982 C981 1.373 . S
C983 C967 1.377 . S
C983 C981 1.389 . S
C983 C984 1.524 . S
C984 C983 1.524 . S
C984 C985 1.397 . S
C984 C989 1.363 . S
C985 H956 0.950 . S
C985 C984 1.397 . S
C985 C986 1.334 1_556 S
C986 H957 0.950 . S
C986 C985 1.334 1_554 S
C986 C987 1.287 . S
C987 C986 1.287 . S
C987 C988 1.524 . S
C987 H990 0.999 . S
C988 H958 0.950 . S
C988 C987 1.524 . S
C988 C989 1.415 1_554 S
C989 H959 0.950 . S
C989 C984 1.363 . S
C989 C988 1.415 1_556 S
H990 C987 0.999 . S
H991 C972 0.913 . S
H992 C1010 0.951 . S
H993 C1012 0.951 . S
H994 C1014 0.950 . S
H995 C1015 0.950 . S
H996 C1017 0.950 . S
H997 C1020 0.950 . S
H998 C1021 0.950 . S
H999 C1023 0.950 . S
H1000 C1024 0.950 . S
H1001 C1025 0.951 . S
H1002 C1027 0.951 . S
H1003 C1029 0.950 . S
H1004 C1030 0.950 . S
H1005 C1032 0.950 . S
H1006 C1035 0.950 . S
H1007 C1036 0.950 . S
H1008 C1038 0.950 . S
H1009 C1039 0.950 . S
C1010 H992 0.951 . S
C1010 C1011 1.366 . S
C1010 C1012 1.388 . S
C1011 C1010 1.366 . S
C1011 C1015 1.385 . S
C1012 H993 0.951 . S
C1012 C1010 1.388 . S
C1012 C1013 1.366 . S
C1013 C1012 1.366 . S
C1013 C1014 1.414 . S
C1013 C1016 1.499 . S
C1014 H994 0.950 . S
C1014 C1013 1.414 . S
C1014 C1015 1.374 . S
C1015 H995 0.950 . S
C1015 C1011 1.385 . S
C1015 C1014 1.374 . S
C1016 C1013 1.499 . S
C1016 C1017 1.373 . S
C1016 C1018 1.389 . S
C1017 H996 0.950 . S
C1017 C1016 1.373 . S
C1017 C1033 1.377 . S
C1018 C1016 1.389 . S
C1018 C1019 1.524 . S
C1018 C1032 1.377 . S
C1019 C1018 1.524 . S
C1019 C1020 1.397 . S
C1019 C1024 1.363 . S
C1020 H997 0.950 . S
C1020 C1019 1.397 . S
C1020 C1021 1.334 . S
C1021 H998 0.950 . S
C1021 C1020 1.334 . S
C1021 C1022 1.287 . S
C1022 C1021 1.287 . S
C1022 C1023 1.524 . S
C1022 H1041 0.913 . S
C1023 H999 0.950 . S
C1023 C1022 1.524 . S
C1023 C1024 1.415 . S
C1024 H1000 0.950 . S
C1024 C1019 1.363 . S
C1024 C1023 1.415 . S
C1025 H1001 0.951 . S
C1025 C1026 1.366 . S
C1025 C1027 1.388 . S
C1026 C1025 1.366 . S
C1026 C1030 1.385 . S
C1027 H1002 0.951 . S
C1027 C1025 1.388 . S
C1027 C1028 1.366 . S
C1028 C1027 1.366 . S
C1028 C1029 1.414 . S
C1028 C1031 1.499 . S
C1029 H1003 0.950 . S
C1029 C1028 1.414 . S
C1029 C1030 1.374 . S
C1030 H1004 0.950 . S
C1030 C1026 1.385 . S
C1030 C1029 1.374 . S
C1031 C1028 1.499 . S
C1031 C1032 1.373 . S
C1031 C1033 1.389 . S
C1032 H1005 0.950 . S
C1032 C1018 1.377 . S
C1032 C1031 1.373 . S
C1033 C1017 1.377 . S
C1033 C1031 1.389 . S
C1033 C1034 1.524 . S
C1034 C1033 1.524 . S
C1034 C1035 1.397 . S
C1034 C1039 1.363 . S
C1035 H1006 0.950 . S
C1035 C1034 1.397 . S
C1035 C1036 1.334 . S
C1036 H1007 0.950 . S
C1036 C1035 1.334 . S
C1036 C1037 1.287 . S
C1037 C1036 1.287 . S
C1037 C1038 1.524 . S
C1037 H1040 0.999 . S
C1038 H1008 0.950 . S
C1038 C1037 1.524 . S
C1038 C1039 1.415 . S
C1039 H1009 0.950 . S
C1039 C1034 1.363 . S
C1039 C1038 1.415 . S
H1040 C1037 0.999 . S
H1041 C1022 0.913 . S
H1042 C1060 0.951 . S
H1043 C1062 0.951 . S
H1044 C1064 0.950 . S
H1045 C1065 0.950 . S
H1046 C1067 0.950 . S
H1047 C1070 0.950 . S
H1048 C1071 0.950 . S
H1049 C1073 0.950 . S
H1050 C1074 0.950 . S
H1051 C1075 0.951 . S
H1052 C1077 0.951 . S
H1053 C1079 0.950 . S
H1054 C1080 0.950 . S
H1055 C1082 0.950 . S
H1056 C1085 0.950 . S
H1057 C1086 0.950 . S
H1058 C1088 0.950 . S
H1059 C1089 0.950 . S
C1060 H1042 0.951 . S
C1060 C1061 1.366 . S
C1060 C1062 1.388 . S
C1061 C1060 1.366 . S
C1061 C1065 1.385 . S
C1062 H1043 0.951 . S
C1062 C1060 1.388 . S
C1062 C1063 1.366 . S
C1063 C1062 1.366 . S
C1063 C1064 1.414 . S
C1063 C1066 1.499 . S
C1064 H1044 0.950 . S
C1064 C1063 1.414 . S
C1064 C1065 1.374 . S
C1065 H1045 0.950 . S
C1065 C1061 1.385 . S
C1065 C1064 1.374 . S
C1066 C1063 1.499 . S
C1066 C1067 1.373 . S
C1066 C1068 1.389 . S
C1067 H1046 0.950 . S
C1067 C1066 1.373 . S
C1067 C1083 1.377 . S
C1068 C1066 1.389 . S
C1068 C1069 1.524 . S
C1068 C1082 1.377 . S
C1069 C1068 1.524 . S
C1069 C1070 1.397 . S
C1069 C1074 1.363 . S
C1070 H1047 0.950 . S
C1070 C1069 1.397 . S
C1070 C1071 1.334 . S
C1071 H1048 0.950 . S
C1071 C1070 1.334 . S
C1071 C1072 1.287 . S
C1072 C1071 1.287 . S
C1072 C1073 1.524 . S
C1072 H1091 0.913 . S
C1073 H1049 0.950 . S
C1073 C1072 1.524 . S
C1073 C1074 1.415 . S
C1074 H1050 0.950 . S
C1074 C1069 1.363 . S
C1074 C1073 1.415 . S
C1075 H1051 0.951 . S
C1075 C1076 1.366 . S
C1075 C1077 1.388 . S
C1076 C1075 1.366 . S
C1076 C1080 1.385 . S
C1077 H1052 0.951 . S
C1077 C1075 1.388 . S
C1077 C1078 1.366 . S
C1078 C1077 1.366 . S
C1078 C1079 1.414 . S
C1078 C1081 1.499 . S
C1079 H1053 0.950 . S
C1079 C1078 1.414 . S
C1079 C1080 1.374 . S
C1080 H1054 0.950 . S
C1080 C1076 1.385 . S
C1080 C1079 1.374 . S
C1081 C1078 1.499 . S
C1081 C1082 1.373 . S
C1081 C1083 1.389 . S
C1082 H1055 0.950 . S
C1082 C1068 1.377 . S
C1082 C1081 1.373 . S
C1083 C1067 1.377 . S
C1083 C1081 1.389 . S
C1083 C1084 1.524 . S
C1084 C1083 1.524 . S
C1084 C1085 1.397 . S
C1084 C1089 1.363 . S
C1085 H1056 0.950 . S
C1085 C1084 1.397 . S
C1085 C1086 1.334 . S
C1086 H1057 0.950 . S
C1086 C1085 1.334 . S
C1086 C1087 1.287 . S
C1087 C1086 1.287 . S
C1087 C1088 1.524 . S
C1087 H1090 0.999 . S
C1088 H1058 0.950 . S
C1088 C1087 1.524 . S
C1088 C1089 1.415 . S
C1089 H1059 0.950 . S
C1089 C1084 1.363 . S
C1089 C1088 1.415 . S
H1090 C1087 0.999 . S
H1091 C1072 0.913 . S
H1092 C1110 0.951 . S
H1093 C1112 0.951 . S
H1094 C1114 0.950 . S
H1095 C1115 0.950 . S
H1096 C1117 0.950 . S
H1097 C1120 0.950 . S
H1098 C1121 0.950 . S
H1099 C1123 0.950 . S
H1100 C1124 0.950 . S
H1101 C1125 0.951 . S
H1102 C1127 0.951 . S
H1103 C1129 0.950 . S
H1104 C1130 0.950 . S
H1105 C1132 0.950 . S
H1106 C1135 0.950 . S
H1107 C1136 0.950 . S
H1108 C1138 0.950 . S
H1109 C1139 0.950 . S
C1110 H1092 0.951 . S
C1110 C1111 1.366 . S
C1110 C1112 1.388 . S
C1111 C1110 1.366 . S
C1111 C1115 1.385 . S
C1112 H1093 0.951 . S
C1112 C1110 1.388 . S
C1112 C1113 1.366 . S
C1113 C1112 1.366 . S
C1113 C1114 1.414 . S
C1113 C1116 1.499 . S
C1114 H1094 0.950 . S
C1114 C1113 1.414 . S
C1114 C1115 1.374 . S
C1115 H1095 0.950 . S
C1115 C1111 1.385 . S
C1115 C1114 1.374 . S
C1116 C1113 1.499 . S
C1116 C1117 1.373 . S
C1116 C1118 1.389 . S
C1117 H1096 0.950 . S
C1117 C1116 1.373 . S
C1117 C1133 1.377 . S
C1118 C1116 1.389 . S
C1118 C1119 1.524 . S
C1118 C1132 1.377 . S
C1119 C1118 1.524 . S
C1119 C1120 1.397 . S
C1119 C1124 1.363 . S
C1120 H1097 0.950 . S
C1120 C1119 1.397 . S
C1120 C1121 1.334 . S
C1121 H1098 0.950 . S
C1121 C1120 1.334 . S
C1121 C1122 1.287 . S
C1122 C1121 1.287 . S
C1122 C1123 1.524 . S
C1122 H1141 0.913 . S
C1123 H1099 0.950 . S
C1123 C1122 1.524 . S
C1123 C1124 1.415 . S
C1124 H1100 0.950 . S
C1124 C1119 1.363 . S
C1124 C1123 1.415 . S
C1125 H1101 0.951 . S
C1125 C1126 1.366 . S
C1125 C1127 1.388 . S
C1126 C1125 1.366 . S
C1126 C1130 1.385 . S
C1127 H1102 0.951 . S
C1127 C1125 1.388 . S
C1127 C1128 1.366 . S
C1128 C1127 1.366 . S
C1128 C1129 1.414 . S
C1128 C1131 1.499 . S
C1129 H1103 0.950 . S
C1129 C1128 1.414 . S
C1129 C1130 1.374 . S
C1130 H1104 0.950 . S
C1130 C1126 1.385 . S
C1130 C1129 1.374 . S
C1131 C1128 1.499 . S
C1131 C1132 1.373 . S
C1131 C1133 1.389 . S
C1132 H1105 0.950 . S
C1132 C1118 1.377 . S
C1132 C1131 1.373 . S
C1133 C1117 1.377 . S
C1133 C1131 1.389 . S
C1133 C1134 1.524 . S
C1134 C1133 1.524 . S
C1134 C1135 1.397 . S
C1134 C1139 1.363 . S
C1135 H1106 0.950 . S
C1135 C1134 1.397 . S
C1135 C1136 1.334 . S
C1136 H1107 0.950 . S
C1136 C1135 1.334 . S
C1136 C1137 1.287 . S
C1137 C1136 1.287 . S
C1137 C1138 1.524 . S
C1137 H1140 0.999 . S
C1138 H1108 0.950 . S
C1138 C1137 1.524 . S
C1138 C1139 1.415 . S
C1139 H1109 0.950 . S
C1139 C1134 1.363 . S
C1139 C1138 1.415 . S
H1140 C1137 0.999 . S
H1141 C1122 0.913 . S
H1142 C1160 0.951 . S
H1143 C1162 0.951 . S
H1144 C1164 0.950 . S
H1145 C1165 0.950 . S
H1146 C1167 0.950 . S
H1147 C1170 0.950 . S
H1148 C1171 0.950 . S
H1149 C1173 0.950 . S
H1150 C1174 0.950 . S
H1151 C1175 0.951 . S
H1152 C1177 0.951 . S
H1153 C1179 0.950 . S
H1154 C1180 0.950 . S
H1155 C1182 0.950 . S
H1156 C1185 0.950 . S
H1157 C1186 0.950 . S
H1158 C1188 0.950 . S
H1159 C1189 0.950 . S
C1160 H1142 0.951 . S
C1160 C1161 1.366 . S
C1160 C1162 1.388 . S
C1161 C1160 1.366 . S
C1161 C1165 1.385 . S
C1162 H1143 0.951 . S
C1162 C1160 1.388 . S
C1162 C1163 1.366 . S
C1163 C1162 1.366 . S
C1163 C1164 1.414 . S
C1163 C1166 1.499 . S
C1164 H1144 0.950 . S
C1164 C1163 1.414 . S
C1164 C1165 1.374 . S
C1165 H1145 0.950 . S
C1165 C1161 1.385 . S
C1165 C1164 1.374 . S
C1166 C1163 1.499 . S
C1166 C1167 1.373 . S
C1166 C1168 1.389 . S
C1167 H1146 0.950 . S
C1167 C1166 1.373 . S
C1167 C1183 1.377 . S
C1168 C1166 1.389 . S
C1168 C1169 1.524 . S
C1168 C1182 1.377 . S
C1169 C1168 1.524 . S
C1169 C1170 1.397 . S
C1169 C1174 1.363 . S
C1170 H1147 0.950 . S
C1170 C1169 1.397 . S
C1170 C1171 1.334 . S
C1171 H1148 0.950 . S
C1171 C1170 1.334 . S
C1171 C1172 1.287 . S
C1172 C1171 1.287 . S
C1172 C1173 1.524 . S
C1172 H1191 0.913 . S
C1173 H1149 0.950 . S
C1173 C1172 1.524 . S
C1173 C1174 1.415 . S
C1174 H1150 0.950 . S
C1174 C1169 1.363 . S
C1174 C1173 1.415 . S
C1175 H1151 0.951 . S
C1175 C1176 1.366 . S
C1175 C1177 1.388 . S
C1176 C1175 1.366 . S
C1176 C1180 1.385 . S
C1177 H1152 0.951 . S
C1177 C1175 1.388 . S
C1177 C1178 1.366 . S
C1178 C1177 1.366 . S
C1178 C1179 1.414 . S
C1178 C1181 1.499 . S
C1179 H1153 0.950 . S
C1179 C1178 1.414 . S
C1179 C1180 1.374 . S
C1180 H1154 0.950 . S
C1180 C1176 1.385 . S
C1180 C1179 1.374 . S
C1181 C1178 1.499 . S
C1181 C1182 1.373 . S
C1181 C1183 1.389 . S
C1182 H1155 0.950 . S
C1182 C1168 1.377 . S
C1182 C1181 1.373 . S
C1183 C1167 1.377 . S
C1183 C1181 1.389 . S
C1183 C1184 1.524 . S
C1184 C1183 1.524 . S
C1184 C1185 1.397 . S
C1184 C1189 1.363 . S
C1185 H1156 0.950 . S
C1185 C1184 1.397 . S
C1185 C1186 1.334 . S
C1186 H1157 0.950 . S
C1186 C1185 1.334 . S
C1186 C1187 1.287 . S
C1187 C1186 1.287 . S
C1187 C1188 1.524 . S
C1187 H1190 0.999 . S
C1188 H1158 0.950 . S
C1188 C1187 1.524 . S
C1188 C1189 1.415 . S
C1189 H1159 0.950 . S
C1189 C1184 1.363 . S
C1189 C1188 1.415 . S
H1190 C1187 0.999 . S
H1191 C1172 0.913 . S
H1192 C1210 0.951 . S
H1193 C1212 0.951 . S
H1194 C1214 0.950 . S
H1195 C1215 0.950 . S
H1196 C1217 0.950 . S
H1197 C1220 0.950 . S
H1198 C1221 0.950 . S
H1199 C1223 0.950 . S
H1200 C1224 0.950 . S
H1201 C1225 0.951 . S
H1202 C1227 0.951 . S
H1203 C1229 0.950 . S
H1204 C1230 0.950 . S
H1205 C1232 0.950 . S
H1206 C1235 0.950 . S
H1207 C1236 0.950 . S
H1208 C1238 0.950 . S
H1209 C1239 0.950 . S
C1210 H1192 0.951 . S
C1210 C1211 1.366 . S
C1210 C1212 1.388 . S
C1211 C1210 1.366 . S
C1211 C1215 1.385 . S
C1212 H1193 0.951 . S
C1212 C1210 1.388 . S
C1212 C1213 1.366 . S
C1213 C1212 1.366 . S
C1213 C1214 1.414 . S
C1213 C1216 1.499 . S
C1214 H1194 0.950 . S
C1214 C1213 1.414 . S
C1214 C1215 1.374 . S
C1215 H1195 0.950 . S
C1215 C1211 1.385 . S
C1215 C1214 1.374 . S
C1216 C1213 1.499 . S
C1216 C1217 1.373 . S
C1216 C1218 1.389 . S
C1217 H1196 0.950 . S
C1217 C1216 1.373 . S
C1217 C1233 1.377 . S
C1218 C1216 1.389 . S
C1218 C1219 1.524 . S
C1218 C1232 1.377 . S
C1219 C1218 1.524 . S
C1219 C1220 1.397 . S
C1219 C1224 1.363 . S
C1220 H1197 0.950 . S
C1220 C1219 1.397 . S
C1220 C1221 1.334 . S
C1221 H1198 0.950 . S
C1221 C1220 1.334 . S
C1221 C1222 1.287 . S
C1222 C1221 1.287 . S
C1222 C1223 1.524 . S
C1222 H1241 0.913 . S
C1223 H1199 0.950 . S
C1223 C1222 1.524 . S
C1223 C1224 1.415 . S
C1224 H1200 0.950 . S
C1224 C1219 1.363 . S
C1224 C1223 1.415 . S
C1225 H1201 0.951 . S
C1225 C1226 1.366 . S
C1225 C1227 1.388 . S
C1226 C1225 1.366 . S
C1226 C1230 1.385 . S
C1227 H1202 0.951 . S
C1227 C1225 1.388 . S
C1227 C1228 1.366 . S
C1228 C1227 1.366 . S
C1228 C1229 1.414 . S
C1228 C1231 1.499 . S
C1229 H1203 0.950 . S
C1229 C1228 1.414 . S
C1229 C1230 1.374 . S
C1230 H1204 0.950 . S
C1230 C1226 1.385 . S
C1230 C1229 1.374 . S
C1231 C1228 1.499 . S
C1231 C1232 1.373 . S
C1231 C1233 1.389 . S
C1232 H1205 0.950 . S
C1232 C1218 1.377 . S
C1232 C1231 1.373 . S
C1233 C1217 1.377 . S
C1233 C1231 1.389 . S
C1233 C1234 1.524 . S
C1234 C1233 1.524 . S
C1234 C1235 1.397 . S
C1234 C1239 1.363 . S
C1235 H1206 0.950 . S
C1235 C1234 1.397 . S
C1235 C1236 1.334 . S
C1236 H1207 0.950 . S
C1236 C1235 1.334 . S
C1236 C1237 1.287 . S
C1237 C1236 1.287 . S
C1237 C1238 1.524 . S
C1237 H1240 0.999 . S
C1238 H1208 0.950 . S
C1238 C1237 1.524 . S
C1238 C1239 1.415 . S
C1239 H1209 0.950 . S
C1239 C1234 1.363 . S
C1239 C1238 1.415 . S
H1240 C1237 0.999 . S
H1241 C1222 0.913 . S
H1242 C1260 0.951 . S
H1243 C1262 0.951 . S
H1244 C1264 0.950 . S
H1245 C1265 0.950 . S
H1246 C1267 0.950 . S
H1247 C1270 0.950 . S
H1248 C1271 0.950 . S
H1249 C1273 0.950 . S
H1250 C1274 0.950 . S
H1251 C1275 0.951 . S
H1252 C1277 0.951 . S
H1253 C1279 0.950 . S
H1254 C1280 0.950 . S
H1255 C1282 0.950 . S
H1256 C1285 0.950 . S
H1257 C1286 0.950 . S
H1258 C1288 0.950 . S
H1259 C1289 0.950 . S
C1260 H1242 0.951 . S
C1260 C1261 1.366 . S
C1260 C1262 1.388 . S
C1261 C1260 1.366 . S
C1261 C1265 1.385 . S
C1262 H1243 0.951 . S
C1262 C1260 1.388 . S
C1262 C1263 1.366 . S
C1263 C1262 1.366 . S
C1263 C1264 1.414 . S
C1263 C1266 1.499 . S
C1264 H1244 0.950 . S
C1264 C1263 1.414 . S
C1264 C1265 1.374 . S
C1265 H1245 0.950 . S
C1265 C1261 1.385 . S
C1265 C1264 1.374 . S
C1266 C1263 1.499 . S
C1266 C1267 1.373 . S
C1266 C1268 1.389 . S
C1267 H1246 0.950 . S
C1267 C1266 1.373 . S
C1267 C1283 1.377 . S
C1268 C1266 1.389 . S
C1268 C1269 1.524 . S
C1268 C1282 1.377 . S
C1269 C1268 1.524 . S
C1269 C1270 1.397 . S
C1269 C1274 1.363 . S
C1270 H1247 0.950 . S
C1270 C1269 1.397 . S
C1270 C1271 1.334 . S
C1271 H1248 0.950 . S
C1271 C1270 1.334 . S
C1271 C1272 1.287 . S
C1272 C1271 1.287 . S
C1272 C1273 1.524 . S
C1272 H1291 0.913 . S
C1273 H1249 0.950 . S
C1273 C1272 1.524 . S
C1273 C1274 1.415 . S
C1274 H1250 0.950 . S
C1274 C1269 1.363 . S
C1274 C1273 1.415 . S
C1275 H1251 0.951 . S
C1275 C1276 1.366 . S
C1275 C1277 1.388 . S
C1276 C1275 1.366 . S
C1276 C1280 1.385 . S
C1277 H1252 0.951 . S
C1277 C1275 1.388 . S
C1277 C1278 1.366 . S
C1278 C1277 1.366 . S
C1278 C1279 1.414 . S
C1278 C1281 1.499 . S
C1279 H1253 0.950 . S
C1279 C1278 1.414 . S
C1279 C1280 1.374 . S
C1280 H1254 0.950 . S
C1280 C1276 1.385 . S
C1280 C1279 1.374 . S
C1281 C1278 1.499 . S
C1281 C1282 1.373 . S
C1281 C1283 1.389 . S
C1282 H1255 0.950 . S
C1282 C1268 1.377 . S
C1282 C1281 1.373 . S
C1283 C1267 1.377 . S
C1283 C1281 1.389 . S
C1283 C1284 1.524 . S
C1284 C1283 1.524 . S
C1284 C1285 1.397 . S
C1284 C1289 1.363 . S
C1285 H1256 0.950 . S
C1285 C1284 1.397 . S
C1285 C1286 1.334 . S
C1286 H1257 0.950 . S
C1286 C1285 1.334 . S
C1286 C1287 1.287 . S
C1287 C1286 1.287 . S
C1287 C1288 1.524 . S
C1287 H1290 0.999 . S
C1288 H1258 0.950 . S
C1288 C1287 1.524 . S
C1288 C1289 1.415 . S
C1289 H1259 0.950 . S
C1289 C1284 1.363 . S
C1289 C1288 1.415 . S
H1290 C1287 0.999 . S
H1291 C1272 0.913 . S
H1292 C1310 0.951 . S
H1293 C1312 0.951 . S
H1294 C1314 0.950 . S
H1295 C1315 0.950 . S
H1296 C1317 0.950 . S
H1297 C1320 0.950 . S
H1298 C1321 0.950 . S
H1299 C1323 0.950 . S
H1300 C1324 0.950 . S
H1301 C1325 0.951 . S
H1302 C1327 0.951 1_554 S
H1303 C1329 0.950 . S
H1304 C1330 0.950 . S
H1305 C1332 0.950 . S
H1306 C1335 0.950 . S
H1307 C1336 0.950 . S
H1308 C1338 0.950 . S
H1309 C1339 0.950 . S
C1310 H1292 0.951 . S
C1310 C1311 1.366 . S
C1310 C1312 1.388 . S
C1311 C1310 1.366 . S
C1311 C1315 1.385 . S
C1312 H1293 0.951 . S
C1312 C1310 1.388 . S
C1312 C1313 1.366 . S
C1313 C1312 1.366 . S
C1313 C1314 1.414 . S
C1313 C1316 1.499 . S
C1314 H1294 0.950 . S
C1314 C1313 1.414 . S
C1314 C1315 1.374 . S
C1315 H1295 0.950 . S
C1315 C1311 1.385 . S
C1315 C1314 1.374 . S
C1316 C1313 1.499 . S
C1316 C1317 1.373 . S
C1316 C1318 1.389 . S
C1317 H1296 0.950 . S
C1317 C1316 1.373 . S
C1317 C1333 1.377 . S
C1318 C1316 1.389 . S
C1318 C1319 1.524 . S
C1318 C1332 1.377 . S
C1319 C1318 1.524 . S
C1319 C1320 1.397 . S
C1319 C1324 1.363 . S
C1320 H1297 0.950 . S
C1320 C1319 1.397 . S
C1320 C1321 1.334 . S
C1321 H1298 0.950 . S
C1321 C1320 1.334 . S
C1321 C1322 1.287 . S
C1322 C1321 1.287 . S
C1322 C1323 1.524 . S
C1322 H1341 0.913 . S
C1323 H1299 0.950 . S
C1323 C1322 1.524 . S
C1323 C1324 1.415 . S
C1324 H1300 0.950 . S
C1324 C1319 1.363 . S
C1324 C1323 1.415 . S
C1325 H1301 0.951 . S
C1325 C1326 1.366 . S
C1325 C1327 1.388 . S
C1326 C1325 1.366 . S
C1326 C1330 1.385 . S
C1327 H1302 0.951 1_556 S
C1327 C1325 1.388 . S
C1327 C1328 1.366 . S
C1328 C1327 1.366 . S
C1328 C1329 1.414 . S
C1328 C1331 1.499 1_556 S
C1329 H1303 0.950 . S
C1329 C1328 1.414 . S
C1329 C1330 1.374 . S
C1330 H1304 0.950 . S
C1330 C1326 1.385 . S
C1330 C1329 1.374 . S
C1331 C1328 1.499 1_554 S
C1331 C1332 1.373 . S
C1331 C1333 1.389 . S
C1332 H1305 0.950 . S
C1332 C1318 1.377 . S
C1332 C1331 1.373 . S
C1333 C1317 1.377 . S
C1333 C1331 1.389 . S
C1333 C1334 1.543 . S
C1334 C1333 1.543 . S
C1334 C1335 1.372 1_554 S
C1334 C1339 1.370 . S
C1335 H1306 0.950 . S
C1335 C1334 1.372 1_556 S
C1335 C1336 1.334 . S
C1336 H1307 0.950 . S
C1336 C1335 1.334 . S
C1336 C1337 1.287 . S
C1337 C1336 1.287 . S
C1337 C1338 1.524 . S
C1337 H1340 0.999 . S
C1338 H1308 0.950 . S
C1338 C1337 1.524 . S
C1338 C1339 1.415 1_556 S
C1339 H1309 0.950 . S
C1339 C1334 1.370 . S
C1339 C1338 1.415 1_554 S
H1340 C1337 0.999 . S
H1341 C1322 0.913 . S
H1342 C1360 0.951 . S
H1343 C1362 0.951 . S
H1344 C1364 0.950 . S
H1345 C1365 0.950 . S
H1346 C1367 0.950 . S
H1347 C1370 0.950 . S
H1348 C1371 0.950 . S
H1349 C1373 0.950 . S
H1350 C1374 0.950 . S
H1351 C1375 0.951 . S
H1352 C1377 0.951 . S
H1353 C1379 0.950 . S
H1354 C1380 0.950 . S
H1355 C1382 0.950 . S
H1356 C1385 0.950 . S
H1357 C1386 0.950 . S
H1358 C1388 0.950 . S
H1359 C1389 0.950 . S
C1360 H1342 0.951 . S
C1360 C1361 1.366 . S
C1360 C1362 1.388 . S
C1361 C1360 1.366 . S
C1361 C1365 1.385 . S
C1362 H1343 0.951 . S
C1362 C1360 1.388 . S
C1362 C1363 1.366 . S
C1363 C1362 1.366 . S
C1363 C1364 1.414 . S
C1363 C1366 1.499 . S
C1364 H1344 0.950 . S
C1364 C1363 1.414 . S
C1364 C1365 1.374 . S
C1365 H1345 0.950 . S
C1365 C1361 1.385 . S
C1365 C1364 1.374 . S
C1366 C1363 1.499 . S
C1366 C1367 1.373 . S
C1366 C1368 1.389 . S
C1367 H1346 0.950 . S
C1367 C1366 1.373 . S
C1367 C1383 1.377 . S
C1368 C1366 1.389 . S
C1368 C1369 1.524 . S
C1368 C1382 1.377 . S
C1369 C1368 1.524 . S
C1369 C1370 1.397 . S
C1369 C1374 1.363 . S
C1370 H1347 0.950 . S
C1370 C1369 1.397 . S
C1370 C1371 1.334 . S
C1371 H1348 0.950 . S
C1371 C1370 1.334 . S
C1371 C1372 1.287 . S
C1372 C1371 1.287 . S
C1372 C1373 1.524 . S
C1372 H1391 0.913 . S
C1373 H1349 0.950 . S
C1373 C1372 1.524 . S
C1373 C1374 1.415 . S
C1374 H1350 0.950 . S
C1374 C1369 1.363 . S
C1374 C1373 1.415 . S
C1375 H1351 0.951 . S
C1375 C1376 1.366 . S
C1375 C1377 1.388 . S
C1376 C1375 1.366 . S
C1376 C1380 1.385 . S
C1377 H1352 0.951 . S
C1377 C1375 1.388 . S
C1377 C1378 1.366 . S
C1378 C1377 1.366 . S
C1378 C1379 1.414 . S
C1378 C1381 1.499 . S
C1379 H1353 0.950 . S
C1379 C1378 1.414 . S
C1379 C1380 1.374 . S
C1380 H1354 0.950 . S
C1380 C1376 1.385 . S
C1380 C1379 1.374 . S
C1381 C1378 1.499 . S
C1381 C1382 1.373 . S
C1381 C1383 1.389 . S
C1382 H1355 0.950 . S
C1382 C1368 1.377 . S
C1382 C1381 1.373 . S
C1383 C1367 1.377 . S
C1383 C1381 1.389 . S
C1383 C1384 1.524 . S
C1384 C1383 1.524 . S
C1384 C1385 1.397 . S
C1384 C1389 1.363 . S
C1385 H1356 0.950 . S
C1385 C1384 1.397 . S
C1385 C1386 1.334 . S
C1386 H1357 0.950 . S
C1386 C1385 1.334 . S
C1386 C1387 1.287 . S
C1387 C1386 1.287 . S
C1387 C1388 1.524 . S
C1387 H1390 0.999 . S
C1388 H1358 0.950 . S
C1388 C1387 1.524 . S
C1388 C1389 1.415 . S
C1389 H1359 0.950 . S
C1389 C1384 1.363 . S
C1389 C1388 1.415 . S
H1390 C1387 0.999 . S
H1391 C1372 0.913 . S
C226 C185 1.567 . S
C211 C8 1.525 . S
C261 C26 1.419 . S
C276 C119 1.451 . S
C311 C50 1.347 . S
C326 C133 1.381 . S
C361 C68 1.401 . S
C376 C147 1.438 . S
C426 C161 1.453 . S
C411 C80 1.422 . S
C461 C104 1.459 . S
C476 C171 1.503 . S
C511 C32 1.523 . S
C526 C129 1.569 . S
C561 C44 1.579 . S
C576 C143 1.629 . S
C611 C62 1.501 . S
C626 C157 1.547 . S
C676 C175 1.440 . S
C661 C86 1.405 1_554 S
C726 C189 1.495 . S
C711 C98 1.458 . S
C776 C115 1.549 . S
C761 C14 1.505 . S
C811 C7 1.471 . S
C826 C130 1.458 . S
C861 C25 1.548 . S
C876 C144 1.538 . S
C926 C158 1.542 . S
C911 C52 1.556 . S
C961 C70 1.444 . S
C976 C177 1.416 . S
C1026 C191 1.389 . S
C1011 C79 1.418 . S
C1076 C116 1.436 . S
C1061 C106 1.450 . S
C1126 C186 1.432 . S
C1111 C34 1.446 . S
C1161 C43 1.333 . S
C1176 C121 1.311 . S
C1226 C135 1.325 . S
C1211 C61 1.344 . S
C1261 C88 1.423 . S
C1276 C149 1.397 . S
C1311 C97 1.436 . S
C1326 C163 1.410 . S
C1361 C16 1.477 . S
C1376 C172 1.461 . S
