# Generated by pormake.
# Topology anh, (6,3)-cn, num edge types: 1
# Building blocks:
#     Node 0, Type 0, BuildingBlock: PAMTUU_clean_sbu_0, # of connection points: 6
#     Node 1, Type 0, BuildingBlock: PAMTUU_clean_sbu_0, # of connection points: 6
#     Node 2, Type 0, BuildingBlock: PAMTUU_clean_sbu_0, # of connection points: 6
#     Node 3, Type 1, BuildingBlock: BETDIP_clean_linker_0, # of connection points: 3
#     Node 4, Type 1, BuildingBlock: BETDIP_clean_linker_0, # of connection points: 3
#     Node 5, Type 1, BuildingBlock: BETDIP_clean_linker_0, # of connection points: 3
#     Node 6, Type 1, BuildingBlock: BETDIP_clean_linker_0, # of connection points: 3
#     Node 7, Type 1, BuildingBlock: BETDIP_clean_linker_0, # of connection points: 3
#     Node 8, Type 1, BuildingBlock: BETDIP_clean_linker_0, # of connection points: 3
#     Edge 9, Type (0, 1), BuildingBlock: EZIPEK_clean_linker_0, # of connection points: 2
#     Edge 10, Type (0, 1), BuildingBlock: EZIPEK_clean_linker_0, # of connection points: 2
#     Edge 11, Type (0, 1), BuildingBlock: EZIPEK_clean_linker_0, # of connection points: 2
#     Edge 12, Type (0, 1), BuildingBlock: EZIPEK_clean_linker_0, # of connection points: 2
#     Edge 13, Type (0, 1), BuildingBlock: EZIPEK_clean_linker_0, # of connection points: 2
#     Edge 14, Type (0, 1), BuildingBlock: EZIPEK_clean_linker_0, # of connection points: 2
#     Edge 15, Type (0, 1), BuildingBlock: EZIPEK_clean_linker_0, # of connection points: 2
#     Edge 16, Type (0, 1), BuildingBlock: EZIPEK_clean_linker_0, # of connection points: 2
#     Edge 17, Type (0, 1), BuildingBlock: EZIPEK_clean_linker_0, # of connection points: 2
#     Edge 18, Type (0, 1), BuildingBlock: EZIPEK_clean_linker_0, # of connection points: 2
#     Edge 19, Type (0, 1), BuildingBlock: EZIPEK_clean_linker_0, # of connection points: 2
#     Edge 20, Type (0, 1), BuildingBlock: EZIPEK_clean_linker_0, # of connection points: 2
#     Edge 21, Type (0, 1), BuildingBlock: EZIPEK_clean_linker_0, # of connection points: 2
#     Edge 22, Type (0, 1), BuildingBlock: EZIPEK_clean_linker_0, # of connection points: 2
#     Edge 23, Type (0, 1), BuildingBlock: EZIPEK_clean_linker_0, # of connection points: 2
#     Edge 24, Type (0, 1), BuildingBlock: EZIPEK_clean_linker_0, # of connection points: 2
#     Edge 25, Type (0, 1), BuildingBlock: EZIPEK_clean_linker_0, # of connection points: 2
#     Edge 26, Type (0, 1), BuildingBlock: EZIPEK_clean_linker_0, # of connection points: 2
# Relax obj value: 0.387
# Max RMSD: 0.177
# Mean RMSD: 0.128
data_MOF--net-anh--node1-PAMTUU_clean_sbu_0--node2-BETDIP_clean_linker_0--edge1-EZIPEK_clean_linker_0
_symmetry_space_group_name_H-M    P1
_symmetry_Int_Tables_number       1
_symmetry_cell_setting            triclinic
loop_
_symmetry_equiv_pos_as_xyz
'x, y, z'
_cell_length_a     22.68489
_cell_length_b     22.334177
_cell_length_c     36.707466
_cell_angle_alpha  93.105057
_cell_angle_beta   94.327041
_cell_angle_gamma 120.31102
loop_
_atom_site_label
_atom_site_type_symbol
_atom_site_fract_x
_atom_site_fract_y
_atom_site_fract_z
_atom_type_partial_charge
Tb0 Tb 1.16657 0.78167 0.16132 0.0
Tb1 Tb 0.24596 0.69681 0.16605 0.0
C2 C 0.21289 0.73674 0.09042 0.0
C3 C 1.0327 0.82326 0.17233 0.0
C4 C 0.90323 0.73772 0.19497 0.0
C5 C 0.90868 0.75509 0.15868 0.0
C6 C 0.97305 0.79809 0.14749 0.0
C7 C 1.02633 0.81444 0.2098 0.0
C8 C 0.96165 0.77249 0.22113 0.0
C9 C 1.09786 0.84202 0.1576 0.0
O10 O 1.08533 0.67672 0.17454 0.0
O11 O 1.1355 0.6134 0.15938 0.0
O12 O 0.21532 0.69691 0.21967 0.0
O13 O 0.19579 0.78813 0.22006 0.0
O14 O 0.25093 0.61052 0.14589 0.0
O15 O 0.32233 0.68155 0.19183 0.0
O16 O 0.32973 0.80753 0.18027 0.0
O17 O 0.27527 0.86309 0.15756 0.0
O18 O 1.16544 0.74485 0.10441 0.0
O19 O 0.25777 0.72978 0.11129 0.0
C20 C 1.08143 0.61554 0.1689 0.0
O21 O 1.15189 0.86286 0.18132 0.0
O22 O 1.09273 0.7964 0.13201 0.0
C23 C 0.20612 0.74343 0.23693 0.0
C24 C 0.36263 0.63273 0.14991 0.0
C25 C 0.46309 0.63162 0.11147 0.0
C26 C 0.43725 0.67458 0.10206 0.0
C27 C 0.38723 0.67543 0.12144 0.0
C28 C 0.38949 0.59092 0.15972 0.0
C29 C 0.43985 0.5905 0.14056 0.0
C30 C 0.30631 0.62869 0.16801 0.0
C31 C 0.33232 0.86547 0.17129 0.0
H32 H 0.86419 0.72924 0.13803 0.0
H33 H 0.97662 0.80483 0.11856 0.0
H34 H 1.07135 0.83395 0.22976 0.0
H35 H 0.95825 0.76072 0.24941 0.0
H36 H 0.45524 0.70654 0.07964 0.0
H37 H 0.3667 0.70807 0.11378 0.0
H38 H 0.37064 0.55781 0.18164 0.0
H39 H 0.45991 0.55728 0.14793 0.0
Tb40 Tb 0.57073 0.15755 0.48897 0.0
Tb41 Tb 0.73521 0.24129 0.51285 0.0
C42 C 0.67348 0.21058 0.42821 0.0
C43 C 0.39148 1.00951 0.4788 0.0
C44 C 0.3219 0.87001 0.49433 0.0
C45 C 0.33645 0.8861 0.45849 0.0
C46 C 0.37068 0.95516 0.45074 0.0
C47 C 0.3699 0.99289 0.51375 0.0
C48 C 0.3358 0.9233 0.52161 0.0
C49 C 0.44203 1.08164 0.47212 0.0
O50 O 0.59832 1.0755 0.49887 0.0
O51 O 0.71573 0.13491 0.4993 0.0
O52 O 0.69026 0.19033 0.56088 0.0
O53 O 0.58422 0.1773 0.54839 0.0
O54 O 0.8267 0.25589 0.54083 0.0
O55 O 0.8258 0.33759 0.51272 0.0
O56 O 0.70033 0.31636 0.52595 0.0
O57 O 0.59758 0.26784 0.4893 0.0
O58 O 0.61164 0.18899 0.43725 0.0
O59 O 0.72653 0.22846 0.45272 0.0
C60 C 0.65727 1.07577 0.50027 0.0
O61 O 0.47063 0.12873 0.50044 0.0
O62 O 0.48739 1.08695 0.45074 0.0
C63 C 0.62946 0.17259 0.57042 0.0
C64 C 0.92383 0.32905 0.51196 0.0
C65 C 1.03613 0.36109 0.47307 0.0
C66 C 1.04364 0.40536 0.5039 0.0
C67 C 0.98768 0.38936 0.52326 0.0
C68 C 0.9166 0.28404 0.48152 0.0
C69 C 0.97263 0.29988 0.46224 0.0
C70 C 0.86382 0.31721 0.52984 0.0
C71 C 0.64975 0.3223 0.50957 0.0
H72 H 0.32554 0.84539 0.43702 0.0
H73 H 0.38498 0.96617 0.42332 0.0
H74 H 0.38346 1.03367 0.53568 0.0
H75 H 0.32446 0.91155 0.54936 0.0
H76 H 1.09234 0.45294 0.5124 0.0
H77 H 0.99373 0.42496 0.54644 0.0
H78 H 0.8673 0.23772 0.47218 0.0
H79 H 0.96615 0.26543 0.43839 0.0
Tb80 Tb 0.71621 0.61469 0.82474 0.0
Tb81 Tb 0.80875 0.77895 0.84362 0.0
C82 C 0.75114 0.70945 0.76066 0.0
C83 C 0.65349 0.42361 0.82427 0.0
C84 C 0.63222 0.29449 0.84229 0.0
C85 C 0.64209 0.31235 0.80626 0.0
C86 C 0.65257 0.37636 0.79733 0.0
C87 C 0.64906 0.40818 0.86104 0.0
C88 C 0.63893 0.34384 0.87007 0.0
C89 C 0.65071 0.48385 0.8123 0.0
O90 O 0.82604 0.63861 0.82643 0.0
O91 O 0.89325 0.75707 0.83975 0.0
O92 O 0.83305 0.73579 0.89061 0.0
O93 O 0.7319 0.63272 0.88402 0.0
O94 O 0.85524 0.88049 0.82727 0.0
O95 O 0.85252 0.86444 0.88439 0.0
O96 O 0.70076 0.75302 0.85111 0.0
O97 O 0.63325 0.63965 0.82657 0.0
O98 O 0.70631 0.65179 0.77291 0.0
O99 O 0.79989 0.76245 0.78311 0.0
C100 C 0.88849 0.6957 0.83297 0.0
O101 O 0.63628 0.51839 0.83614 0.0
O102 O 0.69859 0.52473 0.79303 0.0
C103 C 0.78978 0.67805 0.90357 0.0
C104 C 0.81532 0.93938 0.86361 0.0
C105 C 0.69191 0.93574 0.84405 0.0
C106 C 0.75011 0.97811 0.8266 0.0
C107 C 0.8116 0.97906 0.83604 0.0
C108 C 0.76224 0.91148 0.88636 0.0
C109 C 0.70052 0.9089 0.87628 0.0
C110 C 0.85841 0.90738 0.86034 0.0
C111 C 0.6384 0.69794 0.84076 0.0
H112 H 0.63705 0.27472 0.78446 0.0
H113 H 0.65592 0.38722 0.76889 0.0
H114 H 0.64996 0.4441 0.88242 0.0
H115 H 0.63204 0.33098 0.89805 0.0
H116 H 0.7449 1.00106 0.80219 0.0
H117 H 0.8522 1.00233 0.81853 0.0
H118 H 0.76409 0.88266 0.90879 0.0
H119 H 0.65722 0.87883 0.89113 0.0
H120 H 0.64773 0.17849 0.16182 0.0
H121 H 0.76956 0.29188 0.26556 0.0
H122 H 0.57568 1.1048 0.26523 0.0
H123 H 0.82778 0.38031 0.23628 0.0
C124 C 0.82707 0.36545 0.20762 0.0
C125 C 0.65518 0.18437 0.19155 0.0
C126 C 0.60281 0.13247 0.21107 0.0
C127 C 0.7168 0.24444 0.21064 0.0
C128 C 0.7241 0.24964 0.24957 0.0
C129 C 0.67333 0.19991 0.26899 0.0
C130 C 0.61412 0.14236 0.24971 0.0
N131 N 0.77041 0.29735 0.19102 0.0
H132 H 0.64775 0.63473 0.49462 0.0
H133 H 0.69908 0.77311 0.59425 0.0
H134 H 0.69537 0.5801 0.59948 0.0
H135 H 0.63494 0.80977 0.56466 0.0
C136 C 0.6482 0.81337 0.53676 0.0
C137 C 0.66194 0.64691 0.52404 0.0
C138 C 0.67071 0.59825 0.54483 0.0
C139 C 0.67052 0.71085 0.54156 0.0
C140 C 0.68997 0.72504 0.57994 0.0
C141 C 0.69882 0.67826 0.60066 0.0
C142 C 0.68904 0.61583 0.58304 0.0
N143 N 0.66199 0.76092 0.5209 0.0
H144 H 0.20797 0.69998 0.82441 0.0
H145 H 0.31542 0.72 0.93155 0.0
H146 H 1.12339 0.7141 0.92391 0.0
H147 H 0.37706 0.68613 0.9043 0.0
C148 C 0.38127 0.69859 0.87616 0.0
C149 C 0.21164 0.70505 0.8541 0.0
C150 C 1.15702 0.70681 0.87152 0.0
C151 C 0.27056 0.70886 0.87527 0.0
C152 C 0.27253 0.71535 0.91407 0.0
C153 C 0.21969 0.71707 0.93135 0.0
C154 C 1.1635 0.71306 0.91004 0.0
N155 N 0.32668 0.70756 0.85787 0.0
H156 H 0.28581 0.55901 0.44462 0.0
H157 H 0.26778 0.59196 0.33088 0.0
H158 H 0.2413 0.71665 0.4134 0.0
H159 H 0.29364 0.42288 0.38595 0.0
C160 C 0.26872 0.45274 0.39067 0.0
C161 C 0.27662 0.58663 0.42373 0.0
C162 C 0.2649 0.64099 0.43384 0.0
C163 C 0.27828 0.56929 0.38647 0.0
C164 C 0.26662 0.60538 0.35954 0.0
C165 C 0.25148 0.65718 0.36931 0.0
C166 C 0.25098 0.67489 0.40622 0.0
N167 N 0.29383 0.51733 0.37545 0.0
H168 H 0.46294 0.95579 0.79202 0.0
H169 H 0.48366 0.93156 0.67747 0.0
H170 H 0.58599 0.13594 0.73806 0.0
H171 H 0.37879 0.77109 0.76377 0.0
C172 C 0.42309 0.82255 0.76274 0.0
C173 C 0.48563 0.9776 0.76764 0.0
C174 C 0.52922 1.04946 0.76902 0.0
C175 C 0.46923 0.93468 0.73473 0.0
C176 C 0.49644 0.96481 0.70291 0.0
C177 C 0.53848 1.03792 0.70368 0.0
C178 C 0.55431 1.07965 0.737 0.0
N179 N 0.42346 0.86152 0.73322 0.0
H180 H 0.62247 0.50677 0.10774 0.0
H181 H 0.80349 0.52834 0.06502 0.0
H182 H 0.69446 0.62178 0.01618 0.0
H183 H 0.63994 0.4421 0.1531 0.0
C184 C 0.69511 0.47564 0.15352 0.0
C185 C 0.66006 0.52637 0.08852 0.0
C186 C 0.65506 0.56745 0.06276 0.0
C187 C 0.71436 0.51324 0.09045 0.0
C188 C 0.76109 0.53783 0.06396 0.0
C189 C 0.75302 0.57591 0.03645 0.0
C190 C 0.69985 0.59045 0.0363 0.0
N191 N 0.72456 0.47956 0.12007 0.0
C192 C 0.49037 0.5697 0.06351 0.0
C193 C 0.51351 0.62724 0.09055 0.0
C194 C 0.63209 0.6559 0.09048 0.0
C195 C 0.60828 0.59384 0.06697 0.0
N196 N 0.52021 0.49922 0.02476 0.0
N197 N 0.60768 0.73107 0.12616 0.0
C198 C 0.53891 0.55329 0.05114 0.0
C199 C 0.58435 0.67274 0.10227 0.0
N200 N 0.42178 0.52968 0.05114 0.0
N201 N 0.70046 0.69805 0.10279 0.0
H202 H 0.57615 0.74776 0.13649 0.0
H203 H 0.57615 0.74776 0.13649 0.0
H204 H 0.7382 0.68784 0.09523 0.0
H205 H 0.71938 0.74407 0.12017 0.0
H206 H 0.39974 0.4838 0.03354 0.0
H207 H 0.38587 0.54256 0.05885 0.0
H208 H 0.47111 0.46845 0.01075 0.0
H209 H 0.55555 0.48697 0.01536 0.0
C210 C 1.09287 0.40585 0.41667 0.0
C211 C 1.09419 0.38058 0.45114 0.0
C212 C 0.20996 0.40149 0.44591 0.0
C213 C 0.20672 0.42279 0.41046 0.0
N214 N 1.13758 0.42556 0.35799 0.0
N215 N 1.14733 0.34126 0.49559 0.0
C216 C 1.14586 0.41909 0.39456 0.0
C217 C 1.15078 0.37434 0.46487 0.0
N218 N 1.04235 0.41951 0.40555 0.0
N219 N 0.27041 0.41023 0.46219 0.0
H220 H 1.10483 0.32105 0.51026 0.0
H221 H 0.18386 0.32859 0.50472 0.0
H222 H 0.31486 0.42953 0.44916 0.0
H223 H 0.2781 0.40337 0.48961 0.0
H224 H 1.0435 0.44542 0.3826 0.0
H225 H 1.0025 0.4107 0.42101 0.0
H226 H 1.09173 0.41726 0.34428 0.0
H227 H 0.17402 0.43183 0.3405 0.0
C228 C 0.60602 0.86472 0.78926 0.0
C229 C 0.62148 0.90423 0.82403 0.0
C230 C 0.50039 0.8706 0.82247 0.0
C231 C 0.48856 0.84228 0.78538 0.0
N232 N 0.52921 0.81273 0.73248 0.0
N233 N 0.58489 0.95169 0.87197 0.0
C234 C 0.54137 0.83992 0.76839 0.0
C235 C 0.56886 0.90853 0.8404 0.0
N236 N 0.65152 0.84737 0.77713 0.0
N237 N 0.44637 0.8623 0.84021 0.0
H238 H 0.635 0.98216 0.88508 0.0
H239 H 0.54984 0.96221 0.88319 0.0
H240 H 0.39594 0.83631 0.82728 0.0
H241 H 0.45083 0.87588 0.86831 0.0
H242 H 0.64352 0.81951 0.75192 0.0
H243 H 0.69474 0.85497 0.79356 0.0
H244 H 0.56781 0.81838 0.71686 0.0
H245 H 0.48045 0.78723 0.71752 0.0
C246 C 0.85044 0.61457 0.20908 0.0
C247 C 0.84181 0.67155 0.20191 0.0
C248 C 0.71927 0.59141 0.18255 0.0
C249 C 0.73282 0.53614 0.18197 0.0
N250 N 0.79492 0.48948 0.21216 0.0
N251 N 0.76676 0.71719 0.19272 0.0
C252 C 0.79332 0.54597 0.20125 0.0
C253 C 0.7751 0.66079 0.19271 0.0
N254 N 0.91505 0.62746 0.21955 0.0
N255 N 0.65369 0.57685 0.17318 0.0
H256 H 0.80775 0.7677 0.20101 0.0
H257 H 0.72005 0.71438 0.18595 0.0
H258 H 0.61246 0.52554 0.16882 0.0
H259 H 0.63938 0.61419 0.1715 0.0
H260 H 0.92786 0.58909 0.2225 0.0
H261 H 0.92786 0.58909 0.2225 0.0
H262 H 0.8344 0.49357 0.23049 0.0
H263 H 0.75222 0.43916 0.20616 0.0
C264 C 0.35505 0.78215 0.50505 0.0
C265 C 0.30243 0.79882 0.50298 0.0
C266 C 0.21715 0.67749 0.48227 0.0
C267 C 0.27155 0.66858 0.47266 0.0
N268 N 0.38665 0.69496 0.49097 0.0
N269 N 0.18256 0.7611 0.49971 0.0
C270 C 0.33877 0.71477 0.49021 0.0
C271 C 0.23264 0.74519 0.49611 0.0
N272 N 0.4208 0.83293 0.51807 0.0
N273 N 1.15147 0.62278 0.47423 0.0
H274 H 0.19446 0.81082 0.51024 0.0
H275 H 1.13032 0.72591 0.4925 0.0
H276 H 1.1418 0.57427 0.46284 0.0
H277 H 1.10821 0.62408 0.48064 0.0
H278 H 0.4634 0.82706 0.51778 0.0
H279 H 0.43235 0.88196 0.52955 0.0
H280 H 0.43639 0.72497 0.50433 0.0
H281 H 0.37422 0.64507 0.48077 0.0
C282 C 0.64679 0.19237 0.84172 0.0
C283 C 0.60443 0.22042 0.84782 0.0
C284 C 0.50418 1.11664 0.81587 0.0
C285 C 0.5489 1.09479 0.80384 0.0
N286 N 0.65471 1.09479 0.81519 0.0
N287 N 0.49161 0.19739 0.85697 0.0
C288 C 0.6176 0.12652 0.82071 0.0
C289 C 0.53225 0.17737 0.84107 0.0
N290 N 0.71554 0.23223 0.85313 0.0
N291 N 0.43688 1.08315 0.80099 0.0
H292 H 0.51242 0.24234 0.87537 0.0
H293 H 0.43827 0.16635 0.85491 0.0
H294 H 0.41454 1.03794 0.78269 0.0
H295 H 0.40393 1.10177 0.80549 0.0
H296 H 0.75151 0.21881 0.84655 0.0
H297 H 0.73606 0.28019 0.86902 0.0
H298 H 0.70408 1.11325 0.82815 0.0
H299 H 0.63329 1.04643 0.79962 0.0
C300 C 0.61495 0.94373 0.48357 0.0
C301 C 0.65881 1.00814 0.50632 0.0
C302 C 0.70821 0.94606 0.54024 0.0
C303 C 0.659 0.88035 0.52068 0.0
N304 N 0.56163 0.81661 0.47472 0.0
N305 N 0.73969 1.06444 0.5612 0.0
C306 C 0.61163 0.87946 0.49242 0.0
C307 C 0.7039 1.00758 0.53566 0.0
N308 N 0.57781 0.94419 0.45264 0.0
N309 N 0.76053 0.95001 0.5633 0.0
H310 H 0.73726 1.10954 0.5602 0.0
H311 H 0.76638 1.06446 0.58556 0.0
H312 H 0.76544 0.9067 0.56718 0.0
H313 H 0.8027 0.99694 0.57542 0.0
H314 H 0.54983 0.90146 0.43289 0.0
H315 H 0.5798 0.98944 0.44503 0.0
H316 H 0.5202 0.81006 0.45706 0.0
H317 H 0.5597 0.77005 0.4795 0.0
C318 C 1.02092 0.7522 0.82961 0.0
C319 C 0.95651 0.69196 0.83488 0.0
C320 C 1.02613 0.63529 0.85093 0.0
C321 C 1.08977 0.69941 0.85217 0.0
N322 N 1.14561 0.8216 0.84512 0.0
N323 N 0.9019 0.57111 0.84845 0.0
C324 C 1.08624 0.75835 0.84205 0.0
C325 C 0.96041 0.63201 0.84455 0.0
N326 N 1.02021 0.80225 0.81013 0.0
N327 N 1.02846 0.57599 0.8549 0.0
H328 H 0.85336 0.55754 0.83653 0.0
H329 H 0.90173 0.53255 0.86325 0.0
H330 H 1.0747 0.57651 0.85949 0.0
H331 H 0.98557 0.52588 0.85022 0.0
H332 H 1.06451 0.84428 0.8026 0.0
H333 H 0.97505 0.79648 0.79691 0.0
H334 H 1.14642 0.8683 0.84281 0.0
H335 H 0.19383 0.8276 0.85236 0.0
C336 C 0.40669 0.99672 0.19651 0.0
C337 C 0.40165 0.93612 0.1778 0.0
C338 C 0.52961 1.00646 0.17701 0.0
C339 C 0.5336 1.06795 0.19362 0.0
N340 N 0.47089 0.12315 0.211 0.0
N341 N 0.45933 0.89069 0.14316 0.0
C342 C 0.47034 1.06322 0.20058 0.0
C343 C 0.46357 0.94333 0.16607 0.0
N344 N 0.35196 0.99033 0.2129 0.0
N345 N 0.58922 1.00714 0.1729 0.0
H346 H 0.41277 0.84542 0.13369 0.0
H347 H 0.50071 0.89483 0.13061 0.0
H348 H 0.63754 1.05193 0.17953 0.0
H349 H 0.59089 0.96244 0.16533 0.0
H350 H 0.35457 1.03022 0.2303 0.0
H351 H 0.30605 0.94308 0.21248 0.0
H352 H 0.42632 0.12513 0.21293 0.0
H353 H 0.51573 0.17211 0.21393 0.0
C354 C 0.70924 0.45584 0.506 0.0
C355 C 0.65183 0.39276 0.51487 0.0
C356 C 0.59979 0.46378 0.53359 0.0
C357 C 0.66057 0.52754 0.52886 0.0
N358 N 0.77654 0.58321 0.51368 0.0
N359 N 0.54542 0.33997 0.5417 0.0
C360 C 0.71597 0.52296 0.51573 0.0
C361 C 0.59759 0.39773 0.52951 0.0
N362 N 0.75659 0.45161 0.48684 0.0
N363 N 0.54333 0.46631 0.54185 0.0
H364 H 0.54234 0.29171 0.53998 0.0
H365 H 0.50845 0.34101 0.55644 0.0
H366 H 0.54339 0.51305 0.54519 0.0
H367 H 0.49501 0.42221 0.54202 0.0
H368 H 0.7956 0.49391 0.476 0.0
H369 H 0.753 0.40431 0.47866 0.0
H370 H 0.82188 0.58456 0.50901 0.0
H371 H 0.78247 0.63244 0.51898 0.0
C372 C 0.56781 0.73159 0.88176 0.0
C373 C 0.57205 0.70088 0.84755 0.0
C374 C 0.45001 0.67249 0.82875 0.0
C375 C 0.44865 0.70787 0.862 0.0
N376 N 0.51655 0.78719 0.91548 0.0
N377 N 0.51539 0.6489 0.78626 0.0
C378 C 0.51087 0.74223 0.88682 0.0
C379 C 0.51251 0.67347 0.82049 0.0
N380 N 0.61594 0.74658 0.91093 0.0
N381 N 0.39041 0.63445 0.80559 0.0
H382 H 0.55634 0.64362 0.77964 0.0
H383 H 0.47918 0.63781 0.76384 0.0
H384 H 0.34535 0.63387 0.81011 0.0
H385 H 0.38431 0.60008 0.78333 0.0
H386 H 0.61198 0.76198 0.9375 0.0
H387 H 0.65565 0.73613 0.9097 0.0
H388 H 0.56232 0.81944 0.93249 0.0
H389 H 0.47774 0.7981 0.91957 0.0
C390 C 1.01859 0.50621 0.2041 0.0
C391 C 1.01584 0.54651 0.17563 0.0
C392 C 0.88966 0.45699 0.16144 0.0
C393 C 0.89224 0.41929 0.19111 0.0
N394 N 0.96322 0.40012 0.23494 0.0
N395 N 0.94561 0.56075 0.12854 0.0
C396 C 0.95806 0.44215 0.21071 0.0
C397 C 0.95041 0.5214 0.15452 0.0
N398 N 1.07864 0.53133 0.2267 0.0
N399 N 0.8292 0.4301 0.13912 0.0
H400 H 0.98842 0.60516 0.12147 0.0
H401 H 0.89928 0.55194 0.11536 0.0
H402 H 0.7846 0.3851 0.14402 0.0
H403 H 0.82454 0.44842 0.11425 0.0
H404 H 1.08282 0.51162 0.25117 0.0
H405 H 1.12411 0.57573 0.22259 0.0
H406 H 1.00955 0.40781 0.24748 0.0
H407 H 0.92101 0.35288 0.23985 0.0
C408 C 0.2676 0.78849 0.03376 0.0
C409 C 0.21468 0.73232 0.04971 0.0
C410 C 0.17245 0.66306 0.98906 0.0
C411 C 0.22117 0.72149 0.97252 0.0
N412 N 0.30901 0.84316 0.97837 0.0
N413 N 1.11219 0.61845 0.04222 0.0
C414 C 0.26741 0.78505 -0.00528 0.0
C415 C 1.16564 0.67036 0.02719 0.0
N416 N 0.31841 0.84515 0.05598 0.0
N417 N 1.1344 0.59968 0.96851 0.0
H418 H 1.10713 0.62031 0.07021 0.0
H419 H 1.07026 0.57568 0.02671 0.0
H420 H 1.13869 0.5921 0.94076 0.0
H421 H 1.10319 0.55336 0.97949 0.0
H422 H 0.36286 0.88387 0.0467 0.0
H423 H 0.31841 0.85137 0.08434 0.0
H424 H 0.33816 0.89291 -0.00755 0.0
H425 H 0.31051 0.8428 0.95004 0.0
C426 C 0.69722 0.16683 0.36909 0.0
C427 C 0.68248 0.21399 0.38819 0.0
C428 C 0.66378 0.2536 0.3293 0.0
C429 C 0.68098 0.20834 0.31033 0.0
N430 N 0.72659 0.13174 0.31261 0.0
N431 N 0.66571 0.31212 0.38758 0.0
C432 C 0.70169 0.16809 0.33045 0.0
C433 C 0.66995 0.26034 0.36855 0.0
N434 N 0.70339 1.11829 0.3875 0.0
N435 N 0.63895 0.2882 0.30972 0.0
H436 H 0.67057 0.31886 0.41622 0.0
H437 H 0.66372 0.35213 0.37533 0.0
H438 H 0.63483 0.28566 0.28111 0.0
H439 H 0.61783 0.31541 0.32153 0.0
H440 H 0.70593 1.07718 0.37452 0.0
H441 H 0.70088 1.11585 0.41567 0.0
H442 H 0.74932 1.10727 0.32607 0.0
H443 H 0.72983 0.13094 0.2844 0.0
C444 C 0.7952 0.72064 0.69802 0.0
C445 C 0.7433 0.71329 0.71995 0.0
C446 C 0.66263 0.6826 0.66373 0.0
C447 C 0.71524 0.69311 0.64176 0.0
N448 N 0.83499 0.73463 0.6376 0.0
N449 N 0.63333 0.70318 0.72337 0.0
C450 C 0.78268 0.71614 0.65884 0.0
C451 C 0.67875 0.69906 0.70257 0.0
N452 N 0.85497 0.72796 0.71437 0.0
N453 N 0.59643 0.65428 0.64764 0.0
H454 H 0.64523 0.71792 0.75159 0.0
H455 H 0.58793 0.69986 0.71244 0.0
H456 H 0.5824 0.64185 0.61933 0.0
H457 H 0.55446 0.63771 0.66246 0.0
H458 H 0.89138 0.7254 0.69977 0.0
H459 H 0.86612 0.73155 0.74275 0.0
H460 H 0.88652 0.75869 0.64835 0.0
H461 H 0.82742 0.73117 0.60899 0.0
C462 C 0.54109 1.07918 0.60439 0.0
C463 C 0.60789 0.13864 0.60489 0.0
C464 C 0.63394 0.12195 0.66838 0.0
C465 C 0.56328 1.07168 0.66948 0.0
N466 N 0.44662 1.01905 0.63963 0.0
N467 N 0.71441 0.22435 0.64123 0.0
C468 C 0.5159 1.05522 0.63787 0.0
C469 C 0.6536 0.16236 0.63801 0.0
N470 N 0.50275 1.04178 0.5722 0.0
N471 N 0.68263 0.12949 0.69546 0.0
H472 H 0.72898 0.25742 0.6205 0.0
H473 H 0.74651 0.24631 0.66597 0.0
H474 H 0.67082 1.09816 0.71697 0.0
H475 H 0.73522 0.16129 0.69417 0.0
H476 H 0.45813 0.99331 0.57179 0.0
H477 H 0.51962 1.05352 0.54658 0.0
H478 H 0.41109 1.01071 0.61728 0.0
H479 H 0.42523 1.00488 0.66414 0.0
C480 C 0.83037 0.70403 0.97232 0.0
C481 C 0.80744 0.65836 0.93921 0.0
C482 C 0.7831 0.55974 0.97449 0.0
C483 C 0.79847 0.60379 0.00714 0.0
N484 N 0.86274 0.71912 0.03845 0.0
N485 N 0.79048 0.55088 0.90929 0.0
C486 C 0.8329 0.67688 0.00623 0.0
C487 C 0.79367 0.58889 0.94053 0.0
N488 N 0.84346 0.77076 0.97201 0.0
N489 N 0.75304 0.48943 0.97564 0.0
H490 H 0.79802 0.57096 0.88404 0.0
H491 H 0.78721 0.50263 0.90916 0.0
H492 H 0.74741 0.4672 0.00034 0.0
H493 H 0.7316 0.4534 0.9523 0.0
H494 H 0.85301 0.80339 -0.00419 0.0
H495 H 0.84005 0.79236 0.94811 0.0
H496 H 0.89264 0.77327 0.03989 0.0
H497 H 0.86242 0.69844 0.06335 0.0
C498 C 0.27576 0.78127 0.29767 0.0
C499 C 0.20996 0.74394 0.27708 0.0
C500 C 0.16715 0.65948 0.32206 0.0
C501 C 0.23496 0.69236 0.34062 0.0
N502 N 0.34894 0.79376 0.35288 0.0
N503 N 1.0891 0.66339 0.27415 0.0
C504 C 0.28763 0.75689 0.33084 0.0
C505 C 1.15408 0.68858 0.29119 0.0
N506 N 0.32765 0.83696 0.28391 0.0
N507 N 1.1164 0.59904 0.33304 0.0
H508 H 1.07979 0.68537 0.25163 0.0
H509 H 1.04468 0.62538 0.28374 0.0
H510 H 1.12382 0.57782 0.35637 0.0
H511 H 1.06773 0.56835 0.31846 0.0
H512 H 0.3791 0.86198 0.29484 0.0
H513 H 0.31874 0.85712 0.26048 0.0
H514 H 0.38732 0.84388 0.34906 0.0
H515 H 0.35985 0.77609 0.37674 0.0
loop_
_geom_bond_atom_site_label_1
_geom_bond_atom_site_label_2
_geom_bond_distance
_geom_bond_site_symmetry_2
_ccdc_geom_bond_type
Tb0 C9 2.764 1_455 S
Tb0 O10 2.325 1_455 S
Tb0 O13 2.303 . S
Tb0 O17 2.322 . S
Tb0 O18 2.349 . S
Tb0 O21 2.415 1_455 S
Tb0 O22 2.399 1_455 S
Tb1 O11 2.322 . S
Tb1 O12 2.349 . S
Tb1 O14 2.415 . S
Tb1 O15 2.399 . S
Tb1 O16 2.325 . S
Tb1 O19 2.303 . S
Tb1 C30 2.764 . S
C2 O18 1.261 . S
C2 O19 1.257 . S
C3 C6 1.358 . S
C3 C7 1.332 . S
C3 C9 1.504 . S
C4 C5 1.373 . S
C4 C8 1.308 . S
C5 C4 1.373 . S
C5 C6 1.429 . S
C5 H32 0.932 . S
C6 C3 1.358 . S
C6 C5 1.429 . S
C6 H33 0.930 . S
C7 C3 1.332 . S
C7 C8 1.394 . S
C7 H34 0.932 . S
C8 C4 1.308 . S
C8 C7 1.394 . S
C8 H35 0.929 . S
C9 Tb0 2.764 1_655 S
C9 C3 1.504 . S
C9 O21 1.239 . S
C9 O22 1.263 . S
O10 Tb0 2.325 1_655 S
O10 C20 1.236 . S
O11 Tb1 2.322 . S
O11 C20 1.257 1_455 S
O12 Tb1 2.349 . S
O12 C23 1.261 . S
O13 Tb0 2.303 . S
O13 C23 1.257 . S
O14 Tb1 2.415 . S
O14 C30 1.239 . S
O15 Tb1 2.399 . S
O15 C30 1.263 . S
O16 Tb1 2.325 . S
O16 C31 1.236 . S
O17 Tb0 2.322 . S
O17 C31 1.257 . S
O18 Tb0 2.349 . S
O18 C2 1.261 . S
O19 Tb1 2.303 . S
O19 C2 1.257 . S
C20 O10 1.236 . S
C20 O11 1.257 1_655 S
O21 Tb0 2.415 1_655 S
O21 C9 1.239 . S
O22 Tb0 2.399 1_655 S
O22 C9 1.263 . S
C23 O12 1.261 . S
C23 O13 1.257 . S
C24 C27 1.358 . S
C24 C28 1.332 . S
C24 C30 1.504 . S
C25 C26 1.373 . S
C25 C29 1.308 . S
C26 C25 1.373 . S
C26 C27 1.429 . S
C26 H36 0.932 . S
C27 C24 1.358 . S
C27 C26 1.429 . S
C27 H37 0.930 . S
C28 C24 1.332 . S
C28 C29 1.394 . S
C28 H38 0.932 . S
C29 C25 1.308 . S
C29 C28 1.394 . S
C29 H39 0.929 . S
C30 Tb1 2.764 . S
C30 O14 1.239 . S
C30 O15 1.263 . S
C30 C24 1.504 . S
C31 O16 1.236 . S
C31 O17 1.257 . S
H32 C5 0.932 . S
H33 C6 0.930 . S
H34 C7 0.932 . S
H35 C8 0.929 . S
H36 C26 0.932 . S
H37 C27 0.930 . S
H38 C28 0.932 . S
H39 C29 0.929 . S
Tb40 C49 2.764 1_545 S
Tb40 O50 2.325 1_545 S
Tb40 O53 2.303 . S
Tb40 O57 2.322 . S
Tb40 O58 2.349 . S
Tb40 O61 2.415 1_545 S
Tb40 O62 2.399 1_545 S
Tb41 O51 2.309 1_545 S
Tb41 O52 2.349 . S
Tb41 O54 2.415 . S
Tb41 O55 2.399 . S
Tb41 O56 2.325 . S
Tb41 O59 2.303 . S
Tb41 C70 2.764 . S
C42 O58 1.261 . S
C42 O59 1.257 . S
C43 C46 1.358 . S
C43 C47 1.332 . S
C43 C49 1.504 . S
C44 C45 1.373 . S
C44 C48 1.308 . S
C45 C44 1.373 . S
C45 C46 1.429 . S
C45 H72 0.932 . S
C46 C43 1.358 . S
C46 C45 1.429 . S
C46 H73 0.930 . S
C47 C43 1.332 . S
C47 C48 1.394 . S
C47 H74 0.932 . S
C48 C44 1.308 . S
C48 C47 1.394 . S
C48 H75 0.929 . S
C49 Tb40 2.764 1_565 S
C49 C43 1.504 . S
C49 O61 1.239 . S
C49 O62 1.263 . S
O50 Tb40 2.325 1_565 S
O50 C60 1.236 . S
O51 Tb41 2.309 1_565 S
O51 C60 1.264 . S
O52 Tb41 2.349 . S
O52 C63 1.261 . S
O53 Tb40 2.303 . S
O53 C63 1.257 . S
O54 Tb41 2.415 . S
O54 C70 1.239 . S
O55 Tb41 2.399 . S
O55 C70 1.263 . S
O56 Tb41 2.325 . S
O56 C71 1.236 . S
O57 Tb40 2.322 . S
O57 C71 1.257 . S
O58 Tb40 2.349 . S
O58 C42 1.261 . S
O59 Tb41 2.303 . S
O59 C42 1.257 . S
C60 O50 1.236 . S
C60 O51 1.264 . S
O61 Tb40 2.415 1_565 S
O61 C49 1.239 . S
O62 Tb40 2.399 1_565 S
O62 C49 1.263 . S
C63 O52 1.261 . S
C63 O53 1.257 . S
C64 C67 1.358 . S
C64 C68 1.332 . S
C64 C70 1.504 . S
C65 C66 1.373 . S
C65 C69 1.308 . S
C66 C65 1.373 . S
C66 C67 1.429 . S
C66 H76 0.932 . S
C67 C64 1.358 . S
C67 C66 1.429 . S
C67 H77 0.930 . S
C68 C64 1.332 . S
C68 C69 1.394 . S
C68 H78 0.932 . S
C69 C65 1.308 . S
C69 C68 1.394 . S
C69 H79 0.929 . S
C70 Tb41 2.764 . S
C70 O54 1.239 . S
C70 O55 1.263 . S
C70 C64 1.504 . S
C71 O56 1.236 . S
C71 O57 1.257 . S
H72 C45 0.932 . S
H73 C46 0.930 . S
H74 C47 0.932 . S
H75 C48 0.929 . S
H76 C66 0.932 . S
H77 C67 0.930 . S
H78 C68 0.932 . S
H79 C69 0.929 . S
Tb80 C89 2.764 . S
Tb80 O90 2.325 . S
Tb80 O93 2.303 . S
Tb80 O97 2.322 . S
Tb80 O98 2.349 . S
Tb80 O101 2.415 . S
Tb80 O102 2.399 . S
Tb81 O91 2.322 . S
Tb81 O92 2.349 . S
Tb81 O94 2.415 . S
Tb81 O95 2.399 . S
Tb81 O96 2.325 . S
Tb81 O99 2.303 . S
Tb81 C110 2.764 . S
C82 O98 1.261 . S
C82 O99 1.257 . S
C83 C86 1.358 . S
C83 C87 1.332 . S
C83 C89 1.504 . S
C84 C85 1.373 . S
C84 C88 1.308 . S
C85 C84 1.373 . S
C85 C86 1.429 . S
C85 H112 0.932 . S
C86 C83 1.358 . S
C86 C85 1.429 . S
C86 H113 0.930 . S
C87 C83 1.332 . S
C87 C88 1.394 . S
C87 H114 0.932 . S
C88 C84 1.308 . S
C88 C87 1.394 . S
C88 H115 0.929 . S
C89 Tb80 2.764 . S
C89 C83 1.504 . S
C89 O101 1.239 . S
C89 O102 1.263 . S
O90 Tb80 2.325 . S
O90 C100 1.236 . S
O91 Tb81 2.322 . S
O91 C100 1.257 . S
O92 Tb81 2.349 . S
O92 C103 1.261 . S
O93 Tb80 2.303 . S
O93 C103 1.257 . S
O94 Tb81 2.415 . S
O94 C110 1.239 . S
O95 Tb81 2.399 . S
O95 C110 1.263 . S
O96 Tb81 2.325 . S
O96 C111 1.236 . S
O97 Tb80 2.322 . S
O97 C111 1.257 . S
O98 Tb80 2.349 . S
O98 C82 1.261 . S
O99 Tb81 2.303 . S
O99 C82 1.257 . S
C100 O90 1.236 . S
C100 O91 1.257 . S
O101 Tb80 2.415 . S
O101 C89 1.239 . S
O102 Tb80 2.399 . S
O102 C89 1.263 . S
C103 O92 1.261 . S
C103 O93 1.257 . S
C104 C107 1.358 . S
C104 C108 1.332 . S
C104 C110 1.504 . S
C105 C106 1.373 . S
C105 C109 1.308 . S
C106 C105 1.373 . S
C106 C107 1.429 . S
C106 H116 0.932 . S
C107 C104 1.358 . S
C107 C106 1.429 . S
C107 H117 0.930 . S
C108 C104 1.332 . S
C108 C109 1.394 . S
C108 H118 0.932 . S
C109 C105 1.308 . S
C109 C108 1.394 . S
C109 H119 0.929 . S
C110 Tb81 2.764 . S
C110 O94 1.239 . S
C110 O95 1.263 . S
C110 C104 1.504 . S
C111 O96 1.236 . S
C111 O97 1.257 . S
H112 C85 0.932 . S
H113 C86 0.930 . S
H114 C87 0.932 . S
H115 C88 0.929 . S
H116 C106 0.932 . S
H117 C107 0.930 . S
H118 C108 0.932 . S
H119 C109 0.929 . S
H120 C125 0.930 . S
H121 C128 0.930 . S
H122 C130 0.930 1_565 S
H123 C124 1.016 . S
C124 H123 1.016 . S
C124 N131 1.286 . S
C125 H120 0.930 . S
C125 C126 1.397 1_545 S
C125 C127 1.361 . S
C126 C125 1.397 1_565 S
C126 C130 1.390 1_565 S
C127 C125 1.361 . S
C127 C128 1.393 . S
C127 N131 1.413 . S
C128 H121 0.930 . S
C128 C127 1.393 . S
C128 C129 1.399 . S
C129 C128 1.399 . S
C129 C130 1.382 . S
C130 H122 0.930 1_545 S
C130 C126 1.390 1_545 S
C130 C129 1.382 . S
N131 C124 1.286 . S
N131 C127 1.413 . S
H132 C137 0.930 . S
H133 C140 0.930 . S
H134 C142 0.930 . S
H135 C136 1.016 . S
C136 H135 1.016 . S
C136 N143 1.286 . S
C137 H132 0.930 . S
C137 C138 1.397 . S
C137 C139 1.361 . S
C138 C137 1.397 . S
C138 C142 1.390 . S
C139 C137 1.361 . S
C139 C140 1.393 . S
C139 N143 1.413 . S
C140 H133 0.930 . S
C140 C139 1.393 . S
C140 C141 1.399 . S
C141 C140 1.399 . S
C141 C142 1.381 . S
C142 H134 0.930 . S
C142 C138 1.390 . S
C142 C141 1.381 . S
N143 C136 1.286 . S
N143 C139 1.413 . S
H144 C149 0.930 1_655 S
H145 C152 0.930 . S
H146 C154 0.930 . S
H147 C148 1.016 . S
C148 H147 1.016 . S
C148 N155 1.286 . S
C149 H144 0.930 1_455 S
C149 C150 1.397 1_455 S
C149 C151 1.361 . S
C150 C149 1.397 1_655 S
C150 C154 1.390 . S
C151 C149 1.361 . S
C151 C152 1.393 . S
C151 N155 1.413 . S
C152 H145 0.930 . S
C152 C151 1.393 . S
C152 C153 1.399 . S
C153 C152 1.399 . S
C153 C154 1.381 1_455 S
C154 H146 0.930 . S
C154 C150 1.390 . S
C154 C153 1.381 1_655 S
N155 C148 1.286 . S
N155 C151 1.413 . S
H156 C161 0.930 . S
H157 C164 0.930 . S
H158 C166 0.930 . S
H159 C160 1.016 . S
C160 H159 1.016 . S
C160 N167 1.286 . S
C161 H156 0.930 . S
C161 C162 1.397 . S
C161 C163 1.361 1_455 S
C162 C161 1.397 . S
C162 C166 1.390 . S
C163 C161 1.361 1_655 S
C163 C164 1.393 . S
C163 N167 1.413 . S
C164 H157 0.930 . S
C164 C163 1.393 . S
C164 C165 1.399 1_655 S
C165 C164 1.399 1_455 S
C165 C166 1.381 . S
C166 H158 0.930 . S
C166 C162 1.390 . S
C166 C165 1.381 . S
N167 C160 1.286 . S
N167 C163 1.413 . S
H168 C173 0.930 . S
H169 C176 0.930 . S
H170 C178 0.930 . S
H171 C172 1.016 . S
C172 H171 1.016 . S
C172 N179 1.286 . S
C173 H168 0.930 . S
C173 C174 1.397 . S
C173 C175 1.361 . S
C174 C173 1.397 . S
C174 C178 1.390 . S
C175 C173 1.361 . S
C175 C176 1.393 1_545 S
C175 N179 1.413 1_545 S
C176 H169 0.930 . S
C176 C175 1.393 1_565 S
C176 C177 1.399 1_565 S
C177 C176 1.399 1_545 S
C177 C178 1.381 . S
C178 H170 0.930 . S
C178 C174 1.390 . S
C178 C177 1.381 . S
N179 C172 1.286 . S
N179 C175 1.413 1_565 S
H180 C185 0.930 . S
H181 C188 0.930 . S
H182 C190 0.930 . S
H183 C184 1.016 . S
C184 H183 1.016 . S
C184 N191 1.286 . S
C185 H180 0.930 . S
C185 C186 1.397 . S
C185 C187 1.361 . S
C186 C185 1.397 . S
C186 C190 1.390 . S
C187 C185 1.361 . S
C187 C188 1.393 . S
C187 N191 1.413 . S
C188 H181 0.930 . S
C188 C187 1.393 . S
C188 C189 1.399 . S
C189 C188 1.399 . S
C189 C190 1.381 . S
C190 H182 0.930 . S
C190 C186 1.390 . S
C190 C189 1.381 . S
N191 C184 1.286 . S
N191 C187 1.413 . S
C192 C193 1.363 . S
C192 C198 1.379 . S
C192 N200 1.356 . S
C193 C192 1.363 . S
C193 C199 1.363 . S
C194 C195 1.363 . S
C194 C199 1.379 . S
C194 N201 1.356 . S
C195 C194 1.363 . S
C195 C198 1.363 . S
N196 C198 1.356 . S
N196 H208 0.984 . S
N196 H209 0.985 . S
N197 C199 1.356 . S
N197 H202 0.984 . S
N197 H203 0.985 . S
C198 C192 1.379 . S
C198 C195 1.363 . S
C198 N196 1.356 . S
C199 C193 1.363 . S
C199 C194 1.379 . S
C199 N197 1.356 . S
N200 C192 1.356 . S
N200 H206 0.984 . S
N200 H207 0.984 . S
N201 C194 1.356 . S
N201 H204 0.984 . S
N201 H205 0.985 . S
H202 N197 0.984 . S
H203 N197 0.985 . S
H204 N201 0.984 . S
H205 N201 0.985 . S
H206 N200 0.984 . S
H207 N200 0.984 . S
H208 N196 0.984 . S
H209 N196 0.985 . S
C210 C211 1.363 . S
C210 C216 1.379 . S
C210 N218 1.356 . S
C211 C210 1.363 . S
C211 C217 1.363 . S
C212 C213 1.363 . S
C212 C217 1.379 . S
C212 N219 1.356 . S
C213 C212 1.363 . S
C213 C216 1.363 . S
N214 C216 1.356 . S
N214 H226 0.984 . S
N214 H227 0.985 . S
N215 C217 1.356 . S
N215 H220 0.984 . S
N215 H221 0.985 . S
C216 C210 1.379 . S
C216 C213 1.363 . S
C216 N214 1.356 . S
C217 C211 1.363 . S
C217 C212 1.379 . S
C217 N215 1.356 . S
N218 C210 1.356 . S
N218 H224 0.984 . S
N218 H225 0.984 . S
N219 C212 1.356 . S
N219 H222 0.984 . S
N219 H223 0.985 . S
H220 N215 0.984 . S
H221 N215 0.985 . S
H222 N219 0.984 . S
H223 N219 0.985 . S
H224 N218 0.984 . S
H225 N218 0.984 . S
H226 N214 0.984 . S
H227 N214 0.985 . S
C228 C229 1.363 . S
C228 C234 1.379 . S
C228 N236 1.356 . S
C229 C228 1.363 . S
C229 C235 1.363 . S
C230 C231 1.363 . S
C230 C235 1.379 . S
C230 N237 1.356 . S
C231 C230 1.363 . S
C231 C234 1.363 . S
N232 C234 1.356 . S
N232 H244 0.984 . S
N232 H245 0.985 . S
N233 C235 1.356 . S
N233 H238 0.984 . S
N233 H239 0.985 . S
C234 C228 1.379 . S
C234 C231 1.363 . S
C234 N232 1.356 . S
C235 C229 1.363 . S
C235 C230 1.379 . S
C235 N233 1.356 . S
N236 C228 1.356 . S
N236 H242 0.984 . S
N236 H243 0.984 . S
N237 C230 1.356 . S
N237 H240 0.984 . S
N237 H241 0.985 . S
H238 N233 0.984 . S
H239 N233 0.985 . S
H240 N237 0.984 . S
H241 N237 0.985 . S
H242 N236 0.984 . S
H243 N236 0.984 . S
H244 N232 0.984 . S
H245 N232 0.985 . S
C246 C247 1.363 . S
C246 C252 1.379 . S
C246 N254 1.356 . S
C247 C246 1.363 . S
C247 C253 1.363 . S
C248 C249 1.363 . S
C248 C253 1.379 . S
C248 N255 1.356 . S
C249 C248 1.363 . S
C249 C252 1.363 . S
N250 C252 1.356 . S
N250 H262 0.984 . S
N250 H263 0.985 . S
N251 C253 1.356 . S
N251 H256 0.984 . S
N251 H257 0.985 . S
C252 C246 1.379 . S
C252 C249 1.363 . S
C252 N250 1.356 . S
C253 C247 1.363 . S
C253 C248 1.379 . S
C253 N251 1.356 . S
N254 C246 1.356 . S
N254 H260 0.984 . S
N254 H261 0.984 . S
N255 C248 1.356 . S
N255 H258 0.984 . S
N255 H259 0.985 . S
H256 N251 0.984 . S
H257 N251 0.985 . S
H258 N255 0.984 . S
H259 N255 0.985 . S
H260 N254 0.984 . S
H261 N254 0.984 . S
H262 N250 0.984 . S
H263 N250 0.985 . S
C264 C265 1.363 . S
C264 C270 1.379 . S
C264 N272 1.356 . S
C265 C264 1.363 . S
C265 C271 1.363 . S
C266 C267 1.363 . S
C266 C271 1.379 . S
C266 N273 1.356 . S
C267 C266 1.363 . S
C267 C270 1.363 . S
N268 C270 1.356 . S
N268 H280 0.984 . S
N268 H281 0.985 . S
N269 C271 1.356 . S
N269 H274 0.984 . S
N269 H275 0.985 . S
C270 C264 1.379 . S
C270 C267 1.363 . S
C270 N268 1.356 . S
C271 C265 1.363 . S
C271 C266 1.379 . S
C271 N269 1.356 . S
N272 C264 1.356 . S
N272 H278 0.984 . S
N272 H279 0.984 . S
N273 C266 1.356 . S
N273 H276 0.984 . S
N273 H277 0.985 . S
H274 N269 0.984 . S
H275 N269 0.985 . S
H276 N273 0.984 . S
H277 N273 0.985 . S
H278 N272 0.984 . S
H279 N272 0.984 . S
H280 N268 0.984 . S
H281 N268 0.985 . S
C282 C283 1.363 . S
C282 C288 1.379 . S
C282 N290 1.356 . S
C283 C282 1.363 . S
C283 C289 1.363 . S
C284 C285 1.363 . S
C284 C289 1.379 . S
C284 N291 1.356 . S
C285 C284 1.363 . S
C285 C288 1.363 . S
N286 C288 1.356 . S
N286 H298 0.984 . S
N286 H299 0.985 . S
N287 C289 1.356 . S
N287 H292 0.984 . S
N287 H293 0.985 . S
C288 C282 1.379 . S
C288 C285 1.363 . S
C288 N286 1.356 . S
C289 C283 1.363 . S
C289 C284 1.379 . S
C289 N287 1.356 . S
N290 C282 1.356 . S
N290 H296 0.984 . S
N290 H297 0.984 . S
N291 C284 1.356 . S
N291 H294 0.984 . S
N291 H295 0.985 . S
H292 N287 0.984 . S
H293 N287 0.985 . S
H294 N291 0.984 . S
H295 N291 0.985 . S
H296 N290 0.984 . S
H297 N290 0.984 . S
H298 N286 0.984 . S
H299 N286 0.985 . S
C300 C301 1.363 . S
C300 C306 1.379 . S
C300 N308 1.356 . S
C301 C300 1.363 . S
C301 C307 1.363 . S
C302 C303 1.363 . S
C302 C307 1.379 . S
C302 N309 1.356 . S
C303 C302 1.363 . S
C303 C306 1.363 . S
N304 C306 1.356 . S
N304 H316 0.984 . S
N304 H317 0.985 . S
N305 C307 1.356 . S
N305 H310 0.984 . S
N305 H311 0.985 . S
C306 C300 1.379 . S
C306 C303 1.363 . S
C306 N304 1.356 . S
C307 C301 1.363 . S
C307 C302 1.379 . S
C307 N305 1.356 . S
N308 C300 1.356 . S
N308 H314 0.984 . S
N308 H315 0.984 . S
N309 C302 1.356 . S
N309 H312 0.984 . S
N309 H313 0.985 . S
H310 N305 0.984 . S
H311 N305 0.985 . S
H312 N309 0.984 . S
H313 N309 0.985 . S
H314 N308 0.984 . S
H315 N308 0.984 . S
H316 N304 0.984 . S
H317 N304 0.985 . S
C318 C319 1.363 . S
C318 C324 1.379 . S
C318 N326 1.356 . S
C319 C318 1.363 . S
C319 C325 1.363 . S
C320 C321 1.363 . S
C320 C325 1.379 . S
C320 N327 1.356 . S
C321 C320 1.363 . S
C321 C324 1.363 . S
N322 C324 1.356 . S
N322 H334 0.984 . S
N322 H335 0.985 . S
N323 C325 1.356 . S
N323 H328 0.984 . S
N323 H329 0.985 . S
C324 C318 1.379 . S
C324 C321 1.363 . S
C324 N322 1.356 . S
C325 C319 1.363 . S
C325 C320 1.379 . S
C325 N323 1.356 . S
N326 C318 1.356 . S
N326 H332 0.984 . S
N326 H333 0.984 . S
N327 C320 1.356 . S
N327 H330 0.984 . S
N327 H331 0.985 . S
H328 N323 0.984 . S
H329 N323 0.985 . S
H330 N327 0.984 . S
H331 N327 0.985 . S
H332 N326 0.984 . S
H333 N326 0.984 . S
H334 N322 0.984 . S
H335 N322 0.985 . S
C336 C337 1.363 . S
C336 C342 1.379 . S
C336 N344 1.356 . S
C337 C336 1.363 . S
C337 C343 1.363 . S
C338 C339 1.363 . S
C338 C343 1.379 . S
C338 N345 1.356 . S
C339 C338 1.363 . S
C339 C342 1.363 . S
N340 C342 1.356 . S
N340 H352 0.984 . S
N340 H353 0.985 . S
N341 C343 1.356 . S
N341 H346 0.984 . S
N341 H347 0.985 . S
C342 C336 1.379 . S
C342 C339 1.363 . S
C342 N340 1.356 . S
C343 C337 1.363 . S
C343 C338 1.379 . S
C343 N341 1.356 . S
N344 C336 1.356 . S
N344 H350 0.984 . S
N344 H351 0.984 . S
N345 C338 1.356 . S
N345 H348 0.984 . S
N345 H349 0.985 . S
H346 N341 0.984 . S
H347 N341 0.985 . S
H348 N345 0.984 . S
H349 N345 0.985 . S
H350 N344 0.984 . S
H351 N344 0.984 . S
H352 N340 0.984 . S
H353 N340 0.985 . S
C354 C355 1.363 . S
C354 C360 1.379 . S
C354 N362 1.356 . S
C355 C354 1.363 . S
C355 C361 1.363 . S
C356 C357 1.363 . S
C356 C361 1.379 . S
C356 N363 1.356 . S
C357 C356 1.363 . S
C357 C360 1.363 . S
N358 C360 1.356 . S
N358 H370 0.984 . S
N358 H371 0.985 . S
N359 C361 1.356 . S
N359 H364 0.984 . S
N359 H365 0.985 . S
C360 C354 1.379 . S
C360 C357 1.363 . S
C360 N358 1.356 . S
C361 C355 1.363 . S
C361 C356 1.379 . S
C361 N359 1.356 . S
N362 C354 1.356 . S
N362 H368 0.984 . S
N362 H369 0.984 . S
N363 C356 1.356 . S
N363 H366 0.984 . S
N363 H367 0.985 . S
H364 N359 0.984 . S
H365 N359 0.985 . S
H366 N363 0.984 . S
H367 N363 0.985 . S
H368 N362 0.984 . S
H369 N362 0.984 . S
H370 N358 0.984 . S
H371 N358 0.985 . S
C372 C373 1.363 . S
C372 C378 1.379 . S
C372 N380 1.356 . S
C373 C372 1.363 . S
C373 C379 1.363 . S
C374 C375 1.363 . S
C374 C379 1.379 . S
C374 N381 1.356 . S
C375 C374 1.363 . S
C375 C378 1.363 . S
N376 C378 1.356 . S
N376 H388 0.984 . S
N376 H389 0.985 . S
N377 C379 1.356 . S
N377 H382 0.984 . S
N377 H383 0.985 . S
C378 C372 1.379 . S
C378 C375 1.363 . S
C378 N376 1.356 . S
C379 C373 1.363 . S
C379 C374 1.379 . S
C379 N377 1.356 . S
N380 C372 1.356 . S
N380 H386 0.984 . S
N380 H387 0.984 . S
N381 C374 1.356 . S
N381 H384 0.984 . S
N381 H385 0.985 . S
H382 N377 0.984 . S
H383 N377 0.985 . S
H384 N381 0.984 . S
H385 N381 0.985 . S
H386 N380 0.984 . S
H387 N380 0.984 . S
H388 N376 0.984 . S
H389 N376 0.985 . S
C390 C391 1.363 . S
C390 C396 1.379 . S
C390 N398 1.356 . S
C391 C390 1.363 . S
C391 C397 1.363 . S
C392 C393 1.363 . S
C392 C397 1.379 . S
C392 N399 1.356 . S
C393 C392 1.363 . S
C393 C396 1.363 . S
N394 C396 1.356 . S
N394 H406 0.984 . S
N394 H407 0.985 . S
N395 C397 1.356 . S
N395 H400 0.984 . S
N395 H401 0.985 . S
C396 C390 1.379 . S
C396 C393 1.363 . S
C396 N394 1.356 . S
C397 C391 1.363 . S
C397 C392 1.379 . S
C397 N395 1.356 . S
N398 C390 1.356 . S
N398 H404 0.984 . S
N398 H405 0.984 . S
N399 C392 1.356 . S
N399 H402 0.984 . S
N399 H403 0.985 . S
H400 N395 0.984 . S
H401 N395 0.985 . S
H402 N399 0.984 . S
H403 N399 0.985 . S
H404 N398 0.984 . S
H405 N398 0.984 . S
H406 N394 0.984 . S
H407 N394 0.985 . S
C408 C409 1.363 . S
C408 C414 1.379 . S
C408 N416 1.356 . S
C409 C408 1.363 . S
C409 C415 1.363 . S
C410 C411 1.363 . S
C410 C415 1.379 1_556 S
C410 N417 1.356 . S
C411 C410 1.363 . S
C411 C414 1.363 1_556 S
N412 C414 1.356 1_556 S
N412 H424 0.984 1_556 S
N412 H425 0.985 . S
N413 C415 1.356 . S
N413 H418 0.984 . S
N413 H419 0.985 . S
C414 C408 1.379 . S
C414 C411 1.363 1_554 S
C414 N412 1.356 1_554 S
C415 C409 1.363 . S
C415 C410 1.379 1_554 S
C415 N413 1.356 . S
N416 C408 1.356 . S
N416 H422 0.984 . S
N416 H423 0.984 . S
N417 C410 1.356 . S
N417 H420 0.984 . S
N417 H421 0.985 . S
H418 N413 0.984 . S
H419 N413 0.985 . S
H420 N417 0.984 . S
H421 N417 0.985 . S
H422 N416 0.984 . S
H423 N416 0.984 . S
H424 N412 0.984 1_554 S
H425 N412 0.985 . S
C426 C427 1.363 . S
C426 C432 1.379 . S
C426 N434 1.356 . S
C427 C426 1.363 . S
C427 C433 1.363 . S
C428 C429 1.363 . S
C428 C433 1.379 . S
C428 N435 1.356 . S
C429 C428 1.363 . S
C429 C432 1.363 . S
N430 C432 1.356 . S
N430 H442 0.984 . S
N430 H443 0.985 . S
N431 C433 1.356 . S
N431 H436 0.984 . S
N431 H437 0.985 1_545 S
C432 C426 1.379 . S
C432 C429 1.363 . S
C432 N430 1.356 . S
C433 C427 1.363 . S
C433 C428 1.379 . S
C433 N431 1.356 . S
N434 C426 1.356 . S
N434 H440 0.984 . S
N434 H441 0.984 . S
N435 C428 1.356 . S
N435 H438 0.984 . S
N435 H439 0.985 1_545 S
H436 N431 0.984 . S
H437 N431 0.985 1_565 S
H438 N435 0.984 . S
H439 N435 0.985 1_565 S
H440 N434 0.984 . S
H441 N434 0.984 . S
H442 N430 0.984 . S
H443 N430 0.985 . S
C444 C445 1.363 . S
C444 C450 1.379 . S
C444 N452 1.356 . S
C445 C444 1.363 . S
C445 C451 1.363 . S
C446 C447 1.363 . S
C446 C451 1.379 . S
C446 N453 1.356 . S
C447 C446 1.363 . S
C447 C450 1.363 . S
N448 C450 1.356 . S
N448 H460 0.984 . S
N448 H461 0.985 . S
N449 C451 1.356 . S
N449 H454 0.984 . S
N449 H455 0.985 . S
C450 C444 1.379 . S
C450 C447 1.363 . S
C450 N448 1.356 . S
C451 C445 1.363 . S
C451 C446 1.379 . S
C451 N449 1.356 . S
N452 C444 1.356 . S
N452 H458 0.984 . S
N452 H459 0.984 . S
N453 C446 1.356 . S
N453 H456 0.984 . S
N453 H457 0.985 . S
H454 N449 0.984 . S
H455 N449 0.985 . S
H456 N453 0.984 . S
H457 N453 0.985 . S
H458 N452 0.984 . S
H459 N452 0.984 . S
H460 N448 0.984 . S
H461 N448 0.985 . S
C462 C463 1.363 1_565 S
C462 C468 1.379 . S
C462 N470 1.356 . S
C463 C462 1.363 1_545 S
C463 C469 1.363 . S
C464 C465 1.363 . S
C464 C469 1.379 . S
C464 N471 1.356 . S
C465 C464 1.363 . S
C465 C468 1.363 1_545 S
N466 C468 1.356 . S
N466 H478 0.984 . S
N466 H479 0.985 . S
N467 C469 1.356 . S
N467 H472 0.984 . S
N467 H473 0.985 . S
C468 C462 1.379 . S
C468 C465 1.363 1_565 S
C468 N466 1.356 . S
C469 C463 1.363 . S
C469 C464 1.379 . S
C469 N467 1.356 . S
N470 C462 1.356 . S
N470 H476 0.984 . S
N470 H477 0.984 . S
N471 C464 1.356 . S
N471 H474 0.984 . S
N471 H475 0.985 . S
H472 N467 0.984 . S
H473 N467 0.985 . S
H474 N471 0.984 . S
H475 N471 0.985 . S
H476 N470 0.984 . S
H477 N470 0.984 . S
H478 N466 0.984 . S
H479 N466 0.985 . S
C480 C481 1.363 . S
C480 C486 1.379 1_556 S
C480 N488 1.356 . S
C481 C480 1.363 . S
C481 C487 1.363 . S
C482 C483 1.363 1_556 S
C482 C487 1.379 . S
C482 N489 1.356 1_556 S
C483 C482 1.363 1_554 S
C483 C486 1.363 . S
N484 C486 1.356 . S
N484 H496 0.984 . S
N484 H497 0.985 . S
N485 C487 1.356 . S
N485 H490 0.984 . S
N485 H491 0.985 . S
C486 C480 1.379 1_554 S
C486 C483 1.363 . S
C486 N484 1.356 . S
C487 C481 1.363 . S
C487 C482 1.379 . S
C487 N485 1.356 . S
N488 C480 1.356 . S
N488 H494 0.984 . S
N488 H495 0.984 . S
N489 C482 1.356 1_554 S
N489 H492 0.984 . S
N489 H493 0.985 1_554 S
H490 N485 0.984 . S
H491 N485 0.985 . S
H492 N489 0.984 . S
H493 N489 0.985 1_556 S
H494 N488 0.984 . S
H495 N488 0.984 . S
H496 N484 0.984 . S
H497 N484 0.985 . S
C498 C499 1.363 . S
C498 C504 1.379 . S
C498 N506 1.356 . S
C499 C498 1.363 . S
C499 C505 1.363 1_455 S
C500 C501 1.363 1_655 S
C500 C505 1.379 . S
C500 N507 1.356 . S
C501 C500 1.363 1_455 S
C501 C504 1.363 . S
N502 C504 1.356 . S
N502 H514 0.984 . S
N502 H515 0.985 . S
N503 C505 1.356 . S
N503 H508 0.984 . S
N503 H509 0.985 . S
C504 C498 1.379 . S
C504 C501 1.363 . S
C504 N502 1.356 . S
C505 C499 1.363 1_655 S
C505 C500 1.379 . S
C505 N503 1.356 . S
N506 C498 1.356 . S
N506 H512 0.984 . S
N506 H513 0.984 . S
N507 C500 1.356 . S
N507 H510 0.984 . S
N507 H511 0.985 . S
H508 N503 0.984 . S
H509 N503 0.985 . S
H510 N507 0.984 . S
H511 N507 0.985 . S
H512 N506 0.984 . S
H513 N506 0.984 . S
H514 N502 0.984 . S
H515 N502 0.985 . S
C193 C25 0.852 . S
C195 C186 0.872 . S
C211 C65 0.692 . S
C213 C160 0.636 . S
C229 C105 0.729 . S
C231 C172 0.707 . S
C247 C4 0.731 . S
C249 C184 0.707 . S
C267 C162 0.539 . S
C265 C44 0.628 . S
C285 C174 0.501 . S
C283 C84 0.588 . S
C301 C60 3.078 . S
C303 C136 2.990 . S
C319 C100 3.322 . S
C321 C150 3.289 . S
C337 C31 3.062 . S
C339 C126 3.009 . S
C357 C138 3.021 . S
C355 C71 3.065 . S
C375 C148 2.751 . S
C373 C111 2.869 . S
C391 C20 3.084 . S
C393 C124 3.000 . S
C411 C153 1.857 . S
C409 C2 1.748 . S
C427 C42 1.785 . S
C429 C129 1.805 . S
C445 C82 1.752 . S
C447 C141 1.781 . S
C465 C177 1.063 . S
C463 C63 1.049 . S
C483 C189 1.137 . S
C481 C103 1.134 . S
C499 C23 1.040 . S
C501 C165 1.044 . S
