# Generated by pormake.
# Topology pth, (4,4)-cn, num edge types: 1
# Building blocks:
#     Node 0, Type 0, BuildingBlock: AZAVOO_clean_sbu_0, # of connection points: 4
#     Node 1, Type 0, BuildingBlock: AZAVOO_clean_sbu_0, # of connection points: 4
#     Node 2, Type 0, BuildingBlock: AZAVOO_clean_sbu_0, # of connection points: 4
#     Node 3, Type 1, BuildingBlock: NAWXER_clean_linker_0, # of connection points: 4
#     Node 4, Type 1, BuildingBlock: NAWXER_clean_linker_0, # of connection points: 4
#     Node 5, Type 1, BuildingBlock: NAWXER_clean_linker_0, # of connection points: 4
#     Edge 6, Type (0, 1), BuildingBlock: FUNLAD_clean_linker_1, # of connection points: 2
#     Edge 7, Type (0, 1), BuildingBlock: FUNLAD_clean_linker_1, # of connection points: 2
#     Edge 8, Type (0, 1), BuildingBlock: FUNLAD_clean_linker_1, # of connection points: 2
#     Edge 9, Type (0, 1), BuildingBlock: FUNLAD_clean_linker_1, # of connection points: 2
#     Edge 10, Type (0, 1), BuildingBlock: FUNLAD_clean_linker_1, # of connection points: 2
#     Edge 11, Type (0, 1), BuildingBlock: FUNLAD_clean_linker_1, # of connection points: 2
#     Edge 12, Type (0, 1), BuildingBlock: FUNLAD_clean_linker_1, # of connection points: 2
#     Edge 13, Type (0, 1), BuildingBlock: FUNLAD_clean_linker_1, # of connection points: 2
#     Edge 14, Type (0, 1), BuildingBlock: FUNLAD_clean_linker_1, # of connection points: 2
#     Edge 15, Type (0, 1), BuildingBlock: FUNLAD_clean_linker_1, # of connection points: 2
#     Edge 16, Type (0, 1), BuildingBlock: FUNLAD_clean_linker_1, # of connection points: 2
#     Edge 17, Type (0, 1), BuildingBlock: FUNLAD_clean_linker_1, # of connection points: 2
# Relax obj value: 0.065
# Max RMSD: 0.211
# Mean RMSD: 0.105
data_MOF--net-pth--node1-AZAVOO_clean_sbu_0--node2-NAWXER_clean_linker_0--edge1-FUNLAD_clean_linker_1
_symmetry_space_group_name_H-M    P1
_symmetry_Int_Tables_number       1
_symmetry_cell_setting            triclinic
loop_
_symmetry_equiv_pos_as_xyz
'x, y, z'
_cell_length_a     29.753632
_cell_length_b     30.308705
_cell_length_c     67.036443
_cell_angle_alpha  90.876139
_cell_angle_beta   92.690539
_cell_angle_gamma 121.96096
loop_
_atom_site_label
_atom_site_type_symbol
_atom_site_fract_x
_atom_site_fract_y
_atom_site_fract_z
_atom_type_partial_charge
Mg0 Mg 0.1116 0.07164 0.04321 0.0
O1 O 0.03495 0.0148 0.02462 0.0
O2 O 0.01223 0.06103 0.00572 0.0
Mg3 Mg 0.07588 0.14738 0.01164 0.0
C4 C 0.00383 0.01763 0.01171 0.0
C5 C 0.13776 0.00882 0.07238 0.0
O6 O 0.18577 0.04852 0.06996 0.0
O7 O 0.06682 0.09417 0.06335 0.0
O8 O 0.05155 0.14482 0.0439 0.0
O9 O 0.15988 0.07058 0.01887 0.0
O10 O 0.1334 0.1261 0.02143 0.0
C11 C 0.04942 0.12421 0.06061 0.0
C12 C 0.15719 0.10847 0.01157 0.0
O13 O 0.09817 0.00656 0.06324 0.0
Mg14 Mg 0.95949 0.01668 0.36225 0.0
O15 O 0.03143 0.0334 0.38248 0.0
O16 O 0.05503 0.1015 0.40332 0.0
Mg17 Mg 0.99713 0.12806 0.39665 0.0
C18 C 0.06148 0.06572 0.39663 0.0
C19 C 0.97221 0.92522 0.35055 0.0
O20 O 0.9648 0.91889 0.3697 0.0
O21 O 0.01111 0.08755 0.34406 0.0
O22 O 0.02887 0.15294 0.3656 0.0
O23 O 0.9039 0.96538 0.38483 0.0
O24 O 0.93685 0.04989 0.38386 0.0
C25 C 0.03189 0.13602 0.34847 0.0
C26 C 0.90807 0.00692 0.3925 0.0
O27 O 0.97237 0.96291 0.34239 0.0
Mg28 Mg 0.00817 0.01159 0.70274 0.0
O29 O 0.04986 0.08332 0.72425 0.0
O30 O 0.98838 0.09063 0.73924 0.0
Mg31 Mg 0.90684 0.02198 0.72758 0.0
C32 C 0.03671 0.10672 0.73643 0.0
C33 C 0.08411 0.02613 0.67002 0.0
O34 O 0.03785 0.99587 0.66022 0.0
O35 O 0.98476 0.05372 0.68078 0.0
O36 O 0.9197 0.05413 0.69608 0.0
O37 O 0.00683 0.96201 0.72737 0.0
O38 O 0.94311 0.97726 0.72004 0.0
C39 C 0.94845 0.06407 0.68118 0.0
C40 C 0.96206 0.95652 0.73147 0.0
O41 O 0.08574 0.04001 0.68812 0.0
C42 C 0.96743 0.34976 0.22986 0.0
C43 C 0.01073 0.36362 0.24345 0.0
C44 C 0.96286 0.38794 0.22031 0.0
C45 C 0.00216 0.44081 0.22385 0.0
C46 C 0.04946 0.41678 0.24736 0.0
C47 C 0.04492 0.45499 0.23772 0.0
C48 C 7e-05 0.48125 0.21252 0.0
C49 C 0.02888 0.38552 0.16913 0.0
C50 C 0.98774 0.35873 0.15407 0.0
C51 C 0.03128 0.42464 0.18129 0.0
C52 C 0.99239 0.43735 0.17878 0.0
C53 C 0.94972 0.37249 0.1513 0.0
C54 C 0.952 0.41142 0.16354 0.0
C55 C 0.99465 0.47899 0.19141 0.0
C56 C 0.04744 0.6931 0.17345 0.0
C57 C 0.01172 0.68199 0.15684 0.0
C58 C 0.04209 0.65311 0.18518 0.0
C59 C 0.00059 0.60142 0.18071 0.0
C60 C 0.96978 0.6304 0.15261 0.0
C61 C 0.96462 0.59035 0.16429 0.0
C62 C 0.99667 0.55857 0.19233 0.0
C63 C 0.95705 0.64928 0.23262 0.0
C64 C 0.99404 0.67628 0.24885 0.0
C65 C 0.95857 0.61112 0.22132 0.0
C66 C -0.00219 0.59967 0.22575 0.0
C67 C 0.03295 0.66421 0.25349 0.0
C68 C 0.03446 0.62593 0.24211 0.0
C69 C 4e-05 0.55991 0.21346 0.0
H70 H 0.9369 0.3092 0.22664 0.0
H71 H 0.929 0.37612 0.20991 0.0
H72 H 0.084 0.42918 0.2574 0.0
H73 H 0.07573 0.49559 0.24062 0.0
H74 H 0.06025 0.3777 0.17121 0.0
H75 H 0.06398 0.44547 0.19246 0.0
H76 H 0.91816 0.35309 0.1396 0.0
H77 H 0.92202 0.42115 0.16116 0.0
H78 H 0.07943 0.73256 0.17751 0.0
H79 H 0.07095 0.66253 0.19755 0.0
H80 H 0.94159 0.62089 0.13997 0.0
H81 H 0.93252 0.55069 0.16051 0.0
H82 H 0.9265 0.65747 0.22873 0.0
H83 H 0.92891 0.59046 0.2091 0.0
H84 H 0.06287 0.68456 0.2656 0.0
H85 H 0.06496 0.61758 0.24584 0.0
N86 N 0.00246 0.52159 0.22279 0.0
N87 N 0.99331 0.5178 0.18213 0.0
C88 C 0.71421 0.13502 0.50184 0.0
C89 C 0.6975 0.09146 0.48889 0.0
C90 C 0.67742 0.13951 0.5125 0.0
C91 C 0.62326 0.10055 0.51027 0.0
C92 C 0.64302 0.05311 0.48638 0.0
C93 C 0.60632 0.05779 0.49692 0.0
C94 C 0.5836 0.10385 0.52153 0.0
C95 C 0.68811 0.08264 0.56604 0.0
C96 C 0.71251 0.12179 0.58144 0.0
C97 C 0.64724 0.07841 0.55337 0.0
C98 C 0.63075 0.11383 0.55558 0.0
C99 C 0.69498 0.1562 0.58396 0.0
C100 C 0.65462 0.15239 0.57111 0.0
C101 C 0.58678 0.10946 0.54261 0.0
C102 C 0.36471 0.04811 0.55778 0.0
C103 C 0.37353 0.08077 0.57451 0.0
C104 C 0.40692 0.0558 0.54689 0.0
C105 C 0.45889 0.09707 0.55226 0.0
C106 C 0.42572 0.1221 0.57994 0.0
C107 C 0.46802 0.12983 0.56898 0.0
C108 C 0.50387 0.10429 0.54107 0.0
C109 C 0.40732 0.13996 0.49943 0.0
C110 C 0.38233 0.10518 0.48274 0.0
C111 C 0.44646 0.1392 0.51145 0.0
C112 C 0.46116 0.1032 0.50716 0.0
C113 C 0.39844 0.07029 0.47805 0.0
C114 C 0.43755 0.06946 0.49016 0.0
C115 C 0.50243 0.10202 0.51996 0.0
H116 H 0.75582 0.16554 0.50374 0.0
H117 H 0.69118 0.17338 0.52244 0.0
H118 H 0.62836 0.01999 0.47597 0.0
H119 H 0.56459 0.02769 0.49479 0.0
H120 H 0.69908 0.05407 0.56419 0.0
H121 H 0.62787 0.0468 0.54211 0.0
H122 H 0.71251 0.18607 0.59593 0.0
H123 H 0.64197 0.1796 0.57332 0.0
H124 H 0.32505 0.01592 0.55327 0.0
H125 H 0.39894 0.02897 0.53442 0.0
H126 H 0.43426 0.14893 0.59244 0.0
H127 H 0.50785 0.16174 0.57345 0.0
H128 H 0.39644 0.16781 0.50326 0.0
H129 H 0.4654 0.16699 0.52407 0.0
H130 H 0.3816 0.04386 0.46503 0.0
H131 H 0.44901 0.04204 0.48634 0.0
N132 N 0.54178 0.10076 0.51101 0.0
N133 N 0.54652 0.10905 0.55157 0.0
C134 C 0.40445 0.37761 0.83347 0.0
C135 C 0.37879 0.38937 0.81829 0.0
C136 C 0.44454 0.41705 0.84627 0.0
C137 C 0.45969 0.46906 0.84411 0.0
C138 C 0.39562 0.44182 0.81564 0.0
C139 C 0.43584 0.48126 0.82843 0.0
C140 C 0.50034 0.511 0.85808 0.0
C141 C 0.35932 0.4087 0.894 0.0
C142 C 0.371 0.38273 0.90854 0.0
C143 C 0.40008 0.44974 0.88417 0.0
C144 C 0.4532 0.46566 0.88889 0.0
C145 C 0.42436 0.39919 0.91333 0.0
C146 C 0.46502 0.44042 0.90364 0.0
C147 C 0.49701 0.5095 0.87903 0.0
C148 C 0.66443 0.73046 0.90471 0.0
C149 C 0.68714 0.7235 0.92227 0.0
C150 C 0.62848 0.68788 0.89209 0.0
C151 C 0.61465 0.63733 0.89671 0.0
C152 C 0.67152 0.67255 0.92732 0.0
C153 C 0.63544 0.62987 0.91465 0.0
C154 C 0.5776 0.59231 0.88304 0.0
C155 C 0.72663 0.6839 0.85143 0.0
C156 C 0.72201 0.70728 0.83421 0.0
C157 C 0.68143 0.6465 0.86051 0.0
C158 C 0.63063 0.63247 0.85276 0.0
C159 C 0.67101 0.69322 0.82647 0.0
C160 C 0.62578 0.65578 0.83558 0.0
C161 C 0.58262 0.59236 0.86218 0.0
H162 H 0.39287 0.33766 0.83565 0.0
H163 H 0.46348 0.40688 0.85793 0.0
H164 H 0.37827 0.45273 0.80367 0.0
H165 H 0.44766 0.52129 0.82629 0.0
H166 H 0.31863 0.39739 0.89033 0.0
H167 H 0.39023 0.46947 0.8731 0.0
H168 H 0.43509 0.38148 0.92498 0.0
H169 H 0.50583 0.45264 0.90766 0.0
H170 H 0.67505 0.7691 0.90058 0.0
H171 H 0.61158 0.69452 0.87867 0.0
H172 H 0.68661 0.6652 0.94103 0.0
H173 H 0.62444 0.59108 0.9187 0.0
H174 H 0.76532 0.69399 0.85772 0.0
H175 H 0.6862 0.62815 0.87349 0.0
H176 H 0.66565 0.71136 0.81358 0.0
H177 H 0.58698 0.64552 0.82936 0.0
N178 N 0.54324 0.55225 0.85043 0.0
N179 N 0.53555 0.55037 0.89073 0.0
H180 H 0.03263 0.12422 0.09239 0.0
C181 C 0.03175 0.14004 0.07802 0.0
H182 H 0.02241 0.19583 0.06301 0.0
H183 H 0.91195 0.21146 0.14207 0.0
H184 H 0.83359 0.13212 0.1279 0.0
H185 H 0.83893 0.08489 0.0987 0.0
H186 H 0.92279 0.11656 0.08353 0.0
C187 C 0.02139 0.17805 0.07707 0.0
C188 C 0.01822 0.20377 0.09547 0.0
C189 C 0.96901 0.18484 0.10404 0.0
C190 C 0.96579 0.21251 0.12067 0.0
C191 C 0.91631 0.19249 0.12916 0.0
C192 C 0.87114 0.14689 0.12123 0.0
C193 C 0.87416 0.12026 0.1048 0.0
C194 C 0.92245 0.13883 0.09624 0.0
H195 H 0.96507 0.31276 0.12543 0.0
C196 C 0.98551 0.31915 0.14007 0.0
H197 H 0.02828 0.29628 0.15885 0.0
H198 H 0.11932 0.24877 0.08318 0.0
H199 H 0.19781 0.32712 0.09766 0.0
H200 H 0.19223 0.37526 0.12647 0.0
H201 H 0.10814 0.34533 0.14096 0.0
C202 C 0.00809 0.29171 0.14436 0.0
C203 C 0.01176 0.25924 0.12849 0.0
C204 C 0.06143 0.27688 0.12046 0.0
C205 C 0.06462 0.24924 0.10384 0.0
C206 C 0.11457 0.26826 0.09581 0.0
C207 C 0.15998 0.3132 0.10398 0.0
C208 C 0.15684 0.34029 0.1202 0.0
C209 C 0.10827 0.32262 0.12838 0.0
H210 H 0.84947 0.96659 0.41513 0.0
C211 C 0.87825 0.00455 0.40983 0.0
H212 H 0.90928 0.08529 0.41183 0.0
H213 H 0.70327 0.07076 0.43782 0.0
H214 H 0.70716 0.09766 0.40379 0.0
H215 H 0.77263 0.10046 0.38176 0.0
H216 H 0.83436 0.07616 0.3936 0.0
C217 C 0.88192 0.04755 0.41761 0.0
C218 C 0.84233 0.04469 0.4311 0.0
C219 C 0.80687 0.05965 0.42396 0.0
C220 C 0.76948 0.05853 0.4367 0.0
C221 C 0.73343 0.07212 0.42898 0.0
C222 C 0.73494 0.08732 0.4094 0.0
C223 C 0.77177 0.08886 0.397 0.0
C224 C 0.80719 0.07501 0.40406 0.0
H225 H 0.77309 0.12499 0.47408 0.0
C226 C 0.73711 0.08865 0.47722 0.0
H227 H 0.69664 0.00635 0.47405 0.0
H228 H 0.9062 0.01585 0.44977 0.0
H229 H 0.90122 0.98761 0.48371 0.0
H230 H 0.83509 0.98412 0.50559 0.0
H231 H 0.77374 0.00922 0.49368 0.0
C232 C 0.73012 0.04355 0.47011 0.0
C233 C 0.76814 0.04315 0.45664 0.0
C234 C 0.80282 0.02724 0.46366 0.0
C235 C 0.84038 0.02846 0.45094 0.0
C236 C 0.87601 0.0144 0.45861 0.0
C237 C 0.87378 0.99841 0.47811 0.0
C238 C 0.83659 0.9965 0.49044 0.0
C239 C 0.80156 0.01091 0.48341 0.0
H240 H 0.89493 0.92442 0.75058 0.0
C241 C 0.93246 0.92739 0.74848 0.0
H242 H 0.98366 0.90219 0.75793 0.0
H243 H 0.7973 0.84539 0.82403 0.0
H244 H 0.84556 0.9383 0.83193 0.0
H245 H 0.92512 0.99864 0.8143 0.0
H246 H 0.95634 0.96622 0.78839 0.0
C247 C 0.94739 0.90143 0.76029 0.0
C248 C 0.91002 0.86512 0.77467 0.0
C249 C 0.8939 0.88431 0.79044 0.0
C250 C 0.84929 0.8493 0.80111 0.0
C251 C 0.83193 0.86992 0.81587 0.0
C252 C 0.85916 0.92327 0.8205 0.0
C253 C 0.90386 0.95727 0.81054 0.0
C254 C 0.92116 0.93824 0.79564 0.0
H255 H 0.80856 0.76442 0.83388 0.0
C256 C 0.77116 0.74628 0.82487 0.0
H257 H 0.7363 0.7379 0.79572 0.0
H258 H 0.93575 0.8152 0.74729 0.0
H259 H 0.8919 0.7219 0.7411 0.0
H260 H 0.8164 0.66091 0.76039 0.0
H261 H 0.78406 0.69297 0.78592 0.0
C262 C 0.77195 0.7583 0.80564 0.0
C263 C 0.82232 0.79501 0.79645 0.0
C264 C 0.8415 0.77562 0.78193 0.0
C265 C 0.88545 0.81073 0.771 0.0
C266 C 0.90276 0.79032 0.75614 0.0
C267 C 0.87797 0.7368 0.75244 0.0
C268 C 0.83543 0.70247 0.76329 0.0
C269 C 0.81718 0.7214 0.77786 0.0
H270 H 0.16563 0.9715 0.09327 0.0
C271 C 0.13049 0.96783 0.08581 0.0
H272 H 0.04683 0.92168 0.08138 0.0
H273 H 0.04115 0.71726 0.10603 0.0
H274 H 0.02072 0.70041 0.07029 0.0
H275 H 0.02501 0.76773 0.0488 0.0
H276 H 0.05023 0.85251 0.06296 0.0
C277 C 0.08229 0.9268 0.08914 0.0
C278 C 0.07631 0.88541 0.1024 0.0
C279 C 0.06006 0.8356 0.09396 0.0
C280 C 0.05654 0.79645 0.10641 0.0
C281 C 0.04279 0.7479 0.09742 0.0
C282 C 0.03135 0.73782 0.07687 0.0
C283 C 0.03385 0.77574 0.06477 0.0
C284 C 0.04827 0.82421 0.07311 0.0
H285 H 0.98149 0.71688 0.13553 0.0
C286 C 0.01703 0.72321 0.14372 0.0
H287 H 0.10051 0.77332 0.14815 0.0
H288 H 0.1038 0.97525 0.1236 0.0
H289 H 0.12372 0.99203 0.1594 0.0
H290 H 0.11841 0.92441 0.18096 0.0
H291 H 0.09289 0.83951 0.16686 0.0
C292 C 0.06407 0.76625 0.14059 0.0
C293 C 0.06793 0.80687 0.12735 0.0
C294 C 0.08376 0.85656 0.1358 0.0
C295 C 0.08753 0.89577 0.12334 0.0
C296 C 0.10166 0.94447 0.13228 0.0
C297 C 0.11285 0.95453 0.15284 0.0
C298 C 0.10981 0.91644 0.16498 0.0
C299 C 0.09524 0.8679 0.15667 0.0
H300 H 0.10801 0.02851 0.40001 0.0
C301 C 0.10441 0.0603 0.40561 0.0
H302 H 0.13654 0.12549 0.42597 0.0
H303 H 0.2261 0.99154 0.47053 0.0
H304 H 0.13443 0.93175 0.47775 0.0
H305 H 0.06306 0.94213 0.46317 0.0
H306 H 0.08293 0.01228 0.44126 0.0
C307 C 0.13831 0.09254 0.42052 0.0
C308 C 0.18101 0.08584 0.42929 0.0
C309 C 0.16861 0.04456 0.44209 0.0
C310 C 0.20981 0.03885 0.45063 0.0
C311 C 0.19641 0.99763 0.46355 0.0
C312 C 0.14392 0.96305 0.46786 0.0
C313 C 0.10374 0.96887 0.45965 0.0
C314 C 0.1157 0.00918 0.44698 0.0
H315 H 0.33606 0.14033 0.47375 0.0
C316 C 0.34047 0.1075 0.47065 0.0
H317 H 0.30673 0.03574 0.45392 0.0
H318 H 0.2179 0.16861 0.40517 0.0
H319 H 0.30942 0.22744 0.39736 0.0
H320 H 0.38063 0.21616 0.41145 0.0
H321 H 0.36085 0.1463 0.43354 0.0
C322 C 0.30649 0.0709 0.45678 0.0
C323 C 0.26332 0.07481 0.44655 0.0
C324 C 0.27554 0.11531 0.43335 0.0
C325 C 0.23437 0.1212 0.42492 0.0
C326 C 0.24766 0.16231 0.41196 0.0
C327 C 0.3 0.19629 0.40732 0.0
C328 C 0.3401 0.18999 0.41527 0.0
C329 C 0.32824 0.14994 0.42807 0.0
H330 H 0.06653 0.17301 0.75833 0.0
C331 C 0.07852 0.15311 0.74828 0.0
H332 H 0.14314 0.15137 0.73737 0.0
H333 H 0.31711 0.3855 0.76124 0.0
H334 H 0.30987 0.3886 0.72515 0.0
H335 H 0.23916 0.31299 0.7047 0.0
H336 H 0.1754 0.23372 0.72019 0.0
C337 C 0.13027 0.17001 0.74763 0.0
C338 C 0.1718 0.21585 0.76017 0.0
C339 C 0.20848 0.26201 0.75088 0.0
C340 C 0.24887 0.3058 0.76269 0.0
C341 C 0.28536 0.35122 0.75301 0.0
C342 C 0.2817 0.35353 0.7323 0.0
C343 C 0.24192 0.31095 0.72078 0.0
C344 C 0.20562 0.26564 0.72987 0.0
H345 H 0.33343 0.30925 0.80471 0.0
C346 C 0.33516 0.34601 0.80548 0.0
H347 H 0.29541 0.38419 0.79653 0.0
H348 H 0.11133 0.13161 0.78268 0.0
H349 H 0.11628 0.12981 0.8188 0.0
H350 H 0.18196 0.20799 0.83941 0.0
H351 H 0.24374 0.28806 0.82396 0.0
C352 C 0.29598 0.34871 0.79591 0.0
C353 C 0.25246 0.30335 0.78375 0.0
C354 C 0.21502 0.25758 0.7931 0.0
C355 C 0.17546 0.21333 0.78126 0.0
C356 C 0.14074 0.1671 0.79093 0.0
C357 C 0.14336 0.1654 0.81168 0.0
C358 C 0.18046 0.20933 0.82328 0.0
C359 C 0.21595 0.25498 0.81419 0.0
H360 H 0.95737 0.08722 0.64977 0.0
C361 C 0.93562 0.08296 0.66293 0.0
H362 H 0.87125 0.08413 0.67446 0.0
H363 H 0.85692 0.20786 0.60046 0.0
H364 H 0.92251 0.28379 0.62106 0.0
H365 H 0.96591 0.27426 0.65154 0.0
H366 H 0.94434 0.18871 0.66151 0.0
C367 C 0.89397 0.08893 0.66157 0.0
C368 C 0.87295 0.09555 0.6421 0.0
C369 C 0.88567 0.14559 0.63661 0.0
C370 C 0.85985 0.15096 0.61928 0.0
C371 C 0.87421 0.20153 0.61383 0.0
C372 C 0.91205 0.2454 0.62543 0.0
C373 C 0.93654 0.24004 0.64258 0.0
C374 C 0.92373 0.19079 0.64817 0.0
H375 H 0.75478 0.13946 0.61123 0.0
C376 C 0.75305 0.1249 0.59609 0.0
H377 H 0.78665 0.09614 0.57662 0.0
H378 H 0.84255 0.99421 0.64769 0.0
H379 H 0.77882 0.91867 0.6267 0.0
H380 H 0.73346 0.92782 0.59676 0.0
H381 H 0.75154 0.01251 0.58766 0.0
C382 C 0.78684 0.11 0.59167 0.0
C383 C 0.82049 0.10605 0.60778 0.0
C384 C 0.81025 0.05628 0.61258 0.0
C385 C 0.83638 0.05099 0.62983 0.0
C386 C 0.82414 0.0006 0.63469 0.0
C387 C 0.78754 0.95683 0.62278 0.0
C388 C 0.76202 0.96198 0.60593 0.0
C389 C 0.77288 0.01094 0.60086 0.0
H390 H 0.95342 0.93216 0.00749 0.0
C391 C 0.9579 0.9685 0.00293 0.0
H392 H 0.92799 0.0032 0.98383 0.0
H393 H 0.82468 0.81536 0.91959 0.0
H394 H 0.89737 0.8827 0.90202 0.0
H395 H 0.96368 0.96669 0.91924 0.0
H396 H 0.95773 0.98373 0.95415 0.0
C397 C 0.92312 0.96724 0.98906 0.0
C398 C 0.88136 0.91738 0.97865 0.0
C399 C 0.88496 0.90845 0.95813 0.0
C400 C 0.84645 0.86026 0.94814 0.0
C401 C 0.85205 0.85169 0.92781 0.0
C402 C 0.89383 0.88991 0.91756 0.0
C403 C 0.93117 0.93717 0.92726 0.0
C404 C 0.92716 0.94647 0.94731 0.0
H405 H 0.72923 0.80689 0.93181 0.0
C406 C 0.72687 0.77049 0.93468 0.0
H407 H 0.76298 0.73696 0.95136 0.0
H408 H 0.86003 0.92364 0.01758 0.0
H409 H 0.78745 0.85599 0.03516 0.0
H410 H 0.72181 0.77166 0.01799 0.0
H411 H 0.7282 0.75462 0.98306 0.0
C412 C 0.76263 0.77168 0.94807 0.0
C413 C 0.80392 0.82145 0.95863 0.0
C414 C 0.80033 0.8303 0.97913 0.0
C415 C 0.83876 0.87857 0.98913 0.0
C416 C 0.83292 0.88716 0.00941 0.0
C417 C 0.79119 0.84878 0.01965 0.0
C418 C 0.75418 0.80133 0.00997 0.0
C419 C 0.75836 0.79204 0.98993 0.0
H420 H 0.97646 0.8553 0.3467 0.0
C421 C 0.97892 0.88766 0.33892 0.0
H422 H 0.9915 0.92431 0.31137 0.0
H423 H 0.10804 0.816 0.27785 0.0
H424 H 0.18196 0.90532 0.28331 0.0
H425 H 0.17051 0.97113 0.30037 0.0
H426 H 0.085 0.94813 0.31197 0.0
C427 C 0.98713 0.89142 0.31932 0.0
C428 C 0.99328 0.85205 0.30832 0.0
C429 C 0.04351 0.86613 0.30165 0.0
C430 C 0.05024 0.82806 0.292 0.0
C431 C 0.10081 0.84327 0.2854 0.0
C432 C 0.14357 0.89441 0.28843 0.0
C433 C 0.13712 0.93147 0.29802 0.0
C434 C 0.0878 0.91774 0.3046 0.0
H435 H 0.96561 0.72967 0.25349 0.0
C436 C 0.99053 0.7168 0.26021 0.0
H437 H 0.03896 0.7253 0.28609 0.0
H438 H 0.89013 0.81338 0.31704 0.0
H439 H 0.81691 0.72362 0.31253 0.0
H440 H 0.83007 0.65632 0.29799 0.0
H441 H 0.91625 0.67857 0.28754 0.0
C442 C 0.01384 0.73664 0.27855 0.0
C443 C 0.00672 0.77601 0.28901 0.0
C444 C 0.95649 0.76183 0.29579 0.0
C445 C 0.94947 0.80015 0.30503 0.0
C446 C 0.89823 0.78549 0.31067 0.0
C447 C 0.85573 0.73414 0.30804 0.0
C448 C 0.86309 0.69629 0.29979 0.0
C449 C 0.91276 0.70971 0.29373 0.0
H450 H 0.17128 0.06873 0.66907 0.0
C451 C 0.13398 0.04362 0.66037 0.0
H452 H 0.09767 0.00243 0.63275 0.0
H453 H 0.3393 0.17622 0.60645 0.0
H454 H 0.31457 0.23976 0.61198 0.0
H455 H 0.23005 0.21457 0.62659 0.0
H456 H 0.16986 0.12581 0.63582 0.0
C457 C 0.13454 0.02897 0.64144 0.0
C458 C 0.18527 0.04456 0.6324 0.0
C459 C 0.21984 0.09664 0.62703 0.0
C460 C 0.26824 0.11102 0.61837 0.0
C461 C 0.30202 0.1632 0.61306 0.0
C462 C 0.28829 0.20005 0.61614 0.0
C463 C 0.24073 0.18588 0.62438 0.0
C464 C 0.20666 0.13482 0.62972 0.0
H465 H 0.28779 0.04438 0.57838 0.0
C466 C 0.32709 0.07011 0.58569 0.0
H467 H 0.36831 0.11291 0.61276 0.0
H468 H 0.12804 0.94165 0.64116 0.0
H469 H 0.15325 0.87842 0.63593 0.0
H470 H 0.23796 0.90378 0.62145 0.0
H471 H 0.29779 0.9924 0.61203 0.0
C472 C 0.3304 0.08766 0.60457 0.0
C473 C 0.28147 0.07317 0.61481 0.0
C474 C 0.24733 0.0213 0.6205 0.0
C475 C 0.1989 0.00688 0.62911 0.0
C476 C 0.16533 0.95475 0.63454 0.0
C477 C 0.17936 0.91806 0.63166 0.0
C478 C 0.22701 0.93232 0.62349 0.0
C479 C 0.26084 0.98329 0.61802 0.0
H480 H 0.20765 0.1201 0.98661 0.0
C481 C 0.18295 0.13233 0.99312 0.0
H482 H 0.15794 0.18573 0.99245 0.0
H483 H 0.36746 0.36612 0.95918 0.0
H484 H 0.3746 0.39793 0.99326 0.0
H485 H 0.3105 0.34217 0.01745 0.0
H486 H 0.23906 0.25432 0.0077 0.0
C487 C 0.18104 0.17214 0.98557 0.0
C488 C 0.21819 0.20541 0.97057 0.0
C489 C 0.2594 0.25701 0.97651 0.0
C490 C 0.29618 0.28921 0.96258 0.0
C491 C 0.33783 0.34014 0.96904 0.0
C492 C 0.34259 0.35889 0.98861 0.0
C493 C 0.30652 0.32751 0.00222 0.0
C494 C 0.26551 0.27711 -0.00363 0.0
H495 H 0.29282 0.34428 0.92167 0.0
C496 C 0.32753 0.34181 0.91974 0.0
H497 H 0.36306 0.29817 0.92592 0.0
H498 H 0.14128 0.10997 0.95394 0.0
H499 H 0.13419 0.07828 0.91973 0.0
H500 H 0.19911 0.13383 0.89571 0.0
H501 H 0.27143 0.22163 0.90574 0.0
C502 C 0.33045 0.30358 0.92835 0.0
C503 C 0.29129 0.26993 0.94268 0.0
C504 C 0.24999 0.21856 0.93669 0.0
C505 C 0.21305 0.18629 0.95062 0.0
C506 C 0.17113 0.13567 0.94409 0.0
C507 C 0.16645 0.11712 0.92447 0.0
C508 C 0.20298 0.14843 0.91094 0.0
C509 C 0.2443 0.19866 0.91688 0.0
H510 H 0.07411 0.21513 0.3376 0.0
C511 C 0.05314 0.17416 0.33277 0.0
H512 H 0.012 0.1198 0.30854 0.0
H513 H 0.94248 0.27511 0.27935 0.0
H514 H 0.86067 0.20413 0.29093 0.0
H515 H 0.85788 0.12966 0.30656 0.0
H516 H 0.93721 0.12627 0.31091 0.0
C517 C 0.03647 0.16064 0.31344 0.0
C518 C 0.03688 0.19992 0.30028 0.0
C519 C 0.98947 0.19995 0.29689 0.0
C520 C 0.99073 0.24206 0.2873 0.0
C521 C 0.94359 0.24307 0.28564 0.0
C522 C 0.89629 0.20274 0.29244 0.0
C523 C 0.89474 0.16091 0.30128 0.0
C524 C 0.94068 0.15947 0.30365 0.0
H525 H 0.99013 0.28238 0.24602 0.0
C526 C 0.01398 0.32139 0.253 0.0
H527 H 0.06489 0.36566 0.27825 0.0
H528 H 0.13332 0.2092 0.30314 0.0
H529 H 0.21546 0.27935 0.29084 0.0
H530 H 0.21749 0.35139 0.27336 0.0
H531 H 0.13762 0.35396 0.26812 0.0
C532 C 0.04106 0.32773 0.27055 0.0
C533 C 0.03902 0.28288 0.28025 0.0
C534 C 0.08601 0.28187 0.28307 0.0
C535 C 0.08493 0.24037 0.29313 0.0
C536 C 0.13231 0.24023 0.29578 0.0
C537 C 0.17957 0.28007 0.28872 0.0
C538 C 0.1807 0.32062 0.27887 0.0
C539 C 0.13459 0.32168 0.276 0.0
loop_
_geom_bond_atom_site_label_1
_geom_bond_atom_site_label_2
_geom_bond_distance
_geom_bond_site_symmetry_2
_ccdc_geom_bond_type
Mg0 O1 2.028 . S
Mg0 O7 1.986 . S
Mg0 O9 2.114 . S
Mg0 O10 2.251 . S
Mg0 O13 2.010 . S
O1 Mg0 2.028 . S
O1 C4 1.250 1_455 S
O2 Mg3 2.028 1_655 S
O2 C4 1.248 . S
Mg3 O2 2.028 1_455 S
Mg3 O8 2.032 . S
Mg3 O10 2.079 . S
C4 O1 1.250 1_655 S
C4 O2 1.248 . S
C5 O6 1.264 1_565 S
C5 O13 1.249 1_565 S
O6 C5 1.264 1_545 S
O7 Mg0 1.986 . S
O7 C11 1.246 . S
O8 Mg3 2.032 . S
O8 C11 1.259 . S
O9 Mg0 2.114 . S
O9 C12 1.252 . S
O10 Mg0 2.251 . S
O10 Mg3 2.079 . S
O10 C12 1.273 . S
C11 O7 1.246 . S
C11 O8 1.259 . S
C12 O9 1.252 . S
C12 O10 1.273 . S
O13 Mg0 2.010 . S
O13 C5 1.249 1_545 S
Mg14 O15 2.028 1_655 S
Mg14 O21 1.986 1_655 S
Mg14 O23 2.114 1_545 S
Mg14 O24 2.251 . S
Mg14 O27 2.010 1_545 S
O15 Mg14 2.028 1_455 S
O15 C18 1.250 . S
O16 Mg17 2.028 . S
O16 C18 1.248 . S
Mg17 O16 2.028 . S
Mg17 O22 2.032 . S
Mg17 O24 2.079 1_455 S
C18 O15 1.250 . S
C18 O16 1.248 . S
C19 O20 1.264 . S
C19 O27 1.249 . S
O20 C19 1.264 . S
O21 Mg14 1.986 1_455 S
O21 C25 1.246 . S
O22 Mg17 2.032 . S
O22 C25 1.259 . S
O23 Mg14 2.114 1_565 S
O23 C26 1.252 1_565 S
O24 Mg14 2.251 . S
O24 Mg17 2.079 1_655 S
O24 C26 1.273 . S
C25 O21 1.246 . S
C25 O22 1.259 . S
C26 O23 1.252 1_545 S
C26 O24 1.273 . S
O27 Mg14 2.010 1_565 S
O27 C19 1.249 . S
Mg28 O29 2.028 . S
Mg28 O35 1.986 1_455 S
Mg28 O37 2.114 1_545 S
Mg28 O38 2.251 1_445 S
Mg28 O41 2.010 . S
O29 Mg28 2.028 . S
O29 C32 1.250 . S
O30 Mg31 2.028 1_455 S
O30 C32 1.248 . S
Mg31 O30 2.028 1_655 S
Mg31 O36 2.032 . S
Mg31 O38 2.079 1_545 S
C32 O29 1.250 . S
C32 O30 1.248 . S
C33 O34 1.246 1_545 S
C33 O41 1.263 . S
O34 C33 1.246 1_565 S
O35 Mg28 1.986 1_655 S
O35 C39 1.246 . S
O36 Mg31 2.032 . S
O36 C39 1.259 . S
O37 Mg28 2.114 1_565 S
O37 C40 1.252 1_455 S
O38 Mg28 2.251 1_665 S
O38 Mg31 2.079 1_565 S
O38 C40 1.273 . S
C39 O35 1.246 . S
C39 O36 1.259 . S
C40 O37 1.252 1_655 S
C40 O38 1.273 . S
O41 Mg28 2.010 . S
O41 C33 1.263 . S
C42 C43 1.384 1_655 S
C42 C44 1.384 . S
C42 H70 0.931 . S
C43 C42 1.384 1_455 S
C43 C46 1.382 . S
C44 C42 1.384 . S
C44 C45 1.381 1_655 S
C44 H71 0.930 . S
C45 C44 1.381 1_455 S
C45 C47 1.381 . S
C45 C48 1.487 . S
C46 C43 1.382 . S
C46 C47 1.387 . S
C46 H72 0.930 . S
C47 C45 1.381 . S
C47 C46 1.387 . S
C47 H73 0.931 . S
C48 C45 1.487 . S
C48 C55 1.399 . S
C48 N86 1.343 . S
C49 C50 1.384 . S
C49 C51 1.384 . S
C49 H74 0.931 . S
C50 C49 1.384 . S
C50 C53 1.382 . S
C51 C49 1.384 . S
C51 C52 1.381 . S
C51 H75 0.930 . S
C52 C51 1.381 . S
C52 C54 1.381 . S
C52 C55 1.487 . S
C53 C50 1.382 . S
C53 C54 1.387 . S
C53 H76 0.930 1_455 S
C54 C52 1.381 . S
C54 C53 1.387 . S
C54 H77 0.931 1_455 S
C55 C48 1.399 . S
C55 C52 1.487 . S
C55 N87 1.343 . S
C56 C57 1.384 . S
C56 C58 1.384 . S
C56 H78 0.931 . S
C57 C56 1.384 . S
C57 C60 1.382 . S
C58 C56 1.384 . S
C58 C59 1.381 . S
C58 H79 0.930 . S
C59 C58 1.381 . S
C59 C61 1.381 . S
C59 C62 1.487 . S
C60 C57 1.382 . S
C60 C61 1.387 . S
C60 H80 0.930 1_455 S
C61 C59 1.381 . S
C61 C60 1.387 . S
C61 H81 0.931 1_455 S
C62 C59 1.487 . S
C62 C69 1.399 . S
C62 N87 1.343 . S
C63 C64 1.384 1_655 S
C63 C65 1.384 . S
C63 H82 0.931 . S
C64 C63 1.384 1_455 S
C64 C67 1.382 . S
C65 C63 1.384 . S
C65 C66 1.381 1_655 S
C65 H83 0.930 . S
C66 C65 1.381 1_455 S
C66 C68 1.381 . S
C66 C69 1.487 . S
C67 C64 1.382 . S
C67 C68 1.387 . S
C67 H84 0.930 . S
C68 C66 1.381 . S
C68 C67 1.387 . S
C68 H85 0.931 . S
C69 C62 1.399 . S
C69 C66 1.487 . S
C69 N86 1.343 . S
H70 C42 0.931 . S
H71 C44 0.930 . S
H72 C46 0.930 . S
H73 C47 0.931 . S
H74 C49 0.931 . S
H75 C51 0.930 . S
H76 C53 0.930 1_655 S
H77 C54 0.931 1_655 S
H78 C56 0.931 . S
H79 C58 0.930 . S
H80 C60 0.930 1_655 S
H81 C61 0.931 1_655 S
H82 C63 0.931 . S
H83 C65 0.930 . S
H84 C67 0.930 . S
H85 C68 0.931 . S
N86 C48 1.343 . S
N86 C69 1.343 . S
N87 C55 1.343 . S
N87 C62 1.343 . S
C88 C89 1.384 . S
C88 C90 1.384 . S
C88 H116 0.931 . S
C89 C88 1.384 . S
C89 C92 1.382 . S
C90 C88 1.384 . S
C90 C91 1.381 . S
C90 H117 0.930 . S
C91 C90 1.381 . S
C91 C93 1.381 . S
C91 C94 1.487 . S
C92 C89 1.382 . S
C92 C93 1.387 . S
C92 H118 0.930 . S
C93 C91 1.381 . S
C93 C92 1.387 . S
C93 H119 0.931 . S
C94 C91 1.487 . S
C94 C101 1.399 . S
C94 N132 1.343 . S
C95 C96 1.384 . S
C95 C97 1.384 . S
C95 H120 0.931 . S
C96 C95 1.384 . S
C96 C99 1.382 . S
C97 C95 1.384 . S
C97 C98 1.381 . S
C97 H121 0.930 . S
C98 C97 1.381 . S
C98 C100 1.381 . S
C98 C101 1.487 . S
C99 C96 1.382 . S
C99 C100 1.387 . S
C99 H122 0.930 . S
C100 C98 1.381 . S
C100 C99 1.387 . S
C100 H123 0.931 . S
C101 C94 1.399 . S
C101 C98 1.487 . S
C101 N133 1.343 . S
C102 C103 1.384 . S
C102 C104 1.384 . S
C102 H124 0.931 . S
C103 C102 1.384 . S
C103 C106 1.382 . S
C104 C102 1.384 . S
C104 C105 1.381 . S
C104 H125 0.930 . S
C105 C104 1.381 . S
C105 C107 1.381 . S
C105 C108 1.487 . S
C106 C103 1.382 . S
C106 C107 1.387 . S
C106 H126 0.930 . S
C107 C105 1.381 . S
C107 C106 1.387 . S
C107 H127 0.931 . S
C108 C105 1.487 . S
C108 C115 1.399 . S
C108 N133 1.343 . S
C109 C110 1.384 . S
C109 C111 1.384 . S
C109 H128 0.931 . S
C110 C109 1.384 . S
C110 C113 1.382 . S
C111 C109 1.384 . S
C111 C112 1.381 . S
C111 H129 0.930 . S
C112 C111 1.381 . S
C112 C114 1.381 . S
C112 C115 1.487 . S
C113 C110 1.382 . S
C113 C114 1.387 . S
C113 H130 0.930 . S
C114 C112 1.381 . S
C114 C113 1.387 . S
C114 H131 0.931 . S
C115 C108 1.399 . S
C115 C112 1.487 . S
C115 N132 1.343 . S
H116 C88 0.931 . S
H117 C90 0.930 . S
H118 C92 0.930 . S
H119 C93 0.931 . S
H120 C95 0.931 . S
H121 C97 0.930 . S
H122 C99 0.930 . S
H123 C100 0.931 . S
H124 C102 0.931 . S
H125 C104 0.930 . S
H126 C106 0.930 . S
H127 C107 0.931 . S
H128 C109 0.931 . S
H129 C111 0.930 . S
H130 C113 0.930 . S
H131 C114 0.931 . S
N132 C94 1.343 . S
N132 C115 1.343 . S
N133 C101 1.343 . S
N133 C108 1.343 . S
C134 C135 1.384 . S
C134 C136 1.384 . S
C134 H162 0.931 . S
C135 C134 1.384 . S
C135 C138 1.382 . S
C136 C134 1.384 . S
C136 C137 1.381 . S
C136 H163 0.930 . S
C137 C136 1.381 . S
C137 C139 1.381 . S
C137 C140 1.487 . S
C138 C135 1.382 . S
C138 C139 1.387 . S
C138 H164 0.930 . S
C139 C137 1.381 . S
C139 C138 1.387 . S
C139 H165 0.931 . S
C140 C137 1.487 . S
C140 C147 1.399 . S
C140 N178 1.343 . S
C141 C142 1.384 . S
C141 C143 1.384 . S
C141 H166 0.931 . S
C142 C141 1.384 . S
C142 C145 1.382 . S
C143 C141 1.384 . S
C143 C144 1.381 . S
C143 H167 0.930 . S
C144 C143 1.381 . S
C144 C146 1.381 . S
C144 C147 1.487 . S
C145 C142 1.382 . S
C145 C146 1.387 . S
C145 H168 0.930 . S
C146 C144 1.381 . S
C146 C145 1.387 . S
C146 H169 0.931 . S
C147 C140 1.399 . S
C147 C144 1.487 . S
C147 N179 1.343 . S
C148 C149 1.384 . S
C148 C150 1.384 . S
C148 H170 0.931 . S
C149 C148 1.384 . S
C149 C152 1.382 . S
C150 C148 1.384 . S
C150 C151 1.381 . S
C150 H171 0.930 . S
C151 C150 1.381 . S
C151 C153 1.381 . S
C151 C154 1.487 . S
C152 C149 1.382 . S
C152 C153 1.387 . S
C152 H172 0.930 . S
C153 C151 1.381 . S
C153 C152 1.387 . S
C153 H173 0.931 . S
C154 C151 1.487 . S
C154 C161 1.399 . S
C154 N179 1.343 . S
C155 C156 1.384 . S
C155 C157 1.384 . S
C155 H174 0.931 . S
C156 C155 1.384 . S
C156 C159 1.382 . S
C157 C155 1.384 . S
C157 C158 1.381 . S
C157 H175 0.930 . S
C158 C157 1.381 . S
C158 C160 1.381 . S
C158 C161 1.487 . S
C159 C156 1.382 . S
C159 C160 1.387 . S
C159 H176 0.930 . S
C160 C158 1.381 . S
C160 C159 1.387 . S
C160 H177 0.931 . S
C161 C154 1.399 . S
C161 C158 1.487 . S
C161 N178 1.343 . S
H162 C134 0.931 . S
H163 C136 0.930 . S
H164 C138 0.930 . S
H165 C139 0.931 . S
H166 C141 0.931 . S
H167 C143 0.930 . S
H168 C145 0.930 . S
H169 C146 0.931 . S
H170 C148 0.931 . S
H171 C150 0.930 . S
H172 C152 0.930 . S
H173 C153 0.931 . S
H174 C155 0.931 . S
H175 C157 0.930 . S
H176 C159 0.930 . S
H177 C160 0.931 . S
N178 C140 1.343 . S
N178 C161 1.343 . S
N179 C147 1.343 . S
N179 C154 1.343 . S
H180 C181 0.951 . S
C181 H180 0.951 . S
C181 C187 1.265 . S
H182 C187 0.950 1_655 S
H183 C191 0.949 . S
H184 C192 0.950 . S
H185 C193 0.951 . S
H186 C194 0.951 . S
C187 C181 1.265 . S
C187 H182 0.950 1_455 S
C187 C188 1.478 . S
C188 C187 1.478 . S
C188 C189 1.397 1_455 S
C188 C205 1.394 . S
C189 C188 1.397 1_655 S
C189 C190 1.438 . S
C189 C194 1.429 . S
C190 C189 1.438 . S
C190 C191 1.428 . S
C190 C203 1.394 1_655 S
C191 H183 0.949 . S
C191 C190 1.428 . S
C191 C192 1.345 . S
C192 H184 0.950 . S
C192 C191 1.345 . S
C192 C193 1.424 . S
C193 H185 0.951 . S
C193 C192 1.424 . S
C193 C194 1.347 . S
C194 H186 0.951 . S
C194 C189 1.429 . S
C194 C193 1.347 . S
H195 C196 0.951 . S
C196 H195 0.951 . S
C196 C202 1.265 . S
H197 C202 0.950 . S
H198 C206 0.949 . S
H199 C207 0.950 . S
H200 C208 0.951 . S
H201 C209 0.951 . S
C202 C196 1.265 . S
C202 H197 0.950 . S
C202 C203 1.478 . S
C203 C190 1.394 1_455 S
C203 C202 1.478 . S
C203 C204 1.397 . S
C204 C203 1.397 . S
C204 C205 1.438 . S
C204 C209 1.429 . S
C205 C188 1.394 . S
C205 C204 1.438 . S
C205 C206 1.428 . S
C206 H198 0.949 . S
C206 C205 1.428 . S
C206 C207 1.345 . S
C207 H199 0.950 . S
C207 C206 1.345 . S
C207 C208 1.424 . S
C208 H200 0.951 . S
C208 C207 1.424 . S
C208 C209 1.347 . S
C209 H201 0.951 . S
C209 C204 1.429 . S
C209 C208 1.347 . S
H210 C211 0.951 . S
C211 H210 0.951 . S
C211 C217 1.265 . S
H212 C217 0.950 . S
H213 C221 0.949 . S
H214 C222 0.950 . S
H215 C223 0.951 . S
H216 C224 0.951 . S
C217 C211 1.265 . S
C217 H212 0.950 . S
C217 C218 1.478 . S
C218 C217 1.478 . S
C218 C219 1.397 . S
C218 C235 1.394 1_545 S
C219 C218 1.397 . S
C219 C220 1.438 . S
C219 C224 1.429 . S
C220 C219 1.438 . S
C220 C221 1.428 . S
C220 C233 1.394 . S
C221 H213 0.949 . S
C221 C220 1.428 . S
C221 C222 1.345 . S
C222 H214 0.950 . S
C222 C221 1.345 . S
C222 C223 1.424 . S
C223 H215 0.951 . S
C223 C222 1.424 . S
C223 C224 1.347 . S
C224 H216 0.951 . S
C224 C219 1.429 . S
C224 C223 1.347 . S
H225 C226 0.951 . S
C226 H225 0.951 . S
C226 C232 1.265 . S
H227 C232 0.950 . S
H228 C236 0.949 . S
H229 C237 0.950 . S
H230 C238 0.951 . S
H231 C239 0.951 . S
C232 C226 1.265 . S
C232 H227 0.950 . S
C232 C233 1.478 . S
C233 C220 1.394 . S
C233 C232 1.478 . S
C233 C234 1.414 . S
C234 C233 1.414 . S
C234 C235 1.428 1_545 S
C234 C239 1.421 1_545 S
C235 C218 1.394 1_565 S
C235 C234 1.428 1_565 S
C235 C236 1.428 . S
C236 H228 0.949 . S
C236 C235 1.428 . S
C236 C237 1.345 . S
C237 H229 0.950 . S
C237 C236 1.345 . S
C237 C238 1.424 . S
C238 H230 0.951 . S
C238 C237 1.424 . S
C238 C239 1.347 . S
C239 H231 0.951 . S
C239 C234 1.421 1_565 S
C239 C238 1.347 . S
H240 C241 0.951 . S
C241 H240 0.951 . S
C241 C247 1.265 . S
H242 C247 0.950 . S
H243 C251 0.949 . S
H244 C252 0.950 . S
H245 C253 0.951 . S
H246 C254 0.951 . S
C247 C241 1.265 . S
C247 H242 0.950 . S
C247 C248 1.478 . S
C248 C247 1.478 . S
C248 C249 1.397 . S
C248 C265 1.394 . S
C249 C248 1.397 . S
C249 C250 1.438 . S
C249 C254 1.429 . S
C250 C249 1.438 . S
C250 C251 1.428 . S
C250 C263 1.394 . S
C251 H243 0.949 . S
C251 C250 1.428 . S
C251 C252 1.345 . S
C252 H244 0.950 . S
C252 C251 1.345 . S
C252 C253 1.424 . S
C253 H245 0.951 . S
C253 C252 1.424 . S
C253 C254 1.347 . S
C254 H246 0.951 . S
C254 C249 1.429 . S
C254 C253 1.347 . S
H255 C256 0.951 . S
C256 H255 0.951 . S
C256 C262 1.265 . S
H257 C262 0.950 . S
H258 C266 0.949 . S
H259 C267 0.950 . S
H260 C268 0.951 . S
H261 C269 0.951 . S
C262 C256 1.265 . S
C262 H257 0.950 . S
C262 C263 1.478 . S
C263 C250 1.394 . S
C263 C262 1.478 . S
C263 C264 1.397 . S
C264 C263 1.397 . S
C264 C265 1.438 . S
C264 C269 1.429 . S
C265 C248 1.394 . S
C265 C264 1.438 . S
C265 C266 1.428 . S
C266 H258 0.949 . S
C266 C265 1.428 . S
C266 C267 1.345 . S
C267 H259 0.950 . S
C267 C266 1.345 . S
C267 C268 1.424 . S
C268 H260 0.951 . S
C268 C267 1.424 . S
C268 C269 1.347 . S
C269 H261 0.951 . S
C269 C264 1.429 . S
C269 C268 1.347 . S
H270 C271 0.951 . S
C271 H270 0.951 . S
C271 C277 1.265 . S
H272 C277 0.950 . S
H273 C281 0.949 . S
H274 C282 0.950 . S
H275 C283 0.951 . S
H276 C284 0.951 . S
C277 C271 1.265 . S
C277 H272 0.950 . S
C277 C278 1.478 . S
C278 C277 1.478 . S
C278 C279 1.397 . S
C278 C295 1.394 . S
C279 C278 1.397 . S
C279 C280 1.438 . S
C279 C284 1.429 1_455 S
C280 C279 1.438 . S
C280 C281 1.428 1_455 S
C280 C293 1.394 . S
C281 H273 0.949 . S
C281 C280 1.428 1_655 S
C281 C282 1.345 . S
C282 H274 0.950 . S
C282 C281 1.345 . S
C282 C283 1.424 . S
C283 H275 0.951 . S
C283 C282 1.424 . S
C283 C284 1.347 . S
C284 H276 0.951 . S
C284 C279 1.429 1_655 S
C284 C283 1.347 . S
H285 C286 0.951 . S
C286 H285 0.951 . S
C286 C292 1.265 . S
H287 C292 0.950 . S
H288 C296 0.949 . S
H289 C297 0.950 1_545 S
H290 C298 0.951 . S
H291 C299 0.951 . S
C292 C286 1.265 . S
C292 H287 0.950 . S
C292 C293 1.478 . S
C293 C280 1.394 . S
C293 C292 1.478 . S
C293 C294 1.397 . S
C294 C293 1.397 . S
C294 C295 1.438 . S
C294 C299 1.429 . S
C295 C278 1.394 . S
C295 C294 1.438 . S
C295 C296 1.428 . S
C296 H288 0.949 . S
C296 C295 1.428 . S
C296 C297 1.345 . S
C297 H289 0.950 1_565 S
C297 C296 1.345 . S
C297 C298 1.424 . S
C298 H290 0.951 . S
C298 C297 1.424 . S
C298 C299 1.347 . S
C299 H291 0.951 . S
C299 C294 1.429 . S
C299 C298 1.347 . S
H300 C301 0.951 . S
C301 H300 0.951 . S
C301 C307 1.265 . S
H302 C307 0.950 . S
H303 C311 0.949 . S
H304 C312 0.950 . S
H305 C313 0.951 . S
H306 C314 0.951 . S
C307 C301 1.265 . S
C307 H302 0.950 . S
C307 C308 1.478 . S
C308 C307 1.478 . S
C308 C309 1.397 . S
C308 C325 1.394 . S
C309 C308 1.397 . S
C309 C310 1.438 . S
C309 C314 1.429 1_545 S
C310 C309 1.438 . S
C310 C311 1.428 1_545 S
C310 C323 1.394 . S
C311 H303 0.949 . S
C311 C310 1.428 1_565 S
C311 C312 1.345 . S
C312 H304 0.950 . S
C312 C311 1.345 . S
C312 C313 1.424 . S
C313 H305 0.951 . S
C313 C312 1.424 . S
C313 C314 1.347 . S
C314 H306 0.951 . S
C314 C309 1.429 1_565 S
C314 C313 1.347 . S
H315 C316 0.951 . S
C316 H315 0.951 . S
C316 C322 1.265 . S
H317 C322 0.950 . S
H318 C326 0.949 . S
H319 C327 0.950 . S
H320 C328 0.951 . S
H321 C329 0.951 . S
C322 C316 1.265 . S
C322 H317 0.950 . S
C322 C323 1.478 . S
C323 C310 1.394 . S
C323 C322 1.478 . S
C323 C324 1.397 . S
C324 C323 1.397 . S
C324 C325 1.438 . S
C324 C329 1.429 . S
C325 C308 1.394 . S
C325 C324 1.438 . S
C325 C326 1.428 . S
C326 H318 0.949 . S
C326 C325 1.428 . S
C326 C327 1.345 . S
C327 H319 0.950 . S
C327 C326 1.345 . S
C327 C328 1.424 . S
C328 H320 0.951 . S
C328 C327 1.424 . S
C328 C329 1.347 . S
C329 H321 0.951 . S
C329 C324 1.429 . S
C329 C328 1.347 . S
H330 C331 0.951 . S
C331 H330 0.951 . S
C331 C337 1.265 . S
H332 C337 0.950 . S
H333 C341 0.949 . S
H334 C342 0.950 . S
H335 C343 0.951 . S
H336 C344 0.951 . S
C337 C331 1.265 . S
C337 H332 0.950 . S
C337 C338 1.478 . S
C338 C337 1.478 . S
C338 C339 1.397 . S
C338 C355 1.394 . S
C339 C338 1.397 . S
C339 C340 1.438 . S
C339 C344 1.429 . S
C340 C339 1.438 . S
C340 C341 1.428 . S
C340 C353 1.394 . S
C341 H333 0.949 . S
C341 C340 1.428 . S
C341 C342 1.345 . S
C342 H334 0.950 . S
C342 C341 1.345 . S
C342 C343 1.424 . S
C343 H335 0.951 . S
C343 C342 1.424 . S
C343 C344 1.347 . S
C344 H336 0.951 . S
C344 C339 1.429 . S
C344 C343 1.347 . S
H345 C346 0.951 . S
C346 H345 0.951 . S
C346 C352 1.265 . S
H347 C352 0.950 . S
H348 C356 0.949 . S
H349 C357 0.950 . S
H350 C358 0.951 . S
H351 C359 0.951 . S
C352 C346 1.265 . S
C352 H347 0.950 . S
C352 C353 1.478 . S
C353 C340 1.394 . S
C353 C352 1.478 . S
C353 C354 1.397 . S
C354 C353 1.397 . S
C354 C355 1.438 . S
C354 C359 1.429 . S
C355 C338 1.394 . S
C355 C354 1.438 . S
C355 C356 1.428 . S
C356 H348 0.949 . S
C356 C355 1.428 . S
C356 C357 1.345 . S
C357 H349 0.950 . S
C357 C356 1.345 . S
C357 C358 1.424 . S
C358 H350 0.951 . S
C358 C357 1.424 . S
C358 C359 1.347 . S
C359 H351 0.951 . S
C359 C354 1.429 . S
C359 C358 1.347 . S
H360 C361 0.951 . S
C361 H360 0.951 . S
C361 C367 1.265 . S
H362 C367 0.950 . S
H363 C371 0.949 . S
H364 C372 0.950 . S
H365 C373 0.951 . S
H366 C374 0.951 . S
C367 C361 1.265 . S
C367 H362 0.950 . S
C367 C368 1.478 . S
C368 C367 1.478 . S
C368 C369 1.397 . S
C368 C385 1.394 . S
C369 C368 1.397 . S
C369 C370 1.438 . S
C369 C374 1.429 . S
C370 C369 1.438 . S
C370 C371 1.428 . S
C370 C383 1.394 . S
C371 H363 0.949 . S
C371 C370 1.428 . S
C371 C372 1.345 . S
C372 H364 0.950 . S
C372 C371 1.345 . S
C372 C373 1.424 . S
C373 H365 0.951 . S
C373 C372 1.424 . S
C373 C374 1.347 . S
C374 H366 0.951 . S
C374 C369 1.429 . S
C374 C373 1.347 . S
H375 C376 0.951 . S
C376 H375 0.951 . S
C376 C382 1.265 . S
H377 C382 0.950 . S
H378 C386 0.949 . S
H379 C387 0.950 . S
H380 C388 0.951 . S
H381 C389 0.951 . S
C382 C376 1.265 . S
C382 H377 0.950 . S
C382 C383 1.478 . S
C383 C370 1.394 . S
C383 C382 1.478 . S
C383 C384 1.397 . S
C384 C383 1.397 . S
C384 C385 1.438 . S
C384 C389 1.429 1_545 S
C385 C368 1.394 . S
C385 C384 1.438 . S
C385 C386 1.428 1_545 S
C386 H378 0.949 . S
C386 C385 1.428 1_565 S
C386 C387 1.345 . S
C387 H379 0.950 . S
C387 C386 1.345 . S
C387 C388 1.424 . S
C388 H380 0.951 . S
C388 C387 1.424 . S
C388 C389 1.347 . S
C389 H381 0.951 . S
C389 C384 1.429 1_565 S
C389 C388 1.347 . S
H390 C391 0.951 . S
C391 H390 0.951 . S
C391 C397 1.279 . S
H392 C397 0.966 . S
H393 C401 0.949 . S
H394 C402 0.950 . S
H395 C403 0.951 1_545 S
H396 C404 0.951 . S
C397 C391 1.279 . S
C397 H392 0.966 . S
C397 C398 1.451 1_554 S
C398 C397 1.451 1_556 S
C398 C399 1.397 . S
C398 C415 1.394 . S
C399 C398 1.397 . S
C399 C400 1.438 . S
C399 C404 1.429 . S
C400 C399 1.438 . S
C400 C401 1.428 . S
C400 C413 1.394 . S
C401 H393 0.949 . S
C401 C400 1.428 . S
C401 C402 1.345 . S
C402 H394 0.950 . S
C402 C401 1.345 . S
C402 C403 1.424 . S
C403 H395 0.951 1_565 S
C403 C402 1.424 . S
C403 C404 1.347 . S
C404 H396 0.951 . S
C404 C399 1.429 . S
C404 C403 1.347 . S
H405 C406 0.951 . S
C406 H405 0.951 . S
C406 C412 1.265 . S
H407 C412 0.950 . S
H408 C416 0.949 . S
H409 C417 0.950 . S
H410 C418 0.952 . S
H411 C419 0.951 . S
C412 C406 1.265 . S
C412 H407 0.950 . S
C412 C413 1.478 . S
C413 C400 1.394 . S
C413 C412 1.478 . S
C413 C414 1.397 . S
C414 C413 1.397 . S
C414 C415 1.438 . S
C414 C419 1.429 . S
C415 C398 1.394 . S
C415 C414 1.438 . S
C415 C416 1.428 1_556 S
C416 H408 0.949 . S
C416 C415 1.428 1_554 S
C416 C417 1.345 . S
C417 H409 0.950 . S
C417 C416 1.345 . S
C417 C418 1.426 . S
C418 H410 0.952 . S
C418 C417 1.426 . S
C418 C419 1.344 1_554 S
C419 H411 0.951 . S
C419 C414 1.429 . S
C419 C418 1.344 1_556 S
H420 C421 0.951 . S
C421 H420 0.951 . S
C421 C427 1.265 1_655 S
H422 C427 0.950 . S
H423 C431 0.949 . S
H424 C432 0.950 . S
H425 C433 0.951 . S
H426 C434 0.951 . S
C427 C421 1.265 1_455 S
C427 H422 0.950 . S
C427 C428 1.478 . S
C428 C427 1.478 . S
C428 C429 1.397 . S
C428 C445 1.394 1_455 S
C429 C428 1.397 . S
C429 C430 1.438 . S
C429 C434 1.429 . S
C430 C429 1.438 . S
C430 C431 1.428 . S
C430 C443 1.394 . S
C431 H423 0.949 . S
C431 C430 1.428 . S
C431 C432 1.345 . S
C432 H424 0.950 . S
C432 C431 1.345 . S
C432 C433 1.424 . S
C433 H425 0.951 . S
C433 C432 1.424 . S
C433 C434 1.347 . S
C434 H426 0.951 . S
C434 C429 1.429 . S
C434 C433 1.347 . S
H435 C436 0.951 . S
C436 H435 0.951 . S
C436 C442 1.265 . S
H437 C442 0.950 1_655 S
H438 C446 0.949 . S
H439 C447 0.950 . S
H440 C448 0.951 . S
H441 C449 0.951 . S
C442 C436 1.265 . S
C442 H437 0.950 1_455 S
C442 C443 1.478 . S
C443 C430 1.394 . S
C443 C442 1.478 . S
C443 C444 1.397 1_455 S
C444 C443 1.397 1_655 S
C444 C445 1.438 . S
C444 C449 1.429 . S
C445 C428 1.394 1_655 S
C445 C444 1.438 . S
C445 C446 1.428 . S
C446 H438 0.949 . S
C446 C445 1.428 . S
C446 C447 1.345 . S
C447 H439 0.950 . S
C447 C446 1.345 . S
C447 C448 1.424 . S
C448 H440 0.951 . S
C448 C447 1.424 . S
C448 C449 1.347 . S
C449 H441 0.951 . S
C449 C444 1.429 . S
C449 C448 1.347 . S
H450 C451 0.951 . S
C451 H450 0.951 . S
C451 C457 1.265 . S
H452 C457 0.950 . S
H453 C461 0.949 . S
H454 C462 0.950 . S
H455 C463 0.951 . S
H456 C464 0.951 . S
C457 C451 1.265 . S
C457 H452 0.950 . S
C457 C458 1.478 . S
C458 C457 1.478 . S
C458 C459 1.397 . S
C458 C475 1.373 1_545 S
C459 C458 1.397 . S
C459 C460 1.438 . S
C459 C464 1.429 . S
C460 C459 1.438 . S
C460 C461 1.428 . S
C460 C473 1.394 . S
C461 H453 0.949 . S
C461 C460 1.428 . S
C461 C462 1.345 . S
C462 H454 0.950 . S
C462 C461 1.345 . S
C462 C463 1.424 . S
C463 H455 0.951 . S
C463 C462 1.424 . S
C463 C464 1.347 . S
C464 H456 0.951 . S
C464 C459 1.429 . S
C464 C463 1.347 . S
H465 C466 0.951 . S
C466 H465 0.951 . S
C466 C472 1.265 . S
H467 C472 0.950 . S
H468 C476 0.949 . S
H469 C477 0.950 . S
H470 C478 0.951 . S
H471 C479 0.951 . S
C472 C466 1.265 . S
C472 H467 0.950 . S
C472 C473 1.478 . S
C473 C460 1.394 . S
C473 C472 1.478 . S
C473 C474 1.397 . S
C474 C473 1.397 . S
C474 C475 1.445 1_545 S
C474 C479 1.429 1_545 S
C475 C458 1.373 1_565 S
C475 C474 1.445 1_565 S
C475 C476 1.442 . S
C476 H468 0.949 . S
C476 C475 1.442 . S
C476 C477 1.345 . S
C477 H469 0.950 . S
C477 C476 1.345 . S
C477 C478 1.424 . S
C478 H470 0.951 . S
C478 C477 1.424 . S
C478 C479 1.347 . S
C479 H471 0.951 . S
C479 C474 1.429 1_565 S
C479 C478 1.347 . S
H480 C481 0.951 . S
C481 H480 0.951 . S
C481 C487 1.265 1_554 S
H482 C487 0.950 . S
H483 C491 0.949 . S
H484 C492 0.942 1_554 S
H485 C493 0.951 . S
H486 C494 0.951 . S
C487 C481 1.265 1_556 S
C487 H482 0.950 . S
C487 C488 1.478 . S
C488 C487 1.478 . S
C488 C489 1.397 . S
C488 C505 1.394 . S
C489 C488 1.397 . S
C489 C490 1.438 . S
C489 C494 1.429 1_556 S
C490 C489 1.438 . S
C490 C491 1.428 . S
C490 C503 1.394 . S
C491 H483 0.949 . S
C491 C490 1.428 . S
C491 C492 1.345 . S
C492 H484 0.942 1_556 S
C492 C491 1.345 . S
C492 C493 1.424 1_556 S
C493 H485 0.951 . S
C493 C492 1.424 1_554 S
C493 C494 1.347 . S
C494 H486 0.951 . S
C494 C489 1.429 1_554 S
C494 C493 1.347 . S
H495 C496 0.951 . S
C496 H495 0.951 . S
C496 C502 1.265 . S
H497 C502 0.950 . S
H498 C506 0.949 . S
H499 C507 0.950 . S
H500 C508 0.951 . S
H501 C509 0.951 . S
C502 C496 1.265 . S
C502 H497 0.950 . S
C502 C503 1.478 . S
C503 C490 1.394 . S
C503 C502 1.478 . S
C503 C504 1.397 . S
C504 C503 1.397 . S
C504 C505 1.438 . S
C504 C509 1.429 . S
C505 C488 1.394 . S
C505 C504 1.438 . S
C505 C506 1.428 . S
C506 H498 0.949 . S
C506 C505 1.428 . S
C506 C507 1.345 . S
C507 H499 0.950 . S
C507 C506 1.345 . S
C507 C508 1.424 . S
C508 H500 0.951 . S
C508 C507 1.424 . S
C508 C509 1.347 . S
C509 H501 0.951 . S
C509 C504 1.429 . S
C509 C508 1.347 . S
H510 C511 0.951 . S
C511 H510 0.951 . S
C511 C517 1.265 . S
H512 C517 0.950 . S
H513 C521 0.949 . S
H514 C522 0.950 . S
H515 C523 0.951 . S
H516 C524 0.951 . S
C517 C511 1.265 . S
C517 H512 0.950 . S
C517 C518 1.478 . S
C518 C517 1.478 . S
C518 C519 1.397 1_455 S
C518 C535 1.394 . S
C519 C518 1.397 1_655 S
C519 C520 1.438 . S
C519 C524 1.429 . S
C520 C519 1.438 . S
C520 C521 1.428 . S
C520 C533 1.394 1_655 S
C521 H513 0.949 . S
C521 C520 1.428 . S
C521 C522 1.345 . S
C522 H514 0.950 . S
C522 C521 1.345 . S
C522 C523 1.424 . S
C523 H515 0.951 . S
C523 C522 1.424 . S
C523 C524 1.347 . S
C524 H516 0.951 . S
C524 C519 1.429 . S
C524 C523 1.347 . S
H525 C526 0.951 . S
C526 H525 0.951 . S
C526 C532 1.265 . S
H527 C532 0.950 . S
H528 C536 0.949 . S
H529 C537 0.950 . S
H530 C538 0.951 . S
H531 C539 0.951 . S
C532 C526 1.265 . S
C532 H527 0.950 . S
C532 C533 1.478 . S
C533 C520 1.394 1_455 S
C533 C532 1.478 . S
C533 C534 1.397 . S
C534 C533 1.397 . S
C534 C535 1.438 . S
C534 C539 1.429 . S
C535 C518 1.394 . S
C535 C534 1.438 . S
C535 C536 1.428 . S
C536 H528 0.949 . S
C536 C535 1.428 . S
C536 C537 1.345 . S
C537 H529 0.950 . S
C537 C536 1.345 . S
C537 C538 1.424 . S
C538 H530 0.951 . S
C538 C537 1.424 . S
C538 C539 1.347 . S
C539 H531 0.951 . S
C539 C534 1.429 . S
C539 C538 1.347 . S
C196 C50 1.365 . S
C181 C11 1.361 . S
C211 C26 1.515 . S
C226 C89 1.522 . S
C241 C40 1.382 . S
C256 C156 1.401 . S
C271 C5 1.184 . S
C286 C57 1.369 . S
C316 C110 1.509 . S
C301 C18 1.521 . S
C331 C32 1.358 . S
C346 C135 1.400 . S
C376 C96 1.258 . S
C361 C39 1.270 . S
C391 C4 1.386 1_565 S
C406 C149 1.404 . S
C436 C64 1.376 . S
C421 C19 1.250 . S
C466 C103 1.293 . S
C451 C33 1.212 . S
C496 C142 1.428 . S
C481 C12 1.430 . S
C511 C25 1.337 . S
C526 C43 1.379 . S
