# Generated by pormake.
# Topology anh, (6,3)-cn, num edge types: 1
# Building blocks:
#     Node 0, Type 0, BuildingBlock: VOLQOD_clean_sbu_1, # of connection points: 6
#     Node 1, Type 0, BuildingBlock: VOLQOD_clean_sbu_1, # of connection points: 6
#     Node 2, Type 0, BuildingBlock: VOLQOD_clean_sbu_1, # of connection points: 6
#     Node 3, Type 1, BuildingBlock: PAMTOO_clean_linker_0, # of connection points: 3
#     Node 4, Type 1, BuildingBlock: PAMTOO_clean_linker_0, # of connection points: 3
#     Node 5, Type 1, BuildingBlock: PAMTOO_clean_linker_0, # of connection points: 3
#     Node 6, Type 1, BuildingBlock: PAMTOO_clean_linker_0, # of connection points: 3
#     Node 7, Type 1, BuildingBlock: PAMTOO_clean_linker_0, # of connection points: 3
#     Node 8, Type 1, BuildingBlock: PAMTOO_clean_linker_0, # of connection points: 3
#     Edge 9, Type (0, 1), BuildingBlock: CIFDUS_clean_linker_0, # of connection points: 2
#     Edge 10, Type (0, 1), BuildingBlock: CIFDUS_clean_linker_0, # of connection points: 2
#     Edge 11, Type (0, 1), BuildingBlock: CIFDUS_clean_linker_0, # of connection points: 2
#     Edge 12, Type (0, 1), BuildingBlock: CIFDUS_clean_linker_0, # of connection points: 2
#     Edge 13, Type (0, 1), BuildingBlock: CIFDUS_clean_linker_0, # of connection points: 2
#     Edge 14, Type (0, 1), BuildingBlock: CIFDUS_clean_linker_0, # of connection points: 2
#     Edge 15, Type (0, 1), BuildingBlock: CIFDUS_clean_linker_0, # of connection points: 2
#     Edge 16, Type (0, 1), BuildingBlock: CIFDUS_clean_linker_0, # of connection points: 2
#     Edge 17, Type (0, 1), BuildingBlock: CIFDUS_clean_linker_0, # of connection points: 2
#     Edge 18, Type (0, 1), BuildingBlock: CIFDUS_clean_linker_0, # of connection points: 2
#     Edge 19, Type (0, 1), BuildingBlock: CIFDUS_clean_linker_0, # of connection points: 2
#     Edge 20, Type (0, 1), BuildingBlock: CIFDUS_clean_linker_0, # of connection points: 2
#     Edge 21, Type (0, 1), BuildingBlock: CIFDUS_clean_linker_0, # of connection points: 2
#     Edge 22, Type (0, 1), BuildingBlock: CIFDUS_clean_linker_0, # of connection points: 2
#     Edge 23, Type (0, 1), BuildingBlock: CIFDUS_clean_linker_0, # of connection points: 2
#     Edge 24, Type (0, 1), BuildingBlock: CIFDUS_clean_linker_0, # of connection points: 2
#     Edge 25, Type (0, 1), BuildingBlock: CIFDUS_clean_linker_0, # of connection points: 2
#     Edge 26, Type (0, 1), BuildingBlock: CIFDUS_clean_linker_0, # of connection points: 2
# Relax obj value: 0.160
# Max RMSD: 0.219
# Mean RMSD: 0.137
data_MOF--net-anh--node1-VOLQOD_clean_sbu_1--node2-PAMTOO_clean_linker_0--edge1-CIFDUS_clean_linker_0
_symmetry_space_group_name_H-M    P1
_symmetry_Int_Tables_number       1
_symmetry_cell_setting            triclinic
loop_
_symmetry_equiv_pos_as_xyz
'x, y, z'
_cell_length_a     26.148636
_cell_length_b     26.099321
_cell_length_c     49.400926
_cell_angle_alpha  84.652439
_cell_angle_beta   92.979766
_cell_angle_gamma 120.4833
loop_
_atom_site_label
_atom_site_type_symbol
_atom_site_fract_x
_atom_site_fract_y
_atom_site_fract_z
_atom_type_partial_charge
O0 O 0.08998 0.59072 0.22529 0.0
Zn1 Zn 0.09253 0.60443 0.1841 0.0
O2 O 0.10971 0.54922 0.16801 0.0
Zn3 Zn 0.04363 0.49243 0.14762 0.0
Zn4 Zn 0.12544 0.50527 0.19741 0.0
Zn5 Zn 0.17646 0.59094 0.14356 0.0
O6 O 0.06194 0.499 0.10801 0.0
O7 O 0.15011 0.58163 0.1039 0.0
O8 O 0.01314 0.59434 0.17068 0.0
O9 O 0.98139 0.5135 0.14825 0.0
O10 O 0.00501 0.40811 0.16484 0.0
O11 O 0.05278 0.42429 0.20439 0.0
O12 O 0.19393 0.49617 0.18847 0.0
O13 O 0.16117 0.68855 0.1765 0.0
O14 O 0.22879 0.55514 0.15037 0.0
O15 O 0.223 0.67778 0.15145 0.0
C16 C 0.11829 0.57203 0.24102 0.0
C17 C 0.10399 0.53974 0.09325 0.0
C18 C 0.01037 0.39036 0.18915 0.0
C19 C 0.97315 0.5529 0.1571 0.0
C20 C 0.23064 0.51864 0.16889 0.0
C21 C 0.21084 0.71026 0.16449 0.0
O22 O 0.14218 0.54492 0.23213 0.0
O23 O 0.55542 0.0509 0.43919 0.0
Zn24 Zn 0.53287 0.04276 0.47866 0.0
O25 O 0.58726 0.02895 0.50271 0.0
Zn26 Zn 0.62314 0.08938 0.52815 0.0
Zn27 Zn 0.64994 0.03283 0.48152 0.0
Zn28 Zn 0.54526 0.95279 0.52364 0.0
O29 O 0.62103 0.05647 0.5664 0.0
O30 O 0.55289 0.9611 0.56425 0.0
O31 O 0.52754 0.11376 0.48901 0.0
O32 O 0.57835 0.1317 0.52793 0.0
O33 O 0.70622 0.15086 0.51759 0.0
O34 O 0.72555 0.11182 0.48431 0.0
O35 O 0.66413 0.96474 0.49354 0.0
O36 O 0.45068 0.97061 0.48189 0.0
O37 O 0.58117 0.90377 0.5167 0.0
O38 O 0.45931 0.90826 0.51301 0.0
C39 C 0.59101 0.03961 0.42786 0.0
C40 C 0.58771 0.00494 0.578 0.0
C41 C 0.74099 0.15418 0.49956 0.0
C42 C 0.54487 0.14036 0.51091 0.0
C43 C 0.62937 0.91465 0.50613 0.0
C44 C 0.42812 0.92082 0.49608 0.0
O45 O 0.627 0.02835 0.44188 0.0
O46 O 0.54863 0.50572 0.76445 0.0
Zn47 Zn 0.52051 0.46915 0.80221 0.0
O48 O 0.58253 0.5152 0.82796 0.0
Zn49 Zn 0.5581 0.55755 0.84874 0.0
Zn50 Zn 0.65659 0.57161 0.80866 0.0
Zn51 Zn 0.59307 0.46166 0.85399 0.0
O52 O 0.5663 0.54488 0.8888 0.0
O53 O 0.56596 0.45951 0.89177 0.0
O54 O 0.44329 0.46692 0.80941 0.0
O55 O 0.47273 0.52838 0.84244 0.0
O56 O 0.60195 0.64397 0.83741 0.0
O57 O 0.67202 0.65633 0.80962 0.0
O58 O 0.72667 0.56652 0.82654 0.0
O59 O 0.50635 0.38493 0.80373 0.0
O60 O 0.67912 0.49131 0.85778 0.0
O61 O 0.55525 0.37991 0.84105 0.0
C62 C 0.60009 0.53504 0.75382 0.0
C63 C 0.56315 0.50009 0.90292 0.0
C64 C 0.64571 0.67741 0.82184 0.0
C65 C 0.43246 0.4934 0.82677 0.0
C66 C 0.72702 0.53173 0.84647 0.0
C67 C 0.52315 0.3561 0.82051 0.0
O68 O 0.64732 0.55685 0.76832 0.0
H69 H 0.73297 0.10229 0.2718 0.0
H70 H 0.54758 0.97896 0.26064 0.0
H71 H 0.6559 0.0746 0.19109 0.0
H72 H 0.53425 0.04318 0.18049 0.0
C73 C 0.51234 0.007 0.19692 0.0
O74 O 0.55172 0.98978 0.20748 0.0
H75 H 0.49832 0.02422 0.21311 0.0
C76 C 0.69542 0.08147 0.25818 0.0
C77 C 0.70264 0.09596 0.22988 0.0
C78 C 0.6396 0.04095 0.26951 0.0
C79 C 0.59067 0.0115 0.25225 0.0
C80 C 0.59754 0.02263 0.22403 0.0
C81 C 0.65279 0.06536 0.21294 0.0
H82 H 0.6561 0.65575 0.59097 0.0
H83 H 0.62423 0.47713 0.58903 0.0
H84 H 0.61659 0.57366 0.51525 0.0
H85 H 0.52898 0.45961 0.51384 0.0
C86 C 0.5423 0.4363 0.53019 0.0
O87 O 0.60152 0.47218 0.53655 0.0
H88 H 0.5141 0.4267 0.54826 0.0
C89 C 0.64824 0.61883 0.57957 0.0
C90 C 0.63848 0.62139 0.55141 0.0
C91 C 0.64386 0.56715 0.59334 0.0
C92 C 0.63012 0.51815 0.57859 0.0
C93 C 0.62036 0.52083 0.55044 0.0
C94 C 0.62581 0.57272 0.53689 0.0
H95 H 0.03192 0.59532 0.9332 0.0
H96 H 0.18005 0.57119 0.92102 0.0
H97 H 0.07646 0.58043 0.85266 0.0
H98 H 0.12084 0.49931 0.84217 0.0
C99 C 0.14589 0.50725 0.86169 0.0
O100 O 0.16404 0.56434 0.86834 0.0
H101 H 0.11583 0.47316 0.87747 0.0
C102 C 0.06023 0.59027 0.91972 0.0
C103 C 0.04879 0.58962 0.89155 0.0
C104 C 0.10791 0.5843 0.93061 0.0
C105 C 0.14406 0.57738 0.91297 0.0
C106 C 0.13224 0.5757 0.88498 0.0
C107 C 0.08563 0.58302 0.87429 0.0
H108 H 0.98504 0.44413 0.39418 0.0
H109 H 0.13009 0.61797 0.41024 0.0
H110 H 0.05127 0.48343 0.47597 0.0
H111 H 0.08719 0.59964 0.49457 0.0
C112 C 0.11517 0.62739 0.47685 0.0
O113 O 0.13055 0.59387 0.46289 0.0
H114 H 0.08893 0.64274 0.46361 0.0
C115 C 0.01542 0.4748 0.40851 0.0
C116 C 0.01254 0.456 0.43629 0.0
C117 C 0.05797 0.53287 0.39893 0.0
C118 C 0.097 0.573 0.41737 0.0
C119 C 0.09337 0.55514 0.44513 0.0
C120 C 0.05205 0.49676 0.45449 0.0
H121 H 0.63618 0.94754 0.74149 0.0
H122 H 0.59422 0.08656 0.74384 0.0
H123 H 0.61196 -0.00122 0.81824 0.0
H124 H 0.51427 0.02255 0.82033 0.0
C125 C 0.52825 0.05792 0.80332 0.0
O126 O 0.58637 0.07806 0.79663 0.0
H127 H 0.49829 0.03817 0.78568 0.0
C128 C 0.62765 0.97565 0.75308 0.0
C129 C 0.62601 0.96766 0.78165 0.0
C130 C 0.61693 0.01881 0.7392 0.0
C131 C 0.604 0.05398 0.75415 0.0
C132 C 0.60149 0.04591 0.78252 0.0
C133 C 0.61347 0.00377 0.79624 0.0
H134 H 0.67068 0.46652 0.06321 0.0
H135 H 0.51269 0.47609 0.07146 0.0
H136 H 0.62596 0.49626 0.14057 0.0
H137 H 0.49316 0.43238 0.15625 0.0
C138 C 0.47957 0.44312 0.1358 0.0
O139 O 0.52792 0.492 0.12337 0.0
H140 H 0.46256 0.40334 0.12386 0.0
C141 C 0.64062 0.47129 0.07568 0.0
C142 C 0.65425 0.48144 0.1032 0.0
C143 C 0.58989 0.46963 0.0639 0.0
C144 C 0.55238 0.4777 0.08009 0.0
C145 C 0.56522 0.48651 0.10772 0.0
C146 C 0.61638 0.48916 0.11919 0.0
H147 H 0.28795 0.52283 0.12401 0.0
H148 H 0.27356 0.47425 0.21038 0.0
H149 H 0.34875 0.44563 0.2078 0.0
H150 H 0.41983 0.43606 0.181 0.0
H151 H 0.43067 0.48061 0.09444 0.0
H152 H 0.35523 0.50896 0.097 0.0
C153 C 0.30147 0.50621 0.14228 0.0
C154 C 0.27576 0.50114 0.16736 0.0
C155 C 0.3439 0.48905 0.14059 0.0
C156 C 0.29286 0.47858 0.19081 0.0
C157 C 0.33583 0.46226 0.18938 0.0
C158 C 0.40542 0.45186 0.16276 0.0
C159 C 0.43109 0.45726 0.13764 0.0
C160 C 0.36175 0.46749 0.16438 0.0
C161 C 0.41174 0.47689 0.11401 0.0
C162 C 0.36877 0.49307 0.11548 0.0
H163 H 0.81859 0.18455 0.45819 0.0
H164 H 0.78914 0.25259 0.52861 0.0
H165 H 0.87254 0.35133 0.51587 0.0
H166 H 0.9474 0.42024 0.48258 0.0
H167 H 0.97786 0.35261 0.41236 0.0
H168 H 0.89969 0.25197 0.42702 0.0
C169 C 0.83092 0.22069 0.47101 0.0
C170 C 0.79717 0.21114 0.49417 0.0
C171 C 0.87841 0.27772 0.46336 0.0
C172 C 0.814 0.25861 0.51056 0.0
C173 C 0.8616 0.31526 0.50324 0.0
C174 C 0.9378 0.38339 0.47072 0.0
C175 C 0.96803 0.39418 0.44624 0.0
C176 C 0.89313 0.32561 0.47934 0.0
C177 C 0.95437 0.34585 0.43098 0.0
C178 C 0.90999 0.28817 0.43945 0.0
H179 H 0.59683 0.73359 0.84396 0.0
H180 H 0.72746 0.76217 0.78534 0.0
H181 H 0.73806 0.85889 0.76982 0.0
H182 H 0.70185 0.92963 0.7696 0.0
H183 H 0.56428 0.89433 0.82573 0.0
H184 H 0.56591 0.80661 0.84586 0.0
C185 C 0.62828 0.76112 0.828 0.0
C186 C 0.66067 0.74012 0.81558 0.0
C187 C 0.63272 0.8155 0.81863 0.0
C188 C 0.70167 0.77697 0.79517 0.0
C189 C 0.70752 0.83217 0.78618 0.0
C190 C 0.67223 0.90278 0.78624 0.0
C191 C 0.63265 0.91855 0.79591 0.0
C192 C 0.67178 0.85091 0.79717 0.0
C193 C 0.5957 0.88396 0.81798 0.0
C194 C 0.59615 0.83331 0.82939 0.0
H195 H 0.87721 0.46074 0.13621 0.0
H196 H 0.93792 0.63382 0.16511 0.0
H197 H 0.84173 0.62494 0.15272 0.0
H198 H 0.74247 0.56965 0.13102 0.0
H199 H 0.6864 0.39861 0.10117 0.0
H200 H 0.77941 0.40502 0.11674 0.0
C201 C 0.86983 0.49684 0.13987 0.0
C202 C 0.91503 0.54828 0.15126 0.0
C203 C 0.81534 0.49167 0.13251 0.0
C204 C 0.90396 0.59392 0.15622 0.0
C205 C 0.84907 0.58885 0.14911 0.0
C206 C 0.75063 0.53364 0.12832 0.0
C207 C 0.70823 0.48384 0.11494 0.0
C208 C 0.80472 0.53818 0.13691 0.0
C209 C 0.71891 0.43747 0.11125 0.0
C210 C 0.77189 0.44113 0.12013 0.0
H211 H 0.36386 0.8128 0.5241 0.0
H212 H 0.35164 0.92542 0.45731 0.0
H213 H 0.25216 0.84574 0.44655 0.0
H214 H 0.17159 0.7415 0.45398 0.0
H215 H 0.18412 0.62888 0.52033 0.0
H216 H 0.28079 0.71118 0.53342 0.0
C217 C 0.33932 0.82022 0.50733 0.0
C218 C 0.36551 0.87491 0.49141 0.0
C219 C 0.28232 0.7741 0.50111 0.0
C220 C 0.33275 0.88376 0.46988 0.0
C221 C 0.27587 0.83814 0.46363 0.0
C222 C 0.1952 0.73553 0.47157 0.0
C223 C 0.17089 0.67983 0.48646 0.0
C224 C 0.25068 0.78282 0.4788 0.0
C225 C 0.20202 0.67187 0.5089 0.0
C226 C 0.2572 0.71872 0.51627 0.0
H227 H 0.54725 0.28105 0.853 0.0
H228 H 0.47188 0.29642 0.77489 0.0
H229 H 0.46404 0.20376 0.7632 0.0
H230 H 0.48591 0.12253 0.77382 0.0
H231 H 0.56251 0.10862 0.85155 0.0
H232 H 0.56303 0.19705 0.86472 0.0
C233 C 0.52848 0.26394 0.8335 0.0
C234 C 0.51062 0.29603 0.81479 0.0
C235 C 0.52485 0.21119 0.82677 0.0
C236 C 0.48604 0.27277 0.78971 0.0
C237 C 0.48182 0.21991 0.78293 0.0
C238 C 0.5019 0.13856 0.79375 0.0
C239 C 0.52366 0.10915 0.81187 0.0
C240 C 0.50221 0.18943 0.80108 0.0
C241 C 0.54509 0.13052 0.83749 0.0
C242 C 0.54546 0.18097 0.84495 0.0
H243 H 0.55621 0.79781 0.5021 0.0
H244 H 0.7378 0.92768 0.51943 0.0
H245 H 0.75842 0.84741 0.53417 0.0
H246 H 0.72098 0.73976 0.5463 0.0
H247 H 0.53992 0.61144 0.52693 0.0
H248 H 0.52257 0.69156 0.50868 0.0
C249 C 0.60052 0.80837 0.50869 0.0
C250 C 0.64534 0.86805 0.51 0.0
C251 C 0.6118 0.76234 0.51698 0.0
C252 C 0.7028 0.88173 0.51823 0.0
C253 C 0.71437 0.83595 0.52685 0.0
C254 C 0.67814 0.72975 0.53775 0.0
C255 C 0.6316 0.67031 0.538 0.0
C256 C 0.66872 0.77608 0.52699 0.0
C257 C 0.57624 0.65714 0.52678 0.0
C258 C 0.56628 0.7028 0.51645 0.0
H259 H 0.8406 0.60504 0.82714 0.0
H260 H 0.74031 0.4733 0.89221 0.0
H261 H 0.83066 0.48223 0.91225 0.0
H262 H 0.93754 0.5245 0.91114 0.0
H263 H 0.04012 0.65448 0.84639 0.0
H264 H 0.94979 0.64911 0.82648 0.0
C265 C 0.83861 0.57839 0.84569 0.0
C266 C 0.78345 0.53843 0.85795 0.0
C267 C 0.89119 0.58336 0.85728 0.0
C268 C 0.78184 0.50423 0.88207 0.0
C269 C 0.83362 0.50931 0.89371 0.0
C270 C 0.94028 0.55241 0.89292 0.0
C271 C -0.00469 0.59013 0.88038 0.0
C272 C 0.8884 0.54848 0.88148 0.0
C273 C -0.00195 0.62498 0.85639 0.0
C274 C 0.94648 0.62192 0.84502 0.0
H275 H 0.3232 0.77082 0.14406 0.0
H276 H 0.20562 0.78929 0.19539 0.0
H277 H 0.28766 0.88418 0.2088 0.0
H278 H 0.39475 0.95756 0.20928 0.0
H279 H 0.51215 0.93928 0.15807 0.0
H280 H 0.42829 0.84871 0.14131 0.0
C281 C 0.31519 0.79591 0.15788 0.0
C282 C 0.25823 0.77235 0.16887 0.0
C283 C 0.36279 0.85022 0.16583 0.0
C284 C 0.24889 0.80596 0.18663 0.0
C285 C 0.29592 0.86022 0.19447 0.0
C286 C 0.40175 0.93392 0.19429 0.0
C287 C 0.45951 0.95427 0.18521 0.0
C288 C 0.35334 0.882 0.18475 0.0
C289 C 0.46803 0.92381 0.16553 0.0
C290 C 0.42017 0.87217 0.15597 0.0
H291 H 0.54097 0.22544 0.47613 0.0
H292 H 0.51496 0.15437 0.55986 0.0
H293 H 0.50634 0.23754 0.57287 0.0
H294 H 0.51751 0.33587 0.56136 0.0
H295 H 0.54961 0.41121 0.47842 0.0
H296 H 0.54489 0.32145 0.46404 0.0
C297 C 0.53193 0.22765 0.49704 0.0
C298 C 0.52859 0.18422 0.51705 0.0
C299 C 0.52908 0.27679 0.50454 0.0
C300 C 0.51783 0.18767 0.54419 0.0
C301 C 0.51316 0.23524 0.55166 0.0
C302 C 0.52231 0.3319 0.54009 0.0
C303 C 0.53305 0.37919 0.52087 0.0
C304 C 0.52053 0.28091 0.53217 0.0
C305 C 0.54053 0.37464 0.49343 0.0
C306 C 0.53798 0.32353 0.48525 0.0
H307 H 0.38589 0.50512 0.87133 0.0
H308 H 0.34513 0.46303 0.78771 0.0
H309 H 0.25102 0.46143 0.7913 0.0
H310 H 0.18402 0.47905 0.81767 0.0
H311 H 0.22601 0.5195 0.9014 0.0
H312 H 0.31658 0.51501 0.89833 0.0
C313 C 0.35631 0.49529 0.85388 0.0
C314 C 0.37262 0.48497 0.82918 0.0
C315 C 0.30295 0.49471 0.8561 0.0
C316 C 0.33342 0.47115 0.80693 0.0
C317 C 0.2799 0.4706 0.80894 0.0
C318 C 0.213 0.48654 0.83521 0.0
C319 C 0.19926 0.50059 0.85963 0.0
C320 C 0.26478 0.48345 0.83331 0.0
C321 C 0.23643 0.50945 0.88236 0.0
C322 C 0.28799 0.50676 0.88061 0.0
H323 H 0.93221 0.29023 0.16387 0.0
H324 H 0.97629 0.36516 0.24182 0.0
H325 H 0.8852 0.28136 0.26103 0.0
H326 H 0.78964 0.19328 0.25462 0.0
H327 H 0.74978 0.10891 0.17889 0.0
H328 H 0.84162 0.19153 0.15967 0.0
C329 C 0.92226 0.28753 0.18518 0.0
C330 C 0.96084 0.33403 0.20134 0.0
C331 C 0.86996 0.23851 0.19633 0.0
C332 C 0.94764 0.32984 0.22895 0.0
C333 C 0.89523 0.28217 0.23993 0.0
C334 C 0.80116 0.19098 0.23422 0.0
C335 C 0.76134 0.14408 0.21842 0.0
C336 C 0.85555 0.23695 0.22366 0.0
C337 C 0.77782 0.14468 0.19159 0.0
C338 C 0.83102 0.19175 0.18056 0.0
H339 H 0.18824 0.60633 0.05422 0.0
H340 H 0.00291 0.47322 0.06458 0.0
H341 H 0.98806 0.47572 0.01556 0.0
H342 H 0.02664 0.51656 0.9696 0.0
H343 H 0.21198 0.64694 0.9584 0.0
H344 H 0.22791 0.64448 0.00774 0.0
C345 C 0.14467 0.57776 0.04575 0.0
C346 C 0.09682 0.53981 0.0632 0.0
C347 C 0.13632 0.57899 0.01733 0.0
C348 C 0.04072 0.50279 0.05177 0.0
C349 C 0.03201 0.50427 0.02366 0.0
C350 C 0.07044 0.54465 0.97801 0.0
C351 C 0.11794 0.58231 0.96046 0.0
C352 C 0.07932 0.54243 0.00627 0.0
C353 C 0.17474 0.61758 0.97155 0.0
C354 C 0.1838 0.61626 0.99973 0.0
H355 H 0.66126 0.01915 0.39709 0.0
H356 H 0.5186 0.0577 0.39095 0.0
H357 H 0.518 0.05689 0.34154 0.0
H358 H 0.56078 0.04918 0.2998 0.0
H359 H 0.70493 0.01331 0.3062 0.0
H360 H 0.70176 0.00855 0.3558 0.0
C361 C 0.62989 0.02729 0.38502 0.0
C362 C 0.59025 0.03878 0.39783 0.0
C363 C 0.62991 0.02703 0.35662 0.0
C364 C 0.54986 0.04904 0.38172 0.0
C365 C 0.54937 0.04846 0.35342 0.0
C366 C 0.59078 0.03939 0.31214 0.0
C367 C 0.63297 0.03152 0.29947 0.0
C368 C 0.58943 0.03786 0.34063 0.0
C369 C 0.67225 0.01973 0.31558 0.0
C370 C 0.67051 0.01711 0.34389 0.0
H371 H 0.67932 0.53395 0.72024 0.0
H372 H 0.52862 0.55919 0.72054 0.0
H373 H 0.5309 0.57423 0.67104 0.0
H374 H 0.57356 0.5774 0.62755 0.0
H375 H 0.71846 0.54383 0.62606 0.0
H376 H 0.72075 0.53451 0.67602 0.0
C377 C 0.64738 0.54314 0.70937 0.0
C378 C 0.60401 0.54572 0.72393 0.0
C379 C 0.64777 0.5499 0.68073 0.0
C380 C 0.56224 0.55679 0.70971 0.0
C381 C 0.56354 0.56546 0.68143 0.0
C382 C 0.60585 0.56845 0.63826 0.0
C383 C 0.64618 0.56189 0.62339 0.0
C384 C 0.60575 0.56168 0.66674 0.0
C385 C 0.68716 0.54917 0.63727 0.0
C386 C 0.68846 0.54394 0.66575 0.0
H387 H 0.64211 0.09136 0.61324 0.0
H388 H 0.53478 0.9003 0.61037 0.0
H389 H 0.53507 0.8878 0.66003 0.0
H390 H 0.56452 0.93139 0.70423 0.0
H391 H 0.67062 0.1224 0.70678 0.0
H392 H 0.67161 0.13469 0.65712 0.0
C393 C 0.61894 0.04687 0.62341 0.0
C394 C 0.58857 -0.00317 0.60806 0.0
C395 C 0.61882 0.04006 0.65188 0.0
C396 C 0.55846 0.93961 0.62166 0.0
C397 C 0.55861 0.93241 0.65005 0.0
C398 C 0.58829 0.97564 0.69387 0.0
C399 C 0.61761 0.02593 0.70909 0.0
C400 C 0.58851 0.98234 0.66535 0.0
C401 C 0.64736 0.08308 0.69547 0.0
C402 C 0.64815 0.09009 0.66712 0.0
H403 H 0.57373 0.42244 0.94026 0.0
H404 H 0.54294 0.57086 0.93279 0.0
H405 H 0.54362 0.57118 0.98212 0.0
H406 H 0.56031 0.5343 0.02726 0.0
H407 H 0.59376 0.38787 0.03481 0.0
H408 H 0.58454 0.38171 0.98555 0.0
C409 C 0.56657 0.45448 0.94941 0.0
C410 C 0.55878 0.49682 0.93282 0.0
C411 C 0.56783 0.45503 0.97781 0.0
C412 C 0.54956 0.53804 0.94505 0.0
C413 C 0.5499 0.5383 0.97328 0.0
C414 C 0.5645 0.50038 0.01813 0.0
C415 C 0.57795 0.46181 0.03453 0.0
C416 C 0.56001 0.49769 0.98983 0.0
C417 C 0.58404 0.4185 0.02247 0.0
C418 C 0.5787 0.4149 0.99437 0.0
H419 H 0.03225 0.56522 0.27207 0.0
H420 H 0.20828 0.58953 0.27597 0.0
H421 H 0.20771 0.58682 0.32555 0.0
H422 H 0.15345 0.56787 0.36788 0.0
H423 H 0.97381 0.53322 0.36424 0.0
H424 H 0.97924 0.54995 0.31454 0.0
C425 C 0.0708 0.57101 0.28381 0.0
C426 C 0.12027 0.57768 0.27052 0.0
C427 C 0.0692 0.56703 0.31234 0.0
C428 C 0.16965 0.58416 0.28588 0.0
C429 C 0.16932 0.58254 0.31418 0.0
C430 C 0.11603 0.56514 0.35612 0.0
C431 C 0.06349 0.54978 0.36943 0.0
C432 C 0.11883 0.57259 0.32765 0.0
C433 C 0.01468 0.54516 0.3542 0.0
C434 C 0.01778 0.55457 0.32588 0.0
loop_
_geom_bond_atom_site_label_1
_geom_bond_atom_site_label_2
_geom_bond_distance
_geom_bond_site_symmetry_2
_ccdc_geom_bond_type
O0 Zn1 1.953 . S
O0 C16 1.225 . S
Zn1 O0 1.953 . S
Zn1 O2 1.949 . S
Zn1 O8 1.919 1_455 S
Zn1 O13 1.924 . S
O2 Zn1 1.949 . S
O2 Zn3 1.923 1_455 S
O2 Zn4 1.950 . S
O2 Zn5 1.945 . S
Zn3 O2 1.923 1_655 S
Zn3 O6 1.933 . S
Zn3 O9 1.941 . S
Zn3 O10 1.965 . S
Zn4 O2 1.950 . S
Zn4 O11 1.938 1_455 S
Zn4 O12 1.906 . S
Zn4 O22 1.953 . S
Zn5 O2 1.945 . S
Zn5 O7 1.932 . S
Zn5 O14 1.977 . S
Zn5 O15 1.910 . S
O6 Zn3 1.933 . S
O6 C17 1.226 1_655 S
O7 Zn5 1.932 . S
O7 C17 1.307 . S
O8 Zn1 1.919 1_655 S
O8 C19 1.253 . S
O9 Zn3 1.941 . S
O9 C19 1.283 . S
O10 Zn3 1.965 . S
O10 C18 1.303 . S
O11 Zn4 1.938 1_655 S
O11 C18 1.247 . S
O12 Zn4 1.906 . S
O12 C20 1.304 . S
O13 Zn1 1.924 . S
O13 C21 1.311 . S
O14 Zn5 1.977 . S
O14 C20 1.272 . S
O15 Zn5 1.910 . S
O15 C21 1.231 . S
C16 O0 1.225 . S
C16 O22 1.298 . S
C17 O6 1.226 1_455 S
C17 O7 1.307 . S
C18 O10 1.303 . S
C18 O11 1.247 . S
C19 O8 1.253 . S
C19 O9 1.283 . S
C20 O12 1.304 . S
C20 O14 1.272 . S
C21 O13 1.311 . S
C21 O15 1.231 . S
O22 Zn4 1.953 . S
O22 C16 1.298 . S
O23 Zn24 1.953 . S
O23 C39 1.225 . S
Zn24 O23 1.953 . S
Zn24 O25 1.949 . S
Zn24 O31 1.919 . S
Zn24 O36 1.924 1_545 S
O25 Zn24 1.949 . S
O25 Zn26 1.923 . S
O25 Zn27 1.950 . S
O25 Zn28 1.945 1_545 S
Zn26 O25 1.923 . S
Zn26 O29 1.933 . S
Zn26 O32 1.941 . S
Zn26 O33 1.965 . S
Zn27 O25 1.950 . S
Zn27 O34 1.938 . S
Zn27 O35 1.906 1_545 S
Zn27 O45 1.953 . S
Zn28 O25 1.945 1_565 S
Zn28 O30 1.932 . S
Zn28 O37 1.977 . S
Zn28 O38 1.910 . S
O29 Zn26 1.933 . S
O29 C40 1.226 . S
O30 Zn28 1.932 . S
O30 C40 1.307 1_565 S
O31 Zn24 1.919 . S
O31 C42 1.253 . S
O32 Zn26 1.941 . S
O32 C42 1.283 . S
O33 Zn26 1.965 . S
O33 C41 1.303 . S
O34 Zn27 1.938 . S
O34 C41 1.247 . S
O35 Zn27 1.906 1_565 S
O35 C43 1.304 . S
O36 Zn24 1.924 1_565 S
O36 C44 1.311 . S
O37 Zn28 1.977 . S
O37 C43 1.272 . S
O38 Zn28 1.910 . S
O38 C44 1.231 . S
C39 O23 1.225 . S
C39 O45 1.298 . S
C40 O29 1.226 . S
C40 O30 1.307 1_545 S
C41 O33 1.303 . S
C41 O34 1.247 . S
C42 O31 1.253 . S
C42 O32 1.283 . S
C43 O35 1.304 . S
C43 O37 1.272 . S
C44 O36 1.311 . S
C44 O38 1.231 . S
O45 Zn27 1.953 . S
O45 C39 1.298 . S
O46 Zn47 1.953 . S
O46 C62 1.225 . S
Zn47 O46 1.953 . S
Zn47 O48 1.949 . S
Zn47 O54 1.919 . S
Zn47 O59 1.924 . S
O48 Zn47 1.949 . S
O48 Zn49 1.923 . S
O48 Zn50 1.950 . S
O48 Zn51 1.945 . S
Zn49 O48 1.923 . S
Zn49 O52 1.933 . S
Zn49 O55 1.941 . S
Zn49 O56 1.965 . S
Zn50 O48 1.950 . S
Zn50 O57 1.938 . S
Zn50 O58 1.906 . S
Zn50 O68 1.953 . S
Zn51 O48 1.945 . S
Zn51 O53 1.932 . S
Zn51 O60 1.977 . S
Zn51 O61 1.910 . S
O52 Zn49 1.933 . S
O52 C63 1.226 . S
O53 Zn51 1.932 . S
O53 C63 1.307 . S
O54 Zn47 1.919 . S
O54 C65 1.253 . S
O55 Zn49 1.941 . S
O55 C65 1.283 . S
O56 Zn49 1.965 . S
O56 C64 1.303 . S
O57 Zn50 1.938 . S
O57 C64 1.247 . S
O58 Zn50 1.906 . S
O58 C66 1.304 . S
O59 Zn47 1.924 . S
O59 C67 1.311 . S
O60 Zn51 1.977 . S
O60 C66 1.272 . S
O61 Zn51 1.910 . S
O61 C67 1.231 . S
C62 O46 1.225 . S
C62 O68 1.298 . S
C63 O52 1.226 . S
C63 O53 1.307 . S
C64 O56 1.303 . S
C64 O57 1.247 . S
C65 O54 1.253 . S
C65 O55 1.283 . S
C66 O58 1.304 . S
C66 O60 1.272 . S
C67 O59 1.311 . S
C67 O61 1.231 . S
O68 Zn50 1.953 . S
O68 C62 1.298 . S
H69 C76 0.929 . S
H70 C79 0.930 . S
H71 C81 0.929 . S
H72 C73 0.969 . S
C73 H72 0.969 . S
C73 O74 1.550 . S
C73 H75 0.973 . S
O74 C73 1.550 . S
O74 C80 1.412 1_565 S
H75 C73 0.973 . S
C76 H69 0.929 . S
C76 C77 1.400 . S
C76 C78 1.364 . S
C77 C76 1.400 . S
C77 C81 1.377 . S
C78 C76 1.364 . S
C78 C79 1.374 1_545 S
C79 H70 0.930 . S
C79 C78 1.374 1_565 S
C79 C80 1.383 1_565 S
C80 O74 1.412 1_545 S
C80 C79 1.383 1_545 S
C80 C81 1.394 . S
C81 H71 0.929 . S
C81 C77 1.377 . S
C81 C80 1.394 . S
H82 C89 0.929 . S
H83 C92 0.930 . S
H84 C94 0.929 . S
H85 C86 0.969 . S
C86 H85 0.969 . S
C86 O87 1.550 . S
C86 H88 0.973 . S
O87 C86 1.550 . S
O87 C93 1.412 . S
H88 C86 0.973 . S
C89 H82 0.929 . S
C89 C90 1.400 . S
C89 C91 1.364 . S
C90 C89 1.400 . S
C90 C94 1.377 . S
C91 C89 1.364 . S
C91 C92 1.374 . S
C92 H83 0.930 . S
C92 C91 1.374 . S
C92 C93 1.383 . S
C93 O87 1.412 . S
C93 C92 1.383 . S
C93 C94 1.394 . S
C94 H84 0.929 . S
C94 C90 1.377 . S
C94 C93 1.394 . S
H95 C102 0.929 . S
H96 C105 0.930 . S
H97 C107 0.929 . S
H98 C99 0.969 . S
C99 H98 0.969 . S
C99 O100 1.550 . S
C99 H101 0.973 . S
O100 C99 1.550 . S
O100 C106 1.412 . S
H101 C99 0.973 . S
C102 H95 0.929 . S
C102 C103 1.400 . S
C102 C104 1.364 . S
C103 C102 1.400 . S
C103 C107 1.377 . S
C104 C102 1.364 . S
C104 C105 1.374 . S
C105 H96 0.930 . S
C105 C104 1.374 . S
C105 C106 1.383 . S
C106 O100 1.412 . S
C106 C105 1.383 . S
C106 C107 1.394 . S
C107 H97 0.929 . S
C107 C103 1.377 . S
C107 C106 1.394 . S
H108 C115 0.929 . S
H109 C118 0.930 . S
H110 C120 0.929 . S
H111 C112 0.969 . S
C112 H111 0.969 . S
C112 O113 1.550 . S
C112 H114 0.973 . S
O113 C112 1.550 . S
O113 C119 1.412 . S
H114 C112 0.973 . S
C115 H108 0.929 . S
C115 C116 1.400 . S
C115 C117 1.364 . S
C116 C115 1.400 . S
C116 C120 1.377 . S
C117 C115 1.364 . S
C117 C118 1.374 . S
C118 H109 0.930 . S
C118 C117 1.374 . S
C118 C119 1.383 . S
C119 O113 1.412 . S
C119 C118 1.383 . S
C119 C120 1.394 . S
C120 H110 0.929 . S
C120 C116 1.377 . S
C120 C119 1.394 . S
H121 C128 0.929 . S
H122 C131 0.930 . S
H123 C133 0.929 . S
H124 C125 0.969 . S
C125 H124 0.969 . S
C125 O126 1.550 . S
C125 H127 0.973 . S
O126 C125 1.550 . S
O126 C132 1.412 . S
H127 C125 0.973 . S
C128 H121 0.929 . S
C128 C129 1.400 . S
C128 C130 1.364 1_565 S
C129 C128 1.400 . S
C129 C133 1.377 1_565 S
C130 C128 1.364 1_545 S
C130 C131 1.374 . S
C131 H122 0.930 . S
C131 C130 1.374 . S
C131 C132 1.383 . S
C132 O126 1.412 . S
C132 C131 1.383 . S
C132 C133 1.394 . S
C133 H123 0.929 . S
C133 C129 1.377 1_545 S
C133 C132 1.394 . S
H134 C141 0.929 . S
H135 C144 0.930 . S
H136 C146 0.929 . S
H137 C138 0.969 . S
C138 H137 0.969 . S
C138 O139 1.550 . S
C138 H140 0.973 . S
O139 C138 1.550 . S
O139 C145 1.412 . S
H140 C138 0.973 . S
C141 H134 0.929 . S
C141 C142 1.400 . S
C141 C143 1.364 . S
C142 C141 1.400 . S
C142 C146 1.377 . S
C143 C141 1.364 . S
C143 C144 1.374 . S
C144 H135 0.930 . S
C144 C143 1.374 . S
C144 C145 1.383 . S
C145 O139 1.412 . S
C145 C144 1.383 . S
C145 C146 1.394 . S
C146 H136 0.929 . S
C146 C142 1.377 . S
C146 C145 1.394 . S
H147 C153 0.930 . S
H148 C156 0.930 . S
H149 C157 0.930 . S
H150 C158 0.930 . S
H151 C161 0.930 . S
H152 C162 0.930 . S
C153 H147 0.930 . S
C153 C154 1.355 . S
C153 C155 1.415 . S
C154 C153 1.355 . S
C154 C156 1.419 . S
C155 C153 1.415 . S
C155 C160 1.425 . S
C155 C162 1.409 . S
C156 H148 0.930 . S
C156 C154 1.419 . S
C156 C157 1.362 . S
C157 H149 0.930 . S
C157 C156 1.362 . S
C157 C160 1.409 . S
C158 H150 0.930 . S
C158 C159 1.355 . S
C158 C160 1.415 . S
C159 C158 1.355 . S
C159 C161 1.419 . S
C160 C155 1.425 . S
C160 C157 1.409 . S
C160 C158 1.415 . S
C161 H151 0.930 . S
C161 C159 1.419 . S
C161 C162 1.362 . S
C162 H152 0.930 . S
C162 C155 1.409 . S
C162 C161 1.362 . S
H163 C169 0.930 . S
H164 C172 0.930 . S
H165 C173 0.930 . S
H166 C174 0.930 . S
H167 C177 0.930 . S
H168 C178 0.930 . S
C169 H163 0.930 . S
C169 C170 1.355 . S
C169 C171 1.415 . S
C170 C169 1.355 . S
C170 C172 1.419 . S
C171 C169 1.415 . S
C171 C176 1.425 . S
C171 C178 1.409 . S
C172 H164 0.930 . S
C172 C170 1.419 . S
C172 C173 1.362 . S
C173 H165 0.930 . S
C173 C172 1.362 . S
C173 C176 1.409 . S
C174 H166 0.930 . S
C174 C175 1.355 . S
C174 C176 1.415 . S
C175 C174 1.355 . S
C175 C177 1.419 . S
C176 C171 1.425 . S
C176 C173 1.409 . S
C176 C174 1.415 . S
C177 H167 0.930 . S
C177 C175 1.419 . S
C177 C178 1.362 . S
C178 H168 0.930 . S
C178 C171 1.409 . S
C178 C177 1.362 . S
H179 C185 0.930 . S
H180 C188 0.930 . S
H181 C189 0.930 . S
H182 C190 0.930 . S
H183 C193 0.930 . S
H184 C194 0.930 . S
C185 H179 0.930 . S
C185 C186 1.355 . S
C185 C187 1.415 . S
C186 C185 1.355 . S
C186 C188 1.419 . S
C187 C185 1.415 . S
C187 C192 1.425 . S
C187 C194 1.409 . S
C188 H180 0.930 . S
C188 C186 1.419 . S
C188 C189 1.362 . S
C189 H181 0.930 . S
C189 C188 1.362 . S
C189 C192 1.409 . S
C190 H182 0.930 . S
C190 C191 1.355 . S
C190 C192 1.415 . S
C191 C190 1.355 . S
C191 C193 1.419 . S
C192 C187 1.425 . S
C192 C189 1.409 . S
C192 C190 1.415 . S
C193 H183 0.930 . S
C193 C191 1.419 . S
C193 C194 1.362 . S
C194 H184 0.930 . S
C194 C187 1.409 . S
C194 C193 1.362 . S
H195 C201 0.930 . S
H196 C204 0.930 . S
H197 C205 0.930 . S
H198 C206 0.930 . S
H199 C209 0.930 . S
H200 C210 0.930 . S
C201 H195 0.930 . S
C201 C202 1.355 . S
C201 C203 1.415 . S
C202 C201 1.355 . S
C202 C204 1.419 . S
C203 C201 1.415 . S
C203 C208 1.425 . S
C203 C210 1.409 . S
C204 H196 0.930 . S
C204 C202 1.419 . S
C204 C205 1.362 . S
C205 H197 0.930 . S
C205 C204 1.362 . S
C205 C208 1.409 . S
C206 H198 0.930 . S
C206 C207 1.355 . S
C206 C208 1.415 . S
C207 C206 1.355 . S
C207 C209 1.419 . S
C208 C203 1.425 . S
C208 C205 1.409 . S
C208 C206 1.415 . S
C209 H199 0.930 . S
C209 C207 1.419 . S
C209 C210 1.362 . S
C210 H200 0.930 . S
C210 C203 1.409 . S
C210 C209 1.362 . S
H211 C217 0.930 . S
H212 C220 0.930 . S
H213 C221 0.930 . S
H214 C222 0.930 . S
H215 C225 0.930 . S
H216 C226 0.930 . S
C217 H211 0.930 . S
C217 C218 1.355 . S
C217 C219 1.415 . S
C218 C217 1.355 . S
C218 C220 1.419 . S
C219 C217 1.415 . S
C219 C224 1.425 . S
C219 C226 1.409 . S
C220 H212 0.930 . S
C220 C218 1.419 . S
C220 C221 1.362 . S
C221 H213 0.930 . S
C221 C220 1.362 . S
C221 C224 1.409 . S
C222 H214 0.930 . S
C222 C223 1.355 . S
C222 C224 1.415 . S
C223 C222 1.355 . S
C223 C225 1.419 . S
C224 C219 1.425 . S
C224 C221 1.409 . S
C224 C222 1.415 . S
C225 H215 0.930 . S
C225 C223 1.419 . S
C225 C226 1.362 . S
C226 H216 0.930 . S
C226 C219 1.409 . S
C226 C225 1.362 . S
H227 C233 0.930 . S
H228 C236 0.930 . S
H229 C237 0.930 . S
H230 C238 0.930 . S
H231 C241 0.930 . S
H232 C242 0.930 . S
C233 H227 0.930 . S
C233 C234 1.355 . S
C233 C235 1.415 . S
C234 C233 1.355 . S
C234 C236 1.419 . S
C235 C233 1.415 . S
C235 C240 1.425 . S
C235 C242 1.409 . S
C236 H228 0.930 . S
C236 C234 1.419 . S
C236 C237 1.362 . S
C237 H229 0.930 . S
C237 C236 1.362 . S
C237 C240 1.409 . S
C238 H230 0.930 . S
C238 C239 1.355 . S
C238 C240 1.415 . S
C239 C238 1.355 . S
C239 C241 1.419 . S
C240 C235 1.425 . S
C240 C237 1.409 . S
C240 C238 1.415 . S
C241 H231 0.930 . S
C241 C239 1.419 . S
C241 C242 1.362 . S
C242 H232 0.930 . S
C242 C235 1.409 . S
C242 C241 1.362 . S
H243 C249 0.930 . S
H244 C252 0.930 . S
H245 C253 0.930 . S
H246 C254 0.930 . S
H247 C257 0.930 . S
H248 C258 0.930 . S
C249 H243 0.930 . S
C249 C250 1.355 . S
C249 C251 1.415 . S
C250 C249 1.355 . S
C250 C252 1.419 . S
C251 C249 1.415 . S
C251 C256 1.425 . S
C251 C258 1.409 . S
C252 H244 0.930 . S
C252 C250 1.419 . S
C252 C253 1.362 . S
C253 H245 0.930 . S
C253 C252 1.362 . S
C253 C256 1.409 . S
C254 H246 0.930 . S
C254 C255 1.355 . S
C254 C256 1.415 . S
C255 C254 1.355 . S
C255 C257 1.419 . S
C256 C251 1.425 . S
C256 C253 1.409 . S
C256 C254 1.415 . S
C257 H247 0.930 . S
C257 C255 1.419 . S
C257 C258 1.362 . S
C258 H248 0.930 . S
C258 C251 1.409 . S
C258 C257 1.362 . S
H259 C265 0.930 . S
H260 C268 0.930 . S
H261 C269 0.930 . S
H262 C270 0.930 . S
H263 C273 0.930 . S
H264 C274 0.930 1_455 S
C265 H259 0.930 . S
C265 C266 1.355 . S
C265 C267 1.415 . S
C266 C265 1.355 . S
C266 C268 1.419 . S
C267 C265 1.415 . S
C267 C272 1.425 . S
C267 C274 1.409 . S
C268 H260 0.930 . S
C268 C266 1.419 . S
C268 C269 1.362 . S
C269 H261 0.930 . S
C269 C268 1.362 . S
C269 C272 1.409 . S
C270 H262 0.930 . S
C270 C271 1.355 1_655 S
C270 C272 1.415 . S
C271 C270 1.355 1_455 S
C271 C273 1.419 . S
C272 C267 1.425 . S
C272 C269 1.409 . S
C272 C270 1.415 . S
C273 H263 0.930 . S
C273 C271 1.419 . S
C273 C274 1.362 1_455 S
C274 H264 0.930 1_655 S
C274 C267 1.409 . S
C274 C273 1.362 1_655 S
H275 C281 0.930 . S
H276 C284 0.930 . S
H277 C285 0.930 . S
H278 C286 0.930 . S
H279 C289 0.930 . S
H280 C290 0.930 . S
C281 H275 0.930 . S
C281 C282 1.355 . S
C281 C283 1.415 . S
C282 C281 1.355 . S
C282 C284 1.419 . S
C283 C281 1.415 . S
C283 C288 1.425 . S
C283 C290 1.409 . S
C284 H276 0.930 . S
C284 C282 1.419 . S
C284 C285 1.362 . S
C285 H277 0.930 . S
C285 C284 1.362 . S
C285 C288 1.409 . S
C286 H278 0.930 . S
C286 C287 1.355 . S
C286 C288 1.415 . S
C287 C286 1.355 . S
C287 C289 1.419 . S
C288 C283 1.425 . S
C288 C285 1.409 . S
C288 C286 1.415 . S
C289 H279 0.930 . S
C289 C287 1.419 . S
C289 C290 1.362 . S
C290 H280 0.930 . S
C290 C283 1.409 . S
C290 C289 1.362 . S
H291 C297 0.930 . S
H292 C300 0.930 . S
H293 C301 0.930 . S
H294 C302 0.930 . S
H295 C305 0.930 . S
H296 C306 0.930 . S
C297 H291 0.930 . S
C297 C298 1.355 . S
C297 C299 1.415 . S
C298 C297 1.355 . S
C298 C300 1.419 . S
C299 C297 1.415 . S
C299 C304 1.425 . S
C299 C306 1.409 . S
C300 H292 0.930 . S
C300 C298 1.419 . S
C300 C301 1.362 . S
C301 H293 0.930 . S
C301 C300 1.362 . S
C301 C304 1.409 . S
C302 H294 0.930 . S
C302 C303 1.355 . S
C302 C304 1.415 . S
C303 C302 1.355 . S
C303 C305 1.419 . S
C304 C299 1.425 . S
C304 C301 1.409 . S
C304 C302 1.415 . S
C305 H295 0.930 . S
C305 C303 1.419 . S
C305 C306 1.362 . S
C306 H296 0.930 . S
C306 C299 1.409 . S
C306 C305 1.362 . S
H307 C313 0.930 . S
H308 C316 0.930 . S
H309 C317 0.930 . S
H310 C318 0.930 . S
H311 C321 0.930 . S
H312 C322 0.930 . S
C313 H307 0.930 . S
C313 C314 1.355 . S
C313 C315 1.415 . S
C314 C313 1.355 . S
C314 C316 1.419 . S
C315 C313 1.415 . S
C315 C320 1.425 . S
C315 C322 1.409 . S
C316 H308 0.930 . S
C316 C314 1.419 . S
C316 C317 1.362 . S
C317 H309 0.930 . S
C317 C316 1.362 . S
C317 C320 1.409 . S
C318 H310 0.930 . S
C318 C319 1.355 . S
C318 C320 1.415 . S
C319 C318 1.355 . S
C319 C321 1.419 . S
C320 C315 1.425 . S
C320 C317 1.409 . S
C320 C318 1.415 . S
C321 H311 0.930 . S
C321 C319 1.419 . S
C321 C322 1.362 . S
C322 H312 0.930 . S
C322 C315 1.409 . S
C322 C321 1.362 . S
H323 C329 0.930 . S
H324 C332 0.930 . S
H325 C333 0.930 . S
H326 C334 0.930 . S
H327 C337 0.930 . S
H328 C338 0.930 . S
C329 H323 0.930 . S
C329 C330 1.355 . S
C329 C331 1.415 . S
C330 C329 1.355 . S
C330 C332 1.419 . S
C331 C329 1.415 . S
C331 C336 1.425 . S
C331 C338 1.409 . S
C332 H324 0.930 . S
C332 C330 1.419 . S
C332 C333 1.362 . S
C333 H325 0.930 . S
C333 C332 1.362 . S
C333 C336 1.409 . S
C334 H326 0.930 . S
C334 C335 1.355 . S
C334 C336 1.415 . S
C335 C334 1.355 . S
C335 C337 1.419 . S
C336 C331 1.425 . S
C336 C333 1.409 . S
C336 C334 1.415 . S
C337 H327 0.930 . S
C337 C335 1.419 . S
C337 C338 1.362 . S
C338 H328 0.930 . S
C338 C331 1.409 . S
C338 C337 1.362 . S
H339 C345 0.930 . S
H340 C348 0.930 . S
H341 C349 0.930 . S
H342 C350 0.930 . S
H343 C353 0.930 . S
H344 C354 0.930 . S
C345 H339 0.930 . S
C345 C346 1.355 . S
C345 C347 1.415 . S
C346 C345 1.355 . S
C346 C348 1.419 . S
C347 C345 1.415 . S
C347 C352 1.425 . S
C347 C354 1.409 1_554 S
C348 H340 0.930 . S
C348 C346 1.419 . S
C348 C349 1.362 . S
C349 H341 0.930 . S
C349 C348 1.362 . S
C349 C352 1.409 . S
C350 H342 0.930 . S
C350 C351 1.355 . S
C350 C352 1.415 1_556 S
C351 C350 1.355 . S
C351 C353 1.419 . S
C352 C347 1.425 . S
C352 C349 1.409 . S
C352 C350 1.415 1_554 S
C353 H343 0.930 . S
C353 C351 1.419 . S
C353 C354 1.362 . S
C354 H344 0.930 . S
C354 C347 1.409 1_556 S
C354 C353 1.362 . S
H355 C361 0.930 . S
H356 C364 0.930 . S
H357 C365 0.930 1_565 S
H358 C366 0.930 . S
H359 C369 0.930 . S
H360 C370 0.930 . S
C361 H355 0.930 . S
C361 C362 1.355 . S
C361 C363 1.415 . S
C362 C361 1.355 . S
C362 C364 1.419 . S
C363 C361 1.415 . S
C363 C368 1.425 . S
C363 C370 1.409 . S
C364 H356 0.930 . S
C364 C362 1.419 . S
C364 C365 1.362 . S
C365 H357 0.930 1_545 S
C365 C364 1.362 . S
C365 C368 1.409 . S
C366 H358 0.930 . S
C366 C367 1.355 . S
C366 C368 1.415 . S
C367 C366 1.355 . S
C367 C369 1.419 . S
C368 C363 1.425 . S
C368 C365 1.409 . S
C368 C366 1.415 . S
C369 H359 0.930 . S
C369 C367 1.419 . S
C369 C370 1.362 . S
C370 H360 0.930 . S
C370 C363 1.409 . S
C370 C369 1.362 . S
H371 C377 0.930 . S
H372 C380 0.930 . S
H373 C381 0.930 . S
H374 C382 0.930 . S
H375 C385 0.930 . S
H376 C386 0.930 . S
C377 H371 0.930 . S
C377 C378 1.355 . S
C377 C379 1.415 . S
C378 C377 1.355 . S
C378 C380 1.419 . S
C379 C377 1.415 . S
C379 C384 1.425 . S
C379 C386 1.409 . S
C380 H372 0.930 . S
C380 C378 1.419 . S
C380 C381 1.362 . S
C381 H373 0.930 . S
C381 C380 1.362 . S
C381 C384 1.409 . S
C382 H374 0.930 . S
C382 C383 1.355 . S
C382 C384 1.415 . S
C383 C382 1.355 . S
C383 C385 1.419 . S
C384 C379 1.425 . S
C384 C381 1.409 . S
C384 C382 1.415 . S
C385 H375 0.930 . S
C385 C383 1.419 . S
C385 C386 1.362 . S
C386 H376 0.930 . S
C386 C379 1.409 . S
C386 C385 1.362 . S
H387 C393 0.930 . S
H388 C396 0.930 . S
H389 C397 0.930 . S
H390 C398 0.930 . S
H391 C401 0.930 . S
H392 C402 0.930 . S
C393 H387 0.930 . S
C393 C394 1.355 . S
C393 C395 1.415 . S
C394 C393 1.355 . S
C394 C396 1.419 1_545 S
C395 C393 1.415 . S
C395 C400 1.420 1_545 S
C395 C402 1.409 . S
C396 H388 0.930 . S
C396 C394 1.419 1_565 S
C396 C397 1.362 . S
C397 H389 0.930 . S
C397 C396 1.362 . S
C397 C400 1.415 . S
C398 H390 0.930 . S
C398 C399 1.355 1_565 S
C398 C400 1.414 . S
C399 C398 1.355 1_545 S
C399 C401 1.419 . S
C400 C395 1.420 1_565 S
C400 C397 1.415 . S
C400 C398 1.414 . S
C401 H391 0.930 . S
C401 C399 1.419 . S
C401 C402 1.362 . S
C402 H392 0.930 . S
C402 C395 1.409 . S
C402 C401 1.362 . S
H403 C409 0.930 . S
H404 C412 0.930 . S
H405 C413 0.930 . S
H406 C414 0.930 . S
H407 C417 0.930 . S
H408 C418 0.930 1_556 S
C409 H403 0.930 . S
C409 C410 1.355 . S
C409 C411 1.415 . S
C410 C409 1.355 . S
C410 C412 1.419 . S
C411 C409 1.415 . S
C411 C416 1.425 . S
C411 C418 1.409 1_556 S
C412 H404 0.930 . S
C412 C410 1.419 . S
C412 C413 1.362 . S
C413 H405 0.930 . S
C413 C412 1.362 . S
C413 C416 1.409 . S
C414 H406 0.930 . S
C414 C415 1.355 . S
C414 C416 1.415 1_554 S
C415 C414 1.355 . S
C415 C417 1.419 . S
C416 C411 1.425 . S
C416 C413 1.409 . S
C416 C414 1.415 1_556 S
C417 H407 0.930 . S
C417 C415 1.419 . S
C417 C418 1.362 . S
C418 H408 0.930 1_554 S
C418 C411 1.409 1_554 S
C418 C417 1.362 . S
H419 C425 0.930 . S
H420 C428 0.930 . S
H421 C429 0.930 . S
H422 C430 0.930 . S
H423 C433 0.930 . S
H424 C434 0.930 1_655 S
C425 H419 0.930 . S
C425 C426 1.355 . S
C425 C427 1.415 . S
C426 C425 1.355 . S
C426 C428 1.419 . S
C427 C425 1.415 . S
C427 C432 1.425 . S
C427 C434 1.409 . S
C428 H420 0.930 . S
C428 C426 1.419 . S
C428 C429 1.362 . S
C429 H421 0.930 . S
C429 C428 1.362 . S
C429 C432 1.409 . S
C430 H422 0.930 . S
C430 C431 1.355 . S
C430 C432 1.415 . S
C431 C430 1.355 . S
C431 C433 1.419 . S
C432 C427 1.425 . S
C432 C429 1.409 . S
C432 C430 1.415 . S
C433 H423 0.930 . S
C433 C431 1.419 . S
C433 C434 1.362 . S
C434 H424 0.930 1_455 S
C434 C427 1.409 . S
C434 C433 1.362 . S
C154 C20 1.307 . S
C159 C138 1.223 . S
C170 C41 1.352 . S
C175 C116 1.341 1_655 S
C186 C64 1.387 . S
C191 C129 1.378 . S
C202 C19 1.289 . S
C207 C142 1.328 . S
C223 C112 1.305 . S
C218 C44 1.356 . S
C239 C125 1.318 . S
C234 C67 1.358 . S
C250 C43 1.293 . S
C255 C90 1.342 . S
C266 C66 1.213 . S
C271 C103 1.309 . S
C282 C21 1.369 . S
C287 C73 1.323 . S
C303 C86 1.295 . S
C298 C42 1.314 . S
C319 C99 1.235 . S
C314 C65 1.284 . S
C330 C18 1.323 . S
C335 C77 1.316 . S
C351 C104 1.500 . S
C346 C17 1.504 . S
C362 C39 1.509 . S
C367 C78 1.512 . S
C378 C62 1.540 . S
C383 C91 1.546 . S
C399 C130 1.521 . S
C394 C40 1.523 . S
C415 C143 1.525 . S
C410 C63 1.536 . S
C426 C16 1.514 . S
C431 C117 1.510 . S
