# Generated by pormake.
# Topology tsx, (6,3)-cn, num edge types: 1
# Building blocks:
#     Node 0, Type 0, BuildingBlock: VOLQOD_clean_sbu_1, # of connection points: 6
#     Node 1, Type 0, BuildingBlock: VOLQOD_clean_sbu_1, # of connection points: 6
#     Node 2, Type 1, BuildingBlock: MIDCAF_clean_linker_0, # of connection points: 3
#     Node 3, Type 1, BuildingBlock: MIDCAF_clean_linker_0, # of connection points: 3
#     Node 4, Type 1, BuildingBlock: MIDCAF_clean_linker_0, # of connection points: 3
#     Node 5, Type 1, BuildingBlock: MIDCAF_clean_linker_0, # of connection points: 3
#     Edge 6, Type (0, 1), BuildingBlock: FUNLAD_clean_linker_0, # of connection points: 2
#     Edge 7, Type (0, 1), BuildingBlock: FUNLAD_clean_linker_0, # of connection points: 2
#     Edge 8, Type (0, 1), BuildingBlock: FUNLAD_clean_linker_0, # of connection points: 2
#     Edge 9, Type (0, 1), BuildingBlock: FUNLAD_clean_linker_0, # of connection points: 2
#     Edge 10, Type (0, 1), BuildingBlock: FUNLAD_clean_linker_0, # of connection points: 2
#     Edge 11, Type (0, 1), BuildingBlock: FUNLAD_clean_linker_0, # of connection points: 2
#     Edge 12, Type (0, 1), BuildingBlock: FUNLAD_clean_linker_0, # of connection points: 2
#     Edge 13, Type (0, 1), BuildingBlock: FUNLAD_clean_linker_0, # of connection points: 2
#     Edge 14, Type (0, 1), BuildingBlock: FUNLAD_clean_linker_0, # of connection points: 2
#     Edge 15, Type (0, 1), BuildingBlock: FUNLAD_clean_linker_0, # of connection points: 2
#     Edge 16, Type (0, 1), BuildingBlock: FUNLAD_clean_linker_0, # of connection points: 2
#     Edge 17, Type (0, 1), BuildingBlock: FUNLAD_clean_linker_0, # of connection points: 2
# Relax obj value: 0.076
# Max RMSD: 0.108
# Mean RMSD: 0.083
data_MOF--net-tsx--node1-VOLQOD_clean_sbu_1--node2-MIDCAF_clean_linker_0--edge1-FUNLAD_clean_linker_0
_symmetry_space_group_name_H-M    P1
_symmetry_Int_Tables_number       1
_symmetry_cell_setting            triclinic
loop_
_symmetry_equiv_pos_as_xyz
'x, y, z'
_cell_length_a     28.076878
_cell_length_b     29.104391
_cell_length_c     55.549536
_cell_angle_alpha  90.416358
_cell_angle_beta   90.090463
_cell_angle_gamma 90.1655
loop_
_atom_site_label
_atom_site_type_symbol
_atom_site_fract_x
_atom_site_fract_y
_atom_site_fract_z
_atom_type_partial_charge
O0 O 0.0276 -0.00445 0.07023 0.0
Zn1 Zn 0.04759 0.99047 0.03556 0.0
O2 O 0.99446 0.00218 0.01371 0.0
Zn3 Zn 0.98559 0.94861 0.99282 0.0
Zn4 Zn 0.93673 0.01256 0.03262 0.0
Zn5 Zn 0.00801 0.0564 0.994 0.0
O6 O 0.98968 0.96594 0.95799 0.0
O7 O 0.00702 0.04037 0.95851 0.0
O8 O 0.07682 0.92819 0.02993 0.0
O9 O 0.03567 0.90072 -0.00112 0.0
O10 O 0.92158 0.91944 0.998 0.0
O11 O 0.88725 0.96435 0.02533 0.0
O12 O 0.90807 0.07414 0.02526 0.0
O13 O 0.09957 0.03641 0.03033 0.0
O14 O 0.95837 0.10556 -0.0007 0.0
O15 O 0.07273 0.08303 0.00193 0.0
C16 C 0.98795 0.00373 0.08048 0.0
C17 C -0.00127 0.00317 0.94699 0.0
C18 C 0.88618 0.92959 0.01128 0.0
C19 C 0.06895 0.89682 0.01433 0.0
C20 C 0.92058 0.10749 0.01195 0.0
C21 C 0.1051 0.07091 0.01667 0.0
O22 O 0.95027 0.0107 0.06827 0.0
O23 O 0.53558 0.49263 0.56469 0.0
Zn24 Zn 0.5596 0.48863 0.53072 0.0
O25 O 0.50677 0.49091 0.50785 0.0
Zn26 Zn 0.50336 0.43303 0.48982 0.0
Zn27 Zn 0.44687 0.5007 0.52522 0.0
Zn28 Zn 0.51769 0.54138 0.48557 0.0
O29 O 0.51227 0.44331 0.45427 0.0
O30 O 0.52518 0.51835 0.45153 0.0
O31 O 0.59618 0.42973 0.52755 0.0
O32 O 0.55485 0.38984 0.50042 0.0
O33 O 0.44042 0.40121 0.49463 0.0
O34 O 0.40127 0.44838 0.51907 0.0
O35 O 0.41423 0.55865 0.51438 0.0
O36 O 0.6054 0.54108 0.52595 0.0
O37 O 0.46241 0.58465 0.48587 0.0
O38 O 0.57578 0.5784 0.49465 0.0
C39 C 0.49484 0.49916 0.57412 0.0
C40 C 0.52129 0.47879 0.44177 0.0
C41 C 0.40337 0.41144 0.50669 0.0
C42 C 0.58946 0.39333 0.51517 0.0
C43 C 0.42444 0.58794 0.49824 0.0
C44 C 0.60715 0.57406 0.51104 0.0
O45 O 0.45772 0.50385 0.56115 0.0
C46 C 0.89718 0.13374 0.43713 0.0
C47 C 0.8953 0.12827 0.46222 0.0
C48 C 0.91666 0.08963 0.4726 0.0
C49 C 0.9393 0.05691 0.45813 0.0
H50 H 0.02616 0.94403 0.46155 0.0
H51 H 0.08353 0.89166 0.47957 0.0
H52 H 0.13118 0.85093 0.40872 0.0
H53 H 0.07421 0.90327 0.39059 0.0
H54 H -0.00215 0.92579 0.34689 0.0
H55 H 0.98759 0.92674 0.30331 0.0
H56 H 0.93129 0.06439 0.30786 0.0
H57 H 0.94144 0.06371 0.35151 0.0
H58 H 0.91981 0.10595 0.40335 0.0
H59 H 0.88044 0.16294 0.42863 0.0
H60 H 0.91585 0.08474 0.49191 0.0
H61 H 0.95524 0.02737 0.46669 0.0
N62 N 0.99165 0.99421 0.42755 0.0
N63 N 0.00608 0.96229 0.38943 0.0
N64 N 0.95689 0.02684 0.39332 0.0
C65 C 0.01321 0.96196 0.41362 0.0
C66 C 0.97786 -0.00548 0.37914 0.0
C67 C 0.9635 0.02678 0.41756 0.0
C68 C 0.04575 0.9281 0.4246 0.0
C69 C 0.04869 0.92378 0.44978 0.0
C70 C 0.08135 0.89364 0.46013 0.0
C71 C 0.11196 0.86756 0.44553 0.0
C72 C 0.10839 0.87114 0.42039 0.0
C73 C 0.07552 0.90093 0.41003 0.0
C74 C 0.97061 -0.00527 0.35272 0.0
C75 C 0.98321 0.95628 0.33866 0.0
C76 C 0.97704 0.95665 0.31371 0.0
C77 C 0.95866 -0.00437 0.30224 0.0
C78 C 0.94587 0.03401 0.31625 0.0
C79 C 0.95149 0.03348 0.34125 0.0
C80 C 0.94053 0.06196 0.43296 0.0
C81 C 0.91938 0.10085 0.42264 0.0
C82 C 0.89631 0.87103 0.60159 0.0
C83 C 0.90294 0.86068 0.57711 0.0
C84 C 0.9367 0.88568 0.56392 0.0
C85 C 0.96255 0.92127 0.57492 0.0
H86 H 0.03744 0.04166 0.55925 0.0
H87 H 0.07544 0.10193 0.5356 0.0
H88 H 0.10321 0.17942 0.60075 0.0
H89 H 0.06503 0.11997 0.62432 0.0
H90 H 0.0443 0.07846 0.67424 0.0
H91 H 0.04663 0.08399 0.71795 0.0
H92 H 0.97651 0.95208 0.72297 0.0
H93 H 0.97312 0.94688 0.67928 0.0
H94 H 0.91624 0.9133 0.63154 0.0
H95 H 0.87079 0.85191 0.6122 0.0
H96 H 0.94232 0.87838 0.54498 0.0
H97 H 0.98792 0.94039 0.56423 0.0
N98 N 0.0031 0.00325 0.59761 0.0
N99 N 0.02729 0.04186 0.63278 0.0
N100 N 0.98366 0.97346 0.6355 0.0
C101 C 0.02578 0.03928 0.60836 0.0
C102 C 0.00649 0.00905 0.64649 0.0
C103 C 0.98184 0.97026 0.6111 0.0
C104 C 0.04823 0.07581 0.59374 0.0
C105 C 0.05145 0.07164 0.56853 0.0
C106 C 0.07334 0.10607 0.55497 0.0
C107 C 0.09209 0.14548 0.56631 0.0
C108 C 0.08842 0.14981 0.59144 0.0
C109 C 0.06685 0.11542 0.60498 0.0
C110 C 0.00841 0.01225 0.67315 0.0
C111 C 0.02934 0.05057 0.68461 0.0
C112 C 0.03095 0.05367 0.70972 0.0
C113 C 0.01174 0.0185 0.72397 0.0
C114 C 0.991 0.98011 0.71252 0.0
C115 C 0.9893 0.97703 0.68743 0.0
C116 C 0.95561 0.93191 0.59942 0.0
C117 C 0.92256 0.90604 0.61267 0.0
C118 C 0.3647 0.60779 0.92128 0.0
C119 C 0.36927 0.62091 0.94554 0.0
C120 C 0.40648 0.60222 0.95929 0.0
C121 C 0.4396 0.5724 0.94861 0.0
H122 H 0.55362 0.47917 0.96159 0.0
H123 H 0.61751 0.43944 0.98293 0.0
H124 H 0.6792 0.39885 0.91489 0.0
H125 H 0.61641 0.43858 0.89363 0.0
H126 H 0.56402 0.45498 0.84551 0.0
H127 H 0.56404 0.45348 0.80167 0.0
H128 H 0.44455 0.54667 0.80097 0.0
H129 H 0.44367 0.54745 0.8447 0.0
H130 H 0.3929 0.56962 0.89181 0.0
H131 H 0.33573 0.62067 0.91035 0.0
H132 H 0.4108 0.61171 0.97806 0.0
H133 H 0.46863 0.55944 0.95945 0.0
N134 N 0.50734 0.51069 0.92432 0.0
N135 N 0.53942 0.48246 0.8881 0.0
N136 N 0.47146 0.52849 0.88739 0.0
C137 C 0.54104 0.48561 0.91252 0.0
C138 C 0.50475 0.50379 0.87539 0.0
C139 C 0.47229 0.53216 0.91177 0.0
C140 C 0.57971 0.46215 0.92586 0.0
C141 C 0.58092 0.46193 0.95119 0.0
C142 C 0.6174 0.43906 0.96343 0.0
C143 C 0.65354 0.41628 0.95059 0.0
C144 C 0.65239 0.41676 0.92532 0.0
C145 C 0.61601 0.43933 0.91313 0.0
C146 C 0.50396 0.50145 0.84872 0.0
C147 C 0.53759 0.47501 0.83605 0.0
C148 C 0.53778 0.47432 0.81088 0.0
C149 C 0.50441 0.50009 0.79781 0.0
C150 C 0.47037 0.52596 0.81047 0.0
C151 C 0.47009 0.5266 0.8356 0.0
C152 C 0.43589 0.56076 0.92404 0.0
C153 C 0.39752 0.57824 0.91068 0.0
C154 C 0.43002 0.33983 0.09516 0.0
C155 C 0.42286 0.34188 0.07014 0.0
C156 C 0.44757 0.3751 0.05683 0.0
C157 C 0.47821 0.40613 0.06834 0.0
H158 H 0.56829 0.51357 0.05499 0.0
H159 H 0.60477 0.57557 0.03205 0.0
H160 H 0.64871 0.64167 0.09834 0.0
H161 H 0.61204 0.58037 0.12131 0.0
H162 H 0.60319 0.52678 0.16973 0.0
H163 H 0.608 0.5294 0.2134 0.0
H164 H 0.50404 0.42004 0.21772 0.0
H165 H 0.49995 0.41654 0.17397 0.0
H166 H 0.46464 0.36868 0.12604 0.0
H167 H 0.41101 0.31498 0.10596 0.0
H168 H 0.44317 0.37716 0.03749 0.0
H169 H 0.49633 0.43154 0.05752 0.0
N170 N 0.53745 0.47235 0.09295 0.0
N171 N 0.56876 0.50416 0.12846 0.0
N172 N 0.52004 0.4388 0.13017 0.0
C173 C 0.56427 0.505 0.10412 0.0
C174 C 0.54688 0.47116 0.14163 0.0
C175 C 0.51526 0.4391 0.10581 0.0
C176 C 0.58713 0.54196 0.09003 0.0
C177 C 0.58566 0.54134 0.0647 0.0
C178 C 0.60666 0.57674 0.05152 0.0
C179 C 0.62921 0.61359 0.06342 0.0
C180 C 0.63083 0.61411 0.08869 0.0
C181 C 0.61011 0.5787 0.10185 0.0
C182 C 0.55101 0.47156 0.16825 0.0
C183 C 0.58142 0.50312 0.17993 0.0
C184 C 0.58402 0.50482 0.20502 0.0
C185 C 0.55619 0.47514 0.21908 0.0
C186 C 0.52636 0.44306 0.20743 0.0
C187 C 0.52385 0.44124 0.1823 0.0
C188 C 0.48469 0.40469 0.09345 0.0
C189 C 0.46059 0.37086 0.10669 0.0
C190 C 0.1551 0.13967 0.00637 0.0
C191 C 0.14994 0.09756 0.01834 0.0
C192 C 0.1967 0.16573 0.00914 0.0
C193 C 0.23392 0.15009 0.02396 0.0
C194 C 0.2295 0.10716 0.03503 0.0
C195 C 0.18792 0.0813 0.0324 0.0
C196 C 0.27722 0.17783 0.02902 0.0
C197 C 0.27747 0.22409 0.02903 0.0
C198 C 0.31803 0.25221 0.03807 0.0
C199 C 0.32119 0.29841 0.03118 0.0
C200 C 0.35611 0.32722 0.04104 0.0
C201 C 0.38837 0.31046 0.05821 0.0
H202 H 0.34914 0.2003 0.06136 0.0
C203 C 0.38585 0.26404 0.06479 0.0
C204 C 0.351 0.23523 0.05493 0.0
H205 H 0.41043 0.25008 0.07787 0.0
H206 H 0.12674 0.15289 0.99517 0.0
H207 H 0.19944 0.19796 -0.00034 0.0
H208 H 0.2578 0.09412 0.04635 0.0
H209 H 0.18543 0.04874 0.04165 0.0
H210 H 0.3087 0.15929 0.03473 0.0
H211 H 0.24602 0.24259 0.02322 0.0
H212 H 0.29596 0.31253 0.01846 0.0
H213 H 0.35674 0.36301 0.03583 0.0
C214 C 0.09721 0.8252 0.99371 0.0
C215 C 0.10132 0.85676 0.01288 0.0
C216 C 0.13105 0.79069 0.99054 0.0
C217 C 0.16982 0.78696 0.00645 0.0
C218 C 0.17228 0.8164 0.02651 0.0
C219 C 0.13854 0.85125 0.02962 0.0
C220 C 0.20903 0.75408 0.00167 0.0
C221 C 0.22468 0.74662 0.97909 0.0
C222 C 0.26486 0.71604 0.97255 0.0
C223 C 0.28747 0.72334 0.95042 0.0
C224 C 0.32256 0.69341 0.94223 0.0
C225 C 0.33559 0.65494 0.95585 0.0
H226 H 0.26184 0.67142 0.00373 0.0
C227 C 0.31427 0.6483 0.97845 0.0
C228 C 0.27904 0.67856 0.98674 0.0
H229 H 0.32342 0.61876 0.98925 0.0
H230 H 0.0687 0.82796 0.98065 0.0
H231 H 0.12731 0.76748 0.97532 0.0
H232 H 0.2015 0.81377 0.03918 0.0
H233 H 0.14248 0.87466 0.04475 0.0
H234 H 0.22755 0.73916 0.01689 0.0
H235 H 0.20848 0.76572 0.96446 0.0
H236 H 0.27745 0.75205 0.93918 0.0
H237 H 0.33902 0.7 0.92497 0.0
C238 C 0.84265 0.85939 0.99672 0.0
C239 C 0.84379 0.89928 0.01115 0.0
C240 C 0.80453 0.82862 -0.00176 0.0
C241 C 0.76687 0.83703 0.01434 0.0
C242 C 0.76666 0.8782 0.02764 0.0
C243 C 0.80478 0.90893 0.02617 0.0
C244 C 0.72885 0.80275 0.019 0.0
C245 C 0.7359 0.75714 0.01683 0.0
C246 C 0.70304 0.72207 0.02681 0.0
C247 C 0.70692 0.67642 0.0187 0.0
C248 C 0.68145 0.64128 0.02993 0.0
C249 C 0.65197 0.65112 0.0497 0.0
H250 H 0.66876 0.76639 0.05338 0.0
C251 C 0.64671 0.69694 0.05727 0.0
C252 C 0.67203 0.73204 0.04605 0.0
H253 H 0.62386 0.70556 0.07233 0.0
H254 H 0.87171 0.8513 0.98463 0.0
H255 H 0.80511 0.79813 0.98699 0.0
H256 H 0.73785 0.88576 0.04 0.0
H257 H 0.80418 0.93962 0.03731 0.0
H258 H 0.69595 0.81552 0.02673 0.0
H259 H 0.76873 0.74441 0.00898 0.0
H260 H 0.73085 0.66769 0.00409 0.0
H261 H 0.68647 0.6062 0.02382 0.0
C262 C 0.90134 0.18519 0.99524 0.0
C263 C 0.88938 0.14838 0.01034 0.0
C264 C 0.87018 0.22213 0.99235 0.0
C265 C 0.82634 0.22322 0.00465 0.0
C266 C 0.81492 0.1869 0.02011 0.0
C267 C 0.8461 0.15002 0.02303 0.0
C268 C 0.78989 0.25919 0.00021 0.0
C269 C 0.79992 0.30096 0.99116 0.0
C270 C 0.76261 0.33364 0.98313 0.0
C271 C 0.77398 0.36479 0.96484 0.0
C272 C 0.73894 0.39281 0.95489 0.0
C273 C 0.69172 0.39064 0.96317 0.0
H274 H 0.70608 0.31107 0.00711 0.0
C275 C 0.68085 0.36153 0.98249 0.0
C276 C 0.71594 0.33333 0.99241 0.0
H277 H 0.64483 0.35923 0.98933 0.0
H278 H 0.93427 0.18498 0.98511 0.0
H279 H 0.87993 0.2486 0.97971 0.0
H280 H 0.78131 0.18662 0.02967 0.0
H281 H 0.83566 0.1223 0.03482 0.0
H282 H 0.75315 0.24968 0.00367 0.0
H283 H 0.83667 0.3105 0.98775 0.0
H284 H 0.80975 0.36626 0.95758 0.0
H285 H 0.74864 0.4156 0.94035 0.0
C286 C 0.68422 0.60179 0.52883 0.0
C287 C 0.64487 0.60938 0.5137 0.0
C288 C 0.71775 0.63655 0.53293 0.0
C289 C 0.71247 0.67975 0.52206 0.0
C290 C 0.67372 0.687 0.50659 0.0
C291 C 0.64051 0.65207 0.50224 0.0
C292 C 0.74384 0.7191 0.52841 0.0
C293 C 0.7893 0.71433 0.53566 0.0
C294 C 0.81782 0.75356 0.545 0.0
C295 C 0.86744 0.75388 0.54188 0.0
C296 C 0.89518 0.78935 0.55176 0.0
C297 C 0.87378 0.82443 0.56542 0.0
H298 H 0.75847 0.78928 0.56174 0.0
C299 C 0.82418 0.82408 0.56854 0.0
C300 C 0.79645 0.78911 0.5584 0.0
H301 H 0.80685 0.85081 0.57897 0.0
H302 H 0.68861 0.56929 0.53794 0.0
H303 H 0.74651 0.63005 0.54544 0.0
H304 H 0.66865 0.7201 0.49816 0.0
H305 H 0.61052 0.65913 0.49056 0.0
H306 H 0.72867 0.75331 0.52713 0.0
H307 H 0.80633 0.6809 0.53469 0.0
H308 H 0.88475 0.72658 0.53186 0.0
H309 H 0.93343 0.78871 0.54928 0.0
C310 C 0.66759 0.36134 0.52892 0.0
C311 C 0.62368 0.35503 0.51712 0.0
C312 C 0.7017 0.32648 0.52875 0.0
C313 C 0.69239 0.28463 0.51683 0.0
C314 C 0.64753 0.27737 0.50632 0.0
C315 C 0.61362 0.31231 0.50628 0.0
C316 C 0.72934 0.24888 0.5137 0.0
C317 C 0.7757 0.25934 0.51078 0.0
C318 C 0.81031 0.22549 0.50128 0.0
C319 C 0.8459 0.24074 0.48553 0.0
C320 C 0.87477 0.20921 0.47343 0.0
C321 C 0.86904 0.16186 0.47721 0.0
H322 H 0.78026 0.16555 0.51878 0.0
C323 C 0.83567 0.14674 0.49425 0.0
C324 C 0.80648 0.17828 0.50619 0.0
H325 H 0.83065 0.11042 0.49756 0.0
H326 H 0.67624 0.39367 0.53769 0.0
H327 H 0.73547 0.33265 0.53765 0.0
H328 H 0.63936 0.24523 0.49722 0.0
H329 H 0.57989 0.30611 0.49731 0.0
H330 H 0.71711 0.21402 0.51017 0.0
H331 H 0.78718 0.29498 0.51183 0.0
H332 H 0.84986 0.27699 0.48165 0.0
H333 H 0.9008 0.22177 0.46068 0.0
C334 C 0.32103 0.38994 0.51991 0.0
C335 C 0.3627 0.37893 0.50715 0.0
C336 C 0.28402 0.35803 0.52189 0.0
C337 C 0.28775 0.31433 0.51102 0.0
C338 C 0.32894 0.30373 0.49785 0.0
C339 C 0.36591 0.33571 0.4958 0.0
C340 C 0.25187 0.27757 0.51509 0.0
C341 C 0.20643 0.28586 0.52154 0.0
C342 C 0.17371 0.24941 0.53026 0.0
C343 C 0.13792 0.26173 0.54666 0.0
C344 C 0.11014 0.22809 0.55769 0.0
C345 C 0.11724 0.18135 0.55234 0.0
H346 H 0.20476 0.19205 0.51051 0.0
C347 C 0.15086 0.16915 0.53473 0.0
C348 C 0.1788 0.20283 0.52374 0.0
H349 H 0.15698 0.13341 0.53015 0.0
H350 H 0.31738 0.42286 0.52894 0.0
H351 H 0.25366 0.36726 0.53284 0.0
H352 H 0.33295 0.27022 0.48948 0.0
H353 H 0.39749 0.32603 0.48583 0.0
H354 H 0.26459 0.24245 0.51393 0.0
H355 H 0.19376 0.32101 0.52258 0.0
H356 H 0.13273 0.29738 0.55176 0.0
H357 H 0.08379 0.2386 0.57083 0.0
C358 C 0.34708 0.62904 0.50515 0.0
C359 C 0.39082 0.62565 0.49299 0.0
C360 C 0.31429 0.66311 0.49902 0.0
C361 C 0.32478 0.69464 0.48065 0.0
C362 C 0.36875 0.69156 0.46881 0.0
C363 C 0.40147 0.65765 0.47494 0.0
C364 C 0.29016 0.7294 0.47216 0.0
C365 C 0.25292 0.7448 0.48516 0.0
C366 C 0.21792 0.77815 0.47551 0.0
C367 C 0.17145 0.77848 0.48482 0.0
C368 C 0.137 0.80788 0.47534 0.0
C369 C 0.14851 0.83754 0.45637 0.0
H370 H 0.26569 0.81186 0.45027 0.0
C371 C 0.19537 0.83841 0.44764 0.0
C372 C 0.22982 0.80935 0.4572 0.0
H373 H 0.20551 0.8619 0.43348 0.0
H374 H 0.33765 0.60478 0.51906 0.0
H375 H 0.28037 0.66345 0.50821 0.0
H376 H 0.37771 0.71525 0.45454 0.0
H377 H 0.43481 0.65614 0.46518 0.0
H378 H 0.29578 0.74234 0.45412 0.0
H379 H 0.24658 0.73162 0.50309 0.0
H380 H 0.16148 0.75522 0.49911 0.0
H381 H 0.10111 0.80663 0.48244 0.0
C382 C 0.94183 0.00577 0.11913 0.0
C383 C 0.98586 0.0058 0.1071 0.0
C384 C 0.94001 0.00802 0.14427 0.0
C385 C 0.98226 0.0106 0.15787 0.0
C386 C 0.02614 0.01129 0.14584 0.0
C387 C 0.028 0.00849 0.12075 0.0
C388 C 0.98189 0.014 0.18453 0.0
C389 C 0.94783 -0.00519 0.19825 0.0
C390 C 0.94945 -0.00355 0.22493 0.0
C391 C 0.93125 0.95929 0.23802 0.0
C392 C 0.93394 0.95909 0.26314 0.0
C393 C 0.95403 -0.00347 0.27567 0.0
H394 H 0.98175 0.06417 0.22798 0.0
C395 C 0.97076 0.03444 0.26262 0.0
C396 C 0.96861 0.03439 0.23749 0.0
H397 H 0.98644 0.06374 0.27183 0.0
H398 H 0.9087 0.00396 0.10915 0.0
H399 H 0.90551 0.00862 0.15293 0.0
H400 H 0.05917 0.01364 0.1559 0.0
H401 H 0.06251 0.00896 0.11206 0.0
H402 H 0.01242 0.03026 0.19314 0.0
H403 H 0.91987 0.97439 0.18984 0.0
H404 H 0.91584 0.9299 0.22876 0.0
H405 H 0.92023 0.92968 0.27279 0.0
C406 C 0.01045 0.04301 0.90743 0.0
C407 C -0.00114 0.00308 0.92031 0.0
C408 C 0.00967 0.04284 0.88224 0.0
C409 C -0.00262 0.00262 0.8694 0.0
C410 C 0.9856 0.96292 0.88229 0.0
C411 C 0.98656 0.96301 0.90741 0.0
C412 C 0.99452 0.00105 0.8427 0.0
C413 C 0.01892 0.02956 0.8282 0.0
C414 C 0.01607 0.02675 0.80151 0.0
C415 C 0.05495 0.04175 0.78777 0.0
C416 C 0.05364 0.03912 0.76264 0.0
C417 C 0.01312 0.02184 0.75068 0.0
H418 H 0.94375 5e-05 0.79945 0.0
C419 C 0.97378 0.00779 0.76444 0.0
C420 C 0.97514 0.01031 0.78955 0.0
H421 H 0.94156 -0.00459 0.75579 0.0
H422 H 0.01977 0.07456 0.91679 0.0
H423 H 0.01766 0.07453 0.87301 0.0
H424 H 0.97566 0.93157 0.87288 0.0
H425 H 0.97724 0.93165 0.91669 0.0
H426 H 0.97321 0.97366 0.83475 0.0
H427 H 0.0439 0.05409 0.83594 0.0
H428 H 0.08676 0.0549 0.79652 0.0
H429 H 0.0847 0.04994 0.7526 0.0
C430 C 0.53117 0.49385 0.6152 0.0
C431 C 0.49063 0.50007 0.60071 0.0
C432 C 0.52737 0.49322 0.64025 0.0
C433 C 0.48289 0.49924 0.65146 0.0
C434 C 0.44234 0.50518 0.637 0.0
C435 C 0.44614 0.50582 0.6119 0.0
C436 C 0.47722 0.49753 0.67805 0.0
C437 C 0.51275 0.50786 0.69356 0.0
C438 C 0.50885 0.50503 0.72023 0.0
C439 C 0.55102 0.50573 0.73386 0.0
C440 C 0.5496 0.50364 0.75895 0.0
C441 C 0.50584 0.50099 0.77108 0.0
H442 H 0.4314 0.50296 0.72282 0.0
C443 C 0.46353 0.50042 0.75751 0.0
C444 C 0.46492 0.50255 0.73239 0.0
H445 H 0.42921 0.49818 0.76632 0.0
H446 H 0.56596 0.48882 0.60722 0.0
H447 H 0.55929 0.48684 0.6506 0.0
H448 H 0.40757 0.50944 0.64514 0.0
H449 H 0.41412 0.51044 0.6013 0.0
H450 H 0.44246 0.48764 0.68474 0.0
H451 H 0.54702 0.51859 0.68651 0.0
H452 H 0.58537 0.50795 0.72507 0.0
H453 H 0.58284 0.50497 0.76885 0.0
C454 C 0.53366 0.51309 0.40097 0.0
C455 C 0.52669 0.47408 0.41533 0.0
C456 C 0.5377 0.50887 0.37599 0.0
C457 C 0.53532 0.46537 0.36476 0.0
C458 C 0.52821 0.42646 0.37913 0.0
C459 C 0.52408 0.43068 0.40411 0.0
C460 C 0.53796 0.4592 0.33818 0.0
C461 C 0.55711 0.49046 0.32321 0.0
C462 C 0.55753 0.4851 0.29659 0.0
C463 C 0.55959 0.52476 0.28242 0.0
C464 C 0.55927 0.52152 0.25733 0.0
C465 C 0.55745 0.4784 0.24579 0.0
H466 H 0.55667 0.41036 0.29532 0.0
C467 C 0.55638 0.43858 0.25996 0.0
C468 C 0.55654 0.44183 0.28509 0.0
H469 H 0.55602 0.40482 0.25164 0.0
H470 H 0.53537 0.54711 0.40897 0.0
H471 H 0.54149 0.54001 0.36567 0.0
H472 H 0.52582 0.39258 0.37099 0.0
H473 H 0.51861 0.39989 0.4146 0.0
H474 H 0.52317 0.42759 0.33081 0.0
H475 H 0.57189 0.52215 0.33044 0.0
H476 H 0.56062 0.5585 0.29078 0.0
H477 H 0.55959 0.55292 0.24698 0.0
loop_
_geom_bond_atom_site_label_1
_geom_bond_atom_site_label_2
_geom_bond_distance
_geom_bond_site_symmetry_2
_ccdc_geom_bond_type
O0 Zn1 1.953 . S
O0 C16 1.225 1_565 S
Zn1 O0 1.953 . S
Zn1 O2 1.949 1_565 S
Zn1 O8 1.919 . S
Zn1 O13 1.924 1_565 S
O2 Zn1 1.949 1_545 S
O2 Zn3 1.923 1_444 S
O2 Zn4 1.950 1_455 S
O2 Zn5 1.945 1_554 S
Zn3 O2 1.923 1_666 S
Zn3 O6 1.933 . S
Zn3 O9 1.941 1_655 S
Zn3 O10 1.973 . S
Zn4 O2 1.950 1_655 S
Zn4 O11 1.938 1_545 S
Zn4 O12 1.906 . S
Zn4 O22 1.953 . S
Zn5 O2 1.945 1_556 S
Zn5 O7 1.932 . S
Zn5 O14 1.977 1_455 S
Zn5 O15 1.910 1_556 S
O6 Zn3 1.933 . S
O6 C17 1.226 1_665 S
O7 Zn5 1.932 . S
O7 C17 1.307 . S
O8 Zn1 1.919 . S
O8 C19 1.253 . S
O9 Zn3 1.941 1_455 S
O9 C19 1.283 1_556 S
O10 Zn3 1.973 . S
O10 C18 1.277 1_556 S
O11 Zn4 1.938 1_565 S
O11 C18 1.247 . S
O12 Zn4 1.906 . S
O12 C20 1.304 . S
O13 Zn1 1.924 1_545 S
O13 C21 1.311 . S
O14 Zn5 1.977 1_655 S
O14 C20 1.272 1_556 S
O15 Zn5 1.910 1_554 S
O15 C21 1.231 . S
C16 O0 1.225 1_545 S
C16 O22 1.298 1_455 S
C17 O6 1.226 1_445 S
C17 O7 1.307 . S
C18 O10 1.277 1_554 S
C18 O11 1.247 . S
C19 O8 1.253 . S
C19 O9 1.283 1_554 S
C20 O12 1.304 . S
C20 O14 1.272 1_554 S
C21 O13 1.311 . S
C21 O15 1.231 . S
O22 Zn4 1.953 . S
O22 C16 1.298 1_655 S
O23 Zn24 1.953 . S
O23 C39 1.225 . S
Zn24 O23 1.953 . S
Zn24 O25 1.949 . S
Zn24 O31 1.919 . S
Zn24 O36 1.924 . S
O25 Zn24 1.949 . S
O25 Zn26 1.923 . S
O25 Zn27 1.950 . S
O25 Zn28 1.945 . S
Zn26 O25 1.923 . S
Zn26 O29 1.933 . S
Zn26 O32 1.941 . S
Zn26 O33 1.965 . S
Zn27 O25 1.950 . S
Zn27 O34 1.938 . S
Zn27 O35 1.906 . S
Zn27 O45 1.953 . S
Zn28 O25 1.945 . S
Zn28 O30 1.932 . S
Zn28 O37 1.977 . S
Zn28 O38 1.910 . S
O29 Zn26 1.933 . S
O29 C40 1.226 . S
O30 Zn28 1.932 . S
O30 C40 1.307 . S
O31 Zn24 1.919 . S
O31 C42 1.253 . S
O32 Zn26 1.941 . S
O32 C42 1.283 . S
O33 Zn26 1.965 . S
O33 C41 1.303 . S
O34 Zn27 1.938 . S
O34 C41 1.247 . S
O35 Zn27 1.906 . S
O35 C43 1.304 . S
O36 Zn24 1.924 . S
O36 C44 1.311 . S
O37 Zn28 1.977 . S
O37 C43 1.272 . S
O38 Zn28 1.910 . S
O38 C44 1.231 . S
C39 O23 1.225 . S
C39 O45 1.298 . S
C40 O29 1.226 . S
C40 O30 1.307 . S
C41 O33 1.303 . S
C41 O34 1.247 . S
C42 O31 1.253 . S
C42 O32 1.283 . S
C43 O35 1.304 . S
C43 O37 1.272 . S
C44 O36 1.311 . S
C44 O38 1.231 . S
O45 Zn27 1.953 . S
O45 C39 1.298 . S
C46 C47 1.384 . S
C46 H59 0.947 . S
C46 C81 1.382 . S
C47 C46 1.384 . S
C47 C48 1.378 . S
C48 C47 1.378 . S
C48 C49 1.378 . S
C48 H60 0.952 . S
C49 C48 1.378 . S
C49 H61 0.950 . S
C49 C80 1.383 . S
H50 C69 0.947 . S
H51 C70 0.946 . S
H52 C72 0.953 . S
H53 C73 0.945 . S
H54 C75 0.952 . S
H55 C76 0.949 . S
H56 C78 0.950 . S
H57 C79 0.948 . S
H58 C81 0.951 . S
H59 C46 0.947 . S
H60 C48 0.952 . S
H61 C49 0.950 . S
N62 C65 1.382 1_545 S
N62 C67 1.363 1_455 S
N63 C65 1.371 . S
N63 C66 1.372 1_565 S
N64 C66 1.361 1_655 S
N64 C67 1.377 . S
C65 N62 1.382 1_565 S
C65 N63 1.371 . S
C65 C68 1.480 . S
C66 N63 1.372 1_545 S
C66 N64 1.361 1_455 S
C66 C74 1.457 . S
C67 N62 1.363 1_655 S
C67 N64 1.377 . S
C67 C80 1.479 . S
C68 C65 1.480 . S
C68 C69 1.383 . S
C68 C73 1.385 . S
C69 H50 0.947 . S
C69 C68 1.383 . S
C69 C70 1.388 . S
C70 H51 0.946 . S
C70 C69 1.388 . S
C70 C71 1.384 . S
C71 C70 1.384 . S
C71 C72 1.377 . S
C72 H52 0.953 . S
C72 C71 1.377 . S
C72 C73 1.369 . S
C73 H53 0.945 . S
C73 C68 1.385 . S
C73 C72 1.369 . S
C74 C66 1.457 . S
C74 C75 1.372 1_545 S
C74 C79 1.364 1_455 S
C75 H54 0.952 . S
C75 C74 1.372 1_565 S
C75 C76 1.389 . S
C76 H55 0.949 . S
C76 C75 1.389 . S
C76 C77 1.387 1_565 S
C77 C76 1.387 1_545 S
C77 C78 1.372 1_455 S
C78 H56 0.950 . S
C78 C77 1.372 1_655 S
C78 C79 1.379 . S
C79 H57 0.948 . S
C79 C74 1.364 1_655 S
C79 C78 1.379 . S
C80 C49 1.383 . S
C80 C67 1.479 . S
C80 C81 1.398 . S
C81 C46 1.382 . S
C81 H58 0.951 . S
C81 C80 1.398 . S
C82 C83 1.384 . S
C82 H95 0.947 . S
C82 C117 1.382 . S
C83 C82 1.384 . S
C83 C84 1.378 . S
C84 C83 1.378 . S
C84 C85 1.378 . S
C84 H96 0.952 . S
C85 C84 1.378 . S
C85 H97 0.950 . S
C85 C116 1.383 . S
H86 C105 0.947 . S
H87 C106 0.946 . S
H88 C108 0.953 . S
H89 C109 0.945 . S
H90 C111 0.952 . S
H91 C112 0.949 . S
H92 C114 0.950 . S
H93 C115 0.948 . S
H94 C117 0.951 . S
H95 C82 0.947 . S
H96 C84 0.952 . S
H97 C85 0.950 . S
N98 C101 1.382 1_565 S
N98 C103 1.363 1_455 S
N99 C101 1.371 . S
N99 C102 1.372 1_545 S
N100 C102 1.361 1_655 S
N100 C103 1.377 . S
C101 N98 1.382 1_545 S
C101 N99 1.371 . S
C101 C104 1.480 . S
C102 N99 1.372 1_565 S
C102 N100 1.361 1_455 S
C102 C110 1.457 . S
C103 N98 1.363 1_655 S
C103 N100 1.377 . S
C103 C116 1.479 . S
C104 C101 1.480 . S
C104 C105 1.383 . S
C104 C109 1.385 . S
C105 H86 0.947 . S
C105 C104 1.383 . S
C105 C106 1.388 . S
C106 H87 0.946 . S
C106 C105 1.388 . S
C106 C107 1.384 . S
C107 C106 1.384 . S
C107 C108 1.377 . S
C108 H88 0.953 . S
C108 C107 1.377 . S
C108 C109 1.369 . S
C109 H89 0.945 . S
C109 C104 1.385 . S
C109 C108 1.369 . S
C110 C102 1.457 . S
C110 C111 1.372 1_565 S
C110 C115 1.364 1_455 S
C111 H90 0.952 . S
C111 C110 1.372 1_545 S
C111 C112 1.389 . S
C112 H91 0.949 . S
C112 C111 1.389 . S
C112 C113 1.389 . S
C113 C112 1.389 . S
C113 C114 1.370 1_445 S
C114 H92 0.950 . S
C114 C113 1.370 1_665 S
C114 C115 1.379 . S
C115 H93 0.948 . S
C115 C110 1.364 1_655 S
C115 C114 1.379 . S
C116 C85 1.383 . S
C116 C103 1.479 . S
C116 C117 1.398 . S
C117 C82 1.382 . S
C117 H94 0.951 . S
C117 C116 1.398 . S
C118 C119 1.384 . S
C118 H131 0.947 . S
C118 C153 1.382 . S
C119 C118 1.384 . S
C119 C120 1.378 . S
C120 C119 1.378 . S
C120 C121 1.378 . S
C120 H132 0.952 . S
C121 C120 1.378 . S
C121 H133 0.950 . S
C121 C152 1.383 . S
H122 C141 0.947 . S
H123 C142 0.946 . S
H124 C144 0.953 . S
H125 C145 0.945 . S
H126 C147 0.952 . S
H127 C148 0.949 . S
H128 C150 0.950 . S
H129 C151 0.948 . S
H130 C153 0.951 . S
H131 C118 0.947 . S
H132 C120 0.952 . S
H133 C121 0.950 . S
N134 C137 1.382 . S
N134 C139 1.363 . S
N135 C137 1.371 . S
N135 C138 1.372 . S
N136 C138 1.361 . S
N136 C139 1.377 . S
C137 N134 1.382 . S
C137 N135 1.371 . S
C137 C140 1.480 . S
C138 N135 1.372 . S
C138 N136 1.361 . S
C138 C146 1.457 . S
C139 N134 1.363 . S
C139 N136 1.377 . S
C139 C152 1.479 . S
C140 C137 1.480 . S
C140 C141 1.383 . S
C140 C145 1.385 . S
C141 H122 0.947 . S
C141 C140 1.383 . S
C141 C142 1.388 . S
C142 H123 0.946 . S
C142 C141 1.388 . S
C142 C143 1.384 . S
C143 C142 1.384 . S
C143 C144 1.377 . S
C144 H124 0.953 . S
C144 C143 1.377 . S
C144 C145 1.369 . S
C145 H125 0.945 . S
C145 C140 1.385 . S
C145 C144 1.369 . S
C146 C138 1.457 . S
C146 C147 1.372 . S
C146 C151 1.364 . S
C147 H126 0.952 . S
C147 C146 1.372 . S
C147 C148 1.389 . S
C148 H127 0.949 . S
C148 C147 1.389 . S
C148 C149 1.387 . S
C149 C148 1.387 . S
C149 C150 1.372 . S
C150 H128 0.950 . S
C150 C149 1.372 . S
C150 C151 1.379 . S
C151 H129 0.948 . S
C151 C146 1.364 . S
C151 C150 1.379 . S
C152 C121 1.383 . S
C152 C139 1.479 . S
C152 C153 1.398 . S
C153 C118 1.382 . S
C153 H130 0.951 . S
C153 C152 1.398 . S
C154 C155 1.384 . S
C154 H167 0.947 . S
C154 C189 1.382 . S
C155 C154 1.384 . S
C155 C156 1.378 . S
C156 C155 1.378 . S
C156 C157 1.378 . S
C156 H168 0.952 . S
C157 C156 1.378 . S
C157 H169 0.950 . S
C157 C188 1.383 . S
H158 C177 0.947 . S
H159 C178 0.946 . S
H160 C180 0.953 . S
H161 C181 0.945 . S
H162 C183 0.952 . S
H163 C184 0.949 . S
H164 C186 0.950 . S
H165 C187 0.948 . S
H166 C189 0.951 . S
H167 C154 0.947 . S
H168 C156 0.952 . S
H169 C157 0.950 . S
N170 C173 1.382 . S
N170 C175 1.363 . S
N171 C173 1.371 . S
N171 C174 1.372 . S
N172 C174 1.361 . S
N172 C175 1.377 . S
C173 N170 1.382 . S
C173 N171 1.371 . S
C173 C176 1.480 . S
C174 N171 1.372 . S
C174 N172 1.361 . S
C174 C182 1.457 . S
C175 N170 1.363 . S
C175 N172 1.377 . S
C175 C188 1.479 . S
C176 C173 1.480 . S
C176 C177 1.383 . S
C176 C181 1.385 . S
C177 H158 0.947 . S
C177 C176 1.383 . S
C177 C178 1.388 . S
C178 H159 0.946 . S
C178 C177 1.388 . S
C178 C179 1.384 . S
C179 C178 1.384 . S
C179 C180 1.377 . S
C180 H160 0.953 . S
C180 C179 1.377 . S
C180 C181 1.369 . S
C181 H161 0.945 . S
C181 C176 1.385 . S
C181 C180 1.369 . S
C182 C174 1.457 . S
C182 C183 1.372 . S
C182 C187 1.364 . S
C183 H162 0.952 . S
C183 C182 1.372 . S
C183 C184 1.389 . S
C184 H163 0.949 . S
C184 C183 1.389 . S
C184 C185 1.387 . S
C185 C184 1.387 . S
C185 C186 1.372 . S
C186 H164 0.950 . S
C186 C185 1.372 . S
C186 C187 1.379 . S
C187 H165 0.948 . S
C187 C182 1.364 . S
C187 C186 1.379 . S
C188 C157 1.383 . S
C188 C175 1.479 . S
C188 C189 1.398 . S
C189 C154 1.382 . S
C189 H166 0.951 . S
C189 C188 1.398 . S
C190 C191 1.386 . S
C190 C192 1.383 . S
C190 H206 0.951 . S
C191 C190 1.386 . S
C191 C195 1.383 . S
C192 C190 1.383 . S
C192 C193 1.402 . S
C192 H207 0.951 . S
C193 C192 1.402 . S
C193 C194 1.375 . S
C193 C196 1.481 . S
C194 C193 1.375 . S
C194 C195 1.367 . S
C194 H208 0.951 . S
C195 C191 1.383 . S
C195 C194 1.367 . S
C195 H209 0.950 . S
C196 C193 1.481 . S
C196 C197 1.297 . S
C196 H210 0.950 . S
C197 C196 1.297 . S
C197 C198 1.479 . S
C197 H211 0.950 . S
C198 C197 1.479 . S
C198 C199 1.375 . S
C198 C204 1.404 . S
C199 C198 1.375 . S
C199 C200 1.369 . S
C199 H212 0.950 . S
C200 C199 1.369 . S
C200 C201 1.392 . S
C200 H213 0.951 . S
C201 C200 1.392 . S
C201 C203 1.384 . S
H202 C204 0.949 . S
C203 C201 1.384 . S
C203 C204 1.385 . S
C203 H205 0.950 . S
C204 C198 1.404 . S
C204 H202 0.949 . S
C204 C203 1.385 . S
H205 C203 0.950 . S
H206 C190 0.951 . S
H207 C192 0.951 . S
H208 C194 0.951 . S
H209 C195 0.950 . S
H210 C196 0.950 . S
H211 C197 0.950 . S
H212 C199 0.950 . S
H213 C200 0.951 . S
C214 C215 1.386 . S
C214 C216 1.383 . S
C214 H230 0.951 . S
C215 C214 1.386 . S
C215 C219 1.383 1_556 S
C216 C214 1.383 . S
C216 C217 1.402 . S
C216 H231 0.951 . S
C217 C216 1.402 . S
C217 C218 1.375 1_556 S
C217 C220 1.481 . S
C218 C217 1.375 1_554 S
C218 C219 1.367 . S
C218 H232 0.951 . S
C219 C215 1.383 1_554 S
C219 C218 1.367 . S
C219 H233 0.950 . S
C220 C217 1.481 . S
C220 C221 1.297 . S
C220 H234 0.950 1_556 S
C221 C220 1.297 . S
C221 C222 1.479 . S
C221 H235 0.950 . S
C222 C221 1.479 . S
C222 C223 1.375 . S
C222 C228 1.404 . S
C223 C222 1.375 . S
C223 C224 1.369 . S
C223 H236 0.950 . S
C224 C223 1.369 . S
C224 C225 1.392 . S
C224 H237 0.951 . S
C225 C224 1.392 . S
C225 C227 1.384 . S
H226 C228 0.949 1_554 S
C227 C225 1.384 . S
C227 C228 1.385 . S
C227 H229 0.950 . S
C228 C222 1.404 . S
C228 H226 0.949 1_556 S
C228 C227 1.385 . S
H229 C227 0.950 . S
H230 C214 0.951 . S
H231 C216 0.951 . S
H232 C218 0.951 . S
H233 C219 0.950 . S
H234 C220 0.950 1_554 S
H235 C221 0.950 . S
H236 C223 0.950 . S
H237 C224 0.951 . S
C238 C239 1.386 . S
C238 C240 1.383 . S
C238 H254 0.972 . S
C239 C238 1.386 . S
C239 C243 1.383 . S
C240 C238 1.383 . S
C240 C241 1.402 . S
C240 H255 0.951 . S
C241 C240 1.402 . S
C241 C242 1.375 . S
C241 C244 1.481 . S
C242 C241 1.375 . S
C242 C243 1.367 . S
C242 H256 0.951 . S
C243 C239 1.383 . S
C243 C242 1.367 . S
C243 H257 0.950 . S
C244 C241 1.481 . S
C244 C245 1.297 . S
C244 H258 0.950 . S
C245 C244 1.297 . S
C245 C246 1.479 . S
C245 H259 0.950 . S
C246 C245 1.479 . S
C246 C247 1.375 . S
C246 C252 1.404 . S
C247 C246 1.375 . S
C247 C248 1.369 . S
C247 H260 0.950 . S
C248 C247 1.369 . S
C248 C249 1.392 . S
C248 H261 0.951 . S
C249 C248 1.392 . S
C249 C251 1.384 . S
H250 C252 0.949 . S
C251 C249 1.384 . S
C251 C252 1.385 . S
C251 H253 0.950 . S
C252 C246 1.404 . S
C252 H250 0.949 . S
C252 C251 1.385 . S
H253 C251 0.950 . S
H254 C238 0.972 . S
H255 C240 0.951 . S
H256 C242 0.951 . S
H257 C243 0.950 . S
H258 C244 0.950 . S
H259 C245 0.950 . S
H260 C247 0.950 . S
H261 C248 0.951 . S
C262 C263 1.386 . S
C262 C264 1.383 . S
C262 H278 0.951 . S
C263 C262 1.386 . S
C263 C267 1.383 1_556 S
C264 C262 1.383 . S
C264 C265 1.402 . S
C264 H279 0.951 . S
C265 C264 1.402 . S
C265 C266 1.375 1_556 S
C265 C268 1.481 . S
C266 C265 1.375 1_554 S
C266 C267 1.367 . S
C266 H280 0.951 . S
C267 C263 1.383 1_554 S
C267 C266 1.367 . S
C267 H281 0.950 . S
C268 C265 1.481 . S
C268 C269 1.297 . S
C268 H282 0.950 . S
C269 C268 1.297 . S
C269 C270 1.479 . S
C269 H283 0.950 . S
C270 C269 1.479 . S
C270 C271 1.375 . S
C270 C276 1.404 . S
C271 C270 1.375 . S
C271 C272 1.369 . S
C271 H284 0.950 . S
C272 C271 1.369 . S
C272 C273 1.392 . S
C272 H285 0.951 . S
C273 C272 1.392 . S
C273 C275 1.384 . S
H274 C276 0.949 . S
C275 C273 1.384 . S
C275 C276 1.385 . S
C275 H277 0.950 . S
C276 C270 1.404 . S
C276 H274 0.949 . S
C276 C275 1.385 . S
H277 C275 0.950 . S
H278 C262 0.951 . S
H279 C264 0.951 . S
H280 C266 0.951 . S
H281 C267 0.950 . S
H282 C268 0.950 . S
H283 C269 0.950 . S
H284 C271 0.950 . S
H285 C272 0.951 . S
C286 C287 1.386 . S
C286 C288 1.383 . S
C286 H302 0.951 . S
C287 C286 1.386 . S
C287 C291 1.383 . S
C288 C286 1.383 . S
C288 C289 1.402 . S
C288 H303 0.951 . S
C289 C288 1.402 . S
C289 C290 1.375 . S
C289 C292 1.481 . S
C290 C289 1.375 . S
C290 C291 1.367 . S
C290 H304 0.951 . S
C291 C287 1.383 . S
C291 C290 1.367 . S
C291 H305 0.950 . S
C292 C289 1.481 . S
C292 C293 1.297 . S
C292 H306 0.950 . S
C293 C292 1.297 . S
C293 C294 1.479 . S
C293 H307 0.950 . S
C294 C293 1.479 . S
C294 C295 1.375 . S
C294 C300 1.404 . S
C295 C294 1.375 . S
C295 C296 1.369 . S
C295 H308 0.950 . S
C296 C295 1.369 . S
C296 C297 1.392 . S
C296 H309 0.951 . S
C297 C296 1.392 . S
C297 C299 1.384 . S
H298 C300 0.949 . S
C299 C297 1.384 . S
C299 C300 1.385 . S
C299 H301 0.950 . S
C300 C294 1.404 . S
C300 H298 0.949 . S
C300 C299 1.385 . S
H301 C299 0.950 . S
H302 C286 0.951 . S
H303 C288 0.951 . S
H304 C290 0.951 . S
H305 C291 0.950 . S
H306 C292 0.950 . S
H307 C293 0.950 . S
H308 C295 0.950 . S
H309 C296 0.951 . S
C310 C311 1.386 . S
C310 C312 1.383 . S
C310 H326 0.951 . S
C311 C310 1.386 . S
C311 C315 1.383 . S
C312 C310 1.383 . S
C312 C313 1.402 . S
C312 H327 0.951 . S
C313 C312 1.402 . S
C313 C314 1.375 . S
C313 C316 1.481 . S
C314 C313 1.375 . S
C314 C315 1.367 . S
C314 H328 0.951 . S
C315 C311 1.383 . S
C315 C314 1.367 . S
C315 H329 0.950 . S
C316 C313 1.481 . S
C316 C317 1.297 . S
C316 H330 0.950 . S
C317 C316 1.297 . S
C317 C318 1.479 . S
C317 H331 0.950 . S
C318 C317 1.479 . S
C318 C319 1.375 . S
C318 C324 1.404 . S
C319 C318 1.375 . S
C319 C320 1.369 . S
C319 H332 0.950 . S
C320 C319 1.369 . S
C320 C321 1.392 . S
C320 H333 0.951 . S
C321 C320 1.392 . S
C321 C323 1.384 . S
H322 C324 0.949 . S
C323 C321 1.384 . S
C323 C324 1.385 . S
C323 H325 0.950 . S
C324 C318 1.404 . S
C324 H322 0.949 . S
C324 C323 1.385 . S
H325 C323 0.950 . S
H326 C310 0.951 . S
H327 C312 0.951 . S
H328 C314 0.951 . S
H329 C315 0.950 . S
H330 C316 0.950 . S
H331 C317 0.950 . S
H332 C319 0.950 . S
H333 C320 0.951 . S
C334 C335 1.386 . S
C334 C336 1.383 . S
C334 H350 0.951 . S
C335 C334 1.386 . S
C335 C339 1.383 . S
C336 C334 1.383 . S
C336 C337 1.402 . S
C336 H351 0.951 . S
C337 C336 1.402 . S
C337 C338 1.375 . S
C337 C340 1.481 . S
C338 C337 1.375 . S
C338 C339 1.367 . S
C338 H352 0.951 . S
C339 C335 1.383 . S
C339 C338 1.367 . S
C339 H353 0.950 . S
C340 C337 1.481 . S
C340 C341 1.297 . S
C340 H354 0.950 . S
C341 C340 1.297 . S
C341 C342 1.479 . S
C341 H355 0.950 . S
C342 C341 1.479 . S
C342 C343 1.375 . S
C342 C348 1.404 . S
C343 C342 1.375 . S
C343 C344 1.369 . S
C343 H356 0.950 . S
C344 C343 1.369 . S
C344 C345 1.392 . S
C344 H357 0.951 . S
C345 C344 1.392 . S
C345 C347 1.384 . S
H346 C348 0.949 . S
C347 C345 1.384 . S
C347 C348 1.385 . S
C347 H349 0.950 . S
C348 C342 1.404 . S
C348 H346 0.949 . S
C348 C347 1.385 . S
H349 C347 0.950 . S
H350 C334 0.951 . S
H351 C336 0.951 . S
H352 C338 0.951 . S
H353 C339 0.950 . S
H354 C340 0.950 . S
H355 C341 0.950 . S
H356 C343 0.950 . S
H357 C344 0.951 . S
C358 C359 1.386 . S
C358 C360 1.383 . S
C358 H374 0.951 . S
C359 C358 1.386 . S
C359 C363 1.383 . S
C360 C358 1.383 . S
C360 C361 1.402 . S
C360 H375 0.951 . S
C361 C360 1.402 . S
C361 C362 1.375 . S
C361 C364 1.481 . S
C362 C361 1.375 . S
C362 C363 1.367 . S
C362 H376 0.951 . S
C363 C359 1.383 . S
C363 C362 1.367 . S
C363 H377 0.950 . S
C364 C361 1.481 . S
C364 C365 1.297 . S
C364 H378 0.950 . S
C365 C364 1.297 . S
C365 C366 1.479 . S
C365 H379 0.950 . S
C366 C365 1.479 . S
C366 C367 1.375 . S
C366 C372 1.404 . S
C367 C366 1.375 . S
C367 C368 1.369 . S
C367 H380 0.950 . S
C368 C367 1.369 . S
C368 C369 1.392 . S
C368 H381 0.951 . S
C369 C368 1.392 . S
C369 C371 1.384 . S
H370 C372 0.949 . S
C371 C369 1.384 . S
C371 C372 1.385 . S
C371 H373 0.950 . S
C372 C366 1.404 . S
C372 H370 0.949 . S
C372 C371 1.385 . S
H373 C371 0.950 . S
H374 C358 0.951 . S
H375 C360 0.951 . S
H376 C362 0.951 . S
H377 C363 0.950 . S
H378 C364 0.950 . S
H379 C365 0.950 . S
H380 C367 0.950 . S
H381 C368 0.951 . S
C382 C383 1.386 1_665 S
C382 C384 1.383 . S
C382 H398 0.951 . S
C383 C382 1.386 1_445 S
C383 C387 1.383 . S
C384 C382 1.383 . S
C384 C385 1.402 1_665 S
C384 H399 0.951 . S
C385 C384 1.402 1_445 S
C385 C386 1.375 . S
C385 C388 1.481 . S
C386 C385 1.375 . S
C386 C387 1.367 . S
C386 H400 0.951 . S
C387 C383 1.383 . S
C387 C386 1.367 . S
C387 H401 0.950 . S
C388 C385 1.481 . S
C388 C389 1.297 1_545 S
C388 H402 0.950 . S
C389 C388 1.297 1_565 S
C389 C390 1.479 . S
C389 H403 0.950 . S
C390 C389 1.479 . S
C390 C391 1.375 1_455 S
C390 C396 1.404 1_565 S
C391 C390 1.375 1_655 S
C391 C392 1.369 . S
C391 H404 0.950 . S
C392 C391 1.369 . S
C392 C393 1.392 1_655 S
C392 H405 0.951 . S
C393 C392 1.392 1_455 S
C393 C395 1.384 1_565 S
H394 C396 0.949 . S
C395 C393 1.384 1_545 S
C395 C396 1.385 . S
C395 H397 0.950 . S
C396 C390 1.404 1_545 S
C396 H394 0.949 . S
C396 C395 1.385 . S
H397 C395 0.950 . S
H398 C382 0.951 . S
H399 C384 0.951 . S
H400 C386 0.951 . S
H401 C387 0.950 . S
H402 C388 0.950 . S
H403 C389 0.950 . S
H404 C391 0.950 . S
H405 C392 0.951 . S
C406 C407 1.386 . S
C406 C408 1.383 . S
C406 H422 0.951 . S
C407 C406 1.386 . S
C407 C411 1.383 1_445 S
C408 C406 1.383 . S
C408 C409 1.402 1_545 S
C408 H423 0.951 . S
C409 C408 1.402 1_565 S
C409 C410 1.375 1_455 S
C409 C412 1.482 . S
C410 C409 1.375 1_655 S
C410 C411 1.367 . S
C410 H424 0.951 . S
C411 C407 1.383 1_665 S
C411 C410 1.367 . S
C411 H425 0.950 . S
C412 C409 1.482 . S
C412 C413 1.308 . S
C412 H426 0.936 1_455 S
C413 C412 1.308 . S
C413 C414 1.479 . S
C413 H427 0.950 1_565 S
C414 C413 1.479 . S
C414 C415 1.375 1_565 S
C414 C420 1.404 1_455 S
C415 C414 1.375 1_545 S
C415 C416 1.369 . S
C415 H428 0.950 . S
C416 C415 1.369 . S
C416 C417 1.392 1_545 S
C416 H429 0.951 . S
C417 C416 1.392 1_565 S
C417 C419 1.384 1_455 S
H418 C420 0.949 . S
C419 C417 1.384 1_655 S
C419 C420 1.385 . S
C419 H421 0.950 . S
C420 C414 1.404 1_655 S
C420 H418 0.949 . S
C420 C419 1.385 . S
H421 C419 0.950 . S
H422 C406 0.951 . S
H423 C408 0.951 . S
H424 C410 0.951 . S
H425 C411 0.950 . S
H426 C412 0.936 1_655 S
H427 C413 0.950 1_545 S
H428 C415 0.950 . S
H429 C416 0.951 . S
C430 C431 1.386 . S
C430 C432 1.383 . S
C430 H446 0.951 . S
C431 C430 1.386 . S
C431 C435 1.383 . S
C432 C430 1.383 . S
C432 C433 1.402 . S
C432 H447 0.951 . S
C433 C432 1.402 . S
C433 C434 1.375 . S
C433 C436 1.481 . S
C434 C433 1.375 . S
C434 C435 1.367 . S
C434 H448 0.951 . S
C435 C431 1.383 . S
C435 C434 1.367 . S
C435 H449 0.950 . S
C436 C433 1.481 . S
C436 C437 1.297 . S
C436 H450 0.950 . S
C437 C436 1.297 . S
C437 C438 1.479 . S
C437 H451 0.950 . S
C438 C437 1.479 . S
C438 C439 1.375 . S
C438 C444 1.404 . S
C439 C438 1.375 . S
C439 C440 1.369 . S
C439 H452 0.950 . S
C440 C439 1.369 . S
C440 C441 1.392 . S
C440 H453 0.951 . S
C441 C440 1.392 . S
C441 C443 1.384 . S
H442 C444 0.949 . S
C443 C441 1.384 . S
C443 C444 1.385 . S
C443 H445 0.950 . S
C444 C438 1.404 . S
C444 H442 0.949 . S
C444 C443 1.385 . S
H445 C443 0.950 . S
H446 C430 0.951 . S
H447 C432 0.951 . S
H448 C434 0.951 . S
H449 C435 0.950 . S
H450 C436 0.950 . S
H451 C437 0.950 . S
H452 C439 0.950 . S
H453 C440 0.951 . S
C454 C455 1.386 . S
C454 C456 1.383 . S
C454 H470 0.951 . S
C455 C454 1.386 . S
C455 C459 1.383 . S
C456 C454 1.383 . S
C456 C457 1.402 . S
C456 H471 0.951 . S
C457 C456 1.402 . S
C457 C458 1.375 . S
C457 C460 1.481 . S
C458 C457 1.375 . S
C458 C459 1.367 . S
C458 H472 0.951 . S
C459 C455 1.383 . S
C459 C458 1.367 . S
C459 H473 0.950 . S
C460 C457 1.481 . S
C460 C461 1.297 . S
C460 H474 0.950 . S
C461 C460 1.297 . S
C461 C462 1.479 . S
C461 H475 0.950 . S
C462 C461 1.479 . S
C462 C463 1.375 . S
C462 C468 1.404 . S
C463 C462 1.375 . S
C463 C464 1.369 . S
C463 H476 0.950 . S
C464 C463 1.369 . S
C464 C465 1.392 . S
C464 H477 0.951 . S
C465 C464 1.392 . S
C465 C467 1.384 . S
H466 C468 0.949 . S
C467 C465 1.384 . S
C467 C468 1.385 . S
C467 H469 0.950 . S
C468 C462 1.404 . S
C468 H466 0.949 . S
C468 C467 1.385 . S
H469 C467 0.950 . S
H470 C454 0.951 . S
H471 C456 0.951 . S
H472 C458 0.951 . S
H473 C459 0.950 . S
H474 C460 0.950 . S
H475 C461 0.950 . S
H476 C463 0.950 . S
H477 C464 0.951 . S
C201 C155 1.409 . S
C191 C21 1.434 . S
C215 C19 1.410 1_556 S
C225 C119 1.397 . S
C239 C18 1.396 . S
C249 C179 1.345 . S
C263 C20 1.415 1_556 S
C273 C143 1.378 . S
C287 C44 1.430 . S
C297 C83 1.441 . S
C311 C42 1.399 . S
C321 C47 1.420 . S
C345 C107 1.384 . S
C335 C41 1.367 . S
C369 C71 1.402 . S
C359 C43 1.398 . S
C383 C16 1.486 . S
C393 C77 1.477 1_565 S
C407 C17 1.446 . S
C417 C113 1.426 1_565 S
C441 C149 1.460 . S
C431 C39 1.488 . S
C455 C40 1.448 . S
C465 C185 1.429 . S
