# Generated by pormake.
# Topology dag, (6,3)-cn, num edge types: 1
# Building blocks:
#     Node 0, Type 0, BuildingBlock: IZENUY_clean_sbu_0, # of connection points: 6
#     Node 1, Type 0, BuildingBlock: IZENUY_clean_sbu_0, # of connection points: 6
#     Node 2, Type 0, BuildingBlock: IZENUY_clean_sbu_0, # of connection points: 6
#     Node 3, Type 0, BuildingBlock: IZENUY_clean_sbu_0, # of connection points: 6
#     Node 4, Type 1, BuildingBlock: QEWDON_clean_linker_0, # of connection points: 3
#     Node 5, Type 1, BuildingBlock: QEWDON_clean_linker_0, # of connection points: 3
#     Node 6, Type 1, BuildingBlock: QEWDON_clean_linker_0, # of connection points: 3
#     Node 7, Type 1, BuildingBlock: QEWDON_clean_linker_0, # of connection points: 3
#     Node 8, Type 1, BuildingBlock: QEWDON_clean_linker_0, # of connection points: 3
#     Node 9, Type 1, BuildingBlock: QEWDON_clean_linker_0, # of connection points: 3
#     Node 10, Type 1, BuildingBlock: QEWDON_clean_linker_0, # of connection points: 3
#     Node 11, Type 1, BuildingBlock: QEWDON_clean_linker_0, # of connection points: 3
#     Edge 12, Type (0, 1), BuildingBlock: CIFDUS_clean_linker_0, # of connection points: 2
#     Edge 13, Type (0, 1), BuildingBlock: CIFDUS_clean_linker_0, # of connection points: 2
#     Edge 14, Type (0, 1), BuildingBlock: CIFDUS_clean_linker_0, # of connection points: 2
#     Edge 15, Type (0, 1), BuildingBlock: CIFDUS_clean_linker_0, # of connection points: 2
#     Edge 16, Type (0, 1), BuildingBlock: CIFDUS_clean_linker_0, # of connection points: 2
#     Edge 17, Type (0, 1), BuildingBlock: CIFDUS_clean_linker_0, # of connection points: 2
#     Edge 18, Type (0, 1), BuildingBlock: CIFDUS_clean_linker_0, # of connection points: 2
#     Edge 19, Type (0, 1), BuildingBlock: CIFDUS_clean_linker_0, # of connection points: 2
#     Edge 20, Type (0, 1), BuildingBlock: CIFDUS_clean_linker_0, # of connection points: 2
#     Edge 21, Type (0, 1), BuildingBlock: CIFDUS_clean_linker_0, # of connection points: 2
#     Edge 22, Type (0, 1), BuildingBlock: CIFDUS_clean_linker_0, # of connection points: 2
#     Edge 23, Type (0, 1), BuildingBlock: CIFDUS_clean_linker_0, # of connection points: 2
#     Edge 24, Type (0, 1), BuildingBlock: CIFDUS_clean_linker_0, # of connection points: 2
#     Edge 25, Type (0, 1), BuildingBlock: CIFDUS_clean_linker_0, # of connection points: 2
#     Edge 26, Type (0, 1), BuildingBlock: CIFDUS_clean_linker_0, # of connection points: 2
#     Edge 27, Type (0, 1), BuildingBlock: CIFDUS_clean_linker_0, # of connection points: 2
#     Edge 28, Type (0, 1), BuildingBlock: CIFDUS_clean_linker_0, # of connection points: 2
#     Edge 29, Type (0, 1), BuildingBlock: CIFDUS_clean_linker_0, # of connection points: 2
#     Edge 30, Type (0, 1), BuildingBlock: CIFDUS_clean_linker_0, # of connection points: 2
#     Edge 31, Type (0, 1), BuildingBlock: CIFDUS_clean_linker_0, # of connection points: 2
#     Edge 32, Type (0, 1), BuildingBlock: CIFDUS_clean_linker_0, # of connection points: 2
#     Edge 33, Type (0, 1), BuildingBlock: CIFDUS_clean_linker_0, # of connection points: 2
#     Edge 34, Type (0, 1), BuildingBlock: CIFDUS_clean_linker_0, # of connection points: 2
#     Edge 35, Type (0, 1), BuildingBlock: CIFDUS_clean_linker_0, # of connection points: 2
# Relax obj value: 0.042
# Max RMSD: 0.069
# Mean RMSD: 0.063
data_MOF--net-dag--node1-IZENUY_clean_sbu_0--node2-QEWDON_clean_linker_0--edge1-CIFDUS_clean_linker_0
_symmetry_space_group_name_H-M    P1
_symmetry_Int_Tables_number       1
_symmetry_cell_setting            triclinic
loop_
_symmetry_equiv_pos_as_xyz
'x, y, z'
_cell_length_a     36.409665
_cell_length_b     36.58455
_cell_length_c     33.300268
_cell_angle_alpha  90.947174
_cell_angle_beta   89.679466
_cell_angle_gamma 89.971384
loop_
_atom_site_label
_atom_site_type_symbol
_atom_site_fract_x
_atom_site_fract_y
_atom_site_fract_z
_atom_type_partial_charge
Fe0 Fe 0.21398 0.8641 0.02758 0.0
Fe1 Fe 0.13474 0.89168 0.02945 0.0
O2 O 0.1661 0.85486 0.02919 0.0
Fe3 Fe 0.14967 0.80925 0.03068 0.0
O4 O 0.18812 0.79271 0.06119 0.0
O5 O 0.22058 0.84209 0.07556 0.0
O6 O 0.21071 0.90809 0.05563 0.0
C7 C 0.18623 0.91938 0.08009 0.0
C8 C 0.20714 0.8003 0.97806 0.0
O9 O 0.15335 0.90945 0.07608 0.0
C10 C 0.10048 0.84443 0.97745 0.0
O11 O 0.20987 0.88674 0.97932 0.0
O12 O 0.16378 0.92162 0.99909 0.0
O13 O 0.17304 0.7974 0.98407 0.0
O14 O 0.22625 0.82195 0.99947 0.0
C15 C 0.10172 0.84257 0.0833 0.0
O16 O 0.11429 0.87573 0.98301 0.0
O17 O 0.10838 0.81822 1.00041 0.0
C18 C 0.18894 0.91377 0.97411 0.0
O19 O 0.0997 0.86906 0.05964 0.0
O20 O 0.12478 0.8173 0.07762 0.0
C21 C 0.2107 0.80985 0.0835 0.0
Fe22 Fe 0.68925 0.63312 0.50683 0.0
Fe23 Fe 0.63732 0.69902 0.52224 0.0
O24 O 0.64519 0.6511 0.51916 0.0
Fe25 Fe 0.60847 0.62073 0.52808 0.0
O26 O 0.63175 0.60165 0.57082 0.0
O27 O 0.68421 0.59267 0.53899 0.0
O28 O 0.7097 0.65618 0.54953 0.0
C29 C 0.70786 0.6899 0.55782 0.0
C30 C 0.64585 0.58576 0.46414 0.0
O31 O 0.68323 0.70989 0.54254 0.0
C32 C 0.57481 0.67106 0.48129 0.0
O33 O 0.70211 0.6705 0.47288 0.0
O34 O 0.65251 0.70481 0.47099 0.0
O35 O 0.6253 0.58434 0.49468 0.0
O36 O 0.67194 0.60838 0.46273 0.0
C37 C 0.59461 0.67739 0.58487 0.0
O38 O 0.59 0.69629 0.50201 0.0
O39 O 0.58374 0.63807 0.48563 0.0
C40 C 0.68266 0.69445 0.45592 0.0
O41 O 0.62108 0.69712 0.57404 0.0
O42 O 0.58383 0.65109 0.56302 0.0
C43 C 0.66274 0.58623 0.56832 0.0
Fe44 Fe 0.86524 0.1776 1.0043 0.0
Fe45 Fe 0.88306 0.09585 0.00731 0.0
O46 O 0.85039 0.13145 0.00689 0.0
Fe47 Fe 0.8028 0.12049 0.00861 0.0
O48 O 0.79576 0.1414 0.96038 0.0
O49 O 0.82624 0.19231 0.97318 0.0
O50 O 0.89054 0.16965 0.95766 0.0
C51 C 0.91461 0.14522 0.95258 0.0
C52 C 0.80763 0.18528 0.057 0.0
O53 O 0.91722 0.11906 0.9766 0.0
C54 C 0.82956 0.07269 0.06308 0.0
O55 O 0.90686 0.17067 0.0349 0.0
O56 O 0.90296 0.11329 0.05329 0.0
O57 O 0.7891 0.16263 0.03617 0.0
O58 O 0.8415 0.18936 0.05057 0.0
C59 C 0.8325 0.06581 0.95687 0.0
O60 O 0.85528 0.06571 0.03847 0.0
O61 O 0.80714 0.09833 0.05698 0.0
C62 C 0.91586 0.14502 0.05817 0.0
O63 O 0.86509 0.07659 0.96108 0.0
O64 O 0.8076 0.07636 0.98117 0.0
C65 C 0.80458 0.17359 0.95129 0.0
Fe66 Fe 0.40132 0.37769 0.51204 0.0
Fe67 Fe 0.319 0.36899 0.52804 0.0
O68 O 0.36282 0.34931 0.51965 0.0
Fe69 Fe 0.36846 0.30099 0.51975 0.0
O70 O 0.39909 0.30428 0.56273 0.0
O71 O 0.43383 0.34721 0.53688 0.0
O72 O 0.39513 0.4004 0.56041 0.0
C73 C 0.36615 0.4164 0.57194 0.0
C74 C 0.41764 0.32372 0.45811 0.0
O75 O 0.33589 0.41004 0.55462 0.0
C76 C 0.30498 0.30736 0.47711 0.0
O77 O 0.37592 0.41318 0.48598 0.0
O78 O 0.31952 0.39216 0.48004 0.0
O79 O 0.40762 0.30044 0.48383 0.0
O80 O 0.40985 0.35698 0.46321 0.0
C81 C 0.31783 0.31386 0.58264 0.0
O82 O 0.29453 0.33134 0.50275 0.0
O83 O 0.33757 0.29525 0.47723 0.0
C84 C 0.34514 0.41282 0.46861 0.0
O85 O 0.31573 0.34774 0.57676 0.0
O86 O 0.33089 0.29249 0.5559 0.0
C87 C 0.42786 0.32346 0.56329 0.0
H88 H 0.17016 0.09832 0.26994 0.0
C89 C 0.14758 0.1066 0.25106 0.0
C90 C 0.14102 0.08776 0.21469 0.0
C91 C 0.12327 0.13429 0.26436 0.0
H92 H 0.10417 0.08092 0.16475 0.0
C93 C 0.11034 0.09683 0.19168 0.0
C94 C 0.08556 0.12367 0.20493 0.0
C95 C 0.09241 0.14285 0.24085 0.0
C96 C 0.12674 0.15064 0.30521 0.0
H97 H 0.07258 0.16289 0.25166 0.0
C98 C 0.1595 0.16755 0.31826 0.0
C99 C 0.16115 0.18436 0.35666 0.0
C100 C 0.09637 0.14952 0.33141 0.0
H101 H 0.0711 0.13619 0.32231 0.0
C102 C 0.09829 0.16524 0.36969 0.0
H103 H 0.18297 0.16884 0.29817 0.0
C104 C 0.13032 0.18269 0.38221 0.0
H105 H 0.13104 0.19489 0.41207 0.0
H106 H 0.07478 0.16409 0.38967 0.0
H107 H 0.43365 0.66544 0.79281 0.0
C108 C 0.42758 0.64216 0.77344 0.0
C109 C 0.44915 0.6354 0.73897 0.0
C110 C 0.39919 0.61768 0.78362 0.0
H111 H 0.45944 0.59917 0.68862 0.0
C112 C 0.44233 0.60443 0.7149 0.0
C113 C 0.41456 0.57971 0.72469 0.0
C114 C 0.39261 0.58681 0.75865 0.0
C115 C 0.37829 0.62187 0.82191 0.0
H116 H 0.37119 0.56756 0.76646 0.0
C117 C 0.36102 0.65509 0.83327 0.0
C118 C 0.33896 0.65697 0.86824 0.0
C119 C 0.37451 0.5914 0.84683 0.0
H120 H 0.38797 0.56576 0.83923 0.0
C121 C 0.35336 0.59353 0.88176 0.0
H122 H 0.36351 0.67877 0.81432 0.0
C123 C 0.33544 0.62594 0.89225 0.0
H124 H 0.31889 0.6269 0.91941 0.0
H125 H 0.35062 0.56986 0.90062 0.0
H126 H 0.88761 0.79681 0.20618 0.0
C127 C 0.88215 0.82578 0.20334 0.0
C128 C 0.91031 0.84946 0.19092 0.0
C129 C 0.84635 0.8391 0.20993 0.0
H130 H 0.92308 0.9045 0.17383 0.0
C131 C 0.90211 0.88665 0.18581 0.0
C132 C 0.86647 0.90046 0.19216 0.0
C133 C 0.8387 0.87636 0.20437 0.0
C134 C 0.81563 0.81337 0.21586 0.0
H135 H 0.81081 0.88621 0.20834 0.0
C136 C 0.80778 0.79837 0.25366 0.0
C137 C 0.77697 0.7754 0.25856 0.0
C138 C 0.79318 0.8047 0.18298 0.0
H139 H 0.79886 0.81605 0.15374 0.0
C140 C 0.76325 0.78139 0.1875 0.0
H141 H 0.8248 0.80548 0.27922 0.0
C142 C 0.7551 0.76691 0.22496 0.0
H143 H 0.73162 0.74892 0.22766 0.0
H144 H 0.74615 0.77472 0.16193 0.0
H145 H 0.7035 0.39522 0.70727 0.0
C146 C 0.67743 0.38198 0.70122 0.0
C147 C 0.64732 0.40278 0.68849 0.0
C148 C 0.67437 0.34385 0.70463 0.0
H149 H 0.59146 0.40061 0.66753 0.0
C150 C 0.61415 0.38498 0.67944 0.0
C151 C 0.61118 0.34682 0.68117 0.0
C152 C 0.64136 0.32635 0.69416 0.0
C153 C 0.70714 0.32169 0.71328 0.0
H154 H 0.6397 0.29676 0.69446 0.0
C155 C 0.71356 0.30823 0.75197 0.0
C156 C 0.74392 0.28533 0.75885 0.0
C157 C 0.73146 0.31271 0.68183 0.0
H158 H 0.72681 0.32284 0.65189 0.0
C159 C 0.7616 0.29015 0.68864 0.0
H160 H 0.69475 0.31501 0.77633 0.0
C161 C 0.76771 0.27632 0.72683 0.0
H162 H 0.79128 0.25883 0.7315 0.0
H163 H 0.78017 0.28318 0.66419 0.0
H164 H 0.6677 0.41401 0.27653 0.0
C165 C 0.64532 0.39782 0.28839 0.0
C166 C 0.62907 0.40798 0.3252 0.0
C167 C 0.63112 0.36849 0.26532 0.0
H168 H 0.58614 0.39557 0.3677 0.0
C169 C 0.59932 0.38754 0.33961 0.0
C170 C 0.58461 0.3585 0.31693 0.0
C171 C 0.60062 0.34889 0.27971 0.0
C172 C 0.64491 0.36243 0.2238 0.0
H173 H 0.58825 0.32765 0.26118 0.0
C174 C 0.66104 0.32902 0.2113 0.0
C175 C 0.67619 0.32542 0.17238 0.0
C176 C 0.64305 0.3914 0.19669 0.0
H177 H 0.63058 0.4172 0.20563 0.0
C178 C 0.65729 0.38747 0.15795 0.0
H179 H 0.66302 0.30662 0.23208 0.0
C180 C 0.67403 0.35481 0.14592 0.0
H181 H 0.68554 0.35248 0.11589 0.0
H182 H 0.65576 0.40998 0.13733 0.0
H183 H 0.21046 0.12103 0.83454 0.0
C184 C 0.18071 0.11996 0.83415 0.0
C185 C 0.16232 0.08876 0.84818 0.0
C186 C 0.16054 0.15065 0.82202 0.0
H187 H 0.10997 0.06578 0.86364 0.0
C188 C 0.12376 0.08879 0.85009 0.0
C189 C 0.1032 0.11948 0.8389 0.0
C190 C 0.12195 0.14994 0.82394 0.0
C191 C 0.17889 0.1859 0.81391 0.0
H192 H 0.10666 0.17398 0.81536 0.0
C193 C 0.2004 0.19135 0.77915 0.0
C194 C 0.21407 0.2266 0.77024 0.0
C195 C 0.17221 0.21537 0.84043 0.0
H196 H 0.15577 0.2117 0.8673 0.0
C197 C 0.18589 0.24993 0.83223 0.0
H198 H 0.20564 0.16841 0.75896 0.0
C199 C 0.20612 0.25569 0.79731 0.0
H200 H 0.21463 0.28338 0.79122 0.0
H201 H 0.18007 0.27259 0.8526 0.0
H202 H 0.37516 0.70216 0.34744 0.0
C203 C 0.36538 0.67457 0.35217 0.0
C204 C 0.39021 0.64714 0.36309 0.0
C205 C 0.32765 0.66678 0.34913 0.0
H206 H 0.39595 0.5911 0.3804 0.0
C207 C 0.37699 0.61181 0.37022 0.0
C208 C 0.3394 0.60361 0.36787 0.0
C209 C 0.31474 0.63142 0.35749 0.0
C210 C 0.30131 0.69665 0.34197 0.0
H211 H 0.28553 0.62579 0.35646 0.0
C212 C 0.29872 0.71316 0.30416 0.0
C213 C 0.2743 0.74253 0.29857 0.0
C214 C 0.27915 0.70935 0.37385 0.0
H215 H 0.28083 0.69694 0.40311 0.0
C216 C 0.25516 0.73856 0.36844 0.0
H217 H 0.31565 0.70333 0.27938 0.0
C218 C 0.25282 0.75519 0.33113 0.0
H219 H 0.23373 0.7776 0.32749 0.0
H220 H 0.2383 0.74835 0.39324 0.0
H221 H 0.9495 0.82948 0.77712 0.0
C222 C 0.92954 0.84939 0.7879 0.0
C223 C 0.93591 0.86799 0.82427 0.0
C224 C 0.89872 0.858 0.76427 0.0
H225 H 0.91647 0.9096 0.86537 0.0
C226 C 0.91075 0.89427 0.83791 0.0
C227 C 0.88006 0.90333 0.81495 0.0
C228 C 0.87399 0.88517 0.77805 0.0
C229 C 0.8951 0.84145 0.72342 0.0
H230 H 0.85126 0.89341 0.75937 0.0
C231 C 0.86156 0.82655 0.70973 0.0
C232 C 0.85968 0.80921 0.67163 0.0
C233 C 0.92603 0.84011 0.69793 0.0
H234 H 0.95192 0.85197 0.70731 0.0
C235 C 0.92394 0.82369 0.65998 0.0
H236 H 0.83755 0.82716 0.72911 0.0
C237 C 0.89112 0.8081 0.64699 0.0
H238 H 0.89023 0.79522 0.61747 0.0
H239 H 0.94794 0.82284 0.64065 0.0
H240 H 0.16607 0.92804 0.15776 0.0
H241 H 0.22041 0.9825 0.06033 0.0
H242 H 0.21706 0.04074 0.0975 0.0
H243 H 0.18814 0.07731 0.15226 0.0
H244 H 0.13538 0.02243 0.25032 0.0
H245 H 0.14938 0.96301 0.21909 0.0
C246 C 0.17821 0.95251 0.14538 0.0
C247 C 0.1932 0.95129 0.10644 0.0
C248 C 0.17624 0.98577 0.16696 0.0
C249 C 0.20894 0.98293 0.09043 0.0
C250 C 0.20674 0.01624 0.11153 0.0
C251 C 0.18123 0.05222 0.16748 0.0
C252 C 0.16094 0.05396 0.20346 0.0
C253 C 0.18906 0.01822 0.14908 0.0
C254 C 0.15148 0.02151 0.22286 0.0
C255 C 0.15905 0.98761 0.20474 0.0
H256 H 0.60015 0.66092 0.66348 0.0
H257 H 0.53284 0.7169 0.57822 0.0
H258 H 0.48121 0.7171 0.62545 0.0
H259 H 0.45197 0.68803 0.68349 0.0
H260 H 0.51823 0.62922 0.76728 0.0
H261 H 0.57374 0.6443 0.72927 0.0
C262 C 0.57469 0.67468 0.65624 0.0
C263 C 0.57013 0.68914 0.61781 0.0
C264 C 0.54479 0.67369 0.6832 0.0
C265 C 0.53689 0.70612 0.608 0.0
C266 C 0.50728 0.70586 0.63482 0.0
C267 C 0.47884 0.68032 0.69448 0.0
C268 C 0.48126 0.65782 0.7281 0.0
C269 C 0.51035 0.68794 0.67155 0.0
C270 C 0.51596 0.64707 0.74178 0.0
C271 C 0.5476 0.65519 0.71964 0.0
H272 H 0.87432 0.05899 0.12455 0.0
H273 H 0.77232 0.02559 0.0706 0.0
H274 H 0.77199 0.96995 0.11078 0.0
H275 H 0.80657 0.92659 0.15219 0.0
H276 H 0.90822 0.96123 0.20704 0.0
H277 H 0.90275 0.02079 0.17585 0.0
C278 C 0.8514 0.04009 0.12281 0.0
C279 C 0.82327 0.0462 0.09508 0.0
C280 C 0.85176 0.00812 0.14552 0.0
C281 C 0.79389 0.02153 0.09236 0.0
C282 C 0.79399 0.98957 0.11495 0.0
C283 C 0.82692 0.94751 0.15846 0.0
C284 C 0.85827 0.939 0.18118 0.0
C285 C 0.82359 0.98188 0.14041 0.0
C286 C 0.88435 0.96662 0.18879 0.0
C287 C 0.88121 1.00076 0.17105 0.0
H288 H 0.4938 0.28968 0.55923 0.0
H289 H 0.42257 0.35204 0.63802 0.0
H290 H 0.47289 0.36101 0.68571 0.0
H291 H 0.53933 0.35884 0.6994 0.0
H292 H 0.61054 0.29612 0.62073 0.0
H293 H 0.55809 0.27856 0.57912 0.0
C294 C 0.48918 0.30407 0.58756 0.0
C295 C 0.45478 0.31995 0.59558 0.0
C296 C 0.5183 0.30926 0.6146 0.0
C297 C 0.44887 0.33916 0.63182 0.0
C298 C 0.47767 0.34455 0.65883 0.0
C299 C 0.54306 0.34049 0.67377 0.0
C300 C 0.57864 0.32893 0.66293 0.0
C301 C 0.51283 0.33084 0.6498 0.0
C302 C 0.58332 0.30513 0.62976 0.0
C303 C 0.5534 0.29539 0.60574 0.0
H304 H 0.69576 0.54129 0.42501 0.0
H305 H 0.58067 0.5687 0.43218 0.0
H306 H 0.56569 0.51737 0.38773 0.0
H307 H 0.58424 0.46183 0.35181 0.0
H308 H 0.69846 0.43137 0.3455 0.0
H309 H 0.71501 0.48664 0.38426 0.0
C310 C 0.66761 0.53635 0.41598 0.0
C311 C 0.63931 0.55868 0.43168 0.0
C312 C 0.65899 0.50591 0.39116 0.0
C313 C 0.60283 0.5518 0.42039 0.0
C314 C 0.59421 0.52237 0.39516 0.0
C315 C 0.61278 0.46723 0.35902 0.0
C316 C 0.64001 0.44225 0.34656 0.0
C317 C 0.62189 0.4987 0.38134 0.0
C318 C 0.67698 0.45012 0.35506 0.0
C319 C 0.6864 0.48167 0.37725 0.0
H320 H 0.94353 0.09274 0.90452 0.0
H321 H 0.95281 0.20718 0.93536 0.0
H322 H 0.0111 0.2105 0.89839 0.0
H323 H 0.06326 0.17832 0.86665 0.0
H324 H 0.05231 0.06433 0.8328 0.0
H325 H 0.99069 0.06339 0.86173 0.0
C326 C 0.95796 0.11858 0.90223 0.0
C327 C 0.94428 0.1496 0.92278 0.0
C328 C 0.99135 0.12019 0.88107 0.0
C329 C 0.96284 0.18303 0.91954 0.0
C330 C 0.9963 0.18481 0.89874 0.0
C331 C 0.04713 0.15351 0.86428 0.0
C332 C 0.06304 0.12117 0.84832 0.0
C333 C 0.01143 0.15321 0.88062 0.0
C334 C 0.04138 0.08934 0.84597 0.0
C335 C 1.006 0.08879 0.86236 0.0
H336 H 0.29421 0.46721 0.46866 0.0
H337 H 0.38442 0.4208 0.4008 0.0
H338 H 0.38584 0.4742 0.3577 0.0
H339 H 0.36836 0.53773 0.34674 0.0
H340 H 0.28247 0.58729 0.41874 0.0
H341 H 0.27152 0.52903 0.45186 0.0
C342 C 0.31323 0.46844 0.44353 0.0
C343 C 0.33903 0.44024 0.43753 0.0
C344 C 0.31494 0.50005 0.41997 0.0
C345 C 0.36422 0.44224 0.40562 0.0
C346 C 0.36518 0.47282 0.38119 0.0
C347 C 0.3468 0.53559 0.36921 0.0
C348 C 0.32665 0.56691 0.38067 0.0
C349 C 0.34175 0.50251 0.38921 0.0
C350 C 0.29835 0.5636 0.40928 0.0
C351 C 0.29234 0.53035 0.42855 0.0
H352 H 0.08302 0.89121 0.91819 0.0
H353 H 0.05174 0.78768 0.96838 0.0
H354 H 0.99947 0.78392 0.92266 0.0
H355 H 0.9595 0.81287 0.87197 0.0
H356 H 0.99068 0.91709 0.82408 0.0
H357 H 0.0462 0.91771 0.86503 0.0
C358 C 0.06494 0.86766 0.91903 0.0
C359 C 0.0711 0.84001 0.94705 0.0
C360 C 0.03481 0.86586 0.89302 0.0
C361 C 0.04763 0.80946 0.94723 0.0
C362 C 0.01762 0.80733 0.92116 0.0
C363 C 0.97892 0.83527 0.87018 0.0
C364 C 0.97136 0.86487 0.84521 0.0
C365 C 0.01051 0.83572 0.89443 0.0
C366 C 0.99626 0.89405 0.84316 0.0
C367 C 0.02784 0.89446 0.86663 0.0
H368 H 0.85203 0.06024 0.87879 0.0
H369 H 0.80026 1.00112 0.97451 0.0
H370 H 0.80423 0.94432 0.93469 0.0
H371 H 0.83308 0.91041 0.87791 0.0
H372 H 0.88348 0.96993 0.78173 0.0
H373 H 0.86857 0.02789 0.81572 0.0
C374 C 0.84063 0.03506 0.89027 0.0
C375 C 0.82621 0.03452 0.92945 0.0
C376 C 0.84292 1.00267 0.86717 0.0
C377 C 0.81134 1.002 0.94427 0.0
C378 C 0.81387 0.96954 0.92164 0.0
C379 C 0.83923 0.93618 0.8637 0.0
C380 C 0.85916 0.93617 0.82745 0.0
C381 C 0.831 0.96932 0.88375 0.0
C382 C 0.86765 0.96951 0.80937 0.0
C383 C 0.85959 1.00258 0.82908 0.0
H384 H 0.42479 0.34857 0.38241 0.0
H385 H 0.4778 0.28111 0.46974 0.0
H386 H 0.53449 0.2813 0.4299 0.0
H387 H 0.57166 0.30992 0.37629 0.0
H388 H 0.51796 0.37598 0.28832 0.0
H389 H 0.45874 0.36669 0.32174 0.0
C390 C 0.44843 0.33292 0.39194 0.0
C391 C 0.44726 0.31501 0.42895 0.0
C392 C 0.48092 0.33327 0.36894 0.0
C393 C 0.47797 0.29484 0.44115 0.0
C394 C 0.51053 0.29529 0.41859 0.0
C395 C 0.54668 0.32101 0.36372 0.0
C396 C 0.54888 0.34342 0.3299 0.0
C397 C 0.51275 0.31566 0.38328 0.0
C398 C 0.51663 0.35825 0.31404 0.0
C399 C 0.48289 0.35325 0.33338 0.0
H400 H 0.22165 0.97997 0.97495 0.0
H401 H 0.16418 0.90333 0.89862 0.0
H402 H 0.15556 0.95063 0.84828 0.0
H403 H 0.15541 0.01611 0.83185 0.0
H404 H 0.21208 0.09305 0.90874 0.0
H405 H 0.23099 0.0434 0.95245 0.0
C406 C 0.20858 0.97344 0.94652 0.0
C407 C 0.19398 0.9383 0.93999 0.0
C408 C 0.20326 1.00097 0.9181 0.0
C409 C 0.17624 0.93008 0.90369 0.0
C410 C 0.17098 0.95722 0.87519 0.0
C411 C 0.17288 0.02173 0.8575 0.0
C412 C 0.18221 0.05815 0.86722 0.0
C413 C 0.18308 0.9931 0.88282 0.0
C414 C 0.20481 0.06522 0.9005 0.0
C415 C 0.21527 0.03687 0.92574 0.0
H416 H 0.55421 0.63433 0.41443 0.0
H417 H 0.52275 0.72456 0.4921 0.0
H418 H 0.46372 0.72907 0.45739 0.0
H419 H 0.41788 0.70101 0.4116 0.0
H420 H 0.45 0.61003 0.33525 0.0
H421 H 0.51215 0.61243 0.36232 0.0
C422 C 0.53463 0.65536 0.42332 0.0
C423 C 0.54247 0.67869 0.45612 0.0
C424 C 0.50082 0.65749 0.40356 0.0
C425 C 0.51725 0.70624 0.46696 0.0
C426 C 0.48343 0.70866 0.44726 0.0
C427 C 0.43886 0.68255 0.40001 0.0
C428 C 0.42936 0.65515 0.37175 0.0
C429 C 0.47443 0.68361 0.4164 0.0
C430 C 0.45668 0.63114 0.35722 0.0
C431 C 0.49213 0.63239 0.37283 0.0
H432 H 0.42667 0.43964 0.61267 0.0
H433 H 0.31023 0.45921 0.60167 0.0
H434 H 0.31431 0.50995 0.64998 0.0
H435 H 0.35173 0.55124 0.69264 0.0
H436 H 0.46822 0.53203 0.70195 0.0
H437 H 0.46329 0.47878 0.6572 0.0
C438 C 0.40211 0.45486 0.6209 0.0
C439 C 0.36828 0.44574 0.60317 0.0
C440 C 0.40467 0.48426 0.64838 0.0
C441 C 0.33672 0.46569 0.61457 0.0
C442 C 0.339 0.49478 0.64224 0.0
C443 C 0.37587 0.53506 0.68518 0.0
C444 C 0.41031 0.5457 0.70024 0.0
C445 C 0.37292 0.50465 0.65895 0.0
C446 C 0.44147 0.52465 0.69024 0.0
C447 C 0.43868 0.49417 0.66473 0.0
H448 H 0.04636 0.7934 0.09053 0.0
H449 H 0.09417 0.88916 0.14606 0.0
H450 H 0.04075 0.89586 0.19043 0.0
H451 H 0.97698 0.88008 0.20592 0.0
H452 H 0.92619 0.78812 0.14559 0.0
H453 H 0.98424 0.77351 0.11177 0.0
C454 C 0.04541 0.81492 0.11332 0.0
C455 C 0.07407 0.84057 0.11554 0.0
C456 C 0.01383 0.81947 0.13757 0.0
C457 C 0.07241 0.86898 0.1443 0.0
C458 C 0.04181 0.87293 0.16942 0.0
C459 C 0.97876 0.8565 0.18582 0.0
C460 C 0.9471 0.83557 0.17794 0.0
C461 C 0.01177 0.84922 0.16519 0.0
C462 C 0.95008 0.80467 0.15241 0.0
C463 C 0.98323 0.79652 0.13266 0.0
H464 H 0.62213 0.56332 0.63215 0.0
H465 H 0.72066 0.53845 0.56423 0.0
H466 H 0.72759 0.48135 0.60026 0.0
H467 H 0.70093 0.43466 0.64415 0.0
H468 H 0.60122 0.45862 0.70992 0.0
H469 H 0.5997 0.51997 0.68194 0.0
C470 C 0.64546 0.54572 0.62557 0.0
C471 C 0.67045 0.55498 0.59494 0.0
C472 C 0.64893 0.51255 0.64588 0.0
C473 C 0.70076 0.53196 0.58733 0.0
C474 C 0.70471 0.49917 0.60787 0.0
C475 C 0.67951 0.45372 0.65327 0.0
C476 C 0.65112 0.4421 0.67889 0.0
C477 C 0.67832 0.48862 0.63625 0.0
C478 C 0.62323 0.46691 0.69003 0.0
C479 C 0.62229 0.50191 0.67392 0.0
H480 H 0.93589 0.09873 0.11671 0.0
H481 H 0.96337 0.20313 0.06611 0.0
H482 H 0.01713 0.20758 0.1098 0.0
H483 H 0.05949 0.17883 0.15851 0.0
H484 H 0.0319 0.0735 0.20618 0.0
H485 H 0.97496 0.0724 0.16771 0.0
C486 C 0.9534 0.12266 0.11536 0.0
C487 C 0.94577 0.15034 0.0878 0.0
C488 C 0.98443 0.12475 0.14001 0.0
C489 C 0.9686 0.18134 0.08695 0.0
C490 C 0.99947 0.18383 0.11182 0.0
C491 C 0.04059 0.15604 0.16075 0.0
C492 C 0.04961 0.12623 0.18488 0.0
C493 C 0.00812 0.15532 0.13788 0.0
C494 C 0.02529 0.09663 0.18761 0.0
C495 C 0.99287 0.09596 0.16561 0.0
H496 H 0.24273 0.84128 0.14925 0.0
H497 H 0.2126 0.73657 0.09779 0.0
H498 H 0.23326 0.70607 0.1583 0.0
H499 H 0.25575 0.70946 0.22801 0.0
H500 H 0.28189 0.81442 0.28097 0.0
H501 H 0.26741 0.84443 0.21782 0.0
C502 C 0.24113 0.81174 0.15106 0.0
C503 C 0.22608 0.7913 0.11899 0.0
C504 C 0.2523 0.7944 0.18638 0.0
C505 C 0.22387 0.75305 0.12207 0.0
C506 C 0.23572 0.73553 0.15668 0.0
C507 C 0.25888 0.73881 0.22534 0.0
C508 C 0.26999 0.75975 0.25887 0.0
C509 C 0.24941 0.75596 0.1893 0.0
C510 C 0.27337 0.79782 0.25543 0.0
C511 C 0.26501 0.81496 0.2194 0.0
H512 H 0.71011 0.75836 0.59303 0.0
H513 H 0.77287 0.65873 0.57811 0.0
H514 H 0.82393 0.68614 0.61429 0.0
H515 H 0.85262 0.73927 0.64661 0.0
H516 H 0.791 0.83885 0.66371 0.0
H517 H 0.73754 0.81055 0.6309 0.0
C518 C 0.73489 0.74263 0.59788 0.0
C519 C 0.73762 0.70661 0.58237 0.0
C520 C 0.76439 0.75852 0.61918 0.0
C521 C 0.76985 0.6865 0.58945 0.0
C522 C 0.79921 0.70215 0.61016 0.0
C523 C 0.82731 0.75461 0.64347 0.0
C524 C 0.82569 0.79108 0.65718 0.0
C525 C 0.797 0.73823 0.62462 0.0
C526 C 0.79274 0.81065 0.65344 0.0
C527 C 0.76233 0.79455 0.63444 0.0
H528 H 0.73577 0.18457 0.08264 0.0
H529 H 0.83731 0.24468 0.09519 0.0
H530 H 0.8061 0.2913 0.1355 0.0
H531 H 0.74902 0.3183 0.16193 0.0
H532 H 0.64734 0.25922 0.15071 0.0
H533 H 0.67945 0.20875 0.11573 0.0
C534 C 0.75114 0.20766 0.09454 0.0
C535 C 0.78881 0.21119 0.08526 0.0
C536 C 0.73297 0.23463 0.11799 0.0
C537 C 0.8083 0.24119 0.10143 0.0
C538 C 0.79047 0.26801 0.12454 0.0
C539 C 0.73417 0.29392 0.15258 0.0
C540 C 0.69608 0.29215 0.15889 0.0
C541 C 0.75273 0.26544 0.13227 0.0
C542 C 0.67681 0.26079 0.14645 0.0
C543 C 0.69512 0.23218 0.12619 0.0
H544 H 0.2754 0.25332 0.59399 0.0
H545 H 0.3293 0.34198 0.65688 0.0
H546 H 0.30588 0.3198 0.72093 0.0
H547 H 0.26848 0.27702 0.75855 0.0
H548 H 0.20663 0.19354 0.69538 0.0
H549 H 0.23598 0.21075 0.63242 0.0
C550 C 0.28208 0.26753 0.62184 0.0
C551 C 0.30397 0.29922 0.6209 0.0
C552 C 0.26734 0.25537 0.65852 0.0
C553 C 0.31226 0.3177 0.65698 0.0
C554 C 0.29898 0.30496 0.69356 0.0
C555 C 0.26076 0.26277 0.7311 0.0
C556 C 0.23474 0.23422 0.73218 0.0
C557 C 0.27608 0.27416 0.69462 0.0
C558 C 0.2267 0.21534 0.69606 0.0
C559 C 0.24319 0.22548 0.65976 0.0
H560 H 0.75275 0.69679 0.425 0.0
H561 H 0.64152 0.73178 0.40263 0.0
H562 H 0.66123 0.76083 0.34097 0.0
H563 H 0.7094 0.77567 0.29263 0.0
H564 H 0.82103 0.74223 0.3139 0.0
H565 H 0.80202 0.71387 0.37699 0.0
C566 C 0.73287 0.71072 0.40656 0.0
C567 C 0.69565 0.71192 0.41848 0.0
C568 C 0.74448 0.72788 0.37105 0.0
C569 C 0.67032 0.73045 0.39438 0.0
C570 C 0.68154 0.7471 0.35901 0.0
C571 C 0.72959 0.76211 0.31105 0.0
C572 C 0.7665 0.76074 0.29844 0.0
C573 C 0.71845 0.74589 0.347 0.0
C574 C 0.79246 0.74375 0.32303 0.0
C575 C 0.78154 0.72734 0.35895 0.0
H576 H 0.79288 0.24565 0.93459 0.0
H577 H 0.78254 0.13663 0.88443 0.0
H578 H 0.7615 0.1615 0.82107 0.0
H579 H 0.74887 0.21425 0.77859 0.0
H580 H 0.75587 0.32325 0.82876 0.0
H581 H 0.77497 0.29855 0.89351 0.0
C582 C 0.78582 0.22741 0.90982 0.0
C583 C 0.78948 0.18936 0.91416 0.0
C584 C 0.77312 0.2419 0.8735 0.0
C585 C 0.77984 0.166 0.88196 0.0
C586 C 0.76792 0.18019 0.84563 0.0
C587 C 0.75427 0.23248 0.80391 0.0
C588 C 0.75123 0.27042 0.7991 0.0
C589 C 0.76483 0.21806 0.84092 0.0
C590 C 0.75794 0.29391 0.83201 0.0
C591 C 0.76904 0.27979 0.86886 0.0
H592 H 0.30927 0.24382 0.43152 0.0
H593 H 0.23696 0.33383 0.46229 0.0
H594 H 0.18752 0.30513 0.42474 0.0
H595 H 0.1629 0.25266 0.38784 0.0
H596 H 0.23308 0.16154 0.35695 0.0
H597 H 0.28533 0.19267 0.38904 0.0
C598 C 0.28283 0.2573 0.42961 0.0
C599 C 0.27682 0.29073 0.45035 0.0
C600 C 0.25403 0.24041 0.40799 0.0
C601 C 0.24235 0.30787 0.44727 0.0
C602 C 0.21396 0.29152 0.42569 0.0
C603 C 0.18974 0.23974 0.38789 0.0
C604 C 0.19411 0.20473 0.37057 0.0
C605 C 0.21922 0.25749 0.40675 0.0
C606 C 0.22911 0.18853 0.37012 0.0
C607 C 0.25886 0.20622 0.38871 0.0
H608 H 0.27855 0.80074 0.95152 0.0
H609 H 0.17722 0.73991 0.94189 0.0
H610 H 0.20859 0.69201 0.90346 0.0
H611 H 0.26583 0.66425 0.87843 0.0
H612 H 0.36724 0.72434 0.88658 0.0
H613 H 0.33484 0.77586 0.91912 0.0
C614 C 0.26324 0.77721 0.94063 0.0
C615 C 0.22562 0.77382 0.95023 0.0
C616 C 0.2815 0.74954 0.91831 0.0
C617 C 0.20618 0.7433 0.93532 0.0
C618 C 0.22412 0.71574 0.91334 0.0
C619 C 0.28063 0.68897 0.8867 0.0
C620 C 0.31879 0.6906 0.88042 0.0
C621 C 0.26189 0.71815 0.90553 0.0
C622 C 0.33779 0.72267 0.891 0.0
C623 C 0.31931 0.75193 0.90987 0.0
loop_
_geom_bond_atom_site_label_1
_geom_bond_atom_site_label_2
_geom_bond_distance
_geom_bond_site_symmetry_2
_ccdc_geom_bond_type
Fe0 O2 1.918 . S
Fe0 O5 1.997 . S
Fe0 O6 2.002 . S
Fe0 O11 1.976 1_554 S
Fe0 O14 1.996 1_554 S
Fe1 O2 1.918 . S
Fe1 O9 1.997 . S
Fe1 O12 1.996 1_554 S
Fe1 O16 1.976 1_554 S
Fe1 O19 2.002 . S
O2 Fe0 1.918 . S
O2 Fe1 1.918 . S
O2 Fe3 1.918 . S
Fe3 O2 1.918 . S
Fe3 O4 2.002 . S
Fe3 O13 1.976 1_554 S
Fe3 O17 1.996 1_554 S
Fe3 O20 1.997 . S
O4 Fe3 2.002 . S
O4 C21 1.295 . S
O5 Fe0 1.997 . S
O5 C21 1.235 . S
O6 Fe0 2.002 . S
O6 C7 1.295 . S
C7 O6 1.295 . S
C7 O9 1.235 . S
C8 O13 1.287 . S
C8 O14 1.255 . S
O9 Fe1 1.997 . S
O9 C7 1.235 . S
C10 O16 1.287 . S
C10 O17 1.255 . S
O11 Fe0 1.976 1_556 S
O11 C18 1.287 . S
O12 Fe1 1.996 1_556 S
O12 C18 1.255 . S
O13 Fe3 1.976 1_556 S
O13 C8 1.287 . S
O14 Fe0 1.996 1_556 S
O14 C8 1.255 . S
C15 O19 1.295 . S
C15 O20 1.235 . S
O16 Fe1 1.976 1_556 S
O16 C10 1.287 . S
O17 Fe3 1.996 1_556 S
O17 C10 1.255 . S
C18 O11 1.287 . S
C18 O12 1.255 . S
O19 Fe1 2.002 . S
O19 C15 1.295 . S
O20 Fe3 1.997 . S
O20 C15 1.235 . S
C21 O4 1.295 . S
C21 O5 1.235 . S
Fe22 O24 1.918 . S
Fe22 O27 1.997 . S
Fe22 O28 2.002 . S
Fe22 O33 1.976 . S
Fe22 O36 1.996 . S
Fe23 O24 1.918 . S
Fe23 O31 1.997 . S
Fe23 O34 1.996 . S
Fe23 O38 1.976 . S
Fe23 O41 2.002 . S
O24 Fe22 1.918 . S
O24 Fe23 1.918 . S
O24 Fe25 1.918 . S
Fe25 O24 1.918 . S
Fe25 O26 2.002 . S
Fe25 O35 1.976 . S
Fe25 O39 1.996 . S
Fe25 O42 1.997 . S
O26 Fe25 2.002 . S
O26 C43 1.295 . S
O27 Fe22 1.997 . S
O27 C43 1.235 . S
O28 Fe22 2.002 . S
O28 C29 1.295 . S
C29 O28 1.295 . S
C29 O31 1.235 . S
C30 O35 1.287 . S
C30 O36 1.255 . S
O31 Fe23 1.997 . S
O31 C29 1.235 . S
C32 O38 1.287 . S
C32 O39 1.255 . S
O33 Fe22 1.976 . S
O33 C40 1.287 . S
O34 Fe23 1.996 . S
O34 C40 1.255 . S
O35 Fe25 1.976 . S
O35 C30 1.287 . S
O36 Fe22 1.996 . S
O36 C30 1.255 . S
C37 O41 1.295 . S
C37 O42 1.235 . S
O38 Fe23 1.976 . S
O38 C32 1.287 . S
O39 Fe25 1.996 . S
O39 C32 1.255 . S
C40 O33 1.287 . S
C40 O34 1.255 . S
O41 Fe23 2.002 . S
O41 C37 1.295 . S
O42 Fe25 1.997 . S
O42 C37 1.235 . S
C43 O26 1.295 . S
C43 O27 1.235 . S
Fe44 O46 1.918 . S
Fe44 O49 1.997 1_554 S
Fe44 O50 2.002 1_554 S
Fe44 O55 1.976 . S
Fe44 O58 1.996 . S
Fe45 O46 1.918 . S
Fe45 O53 1.997 1_554 S
Fe45 O56 1.996 . S
Fe45 O60 1.976 . S
Fe45 O63 2.002 1_554 S
O46 Fe44 1.918 . S
O46 Fe45 1.918 . S
O46 Fe47 1.918 . S
Fe47 O46 1.918 . S
Fe47 O48 2.002 1_554 S
Fe47 O57 1.976 . S
Fe47 O61 1.996 . S
Fe47 O64 1.996 1_554 S
O48 Fe47 2.002 1_556 S
O48 C65 1.295 . S
O49 Fe44 1.997 1_556 S
O49 C65 1.235 . S
O50 Fe44 2.002 1_556 S
O50 C51 1.295 . S
C51 O50 1.295 . S
C51 O53 1.235 . S
C52 O57 1.287 . S
C52 O58 1.255 . S
O53 Fe45 1.997 1_556 S
O53 C51 1.235 . S
C54 O60 1.287 . S
C54 O61 1.255 . S
O55 Fe44 1.976 . S
O55 C62 1.287 . S
O56 Fe45 1.996 . S
O56 C62 1.255 . S
O57 Fe47 1.976 . S
O57 C52 1.287 . S
O58 Fe44 1.996 . S
O58 C52 1.255 . S
C59 O63 1.295 . S
C59 O64 1.235 . S
O60 Fe45 1.976 . S
O60 C54 1.287 . S
O61 Fe47 1.996 . S
O61 C54 1.255 . S
C62 O55 1.287 . S
C62 O56 1.255 . S
O63 Fe45 2.002 1_556 S
O63 C59 1.295 . S
O64 Fe47 1.996 1_556 S
O64 C59 1.235 . S
C65 O48 1.295 . S
C65 O49 1.235 . S
Fe66 O68 1.918 . S
Fe66 O71 1.997 . S
Fe66 O72 2.002 . S
Fe66 O77 1.976 . S
Fe66 O80 1.996 . S
Fe67 O68 1.918 . S
Fe67 O75 1.997 . S
Fe67 O78 1.996 . S
Fe67 O82 1.976 . S
Fe67 O85 2.002 . S
O68 Fe66 1.918 . S
O68 Fe67 1.918 . S
O68 Fe69 1.918 . S
Fe69 O68 1.918 . S
Fe69 O70 2.002 . S
Fe69 O79 1.976 . S
Fe69 O83 1.996 . S
Fe69 O86 1.997 . S
O70 Fe69 2.002 . S
O70 C87 1.295 . S
O71 Fe66 1.997 . S
O71 C87 1.235 . S
O72 Fe66 2.002 . S
O72 C73 1.295 . S
C73 O72 1.295 . S
C73 O75 1.235 . S
C74 O79 1.287 . S
C74 O80 1.255 . S
O75 Fe67 1.997 . S
O75 C73 1.235 . S
C76 O82 1.287 . S
C76 O83 1.255 . S
O77 Fe66 1.976 . S
O77 C84 1.287 . S
O78 Fe67 1.996 . S
O78 C84 1.255 . S
O79 Fe69 1.976 . S
O79 C74 1.287 . S
O80 Fe66 1.996 . S
O80 C74 1.255 . S
C81 O85 1.295 . S
C81 O86 1.235 . S
O82 Fe67 1.976 . S
O82 C76 1.287 . S
O83 Fe69 1.996 . S
O83 C76 1.255 . S
C84 O77 1.287 . S
C84 O78 1.255 . S
O85 Fe67 2.002 . S
O85 C81 1.295 . S
O86 Fe69 1.997 . S
O86 C81 1.235 . S
C87 O70 1.295 . S
C87 O71 1.235 . S
H88 C89 0.949 . S
C89 H88 0.949 . S
C89 C90 1.395 . S
C89 C91 1.391 . S
C90 C89 1.395 . S
C90 C93 1.390 . S
C91 C89 1.391 . S
C91 C95 1.387 . S
C91 C96 1.491 . S
H92 C93 0.950 . S
C93 C90 1.390 . S
C93 H92 0.950 . S
C93 C94 1.378 . S
C94 C93 1.378 . S
C94 C95 1.409 . S
C95 C91 1.387 . S
C95 C94 1.409 . S
C95 H97 0.951 . S
C96 C91 1.491 . S
C96 C98 1.382 . S
C96 C100 1.404 . S
H97 C95 0.951 . S
C98 C96 1.382 . S
C98 C99 1.390 . S
C98 H103 0.949 . S
C99 C98 1.390 . S
C99 C104 1.399 . S
C100 C96 1.404 . S
C100 H101 0.950 . S
C100 C102 1.375 . S
H101 C100 0.950 . S
C102 C100 1.375 . S
C102 C104 1.382 . S
C102 H106 0.950 . S
H103 C98 0.949 . S
C104 C99 1.399 . S
C104 C102 1.382 . S
C104 H105 0.952 . S
H105 C104 0.952 . S
H106 C102 0.950 . S
H107 C108 0.949 . S
C108 H107 0.949 . S
C108 C109 1.395 . S
C108 C110 1.391 . S
C109 C108 1.395 . S
C109 C112 1.390 . S
C110 C108 1.391 . S
C110 C114 1.387 . S
C110 C115 1.491 . S
H111 C112 0.950 . S
C112 C109 1.390 . S
C112 H111 0.950 . S
C112 C113 1.378 . S
C113 C112 1.378 . S
C113 C114 1.409 . S
C114 C110 1.387 . S
C114 C113 1.409 . S
C114 H116 0.951 . S
C115 C110 1.491 . S
C115 C117 1.382 . S
C115 C119 1.404 . S
H116 C114 0.951 . S
C117 C115 1.382 . S
C117 C118 1.390 . S
C117 H122 0.949 . S
C118 C117 1.390 . S
C118 C123 1.399 . S
C119 C115 1.404 . S
C119 H120 0.950 . S
C119 C121 1.375 . S
H120 C119 0.950 . S
C121 C119 1.375 . S
C121 C123 1.382 . S
C121 H125 0.950 . S
H122 C117 0.949 . S
C123 C118 1.399 . S
C123 C121 1.382 . S
C123 H124 0.952 . S
H124 C123 0.952 . S
H125 C121 0.950 . S
H126 C127 0.949 . S
C127 H126 0.949 . S
C127 C128 1.395 . S
C127 C129 1.391 . S
C128 C127 1.395 . S
C128 C131 1.390 . S
C129 C127 1.391 . S
C129 C133 1.387 . S
C129 C134 1.491 . S
H130 C131 0.950 . S
C131 C128 1.390 . S
C131 H130 0.950 . S
C131 C132 1.378 . S
C132 C131 1.378 . S
C132 C133 1.409 . S
C133 C129 1.387 . S
C133 C132 1.409 . S
C133 H135 0.951 . S
C134 C129 1.491 . S
C134 C136 1.382 . S
C134 C138 1.404 . S
H135 C133 0.951 . S
C136 C134 1.382 . S
C136 C137 1.390 . S
C136 H141 0.949 . S
C137 C136 1.390 . S
C137 C142 1.399 . S
C138 C134 1.404 . S
C138 H139 0.950 . S
C138 C140 1.375 . S
H139 C138 0.950 . S
C140 C138 1.375 . S
C140 C142 1.382 . S
C140 H144 0.950 . S
H141 C136 0.949 . S
C142 C137 1.399 . S
C142 C140 1.382 . S
C142 H143 0.952 . S
H143 C142 0.952 . S
H144 C140 0.950 . S
H145 C146 0.949 . S
C146 H145 0.949 . S
C146 C147 1.395 . S
C146 C148 1.391 . S
C147 C146 1.395 . S
C147 C150 1.390 . S
C148 C146 1.391 . S
C148 C152 1.387 . S
C148 C153 1.491 . S
H149 C150 0.950 . S
C150 C147 1.390 . S
C150 H149 0.950 . S
C150 C151 1.378 . S
C151 C150 1.378 . S
C151 C152 1.409 . S
C152 C148 1.387 . S
C152 C151 1.409 . S
C152 H154 0.951 . S
C153 C148 1.491 . S
C153 C155 1.382 . S
C153 C157 1.404 . S
H154 C152 0.951 . S
C155 C153 1.382 . S
C155 C156 1.390 . S
C155 H160 0.949 . S
C156 C155 1.390 . S
C156 C161 1.399 . S
C157 C153 1.404 . S
C157 H158 0.950 . S
C157 C159 1.375 . S
H158 C157 0.950 . S
C159 C157 1.375 . S
C159 C161 1.382 . S
C159 H163 0.950 . S
H160 C155 0.949 . S
C161 C156 1.399 . S
C161 C159 1.382 . S
C161 H162 0.952 . S
H162 C161 0.952 . S
H163 C159 0.950 . S
H164 C165 0.949 . S
C165 H164 0.949 . S
C165 C166 1.395 . S
C165 C167 1.391 . S
C166 C165 1.395 . S
C166 C169 1.390 . S
C167 C165 1.391 . S
C167 C171 1.387 . S
C167 C172 1.491 . S
H168 C169 0.950 . S
C169 C166 1.390 . S
C169 H168 0.950 . S
C169 C170 1.378 . S
C170 C169 1.378 . S
C170 C171 1.409 . S
C171 C167 1.387 . S
C171 C170 1.409 . S
C171 H173 0.951 . S
C172 C167 1.491 . S
C172 C174 1.382 . S
C172 C176 1.404 . S
H173 C171 0.951 . S
C174 C172 1.382 . S
C174 C175 1.390 . S
C174 H179 0.949 . S
C175 C174 1.390 . S
C175 C180 1.399 . S
C176 C172 1.404 . S
C176 H177 0.950 . S
C176 C178 1.375 . S
H177 C176 0.950 . S
C178 C176 1.375 . S
C178 C180 1.382 . S
C178 H182 0.950 . S
H179 C174 0.949 . S
C180 C175 1.399 . S
C180 C178 1.382 . S
C180 H181 0.952 . S
H181 C180 0.952 . S
H182 C178 0.950 . S
H183 C184 0.949 . S
C184 H183 0.949 . S
C184 C185 1.395 . S
C184 C186 1.391 . S
C185 C184 1.395 . S
C185 C188 1.390 . S
C186 C184 1.391 . S
C186 C190 1.387 . S
C186 C191 1.491 . S
H187 C188 0.950 . S
C188 C185 1.390 . S
C188 H187 0.950 . S
C188 C189 1.378 . S
C189 C188 1.378 . S
C189 C190 1.409 . S
C190 C186 1.387 . S
C190 C189 1.409 . S
C190 H192 0.951 . S
C191 C186 1.491 . S
C191 C193 1.382 . S
C191 C195 1.404 . S
H192 C190 0.951 . S
C193 C191 1.382 . S
C193 C194 1.390 . S
C193 H198 0.949 . S
C194 C193 1.390 . S
C194 C199 1.399 . S
C195 C191 1.404 . S
C195 H196 0.950 . S
C195 C197 1.375 . S
H196 C195 0.950 . S
C197 C195 1.375 . S
C197 C199 1.382 . S
C197 H201 0.950 . S
H198 C193 0.949 . S
C199 C194 1.399 . S
C199 C197 1.382 . S
C199 H200 0.952 . S
H200 C199 0.952 . S
H201 C197 0.950 . S
H202 C203 0.949 . S
C203 H202 0.949 . S
C203 C204 1.395 . S
C203 C205 1.391 . S
C204 C203 1.395 . S
C204 C207 1.390 . S
C205 C203 1.391 . S
C205 C209 1.387 . S
C205 C210 1.491 . S
H206 C207 0.950 . S
C207 C204 1.390 . S
C207 H206 0.950 . S
C207 C208 1.378 . S
C208 C207 1.378 . S
C208 C209 1.409 . S
C209 C205 1.387 . S
C209 C208 1.409 . S
C209 H211 0.951 . S
C210 C205 1.491 . S
C210 C212 1.382 . S
C210 C214 1.404 . S
H211 C209 0.951 . S
C212 C210 1.382 . S
C212 C213 1.390 . S
C212 H217 0.949 . S
C213 C212 1.390 . S
C213 C218 1.399 . S
C214 C210 1.404 . S
C214 H215 0.950 . S
C214 C216 1.375 . S
H215 C214 0.950 . S
C216 C214 1.375 . S
C216 C218 1.382 . S
C216 H220 0.950 . S
H217 C212 0.949 . S
C218 C213 1.399 . S
C218 C216 1.382 . S
C218 H219 0.952 . S
H219 C218 0.952 . S
H220 C216 0.950 . S
H221 C222 0.949 . S
C222 H221 0.949 . S
C222 C223 1.395 . S
C222 C224 1.391 . S
C223 C222 1.395 . S
C223 C226 1.390 . S
C224 C222 1.391 . S
C224 C228 1.387 . S
C224 C229 1.491 . S
H225 C226 0.950 . S
C226 C223 1.390 . S
C226 H225 0.950 . S
C226 C227 1.378 . S
C227 C226 1.378 . S
C227 C228 1.409 . S
C228 C224 1.387 . S
C228 C227 1.409 . S
C228 H230 0.951 . S
C229 C224 1.491 . S
C229 C231 1.382 . S
C229 C233 1.404 . S
H230 C228 0.951 . S
C231 C229 1.382 . S
C231 C232 1.390 . S
C231 H236 0.949 . S
C232 C231 1.390 . S
C232 C237 1.399 . S
C233 C229 1.404 . S
C233 H234 0.950 . S
C233 C235 1.375 . S
H234 C233 0.950 . S
C235 C233 1.375 . S
C235 C237 1.382 . S
C235 H239 0.950 . S
H236 C231 0.949 . S
C237 C232 1.399 . S
C237 C235 1.382 . S
C237 H238 0.952 . S
H238 C237 0.952 . S
H239 C235 0.950 . S
H240 C246 0.930 . S
H241 C249 0.930 . S
H242 C250 0.930 . S
H243 C251 0.930 . S
H244 C254 0.930 . S
H245 C255 0.930 1_565 S
C246 H240 0.930 . S
C246 C247 1.355 . S
C246 C248 1.415 1_565 S
C247 C246 1.355 . S
C247 C249 1.419 . S
C248 C246 1.415 1_545 S
C248 C253 1.425 . S
C248 C255 1.409 . S
C249 H241 0.930 . S
C249 C247 1.419 . S
C249 C250 1.362 1_565 S
C250 H242 0.930 . S
C250 C249 1.362 1_545 S
C250 C253 1.409 . S
C251 H243 0.930 . S
C251 C252 1.355 . S
C251 C253 1.415 . S
C252 C251 1.355 . S
C252 C254 1.419 . S
C253 C248 1.425 . S
C253 C250 1.409 . S
C253 C251 1.415 . S
C254 H244 0.930 . S
C254 C252 1.419 . S
C254 C255 1.362 . S
C255 H245 0.930 1_545 S
C255 C248 1.409 . S
C255 C254 1.362 . S
H256 C262 0.930 . S
H257 C265 0.930 . S
H258 C266 0.930 . S
H259 C267 0.930 . S
H260 C270 0.930 . S
H261 C271 0.930 . S
C262 H256 0.930 . S
C262 C263 1.355 . S
C262 C264 1.415 . S
C263 C262 1.355 . S
C263 C265 1.419 . S
C264 C262 1.415 . S
C264 C269 1.425 . S
C264 C271 1.409 . S
C265 H257 0.930 . S
C265 C263 1.419 . S
C265 C266 1.362 . S
C266 H258 0.930 . S
C266 C265 1.362 . S
C266 C269 1.409 . S
C267 H259 0.930 . S
C267 C268 1.355 . S
C267 C269 1.415 . S
C268 C267 1.355 . S
C268 C270 1.419 . S
C269 C264 1.425 . S
C269 C266 1.409 . S
C269 C267 1.415 . S
C270 H260 0.930 . S
C270 C268 1.419 . S
C270 C271 1.362 . S
C271 H261 0.930 . S
C271 C264 1.409 . S
C271 C270 1.362 . S
H272 C278 0.930 . S
H273 C281 0.930 . S
H274 C282 0.930 . S
H275 C283 0.930 . S
H276 C286 0.930 . S
H277 C287 0.951 . S
C278 H272 0.930 . S
C278 C279 1.355 . S
C278 C280 1.415 1_545 S
C279 C278 1.355 . S
C279 C281 1.419 1_545 S
C280 C278 1.415 1_565 S
C280 C285 1.425 . S
C280 C287 1.409 . S
C281 H273 0.930 . S
C281 C279 1.419 1_565 S
C281 C282 1.362 . S
C282 H274 0.930 . S
C282 C281 1.362 . S
C282 C285 1.409 . S
C283 H275 0.930 . S
C283 C284 1.355 . S
C283 C285 1.415 . S
C284 C283 1.355 . S
C284 C286 1.419 . S
C285 C280 1.425 . S
C285 C282 1.409 . S
C285 C283 1.415 . S
C286 H276 0.930 . S
C286 C284 1.419 . S
C286 C287 1.362 . S
C287 H277 0.951 . S
C287 C280 1.409 . S
C287 C286 1.362 . S
H288 C294 0.930 . S
H289 C297 0.930 . S
H290 C298 0.930 . S
H291 C299 0.930 . S
H292 C302 0.930 . S
H293 C303 0.930 . S
C294 H288 0.930 . S
C294 C295 1.355 . S
C294 C296 1.415 . S
C295 C294 1.355 . S
C295 C297 1.419 . S
C296 C294 1.415 . S
C296 C301 1.425 . S
C296 C303 1.409 . S
C297 H289 0.930 . S
C297 C295 1.419 . S
C297 C298 1.362 . S
C298 H290 0.930 . S
C298 C297 1.362 . S
C298 C301 1.409 . S
C299 H291 0.930 . S
C299 C300 1.355 . S
C299 C301 1.415 . S
C300 C299 1.355 . S
C300 C302 1.419 . S
C301 C296 1.425 . S
C301 C298 1.409 . S
C301 C299 1.415 . S
C302 H292 0.930 . S
C302 C300 1.419 . S
C302 C303 1.362 . S
C303 H293 0.930 . S
C303 C296 1.409 . S
C303 C302 1.362 . S
H304 C310 0.930 . S
H305 C313 0.930 . S
H306 C314 0.930 . S
H307 C315 0.930 . S
H308 C318 0.930 . S
H309 C319 0.930 . S
C310 H304 0.930 . S
C310 C311 1.355 . S
C310 C312 1.415 . S
C311 C310 1.355 . S
C311 C313 1.419 . S
C312 C310 1.415 . S
C312 C317 1.425 . S
C312 C319 1.409 . S
C313 H305 0.930 . S
C313 C311 1.419 . S
C313 C314 1.362 . S
C314 H306 0.930 . S
C314 C313 1.362 . S
C314 C317 1.409 . S
C315 H307 0.930 . S
C315 C316 1.355 . S
C315 C317 1.415 . S
C316 C315 1.355 . S
C316 C318 1.419 . S
C317 C312 1.425 . S
C317 C314 1.409 . S
C317 C315 1.415 . S
C318 H308 0.930 . S
C318 C316 1.419 . S
C318 C319 1.362 . S
C319 H309 0.930 . S
C319 C312 1.409 . S
C319 C318 1.362 . S
H320 C326 0.930 1_655 S
H321 C329 0.930 . S
H322 C330 0.930 . S
H323 C331 0.930 . S
H324 C334 0.930 . S
H325 C335 0.930 . S
C326 H320 0.930 1_455 S
C326 C327 1.355 1_455 S
C326 C328 1.415 . S
C327 C326 1.355 1_655 S
C327 C329 1.419 . S
C328 C326 1.415 . S
C328 C333 1.425 . S
C328 C335 1.409 . S
C329 H321 0.930 . S
C329 C327 1.419 . S
C329 C330 1.362 1_655 S
C330 H322 0.930 . S
C330 C329 1.362 1_455 S
C330 C333 1.409 . S
C331 H323 0.930 . S
C331 C332 1.355 . S
C331 C333 1.415 . S
C332 C331 1.355 . S
C332 C334 1.419 . S
C333 C328 1.425 . S
C333 C330 1.409 . S
C333 C331 1.415 . S
C334 H324 0.930 . S
C334 C332 1.419 . S
C334 C335 1.362 . S
C335 H325 0.930 . S
C335 C328 1.409 . S
C335 C334 1.362 . S
H336 C342 0.930 . S
H337 C345 0.930 . S
H338 C346 0.930 . S
H339 C347 0.930 . S
H340 C350 0.930 . S
H341 C351 0.930 . S
C342 H336 0.930 . S
C342 C343 1.355 . S
C342 C344 1.415 . S
C343 C342 1.355 . S
C343 C345 1.419 . S
C344 C342 1.415 . S
C344 C349 1.425 . S
C344 C351 1.409 . S
C345 H337 0.930 . S
C345 C343 1.419 . S
C345 C346 1.362 . S
C346 H338 0.930 . S
C346 C345 1.362 . S
C346 C349 1.409 . S
C347 H339 0.930 . S
C347 C348 1.355 . S
C347 C349 1.415 . S
C348 C347 1.355 . S
C348 C350 1.419 . S
C349 C344 1.425 . S
C349 C346 1.409 . S
C349 C347 1.415 . S
C350 H340 0.930 . S
C350 C348 1.419 . S
C350 C351 1.362 . S
C351 H341 0.930 . S
C351 C344 1.409 . S
C351 C350 1.362 . S
H352 C358 0.930 . S
H353 C361 0.930 . S
H354 C362 0.930 . S
H355 C363 0.930 . S
H356 C366 0.930 . S
H357 C367 0.930 1_455 S
C358 H352 0.930 . S
C358 C359 1.355 . S
C358 C360 1.406 1_455 S
C359 C358 1.355 . S
C359 C361 1.419 . S
C360 C358 1.406 1_655 S
C360 C365 1.434 . S
C360 C367 1.410 . S
C361 H353 0.930 . S
C361 C359 1.419 . S
C361 C362 1.362 1_455 S
C362 H354 0.930 . S
C362 C361 1.362 1_655 S
C362 C365 1.409 . S
C363 H355 0.930 . S
C363 C364 1.355 . S
C363 C365 1.415 . S
C364 C363 1.355 . S
C364 C366 1.419 . S
C365 C360 1.434 . S
C365 C362 1.409 . S
C365 C363 1.415 . S
C366 H356 0.930 . S
C366 C364 1.419 . S
C366 C367 1.362 . S
C367 H357 0.930 1_655 S
C367 C360 1.410 . S
C367 C366 1.362 . S
H368 C374 0.930 . S
H369 C377 0.930 . S
H370 C378 0.930 . S
H371 C379 0.930 . S
H372 C382 0.930 . S
H373 C383 0.930 . S
C374 H368 0.930 . S
C374 C375 1.355 . S
C374 C376 1.415 1_545 S
C375 C374 1.355 . S
C375 C377 1.419 1_545 S
C376 C374 1.415 1_565 S
C376 C381 1.425 . S
C376 C383 1.409 . S
C377 H369 0.930 . S
C377 C375 1.419 1_565 S
C377 C378 1.362 . S
C378 H370 0.930 . S
C378 C377 1.362 . S
C378 C381 1.409 . S
C379 H371 0.930 . S
C379 C380 1.355 . S
C379 C381 1.415 . S
C380 C379 1.355 . S
C380 C382 1.419 . S
C381 C376 1.425 . S
C381 C378 1.409 . S
C381 C379 1.415 . S
C382 H372 0.930 . S
C382 C380 1.419 . S
C382 C383 1.362 . S
C383 H373 0.930 . S
C383 C376 1.409 . S
C383 C382 1.362 . S
H384 C390 0.930 . S
H385 C393 0.930 . S
H386 C394 0.930 . S
H387 C395 0.930 . S
H388 C398 0.930 . S
H389 C399 0.930 . S
C390 H384 0.930 . S
C390 C391 1.355 . S
C390 C392 1.415 . S
C391 C390 1.355 . S
C391 C393 1.419 . S
C392 C390 1.415 . S
C392 C397 1.425 . S
C392 C399 1.409 . S
C393 H385 0.930 . S
C393 C391 1.419 . S
C393 C394 1.362 . S
C394 H386 0.930 . S
C394 C393 1.362 . S
C394 C397 1.409 . S
C395 H387 0.930 . S
C395 C396 1.355 . S
C395 C397 1.415 . S
C396 C395 1.355 . S
C396 C398 1.419 . S
C397 C392 1.425 . S
C397 C394 1.409 . S
C397 C395 1.415 . S
C398 H388 0.930 . S
C398 C396 1.419 . S
C398 C399 1.362 . S
C399 H389 0.930 . S
C399 C392 1.409 . S
C399 C398 1.362 . S
H400 C406 0.930 . S
H401 C409 0.930 . S
H402 C410 0.930 . S
H403 C411 0.930 . S
H404 C414 0.930 . S
H405 C415 0.930 . S
C406 H400 0.930 . S
C406 C407 1.355 1_545 S
C406 C408 1.415 . S
C407 C406 1.355 1_565 S
C407 C409 1.419 . S
C408 C406 1.415 . S
C408 C413 1.425 . S
C408 C415 1.409 . S
C409 H401 0.930 . S
C409 C407 1.419 . S
C409 C410 1.362 . S
C410 H402 0.930 . S
C410 C409 1.362 . S
C410 C413 1.409 1_565 S
C411 H403 0.930 . S
C411 C412 1.355 . S
C411 C413 1.415 . S
C412 C411 1.355 . S
C412 C414 1.419 . S
C413 C408 1.425 . S
C413 C410 1.409 1_545 S
C413 C411 1.415 . S
C414 H404 0.930 . S
C414 C412 1.419 . S
C414 C415 1.362 . S
C415 H405 0.930 . S
C415 C408 1.409 . S
C415 C414 1.362 . S
H416 C422 0.930 . S
H417 C425 0.930 . S
H418 C426 0.930 . S
H419 C427 0.930 . S
H420 C430 0.930 . S
H421 C431 0.930 . S
C422 H416 0.930 . S
C422 C423 1.355 . S
C422 C424 1.415 . S
C423 C422 1.355 . S
C423 C425 1.419 . S
C424 C422 1.415 . S
C424 C429 1.425 . S
C424 C431 1.409 . S
C425 H417 0.930 . S
C425 C423 1.419 . S
C425 C426 1.362 . S
C426 H418 0.930 . S
C426 C425 1.362 . S
C426 C429 1.409 . S
C427 H419 0.930 . S
C427 C428 1.355 . S
C427 C429 1.415 . S
C428 C427 1.355 . S
C428 C430 1.419 . S
C429 C424 1.425 . S
C429 C426 1.409 . S
C429 C427 1.415 . S
C430 H420 0.930 . S
C430 C428 1.419 . S
C430 C431 1.362 . S
C431 H421 0.930 . S
C431 C424 1.409 . S
C431 C430 1.362 . S
H432 C438 0.930 . S
H433 C441 0.930 . S
H434 C442 0.930 . S
H435 C443 0.930 . S
H436 C446 0.930 . S
H437 C447 0.930 . S
C438 H432 0.930 . S
C438 C439 1.355 . S
C438 C440 1.415 . S
C439 C438 1.355 . S
C439 C441 1.419 . S
C440 C438 1.415 . S
C440 C445 1.425 . S
C440 C447 1.409 . S
C441 H433 0.930 . S
C441 C439 1.419 . S
C441 C442 1.362 . S
C442 H434 0.930 . S
C442 C441 1.362 . S
C442 C445 1.409 . S
C443 H435 0.930 . S
C443 C444 1.355 . S
C443 C445 1.415 . S
C444 C443 1.355 . S
C444 C446 1.419 . S
C445 C440 1.425 . S
C445 C442 1.409 . S
C445 C443 1.415 . S
C446 H436 0.930 . S
C446 C444 1.419 . S
C446 C447 1.362 . S
C447 H437 0.930 . S
C447 C440 1.409 . S
C447 C446 1.362 . S
H448 C454 0.930 . S
H449 C457 0.930 1_455 S
H450 C458 0.930 . S
H451 C459 0.930 . S
H452 C462 0.930 . S
H453 C463 0.930 . S
C454 H448 0.930 . S
C454 C455 1.355 . S
C454 C456 1.415 1_455 S
C455 C454 1.355 . S
C455 C457 1.419 1_455 S
C456 C454 1.415 1_655 S
C456 C461 1.425 . S
C456 C463 1.409 . S
C457 H449 0.930 1_655 S
C457 C455 1.419 1_655 S
C457 C458 1.362 . S
C458 H450 0.930 . S
C458 C457 1.362 . S
C458 C461 1.409 . S
C459 H451 0.930 . S
C459 C460 1.355 . S
C459 C461 1.415 . S
C460 C459 1.355 . S
C460 C462 1.419 . S
C461 C456 1.425 . S
C461 C458 1.409 . S
C461 C459 1.415 . S
C462 H452 0.930 . S
C462 C460 1.419 . S
C462 C463 1.362 . S
C463 H453 0.930 . S
C463 C456 1.409 . S
C463 C462 1.362 . S
H464 C470 0.930 . S
H465 C473 0.930 . S
H466 C474 0.930 . S
H467 C475 0.930 . S
H468 C478 0.930 . S
H469 C479 0.930 . S
C470 H464 0.930 . S
C470 C471 1.355 . S
C470 C472 1.415 . S
C471 C470 1.355 . S
C471 C473 1.419 . S
C472 C470 1.415 . S
C472 C477 1.425 . S
C472 C479 1.409 . S
C473 H465 0.930 . S
C473 C471 1.419 . S
C473 C474 1.362 . S
C474 H466 0.930 . S
C474 C473 1.362 . S
C474 C477 1.409 . S
C475 H467 0.930 . S
C475 C476 1.355 . S
C475 C477 1.415 . S
C476 C475 1.355 . S
C476 C478 1.419 . S
C477 C472 1.425 . S
C477 C474 1.409 . S
C477 C475 1.415 . S
C478 H468 0.930 . S
C478 C476 1.419 . S
C478 C479 1.362 . S
C479 H469 0.930 . S
C479 C472 1.409 . S
C479 C478 1.362 . S
H480 C486 0.930 . S
H481 C489 0.930 . S
H482 C490 0.930 . S
H483 C491 0.930 . S
H484 C494 0.930 . S
H485 C495 0.930 1_655 S
C486 H480 0.930 . S
C486 C487 1.355 . S
C486 C488 1.415 1_655 S
C487 C486 1.355 . S
C487 C489 1.419 . S
C488 C486 1.415 1_455 S
C488 C493 1.425 . S
C488 C495 1.409 . S
C489 H481 0.930 . S
C489 C487 1.419 . S
C489 C490 1.362 1_655 S
C490 H482 0.930 . S
C490 C489 1.362 1_455 S
C490 C493 1.409 . S
C491 H483 0.930 . S
C491 C492 1.355 . S
C491 C493 1.415 . S
C492 C491 1.355 . S
C492 C494 1.419 . S
C493 C488 1.425 . S
C493 C490 1.409 . S
C493 C491 1.415 . S
C494 H484 0.930 . S
C494 C492 1.419 . S
C494 C495 1.362 . S
C495 H485 0.930 1_455 S
C495 C488 1.409 . S
C495 C494 1.362 . S
H496 C502 0.930 . S
H497 C505 0.930 . S
H498 C506 0.930 . S
H499 C507 0.930 . S
H500 C510 0.930 . S
H501 C511 0.930 . S
C502 H496 0.930 . S
C502 C503 1.355 . S
C502 C504 1.415 . S
C503 C502 1.355 . S
C503 C505 1.419 . S
C504 C502 1.415 . S
C504 C509 1.425 . S
C504 C511 1.409 . S
C505 H497 0.930 . S
C505 C503 1.419 . S
C505 C506 1.362 . S
C506 H498 0.930 . S
C506 C505 1.362 . S
C506 C509 1.409 . S
C507 H499 0.930 . S
C507 C508 1.355 . S
C507 C509 1.415 . S
C508 C507 1.355 . S
C508 C510 1.419 . S
C509 C504 1.425 . S
C509 C506 1.409 . S
C509 C507 1.415 . S
C510 H500 0.930 . S
C510 C508 1.419 . S
C510 C511 1.362 . S
C511 H501 0.930 . S
C511 C504 1.409 . S
C511 C510 1.362 . S
H512 C518 0.930 . S
H513 C521 0.930 . S
H514 C522 0.930 . S
H515 C523 0.930 . S
H516 C526 0.930 . S
H517 C527 0.930 . S
C518 H512 0.930 . S
C518 C519 1.355 . S
C518 C520 1.415 . S
C519 C518 1.355 . S
C519 C521 1.419 . S
C520 C518 1.415 . S
C520 C525 1.425 . S
C520 C527 1.409 . S
C521 H513 0.930 . S
C521 C519 1.419 . S
C521 C522 1.362 . S
C522 H514 0.930 . S
C522 C521 1.362 . S
C522 C525 1.409 . S
C523 H515 0.930 . S
C523 C524 1.355 . S
C523 C525 1.415 . S
C524 C523 1.355 . S
C524 C526 1.419 . S
C525 C520 1.425 . S
C525 C522 1.409 . S
C525 C523 1.415 . S
C526 H516 0.930 . S
C526 C524 1.419 . S
C526 C527 1.362 . S
C527 H517 0.930 . S
C527 C520 1.409 . S
C527 C526 1.362 . S
H528 C534 0.930 . S
H529 C537 0.930 . S
H530 C538 0.930 . S
H531 C539 0.930 . S
H532 C542 0.930 . S
H533 C543 0.930 . S
C534 H528 0.930 . S
C534 C535 1.355 . S
C534 C536 1.415 . S
C535 C534 1.355 . S
C535 C537 1.419 . S
C536 C534 1.415 . S
C536 C541 1.425 . S
C536 C543 1.409 . S
C537 H529 0.930 . S
C537 C535 1.419 . S
C537 C538 1.362 . S
C538 H530 0.930 . S
C538 C537 1.362 . S
C538 C541 1.409 . S
C539 H531 0.930 . S
C539 C540 1.355 . S
C539 C541 1.415 . S
C540 C539 1.355 . S
C540 C542 1.419 . S
C541 C536 1.425 . S
C541 C538 1.409 . S
C541 C539 1.415 . S
C542 H532 0.930 . S
C542 C540 1.419 . S
C542 C543 1.362 . S
C543 H533 0.930 . S
C543 C536 1.409 . S
C543 C542 1.362 . S
H544 C550 0.930 . S
H545 C553 0.930 . S
H546 C554 0.930 . S
H547 C555 0.930 . S
H548 C558 0.930 . S
H549 C559 0.930 . S
C550 H544 0.930 . S
C550 C551 1.355 . S
C550 C552 1.415 . S
C551 C550 1.355 . S
C551 C553 1.419 . S
C552 C550 1.415 . S
C552 C557 1.425 . S
C552 C559 1.409 . S
C553 H545 0.930 . S
C553 C551 1.419 . S
C553 C554 1.362 . S
C554 H546 0.930 . S
C554 C553 1.362 . S
C554 C557 1.409 . S
C555 H547 0.930 . S
C555 C556 1.355 . S
C555 C557 1.415 . S
C556 C555 1.355 . S
C556 C558 1.419 . S
C557 C552 1.425 . S
C557 C554 1.409 . S
C557 C555 1.415 . S
C558 H548 0.930 . S
C558 C556 1.419 . S
C558 C559 1.362 . S
C559 H549 0.930 . S
C559 C552 1.409 . S
C559 C558 1.362 . S
H560 C566 0.930 . S
H561 C569 0.930 . S
H562 C570 0.930 . S
H563 C571 0.930 . S
H564 C574 0.930 . S
H565 C575 0.930 . S
C566 H560 0.930 . S
C566 C567 1.355 . S
C566 C568 1.415 . S
C567 C566 1.355 . S
C567 C569 1.419 . S
C568 C566 1.415 . S
C568 C573 1.425 . S
C568 C575 1.409 . S
C569 H561 0.930 . S
C569 C567 1.419 . S
C569 C570 1.362 . S
C570 H562 0.930 . S
C570 C569 1.362 . S
C570 C573 1.409 . S
C571 H563 0.930 . S
C571 C572 1.355 . S
C571 C573 1.415 . S
C572 C571 1.355 . S
C572 C574 1.419 . S
C573 C568 1.425 . S
C573 C570 1.409 . S
C573 C571 1.415 . S
C574 H564 0.930 . S
C574 C572 1.419 . S
C574 C575 1.362 . S
C575 H565 0.930 . S
C575 C568 1.409 . S
C575 C574 1.362 . S
H576 C582 0.930 . S
H577 C585 0.930 . S
H578 C586 0.930 . S
H579 C587 0.930 . S
H580 C590 0.930 . S
H581 C591 0.930 . S
C582 H576 0.930 . S
C582 C583 1.355 . S
C582 C584 1.415 . S
C583 C582 1.355 . S
C583 C585 1.419 . S
C584 C582 1.415 . S
C584 C589 1.425 . S
C584 C591 1.409 . S
C585 H577 0.930 . S
C585 C583 1.419 . S
C585 C586 1.362 . S
C586 H578 0.930 . S
C586 C585 1.362 . S
C586 C589 1.409 . S
C587 H579 0.930 . S
C587 C588 1.355 . S
C587 C589 1.415 . S
C588 C587 1.355 . S
C588 C590 1.419 . S
C589 C584 1.425 . S
C589 C586 1.409 . S
C589 C587 1.415 . S
C590 H580 0.930 . S
C590 C588 1.419 . S
C590 C591 1.362 . S
C591 H581 0.930 . S
C591 C584 1.409 . S
C591 C590 1.362 . S
H592 C598 0.930 . S
H593 C601 0.930 . S
H594 C602 0.930 . S
H595 C603 0.930 . S
H596 C606 0.930 . S
H597 C607 0.930 . S
C598 H592 0.930 . S
C598 C599 1.355 . S
C598 C600 1.415 . S
C599 C598 1.355 . S
C599 C601 1.419 . S
C600 C598 1.415 . S
C600 C605 1.425 . S
C600 C607 1.409 . S
C601 H593 0.930 . S
C601 C599 1.419 . S
C601 C602 1.362 . S
C602 H594 0.930 . S
C602 C601 1.362 . S
C602 C605 1.409 . S
C603 H595 0.930 . S
C603 C604 1.355 . S
C603 C605 1.415 . S
C604 C603 1.355 . S
C604 C606 1.419 . S
C605 C600 1.425 . S
C605 C602 1.409 . S
C605 C603 1.415 . S
C606 H596 0.930 . S
C606 C604 1.419 . S
C606 C607 1.362 . S
C607 H597 0.930 . S
C607 C600 1.409 . S
C607 C606 1.362 . S
H608 C614 0.930 . S
H609 C617 0.930 . S
H610 C618 0.930 . S
H611 C619 0.930 . S
H612 C622 0.930 . S
H613 C623 0.930 . S
C614 H608 0.930 . S
C614 C615 1.355 . S
C614 C616 1.415 . S
C615 C614 1.355 . S
C615 C617 1.419 . S
C616 C614 1.415 . S
C616 C621 1.425 . S
C616 C623 1.409 . S
C617 H609 0.930 . S
C617 C615 1.419 . S
C617 C618 1.362 . S
C618 H610 0.930 . S
C618 C617 1.362 . S
C618 C621 1.409 . S
C619 H611 0.930 . S
C619 C620 1.355 . S
C619 C621 1.415 . S
C620 C619 1.355 . S
C620 C622 1.419 . S
C621 C616 1.425 . S
C621 C618 1.409 . S
C621 C619 1.415 . S
C622 H612 0.930 . S
C622 C620 1.419 . S
C622 C623 1.362 . S
C623 H613 0.930 . S
C623 C616 1.409 . S
C623 C622 1.362 . S
C247 C7 1.469 . S
C252 C90 1.422 . S
C263 C37 1.502 . S
C268 C109 1.391 . S
C279 C54 1.219 . S
C284 C132 1.233 . S
C300 C151 1.238 . S
C295 C87 1.275 . S
C316 C166 1.341 . S
C311 C30 1.463 . S
C327 C51 1.236 . S
C332 C189 1.241 . S
C343 C84 1.282 . S
C348 C208 1.220 . S
C359 C10 1.476 . S
C364 C223 1.389 . S
C375 C59 1.305 . S
C380 C227 1.299 . S
C396 C170 1.188 . S
C391 C74 1.193 . S
C412 C185 1.305 . S
C407 C18 1.459 . S
C423 C32 1.526 . S
C428 C204 1.464 . S
C444 C113 1.289 . S
C439 C73 1.306 . S
C455 C15 1.527 . S
C460 C128 1.507 . S
C476 C147 1.334 . S
C471 C43 1.493 . S
C492 C94 1.144 . S
C487 C62 1.191 . S
C508 C213 1.324 . S
C503 C21 1.450 . S
C524 C232 1.305 . S
C519 C29 1.464 . S
C535 C52 1.342 . S
C540 C175 1.265 . S
C556 C194 1.322 . S
C551 C81 1.400 . S
C572 C137 1.287 . S
C567 C40 1.431 . S
C583 C65 1.399 . S
C588 C156 1.317 . S
C604 C99 1.208 . S
C599 C76 1.347 . S
C620 C118 1.406 . S
C615 C8 1.489 . S
