# Generated by pormake.
# Topology pyr, (3,6)-cn, num edge types: 1
# Building blocks:
#     Node 0, Type 0, BuildingBlock: ESEHIV_clean_linker_0, # of connection points: 3
#     Node 1, Type 0, BuildingBlock: ESEHIV_clean_linker_0, # of connection points: 3
#     Node 2, Type 0, BuildingBlock: ESEHIV_clean_linker_0, # of connection points: 3
#     Node 3, Type 0, BuildingBlock: ESEHIV_clean_linker_0, # of connection points: 3
#     Node 4, Type 0, BuildingBlock: ESEHIV_clean_linker_0, # of connection points: 3
#     Node 5, Type 0, BuildingBlock: ESEHIV_clean_linker_0, # of connection points: 3
#     Node 6, Type 0, BuildingBlock: ESEHIV_clean_linker_0, # of connection points: 3
#     Node 7, Type 0, BuildingBlock: ESEHIV_clean_linker_0, # of connection points: 3
#     Node 8, Type 1, BuildingBlock: JUFBIX_clean_sbu_0, # of connection points: 6
#     Node 9, Type 1, BuildingBlock: JUFBIX_clean_sbu_0, # of connection points: 6
#     Node 10, Type 1, BuildingBlock: JUFBIX_clean_sbu_0, # of connection points: 6
#     Node 11, Type 1, BuildingBlock: JUFBIX_clean_sbu_0, # of connection points: 6
#     Edge 12, Type (0, 1), BuildingBlock: MIFKUJ_clean_linker_0, # of connection points: 2
#     Edge 13, Type (0, 1), BuildingBlock: MIFKUJ_clean_linker_0, # of connection points: 2
#     Edge 14, Type (0, 1), BuildingBlock: MIFKUJ_clean_linker_0, # of connection points: 2
#     Edge 15, Type (0, 1), BuildingBlock: MIFKUJ_clean_linker_0, # of connection points: 2
#     Edge 16, Type (0, 1), BuildingBlock: MIFKUJ_clean_linker_0, # of connection points: 2
#     Edge 17, Type (0, 1), BuildingBlock: MIFKUJ_clean_linker_0, # of connection points: 2
#     Edge 18, Type (0, 1), BuildingBlock: MIFKUJ_clean_linker_0, # of connection points: 2
#     Edge 19, Type (0, 1), BuildingBlock: MIFKUJ_clean_linker_0, # of connection points: 2
#     Edge 20, Type (0, 1), BuildingBlock: MIFKUJ_clean_linker_0, # of connection points: 2
#     Edge 21, Type (0, 1), BuildingBlock: MIFKUJ_clean_linker_0, # of connection points: 2
#     Edge 22, Type (0, 1), BuildingBlock: MIFKUJ_clean_linker_0, # of connection points: 2
#     Edge 23, Type (0, 1), BuildingBlock: MIFKUJ_clean_linker_0, # of connection points: 2
#     Edge 24, Type (0, 1), BuildingBlock: MIFKUJ_clean_linker_0, # of connection points: 2
#     Edge 25, Type (0, 1), BuildingBlock: MIFKUJ_clean_linker_0, # of connection points: 2
#     Edge 26, Type (0, 1), BuildingBlock: MIFKUJ_clean_linker_0, # of connection points: 2
#     Edge 27, Type (0, 1), BuildingBlock: MIFKUJ_clean_linker_0, # of connection points: 2
#     Edge 28, Type (0, 1), BuildingBlock: MIFKUJ_clean_linker_0, # of connection points: 2
#     Edge 29, Type (0, 1), BuildingBlock: MIFKUJ_clean_linker_0, # of connection points: 2
#     Edge 30, Type (0, 1), BuildingBlock: MIFKUJ_clean_linker_0, # of connection points: 2
#     Edge 31, Type (0, 1), BuildingBlock: MIFKUJ_clean_linker_0, # of connection points: 2
#     Edge 32, Type (0, 1), BuildingBlock: MIFKUJ_clean_linker_0, # of connection points: 2
#     Edge 33, Type (0, 1), BuildingBlock: MIFKUJ_clean_linker_0, # of connection points: 2
#     Edge 34, Type (0, 1), BuildingBlock: MIFKUJ_clean_linker_0, # of connection points: 2
#     Edge 35, Type (0, 1), BuildingBlock: MIFKUJ_clean_linker_0, # of connection points: 2
# Relax obj value: 0.045
# Max RMSD: 0.092
# Mean RMSD: 0.031
data_MOF--net-pyr--node1-JUFBIX_clean_sbu_0--node2-ESEHIV_clean_linker_0--edge1-MIFKUJ_clean_linker_0
_symmetry_space_group_name_H-M    P1
_symmetry_Int_Tables_number       1
_symmetry_cell_setting            triclinic
loop_
_symmetry_equiv_pos_as_xyz
'x, y, z'
_cell_length_a     46.86791
_cell_length_b     44.545752
_cell_length_c     46.827127
_cell_angle_alpha  86.155439
_cell_angle_beta   90.342778
_cell_angle_gamma 91.997635
loop_
_atom_site_label
_atom_site_type_symbol
_atom_site_fract_x
_atom_site_fract_y
_atom_site_fract_z
_atom_type_partial_charge
H0 H 0.14215 0.18547 0.19004 0.0
H1 H 0.20814 0.12054 0.1971 0.0
H2 H 0.20955 0.18949 0.12785 0.0
C3 C 0.16192 0.17709 0.18242 0.0
C4 C 0.1746 0.19134 0.15749 0.0
C5 C 0.17368 0.15167 0.19727 0.0
C6 C 0.19859 0.13972 0.18585 0.0
C7 C 0.21195 0.15306 0.16065 0.0
C8 C 0.1996 0.17894 0.14693 0.0
H9 H 0.37825 0.90951 0.64017 0.0
H10 H 0.44823 0.84981 0.65106 0.0
H11 H 0.37811 0.82886 0.59506 0.0
C12 C 0.38876 0.88933 0.63481 0.0
C13 C 0.37541 0.87022 0.61585 0.0
C14 C 0.4148 0.88198 0.64797 0.0
C15 C 0.42816 0.85574 0.64093 0.0
C16 C 0.41521 0.83657 0.6216 0.0
C17 C 0.38872 0.84391 0.60931 0.0
H18 H 0.70732 0.32402 0.88596 0.0
H19 H 0.7114 0.39494 0.81873 0.0
H20 H 0.64285 0.32794 0.82044 0.0
C21 C 0.69858 0.33499 0.86667 0.0
C22 C 0.67305 0.32328 0.85511 0.0
C23 C 0.71284 0.36077 0.85366 0.0
C24 C 0.70111 0.37467 0.82846 0.0
C25 C 0.67562 0.36328 0.81632 0.0
C26 C 0.66195 0.33751 0.8299 0.0
H27 H 0.90784 0.65048 0.45459 0.0
H28 H 0.97508 0.65415 0.39221 0.0
H29 H 0.90707 0.58701 0.3895 0.0
C30 C 0.91813 0.64102 0.43674 0.0
C31 C 0.90503 0.61647 0.42395 0.0
C32 C 0.94341 0.65475 0.42536 0.0
C33 C 0.956 0.64312 0.40149 0.0
C34 C 0.94306 0.61865 0.38837 0.0
C35 C 0.91776 0.60526 0.39999 0.0
H36 H 0.80976 0.89037 0.8219 0.0
H37 H 0.8779 0.82791 0.82811 0.0
H38 H 0.81477 0.82602 0.89444 0.0
C39 C 0.82068 0.87234 0.83351 0.0
C40 C 0.80886 0.8597 0.8597 0.0
C41 C 0.8458 0.86127 0.82167 0.0
C42 C 0.85885 0.8367 0.83677 0.0
C43 C 0.8478 0.82319 0.86284 0.0
C44 C 0.82289 0.83523 0.87401 0.0
H45 H 0.55662 0.15836 0.37613 0.0
H46 H 0.624 0.09538 0.37376 0.0
H47 H 0.63559 0.17431 0.42088 0.0
C48 C 0.57758 0.1511 0.38294 0.0
C49 C 0.5946 0.16914 0.4002 0.0
C50 C 0.58782 0.12413 0.3738 0.0
C51 C 0.61538 0.11544 0.38185 0.0
C52 C 0.63258 0.1334 0.39892 0.0
C53 C 0.62188 0.15986 0.40855 0.0
H54 H 0.31944 0.68246 0.13527 0.0
H55 H 0.31451 0.61359 0.20404 0.0
H56 H 0.38095 0.6827 0.20386 0.0
C57 C 0.32773 0.67264 0.15526 0.0
C58 C 0.35234 0.68573 0.16756 0.0
C59 C 0.31351 0.647 0.16851 0.0
C60 C 0.32472 0.63389 0.19428 0.0
C61 C 0.34959 0.64612 0.20688 0.0
C62 C 0.36276 0.67233 0.19354 0.0
H63 H 0.05093 0.35946 0.63012 0.0
H64 H 0.11413 0.36108 0.56382 0.0
H65 H 0.12462 0.41973 0.63237 0.0
C66 C 0.07041 0.36909 0.62047 0.0
C67 C 0.08593 0.39187 0.63387 0.0
C68 C 0.08073 0.35751 0.59549 0.0
C69 C 0.10619 0.36979 0.58322 0.0
C70 C 0.12196 0.3925 0.59623 0.0
C71 C 0.11162 0.40346 0.62143 0.0
Co72 Co 0.98456 0.01228 0.49898 0.0
C73 C 0.00843 0.9558 0.49366 0.0
Co74 Co 0.02712 0.00657 0.51821 0.0
C75 C 0.93336 0.03633 0.47231 0.0
C76 C 0.92822 0.99032 0.48853 0.0
N77 N 0.94785 0.01311 0.48454 0.0
N78 N 0.90548 0.02885 0.46903 0.0
C79 C 0.90213 1.00001 0.47917 0.0
H80 H 0.94257 0.05874 0.46771 0.0
H81 H 0.93229 0.96854 0.49911 0.0
C82 C 1.00291 0.06309 0.52344 0.0
N83 N 0.06398 0.00592 0.53282 0.0
C84 C 0.08043 0.98237 0.54052 0.0
C85 C 0.08156 0.03042 0.53429 0.0
N86 N 0.10754 0.99137 0.54645 0.0
C87 C 0.1081 0.02163 0.54287 0.0
C88 C 0.02769 0.02981 0.45971 0.0
O89 O 0.98216 0.05251 0.50935 0.0
O90 O 0.02377 0.04647 0.52981 0.0
O91 O 0.04272 0.02246 0.4817 0.0
O92 O 1.00055 0.02689 0.46189 0.0
O93 O 0.02989 0.96677 0.50651 0.0
H94 H 0.076 0.05328 0.52813 0.0
H95 H 0.07313 0.95908 0.54028 0.0
O96 O 0.98702 0.97202 0.48856 0.0
O97 O 0.96901 0.99787 0.53622 0.0
O98 O 0.01139 0.99043 0.55472 0.0
C99 C 0.98429 0.98901 0.55758 0.0
H100 H 0.88199 0.98733 0.48075 0.0
H101 H 0.12658 0.03645 0.5455 0.0
Co102 Co 0.49788 1.00256 0.99131 0.0
C103 C 0.49179 0.95474 0.03313 0.0
Co104 Co 0.52322 0.00884 0.02997 0.0
C105 C 0.48427 1.00002 0.93174 0.0
C106 C 0.44858 0.98677 0.95858 0.0
N107 N 0.47603 0.99664 0.95932 0.0
N108 N 0.46307 0.99244 0.91365 0.0
C109 C 0.44056 0.98409 0.93057 0.0
H110 H 0.50555 0.00768 0.92523 0.0
H111 H 0.43546 0.98121 0.97725 0.0
C112 C 0.52923 0.0567 0.9881 0.0
N113 N 0.54534 0.01487 0.06173 0.0
C114 C 0.53778 0.01103 0.08948 0.0
C115 C 0.57239 0.02624 0.0619 0.0
N116 N 0.55894 0.01994 0.10691 0.0
C117 C 0.58075 0.02961 0.08971 0.0
C118 C 0.55356 0.98034 0.98765 0.0
O119 O 0.51199 0.04044 0.97421 0.0
O120 O 0.53633 0.0474 0.01331 0.0
O121 O 0.55528 0.99023 0.01254 0.0
O122 O 0.5298 0.98267 0.97437 0.0
O123 O 0.51007 0.97022 0.0466 0.0
H124 H 0.5849 0.03255 0.04296 0.0
H125 H 0.51672 1.00324 0.09669 0.0
O126 O 0.48375 0.96474 0.00842 0.0
O127 O 0.46615 0.02233 0.00832 0.0
O128 O 0.49088 0.02758 0.04745 0.0
C129 C 0.46748 0.03105 0.03371 0.0
H130 H 0.42001 0.9756 0.92346 0.0
H131 H 0.60099 0.03904 0.09676 0.0
Co132 Co 0.53373 0.51702 0.50317 0.0
C133 C 0.48585 0.52338 0.46631 0.0
Co134 Co 0.49396 0.49449 0.51968 0.0
C135 C 0.59321 0.53235 0.49004 0.0
C136 C 0.56456 0.56611 0.47428 0.0
N137 N 0.56529 0.53895 0.4888 0.0
N138 N 0.60978 0.55426 0.47658 0.0
C139 C 0.59181 0.57549 0.46664 0.0
H140 H 0.60116 0.51178 0.5003 0.0
H141 H 0.5454 0.57842 0.46967 0.0
C142 C 0.54169 0.48809 0.55658 0.0
N143 N 0.46244 0.47238 0.53393 0.0
C144 C 0.43441 0.47842 0.53217 0.0
C145 C 0.46331 0.44453 0.54703 0.0
N146 N 0.41783 0.4552 0.54339 0.0
C147 C 0.436 0.43394 0.55286 0.0
C148 C 0.52851 0.45957 0.48725 0.0
O149 O 0.55487 0.50357 0.53664 0.0
O150 O 0.51517 0.48204 0.55342 0.0
O151 O 0.50566 0.46024 0.50159 0.0
O152 O 0.54481 0.48295 0.4846 0.0
O153 O 0.47298 0.50721 0.48598 0.0
H154 H 0.4826 0.43239 0.55151 0.0
H155 H 0.42631 0.49897 0.52201 0.0
O156 O 0.5122 0.53014 0.46968 0.0
O157 O 0.52261 0.55094 0.52202 0.0
O158 O 0.4825 0.52888 0.5376 0.0
C159 C 0.49948 0.55178 0.5359 0.0
H160 H 0.59801 0.59657 0.45511 0.0
H161 H 0.42997 0.4122 0.5632 0.0
Co162 Co 0.02423 0.50776 0.99029 0.0
C163 C 0.96981 0.4805 0.98662 0.0
Co164 Co 0.99995 0.50777 0.0303 0.0
C165 C 0.04416 0.48859 0.93651 0.0
C166 C 0.0593 0.53309 0.94461 0.0
N167 N 0.04405 0.50924 0.95628 0.0
N168 N 0.0586 0.4987 0.91262 0.0
C169 C 0.06823 0.52674 0.91788 0.0
H170 H 0.03315 0.46688 0.93948 0.0
H171 H 0.06273 0.55421 0.95446 0.0
C172 C 0.05457 0.53493 0.03376 0.0
N173 N 0.98006 0.5062 0.06445 0.0
C174 C 0.98266 0.52488 0.08593 0.0
C175 C 0.96209 0.48371 0.07456 0.0
N176 N 0.96736 0.51472 0.10917 0.0
C177 C 0.95422 0.4889 0.10196 0.0
C178 C 0.03462 0.45704 0.02719 0.0
O179 O 0.0558 0.52795 0.00793 0.0
O180 O 0.03159 0.52879 0.0476 0.0
O181 O 0.01702 0.47001 0.04251 0.0
O182 O 0.04059 0.46925 1.0024 0.0
O183 O 0.96873 0.48673 0.01268 0.0
H184 H 0.95598 0.46412 0.06321 0.0
H185 H 0.9967 0.54472 0.08509 0.0
O186 O 0.99249 0.48754 0.97261 0.0
O187 O 1.00783 0.54619 0.97854 0.0
O188 O 0.98283 0.54568 0.0179 0.0
C189 C 0.98958 0.55858 0.9936 0.0
H190 H 0.07986 0.5423 0.90313 0.0
H191 H 0.94042 0.47438 0.11571 0.0
H192 H 0.16813 0.09162 0.21821 0.0
H193 H 0.14417 0.07066 0.26187 0.0
H194 H 0.12249 0.15994 0.2823 0.0
H195 H 0.14744 0.18104 0.23969 0.0
H196 H 0.1354 0.13217 0.32936 0.0
H197 H 0.07293 0.10558 0.25317 0.0
H198 H 0.05927 0.08303 0.20816 0.0
H199 H 0.08108 0.99576 0.24464 0.0
H200 H 0.09522 0.01787 0.28976 0.0
H201 H 1.00341 0.04733 0.40717 0.0
H202 H 0.02761 0.06736 0.36313 0.0
H203 H 0.10906 0.05895 0.40553 0.0
H204 H 0.08512 0.03941 0.44944 0.0
H205 H 0.06428 0.04735 0.32661 0.0
H206 H 0.15676 0.11311 0.38018 0.0
H207 H 0.16579 0.13989 0.42397 0.0
H208 H 0.07635 0.15599 0.43062 0.0
H209 H 0.06684 0.12967 0.38668 0.0
C210 C 0.15857 0.10693 0.23208 0.0
C211 C 0.15972 0.13823 0.22474 0.0
C212 C 0.14442 0.09479 0.25709 0.0
C213 C 0.13075 0.11345 0.27564 0.0
C214 C 0.13251 0.1447 0.26867 0.0
C215 C 0.14667 0.15682 0.24382 0.0
C216 C 0.11473 0.10079 0.3022 0.0
C217 C 0.11999 0.11351 0.32859 0.0
C218 C 0.09392 0.07679 0.30177 0.0
C219 C 0.0854 0.06343 0.27472 0.0
C220 C 0.075 0.08162 0.25151 0.0
C221 C 0.06714 0.06891 0.226 0.0
C222 C 0.06938 0.038 0.22352 0.0
C223 C 0.07941 0.01971 0.24657 0.0
C224 C 0.08732 0.03231 0.27213 0.0
C225 C 0.02648 0.04977 0.40718 0.0
C226 C 0.04211 0.04176 0.43223 0.0
C227 C 0.0404 0.06118 0.3818 0.0
C228 C 0.0704 0.06522 0.38066 0.0
C229 C 0.08598 0.05677 0.40557 0.0
C230 C 0.07213 0.04537 0.43084 0.0
C231 C 0.08541 0.07839 0.35375 0.0
C232 C 0.07989 0.06584 0.32735 0.0
C233 C 0.10554 0.103 0.35401 0.0
C234 C 0.11108 0.11913 0.3803 0.0
C235 C 0.13904 0.12245 0.39094 0.0
C236 C 0.14424 0.13754 0.41579 0.0
C237 C 0.12165 0.14955 0.43012 0.0
C238 C 0.09382 0.14658 0.41956 0.0
C239 C 0.08851 0.13154 0.39471 0.0
H240 H 0.12572 0.1612 0.44936 0.0
H241 H 0.06328 0.0282 0.20375 0.0
H242 H 0.38538 0.90526 0.69066 0.0
H243 H 0.4039 0.93469 0.72889 0.0
H244 H 0.48939 0.92904 0.6965 0.0
H245 H 0.47076 0.89966 0.65742 0.0
H246 H 0.48545 0.9148 0.75452 0.0
H247 H 0.45921 0.99605 0.69043 0.0
H248 H 0.42865 0.02398 0.65565 0.0
H249 H 0.36419 0.02868 0.71981 0.0
H250 H 0.39415 1.00039 0.75488 0.0
H251 H 0.51102 0.99093 0.88101 0.0
H252 H 0.51305 0.98399 0.82991 0.0
H253 H 0.42103 0.98222 0.82561 0.0
H254 H 0.4188 0.99106 0.87612 0.0
H255 H 0.44217 0.0099 0.77881 0.0
H256 H 0.46193 0.91628 0.83617 0.0
H257 H 0.49027 0.88604 0.87134 0.0
H258 H 0.5652 0.90353 0.81971 0.0
H259 H 0.5373 0.93412 0.78437 0.0
C260 C 0.40805 0.9108 0.69117 0.0
C261 C 0.42656 0.90047 0.67075 0.0
C262 C 0.41862 0.92762 0.7131 0.0
C263 C 0.44793 0.93457 0.71516 0.0
C264 C 0.46665 0.92413 0.69504 0.0
C265 C 0.45601 0.90727 0.67289 0.0
C266 C 0.45861 0.95097 0.73972 0.0
C267 C 0.4767 0.93607 0.75949 0.0
C268 C 0.44699 0.97858 0.74622 0.0
C269 C 0.42898 0.99604 0.72531 0.0
C270 C 0.43847 1.00292 0.69711 0.0
C271 C 0.42124 0.01883 0.67733 0.0
C272 C 0.3945 0.0281 0.68552 0.0
C273 C 0.38494 0.02153 0.71351 0.0
C274 C 0.40207 0.00561 0.73338 0.0
C275 C 0.49119 0.98979 0.86918 0.0
C276 C 0.46466 0.99103 0.883 0.0
C277 C 0.49243 0.98557 0.83991 0.0
C278 C 0.46719 0.98196 0.82405 0.0
C279 C 0.44081 0.98478 0.83743 0.0
C280 C 0.43956 0.98941 0.86652 0.0
C281 C 0.46764 0.97284 0.79421 0.0
C282 C 0.45173 0.98919 0.77342 0.0
C283 C 0.48106 0.94643 0.78684 0.0
C284 C 0.49765 0.92772 0.80785 0.0
C285 C 0.48448 0.91376 0.83241 0.0
C286 C 0.50045 0.89656 0.85236 0.0
C287 C 0.52954 0.89295 0.84781 0.0
C288 C 0.54269 0.90641 0.82323 0.0
C289 C 0.52681 0.92366 0.80324 0.0
H290 H 0.54188 0.87966 0.86329 0.0
H291 H 0.38118 0.04038 0.67016 0.0
H292 H 0.70362 0.38954 0.76873 0.0
H293 H 0.68271 0.41218 0.72469 0.0
H294 H 0.59832 0.39272 0.75864 0.0
H295 H 0.61893 0.37082 0.80293 0.0
H296 H 0.60255 0.37593 0.70392 0.0
H297 H 0.62658 0.46386 0.75476 0.0
H298 H 0.65864 0.49817 0.78025 0.0
H299 H 0.71146 0.51233 0.70562 0.0
H300 H 0.67991 0.47775 0.6798 0.0
H301 H 0.51821 0.46004 0.60507 0.0
H302 H 0.54254 0.44049 0.64822 0.0
H303 H 0.62376 0.47012 0.61157 0.0
H304 H 0.59935 0.49059 0.56842 0.0
H305 H 0.62359 0.48106 0.66623 0.0
H306 H 0.59999 0.39465 0.61471 0.0
H307 H 0.56884 0.36003 0.5886 0.0
H308 H 0.51691 0.34194 0.66342 0.0
H309 H 0.54752 0.3768 0.68989 0.0
C310 C 0.68061 0.39044 0.76708 0.0
C311 C 0.66307 0.37811 0.78957 0.0
C312 C 0.66866 0.40334 0.74175 0.0
C313 C 0.63887 0.40425 0.73824 0.0
C314 C 0.62134 0.39214 0.76066 0.0
C315 C 0.63323 0.37945 0.78601 0.0
C316 C 0.62582 0.41726 0.71111 0.0
C317 C 0.60691 0.39904 0.69588 0.0
C318 C 0.63212 0.44712 0.7 0.0
C319 C 0.65106 0.46796 0.71546 0.0
C320 C 0.64517 0.47408 0.74387 0.0
C321 C 0.66322 0.49362 0.75836 0.0
C322 C 0.68712 0.50735 0.74459 0.0
C323 C 0.69297 0.50164 0.71627 0.0
C324 C 0.675 0.48209 0.7017 0.0
C325 C 0.54126 0.46248 0.60611 0.0
C326 C 0.55679 0.47678 0.58309 0.0
C327 C 0.55522 0.45111 0.63084 0.0
C328 C 0.58515 0.45322 0.63313 0.0
C329 C 0.6007 0.46804 0.61041 0.0
C330 C 0.5867 0.47969 0.58567 0.0
C331 C 0.60001 0.43983 0.65916 0.0
C332 C 0.6193 0.45792 0.67417 0.0
C333 C 0.59426 0.40972 0.66998 0.0
C334 C 0.57592 0.38854 0.65421 0.0
C335 C 0.58182 0.38344 0.62555 0.0
C336 C 0.56427 0.36376 0.61069 0.0
C337 C 0.54087 0.34885 0.62432 0.0
C338 C 0.53502 0.35353 0.65288 0.0
C339 C 0.55248 0.37323 0.66783 0.0
H340 H 0.5273 0.33362 0.61278 0.0
H341 H 0.70106 0.52248 0.75584 0.0
H342 H 0.9479 0.56142 0.37146 0.0
H343 H 0.95828 0.5466 0.32341 0.0
H344 H 0.97258 0.63989 0.29448 0.0
H345 H 0.9612 0.65493 0.34219 0.0
H346 H 0.9367 0.61274 0.25991 0.0
H347 H 0.02797 0.59135 0.30013 0.0
H348 H 0.06215 0.56976 0.33537 0.0
H349 H 0.03124 0.48059 0.31922 0.0
H350 H 0.99658 0.50166 0.28417 0.0
H351 H 0.97682 0.5731 0.12077 0.0
H352 H 0.97857 0.59348 0.16803 0.0
H353 H 0.96002 0.50473 0.20753 0.0
H354 H 0.95907 0.48412 0.1606 0.0
H355 H 1.00258 0.53365 0.23541 0.0
H356 H 0.90829 0.55567 0.19914 0.0
H357 H 0.87376 0.57723 0.16422 0.0
H358 H 0.91082 0.66562 0.17331 0.0
H359 H 0.94583 0.6445 0.20804 0.0
C360 C 0.95356 0.57874 0.35493 0.0
C361 C 0.95369 0.60933 0.36063 0.0
C362 C 0.95973 0.57024 0.32754 0.0
C363 C 0.96639 0.59215 0.30538 0.0
C364 C 0.96757 0.62263 0.31128 0.0
C365 C 0.96134 0.63116 0.33865 0.0
C366 C 0.9697 0.58333 0.27564 0.0
C367 C 0.95156 0.59591 0.25443 0.0
C368 C 0.98863 0.56092 0.26863 0.0
C369 C 0.00951 0.54812 0.28966 0.0
C370 C 0.0283 0.56715 0.30425 0.0
C371 C 0.0478 0.555 0.32416 0.0
C372 C 0.04883 0.52382 0.32957 0.0
C373 C 0.03041 0.50473 0.31502 0.0
C374 C 0.01086 0.51677 0.2951 0.0
C375 C 0.97329 0.55792 0.13952 0.0
C376 C 0.96763 0.52701 0.13686 0.0
C377 C 0.97413 0.56961 0.16649 0.0
C378 C 0.96924 0.55062 0.19125 0.0
C379 C 0.96384 0.51977 0.18868 0.0
C380 C 0.96296 0.50808 0.16178 0.0
C381 C 0.96933 0.56278 0.21992 0.0
C382 C 0.98806 0.5508 0.24089 0.0
C383 C 0.95095 0.58575 0.22674 0.0
C384 C 0.92988 0.59847 0.20592 0.0
C385 C 0.90922 0.57967 0.19351 0.0
C386 C 0.88954 0.59181 0.17379 0.0
C387 C 0.89015 0.62276 0.16648 0.0
C388 C 0.91041 0.64164 0.17895 0.0
C389 C 0.93016 0.6296 0.19866 0.0
H390 H 0.87489 0.63212 0.15121 0.0
H391 H 0.06394 0.51446 0.345 0.0
H392 H 0.2591 0.18354 0.13559 0.0
H393 H 0.30159 0.1632 0.1152 0.0
H394 H 0.26928 0.07304 0.13772 0.0
H395 H 0.22671 0.09333 0.15842 0.0
H396 H 0.32332 0.07296 0.14689 0.0
H397 H 0.26892 0.10831 0.06589 0.0
H398 H 0.24219 0.14481 0.03523 0.0
H399 H 0.31722 0.20268 0.02593 0.0
H400 H 0.34432 0.16669 0.05686 0.0
H401 H 0.41391 0.03995 0.01049 0.0
H402 H 0.3718 0.05954 0.03252 0.0
H403 H 0.41996 0.07209 0.10976 0.0
H404 H 0.46206 0.05188 0.08794 0.0
H405 H 0.35674 0.10936 0.05007 0.0
H406 H 0.37458 0.06847 0.1693 0.0
H407 H 0.39582 0.02638 0.19792 0.0
H408 H 0.38778 0.97094 0.12656 0.0
H409 H 0.36568 0.01237 0.09778 0.0
C410 C 0.26072 0.15933 0.13606 0.0
C411 C 0.23883 0.1403 0.14866 0.0
C412 C 0.28531 0.1476 0.12425 0.0
C413 C 0.28898 0.11629 0.12416 0.0
C414 C 0.26744 0.09723 0.13724 0.0
C415 C 0.24288 0.10897 0.14924 0.0
C416 C 0.31504 0.10355 0.11052 0.0
C417 C 0.33062 0.08114 0.12576 0.0
C418 C 0.32474 0.11329 0.08257 0.0
C419 C 0.30856 0.13495 0.06392 0.0
C420 C 0.27966 0.12892 0.05747 0.0
C421 C 0.26445 0.1495 0.04002 0.0
C422 C 0.27798 0.17608 0.0287 0.0
C423 C 0.30676 0.1821 0.03475 0.0
C424 C 0.32206 0.16161 0.05222 0.0
C425 C 0.41569 0.04686 0.03219 0.0
C426 C 0.44176 0.04413 0.04724 0.0
C427 C 0.39138 0.05824 0.04486 0.0
C428 C 0.39202 0.06726 0.07319 0.0
C429 C 0.41821 0.06493 0.08816 0.0
C430 C 0.44256 0.05347 0.07549 0.0
C431 C 0.36546 0.07916 0.08667 0.0
C432 C 0.34969 0.10137 0.07133 0.0
C433 C 0.35523 0.0687 0.11428 0.0
C434 C 0.36882 0.04371 0.13126 0.0
C435 C 0.37724 0.04727 0.15974 0.0
C436 C 0.38932 0.02348 0.17603 0.0
C437 C 0.39325 0.99604 0.16403 0.0
C438 C 0.38486 0.99225 0.13578 0.0
C439 C 0.37251 0.01588 0.11948 0.0
H440 H 0.40276 0.97771 0.17664 0.0
H441 H 0.26617 0.19198 0.0152 0.0
H442 H 0.32852 0.83214 0.61535 0.0
H443 H 0.27945 0.84528 0.60284 0.0
H444 H 0.30843 0.93656 0.57925 0.0
H445 H 0.35736 0.92358 0.59185 0.0
H446 H 0.26529 0.93458 0.61666 0.0
H447 H 0.28679 0.88807 0.5292 0.0
H448 H 0.30156 0.8467 0.50074 0.0
H449 H 0.23155 0.79079 0.53453 0.0
H450 H 0.21659 0.83173 0.56351 0.0
H451 H 0.16271 0.00616 0.53418 0.0
H452 H 0.20418 0.97697 0.5471 0.0
H453 H 0.14962 0.9047 0.58374 0.0
H454 H 0.10745 0.93443 0.5715 0.0
H455 H 0.20031 0.88927 0.54602 0.0
H456 H 0.17647 0.93912 0.62995 0.0
H457 H 0.16185 0.98218 0.65623 0.0
H458 H 0.23713 0.03281 0.62752 0.0
H459 H 0.25197 0.99022 0.60068 0.0
C460 C 0.32444 0.85482 0.60689 0.0
C461 C 0.34661 0.87694 0.60468 0.0
C462 C 0.29644 0.86229 0.59981 0.0
C463 C 0.29035 0.89189 0.59022 0.0
C464 C 0.3127 0.91362 0.58683 0.0
C465 C 0.34058 0.90623 0.59401 0.0
C466 C 0.2606 0.9011 0.58564 0.0
C467 C 0.25115 0.92469 0.60115 0.0
C468 C 0.2418 0.88741 0.5662 0.0
C469 C 0.25079 0.86282 0.54879 0.0
C470 C 0.27471 0.86686 0.53077 0.0
C471 C 0.28308 0.84351 0.5145 0.0
C472 C 0.26756 0.8161 0.5159 0.0
C473 C 0.24358 0.81201 0.53351 0.0
C474 C 0.23514 0.83528 0.54985 0.0
C475 C 0.15934 0.98422 0.5452 0.0
C476 C 0.13175 0.97292 0.55239 0.0
C477 C 0.1831 0.96743 0.55227 0.0
C478 C 0.17984 0.93892 0.56653 0.0
C479 C 0.15239 0.92675 0.57268 0.0
C480 C 0.12842 0.94373 0.56571 0.0
C481 C 0.20563 0.92327 0.57637 0.0
C482 C 0.21432 0.89857 0.56197 0.0
C483 C 0.2239 0.93594 0.59678 0.0
C484 C 0.21523 0.96152 0.61316 0.0
C485 C 0.18979 0.95952 0.62907 0.0
C486 C 0.18149 0.98383 0.64409 0.0
C487 C 0.19853 0.01023 0.64351 0.0
C488 C 0.22395 0.01235 0.62795 0.0
C489 C 0.23234 0.98811 0.61286 0.0
H490 H 0.19206 0.02903 0.65515 0.0
H491 H 0.27407 0.79805 0.50328 0.0
H492 H 0.72557 0.36553 0.91069 0.0
H493 H 0.76952 0.38509 0.93193 0.0
H494 H 0.80495 0.40509 0.84777 0.0
H495 H 0.76134 0.38446 0.82632 0.0
H496 H 0.8445 0.3811 0.88258 0.0
H497 H 0.77943 0.46093 0.88794 0.0
H498 H 0.7345 0.48424 0.90005 0.0
H499 H 0.74858 0.46004 0.9892 0.0
H500 H 0.79342 0.43621 0.97758 0.0
H501 H 0.96128 0.47326 0.92936 0.0
H502 H 0.91856 0.45326 0.90601 0.0
H503 H 0.8782 0.43584 0.98829 0.0
H504 H 0.92051 0.45679 0.01166 0.0
H505 H 0.84134 0.45935 0.9529 0.0
H506 H 0.90631 0.37849 0.94707 0.0
H507 H 0.95148 0.35587 0.93454 0.0
H508 H 0.93784 0.38267 0.84584 0.0
H509 H 0.89274 0.40576 0.8579 0.0
C510 C 0.74276 0.37379 0.89661 0.0
C511 C 0.73971 0.37332 0.86668 0.0
C512 C 0.76787 0.38533 0.90884 0.0
C513 C 0.79061 0.39702 0.89154 0.0
C514 C 0.78778 0.39635 0.86167 0.0
C515 C 0.76264 0.38477 0.84939 0.0
C516 C 0.81727 0.40979 0.90465 0.0
C517 C 0.84381 0.3985 0.89767 0.0
C518 C 0.81656 0.43214 0.92479 0.0
C519 C 0.78965 0.44654 0.93185 0.0
C520 C 0.77284 0.46038 0.91011 0.0
C521 C 0.7474 0.47372 0.91689 0.0
C522 C 0.73865 0.47356 0.94537 0.0
C523 C 0.75536 0.46012 0.96714 0.0
C524 C 0.78081 0.44672 0.96048 0.0
C525 C 0.9434 0.46497 0.94254 0.0
C526 C 0.94446 0.46658 0.97246 0.0
C527 C 0.91893 0.45337 0.92912 0.0
C528 C 0.89504 0.44253 0.94529 0.0
C529 C 0.89619 0.44399 0.9752 0.0
C530 C 0.92052 0.45589 0.9886 0.0
C531 C 0.86862 0.43042 0.93115 0.0
C532 C 0.84208 0.4419 0.93786 0.0
C533 C 0.86936 0.40829 0.91075 0.0
C534 C 0.89629 0.39408 0.90343 0.0
C535 C 0.91303 0.3797 0.92492 0.0
C536 C 0.93861 0.36678 0.9179 0.0
C537 C 0.94756 0.3679 0.88942 0.0
C538 C 0.9309 0.38184 0.86789 0.0
C539 C 0.90531 0.39482 0.87481 0.0
H540 H 0.96739 0.35791 0.88403 0.0
H541 H 0.71895 0.4839 0.95058 0.0
H542 H 0.85843 0.60855 0.39029 0.0
H543 H 0.80982 0.59383 0.40524 0.0
H544 H 0.83752 0.58461 0.49326 0.0
H545 H 0.88657 0.59969 0.47837 0.0
H546 H 0.79608 0.53534 0.46968 0.0
H547 H 0.80857 0.64163 0.4826 0.0
H548 H 0.82427 0.69366 0.46755 0.0
H549 H 0.76782 0.69283 0.39502 0.0
H550 H 0.75216 0.64056 0.40937 0.0
H551 H 0.64888 0.53386 0.51539 0.0
H552 H 0.70098 0.54059 0.51162 0.0
H553 H 0.69138 0.5839 0.427 0.0
H554 H 0.63961 0.57782 0.43107 0.0
H555 H 0.72601 0.61616 0.45669 0.0
H556 H 0.71586 0.51061 0.43986 0.0
H557 H 0.70087 0.45757 0.45134 0.0
H558 H 0.75245 0.45568 0.52749 0.0
H559 H 0.76747 0.50886 0.51664 0.0
C560 C 0.85432 0.60286 0.41277 0.0
C561 C 0.87624 0.60513 0.43319 0.0
C562 C 0.82657 0.59455 0.42127 0.0
C563 C 0.82023 0.58815 0.45029 0.0
C564 C 0.84216 0.58935 0.47074 0.0
C565 C 0.87 0.59811 0.46226 0.0
C566 C 0.79019 0.58245 0.45896 0.0
C567 C 0.78073 0.55302 0.46747 0.0
C568 C 0.7703 0.60551 0.45541 0.0
C569 C 0.77938 0.63709 0.44694 0.0
C570 C 0.79969 0.65245 0.46331 0.0
C571 C 0.80855 0.682 0.45493 0.0
C572 C 0.79709 0.69653 0.43031 0.0
C573 C 0.77669 0.68154 0.41407 0.0
C574 C 0.7678 0.65196 0.42233 0.0
C575 C 0.65804 0.54443 0.4959 0.0
C576 C 0.64031 0.55553 0.47359 0.0
C577 C 0.68775 0.54827 0.49374 0.0
C578 C 0.70013 0.56276 0.469 0.0
C579 C 0.68235 0.57293 0.4464 0.0
C580 C 0.65279 0.56946 0.44872 0.0
C581 C 0.73143 0.56873 0.46677 0.0
C582 C 0.74123 0.59838 0.45943 0.0
C583 C 0.75148 0.54576 0.47111 0.0
C584 C 0.74251 0.5138 0.47762 0.0
C585 C 0.72381 0.49895 0.45917 0.0
C586 C 0.71535 0.46886 0.46554 0.0
C587 C 0.72562 0.4533 0.49018 0.0
C588 C 0.74446 0.46778 0.50845 0.0
C589 C 0.75297 0.49789 0.50219 0.0
H590 H 0.71905 0.42999 0.49507 0.0
H591 H 0.80397 0.71941 0.42386 0.0
H592 H 0.14648 0.23701 0.18185 0.0
H593 H 0.12341 0.28031 0.1584 0.0
H594 H 0.15042 0.25409 0.07624 0.0
H595 H 0.17282 0.20985 0.09942 0.0
H596 H 0.15779 0.3162 0.08086 0.0
H597 H 0.08192 0.24174 0.09669 0.0
H598 H 0.05218 0.20437 0.12539 0.0
H599 H 0.02709 0.27296 0.1794 0.0
H600 H 0.05702 0.31068 0.15126 0.0
H601 H 0.06991 0.41966 0.99959 0.0
H602 H 0.09369 0.37475 0.01963 0.0
H603 H 0.05647 0.38633 0.102 0.0
H604 H 0.03196 0.43042 0.08184 0.0
H605 H 0.05458 0.33025 0.09576 0.0
H606 H 0.13073 0.40442 0.08282 0.0
H607 H 0.16144 0.44269 0.05627 0.0
H608 H 0.18708 0.37668 0.99974 0.0
H609 H 0.15625 0.33808 0.0257 0.0
C610 C 0.14731 0.23993 0.15873 0.0
C611 C 0.16149 0.21914 0.14278 0.0
C612 C 0.13412 0.26508 0.14528 0.0
C613 C 0.13472 0.27065 0.11535 0.0
C614 C 0.14951 0.25055 0.09933 0.0
C615 C 0.16252 0.22514 0.11276 0.0
C616 C 0.11958 0.2971 0.10097 0.0
C617 C 0.13512 0.31901 0.08381 0.0
C618 C 0.09009 0.30156 0.1052 0.0
C619 C 0.07192 0.27897 0.12202 0.0
C620 C 0.07023 0.24881 0.11481 0.0
C621 C 0.05331 0.22757 0.13096 0.0
C622 C 0.03781 0.23627 0.15424 0.0
C623 C 0.03914 0.26625 0.16138 0.0
C624 C 0.05605 0.28757 0.14532 0.0
C625 C 0.06668 0.41261 0.02196 0.0
C626 C 0.04886 0.42894 0.03895 0.0
C627 C 0.08057 0.3869 0.03357 0.0
C628 C 0.07753 0.37694 0.06271 0.0
C629 C 0.05944 0.39312 0.07954 0.0
C630 C 0.04536 0.41857 0.0679 0.0
C631 C 0.09278 0.34973 0.07571 0.0
C632 C 0.07724 0.32758 0.09269 0.0
C633 C 0.12236 0.3453 0.0716 0.0
C634 C 0.14095 0.36844 0.05601 0.0
C635 C 0.14276 0.39812 0.0646 0.0
C636 C 0.16021 0.41986 0.04968 0.0
C637 C 0.17613 0.41213 0.0263 0.0
C638 C 0.1747 0.38263 0.01783 0.0
C639 C 0.15726 0.36081 0.03264 0.0
H640 H 0.18962 0.429 0.01479 0.0
H641 H 0.02473 0.21979 0.16672 0.0
H642 H 0.69583 0.27085 0.87812 0.0
H643 H 0.67045 0.22649 0.90068 0.0
H644 H 0.5903 0.26988 0.88658 0.0
H645 H 0.61555 0.31444 0.86445 0.0
H646 H 0.59223 0.24207 0.93961 0.0
H647 H 0.61022 0.21615 0.84375 0.0
H648 H 0.63973 0.20903 0.80148 0.0
H649 H 0.68828 0.14351 0.85035 0.0
H650 H 0.65929 0.15056 0.89306 0.0
H651 H 0.52412 0.07959 0.93246 0.0
H652 H 0.54712 0.12535 0.90996 0.0
H653 H 0.5869 0.14404 0.9904 0.0
H654 H 0.56396 0.09841 0.01307 0.0
H655 H 0.60301 0.1413 0.90261 0.0
H656 H 0.59289 0.22074 0.99455 0.0
H657 H 0.56048 0.22843 0.03455 0.0
H658 H 0.49082 0.18788 0.98927 0.0
H659 H 0.5227 0.18034 0.94886 0.0
C660 C 0.67282 0.27107 0.88003 0.0
C661 C 0.65776 0.29625 0.86932 0.0
C662 C 0.65829 0.24556 0.89276 0.0
C663 C 0.62837 0.24463 0.89515 0.0
C664 C 0.61335 0.26994 0.88496 0.0
C665 C 0.62783 0.29535 0.87209 0.0
C666 C 0.61267 0.21724 0.90803 0.0
C667 C 0.59469 0.22004 0.93155 0.0
C668 C 0.61537 0.18846 0.89732 0.0
C669 C 0.63277 0.18411 0.87167 0.0
C670 C 0.62733 0.2004 0.84555 0.0
C671 C 0.64394 0.19635 0.8215 0.0
C672 C 0.66592 0.17589 0.82325 0.0
C673 C 0.67128 0.15938 0.84904 0.0
C674 C 0.65475 0.16338 0.87317 0.0
C675 C 0.53758 0.09354 0.94545 0.0
C676 C 0.54204 0.0853 0.97465 0.0
C677 C 0.55087 0.11965 0.93249 0.0
C678 C 0.56868 0.13834 0.94845 0.0
C679 C 0.57303 0.13026 0.97765 0.0
C680 C 0.5599 0.10407 0.99059 0.0
C681 C 0.58297 0.16604 0.93451 0.0
C682 C 0.60067 0.1633 0.91077 0.0
C683 C 0.57972 0.19493 0.94479 0.0
C684 C 0.56027 0.1997 0.96882 0.0
C685 C 0.57063 0.21357 0.9931 0.0
C686 C 0.55236 0.21789 0.01584 0.0
C687 C 0.52363 0.20855 0.0145 0.0
C688 C 0.5131 0.19499 0.99034 0.0
C689 C 0.53127 0.19065 0.96753 0.0
H690 H 0.50953 0.21189 0.03214 0.0
H691 H 0.67875 0.17278 0.8046 0.0
H692 H 0.99854 0.67072 0.43925 0.0
H693 H 0.01686 0.7207 0.45155 0.0
H694 H 0.93155 0.75387 0.44553 0.0
H695 H 0.91317 0.70424 0.43358 0.0
H696 H 0.97537 0.78814 0.41183 0.0
H697 H 0.95657 0.74282 0.50779 0.0
H698 H 0.96283 0.70433 0.54748 0.0
H699 H 0.05289 0.72552 0.54894 0.0
H700 H 0.04719 0.76387 0.50895 0.0
H701 H 0.96383 0.92584 0.46976 0.0
H702 H 0.96078 0.87359 0.45796 0.0
H703 H 0.04741 0.86157 0.48707 0.0
H704 H 0.05048 0.91423 0.49972 0.0
H705 H 0.01338 0.81498 0.50627 0.0
H706 H 0.03236 0.86488 0.4157 0.0
H707 H 0.02773 0.90325 0.37565 0.0
H708 H 0.941 0.87309 0.3621 0.0
H709 H 0.94494 0.83482 0.40235 0.0
C710 C 0.98374 0.68865 0.44094 0.0
C711 C 0.95444 0.68364 0.43567 0.0
C712 C 0.99419 0.71706 0.44796 0.0
C713 C 0.9755 0.74084 0.44935 0.0
C714 C 0.94624 0.73573 0.44454 0.0
C715 C 0.93577 0.70734 0.43796 0.0
C716 C 0.98626 0.77157 0.45457 0.0
C717 C 0.98361 0.79412 0.43247 0.0
C718 C 0.99813 0.77892 0.48112 0.0
C719 C 1.00152 0.7559 0.50514 0.0
C720 C 0.97775 0.73904 0.51637 0.0
C721 C 0.98118 0.71731 0.53897 0.0
C722 C 1.00826 0.7124 0.55065 0.0
C723 C 0.03194 0.72929 0.53982 0.0
C724 C 0.02862 0.75103 0.5172 0.0
C725 C 0.98239 0.91226 0.47353 0.0
C726 C 1.00749 0.92428 0.48553 0.0
C727 C 0.98063 0.88235 0.46662 0.0
C728 C 1.00404 0.86379 0.47113 0.0
C729 C 0.02916 0.87558 0.48325 0.0
C730 C 0.03091 0.90565 0.49036 0.0
C731 C 1.00146 0.83193 0.4638 0.0
C732 C 1.00572 0.80907 0.4854 0.0
C733 C 0.99141 0.82418 0.43659 0.0
C734 C 0.98893 0.84704 0.41217 0.0
C735 C 0.01224 0.86654 0.40431 0.0
C736 C 0.00974 0.88827 0.38155 0.0
C737 C 0.98408 0.89063 0.36636 0.0
C738 C 0.96087 0.87123 0.37388 0.0
C739 C 0.96324 0.84947 0.39664 0.0
H740 H 0.98218 0.90747 0.34876 0.0
H741 H 0.01088 0.69557 0.56815 0.0
H742 H 0.44044 0.79579 0.65918 0.0
H743 H 0.45968 0.74735 0.64879 0.0
H744 H 0.43728 0.76378 0.55972 0.0
H745 H 0.41924 0.81268 0.5697 0.0
H746 H 0.43341 0.69931 0.62966 0.0
H747 H 0.48321 0.73198 0.51775 0.0
H748 H 0.50798 0.77566 0.49248 0.0
H749 H 0.53559 0.80789 0.57285 0.0
H750 H 0.51134 0.76421 0.59858 0.0
H751 H 0.4469 0.57112 0.54952 0.0
H752 H 0.43611 0.61922 0.56872 0.0
H753 H 0.52628 0.64199 0.57334 0.0
H754 H 0.537 0.59475 0.55291 0.0
H755 H 0.50139 0.68707 0.55084 0.0
H756 H 0.48377 0.6221 0.63449 0.0
H757 H 0.46283 0.57835 0.66304 0.0
H758 H 0.37868 0.61042 0.64594 0.0
H759 H 0.39909 0.65417 0.61698 0.0
C760 C 0.44019 0.78934 0.63729 0.0
C761 C 0.4284 0.80805 0.61522 0.0
C762 C 0.4509 0.76155 0.63145 0.0
C763 C 0.45007 0.75208 0.60347 0.0
C764 C 0.43852 0.77084 0.5814 0.0
C765 C 0.42797 0.79864 0.58717 0.0
C766 C 0.46032 0.72216 0.59735 0.0
C767 C 0.44843 0.69657 0.61257 0.0
C768 C 0.48032 0.7187 0.57543 0.0
C769 C 0.49523 0.74492 0.56009 0.0
C770 C 0.49467 0.74831 0.53002 0.0
C771 C 0.50861 0.77309 0.51562 0.0
C772 C 0.52328 0.79458 0.53105 0.0
C773 C 0.52413 0.79129 0.56092 0.0
C774 C 0.51026 0.76654 0.57543 0.0
C775 C 0.46435 0.58633 0.55491 0.0
C776 C 0.49274 0.57939 0.54964 0.0
C777 C 0.45821 0.61371 0.56602 0.0
C778 C 0.48041 0.63413 0.57274 0.0
C779 C 0.5088 0.62669 0.5682 0.0
C780 C 0.51489 0.59969 0.55657 0.0
C781 C 0.47412 0.66402 0.58281 0.0
C782 C 0.48665 0.68968 0.5682 0.0
C783 C 0.45533 0.6675 0.60582 0.0
C784 C 0.44297 0.64131 0.62339 0.0
C785 C 0.46079 0.61973 0.63667 0.0
C786 C 0.44901 0.59494 0.65295 0.0
C787 C 0.41944 0.59158 0.65626 0.0
C788 C 0.40159 0.61305 0.64335 0.0
C789 C 0.41325 0.63787 0.62703 0.0
H790 H 0.41037 0.57236 0.66885 0.0
H791 H 0.53404 0.81375 0.51985 0.0
H792 H 0.87695 0.83402 0.78045 0.0
H793 H 0.90019 0.85692 0.73753 0.0
H794 H 0.86607 0.94251 0.75367 0.0
H795 H 0.84423 0.92047 0.79799 0.0
H796 H 0.86184 0.91261 0.68985 0.0
H797 H 0.92403 0.94894 0.76582 0.0
H798 H 0.95349 0.94046 0.80925 0.0
H799 H 1.00478 0.87976 0.76597 0.0
H800 H 0.97529 0.88754 0.72242 0.0
H801 H 0.93209 1.00251 0.57878 0.0
H802 H 0.90893 0.98303 0.62312 0.0
H803 H 0.98062 0.92692 0.64272 0.0
H804 H 1.00475 0.94832 0.59929 0.0
H805 H 0.96508 0.94106 0.68959 0.0
H806 H 0.90806 0.90214 0.61511 0.0
H807 H 0.87912 0.90329 0.5709 0.0
H808 H 0.81871 0.95888 0.60883 0.0
H809 H 0.84749 0.95837 0.65314 0.0
C810 C 0.87464 0.85788 0.77556 0.0
C811 C 0.85866 0.87515 0.79369 0.0
C812 C 0.88784 0.87092 0.75052 0.0
C813 C 0.88512 0.90156 0.74215 0.0
C814 C 0.86858 0.9188 0.75948 0.0
C815 C 0.85582 0.90594 0.78492 0.0
C816 C 0.8998 0.91542 0.71556 0.0
C817 C 0.88431 0.91931 0.68986 0.0
C818 C 0.92942 0.92297 0.71498 0.0
C819 C 0.94726 0.91854 0.74102 0.0
C820 C 0.9414 0.93354 0.76568 0.0
C821 C 0.95815 0.92892 0.79029 0.0
C822 C 0.98094 0.90951 0.7904 0.0
C823 C 0.98709 0.89475 0.76587 0.0
C824 C 0.97038 0.89927 0.74122 0.0
C825 C 0.94301 0.98607 0.59256 0.0
C826 C 0.97036 0.977 0.58517 0.0
C827 C 0.92951 0.97454 0.618 0.0
C828 C 0.94227 0.95248 0.63652 0.0
C829 C 0.96985 0.94371 0.62924 0.0
C830 C 0.98375 0.95596 0.60417 0.0
C831 C 0.92713 0.93889 0.66335 0.0
C832 C 0.94255 0.93469 0.68923 0.0
C833 C 0.89753 0.93024 0.66386 0.0
C834 C 0.88008 0.93046 0.63733 0.0
C835 C 0.88869 0.91475 0.61395 0.0
C836 C 0.87231 0.91528 0.58889 0.0
C837 C 0.84714 0.93122 0.58703 0.0
C838 C 0.83824 0.94658 0.61028 0.0
C839 C 0.85456 0.94616 0.63539 0.0
H840 H 0.83449 0.93161 0.5676 0.0
H841 H 0.99388 0.90597 0.80947 0.0
H842 H 0.57656 0.06345 0.3755 0.0
H843 H 0.55906 0.0346 0.3358 0.0
H844 H 0.54676 0.11749 0.28472 0.0
H845 H 0.5634 0.14623 0.32444 0.0
H846 H 0.50874 0.07613 0.26962 0.0
H847 H 0.61084 0.083 0.28634 0.0
H848 H 0.65446 0.07598 0.31542 0.0
H849 H 0.63699 0.9805 0.32311 0.0
H850 H 0.59293 0.98707 0.29449 0.0
H851 H 0.57791 0.06684 0.13568 0.0
H852 H 0.57248 0.07299 0.1869 0.0
H853 H 0.53099 0.98506 0.19776 0.0
H854 H 0.53549 0.97928 0.146 0.0
H855 H 0.58795 0.01562 0.2373 0.0
H856 H 0.48764 0.01377 0.2085 0.0
H857 H 0.45031 0.02798 0.17348 0.0
H858 H 0.46892 0.1215 0.18476 0.0
H859 H 0.50755 0.10782 0.21872 0.0
C860 C 0.5693 0.07541 0.35604 0.0
C861 C 0.57162 0.10698 0.3528 0.0
C862 C 0.5593 0.05896 0.33344 0.0
C863 C 0.5522 0.07391 0.30713 0.0
C864 C 0.55211 0.10548 0.30482 0.0
C865 C 0.56169 0.12191 0.32751 0.0
C866 C 0.54941 0.05737 0.28083 0.0
C867 C 0.52579 0.06243 0.26278 0.0
C868 C 0.57177 0.03959 0.27182 0.0
C869 C 0.59843 0.03555 0.28864 0.0
C870 C 0.61622 0.06054 0.29439 0.0
C871 C 0.64101 0.05665 0.31078 0.0
C872 C 0.64844 0.02782 0.32117 0.0
C873 C 0.63115 1.00282 0.31512 0.0
C874 C 0.60626 0.00661 0.29884 0.0
C875 C 0.56782 0.04879 0.14906 0.0
C876 C 0.55709 0.02261 0.13714 0.0
C877 C 0.56463 0.05234 0.17815 0.0
C878 C 0.55111 0.02958 0.1958 0.0
C879 C 0.54118 1.00294 0.18423 0.0
C880 C 0.54374 0.99968 0.15488 0.0
C881 C 0.54743 0.03451 0.22628 0.0
C882 C 0.57016 0.02784 0.24486 0.0
C883 C 0.52465 0.0514 0.23544 0.0
C884 C 0.50073 0.05974 0.2159 0.0
C885 C 0.48404 0.03737 0.20324 0.0
C886 C 0.4626 0.04534 0.1836 0.0
C887 C 0.4571 0.07563 0.17697 0.0
C888 C 0.47317 0.09803 0.18991 0.0
C889 C 0.49495 0.09018 0.20927 0.0
H890 H 0.4404 0.08174 0.16183 0.0
H891 H 0.66765 0.02485 0.33386 0.0
H892 H 0.32175 0.61866 0.25412 0.0
H893 H 0.34281 0.59545 0.29778 0.0
H894 H 0.4271 0.6182 0.26486 0.0
H895 H 0.4063 0.64003 0.2207 0.0
H896 H 0.42729 0.56422 0.28967 0.0
H897 H 0.39358 0.65893 0.31701 0.0
H898 H 0.35798 0.69753 0.32281 0.0
H899 H 0.30751 0.63459 0.3765 0.0
H900 H 0.34266 0.59548 0.37072 0.0
H901 H 0.50849 0.55333 0.4182 0.0
H902 H 0.48354 0.57171 0.37485 0.0
H903 H 0.40347 0.53733 0.41076 0.0
H904 H 0.42835 0.51879 0.45435 0.0
H905 H 0.39895 0.59456 0.38519 0.0
H906 H 0.43458 0.5007 0.35969 0.0
H907 H 0.47108 0.46292 0.35451 0.0
H908 H 0.5188 0.52519 0.29764 0.0
H909 H 0.48277 0.56353 0.30281 0.0
C910 C 0.34478 0.61846 0.25597 0.0
C911 C 0.36221 0.63156 0.23375 0.0
C912 C 0.35684 0.60543 0.2812 0.0
C913 C 0.38667 0.60541 0.28504 0.0
C914 C 0.40407 0.61797 0.26268 0.0
C915 C 0.39206 0.63082 0.23744 0.0
C916 C 0.39988 0.59239 0.31219 0.0
C917 C 0.42125 0.57117 0.31049 0.0
C918 C 0.3917 0.60071 0.33962 0.0
C919 C 0.37059 0.6242 0.34318 0.0
C920 C 0.37478 0.65326 0.32988 0.0
C921 C 0.35471 0.67524 0.33319 0.0
C922 C 0.33046 0.66849 0.34994 0.0
C923 C 0.32628 0.63977 0.36349 0.0
C924 C 0.34628 0.6177 0.36022 0.0
C925 C 0.48557 0.54958 0.41694 0.0
C926 C 0.47049 0.53442 0.43983 0.0
C927 C 0.47131 0.56006 0.39202 0.0
C928 C 0.44159 0.55572 0.3893 0.0
C929 C 0.4264 0.54094 0.41225 0.0
C930 C 0.44069 0.53023 0.43715 0.0
C931 C 0.42651 0.56676 0.36255 0.0
C932 C 0.40484 0.58755 0.36434 0.0
C933 C 0.43449 0.55817 0.33519 0.0
C934 C 0.45609 0.53509 0.33184 0.0
C935 C 0.45296 0.50642 0.34624 0.0
C936 C 0.47355 0.48489 0.34328 0.0
C937 C 0.49728 0.49167 0.32581 0.0
C938 C 0.50042 0.51998 0.31119 0.0
C939 C 0.47991 0.54161 0.3141 0.0
H940 H 0.5132 0.47497 0.32355 0.0
H941 H 0.31494 0.68554 0.35249 0.0
H942 H 0.06228 0.35718 0.67908 0.0
H943 H 0.05349 0.3723 0.72741 0.0
H944 H 0.08289 0.46285 0.70212 0.0
H945 H 0.09024 0.44856 0.65331 0.0
H946 H 0.11167 0.42655 0.75298 0.0
H947 H 0.02098 0.45996 0.71235 0.0
H948 H 0.975 0.45174 0.68774 0.0
H949 H 0.94988 0.38405 0.75323 0.0
H950 H 0.99595 0.39154 0.778 0.0
H951 H 0.09343 0.51558 0.86755 0.0
H952 H 0.09499 0.49346 0.82185 0.0
H953 H 0.03264 0.42498 0.85128 0.0
H954 H 0.02936 0.44818 0.89664 0.0
H955 H 0.01951 0.44332 0.79999 0.0
H956 H 0.10515 0.40987 0.84323 0.0
H957 H 0.15096 0.41292 0.86919 0.0
H958 H 0.18615 0.47249 0.80152 0.0
H959 H 0.14041 0.47016 0.77531 0.0
C960 C 0.06603 0.38055 0.68344 0.0
C961 C 0.07717 0.40162 0.66223 0.0
C962 C 0.06121 0.38904 0.71117 0.0
C963 C 0.06773 0.41857 0.71819 0.0
C964 C 0.07789 0.43988 0.697 0.0
C965 C 0.08223 0.4316 0.66919 0.0
C966 C 0.06603 0.42684 0.74809 0.0
C967 C 0.0916 0.43053 0.76329 0.0
C968 C 0.03971 0.43048 0.76172 0.0
C969 C 0.01207 0.42601 0.7468 0.0
C970 C 1.00581 0.44306 0.72131 0.0
C971 C 0.97969 0.4386 0.70738 0.0
C972 C 0.95957 0.4173 0.71885 0.0
C973 C 0.9655 0.40048 0.74433 0.0
C974 C 0.99161 0.40483 0.75832 0.0
C975 C 0.0798 0.49599 0.86453 0.0
C976 C 0.06111 0.484 0.88615 0.0
C977 C 0.08106 0.48302 0.83831 0.0
C978 C 0.06429 0.45722 0.8332 0.0
C979 C 0.04588 0.44485 0.85474 0.0
C980 C 0.04425 0.4581 0.8809 0.0
C981 C 0.06535 0.44404 0.80493 0.0
C982 C 0.03969 0.43916 0.78998 0.0
C983 C 0.09162 0.43852 0.79174 0.0
C984 C 0.11924 0.44001 0.80739 0.0
C985 C 0.12258 0.4238 0.83397 0.0
C986 C 0.14856 0.42537 0.84872 0.0
C987 C 0.17143 0.44294 0.83704 0.0
C988 C 0.1684 0.45891 0.81055 0.0
C989 C 0.14246 0.45744 0.79571 0.0
H990 H 0.19152 0.44412 0.84849 0.0
H991 H 0.93936 0.41389 0.70804 0.0
H992 H 0.76511 0.82882 0.89038 0.0
H993 H 0.72234 0.84841 0.91097 0.0
H994 H 0.74758 0.93802 0.87824 0.0
H995 H 0.79062 0.91866 0.85783 0.0
H996 H 0.71151 0.88447 0.95043 0.0
H997 H 0.6891 0.98105 0.86485 0.0
H998 H 0.6956 0.99294 0.81302 0.0
H999 H 0.69618 0.89862 0.79926 0.0
H1000 H 0.6893 0.88618 0.85092 0.0
H1001 H 0.60891 0.97826 0.00784 0.0
H1002 H 0.65074 0.95819 0.98587 0.0
H1003 H 0.59887 0.93179 0.91485 0.0
H1004 H 0.55703 0.95285 0.93641 0.0
H1005 H 0.64672 0.95115 0.89367 0.0
H1006 H 0.62483 0.8801 0.97216 0.0
H1007 H 0.61483 0.8629 0.02238 0.0
H1008 H 0.69731 0.89712 0.0476 0.0
H1009 H 0.70766 0.91486 0.99757 0.0
C1010 C 0.7619 0.85278 0.88766 0.0
C1011 C 0.7819 0.87191 0.87216 0.0
C1012 C 0.7371 0.86404 0.89949 0.0
C1013 C 0.73105 0.89487 0.89619 0.0
C1014 C 0.75101 0.91408 0.88086 0.0
C1015 C 0.77585 0.90284 0.86902 0.0
C1016 C 0.70418 0.90675 0.90895 0.0
C1017 C 0.6975 0.89915 0.93791 0.0
C1018 C 0.68504 0.92547 0.89292 0.0
C1019 C 0.68901 0.93272 0.8618 0.0
C1020 C 0.69054 0.96286 0.85075 0.0
C1021 C 0.69429 0.96969 0.8214 0.0
C1022 C 0.69641 0.94655 0.80287 0.0
C1023 C 0.69466 0.91653 0.81364 0.0
C1024 C 0.69087 0.90958 0.84296 0.0
C1025 C 0.60624 0.96809 0.98759 0.0
C1026 C 0.57919 0.96713 0.97419 0.0
C1027 C 0.63038 0.95635 0.97498 0.0
C1028 C 0.62843 0.94269 0.94867 0.0
C1029 C 0.60143 0.94199 0.9351 0.0
C1030 C 0.57728 0.95399 0.9476 0.0
C1031 C 0.65437 0.92941 0.93535 0.0
C1032 C 0.66084 0.93667 0.90626 0.0
C1033 C 0.67299 0.90982 0.9511 0.0
C1034 C 0.6669 0.89904 0.98116 0.0
C1035 C 0.64076 0.88412 0.98845 0.0
C1036 C 0.63504 0.87425 0.01687 0.0
C1037 C 0.65539 0.87898 0.03818 0.0
C1038 C 0.68155 0.89351 0.03108 0.0
C1039 C 0.68736 0.90345 1.00269 0.0
H1040 H 0.65092 0.87134 0.06017 0.0
H1041 H 0.69933 0.95188 0.78017 0.0
H1042 H 0.66009 0.127 0.4502 0.0
H1043 H 0.71056 0.11682 0.4585 0.0
H1044 H 0.72357 0.11601 0.3673 0.0
H1045 H 0.67279 0.12459 0.35919 0.0
H1046 H 0.75027 0.07312 0.39108 0.0
H1047 H 0.74711 0.17647 0.40844 0.0
H1048 H 0.72962 0.2219 0.42901 0.0
H1049 H 0.75125 0.18589 0.51339 0.0
H1050 H 0.76839 0.13999 0.49343 0.0
H1051 H 0.90003 0.06216 0.41929 0.0
H1052 H 0.8574 0.08967 0.40322 0.0
H1053 H 0.818 0.06701 0.48524 0.0
H1054 H 0.86007 0.039 0.50079 0.0
H1055 H 0.80936 0.12913 0.45947 0.0
H1056 H 0.80326 0.02202 0.43901 0.0
H1057 H 0.82161 0.97797 0.4167 0.0
H1058 H 0.81923 0.02602 0.33413 0.0
H1059 H 0.80126 0.07053 0.35609 0.0
C1060 C 0.67382 0.12451 0.43204 0.0
C1061 C 0.66274 0.12639 0.40413 0.0
C1062 C 0.70267 0.11904 0.43671 0.0
C1063 C 0.72108 0.11633 0.41348 0.0
C1064 C 0.70987 0.1181 0.38556 0.0
C1065 C 0.6809 0.12291 0.38094 0.0
C1066 C 0.75172 0.11031 0.41843 0.0
C1067 C 0.76329 0.08593 0.40551 0.0
C1068 C 0.7689 0.1269 0.43728 0.0
C1069 C 0.7589 0.15466 0.44942 0.0
C1070 C 0.74799 0.17814 0.43141 0.0
C1071 C 0.73813 0.20399 0.44296 0.0
C1072 C 0.73929 0.20676 0.47249 0.0
C1073 C 0.75036 0.18371 0.49052 0.0
C1074 C 0.76018 0.15778 0.47909 0.0
C1075 C 0.8824 0.06374 0.43389 0.0
C1076 C 0.88288 0.0485 0.46105 0.0
C1077 C 0.85823 0.07936 0.42481 0.0
C1078 C 0.83469 0.08028 0.44313 0.0
C1079 C 0.83605 0.06667 0.47093 0.0
C1080 C 0.85986 0.05059 0.47971 0.0
C1081 C 0.80723 0.09187 0.43253 0.0
C1082 C 0.79633 0.11709 0.44447 0.0
C1083 C 0.79081 0.07651 0.41237 0.0
C1084 C 0.80128 0.04967 0.3992 0.0
C1085 C 0.80689 0.02325 0.41614 0.0
C1086 C 0.81718 0.9982 0.40356 0.0
C1087 C 0.82167 0.99922 0.37403 0.0
C1088 C 0.8158 0.02528 0.35701 0.0
C1089 C 0.80556 0.05042 0.3695 0.0
H1090 H 0.82964 0.9798 0.36432 0.0
H1091 H 0.73166 0.22678 0.4814 0.0
H1092 H 0.30285 0.63837 0.11177 0.0
H1093 H 0.25883 0.61958 0.08997 0.0
H1094 H 0.21965 0.60749 0.17322 0.0
H1095 H 0.26384 0.62609 0.19522 0.0
H1096 H 0.20476 0.56135 0.14306 0.0
H1097 H 0.20496 0.6684 0.12491 0.0
H1098 H 0.22458 0.71848 0.10798 0.0
H1099 H 0.22972 0.68977 0.02249 0.0
H1100 H 0.21049 0.63935 0.039 0.0
H1101 H 0.0618 0.54624 0.09043 0.0
H1102 H 0.10499 0.56533 0.11388 0.0
H1103 H 0.14872 0.57272 0.03284 0.0
H1104 H 0.10565 0.55381 0.00925 0.0
H1105 H 0.16037 0.62172 0.06284 0.0
H1106 H 0.15987 0.51428 0.0817 0.0
H1107 H 0.13915 0.4648 0.09908 0.0
H1108 H 0.13363 0.49497 0.18396 0.0
H1109 H 0.1538 0.54486 0.167 0.0
C1110 C 0.28485 0.63187 0.12549 0.0
C1111 C 0.28694 0.63407 0.1553 0.0
C1112 C 0.25959 0.6211 0.11295 0.0
C1113 C 0.23551 0.61256 0.12978 0.0
C1114 C 0.23777 0.61396 0.15964 0.0
C1115 C 0.26314 0.62457 0.17224 0.0
C1116 C 0.20801 0.60251 0.1162 0.0
C1117 C 0.19489 0.57481 0.1258 0.0
C1118 C 0.19514 0.61966 0.09328 0.0
C1119 C 0.20654 0.65001 0.08325 0.0
C1120 C 0.21046 0.6727 0.10254 0.0
C1121 C 0.22149 0.70116 0.09301 0.0
C1122 C 0.22846 0.70728 0.06419 0.0
C1123 C 0.22434 0.68498 0.04482 0.0
C1124 C 0.21336 0.65647 0.05424 0.0
C1125 C 0.08054 0.55211 0.07753 0.0
C1126 C 0.08017 0.54837 0.0479 0.0
C1127 C 0.10532 0.56288 0.09103 0.0
C1128 C 0.13037 0.57018 0.07525 0.0
C1129 C 0.12979 0.56723 0.04556 0.0
C1130 C 0.10508 0.55633 0.03208 0.0
C1131 C 0.15725 0.58056 0.08962 0.0
C1132 C 0.17024 0.60833 0.08016 0.0
C1133 C 0.1699 0.56353 0.11273 0.0
C1134 C 0.15809 0.53342 0.12302 0.0
C1135 C 0.15405 0.51045 0.10403 0.0
C1136 C 0.14243 0.48231 0.1138 0.0
C1137 C 0.13505 0.47676 0.14258 0.0
C1138 C 0.13933 0.49932 0.16167 0.0
C1139 C 0.15085 0.52753 0.15199 0.0
H1140 H 0.12607 0.45496 0.1501 0.0
H1141 H 0.237 0.72933 0.05686 0.0
H1142 H 0.14538 0.44992 0.59074 0.0
H1143 H 0.19479 0.46503 0.57819 0.0
H1144 H 0.21277 0.37266 0.56509 0.0
H1145 H 0.16385 0.35734 0.57818 0.0
H1146 H 0.25092 0.39817 0.60091 0.0
H1147 H 0.20789 0.42394 0.50901 0.0
H1148 H 0.17395 0.44975 0.47616 0.0
H1149 H 0.20731 0.53556 0.5 0.0
H1150 H 0.24121 0.51024 0.53332 0.0
H1151 H 0.38525 0.40463 0.53924 0.0
H1152 H 0.33367 0.39896 0.54507 0.0
H1153 H 0.32892 0.49416 0.55541 0.0
H1154 H 0.38095 0.49999 0.54935 0.0
H1155 H 0.28387 0.47227 0.52318 0.0
H1156 H 0.32781 0.4474 0.61349 0.0
H1157 H 0.36185 0.42231 0.64673 0.0
H1158 H 0.32623 0.33592 0.62722 0.0
H1159 H 0.29224 0.36048 0.59351 0.0
C1160 C 0.15985 0.43291 0.58494 0.0
C1161 C 0.15072 0.40244 0.58544 0.0
C1162 C 0.18797 0.4416 0.5776 0.0
C1163 C 0.20739 0.41996 0.57065 0.0
C1164 C 0.19809 0.3897 0.57036 0.0
C1165 C 0.17005 0.38103 0.5776 0.0
C1166 C 0.23792 0.42825 0.56567 0.0
C1167 C 0.25812 0.41413 0.58371 0.0
C1168 C 0.2472 0.44995 0.54394 0.0
C1169 C 0.22687 0.46518 0.5239 0.0
C1170 C 0.20782 0.44831 0.50745 0.0
C1171 C 0.18862 0.46285 0.4887 0.0
C1172 C 0.18842 0.49427 0.48606 0.0
C1173 C 0.20746 0.51122 0.50211 0.0
C1174 C 0.22669 0.49679 0.52091 0.0
C1175 C 0.37326 0.42437 0.54277 0.0
C1176 C 0.38716 0.45266 0.54437 0.0
C1177 C 0.34378 0.42113 0.54598 0.0
C1178 C 0.32756 0.44603 0.55125 0.0
C1179 C 0.3411 0.47464 0.5515 0.0
C1180 C 0.37075 0.47794 0.54804 0.0
C1181 C 0.29679 0.44151 0.55793 0.0
C1182 C 0.2766 0.45645 0.54045 0.0
C1183 C 0.28738 0.42067 0.58033 0.0
C1184 C 0.30762 0.40579 0.6008 0.0
C1185 C 0.32736 0.42305 0.61614 0.0
C1186 C 0.34663 0.40892 0.63508 0.0
C1187 C 0.34624 0.37754 0.63904 0.0
C1188 C 0.32652 0.36022 0.62411 0.0
C1189 C 0.30723 0.37424 0.60511 0.0
H1190 H 0.36118 0.36664 0.65372 0.0
H1191 H 0.17354 0.50549 0.47153 0.0
H1192 H 0.82375 0.77519 0.8969 0.0
H1193 H 0.84723 0.73195 0.92046 0.0
H1194 H 0.92815 0.7654 0.88635 0.0
H1195 H 0.90544 0.80956 0.86415 0.0
H1196 H 0.91669 0.70256 0.87863 0.0
H1197 H 0.91605 0.77111 0.95434 0.0
H1198 H 0.89322 0.80411 0.98703 0.0
H1199 H 0.841 0.7294 0.02158 0.0
H1200 H 0.86325 0.69603 0.98878 0.0
H1201 H 0.00881 0.60031 0.95154 0.0
H1202 H 0.98539 0.64515 0.93141 0.0
H1203 H 0.91391 0.62509 0.98795 0.0
H1204 H 0.93827 0.58118 0.00935 0.0
H1205 H 0.91878 0.68098 0.98387 0.0
H1206 H 0.91576 0.61217 0.91027 0.0
H1207 H 0.93439 0.57713 0.87689 0.0
H1208 H 0.98729 0.64847 0.83703 0.0
H1209 H 0.96925 0.68387 0.87044 0.0
C1210 C 0.84664 0.77391 0.89469 0.0
C1211 C 0.86232 0.79647 0.87812 0.0
C1212 C 0.86007 0.74879 0.90813 0.0
C1213 C 0.88961 0.74505 0.90524 0.0
C1214 C 0.90534 0.76737 0.88882 0.0
C1215 C 0.89207 0.79274 0.87582 0.0
C1216 C 0.90412 0.71794 0.91907 0.0
C1217 C 0.91743 0.69806 0.90167 0.0
C1218 C 0.90438 0.71114 0.9491 0.0
C1219 C 0.8911 0.73115 0.9689 0.0
C1220 C 0.89952 0.76177 0.96873 0.0
C1221 C 0.88672 0.78054 0.98731 0.0
C1222 C 0.86562 0.76888 1.00631 0.0
C1223 C 0.85732 0.73841 0.00682 0.0
C1224 C 0.87004 0.71956 0.98826 0.0
C1225 C 0.98815 0.60549 0.95984 0.0
C1226 C 0.97552 0.58685 0.98212 0.0
C1227 C 0.97449 0.63116 0.94802 0.0
C1228 C 0.94717 0.63861 0.9573 0.0
C1229 C 0.9348 0.62025 0.98001 0.0
C1230 C 0.9488 0.59493 0.99232 0.0
C1231 C 0.93167 0.66534 0.94346 0.0
C1232 C 0.91809 0.68522 0.96081 0.0
C1233 C 0.93053 0.67175 0.91326 0.0
C1234 C 0.94136 0.65059 0.89305 0.0
C1235 C 0.9315 0.62034 0.89451 0.0
C1236 C 0.94194 0.60042 0.87557 0.0
C1237 C 0.96207 0.61055 0.8549 0.0
C1238 C 0.97173 0.64065 0.85308 0.0
C1239 C 0.96139 0.66065 0.872 0.0
H1240 H 0.97013 0.59509 0.84026 0.0
H1241 H 0.85573 0.78344 0.02069 0.0
H1242 H 0.41 0.7013 0.16705 0.0
H1243 H 0.43384 0.74659 0.14503 0.0
H1244 H 0.35329 0.77749 0.11207 0.0
H1245 H 0.32879 0.73328 0.13549 0.0
H1246 H 0.4024 0.77905 0.07081 0.0
H1247 H 0.3759 0.8107 0.16378 0.0
H1248 H 0.37451 0.80599 0.21653 0.0
H1249 H 0.46613 0.81057 0.21978 0.0
H1250 H 0.46806 0.81484 0.16701 0.0
H1251 H 0.44109 0.92726 0.01939 0.0
H1252 H 0.41836 0.88184 0.0422 0.0
H1253 H 0.4905 0.87143 0.09931 0.0
H1254 H 0.51256 0.9181 0.0775 0.0
H1255 H 0.44672 0.85767 0.12864 0.0
H1256 H 0.47596 0.82622 0.03848 0.0
H1257 H 0.4808 0.82792 0.98599 0.0
H1258 H 0.38975 0.81878 0.97696 0.0
H1259 H 0.38432 0.81742 0.02941 0.0
C1260 C 0.39708 0.71785 0.15562 0.0
C1261 C 0.36721 0.71329 0.15337 0.0
C1262 C 0.41091 0.7437 0.14278 0.0
C1263 C 0.39537 0.76545 0.12689 0.0
C1264 C 0.36574 0.76091 0.1241 0.0
C1265 C 0.35178 0.73536 0.13741 0.0
C1266 C 0.41006 0.793 0.11331 0.0
C1267 C 0.41181 0.79647 0.08338 0.0
C1268 C 0.42328 0.81513 0.12974 0.0
C1269 C 0.42212 0.81275 0.16145 0.0
C1270 C 0.39575 0.81041 0.17574 0.0
C1271 C 0.39486 0.80788 0.20564 0.0
C1272 C 0.42021 0.80789 0.2215 0.0
C1273 C 0.44651 0.81052 0.20748 0.0
C1274 C 0.44751 0.81301 0.17757 0.0
C1275 C 0.45223 0.91521 0.0367 0.0
C1276 C 0.4788 0.92621 0.04643 0.0
C1277 C 0.43925 0.88901 0.04968 0.0
C1278 C 0.45286 0.87246 0.07218 0.0
C1279 C 0.47943 0.88352 0.08199 0.0
C1280 C 0.49215 0.91018 0.06941 0.0
C1281 C 0.43907 0.84412 0.0858 0.0
C1282 C 0.43748 0.84036 0.11585 0.0
C1283 C 0.42657 0.82132 0.06943 0.0
C1284 C 0.42973 0.822 0.03788 0.0
C1285 C 0.45696 0.82477 0.0253 0.0
C1286 C 0.45981 0.82565 0.99555 0.0
C1287 C 0.4356 0.82353 0.97815 0.0
C1288 C 0.40848 0.82045 0.99047 0.0
C1289 C 0.40551 0.81959 0.02021 0.0
H1290 H 0.43785 0.82422 0.95512 0.0
H1291 H 0.41948 0.80594 0.24465 0.0
H1292 H 0.1066 0.3078 0.57937 0.0
H1293 H 0.0845 0.26214 0.56237 0.0
H1294 H 1.00122 0.29938 0.56914 0.0
H1295 H 0.02346 0.34553 0.5866 0.0
H1296 H 1.00055 0.24261 0.59084 0.0
H1297 H 0.03044 0.29179 0.50317 0.0
H1298 H 0.06238 0.32032 0.46875 0.0
H1299 H 0.12061 0.24783 0.47355 0.0
H1300 H 0.08929 0.21905 0.50837 0.0
H1301 H 0.96051 0.10429 0.51799 0.0
H1302 H 0.96469 0.15812 0.52682 0.0
H1303 H 0.05233 0.14745 0.55281 0.0
H1304 H 0.04828 0.09405 0.54491 0.0
H1305 H 0.03921 0.19574 0.50669 0.0
H1306 H 0.01194 0.15311 0.6025 0.0
H1307 H 0.97877 0.12501 0.63606 0.0
H1308 H 0.91285 0.18665 0.61258 0.0
H1309 H 0.94556 0.21487 0.57855 0.0
C1310 C 0.08361 0.30659 0.57675 0.0
C1311 C 0.06679 0.33044 0.58393 0.0
C1312 C 0.07098 0.28042 0.56701 0.0
C1313 C 0.04123 0.27756 0.56387 0.0
C1314 C 0.02424 0.30123 0.57119 0.0
C1315 C 0.03694 0.32751 0.58116 0.0
C1316 C 0.02832 0.24907 0.55419 0.0
C1317 C 0.00845 0.23271 0.572 0.0
C1318 C 0.03852 0.23611 0.52957 0.0
C1319 C 0.0575 0.25329 0.50852 0.0
C1320 C 0.05014 0.282 0.49705 0.0
C1321 C 0.06814 0.29821 0.47744 0.0
C1322 C 0.09352 0.28591 0.46899 0.0
C1323 C 0.10094 0.25734 0.48011 0.0
C1324 C 0.08304 0.24103 0.49976 0.0
C1325 C 0.98055 0.11341 0.52588 0.0
C1326 C 1.00411 0.09493 0.53063 0.0
C1327 C 0.98287 0.14407 0.53087 0.0
C1328 C 0.00887 0.15659 0.54025 0.0
C1329 C 0.03216 0.13812 0.54542 0.0
C1330 C 0.02975 0.10756 0.54094 0.0
C1331 C 0.01266 0.18911 0.54401 0.0
C1332 C 0.03076 0.20614 0.525 0.0
C1333 C 1.00059 0.20275 0.56724 0.0
C1334 C 0.98103 0.18581 0.5877 0.0
C1335 C 0.99027 0.16046 0.60426 0.0
C1336 C 0.97159 0.14456 0.62342 0.0
C1337 C 0.94368 0.15396 0.62637 0.0
C1338 C 0.93444 0.17934 0.61022 0.0
C1339 C 0.95304 0.1953 0.591 0.0
H1340 H 0.92925 0.14164 0.64122 0.0
H1341 H 0.10742 0.2985 0.45381 0.0
H1342 H 0.57332 0.21266 0.36335 0.0
H1343 H 0.56325 0.26443 0.37334 0.0
H1344 H 0.58513 0.24504 0.4622 0.0
H1345 H 0.5959 0.19344 0.4521 0.0
H1346 H 0.52738 0.28976 0.40525 0.0
H1347 H 0.6184 0.30482 0.4891 0.0
H1348 H 0.66644 0.28575 0.49937 0.0
H1349 H 0.67603 0.26741 0.41116 0.0
H1350 H 0.62828 0.28683 0.40024 0.0
H1351 H 0.50005 0.40529 0.49319 0.0
H1352 H 0.51251 0.35854 0.47313 0.0
H1353 H 0.58604 0.40325 0.43211 0.0
H1354 H 0.57399 0.45036 0.4527 0.0
H1355 H 0.59965 0.35013 0.45669 0.0
H1356 H 0.52819 0.38535 0.39243 0.0
H1357 H 0.4821 0.40647 0.37747 0.0
H1358 H 0.4376 0.3287 0.41684 0.0
H1359 H 0.48341 0.30729 0.43242 0.0
C1360 C 0.57557 0.21939 0.38508 0.0
C1361 C 0.58541 0.1992 0.40699 0.0
C1362 C 0.56993 0.24895 0.39073 0.0
C1363 C 0.57396 0.25873 0.41838 0.0
C1364 C 0.58257 0.23816 0.44055 0.0
C1365 C 0.58854 0.20871 0.43484 0.0
C1366 C 0.56946 0.29051 0.42403 0.0
C1367 C 0.54321 0.303 0.4164 0.0
C1368 C 0.59055 0.30813 0.43767 0.0
C1369 C 0.61962 0.29707 0.44392 0.0
C1370 C 0.63083 0.29691 0.47185 0.0
C1371 C 0.658 0.28599 0.47779 0.0
C1372 C 0.67423 0.2753 0.45595 0.0
C1373 C 0.66339 0.27562 0.42808 0.0
C1374 C 0.63627 0.28656 0.42201 0.0
C1375 C 0.51882 0.40532 0.4798 0.0
C1376 C 0.53599 0.43156 0.47441 0.0
C1377 C 0.52584 0.37857 0.46824 0.0
C1378 C 0.54994 0.37756 0.45078 0.0
C1379 C 0.56727 0.40364 0.44545 0.0
C1380 C 0.56033 0.4305 0.45715 0.0
C1381 C 0.55717 0.34888 0.43887 0.0
C1382 C 0.58395 0.33699 0.44527 0.0
C1383 C 0.53693 0.33217 0.42327 0.0
C1384 C 0.50927 0.34479 0.41375 0.0
C1385 C 0.50857 0.37283 0.39806 0.0
C1386 C 0.48249 0.38485 0.38945 0.0
C1387 C 0.45693 0.36896 0.39624 0.0
C1388 C 0.45741 0.34098 0.4116 0.0
C1389 C 0.48344 0.32887 0.42029 0.0
H1390 H 0.43676 0.37831 0.38956 0.0
H1391 H 0.69523 0.26681 0.4606 0.0
loop_
_geom_bond_atom_site_label_1
_geom_bond_atom_site_label_2
_geom_bond_distance
_geom_bond_site_symmetry_2
_ccdc_geom_bond_type
H0 C3 0.931 . S
H1 C6 0.928 . S
H2 C8 0.930 . S
C3 H0 0.931 . S
C3 C4 1.413 . S
C3 C5 1.360 . S
C4 C3 1.413 . S
C4 C8 1.429 . S
C5 C3 1.360 . S
C5 C6 1.372 . S
C6 H1 0.928 . S
C6 C5 1.372 . S
C6 C7 1.404 . S
C7 C6 1.404 . S
C7 C8 1.391 . S
C8 H2 0.930 . S
C8 C4 1.429 . S
C8 C7 1.391 . S
H9 C12 0.931 . S
H10 C15 0.928 . S
H11 C17 0.930 . S
C12 H9 0.931 . S
C12 C13 1.413 . S
C12 C14 1.360 . S
C13 C12 1.413 . S
C13 C17 1.429 . S
C14 C12 1.360 . S
C14 C15 1.372 . S
C15 H10 0.928 . S
C15 C14 1.372 . S
C15 C16 1.404 . S
C16 C15 1.404 . S
C16 C17 1.391 . S
C17 H11 0.930 . S
C17 C13 1.429 . S
C17 C16 1.391 . S
H18 C21 0.931 . S
H19 C24 0.928 . S
H20 C26 0.930 . S
C21 H18 0.931 . S
C21 C22 1.413 . S
C21 C23 1.360 . S
C22 C21 1.413 . S
C22 C26 1.429 . S
C23 C21 1.360 . S
C23 C24 1.372 . S
C24 H19 0.928 . S
C24 C23 1.372 . S
C24 C25 1.404 . S
C25 C24 1.404 . S
C25 C26 1.391 . S
C26 H20 0.930 . S
C26 C22 1.429 . S
C26 C25 1.391 . S
H27 C30 0.931 . S
H28 C33 0.928 . S
H29 C35 0.930 . S
C30 H27 0.931 . S
C30 C31 1.413 . S
C30 C32 1.360 . S
C31 C30 1.413 . S
C31 C35 1.429 . S
C32 C30 1.360 . S
C32 C33 1.372 . S
C33 H28 0.928 . S
C33 C32 1.372 . S
C33 C34 1.404 . S
C34 C33 1.404 . S
C34 C35 1.391 . S
C35 H29 0.930 . S
C35 C31 1.429 . S
C35 C34 1.391 . S
H36 C39 0.931 . S
H37 C42 0.928 . S
H38 C44 0.930 . S
C39 H36 0.931 . S
C39 C40 1.413 . S
C39 C41 1.360 . S
C40 C39 1.413 . S
C40 C44 1.429 . S
C41 C39 1.360 . S
C41 C42 1.372 . S
C42 H37 0.928 . S
C42 C41 1.372 . S
C42 C43 1.404 . S
C43 C42 1.404 . S
C43 C44 1.391 . S
C44 H38 0.930 . S
C44 C40 1.429 . S
C44 C43 1.391 . S
H45 C48 0.931 . S
H46 C51 0.928 . S
H47 C53 0.930 . S
C48 H45 0.931 . S
C48 C49 1.413 . S
C48 C50 1.360 . S
C49 C48 1.413 . S
C49 C53 1.429 . S
C50 C48 1.360 . S
C50 C51 1.372 . S
C51 H46 0.928 . S
C51 C50 1.372 . S
C51 C52 1.404 . S
C52 C51 1.404 . S
C52 C53 1.391 . S
C53 H47 0.930 . S
C53 C49 1.429 . S
C53 C52 1.391 . S
H54 C57 0.931 . S
H55 C60 0.928 . S
H56 C62 0.930 . S
C57 H54 0.931 . S
C57 C58 1.413 . S
C57 C59 1.360 . S
C58 C57 1.413 . S
C58 C62 1.429 . S
C59 C57 1.360 . S
C59 C60 1.372 . S
C60 H55 0.928 . S
C60 C59 1.372 . S
C60 C61 1.404 . S
C61 C60 1.404 . S
C61 C62 1.391 . S
C62 H56 0.930 . S
C62 C58 1.429 . S
C62 C61 1.391 . S
H63 C66 0.931 . S
H64 C69 0.928 . S
H65 C71 0.930 . S
C66 H63 0.931 . S
C66 C67 1.413 . S
C66 C68 1.360 . S
C67 C66 1.413 . S
C67 C71 1.429 . S
C68 C66 1.360 . S
C68 C69 1.372 . S
C69 H64 0.928 . S
C69 C68 1.372 . S
C69 C70 1.404 . S
C70 C69 1.404 . S
C70 C71 1.391 . S
C71 H65 0.930 . S
C71 C67 1.429 . S
C71 C70 1.391 . S
Co72 N77 2.057 . S
Co72 O89 2.021 . S
Co72 O92 2.062 . S
Co72 O96 2.117 1_545 S
Co72 O97 2.020 1_545 S
C73 O93 1.259 1_655 S
C73 O96 1.258 . S
Co74 N83 2.057 . S
Co74 O90 2.117 1_565 S
Co74 O91 2.020 1_565 S
Co74 O93 2.021 . S
Co74 O98 2.062 . S
C75 N77 1.316 . S
C75 N78 1.347 . S
C75 H80 0.931 . S
C76 N77 1.375 1_565 S
C76 C79 1.350 1_565 S
C76 H81 0.930 . S
N77 Co72 2.057 . S
N77 C75 1.316 . S
N77 C76 1.375 1_545 S
N78 C75 1.347 . S
N78 C79 1.373 . S
C79 C76 1.350 1_545 S
C79 N78 1.373 . S
C79 H100 0.930 1_545 S
H80 C75 0.931 . S
H81 C76 0.930 . S
C82 O89 1.259 1_455 S
C82 O90 1.258 . S
N83 Co74 2.057 . S
N83 C84 1.316 . S
N83 C85 1.375 1_565 S
C84 N83 1.316 . S
C84 N86 1.347 . S
C84 H95 0.931 . S
C85 N83 1.375 1_545 S
C85 C87 1.350 1_545 S
C85 H94 0.930 . S
N86 C84 1.347 . S
N86 C87 1.373 . S
C87 C85 1.350 1_565 S
C87 N86 1.373 . S
C87 H101 0.931 1_565 S
C88 O91 1.256 . S
C88 O92 1.255 1_455 S
O89 Co72 2.021 . S
O89 C82 1.259 1_655 S
O90 Co74 2.117 1_545 S
O90 C82 1.258 . S
O91 Co74 2.020 1_545 S
O91 C88 1.256 . S
O92 Co72 2.062 . S
O92 C88 1.255 1_655 S
O93 C73 1.259 1_455 S
O93 Co74 2.021 . S
H94 C85 0.930 . S
H95 C84 0.931 . S
O96 Co72 2.117 1_565 S
O96 C73 1.258 . S
O97 Co72 2.020 1_565 S
O97 C99 1.256 . S
O98 Co74 2.062 . S
O98 C99 1.255 1_455 S
C99 O97 1.256 . S
C99 O98 1.255 1_655 S
H100 C79 0.930 1_565 S
H101 C87 0.931 1_545 S
Co102 N107 2.057 . S
Co102 O119 2.021 1_565 S
Co102 O122 2.062 . S
Co102 O126 2.113 1_556 S
Co102 O127 2.020 1_565 S
C103 O123 1.259 . S
C103 O126 1.265 . S
Co104 N113 2.057 . S
Co104 O120 2.117 . S
Co104 O121 2.020 1_545 S
Co104 O123 2.021 1_545 S
Co104 O128 2.062 . S
C105 N107 1.316 . S
C105 N108 1.347 . S
C105 H110 0.931 1_565 S
C106 N107 1.375 . S
C106 C109 1.350 . S
C106 H111 0.930 . S
N107 Co102 2.057 . S
N107 C105 1.316 . S
N107 C106 1.375 . S
N108 C105 1.347 . S
N108 C109 1.373 . S
C109 C106 1.350 . S
C109 N108 1.373 . S
C109 H130 0.931 . S
H110 C105 0.931 1_545 S
H111 C106 0.930 . S
C112 O119 1.259 . S
C112 O120 1.258 1_556 S
N113 Co104 2.057 . S
N113 C114 1.316 . S
N113 C115 1.375 . S
C114 N113 1.316 . S
C114 N116 1.347 . S
C114 H125 0.931 1_545 S
C115 N113 1.375 . S
C115 C117 1.350 . S
C115 H124 0.930 . S
N116 C114 1.347 . S
N116 C117 1.373 . S
C117 C115 1.350 . S
C117 N116 1.373 . S
C117 H131 0.931 . S
C118 O121 1.256 1_556 S
C118 O122 1.255 . S
O119 Co102 2.021 1_545 S
O119 C112 1.259 . S
O120 Co104 2.117 . S
O120 C112 1.258 1_554 S
O121 Co104 2.020 1_565 S
O121 C118 1.256 1_554 S
O122 Co102 2.062 . S
O122 C118 1.255 . S
O123 C103 1.259 . S
O123 Co104 2.021 1_565 S
H124 C115 0.930 . S
H125 C114 0.931 1_565 S
O126 Co102 2.113 1_554 S
O126 C103 1.265 . S
O127 Co102 2.020 1_545 S
O127 C129 1.256 1_556 S
O128 Co104 2.062 . S
O128 C129 1.255 . S
C129 O127 1.256 1_554 S
C129 O128 1.255 . S
H130 C109 0.931 . S
H131 C117 0.931 . S
Co132 N137 2.057 . S
Co132 O149 2.021 . S
Co132 O152 2.062 . S
Co132 O156 2.117 . S
Co132 O157 2.020 . S
C133 O153 1.259 . S
C133 O156 1.258 . S
Co134 N143 2.057 . S
Co134 O150 2.117 . S
Co134 O151 2.020 . S
Co134 O153 2.021 . S
Co134 O158 2.062 . S
C135 N137 1.316 . S
C135 N138 1.347 . S
C135 H140 0.931 . S
C136 N137 1.375 . S
C136 C139 1.350 . S
C136 H141 0.930 . S
N137 Co132 2.057 . S
N137 C135 1.316 . S
N137 C136 1.375 . S
N138 C135 1.347 . S
N138 C139 1.373 . S
C139 C136 1.350 . S
C139 N138 1.373 . S
C139 H160 0.931 . S
H140 C135 0.931 . S
H141 C136 0.930 . S
C142 O149 1.259 . S
C142 O150 1.258 . S
N143 Co134 2.057 . S
N143 C144 1.316 . S
N143 C145 1.375 . S
C144 N143 1.316 . S
C144 N146 1.347 . S
C144 H155 0.931 . S
C145 N143 1.375 . S
C145 C147 1.350 . S
C145 H154 0.930 . S
N146 C144 1.347 . S
N146 C147 1.373 . S
C147 C145 1.350 . S
C147 N146 1.373 . S
C147 H161 0.931 . S
C148 O151 1.256 . S
C148 O152 1.255 . S
O149 Co132 2.021 . S
O149 C142 1.259 . S
O150 Co134 2.117 . S
O150 C142 1.258 . S
O151 Co134 2.020 . S
O151 C148 1.256 . S
O152 Co132 2.062 . S
O152 C148 1.255 . S
O153 C133 1.259 . S
O153 Co134 2.021 . S
H154 C145 0.930 . S
H155 C144 0.931 . S
O156 Co132 2.117 . S
O156 C133 1.258 . S
O157 Co132 2.020 . S
O157 C159 1.256 . S
O158 Co134 2.062 . S
O158 C159 1.255 . S
C159 O157 1.256 . S
C159 O158 1.255 . S
H160 C139 0.931 . S
H161 C147 0.931 . S
Co162 N167 2.057 . S
Co162 O179 2.021 . S
Co162 O182 2.062 . S
Co162 O186 2.117 1_455 S
Co162 O187 2.010 1_455 S
C163 O183 1.259 1_556 S
C163 O186 1.258 . S
Co164 N173 2.057 . S
Co164 O180 2.117 1_655 S
Co164 O181 2.020 1_655 S
Co164 O183 2.021 . S
Co164 O188 2.062 . S
C165 N167 1.316 . S
C165 N168 1.347 . S
C165 H170 0.931 . S
C166 N167 1.375 1_655 S
C166 C169 1.350 1_655 S
C166 H171 0.930 . S
N167 Co162 2.057 . S
N167 C165 1.316 . S
N167 C166 1.375 1_455 S
N168 C165 1.347 . S
N168 C169 1.373 . S
C169 C166 1.350 1_455 S
C169 N168 1.373 . S
C169 H190 0.931 1_455 S
H170 C165 0.931 . S
H171 C166 0.930 . S
C172 O179 1.259 1_554 S
C172 O180 1.258 . S
N173 Co164 2.057 . S
N173 C174 1.316 . S
N173 C175 1.375 1_655 S
C174 N173 1.316 . S
C174 N176 1.347 . S
C174 H185 0.931 . S
C175 N173 1.375 1_455 S
C175 C177 1.350 1_455 S
C175 H184 0.930 . S
N176 C174 1.347 . S
N176 C177 1.373 . S
C177 C175 1.350 1_655 S
C177 N176 1.373 . S
C177 H191 0.931 1_655 S
C178 O181 1.256 . S
C178 O182 1.255 1_554 S
O179 Co162 2.021 . S
O179 C172 1.259 1_556 S
O180 Co164 2.117 1_455 S
O180 C172 1.258 . S
O181 Co164 2.020 1_455 S
O181 C178 1.256 . S
O182 Co162 2.062 . S
O182 C178 1.255 1_556 S
O183 C163 1.259 1_554 S
O183 Co164 2.021 . S
H184 C175 0.930 . S
H185 C174 0.931 . S
O186 Co162 2.117 1_655 S
O186 C163 1.258 . S
O187 Co162 2.010 1_655 S
O187 C189 1.269 . S
O188 Co164 2.062 . S
O188 C189 1.255 1_554 S
C189 O187 1.269 . S
C189 O188 1.255 1_556 S
H190 C169 0.931 1_655 S
H191 C177 0.931 1_455 S
H192 C210 0.951 . S
H193 C212 0.951 . S
H194 C214 0.950 . S
H195 C215 0.950 . S
H196 C217 0.950 . S
H197 C220 0.950 . S
H198 C221 0.950 1_655 S
H199 C223 0.950 . S
H200 C224 0.950 1_565 S
H201 C225 0.951 . S
H202 C227 0.951 . S
H203 C229 0.950 . S
H204 C230 0.950 1_565 S
H205 C232 0.950 . S
H206 C235 0.950 . S
H207 C236 0.950 . S
H208 C238 0.950 . S
H209 C239 0.950 . S
C210 H192 0.951 . S
C210 C211 1.366 . S
C210 C212 1.388 . S
C211 C210 1.366 . S
C211 C215 1.385 . S
C212 H193 0.951 . S
C212 C210 1.388 . S
C212 C213 1.366 . S
C213 C212 1.366 . S
C213 C214 1.414 . S
C213 C216 1.499 . S
C214 H194 0.950 . S
C214 C213 1.414 . S
C214 C215 1.374 . S
C215 H195 0.950 . S
C215 C211 1.385 . S
C215 C214 1.374 . S
C216 C213 1.499 . S
C216 C217 1.373 . S
C216 C218 1.389 . S
C217 H196 0.950 . S
C217 C216 1.373 . S
C217 C233 1.377 . S
C218 C216 1.389 . S
C218 C219 1.524 . S
C218 C232 1.377 . S
C219 C218 1.524 . S
C219 C220 1.397 . S
C219 C224 1.363 . S
C220 H197 0.950 . S
C220 C219 1.397 . S
C220 C221 1.334 . S
C221 H198 0.950 1_455 S
C221 C220 1.334 . S
C221 C222 1.287 . S
C222 C221 1.287 . S
C222 C223 1.524 1_545 S
C222 H241 0.913 1_455 S
C223 H199 0.950 . S
C223 C222 1.524 1_565 S
C223 C224 1.415 1_565 S
C224 H200 0.950 1_545 S
C224 C219 1.363 . S
C224 C223 1.415 1_545 S
C225 H201 0.951 . S
C225 C226 1.366 . S
C225 C227 1.388 . S
C226 C225 1.366 . S
C226 C230 1.385 . S
C227 H202 0.951 . S
C227 C225 1.388 . S
C227 C228 1.366 . S
C228 C227 1.366 . S
C228 C229 1.414 . S
C228 C231 1.499 . S
C229 H203 0.950 . S
C229 C228 1.414 . S
C229 C230 1.374 . S
C230 H204 0.950 1_545 S
C230 C226 1.385 . S
C230 C229 1.374 . S
C231 C228 1.499 . S
C231 C232 1.373 . S
C231 C233 1.389 . S
C232 H205 0.950 . S
C232 C218 1.377 . S
C232 C231 1.373 . S
C233 C217 1.377 . S
C233 C231 1.389 . S
C233 C234 1.524 . S
C234 C233 1.524 . S
C234 C235 1.397 . S
C234 C239 1.363 . S
C235 H206 0.950 . S
C235 C234 1.397 . S
C235 C236 1.334 . S
C236 H207 0.950 . S
C236 C235 1.334 . S
C236 C237 1.287 . S
C237 C236 1.287 . S
C237 C238 1.524 . S
C237 H240 0.999 . S
C238 H208 0.950 . S
C238 C237 1.524 . S
C238 C239 1.415 . S
C239 H209 0.950 . S
C239 C234 1.363 . S
C239 C238 1.415 . S
H240 C237 0.999 . S
H241 C222 0.913 1_655 S
H242 C260 0.951 . S
H243 C262 0.951 . S
H244 C264 0.950 . S
H245 C265 0.950 . S
H246 C267 0.950 . S
H247 C270 0.950 . S
H248 C271 0.950 . S
H249 C273 0.950 . S
H250 C274 0.950 . S
H251 C275 0.951 . S
H252 C277 0.951 . S
H253 C279 0.950 . S
H254 C280 0.950 . S
H255 C282 0.950 . S
H256 C285 0.950 . S
H257 C286 0.950 . S
H258 C288 0.950 . S
H259 C289 0.950 . S
C260 H242 0.951 . S
C260 C261 1.366 . S
C260 C262 1.388 . S
C261 C260 1.366 . S
C261 C265 1.385 . S
C262 H243 0.951 . S
C262 C260 1.388 . S
C262 C263 1.366 . S
C263 C262 1.366 . S
C263 C264 1.414 . S
C263 C266 1.499 . S
C264 H244 0.950 . S
C264 C263 1.414 . S
C264 C265 1.374 . S
C265 H245 0.950 . S
C265 C261 1.385 . S
C265 C264 1.374 . S
C266 C263 1.499 . S
C266 C267 1.373 . S
C266 C268 1.389 . S
C267 H246 0.950 . S
C267 C266 1.373 . S
C267 C283 1.377 . S
C268 C266 1.389 . S
C268 C269 1.524 . S
C268 C282 1.377 . S
C269 C268 1.524 . S
C269 C270 1.397 . S
C269 C274 1.363 . S
C270 H247 0.950 . S
C270 C269 1.397 . S
C270 C271 1.334 . S
C271 H248 0.950 . S
C271 C270 1.334 . S
C271 C272 1.287 . S
C272 C271 1.287 . S
C272 C273 1.524 . S
C272 H291 0.913 . S
C273 H249 0.950 . S
C273 C272 1.524 . S
C273 C274 1.415 . S
C274 H250 0.950 . S
C274 C269 1.363 . S
C274 C273 1.415 . S
C275 H251 0.951 . S
C275 C276 1.366 . S
C275 C277 1.388 . S
C276 C275 1.366 . S
C276 C280 1.385 . S
C277 H252 0.951 . S
C277 C275 1.388 . S
C277 C278 1.366 . S
C278 C277 1.366 . S
C278 C279 1.414 . S
C278 C281 1.499 . S
C279 H253 0.950 . S
C279 C278 1.414 . S
C279 C280 1.374 . S
C280 H254 0.950 . S
C280 C276 1.385 . S
C280 C279 1.374 . S
C281 C278 1.499 . S
C281 C282 1.373 . S
C281 C283 1.389 . S
C282 H255 0.950 . S
C282 C268 1.377 . S
C282 C281 1.373 . S
C283 C267 1.377 . S
C283 C281 1.389 . S
C283 C284 1.524 . S
C284 C283 1.524 . S
C284 C285 1.397 . S
C284 C289 1.363 . S
C285 H256 0.950 . S
C285 C284 1.397 . S
C285 C286 1.334 . S
C286 H257 0.950 . S
C286 C285 1.334 . S
C286 C287 1.287 . S
C287 C286 1.287 . S
C287 C288 1.524 . S
C287 H290 0.999 . S
C288 H258 0.950 . S
C288 C287 1.524 . S
C288 C289 1.415 . S
C289 H259 0.950 . S
C289 C284 1.363 . S
C289 C288 1.415 . S
H290 C287 0.999 . S
H291 C272 0.913 . S
H292 C310 0.951 . S
H293 C312 0.951 . S
H294 C314 0.950 . S
H295 C315 0.950 . S
H296 C317 0.950 . S
H297 C320 0.950 . S
H298 C321 0.950 . S
H299 C323 0.950 . S
H300 C324 0.950 . S
H301 C325 0.951 . S
H302 C327 0.951 . S
H303 C329 0.950 . S
H304 C330 0.950 . S
H305 C332 0.950 . S
H306 C335 0.950 . S
H307 C336 0.950 . S
H308 C338 0.950 . S
H309 C339 0.950 . S
C310 H292 0.951 . S
C310 C311 1.366 . S
C310 C312 1.388 . S
C311 C310 1.366 . S
C311 C315 1.385 . S
C312 H293 0.951 . S
C312 C310 1.388 . S
C312 C313 1.366 . S
C313 C312 1.366 . S
C313 C314 1.414 . S
C313 C316 1.499 . S
C314 H294 0.950 . S
C314 C313 1.414 . S
C314 C315 1.374 . S
C315 H295 0.950 . S
C315 C311 1.385 . S
C315 C314 1.374 . S
C316 C313 1.499 . S
C316 C317 1.373 . S
C316 C318 1.389 . S
C317 H296 0.950 . S
C317 C316 1.373 . S
C317 C333 1.377 . S
C318 C316 1.389 . S
C318 C319 1.524 . S
C318 C332 1.377 . S
C319 C318 1.524 . S
C319 C320 1.397 . S
C319 C324 1.363 . S
C320 H297 0.950 . S
C320 C319 1.397 . S
C320 C321 1.334 . S
C321 H298 0.950 . S
C321 C320 1.334 . S
C321 C322 1.287 . S
C322 C321 1.287 . S
C322 C323 1.524 . S
C322 H341 0.913 . S
C323 H299 0.950 . S
C323 C322 1.524 . S
C323 C324 1.415 . S
C324 H300 0.950 . S
C324 C319 1.363 . S
C324 C323 1.415 . S
C325 H301 0.951 . S
C325 C326 1.366 . S
C325 C327 1.388 . S
C326 C325 1.366 . S
C326 C330 1.385 . S
C327 H302 0.951 . S
C327 C325 1.388 . S
C327 C328 1.366 . S
C328 C327 1.366 . S
C328 C329 1.414 . S
C328 C331 1.499 . S
C329 H303 0.950 . S
C329 C328 1.414 . S
C329 C330 1.374 . S
C330 H304 0.950 . S
C330 C326 1.385 . S
C330 C329 1.374 . S
C331 C328 1.499 . S
C331 C332 1.373 . S
C331 C333 1.389 . S
C332 H305 0.950 . S
C332 C318 1.377 . S
C332 C331 1.373 . S
C333 C317 1.377 . S
C333 C331 1.389 . S
C333 C334 1.524 . S
C334 C333 1.524 . S
C334 C335 1.397 . S
C334 C339 1.363 . S
C335 H306 0.950 . S
C335 C334 1.397 . S
C335 C336 1.334 . S
C336 H307 0.950 . S
C336 C335 1.334 . S
C336 C337 1.287 . S
C337 C336 1.287 . S
C337 C338 1.524 . S
C337 H340 0.999 . S
C338 H308 0.950 . S
C338 C337 1.524 . S
C338 C339 1.415 . S
C339 H309 0.950 . S
C339 C334 1.363 . S
C339 C338 1.415 . S
H340 C337 0.999 . S
H341 C322 0.913 . S
H342 C360 0.951 . S
H343 C362 0.951 . S
H344 C364 0.950 . S
H345 C365 0.950 . S
H346 C367 0.950 . S
H347 C370 0.950 . S
H348 C371 0.950 . S
H349 C373 0.949 1_455 S
H350 C374 0.950 . S
H351 C375 0.951 . S
H352 C377 0.951 . S
H353 C379 0.950 . S
H354 C380 0.950 . S
H355 C382 0.950 . S
H356 C385 0.950 . S
H357 C386 0.950 . S
H358 C388 0.950 . S
H359 C389 0.950 . S
C360 H342 0.951 . S
C360 C361 1.366 . S
C360 C362 1.388 . S
C361 C360 1.366 . S
C361 C365 1.385 . S
C362 H343 0.951 . S
C362 C360 1.388 . S
C362 C363 1.366 . S
C363 C362 1.366 . S
C363 C364 1.414 . S
C363 C366 1.499 . S
C364 H344 0.950 . S
C364 C363 1.414 . S
C364 C365 1.374 . S
C365 H345 0.950 . S
C365 C361 1.385 . S
C365 C364 1.374 . S
C366 C363 1.499 . S
C366 C367 1.373 . S
C366 C368 1.389 . S
C367 H346 0.950 . S
C367 C366 1.373 . S
C367 C383 1.377 . S
C368 C366 1.389 . S
C368 C369 1.524 . S
C368 C382 1.377 . S
C369 C368 1.524 . S
C369 C370 1.397 . S
C369 C374 1.363 . S
C370 H347 0.950 . S
C370 C369 1.397 . S
C370 C371 1.334 1_655 S
C371 H348 0.950 . S
C371 C370 1.334 1_455 S
C371 C372 1.287 . S
C372 C371 1.287 . S
C372 C373 1.524 1_455 S
C372 H391 0.913 . S
C373 H349 0.949 1_655 S
C373 C372 1.524 1_655 S
C373 C374 1.415 . S
C374 H350 0.950 . S
C374 C369 1.363 . S
C374 C373 1.415 . S
C375 H351 0.951 . S
C375 C376 1.366 . S
C375 C377 1.388 . S
C376 C375 1.366 . S
C376 C380 1.385 . S
C377 H352 0.951 . S
C377 C375 1.388 . S
C377 C378 1.366 . S
C378 C377 1.366 . S
C378 C379 1.414 . S
C378 C381 1.499 . S
C379 H353 0.950 . S
C379 C378 1.414 . S
C379 C380 1.374 . S
C380 H354 0.950 . S
C380 C376 1.385 . S
C380 C379 1.374 . S
C381 C378 1.499 . S
C381 C382 1.373 . S
C381 C383 1.389 . S
C382 H355 0.950 . S
C382 C368 1.377 . S
C382 C381 1.373 . S
C383 C367 1.377 . S
C383 C381 1.389 . S
C383 C384 1.524 . S
C384 C383 1.524 . S
C384 C385 1.397 . S
C384 C389 1.363 . S
C385 H356 0.950 . S
C385 C384 1.397 . S
C385 C386 1.334 . S
C386 H357 0.950 . S
C386 C385 1.334 . S
C386 C387 1.287 . S
C387 C386 1.287 . S
C387 C388 1.524 . S
C387 H390 0.999 . S
C388 H358 0.950 . S
C388 C387 1.524 . S
C388 C389 1.415 . S
C389 H359 0.950 . S
C389 C384 1.363 . S
C389 C388 1.415 . S
H390 C387 0.999 . S
H391 C372 0.913 . S
H392 C410 0.951 . S
H393 C412 0.951 . S
H394 C414 0.950 . S
H395 C415 0.950 . S
H396 C417 0.950 . S
H397 C420 0.950 . S
H398 C421 0.950 . S
H399 C423 0.950 . S
H400 C424 0.950 . S
H401 C425 0.951 1_565 S
H402 C427 0.951 . S
H403 C429 0.950 . S
H404 C430 0.950 . S
H405 C432 0.950 . S
H406 C435 0.950 . S
H407 C436 0.950 . S
H408 C438 0.950 . S
H409 C439 0.950 . S
C410 H392 0.951 . S
C410 C411 1.366 . S
C410 C412 1.388 . S
C411 C410 1.366 . S
C411 C415 1.385 . S
C412 H393 0.951 . S
C412 C410 1.388 . S
C412 C413 1.366 . S
C413 C412 1.366 . S
C413 C414 1.414 . S
C413 C416 1.499 . S
C414 H394 0.950 . S
C414 C413 1.414 . S
C414 C415 1.374 . S
C415 H395 0.950 . S
C415 C411 1.385 . S
C415 C414 1.374 . S
C416 C413 1.499 . S
C416 C417 1.373 . S
C416 C418 1.389 . S
C417 H396 0.950 . S
C417 C416 1.373 . S
C417 C433 1.377 . S
C418 C416 1.389 . S
C418 C419 1.524 . S
C418 C432 1.377 . S
C419 C418 1.524 . S
C419 C420 1.397 . S
C419 C424 1.363 . S
C420 H397 0.950 . S
C420 C419 1.397 . S
C420 C421 1.334 . S
C421 H398 0.950 . S
C421 C420 1.334 . S
C421 C422 1.287 . S
C422 C421 1.287 . S
C422 C423 1.524 . S
C422 H441 0.913 . S
C423 H399 0.950 . S
C423 C422 1.524 . S
C423 C424 1.415 . S
C424 H400 0.950 . S
C424 C419 1.363 . S
C424 C423 1.415 . S
C425 H401 0.951 1_545 S
C425 C426 1.366 . S
C425 C427 1.388 . S
C426 C425 1.366 . S
C426 C430 1.385 . S
C427 H402 0.951 . S
C427 C425 1.388 . S
C427 C428 1.366 . S
C428 C427 1.366 . S
C428 C429 1.414 . S
C428 C431 1.499 . S
C429 H403 0.950 . S
C429 C428 1.414 . S
C429 C430 1.374 . S
C430 H404 0.950 . S
C430 C426 1.385 . S
C430 C429 1.374 . S
C431 C428 1.499 . S
C431 C432 1.373 . S
C431 C433 1.389 . S
C432 H405 0.950 . S
C432 C418 1.377 . S
C432 C431 1.373 . S
C433 C417 1.377 . S
C433 C431 1.389 . S
C433 C434 1.524 . S
C434 C433 1.524 . S
C434 C435 1.397 . S
C434 C439 1.363 1_545 S
C435 H406 0.950 . S
C435 C434 1.397 . S
C435 C436 1.334 1_545 S
C436 H407 0.950 . S
C436 C435 1.334 1_565 S
C436 C437 1.287 . S
C437 C436 1.287 . S
C437 C438 1.524 . S
C437 H440 0.999 . S
C438 H408 0.950 . S
C438 C437 1.524 . S
C438 C439 1.415 . S
C439 H409 0.950 . S
C439 C434 1.363 1_565 S
C439 C438 1.415 . S
H440 C437 0.999 . S
H441 C422 0.913 . S
H442 C460 0.951 . S
H443 C462 0.951 . S
H444 C464 0.950 . S
H445 C465 0.950 . S
H446 C467 0.950 . S
H447 C470 0.950 . S
H448 C471 0.950 . S
H449 C473 0.950 . S
H450 C474 0.950 . S
H451 C475 0.951 . S
H452 C477 0.951 . S
H453 C479 0.950 . S
H454 C480 0.950 . S
H455 C482 0.950 . S
H456 C485 0.950 . S
H457 C486 0.950 . S
H458 C488 0.950 . S
H459 C489 0.950 . S
C460 H442 0.951 . S
C460 C461 1.366 . S
C460 C462 1.388 . S
C461 C460 1.366 . S
C461 C465 1.385 . S
C462 H443 0.951 . S
C462 C460 1.388 . S
C462 C463 1.366 . S
C463 C462 1.366 . S
C463 C464 1.414 . S
C463 C466 1.499 . S
C464 H444 0.950 . S
C464 C463 1.414 . S
C464 C465 1.374 . S
C465 H445 0.950 . S
C465 C461 1.385 . S
C465 C464 1.374 . S
C466 C463 1.499 . S
C466 C467 1.373 . S
C466 C468 1.389 . S
C467 H446 0.950 . S
C467 C466 1.373 . S
C467 C483 1.377 . S
C468 C466 1.389 . S
C468 C469 1.524 . S
C468 C482 1.377 . S
C469 C468 1.524 . S
C469 C470 1.397 . S
C469 C474 1.363 . S
C470 H447 0.950 . S
C470 C469 1.397 . S
C470 C471 1.334 . S
C471 H448 0.950 . S
C471 C470 1.334 . S
C471 C472 1.287 . S
C472 C471 1.287 . S
C472 C473 1.524 . S
C472 H491 0.913 . S
C473 H449 0.950 . S
C473 C472 1.524 . S
C473 C474 1.415 . S
C474 H450 0.950 . S
C474 C469 1.363 . S
C474 C473 1.415 . S
C475 H451 0.951 . S
C475 C476 1.366 . S
C475 C477 1.388 . S
C476 C475 1.366 . S
C476 C480 1.385 . S
C477 H452 0.951 . S
C477 C475 1.388 . S
C477 C478 1.366 . S
C478 C477 1.366 . S
C478 C479 1.414 . S
C478 C481 1.499 . S
C479 H453 0.950 . S
C479 C478 1.414 . S
C479 C480 1.374 . S
C480 H454 0.950 . S
C480 C476 1.385 . S
C480 C479 1.374 . S
C481 C478 1.499 . S
C481 C482 1.373 . S
C481 C483 1.389 . S
C482 H455 0.950 . S
C482 C468 1.377 . S
C482 C481 1.373 . S
C483 C467 1.377 . S
C483 C481 1.389 . S
C483 C484 1.524 . S
C484 C483 1.524 . S
C484 C485 1.397 . S
C484 C489 1.363 . S
C485 H456 0.950 . S
C485 C484 1.397 . S
C485 C486 1.334 1_565 S
C486 H457 0.950 . S
C486 C485 1.334 1_545 S
C486 C487 1.287 . S
C487 C486 1.287 . S
C487 C488 1.524 . S
C487 H490 0.999 . S
C488 H458 0.950 . S
C488 C487 1.524 . S
C488 C489 1.415 1_545 S
C489 H459 0.950 . S
C489 C484 1.363 . S
C489 C488 1.415 1_565 S
H490 C487 0.999 . S
H491 C472 0.913 . S
H492 C510 0.951 . S
H493 C512 0.951 . S
H494 C514 0.950 . S
H495 C515 0.950 . S
H496 C517 0.950 . S
H497 C520 0.950 . S
H498 C521 0.950 . S
H499 C523 0.950 . S
H500 C524 0.950 . S
H501 C525 0.951 . S
H502 C527 0.951 . S
H503 C529 0.950 . S
H504 C530 0.950 1_554 S
H505 C532 0.950 . S
H506 C535 0.950 . S
H507 C536 0.950 . S
H508 C538 0.950 . S
H509 C539 0.950 . S
C510 H492 0.951 . S
C510 C511 1.366 . S
C510 C512 1.388 . S
C511 C510 1.366 . S
C511 C515 1.385 . S
C512 H493 0.951 . S
C512 C510 1.388 . S
C512 C513 1.366 . S
C513 C512 1.366 . S
C513 C514 1.414 . S
C513 C516 1.499 . S
C514 H494 0.950 . S
C514 C513 1.414 . S
C514 C515 1.374 . S
C515 H495 0.950 . S
C515 C511 1.385 . S
C515 C514 1.374 . S
C516 C513 1.499 . S
C516 C517 1.373 . S
C516 C518 1.389 . S
C517 H496 0.950 . S
C517 C516 1.373 . S
C517 C533 1.377 . S
C518 C516 1.389 . S
C518 C519 1.524 . S
C518 C532 1.377 . S
C519 C518 1.524 . S
C519 C520 1.397 . S
C519 C524 1.363 1_556 S
C520 H497 0.950 . S
C520 C519 1.397 . S
C520 C521 1.334 . S
C521 H498 0.950 . S
C521 C520 1.334 . S
C521 C522 1.287 1_556 S
C522 C521 1.287 1_554 S
C522 C523 1.524 . S
C522 H541 0.913 . S
C523 H499 0.950 . S
C523 C522 1.524 . S
C523 C524 1.415 . S
C524 H500 0.950 . S
C524 C519 1.363 1_554 S
C524 C523 1.415 . S
C525 H501 0.951 . S
C525 C526 1.366 . S
C525 C527 1.388 . S
C526 C525 1.366 . S
C526 C530 1.385 . S
C527 H502 0.951 . S
C527 C525 1.388 . S
C527 C528 1.366 . S
C528 C527 1.366 . S
C528 C529 1.414 . S
C528 C531 1.499 . S
C529 H503 0.950 . S
C529 C528 1.414 . S
C529 C530 1.374 . S
C530 H504 0.950 1_556 S
C530 C526 1.385 . S
C530 C529 1.374 . S
C531 C528 1.499 . S
C531 C532 1.373 . S
C531 C533 1.389 . S
C532 H505 0.950 . S
C532 C518 1.377 . S
C532 C531 1.373 . S
C533 C517 1.377 . S
C533 C531 1.389 . S
C533 C534 1.524 . S
C534 C533 1.524 . S
C534 C535 1.397 . S
C534 C539 1.363 . S
C535 H506 0.950 . S
C535 C534 1.397 . S
C535 C536 1.334 . S
C536 H507 0.950 . S
C536 C535 1.334 . S
C536 C537 1.287 . S
C537 C536 1.287 . S
C537 C538 1.524 . S
C537 H540 0.999 . S
C538 H508 0.950 . S
C538 C537 1.524 . S
C538 C539 1.415 . S
C539 H509 0.950 . S
C539 C534 1.363 . S
C539 C538 1.415 . S
H540 C537 0.999 . S
H541 C522 0.913 . S
H542 C560 0.951 . S
H543 C562 0.951 . S
H544 C564 0.950 . S
H545 C565 0.950 . S
H546 C567 0.950 . S
H547 C570 0.950 . S
H548 C571 0.950 . S
H549 C573 0.950 . S
H550 C574 0.950 . S
H551 C575 0.951 . S
H552 C577 0.951 . S
H553 C579 0.950 . S
H554 C580 0.950 . S
H555 C582 0.950 . S
H556 C585 0.950 . S
H557 C586 0.950 . S
H558 C588 0.950 . S
H559 C589 0.950 . S
C560 H542 0.951 . S
C560 C561 1.366 . S
C560 C562 1.388 . S
C561 C560 1.366 . S
C561 C565 1.385 . S
C562 H543 0.951 . S
C562 C560 1.388 . S
C562 C563 1.366 . S
C563 C562 1.366 . S
C563 C564 1.414 . S
C563 C566 1.499 . S
C564 H544 0.950 . S
C564 C563 1.414 . S
C564 C565 1.374 . S
C565 H545 0.950 . S
C565 C561 1.385 . S
C565 C564 1.374 . S
C566 C563 1.499 . S
C566 C567 1.373 . S
C566 C568 1.389 . S
C567 H546 0.950 . S
C567 C566 1.373 . S
C567 C583 1.377 . S
C568 C566 1.389 . S
C568 C569 1.524 . S
C568 C582 1.377 . S
C569 C568 1.524 . S
C569 C570 1.397 . S
C569 C574 1.363 . S
C570 H547 0.950 . S
C570 C569 1.397 . S
C570 C571 1.334 . S
C571 H548 0.950 . S
C571 C570 1.334 . S
C571 C572 1.287 . S
C572 C571 1.287 . S
C572 C573 1.524 . S
C572 H591 0.913 . S
C573 H549 0.950 . S
C573 C572 1.524 . S
C573 C574 1.415 . S
C574 H550 0.950 . S
C574 C569 1.363 . S
C574 C573 1.415 . S
C575 H551 0.951 . S
C575 C576 1.366 . S
C575 C577 1.388 . S
C576 C575 1.366 . S
C576 C580 1.385 . S
C577 H552 0.951 . S
C577 C575 1.388 . S
C577 C578 1.366 . S
C578 C577 1.366 . S
C578 C579 1.414 . S
C578 C581 1.499 . S
C579 H553 0.950 . S
C579 C578 1.414 . S
C579 C580 1.374 . S
C580 H554 0.950 . S
C580 C576 1.385 . S
C580 C579 1.374 . S
C581 C578 1.499 . S
C581 C582 1.373 . S
C581 C583 1.389 . S
C582 H555 0.950 . S
C582 C568 1.377 . S
C582 C581 1.373 . S
C583 C567 1.377 . S
C583 C581 1.389 . S
C583 C584 1.524 . S
C584 C583 1.524 . S
C584 C585 1.397 . S
C584 C589 1.363 . S
C585 H556 0.950 . S
C585 C584 1.397 . S
C585 C586 1.334 . S
C586 H557 0.950 . S
C586 C585 1.334 . S
C586 C587 1.287 . S
C587 C586 1.287 . S
C587 C588 1.524 . S
C587 H590 0.999 . S
C588 H558 0.950 . S
C588 C587 1.524 . S
C588 C589 1.415 . S
C589 H559 0.950 . S
C589 C584 1.363 . S
C589 C588 1.415 . S
H590 C587 0.999 . S
H591 C572 0.913 . S
H592 C610 0.951 . S
H593 C612 0.951 . S
H594 C614 0.950 . S
H595 C615 0.950 . S
H596 C617 0.950 . S
H597 C620 0.950 . S
H598 C621 0.950 1_655 S
H599 C623 0.943 1_655 S
H600 C624 0.950 . S
H601 C625 0.951 1_556 S
H602 C627 0.951 . S
H603 C629 0.950 . S
H604 C630 0.950 . S
H605 C632 0.950 . S
H606 C635 0.950 . S
H607 C636 0.950 . S
H608 C638 0.950 . S
H609 C639 0.950 1_556 S
C610 H592 0.951 . S
C610 C611 1.366 . S
C610 C612 1.388 . S
C611 C610 1.366 . S
C611 C615 1.385 . S
C612 H593 0.951 . S
C612 C610 1.388 . S
C612 C613 1.366 . S
C613 C612 1.366 . S
C613 C614 1.414 . S
C613 C616 1.499 . S
C614 H594 0.950 . S
C614 C613 1.414 . S
C614 C615 1.374 . S
C615 H595 0.950 . S
C615 C611 1.385 . S
C615 C614 1.374 . S
C616 C613 1.499 . S
C616 C617 1.373 . S
C616 C618 1.389 . S
C617 H596 0.950 . S
C617 C616 1.373 . S
C617 C633 1.377 . S
C618 C616 1.389 . S
C618 C619 1.524 . S
C618 C632 1.377 . S
C619 C618 1.524 . S
C619 C620 1.397 . S
C619 C624 1.363 . S
C620 H597 0.950 . S
C620 C619 1.397 . S
C620 C621 1.335 . S
C621 H598 0.950 1_455 S
C621 C620 1.335 . S
C621 C622 1.286 1_455 S
C622 C621 1.286 1_655 S
C622 C623 1.519 1_655 S
C622 H641 0.913 . S
C623 H599 0.943 1_455 S
C623 C622 1.519 1_455 S
C623 C624 1.428 . S
C624 H600 0.950 . S
C624 C619 1.363 . S
C624 C623 1.428 . S
C625 H601 0.951 1_554 S
C625 C626 1.366 . S
C625 C627 1.388 . S
C626 C625 1.366 . S
C626 C630 1.385 . S
C627 H602 0.951 . S
C627 C625 1.388 . S
C627 C628 1.366 . S
C628 C627 1.366 . S
C628 C629 1.414 . S
C628 C631 1.499 . S
C629 H603 0.950 . S
C629 C628 1.414 . S
C629 C630 1.374 . S
C630 H604 0.950 . S
C630 C626 1.385 . S
C630 C629 1.374 . S
C631 C628 1.499 . S
C631 C632 1.373 . S
C631 C633 1.389 . S
C632 H605 0.950 . S
C632 C618 1.377 . S
C632 C631 1.373 . S
C633 C617 1.377 . S
C633 C631 1.389 . S
C633 C634 1.524 . S
C634 C633 1.524 . S
C634 C635 1.397 . S
C634 C639 1.363 . S
C635 H606 0.950 . S
C635 C634 1.397 . S
C635 C636 1.334 . S
C636 H607 0.950 . S
C636 C635 1.334 . S
C636 C637 1.287 1_554 S
C637 C636 1.287 1_556 S
C637 C638 1.524 . S
C637 H640 0.999 . S
C638 H608 0.950 . S
C638 C637 1.524 . S
C638 C639 1.415 1_556 S
C639 H609 0.950 1_554 S
C639 C634 1.363 . S
C639 C638 1.415 1_554 S
H640 C637 0.999 . S
H641 C622 0.913 . S
H642 C660 0.951 . S
H643 C662 0.951 . S
H644 C664 0.950 . S
H645 C665 0.950 . S
H646 C667 0.950 . S
H647 C670 0.950 . S
H648 C671 0.950 . S
H649 C673 0.950 . S
H650 C674 0.950 . S
H651 C675 0.951 . S
H652 C677 0.951 . S
H653 C679 0.950 . S
H654 C680 0.950 . S
H655 C682 0.950 . S
H656 C685 0.950 . S
H657 C686 0.950 . S
H658 C688 0.950 . S
H659 C689 0.950 . S
C660 H642 0.951 . S
C660 C661 1.366 . S
C660 C662 1.388 . S
C661 C660 1.366 . S
C661 C665 1.385 . S
C662 H643 0.951 . S
C662 C660 1.388 . S
C662 C663 1.366 . S
C663 C662 1.366 . S
C663 C664 1.414 . S
C663 C666 1.499 . S
C664 H644 0.950 . S
C664 C663 1.414 . S
C664 C665 1.374 . S
C665 H645 0.950 . S
C665 C661 1.385 . S
C665 C664 1.374 . S
C666 C663 1.499 . S
C666 C667 1.373 . S
C666 C668 1.389 . S
C667 H646 0.950 . S
C667 C666 1.373 . S
C667 C683 1.377 . S
C668 C666 1.389 . S
C668 C669 1.524 . S
C668 C682 1.377 . S
C669 C668 1.524 . S
C669 C670 1.397 . S
C669 C674 1.363 . S
C670 H647 0.950 . S
C670 C669 1.397 . S
C670 C671 1.334 . S
C671 H648 0.950 . S
C671 C670 1.334 . S
C671 C672 1.287 . S
C672 C671 1.287 . S
C672 C673 1.524 . S
C672 H691 0.913 . S
C673 H649 0.950 . S
C673 C672 1.524 . S
C673 C674 1.415 . S
C674 H650 0.950 . S
C674 C669 1.363 . S
C674 C673 1.415 . S
C675 H651 0.951 . S
C675 C676 1.366 . S
C675 C677 1.388 . S
C676 C675 1.366 . S
C676 C680 1.385 . S
C677 H652 0.951 . S
C677 C675 1.388 . S
C677 C678 1.366 . S
C678 C677 1.366 . S
C678 C679 1.414 . S
C678 C681 1.499 . S
C679 H653 0.950 . S
C679 C678 1.414 . S
C679 C680 1.374 . S
C680 H654 0.950 . S
C680 C676 1.385 . S
C680 C679 1.374 . S
C681 C678 1.499 . S
C681 C682 1.373 . S
C681 C683 1.389 . S
C682 H655 0.950 . S
C682 C668 1.377 . S
C682 C681 1.373 . S
C683 C667 1.377 . S
C683 C681 1.389 . S
C683 C684 1.524 . S
C684 C683 1.524 . S
C684 C685 1.397 1_556 S
C684 C689 1.363 . S
C685 H656 0.950 . S
C685 C684 1.397 1_554 S
C685 C686 1.334 . S
C686 H657 0.950 . S
C686 C685 1.334 . S
C686 C687 1.287 . S
C687 C686 1.287 . S
C687 C688 1.524 . S
C687 H690 0.999 . S
C688 H658 0.950 . S
C688 C687 1.524 . S
C688 C689 1.415 1_554 S
C689 H659 0.950 . S
C689 C684 1.363 . S
C689 C688 1.415 1_556 S
H690 C687 0.999 . S
H691 C672 0.913 . S
H692 C710 0.951 . S
H693 C712 0.951 . S
H694 C714 0.950 . S
H695 C715 0.950 . S
H696 C717 0.950 . S
H697 C720 0.950 . S
H698 C721 0.950 . S
H699 C723 0.950 . S
H700 C724 0.950 . S
H701 C725 0.951 . S
H702 C727 0.951 . S
H703 C729 0.950 1_455 S
H704 C730 0.950 1_455 S
H705 C732 0.950 . S
H706 C735 0.950 . S
H707 C736 0.950 1_455 S
H708 C738 0.950 . S
H709 C739 0.950 . S
C710 H692 0.951 . S
C710 C711 1.366 . S
C710 C712 1.388 . S
C711 C710 1.366 . S
C711 C715 1.385 . S
C712 H693 0.951 . S
C712 C710 1.388 . S
C712 C713 1.366 . S
C713 C712 1.366 . S
C713 C714 1.414 . S
C713 C716 1.499 . S
C714 H694 0.950 . S
C714 C713 1.414 . S
C714 C715 1.374 . S
C715 H695 0.950 . S
C715 C711 1.385 . S
C715 C714 1.374 . S
C716 C713 1.499 . S
C716 C717 1.373 . S
C716 C718 1.389 . S
C717 H696 0.950 . S
C717 C716 1.373 . S
C717 C733 1.377 . S
C718 C716 1.389 . S
C718 C719 1.524 . S
C718 C732 1.377 . S
C719 C718 1.524 . S
C719 C720 1.397 . S
C719 C724 1.363 . S
C720 H697 0.950 . S
C720 C719 1.397 . S
C720 C721 1.334 . S
C721 H698 0.950 . S
C721 C720 1.334 . S
C721 C722 1.287 . S
C722 C721 1.287 . S
C722 C723 1.524 . S
C722 H741 0.913 . S
C723 H699 0.950 . S
C723 C722 1.524 . S
C723 C724 1.415 . S
C724 H700 0.950 . S
C724 C719 1.363 . S
C724 C723 1.415 . S
C725 H701 0.951 . S
C725 C726 1.366 . S
C725 C727 1.388 . S
C726 C725 1.366 . S
C726 C730 1.385 . S
C727 H702 0.951 . S
C727 C725 1.388 . S
C727 C728 1.366 . S
C728 C727 1.366 . S
C728 C729 1.414 . S
C728 C731 1.499 . S
C729 H703 0.950 1_655 S
C729 C728 1.414 . S
C729 C730 1.374 . S
C730 H704 0.950 1_655 S
C730 C726 1.385 . S
C730 C729 1.374 . S
C731 C728 1.499 . S
C731 C732 1.373 . S
C731 C733 1.389 . S
C732 H705 0.950 . S
C732 C718 1.377 . S
C732 C731 1.373 . S
C733 C717 1.377 . S
C733 C731 1.389 . S
C733 C734 1.524 . S
C734 C733 1.524 . S
C734 C735 1.397 . S
C734 C739 1.363 . S
C735 H706 0.950 . S
C735 C734 1.397 . S
C735 C736 1.334 . S
C736 H707 0.950 1_655 S
C736 C735 1.334 . S
C736 C737 1.287 . S
C737 C736 1.287 . S
C737 C738 1.524 . S
C737 H740 0.999 . S
C738 H708 0.950 . S
C738 C737 1.524 . S
C738 C739 1.415 . S
C739 H709 0.950 . S
C739 C734 1.363 . S
C739 C738 1.415 . S
H740 C737 0.999 . S
H741 C722 0.913 . S
H742 C760 0.951 . S
H743 C762 0.951 . S
H744 C764 0.950 . S
H745 C765 0.950 . S
H746 C767 0.950 . S
H747 C770 0.950 . S
H748 C771 0.950 . S
H749 C773 0.950 . S
H750 C774 0.950 . S
H751 C775 0.951 . S
H752 C777 0.951 . S
H753 C779 0.950 . S
H754 C780 0.950 . S
H755 C782 0.950 . S
H756 C785 0.950 . S
H757 C786 0.950 . S
H758 C788 0.950 . S
H759 C789 0.950 . S
C760 H742 0.951 . S
C760 C761 1.366 . S
C760 C762 1.388 . S
C761 C760 1.366 . S
C761 C765 1.385 . S
C762 H743 0.951 . S
C762 C760 1.388 . S
C762 C763 1.366 . S
C763 C762 1.366 . S
C763 C764 1.414 . S
C763 C766 1.499 . S
C764 H744 0.950 . S
C764 C763 1.414 . S
C764 C765 1.374 . S
C765 H745 0.950 . S
C765 C761 1.385 . S
C765 C764 1.374 . S
C766 C763 1.499 . S
C766 C767 1.373 . S
C766 C768 1.389 . S
C767 H746 0.950 . S
C767 C766 1.373 . S
C767 C783 1.377 . S
C768 C766 1.389 . S
C768 C769 1.524 . S
C768 C782 1.377 . S
C769 C768 1.524 . S
C769 C770 1.397 . S
C769 C774 1.363 . S
C770 H747 0.950 . S
C770 C769 1.397 . S
C770 C771 1.334 . S
C771 H748 0.950 . S
C771 C770 1.334 . S
C771 C772 1.287 . S
C772 C771 1.287 . S
C772 C773 1.524 . S
C772 H791 0.913 . S
C773 H749 0.950 . S
C773 C772 1.524 . S
C773 C774 1.415 . S
C774 H750 0.950 . S
C774 C769 1.363 . S
C774 C773 1.415 . S
C775 H751 0.951 . S
C775 C776 1.366 . S
C775 C777 1.388 . S
C776 C775 1.366 . S
C776 C780 1.385 . S
C777 H752 0.951 . S
C777 C775 1.388 . S
C777 C778 1.366 . S
C778 C777 1.366 . S
C778 C779 1.414 . S
C778 C781 1.499 . S
C779 H753 0.950 . S
C779 C778 1.414 . S
C779 C780 1.374 . S
C780 H754 0.950 . S
C780 C776 1.385 . S
C780 C779 1.374 . S
C781 C778 1.499 . S
C781 C782 1.373 . S
C781 C783 1.389 . S
C782 H755 0.950 . S
C782 C768 1.377 . S
C782 C781 1.373 . S
C783 C767 1.377 . S
C783 C781 1.389 . S
C783 C784 1.524 . S
C784 C783 1.524 . S
C784 C785 1.397 . S
C784 C789 1.363 . S
C785 H756 0.950 . S
C785 C784 1.397 . S
C785 C786 1.334 . S
C786 H757 0.950 . S
C786 C785 1.334 . S
C786 C787 1.287 . S
C787 C786 1.287 . S
C787 C788 1.524 . S
C787 H790 0.999 . S
C788 H758 0.950 . S
C788 C787 1.524 . S
C788 C789 1.415 . S
C789 H759 0.950 . S
C789 C784 1.363 . S
C789 C788 1.415 . S
H790 C787 0.999 . S
H791 C772 0.913 . S
H792 C810 0.951 . S
H793 C812 0.951 . S
H794 C814 0.950 . S
H795 C815 0.950 . S
H796 C817 0.950 . S
H797 C820 0.950 . S
H798 C821 0.950 . S
H799 C823 0.950 . S
H800 C824 0.956 . S
H801 C825 0.951 1_545 S
H802 C827 0.951 . S
H803 C829 0.950 . S
H804 C830 0.950 . S
H805 C832 0.950 . S
H806 C835 0.950 . S
H807 C836 0.950 . S
H808 C838 0.950 1_545 S
H809 C839 0.950 . S
C810 H792 0.951 . S
C810 C811 1.366 . S
C810 C812 1.388 . S
C811 C810 1.366 . S
C811 C815 1.385 . S
C812 H793 0.951 . S
C812 C810 1.388 . S
C812 C813 1.366 . S
C813 C812 1.366 . S
C813 C814 1.414 . S
C813 C816 1.499 . S
C814 H794 0.950 . S
C814 C813 1.414 . S
C814 C815 1.374 . S
C815 H795 0.950 . S
C815 C811 1.385 . S
C815 C814 1.374 . S
C816 C813 1.499 . S
C816 C817 1.373 . S
C816 C818 1.389 . S
C817 H796 0.950 . S
C817 C816 1.373 . S
C817 C833 1.377 . S
C818 C816 1.389 . S
C818 C819 1.524 . S
C818 C832 1.377 . S
C819 C818 1.524 . S
C819 C820 1.397 . S
C819 C824 1.387 . S
C820 H797 0.950 . S
C820 C819 1.397 . S
C820 C821 1.334 1_655 S
C821 H798 0.950 . S
C821 C820 1.334 1_455 S
C821 C822 1.287 . S
C822 C821 1.287 . S
C822 C823 1.524 . S
C822 H841 0.913 . S
C823 H799 0.950 . S
C823 C822 1.524 . S
C823 C824 1.386 1_455 S
C824 H800 0.956 . S
C824 C819 1.387 . S
C824 C823 1.386 1_655 S
C825 H801 0.951 1_565 S
C825 C826 1.366 . S
C825 C827 1.388 . S
C826 C825 1.366 . S
C826 C830 1.385 . S
C827 H802 0.951 . S
C827 C825 1.388 . S
C827 C828 1.366 . S
C828 C827 1.366 . S
C828 C829 1.414 . S
C828 C831 1.499 . S
C829 H803 0.950 . S
C829 C828 1.414 . S
C829 C830 1.374 . S
C830 H804 0.950 . S
C830 C826 1.385 . S
C830 C829 1.374 . S
C831 C828 1.499 . S
C831 C832 1.373 . S
C831 C833 1.389 . S
C832 H805 0.950 . S
C832 C818 1.377 . S
C832 C831 1.373 . S
C833 C817 1.377 . S
C833 C831 1.389 . S
C833 C834 1.524 . S
C834 C833 1.524 . S
C834 C835 1.397 . S
C834 C839 1.363 . S
C835 H806 0.950 . S
C835 C834 1.397 . S
C835 C836 1.334 . S
C836 H807 0.950 . S
C836 C835 1.334 . S
C836 C837 1.287 . S
C837 C836 1.287 . S
C837 C838 1.524 . S
C837 H840 0.999 . S
C838 H808 0.950 1_565 S
C838 C837 1.524 . S
C838 C839 1.415 . S
C839 H809 0.950 . S
C839 C834 1.363 . S
C839 C838 1.415 . S
H840 C837 0.999 . S
H841 C822 0.913 . S
H842 C860 0.951 . S
H843 C862 0.951 . S
H844 C864 0.950 . S
H845 C865 0.950 . S
H846 C867 0.950 . S
H847 C870 0.950 . S
H848 C871 0.950 . S
H849 C873 0.950 . S
H850 C874 0.950 . S
H851 C875 0.951 . S
H852 C877 0.951 . S
H853 C879 0.950 . S
H854 C880 0.934 1_565 S
H855 C882 0.950 . S
H856 C885 0.950 . S
H857 C886 0.950 . S
H858 C888 0.950 . S
H859 C889 0.950 . S
C860 H842 0.951 . S
C860 C861 1.366 . S
C860 C862 1.388 . S
C861 C860 1.366 . S
C861 C865 1.385 . S
C862 H843 0.951 . S
C862 C860 1.388 . S
C862 C863 1.366 . S
C863 C862 1.366 . S
C863 C864 1.414 . S
C863 C866 1.499 . S
C864 H844 0.950 . S
C864 C863 1.414 . S
C864 C865 1.374 . S
C865 H845 0.950 . S
C865 C861 1.385 . S
C865 C864 1.374 . S
C866 C863 1.499 . S
C866 C867 1.373 . S
C866 C868 1.389 . S
C867 H846 0.950 . S
C867 C866 1.373 . S
C867 C883 1.377 . S
C868 C866 1.389 . S
C868 C869 1.524 . S
C868 C882 1.377 . S
C869 C868 1.524 . S
C869 C870 1.397 . S
C869 C874 1.363 . S
C870 H847 0.950 . S
C870 C869 1.397 . S
C870 C871 1.334 . S
C871 H848 0.950 . S
C871 C870 1.334 . S
C871 C872 1.287 . S
C872 C871 1.287 . S
C872 C873 1.524 . S
C872 H891 0.913 . S
C873 H849 0.950 . S
C873 C872 1.524 . S
C873 C874 1.415 . S
C874 H850 0.950 . S
C874 C869 1.363 . S
C874 C873 1.415 . S
C875 H851 0.951 . S
C875 C876 1.366 . S
C875 C877 1.388 . S
C876 C875 1.366 . S
C876 C880 1.385 . S
C877 H852 0.951 . S
C877 C875 1.388 . S
C877 C878 1.366 . S
C878 C877 1.366 . S
C878 C879 1.414 . S
C878 C881 1.499 . S
C879 H853 0.950 . S
C879 C878 1.414 . S
C879 C880 1.374 . S
C880 H854 0.934 1_545 S
C880 C876 1.385 . S
C880 C879 1.374 . S
C881 C878 1.499 . S
C881 C882 1.373 . S
C881 C883 1.389 . S
C882 H855 0.950 . S
C882 C868 1.377 . S
C882 C881 1.373 . S
C883 C867 1.377 . S
C883 C881 1.389 . S
C883 C884 1.524 . S
C884 C883 1.524 . S
C884 C885 1.397 . S
C884 C889 1.363 . S
C885 H856 0.950 . S
C885 C884 1.397 . S
C885 C886 1.334 . S
C886 H857 0.950 . S
C886 C885 1.334 . S
C886 C887 1.287 . S
C887 C886 1.287 . S
C887 C888 1.524 . S
C887 H890 0.999 . S
C888 H858 0.950 . S
C888 C887 1.524 . S
C888 C889 1.415 . S
C889 H859 0.950 . S
C889 C884 1.363 . S
C889 C888 1.415 . S
H890 C887 0.999 . S
H891 C872 0.913 . S
H892 C910 0.951 . S
H893 C912 0.951 . S
H894 C914 0.950 . S
H895 C915 0.950 . S
H896 C917 0.950 . S
H897 C920 0.950 . S
H898 C921 0.950 . S
H899 C923 0.950 . S
H900 C924 0.950 . S
H901 C925 0.951 . S
H902 C927 0.951 . S
H903 C929 0.950 . S
H904 C930 0.950 . S
H905 C932 0.950 . S
H906 C935 0.950 . S
H907 C936 0.950 . S
H908 C938 0.950 . S
H909 C939 0.950 . S
C910 H892 0.951 . S
C910 C911 1.366 . S
C910 C912 1.388 . S
C911 C910 1.366 . S
C911 C915 1.385 . S
C912 H893 0.951 . S
C912 C910 1.388 . S
C912 C913 1.366 . S
C913 C912 1.366 . S
C913 C914 1.414 . S
C913 C916 1.499 . S
C914 H894 0.950 . S
C914 C913 1.414 . S
C914 C915 1.374 . S
C915 H895 0.950 . S
C915 C911 1.385 . S
C915 C914 1.374 . S
C916 C913 1.499 . S
C916 C917 1.373 . S
C916 C918 1.389 . S
C917 H896 0.950 . S
C917 C916 1.373 . S
C917 C933 1.377 . S
C918 C916 1.389 . S
C918 C919 1.524 . S
C918 C932 1.377 . S
C919 C918 1.524 . S
C919 C920 1.397 . S
C919 C924 1.363 . S
C920 H897 0.950 . S
C920 C919 1.397 . S
C920 C921 1.334 . S
C921 H898 0.950 . S
C921 C920 1.334 . S
C921 C922 1.287 . S
C922 C921 1.287 . S
C922 C923 1.524 . S
C922 H941 0.913 . S
C923 H899 0.950 . S
C923 C922 1.524 . S
C923 C924 1.415 . S
C924 H900 0.950 . S
C924 C919 1.363 . S
C924 C923 1.415 . S
C925 H901 0.951 . S
C925 C926 1.366 . S
C925 C927 1.388 . S
C926 C925 1.366 . S
C926 C930 1.385 . S
C927 H902 0.951 . S
C927 C925 1.388 . S
C927 C928 1.366 . S
C928 C927 1.366 . S
C928 C929 1.414 . S
C928 C931 1.499 . S
C929 H903 0.950 . S
C929 C928 1.414 . S
C929 C930 1.374 . S
C930 H904 0.950 . S
C930 C926 1.385 . S
C930 C929 1.374 . S
C931 C928 1.499 . S
C931 C932 1.373 . S
C931 C933 1.389 . S
C932 H905 0.950 . S
C932 C918 1.377 . S
C932 C931 1.373 . S
C933 C917 1.377 . S
C933 C931 1.389 . S
C933 C934 1.524 . S
C934 C933 1.524 . S
C934 C935 1.397 . S
C934 C939 1.363 . S
C935 H906 0.950 . S
C935 C934 1.397 . S
C935 C936 1.334 . S
C936 H907 0.950 . S
C936 C935 1.334 . S
C936 C937 1.287 . S
C937 C936 1.287 . S
C937 C938 1.524 . S
C937 H940 0.999 . S
C938 H908 0.950 . S
C938 C937 1.524 . S
C938 C939 1.415 . S
C939 H909 0.950 . S
C939 C934 1.363 . S
C939 C938 1.415 . S
H940 C937 0.999 . S
H941 C922 0.913 . S
H942 C960 0.951 . S
H943 C962 0.951 . S
H944 C964 0.950 . S
H945 C965 0.950 . S
H946 C967 0.950 . S
H947 C970 0.950 . S
H948 C971 0.950 . S
H949 C973 0.950 . S
H950 C974 0.950 . S
H951 C975 0.951 . S
H952 C977 0.951 . S
H953 C979 0.950 . S
H954 C980 0.950 . S
H955 C982 0.950 . S
H956 C985 0.950 . S
H957 C986 0.950 . S
H958 C988 0.950 . S
H959 C989 0.950 . S
C960 H942 0.951 . S
C960 C961 1.366 . S
C960 C962 1.388 . S
C961 C960 1.366 . S
C961 C965 1.385 . S
C962 H943 0.951 . S
C962 C960 1.388 . S
C962 C963 1.366 . S
C963 C962 1.366 . S
C963 C964 1.414 . S
C963 C966 1.499 . S
C964 H944 0.950 . S
C964 C963 1.414 . S
C964 C965 1.374 . S
C965 H945 0.950 . S
C965 C961 1.385 . S
C965 C964 1.374 . S
C966 C963 1.499 . S
C966 C967 1.373 . S
C966 C968 1.389 . S
C967 H946 0.950 . S
C967 C966 1.373 . S
C967 C983 1.377 . S
C968 C966 1.389 . S
C968 C969 1.524 . S
C968 C982 1.377 . S
C969 C968 1.524 . S
C969 C970 1.397 . S
C969 C974 1.363 1_455 S
C970 H947 0.950 . S
C970 C969 1.397 . S
C970 C971 1.334 1_455 S
C971 H948 0.950 . S
C971 C970 1.334 1_655 S
C971 C972 1.287 . S
C972 C971 1.287 . S
C972 C973 1.524 . S
C972 H991 0.913 . S
C973 H949 0.950 . S
C973 C972 1.524 . S
C973 C974 1.415 . S
C974 H950 0.950 . S
C974 C969 1.363 1_655 S
C974 C973 1.415 . S
C975 H951 0.951 . S
C975 C976 1.366 . S
C975 C977 1.388 . S
C976 C975 1.366 . S
C976 C980 1.385 . S
C977 H952 0.951 . S
C977 C975 1.388 . S
C977 C978 1.366 . S
C978 C977 1.366 . S
C978 C979 1.414 . S
C978 C981 1.499 . S
C979 H953 0.950 . S
C979 C978 1.414 . S
C979 C980 1.374 . S
C980 H954 0.950 . S
C980 C976 1.385 . S
C980 C979 1.374 . S
C981 C978 1.499 . S
C981 C982 1.373 . S
C981 C983 1.389 . S
C982 H955 0.950 . S
C982 C968 1.377 . S
C982 C981 1.373 . S
C983 C967 1.377 . S
C983 C981 1.389 . S
C983 C984 1.524 . S
C984 C983 1.524 . S
C984 C985 1.397 . S
C984 C989 1.363 . S
C985 H956 0.950 . S
C985 C984 1.397 . S
C985 C986 1.334 . S
C986 H957 0.950 . S
C986 C985 1.334 . S
C986 C987 1.287 . S
C987 C986 1.287 . S
C987 C988 1.524 . S
C987 H990 0.999 . S
C988 H958 0.950 . S
C988 C987 1.524 . S
C988 C989 1.415 . S
C989 H959 0.950 . S
C989 C984 1.363 . S
C989 C988 1.415 . S
H990 C987 0.999 . S
H991 C972 0.913 . S
H992 C1010 0.951 . S
H993 C1012 0.951 . S
H994 C1014 0.950 . S
H995 C1015 0.950 . S
H996 C1017 0.950 . S
H997 C1020 0.950 . S
H998 C1021 0.950 . S
H999 C1023 0.950 . S
H1000 C1024 0.950 . S
H1001 C1025 0.951 1_545 S
H1002 C1027 0.951 . S
H1003 C1029 0.950 . S
H1004 C1030 0.950 . S
H1005 C1032 0.950 . S
H1006 C1035 0.950 . S
H1007 C1036 0.950 . S
H1008 C1038 0.950 1_545 S
H1009 C1039 0.950 1_556 S
C1010 H992 0.951 . S
C1010 C1011 1.366 . S
C1010 C1012 1.388 . S
C1011 C1010 1.366 . S
C1011 C1015 1.385 . S
C1012 H993 0.951 . S
C1012 C1010 1.388 . S
C1012 C1013 1.366 . S
C1013 C1012 1.366 . S
C1013 C1014 1.414 . S
C1013 C1016 1.499 . S
C1014 H994 0.950 . S
C1014 C1013 1.414 . S
C1014 C1015 1.374 . S
C1015 H995 0.950 . S
C1015 C1011 1.385 . S
C1015 C1014 1.374 . S
C1016 C1013 1.499 . S
C1016 C1017 1.373 . S
C1016 C1018 1.389 . S
C1017 H996 0.950 . S
C1017 C1016 1.373 . S
C1017 C1033 1.377 . S
C1018 C1016 1.389 . S
C1018 C1019 1.524 . S
C1018 C1032 1.377 . S
C1019 C1018 1.524 . S
C1019 C1020 1.397 . S
C1019 C1024 1.363 . S
C1020 H997 0.950 . S
C1020 C1019 1.397 . S
C1020 C1021 1.334 . S
C1021 H998 0.950 . S
C1021 C1020 1.334 . S
C1021 C1022 1.287 . S
C1022 C1021 1.287 . S
C1022 C1023 1.524 . S
C1022 H1041 0.913 . S
C1023 H999 0.950 . S
C1023 C1022 1.524 . S
C1023 C1024 1.415 . S
C1024 H1000 0.950 . S
C1024 C1019 1.363 . S
C1024 C1023 1.415 . S
C1025 H1001 0.951 1_565 S
C1025 C1026 1.366 . S
C1025 C1027 1.388 . S
C1026 C1025 1.366 . S
C1026 C1030 1.385 . S
C1027 H1002 0.951 . S
C1027 C1025 1.388 . S
C1027 C1028 1.366 . S
C1028 C1027 1.366 . S
C1028 C1029 1.414 . S
C1028 C1031 1.499 . S
C1029 H1003 0.950 . S
C1029 C1028 1.414 . S
C1029 C1030 1.374 . S
C1030 H1004 0.950 . S
C1030 C1026 1.385 . S
C1030 C1029 1.374 . S
C1031 C1028 1.499 . S
C1031 C1032 1.373 . S
C1031 C1033 1.389 . S
C1032 H1005 0.950 . S
C1032 C1018 1.377 . S
C1032 C1031 1.373 . S
C1033 C1017 1.377 . S
C1033 C1031 1.389 . S
C1033 C1034 1.524 . S
C1034 C1033 1.524 . S
C1034 C1035 1.397 1_556 S
C1034 C1039 1.363 1_556 S
C1035 H1006 0.950 . S
C1035 C1034 1.397 1_554 S
C1035 C1036 1.334 . S
C1036 H1007 0.950 . S
C1036 C1035 1.334 . S
C1036 C1037 1.287 . S
C1037 C1036 1.287 . S
C1037 C1038 1.524 . S
C1037 H1040 0.999 . S
C1038 H1008 0.950 1_565 S
C1038 C1037 1.524 . S
C1038 C1039 1.415 . S
C1039 H1009 0.950 1_554 S
C1039 C1034 1.363 1_554 S
C1039 C1038 1.415 . S
H1040 C1037 0.999 . S
H1041 C1022 0.913 . S
H1042 C1060 0.951 . S
H1043 C1062 0.951 . S
H1044 C1064 0.950 . S
H1045 C1065 0.950 . S
H1046 C1067 0.950 . S
H1047 C1070 0.950 . S
H1048 C1071 0.950 . S
H1049 C1073 0.950 . S
H1050 C1074 0.950 . S
H1051 C1075 0.951 . S
H1052 C1077 0.951 . S
H1053 C1079 0.950 . S
H1054 C1080 0.950 . S
H1055 C1082 0.950 . S
H1056 C1085 0.950 . S
H1057 C1086 0.950 1_565 S
H1058 C1088 0.950 . S
H1059 C1089 0.950 . S
C1060 H1042 0.951 . S
C1060 C1061 1.366 . S
C1060 C1062 1.388 . S
C1061 C1060 1.366 . S
C1061 C1065 1.385 . S
C1062 H1043 0.951 . S
C1062 C1060 1.388 . S
C1062 C1063 1.366 . S
C1063 C1062 1.366 . S
C1063 C1064 1.414 . S
C1063 C1066 1.499 . S
C1064 H1044 0.950 . S
C1064 C1063 1.414 . S
C1064 C1065 1.374 . S
C1065 H1045 0.950 . S
C1065 C1061 1.385 . S
C1065 C1064 1.374 . S
C1066 C1063 1.499 . S
C1066 C1067 1.373 . S
C1066 C1068 1.389 . S
C1067 H1046 0.950 . S
C1067 C1066 1.373 . S
C1067 C1083 1.377 . S
C1068 C1066 1.389 . S
C1068 C1069 1.524 . S
C1068 C1082 1.377 . S
C1069 C1068 1.524 . S
C1069 C1070 1.397 . S
C1069 C1074 1.363 . S
C1070 H1047 0.950 . S
C1070 C1069 1.397 . S
C1070 C1071 1.334 . S
C1071 H1048 0.950 . S
C1071 C1070 1.334 . S
C1071 C1072 1.287 . S
C1072 C1071 1.287 . S
C1072 C1073 1.524 . S
C1072 H1091 0.913 . S
C1073 H1049 0.950 . S
C1073 C1072 1.524 . S
C1073 C1074 1.415 . S
C1074 H1050 0.950 . S
C1074 C1069 1.363 . S
C1074 C1073 1.415 . S
C1075 H1051 0.951 . S
C1075 C1076 1.366 . S
C1075 C1077 1.388 . S
C1076 C1075 1.366 . S
C1076 C1080 1.385 . S
C1077 H1052 0.951 . S
C1077 C1075 1.388 . S
C1077 C1078 1.366 . S
C1078 C1077 1.366 . S
C1078 C1079 1.414 . S
C1078 C1081 1.499 . S
C1079 H1053 0.950 . S
C1079 C1078 1.414 . S
C1079 C1080 1.374 . S
C1080 H1054 0.950 . S
C1080 C1076 1.385 . S
C1080 C1079 1.374 . S
C1081 C1078 1.499 . S
C1081 C1082 1.373 . S
C1081 C1083 1.389 . S
C1082 H1055 0.950 . S
C1082 C1068 1.377 . S
C1082 C1081 1.373 . S
C1083 C1067 1.377 . S
C1083 C1081 1.389 . S
C1083 C1084 1.524 . S
C1084 C1083 1.524 . S
C1084 C1085 1.397 . S
C1084 C1089 1.363 . S
C1085 H1056 0.950 . S
C1085 C1084 1.397 . S
C1085 C1086 1.334 . S
C1086 H1057 0.950 1_545 S
C1086 C1085 1.334 . S
C1086 C1087 1.287 . S
C1087 C1086 1.287 . S
C1087 C1088 1.524 . S
C1087 H1090 0.999 . S
C1088 H1058 0.950 . S
C1088 C1087 1.524 . S
C1088 C1089 1.415 . S
C1089 H1059 0.950 . S
C1089 C1084 1.363 . S
C1089 C1088 1.415 . S
H1090 C1087 0.999 . S
H1091 C1072 0.913 . S
H1092 C1110 0.951 . S
H1093 C1112 0.951 . S
H1094 C1114 0.950 . S
H1095 C1115 0.950 . S
H1096 C1117 0.950 . S
H1097 C1120 0.950 . S
H1098 C1121 0.950 . S
H1099 C1123 0.950 . S
H1100 C1124 0.947 1_556 S
H1101 C1125 0.951 . S
H1102 C1127 0.951 . S
H1103 C1129 0.950 . S
H1104 C1130 0.950 . S
H1105 C1132 0.950 . S
H1106 C1135 0.950 . S
H1107 C1136 0.950 . S
H1108 C1138 0.950 . S
H1109 C1139 0.950 . S
C1110 H1092 0.951 . S
C1110 C1111 1.366 . S
C1110 C1112 1.388 . S
C1111 C1110 1.366 . S
C1111 C1115 1.385 . S
C1112 H1093 0.951 . S
C1112 C1110 1.388 . S
C1112 C1113 1.366 . S
C1113 C1112 1.366 . S
C1113 C1114 1.414 . S
C1113 C1116 1.499 . S
C1114 H1094 0.950 . S
C1114 C1113 1.414 . S
C1114 C1115 1.374 . S
C1115 H1095 0.950 . S
C1115 C1111 1.385 . S
C1115 C1114 1.374 . S
C1116 C1113 1.499 . S
C1116 C1117 1.373 . S
C1116 C1118 1.389 . S
C1117 H1096 0.950 . S
C1117 C1116 1.373 . S
C1117 C1133 1.377 . S
C1118 C1116 1.389 . S
C1118 C1119 1.524 . S
C1118 C1132 1.377 . S
C1119 C1118 1.524 . S
C1119 C1120 1.397 . S
C1119 C1124 1.377 . S
C1120 H1097 0.950 . S
C1120 C1119 1.397 . S
C1120 C1121 1.334 . S
C1121 H1098 0.950 . S
C1121 C1120 1.334 . S
C1121 C1122 1.287 1_554 S
C1122 C1121 1.287 1_556 S
C1122 C1123 1.524 . S
C1122 H1141 0.913 . S
C1123 H1099 0.950 . S
C1123 C1122 1.524 . S
C1123 C1124 1.402 1_556 S
C1124 H1100 0.947 1_554 S
C1124 C1119 1.377 . S
C1124 C1123 1.402 1_554 S
C1125 H1101 0.951 . S
C1125 C1126 1.366 . S
C1125 C1127 1.388 . S
C1126 C1125 1.366 . S
C1126 C1130 1.385 . S
C1127 H1102 0.951 . S
C1127 C1125 1.388 . S
C1127 C1128 1.366 . S
C1128 C1127 1.366 . S
C1128 C1129 1.414 . S
C1128 C1131 1.499 . S
C1129 H1103 0.950 . S
C1129 C1128 1.414 . S
C1129 C1130 1.374 . S
C1130 H1104 0.950 . S
C1130 C1126 1.385 . S
C1130 C1129 1.374 . S
C1131 C1128 1.499 . S
C1131 C1132 1.373 . S
C1131 C1133 1.389 . S
C1132 H1105 0.950 . S
C1132 C1118 1.377 . S
C1132 C1131 1.373 . S
C1133 C1117 1.377 . S
C1133 C1131 1.389 . S
C1133 C1134 1.524 . S
C1134 C1133 1.524 . S
C1134 C1135 1.397 . S
C1134 C1139 1.363 . S
C1135 H1106 0.950 . S
C1135 C1134 1.397 . S
C1135 C1136 1.334 . S
C1136 H1107 0.950 . S
C1136 C1135 1.334 . S
C1136 C1137 1.287 . S
C1137 C1136 1.287 . S
C1137 C1138 1.524 . S
C1137 H1140 0.999 . S
C1138 H1108 0.950 . S
C1138 C1137 1.524 . S
C1138 C1139 1.415 . S
C1139 H1109 0.950 . S
C1139 C1134 1.363 . S
C1139 C1138 1.415 . S
H1140 C1137 0.999 . S
H1141 C1122 0.913 . S
H1142 C1160 0.951 . S
H1143 C1162 0.951 . S
H1144 C1164 0.950 . S
H1145 C1165 0.950 . S
H1146 C1167 0.950 . S
H1147 C1170 0.950 . S
H1148 C1171 0.950 . S
H1149 C1173 0.950 . S
H1150 C1174 0.950 . S
H1151 C1175 0.951 . S
H1152 C1177 0.951 . S
H1153 C1179 0.950 . S
H1154 C1180 0.950 . S
H1155 C1182 0.950 . S
H1156 C1185 0.950 . S
H1157 C1186 0.950 . S
H1158 C1188 0.950 . S
H1159 C1189 0.950 . S
C1160 H1142 0.951 . S
C1160 C1161 1.366 . S
C1160 C1162 1.388 . S
C1161 C1160 1.366 . S
C1161 C1165 1.385 . S
C1162 H1143 0.951 . S
C1162 C1160 1.388 . S
C1162 C1163 1.366 . S
C1163 C1162 1.366 . S
C1163 C1164 1.414 . S
C1163 C1166 1.499 . S
C1164 H1144 0.950 . S
C1164 C1163 1.414 . S
C1164 C1165 1.374 . S
C1165 H1145 0.950 . S
C1165 C1161 1.385 . S
C1165 C1164 1.374 . S
C1166 C1163 1.499 . S
C1166 C1167 1.373 . S
C1166 C1168 1.389 . S
C1167 H1146 0.950 . S
C1167 C1166 1.373 . S
C1167 C1183 1.377 . S
C1168 C1166 1.389 . S
C1168 C1169 1.524 . S
C1168 C1182 1.377 . S
C1169 C1168 1.524 . S
C1169 C1170 1.397 . S
C1169 C1174 1.363 . S
C1170 H1147 0.950 . S
C1170 C1169 1.397 . S
C1170 C1171 1.334 . S
C1171 H1148 0.950 . S
C1171 C1170 1.334 . S
C1171 C1172 1.287 . S
C1172 C1171 1.287 . S
C1172 C1173 1.524 . S
C1172 H1191 0.913 . S
C1173 H1149 0.950 . S
C1173 C1172 1.524 . S
C1173 C1174 1.415 . S
C1174 H1150 0.950 . S
C1174 C1169 1.363 . S
C1174 C1173 1.415 . S
C1175 H1151 0.951 . S
C1175 C1176 1.366 . S
C1175 C1177 1.388 . S
C1176 C1175 1.366 . S
C1176 C1180 1.385 . S
C1177 H1152 0.951 . S
C1177 C1175 1.388 . S
C1177 C1178 1.366 . S
C1178 C1177 1.366 . S
C1178 C1179 1.414 . S
C1178 C1181 1.499 . S
C1179 H1153 0.950 . S
C1179 C1178 1.414 . S
C1179 C1180 1.374 . S
C1180 H1154 0.950 . S
C1180 C1176 1.385 . S
C1180 C1179 1.374 . S
C1181 C1178 1.499 . S
C1181 C1182 1.373 . S
C1181 C1183 1.389 . S
C1182 H1155 0.950 . S
C1182 C1168 1.377 . S
C1182 C1181 1.373 . S
C1183 C1167 1.377 . S
C1183 C1181 1.389 . S
C1183 C1184 1.524 . S
C1184 C1183 1.524 . S
C1184 C1185 1.397 . S
C1184 C1189 1.363 . S
C1185 H1156 0.950 . S
C1185 C1184 1.397 . S
C1185 C1186 1.334 . S
C1186 H1157 0.950 . S
C1186 C1185 1.334 . S
C1186 C1187 1.287 . S
C1187 C1186 1.287 . S
C1187 C1188 1.524 . S
C1187 H1190 0.999 . S
C1188 H1158 0.950 . S
C1188 C1187 1.524 . S
C1188 C1189 1.415 . S
C1189 H1159 0.950 . S
C1189 C1184 1.363 . S
C1189 C1188 1.415 . S
H1190 C1187 0.999 . S
H1191 C1172 0.913 . S
H1192 C1210 0.951 . S
H1193 C1212 0.951 . S
H1194 C1214 0.950 . S
H1195 C1215 0.950 . S
H1196 C1217 0.950 . S
H1197 C1220 0.950 . S
H1198 C1221 0.966 . S
H1199 C1223 0.950 . S
H1200 C1224 0.950 . S
H1201 C1225 0.951 1_455 S
H1202 C1227 0.951 . S
H1203 C1229 0.950 . S
H1204 C1230 0.950 . S
H1205 C1232 0.950 . S
H1206 C1235 0.950 . S
H1207 C1236 0.950 . S
H1208 C1238 0.950 . S
H1209 C1239 0.950 . S
C1210 H1192 0.951 . S
C1210 C1211 1.366 . S
C1210 C1212 1.388 . S
C1211 C1210 1.366 . S
C1211 C1215 1.385 . S
C1212 H1193 0.951 . S
C1212 C1210 1.388 . S
C1212 C1213 1.366 . S
C1213 C1212 1.366 . S
C1213 C1214 1.414 . S
C1213 C1216 1.499 . S
C1214 H1194 0.950 . S
C1214 C1213 1.414 . S
C1214 C1215 1.374 . S
C1215 H1195 0.950 . S
C1215 C1211 1.385 . S
C1215 C1214 1.374 . S
C1216 C1213 1.499 . S
C1216 C1217 1.373 . S
C1216 C1218 1.389 . S
C1217 H1196 0.950 . S
C1217 C1216 1.373 . S
C1217 C1233 1.377 . S
C1218 C1216 1.389 . S
C1218 C1219 1.524 . S
C1218 C1232 1.377 . S
C1219 C1218 1.524 . S
C1219 C1220 1.397 . S
C1219 C1224 1.363 . S
C1220 H1197 0.950 . S
C1220 C1219 1.397 . S
C1220 C1221 1.334 . S
C1221 H1198 0.966 . S
C1221 C1220 1.334 . S
C1221 C1222 1.287 . S
C1222 C1221 1.287 . S
C1222 C1223 1.524 . S
C1222 H1241 0.913 . S
C1223 H1199 0.950 . S
C1223 C1222 1.524 . S
C1223 C1224 1.415 . S
C1224 H1200 0.950 . S
C1224 C1219 1.363 . S
C1224 C1223 1.415 . S
C1225 H1201 0.951 1_655 S
C1225 C1226 1.366 . S
C1225 C1227 1.388 . S
C1226 C1225 1.366 . S
C1226 C1230 1.385 . S
C1227 H1202 0.951 . S
C1227 C1225 1.388 . S
C1227 C1228 1.366 . S
C1228 C1227 1.366 . S
C1228 C1229 1.414 . S
C1228 C1231 1.499 . S
C1229 H1203 0.950 . S
C1229 C1228 1.414 . S
C1229 C1230 1.374 . S
C1230 H1204 0.950 . S
C1230 C1226 1.385 . S
C1230 C1229 1.374 . S
C1231 C1228 1.499 . S
C1231 C1232 1.373 . S
C1231 C1233 1.389 . S
C1232 H1205 0.950 . S
C1232 C1218 1.377 . S
C1232 C1231 1.373 . S
C1233 C1217 1.377 . S
C1233 C1231 1.389 . S
C1233 C1234 1.524 . S
C1234 C1233 1.524 . S
C1234 C1235 1.397 . S
C1234 C1239 1.363 1_655 S
C1235 H1206 0.950 . S
C1235 C1234 1.397 . S
C1235 C1236 1.334 1_655 S
C1236 H1207 0.950 . S
C1236 C1235 1.334 1_455 S
C1236 C1237 1.287 . S
C1237 C1236 1.287 . S
C1237 C1238 1.524 . S
C1237 H1240 0.999 . S
C1238 H1208 0.950 . S
C1238 C1237 1.524 . S
C1238 C1239 1.415 . S
C1239 H1209 0.950 . S
C1239 C1234 1.363 1_455 S
C1239 C1238 1.415 . S
H1240 C1237 0.999 . S
H1241 C1222 0.913 . S
H1242 C1260 0.951 . S
H1243 C1262 0.951 . S
H1244 C1264 0.950 . S
H1245 C1265 0.950 . S
H1246 C1267 0.950 . S
H1247 C1270 0.950 . S
H1248 C1271 0.950 . S
H1249 C1273 0.950 . S
H1250 C1274 0.950 . S
H1251 C1275 0.951 . S
H1252 C1277 0.951 . S
H1253 C1279 0.950 . S
H1254 C1280 0.950 . S
H1255 C1282 0.950 . S
H1256 C1285 0.950 1_554 S
H1257 C1286 0.950 . S
H1258 C1288 0.950 . S
H1259 C1289 0.971 . S
C1260 H1242 0.951 . S
C1260 C1261 1.366 . S
C1260 C1262 1.388 . S
C1261 C1260 1.366 . S
C1261 C1265 1.385 . S
C1262 H1243 0.951 . S
C1262 C1260 1.388 . S
C1262 C1263 1.366 . S
C1263 C1262 1.366 . S
C1263 C1264 1.414 . S
C1263 C1266 1.499 . S
C1264 H1244 0.950 . S
C1264 C1263 1.414 . S
C1264 C1265 1.374 . S
C1265 H1245 0.950 . S
C1265 C1261 1.385 . S
C1265 C1264 1.374 . S
C1266 C1263 1.499 . S
C1266 C1267 1.373 . S
C1266 C1268 1.389 . S
C1267 H1246 0.950 . S
C1267 C1266 1.373 . S
C1267 C1283 1.377 . S
C1268 C1266 1.389 . S
C1268 C1269 1.524 . S
C1268 C1282 1.377 . S
C1269 C1268 1.524 . S
C1269 C1270 1.397 . S
C1269 C1274 1.363 . S
C1270 H1247 0.950 . S
C1270 C1269 1.397 . S
C1270 C1271 1.334 . S
C1271 H1248 0.950 . S
C1271 C1270 1.334 . S
C1271 C1272 1.287 . S
C1272 C1271 1.287 . S
C1272 C1273 1.524 . S
C1272 H1291 0.913 . S
C1273 H1249 0.950 . S
C1273 C1272 1.524 . S
C1273 C1274 1.415 . S
C1274 H1250 0.950 . S
C1274 C1269 1.363 . S
C1274 C1273 1.415 . S
C1275 H1251 0.951 . S
C1275 C1276 1.366 . S
C1275 C1277 1.388 . S
C1276 C1275 1.366 . S
C1276 C1280 1.385 . S
C1277 H1252 0.951 . S
C1277 C1275 1.388 . S
C1277 C1278 1.366 . S
C1278 C1277 1.366 . S
C1278 C1279 1.414 . S
C1278 C1281 1.499 . S
C1279 H1253 0.950 . S
C1279 C1278 1.414 . S
C1279 C1280 1.374 . S
C1280 H1254 0.950 . S
C1280 C1276 1.385 . S
C1280 C1279 1.374 . S
C1281 C1278 1.499 . S
C1281 C1282 1.373 . S
C1281 C1283 1.389 . S
C1282 H1255 0.950 . S
C1282 C1268 1.377 . S
C1282 C1281 1.373 . S
C1283 C1267 1.377 . S
C1283 C1281 1.389 . S
C1283 C1284 1.524 . S
C1284 C1283 1.524 . S
C1284 C1285 1.397 1_554 S
C1284 C1289 1.377 . S
C1285 H1256 0.950 1_556 S
C1285 C1284 1.397 1_556 S
C1285 C1286 1.334 . S
C1286 H1257 0.950 . S
C1286 C1285 1.334 . S
C1286 C1287 1.287 . S
C1287 C1286 1.287 . S
C1287 C1288 1.524 . S
C1287 H1290 0.999 . S
C1288 H1258 0.950 . S
C1288 C1287 1.524 . S
C1288 C1289 1.381 1_556 S
C1289 H1259 0.971 . S
C1289 C1284 1.377 . S
C1289 C1288 1.381 1_554 S
H1290 C1287 0.999 . S
H1291 C1272 0.913 . S
H1292 C1310 0.951 . S
H1293 C1312 0.951 . S
H1294 C1314 0.950 . S
H1295 C1315 0.950 . S
H1296 C1317 0.950 . S
H1297 C1320 0.950 . S
H1298 C1321 0.950 . S
H1299 C1323 0.950 . S
H1300 C1324 0.950 . S
H1301 C1325 0.951 1_655 S
H1302 C1327 0.951 1_655 S
H1303 C1329 0.950 . S
H1304 C1330 0.950 . S
H1305 C1332 0.950 . S
H1306 C1335 0.950 . S
H1307 C1336 0.950 . S
H1308 C1338 0.950 1_655 S
H1309 C1339 0.950 . S
C1310 H1292 0.951 . S
C1310 C1311 1.366 . S
C1310 C1312 1.388 . S
C1311 C1310 1.366 . S
C1311 C1315 1.385 . S
C1312 H1293 0.951 . S
C1312 C1310 1.388 . S
C1312 C1313 1.366 . S
C1313 C1312 1.366 . S
C1313 C1314 1.414 . S
C1313 C1316 1.499 . S
C1314 H1294 0.950 . S
C1314 C1313 1.414 . S
C1314 C1315 1.374 . S
C1315 H1295 0.950 . S
C1315 C1311 1.385 . S
C1315 C1314 1.374 . S
C1316 C1313 1.499 . S
C1316 C1317 1.373 . S
C1316 C1318 1.389 . S
C1317 H1296 0.950 . S
C1317 C1316 1.373 . S
C1317 C1333 1.377 . S
C1318 C1316 1.389 . S
C1318 C1319 1.524 . S
C1318 C1332 1.377 . S
C1319 C1318 1.524 . S
C1319 C1320 1.397 . S
C1319 C1324 1.363 . S
C1320 H1297 0.950 . S
C1320 C1319 1.397 . S
C1320 C1321 1.334 . S
C1321 H1298 0.950 . S
C1321 C1320 1.334 . S
C1321 C1322 1.287 . S
C1322 C1321 1.287 . S
C1322 C1323 1.524 . S
C1322 H1341 0.913 . S
C1323 H1299 0.950 . S
C1323 C1322 1.524 . S
C1323 C1324 1.415 . S
C1324 H1300 0.950 . S
C1324 C1319 1.363 . S
C1324 C1323 1.415 . S
C1325 H1301 0.951 1_455 S
C1325 C1326 1.366 . S
C1325 C1327 1.388 . S
C1326 C1325 1.366 . S
C1326 C1330 1.385 . S
C1327 H1302 0.951 1_455 S
C1327 C1325 1.388 . S
C1327 C1328 1.366 . S
C1328 C1327 1.366 . S
C1328 C1329 1.414 . S
C1328 C1331 1.499 . S
C1329 H1303 0.950 . S
C1329 C1328 1.414 . S
C1329 C1330 1.374 . S
C1330 H1304 0.950 . S
C1330 C1326 1.385 . S
C1330 C1329 1.374 . S
C1331 C1328 1.499 . S
C1331 C1332 1.373 . S
C1331 C1333 1.389 . S
C1332 H1305 0.950 . S
C1332 C1318 1.377 . S
C1332 C1331 1.373 . S
C1333 C1317 1.377 . S
C1333 C1331 1.389 . S
C1333 C1334 1.524 . S
C1334 C1333 1.524 . S
C1334 C1335 1.397 . S
C1334 C1339 1.363 . S
C1335 H1306 0.950 . S
C1335 C1334 1.397 . S
C1335 C1336 1.334 . S
C1336 H1307 0.950 . S
C1336 C1335 1.334 . S
C1336 C1337 1.287 . S
C1337 C1336 1.287 . S
C1337 C1338 1.524 . S
C1337 H1340 0.999 . S
C1338 H1308 0.950 1_455 S
C1338 C1337 1.524 . S
C1338 C1339 1.415 . S
C1339 H1309 0.950 . S
C1339 C1334 1.363 . S
C1339 C1338 1.415 . S
H1340 C1337 0.999 . S
H1341 C1322 0.913 . S
H1342 C1360 0.951 . S
H1343 C1362 0.951 . S
H1344 C1364 0.950 . S
H1345 C1365 0.950 . S
H1346 C1367 0.950 . S
H1347 C1370 0.950 . S
H1348 C1371 0.950 . S
H1349 C1373 0.950 . S
H1350 C1374 0.950 . S
H1351 C1375 0.951 . S
H1352 C1377 0.951 . S
H1353 C1379 0.950 . S
H1354 C1380 0.950 . S
H1355 C1382 0.950 . S
H1356 C1385 0.950 . S
H1357 C1386 0.950 . S
H1358 C1388 0.950 . S
H1359 C1389 0.950 . S
C1360 H1342 0.951 . S
C1360 C1361 1.366 . S
C1360 C1362 1.388 . S
C1361 C1360 1.366 . S
C1361 C1365 1.385 . S
C1362 H1343 0.951 . S
C1362 C1360 1.388 . S
C1362 C1363 1.366 . S
C1363 C1362 1.366 . S
C1363 C1364 1.414 . S
C1363 C1366 1.499 . S
C1364 H1344 0.950 . S
C1364 C1363 1.414 . S
C1364 C1365 1.374 . S
C1365 H1345 0.950 . S
C1365 C1361 1.385 . S
C1365 C1364 1.374 . S
C1366 C1363 1.499 . S
C1366 C1367 1.373 . S
C1366 C1368 1.389 . S
C1367 H1346 0.950 . S
C1367 C1366 1.373 . S
C1367 C1383 1.377 . S
C1368 C1366 1.389 . S
C1368 C1369 1.524 . S
C1368 C1382 1.377 . S
C1369 C1368 1.524 . S
C1369 C1370 1.397 . S
C1369 C1374 1.363 . S
C1370 H1347 0.950 . S
C1370 C1369 1.397 . S
C1370 C1371 1.334 . S
C1371 H1348 0.950 . S
C1371 C1370 1.334 . S
C1371 C1372 1.287 . S
C1372 C1371 1.287 . S
C1372 C1373 1.524 . S
C1372 H1391 0.913 . S
C1373 H1349 0.950 . S
C1373 C1372 1.524 . S
C1373 C1374 1.415 . S
C1374 H1350 0.950 . S
C1374 C1369 1.363 . S
C1374 C1373 1.415 . S
C1375 H1351 0.951 . S
C1375 C1376 1.366 . S
C1375 C1377 1.388 . S
C1376 C1375 1.366 . S
C1376 C1380 1.385 . S
C1377 H1352 0.951 . S
C1377 C1375 1.388 . S
C1377 C1378 1.366 . S
C1378 C1377 1.366 . S
C1378 C1379 1.414 . S
C1378 C1381 1.499 . S
C1379 H1353 0.950 . S
C1379 C1378 1.414 . S
C1379 C1380 1.374 . S
C1380 H1354 0.950 . S
C1380 C1376 1.385 . S
C1380 C1379 1.374 . S
C1381 C1378 1.499 . S
C1381 C1382 1.373 . S
C1381 C1383 1.389 . S
C1382 H1355 0.950 . S
C1382 C1368 1.377 . S
C1382 C1381 1.373 . S
C1383 C1367 1.377 . S
C1383 C1381 1.389 . S
C1383 C1384 1.524 . S
C1384 C1383 1.524 . S
C1384 C1385 1.397 . S
C1384 C1389 1.363 . S
C1385 H1356 0.950 . S
C1385 C1384 1.397 . S
C1385 C1386 1.334 . S
C1386 H1357 0.950 . S
C1386 C1385 1.334 . S
C1386 C1387 1.287 . S
C1387 C1386 1.287 . S
C1387 C1388 1.524 . S
C1387 H1390 0.999 . S
C1388 H1358 0.950 . S
C1388 C1387 1.524 . S
C1388 C1389 1.415 . S
C1389 H1359 0.950 . S
C1389 C1384 1.363 . S
C1389 C1388 1.415 . S
H1390 C1387 0.999 . S
H1391 C1372 0.913 . S
C211 C5 2.121 . S
C226 C88 2.132 . S
C261 C14 1.067 . S
C276 N108 1.042 . S
C326 C142 1.940 . S
C311 C25 1.936 . S
C361 C34 1.217 . S
C376 N176 1.176 . S
C426 C129 2.287 . S
C411 C7 2.276 . S
C476 N86 1.112 . S
C461 C13 1.142 . S
C526 C163 1.950 . S
C511 C23 1.945 . S
C576 N138 0.943 . S
C561 C31 0.953 . S
C611 C4 1.781 . S
C626 C178 1.790 . S
C676 C112 1.659 . S
C661 C22 1.652 . S
C711 C32 1.378 . S
C726 C73 1.389 . S
C761 C16 1.378 . S
C776 C159 1.385 . S
C826 C99 2.115 . S
C811 C41 2.103 . S
C861 C50 1.074 . S
C876 N116 1.049 . S
C911 C61 1.927 . S
C926 C133 1.934 . S
C961 C67 1.229 . S
C976 N168 1.187 . S
C1011 C40 2.295 . S
C1026 C118 2.305 . S
C1076 N78 1.092 . S
C1061 C52 1.120 . S
C1126 C172 1.954 . S
C1111 C59 1.944 . S
C1176 N146 0.941 . S
C1161 C70 0.949 . S
C1211 C43 1.778 . S
C1226 C189 1.789 . S
C1276 C103 1.667 . S
C1261 C58 1.658 . S
C1326 C82 1.375 . S
C1311 C68 1.363 . S
C1361 C49 1.389 . S
C1376 C148 1.397 . S
