# Generated by pormake.
# Topology eea, (3,6)-cn, num edge types: 1
# Building blocks:
#     Node 0, Type 0, BuildingBlock: ESEHIV_clean_linker_0, # of connection points: 3
#     Node 1, Type 0, BuildingBlock: ESEHIV_clean_linker_0, # of connection points: 3
#     Node 2, Type 0, BuildingBlock: ESEHIV_clean_linker_0, # of connection points: 3
#     Node 3, Type 0, BuildingBlock: ESEHIV_clean_linker_0, # of connection points: 3
#     Node 4, Type 0, BuildingBlock: ESEHIV_clean_linker_0, # of connection points: 3
#     Node 5, Type 0, BuildingBlock: ESEHIV_clean_linker_0, # of connection points: 3
#     Node 6, Type 0, BuildingBlock: ESEHIV_clean_linker_0, # of connection points: 3
#     Node 7, Type 0, BuildingBlock: ESEHIV_clean_linker_0, # of connection points: 3
#     Node 8, Type 0, BuildingBlock: ESEHIV_clean_linker_0, # of connection points: 3
#     Node 9, Type 0, BuildingBlock: ESEHIV_clean_linker_0, # of connection points: 3
#     Node 10, Type 0, BuildingBlock: ESEHIV_clean_linker_0, # of connection points: 3
#     Node 11, Type 0, BuildingBlock: ESEHIV_clean_linker_0, # of connection points: 3
#     Node 12, Type 0, BuildingBlock: ESEHIV_clean_linker_0, # of connection points: 3
#     Node 13, Type 0, BuildingBlock: ESEHIV_clean_linker_0, # of connection points: 3
#     Node 14, Type 0, BuildingBlock: ESEHIV_clean_linker_0, # of connection points: 3
#     Node 15, Type 0, BuildingBlock: ESEHIV_clean_linker_0, # of connection points: 3
#     Node 16, Type 0, BuildingBlock: ESEHIV_clean_linker_0, # of connection points: 3
#     Node 17, Type 0, BuildingBlock: ESEHIV_clean_linker_0, # of connection points: 3
#     Node 18, Type 1, BuildingBlock: CUKXOW_clean_sbu_0, # of connection points: 6
#     Node 19, Type 1, BuildingBlock: CUKXOW_clean_sbu_0, # of connection points: 6
#     Node 20, Type 1, BuildingBlock: CUKXOW_clean_sbu_0, # of connection points: 6
#     Node 21, Type 1, BuildingBlock: CUKXOW_clean_sbu_0, # of connection points: 6
#     Node 22, Type 1, BuildingBlock: CUKXOW_clean_sbu_0, # of connection points: 6
#     Node 23, Type 1, BuildingBlock: CUKXOW_clean_sbu_0, # of connection points: 6
#     Node 24, Type 1, BuildingBlock: CUKXOW_clean_sbu_0, # of connection points: 6
#     Node 25, Type 1, BuildingBlock: CUKXOW_clean_sbu_0, # of connection points: 6
#     Node 26, Type 1, BuildingBlock: CUKXOW_clean_sbu_0, # of connection points: 6
#     Edge 27, Type (0, 1), BuildingBlock: ZUJKAS_clean_linker_0, # of connection points: 2
#     Edge 28, Type (0, 1), BuildingBlock: ZUJKAS_clean_linker_0, # of connection points: 2
#     Edge 29, Type (0, 1), BuildingBlock: ZUJKAS_clean_linker_0, # of connection points: 2
#     Edge 30, Type (0, 1), BuildingBlock: ZUJKAS_clean_linker_0, # of connection points: 2
#     Edge 31, Type (0, 1), BuildingBlock: ZUJKAS_clean_linker_0, # of connection points: 2
#     Edge 32, Type (0, 1), BuildingBlock: ZUJKAS_clean_linker_0, # of connection points: 2
#     Edge 33, Type (0, 1), BuildingBlock: ZUJKAS_clean_linker_0, # of connection points: 2
#     Edge 34, Type (0, 1), BuildingBlock: ZUJKAS_clean_linker_0, # of connection points: 2
#     Edge 35, Type (0, 1), BuildingBlock: ZUJKAS_clean_linker_0, # of connection points: 2
#     Edge 36, Type (0, 1), BuildingBlock: ZUJKAS_clean_linker_0, # of connection points: 2
#     Edge 37, Type (0, 1), BuildingBlock: ZUJKAS_clean_linker_0, # of connection points: 2
#     Edge 38, Type (0, 1), BuildingBlock: ZUJKAS_clean_linker_0, # of connection points: 2
#     Edge 39, Type (0, 1), BuildingBlock: ZUJKAS_clean_linker_0, # of connection points: 2
#     Edge 40, Type (0, 1), BuildingBlock: ZUJKAS_clean_linker_0, # of connection points: 2
#     Edge 41, Type (0, 1), BuildingBlock: ZUJKAS_clean_linker_0, # of connection points: 2
#     Edge 42, Type (0, 1), BuildingBlock: ZUJKAS_clean_linker_0, # of connection points: 2
#     Edge 43, Type (0, 1), BuildingBlock: ZUJKAS_clean_linker_0, # of connection points: 2
#     Edge 44, Type (0, 1), BuildingBlock: ZUJKAS_clean_linker_0, # of connection points: 2
#     Edge 45, Type (0, 1), BuildingBlock: ZUJKAS_clean_linker_0, # of connection points: 2
#     Edge 46, Type (0, 1), BuildingBlock: ZUJKAS_clean_linker_0, # of connection points: 2
#     Edge 47, Type (0, 1), BuildingBlock: ZUJKAS_clean_linker_0, # of connection points: 2
#     Edge 48, Type (0, 1), BuildingBlock: ZUJKAS_clean_linker_0, # of connection points: 2
#     Edge 49, Type (0, 1), BuildingBlock: ZUJKAS_clean_linker_0, # of connection points: 2
#     Edge 50, Type (0, 1), BuildingBlock: ZUJKAS_clean_linker_0, # of connection points: 2
#     Edge 51, Type (0, 1), BuildingBlock: ZUJKAS_clean_linker_0, # of connection points: 2
#     Edge 52, Type (0, 1), BuildingBlock: ZUJKAS_clean_linker_0, # of connection points: 2
#     Edge 53, Type (0, 1), BuildingBlock: ZUJKAS_clean_linker_0, # of connection points: 2
#     Edge 54, Type (0, 1), BuildingBlock: ZUJKAS_clean_linker_0, # of connection points: 2
#     Edge 55, Type (0, 1), BuildingBlock: ZUJKAS_clean_linker_0, # of connection points: 2
#     Edge 56, Type (0, 1), BuildingBlock: ZUJKAS_clean_linker_0, # of connection points: 2
#     Edge 57, Type (0, 1), BuildingBlock: ZUJKAS_clean_linker_0, # of connection points: 2
#     Edge 58, Type (0, 1), BuildingBlock: ZUJKAS_clean_linker_0, # of connection points: 2
#     Edge 59, Type (0, 1), BuildingBlock: ZUJKAS_clean_linker_0, # of connection points: 2
#     Edge 60, Type (0, 1), BuildingBlock: ZUJKAS_clean_linker_0, # of connection points: 2
#     Edge 61, Type (0, 1), BuildingBlock: ZUJKAS_clean_linker_0, # of connection points: 2
#     Edge 62, Type (0, 1), BuildingBlock: ZUJKAS_clean_linker_0, # of connection points: 2
#     Edge 63, Type (0, 1), BuildingBlock: ZUJKAS_clean_linker_0, # of connection points: 2
#     Edge 64, Type (0, 1), BuildingBlock: ZUJKAS_clean_linker_0, # of connection points: 2
#     Edge 65, Type (0, 1), BuildingBlock: ZUJKAS_clean_linker_0, # of connection points: 2
#     Edge 66, Type (0, 1), BuildingBlock: ZUJKAS_clean_linker_0, # of connection points: 2
#     Edge 67, Type (0, 1), BuildingBlock: ZUJKAS_clean_linker_0, # of connection points: 2
#     Edge 68, Type (0, 1), BuildingBlock: ZUJKAS_clean_linker_0, # of connection points: 2
#     Edge 69, Type (0, 1), BuildingBlock: ZUJKAS_clean_linker_0, # of connection points: 2
#     Edge 70, Type (0, 1), BuildingBlock: ZUJKAS_clean_linker_0, # of connection points: 2
#     Edge 71, Type (0, 1), BuildingBlock: ZUJKAS_clean_linker_0, # of connection points: 2
#     Edge 72, Type (0, 1), BuildingBlock: ZUJKAS_clean_linker_0, # of connection points: 2
#     Edge 73, Type (0, 1), BuildingBlock: ZUJKAS_clean_linker_0, # of connection points: 2
#     Edge 74, Type (0, 1), BuildingBlock: ZUJKAS_clean_linker_0, # of connection points: 2
#     Edge 75, Type (0, 1), BuildingBlock: ZUJKAS_clean_linker_0, # of connection points: 2
#     Edge 76, Type (0, 1), BuildingBlock: ZUJKAS_clean_linker_0, # of connection points: 2
#     Edge 77, Type (0, 1), BuildingBlock: ZUJKAS_clean_linker_0, # of connection points: 2
#     Edge 78, Type (0, 1), BuildingBlock: ZUJKAS_clean_linker_0, # of connection points: 2
#     Edge 79, Type (0, 1), BuildingBlock: ZUJKAS_clean_linker_0, # of connection points: 2
#     Edge 80, Type (0, 1), BuildingBlock: ZUJKAS_clean_linker_0, # of connection points: 2
# Relax obj value: 0.018
# Max RMSD: 0.126
# Mean RMSD: 0.055
data_MOF--net-eea--node1-CUKXOW_clean_sbu_0--node2-ESEHIV_clean_linker_0--edge1-ZUJKAS_clean_linker_0
_symmetry_space_group_name_H-M    P1
_symmetry_Int_Tables_number       1
_symmetry_cell_setting            triclinic
loop_
_symmetry_equiv_pos_as_xyz
'x, y, z'
_cell_length_a     68.058992
_cell_length_b     65.046203
_cell_length_c     74.586796
_cell_angle_alpha  93.141297
_cell_angle_beta   93.077623
_cell_angle_gamma 119.89804
loop_
_atom_site_label
_atom_site_type_symbol
_atom_site_fract_x
_atom_site_fract_y
_atom_site_fract_z
_atom_type_partial_charge
H0 H 0.26746 0.17676 0.45434 0.0
H1 H 0.26905 0.11149 0.45398 0.0
H2 H 0.24222 0.12742 0.40664 0.0
C3 C 0.26423 0.16021 0.44728 0.0
C4 C 0.25438 0.15404 0.42935 0.0
C5 C 0.26962 0.14497 0.45626 0.0
C6 C 0.26512 0.12341 0.44708 0.0
C7 C 0.25517 0.11687 0.42919 0.0
C8 C 0.24999 0.13238 0.42041 0.0
H9 H 0.84206 0.10277 0.46041 0.0
H10 H 0.90672 0.16773 0.46542 0.0
H11 H 0.88566 0.11936 0.41737 0.0
C12 C 0.8579 0.1145 0.45491 0.0
C13 C 0.86177 0.1086 0.43755 0.0
C14 C 0.87405 0.13577 0.46505 0.0
C15 C 0.89426 0.15129 0.45765 0.0
C16 C 0.89856 0.1456 0.44039 0.0
C17 C 0.8822 0.12422 0.43046 0.0
H18 H 0.84378 0.73265 0.46477 0.0
H19 H 0.90965 0.73836 0.46824 0.0
H20 H 0.88821 0.76331 0.42311 0.0
C21 C 0.85981 0.73784 0.45917 0.0
C22 C 0.8639 0.74804 0.4427 0.0
C23 C 0.87627 0.73442 0.46855 0.0
C24 C 0.89707 0.74138 0.46125 0.0
C25 C 0.90144 0.75156 0.44473 0.0
C26 C 0.88473 0.75482 0.43558 0.0
H27 H 0.08811 0.25755 0.53661 0.0
H28 H 0.1516 0.25826 0.53636 0.0
H29 H 0.10869 0.22805 0.57903 0.0
C30 C 0.1003 0.25333 0.54276 0.0
C31 C 0.09594 0.24207 0.55881 0.0
C32 C 0.12029 0.25913 0.53454 0.0
C33 C 0.13611 0.25376 0.54262 0.0
C34 C 0.13209 0.24261 0.55869 0.0
C35 C 0.11192 0.23675 0.56666 0.0
H36 H 0.7402 0.89324 0.55381 0.0
H37 H 0.74002 0.827 0.55172 0.0
H38 H 0.76354 0.87342 0.60097 0.0
C39 C 0.74307 0.88048 0.56052 0.0
C40 C 0.75232 0.88588 0.5786 0.0
C41 C 0.73856 0.85927 0.55075 0.0
C42 C 0.74327 0.84328 0.55926 0.0
C43 C 0.75244 0.84832 0.57735 0.0
C44 C 0.75683 0.86962 0.58692 0.0
H45 H 0.09386 0.83318 0.54282 0.0
H46 H 0.15862 0.89787 0.54699 0.0
H47 H 0.1168 0.88114 0.59124 0.0
C48 C 0.10677 0.84933 0.55066 0.0
C49 C 0.1028 0.8553 0.56795 0.0
C50 C 0.12688 0.86455 0.54305 0.0
C51 C 0.14318 0.88597 0.55291 0.0
C52 C 0.13961 0.89222 0.57026 0.0
C53 C 0.11942 0.8767 0.5777 0.0
H54 H 0.93121 0.50684 0.79134 0.0
H55 H 0.93128 0.44078 0.79088 0.0
H56 H 0.90639 0.45822 0.74324 0.0
C57 C 0.928 0.49038 0.78414 0.0
C58 C 0.91819 0.48442 0.76621 0.0
C59 C 0.93273 0.4747 0.79314 0.0
C60 C 0.92778 0.45298 0.78395 0.0
C61 C 0.91817 0.44682 0.76596 0.0
C62 C 0.91346 0.46267 0.75721 0.0
H63 H 0.51269 0.43728 0.79608 0.0
H64 H 0.57691 0.50269 0.80071 0.0
H65 H 0.55614 0.4539 0.75292 0.0
C66 C 0.52845 0.44908 0.79051 0.0
C67 C 0.53239 0.44303 0.77323 0.0
C68 C 0.54444 0.47052 0.80051 0.0
C69 C 0.56453 0.48612 0.79303 0.0
C70 C 0.56884 0.48035 0.7758 0.0
C71 C 0.55264 0.45879 0.76599 0.0
H72 H 0.51443 0.07134 0.80027 0.0
H73 H 0.57704 0.07005 0.80258 0.0
H74 H 0.56188 0.10462 0.76091 0.0
C75 C 0.53058 0.07627 0.79499 0.0
C76 C 0.53647 0.08899 0.77969 0.0
C77 C 0.54504 0.06926 0.80327 0.0
C78 C 0.56559 0.07498 0.79602 0.0
C79 C 0.57187 0.08786 0.78078 0.0
C80 C 0.55717 0.09474 0.77269 0.0
H81 H 0.75607 0.58937 0.86956 0.0
H82 H 0.81883 0.5885 0.86912 0.0
H83 H 0.77526 0.55811 0.91141 0.0
C84 C 0.768 0.58469 0.87557 0.0
C85 C 0.76332 0.5731 0.89146 0.0
C86 C 0.78796 0.59023 0.86738 0.0
C87 C 0.80337 0.58419 0.87534 0.0
C88 C 0.79899 0.57265 0.89125 0.0
C89 C 0.77885 0.56709 0.89917 0.0
H90 H 0.41253 0.23005 0.88657 0.0
H91 H 0.40772 0.16157 0.88556 0.0
H92 H 0.43568 0.21022 0.93374 0.0
C93 C 0.41535 0.21724 0.89326 0.0
C94 C 0.4246 0.22263 0.91132 0.0
C95 C 0.40921 0.19527 0.88388 0.0
C96 C 0.41241 0.17853 0.89278 0.0
C97 C 0.42195 0.1837 0.91081 0.0
C98 C 0.42781 0.20576 0.92001 0.0
H99 H 0.76065 0.16606 0.87699 0.0
H100 H 0.82538 0.23067 0.87973 0.0
H101 H 0.78523 0.2149 0.92499 0.0
C102 C 0.77376 0.18237 0.88452 0.0
C103 C 0.77041 0.18876 0.90193 0.0
C104 C 0.79355 0.19742 0.87645 0.0
C105 C 0.81018 0.21895 0.886 0.0
C106 C 0.80729 0.22549 0.9035 0.0
C107 C 0.78737 0.21024 0.91135 0.0
H108 H 0.60955 0.8473 0.12177 0.0
H109 H 0.61119 0.78195 0.12076 0.0
H110 H 0.57567 0.79398 0.07691 0.0
C111 C 0.60533 0.83026 0.11497 0.0
C112 C 0.5923 0.82261 0.09817 0.0
C113 C 0.61194 0.81555 0.12341 0.0
C114 C 0.60565 0.79315 0.11463 0.0
C115 C 0.5925 0.78515 0.09789 0.0
C116 C 0.58594 0.80004 0.08976 0.0
H117 H 0.17843 0.7732 0.12835 0.0
H118 H 0.24315 0.83803 0.13153 0.0
H119 H 0.2193 0.78931 0.08352 0.0
C120 C 0.19374 0.78501 0.12224 0.0
C121 C 0.1968 0.77867 0.10474 0.0
C122 C 0.21033 0.8064 0.13198 0.0
C123 C 0.23022 0.82155 0.12405 0.0
C124 C 0.23358 0.81548 0.10657 0.0
C125 C 0.21675 0.79407 0.097 0.0
H126 H 0.18626 0.40963 0.13812 0.0
H127 H 0.24841 0.40757 0.13818 0.0
H128 H 0.22955 0.43779 0.09531 0.0
C129 C 0.20155 0.41338 0.13183 0.0
C130 C 0.20594 0.42433 0.11565 0.0
C131 C 0.21675 0.40723 0.14001 0.0
C132 C 0.23662 0.41225 0.1319 0.0
C133 C 0.24146 0.42341 0.11581 0.0
C134 C 0.22596 0.42927 0.10775 0.0
H135 H 0.42529 0.93342 0.20703 0.0
H136 H 0.48866 0.93354 0.20933 0.0
H137 H 0.44314 0.90292 0.25032 0.0
C138 C 0.43716 0.92916 0.21374 0.0
C139 C 0.43183 0.91772 0.22969 0.0
C140 C 0.45758 0.93483 0.20624 0.0
C141 C 0.47286 0.92922 0.21501 0.0
C142 C 0.46775 0.9177 0.2309 0.0
C143 C 0.44721 0.912 0.23813 0.0
H144 H 0.0663 0.55773 0.22232 0.0
H145 H 0.06777 0.49237 0.22125 0.0
H146 H 0.09066 0.53978 0.26994 0.0
C147 C 0.06955 0.54535 0.22924 0.0
C148 C 0.07889 0.5513 0.2473 0.0
C149 C 0.06543 0.5241 0.21975 0.0
C150 C 0.07067 0.50865 0.22856 0.0
C151 C 0.07997 0.51426 0.24663 0.0
C152 C 0.08389 0.53555 0.25591 0.0
H153 H 0.42831 0.4965 0.21136 0.0
H154 H 0.49252 0.56202 0.21622 0.0
H155 H 0.44885 0.54506 0.2592 0.0
C156 C 0.44056 0.51318 0.21897 0.0
C157 C 0.43602 0.51903 0.23607 0.0
C158 C 0.46107 0.52844 0.21181 0.0
C159 C 0.47706 0.54979 0.22195 0.0
C160 C 0.47283 0.55598 0.23907 0.0
C161 C 0.45229 0.54042 0.24603 0.0
Tb162 Tb 0.52694 0.01707 7e-05 0.0
C163 C 0.51636 0.96873 0.01561 0.0
Tb164 Tb 0.47693 0.98076 0.00662 0.0
O165 O 0.53706 0.02523 0.02905 0.0
O166 O 0.50364 0.01373 0.01904 0.0
O167 O 0.53127 0.98777 0.00805 0.0
C168 C 0.43879 0.95341 0.02185 0.0
O169 O 0.49487 0.96315 0.01693 0.0
C170 C 0.48706 0.97834 0.97341 0.0
C171 C 0.48757 0.0286 0.99145 0.0
O172 O 0.45931 0.96142 0.02919 0.0
O173 O 0.43974 0.96081 0.00595 0.0
O174 O 0.46632 0.96934 0.9777 0.0
O175 O 0.50008 0.98449 0.98769 0.0
O176 O 0.47489 0.01254 0.00236 0.0
O177 O 0.50718 0.03108 0.98682 0.0
C178 C 0.56579 0.04418 0.98565 0.0
O179 O 0.55545 0.0521 0.99561 0.0
O180 O 0.55434 0.02109 0.98391 0.0
C181 C 0.51651 0.01821 0.03323 0.0
Tb182 Tb 0.98678 0.50973 0.99942 0.0
C183 C 0.03424 0.54737 0.01792 0.0
Tb184 Tb 0.02016 0.49284 0.01075 0.0
O185 O 0.98339 0.51742 0.02761 0.0
O186 O 0.99052 0.49062 0.02015 0.0
O187 O 0.01776 0.54394 0.00564 0.0
C188 C 0.04914 0.4829 0.02838 0.0
O189 O 0.03634 0.52943 0.02353 0.0
C190 C 0.018 0.50038 0.9768 0.0
C191 C 0.97182 0.4545 0.99273 0.0
O192 O 0.0539 0.49664 0.01538 0.0
O193 O 0.02803 0.47469 0.03141 0.0
O194 O 0.02302 0.48487 0.98246 0.0
O195 O 0.01653 0.5121 0.99013 0.0
O196 O 0.9904 0.45815 0.00247 0.0
O197 O 0.96772 0.47197 0.98939 0.0
C198 C 0.95846 0.51999 0.98104 0.0
O199 O 0.9718 0.51361 0.97397 0.0
O200 O 0.96108 0.52063 0.99844 0.0
C201 C 0.98875 0.50224 0.03341 0.0
Tb202 Tb 0.48062 0.49329 0.01136 0.0
C203 C 0.49096 0.45553 0.99414 0.0
Tb204 Tb 0.52928 0.51033 0.00098 0.0
O205 O 0.46744 0.4854 0.9829 0.0
O206 O 0.50074 0.51234 0.99095 0.0
O207 O 0.47861 0.45908 0.0058 0.0
C208 C 0.5659 0.52042 0.98363 0.0
O209 O 0.50978 0.47338 0.9888 0.0
C210 C 0.52278 0.50314 0.03487 0.0
C211 C 0.51888 0.54872 0.0178 0.0
O212 O 0.56067 0.50927 0.99809 0.0
O213 O 0.55065 0.52601 0.97907 0.0
O214 O 0.54205 0.51891 0.02955 0.0
O215 O 0.5091 0.49123 0.02131 0.0
O216 O 0.53303 0.54495 0.00841 0.0
O217 O 0.49847 0.53126 0.02112 0.0
C218 C 0.44417 0.48272 0.02912 0.0
O219 O 0.46435 0.48932 0.0365 0.0
O220 O 0.44451 0.48209 0.01174 0.0
C221 C 0.48679 0.50073 0.97746 0.0
Tb222 Tb 0.19077 0.35016 0.3328 0.0
C223 C 0.18059 0.30205 0.34774 0.0
Tb224 Tb 0.14174 0.31549 0.34127 0.0
O225 O 0.20217 0.35989 0.36157 0.0
O226 O 0.16876 0.349 0.35225 0.0
O227 O 0.19383 0.3191 0.3377 0.0
C228 C 0.10448 0.28835 0.35766 0.0
O229 O 0.16035 0.2985 0.35167 0.0
C230 C 0.15057 0.31165 0.30784 0.0
C231 C 0.15198 0.3637 0.32641 0.0
O232 O 0.12491 0.30119 0.36555 0.0
O233 O 0.10502 0.29062 0.3405 0.0
O234 O 0.13046 0.3059 0.31242 0.0
O235 O 0.16376 0.31666 0.32188 0.0
O236 O 0.13865 0.34653 0.33633 0.0
O237 O 0.17223 0.36724 0.3225 0.0
C238 C 0.22813 0.37734 0.31657 0.0
O239 O 0.22752 0.37473 0.33368 0.0
O240 O 0.20769 0.36478 0.30862 0.0
C241 C 0.18209 0.3541 0.36623 0.0
Tb242 Tb 0.65064 0.84286 0.33142 0.0
C243 C 0.70123 0.88054 0.34504 0.0
Tb244 Tb 0.6854 0.82609 0.33932 0.0
O245 O 0.65367 0.85507 0.35994 0.0
O246 O 0.65894 0.827 0.35227 0.0
O247 O 0.68298 0.87647 0.33459 0.0
C248 C 0.70979 0.8087 0.35428 0.0
O249 O 0.7041 0.86309 0.35055 0.0
C250 C 0.68576 0.84259 0.3078 0.0
C251 C 0.63425 0.78748 0.32572 0.0
O252 O 0.70376 0.82239 0.36267 0.0
O253 O 0.70206 0.80472 0.33737 0.0
O254 O 0.70353 0.84342 0.31598 0.0
O255 O 0.66909 0.831 0.31659 0.0
O256 O 0.65439 0.79159 0.33286 0.0
O257 O 0.62951 0.80474 0.32322 0.0
C258 C 0.62172 0.85407 0.31567 0.0
O259 O 0.61773 0.84126 0.32926 0.0
O260 O 0.642 0.86061 0.31103 0.0
C261 C 0.66012 0.84058 0.36546 0.0
Tb262 Tb 0.14232 0.82738 0.34156 0.0
C263 C 0.15094 0.78709 0.32613 0.0
Tb264 Tb 0.19071 0.84155 0.33229 0.0
O265 O 0.13034 0.82162 0.31287 0.0
O266 O 0.16402 0.84638 0.3219 0.0
O267 O 0.13813 0.79207 0.33633 0.0
C268 C 0.22696 0.84995 0.31497 0.0
O269 O 0.17121 0.80382 0.32196 0.0
C270 C 0.18261 0.83316 0.36582 0.0
C271 C 0.18215 0.88194 0.34769 0.0
O272 O 0.20681 0.84305 0.30739 0.0
O273 O 0.22671 0.85199 0.33234 0.0
O274 O 0.20264 0.84763 0.36099 0.0
O275 O 0.16903 0.82261 0.35197 0.0
O276 O 0.19522 0.87695 0.33783 0.0
O277 O 0.16168 0.86524 0.35157 0.0
C278 C 0.10631 0.81905 0.35922 0.0
O279 O 0.10594 0.81506 0.34193 0.0
O280 O 0.12694 0.82786 0.36651 0.0
C281 C 0.1504 0.83601 0.30805 0.0
Tb282 Tb 0.85885 0.68101 0.66415 0.0
C283 C 0.84922 0.63506 0.68213 0.0
Tb284 Tb 0.81 0.64777 0.67445 0.0
O285 O 0.87191 0.68945 0.69268 0.0
O286 O 0.83863 0.68055 0.68475 0.0
O287 O 0.86248 0.65114 0.67149 0.0
C288 C 0.77347 0.62223 0.69192 0.0
O289 O 0.82942 0.63251 0.68633 0.0
C290 C 0.81615 0.64405 0.6403 0.0
C291 C 0.81954 0.69353 0.65633 0.0
O292 O 0.78812 0.64468 0.69577 0.0
O293 O 0.77925 0.61414 0.67809 0.0
O294 O 0.79669 0.63917 0.646 0.0
O295 O 0.83013 0.64835 0.6537 0.0
O296 O 0.80643 0.67764 0.66715 0.0
O297 O 0.83922 0.6959 0.65194 0.0
C298 C 0.89594 0.70743 0.64754 0.0
O299 O 0.88867 0.71533 0.66043 0.0
O300 O 0.88239 0.68466 0.64405 0.0
C301 C 0.85248 0.68487 0.69822 0.0
Tb302 Tb 0.319 0.17765 0.66578 0.0
C303 C 0.36771 0.21481 0.68302 0.0
Tb304 Tb 0.35171 0.15947 0.67615 0.0
O305 O 0.31841 0.18755 0.69417 0.0
O306 O 0.32342 0.1592 0.68667 0.0
O307 O 0.34995 0.21175 0.67244 0.0
C308 C 0.38061 0.14884 0.69302 0.0
O309 O 0.3703 0.19674 0.68757 0.0
C310 C 0.34741 0.16514 0.64203 0.0
C311 C 0.30291 0.12222 0.65902 0.0
O312 O 0.36066 0.14336 0.69782 0.0
O313 O 0.38422 0.16014 0.67866 0.0
O314 O 0.35218 0.14948 0.64776 0.0
O315 O 0.3473 0.17791 0.65529 0.0
O316 O 0.32082 0.12532 0.66945 0.0
O317 O 0.30012 0.14023 0.65468 0.0
C318 C 0.2907 0.18884 0.64856 0.0
O319 O 0.28744 0.179 0.66361 0.0
O320 O 0.30992 0.19246 0.64325 0.0
C321 C 0.32319 0.17191 0.69992 0.0
Tb322 Tb 0.81115 0.15871 0.67668 0.0
C323 C 0.8211 0.11972 0.66037 0.0
Tb324 Tb 0.85977 0.17497 0.66668 0.0
O325 O 0.79845 0.15039 0.64816 0.0
O326 O 0.83172 0.17763 0.65637 0.0
O327 O 0.80698 0.12382 0.66955 0.0
C328 C 0.89598 0.1847 0.64885 0.0
O329 O 0.84166 0.13695 0.65715 0.0
C330 C 0.85294 0.16721 0.70047 0.0
C331 C 0.84987 0.21342 0.68327 0.0
O332 O 0.89612 0.18717 0.66623 0.0
O333 O 0.87549 0.1767 0.64153 0.0
O334 O 0.87253 0.18233 0.69528 0.0
O335 O 0.83921 0.15599 0.68681 0.0
O336 O 0.86232 0.20945 0.67197 0.0
O337 O 0.83064 0.19587 0.68835 0.0
C338 C 0.77473 0.14883 0.69424 0.0
O339 O 0.77876 0.15791 0.67887 0.0
O340 O 0.79109 0.14523 0.6996 0.0
C341 C 0.81788 0.16579 0.64284 0.0
H342 H 0.27729 0.83618 0.12205 0.0
H343 H 0.31249 0.86057 0.10799 0.0
H344 H 0.27311 0.85408 0.05858 0.0
H345 H 0.23786 0.82982 0.07255 0.0
H346 H 0.32423 0.84474 0.07374 0.0
H347 H 0.31983 0.92769 0.0711 0.0
H348 H 0.30487 0.90587 0.08667 0.0
H349 H 0.2943 0.90014 0.06331 0.0
C350 C 0.27615 0.84023 0.10827 0.0
C351 C 0.25485 0.83114 0.09839 0.0
C352 C 0.29623 0.85402 0.10025 0.0
C353 C 0.29532 0.85921 0.08233 0.0
C354 C 0.27411 0.85042 0.07249 0.0
H355 H 0.39535 0.94011 0.00936 0.0
H356 H 0.36054 0.9164 0.02403 0.0
C357 C 0.25404 0.83647 0.08044 0.0
C358 C 0.31655 0.87306 0.07365 0.0
H359 H 0.34894 0.92606 0.05632 0.0
C360 C 0.32975 0.86257 0.06998 0.0
C361 C 0.32349 0.89618 0.0687 0.0
C362 C 0.31003 0.90832 0.07272 0.0
C363 C 0.34962 0.87448 0.06114 0.0
C364 C 0.35672 0.89775 0.05629 0.0
C365 C 0.34348 0.90823 0.06004 0.0
C366 C 0.37777 0.91154 0.04726 0.0
C367 C 0.3624 0.86173 0.05663 0.0
C368 C 0.39901 0.91672 0.05546 0.0
C369 C 0.4188 0.92998 0.04698 0.0
C370 C 0.41777 0.93871 0.03038 0.0
C371 C 0.39657 0.93358 0.02218 0.0
C372 C 0.37673 0.92013 0.03057 0.0
H373 H 0.35138 0.8421 0.0564 0.0
H374 H 0.36933 0.86596 0.04333 0.0
H375 H 0.37684 0.86749 0.06706 0.0
H376 H 0.40032 0.9107 0.06849 0.0
H377 H 0.43493 0.93345 0.05337 0.0
H378 H 0.15927 0.39831 0.11246 0.0
H379 H 0.13263 0.40888 0.09832 0.0
H380 H 0.18887 0.47468 0.0847 0.0
H381 H 0.21572 0.46474 0.09933 0.0
H382 H 0.13399 0.45766 0.10687 0.0
H383 H 0.14438 0.43498 0.0362 0.0
H384 H 0.14966 0.42146 0.05501 0.0
H385 H 0.16959 0.45177 0.05166 0.0
C386 C 0.16602 0.41518 0.10667 0.0
C387 C 0.18968 0.43066 0.10702 0.0
C388 C 0.15076 0.4211 0.09852 0.0
C389 C 0.15886 0.44245 0.09043 0.0
C390 C 0.18237 0.45801 0.09078 0.0
H391 H 0.09437 0.50211 0.0249 0.0
H392 H 0.12101 0.49285 0.04084 0.0
C393 C 0.19766 0.45221 0.09904 0.0
C394 C 0.14272 0.44849 0.08155 0.0
H395 H 0.12075 0.45139 0.04022 0.0
C396 C 0.13099 0.45627 0.09231 0.0
C397 C 0.13909 0.44676 0.06259 0.0
C398 C 0.1512 0.43819 0.05058 0.0
C399 C 0.11584 0.46275 0.08453 0.0
C400 C 0.11193 0.46073 0.0655 0.0
C401 C 0.12373 0.4529 0.05479 0.0
C402 C 0.09581 0.46676 0.05636 0.0
C403 C 0.10467 0.47228 0.09677 0.0
C404 C 0.07277 0.45507 0.05971 0.0
C405 C 0.0576 0.46051 0.05074 0.0
C406 C 0.06516 0.47744 0.03808 0.0
C407 C 0.08813 0.48898 0.03462 0.0
C408 C 0.10333 0.4837 0.04369 0.0
H409 H 0.11437 0.47925 0.11026 0.0
H410 H 0.10309 0.48675 0.09085 0.0
H411 H 0.08735 0.45767 0.09872 0.0
H412 H 0.06645 0.44151 0.06907 0.0
H413 H 0.03991 0.45127 0.05356 0.0
H414 H 0.59156 0.77204 0.06213 0.0
H415 H 0.57882 0.73207 0.04784 0.0
H416 H 0.56433 0.70379 0.09951 0.0
H417 H 0.57679 0.74358 0.11389 0.0
H418 H 0.589 0.6882 0.07923 0.0
H419 H 0.51247 0.67667 0.039 0.0
H420 H 0.53857 0.70335 0.036 0.0
H421 H 0.52718 0.69947 0.05754 0.0
C422 C 0.58545 0.75727 0.07043 0.0
C423 C 0.58515 0.761 0.08915 0.0
C424 C 0.57819 0.73446 0.06224 0.0
C425 C 0.57037 0.71495 0.07259 0.0
C426 C 0.57028 0.71862 0.09129 0.0
H427 H 0.49542 0.56395 0.03816 0.0
H428 H 0.50825 0.60441 0.05118 0.0
C429 C 0.57752 0.7414 0.09948 0.0
C430 C 0.5626 0.69072 0.06403 0.0
H431 H 0.52224 0.64677 0.03359 0.0
C432 C 0.57442 0.67912 0.06924 0.0
C433 C 0.5434 0.67885 0.05117 0.0
C434 C 0.5295 0.69008 0.04567 0.0
C435 C 0.56768 0.65603 0.06179 0.0
C436 C 0.54881 0.64439 0.04863 0.0
C437 C 0.53683 0.65586 0.04356 0.0
C438 C 0.54094 0.62005 0.04027 0.0
C439 C 0.58054 0.64409 0.0683 0.0
C440 C 0.55496 0.61553 0.02957 0.0
C441 C 0.54769 0.59242 0.02207 0.0
C442 C 0.5262 0.5734 0.02507 0.0
C443 C 0.51205 0.57812 0.03554 0.0
C444 C 0.51934 0.60125 0.04301 0.0
H445 H 0.5911 0.65312 0.08124 0.0
H446 H 0.56864 0.62511 0.07017 0.0
H447 H 0.59203 0.64469 0.05808 0.0
H448 H 0.57155 0.62989 0.02706 0.0
H449 H 0.55901 0.58949 0.01404 0.0
H450 H 0.8008 0.25726 0.92425 0.0
H451 H 0.82982 0.29509 0.9404 0.0
H452 H 0.88258 0.28352 0.92142 0.0
H453 H 0.85367 0.24543 0.90544 0.0
H454 H 0.86587 0.30408 0.96747 0.0
H455 H 0.89768 0.34985 0.90566 0.0
H456 H 0.87065 0.32265 0.90535 0.0
H457 H 0.89664 0.32178 0.90668 0.0
C458 C 0.81857 0.26261 0.92366 0.0
C459 C 0.82492 0.24835 0.9135 0.0
C460 C 0.83511 0.28427 0.93283 0.0
C461 C 0.85829 0.29216 0.93193 0.0
C462 C 0.86475 0.27788 0.92203 0.0
H463 H 0.97204 0.413 0.99737 0.0
H464 H 0.94478 0.37298 0.98326 0.0
C465 C 0.84821 0.25617 0.91288 0.0
C466 C 0.87567 0.31549 0.94122 0.0
H467 H 0.91698 0.37135 0.93357 0.0
C468 C 0.87713 0.31879 0.9601 0.0
C469 C 0.89013 0.33463 0.9315 0.0
C470 C 0.88869 0.33224 0.91117 0.0
C471 C 0.89275 0.34083 0.96956 0.0
C472 C 0.90732 0.35992 0.95984 0.0
C473 C 0.90586 0.35659 0.94096 0.0
C474 C 0.92351 0.38385 0.96889 0.0
C475 C 0.89317 0.34376 0.9898 0.0
C476 C 0.92065 0.40318 0.96535 0.0
C477 C 0.93614 0.42601 0.97334 0.0
C478 C 0.95493 0.43002 0.98497 0.0
C479 C 0.95772 0.41055 0.98855 0.0
C480 C 0.94212 0.38765 0.98056 0.0
H481 H 0.87798 0.32886 0.99487 0.0
H482 H 0.90857 0.34425 0.99609 0.0
H483 H 0.89401 0.36078 0.99423 0.0
H484 H 0.90642 0.40059 0.95633 0.0
H485 H 0.93347 0.44054 0.97018 0.0
H486 H 0.74598 0.60233 0.89837 0.0
H487 H 0.71181 0.5932 0.91353 0.0
H488 H 0.69923 0.52217 0.91934 0.0
H489 H 0.7333 0.5311 0.90413 0.0
H490 H 0.65984 0.52848 0.9048 0.0
H491 H 0.7069 0.58156 0.9696 0.0
H492 H 0.7162 0.59546 0.94909 0.0
H493 H 0.71942 0.5705 0.95376 0.0
C494 C 0.73582 0.58472 0.90275 0.0
C495 C 0.74231 0.56744 0.90013 0.0
C496 C 0.71643 0.5796 0.91148 0.0
C497 C 0.70319 0.5571 0.91761 0.0
C498 C 0.70935 0.53967 0.91473 0.0
H499 H 0.59964 0.51083 0.99256 0.0
H500 H 0.63259 0.51932 0.97593 0.0
C501 C 0.72883 0.54482 0.90615 0.0
C502 C 0.68298 0.55178 0.9272 0.0
H503 H 0.66691 0.5637 0.9672 0.0
C504 C 0.66131 0.53614 0.91844 0.0
C505 C 0.6851 0.56173 0.945 0.0
C506 C 0.70812 0.57816 0.95506 0.0
C507 C 0.64156 0.5303 0.92702 0.0
C508 C 0.64365 0.54051 0.94477 0.0
C509 C 0.66538 0.55599 0.95357 0.0
C510 C 0.62351 0.53514 0.95458 0.0
C511 C 0.61866 0.51308 0.9171 0.0
C512 C 0.60764 0.54141 0.94814 0.0
C513 C 0.58885 0.53659 0.95761 0.0
C514 C 0.58574 0.52554 0.97371 0.0
C515 C 0.60168 0.51937 0.98018 0.0
C516 C 0.62047 0.52421 0.97072 0.0
H517 H 0.62012 0.50233 0.9057 0.0
H518 H 0.60688 0.5008 0.92631 0.0
H519 H 0.61107 0.52328 0.91151 0.0
H520 H 0.60989 0.55023 0.93588 0.0
H521 H 0.57679 0.54154 0.95235 0.0
H522 H 0.41614 0.17201 0.94572 0.0
H523 H 0.42572 0.14512 0.96069 0.0
H524 H 0.4477 0.12945 0.91124 0.0
H525 H 0.43868 0.15661 0.89626 0.0
H526 H 0.41821 0.08841 0.9301 0.0
H527 H 0.49247 0.16011 0.9738 0.0
H528 H 0.46618 0.16036 0.97421 0.0
H529 H 0.48038 0.16598 0.95393 0.0
C530 C 0.42316 0.16297 0.93805 0.0
C531 C 0.4267 0.16654 0.91978 0.0
C532 C 0.42856 0.14758 0.94662 0.0
C533 C 0.43759 0.1355 0.93709 0.0
C534 C 0.44071 0.13861 0.9188 0.0
H535 H 0.51022 0.06551 0.97081 0.0
H536 H 0.49703 0.09092 0.95831 0.0
C537 C 0.43541 0.15405 0.91024 0.0
C538 C 0.44411 0.11982 0.94617 0.0
H539 H 0.48281 0.12049 0.97764 0.0
C540 C 0.43224 0.09535 0.94057 0.0
C541 C 0.46257 0.12905 0.95967 0.0
C542 C 0.47631 0.15533 0.96574 0.0
C543 C 0.43838 0.07982 0.94814 0.0
C544 C 0.45677 0.08904 0.96171 0.0
C545 C 0.46861 0.1135 0.96732 0.0
C546 C 0.46464 0.07374 0.96966 0.0
C547 C 0.42558 0.05379 0.94125 0.0
C548 C 0.45086 0.05584 0.98038 0.0
C549 C 0.45836 0.04128 0.98763 0.0
C550 C 0.47979 0.0444 0.98427 0.0
C551 C 0.49361 0.06256 0.97367 0.0
C552 C 0.48614 0.07714 0.96651 0.0
H553 H 0.41471 0.05036 0.92853 0.0
H554 H 0.43759 0.04726 0.93887 0.0
H555 H 0.41446 0.04331 0.95154 0.0
H556 H 0.43431 0.05314 0.98314 0.0
H557 H 0.44728 0.0275 0.99574 0.0
H558 H 0.74519 0.20249 0.92125 0.0
H559 H 0.71054 0.17722 0.9354 0.0
H560 H 0.71202 0.11479 0.91483 0.0
H561 H 0.7472 0.14001 0.90115 0.0
H562 H 0.6687 0.14119 0.91936 0.0
H563 H 0.70625 0.10624 0.96853 0.0
H564 H 0.72347 0.1316 0.95643 0.0
H565 H 0.71085 0.10191 0.94549 0.0
C566 C 0.73834 0.18341 0.91994 0.0
C567 C 0.74909 0.17328 0.91021 0.0
C568 C 0.71844 0.16899 0.92792 0.0
C569 C 0.70891 0.14418 0.92639 0.0
C570 C 0.71934 0.13394 0.91646 0.0
H571 H 0.58799 0.02883 0.96439 0.0
H572 H 0.62249 0.05318 0.94959 0.0
C573 C 0.7393 0.14836 0.90848 0.0
C574 C 0.68785 0.12909 0.93498 0.0
H575 H 0.66616 0.0892 0.9665 0.0
C576 C 0.66814 0.12987 0.9297 0.0
C577 C 0.68721 0.11435 0.94847 0.0
C578 C 0.70811 0.11356 0.95522 0.0
C579 C 0.64769 0.11608 0.93741 0.0
C580 C 0.64709 0.1014 0.95091 0.0
C581 C 0.66674 0.1005 0.95613 0.0
C582 C 0.62619 0.08682 0.95982 0.0
C583 C 0.62681 0.11699 0.93086 0.0
C584 C 0.61705 0.09774 0.97061 0.0
C585 C 0.5974 0.08387 0.97912 0.0
C586 C 0.5867 0.05892 0.97698 0.0
C587 C 0.59596 0.04805 0.96627 0.0
C588 C 0.61562 0.0619 0.95782 0.0
H589 H 0.62871 0.12478 0.91773 0.0
H590 H 0.6115 0.0989 0.92937 0.0
H591 H 0.62391 0.12823 0.94088 0.0
H592 H 0.62519 0.11697 0.97254 0.0
H593 H 0.59059 0.09266 0.98734 0.0
H594 H 0.81297 0.57738 0.92709 0.0
H595 H 0.84024 0.56746 0.9409 0.0
H596 H 0.84997 0.5447 0.8884 0.0
H597 H 0.82241 0.55418 0.87445 0.0
H598 H 0.83785 0.52183 0.93778 0.0
H599 H 0.91537 0.59326 0.91142 0.0
H600 H 0.8893 0.59416 0.91187 0.0
H601 H 0.89166 0.57493 0.895 0.0
C602 C 0.82075 0.57008 0.91848 0.0
C603 C 0.81554 0.56661 0.89966 0.0
C604 C 0.83642 0.56456 0.92639 0.0
C605 C 0.84729 0.55565 0.91564 0.0
C606 C 0.84205 0.55199 0.89688 0.0
H607 H 0.95011 0.51704 0.94453 0.0
H608 H 0.92256 0.5246 0.92793 0.0
C609 C 0.82634 0.55744 0.88895 0.0
C610 C 0.86373 0.54972 0.92417 0.0
H611 H 0.91994 0.56594 0.92821 0.0
C612 C 0.85581 0.53144 0.9357 0.0
C613 C 0.88707 0.56221 0.92128 0.0
C614 C 0.8965 0.58237 0.90933 0.0
C615 C 0.87063 0.52529 0.94447 0.0
C616 C 0.89409 0.53815 0.94193 0.0
C617 C 0.90195 0.55615 0.93014 0.0
C618 C 0.91083 0.5337 0.95188 0.0
C619 C 0.86099 0.50488 0.95619 0.0
C620 C 0.91362 0.53673 0.9708 0.0
C621 C 0.92921 0.53234 0.98027 0.0
C622 C 0.94243 0.5251 0.97096 0.0
C623 C 0.94002 0.52254 0.95201 0.0
C624 C 0.92433 0.52685 0.94253 0.0
H625 H 0.84247 0.49267 0.95252 0.0
H626 H 0.86983 0.49447 0.95512 0.0
H627 H 0.86329 0.51207 0.97047 0.0
H628 H 0.90377 0.54256 0.97826 0.0
H629 H 0.93089 0.53462 0.99487 0.0
H630 H 0.44849 0.26649 0.89901 0.0
H631 H 0.45903 0.30515 0.9146 0.0
H632 H 0.42594 0.27044 0.96072 0.0
H633 H 0.41566 0.2317 0.94527 0.0
H634 H 0.43198 0.32129 0.92653 0.0
H635 H 0.48724 0.32167 0.98424 0.0
H636 H 0.47783 0.30044 0.96462 0.0
H637 H 0.45903 0.29622 0.98187 0.0
C638 C 0.44348 0.26711 0.91248 0.0
C639 C 0.43129 0.24609 0.92095 0.0
C640 C 0.44956 0.2892 0.92139 0.0
C641 C 0.44357 0.29074 0.93893 0.0
C642 C 0.43125 0.26976 0.94738 0.0
H643 H 0.45882 0.41352 0.00586 0.0
H644 H 0.44644 0.37297 0.99289 0.0
C645 C 0.42533 0.24764 0.93852 0.0
C646 C 0.44966 0.3143 0.94803 0.0
H647 H 0.479 0.35312 0.98528 0.0
C648 C 0.44228 0.32823 0.93937 0.0
C649 C 0.4631 0.32336 0.9648 0.0
C650 C 0.47246 0.30977 0.97437 0.0
C651 C 0.448 0.35094 0.94699 0.0
C652 C 0.46145 0.35995 0.96367 0.0
C653 C 0.46857 0.34599 0.97251 0.0
C654 C 0.4691 0.38433 0.97171 0.0
C655 C 0.43969 0.36525 0.93719 0.0
C656 C 0.48606 0.40399 0.96414 0.0
C657 C 0.49327 0.42709 0.97155 0.0
C658 C 0.48356 0.43096 0.98663 0.0
C659 C 0.46659 0.41116 0.99422 0.0
C660 C 0.45953 0.388 0.98687 0.0
H661 H 0.42642 0.3543 0.92598 0.0
H662 H 0.43265 0.37313 0.94667 0.0
H663 H 0.45423 0.38013 0.93148 0.0
H664 H 0.49369 0.40142 0.95247 0.0
H665 H 0.50628 0.44192 0.9653 0.0
H666 H 0.20369 0.74665 0.08479 0.0
H667 H 0.17494 0.70858 0.06881 0.0
H668 H 0.12177 0.72058 0.08622 0.0
H669 H 0.15045 0.75881 0.10216 0.0
H670 H 0.11463 0.67558 0.09184 0.0
H671 H 0.13519 0.69637 0.02179 0.0
H672 H 0.15931 0.70222 0.03679 0.0
H673 H 0.14531 0.71914 0.04046 0.0
C674 C 0.18589 0.74137 0.08498 0.0
C675 C 0.17935 0.7558 0.09469 0.0
C676 C 0.16949 0.71962 0.07584 0.0
C677 C 0.14625 0.71194 0.07611 0.0
C678 C 0.13964 0.72625 0.08579 0.0
H679 H 0.03638 0.58908 0.00998 0.0
H680 H 0.06277 0.62928 0.02416 0.0
C681 C 0.15603 0.74801 0.09495 0.0
C682 C 0.12884 0.68849 0.06696 0.0
H683 H 0.11058 0.65547 0.0261 0.0
C684 C 0.11363 0.67122 0.07745 0.0
C685 C 0.1274 0.68297 0.04815 0.0
C686 C 0.14252 0.70121 0.03609 0.0
C687 C 0.0974 0.64833 0.06971 0.0
C688 C 0.09664 0.64249 0.05104 0.0
C689 C 0.11139 0.65995 0.04045 0.0
C690 C 0.08085 0.61821 0.04232 0.0
C691 C 0.08114 0.63064 0.08157 0.0
C692 C 0.08256 0.59877 0.04764 0.0
C693 C 0.06755 0.57581 0.03959 0.0
C694 C 0.0506 0.57186 0.02597 0.0
C695 C 0.04919 0.59146 0.02045 0.0
C696 C 0.06425 0.61445 0.02852 0.0
H697 H 0.0798 0.63964 0.09415 0.0
H698 H 0.06388 0.61965 0.07435 0.0
H699 H 0.08742 0.61855 0.08542 0.0
H700 H 0.09556 0.60137 0.05802 0.0
H701 H 0.0692 0.56117 0.04415 0.0
H702 H 0.28431 0.44186 0.13284 0.0
H703 H 0.31958 0.45231 0.11906 0.0
H704 H 0.28232 0.429 0.06642 0.0
H705 H 0.24693 0.41812 0.08007 0.0
H706 H 0.32979 0.42234 0.09607 0.0
H707 H 0.33403 0.49824 0.06222 0.0
H708 H 0.31633 0.48556 0.08033 0.0
H709 H 0.30737 0.47078 0.05789 0.0
C710 C 0.28357 0.43872 0.11835 0.0
C711 C 0.26281 0.42926 0.10754 0.0
C712 C 0.30375 0.44482 0.11051 0.0
C713 C 0.30355 0.44174 0.09173 0.0
C714 C 0.28286 0.43194 0.08092 0.0
H715 H 0.40103 0.46698 0.01466 0.0
H716 H 0.36744 0.45697 0.03077 0.0
C717 C 0.26267 0.42578 0.08874 0.0
C718 C 0.32497 0.44864 0.08341 0.0
H719 H 0.36016 0.48593 0.0544 0.0
C720 C 0.33657 0.43634 0.08705 0.0
C721 C 0.33369 0.46693 0.07169 0.0
C722 C 0.32236 0.48133 0.06788 0.0
C723 C 0.35636 0.44135 0.0788 0.0
C724 C 0.36495 0.45948 0.0669 0.0
C725 C 0.3535 0.47201 0.0635 0.0
C726 C 0.3854 0.4653 0.05738 0.0
C727 C 0.36745 0.42669 0.08244 0.0
C728 C 0.40667 0.47349 0.06701 0.0
C729 C 0.42585 0.47908 0.05782 0.0
C730 C 0.42405 0.4768 0.03887 0.0
C731 C 0.40283 0.46885 0.02927 0.0
C732 C 0.38367 0.46316 0.03845 0.0
H733 H 0.35571 0.40984 0.08815 0.0
H734 H 0.37323 0.42227 0.06991 0.0
H735 H 0.38256 0.43707 0.09235 0.0
H736 H 0.40848 0.47576 0.08161 0.0
H737 H 0.44207 0.48528 0.06551 0.0
H738 H 0.5498 0.80961 0.083 0.0
H739 H 0.53747 0.83485 0.06867 0.0
H740 H 0.60523 0.89531 0.07981 0.0
H741 H 0.61778 0.87018 0.09414 0.0
H742 H 0.54652 0.88456 0.08765 0.0
H743 H 0.58228 0.88519 0.02204 0.0
H744 H 0.5738 0.86074 0.03594 0.0
H745 H 0.59912 0.88867 0.0427 0.0
C746 C 0.56211 0.82825 0.08229 0.0
C747 C 0.58478 0.83793 0.08962 0.0
C748 C 0.55502 0.84262 0.07419 0.0
C749 C 0.5705 0.86682 0.07314 0.0
C750 C 0.5931 0.87661 0.08047 0.0
H751 H 0.55999 0.9771 0.02054 0.0
H752 H 0.57297 0.95249 0.03478 0.0
C753 C 0.60019 0.86229 0.0887 0.0
C754 C 0.56292 0.88189 0.0645 0.0
H755 H 0.56388 0.90748 0.02559 0.0
C756 C 0.55026 0.8896 0.07408 0.0
C757 C 0.56804 0.88848 0.04689 0.0
C758 C 0.58149 0.88036 0.03614 0.0
C759 C 0.54267 0.90401 0.06652 0.0
C760 C 0.54738 0.91025 0.04871 0.0
C761 C 0.5602 0.9026 0.0392 0.0
C762 C 0.53928 0.92484 0.03974 0.0
C763 C 0.53018 0.91285 0.07785 0.0
C764 C 0.51597 0.91724 0.03746 0.0
C765 C 0.50848 0.93135 0.02944 0.0
C766 C 0.52415 0.95318 0.02327 0.0
C767 C 0.54744 0.96039 0.0251 0.0
C768 C 0.55491 0.94635 0.03326 0.0
H769 H 0.5338 0.91238 0.09248 0.0
H770 H 0.53488 0.93135 0.07533 0.0
H771 H 0.51158 0.90119 0.07436 0.0
H772 H 0.50354 0.9004 0.04192 0.0
H773 H 0.49041 0.92513 0.02812 0.0
H774 H 0.90477 0.15786 0.40575 0.0
H775 H 0.94067 0.18279 0.39298 0.0
H776 H 0.97733 0.19546 0.44514 0.0
H777 H 0.9416 0.16976 0.45788 0.0
H778 H 0.97289 0.23013 0.4019 0.0
H779 H 0.01038 0.17254 0.41295 0.0
H780 H 0.98068 0.16245 0.41493 0.0
H781 H 0.00181 0.18137 0.43294 0.0
C782 C 0.92049 0.16573 0.41447 0.0
C783 C 0.92031 0.16165 0.43281 0.0
C784 C 0.94097 0.1801 0.40718 0.0
C785 C 0.9617 0.19066 0.41804 0.0
C786 C 0.96157 0.1871 0.43644 0.0
H787 H 0.10175 0.28269 0.39349 0.0
H788 H 0.06728 0.25971 0.40882 0.0
C789 C 0.94109 0.17265 0.44374 0.0
C790 C 0.98336 0.20554 0.41008 0.0
H791 H 0.03412 0.20977 0.40195 0.0
C792 C 0.98627 0.22567 0.40189 0.0
C793 C 0.00081 0.19969 0.41013 0.0
C794 C 0.99827 0.17773 0.41806 0.0
C795 C 0.00619 0.24018 0.39378 0.0
C796 C 0.02351 0.23419 0.39367 0.0
C797 C 0.02078 0.21428 0.40208 0.0
C798 C 0.04432 0.24802 0.38445 0.0
C799 C 0.00866 0.26192 0.38553 0.0
C800 C 0.0428 0.24874 0.36568 0.0
C801 C 0.06242 0.26174 0.35693 0.0
C802 C 0.08386 0.27417 0.36683 0.0
C803 C 0.0854 0.27324 0.38559 0.0
C804 C 0.06577 0.26016 0.39434 0.0
H805 H 0.99666 0.26729 0.39061 0.0
H806 H 0.0263 0.27718 0.38842 0.0
H807 H 0.00493 0.25793 0.37068 0.0
H808 H 0.02643 0.23914 0.35779 0.0
H809 H 0.0608 0.26213 0.34244 0.0
H810 H 0.83888 0.76612 0.457 0.0
H811 H 0.81094 0.77342 0.44105 0.0
H812 H 0.82198 0.74658 0.39071 0.0
H813 H 0.85003 0.73927 0.40659 0.0
H814 H 0.82294 0.78912 0.38863 0.0
H815 H 0.74631 0.72566 0.42025 0.0
H816 H 0.76944 0.74602 0.43637 0.0
H817 H 0.77245 0.72481 0.42199 0.0
C818 C 0.83512 0.76145 0.44257 0.0
C819 C 0.84657 0.75201 0.43306 0.0
C820 C 0.81912 0.76559 0.43348 0.0
C821 C 0.81409 0.76015 0.41474 0.0
C822 C 0.82553 0.75079 0.40519 0.0
H823 H 0.72639 0.78278 0.33782 0.0
H824 H 0.75124 0.76967 0.35184 0.0
C825 C 0.84161 0.74672 0.41427 0.0
C826 C 0.79765 0.76526 0.40502 0.0
H827 H 0.74295 0.75418 0.40347 0.0
C828 C 0.80538 0.78129 0.39173 0.0
C829 C 0.77476 0.755 0.40909 0.0
C830 C 0.76515 0.73674 0.42258 0.0
C831 C 0.79102 0.78794 0.38279 0.0
C832 C 0.76828 0.77805 0.38714 0.0
C833 C 0.76043 0.76175 0.40022 0.0
C834 C 0.75261 0.78507 0.37867 0.0
C835 C 0.80047 0.80606 0.36919 0.0
C836 C 0.74476 0.79753 0.38921 0.0
C837 C 0.73061 0.80498 0.38127 0.0
C838 C 0.72396 0.79993 0.36266 0.0
C839 C 0.73138 0.78697 0.35218 0.0
C840 C 0.74561 0.77958 0.36014 0.0
H841 H 0.81936 0.81543 0.37002 0.0
H842 H 0.79377 0.79692 0.3554 0.0
H843 H 0.79507 0.8195 0.3712 0.0
H844 H 0.74992 0.80184 0.40355 0.0
H845 H 0.72504 0.81488 0.38966 0.0
H846 H 0.26083 0.10702 0.39424 0.0
H847 H 0.24985 0.06807 0.37881 0.0
H848 H 0.22575 0.03502 0.42769 0.0
H849 H 0.23629 0.07372 0.44314 0.0
H850 H 0.25388 0.02078 0.40947 0.0
H851 H 0.18296 0.01426 0.36413 0.0
H852 H 0.21006 0.04105 0.36411 0.0
H853 H 0.19525 0.03501 0.3841 0.0
C854 C 0.25305 0.09144 0.40167 0.0
C855 C 0.24938 0.09347 0.41991 0.0
C856 C 0.24683 0.06924 0.39284 0.0
C857 C 0.2368 0.04871 0.40209 0.0
C858 C 0.23349 0.0507 0.42034 0.0
H859 H 0.15949 0.89954 0.36653 0.0
H860 H 0.17379 0.94058 0.37884 0.0
C861 C 0.23964 0.07285 0.42917 0.0
C862 C 0.22959 0.02503 0.39278 0.0
H863 H 0.19109 0.98308 0.36027 0.0
C864 C 0.24025 0.01255 0.39864 0.0
C865 C 0.21165 0.01434 0.3788 0.0
C866 C 0.19913 0.0267 0.37244 0.0
C867 C 0.23336 0.98954 0.39091 0.0
C868 C 0.21551 0.97891 0.37686 0.0
C869 C 0.2049 0.99142 0.37096 0.0
C870 C 0.20684 0.95432 0.36874 0.0
C871 C 0.24477 0.9765 0.39816 0.0
C872 C 0.22061 0.94859 0.35875 0.0
C873 C 0.21249 0.92512 0.35164 0.0
C874 C 0.19043 0.90701 0.35441 0.0
C875 C 0.17656 0.91299 0.36415 0.0
C876 C 0.18468 0.93645 0.37119 0.0
H877 H 0.25506 0.98528 0.41124 0.0
H878 H 0.23194 0.95781 0.40002 0.0
H879 H 0.25628 0.97608 0.38834 0.0
H880 H 0.23767 0.96224 0.35652 0.0
H881 H 0.22361 0.92116 0.34418 0.0
H882 H 0.46427 0.58691 0.25894 0.0
H883 H 0.49191 0.62512 0.27538 0.0
H884 H 0.54689 0.61578 0.25882 0.0
H885 H 0.51938 0.57718 0.24269 0.0
H886 H 0.52934 0.63536 0.30372 0.0
H887 H 0.55804 0.68134 0.24145 0.0
H888 H 0.53128 0.65392 0.24158 0.0
H889 H 0.55745 0.65346 0.24245 0.0
C890 C 0.48222 0.59276 0.259 0.0
C891 C 0.4896 0.57897 0.24945 0.0
C892 C 0.49797 0.61465 0.26834 0.0
C893 C 0.52137 0.62327 0.26817 0.0
C894 C 0.52886 0.60948 0.25892 0.0
H895 H 0.63551 0.74649 0.32992 0.0
H896 H 0.60767 0.70606 0.31701 0.0
C897 C 0.51312 0.58751 0.24965 0.0
C898 C 0.53794 0.64697 0.27734 0.0
H899 H 0.5769 0.70359 0.26921 0.0
C900 C 0.53981 0.6503 0.29623 0.0
C901 C 0.55134 0.66638 0.26744 0.0
C902 C 0.54943 0.6638 0.24709 0.0
C903 C 0.55497 0.67263 0.30553 0.0
C904 C 0.56851 0.69197 0.29563 0.0
C905 C 0.56652 0.68864 0.27673 0.0
C906 C 0.58458 0.71602 0.30454 0.0
C907 C 0.55613 0.67555 0.32583 0.0
C908 C 0.58076 0.73493 0.30178 0.0
C909 C 0.59656 0.75802 0.30914 0.0
C910 C 0.61666 0.76268 0.31925 0.0
C911 C 0.62023 0.74356 0.32223 0.0
C912 C 0.60431 0.72042 0.31493 0.0
H913 H 0.54173 0.66012 0.3312 0.0
H914 H 0.57226 0.67718 0.33164 0.0
H915 H 0.55606 0.69204 0.33043 0.0
H916 H 0.56564 0.73185 0.29374 0.0
H917 H 0.59324 0.77227 0.30651 0.0
H918 H 0.38935 0.89837 0.21172 0.0
H919 H 0.35328 0.88623 0.22473 0.0
H920 H 0.38883 0.90964 0.27801 0.0
H921 H 0.42498 0.92216 0.26513 0.0
H922 H 0.34988 0.86212 0.27359 0.0
H923 H 0.33067 0.92948 0.2478 0.0
H924 H 0.3375 0.91325 0.2314 0.0
H925 H 0.35888 0.93327 0.24881 0.0
C926 C 0.38954 0.90131 0.22618 0.0
C927 C 0.41003 0.91124 0.2374 0.0
C928 C 0.36893 0.89432 0.23358 0.0
C929 C 0.36848 0.89723 0.25229 0.0
C930 C 0.38887 0.90726 0.26352 0.0
H931 H 0.27008 0.86576 0.32962 0.0
H932 H 0.30378 0.87599 0.3136 0.0
C933 C 0.40947 0.9143 0.25615 0.0
C934 C 0.34669 0.88902 0.26033 0.0
H935 H 0.30294 0.90004 0.26393 0.0
C936 C 0.33958 0.87037 0.27149 0.0
C937 C 0.33326 0.89973 0.25739 0.0
C938 C 0.34045 0.92016 0.24581 0.0
C939 C 0.31937 0.86214 0.27988 0.0
C940 C 0.30622 0.87326 0.27733 0.0
C941 C 0.3131 0.8916 0.26588 0.0
C942 C 0.28572 0.86669 0.28696 0.0
C943 C 0.31216 0.84147 0.29123 0.0
C944 C 0.26452 0.85863 0.27727 0.0
C945 C 0.24531 0.85296 0.28641 0.0
C946 C 0.24706 0.85539 0.30535 0.0
C947 C 0.26828 0.86356 0.31501 0.0
C948 C 0.28748 0.86927 0.30588 0.0
H949 H 0.32007 0.83065 0.2875 0.0
H950 H 0.31772 0.8484 0.30562 0.0
H951 H 0.29337 0.8297 0.28982 0.0
H952 H 0.26286 0.8567 0.26266 0.0
H953 H 0.22913 0.84683 0.27868 0.0
H954 H 0.1185 0.52686 0.26854 0.0
H955 H 0.12925 0.50056 0.28293 0.0
H956 H 0.06663 0.43932 0.25952 0.0
H957 H 0.05561 0.46553 0.24518 0.0
H958 H 0.10615 0.46615 0.30732 0.0
H959 H 0.11663 0.42601 0.2434 0.0
H960 H 0.11492 0.45286 0.24458 0.0
H961 H 0.08955 0.42433 0.24446 0.0
C962 C 0.10689 0.50781 0.2666 0.0
C963 C 0.08622 0.49827 0.25567 0.0
C964 C 0.1131 0.49282 0.27477 0.0
C965 C 0.09885 0.46803 0.2721 0.0
C966 C 0.07804 0.45841 0.26147 0.0
H967 H 0.11228 0.36333 0.33189 0.0
H968 H 0.09896 0.38866 0.3193 0.0
C969 C 0.0718 0.4734 0.25328 0.0
C970 C 0.10595 0.45231 0.28038 0.0
H971 H 0.12061 0.4102 0.27026 0.0
C972 C 0.10927 0.45387 0.29925 0.0
C973 C 0.11024 0.43654 0.26976 0.0
C974 C 0.10787 0.43489 0.24942 0.0
C975 C 0.11672 0.43995 0.30782 0.0
C976 C 0.12068 0.42392 0.2972 0.0
C977 C 0.11741 0.42242 0.27834 0.0
C978 C 0.12891 0.40903 0.30535 0.0
C979 C 0.12082 0.44292 0.32812 0.0
C980 C 0.15004 0.41192 0.30148 0.0
C981 C 0.15768 0.39747 0.30858 0.0
C982 C 0.14426 0.37971 0.31963 0.0
C983 C 0.12311 0.37692 0.32353 0.0
C984 C 0.11549 0.39143 0.31641 0.0
H985 H 0.12197 0.45961 0.33396 0.0
H986 H 0.10649 0.4277 0.33371 0.0
H987 H 0.13675 0.44306 0.3325 0.0
H988 H 0.1606 0.42536 0.29291 0.0
H989 H 0.174 0.40007 0.30522 0.0
H990 H 0.39317 0.49565 0.21835 0.0
H991 H 0.35703 0.47097 0.23105 0.0
H992 H 0.3932 0.48193 0.28314 0.0
H993 H 0.42938 0.50634 0.27056 0.0
H994 H 0.34236 0.42887 0.24958 0.0
H995 H 0.34668 0.50367 0.29264 0.0
H996 H 0.36421 0.50828 0.27424 0.0
H997 H 0.37155 0.50077 0.29543 0.0
C998 C 0.39345 0.49258 0.23247 0.0
C999 C 0.41414 0.50311 0.24349 0.0
C1000 C 0.3728 0.47859 0.2397 0.0
C1001 C 0.37247 0.475 0.25808 0.0
C1002 C 0.39309 0.48493 0.26901 0.0
H1003 H 0.27175 0.40279 0.33194 0.0
H1004 H 0.30626 0.42598 0.31685 0.0
C1005 C 0.41373 0.49889 0.2618 0.0
C1006 C 0.35058 0.46093 0.26591 0.0
H1007 H 0.31774 0.46471 0.29746 0.0
C1008 C 0.33685 0.43668 0.25996 0.0
C1009 C 0.34349 0.47126 0.2794 0.0
C1010 C 0.35712 0.49747 0.28573 0.0
C1011 C 0.31648 0.42225 0.2676 0.0
C1012 C 0.30955 0.43252 0.28129 0.0
C1013 C 0.32314 0.45687 0.28701 0.0
C1014 C 0.28853 0.41827 0.29021 0.0
C1015 C 0.30296 0.39601 0.26135 0.0
C1016 C 0.26711 0.40648 0.28026 0.0
C1017 C 0.2474 0.39317 0.28886 0.0
C1018 C 0.24882 0.39165 0.30754 0.0
C1019 C 0.27021 0.40368 0.31751 0.0
C1020 C 0.28991 0.41692 0.30892 0.0
H1021 H 0.31335 0.38994 0.25422 0.0
H1022 H 0.29622 0.38521 0.27289 0.0
H1023 H 0.2883 0.39253 0.25183 0.0
H1024 H 0.26562 0.4077 0.26588 0.0
H1025 H 0.23107 0.38411 0.28093 0.0
H1026 H 0.45749 0.87516 0.24348 0.0
H1027 H 0.48377 0.86441 0.25813 0.0
H1028 H 0.5401 0.93447 0.25265 0.0
H1029 H 0.51389 0.94547 0.23814 0.0
H1030 H 0.52405 0.86687 0.243 0.0
H1031 H 0.54374 0.92334 0.30762 0.0
H1032 H 0.51871 0.91468 0.29245 0.0
H1033 H 0.54606 0.93772 0.28727 0.0
C1034 C 0.47545 0.88834 0.24554 0.0
C1035 C 0.48366 0.91119 0.23975 0.0
C1036 C 0.49042 0.88213 0.2538 0.0
C1037 C 0.51377 0.89873 0.25658 0.0
C1038 C 0.52207 0.92152 0.25076 0.0
H1039 H 0.62687 0.877 0.28534 0.0
H1040 H 0.60031 0.88741 0.27067 0.0
C1041 C 0.50713 0.9277 0.24238 0.0
C1042 C 0.5295 0.89207 0.26536 0.0
H1043 H 0.56453 0.90344 0.30361 0.0
C1044 C 0.53292 0.87483 0.25625 0.0
C1045 C 0.54082 0.90238 0.28269 0.0
C1046 C 0.53711 0.92045 0.29321 0.0
C1047 C 0.54768 0.86783 0.26395 0.0
C1048 C 0.55931 0.87846 0.28115 0.0
C1049 C 0.55565 0.89546 0.29037 0.0
C1050 C 0.57524 0.87201 0.28987 0.0
C1051 C 0.55055 0.84894 0.25379 0.0
C1052 C 0.56998 0.86019 0.30561 0.0
C1053 C 0.58507 0.85419 0.31398 0.0
C1054 C 0.60573 0.8602 0.30681 0.0
C1055 C 0.61104 0.87218 0.29112 0.0
C1056 C 0.59588 0.87803 0.2827 0.0
H1057 H 0.53709 0.83923 0.24245 0.0
H1058 H 0.56731 0.85745 0.24815 0.0
H1059 H 0.5502 0.8359 0.26296 0.0
H1060 H 0.55414 0.85549 0.31135 0.0
H1061 H 0.58063 0.84499 0.32608 0.0
H1062 H 0.11703 0.5821 0.26946 0.0
H1063 H 0.12657 0.62074 0.28438 0.0
H1064 H 0.06291 0.61176 0.26153 0.0
H1065 H 0.05309 0.57289 0.24666 0.0
H1066 H 0.10063 0.65566 0.25665 0.0
H1067 H 0.10046 0.63613 0.32812 0.0
H1068 H 0.11774 0.62836 0.31522 0.0
H1069 H 0.08744 0.613 0.30964 0.0
C1070 C 0.10485 0.58812 0.26787 0.0
C1071 C 0.08425 0.57436 0.25693 0.0
C1072 C 0.11034 0.61021 0.27641 0.0
C1073 C 0.0953 0.61894 0.27426 0.0
C1074 C 0.07469 0.60527 0.26341 0.0
H1075 H 0.11151 0.74726 0.33286 0.0
H1076 H 0.09702 0.70617 0.32032 0.0
C1077 C 0.06917 0.58314 0.25486 0.0
C1078 C 0.1017 0.64292 0.28253 0.0
H1079 H 0.11731 0.67714 0.32277 0.0
C1080 C 0.1041 0.66032 0.27112 0.0
C1081 C 0.10597 0.64885 0.30141 0.0
C1082 C 0.10257 0.63056 0.31435 0.0
C1083 C 0.11134 0.68373 0.27805 0.0
C1084 C 0.1166 0.68993 0.29686 0.0
C1085 C 0.1135 0.67236 0.30833 0.0
C1086 C 0.12565 0.71467 0.30482 0.0
C1087 C 0.11326 0.70163 0.26519 0.0
C1088 C 0.14675 0.73292 0.30052 0.0
C1089 C 0.1551 0.75638 0.30765 0.0
C1090 C 0.14254 0.76203 0.3193 0.0
C1091 C 0.1216 0.74357 0.32389 0.0
C1092 C 0.11328 0.72008 0.31676 0.0
H1093 H 0.10314 0.69279 0.25206 0.0
H1094 H 0.10744 0.71354 0.27103 0.0
H1095 H 0.13134 0.71282 0.26255 0.0
H1096 H 0.15673 0.72901 0.29157 0.0
H1097 H 0.17131 0.7701 0.30385 0.0
H1098 H 0.83692 0.06444 0.44953 0.0
H1099 H 0.80935 0.02719 0.43184 0.0
H1100 H 0.82042 0.06418 0.38386 0.0
H1101 H 0.84785 0.1016 0.40147 0.0
H1102 H 0.76885 0.01603 0.41048 0.0
H1103 H 0.83173 0.00884 0.36991 0.0
H1104 H 0.84007 0.02867 0.3903 0.0
H1105 H 0.83179 0.03649 0.36965 0.0
C1106 C 0.83335 0.06472 0.43525 0.0
C1107 C 0.84468 0.086 0.4269 0.0
C1108 C 0.81766 0.0434 0.42515 0.0
C1109 C 0.81309 0.04289 0.40651 0.0
C1110 C 0.82405 0.06412 0.39817 0.0
H1111 H 0.69967 0.9214 0.34072 0.0
H1112 H 0.72673 0.96173 0.35441 0.0
C1113 C 0.83973 0.08547 0.40825 0.0
C1114 C 0.79682 0.02009 0.39587 0.0
H1115 H 0.79303 0.97967 0.36264 0.0
C1116 C 0.77408 0.00811 0.39996 0.0
C1117 C 0.80379 0.00975 0.38227 0.0
C1118 C 0.8282 0.02144 0.37781 0.0
C1119 C 0.7581 0.98596 0.39083 0.0
C1120 C 0.76504 0.97571 0.37715 0.0
C1121 C 0.78775 0.98773 0.37302 0.0
C1122 C 0.74932 0.95177 0.36783 0.0
C1123 C 0.7341 0.97335 0.39628 0.0
C1124 C 0.75345 0.93303 0.3704 0.0
C1125 C 0.73812 0.91004 0.36259 0.0
C1126 C 0.71837 0.90534 0.35193 0.0
C1127 C 0.71467 0.92436 0.34887 0.0
C1128 C 0.73003 0.94739 0.35677 0.0
H1129 H 0.73267 0.98146 0.40929 0.0
H1130 H 0.72257 0.9744 0.38575 0.0
H1131 H 0.72814 0.95422 0.39752 0.0
H1132 H 0.76828 0.93608 0.37885 0.0
H1133 H 0.74159 0.89589 0.3652 0.0
H1134 H 0.94431 0.77439 0.4625 0.0
H1135 H 0.98056 0.78751 0.44948 0.0
H1136 H 0.94461 0.75881 0.39667 0.0
H1137 H 0.90836 0.74538 0.40955 0.0
H1138 H 0.99511 0.76001 0.42883 0.0
H1139 H 0.99157 0.82874 0.39013 0.0
H1140 H 0.97389 0.81583 0.4082 0.0
H1141 H 0.96648 0.7998 0.38621 0.0
C1142 C 0.94411 0.77068 0.44814 0.0
C1143 C 0.92345 0.75899 0.43704 0.0
C1144 C 0.96483 0.7783 0.44072 0.0
C1145 C 0.96524 0.77449 0.42209 0.0
C1146 C 0.94466 0.76239 0.41103 0.0
H1147 H 0.06228 0.79913 0.34526 0.0
H1148 H 0.02893 0.78905 0.36173 0.0
C1149 C 0.92397 0.75476 0.41842 0.0
C1150 C 0.98713 0.78288 0.41412 0.0
H1151 H 0.01969 0.81873 0.38323 0.0
C1152 C 0.00065 0.77301 0.41898 0.0
C1153 C 0.99427 0.79989 0.40134 0.0
C1154 C 0.98093 0.81188 0.39625 0.0
C1155 C 0.02074 0.77902 0.41084 0.0
C1156 C 0.0276 0.79564 0.39774 0.0
C1157 C 0.01433 0.80591 0.39321 0.0
C1158 C 0.04799 0.80195 0.388 0.0
C1159 C 0.03396 0.76687 0.41583 0.0
C1160 C 0.06978 0.81281 0.3973 0.0
C1161 C 0.08883 0.8185 0.38791 0.0
C1162 C 0.08636 0.81359 0.36908 0.0
C1163 C 0.06462 0.80307 0.35978 0.0
C1164 C 0.04559 0.79733 0.36916 0.0
H1165 H 0.02366 0.75066 0.42278 0.0
H1166 H 0.03987 0.76177 0.40368 0.0
H1167 H 0.04916 0.77934 0.4251 0.0
H1168 H 0.07207 0.81698 0.41178 0.0
H1169 H 0.10546 0.82669 0.39537 0.0
H1170 H 0.21527 0.14121 0.40811 0.0
H1171 H 0.20471 0.16721 0.39305 0.0
H1172 H 0.26819 0.2286 0.41486 0.0
H1173 H 0.27905 0.20266 0.42985 0.0
H1174 H 0.22974 0.23311 0.41943 0.0
H1175 H 0.23056 0.20304 0.34853 0.0
H1176 H 0.2137 0.17928 0.36192 0.0
H1177 H 0.24399 0.19687 0.36738 0.0
C1178 C 0.22716 0.16021 0.40949 0.0
C1179 C 0.24807 0.16986 0.42009 0.0
C1180 C 0.22109 0.17503 0.40087 0.0
C1181 C 0.23583 0.19977 0.40263 0.0
C1182 C 0.25664 0.20952 0.41329 0.0
H1183 H 0.21989 0.30193 0.3416 0.0
H1184 H 0.23398 0.27759 0.35487 0.0
C1185 C 0.26275 0.1947 0.4219 0.0
C1186 C 0.22907 0.21549 0.39391 0.0
H1187 H 0.21362 0.22714 0.35308 0.0
C1188 C 0.22636 0.23193 0.40492 0.0
C1189 C 0.22493 0.21407 0.37497 0.0
C1190 C 0.22863 0.19753 0.36247 0.0
C1191 C 0.21898 0.24656 0.39751 0.0
C1192 C 0.21394 0.24444 0.37862 0.0
C1193 C 0.21728 0.2285 0.36757 0.0
C1194 C 0.20502 0.25855 0.37014 0.0
C1195 C 0.21677 0.26426 0.40993 0.0
C1196 C 0.18385 0.25549 0.37404 0.0
C1197 C 0.17571 0.2693 0.36648 0.0
C1198 C 0.18858 0.28638 0.3548 0.0
C1199 C 0.20956 0.28898 0.35057 0.0
C1200 C 0.21765 0.2751 0.35813 0.0
H1201 H 0.22665 0.26789 0.42322 0.0
H1202 H 0.22268 0.28135 0.40384 0.0
H1203 H 0.19861 0.25694 0.41229 0.0
H1204 H 0.17366 0.24249 0.38304 0.0
H1205 H 0.15948 0.26677 0.37002 0.0
H1206 H 0.61186 0.50404 0.7931 0.0
H1207 H 0.64754 0.53009 0.78038 0.0
H1208 H 0.61057 0.51841 0.72851 0.0
H1209 H 0.57476 0.49294 0.74125 0.0
H1210 H 0.66628 0.51827 0.75217 0.0
H1211 H 0.65 0.59108 0.73626 0.0
H1212 H 0.63341 0.56895 0.7511 0.0
H1213 H 0.62779 0.56205 0.72705 0.0
C1214 C 0.61128 0.50733 0.77906 0.0
C1215 C 0.59047 0.49652 0.7682 0.0
C1216 C 0.63169 0.52208 0.77179 0.0
C1217 C 0.63165 0.52641 0.75358 0.0
C1218 C 0.61093 0.51563 0.74269 0.0
H1219 H 0.74091 0.5756 0.6843 0.0
H1220 H 0.70719 0.55257 0.70035 0.0
C1221 C 0.59052 0.50088 0.74994 0.0
C1222 C 0.65335 0.54148 0.74578 0.0
H1223 H 0.68154 0.59131 0.72361 0.0
C1224 C 0.6697 0.53433 0.74602 0.0
C1225 C 0.65787 0.56258 0.738 0.0
C1226 C 0.64145 0.5718 0.73821 0.0
C1227 C 0.69022 0.54737 0.73822 0.0
C1228 C 0.69429 0.56789 0.72975 0.0
C1229 C 0.67824 0.57542 0.72996 0.0
C1230 C 0.71497 0.58162 0.72035 0.0
C1231 C 0.70743 0.5392 0.7392 0.0
C1232 C 0.73027 0.60565 0.72613 0.0
C1233 C 0.74943 0.61884 0.71694 0.0
C1234 C 0.75347 0.60821 0.70176 0.0
C1235 C 0.73818 0.58416 0.696 0.0
C1236 C 0.71902 0.57098 0.7052 0.0
H1237 H 0.7045 0.52721 0.75006 0.0
H1238 H 0.70601 0.52921 0.72619 0.0
H1239 H 0.72504 0.55462 0.74162 0.0
H1240 H 0.72737 0.61418 0.73776 0.0
H1241 H 0.76103 0.63735 0.72166 0.0
H1242 H 0.52474 0.08652 0.74363 0.0
H1243 H 0.49882 0.09798 0.72941 0.0
H1244 H 0.48645 0.11814 0.78181 0.0
H1245 H 0.51285 0.10738 0.79613 0.0
H1246 H 0.45237 0.07945 0.73434 0.0
H1247 H 0.50316 0.17689 0.75416 0.0
H1248 H 0.5152 0.1577 0.75531 0.0
H1249 H 0.498 0.15853 0.77247 0.0
C1250 C 0.51676 0.09372 0.75212 0.0
C1251 C 0.52092 0.09614 0.771 0.0
C1252 C 0.50185 0.1001 0.74398 0.0
C1253 C 0.49095 0.10915 0.75456 0.0
C1254 C 0.49498 0.11153 0.77341 0.0
H1255 H 0.37488 0.12566 0.72335 0.0
H1256 H 0.40164 0.11589 0.73866 0.0
C1257 C 0.50988 0.10514 0.78156 0.0
C1258 C 0.47487 0.11549 0.74587 0.0
H1259 H 0.46577 0.16194 0.74025 0.0
C1260 C 0.45528 0.09748 0.73562 0.0
C1261 C 0.47885 0.13907 0.7475 0.0
C1262 C 0.50002 0.15924 0.75782 0.0
C1263 C 0.4394 0.10239 0.7271 0.0
C1264 C 0.44324 0.12586 0.72894 0.0
C1265 C 0.46288 0.14393 0.73904 0.0
C1266 C 0.42727 0.13206 0.71999 0.0
C1267 C 0.41876 0.08262 0.71594 0.0
C1268 C 0.43306 0.14457 0.70462 0.0
C1269 C 0.41784 0.15006 0.69584 0.0
C1270 C 0.39669 0.14322 0.7024 0.0
C1271 C 0.39105 0.13098 0.71797 0.0
C1272 C 0.40625 0.12541 0.7267 0.0
H1273 H 0.41955 0.06598 0.71424 0.0
H1274 H 0.40323 0.07875 0.72259 0.0
H1275 H 0.41711 0.08823 0.70241 0.0
H1276 H 0.44926 0.14985 0.69931 0.0
H1277 H 0.42259 0.15956 0.68389 0.0
H1278 H 0.94407 0.42536 0.76635 0.0
H1279 H 0.93448 0.38675 0.75114 0.0
H1280 H 0.87037 0.3773 0.72895 0.0
H1281 H 0.87973 0.41576 0.74418 0.0
H1282 H 0.8977 0.34242 0.75546 0.0
H1283 H 0.89642 0.36372 0.68458 0.0
H1284 H 0.90908 0.38642 0.70337 0.0
H1285 H 0.87874 0.37038 0.6979 0.0
C1286 C 0.92791 0.41504 0.75825 0.0
C1287 C 0.91269 0.42366 0.75642 0.0
C1288 C 0.92252 0.39306 0.74951 0.0
C1289 C 0.90189 0.37936 0.73869 0.0
C1290 C 0.88663 0.38786 0.73688 0.0
H1291 H 0.82945 0.22843 0.70712 0.0
H1292 H 0.84307 0.26893 0.7203 0.0
C1293 C 0.892 0.40983 0.7456 0.0
C1294 C 0.89583 0.35567 0.72997 0.0
H1295 H 0.88053 0.32261 0.68922 0.0
C1296 C 0.8941 0.33812 0.74097 0.0
C1297 C 0.89144 0.35022 0.71105 0.0
C1298 C 0.89421 0.36873 0.6985 0.0
C1299 C 0.88745 0.31504 0.73359 0.0
C1300 C 0.88204 0.30928 0.71475 0.0
C1301 C 0.88444 0.32702 0.70368 0.0
C1302 C 0.87357 0.28485 0.70631 0.0
C1303 C 0.88638 0.29704 0.74603 0.0
C1304 C 0.88587 0.28048 0.69363 0.0
C1305 C 0.87807 0.25731 0.68595 0.0
C1306 C 0.85773 0.23814 0.69073 0.0
C1307 C 0.84523 0.24272 0.70316 0.0
C1308 C 0.85305 0.26586 0.71082 0.0
H1309 H 0.89681 0.3058 0.75906 0.0
H1310 H 0.86849 0.28545 0.74898 0.0
H1311 H 0.89238 0.28556 0.73969 0.0
H1312 H 0.9017 0.29495 0.6899 0.0
H1313 H 0.8881 0.25444 0.6764 0.0
H1314 H 0.13193 0.92358 0.59035 0.0
H1315 H 0.16016 0.96178 0.60652 0.0
H1316 H 0.2142 0.95113 0.58936 0.0
H1317 H 0.18608 0.91273 0.57333 0.0
H1318 H 0.19538 0.97219 0.63432 0.0
H1319 H 0.22914 0.01659 0.57242 0.0
H1320 H 0.20239 0.98903 0.5719 0.0
H1321 H 0.22876 0.98895 0.57424 0.0
C1322 C 0.14981 0.92922 0.59017 0.0
C1323 C 0.15675 0.91514 0.58048 0.0
C1324 C 0.1659 0.95109 0.59936 0.0
C1325 C 0.18923 0.95937 0.59893 0.0
C1326 C 0.19626 0.94522 0.58957 0.0
H1327 H 0.30112 0.08012 0.6652 0.0
H1328 H 0.27346 0.04019 0.65128 0.0
C1329 C 0.18017 0.92332 0.5804 0.0
C1330 C 0.20616 0.98296 0.60813 0.0
H1331 H 0.24798 0.03852 0.60036 0.0
C1332 C 0.20693 0.98671 0.62693 0.0
C1333 C 0.22099 0.00188 0.59839 0.0
C1334 C 0.22025 0.99909 0.57811 0.0
C1335 C 0.22228 0.00892 0.63629 0.0
C1336 C 0.23734 0.02772 0.62657 0.0
C1337 C 0.23649 0.02399 0.60777 0.0
C1338 C 0.25368 0.05169 0.63554 0.0
C1339 C 0.22194 0.01227 0.65642 0.0
C1340 C 0.25185 0.07138 0.63114 0.0
C1341 C 0.26761 0.0942 0.63901 0.0
C1342 C 0.28566 0.09782 0.65137 0.0
C1343 C 0.2874 0.07799 0.6558 0.0
C1344 C 0.27155 0.05513 0.64793 0.0
H1345 H 0.20618 0.99785 0.66124 0.0
H1346 H 0.23672 0.01211 0.66331 0.0
H1347 H 0.22333 0.02967 0.66045 0.0
H1348 H 0.23822 0.06908 0.62154 0.0
H1349 H 0.26577 0.10902 0.63519 0.0
H1350 H 0.0912 0.24753 0.59466 0.0
H1351 H 0.05619 0.237 0.6088 0.0
H1352 H 0.01791 0.21323 0.55655 0.0
H1353 H 0.05271 0.22289 0.54235 0.0
H1354 H 0.02665 0.2545 0.60304 0.0
H1355 H 0.98227 0.15655 0.58567 0.0
H1356 H 0.01233 0.17565 0.58389 0.0
H1357 H 0.9918 0.17396 0.5668 0.0
C1358 C 0.07528 0.23974 0.5862 0.0
C1359 C 0.07471 0.23591 0.56739 0.0
C1360 C 0.05533 0.2339 0.59428 0.0
C1361 C 0.03443 0.22404 0.58374 0.0
C1362 C 0.0338 0.22042 0.56496 0.0
H1363 H 0.89723 0.18003 0.61249 0.0
H1364 H 0.93071 0.19012 0.59603 0.0
C1365 C 0.05375 0.22622 0.55685 0.0
C1366 C 0.01342 0.21809 0.59244 0.0
H1367 H 0.96116 0.17196 0.59948 0.0
C1368 C 0.01234 0.23645 0.60229 0.0
C1369 C 0.99476 0.19454 0.59135 0.0
C1370 C 0.99532 0.17397 0.5815 0.0
C1371 C 0.99305 0.23191 0.61106 0.0
C1372 C 0.97452 0.20833 0.61017 0.0
C1373 C 0.97544 0.19001 0.60011 0.0
C1374 C 0.95432 0.20222 0.62005 0.0
C1375 C 0.99254 0.25242 0.62107 0.0
C1376 C 0.95654 0.20538 0.63896 0.0
C1377 C 0.9375 0.1996 0.64834 0.0
C1378 C 0.91597 0.19048 0.63895 0.0
C1379 C 0.9137 0.18707 0.62002 0.0
C1380 C 0.93275 0.19281 0.61063 0.0
H1381 H 0.00521 0.26983 0.61662 0.0
H1382 H 0.97538 0.25047 0.61913 0.0
H1383 H 0.99667 0.25267 0.63571 0.0
H1384 H 0.97298 0.21221 0.64646 0.0
H1385 H 0.93965 0.20228 0.66294 0.0
H1386 H 0.72678 0.79965 0.5753 0.0
H1387 H 0.73643 0.77222 0.58927 0.0
H1388 H 0.80013 0.83175 0.61294 0.0
H1389 H 0.79069 0.85925 0.59898 0.0
H1390 H 0.77375 0.76643 0.58451 0.0
H1391 H 0.77299 0.79397 0.65607 0.0
H1392 H 0.76062 0.80191 0.6376 0.0
H1393 H 0.79088 0.81826 0.64349 0.0
C1394 C 0.74286 0.80689 0.58346 0.0
C1395 C 0.75793 0.83162 0.58611 0.0
C1396 C 0.74829 0.79121 0.59148 0.0
C1397 C 0.76882 0.79999 0.60235 0.0
C1398 C 0.78395 0.82464 0.60495 0.0
H1399 H 0.84025 0.7266 0.63232 0.0
H1400 H 0.82704 0.75157 0.61909 0.0
C1401 C 0.77853 0.84033 0.59696 0.0
C1402 C 0.77482 0.78336 0.61047 0.0
H1403 H 0.78901 0.76918 0.65066 0.0
C1404 C 0.77695 0.76691 0.59898 0.0
C1405 C 0.77869 0.78384 0.62935 0.0
C1406 C 0.77548 0.80028 0.64238 0.0
C1407 C 0.78344 0.7513 0.60585 0.0
C1408 C 0.78826 0.75248 0.62468 0.0
C1409 C 0.78554 0.7685 0.6362 0.0
C1410 C 0.79624 0.73733 0.63272 0.0
C1411 C 0.7849 0.73355 0.59289 0.0
C1412 C 0.78359 0.72149 0.64514 0.0
C1413 C 0.79118 0.70731 0.65288 0.0
C1414 C 0.81166 0.70884 0.64841 0.0
C1415 C 0.8244 0.72493 0.63607 0.0
C1416 C 0.81679 0.7391 0.62837 0.0
H1417 H 0.7748 0.73046 0.5798 0.0
H1418 H 0.80291 0.74054 0.59017 0.0
H1419 H 0.77876 0.71622 0.59866 0.0
H1420 H 0.76774 0.71997 0.64874 0.0
H1421 H 0.78095 0.69513 0.66233 0.0
H1422 H 0.07945 0.80648 0.56596 0.0
H1423 H 0.04321 0.78053 0.57794 0.0
H1424 H 0.04147 0.84218 0.60013 0.0
H1425 H 0.07706 0.86821 0.58748 0.0
H1426 H 0.03257 0.77699 0.61266 0.0
H1427 H 0.97898 0.80361 0.57308 0.0
H1428 H 0.00729 0.81142 0.56776 0.0
H1429 H 0.00329 0.82844 0.58556 0.0
C1430 C 0.07119 0.81452 0.57315 0.0
C1431 C 0.08111 0.83944 0.57566 0.0
C1432 C 0.05056 0.79967 0.5801 0.0
C1433 C 0.03944 0.80942 0.58964 0.0
C1434 C 0.04948 0.83426 0.59245 0.0
H1435 H 0.92423 0.75543 0.65278 0.0
H1436 H 0.95893 0.77954 0.63806 0.0
C1437 C 0.07002 0.84913 0.58543 0.0
C1438 C 0.01769 0.79363 0.59714 0.0
H1439 H 0.96256 0.78076 0.59774 0.0
C1440 C 0.01721 0.77765 0.60927 0.0
C1441 C 0.99764 0.79448 0.59265 0.0
C1442 C 0.9967 0.81024 0.57891 0.0
C1443 C 0.99737 0.76296 0.6174 0.0
C1444 C 0.97755 0.76425 0.61321 0.0
C1445 C 0.9779 0.77998 0.60095 0.0
C1446 C 0.95638 0.74965 0.62171 0.0
C1447 C 0.99782 0.74655 0.63074 0.0
C1448 C 0.94342 0.72497 0.61715 0.0
C1449 C 0.92358 0.71121 0.62545 0.0
C1450 C 0.91652 0.72197 0.63846 0.0
C1451 C 0.92938 0.74672 0.64284 0.0
C1452 C 0.94913 0.76048 0.63445 0.0
H1453 H 0.01538 0.75028 0.63456 0.0
H1454 H 0.99019 0.74823 0.64313 0.0
H1455 H 0.9875 0.72784 0.6247 0.0
H1456 H 0.94868 0.71639 0.6072 0.0
H1457 H 0.91386 0.69216 0.62179 0.0
H1458 H 0.17828 0.2716 0.56399 0.0
H1459 H 0.20613 0.26269 0.57822 0.0
H1460 H 0.15197 0.19282 0.58723 0.0
H1461 H 0.12405 0.20142 0.57273 0.0
H1462 H 0.20729 0.24946 0.6141 0.0
H1463 H 0.19844 0.18031 0.56192 0.0
H1464 H 0.18869 0.20097 0.55759 0.0
H1465 H 0.17216 0.17569 0.5698 0.0
C1466 C 0.17234 0.25424 0.56881 0.0
C1467 C 0.14899 0.23717 0.5672 0.0
C1468 C 0.18824 0.24924 0.57701 0.0
C1469 C 0.1811 0.22702 0.58357 0.0
C1470 C 0.15783 0.20995 0.58202 0.0
H1471 H 0.25156 0.18469 0.65968 0.0
H1472 H 0.22547 0.1947 0.6437 0.0
C1473 C 0.1419 0.21497 0.57389 0.0
C1474 C 0.19794 0.22195 0.59254 0.0
H1475 H 0.22031 0.18528 0.58941 0.0
C1476 C 0.21022 0.2355 0.60869 0.0
C1477 C 0.20185 0.20389 0.58531 0.0
C1478 C 0.18976 0.18947 0.56762 0.0
C1479 C 0.226 0.23111 0.61805 0.0
C1480 C 0.22939 0.21256 0.61111 0.0
C1481 C 0.2175 0.19936 0.59475 0.0
C1482 C 0.24514 0.20651 0.62073 0.0
C1483 C 0.23905 0.24645 0.6352 0.0
C1484 C 0.26458 0.20944 0.61292 0.0
C1485 C 0.27949 0.20376 0.62202 0.0
C1486 C 0.27503 0.19485 0.63897 0.0
C1487 C 0.25542 0.19164 0.64666 0.0
C1488 C 0.24058 0.19743 0.63759 0.0
H1489 H 0.23842 0.26321 0.63645 0.0
H1490 H 0.23149 0.23647 0.64695 0.0
H1491 H 0.25714 0.25102 0.63582 0.0
H1492 H 0.26829 0.2163 0.59986 0.0
H1493 H 0.29445 0.20627 0.61577 0.0
H1494 H 0.72716 0.90817 0.57843 0.0
H1495 H 0.73775 0.94719 0.59345 0.0
H1496 H 0.80075 0.95454 0.61626 0.0
H1497 H 0.79046 0.9157 0.60115 0.0
H1498 H 0.77714 0.96755 0.64102 0.0
H1499 H 0.78796 0.01084 0.57719 0.0
H1500 H 0.761 0.9842 0.5781 0.0
H1501 H 0.78656 0.9825 0.57839 0.0
C1502 C 0.74332 0.91814 0.58658 0.0
C1503 C 0.75804 0.9089 0.58851 0.0
C1504 C 0.74931 0.94038 0.59517 0.0
C1505 C 0.77014 0.95381 0.60576 0.0
C1506 C 0.78459 0.94441 0.60812 0.0
H1507 H 0.84399 0.10431 0.63959 0.0
H1508 H 0.83129 0.06366 0.62724 0.0
C1509 C 0.77864 0.92218 0.59954 0.0
C1510 C 0.77715 0.97791 0.6141 0.0
H1511 H 0.7916 0.03401 0.60404 0.0
C1512 C 0.78027 0.9821 0.63297 0.0
C1513 C 0.78147 0.99685 0.60351 0.0
C1514 C 0.77929 0.99354 0.58317 0.0
C1515 C 0.78746 0.0048 0.64157 0.0
C1516 C 0.7914 0.02363 0.63097 0.0
C1517 C 0.78841 0.01945 0.6121 0.0
C1518 C 0.79923 0.04802 0.63914 0.0
C1519 C 0.79126 0.00858 0.66188 0.0
C1520 C 0.78534 0.05267 0.64988 0.0
C1521 C 0.79253 0.07593 0.657 0.0
C1522 C 0.81373 0.09494 0.65344 0.0
C1523 C 0.82761 0.09013 0.6427 0.0
C1524 C 0.82038 0.06691 0.63558 0.0
H1525 H 0.79243 0.99385 0.66777 0.0
H1526 H 0.80708 0.02565 0.66637 0.0
H1527 H 0.77678 0.0094 0.66731 0.0
H1528 H 0.76877 0.03837 0.65253 0.0
H1529 H 0.78136 0.07898 0.66514 0.0
H1530 H 0.50852 0.39927 0.7859 0.0
H1531 H 0.48059 0.3616 0.76893 0.0
H1532 H 0.4902 0.39706 0.72027 0.0
H1533 H 0.518 0.43494 0.73718 0.0
H1534 H 0.43959 0.35085 0.74844 0.0
H1535 H 0.49984 0.34032 0.70666 0.0
H1536 H 0.50924 0.36075 0.72679 0.0
H1537 H 0.50052 0.36828 0.70621 0.0
C1538 C 0.50458 0.39912 0.77162 0.0
C1539 C 0.5155 0.42011 0.76289 0.0
C1540 C 0.4887 0.37756 0.76193 0.0
C1541 C 0.48354 0.37653 0.74334 0.0
C1542 C 0.49427 0.39743 0.73457 0.0
H1543 H 0.36738 0.25642 0.67956 0.0
H1544 H 0.39542 0.29633 0.69332 0.0
C1545 C 0.51015 0.41903 0.74424 0.0
C1546 C 0.46667 0.35357 0.73324 0.0
H1547 H 0.46078 0.31163 0.70045 0.0
C1548 C 0.44417 0.34229 0.7379 0.0
C1549 C 0.47281 0.34243 0.71962 0.0
C1550 C 0.49694 0.3534 0.71456 0.0
C1551 C 0.42759 0.32007 0.72929 0.0
C1552 C 0.43368 0.30903 0.71556 0.0
C1553 C 0.45617 0.32031 0.71088 0.0
C1554 C 0.41717 0.28518 0.70653 0.0
C1555 C 0.40385 0.30826 0.73527 0.0
C1556 C 0.42045 0.26587 0.70908 0.0
C1557 C 0.40452 0.24308 0.70125 0.0
C1558 C 0.38506 0.2392 0.69059 0.0
C1559 C 0.38212 0.25874 0.68772 0.0
C1560 C 0.39806 0.28155 0.69563 0.0
H1561 H 0.40312 0.31687 0.74831 0.0
H1562 H 0.39223 0.3095 0.72494 0.0
H1563 H 0.39746 0.2891 0.7367 0.0
H1564 H 0.43515 0.26837 0.71742 0.0
H1565 H 0.4074 0.2285 0.70372 0.0
H1566 H 0.5906 0.05961 0.77523 0.0
H1567 H 0.62647 0.07011 0.76239 0.0
H1568 H 0.6382 0.14081 0.75633 0.0
H1569 H 0.60267 0.13064 0.76951 0.0
H1570 H 0.6377 0.08534 0.72791 0.0
H1571 H 0.69878 0.15285 0.78182 0.0
H1572 H 0.66957 0.13199 0.78528 0.0
H1573 H 0.67637 0.158 0.7738 0.0
C1574 C 0.60099 0.07749 0.7714 0.0
C1575 C 0.59382 0.0943 0.77338 0.0
C1576 C 0.6214 0.08342 0.764 0.0
C1577 C 0.63509 0.10632 0.75863 0.0
C1578 C 0.62805 0.12317 0.76067 0.0
H1579 H 0.73779 0.15226 0.68313 0.0
H1580 H 0.704 0.14172 0.69921 0.0
C1581 C 0.60763 0.11724 0.768 0.0
C1582 C 0.65616 0.11223 0.75005 0.0
H1583 H 0.71363 0.15033 0.7541 0.0
C1584 C 0.65432 0.09946 0.73367 0.0
C1585 C 0.67782 0.13048 0.75772 0.0
C1586 C 0.68088 0.144 0.77571 0.0
C1587 C 0.67354 0.10484 0.7245 0.0
C1588 C 0.69508 0.12371 0.73181 0.0
C1589 C 0.69703 0.13607 0.74844 0.0
C1590 C 0.71579 0.13081 0.72237 0.0
C1591 C 0.67066 0.09016 0.70713 0.0
C1592 C 0.73383 0.12878 0.73032 0.0
C1593 C 0.75311 0.13481 0.72118 0.0
C1594 C 0.75468 0.14313 0.70403 0.0
C1595 C 0.73688 0.14572 0.69629 0.0
C1596 C 0.71757 0.13961 0.70541 0.0
H1597 H 0.65439 0.07288 0.70577 0.0
H1598 H 0.67056 0.10015 0.69557 0.0
H1599 H 0.68495 0.08659 0.70629 0.0
H1600 H 0.73283 0.1222 0.74347 0.0
H1601 H 0.76672 0.13284 0.7275 0.0
H1602 H 0.94359 0.533 0.76674 0.0
H1603 H 0.93319 0.5595 0.75212 0.0
H1604 H 0.86912 0.49887 0.73035 0.0
H1605 H 0.87931 0.4723 0.74496 0.0
H1606 H 0.89137 0.53117 0.70512 0.0
H1607 H 0.886 0.57662 0.76839 0.0
H1608 H 0.91255 0.57728 0.76683 0.0
H1609 H 0.88689 0.54932 0.76793 0.0
C1610 C 0.92722 0.52535 0.75895 0.0
C1611 C 0.91225 0.50057 0.75705 0.0
C1612 C 0.92131 0.5405 0.75061 0.0
C1613 C 0.90026 0.53115 0.74036 0.0
C1614 C 0.88544 0.50643 0.73822 0.0
H1615 H 0.82867 0.60272 0.70662 0.0
H1616 H 0.84168 0.57777 0.72015 0.0
C1617 C 0.89133 0.49127 0.74651 0.0
C1618 C 0.89361 0.54705 0.73179 0.0
H1619 H 0.88184 0.59155 0.74108 0.0
C1620 C 0.88931 0.54441 0.71295 0.0
C1621 C 0.89069 0.56409 0.7421 0.0
C1622 C 0.89406 0.56694 0.76244 0.0
C1623 C 0.88221 0.55842 0.7041 0.0
C1624 C 0.87971 0.57577 0.71439 0.0
C1625 C 0.88396 0.57836 0.73324 0.0
C1626 C 0.87196 0.59089 0.70593 0.0
C1627 C 0.87689 0.55412 0.68389 0.0
C1628 C 0.88481 0.60672 0.69356 0.0
C1629 C 0.87737 0.62097 0.6857 0.0
C1630 C 0.857 0.61972 0.69015 0.0
C1631 C 0.84432 0.604 0.70271 0.0
C1632 C 0.85176 0.58977 0.71053 0.0
H1633 H 0.87428 0.53653 0.67862 0.0
H1634 H 0.86141 0.55498 0.67978 0.0
H1635 H 0.89135 0.56811 0.67747 0.0
H1636 H 0.90069 0.6082 0.69011 0.0
H1637 H 0.88766 0.63302 0.6762 0.0
H1638 H 0.47414 0.92264 0.17759 0.0
H1639 H 0.48236 0.94039 0.14895 0.0
H1640 H 0.45988 0.98887 0.16663 0.0
H1641 H 0.45209 0.97153 0.19562 0.0
H1642 H 0.45071 0.94305 0.12395 0.0
H1643 H 0.5237 0.03236 0.14918 0.0
H1644 H 0.51386 0.00701 0.16224 0.0
H1645 H 0.49799 0.02215 0.16021 0.0
C1646 C 0.47124 0.9373 0.1755 0.0
C1647 C 0.46262 0.94581 0.18891 0.0
C1648 C 0.47579 0.9473 0.15909 0.0
C1649 C 0.47193 0.96606 0.15578 0.0
C1650 C 0.46325 0.9746 0.16906 0.0
H1651 H 0.47543 0.00784 0.04498 0.0
H1652 H 0.46289 0.99697 0.07505 0.0
C1653 C 0.45862 0.96454 0.18552 0.0
C1654 C 0.47657 0.97613 0.13817 0.0
H1655 H 0.51275 0.02532 0.11795 0.0
C1656 C 0.46413 0.9611 0.1226 0.0
C1657 C 0.49414 0.99965 0.13655 0.0
C1658 C 0.50836 0.01628 0.15288 0.0
C1659 C 0.4692 0.96874 0.10537 0.0
C1660 C 0.48697 0.99217 0.10367 0.0
C1661 C 0.49904 0.00741 0.11929 0.0
C1662 C 0.49467 0.00041 0.08587 0.0
C1663 C 0.45601 0.95134 0.08914 0.0
C1664 C 0.51687 0.00667 0.08219 0.0
C1665 C 0.52405 0.01296 0.06515 0.0
C1666 C 0.50913 0.01307 0.05146 0.0
C1667 C 0.48713 0.00756 0.05527 0.0
C1668 C 0.47996 0.00132 0.07239 0.0
H1669 H 0.44647 0.93268 0.09271 0.0
H1670 H 0.4435 0.95585 0.08318 0.0
H1671 H 0.4675 0.95241 0.07876 0.0
H1672 H 0.5285 0.0061 0.09239 0.0
H1673 H 0.54112 0.01719 0.06257 0.0
H1674 H 0.08005 0.50751 0.19198 0.0
H1675 H 0.06639 0.5003 0.15994 0.0
H1676 H 0.01737 0.52152 0.1718 0.0
H1677 H 0.03064 0.52836 0.20391 0.0
H1678 H 0.00032 0.47857 0.14713 0.0
H1679 H 0.07964 0.55586 0.12806 0.0
H1680 H 0.08319 0.53506 0.1408 0.0
H1681 H 0.0724 0.55256 0.15107 0.0
C1682 C 0.06616 0.51034 0.1878 0.0
C1683 C 0.05647 0.5186 0.20045 0.0
C1684 C 0.05852 0.50639 0.16949 0.0
C1685 C 0.04107 0.51063 0.16353 0.0
C1686 C 0.03093 0.51824 0.17616 0.0
H1687 H 0.00012 0.53653 0.06072 0.0
H1688 H 0.0126 0.53683 0.09217 0.0
C1689 C 0.03862 0.52228 0.19445 0.0
C1690 C 0.03374 0.50781 0.14409 0.0
H1691 H 0.05119 0.53231 0.10455 0.0
C1692 C 0.01145 0.49019 0.13776 0.0
C1693 C 0.0483 0.52317 0.13201 0.0
C1694 C 0.07218 0.54287 0.13826 0.0
C1695 C 0.00325 0.4876 0.11961 0.0
C1696 C 0.01782 0.50298 0.10755 0.0
C1697 C 0.04016 0.52047 0.11386 0.0
C1698 C 0.0098 0.50221 0.08857 0.0
C1699 C 0.97892 0.46895 0.11355 0.0
C1700 C 0.00413 0.48261 0.07617 0.0
C1701 C 0.99696 0.4824 0.05818 0.0
C1702 C 0.9955 0.50182 0.0524 0.0
C1703 C 0.00103 0.52129 0.06487 0.0
C1704 C 0.00824 0.52154 0.08279 0.0
H1705 H 0.96883 0.46128 0.12513 0.0
H1706 H 0.97055 0.47664 0.1053 0.0
H1707 H 0.97866 0.45428 0.10503 0.0
H1708 H 0.00542 0.46762 0.08036 0.0
H1709 H 0.99247 0.46706 0.04883 0.0
H1710 H 0.43178 0.51029 0.18103 0.0
H1711 H 0.43999 0.50176 0.15083 0.0
H1712 H 0.50916 0.52522 0.17111 0.0
H1713 H 0.50094 0.53318 0.20139 0.0
H1714 H 0.47227 0.53435 0.13034 0.0
H1715 H 0.4894 0.46121 0.14272 0.0
H1716 H 0.47512 0.4706 0.15806 0.0
H1717 H 0.50562 0.48723 0.15834 0.0
C1718 C 0.44862 0.51323 0.17912 0.0
C1719 C 0.46571 0.52237 0.19361 0.0
C1720 C 0.45331 0.50847 0.16185 0.0
C1721 C 0.47509 0.51257 0.15879 0.0
C1722 C 0.49212 0.52152 0.17324 0.0
H1723 H 0.54269 0.53947 0.06152 0.0
H1724 H 0.53 0.54045 0.09153 0.0
C1725 C 0.48747 0.52632 0.19049 0.0
C1726 C 0.48042 0.50878 0.14033 0.0
H1727 H 0.50106 0.47944 0.11529 0.0
C1728 C 0.47837 0.52219 0.127 0.0
C1729 C 0.48812 0.4927 0.13596 0.0
C1730 C 0.4895 0.47693 0.14947 0.0
C1731 C 0.4846 0.52057 0.10957 0.0
C1732 C 0.49335 0.50537 0.10549 0.0
C1733 C 0.49462 0.4913 0.11858 0.0
C1734 C 0.50166 0.50426 0.08775 0.0
C1735 C 0.48184 0.53518 0.09567 0.0
C1736 C 0.49032 0.48334 0.07598 0.0
C1737 C 0.4976 0.48273 0.05888 0.0
C1738 C 0.51632 0.50301 0.05339 0.0
C1739 C 0.52818 0.52362 0.06545 0.0
C1740 C 0.52085 0.52426 0.0825 0.0
H1741 H 0.46988 0.54126 0.09948 0.0
H1742 H 0.49863 0.55116 0.09446 0.0
H1743 H 0.47556 0.52482 0.08224 0.0
H1744 H 0.47555 0.4677 0.07986 0.0
H1745 H 0.48833 0.46659 0.04981 0.0
H1746 H 0.91879 0.44608 0.82066 0.0
H1747 H 0.93513 0.4557 0.8521 0.0
H1748 H 0.98451 0.52647 0.84034 0.0
H1749 H 0.96833 0.51691 0.80876 0.0
H1750 H 0.00246 0.50058 0.85929 0.0
H1751 H 0.93121 0.50146 0.89158 0.0
H1752 H 0.92289 0.47578 0.87601 0.0
H1753 H 0.93475 0.50472 0.86786 0.0
C1754 C 0.93314 0.46368 0.82477 0.0
C1755 C 0.94233 0.48074 0.81227 0.0
C1756 C 0.9423 0.46922 0.84275 0.0
C1757 C 0.96082 0.49187 0.84854 0.0
C1758 C 0.97008 0.50895 0.83612 0.0
H1759 H 0.01371 0.53582 0.96242 0.0
H1760 H 0.00141 0.53654 0.931 0.0
C1761 C 0.9608 0.50349 0.81814 0.0
C1762 C 0.97115 0.49719 0.86738 0.0
H1763 H 0.95937 0.49999 0.91106 0.0
C1764 C 0.99317 0.50074 0.87062 0.0
C1765 C 0.95906 0.49763 0.88209 0.0
C1766 C 0.93573 0.49491 0.87929 0.0
C1767 C 0.00304 0.50367 0.88826 0.0
C1768 C 0.99047 0.50287 0.90295 0.0
C1769 C 0.96887 0.50041 0.89973 0.0
C1770 C 0.99889 0.50313 0.92171 0.0
C1771 C 0.02673 0.50731 0.89106 0.0
C1772 C 0.00144 0.4841 0.92681 0.0
C1773 C 0.00816 0.48352 0.9447 0.0
C1774 C 0.01231 0.50191 0.95778 0.0
C1775 C 0.01027 0.52125 0.9526 0.0
C1776 C 0.00335 0.52173 0.9347 0.0
H1777 H 0.03619 0.51361 0.87898 0.0
H1778 H 0.03657 0.52039 0.90286 0.0
H1779 H 0.02556 0.49013 0.8937 0.0
H1780 H 0.99776 0.46942 0.91701 0.0
H1781 H 0.00958 0.46839 0.94836 0.0
H1782 H 0.5498 0.51289 0.81476 0.0
H1783 H 0.54216 0.52219 0.84504 0.0
H1784 H 0.52162 0.45076 0.85774 0.0
H1785 H 0.52939 0.44139 0.82763 0.0
H1786 H 0.49775 0.49507 0.8606 0.0
H1787 H 0.57002 0.49613 0.90014 0.0
H1788 H 0.57076 0.50177 0.87664 0.0
H1789 H 0.5544 0.47193 0.88285 0.0
C1790 C 0.54388 0.49927 0.82409 0.0
C1791 C 0.54019 0.47642 0.81886 0.0
C1792 C 0.53946 0.50457 0.84131 0.0
C1793 C 0.53158 0.48722 0.85361 0.0
C1794 C 0.52796 0.46445 0.84847 0.0
H1795 H 0.46387 0.46622 0.94985 0.0
H1796 H 0.4751 0.46551 0.91926 0.0
C1797 C 0.53221 0.45908 0.83124 0.0
C1798 C 0.52626 0.49251 0.87164 0.0
H1799 H 0.54166 0.49694 0.91662 0.0
C1800 C 0.50744 0.4957 0.87286 0.0
C1801 C 0.53906 0.49345 0.88754 0.0
C1802 C 0.55982 0.49082 0.88685 0.0
C1803 C 0.50059 0.49899 0.88968 0.0
C1804 C 0.5129 0.49905 0.90557 0.0
C1805 C 0.53221 0.49674 0.90435 0.0
C1806 C 0.50539 0.50036 0.9236 0.0
C1807 C 0.48014 0.50215 0.89039 0.0
C1808 C 0.51868 0.52025 0.93605 0.0
C1809 C 0.51216 0.52078 0.95345 0.0
C1810 C 0.49259 0.5012 0.95872 0.0
C1811 C 0.47904 0.48155 0.9461 0.0
C1812 C 0.48543 0.48111 0.92867 0.0
H1813 H 0.47555 0.50678 0.8773 0.0
H1814 H 0.46535 0.48526 0.89365 0.0
H1815 H 0.48334 0.51629 0.90111 0.0
H1816 H 0.53413 0.53527 0.93233 0.0
H1817 H 0.52252 0.53637 0.96284 0.0
H1818 H 0.54758 0.02987 0.81089 0.0
H1819 H 0.53645 0.00834 0.83794 0.0
H1820 H 0.5178 0.05837 0.85975 0.0
H1821 H 0.5286 0.07971 0.83278 0.0
H1822 H 0.5525 0.02307 0.87308 0.0
H1823 H 0.46123 0.99544 0.86475 0.0
H1824 H 0.4796 0.00707 0.84688 0.0
H1825 H 0.47893 0.02701 0.86426 0.0
C1826 C 0.54111 0.03624 0.82149 0.0
C1827 C 0.53874 0.05633 0.81967 0.0
C1828 C 0.53469 0.0239 0.83687 0.0
C1829 C 0.52581 0.03144 0.85066 0.0
C1830 C 0.52393 0.0518 0.84903 0.0
H1831 H 0.52399 0.01684 0.9627 0.0
H1832 H 0.53368 0.02587 0.93214 0.0
C1833 C 0.53018 0.06402 0.83365 0.0
C1834 C 0.51922 0.01867 0.86711 0.0
H1835 H 0.47624 0.99495 0.89459 0.0
C1836 C 0.53572 0.01657 0.87767 0.0
C1837 C 0.49717 0.00969 0.87288 0.0
C1838 C 0.47816 0.00967 0.86148 0.0
C1839 C 0.53115 0.00698 0.89436 0.0
C1840 C 0.50969 -0.00016 0.90082 0.0
C1841 C 0.4928 0.00069 0.88977 0.0
C1842 C 0.50489 0.99311 0.91944 0.0
C1843 C 0.54945 0.00478 0.90493 0.0
C1844 C 0.48517 0.972 0.92261 0.0
C1845 C 0.47962 0.96696 0.94025 0.0
C1846 C 0.49382 0.9828 0.95496 0.0
C1847 C 0.5135 0.00378 0.95176 0.0
C1848 C 0.51894 0.00898 0.93419 0.0
H1849 H 0.56076 0.0025 0.89581 0.0
H1850 H 0.56018 0.02134 0.91396 0.0
H1851 H 0.54206 0.98949 0.91328 0.0
H1852 H 0.47389 0.95963 0.91144 0.0
H1853 H 0.46413 0.95078 0.94239 0.0
H1854 H 0.11513 0.29667 0.52602 0.0
H1855 H 0.12245 0.31564 0.49769 0.0
H1856 H 0.14279 0.26681 0.47638 0.0
H1857 H 0.1352 0.24756 0.50448 0.0
H1858 H 0.16471 0.33732 0.48164 0.0
H1859 H 0.09522 0.26246 0.43691 0.0
H1860 H 0.09537 0.26439 0.46118 0.0
H1861 H 0.11231 0.2541 0.45041 0.0
C1862 C 0.12092 0.28984 0.5152 0.0
C1863 C 0.12456 0.27062 0.51743 0.0
C1864 C 0.12517 0.30073 0.4991 0.0
C1865 C 0.13285 0.29239 0.48491 0.0
C1866 C 0.13652 0.27325 0.48709 0.0
H1867 H 0.20598 0.35017 0.3948 0.0
H1868 H 0.19305 0.33818 0.42442 0.0
C1869 C 0.1324 0.26244 0.5032 0.0
C1870 C 0.13795 0.30421 0.46802 0.0
H1871 H 0.12494 0.29336 0.42245 0.0
C1872 C 0.15582 0.32786 0.4687 0.0
C1873 C 0.1261 0.2919 0.45122 0.0
C1874 C 0.10603 0.26688 0.44983 0.0
C1875 C 0.16291 0.33916 0.45287 0.0
C1876 C 0.15196 0.32635 0.43601 0.0
C1877 C 0.13337 0.3031 0.4354 0.0
C1878 C 0.1605 0.336 0.41879 0.0
C1879 C 0.18227 0.36458 0.4543 0.0
C1880 C 0.14648 0.33878 0.40583 0.0
C1881 C 0.1539 0.34574 0.3889 0.0
C1882 C 0.1752 0.34948 0.38462 0.0
C1883 C 0.18948 0.34741 0.39779 0.0
C1884 C 0.18214 0.34063 0.41472 0.0
H1885 H 0.18433 0.37391 0.4678 0.0
H1886 H 0.19835 0.3647 0.45227 0.0
H1887 H 0.17957 0.37466 0.44383 0.0
H1888 H 0.12967 0.33517 0.40871 0.0
H1889 H 0.14273 0.34753 0.37901 0.0
H1890 H 0.7042 0.86451 0.53527 0.0
H1891 H 0.69082 0.85818 0.50323 0.0
H1892 H 0.73934 0.83653 0.49065 0.0
H1893 H 0.75309 0.8432 0.52266 0.0
H1894 H 0.73934 0.8717 0.46932 0.0
H1895 H 0.65256 0.79414 0.47137 0.0
H1896 H 0.65979 0.81881 0.48766 0.0
H1897 H 0.67505 0.80294 0.4892 0.0
C1898 C 0.71198 0.85836 0.52568 0.0
C1899 C 0.72966 0.8543 0.53146 0.0
C1900 C 0.70419 0.85455 0.50742 0.0
C1901 C 0.71392 0.84661 0.49465 0.0
C1902 C 0.73151 0.84248 0.50036 0.0
H1903 H 0.66475 0.8057 0.38033 0.0
H1904 H 0.67897 0.80641 0.41147 0.0
C1905 C 0.73925 0.84616 0.51863 0.0
C1906 C 0.70647 0.8438 0.47524 0.0
H1907 H 0.66016 0.81369 0.44434 0.0
C1908 C 0.72209 0.8589 0.46381 0.0
C1909 C 0.68403 0.8269 0.4681 0.0
C1910 C 0.6669 0.8096 0.47966 0.0
C1911 C 0.7156 0.85808 0.44549 0.0
C1912 C 0.69291 0.84189 0.43854 0.0
C1913 C 0.6775 0.82622 0.44981 0.0
C1914 C 0.68467 0.84152 0.41974 0.0
C1915 C 0.733 0.87459 0.4337 0.0
C1916 C 0.68303 0.86093 0.41423 0.0
C1917 C 0.67491 0.86053 0.39655 0.0
C1918 C 0.66841 0.84076 0.38412 0.0
C1919 C 0.66992 0.82126 0.38966 0.0
C1920 C 0.67793 0.8216 0.40739 0.0
H1921 H 0.75066 0.88206 0.44001 0.0
H1922 H 0.73133 0.86516 0.42034 0.0
H1923 H 0.73009 0.88963 0.43145 0.0
H1924 H 0.68789 0.87632 0.42367 0.0
H1925 H 0.67388 0.87577 0.39258 0.0
H1926 H 0.14187 0.89316 0.51555 0.0
H1927 H 0.14855 0.88282 0.48531 0.0
H1928 H 0.12703 0.81142 0.49868 0.0
H1929 H 0.12048 0.82169 0.52906 0.0
H1930 H 0.1698 0.83535 0.48247 0.0
H1931 H 0.09937 0.8381 0.4436 0.0
H1932 H 0.11673 0.86371 0.4594 0.0
H1933 H 0.09983 0.83505 0.46753 0.0
C1934 C 0.13861 0.87528 0.51206 0.0
C1935 C 0.13067 0.85822 0.52465 0.0
C1936 C 0.14222 0.86934 0.49475 0.0
C1937 C 0.138 0.84629 0.48974 0.0
C1938 C 0.13019 0.82925 0.50228 0.0
H1939 H 0.14342 0.79977 0.37848 0.0
H1940 H 0.13163 0.80006 0.409 0.0
C1941 C 0.1264 0.83511 0.51957 0.0
C1942 C 0.14269 0.84039 0.47163 0.0
H1943 H 0.12794 0.83761 0.42675 0.0
C1944 C 0.16051 0.83558 0.47027 0.0
C1945 C 0.13032 0.84039 0.45579 0.0
C1946 C 0.11034 0.84437 0.45656 0.0
C1947 C 0.16695 0.83178 0.4534 0.0
C1948 C 0.15536 0.83306 0.43757 0.0
C1949 C 0.13689 0.83683 0.43893 0.0
C1950 C 0.16293 0.83187 0.41951 0.0
C1951 C 0.18621 0.82664 0.45265 0.0
C1952 C 0.18439 0.84965 0.41538 0.0
C1953 C 0.19102 0.84963 0.398 0.0
C1954 C 0.17623 0.83193 0.38444 0.0
C1955 C 0.15501 0.81376 0.38869 0.0
C1956 C 0.14829 0.81387 0.40607 0.0
H1957 H 0.18897 0.81976 0.46528 0.0
H1958 H 0.18288 0.81347 0.44109 0.0
H1959 H 0.20215 0.84336 0.45088 0.0
H1960 H 0.19577 0.86392 0.42549 0.0
H1961 H 0.20747 0.86386 0.39504 0.0
H1962 H 0.64644 0.86011 0.13702 0.0
H1963 H 0.6662 0.87221 0.16751 0.0
H1964 H 0.62587 0.80021 0.18149 0.0
H1965 H 0.60572 0.78808 0.15139 0.0
H1966 H 0.64587 0.86759 0.2009 0.0
H1967 H 0.69235 0.818 0.19672 0.0
H1968 H 0.68067 0.82457 0.17697 0.0
H1969 H 0.66259 0.79997 0.18928 0.0
C1970 C 0.64173 0.84686 0.14661 0.0
C1971 C 0.62458 0.82306 0.14168 0.0
C1972 C 0.65314 0.85379 0.16396 0.0
C1973 C 0.64777 0.837 0.17661 0.0
C1974 C 0.63066 0.81332 0.17177 0.0
H1975 H 0.64683 0.83176 0.28789 0.0
H1976 H 0.64182 0.83626 0.25609 0.0
C1977 C 0.61918 0.80641 0.15452 0.0
C1978 C 0.65907 0.84418 0.19522 0.0
H1979 H 0.68748 0.82973 0.22653 0.0
C1980 C 0.65537 0.85971 0.20645 0.0
C1981 C 0.67176 0.83419 0.20236 0.0
C1982 C 0.6773 0.81843 0.19067 0.0
C1983 C 0.66266 0.86417 0.22494 0.0
C1984 C 0.67373 0.85262 0.23235 0.0
C1985 C 0.67884 0.83845 0.22087 0.0
C1986 C 0.67762 0.85261 0.25209 0.0
C1987 C 0.65786 0.88067 0.23647 0.0
C1988 C 0.69943 0.8601 0.26043 0.0
C1989 C 0.70238 0.85766 0.27879 0.0
C1990 C 0.6835 0.84744 0.28893 0.0
C1991 C 0.66178 0.84023 0.28055 0.0
C1992 C 0.65888 0.8428 0.26234 0.0
H1993 H 0.65656 0.89386 0.22839 0.0
H1994 H 0.64135 0.87007 0.24219 0.0
H1995 H 0.67132 0.89035 0.2478 0.0
H1996 H 0.71407 0.86744 0.25268 0.0
H1997 H 0.71927 0.86319 0.28492 0.0
H1998 H 0.21666 0.84922 0.14609 0.0
H1999 H 0.20939 0.85909 0.17634 0.0
H2000 H 0.18849 0.78779 0.18961 0.0
H2001 H 0.19589 0.77787 0.15953 0.0
H2002 H 0.16604 0.8343 0.19164 0.0
H2003 H 0.23579 0.83227 0.23221 0.0
H2004 H 0.23617 0.83568 0.20832 0.0
H2005 H 0.2192 0.80681 0.21611 0.0
C2006 C 0.2108 0.83577 0.15556 0.0
C2007 C 0.20682 0.81277 0.15047 0.0
C2008 C 0.20657 0.84139 0.17276 0.0
C2009 C 0.19864 0.82423 0.18522 0.0
C2010 C 0.1949 0.80136 0.18025 0.0
H2011 H 0.12623 0.80474 0.27883 0.0
H2012 H 0.13852 0.80473 0.24856 0.0
C2013 C 0.19894 0.79567 0.16303 0.0
C2014 C 0.19316 0.82973 0.20315 0.0
H2015 H 0.20634 0.83201 0.24826 0.0
C2016 C 0.17499 0.83408 0.20404 0.0
C2017 C 0.20503 0.82965 0.21926 0.0
C2018 C 0.22528 0.82607 0.21902 0.0
C2019 C 0.16779 0.83742 0.22068 0.0
C2020 C 0.17897 0.8362 0.23677 0.0
C2021 C 0.19772 0.8328 0.23589 0.0
C2022 C 0.17089 0.83733 0.25462 0.0
C2023 C 0.14818 0.84205 0.22094 0.0
C2024 C 0.18502 0.85569 0.268 0.0
C2025 C 0.17795 0.85578 0.28525 0.0
C2026 C 0.1569 0.83726 0.28945 0.0
C2027 C 0.14254 0.81924 0.27592 0.0
C2028 C 0.14952 0.81924 0.25864 0.0
H2029 H 0.14538 0.84853 0.20811 0.0
H2030 H 0.1324 0.82523 0.2228 0.0
H2031 H 0.15115 0.85537 0.23229 0.0
H2032 H 0.20159 0.86977 0.26515 0.0
H2033 H 0.18919 0.87003 0.29543 0.0
H2034 H 0.20211 0.41961 0.1699 0.0
H2035 H 0.19336 0.40018 0.19789 0.0
H2036 H 0.2119 0.3497 0.17695 0.0
H2037 H 0.22034 0.36882 0.14871 0.0
H2038 H 0.16953 0.3291 0.19258 0.0
H2039 H 0.23931 0.40284 0.23786 0.0
H2040 H 0.22294 0.41189 0.2242 0.0
H2041 H 0.23954 0.401 0.21363 0.0
C2042 C 0.20427 0.40433 0.17123 0.0
C2043 C 0.21192 0.39573 0.15712 0.0
C2044 C 0.19948 0.39341 0.18728 0.0
C2045 C 0.2023 0.37374 0.18955 0.0
C2046 C 0.20982 0.365 0.17549 0.0
H2047 H 0.19002 0.31813 0.29533 0.0
H2048 H 0.20344 0.33056 0.26575 0.0
C2049 C 0.21472 0.37599 0.15943 0.0
C2050 C 0.19657 0.36188 0.2064 0.0
H2051 H 0.2089 0.37234 0.25204 0.0
C2052 C 0.17832 0.3384 0.20558 0.0
C2053 C 0.20828 0.37396 0.22329 0.0
C2054 C 0.22876 0.39874 0.22486 0.0
C2055 C 0.17077 0.32707 0.22134 0.0
C2056 C 0.18163 0.33969 0.23829 0.0
C2057 C 0.20055 0.36275 0.23903 0.0
C2058 C 0.17281 0.32998 0.25544 0.0
C2059 C 0.15107 0.30183 0.21974 0.0
C2060 C 0.15115 0.32545 0.25937 0.0
C2061 C 0.14359 0.3186 0.27624 0.0
C2062 C 0.15766 0.31636 0.2895 0.0
C2063 C 0.17899 0.32002 0.28536 0.0
C2064 C 0.18662 0.32703 0.2685 0.0
H2065 H 0.14907 0.2925 0.20625 0.0
H2066 H 0.15331 0.29152 0.23024 0.0
H2067 H 0.13512 0.30208 0.22157 0.0
H2068 H 0.1404 0.32805 0.2496 0.0
H2069 H 0.12708 0.31591 0.27911 0.0
H2070 H 0.82832 0.62697 0.85883 0.0
H2071 H 0.83672 0.64471 0.83017 0.0
H2072 H 0.76679 0.59839 0.80897 0.0
H2073 H 0.75838 0.58004 0.83749 0.0
H2074 H 0.79786 0.59876 0.78621 0.0
H2075 H 0.81956 0.69086 0.80883 0.0
H2076 H 0.83507 0.68045 0.82209 0.0
H2077 H 0.80464 0.66616 0.82219 0.0
C2078 C 0.81472 0.62057 0.84808 0.0
C2079 C 0.7927 0.60207 0.8504 0.0
C2080 C 0.81948 0.63092 0.83179 0.0
C2081 C 0.8023 0.62309 0.81755 0.0
C2082 C 0.78024 0.6048 0.81987 0.0
H2083 H 0.81839 0.68611 0.7147 0.0
H2084 H 0.8047 0.67099 0.74369 0.0
C2085 C 0.77544 0.59445 0.83618 0.0
C2086 C 0.80777 0.63301 0.79992 0.0
H2087 H 0.83085 0.68511 0.77996 0.0
C2088 C 0.80486 0.61759 0.7848 0.0
C2089 C 0.81663 0.65754 0.79808 0.0
C2090 C 0.81896 0.67469 0.81362 0.0
C2091 C 0.81143 0.62623 0.76803 0.0
C2092 C 0.82139 0.65092 0.76646 0.0
C2093 C 0.82347 0.66622 0.78135 0.0
C2094 C 0.83024 0.66114 0.74951 0.0
C2095 C 0.8078 0.60897 0.75211 0.0
C2096 C 0.8494 0.66107 0.74353 0.0
C2097 C 0.85722 0.6697 0.7271 0.0
C2098 C 0.84584 0.67834 0.71639 0.0
C2099 C 0.82717 0.67918 0.72268 0.0
C2100 C 0.81943 0.67067 0.73918 0.0
H2101 H 0.79571 0.59025 0.75455 0.0
H2102 H 0.80122 0.61329 0.73978 0.0
H2103 H 0.82432 0.61038 0.74951 0.0
H2104 H 0.85808 0.654 0.75146 0.0
H2105 H 0.87163 0.66883 0.72249 0.0
H2106 H 0.42492 0.22435 0.85678 0.0
H2107 H 0.40871 0.21639 0.82537 0.0
H2108 H 0.35627 0.14648 0.83612 0.0
H2109 H 0.37229 0.15438 0.86768 0.0
H2110 H 0.39919 0.17541 0.79893 0.0
H2111 H 0.32309 0.18157 0.81474 0.0
H2112 H 0.34854 0.19425 0.83017 0.0
H2113 H 0.32959 0.16263 0.82748 0.0
C2114 C 0.40989 0.20731 0.85247 0.0
C2115 C 0.39977 0.19004 0.86471 0.0
C2116 C 0.40076 0.20274 0.83452 0.0
C2117 C 0.38126 0.18093 0.82851 0.0
C2118 C 0.37128 0.16348 0.84057 0.0
H2119 H 0.32556 0.13592 0.71516 0.0
H2120 H 0.3393 0.13624 0.74636 0.0
C2121 C 0.3805 0.16797 0.85853 0.0
C2122 C 0.37114 0.17683 0.80969 0.0
H2123 H 0.32647 0.17387 0.78421 0.0
C2124 C 0.3832 0.17485 0.79566 0.0
C2125 C 0.35038 0.17632 0.80557 0.0
C2126 C 0.3371 0.17893 0.82022 0.0
C2127 C 0.37512 0.17261 0.77752 0.0
C2128 C 0.35444 0.1723 0.7734 0.0
C2129 C 0.34227 0.17401 0.78746 0.0
C2130 C 0.34582 0.17167 0.75462 0.0
C2131 C 0.38909 0.17136 0.76289 0.0
C2132 C 0.34449 0.19125 0.74909 0.0
C2133 C 0.33681 0.19114 0.73132 0.0
C2134 C 0.33031 0.17143 0.71881 0.0
C2135 C 0.33107 0.15157 0.72446 0.0
C2136 C 0.33883 0.15171 0.74224 0.0
H2137 H 0.40657 0.17632 0.76831 0.0
H2138 H 0.38068 0.15289 0.75631 0.0
H2139 H 0.3903 0.1833 0.75239 0.0
H2140 H 0.34972 0.20678 0.75847 0.0
H2141 H 0.33634 0.20666 0.7273 0.0
H2142 H 0.8065 0.22523 0.84843 0.0
H2143 H 0.8136 0.21498 0.81829 0.0
H2144 H 0.79537 0.14474 0.83264 0.0
H2145 H 0.78816 0.15486 0.86287 0.0
H2146 H 0.84029 0.17384 0.81701 0.0
H2147 H 0.76494 0.16493 0.77652 0.0
H2148 H 0.77967 0.19057 0.79281 0.0
H2149 H 0.76525 0.16131 0.80038 0.0
C2150 C 0.80394 0.20758 0.84513 0.0
C2151 C 0.79684 0.19084 0.85797 0.0
C2152 C 0.80783 0.20171 0.8279 0.0
C2153 C 0.80481 0.17907 0.82327 0.0
C2154 C 0.79761 0.16225 0.83599 0.0
H2155 H 0.81743 0.13086 0.71472 0.0
H2156 H 0.80504 0.13134 0.745 0.0
C2157 C 0.79346 0.16802 0.85318 0.0
C2158 C 0.8105 0.17359 0.80545 0.0
H2159 H 0.79485 0.16682 0.76031 0.0
C2160 C 0.83027 0.17205 0.80461 0.0
C2161 C 0.79723 0.17109 0.78937 0.0
C2162 C 0.77547 0.17186 0.7897 0.0
C2163 C 0.83763 0.16899 0.78798 0.0
C2164 C 0.82492 0.16756 0.77186 0.0
C2165 C 0.80463 0.16811 0.77273 0.0
C2166 C 0.83296 0.16666 0.75397 0.0
C2167 C 0.85905 0.16754 0.78773 0.0
C2168 C 0.85276 0.18633 0.7491 0.0
C2169 C 0.85965 0.18619 0.7318 0.0
C2170 C 0.84674 0.16645 0.71912 0.0
C2171 C 0.82735 0.14649 0.72419 0.0
C2172 C 0.82035 0.14668 0.74145 0.0
H2173 H 0.86367 0.16308 0.80089 0.0
H2174 H 0.85709 0.15397 0.77698 0.0
H2175 H 0.87334 0.18504 0.78489 0.0
H2176 H 0.86256 0.20202 0.75852 0.0
H2177 H 0.87466 0.20182 0.72819 0.0
H2178 H 0.30453 0.14063 0.47181 0.0
H2179 H 0.31813 0.14753 0.50382 0.0
H2180 H 0.27029 0.17029 0.51602 0.0
H2181 H 0.25618 0.16287 0.48407 0.0
H2182 H 0.3364 0.18956 0.52847 0.0
H2183 H 0.25542 0.11503 0.5479 0.0
H2184 H 0.26223 0.11825 0.52479 0.0
H2185 H 0.25284 0.13674 0.53565 0.0
C2186 C 0.29687 0.14706 0.48131 0.0
C2187 C 0.27915 0.15101 0.47544 0.0
C2188 C 0.30476 0.15115 0.49956 0.0
C2189 C 0.295 0.15913 0.51227 0.0
C2190 C 0.27783 0.16384 0.50642 0.0
H2191 H 0.34657 0.20179 0.62653 0.0
H2192 H 0.33359 0.20182 0.59515 0.0
C2193 C 0.26994 0.15979 0.48815 0.0
C2194 C 0.30235 0.16169 0.5317 0.0
H2195 H 0.28432 0.13776 0.57133 0.0
C2196 C 0.32501 0.17837 0.5379 0.0
C2197 C 0.28746 0.14687 0.54386 0.0
C2198 C 0.26317 0.12806 0.53777 0.0
C2199 C 0.33324 0.18051 0.55598 0.0
C2200 C 0.31833 0.16569 0.56813 0.0
C2201 C 0.29563 0.14918 0.56196 0.0
C2202 C 0.32624 0.16603 0.58707 0.0
C2203 C 0.35797 0.19803 0.56184 0.0
C2204 C 0.32608 0.14582 0.59291 0.0
C2205 C 0.33326 0.14572 0.61077 0.0
C2206 C 0.34049 0.16575 0.62312 0.0
C2207 C 0.34075 0.18602 0.61728 0.0
C2208 C 0.33358 0.18614 0.59937 0.0
H2209 H 0.36812 0.20483 0.55015 0.0
H2210 H 0.35929 0.21344 0.57014 0.0
H2211 H 0.36554 0.1897 0.57024 0.0
H2212 H 0.32044 0.13011 0.58361 0.0
H2213 H 0.33286 0.12983 0.61497 0.0
H2214 H 0.87964 0.17818 0.47944 0.0
H2215 H 0.87234 0.18757 0.50982 0.0
H2216 H 0.85164 0.11607 0.52243 0.0
H2217 H 0.85894 0.10658 0.49215 0.0
H2218 H 0.82829 0.16097 0.52579 0.0
H2219 H 0.90108 0.16219 0.56444 0.0
H2220 H 0.90067 0.16617 0.54065 0.0
H2221 H 0.88465 0.13695 0.54808 0.0
C2222 C 0.87372 0.16455 0.48875 0.0
C2223 C 0.86986 0.14165 0.48345 0.0
C2224 C 0.8695 0.1699 0.50604 0.0
C2225 C 0.86169 0.15257 0.51837 0.0
C2226 C 0.8579 0.12975 0.51314 0.0
H2227 H 0.79392 0.13263 0.61459 0.0
H2228 H 0.80505 0.13211 0.58397 0.0
C2229 C 0.8619 0.12431 0.49582 0.0
C2230 C 0.85667 0.15796 0.53651 0.0
H2231 H 0.87244 0.16211 0.58138 0.0
C2232 C 0.83804 0.16145 0.53796 0.0
C2233 C 0.8696 0.15881 0.5523 0.0
C2234 C 0.89025 0.15604 0.5514 0.0
C2235 C 0.83147 0.16487 0.55487 0.0
C2236 C 0.8438 0.16468 0.57067 0.0
C2237 C 0.86296 0.16211 0.56922 0.0
C2238 C 0.83646 0.16595 0.58881 0.0
C2239 C 0.8113 0.1685 0.55575 0.0
C2240 C 0.85043 0.18517 0.60164 0.0
C2241 C 0.844 0.18558 0.6191 0.0
C2242 C 0.82378 0.16652 0.62407 0.0
C2243 C 0.8096 0.14756 0.6111 0.0
C2244 C 0.81592 0.14725 0.59362 0.0
H2245 H 0.80724 0.17401 0.54288 0.0
H2246 H 0.79618 0.15151 0.55841 0.0
H2247 H 0.81448 0.18217 0.56687 0.0
H2248 H 0.86637 0.19973 0.59817 0.0
H2249 H 0.85506 0.20055 0.62882 0.0
H2250 H 0.83721 0.69585 0.47707 0.0
H2251 H 0.82891 0.67976 0.50638 0.0
H2252 H 0.89675 0.73229 0.52872 0.0
H2253 H 0.90505 0.74887 0.49952 0.0
H2254 H 0.85167 0.66161 0.52821 0.0
H2255 H 0.85419 0.74144 0.56193 0.0
H2256 H 0.85218 0.73607 0.53771 0.0
H2257 H 0.87896 0.74701 0.55083 0.0
C2258 C 0.85033 0.70405 0.48824 0.0
C2259 C 0.87171 0.72377 0.48604 0.0
C2260 C 0.84561 0.69474 0.50493 0.0
C2261 C 0.86213 0.70503 0.51973 0.0
C2262 C 0.88369 0.7243 0.51749 0.0
H2263 H 0.85198 0.64635 0.62399 0.0
H2264 H 0.86422 0.66101 0.59461 0.0
C2265 C 0.88846 0.73361 0.50078 0.0
C2266 C 0.85649 0.69585 0.53758 0.0
H2267 H 0.84827 0.71057 0.58003 0.0
C2268 C 0.85101 0.6723 0.53959 0.0
C2269 C 0.85543 0.70983 0.55229 0.0
C2270 C 0.86031 0.73494 0.55064 0.0
C2271 C 0.84445 0.66231 0.55598 0.0
C2272 C 0.84356 0.67636 0.57071 0.0
C2273 C 0.84911 0.69993 0.56871 0.0
C2274 C 0.836 0.66671 0.58815 0.0
C2275 C 0.83793 0.63665 0.55727 0.0
C2276 C 0.81624 0.66526 0.59425 0.0
C2277 C 0.80941 0.65713 0.61101 0.0
C2278 C 0.82239 0.6506 0.62202 0.0
C2279 C 0.84194 0.65165 0.6158 0.0
C2280 C 0.84877 0.65976 0.599 0.0
H2281 H 0.83495 0.62695 0.54377 0.0
H2282 H 0.85189 0.63598 0.56511 0.0
H2283 H 0.82231 0.62727 0.56439 0.0
H2284 H 0.8062 0.67061 0.58609 0.0
H2285 H 0.79433 0.65662 0.61556 0.0
loop_
_geom_bond_atom_site_label_1
_geom_bond_atom_site_label_2
_geom_bond_distance
_geom_bond_site_symmetry_2
_ccdc_geom_bond_type
H0 C3 0.931 . S
H1 C6 0.928 . S
H2 C8 0.930 . S
C3 H0 0.931 . S
C3 C4 1.413 . S
C3 C5 1.360 . S
C4 C3 1.413 . S
C4 C8 1.429 . S
C5 C3 1.360 . S
C5 C6 1.372 . S
C6 H1 0.928 . S
C6 C5 1.372 . S
C6 C7 1.404 . S
C7 C6 1.404 . S
C7 C8 1.391 . S
C8 H2 0.930 . S
C8 C4 1.429 . S
C8 C7 1.391 . S
H9 C12 0.931 . S
H10 C15 0.928 . S
H11 C17 0.930 . S
C12 H9 0.931 . S
C12 C13 1.413 . S
C12 C14 1.360 . S
C13 C12 1.413 . S
C13 C17 1.429 . S
C14 C12 1.360 . S
C14 C15 1.372 . S
C15 H10 0.928 . S
C15 C14 1.372 . S
C15 C16 1.404 . S
C16 C15 1.404 . S
C16 C17 1.391 . S
C17 H11 0.930 . S
C17 C13 1.429 . S
C17 C16 1.391 . S
H18 C21 0.931 . S
H19 C24 0.928 . S
H20 C26 0.930 . S
C21 H18 0.931 . S
C21 C22 1.413 . S
C21 C23 1.360 . S
C22 C21 1.413 . S
C22 C26 1.429 . S
C23 C21 1.360 . S
C23 C24 1.372 . S
C24 H19 0.928 . S
C24 C23 1.372 . S
C24 C25 1.404 . S
C25 C24 1.404 . S
C25 C26 1.391 . S
C26 H20 0.930 . S
C26 C22 1.429 . S
C26 C25 1.391 . S
H27 C30 0.931 . S
H28 C33 0.928 . S
H29 C35 0.930 . S
C30 H27 0.931 . S
C30 C31 1.413 . S
C30 C32 1.360 . S
C31 C30 1.413 . S
C31 C35 1.429 . S
C32 C30 1.360 . S
C32 C33 1.372 . S
C33 H28 0.928 . S
C33 C32 1.372 . S
C33 C34 1.404 . S
C34 C33 1.404 . S
C34 C35 1.391 . S
C35 H29 0.930 . S
C35 C31 1.429 . S
C35 C34 1.391 . S
H36 C39 0.931 . S
H37 C42 0.928 . S
H38 C44 0.930 . S
C39 H36 0.931 . S
C39 C40 1.413 . S
C39 C41 1.360 . S
C40 C39 1.413 . S
C40 C44 1.429 . S
C41 C39 1.360 . S
C41 C42 1.372 . S
C42 H37 0.928 . S
C42 C41 1.372 . S
C42 C43 1.404 . S
C43 C42 1.404 . S
C43 C44 1.391 . S
C44 H38 0.930 . S
C44 C40 1.429 . S
C44 C43 1.391 . S
H45 C48 0.931 . S
H46 C51 0.928 . S
H47 C53 0.930 . S
C48 H45 0.931 . S
C48 C49 1.413 . S
C48 C50 1.360 . S
C49 C48 1.413 . S
C49 C53 1.429 . S
C50 C48 1.360 . S
C50 C51 1.372 . S
C51 H46 0.928 . S
C51 C50 1.372 . S
C51 C52 1.404 . S
C52 C51 1.404 . S
C52 C53 1.391 . S
C53 H47 0.930 . S
C53 C49 1.429 . S
C53 C52 1.391 . S
H54 C57 0.931 . S
H55 C60 0.928 . S
H56 C62 0.930 . S
C57 H54 0.931 . S
C57 C58 1.413 . S
C57 C59 1.360 . S
C58 C57 1.413 . S
C58 C62 1.429 . S
C59 C57 1.360 . S
C59 C60 1.372 . S
C60 H55 0.928 . S
C60 C59 1.372 . S
C60 C61 1.404 . S
C61 C60 1.404 . S
C61 C62 1.391 . S
C62 H56 0.930 . S
C62 C58 1.429 . S
C62 C61 1.391 . S
H63 C66 0.931 . S
H64 C69 0.928 . S
H65 C71 0.930 . S
C66 H63 0.931 . S
C66 C67 1.413 . S
C66 C68 1.360 . S
C67 C66 1.413 . S
C67 C71 1.429 . S
C68 C66 1.360 . S
C68 C69 1.372 . S
C69 H64 0.928 . S
C69 C68 1.372 . S
C69 C70 1.404 . S
C70 C69 1.404 . S
C70 C71 1.391 . S
C71 H65 0.930 . S
C71 C67 1.429 . S
C71 C70 1.391 . S
H72 C75 0.931 . S
H73 C78 0.928 . S
H74 C80 0.930 . S
C75 H72 0.931 . S
C75 C76 1.413 . S
C75 C77 1.360 . S
C76 C75 1.413 . S
C76 C80 1.429 . S
C77 C75 1.360 . S
C77 C78 1.372 . S
C78 H73 0.928 . S
C78 C77 1.372 . S
C78 C79 1.404 . S
C79 C78 1.404 . S
C79 C80 1.391 . S
C80 H74 0.930 . S
C80 C76 1.429 . S
C80 C79 1.391 . S
H81 C84 0.931 . S
H82 C87 0.928 . S
H83 C89 0.930 . S
C84 H81 0.931 . S
C84 C85 1.413 . S
C84 C86 1.360 . S
C85 C84 1.413 . S
C85 C89 1.429 . S
C86 C84 1.360 . S
C86 C87 1.372 . S
C87 H82 0.928 . S
C87 C86 1.372 . S
C87 C88 1.404 . S
C88 C87 1.404 . S
C88 C89 1.391 . S
C89 H83 0.930 . S
C89 C85 1.429 . S
C89 C88 1.391 . S
H90 C93 0.931 . S
H91 C96 0.928 . S
H92 C98 0.930 . S
C93 H90 0.931 . S
C93 C94 1.413 . S
C93 C95 1.360 . S
C94 C93 1.413 . S
C94 C98 1.429 . S
C95 C93 1.360 . S
C95 C96 1.372 . S
C96 H91 0.928 . S
C96 C95 1.372 . S
C96 C97 1.404 . S
C97 C96 1.404 . S
C97 C98 1.391 . S
C98 H92 0.930 . S
C98 C94 1.429 . S
C98 C97 1.391 . S
H99 C102 0.931 . S
H100 C105 0.928 . S
H101 C107 0.930 . S
C102 H99 0.931 . S
C102 C103 1.413 . S
C102 C104 1.360 . S
C103 C102 1.413 . S
C103 C107 1.429 . S
C104 C102 1.360 . S
C104 C105 1.372 . S
C105 H100 0.928 . S
C105 C104 1.372 . S
C105 C106 1.404 . S
C106 C105 1.404 . S
C106 C107 1.391 . S
C107 H101 0.930 . S
C107 C103 1.429 . S
C107 C106 1.391 . S
H108 C111 0.931 . S
H109 C114 0.928 . S
H110 C116 0.930 . S
C111 H108 0.931 . S
C111 C112 1.413 . S
C111 C113 1.360 . S
C112 C111 1.413 . S
C112 C116 1.429 . S
C113 C111 1.360 . S
C113 C114 1.372 . S
C114 H109 0.928 . S
C114 C113 1.372 . S
C114 C115 1.404 . S
C115 C114 1.404 . S
C115 C116 1.391 . S
C116 H110 0.930 . S
C116 C112 1.429 . S
C116 C115 1.391 . S
H117 C120 0.931 . S
H118 C123 0.928 . S
H119 C125 0.930 . S
C120 H117 0.931 . S
C120 C121 1.413 . S
C120 C122 1.360 . S
C121 C120 1.413 . S
C121 C125 1.429 . S
C122 C120 1.360 . S
C122 C123 1.372 . S
C123 H118 0.928 . S
C123 C122 1.372 . S
C123 C124 1.404 . S
C124 C123 1.404 . S
C124 C125 1.391 . S
C125 H119 0.930 . S
C125 C121 1.429 . S
C125 C124 1.391 . S
H126 C129 0.931 . S
H127 C132 0.928 . S
H128 C134 0.930 . S
C129 H126 0.931 . S
C129 C130 1.413 . S
C129 C131 1.360 . S
C130 C129 1.413 . S
C130 C134 1.429 . S
C131 C129 1.360 . S
C131 C132 1.372 . S
C132 H127 0.928 . S
C132 C131 1.372 . S
C132 C133 1.404 . S
C133 C132 1.404 . S
C133 C134 1.391 . S
C134 H128 0.930 . S
C134 C130 1.429 . S
C134 C133 1.391 . S
H135 C138 0.931 . S
H136 C141 0.928 . S
H137 C143 0.930 . S
C138 H135 0.931 . S
C138 C139 1.413 . S
C138 C140 1.360 . S
C139 C138 1.413 . S
C139 C143 1.429 . S
C140 C138 1.360 . S
C140 C141 1.372 . S
C141 H136 0.928 . S
C141 C140 1.372 . S
C141 C142 1.404 . S
C142 C141 1.404 . S
C142 C143 1.391 . S
C143 H137 0.930 . S
C143 C139 1.429 . S
C143 C142 1.391 . S
H144 C147 0.931 . S
H145 C150 0.928 . S
H146 C152 0.930 . S
C147 H144 0.931 . S
C147 C148 1.413 . S
C147 C149 1.360 . S
C148 C147 1.413 . S
C148 C152 1.429 . S
C149 C147 1.360 . S
C149 C150 1.372 . S
C150 H145 0.928 . S
C150 C149 1.372 . S
C150 C151 1.404 . S
C151 C150 1.404 . S
C151 C152 1.391 . S
C152 H146 0.930 . S
C152 C148 1.429 . S
C152 C151 1.391 . S
H153 C156 0.931 . S
H154 C159 0.928 . S
H155 C161 0.930 . S
C156 H153 0.931 . S
C156 C157 1.413 . S
C156 C158 1.360 . S
C157 C156 1.413 . S
C157 C161 1.429 . S
C158 C156 1.360 . S
C158 C159 1.372 . S
C159 H154 0.928 . S
C159 C158 1.372 . S
C159 C160 1.404 . S
C160 C159 1.404 . S
C160 C161 1.391 . S
C161 H155 0.930 . S
C161 C157 1.429 . S
C161 C160 1.391 . S
Tb162 O165 2.453 . S
Tb162 O166 2.596 1_545 S
Tb162 O167 2.374 1_545 S
Tb162 O175 2.343 1_554 S
Tb162 O177 2.353 . S
Tb162 O179 2.427 1_554 S
Tb162 O180 2.513 1_554 S
C163 O167 1.251 . S
C163 O169 1.263 . S
Tb164 O166 2.343 1_556 S
Tb164 O169 2.353 1_556 S
Tb164 O172 2.427 1_556 S
Tb164 O173 2.513 1_556 S
Tb164 O174 2.453 . S
Tb164 O175 2.596 1_565 S
Tb164 O176 2.374 1_565 S
O165 Tb162 2.453 . S
O165 C181 1.245 . S
O166 Tb162 2.596 1_565 S
O166 Tb164 2.343 1_554 S
O166 C181 1.259 1_565 S
O167 Tb162 2.374 1_565 S
O167 C163 1.251 . S
C168 O172 1.275 . S
C168 O173 1.246 . S
O169 C163 1.263 . S
O169 Tb164 2.353 1_554 S
C170 O174 1.261 . S
C170 O175 1.256 1_565 S
C171 O176 1.250 . S
C171 O177 1.263 1_556 S
O172 Tb164 2.427 1_554 S
O172 C168 1.275 . S
O173 Tb164 2.513 1_554 S
O173 C168 1.246 . S
O174 Tb164 2.453 . S
O174 C170 1.261 . S
O175 Tb162 2.343 1_556 S
O175 Tb164 2.596 1_545 S
O175 C170 1.256 1_545 S
O176 Tb164 2.374 1_545 S
O176 C171 1.250 . S
O177 Tb162 2.353 . S
O177 C171 1.263 1_554 S
C178 O179 1.275 . S
C178 O180 1.246 . S
O179 Tb162 2.427 1_556 S
O179 C178 1.275 . S
O180 Tb162 2.513 1_556 S
O180 C178 1.246 . S
C181 O165 1.245 . S
C181 O166 1.259 1_545 S
Tb182 O185 2.453 . S
Tb182 O186 2.596 1_655 S
Tb182 O187 2.374 1_655 S
Tb182 O195 2.343 1_554 S
Tb182 O197 2.353 . S
Tb182 O199 2.427 1_554 S
Tb182 O200 2.513 1_554 S
C183 O187 1.251 . S
C183 O189 1.263 . S
Tb184 O186 2.343 1_556 S
Tb184 O189 2.353 1_556 S
Tb184 O192 2.427 1_556 S
Tb184 O193 2.513 1_556 S
Tb184 O194 2.453 . S
Tb184 O195 2.596 1_455 S
Tb184 O196 2.374 1_455 S
O185 Tb182 2.453 . S
O185 C201 1.245 1_655 S
O186 Tb182 2.596 1_455 S
O186 Tb184 2.343 1_554 S
O186 C201 1.259 . S
O187 Tb182 2.374 1_455 S
O187 C183 1.251 . S
C188 O192 1.275 . S
C188 O193 1.246 . S
O189 C183 1.263 . S
O189 Tb184 2.353 1_554 S
C190 O194 1.245 . S
C190 O195 1.259 1_455 S
C191 O196 1.250 . S
C191 O197 1.263 1_556 S
O192 Tb184 2.427 1_554 S
O192 C188 1.275 . S
O193 Tb184 2.513 1_554 S
O193 C188 1.246 . S
O194 Tb184 2.453 . S
O194 C190 1.245 . S
O195 Tb182 2.343 1_556 S
O195 Tb184 2.596 1_655 S
O195 C190 1.259 1_655 S
O196 Tb184 2.374 1_655 S
O196 C191 1.250 . S
O197 Tb182 2.353 . S
O197 C191 1.263 1_554 S
C198 O199 1.275 . S
C198 O200 1.246 . S
O199 Tb182 2.427 1_556 S
O199 C198 1.275 . S
O200 Tb182 2.513 1_556 S
O200 C198 1.246 . S
C201 O185 1.245 1_455 S
C201 O186 1.259 . S
Tb202 O205 2.453 . S
Tb202 O206 2.596 . S
Tb202 O207 2.374 . S
Tb202 O215 2.343 1_556 S
Tb202 O217 2.353 1_556 S
Tb202 O219 2.427 1_556 S
Tb202 O220 2.513 1_556 S
C203 O207 1.251 . S
C203 O209 1.263 1_556 S
Tb204 O206 2.343 1_554 S
Tb204 O209 2.353 . S
Tb204 O212 2.427 1_554 S
Tb204 O213 2.513 1_554 S
Tb204 O214 2.453 . S
Tb204 O215 2.596 . S
Tb204 O216 2.374 . S
O205 Tb202 2.453 . S
O205 C221 1.245 . S
O206 Tb202 2.596 . S
O206 Tb204 2.343 1_556 S
O206 C221 1.259 . S
O207 Tb202 2.374 . S
O207 C203 1.251 . S
C208 O212 1.275 . S
C208 O213 1.246 . S
O209 C203 1.263 1_554 S
O209 Tb204 2.353 . S
C210 O214 1.245 . S
C210 O215 1.259 . S
C211 O216 1.250 . S
C211 O217 1.263 . S
O212 Tb204 2.427 1_556 S
O212 C208 1.275 . S
O213 Tb204 2.513 1_556 S
O213 C208 1.246 . S
O214 Tb204 2.453 . S
O214 C210 1.245 . S
O215 Tb202 2.343 1_554 S
O215 Tb204 2.596 . S
O215 C210 1.259 . S
O216 Tb204 2.374 . S
O216 C211 1.250 . S
O217 Tb202 2.353 1_554 S
O217 C211 1.263 . S
C218 O219 1.275 . S
C218 O220 1.246 . S
O219 Tb202 2.427 1_554 S
O219 C218 1.275 . S
O220 Tb202 2.513 1_554 S
O220 C218 1.246 . S
C221 O205 1.245 . S
C221 O206 1.259 . S
Tb222 O225 2.453 . S
Tb222 O226 2.596 . S
Tb222 O227 2.374 . S
Tb222 O235 2.343 . S
Tb222 O237 2.353 . S
Tb222 O239 2.427 . S
Tb222 O240 2.513 . S
C223 O227 1.251 . S
C223 O229 1.263 . S
Tb224 O226 2.343 . S
Tb224 O229 2.353 . S
Tb224 O232 2.427 . S
Tb224 O233 2.513 . S
Tb224 O234 2.453 . S
Tb224 O235 2.596 . S
Tb224 O236 2.374 . S
O225 Tb222 2.453 . S
O225 C241 1.245 . S
O226 Tb222 2.596 . S
O226 Tb224 2.343 . S
O226 C241 1.259 . S
O227 Tb222 2.374 . S
O227 C223 1.251 . S
C228 O232 1.275 . S
C228 O233 1.246 . S
O229 C223 1.263 . S
O229 Tb224 2.353 . S
C230 O234 1.245 . S
C230 O235 1.259 . S
C231 O236 1.250 . S
C231 O237 1.263 . S
O232 Tb224 2.427 . S
O232 C228 1.275 . S
O233 Tb224 2.513 . S
O233 C228 1.246 . S
O234 Tb224 2.453 . S
O234 C230 1.245 . S
O235 Tb222 2.343 . S
O235 Tb224 2.596 . S
O235 C230 1.259 . S
O236 Tb224 2.374 . S
O236 C231 1.250 . S
O237 Tb222 2.353 . S
O237 C231 1.263 . S
C238 O239 1.275 . S
C238 O240 1.246 . S
O239 Tb222 2.427 . S
O239 C238 1.275 . S
O240 Tb222 2.513 . S
O240 C238 1.246 . S
C241 O225 1.245 . S
C241 O226 1.259 . S
Tb242 O245 2.453 . S
Tb242 O246 2.596 . S
Tb242 O247 2.374 . S
Tb242 O255 2.343 . S
Tb242 O257 2.353 . S
Tb242 O259 2.427 . S
Tb242 O260 2.513 . S
C243 O247 1.251 . S
C243 O249 1.263 . S
Tb244 O246 2.343 . S
Tb244 O249 2.353 . S
Tb244 O252 2.427 . S
Tb244 O253 2.513 . S
Tb244 O254 2.453 . S
Tb244 O255 2.596 . S
Tb244 O256 2.374 . S
O245 Tb242 2.453 . S
O245 C261 1.245 . S
O246 Tb242 2.596 . S
O246 Tb244 2.343 . S
O246 C261 1.259 . S
O247 Tb242 2.374 . S
O247 C243 1.251 . S
C248 O252 1.275 . S
C248 O253 1.246 . S
O249 C243 1.263 . S
O249 Tb244 2.353 . S
C250 O254 1.245 . S
C250 O255 1.259 . S
C251 O256 1.250 . S
C251 O257 1.263 . S
O252 Tb244 2.427 . S
O252 C248 1.275 . S
O253 Tb244 2.513 . S
O253 C248 1.246 . S
O254 Tb244 2.453 . S
O254 C250 1.245 . S
O255 Tb242 2.343 . S
O255 Tb244 2.596 . S
O255 C250 1.259 . S
O256 Tb244 2.374 . S
O256 C251 1.250 . S
O257 Tb242 2.353 . S
O257 C251 1.263 . S
C258 O259 1.275 . S
C258 O260 1.246 . S
O259 Tb242 2.427 . S
O259 C258 1.275 . S
O260 Tb242 2.513 . S
O260 C258 1.246 . S
C261 O245 1.245 . S
C261 O246 1.259 . S
Tb262 O265 2.453 . S
Tb262 O266 2.596 . S
Tb262 O267 2.374 . S
Tb262 O275 2.343 . S
Tb262 O277 2.353 . S
Tb262 O279 2.427 . S
Tb262 O280 2.513 . S
C263 O267 1.251 . S
C263 O269 1.263 . S
Tb264 O266 2.343 . S
Tb264 O269 2.353 . S
Tb264 O272 2.427 . S
Tb264 O273 2.513 . S
Tb264 O274 2.453 . S
Tb264 O275 2.596 . S
Tb264 O276 2.374 . S
O265 Tb262 2.453 . S
O265 C281 1.245 . S
O266 Tb262 2.596 . S
O266 Tb264 2.343 . S
O266 C281 1.259 . S
O267 Tb262 2.374 . S
O267 C263 1.251 . S
C268 O272 1.275 . S
C268 O273 1.246 . S
O269 C263 1.263 . S
O269 Tb264 2.353 . S
C270 O274 1.245 . S
C270 O275 1.259 . S
C271 O276 1.250 . S
C271 O277 1.263 . S
O272 Tb264 2.427 . S
O272 C268 1.275 . S
O273 Tb264 2.513 . S
O273 C268 1.246 . S
O274 Tb264 2.453 . S
O274 C270 1.245 . S
O275 Tb262 2.343 . S
O275 Tb264 2.596 . S
O275 C270 1.259 . S
O276 Tb264 2.374 . S
O276 C271 1.250 . S
O277 Tb262 2.353 . S
O277 C271 1.263 . S
C278 O279 1.275 . S
C278 O280 1.246 . S
O279 Tb262 2.427 . S
O279 C278 1.275 . S
O280 Tb262 2.513 . S
O280 C278 1.246 . S
C281 O265 1.245 . S
C281 O266 1.259 . S
Tb282 O285 2.453 . S
Tb282 O286 2.596 . S
Tb282 O287 2.374 . S
Tb282 O295 2.343 . S
Tb282 O297 2.353 . S
Tb282 O299 2.427 . S
Tb282 O300 2.513 . S
C283 O287 1.251 . S
C283 O289 1.263 . S
Tb284 O286 2.343 . S
Tb284 O289 2.353 . S
Tb284 O292 2.427 . S
Tb284 O293 2.513 . S
Tb284 O294 2.453 . S
Tb284 O295 2.596 . S
Tb284 O296 2.374 . S
O285 Tb282 2.453 . S
O285 C301 1.245 . S
O286 Tb282 2.596 . S
O286 Tb284 2.343 . S
O286 C301 1.259 . S
O287 Tb282 2.374 . S
O287 C283 1.251 . S
C288 O292 1.275 . S
C288 O293 1.246 . S
O289 C283 1.263 . S
O289 Tb284 2.353 . S
C290 O294 1.245 . S
C290 O295 1.259 . S
C291 O296 1.250 . S
C291 O297 1.263 . S
O292 Tb284 2.427 . S
O292 C288 1.275 . S
O293 Tb284 2.513 . S
O293 C288 1.246 . S
O294 Tb284 2.453 . S
O294 C290 1.245 . S
O295 Tb282 2.343 . S
O295 Tb284 2.596 . S
O295 C290 1.259 . S
O296 Tb284 2.374 . S
O296 C291 1.250 . S
O297 Tb282 2.353 . S
O297 C291 1.263 . S
C298 O299 1.275 . S
C298 O300 1.246 . S
O299 Tb282 2.427 . S
O299 C298 1.275 . S
O300 Tb282 2.513 . S
O300 C298 1.246 . S
C301 O285 1.245 . S
C301 O286 1.259 . S
Tb302 O305 2.453 . S
Tb302 O306 2.596 . S
Tb302 O307 2.374 . S
Tb302 O315 2.343 . S
Tb302 O317 2.353 . S
Tb302 O319 2.427 . S
Tb302 O320 2.513 . S
C303 O307 1.251 . S
C303 O309 1.263 . S
Tb304 O306 2.343 . S
Tb304 O309 2.353 . S
Tb304 O312 2.427 . S
Tb304 O313 2.513 . S
Tb304 O314 2.453 . S
Tb304 O315 2.596 . S
Tb304 O316 2.374 . S
O305 Tb302 2.453 . S
O305 C321 1.245 . S
O306 Tb302 2.596 . S
O306 Tb304 2.343 . S
O306 C321 1.259 . S
O307 Tb302 2.374 . S
O307 C303 1.251 . S
C308 O312 1.275 . S
C308 O313 1.246 . S
O309 C303 1.263 . S
O309 Tb304 2.353 . S
C310 O314 1.245 . S
C310 O315 1.259 . S
C311 O316 1.250 . S
C311 O317 1.263 . S
O312 Tb304 2.427 . S
O312 C308 1.275 . S
O313 Tb304 2.513 . S
O313 C308 1.246 . S
O314 Tb304 2.453 . S
O314 C310 1.245 . S
O315 Tb302 2.343 . S
O315 Tb304 2.596 . S
O315 C310 1.259 . S
O316 Tb304 2.374 . S
O316 C311 1.250 . S
O317 Tb302 2.353 . S
O317 C311 1.263 . S
C318 O319 1.275 . S
C318 O320 1.246 . S
O319 Tb302 2.427 . S
O319 C318 1.275 . S
O320 Tb302 2.513 . S
O320 C318 1.246 . S
C321 O305 1.245 . S
C321 O306 1.259 . S
Tb322 O325 2.453 . S
Tb322 O326 2.596 . S
Tb322 O327 2.374 . S
Tb322 O335 2.343 . S
Tb322 O337 2.353 . S
Tb322 O339 2.427 . S
Tb322 O340 2.513 . S
C323 O327 1.251 . S
C323 O329 1.263 . S
Tb324 O326 2.343 . S
Tb324 O329 2.353 . S
Tb324 O332 2.427 . S
Tb324 O333 2.513 . S
Tb324 O334 2.453 . S
Tb324 O335 2.596 . S
Tb324 O336 2.374 . S
O325 Tb322 2.453 . S
O325 C341 1.245 . S
O326 Tb322 2.596 . S
O326 Tb324 2.343 . S
O326 C341 1.259 . S
O327 Tb322 2.374 . S
O327 C323 1.251 . S
C328 O332 1.275 . S
C328 O333 1.246 . S
O329 C323 1.263 . S
O329 Tb324 2.353 . S
C330 O334 1.245 . S
C330 O335 1.259 . S
C331 O336 1.250 . S
C331 O337 1.263 . S
O332 Tb324 2.427 . S
O332 C328 1.275 . S
O333 Tb324 2.513 . S
O333 C328 1.246 . S
O334 Tb324 2.453 . S
O334 C330 1.245 . S
O335 Tb322 2.343 . S
O335 Tb324 2.596 . S
O335 C330 1.259 . S
O336 Tb324 2.374 . S
O336 C331 1.250 . S
O337 Tb322 2.353 . S
O337 C331 1.263 . S
C338 O339 1.275 . S
C338 O340 1.246 . S
O339 Tb322 2.427 . S
O339 C338 1.275 . S
O340 Tb322 2.513 . S
O340 C338 1.246 . S
C341 O325 1.245 . S
C341 O326 1.259 . S
H342 C350 0.929 . S
H343 C352 0.930 . S
H344 C354 0.930 . S
H345 C357 0.929 . S
H346 C360 0.930 . S
H347 C362 0.960 . S
H348 C362 0.960 . S
H349 C362 0.960 . S
C350 H342 0.929 . S
C350 C351 1.377 . S
C350 C352 1.384 . S
C351 C350 1.377 . S
C351 C357 1.390 . S
C352 H343 0.930 . S
C352 C350 1.384 . S
C352 C353 1.372 . S
C353 C352 1.372 . S
C353 C354 1.400 . S
C353 C358 1.490 . S
C354 H344 0.930 . S
C354 C353 1.400 . S
C354 C357 1.386 . S
H355 C371 0.930 . S
H356 C372 0.931 . S
C357 H345 0.929 . S
C357 C351 1.390 . S
C357 C354 1.386 . S
C358 C353 1.490 . S
C358 C360 1.395 . S
C358 C361 1.403 . S
H359 C365 0.930 . S
C360 H346 0.930 . S
C360 C358 1.395 . S
C360 C363 1.403 . S
C361 C358 1.403 . S
C361 C362 1.524 . S
C361 C365 1.400 . S
C362 H347 0.960 . S
C362 H348 0.960 . S
C362 H349 0.960 . S
C362 C361 1.524 . S
C363 C360 1.403 . S
C363 C364 1.392 . S
C363 C367 1.495 . S
C364 C363 1.392 . S
C364 C365 1.385 . S
C364 C366 1.478 . S
C365 H359 0.930 . S
C365 C361 1.400 . S
C365 C364 1.385 . S
C366 C364 1.478 . S
C366 C368 1.381 . S
C366 C372 1.383 . S
C367 C363 1.495 . S
C367 H373 0.959 . S
C367 H374 0.961 . S
C367 H375 0.960 . S
C368 C366 1.381 . S
C368 C369 1.394 . S
C368 H376 0.930 . S
C369 C368 1.394 . S
C369 C370 1.383 . S
C369 H377 0.929 . S
C370 C369 1.383 . S
C370 C371 1.377 . S
C371 H355 0.930 . S
C371 C370 1.377 . S
C371 C372 1.379 . S
C372 H356 0.931 . S
C372 C366 1.383 . S
C372 C371 1.379 . S
H373 C367 0.959 . S
H374 C367 0.961 . S
H375 C367 0.960 . S
H376 C368 0.930 . S
H377 C369 0.929 . S
H378 C386 0.929 . S
H379 C388 0.930 . S
H380 C390 0.930 . S
H381 C393 0.929 . S
H382 C396 0.930 . S
H383 C398 0.960 . S
H384 C398 0.960 . S
H385 C398 0.960 . S
C386 H378 0.929 . S
C386 C387 1.377 . S
C386 C388 1.384 . S
C387 C386 1.377 . S
C387 C393 1.390 . S
C388 H379 0.930 . S
C388 C386 1.384 . S
C388 C389 1.372 . S
C389 C388 1.372 . S
C389 C390 1.400 . S
C389 C394 1.490 . S
C390 H380 0.930 . S
C390 C389 1.400 . S
C390 C393 1.386 . S
H391 C407 0.930 . S
H392 C408 0.931 . S
C393 H381 0.929 . S
C393 C387 1.390 . S
C393 C390 1.386 . S
C394 C389 1.490 . S
C394 C396 1.395 . S
C394 C397 1.403 . S
H395 C401 0.930 . S
C396 H382 0.930 . S
C396 C394 1.395 . S
C396 C399 1.403 . S
C397 C394 1.403 . S
C397 C398 1.524 . S
C397 C401 1.400 . S
C398 H383 0.960 . S
C398 H384 0.960 . S
C398 H385 0.960 . S
C398 C397 1.524 . S
C399 C396 1.403 . S
C399 C400 1.392 . S
C399 C403 1.495 . S
C400 C399 1.392 . S
C400 C401 1.385 . S
C400 C402 1.478 . S
C401 H395 0.930 . S
C401 C397 1.400 . S
C401 C400 1.385 . S
C402 C400 1.478 . S
C402 C404 1.381 . S
C402 C408 1.383 . S
C403 C399 1.495 . S
C403 H409 0.959 . S
C403 H410 0.961 . S
C403 H411 0.960 . S
C404 C402 1.381 . S
C404 C405 1.394 . S
C404 H412 0.930 . S
C405 C404 1.394 . S
C405 C406 1.383 . S
C405 H413 0.929 . S
C406 C405 1.383 . S
C406 C407 1.377 . S
C407 H391 0.930 . S
C407 C406 1.377 . S
C407 C408 1.379 . S
C408 H392 0.931 . S
C408 C402 1.383 . S
C408 C407 1.379 . S
H409 C403 0.959 . S
H410 C403 0.961 . S
H411 C403 0.960 . S
H412 C404 0.930 . S
H413 C405 0.929 . S
H414 C422 0.929 . S
H415 C424 0.930 . S
H416 C426 0.930 . S
H417 C429 0.929 . S
H418 C432 0.930 . S
H419 C434 0.960 . S
H420 C434 0.960 . S
H421 C434 0.960 . S
C422 H414 0.929 . S
C422 C423 1.377 . S
C422 C424 1.384 . S
C423 C422 1.377 . S
C423 C429 1.390 . S
C424 H415 0.930 . S
C424 C422 1.384 . S
C424 C425 1.372 . S
C425 C424 1.372 . S
C425 C426 1.400 . S
C425 C430 1.490 . S
C426 H416 0.930 . S
C426 C425 1.400 . S
C426 C429 1.386 . S
H427 C443 0.930 . S
H428 C444 0.931 . S
C429 H417 0.929 . S
C429 C423 1.390 . S
C429 C426 1.386 . S
C430 C425 1.490 . S
C430 C432 1.395 . S
C430 C433 1.403 . S
H431 C437 0.930 . S
C432 H418 0.930 . S
C432 C430 1.395 . S
C432 C435 1.403 . S
C433 C430 1.403 . S
C433 C434 1.524 . S
C433 C437 1.400 . S
C434 H419 0.960 . S
C434 H420 0.960 . S
C434 H421 0.960 . S
C434 C433 1.524 . S
C435 C432 1.403 . S
C435 C436 1.392 . S
C435 C439 1.495 . S
C436 C435 1.392 . S
C436 C437 1.385 . S
C436 C438 1.478 . S
C437 H431 0.930 . S
C437 C433 1.400 . S
C437 C436 1.385 . S
C438 C436 1.478 . S
C438 C440 1.381 . S
C438 C444 1.383 . S
C439 C435 1.495 . S
C439 H445 0.959 . S
C439 H446 0.961 . S
C439 H447 0.960 . S
C440 C438 1.381 . S
C440 C441 1.394 . S
C440 H448 0.930 . S
C441 C440 1.394 . S
C441 C442 1.383 . S
C441 H449 0.929 . S
C442 C441 1.383 . S
C442 C443 1.377 . S
C443 H427 0.930 . S
C443 C442 1.377 . S
C443 C444 1.379 . S
C444 H428 0.931 . S
C444 C438 1.383 . S
C444 C443 1.379 . S
H445 C439 0.959 . S
H446 C439 0.961 . S
H447 C439 0.960 . S
H448 C440 0.930 . S
H449 C441 0.929 . S
H450 C458 0.929 . S
H451 C460 0.930 . S
H452 C462 0.930 . S
H453 C465 0.929 . S
H454 C468 0.930 . S
H455 C470 0.960 . S
H456 C470 0.960 . S
H457 C470 0.960 . S
C458 H450 0.929 . S
C458 C459 1.377 . S
C458 C460 1.384 . S
C459 C458 1.377 . S
C459 C465 1.390 . S
C460 H451 0.930 . S
C460 C458 1.384 . S
C460 C461 1.372 . S
C461 C460 1.372 . S
C461 C462 1.400 . S
C461 C466 1.490 . S
C462 H452 0.930 . S
C462 C461 1.400 . S
C462 C465 1.386 . S
H463 C479 0.930 . S
H464 C480 0.931 . S
C465 H453 0.929 . S
C465 C459 1.390 . S
C465 C462 1.386 . S
C466 C461 1.490 . S
C466 C468 1.395 . S
C466 C469 1.403 . S
H467 C473 0.930 . S
C468 H454 0.930 . S
C468 C466 1.395 . S
C468 C471 1.403 . S
C469 C466 1.403 . S
C469 C470 1.524 . S
C469 C473 1.400 . S
C470 H455 0.960 . S
C470 H456 0.960 . S
C470 H457 0.960 . S
C470 C469 1.524 . S
C471 C468 1.403 . S
C471 C472 1.392 . S
C471 C475 1.495 . S
C472 C471 1.392 . S
C472 C473 1.385 . S
C472 C474 1.478 . S
C473 H467 0.930 . S
C473 C469 1.400 . S
C473 C472 1.385 . S
C474 C472 1.478 . S
C474 C476 1.381 . S
C474 C480 1.383 . S
C475 C471 1.495 . S
C475 H481 0.959 . S
C475 H482 0.961 . S
C475 H483 0.960 . S
C476 C474 1.381 . S
C476 C477 1.394 . S
C476 H484 0.930 . S
C477 C476 1.394 . S
C477 C478 1.383 . S
C477 H485 0.929 . S
C478 C477 1.383 . S
C478 C479 1.377 . S
C479 H463 0.930 . S
C479 C478 1.377 . S
C479 C480 1.379 . S
C480 H464 0.931 . S
C480 C474 1.383 . S
C480 C479 1.379 . S
H481 C475 0.959 . S
H482 C475 0.961 . S
H483 C475 0.960 . S
H484 C476 0.930 . S
H485 C477 0.929 . S
H486 C494 0.929 . S
H487 C496 0.930 . S
H488 C498 0.930 . S
H489 C501 0.929 . S
H490 C504 0.930 . S
H491 C506 0.960 . S
H492 C506 0.960 . S
H493 C506 0.960 . S
C494 H486 0.929 . S
C494 C495 1.377 . S
C494 C496 1.384 . S
C495 C494 1.377 . S
C495 C501 1.390 . S
C496 H487 0.930 . S
C496 C494 1.384 . S
C496 C497 1.372 . S
C497 C496 1.372 . S
C497 C498 1.400 . S
C497 C502 1.490 . S
C498 H488 0.930 . S
C498 C497 1.400 . S
C498 C501 1.386 . S
H499 C515 0.930 . S
H500 C516 0.931 . S
C501 H489 0.929 . S
C501 C495 1.390 . S
C501 C498 1.386 . S
C502 C497 1.490 . S
C502 C504 1.395 . S
C502 C505 1.403 . S
H503 C509 0.930 . S
C504 H490 0.930 . S
C504 C502 1.395 . S
C504 C507 1.403 . S
C505 C502 1.403 . S
C505 C506 1.524 . S
C505 C509 1.400 . S
C506 H491 0.960 . S
C506 H492 0.960 . S
C506 H493 0.960 . S
C506 C505 1.524 . S
C507 C504 1.403 . S
C507 C508 1.392 . S
C507 C511 1.495 . S
C508 C507 1.392 . S
C508 C509 1.385 . S
C508 C510 1.478 . S
C509 H503 0.930 . S
C509 C505 1.400 . S
C509 C508 1.385 . S
C510 C508 1.478 . S
C510 C512 1.381 . S
C510 C516 1.383 . S
C511 C507 1.495 . S
C511 H517 0.959 . S
C511 H518 0.961 . S
C511 H519 0.960 . S
C512 C510 1.381 . S
C512 C513 1.394 . S
C512 H520 0.930 . S
C513 C512 1.394 . S
C513 C514 1.383 . S
C513 H521 0.929 . S
C514 C513 1.383 . S
C514 C515 1.377 . S
C515 H499 0.930 . S
C515 C514 1.377 . S
C515 C516 1.379 . S
C516 H500 0.931 . S
C516 C510 1.383 . S
C516 C515 1.379 . S
H517 C511 0.959 . S
H518 C511 0.961 . S
H519 C511 0.960 . S
H520 C512 0.930 . S
H521 C513 0.929 . S
H522 C530 0.929 . S
H523 C532 0.930 . S
H524 C534 0.930 . S
H525 C537 0.929 . S
H526 C540 0.930 . S
H527 C542 0.960 . S
H528 C542 0.960 . S
H529 C542 0.960 . S
C530 H522 0.929 . S
C530 C531 1.377 . S
C530 C532 1.384 . S
C531 C530 1.377 . S
C531 C537 1.390 . S
C532 H523 0.930 . S
C532 C530 1.384 . S
C532 C533 1.372 . S
C533 C532 1.372 . S
C533 C534 1.400 . S
C533 C538 1.490 . S
C534 H524 0.930 . S
C534 C533 1.400 . S
C534 C537 1.386 . S
H535 C551 0.930 . S
H536 C552 0.931 . S
C537 H525 0.929 . S
C537 C531 1.390 . S
C537 C534 1.386 . S
C538 C533 1.490 . S
C538 C540 1.395 . S
C538 C541 1.403 . S
H539 C545 0.930 . S
C540 H526 0.930 . S
C540 C538 1.395 . S
C540 C543 1.403 . S
C541 C538 1.403 . S
C541 C542 1.524 . S
C541 C545 1.400 . S
C542 H527 0.960 . S
C542 H528 0.960 . S
C542 H529 0.960 . S
C542 C541 1.524 . S
C543 C540 1.403 . S
C543 C544 1.392 . S
C543 C547 1.495 . S
C544 C543 1.392 . S
C544 C545 1.385 . S
C544 C546 1.478 . S
C545 H539 0.930 . S
C545 C541 1.400 . S
C545 C544 1.385 . S
C546 C544 1.478 . S
C546 C548 1.381 . S
C546 C552 1.383 . S
C547 C543 1.495 . S
C547 H553 0.959 . S
C547 H554 0.961 . S
C547 H555 0.960 . S
C548 C546 1.381 . S
C548 C549 1.375 1_556 S
C548 H556 0.930 1_556 S
C549 C548 1.375 1_554 S
C549 C550 1.350 1_554 S
C549 H557 0.983 . S
C550 C549 1.350 1_556 S
C550 C551 1.377 . S
C551 H535 0.930 . S
C551 C550 1.377 . S
C551 C552 1.379 . S
C552 H536 0.931 . S
C552 C546 1.383 . S
C552 C551 1.379 . S
H553 C547 0.959 . S
H554 C547 0.961 . S
H555 C547 0.960 . S
H556 C548 0.930 1_554 S
H557 C549 0.983 . S
H558 C566 0.929 . S
H559 C568 0.930 . S
H560 C570 0.930 . S
H561 C573 0.929 . S
H562 C576 0.930 . S
H563 C578 0.960 . S
H564 C578 0.960 . S
H565 C578 0.960 . S
C566 H558 0.929 . S
C566 C567 1.377 . S
C566 C568 1.384 . S
C567 C566 1.377 . S
C567 C573 1.390 . S
C568 H559 0.930 . S
C568 C566 1.384 . S
C568 C569 1.372 . S
C569 C568 1.372 . S
C569 C570 1.400 . S
C569 C574 1.490 . S
C570 H560 0.930 . S
C570 C569 1.400 . S
C570 C573 1.386 . S
H571 C587 0.930 . S
H572 C588 0.931 . S
C573 H561 0.929 . S
C573 C567 1.390 . S
C573 C570 1.386 . S
C574 C569 1.490 . S
C574 C576 1.395 . S
C574 C577 1.403 . S
H575 C581 0.930 . S
C576 H562 0.930 . S
C576 C574 1.395 . S
C576 C579 1.403 . S
C577 C574 1.403 . S
C577 C578 1.524 . S
C577 C581 1.400 . S
C578 H563 0.960 . S
C578 H564 0.960 . S
C578 H565 0.960 . S
C578 C577 1.524 . S
C579 C576 1.403 . S
C579 C580 1.392 . S
C579 C583 1.495 . S
C580 C579 1.392 . S
C580 C581 1.385 . S
C580 C582 1.478 . S
C581 H575 0.930 . S
C581 C577 1.400 . S
C581 C580 1.385 . S
C582 C580 1.478 . S
C582 C584 1.381 . S
C582 C588 1.383 . S
C583 C579 1.495 . S
C583 H589 0.959 . S
C583 H590 0.961 . S
C583 H591 0.960 . S
C584 C582 1.381 . S
C584 C585 1.394 . S
C584 H592 0.930 . S
C585 C584 1.394 . S
C585 C586 1.383 . S
C585 H593 0.929 . S
C586 C585 1.383 . S
C586 C587 1.377 . S
C587 H571 0.930 . S
C587 C586 1.377 . S
C587 C588 1.379 . S
C588 H572 0.931 . S
C588 C582 1.383 . S
C588 C587 1.379 . S
H589 C583 0.959 . S
H590 C583 0.961 . S
H591 C583 0.960 . S
H592 C584 0.930 . S
H593 C585 0.929 . S
H594 C602 0.929 . S
H595 C604 0.930 . S
H596 C606 0.930 . S
H597 C609 0.929 . S
H598 C612 0.930 . S
H599 C614 0.960 . S
H600 C614 0.960 . S
H601 C614 0.960 . S
C602 H594 0.929 . S
C602 C603 1.377 . S
C602 C604 1.384 . S
C603 C602 1.377 . S
C603 C609 1.390 . S
C604 H595 0.930 . S
C604 C602 1.384 . S
C604 C605 1.372 . S
C605 C604 1.372 . S
C605 C606 1.400 . S
C605 C610 1.490 . S
C606 H596 0.930 . S
C606 C605 1.400 . S
C606 C609 1.386 . S
H607 C623 0.930 . S
H608 C624 0.931 . S
C609 H597 0.929 . S
C609 C603 1.390 . S
C609 C606 1.386 . S
C610 C605 1.490 . S
C610 C612 1.395 . S
C610 C613 1.403 . S
H611 C617 0.930 . S
C612 H598 0.930 . S
C612 C610 1.395 . S
C612 C615 1.403 . S
C613 C610 1.403 . S
C613 C614 1.524 . S
C613 C617 1.400 . S
C614 H599 0.960 . S
C614 H600 0.960 . S
C614 H601 0.960 . S
C614 C613 1.524 . S
C615 C612 1.403 . S
C615 C616 1.392 . S
C615 C619 1.495 . S
C616 C615 1.392 . S
C616 C617 1.385 . S
C616 C618 1.478 . S
C617 H611 0.930 . S
C617 C613 1.400 . S
C617 C616 1.385 . S
C618 C616 1.478 . S
C618 C620 1.381 . S
C618 C624 1.383 . S
C619 C615 1.495 . S
C619 H625 0.959 . S
C619 H626 0.961 . S
C619 H627 0.960 . S
C620 C618 1.381 . S
C620 C621 1.394 . S
C620 H628 0.930 . S
C621 C620 1.394 . S
C621 C622 1.383 . S
C621 H629 0.929 . S
C622 C621 1.383 . S
C622 C623 1.377 . S
C623 H607 0.930 . S
C623 C622 1.377 . S
C623 C624 1.379 . S
C624 H608 0.931 . S
C624 C618 1.383 . S
C624 C623 1.379 . S
H625 C619 0.959 . S
H626 C619 0.961 . S
H627 C619 0.960 . S
H628 C620 0.930 . S
H629 C621 0.929 . S
H630 C638 0.929 . S
H631 C640 0.930 . S
H632 C642 0.930 . S
H633 C645 0.929 . S
H634 C648 0.930 . S
H635 C650 0.960 . S
H636 C650 0.960 . S
H637 C650 0.960 . S
C638 H630 0.929 . S
C638 C639 1.377 . S
C638 C640 1.384 . S
C639 C638 1.377 . S
C639 C645 1.390 . S
C640 H631 0.930 . S
C640 C638 1.384 . S
C640 C641 1.372 . S
C641 C640 1.372 . S
C641 C642 1.400 . S
C641 C646 1.490 . S
C642 H632 0.930 . S
C642 C641 1.400 . S
C642 C645 1.386 . S
H643 C659 0.930 1_554 S
H644 C660 0.931 . S
C645 H633 0.929 . S
C645 C639 1.390 . S
C645 C642 1.386 . S
C646 C641 1.490 . S
C646 C648 1.395 . S
C646 C649 1.403 . S
H647 C653 0.930 . S
C648 H634 0.930 . S
C648 C646 1.395 . S
C648 C651 1.403 . S
C649 C646 1.403 . S
C649 C650 1.524 . S
C649 C653 1.400 . S
C650 H635 0.960 . S
C650 H636 0.960 . S
C650 H637 0.960 . S
C650 C649 1.524 . S
C651 C648 1.403 . S
C651 C652 1.392 . S
C651 C655 1.495 . S
C652 C651 1.392 . S
C652 C653 1.385 . S
C652 C654 1.478 . S
C653 H647 0.930 . S
C653 C649 1.400 . S
C653 C652 1.385 . S
C654 C652 1.478 . S
C654 C656 1.381 . S
C654 C660 1.383 . S
C655 C651 1.495 . S
C655 H661 0.959 . S
C655 H662 0.961 . S
C655 H663 0.960 . S
C656 C654 1.381 . S
C656 C657 1.394 . S
C656 H664 0.930 . S
C657 C656 1.394 . S
C657 C658 1.383 . S
C657 H665 0.929 . S
C658 C657 1.383 . S
C658 C659 1.377 . S
C659 H643 0.930 1_556 S
C659 C658 1.377 . S
C659 C660 1.379 . S
C660 H644 0.931 . S
C660 C654 1.383 . S
C660 C659 1.379 . S
H661 C655 0.959 . S
H662 C655 0.961 . S
H663 C655 0.960 . S
H664 C656 0.930 . S
H665 C657 0.929 . S
H666 C674 0.929 . S
H667 C676 0.930 . S
H668 C678 0.930 . S
H669 C681 0.929 . S
H670 C684 0.930 . S
H671 C686 0.960 . S
H672 C686 0.960 . S
H673 C686 0.960 . S
C674 H666 0.929 . S
C674 C675 1.377 . S
C674 C676 1.384 . S
C675 C674 1.377 . S
C675 C681 1.390 . S
C676 H667 0.930 . S
C676 C674 1.384 . S
C676 C677 1.372 . S
C677 C676 1.372 . S
C677 C678 1.400 . S
C677 C682 1.490 . S
C678 H668 0.930 . S
C678 C677 1.400 . S
C678 C681 1.386 . S
H679 C695 0.930 . S
H680 C696 0.931 . S
C681 H669 0.929 . S
C681 C675 1.390 . S
C681 C678 1.386 . S
C682 C677 1.490 . S
C682 C684 1.395 . S
C682 C685 1.403 . S
H683 C689 0.930 . S
C684 H670 0.930 . S
C684 C682 1.395 . S
C684 C687 1.403 . S
C685 C682 1.403 . S
C685 C686 1.524 . S
C685 C689 1.400 . S
C686 H671 0.960 . S
C686 H672 0.960 . S
C686 H673 0.960 . S
C686 C685 1.524 . S
C687 C684 1.403 . S
C687 C688 1.392 . S
C687 C691 1.495 . S
C688 C687 1.392 . S
C688 C689 1.385 . S
C688 C690 1.478 . S
C689 H683 0.930 . S
C689 C685 1.400 . S
C689 C688 1.385 . S
C690 C688 1.478 . S
C690 C692 1.381 . S
C690 C696 1.383 . S
C691 C687 1.495 . S
C691 H697 0.959 . S
C691 H698 0.961 . S
C691 H699 0.960 . S
C692 C690 1.381 . S
C692 C693 1.394 . S
C692 H700 0.930 . S
C693 C692 1.394 . S
C693 C694 1.383 . S
C693 H701 0.929 . S
C694 C693 1.383 . S
C694 C695 1.377 . S
C695 H679 0.930 . S
C695 C694 1.377 . S
C695 C696 1.379 . S
C696 H680 0.931 . S
C696 C690 1.383 . S
C696 C695 1.379 . S
H697 C691 0.959 . S
H698 C691 0.961 . S
H699 C691 0.960 . S
H700 C692 0.930 . S
H701 C693 0.929 . S
H702 C710 0.929 . S
H703 C712 0.930 . S
H704 C714 0.930 . S
H705 C717 0.929 . S
H706 C720 0.930 . S
H707 C722 0.960 . S
H708 C722 0.960 . S
H709 C722 0.960 . S
C710 H702 0.929 . S
C710 C711 1.377 . S
C710 C712 1.384 . S
C711 C710 1.377 . S
C711 C717 1.390 . S
C712 H703 0.930 . S
C712 C710 1.384 . S
C712 C713 1.372 . S
C713 C712 1.372 . S
C713 C714 1.400 . S
C713 C718 1.490 . S
C714 H704 0.930 . S
C714 C713 1.400 . S
C714 C717 1.386 . S
H715 C731 0.930 . S
H716 C732 0.931 . S
C717 H705 0.929 . S
C717 C711 1.390 . S
C717 C714 1.386 . S
C718 C713 1.490 . S
C718 C720 1.395 . S
C718 C721 1.403 . S
H719 C725 0.930 . S
C720 H706 0.930 . S
C720 C718 1.395 . S
C720 C723 1.403 . S
C721 C718 1.403 . S
C721 C722 1.524 . S
C721 C725 1.400 . S
C722 H707 0.960 . S
C722 H708 0.960 . S
C722 H709 0.960 . S
C722 C721 1.524 . S
C723 C720 1.403 . S
C723 C724 1.392 . S
C723 C727 1.495 . S
C724 C723 1.392 . S
C724 C725 1.385 . S
C724 C726 1.478 . S
C725 H719 0.930 . S
C725 C721 1.400 . S
C725 C724 1.385 . S
C726 C724 1.478 . S
C726 C728 1.381 . S
C726 C732 1.383 . S
C727 C723 1.495 . S
C727 H733 0.959 . S
C727 H734 0.961 . S
C727 H735 0.960 . S
C728 C726 1.381 . S
C728 C729 1.394 . S
C728 H736 0.930 . S
C729 C728 1.394 . S
C729 C730 1.383 . S
C729 H737 0.929 . S
C730 C729 1.383 . S
C730 C731 1.377 . S
C731 H715 0.930 . S
C731 C730 1.377 . S
C731 C732 1.379 . S
C732 H716 0.931 . S
C732 C726 1.383 . S
C732 C731 1.379 . S
H733 C727 0.959 . S
H734 C727 0.961 . S
H735 C727 0.960 . S
H736 C728 0.930 . S
H737 C729 0.929 . S
H738 C746 0.929 . S
H739 C748 0.930 . S
H740 C750 0.930 . S
H741 C753 0.929 . S
H742 C756 0.930 . S
H743 C758 0.960 . S
H744 C758 0.960 . S
H745 C758 0.960 . S
C746 H738 0.929 . S
C746 C747 1.377 . S
C746 C748 1.384 . S
C747 C746 1.377 . S
C747 C753 1.390 . S
C748 H739 0.930 . S
C748 C746 1.384 . S
C748 C749 1.372 . S
C749 C748 1.372 . S
C749 C750 1.400 . S
C749 C754 1.490 . S
C750 H740 0.930 . S
C750 C749 1.400 . S
C750 C753 1.386 . S
H751 C767 0.930 . S
H752 C768 0.931 . S
C753 H741 0.929 . S
C753 C747 1.390 . S
C753 C750 1.386 . S
C754 C749 1.490 . S
C754 C756 1.395 . S
C754 C757 1.403 . S
H755 C761 0.930 . S
C756 H742 0.930 . S
C756 C754 1.395 . S
C756 C759 1.403 . S
C757 C754 1.403 . S
C757 C758 1.524 . S
C757 C761 1.400 . S
C758 H743 0.960 . S
C758 H744 0.960 . S
C758 H745 0.960 . S
C758 C757 1.524 . S
C759 C756 1.403 . S
C759 C760 1.392 . S
C759 C763 1.495 . S
C760 C759 1.392 . S
C760 C761 1.385 . S
C760 C762 1.478 . S
C761 H755 0.930 . S
C761 C757 1.400 . S
C761 C760 1.385 . S
C762 C760 1.478 . S
C762 C764 1.381 . S
C762 C768 1.383 . S
C763 C759 1.495 . S
C763 H769 0.959 . S
C763 H770 0.961 . S
C763 H771 0.960 . S
C764 C762 1.381 . S
C764 C765 1.394 . S
C764 H772 0.930 . S
C765 C764 1.394 . S
C765 C766 1.383 . S
C765 H773 0.942 . S
C766 C765 1.383 . S
C766 C767 1.377 . S
C767 H751 0.930 . S
C767 C766 1.377 . S
C767 C768 1.379 . S
C768 H752 0.931 . S
C768 C762 1.383 . S
C768 C767 1.379 . S
H769 C763 0.959 . S
H770 C763 0.961 . S
H771 C763 0.960 . S
H772 C764 0.930 . S
H773 C765 0.942 . S
H774 C782 0.929 . S
H775 C784 0.930 . S
H776 C786 0.930 . S
H777 C789 0.929 . S
H778 C792 0.930 . S
H779 C794 0.960 . S
H780 C794 0.960 . S
H781 C794 0.960 . S
C782 H774 0.929 . S
C782 C783 1.377 . S
C782 C784 1.384 . S
C783 C782 1.377 . S
C783 C789 1.390 . S
C784 H775 0.930 . S
C784 C782 1.384 . S
C784 C785 1.372 . S
C785 C784 1.372 . S
C785 C786 1.400 . S
C785 C790 1.490 . S
C786 H776 0.930 . S
C786 C785 1.400 . S
C786 C789 1.386 . S
H787 C803 0.930 . S
H788 C804 0.931 . S
C789 H777 0.929 . S
C789 C783 1.390 . S
C789 C786 1.386 . S
C790 C785 1.490 . S
C790 C792 1.395 . S
C790 C793 1.403 . S
H791 C797 0.930 . S
C792 H778 0.930 . S
C792 C790 1.395 . S
C792 C795 1.403 1_655 S
C793 C790 1.403 . S
C793 C794 1.524 . S
C793 C797 1.400 1_655 S
C794 H779 0.960 . S
C794 H780 0.960 . S
C794 H781 0.960 . S
C794 C793 1.524 . S
C795 C792 1.403 1_455 S
C795 C796 1.392 . S
C795 C799 1.495 . S
C796 C795 1.392 . S
C796 C797 1.385 . S
C796 C798 1.478 . S
C797 H791 0.930 . S
C797 C793 1.400 1_455 S
C797 C796 1.385 . S
C798 C796 1.478 . S
C798 C800 1.381 . S
C798 C804 1.383 . S
C799 C795 1.495 . S
C799 H805 0.959 . S
C799 H806 0.961 . S
C799 H807 0.960 . S
C800 C798 1.381 . S
C800 C801 1.394 . S
C800 H808 0.930 . S
C801 C800 1.394 . S
C801 C802 1.383 . S
C801 H809 0.929 . S
C802 C801 1.383 . S
C802 C803 1.377 . S
C803 H787 0.930 . S
C803 C802 1.377 . S
C803 C804 1.379 . S
C804 H788 0.931 . S
C804 C798 1.383 . S
C804 C803 1.379 . S
H805 C799 0.959 . S
H806 C799 0.961 . S
H807 C799 0.960 . S
H808 C800 0.930 . S
H809 C801 0.929 . S
H810 C818 0.929 . S
H811 C820 0.930 . S
H812 C822 0.930 . S
H813 C825 0.929 . S
H814 C828 0.930 . S
H815 C830 0.960 . S
H816 C830 0.960 . S
H817 C830 0.960 . S
C818 H810 0.929 . S
C818 C819 1.377 . S
C818 C820 1.384 . S
C819 C818 1.377 . S
C819 C825 1.390 . S
C820 H811 0.930 . S
C820 C818 1.384 . S
C820 C821 1.372 . S
C821 C820 1.372 . S
C821 C822 1.400 . S
C821 C826 1.490 . S
C822 H812 0.930 . S
C822 C821 1.400 . S
C822 C825 1.386 . S
H823 C839 0.930 . S
H824 C840 0.931 . S
C825 H813 0.929 . S
C825 C819 1.390 . S
C825 C822 1.386 . S
C826 C821 1.490 . S
C826 C828 1.395 . S
C826 C829 1.403 . S
H827 C833 0.930 . S
C828 H814 0.930 . S
C828 C826 1.395 . S
C828 C831 1.403 . S
C829 C826 1.403 . S
C829 C830 1.524 . S
C829 C833 1.400 . S
C830 H815 0.960 . S
C830 H816 0.960 . S
C830 H817 0.960 . S
C830 C829 1.524 . S
C831 C828 1.403 . S
C831 C832 1.392 . S
C831 C835 1.495 . S
C832 C831 1.392 . S
C832 C833 1.385 . S
C832 C834 1.478 . S
C833 H827 0.930 . S
C833 C829 1.400 . S
C833 C832 1.385 . S
C834 C832 1.478 . S
C834 C836 1.381 . S
C834 C840 1.383 . S
C835 C831 1.495 . S
C835 H841 0.959 . S
C835 H842 0.961 . S
C835 H843 0.960 . S
C836 C834 1.381 . S
C836 C837 1.394 . S
C836 H844 0.930 . S
C837 C836 1.394 . S
C837 C838 1.383 . S
C837 H845 0.929 . S
C838 C837 1.383 . S
C838 C839 1.377 . S
C839 H823 0.930 . S
C839 C838 1.377 . S
C839 C840 1.379 . S
C840 H824 0.931 . S
C840 C834 1.383 . S
C840 C839 1.379 . S
H841 C835 0.959 . S
H842 C835 0.961 . S
H843 C835 0.960 . S
H844 C836 0.930 . S
H845 C837 0.929 . S
H846 C854 0.929 . S
H847 C856 0.930 . S
H848 C858 0.930 . S
H849 C861 0.929 . S
H850 C864 0.930 . S
H851 C866 0.960 1_565 S
H852 C866 0.960 . S
H853 C866 0.960 . S
C854 H846 0.929 . S
C854 C855 1.377 . S
C854 C856 1.384 . S
C855 C854 1.377 . S
C855 C861 1.390 . S
C856 H847 0.930 . S
C856 C854 1.384 . S
C856 C857 1.372 . S
C857 C856 1.372 . S
C857 C858 1.400 . S
C857 C862 1.490 . S
C858 H848 0.930 . S
C858 C857 1.400 . S
C858 C861 1.386 . S
H859 C875 0.930 . S
H860 C876 0.931 . S
C861 H849 0.929 . S
C861 C855 1.390 . S
C861 C858 1.386 . S
C862 C857 1.490 . S
C862 C864 1.395 . S
C862 C865 1.403 . S
H863 C869 0.930 . S
C864 H850 0.930 . S
C864 C862 1.395 . S
C864 C867 1.403 1_545 S
C865 C862 1.403 . S
C865 C866 1.524 . S
C865 C869 1.400 1_545 S
C866 H851 0.960 1_545 S
C866 H852 0.960 . S
C866 H853 0.960 . S
C866 C865 1.524 . S
C867 C864 1.403 1_565 S
C867 C868 1.392 . S
C867 C871 1.495 . S
C868 C867 1.392 . S
C868 C869 1.385 . S
C868 C870 1.478 . S
C869 H863 0.930 . S
C869 C865 1.400 1_565 S
C869 C868 1.385 . S
C870 C868 1.478 . S
C870 C872 1.381 . S
C870 C876 1.383 . S
C871 C867 1.495 . S
C871 H877 0.959 1_565 S
C871 H878 0.961 . S
C871 H879 0.960 . S
C872 C870 1.381 . S
C872 C873 1.394 . S
C872 H880 0.930 . S
C873 C872 1.394 . S
C873 C874 1.383 . S
C873 H881 0.929 . S
C874 C873 1.383 . S
C874 C875 1.377 . S
C875 H859 0.930 . S
C875 C874 1.377 . S
C875 C876 1.379 . S
C876 H860 0.931 . S
C876 C870 1.383 . S
C876 C875 1.379 . S
H877 C871 0.959 1_545 S
H878 C871 0.961 . S
H879 C871 0.960 . S
H880 C872 0.930 . S
H881 C873 0.929 . S
H882 C890 0.929 . S
H883 C892 0.930 . S
H884 C894 0.930 . S
H885 C897 0.929 . S
H886 C900 0.930 . S
H887 C902 0.960 . S
H888 C902 0.960 . S
H889 C902 0.960 . S
C890 H882 0.929 . S
C890 C891 1.377 . S
C890 C892 1.384 . S
C891 C890 1.377 . S
C891 C897 1.390 . S
C892 H883 0.930 . S
C892 C890 1.384 . S
C892 C893 1.372 . S
C893 C892 1.372 . S
C893 C894 1.400 . S
C893 C898 1.490 . S
C894 H884 0.930 . S
C894 C893 1.400 . S
C894 C897 1.386 . S
H895 C911 0.930 . S
H896 C912 0.931 . S
C897 H885 0.929 . S
C897 C891 1.390 . S
C897 C894 1.386 . S
C898 C893 1.490 . S
C898 C900 1.395 . S
C898 C901 1.403 . S
H899 C905 0.930 . S
C900 H886 0.930 . S
C900 C898 1.395 . S
C900 C903 1.403 . S
C901 C898 1.403 . S
C901 C902 1.524 . S
C901 C905 1.400 . S
C902 H887 0.960 . S
C902 H888 0.960 . S
C902 H889 0.960 . S
C902 C901 1.524 . S
C903 C900 1.403 . S
C903 C904 1.392 . S
C903 C907 1.495 . S
C904 C903 1.392 . S
C904 C905 1.385 . S
C904 C906 1.478 . S
C905 H899 0.930 . S
C905 C901 1.400 . S
C905 C904 1.385 . S
C906 C904 1.478 . S
C906 C908 1.381 . S
C906 C912 1.383 . S
C907 C903 1.495 . S
C907 H913 0.959 . S
C907 H914 0.961 . S
C907 H915 0.960 . S
C908 C906 1.381 . S
C908 C909 1.394 . S
C908 H916 0.930 . S
C909 C908 1.394 . S
C909 C910 1.383 . S
C909 H917 0.929 . S
C910 C909 1.383 . S
C910 C911 1.377 . S
C911 H895 0.930 . S
C911 C910 1.377 . S
C911 C912 1.379 . S
C912 H896 0.931 . S
C912 C906 1.383 . S
C912 C911 1.379 . S
H913 C907 0.959 . S
H914 C907 0.961 . S
H915 C907 0.960 . S
H916 C908 0.930 . S
H917 C909 0.929 . S
H918 C926 0.929 . S
H919 C928 0.930 . S
H920 C930 0.930 . S
H921 C933 0.929 . S
H922 C936 0.930 . S
H923 C938 0.960 . S
H924 C938 0.960 . S
H925 C938 0.960 . S
C926 H918 0.929 . S
C926 C927 1.377 . S
C926 C928 1.384 . S
C927 C926 1.377 . S
C927 C933 1.390 . S
C928 H919 0.930 . S
C928 C926 1.384 . S
C928 C929 1.372 . S
C929 C928 1.372 . S
C929 C930 1.400 . S
C929 C934 1.490 . S
C930 H920 0.930 . S
C930 C929 1.400 . S
C930 C933 1.386 . S
H931 C947 0.930 . S
H932 C948 0.931 . S
C933 H921 0.929 . S
C933 C927 1.390 . S
C933 C930 1.386 . S
C934 C929 1.490 . S
C934 C936 1.395 . S
C934 C937 1.403 . S
H935 C941 0.930 . S
C936 H922 0.930 . S
C936 C934 1.395 . S
C936 C939 1.403 . S
C937 C934 1.403 . S
C937 C938 1.524 . S
C937 C941 1.400 . S
C938 H923 0.960 . S
C938 H924 0.960 . S
C938 H925 0.960 . S
C938 C937 1.524 . S
C939 C936 1.403 . S
C939 C940 1.392 . S
C939 C943 1.495 . S
C940 C939 1.392 . S
C940 C941 1.385 . S
C940 C942 1.478 . S
C941 H935 0.930 . S
C941 C937 1.400 . S
C941 C940 1.385 . S
C942 C940 1.478 . S
C942 C944 1.381 . S
C942 C948 1.383 . S
C943 C939 1.495 . S
C943 H949 0.959 . S
C943 H950 0.961 . S
C943 H951 0.960 . S
C944 C942 1.381 . S
C944 C945 1.394 . S
C944 H952 0.930 . S
C945 C944 1.394 . S
C945 C946 1.383 . S
C945 H953 0.929 . S
C946 C945 1.383 . S
C946 C947 1.377 . S
C947 H931 0.930 . S
C947 C946 1.377 . S
C947 C948 1.379 . S
C948 H932 0.931 . S
C948 C942 1.383 . S
C948 C947 1.379 . S
H949 C943 0.959 . S
H950 C943 0.961 . S
H951 C943 0.960 . S
H952 C944 0.930 . S
H953 C945 0.929 . S
H954 C962 0.929 . S
H955 C964 0.930 . S
H956 C966 0.930 . S
H957 C969 0.929 . S
H958 C972 0.930 . S
H959 C974 0.960 . S
H960 C974 0.960 . S
H961 C974 0.960 . S
C962 H954 0.929 . S
C962 C963 1.377 . S
C962 C964 1.384 . S
C963 C962 1.377 . S
C963 C969 1.390 . S
C964 H955 0.930 . S
C964 C962 1.384 . S
C964 C965 1.372 . S
C965 C964 1.372 . S
C965 C966 1.400 . S
C965 C970 1.490 . S
C966 H956 0.930 . S
C966 C965 1.400 . S
C966 C969 1.386 . S
H967 C983 0.930 . S
H968 C984 0.931 . S
C969 H957 0.929 . S
C969 C963 1.390 . S
C969 C966 1.386 . S
C970 C965 1.490 . S
C970 C972 1.395 . S
C970 C973 1.403 . S
H971 C977 0.930 . S
C972 H958 0.930 . S
C972 C970 1.395 . S
C972 C975 1.403 . S
C973 C970 1.403 . S
C973 C974 1.524 . S
C973 C977 1.400 . S
C974 H959 0.960 . S
C974 H960 0.960 . S
C974 H961 0.960 . S
C974 C973 1.524 . S
C975 C972 1.403 . S
C975 C976 1.392 . S
C975 C979 1.495 . S
C976 C975 1.392 . S
C976 C977 1.385 . S
C976 C978 1.478 . S
C977 H971 0.930 . S
C977 C973 1.400 . S
C977 C976 1.385 . S
C978 C976 1.478 . S
C978 C980 1.381 . S
C978 C984 1.383 . S
C979 C975 1.495 . S
C979 H985 0.959 . S
C979 H986 0.961 . S
C979 H987 0.960 . S
C980 C978 1.381 . S
C980 C981 1.394 . S
C980 H988 0.930 . S
C981 C980 1.394 . S
C981 C982 1.383 . S
C981 H989 0.929 . S
C982 C981 1.383 . S
C982 C983 1.377 . S
C983 H967 0.930 . S
C983 C982 1.377 . S
C983 C984 1.379 . S
C984 H968 0.931 . S
C984 C978 1.383 . S
C984 C983 1.379 . S
H985 C979 0.959 . S
H986 C979 0.961 . S
H987 C979 0.960 . S
H988 C980 0.930 . S
H989 C981 0.929 . S
H990 C998 0.929 . S
H991 C1000 0.930 . S
H992 C1002 0.930 . S
H993 C1005 0.929 . S
H994 C1008 0.930 . S
H995 C1010 0.960 . S
H996 C1010 0.960 . S
H997 C1010 0.960 . S
C998 H990 0.929 . S
C998 C999 1.377 . S
C998 C1000 1.384 . S
C999 C998 1.377 . S
C999 C1005 1.390 . S
C1000 H991 0.930 . S
C1000 C998 1.384 . S
C1000 C1001 1.372 . S
C1001 C1000 1.372 . S
C1001 C1002 1.400 . S
C1001 C1006 1.490 . S
C1002 H992 0.930 . S
C1002 C1001 1.400 . S
C1002 C1005 1.386 . S
H1003 C1019 0.930 . S
H1004 C1020 0.931 . S
C1005 H993 0.929 . S
C1005 C999 1.390 . S
C1005 C1002 1.386 . S
C1006 C1001 1.490 . S
C1006 C1008 1.395 . S
C1006 C1009 1.403 . S
H1007 C1013 0.930 . S
C1008 H994 0.930 . S
C1008 C1006 1.395 . S
C1008 C1011 1.403 . S
C1009 C1006 1.403 . S
C1009 C1010 1.524 . S
C1009 C1013 1.400 . S
C1010 H995 0.960 . S
C1010 H996 0.960 . S
C1010 H997 0.960 . S
C1010 C1009 1.524 . S
C1011 C1008 1.403 . S
C1011 C1012 1.392 . S
C1011 C1015 1.495 . S
C1012 C1011 1.392 . S
C1012 C1013 1.385 . S
C1012 C1014 1.478 . S
C1013 H1007 0.930 . S
C1013 C1009 1.400 . S
C1013 C1012 1.385 . S
C1014 C1012 1.478 . S
C1014 C1016 1.381 . S
C1014 C1020 1.383 . S
C1015 C1011 1.495 . S
C1015 H1021 0.959 . S
C1015 H1022 0.961 . S
C1015 H1023 0.960 . S
C1016 C1014 1.381 . S
C1016 C1017 1.394 . S
C1016 H1024 0.930 . S
C1017 C1016 1.394 . S
C1017 C1018 1.383 . S
C1017 H1025 0.929 . S
C1018 C1017 1.383 . S
C1018 C1019 1.377 . S
C1019 H1003 0.930 . S
C1019 C1018 1.377 . S
C1019 C1020 1.379 . S
C1020 H1004 0.931 . S
C1020 C1014 1.383 . S
C1020 C1019 1.379 . S
H1021 C1015 0.959 . S
H1022 C1015 0.961 . S
H1023 C1015 0.960 . S
H1024 C1016 0.930 . S
H1025 C1017 0.929 . S
H1026 C1034 0.929 . S
H1027 C1036 0.930 . S
H1028 C1038 0.930 . S
H1029 C1041 0.929 . S
H1030 C1044 0.930 . S
H1031 C1046 0.960 . S
H1032 C1046 0.960 . S
H1033 C1046 0.960 . S
C1034 H1026 0.929 . S
C1034 C1035 1.377 . S
C1034 C1036 1.384 . S
C1035 C1034 1.377 . S
C1035 C1041 1.390 . S
C1036 H1027 0.930 . S
C1036 C1034 1.384 . S
C1036 C1037 1.372 . S
C1037 C1036 1.372 . S
C1037 C1038 1.400 . S
C1037 C1042 1.490 . S
C1038 H1028 0.930 . S
C1038 C1037 1.400 . S
C1038 C1041 1.386 . S
H1039 C1055 0.930 . S
H1040 C1056 0.931 . S
C1041 H1029 0.929 . S
C1041 C1035 1.390 . S
C1041 C1038 1.386 . S
C1042 C1037 1.490 . S
C1042 C1044 1.395 . S
C1042 C1045 1.403 . S
H1043 C1049 0.930 . S
C1044 H1030 0.930 . S
C1044 C1042 1.395 . S
C1044 C1047 1.403 . S
C1045 C1042 1.403 . S
C1045 C1046 1.524 . S
C1045 C1049 1.400 . S
C1046 H1031 0.960 . S
C1046 H1032 0.960 . S
C1046 H1033 0.960 . S
C1046 C1045 1.524 . S
C1047 C1044 1.403 . S
C1047 C1048 1.392 . S
C1047 C1051 1.495 . S
C1048 C1047 1.392 . S
C1048 C1049 1.385 . S
C1048 C1050 1.478 . S
C1049 H1043 0.930 . S
C1049 C1045 1.400 . S
C1049 C1048 1.385 . S
C1050 C1048 1.478 . S
C1050 C1052 1.381 . S
C1050 C1056 1.383 . S
C1051 C1047 1.495 . S
C1051 H1057 0.959 . S
C1051 H1058 0.961 . S
C1051 H1059 0.960 . S
C1052 C1050 1.381 . S
C1052 C1053 1.394 . S
C1052 H1060 0.930 . S
C1053 C1052 1.394 . S
C1053 C1054 1.383 . S
C1053 H1061 0.929 . S
C1054 C1053 1.383 . S
C1054 C1055 1.377 . S
C1055 H1039 0.930 . S
C1055 C1054 1.377 . S
C1055 C1056 1.379 . S
C1056 H1040 0.931 . S
C1056 C1050 1.383 . S
C1056 C1055 1.379 . S
H1057 C1051 0.959 . S
H1058 C1051 0.961 . S
H1059 C1051 0.960 . S
H1060 C1052 0.930 . S
H1061 C1053 0.929 . S
H1062 C1070 0.929 . S
H1063 C1072 0.930 . S
H1064 C1074 0.930 . S
H1065 C1077 0.929 . S
H1066 C1080 0.930 . S
H1067 C1082 0.960 . S
H1068 C1082 0.960 . S
H1069 C1082 0.960 . S
C1070 H1062 0.929 . S
C1070 C1071 1.377 . S
C1070 C1072 1.384 . S
C1071 C1070 1.377 . S
C1071 C1077 1.390 . S
C1072 H1063 0.930 . S
C1072 C1070 1.384 . S
C1072 C1073 1.372 . S
C1073 C1072 1.372 . S
C1073 C1074 1.400 . S
C1073 C1078 1.490 . S
C1074 H1064 0.930 . S
C1074 C1073 1.400 . S
C1074 C1077 1.386 . S
H1075 C1091 0.930 . S
H1076 C1092 0.931 . S
C1077 H1065 0.929 . S
C1077 C1071 1.390 . S
C1077 C1074 1.386 . S
C1078 C1073 1.490 . S
C1078 C1080 1.395 . S
C1078 C1081 1.403 . S
H1079 C1085 0.930 . S
C1080 H1066 0.930 . S
C1080 C1078 1.395 . S
C1080 C1083 1.403 . S
C1081 C1078 1.403 . S
C1081 C1082 1.524 . S
C1081 C1085 1.400 . S
C1082 H1067 0.960 . S
C1082 H1068 0.960 . S
C1082 H1069 0.960 . S
C1082 C1081 1.524 . S
C1083 C1080 1.403 . S
C1083 C1084 1.392 . S
C1083 C1087 1.495 . S
C1084 C1083 1.392 . S
C1084 C1085 1.385 . S
C1084 C1086 1.478 . S
C1085 H1079 0.930 . S
C1085 C1081 1.400 . S
C1085 C1084 1.385 . S
C1086 C1084 1.478 . S
C1086 C1088 1.381 . S
C1086 C1092 1.383 . S
C1087 C1083 1.495 . S
C1087 H1093 0.959 . S
C1087 H1094 0.961 . S
C1087 H1095 0.960 . S
C1088 C1086 1.381 . S
C1088 C1089 1.394 . S
C1088 H1096 0.930 . S
C1089 C1088 1.394 . S
C1089 C1090 1.383 . S
C1089 H1097 0.929 . S
C1090 C1089 1.383 . S
C1090 C1091 1.377 . S
C1091 H1075 0.930 . S
C1091 C1090 1.377 . S
C1091 C1092 1.379 . S
C1092 H1076 0.931 . S
C1092 C1086 1.383 . S
C1092 C1091 1.379 . S
H1093 C1087 0.959 . S
H1094 C1087 0.961 . S
H1095 C1087 0.960 . S
H1096 C1088 0.930 . S
H1097 C1089 0.929 . S
H1098 C1106 0.929 . S
H1099 C1108 0.930 . S
H1100 C1110 0.930 . S
H1101 C1113 0.929 . S
H1102 C1116 0.930 . S
H1103 C1118 0.960 . S
H1104 C1118 0.960 . S
H1105 C1118 0.960 . S
C1106 H1098 0.929 . S
C1106 C1107 1.377 . S
C1106 C1108 1.384 . S
C1107 C1106 1.377 . S
C1107 C1113 1.390 . S
C1108 H1099 0.930 . S
C1108 C1106 1.384 . S
C1108 C1109 1.372 . S
C1109 C1108 1.372 . S
C1109 C1110 1.400 . S
C1109 C1114 1.490 . S
C1110 H1100 0.930 . S
C1110 C1109 1.400 . S
C1110 C1113 1.386 . S
H1111 C1127 0.930 . S
H1112 C1128 0.931 . S
C1113 H1101 0.929 . S
C1113 C1107 1.390 . S
C1113 C1110 1.386 . S
C1114 C1109 1.490 . S
C1114 C1116 1.395 . S
C1114 C1117 1.403 . S
H1115 C1121 0.930 . S
C1116 H1102 0.930 . S
C1116 C1114 1.395 . S
C1116 C1119 1.403 1_545 S
C1117 C1114 1.403 . S
C1117 C1118 1.524 . S
C1117 C1121 1.400 1_545 S
C1118 H1103 0.960 . S
C1118 H1104 0.960 . S
C1118 H1105 0.960 . S
C1118 C1117 1.524 . S
C1119 C1116 1.403 1_565 S
C1119 C1120 1.392 . S
C1119 C1123 1.495 . S
C1120 C1119 1.392 . S
C1120 C1121 1.385 . S
C1120 C1122 1.478 . S
C1121 H1115 0.930 . S
C1121 C1117 1.400 1_565 S
C1121 C1120 1.385 . S
C1122 C1120 1.478 . S
C1122 C1124 1.381 . S
C1122 C1128 1.383 . S
C1123 C1119 1.495 . S
C1123 H1129 0.959 . S
C1123 H1130 0.961 . S
C1123 H1131 0.960 . S
C1124 C1122 1.381 . S
C1124 C1125 1.394 . S
C1124 H1132 0.930 . S
C1125 C1124 1.394 . S
C1125 C1126 1.383 . S
C1125 H1133 0.929 . S
C1126 C1125 1.383 . S
C1126 C1127 1.377 . S
C1127 H1111 0.930 . S
C1127 C1126 1.377 . S
C1127 C1128 1.379 . S
C1128 H1112 0.931 . S
C1128 C1122 1.383 . S
C1128 C1127 1.379 . S
H1129 C1123 0.959 . S
H1130 C1123 0.961 . S
H1131 C1123 0.960 . S
H1132 C1124 0.930 . S
H1133 C1125 0.929 . S
H1134 C1142 0.929 . S
H1135 C1144 0.930 . S
H1136 C1146 0.930 . S
H1137 C1149 0.929 . S
H1138 C1152 0.930 . S
H1139 C1154 0.960 . S
H1140 C1154 0.960 . S
H1141 C1154 0.960 . S
C1142 H1134 0.929 . S
C1142 C1143 1.377 . S
C1142 C1144 1.384 . S
C1143 C1142 1.377 . S
C1143 C1149 1.390 . S
C1144 H1135 0.930 . S
C1144 C1142 1.384 . S
C1144 C1145 1.372 . S
C1145 C1144 1.372 . S
C1145 C1146 1.400 . S
C1145 C1150 1.490 . S
C1146 H1136 0.930 . S
C1146 C1145 1.400 . S
C1146 C1149 1.386 . S
H1147 C1163 0.930 . S
H1148 C1164 0.931 . S
C1149 H1137 0.929 . S
C1149 C1143 1.390 . S
C1149 C1146 1.386 . S
C1150 C1145 1.490 . S
C1150 C1152 1.401 . S
C1150 C1153 1.403 . S
H1151 C1157 0.930 . S
C1152 H1138 0.930 . S
C1152 C1150 1.401 . S
C1152 C1155 1.397 1_655 S
C1153 C1150 1.403 . S
C1153 C1154 1.524 . S
C1153 C1157 1.400 1_655 S
C1154 H1139 0.960 . S
C1154 H1140 0.960 . S
C1154 H1141 0.960 . S
C1154 C1153 1.524 . S
C1155 C1152 1.397 1_455 S
C1155 C1156 1.392 . S
C1155 C1159 1.495 . S
C1156 C1155 1.392 . S
C1156 C1157 1.385 . S
C1156 C1158 1.478 . S
C1157 H1151 0.930 . S
C1157 C1153 1.400 1_455 S
C1157 C1156 1.385 . S
C1158 C1156 1.478 . S
C1158 C1160 1.381 . S
C1158 C1164 1.383 . S
C1159 C1155 1.495 . S
C1159 H1165 0.959 . S
C1159 H1166 0.961 . S
C1159 H1167 0.960 . S
C1160 C1158 1.381 . S
C1160 C1161 1.394 . S
C1160 H1168 0.930 . S
C1161 C1160 1.394 . S
C1161 C1162 1.383 . S
C1161 H1169 0.929 . S
C1162 C1161 1.383 . S
C1162 C1163 1.377 . S
C1163 H1147 0.930 . S
C1163 C1162 1.377 . S
C1163 C1164 1.379 . S
C1164 H1148 0.931 . S
C1164 C1158 1.383 . S
C1164 C1163 1.379 . S
H1165 C1159 0.959 . S
H1166 C1159 0.961 . S
H1167 C1159 0.960 . S
H1168 C1160 0.930 . S
H1169 C1161 0.929 . S
H1170 C1178 0.929 . S
H1171 C1180 0.930 . S
H1172 C1182 0.930 . S
H1173 C1185 0.929 . S
H1174 C1188 0.930 . S
H1175 C1190 0.960 . S
H1176 C1190 0.960 . S
H1177 C1190 0.960 . S
C1178 H1170 0.929 . S
C1178 C1179 1.377 . S
C1178 C1180 1.384 . S
C1179 C1178 1.377 . S
C1179 C1185 1.390 . S
C1180 H1171 0.930 . S
C1180 C1178 1.384 . S
C1180 C1181 1.372 . S
C1181 C1180 1.372 . S
C1181 C1182 1.400 . S
C1181 C1186 1.490 . S
C1182 H1172 0.930 . S
C1182 C1181 1.400 . S
C1182 C1185 1.386 . S
H1183 C1199 0.930 . S
H1184 C1200 0.931 . S
C1185 H1173 0.929 . S
C1185 C1179 1.390 . S
C1185 C1182 1.386 . S
C1186 C1181 1.490 . S
C1186 C1188 1.395 . S
C1186 C1189 1.403 . S
H1187 C1193 0.930 . S
C1188 H1174 0.930 . S
C1188 C1186 1.395 . S
C1188 C1191 1.403 . S
C1189 C1186 1.403 . S
C1189 C1190 1.524 . S
C1189 C1193 1.400 . S
C1190 H1175 0.960 . S
C1190 H1176 0.960 . S
C1190 H1177 0.960 . S
C1190 C1189 1.524 . S
C1191 C1188 1.403 . S
C1191 C1192 1.392 . S
C1191 C1195 1.495 . S
C1192 C1191 1.392 . S
C1192 C1193 1.385 . S
C1192 C1194 1.478 . S
C1193 H1187 0.930 . S
C1193 C1189 1.400 . S
C1193 C1192 1.385 . S
C1194 C1192 1.478 . S
C1194 C1196 1.381 . S
C1194 C1200 1.383 . S
C1195 C1191 1.495 . S
C1195 H1201 0.959 . S
C1195 H1202 0.961 . S
C1195 H1203 0.960 . S
C1196 C1194 1.381 . S
C1196 C1197 1.394 . S
C1196 H1204 0.930 . S
C1197 C1196 1.394 . S
C1197 C1198 1.383 . S
C1197 H1205 0.929 . S
C1198 C1197 1.383 . S
C1198 C1199 1.377 . S
C1199 H1183 0.930 . S
C1199 C1198 1.377 . S
C1199 C1200 1.379 . S
C1200 H1184 0.931 . S
C1200 C1194 1.383 . S
C1200 C1199 1.379 . S
H1201 C1195 0.959 . S
H1202 C1195 0.961 . S
H1203 C1195 0.960 . S
H1204 C1196 0.930 . S
H1205 C1197 0.929 . S
H1206 C1214 0.929 . S
H1207 C1216 0.930 . S
H1208 C1218 0.930 . S
H1209 C1221 0.929 . S
H1210 C1224 0.930 . S
H1211 C1226 0.960 . S
H1212 C1226 0.960 . S
H1213 C1226 0.960 . S
C1214 H1206 0.929 . S
C1214 C1215 1.377 . S
C1214 C1216 1.384 . S
C1215 C1214 1.377 . S
C1215 C1221 1.390 . S
C1216 H1207 0.930 . S
C1216 C1214 1.384 . S
C1216 C1217 1.372 . S
C1217 C1216 1.372 . S
C1217 C1218 1.400 . S
C1217 C1222 1.490 . S
C1218 H1208 0.930 . S
C1218 C1217 1.400 . S
C1218 C1221 1.386 . S
H1219 C1235 0.930 . S
H1220 C1236 0.931 . S
C1221 H1209 0.929 . S
C1221 C1215 1.390 . S
C1221 C1218 1.386 . S
C1222 C1217 1.490 . S
C1222 C1224 1.395 . S
C1222 C1225 1.403 . S
H1223 C1229 0.930 . S
C1224 H1210 0.930 . S
C1224 C1222 1.395 . S
C1224 C1227 1.403 . S
C1225 C1222 1.403 . S
C1225 C1226 1.524 . S
C1225 C1229 1.400 . S
C1226 H1211 0.960 . S
C1226 H1212 0.960 . S
C1226 H1213 0.960 . S
C1226 C1225 1.524 . S
C1227 C1224 1.403 . S
C1227 C1228 1.392 . S
C1227 C1231 1.495 . S
C1228 C1227 1.392 . S
C1228 C1229 1.385 . S
C1228 C1230 1.478 . S
C1229 H1223 0.930 . S
C1229 C1225 1.400 . S
C1229 C1228 1.385 . S
C1230 C1228 1.478 . S
C1230 C1232 1.381 . S
C1230 C1236 1.383 . S
C1231 C1227 1.495 . S
C1231 H1237 0.959 . S
C1231 H1238 0.961 . S
C1231 H1239 0.960 . S
C1232 C1230 1.381 . S
C1232 C1233 1.394 . S
C1232 H1240 0.930 . S
C1233 C1232 1.394 . S
C1233 C1234 1.383 . S
C1233 H1241 0.929 . S
C1234 C1233 1.383 . S
C1234 C1235 1.377 . S
C1235 H1219 0.930 . S
C1235 C1234 1.377 . S
C1235 C1236 1.379 . S
C1236 H1220 0.931 . S
C1236 C1230 1.383 . S
C1236 C1235 1.379 . S
H1237 C1231 0.959 . S
H1238 C1231 0.961 . S
H1239 C1231 0.960 . S
H1240 C1232 0.930 . S
H1241 C1233 0.929 . S
H1242 C1250 0.929 . S
H1243 C1252 0.930 . S
H1244 C1254 0.930 . S
H1245 C1257 0.929 . S
H1246 C1260 0.930 . S
H1247 C1262 0.960 . S
H1248 C1262 0.960 . S
H1249 C1262 0.960 . S
C1250 H1242 0.929 . S
C1250 C1251 1.377 . S
C1250 C1252 1.384 . S
C1251 C1250 1.377 . S
C1251 C1257 1.390 . S
C1252 H1243 0.930 . S
C1252 C1250 1.384 . S
C1252 C1253 1.372 . S
C1253 C1252 1.372 . S
C1253 C1254 1.400 . S
C1253 C1258 1.490 . S
C1254 H1244 0.930 . S
C1254 C1253 1.400 . S
C1254 C1257 1.386 . S
H1255 C1271 0.930 . S
H1256 C1272 0.931 . S
C1257 H1245 0.929 . S
C1257 C1251 1.390 . S
C1257 C1254 1.386 . S
C1258 C1253 1.490 . S
C1258 C1260 1.395 . S
C1258 C1261 1.403 . S
H1259 C1265 0.930 . S
C1260 H1246 0.930 . S
C1260 C1258 1.395 . S
C1260 C1263 1.403 . S
C1261 C1258 1.403 . S
C1261 C1262 1.524 . S
C1261 C1265 1.400 . S
C1262 H1247 0.960 . S
C1262 H1248 0.960 . S
C1262 H1249 0.960 . S
C1262 C1261 1.524 . S
C1263 C1260 1.403 . S
C1263 C1264 1.392 . S
C1263 C1267 1.495 . S
C1264 C1263 1.392 . S
C1264 C1265 1.385 . S
C1264 C1266 1.478 . S
C1265 H1259 0.930 . S
C1265 C1261 1.400 . S
C1265 C1264 1.385 . S
C1266 C1264 1.478 . S
C1266 C1268 1.381 . S
C1266 C1272 1.383 . S
C1267 C1263 1.495 . S
C1267 H1273 0.959 . S
C1267 H1274 0.961 . S
C1267 H1275 0.960 . S
C1268 C1266 1.381 . S
C1268 C1269 1.394 . S
C1268 H1276 0.930 . S
C1269 C1268 1.394 . S
C1269 C1270 1.383 . S
C1269 H1277 0.929 . S
C1270 C1269 1.383 . S
C1270 C1271 1.377 . S
C1271 H1255 0.930 . S
C1271 C1270 1.377 . S
C1271 C1272 1.379 . S
C1272 H1256 0.931 . S
C1272 C1266 1.383 . S
C1272 C1271 1.379 . S
H1273 C1267 0.959 . S
H1274 C1267 0.961 . S
H1275 C1267 0.960 . S
H1276 C1268 0.930 . S
H1277 C1269 0.929 . S
H1278 C1286 0.929 . S
H1279 C1288 0.930 . S
H1280 C1290 0.930 . S
H1281 C1293 0.929 . S
H1282 C1296 0.930 . S
H1283 C1298 0.960 . S
H1284 C1298 0.960 . S
H1285 C1298 0.960 . S
C1286 H1278 0.929 . S
C1286 C1287 1.377 . S
C1286 C1288 1.384 . S
C1287 C1286 1.377 . S
C1287 C1293 1.390 . S
C1288 H1279 0.930 . S
C1288 C1286 1.384 . S
C1288 C1289 1.372 . S
C1289 C1288 1.372 . S
C1289 C1290 1.400 . S
C1289 C1294 1.490 . S
C1290 H1280 0.930 . S
C1290 C1289 1.400 . S
C1290 C1293 1.386 . S
H1291 C1307 0.930 . S
H1292 C1308 0.931 . S
C1293 H1281 0.929 . S
C1293 C1287 1.390 . S
C1293 C1290 1.386 . S
C1294 C1289 1.490 . S
C1294 C1296 1.395 . S
C1294 C1297 1.403 . S
H1295 C1301 0.930 . S
C1296 H1282 0.930 . S
C1296 C1294 1.395 . S
C1296 C1299 1.403 . S
C1297 C1294 1.403 . S
C1297 C1298 1.524 . S
C1297 C1301 1.400 . S
C1298 H1283 0.960 . S
C1298 H1284 0.960 . S
C1298 H1285 0.960 . S
C1298 C1297 1.524 . S
C1299 C1296 1.403 . S
C1299 C1300 1.392 . S
C1299 C1303 1.495 . S
C1300 C1299 1.392 . S
C1300 C1301 1.385 . S
C1300 C1302 1.478 . S
C1301 H1295 0.930 . S
C1301 C1297 1.400 . S
C1301 C1300 1.385 . S
C1302 C1300 1.478 . S
C1302 C1304 1.381 . S
C1302 C1308 1.383 . S
C1303 C1299 1.495 . S
C1303 H1309 0.959 . S
C1303 H1310 0.961 . S
C1303 H1311 0.960 . S
C1304 C1302 1.381 . S
C1304 C1305 1.394 . S
C1304 H1312 0.930 . S
C1305 C1304 1.394 . S
C1305 C1306 1.383 . S
C1305 H1313 0.929 . S
C1306 C1305 1.383 . S
C1306 C1307 1.377 . S
C1307 H1291 0.930 . S
C1307 C1306 1.377 . S
C1307 C1308 1.379 . S
C1308 H1292 0.931 . S
C1308 C1302 1.383 . S
C1308 C1307 1.379 . S
H1309 C1303 0.959 . S
H1310 C1303 0.961 . S
H1311 C1303 0.960 . S
H1312 C1304 0.930 . S
H1313 C1305 0.929 . S
H1314 C1322 0.929 . S
H1315 C1324 0.930 . S
H1316 C1326 0.930 . S
H1317 C1329 0.929 . S
H1318 C1332 0.930 . S
H1319 C1334 0.969 . S
H1320 C1334 0.960 . S
H1321 C1334 0.960 . S
C1322 H1314 0.929 . S
C1322 C1323 1.377 . S
C1322 C1324 1.384 . S
C1323 C1322 1.377 . S
C1323 C1329 1.390 . S
C1324 H1315 0.930 . S
C1324 C1322 1.384 . S
C1324 C1325 1.372 . S
C1325 C1324 1.372 . S
C1325 C1326 1.400 . S
C1325 C1330 1.490 . S
C1326 H1316 0.930 . S
C1326 C1325 1.400 . S
C1326 C1329 1.386 . S
H1327 C1343 0.930 . S
H1328 C1344 0.931 . S
C1329 H1317 0.929 . S
C1329 C1323 1.390 . S
C1329 C1326 1.386 . S
C1330 C1325 1.490 . S
C1330 C1332 1.395 . S
C1330 C1333 1.403 . S
H1331 C1337 0.930 . S
C1332 H1318 0.930 . S
C1332 C1330 1.395 . S
C1332 C1335 1.403 1_565 S
C1333 C1330 1.403 . S
C1333 C1334 1.524 . S
C1333 C1337 1.400 1_565 S
C1334 H1319 0.969 . S
C1334 H1320 0.960 . S
C1334 H1321 0.960 . S
C1334 C1333 1.524 . S
C1335 C1332 1.403 1_545 S
C1335 C1336 1.392 . S
C1335 C1339 1.495 . S
C1336 C1335 1.392 . S
C1336 C1337 1.385 . S
C1336 C1338 1.478 . S
C1337 H1331 0.930 . S
C1337 C1333 1.400 1_545 S
C1337 C1336 1.385 . S
C1338 C1336 1.478 . S
C1338 C1340 1.381 . S
C1338 C1344 1.383 . S
C1339 C1335 1.495 . S
C1339 H1345 0.959 . S
C1339 H1346 0.961 . S
C1339 H1347 0.960 . S
C1340 C1338 1.381 . S
C1340 C1341 1.394 . S
C1340 H1348 0.930 . S
C1341 C1340 1.394 . S
C1341 C1342 1.383 . S
C1341 H1349 0.929 . S
C1342 C1341 1.383 . S
C1342 C1343 1.377 . S
C1343 H1327 0.930 . S
C1343 C1342 1.377 . S
C1343 C1344 1.379 . S
C1344 H1328 0.931 . S
C1344 C1338 1.383 . S
C1344 C1343 1.379 . S
H1345 C1339 0.959 . S
H1346 C1339 0.961 . S
H1347 C1339 0.960 . S
H1348 C1340 0.930 . S
H1349 C1341 0.929 . S
H1350 C1358 0.929 . S
H1351 C1360 0.930 . S
H1352 C1362 0.930 . S
H1353 C1365 0.929 . S
H1354 C1368 0.930 . S
H1355 C1370 0.960 . S
H1356 C1370 0.960 1_455 S
H1357 C1370 0.960 1_455 S
C1358 H1350 0.929 . S
C1358 C1359 1.377 . S
C1358 C1360 1.384 . S
C1359 C1358 1.377 . S
C1359 C1365 1.390 . S
C1360 H1351 0.930 . S
C1360 C1358 1.384 . S
C1360 C1361 1.372 . S
C1361 C1360 1.372 . S
C1361 C1362 1.400 . S
C1361 C1366 1.490 . S
C1362 H1352 0.930 . S
C1362 C1361 1.400 . S
C1362 C1365 1.386 . S
H1363 C1379 0.930 . S
H1364 C1380 0.931 . S
C1365 H1353 0.929 . S
C1365 C1359 1.390 . S
C1365 C1362 1.386 . S
C1366 C1361 1.490 . S
C1366 C1368 1.395 . S
C1366 C1369 1.395 1_455 S
H1367 C1373 0.930 . S
C1368 H1354 0.930 . S
C1368 C1366 1.395 . S
C1368 C1371 1.377 1_455 S
C1369 C1366 1.395 1_655 S
C1369 C1370 1.516 . S
C1369 C1373 1.416 . S
C1370 H1355 0.960 . S
C1370 H1356 0.960 1_655 S
C1370 H1357 0.960 1_655 S
C1370 C1369 1.516 . S
C1371 C1368 1.377 1_655 S
C1371 C1372 1.406 . S
C1371 C1375 1.509 1_655 S
C1372 C1371 1.406 . S
C1372 C1373 1.385 . S
C1372 C1374 1.478 . S
C1373 H1367 0.930 . S
C1373 C1369 1.416 . S
C1373 C1372 1.385 . S
C1374 C1372 1.478 . S
C1374 C1376 1.381 . S
C1374 C1380 1.383 . S
C1375 C1371 1.509 1_455 S
C1375 H1381 0.961 . S
C1375 H1382 0.958 1_455 S
C1375 H1383 0.959 1_455 S
C1376 C1374 1.381 . S
C1376 C1377 1.394 . S
C1376 H1384 0.930 . S
C1377 C1376 1.394 . S
C1377 C1378 1.383 . S
C1377 H1385 0.929 . S
C1378 C1377 1.383 . S
C1378 C1379 1.377 . S
C1379 H1363 0.930 . S
C1379 C1378 1.377 . S
C1379 C1380 1.379 . S
C1380 H1364 0.931 . S
C1380 C1374 1.383 . S
C1380 C1379 1.379 . S
H1381 C1375 0.961 . S
H1382 C1375 0.958 1_655 S
H1383 C1375 0.959 1_655 S
H1384 C1376 0.930 . S
H1385 C1377 0.929 . S
H1386 C1394 0.929 . S
H1387 C1396 0.930 . S
H1388 C1398 0.930 . S
H1389 C1401 0.929 . S
H1390 C1404 0.930 . S
H1391 C1406 0.960 . S
H1392 C1406 0.960 . S
H1393 C1406 0.960 . S
C1394 H1386 0.929 . S
C1394 C1395 1.377 . S
C1394 C1396 1.384 . S
C1395 C1394 1.377 . S
C1395 C1401 1.390 . S
C1396 H1387 0.930 . S
C1396 C1394 1.384 . S
C1396 C1397 1.372 . S
C1397 C1396 1.372 . S
C1397 C1398 1.400 . S
C1397 C1402 1.490 . S
C1398 H1388 0.930 . S
C1398 C1397 1.400 . S
C1398 C1401 1.386 . S
H1399 C1415 0.930 . S
H1400 C1416 0.931 . S
C1401 H1389 0.929 . S
C1401 C1395 1.390 . S
C1401 C1398 1.386 . S
C1402 C1397 1.490 . S
C1402 C1404 1.395 . S
C1402 C1405 1.403 . S
H1403 C1409 0.930 . S
C1404 H1390 0.930 . S
C1404 C1402 1.395 . S
C1404 C1407 1.403 . S
C1405 C1402 1.403 . S
C1405 C1406 1.524 . S
C1405 C1409 1.400 . S
C1406 H1391 0.960 . S
C1406 H1392 0.960 . S
C1406 H1393 0.960 . S
C1406 C1405 1.524 . S
C1407 C1404 1.403 . S
C1407 C1408 1.392 . S
C1407 C1411 1.495 . S
C1408 C1407 1.392 . S
C1408 C1409 1.385 . S
C1408 C1410 1.478 . S
C1409 H1403 0.930 . S
C1409 C1405 1.400 . S
C1409 C1408 1.385 . S
C1410 C1408 1.478 . S
C1410 C1412 1.381 . S
C1410 C1416 1.383 . S
C1411 C1407 1.495 . S
C1411 H1417 0.959 . S
C1411 H1418 0.961 . S
C1411 H1419 0.960 . S
C1412 C1410 1.381 . S
C1412 C1413 1.394 . S
C1412 H1420 0.930 . S
C1413 C1412 1.394 . S
C1413 C1414 1.383 . S
C1413 H1421 0.929 . S
C1414 C1413 1.383 . S
C1414 C1415 1.377 . S
C1415 H1399 0.930 . S
C1415 C1414 1.377 . S
C1415 C1416 1.379 . S
C1416 H1400 0.931 . S
C1416 C1410 1.383 . S
C1416 C1415 1.379 . S
H1417 C1411 0.959 . S
H1418 C1411 0.961 . S
H1419 C1411 0.960 . S
H1420 C1412 0.930 . S
H1421 C1413 0.929 . S
H1422 C1430 0.929 . S
H1423 C1432 0.930 . S
H1424 C1434 0.930 . S
H1425 C1437 0.929 . S
H1426 C1440 0.930 . S
H1427 C1442 0.960 1_655 S
H1428 C1442 0.960 . S
H1429 C1442 0.960 . S
C1430 H1422 0.929 . S
C1430 C1431 1.377 . S
C1430 C1432 1.384 . S
C1431 C1430 1.377 . S
C1431 C1437 1.390 . S
C1432 H1423 0.930 . S
C1432 C1430 1.384 . S
C1432 C1433 1.372 . S
C1433 C1432 1.372 . S
C1433 C1434 1.400 . S
C1433 C1438 1.490 . S
C1434 H1424 0.930 . S
C1434 C1433 1.400 . S
C1434 C1437 1.386 . S
H1435 C1451 0.930 . S
H1436 C1452 0.931 . S
C1437 H1425 0.929 . S
C1437 C1431 1.390 . S
C1437 C1434 1.386 . S
C1438 C1433 1.490 . S
C1438 C1440 1.395 . S
C1438 C1441 1.403 . S
H1439 C1445 0.930 . S
C1440 H1426 0.930 . S
C1440 C1438 1.395 . S
C1440 C1443 1.403 . S
C1441 C1438 1.403 . S
C1441 C1442 1.524 . S
C1441 C1445 1.400 1_455 S
C1442 H1427 0.960 1_455 S
C1442 H1428 0.960 . S
C1442 H1429 0.960 . S
C1442 C1441 1.524 . S
C1443 C1440 1.403 . S
C1443 C1444 1.392 1_455 S
C1443 C1447 1.495 . S
C1444 C1443 1.392 1_655 S
C1444 C1445 1.385 . S
C1444 C1446 1.478 . S
C1445 H1439 0.930 . S
C1445 C1441 1.400 1_655 S
C1445 C1444 1.385 . S
C1446 C1444 1.478 . S
C1446 C1448 1.381 . S
C1446 C1452 1.383 . S
C1447 C1443 1.495 . S
C1447 H1453 0.959 . S
C1447 H1454 0.961 1_455 S
C1447 H1455 0.960 1_455 S
C1448 C1446 1.381 . S
C1448 C1449 1.394 . S
C1448 H1456 0.930 . S
C1449 C1448 1.394 . S
C1449 C1450 1.383 . S
C1449 H1457 0.929 . S
C1450 C1449 1.383 . S
C1450 C1451 1.377 . S
C1451 H1435 0.930 . S
C1451 C1450 1.377 . S
C1451 C1452 1.379 . S
C1452 H1436 0.931 . S
C1452 C1446 1.383 . S
C1452 C1451 1.379 . S
H1453 C1447 0.959 . S
H1454 C1447 0.961 1_655 S
H1455 C1447 0.960 1_655 S
H1456 C1448 0.930 . S
H1457 C1449 0.929 . S
H1458 C1466 0.929 . S
H1459 C1468 0.930 . S
H1460 C1470 0.930 . S
H1461 C1473 0.929 . S
H1462 C1476 0.930 . S
H1463 C1478 0.960 . S
H1464 C1478 0.960 . S
H1465 C1478 0.960 . S
C1466 H1458 0.929 . S
C1466 C1467 1.377 . S
C1466 C1468 1.384 . S
C1467 C1466 1.377 . S
C1467 C1473 1.390 . S
C1468 H1459 0.930 . S
C1468 C1466 1.384 . S
C1468 C1469 1.372 . S
C1469 C1468 1.372 . S
C1469 C1470 1.400 . S
C1469 C1474 1.490 . S
C1470 H1460 0.930 . S
C1470 C1469 1.400 . S
C1470 C1473 1.386 . S
H1471 C1487 0.930 . S
H1472 C1488 0.931 . S
C1473 H1461 0.929 . S
C1473 C1467 1.390 . S
C1473 C1470 1.386 . S
C1474 C1469 1.490 . S
C1474 C1476 1.395 . S
C1474 C1477 1.403 . S
H1475 C1481 0.930 . S
C1476 H1462 0.930 . S
C1476 C1474 1.395 . S
C1476 C1479 1.403 . S
C1477 C1474 1.403 . S
C1477 C1478 1.524 . S
C1477 C1481 1.400 . S
C1478 H1463 0.960 . S
C1478 H1464 0.960 . S
C1478 H1465 0.960 . S
C1478 C1477 1.524 . S
C1479 C1476 1.403 . S
C1479 C1480 1.392 . S
C1479 C1483 1.495 . S
C1480 C1479 1.392 . S
C1480 C1481 1.385 . S
C1480 C1482 1.478 . S
C1481 H1475 0.930 . S
C1481 C1477 1.400 . S
C1481 C1480 1.385 . S
C1482 C1480 1.478 . S
C1482 C1484 1.381 . S
C1482 C1488 1.383 . S
C1483 C1479 1.495 . S
C1483 H1489 0.959 . S
C1483 H1490 0.961 . S
C1483 H1491 0.960 . S
C1484 C1482 1.381 . S
C1484 C1485 1.394 . S
C1484 H1492 0.930 . S
C1485 C1484 1.394 . S
C1485 C1486 1.383 . S
C1485 H1493 0.929 . S
C1486 C1485 1.383 . S
C1486 C1487 1.377 . S
C1487 H1471 0.930 . S
C1487 C1486 1.377 . S
C1487 C1488 1.379 . S
C1488 H1472 0.931 . S
C1488 C1482 1.383 . S
C1488 C1487 1.379 . S
H1489 C1483 0.959 . S
H1490 C1483 0.961 . S
H1491 C1483 0.960 . S
H1492 C1484 0.930 . S
H1493 C1485 0.929 . S
H1494 C1502 0.929 . S
H1495 C1504 0.930 . S
H1496 C1506 0.930 . S
H1497 C1509 0.929 . S
H1498 C1512 0.930 . S
H1499 C1514 0.960 1_545 S
H1500 C1514 0.960 . S
H1501 C1514 0.960 . S
C1502 H1494 0.929 . S
C1502 C1503 1.377 . S
C1502 C1504 1.384 . S
C1503 C1502 1.377 . S
C1503 C1509 1.390 . S
C1504 H1495 0.930 . S
C1504 C1502 1.384 . S
C1504 C1505 1.372 . S
C1505 C1504 1.372 . S
C1505 C1506 1.400 . S
C1505 C1510 1.490 . S
C1506 H1496 0.930 . S
C1506 C1505 1.400 . S
C1506 C1509 1.386 . S
H1507 C1523 0.930 . S
H1508 C1524 0.931 . S
C1509 H1497 0.929 . S
C1509 C1503 1.390 . S
C1509 C1506 1.386 . S
C1510 C1505 1.490 . S
C1510 C1512 1.395 . S
C1510 C1513 1.403 . S
H1511 C1517 0.930 . S
C1512 H1498 0.930 . S
C1512 C1510 1.395 . S
C1512 C1515 1.403 1_565 S
C1513 C1510 1.403 . S
C1513 C1514 1.524 . S
C1513 C1517 1.400 1_565 S
C1514 H1499 0.960 1_565 S
C1514 H1500 0.960 . S
C1514 H1501 0.960 . S
C1514 C1513 1.524 . S
C1515 C1512 1.403 1_545 S
C1515 C1516 1.392 . S
C1515 C1519 1.495 . S
C1516 C1515 1.392 . S
C1516 C1517 1.385 . S
C1516 C1518 1.478 . S
C1517 H1511 0.930 . S
C1517 C1513 1.400 1_545 S
C1517 C1516 1.385 . S
C1518 C1516 1.478 . S
C1518 C1520 1.381 . S
C1518 C1524 1.383 . S
C1519 C1515 1.495 . S
C1519 H1525 0.959 1_545 S
C1519 H1526 0.961 . S
C1519 H1527 0.960 . S
C1520 C1518 1.381 . S
C1520 C1521 1.394 . S
C1520 H1528 0.930 . S
C1521 C1520 1.394 . S
C1521 C1522 1.383 . S
C1521 H1529 0.929 . S
C1522 C1521 1.383 . S
C1522 C1523 1.377 . S
C1523 H1507 0.930 . S
C1523 C1522 1.377 . S
C1523 C1524 1.379 . S
C1524 H1508 0.931 . S
C1524 C1518 1.383 . S
C1524 C1523 1.379 . S
H1525 C1519 0.959 1_565 S
H1526 C1519 0.961 . S
H1527 C1519 0.960 . S
H1528 C1520 0.930 . S
H1529 C1521 0.929 . S
H1530 C1538 0.929 . S
H1531 C1540 0.930 . S
H1532 C1542 0.930 . S
H1533 C1545 0.929 . S
H1534 C1548 0.930 . S
H1535 C1550 0.960 . S
H1536 C1550 0.960 . S
H1537 C1550 0.960 . S
C1538 H1530 0.929 . S
C1538 C1539 1.377 . S
C1538 C1540 1.384 . S
C1539 C1538 1.377 . S
C1539 C1545 1.390 . S
C1540 H1531 0.930 . S
C1540 C1538 1.384 . S
C1540 C1541 1.372 . S
C1541 C1540 1.372 . S
C1541 C1542 1.400 . S
C1541 C1546 1.490 . S
C1542 H1532 0.930 . S
C1542 C1541 1.400 . S
C1542 C1545 1.386 . S
H1543 C1559 0.930 . S
H1544 C1560 0.931 . S
C1545 H1533 0.929 . S
C1545 C1539 1.390 . S
C1545 C1542 1.386 . S
C1546 C1541 1.490 . S
C1546 C1548 1.395 . S
C1546 C1549 1.403 . S
H1547 C1553 0.930 . S
C1548 H1534 0.930 . S
C1548 C1546 1.395 . S
C1548 C1551 1.403 . S
C1549 C1546 1.403 . S
C1549 C1550 1.524 . S
C1549 C1553 1.400 . S
C1550 H1535 0.960 . S
C1550 H1536 0.960 . S
C1550 H1537 0.960 . S
C1550 C1549 1.524 . S
C1551 C1548 1.403 . S
C1551 C1552 1.392 . S
C1551 C1555 1.495 . S
C1552 C1551 1.392 . S
C1552 C1553 1.385 . S
C1552 C1554 1.478 . S
C1553 H1547 0.930 . S
C1553 C1549 1.400 . S
C1553 C1552 1.385 . S
C1554 C1552 1.478 . S
C1554 C1556 1.381 . S
C1554 C1560 1.383 . S
C1555 C1551 1.495 . S
C1555 H1561 0.959 . S
C1555 H1562 0.961 . S
C1555 H1563 0.960 . S
C1556 C1554 1.381 . S
C1556 C1557 1.394 . S
C1556 H1564 0.930 . S
C1557 C1556 1.394 . S
C1557 C1558 1.383 . S
C1557 H1565 0.929 . S
C1558 C1557 1.383 . S
C1558 C1559 1.377 . S
C1559 H1543 0.930 . S
C1559 C1558 1.377 . S
C1559 C1560 1.379 . S
C1560 H1544 0.931 . S
C1560 C1554 1.383 . S
C1560 C1559 1.379 . S
H1561 C1555 0.959 . S
H1562 C1555 0.961 . S
H1563 C1555 0.960 . S
H1564 C1556 0.930 . S
H1565 C1557 0.929 . S
H1566 C1574 0.929 . S
H1567 C1576 0.930 . S
H1568 C1578 0.930 . S
H1569 C1581 0.929 . S
H1570 C1584 0.930 . S
H1571 C1586 0.960 . S
H1572 C1586 0.960 . S
H1573 C1586 0.960 . S
C1574 H1566 0.929 . S
C1574 C1575 1.377 . S
C1574 C1576 1.384 . S
C1575 C1574 1.377 . S
C1575 C1581 1.390 . S
C1576 H1567 0.930 . S
C1576 C1574 1.384 . S
C1576 C1577 1.372 . S
C1577 C1576 1.372 . S
C1577 C1578 1.400 . S
C1577 C1582 1.490 . S
C1578 H1568 0.930 . S
C1578 C1577 1.400 . S
C1578 C1581 1.386 . S
H1579 C1595 0.930 . S
H1580 C1596 0.931 . S
C1581 H1569 0.929 . S
C1581 C1575 1.390 . S
C1581 C1578 1.386 . S
C1582 C1577 1.490 . S
C1582 C1584 1.395 . S
C1582 C1585 1.403 . S
H1583 C1589 0.930 . S
C1584 H1570 0.930 . S
C1584 C1582 1.395 . S
C1584 C1587 1.403 . S
C1585 C1582 1.403 . S
C1585 C1586 1.524 . S
C1585 C1589 1.400 . S
C1586 H1571 0.960 . S
C1586 H1572 0.960 . S
C1586 H1573 0.960 . S
C1586 C1585 1.524 . S
C1587 C1584 1.403 . S
C1587 C1588 1.392 . S
C1587 C1591 1.495 . S
C1588 C1587 1.392 . S
C1588 C1589 1.385 . S
C1588 C1590 1.478 . S
C1589 H1583 0.930 . S
C1589 C1585 1.400 . S
C1589 C1588 1.385 . S
C1590 C1588 1.478 . S
C1590 C1592 1.381 . S
C1590 C1596 1.383 . S
C1591 C1587 1.495 . S
C1591 H1597 0.959 . S
C1591 H1598 0.961 . S
C1591 H1599 0.960 . S
C1592 C1590 1.381 . S
C1592 C1593 1.394 . S
C1592 H1600 0.930 . S
C1593 C1592 1.394 . S
C1593 C1594 1.383 . S
C1593 H1601 0.929 . S
C1594 C1593 1.383 . S
C1594 C1595 1.377 . S
C1595 H1579 0.930 . S
C1595 C1594 1.377 . S
C1595 C1596 1.379 . S
C1596 H1580 0.931 . S
C1596 C1590 1.383 . S
C1596 C1595 1.379 . S
H1597 C1591 0.959 . S
H1598 C1591 0.961 . S
H1599 C1591 0.960 . S
H1600 C1592 0.930 . S
H1601 C1593 0.929 . S
H1602 C1610 0.929 . S
H1603 C1612 0.930 . S
H1604 C1614 0.930 . S
H1605 C1617 0.929 . S
H1606 C1620 0.930 . S
H1607 C1622 0.960 . S
H1608 C1622 0.960 . S
H1609 C1622 0.960 . S
C1610 H1602 0.929 . S
C1610 C1611 1.377 . S
C1610 C1612 1.384 . S
C1611 C1610 1.377 . S
C1611 C1617 1.390 . S
C1612 H1603 0.930 . S
C1612 C1610 1.384 . S
C1612 C1613 1.372 . S
C1613 C1612 1.372 . S
C1613 C1614 1.400 . S
C1613 C1618 1.490 . S
C1614 H1604 0.930 . S
C1614 C1613 1.400 . S
C1614 C1617 1.386 . S
H1615 C1631 0.930 . S
H1616 C1632 0.931 . S
C1617 H1605 0.929 . S
C1617 C1611 1.390 . S
C1617 C1614 1.386 . S
C1618 C1613 1.490 . S
C1618 C1620 1.395 . S
C1618 C1621 1.403 . S
H1619 C1625 0.930 . S
C1620 H1606 0.930 . S
C1620 C1618 1.395 . S
C1620 C1623 1.403 . S
C1621 C1618 1.403 . S
C1621 C1622 1.524 . S
C1621 C1625 1.400 . S
C1622 H1607 0.960 . S
C1622 H1608 0.960 . S
C1622 H1609 0.960 . S
C1622 C1621 1.524 . S
C1623 C1620 1.403 . S
C1623 C1624 1.392 . S
C1623 C1627 1.495 . S
C1624 C1623 1.392 . S
C1624 C1625 1.385 . S
C1624 C1626 1.478 . S
C1625 H1619 0.930 . S
C1625 C1621 1.400 . S
C1625 C1624 1.385 . S
C1626 C1624 1.478 . S
C1626 C1628 1.381 . S
C1626 C1632 1.383 . S
C1627 C1623 1.495 . S
C1627 H1633 0.959 . S
C1627 H1634 0.961 . S
C1627 H1635 0.960 . S
C1628 C1626 1.381 . S
C1628 C1629 1.394 . S
C1628 H1636 0.930 . S
C1629 C1628 1.394 . S
C1629 C1630 1.383 . S
C1629 H1637 0.929 . S
C1630 C1629 1.383 . S
C1630 C1631 1.377 . S
C1631 H1615 0.930 . S
C1631 C1630 1.377 . S
C1631 C1632 1.379 . S
C1632 H1616 0.931 . S
C1632 C1626 1.383 . S
C1632 C1631 1.379 . S
H1633 C1627 0.959 . S
H1634 C1627 0.961 . S
H1635 C1627 0.960 . S
H1636 C1628 0.930 . S
H1637 C1629 0.929 . S
H1638 C1646 0.929 . S
H1639 C1648 0.930 . S
H1640 C1650 0.930 . S
H1641 C1653 0.929 . S
H1642 C1656 0.930 . S
H1643 C1658 0.960 . S
H1644 C1658 0.960 . S
H1645 C1658 0.955 . S
C1646 H1638 0.929 . S
C1646 C1647 1.377 . S
C1646 C1648 1.384 . S
C1647 C1646 1.377 . S
C1647 C1653 1.390 . S
C1648 H1639 0.930 . S
C1648 C1646 1.384 . S
C1648 C1649 1.372 . S
C1649 C1648 1.372 . S
C1649 C1650 1.400 . S
C1649 C1654 1.490 . S
C1650 H1640 0.930 . S
C1650 C1649 1.400 . S
C1650 C1653 1.386 . S
H1651 C1667 0.930 . S
H1652 C1668 0.931 . S
C1653 H1641 0.929 . S
C1653 C1647 1.390 . S
C1653 C1650 1.386 . S
C1654 C1649 1.490 . S
C1654 C1656 1.395 . S
C1654 C1657 1.403 . S
H1655 C1661 0.930 1_545 S
C1656 H1642 0.930 . S
C1656 C1654 1.395 . S
C1656 C1659 1.403 . S
C1657 C1654 1.403 . S
C1657 C1658 1.524 1_565 S
C1657 C1661 1.400 . S
C1658 H1643 0.960 . S
C1658 H1644 0.960 . S
C1658 H1645 0.955 . S
C1658 C1657 1.524 1_545 S
C1659 C1656 1.403 . S
C1659 C1660 1.392 . S
C1659 C1663 1.495 . S
C1660 C1659 1.392 . S
C1660 C1661 1.385 . S
C1660 C1662 1.478 . S
C1661 H1655 0.930 1_565 S
C1661 C1657 1.400 . S
C1661 C1660 1.385 . S
C1662 C1660 1.478 . S
C1662 C1664 1.381 . S
C1662 C1668 1.383 . S
C1663 C1659 1.495 . S
C1663 H1669 0.959 . S
C1663 H1670 0.961 . S
C1663 H1671 0.960 . S
C1664 C1662 1.381 . S
C1664 C1665 1.394 . S
C1664 H1672 0.930 . S
C1665 C1664 1.394 . S
C1665 C1666 1.383 . S
C1665 H1673 0.929 . S
C1666 C1665 1.383 . S
C1666 C1667 1.377 . S
C1667 H1651 0.930 . S
C1667 C1666 1.377 . S
C1667 C1668 1.379 . S
C1668 H1652 0.931 . S
C1668 C1662 1.383 . S
C1668 C1667 1.379 . S
H1669 C1663 0.959 . S
H1670 C1663 0.961 . S
H1671 C1663 0.960 . S
H1672 C1664 0.930 . S
H1673 C1665 0.929 . S
H1674 C1682 0.929 . S
H1675 C1684 0.930 . S
H1676 C1686 0.930 . S
H1677 C1689 0.929 . S
H1678 C1692 0.930 . S
H1679 C1694 0.960 . S
H1680 C1694 0.960 . S
H1681 C1694 0.960 . S
C1682 H1674 0.929 . S
C1682 C1683 1.377 . S
C1682 C1684 1.384 . S
C1683 C1682 1.377 . S
C1683 C1689 1.390 . S
C1684 H1675 0.930 . S
C1684 C1682 1.384 . S
C1684 C1685 1.372 . S
C1685 C1684 1.372 . S
C1685 C1686 1.400 . S
C1685 C1690 1.490 . S
C1686 H1676 0.930 . S
C1686 C1685 1.400 . S
C1686 C1689 1.386 . S
H1687 C1703 0.930 . S
H1688 C1704 0.931 1_655 S
C1689 H1677 0.929 . S
C1689 C1683 1.390 . S
C1689 C1686 1.386 . S
C1690 C1685 1.490 . S
C1690 C1692 1.395 . S
C1690 C1693 1.403 . S
H1691 C1697 0.930 . S
C1692 H1678 0.930 . S
C1692 C1690 1.395 . S
C1692 C1695 1.403 . S
C1693 C1690 1.403 . S
C1693 C1694 1.524 . S
C1693 C1697 1.400 . S
C1694 H1679 0.960 . S
C1694 H1680 0.960 . S
C1694 H1681 0.960 . S
C1694 C1693 1.524 . S
C1695 C1692 1.403 . S
C1695 C1696 1.392 . S
C1695 C1699 1.495 . S
C1696 C1695 1.392 . S
C1696 C1697 1.385 . S
C1696 C1698 1.478 . S
C1697 H1691 0.930 . S
C1697 C1693 1.400 . S
C1697 C1696 1.385 . S
C1698 C1696 1.478 . S
C1698 C1700 1.381 . S
C1698 C1704 1.383 . S
C1699 C1695 1.495 . S
C1699 H1705 0.959 . S
C1699 H1706 0.961 . S
C1699 H1707 0.960 . S
C1700 C1698 1.381 . S
C1700 C1701 1.394 . S
C1700 H1708 0.930 . S
C1701 C1700 1.394 . S
C1701 C1702 1.383 . S
C1701 H1709 0.929 . S
C1702 C1701 1.383 . S
C1702 C1703 1.377 1_455 S
C1703 H1687 0.930 . S
C1703 C1702 1.377 1_655 S
C1703 C1704 1.379 1_655 S
C1704 H1688 0.931 1_455 S
C1704 C1698 1.383 . S
C1704 C1703 1.379 1_455 S
H1705 C1699 0.959 . S
H1706 C1699 0.961 . S
H1707 C1699 0.960 . S
H1708 C1700 0.930 . S
H1709 C1701 0.929 . S
H1710 C1718 0.929 . S
H1711 C1720 0.930 . S
H1712 C1722 0.930 . S
H1713 C1725 0.929 . S
H1714 C1728 0.930 . S
H1715 C1730 0.960 . S
H1716 C1730 0.960 . S
H1717 C1730 0.960 . S
C1718 H1710 0.929 . S
C1718 C1719 1.377 . S
C1718 C1720 1.384 . S
C1719 C1718 1.377 . S
C1719 C1725 1.390 . S
C1720 H1711 0.930 . S
C1720 C1718 1.384 . S
C1720 C1721 1.372 . S
C1721 C1720 1.372 . S
C1721 C1722 1.400 . S
C1721 C1726 1.490 . S
C1722 H1712 0.930 . S
C1722 C1721 1.400 . S
C1722 C1725 1.386 . S
H1723 C1739 0.930 . S
H1724 C1740 0.931 . S
C1725 H1713 0.929 . S
C1725 C1719 1.390 . S
C1725 C1722 1.386 . S
C1726 C1721 1.490 . S
C1726 C1728 1.395 . S
C1726 C1729 1.403 . S
H1727 C1733 0.930 . S
C1728 H1714 0.930 . S
C1728 C1726 1.395 . S
C1728 C1731 1.403 . S
C1729 C1726 1.403 . S
C1729 C1730 1.524 . S
C1729 C1733 1.400 . S
C1730 H1715 0.960 . S
C1730 H1716 0.960 . S
C1730 H1717 0.960 . S
C1730 C1729 1.524 . S
C1731 C1728 1.403 . S
C1731 C1732 1.392 . S
C1731 C1735 1.495 . S
C1732 C1731 1.392 . S
C1732 C1733 1.385 . S
C1732 C1734 1.478 . S
C1733 H1727 0.930 . S
C1733 C1729 1.400 . S
C1733 C1732 1.385 . S
C1734 C1732 1.478 . S
C1734 C1736 1.381 . S
C1734 C1740 1.383 . S
C1735 C1731 1.495 . S
C1735 H1741 0.959 . S
C1735 H1742 0.961 . S
C1735 H1743 0.960 . S
C1736 C1734 1.381 . S
C1736 C1737 1.394 . S
C1736 H1744 0.930 . S
C1737 C1736 1.394 . S
C1737 C1738 1.383 . S
C1737 H1745 0.929 . S
C1738 C1737 1.383 . S
C1738 C1739 1.377 . S
C1739 H1723 0.930 . S
C1739 C1738 1.377 . S
C1739 C1740 1.379 . S
C1740 H1724 0.931 . S
C1740 C1734 1.383 . S
C1740 C1739 1.379 . S
H1741 C1735 0.959 . S
H1742 C1735 0.961 . S
H1743 C1735 0.960 . S
H1744 C1736 0.930 . S
H1745 C1737 0.929 . S
H1746 C1754 0.929 . S
H1747 C1756 0.930 . S
H1748 C1758 0.930 . S
H1749 C1761 0.929 . S
H1750 C1764 0.930 . S
H1751 C1766 0.960 . S
H1752 C1766 0.960 . S
H1753 C1766 0.960 . S
C1754 H1746 0.929 . S
C1754 C1755 1.377 . S
C1754 C1756 1.384 . S
C1755 C1754 1.377 . S
C1755 C1761 1.390 . S
C1756 H1747 0.930 . S
C1756 C1754 1.384 . S
C1756 C1757 1.372 . S
C1757 C1756 1.372 . S
C1757 C1758 1.400 . S
C1757 C1762 1.490 . S
C1758 H1748 0.930 . S
C1758 C1757 1.400 . S
C1758 C1761 1.386 . S
H1759 C1775 0.930 . S
H1760 C1776 0.931 . S
C1761 H1749 0.929 . S
C1761 C1755 1.390 . S
C1761 C1758 1.386 . S
C1762 C1757 1.490 . S
C1762 C1764 1.395 . S
C1762 C1765 1.403 . S
H1763 C1769 0.930 . S
C1764 H1750 0.930 . S
C1764 C1762 1.395 . S
C1764 C1767 1.403 . S
C1765 C1762 1.403 . S
C1765 C1766 1.524 . S
C1765 C1769 1.400 . S
C1766 H1751 0.960 . S
C1766 H1752 0.960 . S
C1766 H1753 0.960 . S
C1766 C1765 1.524 . S
C1767 C1764 1.403 . S
C1767 C1768 1.392 . S
C1767 C1771 1.495 . S
C1768 C1767 1.392 . S
C1768 C1769 1.385 . S
C1768 C1770 1.478 . S
C1769 H1763 0.930 . S
C1769 C1765 1.400 . S
C1769 C1768 1.385 . S
C1770 C1768 1.478 . S
C1770 C1772 1.381 . S
C1770 C1776 1.383 1_655 S
C1771 C1767 1.495 . S
C1771 H1777 0.959 . S
C1771 H1778 0.961 . S
C1771 H1779 0.960 . S
C1772 C1770 1.381 . S
C1772 C1773 1.394 . S
C1772 H1780 0.930 . S
C1773 C1772 1.394 . S
C1773 C1774 1.383 . S
C1773 H1781 0.929 . S
C1774 C1773 1.383 . S
C1774 C1775 1.377 1_655 S
C1775 H1759 0.930 . S
C1775 C1774 1.377 1_455 S
C1775 C1776 1.379 . S
C1776 H1760 0.931 . S
C1776 C1770 1.383 1_455 S
C1776 C1775 1.379 . S
H1777 C1771 0.959 . S
H1778 C1771 0.961 . S
H1779 C1771 0.960 . S
H1780 C1772 0.930 . S
H1781 C1773 0.929 . S
H1782 C1790 0.929 . S
H1783 C1792 0.930 . S
H1784 C1794 0.930 . S
H1785 C1797 0.929 . S
H1786 C1800 0.930 . S
H1787 C1802 0.960 . S
H1788 C1802 0.960 . S
H1789 C1802 0.960 . S
C1790 H1782 0.929 . S
C1790 C1791 1.377 . S
C1790 C1792 1.384 . S
C1791 C1790 1.377 . S
C1791 C1797 1.390 . S
C1792 H1783 0.930 . S
C1792 C1790 1.384 . S
C1792 C1793 1.372 . S
C1793 C1792 1.372 . S
C1793 C1794 1.400 . S
C1793 C1798 1.490 . S
C1794 H1784 0.930 . S
C1794 C1793 1.400 . S
C1794 C1797 1.386 . S
H1795 C1811 0.930 . S
H1796 C1812 0.931 . S
C1797 H1785 0.929 . S
C1797 C1791 1.390 . S
C1797 C1794 1.386 . S
C1798 C1793 1.490 . S
C1798 C1800 1.395 . S
C1798 C1801 1.403 . S
H1799 C1805 0.930 . S
C1800 H1786 0.930 . S
C1800 C1798 1.395 . S
C1800 C1803 1.403 . S
C1801 C1798 1.403 . S
C1801 C1802 1.524 . S
C1801 C1805 1.400 . S
C1802 H1787 0.960 . S
C1802 H1788 0.960 . S
C1802 H1789 0.960 . S
C1802 C1801 1.524 . S
C1803 C1800 1.403 . S
C1803 C1804 1.392 . S
C1803 C1807 1.495 . S
C1804 C1803 1.392 . S
C1804 C1805 1.385 . S
C1804 C1806 1.478 . S
C1805 H1799 0.930 . S
C1805 C1801 1.400 . S
C1805 C1804 1.385 . S
C1806 C1804 1.478 . S
C1806 C1808 1.381 . S
C1806 C1812 1.383 . S
C1807 C1803 1.495 . S
C1807 H1813 0.959 . S
C1807 H1814 0.961 . S
C1807 H1815 0.960 . S
C1808 C1806 1.381 . S
C1808 C1809 1.394 . S
C1808 H1816 0.930 . S
C1809 C1808 1.394 . S
C1809 C1810 1.383 . S
C1809 H1817 0.929 . S
C1810 C1809 1.383 . S
C1810 C1811 1.377 . S
C1811 H1795 0.930 . S
C1811 C1810 1.377 . S
C1811 C1812 1.379 . S
C1812 H1796 0.931 . S
C1812 C1806 1.383 . S
C1812 C1811 1.379 . S
H1813 C1807 0.959 . S
H1814 C1807 0.961 . S
H1815 C1807 0.960 . S
H1816 C1808 0.930 . S
H1817 C1809 0.929 . S
H1818 C1826 0.929 . S
H1819 C1828 0.930 . S
H1820 C1830 0.930 . S
H1821 C1833 0.929 . S
H1822 C1836 0.930 . S
H1823 C1838 0.960 . S
H1824 C1838 0.960 . S
H1825 C1838 0.960 . S
C1826 H1818 0.929 . S
C1826 C1827 1.377 . S
C1826 C1828 1.384 . S
C1827 C1826 1.377 . S
C1827 C1833 1.390 . S
C1828 H1819 0.930 . S
C1828 C1826 1.384 . S
C1828 C1829 1.372 . S
C1829 C1828 1.372 . S
C1829 C1830 1.400 . S
C1829 C1834 1.490 . S
C1830 H1820 0.930 . S
C1830 C1829 1.400 . S
C1830 C1833 1.386 . S
H1831 C1847 0.930 . S
H1832 C1848 0.931 . S
C1833 H1821 0.929 . S
C1833 C1827 1.390 . S
C1833 C1830 1.386 . S
C1834 C1829 1.490 . S
C1834 C1836 1.395 . S
C1834 C1837 1.403 . S
H1835 C1841 0.930 . S
C1836 H1822 0.930 . S
C1836 C1834 1.395 . S
C1836 C1839 1.403 . S
C1837 C1834 1.403 . S
C1837 C1838 1.524 . S
C1837 C1841 1.400 . S
C1838 H1823 0.960 . S
C1838 H1824 0.960 . S
C1838 H1825 0.960 . S
C1838 C1837 1.524 . S
C1839 C1836 1.403 . S
C1839 C1840 1.392 . S
C1839 C1843 1.495 . S
C1840 C1839 1.392 . S
C1840 C1841 1.385 . S
C1840 C1842 1.478 . S
C1841 H1835 0.930 . S
C1841 C1837 1.400 . S
C1841 C1840 1.385 . S
C1842 C1840 1.478 . S
C1842 C1844 1.381 1_545 S
C1842 C1848 1.383 . S
C1843 C1839 1.495 . S
C1843 H1849 0.959 . S
C1843 H1850 0.961 . S
C1843 H1851 0.960 1_545 S
C1844 C1842 1.381 1_565 S
C1844 C1845 1.394 . S
C1844 H1852 0.930 . S
C1845 C1844 1.394 . S
C1845 C1846 1.383 1_565 S
C1845 H1853 0.929 . S
C1846 C1845 1.383 1_545 S
C1846 C1847 1.377 . S
C1847 H1831 0.930 . S
C1847 C1846 1.377 . S
C1847 C1848 1.379 . S
C1848 H1832 0.931 . S
C1848 C1842 1.383 . S
C1848 C1847 1.379 . S
H1849 C1843 0.959 . S
H1850 C1843 0.961 . S
H1851 C1843 0.960 1_565 S
H1852 C1844 0.930 . S
H1853 C1845 0.929 . S
H1854 C1862 0.929 . S
H1855 C1864 0.930 . S
H1856 C1866 0.930 . S
H1857 C1869 0.929 . S
H1858 C1872 0.930 . S
H1859 C1874 0.960 . S
H1860 C1874 0.960 . S
H1861 C1874 0.960 . S
C1862 H1854 0.929 . S
C1862 C1863 1.377 . S
C1862 C1864 1.384 . S
C1863 C1862 1.377 . S
C1863 C1869 1.390 . S
C1864 H1855 0.930 . S
C1864 C1862 1.384 . S
C1864 C1865 1.372 . S
C1865 C1864 1.372 . S
C1865 C1866 1.400 . S
C1865 C1870 1.490 . S
C1866 H1856 0.930 . S
C1866 C1865 1.400 . S
C1866 C1869 1.386 . S
H1867 C1883 0.930 . S
H1868 C1884 0.931 . S
C1869 H1857 0.929 . S
C1869 C1863 1.390 . S
C1869 C1866 1.386 . S
C1870 C1865 1.490 . S
C1870 C1872 1.395 . S
C1870 C1873 1.403 . S
H1871 C1877 0.930 . S
C1872 H1858 0.930 . S
C1872 C1870 1.395 . S
C1872 C1875 1.403 . S
C1873 C1870 1.403 . S
C1873 C1874 1.524 . S
C1873 C1877 1.400 . S
C1874 H1859 0.960 . S
C1874 H1860 0.960 . S
C1874 H1861 0.960 . S
C1874 C1873 1.524 . S
C1875 C1872 1.403 . S
C1875 C1876 1.392 . S
C1875 C1879 1.495 . S
C1876 C1875 1.392 . S
C1876 C1877 1.385 . S
C1876 C1878 1.478 . S
C1877 H1871 0.930 . S
C1877 C1873 1.400 . S
C1877 C1876 1.385 . S
C1878 C1876 1.478 . S
C1878 C1880 1.381 . S
C1878 C1884 1.383 . S
C1879 C1875 1.495 . S
C1879 H1885 0.959 . S
C1879 H1886 0.961 . S
C1879 H1887 0.960 . S
C1880 C1878 1.381 . S
C1880 C1881 1.394 . S
C1880 H1888 0.930 . S
C1881 C1880 1.394 . S
C1881 C1882 1.383 . S
C1881 H1889 0.929 . S
C1882 C1881 1.383 . S
C1882 C1883 1.377 . S
C1883 H1867 0.930 . S
C1883 C1882 1.377 . S
C1883 C1884 1.379 . S
C1884 H1868 0.931 . S
C1884 C1878 1.383 . S
C1884 C1883 1.379 . S
H1885 C1879 0.959 . S
H1886 C1879 0.961 . S
H1887 C1879 0.960 . S
H1888 C1880 0.930 . S
H1889 C1881 0.929 . S
H1890 C1898 0.929 . S
H1891 C1900 0.930 . S
H1892 C1902 0.930 . S
H1893 C1905 0.929 . S
H1894 C1908 0.930 . S
H1895 C1910 0.960 . S
H1896 C1910 0.960 . S
H1897 C1910 0.960 . S
C1898 H1890 0.929 . S
C1898 C1899 1.377 . S
C1898 C1900 1.384 . S
C1899 C1898 1.377 . S
C1899 C1905 1.390 . S
C1900 H1891 0.930 . S
C1900 C1898 1.384 . S
C1900 C1901 1.372 . S
C1901 C1900 1.372 . S
C1901 C1902 1.400 . S
C1901 C1906 1.490 . S
C1902 H1892 0.930 . S
C1902 C1901 1.400 . S
C1902 C1905 1.386 . S
H1903 C1919 0.930 . S
H1904 C1920 0.931 . S
C1905 H1893 0.929 . S
C1905 C1899 1.390 . S
C1905 C1902 1.386 . S
C1906 C1901 1.490 . S
C1906 C1908 1.395 . S
C1906 C1909 1.403 . S
H1907 C1913 0.930 . S
C1908 H1894 0.930 . S
C1908 C1906 1.395 . S
C1908 C1911 1.403 . S
C1909 C1906 1.403 . S
C1909 C1910 1.524 . S
C1909 C1913 1.400 . S
C1910 H1895 0.960 . S
C1910 H1896 0.960 . S
C1910 H1897 0.960 . S
C1910 C1909 1.524 . S
C1911 C1908 1.403 . S
C1911 C1912 1.392 . S
C1911 C1915 1.495 . S
C1912 C1911 1.392 . S
C1912 C1913 1.385 . S
C1912 C1914 1.478 . S
C1913 H1907 0.930 . S
C1913 C1909 1.400 . S
C1913 C1912 1.385 . S
C1914 C1912 1.478 . S
C1914 C1916 1.381 . S
C1914 C1920 1.383 . S
C1915 C1911 1.495 . S
C1915 H1921 0.959 . S
C1915 H1922 0.961 . S
C1915 H1923 0.960 . S
C1916 C1914 1.381 . S
C1916 C1917 1.394 . S
C1916 H1924 0.930 . S
C1917 C1916 1.394 . S
C1917 C1918 1.383 . S
C1917 H1925 0.929 . S
C1918 C1917 1.383 . S
C1918 C1919 1.377 . S
C1919 H1903 0.930 . S
C1919 C1918 1.377 . S
C1919 C1920 1.379 . S
C1920 H1904 0.931 . S
C1920 C1914 1.383 . S
C1920 C1919 1.379 . S
H1921 C1915 0.959 . S
H1922 C1915 0.961 . S
H1923 C1915 0.960 . S
H1924 C1916 0.930 . S
H1925 C1917 0.929 . S
H1926 C1934 0.929 . S
H1927 C1936 0.930 . S
H1928 C1938 0.930 . S
H1929 C1941 0.929 . S
H1930 C1944 0.930 . S
H1931 C1946 0.960 . S
H1932 C1946 0.960 . S
H1933 C1946 0.960 . S
C1934 H1926 0.929 . S
C1934 C1935 1.377 . S
C1934 C1936 1.384 . S
C1935 C1934 1.377 . S
C1935 C1941 1.390 . S
C1936 H1927 0.930 . S
C1936 C1934 1.384 . S
C1936 C1937 1.372 . S
C1937 C1936 1.372 . S
C1937 C1938 1.400 . S
C1937 C1942 1.490 . S
C1938 H1928 0.930 . S
C1938 C1937 1.400 . S
C1938 C1941 1.386 . S
H1939 C1955 0.930 . S
H1940 C1956 0.931 . S
C1941 H1929 0.929 . S
C1941 C1935 1.390 . S
C1941 C1938 1.386 . S
C1942 C1937 1.490 . S
C1942 C1944 1.395 . S
C1942 C1945 1.403 . S
H1943 C1949 0.930 . S
C1944 H1930 0.930 . S
C1944 C1942 1.395 . S
C1944 C1947 1.403 . S
C1945 C1942 1.403 . S
C1945 C1946 1.524 . S
C1945 C1949 1.400 . S
C1946 H1931 0.960 . S
C1946 H1932 0.960 . S
C1946 H1933 0.960 . S
C1946 C1945 1.524 . S
C1947 C1944 1.403 . S
C1947 C1948 1.392 . S
C1947 C1951 1.495 . S
C1948 C1947 1.392 . S
C1948 C1949 1.385 . S
C1948 C1950 1.478 . S
C1949 H1943 0.930 . S
C1949 C1945 1.400 . S
C1949 C1948 1.385 . S
C1950 C1948 1.478 . S
C1950 C1952 1.381 . S
C1950 C1956 1.383 . S
C1951 C1947 1.495 . S
C1951 H1957 0.959 . S
C1951 H1958 0.961 . S
C1951 H1959 0.960 . S
C1952 C1950 1.381 . S
C1952 C1953 1.394 . S
C1952 H1960 0.930 . S
C1953 C1952 1.394 . S
C1953 C1954 1.383 . S
C1953 H1961 0.929 . S
C1954 C1953 1.383 . S
C1954 C1955 1.377 . S
C1955 H1939 0.930 . S
C1955 C1954 1.377 . S
C1955 C1956 1.379 . S
C1956 H1940 0.931 . S
C1956 C1950 1.383 . S
C1956 C1955 1.379 . S
H1957 C1951 0.959 . S
H1958 C1951 0.961 . S
H1959 C1951 0.960 . S
H1960 C1952 0.930 . S
H1961 C1953 0.929 . S
H1962 C1970 0.929 . S
H1963 C1972 0.930 . S
H1964 C1974 0.930 . S
H1965 C1977 0.929 . S
H1966 C1980 0.930 . S
H1967 C1982 0.960 . S
H1968 C1982 0.960 . S
H1969 C1982 0.960 . S
C1970 H1962 0.929 . S
C1970 C1971 1.377 . S
C1970 C1972 1.384 . S
C1971 C1970 1.377 . S
C1971 C1977 1.390 . S
C1972 H1963 0.930 . S
C1972 C1970 1.384 . S
C1972 C1973 1.372 . S
C1973 C1972 1.372 . S
C1973 C1974 1.400 . S
C1973 C1978 1.490 . S
C1974 H1964 0.930 . S
C1974 C1973 1.400 . S
C1974 C1977 1.386 . S
H1975 C1991 0.930 . S
H1976 C1992 0.931 . S
C1977 H1965 0.929 . S
C1977 C1971 1.390 . S
C1977 C1974 1.386 . S
C1978 C1973 1.490 . S
C1978 C1980 1.395 . S
C1978 C1981 1.403 . S
H1979 C1985 0.930 . S
C1980 H1966 0.930 . S
C1980 C1978 1.395 . S
C1980 C1983 1.403 . S
C1981 C1978 1.403 . S
C1981 C1982 1.524 . S
C1981 C1985 1.400 . S
C1982 H1967 0.960 . S
C1982 H1968 0.960 . S
C1982 H1969 0.960 . S
C1982 C1981 1.524 . S
C1983 C1980 1.403 . S
C1983 C1984 1.392 . S
C1983 C1987 1.495 . S
C1984 C1983 1.392 . S
C1984 C1985 1.385 . S
C1984 C1986 1.478 . S
C1985 H1979 0.930 . S
C1985 C1981 1.400 . S
C1985 C1984 1.385 . S
C1986 C1984 1.478 . S
C1986 C1988 1.381 . S
C1986 C1992 1.383 . S
C1987 C1983 1.495 . S
C1987 H1993 0.959 . S
C1987 H1994 0.961 . S
C1987 H1995 0.960 . S
C1988 C1986 1.381 . S
C1988 C1989 1.394 . S
C1988 H1996 0.930 . S
C1989 C1988 1.394 . S
C1989 C1990 1.383 . S
C1989 H1997 0.929 . S
C1990 C1989 1.383 . S
C1990 C1991 1.377 . S
C1991 H1975 0.930 . S
C1991 C1990 1.377 . S
C1991 C1992 1.379 . S
C1992 H1976 0.931 . S
C1992 C1986 1.383 . S
C1992 C1991 1.379 . S
H1993 C1987 0.959 . S
H1994 C1987 0.961 . S
H1995 C1987 0.960 . S
H1996 C1988 0.930 . S
H1997 C1989 0.929 . S
H1998 C2006 0.929 . S
H1999 C2008 0.930 . S
H2000 C2010 0.930 . S
H2001 C2013 0.929 . S
H2002 C2016 0.930 . S
H2003 C2018 0.960 . S
H2004 C2018 0.960 . S
H2005 C2018 0.960 . S
C2006 H1998 0.929 . S
C2006 C2007 1.377 . S
C2006 C2008 1.384 . S
C2007 C2006 1.377 . S
C2007 C2013 1.390 . S
C2008 H1999 0.930 . S
C2008 C2006 1.384 . S
C2008 C2009 1.372 . S
C2009 C2008 1.372 . S
C2009 C2010 1.400 . S
C2009 C2014 1.490 . S
C2010 H2000 0.930 . S
C2010 C2009 1.400 . S
C2010 C2013 1.386 . S
H2011 C2027 0.930 . S
H2012 C2028 0.931 . S
C2013 H2001 0.929 . S
C2013 C2007 1.390 . S
C2013 C2010 1.386 . S
C2014 C2009 1.490 . S
C2014 C2016 1.395 . S
C2014 C2017 1.403 . S
H2015 C2021 0.930 . S
C2016 H2002 0.930 . S
C2016 C2014 1.395 . S
C2016 C2019 1.403 . S
C2017 C2014 1.403 . S
C2017 C2018 1.524 . S
C2017 C2021 1.400 . S
C2018 H2003 0.960 . S
C2018 H2004 0.960 . S
C2018 H2005 0.960 . S
C2018 C2017 1.524 . S
C2019 C2016 1.403 . S
C2019 C2020 1.392 . S
C2019 C2023 1.495 . S
C2020 C2019 1.392 . S
C2020 C2021 1.385 . S
C2020 C2022 1.478 . S
C2021 H2015 0.930 . S
C2021 C2017 1.400 . S
C2021 C2020 1.385 . S
C2022 C2020 1.478 . S
C2022 C2024 1.381 . S
C2022 C2028 1.383 . S
C2023 C2019 1.495 . S
C2023 H2029 0.959 . S
C2023 H2030 0.961 . S
C2023 H2031 0.960 . S
C2024 C2022 1.381 . S
C2024 C2025 1.394 . S
C2024 H2032 0.930 . S
C2025 C2024 1.394 . S
C2025 C2026 1.383 . S
C2025 H2033 0.929 . S
C2026 C2025 1.383 . S
C2026 C2027 1.377 . S
C2027 H2011 0.930 . S
C2027 C2026 1.377 . S
C2027 C2028 1.379 . S
C2028 H2012 0.931 . S
C2028 C2022 1.383 . S
C2028 C2027 1.379 . S
H2029 C2023 0.959 . S
H2030 C2023 0.961 . S
H2031 C2023 0.960 . S
H2032 C2024 0.930 . S
H2033 C2025 0.929 . S
H2034 C2042 0.929 . S
H2035 C2044 0.930 . S
H2036 C2046 0.930 . S
H2037 C2049 0.929 . S
H2038 C2052 0.930 . S
H2039 C2054 0.960 . S
H2040 C2054 0.960 . S
H2041 C2054 0.960 . S
C2042 H2034 0.929 . S
C2042 C2043 1.377 . S
C2042 C2044 1.384 . S
C2043 C2042 1.377 . S
C2043 C2049 1.390 . S
C2044 H2035 0.930 . S
C2044 C2042 1.384 . S
C2044 C2045 1.372 . S
C2045 C2044 1.372 . S
C2045 C2046 1.400 . S
C2045 C2050 1.490 . S
C2046 H2036 0.930 . S
C2046 C2045 1.400 . S
C2046 C2049 1.386 . S
H2047 C2063 0.930 . S
H2048 C2064 0.931 . S
C2049 H2037 0.929 . S
C2049 C2043 1.390 . S
C2049 C2046 1.386 . S
C2050 C2045 1.490 . S
C2050 C2052 1.395 . S
C2050 C2053 1.403 . S
H2051 C2057 0.930 . S
C2052 H2038 0.930 . S
C2052 C2050 1.395 . S
C2052 C2055 1.403 . S
C2053 C2050 1.403 . S
C2053 C2054 1.524 . S
C2053 C2057 1.400 . S
C2054 H2039 0.960 . S
C2054 H2040 0.960 . S
C2054 H2041 0.960 . S
C2054 C2053 1.524 . S
C2055 C2052 1.403 . S
C2055 C2056 1.392 . S
C2055 C2059 1.495 . S
C2056 C2055 1.392 . S
C2056 C2057 1.385 . S
C2056 C2058 1.478 . S
C2057 H2051 0.930 . S
C2057 C2053 1.400 . S
C2057 C2056 1.385 . S
C2058 C2056 1.478 . S
C2058 C2060 1.381 . S
C2058 C2064 1.383 . S
C2059 C2055 1.495 . S
C2059 H2065 0.959 . S
C2059 H2066 0.961 . S
C2059 H2067 0.960 . S
C2060 C2058 1.381 . S
C2060 C2061 1.394 . S
C2060 H2068 0.930 . S
C2061 C2060 1.394 . S
C2061 C2062 1.383 . S
C2061 H2069 0.929 . S
C2062 C2061 1.383 . S
C2062 C2063 1.377 . S
C2063 H2047 0.930 . S
C2063 C2062 1.377 . S
C2063 C2064 1.379 . S
C2064 H2048 0.931 . S
C2064 C2058 1.383 . S
C2064 C2063 1.379 . S
H2065 C2059 0.959 . S
H2066 C2059 0.961 . S
H2067 C2059 0.960 . S
H2068 C2060 0.930 . S
H2069 C2061 0.929 . S
H2070 C2078 0.929 . S
H2071 C2080 0.930 . S
H2072 C2082 0.930 . S
H2073 C2085 0.929 . S
H2074 C2088 0.930 . S
H2075 C2090 0.960 . S
H2076 C2090 0.960 . S
H2077 C2090 0.960 . S
C2078 H2070 0.929 . S
C2078 C2079 1.377 . S
C2078 C2080 1.384 . S
C2079 C2078 1.377 . S
C2079 C2085 1.390 . S
C2080 H2071 0.930 . S
C2080 C2078 1.384 . S
C2080 C2081 1.372 . S
C2081 C2080 1.372 . S
C2081 C2082 1.400 . S
C2081 C2086 1.490 . S
C2082 H2072 0.930 . S
C2082 C2081 1.400 . S
C2082 C2085 1.386 . S
H2083 C2099 0.930 . S
H2084 C2100 0.931 . S
C2085 H2073 0.929 . S
C2085 C2079 1.390 . S
C2085 C2082 1.386 . S
C2086 C2081 1.490 . S
C2086 C2088 1.395 . S
C2086 C2089 1.403 . S
H2087 C2093 0.930 . S
C2088 H2074 0.930 . S
C2088 C2086 1.395 . S
C2088 C2091 1.403 . S
C2089 C2086 1.403 . S
C2089 C2090 1.524 . S
C2089 C2093 1.400 . S
C2090 H2075 0.960 . S
C2090 H2076 0.960 . S
C2090 H2077 0.960 . S
C2090 C2089 1.524 . S
C2091 C2088 1.403 . S
C2091 C2092 1.392 . S
C2091 C2095 1.495 . S
C2092 C2091 1.392 . S
C2092 C2093 1.385 . S
C2092 C2094 1.478 . S
C2093 H2087 0.930 . S
C2093 C2089 1.400 . S
C2093 C2092 1.385 . S
C2094 C2092 1.478 . S
C2094 C2096 1.381 . S
C2094 C2100 1.383 . S
C2095 C2091 1.495 . S
C2095 H2101 0.959 . S
C2095 H2102 0.961 . S
C2095 H2103 0.960 . S
C2096 C2094 1.381 . S
C2096 C2097 1.394 . S
C2096 H2104 0.930 . S
C2097 C2096 1.394 . S
C2097 C2098 1.383 . S
C2097 H2105 0.929 . S
C2098 C2097 1.383 . S
C2098 C2099 1.377 . S
C2099 H2083 0.930 . S
C2099 C2098 1.377 . S
C2099 C2100 1.379 . S
C2100 H2084 0.931 . S
C2100 C2094 1.383 . S
C2100 C2099 1.379 . S
H2101 C2095 0.959 . S
H2102 C2095 0.961 . S
H2103 C2095 0.960 . S
H2104 C2096 0.930 . S
H2105 C2097 0.929 . S
H2106 C2114 0.929 . S
H2107 C2116 0.930 . S
H2108 C2118 0.930 . S
H2109 C2121 0.929 . S
H2110 C2124 0.930 . S
H2111 C2126 0.960 . S
H2112 C2126 0.960 . S
H2113 C2126 0.960 . S
C2114 H2106 0.929 . S
C2114 C2115 1.377 . S
C2114 C2116 1.384 . S
C2115 C2114 1.377 . S
C2115 C2121 1.390 . S
C2116 H2107 0.930 . S
C2116 C2114 1.384 . S
C2116 C2117 1.372 . S
C2117 C2116 1.372 . S
C2117 C2118 1.400 . S
C2117 C2122 1.490 . S
C2118 H2108 0.930 . S
C2118 C2117 1.400 . S
C2118 C2121 1.386 . S
H2119 C2135 0.930 . S
H2120 C2136 0.931 . S
C2121 H2109 0.929 . S
C2121 C2115 1.390 . S
C2121 C2118 1.386 . S
C2122 C2117 1.490 . S
C2122 C2124 1.395 . S
C2122 C2125 1.403 . S
H2123 C2129 0.930 . S
C2124 H2110 0.930 . S
C2124 C2122 1.395 . S
C2124 C2127 1.403 . S
C2125 C2122 1.403 . S
C2125 C2126 1.524 . S
C2125 C2129 1.400 . S
C2126 H2111 0.960 . S
C2126 H2112 0.960 . S
C2126 H2113 0.960 . S
C2126 C2125 1.524 . S
C2127 C2124 1.403 . S
C2127 C2128 1.392 . S
C2127 C2131 1.495 . S
C2128 C2127 1.392 . S
C2128 C2129 1.385 . S
C2128 C2130 1.478 . S
C2129 H2123 0.930 . S
C2129 C2125 1.400 . S
C2129 C2128 1.385 . S
C2130 C2128 1.478 . S
C2130 C2132 1.381 . S
C2130 C2136 1.383 . S
C2131 C2127 1.495 . S
C2131 H2137 0.959 . S
C2131 H2138 0.961 . S
C2131 H2139 0.960 . S
C2132 C2130 1.381 . S
C2132 C2133 1.394 . S
C2132 H2140 0.930 . S
C2133 C2132 1.394 . S
C2133 C2134 1.383 . S
C2133 H2141 0.929 . S
C2134 C2133 1.383 . S
C2134 C2135 1.377 . S
C2135 H2119 0.930 . S
C2135 C2134 1.377 . S
C2135 C2136 1.379 . S
C2136 H2120 0.931 . S
C2136 C2130 1.383 . S
C2136 C2135 1.379 . S
H2137 C2131 0.959 . S
H2138 C2131 0.961 . S
H2139 C2131 0.960 . S
H2140 C2132 0.930 . S
H2141 C2133 0.929 . S
H2142 C2150 0.929 . S
H2143 C2152 0.930 . S
H2144 C2154 0.930 . S
H2145 C2157 0.929 . S
H2146 C2160 0.930 . S
H2147 C2162 0.960 . S
H2148 C2162 0.960 . S
H2149 C2162 0.960 . S
C2150 H2142 0.929 . S
C2150 C2151 1.377 . S
C2150 C2152 1.384 . S
C2151 C2150 1.377 . S
C2151 C2157 1.390 . S
C2152 H2143 0.930 . S
C2152 C2150 1.384 . S
C2152 C2153 1.372 . S
C2153 C2152 1.372 . S
C2153 C2154 1.400 . S
C2153 C2158 1.490 . S
C2154 H2144 0.930 . S
C2154 C2153 1.400 . S
C2154 C2157 1.386 . S
H2155 C2171 0.930 . S
H2156 C2172 0.931 . S
C2157 H2145 0.929 . S
C2157 C2151 1.390 . S
C2157 C2154 1.386 . S
C2158 C2153 1.490 . S
C2158 C2160 1.395 . S
C2158 C2161 1.403 . S
H2159 C2165 0.930 . S
C2160 H2146 0.930 . S
C2160 C2158 1.395 . S
C2160 C2163 1.403 . S
C2161 C2158 1.403 . S
C2161 C2162 1.524 . S
C2161 C2165 1.400 . S
C2162 H2147 0.960 . S
C2162 H2148 0.960 . S
C2162 H2149 0.960 . S
C2162 C2161 1.524 . S
C2163 C2160 1.403 . S
C2163 C2164 1.392 . S
C2163 C2167 1.495 . S
C2164 C2163 1.392 . S
C2164 C2165 1.385 . S
C2164 C2166 1.478 . S
C2165 H2159 0.930 . S
C2165 C2161 1.400 . S
C2165 C2164 1.385 . S
C2166 C2164 1.478 . S
C2166 C2168 1.381 . S
C2166 C2172 1.383 . S
C2167 C2163 1.495 . S
C2167 H2173 0.959 . S
C2167 H2174 0.961 . S
C2167 H2175 0.960 . S
C2168 C2166 1.381 . S
C2168 C2169 1.394 . S
C2168 H2176 0.930 . S
C2169 C2168 1.394 . S
C2169 C2170 1.383 . S
C2169 H2177 0.929 . S
C2170 C2169 1.383 . S
C2170 C2171 1.377 . S
C2171 H2155 0.930 . S
C2171 C2170 1.377 . S
C2171 C2172 1.379 . S
C2172 H2156 0.931 . S
C2172 C2166 1.383 . S
C2172 C2171 1.379 . S
H2173 C2167 0.959 . S
H2174 C2167 0.961 . S
H2175 C2167 0.960 . S
H2176 C2168 0.930 . S
H2177 C2169 0.929 . S
H2178 C2186 0.929 . S
H2179 C2188 0.930 . S
H2180 C2190 0.930 . S
H2181 C2193 0.929 . S
H2182 C2196 0.930 . S
H2183 C2198 0.960 . S
H2184 C2198 0.960 . S
H2185 C2198 0.960 . S
C2186 H2178 0.929 . S
C2186 C2187 1.377 . S
C2186 C2188 1.384 . S
C2187 C2186 1.377 . S
C2187 C2193 1.390 . S
C2188 H2179 0.930 . S
C2188 C2186 1.384 . S
C2188 C2189 1.372 . S
C2189 C2188 1.372 . S
C2189 C2190 1.400 . S
C2189 C2194 1.490 . S
C2190 H2180 0.930 . S
C2190 C2189 1.400 . S
C2190 C2193 1.386 . S
H2191 C2207 0.930 . S
H2192 C2208 0.931 . S
C2193 H2181 0.929 . S
C2193 C2187 1.390 . S
C2193 C2190 1.386 . S
C2194 C2189 1.490 . S
C2194 C2196 1.395 . S
C2194 C2197 1.403 . S
H2195 C2201 0.930 . S
C2196 H2182 0.930 . S
C2196 C2194 1.395 . S
C2196 C2199 1.403 . S
C2197 C2194 1.403 . S
C2197 C2198 1.524 . S
C2197 C2201 1.400 . S
C2198 H2183 0.960 . S
C2198 H2184 0.960 . S
C2198 H2185 0.960 . S
C2198 C2197 1.524 . S
C2199 C2196 1.403 . S
C2199 C2200 1.392 . S
C2199 C2203 1.495 . S
C2200 C2199 1.392 . S
C2200 C2201 1.385 . S
C2200 C2202 1.478 . S
C2201 H2195 0.930 . S
C2201 C2197 1.400 . S
C2201 C2200 1.385 . S
C2202 C2200 1.478 . S
C2202 C2204 1.381 . S
C2202 C2208 1.383 . S
C2203 C2199 1.495 . S
C2203 H2209 0.959 . S
C2203 H2210 0.961 . S
C2203 H2211 0.960 . S
C2204 C2202 1.381 . S
C2204 C2205 1.394 . S
C2204 H2212 0.930 . S
C2205 C2204 1.394 . S
C2205 C2206 1.383 . S
C2205 H2213 0.929 . S
C2206 C2205 1.383 . S
C2206 C2207 1.377 . S
C2207 H2191 0.930 . S
C2207 C2206 1.377 . S
C2207 C2208 1.379 . S
C2208 H2192 0.931 . S
C2208 C2202 1.383 . S
C2208 C2207 1.379 . S
H2209 C2203 0.959 . S
H2210 C2203 0.961 . S
H2211 C2203 0.960 . S
H2212 C2204 0.930 . S
H2213 C2205 0.929 . S
H2214 C2222 0.929 . S
H2215 C2224 0.930 . S
H2216 C2226 0.930 . S
H2217 C2229 0.929 . S
H2218 C2232 0.930 . S
H2219 C2234 0.960 . S
H2220 C2234 0.960 . S
H2221 C2234 0.960 . S
C2222 H2214 0.929 . S
C2222 C2223 1.377 . S
C2222 C2224 1.384 . S
C2223 C2222 1.377 . S
C2223 C2229 1.390 . S
C2224 H2215 0.930 . S
C2224 C2222 1.384 . S
C2224 C2225 1.372 . S
C2225 C2224 1.372 . S
C2225 C2226 1.400 . S
C2225 C2230 1.490 . S
C2226 H2216 0.930 . S
C2226 C2225 1.400 . S
C2226 C2229 1.386 . S
H2227 C2243 0.930 . S
H2228 C2244 0.931 . S
C2229 H2217 0.929 . S
C2229 C2223 1.390 . S
C2229 C2226 1.386 . S
C2230 C2225 1.490 . S
C2230 C2232 1.395 . S
C2230 C2233 1.403 . S
H2231 C2237 0.930 . S
C2232 H2218 0.930 . S
C2232 C2230 1.395 . S
C2232 C2235 1.403 . S
C2233 C2230 1.403 . S
C2233 C2234 1.524 . S
C2233 C2237 1.400 . S
C2234 H2219 0.960 . S
C2234 H2220 0.960 . S
C2234 H2221 0.960 . S
C2234 C2233 1.524 . S
C2235 C2232 1.403 . S
C2235 C2236 1.392 . S
C2235 C2239 1.495 . S
C2236 C2235 1.392 . S
C2236 C2237 1.385 . S
C2236 C2238 1.478 . S
C2237 H2231 0.930 . S
C2237 C2233 1.400 . S
C2237 C2236 1.385 . S
C2238 C2236 1.478 . S
C2238 C2240 1.381 . S
C2238 C2244 1.383 . S
C2239 C2235 1.495 . S
C2239 H2245 0.959 . S
C2239 H2246 0.961 . S
C2239 H2247 0.960 . S
C2240 C2238 1.381 . S
C2240 C2241 1.394 . S
C2240 H2248 0.930 . S
C2241 C2240 1.394 . S
C2241 C2242 1.383 . S
C2241 H2249 0.929 . S
C2242 C2241 1.383 . S
C2242 C2243 1.377 . S
C2243 H2227 0.930 . S
C2243 C2242 1.377 . S
C2243 C2244 1.379 . S
C2244 H2228 0.931 . S
C2244 C2238 1.383 . S
C2244 C2243 1.379 . S
H2245 C2239 0.959 . S
H2246 C2239 0.961 . S
H2247 C2239 0.960 . S
H2248 C2240 0.930 . S
H2249 C2241 0.929 . S
H2250 C2258 0.929 . S
H2251 C2260 0.930 . S
H2252 C2262 0.930 . S
H2253 C2265 0.929 . S
H2254 C2268 0.930 . S
H2255 C2270 0.960 . S
H2256 C2270 0.960 . S
H2257 C2270 0.960 . S
C2258 H2250 0.929 . S
C2258 C2259 1.377 . S
C2258 C2260 1.384 . S
C2259 C2258 1.377 . S
C2259 C2265 1.390 . S
C2260 H2251 0.930 . S
C2260 C2258 1.384 . S
C2260 C2261 1.372 . S
C2261 C2260 1.372 . S
C2261 C2262 1.400 . S
C2261 C2266 1.490 . S
C2262 H2252 0.930 . S
C2262 C2261 1.400 . S
C2262 C2265 1.386 . S
H2263 C2279 0.930 . S
H2264 C2280 0.931 . S
C2265 H2253 0.929 . S
C2265 C2259 1.390 . S
C2265 C2262 1.386 . S
C2266 C2261 1.490 . S
C2266 C2268 1.395 . S
C2266 C2269 1.403 . S
H2267 C2273 0.930 . S
C2268 H2254 0.930 . S
C2268 C2266 1.395 . S
C2268 C2271 1.403 . S
C2269 C2266 1.403 . S
C2269 C2270 1.524 . S
C2269 C2273 1.400 . S
C2270 H2255 0.960 . S
C2270 H2256 0.960 . S
C2270 H2257 0.960 . S
C2270 C2269 1.524 . S
C2271 C2268 1.403 . S
C2271 C2272 1.392 . S
C2271 C2275 1.495 . S
C2272 C2271 1.392 . S
C2272 C2273 1.385 . S
C2272 C2274 1.478 . S
C2273 H2267 0.930 . S
C2273 C2269 1.400 . S
C2273 C2272 1.385 . S
C2274 C2272 1.478 . S
C2274 C2276 1.381 . S
C2274 C2280 1.383 . S
C2275 C2271 1.495 . S
C2275 H2281 0.959 . S
C2275 H2282 0.961 . S
C2275 H2283 0.960 . S
C2276 C2274 1.381 . S
C2276 C2277 1.394 . S
C2276 H2284 0.930 . S
C2277 C2276 1.394 . S
C2277 C2278 1.383 . S
C2277 H2285 0.929 . S
C2278 C2277 1.383 . S
C2278 C2279 1.377 . S
C2279 H2263 0.930 . S
C2279 C2278 1.377 . S
C2279 C2280 1.379 . S
C2280 H2264 0.931 . S
C2280 C2274 1.383 . S
C2280 C2279 1.379 . S
H2281 C2275 0.959 . S
H2282 C2275 0.961 . S
H2283 C2275 0.960 . S
H2284 C2276 0.930 . S
H2285 C2277 0.929 . S
C351 C124 1.506 . S
C370 C168 1.483 . S
C387 C130 1.515 . S
C406 C188 1.502 . S
C423 C115 1.502 . S
C442 C211 1.490 . S
C459 C106 1.421 . S
C478 C191 1.412 . S
C514 C208 1.418 . S
C495 C85 1.425 . S
C531 C97 1.406 . S
C550 C171 1.388 . S
C586 C178 1.519 . S
C567 C103 1.529 . S
C622 C198 1.450 . S
C603 C88 1.492 . S
C639 C94 1.499 . S
C658 C203 1.499 . S
C675 C121 1.424 . S
C694 C183 1.427 . S
C711 C133 1.399 . S
C730 C218 1.389 . S
C766 C163 1.434 . S
C747 C112 1.429 . S
C802 C228 1.481 . S
C783 C16 1.507 . S
C819 C22 1.512 . S
C838 C248 1.475 . S
C855 C7 1.501 . S
C874 C271 1.485 . S
C891 C160 1.422 . S
C910 C251 1.405 . S
C927 C139 1.424 . S
C946 C268 1.398 . S
C963 C151 1.403 . S
C982 C231 1.396 . S
C999 C157 1.526 . S
C1018 C238 1.511 . S
C1035 C142 1.492 . S
C1054 C258 1.483 . S
C1090 C263 1.506 . S
C1071 C148 1.501 . S
C1107 C13 1.421 . S
C1126 C243 1.413 . S
C1162 C278 1.388 . S
C1143 C25 1.400 . S
C1179 C4 1.428 . S
C1198 C223 1.432 . S
C1234 C288 1.494 . S
C1215 C70 1.507 . S
C1251 C76 1.515 . S
C1270 C308 1.492 . S
C1306 C331 1.503 . S
C1287 C61 1.502 . S
C1342 C311 1.414 . S
C1323 C52 1.422 . S
C1378 C328 1.392 . S
C1359 C31 1.422 . S
C1395 C43 1.408 . S
C1414 C291 1.398 . S
C1431 C49 1.528 . S
C1450 C298 1.493 . S
C1467 C34 1.489 . S
C1486 C318 1.452 . S
C1522 C323 1.483 . S
C1503 C40 1.501 . S
C1539 C67 1.422 . S
C1558 C303 1.422 . S
C1575 C79 1.400 . S
C1594 C338 1.369 . S
C1611 C58 1.428 . S
C1630 C283 1.410 . S
C1647 C140 1.256 . S
C1666 C181 1.248 1_565 S
C1702 C201 1.583 . S
C1683 C149 1.621 . S
C1719 C158 1.477 . S
C1738 C210 1.456 . S
C1755 C59 1.645 . S
C1774 C190 1.577 1_655 S
C1791 C68 1.449 . S
C1810 C221 1.391 . S
C1846 C170 1.224 1_545 S
C1827 C77 1.256 . S
C1863 C32 1.257 . S
C1882 C241 1.210 . S
C1899 C41 1.623 . S
C1918 C261 1.551 . S
C1935 C50 1.475 . S
C1954 C270 1.417 . S
C1971 C113 1.648 . S
C1990 C250 1.600 . S
C2026 C281 1.384 . S
C2007 C122 1.450 . S
C2043 C131 1.254 . S
C2062 C230 1.214 . S
C2079 C86 1.257 . S
C2098 C301 1.239 . S
C2115 C95 1.622 . S
C2134 C321 1.591 . S
C2170 C330 1.409 . S
C2151 C104 1.474 . S
C2187 C5 1.644 . S
C2206 C310 1.566 . S
C2223 C14 1.450 . S
C2242 C341 1.385 . S
C2259 C23 1.254 . S
C2278 C290 1.205 . S
