# Generated by pormake.
# Topology wbl, (4,4)-cn, num edge types: 1
# Building blocks:
#     Node 0, Type 0, BuildingBlock: MUDLON_clean_linker_0, # of connection points: 4
#     Node 1, Type 0, BuildingBlock: MUDLON_clean_linker_0, # of connection points: 4
#     Node 2, Type 0, BuildingBlock: MUDLON_clean_linker_0, # of connection points: 4
#     Node 3, Type 0, BuildingBlock: MUDLON_clean_linker_0, # of connection points: 4
#     Node 4, Type 0, BuildingBlock: MUDLON_clean_linker_0, # of connection points: 4
#     Node 5, Type 0, BuildingBlock: MUDLON_clean_linker_0, # of connection points: 4
#     Node 6, Type 0, BuildingBlock: MUDLON_clean_linker_0, # of connection points: 4
#     Node 7, Type 0, BuildingBlock: MUDLON_clean_linker_0, # of connection points: 4
#     Node 8, Type 1, BuildingBlock: GALJAG_clean_sbu_0, # of connection points: 4
#     Node 9, Type 1, BuildingBlock: GALJAG_clean_sbu_0, # of connection points: 4
#     Node 10, Type 1, BuildingBlock: GALJAG_clean_sbu_0, # of connection points: 4
#     Node 11, Type 1, BuildingBlock: GALJAG_clean_sbu_0, # of connection points: 4
#     Node 12, Type 1, BuildingBlock: GALJAG_clean_sbu_0, # of connection points: 4
#     Node 13, Type 1, BuildingBlock: GALJAG_clean_sbu_0, # of connection points: 4
#     Node 14, Type 1, BuildingBlock: GALJAG_clean_sbu_0, # of connection points: 4
#     Node 15, Type 1, BuildingBlock: GALJAG_clean_sbu_0, # of connection points: 4
#     Edge 16, Type (0, 1), BuildingBlock: XUDNAN_clean_linker_2, # of connection points: 2
#     Edge 17, Type (0, 1), BuildingBlock: XUDNAN_clean_linker_2, # of connection points: 2
#     Edge 18, Type (0, 1), BuildingBlock: XUDNAN_clean_linker_2, # of connection points: 2
#     Edge 19, Type (0, 1), BuildingBlock: XUDNAN_clean_linker_2, # of connection points: 2
#     Edge 20, Type (0, 1), BuildingBlock: XUDNAN_clean_linker_2, # of connection points: 2
#     Edge 21, Type (0, 1), BuildingBlock: XUDNAN_clean_linker_2, # of connection points: 2
#     Edge 22, Type (0, 1), BuildingBlock: XUDNAN_clean_linker_2, # of connection points: 2
#     Edge 23, Type (0, 1), BuildingBlock: XUDNAN_clean_linker_2, # of connection points: 2
#     Edge 24, Type (0, 1), BuildingBlock: XUDNAN_clean_linker_2, # of connection points: 2
#     Edge 25, Type (0, 1), BuildingBlock: XUDNAN_clean_linker_2, # of connection points: 2
#     Edge 26, Type (0, 1), BuildingBlock: XUDNAN_clean_linker_2, # of connection points: 2
#     Edge 27, Type (0, 1), BuildingBlock: XUDNAN_clean_linker_2, # of connection points: 2
#     Edge 28, Type (0, 1), BuildingBlock: XUDNAN_clean_linker_2, # of connection points: 2
#     Edge 29, Type (0, 1), BuildingBlock: XUDNAN_clean_linker_2, # of connection points: 2
#     Edge 30, Type (0, 1), BuildingBlock: XUDNAN_clean_linker_2, # of connection points: 2
#     Edge 31, Type (0, 1), BuildingBlock: XUDNAN_clean_linker_2, # of connection points: 2
#     Edge 32, Type (0, 1), BuildingBlock: XUDNAN_clean_linker_2, # of connection points: 2
#     Edge 33, Type (0, 1), BuildingBlock: XUDNAN_clean_linker_2, # of connection points: 2
#     Edge 34, Type (0, 1), BuildingBlock: XUDNAN_clean_linker_2, # of connection points: 2
#     Edge 35, Type (0, 1), BuildingBlock: XUDNAN_clean_linker_2, # of connection points: 2
#     Edge 36, Type (0, 1), BuildingBlock: XUDNAN_clean_linker_2, # of connection points: 2
#     Edge 37, Type (0, 1), BuildingBlock: XUDNAN_clean_linker_2, # of connection points: 2
#     Edge 38, Type (0, 1), BuildingBlock: XUDNAN_clean_linker_2, # of connection points: 2
#     Edge 39, Type (0, 1), BuildingBlock: XUDNAN_clean_linker_2, # of connection points: 2
#     Edge 40, Type (0, 1), BuildingBlock: XUDNAN_clean_linker_2, # of connection points: 2
#     Edge 41, Type (0, 1), BuildingBlock: XUDNAN_clean_linker_2, # of connection points: 2
#     Edge 42, Type (0, 1), BuildingBlock: XUDNAN_clean_linker_2, # of connection points: 2
#     Edge 43, Type (0, 1), BuildingBlock: XUDNAN_clean_linker_2, # of connection points: 2
#     Edge 44, Type (0, 1), BuildingBlock: XUDNAN_clean_linker_2, # of connection points: 2
#     Edge 45, Type (0, 1), BuildingBlock: XUDNAN_clean_linker_2, # of connection points: 2
#     Edge 46, Type (0, 1), BuildingBlock: XUDNAN_clean_linker_2, # of connection points: 2
#     Edge 47, Type (0, 1), BuildingBlock: XUDNAN_clean_linker_2, # of connection points: 2
# Relax obj value: 0.117
# Max RMSD: 0.153
# Mean RMSD: 0.139
data_MOF--net-wbl--node1-GALJAG_clean_sbu_0--node2-MUDLON_clean_linker_0--edge1-XUDNAN_clean_linker_2
_symmetry_space_group_name_H-M    P1
_symmetry_Int_Tables_number       1
_symmetry_cell_setting            triclinic
loop_
_symmetry_equiv_pos_as_xyz
'x, y, z'
_cell_length_a     52.556334
_cell_length_b     52.675741
_cell_length_c     85.391779
_cell_angle_alpha  90.018673
_cell_angle_beta   90.021989
_cell_angle_gamma 90.039696
loop_
_atom_site_label
_atom_site_type_symbol
_atom_site_fract_x
_atom_site_fract_y
_atom_site_fract_z
_atom_type_partial_charge
H0 H 0.11039 0.98047 0.36189 0.0
N1 N 0.09211 0.96626 0.33417 0.0
H2 H 0.11979 0.95329 0.38444 0.0
H3 H 0.07906 0.91614 0.33733 0.0
H4 H 0.08739 0.88919 0.35986 0.0
H5 H 0.07432 0.93619 0.31029 0.0
H6 H 0.10046 0.91429 0.29082 0.0
H7 H 0.14112 0.97301 0.32873 0.0
H8 H 0.16755 0.95056 0.3099 0.0
H9 H 0.08442 0.01355 0.32461 0.0
H10 H 0.04438 0.94463 0.33624 0.0
H11 H 0.04381 0.03533 0.32084 0.0
H12 H 0.00414 0.9664 0.33366 0.0
H13 H 0.93309 0.09981 0.34445 0.0
H14 H 0.92851 0.1167 0.37078 0.0
H15 H 0.90518 0.04271 0.38728 0.0
H16 H 0.90926 0.02598 0.36059 0.0
H17 H 0.876 0.04214 0.32631 0.0
H18 H 0.8497 0.06761 0.3087 0.0
H19 H 0.91413 0.11617 0.29912 0.0
H20 H 0.94036 0.0904 0.31677 0.0
H21 H 0.97042 0.07321 0.33855 0.0
H22 H 0.01125 0.05228 0.33581 0.0
H23 H 0.97333 0.98513 0.31819 0.0
N24 N 0.9235 0.05089 0.33497 0.0
H25 H 0.93223 0.00584 0.32215 0.0
C26 C 0.09402 0.95049 0.34795 0.0
C27 C 0.10499 0.96064 0.36153 0.0
C28 C 0.11025 0.94508 0.3744 0.0
C29 C 0.10454 0.91898 0.37391 0.0
C30 C 0.09248 0.90909 0.36053 0.0
C31 C 0.08744 0.92459 0.34766 0.0
C32 C 0.10587 0.95638 0.32092 0.0
C33 C 0.09455 0.93995 0.30995 0.0
C34 C 0.1096 0.92721 0.29893 0.0
C35 C 0.1362 0.93048 0.29879 0.0
C36 C 0.14715 0.94783 0.30937 0.0
C37 C 0.13211 0.96067 0.32023 0.0
C38 C 0.06766 0.97767 0.33103 0.0
C39 C 0.06687 0.00315 0.32638 0.0
C40 C 0.04361 0.01559 0.32436 0.0
C41 C 0.02051 0.00283 0.32716 0.0
C42 C 0.02138 0.97692 0.3312 0.0
C43 C 0.04463 0.9644 0.33293 0.0
C44 C 0.92129 0.06153 0.3505 0.0
C45 C 0.9269 0.08716 0.35364 0.0
C46 C 0.92452 0.09679 0.3688 0.0
C47 C 0.91653 0.08105 0.38116 0.0
C48 C 0.9111 0.0554 0.378 0.0
C49 C 0.9135 0.04579 0.36281 0.0
C50 C 0.90997 0.06439 0.3229 0.0
C51 C 0.88453 0.05797 0.32014 0.0
C52 C 0.8696 0.0725 0.31004 0.0
C53 C 0.87984 0.09394 0.30254 0.0
C54 C 0.90569 0.09986 0.30484 0.0
C55 C 0.9207 0.08511 0.31487 0.0
C56 C 0.94813 0.04078 0.33094 0.0
C57 C 0.9708 0.05404 0.33407 0.0
C58 C 0.99433 0.04203 0.33229 0.0
C59 C 0.99576 0.01673 0.32701 0.0
C60 C 0.97305 0.0043 0.32275 0.0
C61 C 0.94952 0.01618 0.32482 0.0
H62 H 0.97511 0.39552 0.6084 0.0
N63 N 0.95826 0.41316 0.58112 0.0
H64 H 0.95 0.3861 0.63187 0.0
H65 H 0.90799 0.42479 0.58571 0.0
H66 H 0.88308 0.41631 0.60911 0.0
H67 H 0.92388 0.42762 0.55865 0.0
H68 H 0.90097 0.39865 0.54105 0.0
H69 H 0.96983 0.36537 0.57506 0.0
H70 H 0.94742 0.33645 0.5574 0.0
H71 H 0.00552 0.42205 0.57173 0.0
H72 H 0.93507 0.46001 0.58255 0.0
H73 H 0.02667 0.46311 0.56893 0.0
H74 H 0.95621 0.50076 0.58106 0.0
H75 H 0.09159 0.57024 0.59025 0.0
H76 H 0.11627 0.57941 0.61369 0.0
H77 H 0.04893 0.60942 0.63605 0.0
H78 H 0.02407 0.59938 0.61253 0.0
H79 H 0.03474 0.63134 0.58025 0.0
H80 H 0.05826 0.65866 0.56213 0.0
H81 H 0.09774 0.59311 0.54399 0.0
H82 H 0.07426 0.56584 0.5623 0.0
H83 H 0.06327 0.53485 0.58883 0.0
H84 H 0.04238 0.49448 0.58503 0.0
H85 H 0.97564 0.53317 0.56742 0.0
N86 N 0.04158 0.58226 0.58524 0.0
H87 H 0.99628 0.57394 0.57248 0.0
C88 C 0.94357 0.41085 0.59532 0.0
C89 C 0.9551 0.40041 0.60863 0.0
C90 C 0.94073 0.39513 0.62202 0.0
C91 C 0.91447 0.40029 0.62232 0.0
C92 C 0.90316 0.41169 0.60917 0.0
C93 C 0.91749 0.41679 0.59579 0.0
C94 C 0.94846 0.39849 0.56824 0.0
C95 C 0.9295 0.40788 0.55815 0.0
C96 C 0.91644 0.39132 0.5481 0.0
C97 C 0.92212 0.36523 0.54809 0.0
C98 C 0.94231 0.35638 0.55738 0.0
C99 C 0.95531 0.37286 0.56734 0.0
C100 C 0.96893 0.43778 0.57769 0.0
C101 C 0.99462 0.43927 0.57345 0.0
C102 C 0.00671 0.46279 0.57204 0.0
C103 C 0.99341 0.48546 0.57512 0.0
C104 C 0.9672 0.4839 0.57849 0.0
C105 C 0.95503 0.46037 0.57956 0.0
C106 C 0.05586 0.58413 0.59965 0.0
C107 C 0.08195 0.57825 0.60028 0.0
C108 C 0.09612 0.58372 0.61368 0.0
C109 C 0.08465 0.59546 0.62667 0.0
C110 C 0.05831 0.6002 0.6263 0.0
C111 C 0.04409 0.59456 0.61288 0.0
C112 C 0.0526 0.59665 0.57259 0.0
C113 C 0.04808 0.62283 0.57213 0.0
C114 C 0.06168 0.63838 0.56191 0.0
C115 C 0.07999 0.62799 0.55181 0.0
C116 C 0.08366 0.60155 0.55165 0.0
C117 C 0.07021 0.58598 0.56205 0.0
C118 C 0.03106 0.5577 0.58135 0.0
C119 C 0.04416 0.53488 0.58421 0.0
C120 C 0.03218 0.51152 0.58178 0.0
C121 C 0.00707 0.51031 0.57604 0.0
C122 C 0.99467 0.5332 0.57226 0.0
C123 C 0.0065 0.55657 0.575 0.0
H124 H 0.62009 0.47435 0.84522 0.0
N125 N 0.58276 0.45259 0.82901 0.0
H126 H 0.63313 0.46515 0.87224 0.0
H127 H 0.55991 0.41908 0.84913 0.0
H128 H 0.57257 0.40999 0.87595 0.0
H129 H 0.58172 0.40057 0.82761 0.0
H130 H 0.60884 0.37435 0.81124 0.0
H131 H 0.60819 0.46767 0.80382 0.0
H132 H 0.63369 0.44143 0.78628 0.0
H133 H 0.57559 0.5011 0.82213 0.0
H134 H 0.53576 0.43046 0.82833 0.0
H135 H 0.53521 0.52352 0.81976 0.0
H136 H 0.49524 0.45277 0.82787 0.0
H137 H 0.42298 0.59216 0.83794 0.0
H138 H 0.41742 0.61783 0.86123 0.0
H139 H 0.40614 0.54965 0.88865 0.0
H140 H 0.40969 0.52418 0.86481 0.0
H141 H 0.36601 0.53721 0.83316 0.0
H142 H 0.33824 0.56037 0.8151 0.0
H143 H 0.40419 0.59156 0.79193 0.0
H144 H 0.43195 0.56874 0.81026 0.0
H145 H 0.46415 0.56084 0.83915 0.0
H146 H 0.50393 0.53894 0.83509 0.0
H147 H 0.46306 0.47439 0.8162 0.0
N148 N 0.41612 0.54065 0.83557 0.0
H149 H 0.42294 0.49583 0.82184 0.0
C150 C 0.58909 0.44751 0.84513 0.0
C151 C 0.6096 0.46041 0.85195 0.0
C152 C 0.61694 0.45518 0.86735 0.0
C153 C 0.6039 0.43678 0.87618 0.0
C154 C 0.58317 0.42405 0.86937 0.0
C155 C 0.57577 0.42941 0.85402 0.0
C156 C 0.59363 0.43625 0.81728 0.0
C157 C 0.59291 0.40966 0.8186 0.0
C158 C 0.60832 0.39456 0.80902 0.0
C159 C 0.62418 0.40571 0.79763 0.0
C160 C 0.62262 0.43215 0.79531 0.0
C161 C 0.60776 0.44723 0.80516 0.0
C162 C 0.55863 0.46437 0.82588 0.0
C163 C 0.55799 0.4905 0.82306 0.0
C164 C 0.5348 0.5033 0.82195 0.0
C165 C 0.51163 0.49029 0.82412 0.0
C166 C 0.51244 0.46368 0.8261 0.0
C167 C 0.53571 0.45081 0.82669 0.0
C168 C 0.41606 0.55615 0.84956 0.0
C169 C 0.41914 0.58268 0.84892 0.0
C170 C 0.41631 0.5974 0.86239 0.0
C171 C 0.41103 0.58597 0.87693 0.0
C172 C 0.40945 0.55928 0.87764 0.0
C173 C 0.41175 0.5446 0.86407 0.0
C174 C 0.40096 0.55104 0.82302 0.0
C175 C 0.37446 0.54863 0.82398 0.0
C176 C 0.35868 0.56203 0.81379 0.0
C177 C 0.36914 0.5779 0.80227 0.0
C178 C 0.39572 0.57937 0.80071 0.0
C179 C 0.41156 0.56622 0.81111 0.0
C180 C 0.44032 0.52967 0.83122 0.0
C181 C 0.4636 0.54195 0.83421 0.0
C182 C 0.48661 0.52938 0.83161 0.0
C183 C 0.48707 0.50454 0.82542 0.0
C184 C 0.46371 0.49309 0.82144 0.0
C185 C 0.44067 0.50542 0.82447 0.0
H186 H 0.47819 0.89807 0.10898 0.0
N187 N 0.46386 0.92321 0.08351 0.0
H188 H 0.45344 0.89142 0.13289 0.0
H189 H 0.41978 0.94759 0.09118 0.0
H190 H 0.39536 0.94196 0.1152 0.0
H191 H 0.42697 0.94049 0.06372 0.0
H192 H 0.40081 0.91402 0.04626 0.0
H193 H 0.47184 0.87516 0.07605 0.0
H194 H 0.44615 0.84863 0.05874 0.0
H195 H 0.51082 0.91894 0.07259 0.0
H196 H 0.45408 0.97439 0.08498 0.0
H197 H 0.5415 0.95284 0.06775 0.0
H198 H 0.48498 0.00837 0.08121 0.0
H199 H 0.63535 0.07367 0.09128 0.0
H200 H 0.64065 0.093 0.11703 0.0
H201 H 0.55895 0.09165 0.12345 0.0
H202 H 0.55394 0.0744 0.09724 0.0
H203 H 0.5697 0.10829 0.07301 0.0
H204 H 0.58436 0.1418 0.05542 0.0
H205 H 0.63745 0.08922 0.03436 0.0
H206 H 0.62352 0.0563 0.05263 0.0
H207 H 0.59805 0.01329 0.08356 0.0
H208 H 0.56597 0.97994 0.08319 0.0
H209 H 0.5111 0.03328 0.06466 0.0
N210 N 0.59221 0.06186 0.07678 0.0
H211 H 0.54331 0.06687 0.06584 0.0
C212 C 0.45097 0.92338 0.09838 0.0
C213 C 0.46037 0.9081 0.11047 0.0
C214 C 0.4462 0.9044 0.12413 0.0
C215 C 0.42227 0.91602 0.12594 0.0
C216 C 0.41349 0.93238 0.11409 0.0
C217 C 0.42761 0.93589 0.1004 0.0
C218 C 0.45121 0.9096 0.07118 0.0
C219 C 0.43142 0.92054 0.06244 0.0
C220 C 0.41648 0.90539 0.05254 0.0
C221 C 0.42134 0.8792 0.05115 0.0
C222 C 0.44206 0.86876 0.05933 0.0
C223 C 0.45677 0.88383 0.06925 0.0
C224 C 0.48038 0.944 0.07943 0.0
C225 C 0.50501 0.93849 0.07424 0.0
C226 C 0.52257 0.95793 0.07164 0.0
C227 C 0.516 0.98344 0.07442 0.0
C228 C 0.4908 0.98902 0.07888 0.0
C229 C 0.47307 0.9695 0.08122 0.0
C230 C 0.5944 0.07222 0.09238 0.0
C231 C 0.61866 0.07759 0.09831 0.0
C232 C 0.6216 0.08845 0.11312 0.0
C233 C 0.60026 0.0938 0.12253 0.0
C234 C 0.57588 0.08825 0.11655 0.0
C235 C 0.57295 0.07796 0.10156 0.0
C236 C 0.59595 0.07992 0.06429 0.0
C237 C 0.58415 0.10389 0.06441 0.0
C238 C 0.59251 0.12302 0.05425 0.0
C239 C 0.61254 0.11843 0.04366 0.0
C240 C 0.62253 0.09369 0.04265 0.0
C241 C 0.61441 0.07473 0.05294 0.0
C242 C 0.57323 0.0424 0.07461 0.0
C243 C 0.57918 0.01763 0.07922 0.0
C244 C 0.56077 0.99857 0.07889 0.0
C245 C 0.53583 0.00374 0.07377 0.0
C246 C 0.52999 0.02859 0.06881 0.0
C247 C 0.54847 0.0478 0.0693 0.0
H248 H 0.13168 0.52785 0.89811 0.0
N249 N 0.09382 0.53156 0.91866 0.0
H250 H 0.13648 0.55106 0.87337 0.0
H251 H 0.05759 0.56135 0.90451 0.0
H252 H 0.06196 0.58392 0.87989 0.0
H253 H 0.08516 0.58172 0.9255 0.0
H254 H 0.11037 0.6078 0.9431 0.0
H255 H 0.12626 0.51518 0.94026 0.0
H256 H 0.15005 0.54064 0.95911 0.0
H257 H 0.09599 0.48141 0.91932 0.0
H258 H 0.0453 0.5441 0.92747 0.0
H259 H 0.06156 0.45163 0.9243 0.0
H260 H 0.00974 0.51482 0.93041 0.0
H261 H 0.92884 0.36855 0.91425 0.0
H262 H 0.90933 0.36354 0.88853 0.0
H263 H 0.92347 0.44303 0.87893 0.0
H264 H 0.94062 0.44817 0.90515 0.0
H265 H 0.90494 0.44092 0.92909 0.0
H266 H 0.86909 0.43475 0.94703 0.0
H267 H 0.91075 0.37567 0.97084 0.0
H268 H 0.9463 0.38135 0.95249 0.0
H269 H 0.99247 0.40417 0.91421 0.0
H270 H 0.0278 0.4336 0.91316 0.0
H271 H 0.98639 0.48547 0.94315 0.0
N272 N 0.94721 0.41076 0.92715 0.0
H273 H 0.95013 0.45692 0.94268 0.0
C274 C 0.09436 0.54271 0.90321 0.0
C275 C 0.11624 0.53972 0.89401 0.0
C276 C 0.11889 0.55291 0.87988 0.0
C277 C 0.09967 0.56948 0.87474 0.0
C278 C 0.07726 0.57156 0.88363 0.0
C279 C 0.07463 0.55837 0.89772 0.0
C280 C 0.10442 0.54652 0.9312 0.0
C281 C 0.09925 0.57258 0.93279 0.0
C282 C 0.1136 0.58751 0.94309 0.0
C283 C 0.13289 0.57659 0.95237 0.0
C284 C 0.13618 0.55005 0.95176 0.0
C285 C 0.12233 0.5353 0.94116 0.0
C286 C 0.07302 0.51486 0.92241 0.0
C287 C 0.07718 0.48868 0.9219 0.0
C288 C 0.05725 0.47169 0.92455 0.0
C289 C 0.03228 0.4805 0.92725 0.0
C290 C 0.02846 0.50698 0.92838 0.0
C291 C 0.04874 0.52395 0.92632 0.0
C292 C 0.93659 0.40851 0.91157 0.0
C293 C 0.92761 0.38484 0.90655 0.0
C294 C 0.91667 0.38202 0.89173 0.0
C295 C 0.91493 0.4028 0.8814 0.0
C296 C 0.92399 0.4266 0.88652 0.0
C297 C 0.93425 0.42953 0.90151 0.0
C298 C 0.92816 0.41124 0.93934 0.0
C299 C 0.90653 0.4269 0.9383 0.0
C300 C 0.88607 0.42337 0.94853 0.0
C301 C 0.88714 0.40459 0.96019 0.0
C302 C 0.90952 0.39033 0.96197 0.0
C303 C 0.92979 0.39354 0.95155 0.0
C304 C 0.96859 0.42801 0.9285 0.0
C305 C 0.9911 0.42187 0.92061 0.0
C306 C 0.01151 0.43879 0.92019 0.0
C307 C 0.01044 0.46218 0.92819 0.0
C308 C 0.98803 0.46802 0.93656 0.0
C309 C 0.9672 0.45137 0.9365 0.0
H310 H 0.50955 0.38404 0.14962 0.0
N311 N 0.5342 0.4088 0.17205 0.0
H312 H 0.52336 0.37689 0.12258 0.0
H313 H 0.57795 0.4268 0.15861 0.0
H314 H 0.59176 0.42006 0.13164 0.0
H315 H 0.57549 0.43037 0.18635 0.0
H316 H 0.60598 0.4082 0.20337 0.0
H317 H 0.52926 0.36294 0.18416 0.0
H318 H 0.55917 0.3408 0.20126 0.0
H319 H 0.48906 0.40959 0.18581 0.0
H320 H 0.54704 0.4585 0.16682 0.0
H321 H 0.46096 0.44607 0.18931 0.0
H322 H 0.51864 0.49488 0.16932 0.0
H323 H 0.37353 0.5544 0.15612 0.0
H324 H 0.36818 0.57004 0.12933 0.0
H325 H 0.44733 0.59247 0.12857 0.0
H326 H 0.45255 0.57609 0.15516 0.0
H327 H 0.44452 0.59717 0.17974 0.0
H328 H 0.43402 0.63129 0.19781 0.0
H329 H 0.36507 0.59163 0.21078 0.0
H330 H 0.37672 0.55683 0.19331 0.0
H331 H 0.40623 0.50615 0.1705 0.0
H332 H 0.43637 0.47117 0.17248 0.0
H333 H 0.49585 0.52432 0.18487 0.0
N334 N 0.41536 0.55519 0.17347 0.0
H335 H 0.46574 0.55921 0.18213 0.0
C336 C 0.54263 0.40585 0.15611 0.0
C337 C 0.52745 0.39201 0.1457 0.0
C338 C 0.53533 0.38806 0.13027 0.0
C339 C 0.55867 0.39792 0.12497 0.0
C340 C 0.57383 0.41197 0.13542 0.0
C341 C 0.56588 0.41595 0.15085 0.0
C342 C 0.55031 0.39806 0.18391 0.0
C343 C 0.57175 0.41093 0.18972 0.0
C344 C 0.5891 0.39827 0.19943 0.0
C345 C 0.58497 0.37276 0.20363 0.0
C346 C 0.56275 0.36053 0.19843 0.0
C347 C 0.54568 0.37306 0.18862 0.0
C348 C 0.51985 0.43122 0.17582 0.0
C349 C 0.49574 0.42829 0.18251 0.0
C350 C 0.47964 0.44915 0.18432 0.0
C351 C 0.48723 0.47343 0.17925 0.0
C352 C 0.5121 0.47655 0.1734 0.0
C353 C 0.52836 0.45567 0.17182 0.0
C354 C 0.41331 0.56407 0.15759 0.0
C355 C 0.38968 0.5626 0.15009 0.0
C356 C 0.38666 0.57173 0.13486 0.0
C357 C 0.40731 0.58263 0.12682 0.0
C358 C 0.43111 0.58395 0.13436 0.0
C359 C 0.4341 0.57474 0.14961 0.0
C360 C 0.41152 0.57418 0.18536 0.0
C361 C 0.4276 0.59537 0.18683 0.0
C362 C 0.4213 0.61516 0.19702 0.0
C363 C 0.39854 0.61444 0.20571 0.0
C364 C 0.38294 0.59278 0.20453 0.0
C365 C 0.38948 0.57287 0.1945 0.0
C366 C 0.43351 0.53523 0.17627 0.0
C367 C 0.42572 0.51015 0.17382 0.0
C368 C 0.44301 0.49018 0.17508 0.0
C369 C 0.46863 0.4948 0.17896 0.0
C370 C 0.47636 0.52002 0.18171 0.0
C371 C 0.45902 0.54007 0.18029 0.0
H372 H 0.38877 0.97799 0.39103 0.0
N373 N 0.41218 0.96631 0.41761 0.0
H374 H 0.38552 0.95202 0.36738 0.0
H375 H 0.43751 0.92186 0.4121 0.0
H376 H 0.43555 0.89638 0.38832 0.0
H377 H 0.43307 0.93473 0.43953 0.0
H378 H 0.40945 0.90951 0.45889 0.0
H379 H 0.36312 0.96903 0.42407 0.0
H380 H 0.33932 0.94391 0.44305 0.0
H381 H 0.40705 0.0143 0.42629 0.0
H382 H 0.46365 0.95699 0.41732 0.0
H383 H 0.44057 0.04573 0.4304 0.0
H384 H 0.4972 0.98844 0.42032 0.0
H385 H 0.56394 0.13797 0.40762 0.0
H386 H 0.5845 0.14205 0.38216 0.0
H387 H 0.58056 0.06052 0.37626 0.0
H388 H 0.56198 0.05664 0.4022 0.0
H389 H 0.59468 0.06878 0.42633 0.0
H390 H 0.62904 0.07904 0.44456 0.0
H391 H 0.58366 0.13981 0.46388 0.0
H392 H 0.54924 0.12923 0.44563 0.0
H393 H 0.50226 0.10097 0.41446 0.0
H394 H 0.46872 0.06907 0.41508 0.0
H395 H 0.521 0.01579 0.43628 0.0
N396 N 0.55061 0.09568 0.4224 0.0
H397 H 0.55472 0.04741 0.43477 0.0
C398 C 0.41344 0.95202 0.40325 0.0
C399 C 0.39928 0.96035 0.39036 0.0
C400 C 0.39759 0.9455 0.37683 0.0
C401 C 0.41023 0.92199 0.37591 0.0
C402 C 0.42523 0.91415 0.38868 0.0
C403 C 0.42665 0.92889 0.40226 0.0
C404 C 0.3997 0.95373 0.43042 0.0
C405 C 0.41267 0.93704 0.44047 0.0
C406 C 0.39913 0.92259 0.45145 0.0
C407 C 0.37247 0.92468 0.45255 0.0
C408 C 0.35984 0.9421 0.44278 0.0
C409 C 0.37335 0.95643 0.43187 0.0
C410 C 0.4327 0.98348 0.4212 0.0
C411 C 0.42675 0.00854 0.4252 0.0
C412 C 0.44598 0.02651 0.42739 0.0
C413 C 0.47171 0.01987 0.42538 0.0
C414 C 0.47769 0.99435 0.42205 0.0
C415 C 0.45839 0.97627 0.42014 0.0
C416 C 0.56106 0.09717 0.40678 0.0
C417 C 0.56747 0.12105 0.40075 0.0
C418 C 0.57906 0.1233 0.38611 0.0
C419 C 0.58414 0.10163 0.37696 0.0
C420 C 0.57739 0.07765 0.38298 0.0
C421 C 0.56633 0.07539 0.3978 0.0
C422 C 0.56938 0.09837 0.43462 0.0
C423 C 0.59191 0.08396 0.4347 0.0
C424 C 0.61162 0.08998 0.44505 0.0
C425 C 0.60918 0.11044 0.45553 0.0
C426 C 0.58607 0.12385 0.45602 0.0
C427 C 0.56641 0.11787 0.44562 0.0
C428 C 0.53093 0.07686 0.42465 0.0
C429 C 0.50634 0.08248 0.4194 0.0
C430 C 0.48715 0.06419 0.41988 0.0
C431 C 0.49199 0.03973 0.42582 0.0
C432 C 0.51658 0.03426 0.43144 0.0
C433 C 0.53592 0.05253 0.43076 0.0
H434 H 0.05689 0.89757 0.65494 0.0
N435 N 0.07783 0.93995 0.66864 0.0
H436 H 0.0636 0.88297 0.6282 0.0
H437 H 0.10679 0.96121 0.64672 0.0
H438 H 0.11387 0.94638 0.61978 0.0
H439 H 0.12295 0.93224 0.6818 0.0
H440 H 0.13462 0.89947 0.70085 0.0
H441 H 0.04535 0.90572 0.68239 0.0
H442 H 0.05686 0.87269 0.70099 0.0
H443 H 0.02805 0.93111 0.65999 0.0
H444 H 0.07751 0.98443 0.6833 0.0
H445 H 0.99238 0.95966 0.66343 0.0
H446 H 0.04133 0.01294 0.68747 0.0
H447 H 0.88024 0.04868 0.66675 0.0
H448 H 0.8621 0.05568 0.6407 0.0
H449 H 0.93623 0.07815 0.62368 0.0
H450 H 0.95384 0.07202 0.64972 0.0
H451 H 0.95041 0.10266 0.67124 0.0
H452 H 0.94513 0.14041 0.68745 0.0
H453 H 0.89542 0.09867 0.71838 0.0
H454 H 0.9014 0.06047 0.70226 0.0
H455 H 0.92752 0.00671 0.68147 0.0
H456 H 0.96373 0.97754 0.68172 0.0
H457 H 0.01445 0.04062 0.673 0.0
N458 N 0.92791 0.05621 0.67593 0.0
H459 H 0.97852 0.06949 0.67347 0.0
C460 C 0.08125 0.93073 0.65285 0.0
C461 C 0.0692 0.90853 0.6474 0.0
C462 C 0.07299 0.90019 0.63205 0.0
C463 C 0.08916 0.91361 0.6219 0.0
C464 C 0.10138 0.93562 0.62739 0.0
C465 C 0.09732 0.94415 0.6427 0.0
C466 C 0.08336 0.92158 0.6807 0.0
C467 C 0.10843 0.91946 0.68614 0.0
C468 C 0.11507 0.90062 0.69691 0.0
C469 C 0.09669 0.8834 0.70245 0.0
C470 C 0.07143 0.88585 0.69718 0.0
C471 C 0.06481 0.90473 0.68644 0.0
C472 C 0.05577 0.95577 0.6712 0.0
C473 C 0.03133 0.94888 0.66595 0.0
C474 C 0.0107 0.96522 0.66811 0.0
C475 C 0.01388 0.98871 0.67572 0.0
C476 C 0.03821 0.99523 0.68133 0.0
C477 C 0.05889 0.97892 0.67905 0.0
C478 C 0.91833 0.05963 0.66024 0.0
C479 C 0.89251 0.05503 0.65734 0.0
C480 C 0.88225 0.05889 0.64243 0.0
C481 C 0.89771 0.06743 0.63005 0.0
C482 C 0.92369 0.07188 0.63296 0.0
C483 C 0.93388 0.06815 0.6479 0.0
C484 C 0.92665 0.07847 0.68573 0.0
C485 C 0.93892 0.1013 0.6817 0.0
C486 C 0.93578 0.12296 0.69094 0.0
C487 C 0.91993 0.12241 0.70418 0.0
C488 C 0.9077 0.09961 0.70821 0.0
C489 C 0.9112 0.07781 0.6991 0.0
C490 C 0.95009 0.04025 0.67741 0.0
C491 C 0.94654 0.0142 0.67987 0.0
C492 C 0.96724 0.99757 0.67985 0.0
C493 C 0.99207 0.00664 0.67721 0.0
C494 C 0.9957 0.03292 0.67524 0.0
C495 C 0.97498 0.04956 0.6754 0.0
In496 In 0.33003 0.67904 0.00165 0.0
O497 O 0.31799 0.71834 0.01052 0.0
O498 O 0.35633 0.71311 0.00321 0.0
C499 C 0.28139 0.66435 0.99647 0.0
C500 C 0.35223 0.65648 0.02667 0.0
C501 C 0.34918 0.66719 0.9732 0.0
O502 O 0.28801 0.68738 0.99594 0.0
O503 O 0.29898 0.64916 -2e-05 0.0
O504 O 0.34236 0.65075 0.98303 0.0
O505 O 0.34619 0.68985 0.97758 0.0
C506 C 0.33981 0.72803 0.0087 0.0
O507 O 0.36258 0.65784 0.01341 0.0
O508 O 0.33045 0.66643 0.02741 0.0
In509 In 0.33332 0.8303 0.25055 0.0
O510 O 0.32605 0.78784 0.25372 0.0
O511 O 0.3569 0.79898 0.23917 0.0
C512 C 0.28492 0.84538 0.25593 0.0
C513 C 0.34519 0.85195 0.22288 0.0
C514 C 0.35815 0.842 0.27744 0.0
O515 O 0.29037 0.82297 0.25194 0.0
O516 O 0.30379 0.86002 0.25717 0.0
O517 O 0.3561 0.85749 0.26626 0.0
O518 O 0.34815 0.82068 0.27493 0.0
C519 C 0.34429 0.781 0.2451 0.0
O520 O 0.36082 0.85077 0.23411 0.0
O521 O 0.32373 0.84216 0.22563 0.0
In522 In 0.17876 0.82199 0.49925 0.0
O523 O 0.1418 0.8352 0.51063 0.0
O524 O 0.17642 0.84238 0.52276 0.0
C525 C 0.16171 0.83571 0.47065 0.0
C526 C 0.16833 0.77276 0.50578 0.0
C527 C 0.22819 0.83634 0.49716 0.0
O528 O 0.15665 0.84832 0.48283 0.0
O529 O 0.17515 0.81625 0.47295 0.0
O530 O 0.22163 0.81333 0.49783 0.0
O531 O 0.21 0.85182 0.49793 0.0
C532 C 0.15248 0.84432 0.52263 0.0
O533 O 0.17802 0.78764 0.51571 0.0
O534 O 0.16465 0.78246 0.49249 0.0
In535 In 0.17404 0.67719 0.75267 0.0
O536 O 0.15792 0.64404 0.76719 0.0
O537 O 0.15827 0.68103 0.77718 0.0
C538 C 0.15982 0.65962 0.72437 0.0
C539 C 0.22361 0.6656 0.75759 0.0
C540 C 0.15752 0.72535 0.74899 0.0
O541 O 0.1487 0.65261 0.73678 0.0
O542 O 0.17765 0.67529 0.72638 0.0
O543 O 0.18064 0.71946 0.74718 0.0
O544 O 0.14317 0.70718 0.75273 0.0
C545 C 0.15272 0.65792 0.77885 0.0
O546 O 0.21203 0.68174 0.76585 0.0
O547 O 0.21043 0.6558 0.74689 0.0
In548 In 0.82505 0.16441 0.50481 0.0
O549 O 0.82954 0.20565 0.49658 0.0
O550 O 0.83142 0.19817 0.52096 0.0
C551 C 0.77474 0.16212 0.49826 0.0
C552 C 0.83883 0.13428 0.52906 0.0
C553 C 0.85504 0.14608 0.48167 0.0
O554 O 0.783 0.16577 0.51195 0.0
O555 O 0.79176 0.16058 0.48791 0.0
O556 O 0.83486 0.13523 0.48598 0.0
O557 O 0.86041 0.16594 0.48922 0.0
C558 C 0.83301 0.21441 0.51017 0.0
O559 O 0.85179 0.15311 0.52469 0.0
O560 O 0.81909 0.13031 0.52104 0.0
In561 In 0.83379 0.327 0.75183 0.0
O562 O 0.85671 0.3501 0.73411 0.0
O563 O 0.82387 0.33071 0.72595 0.0
C564 C 0.85195 0.34937 0.77796 0.0
C565 C 0.85761 0.28194 0.7485 0.0
C566 C 0.78399 0.33417 0.75822 0.0
O567 O 0.84816 0.36132 0.76538 0.0
O568 O 0.84705 0.32593 0.77735 0.0
O569 O 0.79389 0.3123 0.75851 0.0
O570 O 0.79902 0.3518 0.75452 0.0
C571 C 0.84254 0.34475 0.72266 0.0
O572 O 0.83364 0.28384 0.74815 0.0
O573 O 0.86924 0.30252 0.75095 0.0
In574 In 0.67116 0.3356 0.00184 0.0
O575 O 0.68643 0.29597 0.00746 0.0
O576 O 0.64849 0.29844 0.99934 0.0
C577 C 0.72063 0.3484 0.99893 0.0
C578 C 0.64282 0.35239 0.02615 0.0
C579 C 0.65524 0.36285 0.97701 0.0
O580 O 0.70783 0.3387 0.98794 0.0
O581 O 0.70868 0.3511 0.01168 0.0
O582 O 0.66172 0.37278 0.98985 0.0
O583 O 0.6565 0.33887 0.97665 0.0
C584 C 0.66615 0.28437 0.00423 0.0
O585 O 0.63387 0.34804 0.01274 0.0
O586 O 0.66641 0.34835 0.02746 0.0
In587 In 0.6788 0.17687 0.25102 0.0
O588 O 0.67002 0.14148 0.26549 0.0
O589 O 0.65803 0.17697 0.27458 0.0
C590 C 0.65496 0.15893 0.22516 0.0
C591 C 0.72869 0.17019 0.25733 0.0
C592 C 0.67219 0.22679 0.24541 0.0
O593 O 0.64328 0.16881 0.23649 0.0
O594 O 0.67875 0.15764 0.2269 0.0
O595 O 0.68942 0.21399 0.23878 0.0
O596 O 0.65882 0.21454 0.25508 0.0
C597 C 0.65922 0.15327 0.27646 0.0
O598 O 0.71623 0.18891 0.26246 0.0
O599 O 0.71613 0.1552 0.24878 0.0
H600 H 0.18089 0.94406 0.28422 0.0
H601 H 0.12995 0.88011 0.2912 0.0
H602 H 0.16064 0.85209 0.27791 0.0
H603 H 0.20893 0.9232 0.24644 0.0
H604 H 0.24012 0.93435 0.25194 0.0
H605 H 0.21216 0.95017 0.25929 0.0
H606 H 0.22816 0.94351 0.28771 0.0
H607 H 0.256 0.92754 0.28049 0.0
H608 H 0.23548 0.91186 0.29437 0.0
H609 H 0.19914 0.82999 0.26676 0.0
H610 H 0.24223 0.81589 0.25896 0.0
H611 H 0.26865 0.89387 0.26091 0.0
C612 C 0.17594 0.92424 0.28277 0.0
C613 C 0.15286 0.91441 0.28874 0.0
C614 C 0.1472 0.88833 0.28647 0.0
C615 C 0.16462 0.87217 0.279 0.0
C616 C 0.1876 0.88235 0.27383 0.0
C617 C 0.19322 0.90783 0.27556 0.0
C618 C 0.22018 0.91364 0.27047 0.0
C619 C 0.22035 0.93139 0.25618 0.0
C620 C 0.23587 0.92478 0.28407 0.0
C621 C 0.22917 0.88729 0.26614 0.0
C622 C 0.20999 0.86955 0.26785 0.0
C623 C 0.21421 0.84377 0.26519 0.0
C624 C 0.23872 0.83593 0.2608 0.0
C625 C 0.25872 0.8538 0.25935 0.0
C626 C 0.2537 0.87979 0.26188 0.0
H627 H 0.10573 0.67002 0.56155 0.0
H628 H 0.09019 0.62441 0.52038 0.0
H629 H 0.11476 0.65482 0.50414 0.0
H630 H 0.09897 0.72951 0.54399 0.0
H631 H 0.12433 0.74445 0.55482 0.0
H632 H 0.10745 0.71801 0.56318 0.0
H633 H 0.15002 0.69393 0.56692 0.0
H634 H 0.16706 0.72033 0.55854 0.0
H635 H 0.17064 0.68901 0.55033 0.0
H636 H 0.13695 0.69282 0.49218 0.0
H637 H 0.15644 0.73425 0.48559 0.0
H638 H 0.15904 0.75367 0.53492 0.0
C639 C 0.10768 0.66635 0.54913 0.0
C640 C 0.096 0.64502 0.54214 0.0
C641 C 0.09913 0.64064 0.52591 0.0
C642 C 0.113 0.65779 0.51664 0.0
C643 C 0.12396 0.6789 0.52387 0.0
C644 C 0.12168 0.68304 0.53979 0.0
C645 C 0.13443 0.70757 0.54467 0.0
C646 C 0.11514 0.72596 0.5521 0.0
C647 C 0.15688 0.70239 0.55577 0.0
C648 C 0.14358 0.71707 0.52894 0.0
C649 C 0.13746 0.70025 0.51708 0.0
C650 C 0.14226 0.70589 0.50141 0.0
C651 C 0.15329 0.72945 0.49777 0.0
C652 C 0.15953 0.74695 0.50977 0.0
C653 C 0.155 0.74041 0.52554 0.0
H654 H 0.33131 0.60932 0.81219 0.0
H655 H 0.3686 0.58158 0.77029 0.0
H656 H 0.33769 0.60527 0.75394 0.0
H657 H 0.26905 0.6044 0.79893 0.0
H658 H 0.2578 0.63299 0.80823 0.0
H659 H 0.28432 0.61603 0.81643 0.0
H660 H 0.31188 0.65679 0.81499 0.0
H661 H 0.28538 0.67392 0.80675 0.0
H662 H 0.31539 0.67308 0.79655 0.0
H663 H 0.29934 0.62695 0.74249 0.0
H664 H 0.25786 0.64702 0.73666 0.0
H665 H 0.24722 0.66301 0.78601 0.0
C666 C 0.33311 0.60853 0.79956 0.0
C667 C 0.35217 0.59361 0.79243 0.0
C668 C 0.35415 0.59304 0.77592 0.0
C669 C 0.33671 0.60641 0.76658 0.0
C670 C 0.31781 0.62062 0.774 0.0
C671 C 0.31615 0.62205 0.79012 0.0
C672 C 0.29346 0.63769 0.79522 0.0
C673 C 0.27508 0.62183 0.80529 0.0
C674 C 0.30205 0.6618 0.80389 0.0
C675 C 0.28197 0.64405 0.77945 0.0
C676 C 0.29636 0.63411 0.76735 0.0
C677 C 0.28826 0.63536 0.75183 0.0
C678 C 0.2647 0.64672 0.74863 0.0
C679 C 0.2497 0.65692 0.76087 0.0
C680 C 0.25872 0.65602 0.77641 0.0
H681 H 0.43406 0.83946 0.03193 0.0
H682 H 0.36916 0.87974 0.05107 0.0
H683 H 0.34034 0.84744 0.03982 0.0
H684 H 0.40233 0.81604 0.99572 0.0
H685 H 0.41881 0.78608 0.99665 0.0
H686 H 0.43376 0.81442 0.00412 0.0
H687 H 0.44021 0.79236 0.03096 0.0
H688 H 0.42513 0.76409 0.02364 0.0
H689 H 0.41306 0.77928 0.04104 0.0
H690 H 0.3192 0.80757 0.02955 0.0
H691 H 0.30758 0.7646 0.02017 0.0
H692 H 0.38647 0.75067 0.00799 0.0
C693 C 0.41374 0.84176 0.0335 0.0
C694 C 0.40387 0.86219 0.04233 0.0
C695 C 0.37716 0.86451 0.04412 0.0
C696 C 0.36064 0.84616 0.03784 0.0
C697 C 0.3711 0.82577 0.02967 0.0
C698 C 0.39705 0.82367 0.02732 0.0
C699 C 0.40373 0.79907 0.01916 0.0
C700 C 0.41534 0.80422 0.00295 0.0
C701 C 0.42157 0.78275 0.02931 0.0
C702 C 0.37761 0.7872 0.01776 0.0
C703 C 0.35896 0.80295 0.02374 0.0
C704 C 0.33359 0.79527 0.0246 0.0
C705 C 0.32717 0.77083 0.0193 0.0
C706 C 0.34609 0.75438 0.01328 0.0
C707 C 0.37153 0.76291 0.01236 0.0
H708 H 0.18364 0.56795 0.95842 0.0
H709 H 0.12336 0.62263 0.96709 0.0
H710 H 0.15446 0.65103 0.97983 0.0
H711 H 0.21592 0.5776 0.99598 0.0
H712 H 0.24691 0.57299 0.98741 0.0
H713 H 0.21963 0.55701 0.97927 0.0
H714 H 0.22969 0.57652 0.95209 0.0
H715 H 0.25682 0.59275 0.96017 0.0
H716 H 0.23241 0.6105 0.95018 0.0
H717 H 0.19363 0.67516 0.98961 0.0
H718 H 0.23629 0.69066 0.99772 0.0
H719 H 0.26891 0.61799 0.98495 0.0
C720 C 0.17657 0.58549 0.96334 0.0
C721 C 0.15082 0.59287 0.9616 0.0
C722 C 0.14297 0.61655 0.96792 0.0
C723 C 0.16049 0.6328 0.97531 0.0
C724 C 0.18574 0.62497 0.97658 0.0
C725 C 0.1936 0.60164 0.971 0.0
C726 C 0.22174 0.59756 0.97372 0.0
C727 C 0.22631 0.57495 0.98475 0.0
C728 C 0.23599 0.59414 0.95811 0.0
C729 C 0.22865 0.62241 0.98149 0.0
C730 C 0.20774 0.63814 0.98294 0.0
C731 C 0.21001 0.6628 0.98879 0.0
C732 C 0.23426 0.67147 0.99332 0.0
C733 C 0.25571 0.65536 0.99218 0.0
C734 C 0.25272 0.63052 0.98627 0.0
H735 H 0.40504 0.665 0.19871 0.0
H736 H 0.37265 0.61479 0.23381 0.0
H737 H 0.35551 0.65196 0.24788 0.0
H738 H 0.42395 0.71493 0.2262 0.0
H739 H 0.41677 0.73992 0.21247 0.0
H740 H 0.42693 0.7093 0.20545 0.0
H741 H 0.38629 0.70626 0.18835 0.0
H742 H 0.37588 0.73671 0.19543 0.0
H743 H 0.3555 0.70937 0.19745 0.0
H744 H 0.33942 0.69462 0.25712 0.0
H745 H 0.32853 0.73968 0.26188 0.0
H746 H 0.37402 0.7617 0.22173 0.0
C747 C 0.3949 0.6617 0.20955 0.0
C748 C 0.39018 0.63681 0.21507 0.0
C749 C 0.37621 0.63357 0.22915 0.0
C750 C 0.36651 0.65459 0.2373 0.0
C751 C 0.37121 0.67876 0.23135 0.0
C752 C 0.38538 0.68242 0.21792 0.0
C753 C 0.38758 0.71032 0.2139 0.0
C754 C 0.41547 0.71913 0.21455 0.0
C755 C 0.37559 0.71598 0.19783 0.0
C756 C 0.37213 0.7218 0.22705 0.0
C757 C 0.36273 0.7033 0.23696 0.0
C758 C 0.34695 0.70929 0.24955 0.0
C759 C 0.34078 0.73488 0.25212 0.0
C760 C 0.35059 0.7541 0.24224 0.0
C761 C 0.3665 0.7474 0.22959 0.0
H762 H 0.33048 0.93692 0.47005 0.0
H763 H 0.37963 0.87377 0.45794 0.0
H764 H 0.35057 0.84443 0.4717 0.0
H765 H 0.30779 0.91194 0.50859 0.0
H766 H 0.27614 0.92398 0.50528 0.0
H767 H 0.30324 0.9404 0.49721 0.0
H768 H 0.28327 0.93732 0.46951 0.0
H769 H 0.25627 0.92082 0.47744 0.0
H770 H 0.2745 0.90663 0.46186 0.0
H771 H 0.31286 0.82128 0.48328 0.0
H772 H 0.2702 0.80669 0.49165 0.0
H773 H 0.24553 0.88501 0.49542 0.0
C774 C 0.33543 0.91699 0.47055 0.0
C775 C 0.3574 0.90769 0.46294 0.0
C776 C 0.36317 0.88145 0.46391 0.0
C777 C 0.3467 0.86461 0.47165 0.0
C778 C 0.32466 0.87432 0.47849 0.0
C779 C 0.31916 0.89997 0.47813 0.0
C780 C 0.2931 0.90538 0.48487 0.0
C781 C 0.2952 0.92137 0.49988 0.0
C782 C 0.27578 0.91828 0.47269 0.0
C783 C 0.2843 0.87868 0.48847 0.0
C784 C 0.3029 0.86101 0.48499 0.0
C785 C 0.29835 0.83499 0.48631 0.0
C786 C 0.27407 0.82686 0.49105 0.0
C787 C 0.25463 0.84472 0.49425 0.0
C788 C 0.26009 0.87091 0.49323 0.0
H789 H 0.13975 0.85377 0.70147 0.0
H790 H 0.06976 0.86507 0.72755 0.0
H791 H 0.07986 0.82778 0.74386 0.0
H792 H 0.13752 0.78788 0.70011 0.0
H793 H 0.17122 0.78297 0.70257 0.0
H794 H 0.15978 0.81189 0.69388 0.0
H795 H 0.18401 0.83819 0.71476 0.0
H796 H 0.19563 0.80929 0.72351 0.0
H797 H 0.17852 0.83202 0.73525 0.0
H798 H 0.095 0.78696 0.75532 0.0
H799 H 0.11499 0.74587 0.76179 0.0
H800 H 0.17645 0.7621 0.72943 0.0
C801 C 0.12686 0.84884 0.71087 0.0
C802 C 0.10391 0.86238 0.71319 0.0
C803 C 0.08728 0.85484 0.7254 0.0
C804 C 0.09295 0.83381 0.73482 0.0
C805 C 0.11548 0.82065 0.73203 0.0
C806 C 0.13231 0.82798 0.72046 0.0
C807 C 0.15454 0.80973 0.71933 0.0
C808 C 0.15582 0.79739 0.70301 0.0
C809 C 0.17966 0.82311 0.72346 0.0
C810 C 0.1472 0.79059 0.73178 0.0
C811 C 0.12464 0.79735 0.739 0.0
C812 C 0.11291 0.7817 0.74998 0.0
C813 C 0.12435 0.7584 0.75354 0.0
C814 C 0.14738 0.75106 0.74626 0.0
C815 C 0.15916 0.76757 0.73544 0.0
H816 H 0.67201 0.42111 0.78891 0.0
H817 H 0.62209 0.35533 0.78813 0.0
H818 H 0.6572 0.32951 0.77734 0.0
H819 H 0.70439 0.40668 0.75195 0.0
H820 H 0.73427 0.41892 0.75906 0.0
H821 H 0.70478 0.43202 0.76614 0.0
H822 H 0.71878 0.42256 0.79467 0.0
H823 H 0.74814 0.40916 0.7877 0.0
H824 H 0.72745 0.39061 0.80004 0.0
H825 H 0.6997 0.31016 0.76857 0.0
H826 H 0.74417 0.30033 0.76082 0.0
H827 H 0.76379 0.37991 0.7657 0.0
C828 C 0.66796 0.4015 0.78607 0.0
C829 C 0.64405 0.39042 0.78942 0.0
C830 C 0.64025 0.36433 0.78592 0.0
C831 C 0.66006 0.3495 0.77968 0.0
C832 C 0.68345 0.36108 0.77677 0.0
C833 C 0.68726 0.38661 0.77964 0.0
C834 C 0.71414 0.39464 0.7758 0.0
C835 C 0.7144 0.41422 0.76244 0.0
C836 C 0.72793 0.40483 0.79042 0.0
C837 C 0.72511 0.36955 0.77057 0.0
C838 C 0.70726 0.3503 0.77124 0.0
C839 C 0.71368 0.32519 0.76777 0.0
C840 C 0.73895 0.31975 0.76344 0.0
C841 C 0.75728 0.3394 0.76251 0.0
C842 C 0.7501 0.36454 0.76607 0.0
H843 H 0.58983 0.16066 0.03024 0.0
H844 H 0.66338 0.12532 0.03819 0.0
H845 H 0.68457 0.16209 0.02625 0.0
H846 H 0.60638 0.1927 0.99299 0.0
H847 H 0.58836 0.22073 0.99784 0.0
H848 H 0.57852 0.19019 0.0052 0.0
H849 H 0.57987 0.20768 0.03355 0.0
H850 H 0.58973 0.2382 0.0263 0.0
H851 H 0.60874 0.22204 0.04076 0.0
H852 H 0.69833 0.20437 0.01641 0.0
H853 H 0.70349 0.24929 0.00878 0.0
H854 H 0.62144 0.25782 0.00703 0.0
C855 C 0.61037 0.16048 0.02929 0.0
C856 C 0.62482 0.13978 0.03501 0.0
C857 C 0.65171 0.14049 0.03355 0.0
C858 C 0.66401 0.16143 0.02686 0.0
C859 C 0.64925 0.18162 0.0216 0.0
C860 C 0.62301 0.18131 0.02264 0.0
C861 C 0.6118 0.20625 0.01705 0.0
C862 C 0.59529 0.20222 0.0024 0.0
C863 C 0.59665 0.21931 0.0302 0.0
C864 C 0.63588 0.22082 0.01316 0.0
C865 C 0.65726 0.20615 0.01577 0.0
C866 C 0.68175 0.21593 0.01407 0.0
C867 C 0.6845 0.24146 0.00977 0.0
C868 C 0.66289 0.25691 0.00716 0.0
C869 C 0.63829 0.2463 0.00865 0.0
H870 H 0.84304 0.08055 0.2813 0.0
H871 H 0.87763 0.14578 0.30388 0.0
H872 H 0.8452 0.17367 0.29197 0.0
H873 H 0.82233 0.11408 0.24483 0.0
H874 H 0.7932 0.09607 0.24387 0.0
H875 H 0.82142 0.08199 0.25215 0.0
H876 H 0.79663 0.0721 0.27767 0.0
H877 H 0.76846 0.08626 0.26954 0.0
H878 H 0.78091 0.09756 0.28794 0.0
H879 H 0.80528 0.19319 0.28115 0.0
H880 H 0.76236 0.20313 0.27094 0.0
H881 H 0.7544 0.1254 0.2549 0.0
C882 C 0.84411 0.10079 0.28345 0.0
C883 C 0.86291 0.11103 0.29346 0.0
C884 C 0.86365 0.13758 0.29605 0.0
C885 C 0.84524 0.15356 0.28938 0.0
C886 C 0.82645 0.14273 0.27999 0.0
C887 C 0.82598 0.11699 0.27683 0.0
C888 C 0.80273 0.10978 0.26735 0.0
C889 C 0.81039 0.0999 0.25108 0.0
C890 C 0.78622 0.09028 0.27616 0.0
C891 C 0.78962 0.13528 0.26622 0.0
C892 C 0.80369 0.15411 0.27347 0.0
C893 C 0.79437 0.17875 0.27513 0.0
C894 C 0.76996 0.1842 0.26936 0.0
C895 C 0.75525 0.16511 0.26199 0.0
C896 C 0.76546 0.1405 0.26019 0.0
H897 H 0.90264 0.3211 0.55948 0.0
H898 H 0.90464 0.36781 0.51769 0.0
H899 H 0.87863 0.33566 0.50367 0.0
H900 H 0.90945 0.2621 0.54074 0.0
H901 H 0.88842 0.24547 0.55388 0.0
H902 H 0.90552 0.27298 0.56061 0.0
H903 H 0.86298 0.29404 0.56883 0.0
H904 H 0.84572 0.26659 0.56204 0.0
H905 H 0.83791 0.29763 0.55459 0.0
H906 H 0.85527 0.29622 0.49381 0.0
H907 H 0.83647 0.25373 0.48914 0.0
H908 H 0.84935 0.23424 0.53785 0.0
C909 C 0.89761 0.3246 0.54737 0.0
C910 C 0.90583 0.34679 0.53959 0.0
C911 C 0.89848 0.35091 0.52384 0.0
C912 C 0.88374 0.33278 0.51582 0.0
C913 C 0.87626 0.31089 0.52382 0.0
C914 C 0.88285 0.3069 0.53929 0.0
C915 C 0.87326 0.28159 0.54519 0.0
C916 C 0.89549 0.26454 0.5504 0.0
C917 C 0.85381 0.28519 0.55845 0.0
C918 C 0.86071 0.27157 0.53052 0.0
C919 C 0.86247 0.28871 0.5183 0.0
C920 C 0.85349 0.28283 0.50336 0.0
C921 C 0.84284 0.25868 0.50081 0.0
C922 C 0.84125 0.24081 0.51316 0.0
C923 C 0.84992 0.24762 0.52823 0.0
H924 H 0.65854 0.11544 0.44596 0.0
H925 H 0.60965 0.12523 0.48644 0.0
H926 H 0.64643 0.14109 0.50172 0.0
H927 H 0.71375 0.09369 0.46688 0.0
H928 H 0.73574 0.1101 0.45423 0.0
H929 H 0.7055 0.09959 0.44671 0.0
H930 H 0.69542 0.14555 0.4378 0.0
H931 H 0.72554 0.15624 0.44543 0.0
H932 H 0.69645 0.17099 0.45192 0.0
H933 H 0.68913 0.15527 0.51263 0.0
H934 H 0.73409 0.16607 0.51826 0.0
H935 H 0.7542 0.14741 0.47035 0.0
C936 C 0.65559 0.1206 0.4581 0.0
C937 C 0.63126 0.11894 0.46505 0.0
C938 C 0.62812 0.12644 0.48087 0.0
C939 C 0.64888 0.13542 0.48963 0.0
C940 C 0.6726 0.13693 0.48237 0.0
C941 C 0.67601 0.1297 0.46695 0.0
C942 C 0.70333 0.13318 0.46182 0.0
C943 C 0.71528 0.10762 0.45714 0.0
C944 C 0.70529 0.15265 0.44845 0.0
C945 C 0.71487 0.14336 0.47678 0.0
C946 C 0.69689 0.14543 0.48852 0.0
C947 C 0.70333 0.15384 0.5035 0.0
C948 C 0.72887 0.15997 0.50658 0.0
C949 C 0.74756 0.15773 0.49472 0.0
C950 C 0.7403 0.14957 0.47962 0.0
H951 H 0.87426 0.14278 0.71314 0.0
H952 H 0.95574 0.1552 0.71553 0.0
H953 H 0.94848 0.19579 0.72938 0.0
H954 H 0.85809 0.20595 0.7047 0.0
H955 H 0.82917 0.20615 0.71603 0.0
H956 H 0.84077 0.17686 0.70789 0.0
H957 H 0.84071 0.15648 0.7355 0.0
H958 H 0.82907 0.18575 0.74375 0.0
H959 H 0.85787 0.17168 0.75121 0.0
H960 H 0.93245 0.236 0.74133 0.0
H961 H 0.90882 0.27412 0.74965 0.0
H962 H 0.83751 0.23614 0.73913 0.0
C963 C 0.89055 0.15381 0.71691 0.0
C964 C 0.91558 0.14583 0.71342 0.0
C965 C 0.93644 0.16104 0.71812 0.0
C966 C 0.93249 0.18401 0.72605 0.0
C967 C 0.90757 0.19152 0.72915 0.0
C968 C 0.88693 0.17692 0.7247 0.0
C969 C 0.86208 0.19026 0.72838 0.0
C970 C 0.84663 0.19509 0.71336 0.0
C971 C 0.84652 0.17514 0.74043 0.0
C972 C 0.87198 0.21483 0.73533 0.0
C973 C 0.89827 0.215 0.73583 0.0
C974 C 0.91186 0.23601 0.74113 0.0
C975 C 0.89826 0.25758 0.74582 0.0
C976 C 0.87133 0.25806 0.7451 0.0
C977 C 0.85807 0.23623 0.73999 0.0
H978 H 0.84022 0.39312 0.94883 0.0
H979 H 0.88262 0.40049 0.99212 0.0
H980 H 0.8443 0.38753 0.00713 0.0
H981 H 0.77933 0.41523 0.96315 0.0
H982 H 0.76152 0.3925 0.95178 0.0
H983 H 0.79181 0.40379 0.9448 0.0
H984 H 0.80792 0.3574 0.9428 0.0
H985 H 0.77774 0.34598 0.94986 0.0
H986 H 0.80667 0.33721 0.95982 0.0
H987 H 0.80063 0.37403 0.01724 0.0
H988 H 0.75644 0.35893 0.02144 0.0
H989 H 0.74432 0.35795 0.97121 0.0
C990 C 0.84128 0.39239 0.96149 0.0
C991 C 0.86415 0.39816 0.9694 0.0
C992 C 0.86514 0.3963 0.98592 0.0
C993 C 0.84351 0.38899 0.9945 0.0
C994 C 0.82123 0.38328 0.98632 0.0
C995 C 0.82008 0.38473 0.97016 0.0
C996 C 0.79437 0.37642 0.96405 0.0
C997 C 0.78097 0.39829 0.95544 0.0
C998 C 0.79684 0.35285 0.95351 0.0
C999 C 0.78112 0.37011 0.97928 0.0
C1000 C 0.79676 0.37441 0.99203 0.0
C1001 C 0.7883 0.37046 0.00732 0.0
C1002 C 0.76322 0.36191 0.00961 0.0
C1003 C 0.74712 0.35706 0.99665 0.0
C1004 C 0.75631 0.36118 0.98133 0.0
H1005 H 0.57772 0.33942 0.22781 0.0
H1006 H 0.63618 0.37164 0.19801 0.0
H1007 H 0.66733 0.341 0.20858 0.0
H1008 H 0.62069 0.32219 0.2616 0.0
H1009 H 0.60319 0.29332 0.26516 0.0
H1010 H 0.58704 0.32088 0.25756 0.0
H1011 H 0.57066 0.29421 0.23412 0.0
H1012 H 0.58687 0.26671 0.24153 0.0
H1013 H 0.59322 0.27767 0.22192 0.0
H1014 H 0.68958 0.30201 0.21854 0.0
H1015 H 0.70175 0.25952 0.22836 0.0
H1016 H 0.62908 0.25333 0.25208 0.0
C1017 C 0.59727 0.34048 0.22386 0.0
C1018 C 0.60459 0.35796 0.21216 0.0
C1019 C 0.63027 0.35869 0.20717 0.0
C1020 C 0.64807 0.34129 0.21306 0.0
C1021 C 0.63996 0.32357 0.22412 0.0
C1022 C 0.61524 0.32334 0.22967 0.0
C1023 C 0.61062 0.30093 0.24039 0.0
C1024 C 0.60506 0.30987 0.25718 0.0
C1025 C 0.58908 0.28388 0.23411 0.0
C1026 C 0.63619 0.28785 0.23938 0.0
C1027 C 0.65298 0.30132 0.2301 0.0
C1028 C 0.67684 0.29163 0.22617 0.0
C1029 C 0.68356 0.26746 0.23173 0.0
C1030 C 0.66647 0.25333 0.24112 0.0
C1031 C 0.64275 0.26396 0.24522 0.0
H1032 H 0.10324 0.92798 0.40575 0.0
H1033 H 0.12483 0.87135 0.37125 0.0
H1034 H 0.13978 0.84325 0.39236 0.0
H1035 H 0.15706 0.91907 0.43056 0.0
H1036 H 0.13968 0.92371 0.44853 0.0
H1037 H 0.12908 0.93885 0.43079 0.0
H1038 H 0.08469 0.91803 0.43397 0.0
H1039 H 0.09516 0.90281 0.45173 0.0
H1040 H 0.08232 0.88403 0.43595 0.0
H1041 H 0.15435 0.82211 0.41689 0.0
H1042 H 0.16735 0.80913 0.44348 0.0
H1043 H 0.13695 0.8795 0.46218 0.0
C1044 C 0.11107 0.90966 0.40263 0.0
C1045 C 0.1126 0.90182 0.38681 0.0
C1046 C 0.1229 0.87761 0.38327 0.0
C1047 C 0.13162 0.86155 0.39517 0.0
C1048 C 0.12996 0.86992 0.41059 0.0
C1049 C 0.11992 0.89337 0.41438 0.0
C1050 C 0.12107 0.89804 0.43188 0.0
C1051 C 0.13772 0.92129 0.43565 0.0
C1052 C 0.09421 0.90089 0.43879 0.0
C1053 C 0.13356 0.87366 0.43729 0.0
C1054 C 0.13845 0.85769 0.42481 0.0
C1055 C 0.15049 0.83436 0.42678 0.0
C1056 C 0.15783 0.82718 0.44192 0.0
C1057 C 0.15308 0.84327 0.45488 0.0
C1058 C 0.14066 0.86674 0.45251 0.0
H1059 H 0.07401 0.59374 0.65835 0.0
H1060 H 0.13086 0.61885 0.62484 0.0
H1061 H 0.15675 0.63612 0.64636 0.0
H1062 H 0.07785 0.64798 0.68318 0.0
H1063 H 0.07384 0.63052 0.70116 0.0
H1064 H 0.06024 0.6186 0.68325 0.0
H1065 H 0.08434 0.57612 0.68696 0.0
H1066 H 0.09798 0.5879 0.70491 0.0
H1067 H 0.11839 0.57646 0.68949 0.0
H1068 H 0.17536 0.65275 0.67091 0.0
H1069 H 0.18637 0.66706 0.69751 0.0
H1070 H 0.11788 0.63146 0.71561 0.0
C1071 C 0.09195 0.60278 0.65556 0.0
C1072 C 0.10052 0.60468 0.6399 0.0
C1073 C 0.12414 0.61664 0.63675 0.0
C1074 C 0.13893 0.62667 0.64889 0.0
C1075 C 0.1299 0.6246 0.66414 0.0
C1076 C 0.10705 0.61289 0.66758 0.0
C1077 C 0.10157 0.61386 0.68501 0.0
C1078 C 0.07691 0.62862 0.68834 0.0
C1079 C 0.10052 0.58698 0.692 0.0
C1080 C 0.12476 0.62825 0.69076 0.0
C1081 C 0.14082 0.63419 0.67848 0.0
C1082 C 0.16306 0.64807 0.68066 0.0
C1083 C 0.1691 0.65616 0.69581 0.0
C1084 C 0.15301 0.65031 0.70861 0.0
C1085 C 0.13061 0.63604 0.70605 0.0
H1086 H 0.37771 0.57621 0.90111 0.0
H1087 H 0.43271 0.63201 0.88491 0.0
H1088 H 0.42159 0.65966 0.90715 0.0
H1089 H 0.33097 0.61863 0.91525 0.0
H1090 H 0.32327 0.59991 0.93227 0.0
H1091 H 0.33504 0.58465 0.91485 0.0
H1092 H 0.37166 0.56419 0.9308 0.0
H1093 H 0.35982 0.57914 0.94831 0.0
H1094 H 0.39233 0.58414 0.94233 0.0
H1095 H 0.40283 0.68221 0.93064 0.0
H1096 H 0.3816 0.69546 0.95523 0.0
H1097 H 0.34234 0.62309 0.95714 0.0
C1098 C 0.38788 0.59398 0.9023 0.0
C1099 C 0.40596 0.60189 0.89104 0.0
C1100 C 0.41833 0.62564 0.89308 0.0
C1101 C 0.41226 0.64148 0.90575 0.0
C1102 C 0.3941 0.63317 0.91646 0.0
C1103 C 0.38244 0.60978 0.91501 0.0
C1104 C 0.36415 0.60492 0.92836 0.0
C1105 C 0.33674 0.60185 0.92232 0.0
C1106 C 0.3725 0.58173 0.93802 0.0
C1107 C 0.36728 0.62928 0.93752 0.0
C1108 C 0.38435 0.64552 0.93037 0.0
C1109 C 0.38963 0.66955 0.93643 0.0
C1110 C 0.37742 0.67696 0.95032 0.0
C1111 C 0.36055 0.6602 0.95805 0.0
C1112 C 0.35538 0.63616 0.95151 0.0
H1113 H 0.43635 0.9083 0.15673 0.0
H1114 H 0.37078 0.90794 0.12574 0.0
H1115 H 0.34361 0.89406 0.1476 0.0
H1116 H 0.42023 0.85207 0.17701 0.0
H1117 H 0.43151 0.8629 0.19579 0.0
H1118 H 0.44553 0.87514 0.17811 0.0
H1119 H 0.43528 0.92107 0.18698 0.0
H1120 H 0.42128 0.90896 0.20473 0.0
H1121 H 0.40303 0.92935 0.19204 0.0
H1122 H 0.32405 0.87725 0.17218 0.0
H1123 H 0.31332 0.85943 0.19809 0.0
H1124 H 0.39155 0.86994 0.21309 0.0
C1125 C 0.41625 0.90546 0.15454 0.0
C1126 C 0.40572 0.90948 0.13949 0.0
C1127 C 0.37927 0.90559 0.1372 0.0
C1128 C 0.36367 0.89751 0.14953 0.0
C1129 C 0.37474 0.8934 0.16412 0.0
C1130 C 0.40039 0.89733 0.16672 0.0
C1131 C 0.40769 0.89044 0.18335 0.0
C1132 C 0.4274 0.86885 0.18357 0.0
C1133 C 0.41739 0.91385 0.1923 0.0
C1134 C 0.3822 0.88162 0.1896 0.0
C1135 C 0.36344 0.8836 0.17833 0.0
C1136 C 0.33852 0.87581 0.18115 0.0
C1137 C 0.33263 0.86567 0.19588 0.0
C1138 C 0.35158 0.86339 0.20759 0.0
C1139 C 0.37663 0.87163 0.2044 0.0
H1140 H 0.12052 0.55697 0.84606 0.0
H1141 H 0.0887 0.6199 0.87241 0.0
H1142 H 0.09695 0.64854 0.8502 0.0
H1143 H 0.17087 0.59183 0.82829 0.0
H1144 H 0.16898 0.57571 0.8097 0.0
H1145 H 0.15936 0.55961 0.82733 0.0
H1146 H 0.11509 0.55063 0.81515 0.0
H1147 H 0.12459 0.5667 0.79747 0.0
H1148 H 0.09637 0.57667 0.80775 0.0
H1149 H 0.11102 0.67095 0.8262 0.0
H1150 H 0.12889 0.68578 0.80115 0.0
H1151 H 0.15096 0.60861 0.78963 0.0
C1152 C 0.11519 0.57675 0.8471 0.0
C1153 C 0.10374 0.58614 0.86093 0.0
C1154 C 0.09702 0.61215 0.86184 0.0
C1155 C 0.10176 0.62862 0.84932 0.0
C1156 C 0.11313 0.6188 0.8359 0.0
C1157 C 0.11964 0.59349 0.83463 0.0
C1158 C 0.13215 0.58807 0.81896 0.0
C1159 C 0.15946 0.57823 0.82121 0.0
C1160 C 0.11609 0.56941 0.80926 0.0
C1161 C 0.13198 0.6144 0.81177 0.0
C1162 C 0.12091 0.63179 0.8218 0.0
C1163 C 0.11949 0.6575 0.81817 0.0
C1164 C 0.12975 0.66574 0.80394 0.0
C1165 C 0.14114 0.64832 0.79343 0.0
C1166 C 0.14205 0.62227 0.79736 0.0
H1167 H 0.3668 0.60956 0.11508 0.0
H1168 H 0.4401 0.57807 0.10198 0.0
H1169 H 0.43423 0.59416 0.07506 0.0
H1170 H 0.33464 0.59417 0.07924 0.0
H1171 H 0.31594 0.62284 0.07905 0.0
H1172 H 0.32628 0.60951 0.09739 0.0
H1173 H 0.34766 0.65224 0.10474 0.0
H1174 H 0.3374 0.66571 0.08641 0.0
H1175 H 0.37064 0.66611 0.0916 0.0
H1176 H 0.42006 0.61299 0.0495 0.0
H1177 H 0.3987 0.63346 0.02707 0.0
H1178 H 0.33425 0.65193 0.05672 0.0
C1179 C 0.38157 0.60588 0.10654 0.0
C1180 C 0.40395 0.59256 0.11066 0.0
C1181 C 0.42296 0.58852 0.09917 0.0
C1182 C 0.41973 0.59745 0.08382 0.0
C1183 C 0.39739 0.61038 0.08016 0.0
C1184 C 0.37864 0.61461 0.09118 0.0
C1185 C 0.35634 0.62886 0.08419 0.0
C1186 C 0.33186 0.61288 0.08502 0.0
C1187 C 0.35282 0.65477 0.09221 0.0
C1188 C 0.36542 0.63188 0.06748 0.0
C1189 C 0.38917 0.62114 0.06541 0.0
C1190 C 0.40147 0.62149 0.05098 0.0
C1191 C 0.38918 0.63315 0.03831 0.0
C1192 C 0.36482 0.64425 0.04016 0.0
C1193 C 0.35285 0.64358 0.05496 0.0
H1194 H 0.40552 0.93543 0.34478 0.0
H1195 H 0.4053 0.87013 0.37585 0.0
H1196 H 0.39604 0.84221 0.35346 0.0
H1197 H 0.35273 0.91605 0.32244 0.0
H1198 H 0.36471 0.92802 0.30409 0.0
H1199 H 0.37438 0.94262 0.3222 0.0
H1200 H 0.4217 0.93515 0.31502 0.0
H1201 H 0.41216 0.92051 0.29687 0.0
H1202 H 0.43238 0.90354 0.31031 0.0
H1203 H 0.38316 0.82176 0.32829 0.0
H1204 H 0.36723 0.81029 0.30204 0.0
H1205 H 0.37461 0.88881 0.28732 0.0
C1206 C 0.4037 0.91524 0.34689 0.0
C1207 C 0.40642 0.90504 0.36213 0.0
C1208 C 0.40395 0.87845 0.36429 0.0
C1209 C 0.39852 0.86239 0.35164 0.0
C1210 C 0.3956 0.87315 0.33686 0.0
C1211 C 0.39813 0.89894 0.3344 0.0
C1212 C 0.39241 0.90585 0.31754 0.0
C1213 C 0.3697 0.92421 0.31651 0.0
C1214 C 0.41608 0.91692 0.30946 0.0
C1215 C 0.38573 0.87996 0.31099 0.0
C1216 C 0.38793 0.86134 0.3223 0.0
C1217 C 0.38163 0.83612 0.31928 0.0
C1218 C 0.37257 0.8298 0.30434 0.0
C1219 C 0.36982 0.84864 0.29264 0.0
C1220 C 0.37681 0.87396 0.29598 0.0
H1221 H 0.1347 0.90789 0.60671 0.0
H1222 H 0.05333 0.89803 0.60076 0.0
H1223 H 0.06053 0.88087 0.57416 0.0
H1224 H 0.14901 0.92605 0.56645 0.0
H1225 H 0.17863 0.90883 0.56609 0.0
H1226 H 0.1669 0.92166 0.58426 0.0
H1227 H 0.1692 0.87696 0.59687 0.0
H1228 H 0.18087 0.86399 0.57874 0.0
H1229 H 0.15277 0.85082 0.5877 0.0
H1230 H 0.07672 0.86376 0.54853 0.0
H1231 H 0.10081 0.8467 0.52601 0.0
H1232 H 0.17165 0.86705 0.54896 0.0
C1233 C 0.1184 0.90248 0.5997 0.0
C1234 C 0.09345 0.90437 0.60572 0.0
C1235 C 0.0726 0.8966 0.59635 0.0
C1236 C 0.07649 0.88697 0.58123 0.0
C1237 C 0.10136 0.88515 0.57569 0.0
C1238 C 0.12196 0.89263 0.58464 0.0
C1239 C 0.14681 0.88761 0.57622 0.0
C1240 C 0.16118 0.91252 0.57307 0.0
C1241 C 0.16338 0.86872 0.58543 0.0
C1242 C 0.13697 0.87597 0.56118 0.0
C1243 C 0.1107 0.8749 0.56105 0.0
C1244 C 0.09729 0.86458 0.54848 0.0
C1245 C 0.11113 0.85495 0.53575 0.0
C1246 C 0.13806 0.85558 0.53575 0.0
C1247 C 0.15106 0.86636 0.54862 0.0
H1248 H 0.60916 0.38964 0.88942 0.0
H1249 H 0.61709 0.47002 0.89948 0.0
H1250 H 0.63063 0.45977 0.92647 0.0
H1251 H 0.58437 0.37124 0.92715 0.0
H1252 H 0.60139 0.34156 0.92759 0.0
H1253 H 0.59218 0.35525 0.90911 0.0
H1254 H 0.6391 0.35395 0.89981 0.0
H1255 H 0.64845 0.34025 0.91826 0.0
H1256 H 0.66336 0.36906 0.91149 0.0
H1257 H 0.64294 0.44082 0.95231 0.0
H1258 H 0.65452 0.41449 0.9751 0.0
H1259 H 0.63885 0.34632 0.94818 0.0
C1260 C 0.61353 0.40509 0.89735 0.0
C1261 C 0.61202 0.43065 0.89238 0.0
C1262 C 0.61833 0.45032 0.90301 0.0
C1263 C 0.6259 0.44468 0.91837 0.0
C1264 C 0.62714 0.41929 0.92288 0.0
C1265 C 0.62122 0.3998 0.91268 0.0
C1266 C 0.62454 0.37411 0.92039 0.0
C1267 C 0.5991 0.3597 0.9211 0.0
C1268 C 0.64509 0.35843 0.91199 0.0
C1269 C 0.63322 0.3822 0.93655 0.0
C1270 C 0.6345 0.40834 0.93774 0.0
C1271 C 0.64202 0.42034 0.95152 0.0
C1272 C 0.64853 0.40521 0.9644 0.0
C1273 C 0.64757 0.37837 0.9634 0.0
C1274 C 0.63975 0.36678 0.94928 0.0
H1275 H 0.63964 0.08684 0.1436 0.0
H1276 H 0.56837 0.12758 0.13751 0.0
H1277 H 0.57358 0.14653 0.16364 0.0
H1278 H 0.63499 0.07533 0.18494 0.0
H1279 H 0.66828 0.08113 0.18856 0.0
H1280 H 0.6581 0.06911 0.16982 0.0
H1281 H 0.6803 0.10684 0.15593 0.0
H1282 H 0.69063 0.11892 0.17461 0.0
H1283 H 0.67245 0.13886 0.16162 0.0
H1284 H 0.58647 0.16121 0.19049 0.0
H1285 H 0.60787 0.17317 0.21519 0.0
H1286 H 0.67254 0.12623 0.20264 0.0
C1287 C 0.62515 0.0999 0.1476 0.0
C1288 C 0.60341 0.10537 0.13839 0.0
C1289 C 0.58487 0.12239 0.14438 0.0
C1290 C 0.58774 0.13347 0.15921 0.0
C1291 C 0.60941 0.12768 0.16788 0.0
C1292 C 0.62793 0.11152 0.16223 0.0
C1293 C 0.65007 0.10948 0.17353 0.0
C1294 C 0.65302 0.08214 0.17957 0.0
C1295 C 0.67482 0.1191 0.16597 0.0
C1296 C 0.64113 0.12713 0.1864 0.0
C1297 C 0.61745 0.13713 0.18301 0.0
C1298 C 0.60506 0.15359 0.19324 0.0
C1299 C 0.61732 0.16021 0.20724 0.0
C1300 C 0.64185 0.15069 0.21075 0.0
C1301 C 0.65384 0.13389 0.20019 0.0
H1302 H 0.87785 0.07165 0.40193 0.0
H1303 H 0.94782 0.11458 0.39651 0.0
H1304 H 0.94103 0.13414 0.42247 0.0
H1305 H 0.84234 0.11974 0.42002 0.0
H1306 H 0.82564 0.0989 0.43323 0.0
H1307 H 0.83689 0.08705 0.41472 0.0
H1308 H 0.86194 0.05156 0.42901 0.0
H1309 H 0.8507 0.06328 0.44759 0.0
H1310 H 0.88437 0.05997 0.44414 0.0
H1311 H 0.92509 0.15109 0.44821 0.0
H1312 H 0.90131 0.16385 0.47192 0.0
H1313 H 0.84255 0.10882 0.46077 0.0
C1314 C 0.89204 0.08475 0.40633 0.0
C1315 C 0.91337 0.09158 0.39718 0.0
C1316 C 0.93118 0.10927 0.40323 0.0
C1317 C 0.92759 0.12034 0.41801 0.0
C1318 C 0.90619 0.1134 0.42663 0.0
C1319 C 0.88879 0.09591 0.42104 0.0
C1320 C 0.86682 0.09252 0.43231 0.0
C1321 C 0.84143 0.10001 0.42461 0.0
C1322 C 0.86592 0.06521 0.43864 0.0
C1323 C 0.87436 0.11115 0.44498 0.0
C1324 C 0.89718 0.12293 0.44153 0.0
C1325 C 0.90736 0.14178 0.45113 0.0
C1326 C 0.89372 0.14892 0.46455 0.0
C1327 C 0.87022 0.13719 0.46821 0.0
C1328 C 0.86064 0.11788 0.45837 0.0
H1329 H 0.92628 0.40344 0.65372 0.0
H1330 H 0.86705 0.37881 0.62164 0.0
H1331 H 0.84121 0.36426 0.64397 0.0
H1332 H 0.92121 0.35092 0.67962 0.0
H1333 H 0.92704 0.36922 0.6971 0.0
H1334 H 0.94018 0.37941 0.67867 0.0
H1335 H 0.91832 0.42319 0.68191 0.0
H1336 H 0.9051 0.41312 0.70036 0.0
H1337 H 0.88444 0.42464 0.68508 0.0
H1338 H 0.82278 0.3502 0.66951 0.0
H1339 H 0.813 0.33767 0.69672 0.0
H1340 H 0.88431 0.3709 0.71222 0.0
C1341 C 0.90785 0.39504 0.65138 0.0
C1342 C 0.89862 0.39249 0.63591 0.0
C1343 C 0.87433 0.38148 0.63339 0.0
C1344 C 0.85955 0.373 0.64599 0.0
C1345 C 0.86929 0.37567 0.66106 0.0
C1346 C 0.89284 0.38644 0.66383 0.0
C1347 C 0.89922 0.38624 0.68113 0.0
C1348 C 0.92334 0.37051 0.68431 0.0
C1349 C 0.90192 0.41342 0.68749 0.0
C1350 C 0.87573 0.37333 0.68761 0.0
C1351 C 0.85865 0.3675 0.67584 0.0
C1352 C 0.83591 0.35482 0.67886 0.0
C1353 C 0.83054 0.34777 0.69433 0.0
C1354 C 0.84785 0.35341 0.70656 0.0
C1355 C 0.87062 0.36653 0.70312 0.0
H1356 H 0.57972 0.14057 0.35545 0.0
H1357 H 0.61801 0.06849 0.36314 0.0
H1358 H 0.63929 0.07278 0.33762 0.0
H1359 H 0.57157 0.13562 0.31374 0.0
H1360 H 0.57853 0.16864 0.31024 0.0
H1361 H 0.56459 0.15897 0.32856 0.0
H1362 H 0.60166 0.18034 0.34365 0.0
H1363 H 0.61568 0.19014 0.32539 0.0
H1364 H 0.634 0.17164 0.3391 0.0
H1365 H 0.65687 0.08509 0.31128 0.0
H1366 H 0.67163 0.10599 0.28699 0.0
H1367 H 0.62497 0.17163 0.29777 0.0
C1368 C 0.59269 0.12569 0.35192 0.0
C1369 C 0.59686 0.10404 0.3614 0.0
C1370 C 0.61383 0.08497 0.35603 0.0
C1371 C 0.62622 0.0873 0.34156 0.0
C1372 C 0.62175 0.10895 0.33263 0.0
C1373 C 0.60558 0.12792 0.33767 0.0
C1374 C 0.6051 0.14992 0.32626 0.0
C1375 C 0.57835 0.15348 0.31929 0.0
C1376 C 0.61469 0.17445 0.33407 0.0
C1377 C 0.62366 0.14042 0.31405 0.0
C1378 C 0.63278 0.11659 0.31783 0.0
C1379 C 0.64993 0.10378 0.30822 0.0
C1380 C 0.65815 0.11576 0.29446 0.0
C1381 C 0.6495 0.14042 0.29059 0.0
C1382 C 0.63199 0.15282 0.30051 0.0
H1383 H 0.90878 0.10653 0.60987 0.0
H1384 H 0.86156 0.03927 0.61451 0.0
H1385 H 0.84222 0.04823 0.58874 0.0
H1386 H 0.86298 0.14565 0.59167 0.0
H1387 H 0.8853 0.16095 0.57873 0.0
H1388 H 0.89589 0.14881 0.59732 0.0
H1389 H 0.93007 0.1216 0.5833 0.0
H1390 H 0.91961 0.1337 0.56464 0.0
H1391 H 0.92055 0.09994 0.56803 0.0
H1392 H 0.82675 0.06564 0.5629 0.0
H1393 H 0.81687 0.08991 0.53885 0.0
H1394 H 0.87555 0.14456 0.5508 0.0
C1395 C 0.8947 0.09339 0.60539 0.0
C1396 C 0.8867 0.07219 0.61427 0.0
C1397 C 0.86778 0.05584 0.60805 0.0
C1398 C 0.85681 0.06065 0.59336 0.0
C1399 C 0.86507 0.08179 0.58498 0.0
C1400 C 0.88368 0.09782 0.59074 0.0
C1401 C 0.88887 0.11952 0.57958 0.0
C1402 C 0.88289 0.14525 0.58729 0.0
C1403 C 0.91641 0.11862 0.57353 0.0
C1404 C 0.87006 0.11338 0.56671 0.0
C1405 C 0.85652 0.09153 0.57002 0.0
C1406 C 0.8374 0.08264 0.56011 0.0
C1407 C 0.83191 0.09654 0.5465 0.0
C1408 C 0.84556 0.11898 0.54293 0.0
C1409 C 0.865 0.12731 0.55313 0.0
H1410 H 0.91605 0.36037 0.86226 0.0
H1411 H 0.88783 0.43794 0.86412 0.0
H1412 H 0.87055 0.43313 0.83753 0.0
H1413 H 0.93204 0.35815 0.82176 0.0
H1414 H 0.92069 0.32617 0.81896 0.0
H1415 H 0.9323 0.33602 0.83786 0.0
H1416 H 0.88964 0.32252 0.85061 0.0
H1417 H 0.87796 0.31247 0.83177 0.0
H1418 H 0.86021 0.33523 0.84313 0.0
H1419 H 0.85725 0.42035 0.81038 0.0
H1420 H 0.84507 0.39899 0.78569 0.0
H1421 H 0.87754 0.32855 0.80277 0.0
C1422 C 0.90598 0.37635 0.85728 0.0
C1423 C 0.90375 0.39969 0.86542 0.0
C1424 C 0.89062 0.42007 0.85812 0.0
C1425 C 0.88049 0.41749 0.84301 0.0
C1426 C 0.88315 0.39428 0.83539 0.0
C1427 C 0.89522 0.37394 0.84237 0.0
C1428 C 0.89447 0.35066 0.83195 0.0
C1429 C 0.92148 0.34227 0.82736 0.0
C1430 C 0.87968 0.32894 0.83984 0.0
C1431 C 0.88014 0.36113 0.818 0.0
C1432 C 0.87413 0.38644 0.82013 0.0
C1433 C 0.86166 0.40048 0.80863 0.0
C1434 C 0.85492 0.38824 0.79465 0.0
C1435 C 0.86026 0.36216 0.79243 0.0
C1436 C 0.87303 0.34847 0.80426 0.0
H1437 H 0.60659 0.38511 0.11477 0.0
H1438 H 0.52995 0.4003 0.09827 0.0
H1439 H 0.54358 0.39125 0.07118 0.0
H1440 H 0.63959 0.41316 0.08148 0.0
H1441 H 0.66435 0.3895 0.08143 0.0
H1442 H 0.64876 0.39784 0.0995 0.0
H1443 H 0.63697 0.35062 0.10396 0.0
H1444 H 0.65246 0.34215 0.0859 0.0
H1445 H 0.61962 0.33369 0.08903 0.0
H1446 H 0.56497 0.37941 0.04616 0.0
H1447 H 0.59288 0.3657 0.02457 0.0
H1448 H 0.65601 0.3588 0.0571 0.0
C1449 C 0.59276 0.38688 0.10543 0.0
C1450 C 0.56718 0.39338 0.10864 0.0
C1451 C 0.54956 0.39506 0.09611 0.0
C1452 C 0.55716 0.39011 0.08069 0.0
C1453 C 0.58244 0.38357 0.07797 0.0
C1454 C 0.60002 0.382 0.08996 0.0
C1455 C 0.62589 0.374 0.08386 0.0
C1456 C 0.64582 0.39488 0.08674 0.0
C1457 C 0.63421 0.3486 0.09112 0.0
C1458 C 0.62005 0.37116 0.06657 0.0
C1459 C 0.59487 0.37683 0.06345 0.0
C1460 C 0.58475 0.37506 0.04843 0.0
C1461 C 0.60076 0.36721 0.03626 0.0
C1462 C 0.62661 0.36125 0.03916 0.0
C1463 C 0.63637 0.36339 0.05453 0.0
loop_
_geom_bond_atom_site_label_1
_geom_bond_atom_site_label_2
_geom_bond_distance
_geom_bond_site_symmetry_2
_ccdc_geom_bond_type
H0 C27 0.929 . S
N1 C26 1.433 . S
N1 C32 1.435 . S
N1 C38 1.423 . S
H2 C28 0.930 . S
H3 C31 0.931 . S
H4 C30 0.929 . S
H5 C33 0.930 . S
H6 C34 0.932 . S
H7 C37 0.929 . S
H8 C36 0.931 . S
H9 C39 0.929 . S
H10 C43 0.932 . S
H11 C40 0.931 . S
H12 C42 0.929 . S
H13 C45 0.929 . S
H14 C46 0.930 . S
H15 C48 0.929 . S
H16 C49 0.931 . S
H17 C51 0.930 . S
H18 C52 0.932 . S
H19 C54 0.931 . S
H20 C55 0.929 . S
H21 C57 0.929 . S
H22 C58 0.931 1_455 S
H23 C60 0.929 . S
N24 C44 1.433 . S
N24 C50 1.435 . S
N24 C56 1.423 . S
H25 C61 0.932 . S
C26 N1 1.433 . S
C26 C27 1.363 . S
C26 C31 1.370 . S
C27 H0 0.929 . S
C27 C26 1.363 . S
C27 C28 1.385 . S
C28 H2 0.930 . S
C28 C27 1.385 . S
C28 C29 1.357 . S
C29 C28 1.357 . S
C29 C30 1.406 . S
C30 H4 0.929 . S
C30 C29 1.406 . S
C30 C31 1.391 . S
C31 H3 0.931 . S
C31 C26 1.370 . S
C31 C30 1.391 . S
C32 N1 1.435 . S
C32 C33 1.358 . S
C32 C37 1.371 . S
C33 H5 0.930 . S
C33 C32 1.358 . S
C33 C34 1.405 . S
C34 H6 0.932 . S
C34 C33 1.405 . S
C34 C35 1.383 . S
C35 C34 1.383 . S
C35 C36 1.393 . S
C36 H8 0.931 . S
C36 C35 1.393 . S
C36 C37 1.382 . S
C37 H7 0.929 . S
C37 C32 1.371 . S
C37 C36 1.382 . S
C38 N1 1.423 . S
C38 C39 1.362 . S
C38 C43 1.388 . S
C39 H9 0.929 . S
C39 C38 1.362 . S
C39 C40 1.376 1_565 S
C40 H11 0.931 . S
C40 C39 1.376 1_545 S
C40 C41 1.396 . S
C41 C40 1.396 . S
C41 C42 1.348 1_545 S
C41 C59 1.472 . S
C42 H12 0.929 . S
C42 C41 1.348 1_565 S
C42 C43 1.443 . S
C43 H10 0.932 . S
C43 C38 1.388 . S
C43 C42 1.443 . S
C44 N24 1.433 . S
C44 C45 1.363 . S
C44 C49 1.370 . S
C45 H13 0.929 . S
C45 C44 1.363 . S
C45 C46 1.385 . S
C46 H14 0.930 . S
C46 C45 1.385 . S
C46 C47 1.357 . S
C47 C46 1.357 . S
C47 C48 1.406 . S
C48 H15 0.929 . S
C48 C47 1.406 . S
C48 C49 1.391 . S
C49 H16 0.931 . S
C49 C44 1.370 . S
C49 C48 1.391 . S
C50 N24 1.435 . S
C50 C51 1.358 . S
C50 C55 1.371 . S
C51 H17 0.930 . S
C51 C50 1.358 . S
C51 C52 1.405 . S
C52 H18 0.932 . S
C52 C51 1.405 . S
C52 C53 1.383 . S
C53 C52 1.383 . S
C53 C54 1.393 . S
C54 H19 0.931 . S
C54 C53 1.393 . S
C54 C55 1.382 . S
C55 H20 0.929 . S
C55 C50 1.371 . S
C55 C54 1.382 . S
C56 N24 1.423 . S
C56 C57 1.362 . S
C56 C61 1.388 . S
C57 H21 0.929 . S
C57 C56 1.362 . S
C57 C58 1.376 . S
C58 H22 0.931 1_655 S
C58 C57 1.376 . S
C58 C59 1.396 1_655 S
C59 C41 1.472 . S
C59 C58 1.396 1_455 S
C59 C60 1.348 1_455 S
C60 H23 0.929 . S
C60 C59 1.348 1_655 S
C60 C61 1.443 . S
C61 H25 0.932 . S
C61 C56 1.388 . S
C61 C60 1.443 . S
H62 C89 0.929 . S
N63 C88 1.433 . S
N63 C94 1.435 . S
N63 C100 1.423 . S
H64 C90 0.930 . S
H65 C93 0.931 . S
H66 C92 0.929 . S
H67 C95 0.930 . S
H68 C96 0.932 . S
H69 C99 0.929 . S
H70 C98 0.931 . S
H71 C101 0.929 . S
H72 C105 0.932 . S
H73 C102 0.931 . S
H74 C104 0.929 . S
H75 C107 0.929 . S
H76 C108 0.930 . S
H77 C110 0.929 . S
H78 C111 0.931 . S
H79 C113 0.930 . S
H80 C114 0.932 . S
H81 C116 0.931 . S
H82 C117 0.929 . S
H83 C119 0.929 . S
H84 C120 0.931 . S
H85 C122 0.929 . S
N86 C106 1.433 . S
N86 C112 1.435 . S
N86 C118 1.423 . S
H87 C123 0.932 . S
C88 N63 1.433 . S
C88 C89 1.363 . S
C88 C93 1.370 . S
C89 H62 0.929 . S
C89 C88 1.363 . S
C89 C90 1.385 . S
C90 H64 0.930 . S
C90 C89 1.385 . S
C90 C91 1.357 . S
C91 C90 1.357 . S
C91 C92 1.406 . S
C92 H66 0.929 . S
C92 C91 1.406 . S
C92 C93 1.391 . S
C93 H65 0.931 . S
C93 C88 1.370 . S
C93 C92 1.391 . S
C94 N63 1.435 . S
C94 C95 1.358 . S
C94 C99 1.371 . S
C95 H67 0.930 . S
C95 C94 1.358 . S
C95 C96 1.405 . S
C96 H68 0.932 . S
C96 C95 1.405 . S
C96 C97 1.383 . S
C97 C96 1.383 . S
C97 C98 1.393 . S
C98 H70 0.931 . S
C98 C97 1.393 . S
C98 C99 1.382 . S
C99 H69 0.929 . S
C99 C94 1.371 . S
C99 C98 1.382 . S
C100 N63 1.423 . S
C100 C101 1.362 . S
C100 C105 1.388 . S
C101 H71 0.929 . S
C101 C100 1.362 . S
C101 C102 1.376 1_655 S
C102 H73 0.931 . S
C102 C101 1.376 1_455 S
C102 C103 1.396 . S
C103 C102 1.396 . S
C103 C104 1.348 1_455 S
C103 C121 1.472 . S
C104 H74 0.929 . S
C104 C103 1.348 1_655 S
C104 C105 1.443 . S
C105 H72 0.932 . S
C105 C100 1.388 . S
C105 C104 1.443 . S
C106 N86 1.433 . S
C106 C107 1.363 . S
C106 C111 1.370 . S
C107 H75 0.929 . S
C107 C106 1.363 . S
C107 C108 1.385 . S
C108 H76 0.930 . S
C108 C107 1.385 . S
C108 C109 1.357 . S
C109 C108 1.357 . S
C109 C110 1.406 . S
C110 H77 0.929 . S
C110 C109 1.406 . S
C110 C111 1.391 . S
C111 H78 0.931 . S
C111 C106 1.370 . S
C111 C110 1.391 . S
C112 N86 1.435 . S
C112 C113 1.358 . S
C112 C117 1.371 . S
C113 H79 0.930 . S
C113 C112 1.358 . S
C113 C114 1.405 . S
C114 H80 0.932 . S
C114 C113 1.405 . S
C114 C115 1.383 . S
C115 C114 1.383 . S
C115 C116 1.393 . S
C116 H81 0.931 . S
C116 C115 1.393 . S
C116 C117 1.382 . S
C117 H82 0.929 . S
C117 C112 1.371 . S
C117 C116 1.382 . S
C118 N86 1.423 . S
C118 C119 1.362 . S
C118 C123 1.388 . S
C119 H83 0.929 . S
C119 C118 1.362 . S
C119 C120 1.376 . S
C120 H84 0.931 . S
C120 C119 1.376 . S
C120 C121 1.396 . S
C121 C103 1.472 . S
C121 C120 1.396 . S
C121 C122 1.348 . S
C122 H85 0.929 . S
C122 C121 1.348 . S
C122 C123 1.443 . S
C123 H87 0.932 . S
C123 C118 1.388 . S
C123 C122 1.443 . S
H124 C151 0.929 . S
N125 C150 1.433 . S
N125 C156 1.435 . S
N125 C162 1.423 . S
H126 C152 0.930 . S
H127 C155 0.931 . S
H128 C154 0.929 . S
H129 C157 0.930 . S
H130 C158 0.932 . S
H131 C161 0.929 . S
H132 C160 0.931 . S
H133 C163 0.929 . S
H134 C167 0.932 . S
H135 C164 0.931 . S
H136 C166 0.929 . S
H137 C169 0.929 . S
H138 C170 0.930 . S
H139 C172 0.929 . S
H140 C173 0.931 . S
H141 C175 0.930 . S
H142 C176 0.932 . S
H143 C178 0.931 . S
H144 C179 0.929 . S
H145 C181 0.929 . S
H146 C182 0.931 . S
H147 C184 0.929 . S
N148 C168 1.433 . S
N148 C174 1.435 . S
N148 C180 1.423 . S
H149 C185 0.932 . S
C150 N125 1.433 . S
C150 C151 1.363 . S
C150 C155 1.370 . S
C151 H124 0.929 . S
C151 C150 1.363 . S
C151 C152 1.385 . S
C152 H126 0.930 . S
C152 C151 1.385 . S
C152 C153 1.357 . S
C153 C152 1.357 . S
C153 C154 1.406 . S
C154 H128 0.929 . S
C154 C153 1.406 . S
C154 C155 1.391 . S
C155 H127 0.931 . S
C155 C150 1.370 . S
C155 C154 1.391 . S
C156 N125 1.435 . S
C156 C157 1.358 . S
C156 C161 1.371 . S
C157 H129 0.930 . S
C157 C156 1.358 . S
C157 C158 1.405 . S
C158 H130 0.932 . S
C158 C157 1.405 . S
C158 C159 1.383 . S
C159 C158 1.383 . S
C159 C160 1.393 . S
C160 H132 0.931 . S
C160 C159 1.393 . S
C160 C161 1.382 . S
C161 H131 0.929 . S
C161 C156 1.371 . S
C161 C160 1.382 . S
C162 N125 1.423 . S
C162 C163 1.362 . S
C162 C167 1.388 . S
C163 H133 0.929 . S
C163 C162 1.362 . S
C163 C164 1.376 . S
C164 H135 0.931 . S
C164 C163 1.376 . S
C164 C165 1.396 . S
C165 C164 1.396 . S
C165 C166 1.348 . S
C165 C183 1.472 . S
C166 H136 0.929 . S
C166 C165 1.348 . S
C166 C167 1.443 . S
C167 H134 0.932 . S
C167 C162 1.388 . S
C167 C166 1.443 . S
C168 N148 1.433 . S
C168 C169 1.363 . S
C168 C173 1.370 . S
C169 H137 0.929 . S
C169 C168 1.363 . S
C169 C170 1.385 . S
C170 H138 0.930 . S
C170 C169 1.385 . S
C170 C171 1.357 . S
C171 C170 1.357 . S
C171 C172 1.406 . S
C172 H139 0.929 . S
C172 C171 1.406 . S
C172 C173 1.391 . S
C173 H140 0.931 . S
C173 C168 1.370 . S
C173 C172 1.391 . S
C174 N148 1.435 . S
C174 C175 1.358 . S
C174 C179 1.371 . S
C175 H141 0.930 . S
C175 C174 1.358 . S
C175 C176 1.405 . S
C176 H142 0.932 . S
C176 C175 1.405 . S
C176 C177 1.383 . S
C177 C176 1.383 . S
C177 C178 1.393 . S
C178 H143 0.931 . S
C178 C177 1.393 . S
C178 C179 1.382 . S
C179 H144 0.929 . S
C179 C174 1.371 . S
C179 C178 1.382 . S
C180 N148 1.423 . S
C180 C181 1.362 . S
C180 C185 1.388 . S
C181 H145 0.929 . S
C181 C180 1.362 . S
C181 C182 1.376 . S
C182 H146 0.931 . S
C182 C181 1.376 . S
C182 C183 1.396 . S
C183 C165 1.472 . S
C183 C182 1.396 . S
C183 C184 1.348 . S
C184 H147 0.929 . S
C184 C183 1.348 . S
C184 C185 1.443 . S
C185 H149 0.932 . S
C185 C180 1.388 . S
C185 C184 1.443 . S
H186 C213 0.929 . S
N187 C212 1.433 . S
N187 C218 1.435 . S
N187 C224 1.423 . S
H188 C214 0.930 . S
H189 C217 0.931 . S
H190 C216 0.929 . S
H191 C219 0.930 . S
H192 C220 0.932 . S
H193 C223 0.929 . S
H194 C222 0.931 . S
H195 C225 0.929 . S
H196 C229 0.932 . S
H197 C226 0.931 . S
H198 C228 0.929 . S
H199 C231 0.929 . S
H200 C232 0.930 . S
H201 C234 0.929 . S
H202 C235 0.931 . S
H203 C237 0.930 . S
H204 C238 0.932 . S
H205 C240 0.931 . S
H206 C241 0.929 . S
H207 C243 0.929 . S
H208 C244 0.931 1_565 S
H209 C246 0.929 . S
N210 C230 1.433 . S
N210 C236 1.435 . S
N210 C242 1.423 . S
H211 C247 0.932 . S
C212 N187 1.433 . S
C212 C213 1.363 . S
C212 C217 1.370 . S
C213 H186 0.929 . S
C213 C212 1.363 . S
C213 C214 1.385 . S
C214 H188 0.930 . S
C214 C213 1.385 . S
C214 C215 1.357 . S
C215 C214 1.357 . S
C215 C216 1.406 . S
C216 H190 0.929 . S
C216 C215 1.406 . S
C216 C217 1.391 . S
C217 H189 0.931 . S
C217 C212 1.370 . S
C217 C216 1.391 . S
C218 N187 1.435 . S
C218 C219 1.358 . S
C218 C223 1.371 . S
C219 H191 0.930 . S
C219 C218 1.358 . S
C219 C220 1.405 . S
C220 H192 0.932 . S
C220 C219 1.405 . S
C220 C221 1.383 . S
C221 C220 1.383 . S
C221 C222 1.393 . S
C222 H194 0.931 . S
C222 C221 1.393 . S
C222 C223 1.382 . S
C223 H193 0.929 . S
C223 C218 1.371 . S
C223 C222 1.382 . S
C224 N187 1.423 . S
C224 C225 1.362 . S
C224 C229 1.388 . S
C225 H195 0.929 . S
C225 C224 1.362 . S
C225 C226 1.376 . S
C226 H197 0.931 . S
C226 C225 1.376 . S
C226 C227 1.396 . S
C227 C226 1.396 . S
C227 C228 1.348 . S
C227 C245 1.443 1_565 S
C228 H198 0.929 . S
C228 C227 1.348 . S
C228 C229 1.443 . S
C229 H196 0.932 . S
C229 C224 1.388 . S
C229 C228 1.443 . S
C230 N210 1.433 . S
C230 C231 1.363 . S
C230 C235 1.370 . S
C231 H199 0.929 . S
C231 C230 1.363 . S
C231 C232 1.385 . S
C232 H200 0.930 . S
C232 C231 1.385 . S
C232 C233 1.357 . S
C233 C232 1.357 . S
C233 C234 1.406 . S
C234 H201 0.929 . S
C234 C233 1.406 . S
C234 C235 1.391 . S
C235 H202 0.931 . S
C235 C230 1.370 . S
C235 C234 1.391 . S
C236 N210 1.435 . S
C236 C237 1.358 . S
C236 C241 1.371 . S
C237 H203 0.930 . S
C237 C236 1.358 . S
C237 C238 1.405 . S
C238 H204 0.932 . S
C238 C237 1.405 . S
C238 C239 1.383 . S
C239 C238 1.383 . S
C239 C240 1.393 . S
C240 H205 0.931 . S
C240 C239 1.393 . S
C240 C241 1.382 . S
C241 H206 0.929 . S
C241 C236 1.371 . S
C241 C240 1.382 . S
C242 N210 1.423 . S
C242 C243 1.362 . S
C242 C247 1.388 . S
C243 H207 0.929 . S
C243 C242 1.362 . S
C243 C244 1.376 . S
C244 H208 0.931 1_545 S
C244 C243 1.376 . S
C244 C245 1.400 . S
C245 C227 1.443 1_545 S
C245 C244 1.400 . S
C245 C246 1.375 . S
C246 H209 0.929 . S
C246 C245 1.375 . S
C246 C247 1.443 . S
C247 H211 0.932 . S
C247 C242 1.388 . S
C247 C246 1.443 . S
H248 C275 0.929 . S
N249 C274 1.433 . S
N249 C280 1.435 . S
N249 C286 1.423 . S
H250 C276 0.930 . S
H251 C279 0.931 . S
H252 C278 0.929 . S
H253 C281 0.930 . S
H254 C282 0.932 . S
H255 C285 0.929 . S
H256 C284 0.931 . S
H257 C287 0.929 . S
H258 C291 0.932 . S
H259 C288 0.931 . S
H260 C290 0.929 . S
H261 C293 0.929 . S
H262 C294 0.930 . S
H263 C296 0.929 . S
H264 C297 0.931 . S
H265 C299 0.930 . S
H266 C300 0.932 . S
H267 C302 0.931 . S
H268 C303 0.929 . S
H269 C305 0.929 . S
H270 C306 0.931 1_455 S
H271 C308 0.929 . S
N272 C292 1.433 . S
N272 C298 1.435 . S
N272 C304 1.423 . S
H273 C309 0.932 . S
C274 N249 1.433 . S
C274 C275 1.363 . S
C274 C279 1.370 . S
C275 H248 0.929 . S
C275 C274 1.363 . S
C275 C276 1.385 . S
C276 H250 0.930 . S
C276 C275 1.385 . S
C276 C277 1.357 . S
C277 C276 1.357 . S
C277 C278 1.406 . S
C278 H252 0.929 . S
C278 C277 1.406 . S
C278 C279 1.391 . S
C279 H251 0.931 . S
C279 C274 1.370 . S
C279 C278 1.391 . S
C280 N249 1.435 . S
C280 C281 1.358 . S
C280 C285 1.371 . S
C281 H253 0.930 . S
C281 C280 1.358 . S
C281 C282 1.405 . S
C282 H254 0.932 . S
C282 C281 1.405 . S
C282 C283 1.383 . S
C283 C282 1.383 . S
C283 C284 1.393 . S
C284 H256 0.931 . S
C284 C283 1.393 . S
C284 C285 1.382 . S
C285 H255 0.929 . S
C285 C280 1.371 . S
C285 C284 1.382 . S
C286 N249 1.423 . S
C286 C287 1.362 . S
C286 C291 1.388 . S
C287 H257 0.929 . S
C287 C286 1.362 . S
C287 C288 1.376 . S
C288 H259 0.931 . S
C288 C287 1.376 . S
C288 C289 1.396 . S
C289 C288 1.396 . S
C289 C290 1.348 . S
C289 C307 1.510 . S
C290 H260 0.929 . S
C290 C289 1.348 . S
C290 C291 1.443 . S
C291 H258 0.932 . S
C291 C286 1.388 . S
C291 C290 1.443 . S
C292 N272 1.433 . S
C292 C293 1.363 . S
C292 C297 1.370 . S
C293 H261 0.929 . S
C293 C292 1.363 . S
C293 C294 1.385 . S
C294 H262 0.930 . S
C294 C293 1.385 . S
C294 C295 1.357 . S
C295 C294 1.357 . S
C295 C296 1.406 . S
C296 H263 0.929 . S
C296 C295 1.406 . S
C296 C297 1.391 . S
C297 H264 0.931 . S
C297 C292 1.370 . S
C297 C296 1.391 . S
C298 N272 1.435 . S
C298 C299 1.358 . S
C298 C303 1.371 . S
C299 H265 0.930 . S
C299 C298 1.358 . S
C299 C300 1.405 . S
C300 H266 0.932 . S
C300 C299 1.405 . S
C300 C301 1.383 . S
C301 C300 1.383 . S
C301 C302 1.393 . S
C302 H267 0.931 . S
C302 C301 1.393 . S
C302 C303 1.382 . S
C303 H268 0.929 . S
C303 C298 1.371 . S
C303 C302 1.382 . S
C304 N272 1.423 . S
C304 C305 1.362 . S
C304 C309 1.388 . S
C305 H269 0.929 . S
C305 C304 1.362 . S
C305 C306 1.376 . S
C306 H270 0.931 1_655 S
C306 C305 1.376 . S
C306 C307 1.392 1_655 S
C307 C289 1.510 . S
C307 C306 1.392 1_455 S
C307 C308 1.313 1_455 S
C308 H271 0.929 . S
C308 C307 1.313 1_655 S
C308 C309 1.443 . S
C309 H273 0.932 . S
C309 C304 1.388 . S
C309 C308 1.443 . S
H310 C337 0.929 . S
N311 C336 1.433 . S
N311 C342 1.435 . S
N311 C348 1.423 . S
H312 C338 0.930 . S
H313 C341 0.931 . S
H314 C340 0.929 . S
H315 C343 0.930 . S
H316 C344 0.932 . S
H317 C347 0.929 . S
H318 C346 0.931 . S
H319 C349 0.929 . S
H320 C353 0.932 . S
H321 C350 0.931 . S
H322 C352 0.929 . S
H323 C355 0.929 . S
H324 C356 0.930 . S
H325 C358 0.929 . S
H326 C359 0.931 . S
H327 C361 0.930 . S
H328 C362 0.932 . S
H329 C364 0.931 . S
H330 C365 0.929 . S
H331 C367 0.929 . S
H332 C368 0.931 . S
H333 C370 0.929 . S
N334 C354 1.433 . S
N334 C360 1.435 . S
N334 C366 1.423 . S
H335 C371 0.932 . S
C336 N311 1.433 . S
C336 C337 1.363 . S
C336 C341 1.370 . S
C337 H310 0.929 . S
C337 C336 1.363 . S
C337 C338 1.385 . S
C338 H312 0.930 . S
C338 C337 1.385 . S
C338 C339 1.357 . S
C339 C338 1.357 . S
C339 C340 1.406 . S
C340 H314 0.929 . S
C340 C339 1.406 . S
C340 C341 1.391 . S
C341 H313 0.931 . S
C341 C336 1.370 . S
C341 C340 1.391 . S
C342 N311 1.435 . S
C342 C343 1.358 . S
C342 C347 1.371 . S
C343 H315 0.930 . S
C343 C342 1.358 . S
C343 C344 1.405 . S
C344 H316 0.932 . S
C344 C343 1.405 . S
C344 C345 1.383 . S
C345 C344 1.383 . S
C345 C346 1.393 . S
C346 H318 0.931 . S
C346 C345 1.393 . S
C346 C347 1.382 . S
C347 H317 0.929 . S
C347 C342 1.371 . S
C347 C346 1.382 . S
C348 N311 1.423 . S
C348 C349 1.362 . S
C348 C353 1.388 . S
C349 H319 0.929 . S
C349 C348 1.362 . S
C349 C350 1.376 . S
C350 H321 0.931 . S
C350 C349 1.376 . S
C350 C351 1.396 . S
C351 C350 1.396 . S
C351 C352 1.348 . S
C351 C369 1.472 . S
C352 H322 0.929 . S
C352 C351 1.348 . S
C352 C353 1.443 . S
C353 H320 0.932 . S
C353 C348 1.388 . S
C353 C352 1.443 . S
C354 N334 1.433 . S
C354 C355 1.363 . S
C354 C359 1.370 . S
C355 H323 0.929 . S
C355 C354 1.363 . S
C355 C356 1.385 . S
C356 H324 0.930 . S
C356 C355 1.385 . S
C356 C357 1.357 . S
C357 C356 1.357 . S
C357 C358 1.406 . S
C358 H325 0.929 . S
C358 C357 1.406 . S
C358 C359 1.391 . S
C359 H326 0.931 . S
C359 C354 1.370 . S
C359 C358 1.391 . S
C360 N334 1.435 . S
C360 C361 1.358 . S
C360 C365 1.371 . S
C361 H327 0.930 . S
C361 C360 1.358 . S
C361 C362 1.405 . S
C362 H328 0.932 . S
C362 C361 1.405 . S
C362 C363 1.383 . S
C363 C362 1.383 . S
C363 C364 1.393 . S
C364 H329 0.931 . S
C364 C363 1.393 . S
C364 C365 1.382 . S
C365 H330 0.929 . S
C365 C360 1.371 . S
C365 C364 1.382 . S
C366 N334 1.423 . S
C366 C367 1.362 . S
C366 C371 1.388 . S
C367 H331 0.929 . S
C367 C366 1.362 . S
C367 C368 1.376 . S
C368 H332 0.931 . S
C368 C367 1.376 . S
C368 C369 1.396 . S
C369 C351 1.472 . S
C369 C368 1.396 . S
C369 C370 1.348 . S
C370 H333 0.929 . S
C370 C369 1.348 . S
C370 C371 1.443 . S
C371 H335 0.932 . S
C371 C366 1.388 . S
C371 C370 1.443 . S
H372 C399 0.929 . S
N373 C398 1.433 . S
N373 C404 1.435 . S
N373 C410 1.423 . S
H374 C400 0.930 . S
H375 C403 0.931 . S
H376 C402 0.929 . S
H377 C405 0.930 . S
H378 C406 0.932 . S
H379 C409 0.929 . S
H380 C408 0.931 . S
H381 C411 0.929 . S
H382 C415 0.932 . S
H383 C412 0.931 . S
H384 C414 0.929 . S
H385 C417 0.929 . S
H386 C418 0.930 . S
H387 C420 0.929 . S
H388 C421 0.931 . S
H389 C423 0.930 . S
H390 C424 0.932 . S
H391 C426 0.931 . S
H392 C427 0.929 . S
H393 C429 0.929 . S
H394 C430 0.931 . S
H395 C432 0.929 . S
N396 C416 1.433 . S
N396 C422 1.435 . S
N396 C428 1.423 . S
H397 C433 0.932 . S
C398 N373 1.433 . S
C398 C399 1.363 . S
C398 C403 1.370 . S
C399 H372 0.929 . S
C399 C398 1.363 . S
C399 C400 1.385 . S
C400 H374 0.930 . S
C400 C399 1.385 . S
C400 C401 1.357 . S
C401 C400 1.357 . S
C401 C402 1.406 . S
C402 H376 0.929 . S
C402 C401 1.406 . S
C402 C403 1.391 . S
C403 H375 0.931 . S
C403 C398 1.370 . S
C403 C402 1.391 . S
C404 N373 1.435 . S
C404 C405 1.358 . S
C404 C409 1.371 . S
C405 H377 0.930 . S
C405 C404 1.358 . S
C405 C406 1.405 . S
C406 H378 0.932 . S
C406 C405 1.405 . S
C406 C407 1.383 . S
C407 C406 1.383 . S
C407 C408 1.393 . S
C408 H380 0.931 . S
C408 C407 1.393 . S
C408 C409 1.382 . S
C409 H379 0.929 . S
C409 C404 1.371 . S
C409 C408 1.382 . S
C410 N373 1.423 . S
C410 C411 1.362 . S
C410 C415 1.388 . S
C411 H381 0.929 . S
C411 C410 1.362 . S
C411 C412 1.376 1_565 S
C412 H383 0.931 . S
C412 C411 1.376 1_545 S
C412 C413 1.396 . S
C413 C412 1.396 . S
C413 C414 1.348 1_545 S
C413 C431 1.472 . S
C414 H384 0.929 . S
C414 C413 1.348 1_565 S
C414 C415 1.443 . S
C415 H382 0.932 . S
C415 C410 1.388 . S
C415 C414 1.443 . S
C416 N396 1.433 . S
C416 C417 1.363 . S
C416 C421 1.370 . S
C417 H385 0.929 . S
C417 C416 1.363 . S
C417 C418 1.385 . S
C418 H386 0.930 . S
C418 C417 1.385 . S
C418 C419 1.357 . S
C419 C418 1.357 . S
C419 C420 1.406 . S
C420 H387 0.929 . S
C420 C419 1.406 . S
C420 C421 1.391 . S
C421 H388 0.931 . S
C421 C416 1.370 . S
C421 C420 1.391 . S
C422 N396 1.435 . S
C422 C423 1.358 . S
C422 C427 1.371 . S
C423 H389 0.930 . S
C423 C422 1.358 . S
C423 C424 1.405 . S
C424 H390 0.932 . S
C424 C423 1.405 . S
C424 C425 1.383 . S
C425 C424 1.383 . S
C425 C426 1.393 . S
C426 H391 0.931 . S
C426 C425 1.393 . S
C426 C427 1.382 . S
C427 H392 0.929 . S
C427 C422 1.371 . S
C427 C426 1.382 . S
C428 N396 1.423 . S
C428 C429 1.362 . S
C428 C433 1.388 . S
C429 H393 0.929 . S
C429 C428 1.362 . S
C429 C430 1.376 . S
C430 H394 0.931 . S
C430 C429 1.376 . S
C430 C431 1.396 . S
C431 C413 1.472 . S
C431 C430 1.396 . S
C431 C432 1.348 . S
C432 H395 0.929 . S
C432 C431 1.348 . S
C432 C433 1.443 . S
C433 H397 0.932 . S
C433 C428 1.388 . S
C433 C432 1.443 . S
H434 C461 0.929 . S
N435 C460 1.433 . S
N435 C466 1.435 . S
N435 C472 1.423 . S
H436 C462 0.930 . S
H437 C465 0.931 . S
H438 C464 0.929 . S
H439 C467 0.930 . S
H440 C468 0.932 . S
H441 C471 0.929 . S
H442 C470 0.931 . S
H443 C473 0.929 . S
H444 C477 0.932 . S
H445 C474 0.931 . S
H446 C476 0.929 . S
H447 C479 0.929 . S
H448 C480 0.930 . S
H449 C482 0.929 . S
H450 C483 0.931 . S
H451 C485 0.930 . S
H452 C486 0.932 . S
H453 C488 0.931 . S
H454 C489 0.929 . S
H455 C491 0.929 . S
H456 C492 0.931 1_565 S
H457 C494 0.929 . S
N458 C478 1.433 . S
N458 C484 1.435 . S
N458 C490 1.423 . S
H459 C495 0.932 . S
C460 N435 1.433 . S
C460 C461 1.363 . S
C460 C465 1.370 . S
C461 H434 0.929 . S
C461 C460 1.363 . S
C461 C462 1.385 . S
C462 H436 0.930 . S
C462 C461 1.385 . S
C462 C463 1.357 . S
C463 C462 1.357 . S
C463 C464 1.406 . S
C464 H438 0.929 . S
C464 C463 1.406 . S
C464 C465 1.391 . S
C465 H437 0.931 . S
C465 C460 1.370 . S
C465 C464 1.391 . S
C466 N435 1.435 . S
C466 C467 1.358 . S
C466 C471 1.371 . S
C467 H439 0.930 . S
C467 C466 1.358 . S
C467 C468 1.405 . S
C468 H440 0.932 . S
C468 C467 1.405 . S
C468 C469 1.383 . S
C469 C468 1.383 . S
C469 C470 1.393 . S
C470 H442 0.931 . S
C470 C469 1.393 . S
C470 C471 1.382 . S
C471 H441 0.929 . S
C471 C466 1.371 . S
C471 C470 1.382 . S
C472 N435 1.423 . S
C472 C473 1.362 . S
C472 C477 1.388 . S
C473 H443 0.929 . S
C473 C472 1.362 . S
C473 C474 1.376 1_455 S
C474 H445 0.931 . S
C474 C473 1.376 1_655 S
C474 C475 1.396 . S
C475 C474 1.396 . S
C475 C476 1.348 1_655 S
C475 C493 1.472 1_565 S
C476 H446 0.929 . S
C476 C475 1.348 1_455 S
C476 C477 1.443 . S
C477 H444 0.932 . S
C477 C472 1.388 . S
C477 C476 1.443 . S
C478 N458 1.433 . S
C478 C479 1.363 . S
C478 C483 1.370 . S
C479 H447 0.929 . S
C479 C478 1.363 . S
C479 C480 1.385 . S
C480 H448 0.930 . S
C480 C479 1.385 . S
C480 C481 1.357 . S
C481 C480 1.357 . S
C481 C482 1.406 . S
C482 H449 0.929 . S
C482 C481 1.406 . S
C482 C483 1.391 . S
C483 H450 0.931 . S
C483 C478 1.370 . S
C483 C482 1.391 . S
C484 N458 1.435 . S
C484 C485 1.358 . S
C484 C489 1.371 . S
C485 H451 0.930 . S
C485 C484 1.358 . S
C485 C486 1.405 . S
C486 H452 0.932 . S
C486 C485 1.405 . S
C486 C487 1.383 . S
C487 C486 1.383 . S
C487 C488 1.393 . S
C488 H453 0.931 . S
C488 C487 1.393 . S
C488 C489 1.382 . S
C489 H454 0.929 . S
C489 C484 1.371 . S
C489 C488 1.382 . S
C490 N458 1.423 . S
C490 C491 1.362 . S
C490 C495 1.388 . S
C491 H455 0.929 . S
C491 C490 1.362 . S
C491 C492 1.376 . S
C492 H456 0.931 1_545 S
C492 C491 1.376 . S
C492 C493 1.396 . S
C493 C475 1.472 1_545 S
C493 C492 1.396 . S
C493 C494 1.348 . S
C494 H457 0.929 . S
C494 C493 1.348 . S
C494 C495 1.443 . S
C495 H459 0.932 . S
C495 C490 1.388 . S
C495 C494 1.443 . S
In496 O497 2.294 . S
In496 O498 2.326 . S
In496 O502 2.266 1_554 S
In496 O503 2.326 1_554 S
In496 O504 2.266 1_554 S
In496 O505 2.326 1_554 S
In496 O507 2.294 . S
In496 O508 2.326 . S
O497 In496 2.294 . S
O497 C506 1.240 . S
O498 In496 2.326 . S
O498 C506 1.252 . S
C499 O502 1.252 . S
C499 O503 1.260 . S
C500 O507 1.240 . S
C500 O508 1.252 . S
C501 O504 1.252 . S
C501 O505 1.260 . S
O502 In496 2.266 1_556 S
O502 C499 1.252 . S
O503 In496 2.326 1_556 S
O503 C499 1.260 . S
O504 In496 2.266 1_556 S
O504 C501 1.252 . S
O505 In496 2.326 1_556 S
O505 C501 1.260 . S
C506 O497 1.240 . S
C506 O498 1.252 . S
O507 In496 2.294 . S
O507 C500 1.240 . S
O508 In496 2.326 . S
O508 C500 1.252 . S
In509 O510 2.294 . S
In509 O511 2.326 . S
In509 O515 2.266 . S
In509 O516 2.326 . S
In509 O517 2.266 . S
In509 O518 2.326 . S
In509 O520 2.294 . S
In509 O521 2.326 . S
O510 In509 2.294 . S
O510 C519 1.240 . S
O511 In509 2.326 . S
O511 C519 1.252 . S
C512 O515 1.252 . S
C512 O516 1.260 . S
C513 O520 1.240 . S
C513 O521 1.252 . S
C514 O517 1.252 . S
C514 O518 1.260 . S
O515 In509 2.266 . S
O515 C512 1.252 . S
O516 In509 2.326 . S
O516 C512 1.260 . S
O517 In509 2.266 . S
O517 C514 1.252 . S
O518 In509 2.326 . S
O518 C514 1.260 . S
C519 O510 1.240 . S
C519 O511 1.252 . S
O520 In509 2.294 . S
O520 C513 1.240 . S
O521 In509 2.326 . S
O521 C513 1.252 . S
In522 O523 2.294 . S
In522 O524 2.326 . S
In522 O528 2.266 . S
In522 O529 2.326 . S
In522 O530 2.266 . S
In522 O531 2.326 . S
In522 O533 2.294 . S
In522 O534 2.326 . S
O523 In522 2.294 . S
O523 C532 1.240 . S
O524 In522 2.326 . S
O524 C532 1.252 . S
C525 O528 1.252 . S
C525 O529 1.260 . S
C526 O533 1.240 . S
C526 O534 1.252 . S
C527 O530 1.252 . S
C527 O531 1.260 . S
O528 In522 2.266 . S
O528 C525 1.252 . S
O529 In522 2.326 . S
O529 C525 1.260 . S
O530 In522 2.266 . S
O530 C527 1.252 . S
O531 In522 2.326 . S
O531 C527 1.260 . S
C532 O523 1.240 . S
C532 O524 1.252 . S
O533 In522 2.294 . S
O533 C526 1.240 . S
O534 In522 2.326 . S
O534 C526 1.252 . S
In535 O536 2.294 . S
In535 O537 2.326 . S
In535 O541 2.266 . S
In535 O542 2.326 . S
In535 O543 2.266 . S
In535 O544 2.326 . S
In535 O546 2.294 . S
In535 O547 2.326 . S
O536 In535 2.294 . S
O536 C545 1.240 . S
O537 In535 2.326 . S
O537 C545 1.252 . S
C538 O541 1.252 . S
C538 O542 1.260 . S
C539 O546 1.240 . S
C539 O547 1.252 . S
C540 O543 1.252 . S
C540 O544 1.260 . S
O541 In535 2.266 . S
O541 C538 1.252 . S
O542 In535 2.326 . S
O542 C538 1.260 . S
O543 In535 2.266 . S
O543 C540 1.252 . S
O544 In535 2.326 . S
O544 C540 1.260 . S
C545 O536 1.240 . S
C545 O537 1.252 . S
O546 In535 2.294 . S
O546 C539 1.240 . S
O547 In535 2.326 . S
O547 C539 1.252 . S
In548 O549 2.294 . S
In548 O550 2.326 . S
In548 O554 2.266 . S
In548 O555 2.326 . S
In548 O556 2.266 . S
In548 O557 2.326 . S
In548 O559 2.294 . S
In548 O560 2.326 . S
O549 In548 2.294 . S
O549 C558 1.240 . S
O550 In548 2.326 . S
O550 C558 1.252 . S
C551 O554 1.252 . S
C551 O555 1.260 . S
C552 O559 1.240 . S
C552 O560 1.252 . S
C553 O556 1.252 . S
C553 O557 1.260 . S
O554 In548 2.266 . S
O554 C551 1.252 . S
O555 In548 2.326 . S
O555 C551 1.260 . S
O556 In548 2.266 . S
O556 C553 1.252 . S
O557 In548 2.326 . S
O557 C553 1.260 . S
C558 O549 1.240 . S
C558 O550 1.252 . S
O559 In548 2.294 . S
O559 C552 1.240 . S
O560 In548 2.326 . S
O560 C552 1.252 . S
In561 O562 2.294 . S
In561 O563 2.326 . S
In561 O567 2.266 . S
In561 O568 2.326 . S
In561 O569 2.266 . S
In561 O570 2.326 . S
In561 O572 2.294 . S
In561 O573 2.326 . S
O562 In561 2.294 . S
O562 C571 1.240 . S
O563 In561 2.326 . S
O563 C571 1.252 . S
C564 O567 1.252 . S
C564 O568 1.260 . S
C565 O572 1.240 . S
C565 O573 1.252 . S
C566 O569 1.252 . S
C566 O570 1.260 . S
O567 In561 2.266 . S
O567 C564 1.252 . S
O568 In561 2.326 . S
O568 C564 1.260 . S
O569 In561 2.266 . S
O569 C566 1.252 . S
O570 In561 2.326 . S
O570 C566 1.260 . S
C571 O562 1.240 . S
C571 O563 1.252 . S
O572 In561 2.294 . S
O572 C565 1.240 . S
O573 In561 2.326 . S
O573 C565 1.252 . S
In574 O575 2.294 . S
In574 O576 2.326 . S
In574 O580 2.266 1_554 S
In574 O581 2.326 1_554 S
In574 O582 2.266 1_554 S
In574 O583 2.326 1_554 S
In574 O585 2.294 . S
In574 O586 2.326 . S
O575 In574 2.294 . S
O575 C584 1.240 . S
O576 In574 2.326 . S
O576 C584 1.252 . S
C577 O580 1.252 . S
C577 O581 1.260 . S
C578 O585 1.240 . S
C578 O586 1.252 . S
C579 O582 1.252 . S
C579 O583 1.260 . S
O580 In574 2.266 1_556 S
O580 C577 1.252 . S
O581 In574 2.326 1_556 S
O581 C577 1.260 . S
O582 In574 2.266 1_556 S
O582 C579 1.252 . S
O583 In574 2.326 1_556 S
O583 C579 1.260 . S
C584 O575 1.240 . S
C584 O576 1.252 . S
O585 In574 2.294 . S
O585 C578 1.240 . S
O586 In574 2.326 . S
O586 C578 1.252 . S
In587 O588 2.294 . S
In587 O589 2.326 . S
In587 O593 2.266 . S
In587 O594 2.326 . S
In587 O595 2.266 . S
In587 O596 2.326 . S
In587 O598 2.294 . S
In587 O599 2.326 . S
O588 In587 2.294 . S
O588 C597 1.240 . S
O589 In587 2.326 . S
O589 C597 1.252 . S
C590 O593 1.252 . S
C590 O594 1.260 . S
C591 O598 1.240 . S
C591 O599 1.252 . S
C592 O595 1.252 . S
C592 O596 1.260 . S
O593 In587 2.266 . S
O593 C590 1.252 . S
O594 In587 2.326 . S
O594 C590 1.260 . S
O595 In587 2.266 . S
O595 C592 1.252 . S
O596 In587 2.326 . S
O596 C592 1.260 . S
C597 O588 1.240 . S
C597 O589 1.252 . S
O598 In587 2.294 . S
O598 C591 1.240 . S
O599 In587 2.326 . S
O599 C591 1.252 . S
H600 C612 0.930 . S
H601 C614 0.930 . S
H602 C615 0.930 . S
H603 C619 0.959 . S
H604 C619 0.959 . S
H605 C619 0.961 . S
H606 C620 0.960 . S
H607 C620 0.961 . S
H608 C620 0.959 . S
H609 C623 0.929 . S
H610 C624 0.931 . S
H611 C626 0.930 . S
C612 H600 0.930 . S
C612 C613 1.399 . S
C612 C617 1.399 . S
C613 C612 1.399 . S
C613 C614 1.376 . S
C614 H601 0.930 . S
C614 C613 1.376 . S
C614 C615 1.388 . S
C615 H602 0.930 . S
C615 C614 1.388 . S
C615 C616 1.390 . S
C616 C615 1.390 . S
C616 C617 1.394 . S
C616 C622 1.465 . S
C617 C612 1.399 . S
C617 C616 1.394 . S
C617 C618 1.516 . S
C618 C617 1.516 . S
C618 C619 1.502 . S
C618 C620 1.561 . S
C618 C621 1.526 . S
C619 H603 0.959 . S
C619 H604 0.959 . S
C619 H605 0.961 . S
C619 C618 1.502 . S
C620 H606 0.960 . S
C620 H607 0.961 . S
C620 H608 0.959 . S
C620 C618 1.561 . S
C621 C618 1.526 . S
C621 C622 1.396 . S
C621 C626 1.390 . S
C622 C616 1.465 . S
C622 C621 1.396 . S
C622 C623 1.399 . S
C623 H609 0.929 . S
C623 C622 1.399 . S
C623 C624 1.385 . S
C624 H610 0.931 . S
C624 C623 1.385 . S
C624 C625 1.389 . S
C625 C624 1.389 . S
C625 C626 1.387 . S
C626 H611 0.930 . S
C626 C621 1.390 . S
C626 C625 1.387 . S
H627 C639 0.930 . S
H628 C641 0.930 . S
H629 C642 0.930 . S
H630 C646 0.959 . S
H631 C646 0.959 . S
H632 C646 0.961 . S
H633 C647 0.960 . S
H634 C647 0.961 . S
H635 C647 0.959 . S
H636 C650 0.929 . S
H637 C651 0.931 . S
H638 C653 0.930 . S
C639 H627 0.930 . S
C639 C640 1.399 . S
C639 C644 1.399 . S
C640 C639 1.399 . S
C640 C641 1.376 . S
C641 H628 0.930 . S
C641 C640 1.376 . S
C641 C642 1.388 . S
C642 H629 0.930 . S
C642 C641 1.388 . S
C642 C643 1.390 . S
C643 C642 1.390 . S
C643 C644 1.394 . S
C643 C649 1.465 . S
C644 C639 1.399 . S
C644 C643 1.394 . S
C644 C645 1.516 . S
C645 C644 1.516 . S
C645 C646 1.502 . S
C645 C647 1.561 . S
C645 C648 1.526 . S
C646 H630 0.959 . S
C646 H631 0.959 . S
C646 H632 0.961 . S
C646 C645 1.502 . S
C647 H633 0.960 . S
C647 H634 0.961 . S
C647 H635 0.959 . S
C647 C645 1.561 . S
C648 C645 1.526 . S
C648 C649 1.396 . S
C648 C653 1.390 . S
C649 C643 1.465 . S
C649 C648 1.396 . S
C649 C650 1.399 . S
C650 H636 0.929 . S
C650 C649 1.399 . S
C650 C651 1.385 . S
C651 H637 0.931 . S
C651 C650 1.385 . S
C651 C652 1.389 . S
C652 C651 1.389 . S
C652 C653 1.387 . S
C653 H638 0.930 . S
C653 C648 1.390 . S
C653 C652 1.387 . S
H654 C666 0.930 . S
H655 C668 0.930 . S
H656 C669 0.930 . S
H657 C673 0.959 . S
H658 C673 0.959 . S
H659 C673 0.961 . S
H660 C674 0.960 . S
H661 C674 0.961 . S
H662 C674 0.959 . S
H663 C677 0.929 . S
H664 C678 0.931 . S
H665 C680 0.930 . S
C666 H654 0.930 . S
C666 C667 1.399 . S
C666 C671 1.399 . S
C667 C666 1.399 . S
C667 C668 1.376 . S
C668 H655 0.930 . S
C668 C667 1.376 . S
C668 C669 1.388 . S
C669 H656 0.930 . S
C669 C668 1.388 . S
C669 C670 1.390 . S
C670 C669 1.390 . S
C670 C671 1.394 . S
C670 C676 1.465 . S
C671 C666 1.399 . S
C671 C670 1.394 . S
C671 C672 1.516 . S
C672 C671 1.516 . S
C672 C673 1.502 . S
C672 C674 1.561 . S
C672 C675 1.526 . S
C673 H657 0.959 . S
C673 H658 0.959 . S
C673 H659 0.961 . S
C673 C672 1.502 . S
C674 H660 0.960 . S
C674 H661 0.961 . S
C674 H662 0.959 . S
C674 C672 1.561 . S
C675 C672 1.526 . S
C675 C676 1.396 . S
C675 C680 1.390 . S
C676 C670 1.465 . S
C676 C675 1.396 . S
C676 C677 1.399 . S
C677 H663 0.929 . S
C677 C676 1.399 . S
C677 C678 1.385 . S
C678 H664 0.931 . S
C678 C677 1.385 . S
C678 C679 1.389 . S
C679 C678 1.389 . S
C679 C680 1.387 . S
C680 H665 0.930 . S
C680 C675 1.390 . S
C680 C679 1.387 . S
H681 C693 0.930 . S
H682 C695 0.930 . S
H683 C696 0.930 . S
H684 C700 0.959 . S
H685 C700 0.959 . S
H686 C700 0.961 . S
H687 C701 0.949 1_556 S
H688 C701 0.929 1_556 S
H689 C701 0.994 . S
H690 C704 0.929 . S
H691 C705 0.931 . S
H692 C707 0.930 1_556 S
C693 H681 0.930 . S
C693 C694 1.399 . S
C693 C698 1.399 . S
C694 C693 1.399 . S
C694 C695 1.376 . S
C695 H682 0.930 . S
C695 C694 1.376 . S
C695 C696 1.388 . S
C696 H683 0.930 . S
C696 C695 1.388 . S
C696 C697 1.390 . S
C697 C696 1.390 . S
C697 C698 1.394 . S
C697 C703 1.465 . S
C698 C693 1.399 . S
C698 C697 1.394 . S
C698 C699 1.516 . S
C699 C698 1.516 . S
C699 C700 1.502 1_554 S
C699 C701 1.572 . S
C699 C702 1.526 . S
C700 H684 0.959 . S
C700 H685 0.959 . S
C700 H686 0.961 . S
C700 C699 1.502 1_556 S
C701 H687 0.949 1_554 S
C701 H688 0.929 1_554 S
C701 H689 0.994 . S
C701 C699 1.572 . S
C702 C699 1.526 . S
C702 C703 1.396 . S
C702 C707 1.390 . S
C703 C697 1.465 . S
C703 C702 1.396 . S
C703 C704 1.399 . S
C704 H690 0.929 . S
C704 C703 1.399 . S
C704 C705 1.385 . S
C705 H691 0.931 . S
C705 C704 1.385 . S
C705 C706 1.389 . S
C706 C705 1.389 . S
C706 C707 1.387 . S
C707 H692 0.930 1_554 S
C707 C702 1.390 . S
C707 C706 1.387 . S
H708 C720 0.930 . S
H709 C722 0.930 . S
H710 C723 0.930 . S
H711 C727 0.959 . S
H712 C727 0.959 . S
H713 C727 0.961 . S
H714 C728 0.960 . S
H715 C728 0.961 . S
H716 C728 0.959 . S
H717 C731 0.901 1_554 S
H718 C732 0.963 . S
H719 C734 0.930 . S
C720 H708 0.930 . S
C720 C721 1.399 . S
C720 C725 1.399 . S
C721 C720 1.399 . S
C721 C722 1.376 . S
C722 H709 0.930 . S
C722 C721 1.376 . S
C722 C723 1.388 . S
C723 H710 0.930 . S
C723 C722 1.388 . S
C723 C724 1.390 . S
C724 C723 1.390 . S
C724 C725 1.394 . S
C724 C730 1.465 . S
C725 C720 1.399 . S
C725 C724 1.394 . S
C725 C726 1.516 . S
C726 C725 1.516 . S
C726 C727 1.502 . S
C726 C728 1.561 . S
C726 C729 1.526 . S
C727 H711 0.959 . S
C727 H712 0.959 . S
C727 H713 0.961 . S
C727 C726 1.502 . S
C728 H714 0.960 . S
C728 H715 0.961 . S
C728 H716 0.959 . S
C728 C726 1.561 . S
C729 C726 1.526 . S
C729 C730 1.396 . S
C729 C734 1.390 . S
C730 C724 1.465 . S
C730 C729 1.396 . S
C730 C731 1.434 . S
C731 H717 0.901 1_556 S
C731 C730 1.434 . S
C731 C732 1.381 1_556 S
C732 H718 0.963 . S
C732 C731 1.381 1_554 S
C732 C733 1.363 1_554 S
C733 C732 1.363 1_556 S
C733 C734 1.387 . S
C734 H719 0.930 . S
C734 C729 1.390 . S
C734 C733 1.387 . S
H735 C747 0.930 . S
H736 C749 0.930 . S
H737 C750 0.930 . S
H738 C754 0.959 . S
H739 C754 0.959 . S
H740 C754 0.961 . S
H741 C755 0.960 . S
H742 C755 0.961 . S
H743 C755 0.959 . S
H744 C758 0.929 . S
H745 C759 0.931 . S
H746 C761 0.930 . S
C747 H735 0.930 . S
C747 C748 1.399 . S
C747 C752 1.399 . S
C748 C747 1.399 . S
C748 C749 1.376 . S
C749 H736 0.930 . S
C749 C748 1.376 . S
C749 C750 1.388 . S
C750 H737 0.930 . S
C750 C749 1.388 . S
C750 C751 1.390 . S
C751 C750 1.390 . S
C751 C752 1.394 . S
C751 C757 1.465 . S
C752 C747 1.399 . S
C752 C751 1.394 . S
C752 C753 1.516 . S
C753 C752 1.516 . S
C753 C754 1.502 . S
C753 C755 1.561 . S
C753 C756 1.526 . S
C754 H738 0.959 . S
C754 H739 0.959 . S
C754 H740 0.961 . S
C754 C753 1.502 . S
C755 H741 0.960 . S
C755 H742 0.961 . S
C755 H743 0.959 . S
C755 C753 1.561 . S
C756 C753 1.526 . S
C756 C757 1.396 . S
C756 C761 1.390 . S
C757 C751 1.465 . S
C757 C756 1.396 . S
C757 C758 1.399 . S
C758 H744 0.929 . S
C758 C757 1.399 . S
C758 C759 1.385 . S
C759 H745 0.931 . S
C759 C758 1.385 . S
C759 C760 1.389 . S
C760 C759 1.389 . S
C760 C761 1.387 . S
C761 H746 0.930 . S
C761 C756 1.390 . S
C761 C760 1.387 . S
H762 C774 0.930 . S
H763 C776 0.930 . S
H764 C777 0.930 . S
H765 C781 0.959 . S
H766 C781 0.959 . S
H767 C781 0.961 . S
H768 C782 0.960 . S
H769 C782 0.961 . S
H770 C782 0.959 . S
H771 C785 0.929 . S
H772 C786 0.931 . S
H773 C788 0.930 . S
C774 H762 0.930 . S
C774 C775 1.399 . S
C774 C779 1.399 . S
C775 C774 1.399 . S
C775 C776 1.376 . S
C776 H763 0.930 . S
C776 C775 1.376 . S
C776 C777 1.388 . S
C777 H764 0.930 . S
C777 C776 1.388 . S
C777 C778 1.390 . S
C778 C777 1.390 . S
C778 C779 1.394 . S
C778 C784 1.465 . S
C779 C774 1.399 . S
C779 C778 1.394 . S
C779 C780 1.516 . S
C780 C779 1.516 . S
C780 C781 1.502 . S
C780 C782 1.561 . S
C780 C783 1.526 . S
C781 H765 0.959 . S
C781 H766 0.959 . S
C781 H767 0.961 . S
C781 C780 1.502 . S
C782 H768 0.960 . S
C782 H769 0.961 . S
C782 H770 0.959 . S
C782 C780 1.561 . S
C783 C780 1.526 . S
C783 C784 1.396 . S
C783 C788 1.390 . S
C784 C778 1.465 . S
C784 C783 1.396 . S
C784 C785 1.399 . S
C785 H771 0.929 . S
C785 C784 1.399 . S
C785 C786 1.385 . S
C786 H772 0.931 . S
C786 C785 1.385 . S
C786 C787 1.389 . S
C787 C786 1.389 . S
C787 C788 1.387 . S
C788 H773 0.930 . S
C788 C783 1.390 . S
C788 C787 1.387 . S
H789 C801 0.930 . S
H790 C803 0.930 . S
H791 C804 0.930 . S
H792 C808 0.959 . S
H793 C808 0.959 . S
H794 C808 0.961 . S
H795 C809 0.960 . S
H796 C809 0.961 . S
H797 C809 0.959 . S
H798 C812 0.929 . S
H799 C813 0.931 . S
H800 C815 0.930 . S
C801 H789 0.930 . S
C801 C802 1.399 . S
C801 C806 1.399 . S
C802 C801 1.399 . S
C802 C803 1.376 . S
C803 H790 0.930 . S
C803 C802 1.376 . S
C803 C804 1.388 . S
C804 H791 0.930 . S
C804 C803 1.388 . S
C804 C805 1.390 . S
C805 C804 1.390 . S
C805 C806 1.394 . S
C805 C811 1.465 . S
C806 C801 1.399 . S
C806 C805 1.394 . S
C806 C807 1.516 . S
C807 C806 1.516 . S
C807 C808 1.502 . S
C807 C809 1.561 . S
C807 C810 1.526 . S
C808 H792 0.959 . S
C808 H793 0.959 . S
C808 H794 0.961 . S
C808 C807 1.502 . S
C809 H795 0.960 . S
C809 H796 0.961 . S
C809 H797 0.959 . S
C809 C807 1.561 . S
C810 C807 1.526 . S
C810 C811 1.396 . S
C810 C815 1.390 . S
C811 C805 1.465 . S
C811 C810 1.396 . S
C811 C812 1.399 . S
C812 H798 0.929 . S
C812 C811 1.399 . S
C812 C813 1.385 . S
C813 H799 0.931 . S
C813 C812 1.385 . S
C813 C814 1.389 . S
C814 C813 1.389 . S
C814 C815 1.387 . S
C815 H800 0.930 . S
C815 C810 1.390 . S
C815 C814 1.387 . S
H816 C828 0.930 . S
H817 C830 0.930 . S
H818 C831 0.930 . S
H819 C835 0.959 . S
H820 C835 0.959 . S
H821 C835 0.961 . S
H822 C836 0.960 . S
H823 C836 0.961 . S
H824 C836 0.959 . S
H825 C839 0.929 . S
H826 C840 0.931 . S
H827 C842 0.930 . S
C828 H816 0.930 . S
C828 C829 1.399 . S
C828 C833 1.399 . S
C829 C828 1.399 . S
C829 C830 1.376 . S
C830 H817 0.930 . S
C830 C829 1.376 . S
C830 C831 1.388 . S
C831 H818 0.930 . S
C831 C830 1.388 . S
C831 C832 1.390 . S
C832 C831 1.390 . S
C832 C833 1.394 . S
C832 C838 1.465 . S
C833 C828 1.399 . S
C833 C832 1.394 . S
C833 C834 1.516 . S
C834 C833 1.516 . S
C834 C835 1.502 . S
C834 C836 1.561 . S
C834 C837 1.526 . S
C835 H819 0.959 . S
C835 H820 0.959 . S
C835 H821 0.961 . S
C835 C834 1.502 . S
C836 H822 0.960 . S
C836 H823 0.961 . S
C836 H824 0.959 . S
C836 C834 1.561 . S
C837 C834 1.526 . S
C837 C838 1.396 . S
C837 C842 1.390 . S
C838 C832 1.465 . S
C838 C837 1.396 . S
C838 C839 1.399 . S
C839 H825 0.929 . S
C839 C838 1.399 . S
C839 C840 1.385 . S
C840 H826 0.931 . S
C840 C839 1.385 . S
C840 C841 1.389 . S
C841 C840 1.389 . S
C841 C842 1.387 . S
C842 H827 0.930 . S
C842 C837 1.390 . S
C842 C841 1.387 . S
H843 C855 0.930 . S
H844 C857 0.930 . S
H845 C858 0.930 . S
H846 C862 0.959 . S
H847 C862 0.959 . S
H848 C862 0.961 . S
H849 C863 0.960 . S
H850 C863 0.961 . S
H851 C863 0.959 1_554 S
H852 C866 0.929 . S
H853 C867 0.931 . S
H854 C869 0.930 1_556 S
C855 H843 0.930 . S
C855 C856 1.399 . S
C855 C860 1.399 . S
C856 C855 1.399 . S
C856 C857 1.376 . S
C857 H844 0.930 . S
C857 C856 1.376 . S
C857 C858 1.388 . S
C858 H845 0.930 . S
C858 C857 1.388 . S
C858 C859 1.390 . S
C859 C858 1.390 . S
C859 C860 1.394 . S
C859 C865 1.465 . S
C860 C855 1.399 . S
C860 C859 1.394 . S
C860 C861 1.516 . S
C861 C860 1.516 . S
C861 C862 1.502 1_554 S
C861 C863 1.561 1_554 S
C861 C864 1.526 . S
C862 H846 0.959 . S
C862 H847 0.959 . S
C862 H848 0.961 . S
C862 C861 1.502 1_556 S
C863 H849 0.960 . S
C863 H850 0.961 . S
C863 H851 0.959 1_556 S
C863 C861 1.561 1_556 S
C864 C861 1.526 . S
C864 C865 1.396 . S
C864 C869 1.390 . S
C865 C859 1.465 . S
C865 C864 1.396 . S
C865 C866 1.399 . S
C866 H852 0.929 . S
C866 C865 1.399 . S
C866 C867 1.385 . S
C867 H853 0.931 . S
C867 C866 1.385 . S
C867 C868 1.389 . S
C868 C867 1.389 . S
C868 C869 1.387 . S
C869 H854 0.930 1_554 S
C869 C864 1.390 . S
C869 C868 1.387 . S
H870 C882 0.930 . S
H871 C884 0.930 . S
H872 C885 0.930 . S
H873 C889 0.959 . S
H874 C889 0.959 . S
H875 C889 0.961 . S
H876 C890 0.960 . S
H877 C890 0.961 . S
H878 C890 0.959 . S
H879 C893 0.929 . S
H880 C894 0.931 . S
H881 C896 0.930 . S
C882 H870 0.930 . S
C882 C883 1.399 . S
C882 C887 1.399 . S
C883 C882 1.399 . S
C883 C884 1.376 . S
C884 H871 0.930 . S
C884 C883 1.376 . S
C884 C885 1.388 . S
C885 H872 0.930 . S
C885 C884 1.388 . S
C885 C886 1.390 . S
C886 C885 1.390 . S
C886 C887 1.394 . S
C886 C892 1.465 . S
C887 C882 1.399 . S
C887 C886 1.394 . S
C887 C888 1.516 . S
C888 C887 1.516 . S
C888 C889 1.502 . S
C888 C890 1.561 . S
C888 C891 1.526 . S
C889 H873 0.959 . S
C889 H874 0.959 . S
C889 H875 0.961 . S
C889 C888 1.502 . S
C890 H876 0.960 . S
C890 H877 0.961 . S
C890 H878 0.959 . S
C890 C888 1.561 . S
C891 C888 1.526 . S
C891 C892 1.396 . S
C891 C896 1.390 . S
C892 C886 1.465 . S
C892 C891 1.396 . S
C892 C893 1.399 . S
C893 H879 0.929 . S
C893 C892 1.399 . S
C893 C894 1.385 . S
C894 H880 0.931 . S
C894 C893 1.385 . S
C894 C895 1.389 . S
C895 C894 1.389 . S
C895 C896 1.387 . S
C896 H881 0.930 . S
C896 C891 1.390 . S
C896 C895 1.387 . S
H897 C909 0.930 . S
H898 C911 0.930 . S
H899 C912 0.930 . S
H900 C916 0.959 . S
H901 C916 0.959 . S
H902 C916 0.961 . S
H903 C917 0.960 . S
H904 C917 0.961 . S
H905 C917 0.959 . S
H906 C920 0.929 . S
H907 C921 0.931 . S
H908 C923 0.930 . S
C909 H897 0.930 . S
C909 C910 1.399 . S
C909 C914 1.399 . S
C910 C909 1.399 . S
C910 C911 1.376 . S
C911 H898 0.930 . S
C911 C910 1.376 . S
C911 C912 1.388 . S
C912 H899 0.930 . S
C912 C911 1.388 . S
C912 C913 1.390 . S
C913 C912 1.390 . S
C913 C914 1.394 . S
C913 C919 1.465 . S
C914 C909 1.399 . S
C914 C913 1.394 . S
C914 C915 1.516 . S
C915 C914 1.516 . S
C915 C916 1.502 . S
C915 C917 1.561 . S
C915 C918 1.526 . S
C916 H900 0.959 . S
C916 H901 0.959 . S
C916 H902 0.961 . S
C916 C915 1.502 . S
C917 H903 0.960 . S
C917 H904 0.961 . S
C917 H905 0.959 . S
C917 C915 1.561 . S
C918 C915 1.526 . S
C918 C919 1.396 . S
C918 C923 1.390 . S
C919 C913 1.465 . S
C919 C918 1.396 . S
C919 C920 1.399 . S
C920 H906 0.929 . S
C920 C919 1.399 . S
C920 C921 1.385 . S
C921 H907 0.931 . S
C921 C920 1.385 . S
C921 C922 1.389 . S
C922 C921 1.389 . S
C922 C923 1.387 . S
C923 H908 0.930 . S
C923 C918 1.390 . S
C923 C922 1.387 . S
H924 C936 0.930 . S
H925 C938 0.930 . S
H926 C939 0.930 . S
H927 C943 0.959 . S
H928 C943 0.959 . S
H929 C943 0.961 . S
H930 C944 0.960 . S
H931 C944 0.961 . S
H932 C944 0.959 . S
H933 C947 0.929 . S
H934 C948 0.931 . S
H935 C950 0.930 . S
C936 H924 0.930 . S
C936 C937 1.399 . S
C936 C941 1.399 . S
C937 C936 1.399 . S
C937 C938 1.376 . S
C938 H925 0.930 . S
C938 C937 1.376 . S
C938 C939 1.388 . S
C939 H926 0.930 . S
C939 C938 1.388 . S
C939 C940 1.390 . S
C940 C939 1.390 . S
C940 C941 1.394 . S
C940 C946 1.465 . S
C941 C936 1.399 . S
C941 C940 1.394 . S
C941 C942 1.516 . S
C942 C941 1.516 . S
C942 C943 1.502 . S
C942 C944 1.561 . S
C942 C945 1.526 . S
C943 H927 0.959 . S
C943 H928 0.959 . S
C943 H929 0.961 . S
C943 C942 1.502 . S
C944 H930 0.960 . S
C944 H931 0.961 . S
C944 H932 0.959 . S
C944 C942 1.561 . S
C945 C942 1.526 . S
C945 C946 1.396 . S
C945 C950 1.390 . S
C946 C940 1.465 . S
C946 C945 1.396 . S
C946 C947 1.399 . S
C947 H933 0.929 . S
C947 C946 1.399 . S
C947 C948 1.385 . S
C948 H934 0.931 . S
C948 C947 1.385 . S
C948 C949 1.389 . S
C949 C948 1.389 . S
C949 C950 1.387 . S
C950 H935 0.930 . S
C950 C945 1.390 . S
C950 C949 1.387 . S
H951 C963 0.930 . S
H952 C965 0.930 . S
H953 C966 0.930 . S
H954 C970 0.959 . S
H955 C970 0.959 . S
H956 C970 0.961 . S
H957 C971 0.960 . S
H958 C971 0.961 . S
H959 C971 0.959 . S
H960 C974 0.929 . S
H961 C975 0.931 . S
H962 C977 0.930 . S
C963 H951 0.930 . S
C963 C964 1.399 . S
C963 C968 1.399 . S
C964 C963 1.399 . S
C964 C965 1.376 . S
C965 H952 0.930 . S
C965 C964 1.376 . S
C965 C966 1.388 . S
C966 H953 0.930 . S
C966 C965 1.388 . S
C966 C967 1.390 . S
C967 C966 1.390 . S
C967 C968 1.394 . S
C967 C973 1.465 . S
C968 C963 1.399 . S
C968 C967 1.394 . S
C968 C969 1.516 . S
C969 C968 1.516 . S
C969 C970 1.502 . S
C969 C971 1.561 . S
C969 C972 1.526 . S
C970 H954 0.959 . S
C970 H955 0.959 . S
C970 H956 0.961 . S
C970 C969 1.502 . S
C971 H957 0.960 . S
C971 H958 0.961 . S
C971 H959 0.959 . S
C971 C969 1.561 . S
C972 C969 1.526 . S
C972 C973 1.396 . S
C972 C977 1.390 . S
C973 C967 1.465 . S
C973 C972 1.396 . S
C973 C974 1.399 . S
C974 H960 0.929 . S
C974 C973 1.399 . S
C974 C975 1.385 . S
C975 H961 0.931 . S
C975 C974 1.385 . S
C975 C976 1.389 . S
C976 C975 1.389 . S
C976 C977 1.387 . S
C977 H962 0.930 . S
C977 C972 1.390 . S
C977 C976 1.387 . S
H978 C990 0.930 . S
H979 C992 0.930 . S
H980 C993 0.930 1_554 S
H981 C997 0.959 . S
H982 C997 0.959 . S
H983 C997 0.961 . S
H984 C998 0.960 . S
H985 C998 0.961 . S
H986 C998 0.959 . S
H987 C1001 0.929 . S
H988 C1002 0.931 . S
H989 C1004 0.930 . S
C990 H978 0.930 . S
C990 C991 1.399 . S
C990 C995 1.399 . S
C991 C990 1.399 . S
C991 C992 1.376 . S
C992 H979 0.930 . S
C992 C991 1.376 . S
C992 C993 1.388 . S
C993 H980 0.930 1_556 S
C993 C992 1.388 . S
C993 C994 1.390 . S
C994 C993 1.390 . S
C994 C995 1.394 . S
C994 C1000 1.465 . S
C995 C990 1.399 . S
C995 C994 1.394 . S
C995 C996 1.516 . S
C996 C995 1.516 . S
C996 C997 1.502 . S
C996 C998 1.561 . S
C996 C999 1.526 . S
C997 H981 0.959 . S
C997 H982 0.959 . S
C997 H983 0.961 . S
C997 C996 1.502 . S
C998 H984 0.960 . S
C998 H985 0.961 . S
C998 H986 0.959 . S
C998 C996 1.561 . S
C999 C996 1.526 . S
C999 C1000 1.396 . S
C999 C1004 1.390 . S
C1000 C994 1.465 . S
C1000 C999 1.396 . S
C1000 C1001 1.399 1_556 S
C1001 H987 0.929 . S
C1001 C1000 1.399 1_554 S
C1001 C1002 1.385 . S
C1002 H988 0.931 . S
C1002 C1001 1.385 . S
C1002 C1003 1.389 1_554 S
C1003 C1002 1.389 1_556 S
C1003 C1004 1.387 . S
C1004 H989 0.930 . S
C1004 C999 1.390 . S
C1004 C1003 1.387 . S
H1005 C1017 0.930 . S
H1006 C1019 0.930 . S
H1007 C1020 0.930 . S
H1008 C1024 0.959 . S
H1009 C1024 0.959 . S
H1010 C1024 0.961 . S
H1011 C1025 0.960 . S
H1012 C1025 0.961 . S
H1013 C1025 0.959 . S
H1014 C1028 0.929 . S
H1015 C1029 0.931 . S
H1016 C1031 0.930 . S
C1017 H1005 0.930 . S
C1017 C1018 1.399 . S
C1017 C1022 1.399 . S
C1018 C1017 1.399 . S
C1018 C1019 1.376 . S
C1019 H1006 0.930 . S
C1019 C1018 1.376 . S
C1019 C1020 1.388 . S
C1020 H1007 0.930 . S
C1020 C1019 1.388 . S
C1020 C1021 1.390 . S
C1021 C1020 1.390 . S
C1021 C1022 1.394 . S
C1021 C1027 1.465 . S
C1022 C1017 1.399 . S
C1022 C1021 1.394 . S
C1022 C1023 1.516 . S
C1023 C1022 1.516 . S
C1023 C1024 1.502 . S
C1023 C1025 1.561 . S
C1023 C1026 1.526 . S
C1024 H1008 0.959 . S
C1024 H1009 0.959 . S
C1024 H1010 0.961 . S
C1024 C1023 1.502 . S
C1025 H1011 0.960 . S
C1025 H1012 0.961 . S
C1025 H1013 0.959 . S
C1025 C1023 1.561 . S
C1026 C1023 1.526 . S
C1026 C1027 1.396 . S
C1026 C1031 1.390 . S
C1027 C1021 1.465 . S
C1027 C1026 1.396 . S
C1027 C1028 1.399 . S
C1028 H1014 0.929 . S
C1028 C1027 1.399 . S
C1028 C1029 1.385 . S
C1029 H1015 0.931 . S
C1029 C1028 1.385 . S
C1029 C1030 1.389 . S
C1030 C1029 1.389 . S
C1030 C1031 1.387 . S
C1031 H1016 0.930 . S
C1031 C1026 1.390 . S
C1031 C1030 1.387 . S
H1032 C1044 0.930 . S
H1033 C1046 0.930 . S
H1034 C1047 0.930 . S
H1035 C1051 0.959 . S
H1036 C1051 0.959 . S
H1037 C1051 0.961 . S
H1038 C1052 0.960 . S
H1039 C1052 0.961 . S
H1040 C1052 0.959 . S
H1041 C1055 0.929 . S
H1042 C1056 0.931 . S
H1043 C1058 0.930 . S
C1044 H1032 0.930 . S
C1044 C1045 1.399 . S
C1044 C1049 1.399 . S
C1045 C1044 1.399 . S
C1045 C1046 1.376 . S
C1046 H1033 0.930 . S
C1046 C1045 1.376 . S
C1046 C1047 1.388 . S
C1047 H1034 0.930 . S
C1047 C1046 1.388 . S
C1047 C1048 1.390 . S
C1048 C1047 1.390 . S
C1048 C1049 1.394 . S
C1048 C1054 1.465 . S
C1049 C1044 1.399 . S
C1049 C1048 1.394 . S
C1049 C1050 1.516 . S
C1050 C1049 1.516 . S
C1050 C1051 1.502 . S
C1050 C1052 1.561 . S
C1050 C1053 1.526 . S
C1051 H1035 0.959 . S
C1051 H1036 0.959 . S
C1051 H1037 0.961 . S
C1051 C1050 1.502 . S
C1052 H1038 0.960 . S
C1052 H1039 0.961 . S
C1052 H1040 0.959 . S
C1052 C1050 1.561 . S
C1053 C1050 1.526 . S
C1053 C1054 1.396 . S
C1053 C1058 1.390 . S
C1054 C1048 1.465 . S
C1054 C1053 1.396 . S
C1054 C1055 1.399 . S
C1055 H1041 0.929 . S
C1055 C1054 1.399 . S
C1055 C1056 1.385 . S
C1056 H1042 0.931 . S
C1056 C1055 1.385 . S
C1056 C1057 1.389 . S
C1057 C1056 1.389 . S
C1057 C1058 1.387 . S
C1058 H1043 0.930 . S
C1058 C1053 1.390 . S
C1058 C1057 1.387 . S
H1059 C1071 0.930 . S
H1060 C1073 0.930 . S
H1061 C1074 0.930 . S
H1062 C1078 0.959 . S
H1063 C1078 0.959 . S
H1064 C1078 0.961 . S
H1065 C1079 0.960 . S
H1066 C1079 0.961 . S
H1067 C1079 0.959 . S
H1068 C1082 0.929 . S
H1069 C1083 0.931 . S
H1070 C1085 0.930 . S
C1071 H1059 0.930 . S
C1071 C1072 1.399 . S
C1071 C1076 1.399 . S
C1072 C1071 1.399 . S
C1072 C1073 1.376 . S
C1073 H1060 0.930 . S
C1073 C1072 1.376 . S
C1073 C1074 1.388 . S
C1074 H1061 0.930 . S
C1074 C1073 1.388 . S
C1074 C1075 1.390 . S
C1075 C1074 1.390 . S
C1075 C1076 1.394 . S
C1075 C1081 1.465 . S
C1076 C1071 1.399 . S
C1076 C1075 1.394 . S
C1076 C1077 1.516 . S
C1077 C1076 1.516 . S
C1077 C1078 1.502 . S
C1077 C1079 1.561 . S
C1077 C1080 1.526 . S
C1078 H1062 0.959 . S
C1078 H1063 0.959 . S
C1078 H1064 0.961 . S
C1078 C1077 1.502 . S
C1079 H1065 0.960 . S
C1079 H1066 0.961 . S
C1079 H1067 0.959 . S
C1079 C1077 1.561 . S
C1080 C1077 1.526 . S
C1080 C1081 1.396 . S
C1080 C1085 1.390 . S
C1081 C1075 1.465 . S
C1081 C1080 1.396 . S
C1081 C1082 1.399 . S
C1082 H1068 0.929 . S
C1082 C1081 1.399 . S
C1082 C1083 1.385 . S
C1083 H1069 0.931 . S
C1083 C1082 1.385 . S
C1083 C1084 1.389 . S
C1084 C1083 1.389 . S
C1084 C1085 1.387 . S
C1085 H1070 0.930 . S
C1085 C1080 1.390 . S
C1085 C1084 1.387 . S
H1086 C1098 0.930 . S
H1087 C1100 0.930 . S
H1088 C1101 0.930 . S
H1089 C1105 0.959 . S
H1090 C1105 0.959 . S
H1091 C1105 0.961 . S
H1092 C1106 0.960 . S
H1093 C1106 0.961 . S
H1094 C1106 0.959 . S
H1095 C1109 0.929 . S
H1096 C1110 0.931 . S
H1097 C1112 0.930 . S
C1098 H1086 0.930 . S
C1098 C1099 1.399 . S
C1098 C1103 1.399 . S
C1099 C1098 1.399 . S
C1099 C1100 1.376 . S
C1100 H1087 0.930 . S
C1100 C1099 1.376 . S
C1100 C1101 1.388 . S
C1101 H1088 0.930 . S
C1101 C1100 1.388 . S
C1101 C1102 1.390 . S
C1102 C1101 1.390 . S
C1102 C1103 1.394 . S
C1102 C1108 1.465 . S
C1103 C1098 1.399 . S
C1103 C1102 1.394 . S
C1103 C1104 1.516 . S
C1104 C1103 1.516 . S
C1104 C1105 1.502 . S
C1104 C1106 1.561 . S
C1104 C1107 1.526 . S
C1105 H1089 0.959 . S
C1105 H1090 0.959 . S
C1105 H1091 0.961 . S
C1105 C1104 1.502 . S
C1106 H1092 0.960 . S
C1106 H1093 0.961 . S
C1106 H1094 0.959 . S
C1106 C1104 1.561 . S
C1107 C1104 1.526 . S
C1107 C1108 1.396 . S
C1107 C1112 1.390 . S
C1108 C1102 1.465 . S
C1108 C1107 1.396 . S
C1108 C1109 1.399 . S
C1109 H1095 0.929 . S
C1109 C1108 1.399 . S
C1109 C1110 1.385 . S
C1110 H1096 0.931 . S
C1110 C1109 1.385 . S
C1110 C1111 1.389 . S
C1111 C1110 1.389 . S
C1111 C1112 1.387 . S
C1112 H1097 0.930 . S
C1112 C1107 1.390 . S
C1112 C1111 1.387 . S
H1113 C1125 0.930 . S
H1114 C1127 0.930 . S
H1115 C1128 0.930 . S
H1116 C1132 0.959 . S
H1117 C1132 0.959 . S
H1118 C1132 0.961 . S
H1119 C1133 0.960 . S
H1120 C1133 0.961 . S
H1121 C1133 0.959 . S
H1122 C1136 0.929 . S
H1123 C1137 0.931 . S
H1124 C1139 0.930 . S
C1125 H1113 0.930 . S
C1125 C1126 1.399 . S
C1125 C1130 1.399 . S
C1126 C1125 1.399 . S
C1126 C1127 1.376 . S
C1127 H1114 0.930 . S
C1127 C1126 1.376 . S
C1127 C1128 1.388 . S
C1128 H1115 0.930 . S
C1128 C1127 1.388 . S
C1128 C1129 1.390 . S
C1129 C1128 1.390 . S
C1129 C1130 1.394 . S
C1129 C1135 1.465 . S
C1130 C1125 1.399 . S
C1130 C1129 1.394 . S
C1130 C1131 1.516 . S
C1131 C1130 1.516 . S
C1131 C1132 1.502 . S
C1131 C1133 1.561 . S
C1131 C1134 1.526 . S
C1132 H1116 0.959 . S
C1132 H1117 0.959 . S
C1132 H1118 0.961 . S
C1132 C1131 1.502 . S
C1133 H1119 0.960 . S
C1133 H1120 0.961 . S
C1133 H1121 0.959 . S
C1133 C1131 1.561 . S
C1134 C1131 1.526 . S
C1134 C1135 1.396 . S
C1134 C1139 1.390 . S
C1135 C1129 1.465 . S
C1135 C1134 1.396 . S
C1135 C1136 1.399 . S
C1136 H1122 0.929 . S
C1136 C1135 1.399 . S
C1136 C1137 1.385 . S
C1137 H1123 0.931 . S
C1137 C1136 1.385 . S
C1137 C1138 1.389 . S
C1138 C1137 1.389 . S
C1138 C1139 1.387 . S
C1139 H1124 0.930 . S
C1139 C1134 1.390 . S
C1139 C1138 1.387 . S
H1140 C1152 0.930 . S
H1141 C1154 0.930 . S
H1142 C1155 0.930 . S
H1143 C1159 0.959 . S
H1144 C1159 0.959 . S
H1145 C1159 0.961 . S
H1146 C1160 0.960 . S
H1147 C1160 0.961 . S
H1148 C1160 0.959 . S
H1149 C1163 0.929 . S
H1150 C1164 0.931 . S
H1151 C1166 0.930 . S
C1152 H1140 0.930 . S
C1152 C1153 1.399 . S
C1152 C1157 1.399 . S
C1153 C1152 1.399 . S
C1153 C1154 1.376 . S
C1154 H1141 0.930 . S
C1154 C1153 1.376 . S
C1154 C1155 1.388 . S
C1155 H1142 0.930 . S
C1155 C1154 1.388 . S
C1155 C1156 1.390 . S
C1156 C1155 1.390 . S
C1156 C1157 1.394 . S
C1156 C1162 1.465 . S
C1157 C1152 1.399 . S
C1157 C1156 1.394 . S
C1157 C1158 1.516 . S
C1158 C1157 1.516 . S
C1158 C1159 1.502 . S
C1158 C1160 1.561 . S
C1158 C1161 1.526 . S
C1159 H1143 0.959 . S
C1159 H1144 0.959 . S
C1159 H1145 0.961 . S
C1159 C1158 1.502 . S
C1160 H1146 0.960 . S
C1160 H1147 0.961 . S
C1160 H1148 0.959 . S
C1160 C1158 1.561 . S
C1161 C1158 1.526 . S
C1161 C1162 1.396 . S
C1161 C1166 1.390 . S
C1162 C1156 1.465 . S
C1162 C1161 1.396 . S
C1162 C1163 1.399 . S
C1163 H1149 0.929 . S
C1163 C1162 1.399 . S
C1163 C1164 1.385 . S
C1164 H1150 0.931 . S
C1164 C1163 1.385 . S
C1164 C1165 1.389 . S
C1165 C1164 1.389 . S
C1165 C1166 1.387 . S
C1166 H1151 0.930 . S
C1166 C1161 1.390 . S
C1166 C1165 1.387 . S
H1167 C1179 0.930 . S
H1168 C1181 0.930 . S
H1169 C1182 0.930 . S
H1170 C1186 0.959 . S
H1171 C1186 0.959 . S
H1172 C1186 0.961 . S
H1173 C1187 0.960 . S
H1174 C1187 0.961 . S
H1175 C1187 0.959 . S
H1176 C1190 0.929 . S
H1177 C1191 0.931 . S
H1178 C1193 0.930 . S
C1179 H1167 0.930 . S
C1179 C1180 1.399 . S
C1179 C1184 1.399 . S
C1180 C1179 1.399 . S
C1180 C1181 1.376 . S
C1181 H1168 0.930 . S
C1181 C1180 1.376 . S
C1181 C1182 1.388 . S
C1182 H1169 0.930 . S
C1182 C1181 1.388 . S
C1182 C1183 1.390 . S
C1183 C1182 1.390 . S
C1183 C1184 1.394 . S
C1183 C1189 1.465 . S
C1184 C1179 1.399 . S
C1184 C1183 1.394 . S
C1184 C1185 1.516 . S
C1185 C1184 1.516 . S
C1185 C1186 1.502 . S
C1185 C1187 1.561 . S
C1185 C1188 1.526 . S
C1186 H1170 0.959 . S
C1186 H1171 0.959 . S
C1186 H1172 0.961 . S
C1186 C1185 1.502 . S
C1187 H1173 0.960 . S
C1187 H1174 0.961 . S
C1187 H1175 0.959 . S
C1187 C1185 1.561 . S
C1188 C1185 1.526 . S
C1188 C1189 1.396 . S
C1188 C1193 1.390 . S
C1189 C1183 1.465 . S
C1189 C1188 1.396 . S
C1189 C1190 1.399 . S
C1190 H1176 0.929 . S
C1190 C1189 1.399 . S
C1190 C1191 1.385 . S
C1191 H1177 0.931 . S
C1191 C1190 1.385 . S
C1191 C1192 1.389 . S
C1192 C1191 1.389 . S
C1192 C1193 1.387 . S
C1193 H1178 0.930 . S
C1193 C1188 1.390 . S
C1193 C1192 1.387 . S
H1194 C1206 0.930 . S
H1195 C1208 0.930 . S
H1196 C1209 0.930 . S
H1197 C1213 0.959 . S
H1198 C1213 0.959 . S
H1199 C1213 0.961 . S
H1200 C1214 0.960 . S
H1201 C1214 0.961 . S
H1202 C1214 0.959 . S
H1203 C1217 0.929 . S
H1204 C1218 0.931 . S
H1205 C1220 0.930 . S
C1206 H1194 0.930 . S
C1206 C1207 1.399 . S
C1206 C1211 1.399 . S
C1207 C1206 1.399 . S
C1207 C1208 1.376 . S
C1208 H1195 0.930 . S
C1208 C1207 1.376 . S
C1208 C1209 1.388 . S
C1209 H1196 0.930 . S
C1209 C1208 1.388 . S
C1209 C1210 1.390 . S
C1210 C1209 1.390 . S
C1210 C1211 1.394 . S
C1210 C1216 1.465 . S
C1211 C1206 1.399 . S
C1211 C1210 1.394 . S
C1211 C1212 1.516 . S
C1212 C1211 1.516 . S
C1212 C1213 1.502 . S
C1212 C1214 1.561 . S
C1212 C1215 1.526 . S
C1213 H1197 0.959 . S
C1213 H1198 0.959 . S
C1213 H1199 0.961 . S
C1213 C1212 1.502 . S
C1214 H1200 0.960 . S
C1214 H1201 0.961 . S
C1214 H1202 0.959 . S
C1214 C1212 1.561 . S
C1215 C1212 1.526 . S
C1215 C1216 1.396 . S
C1215 C1220 1.390 . S
C1216 C1210 1.465 . S
C1216 C1215 1.396 . S
C1216 C1217 1.399 . S
C1217 H1203 0.929 . S
C1217 C1216 1.399 . S
C1217 C1218 1.385 . S
C1218 H1204 0.931 . S
C1218 C1217 1.385 . S
C1218 C1219 1.389 . S
C1219 C1218 1.389 . S
C1219 C1220 1.387 . S
C1220 H1205 0.930 . S
C1220 C1215 1.390 . S
C1220 C1219 1.387 . S
H1221 C1233 0.930 . S
H1222 C1235 0.930 . S
H1223 C1236 0.930 . S
H1224 C1240 0.959 . S
H1225 C1240 0.959 . S
H1226 C1240 0.961 . S
H1227 C1241 0.960 . S
H1228 C1241 0.961 . S
H1229 C1241 0.959 . S
H1230 C1244 0.929 . S
H1231 C1245 0.931 . S
H1232 C1247 0.930 . S
C1233 H1221 0.930 . S
C1233 C1234 1.399 . S
C1233 C1238 1.399 . S
C1234 C1233 1.399 . S
C1234 C1235 1.376 . S
C1235 H1222 0.930 . S
C1235 C1234 1.376 . S
C1235 C1236 1.388 . S
C1236 H1223 0.930 . S
C1236 C1235 1.388 . S
C1236 C1237 1.390 . S
C1237 C1236 1.390 . S
C1237 C1238 1.394 . S
C1237 C1243 1.465 . S
C1238 C1233 1.399 . S
C1238 C1237 1.394 . S
C1238 C1239 1.516 . S
C1239 C1238 1.516 . S
C1239 C1240 1.502 . S
C1239 C1241 1.561 . S
C1239 C1242 1.526 . S
C1240 H1224 0.959 . S
C1240 H1225 0.959 . S
C1240 H1226 0.961 . S
C1240 C1239 1.502 . S
C1241 H1227 0.960 . S
C1241 H1228 0.961 . S
C1241 H1229 0.959 . S
C1241 C1239 1.561 . S
C1242 C1239 1.526 . S
C1242 C1243 1.396 . S
C1242 C1247 1.390 . S
C1243 C1237 1.465 . S
C1243 C1242 1.396 . S
C1243 C1244 1.399 . S
C1244 H1230 0.929 . S
C1244 C1243 1.399 . S
C1244 C1245 1.385 . S
C1245 H1231 0.931 . S
C1245 C1244 1.385 . S
C1245 C1246 1.389 . S
C1246 C1245 1.389 . S
C1246 C1247 1.387 . S
C1247 H1232 0.930 . S
C1247 C1242 1.390 . S
C1247 C1246 1.387 . S
H1248 C1260 0.930 . S
H1249 C1262 0.930 . S
H1250 C1263 0.930 . S
H1251 C1267 0.959 . S
H1252 C1267 0.959 . S
H1253 C1267 0.961 . S
H1254 C1268 0.960 . S
H1255 C1268 0.961 . S
H1256 C1268 0.959 . S
H1257 C1271 0.929 . S
H1258 C1272 0.931 . S
H1259 C1274 0.930 . S
C1260 H1248 0.930 . S
C1260 C1261 1.399 . S
C1260 C1265 1.399 . S
C1261 C1260 1.399 . S
C1261 C1262 1.376 . S
C1262 H1249 0.930 . S
C1262 C1261 1.376 . S
C1262 C1263 1.388 . S
C1263 H1250 0.930 . S
C1263 C1262 1.388 . S
C1263 C1264 1.390 . S
C1264 C1263 1.390 . S
C1264 C1265 1.394 . S
C1264 C1270 1.465 . S
C1265 C1260 1.399 . S
C1265 C1264 1.394 . S
C1265 C1266 1.516 . S
C1266 C1265 1.516 . S
C1266 C1267 1.502 . S
C1266 C1268 1.561 . S
C1266 C1269 1.526 . S
C1267 H1251 0.959 . S
C1267 H1252 0.959 . S
C1267 H1253 0.961 . S
C1267 C1266 1.502 . S
C1268 H1254 0.960 . S
C1268 H1255 0.961 . S
C1268 H1256 0.959 . S
C1268 C1266 1.561 . S
C1269 C1266 1.526 . S
C1269 C1270 1.396 . S
C1269 C1274 1.390 . S
C1270 C1264 1.465 . S
C1270 C1269 1.396 . S
C1270 C1271 1.399 . S
C1271 H1257 0.929 . S
C1271 C1270 1.399 . S
C1271 C1272 1.385 . S
C1272 H1258 0.931 . S
C1272 C1271 1.385 . S
C1272 C1273 1.389 . S
C1273 C1272 1.389 . S
C1273 C1274 1.387 . S
C1274 H1259 0.930 . S
C1274 C1269 1.390 . S
C1274 C1273 1.387 . S
H1275 C1287 0.930 . S
H1276 C1289 0.930 . S
H1277 C1290 0.930 . S
H1278 C1294 0.959 . S
H1279 C1294 0.959 . S
H1280 C1294 0.961 . S
H1281 C1295 0.960 . S
H1282 C1295 0.961 . S
H1283 C1295 0.959 . S
H1284 C1298 0.929 . S
H1285 C1299 0.931 . S
H1286 C1301 0.930 . S
C1287 H1275 0.930 . S
C1287 C1288 1.399 . S
C1287 C1292 1.399 . S
C1288 C1287 1.399 . S
C1288 C1289 1.376 . S
C1289 H1276 0.930 . S
C1289 C1288 1.376 . S
C1289 C1290 1.388 . S
C1290 H1277 0.930 . S
C1290 C1289 1.388 . S
C1290 C1291 1.390 . S
C1291 C1290 1.390 . S
C1291 C1292 1.394 . S
C1291 C1297 1.465 . S
C1292 C1287 1.399 . S
C1292 C1291 1.394 . S
C1292 C1293 1.516 . S
C1293 C1292 1.516 . S
C1293 C1294 1.502 . S
C1293 C1295 1.561 . S
C1293 C1296 1.526 . S
C1294 H1278 0.959 . S
C1294 H1279 0.959 . S
C1294 H1280 0.961 . S
C1294 C1293 1.502 . S
C1295 H1281 0.960 . S
C1295 H1282 0.961 . S
C1295 H1283 0.959 . S
C1295 C1293 1.561 . S
C1296 C1293 1.526 . S
C1296 C1297 1.396 . S
C1296 C1301 1.390 . S
C1297 C1291 1.465 . S
C1297 C1296 1.396 . S
C1297 C1298 1.399 . S
C1298 H1284 0.929 . S
C1298 C1297 1.399 . S
C1298 C1299 1.385 . S
C1299 H1285 0.931 . S
C1299 C1298 1.385 . S
C1299 C1300 1.389 . S
C1300 C1299 1.389 . S
C1300 C1301 1.387 . S
C1301 H1286 0.930 . S
C1301 C1296 1.390 . S
C1301 C1300 1.387 . S
H1302 C1314 0.930 . S
H1303 C1316 0.930 . S
H1304 C1317 0.930 . S
H1305 C1321 0.959 . S
H1306 C1321 0.959 . S
H1307 C1321 0.961 . S
H1308 C1322 0.960 . S
H1309 C1322 0.961 . S
H1310 C1322 0.959 . S
H1311 C1325 0.929 . S
H1312 C1326 0.931 . S
H1313 C1328 0.930 . S
C1314 H1302 0.930 . S
C1314 C1315 1.399 . S
C1314 C1319 1.399 . S
C1315 C1314 1.399 . S
C1315 C1316 1.376 . S
C1316 H1303 0.930 . S
C1316 C1315 1.376 . S
C1316 C1317 1.388 . S
C1317 H1304 0.930 . S
C1317 C1316 1.388 . S
C1317 C1318 1.390 . S
C1318 C1317 1.390 . S
C1318 C1319 1.394 . S
C1318 C1324 1.465 . S
C1319 C1314 1.399 . S
C1319 C1318 1.394 . S
C1319 C1320 1.516 . S
C1320 C1319 1.516 . S
C1320 C1321 1.502 . S
C1320 C1322 1.561 . S
C1320 C1323 1.526 . S
C1321 H1305 0.959 . S
C1321 H1306 0.959 . S
C1321 H1307 0.961 . S
C1321 C1320 1.502 . S
C1322 H1308 0.960 . S
C1322 H1309 0.961 . S
C1322 H1310 0.959 . S
C1322 C1320 1.561 . S
C1323 C1320 1.526 . S
C1323 C1324 1.396 . S
C1323 C1328 1.390 . S
C1324 C1318 1.465 . S
C1324 C1323 1.396 . S
C1324 C1325 1.399 . S
C1325 H1311 0.929 . S
C1325 C1324 1.399 . S
C1325 C1326 1.385 . S
C1326 H1312 0.931 . S
C1326 C1325 1.385 . S
C1326 C1327 1.389 . S
C1327 C1326 1.389 . S
C1327 C1328 1.387 . S
C1328 H1313 0.930 . S
C1328 C1323 1.390 . S
C1328 C1327 1.387 . S
H1329 C1341 0.930 . S
H1330 C1343 0.930 . S
H1331 C1344 0.930 . S
H1332 C1348 0.959 . S
H1333 C1348 0.959 . S
H1334 C1348 0.961 . S
H1335 C1349 0.960 . S
H1336 C1349 0.961 . S
H1337 C1349 0.959 . S
H1338 C1352 0.929 . S
H1339 C1353 0.931 . S
H1340 C1355 0.930 . S
C1341 H1329 0.930 . S
C1341 C1342 1.399 . S
C1341 C1346 1.399 . S
C1342 C1341 1.399 . S
C1342 C1343 1.376 . S
C1343 H1330 0.930 . S
C1343 C1342 1.376 . S
C1343 C1344 1.388 . S
C1344 H1331 0.930 . S
C1344 C1343 1.388 . S
C1344 C1345 1.390 . S
C1345 C1344 1.390 . S
C1345 C1346 1.394 . S
C1345 C1351 1.465 . S
C1346 C1341 1.399 . S
C1346 C1345 1.394 . S
C1346 C1347 1.516 . S
C1347 C1346 1.516 . S
C1347 C1348 1.502 . S
C1347 C1349 1.561 . S
C1347 C1350 1.526 . S
C1348 H1332 0.959 . S
C1348 H1333 0.959 . S
C1348 H1334 0.961 . S
C1348 C1347 1.502 . S
C1349 H1335 0.960 . S
C1349 H1336 0.961 . S
C1349 H1337 0.959 . S
C1349 C1347 1.561 . S
C1350 C1347 1.526 . S
C1350 C1351 1.396 . S
C1350 C1355 1.390 . S
C1351 C1345 1.465 . S
C1351 C1350 1.396 . S
C1351 C1352 1.399 . S
C1352 H1338 0.929 . S
C1352 C1351 1.399 . S
C1352 C1353 1.385 . S
C1353 H1339 0.931 . S
C1353 C1352 1.385 . S
C1353 C1354 1.389 . S
C1354 C1353 1.389 . S
C1354 C1355 1.387 . S
C1355 H1340 0.930 . S
C1355 C1350 1.390 . S
C1355 C1354 1.387 . S
H1356 C1368 0.930 . S
H1357 C1370 0.930 . S
H1358 C1371 0.930 . S
H1359 C1375 0.959 . S
H1360 C1375 0.959 . S
H1361 C1375 0.961 . S
H1362 C1376 0.960 . S
H1363 C1376 0.961 . S
H1364 C1376 0.959 . S
H1365 C1379 0.929 . S
H1366 C1380 0.931 . S
H1367 C1382 0.930 . S
C1368 H1356 0.930 . S
C1368 C1369 1.399 . S
C1368 C1373 1.399 . S
C1369 C1368 1.399 . S
C1369 C1370 1.376 . S
C1370 H1357 0.930 . S
C1370 C1369 1.376 . S
C1370 C1371 1.388 . S
C1371 H1358 0.930 . S
C1371 C1370 1.388 . S
C1371 C1372 1.390 . S
C1372 C1371 1.390 . S
C1372 C1373 1.394 . S
C1372 C1378 1.465 . S
C1373 C1368 1.399 . S
C1373 C1372 1.394 . S
C1373 C1374 1.516 . S
C1374 C1373 1.516 . S
C1374 C1375 1.502 . S
C1374 C1376 1.561 . S
C1374 C1377 1.526 . S
C1375 H1359 0.959 . S
C1375 H1360 0.959 . S
C1375 H1361 0.961 . S
C1375 C1374 1.502 . S
C1376 H1362 0.960 . S
C1376 H1363 0.961 . S
C1376 H1364 0.959 . S
C1376 C1374 1.561 . S
C1377 C1374 1.526 . S
C1377 C1378 1.396 . S
C1377 C1382 1.390 . S
C1378 C1372 1.465 . S
C1378 C1377 1.396 . S
C1378 C1379 1.399 . S
C1379 H1365 0.929 . S
C1379 C1378 1.399 . S
C1379 C1380 1.385 . S
C1380 H1366 0.931 . S
C1380 C1379 1.385 . S
C1380 C1381 1.389 . S
C1381 C1380 1.389 . S
C1381 C1382 1.387 . S
C1382 H1367 0.930 . S
C1382 C1377 1.390 . S
C1382 C1381 1.387 . S
H1383 C1395 0.930 . S
H1384 C1397 0.930 . S
H1385 C1398 0.930 . S
H1386 C1402 0.959 . S
H1387 C1402 0.959 . S
H1388 C1402 0.961 . S
H1389 C1403 0.960 . S
H1390 C1403 0.961 . S
H1391 C1403 0.959 . S
H1392 C1406 0.929 . S
H1393 C1407 0.931 . S
H1394 C1409 0.930 . S
C1395 H1383 0.930 . S
C1395 C1396 1.399 . S
C1395 C1400 1.399 . S
C1396 C1395 1.399 . S
C1396 C1397 1.376 . S
C1397 H1384 0.930 . S
C1397 C1396 1.376 . S
C1397 C1398 1.388 . S
C1398 H1385 0.930 . S
C1398 C1397 1.388 . S
C1398 C1399 1.390 . S
C1399 C1398 1.390 . S
C1399 C1400 1.394 . S
C1399 C1405 1.465 . S
C1400 C1395 1.399 . S
C1400 C1399 1.394 . S
C1400 C1401 1.516 . S
C1401 C1400 1.516 . S
C1401 C1402 1.502 . S
C1401 C1403 1.561 . S
C1401 C1404 1.526 . S
C1402 H1386 0.959 . S
C1402 H1387 0.959 . S
C1402 H1388 0.961 . S
C1402 C1401 1.502 . S
C1403 H1389 0.960 . S
C1403 H1390 0.961 . S
C1403 H1391 0.959 . S
C1403 C1401 1.561 . S
C1404 C1401 1.526 . S
C1404 C1405 1.396 . S
C1404 C1409 1.390 . S
C1405 C1399 1.465 . S
C1405 C1404 1.396 . S
C1405 C1406 1.399 . S
C1406 H1392 0.929 . S
C1406 C1405 1.399 . S
C1406 C1407 1.385 . S
C1407 H1393 0.931 . S
C1407 C1406 1.385 . S
C1407 C1408 1.389 . S
C1408 C1407 1.389 . S
C1408 C1409 1.387 . S
C1409 H1394 0.930 . S
C1409 C1404 1.390 . S
C1409 C1408 1.387 . S
H1410 C1422 0.930 . S
H1411 C1424 0.930 . S
H1412 C1425 0.930 . S
H1413 C1429 0.959 . S
H1414 C1429 0.959 . S
H1415 C1429 0.961 . S
H1416 C1430 0.960 . S
H1417 C1430 0.961 . S
H1418 C1430 0.959 . S
H1419 C1433 0.929 . S
H1420 C1434 0.931 . S
H1421 C1436 0.930 . S
C1422 H1410 0.930 . S
C1422 C1423 1.399 . S
C1422 C1427 1.399 . S
C1423 C1422 1.399 . S
C1423 C1424 1.376 . S
C1424 H1411 0.930 . S
C1424 C1423 1.376 . S
C1424 C1425 1.388 . S
C1425 H1412 0.930 . S
C1425 C1424 1.388 . S
C1425 C1426 1.390 . S
C1426 C1425 1.390 . S
C1426 C1427 1.394 . S
C1426 C1432 1.465 . S
C1427 C1422 1.399 . S
C1427 C1426 1.394 . S
C1427 C1428 1.516 . S
C1428 C1427 1.516 . S
C1428 C1429 1.502 . S
C1428 C1430 1.561 . S
C1428 C1431 1.526 . S
C1429 H1413 0.959 . S
C1429 H1414 0.959 . S
C1429 H1415 0.961 . S
C1429 C1428 1.502 . S
C1430 H1416 0.960 . S
C1430 H1417 0.961 . S
C1430 H1418 0.959 . S
C1430 C1428 1.561 . S
C1431 C1428 1.526 . S
C1431 C1432 1.396 . S
C1431 C1436 1.390 . S
C1432 C1426 1.465 . S
C1432 C1431 1.396 . S
C1432 C1433 1.399 . S
C1433 H1419 0.929 . S
C1433 C1432 1.399 . S
C1433 C1434 1.385 . S
C1434 H1420 0.931 . S
C1434 C1433 1.385 . S
C1434 C1435 1.389 . S
C1435 C1434 1.389 . S
C1435 C1436 1.387 . S
C1436 H1421 0.930 . S
C1436 C1431 1.390 . S
C1436 C1435 1.387 . S
H1437 C1449 0.930 . S
H1438 C1451 0.930 . S
H1439 C1452 0.930 . S
H1440 C1456 0.959 . S
H1441 C1456 0.959 . S
H1442 C1456 0.961 . S
H1443 C1457 0.960 . S
H1444 C1457 0.961 . S
H1445 C1457 0.959 . S
H1446 C1460 0.929 . S
H1447 C1461 0.931 . S
H1448 C1463 0.930 . S
C1449 H1437 0.930 . S
C1449 C1450 1.399 . S
C1449 C1454 1.399 . S
C1450 C1449 1.399 . S
C1450 C1451 1.376 . S
C1451 H1438 0.930 . S
C1451 C1450 1.376 . S
C1451 C1452 1.388 . S
C1452 H1439 0.930 . S
C1452 C1451 1.388 . S
C1452 C1453 1.390 . S
C1453 C1452 1.390 . S
C1453 C1454 1.394 . S
C1453 C1459 1.465 . S
C1454 C1449 1.399 . S
C1454 C1453 1.394 . S
C1454 C1455 1.516 . S
C1455 C1454 1.516 . S
C1455 C1456 1.502 . S
C1455 C1457 1.561 . S
C1455 C1458 1.526 . S
C1456 H1440 0.959 . S
C1456 H1441 0.959 . S
C1456 H1442 0.961 . S
C1456 C1455 1.502 . S
C1457 H1443 0.960 . S
C1457 H1444 0.961 . S
C1457 H1445 0.959 . S
C1457 C1455 1.561 . S
C1458 C1455 1.526 . S
C1458 C1459 1.396 . S
C1458 C1463 1.390 . S
C1459 C1453 1.465 . S
C1459 C1458 1.396 . S
C1459 C1460 1.399 . S
C1460 H1446 0.929 . S
C1460 C1459 1.399 . S
C1460 C1461 1.385 . S
C1461 H1447 0.931 . S
C1461 C1460 1.385 . S
C1461 C1462 1.389 . S
C1462 C1461 1.389 . S
C1462 C1463 1.387 . S
C1463 H1448 0.930 . S
C1463 C1458 1.390 . S
C1463 C1462 1.387 . S
C625 C512 1.422 . S
C613 C35 1.259 . S
C652 C526 1.410 . S
C640 C115 1.373 . S
C679 C539 1.420 . S
C667 C177 1.382 . S
C694 C221 1.261 . S
C706 C506 1.426 . S
C721 C283 1.361 . S
C733 C499 1.435 . S
C748 C363 1.366 . S
C760 C519 1.430 . S
C787 C527 1.418 . S
C775 C407 1.267 . S
C814 C540 1.421 . S
C802 C469 1.379 . S
C829 C159 1.280 . S
C841 C566 1.428 . S
C868 C584 1.414 . S
C856 C239 1.271 . S
C883 C53 1.276 . S
C895 C591 1.419 . S
C922 C558 1.429 . S
C910 C97 1.369 . S
C937 C425 1.375 . S
C949 C551 1.433 . S
C964 C487 1.327 . S
C976 C565 1.419 . S
C1003 C577 1.424 . S
C991 C301 1.360 . S
C1018 C345 1.266 . S
C1030 C592 1.431 . S
C1057 C525 1.960 . S
C1045 C29 1.943 . S
C1084 C538 1.960 . S
C1072 C109 1.886 . S
C1099 C171 1.884 . S
C1111 C501 1.956 . S
C1126 C215 1.934 . S
C1138 C513 1.948 . S
C1153 C277 1.931 . S
C1165 C545 1.939 . S
C1192 C500 1.909 . S
C1180 C357 1.924 . S
C1219 C514 1.957 . S
C1207 C401 1.918 . S
C1246 C532 1.916 . S
C1234 C463 1.928 . S
C1273 C579 1.930 . S
C1261 C153 1.941 . S
C1300 C590 1.934 . S
C1288 C233 1.927 . S
C1315 C47 1.882 . S
C1327 C553 1.957 . S
C1354 C571 1.951 . S
C1342 C91 1.924 . S
C1381 C597 1.903 . S
C1369 C419 1.919 . S
C1396 C481 1.875 . S
C1408 C552 1.945 . S
C1435 C564 1.925 . S
C1423 C295 1.927 . S
C1462 C578 1.911 . S
C1450 C339 1.947 . S
