# Generated by pormake.
# Topology pts, (4,4)-cn, num edge types: 1
# Building blocks:
#     Node 0, Type 0, BuildingBlock: NAHDIM_clean_linker_0, # of connection points: 4
#     Node 1, Type 0, BuildingBlock: NAHDIM_clean_linker_0, # of connection points: 4
#     Node 2, Type 1, BuildingBlock: QUQFOY_clean_sbu_1, # of connection points: 4
#     Node 3, Type 1, BuildingBlock: QUQFOY_clean_sbu_1, # of connection points: 4
#     Edge 4, Type (0, 1), BuildingBlock: FUNLAD_clean_linker_1, # of connection points: 2
#     Edge 5, Type (0, 1), BuildingBlock: FUNLAD_clean_linker_1, # of connection points: 2
#     Edge 6, Type (0, 1), BuildingBlock: FUNLAD_clean_linker_1, # of connection points: 2
#     Edge 7, Type (0, 1), BuildingBlock: FUNLAD_clean_linker_1, # of connection points: 2
#     Edge 8, Type (0, 1), BuildingBlock: FUNLAD_clean_linker_1, # of connection points: 2
#     Edge 9, Type (0, 1), BuildingBlock: FUNLAD_clean_linker_1, # of connection points: 2
#     Edge 10, Type (0, 1), BuildingBlock: FUNLAD_clean_linker_1, # of connection points: 2
#     Edge 11, Type (0, 1), BuildingBlock: FUNLAD_clean_linker_1, # of connection points: 2
# Relax obj value: 0.113
# Max RMSD: 0.244
# Mean RMSD: 0.150
data_MOF--net-pts--node1-QUQFOY_clean_sbu_1--node2-NAHDIM_clean_linker_0--edge1-FUNLAD_clean_linker_1
_symmetry_space_group_name_H-M    P1
_symmetry_Int_Tables_number       1
_symmetry_cell_setting            triclinic
loop_
_symmetry_equiv_pos_as_xyz
'x, y, z'
_cell_length_a     31.064
_cell_length_b     34.590093
_cell_length_c     57.282704
_cell_angle_alpha  90.282931
_cell_angle_beta   89.286164
_cell_angle_gamma 89.959029
loop_
_atom_site_label
_atom_site_type_symbol
_atom_site_fract_x
_atom_site_fract_y
_atom_site_fract_z
_atom_type_partial_charge
C0 C 0.74306 0.13697 0.1021 0.0
C1 C 0.72424 0.10642 0.11859 0.0
C2 C 0.6848 0.06188 0.09272 0.0
C3 C 0.68556 0.02497 0.08274 0.0
C4 C 0.65238 0.01223 0.06823 0.0
C5 C 0.61756 0.03725 0.06351 0.0
C6 C 0.6166 0.07481 0.07337 0.0
C7 C 0.65023 0.08681 0.0879 0.0
C8 C 0.65433 0.97189 0.05812 0.0
C9 C 0.57993 0.10216 0.06859 0.0
C10 C 0.34323 0.88008 0.10104 0.0
C11 C 0.36204 0.91258 0.11601 0.0
C12 C 0.40316 0.95429 0.08894 0.0
C13 C 0.40377 0.99061 0.07844 0.0
C14 C 0.43874 0.00247 0.06453 0.0
C15 C 0.47395 0.97709 0.06092 0.0
C16 C 0.47328 0.93991 0.07108 0.0
C17 C 0.43787 0.92881 0.085 0.0
C18 C 0.43842 0.04242 0.05405 0.0
C19 C 0.51023 0.91212 0.06738 0.0
C20 C 0.43552 0.9211 0.90665 0.0
C21 C 0.42338 0.95802 0.91468 0.0
C22 C 0.45157 0.98032 0.92823 0.0
C23 C 0.49229 0.96504 0.93414 0.0
C24 C 0.50469 0.92807 0.92577 0.0
C25 C 0.4763 0.90683 0.91185 0.0
C26 C 0.43796 0.0202 0.93616 0.0
C27 C 0.54791 0.91088 0.9316 0.0
C28 C 0.76822 0.16303 0.90744 0.0
C29 C 0.75287 0.12116 0.9054 0.0
C30 C 0.67994 0.09767 0.91345 0.0
C31 C 0.63831 0.11155 0.91749 0.0
C32 C 0.60752 0.08921 0.92937 0.0
C33 C 0.61849 0.05158 0.93686 0.0
C34 C 0.66008 0.03663 0.9319 0.0
C35 C 0.69055 0.05997 0.92036 0.0
C36 C 0.56341 0.106 0.93417 0.0
C37 C 0.6723 0.99614 0.93891 0.0
C38 C 0.58153 0.02337 0.0489 0.0
C39 C 0.54603 0.00687 0.06024 0.0
C40 C 0.51236 0.99055 0.04761 0.0
C41 C 0.51481 0.98914 0.02295 0.0
C42 C 0.48325 0.97022 0.00975 0.0
C43 C 0.48607 0.96905 0.98547 0.0
C44 C 0.51972 0.98793 0.97345 0.0
C45 C 0.52242 0.98771 0.94877 0.0
C46 C 0.55529 0.00819 0.93744 0.0
C47 C 0.58639 0.02827 0.95007 0.0
C48 C 0.58547 0.02729 0.97475 0.0
C49 C 0.61728 0.04581 0.98803 0.0
C50 C 0.61643 0.04414 0.01231 0.0
C51 C 0.58291 0.02504 0.02425 0.0
C52 C 0.54981 0.00718 0.01123 0.0
C53 C 0.55168 0.00745 0.98646 0.0
C54 C 0.34934 0.85648 0.8933 0.0
C55 C 0.36463 0.89846 0.89449 0.0
O56 O 0.71807 0.07187 0.10673 0.0
O57 O 0.70866 0.12137 0.90266 0.0
O58 O 0.40918 0.89864 0.8936 0.0
O59 O 0.36852 0.9454 0.10264 0.0
H60 H 0.69331 0.11697 0.12624 0.0
H61 H 0.72054 0.14284 0.08765 0.0
H62 H 0.77415 0.12689 0.09442 0.0
H63 H 0.74847 0.16449 0.11171 0.0
H64 H 0.71234 0.00599 0.0865 0.0
H65 H 0.64913 0.11557 0.09535 0.0
H66 H 0.62511 0.9555 0.06344 0.0
H67 H 0.68323 0.95573 0.06384 0.0
H68 H 0.65478 0.97337 0.03876 0.0
H69 H 0.58496 0.13114 0.07653 0.0
H70 H 0.54947 0.08988 0.07567 0.0
H71 H 0.57604 0.10552 0.04946 0.0
H72 H 0.3928 0.90285 0.12377 0.0
H73 H 0.33778 0.85384 0.1118 0.0
H74 H 0.36583 0.87243 0.08659 0.0
H75 H 0.31217 0.88921 0.09338 0.0
H76 H 0.37679 0.00997 0.08146 0.0
H77 H 0.43775 0.90033 0.0927 0.0
H78 H 0.4669 0.05893 0.06004 0.0
H79 H 0.40885 0.05889 0.05883 0.0
H80 H 0.44066 0.04019 0.03473 0.0
H81 H 0.50353 0.88324 0.075 0.0
H82 H 0.53962 0.92408 0.07554 0.0
H83 H 0.51714 0.90863 0.04842 0.0
H84 H 0.35262 0.91085 0.91136 0.0
H85 H 0.39227 0.9697 0.91009 0.0
H86 H 0.48548 0.8785 0.90533 0.0
H87 H 0.4347 0.02081 0.95547 0.0
H88 H 0.4068 0.02912 0.92854 0.0
H89 H 0.463 0.04165 0.9312 0.0
H90 H 0.55129 0.88061 0.92527 0.0
H91 H 0.55262 0.91146 0.95078 0.0
H92 H 0.57388 0.92852 0.9235 0.0
H93 H 0.76182 0.10617 0.92182 0.0
H94 H 0.80351 0.16414 0.91032 0.0
H95 H 0.75188 0.17734 0.92253 0.0
H96 H 0.76061 0.17937 0.89134 0.0
H97 H 0.63033 0.14049 0.91178 0.0
H98 H 0.72237 0.04858 0.91656 0.0
H99 H 0.55589 0.10473 0.95316 0.0
H100 H 0.5388 0.08853 0.925 0.0
H101 H 0.56075 0.13648 0.92833 0.0
H102 H 0.70456 0.98764 0.93203 0.0
H103 H 0.64806 0.97522 0.93244 0.0
H104 H 0.67252 0.99409 0.95824 0.0
H105 H 0.54452 0.00684 0.07918 0.0
H106 H 0.45634 0.95568 0.01808 0.0
H107 H 0.46116 0.95363 0.97622 0.0
H108 H 0.55666 0.00852 0.9185 0.0
H109 H 0.64353 0.0614 0.97981 0.0
H110 H 0.64202 0.05849 0.02163 0.0
H111 H 0.35997 0.84272 0.87662 0.0
H112 H 0.31367 0.85494 0.89469 0.0
H113 H 0.36304 0.83988 0.90801 0.0
C114 C -0.00066 0.35929 0.64408 0.0
C115 C 0.02231 0.3334 0.62596 0.0
C116 C 0.05192 0.38318 0.5996 0.0
C117 C 0.01244 0.39496 0.59013 0.0
C118 C 0.01014 0.42755 0.57565 0.0
C119 C 0.04814 0.44823 0.57008 0.0
C120 C 0.08813 0.43543 0.57873 0.0
C121 C 0.08941 0.40311 0.59342 0.0
C122 C 0.967 0.44036 0.56663 0.0
C123 C 0.12941 0.45637 0.57283 0.0
C124 C 0.99197 0.65914 0.65248 0.0
C125 C 0.02864 0.6809 0.6402 0.0
C126 C 0.02698 0.65453 0.6011 0.0
C127 C 0.06748 0.63708 0.59844 0.0
C128 C 0.07336 0.60534 0.58337 0.0
C129 C 0.03779 0.59053 0.57095 0.0
C130 C 0.99709 0.6088 0.57321 0.0
C131 C 0.99245 0.6411 0.58798 0.0
C132 C 0.11741 0.58723 0.58104 0.0
C133 C 0.95821 0.59358 0.56058 0.0
C134 C 0.06344 0.66359 0.42061 0.0
C135 C 0.10046 0.64432 0.42845 0.0
C136 C 0.09723 0.60887 0.44017 0.0
C137 C 0.05623 0.59235 0.4443 0.0
C138 C 0.01897 0.61129 0.43618 0.0
C139 C 0.02313 0.64664 0.4244 0.0
C140 C 0.13766 0.58925 0.44845 0.0
C141 C 0.97476 0.59444 0.44029 0.0
C142 C 0.98284 0.30111 0.42523 0.0
C143 C 0.997 0.3227 0.40309 0.0
C144 C 0.03602 0.37901 0.41862 0.0
C145 C 0.07673 0.395 0.42226 0.0
C146 C 0.08166 0.42999 0.43451 0.0
C147 C 0.04481 0.44954 0.44325 0.0
C148 C 0.00342 0.43404 0.43923 0.0
C149 C -0.00059 0.39895 0.42704 0.0
C150 C 0.12624 0.44577 0.43848 0.0
C151 C 0.96336 0.45435 0.44811 0.0
C152 C 0.04598 0.48435 0.5562 0.0
C153 C 0.04299 0.51938 0.56838 0.0
C154 C 0.04256 0.55474 0.55666 0.0
C155 C 0.04581 0.55536 0.53201 0.0
C156 C 0.04746 0.59037 0.51968 0.0
C157 C 0.0499 0.59065 0.4954 0.0
C158 C 0.05052 0.55592 0.48251 0.0
C159 C 0.05241 0.55591 0.45781 0.0
C160 C 0.05129 0.52087 0.44553 0.0
C161 C 0.04928 0.48554 0.45728 0.0
C162 C 0.04934 0.48495 0.48198 0.0
C163 C 0.04935 0.44991 0.49435 0.0
C164 C 0.04887 0.44961 0.51865 0.0
C165 C 0.04744 0.48432 0.53151 0.0
C166 C 0.04751 0.51999 0.5194 0.0
C167 C 0.04922 0.52029 0.49461 0.0
C168 C 0.11455 0.74277 0.42729 0.0
C169 C 0.10105 0.72091 0.40519 0.0
O170 O 0.05539 0.35348 0.615 0.0
O171 O 0.03371 0.3444 0.4072 0.0
O172 O 0.06491 0.69845 0.40962 0.0
O173 O 0.02036 0.68385 0.61654 0.0
H174 H 0.99902 0.3229 0.61275 0.0
H175 H 0.98446 0.38475 0.6357 0.0
H176 H 0.02249 0.36981 0.65731 0.0
H177 H 0.97326 0.34295 0.65306 0.0
H178 H 0.98319 0.37934 0.59422 0.0
H179 H 0.11978 0.39363 0.60055 0.0
H180 H 0.96034 0.4705 0.57239 0.0
H181 H 0.94028 0.42152 0.57281 0.0
H182 H 0.96762 0.44012 0.54725 0.0
H183 H 0.15822 0.44097 0.57935 0.0
H184 H 0.12852 0.48576 0.5807 0.0
H185 H 0.13266 0.45981 0.55362 0.0
H186 H 0.05913 0.66483 0.64307 0.0
H187 H 0.99811 0.65711 0.67151 0.0
H188 H 0.9896 0.62932 0.64533 0.0
H189 H 0.96075 0.6741 0.64982 0.0
H190 H 0.09446 0.64829 0.60817 0.0
H191 H 0.96139 0.65507 0.59009 0.0
H192 H 0.1256 0.58184 0.56238 0.0
H193 H 0.11736 0.55894 0.5901 0.0
H194 H 0.14283 0.60566 0.58882 0.0
H195 H 0.92813 0.60874 0.56599 0.0
H196 H 0.95426 0.56218 0.56393 0.0
H197 H 0.96286 0.59733 0.54149 0.0
H198 H 0.12819 0.70246 0.39895 0.0
H199 H 0.13204 0.65671 0.42573 0.0
H200 H 0.99473 0.66152 0.41828 0.0
H201 H 0.13719 0.58793 0.46781 0.0
H202 H 0.16732 0.60459 0.44269 0.0
H203 H 0.13894 0.55907 0.44177 0.0
H204 H 0.9489 0.61287 0.43304 0.0
H205 H 0.96886 0.59088 0.45932 0.0
H206 H 0.97294 0.56532 0.43212 0.0
H207 H 0.97039 0.34173 0.3973 0.0
H208 H 0.97437 0.32186 0.43939 0.0
H209 H 0.95397 0.28318 0.42166 0.0
H210 H 0.00907 0.28212 0.43151 0.0
H211 H 0.10482 0.37963 0.41569 0.0
H212 H 0.96754 0.38737 0.42441 0.0
H213 H 0.13191 0.44872 0.45751 0.0
H214 H 0.12896 0.47506 0.43075 0.0
H215 H 0.15172 0.42699 0.43072 0.0
H216 H 0.9334 0.44 0.4422 0.0
H217 H 0.9632 0.48481 0.44206 0.0
H218 H 0.96327 0.45487 0.46749 0.0
H219 H 0.04101 0.51911 0.58731 0.0
H220 H 0.04691 0.61797 0.52868 0.0
H221 H 0.05091 0.61849 0.48686 0.0
H222 H 0.05175 0.5211 0.42659 0.0
H223 H 0.04997 0.42229 0.48539 0.0
H224 H 0.0491 0.4218 0.52724 0.0
H225 H 0.1429 0.76138 0.42347 0.0
H226 H 0.08776 0.76114 0.43404 0.0
H227 H 0.12357 0.72218 0.44119 0.0
O228 O 0.98278 0.99247 0.237 0.0
Cd229 Cd 0.03856 0.97956 0.25468 0.0
Cd230 Cd 0.05099 0.05727 0.25336 0.0
O231 O 0.9935 0.05556 0.23571 0.0
O232 O 0.03287 0.92627 0.2676 0.0
O233 O 0.0396 0.97858 0.28972 0.0
C234 C 0.03597 0.9415 0.28812 0.0
C235 C 0.0547 0.09714 0.28615 0.0
C236 C 0.97096 0.02602 0.23079 0.0
C237 C 0.11779 0.00861 0.22932 0.0
O238 O 0.10619 0.04276 0.23475 0.0
O239 O 0.09543 0.97966 0.23569 0.0
O240 O 0.05716 0.11125 0.26537 0.0
O241 O 0.05099 0.06017 0.28836 0.0
O242 O 0.02532 0.06198 0.78549 0.0
Cd243 Cd 0.07597 0.05311 0.76245 0.0
Cd244 Cd 0.04369 0.98113 0.76186 0.0
O245 O 0.99299 0.0058 0.78033 0.0
O246 O 0.09009 0.10468 0.74899 0.0
O247 O 0.06388 0.05605 0.7282 0.0
C248 C 0.07611 0.09167 0.72932 0.0
C249 C 0.03054 0.94049 0.73013 0.0
C250 C 0.99386 0.0394 0.78942 0.0
C251 C 0.13189 0.99316 0.78267 0.0
O252 O 0.09995 0.97084 0.7797 0.0
O253 O 0.13087 0.0279 0.77553 0.0
O254 O 0.02448 0.92898 0.7513 0.0
O255 O 0.04302 0.97564 0.72685 0.0
H256 H 0.33692 0.90722 0.15264 0.0
C257 C 0.33182 0.92181 0.13613 0.0
H258 H 0.29072 0.95792 0.11692 0.0
H259 H 0.12419 0.93282 0.17803 0.0
H260 H 0.10568 0.89926 0.14235 0.0
H261 H 0.16009 0.88829 0.11129 0.0
H262 H 0.23326 0.91116 0.11566 0.0
C263 C 0.29752 0.94513 0.13377 0.0
C264 C 0.26556 0.95088 0.15306 0.0
C265 C 0.22306 0.93681 0.15038 0.0
C266 C 0.19195 0.94241 0.16851 0.0
C267 C 0.14944 0.92879 0.16507 0.0
C268 C 0.13828 0.90954 0.14462 0.0
C269 C 0.16888 0.90343 0.12712 0.0
C270 C 0.21078 0.91682 0.12985 0.0
H271 H 0.17124 0.0283 0.20653 0.0
C272 C 0.15595 0.00291 0.21406 0.0
H273 H 0.15444 0.94196 0.21511 0.0
H274 H 0.34287 0.98513 0.16292 0.0
H275 H 0.36249 0.01601 0.19934 0.0
H276 H 0.31034 0.02079 0.23206 0.0
H277 H 0.23798 0.99546 0.22835 0.0
C278 C 0.17032 0.96747 0.20812 0.0
C279 C 0.20353 0.96165 0.18944 0.0
C280 C 0.24631 0.97506 0.19232 0.0
C281 C 0.27707 0.97053 0.17388 0.0
C282 C 0.31877 0.98629 0.17668 0.0
C283 C 0.33039 0.00433 0.19746 0.0
C284 C 0.30098 0.00716 0.21585 0.0
C285 C 0.25942 0.99273 0.21342 0.0
H286 H 0.07259 0.30241 0.64643 0.0
C287 C 0.04126 0.29912 0.63838 0.0
H288 H 0.98549 0.26487 0.63591 0.0
H289 H 0.13343 0.14328 0.67773 0.0
H290 H 0.16884 0.14883 0.63987 0.0
H291 H 0.14176 0.19416 0.61034 0.0
H292 H 0.07939 0.23453 0.61855 0.0
C293 C 0.01803 0.26709 0.64256 0.0
C294 C 0.03283 0.2374 0.65941 0.0
C295 C 0.06868 0.21333 0.65409 0.0
C296 C 0.08357 0.18637 0.67089 0.0
C297 C 0.12024 0.1636 0.66543 0.0
C298 C 0.14093 0.16658 0.64379 0.0
C299 C 0.12574 0.19217 0.62718 0.0
C300 C 0.09004 0.21532 0.63216 0.0
H301 H 0.05694 0.10557 0.69329 0.0
C302 C 0.07064 0.11751 0.70914 0.0
H303 H 0.08935 0.16816 0.727 0.0
H304 H 0.9626 0.27853 0.67505 0.0
H305 H 0.92598 0.27151 0.71236 0.0
H306 H 0.95071 0.2237 0.74105 0.0
H307 H 0.01238 0.18279 0.73264 0.0
C308 C 0.07762 0.15576 0.71081 0.0
C309 C 0.06202 0.18301 0.69274 0.0
C310 C 0.02562 0.20648 0.69784 0.0
C311 C 0.01101 0.23367 0.68118 0.0
C312 C 0.9749 0.25709 0.68692 0.0
C313 C 0.95355 0.25341 0.70831 0.0
C314 C 0.9675 0.22654 0.72447 0.0
C315 C 0.00306 0.20328 0.71941 0.0
H316 H 0.74892 0.11649 0.15465 0.0
C317 C 0.75438 0.1 0.13868 0.0
H318 H 0.79629 0.06234 0.12033 0.0
H319 H 0.96259 0.09721 0.17754 0.0
H320 H 0.98 0.12696 0.14044 0.0
H321 H 0.92502 0.13361 0.11002 0.0
H322 H 0.85238 0.11019 0.11647 0.0
C323 C 0.78917 0.077 0.13676 0.0
C324 C 0.82133 0.07424 0.15573 0.0
C325 C 0.8635 0.08865 0.15183 0.0
C326 C 0.89492 0.08557 0.16957 0.0
C327 C 0.93711 0.09939 0.16491 0.0
C328 C 0.94764 0.11647 0.14363 0.0
C329 C 0.91672 0.12015 0.1265 0.0
C330 C 0.87513 0.10647 0.13043 0.0
H331 H 0.91698 0.00395 0.20985 0.0
C332 C 0.93235 0.03011 0.21624 0.0
H333 H 0.93358 0.09107 0.21531 0.0
H334 H 0.74473 0.04026 0.1682 0.0
H335 H 0.72611 0.01346 0.20601 0.0
H336 H 0.77873 0.01319 0.23791 0.0
H337 H 0.85059 0.03896 0.232 0.0
C338 C 0.91766 0.06483 0.20948 0.0
C339 C 0.88398 0.06852 0.19133 0.0
C340 C 0.84146 0.05497 0.19545 0.0
C341 C 0.8104 0.05695 0.17743 0.0
C342 C 0.76903 0.04101 0.18154 0.0
C343 C 0.75797 0.0253 0.20314 0.0
C344 C 0.78765 0.025 0.22107 0.0
C345 C 0.82892 0.03965 0.21738 0.0
H346 H 0.05697 0.72307 0.66515 0.0
C347 C 0.03394 0.72036 0.65109 0.0
H348 H 0.98315 0.74721 0.63324 0.0
H349 H 0.93897 0.86038 0.71736 0.0
H350 H 0.87284 0.82382 0.71335 0.0
H351 H 0.86839 0.76945 0.68546 0.0
H352 H 0.92979 0.75153 0.66128 0.0
C353 C 0.00807 0.75039 0.64625 0.0
C354 C 0.00918 0.78627 0.66079 0.0
C355 C 0.97284 0.79638 0.67476 0.0
C356 C 0.97564 0.82724 0.69118 0.0
C357 C 0.93884 0.83678 0.70489 0.0
C358 C 0.90063 0.81611 0.70272 0.0
C359 C 0.89811 0.78555 0.687 0.0
C360 C 0.93367 0.7756 0.67318 0.0
H361 H 0.02778 0.92518 0.69259 0.0
C362 C 0.02499 0.91381 0.7102 0.0
H363 H 0.0155 0.86437 0.73106 0.0
H364 H 0.08119 0.78015 0.63307 0.0
H365 H 0.14784 0.81595 0.63737 0.0
H366 H 0.15511 0.86541 0.66824 0.0
H367 H 0.09569 0.88004 0.69454 0.0
C368 C 0.01903 0.87572 0.71348 0.0
C369 C 0.01486 0.84764 0.69383 0.0
C370 C 0.05068 0.83863 0.67914 0.0
C371 C 0.04735 0.80864 0.66216 0.0
C372 C 0.08273 0.80145 0.64693 0.0
C373 C 0.12104 0.82196 0.6491 0.0
C374 C 0.12507 0.84991 0.66641 0.0
C375 C 0.09049 0.85821 0.68134 0.0
H376 H 0.36755 0.92722 0.85936 0.0
C377 C 0.34685 0.92115 0.87434 0.0
H378 H 0.28461 0.92521 0.88903 0.0
H379 H 0.20407 0.05628 0.83029 0.0
H380 H 0.21528 0.08969 0.86697 0.0
H381 H 0.25943 0.06051 0.89775 0.0
H382 H 0.29228 0.99744 0.89208 0.0
C383 C 0.30501 0.93088 0.87387 0.0
C384 C 0.28515 0.95075 0.85366 0.0
C385 C 0.26727 0.98814 0.85691 0.0
C386 C 0.24255 0.0053 0.83896 0.0
C387 C 0.22363 0.04201 0.84313 0.0
C388 C 0.22979 0.06156 0.86415 0.0
C389 C 0.2546 0.04512 0.88149 0.0
C390 C 0.27314 0.00884 0.87803 0.0
H391 H 0.1656 0.94979 0.80349 0.0
C392 C 0.16865 0.97856 0.79607 0.0
H393 H 0.20684 0.0289 0.79404 0.0
H394 H 0.31409 0.87806 0.84141 0.0
H395 H 0.30856 0.84756 0.80349 0.0
H396 H 0.27229 0.88058 0.7711 0.0
H397 H 0.24023 0.94405 0.77681 0.0
C398 C 0.20383 0.9997 0.80075 0.0
C399 C 0.23626 0.98519 0.81763 0.0
C400 C 0.25757 0.94944 0.81359 0.0
C401 C 0.28079 0.93151 0.83186 0.0
C402 C 0.29804 0.89407 0.82792 0.0
C403 C 0.29481 0.87602 0.80622 0.0
C404 C 0.27423 0.89452 0.78802 0.0
C405 C 0.25571 0.93078 0.79157 0.0
H406 H 0.98233 0.29384 0.36915 0.0
C407 C 0.00522 0.29448 0.38337 0.0
H408 H 0.06103 0.26918 0.39742 0.0
H409 H 0.9771 0.14072 0.32255 0.0
H410 H 0.91818 0.13625 0.35042 0.0
H411 H 0.91648 0.17719 0.3858 0.0
H412 H 0.97322 0.22358 0.39311 0.0
C413 C 0.03751 0.26857 0.38354 0.0
C414 C 0.04237 0.23925 0.36453 0.0
C415 C 0.01034 0.21054 0.36126 0.0
C416 C 0.01277 0.18522 0.34163 0.0
C417 C 0.97833 0.1592 0.33778 0.0
C418 C 0.944 0.15655 0.35357 0.0
C419 C 0.94293 0.17972 0.37342 0.0
C420 C 0.97558 0.20646 0.3773 0.0
H421 H 0.05481 0.10913 0.32408 0.0
C422 C 0.05453 0.1225 0.30695 0.0
H423 H 0.05186 0.17477 0.28816 0.0
H424 H 0.11029 0.28943 0.36645 0.0
H425 H 0.17178 0.29132 0.33995 0.0
H426 H 0.17813 0.24513 0.30714 0.0
H427 H 0.12288 0.19694 0.30049 0.0
C428 C 0.05145 0.16116 0.30522 0.0
C429 C 0.04879 0.18692 0.32614 0.0
C430 C 0.08175 0.2145 0.33004 0.0
C431 C 0.07845 0.24078 0.34918 0.0
C432 C 0.11138 0.26854 0.35233 0.0
C433 C 0.14686 0.26997 0.33725 0.0
C434 C 0.1504 0.24399 0.31875 0.0
C435 C 0.11837 0.21653 0.31511 0.0
H436 H 0.75634 0.09812 0.86866 0.0
C437 C 0.77427 0.10159 0.88472 0.0
H438 H 0.83377 0.09476 0.90138 0.0
H439 H 0.92114 0.9726 0.83593 0.0
H440 H 0.90621 0.934 0.87027 0.0
H441 H 0.85971 0.95905 0.90212 0.0
H442 H 0.82822 0.02311 0.89993 0.0
C443 C 0.81606 0.09169 0.88522 0.0
C444 C 0.83923 0.07519 0.86456 0.0
C445 C 0.85647 0.0373 0.8658 0.0
C446 C 0.88257 0.02256 0.8472 0.0
C447 C 0.9006 0.98512 0.84934 0.0
C448 C 0.89232 0.96262 0.86899 0.0
C449 C 0.86619 0.97674 0.88694 0.0
C450 C 0.84843 0.01361 0.88548 0.0
H451 H 0.96403 0.07974 0.81459 0.0
C452 C 0.95926 0.05252 0.80541 0.0
H453 H 0.9181 0.00462 0.80068 0.0
H454 H 0.81372 0.15023 0.85679 0.0
H455 H 0.82344 0.18645 0.8211 0.0
H456 H 0.86163 0.15781 0.78718 0.0
H457 H 0.89142 0.09306 0.78913 0.0
C458 C 0.92299 0.03225 0.80934 0.0
C459 C 0.89086 0.04556 0.82722 0.0
C460 C 0.87088 0.08229 0.82521 0.0
C461 C 0.84639 0.09776 0.84422 0.0
C462 C 0.8305 0.13604 0.84252 0.0
C463 C 0.83617 0.15737 0.82215 0.0
C464 C 0.85784 0.14134 0.80309 0.0
C465 C 0.87508 0.10427 0.80451 0.0
H466 H 0.11475 0.74988 0.37115 0.0
C467 C 0.09206 0.74893 0.38575 0.0
H468 H 0.03566 0.77304 0.40076 0.0
H469 H 0.11482 0.90133 0.32378 0.0
H470 H 0.17411 0.90788 0.35049 0.0
H471 H 0.17754 0.86813 0.38605 0.0
H472 H 0.12215 0.82082 0.3947 0.0
C473 C 0.05902 0.77407 0.3865 0.0
C474 C 0.05291 0.80285 0.36754 0.0
C475 C 0.0841 0.83211 0.36351 0.0
C476 C 0.08064 0.85675 0.3438 0.0
C477 C 0.11434 0.88332 0.33913 0.0
C478 C 0.14889 0.88716 0.35424 0.0
C479 C 0.15093 0.86466 0.37419 0.0
C480 C 0.11906 0.83739 0.37885 0.0
H481 H 0.03685 0.93147 0.32619 0.0
C482 C 0.03699 0.91725 0.30923 0.0
H483 H 0.04032 0.86413 0.291 0.0
H484 H 0.98623 0.75146 0.3711 0.0
H485 H 0.92418 0.74763 0.34591 0.0
H486 H 0.91596 0.79271 0.31302 0.0
H487 H 0.96989 0.8417 0.305 0.0
C488 C 0.04081 0.87856 0.30789 0.0
C489 C 0.04437 0.85382 0.32902 0.0
C490 C 0.01214 0.82579 0.33376 0.0
C491 C 0.01651 0.80018 0.35296 0.0
C492 C 0.98432 0.7719 0.35692 0.0
C493 C 0.94853 0.76936 0.34258 0.0
C494 C 0.94392 0.79471 0.32405 0.0
C495 C 0.97522 0.82264 0.3196 0.0
loop_
_geom_bond_atom_site_label_1
_geom_bond_atom_site_label_2
_geom_bond_distance
_geom_bond_site_symmetry_2
_ccdc_geom_bond_type
C0 C1 1.560 . S
C0 H61 0.959 . S
C0 H62 0.959 . S
C0 H63 0.960 . S
C1 C0 1.560 . S
C1 O56 1.426 . S
C1 H60 0.980 . S
C2 C3 1.407 1_545 S
C2 C7 1.418 . S
C2 O56 1.334 . S
C3 C2 1.407 1_565 S
C3 C4 1.360 . S
C3 H64 0.929 . S
C4 C3 1.360 . S
C4 C5 1.401 1_565 S
C4 C8 1.527 . S
C5 C4 1.401 1_545 S
C5 C6 1.405 . S
C5 C38 1.587 1_545 S
C6 C5 1.405 . S
C6 C7 1.332 . S
C6 C9 1.496 . S
C7 C2 1.418 . S
C7 C6 1.332 . S
C7 H65 0.929 . S
C8 C4 1.527 . S
C8 H66 0.959 . S
C8 H67 0.961 . S
C8 H68 0.961 . S
C9 C6 1.496 . S
C9 H69 0.960 . S
C9 H70 0.960 . S
C9 H71 0.961 . S
C10 C11 1.517 . S
C10 H73 0.961 1_565 S
C10 H74 0.960 . S
C10 H75 0.959 . S
C11 C10 1.517 . S
C11 O59 1.468 . S
C11 H72 0.980 1_565 S
C12 C13 1.349 1_565 S
C12 C17 1.367 . S
C12 O59 1.408 . S
C13 C12 1.349 1_545 S
C13 C14 1.407 . S
C13 H76 0.930 . S
C14 C13 1.407 . S
C14 C15 1.449 1_545 S
C14 C18 1.535 . S
C15 C14 1.449 1_565 S
C15 C16 1.384 . S
C15 C40 1.553 . S
C16 C15 1.384 . S
C16 C17 1.364 . S
C16 C19 1.450 . S
C17 C12 1.367 . S
C17 C16 1.364 . S
C17 H77 0.931 . S
C18 C14 1.535 . S
C18 H78 0.959 . S
C18 H79 0.961 . S
C18 H80 0.959 . S
C19 C16 1.450 . S
C19 H81 0.960 . S
C19 H82 0.960 . S
C19 H83 0.960 . S
C20 C21 1.309 1_565 S
C20 C25 1.304 . S
C20 O58 1.435 . S
C21 C20 1.309 1_545 S
C21 C22 1.476 . S
C21 H85 0.930 . S
C22 C21 1.476 . S
C22 C23 1.400 1_545 S
C22 C26 1.567 . S
C23 C22 1.400 1_565 S
C23 C24 1.373 . S
C23 C45 1.432 . S
C24 C23 1.373 . S
C24 C25 1.339 . S
C24 C27 1.530 . S
C25 C20 1.304 . S
C25 C24 1.339 . S
C25 H86 0.930 . S
C26 C22 1.567 . S
C26 H87 0.961 . S
C26 H88 0.960 . S
C26 H89 0.958 . S
C27 C24 1.530 . S
C27 H90 0.961 . S
C27 H91 0.960 . S
C27 H92 0.960 . S
C28 C29 1.530 . S
C28 H94 0.961 . S
C28 H95 0.961 . S
C28 H96 0.959 . S
C29 C28 1.530 . S
C29 O57 1.412 . S
C29 H93 0.980 . S
C30 C31 1.288 . S
C30 C35 1.377 1_545 S
C30 O57 1.393 . S
C31 C30 1.288 . S
C31 C32 1.369 . S
C31 H97 0.932 . S
C32 C31 1.369 . S
C32 C33 1.398 . S
C32 C36 1.527 . S
C33 C32 1.398 . S
C33 C34 1.380 1_545 S
C33 C47 1.497 . S
C34 C33 1.380 1_565 S
C34 C35 1.383 . S
C34 C37 1.603 . S
C35 C30 1.377 1_565 S
C35 C34 1.383 . S
C35 H98 0.929 . S
C36 C32 1.527 . S
C36 H99 0.961 . S
C36 H100 0.959 . S
C36 H101 0.959 . S
C37 C34 1.603 . S
C37 H102 0.960 . S
C37 H103 0.962 . S
C37 H104 0.961 . S
C38 C5 1.587 1_565 S
C38 C39 1.360 . S
C38 C51 1.412 . S
C39 C38 1.360 . S
C39 C40 1.365 . S
C39 H105 0.929 . S
C40 C15 1.553 . S
C40 C39 1.365 . S
C40 C41 1.404 . S
C41 C40 1.404 . S
C41 C42 1.395 . S
C41 C52 1.451 . S
C42 C41 1.395 . S
C42 C43 1.319 . S
C42 H106 0.930 . S
C43 C42 1.319 . S
C43 C44 1.460 1_554 S
C43 H107 0.931 1_554 S
C44 C43 1.460 1_556 S
C44 C45 1.445 . S
C44 C53 1.395 . S
C45 C23 1.432 . S
C45 C44 1.445 . S
C45 C46 1.370 . S
C46 C45 1.370 . S
C46 C47 1.438 1_565 S
C46 H108 0.930 . S
C47 C33 1.497 . S
C47 C46 1.438 1_545 S
C47 C48 1.360 1_545 S
C48 C47 1.360 1_565 S
C48 C49 1.401 1_565 S
C48 C53 1.446 . S
C49 C48 1.401 1_545 S
C49 C50 1.347 1_556 S
C49 H109 0.929 . S
C50 C49 1.347 1_554 S
C50 C51 1.455 1_545 S
C50 H110 0.930 . S
C51 C38 1.412 . S
C51 C50 1.455 1_565 S
C51 C52 1.331 . S
C52 C41 1.451 . S
C52 C51 1.331 . S
C52 C53 1.497 1_554 S
C53 C44 1.395 . S
C53 C48 1.446 . S
C53 C52 1.497 1_556 S
C54 C55 1.570 1_565 S
C54 H111 0.962 . S
C54 H112 0.959 . S
C54 H113 0.958 . S
C55 C54 1.570 1_545 S
C55 O58 1.440 1_545 S
C55 H84 0.988 . S
O56 C1 1.426 . S
O56 C2 1.334 . S
O57 C29 1.412 . S
O57 C30 1.393 . S
O58 C20 1.435 . S
O58 C55 1.440 1_565 S
O59 C11 1.468 . S
O59 C12 1.408 . S
H60 C1 0.980 . S
H61 C0 0.959 . S
H62 C0 0.959 . S
H63 C0 0.960 . S
H64 C3 0.929 . S
H65 C7 0.929 . S
H66 C8 0.959 . S
H67 C8 0.961 . S
H68 C8 0.961 . S
H69 C9 0.960 . S
H70 C9 0.960 . S
H71 C9 0.961 . S
H72 C11 0.980 1_545 S
H73 C10 0.961 1_545 S
H74 C10 0.960 . S
H75 C10 0.959 . S
H76 C13 0.930 . S
H77 C17 0.931 . S
H78 C18 0.959 . S
H79 C18 0.961 . S
H80 C18 0.959 . S
H81 C19 0.960 . S
H82 C19 0.960 . S
H83 C19 0.960 . S
H84 C55 0.988 . S
H85 C21 0.930 . S
H86 C25 0.930 . S
H87 C26 0.961 . S
H88 C26 0.960 . S
H89 C26 0.958 . S
H90 C27 0.961 . S
H91 C27 0.960 . S
H92 C27 0.960 . S
H93 C29 0.980 . S
H94 C28 0.961 . S
H95 C28 0.961 . S
H96 C28 0.959 . S
H97 C31 0.932 . S
H98 C35 0.929 . S
H99 C36 0.961 . S
H100 C36 0.959 . S
H101 C36 0.959 . S
H102 C37 0.960 . S
H103 C37 0.962 . S
H104 C37 0.961 . S
H105 C39 0.929 . S
H106 C42 0.930 . S
H107 C43 0.931 1_556 S
H108 C46 0.930 . S
H109 C49 0.929 . S
H110 C50 0.930 . S
H111 C54 0.962 . S
H112 C54 0.959 . S
H113 C54 0.958 . S
C114 C115 1.560 . S
C114 H175 0.959 . S
C114 H176 0.959 . S
C114 H177 0.960 . S
C115 C114 1.560 . S
C115 O170 1.426 . S
C115 H174 0.980 . S
C116 C117 1.407 . S
C116 C121 1.418 . S
C116 O170 1.334 . S
C117 C116 1.407 . S
C117 C118 1.360 . S
C117 H178 0.929 . S
C118 C117 1.360 . S
C118 C119 1.401 . S
C118 C122 1.527 1_455 S
C119 C118 1.401 . S
C119 C120 1.405 . S
C119 C152 1.587 . S
C120 C119 1.405 . S
C120 C121 1.332 . S
C120 C123 1.496 . S
C121 C116 1.418 . S
C121 C120 1.332 . S
C121 H179 0.929 . S
C122 C118 1.527 1_655 S
C122 H180 0.959 . S
C122 H181 0.961 . S
C122 H182 0.961 . S
C123 C120 1.496 . S
C123 H183 0.960 . S
C123 H184 0.960 . S
C123 H185 0.961 . S
C124 C125 1.517 . S
C124 H187 0.961 . S
C124 H188 0.960 1_455 S
C124 H189 0.959 . S
C125 C124 1.517 . S
C125 O173 1.468 1_455 S
C125 H186 0.980 . S
C126 C127 1.350 1_655 S
C126 C131 1.366 . S
C126 O173 1.408 . S
C127 C126 1.350 1_455 S
C127 C128 1.407 . S
C127 H190 0.930 . S
C128 C127 1.407 . S
C128 C129 1.449 . S
C128 C132 1.535 . S
C129 C128 1.449 . S
C129 C130 1.384 1_455 S
C129 C154 1.553 . S
C130 C129 1.384 1_655 S
C130 C131 1.364 . S
C130 C133 1.450 . S
C131 C126 1.366 . S
C131 C130 1.364 . S
C131 H191 0.931 . S
C132 C128 1.535 . S
C132 H192 0.959 . S
C132 H193 0.961 . S
C132 H194 0.959 . S
C133 C130 1.450 . S
C133 H195 0.960 . S
C133 H196 0.960 . S
C133 H197 0.960 . S
C134 C135 1.309 . S
C134 C139 1.304 1_455 S
C134 O172 1.435 . S
C135 C134 1.309 . S
C135 C136 1.476 . S
C135 H199 0.930 . S
C136 C135 1.476 . S
C136 C137 1.400 . S
C136 C140 1.567 . S
C137 C136 1.400 . S
C137 C138 1.373 1_455 S
C137 C159 1.432 . S
C138 C137 1.373 1_655 S
C138 C139 1.339 . S
C138 C141 1.530 . S
C139 C134 1.304 1_655 S
C139 C138 1.339 . S
C139 H200 0.930 . S
C140 C136 1.567 . S
C140 H201 0.961 . S
C140 H202 0.960 . S
C140 H203 0.958 . S
C141 C138 1.530 . S
C141 H204 0.961 . S
C141 H205 0.960 . S
C141 H206 0.960 . S
C142 C143 1.530 . S
C142 H208 0.961 . S
C142 H209 0.961 . S
C142 H210 0.959 . S
C143 C142 1.530 . S
C143 O171 1.412 . S
C143 H207 0.980 . S
C144 C145 1.288 . S
C144 C149 1.377 . S
C144 O171 1.393 . S
C145 C144 1.288 . S
C145 C146 1.369 . S
C145 H211 0.932 . S
C146 C145 1.369 . S
C146 C147 1.398 . S
C146 C150 1.527 . S
C147 C146 1.398 . S
C147 C148 1.380 . S
C147 C161 1.497 . S
C148 C147 1.380 . S
C148 C149 1.383 . S
C148 C151 1.603 1_455 S
C149 C144 1.377 . S
C149 C148 1.383 . S
C149 H212 0.929 . S
C150 C146 1.527 . S
C150 H213 0.961 . S
C150 H214 0.959 . S
C150 H215 0.959 . S
C151 C148 1.603 1_655 S
C151 H216 0.960 . S
C151 H217 0.962 . S
C151 H218 0.961 . S
C152 C119 1.587 . S
C152 C153 1.360 . S
C152 C165 1.412 . S
C153 C152 1.360 . S
C153 C154 1.365 . S
C153 H219 0.929 . S
C154 C129 1.553 . S
C154 C153 1.365 . S
C154 C155 1.404 . S
C155 C154 1.404 . S
C155 C156 1.395 . S
C155 C166 1.451 . S
C156 C155 1.395 . S
C156 C157 1.322 . S
C156 H220 0.930 . S
C157 C156 1.322 . S
C157 C158 1.459 . S
C157 H221 0.929 . S
C158 C157 1.459 . S
C158 C159 1.445 . S
C158 C167 1.395 . S
C159 C137 1.432 . S
C159 C158 1.445 . S
C159 C160 1.370 . S
C160 C159 1.370 . S
C160 C161 1.438 . S
C160 H222 0.930 . S
C161 C147 1.497 . S
C161 C160 1.438 . S
C161 C162 1.360 . S
C162 C161 1.360 . S
C162 C163 1.401 . S
C162 C167 1.446 . S
C163 C162 1.401 . S
C163 C164 1.347 . S
C163 H223 0.929 . S
C164 C163 1.347 . S
C164 C165 1.455 . S
C164 H224 0.930 . S
C165 C152 1.412 . S
C165 C164 1.455 . S
C165 C166 1.331 . S
C166 C155 1.451 . S
C166 C165 1.331 . S
C166 C167 1.497 . S
C167 C158 1.395 . S
C167 C162 1.446 . S
C167 C166 1.497 . S
C168 C169 1.582 . S
C168 H225 0.962 . S
C168 H226 0.959 . S
C168 H227 0.958 1_455 S
C169 C168 1.582 . S
C169 O172 1.458 . S
C169 H198 0.980 . S
O170 C115 1.426 . S
O170 C116 1.334 . S
O171 C143 1.412 . S
O171 C144 1.393 . S
O172 C134 1.435 . S
O172 C169 1.458 . S
O173 C125 1.468 1_655 S
O173 C126 1.408 . S
H174 C115 0.980 . S
H175 C114 0.959 . S
H176 C114 0.959 . S
H177 C114 0.960 . S
H178 C117 0.929 . S
H179 C121 0.929 . S
H180 C122 0.959 . S
H181 C122 0.961 . S
H182 C122 0.961 . S
H183 C123 0.960 . S
H184 C123 0.960 . S
H185 C123 0.961 . S
H186 C125 0.980 . S
H187 C124 0.961 . S
H188 C124 0.960 1_655 S
H189 C124 0.959 . S
H190 C127 0.930 . S
H191 C131 0.931 . S
H192 C132 0.959 . S
H193 C132 0.961 . S
H194 C132 0.959 . S
H195 C133 0.960 . S
H196 C133 0.960 . S
H197 C133 0.960 . S
H198 C169 0.980 . S
H199 C135 0.930 . S
H200 C139 0.930 . S
H201 C140 0.961 . S
H202 C140 0.960 . S
H203 C140 0.958 . S
H204 C141 0.961 . S
H205 C141 0.960 . S
H206 C141 0.960 . S
H207 C143 0.980 . S
H208 C142 0.961 . S
H209 C142 0.961 . S
H210 C142 0.959 . S
H211 C145 0.932 . S
H212 C149 0.929 . S
H213 C150 0.961 . S
H214 C150 0.959 . S
H215 C150 0.959 . S
H216 C151 0.960 . S
H217 C151 0.962 . S
H218 C151 0.961 . S
H219 C153 0.929 . S
H220 C156 0.930 . S
H221 C157 0.929 . S
H222 C160 0.930 . S
H223 C163 0.929 . S
H224 C164 0.930 . S
H225 C168 0.962 . S
H226 C168 0.959 . S
H227 C168 0.958 1_655 S
O228 Cd229 2.223 . S
O228 C236 1.315 . S
Cd229 O228 2.223 . S
Cd229 O232 2.297 . S
Cd229 O233 2.439 . S
Cd229 O239 2.240 1_565 S
Cd230 O231 2.245 . S
Cd230 O238 2.223 . S
Cd230 O240 2.297 . S
Cd230 O241 2.439 . S
O231 Cd230 2.245 . S
O231 C236 1.280 1_545 S
O232 Cd229 2.297 . S
O232 C234 1.247 . S
O233 Cd229 2.439 . S
O233 C234 1.208 . S
C234 O232 1.247 . S
C234 O233 1.208 . S
C235 O240 1.247 . S
C235 O241 1.208 . S
C236 O228 1.315 . S
C236 O231 1.280 1_565 S
C237 O238 1.315 . S
C237 O239 1.279 . S
O238 Cd230 2.223 . S
O238 C237 1.315 . S
O239 Cd229 2.240 1_545 S
O239 C237 1.279 . S
O240 Cd230 2.297 . S
O240 C235 1.247 . S
O241 Cd230 2.439 . S
O241 C235 1.208 . S
O242 Cd243 2.223 . S
O242 C250 1.334 . S
Cd243 O242 2.223 . S
Cd243 O246 2.297 . S
Cd243 O247 2.439 . S
Cd243 O253 2.240 . S
Cd244 O245 2.242 1_565 S
Cd244 O252 2.223 . S
Cd244 O254 2.297 . S
Cd244 O255 2.439 . S
O245 Cd244 2.242 1_545 S
O245 C250 1.279 . S
O246 Cd243 2.297 . S
O246 C248 1.247 . S
O247 Cd243 2.439 . S
O247 C248 1.208 . S
C248 O246 1.247 . S
C248 O247 1.208 . S
C249 O254 1.247 . S
C249 O255 1.208 . S
C250 O242 1.334 . S
C250 O245 1.279 . S
C251 O252 1.315 . S
C251 O253 1.279 1_565 S
O252 Cd244 2.223 . S
O252 C251 1.315 . S
O253 Cd243 2.240 . S
O253 C251 1.279 1_545 S
O254 Cd244 2.297 . S
O254 C249 1.247 . S
O255 Cd244 2.439 . S
O255 C249 1.208 . S
H256 C257 0.951 . S
C257 H256 0.951 . S
C257 C263 1.265 . S
H258 C263 0.950 . S
H259 C267 0.949 . S
H260 C268 0.950 . S
H261 C269 0.951 . S
H262 C270 0.951 . S
C263 C257 1.265 . S
C263 H258 0.950 . S
C263 C264 1.478 . S
C264 C263 1.478 . S
C264 C265 1.397 1_545 S
C264 C281 1.394 . S
C265 C264 1.397 1_565 S
C265 C266 1.438 . S
C265 C270 1.429 . S
C266 C265 1.438 . S
C266 C267 1.428 . S
C266 C279 1.394 1_565 S
C267 H259 0.949 . S
C267 C266 1.428 . S
C267 C268 1.345 . S
C268 H260 0.950 . S
C268 C267 1.345 . S
C268 C269 1.424 . S
C269 H261 0.951 . S
C269 C268 1.424 . S
C269 C270 1.347 . S
C270 H262 0.951 . S
C270 C265 1.429 . S
C270 C269 1.347 . S
H271 C272 0.951 . S
C272 H271 0.951 . S
C272 C278 1.265 . S
H273 C278 0.950 . S
H274 C282 0.949 . S
H275 C283 0.950 . S
H276 C284 0.951 . S
H277 C285 0.951 . S
C278 C272 1.265 . S
C278 H273 0.950 . S
C278 C279 1.478 . S
C279 C266 1.394 1_545 S
C279 C278 1.478 . S
C279 C280 1.397 . S
C280 C279 1.397 . S
C280 C281 1.438 . S
C280 C285 1.429 . S
C281 C264 1.394 . S
C281 C280 1.438 . S
C281 C282 1.428 . S
C282 H274 0.949 . S
C282 C281 1.428 . S
C282 C283 1.345 . S
C283 H275 0.950 . S
C283 C282 1.345 . S
C283 C284 1.424 . S
C284 H276 0.951 . S
C284 C283 1.424 . S
C284 C285 1.347 . S
C285 H277 0.951 . S
C285 C280 1.429 . S
C285 C284 1.347 . S
H286 C287 0.951 . S
C287 H286 0.951 . S
C287 C293 1.265 . S
H288 C293 0.950 . S
H289 C297 0.949 . S
H290 C298 0.950 . S
H291 C299 0.944 1_655 S
H292 C300 0.951 . S
C293 C287 1.265 . S
C293 H288 0.950 . S
C293 C294 1.478 . S
C294 C293 1.478 . S
C294 C295 1.397 . S
C294 C311 1.394 . S
C295 C294 1.397 . S
C295 C296 1.438 . S
C295 C300 1.429 . S
C296 C295 1.438 . S
C296 C297 1.428 . S
C296 C309 1.394 . S
C297 H289 0.949 . S
C297 C296 1.428 . S
C297 C298 1.345 . S
C298 H290 0.950 . S
C298 C297 1.345 . S
C298 C299 1.424 . S
C299 H291 0.944 1_455 S
C299 C298 1.424 . S
C299 C300 1.347 . S
C300 H292 0.951 . S
C300 C295 1.429 . S
C300 C299 1.347 . S
H301 C302 0.951 1_655 S
C302 H301 0.951 1_455 S
C302 C308 1.265 . S
H303 C308 0.950 . S
H304 C312 0.949 . S
H305 C313 0.950 . S
H306 C314 0.951 . S
H307 C315 0.951 . S
C308 C302 1.265 . S
C308 H303 0.950 . S
C308 C309 1.478 . S
C309 C296 1.394 . S
C309 C308 1.478 . S
C309 C310 1.397 . S
C310 C309 1.397 . S
C310 C311 1.438 . S
C310 C315 1.429 . S
C311 C294 1.394 . S
C311 C310 1.438 . S
C311 C312 1.428 . S
C312 H304 0.949 . S
C312 C311 1.428 . S
C312 C313 1.345 . S
C313 H305 0.950 . S
C313 C312 1.345 . S
C313 C314 1.424 . S
C314 H306 0.951 . S
C314 C313 1.424 . S
C314 C315 1.347 . S
C315 H307 0.951 . S
C315 C310 1.429 . S
C315 C314 1.347 . S
H316 C317 0.951 . S
C317 H316 0.951 . S
C317 C323 1.265 . S
H318 C323 0.950 . S
H319 C327 0.949 . S
H320 C328 0.950 . S
H321 C329 0.951 . S
H322 C330 0.951 . S
C323 C317 1.265 . S
C323 H318 0.950 . S
C323 C324 1.478 . S
C324 C323 1.478 . S
C324 C325 1.397 . S
C324 C341 1.394 1_545 S
C325 C324 1.397 . S
C325 C326 1.438 . S
C325 C330 1.429 . S
C326 C325 1.438 . S
C326 C327 1.428 . S
C326 C339 1.394 . S
C327 H319 0.949 . S
C327 C326 1.428 . S
C327 C328 1.345 . S
C328 H320 0.950 . S
C328 C327 1.345 . S
C328 C329 1.424 . S
C329 H321 0.951 . S
C329 C328 1.424 . S
C329 C330 1.347 . S
C330 H322 0.951 . S
C330 C325 1.429 . S
C330 C329 1.347 . S
H331 C332 0.951 . S
C332 H331 0.951 . S
C332 C338 1.265 1_545 S
H333 C338 0.950 . S
H334 C342 0.949 . S
H335 C343 0.950 . S
H336 C344 0.951 . S
H337 C345 0.951 . S
C338 C332 1.265 1_565 S
C338 H333 0.950 . S
C338 C339 1.478 1_565 S
C339 C326 1.394 . S
C339 C338 1.478 1_545 S
C339 C340 1.397 1_545 S
C340 C339 1.397 1_565 S
C340 C341 1.438 . S
C340 C345 1.429 . S
C341 C324 1.394 1_565 S
C341 C340 1.438 . S
C341 C342 1.428 . S
C342 H334 0.949 . S
C342 C341 1.428 . S
C342 C343 1.345 . S
C343 H335 0.950 . S
C343 C342 1.345 . S
C343 C344 1.424 . S
C344 H336 0.951 . S
C344 C343 1.424 . S
C344 C345 1.347 . S
C345 H337 0.951 . S
C345 C340 1.429 . S
C345 C344 1.347 . S
H346 C347 0.951 . S
C347 H346 0.951 . S
C347 C353 1.265 . S
H348 C353 0.950 . S
H349 C357 0.949 . S
H350 C358 0.950 . S
H351 C359 0.951 . S
H352 C360 0.951 . S
C353 C347 1.265 . S
C353 H348 0.950 . S
C353 C354 1.478 . S
C354 C353 1.478 . S
C354 C355 1.397 . S
C354 C371 1.394 . S
C355 C354 1.397 . S
C355 C356 1.438 . S
C355 C360 1.429 1_455 S
C356 C355 1.438 . S
C356 C357 1.428 . S
C356 C369 1.394 . S
C357 H349 0.949 . S
C357 C356 1.428 . S
C357 C358 1.345 1_455 S
C358 H350 0.950 . S
C358 C357 1.345 1_655 S
C358 C359 1.424 . S
C359 H351 0.951 . S
C359 C358 1.424 . S
C359 C360 1.347 . S
C360 H352 0.951 . S
C360 C355 1.429 1_655 S
C360 C359 1.347 . S
H361 C362 0.951 . S
C362 H361 0.951 . S
C362 C368 1.265 . S
H363 C368 0.950 . S
H364 C372 0.949 . S
H365 C373 0.950 . S
H366 C374 0.951 . S
H367 C375 0.951 . S
C368 C362 1.265 . S
C368 H363 0.950 . S
C368 C369 1.478 . S
C369 C356 1.394 . S
C369 C368 1.478 . S
C369 C370 1.397 . S
C370 C369 1.397 . S
C370 C371 1.438 . S
C370 C375 1.429 . S
C371 C354 1.394 . S
C371 C370 1.438 . S
C371 C372 1.428 . S
C372 H364 0.949 . S
C372 C371 1.428 . S
C372 C373 1.345 . S
C373 H365 0.950 . S
C373 C372 1.345 . S
C373 C374 1.424 . S
C374 H366 0.951 . S
C374 C373 1.424 . S
C374 C375 1.347 . S
C375 H367 0.951 . S
C375 C370 1.429 . S
C375 C374 1.347 . S
H376 C377 0.951 . S
C377 H376 0.951 . S
C377 C383 1.265 . S
H378 C383 0.950 . S
H379 C387 0.949 . S
H380 C388 0.950 . S
H381 C389 0.951 . S
H382 C390 0.951 . S
C383 C377 1.265 . S
C383 H378 0.950 . S
C383 C384 1.478 . S
C384 C383 1.478 . S
C384 C385 1.397 . S
C384 C401 1.394 1_545 S
C385 C384 1.397 . S
C385 C386 1.438 . S
C385 C390 1.429 . S
C386 C385 1.438 . S
C386 C387 1.428 . S
C386 C399 1.398 . S
C387 H379 0.949 . S
C387 C386 1.428 . S
C387 C388 1.345 . S
C388 H380 0.950 . S
C388 C387 1.345 . S
C388 C389 1.424 . S
C389 H381 0.951 . S
C389 C388 1.424 . S
C389 C390 1.347 . S
C390 H382 0.951 . S
C390 C385 1.429 . S
C390 C389 1.347 . S
H391 C392 0.954 . S
C392 H391 0.954 . S
C392 C398 1.265 . S
H393 C398 0.950 . S
H394 C402 0.949 . S
H395 C403 0.950 . S
H396 C404 0.951 . S
H397 C405 0.951 . S
C398 C392 1.265 . S
C398 H393 0.950 . S
C398 C399 1.478 1_565 S
C399 C386 1.398 . S
C399 C398 1.478 1_545 S
C399 C400 1.393 1_545 S
C400 C399 1.393 1_565 S
C400 C401 1.438 . S
C400 C405 1.429 . S
C401 C384 1.394 1_565 S
C401 C400 1.438 . S
C401 C402 1.428 . S
C402 H394 0.949 . S
C402 C401 1.428 . S
C402 C403 1.345 . S
C403 H395 0.950 . S
C403 C402 1.345 . S
C403 C404 1.424 . S
C404 H396 0.951 . S
C404 C403 1.424 . S
C404 C405 1.347 . S
C405 H397 0.951 . S
C405 C400 1.429 . S
C405 C404 1.347 . S
H406 C407 0.951 . S
C407 H406 0.951 . S
C407 C413 1.265 . S
H408 C413 0.950 . S
H409 C417 0.949 . S
H410 C418 0.950 . S
H411 C419 0.951 . S
H412 C420 0.951 . S
C413 C407 1.265 . S
C413 H408 0.950 . S
C413 C414 1.478 . S
C414 C413 1.478 . S
C414 C415 1.397 . S
C414 C431 1.394 . S
C415 C414 1.397 . S
C415 C416 1.438 . S
C415 C420 1.429 . S
C416 C415 1.438 . S
C416 C417 1.428 . S
C416 C429 1.394 . S
C417 H409 0.949 . S
C417 C416 1.428 . S
C417 C418 1.345 . S
C418 H410 0.950 . S
C418 C417 1.345 . S
C418 C419 1.424 . S
C419 H411 0.951 . S
C419 C418 1.424 . S
C419 C420 1.347 . S
C420 H412 0.951 . S
C420 C415 1.429 . S
C420 C419 1.347 . S
H421 C422 0.951 . S
C422 H421 0.951 . S
C422 C428 1.265 . S
H423 C428 0.950 . S
H424 C432 0.949 . S
H425 C433 0.950 . S
H426 C434 0.951 . S
H427 C435 0.951 . S
C428 C422 1.265 . S
C428 H423 0.950 . S
C428 C429 1.478 . S
C429 C416 1.394 . S
C429 C428 1.478 . S
C429 C430 1.397 . S
C430 C429 1.397 . S
C430 C431 1.438 . S
C430 C435 1.429 . S
C431 C414 1.394 . S
C431 C430 1.438 . S
C431 C432 1.428 . S
C432 H424 0.949 . S
C432 C431 1.428 . S
C432 C433 1.345 . S
C433 H425 0.950 . S
C433 C432 1.345 . S
C433 C434 1.424 . S
C434 H426 0.951 . S
C434 C433 1.424 . S
C434 C435 1.347 . S
C435 H427 0.951 . S
C435 C430 1.429 . S
C435 C434 1.347 . S
H436 C437 0.951 . S
C437 H436 0.951 . S
C437 C443 1.265 . S
H438 C443 0.950 . S
H439 C447 0.949 . S
H440 C448 0.950 . S
H441 C449 0.951 . S
H442 C450 0.951 . S
C443 C437 1.265 . S
C443 H438 0.950 . S
C443 C444 1.478 . S
C444 C443 1.478 . S
C444 C445 1.397 1_545 S
C444 C461 1.394 . S
C445 C444 1.397 1_565 S
C445 C446 1.438 . S
C445 C450 1.429 . S
C446 C445 1.438 . S
C446 C447 1.428 . S
C446 C459 1.394 1_565 S
C447 H439 0.949 . S
C447 C446 1.428 . S
C447 C448 1.345 . S
C448 H440 0.950 . S
C448 C447 1.345 . S
C448 C449 1.424 . S
C449 H441 0.951 . S
C449 C448 1.424 . S
C449 C450 1.347 . S
C450 H442 0.951 . S
C450 C445 1.429 . S
C450 C449 1.347 . S
H451 C452 0.951 . S
C452 H451 0.951 . S
C452 C458 1.265 . S
H453 C458 0.950 . S
H454 C462 0.949 . S
H455 C463 0.950 . S
H456 C464 0.951 . S
H457 C465 0.951 . S
C458 C452 1.265 . S
C458 H453 0.950 . S
C458 C459 1.478 . S
C459 C446 1.394 1_545 S
C459 C458 1.478 . S
C459 C460 1.397 . S
C460 C459 1.397 . S
C460 C461 1.438 . S
C460 C465 1.429 . S
C461 C444 1.394 . S
C461 C460 1.438 . S
C461 C462 1.428 . S
C462 H454 0.949 . S
C462 C461 1.428 . S
C462 C463 1.345 . S
C463 H455 0.950 . S
C463 C462 1.345 . S
C463 C464 1.424 . S
C464 H456 0.951 . S
C464 C463 1.424 . S
C464 C465 1.347 . S
C465 H457 0.951 . S
C465 C460 1.429 . S
C465 C464 1.347 . S
H466 C467 0.951 . S
C467 H466 0.951 . S
C467 C473 1.265 . S
H468 C473 0.950 . S
H469 C477 0.949 . S
H470 C478 0.950 . S
H471 C479 0.951 . S
H472 C480 0.951 . S
C473 C467 1.265 . S
C473 H468 0.950 . S
C473 C474 1.478 . S
C474 C473 1.478 . S
C474 C475 1.397 . S
C474 C491 1.394 . S
C475 C474 1.397 . S
C475 C476 1.438 . S
C475 C480 1.429 . S
C476 C475 1.438 . S
C476 C477 1.428 . S
C476 C489 1.394 . S
C477 H469 0.949 . S
C477 C476 1.428 . S
C477 C478 1.345 . S
C478 H470 0.950 . S
C478 C477 1.345 . S
C478 C479 1.424 . S
C479 H471 0.951 . S
C479 C478 1.424 . S
C479 C480 1.347 . S
C480 H472 0.951 . S
C480 C475 1.429 . S
C480 C479 1.347 . S
H481 C482 0.951 1_655 S
C482 H481 0.951 1_455 S
C482 C488 1.265 . S
H483 C488 0.950 . S
H484 C492 0.949 . S
H485 C493 0.950 . S
H486 C494 0.951 . S
H487 C495 0.951 . S
C488 C482 1.265 . S
C488 H483 0.950 . S
C488 C489 1.478 . S
C489 C476 1.394 . S
C489 C488 1.478 . S
C489 C490 1.397 . S
C490 C489 1.397 . S
C490 C491 1.438 . S
C490 C495 1.429 . S
C491 C474 1.394 . S
C491 C490 1.438 . S
C491 C492 1.428 . S
C492 H484 0.949 . S
C492 C491 1.428 . S
C492 C493 1.345 . S
C493 H485 0.950 . S
C493 C492 1.345 . S
C493 C494 1.424 . S
C494 H486 0.951 . S
C494 C493 1.424 . S
C494 C495 1.347 . S
C495 H487 0.951 . S
C495 C490 1.429 . S
C495 C494 1.347 . S
C272 C237 1.597 . S
C257 C11 0.892 1_545 S
C302 C248 1.432 . S
C287 C115 1.121 . S
C332 C236 1.419 1_645 S
C317 C1 1.041 . S
C362 C249 1.495 . S
C347 C125 1.080 . S
C392 C251 1.654 . S
C377 C55 1.277 . S
C422 C235 1.516 . S
C407 C143 1.278 . S
C452 C250 1.497 1_655 S
C437 C29 1.261 . S
C467 C169 1.280 . S
C482 C234 1.659 . S
