# Generated by pormake.
# Topology pyr, (3,6)-cn, num edge types: 1
# Building blocks:
#     Node 0, Type 0, BuildingBlock: ESEHIV_clean_linker_0, # of connection points: 3
#     Node 1, Type 0, BuildingBlock: ESEHIV_clean_linker_0, # of connection points: 3
#     Node 2, Type 0, BuildingBlock: ESEHIV_clean_linker_0, # of connection points: 3
#     Node 3, Type 0, BuildingBlock: ESEHIV_clean_linker_0, # of connection points: 3
#     Node 4, Type 0, BuildingBlock: ESEHIV_clean_linker_0, # of connection points: 3
#     Node 5, Type 0, BuildingBlock: ESEHIV_clean_linker_0, # of connection points: 3
#     Node 6, Type 0, BuildingBlock: ESEHIV_clean_linker_0, # of connection points: 3
#     Node 7, Type 0, BuildingBlock: ESEHIV_clean_linker_0, # of connection points: 3
#     Node 8, Type 1, BuildingBlock: JUFBIX_clean_sbu_0, # of connection points: 6
#     Node 9, Type 1, BuildingBlock: JUFBIX_clean_sbu_0, # of connection points: 6
#     Node 10, Type 1, BuildingBlock: JUFBIX_clean_sbu_0, # of connection points: 6
#     Node 11, Type 1, BuildingBlock: JUFBIX_clean_sbu_0, # of connection points: 6
#     Edge 12, Type (0, 1), BuildingBlock: OJICUG_clean_linker_0, # of connection points: 2
#     Edge 13, Type (0, 1), BuildingBlock: OJICUG_clean_linker_0, # of connection points: 2
#     Edge 14, Type (0, 1), BuildingBlock: OJICUG_clean_linker_0, # of connection points: 2
#     Edge 15, Type (0, 1), BuildingBlock: OJICUG_clean_linker_0, # of connection points: 2
#     Edge 16, Type (0, 1), BuildingBlock: OJICUG_clean_linker_0, # of connection points: 2
#     Edge 17, Type (0, 1), BuildingBlock: OJICUG_clean_linker_0, # of connection points: 2
#     Edge 18, Type (0, 1), BuildingBlock: OJICUG_clean_linker_0, # of connection points: 2
#     Edge 19, Type (0, 1), BuildingBlock: OJICUG_clean_linker_0, # of connection points: 2
#     Edge 20, Type (0, 1), BuildingBlock: OJICUG_clean_linker_0, # of connection points: 2
#     Edge 21, Type (0, 1), BuildingBlock: OJICUG_clean_linker_0, # of connection points: 2
#     Edge 22, Type (0, 1), BuildingBlock: OJICUG_clean_linker_0, # of connection points: 2
#     Edge 23, Type (0, 1), BuildingBlock: OJICUG_clean_linker_0, # of connection points: 2
#     Edge 24, Type (0, 1), BuildingBlock: OJICUG_clean_linker_0, # of connection points: 2
#     Edge 25, Type (0, 1), BuildingBlock: OJICUG_clean_linker_0, # of connection points: 2
#     Edge 26, Type (0, 1), BuildingBlock: OJICUG_clean_linker_0, # of connection points: 2
#     Edge 27, Type (0, 1), BuildingBlock: OJICUG_clean_linker_0, # of connection points: 2
#     Edge 28, Type (0, 1), BuildingBlock: OJICUG_clean_linker_0, # of connection points: 2
#     Edge 29, Type (0, 1), BuildingBlock: OJICUG_clean_linker_0, # of connection points: 2
#     Edge 30, Type (0, 1), BuildingBlock: OJICUG_clean_linker_0, # of connection points: 2
#     Edge 31, Type (0, 1), BuildingBlock: OJICUG_clean_linker_0, # of connection points: 2
#     Edge 32, Type (0, 1), BuildingBlock: OJICUG_clean_linker_0, # of connection points: 2
#     Edge 33, Type (0, 1), BuildingBlock: OJICUG_clean_linker_0, # of connection points: 2
#     Edge 34, Type (0, 1), BuildingBlock: OJICUG_clean_linker_0, # of connection points: 2
#     Edge 35, Type (0, 1), BuildingBlock: OJICUG_clean_linker_0, # of connection points: 2
# Relax obj value: 0.113
# Max RMSD: 0.115
# Mean RMSD: 0.044
data_MOF--net-pyr--node1-JUFBIX_clean_sbu_0--node2-ESEHIV_clean_linker_0--edge1-OJICUG_clean_linker_0
_symmetry_space_group_name_H-M    P1
_symmetry_Int_Tables_number       1
_symmetry_cell_setting            triclinic
loop_
_symmetry_equiv_pos_as_xyz
'x, y, z'
_cell_length_a     25.012232
_cell_length_b     23.741243
_cell_length_c     25.186343
_cell_angle_alpha  80.529571
_cell_angle_beta   89.814328
_cell_angle_gamma 91.043873
loop_
_atom_site_label
_atom_site_type_symbol
_atom_site_fract_x
_atom_site_fract_y
_atom_site_fract_z
_atom_type_partial_charge
H0 H 0.13153 0.18261 0.22646 0.0
H1 H 0.2591 0.06266 0.23856 0.0
H2 H 0.25387 0.20154 0.10428 0.0
C3 C 0.16797 0.16797 0.21028 0.0
C4 C 0.18985 0.19872 0.16245 0.0
C5 C 0.1924 0.11934 0.23848 0.0
C6 C 0.24008 0.10036 0.21731 0.0
C7 C 0.26201 0.12874 0.1677 0.0
C8 C 0.23639 0.17806 0.14093 0.0
H9 H 0.46022 0.99436 0.61067 0.0
H10 H 0.53459 0.83559 0.66993 0.0
H11 H 0.44898 0.8559 0.52085 0.0
C12 C 0.47248 0.95268 0.6036 0.0
C13 C 0.44888 0.92864 0.56196 0.0
C14 C 0.49967 0.91826 0.64496 0.0
C15 C 0.51509 0.86345 0.6376 0.0
C16 C 0.49887 0.842 0.5912 0.0
C17 C 0.466 0.87487 0.55347 0.0
H18 H 0.75214 0.31254 0.968 0.0
H19 H 0.75694 0.45926 0.84142 0.0
H20 H 0.62966 0.33426 0.84771 0.0
C21 C 0.73456 0.33755 0.93273 0.0
C22 C 0.68792 0.31693 0.91054 0.0
C23 C 0.76006 0.38901 0.90844 0.0
C24 C 0.73796 0.41976 0.8607 0.0
C25 C 0.69024 0.40048 0.83893 0.0
C26 C 0.666 0.34937 0.86446 0.0
H27 H 0.97101 0.66738 0.55785 0.0
H28 H 0.0548 0.67201 0.40815 0.0
H29 H 0.94561 0.5336 0.46508 0.0
C30 C 0.98302 0.64568 0.52516 0.0
C31 C 0.95312 0.59799 0.51536 0.0
C32 C 1.02117 0.67174 0.48744 0.0
C33 C 1.03002 0.64869 0.44007 0.0
C34 C 1.00229 0.5988 0.43183 0.0
C35 C 0.96805 0.57105 0.47238 0.0
H36 H 0.82535 0.94982 0.83873 0.0
H37 H 0.95327 0.83021 0.85041 0.0
H38 H 0.83209 0.81173 0.97367 0.0
C39 C 0.84463 0.91231 0.86001 0.0
C40 C 0.8232 0.88421 0.91008 0.0
C41 C 0.89223 0.89329 0.83846 0.0
C42 C 0.91693 0.84485 0.86677 0.0
C43 C 0.89554 0.81434 0.91496 0.0
C44 C 0.84918 0.83506 0.93677 0.0
H45 H 0.52008 0.18845 0.41787 0.0
H46 H 0.60663 0.03209 0.43769 0.0
H47 H 0.65336 0.16404 0.52579 0.0
C48 C 0.5488 0.16007 0.43991 0.0
C49 C 0.58114 0.17952 0.47917 0.0
C50 C 0.55856 0.10704 0.4241 0.0
C51 C 0.5973 0.07185 0.4514 0.0
C52 C 0.63439 0.09424 0.48408 0.0
C53 C 0.62451 0.14655 0.50057 0.0
H54 H 0.33406 0.69675 0.11399 0.0
H55 H 0.3273 0.55194 0.24261 0.0
H56 H 0.45433 0.67734 0.23643 0.0
C57 C 0.35107 0.67226 0.14986 0.0
C58 C 0.39717 0.6934 0.17249 0.0
C59 C 0.3253 0.62105 0.17432 0.0
C60 C 0.34654 0.59117 0.22303 0.0
C61 C 0.39384 0.61101 0.24534 0.0
C62 C 0.41833 0.66181 0.21939 0.0
H63 H 1.01064 0.34106 0.66475 0.0
H64 H 0.11883 0.33907 0.53221 0.0
H65 H 0.1331 0.47078 0.6291 0.0
C66 C 0.04156 0.36211 0.63795 0.0
C67 C 0.06707 0.4121 0.64932 0.0
C68 C 0.05866 0.33721 0.59391 0.0
C69 C 0.1024 0.36138 0.56267 0.0
C70 C 0.13041 0.40856 0.57627 0.0
C71 C 0.11015 0.43587 0.61698 0.0
Co72 Co 1.00371 0.01038 0.51773 0.0
C73 C 0.04827 0.90229 0.52279 0.0
Co74 Co 0.08109 1.00029 0.5581 0.0
C75 C 0.89208 0.03224 0.50359 0.0
C76 C 0.92534 0.99266 0.4407 0.0
N77 N 0.93811 0.0131 0.48595 0.0
N78 N 0.85092 0.02452 0.47103 0.0
C79 C 0.87172 0.9996 0.43141 0.0
H80 H 0.88902 0.05175 0.53939 0.0
H81 H 0.95312 0.97316 0.41651 0.0
C82 C 1.036 0.10827 0.55309 0.0
N83 N 0.14857 0.99734 0.58699 0.0
C84 C 0.19022 0.97466 0.56446 0.0
C85 C 0.17063 0.02861 0.62171 0.0
N86 N 0.2373 0.99189 0.58217 0.0
C87 C 0.22554 0.02554 0.61857 0.0
C88 C 0.08749 0.03731 0.44502 0.0
O89 O 0.99832 0.08786 0.52798 0.0
O90 O 0.07585 0.07749 0.56834 0.0
O91 O 0.11405 0.02463 0.48805 0.0
O92 O 1.03678 0.03509 0.44844 0.0
O93 O 0.08565 0.92235 0.54844 0.0
H94 H 0.14856 0.05523 0.64469 0.0
H95 H 0.18635 0.95 0.53208 0.0
O96 O 1.00901 0.93353 0.50693 0.0
O97 O 0.97041 0.98548 0.58768 0.0
O98 O 0.04818 0.97647 0.62772 0.0
C99 C 0.99721 0.97363 0.63093 0.0
H100 H 0.84969 0.98652 0.39845 0.0
H101 H 0.25453 0.04759 0.63998 0.0
Co102 Co 0.5224 1.00347 1.00225 0.0
C103 C 0.50508 0.90627 0.0806 0.0
Co104 Co 0.56253 0.00624 0.07922 0.0
C105 C 0.51085 0.99159 0.89045 0.0
C106 C 0.43666 0.98281 0.93403 0.0
N107 N 0.48896 0.99563 0.93874 0.0
N108 N 0.47426 0.97617 0.85604 0.0
C109 C 0.4275 0.97097 0.88339 0.0
H110 H 0.55301 0.99811 0.88128 0.0
H111 H 0.40754 0.97898 0.96631 0.0
C112 C 0.57987 0.10349 1.00084 0.0
N113 N 0.59398 0.01403 0.14398 0.0
C114 C 0.56736 0.01462 0.19065 0.0
C115 C 0.64221 0.03806 0.15072 0.0
N116 N 0.59589 0.04075 0.22499 0.0
C117 C 0.64332 0.05497 0.20044 0.0
C118 C 0.62831 0.96162 1.00652 0.0
O119 O 0.54988 0.0772 0.97187 0.0
O120 O 0.58913 0.08046 0.04901 0.0
O121 O 0.62719 0.97307 0.05436 0.0
O122 O 0.5863 0.97025 0.97816 0.0
O123 O 0.5355 0.93237 0.10926 0.0
H124 H 0.67229 0.04814 0.11947 0.0
H125 H 0.52572 1.00205 0.19705 0.0
O126 O 0.49532 0.92947 1.03262 0.0
O127 O 0.45833 0.0375 1.02683 0.0
O128 O 0.49835 0.03919 0.10312 0.0
C129 C 0.45682 0.04869 0.0745 0.0
H130 H 0.38975 0.95661 0.86898 0.0
H131 H 0.67493 0.07955 0.2157 0.0
Co132 Co 0.58077 0.52121 0.5245 0.0
C133 C 0.49687 0.53236 0.4504 0.0
Co134 Co 0.5027 0.49579 0.56209 0.0
C135 C 0.6947 0.53592 0.51679 0.0
C136 C 0.6539 0.59549 0.45829 0.0
N137 N 0.64596 0.54838 0.49561 0.0
N138 N 0.73216 0.57466 0.49577 0.0
C139 C 0.70688 0.61179 0.45835 0.0
H140 H 0.7019 0.50202 0.55017 0.0
H141 H 0.62251 0.61923 0.43576 0.0
C142 C 0.58652 0.4845 0.63598 0.0
N143 N 0.43795 0.46819 0.59169 0.0
C144 C 0.38867 0.47852 0.57106 0.0
C145 C 0.43133 0.42274 0.63121 0.0
N146 N 0.35216 0.44018 0.59496 0.0
C147 C 0.37863 0.40543 0.63327 0.0
C148 C 0.55907 0.40866 0.5245 0.0
O149 O 0.61351 0.50265 0.59377 0.0
O150 O 0.53621 0.47812 0.63166 0.0
O151 O 0.51703 0.42149 0.54787 0.0
O152 O 0.59481 0.44697 0.51024 0.0
O153 O 0.46986 0.51381 0.49262 0.0
H154 H 0.46337 0.40074 0.65422 0.0
H155 H 0.38032 0.51052 0.53643 0.0
O156 O 0.54718 0.53946 0.45482 0.0
O157 O 0.56672 0.59537 0.53922 0.0
O158 O 0.48841 0.57025 0.57588 0.0
C159 C 0.52449 0.60835 0.56216 0.0
H160 H 0.72488 0.64955 0.43457 0.0
H161 H 0.36156 0.36856 0.65924 0.0
Co162 Co 0.06308 0.50781 0.9999 0.0
C163 C 0.95613 0.46492 1.00454 0.0
Co164 Co 1.02313 0.50555 0.07812 0.0
C165 C 0.07769 0.47637 0.89617 0.0
C166 C 0.11709 0.55603 0.90157 0.0
N167 N 0.09102 0.51147 0.93132 0.0
N168 N 0.0926 0.49811 0.84538 0.0
C169 C 0.11801 0.548 0.84864 0.0
H170 H 0.05354 0.43784 0.90683 0.0
H171 H 0.13088 0.59384 0.91664 0.0
C172 C 0.13017 0.54807 0.0738 0.0
N173 N 0.99423 0.50202 0.1462 0.0
C174 C 1.00811 0.53472 0.18324 0.0
C175 C 0.95777 0.46403 0.17114 0.0
N176 N 0.98199 0.5185 0.23017 0.0
C177 C 0.94987 0.47436 0.22275 0.0
C178 C 0.0818 0.40739 0.06883 0.0
O179 O 0.12864 0.54018 1.0249 0.0
O180 O 0.08819 0.53702 0.10241 0.0
O181 O 0.05158 0.43106 0.09913 0.0
O182 O 0.09143 0.43293 1.02117 0.0
O183 O 0.95785 0.47341 0.0531 0.0
H184 H 0.93905 0.43016 0.15345 0.0
H185 H 1.03683 0.56982 0.17617 0.0
O186 O 0.99791 0.476 0.9757 0.0
O187 O 1.03433 0.58226 0.97896 0.0
O188 O 0.99483 0.5806 0.05692 0.0
C189 C 1.00424 0.60605 1.00922 0.0
H190 H 0.13411 0.5777 0.8149 0.0
H191 H 0.92372 0.45036 0.25297 0.0
C192 C 0.11115 0.08276 0.29424 0.0
C193 C 0.16714 0.09073 0.29049 0.0
H194 H 0.04247 0.06042 0.34497 0.0
C195 C 0.19714 0.07751 0.33795 0.0
H196 H 0.08668 0.09177 0.25855 0.0
C197 C 0.17154 0.0594 0.38796 0.0
C198 C 0.11528 0.05398 0.39179 0.0
H199 H 0.24018 0.08352 0.33678 0.0
H200 H 0.19582 0.05091 0.42382 0.0
C201 C 0.08566 0.06486 0.34398 0.0
C202 C 0.53909 0.92969 0.7353 0.0
C203 C 0.49585 0.93361 0.6996 0.0
H204 H 0.56629 0.94064 0.81382 0.0
C205 C 0.44622 0.9517 0.71641 0.0
H206 H 0.57754 0.91529 0.72353 0.0
C207 C 0.44004 0.96702 0.76676 0.0
C208 C 0.48283 0.96338 0.80277 0.0
H209 H 0.4115 0.95368 0.69057 0.0
H210 H 0.40137 0.98166 0.77746 0.0
C211 C 0.53268 0.94473 0.7866 0.0
C212 C 0.69537 0.44923 0.74171 0.0
C213 C 0.66504 0.43115 0.78871 0.0
H214 H 0.69453 0.48003 0.65667 0.0
C215 C 0.60895 0.43571 0.78564 0.0
H216 H 0.7385 0.44599 0.74246 0.0
C217 C 0.58366 0.45419 0.7365 0.0
C218 C 0.61371 0.4694 0.68895 0.0
H219 H 0.58429 0.42306 0.82119 0.0
H220 H 0.5404 0.45533 0.73565 0.0
C221 C 0.67 0.46822 0.69242 0.0
C222 C 0.94775 0.56914 0.35807 0.0
C223 C 0.99851 0.58199 0.37766 0.0
H224 H 0.90316 0.53814 0.29623 0.0
C225 C 0.04384 0.57771 0.34564 0.0
H226 H 0.91165 0.57426 0.38055 0.0
C227 C 0.03847 0.55819 0.29622 0.0
C228 C 0.98781 0.54236 0.27864 0.0
H229 H 0.08328 0.58787 0.35942 0.0
H230 H 0.07391 0.55362 0.27262 0.0
C231 C 0.94261 0.54878 0.30966 0.0
C232 C 0.35619 0.08976 0.1761 0.0
C233 C 0.31185 0.10776 0.1438 0.0
H234 H 0.43622 0.05831 0.17989 0.0
C235 C 0.31595 0.10648 0.08808 0.0
H236 H 0.35502 0.09058 0.21895 0.0
C237 C 0.36262 0.08751 0.06552 0.0
C238 C 0.40708 0.06997 0.09781 0.0
H239 H 0.28264 0.11951 0.06182 0.0
H240 H 0.36386 0.08671 1.02267 0.0
C241 C 0.40309 0.07158 0.15346 0.0
C242 C 0.35254 0.90779 0.5476 0.0
C243 C 0.39459 0.9486 0.54461 0.0
H244 H 0.26925 0.89008 0.56306 0.0
C245 C 0.3815 0.00642 0.54255 0.0
H246 H 0.3603 0.86284 0.54923 0.0
C247 C 0.32926 0.02126 0.55338 0.0
C248 C 0.289 0.97898 0.56333 0.0
H249 H 0.41252 0.03932 0.53835 0.0
H250 H 0.32072 0.0652 0.55626 0.0
C251 C 0.3002 0.92303 0.55663 0.0
C252 C 0.81403 0.40737 0.98919 0.0
C253 C 0.80998 0.40959 0.93301 0.0
H254 H 0.86251 0.42316 0.05576 0.0
C255 C 0.85458 0.43008 0.90091 0.0
H256 H 0.78044 0.39227 1.01524 0.0
C257 C 0.90189 0.44716 0.92426 0.0
C258 C 0.90591 0.44506 0.98042 0.0
H259 H 0.85328 0.43192 0.85768 0.0
H260 H 0.93535 0.46242 0.89806 0.0
C261 C 0.86113 0.42519 1.01251 0.0
C262 C 0.87129 0.53665 0.54039 0.0
C263 C 0.89623 0.59104 0.53238 0.0
H264 H 0.7988 0.48879 0.53339 0.0
C265 C 0.86403 0.6396 0.5227 0.0
H266 H 0.89505 0.4985 0.54814 0.0
C267 C 0.80954 0.63399 0.51342 0.0
C268 C 0.78595 0.57981 0.51441 0.0
H269 H 0.88161 0.68224 0.51609 0.0
H270 H 0.7864 0.67221 0.50253 0.0
C271 C 0.81643 0.53109 0.53132 0.0
C272 C 0.16044 0.26917 0.08061 0.0
C273 C 0.16399 0.25312 0.13692 0.0
H274 H 0.13158 0.33028 1.01463 0.0
C275 C 0.14086 0.28902 0.16966 0.0
H276 H 0.17748 0.24272 0.05398 0.0
C277 C 0.11343 0.33784 0.14727 0.0
C278 C 0.10922 0.35356 0.09123 0.0
H279 H 0.14411 0.2797 0.21307 0.0
H280 H 0.09632 0.36398 0.17418 0.0
C281 C 0.13366 0.31907 0.05802 0.0
C282 C 0.63823 0.22592 0.90064 0.0
C283 C 0.66159 0.26135 0.93432 0.0
H284 H 0.59343 0.14944 0.89499 0.0
C285 C 0.65779 0.24401 0.99039 0.0
H286 H 0.64145 0.23682 0.85726 0.0
C287 C 0.63089 0.193 1.01203 0.0
C288 C 0.60664 0.15849 0.97814 0.0
H289 H 0.67475 0.27027 1.01763 0.0
H290 H 0.62873 0.18084 0.05537 0.0
C291 C 0.61069 0.17556 0.92223 0.0
C292 C 0.06514 0.74237 0.53796 0.0
C293 C 0.03926 0.73048 0.49147 0.0
H294 H 0.08954 0.80698 0.58393 0.0
C295 C 1.0213 0.77587 0.45329 0.0
H296 H 0.07855 0.70783 0.56828 0.0
C297 C 1.026 0.83191 0.46296 0.0
C298 C 0.04972 0.84375 0.51047 0.0
H299 H 1.00032 0.7677 0.41767 0.0
H300 H 1.00957 0.86592 0.43394 0.0
C301 C 0.07113 0.79883 0.547 0.0
C302 C 0.4615 0.74448 0.58926 0.0
C303 C 0.50628 0.7814 0.58722 0.0
H304 H 0.43218 0.66034 0.58354 0.0
C305 C 0.55719 0.76074 0.57907 0.0
H306 H 0.42184 0.75979 0.59574 0.0
C307 C 0.56306 0.70423 0.57123 0.0
C308 C 0.51816 0.66732 0.57243 0.0
H309 H 0.59211 0.78868 0.57736 0.0
H310 H 0.60277 0.6895 0.56403 0.0
C311 C 0.46742 0.68774 0.58238 0.0
C312 C 0.88742 0.93409 0.73851 0.0
C313 C 0.91736 0.92162 0.7861 0.0
H314 H 0.88875 0.9596 0.65245 0.0
C315 C 0.97336 0.92977 0.78217 0.0
H316 H 0.8444 0.92792 0.73973 0.0
C317 C 0.99887 0.94713 0.73228 0.0
C318 C 0.96933 0.95731 0.68436 0.0
H319 H 0.99786 0.92129 0.81788 0.0
H320 H 0.04204 0.95172 0.73129 0.0
C321 C 0.91305 0.95166 0.68832 0.0
C322 C 0.57194 0.13583 0.32656 0.0
C323 C 0.54759 0.09755 0.36856 0.0
H324 H 0.60804 0.14674 0.24829 0.0
C325 C 0.53159 0.04297 0.35902 0.0
H326 H 0.5855 0.17781 0.33291 0.0
C327 C 0.54502 0.0251 0.31046 0.0
C328 C 0.57524 0.06126 0.27139 0.0
H329 H 0.51353 0.01241 0.39103 0.0
H330 H 0.5354 0.98176 0.30504 0.0
C331 C 0.58621 0.1176 0.27869 0.0
C332 C 0.38821 0.56488 0.34356 0.0
C333 C 0.41868 0.5814 0.29637 0.0
H334 H 0.38878 0.53676 0.42913 0.0
C335 C 0.47478 0.57691 0.29992 0.0
H336 H 0.34508 0.56815 0.34251 0.0
C337 C 0.4999 0.56007 0.3495 0.0
C338 C 0.46974 0.54637 0.39715 0.0
H339 H 0.4996 0.58843 0.26433 0.0
H340 H 0.54316 0.5589 0.35054 0.0
C341 C 0.41343 0.54746 0.39333 0.0
C342 C 0.05898 0.49231 0.70148 0.0
C343 C 0.05896 0.43319 0.70093 0.0
H344 H 0.07032 0.55933 0.74787 0.0
C345 C 0.0642 0.39562 0.74985 0.0
H346 H 0.05494 0.52219 0.66431 0.0
C347 C 0.07348 0.41694 0.79767 0.0
C348 C 0.07803 0.47613 0.7973 0.0
H349 H 0.06527 0.34991 0.75056 0.0
H350 H 0.08014 0.38714 0.83434 0.0
C351 C 0.06873 0.51355 0.74908 0.0
C352 C 0.72863 0.92281 0.90313 0.0
C353 C 0.77352 0.90507 0.93471 0.0
H354 H 0.64821 0.95318 0.90064 0.0
C355 C 0.76996 0.906 0.99057 0.0
H356 H 0.7293 0.92228 0.86022 0.0
C357 C 0.72331 0.92417 1.01394 0.0
C358 C 0.67822 0.94126 0.98241 0.0
H359 H 0.80365 0.89319 1.01636 0.0
H360 H 0.72254 0.92461 0.05687 0.0
C361 C 0.68174 0.94016 0.92659 0.0
C362 C 0.71291 0.07049 0.43314 0.0
C363 C 0.68972 0.07403 0.48335 0.0
H364 H 0.78207 0.05297 0.38998 0.0
C365 C 0.72065 0.06221 0.53002 0.0
H366 H 0.69058 0.08152 0.39617 0.0
C367 C 0.77382 0.04558 0.52633 0.0
C368 C 0.7965 0.04126 0.47587 0.0
H369 H 0.70369 0.06557 0.56898 0.0
H370 H 0.79692 0.03566 0.56281 0.0
C371 C 0.76546 0.0542 0.42948 0.0
C372 C 0.27299 0.60252 0.09243 0.0
C373 C 0.27594 0.60026 0.14875 0.0
H374 H 0.2256 0.58789 1.02467 0.0
C375 C 0.2305 0.58042 0.17979 0.0
H376 H 0.30724 0.6171 0.06713 0.0
C377 C 0.18343 0.56432 0.15529 0.0
C378 C 0.18041 0.56677 0.09896 0.0
H379 H 0.23087 0.57855 0.22304 0.0
H380 H 0.14932 0.54964 0.18077 0.0
C381 C 0.2261 0.58571 0.06796 0.0
C382 C 0.211 0.47268 0.55442 0.0
C383 C 0.18792 0.41742 0.56285 0.0
H384 H 0.28236 0.52323 0.55888 0.0
C385 C 0.22145 0.37005 0.57328 0.0
H386 H 0.18601 0.50987 0.54635 0.0
C387 C 0.27591 0.37776 0.58125 0.0
C388 C 0.29802 0.43286 0.57841 0.0
H389 H 0.20506 0.3269 0.58054 0.0
H390 H 0.30035 0.34051 0.5922 0.0
C391 C 0.26585 0.48033 0.56201 0.0
C392 C 0.94497 0.72412 0.90807 0.0
C393 C 0.92173 0.76011 0.94065 0.0
H394 H 0.98969 0.6492 0.90379 0.0
C395 C 0.92535 0.74425 0.997 0.0
H396 H 0.9417 0.73323 0.86466 0.0
C397 C 0.95222 0.69443 1.01975 0.0
C398 C 0.97672 0.65984 0.98668 0.0
H399 H 0.90826 0.77074 1.02355 0.0
H400 H 0.9543 0.68337 0.06315 0.0
C401 C 0.97251 0.67541 0.93061 0.0
C402 C 0.42798 0.76524 0.09209 0.0
C403 C 0.42364 0.74873 0.14823 0.0
H404 H 0.45731 0.82774 1.02667 0.0
C405 C 0.44642 0.78488 0.18157 0.0
H406 H 0.4115 0.7384 0.06511 0.0
C407 C 0.47389 0.83511 0.1596 0.0
C408 C 0.4784 0.85138 0.10362 0.0
H409 H 0.44274 0.77468 0.22495 0.0
H410 H 0.49069 0.86183 0.18657 0.0
C411 C 0.45474 0.81618 0.07005 0.0
C412 C 1.01779 0.26789 0.5401 0.0
C413 C 0.04139 0.27883 0.58802 0.0
H414 H 0.99625 0.20431 0.49183 0.0
C415 C 0.05869 0.23297 0.62602 0.0
H416 H 1.00519 0.30291 0.50985 0.0
C417 C 0.05543 0.17734 0.61499 0.0
C418 C 1.03372 0.16641 0.56626 0.0
H419 H 0.078 0.24061 0.66271 0.0
H420 H 0.07122 0.14294 0.64401 0.0
C421 C 1.01308 0.21179 0.52969 0.0
C422 C 0.52581 0.25678 0.5064 0.0
C423 C 0.57545 0.23816 0.49087 0.0
H424 H 0.4819 0.32516 0.53 0.0
C425 C 0.61977 0.27602 0.4861 0.0
H426 H 0.49113 0.22835 0.51025 0.0
C427 C 0.61456 0.33153 0.49686 0.0
C428 C 0.56504 0.35001 0.51311 0.0
H429 H 0.65836 0.26288 0.47337 0.0
H430 H 0.64933 0.35982 0.49268 0.0
C431 C 0.52072 0.31205 0.51787 0.0
loop_
_geom_bond_atom_site_label_1
_geom_bond_atom_site_label_2
_geom_bond_distance
_geom_bond_site_symmetry_2
_ccdc_geom_bond_type
H0 C3 0.931 . S
H1 C6 0.928 . S
H2 C8 0.930 . S
C3 H0 0.931 . S
C3 C4 1.413 . S
C3 C5 1.360 . S
C4 C3 1.413 . S
C4 C8 1.429 . S
C5 C3 1.360 . S
C5 C6 1.372 . S
C6 H1 0.928 . S
C6 C5 1.372 . S
C6 C7 1.404 . S
C7 C6 1.404 . S
C7 C8 1.391 . S
C8 H2 0.930 . S
C8 C4 1.429 . S
C8 C7 1.391 . S
H9 C12 0.931 . S
H10 C15 0.928 . S
H11 C17 0.930 . S
C12 H9 0.931 . S
C12 C13 1.413 . S
C12 C14 1.360 . S
C13 C12 1.413 . S
C13 C17 1.429 . S
C14 C12 1.360 . S
C14 C15 1.372 . S
C15 H10 0.928 . S
C15 C14 1.372 . S
C15 C16 1.404 . S
C16 C15 1.404 . S
C16 C17 1.391 . S
C17 H11 0.930 . S
C17 C13 1.429 . S
C17 C16 1.391 . S
H18 C21 0.931 . S
H19 C24 0.928 . S
H20 C26 0.930 . S
C21 H18 0.931 . S
C21 C22 1.413 . S
C21 C23 1.360 . S
C22 C21 1.413 . S
C22 C26 1.429 . S
C23 C21 1.360 . S
C23 C24 1.372 . S
C24 H19 0.928 . S
C24 C23 1.372 . S
C24 C25 1.404 . S
C25 C24 1.404 . S
C25 C26 1.391 . S
C26 H20 0.930 . S
C26 C22 1.429 . S
C26 C25 1.391 . S
H27 C30 0.931 . S
H28 C33 0.928 . S
H29 C35 0.930 . S
C30 H27 0.931 . S
C30 C31 1.413 . S
C30 C32 1.360 . S
C31 C30 1.413 . S
C31 C35 1.429 . S
C32 C30 1.360 . S
C32 C33 1.372 . S
C33 H28 0.928 . S
C33 C32 1.372 . S
C33 C34 1.404 . S
C34 C33 1.404 . S
C34 C35 1.391 . S
C35 H29 0.930 . S
C35 C31 1.429 . S
C35 C34 1.391 . S
H36 C39 0.931 . S
H37 C42 0.928 . S
H38 C44 0.930 . S
C39 H36 0.931 . S
C39 C40 1.413 . S
C39 C41 1.360 . S
C40 C39 1.413 . S
C40 C44 1.429 . S
C41 C39 1.360 . S
C41 C42 1.372 . S
C42 H37 0.928 . S
C42 C41 1.372 . S
C42 C43 1.404 . S
C43 C42 1.404 . S
C43 C44 1.391 . S
C44 H38 0.930 . S
C44 C40 1.429 . S
C44 C43 1.391 . S
H45 C48 0.931 . S
H46 C51 0.928 . S
H47 C53 0.930 . S
C48 H45 0.931 . S
C48 C49 1.413 . S
C48 C50 1.360 . S
C49 C48 1.413 . S
C49 C53 1.429 . S
C50 C48 1.360 . S
C50 C51 1.372 . S
C51 H46 0.928 . S
C51 C50 1.372 . S
C51 C52 1.404 . S
C52 C51 1.404 . S
C52 C53 1.391 . S
C53 H47 0.930 . S
C53 C49 1.429 . S
C53 C52 1.391 . S
H54 C57 0.931 . S
H55 C60 0.928 . S
H56 C62 0.930 . S
C57 H54 0.931 . S
C57 C58 1.413 . S
C57 C59 1.360 . S
C58 C57 1.413 . S
C58 C62 1.429 . S
C59 C57 1.360 . S
C59 C60 1.372 . S
C60 H55 0.928 . S
C60 C59 1.372 . S
C60 C61 1.404 . S
C61 C60 1.404 . S
C61 C62 1.391 . S
C62 H56 0.930 . S
C62 C58 1.429 . S
C62 C61 1.391 . S
H63 C66 0.931 . S
H64 C69 0.928 . S
H65 C71 0.930 . S
C66 H63 0.931 . S
C66 C67 1.413 . S
C66 C68 1.360 . S
C67 C66 1.413 . S
C67 C71 1.429 . S
C68 C66 1.360 . S
C68 C69 1.372 . S
C69 H64 0.928 . S
C69 C68 1.372 . S
C69 C70 1.404 . S
C70 C69 1.404 . S
C70 C71 1.391 . S
C71 H65 0.930 . S
C71 C67 1.429 . S
C71 C70 1.391 . S
Co72 N77 2.057 . S
Co72 O89 2.021 . S
Co72 O92 2.062 . S
Co72 O96 2.117 1_545 S
Co72 O97 2.020 1_545 S
C73 O93 1.259 1_655 S
C73 O96 1.258 . S
Co74 N83 2.057 . S
Co74 O90 2.117 1_565 S
Co74 O91 2.020 1_565 S
Co74 O93 2.021 . S
Co74 O98 2.062 . S
C75 N77 1.316 . S
C75 N78 1.347 . S
C75 H80 0.931 . S
C76 N77 1.375 1_565 S
C76 C79 1.350 1_565 S
C76 H81 0.930 . S
N77 Co72 2.057 . S
N77 C75 1.316 . S
N77 C76 1.375 1_545 S
N78 C75 1.347 . S
N78 C79 1.373 . S
C79 C76 1.350 1_545 S
C79 N78 1.373 . S
C79 H100 0.931 1_545 S
H80 C75 0.931 . S
H81 C76 0.930 . S
C82 O89 1.259 1_455 S
C82 O90 1.258 . S
N83 Co74 2.057 . S
N83 C84 1.316 . S
N83 C85 1.375 1_565 S
C84 N83 1.316 . S
C84 N86 1.347 . S
C84 H95 0.931 . S
C85 N83 1.375 1_545 S
C85 C87 1.350 1_545 S
C85 H94 0.930 . S
N86 C84 1.347 . S
N86 C87 1.373 . S
C87 C85 1.350 1_565 S
C87 N86 1.373 . S
C87 H101 0.931 1_565 S
C88 O91 1.256 . S
C88 O92 1.255 1_455 S
O89 Co72 2.021 . S
O89 C82 1.259 1_655 S
O90 Co74 2.117 1_545 S
O90 C82 1.258 . S
O91 Co74 2.020 1_545 S
O91 C88 1.256 . S
O92 Co72 2.062 . S
O92 C88 1.255 1_655 S
O93 C73 1.259 1_455 S
O93 Co74 2.021 . S
H94 C85 0.930 . S
H95 C84 0.931 . S
O96 Co72 2.117 1_565 S
O96 C73 1.258 . S
O97 Co72 2.020 1_565 S
O97 C99 1.256 . S
O98 Co74 2.062 . S
O98 C99 1.255 1_455 S
C99 O97 1.256 . S
C99 O98 1.255 1_655 S
H100 C79 0.931 1_565 S
H101 C87 0.931 1_545 S
Co102 N107 2.057 . S
Co102 O119 2.021 1_565 S
Co102 O122 2.062 . S
Co102 O126 2.114 1_556 S
Co102 O127 2.020 1_565 S
C103 O123 1.259 . S
C103 O126 1.262 . S
Co104 N113 2.057 . S
Co104 O120 2.117 . S
Co104 O121 2.020 1_545 S
Co104 O123 2.021 1_545 S
Co104 O128 2.062 . S
C105 N107 1.316 . S
C105 N108 1.347 . S
C105 H110 0.931 1_565 S
C106 N107 1.375 . S
C106 C109 1.350 . S
C106 H111 0.930 . S
N107 Co102 2.057 . S
N107 C105 1.316 . S
N107 C106 1.375 . S
N108 C105 1.347 . S
N108 C109 1.373 . S
C109 C106 1.350 . S
C109 N108 1.373 . S
C109 H130 0.931 . S
H110 C105 0.931 1_545 S
H111 C106 0.930 . S
C112 O119 1.259 . S
C112 O120 1.258 1_556 S
N113 Co104 2.057 . S
N113 C114 1.316 . S
N113 C115 1.375 . S
C114 N113 1.316 . S
C114 N116 1.347 . S
C114 H125 0.931 1_545 S
C115 N113 1.375 . S
C115 C117 1.350 . S
C115 H124 0.930 . S
N116 C114 1.347 . S
N116 C117 1.373 . S
C117 C115 1.350 . S
C117 N116 1.373 . S
C117 H131 0.931 . S
C118 O121 1.256 1_556 S
C118 O122 1.255 . S
O119 Co102 2.021 1_545 S
O119 C112 1.259 . S
O120 Co104 2.117 . S
O120 C112 1.258 1_554 S
O121 Co104 2.020 1_565 S
O121 C118 1.256 1_554 S
O122 Co102 2.062 . S
O122 C118 1.255 . S
O123 C103 1.259 . S
O123 Co104 2.021 1_565 S
H124 C115 0.930 . S
H125 C114 0.931 1_565 S
O126 Co102 2.114 1_554 S
O126 C103 1.262 . S
O127 Co102 2.020 1_545 S
O127 C129 1.256 1_556 S
O128 Co104 2.062 . S
O128 C129 1.255 . S
C129 O127 1.256 1_554 S
C129 O128 1.255 . S
H130 C109 0.931 . S
H131 C117 0.931 . S
Co132 N137 2.057 . S
Co132 O149 2.021 . S
Co132 O152 2.062 . S
Co132 O156 2.117 . S
Co132 O157 2.020 . S
C133 O153 1.259 . S
C133 O156 1.258 . S
Co134 N143 2.057 . S
Co134 O150 2.117 . S
Co134 O151 2.020 . S
Co134 O153 2.021 . S
Co134 O158 2.062 . S
C135 N137 1.316 . S
C135 N138 1.347 . S
C135 H140 0.931 . S
C136 N137 1.375 . S
C136 C139 1.350 . S
C136 H141 0.930 . S
N137 Co132 2.057 . S
N137 C135 1.316 . S
N137 C136 1.375 . S
N138 C135 1.347 . S
N138 C139 1.373 . S
C139 C136 1.350 . S
C139 N138 1.373 . S
C139 H160 0.931 . S
H140 C135 0.931 . S
H141 C136 0.930 . S
C142 O149 1.259 . S
C142 O150 1.258 . S
N143 Co134 2.057 . S
N143 C144 1.316 . S
N143 C145 1.375 . S
C144 N143 1.316 . S
C144 N146 1.347 . S
C144 H155 0.931 . S
C145 N143 1.375 . S
C145 C147 1.350 . S
C145 H154 0.930 . S
N146 C144 1.347 . S
N146 C147 1.373 . S
C147 C145 1.350 . S
C147 N146 1.373 . S
C147 H161 0.931 . S
C148 O151 1.256 . S
C148 O152 1.255 . S
O149 Co132 2.021 . S
O149 C142 1.259 . S
O150 Co134 2.117 . S
O150 C142 1.258 . S
O151 Co134 2.020 . S
O151 C148 1.256 . S
O152 Co132 2.062 . S
O152 C148 1.255 . S
O153 C133 1.259 . S
O153 Co134 2.021 . S
H154 C145 0.930 . S
H155 C144 0.931 . S
O156 Co132 2.117 . S
O156 C133 1.258 . S
O157 Co132 2.020 . S
O157 C159 1.256 . S
O158 Co134 2.062 . S
O158 C159 1.255 . S
C159 O157 1.256 . S
C159 O158 1.255 . S
H160 C139 0.931 . S
H161 C147 0.931 . S
Co162 N167 2.057 . S
Co162 O179 2.021 . S
Co162 O182 2.062 . S
Co162 O186 2.117 1_455 S
Co162 O187 2.020 1_455 S
C163 O183 1.259 1_556 S
C163 O186 1.258 . S
Co164 N173 2.057 . S
Co164 O180 2.117 1_655 S
Co164 O181 2.020 1_655 S
Co164 O183 2.021 . S
Co164 O188 2.062 . S
C165 N167 1.316 . S
C165 N168 1.347 . S
C165 H170 0.931 . S
C166 N167 1.375 1_655 S
C166 C169 1.350 1_655 S
C166 H171 0.930 . S
N167 Co162 2.057 . S
N167 C165 1.316 . S
N167 C166 1.375 1_455 S
N168 C165 1.347 . S
N168 C169 1.373 . S
C169 C166 1.350 1_455 S
C169 N168 1.373 . S
C169 H190 0.931 1_455 S
H170 C165 0.931 . S
H171 C166 0.930 . S
C172 O179 1.259 1_554 S
C172 O180 1.258 . S
N173 Co164 2.057 . S
N173 C174 1.316 . S
N173 C175 1.375 1_655 S
C174 N173 1.316 . S
C174 N176 1.347 . S
C174 H185 0.931 . S
C175 N173 1.375 1_455 S
C175 C177 1.350 1_455 S
C175 H184 0.930 . S
N176 C174 1.347 . S
N176 C177 1.373 . S
C177 C175 1.350 1_655 S
C177 N176 1.373 . S
C177 H191 0.931 1_655 S
C178 O181 1.256 . S
C178 O182 1.255 1_554 S
O179 Co162 2.021 . S
O179 C172 1.259 1_556 S
O180 Co164 2.117 1_455 S
O180 C172 1.258 . S
O181 Co164 2.020 1_455 S
O181 C178 1.256 . S
O182 Co162 2.062 . S
O182 C178 1.255 1_556 S
O183 C163 1.259 1_554 S
O183 Co164 2.021 . S
H184 C175 0.930 . S
H185 C174 0.931 . S
O186 Co162 2.117 1_655 S
O186 C163 1.258 . S
O187 Co162 2.020 1_655 S
O187 C189 1.256 . S
O188 Co164 2.062 . S
O188 C189 1.255 1_554 S
C189 O187 1.256 . S
C189 O188 1.255 1_556 S
H190 C169 0.931 1_655 S
H191 C177 0.931 1_455 S
C192 C193 1.387 . S
C192 H196 0.950 . S
C192 C201 1.390 . S
C193 C192 1.387 . S
C193 C195 1.387 . S
H194 C201 0.950 1_655 S
C195 C193 1.387 . S
C195 C197 1.390 . S
C195 H199 0.950 . S
H196 C192 0.950 . S
C197 C195 1.390 . S
C197 C198 1.387 . S
C197 H200 0.950 . S
C198 C197 1.387 . S
C198 C201 1.387 . S
H199 C195 0.950 . S
H200 C197 0.950 . S
C201 C192 1.390 . S
C201 H194 0.950 1_455 S
C201 C198 1.387 . S
C202 C203 1.387 . S
C202 H206 0.950 . S
C202 C211 1.390 . S
C203 C202 1.387 . S
C203 C205 1.387 . S
H204 C211 0.950 . S
C205 C203 1.387 . S
C205 C207 1.390 . S
C205 H209 0.950 . S
H206 C202 0.950 . S
C207 C205 1.390 . S
C207 C208 1.387 . S
C207 H210 0.950 . S
C208 C207 1.387 . S
C208 C211 1.387 . S
H209 C205 0.950 . S
H210 C207 0.950 . S
C211 C202 1.390 . S
C211 H204 0.950 . S
C211 C208 1.387 . S
C212 C213 1.387 . S
C212 H216 0.950 . S
C212 C221 1.390 . S
C213 C212 1.387 . S
C213 C215 1.387 . S
H214 C221 0.950 . S
C215 C213 1.387 . S
C215 C217 1.390 . S
C215 H219 0.950 . S
H216 C212 0.950 . S
C217 C215 1.390 . S
C217 C218 1.387 . S
C217 H220 0.950 . S
C218 C217 1.387 . S
C218 C221 1.387 . S
H219 C215 0.950 . S
H220 C217 0.950 . S
C221 C212 1.390 . S
C221 H214 0.950 . S
C221 C218 1.387 . S
C222 C223 1.387 . S
C222 H226 0.950 . S
C222 C231 1.390 . S
C223 C222 1.387 . S
C223 C225 1.387 . S
H224 C231 0.950 . S
C225 C223 1.387 . S
C225 C227 1.390 . S
C225 H229 0.950 1_655 S
H226 C222 0.950 . S
C227 C225 1.390 . S
C227 C228 1.387 . S
C227 H230 0.950 1_655 S
C228 C227 1.387 . S
C228 C231 1.387 . S
H229 C225 0.950 1_455 S
H230 C227 0.950 1_455 S
C231 C222 1.390 . S
C231 H224 0.950 . S
C231 C228 1.387 . S
C232 C233 1.387 . S
C232 H236 0.950 . S
C232 C241 1.390 . S
C233 C232 1.387 . S
C233 C235 1.387 . S
H234 C241 0.950 1_565 S
C235 C233 1.387 . S
C235 C237 1.390 . S
C235 H239 0.950 . S
H236 C232 0.950 . S
C237 C235 1.390 . S
C237 C238 1.387 . S
C237 H240 0.950 . S
C238 C237 1.387 . S
C238 C241 1.387 . S
H239 C235 0.950 . S
H240 C237 0.950 . S
C241 C232 1.390 . S
C241 H234 0.950 1_545 S
C241 C238 1.387 . S
C242 C243 1.387 . S
C242 H246 0.950 . S
C242 C251 1.390 . S
C243 C242 1.387 . S
C243 C245 1.387 . S
H244 C251 0.950 . S
C245 C243 1.387 . S
C245 C247 1.390 . S
C245 H249 0.950 . S
H246 C242 0.950 . S
C247 C245 1.390 . S
C247 C248 1.387 . S
C247 H250 0.950 . S
C248 C247 1.387 . S
C248 C251 1.387 . S
H249 C245 0.950 . S
H250 C247 0.950 . S
C251 C242 1.390 . S
C251 H244 0.950 . S
C251 C248 1.387 . S
C252 C253 1.387 . S
C252 H256 0.950 . S
C252 C261 1.390 . S
C253 C252 1.387 . S
C253 C255 1.387 . S
H254 C261 0.950 . S
C255 C253 1.387 . S
C255 C257 1.390 . S
C255 H259 0.950 . S
H256 C252 0.950 . S
C257 C255 1.390 . S
C257 C258 1.387 . S
C257 H260 0.950 . S
C258 C257 1.387 . S
C258 C261 1.387 . S
H259 C255 0.950 . S
H260 C257 0.950 . S
C261 C252 1.390 . S
C261 H254 0.950 . S
C261 C258 1.387 . S
C262 C263 1.387 . S
C262 H266 0.950 . S
C262 C271 1.390 . S
C263 C262 1.387 . S
C263 C265 1.387 . S
H264 C271 0.950 . S
C265 C263 1.387 . S
C265 C267 1.390 . S
C265 H269 0.950 . S
H266 C262 0.950 . S
C267 C265 1.390 . S
C267 C268 1.387 . S
C267 H270 0.950 . S
C268 C267 1.387 . S
C268 C271 1.387 . S
H269 C265 0.950 . S
H270 C267 0.950 . S
C271 C262 1.390 . S
C271 H264 0.950 . S
C271 C268 1.387 . S
C272 C273 1.387 . S
C272 H276 0.950 . S
C272 C281 1.390 . S
C273 C272 1.387 . S
C273 C275 1.387 . S
H274 C281 0.950 1_556 S
C275 C273 1.387 . S
C275 C277 1.390 . S
C275 H279 0.950 . S
H276 C272 0.950 . S
C277 C275 1.390 . S
C277 C278 1.387 . S
C277 H280 0.950 . S
C278 C277 1.387 . S
C278 C281 1.387 . S
H279 C275 0.950 . S
H280 C277 0.950 . S
C281 C272 1.390 . S
C281 H274 0.950 1_554 S
C281 C278 1.387 . S
C282 C283 1.387 . S
C282 H286 0.950 . S
C282 C291 1.390 . S
C283 C282 1.387 . S
C283 C285 1.387 . S
H284 C291 0.950 . S
C285 C283 1.387 . S
C285 C287 1.390 . S
C285 H289 0.950 . S
H286 C282 0.950 . S
C287 C285 1.390 . S
C287 C288 1.387 . S
C287 H290 0.950 1_556 S
C288 C287 1.387 . S
C288 C291 1.387 . S
H289 C285 0.950 . S
H290 C287 0.950 1_554 S
C291 C282 1.390 . S
C291 H284 0.950 . S
C291 C288 1.387 . S
C292 C293 1.387 . S
C292 H296 0.950 . S
C292 C301 1.390 . S
C293 C292 1.387 . S
C293 C295 1.387 . S
H294 C301 0.950 . S
C295 C293 1.387 . S
C295 C297 1.390 . S
C295 H299 0.950 . S
H296 C292 0.950 . S
C297 C295 1.390 . S
C297 C298 1.387 . S
C297 H300 0.950 . S
C298 C297 1.387 . S
C298 C301 1.387 . S
H299 C295 0.950 . S
H300 C297 0.950 . S
C301 C292 1.390 . S
C301 H294 0.950 . S
C301 C298 1.387 . S
C302 C303 1.387 . S
C302 H306 0.950 . S
C302 C311 1.390 . S
C303 C302 1.387 . S
C303 C305 1.387 . S
H304 C311 0.950 . S
C305 C303 1.387 . S
C305 C307 1.390 . S
C305 H309 0.950 . S
H306 C302 0.950 . S
C307 C305 1.390 . S
C307 C308 1.387 . S
C307 H310 0.950 . S
C308 C307 1.387 . S
C308 C311 1.387 . S
H309 C305 0.950 . S
H310 C307 0.950 . S
C311 C302 1.390 . S
C311 H304 0.950 . S
C311 C308 1.387 . S
C312 C313 1.387 . S
C312 H316 0.950 1_565 S
C312 C321 1.390 . S
C313 C312 1.387 . S
C313 C315 1.387 . S
H314 C321 0.950 1_545 S
C315 C313 1.387 . S
C315 C317 1.390 . S
C315 H319 0.950 . S
H316 C312 0.950 1_545 S
C317 C315 1.390 . S
C317 C318 1.387 . S
C317 H320 0.950 . S
C318 C317 1.387 . S
C318 C321 1.387 . S
H319 C315 0.950 . S
H320 C317 0.950 . S
C321 C312 1.390 . S
C321 H314 0.950 1_565 S
C321 C318 1.387 . S
C322 C323 1.387 . S
C322 H326 0.950 . S
C322 C331 1.390 . S
C323 C322 1.387 . S
C323 C325 1.387 . S
H324 C331 0.950 . S
C325 C323 1.387 . S
C325 C327 1.390 . S
C325 H329 0.950 . S
H326 C322 0.950 . S
C327 C325 1.390 . S
C327 C328 1.387 . S
C327 H330 0.950 . S
C328 C327 1.387 . S
C328 C331 1.387 . S
H329 C325 0.950 . S
H330 C327 0.950 . S
C331 C322 1.390 . S
C331 H324 0.950 . S
C331 C328 1.387 . S
C332 C333 1.387 . S
C332 H336 0.950 . S
C332 C341 1.390 . S
C333 C332 1.387 . S
C333 C335 1.387 . S
H334 C341 0.950 . S
C335 C333 1.387 . S
C335 C337 1.390 . S
C335 H339 0.950 . S
H336 C332 0.950 . S
C337 C335 1.390 . S
C337 C338 1.387 . S
C337 H340 0.950 . S
C338 C337 1.387 . S
C338 C341 1.387 . S
H339 C335 0.950 . S
H340 C337 0.950 . S
C341 C332 1.390 . S
C341 H334 0.950 . S
C341 C338 1.387 . S
C342 C343 1.387 . S
C342 H346 0.950 . S
C342 C351 1.390 . S
C343 C342 1.387 . S
C343 C345 1.387 . S
H344 C351 0.950 . S
C345 C343 1.387 . S
C345 C347 1.390 . S
C345 H349 0.950 . S
H346 C342 0.950 . S
C347 C345 1.390 . S
C347 C348 1.387 . S
C347 H350 0.950 . S
C348 C347 1.387 . S
C348 C351 1.387 . S
H349 C345 0.950 . S
H350 C347 0.950 . S
C351 C342 1.390 . S
C351 H344 0.950 . S
C351 C348 1.387 . S
C352 C353 1.387 . S
C352 H356 0.950 . S
C352 C361 1.390 . S
C353 C352 1.387 . S
C353 C355 1.387 . S
H354 C361 0.950 1_545 S
C355 C353 1.387 . S
C355 C357 1.390 . S
C355 H359 0.950 . S
H356 C352 0.950 . S
C357 C355 1.390 . S
C357 C358 1.387 . S
C357 H360 0.950 1_556 S
C358 C357 1.387 . S
C358 C361 1.387 . S
H359 C355 0.950 . S
H360 C357 0.950 1_554 S
C361 C352 1.390 . S
C361 H354 0.950 1_565 S
C361 C358 1.387 . S
C362 C363 1.387 . S
C362 H366 0.950 . S
C362 C371 1.390 . S
C363 C362 1.387 . S
C363 C365 1.387 . S
H364 C371 0.950 . S
C365 C363 1.387 . S
C365 C367 1.390 . S
C365 H369 0.950 . S
H366 C362 0.950 . S
C367 C365 1.390 . S
C367 C368 1.387 . S
C367 H370 0.950 . S
C368 C367 1.387 . S
C368 C371 1.387 . S
H369 C365 0.950 . S
H370 C367 0.950 . S
C371 C362 1.390 . S
C371 H364 0.950 . S
C371 C368 1.387 . S
C372 C373 1.387 . S
C372 H376 0.950 . S
C372 C381 1.390 . S
C373 C372 1.387 . S
C373 C375 1.387 . S
H374 C381 0.950 1_556 S
C375 C373 1.387 . S
C375 C377 1.390 . S
C375 H379 0.950 . S
H376 C372 0.950 . S
C377 C375 1.390 . S
C377 C378 1.387 . S
C377 H380 0.950 . S
C378 C377 1.387 . S
C378 C381 1.387 . S
H379 C375 0.950 . S
H380 C377 0.950 . S
C381 C372 1.390 . S
C381 H374 0.950 1_554 S
C381 C378 1.387 . S
C382 C383 1.387 . S
C382 H386 0.950 . S
C382 C391 1.390 . S
C383 C382 1.387 . S
C383 C385 1.387 . S
H384 C391 0.950 . S
C385 C383 1.387 . S
C385 C387 1.390 . S
C385 H389 0.950 . S
H386 C382 0.950 . S
C387 C385 1.390 . S
C387 C388 1.387 . S
C387 H390 0.950 . S
C388 C387 1.387 . S
C388 C391 1.387 . S
H389 C385 0.950 . S
H390 C387 0.950 . S
C391 C382 1.390 . S
C391 H384 0.950 . S
C391 C388 1.387 . S
C392 C393 1.387 . S
C392 H396 0.950 . S
C392 C401 1.390 . S
C393 C392 1.387 . S
C393 C395 1.387 . S
H394 C401 0.950 1_455 S
C395 C393 1.387 . S
C395 C397 1.390 . S
C395 H399 0.950 . S
H396 C392 0.950 . S
C397 C395 1.390 . S
C397 C398 1.387 . S
C397 H400 0.950 . S
C398 C397 1.387 . S
C398 C401 1.387 . S
H399 C395 0.950 . S
H400 C397 0.950 . S
C401 C392 1.390 . S
C401 H394 0.950 1_655 S
C401 C398 1.387 . S
C402 C403 1.387 . S
C402 H406 0.950 . S
C402 C411 1.390 . S
C403 C402 1.387 . S
C403 C405 1.387 . S
H404 C411 0.950 . S
C405 C403 1.387 . S
C405 C407 1.390 . S
C405 H409 0.950 . S
H406 C402 0.950 . S
C407 C405 1.390 . S
C407 C408 1.387 . S
C407 H410 0.950 . S
C408 C407 1.387 . S
C408 C411 1.387 . S
H409 C405 0.950 . S
H410 C407 0.950 . S
C411 C402 1.390 . S
C411 H404 0.950 . S
C411 C408 1.387 . S
C412 C413 1.387 . S
C412 H416 0.950 1_455 S
C412 C421 1.390 1_455 S
C413 C412 1.387 . S
C413 C415 1.387 . S
H414 C421 0.950 . S
C415 C413 1.387 . S
C415 C417 1.390 . S
C415 H419 0.950 . S
H416 C412 0.950 1_655 S
C417 C415 1.390 . S
C417 C418 1.387 . S
C417 H420 0.950 . S
C418 C417 1.387 . S
C418 C421 1.387 1_455 S
H419 C415 0.950 . S
H420 C417 0.950 . S
C421 C412 1.390 1_655 S
C421 H414 0.950 . S
C421 C418 1.387 1_655 S
C422 C423 1.387 . S
C422 H426 0.950 . S
C422 C431 1.390 . S
C423 C422 1.387 . S
C423 C425 1.387 . S
H424 C431 0.950 . S
C425 C423 1.387 . S
C425 C427 1.390 . S
C425 H429 0.950 . S
H426 C422 0.950 . S
C427 C425 1.390 . S
C427 C428 1.387 . S
C427 H430 0.950 . S
C428 C427 1.387 . S
C428 C431 1.387 . S
H429 C425 0.950 . S
H430 C427 0.950 . S
C431 C422 1.390 . S
C431 H424 0.950 . S
C431 C428 1.387 . S
C193 C5 2.084 . S
C198 C88 2.097 . S
C203 C14 1.140 . S
C208 N108 1.117 . S
C218 C142 1.977 . S
C213 C25 1.975 . S
C223 C34 1.270 . S
C228 N176 1.199 . S
C238 C129 2.223 . S
C233 C7 2.212 . S
C248 N86 1.125 . S
C243 C13 1.165 . S
C258 C163 2.037 . S
C253 C23 2.030 . S
C268 N138 1.031 . S
C263 C31 1.027 . S
C273 C4 1.751 . S
C278 C178 1.764 . S
C288 C112 1.698 . S
C283 C22 1.683 . S
C293 C32 1.348 . S
C298 C73 1.370 . S
C303 C16 1.343 . S
C308 C159 1.358 . S
C318 C99 2.087 . S
C313 C41 2.071 . S
C323 C50 1.144 . S
C328 N116 1.121 . S
C333 C61 1.966 . S
C338 C133 1.973 . S
C343 C67 1.271 . S
C348 N168 1.201 . S
C353 C40 2.225 . S
C358 C118 2.236 . S
C368 N78 1.114 . S
C363 C52 1.149 . S
C378 C172 2.039 . S
C373 C59 2.027 . S
C388 N146 1.028 . S
C383 C70 1.023 . S
C393 C43 1.746 . S
C398 C189 1.762 . S
C408 C103 1.703 . S
C403 C58 1.685 . S
C418 C82 1.362 . S
C413 C68 1.338 . S
C423 C49 1.351 . S
C428 C148 1.367 . S
