# Generated by pormake.
# Topology pth, (4,4)-cn, num edge types: 1
# Building blocks:
#     Node 0, Type 0, BuildingBlock: NAHDIM_clean_sbu_0, # of connection points: 4
#     Node 1, Type 0, BuildingBlock: NAHDIM_clean_sbu_0, # of connection points: 4
#     Node 2, Type 0, BuildingBlock: NAHDIM_clean_sbu_0, # of connection points: 4
#     Node 3, Type 1, BuildingBlock: MIFKUJ_clean_linker_1, # of connection points: 4
#     Node 4, Type 1, BuildingBlock: MIFKUJ_clean_linker_1, # of connection points: 4
#     Node 5, Type 1, BuildingBlock: MIFKUJ_clean_linker_1, # of connection points: 4
#     Edge 6, Type (0, 1), BuildingBlock: TEMPAE_clean_linker_10, # of connection points: 2
#     Edge 7, Type (0, 1), BuildingBlock: TEMPAE_clean_linker_10, # of connection points: 2
#     Edge 8, Type (0, 1), BuildingBlock: TEMPAE_clean_linker_10, # of connection points: 2
#     Edge 9, Type (0, 1), BuildingBlock: TEMPAE_clean_linker_10, # of connection points: 2
#     Edge 10, Type (0, 1), BuildingBlock: TEMPAE_clean_linker_10, # of connection points: 2
#     Edge 11, Type (0, 1), BuildingBlock: TEMPAE_clean_linker_10, # of connection points: 2
#     Edge 12, Type (0, 1), BuildingBlock: TEMPAE_clean_linker_10, # of connection points: 2
#     Edge 13, Type (0, 1), BuildingBlock: TEMPAE_clean_linker_10, # of connection points: 2
#     Edge 14, Type (0, 1), BuildingBlock: TEMPAE_clean_linker_10, # of connection points: 2
#     Edge 15, Type (0, 1), BuildingBlock: TEMPAE_clean_linker_10, # of connection points: 2
#     Edge 16, Type (0, 1), BuildingBlock: TEMPAE_clean_linker_10, # of connection points: 2
#     Edge 17, Type (0, 1), BuildingBlock: TEMPAE_clean_linker_10, # of connection points: 2
# Relax obj value: 0.043
# Max RMSD: 0.165
# Mean RMSD: 0.094
data_MOF--net-pth--node1-NAHDIM_clean_sbu_0--node2-MIFKUJ_clean_linker_1--edge1-TEMPAE_clean_linker_10
_symmetry_space_group_name_H-M    P1
_symmetry_Int_Tables_number       1
_symmetry_cell_setting            triclinic
loop_
_symmetry_equiv_pos_as_xyz
'x, y, z'
_cell_length_a     30.037797
_cell_length_b     30.190314
_cell_length_c     63.526541
_cell_angle_alpha  91.884497
_cell_angle_beta   89.992814
_cell_angle_gamma 120.59579
loop_
_atom_site_label
_atom_site_type_symbol
_atom_site_fract_x
_atom_site_fract_y
_atom_site_fract_z
_atom_type_partial_charge
C0 C -0.00514 0.94703 0.0592 0.0
O1 O 0.94858 0.93996 0.05557 0.0
O2 O 0.00833 0.07883 0.05912 0.0
Zn3 Zn 0.01852 0.03536 0.03743 0.0
O4 O 0.95451 0.99357 0.01933 0.0
C5 C 0.06671 0.11406 0.00929 0.0
O6 O 0.02175 0.1108 0.01193 0.0
O7 O 0.03407 0.9871 0.05248 0.0
C8 C 0.95873 0.9778 0.00107 0.0
O9 O 0.00493 0.99047 0.99431 0.0
C10 C 0.96514 0.07425 0.06385 0.0
O11 O 0.92267 0.03809 0.05431 0.0
O12 O 0.07629 0.08371 0.0191 0.0
C13 C 0.01704 0.11829 0.34094 0.0
O14 O 0.97267 0.07613 0.34406 0.0
O15 O 0.02843 0.00352 0.34537 0.0
Zn16 Zn 0.04603 0.06268 0.36588 0.0
O17 O 0.98921 0.04873 0.38632 0.0
C18 C 0.10363 0.04018 0.39342 0.0
O19 O 0.05869 -0.00284 0.39275 0.0
O20 O 0.05791 0.1231 0.34919 0.0
C21 C 0.95538 0.00645 0.39394 0.0
O22 O 0.95425 0.96357 0.38845 0.0
C23 C 0.98403 0.96858 0.3386 0.0
O24 O 0.94233 0.96792 0.34525 0.0
O25 O 0.10956 0.07723 0.38246 0.0
C26 C 0.07576 0.00131 0.66549 0.0
O27 O 0.06079 0.03351 0.66022 0.0
O28 O 0.96377 -0.00037 0.67954 0.0
Zn29 Zn 0.01222 0.99328 0.69933 0.0
O30 O 0.05567 0.0587 0.71636 0.0
C31 C 0.93489 0.94529 0.72842 0.0
O32 O 0.93279 0.98653 0.72423 0.0
O33 O 0.05925 0.97723 0.68242 0.0
C34 C 0.08587 0.058 0.73015 0.0
O35 O 0.0871 0.01546 0.73221 0.0
C36 C 0.96216 0.0405 0.67746 0.0
O37 O -0.00584 0.08227 0.68864 0.0
O38 O 0.9685 0.9381 0.71931 0.0
H39 H 0.05826 0.48857 0.1615 0.0
H40 H 0.04962 0.41439 0.14109 0.0
H41 H 0.91187 0.31361 0.17514 0.0
H42 H 0.9206 0.38788 0.19547 0.0
H43 H -0.00104 0.52786 0.16341 0.0
H44 H 0.06715 0.46511 0.21229 0.0
H45 H 0.07601 0.40464 0.234 0.0
H46 H 0.93842 0.37377 0.26745 0.0
H47 H 0.92959 0.43424 0.24559 0.0
H48 H 0.90736 0.56527 0.23126 0.0
H49 H 0.90275 0.63419 0.25102 0.0
H50 H 0.06508 0.73806 0.24065 0.0
H51 H 0.06929 0.6695 0.2203 0.0
H52 H 0.98796 0.53314 0.2413 0.0
H53 H 0.92878 0.60589 0.18796 0.0
H54 H 0.93621 0.67462 0.16622 0.0
H55 H 0.08011 0.6969 0.14178 0.0
H56 H 0.07309 0.62879 0.16389 0.0
C57 C 0.9903 0.44375 0.1801 0.0
C58 C 0.02623 0.4505 0.16457 0.0
C59 C 0.02116 0.40814 0.1529 0.0
C60 C 0.97998 0.35826 0.1565 0.0
C61 C 0.94433 0.35151 0.1722 0.0
C62 C 0.94931 0.39391 0.18382 0.0
C63 C -0.00565 0.48889 0.19187 0.0
C64 C -0.0027 0.52928 0.18047 0.0
C65 C -0.00736 0.49107 0.21412 0.0
C66 C -0.00268 0.45373 0.22714 0.0
C67 C 0.03853 0.44488 0.22413 0.0
C68 C 0.04361 0.41039 0.23656 0.0
C69 C 0.00789 0.38447 0.2524 0.0
C70 C 0.96687 0.39365 0.25551 0.0
C71 C 0.96168 0.42803 0.24301 0.0
C72 C 0.98861 0.61263 0.22436 0.0
C73 C 0.94181 0.603 0.23316 0.0
C74 C 0.93915 0.64216 0.24431 0.0
C75 C 0.98355 0.69095 0.24719 0.0
C76 C 0.03046 0.70054 0.2385 0.0
C77 C 0.03288 0.66164 0.22696 0.0
C78 C -0.00887 0.57093 0.21275 0.0
C79 C 0.98967 0.53143 0.22425 0.0
C80 C -0.00359 0.57069 0.19067 0.0
C81 C 0.00081 0.61276 0.17781 0.0
C82 C 0.96244 0.62622 0.17826 0.0
C83 C 0.96663 0.66537 0.16579 0.0
C84 C 0.00884 0.69115 0.1524 0.0
C85 C 0.04704 0.67742 0.15187 0.0
C86 C 0.04308 0.63862 0.1645 0.0
H87 H 0.63139 0.08915 0.49249 0.0
H88 H 0.69793 0.08494 0.47176 0.0
H89 H 0.66569 0.94683 0.50281 0.0
H90 H 0.59824 0.9502 0.52309 0.0
H91 H 0.53362 0.03082 0.49341 0.0
H92 H 0.66539 0.0912 0.54483 0.0
H93 H 0.73472 0.09695 0.567 0.0
H94 H 0.62612 0.95228 0.59413 0.0
H95 H 0.5568 0.94679 0.57192 0.0
H96 H 0.40886 0.9302 0.56227 0.0
H97 H 0.33667 0.92295 0.58293 0.0
H98 H 0.38219 0.07932 0.56881 0.0
H99 H 0.4546 0.08648 0.54839 0.0
H100 H 0.51638 0.00579 0.57043 0.0
H101 H 0.3926 0.94643 0.50719 0.0
H102 H 0.33029 0.95459 0.48501 0.0
H103 H 0.43498 0.11891 0.48397 0.0
H104 H 0.4976 0.11036 0.50574 0.0
C105 C 0.61011 0.02031 0.50952 0.0
C106 C 0.63853 0.05789 0.49482 0.0
C107 C 0.67648 0.05548 0.483 0.0
C108 C 0.68687 0.01561 0.48576 0.0
C109 C 0.65881 0.9783 0.50059 0.0
C110 C 0.62043 0.98035 0.51222 0.0
C111 C 0.56826 0.02156 0.52144 0.0
C112 C 0.5305 0.02607 0.51031 0.0
C113 C 0.5639 0.01572 0.5435 0.0
C114 C 0.60603 0.01833 0.5566 0.0
C115 C 0.65663 0.06043 0.55538 0.0
C116 C 0.6962 0.06367 0.56805 0.0
C117 C 0.68583 0.02505 0.58228 0.0
C118 C 0.63513 0.98292 0.58348 0.0
C119 C 0.59555 0.97966 0.57078 0.0
C120 C 0.43668 0.00872 0.55372 0.0
C121 C 0.40299 0.96274 0.56354 0.0
C122 C 0.36173 0.95858 0.57523 0.0
C123 C 0.35396 0.0006 0.57748 0.0
C124 C 0.38758 0.04649 0.56746 0.0
C125 C 0.4286 0.05049 0.55566 0.0
C126 C 0.4817 0.01367 0.54226 0.0
C127 C 0.51999 0.01053 0.55354 0.0
C128 C 0.48774 0.02283 0.52054 0.0
C129 C 0.44938 0.02782 0.50801 0.0
C130 C 0.40194 0.98412 0.50218 0.0
C131 C 0.36666 0.9888 0.48951 0.0
C132 C 0.37813 0.03736 0.48284 0.0
C133 C 0.42533 0.08116 0.48902 0.0
C134 C 0.46099 0.07632 0.50135 0.0
H135 H 0.46173 0.43385 0.83091 0.0
H136 H 0.39637 0.36079 0.80958 0.0
H137 H 0.27901 0.3914 0.83281 0.0
H138 H 0.34478 0.4644 0.85435 0.0
H139 H 0.49387 0.53302 0.82944 0.0
H140 H 0.41901 0.40401 0.87973 0.0
H141 H 0.35324 0.33657 0.90103 0.0
H142 H 0.31338 0.44525 0.92755 0.0
H143 H 0.37929 0.51269 0.90612 0.0
H144 H 0.52481 0.65937 0.90391 0.0
H145 H 0.59583 0.72906 0.92503 0.0
H146 H 0.69732 0.67457 0.90449 0.0
H147 H 0.62624 0.60489 0.88362 0.0
H148 H 0.48218 0.55188 0.90678 0.0
H149 H 0.57428 0.68437 0.85687 0.0
H150 H 0.64871 0.74562 0.83678 0.0
H151 H 0.66373 0.62051 0.81016 0.0
H152 H 0.59034 0.55949 0.83072 0.0
C153 C 0.40809 0.45445 0.84424 0.0
C154 C 0.42194 0.42491 0.83136 0.0
C155 C 0.38458 0.3833 0.81913 0.0
C156 C 0.33259 0.37054 0.81941 0.0
C157 C 0.31868 0.4 0.83242 0.0
C158 C 0.35617 0.44171 0.8447 0.0
C159 C 0.44843 0.49914 0.85682 0.0
C160 C 0.49154 0.53694 0.84638 0.0
C161 C 0.44498 0.5045 0.87887 0.0
C162 C 0.40356 0.4632 0.89113 0.0
C163 C 0.39554 0.41313 0.88987 0.0
C164 C 0.358 0.37464 0.90206 0.0
C165 C 0.32814 0.38564 0.91593 0.0
C166 C 0.33618 0.4358 0.91715 0.0
C167 C 0.37363 0.47426 0.90488 0.0
C168 C 0.57051 0.62735 0.89214 0.0
C169 C 0.56239 0.66252 0.90402 0.0
C170 C 0.60294 0.70238 0.91593 0.0
C171 C 0.65197 0.70712 0.91636 0.0
C172 C 0.65979 0.67153 0.90457 0.0
C173 C 0.6194 0.63198 0.89256 0.0
C174 C 0.5278 0.58538 0.87939 0.0
C175 C 0.48417 0.54821 0.8898 0.0
C176 C 0.53161 0.57971 0.85739 0.0
C177 C 0.57697 0.61733 0.84547 0.0
C178 C 0.5941 0.67018 0.84701 0.0
C179 C 0.63653 0.70511 0.83552 0.0
C180 C 0.66185 0.68765 0.82199 0.0
C181 C 0.64461 0.63483 0.8204 0.0
C182 C 0.60269 0.60003 0.8321 0.0
C183 C 0.91749 0.11108 0.08289 0.0
C184 C 0.9637 0.11149 0.07915 0.0
C185 C 0.91678 0.14855 0.09636 0.0
C186 C 0.96336 0.18712 0.10628 0.0
C187 C 0.00977 0.18676 0.10306 0.0
C188 C 0.00938 0.14899 0.08954 0.0
C189 C 0.86656 0.14776 0.09949 0.0
C190 C 0.0602 0.22719 0.11342 0.0
C191 C 0.98008 0.31702 0.12178 0.0
C192 C 0.97379 0.31356 0.14364 0.0
C193 C 0.97555 0.27563 0.10938 0.0
C194 C 0.9645 0.22968 0.1191 0.0
C195 C 0.95716 0.22555 0.14112 0.0
C196 C 0.96187 0.26761 0.15314 0.0
C197 C 0.98348 0.2814 0.08593 0.0
C198 C 0.94553 0.1772 0.15201 0.0
H199 H 0.88202 0.08216 0.07498 0.0
H200 H 0.04524 0.14943 0.08685 0.0
H201 H 0.85877 0.14832 0.11654 0.0
H202 H 0.86953 0.18278 0.09296 0.0
H203 H 0.83318 0.11336 0.09172 0.0
H204 H 0.09226 0.21983 0.11018 0.0
H205 H 0.07121 0.26567 0.10763 0.0
H206 H 0.05575 0.22868 0.13072 0.0
H207 H 0.98842 0.35218 0.11433 0.0
H208 H 0.95736 0.26495 0.17007 0.0
H209 H 0.94936 0.25 0.07724 0.0
H210 H 0.01746 0.27818 0.08146 0.0
H211 H 0.98982 0.31894 0.08073 0.0
H212 H 0.91128 0.14327 0.1445 0.0
H213 H 0.93811 0.17916 0.16905 0.0
H214 H 0.97864 0.17081 0.15034 0.0
C215 C 0.92409 0.05232 0.41746 0.0
C216 C 0.91687 0.00591 0.40857 0.0
C217 C 0.88727 0.05295 0.4308 0.0
C218 C 0.84184 0.00609 0.43516 0.0
C219 C 0.83457 0.95901 0.42648 0.0
C220 C 0.87239 0.95945 0.41336 0.0
C221 C 0.89664 0.10387 0.43998 0.0
C222 C 0.78632 0.90836 0.43066 0.0
C223 C 0.76382 0.00491 0.48237 0.0
C224 C 0.72613 0.01233 0.47285 0.0
C225 C 0.80162 0.0024 0.47027 0.0
C226 C 0.80112 0.00676 0.44816 0.0
C227 C 0.7626 0.01343 0.43847 0.0
C228 C 0.72573 0.01645 0.45097 0.0
C229 C 0.84255 -0.00402 0.48117 0.0
C230 C 0.76051 0.01766 0.41491 0.0
H231 H 0.95858 0.08836 0.41395 0.0
H232 H 0.86656 0.92348 0.40651 0.0
H233 H 0.86645 0.11141 0.43407 0.0
H234 H 0.89386 0.10256 0.45738 0.0
H235 H 0.93515 0.13654 0.43588 0.0
H236 H 0.7873 0.87503 0.42325 0.0
H237 H 0.78133 0.90292 0.44786 0.0
H238 H 0.75189 0.90855 0.42446 0.0
H239 H 0.76429 0.00207 0.49933 0.0
H240 H 0.69613 0.02151 0.4436 0.0
H241 H 0.88137 0.02968 0.47835 0.0
H242 H 0.8423 0.96139 0.47454 0.0
H243 H 0.83686 0.99214 0.49844 0.0
H244 H 0.79646 0.05202 0.40976 0.0
H245 H 0.7269 0.02081 0.40978 0.0
H246 H 0.75817 0.98347 0.40672 0.0
C247 C 0.85346 0.90957 0.74864 0.0
C248 C 0.89748 0.90747 0.74295 0.0
C249 C 0.81665 0.87348 0.76197 0.0
C250 C 0.82443 0.83479 0.77007 0.0
C251 C 0.86922 0.83293 0.76471 0.0
C252 C 0.90511 0.86913 0.75105 0.0
C253 C 0.769 0.87628 0.7671 0.0
C254 C 0.87905 0.79259 0.77332 0.0
C255 C 0.746 0.76965 0.81808 0.0
C256 C 0.70497 0.72422 0.80896 0.0
C257 C 0.78622 0.80529 0.8057 0.0
C258 C 0.78472 0.79551 0.78368 0.0
C259 C 0.74363 0.74936 0.77446 0.0
C260 C 0.70438 0.71408 0.78725 0.0
C261 C 0.82982 0.85377 0.8161 0.0
C262 C 0.74026 0.73798 0.75099 0.0
H263 H 0.84722 0.93898 0.74236 0.0
H264 H 0.93924 0.86757 0.74679 0.0
H265 H 0.73381 0.83997 0.76173 0.0
H266 H 0.76634 0.88052 0.78439 0.0
H267 H 0.76894 0.90894 0.75957 0.0
H268 H 0.91677 0.7977 0.76831 0.0
H269 H 0.87846 0.79409 0.79078 0.0
H270 H 0.84784 0.75367 0.7679 0.0
H271 H 0.74662 0.77718 0.83491 0.0
H272 H 0.67235 0.67914 0.78019 0.0
H273 H 0.82939 0.88785 0.81036 0.0
H274 H 0.86762 0.85808 0.81184 0.0
H275 H 0.82703 0.85393 0.83354 0.0
H276 H 0.73665 0.76767 0.74258 0.0
H277 H 0.70672 0.69952 0.74642 0.0
H278 H 0.77614 0.73963 0.74555 0.0
C279 C 0.04899 0.92242 0.08024 0.0
C280 C 0.00071 0.90981 0.07171 0.0
C281 C 0.05393 0.88828 0.0932 0.0
C282 C 0.00965 0.84032 0.09747 0.0
C283 C 0.96112 0.8269 0.08843 0.0
C284 C 0.9572 0.86192 0.07576 0.0
C285 C 0.10622 0.90397 0.10269 0.0
C286 C 0.91312 0.77582 0.09241 0.0
C287 C 0.02306 0.73033 0.11717 0.0
C288 C 0.01218 0.73126 0.13858 0.0
C289 C 0.0236 0.7664 0.10365 0.0
C290 C 0.01341 0.80448 0.11182 0.0
C291 C 0.00384 0.80647 0.13356 0.0
C292 C 0.00308 0.76962 0.14667 0.0
C293 C 0.03341 0.76275 0.08052 0.0
C294 C -0.00667 0.84684 0.14289 0.0
H295 H 0.08273 0.95946 0.07721 0.0
H296 H 0.91983 0.85177 0.06909 0.0
H297 H 0.1046 0.90604 0.12013 0.0
H298 H 0.1169 0.87465 0.09852 0.0
H299 H 0.13711 0.94193 0.09732 0.0
H300 H 0.87878 0.77044 0.08349 0.0
H301 H 0.91961 0.74376 0.08791 0.0
H302 H 0.90441 0.77306 0.10945 0.0
H303 H 0.02963 0.70038 0.11085 0.0
H304 H -0.00472 0.77074 0.16329 0.0
H305 H 0.06532 0.80027 0.07532 0.0
H306 H -0.00162 0.75357 0.07114 0.0
H307 H 0.04347 0.73268 0.07689 0.0
H308 H 0.02486 0.88585 0.13894 0.0
H309 H 0.98976 0.84503 0.16029 0.0
H310 H 0.95692 0.84155 0.136 0.0
C311 C 0.13462 0.01002 0.42292 0.0
C312 C 0.14604 0.04452 0.40675 0.0
C313 C 0.17398 0.01192 0.43542 0.0
C314 C 0.22616 0.04867 0.4314 0.0
C315 C 0.23804 0.08397 0.4152 0.0
C316 C 0.19769 0.08178 0.40316 0.0
C317 C 0.15971 0.97417 0.45277 0.0
C318 C 0.29333 0.12314 0.4103 0.0
C319 C 0.32392 0.076 0.47511 0.0
C320 C 0.3411 0.04218 0.46923 0.0
C321 C 0.28714 0.07934 0.46272 0.0
C322 C 0.26807 0.04881 0.44385 0.0
C323 C 0.28666 0.01581 0.43753 0.0
C324 C 0.32261 0.01249 0.45044 0.0
C325 C 0.26746 0.11417 0.47017 0.0
C326 C 0.26787 0.98331 0.41733 0.0
H327 H 0.0947 0.98143 0.42588 0.0
H328 H 0.20665 0.10837 0.3906 0.0
H329 H 0.17562 0.94866 0.44944 0.0
H330 H 0.17695 -0.00488 0.46801 0.0
H331 H 0.11718 0.94977 0.45452 0.0
H332 H 0.296 0.14859 0.39752 0.0
H333 H 0.31346 0.14739 0.42458 0.0
H334 H 0.31429 0.10311 0.40546 0.0
H335 H 0.33819 0.09875 0.48973 0.0
H336 H 0.33649 0.98679 0.44583 0.0
H337 H 0.22552 0.09074 0.47338 0.0
H338 H 0.27212 0.14103 0.45771 0.0
H339 H 0.2879 0.13703 0.48472 0.0
H340 H 0.22607 0.95443 0.41839 0.0
H341 H 0.28905 0.96268 0.41392 0.0
H342 H 0.27243 0.00777 0.40389 0.0
C343 C 0.15557 0.10434 0.75757 0.0
C344 C 0.11941 0.1043 0.7436 0.0
C345 C 0.18841 0.14816 0.77015 0.0
C346 C 0.18482 0.19294 0.7688 0.0
C347 C 0.1479 0.19297 0.75497 0.0
C348 C 0.11568 0.14864 0.74248 0.0
C349 C 0.22752 0.1468 0.78465 0.0
C350 C 0.14284 0.23999 0.75322 0.0
C351 C 0.24489 0.29159 0.8142 0.0
C352 C 0.29329 0.3266 0.8061 0.0
C353 C 0.20855 0.24848 0.80204 0.0
C354 C 0.22109 0.24024 0.78135 0.0
C355 C 0.26938 0.27609 0.77293 0.0
C356 C 0.30482 0.31891 0.78539 0.0
C357 C 0.15732 0.2111 0.8115 0.0
C358 C 0.2841 0.26863 0.75092 0.0
H359 H 0.15868 0.07024 0.75854 0.0
H360 H 0.08765 0.14882 0.73179 0.0
H361 H 0.26722 0.17615 0.78012 0.0
H362 H 0.22216 0.15649 0.80109 0.0
H363 H 0.22448 0.10853 0.78421 0.0
H364 H 0.11089 0.23311 0.74229 0.0
H365 H 0.13576 0.25205 0.76895 0.0
H366 H 0.1795 0.27252 0.74752 0.0
H367 H 0.23594 0.29712 0.83025 0.0
H368 H 0.3418 0.34637 0.77892 0.0
H369 H 0.15439 0.17321 0.81303 0.0
H370 H 0.125 0.20495 0.80099 0.0
H371 H 0.15228 0.22472 0.82729 0.0
H372 H 0.28522 0.23246 0.74972 0.0
H373 H 0.32245 0.30102 0.74648 0.0
H374 H 0.25462 0.26484 0.73933 0.0
C375 C 0.92013 0.08448 0.66084 0.0
C376 C 0.92362 0.04022 0.66289 0.0
C377 C 0.8827 0.08398 0.64745 0.0
C378 C 0.84804 0.03816 0.6359 0.0
C379 C 0.85177 0.99358 0.63771 0.0
C380 C 0.88951 -0.00484 0.65118 0.0
C381 C 0.87982 0.13226 0.64585 0.0
C382 C 0.81547 0.94401 0.62561 0.0
C383 C 0.71873 0.01776 0.6174 0.0
C384 C 0.72767 0.02906 0.59605 0.0
C385 C 0.75781 0.02119 0.63061 0.0
C386 C 0.80699 0.03628 0.62224 0.0
C387 C 0.81643 0.04812 0.60074 0.0
C388 C 0.7766 0.04435 0.58788 0.0
C389 C 0.74638 0.00833 0.65348 0.0
C390 C 0.86836 0.06414 0.59127 0.0
H391 H 0.94639 0.11945 0.66981 0.0
H392 H 0.89197 0.96079 0.65263 0.0
H393 H 0.88364 0.1435 0.6292 0.0
H394 H 0.84153 0.1249 0.65117 0.0
H395 H 0.91042 0.16506 0.65549 0.0
H396 H 0.82432 0.91314 0.62841 0.0
H397 H 0.775 0.93024 0.63026 0.0
H398 H 0.81775 0.95071 0.60848 0.0
H399 H 0.6812 0.00669 0.62384 0.0
H400 H 0.7835 0.05258 0.57133 0.0
H401 H 0.77402 0.04157 0.66375 0.0
H402 H 0.75153 0.97547 0.65706 0.0
H403 H 0.7064 -0.00186 0.6576 0.0
H404 H 0.89932 0.09833 0.60011 0.0
H405 H 0.86985 0.07348 0.57442 0.0
H406 H 0.87704 0.03272 0.59255 0.0
C407 C 0.86283 0.92068 -0.00306 0.0
C408 C 0.91215 0.94275 0.98817 0.0
C409 C 0.81875 0.88428 0.98536 0.0
C410 C 0.82417 0.87 0.9645 0.0
C411 C 0.8736 0.89352 0.95531 0.0
C412 C 0.91705 0.92948 0.9673 0.0
C413 C 0.76665 0.8598 0.99569 0.0
C414 C 0.88079 0.87961 0.93302 0.0
C415 C 0.72543 0.73761 0.94211 0.0
C416 C 0.69493 0.7488 0.92917 0.0
C417 C 0.76709 0.77667 0.95396 0.0
C418 C 0.77872 0.8282 0.95268 0.0
C419 C 0.74775 0.83971 0.9398 0.0
C420 C 0.70599 0.79974 0.92824 0.0
C421 C 0.79894 0.76283 0.96769 0.0
C422 C 0.75931 0.89428 0.93794 0.0
H423 H 0.85876 0.93076 0.01307 0.0
H424 H 0.955 0.94668 0.96037 0.0
H425 H 0.73846 0.8635 0.98574 0.0
H426 H 0.75156 0.81805 -0.00271 0.0
H427 H 0.76858 0.87734 0.01157 0.0
H428 H 0.92121 0.90393 0.92774 0.0
H429 H 0.87051 0.83871 0.9319 0.0
H430 H 0.85457 0.8838 0.92203 0.0
H431 H 0.71646 0.69812 0.94306 0.0
H432 H 0.68266 0.80847 0.91809 0.0
H433 H 0.79956 0.77627 0.98422 0.0
H434 H 0.83952 0.78253 0.96234 0.0
H435 H 0.78378 0.7207 0.9674 0.0
H436 H 0.75966 0.91122 0.95375 0.0
H437 H 0.73061 0.89654 0.9277 0.0
H438 H 0.79833 0.91831 0.93133 0.0
C439 C 0.93758 0.87789 0.32424 0.0
C440 C 0.9799 0.92817 0.32372 0.0
C441 C 0.93564 0.83831 0.31131 0.0
C442 C 0.97629 0.84987 0.29717 0.0
C443 C 0.01798 0.90111 0.29597 0.0
C444 C 0.01966 0.93953 0.30951 0.0
C445 C 0.89121 0.78389 0.31336 0.0
C446 C 0.06132 0.91518 0.28069 0.0
C447 C 0.00582 0.74647 0.27967 0.0
C448 C 0.98128 0.73131 0.25988 0.0
C449 C 0.00341 0.78425 0.29219 0.0
C450 C 0.97685 0.80808 0.28441 0.0
C451 C 0.95223 0.79296 0.2643 0.0
C452 C 0.95422 0.75412 0.25233 0.0
C453 C 0.0293 0.79866 0.31372 0.0
C454 C 0.92462 0.81836 0.2553 0.0
H455 H 0.90701 0.86912 0.33535 0.0
H456 H 0.05217 0.9786 0.30898 0.0
H457 H 0.87209 0.76759 0.2978 0.0
H458 H 0.90609 0.75928 0.31893 0.0
H459 H 0.8618 0.78166 0.32457 0.0
H460 H 0.08852 0.95742 0.28051 0.0
H461 H 0.08342 0.89641 0.28502 0.0
H462 H 0.04533 0.90095 0.26452 0.0
H463 H 0.02637 0.72824 0.28542 0.0
H464 H 0.93539 0.74208 0.23693 0.0
H465 H 0.00101 0.79444 0.32588 0.0
H466 H 0.06075 0.8396 0.31432 0.0
H467 H 0.04601 0.77455 0.31783 0.0
H468 H 0.89339 0.81382 0.26594 0.0
H469 H 0.90744 0.80205 0.23943 0.0
H470 H 0.95209 0.86029 0.25414 0.0
C471 C 0.13864 0.97094 0.65983 0.0
C472 C 0.11304 -0.00463 0.65227 0.0
C473 C 0.17662 0.96839 0.64785 0.0
C474 C 0.18879 0.99037 0.6278 0.0
C475 C 0.16188 0.01359 0.61983 0.0
C476 C 0.12451 0.01601 0.6322 0.0
C477 C 0.20478 0.94359 0.65689 0.0
C478 C 0.17343 0.037 0.59842 0.0
C479 C 0.32168 0.03688 0.60537 0.0
C480 C 0.31172 -0.00289 0.59067 0.0
C481 C 0.28219 0.03454 0.61789 0.0
C482 C 0.23144 0.99156 0.61552 0.0
C483 C 0.22122 0.951 0.60086 0.0
C484 C 0.26161 0.95417 0.58864 0.0
C485 C 0.29467 0.07834 0.6335 0.0
C486 C 0.16747 0.90483 0.59777 0.0
H487 H 0.12997 0.95497 0.67535 0.0
H488 H 0.10458 0.03458 0.62618 0.0
H489 H 0.20233 0.91335 0.64573 0.0
H490 H 0.24638 0.97285 0.65922 0.0
H491 H 0.18896 0.92602 0.67223 0.0
H492 H 0.14696 0.0509 0.59402 0.0
H493 H 0.21377 0.06994 0.59831 0.0
H494 H 0.17014 0.00833 0.58619 0.0
H495 H 0.36059 0.06973 0.60719 0.0
H496 H 0.25381 0.92354 0.57718 0.0
H497 H 0.28289 0.06342 0.64952 0.0
H498 H 0.27252 0.09713 0.62929 0.0
H499 H 0.33652 0.10793 0.63402 0.0
H500 H 0.15254 0.8863 0.61301 0.0
H501 H 0.16638 0.87572 0.58629 0.0
H502 H 0.14083 0.91733 0.59205 0.0
C503 C 0.15427 0.15833 0.99305 0.0
C504 C 0.10517 0.15265 0.99523 0.0
C505 C 0.19112 0.19554 0.97998 0.0
C506 C 0.17844 0.22761 0.96883 0.0
C507 C 0.12883 0.22173 0.97083 0.0
C508 C 0.09283 0.18437 0.98402 0.0
C509 C 0.24374 0.20083 0.97823 0.0
C510 C 0.11387 0.25516 0.95914 0.0
C511 C 0.2865 0.35623 0.9508 0.0
C512 C 0.28959 0.34515 0.92943 0.0
C513 C 0.25076 0.31819 0.96385 0.0
C514 C 0.21727 0.26791 0.95529 0.0
C515 C 0.22019 0.25645 0.93373 0.0
C516 C 0.25639 0.29523 0.92105 0.0
C517 C 0.24883 0.33179 0.98679 0.0
C518 C 0.18483 0.20334 0.92402 0.0
H519 H 0.16407 0.13395 0.00165 0.0
H520 H 0.05494 0.18017 0.98557 0.0
H521 H 0.25141 0.19546 0.96154 0.0
H522 H 0.27416 0.24017 0.9836 0.0
H523 H 0.24727 0.17248 0.98773 0.0
H524 H 0.07337 0.24503 0.96211 0.0
H525 H 0.14004 0.2962 0.96396 0.0
H526 H 0.11829 0.25134 0.94195 0.0
H527 H 0.3126 0.39458 0.95741 0.0
H528 H 0.25831 0.28666 0.90448 0.0
H529 H 0.25576 0.30653 -0.00311 0.0
H530 H 0.20983 0.32515 0.99046 0.0
H531 H 0.27794 0.37255 0.99103 0.0
H532 H 0.18951 0.17438 0.93251 0.0
H533 H 0.19257 0.20055 0.90707 0.0
H534 H 0.14391 0.19308 0.92559 0.0
C535 C 0.97312 0.15128 0.31839 0.0
C536 C 0.01869 0.15896 0.32801 0.0
C537 C 0.97337 0.18909 0.30612 0.0
C538 C 0.02032 0.23585 0.30342 0.0
C539 C 0.06653 0.24396 0.31304 0.0
C540 C 0.06519 0.20532 0.32523 0.0
C541 C 0.9233 0.17897 0.29606 0.0
C542 C 0.11726 0.29347 0.3105 0.0
C543 C 0.02454 0.31191 0.25635 0.0
C544 C 0.01331 0.34784 0.26561 0.0
C545 C 0.02825 0.27602 0.26856 0.0
C546 C 0.02061 0.27617 0.29054 0.0
C547 C 0.01032 0.31302 0.30004 0.0
C548 C 0.0067 0.34838 0.28744 0.0
C549 C 0.03898 0.23709 0.25786 0.0
C550 C 0.00216 0.31446 0.32346 0.0
H551 H 0.93701 0.11555 0.32042 0.0
H552 H 0.10053 0.21152 0.33262 0.0
H553 H 0.91422 0.20859 0.30173 0.0
H554 H 0.92728 0.18175 0.27871 0.0
H555 H 0.8902 0.14038 0.29958 0.0
H556 H 0.14974 0.29373 0.31898 0.0
H557 H 0.12668 0.29937 0.29357 0.0
H558 H 0.11402 0.3266 0.31654 0.0
H559 H 0.02918 0.31105 0.23944 0.0
H560 H -0.00121 0.37661 0.29469 0.0
H561 H 0.0053 0.19774 0.25955 0.0
H562 H 0.07278 0.23822 0.2655 0.0
H563 H 0.04671 0.2439 0.24082 0.0
H564 H 0.96733 0.27806 0.32788 0.0
H565 H -0.00293 0.34716 0.32852 0.0
H566 H 0.03557 0.31762 0.33229 0.0
loop_
_geom_bond_atom_site_label_1
_geom_bond_atom_site_label_2
_geom_bond_distance
_geom_bond_site_symmetry_2
_ccdc_geom_bond_type
C0 O1 1.160 . S
C0 O7 1.185 . S
O1 C0 1.160 . S
O2 Zn3 1.899 . S
O2 C10 1.284 1_455 S
Zn3 O2 1.899 . S
Zn3 O4 2.032 1_445 S
Zn3 O7 2.086 1_545 S
Zn3 O12 1.977 . S
O4 Zn3 2.032 1_665 S
O4 C8 1.278 . S
C5 O6 1.203 . S
C5 O12 1.267 . S
O6 C5 1.203 . S
O7 C0 1.185 . S
O7 Zn3 2.086 1_565 S
C8 O4 1.278 . S
C8 O9 1.216 1_565 S
O9 C8 1.216 1_545 S
C10 O2 1.284 1_655 S
C10 O11 1.273 . S
O11 C10 1.273 . S
O12 Zn3 1.977 . S
O12 C5 1.267 . S
C13 O14 1.160 . S
C13 O20 1.185 . S
O14 C13 1.160 . S
O15 Zn16 1.899 . S
O15 C23 1.284 1_545 S
Zn16 O15 1.899 . S
Zn16 O17 2.032 1_455 S
Zn16 O20 2.086 . S
Zn16 O25 1.977 . S
O17 Zn16 2.032 1_655 S
O17 C21 1.278 . S
C18 O19 1.203 . S
C18 O25 1.267 . S
O19 C18 1.203 . S
O20 C13 1.185 . S
O20 Zn16 2.086 . S
C21 O17 1.278 . S
C21 O22 1.211 . S
O22 C21 1.211 . S
C23 O15 1.284 1_565 S
C23 O24 1.273 1_455 S
O24 C23 1.273 1_655 S
O25 Zn16 1.977 . S
O25 C18 1.267 . S
C26 O27 1.160 . S
C26 O33 1.185 1_545 S
O27 C26 1.160 . S
O28 Zn29 1.899 1_655 S
O28 C36 1.284 . S
Zn29 O28 1.899 1_455 S
Zn29 O30 2.032 . S
Zn29 O33 2.086 1_545 S
Zn29 O38 1.977 1_445 S
O30 Zn29 2.032 . S
O30 C34 1.278 . S
C31 O32 1.203 . S
C31 O38 1.267 . S
O32 C31 1.203 . S
O33 C26 1.185 1_565 S
O33 Zn29 2.086 1_565 S
C34 O30 1.278 . S
C34 O35 1.211 . S
O35 C34 1.211 . S
C36 O28 1.284 . S
C36 O37 1.273 . S
O37 C36 1.273 . S
O38 Zn29 1.977 1_665 S
O38 C31 1.267 . S
H39 C58 0.949 . S
H40 C59 0.950 . S
H41 C61 0.950 . S
H42 C62 0.950 . S
H43 C64 0.950 . S
H44 C67 0.950 . S
H45 C68 0.950 . S
H46 C70 0.951 . S
H47 C71 0.949 . S
H48 C73 0.949 . S
H49 C74 0.950 . S
H50 C76 0.950 . S
H51 C77 0.950 . S
H52 C79 0.952 . S
H53 C82 0.950 . S
H54 C83 0.950 . S
H55 C85 0.951 . S
H56 C86 0.949 . S
C57 C58 1.376 . S
C57 C62 1.386 1_455 S
C57 C63 1.483 . S
C58 H39 0.949 . S
C58 C57 1.376 . S
C58 C59 1.397 . S
C59 H40 0.950 . S
C59 C58 1.397 . S
C59 C60 1.391 . S
C60 C59 1.391 . S
C60 C61 1.405 1_455 S
C61 H41 0.950 . S
C61 C60 1.405 1_655 S
C61 C62 1.367 . S
C62 H42 0.950 . S
C62 C57 1.386 1_655 S
C62 C61 1.367 . S
C63 C57 1.483 . S
C63 C64 1.382 . S
C63 C65 1.403 . S
C64 H43 0.950 . S
C64 C63 1.382 . S
C64 C80 1.411 . S
C65 C63 1.403 . S
C65 C66 1.489 . S
C65 C79 1.404 1_455 S
C66 C65 1.489 . S
C66 C67 1.383 . S
C66 C71 1.382 1_455 S
C67 H44 0.950 . S
C67 C66 1.383 . S
C67 C68 1.395 . S
C68 H45 0.950 . S
C68 C67 1.395 . S
C68 C69 1.288 . S
C69 C68 1.288 . S
C69 C70 1.392 1_455 S
C70 H46 0.951 . S
C70 C69 1.392 1_655 S
C70 C71 1.392 . S
C71 H47 0.949 . S
C71 C66 1.382 1_655 S
C71 C70 1.392 . S
C72 C73 1.376 1_455 S
C72 C77 1.386 . S
C72 C78 1.483 . S
C73 H48 0.949 . S
C73 C72 1.376 1_655 S
C73 C74 1.397 . S
C74 H49 0.950 . S
C74 C73 1.397 . S
C74 C75 1.391 1_655 S
C75 C74 1.391 1_455 S
C75 C76 1.405 . S
C76 H50 0.950 . S
C76 C75 1.405 . S
C76 C77 1.367 . S
C77 H51 0.950 . S
C77 C72 1.386 . S
C77 C76 1.367 . S
C78 C72 1.483 . S
C78 C79 1.386 1_455 S
C78 C80 1.403 . S
C79 H52 0.952 . S
C79 C65 1.404 1_655 S
C79 C78 1.386 1_655 S
C80 C64 1.411 . S
C80 C78 1.403 . S
C80 C81 1.489 . S
C81 C80 1.489 . S
C81 C82 1.383 1_455 S
C81 C86 1.382 . S
C82 H53 0.950 . S
C82 C81 1.383 1_655 S
C82 C83 1.395 . S
C83 H54 0.950 . S
C83 C82 1.395 . S
C83 C84 1.288 1_655 S
C84 C83 1.288 1_455 S
C84 C85 1.392 . S
C85 H55 0.951 . S
C85 C84 1.392 . S
C85 C86 1.392 . S
C86 H56 0.949 . S
C86 C81 1.382 . S
C86 C85 1.392 . S
H87 C106 0.949 . S
H88 C107 0.950 . S
H89 C109 0.950 . S
H90 C110 0.950 . S
H91 C112 0.950 . S
H92 C115 0.950 . S
H93 C116 0.950 . S
H94 C118 0.951 . S
H95 C119 0.949 . S
H96 C121 0.949 . S
H97 C122 0.950 . S
H98 C124 0.950 . S
H99 C125 0.950 . S
H100 C127 0.950 . S
H101 C130 0.950 . S
H102 C131 0.950 . S
H103 C133 0.951 . S
H104 C134 0.949 . S
C105 C106 1.376 . S
C105 C110 1.386 1_545 S
C105 C111 1.483 . S
C106 H87 0.949 . S
C106 C105 1.376 . S
C106 C107 1.397 . S
C107 H88 0.950 . S
C107 C106 1.397 . S
C107 C108 1.391 . S
C108 C107 1.391 . S
C108 C109 1.405 1_545 S
C109 H89 0.950 . S
C109 C108 1.405 1_565 S
C109 C110 1.367 . S
C110 H90 0.950 . S
C110 C105 1.386 1_565 S
C110 C109 1.367 . S
C111 C105 1.483 . S
C111 C112 1.382 . S
C111 C113 1.403 . S
C112 H91 0.950 . S
C112 C111 1.382 . S
C112 C128 1.411 . S
C113 C111 1.403 . S
C113 C114 1.489 . S
C113 C127 1.411 . S
C114 C113 1.489 . S
C114 C115 1.383 . S
C114 C119 1.382 1_545 S
C115 H92 0.950 . S
C115 C114 1.383 . S
C115 C116 1.395 . S
C116 H93 0.950 . S
C116 C115 1.395 . S
C116 C117 1.288 . S
C117 C116 1.288 . S
C117 C118 1.392 1_545 S
C118 H94 0.951 . S
C118 C117 1.392 1_565 S
C118 C119 1.392 . S
C119 H95 0.949 . S
C119 C114 1.382 1_565 S
C119 C118 1.392 . S
C120 C121 1.376 1_545 S
C120 C125 1.386 . S
C120 C126 1.483 . S
C121 H96 0.949 . S
C121 C120 1.376 1_565 S
C121 C122 1.397 . S
C122 H97 0.950 . S
C122 C121 1.397 . S
C122 C123 1.391 1_565 S
C123 C122 1.391 1_545 S
C123 C124 1.405 . S
C124 H98 0.950 . S
C124 C123 1.405 . S
C124 C125 1.367 . S
C125 H99 0.950 . S
C125 C120 1.386 . S
C125 C124 1.367 . S
C126 C120 1.483 . S
C126 C127 1.382 . S
C126 C128 1.403 . S
C127 H100 0.950 . S
C127 C113 1.411 . S
C127 C126 1.382 . S
C128 C112 1.411 . S
C128 C126 1.403 . S
C128 C129 1.489 . S
C129 C128 1.489 . S
C129 C130 1.383 1_545 S
C129 C134 1.382 . S
C130 H101 0.950 . S
C130 C129 1.383 1_565 S
C130 C131 1.395 . S
C131 H102 0.950 . S
C131 C130 1.395 . S
C131 C132 1.288 1_565 S
C132 C131 1.288 1_545 S
C132 C133 1.392 . S
C133 H103 0.951 . S
C133 C132 1.392 . S
C133 C134 1.392 . S
C134 H104 0.949 . S
C134 C129 1.382 . S
C134 C133 1.392 . S
H135 C154 0.949 . S
H136 C155 0.950 . S
H137 C157 0.950 . S
H138 C158 0.950 . S
H139 C160 0.950 . S
H140 C163 0.950 . S
H141 C164 0.950 . S
H142 C166 0.951 . S
H143 C167 0.949 . S
H144 C169 0.949 . S
H145 C170 0.950 . S
H146 C172 0.950 . S
H147 C173 0.950 . S
H148 C175 0.950 . S
H149 C178 0.950 . S
H150 C179 0.950 . S
H151 C181 0.951 . S
H152 C182 0.949 . S
C153 C154 1.376 . S
C153 C158 1.386 . S
C153 C159 1.483 . S
C154 H135 0.949 . S
C154 C153 1.376 . S
C154 C155 1.397 . S
C155 H136 0.950 . S
C155 C154 1.397 . S
C155 C156 1.391 . S
C156 C155 1.391 . S
C156 C157 1.405 . S
C157 H137 0.950 . S
C157 C156 1.405 . S
C157 C158 1.367 . S
C158 H138 0.950 . S
C158 C153 1.386 . S
C158 C157 1.367 . S
C159 C153 1.483 . S
C159 C160 1.382 . S
C159 C161 1.403 . S
C160 H139 0.950 . S
C160 C159 1.382 . S
C160 C176 1.411 . S
C161 C159 1.403 . S
C161 C162 1.489 . S
C161 C175 1.411 . S
C162 C161 1.489 . S
C162 C163 1.383 . S
C162 C167 1.382 . S
C163 H140 0.950 . S
C163 C162 1.383 . S
C163 C164 1.395 . S
C164 H141 0.950 . S
C164 C163 1.395 . S
C164 C165 1.288 . S
C165 C164 1.288 . S
C165 C166 1.392 . S
C166 H142 0.951 . S
C166 C165 1.392 . S
C166 C167 1.392 . S
C167 H143 0.949 . S
C167 C162 1.382 . S
C167 C166 1.392 . S
C168 C169 1.376 . S
C168 C173 1.386 . S
C168 C174 1.483 . S
C169 H144 0.949 . S
C169 C168 1.376 . S
C169 C170 1.397 . S
C170 H145 0.950 . S
C170 C169 1.397 . S
C170 C171 1.391 . S
C171 C170 1.391 . S
C171 C172 1.405 . S
C172 H146 0.950 . S
C172 C171 1.405 . S
C172 C173 1.367 . S
C173 H147 0.950 . S
C173 C168 1.386 . S
C173 C172 1.367 . S
C174 C168 1.483 . S
C174 C175 1.382 . S
C174 C176 1.403 . S
C175 H148 0.950 . S
C175 C161 1.411 . S
C175 C174 1.382 . S
C176 C160 1.411 . S
C176 C174 1.403 . S
C176 C177 1.489 . S
C177 C176 1.489 . S
C177 C178 1.383 . S
C177 C182 1.382 . S
C178 H149 0.950 . S
C178 C177 1.383 . S
C178 C179 1.395 . S
C179 H150 0.950 . S
C179 C178 1.395 . S
C179 C180 1.288 . S
C180 C179 1.288 . S
C180 C181 1.392 . S
C181 H151 0.951 . S
C181 C180 1.392 . S
C181 C182 1.392 . S
C182 H152 0.949 . S
C182 C177 1.382 . S
C182 C181 1.392 . S
C183 C184 1.409 . S
C183 C185 1.394 . S
C183 H199 0.931 . S
C184 C183 1.409 . S
C184 C188 1.365 1_655 S
C185 C183 1.394 . S
C185 C186 1.369 1_655 S
C185 C189 1.531 . S
C186 C185 1.369 1_455 S
C186 C187 1.410 . S
C186 C194 1.503 . S
C187 C186 1.410 . S
C187 C188 1.392 . S
C187 C190 1.511 . S
C188 C184 1.365 1_455 S
C188 C187 1.392 . S
C188 H200 0.929 . S
C189 C185 1.531 . S
C189 H201 0.960 . S
C189 H202 0.962 . S
C189 H203 0.960 . S
C190 C187 1.511 . S
C190 H204 0.961 . S
C190 H205 0.961 . S
C190 H206 0.961 . S
C191 C192 1.370 1_655 S
C191 C193 1.363 . S
C191 H207 0.931 . S
C192 C191 1.370 1_455 S
C192 C196 1.408 . S
C193 C191 1.363 . S
C193 C194 1.370 1_655 S
C193 C197 1.524 . S
C194 C186 1.503 . S
C194 C193 1.370 1_455 S
C194 C195 1.403 . S
C195 C194 1.403 . S
C195 C196 1.404 . S
C195 C198 1.539 . S
C196 C192 1.408 . S
C196 C195 1.404 . S
C196 H208 0.930 . S
C197 C193 1.524 . S
C197 H209 0.956 . S
C197 H210 0.961 1_655 S
C197 H211 0.961 . S
C198 C195 1.539 . S
C198 H212 0.958 1_455 S
C198 H213 0.961 . S
C198 H214 0.960 . S
H199 C183 0.931 . S
H200 C188 0.929 . S
H201 C189 0.960 . S
H202 C189 0.962 . S
H203 C189 0.960 . S
H204 C190 0.961 . S
H205 C190 0.961 . S
H206 C190 0.961 . S
H207 C191 0.931 . S
H208 C196 0.930 . S
H209 C197 0.956 . S
H210 C197 0.961 1_455 S
H211 C197 0.961 . S
H212 C198 0.958 1_655 S
H213 C198 0.961 . S
H214 C198 0.960 . S
C215 C216 1.391 . S
C215 C217 1.394 . S
C215 H231 0.931 . S
C216 C215 1.391 . S
C216 C220 1.376 1_545 S
C217 C215 1.394 . S
C217 C218 1.369 . S
C217 C221 1.531 . S
C218 C217 1.369 . S
C218 C219 1.410 1_545 S
C218 C226 1.503 . S
C219 C218 1.410 1_565 S
C219 C220 1.392 . S
C219 C222 1.511 . S
C220 C216 1.376 1_565 S
C220 C219 1.392 . S
C220 H232 0.929 . S
C221 C217 1.531 . S
C221 H233 0.960 . S
C221 H234 0.962 . S
C221 H235 0.960 . S
C222 C219 1.511 . S
C222 H236 0.961 . S
C222 H237 0.961 . S
C222 H238 0.961 . S
C223 C224 1.370 . S
C223 C225 1.363 . S
C223 H239 0.931 1_545 S
C224 C223 1.370 . S
C224 C228 1.408 . S
C225 C223 1.363 . S
C225 C226 1.370 . S
C225 C229 1.524 1_545 S
C226 C218 1.503 . S
C226 C225 1.370 . S
C226 C227 1.403 . S
C227 C226 1.403 . S
C227 C228 1.404 . S
C227 C230 1.539 . S
C228 C224 1.408 . S
C228 C227 1.404 . S
C228 H240 0.930 . S
C229 C225 1.524 1_565 S
C229 H241 0.956 1_565 S
C229 H242 0.961 . S
C229 H243 0.961 . S
C230 C227 1.539 . S
C230 H244 0.958 . S
C230 H245 0.961 . S
C230 H246 0.960 . S
H231 C215 0.931 . S
H232 C220 0.929 . S
H233 C221 0.960 . S
H234 C221 0.962 . S
H235 C221 0.960 . S
H236 C222 0.961 . S
H237 C222 0.961 . S
H238 C222 0.961 . S
H239 C223 0.931 1_565 S
H240 C228 0.930 . S
H241 C229 0.956 1_545 S
H242 C229 0.961 . S
H243 C229 0.961 . S
H244 C230 0.958 . S
H245 C230 0.961 . S
H246 C230 0.960 . S
C247 C248 1.391 . S
C247 C249 1.394 . S
C247 H263 0.931 . S
C248 C247 1.391 . S
C248 C252 1.376 . S
C249 C247 1.394 . S
C249 C250 1.369 . S
C249 C253 1.531 . S
C250 C249 1.369 . S
C250 C251 1.410 . S
C250 C258 1.503 . S
C251 C250 1.410 . S
C251 C252 1.392 . S
C251 C254 1.511 . S
C252 C248 1.376 . S
C252 C251 1.392 . S
C252 H264 0.929 . S
C253 C249 1.531 . S
C253 H265 0.960 . S
C253 H266 0.962 . S
C253 H267 0.960 . S
C254 C251 1.511 . S
C254 H268 0.961 . S
C254 H269 0.961 . S
C254 H270 0.961 . S
C255 C256 1.370 . S
C255 C257 1.363 . S
C255 H271 0.931 . S
C256 C255 1.370 . S
C256 C260 1.408 . S
C257 C255 1.363 . S
C257 C258 1.370 . S
C257 C261 1.524 . S
C258 C250 1.503 . S
C258 C257 1.370 . S
C258 C259 1.403 . S
C259 C258 1.403 . S
C259 C260 1.404 . S
C259 C262 1.539 . S
C260 C256 1.408 . S
C260 C259 1.404 . S
C260 H272 0.930 . S
C261 C257 1.524 . S
C261 H273 0.956 . S
C261 H274 0.961 . S
C261 H275 0.961 . S
C262 C259 1.539 . S
C262 H276 0.958 . S
C262 H277 0.961 . S
C262 H278 0.960 . S
H263 C247 0.931 . S
H264 C252 0.929 . S
H265 C253 0.960 . S
H266 C253 0.962 . S
H267 C253 0.960 . S
H268 C254 0.961 . S
H269 C254 0.961 . S
H270 C254 0.961 . S
H271 C255 0.931 . S
H272 C260 0.930 . S
H273 C261 0.956 . S
H274 C261 0.961 . S
H275 C261 0.961 . S
H276 C262 0.958 . S
H277 C262 0.961 . S
H278 C262 0.960 . S
C279 C280 1.391 . S
C279 C281 1.394 . S
C279 H295 0.931 . S
C280 C279 1.391 . S
C280 C284 1.376 1_455 S
C281 C279 1.394 . S
C281 C282 1.369 . S
C281 C285 1.531 . S
C282 C281 1.369 . S
C282 C283 1.410 1_455 S
C282 C290 1.503 . S
C283 C282 1.410 1_655 S
C283 C284 1.392 . S
C283 C286 1.511 . S
C284 C280 1.376 1_655 S
C284 C283 1.392 . S
C284 H296 0.929 . S
C285 C281 1.531 . S
C285 H297 0.960 . S
C285 H298 0.962 . S
C285 H299 0.960 . S
C286 C283 1.511 . S
C286 H300 0.961 . S
C286 H301 0.961 . S
C286 H302 0.961 . S
C287 C288 1.370 . S
C287 C289 1.363 . S
C287 H303 0.931 . S
C288 C287 1.370 . S
C288 C292 1.405 1_455 S
C289 C287 1.363 . S
C289 C290 1.370 . S
C289 C293 1.524 . S
C290 C282 1.503 . S
C290 C289 1.370 . S
C290 C291 1.403 . S
C291 C290 1.403 . S
C291 C292 1.406 1_455 S
C291 C294 1.539 1_455 S
C292 C288 1.405 1_655 S
C292 C291 1.406 1_655 S
C292 H304 0.931 . S
C293 C289 1.524 . S
C293 H305 0.956 . S
C293 H306 0.961 . S
C293 H307 0.961 . S
C294 C291 1.539 1_655 S
C294 H308 0.958 1_655 S
C294 H309 0.961 . S
C294 H310 0.960 . S
H295 C279 0.931 . S
H296 C284 0.929 . S
H297 C285 0.960 . S
H298 C285 0.962 . S
H299 C285 0.960 . S
H300 C286 0.961 . S
H301 C286 0.961 . S
H302 C286 0.961 . S
H303 C287 0.931 . S
H304 C292 0.931 . S
H305 C293 0.956 . S
H306 C293 0.961 . S
H307 C293 0.961 . S
H308 C294 0.958 1_455 S
H309 C294 0.961 . S
H310 C294 0.960 . S
C311 C312 1.391 . S
C311 C313 1.394 . S
C311 H327 0.931 . S
C312 C311 1.391 . S
C312 C316 1.376 . S
C313 C311 1.394 . S
C313 C314 1.369 . S
C313 C317 1.531 . S
C314 C313 1.369 . S
C314 C315 1.410 . S
C314 C322 1.503 . S
C315 C314 1.410 . S
C315 C316 1.392 . S
C315 C318 1.511 . S
C316 C312 1.376 . S
C316 C315 1.392 . S
C316 H328 0.929 . S
C317 C313 1.531 . S
C317 H329 0.960 1_545 S
C317 H330 0.962 . S
C317 H331 0.960 . S
C318 C315 1.511 . S
C318 H332 0.961 . S
C318 H333 0.961 . S
C318 H334 0.961 . S
C319 C320 1.370 . S
C319 C321 1.363 . S
C319 H335 0.931 . S
C320 C319 1.370 . S
C320 C324 1.408 1_545 S
C321 C319 1.363 . S
C321 C322 1.370 . S
C321 C325 1.524 . S
C322 C314 1.503 . S
C322 C321 1.370 . S
C322 C323 1.403 1_545 S
C323 C322 1.403 1_565 S
C323 C324 1.404 . S
C323 C326 1.539 . S
C324 C320 1.408 1_565 S
C324 C323 1.404 . S
C324 H336 0.930 . S
C325 C321 1.524 . S
C325 H337 0.956 . S
C325 H338 0.961 . S
C325 H339 0.961 . S
C326 C323 1.539 . S
C326 H340 0.958 . S
C326 H341 0.961 . S
C326 H342 0.960 . S
H327 C311 0.931 . S
H328 C316 0.929 . S
H329 C317 0.960 1_565 S
H330 C317 0.962 . S
H331 C317 0.960 . S
H332 C318 0.961 . S
H333 C318 0.961 . S
H334 C318 0.961 . S
H335 C319 0.931 . S
H336 C324 0.930 . S
H337 C325 0.956 . S
H338 C325 0.961 . S
H339 C325 0.961 . S
H340 C326 0.958 . S
H341 C326 0.961 . S
H342 C326 0.960 . S
C343 C344 1.391 . S
C343 C345 1.394 . S
C343 H359 0.931 . S
C344 C343 1.391 . S
C344 C348 1.376 . S
C345 C343 1.394 . S
C345 C346 1.369 . S
C345 C349 1.531 . S
C346 C345 1.369 . S
C346 C347 1.410 . S
C346 C354 1.503 . S
C347 C346 1.410 . S
C347 C348 1.392 . S
C347 C350 1.511 . S
C348 C344 1.376 . S
C348 C347 1.392 . S
C348 H360 0.929 . S
C349 C345 1.531 . S
C349 H361 0.960 . S
C349 H362 0.962 . S
C349 H363 0.960 . S
C350 C347 1.511 . S
C350 H364 0.961 . S
C350 H365 0.961 . S
C350 H366 0.961 . S
C351 C352 1.370 . S
C351 C353 1.363 . S
C351 H367 0.931 . S
C352 C351 1.370 . S
C352 C356 1.408 . S
C353 C351 1.363 . S
C353 C354 1.370 . S
C353 C357 1.524 . S
C354 C346 1.503 . S
C354 C353 1.370 . S
C354 C355 1.403 . S
C355 C354 1.403 . S
C355 C356 1.404 . S
C355 C358 1.539 . S
C356 C352 1.408 . S
C356 C355 1.404 . S
C356 H368 0.930 . S
C357 C353 1.524 . S
C357 H369 0.956 . S
C357 H370 0.961 . S
C357 H371 0.961 . S
C358 C355 1.539 . S
C358 H372 0.958 . S
C358 H373 0.961 . S
C358 H374 0.960 . S
H359 C343 0.931 . S
H360 C348 0.929 . S
H361 C349 0.960 . S
H362 C349 0.962 . S
H363 C349 0.960 . S
H364 C350 0.961 . S
H365 C350 0.961 . S
H366 C350 0.961 . S
H367 C351 0.931 . S
H368 C356 0.930 . S
H369 C357 0.956 . S
H370 C357 0.961 . S
H371 C357 0.961 . S
H372 C358 0.958 . S
H373 C358 0.961 . S
H374 C358 0.960 . S
C375 C376 1.391 . S
C375 C377 1.394 . S
C375 H391 0.931 . S
C376 C375 1.391 . S
C376 C380 1.376 1_545 S
C377 C375 1.394 . S
C377 C378 1.369 . S
C377 C381 1.531 . S
C378 C377 1.369 . S
C378 C379 1.410 1_545 S
C378 C386 1.503 . S
C379 C378 1.410 1_565 S
C379 C380 1.392 . S
C379 C382 1.511 . S
C380 C376 1.376 1_565 S
C380 C379 1.392 . S
C380 H392 0.929 . S
C381 C377 1.531 . S
C381 H393 0.960 . S
C381 H394 0.962 . S
C381 H395 0.960 . S
C382 C379 1.511 . S
C382 H396 0.961 . S
C382 H397 0.961 . S
C382 H398 0.961 . S
C383 C384 1.370 . S
C383 C385 1.363 . S
C383 H399 0.931 1_545 S
C384 C383 1.370 . S
C384 C388 1.408 . S
C385 C383 1.363 . S
C385 C386 1.370 . S
C385 C389 1.524 1_545 S
C386 C378 1.503 . S
C386 C385 1.370 . S
C386 C387 1.403 . S
C387 C386 1.403 . S
C387 C388 1.404 . S
C387 C390 1.539 . S
C388 C384 1.408 . S
C388 C387 1.404 . S
C388 H400 0.930 . S
C389 C385 1.524 1_565 S
C389 H401 0.956 1_565 S
C389 H402 0.961 . S
C389 H403 0.961 . S
C390 C387 1.539 . S
C390 H404 0.958 . S
C390 H405 0.961 . S
C390 H406 0.960 . S
H391 C375 0.931 . S
H392 C380 0.929 . S
H393 C381 0.960 . S
H394 C381 0.962 . S
H395 C381 0.960 . S
H396 C382 0.961 . S
H397 C382 0.961 . S
H398 C382 0.961 . S
H399 C383 0.931 1_565 S
H400 C388 0.930 . S
H401 C389 0.956 1_545 S
H402 C389 0.961 . S
H403 C389 0.961 . S
H404 C390 0.958 . S
H405 C390 0.961 . S
H406 C390 0.960 . S
C407 C408 1.391 . S
C407 C409 1.394 1_554 S
C407 H423 0.931 . S
C408 C407 1.391 . S
C408 C412 1.376 1_554 S
C409 C407 1.394 1_556 S
C409 C410 1.369 . S
C409 C413 1.531 1_556 S
C410 C409 1.369 . S
C410 C411 1.410 . S
C410 C418 1.503 . S
C411 C410 1.410 . S
C411 C412 1.392 . S
C411 C414 1.511 . S
C412 C408 1.376 1_556 S
C412 C411 1.392 . S
C412 H424 0.929 . S
C413 C409 1.531 1_554 S
C413 H425 0.960 1_554 S
C413 H426 0.962 . S
C413 H427 0.960 . S
C414 C411 1.511 . S
C414 H428 0.961 . S
C414 H429 0.961 . S
C414 H430 0.961 . S
C415 C416 1.370 . S
C415 C417 1.363 . S
C415 H431 0.931 . S
C416 C415 1.370 . S
C416 C420 1.408 . S
C417 C415 1.363 . S
C417 C418 1.370 . S
C417 C421 1.524 . S
C418 C410 1.503 . S
C418 C417 1.370 . S
C418 C419 1.403 . S
C419 C418 1.403 . S
C419 C420 1.404 . S
C419 C422 1.539 . S
C420 C416 1.408 . S
C420 C419 1.404 . S
C420 H432 0.930 . S
C421 C417 1.524 . S
C421 H433 0.956 . S
C421 H434 0.961 . S
C421 H435 0.961 . S
C422 C419 1.539 . S
C422 H436 0.958 . S
C422 H437 0.961 . S
C422 H438 0.960 . S
H423 C407 0.931 . S
H424 C412 0.929 . S
H425 C413 0.960 1_556 S
H426 C413 0.962 . S
H427 C413 0.960 . S
H428 C414 0.961 . S
H429 C414 0.961 . S
H430 C414 0.961 . S
H431 C415 0.931 . S
H432 C420 0.930 . S
H433 C421 0.956 . S
H434 C421 0.961 . S
H435 C421 0.961 . S
H436 C422 0.958 . S
H437 C422 0.961 . S
H438 C422 0.960 . S
C439 C440 1.391 1_655 S
C439 C441 1.394 . S
C439 H455 0.931 . S
C440 C439 1.391 1_455 S
C440 C444 1.376 . S
C441 C439 1.394 . S
C441 C442 1.369 . S
C441 C445 1.531 . S
C442 C441 1.369 . S
C442 C443 1.410 1_655 S
C442 C450 1.492 1_655 S
C443 C442 1.410 1_455 S
C443 C444 1.392 . S
C443 C446 1.511 . S
C444 C440 1.376 . S
C444 C443 1.392 . S
C444 H456 0.929 . S
C445 C441 1.531 . S
C445 H457 0.960 . S
C445 H458 0.962 1_655 S
C445 H459 0.960 . S
C446 C443 1.511 . S
C446 H460 0.961 . S
C446 H461 0.961 . S
C446 H462 0.961 1_455 S
C447 C448 1.370 . S
C447 C449 1.363 . S
C447 H463 0.931 . S
C448 C447 1.370 . S
C448 C452 1.408 1_455 S
C449 C447 1.363 . S
C449 C450 1.395 . S
C449 C453 1.524 . S
C450 C442 1.492 1_455 S
C450 C449 1.395 . S
C450 C451 1.390 1_455 S
C451 C450 1.390 1_655 S
C451 C452 1.404 . S
C451 C454 1.539 . S
C452 C448 1.408 1_655 S
C452 C451 1.404 . S
C452 H464 0.930 . S
C453 C449 1.524 . S
C453 H465 0.956 . S
C453 H466 0.961 . S
C453 H467 0.961 . S
C454 C451 1.539 . S
C454 H468 0.958 . S
C454 H469 0.961 . S
C454 H470 0.960 . S
H455 C439 0.931 . S
H456 C444 0.929 . S
H457 C445 0.960 . S
H458 C445 0.962 1_455 S
H459 C445 0.960 . S
H460 C446 0.961 . S
H461 C446 0.961 . S
H462 C446 0.961 1_655 S
H463 C447 0.931 . S
H464 C452 0.930 . S
H465 C453 0.956 . S
H466 C453 0.961 . S
H467 C453 0.961 . S
H468 C454 0.958 . S
H469 C454 0.961 . S
H470 C454 0.960 . S
C471 C472 1.391 . S
C471 C473 1.394 . S
C471 H487 0.931 . S
C472 C471 1.391 . S
C472 C476 1.376 . S
C473 C471 1.394 . S
C473 C474 1.369 . S
C473 C477 1.531 . S
C474 C473 1.369 . S
C474 C475 1.417 . S
C474 C482 1.505 1_565 S
C475 C474 1.417 . S
C475 C476 1.388 . S
C475 C478 1.509 1_565 S
C476 C472 1.376 . S
C476 C475 1.388 . S
C476 H488 0.927 1_565 S
C477 C473 1.531 . S
C477 H489 0.960 . S
C477 H490 0.962 1_565 S
C477 H491 0.960 . S
C478 C475 1.509 1_545 S
C478 H492 0.961 . S
C478 H493 0.961 . S
C478 H494 0.961 1_545 S
C479 C480 1.370 . S
C479 C481 1.363 . S
C479 H495 0.931 . S
C480 C479 1.370 . S
C480 C484 1.408 1_545 S
C481 C479 1.363 . S
C481 C482 1.373 . S
C481 C485 1.524 . S
C482 C474 1.505 1_545 S
C482 C481 1.373 . S
C482 C483 1.398 1_545 S
C483 C482 1.398 1_565 S
C483 C484 1.404 . S
C483 C486 1.539 . S
C484 C480 1.408 1_565 S
C484 C483 1.404 . S
C484 H496 0.930 . S
C485 C481 1.524 . S
C485 H497 0.956 . S
C485 H498 0.961 . S
C485 H499 0.961 . S
C486 C483 1.539 . S
C486 H500 0.958 . S
C486 H501 0.961 . S
C486 H502 0.960 . S
H487 C471 0.931 . S
H488 C476 0.927 1_545 S
H489 C477 0.960 . S
H490 C477 0.962 1_545 S
H491 C477 0.960 . S
H492 C478 0.961 . S
H493 C478 0.961 . S
H494 C478 0.961 1_565 S
H495 C479 0.931 . S
H496 C484 0.930 . S
H497 C485 0.956 . S
H498 C485 0.961 . S
H499 C485 0.961 . S
H500 C486 0.958 . S
H501 C486 0.961 . S
H502 C486 0.960 . S
C503 C504 1.391 . S
C503 C505 1.394 . S
C503 H519 0.931 1_556 S
C504 C503 1.391 . S
C504 C508 1.376 . S
C505 C503 1.394 . S
C505 C506 1.369 . S
C505 C509 1.531 . S
C506 C505 1.369 . S
C506 C507 1.410 . S
C506 C514 1.503 . S
C507 C506 1.410 . S
C507 C508 1.392 . S
C507 C510 1.511 . S
C508 C504 1.376 . S
C508 C507 1.392 . S
C508 H520 0.929 . S
C509 C505 1.531 . S
C509 H521 0.960 . S
C509 H522 0.962 . S
C509 H523 0.960 . S
C510 C507 1.511 . S
C510 H524 0.961 . S
C510 H525 0.961 . S
C510 H526 0.961 . S
C511 C512 1.370 . S
C511 C513 1.363 . S
C511 H527 0.931 . S
C512 C511 1.370 . S
C512 C516 1.408 . S
C513 C511 1.363 . S
C513 C514 1.370 . S
C513 C517 1.524 . S
C514 C506 1.503 . S
C514 C513 1.370 . S
C514 C515 1.403 . S
C515 C514 1.403 . S
C515 C516 1.404 . S
C515 C518 1.539 . S
C516 C512 1.408 . S
C516 C515 1.404 . S
C516 H528 0.930 . S
C517 C513 1.524 . S
C517 H529 0.956 . S
C517 H530 0.961 . S
C517 H531 0.961 . S
C518 C515 1.539 . S
C518 H532 0.958 . S
C518 H533 0.961 . S
C518 H534 0.960 . S
H519 C503 0.931 1_554 S
H520 C508 0.929 . S
H521 C509 0.960 . S
H522 C509 0.962 . S
H523 C509 0.960 . S
H524 C510 0.961 . S
H525 C510 0.961 . S
H526 C510 0.961 . S
H527 C511 0.931 . S
H528 C516 0.930 . S
H529 C517 0.956 . S
H530 C517 0.961 . S
H531 C517 0.961 . S
H532 C518 0.958 . S
H533 C518 0.961 . S
H534 C518 0.960 . S
C535 C536 1.391 . S
C535 C537 1.394 1_455 S
C535 H551 0.931 1_455 S
C536 C535 1.391 . S
C536 C540 1.376 . S
C537 C535 1.394 1_655 S
C537 C538 1.369 1_655 S
C537 C541 1.531 . S
C538 C537 1.369 1_455 S
C538 C539 1.410 . S
C538 C546 1.503 . S
C539 C538 1.410 . S
C539 C540 1.392 . S
C539 C542 1.511 . S
C540 C536 1.376 . S
C540 C539 1.392 . S
C540 H552 0.929 . S
C541 C537 1.531 . S
C541 H553 0.960 . S
C541 H554 0.962 . S
C541 H555 0.960 . S
C542 C539 1.511 . S
C542 H556 0.961 . S
C542 H557 0.961 . S
C542 H558 0.961 . S
C543 C544 1.370 . S
C543 C545 1.363 . S
C543 H559 0.931 1_455 S
C544 C543 1.370 . S
C544 C548 1.408 . S
C545 C543 1.363 . S
C545 C546 1.370 . S
C545 C549 1.524 . S
C546 C538 1.503 . S
C546 C545 1.370 . S
C546 C547 1.403 . S
C547 C546 1.403 . S
C547 C548 1.404 . S
C547 C550 1.539 . S
C548 C544 1.408 . S
C548 C547 1.404 . S
C548 H560 0.930 . S
C549 C545 1.524 . S
C549 H561 0.956 1_455 S
C549 H562 0.961 . S
C549 H563 0.961 1_455 S
C550 C547 1.539 . S
C550 H564 0.958 . S
C550 H565 0.961 . S
C550 H566 0.960 . S
H551 C535 0.931 1_655 S
H552 C540 0.929 . S
H553 C541 0.960 . S
H554 C541 0.962 . S
H555 C541 0.960 . S
H556 C542 0.961 . S
H557 C542 0.961 . S
H558 C542 0.961 . S
H559 C543 0.931 1_655 S
H560 C548 0.930 . S
H561 C549 0.956 1_655 S
H562 C549 0.961 . S
H563 C549 0.961 1_655 S
H564 C550 0.958 . S
H565 C550 0.961 . S
H566 C550 0.960 . S
C192 C60 1.412 . S
C184 C10 1.409 . S
C216 C21 1.451 . S
C224 C108 1.471 . S
C248 C31 1.414 . S
C256 C180 1.436 . S
C280 C0 1.360 . S
C288 C84 1.428 . S
C320 C132 1.458 . S
C312 C18 1.353 . S
C344 C34 1.419 . S
C352 C156 1.433 . S
C384 C117 1.401 . S
C376 C36 1.400 . S
C408 C8 1.413 . S
C416 C171 1.437 . S
C448 C75 1.414 . S
C440 C23 1.411 . S
C480 C123 1.381 . S
C472 C26 1.352 1_565 S
C512 C165 1.469 . S
C504 C5 1.406 1_556 S
C536 C13 1.421 . S
C544 C69 1.440 . S
