# Generated by pormake.
# Topology nom, (4,4)-cn, num edge types: 1
# Building blocks:
#     Node 0, Type 0, BuildingBlock: NAHDIM_clean_linker_0, # of connection points: 4
#     Node 1, Type 0, BuildingBlock: NAHDIM_clean_linker_0, # of connection points: 4
#     Node 2, Type 0, BuildingBlock: NAHDIM_clean_linker_0, # of connection points: 4
#     Node 3, Type 0, BuildingBlock: NAHDIM_clean_linker_0, # of connection points: 4
#     Node 4, Type 0, BuildingBlock: NAHDIM_clean_linker_0, # of connection points: 4
#     Node 5, Type 0, BuildingBlock: NAHDIM_clean_linker_0, # of connection points: 4
#     Node 6, Type 1, BuildingBlock: GALJAG_clean_sbu_0, # of connection points: 4
#     Node 7, Type 1, BuildingBlock: GALJAG_clean_sbu_0, # of connection points: 4
#     Node 8, Type 1, BuildingBlock: GALJAG_clean_sbu_0, # of connection points: 4
#     Node 9, Type 1, BuildingBlock: GALJAG_clean_sbu_0, # of connection points: 4
#     Node 10, Type 1, BuildingBlock: GALJAG_clean_sbu_0, # of connection points: 4
#     Node 11, Type 1, BuildingBlock: GALJAG_clean_sbu_0, # of connection points: 4
#     Edge 12, Type (0, 1), BuildingBlock: AJUNOK_clean_linker_0, # of connection points: 2
#     Edge 13, Type (0, 1), BuildingBlock: AJUNOK_clean_linker_0, # of connection points: 2
#     Edge 14, Type (0, 1), BuildingBlock: AJUNOK_clean_linker_0, # of connection points: 2
#     Edge 15, Type (0, 1), BuildingBlock: AJUNOK_clean_linker_0, # of connection points: 2
#     Edge 16, Type (0, 1), BuildingBlock: AJUNOK_clean_linker_0, # of connection points: 2
#     Edge 17, Type (0, 1), BuildingBlock: AJUNOK_clean_linker_0, # of connection points: 2
#     Edge 18, Type (0, 1), BuildingBlock: AJUNOK_clean_linker_0, # of connection points: 2
#     Edge 19, Type (0, 1), BuildingBlock: AJUNOK_clean_linker_0, # of connection points: 2
#     Edge 20, Type (0, 1), BuildingBlock: AJUNOK_clean_linker_0, # of connection points: 2
#     Edge 21, Type (0, 1), BuildingBlock: AJUNOK_clean_linker_0, # of connection points: 2
#     Edge 22, Type (0, 1), BuildingBlock: AJUNOK_clean_linker_0, # of connection points: 2
#     Edge 23, Type (0, 1), BuildingBlock: AJUNOK_clean_linker_0, # of connection points: 2
#     Edge 24, Type (0, 1), BuildingBlock: AJUNOK_clean_linker_0, # of connection points: 2
#     Edge 25, Type (0, 1), BuildingBlock: AJUNOK_clean_linker_0, # of connection points: 2
#     Edge 26, Type (0, 1), BuildingBlock: AJUNOK_clean_linker_0, # of connection points: 2
#     Edge 27, Type (0, 1), BuildingBlock: AJUNOK_clean_linker_0, # of connection points: 2
#     Edge 28, Type (0, 1), BuildingBlock: AJUNOK_clean_linker_0, # of connection points: 2
#     Edge 29, Type (0, 1), BuildingBlock: AJUNOK_clean_linker_0, # of connection points: 2
#     Edge 30, Type (0, 1), BuildingBlock: AJUNOK_clean_linker_0, # of connection points: 2
#     Edge 31, Type (0, 1), BuildingBlock: AJUNOK_clean_linker_0, # of connection points: 2
#     Edge 32, Type (0, 1), BuildingBlock: AJUNOK_clean_linker_0, # of connection points: 2
#     Edge 33, Type (0, 1), BuildingBlock: AJUNOK_clean_linker_0, # of connection points: 2
#     Edge 34, Type (0, 1), BuildingBlock: AJUNOK_clean_linker_0, # of connection points: 2
#     Edge 35, Type (0, 1), BuildingBlock: AJUNOK_clean_linker_0, # of connection points: 2
# Relax obj value: 0.026
# Max RMSD: 0.128
# Mean RMSD: 0.098
data_MOF--net-nom--node1-GALJAG_clean_sbu_0--node2-NAHDIM_clean_linker_0--edge1-AJUNOK_clean_linker_0
_symmetry_space_group_name_H-M    P1
_symmetry_Int_Tables_number       1
_symmetry_cell_setting            triclinic
loop_
_symmetry_equiv_pos_as_xyz
'x, y, z'
_cell_length_a     46.796105
_cell_length_b     46.711844
_cell_length_c     58.333089
_cell_angle_alpha  90.169723
_cell_angle_beta   90.159822
_cell_angle_gamma 120.10033
loop_
_atom_site_label
_atom_site_type_symbol
_atom_site_fract_x
_atom_site_fract_y
_atom_site_fract_z
_atom_type_partial_charge
C0 C 0.18854 0.69931 0.21421 0.0
C1 C 0.20455 0.6873 0.23172 0.0
C2 C 0.16494 0.66148 0.26258 0.0
C3 C 0.16024 0.62938 0.26295 0.0
C4 C 0.13118 0.60296 0.27196 0.0
C5 C 0.10633 0.60886 0.28058 0.0
C6 C 0.11157 0.64151 0.2808 0.0
C7 C 0.1412 0.6675 0.2722 0.0
C8 C 0.12681 0.5687 0.27195 0.0
C9 C 0.08554 0.64891 0.28943 0.0
C10 C 0.90603 0.47721 0.16249 0.0
C11 C 0.92422 0.49601 0.18338 0.0
C12 C 0.95737 0.49528 0.21534 0.0
C13 C 0.95892 0.52288 0.22641 0.0
C14 C 0.97832 0.53662 0.24612 0.0
C15 C 0.99628 0.52231 0.25522 0.0
C16 C 0.99408 0.494 0.2446 0.0
C17 C 0.9746 0.48083 0.22476 0.0
C18 C 0.98022 0.56695 0.25694 0.0
C19 C 0.01279 0.47808 0.25401 0.0
C20 C 0.87219 0.46209 0.38452 0.0
C21 C 0.88393 0.49268 0.37374 0.0
C22 C 0.91745 0.51221 0.36817 0.0
C23 C 0.93937 0.50031 0.37297 0.0
C24 C 0.92749 0.46952 0.38412 0.0
C25 C 0.89403 0.45105 0.39012 0.0
C26 C 0.92936 0.54556 0.35725 0.0
C27 C 0.95001 0.45599 0.38953 0.0
C28 C 0.17916 0.66395 0.44826 0.0
C29 C 0.15263 0.62822 0.45336 0.0
C30 C 0.09893 0.60817 0.4352 0.0
C31 C 0.08101 0.62184 0.42578 0.0
C32 C 0.05851 0.60592 0.40776 0.0
C33 C 0.05355 0.57531 0.39935 0.0
C34 C 0.07043 0.56056 0.4096 0.0
C35 C 0.09292 0.57713 0.42749 0.0
C36 C 0.04049 0.62202 0.39743 0.0
C37 C 0.06487 0.52743 0.4015 0.0
C38 C 0.07381 0.58075 0.28752 0.0
C39 C 0.0515 0.56244 0.27006 0.0
C40 C 0.01896 0.5384 0.27494 0.0
C41 C 0.00804 0.53247 0.29792 0.0
C42 C 0.97513 0.50938 0.30342 0.0
C43 C 0.96424 0.50508 0.326 0.0
C44 C 0.98592 0.5235 0.34395 0.0
C45 C 0.97481 0.52046 0.36683 0.0
C46 C 0.9974 0.5378 0.38439 0.0
C47 C 0.03086 0.55871 0.37973 0.0
C48 C 0.04216 0.56347 0.35684 0.0
C49 C 0.07537 0.5857 0.35141 0.0
C50 C 0.08593 0.59112 0.32873 0.0
C51 C 0.06377 0.57424 0.31067 0.0
C52 C 0.03055 0.55056 0.31583 0.0
C53 C 0.01958 0.5457 0.3389 0.0
C54 C 0.80023 0.39558 0.36924 0.0
C55 C 0.81435 0.43248 0.37402 0.0
O56 O 0.19231 0.6872 0.25336 0.0
O57 O 0.12177 0.62544 0.45167 0.0
O58 O 0.83986 0.44297 0.38981 0.0
O59 O 0.93999 0.48239 0.19554 0.0
H60 H 0.19835 0.66183 0.2267 0.0
H61 H 0.16136 0.68238 0.21401 0.0
H62 H 0.1937 0.72463 0.21866 0.0
H63 H 0.1981 0.69958 0.19675 0.0
H64 H 0.17931 0.62498 0.25634 0.0
H65 H 0.14543 0.69254 0.27213 0.0
H66 H 0.10809 0.55324 0.25884 0.0
H67 H 0.15019 0.56903 0.26802 0.0
H68 H 0.11762 0.55679 0.28887 0.0
H69 H 0.09177 0.6747 0.28567 0.0
H70 H 0.0612 0.63167 0.28153 0.0
H71 H 0.08303 0.64532 0.30826 0.0
H72 H 0.94051 0.52313 0.18055 0.0
H73 H 0.85679 0.46167 0.17036 0.0
H74 H 0.91925 0.49408 0.14769 0.0
H75 H 0.91505 0.45943 0.15859 0.0
H76 H 0.94536 0.53415 0.21967 0.0
H77 H 0.97314 0.45945 0.21629 0.0
H78 H 0.0062 0.58764 0.25692 0.0
H79 H 0.96464 0.57506 0.24783 0.0
H80 H 0.97214 0.5618 0.27507 0.0
H81 H 0.00692 0.455 0.24465 0.0
H82 H 0.03974 0.4957 0.25277 0.0
H83 H 0.00689 0.47224 0.27243 0.0
H84 H 0.82378 0.44562 0.35741 0.0
H85 H 0.86688 0.50137 0.36998 0.0
H86 H 0.88457 0.42745 0.39867 0.0
H87 H 0.93494 0.54436 0.33892 0.0
H88 H 0.91059 0.55343 0.35823 0.0
H89 H 0.95243 0.56469 0.3657 0.0
H90 H 0.93609 0.42984 0.39528 0.0
H91 H 0.9648 0.45758 0.37423 0.0
H92 H 0.9675 0.47109 0.40335 0.0
H93 H 0.15562 0.61277 0.44012 0.0
H94 H 0.20417 0.66686 0.44975 0.0
H95 H 0.17593 0.67042 0.4305 0.0
H96 H 0.17736 0.68148 0.46027 0.0
H97 H 0.08544 0.64555 0.43216 0.0
H98 H 0.10568 0.56577 0.43549 0.0
H99 H 0.04608 0.62621 0.37885 0.0
H100 H 0.01343 0.60527 0.39911 0.0
H101 H 0.04737 0.64606 0.40576 0.0
H102 H 0.07894 0.51868 0.41185 0.0
H103 H 0.03817 0.5087 0.40238 0.0
H104 H 0.07247 0.52922 0.38331 0.0
H105 H 0.05923 0.56786 0.25231 0.0
H106 H 0.95733 0.49474 0.29026 0.0
H107 H 0.93855 0.48724 0.32921 0.0
H108 H 0.9888 0.5351 0.40194 0.0
H109 H 0.09345 0.59959 0.3646 0.0
H110 H 0.11166 0.60882 0.32548 0.0
H111 H 0.79038 0.38101 0.38522 0.0
H112 H 0.78006 0.38665 0.35628 0.0
H113 H 0.81992 0.3913 0.36243 0.0
C114 C 0.39554 0.82922 0.60302 0.0
C115 C 0.38307 0.82001 0.57828 0.0
C116 C 0.39337 0.87258 0.56135 0.0
C117 C 0.42774 0.88648 0.55877 0.0
C118 C 0.44724 0.91839 0.54989 0.0
C119 C 0.43237 0.9373 0.544 0.0
C120 C 0.3979 0.92361 0.54672 0.0
C121 C 0.37883 0.89126 0.5551 0.0
C122 C 0.4839 0.93205 0.54706 0.0
C123 C 0.3813 0.94332 0.54108 0.0
C124 C 0.55521 0.06397 0.65237 0.0
C125 C 0.5518 0.09365 0.64518 0.0
C126 C 0.54824 0.08889 0.60386 0.0
C127 C 0.51656 0.08376 0.59933 0.0
C128 C 0.49868 0.06561 0.57998 0.0
C129 C 0.51282 0.0523 0.565 0.0
C130 C 0.54542 0.0588 0.56901 0.0
C131 C 0.56292 0.0775 0.58829 0.0
C132 C 0.46436 0.05989 0.57589 0.0
C133 C 0.56123 0.04483 0.55348 0.0
C134 C 0.56159 0.16442 0.42712 0.0
C135 C 0.52789 0.15091 0.43119 0.0
C136 C 0.50915 0.11924 0.44063 0.0
C137 C 0.52438 0.10022 0.44517 0.0
C138 C 0.5585 0.11373 0.44093 0.0
C139 C 0.57689 0.14597 0.43228 0.0
C140 C 0.47301 0.10593 0.4455 0.0
C141 C 0.57525 0.09372 0.4449 0.0
C142 C 0.36424 0.85528 0.3754 0.0
C143 C 0.4003 0.88128 0.37093 0.0
C144 C 0.41988 0.9354 0.38898 0.0
C145 C 0.40652 0.95464 0.39639 0.0
C146 C 0.4218 0.97831 0.41384 0.0
C147 C 0.45164 0.98329 0.42367 0.0
C148 C 0.46605 0.96485 0.41553 0.0
C149 C 0.44996 0.941 0.39825 0.0
C150 C 0.40598 0.99785 0.42186 0.0
C151 C 0.49847 0.97041 0.42506 0.0
C152 C 0.45325 0.97191 0.53605 0.0
C153 C 0.47132 0.99608 0.55258 0.0
C154 C 0.49251 0.02901 0.54648 0.0
C155 C 0.49506 0.03855 0.52327 0.0
C156 C 0.51498 0.07172 0.51664 0.0
C157 C 0.51774 0.08073 0.49367 0.0
C158 C 0.50104 0.05682 0.47646 0.0
C159 C 0.50417 0.06555 0.45304 0.0
C160 C 0.4878 0.04108 0.43636 0.0
C161 C 0.46786 0.00791 0.44238 0.0
C162 C 0.46379 0.99872 0.46573 0.0
C163 C 0.44334 0.96564 0.47243 0.0
C164 C 0.4398 0.95678 0.49544 0.0
C165 C 0.45649 0.98067 0.51263 0.0
C166 C 0.47728 0.01418 0.50626 0.0
C167 C 0.48067 0.02325 0.48281 0.0
C168 C 0.63677 0.22421 0.41003 0.0
C169 C 0.60789 0.22084 0.42446 0.0
O170 O 0.37344 0.84166 0.56989 0.0
O171 O 0.4036 0.91243 0.37238 0.0
O172 O 0.57822 0.19443 0.41694 0.0
O173 O 0.56472 0.10397 0.62343 0.0
H174 H 0.40337 0.82156 0.56763 0.0
H175 H 0.41758 0.85441 0.60371 0.0
H176 H 0.37616 0.82889 0.61416 0.0
H177 H 0.40271 0.81153 0.60988 0.0
H178 H 0.43986 0.87293 0.56372 0.0
H179 H 0.3524 0.88053 0.55717 0.0
H180 H 0.49751 0.95171 0.56007 0.0
H181 H 0.49087 0.91271 0.54919 0.0
H182 H 0.49201 0.94338 0.52987 0.0
H183 H 0.3548 0.93014 0.54594 0.0
H184 H 0.39405 0.96758 0.5501 0.0
H185 H 0.3831 0.94832 0.5224 0.0
H186 H 0.52497 0.08537 0.64514 0.0
H187 H 0.54547 0.056 0.66997 0.0
H188 H 0.54078 0.04285 0.6405 0.0
H189 H 0.58144 0.07019 0.65193 0.0
H190 H 0.50571 0.09368 0.611 0.0
H191 H 0.58758 0.08199 0.59188 0.0
H192 H 0.44603 0.03346 0.57896 0.0
H193 H 0.45856 0.07533 0.58733 0.0
H194 H 0.46158 0.06542 0.55778 0.0
H195 H 0.58637 0.05132 0.55939 0.0
H196 H 0.54563 0.01746 0.55263 0.0
H197 H 0.56302 0.05441 0.53584 0.0
H198 H 0.61244 0.21692 0.44266 0.0
H199 H 0.51635 0.16541 0.42708 0.0
H200 H 0.60284 0.1561 0.42881 0.0
H201 H 0.46741 0.09695 0.46344 0.0
H202 H 0.4656 0.12486 0.44289 0.0
H203 H 0.45786 0.08454 0.43403 0.0
H204 H 0.60195 0.10772 0.44062 0.0
H205 H 0.57256 0.086 0.46311 0.0
H206 H 0.56311 0.07087 0.43425 0.0
H207 H 0.41533 0.878 0.38436 0.0
H208 H 0.36089 0.83 0.37464 0.0
H209 H 0.35695 0.85914 0.39274 0.0
H210 H 0.34769 0.85714 0.36253 0.0
H211 H 0.38361 0.95053 0.38874 0.0
H212 H 0.4612 0.92723 0.39177 0.0
H213 H 0.40281 0.99585 0.44076 0.0
H214 H 0.4224 0.02439 0.41776 0.0
H215 H 0.38153 0.98929 0.41367 0.0
H216 H 0.50767 0.95591 0.41569 0.0
H217 H 0.51741 0.99708 0.42416 0.0
H218 H 0.4954 0.96318 0.44339 0.0
H219 H 0.46939 0.989 0.57047 0.0
H220 H 0.52859 0.09107 0.52917 0.0
H221 H 0.53338 0.10663 0.48954 0.0
H222 H 0.49063 0.04795 0.4184 0.0
H223 H 0.42985 0.94619 0.45994 0.0
H224 H 0.42388 0.93092 0.49957 0.0
H225 H 0.63213 0.22532 0.39147 0.0
H226 H 0.65996 0.24706 0.41499 0.0
H227 H 0.64076 0.20305 0.41287 0.0
C228 C 0.5572 0.37521 0.77157 0.0
C229 C 0.56906 0.37115 0.74795 0.0
C230 C 0.53611 0.38368 0.72149 0.0
C231 C 0.55953 0.41671 0.71637 0.0
C232 C 0.54967 0.43812 0.70716 0.0
C233 C 0.5158 0.42628 0.70293 0.0
C234 C 0.49237 0.39264 0.70695 0.0
C235 C 0.50296 0.37167 0.71595 0.0
C236 C 0.57535 0.47364 0.70243 0.0
C237 C 0.45605 0.37915 0.70246 0.0
C238 C 0.44865 0.54622 0.82862 0.0
C239 C 0.45059 0.52532 0.80999 0.0
C240 C 0.47303 0.52988 0.77162 0.0
C241 C 0.45035 0.49711 0.76511 0.0
C242 C 0.45383 0.48399 0.74439 0.0
C243 C 0.48119 0.50357 0.73015 0.0
C244 C 0.50404 0.53663 0.73656 0.0
C245 C 0.49924 0.54953 0.75704 0.0
C246 C 0.42866 0.44874 0.73809 0.0
C247 C 0.53408 0.55796 0.72219 0.0
C248 C 0.41856 0.56883 0.60242 0.0
C249 C 0.3979 0.53741 0.61159 0.0
C250 C 0.41011 0.51608 0.61638 0.0
C251 C 0.44394 0.527 0.61253 0.0
C252 C 0.46463 0.55861 0.60289 0.0
C253 C 0.45142 0.57891 0.59756 0.0
C254 C 0.3869 0.48201 0.62563 0.0
C255 C 0.50076 0.57116 0.59847 0.0
C256 C 0.52947 0.36945 0.54162 0.0
C257 C 0.53845 0.40481 0.53548 0.0
C258 C 0.50206 0.42341 0.5506 0.0
C259 C 0.46968 0.40853 0.55865 0.0
C260 C 0.46098 0.42349 0.57607 0.0
C261 C 0.48526 0.45432 0.58523 0.0
C262 C 0.51759 0.47042 0.57611 0.0
C263 C 0.52564 0.45479 0.55883 0.0
C264 C 0.42618 0.40595 0.5852 0.0
C265 C 0.54379 0.5038 0.58501 0.0
C266 C 0.50458 0.44974 0.69648 0.0
C267 C 0.49966 0.46686 0.71421 0.0
C268 C 0.48746 0.48816 0.70995 0.0
C269 C 0.48007 0.49282 0.68721 0.0
C270 C 0.46713 0.51353 0.68226 0.0
C271 C 0.46015 0.51804 0.65978 0.0
C272 C 0.46523 0.5015 0.64143 0.0
C273 C 0.45774 0.50547 0.61853 0.0
C274 C 0.46394 0.4893 0.60069 0.0
C275 C 0.47741 0.4691 0.60503 0.0
C276 C 0.48423 0.46408 0.62782 0.0
C277 C 0.49694 0.44312 0.63281 0.0
C278 C 0.50363 0.43836 0.65528 0.0
C279 C 0.49806 0.45453 0.67359 0.0
C280 C 0.48558 0.47604 0.66896 0.0
C281 C 0.47829 0.4805 0.64606 0.0
C282 C 0.41658 0.63697 0.61973 0.0
C283 C 0.39315 0.60027 0.61466 0.0
O284 O 0.5444 0.36269 0.73168 0.0
O285 O 0.50989 0.40685 0.53502 0.0
O286 O 0.40719 0.58982 0.59818 0.0
O287 O 0.47062 0.54317 0.79182 0.0
H288 H 0.59113 0.39521 0.74374 0.0
H289 H 0.5527 0.3964 0.77128 0.0
H290 H 0.53384 0.35272 0.77646 0.0
H291 H 0.57633 0.38034 0.78481 0.0
H292 H 0.58553 0.42607 0.71935 0.0
H293 H 0.48516 0.34601 0.71954 0.0
H294 H 0.57208 0.49013 0.71456 0.0
H295 H 0.60093 0.47817 0.70429 0.0
H296 H 0.57209 0.48051 0.6848 0.0
H297 H 0.44101 0.35231 0.70628 0.0
H298 H 0.44705 0.39269 0.71315 0.0
H299 H 0.45212 0.38312 0.68424 0.0
H300 H 0.45533 0.50534 0.81583 0.0
H301 H 0.39894 0.53395 0.82772 0.0
H302 H 0.46025 0.54158 0.84404 0.0
H303 H 0.46971 0.57216 0.8258 0.0
H304 H 0.42989 0.48143 0.77613 0.0
H305 H 0.5166 0.57477 0.76215 0.0
H306 H 0.42227 0.44668 0.71958 0.0
H307 H 0.43928 0.43259 0.74148 0.0
H308 H 0.40564 0.43936 0.74823 0.0
H309 H 0.55092 0.58209 0.73057 0.0
H310 H 0.54798 0.54486 0.71886 0.0
H311 H 0.52625 0.56278 0.70536 0.0
H312 H 0.38992 0.58668 0.63103 0.0
H313 H 0.37222 0.5296 0.61482 0.0
H314 H 0.46695 0.60319 0.59025 0.0
H315 H 0.39231 0.48115 0.64406 0.0
H316 H 0.36062 0.47535 0.62393 0.0
H317 H 0.39045 0.46312 0.61653 0.0
H318 H 0.51433 0.59781 0.59387 0.0
H319 H 0.51262 0.56751 0.61384 0.0
H320 H 0.5032 0.55687 0.58413 0.0
H321 H 0.55558 0.42097 0.54917 0.0
H322 H 0.55198 0.36714 0.54195 0.0
H323 H 0.51805 0.36317 0.5589 0.0
H324 H 0.51157 0.35141 0.52905 0.0
H325 H 0.45153 0.38456 0.55184 0.0
H326 H 0.55037 0.46702 0.55182 0.0
H327 H 0.42656 0.40084 0.60374 0.0
H328 H 0.41524 0.42214 0.58343 0.0
H329 H 0.41009 0.38222 0.5761 0.0
H330 H 0.56699 0.51412 0.57497 0.0
H331 H 0.53453 0.52151 0.58449 0.0
H332 H 0.54948 0.50151 0.60317 0.0
H333 H 0.50483 0.46304 0.73175 0.0
H334 H 0.46239 0.5266 0.69572 0.0
H335 H 0.45059 0.53459 0.657 0.0
H336 H 0.45857 0.4928 0.58315 0.0
H337 H 0.50171 0.43001 0.6194 0.0
H338 H 0.5133 0.42191 0.65814 0.0
H339 H 0.421 0.652 0.60402 0.0
H340 H 0.40606 0.64584 0.6332 0.0
H341 H 0.44065 0.6407 0.62602 0.0
C342 C 0.2407 0.4996 0.91904 0.0
C343 C 0.21954 0.5118 0.90477 0.0
C344 C 0.16097 0.48703 0.89366 0.0
C345 C 0.16197 0.51658 0.88746 0.0
C346 C 0.13384 0.51603 0.87837 0.0
C347 C 0.10435 0.48537 0.8753 0.0
C348 C 0.10366 0.45559 0.88091 0.0
C349 C 0.13195 0.45689 0.89017 0.0
C350 C 0.1353 0.54818 0.87256 0.0
C351 C 0.07276 0.42241 0.87769 0.0
C352 C -0.00028 0.50905 0.9963 0.0
C353 C 0.97075 0.47917 0.98465 0.0
C354 C 0.97501 0.48556 0.94325 0.0
C355 C 0.97211 0.45545 0.9363 0.0
C356 C 0.98588 0.45305 0.91555 0.0
C357 C 0.00294 0.4814 0.90159 0.0
C358 C 0.00433 0.51131 0.90803 0.0
C359 C 0.98989 0.51285 0.92871 0.0
C360 C 0.98318 0.42053 0.90897 0.0
C361 C 0.02223 0.54198 0.89353 0.0
C362 C 0.87302 0.42954 0.77571 0.0
C363 C 0.88018 0.40643 0.78542 0.0
C364 C 0.91296 0.41464 0.78963 0.0
C365 C 0.93897 0.44699 0.78465 0.0
C366 C 0.93173 0.47004 0.77431 0.0
C367 C 0.89876 0.46073 0.76959 0.0
C368 C 0.91968 0.38877 0.79958 0.0
C369 C 0.9587 0.50471 0.76868 0.0
C370 C 0.16734 0.49491 0.70174 0.0
C371 C 0.14474 0.50982 0.70157 0.0
C372 C 0.09092 0.48069 0.71994 0.0
C373 C 0.06902 0.44882 0.72776 0.0
C374 C 0.04794 0.44376 0.7463 0.0
C375 C 0.04847 0.47132 0.75688 0.0
C376 C 0.06951 0.50352 0.7483 0.0
C377 C 0.09053 0.50787 0.7299 0.0
C378 C 0.02554 0.4091 0.75486 0.0
C379 C 0.06988 0.53335 0.75867 0.0
C380 C 0.07325 0.48433 0.86853 0.0
C381 C 0.05346 0.485 0.88614 0.0
C382 C 0.02221 0.48069 0.88166 0.0
C383 C 0.01001 0.47521 0.85892 0.0
C384 C 0.97817 0.46945 0.85387 0.0
C385 C 0.96623 0.46355 0.83145 0.0
C386 C 0.98575 0.46333 0.81321 0.0
C387 C 0.97362 0.45669 0.79041 0.0
C388 C 0.99445 0.45883 0.77255 0.0
C389 C 0.02698 0.46667 0.77684 0.0
C390 C 0.03883 0.47116 0.79966 0.0
C391 C 0.07067 0.4768 0.80474 0.0
C392 C 0.08196 0.4809 0.8273 0.0
C393 C 0.06214 0.48032 0.84556 0.0
C394 C 0.0302 0.47531 0.84078 0.0
C395 C 0.01826 0.46994 0.81787 0.0
C396 C 0.80048 0.42863 0.79208 0.0
C397 C 0.81672 0.40755 0.78866 0.0
O398 O 0.18704 0.48624 0.90329 0.0
O399 O 0.11216 0.48445 0.70286 0.0
O400 O 0.84145 0.4225 0.77246 0.0
O401 O 0.96381 0.48895 0.96392 0.0
H402 H 0.22052 0.53348 0.91361 0.0
H403 H 0.22186 0.48225 0.93171 0.0
H404 H 0.27331 0.48073 0.89166 0.0
H405 H 0.25529 0.52044 0.93152 0.0
H406 H 0.18426 0.54013 0.89012 0.0
H407 H 0.1315 0.43424 0.8949 0.0
H408 H 0.11838 0.55175 0.88397 0.0
H409 H 0.16061 0.56981 0.87448 0.0
H410 H 0.12675 0.54727 0.85465 0.0
H411 H 0.07692 0.40147 0.88144 0.0
H412 H 0.05314 0.42068 0.88922 0.0
H413 H 0.06357 0.41987 0.8598 0.0
H414 H 0.97838 0.46041 0.9818 0.0
H415 H 0.00575 0.5017 0.01293 0.0
H416 H 0.02188 0.51902 0.98518 0.0
H417 H 0.99371 0.52893 0.99941 0.0
H418 H 0.9593 0.43391 0.94715 0.0
H419 H 0.99142 0.5358 0.93412 0.0
H420 H 0.97631 0.41487 0.89059 0.0
H421 H 0.00755 0.42233 0.91146 0.0
H422 H 0.96468 0.39972 0.91951 0.0
H423 H 0.02079 0.56321 0.90082 0.0
H424 H 0.04863 0.54909 0.89201 0.0
H425 H 0.01154 0.53681 0.87598 0.0
H426 H 0.82763 0.40701 0.80555 0.0
H427 H 0.86011 0.38196 0.78959 0.0
H428 H 0.89283 0.47822 0.76189 0.0
H429 H 0.9268 0.3946 0.81789 0.0
H430 H 0.89766 0.36356 0.79853 0.0
H431 H 0.94048 0.38873 0.7905 0.0
H432 H 0.94866 0.52079 0.76341 0.0
H433 H 0.97523 0.51614 0.78373 0.0
H434 H 0.97391 0.50376 0.75446 0.0
H435 H 0.15173 0.52588 0.71709 0.0
H436 H 0.19362 0.51477 0.70041 0.0
H437 H 0.16419 0.48145 0.71806 0.0
H438 H 0.1613 0.47716 0.68732 0.0
H439 H 0.06919 0.42797 0.71971 0.0
H440 H 0.10653 0.53247 0.72325 0.0
H441 H 0.03027 0.40768 0.77337 0.0
H442 H -0.00062 0.40275 0.75302 0.0
H443 H 0.02903 0.39042 0.74538 0.0
H444 H 0.08609 0.55642 0.7491 0.0
H445 H 0.04444 0.52947 0.75894 0.0
H446 H 0.07875 0.53665 0.77668 0.0
H447 H 0.06227 0.48828 0.90372 0.0
H448 H 0.96205 0.46921 0.86725 0.0
H449 H 0.94151 0.45924 0.82859 0.0
H450 H 0.98529 0.45453 0.75504 0.0
H451 H 0.08705 0.47767 0.79134 0.0
H452 H 0.10653 0.48483 0.83027 0.0
H453 H 0.7808 0.41738 0.80525 0.0
H454 H 0.81923 0.45381 0.79803 0.0
H455 H 0.7895 0.43093 0.77576 0.0
C456 C 0.54388 0.83061 0.91501 0.0
C457 C 0.50807 0.82273 0.91778 0.0
C458 C 0.51113 0.8645 0.9438 0.0
C459 C 0.486 0.87233 0.94396 0.0
C460 C 0.4929 0.90447 0.94949 0.0
C461 C 0.52575 0.9291 0.95484 0.0
C462 C 0.55118 0.92105 0.95475 0.0
C463 C 0.54338 0.88856 0.94966 0.0
C464 C 0.46516 0.91208 0.9497 0.0
C465 C 0.5866 0.94667 0.96003 0.0
C466 C 0.60118 0.12188 0.82932 0.0
C467 C 0.59861 0.09878 0.84784 0.0
C468 C 0.5679 0.07366 0.88288 0.0
C469 C 0.59133 0.06613 0.89178 0.0
C470 C 0.58576 0.04904 0.91248 0.0
C471 C 0.55582 0.03852 0.92436 0.0
C472 C 0.53217 0.04604 0.91553 0.0
C473 C 0.53873 0.06389 0.895 0.0
C474 C 0.61168 0.04162 0.9214 0.0
C475 C 0.49973 0.03464 0.92754 0.0
C476 C 0.61248 0.17333 0.04951 0.0
C477 C 0.63388 0.16308 0.04095 0.0
C478 C 0.62251 0.12948 0.03659 0.0
C479 C 0.58887 0.10587 0.04044 0.0
C480 C 0.56746 0.1162 0.04955 0.0
C481 C 0.57976 0.14985 0.05432 0.0
C482 C 0.64646 0.11926 0.02791 0.0
C483 C 0.53153 0.09176 0.05403 0.0
C484 C 0.53791 0.87358 0.11956 0.0
C485 C 0.52306 0.89609 0.122 0.0
C486 C 0.55099 0.9513 0.10563 0.0
C487 C 0.58208 0.97278 0.09655 0.0
C488 C 0.58582 0.99457 0.0788 0.0
C489 C 0.55778 0.99535 0.07047 0.0
C490 C 0.52658 0.97518 0.0807 0.0
C491 C 0.52347 0.95317 0.09813 0.0
C492 C 0.61951 0.01598 0.06845 0.0
C493 C 0.49643 0.97631 0.07282 0.0
C494 C 0.53375 0.96345 0.96009 0.0
C495 C 0.53802 0.9842 0.94168 0.0
C496 C 0.54859 0.01768 0.94508 0.0
C497 C 0.55467 0.03094 0.96757 0.0
C498 C 0.56564 0.06457 0.97166 0.0
C499 C 0.57214 0.07744 0.99386 0.0
C500 C 0.56854 0.05731 0.01279 0.0
C501 C 0.57618 0.07033 0.03536 0.0
C502 C 0.57217 0.04952 0.05374 0.0
C503 C 0.56079 0.0159 0.05028 0.0
C504 C 0.55323 0.00244 0.02786 0.0
C505 C 0.54209 0.96875 0.02376 0.0
C506 C 0.53512 0.9558 0.00164 0.0
C507 C 0.53944 0.97611 0.98271 0.0
C508 C 0.55016 0.01004 0.98645 0.0
C509 C 0.55717 0.02324 0.00906 0.0
C510 C 0.62034 0.24636 0.03046 0.0
C511 C 0.64096 0.23095 0.038 0.0
O512 O 0.50382 0.83319 0.93911 0.0
O513 O 0.54825 0.92882 0.1214 0.0
O514 O 0.62284 0.20572 0.05337 0.0
O515 O 0.57251 0.0901 0.86277 0.0
H516 H 0.50237 0.83584 0.90415 0.0
H517 H 0.56075 0.85776 0.91411 0.0
H518 H 0.55131 0.82061 0.92968 0.0
H519 H 0.54691 0.81978 0.89886 0.0
H520 H 0.46101 0.8532 0.93979 0.0
H521 H 0.56243 0.88189 0.95028 0.0
H522 H 0.46906 0.92991 0.93585 0.0
H523 H 0.44062 0.88956 0.94715 0.0
H524 H 0.46513 0.92391 0.96624 0.0
H525 H 0.60389 0.93751 0.95626 0.0
H526 H 0.59412 0.96945 0.94992 0.0
H527 H 0.58902 0.95353 0.97845 0.0
H528 H 0.60043 0.07698 0.842 0.0
H529 H 0.64604 0.16504 0.83665 0.0
H530 H 0.59672 0.10747 0.8129 0.0
H531 H 0.57679 0.12125 0.82879 0.0
H532 H 0.61403 0.07337 0.88265 0.0
H533 H 0.52079 0.06978 0.88806 0.0
H534 H 0.61623 0.04765 0.93996 0.0
H535 H 0.60269 0.01479 0.91931 0.0
H536 H 0.63545 0.05564 0.91211 0.0
H537 H 0.48343 0.04146 0.91802 0.0
H538 H 0.4866 0.00735 0.92963 0.0
H539 H 0.50437 0.04581 0.94494 0.0
H540 H 0.64613 0.22089 0.02217 0.0
H541 H 0.65953 0.18134 0.03792 0.0
H542 H 0.56362 0.15812 0.06121 0.0
H543 H 0.64047 0.11095 0.00981 0.0
H544 H 0.67246 0.13987 0.02877 0.0
H545 H 0.64423 0.09815 0.03804 0.0
H546 H 0.51742 0.10418 0.05883 0.0
H547 H 0.51993 0.07618 0.03858 0.0
H548 H 0.52957 0.07507 0.0682 0.0
H549 H 0.50606 0.8903 0.10708 0.0
H550 H 0.5181 0.84716 0.11994 0.0
H551 H 0.55099 0.87837 0.10292 0.0
H552 H 0.55587 0.8782 0.13357 0.0
H553 H 0.60322 0.97144 0.10278 0.0
H554 H 0.49958 0.93734 0.10583 0.0
H555 H 0.61854 0.01094 0.04976 0.0
H556 H 0.62703 0.04247 0.07062 0.0
H557 H 0.63863 0.01172 0.07642 0.0
H558 H 0.47496 0.9621 0.08428 0.0
H559 H 0.50192 0.00234 0.07206 0.0
H560 H 0.4895 0.96574 0.05527 0.0
H561 H 0.53418 0.9744 0.92434 0.0
H562 H 0.56931 0.08132 0.95772 0.0
H563 H 0.58036 0.10348 0.99598 0.0
H564 H 0.57819 0.05968 0.07098 0.0
H565 H 0.53872 0.95197 0.0376 0.0
H566 H 0.52657 0.92969 0.99955 0.0
H567 H 0.6137 0.25662 0.0454 0.0
H568 H 0.63427 0.26651 0.01793 0.0
H569 H 0.59719 0.22724 0.02208 0.0
C570 C 0.70463 0.5324 0.0566 0.0
C571 C 0.68928 0.50251 0.07261 0.0
C572 C 0.66063 0.517 0.10093 0.0
C573 C 0.62768 0.49155 0.09924 0.0
C574 C 0.60196 0.49668 0.10643 0.0
C575 C 0.60953 0.52809 0.11511 0.0
C576 C 0.64294 0.55372 0.1169 0.0
C577 C 0.6681 0.5475 0.11027 0.0
C578 C 0.56675 0.46861 0.10467 0.0
C579 C 0.65216 0.58788 0.12537 0.0
C580 C 0.48182 0.59377 0.99159 0.0
C581 C 0.50276 0.59548 0.01144 0.0
C582 C 0.50043 0.56606 0.04652 0.0
C583 C 0.53046 0.59152 0.05551 0.0
C584 C 0.54398 0.58684 0.07568 0.0
C585 C 0.52733 0.55603 0.08702 0.0
C586 C 0.49686 0.53054 0.07825 0.0
C587 C 0.48368 0.53602 0.05818 0.0
C588 C 0.57636 0.61468 0.08471 0.0
C589 C 0.47862 0.4973 0.08983 0.0
C590 C 0.45603 0.61351 0.21239 0.0
C591 C 0.48972 0.63402 0.20769 0.0
C592 C 0.51005 0.62048 0.2036 0.0
C593 C 0.49633 0.58573 0.20429 0.0
C594 C 0.46269 0.56513 0.21002 0.0
C595 C 0.44299 0.5794 0.21423 0.0
C596 C 0.54609 0.64323 0.19825 0.0
C597 C 0.44744 0.52805 0.21117 0.0
C598 C 0.658 0.5146 0.27976 0.0
C599 C 0.62235 0.50133 0.28759 0.0
C600 C 0.59944 0.53246 0.26988 0.0
C601 C 0.61278 0.56463 0.26155 0.0
C602 C 0.59823 0.57149 0.24287 0.0
C603 C 0.56923 0.54553 0.23272 0.0
C604 C 0.55481 0.51318 0.24177 0.0
C605 C 0.5701 0.50697 0.26029 0.0
C606 C 0.61403 0.60634 0.2338 0.0
C607 C 0.52333 0.48518 0.23181 0.0
C608 C 0.58262 0.53482 0.12109 0.0
C609 C 0.56628 0.54036 0.10308 0.0
C610 C 0.54284 0.54988 0.10722 0.0
C611 C 0.53568 0.55456 0.13 0.0
C612 C 0.51332 0.56556 0.13477 0.0
C613 C 0.50709 0.57085 0.15725 0.0
C614 C 0.52279 0.5651 0.17582 0.0
C615 C 0.51717 0.57106 0.1987 0.0
C616 C 0.53251 0.5643 0.21677 0.0
C617 C 0.55393 0.5522 0.21265 0.0
C618 C 0.56064 0.54695 0.18987 0.0
C619 C 0.58279 0.53568 0.18509 0.0
C620 C 0.58973 0.53127 0.16259 0.0
C621 C 0.5748 0.53798 0.14402 0.0
C622 C 0.55165 0.54844 0.14846 0.0
C623 C 0.5449 0.55335 0.1714 0.0
C624 C 0.40363 0.6342 0.18673 0.0
C625 C 0.4354 0.64985 0.20107 0.0
O626 O 0.68577 0.51245 0.09432 0.0
O627 O 0.61515 0.52673 0.28729 0.0
O628 O 0.43555 0.62596 0.21503 0.0
O629 O 0.48708 0.5694 0.02665 0.0
H630 H 0.66467 0.484 0.06556 0.0
H631 H 0.6883 0.54324 0.05534 0.0
H632 H 0.72916 0.55169 0.06319 0.0
H633 H 0.70764 0.52479 0.03912 0.0
H634 H 0.62212 0.4676 0.09262 0.0
H635 H 0.69377 0.56679 0.11169 0.0
H636 H 0.55383 0.47394 0.09079 0.0
H637 H 0.5653 0.44462 0.1008 0.0
H638 H 0.55343 0.46627 0.12091 0.0
H639 H 0.67863 0.60614 0.12239 0.0
H640 H 0.63684 0.5967 0.11673 0.0
H641 H 0.64743 0.58702 0.14405 0.0
H642 H 0.52805 0.60067 0.00684 0.0
H643 H 0.49425 0.59059 0.97609 0.0
H644 H 0.46019 0.56773 0.99102 0.0
H645 H 0.47639 0.6352 0.99644 0.0
H646 H 0.5436 0.61509 0.04685 0.0
H647 H 0.46049 0.51657 0.05121 0.0
H648 H 0.57393 0.61928 0.1031 0.0
H649 H 0.59562 0.60751 0.08345 0.0
H650 H 0.58481 0.63803 0.07508 0.0
H651 H 0.45526 0.47997 0.08081 0.0
H652 H 0.4946 0.48602 0.09053 0.0
H653 H 0.47281 0.50053 0.10776 0.0
H654 H 0.45599 0.65925 0.18849 0.0
H655 H 0.50012 0.6606 0.20721 0.0
H656 H 0.41704 0.56388 0.21824 0.0
H657 H 0.55121 0.63853 0.18049 0.0
H658 H 0.55342 0.66976 0.19985 0.0
H659 H 0.5617 0.63811 0.20998 0.0
H660 H 0.42073 0.5154 0.21538 0.0
H661 H 0.45052 0.51847 0.19446 0.0
H662 H 0.46042 0.52164 0.22437 0.0
H663 H 0.60633 0.48144 0.27523 0.0
H664 H 0.66426 0.49459 0.28007 0.0
H665 H 0.66092 0.52393 0.26193 0.0
H666 H 0.67564 0.53526 0.29096 0.0
H667 H 0.63516 0.5842 0.26936 0.0
H668 H 0.559 0.48231 0.26739 0.0
H669 H 0.61927 0.60646 0.21523 0.0
H670 H 0.59665 0.61583 0.2357 0.0
H671 H 0.6374 0.62341 0.24291 0.0
H672 H 0.51424 0.46188 0.24163 0.0
H673 H 0.50381 0.49207 0.23157 0.0
H674 H 0.52762 0.48058 0.2138 0.0
H675 H 0.57244 0.53792 0.08553 0.0
H676 H 0.50063 0.57049 0.12116 0.0
H677 H 0.4898 0.57952 0.15989 0.0
H678 H 0.52794 0.56882 0.23427 0.0
H679 H 0.59525 0.5304 0.19868 0.0
H680 H 0.60707 0.52265 0.15991 0.0
H681 H 0.40293 0.65312 0.17562 0.0
H682 H 0.40276 0.61448 0.17556 0.0
H683 H 0.38142 0.62294 0.19781 0.0
In684 In 0.63199 0.41269 0.41065 0.0
O685 O 0.68679 0.43741 0.4208 0.0
O686 O 0.67286 0.42039 0.38651 0.0
C687 C 0.60308 0.42257 0.4473 0.0
C688 C 0.61785 0.44151 0.376 0.0
C689 C 0.61505 0.34882 0.41626 0.0
O690 O 0.63398 0.43876 0.44427 0.0
O691 O 0.58693 0.40265 0.43131 0.0
O692 O 0.60442 0.35818 0.39963 0.0
O693 O 0.63323 0.37147 0.43012 0.0
C694 C 0.69572 0.4335 0.40116 0.0
O695 O 0.6046 0.41045 0.37786 0.0
O696 O 0.63711 0.45791 0.39227 0.0
In697 In 0.22765 0.61844 0.58257 0.0
O698 O 0.25915 0.59614 0.5711 0.0
O699 O 0.26158 0.61047 0.60603 0.0
C700 C 0.19089 0.60884 0.54453 0.0
C701 C 0.18633 0.58613 0.61745 0.0
C702 C 0.27353 0.68314 0.57913 0.0
O703 O 0.20566 0.59295 0.5484 0.0
O704 O 0.19331 0.6283 0.56046 0.0
O705 O 0.24881 0.67341 0.59215 0.0
O706 O 0.27408 0.6605 0.56776 0.0
C707 C 0.27202 0.59904 0.59067 0.0
O708 O 0.20437 0.61727 0.61704 0.0
O709 O 0.18763 0.5716 0.59951 0.0
In710 In 0.63954 0.23479 0.75382 0.0
O711 O 0.69263 0.27196 0.7428 0.0
O712 O 0.68066 0.26769 0.77824 0.0
C713 C 0.6147 0.19411 0.71708 0.0
C714 C 0.63085 0.19325 0.78829 0.0
C715 C 0.61319 0.27432 0.75067 0.0
O716 O 0.64541 0.21129 0.72084 0.0
O717 O 0.59702 0.1978 0.7317 0.0
O718 O 0.5997 0.248 0.76225 0.0
O719 O 0.63934 0.28019 0.7406 0.0
C720 C 0.70233 0.28196 0.76306 0.0
O721 O 0.61843 0.21179 0.7886 0.0
O722 O 0.64684 0.19503 0.77045 0.0
In723 In 0.40494 0.61339 0.90773 0.0
O724 O 0.35347 0.56888 0.91304 0.0
O725 O 0.35695 0.60981 0.89499 0.0
C726 C 0.43641 0.61222 0.94609 0.0
C727 C 0.41808 0.58356 0.87313 0.0
C728 C 0.42945 0.67914 0.90817 0.0
O729 O 0.40573 0.60161 0.9457 0.0
O730 O 0.45088 0.62232 0.92715 0.0
O731 O 0.43508 0.66452 0.89206 0.0
O732 O 0.41066 0.66044 0.9237 0.0
C733 C 0.33863 0.58068 0.90195 0.0
O734 O 0.42009 0.61132 0.87082 0.0
O735 O 0.41108 0.57166 0.89301 0.0
In736 In 0.80802 0.41104 0.07686 0.0
O737 O 0.82536 0.40322 0.11215 0.0
O738 O 0.84232 0.45231 0.10039 0.0
C739 C 0.76128 0.3468 0.07019 0.0
C740 C 0.77098 0.44045 0.07438 0.0
C741 C 0.85849 0.4303 0.04725 0.0
O742 O 0.7645 0.36159 0.08898 0.0
O743 O 0.78254 0.36394 0.05542 0.0
O744 O 0.83955 0.44227 0.04714 0.0
O745 O 0.85189 0.40856 0.06236 0.0
C746 C 0.84201 0.43397 0.11626 0.0
O747 O 0.77719 0.42863 0.05688 0.0
O748 O 0.78298 0.43703 0.09277 0.0
In749 In 0.41396 0.80794 0.24133 0.0
O750 O 0.40624 0.75723 0.25126 0.0
O751 O 0.4501 0.78999 0.23363 0.0
C752 C 0.42289 0.84099 0.28122 0.0
C753 C 0.44715 0.8483 0.20606 0.0
C754 C 0.34805 0.77394 0.23351 0.0
O755 O 0.4265 0.81601 0.27967 0.0
O756 O 0.41641 0.84996 0.2625 0.0
O757 O 0.36799 0.76805 0.22292 0.0
O758 O 0.36153 0.79786 0.24741 0.0
C759 C 0.43224 0.76145 0.24174 0.0
O760 O 0.41656 0.82782 0.20523 0.0
O761 O 0.46057 0.84943 0.22507 0.0
C762 C 0.25675 0.73921 0.24456 0.0
C763 C 0.24174 0.70976 0.23156 0.0
C764 C 0.29108 0.76018 0.24465 0.0
C765 C 0.31173 0.75283 0.23145 0.0
H766 H 0.24188 0.74596 0.25497 0.0
H767 H 0.30149 0.78211 0.2554 0.0
S768 S 0.28442 0.68061 0.19252 0.0
N769 N 0.24992 0.67565 0.20381 0.0
N770 N 0.31446 0.7151 0.20385 0.0
C771 C 0.29696 0.7242 0.21763 0.0
C772 C 0.26199 0.70275 0.21765 0.0
C773 C 0.61772 0.27526 0.4409 0.0
C774 C 0.60611 0.2523 0.42271 0.0
C775 C 0.61923 0.30586 0.43892 0.0
C776 C 0.60931 0.3148 0.41865 0.0
H777 H 0.62641 0.26983 0.45663 0.0
H778 H 0.629 0.32296 0.45326 0.0
S779 S 0.57615 0.26318 0.3662 0.0
N780 N 0.58368 0.24026 0.38394 0.0
N781 N 0.58659 0.29783 0.38023 0.0
C782 C 0.59676 0.29175 0.40055 0.0
C783 C 0.59524 0.26056 0.40255 0.0
C784 C 0.33518 0.58733 0.62319 0.0
C785 C 0.35988 0.59481 0.60676 0.0
C786 C 0.30593 0.58694 0.61748 0.0
C787 C 0.30011 0.59378 0.59506 0.0
H788 H 0.33909 0.58304 0.64087 0.0
H789 H 0.2882 0.58232 0.63091 0.0
S790 S 0.35654 0.61465 0.54556 0.0
N791 N 0.3764 0.60918 0.56699 0.0
N792 N 0.32094 0.60765 0.55618 0.0
C793 C 0.32392 0.6001 0.57821 0.0
C794 C 0.35399 0.60096 0.58409 0.0
C795 C 0.77921 0.36632 0.75848 0.0
C796 C 0.79104 0.37281 0.78125 0.0
C797 C 0.75176 0.33581 0.75225 0.0
C798 C 0.73488 0.31095 0.76864 0.0
H799 H 0.79038 0.38548 0.74563 0.0
H800 H 0.74258 0.33246 0.7348 0.0
S801 S 0.75777 0.31429 0.82994 0.0
N802 N 0.78516 0.35082 0.81975 0.0
N803 N 0.7336 0.29368 0.80808 0.0
C804 C 0.74746 0.31648 0.79114 0.0
C805 C 0.77546 0.34738 0.79744 0.0
C806 C 0.47287 0.76491 0.93427 0.0
C807 C 0.4848 0.78576 0.915 0.0
C808 C 0.4536 0.73052 0.93179 0.0
C809 C 0.44641 0.71552 0.91 0.0
H810 H 0.47889 0.77507 0.95147 0.0
H811 H 0.44547 0.71549 0.94711 0.0
S812 S 0.47135 0.75862 0.85414 0.0
N813 N 0.48719 0.78871 0.8734 0.0
N814 N 0.45199 0.72385 0.86881 0.0
C815 C 0.4579 0.73588 0.89061 0.0
C816 C 0.47689 0.77099 0.8931 0.0
C817 C 0.70581 0.46208 0.05762 0.0
C818 C 0.71095 0.48691 0.07361 0.0
C819 C 0.72575 0.44754 0.05759 0.0
C820 C 0.75132 0.45712 0.07371 0.0
H821 H 0.68615 0.45382 0.04503 0.0
H822 H 0.72068 0.42823 0.04519 0.0
S823 S 0.77774 0.52348 0.1175 0.0
N824 N 0.74591 0.52261 0.10454 0.0
N825 N 0.78239 0.49432 0.10503 0.0
C826 C 0.75737 0.48244 0.0894 0.0
C827 C 0.73754 0.49769 0.08916 0.0
C828 C 0.32334 0.77668 0.58643 0.0
C829 C 0.35429 0.78475 0.57718 0.0
C830 C 0.29714 0.7438 0.5869 0.0
C831 C 0.30087 0.71787 0.57798 0.0
H832 H 0.31955 0.7959 0.59363 0.0
H833 H 0.27388 0.73869 0.59436 0.0
S834 S 0.37701 0.72563 0.55229 0.0
N835 N 0.38716 0.76384 0.5593 0.0
N836 N 0.33803 0.70242 0.55984 0.0
C837 C 0.33159 0.72563 0.56855 0.0
C838 C 0.35826 0.75894 0.56827 0.0
C839 C 0.61268 0.35463 0.74535 0.0
C840 C 0.57925 0.34506 0.74838 0.0
C841 C 0.62317 0.3314 0.74585 0.0
C842 C 0.60077 0.29774 0.7498 0.0
H843 H 0.63099 0.38035 0.74258 0.0
H844 H 0.64921 0.34002 0.74351 0.0
S845 S 0.51038 0.25941 0.7578 0.0
N846 N 0.52349 0.2992 0.75445 0.0
N847 N 0.54358 0.25562 0.7562 0.0
C848 C 0.56728 0.28765 0.75281 0.0
C849 C 0.55642 0.31127 0.75188 0.0
C850 C 0.25353 0.55389 0.87582 0.0
C851 C 0.23437 0.51988 0.88111 0.0
C852 C 0.28732 0.57336 0.88207 0.0
C853 C 0.30408 0.56021 0.89433 0.0
H854 H 0.24095 0.5665 0.86963 0.0
H855 H 0.29972 0.59965 0.87862 0.0
S856 S 0.25233 0.45529 0.91985 0.0
N857 N 0.22814 0.46241 0.89104 0.0
N858 N 0.29158 0.50518 0.91825 0.0
C859 C 0.28747 0.52623 0.89679 0.0
C860 C 0.24939 0.50127 0.88062 0.0
C861 C 0.7018 0.27224 0.03497 0.0
C862 C 0.67328 0.25714 0.04861 0.0
C863 C 0.73081 0.30001 0.04275 0.0
C864 C 0.73248 0.31401 0.06446 0.0
H865 H 0.70129 0.26331 0.01773 0.0
H866 H 0.75165 0.31142 0.03119 0.0
S867 S 0.66539 0.28244 0.10756 0.0
N868 N 0.64903 0.25712 0.08544 0.0
N869 N 0.7037 0.30932 0.10015 0.0
C870 C 0.7047 0.2982 0.07878 0.0
C871 C 0.67505 0.26987 0.07082 0.0
C872 C 0.46097 0.71111 0.20865 0.0
C873 C 0.43842 0.67849 0.21528 0.0
C874 C 0.4607 0.73814 0.21883 0.0
C875 C 0.43752 0.73359 0.23583 0.0
H876 H 0.47801 0.71575 0.19472 0.0
H877 H 0.47742 0.76261 0.21223 0.0
S878 S 0.37631 0.65349 0.26158 0.0
N879 N 0.3949 0.64338 0.2418 0.0
N880 N 0.39389 0.6942 0.26067 0.0
C881 C 0.4164 0.7013 0.24379 0.0
C882 C 0.41692 0.67375 0.23355 0.0
C883 C 0.76853 0.44464 0.3666 0.0
C884 C 0.78733 0.4386 0.38268 0.0
C885 C 0.73996 0.44501 0.37308 0.0
C886 C 0.72914 0.43959 0.39593 0.0
H887 H 0.77516 0.44764 0.34863 0.0
H888 H 0.72551 0.44831 0.3599 0.0
S889 S 0.76972 0.42356 0.44491 0.0
N890 N 0.79323 0.4276 0.42269 0.0
N891 N 0.73986 0.42919 0.4349 0.0
C892 C 0.7484 0.43504 0.41244 0.0
C893 C 0.77731 0.43416 0.40579 0.0
C894 C 0.15238 0.63299 0.49663 0.0
C895 C 0.15769 0.61844 0.47716 0.0
C896 C 0.16147 0.62818 0.51858 0.0
C897 C 0.17612 0.60854 0.52194 0.0
H898 H 0.14237 0.64933 0.49476 0.0
H899 H 0.15817 0.64107 0.53289 0.0
S900 S 0.19203 0.56203 0.47686 0.0
N901 N 0.17618 0.58152 0.46286 0.0
N902 N 0.1929 0.57214 0.5041 0.0
C903 C 0.17973 0.59224 0.50279 0.0
C904 C 0.17067 0.59732 0.48041 0.0
C905 C 0.5503 0.12737 0.67853 0.0
C906 C 0.56916 0.12172 0.66234 0.0
C907 C 0.56537 0.15129 0.69577 0.0
C908 C 0.59998 0.17041 0.69773 0.0
H909 H 0.52358 0.1128 0.6781 0.0
H910 H 0.54962 0.15436 0.70792 0.0
S911 S 0.66068 0.16553 0.6595 0.0
N912 N 0.62436 0.13746 0.64915 0.0
N913 N 0.6528 0.18243 0.68172 0.0
C914 C 0.61924 0.16535 0.68151 0.0
C915 C 0.60382 0.14099 0.66383 0.0
C916 C 0.42099 0.55694 0.80003 0.0
C917 C 0.41731 0.51602 0.80667 0.0
C918 C 0.42496 0.5818 0.82504 0.0
C919 C 0.41874 0.56429 0.85358 0.0
H920 H 0.42673 0.5675 0.78303 0.0
H921 H 0.43035 0.60701 0.82288 0.0
S922 S 0.39386 0.46819 0.86985 0.0
N923 N 0.39657 0.46524 0.84119 0.0
N924 N 0.40089 0.50582 0.87818 0.0
C925 C 0.40649 0.52145 0.85798 0.0
C926 C 0.40204 0.4951 0.83465 0.0
C927 C 0.92049 0.4792 0.00083 0.0
C928 C 0.94069 0.46484 1.00005 0.0
C929 C 0.89376 0.46754 0.01593 0.0
C930 C 0.88643 0.44139 0.0311 0.0
H931 H 0.92559 0.49986 0.98984 0.0
H932 H 0.87901 0.47948 0.01589 0.0
S933 S 0.93245 0.39607 0.03642 0.0
N934 N 0.95201 0.42357 0.01612 0.0
N935 N 0.90183 0.40168 0.04456 0.0
C936 C 0.90654 0.42693 0.03062 0.0
C937 C 0.93369 0.43872 0.01515 0.0
C938 C 0.46916 0.86882 0.14356 0.0
C939 C 0.50377 0.88877 0.14413 0.0
C940 C 0.45083 0.85756 0.16379 0.0
C941 C 0.46642 0.86552 0.1854 0.0
H942 H 0.45622 0.86082 0.12731 0.0
H943 H 0.42437 0.84121 0.16238 0.0
S944 S 0.55629 0.91935 0.19635 0.0
N945 N 0.55278 0.91784 0.16814 0.0
N946 N 0.51837 0.89664 0.20621 0.0
C947 C 0.50087 0.8868 0.18628 0.0
C948 C 0.51954 0.89835 0.16565 0.0
C949 C 0.6014 0.45211 0.31393 0.0
C950 C 0.61738 0.48668 0.3114 0.0
C951 C 0.59997 0.4377 0.33523 0.0
C952 C 0.61484 0.45729 0.35483 0.0
H953 H 0.59081 0.43603 0.29915 0.0
H954 H 0.58839 0.41101 0.33605 0.0
S955 S 0.65742 0.549 0.35782 0.0
N956 N 0.64648 0.54013 0.33064 0.0
N957 N 0.64407 0.51308 0.37069 0.0
C958 C 0.62964 0.49186 0.35279 0.0
C959 C 0.63092 0.50654 0.33109 0.0
C960 C 0.42397 0.85464 0.3454 0.0
C961 C 0.41054 0.87558 0.34745 0.0
C962 C 0.42947 0.84488 0.32389 0.0
C963 C 0.42174 0.85566 0.30353 0.0
H964 H 0.42918 0.84476 0.36061 0.0
H965 H 0.4388 0.82784 0.32324 0.0
S966 S 0.38703 0.91165 0.29934 0.0
N967 N 0.39016 0.90725 0.32713 0.0
N968 N 0.40123 0.88962 0.28676 0.0
C969 C 0.40946 0.87762 0.30528 0.0
C970 C 0.40354 0.88728 0.3272 0.0
C971 C 0.53697 0.3999 0.49221 0.0
C972 C 0.55535 0.41419 0.51236 0.0
C973 C 0.55257 0.40435 0.471 0.0
C974 C 0.58717 0.42325 0.46907 0.0
H975 H 0.5104 0.38408 0.49301 0.0
H976 H 0.5374 0.39178 0.45616 0.0
S977 S 0.64636 0.46823 0.51635 0.0
N978 N 0.60985 0.44969 0.52882 0.0
N979 N 0.63918 0.45833 0.48891 0.0
C980 C 0.60573 0.43912 0.48886 0.0
C981 C 0.58982 0.43443 0.51051 0.0
C982 C 0.142 0.51439 0.6584 0.0
C983 C 0.15017 0.53005 0.68001 0.0
C984 C 0.15184 0.53284 0.6381 0.0
C985 C 0.17001 0.56766 0.63862 0.0
H986 H 0.12929 0.48765 0.65719 0.0
H987 H 0.14651 0.51961 0.62194 0.0
S988 S 0.19346 0.6206 0.69077 0.0
N989 N 0.17454 0.5824 0.70066 0.0
N990 N 0.19257 0.61708 0.66258 0.0
C991 C 0.17611 0.58362 0.66007 0.0
C992 C 0.16635 0.56482 0.68074 0.0
C993 C 0.61431 0.15713 0.86047 0.0
C994 C 0.62817 0.12632 0.85544 0.0
C995 C 0.61274 0.17819 0.83486 0.0
C996 C 0.63003 0.17383 0.80813 0.0
H997 H 0.60218 0.15756 0.87611 0.0
H998 H 0.60187 0.19385 0.83564 0.0
S999 S 0.6762 0.1189 0.79759 0.0
N1000 N 0.66649 0.10936 0.82542 0.0
N1001 N 0.66466 0.1455 0.78766 0.0
C1002 C 0.65102 0.15039 0.80641 0.0
C1003 C 0.65378 0.12877 0.83047 0.0
C1004 C 0.45393 0.60347 0.02051 0.0
C1005 C 0.49985 0.623 0.01758 0.0
C1006 C 0.43201 0.59751 0.9936 0.0
C1007 C 0.45459 0.61567 0.96734 0.0
H1008 H 0.44112 0.59098 0.03599 0.0
H1009 H 0.40532 0.58331 0.99329 0.0
S1010 S 0.55625 0.67373 0.96075 0.0
N1011 N 0.55534 0.66579 0.98902 0.0
N1012 N 0.51813 0.65663 0.94903 0.0
C1013 C 0.49896 0.6418 0.96728 0.0
C1014 C 0.52263 0.64909 0.99268 0.0
C1015 C 0.87289 0.43929 0.18976 0.0
C1016 C 0.89233 0.4855 0.19166 0.0
C1017 C 0.85785 0.42214 0.16133 0.0
C1018 C 0.85637 0.44802 0.13868 0.0
H1019 H 0.8761 0.42502 0.20304 0.0
H1020 H 0.84933 0.3963 0.158 0.0
S1021 S 0.88318 0.54699 0.14421 0.0
N1022 N 0.89311 0.54205 0.17115 0.0
N1023 N 0.86707 0.51174 0.12864 0.0
C1024 C 0.86758 0.49052 0.14392 0.0
C1025 C 0.88256 0.50949 0.17102 0.0
loop_
_geom_bond_atom_site_label_1
_geom_bond_atom_site_label_2
_geom_bond_distance
_geom_bond_site_symmetry_2
_ccdc_geom_bond_type
C0 C1 1.560 . S
C0 H61 0.959 . S
C0 H62 0.959 . S
C0 H63 0.960 . S
C1 C0 1.560 . S
C1 O56 1.426 . S
C1 H60 0.980 . S
C2 C3 1.407 . S
C2 C7 1.418 . S
C2 O56 1.334 . S
C3 C2 1.407 . S
C3 C4 1.360 . S
C3 H64 0.929 . S
C4 C3 1.360 . S
C4 C5 1.401 . S
C4 C8 1.527 . S
C5 C4 1.401 . S
C5 C6 1.405 . S
C5 C38 1.587 . S
C6 C5 1.405 . S
C6 C7 1.332 . S
C6 C9 1.496 . S
C7 C2 1.418 . S
C7 C6 1.332 . S
C7 H65 0.929 . S
C8 C4 1.527 . S
C8 H66 0.959 . S
C8 H67 0.961 . S
C8 H68 0.961 . S
C9 C6 1.496 . S
C9 H69 0.960 . S
C9 H70 0.960 . S
C9 H71 0.961 . S
C10 C11 1.517 . S
C10 H73 0.961 . S
C10 H74 0.960 . S
C10 H75 0.959 . S
C11 C10 1.517 . S
C11 O59 1.468 . S
C11 H72 0.980 . S
C12 C13 1.349 . S
C12 C17 1.367 . S
C12 O59 1.408 . S
C13 C12 1.349 . S
C13 C14 1.407 . S
C13 H76 0.930 . S
C14 C13 1.407 . S
C14 C15 1.449 1_655 S
C14 C18 1.535 1_655 S
C15 C14 1.449 1_455 S
C15 C16 1.384 1_455 S
C15 C40 1.553 . S
C16 C15 1.384 1_655 S
C16 C17 1.364 . S
C16 C19 1.450 1_655 S
C17 C12 1.367 . S
C17 C16 1.364 . S
C17 H77 0.931 . S
C18 C14 1.535 1_455 S
C18 H78 0.959 . S
C18 H79 0.961 . S
C18 H80 0.959 1_455 S
C19 C16 1.450 1_455 S
C19 H81 0.959 1_455 S
C19 H82 0.960 . S
C19 H83 0.960 1_455 S
C20 C21 1.309 . S
C20 C25 1.304 . S
C20 O58 1.435 . S
C21 C20 1.309 . S
C21 C22 1.476 . S
C21 H85 0.930 . S
C22 C21 1.476 . S
C22 C23 1.400 . S
C22 C26 1.567 . S
C23 C22 1.400 . S
C23 C24 1.373 . S
C23 C45 1.432 . S
C24 C23 1.373 . S
C24 C25 1.339 . S
C24 C27 1.530 . S
C25 C20 1.304 . S
C25 C24 1.339 . S
C25 H86 0.930 . S
C26 C22 1.567 . S
C26 H87 0.961 . S
C26 H88 0.960 . S
C26 H89 0.958 . S
C27 C24 1.530 . S
C27 H90 0.961 . S
C27 H91 0.960 . S
C27 H92 0.960 . S
C28 C29 1.530 . S
C28 H94 0.961 . S
C28 H95 0.961 . S
C28 H96 0.959 . S
C29 C28 1.530 . S
C29 O57 1.412 . S
C29 H93 0.980 . S
C30 C31 1.288 . S
C30 C35 1.377 . S
C30 O57 1.393 . S
C31 C30 1.288 . S
C31 C32 1.369 . S
C31 H97 0.932 . S
C32 C31 1.369 . S
C32 C33 1.398 . S
C32 C36 1.527 . S
C33 C32 1.398 . S
C33 C34 1.380 . S
C33 C47 1.497 . S
C34 C33 1.380 . S
C34 C35 1.383 . S
C34 C37 1.603 . S
C35 C30 1.377 . S
C35 C34 1.383 . S
C35 H98 0.929 . S
C36 C32 1.527 . S
C36 H99 0.961 . S
C36 H100 0.959 . S
C36 H101 0.959 . S
C37 C34 1.603 . S
C37 H102 0.960 . S
C37 H103 0.962 . S
C37 H104 0.961 . S
C38 C5 1.587 . S
C38 C39 1.360 . S
C38 C51 1.412 . S
C39 C38 1.360 . S
C39 C40 1.365 . S
C39 H105 0.929 . S
C40 C15 1.553 . S
C40 C39 1.365 . S
C40 C41 1.404 . S
C41 C40 1.404 . S
C41 C42 1.395 1_455 S
C41 C52 1.451 . S
C42 C41 1.395 1_655 S
C42 C43 1.322 . S
C42 H106 0.930 . S
C43 C42 1.322 . S
C43 C44 1.459 . S
C43 H107 0.929 . S
C44 C43 1.459 . S
C44 C45 1.445 . S
C44 C53 1.395 1_655 S
C45 C23 1.432 . S
C45 C44 1.445 . S
C45 C46 1.370 . S
C46 C45 1.370 . S
C46 C47 1.438 1_655 S
C46 H108 0.930 . S
C47 C33 1.497 . S
C47 C46 1.438 1_455 S
C47 C48 1.360 . S
C48 C47 1.360 . S
C48 C49 1.401 . S
C48 C53 1.446 . S
C49 C48 1.401 . S
C49 C50 1.347 . S
C49 H109 0.929 . S
C50 C49 1.347 . S
C50 C51 1.455 . S
C50 H110 0.930 . S
C51 C38 1.412 . S
C51 C50 1.455 . S
C51 C52 1.331 . S
C52 C41 1.451 . S
C52 C51 1.331 . S
C52 C53 1.497 . S
C53 C44 1.395 1_455 S
C53 C48 1.446 . S
C53 C52 1.497 . S
C54 C55 1.582 . S
C54 H111 0.962 . S
C54 H112 0.959 . S
C54 H113 0.958 . S
C55 C54 1.582 . S
C55 O58 1.458 . S
C55 H84 0.980 . S
O56 C1 1.426 . S
O56 C2 1.334 . S
O57 C29 1.412 . S
O57 C30 1.393 . S
O58 C20 1.435 . S
O58 C55 1.458 . S
O59 C11 1.468 . S
O59 C12 1.408 . S
H60 C1 0.980 . S
H61 C0 0.959 . S
H62 C0 0.959 . S
H63 C0 0.960 . S
H64 C3 0.929 . S
H65 C7 0.929 . S
H66 C8 0.959 . S
H67 C8 0.961 . S
H68 C8 0.961 . S
H69 C9 0.960 . S
H70 C9 0.960 . S
H71 C9 0.961 . S
H72 C11 0.980 . S
H73 C10 0.961 . S
H74 C10 0.960 . S
H75 C10 0.959 . S
H76 C13 0.930 . S
H77 C17 0.931 . S
H78 C18 0.959 . S
H79 C18 0.961 . S
H80 C18 0.959 1_655 S
H81 C19 0.959 1_655 S
H82 C19 0.960 . S
H83 C19 0.960 1_655 S
H84 C55 0.980 . S
H85 C21 0.930 . S
H86 C25 0.930 . S
H87 C26 0.961 . S
H88 C26 0.960 . S
H89 C26 0.958 . S
H90 C27 0.961 . S
H91 C27 0.960 . S
H92 C27 0.960 . S
H93 C29 0.980 . S
H94 C28 0.961 . S
H95 C28 0.961 . S
H96 C28 0.959 . S
H97 C31 0.932 . S
H98 C35 0.929 . S
H99 C36 0.961 . S
H100 C36 0.959 . S
H101 C36 0.959 . S
H102 C37 0.960 . S
H103 C37 0.962 . S
H104 C37 0.961 . S
H105 C39 0.929 . S
H106 C42 0.930 . S
H107 C43 0.929 . S
H108 C46 0.930 . S
H109 C49 0.929 . S
H110 C50 0.930 . S
H111 C54 0.962 . S
H112 C54 0.959 . S
H113 C54 0.958 . S
C114 C115 1.560 . S
C114 H175 0.959 . S
C114 H176 0.959 . S
C114 H177 0.960 . S
C115 C114 1.560 . S
C115 O170 1.426 . S
C115 H174 0.980 . S
C116 C117 1.407 . S
C116 C121 1.418 . S
C116 O170 1.334 . S
C117 C116 1.407 . S
C117 C118 1.360 . S
C117 H178 0.929 . S
C118 C117 1.360 . S
C118 C119 1.401 . S
C118 C122 1.527 . S
C119 C118 1.401 . S
C119 C120 1.405 . S
C119 C152 1.587 . S
C120 C119 1.405 . S
C120 C121 1.332 . S
C120 C123 1.496 . S
C121 C116 1.418 . S
C121 C120 1.332 . S
C121 H179 0.929 . S
C122 C118 1.527 . S
C122 H180 0.959 . S
C122 H181 0.961 . S
C122 H182 0.961 . S
C123 C120 1.496 . S
C123 H183 0.960 . S
C123 H184 0.960 . S
C123 H185 0.961 . S
C124 C125 1.517 . S
C124 H187 0.961 . S
C124 H188 0.960 . S
C124 H189 0.959 . S
C125 C124 1.517 . S
C125 O173 1.468 . S
C125 H186 0.980 . S
C126 C127 1.349 . S
C126 C131 1.367 . S
C126 O173 1.408 . S
C127 C126 1.349 . S
C127 C128 1.407 . S
C127 H190 0.930 . S
C128 C127 1.407 . S
C128 C129 1.449 . S
C128 C132 1.535 . S
C129 C128 1.449 . S
C129 C130 1.384 . S
C129 C154 1.553 . S
C130 C129 1.384 . S
C130 C131 1.364 . S
C130 C133 1.450 . S
C131 C126 1.367 . S
C131 C130 1.364 . S
C131 H191 0.931 . S
C132 C128 1.535 . S
C132 H192 0.959 . S
C132 H193 0.961 . S
C132 H194 0.959 . S
C133 C130 1.450 . S
C133 H195 0.960 . S
C133 H196 0.960 . S
C133 H197 0.960 . S
C134 C135 1.309 . S
C134 C139 1.304 . S
C134 O172 1.435 . S
C135 C134 1.309 . S
C135 C136 1.476 . S
C135 H199 0.930 . S
C136 C135 1.476 . S
C136 C137 1.400 . S
C136 C140 1.567 . S
C137 C136 1.400 . S
C137 C138 1.373 . S
C137 C159 1.432 . S
C138 C137 1.373 . S
C138 C139 1.339 . S
C138 C141 1.530 . S
C139 C134 1.304 . S
C139 C138 1.339 . S
C139 H200 0.930 . S
C140 C136 1.567 . S
C140 H201 0.961 . S
C140 H202 0.960 . S
C140 H203 0.958 . S
C141 C138 1.530 . S
C141 H204 0.961 . S
C141 H205 0.960 . S
C141 H206 0.960 . S
C142 C143 1.530 . S
C142 H208 0.961 . S
C142 H209 0.961 . S
C142 H210 0.959 . S
C143 C142 1.530 . S
C143 O171 1.412 . S
C143 H207 0.980 . S
C144 C145 1.288 . S
C144 C149 1.377 . S
C144 O171 1.393 . S
C145 C144 1.288 . S
C145 C146 1.369 . S
C145 H211 0.932 . S
C146 C145 1.369 . S
C146 C147 1.398 . S
C146 C150 1.527 1_565 S
C147 C146 1.398 . S
C147 C148 1.380 . S
C147 C161 1.497 1_565 S
C148 C147 1.380 . S
C148 C149 1.383 . S
C148 C151 1.603 . S
C149 C144 1.377 . S
C149 C148 1.383 . S
C149 H212 0.929 . S
C150 C146 1.527 1_545 S
C150 H213 0.961 . S
C150 H214 0.959 . S
C150 H215 0.959 . S
C151 C148 1.603 . S
C151 H216 0.960 . S
C151 H217 0.962 . S
C151 H218 0.961 . S
C152 C119 1.587 . S
C152 C153 1.360 . S
C152 C165 1.412 . S
C153 C152 1.360 . S
C153 C154 1.365 1_565 S
C153 H219 0.929 . S
C154 C129 1.553 . S
C154 C153 1.365 1_545 S
C154 C155 1.404 . S
C155 C154 1.404 . S
C155 C156 1.395 . S
C155 C166 1.451 . S
C156 C155 1.395 . S
C156 C157 1.322 . S
C156 H220 0.930 . S
C157 C156 1.322 . S
C157 C158 1.459 . S
C157 H221 0.929 . S
C158 C157 1.459 . S
C158 C159 1.445 . S
C158 C167 1.395 . S
C159 C137 1.432 . S
C159 C158 1.445 . S
C159 C160 1.370 . S
C160 C159 1.370 . S
C160 C161 1.438 . S
C160 H222 0.930 . S
C161 C147 1.497 1_545 S
C161 C160 1.438 . S
C161 C162 1.369 . S
C162 C161 1.369 . S
C162 C163 1.384 1_545 S
C162 C167 1.455 . S
C163 C162 1.384 1_565 S
C163 C164 1.347 . S
C163 H223 0.929 . S
C164 C163 1.347 . S
C164 C165 1.455 . S
C164 H224 0.930 . S
C165 C152 1.412 . S
C165 C164 1.455 . S
C165 C166 1.331 1_565 S
C166 C155 1.451 . S
C166 C165 1.331 1_545 S
C166 C167 1.497 . S
C167 C158 1.395 . S
C167 C162 1.455 . S
C167 C166 1.497 . S
C168 C169 1.582 . S
C168 H225 0.962 . S
C168 H226 0.959 . S
C168 H227 0.958 . S
C169 C168 1.582 . S
C169 O172 1.458 . S
C169 H198 0.980 . S
O170 C115 1.426 . S
O170 C116 1.334 . S
O171 C143 1.412 . S
O171 C144 1.393 . S
O172 C134 1.435 . S
O172 C169 1.458 . S
O173 C125 1.468 . S
O173 C126 1.408 . S
H174 C115 0.980 . S
H175 C114 0.959 . S
H176 C114 0.959 . S
H177 C114 0.960 . S
H178 C117 0.929 . S
H179 C121 0.929 . S
H180 C122 0.959 . S
H181 C122 0.961 . S
H182 C122 0.961 . S
H183 C123 0.960 . S
H184 C123 0.960 . S
H185 C123 0.961 . S
H186 C125 0.980 . S
H187 C124 0.961 . S
H188 C124 0.960 . S
H189 C124 0.959 . S
H190 C127 0.930 . S
H191 C131 0.931 . S
H192 C132 0.959 . S
H193 C132 0.961 . S
H194 C132 0.959 . S
H195 C133 0.960 . S
H196 C133 0.960 . S
H197 C133 0.960 . S
H198 C169 0.980 . S
H199 C135 0.930 . S
H200 C139 0.930 . S
H201 C140 0.961 . S
H202 C140 0.960 . S
H203 C140 0.958 . S
H204 C141 0.961 . S
H205 C141 0.960 . S
H206 C141 0.960 . S
H207 C143 0.980 . S
H208 C142 0.961 . S
H209 C142 0.961 . S
H210 C142 0.959 . S
H211 C145 0.932 . S
H212 C149 0.929 . S
H213 C150 0.961 . S
H214 C150 0.959 . S
H215 C150 0.959 . S
H216 C151 0.960 . S
H217 C151 0.962 . S
H218 C151 0.961 . S
H219 C153 0.929 . S
H220 C156 0.930 . S
H221 C157 0.929 . S
H222 C160 0.930 . S
H223 C163 0.929 . S
H224 C164 0.930 . S
H225 C168 0.962 . S
H226 C168 0.959 . S
H227 C168 0.958 . S
C228 C229 1.560 . S
C228 H289 0.959 . S
C228 H290 0.959 . S
C228 H291 0.960 . S
C229 C228 1.560 . S
C229 O284 1.426 . S
C229 H288 0.980 . S
C230 C231 1.407 . S
C230 C235 1.418 . S
C230 O284 1.334 . S
C231 C230 1.407 . S
C231 C232 1.360 . S
C231 H292 0.929 . S
C232 C231 1.360 . S
C232 C233 1.401 . S
C232 C236 1.527 . S
C233 C232 1.401 . S
C233 C234 1.405 . S
C233 C266 1.587 . S
C234 C233 1.405 . S
C234 C235 1.332 . S
C234 C237 1.496 . S
C235 C230 1.418 . S
C235 C234 1.332 . S
C235 H293 0.929 . S
C236 C232 1.527 . S
C236 H294 0.959 . S
C236 H295 0.961 . S
C236 H296 0.961 . S
C237 C234 1.496 . S
C237 H297 0.960 . S
C237 H298 0.960 . S
C237 H299 0.961 . S
C238 C239 1.517 . S
C238 H301 0.961 . S
C238 H302 0.960 . S
C238 H303 0.959 . S
C239 C238 1.517 . S
C239 O287 1.468 . S
C239 H300 0.980 . S
C240 C241 1.349 . S
C240 C245 1.367 . S
C240 O287 1.408 . S
C241 C240 1.349 . S
C241 C242 1.407 . S
C241 H304 0.930 . S
C242 C241 1.407 . S
C242 C243 1.449 . S
C242 C246 1.535 . S
C243 C242 1.449 . S
C243 C244 1.384 . S
C243 C268 1.553 . S
C244 C243 1.384 . S
C244 C245 1.364 . S
C244 C247 1.450 . S
C245 C240 1.367 . S
C245 C244 1.364 . S
C245 H305 0.931 . S
C246 C242 1.535 . S
C246 H306 0.959 . S
C246 H307 0.961 . S
C246 H308 0.959 . S
C247 C244 1.450 . S
C247 H309 0.960 . S
C247 H310 0.960 . S
C247 H311 0.960 . S
C248 C249 1.309 . S
C248 C253 1.304 . S
C248 O286 1.435 . S
C249 C248 1.309 . S
C249 C250 1.476 . S
C249 H313 0.930 . S
C250 C249 1.476 . S
C250 C251 1.400 . S
C250 C254 1.567 . S
C251 C250 1.400 . S
C251 C252 1.373 . S
C251 C273 1.432 . S
C252 C251 1.373 . S
C252 C253 1.339 . S
C252 C255 1.530 . S
C253 C248 1.304 . S
C253 C252 1.339 . S
C253 H314 0.930 . S
C254 C250 1.567 . S
C254 H315 0.961 . S
C254 H316 0.960 . S
C254 H317 0.958 . S
C255 C252 1.530 . S
C255 H318 0.961 . S
C255 H319 0.960 . S
C255 H320 0.960 . S
C256 C257 1.530 . S
C256 H322 0.961 . S
C256 H323 0.961 . S
C256 H324 0.959 . S
C257 C256 1.530 . S
C257 O285 1.412 . S
C257 H321 0.980 . S
C258 C259 1.288 . S
C258 C263 1.377 . S
C258 O285 1.393 . S
C259 C258 1.288 . S
C259 C260 1.369 . S
C259 H325 0.932 . S
C260 C259 1.369 . S
C260 C261 1.398 . S
C260 C264 1.527 . S
C261 C260 1.398 . S
C261 C262 1.380 . S
C261 C275 1.497 . S
C262 C261 1.380 . S
C262 C263 1.383 . S
C262 C265 1.603 . S
C263 C258 1.377 . S
C263 C262 1.383 . S
C263 H326 0.929 . S
C264 C260 1.527 . S
C264 H327 0.961 . S
C264 H328 0.959 . S
C264 H329 0.959 . S
C265 C262 1.603 . S
C265 H330 0.960 . S
C265 H331 0.962 . S
C265 H332 0.961 . S
C266 C233 1.587 . S
C266 C267 1.360 . S
C266 C279 1.412 . S
C267 C266 1.360 . S
C267 C268 1.365 . S
C267 H333 0.929 . S
C268 C243 1.553 . S
C268 C267 1.365 . S
C268 C269 1.404 . S
C269 C268 1.404 . S
C269 C270 1.395 . S
C269 C280 1.451 . S
C270 C269 1.395 . S
C270 C271 1.322 . S
C270 H334 0.930 . S
C271 C270 1.322 . S
C271 C272 1.459 . S
C271 H335 0.929 . S
C272 C271 1.459 . S
C272 C273 1.445 . S
C272 C281 1.395 . S
C273 C251 1.432 . S
C273 C272 1.445 . S
C273 C274 1.370 . S
C274 C273 1.370 . S
C274 C275 1.438 . S
C274 H336 0.930 . S
C275 C261 1.497 . S
C275 C274 1.438 . S
C275 C276 1.360 . S
C276 C275 1.360 . S
C276 C277 1.401 . S
C276 C281 1.446 . S
C277 C276 1.401 . S
C277 C278 1.347 . S
C277 H337 0.929 . S
C278 C277 1.347 . S
C278 C279 1.455 . S
C278 H338 0.930 . S
C279 C266 1.412 . S
C279 C278 1.455 . S
C279 C280 1.331 . S
C280 C269 1.451 . S
C280 C279 1.331 . S
C280 C281 1.497 . S
C281 C272 1.395 . S
C281 C276 1.446 . S
C281 C280 1.497 . S
C282 C283 1.582 . S
C282 H339 0.962 . S
C282 H340 0.959 . S
C282 H341 0.958 . S
C283 C282 1.582 . S
C283 O286 1.458 . S
C283 H312 0.980 . S
O284 C229 1.426 . S
O284 C230 1.334 . S
O285 C257 1.412 . S
O285 C258 1.393 . S
O286 C248 1.435 . S
O286 C283 1.458 . S
O287 C239 1.468 . S
O287 C240 1.408 . S
H288 C229 0.980 . S
H289 C228 0.959 . S
H290 C228 0.959 . S
H291 C228 0.960 . S
H292 C231 0.929 . S
H293 C235 0.929 . S
H294 C236 0.959 . S
H295 C236 0.961 . S
H296 C236 0.961 . S
H297 C237 0.960 . S
H298 C237 0.960 . S
H299 C237 0.961 . S
H300 C239 0.980 . S
H301 C238 0.961 . S
H302 C238 0.960 . S
H303 C238 0.959 . S
H304 C241 0.930 . S
H305 C245 0.931 . S
H306 C246 0.959 . S
H307 C246 0.961 . S
H308 C246 0.959 . S
H309 C247 0.960 . S
H310 C247 0.960 . S
H311 C247 0.960 . S
H312 C283 0.980 . S
H313 C249 0.930 . S
H314 C253 0.930 . S
H315 C254 0.961 . S
H316 C254 0.960 . S
H317 C254 0.958 . S
H318 C255 0.961 . S
H319 C255 0.960 . S
H320 C255 0.960 . S
H321 C257 0.980 . S
H322 C256 0.961 . S
H323 C256 0.961 . S
H324 C256 0.959 . S
H325 C259 0.932 . S
H326 C263 0.929 . S
H327 C264 0.961 . S
H328 C264 0.959 . S
H329 C264 0.959 . S
H330 C265 0.960 . S
H331 C265 0.962 . S
H332 C265 0.961 . S
H333 C267 0.929 . S
H334 C270 0.930 . S
H335 C271 0.929 . S
H336 C274 0.930 . S
H337 C277 0.929 . S
H338 C278 0.930 . S
H339 C282 0.962 . S
H340 C282 0.959 . S
H341 C282 0.958 . S
C342 C343 1.560 . S
C342 H403 0.959 . S
C342 H404 0.959 . S
C342 H405 0.960 . S
C343 C342 1.560 . S
C343 O398 1.426 . S
C343 H402 0.980 . S
C344 C345 1.407 . S
C344 C349 1.418 . S
C344 O398 1.334 . S
C345 C344 1.407 . S
C345 C346 1.360 . S
C345 H406 0.929 . S
C346 C345 1.360 . S
C346 C347 1.401 . S
C346 C350 1.527 . S
C347 C346 1.401 . S
C347 C348 1.405 . S
C347 C380 1.587 . S
C348 C347 1.405 . S
C348 C349 1.332 . S
C348 C351 1.496 . S
C349 C344 1.418 . S
C349 C348 1.332 . S
C349 H407 0.929 . S
C350 C346 1.527 . S
C350 H408 0.959 . S
C350 H409 0.961 . S
C350 H410 0.961 . S
C351 C348 1.496 . S
C351 H411 0.960 . S
C351 H412 0.960 . S
C351 H413 0.961 . S
C352 C353 1.517 . S
C352 H415 0.948 1_556 S
C352 H416 0.960 . S
C352 H417 0.959 . S
C353 C352 1.517 . S
C353 O401 1.468 . S
C353 H414 0.980 . S
C354 C355 1.349 . S
C354 C359 1.367 . S
C354 O401 1.408 . S
C355 C354 1.349 . S
C355 C356 1.407 . S
C355 H418 0.930 . S
C356 C355 1.407 . S
C356 C357 1.449 1_655 S
C356 C360 1.535 1_655 S
C357 C356 1.449 1_455 S
C357 C358 1.384 1_455 S
C357 C382 1.553 . S
C358 C357 1.384 1_655 S
C358 C359 1.364 . S
C358 C361 1.450 1_655 S
C359 C354 1.367 . S
C359 C358 1.364 . S
C359 H419 0.931 . S
C360 C356 1.535 1_455 S
C360 H420 0.959 . S
C360 H421 0.961 . S
C360 H422 0.959 1_455 S
C361 C358 1.450 1_455 S
C361 H423 0.959 . S
C361 H424 0.960 . S
C361 H425 0.960 1_455 S
C362 C363 1.309 . S
C362 C367 1.304 . S
C362 O400 1.435 . S
C363 C362 1.309 . S
C363 C364 1.476 . S
C363 H427 0.930 . S
C364 C363 1.476 . S
C364 C365 1.400 . S
C364 C368 1.567 . S
C365 C364 1.400 . S
C365 C366 1.373 . S
C365 C387 1.432 . S
C366 C365 1.373 . S
C366 C367 1.339 . S
C366 C369 1.530 . S
C367 C362 1.304 . S
C367 C366 1.339 . S
C367 H428 0.930 . S
C368 C364 1.567 . S
C368 H429 0.961 . S
C368 H430 0.960 . S
C368 H431 0.958 . S
C369 C366 1.530 . S
C369 H432 0.961 . S
C369 H433 0.960 . S
C369 H434 0.960 . S
C370 C371 1.530 . S
C370 H436 0.961 . S
C370 H437 0.961 . S
C370 H438 0.959 . S
C371 C370 1.530 . S
C371 O399 1.412 . S
C371 H435 0.980 . S
C372 C373 1.288 . S
C372 C377 1.377 . S
C372 O399 1.393 . S
C373 C372 1.288 . S
C373 C374 1.369 . S
C373 H439 0.932 . S
C374 C373 1.369 . S
C374 C375 1.398 . S
C374 C378 1.527 . S
C375 C374 1.398 . S
C375 C376 1.380 . S
C375 C389 1.497 . S
C376 C375 1.380 . S
C376 C377 1.383 . S
C376 C379 1.603 . S
C377 C372 1.377 . S
C377 C376 1.383 . S
C377 H440 0.929 . S
C378 C374 1.527 . S
C378 H441 0.961 . S
C378 H442 0.959 . S
C378 H443 0.959 . S
C379 C376 1.603 . S
C379 H444 0.960 . S
C379 H445 0.962 . S
C379 H446 0.961 . S
C380 C347 1.587 . S
C380 C381 1.360 . S
C380 C393 1.412 . S
C381 C380 1.360 . S
C381 C382 1.365 . S
C381 H447 0.929 . S
C382 C357 1.553 . S
C382 C381 1.365 . S
C382 C383 1.404 . S
C383 C382 1.404 . S
C383 C384 1.395 1_455 S
C383 C394 1.451 . S
C384 C383 1.395 1_655 S
C384 C385 1.322 . S
C384 H448 0.930 . S
C385 C384 1.322 . S
C385 C386 1.459 . S
C385 H449 0.929 . S
C386 C385 1.459 . S
C386 C387 1.445 . S
C386 C395 1.395 1_655 S
C387 C365 1.432 . S
C387 C386 1.445 . S
C387 C388 1.370 . S
C388 C387 1.370 . S
C388 C389 1.438 1_655 S
C388 H450 0.930 . S
C389 C375 1.497 . S
C389 C388 1.438 1_455 S
C389 C390 1.360 . S
C390 C389 1.360 . S
C390 C391 1.401 . S
C390 C395 1.446 . S
C391 C390 1.401 . S
C391 C392 1.347 . S
C391 H451 0.929 . S
C392 C391 1.347 . S
C392 C393 1.455 . S
C392 H452 0.930 . S
C393 C380 1.412 . S
C393 C392 1.455 . S
C393 C394 1.331 . S
C394 C383 1.451 . S
C394 C393 1.331 . S
C394 C395 1.497 . S
C395 C386 1.395 1_455 S
C395 C390 1.446 . S
C395 C394 1.497 . S
C396 C397 1.582 . S
C396 H453 0.962 . S
C396 H454 0.959 . S
C396 H455 0.958 . S
C397 C396 1.582 . S
C397 O400 1.458 . S
C397 H426 0.980 . S
O398 C343 1.426 . S
O398 C344 1.334 . S
O399 C371 1.412 . S
O399 C372 1.393 . S
O400 C362 1.435 . S
O400 C397 1.458 . S
O401 C353 1.468 . S
O401 C354 1.408 . S
H402 C343 0.980 . S
H403 C342 0.959 . S
H404 C342 0.959 . S
H405 C342 0.960 . S
H406 C345 0.929 . S
H407 C349 0.929 . S
H408 C350 0.959 . S
H409 C350 0.961 . S
H410 C350 0.961 . S
H411 C351 0.960 . S
H412 C351 0.960 . S
H413 C351 0.961 . S
H414 C353 0.980 . S
H415 C352 0.948 1_554 S
H416 C352 0.960 . S
H417 C352 0.959 . S
H418 C355 0.930 . S
H419 C359 0.931 . S
H420 C360 0.959 . S
H421 C360 0.961 . S
H422 C360 0.959 1_655 S
H423 C361 0.959 . S
H424 C361 0.960 . S
H425 C361 0.960 1_655 S
H426 C397 0.980 . S
H427 C363 0.930 . S
H428 C367 0.930 . S
H429 C368 0.961 . S
H430 C368 0.960 . S
H431 C368 0.958 . S
H432 C369 0.961 . S
H433 C369 0.960 . S
H434 C369 0.960 . S
H435 C371 0.980 . S
H436 C370 0.961 . S
H437 C370 0.961 . S
H438 C370 0.959 . S
H439 C373 0.932 . S
H440 C377 0.929 . S
H441 C378 0.961 . S
H442 C378 0.959 . S
H443 C378 0.959 . S
H444 C379 0.960 . S
H445 C379 0.962 . S
H446 C379 0.961 . S
H447 C381 0.929 . S
H448 C384 0.930 . S
H449 C385 0.929 . S
H450 C388 0.930 . S
H451 C391 0.929 . S
H452 C392 0.930 . S
H453 C396 0.962 . S
H454 C396 0.959 . S
H455 C396 0.958 . S
C456 C457 1.560 . S
C456 H517 0.959 . S
C456 H518 0.959 . S
C456 H519 0.960 . S
C457 C456 1.560 . S
C457 O512 1.426 . S
C457 H516 0.980 . S
C458 C459 1.407 . S
C458 C463 1.418 . S
C458 O512 1.334 . S
C459 C458 1.407 . S
C459 C460 1.360 . S
C459 H520 0.929 . S
C460 C459 1.360 . S
C460 C461 1.401 . S
C460 C464 1.527 . S
C461 C460 1.401 . S
C461 C462 1.405 . S
C461 C494 1.587 . S
C462 C461 1.405 . S
C462 C463 1.332 . S
C462 C465 1.496 . S
C463 C458 1.418 . S
C463 C462 1.332 . S
C463 H521 0.929 . S
C464 C460 1.527 . S
C464 H522 0.959 . S
C464 H523 0.961 . S
C464 H524 0.961 . S
C465 C462 1.496 . S
C465 H525 0.960 . S
C465 H526 0.960 . S
C465 H527 0.961 . S
C466 C467 1.517 . S
C466 H529 0.961 . S
C466 H530 0.960 . S
C466 H531 0.959 . S
C467 C466 1.517 . S
C467 O515 1.468 . S
C467 H528 0.980 . S
C468 C469 1.349 . S
C468 C473 1.367 . S
C468 O515 1.408 . S
C469 C468 1.349 . S
C469 C470 1.407 . S
C469 H532 0.930 . S
C470 C469 1.407 . S
C470 C471 1.449 . S
C470 C474 1.535 . S
C471 C470 1.449 . S
C471 C472 1.384 . S
C471 C496 1.553 . S
C472 C471 1.384 . S
C472 C473 1.364 . S
C472 C475 1.450 . S
C473 C468 1.367 . S
C473 C472 1.364 . S
C473 H533 0.931 . S
C474 C470 1.535 . S
C474 H534 0.959 . S
C474 H535 0.961 . S
C474 H536 0.959 . S
C475 C472 1.450 . S
C475 H537 0.960 . S
C475 H538 0.960 . S
C475 H539 0.960 . S
C476 C477 1.309 . S
C476 C481 1.304 . S
C476 O514 1.435 . S
C477 C476 1.309 . S
C477 C478 1.476 . S
C477 H541 0.930 . S
C478 C477 1.476 . S
C478 C479 1.400 . S
C478 C482 1.567 . S
C479 C478 1.400 . S
C479 C480 1.373 . S
C479 C501 1.432 . S
C480 C479 1.373 . S
C480 C481 1.339 . S
C480 C483 1.530 . S
C481 C476 1.304 . S
C481 C480 1.339 . S
C481 H542 0.930 . S
C482 C478 1.567 . S
C482 H543 0.961 . S
C482 H544 0.960 . S
C482 H545 0.958 . S
C483 C480 1.530 . S
C483 H546 0.961 . S
C483 H547 0.960 . S
C483 H548 0.960 . S
C484 C485 1.530 . S
C484 H550 0.961 . S
C484 H551 0.961 . S
C484 H552 0.959 . S
C485 C484 1.530 . S
C485 O513 1.412 . S
C485 H549 0.980 . S
C486 C487 1.288 . S
C486 C491 1.377 . S
C486 O513 1.393 . S
C487 C486 1.288 . S
C487 C488 1.369 . S
C487 H553 0.932 . S
C488 C487 1.369 . S
C488 C489 1.398 . S
C488 C492 1.527 1_565 S
C489 C488 1.398 . S
C489 C490 1.380 . S
C489 C503 1.497 1_565 S
C490 C489 1.380 . S
C490 C491 1.383 . S
C490 C493 1.603 . S
C491 C486 1.377 . S
C491 C490 1.383 . S
C491 H554 0.929 . S
C492 C488 1.527 1_545 S
C492 H555 0.961 . S
C492 H556 0.959 . S
C492 H557 0.959 . S
C493 C490 1.603 . S
C493 H558 0.960 . S
C493 H559 0.982 . S
C493 H560 0.961 . S
C494 C461 1.587 . S
C494 C495 1.360 . S
C494 C507 1.412 . S
C495 C494 1.360 . S
C495 C496 1.365 1_565 S
C495 H561 0.929 . S
C496 C471 1.553 . S
C496 C495 1.365 1_545 S
C496 C497 1.404 . S
C497 C496 1.404 . S
C497 C498 1.395 . S
C497 C508 1.451 . S
C498 C497 1.395 . S
C498 C499 1.322 . S
C498 H562 0.930 . S
C499 C498 1.322 . S
C499 C500 1.459 1_556 S
C499 H563 0.929 . S
C500 C499 1.459 1_554 S
C500 C501 1.445 . S
C500 C509 1.397 . S
C501 C479 1.432 . S
C501 C500 1.445 . S
C501 C502 1.370 . S
C502 C501 1.370 . S
C502 C503 1.438 . S
C502 H564 0.930 . S
C503 C489 1.497 1_545 S
C503 C502 1.438 . S
C503 C504 1.370 . S
C504 C503 1.370 . S
C504 C505 1.370 1_545 S
C504 C509 1.480 . S
C505 C504 1.370 1_565 S
C505 C506 1.347 1_554 S
C505 H565 0.929 . S
C506 C505 1.347 1_556 S
C506 C507 1.455 . S
C506 H566 0.930 . S
C507 C494 1.412 . S
C507 C506 1.455 . S
C507 C508 1.331 1_565 S
C508 C497 1.451 . S
C508 C507 1.331 1_545 S
C508 C509 1.481 1_556 S
C509 C500 1.397 . S
C509 C504 1.480 . S
C509 C508 1.481 1_554 S
C510 C511 1.582 . S
C510 H567 0.962 . S
C510 H568 0.959 . S
C510 H569 0.958 . S
C511 C510 1.582 . S
C511 O514 1.458 . S
C511 H540 0.980 . S
O512 C457 1.426 . S
O512 C458 1.334 . S
O513 C485 1.412 . S
O513 C486 1.393 . S
O514 C476 1.435 . S
O514 C511 1.458 . S
O515 C467 1.468 . S
O515 C468 1.408 . S
H516 C457 0.980 . S
H517 C456 0.959 . S
H518 C456 0.959 . S
H519 C456 0.960 . S
H520 C459 0.929 . S
H521 C463 0.929 . S
H522 C464 0.959 . S
H523 C464 0.961 . S
H524 C464 0.961 . S
H525 C465 0.960 . S
H526 C465 0.960 . S
H527 C465 0.961 . S
H528 C467 0.980 . S
H529 C466 0.961 . S
H530 C466 0.960 . S
H531 C466 0.959 . S
H532 C469 0.930 . S
H533 C473 0.931 . S
H534 C474 0.959 . S
H535 C474 0.961 . S
H536 C474 0.959 . S
H537 C475 0.960 . S
H538 C475 0.960 . S
H539 C475 0.960 . S
H540 C511 0.980 . S
H541 C477 0.930 . S
H542 C481 0.930 . S
H543 C482 0.961 . S
H544 C482 0.960 . S
H545 C482 0.958 . S
H546 C483 0.961 . S
H547 C483 0.960 . S
H548 C483 0.960 . S
H549 C485 0.980 . S
H550 C484 0.961 . S
H551 C484 0.961 . S
H552 C484 0.959 . S
H553 C487 0.932 . S
H554 C491 0.929 . S
H555 C492 0.961 . S
H556 C492 0.959 . S
H557 C492 0.959 . S
H558 C493 0.960 . S
H559 C493 0.982 . S
H560 C493 0.961 . S
H561 C495 0.929 . S
H562 C498 0.930 . S
H563 C499 0.929 . S
H564 C502 0.930 . S
H565 C505 0.929 . S
H566 C506 0.930 . S
H567 C510 0.962 . S
H568 C510 0.959 . S
H569 C510 0.958 . S
C570 C571 1.560 . S
C570 H631 0.959 . S
C570 H632 0.959 . S
C570 H633 0.960 . S
C571 C570 1.560 . S
C571 O626 1.426 . S
C571 H630 0.980 . S
C572 C573 1.407 . S
C572 C577 1.418 . S
C572 O626 1.334 . S
C573 C572 1.407 . S
C573 C574 1.360 . S
C573 H634 0.929 . S
C574 C573 1.360 . S
C574 C575 1.401 . S
C574 C578 1.527 . S
C575 C574 1.401 . S
C575 C576 1.405 . S
C575 C608 1.587 . S
C576 C575 1.405 . S
C576 C577 1.332 . S
C576 C579 1.496 . S
C577 C572 1.418 . S
C577 C576 1.332 . S
C577 H635 0.929 . S
C578 C574 1.527 . S
C578 H636 0.959 . S
C578 H637 0.961 . S
C578 H638 0.961 . S
C579 C576 1.496 . S
C579 H639 0.960 . S
C579 H640 0.960 . S
C579 H641 0.961 . S
C580 C581 1.517 1_556 S
C580 H643 0.961 . S
C580 H644 0.960 . S
C580 H645 0.959 1_556 S
C581 C580 1.517 1_554 S
C581 O629 1.468 . S
C581 H642 0.980 . S
C582 C583 1.349 . S
C582 C587 1.367 . S
C582 O629 1.408 . S
C583 C582 1.349 . S
C583 C584 1.407 . S
C583 H646 0.930 . S
C584 C583 1.407 . S
C584 C585 1.449 . S
C584 C588 1.535 . S
C585 C584 1.449 . S
C585 C586 1.384 . S
C585 C610 1.553 . S
C586 C585 1.384 . S
C586 C587 1.364 . S
C586 C589 1.450 . S
C587 C582 1.367 . S
C587 C586 1.364 . S
C587 H647 0.931 . S
C588 C584 1.535 . S
C588 H648 0.959 . S
C588 H649 0.961 . S
C588 H650 0.959 . S
C589 C586 1.450 . S
C589 H651 0.960 . S
C589 H652 0.960 . S
C589 H653 0.960 . S
C590 C591 1.309 . S
C590 C595 1.304 . S
C590 O628 1.435 . S
C591 C590 1.309 . S
C591 C592 1.476 . S
C591 H655 0.930 . S
C592 C591 1.476 . S
C592 C593 1.400 . S
C592 C596 1.567 . S
C593 C592 1.400 . S
C593 C594 1.373 . S
C593 C615 1.432 . S
C594 C593 1.373 . S
C594 C595 1.339 . S
C594 C597 1.530 . S
C595 C590 1.304 . S
C595 C594 1.339 . S
C595 H656 0.930 . S
C596 C592 1.567 . S
C596 H657 0.961 . S
C596 H658 0.960 . S
C596 H659 0.958 . S
C597 C594 1.530 . S
C597 H660 0.961 . S
C597 H661 0.960 . S
C597 H662 0.960 . S
C598 C599 1.530 . S
C598 H664 0.961 . S
C598 H665 0.961 . S
C598 H666 0.959 . S
C599 C598 1.530 . S
C599 O627 1.412 . S
C599 H663 0.980 . S
C600 C601 1.288 . S
C600 C605 1.377 . S
C600 O627 1.393 . S
C601 C600 1.288 . S
C601 C602 1.369 . S
C601 H667 0.932 . S
C602 C601 1.369 . S
C602 C603 1.398 . S
C602 C606 1.527 . S
C603 C602 1.398 . S
C603 C604 1.380 . S
C603 C617 1.497 . S
C604 C603 1.380 . S
C604 C605 1.383 . S
C604 C607 1.603 . S
C605 C600 1.377 . S
C605 C604 1.383 . S
C605 H668 0.929 . S
C606 C602 1.527 . S
C606 H669 0.961 . S
C606 H670 0.959 . S
C606 H671 0.959 . S
C607 C604 1.603 . S
C607 H672 0.960 . S
C607 H673 0.962 . S
C607 H674 0.961 . S
C608 C575 1.587 . S
C608 C609 1.360 . S
C608 C621 1.412 . S
C609 C608 1.360 . S
C609 C610 1.365 . S
C609 H675 0.929 . S
C610 C585 1.553 . S
C610 C609 1.365 . S
C610 C611 1.404 . S
C611 C610 1.404 . S
C611 C612 1.395 . S
C611 C622 1.451 . S
C612 C611 1.395 . S
C612 C613 1.322 . S
C612 H676 0.930 . S
C613 C612 1.322 . S
C613 C614 1.459 . S
C613 H677 0.929 . S
C614 C613 1.459 . S
C614 C615 1.445 . S
C614 C623 1.395 . S
C615 C593 1.432 . S
C615 C614 1.445 . S
C615 C616 1.370 . S
C616 C615 1.370 . S
C616 C617 1.438 . S
C616 H678 0.930 . S
C617 C603 1.497 . S
C617 C616 1.438 . S
C617 C618 1.360 . S
C618 C617 1.360 . S
C618 C619 1.401 . S
C618 C623 1.446 . S
C619 C618 1.401 . S
C619 C620 1.347 . S
C619 H679 0.929 . S
C620 C619 1.347 . S
C620 C621 1.455 . S
C620 H680 0.930 . S
C621 C608 1.412 . S
C621 C620 1.455 . S
C621 C622 1.331 . S
C622 C611 1.451 . S
C622 C621 1.331 . S
C622 C623 1.497 . S
C623 C614 1.395 . S
C623 C618 1.446 . S
C623 C622 1.497 . S
C624 C625 1.582 . S
C624 H681 0.962 . S
C624 H682 0.959 . S
C624 H683 0.958 . S
C625 C624 1.582 . S
C625 O628 1.458 . S
C625 H654 0.980 . S
O626 C571 1.426 . S
O626 C572 1.334 . S
O627 C599 1.412 . S
O627 C600 1.393 . S
O628 C590 1.435 . S
O628 C625 1.458 . S
O629 C581 1.468 . S
O629 C582 1.408 . S
H630 C571 0.980 . S
H631 C570 0.959 . S
H632 C570 0.959 . S
H633 C570 0.960 . S
H634 C573 0.929 . S
H635 C577 0.929 . S
H636 C578 0.959 . S
H637 C578 0.961 . S
H638 C578 0.961 . S
H639 C579 0.960 . S
H640 C579 0.960 . S
H641 C579 0.961 . S
H642 C581 0.980 . S
H643 C580 0.961 . S
H644 C580 0.960 . S
H645 C580 0.959 1_554 S
H646 C583 0.930 . S
H647 C587 0.931 . S
H648 C588 0.959 . S
H649 C588 0.961 . S
H650 C588 0.959 . S
H651 C589 0.960 . S
H652 C589 0.960 . S
H653 C589 0.960 . S
H654 C625 0.980 . S
H655 C591 0.930 . S
H656 C595 0.930 . S
H657 C596 0.961 . S
H658 C596 0.960 . S
H659 C596 0.958 . S
H660 C597 0.961 . S
H661 C597 0.960 . S
H662 C597 0.960 . S
H663 C599 0.980 . S
H664 C598 0.961 . S
H665 C598 0.961 . S
H666 C598 0.959 . S
H667 C601 0.932 . S
H668 C605 0.929 . S
H669 C606 0.961 . S
H670 C606 0.959 . S
H671 C606 0.959 . S
H672 C607 0.960 . S
H673 C607 0.962 . S
H674 C607 0.961 . S
H675 C609 0.929 . S
H676 C612 0.930 . S
H677 C613 0.929 . S
H678 C616 0.930 . S
H679 C619 0.929 . S
H680 C620 0.930 . S
H681 C624 0.962 . S
H682 C624 0.959 . S
H683 C624 0.958 . S
In684 O685 2.294 . S
In684 O686 2.326 . S
In684 O690 2.266 . S
In684 O691 2.326 . S
In684 O692 2.266 . S
In684 O693 2.326 . S
In684 O695 2.294 . S
In684 O696 2.326 . S
O685 In684 2.294 . S
O685 C694 1.240 . S
O686 In684 2.326 . S
O686 C694 1.252 . S
C687 O690 1.252 . S
C687 O691 1.260 . S
C688 O695 1.240 . S
C688 O696 1.252 . S
C689 O692 1.252 . S
C689 O693 1.260 . S
O690 In684 2.266 . S
O690 C687 1.252 . S
O691 In684 2.326 . S
O691 C687 1.260 . S
O692 In684 2.266 . S
O692 C689 1.252 . S
O693 In684 2.326 . S
O693 C689 1.260 . S
C694 O685 1.240 . S
C694 O686 1.252 . S
O695 In684 2.294 . S
O695 C688 1.240 . S
O696 In684 2.326 . S
O696 C688 1.252 . S
In697 O698 2.294 . S
In697 O699 2.326 . S
In697 O703 2.266 . S
In697 O704 2.326 . S
In697 O705 2.266 . S
In697 O706 2.326 . S
In697 O708 2.294 . S
In697 O709 2.326 . S
O698 In697 2.294 . S
O698 C707 1.240 . S
O699 In697 2.326 . S
O699 C707 1.252 . S
C700 O703 1.252 . S
C700 O704 1.260 . S
C701 O708 1.240 . S
C701 O709 1.252 . S
C702 O705 1.252 . S
C702 O706 1.260 . S
O703 In697 2.266 . S
O703 C700 1.252 . S
O704 In697 2.326 . S
O704 C700 1.260 . S
O705 In697 2.266 . S
O705 C702 1.252 . S
O706 In697 2.326 . S
O706 C702 1.260 . S
C707 O698 1.240 . S
C707 O699 1.252 . S
O708 In697 2.294 . S
O708 C701 1.240 . S
O709 In697 2.326 . S
O709 C701 1.252 . S
In710 O711 2.294 . S
In710 O712 2.326 . S
In710 O716 2.266 . S
In710 O717 2.326 . S
In710 O718 2.266 . S
In710 O719 2.326 . S
In710 O721 2.294 . S
In710 O722 2.326 . S
O711 In710 2.294 . S
O711 C720 1.240 . S
O712 In710 2.326 . S
O712 C720 1.252 . S
C713 O716 1.252 . S
C713 O717 1.260 . S
C714 O721 1.240 . S
C714 O722 1.252 . S
C715 O718 1.252 . S
C715 O719 1.260 . S
O716 In710 2.266 . S
O716 C713 1.252 . S
O717 In710 2.326 . S
O717 C713 1.260 . S
O718 In710 2.266 . S
O718 C715 1.252 . S
O719 In710 2.326 . S
O719 C715 1.260 . S
C720 O711 1.240 . S
C720 O712 1.252 . S
O721 In710 2.294 . S
O721 C714 1.240 . S
O722 In710 2.326 . S
O722 C714 1.252 . S
In723 O724 2.294 . S
In723 O725 2.326 . S
In723 O729 2.266 . S
In723 O730 2.326 . S
In723 O731 2.266 . S
In723 O732 2.326 . S
In723 O734 2.294 . S
In723 O735 2.326 . S
O724 In723 2.294 . S
O724 C733 1.240 . S
O725 In723 2.326 . S
O725 C733 1.252 . S
C726 O729 1.252 . S
C726 O730 1.260 . S
C727 O734 1.240 . S
C727 O735 1.252 . S
C728 O731 1.252 . S
C728 O732 1.260 . S
O729 In723 2.266 . S
O729 C726 1.252 . S
O730 In723 2.326 . S
O730 C726 1.260 . S
O731 In723 2.266 . S
O731 C728 1.252 . S
O732 In723 2.326 . S
O732 C728 1.260 . S
C733 O724 1.240 . S
C733 O725 1.252 . S
O734 In723 2.294 . S
O734 C727 1.240 . S
O735 In723 2.326 . S
O735 C727 1.252 . S
In736 O737 2.294 . S
In736 O738 2.326 . S
In736 O742 2.266 . S
In736 O743 2.326 . S
In736 O744 2.266 . S
In736 O745 2.326 . S
In736 O747 2.294 . S
In736 O748 2.326 . S
O737 In736 2.294 . S
O737 C746 1.240 . S
O738 In736 2.326 . S
O738 C746 1.252 . S
C739 O742 1.252 . S
C739 O743 1.260 . S
C740 O747 1.240 . S
C740 O748 1.252 . S
C741 O744 1.252 . S
C741 O745 1.260 . S
O742 In736 2.266 . S
O742 C739 1.252 . S
O743 In736 2.326 . S
O743 C739 1.260 . S
O744 In736 2.266 . S
O744 C741 1.252 . S
O745 In736 2.326 . S
O745 C741 1.260 . S
C746 O737 1.240 . S
C746 O738 1.252 . S
O747 In736 2.294 . S
O747 C740 1.240 . S
O748 In736 2.326 . S
O748 C740 1.252 . S
In749 O750 2.294 . S
In749 O751 2.326 . S
In749 O755 2.266 . S
In749 O756 2.326 . S
In749 O757 2.266 . S
In749 O758 2.326 . S
In749 O760 2.294 . S
In749 O761 2.326 . S
O750 In749 2.294 . S
O750 C759 1.240 . S
O751 In749 2.326 . S
O751 C759 1.252 . S
C752 O755 1.252 . S
C752 O756 1.260 . S
C753 O760 1.240 . S
C753 O761 1.252 . S
C754 O757 1.252 . S
C754 O758 1.260 . S
O755 In749 2.266 . S
O755 C752 1.252 . S
O756 In749 2.326 . S
O756 C752 1.260 . S
O757 In749 2.266 . S
O757 C754 1.252 . S
O758 In749 2.326 . S
O758 C754 1.260 . S
C759 O750 1.240 . S
C759 O751 1.252 . S
O760 In749 2.294 . S
O760 C753 1.240 . S
O761 In749 2.326 . S
O761 C753 1.252 . S
C762 C763 1.369 . S
C762 C764 1.419 . S
C762 H766 0.930 . S
C763 C762 1.369 . S
C763 C772 1.429 . S
C764 C762 1.419 . S
C764 C765 1.363 . S
C764 H767 0.929 . S
C765 C764 1.363 . S
C765 C771 1.428 . S
H766 C762 0.930 . S
H767 C764 0.929 . S
S768 N769 1.613 . S
S768 N770 1.610 . S
N769 S768 1.613 . S
N769 C772 1.350 . S
N770 S768 1.610 . S
N770 C771 1.351 . S
C771 C765 1.428 . S
C771 N770 1.351 . S
C771 C772 1.434 . S
C772 C763 1.429 . S
C772 N769 1.350 . S
C772 C771 1.434 . S
C773 C774 1.369 . S
C773 C775 1.419 . S
C773 H777 0.930 . S
C774 C773 1.369 . S
C774 C783 1.429 . S
C775 C773 1.419 . S
C775 C776 1.363 . S
C775 H778 0.929 . S
C776 C775 1.363 . S
C776 C782 1.428 . S
H777 C773 0.930 . S
H778 C775 0.929 . S
S779 N780 1.613 . S
S779 N781 1.610 . S
N780 S779 1.613 . S
N780 C783 1.350 . S
N781 S779 1.610 . S
N781 C782 1.351 . S
C782 C776 1.428 . S
C782 N781 1.351 . S
C782 C783 1.434 . S
C783 C774 1.429 . S
C783 N780 1.350 . S
C783 C782 1.434 . S
C784 C785 1.369 . S
C784 C786 1.419 . S
C784 H788 0.930 . S
C785 C784 1.369 . S
C785 C794 1.429 . S
C786 C784 1.419 . S
C786 C787 1.363 . S
C786 H789 0.929 . S
C787 C786 1.363 . S
C787 C793 1.428 . S
H788 C784 0.930 . S
H789 C786 0.929 . S
S790 N791 1.613 . S
S790 N792 1.610 . S
N791 S790 1.613 . S
N791 C794 1.350 . S
N792 S790 1.610 . S
N792 C793 1.351 . S
C793 C787 1.428 . S
C793 N792 1.351 . S
C793 C794 1.434 . S
C794 C785 1.429 . S
C794 N791 1.350 . S
C794 C793 1.434 . S
C795 C796 1.369 . S
C795 C797 1.419 . S
C795 H799 0.930 . S
C796 C795 1.369 . S
C796 C805 1.429 . S
C797 C795 1.419 . S
C797 C798 1.363 . S
C797 H800 0.929 . S
C798 C797 1.363 . S
C798 C804 1.428 . S
H799 C795 0.930 . S
H800 C797 0.929 . S
S801 N802 1.613 . S
S801 N803 1.610 . S
N802 S801 1.613 . S
N802 C805 1.350 . S
N803 S801 1.610 . S
N803 C804 1.351 . S
C804 C798 1.428 . S
C804 N803 1.351 . S
C804 C805 1.434 . S
C805 C796 1.429 . S
C805 N802 1.350 . S
C805 C804 1.434 . S
C806 C807 1.369 . S
C806 C808 1.419 . S
C806 H810 0.930 . S
C807 C806 1.369 . S
C807 C816 1.429 . S
C808 C806 1.419 . S
C808 C809 1.363 . S
C808 H811 0.929 . S
C809 C808 1.363 . S
C809 C815 1.428 . S
H810 C806 0.930 . S
H811 C808 0.929 . S
S812 N813 1.613 . S
S812 N814 1.610 . S
N813 S812 1.613 . S
N813 C816 1.350 . S
N814 S812 1.610 . S
N814 C815 1.351 . S
C815 C809 1.428 . S
C815 N814 1.351 . S
C815 C816 1.434 . S
C816 C807 1.429 . S
C816 N813 1.350 . S
C816 C815 1.434 . S
C817 C818 1.369 . S
C817 C819 1.419 . S
C817 H821 0.930 . S
C818 C817 1.369 . S
C818 C827 1.429 . S
C819 C817 1.419 . S
C819 C820 1.363 . S
C819 H822 0.929 . S
C820 C819 1.363 . S
C820 C826 1.428 . S
H821 C817 0.930 . S
H822 C819 0.929 . S
S823 N824 1.613 . S
S823 N825 1.610 . S
N824 S823 1.613 . S
N824 C827 1.350 . S
N825 S823 1.610 . S
N825 C826 1.351 . S
C826 C820 1.428 . S
C826 N825 1.351 . S
C826 C827 1.434 . S
C827 C818 1.429 . S
C827 N824 1.350 . S
C827 C826 1.434 . S
C828 C829 1.369 . S
C828 C830 1.419 . S
C828 H832 0.930 . S
C829 C828 1.369 . S
C829 C838 1.429 . S
C830 C828 1.419 . S
C830 C831 1.363 . S
C830 H833 0.929 . S
C831 C830 1.363 . S
C831 C837 1.428 . S
H832 C828 0.930 . S
H833 C830 0.929 . S
S834 N835 1.613 . S
S834 N836 1.610 . S
N835 S834 1.613 . S
N835 C838 1.350 . S
N836 S834 1.610 . S
N836 C837 1.351 . S
C837 C831 1.428 . S
C837 N836 1.351 . S
C837 C838 1.434 . S
C838 C829 1.429 . S
C838 N835 1.350 . S
C838 C837 1.434 . S
C839 C840 1.369 . S
C839 C841 1.419 . S
C839 H843 0.930 . S
C840 C839 1.369 . S
C840 C849 1.429 . S
C841 C839 1.419 . S
C841 C842 1.363 . S
C841 H844 0.929 . S
C842 C841 1.363 . S
C842 C848 1.428 . S
H843 C839 0.930 . S
H844 C841 0.929 . S
S845 N846 1.613 . S
S845 N847 1.610 . S
N846 S845 1.613 . S
N846 C849 1.350 . S
N847 S845 1.610 . S
N847 C848 1.351 . S
C848 C842 1.428 . S
C848 N847 1.351 . S
C848 C849 1.434 . S
C849 C840 1.429 . S
C849 N846 1.350 . S
C849 C848 1.434 . S
C850 C851 1.369 . S
C850 C852 1.419 . S
C850 H854 0.930 . S
C851 C850 1.369 . S
C851 C860 1.429 . S
C852 C850 1.419 . S
C852 C853 1.363 . S
C852 H855 0.929 . S
C853 C852 1.363 . S
C853 C859 1.428 . S
H854 C850 0.930 . S
H855 C852 0.929 . S
S856 N857 1.613 . S
S856 N858 1.610 . S
N857 S856 1.613 . S
N857 C860 1.350 . S
N858 S856 1.610 . S
N858 C859 1.351 . S
C859 C853 1.428 . S
C859 N858 1.351 . S
C859 C860 1.434 . S
C860 C851 1.429 . S
C860 N857 1.350 . S
C860 C859 1.434 . S
C861 C862 1.369 . S
C861 C863 1.419 . S
C861 H865 0.930 . S
C862 C861 1.369 . S
C862 C871 1.429 . S
C863 C861 1.419 . S
C863 C864 1.363 . S
C863 H866 0.929 . S
C864 C863 1.363 . S
C864 C870 1.428 . S
H865 C861 0.930 . S
H866 C863 0.929 . S
S867 N868 1.613 . S
S867 N869 1.610 . S
N868 S867 1.613 . S
N868 C871 1.350 . S
N869 S867 1.610 . S
N869 C870 1.351 . S
C870 C864 1.428 . S
C870 N869 1.351 . S
C870 C871 1.434 . S
C871 C862 1.429 . S
C871 N868 1.350 . S
C871 C870 1.434 . S
C872 C873 1.369 . S
C872 C874 1.419 . S
C872 H876 0.930 . S
C873 C872 1.369 . S
C873 C882 1.429 . S
C874 C872 1.419 . S
C874 C875 1.363 . S
C874 H877 0.929 . S
C875 C874 1.363 . S
C875 C881 1.428 . S
H876 C872 0.930 . S
H877 C874 0.929 . S
S878 N879 1.613 . S
S878 N880 1.610 . S
N879 S878 1.613 . S
N879 C882 1.350 . S
N880 S878 1.610 . S
N880 C881 1.351 . S
C881 C875 1.428 . S
C881 N880 1.351 . S
C881 C882 1.434 . S
C882 C873 1.429 . S
C882 N879 1.350 . S
C882 C881 1.434 . S
C883 C884 1.369 . S
C883 C885 1.419 . S
C883 H887 0.930 . S
C884 C883 1.369 . S
C884 C893 1.429 . S
C885 C883 1.419 . S
C885 C886 1.363 . S
C885 H888 0.929 . S
C886 C885 1.363 . S
C886 C892 1.428 . S
H887 C883 0.930 . S
H888 C885 0.929 . S
S889 N890 1.613 . S
S889 N891 1.610 . S
N890 S889 1.613 . S
N890 C893 1.350 . S
N891 S889 1.610 . S
N891 C892 1.351 . S
C892 C886 1.428 . S
C892 N891 1.351 . S
C892 C893 1.434 . S
C893 C884 1.429 . S
C893 N890 1.350 . S
C893 C892 1.434 . S
C894 C895 1.369 . S
C894 C896 1.419 . S
C894 H898 0.930 . S
C895 C894 1.369 . S
C895 C904 1.429 . S
C896 C894 1.419 . S
C896 C897 1.363 . S
C896 H899 0.929 . S
C897 C896 1.363 . S
C897 C903 1.428 . S
H898 C894 0.930 . S
H899 C896 0.929 . S
S900 N901 1.613 . S
S900 N902 1.610 . S
N901 S900 1.613 . S
N901 C904 1.350 . S
N902 S900 1.610 . S
N902 C903 1.351 . S
C903 C897 1.428 . S
C903 N902 1.351 . S
C903 C904 1.434 . S
C904 C895 1.429 . S
C904 N901 1.350 . S
C904 C903 1.434 . S
C905 C906 1.369 . S
C905 C907 1.419 . S
C905 H909 0.930 . S
C906 C905 1.369 . S
C906 C915 1.429 . S
C907 C905 1.419 . S
C907 C908 1.363 . S
C907 H910 0.929 . S
C908 C907 1.363 . S
C908 C914 1.428 . S
H909 C905 0.930 . S
H910 C907 0.929 . S
S911 N912 1.613 . S
S911 N913 1.610 . S
N912 S911 1.613 . S
N912 C915 1.350 . S
N913 S911 1.610 . S
N913 C914 1.351 . S
C914 C908 1.428 . S
C914 N913 1.351 . S
C914 C915 1.434 . S
C915 C906 1.429 . S
C915 N912 1.350 . S
C915 C914 1.434 . S
C916 C917 1.369 . S
C916 C918 1.419 . S
C916 H920 0.930 . S
C917 C916 1.369 . S
C917 C926 1.429 . S
C918 C916 1.419 . S
C918 C919 1.363 . S
C918 H921 0.929 . S
C919 C918 1.363 . S
C919 C925 1.428 . S
H920 C916 0.930 . S
H921 C918 0.929 . S
S922 N923 1.613 . S
S922 N924 1.610 . S
N923 S922 1.613 . S
N923 C926 1.350 . S
N924 S922 1.610 . S
N924 C925 1.351 . S
C925 C919 1.428 . S
C925 N924 1.351 . S
C925 C926 1.434 . S
C926 C917 1.429 . S
C926 N923 1.350 . S
C926 C925 1.434 . S
C927 C928 1.369 . S
C927 C929 1.419 . S
C927 H931 0.930 . S
C928 C927 1.369 . S
C928 C937 1.429 . S
C929 C927 1.419 . S
C929 C930 1.363 1_556 S
C929 H932 0.929 . S
C930 C929 1.363 1_554 S
C930 C936 1.428 . S
H931 C927 0.930 . S
H932 C929 0.929 . S
S933 N934 1.612 1_554 S
S933 N935 1.610 . S
N934 S933 1.612 1_556 S
N934 C937 1.350 . S
N935 S933 1.610 . S
N935 C936 1.351 . S
C936 C930 1.428 . S
C936 N935 1.351 . S
C936 C937 1.434 1_554 S
C937 C928 1.429 . S
C937 N934 1.350 . S
C937 C936 1.434 1_556 S
C938 C939 1.369 . S
C938 C940 1.419 . S
C938 H942 0.930 . S
C939 C938 1.369 . S
C939 C948 1.429 . S
C940 C938 1.419 . S
C940 C941 1.363 . S
C940 H943 0.929 . S
C941 C940 1.363 . S
C941 C947 1.428 . S
H942 C938 0.930 . S
H943 C940 0.929 . S
S944 N945 1.613 . S
S944 N946 1.610 . S
N945 S944 1.613 . S
N945 C948 1.350 . S
N946 S944 1.610 . S
N946 C947 1.351 . S
C947 C941 1.428 . S
C947 N946 1.351 . S
C947 C948 1.434 . S
C948 C939 1.429 . S
C948 N945 1.350 . S
C948 C947 1.434 . S
C949 C950 1.369 . S
C949 C951 1.419 . S
C949 H953 0.930 . S
C950 C949 1.369 . S
C950 C959 1.429 . S
C951 C949 1.419 . S
C951 C952 1.363 . S
C951 H954 0.929 . S
C952 C951 1.363 . S
C952 C958 1.428 . S
H953 C949 0.930 . S
H954 C951 0.929 . S
S955 N956 1.613 . S
S955 N957 1.610 . S
N956 S955 1.613 . S
N956 C959 1.350 . S
N957 S955 1.610 . S
N957 C958 1.351 . S
C958 C952 1.428 . S
C958 N957 1.351 . S
C958 C959 1.434 . S
C959 C950 1.429 . S
C959 N956 1.350 . S
C959 C958 1.434 . S
C960 C961 1.369 . S
C960 C962 1.419 . S
C960 H964 0.930 . S
C961 C960 1.369 . S
C961 C970 1.429 . S
C962 C960 1.419 . S
C962 C963 1.363 . S
C962 H965 0.929 . S
C963 C962 1.363 . S
C963 C969 1.428 . S
H964 C960 0.930 . S
H965 C962 0.929 . S
S966 N967 1.613 . S
S966 N968 1.610 . S
N967 S966 1.613 . S
N967 C970 1.350 . S
N968 S966 1.610 . S
N968 C969 1.351 . S
C969 C963 1.428 . S
C969 N968 1.351 . S
C969 C970 1.434 . S
C970 C961 1.429 . S
C970 N967 1.350 . S
C970 C969 1.434 . S
C971 C972 1.369 . S
C971 C973 1.419 . S
C971 H975 0.930 . S
C972 C971 1.369 . S
C972 C981 1.429 . S
C973 C971 1.419 . S
C973 C974 1.363 . S
C973 H976 0.929 . S
C974 C973 1.363 . S
C974 C980 1.428 . S
H975 C971 0.930 . S
H976 C973 0.929 . S
S977 N978 1.613 . S
S977 N979 1.610 . S
N978 S977 1.613 . S
N978 C981 1.350 . S
N979 S977 1.610 . S
N979 C980 1.351 . S
C980 C974 1.428 . S
C980 N979 1.351 . S
C980 C981 1.434 . S
C981 C972 1.429 . S
C981 N978 1.350 . S
C981 C980 1.434 . S
C982 C983 1.369 . S
C982 C984 1.419 . S
C982 H986 0.930 . S
C983 C982 1.369 . S
C983 C992 1.429 . S
C984 C982 1.419 . S
C984 C985 1.363 . S
C984 H987 0.929 . S
C985 C984 1.363 . S
C985 C991 1.428 . S
H986 C982 0.930 . S
H987 C984 0.929 . S
S988 N989 1.613 . S
S988 N990 1.610 . S
N989 S988 1.613 . S
N989 C992 1.350 . S
N990 S988 1.610 . S
N990 C991 1.351 . S
C991 C985 1.428 . S
C991 N990 1.351 . S
C991 C992 1.434 . S
C992 C983 1.429 . S
C992 N989 1.350 . S
C992 C991 1.434 . S
C993 C994 1.369 . S
C993 C995 1.419 . S
C993 H997 0.930 . S
C994 C993 1.369 . S
C994 C1003 1.429 . S
C995 C993 1.419 . S
C995 C996 1.363 . S
C995 H998 0.929 . S
C996 C995 1.363 . S
C996 C1002 1.428 . S
H997 C993 0.930 . S
H998 C995 0.929 . S
S999 N1000 1.613 . S
S999 N1001 1.610 . S
N1000 S999 1.613 . S
N1000 C1003 1.350 . S
N1001 S999 1.610 . S
N1001 C1002 1.351 . S
C1002 C996 1.428 . S
C1002 N1001 1.351 . S
C1002 C1003 1.434 . S
C1003 C994 1.429 . S
C1003 N1000 1.350 . S
C1003 C1002 1.434 . S
C1004 C1005 1.369 . S
C1004 C1006 1.419 1_554 S
C1004 H1008 0.930 . S
C1005 C1004 1.369 . S
C1005 C1014 1.429 . S
C1006 C1004 1.419 1_556 S
C1006 C1007 1.363 . S
C1006 H1009 0.929 . S
C1007 C1006 1.363 . S
C1007 C1013 1.428 . S
H1008 C1004 0.930 . S
H1009 C1006 0.929 . S
S1010 N1011 1.613 1_556 S
S1010 N1012 1.610 . S
N1011 S1010 1.613 1_554 S
N1011 C1014 1.350 . S
N1012 S1010 1.610 . S
N1012 C1013 1.351 . S
C1013 C1007 1.428 . S
C1013 N1012 1.351 . S
C1013 C1014 1.434 1_556 S
C1014 C1005 1.429 . S
C1014 N1011 1.350 . S
C1014 C1013 1.434 1_554 S
C1015 C1016 1.369 . S
C1015 C1017 1.419 . S
C1015 H1019 0.930 . S
C1016 C1015 1.369 . S
C1016 C1025 1.429 . S
C1017 C1015 1.419 . S
C1017 C1018 1.363 . S
C1017 H1020 0.929 . S
C1018 C1017 1.363 . S
C1018 C1024 1.428 . S
H1019 C1015 0.930 . S
H1020 C1017 0.929 . S
S1021 N1022 1.613 . S
S1021 N1023 1.610 . S
N1022 S1021 1.613 . S
N1022 C1025 1.350 . S
N1023 S1021 1.610 . S
N1023 C1024 1.351 . S
C1024 C1018 1.428 . S
C1024 N1023 1.351 . S
C1024 C1025 1.434 . S
C1025 C1016 1.429 . S
C1025 N1022 1.350 . S
C1025 C1024 1.434 . S
C765 C754 1.629 . S
C763 C1 1.247 . S
C774 C169 1.423 . S
C776 C689 1.729 . S
C785 C283 1.400 . S
C787 C707 1.715 . S
C796 C397 1.266 . S
C798 C720 1.574 . S
C809 C728 1.489 . S
C807 C457 1.160 . S
C818 C571 1.157 . S
C820 C740 1.505 . S
C829 C115 1.261 . S
C831 C702 1.621 . S
C840 C229 1.156 . S
C842 C715 1.508 . S
C851 C343 1.150 . S
C853 C733 1.482 . S
C864 C739 1.588 . S
C862 C511 1.289 . S
C875 C759 1.699 . S
C873 C625 1.374 . S
C886 C694 1.742 . S
C884 C55 1.435 . S
C895 C29 1.350 . S
C897 C700 1.566 . S
C906 C125 0.886 . S
C908 C713 1.658 . S
C919 C727 1.588 . S
C917 C239 0.828 . S
C928 C353 0.860 . S
C930 C741 1.590 . S
C941 C753 1.502 . S
C939 C485 1.285 . S
C952 C688 1.572 . S
C950 C599 1.340 . S
C963 C752 1.577 . S
C961 C143 1.364 . S
C972 C257 1.332 . S
C974 C687 1.569 . S
C985 C701 1.512 . S
C983 C371 1.289 . S
C994 C467 0.839 . S
C996 C714 1.574 . S
C1005 C581 0.857 . S
C1007 C726 1.598 . S
C1016 C11 0.879 . S
C1018 C746 1.644 . S
