# Generated by pormake.
# Topology eea, (3,6)-cn, num edge types: 1
# Building blocks:
#     Node 0, Type 0, BuildingBlock: PAMTOO_clean_linker_0, # of connection points: 3
#     Node 1, Type 0, BuildingBlock: PAMTOO_clean_linker_0, # of connection points: 3
#     Node 2, Type 0, BuildingBlock: PAMTOO_clean_linker_0, # of connection points: 3
#     Node 3, Type 0, BuildingBlock: PAMTOO_clean_linker_0, # of connection points: 3
#     Node 4, Type 0, BuildingBlock: PAMTOO_clean_linker_0, # of connection points: 3
#     Node 5, Type 0, BuildingBlock: PAMTOO_clean_linker_0, # of connection points: 3
#     Node 6, Type 0, BuildingBlock: PAMTOO_clean_linker_0, # of connection points: 3
#     Node 7, Type 0, BuildingBlock: PAMTOO_clean_linker_0, # of connection points: 3
#     Node 8, Type 0, BuildingBlock: PAMTOO_clean_linker_0, # of connection points: 3
#     Node 9, Type 0, BuildingBlock: PAMTOO_clean_linker_0, # of connection points: 3
#     Node 10, Type 0, BuildingBlock: PAMTOO_clean_linker_0, # of connection points: 3
#     Node 11, Type 0, BuildingBlock: PAMTOO_clean_linker_0, # of connection points: 3
#     Node 12, Type 0, BuildingBlock: PAMTOO_clean_linker_0, # of connection points: 3
#     Node 13, Type 0, BuildingBlock: PAMTOO_clean_linker_0, # of connection points: 3
#     Node 14, Type 0, BuildingBlock: PAMTOO_clean_linker_0, # of connection points: 3
#     Node 15, Type 0, BuildingBlock: PAMTOO_clean_linker_0, # of connection points: 3
#     Node 16, Type 0, BuildingBlock: PAMTOO_clean_linker_0, # of connection points: 3
#     Node 17, Type 0, BuildingBlock: PAMTOO_clean_linker_0, # of connection points: 3
#     Node 18, Type 1, BuildingBlock: CUKXOW_clean_sbu_0, # of connection points: 6
#     Node 19, Type 1, BuildingBlock: CUKXOW_clean_sbu_0, # of connection points: 6
#     Node 20, Type 1, BuildingBlock: CUKXOW_clean_sbu_0, # of connection points: 6
#     Node 21, Type 1, BuildingBlock: CUKXOW_clean_sbu_0, # of connection points: 6
#     Node 22, Type 1, BuildingBlock: CUKXOW_clean_sbu_0, # of connection points: 6
#     Node 23, Type 1, BuildingBlock: CUKXOW_clean_sbu_0, # of connection points: 6
#     Node 24, Type 1, BuildingBlock: CUKXOW_clean_sbu_0, # of connection points: 6
#     Node 25, Type 1, BuildingBlock: CUKXOW_clean_sbu_0, # of connection points: 6
#     Node 26, Type 1, BuildingBlock: CUKXOW_clean_sbu_0, # of connection points: 6
#     Edge 27, Type (0, 1), BuildingBlock: OJICUG_clean_linker_0, # of connection points: 2
#     Edge 28, Type (0, 1), BuildingBlock: OJICUG_clean_linker_0, # of connection points: 2
#     Edge 29, Type (0, 1), BuildingBlock: OJICUG_clean_linker_0, # of connection points: 2
#     Edge 30, Type (0, 1), BuildingBlock: OJICUG_clean_linker_0, # of connection points: 2
#     Edge 31, Type (0, 1), BuildingBlock: OJICUG_clean_linker_0, # of connection points: 2
#     Edge 32, Type (0, 1), BuildingBlock: OJICUG_clean_linker_0, # of connection points: 2
#     Edge 33, Type (0, 1), BuildingBlock: OJICUG_clean_linker_0, # of connection points: 2
#     Edge 34, Type (0, 1), BuildingBlock: OJICUG_clean_linker_0, # of connection points: 2
#     Edge 35, Type (0, 1), BuildingBlock: OJICUG_clean_linker_0, # of connection points: 2
#     Edge 36, Type (0, 1), BuildingBlock: OJICUG_clean_linker_0, # of connection points: 2
#     Edge 37, Type (0, 1), BuildingBlock: OJICUG_clean_linker_0, # of connection points: 2
#     Edge 38, Type (0, 1), BuildingBlock: OJICUG_clean_linker_0, # of connection points: 2
#     Edge 39, Type (0, 1), BuildingBlock: OJICUG_clean_linker_0, # of connection points: 2
#     Edge 40, Type (0, 1), BuildingBlock: OJICUG_clean_linker_0, # of connection points: 2
#     Edge 41, Type (0, 1), BuildingBlock: OJICUG_clean_linker_0, # of connection points: 2
#     Edge 42, Type (0, 1), BuildingBlock: OJICUG_clean_linker_0, # of connection points: 2
#     Edge 43, Type (0, 1), BuildingBlock: OJICUG_clean_linker_0, # of connection points: 2
#     Edge 44, Type (0, 1), BuildingBlock: OJICUG_clean_linker_0, # of connection points: 2
#     Edge 45, Type (0, 1), BuildingBlock: OJICUG_clean_linker_0, # of connection points: 2
#     Edge 46, Type (0, 1), BuildingBlock: OJICUG_clean_linker_0, # of connection points: 2
#     Edge 47, Type (0, 1), BuildingBlock: OJICUG_clean_linker_0, # of connection points: 2
#     Edge 48, Type (0, 1), BuildingBlock: OJICUG_clean_linker_0, # of connection points: 2
#     Edge 49, Type (0, 1), BuildingBlock: OJICUG_clean_linker_0, # of connection points: 2
#     Edge 50, Type (0, 1), BuildingBlock: OJICUG_clean_linker_0, # of connection points: 2
#     Edge 51, Type (0, 1), BuildingBlock: OJICUG_clean_linker_0, # of connection points: 2
#     Edge 52, Type (0, 1), BuildingBlock: OJICUG_clean_linker_0, # of connection points: 2
#     Edge 53, Type (0, 1), BuildingBlock: OJICUG_clean_linker_0, # of connection points: 2
#     Edge 54, Type (0, 1), BuildingBlock: OJICUG_clean_linker_0, # of connection points: 2
#     Edge 55, Type (0, 1), BuildingBlock: OJICUG_clean_linker_0, # of connection points: 2
#     Edge 56, Type (0, 1), BuildingBlock: OJICUG_clean_linker_0, # of connection points: 2
#     Edge 57, Type (0, 1), BuildingBlock: OJICUG_clean_linker_0, # of connection points: 2
#     Edge 58, Type (0, 1), BuildingBlock: OJICUG_clean_linker_0, # of connection points: 2
#     Edge 59, Type (0, 1), BuildingBlock: OJICUG_clean_linker_0, # of connection points: 2
#     Edge 60, Type (0, 1), BuildingBlock: OJICUG_clean_linker_0, # of connection points: 2
#     Edge 61, Type (0, 1), BuildingBlock: OJICUG_clean_linker_0, # of connection points: 2
#     Edge 62, Type (0, 1), BuildingBlock: OJICUG_clean_linker_0, # of connection points: 2
#     Edge 63, Type (0, 1), BuildingBlock: OJICUG_clean_linker_0, # of connection points: 2
#     Edge 64, Type (0, 1), BuildingBlock: OJICUG_clean_linker_0, # of connection points: 2
#     Edge 65, Type (0, 1), BuildingBlock: OJICUG_clean_linker_0, # of connection points: 2
#     Edge 66, Type (0, 1), BuildingBlock: OJICUG_clean_linker_0, # of connection points: 2
#     Edge 67, Type (0, 1), BuildingBlock: OJICUG_clean_linker_0, # of connection points: 2
#     Edge 68, Type (0, 1), BuildingBlock: OJICUG_clean_linker_0, # of connection points: 2
#     Edge 69, Type (0, 1), BuildingBlock: OJICUG_clean_linker_0, # of connection points: 2
#     Edge 70, Type (0, 1), BuildingBlock: OJICUG_clean_linker_0, # of connection points: 2
#     Edge 71, Type (0, 1), BuildingBlock: OJICUG_clean_linker_0, # of connection points: 2
#     Edge 72, Type (0, 1), BuildingBlock: OJICUG_clean_linker_0, # of connection points: 2
#     Edge 73, Type (0, 1), BuildingBlock: OJICUG_clean_linker_0, # of connection points: 2
#     Edge 74, Type (0, 1), BuildingBlock: OJICUG_clean_linker_0, # of connection points: 2
#     Edge 75, Type (0, 1), BuildingBlock: OJICUG_clean_linker_0, # of connection points: 2
#     Edge 76, Type (0, 1), BuildingBlock: OJICUG_clean_linker_0, # of connection points: 2
#     Edge 77, Type (0, 1), BuildingBlock: OJICUG_clean_linker_0, # of connection points: 2
#     Edge 78, Type (0, 1), BuildingBlock: OJICUG_clean_linker_0, # of connection points: 2
#     Edge 79, Type (0, 1), BuildingBlock: OJICUG_clean_linker_0, # of connection points: 2
#     Edge 80, Type (0, 1), BuildingBlock: OJICUG_clean_linker_0, # of connection points: 2
# Relax obj value: 0.033
# Max RMSD: 0.162
# Mean RMSD: 0.087
data_MOF--net-eea--node1-CUKXOW_clean_sbu_0--node2-PAMTOO_clean_linker_0--edge1-OJICUG_clean_linker_0
_symmetry_space_group_name_H-M    P1
_symmetry_Int_Tables_number       1
_symmetry_cell_setting            triclinic
loop_
_symmetry_equiv_pos_as_xyz
'x, y, z'
_cell_length_a     44.808047
_cell_length_b     40.890353
_cell_length_c     35.096066
_cell_angle_alpha  93.36078
_cell_angle_beta   93.557283
_cell_angle_gamma 120.10008
loop_
_atom_site_label
_atom_site_type_symbol
_atom_site_fract_x
_atom_site_fract_y
_atom_site_fract_z
_atom_type_partial_charge
H0 H 0.26104 0.06779 0.46189 0.0
H1 H 0.24624 0.16373 0.48134 0.0
H2 H 0.20094 0.08876 0.37724 0.0
H3 H 0.22401 0.16217 0.35961 0.0
C4 C 0.22937 0.1776 0.38864 0.0
O5 O 0.21161 0.15184 0.41427 0.0
H6 H 0.25781 0.19196 0.39742 0.0
C7 C 0.25015 0.08484 0.45281 0.0
C8 C 0.2302 0.07427 0.41704 0.0
C9 C 0.25559 0.11649 0.47709 0.0
C10 C 0.24227 0.13896 0.46372 0.0
C11 C 0.22298 0.12916 0.42761 0.0
C12 C 0.21619 0.09632 0.40488 0.0
H13 H 0.94224 0.19592 0.4803 0.0
H14 H 0.85081 0.08417 0.45777 0.0
H15 H 0.93369 0.11638 0.38795 0.0
H16 H 0.86676 0.05714 0.34259 0.0
C17 C 0.85184 0.05481 0.36743 0.0
O18 O 0.87297 0.06219 0.40099 0.0
H19 H 0.84329 0.07608 0.36591 0.0
C20 C 0.92772 0.16833 0.46385 0.0
C21 C 0.94172 0.1603 0.43208 0.0
C22 C 0.89499 0.14095 0.47415 0.0
C23 C 0.87648 0.10546 0.45181 0.0
C24 C 0.89064 0.09687 0.42118 0.0
C25 C 0.92314 0.12393 0.41162 0.0
H26 H 0.81421 0.7133 0.46868 0.0
H27 H 0.9164 0.72858 0.46923 0.0
H28 H 0.88266 0.78017 0.38732 0.0
H29 H 0.9228 0.74822 0.35462 0.0
C30 C 0.93866 0.75014 0.38127 0.0
O31 O 0.93311 0.76936 0.41099 0.0
H32 H 0.93046 0.72067 0.38788 0.0
C33 C 0.8386 0.72464 0.45623 0.0
C34 C 0.84494 0.74759 0.42592 0.0
C35 C 0.86424 0.71786 0.47214 0.0
C36 C 0.89613 0.733 0.45672 0.0
C37 C 0.90222 0.75454 0.4255 0.0
C38 C 0.87686 0.76205 0.41036 0.0
H39 H 0.08023 0.28067 0.54072 0.0
H40 H 0.17093 0.27 0.56249 0.0
H41 H 0.08867 0.2199 0.63311 0.0
H42 H 0.15761 0.24754 0.67618 0.0
C43 C 0.17194 0.25013 0.6507 0.0
O44 O 0.14855 0.22956 0.61909 0.0
H45 H 0.18728 0.28082 0.64631 0.0
C46 C 0.09473 0.27054 0.55698 0.0
C47 C 0.0809 0.25065 0.58897 0.0
C48 C 0.12725 0.27762 0.54639 0.0
C49 C 0.14539 0.26411 0.56845 0.0
C50 C 0.13122 0.24324 0.59917 0.0
C51 C 0.09917 0.23639 0.60925 0.0
H52 H 0.76206 0.81269 0.56131 0.0
H53 H 0.77858 0.92674 0.57474 0.0
H54 H 0.82609 0.89152 0.6589 0.0
H55 H 0.82102 0.95699 0.69443 0.0
C56 C 0.80814 0.95868 0.66714 0.0
O57 O 0.82074 0.94819 0.63673 0.0
H58 H 0.7797 0.93882 0.66689 0.0
C59 C 0.77291 0.8403 0.57744 0.0
C60 C 0.7938 0.84812 0.6124 0.0
C61 C 0.76757 0.86866 0.56258 0.0
C62 C 0.78285 0.90454 0.58416 0.0
C63 C 0.80423 0.9127 0.61819 0.0
C64 C 0.80963 0.88467 0.63223 0.0
H65 H 0.21593 0.95105 0.56559 0.0
H66 H 0.11167 0.85477 0.5445 0.0
H67 H 0.14403 0.92776 0.64979 0.0
H68 H 0.10519 0.84808 0.66042 0.0
C69 C 0.08794 0.83644 0.63294 0.0
O70 O 0.0936 0.8657 0.61121 0.0
H71 H 0.09438 0.81667 0.61728 0.0
C72 C 0.19031 0.93352 0.57443 0.0
C73 C 0.18305 0.94346 0.61024 0.0
C74 C 0.16473 0.90197 0.54975 0.0
C75 C 0.13199 0.87919 0.56261 0.0
C76 C 0.12487 0.8882 0.59884 0.0
C77 C 0.15007 0.92068 0.62218 0.0
H78 H 0.9269 0.40076 0.79005 0.0
H79 H 0.91694 0.49991 0.81005 0.0
H80 H 0.86948 0.42553 0.70577 0.0
H81 H 0.89813 0.50059 0.68934 0.0
C82 C 0.90168 0.51572 0.71812 0.0
O83 O 0.8828 0.48963 0.74299 0.0
H84 H 0.92977 0.53071 0.72883 0.0
C85 C 0.91705 0.41882 0.7812 0.0
C86 C 0.89719 0.40913 0.7455 0.0
C87 C 0.92379 0.45092 0.8056 0.0
C88 C 0.91194 0.47474 0.79235 0.0
C89 C 0.89284 0.46581 0.75619 0.0
C90 C 0.88465 0.43249 0.73339 0.0
H91 H 0.60914 0.53593 0.80649 0.0
H92 H 0.51592 0.42552 0.78368 0.0
H93 H 0.59378 0.46045 0.70666 0.0
H94 H 0.52108 0.39938 0.66564 0.0
C95 C 0.50953 0.39644 0.69324 0.0
O96 O 0.53473 0.40502 0.72308 0.0
H97 H 0.49965 0.41658 0.69552 0.0
C98 C 0.59318 0.5092 0.78884 0.0
C99 C 0.60503 0.5023 0.75455 0.0
C100 C 0.56097 0.4817 0.80027 0.0
C101 C 0.54108 0.44709 0.77669 0.0
C102 C 0.55311 0.43957 0.74347 0.0
C103 C 0.58476 0.46705 0.73233 0.0
H104 H 0.48301 0.0564 0.80342 0.0
H105 H 0.58195 0.06337 0.80318 0.0
H106 H 0.55196 0.11703 0.71982 0.0
H107 H 0.58778 0.07914 0.68846 0.0
C108 C 0.60429 0.08197 0.71492 0.0
O109 O 0.60014 0.10291 0.74408 0.0
H110 H 0.59609 0.05293 0.72298 0.0
C111 C 0.50701 0.06559 0.79056 0.0
C112 C 0.5143 0.08778 0.75959 0.0
C113 C 0.53122 0.05669 0.80637 0.0
C114 C 0.56269 0.06933 0.79061 0.0
C115 C 0.56962 0.09026 0.75885 0.0
C116 C 0.54559 0.09956 0.74345 0.0
H117 H 0.75869 0.64076 0.89276 0.0
H118 H 0.8447 0.62078 0.89411 0.0
H119 H 0.76498 0.56368 0.96681 0.0
H120 H 0.83402 0.59053 0.00589 0.0
C121 C 0.84829 0.59298 0.98037 0.0
O122 O 0.82479 0.57597 0.94808 0.0
H123 H 0.86591 0.62375 0.97777 0.0
C124 C 0.772 0.62655 0.90315 0.0
C125 C 0.7575 0.60079 0.93074 0.0
C126 C 0.80345 0.63415 0.88918 0.0
C127 C 0.82088 0.61645 0.90455 0.0
C128 C 0.80734 0.592 0.93306 0.0
C129 C 0.7756 0.58378 0.9457 0.0
H130 H 0.41617 0.14268 0.90498 0.0
H131 H 0.45167 0.26283 0.90733 0.0
H132 H 0.49557 0.22377 0.99142 0.0
H133 H 0.50199 0.29739 0.02619 0.0
C134 C 0.48544 0.2961 1.00056 0.0
O135 O 0.49416 0.28266 0.96855 0.0
H136 H 0.458 0.27625 0.00557 0.0
C137 C 0.4327 0.17185 0.91719 0.0
C138 C 0.45639 0.1795 0.94963 0.0
C139 C 0.43009 0.20143 0.90114 0.0
C140 C 0.45157 0.23888 0.91899 0.0
C141 C 0.47431 0.24655 0.95175 0.0
C142 C 0.47699 0.21708 0.96672 0.0
H143 H 0.8798 0.28351 0.89745 0.0
H144 H 0.77523 0.18822 0.87427 0.0
H145 H 0.80678 0.26054 0.98014 0.0
H146 H 0.76771 0.18105 0.99007 0.0
C147 C 0.75013 0.16952 0.96281 0.0
O148 O 0.75627 0.19881 0.94084 0.0
H149 H 0.75592 0.1492 0.94715 0.0
C150 C 0.85391 0.26618 0.90572 0.0
C151 C 0.84632 0.27593 0.94134 0.0
C152 C 0.82848 0.23516 0.88049 0.0
C153 C 0.79542 0.2124 0.89277 0.0
C154 C 0.78787 0.22121 0.92893 0.0
C155 C 0.81303 0.25346 0.95267 0.0
H156 H 0.59366 0.73448 0.12489 0.0
H157 H 0.58366 0.83364 0.14452 0.0
H158 H 0.53742 0.75979 0.03964 0.0
H159 H 0.56669 0.83506 0.02392 0.0
C160 C 0.569 0.85006 0.05238 0.0
O161 O 0.55006 0.82367 0.07702 0.0
H162 H 0.59687 0.86604 0.06408 0.0
C163 C 0.58398 0.75264 0.11583 0.0
C164 C 0.56462 0.74317 0.07983 0.0
C165 C 0.59043 0.78459 0.14029 0.0
C166 C 0.57886 0.80859 0.12675 0.0
C167 C 0.56021 0.7999 0.09029 0.0
C168 C 0.55227 0.76664 0.06745 0.0
H169 H 0.2647 0.87426 0.12784 0.0
H170 H 0.18448 0.75554 0.12171 0.0
H171 H 0.26273 0.79035 0.04616 0.0
H172 H 0.19797 0.7259 1.00475 0.0
C173 C 0.18309 0.72464 0.02935 0.0
O174 O 0.2047 0.73461 0.06311 0.0
H175 H 0.17385 0.74514 0.02573 0.0
C176 C 0.25282 0.84495 0.11604 0.0
C177 C 0.26798 0.83604 0.08596 0.0
C178 C 0.2224 0.81642 0.13006 0.0
C179 C 0.20707 0.77892 0.112 0.0
C180 C 0.22104 0.77026 0.08123 0.0
C181 C 0.25172 0.79834 0.069 0.0
H182 H 0.15407 0.40182 0.13879 0.0
H183 H 0.25485 0.41247 0.15459 0.0
H184 H 0.22971 0.46138 0.06176 0.0
H185 H 0.26109 0.41533 0.03993 0.0
C186 C 0.27934 0.42243 0.0662 0.0
O187 O 0.27578 0.44635 0.09249 0.0
H188 H 0.27269 0.39541 0.07854 0.0
C189 C 0.18011 0.41268 0.13078 0.0
C190 C 0.18965 0.43411 0.09944 0.0
C191 C 0.20356 0.40584 0.15223 0.0
C192 C 0.23611 0.41745 0.13904 0.0
C193 C 0.24493 0.43628 0.10567 0.0
C194 C 0.222 0.44527 0.08636 0.0
H195 H 0.42084 0.96597 0.22521 0.0
H196 H 0.51351 0.95904 0.2365 0.0
H197 H 0.43624 0.90471 0.31327 0.0
H198 H 0.50934 0.93686 0.35056 0.0
C199 C 0.5215 0.93694 0.32384 0.0
O200 O 0.49597 0.91734 0.29376 0.0
H201 H 0.53851 0.96703 0.31823 0.0
C202 C 0.43659 0.95659 0.24032 0.0
C203 C 0.42445 0.93478 0.27147 0.0
C204 C 0.46881 0.96576 0.22794 0.0
C205 C 0.48914 0.95324 0.24672 0.0
C206 C 0.4774 0.93161 0.27763 0.0
C207 C 0.44532 0.92254 0.29006 0.0
H208 H 0.09617 0.47827 0.22427 0.0
H209 H 0.1127 0.5923 0.23875 0.0
H210 H 0.16016 0.55637 0.32228 0.0
H211 H 0.15299 0.62156 0.35831 0.0
C212 C 0.14095 0.62354 0.33055 0.0
O213 O 0.15447 0.61327 0.30089 0.0
H214 H 0.11242 0.60367 0.3293 0.0
C215 C 0.10707 0.50583 0.24054 0.0
C216 C 0.12791 0.51335 0.2755 0.0
C217 C 0.10177 0.53433 0.22597 0.0
C218 C 0.11702 0.57005 0.24786 0.0
C219 C 0.13829 0.57795 0.28193 0.0
C220 C 0.14375 0.54979 0.29563 0.0
H221 H 0.54591 0.62024 0.22859 0.0
H222 H 0.44152 0.52555 0.20119 0.0
H223 H 0.46964 0.59649 0.30747 0.0
H224 H 0.43154 0.5143 0.31337 0.0
C225 C 0.41364 0.50454 0.28638 0.0
O226 O 0.42043 0.53518 0.26637 0.0
H227 H 0.4183 0.48423 0.2689 0.0
C228 C 0.51958 0.60298 0.23567 0.0
C229 C 0.51067 0.61236 0.27062 0.0
C230 C 0.49488 0.57212 0.20975 0.0
C231 C 0.46117 0.54959 0.22032 0.0
C232 C 0.45237 0.55805 0.25574 0.0
C233 C 0.47684 0.58986 0.28042 0.0
Tb234 Tb 0.54359 0.04479 0.02107 0.0
C235 C 0.52218 0.95719 0.02384 0.0
Tb236 Tb 0.46528 0.98157 0.01483 0.0
O237 O 0.5429 0.06075 0.08226 0.0
O238 O 0.50875 1.00674 0.05606 0.0
O239 O 0.54642 0.99251 0.01862 0.0
C240 C 0.40107 0.94008 0.03513 0.0
O241 O 0.48926 0.94732 0.02712 0.0
C242 C 0.4935 0.99609 0.95002 0.0
C243 C 0.48662 0.06842 0.00715 0.0
O244 O 0.41157 0.93417 1.00308 0.0
O245 O 0.42664 0.96945 0.05548 0.0
O246 O 0.46584 0.96398 0.95445 0.0
O247 O 0.50038 0.01866 0.97937 0.0
O248 O 0.4621 0.03387 0.01419 0.0
O249 O 0.51925 0.07736 1.00387 0.0
C250 C 0.60861 0.08596 1.00276 0.0
O251 O 0.59578 0.0956 0.03061 0.0
O252 O 0.58497 0.05311 0.98574 0.0
C253 C 0.51553 0.02825 0.08613 0.0
Tb254 Tb 0.98657 0.51191 0.01756 0.0
C255 C 0.06586 0.57038 0.02008 0.0
Tb256 Tb 0.03576 0.48059 0.01742 0.0
O257 O 1.00841 0.53863 0.07613 0.0
O258 O 1.00565 0.48777 0.0572 0.0
O259 O 0.03412 0.56462 0.01228 0.0
C260 C 0.08544 0.4662 0.04019 0.0
O261 O 0.07193 0.54221 0.02534 0.0
C262 C 1.00612 0.47789 0.95009 0.0
C263 C 0.95631 0.42215 0.00944 0.0
O264 O 0.06565 0.47124 0.06228 0.0
O265 O 0.07687 0.46847 0.00483 0.0
O266 O 0.01604 0.45406 0.95879 0.0
O267 O 0.01615 0.50382 0.97742 0.0
O268 O 0.98755 0.42761 0.02049 0.0
O269 O 0.95082 0.45068 1.00368 0.0
C270 C 0.93848 0.53094 1.00241 0.0
O271 O 0.94273 0.51743 0.03353 0.0
O272 O 0.96118 0.53351 0.97969 0.0
C273 C 0.01649 0.51342 0.08477 0.0
Tb274 Tb 0.48248 0.50707 1.00377 0.0
C275 C 0.50953 0.44973 0.99891 0.0
Tb276 Tb 0.56076 0.53969 1.00047 0.0
O277 O 0.47254 0.48013 0.9449 0.0
O278 O 0.51843 0.53094 0.96279 0.0
O279 O 0.48414 0.45534 0.00859 0.0
C280 C 0.62282 0.55906 0.97831 0.0
O281 O 0.54026 0.47797 0.99169 0.0
C282 C 0.54185 0.54277 0.06881 0.0
C283 C 0.53406 0.59705 0.01055 0.0
O284 O 0.59694 0.55623 0.9566 0.0
O285 O 0.61374 0.55091 0.01246 0.0
O286 O 0.57226 0.56673 0.05913 0.0
O287 O 0.52517 0.51671 0.04175 0.0
O288 O 0.55934 0.59207 0.9989 0.0
O289 O 0.50321 0.56827 0.01649 0.0
C290 C 0.41977 0.48635 0.02522 0.0
O291 O 0.43002 0.49798 0.99222 0.0
O292 O 0.44483 0.48655 0.046 0.0
C293 C 0.50263 0.5052 0.93543 0.0
Tb294 Tb 0.21124 0.37429 0.35038 0.0
C295 C 0.18915 0.29052 0.36483 0.0
Tb296 Tb 0.13315 0.31768 0.35542 0.0
O297 O 0.22206 0.37165 0.4114 0.0
O298 O 0.17447 0.36424 0.38992 0.0
O299 O 0.21323 0.32263 0.35289 0.0
C300 C 0.0724 0.27015 0.38053 0.0
O301 O 0.15729 0.28364 0.36987 0.0
C302 C 0.15254 0.32745 0.28615 0.0
C303 C 0.15565 0.40078 0.33589 0.0
O304 O 0.08024 0.26885 0.3457 0.0
O305 O 0.09876 0.29835 0.4013 0.0
O306 O 0.12136 0.31769 0.29415 0.0
O307 O 0.16978 0.32772 0.31602 0.0
O308 O 0.13097 0.3695 0.34891 0.0
O309 O 0.18736 0.40686 0.33213 0.0
C310 C 0.27304 0.42075 0.32711 0.0
O311 O 0.26305 0.42518 0.36003 0.0
O312 O 0.24818 0.39031 0.30735 0.0
C313 C 0.19122 0.36316 0.4195 0.0
Tb314 Tb 0.65276 0.84584 0.35387 0.0
C315 C 0.73258 0.90164 0.35576 0.0
Tb316 Tb 0.69974 0.81165 0.35389 0.0
O317 O 0.67559 0.87304 0.41204 0.0
O318 O 0.67096 0.8211 0.39388 0.0
O319 O 0.70128 0.89689 0.34731 0.0
C320 C 0.74559 0.79112 0.37554 0.0
O321 O 0.73757 0.87289 0.36215 0.0
C322 C 0.6702 0.80933 0.28636 0.0
C323 C 0.6197 0.75587 0.34499 0.0
O324 O 0.72558 0.79574 0.39767 0.0
O325 O 0.73981 0.79803 0.34106 0.0
O326 O 0.67918 0.78484 0.29538 0.0
O327 O 0.68105 0.8356 0.31348 0.0
O328 O 0.65033 0.7601 0.35666 0.0
O329 O 0.61542 0.78517 0.33916 0.0
C330 C 0.60697 0.86848 0.34078 0.0
O331 O 0.60982 0.85264 0.37069 0.0
O332 O 0.62963 0.87112 0.31795 0.0
C333 C 0.68273 0.84724 0.42106 0.0
Tb334 Tb 0.14703 0.83966 0.33754 0.0
C335 C 0.17145 0.77993 0.33295 0.0
Tb336 Tb 0.22487 0.86948 0.33622 0.0
O337 O 0.13657 0.81489 0.27792 0.0
O338 O 0.18406 0.86347 0.29722 0.0
O339 O 0.14631 0.78652 0.3411 0.0
C340 C 0.28776 0.88773 0.31663 0.0
O341 O 0.20307 0.80757 0.32748 0.0
C342 C 0.20514 0.87246 0.4041 0.0
C343 C 0.20028 0.92876 0.3466 0.0
O344 O 0.26162 0.88197 0.29345 0.0
O345 O 0.27853 0.88295 0.35112 0.0
O346 O 0.23594 0.89576 0.39501 0.0
O347 O 0.18821 0.84679 0.37667 0.0
O348 O 0.22501 0.9229 0.33465 0.0
O349 O 0.16917 0.90057 0.35246 0.0
C350 C 0.08351 0.81984 0.35572 0.0
O351 O 0.09622 0.8344 0.32459 0.0
O352 O 0.10672 0.8169 0.37677 0.0
C353 C 0.16732 0.83868 0.26907 0.0
Tb354 Tb 0.88052 0.71323 0.68741 0.0
C355 C 0.85826 0.62604 0.6935 0.0
Tb356 Tb 0.80194 0.65097 0.68252 0.0
O357 O 0.88125 0.7347 0.74653 0.0
O358 O 0.84501 0.67966 0.7247 0.0
O359 O 0.8832 0.66146 0.69022 0.0
C360 C 0.73846 0.60669 0.7042 0.0
O361 O 0.82492 0.61569 0.69303 0.0
C362 C 0.83083 0.66084 0.618 0.0
C363 C 0.82432 0.73712 0.67103 0.0
O364 O 0.74504 0.61584 0.66953 0.0
O365 O 0.76748 0.62233 0.72609 0.0
O366 O 0.80338 0.62916 0.62411 0.0
O367 O 0.83751 0.68517 0.64565 0.0
O368 O 0.79991 0.70398 0.68155 0.0
O369 O 0.85632 0.74442 0.66657 0.0
C370 C 0.94571 0.75333 0.66976 0.0
O371 O 0.93198 0.76488 0.69488 0.0
O372 O 0.92283 0.71921 0.65489 0.0
C373 C 0.85246 0.70451 0.75218 0.0
Tb374 Tb 0.3176 0.1793 0.6899 0.0
C375 C 0.39653 0.24028 0.69106 0.0
Tb376 Tb 0.36892 0.15119 0.68936 0.0
O377 O 0.33688 0.20499 0.74897 0.0
O378 O 0.338 0.1563 0.72986 0.0
O379 O 0.36421 0.23322 0.68509 0.0
C380 C 0.41854 0.13565 0.70953 0.0
O381 O 0.40405 0.21302 0.69541 0.0
C382 C 0.33858 0.14741 0.62201 0.0
C383 C 0.28997 0.09054 0.68093 0.0
O384 O 0.40281 0.14598 0.73279 0.0
O385 O 0.40657 0.13429 0.6745 0.0
O386 O 0.34961 0.12458 0.63072 0.0
O387 O 0.34789 0.17312 0.64939 0.0
O388 O 0.32148 0.09739 0.69304 0.0
O389 O 0.28342 0.11818 0.67467 0.0
C390 C 0.2682 0.19629 0.67458 0.0
O391 O 0.27176 0.18122 0.70478 0.0
O392 O 0.29226 0.20145 0.65281 0.0
C393 C 0.34714 0.18155 0.75771 0.0
Tb394 Tb 0.81213 0.17295 0.66994 0.0
C395 C 0.83789 0.11455 0.66789 0.0
Tb396 Tb 0.89007 0.20403 0.6669 0.0
O397 O 0.80219 0.14483 0.61169 0.0
O398 O 0.8481 0.19569 0.62892 0.0
O399 O 0.81285 0.12107 0.6767 0.0
C400 C 0.95088 0.22134 0.64197 0.0
O401 O 0.86894 0.14209 0.66054 0.0
C402 C 0.87134 0.20806 0.73525 0.0
C403 C 0.86456 0.26242 0.67648 0.0
O404 O 0.94387 0.21725 0.67734 0.0
O405 O 0.92368 0.2157 0.62071 0.0
O406 O 0.90192 0.23151 0.72551 0.0
O407 O 0.85437 0.18192 0.70833 0.0
O408 O 0.88936 0.25674 0.66451 0.0
O409 O 0.83369 0.23414 0.68303 0.0
C410 C 0.74853 0.15237 0.68762 0.0
O411 O 0.76065 0.16535 0.65571 0.0
O412 O 0.77239 0.15153 0.70973 0.0
C413 C 0.83218 0.16961 0.60189 0.0
C414 C 0.30668 0.86408 0.03345 0.0
C415 C 0.30116 0.86542 0.07249 0.0
H416 H 0.34258 0.8863 0.99121 0.0
C417 C 0.32844 0.89341 0.09869 0.0
H418 H 0.28614 0.84362 0.01221 0.0
C419 C 0.36063 0.91845 0.08633 0.0
C420 C 0.36635 0.91578 0.04764 0.0
H421 H 0.32539 0.89513 0.12898 0.0
H422 H 0.38141 0.93907 0.1073 0.0
C423 C 0.33897 0.8887 0.02127 0.0
C424 C 0.15685 0.44197 0.04299 0.0
C425 C 0.16582 0.44602 0.08278 0.0
H426 H 0.1238 0.4451 0.99798 0.0
C427 C 0.1498 0.45916 0.1077 0.0
H428 H 0.16882 0.4319 0.02321 0.0
C429 C 0.12398 0.46596 0.09352 0.0
C430 C 0.11393 0.46041 0.05401 0.0
H431 H 0.15673 0.46339 0.13846 0.0
H432 H 0.11165 0.47523 0.11364 0.0
C433 C 0.13103 0.44922 0.02866 0.0
C434 C 0.58376 0.70123 0.04833 0.0
C435 C 0.55683 0.70797 0.05618 0.0
H436 H 0.59772 0.66121 0.02691 0.0
C437 C 0.52237 0.67927 0.04492 0.0
H438 H 0.61056 0.72297 0.0567 0.0
C439 C 0.5149 0.64363 0.02826 0.0
C440 C 0.54181 0.63627 0.02197 0.0
H441 H 0.50115 0.6837 0.0509 0.0
H442 H 0.48801 0.62146 0.02156 0.0
C443 C 0.57635 0.66589 0.0311 0.0
C444 C 0.86601 0.33967 0.97645 0.0
C445 C 0.87307 0.31093 0.96522 0.0
H446 H 0.88689 0.39756 0.99936 0.0
C447 C 0.90695 0.31769 0.97295 0.0
H448 H 0.84015 0.33526 0.97056 0.0
C449 C 0.93367 0.35316 0.98977 0.0
C450 C 0.92713 0.38282 0.99865 0.0
H451 H 0.91302 0.2959 0.96467 0.0
H452 H 0.95976 0.35791 0.99378 0.0
C453 C 0.89283 0.37537 0.99275 0.0
C454 C 0.6959 0.58525 0.9162 0.0
C455 C 0.72309 0.59087 0.94313 0.0
H456 H 0.64275 0.57067 0.9063 0.0
C457 C 0.71689 0.58607 0.98177 0.0
H458 H 0.69961 0.58807 0.88611 0.0
C459 C 0.68423 0.57566 0.99316 0.0
C460 C 0.6572 0.57005 0.96621 0.0
H461 H 0.73736 0.59062 1.0033 0.0
H462 H 0.68018 0.57215 0.02311 0.0
C463 C 0.66328 0.57503 0.92767 0.0
C464 C 0.46466 0.14652 1.00455 0.0
C465 C 0.46099 0.14876 0.96473 0.0
H466 H 0.47524 0.11879 0.04937 0.0
C467 C 0.46401 0.12286 0.93942 0.0
H468 H 0.46228 0.16592 0.0248 0.0
C469 C 0.4716 0.09626 0.95354 0.0
C470 C 0.47584 0.0946 0.99321 0.0
H471 H 0.4618 0.12409 0.90869 0.0
H472 H 0.47481 0.07736 0.93346 0.0
C473 C 0.47189 0.11954 0.01866 0.0
C474 C 0.70291 0.163 1.00328 0.0
C475 C 0.71294 0.14913 0.97194 0.0
H476 H 0.66195 0.15371 0.03784 0.0
C477 C 0.68801 0.11545 0.94982 0.0
H478 H 0.72164 0.18913 0.02051 0.0
C479 C 0.65405 0.09518 0.95975 0.0
C480 C 0.64427 0.10837 0.9918 0.0
H481 H 0.69499 0.10441 0.92527 0.0
H482 H 0.63553 0.06896 0.9425 0.0
C483 C 0.66887 0.14275 0.01318 0.0
C484 C 0.86929 0.55598 0.01756 0.0
C485 C 0.86994 0.57458 0.98497 0.0
H486 H 0.89056 0.52741 0.04853 0.0
C487 C 0.89206 0.57709 0.95721 0.0
H488 H 0.8524 0.55364 0.03933 0.0
C489 C 0.91377 0.56198 0.96237 0.0
C490 C 0.91376 0.54426 0.99546 0.0
H491 H 0.89291 0.59133 0.93187 0.0
H492 H 0.93105 0.56486 0.94088 0.0
C493 C 0.89107 0.54098 0.02279 0.0
C494 C 0.46395 0.34261 0.99983 0.0
C495 C 0.49125 0.3354 0.99667 0.0
H496 H 0.44823 0.38406 1.00296 0.0
C497 C 0.5245 0.36585 0.9927 0.0
H498 H 0.43807 0.31971 1.00302 0.0
C499 C 0.53045 0.40294 0.99261 0.0
C500 C 0.50328 0.41034 0.99686 0.0
H501 H 0.546 0.36099 0.99046 0.0
H502 H 0.55647 0.42587 0.99006 0.0
C503 C 0.46988 0.3796 0.99996 0.0
C504 C 0.11859 0.67789 0.02387 0.0
C505 C 0.15272 0.68487 0.02862 0.0
H506 H 0.06445 0.63638 0.01733 0.0
C507 C 0.15818 0.65409 0.03086 0.0
H508 H 0.11368 0.70115 0.02192 0.0
C509 C 0.13001 0.61692 0.02828 0.0
C510 C 0.09577 0.60978 0.02308 0.0
H511 H 0.1843 0.65884 0.03429 0.0
H512 H 0.13514 0.5938 0.03003 0.0
C513 C 0.09042 0.64074 0.02109 0.0
C514 C 0.32465 0.4559 0.02085 0.0
C515 C 0.31614 0.44104 0.05626 0.0
H516 H 0.36434 0.48191 0.98317 0.0
C517 C 0.34235 0.44329 0.08226 0.0
H518 H 0.30491 0.45486 1.00052 0.0
C519 C 0.37628 0.45883 0.07245 0.0
C520 C 0.38455 0.47249 0.0365 0.0
H521 H 0.33639 0.43238 0.10989 0.0
H522 H 0.39589 0.45956 0.09274 0.0
C523 C 0.35858 0.47139 0.01098 0.0
C524 C 0.58004 0.91506 0.04006 0.0
C525 C 0.55626 0.87759 0.04666 0.0
H526 H 0.58815 0.96927 0.02766 0.0
C527 C 0.52076 0.86579 0.04406 0.0
H528 H 0.60745 0.92467 0.04085 0.0
C529 C 0.5095 0.89142 0.03639 0.0
C530 C 0.53347 0.92919 0.03043 0.0
H531 H 0.50171 0.83675 0.04789 0.0
H532 H 0.48204 0.8816 0.03509 0.0
C533 C 0.56886 0.94054 0.03218 0.0
C534 C 0.97926 0.19181 0.37997 0.0
C535 C 0.97521 0.18969 0.41939 0.0
H536 H 0.01309 0.21862 0.33703 0.0
C537 C 1.00342 0.21538 0.44606 0.0
H538 H 0.95796 0.17323 0.3585 0.0
C539 C 0.03499 0.24204 0.43356 0.0
C540 C 0.03898 0.24327 0.39418 0.0
H541 H 1.00139 0.21437 0.47656 0.0
H542 H 0.05642 0.26116 0.45469 0.0
C543 C 0.01081 0.21804 0.36757 0.0
C544 C 0.81286 0.7611 0.37338 0.0
C545 C 0.81921 0.75841 0.41252 0.0
H546 H 0.78448 0.77363 0.33094 0.0
C547 C 0.80121 0.7669 0.43917 0.0
H548 H 0.82608 0.75451 0.35209 0.0
C549 C 0.77723 0.77737 0.427 0.0
C550 C 0.77092 0.77996 0.38798 0.0
H551 H 0.80601 0.76605 0.46962 0.0
H552 H 0.76384 0.78377 0.44824 0.0
C553 C 0.78898 0.77187 0.36124 0.0
C554 C 0.25016 0.03213 0.38727 0.0
C555 C 0.22313 0.03924 0.39351 0.0
H556 H 0.26423 0.99184 0.36668 0.0
C557 C 0.18893 0.0112 0.38006 0.0
H558 H 0.27681 0.05339 0.39711 0.0
C559 C 0.18168 0.97589 0.3629 0.0
C560 C 0.20854 0.96808 0.35829 0.0
H561 H 0.16759 0.01584 0.38465 0.0
H562 H 0.15486 0.95422 0.35447 0.0
C563 C 0.24297 0.997 0.36957 0.0
C564 C 0.57004 0.65231 0.30565 0.0
C565 C 0.5368 0.64663 0.29577 0.0
H566 H 0.62215 0.69103 0.32985 0.0
C567 C 0.52991 0.6756 0.30655 0.0
H568 H 0.5759 0.63028 0.29778 0.0
C569 C 0.55648 0.71062 0.3246 0.0
C570 C 0.59026 0.71705 0.33269 0.0
H571 H 0.50452 0.67193 0.29906 0.0
H572 H 0.55085 0.73312 0.3308 0.0
C573 C 0.59644 0.68706 0.3242 0.0
C574 C 0.38363 0.92154 0.32228 0.0
C575 C 0.38941 0.92305 0.28327 0.0
H576 H 0.34681 0.90896 0.36343 0.0
C577 C 0.36122 0.9124 0.25551 0.0
H578 H 0.40479 0.92992 0.34444 0.0
C579 C 0.3282 0.90081 0.26648 0.0
C580 C 0.32257 0.89932 0.30539 0.0
H581 H 0.36449 0.91243 0.22519 0.0
H582 H 0.30702 0.89282 0.24443 0.0
C583 C 0.35049 0.90967 0.33321 0.0
C584 C 0.10699 0.44709 0.29429 0.0
C585 C 0.13441 0.48397 0.2908 0.0
H586 H 0.09198 0.39198 0.31224 0.0
C587 C 0.1684 0.49334 0.30337 0.0
H588 H 0.0805 0.43915 0.28507 0.0
C589 C 0.17496 0.46654 0.31877 0.0
C590 C 0.14767 0.42968 0.32251 0.0
H591 H 0.1901 0.52141 0.30086 0.0
H592 H 0.2016 0.47477 0.32762 0.0
C593 C 0.11353 0.42028 0.3103 0.0
C594 C 0.36822 0.49472 0.33078 0.0
C595 C 0.37664 0.4848 0.29573 0.0
H596 H 0.32859 0.48201 0.36828 0.0
C597 C 0.3502 0.45578 0.26977 0.0
H598 H 0.38814 0.51742 0.35097 0.0
C599 C 0.31622 0.43561 0.27957 0.0
C600 C 0.30811 0.44436 0.31538 0.0
H601 H 0.35605 0.44809 0.24232 0.0
H602 H 0.29647 0.41264 0.25948 0.0
C603 C 0.33423 0.47455 0.3406 0.0
C604 C 0.56547 0.92161 0.30035 0.0
C605 C 0.54316 0.91854 0.32809 0.0
H606 H 0.60312 0.90784 0.28253 0.0
C607 C 0.54077 0.89741 0.35905 0.0
H608 H 0.56733 0.93741 0.27601 0.0
C609 C 0.56114 0.88053 0.3628 0.0
C610 C 0.58396 0.88424 0.33547 0.0
H611 H 0.52341 0.89426 0.38052 0.0
H612 H 0.55926 0.8649 0.38729 0.0
C613 C 0.58574 0.90461 0.30401 0.0
C614 C 0.12224 0.67246 0.33121 0.0
C615 C 0.14877 0.66388 0.32899 0.0
H616 H 0.10848 0.7155 0.33399 0.0
C617 C 0.18293 0.69368 0.32756 0.0
H618 H 0.09573 0.65011 0.33268 0.0
C619 C 0.19037 0.73136 0.32822 0.0
C620 C 0.16383 0.74002 0.33083 0.0
H621 H 0.2039 0.6878 0.3263 0.0
H622 H 0.21698 0.7537 0.3273 0.0
C623 C 0.12965 0.71003 0.33209 0.0
C624 C 0.7871 1.00901 0.35985 0.0
C625 C 0.82092 0.01518 0.36486 0.0
H626 H 0.73275 0.96845 0.35296 0.0
C627 C 0.82563 0.98381 0.36651 0.0
H628 H 0.78277 0.03272 0.35832 0.0
C629 C 0.79699 0.9469 0.36357 0.0
C630 C 0.76306 0.94064 0.35852 0.0
H631 H 0.85152 0.98793 0.37008 0.0
H632 H 0.8015 0.92333 0.3651 0.0
C633 C 0.75847 0.97215 0.35667 0.0
C634 C 1.00042 0.76906 0.4026 0.0
C635 C 0.9766 0.77036 0.37571 0.0
H636 H 0.05321 0.78403 0.41741 0.0
C637 C 0.98859 0.79029 0.34353 0.0
H638 H 0.99172 0.75415 0.42781 0.0
C639 C 0.02364 0.80735 0.33755 0.0
C640 C 0.04726 0.80495 0.36379 0.0
H641 H 0.97074 0.79201 0.32261 0.0
H642 H 0.0321 0.82174 0.31201 0.0
C643 C 0.03549 0.78619 0.39669 0.0
C644 C 0.2434 0.24424 0.38023 0.0
C645 C 0.21853 0.20701 0.38619 0.0
H646 H 0.25379 0.29951 0.36919 0.0
C647 C 0.18355 0.19717 0.38538 0.0
H648 H 0.27042 0.25244 0.37991 0.0
C649 C 0.17381 0.22432 0.37916 0.0
C650 C 0.1988 0.26153 0.3728 0.0
H651 H 0.16372 0.1684 0.38898 0.0
H652 H 0.14668 0.21593 0.37854 0.0
C653 C 0.23372 0.27115 0.37376 0.0
C654 C 0.66873 0.55093 0.76849 0.0
C655 C 0.63888 0.53108 0.74206 0.0
H656 H 0.72354 0.59009 0.77706 0.0
C657 C 0.64192 0.53761 0.70311 0.0
H658 H 0.66743 0.54637 0.79858 0.0
C659 C 0.67411 0.56269 0.69079 0.0
C660 C 0.70398 0.58166 0.71709 0.0
H661 H 0.61938 0.52314 0.68206 0.0
H662 H 0.67568 0.56676 0.6606 0.0
C663 C 0.70092 0.57582 0.7561 0.0
C664 C 0.48177 0.10009 0.70678 0.0
C665 C 0.49034 0.10076 0.74615 0.0
H666 H 0.452 0.11064 0.66414 0.0
C667 C 0.47603 0.11424 0.77304 0.0
H668 H 0.49239 0.08976 0.68546 0.0
C669 C 0.45313 0.12612 0.76091 0.0
C670 C 0.44408 0.1248 0.72164 0.0
H671 H 0.4827 0.11584 0.80357 0.0
H672 H 0.4423 0.13607 0.78234 0.0
C673 C 0.4587 0.11194 0.6946 0.0
C674 C 0.85436 0.34557 0.7106 0.0
C675 C 0.88898 0.3738 0.72191 0.0
H676 H 0.81939 0.28795 0.68721 0.0
C677 C 0.91556 0.36651 0.71399 0.0
H678 H 0.83341 0.35046 0.7166 0.0
C679 C 0.90765 0.33101 0.69675 0.0
C680 C 0.87294 0.30185 0.68767 0.0
H681 H 0.94248 0.38794 0.72232 0.0
H682 H 0.92873 0.32582 0.69255 0.0
C683 C 0.84639 0.30979 0.69392 0.0
C684 C 0.244 0.98718 0.64058 0.0
C685 C 0.20953 0.97889 0.63382 0.0
H686 H 0.29643 0.02876 0.6617 0.0
C687 C 0.20117 1.00617 0.64675 0.0
H688 H 0.25109 0.96654 0.63109 0.0
C689 C 0.22713 0.0419 0.66396 0.0
C690 C 0.2619 0.05086 0.66916 0.0
H691 H 0.17486 1.00061 0.6417 0.0
H692 H 0.22012 0.06297 0.67196 0.0
C693 C 0.26989 0.02271 0.65837 0.0
C694 C 0.04447 0.24777 0.64156 0.0
C695 C 0.04778 0.24495 0.60204 0.0
H696 H 0.01122 0.24228 0.68501 0.0
C697 C 0.01905 0.2356 0.57565 0.0
H698 H 0.06626 0.25575 0.66271 0.0
C699 C 0.98755 0.2284 0.58856 0.0
C700 C 0.98424 0.23027 0.62807 0.0
H701 H 0.02063 0.23292 0.54509 0.0
H702 H 0.96564 0.22068 0.56766 0.0
C703 C 0.01301 0.24028 0.6544 0.0
C704 C 0.77388 0.78169 0.6302 0.0
C705 C 0.80079 0.81914 0.6278 0.0
H706 H 0.75992 0.72635 0.64675 0.0
C707 C 0.83483 0.82943 0.64135 0.0
H708 H 0.74734 0.77303 0.62027 0.0
C709 C 0.84197 0.80301 0.65651 0.0
C710 C 0.81527 0.7655 0.6588 0.0
H711 H 0.8562 0.85792 0.63965 0.0
H712 H 0.86867 0.81199 0.66608 0.0
C713 C 0.78102 0.75514 0.64583 0.0
C714 C 0.02688 0.78011 0.62138 0.0
C715 C 0.05071 0.81549 0.64156 0.0
H716 H 0.97492 0.73258 0.61478 0.0
C717 C 0.03946 0.83105 0.67011 0.0
H718 H 0.03486 0.76775 0.59893 0.0
C719 C 1.00517 0.81102 0.67914 0.0
C720 C 0.9816 0.77516 0.65965 0.0
H721 H 0.05736 0.85848 0.68574 0.0
H722 H 0.99722 0.8234 0.7016 0.0
C723 C 0.99266 0.76004 0.63046 0.0
C724 C 0.22042 0.24126 0.63032 0.0
C725 C 0.19641 0.23548 0.65678 0.0
H726 H 0.26197 0.23303 0.61515 0.0
C727 C 0.19521 0.21541 0.68831 0.0
H728 H 0.22147 0.25636 0.60562 0.0
C729 C 0.21828 0.20211 0.69379 0.0
C730 C 0.24268 0.20845 0.66767 0.0
H731 H 0.17664 0.2103 0.70885 0.0
H732 H 0.21721 0.18718 0.71863 0.0
C733 C 0.24339 0.22783 0.63571 0.0
C734 C 0.78953 1.00759 0.66971 0.0
C735 C 0.81581 0.99892 0.66559 0.0
H736 H 0.7758 0.05057 0.67351 0.0
C737 C 0.84961 0.02854 0.66209 0.0
H738 H 0.76333 0.98538 0.67284 0.0
C739 C 0.8569 0.06613 0.66236 0.0
C740 C 0.83059 0.07485 0.66672 0.0
H741 H 0.87041 0.02257 0.65936 0.0
H742 H 0.8832 0.08834 0.65965 0.0
C743 C 0.7968 0.04505 0.67023 0.0
C744 C 0.48708 0.32607 0.69297 0.0
C745 C 0.48027 0.35607 0.69339 0.0
H746 H 0.46614 0.26606 0.69224 0.0
C747 C 0.4458 0.34779 0.6929 0.0
H748 H 0.51344 0.33175 0.69297 0.0
C749 C 0.41866 0.31024 0.69217 0.0
C750 C 0.42541 0.28012 0.69199 0.0
H751 H 0.43982 0.37038 0.69296 0.0
H752 H 0.3924 0.30489 0.69184 0.0
C753 C 0.45997 0.2885 0.69252 0.0
C754 C 0.66624 0.10174 0.73551 0.0
C755 C 0.64185 0.10134 0.70812 0.0
H756 H 0.71945 0.11865 0.75055 0.0
C757 C 0.65306 0.11977 0.67495 0.0
H758 H 0.6581 0.08807 0.76151 0.0
C759 C 0.68802 0.13724 0.66867 0.0
C760 C 0.71227 0.13678 0.69562 0.0
H761 H 0.63472 0.12023 0.6537 0.0
H762 H 0.69598 0.15059 0.64249 0.0
C763 C 0.70121 0.11932 0.72932 0.0
C764 C 0.91459 0.58249 0.71179 0.0
C765 C 0.88991 0.54418 0.7139 0.0
H766 H 0.92412 0.63814 0.7038 0.0
C767 C 0.85449 0.53255 0.70844 0.0
H768 H 0.94205 0.5921 0.71504 0.0
C769 C 0.84402 0.55901 0.7019 0.0
C770 C 0.86881 0.5975 0.70004 0.0
H771 H 0.83493 0.50297 0.70899 0.0
H772 H 0.81655 0.54922 0.69799 0.0
C773 C 0.90421 0.60883 0.70507 0.0
C774 C 0.46583 0.96018 0.15721 0.0
C775 C 0.47901 0.98339 0.19202 0.0
H776 H 0.46786 0.95603 0.09682 0.0
C777 C 0.50345 0.0222 0.19216 0.0
H778 H 0.4473 0.93008 0.15668 0.0
C779 C 0.51476 0.03751 0.15756 0.0
C780 C 0.50205 0.01396 0.12268 0.0
H781 H 0.51409 0.0404 0.21898 0.0
H782 H 0.53395 0.06738 0.15817 0.0
C783 C 0.47748 0.9752 0.12297 0.0
C784 C 0.0883 0.55836 0.16625 0.0
C785 C 0.08097 0.52771 0.18806 0.0
H786 H 0.07321 0.57785 0.11735 0.0
C787 C 0.05316 0.49139 0.1736 0.0
H788 H 0.11027 0.58648 0.17492 0.0
C789 C 0.03283 0.48631 0.1392 0.0
C790 C 0.03926 0.51754 0.11917 0.0
H791 H 0.04631 0.46699 0.18927 0.0
H792 H 0.0113 0.45825 0.12904 0.0
C793 C 0.0673 0.55346 0.13281 0.0
C794 C 0.52876 0.59407 0.15283 0.0
C795 C 0.50471 0.56397 0.17196 0.0
H796 H 0.55948 0.6107 0.10566 0.0
C797 C 0.49123 0.52641 0.15519 0.0
H798 H 0.53885 0.62339 0.16387 0.0
C799 C 0.50242 0.51927 0.12088 0.0
C800 C 0.52768 0.54948 0.1032 0.0
H801 H 0.47286 0.50246 0.16908 0.0
H802 H 0.49226 0.49017 0.10893 0.0
C803 C 0.54045 0.58687 0.11922 0.0
C804 C 0.93912 0.42834 0.86484 0.0
C805 C 0.94295 0.45877 0.84462 0.0
H806 H 0.95647 0.41078 0.91351 0.0
C807 C 0.96598 0.49617 0.86155 0.0
H808 H 0.9207 0.39916 0.85388 0.0
C809 C 0.98562 0.50274 0.89688 0.0
C810 C 0.98314 0.47208 0.91534 0.0
H811 H 0.9698 0.52039 0.847 0.0
H812 H 1.0038 0.53168 0.90888 0.0
C813 C 0.95938 0.43492 0.89933 0.0
C814 C 0.55557 0.5253 0.85054 0.0
C815 C 0.54768 0.48852 0.83639 0.0
H816 H 0.5478 0.55943 0.89332 0.0
C817 C 0.5258 0.45778 0.85652 0.0
H818 H 0.57191 0.54977 0.83596 0.0
C819 C 0.51095 0.46331 0.88832 0.0
C820 C 0.51855 0.49984 0.90184 0.0
H821 H 0.52 0.42918 0.84791 0.0
H822 H 0.49391 0.43898 0.90275 0.0
C823 C 0.5415 0.53091 0.88322 0.0
C824 C 0.54352 0.0606 0.87668 0.0
C825 C 0.52503 0.03851 0.84227 0.0
H826 H 0.54716 0.06474 0.93779 0.0
C827 C 0.49783 1.00105 0.84313 0.0
H828 H 0.56413 0.08981 0.87654 0.0
C829 C 0.48872 0.98616 0.87829 0.0
C830 C 0.50614 1.00898 0.91288 0.0
H831 H 0.48302 0.98382 0.81673 0.0
H832 H 0.46704 0.95755 0.87843 0.0
C833 C 0.53387 0.04613 0.91169 0.0
C834 C 0.16568 0.2925 0.49269 0.0
C835 C 0.14278 0.29929 0.51299 0.0
H836 H 0.19993 0.30848 0.44866 0.0
C837 C 0.13584 0.32755 0.50155 0.0
H838 H 0.17094 0.27022 0.49918 0.0
C839 C 0.1514 0.34826 0.47093 0.0
C840 C 0.17496 0.34198 0.45195 0.0
H841 H 0.11891 0.33431 0.51651 0.0
H842 H 0.14546 0.36961 0.46249 0.0
C843 C 0.18216 0.31418 0.46325 0.0
C844 C 0.71896 0.82548 0.51037 0.0
C845 C 0.74694 0.8618 0.52455 0.0
H846 H 0.67704 0.7922 0.4659 0.0
C847 C 0.75463 0.89222 0.50231 0.0
H848 H 0.71189 0.80125 0.52639 0.0
C849 C 0.7338 0.88717 0.46869 0.0
C850 C 0.70554 0.85129 0.45535 0.0
H851 H 0.77673 0.9203 0.5108 0.0
H852 H 0.73994 0.91143 0.45293 0.0
C853 C 0.69877 0.82022 0.47581 0.0
C854 C 0.19507 0.92368 0.49042 0.0
C855 C 0.17242 0.89365 0.51065 0.0
H856 H 0.22322 0.94022 0.4413 0.0
C857 C 0.15814 0.85606 0.49345 0.0
H858 H 0.20558 0.95303 0.50163 0.0
C859 C 0.1674 0.84884 0.45777 0.0
C860 C 0.19163 0.87901 0.43916 0.0
H861 H 0.14072 0.83212 0.50804 0.0
H862 H 0.15683 0.81973 0.44558 0.0
C863 C 0.20495 0.91641 0.45551 0.0
C864 C 0.63192 0.82916 0.19716 0.0
C865 C 0.60886 0.79196 0.17971 0.0
H866 H 0.66919 0.864 0.2452 0.0
C867 C 0.60433 0.7612 0.19982 0.0
H868 H 0.63623 0.85362 0.18274 0.0
C869 C 0.62394 0.76725 0.23468 0.0
C870 C 0.6478 0.80419 0.25122 0.0
H871 H 0.58586 0.73216 0.18845 0.0
H872 H 0.62049 0.74283 0.24871 0.0
C873 C 0.65095 0.8352 0.23284 0.0
C874 C 0.2268 0.85768 0.19027 0.0
C875 C 0.2071 0.82491 0.16386 0.0
H876 H 0.22827 0.88966 0.2418 0.0
C877 C 0.17261 0.79943 0.17107 0.0
H878 H 0.25317 0.8787 0.18655 0.0
C879 C 0.15982 0.80432 0.20492 0.0
C880 C 0.1803 0.83581 0.23191 0.0
H881 H 0.15509 0.77514 0.15102 0.0
H882 H 0.13382 0.78308 0.21009 0.0
C883 C 0.21304 0.86356 0.22309 0.0
C884 C 0.17056 0.39346 0.20989 0.0
C885 C 0.19347 0.38766 0.18859 0.0
H886 H 0.1382 0.37711 0.25534 0.0
C887 C 0.20485 0.36337 0.20164 0.0
H888 H 0.16245 0.41334 0.2024 0.0
C889 C 0.19241 0.34435 0.23424 0.0
C890 C 0.16771 0.34849 0.25335 0.0
H891 H 0.22248 0.35817 0.18621 0.0
H892 H 0.2011 0.32547 0.24368 0.0
C893 C 0.15699 0.37317 0.24089 0.0
C894 C 0.85277 0.679 0.85321 0.0
C895 C 0.81694 0.65841 0.85706 0.0
H896 H 0.89218 0.70988 0.81652 0.0
C897 C 0.7939 0.65912 0.82832 0.0
H898 H 0.87157 0.68054 0.87523 0.0
C899 C 0.80611 0.67752 0.79562 0.0
C900 C 0.84126 0.69441 0.7903 0.0
H901 H 0.76618 0.64393 0.82988 0.0
H902 H 0.78789 0.6774 0.77383 0.0
C903 C 0.86478 0.69651 0.81994 0.0
C904 C 0.39502 0.16205 0.83845 0.0
C905 C 0.40599 0.19392 0.86554 0.0
H906 H 0.36542 0.1314 0.78489 0.0
C907 C 0.39435 0.21939 0.85759 0.0
H908 H 0.4029 0.1414 0.8428 0.0
C909 C 0.37512 0.21496 0.8228 0.0
C910 C 0.36559 0.18412 0.79537 0.0
H911 H 0.40015 0.24318 0.87798 0.0
H912 H 0.36788 0.236 0.81733 0.0
C913 C 0.37428 0.15674 0.80437 0.0
C914 C 0.86026 0.25796 0.82215 0.0
C915 C 0.83689 0.22751 0.8415 0.0
H916 H 0.88967 0.27543 0.77397 0.0
C917 C 0.82287 0.1902 0.82372 0.0
H918 H 0.87063 0.28716 0.8338 0.0
C919 C 0.83302 0.18365 0.78835 0.0
C920 C 0.85788 0.2142 0.77061 0.0
H921 H 0.80492 0.16597 0.83759 0.0
H922 H 0.82247 0.15471 0.77564 0.0
C923 C 0.87103 0.25134 0.78755 0.0
C924 C 0.29672 0.16297 0.53301 0.0
C925 C 0.27485 0.12525 0.51619 0.0
H926 H 0.3338 0.1997 0.58038 0.0
C927 C 0.27222 0.09546 0.53667 0.0
H928 H 0.2996 0.18673 0.51824 0.0
C929 C 0.29255 0.10304 0.57134 0.0
C930 C 0.3152 0.14054 0.58726 0.0
H931 H 0.2547 0.06602 0.52578 0.0
H932 H 0.29063 0.07939 0.58569 0.0
C933 C 0.31646 0.17051 0.5685 0.0
C934 C 0.8862 0.18592 0.51862 0.0
C935 C 0.87974 0.14899 0.50775 0.0
H936 H 0.87639 0.22139 0.55732 0.0
C937 C 0.85779 0.11933 0.52893 0.0
H938 H 0.90244 0.20951 0.50296 0.0
C939 C 0.8419 0.12604 0.55897 0.0
C940 C 0.84844 0.16278 0.56954 0.0
H941 H 0.85292 0.09074 0.5226 0.0
H942 H 0.82506 0.10257 0.57452 0.0
C943 C 0.871 0.19277 0.5495 0.0
C944 C 0.87989 0.7215 0.54182 0.0
C945 C 0.85914 0.69974 0.50819 0.0
H946 H 0.88629 0.7266 0.60289 0.0
C947 C 0.83095 0.66308 0.51041 0.0
H948 H 0.90132 0.75012 0.54081 0.0
C949 C 0.82301 0.64892 0.54612 0.0
C950 C 0.84258 0.67176 0.57999 0.0
H951 H 0.81443 0.64603 0.48471 0.0
H952 H 0.80044 0.62115 0.54734 0.0
C953 C 0.87138 0.70788 0.57737 0.0
loop_
_geom_bond_atom_site_label_1
_geom_bond_atom_site_label_2
_geom_bond_distance
_geom_bond_site_symmetry_2
_ccdc_geom_bond_type
H0 C7 0.929 . S
H1 C10 0.930 . S
H2 C12 0.929 . S
H3 C4 0.969 . S
C4 H3 0.969 . S
C4 O5 1.550 . S
C4 H6 0.973 . S
O5 C4 1.550 . S
O5 C11 1.412 . S
H6 C4 0.973 . S
C7 H0 0.929 . S
C7 C8 1.400 . S
C7 C9 1.364 . S
C8 C7 1.400 . S
C8 C12 1.377 . S
C9 C7 1.364 . S
C9 C10 1.374 . S
C10 H1 0.930 . S
C10 C9 1.374 . S
C10 C11 1.383 . S
C11 O5 1.412 . S
C11 C10 1.383 . S
C11 C12 1.394 . S
C12 H2 0.929 . S
C12 C8 1.377 . S
C12 C11 1.394 . S
H13 C20 0.929 . S
H14 C23 0.930 . S
H15 C25 0.929 . S
H16 C17 0.969 . S
C17 H16 0.969 . S
C17 O18 1.550 . S
C17 H19 0.973 . S
O18 C17 1.550 . S
O18 C24 1.412 . S
H19 C17 0.973 . S
C20 H13 0.929 . S
C20 C21 1.400 . S
C20 C22 1.364 . S
C21 C20 1.400 . S
C21 C25 1.377 . S
C22 C20 1.364 . S
C22 C23 1.374 . S
C23 H14 0.930 . S
C23 C22 1.374 . S
C23 C24 1.383 . S
C24 O18 1.412 . S
C24 C23 1.383 . S
C24 C25 1.394 . S
C25 H15 0.929 . S
C25 C21 1.377 . S
C25 C24 1.394 . S
H26 C33 0.929 . S
H27 C36 0.930 . S
H28 C38 0.929 . S
H29 C30 0.969 . S
C30 H29 0.969 . S
C30 O31 1.550 . S
C30 H32 0.973 . S
O31 C30 1.550 . S
O31 C37 1.412 . S
H32 C30 0.973 . S
C33 H26 0.929 . S
C33 C34 1.400 . S
C33 C35 1.364 . S
C34 C33 1.400 . S
C34 C38 1.377 . S
C35 C33 1.364 . S
C35 C36 1.374 . S
C36 H27 0.930 . S
C36 C35 1.374 . S
C36 C37 1.383 . S
C37 O31 1.412 . S
C37 C36 1.383 . S
C37 C38 1.394 . S
C38 H28 0.929 . S
C38 C34 1.377 . S
C38 C37 1.394 . S
H39 C46 0.929 . S
H40 C49 0.930 . S
H41 C51 0.929 . S
H42 C43 0.969 . S
C43 H42 0.969 . S
C43 O44 1.550 . S
C43 H45 0.973 . S
O44 C43 1.550 . S
O44 C50 1.412 . S
H45 C43 0.973 . S
C46 H39 0.929 . S
C46 C47 1.400 . S
C46 C48 1.364 . S
C47 C46 1.400 . S
C47 C51 1.377 . S
C48 C46 1.364 . S
C48 C49 1.374 . S
C49 H40 0.930 . S
C49 C48 1.374 . S
C49 C50 1.383 . S
C50 O44 1.412 . S
C50 C49 1.383 . S
C50 C51 1.394 . S
C51 H41 0.929 . S
C51 C47 1.377 . S
C51 C50 1.394 . S
H52 C59 0.929 . S
H53 C62 0.930 . S
H54 C64 0.929 . S
H55 C56 0.969 . S
C56 H55 0.969 . S
C56 O57 1.550 . S
C56 H58 0.973 . S
O57 C56 1.550 . S
O57 C63 1.412 . S
H58 C56 0.973 . S
C59 H52 0.929 . S
C59 C60 1.400 . S
C59 C61 1.364 . S
C60 C59 1.400 . S
C60 C64 1.377 . S
C61 C59 1.364 . S
C61 C62 1.374 . S
C62 H53 0.930 . S
C62 C61 1.374 . S
C62 C63 1.383 . S
C63 O57 1.412 . S
C63 C62 1.383 . S
C63 C64 1.394 . S
C64 H54 0.929 . S
C64 C60 1.377 . S
C64 C63 1.394 . S
H65 C72 0.929 . S
H66 C75 0.930 . S
H67 C77 0.929 . S
H68 C69 0.969 . S
C69 H68 0.969 . S
C69 O70 1.550 . S
C69 H71 0.973 . S
O70 C69 1.550 . S
O70 C76 1.412 . S
H71 C69 0.973 . S
C72 H65 0.929 . S
C72 C73 1.400 . S
C72 C74 1.364 . S
C73 C72 1.400 . S
C73 C77 1.377 . S
C74 C72 1.364 . S
C74 C75 1.374 . S
C75 H66 0.930 . S
C75 C74 1.374 . S
C75 C76 1.383 . S
C76 O70 1.412 . S
C76 C75 1.383 . S
C76 C77 1.394 . S
C77 H67 0.929 . S
C77 C73 1.377 . S
C77 C76 1.394 . S
H78 C85 0.929 . S
H79 C88 0.930 . S
H80 C90 0.929 . S
H81 C82 0.969 . S
C82 H81 0.969 . S
C82 O83 1.550 . S
C82 H84 0.973 . S
O83 C82 1.550 . S
O83 C89 1.412 . S
H84 C82 0.973 . S
C85 H78 0.929 . S
C85 C86 1.400 . S
C85 C87 1.364 . S
C86 C85 1.400 . S
C86 C90 1.377 . S
C87 C85 1.364 . S
C87 C88 1.374 . S
C88 H79 0.930 . S
C88 C87 1.374 . S
C88 C89 1.383 . S
C89 O83 1.412 . S
C89 C88 1.383 . S
C89 C90 1.394 . S
C90 H80 0.929 . S
C90 C86 1.377 . S
C90 C89 1.394 . S
H91 C98 0.929 . S
H92 C101 0.930 . S
H93 C103 0.929 . S
H94 C95 0.969 . S
C95 H94 0.969 . S
C95 O96 1.550 . S
C95 H97 0.973 . S
O96 C95 1.550 . S
O96 C102 1.412 . S
H97 C95 0.973 . S
C98 H91 0.929 . S
C98 C99 1.400 . S
C98 C100 1.364 . S
C99 C98 1.400 . S
C99 C103 1.377 . S
C100 C98 1.364 . S
C100 C101 1.374 . S
C101 H92 0.930 . S
C101 C100 1.374 . S
C101 C102 1.383 . S
C102 O96 1.412 . S
C102 C101 1.383 . S
C102 C103 1.394 . S
C103 H93 0.929 . S
C103 C99 1.377 . S
C103 C102 1.394 . S
H104 C111 0.929 . S
H105 C114 0.930 . S
H106 C116 0.929 . S
H107 C108 0.969 . S
C108 H107 0.969 . S
C108 O109 1.550 . S
C108 H110 0.973 . S
O109 C108 1.550 . S
O109 C115 1.412 . S
H110 C108 0.973 . S
C111 H104 0.929 . S
C111 C112 1.400 . S
C111 C113 1.364 . S
C112 C111 1.400 . S
C112 C116 1.377 . S
C113 C111 1.364 . S
C113 C114 1.374 . S
C114 H105 0.930 . S
C114 C113 1.374 . S
C114 C115 1.383 . S
C115 O109 1.412 . S
C115 C114 1.383 . S
C115 C116 1.394 . S
C116 H106 0.929 . S
C116 C112 1.377 . S
C116 C115 1.394 . S
H117 C124 0.929 . S
H118 C127 0.930 . S
H119 C129 0.929 . S
H120 C121 0.969 . S
C121 H120 0.969 . S
C121 O122 1.550 . S
C121 H123 0.973 . S
O122 C121 1.550 . S
O122 C128 1.412 . S
H123 C121 0.973 . S
C124 H117 0.929 . S
C124 C125 1.400 . S
C124 C126 1.364 . S
C125 C124 1.400 . S
C125 C129 1.377 . S
C126 C124 1.364 . S
C126 C127 1.374 . S
C127 H118 0.930 . S
C127 C126 1.374 . S
C127 C128 1.383 . S
C128 O122 1.412 . S
C128 C127 1.383 . S
C128 C129 1.394 . S
C129 H119 0.929 . S
C129 C125 1.377 . S
C129 C128 1.394 . S
H130 C137 0.929 . S
H131 C140 0.930 . S
H132 C142 0.929 1_554 S
H133 C134 0.969 . S
C134 H133 0.969 . S
C134 O135 1.550 . S
C134 H136 0.973 . S
O135 C134 1.550 . S
O135 C141 1.412 . S
H136 C134 0.973 . S
C137 H130 0.929 . S
C137 C138 1.400 . S
C137 C139 1.364 . S
C138 C137 1.400 . S
C138 C142 1.377 . S
C139 C137 1.364 . S
C139 C140 1.374 . S
C140 H131 0.930 . S
C140 C139 1.374 . S
C140 C141 1.383 . S
C141 O135 1.412 . S
C141 C140 1.383 . S
C141 C142 1.394 . S
C142 H132 0.929 1_556 S
C142 C138 1.377 . S
C142 C141 1.394 . S
H143 C150 0.929 . S
H144 C153 0.930 . S
H145 C155 0.929 . S
H146 C147 0.969 . S
C147 H146 0.969 . S
C147 O148 1.550 . S
C147 H149 0.973 . S
O148 C147 1.550 . S
O148 C154 1.412 . S
H149 C147 0.973 . S
C150 H143 0.929 . S
C150 C151 1.400 . S
C150 C152 1.364 . S
C151 C150 1.400 . S
C151 C155 1.377 . S
C152 C150 1.364 . S
C152 C153 1.374 . S
C153 H144 0.930 . S
C153 C152 1.374 . S
C153 C154 1.383 . S
C154 O148 1.412 . S
C154 C153 1.383 . S
C154 C155 1.394 . S
C155 H145 0.929 . S
C155 C151 1.377 . S
C155 C154 1.394 . S
H156 C163 0.929 . S
H157 C166 0.930 . S
H158 C168 0.929 . S
H159 C160 0.969 . S
C160 H159 0.969 . S
C160 O161 1.550 . S
C160 H162 0.973 . S
O161 C160 1.550 . S
O161 C167 1.412 . S
H162 C160 0.973 . S
C163 H156 0.929 . S
C163 C164 1.400 . S
C163 C165 1.364 . S
C164 C163 1.400 . S
C164 C168 1.377 . S
C165 C163 1.364 . S
C165 C166 1.374 . S
C166 H157 0.930 . S
C166 C165 1.374 . S
C166 C167 1.383 . S
C167 O161 1.412 . S
C167 C166 1.383 . S
C167 C168 1.394 . S
C168 H158 0.929 . S
C168 C164 1.377 . S
C168 C167 1.394 . S
H169 C176 0.929 . S
H170 C179 0.930 . S
H171 C181 0.929 . S
H172 C173 0.969 . S
C173 H172 0.969 . S
C173 O174 1.550 . S
C173 H175 0.973 . S
O174 C173 1.550 . S
O174 C180 1.412 . S
H175 C173 0.973 . S
C176 H169 0.929 . S
C176 C177 1.400 . S
C176 C178 1.364 . S
C177 C176 1.400 . S
C177 C181 1.377 . S
C178 C176 1.364 . S
C178 C179 1.374 . S
C179 H170 0.930 . S
C179 C178 1.374 . S
C179 C180 1.383 . S
C180 O174 1.412 . S
C180 C179 1.383 . S
C180 C181 1.394 . S
C181 H171 0.929 . S
C181 C177 1.377 . S
C181 C180 1.394 . S
H182 C189 0.929 . S
H183 C192 0.930 . S
H184 C194 0.929 . S
H185 C186 0.969 . S
C186 H185 0.969 . S
C186 O187 1.550 . S
C186 H188 0.973 . S
O187 C186 1.550 . S
O187 C193 1.412 . S
H188 C186 0.973 . S
C189 H182 0.929 . S
C189 C190 1.400 . S
C189 C191 1.364 . S
C190 C189 1.400 . S
C190 C194 1.377 . S
C191 C189 1.364 . S
C191 C192 1.374 . S
C192 H183 0.930 . S
C192 C191 1.374 . S
C192 C193 1.383 . S
C193 O187 1.412 . S
C193 C192 1.383 . S
C193 C194 1.394 . S
C194 H184 0.929 . S
C194 C190 1.377 . S
C194 C193 1.394 . S
H195 C202 0.929 . S
H196 C205 0.930 . S
H197 C207 0.929 . S
H198 C199 0.969 . S
C199 H198 0.969 . S
C199 O200 1.550 . S
C199 H201 0.973 . S
O200 C199 1.550 . S
O200 C206 1.412 . S
H201 C199 0.973 . S
C202 H195 0.929 . S
C202 C203 1.400 . S
C202 C204 1.364 . S
C203 C202 1.400 . S
C203 C207 1.377 . S
C204 C202 1.364 . S
C204 C205 1.374 . S
C205 H196 0.930 . S
C205 C204 1.374 . S
C205 C206 1.383 . S
C206 O200 1.412 . S
C206 C205 1.383 . S
C206 C207 1.394 . S
C207 H197 0.929 . S
C207 C203 1.377 . S
C207 C206 1.394 . S
H208 C215 0.929 . S
H209 C218 0.930 . S
H210 C220 0.929 . S
H211 C212 0.969 . S
C212 H211 0.969 . S
C212 O213 1.550 . S
C212 H214 0.973 . S
O213 C212 1.550 . S
O213 C219 1.412 . S
H214 C212 0.973 . S
C215 H208 0.929 . S
C215 C216 1.400 . S
C215 C217 1.364 . S
C216 C215 1.400 . S
C216 C220 1.377 . S
C217 C215 1.364 . S
C217 C218 1.374 . S
C218 H209 0.930 . S
C218 C217 1.374 . S
C218 C219 1.383 . S
C219 O213 1.412 . S
C219 C218 1.383 . S
C219 C220 1.394 . S
C220 H210 0.929 . S
C220 C216 1.377 . S
C220 C219 1.394 . S
H221 C228 0.929 . S
H222 C231 0.930 . S
H223 C233 0.929 . S
H224 C225 0.969 . S
C225 H224 0.969 . S
C225 O226 1.550 . S
C225 H227 0.973 . S
O226 C225 1.550 . S
O226 C232 1.412 . S
H227 C225 0.973 . S
C228 H221 0.929 . S
C228 C229 1.400 . S
C228 C230 1.364 . S
C229 C228 1.400 . S
C229 C233 1.377 . S
C230 C228 1.364 . S
C230 C231 1.374 . S
C231 H222 0.930 . S
C231 C230 1.374 . S
C231 C232 1.383 . S
C232 O226 1.412 . S
C232 C231 1.383 . S
C232 C233 1.394 . S
C233 H223 0.929 . S
C233 C229 1.377 . S
C233 C232 1.394 . S
Tb234 O237 2.453 . S
Tb234 O238 2.596 1_545 S
Tb234 O239 2.374 1_545 S
Tb234 O247 2.343 1_554 S
Tb234 O249 2.353 . S
Tb234 O251 2.427 . S
Tb234 O252 2.513 1_554 S
C235 O239 1.251 . S
C235 O241 1.263 1_554 S
Tb236 O238 2.343 1_556 S
Tb236 O241 2.353 . S
Tb236 O244 2.427 1_556 S
Tb236 O245 2.513 1_556 S
Tb236 O246 2.453 . S
Tb236 O247 2.596 1_565 S
Tb236 O248 2.374 1_565 S
O237 Tb234 2.453 . S
O237 C253 1.245 1_545 S
O238 Tb234 2.596 1_565 S
O238 Tb236 2.343 1_554 S
O238 C253 1.259 . S
O239 Tb234 2.374 1_565 S
O239 C235 1.251 . S
C240 O244 1.275 . S
C240 O245 1.246 . S
O241 C235 1.263 1_556 S
O241 Tb236 2.353 . S
C242 O246 1.245 1_545 S
C242 O247 1.259 . S
C243 O248 1.250 1_554 S
C243 O249 1.263 . S
O244 Tb236 2.427 1_554 S
O244 C240 1.275 . S
O245 Tb236 2.513 1_554 S
O245 C240 1.246 . S
O246 Tb236 2.453 . S
O246 C242 1.245 1_565 S
O247 Tb234 2.343 1_556 S
O247 Tb236 2.596 1_545 S
O247 C242 1.259 . S
O248 Tb236 2.374 1_545 S
O248 C243 1.250 1_556 S
O249 Tb234 2.353 . S
O249 C243 1.263 . S
C250 O251 1.275 1_556 S
C250 O252 1.246 . S
O251 Tb234 2.427 . S
O251 C250 1.275 1_554 S
O252 Tb234 2.513 1_556 S
O252 C250 1.246 . S
C253 O237 1.245 1_565 S
C253 O238 1.259 . S
Tb254 O257 2.453 . S
Tb254 O258 2.596 1_655 S
Tb254 O259 2.374 1_655 S
Tb254 O267 2.343 1_554 S
Tb254 O269 2.353 . S
Tb254 O271 2.427 1_554 S
Tb254 O272 2.513 1_554 S
C255 O259 1.251 . S
C255 O261 1.263 1_554 S
Tb256 O258 2.343 1_556 S
Tb256 O261 2.353 . S
Tb256 O264 2.427 1_556 S
Tb256 O265 2.513 1_556 S
Tb256 O266 2.453 . S
Tb256 O267 2.596 1_455 S
Tb256 O268 2.374 1_455 S
O257 Tb254 2.453 . S
O257 C273 1.245 1_655 S
O258 Tb254 2.596 1_455 S
O258 Tb256 2.343 1_554 S
O258 C273 1.259 . S
O259 Tb254 2.374 1_455 S
O259 C255 1.251 . S
C260 O264 1.275 . S
C260 O265 1.246 . S
O261 C255 1.263 1_556 S
O261 Tb256 2.353 . S
C262 O266 1.245 1_655 S
C262 O267 1.259 . S
C263 O268 1.250 . S
C263 O269 1.263 1_556 S
O264 Tb256 2.427 1_554 S
O264 C260 1.275 . S
O265 Tb256 2.513 1_554 S
O265 C260 1.246 . S
O266 Tb256 2.453 . S
O266 C262 1.245 1_455 S
O267 Tb254 2.343 1_556 S
O267 Tb256 2.596 1_655 S
O267 C262 1.259 . S
O268 Tb256 2.374 1_655 S
O268 C263 1.250 . S
O269 Tb254 2.353 . S
O269 C263 1.263 1_554 S
C270 O271 1.275 . S
C270 O272 1.246 . S
O271 Tb254 2.427 1_556 S
O271 C270 1.275 . S
O272 Tb254 2.513 1_556 S
O272 C270 1.246 . S
C273 O257 1.245 1_455 S
C273 O258 1.259 . S
Tb274 O277 2.453 . S
Tb274 O278 2.596 . S
Tb274 O279 2.374 . S
Tb274 O287 2.343 1_556 S
Tb274 O289 2.353 . S
Tb274 O291 2.427 1_556 S
Tb274 O292 2.513 1_556 S
C275 O279 1.251 1_554 S
C275 O281 1.263 . S
Tb276 O278 2.343 1_554 S
Tb276 O281 2.353 . S
Tb276 O284 2.427 1_554 S
Tb276 O285 2.513 1_554 S
Tb276 O286 2.453 . S
Tb276 O287 2.596 . S
Tb276 O288 2.374 . S
O277 Tb274 2.453 . S
O277 C293 1.245 . S
O278 Tb274 2.596 . S
O278 Tb276 2.343 1_556 S
O278 C293 1.259 . S
O279 Tb274 2.374 . S
O279 C275 1.251 1_556 S
C280 O284 1.275 . S
C280 O285 1.246 . S
O281 C275 1.263 . S
O281 Tb276 2.353 . S
C282 O286 1.245 . S
C282 O287 1.259 . S
C283 O288 1.250 . S
C283 O289 1.263 1_554 S
O284 Tb276 2.427 1_556 S
O284 C280 1.275 . S
O285 Tb276 2.513 1_556 S
O285 C280 1.246 . S
O286 Tb276 2.453 . S
O286 C282 1.245 . S
O287 Tb274 2.343 1_554 S
O287 Tb276 2.596 . S
O287 C282 1.259 . S
O288 Tb276 2.374 . S
O288 C283 1.250 . S
O289 Tb274 2.353 . S
O289 C283 1.263 1_556 S
C290 O291 1.275 . S
C290 O292 1.246 . S
O291 Tb274 2.427 1_554 S
O291 C290 1.275 . S
O292 Tb274 2.513 1_554 S
O292 C290 1.246 . S
C293 O277 1.245 . S
C293 O278 1.259 . S
Tb294 O297 2.453 . S
Tb294 O298 2.596 . S
Tb294 O299 2.374 . S
Tb294 O307 2.343 . S
Tb294 O309 2.353 . S
Tb294 O311 2.427 . S
Tb294 O312 2.513 . S
C295 O299 1.251 . S
C295 O301 1.263 . S
Tb296 O298 2.343 . S
Tb296 O301 2.353 . S
Tb296 O304 2.427 . S
Tb296 O305 2.513 . S
Tb296 O306 2.453 . S
Tb296 O307 2.596 . S
Tb296 O308 2.374 . S
O297 Tb294 2.453 . S
O297 C313 1.245 . S
O298 Tb294 2.596 . S
O298 Tb296 2.343 . S
O298 C313 1.259 . S
O299 Tb294 2.374 . S
O299 C295 1.251 . S
C300 O304 1.275 . S
C300 O305 1.246 . S
O301 C295 1.263 . S
O301 Tb296 2.353 . S
C302 O306 1.245 . S
C302 O307 1.259 . S
C303 O308 1.250 . S
C303 O309 1.263 . S
O304 Tb296 2.427 . S
O304 C300 1.275 . S
O305 Tb296 2.513 . S
O305 C300 1.246 . S
O306 Tb296 2.453 . S
O306 C302 1.245 . S
O307 Tb294 2.343 . S
O307 Tb296 2.596 . S
O307 C302 1.259 . S
O308 Tb296 2.374 . S
O308 C303 1.250 . S
O309 Tb294 2.353 . S
O309 C303 1.263 . S
C310 O311 1.275 . S
C310 O312 1.246 . S
O311 Tb294 2.427 . S
O311 C310 1.275 . S
O312 Tb294 2.513 . S
O312 C310 1.246 . S
C313 O297 1.245 . S
C313 O298 1.259 . S
Tb314 O317 2.453 . S
Tb314 O318 2.596 . S
Tb314 O319 2.374 . S
Tb314 O327 2.343 . S
Tb314 O329 2.353 . S
Tb314 O331 2.427 . S
Tb314 O332 2.513 . S
C315 O319 1.251 . S
C315 O321 1.263 . S
Tb316 O318 2.343 . S
Tb316 O321 2.353 . S
Tb316 O324 2.427 . S
Tb316 O325 2.513 . S
Tb316 O326 2.453 . S
Tb316 O327 2.596 . S
Tb316 O328 2.374 . S
O317 Tb314 2.453 . S
O317 C333 1.245 . S
O318 Tb314 2.596 . S
O318 Tb316 2.343 . S
O318 C333 1.259 . S
O319 Tb314 2.374 . S
O319 C315 1.251 . S
C320 O324 1.275 . S
C320 O325 1.246 . S
O321 C315 1.263 . S
O321 Tb316 2.353 . S
C322 O326 1.245 . S
C322 O327 1.259 . S
C323 O328 1.250 . S
C323 O329 1.263 . S
O324 Tb316 2.427 . S
O324 C320 1.275 . S
O325 Tb316 2.513 . S
O325 C320 1.246 . S
O326 Tb316 2.453 . S
O326 C322 1.245 . S
O327 Tb314 2.343 . S
O327 Tb316 2.596 . S
O327 C322 1.259 . S
O328 Tb316 2.374 . S
O328 C323 1.250 . S
O329 Tb314 2.353 . S
O329 C323 1.263 . S
C330 O331 1.275 . S
C330 O332 1.246 . S
O331 Tb314 2.427 . S
O331 C330 1.275 . S
O332 Tb314 2.513 . S
O332 C330 1.246 . S
C333 O317 1.245 . S
C333 O318 1.259 . S
Tb334 O337 2.453 . S
Tb334 O338 2.596 . S
Tb334 O339 2.374 . S
Tb334 O347 2.343 . S
Tb334 O349 2.353 . S
Tb334 O351 2.427 . S
Tb334 O352 2.513 . S
C335 O339 1.251 . S
C335 O341 1.263 . S
Tb336 O338 2.343 . S
Tb336 O341 2.353 . S
Tb336 O344 2.427 . S
Tb336 O345 2.513 . S
Tb336 O346 2.453 . S
Tb336 O347 2.596 . S
Tb336 O348 2.374 . S
O337 Tb334 2.453 . S
O337 C353 1.245 . S
O338 Tb334 2.596 . S
O338 Tb336 2.343 . S
O338 C353 1.259 . S
O339 Tb334 2.374 . S
O339 C335 1.251 . S
C340 O344 1.275 . S
C340 O345 1.246 . S
O341 C335 1.263 . S
O341 Tb336 2.353 . S
C342 O346 1.245 . S
C342 O347 1.259 . S
C343 O348 1.250 . S
C343 O349 1.263 . S
O344 Tb336 2.427 . S
O344 C340 1.275 . S
O345 Tb336 2.513 . S
O345 C340 1.246 . S
O346 Tb336 2.453 . S
O346 C342 1.245 . S
O347 Tb334 2.343 . S
O347 Tb336 2.596 . S
O347 C342 1.259 . S
O348 Tb336 2.374 . S
O348 C343 1.250 . S
O349 Tb334 2.353 . S
O349 C343 1.263 . S
C350 O351 1.275 . S
C350 O352 1.246 . S
O351 Tb334 2.427 . S
O351 C350 1.275 . S
O352 Tb334 2.513 . S
O352 C350 1.246 . S
C353 O337 1.245 . S
C353 O338 1.259 . S
Tb354 O357 2.453 . S
Tb354 O358 2.596 . S
Tb354 O359 2.374 . S
Tb354 O367 2.343 . S
Tb354 O369 2.353 . S
Tb354 O371 2.427 . S
Tb354 O372 2.513 . S
C355 O359 1.251 . S
C355 O361 1.263 . S
Tb356 O358 2.343 . S
Tb356 O361 2.353 . S
Tb356 O364 2.427 . S
Tb356 O365 2.513 . S
Tb356 O366 2.453 . S
Tb356 O367 2.596 . S
Tb356 O368 2.374 . S
O357 Tb354 2.453 . S
O357 C373 1.245 . S
O358 Tb354 2.596 . S
O358 Tb356 2.343 . S
O358 C373 1.259 . S
O359 Tb354 2.374 . S
O359 C355 1.251 . S
C360 O364 1.275 . S
C360 O365 1.246 . S
O361 C355 1.263 . S
O361 Tb356 2.353 . S
C362 O366 1.245 . S
C362 O367 1.259 . S
C363 O368 1.250 . S
C363 O369 1.263 . S
O364 Tb356 2.427 . S
O364 C360 1.275 . S
O365 Tb356 2.513 . S
O365 C360 1.246 . S
O366 Tb356 2.453 . S
O366 C362 1.245 . S
O367 Tb354 2.343 . S
O367 Tb356 2.596 . S
O367 C362 1.259 . S
O368 Tb356 2.374 . S
O368 C363 1.250 . S
O369 Tb354 2.353 . S
O369 C363 1.263 . S
C370 O371 1.275 . S
C370 O372 1.246 . S
O371 Tb354 2.427 . S
O371 C370 1.275 . S
O372 Tb354 2.513 . S
O372 C370 1.246 . S
C373 O357 1.245 . S
C373 O358 1.259 . S
Tb374 O377 2.453 . S
Tb374 O378 2.596 . S
Tb374 O379 2.374 . S
Tb374 O387 2.343 . S
Tb374 O389 2.353 . S
Tb374 O391 2.427 . S
Tb374 O392 2.513 . S
C375 O379 1.251 . S
C375 O381 1.263 . S
Tb376 O378 2.343 . S
Tb376 O381 2.353 . S
Tb376 O384 2.427 . S
Tb376 O385 2.513 . S
Tb376 O386 2.453 . S
Tb376 O387 2.596 . S
Tb376 O388 2.374 . S
O377 Tb374 2.453 . S
O377 C393 1.245 . S
O378 Tb374 2.596 . S
O378 Tb376 2.343 . S
O378 C393 1.259 . S
O379 Tb374 2.374 . S
O379 C375 1.251 . S
C380 O384 1.275 . S
C380 O385 1.246 . S
O381 C375 1.263 . S
O381 Tb376 2.353 . S
C382 O386 1.245 . S
C382 O387 1.259 . S
C383 O388 1.250 . S
C383 O389 1.263 . S
O384 Tb376 2.427 . S
O384 C380 1.275 . S
O385 Tb376 2.513 . S
O385 C380 1.246 . S
O386 Tb376 2.453 . S
O386 C382 1.245 . S
O387 Tb374 2.343 . S
O387 Tb376 2.596 . S
O387 C382 1.259 . S
O388 Tb376 2.374 . S
O388 C383 1.250 . S
O389 Tb374 2.353 . S
O389 C383 1.263 . S
C390 O391 1.275 . S
C390 O392 1.246 . S
O391 Tb374 2.427 . S
O391 C390 1.275 . S
O392 Tb374 2.513 . S
O392 C390 1.246 . S
C393 O377 1.245 . S
C393 O378 1.259 . S
Tb394 O397 2.453 . S
Tb394 O398 2.596 . S
Tb394 O399 2.374 . S
Tb394 O407 2.343 . S
Tb394 O409 2.353 . S
Tb394 O411 2.427 . S
Tb394 O412 2.513 . S
C395 O399 1.251 . S
C395 O401 1.263 . S
Tb396 O398 2.343 . S
Tb396 O401 2.353 . S
Tb396 O404 2.427 . S
Tb396 O405 2.513 . S
Tb396 O406 2.453 . S
Tb396 O407 2.596 . S
Tb396 O408 2.374 . S
O397 Tb394 2.453 . S
O397 C413 1.245 . S
O398 Tb394 2.596 . S
O398 Tb396 2.343 . S
O398 C413 1.259 . S
O399 Tb394 2.374 . S
O399 C395 1.251 . S
C400 O404 1.275 . S
C400 O405 1.246 . S
O401 C395 1.263 . S
O401 Tb396 2.353 . S
C402 O406 1.245 . S
C402 O407 1.259 . S
C403 O408 1.250 . S
C403 O409 1.263 . S
O404 Tb396 2.427 . S
O404 C400 1.275 . S
O405 Tb396 2.513 . S
O405 C400 1.246 . S
O406 Tb396 2.453 . S
O406 C402 1.245 . S
O407 Tb394 2.343 . S
O407 Tb396 2.596 . S
O407 C402 1.259 . S
O408 Tb396 2.374 . S
O408 C403 1.250 . S
O409 Tb394 2.353 . S
O409 C403 1.263 . S
C410 O411 1.275 . S
C410 O412 1.246 . S
O411 Tb394 2.427 . S
O411 C410 1.275 . S
O412 Tb394 2.513 . S
O412 C410 1.246 . S
C413 O397 1.245 . S
C413 O398 1.259 . S
C414 C415 1.387 . S
C414 H418 0.950 . S
C414 C423 1.390 . S
C415 C414 1.387 . S
C415 C417 1.387 . S
H416 C423 0.950 1_556 S
C417 C415 1.387 . S
C417 C419 1.390 . S
C417 H421 0.950 . S
H418 C414 0.950 . S
C419 C417 1.390 . S
C419 C420 1.387 . S
C419 H422 0.950 . S
C420 C419 1.387 . S
C420 C423 1.387 . S
H421 C417 0.950 . S
H422 C419 0.950 . S
C423 C414 1.390 . S
C423 H416 0.950 1_554 S
C423 C420 1.387 . S
C424 C425 1.387 . S
C424 H428 0.950 . S
C424 C433 1.390 . S
C425 C424 1.387 . S
C425 C427 1.387 . S
H426 C433 0.950 . S
C427 C425 1.387 . S
C427 C429 1.390 . S
C427 H431 0.950 . S
H428 C424 0.950 . S
C429 C427 1.390 . S
C429 C430 1.387 . S
C429 H432 0.950 . S
C430 C429 1.387 . S
C430 C433 1.387 . S
H431 C427 0.950 . S
H432 C429 0.950 . S
C433 C424 1.390 . S
C433 H426 0.950 . S
C433 C430 1.387 . S
C434 C435 1.387 . S
C434 H438 0.950 1_554 S
C434 C443 1.390 . S
C435 C434 1.387 . S
C435 C437 1.387 . S
H436 C443 0.950 1_556 S
C437 C435 1.387 . S
C437 C439 1.390 . S
C437 H441 0.950 . S
H438 C434 0.950 1_556 S
C439 C437 1.390 . S
C439 C440 1.387 . S
C439 H442 0.950 . S
C440 C439 1.387 . S
C440 C443 1.387 . S
H441 C437 0.950 . S
H442 C439 0.950 . S
C443 C434 1.390 . S
C443 H436 0.950 1_554 S
C443 C440 1.387 . S
C444 C445 1.387 . S
C444 H448 0.950 . S
C444 C453 1.390 . S
C445 C444 1.387 . S
C445 C447 1.387 1_556 S
H446 C453 0.950 . S
C447 C445 1.387 1_554 S
C447 C449 1.390 . S
C447 H451 0.950 . S
H448 C444 0.950 . S
C449 C447 1.390 . S
C449 C450 1.387 1_554 S
C449 H452 0.950 . S
C450 C449 1.387 1_556 S
C450 C453 1.387 . S
H451 C447 0.950 . S
H452 C449 0.950 . S
C453 C444 1.390 . S
C453 H446 0.950 . S
C453 C450 1.387 . S
C454 C455 1.387 . S
C454 H458 0.950 . S
C454 C463 1.390 . S
C455 C454 1.387 . S
C455 C457 1.387 . S
H456 C463 0.950 . S
C457 C455 1.387 . S
C457 C459 1.390 . S
C457 H461 0.950 . S
H458 C454 0.950 . S
C459 C457 1.390 . S
C459 C460 1.387 . S
C459 H462 0.950 . S
C460 C459 1.387 . S
C460 C463 1.387 . S
H461 C457 0.950 . S
H462 C459 0.950 . S
C463 C454 1.390 . S
C463 H456 0.950 . S
C463 C460 1.387 . S
C464 C465 1.387 1_554 S
C464 H468 0.950 . S
C464 C473 1.390 . S
C465 C464 1.387 1_556 S
C465 C467 1.387 . S
H466 C473 0.950 . S
C467 C465 1.387 . S
C467 C469 1.390 . S
C467 H471 0.950 . S
H468 C464 0.950 . S
C469 C467 1.390 . S
C469 C470 1.387 . S
C469 H472 0.950 . S
C470 C469 1.387 . S
C470 C473 1.387 1_556 S
H471 C467 0.950 . S
H472 C469 0.950 . S
C473 C464 1.390 . S
C473 H466 0.950 . S
C473 C470 1.387 1_554 S
C474 C475 1.387 . S
C474 H478 0.950 1_556 S
C474 C483 1.390 1_556 S
C475 C474 1.387 . S
C475 C477 1.387 . S
H476 C483 0.950 . S
C477 C475 1.387 . S
C477 C479 1.390 . S
C477 H481 0.950 . S
H478 C474 0.950 1_554 S
C479 C477 1.390 . S
C479 C480 1.387 . S
C479 H482 0.950 . S
C480 C479 1.387 . S
C480 C483 1.387 1_556 S
H481 C477 0.950 . S
H482 C479 0.950 . S
C483 C474 1.390 1_554 S
C483 H476 0.950 . S
C483 C480 1.387 1_554 S
C484 C485 1.387 . S
C484 H488 0.946 1_556 S
C484 C493 1.390 . S
C485 C484 1.387 . S
C485 C487 1.387 . S
H486 C493 0.950 1_554 S
C487 C485 1.387 . S
C487 C489 1.390 . S
C487 H491 0.950 . S
H488 C484 0.946 1_554 S
C489 C487 1.390 . S
C489 C490 1.387 . S
C489 H492 0.950 . S
C490 C489 1.387 . S
C490 C493 1.387 . S
H491 C487 0.950 . S
H492 C489 0.950 . S
C493 C484 1.390 . S
C493 H486 0.950 1_556 S
C493 C490 1.387 . S
C494 C495 1.387 . S
C494 H498 0.950 . S
C494 C503 1.390 . S
C495 C494 1.387 . S
C495 C497 1.387 1_556 S
H496 C503 0.950 . S
C497 C495 1.387 1_554 S
C497 C499 1.390 . S
C497 H501 0.950 . S
H498 C494 0.950 . S
C499 C497 1.390 . S
C499 C500 1.387 1_554 S
C499 H502 0.950 . S
C500 C499 1.387 1_556 S
C500 C503 1.387 . S
H501 C497 0.950 . S
H502 C499 0.950 . S
C503 C494 1.390 . S
C503 H496 0.950 . S
C503 C500 1.387 . S
C504 C505 1.387 . S
C504 H508 0.950 1_554 S
C504 C513 1.390 1_554 S
C505 C504 1.387 . S
C505 C507 1.387 . S
H506 C513 0.950 . S
C507 C505 1.387 . S
C507 C509 1.390 . S
C507 H511 0.950 . S
H508 C504 0.950 1_556 S
C509 C507 1.390 . S
C509 C510 1.387 . S
C509 H512 0.950 . S
C510 C509 1.387 . S
C510 C513 1.387 1_554 S
H511 C507 0.950 . S
H512 C509 0.950 . S
C513 C504 1.390 1_556 S
C513 H506 0.950 . S
C513 C510 1.387 1_556 S
C514 C515 1.387 . S
C514 H518 0.950 . S
C514 C523 1.390 . S
C515 C514 1.387 . S
C515 C517 1.387 . S
H516 C523 0.950 . S
C517 C515 1.387 . S
C517 C519 1.390 . S
C517 H521 0.950 . S
H518 C514 0.950 . S
C519 C517 1.390 . S
C519 C520 1.387 . S
C519 H522 0.950 . S
C520 C519 1.387 . S
C520 C523 1.387 . S
H521 C517 0.950 . S
H522 C519 0.950 . S
C523 C514 1.390 . S
C523 H516 0.950 . S
C523 C520 1.387 . S
C524 C525 1.387 . S
C524 H528 0.950 . S
C524 C533 1.390 . S
C525 C524 1.387 . S
C525 C527 1.387 . S
H526 C533 0.950 . S
C527 C525 1.387 . S
C527 C529 1.390 1_554 S
C527 H531 0.950 1_554 S
H528 C524 0.950 . S
C529 C527 1.390 1_556 S
C529 C530 1.387 1_556 S
C529 H532 0.950 . S
C530 C529 1.387 1_554 S
C530 C533 1.387 . S
H531 C527 0.950 1_556 S
H532 C529 0.950 . S
C533 C524 1.390 . S
C533 H526 0.950 . S
C533 C530 1.387 . S
C534 C535 1.387 . S
C534 H538 0.950 . S
C534 C543 1.390 . S
C535 C534 1.387 . S
C535 C537 1.387 . S
H536 C543 0.950 . S
C537 C535 1.387 . S
C537 C539 1.390 1_655 S
C537 H541 0.950 . S
H538 C534 0.950 . S
C539 C537 1.390 1_455 S
C539 C540 1.387 . S
C539 H542 0.950 . S
C540 C539 1.387 . S
C540 C543 1.387 1_455 S
H541 C537 0.950 . S
H542 C539 0.950 . S
C543 C534 1.390 . S
C543 H536 0.950 . S
C543 C540 1.387 1_655 S
C544 C545 1.387 . S
C544 H548 0.950 . S
C544 C553 1.390 . S
C545 C544 1.387 . S
C545 C547 1.387 . S
H546 C553 0.950 . S
C547 C545 1.387 . S
C547 C549 1.390 . S
C547 H551 0.950 . S
H548 C544 0.950 . S
C549 C547 1.390 . S
C549 C550 1.387 . S
C549 H552 0.950 . S
C550 C549 1.387 . S
C550 C553 1.387 . S
H551 C547 0.950 . S
H552 C549 0.950 . S
C553 C544 1.390 . S
C553 H546 0.950 . S
C553 C550 1.387 . S
C554 C555 1.387 . S
C554 H558 0.950 . S
C554 C563 1.390 1_545 S
C555 C554 1.387 . S
C555 C557 1.387 . S
H556 C563 0.950 . S
C557 C555 1.387 . S
C557 C559 1.390 1_545 S
C557 H561 0.950 . S
H558 C554 0.950 . S
C559 C557 1.390 1_565 S
C559 C560 1.387 . S
C559 H562 0.950 . S
C560 C559 1.387 . S
C560 C563 1.387 . S
H561 C557 0.950 . S
H562 C559 0.950 . S
C563 C554 1.390 1_565 S
C563 H556 0.950 . S
C563 C560 1.387 . S
C564 C565 1.387 . S
C564 H568 0.950 . S
C564 C573 1.390 . S
C565 C564 1.387 . S
C565 C567 1.387 . S
H566 C573 0.950 . S
C567 C565 1.387 . S
C567 C569 1.390 . S
C567 H571 0.950 . S
H568 C564 0.950 . S
C569 C567 1.390 . S
C569 C570 1.387 . S
C569 H572 0.950 . S
C570 C569 1.387 . S
C570 C573 1.387 . S
H571 C567 0.950 . S
H572 C569 0.950 . S
C573 C564 1.390 . S
C573 H566 0.950 . S
C573 C570 1.387 . S
C574 C575 1.387 . S
C574 H578 0.950 . S
C574 C583 1.390 . S
C575 C574 1.387 . S
C575 C577 1.387 . S
H576 C583 0.950 . S
C577 C575 1.387 . S
C577 C579 1.390 . S
C577 H581 0.950 . S
H578 C574 0.950 . S
C579 C577 1.390 . S
C579 C580 1.387 . S
C579 H582 0.950 . S
C580 C579 1.387 . S
C580 C583 1.387 . S
H581 C577 0.950 . S
H582 C579 0.950 . S
C583 C574 1.390 . S
C583 H576 0.950 . S
C583 C580 1.387 . S
C584 C585 1.387 . S
C584 H588 0.950 . S
C584 C593 1.390 . S
C585 C584 1.387 . S
C585 C587 1.387 . S
H586 C593 0.950 . S
C587 C585 1.387 . S
C587 C589 1.390 . S
C587 H591 0.950 . S
H588 C584 0.950 . S
C589 C587 1.390 . S
C589 C590 1.387 . S
C589 H592 0.950 . S
C590 C589 1.387 . S
C590 C593 1.387 . S
H591 C587 0.950 . S
H592 C589 0.950 . S
C593 C584 1.390 . S
C593 H586 0.950 . S
C593 C590 1.387 . S
C594 C595 1.387 . S
C594 H598 0.950 . S
C594 C603 1.390 . S
C595 C594 1.387 . S
C595 C597 1.387 . S
H596 C603 0.950 . S
C597 C595 1.387 . S
C597 C599 1.390 . S
C597 H601 0.950 . S
H598 C594 0.950 . S
C599 C597 1.390 . S
C599 C600 1.387 . S
C599 H602 0.950 . S
C600 C599 1.387 . S
C600 C603 1.387 . S
H601 C597 0.950 . S
H602 C599 0.950 . S
C603 C594 1.390 . S
C603 H596 0.950 . S
C603 C600 1.387 . S
C604 C605 1.387 . S
C604 H608 0.950 . S
C604 C613 1.390 . S
C605 C604 1.387 . S
C605 C607 1.387 . S
H606 C613 0.950 . S
C607 C605 1.387 . S
C607 C609 1.390 . S
C607 H611 0.950 . S
H608 C604 0.950 . S
C609 C607 1.390 . S
C609 C610 1.387 . S
C609 H612 0.950 . S
C610 C609 1.387 . S
C610 C613 1.387 . S
H611 C607 0.950 . S
H612 C609 0.950 . S
C613 C604 1.390 . S
C613 H606 0.950 . S
C613 C610 1.387 . S
C614 C615 1.387 . S
C614 H618 0.950 . S
C614 C623 1.390 . S
C615 C614 1.387 . S
C615 C617 1.387 . S
H616 C623 0.950 . S
C617 C615 1.387 . S
C617 C619 1.390 . S
C617 H621 0.950 . S
H618 C614 0.950 . S
C619 C617 1.390 . S
C619 C620 1.387 . S
C619 H622 0.950 . S
C620 C619 1.387 . S
C620 C623 1.387 . S
H621 C617 0.950 . S
H622 C619 0.950 . S
C623 C614 1.390 . S
C623 H616 0.950 . S
C623 C620 1.387 . S
C624 C625 1.387 . S
C624 H628 0.950 . S
C624 C633 1.390 . S
C625 C624 1.387 . S
C625 C627 1.387 . S
H626 C633 0.950 . S
C627 C625 1.387 . S
C627 C629 1.390 . S
C627 H631 0.950 . S
H628 C624 0.950 . S
C629 C627 1.390 . S
C629 C630 1.387 . S
C629 H632 0.950 . S
C630 C629 1.387 . S
C630 C633 1.387 . S
H631 C627 0.950 . S
H632 C629 0.950 . S
C633 C624 1.390 . S
C633 H626 0.950 . S
C633 C630 1.387 . S
C634 C635 1.387 1_455 S
C634 H638 0.950 . S
C634 C643 1.390 . S
C635 C634 1.387 1_655 S
C635 C637 1.387 1_655 S
H636 C643 0.950 . S
C637 C635 1.387 1_455 S
C637 C639 1.390 . S
C637 H641 0.950 1_455 S
H638 C634 0.950 . S
C639 C637 1.390 . S
C639 C640 1.387 . S
C639 H642 0.950 . S
C640 C639 1.387 . S
C640 C643 1.387 . S
H641 C637 0.950 1_655 S
H642 C639 0.950 . S
C643 C634 1.390 . S
C643 H636 0.950 . S
C643 C640 1.387 . S
C644 C645 1.387 . S
C644 H648 0.950 . S
C644 C653 1.390 . S
C645 C644 1.387 . S
C645 C647 1.387 . S
H646 C653 0.950 . S
C647 C645 1.387 . S
C647 C649 1.390 . S
C647 H651 0.950 . S
H648 C644 0.950 . S
C649 C647 1.390 . S
C649 C650 1.387 . S
C649 H652 0.950 . S
C650 C649 1.387 . S
C650 C653 1.387 . S
H651 C647 0.950 . S
H652 C649 0.950 . S
C653 C644 1.390 . S
C653 H646 0.950 . S
C653 C650 1.387 . S
C654 C655 1.387 . S
C654 H658 0.950 . S
C654 C663 1.390 . S
C655 C654 1.387 . S
C655 C657 1.387 . S
H656 C663 0.950 . S
C657 C655 1.387 . S
C657 C659 1.390 . S
C657 H661 0.950 . S
H658 C654 0.950 . S
C659 C657 1.390 . S
C659 C660 1.387 . S
C659 H662 0.950 . S
C660 C659 1.387 . S
C660 C663 1.387 . S
H661 C657 0.950 . S
H662 C659 0.950 . S
C663 C654 1.390 . S
C663 H656 0.950 . S
C663 C660 1.387 . S
C664 C665 1.387 . S
C664 H668 0.950 . S
C664 C673 1.390 . S
C665 C664 1.387 . S
C665 C667 1.387 . S
H666 C673 0.950 . S
C667 C665 1.387 . S
C667 C669 1.390 . S
C667 H671 0.950 . S
H668 C664 0.950 . S
C669 C667 1.390 . S
C669 C670 1.387 . S
C669 H672 0.950 . S
C670 C669 1.387 . S
C670 C673 1.387 . S
H671 C667 0.950 . S
H672 C669 0.950 . S
C673 C664 1.390 . S
C673 H666 0.950 . S
C673 C670 1.387 . S
C674 C675 1.387 . S
C674 H678 0.950 . S
C674 C683 1.390 . S
C675 C674 1.387 . S
C675 C677 1.387 . S
H676 C683 0.950 . S
C677 C675 1.387 . S
C677 C679 1.390 . S
C677 H681 0.950 . S
H678 C674 0.950 . S
C679 C677 1.390 . S
C679 C680 1.387 . S
C679 H682 0.950 . S
C680 C679 1.387 . S
C680 C683 1.387 . S
H681 C677 0.950 . S
H682 C679 0.950 . S
C683 C674 1.390 . S
C683 H676 0.950 . S
C683 C680 1.387 . S
C684 C685 1.387 . S
C684 H688 0.950 . S
C684 C693 1.390 1_565 S
C685 C684 1.387 . S
C685 C687 1.387 . S
H686 C693 0.950 . S
C687 C685 1.387 . S
C687 C689 1.390 1_565 S
C687 H691 0.950 . S
H688 C684 0.950 . S
C689 C687 1.390 1_545 S
C689 C690 1.387 . S
C689 H692 0.950 . S
C690 C689 1.387 . S
C690 C693 1.387 . S
H691 C687 0.950 . S
H692 C689 0.950 . S
C693 C684 1.390 1_545 S
C693 H686 0.950 . S
C693 C690 1.387 . S
C694 C695 1.387 . S
C694 H698 0.950 . S
C694 C703 1.390 . S
C695 C694 1.387 . S
C695 C697 1.387 . S
H696 C703 0.950 . S
C697 C695 1.387 . S
C697 C699 1.390 1_455 S
C697 H701 0.950 . S
H698 C694 0.950 . S
C699 C697 1.390 1_655 S
C699 C700 1.387 . S
C699 H702 0.950 . S
C700 C699 1.387 . S
C700 C703 1.387 1_655 S
H701 C697 0.950 . S
H702 C699 0.950 . S
C703 C694 1.390 . S
C703 H696 0.950 . S
C703 C700 1.387 1_455 S
C704 C705 1.387 . S
C704 H708 0.950 . S
C704 C713 1.390 . S
C705 C704 1.387 . S
C705 C707 1.387 . S
H706 C713 0.950 . S
C707 C705 1.387 . S
C707 C709 1.390 . S
C707 H711 0.950 . S
H708 C704 0.950 . S
C709 C707 1.390 . S
C709 C710 1.387 . S
C709 H712 0.950 . S
C710 C709 1.387 . S
C710 C713 1.387 . S
H711 C707 0.950 . S
H712 C709 0.950 . S
C713 C704 1.390 . S
C713 H706 0.950 . S
C713 C710 1.387 . S
C714 C715 1.387 1_655 S
C714 H718 0.950 1_655 S
C714 C723 1.390 . S
C715 C714 1.387 1_455 S
C715 C717 1.387 . S
H716 C723 0.950 . S
C717 C715 1.387 . S
C717 C719 1.390 1_455 S
C717 H721 0.950 . S
H718 C714 0.950 1_455 S
C719 C717 1.390 1_655 S
C719 C720 1.387 . S
C719 H722 0.950 . S
C720 C719 1.387 . S
C720 C723 1.387 . S
H721 C717 0.950 . S
H722 C719 0.950 . S
C723 C714 1.390 . S
C723 H716 0.950 . S
C723 C720 1.387 . S
C724 C725 1.387 . S
C724 H728 0.950 . S
C724 C733 1.390 . S
C725 C724 1.387 . S
C725 C727 1.387 . S
H726 C733 0.950 . S
C727 C725 1.387 . S
C727 C729 1.390 . S
C727 H731 0.950 . S
H728 C724 0.950 . S
C729 C727 1.390 . S
C729 C730 1.387 . S
C729 H732 0.950 . S
C730 C729 1.387 . S
C730 C733 1.387 . S
H731 C727 0.950 . S
H732 C729 0.950 . S
C733 C724 1.390 . S
C733 H726 0.950 . S
C733 C730 1.387 . S
C734 C735 1.387 1_545 S
C734 H738 0.950 . S
C734 C743 1.390 . S
C735 C734 1.387 1_565 S
C735 C737 1.387 1_565 S
H736 C743 0.950 . S
C737 C735 1.387 1_545 S
C737 C739 1.390 . S
C737 H741 0.950 . S
H738 C734 0.950 . S
C739 C737 1.390 . S
C739 C740 1.387 . S
C739 H742 0.950 . S
C740 C739 1.387 . S
C740 C743 1.387 . S
H741 C737 0.950 . S
H742 C739 0.950 . S
C743 C734 1.390 . S
C743 H736 0.950 . S
C743 C740 1.387 . S
C744 C745 1.387 . S
C744 H748 0.950 . S
C744 C753 1.390 . S
C745 C744 1.387 . S
C745 C747 1.387 . S
H746 C753 0.950 . S
C747 C745 1.387 . S
C747 C749 1.390 . S
C747 H751 0.950 . S
H748 C744 0.950 . S
C749 C747 1.390 . S
C749 C750 1.387 . S
C749 H752 0.950 . S
C750 C749 1.387 . S
C750 C753 1.387 . S
H751 C747 0.950 . S
H752 C749 0.950 . S
C753 C744 1.390 . S
C753 H746 0.950 . S
C753 C750 1.387 . S
C754 C755 1.387 . S
C754 H758 0.950 . S
C754 C763 1.390 . S
C755 C754 1.387 . S
C755 C757 1.387 . S
H756 C763 0.950 . S
C757 C755 1.387 . S
C757 C759 1.390 . S
C757 H761 0.950 . S
H758 C754 0.950 . S
C759 C757 1.390 . S
C759 C760 1.387 . S
C759 H762 0.950 . S
C760 C759 1.387 . S
C760 C763 1.387 . S
H761 C757 0.950 . S
H762 C759 0.950 . S
C763 C754 1.390 . S
C763 H756 0.950 . S
C763 C760 1.387 . S
C764 C765 1.387 . S
C764 H768 0.950 . S
C764 C773 1.390 . S
C765 C764 1.387 . S
C765 C767 1.387 . S
H766 C773 0.950 . S
C767 C765 1.387 . S
C767 C769 1.390 . S
C767 H771 0.950 . S
H768 C764 0.950 . S
C769 C767 1.390 . S
C769 C770 1.387 . S
C769 H772 0.950 . S
C770 C769 1.387 . S
C770 C773 1.387 . S
H771 C767 0.950 . S
H772 C769 0.950 . S
C773 C764 1.390 . S
C773 H766 0.950 . S
C773 C770 1.387 . S
C774 C775 1.387 . S
C774 H778 0.950 . S
C774 C783 1.390 . S
C775 C774 1.387 . S
C775 C777 1.387 . S
H776 C783 0.950 . S
C777 C775 1.387 . S
C777 C779 1.390 . S
C777 H781 0.950 . S
H778 C774 0.950 . S
C779 C777 1.390 . S
C779 C780 1.387 . S
C779 H782 0.950 1_565 S
C780 C779 1.387 . S
C780 C783 1.387 . S
H781 C777 0.950 . S
H782 C779 0.950 1_545 S
C783 C774 1.390 . S
C783 H776 0.950 . S
C783 C780 1.387 . S
C784 C785 1.387 . S
C784 H788 0.950 . S
C784 C793 1.390 . S
C785 C784 1.387 . S
C785 C787 1.387 . S
H786 C793 0.950 . S
C787 C785 1.387 . S
C787 C789 1.390 . S
C787 H791 0.950 . S
H788 C784 0.950 . S
C789 C787 1.390 . S
C789 C790 1.387 . S
C789 H792 0.950 . S
C790 C789 1.387 . S
C790 C793 1.387 . S
H791 C787 0.950 . S
H792 C789 0.950 . S
C793 C784 1.390 . S
C793 H786 0.950 . S
C793 C790 1.387 . S
C794 C795 1.387 . S
C794 H798 0.950 . S
C794 C803 1.390 . S
C795 C794 1.387 . S
C795 C797 1.387 . S
H796 C803 0.950 . S
C797 C795 1.387 . S
C797 C799 1.390 . S
C797 H801 0.950 . S
H798 C794 0.950 . S
C799 C797 1.390 . S
C799 C800 1.387 . S
C799 H802 0.950 . S
C800 C799 1.387 . S
C800 C803 1.387 . S
H801 C797 0.950 . S
H802 C799 0.950 . S
C803 C794 1.390 . S
C803 H796 0.950 . S
C803 C800 1.387 . S
C804 C805 1.387 . S
C804 H808 0.950 . S
C804 C813 1.390 . S
C805 C804 1.387 . S
C805 C807 1.387 . S
H806 C813 0.950 . S
C807 C805 1.387 . S
C807 C809 1.390 . S
C807 H811 0.950 . S
H808 C804 0.950 . S
C809 C807 1.390 . S
C809 C810 1.387 . S
C809 H812 0.950 . S
C810 C809 1.387 . S
C810 C813 1.387 . S
H811 C807 0.950 . S
H812 C809 0.950 . S
C813 C804 1.390 . S
C813 H806 0.950 . S
C813 C810 1.387 . S
C814 C815 1.387 . S
C814 H818 0.950 . S
C814 C823 1.390 . S
C815 C814 1.387 . S
C815 C817 1.387 . S
H816 C823 0.950 . S
C817 C815 1.387 . S
C817 C819 1.390 . S
C817 H821 0.950 . S
H818 C814 0.950 . S
C819 C817 1.390 . S
C819 C820 1.387 . S
C819 H822 0.950 . S
C820 C819 1.387 . S
C820 C823 1.387 . S
H821 C817 0.950 . S
H822 C819 0.950 . S
C823 C814 1.390 . S
C823 H816 0.950 . S
C823 C820 1.387 . S
C824 C825 1.387 . S
C824 H828 0.950 . S
C824 C833 1.390 . S
C825 C824 1.387 . S
C825 C827 1.387 . S
H826 C833 0.950 . S
C827 C825 1.387 . S
C827 C829 1.390 . S
C827 H831 0.950 . S
H828 C824 0.950 . S
C829 C827 1.390 . S
C829 C830 1.387 . S
C829 H832 0.950 1_545 S
C830 C829 1.387 . S
C830 C833 1.387 . S
H831 C827 0.950 . S
H832 C829 0.950 1_565 S
C833 C824 1.390 . S
C833 H826 0.950 . S
C833 C830 1.387 . S
C834 C835 1.387 . S
C834 H838 0.950 . S
C834 C843 1.390 . S
C835 C834 1.387 . S
C835 C837 1.387 . S
H836 C843 0.950 . S
C837 C835 1.387 . S
C837 C839 1.390 . S
C837 H841 0.950 . S
H838 C834 0.950 . S
C839 C837 1.390 . S
C839 C840 1.387 . S
C839 H842 0.950 . S
C840 C839 1.387 . S
C840 C843 1.387 . S
H841 C837 0.950 . S
H842 C839 0.950 . S
C843 C834 1.390 . S
C843 H836 0.950 . S
C843 C840 1.387 . S
C844 C845 1.387 . S
C844 H848 0.950 . S
C844 C853 1.390 . S
C845 C844 1.387 . S
C845 C847 1.387 . S
H846 C853 0.950 . S
C847 C845 1.387 . S
C847 C849 1.390 . S
C847 H851 0.950 . S
H848 C844 0.950 . S
C849 C847 1.390 . S
C849 C850 1.387 . S
C849 H852 0.950 . S
C850 C849 1.387 . S
C850 C853 1.387 . S
H851 C847 0.950 . S
H852 C849 0.950 . S
C853 C844 1.390 . S
C853 H846 0.950 . S
C853 C850 1.387 . S
C854 C855 1.387 . S
C854 H858 0.950 . S
C854 C863 1.390 . S
C855 C854 1.387 . S
C855 C857 1.387 . S
H856 C863 0.950 . S
C857 C855 1.387 . S
C857 C859 1.390 . S
C857 H861 0.950 . S
H858 C854 0.950 . S
C859 C857 1.390 . S
C859 C860 1.387 . S
C859 H862 0.950 . S
C860 C859 1.387 . S
C860 C863 1.387 . S
H861 C857 0.950 . S
H862 C859 0.950 . S
C863 C854 1.390 . S
C863 H856 0.950 . S
C863 C860 1.387 . S
C864 C865 1.387 . S
C864 H868 0.950 . S
C864 C873 1.390 . S
C865 C864 1.387 . S
C865 C867 1.387 . S
H866 C873 0.950 . S
C867 C865 1.387 . S
C867 C869 1.390 . S
C867 H871 0.950 . S
H868 C864 0.950 . S
C869 C867 1.390 . S
C869 C870 1.387 . S
C869 H872 0.950 . S
C870 C869 1.387 . S
C870 C873 1.387 . S
H871 C867 0.950 . S
H872 C869 0.950 . S
C873 C864 1.390 . S
C873 H866 0.950 . S
C873 C870 1.387 . S
C874 C875 1.387 . S
C874 H878 0.950 . S
C874 C883 1.390 . S
C875 C874 1.387 . S
C875 C877 1.387 . S
H876 C883 0.950 . S
C877 C875 1.387 . S
C877 C879 1.390 . S
C877 H881 0.950 . S
H878 C874 0.950 . S
C879 C877 1.390 . S
C879 C880 1.387 . S
C879 H882 0.950 . S
C880 C879 1.387 . S
C880 C883 1.387 . S
H881 C877 0.950 . S
H882 C879 0.950 . S
C883 C874 1.390 . S
C883 H876 0.950 . S
C883 C880 1.387 . S
C884 C885 1.387 . S
C884 H888 0.950 . S
C884 C893 1.390 . S
C885 C884 1.387 . S
C885 C887 1.387 . S
H886 C893 0.950 . S
C887 C885 1.387 . S
C887 C889 1.390 . S
C887 H891 0.950 . S
H888 C884 0.950 . S
C889 C887 1.390 . S
C889 C890 1.387 . S
C889 H892 0.950 . S
C890 C889 1.387 . S
C890 C893 1.387 . S
H891 C887 0.950 . S
H892 C889 0.950 . S
C893 C884 1.390 . S
C893 H886 0.950 . S
C893 C890 1.387 . S
C894 C895 1.387 . S
C894 H898 0.950 . S
C894 C903 1.390 . S
C895 C894 1.387 . S
C895 C897 1.387 . S
H896 C903 0.950 . S
C897 C895 1.387 . S
C897 C899 1.390 . S
C897 H901 0.950 . S
H898 C894 0.950 . S
C899 C897 1.390 . S
C899 C900 1.387 . S
C899 H902 0.950 . S
C900 C899 1.387 . S
C900 C903 1.387 . S
H901 C897 0.950 . S
H902 C899 0.950 . S
C903 C894 1.390 . S
C903 H896 0.950 . S
C903 C900 1.387 . S
C904 C905 1.387 . S
C904 H908 0.950 . S
C904 C913 1.390 . S
C905 C904 1.387 . S
C905 C907 1.387 . S
H906 C913 0.950 . S
C907 C905 1.387 . S
C907 C909 1.390 . S
C907 H911 0.950 . S
H908 C904 0.950 . S
C909 C907 1.390 . S
C909 C910 1.387 . S
C909 H912 0.950 . S
C910 C909 1.387 . S
C910 C913 1.387 . S
H911 C907 0.950 . S
H912 C909 0.950 . S
C913 C904 1.390 . S
C913 H906 0.950 . S
C913 C910 1.387 . S
C914 C915 1.387 . S
C914 H918 0.950 . S
C914 C923 1.390 . S
C915 C914 1.387 . S
C915 C917 1.387 . S
H916 C923 0.950 . S
C917 C915 1.387 . S
C917 C919 1.390 . S
C917 H921 0.950 . S
H918 C914 0.950 . S
C919 C917 1.390 . S
C919 C920 1.387 . S
C919 H922 0.950 . S
C920 C919 1.387 . S
C920 C923 1.387 . S
H921 C917 0.950 . S
H922 C919 0.950 . S
C923 C914 1.390 . S
C923 H916 0.950 . S
C923 C920 1.387 . S
C924 C925 1.387 . S
C924 H928 0.950 . S
C924 C933 1.390 . S
C925 C924 1.387 . S
C925 C927 1.387 . S
H926 C933 0.950 . S
C927 C925 1.387 . S
C927 C929 1.390 . S
C927 H931 0.950 . S
H928 C924 0.950 . S
C929 C927 1.390 . S
C929 C930 1.387 . S
C929 H932 0.950 . S
C930 C929 1.387 . S
C930 C933 1.387 . S
H931 C927 0.950 . S
H932 C929 0.950 . S
C933 C924 1.390 . S
C933 H926 0.950 . S
C933 C930 1.387 . S
C934 C935 1.387 . S
C934 H938 0.950 . S
C934 C943 1.390 . S
C935 C934 1.387 . S
C935 C937 1.387 . S
H936 C943 0.950 . S
C937 C935 1.387 . S
C937 C939 1.390 . S
C937 H941 0.950 . S
H938 C934 0.950 . S
C939 C937 1.390 . S
C939 C940 1.387 . S
C939 H942 0.950 . S
C940 C939 1.387 . S
C940 C943 1.387 . S
H941 C937 0.950 . S
H942 C939 0.950 . S
C943 C934 1.390 . S
C943 H936 0.950 . S
C943 C940 1.387 . S
C944 C945 1.387 . S
C944 H948 0.950 . S
C944 C953 1.390 . S
C945 C944 1.387 . S
C945 C947 1.387 . S
H946 C953 0.950 . S
C947 C945 1.387 . S
C947 C949 1.390 . S
C947 H951 0.950 . S
H948 C944 0.950 . S
C949 C947 1.390 . S
C949 C950 1.387 . S
C949 H952 0.950 . S
C950 C949 1.387 . S
C950 C953 1.387 . S
H951 C947 0.950 . S
H952 C949 0.950 . S
C953 C944 1.390 . S
C953 H946 0.950 . S
C953 C950 1.387 . S
C415 C177 1.550 . S
C420 C240 1.530 . S
C425 C190 1.491 . S
C430 C260 1.469 . S
C435 C164 1.506 . S
C440 C283 1.513 . S
C445 C151 1.444 . S
C450 C263 1.448 . S
C460 C280 1.451 . S
C455 C125 1.468 . S
C465 C138 1.506 . S
C470 C243 1.505 1_556 S
C480 C250 1.541 . S
C475 C147 1.550 . S
C490 C270 1.423 . S
C485 C121 1.406 . S
C495 C134 1.477 . S
C500 C275 1.546 1_556 S
C505 C173 1.413 . S
C510 C255 1.476 . S
C515 C186 1.454 . S
C520 C290 1.448 . S
C530 C235 1.556 . S
C525 C160 1.521 . S
C540 C300 1.530 . S
C535 C21 1.550 . S
C545 C34 1.491 . S
C550 C320 1.469 . S
C555 C8 1.506 . S
C560 C343 1.513 . S
C565 C229 1.444 . S
C570 C323 1.447 . S
C575 C203 1.468 . S
C580 C340 1.452 . S
C585 C216 1.506 . S
C590 C303 1.506 . S
C595 C225 1.550 . S
C600 C310 1.541 . S
C605 C199 1.410 . S
C610 C330 1.423 . S
C620 C335 1.547 . S
C615 C212 1.474 . S
C625 C17 1.416 1_565 S
C630 C315 1.475 . S
C640 C350 1.447 . S
C635 C30 1.456 . S
C645 C4 1.522 . S
C650 C295 1.556 . S
C660 C360 1.530 . S
C655 C99 1.550 . S
C665 C112 1.491 . S
C670 C380 1.469 . S
C680 C403 1.513 . S
C675 C86 1.506 . S
C690 C383 1.448 . S
C685 C73 1.444 . S
C700 C400 1.452 . S
C695 C47 1.468 . S
C705 C60 1.506 . S
C710 C363 1.506 . S
C715 C69 1.551 . S
C720 C370 1.539 . S
C725 C43 1.409 . S
C730 C390 1.423 . S
C740 C395 1.547 . S
C735 C56 1.474 . S
C745 C95 1.414 . S
C750 C375 1.476 . S
C755 C108 1.456 . S
C760 C410 1.447 . S
C765 C82 1.520 . S
C770 C355 1.558 . S
C775 C204 1.408 . S
C780 C253 1.354 . S
C790 C273 1.587 . S
C785 C217 1.667 . S
C795 C230 1.512 . S
C800 C282 1.477 . S
C805 C87 1.629 . S
C810 C262 1.581 . S
C815 C100 1.572 . S
C820 C293 1.502 . S
C830 C242 1.355 . S
C825 C113 1.379 . S
C835 C48 1.408 . S
C840 C313 1.355 . S
C845 C61 1.666 . S
C850 C333 1.584 . S
C855 C74 1.512 . S
C860 C342 1.477 . S
C865 C165 1.629 . S
C870 C322 1.584 . S
C880 C353 1.503 . S
C875 C178 1.572 . S
C885 C191 1.378 . S
C890 C302 1.354 . S
C895 C126 1.408 . S
C900 C373 1.355 . S
C905 C139 1.667 . S
C910 C393 1.584 . S
C920 C402 1.477 . S
C915 C152 1.512 . S
C925 C9 1.629 . S
C930 C382 1.584 . S
C935 C22 1.572 . S
C940 C413 1.502 . S
C945 C35 1.379 . S
C950 C362 1.356 . S
