# Generated by pormake.
# Topology tsx, (6,3)-cn, num edge types: 1
# Building blocks:
#     Node 0, Type 0, BuildingBlock: JUFBIX_clean_sbu_0, # of connection points: 6
#     Node 1, Type 0, BuildingBlock: JUFBIX_clean_sbu_0, # of connection points: 6
#     Node 2, Type 1, BuildingBlock: VETTIZ_charged_linker_0, # of connection points: 3
#     Node 3, Type 1, BuildingBlock: VETTIZ_charged_linker_0, # of connection points: 3
#     Node 4, Type 1, BuildingBlock: VETTIZ_charged_linker_0, # of connection points: 3
#     Node 5, Type 1, BuildingBlock: VETTIZ_charged_linker_0, # of connection points: 3
#     Edge 6, Type (0, 1), BuildingBlock: UVAHIK_clean_linker_0, # of connection points: 2
#     Edge 7, Type (0, 1), BuildingBlock: UVAHIK_clean_linker_0, # of connection points: 2
#     Edge 8, Type (0, 1), BuildingBlock: UVAHIK_clean_linker_0, # of connection points: 2
#     Edge 9, Type (0, 1), BuildingBlock: UVAHIK_clean_linker_0, # of connection points: 2
#     Edge 10, Type (0, 1), BuildingBlock: UVAHIK_clean_linker_0, # of connection points: 2
#     Edge 11, Type (0, 1), BuildingBlock: UVAHIK_clean_linker_0, # of connection points: 2
#     Edge 12, Type (0, 1), BuildingBlock: UVAHIK_clean_linker_0, # of connection points: 2
#     Edge 13, Type (0, 1), BuildingBlock: UVAHIK_clean_linker_0, # of connection points: 2
#     Edge 14, Type (0, 1), BuildingBlock: UVAHIK_clean_linker_0, # of connection points: 2
#     Edge 15, Type (0, 1), BuildingBlock: UVAHIK_clean_linker_0, # of connection points: 2
#     Edge 16, Type (0, 1), BuildingBlock: UVAHIK_clean_linker_0, # of connection points: 2
#     Edge 17, Type (0, 1), BuildingBlock: UVAHIK_clean_linker_0, # of connection points: 2
# Relax obj value: 0.163
# Max RMSD: 0.168
# Mean RMSD: 0.135
data_MOF--net-tsx--node1-JUFBIX_clean_sbu_0--node2-VETTIZ_charged_linker_0--edge1-UVAHIK_clean_linker_0
_symmetry_space_group_name_H-M    P1
_symmetry_Int_Tables_number       1
_symmetry_cell_setting            triclinic
loop_
_symmetry_equiv_pos_as_xyz
'x, y, z'
_cell_length_a     29.050988
_cell_length_b     34.486809
_cell_length_c     54.517689
_cell_angle_alpha  92.297551
_cell_angle_beta   89.712895
_cell_angle_gamma 96.671376
loop_
_atom_site_label
_atom_site_type_symbol
_atom_site_fract_x
_atom_site_fract_y
_atom_site_fract_z
_atom_type_partial_charge
Co0 Co 0.04911 0.98815 0.00192 0.0
C1 C 0.99427 0.00621 0.96254 0.0
Co2 Co 0.99597 0.02741 0.01129 0.0
C3 C 0.10906 0.92542 0.00098 0.0
C4 C 0.12375 0.96625 0.97258 0.0
N5 N 0.09516 0.95799 0.99171 0.0
N6 N 0.14562 0.91354 0.9885 0.0
C7 C 0.15476 0.93918 0.97063 0.0
H8 H 0.0934 0.91127 0.01685 0.0
H9 H 0.12232 0.99065 0.96086 0.0
C10 C 0.05134 0.01038 0.05052 0.0
N11 N 0.95018 0.0576 0.0218 0.0
C12 C 0.93065 0.08541 0.01013 0.0
C13 C 0.9289 0.05559 0.04387 0.0
N14 N 0.89844 0.10096 0.02419 0.0
C15 C 0.89736 0.08231 0.04543 0.0
C16 C 0.96651 0.94728 0.01453 0.0
O17 O 0.07003 0.98845 0.03509 0.0
O18 O 0.01913 0.0293 0.04362 0.0
O19 O 0.95565 0.98179 0.01766 0.0
O20 O 0.00719 0.94238 0.00724 0.0
O21 O 0.9739 0.0257 0.97865 0.0
H22 H 0.93555 0.03566 0.0579 0.0
H23 H 0.94004 0.09424 0.99177 0.0
O24 O 0.02768 0.98803 0.96891 0.0
O25 O 0.09057 0.03493 -0.0033 0.0
O26 O 0.03618 0.07261 0.00492 0.0
C27 C 0.07774 0.06899 -0.00119 0.0
H28 H 0.1818 0.93823 0.95695 0.0
H29 H 0.87454 0.08699 0.06076 0.0
Co30 Co 0.54899 0.49105 0.50199 0.0
C31 C 0.49384 0.50864 0.46261 0.0
Co32 Co 0.49539 0.52988 0.51138 0.0
C33 C 0.60942 0.42866 0.50099 0.0
C34 C 0.62395 0.46967 0.47269 0.0
N35 N 0.59536 0.46121 0.49178 0.0
N36 N 0.64606 0.41696 0.48849 0.0
C37 C 0.6551 0.44272 0.47068 0.0
H38 H 0.59376 0.41435 0.51681 0.0
H39 H 0.62238 0.49409 0.46099 0.0
C40 C 0.55104 0.51326 0.55061 0.0
N41 N 0.44928 0.55974 0.5219 0.0
C42 C 0.4296 0.58752 0.51028 0.0
C43 C 0.428 0.55755 0.54395 0.0
N44 N 0.39732 0.60289 0.52438 0.0
C45 C 0.39633 0.58414 0.54558 0.0
C46 C 0.4667 0.44964 0.51464 0.0
O47 O 0.56998 0.49153 0.53516 0.0
O48 O 0.51859 0.53193 0.54372 0.0
O49 O 0.45549 0.48404 0.51776 0.0
O50 O 0.50746 0.44502 0.50735 0.0
O51 O 0.47328 0.52801 0.47872 0.0
H52 H 0.43479 0.5376 0.55795 0.0
H53 H 0.43898 0.5965 0.49194 0.0
O54 O 0.52748 0.49073 0.469 0.0
O55 O 0.59001 0.53809 0.49673 0.0
O56 O 0.53518 0.57531 0.50501 0.0
C57 C 0.5768 0.57202 0.49887 0.0
H58 H 0.68213 0.44191 0.45698 0.0
H59 H 0.3735 0.5887 0.56092 0.0
C60 C 0.07022 0.90231 0.46175 0.0
C61 C 0.10071 0.878 0.4505 0.0
C62 C 0.11533 0.88463 0.42621 0.0
C63 C 0.06866 0.93791 0.42424 0.0
C64 C 0.05439 0.93203 0.44816 0.0
C65 C 0.02081 0.96027 0.45644 0.0
H66 H 0.91724 0.12179 0.43128 0.0
C67 C 0.0464 0.97061 0.41498 0.0
C68 C 0.01861 0.98451 0.43377 0.0
H69 H 0.90411 0.05796 0.49788 0.0
H70 H 0.95174 0.01026 0.48011 0.0
H71 H 0.0254 0.11516 0.41957 0.0
H72 H 0.89785 0.04766 0.39694 0.0
H73 H 0.93592 0.04451 0.37207 0.0
H74 H 0.91948 0.09155 0.3821 0.0
H75 H 0.98291 0.1329 0.40042 0.0
H76 H 0.02739 0.10609 0.38753 0.0
C77 C 0.04183 0.98473 0.4789 0.0
C78 C 0.97372 0.93635 0.46158 0.0
C79 C 0.07497 0.00738 0.32667 0.0
C80 C 0.05721 0.0345 0.31181 0.0
C81 C 0.02812 0.06054 0.32258 0.0
C82 C 0.01612 0.05886 0.34751 0.0
C83 C 0.03304 0.03067 0.36187 0.0
C84 C 0.06211 0.00573 0.35137 0.0
C85 C 0.07558 0.97675 0.36902 0.0
C86 C 0.04909 0.98791 0.39179 0.0
C87 C 0.02459 0.01962 0.3876 0.0
C88 C 0.12884 0.98439 0.37287 0.0
C89 C 0.05765 0.93517 0.35862 0.0
C90 C 0.92511 0.09777 0.44216 0.0
C91 C 0.90837 0.09414 0.46622 0.0
C92 C 0.91758 0.06164 0.47947 0.0
C93 C 0.94533 0.03422 0.46918 0.0
C94 C 0.96338 0.03922 0.44532 0.0
C95 C 0.95194 0.0701 0.43207 0.0
C96 C 0.97066 0.06964 0.4064 0.0
C97 C 0.99731 0.03451 0.40662 0.0
C98 C 0.99357 0.01681 0.42951 0.0
C99 C 1.00316 0.10798 0.40307 0.0
C100 C 0.9291 0.06328 0.38831 0.0
H101 H 0.11228 0.91754 0.39475 0.0
H102 H 0.05854 0.89789 0.48044 0.0
H103 H 0.96547 0.91304 0.44704 0.0
H104 H 0.94461 0.95421 0.46142 0.0
H105 H 0.9744 0.92196 0.47942 0.0
H106 H 0.07933 0.99402 0.47593 0.0
H107 H 0.0384 0.96742 0.4957 0.0
H108 H 0.02596 0.01192 0.48243 0.0
H109 H 0.09797 0.98731 0.31921 0.0
H110 H 0.01342 0.08149 0.31159 0.0
H111 H 0.99359 0.07922 0.35453 0.0
H112 H 0.14183 0.0157 0.37063 0.0
H113 H 0.14751 0.96692 0.3594 0.0
H114 H 0.13951 0.97838 0.39166 0.0
H115 H 0.02453 0.9353 0.34847 0.0
H116 H 0.04927 0.91386 0.37303 0.0
H117 H 0.08305 0.92388 0.34567 0.0
H118 H 0.13957 0.86695 0.41734 0.0
C119 C 0.09963 0.91432 0.41312 0.0
C120 C 0.07753 0.11804 0.55587 0.0
C121 C 0.1018 0.14895 0.56989 0.0
C122 C 0.09366 0.15202 0.59534 0.0
C123 C 0.03859 0.09383 0.59275 0.0
C124 C 0.04569 0.09105 0.56766 0.0
C125 C 0.0152 0.05715 0.55575 0.0
H126 H 0.8524 0.90116 0.56919 0.0
C127 C 1.00421 0.06116 0.59956 0.0
C128 C 0.98983 0.03968 0.57796 0.0
H129 H 0.91023 0.94551 0.50152 0.0
H130 H 0.95916 0.99668 0.52426 0.0
H131 H 0.94542 0.9078 0.59796 0.0
H132 H 0.83972 0.98491 0.5951 0.0
H133 H 0.85553 0.9826 0.62605 0.0
H134 H 0.83177 0.93866 0.60946 0.0
H135 H 0.89286 0.89965 0.61534 0.0
H136 H 0.94337 0.92966 0.62748 0.0
C137 C 0.04667 0.02875 0.5435 0.0
C138 C 0.98184 0.07343 0.53773 0.0
C139 C 0.9663 0.04071 0.68965 0.0
C140 C 0.93914 0.0109 0.70175 0.0
C141 C 0.91396 0.98044 0.68776 0.0
C142 C 0.91593 0.97954 0.66208 0.0
C143 C 0.94375 0.00923 0.6502 0.0
C144 C 0.96844 0.03907 0.66396 0.0
C145 C 0.99784 0.06702 0.64821 0.0
C146 C 0.98666 0.049 0.62273 0.0
C147 C 0.95472 0.01545 0.62405 0.0
C148 C 0.04928 0.06563 0.65522 0.0
C149 C 0.98077 0.10785 0.65176 0.0
C150 C 0.87539 0.9221 0.55929 0.0
C151 C 0.87801 0.91947 0.53362 0.0
C152 C 0.90863 0.94683 0.52132 0.0
C153 C 0.93647 0.97656 0.53454 0.0
C154 C 0.93342 0.97881 0.56033 0.0
C155 C 0.90319 0.95175 0.57219 0.0
C156 C 0.90433 0.9581 0.59956 0.0
C157 C 0.93928 0.99414 0.60228 0.0
C158 C 0.95655 0.00615 0.57931 0.0
C159 C 0.92206 0.92198 0.61086 0.0
C160 C 0.85535 0.96628 0.60822 0.0
H161 H 0.05801 0.12869 0.62625 0.0
H162 H 0.08272 0.11532 0.53621 0.0
H163 H 0.97371 0.10296 0.54402 0.0
H164 H 0.94783 0.05545 0.53648 0.0
H165 H 0.99722 0.07594 0.51908 0.0
H166 H 0.07553 0.02414 0.556 0.0
H167 H 0.06218 0.04063 0.5263 0.0
H168 H 0.02823 0.99948 0.53928 0.0
H169 H 0.98657 0.06415 0.69999 0.0
H170 H 0.89267 0.95728 0.69675 0.0
H171 H 0.89596 0.95557 0.6525 0.0
H172 H 0.05557 0.03544 0.65959 0.0
H173 H 0.05908 0.08488 0.67164 0.0
H174 H 0.07366 0.07365 0.64019 0.0
H175 H 0.94285 0.10525 0.65547 0.0
H176 H 0.98538 0.12526 0.63516 0.0
H177 H 0.9985 0.12471 0.66749 0.0
H178 H 0.11223 0.17539 0.60651 0.0
C179 C 0.06232 0.12472 0.60681 0.0
C180 C 0.57232 0.40088 0.96114 0.0
C181 C 0.60324 0.37703 0.94984 0.0
C182 C 0.61826 0.38428 0.92569 0.0
C183 C 0.57105 0.43722 0.92391 0.0
C184 C 0.55644 0.43076 0.94771 0.0
C185 C 0.52245 0.45859 0.95608 0.0
H186 H 0.4175 0.6197 0.93165 0.0
C187 C 0.54855 0.46991 0.9148 0.0
C188 C 0.52034 0.48324 0.93358 0.0
H189 H 0.40449 0.5549 -0.00214 0.0
H190 H 0.45279 0.50782 0.97996 0.0
H191 H 0.52582 0.61406 0.92012 0.0
H192 H 0.39905 0.54599 0.89688 0.0
H193 H 0.43742 0.54333 0.8721 0.0
H194 H 0.42045 0.59013 0.88225 0.0
H195 H 0.48324 0.63172 0.90099 0.0
H196 H 0.52817 0.60549 0.88805 0.0
C197 C 0.5429 0.48274 0.97879 0.0
C198 C 0.47547 0.43425 0.96086 0.0
C199 C 0.57739 0.50813 0.82675 0.0
C200 C 0.5593 0.53523 0.81199 0.0
C201 C 0.5298 0.56084 0.82286 0.0
C202 C 0.51772 0.55876 0.84776 0.0
C203 C 0.53494 0.53057 0.862 0.0
C204 C 0.56442 0.50606 0.85143 0.0
C205 C 0.57813 0.47697 0.86895 0.0
C206 C 0.55129 0.48757 0.89172 0.0
C207 C 0.52642 0.51909 0.88765 0.0
C208 C 0.63132 0.48503 0.87295 0.0
C209 C 0.5608 0.43543 0.85829 0.0
C210 C 0.4255 0.59557 0.9424 0.0
C211 C 0.40864 0.5915 0.96641 0.0
C212 C 0.41806 0.55891 0.9795 0.0
C213 C 0.44617 0.53184 0.96912 0.0
C214 C 0.46435 0.53728 0.94531 0.0
C215 C 0.45268 0.56825 0.93221 0.0
C216 C 0.47165 0.56832 0.90659 0.0
C217 C 0.49874 0.53345 0.90668 0.0
C218 C 0.49496 0.51538 0.92945 0.0
C219 C 0.50378 0.60694 0.90354 0.0
C220 C 0.43028 0.56188 0.88838 0.0
H221 H 0.61547 0.41783 0.89449 0.0
H222 H 0.56033 0.396 0.97973 0.0
H223 H 0.46739 0.41154 0.94595 0.0
H224 H 0.44621 0.45197 0.9611 0.0
H225 H 0.47626 0.41908 0.97842 0.0
H226 H 0.58051 0.492 0.97615 0.0
H227 H 0.53893 0.46523 -0.0045 0.0
H228 H 0.52707 0.50996 0.98229 0.0
H229 H 0.6007 0.48838 0.81921 0.0
H230 H 0.51483 0.58176 0.81197 0.0
H231 H 0.49486 0.5788 0.85485 0.0
H232 H 0.64396 0.51646 0.87089 0.0
H233 H 0.65035 0.46792 0.85944 0.0
H234 H 0.64191 0.47888 0.89173 0.0
H235 H 0.52766 0.43539 0.84813 0.0
H236 H 0.55267 0.41382 0.87255 0.0
H237 H 0.58642 0.42461 0.84529 0.0
H238 H 0.64285 0.36696 0.9168 0.0
C239 C 0.6025 0.41412 0.91276 0.0
C240 C 0.57705 0.61599 0.05582 0.0
C241 C 0.60066 0.64733 0.06976 0.0
C242 C 0.59194 0.65079 0.09514 0.0
C243 C 0.5377 0.59206 0.09266 0.0
C244 C 0.54534 0.58892 0.06763 0.0
C245 C 0.51555 0.55456 0.05578 0.0
H246 H 0.35438 0.3975 0.06932 0.0
C247 C 0.50369 0.55918 0.09952 0.0
C248 C 0.49004 0.5372 0.07798 0.0
H249 H 0.41306 0.44127 0.00168 0.0
H250 H 0.46101 0.4931 0.02438 0.0
H251 H 0.44717 0.40542 0.09862 0.0
H252 H 0.34029 0.48125 0.09469 0.0
H253 H 0.3556 0.47943 0.12576 0.0
H254 H 0.3327 0.43516 0.10925 0.0
H255 H 0.39435 0.39695 0.11575 0.0
H256 H 0.44426 0.42762 0.128 0.0
C257 C 0.54773 0.52638 0.04392 0.0
C258 C 0.48221 0.57013 0.03745 0.0
C259 C 0.46467 0.53969 0.18958 0.0
C260 C 0.43782 0.50978 0.20175 0.0
C261 C 0.41327 0.4789 0.18783 0.0
C262 C 0.41558 0.47766 0.16215 0.0
C263 C 0.44312 0.50744 0.1502 0.0
C264 C 0.46717 0.53772 0.1639 0.0
C265 C 0.49639 0.56572 0.14811 0.0
C266 C 0.48591 0.54721 0.12268 0.0
C267 C 0.45443 0.51336 0.12406 0.0
C268 C 0.54783 0.56509 0.15541 0.0
C269 C 0.47854 0.60629 0.15128 0.0
C270 C 0.37739 0.41844 0.05943 0.0
C271 C 0.38047 0.4155 0.03378 0.0
C272 C 0.41108 0.44286 0.02148 0.0
C273 C 0.43836 0.47296 0.03467 0.0
C274 C 0.4348 0.47556 0.06044 0.0
C275 C 0.40467 0.44844 0.07231 0.0
C276 C 0.40526 0.45519 0.09965 0.0
C277 C 0.43969 0.49157 0.10234 0.0
C278 C 0.45722 0.50338 0.07938 0.0
C279 C 0.42334 0.4195 0.11129 0.0
C280 C 0.35595 0.46295 0.108 0.0
H281 H 0.55595 0.62769 0.12602 0.0
H282 H 0.58269 0.61296 0.03622 0.0
H283 H 0.47351 0.59962 0.04347 0.0
H284 H 0.44845 0.55179 0.03615 0.0
H285 H 0.49789 0.5725 0.01886 0.0
H286 H 0.57652 0.52236 0.05661 0.0
H287 H 0.56331 0.5381 0.02669 0.0
H288 H 0.52982 0.49687 0.03984 0.0
H289 H 0.48447 0.56346 0.19986 0.0
H290 H 0.39221 0.45566 0.19687 0.0
H291 H 0.39609 0.45337 0.15263 0.0
H292 H 0.55457 0.53511 0.16 0.0
H293 H 0.55704 0.58467 0.17175 0.0
H294 H 0.57235 0.57319 0.14044 0.0
H295 H 0.44054 0.60329 0.15479 0.0
H296 H 0.48314 0.62347 0.13457 0.0
H297 H 0.49575 0.62359 0.16699 0.0
H298 H 0.60999 0.6745 0.10625 0.0
C299 C 0.56071 0.62342 0.10663 0.0
C300 C 0.09706 0.14158 -0.00068 0.0
C301 C 0.11098 0.10421 -0.00493 0.0
C302 C 0.12862 0.17499 -0.00288 0.0
C303 C 0.25397 0.20793 -0.00069 0.0
H304 H 0.21316 0.30475 0.97873 0.0
C305 C 0.37232 0.35505 0.00641 0.0
C306 C 0.35168 0.38347 0.02037 0.0
C307 C 0.34536 0.32124 -0.00269 0.0
C308 C 0.22513 0.27786 0.98437 0.0
H309 H 0.16882 0.07269 0.98444 0.0
H310 H 0.22395 0.13123 0.98024 0.0
H311 H 0.16154 0.24389 0.97378 0.0
H312 H 0.28697 0.40032 0.03465 0.0
H313 H 0.23971 0.34192 0.01832 0.0
H314 H 0.31732 0.24226 0.01027 0.0
C315 C 0.18869 0.13461 0.98567 0.0
C316 C 0.19551 0.24303 0.98169 0.0
C317 C 0.15704 0.10107 0.98797 0.0
C318 C 0.30352 0.37876 0.02388 0.0
C319 C 0.27655 0.34544 0.01446 0.0
C320 C 0.28378 0.24277 0.00177 0.0
C321 C 0.17495 0.17201 0.99044 0.0
C322 C 0.20895 0.20782 0.98987 0.0
C323 C 0.2973 0.31584 0.00165 0.0
C324 C 0.2691 0.27825 -0.00499 0.0
H325 H 0.06189 0.14512 0.00488 0.0
H326 H 0.1169 0.20316 0.00141 0.0
H327 H 0.26541 0.18152 0.00602 0.0
H328 H 0.4095 0.35805 0.00364 0.0
H329 H 0.36216 0.29891 0.98743 0.0
C330 C 0.14798 0.84489 2e-05 0.0
C331 C 0.17082 0.88089 0.99289 0.0
C332 C 0.17224 0.81205 0.00116 0.0
C333 C 0.27653 0.77569 0.97409 0.0
H334 H 0.26101 0.69683 0.02315 0.0
C335 C 0.40161 0.66142 0.97667 0.0
C336 C 0.38228 0.62224 0.97727 0.0
C337 C 0.37476 0.69152 0.98233 0.0
C338 C 0.2654 0.71854 0.00926 0.0
H339 H 0.23737 0.91158 0.98341 0.0
H340 H 0.27967 0.85506 0.98581 0.0
H341 H 0.21536 0.75259 0.02605 0.0
H342 H 0.32066 0.5836 0.98579 0.0
H343 H 0.27302 0.63671 -0.00436 0.0
H344 H 0.32624 0.74221 0.95726 0.0
C345 C 0.24285 0.85153 0.98969 0.0
C346 C 0.23927 0.75039 0.01089 0.0
C347 C 0.21868 0.884 0.98837 0.0
C348 C 0.33631 0.61364 0.98528 0.0
C349 C 0.30914 0.64398 0.99087 0.0
C350 C 0.30252 0.7442 0.97253 0.0
C351 C 0.21977 0.81484 -0.00468 0.0
C352 C 0.2452 0.7797 0.99351 0.0
C353 C 0.32772 0.68323 0.98854 0.0
C354 C 0.29795 0.71557 0.99028 0.0
H355 H 0.11106 0.84174 0.00356 0.0
H356 H 0.15343 0.78422 0.00555 0.0
H357 H 0.28098 0.79698 0.95994 0.0
H358 H 0.43715 0.66877 0.97081 0.0
H359 H 0.39043 0.72143 0.98094 0.0
C360 C 0.88878 0.92052 0.02993 0.0
C361 C 0.93128 0.91375 0.01911 0.0
C362 C 0.8546 0.88962 0.03397 0.0
C363 C 0.81175 0.78933 0.01382 0.0
H364 H 0.7465 0.79008 0.07603 0.0
C365 C 0.6723 0.66466 0.04467 0.0
C366 C 0.63507 0.67646 0.05852 0.0
C367 C 0.70884 0.69226 0.03774 0.0
C368 C 0.76393 0.78965 0.05842 0.0
H369 H 0.97111 0.86906 0.00391 0.0
H370 H 0.91081 0.81464 0.01102 0.0
H371 H 0.81102 0.83977 0.06889 0.0
H372 H 0.60479 0.72631 0.07422 0.0
H373 H 0.66769 0.77442 0.06172 0.0
H374 H 0.76402 0.73919 0.00335 0.0
C375 C 0.90421 0.84411 0.01628 0.0
C376 C 0.80107 0.81806 0.05439 0.0
C377 C 0.93877 0.87518 0.01236 0.0
C378 C 0.63348 0.71642 0.0639 0.0
C379 C 0.66966 0.74389 0.05687 0.0
C380 C 0.77431 0.76078 0.01785 0.0
C381 C 0.86185 0.85107 0.02724 0.0
C382 C 0.82495 0.81866 0.03193 0.0
C383 C 0.70855 0.73206 0.04447 0.0
C384 C 0.74949 0.76108 0.04008 0.0
H385 H 0.88171 0.94983 0.03531 0.0
H386 H 0.82211 0.89603 0.04213 0.0
H387 H 0.82938 0.7892 -0.00373 0.0
H388 H 0.67437 0.63397 0.04039 0.0
H389 H 0.73829 0.6822 0.0282 0.0
C390 C 0.85188 0.13062 0.99389 0.0
C391 C 0.86932 0.13 0.01778 0.0
C392 C 0.82092 0.15709 0.98818 0.0
C393 C 0.74095 0.22256 0.01751 0.0
H394 H 0.74293 0.26437 0.95253 0.0
C395 C 0.64312 0.35152 0.98562 0.0
C396 C 0.62149 0.34489 0.96259 0.0
C397 C 0.66951 0.32375 0.99479 0.0
C398 C 0.74182 0.25271 0.97072 0.0
H399 H 0.86966 0.15736 0.05422 0.0
H400 H 0.81713 0.20462 0.04415 0.0
H401 H 0.79947 0.22106 0.96308 0.0
H402 H 0.60647 0.3027 0.93231 0.0
H403 H 0.65269 0.25464 0.94817 0.0
H404 H 0.68387 0.25567 0.02513 0.0
C405 C 0.82585 0.18385 0.02995 0.0
C406 C 0.77409 0.22769 0.97676 0.0
C407 C 0.8562 0.15697 0.03572 0.0
C408 C 0.62348 0.30882 0.94991 0.0
C409 C 0.64997 0.28139 0.95893 0.0
C410 C 0.70905 0.24818 0.01154 0.0
C411 C 0.80734 0.18401 0.00616 0.0
C412 C 0.77382 0.21186 0.00014 0.0
C413 C 0.67465 0.28921 0.98095 0.0
C414 C 0.70887 0.26302 0.98798 0.0
H415 H 0.86096 0.10976 0.97983 0.0
H416 H 0.80685 0.15573 0.96978 0.0
H417 H 0.73918 0.21059 0.03559 0.0
H418 H 0.64223 0.37914 -0.00431 0.0
H419 H 0.6882 0.33034 0.01187 0.0
C420 C 0.59549 0.64467 0.49975 0.0
C421 C 0.60965 0.60748 0.4951 0.0
C422 C 0.62668 0.6783 0.4975 0.0
C423 C 0.75194 0.71201 0.49863 0.0
H424 H 0.70933 0.80889 0.47942 0.0
C425 C 0.86925 0.85963 0.50569 0.0
C426 C 0.84892 0.88762 0.52018 0.0
C427 C 0.84221 0.82587 0.49658 0.0
C428 C 0.7218 0.78199 0.48467 0.0
H429 H 0.66751 0.57651 0.48373 0.0
H430 H 0.72197 0.63544 0.47942 0.0
H431 H 0.65809 0.74782 0.47452 0.0
H432 H 0.78455 0.90381 0.53535 0.0
H433 H 0.73714 0.84551 0.519 0.0
H434 H 0.81543 0.74653 0.50914 0.0
C435 C 0.68682 0.63851 0.48521 0.0
C436 C 0.69239 0.74703 0.48202 0.0
C437 C 0.65556 0.60474 0.48758 0.0
C438 C 0.80089 0.88258 0.52419 0.0
C439 C 0.77382 0.84931 0.51475 0.0
C440 C 0.78153 0.74698 0.50105 0.0
C441 C 0.67286 0.67573 0.49037 0.0
C442 C 0.70651 0.71177 0.48973 0.0
C443 C 0.79435 0.8201 0.50143 0.0
C444 C 0.76622 0.78247 0.49479 0.0
H445 H 0.56043 0.6479 0.50566 0.0
H446 H 0.6148 0.70631 0.50211 0.0
H447 H 0.76392 0.68557 0.50497 0.0
H448 H 0.90633 0.86287 0.50253 0.0
H449 H 0.85884 0.80385 0.48629 0.0
C450 C 0.71911 0.38733 0.48803 0.0
C451 C 0.67132 0.38428 0.49277 0.0
C452 C 0.74329 0.35485 0.48927 0.0
C453 C 0.74006 0.25391 0.51073 0.0
H454 H 0.826 0.24516 0.45668 0.0
C455 C 0.83647 0.11678 0.48531 0.0
C456 C 0.88224 0.12516 0.47694 0.0
C457 C 0.80947 0.14725 0.49086 0.0
C458 C 0.80259 0.24731 0.47207 0.0
H459 H 0.61173 0.3452 0.50376 0.0
H460 H 0.65411 0.28769 0.50564 0.0
H461 H 0.78087 0.30001 0.45944 0.0
H462 H 0.93697 0.17149 0.4698 0.0
H463 H 0.89055 0.22437 0.47986 0.0
H464 H 0.76199 0.20045 0.52305 0.0
C465 C 0.67286 0.31548 0.50112 0.0
C466 C 0.77666 0.27885 0.47368 0.0
C467 C 0.64859 0.34833 0.50004 0.0
C468 C 0.90156 0.16429 0.47592 0.0
C469 C 0.87488 0.19452 0.48154 0.0
C470 C 0.76614 0.22202 0.50907 0.0
C471 C 0.72029 0.31821 0.49507 0.0
C472 C 0.74568 0.28305 0.49323 0.0
C473 C 0.82801 0.18642 0.48813 0.0
C474 C 0.79833 0.21884 0.48992 0.0
H475 H 0.73774 0.41487 0.48295 0.0
H476 H 0.78004 0.35833 0.48521 0.0
H477 H 0.71644 0.25626 0.526 0.0
H478 H 0.82081 0.08679 0.48615 0.0
H479 H 0.77348 0.14011 0.49592 0.0
C480 C 0.38938 0.42238 0.53032 0.0
C481 C 0.43178 0.4159 0.51926 0.0
C482 C 0.35545 0.39131 0.53438 0.0
C483 C 0.31267 0.29121 0.51391 0.0
H484 H 0.24846 0.29105 0.57644 0.0
C485 C 0.17316 0.16633 0.54458 0.0
C486 C 0.13621 0.1781 0.55866 0.0
C487 C 0.20976 0.1939 0.53767 0.0
C488 C 0.26561 0.29087 0.55875 0.0
H489 H 0.47167 0.37155 0.50367 0.0
H490 H 0.41178 0.31681 0.51081 0.0
H491 H 0.31287 0.34084 0.5693 0.0
H492 H 0.10645 0.22789 0.57482 0.0
H493 H 0.16942 0.27596 0.56237 0.0
H494 H 0.26472 0.24125 0.50335 0.0
C495 C 0.40509 0.34619 0.51624 0.0
C496 C 0.30268 0.31934 0.55471 0.0
C497 C 0.43942 0.37745 0.51231 0.0
C498 C 0.13493 0.21802 0.56431 0.0
C499 C 0.17115 0.24547 0.55731 0.0
C500 C 0.27528 0.26261 0.51795 0.0
C501 C 0.36284 0.35287 0.52744 0.0
C502 C 0.32616 0.32028 0.53213 0.0
C503 C 0.20979 0.23365 0.54467 0.0
C504 C 0.25081 0.2626 0.54029 0.0
H505 H 0.38221 0.4516 0.53586 0.0
H506 H 0.32304 0.39749 0.54272 0.0
H507 H 0.32999 0.29136 0.49627 0.0
H508 H 0.17498 0.13567 0.5401 0.0
H509 H 0.23901 0.18386 0.52794 0.0
C510 C 0.35517 0.6589 0.53604 0.0
C511 C 0.36812 0.63192 0.51806 0.0
C512 C 0.32473 0.68576 0.53037 0.0
C513 C 0.27209 0.72938 0.47732 0.0
H514 H 0.18265 0.75756 0.52607 0.0
C515 C 0.1205 0.8097 0.45104 0.0
C516 C 0.11901 0.84607 0.46343 0.0
C517 C 0.14717 0.78242 0.46008 0.0
C518 C 0.20761 0.75 0.51238 0.0
H519 H 0.35937 0.61165 0.48014 0.0
H520 H 0.30505 0.65755 0.47026 0.0
H521 H 0.23824 0.71261 0.53636 0.0
H522 H 0.14082 0.88102 0.49611 0.0
H523 H 0.18709 0.83248 0.51235 0.0
H524 H 0.24037 0.76581 0.45317 0.0
C525 C 0.31935 0.65895 0.48862 0.0
C526 C 0.23968 0.72446 0.51825 0.0
C527 C 0.35041 0.63252 0.49422 0.0
C528 C 0.1413 0.85317 0.48626 0.0
C529 C 0.16787 0.82554 0.49546 0.0
C530 C 0.23964 0.75429 0.47139 0.0
C531 C 0.30594 0.68589 0.50665 0.0
C532 C 0.27227 0.71369 0.50073 0.0
C533 C 0.17252 0.7907 0.48186 0.0
C534 C 0.20697 0.76466 0.48879 0.0
H535 H 0.36884 0.6593 0.5545 0.0
H536 H 0.31617 0.70654 0.5446 0.0
H537 H 0.29725 0.72269 0.46354 0.0
H538 H 0.10299 0.80324 0.43359 0.0
H539 H 0.14955 0.75545 0.4495 0.0
C540 C 0.07811 0.9832 0.08925 0.0
C541 C 0.06629 0.01495 0.07631 0.0
C542 C 0.08539 0.98711 0.11467 0.0
C543 C 0.054 0.04987 0.16753 0.0
H544 H 0.13588 0.99201 0.20383 0.0
C545 C 0.07317 0.0692 0.27237 0.0
C546 C 0.06708 0.03422 0.28501 0.0
C547 C 0.07968 0.06848 0.24694 0.0
C548 C 0.11291 0.00833 0.19386 0.0
H549 H 0.05659 0.07631 0.07903 0.0
H550 H 0.0716 0.08377 0.12283 0.0
H551 H 0.13673 0.98804 0.15891 0.0
H552 H 0.06358 0.97102 0.28067 0.0
H553 H 0.07591 0.97002 0.23648 0.0
H554 H 0.03031 0.07021 0.20239 0.0
C555 C 0.07315 0.05535 0.11388 0.0
C556 C 0.11321 0.00594 0.16816 0.0
C557 C 0.06492 0.0512 0.08873 0.0
C558 C 0.06899 0.99861 0.27167 0.0
C559 C 0.07599 0.99795 0.24632 0.0
C560 C 0.05415 0.05262 0.19309 0.0
C561 C 0.08174 0.02306 0.12738 0.0
C562 C 0.08351 0.02653 0.15467 0.0
C563 C 0.08067 0.03281 0.23367 0.0
C564 C 0.08329 0.03167 0.20652 0.0
H565 H 0.07922 0.95493 0.07999 0.0
H566 H 0.09171 0.96155 0.12445 0.0
H567 H 0.0297 0.06533 0.15789 0.0
H568 H 0.07274 0.09716 0.28208 0.0
H569 H 0.08364 0.09582 0.23762 0.0
C570 C 0.95564 0.03476 0.92767 0.0
C571 C 0.98056 0.00562 0.93648 0.0
C572 C 0.94556 0.03558 0.90265 0.0
C573 C 0.93145 0.97524 0.84599 0.0
H574 H 0.9729 0.07033 0.81272 0.0
C575 C 0.94659 0.97684 0.74085 0.0
C576 C 0.93845 0.01064 0.72887 0.0
C577 C 0.94739 0.9767 0.76645 0.0
C578 C 0.96019 0.04375 0.8217 0.0
H579 H 0.01312 0.95382 0.92622 0.0
H580 H 0.9945 0.9548 0.88263 0.0
H581 H 0.98016 0.06898 0.85719 0.0
H582 H 0.92373 0.07053 0.73407 0.0
H583 H 0.92344 0.07005 0.77886 0.0
H584 H 0.91077 0.94997 0.81078 0.0
C585 C 0.98314 0.97711 0.89505 0.0
C586 C 0.96456 0.04301 0.84719 0.0
C587 C 0.99397 0.97668 0.91995 0.0
C588 C 0.93048 0.04419 0.74293 0.0
C589 C 0.93055 0.0439 0.76857 0.0
C590 C 0.92636 0.97612 0.82057 0.0
C591 C 0.9594 0.00684 0.88613 0.0
C592 C 0.95095 0.00856 0.85949 0.0
C593 C 0.93936 0.01021 0.78069 0.0
C594 C 0.94147 0.01018 0.808 0.0
H595 H 0.945 0.0575 0.93998 0.0
H596 H 0.92706 0.05871 0.89618 0.0
H597 H 0.92025 0.94844 0.85513 0.0
H598 H 0.95347 0.95075 0.7304 0.0
H599 H 0.95537 0.95049 0.77501 0.0
C600 C 0.57875 0.48624 0.58919 0.0
C601 C 0.56593 0.51782 0.57642 0.0
C602 C 0.5862 0.49003 0.6146 0.0
C603 C 0.55399 0.55167 0.66787 0.0
H604 H 0.63797 0.49493 0.70355 0.0
C605 C 0.57455 0.57043 0.77267 0.0
C606 C 0.56916 0.53531 0.78518 0.0
C607 C 0.58079 0.57001 0.74723 0.0
C608 C 0.61442 0.51094 0.69375 0.0
H609 H 0.55455 0.5788 0.57945 0.0
H610 H 0.56983 0.58608 0.62323 0.0
H611 H 0.63817 0.49137 0.65862 0.0
H612 H 0.56677 0.47221 0.7806 0.0
H613 H 0.5787 0.47176 0.73639 0.0
H614 H 0.53041 0.57131 0.70292 0.0
C615 C 0.57205 0.55785 0.61416 0.0
C616 C 0.61433 0.50877 0.66805 0.0
C617 C 0.56365 0.55381 0.58902 0.0
C618 C 0.57162 0.49991 0.77171 0.0
C619 C 0.57838 0.49956 0.74634 0.0
C620 C 0.55454 0.55421 0.69345 0.0
C621 C 0.58173 0.52569 0.62748 0.0
C622 C 0.58387 0.52895 0.65478 0.0
C623 C 0.58225 0.53453 0.7338 0.0
C624 C 0.58444 0.53366 0.70665 0.0
H625 H 0.58058 0.45817 0.57981 0.0
H626 H 0.59335 0.46456 0.62425 0.0
H627 H 0.52912 0.56678 0.65842 0.0
H628 H 0.5737 0.59826 0.78248 0.0
H629 H 0.58414 0.59743 0.73799 0.0
C630 C 0.45473 0.53663 0.42767 0.0
C631 C 0.48001 0.50777 0.43656 0.0
C632 C 0.44445 0.53713 0.40266 0.0
C633 C 0.4305 0.47607 0.34626 0.0
H634 H 0.47065 0.57092 0.31245 0.0
C635 C 0.44543 0.47634 0.24108 0.0
C636 C 0.43691 0.50986 0.22889 0.0
C637 C 0.44618 0.47656 0.26668 0.0
C638 C 0.45829 0.5444 0.32158 0.0
H639 H 0.51304 0.45616 0.42643 0.0
H640 H 0.49408 0.45659 0.38286 0.0
H641 H 0.47819 0.57022 0.35694 0.0
H642 H 0.42145 0.56959 0.23375 0.0
H643 H 0.42109 0.56973 0.27855 0.0
H644 H 0.40992 0.4502 0.31118 0.0
C645 C 0.48259 0.47892 0.39521 0.0
C646 C 0.46282 0.54403 0.34708 0.0
C647 C 0.49361 0.47882 0.4201 0.0
C648 C 0.42849 0.54347 0.24276 0.0
C649 C 0.42852 0.54354 0.26842 0.0
C650 C 0.42526 0.47657 0.32082 0.0
C651 C 0.45845 0.50835 0.38622 0.0
C652 C 0.44972 0.50968 0.35957 0.0
C653 C 0.43774 0.51015 0.28074 0.0
C654 C 0.43991 0.51053 0.30806 0.0
H655 H 0.44394 0.55938 0.43993 0.0
H656 H 0.42565 0.56004 0.39613 0.0
H657 H 0.41968 0.44933 0.35554 0.0
H658 H 0.45267 0.45021 0.23078 0.0
H659 H 0.45447 0.45058 0.2754 0.0
loop_
_geom_bond_atom_site_label_1
_geom_bond_atom_site_label_2
_geom_bond_distance
_geom_bond_site_symmetry_2
_ccdc_geom_bond_type
Co0 N5 2.057 . S
Co0 O17 2.021 . S
Co0 O20 2.062 1_455 S
Co0 O24 2.117 1_554 S
Co0 O25 2.020 1_565 S
C1 O21 1.259 1_455 S
C1 O24 1.258 1_545 S
Co2 N11 2.057 . S
Co2 O18 2.117 . S
Co2 O19 2.020 1_545 S
Co2 O21 2.021 1_554 S
Co2 O26 2.062 1_655 S
C3 N5 1.316 . S
C3 N6 1.347 . S
C3 H8 0.931 . S
C4 N5 1.375 1_556 S
C4 C7 1.350 . S
C4 H9 0.930 . S
N5 Co0 2.057 . S
N5 C3 1.316 . S
N5 C4 1.375 1_554 S
N6 C3 1.347 . S
N6 C7 1.373 1_554 S
C7 C4 1.350 . S
C7 N6 1.373 1_556 S
C7 H28 0.931 . S
H8 C3 0.931 . S
H9 C4 0.930 . S
C10 O17 1.259 1_545 S
C10 O18 1.258 1_455 S
N11 Co2 2.057 . S
N11 C12 1.316 . S
N11 C13 1.375 . S
C12 N11 1.316 . S
C12 N14 1.347 . S
C12 H23 0.931 1_554 S
C13 N11 1.375 . S
C13 C15 1.350 . S
C13 H22 0.930 . S
N14 C12 1.347 . S
N14 C15 1.373 . S
C15 C13 1.350 . S
C15 N14 1.373 . S
C15 H29 0.931 . S
C16 O19 1.256 . S
C16 O20 1.255 . S
O17 Co0 2.021 . S
O17 C10 1.259 1_565 S
O18 Co2 2.117 . S
O18 C10 1.258 1_655 S
O19 Co2 2.020 1_565 S
O19 C16 1.256 . S
O20 Co0 2.062 1_655 S
O20 C16 1.255 . S
O21 C1 1.259 1_655 S
O21 Co2 2.021 1_556 S
H22 C13 0.930 . S
H23 C12 0.931 1_556 S
O24 Co0 2.117 1_556 S
O24 C1 1.258 1_565 S
O25 Co0 2.020 1_545 S
O25 C27 1.256 . S
O26 Co2 2.062 1_455 S
O26 C27 1.255 . S
C27 O25 1.256 . S
C27 O26 1.255 . S
H28 C7 0.931 . S
H29 C15 0.931 . S
Co30 N35 2.057 . S
Co30 O47 2.021 . S
Co30 O50 2.062 . S
Co30 O54 2.117 . S
Co30 O55 2.020 . S
C31 O51 1.259 . S
C31 O54 1.258 . S
Co32 N41 2.057 . S
Co32 O48 2.117 . S
Co32 O49 2.020 . S
Co32 O51 2.021 . S
Co32 O56 2.062 . S
C33 N35 1.316 . S
C33 N36 1.347 . S
C33 H38 0.931 . S
C34 N35 1.375 . S
C34 C37 1.350 . S
C34 H39 0.930 . S
N35 Co30 2.057 . S
N35 C33 1.316 . S
N35 C34 1.375 . S
N36 C33 1.347 . S
N36 C37 1.373 . S
C37 C34 1.350 . S
C37 N36 1.373 . S
C37 H58 0.931 . S
H38 C33 0.931 . S
H39 C34 0.930 . S
C40 O47 1.259 . S
C40 O48 1.258 . S
N41 Co32 2.057 . S
N41 C42 1.316 . S
N41 C43 1.375 . S
C42 N41 1.316 . S
C42 N44 1.347 . S
C42 H53 0.931 . S
C43 N41 1.375 . S
C43 C45 1.350 . S
C43 H52 0.930 . S
N44 C42 1.347 . S
N44 C45 1.373 . S
C45 C43 1.350 . S
C45 N44 1.373 . S
C45 H59 0.931 . S
C46 O49 1.256 . S
C46 O50 1.255 . S
O47 Co30 2.021 . S
O47 C40 1.259 . S
O48 Co32 2.117 . S
O48 C40 1.258 . S
O49 Co32 2.020 . S
O49 C46 1.256 . S
O50 Co30 2.062 . S
O50 C46 1.255 . S
O51 C31 1.259 . S
O51 Co32 2.021 . S
H52 C43 0.930 . S
H53 C42 0.931 . S
O54 Co30 2.117 . S
O54 C31 1.258 . S
O55 Co30 2.020 . S
O55 C57 1.256 . S
O56 Co32 2.062 . S
O56 C57 1.255 . S
C57 O55 1.256 . S
C57 O56 1.255 . S
H58 C37 0.931 . S
H59 C45 0.931 . S
C60 C61 1.391 . S
C60 C64 1.391 . S
C60 H102 0.948 . S
C61 C60 1.391 . S
C61 C62 1.391 . S
C62 C61 1.391 . S
C62 H118 0.947 . S
C62 C119 1.392 . S
C63 C64 1.391 . S
C63 C67 1.397 . S
C63 C119 1.419 . S
C64 C60 1.391 . S
C64 C63 1.391 . S
C64 C65 1.399 . S
C65 C64 1.399 . S
C65 C68 1.396 . S
C65 C77 1.453 1_565 S
C65 C78 1.684 1_455 S
H66 C90 0.948 . S
C67 C63 1.397 . S
C67 C68 1.394 . S
C67 C86 1.723 . S
C68 C65 1.396 . S
C68 C67 1.394 . S
C68 C98 1.723 1_465 S
H69 C92 0.947 . S
H70 C93 0.948 . S
H71 C99 0.982 . S
H72 C100 0.979 . S
H73 C100 0.980 . S
H74 C100 0.983 . S
H75 C99 0.979 . S
H76 C99 0.977 . S
C77 C65 1.453 1_545 S
C77 H106 0.982 . S
C77 H107 0.979 1_545 S
C77 H108 0.977 . S
C78 C65 1.684 1_655 S
C78 H103 0.979 . S
C78 H104 0.980 . S
C78 H105 0.983 . S
C79 C80 1.391 1_465 S
C79 C84 1.391 . S
C79 H109 0.948 . S
C80 C79 1.391 1_645 S
C80 C81 1.391 . S
C81 C80 1.391 . S
C81 C82 1.392 . S
C81 H110 0.947 . S
C82 C81 1.392 . S
C82 C83 1.419 . S
C82 H111 0.948 . S
C83 C82 1.419 . S
C83 C84 1.391 1_645 S
C83 C87 1.397 . S
C84 C79 1.391 . S
C84 C83 1.391 1_465 S
C84 C85 1.399 . S
C85 C84 1.399 . S
C85 C86 1.396 . S
C85 C88 1.453 . S
C85 C89 1.684 . S
C86 C67 1.723 . S
C86 C85 1.396 . S
C86 C87 1.394 1_465 S
C87 C83 1.397 . S
C87 C86 1.394 1_645 S
C87 C97 1.723 . S
C88 C85 1.453 . S
C88 H112 0.982 . S
C88 H113 0.979 . S
C88 H114 0.977 . S
C89 C85 1.684 . S
C89 H115 0.979 . S
C89 H116 0.980 . S
C89 H117 0.983 . S
C90 H66 0.948 . S
C90 C91 1.391 . S
C90 C95 1.391 . S
C91 C90 1.391 . S
C91 C92 1.391 . S
C92 H69 0.947 . S
C92 C91 1.391 . S
C92 C93 1.392 . S
C93 H70 0.948 . S
C93 C92 1.392 . S
C93 C94 1.419 . S
C94 C93 1.419 . S
C94 C95 1.391 . S
C94 C98 1.397 . S
C95 C90 1.391 . S
C95 C94 1.391 . S
C95 C96 1.399 . S
C96 C95 1.399 . S
C96 C97 1.396 . S
C96 C99 1.453 . S
C96 C100 1.684 . S
C97 C87 1.723 . S
C97 C96 1.396 . S
C97 C98 1.394 . S
C98 C68 1.723 1_645 S
C98 C94 1.397 . S
C98 C97 1.394 . S
C99 H71 0.982 . S
C99 H75 0.979 . S
C99 H76 0.977 . S
C99 C96 1.453 . S
C100 H72 0.979 . S
C100 H73 0.980 . S
C100 H74 0.983 . S
C100 C96 1.684 . S
H101 C119 0.948 . S
H102 C60 0.948 . S
H103 C78 0.979 . S
H104 C78 0.980 . S
H105 C78 0.983 . S
H106 C77 0.982 . S
H107 C77 0.979 1_565 S
H108 C77 0.977 . S
H109 C79 0.948 . S
H110 C81 0.947 . S
H111 C82 0.948 . S
H112 C88 0.982 . S
H113 C88 0.979 . S
H114 C88 0.977 . S
H115 C89 0.979 . S
H116 C89 0.980 . S
H117 C89 0.983 . S
H118 C62 0.947 . S
C119 C62 1.392 . S
C119 C63 1.419 . S
C119 H101 0.948 . S
C120 C121 1.391 . S
C120 C124 1.391 . S
C120 H162 0.948 . S
C121 C120 1.391 . S
C121 C122 1.391 . S
C122 C121 1.391 . S
C122 H178 0.947 . S
C122 C179 1.392 . S
C123 C124 1.391 . S
C123 C127 1.397 . S
C123 C179 1.419 . S
C124 C120 1.391 . S
C124 C123 1.391 . S
C124 C125 1.399 . S
C125 C124 1.399 . S
C125 C128 1.396 . S
C125 C137 1.453 . S
C125 C138 1.684 1_455 S
H126 C150 0.948 . S
C127 C123 1.397 . S
C127 C128 1.394 . S
C127 C146 1.723 . S
C128 C125 1.396 . S
C128 C127 1.394 . S
C128 C158 1.723 1_445 S
H129 C152 0.947 . S
H130 C153 0.948 . S
H131 C159 0.982 . S
H132 C160 0.979 . S
H133 C160 0.980 . S
H134 C160 0.983 . S
H135 C159 0.979 . S
H136 C159 0.977 . S
C137 C125 1.453 . S
C137 H166 0.982 . S
C137 H167 0.979 . S
C137 H168 0.977 1_545 S
C138 C125 1.684 1_655 S
C138 H163 0.979 . S
C138 H164 0.980 . S
C138 H165 0.983 1_655 S
C139 C140 1.391 1_455 S
C139 C144 1.391 . S
C139 H169 0.948 . S
C140 C139 1.391 1_655 S
C140 C141 1.391 1_545 S
C141 C140 1.391 1_565 S
C141 C142 1.392 . S
C141 H170 0.947 . S
C142 C141 1.392 . S
C142 C143 1.419 1_565 S
C142 H171 0.948 . S
C143 C142 1.419 1_545 S
C143 C144 1.391 1_655 S
C143 C147 1.397 . S
C144 C139 1.391 . S
C144 C143 1.391 1_455 S
C144 C145 1.399 . S
C145 C144 1.399 . S
C145 C146 1.396 . S
C145 C148 1.453 . S
C145 C149 1.684 . S
C146 C127 1.723 . S
C146 C145 1.396 . S
C146 C147 1.394 1_455 S
C147 C143 1.397 . S
C147 C146 1.394 1_655 S
C147 C157 1.723 1_545 S
C148 C145 1.453 . S
C148 H172 0.982 . S
C148 H173 0.979 . S
C148 H174 0.977 . S
C149 C145 1.684 . S
C149 H175 0.979 . S
C149 H176 0.980 . S
C149 H177 0.983 . S
C150 H126 0.948 . S
C150 C151 1.391 . S
C150 C155 1.391 . S
C151 C150 1.391 . S
C151 C152 1.391 . S
C152 H129 0.947 . S
C152 C151 1.391 . S
C152 C153 1.392 . S
C153 H130 0.948 . S
C153 C152 1.392 . S
C153 C154 1.419 . S
C154 C153 1.419 . S
C154 C155 1.391 . S
C154 C158 1.397 . S
C155 C150 1.391 . S
C155 C154 1.391 . S
C155 C156 1.399 . S
C156 C155 1.399 . S
C156 C157 1.396 . S
C156 C159 1.453 . S
C156 C160 1.684 . S
C157 C147 1.723 1_565 S
C157 C156 1.396 . S
C157 C158 1.394 . S
C158 C128 1.723 1_665 S
C158 C154 1.397 . S
C158 C157 1.394 . S
C159 H131 0.982 . S
C159 H135 0.979 . S
C159 H136 0.977 . S
C159 C156 1.453 . S
C160 H132 0.979 . S
C160 H133 0.980 . S
C160 H134 0.983 . S
C160 C156 1.684 . S
H161 C179 0.948 . S
H162 C120 0.948 . S
H163 C138 0.979 . S
H164 C138 0.980 . S
H165 C138 0.983 1_455 S
H166 C137 0.982 . S
H167 C137 0.979 . S
H168 C137 0.977 1_565 S
H169 C139 0.948 . S
H170 C141 0.947 . S
H171 C142 0.948 . S
H172 C148 0.982 . S
H173 C148 0.979 . S
H174 C148 0.977 . S
H175 C149 0.979 . S
H176 C149 0.980 . S
H177 C149 0.983 . S
H178 C122 0.947 . S
C179 C122 1.392 . S
C179 C123 1.419 . S
C179 H161 0.948 . S
C180 C181 1.391 . S
C180 C184 1.391 . S
C180 H222 0.948 . S
C181 C180 1.391 . S
C181 C182 1.391 . S
C182 C181 1.391 . S
C182 H238 0.947 . S
C182 C239 1.392 . S
C183 C184 1.391 . S
C183 C187 1.397 . S
C183 C239 1.419 . S
C184 C180 1.391 . S
C184 C183 1.391 . S
C184 C185 1.399 . S
C185 C184 1.399 . S
C185 C188 1.396 . S
C185 C197 1.453 . S
C185 C198 1.684 . S
H186 C210 0.948 . S
C187 C183 1.397 . S
C187 C188 1.394 . S
C187 C206 1.723 . S
C188 C185 1.396 . S
C188 C187 1.394 . S
C188 C218 1.723 . S
H189 C212 0.947 1_554 S
H190 C213 0.948 . S
H191 C219 0.982 . S
H192 C220 0.979 . S
H193 C220 0.980 . S
H194 C220 0.983 . S
H195 C219 0.979 . S
H196 C219 0.977 . S
C197 C185 1.453 . S
C197 H226 0.982 . S
C197 H227 0.979 1_556 S
C197 H228 0.977 . S
C198 C185 1.684 . S
C198 H223 0.979 . S
C198 H224 0.982 . S
C198 H225 0.983 1_556 S
C199 C200 1.391 . S
C199 C204 1.391 . S
C199 H229 0.948 . S
C200 C199 1.391 . S
C200 C201 1.391 . S
C201 C200 1.391 . S
C201 C202 1.392 . S
C201 H230 0.947 . S
C202 C201 1.392 . S
C202 C203 1.419 . S
C202 H231 0.948 . S
C203 C202 1.419 . S
C203 C204 1.391 . S
C203 C207 1.397 . S
C204 C199 1.391 . S
C204 C203 1.391 . S
C204 C205 1.399 . S
C205 C204 1.399 . S
C205 C206 1.396 . S
C205 C208 1.453 . S
C205 C209 1.684 . S
C206 C187 1.723 . S
C206 C205 1.396 . S
C206 C207 1.394 . S
C207 C203 1.397 . S
C207 C206 1.394 . S
C207 C217 1.723 . S
C208 C205 1.453 . S
C208 H232 0.982 . S
C208 H233 0.979 . S
C208 H234 0.977 . S
C209 C205 1.684 . S
C209 H235 0.979 . S
C209 H236 0.980 . S
C209 H237 0.983 . S
C210 H186 0.948 . S
C210 C211 1.391 . S
C210 C215 1.391 . S
C211 C210 1.391 . S
C211 C212 1.391 . S
C212 H189 0.947 1_556 S
C212 C211 1.391 . S
C212 C213 1.392 . S
C213 H190 0.948 . S
C213 C212 1.392 . S
C213 C214 1.419 . S
C214 C213 1.419 . S
C214 C215 1.391 . S
C214 C218 1.397 . S
C215 C210 1.391 . S
C215 C214 1.391 . S
C215 C216 1.399 . S
C216 C215 1.399 . S
C216 C217 1.396 . S
C216 C219 1.453 . S
C216 C220 1.684 . S
C217 C207 1.723 . S
C217 C216 1.396 . S
C217 C218 1.394 . S
C218 C188 1.723 . S
C218 C214 1.397 . S
C218 C217 1.394 . S
C219 H191 0.982 . S
C219 H195 0.979 . S
C219 H196 0.977 . S
C219 C216 1.453 . S
C220 H192 0.979 . S
C220 H193 0.980 . S
C220 H194 0.983 . S
C220 C216 1.684 . S
H221 C239 0.948 . S
H222 C180 0.948 . S
H223 C198 0.979 . S
H224 C198 0.982 . S
H225 C198 0.983 1_554 S
H226 C197 0.982 . S
H227 C197 0.979 1_554 S
H228 C197 0.977 . S
H229 C199 0.948 . S
H230 C201 0.947 . S
H231 C202 0.948 . S
H232 C208 0.982 . S
H233 C208 0.979 . S
H234 C208 0.977 . S
H235 C209 0.979 . S
H236 C209 0.980 . S
H237 C209 0.983 . S
H238 C182 0.947 . S
C239 C182 1.392 . S
C239 C183 1.419 . S
C239 H221 0.948 . S
C240 C241 1.391 . S
C240 C244 1.391 . S
C240 H282 0.948 . S
C241 C240 1.391 . S
C241 C242 1.391 . S
C242 C241 1.391 . S
C242 H298 0.947 . S
C242 C299 1.392 . S
C243 C244 1.391 . S
C243 C247 1.397 . S
C243 C299 1.419 . S
C244 C240 1.391 . S
C244 C243 1.391 . S
C244 C245 1.399 . S
C245 C244 1.399 . S
C245 C248 1.396 . S
C245 C257 1.453 . S
C245 C258 1.684 . S
H246 C270 0.948 . S
C247 C243 1.397 . S
C247 C248 1.394 . S
C247 C266 1.723 . S
C248 C245 1.396 . S
C248 C247 1.394 . S
C248 C278 1.723 . S
H249 C272 0.947 . S
H250 C273 0.948 . S
H251 C279 0.982 . S
H252 C280 0.979 . S
H253 C280 0.980 . S
H254 C280 0.983 . S
H255 C279 0.979 . S
H256 C279 0.977 . S
C257 C245 1.453 . S
C257 H286 0.982 . S
C257 H287 0.979 . S
C257 H288 0.977 . S
C258 C245 1.684 . S
C258 H283 0.979 . S
C258 H284 0.980 . S
C258 H285 0.983 . S
C259 C260 1.391 . S
C259 C264 1.391 . S
C259 H289 0.948 . S
C260 C259 1.391 . S
C260 C261 1.391 . S
C261 C260 1.391 . S
C261 C262 1.392 . S
C261 H290 0.947 . S
C262 C261 1.392 . S
C262 C263 1.419 . S
C262 H291 0.948 . S
C263 C262 1.419 . S
C263 C264 1.391 . S
C263 C267 1.397 . S
C264 C259 1.391 . S
C264 C263 1.391 . S
C264 C265 1.399 . S
C265 C264 1.399 . S
C265 C266 1.396 . S
C265 C268 1.453 . S
C265 C269 1.684 . S
C266 C247 1.723 . S
C266 C265 1.396 . S
C266 C267 1.394 . S
C267 C263 1.397 . S
C267 C266 1.394 . S
C267 C277 1.723 . S
C268 C265 1.453 . S
C268 H292 0.982 . S
C268 H293 0.979 . S
C268 H294 0.977 . S
C269 C265 1.684 . S
C269 H295 0.979 . S
C269 H296 0.980 . S
C269 H297 0.983 . S
C270 H246 0.948 . S
C270 C271 1.391 . S
C270 C275 1.391 . S
C271 C270 1.391 . S
C271 C272 1.391 . S
C272 H249 0.947 . S
C272 C271 1.391 . S
C272 C273 1.392 . S
C273 H250 0.948 . S
C273 C272 1.392 . S
C273 C274 1.419 . S
C274 C273 1.419 . S
C274 C275 1.391 . S
C274 C278 1.397 . S
C275 C270 1.391 . S
C275 C274 1.391 . S
C275 C276 1.399 . S
C276 C275 1.399 . S
C276 C277 1.396 . S
C276 C279 1.453 . S
C276 C280 1.684 . S
C277 C267 1.723 . S
C277 C276 1.396 . S
C277 C278 1.394 . S
C278 C248 1.723 . S
C278 C274 1.397 . S
C278 C277 1.394 . S
C279 H251 0.982 . S
C279 H255 0.979 . S
C279 H256 0.977 . S
C279 C276 1.453 . S
C280 H252 0.979 . S
C280 H253 0.980 . S
C280 H254 0.983 . S
C280 C276 1.684 . S
H281 C299 0.948 . S
H282 C240 0.948 . S
H283 C258 0.979 . S
H284 C258 0.980 . S
H285 C258 0.983 . S
H286 C257 0.982 . S
H287 C257 0.979 . S
H288 C257 0.977 . S
H289 C259 0.948 . S
H290 C261 0.947 . S
H291 C262 0.948 . S
H292 C268 0.982 . S
H293 C268 0.979 . S
H294 C268 0.977 . S
H295 C269 0.979 . S
H296 C269 0.980 . S
H297 C269 0.983 . S
H298 C242 0.947 . S
C299 C242 1.392 . S
C299 C243 1.419 . S
C299 H281 0.948 . S
C300 C301 1.349 1_556 S
C300 C302 1.327 . S
C300 H325 0.950 . S
C301 C300 1.349 1_554 S
C301 C317 1.349 . S
C302 C300 1.327 . S
C302 C321 1.429 1_556 S
C302 H326 0.950 . S
C303 C320 1.574 . S
C303 C322 1.368 . S
C303 H327 0.949 . S
H304 C308 0.949 1_556 S
C305 C306 1.349 . S
C305 C307 1.327 . S
C305 H328 0.950 . S
C306 C305 1.349 . S
C306 C318 1.349 . S
C307 C305 1.327 . S
C307 C323 1.429 . S
C307 H329 0.950 . S
C308 H304 0.949 1_554 S
C308 C316 1.574 . S
C308 C324 1.368 . S
H309 C317 0.950 . S
H310 C315 0.950 . S
H311 C316 0.949 1_556 S
H312 C318 0.950 . S
H313 C319 0.950 1_556 S
H314 C320 0.949 . S
C315 H310 0.950 . S
C315 C317 1.327 . S
C315 C321 1.429 . S
C316 C308 1.574 . S
C316 H311 0.949 1_554 S
C316 C322 1.368 . S
C317 C301 1.349 . S
C317 H309 0.950 . S
C317 C315 1.327 . S
C318 C306 1.349 . S
C318 H312 0.950 . S
C318 C319 1.327 . S
C319 H313 0.950 1_554 S
C319 C318 1.327 . S
C319 C323 1.429 . S
C320 C303 1.574 . S
C320 H314 0.949 . S
C320 C324 1.368 . S
C321 C302 1.429 1_554 S
C321 C315 1.429 . S
C321 C322 1.523 . S
C322 C303 1.368 . S
C322 C316 1.368 . S
C322 C321 1.523 . S
C323 C307 1.429 . S
C323 C319 1.429 . S
C323 C324 1.523 . S
C324 C308 1.368 . S
C324 C320 1.368 . S
C324 C323 1.523 . S
H325 C300 0.950 . S
H326 C302 0.950 . S
H327 C303 0.949 . S
H328 C305 0.950 . S
H329 C307 0.950 . S
C330 C331 1.349 . S
C330 C332 1.327 . S
C330 H355 0.950 . S
C331 C330 1.349 . S
C331 C347 1.349 1_554 S
C332 C330 1.327 . S
C332 C351 1.429 . S
C332 H356 0.950 . S
C333 C350 1.574 . S
C333 C352 1.368 1_556 S
C333 H357 0.949 . S
H334 C338 0.949 . S
C335 C336 1.349 . S
C335 C337 1.327 . S
C335 H358 0.950 . S
C336 C335 1.349 . S
C336 C348 1.337 1_556 S
C337 C335 1.327 . S
C337 C353 1.429 . S
C337 H359 0.950 . S
C338 H334 0.949 . S
C338 C346 1.574 . S
C338 C354 1.368 1_554 S
H339 C347 0.950 . S
H340 C345 0.950 . S
H341 C346 0.949 . S
H342 C348 0.960 . S
H343 C349 0.950 . S
H344 C350 0.949 . S
C345 H340 0.950 . S
C345 C347 1.327 . S
C345 C351 1.429 1_556 S
C346 C338 1.574 . S
C346 H341 0.949 . S
C346 C352 1.368 . S
C347 C331 1.349 1_556 S
C347 H339 0.950 . S
C347 C345 1.327 . S
C348 C336 1.337 1_554 S
C348 H342 0.960 . S
C348 C349 1.329 . S
C349 H343 0.950 . S
C349 C348 1.329 . S
C349 C353 1.429 1_554 S
C350 C333 1.574 . S
C350 H344 0.949 . S
C350 C354 1.368 . S
C351 C332 1.429 . S
C351 C345 1.429 1_554 S
C351 C352 1.523 . S
C352 C333 1.368 1_554 S
C352 C346 1.368 . S
C352 C351 1.523 . S
C353 C337 1.429 . S
C353 C349 1.429 1_556 S
C353 C354 1.523 . S
C354 C338 1.368 1_556 S
C354 C350 1.368 . S
C354 C353 1.523 . S
H355 C330 0.950 . S
H356 C332 0.950 . S
H357 C333 0.949 . S
H358 C335 0.950 . S
H359 C337 0.950 . S
C360 C361 1.349 . S
C360 C362 1.327 . S
C360 H385 0.950 . S
C361 C360 1.349 . S
C361 C377 1.349 1_554 S
C362 C360 1.327 . S
C362 C381 1.429 . S
C362 H386 0.950 . S
C363 C380 1.574 . S
C363 C382 1.368 . S
C363 H387 0.949 1_554 S
H364 C368 0.949 . S
C365 C366 1.349 . S
C365 C367 1.327 . S
C365 H388 0.950 . S
C366 C365 1.349 . S
C366 C378 1.349 . S
C367 C365 1.327 . S
C367 C383 1.429 . S
C367 H389 0.950 . S
C368 H364 0.949 . S
C368 C376 1.574 . S
C368 C384 1.368 . S
H369 C377 0.950 . S
H370 C375 0.944 1_556 S
H371 C376 0.949 . S
H372 C378 0.950 . S
H373 C379 0.950 . S
H374 C380 0.949 1_556 S
C375 H370 0.944 1_554 S
C375 C377 1.326 1_554 S
C375 C381 1.435 . S
C376 C368 1.574 . S
C376 H371 0.949 . S
C376 C382 1.368 . S
C377 C361 1.349 1_556 S
C377 H369 0.950 . S
C377 C375 1.326 1_556 S
C378 C366 1.349 . S
C378 H372 0.950 . S
C378 C379 1.327 . S
C379 H373 0.950 . S
C379 C378 1.327 . S
C379 C383 1.429 . S
C380 C363 1.574 . S
C380 H374 0.949 1_554 S
C380 C384 1.368 . S
C381 C362 1.429 . S
C381 C375 1.435 . S
C381 C382 1.523 . S
C382 C363 1.368 . S
C382 C376 1.368 . S
C382 C381 1.523 . S
C383 C367 1.429 . S
C383 C379 1.429 . S
C383 C384 1.523 . S
C384 C368 1.368 . S
C384 C380 1.368 . S
C384 C383 1.523 . S
H385 C360 0.950 . S
H386 C362 0.950 . S
H387 C363 0.949 1_556 S
H388 C365 0.950 . S
H389 C367 0.950 . S
C390 C391 1.349 1_556 S
C390 C392 1.327 . S
C390 H415 0.950 . S
C391 C390 1.349 1_554 S
C391 C407 1.349 . S
C392 C390 1.327 . S
C392 C411 1.429 1_556 S
C392 H416 0.950 . S
C393 C410 1.574 . S
C393 C412 1.346 1_554 S
C393 H417 0.949 . S
H394 C398 0.949 . S
C395 C396 1.349 1_554 S
C395 C397 1.327 . S
C395 H418 0.950 . S
C396 C395 1.349 1_556 S
C396 C408 1.349 . S
C397 C395 1.327 . S
C397 C413 1.429 1_554 S
C397 H419 0.950 . S
C398 H394 0.949 . S
C398 C406 1.574 . S
C398 C414 1.368 . S
H399 C407 0.950 . S
H400 C405 0.950 . S
H401 C406 0.949 . S
H402 C408 0.950 . S
H403 C409 0.950 . S
H404 C410 0.949 . S
C405 H400 0.950 . S
C405 C407 1.327 . S
C405 C411 1.429 . S
C406 C398 1.574 . S
C406 H401 0.949 . S
C406 C412 1.396 . S
C407 C391 1.349 . S
C407 H399 0.950 . S
C407 C405 1.327 . S
C408 C396 1.349 . S
C408 H402 0.950 . S
C408 C409 1.327 . S
C409 H403 0.950 . S
C409 C408 1.327 . S
C409 C413 1.429 . S
C410 C393 1.574 . S
C410 H404 0.949 . S
C410 C414 1.368 1_554 S
C411 C392 1.429 1_554 S
C411 C405 1.429 . S
C411 C412 1.517 1_554 S
C412 C393 1.346 1_556 S
C412 C406 1.396 . S
C412 C411 1.517 1_556 S
C413 C397 1.429 1_556 S
C413 C409 1.429 . S
C413 C414 1.523 . S
C414 C398 1.368 . S
C414 C410 1.368 1_556 S
C414 C413 1.523 . S
H415 C390 0.950 . S
H416 C392 0.950 . S
H417 C393 0.949 . S
H418 C395 0.950 . S
H419 C397 0.950 . S
C420 C421 1.349 . S
C420 C422 1.327 . S
C420 H445 0.950 . S
C421 C420 1.349 . S
C421 C437 1.349 . S
C422 C420 1.327 . S
C422 C441 1.429 . S
C422 H446 0.950 . S
C423 C440 1.574 . S
C423 C442 1.368 . S
C423 H447 0.949 . S
H424 C428 0.949 . S
C425 C426 1.349 . S
C425 C427 1.327 . S
C425 H448 0.950 . S
C426 C425 1.349 . S
C426 C438 1.349 . S
C427 C425 1.327 . S
C427 C443 1.429 . S
C427 H449 0.950 . S
C428 H424 0.949 . S
C428 C436 1.574 . S
C428 C444 1.368 . S
H429 C437 0.950 . S
H430 C435 0.950 . S
H431 C436 0.949 . S
H432 C438 0.950 . S
H433 C439 0.950 . S
H434 C440 0.949 . S
C435 H430 0.950 . S
C435 C437 1.327 . S
C435 C441 1.429 . S
C436 C428 1.574 . S
C436 H431 0.949 . S
C436 C442 1.368 . S
C437 C421 1.349 . S
C437 H429 0.950 . S
C437 C435 1.327 . S
C438 C426 1.349 . S
C438 H432 0.950 . S
C438 C439 1.327 . S
C439 H433 0.950 . S
C439 C438 1.327 . S
C439 C443 1.429 . S
C440 C423 1.574 . S
C440 H434 0.949 . S
C440 C444 1.368 . S
C441 C422 1.429 . S
C441 C435 1.429 . S
C441 C442 1.523 . S
C442 C423 1.368 . S
C442 C436 1.368 . S
C442 C441 1.523 . S
C443 C427 1.429 . S
C443 C439 1.429 . S
C443 C444 1.523 . S
C444 C428 1.368 . S
C444 C440 1.368 . S
C444 C443 1.523 . S
H445 C420 0.950 . S
H446 C422 0.950 . S
H447 C423 0.949 . S
H448 C425 0.950 . S
H449 C427 0.950 . S
C450 C451 1.349 . S
C450 C452 1.327 . S
C450 H475 0.950 . S
C451 C450 1.349 . S
C451 C467 1.349 . S
C452 C450 1.327 . S
C452 C471 1.429 . S
C452 H476 0.950 . S
C453 C470 1.574 . S
C453 C472 1.368 . S
C453 H477 0.949 . S
H454 C458 0.949 . S
C455 C456 1.349 . S
C455 C457 1.327 . S
C455 H478 0.950 . S
C456 C455 1.349 . S
C456 C468 1.349 . S
C457 C455 1.327 . S
C457 C473 1.429 . S
C457 H479 0.950 . S
C458 H454 0.949 . S
C458 C466 1.574 . S
C458 C474 1.368 . S
H459 C467 0.950 . S
H460 C465 0.950 . S
H461 C466 0.949 . S
H462 C468 0.950 . S
H463 C469 0.950 . S
H464 C470 0.949 . S
C465 H460 0.950 . S
C465 C467 1.327 . S
C465 C471 1.429 . S
C466 C458 1.574 . S
C466 H461 0.949 . S
C466 C472 1.368 . S
C467 C451 1.349 . S
C467 H459 0.950 . S
C467 C465 1.327 . S
C468 C456 1.349 . S
C468 H462 0.950 . S
C468 C469 1.327 . S
C469 H463 0.950 . S
C469 C468 1.327 . S
C469 C473 1.429 . S
C470 C453 1.574 . S
C470 H464 0.949 . S
C470 C474 1.368 . S
C471 C452 1.429 . S
C471 C465 1.429 . S
C471 C472 1.523 . S
C472 C453 1.368 . S
C472 C466 1.368 . S
C472 C471 1.523 . S
C473 C457 1.429 . S
C473 C469 1.429 . S
C473 C474 1.523 . S
C474 C458 1.368 . S
C474 C470 1.368 . S
C474 C473 1.523 . S
H475 C450 0.950 . S
H476 C452 0.950 . S
H477 C453 0.949 . S
H478 C455 0.950 . S
H479 C457 0.950 . S
C480 C481 1.349 . S
C480 C482 1.327 . S
C480 H505 0.950 . S
C481 C480 1.349 . S
C481 C497 1.349 . S
C482 C480 1.327 . S
C482 C501 1.429 . S
C482 H506 0.950 . S
C483 C500 1.574 . S
C483 C502 1.368 . S
C483 H507 0.949 . S
H484 C488 0.949 . S
C485 C486 1.349 . S
C485 C487 1.327 . S
C485 H508 0.950 . S
C486 C485 1.349 . S
C486 C498 1.349 . S
C487 C485 1.327 . S
C487 C503 1.429 . S
C487 H509 0.950 . S
C488 H484 0.949 . S
C488 C496 1.574 . S
C488 C504 1.368 . S
H489 C497 0.950 . S
H490 C495 0.950 . S
H491 C496 0.949 . S
H492 C498 0.950 . S
H493 C499 0.950 . S
H494 C500 0.949 . S
C495 H490 0.950 . S
C495 C497 1.327 . S
C495 C501 1.429 . S
C496 C488 1.574 . S
C496 H491 0.949 . S
C496 C502 1.368 . S
C497 C481 1.349 . S
C497 H489 0.950 . S
C497 C495 1.327 . S
C498 C486 1.349 . S
C498 H492 0.950 . S
C498 C499 1.327 . S
C499 H493 0.950 . S
C499 C498 1.327 . S
C499 C503 1.429 . S
C500 C483 1.574 . S
C500 H494 0.949 . S
C500 C504 1.368 . S
C501 C482 1.429 . S
C501 C495 1.429 . S
C501 C502 1.523 . S
C502 C483 1.368 . S
C502 C496 1.368 . S
C502 C501 1.523 . S
C503 C487 1.429 . S
C503 C499 1.429 . S
C503 C504 1.523 . S
C504 C488 1.368 . S
C504 C500 1.368 . S
C504 C503 1.523 . S
H505 C480 0.950 . S
H506 C482 0.950 . S
H507 C483 0.949 . S
H508 C485 0.950 . S
H509 C487 0.950 . S
C510 C511 1.349 . S
C510 C512 1.327 . S
C510 H535 0.950 . S
C511 C510 1.349 . S
C511 C527 1.349 . S
C512 C510 1.327 . S
C512 C531 1.429 . S
C512 H536 0.950 . S
C513 C530 1.574 . S
C513 C532 1.368 . S
C513 H537 0.949 . S
H514 C518 0.949 . S
C515 C516 1.349 . S
C515 C517 1.327 . S
C515 H538 0.950 . S
C516 C515 1.349 . S
C516 C528 1.349 . S
C517 C515 1.327 . S
C517 C533 1.429 . S
C517 H539 0.950 . S
C518 H514 0.949 . S
C518 C526 1.574 . S
C518 C534 1.368 . S
H519 C527 0.950 . S
H520 C525 0.950 . S
H521 C526 0.949 . S
H522 C528 0.950 . S
H523 C529 0.950 . S
H524 C530 0.949 . S
C525 H520 0.950 . S
C525 C527 1.327 . S
C525 C531 1.429 . S
C526 C518 1.574 . S
C526 H521 0.949 . S
C526 C532 1.368 . S
C527 C511 1.349 . S
C527 H519 0.950 . S
C527 C525 1.327 . S
C528 C516 1.349 . S
C528 H522 0.950 . S
C528 C529 1.327 . S
C529 H523 0.950 . S
C529 C528 1.327 . S
C529 C533 1.429 . S
C530 C513 1.574 . S
C530 H524 0.949 . S
C530 C534 1.368 . S
C531 C512 1.429 . S
C531 C525 1.429 . S
C531 C532 1.523 . S
C532 C513 1.368 . S
C532 C526 1.368 . S
C532 C531 1.523 . S
C533 C517 1.429 . S
C533 C529 1.429 . S
C533 C534 1.523 . S
C534 C518 1.368 . S
C534 C530 1.368 . S
C534 C533 1.523 . S
H535 C510 0.950 . S
H536 C512 0.950 . S
H537 C513 0.949 . S
H538 C515 0.950 . S
H539 C517 0.950 . S
C540 C541 1.349 1_565 S
C540 C542 1.327 . S
C540 H565 0.950 . S
C541 C540 1.349 1_545 S
C541 C557 1.349 1_455 S
C542 C540 1.327 . S
C542 C561 1.429 1_565 S
C542 H566 0.950 . S
C543 C560 1.574 . S
C543 C562 1.368 1_655 S
C543 H567 0.949 . S
H544 C548 0.949 . S
C545 C546 1.345 1_645 S
C545 C547 1.327 . S
C545 H568 0.950 . S
C546 C545 1.345 1_465 S
C546 C558 1.352 . S
C547 C545 1.327 . S
C547 C563 1.429 1_655 S
C547 H569 0.950 . S
C548 H544 0.949 . S
C548 C556 1.574 . S
C548 C564 1.368 1_565 S
H549 C557 0.950 . S
H550 C555 0.950 . S
H551 C556 0.949 . S
H552 C558 0.950 . S
H553 C559 0.950 . S
H554 C560 0.949 . S
C555 H550 0.950 . S
C555 C557 1.327 . S
C555 C561 1.429 1_655 S
C556 C548 1.574 . S
C556 H551 0.949 . S
C556 C562 1.368 1_565 S
C557 C541 1.349 1_655 S
C557 H549 0.950 . S
C557 C555 1.327 . S
C558 C546 1.352 . S
C558 H552 0.950 . S
C558 C559 1.327 . S
C559 H553 0.950 . S
C559 C558 1.327 . S
C559 C563 1.429 1_565 S
C560 C543 1.574 . S
C560 H554 0.949 . S
C560 C564 1.368 1_655 S
C561 C542 1.429 1_545 S
C561 C555 1.429 1_455 S
C561 C562 1.523 . S
C562 C543 1.368 1_455 S
C562 C556 1.368 1_545 S
C562 C561 1.523 . S
C563 C547 1.429 1_455 S
C563 C559 1.429 1_545 S
C563 C564 1.523 . S
C564 C548 1.368 1_545 S
C564 C560 1.368 1_455 S
C564 C563 1.523 . S
H565 C540 0.950 . S
H566 C542 0.950 . S
H567 C543 0.949 . S
H568 C545 0.950 . S
H569 C547 0.950 . S
C570 C571 1.349 . S
C570 C572 1.327 . S
C570 H595 0.950 . S
C571 C570 1.349 . S
C571 C587 1.349 1_445 S
C572 C570 1.327 . S
C572 C591 1.429 . S
C572 H596 0.950 . S
C573 C590 1.574 . S
C573 C592 1.368 1_665 S
C573 H597 0.949 . S
H574 C578 0.949 . S
C575 C576 1.349 1_665 S
C575 C577 1.327 . S
C575 H598 0.950 . S
C576 C575 1.349 1_445 S
C576 C588 1.349 . S
C577 C575 1.327 . S
C577 C593 1.429 1_665 S
C577 H599 0.950 . S
C578 H574 0.949 . S
C578 C586 1.574 . S
C578 C594 1.368 . S
H579 C587 0.950 . S
H580 C585 0.950 . S
H581 C586 0.949 . S
H582 C588 0.950 . S
H583 C589 0.950 . S
H584 C590 0.949 . S
C585 H580 0.950 . S
C585 C587 1.327 . S
C585 C591 1.429 1_665 S
C586 C578 1.574 . S
C586 H581 0.949 . S
C586 C592 1.368 . S
C587 C571 1.349 1_665 S
C587 H579 0.950 . S
C587 C585 1.327 . S
C588 C576 1.349 . S
C588 H582 0.950 . S
C588 C589 1.327 . S
C589 H583 0.950 . S
C589 C588 1.327 . S
C589 C593 1.429 . S
C590 C573 1.574 . S
C590 H584 0.949 . S
C590 C594 1.368 1_665 S
C591 C572 1.429 . S
C591 C585 1.429 1_445 S
C591 C592 1.523 . S
C592 C573 1.368 1_445 S
C592 C586 1.368 . S
C592 C591 1.523 . S
C593 C577 1.429 1_445 S
C593 C589 1.429 . S
C593 C594 1.523 . S
C594 C578 1.368 . S
C594 C590 1.368 1_445 S
C594 C593 1.523 . S
H595 C570 0.950 . S
H596 C572 0.950 . S
H597 C573 0.949 . S
H598 C575 0.950 . S
H599 C577 0.950 . S
C600 C601 1.349 . S
C600 C602 1.327 . S
C600 H625 0.950 . S
C601 C600 1.349 . S
C601 C617 1.349 . S
C602 C600 1.327 . S
C602 C621 1.429 . S
C602 H626 0.950 . S
C603 C620 1.574 . S
C603 C622 1.368 . S
C603 H627 0.949 . S
H604 C608 0.949 . S
C605 C606 1.349 . S
C605 C607 1.327 . S
C605 H628 0.950 . S
C606 C605 1.349 . S
C606 C618 1.349 . S
C607 C605 1.327 . S
C607 C623 1.429 . S
C607 H629 0.950 . S
C608 H604 0.949 . S
C608 C616 1.574 . S
C608 C624 1.368 . S
H609 C617 0.950 . S
H610 C615 0.950 . S
H611 C616 0.949 . S
H612 C618 0.950 . S
H613 C619 0.950 . S
H614 C620 0.949 . S
C615 H610 0.950 . S
C615 C617 1.327 . S
C615 C621 1.429 . S
C616 C608 1.574 . S
C616 H611 0.949 . S
C616 C622 1.368 . S
C617 C601 1.349 . S
C617 H609 0.950 . S
C617 C615 1.327 . S
C618 C606 1.349 . S
C618 H612 0.950 . S
C618 C619 1.327 . S
C619 H613 0.950 . S
C619 C618 1.327 . S
C619 C623 1.429 . S
C620 C603 1.574 . S
C620 H614 0.949 . S
C620 C624 1.368 . S
C621 C602 1.429 . S
C621 C615 1.429 . S
C621 C622 1.523 . S
C622 C603 1.368 . S
C622 C616 1.368 . S
C622 C621 1.523 . S
C623 C607 1.429 . S
C623 C619 1.429 . S
C623 C624 1.523 . S
C624 C608 1.368 . S
C624 C620 1.368 . S
C624 C623 1.523 . S
H625 C600 0.950 . S
H626 C602 0.950 . S
H627 C603 0.949 . S
H628 C605 0.950 . S
H629 C607 0.950 . S
C630 C631 1.349 . S
C630 C632 1.327 . S
C630 H655 0.950 . S
C631 C630 1.349 . S
C631 C647 1.349 . S
C632 C630 1.327 . S
C632 C651 1.429 . S
C632 H656 0.950 . S
C633 C650 1.574 . S
C633 C652 1.368 . S
C633 H657 0.949 . S
H634 C638 0.949 . S
C635 C636 1.349 . S
C635 C637 1.327 . S
C635 H658 0.950 . S
C636 C635 1.349 . S
C636 C648 1.349 . S
C637 C635 1.327 . S
C637 C653 1.429 . S
C637 H659 0.950 . S
C638 H634 0.949 . S
C638 C646 1.574 . S
C638 C654 1.368 . S
H639 C647 0.950 . S
H640 C645 0.950 . S
H641 C646 0.949 . S
H642 C648 0.950 . S
H643 C649 0.950 . S
H644 C650 0.949 . S
C645 H640 0.950 . S
C645 C647 1.327 . S
C645 C651 1.429 . S
C646 C638 1.574 . S
C646 H641 0.949 . S
C646 C652 1.368 . S
C647 C631 1.349 . S
C647 H639 0.950 . S
C647 C645 1.327 . S
C648 C636 1.349 . S
C648 H642 0.950 . S
C648 C649 1.327 . S
C649 H643 0.950 . S
C649 C648 1.327 . S
C649 C653 1.429 . S
C650 C633 1.574 . S
C650 H644 0.949 . S
C650 C654 1.368 . S
C651 C632 1.429 . S
C651 C645 1.429 . S
C651 C652 1.523 . S
C652 C633 1.368 . S
C652 C646 1.368 . S
C652 C651 1.523 . S
C653 C637 1.429 . S
C653 C649 1.429 . S
C653 C654 1.523 . S
C654 C638 1.368 . S
C654 C650 1.368 . S
C654 C653 1.523 . S
H655 C630 0.950 . S
H656 C632 0.950 . S
H657 C633 0.949 . S
H658 C635 0.950 . S
H659 C637 0.950 . S
C306 C271 1.407 . S
C301 C27 1.412 . S
C331 N6 1.318 . S
C336 C211 1.362 . S
C361 C16 1.395 . S
C366 C241 1.309 . S
C391 N14 1.338 . S
C396 C181 1.275 . S
C421 C57 1.412 . S
C426 C151 1.407 . S
C451 N36 1.318 . S
C456 C91 1.362 . S
C486 C121 1.309 . S
C481 C46 1.395 . S
C516 C61 1.275 . S
C511 N44 1.338 . S
C541 C10 1.383 . S
C546 C80 1.363 1_465 S
C571 C1 1.524 . S
C576 C140 1.502 1_455 S
C606 C200 1.363 . S
C601 C40 1.383 . S
C631 C31 1.524 . S
C636 C260 1.502 . S
