# Generated by pormake.
# Topology eea, (3,6)-cn, num edge types: 1
# Building blocks:
#     Node 0, Type 0, BuildingBlock: KAKCAD_clean_linker_0, # of connection points: 3
#     Node 1, Type 0, BuildingBlock: KAKCAD_clean_linker_0, # of connection points: 3
#     Node 2, Type 0, BuildingBlock: KAKCAD_clean_linker_0, # of connection points: 3
#     Node 3, Type 0, BuildingBlock: KAKCAD_clean_linker_0, # of connection points: 3
#     Node 4, Type 0, BuildingBlock: KAKCAD_clean_linker_0, # of connection points: 3
#     Node 5, Type 0, BuildingBlock: KAKCAD_clean_linker_0, # of connection points: 3
#     Node 6, Type 0, BuildingBlock: KAKCAD_clean_linker_0, # of connection points: 3
#     Node 7, Type 0, BuildingBlock: KAKCAD_clean_linker_0, # of connection points: 3
#     Node 8, Type 0, BuildingBlock: KAKCAD_clean_linker_0, # of connection points: 3
#     Node 9, Type 0, BuildingBlock: KAKCAD_clean_linker_0, # of connection points: 3
#     Node 10, Type 0, BuildingBlock: KAKCAD_clean_linker_0, # of connection points: 3
#     Node 11, Type 0, BuildingBlock: KAKCAD_clean_linker_0, # of connection points: 3
#     Node 12, Type 0, BuildingBlock: KAKCAD_clean_linker_0, # of connection points: 3
#     Node 13, Type 0, BuildingBlock: KAKCAD_clean_linker_0, # of connection points: 3
#     Node 14, Type 0, BuildingBlock: KAKCAD_clean_linker_0, # of connection points: 3
#     Node 15, Type 0, BuildingBlock: KAKCAD_clean_linker_0, # of connection points: 3
#     Node 16, Type 0, BuildingBlock: KAKCAD_clean_linker_0, # of connection points: 3
#     Node 17, Type 0, BuildingBlock: KAKCAD_clean_linker_0, # of connection points: 3
#     Node 18, Type 1, BuildingBlock: CUWYAW_clean_sbu_0, # of connection points: 6
#     Node 19, Type 1, BuildingBlock: CUWYAW_clean_sbu_0, # of connection points: 6
#     Node 20, Type 1, BuildingBlock: CUWYAW_clean_sbu_0, # of connection points: 6
#     Node 21, Type 1, BuildingBlock: CUWYAW_clean_sbu_0, # of connection points: 6
#     Node 22, Type 1, BuildingBlock: CUWYAW_clean_sbu_0, # of connection points: 6
#     Node 23, Type 1, BuildingBlock: CUWYAW_clean_sbu_0, # of connection points: 6
#     Node 24, Type 1, BuildingBlock: CUWYAW_clean_sbu_0, # of connection points: 6
#     Node 25, Type 1, BuildingBlock: CUWYAW_clean_sbu_0, # of connection points: 6
#     Node 26, Type 1, BuildingBlock: CUWYAW_clean_sbu_0, # of connection points: 6
#     Edge 27, Type (0, 1), BuildingBlock: ZUJKAS_clean_linker_0, # of connection points: 2
#     Edge 28, Type (0, 1), BuildingBlock: ZUJKAS_clean_linker_0, # of connection points: 2
#     Edge 29, Type (0, 1), BuildingBlock: ZUJKAS_clean_linker_0, # of connection points: 2
#     Edge 30, Type (0, 1), BuildingBlock: ZUJKAS_clean_linker_0, # of connection points: 2
#     Edge 31, Type (0, 1), BuildingBlock: ZUJKAS_clean_linker_0, # of connection points: 2
#     Edge 32, Type (0, 1), BuildingBlock: ZUJKAS_clean_linker_0, # of connection points: 2
#     Edge 33, Type (0, 1), BuildingBlock: ZUJKAS_clean_linker_0, # of connection points: 2
#     Edge 34, Type (0, 1), BuildingBlock: ZUJKAS_clean_linker_0, # of connection points: 2
#     Edge 35, Type (0, 1), BuildingBlock: ZUJKAS_clean_linker_0, # of connection points: 2
#     Edge 36, Type (0, 1), BuildingBlock: ZUJKAS_clean_linker_0, # of connection points: 2
#     Edge 37, Type (0, 1), BuildingBlock: ZUJKAS_clean_linker_0, # of connection points: 2
#     Edge 38, Type (0, 1), BuildingBlock: ZUJKAS_clean_linker_0, # of connection points: 2
#     Edge 39, Type (0, 1), BuildingBlock: ZUJKAS_clean_linker_0, # of connection points: 2
#     Edge 40, Type (0, 1), BuildingBlock: ZUJKAS_clean_linker_0, # of connection points: 2
#     Edge 41, Type (0, 1), BuildingBlock: ZUJKAS_clean_linker_0, # of connection points: 2
#     Edge 42, Type (0, 1), BuildingBlock: ZUJKAS_clean_linker_0, # of connection points: 2
#     Edge 43, Type (0, 1), BuildingBlock: ZUJKAS_clean_linker_0, # of connection points: 2
#     Edge 44, Type (0, 1), BuildingBlock: ZUJKAS_clean_linker_0, # of connection points: 2
#     Edge 45, Type (0, 1), BuildingBlock: ZUJKAS_clean_linker_0, # of connection points: 2
#     Edge 46, Type (0, 1), BuildingBlock: ZUJKAS_clean_linker_0, # of connection points: 2
#     Edge 47, Type (0, 1), BuildingBlock: ZUJKAS_clean_linker_0, # of connection points: 2
#     Edge 48, Type (0, 1), BuildingBlock: ZUJKAS_clean_linker_0, # of connection points: 2
#     Edge 49, Type (0, 1), BuildingBlock: ZUJKAS_clean_linker_0, # of connection points: 2
#     Edge 50, Type (0, 1), BuildingBlock: ZUJKAS_clean_linker_0, # of connection points: 2
#     Edge 51, Type (0, 1), BuildingBlock: ZUJKAS_clean_linker_0, # of connection points: 2
#     Edge 52, Type (0, 1), BuildingBlock: ZUJKAS_clean_linker_0, # of connection points: 2
#     Edge 53, Type (0, 1), BuildingBlock: ZUJKAS_clean_linker_0, # of connection points: 2
#     Edge 54, Type (0, 1), BuildingBlock: ZUJKAS_clean_linker_0, # of connection points: 2
#     Edge 55, Type (0, 1), BuildingBlock: ZUJKAS_clean_linker_0, # of connection points: 2
#     Edge 56, Type (0, 1), BuildingBlock: ZUJKAS_clean_linker_0, # of connection points: 2
#     Edge 57, Type (0, 1), BuildingBlock: ZUJKAS_clean_linker_0, # of connection points: 2
#     Edge 58, Type (0, 1), BuildingBlock: ZUJKAS_clean_linker_0, # of connection points: 2
#     Edge 59, Type (0, 1), BuildingBlock: ZUJKAS_clean_linker_0, # of connection points: 2
#     Edge 60, Type (0, 1), BuildingBlock: ZUJKAS_clean_linker_0, # of connection points: 2
#     Edge 61, Type (0, 1), BuildingBlock: ZUJKAS_clean_linker_0, # of connection points: 2
#     Edge 62, Type (0, 1), BuildingBlock: ZUJKAS_clean_linker_0, # of connection points: 2
#     Edge 63, Type (0, 1), BuildingBlock: ZUJKAS_clean_linker_0, # of connection points: 2
#     Edge 64, Type (0, 1), BuildingBlock: ZUJKAS_clean_linker_0, # of connection points: 2
#     Edge 65, Type (0, 1), BuildingBlock: ZUJKAS_clean_linker_0, # of connection points: 2
#     Edge 66, Type (0, 1), BuildingBlock: ZUJKAS_clean_linker_0, # of connection points: 2
#     Edge 67, Type (0, 1), BuildingBlock: ZUJKAS_clean_linker_0, # of connection points: 2
#     Edge 68, Type (0, 1), BuildingBlock: ZUJKAS_clean_linker_0, # of connection points: 2
#     Edge 69, Type (0, 1), BuildingBlock: ZUJKAS_clean_linker_0, # of connection points: 2
#     Edge 70, Type (0, 1), BuildingBlock: ZUJKAS_clean_linker_0, # of connection points: 2
#     Edge 71, Type (0, 1), BuildingBlock: ZUJKAS_clean_linker_0, # of connection points: 2
#     Edge 72, Type (0, 1), BuildingBlock: ZUJKAS_clean_linker_0, # of connection points: 2
#     Edge 73, Type (0, 1), BuildingBlock: ZUJKAS_clean_linker_0, # of connection points: 2
#     Edge 74, Type (0, 1), BuildingBlock: ZUJKAS_clean_linker_0, # of connection points: 2
#     Edge 75, Type (0, 1), BuildingBlock: ZUJKAS_clean_linker_0, # of connection points: 2
#     Edge 76, Type (0, 1), BuildingBlock: ZUJKAS_clean_linker_0, # of connection points: 2
#     Edge 77, Type (0, 1), BuildingBlock: ZUJKAS_clean_linker_0, # of connection points: 2
#     Edge 78, Type (0, 1), BuildingBlock: ZUJKAS_clean_linker_0, # of connection points: 2
#     Edge 79, Type (0, 1), BuildingBlock: ZUJKAS_clean_linker_0, # of connection points: 2
#     Edge 80, Type (0, 1), BuildingBlock: ZUJKAS_clean_linker_0, # of connection points: 2
# Relax obj value: 0.034
# Max RMSD: 0.135
# Mean RMSD: 0.066
data_MOF--net-eea--node1-CUWYAW_clean_sbu_0--node2-KAKCAD_clean_linker_0--edge1-ZUJKAS_clean_linker_0
_symmetry_space_group_name_H-M    P1
_symmetry_Int_Tables_number       1
_symmetry_cell_setting            triclinic
loop_
_symmetry_equiv_pos_as_xyz
'x, y, z'
_cell_length_a     78.316405
_cell_length_b     78.033593
_cell_length_c     108.84003
_cell_angle_alpha  93.633941
_cell_angle_beta   93.447052
_cell_angle_gamma 119.87454
loop_
_atom_site_label
_atom_site_type_symbol
_atom_site_fract_x
_atom_site_fract_y
_atom_site_fract_z
_atom_type_partial_charge
C0 C 0.27814 0.1602 0.46093 0.0
C1 C 0.29214 0.1554 0.46567 0.0
C2 C 0.27318 0.15823 0.44818 0.0
C3 C 0.28206 0.15133 0.43988 0.0
C4 C 0.29633 0.14687 0.4446 0.0
C5 C 0.30137 0.14895 0.45736 0.0
C6 C 0.27583 0.14807 0.42639 0.0
C7 C 0.27281 0.16204 0.42057 0.0
C8 C 0.26564 0.15845 0.40798 0.0
C9 C 0.26172 0.14074 0.40117 0.0
C10 C 0.26457 0.12654 0.40685 0.0
C11 C 0.27178 0.13042 0.41945 0.0
C12 C 0.25885 0.10714 0.39986 0.0
C13 C 0.24117 0.09696 0.39186 0.0
C14 C 0.27058 0.0983 0.40146 0.0
C15 C 0.26461 0.07959 0.39534 0.0
C16 C 0.24681 0.06933 0.38746 0.0
C17 C 0.26112 0.1726 0.40212 0.0
C18 C 0.25133 0.18089 0.40839 0.0
C19 C 0.26577 0.17727 0.39005 0.0
C20 C 0.26039 0.18965 0.3843 0.0
C21 C 0.25024 0.19762 0.3905 0.0
C22 C 0.24595 0.19325 0.40265 0.0
C23 C 0.23524 0.0783 0.38572 0.0
H24 H 0.27092 0.16539 0.4671 0.0
H25 H 0.262 0.16161 0.44483 0.0
H26 H 0.30351 0.14166 0.43842 0.0
H27 H 0.31211 0.14499 0.46074 0.0
H28 H 0.27606 0.17576 0.42586 0.0
H29 H 0.27333 0.11925 0.42402 0.0
H30 H 0.25597 0.13777 0.3915 0.0
H31 H 0.23159 0.10316 0.3906 0.0
H32 H 0.2844 0.10587 0.40743 0.0
H33 H 0.27396 0.07316 0.39674 0.0
H34 H 0.24724 0.17733 0.41762 0.0
H35 H 0.27354 0.17131 0.38505 0.0
H36 H 0.2213 0.07065 0.37987 0.0
H37 H 0.23786 0.19888 0.40761 0.0
H38 H 0.26416 0.19297 0.375 0.0
C39 C 0.88124 0.16243 0.46666 0.0
C40 C 0.87282 0.14661 0.47402 0.0
C41 C 0.88331 0.15898 0.45422 0.0
C42 C 0.87709 0.13964 0.44886 0.0
C43 C 0.86887 0.12387 0.45625 0.0
C44 C 0.86668 0.12729 0.46865 0.0
C45 C 0.87903 0.13583 0.43558 0.0
C46 C 0.896 0.14898 0.4302 0.0
C47 C 0.89801 0.14539 0.41768 0.0
C48 C 0.88277 0.12819 0.41059 0.0
C49 C 0.86595 0.11462 0.41592 0.0
C50 C 0.86406 0.11876 0.42833 0.0
C51 C 0.85079 0.09561 0.40873 0.0
C52 C 0.8442 0.09499 0.39632 0.0
C53 C 0.84319 0.07777 0.41424 0.0
C54 C 0.82941 0.05972 0.4075 0.0
C55 C 0.82285 0.05904 0.39507 0.0
C56 C 0.91631 0.15924 0.41216 0.0
C57 C 0.92617 0.17983 0.41575 0.0
C58 C 0.9243 0.15196 0.40339 0.0
C59 C 0.94159 0.1649 0.39836 0.0
C60 C 0.95165 0.18545 0.40212 0.0
C61 C 0.94368 0.19273 0.41089 0.0
C62 C 0.83037 0.07689 0.38956 0.0
H63 H 0.88633 0.17753 0.47052 0.0
H64 H 0.88955 0.17146 0.44876 0.0
H65 H 0.86419 0.10882 0.45249 0.0
H66 H 0.85989 0.11469 0.47396 0.0
H67 H 0.90795 0.16168 0.43591 0.0
H68 H 0.85078 0.10865 0.43234 0.0
H69 H 0.88412 0.12511 0.40097 0.0
H70 H 0.84964 0.10852 0.39186 0.0
H71 H 0.84824 0.07767 0.42371 0.0
H72 H 0.82424 0.04622 0.41196 0.0
H73 H 0.92036 0.18607 0.42233 0.0
H74 H 0.91739 0.1362 0.40051 0.0
H75 H 0.82544 0.0769 0.38005 0.0
H76 H 0.95107 0.20839 0.41418 0.0
H77 H 0.94698 0.1587 0.39146 0.0
C78 C 0.8929 0.74091 0.47514 0.0
C79 C 0.87379 0.72622 0.4773 0.0
C80 C 0.89656 0.7479 0.46352 0.0
C81 C 0.88116 0.74039 0.45382 0.0
C82 C 0.86215 0.7254 0.45591 0.0
C83 C 0.85852 0.71838 0.46751 0.0
C84 C 0.88473 0.74871 0.44171 0.0
C85 C 0.90193 0.75281 0.43618 0.0
C86 C 0.90565 0.76126 0.42491 0.0
C87 C 0.89181 0.76553 0.41918 0.0
C88 C 0.87445 0.76139 0.42454 0.0
C89 C 0.87106 0.753 0.4358 0.0
C90 C 0.85995 0.76605 0.41849 0.0
C91 C 0.86639 0.7841 0.41335 0.0
C92 C 0.83951 0.75254 0.41793 0.0
C93 C 0.82583 0.75701 0.41242 0.0
C94 C 0.83225 0.7751 0.40734 0.0
C95 C 0.92401 0.76575 0.41916 0.0
C96 C 0.9422 0.77353 0.42651 0.0
C97 C 0.92354 0.76249 0.40625 0.0
C98 C 0.94084 0.76711 0.40083 0.0
C99 C 0.95906 0.77498 0.40817 0.0
C100 C 0.95949 0.77803 0.42109 0.0
C101 C 0.8527 0.78858 0.40785 0.0
H102 H 0.90503 0.7471 0.48245 0.0
H103 H 0.91133 0.75956 0.46223 0.0
H104 H 0.85004 0.71916 0.44858 0.0
H105 H 0.84359 0.70717 0.46889 0.0
H106 H 0.91226 0.74906 0.44056 0.0
H107 H 0.85803 0.75038 0.44019 0.0
H108 H 0.89456 0.77217 0.41054 0.0
H109 H 0.88203 0.79494 0.4138 0.0
H110 H 0.83408 0.73838 0.42164 0.0
H111 H 0.8102 0.74616 0.41199 0.0
H112 H 0.94316 0.77644 0.43646 0.0
H113 H 0.90976 0.75627 0.40031 0.0
H114 H 0.85814 0.80276 0.40418 0.0
H115 H 0.97318 0.78382 0.42705 0.0
H116 H 0.93996 0.76478 0.39084 0.0
C117 C 0.12686 0.25177 0.52746 0.0
C118 C 0.12394 0.26755 0.52471 0.0
C119 C 0.12389 0.2449 0.53911 0.0
C120 C 0.11788 0.25361 0.54832 0.0
C121 C 0.11462 0.26917 0.54553 0.0
C122 C 0.11764 0.27608 0.53385 0.0
C123 C 0.1153 0.24659 0.56081 0.0
C124 C 0.12918 0.24246 0.5666 0.0
C125 C 0.12682 0.23549 0.5783 0.0
C126 C 0.11038 0.23275 0.58429 0.0
C127 C 0.09623 0.23667 0.57863 0.0
C128 C 0.0989 0.24371 0.56691 0.0
C129 C 0.07839 0.23283 0.58479 0.0
C130 C 0.06831 0.2157 0.5909 0.0
C131 C 0.07116 0.24609 0.58451 0.0
C132 C 0.05421 0.24226 0.59016 0.0
C133 C 0.0441 0.22508 0.59623 0.0
C134 C 0.14138 0.23075 0.58416 0.0
C135 C 0.14824 0.22009 0.57716 0.0
C136 C 0.14848 0.23678 0.59675 0.0
C137 C 0.16219 0.23228 0.60222 0.0
C138 C 0.16899 0.22154 0.59522 0.0
C139 C 0.16185 0.21549 0.58263 0.0
C140 C 0.0514 0.21189 0.59656 0.0
H141 H 0.13131 0.24459 0.52055 0.0
H142 H 0.12615 0.23264 0.54089 0.0
H143 H 0.11017 0.2763 0.55247 0.0
H144 H 0.11545 0.28839 0.53208 0.0
H145 H 0.14207 0.24501 0.56206 0.0
H146 H 0.08784 0.24628 0.56232 0.0
H147 H 0.10849 0.22734 0.59332 0.0
H148 H 0.07331 0.20504 0.59117 0.0
H149 H 0.07868 0.25951 0.57997 0.0
H150 H 0.04889 0.25265 0.58964 0.0
H151 H 0.1429 0.21509 0.56746 0.0
H152 H 0.14357 0.24514 0.60236 0.0
H153 H 0.04413 0.19865 0.60129 0.0
H154 H 0.16694 0.20735 0.57698 0.0
H155 H 0.16729 0.237 0.61196 0.0
C156 C 0.70178 0.83288 0.54519 0.0
C157 C 0.71048 0.84814 0.53747 0.0
C158 C 0.70685 0.83687 0.55801 0.0
C159 C 0.72074 0.85621 0.56338 0.0
C160 C 0.72927 0.87148 0.55565 0.0
C161 C 0.72416 0.86751 0.54287 0.0
C162 C 0.72682 0.86045 0.57694 0.0
C163 C 0.73027 0.84722 0.58336 0.0
C164 C 0.73734 0.85176 0.596 0.0
C165 C 0.7408 0.8697 0.60223 0.0
C166 C 0.73753 0.88315 0.59596 0.0
C167 C 0.7303 0.87828 0.58336 0.0
C168 C 0.74284 0.90281 0.60236 0.0
C169 C 0.73841 0.90457 0.61454 0.0
C170 C 0.75316 0.92011 0.59645 0.0
C171 C 0.75916 0.93877 0.60263 0.0
C172 C 0.75498 0.94058 0.61486 0.0
C173 C 0.74229 0.83833 0.60245 0.0
C174 C 0.72978 0.81759 0.60044 0.0
C175 C 0.75994 0.84619 0.61037 0.0
C176 C 0.76508 0.83362 0.61605 0.0
C177 C 0.75271 0.81288 0.61393 0.0
C178 C 0.73494 0.80499 0.60612 0.0
C179 C 0.7444 0.92326 0.62072 0.0
H180 H 0.69129 0.81777 0.54132 0.0
H181 H 0.69988 0.82481 0.56372 0.0
H182 H 0.74021 0.88649 0.55944 0.0
H183 H 0.73092 0.87968 0.53722 0.0
H184 H 0.72838 0.83381 0.57838 0.0
H185 H 0.72742 0.88845 0.57853 0.0
H186 H 0.74655 0.87345 0.61193 0.0
H187 H 0.73028 0.89148 0.61928 0.0
H188 H 0.75712 0.9193 0.58715 0.0
H189 H 0.76757 0.95182 0.59791 0.0
H190 H 0.71597 0.8111 0.5945 0.0
H191 H 0.77009 0.86208 0.61193 0.0
H192 H 0.74071 0.92413 0.63009 0.0
H193 H 0.72498 0.78908 0.60443 0.0
H194 H 0.77903 0.84015 0.62185 0.0
C195 C 0.11158 0.84455 0.53477 0.0
C196 C 0.13027 0.84779 0.53216 0.0
C197 C 0.10788 0.84714 0.54696 0.0
C198 C 0.12283 0.85312 0.55679 0.0
C199 C 0.14138 0.85597 0.55422 0.0
C200 C 0.14504 0.85328 0.54205 0.0
C201 C 0.11931 0.85708 0.56963 0.0
C202 C 0.10161 0.84397 0.57435 0.0
C203 C 0.09802 0.84798 0.58639 0.0
C204 C 0.1124 0.86535 0.59372 0.0
C205 C 0.13014 0.87872 0.58912 0.0
C206 C 0.13348 0.87438 0.57708 0.0
C207 C 0.14484 0.89763 0.59663 0.0
C208 C 0.13855 0.90889 0.60358 0.0
C209 C 0.16526 0.90491 0.59658 0.0
C210 C 0.17907 0.9232 0.60311 0.0
C211 C 0.17277 0.93458 0.6099 0.0
C212 C 0.07907 0.83429 0.59123 0.0
C213 C 0.061 0.82636 0.58373 0.0
C214 C 0.07886 0.82934 0.60343 0.0
C215 C 0.06097 0.81688 0.60807 0.0
C216 C 0.04289 0.80913 0.60061 0.0
C217 C 0.04311 0.81395 0.58837 0.0
C218 C 0.15236 0.92713 0.61016 0.0
H219 H 0.09995 0.84059 0.52738 0.0
H220 H 0.09351 0.84505 0.54865 0.0
H221 H 0.15308 0.8603 0.56163 0.0
H222 H 0.15948 0.85553 0.54039 0.0
H223 H 0.09073 0.83047 0.56869 0.0
H224 H 0.14683 0.88488 0.57329 0.0
H225 H 0.10966 0.86861 0.60298 0.0
H226 H 0.12295 0.90389 0.60366 0.0
H227 H 0.1706 0.89646 0.59148 0.0
H228 H 0.1947 0.92841 0.60288 0.0
H229 H 0.06065 0.83004 0.57432 0.0
H230 H 0.09255 0.83506 0.6094 0.0
H231 H 0.14704 0.93568 0.61516 0.0
H232 H 0.02945 0.80806 0.58236 0.0
H233 H 0.06129 0.8136 0.61757 0.0
C234 C 0.9463 0.49279 0.79604 0.0
C235 C 0.9617 0.48933 0.79986 0.0
C236 C 0.93959 0.49016 0.78351 0.0
C237 C 0.94801 0.48389 0.77451 0.0
C238 C 0.96362 0.48074 0.77827 0.0
C239 C 0.97044 0.48351 0.79081 0.0
C240 C 0.93992 0.47985 0.76131 0.0
C241 C 0.93531 0.49307 0.75585 0.0
C242 C 0.9265 0.48875 0.74358 0.0
C243 C 0.92232 0.47094 0.73677 0.0
C244 C 0.92681 0.45753 0.74209 0.0
C245 C 0.9358 0.4622 0.75433 0.0
C246 C 0.92106 0.43813 0.73515 0.0
C247 C 0.90215 0.42659 0.72861 0.0
C248 C 0.93414 0.43071 0.73533 0.0
C249 C 0.92835 0.41204 0.7292 0.0
C250 C 0.9093 0.40037 0.72285 0.0
C251 C 0.92099 0.50244 0.73801 0.0
C252 C 0.91195 0.51101 0.74486 0.0
C253 C 0.92429 0.50666 0.72573 0.0
C254 C 0.91847 0.519 0.72037 0.0
C255 C 0.9092 0.52737 0.72717 0.0
C256 C 0.90612 0.52333 0.7395 0.0
C257 C 0.89631 0.4079 0.72256 0.0
H258 H 0.93897 0.49693 0.80275 0.0
H259 H 0.92734 0.49242 0.7809 0.0
H260 H 0.97053 0.47612 0.77151 0.0
H261 H 0.98255 0.48103 0.7934 0.0
H262 H 0.93871 0.50683 0.76115 0.0
H263 H 0.93871 0.45163 0.75863 0.0
H264 H 0.91523 0.46733 0.72736 0.0
H265 H 0.89167 0.43182 0.72841 0.0
H266 H 0.94885 0.43933 0.74024 0.0
H267 H 0.93862 0.40656 0.72965 0.0
H268 H 0.90893 0.5078 0.75428 0.0
H269 H 0.93148 0.50051 0.72028 0.0
H270 H 0.88161 0.39932 0.71763 0.0
H271 H 0.89876 0.5293 0.74493 0.0
H272 H 0.92133 0.52208 0.71091 0.0
C273 C 0.54619 0.49724 0.79918 0.0
C274 C 0.53992 0.48235 0.80726 0.0
C275 C 0.54851 0.49315 0.78689 0.0
C276 C 0.54448 0.47407 0.78241 0.0
C277 C 0.53826 0.45922 0.79051 0.0
C278 C 0.536 0.46331 0.80278 0.0
C279 C 0.54676 0.46955 0.76935 0.0
C280 C 0.56337 0.48291 0.76376 0.0
C281 C 0.566 0.47829 0.75159 0.0
C282 C 0.55164 0.46017 0.74493 0.0
C283 C 0.5349 0.44667 0.75035 0.0
C284 C 0.53256 0.45153 0.76254 0.0
C285 C 0.52008 0.42728 0.74342 0.0
C286 C 0.51354 0.4261 0.73092 0.0
C287 C 0.51246 0.40977 0.74928 0.0
C288 C 0.49864 0.39147 0.74279 0.0
C289 C 0.49207 0.39024 0.73028 0.0
C290 C 0.5841 0.49205 0.74599 0.0
C291 C 0.59133 0.51263 0.7473 0.0
C292 C 0.59445 0.4847 0.73946 0.0
C293 C 0.61172 0.49763 0.7344 0.0
C294 C 0.61901 0.51823 0.73571 0.0
C295 C 0.60857 0.52558 0.7422 0.0
C296 C 0.49967 0.40778 0.72442 0.0
H297 H 0.54946 0.51209 0.80239 0.0
H298 H 0.55321 0.50486 0.78085 0.0
H299 H 0.53527 0.44443 0.78738 0.0
H300 H 0.53092 0.45144 0.80872 0.0
H301 H 0.57466 0.49659 0.76907 0.0
H302 H 0.5195 0.44134 0.7667 0.0
H303 H 0.55364 0.45647 0.73556 0.0
H304 H 0.51897 0.43937 0.72619 0.0
H305 H 0.51745 0.41015 0.75884 0.0
H306 H 0.49338 0.37822 0.74752 0.0
H307 H 0.58354 0.51871 0.75217 0.0
H308 H 0.58943 0.46895 0.73847 0.0
H309 H 0.49472 0.40739 0.71485 0.0
H310 H 0.6136 0.54132 0.74322 0.0
H311 H 0.61956 0.49149 0.72966 0.0
C312 C 0.55917 0.07418 0.80776 0.0
C313 C 0.53989 0.05969 0.80978 0.0
C314 C 0.56307 0.08164 0.79627 0.0
C315 C 0.54776 0.07477 0.78656 0.0
C316 C 0.52859 0.05994 0.7885 0.0
C317 C 0.5247 0.0525 0.79997 0.0
C318 C 0.55159 0.08348 0.77458 0.0
C319 C 0.5688 0.08754 0.76905 0.0
C320 C 0.57261 0.09613 0.75782 0.0
C321 C 0.55885 0.10053 0.75211 0.0
C322 C 0.54151 0.09648 0.75747 0.0
C323 C 0.53809 0.08804 0.76873 0.0
C324 C 0.52701 0.10118 0.75142 0.0
C325 C 0.53346 0.11898 0.74598 0.0
C326 C 0.50655 0.08795 0.75118 0.0
C327 C 0.49287 0.09246 0.7457 0.0
C328 C 0.49931 0.11029 0.7403 0.0
C329 C 0.59098 0.10058 0.75208 0.0
C330 C 0.60914 0.10827 0.75946 0.0
C331 C 0.59056 0.09739 0.73918 0.0
C332 C 0.60788 0.10196 0.73378 0.0
C333 C 0.62606 0.10972 0.74115 0.0
C334 C 0.62644 0.11273 0.75406 0.0
C335 C 0.51977 0.12347 0.74047 0.0
H336 H 0.57115 0.08019 0.81516 0.0
H337 H 0.57795 0.09321 0.79512 0.0
H338 H 0.51656 0.05407 0.78113 0.0
H339 H 0.50977 0.04108 0.80116 0.0
H340 H 0.57902 0.08362 0.77337 0.0
H341 H 0.5251 0.08551 0.77314 0.0
H342 H 0.56165 0.10717 0.74348 0.0
H343 H 0.5491 0.12959 0.74611 0.0
H344 H 0.50107 0.07401 0.75516 0.0
H345 H 0.47724 0.08206 0.74586 0.0
H346 H 0.61007 0.11111 0.76942 0.0
H347 H 0.57681 0.09125 0.73322 0.0
H348 H 0.52525 0.13722 0.73626 0.0
H349 H 0.64011 0.11843 0.76005 0.0
H350 H 0.60704 0.09966 0.72379 0.0
C351 C 0.79303 0.58038 0.86106 0.0
C352 C 0.79004 0.59603 0.85811 0.0
C353 C 0.78984 0.57364 0.87274 0.0
C354 C 0.78358 0.58237 0.88176 0.0
C355 C 0.78015 0.59773 0.87874 0.0
C356 C 0.78335 0.6045 0.86703 0.0
C357 C 0.78111 0.57569 0.89435 0.0
C358 C 0.79514 0.5719 0.90025 0.0
C359 C 0.79289 0.56512 0.91201 0.0
C360 C 0.77642 0.56239 0.91797 0.0
C361 C 0.76219 0.56614 0.91224 0.0
C362 C 0.7647 0.57284 0.90043 0.0
C363 C 0.7445 0.5626 0.91848 0.0
C364 C 0.73459 0.54583 0.92492 0.0
C365 C 0.73732 0.57589 0.918 0.0
C366 C 0.72063 0.57247 0.92383 0.0
C367 C 0.71074 0.5557 0.93028 0.0
C368 C 0.80762 0.56064 0.91793 0.0
C369 C 0.81526 0.5508 0.91087 0.0
C370 C 0.81419 0.56616 0.93063 0.0
C371 C 0.82817 0.56202 0.93611 0.0
C372 C 0.83589 0.55231 0.92901 0.0
C373 C 0.82924 0.54671 0.91634 0.0
C374 C 0.71795 0.54244 0.93077 0.0
H375 H 0.79778 0.57327 0.85431 0.0
H376 H 0.79222 0.5615 0.87469 0.0
H377 H 0.77548 0.60486 0.88553 0.0
H378 H 0.78109 0.6167 0.86508 0.0
H379 H 0.80809 0.57457 0.89574 0.0
H380 H 0.75356 0.57523 0.89578 0.0
H381 H 0.7746 0.55717 0.92706 0.0
H382 H 0.73955 0.53515 0.92534 0.0
H383 H 0.74471 0.58905 0.91321 0.0
H384 H 0.71536 0.58288 0.92316 0.0
H385 H 0.81024 0.54601 0.90112 0.0
H386 H 0.80878 0.57399 0.93629 0.0
H387 H 0.71086 0.52951 0.93578 0.0
H388 H 0.83465 0.53889 0.91066 0.0
H389 H 0.83317 0.56674 0.94586 0.0
C390 C 0.36735 0.16889 0.87853 0.0
C391 C 0.37625 0.18416 0.87082 0.0
C392 C 0.37353 0.17246 0.89123 0.0
C393 C 0.38868 0.19137 0.89646 0.0
C394 C 0.39757 0.20657 0.88873 0.0
C395 C 0.39145 0.203 0.87608 0.0
C396 C 0.39572 0.19529 0.90986 0.0
C397 C 0.39931 0.18176 0.91579 0.0
C398 C 0.40777 0.18632 0.92815 0.0
C399 C 0.4123 0.20447 0.93465 0.0
C400 C 0.40865 0.2181 0.9289 0.0
C401 C 0.40016 0.21327 0.91654 0.0
C402 C 0.41475 0.23784 0.93554 0.0
C403 C 0.41184 0.23972 0.94806 0.0
C404 C 0.42404 0.25507 0.92942 0.0
C405 C 0.43039 0.27374 0.93569 0.0
C406 C 0.4277 0.27567 0.94825 0.0
C407 C 0.41312 0.17275 0.93399 0.0
C408 C 0.39981 0.15215 0.9328 0.0
C409 C 0.43189 0.18035 0.94055 0.0
C410 C 0.43731 0.16761 0.94573 0.0
C411 C 0.42404 0.14702 0.94451 0.0
C412 C 0.40518 0.13941 0.93807 0.0
C413 C 0.41824 0.25844 0.95435 0.0
H414 H 0.35548 0.15426 0.87478 0.0
H415 H 0.36633 0.1605 0.89698 0.0
H416 H 0.40959 0.22117 0.89242 0.0
H417 H 0.39893 0.21497 0.87037 0.0
H418 H 0.39652 0.16814 0.91059 0.0
H419 H 0.39708 0.22361 0.91207 0.0
H420 H 0.41915 0.20818 0.94412 0.0
H421 H 0.40459 0.22672 0.953 0.0
H422 H 0.42674 0.25418 0.91983 0.0
H423 H 0.43738 0.28667 0.93067 0.0
H424 H 0.38522 0.14592 0.92783 0.0
H425 H 0.44255 0.19613 0.9415 0.0
H426 H 0.41607 0.25944 0.96405 0.0
H427 H 0.39471 0.12358 0.93693 0.0
H428 H 0.45187 0.17392 0.95075 0.0
C429 C 0.77796 0.17863 0.86857 0.0
C430 C 0.79718 0.18436 0.8656 0.0
C431 C 0.77446 0.18104 0.88082 0.0
C432 C 0.79008 0.18917 0.89041 0.0
C433 C 0.80923 0.19449 0.88747 0.0
C434 C 0.81274 0.19216 0.87521 0.0
C435 C 0.78655 0.19265 0.90336 0.0
C436 C 0.76931 0.17877 0.9082 0.0
C437 C 0.7656 0.18233 0.9203 0.0
C438 C 0.77951 0.19989 0.92764 0.0
C439 C 0.79682 0.21398 0.92297 0.0
C440 C 0.80019 0.21022 0.91083 0.0
C441 C 0.81103 0.23298 0.93058 0.0
C442 C 0.80416 0.24339 0.93783 0.0
C443 C 0.83156 0.24111 0.9304 0.0
C444 C 0.84489 0.25937 0.93716 0.0
C445 C 0.83799 0.26986 0.94428 0.0
C446 C 0.7469 0.16806 0.92512 0.0
C447 C 0.72873 0.15988 0.91771 0.0
C448 C 0.74698 0.16302 0.93729 0.0
C449 C 0.72924 0.15033 0.942 0.0
C450 C 0.71104 0.14246 0.93466 0.0
C451 C 0.71099 0.14725 0.92243 0.0
C452 C 0.81749 0.2616 0.94462 0.0
H453 H 0.76559 0.17232 0.86142 0.0
H454 H 0.75956 0.17696 0.88273 0.0
H455 H 0.82155 0.20056 0.89464 0.0
H456 H 0.82777 0.19693 0.87326 0.0
H457 H 0.75882 0.16504 0.9026 0.0
H458 H 0.81313 0.22136 0.90701 0.0
H459 H 0.7767 0.20274 0.93697 0.0
H460 H 0.78844 0.23772 0.93802 0.0
H461 H 0.83735 0.23333 0.92506 0.0
H462 H 0.86062 0.26523 0.93685 0.0
H463 H 0.72817 0.16362 0.90833 0.0
H464 H 0.76076 0.16895 0.94319 0.0
H465 H 0.8117 0.26946 0.94988 0.0
H466 H 0.69722 0.14126 0.9165 0.0
H467 H 0.72976 0.14704 0.95149 0.0
C468 C 0.61245 0.8269 0.12867 0.0
C469 C 0.6269 0.82247 0.13305 0.0
C470 C 0.60695 0.82487 0.11599 0.0
C471 C 0.61571 0.81827 0.10742 0.0
C472 C 0.63049 0.81427 0.11177 0.0
C473 C 0.6361 0.81643 0.12447 0.0
C474 C 0.60861 0.81461 0.09404 0.0
C475 C 0.60467 0.82813 0.08839 0.0
C476 C 0.59616 0.8239 0.07605 0.0
C477 C 0.59186 0.80599 0.06932 0.0
C478 C 0.59583 0.79236 0.0748 0.0
C479 C 0.60437 0.79687 0.08714 0.0
C480 C 0.58981 0.77281 0.06796 0.0
C481 C 0.57099 0.7616 0.06125 0.0
C482 C 0.60248 0.76492 0.06841 0.0
C483 C 0.59639 0.74612 0.06237 0.0
C484 C 0.57743 0.73478 0.05584 0.0
C485 C 0.59073 0.83761 0.07041 0.0
C486 C 0.58208 0.84657 0.0773 0.0
C487 C 0.59349 0.84132 0.058 0.0
C488 C 0.58742 0.85342 0.05255 0.0
C489 C 0.57848 0.86212 0.0594 0.0
C490 C 0.57608 0.85871 0.07188 0.0
C491 C 0.56486 0.74278 0.05528 0.0
H492 H 0.60526 0.83177 0.13507 0.0
H493 H 0.59537 0.82788 0.11293 0.0
H494 H 0.63758 0.80928 0.10536 0.0
H495 H 0.64719 0.8128 0.12759 0.0
H496 H 0.60819 0.84196 0.09364 0.0
H497 H 0.60673 0.78605 0.09157 0.0
H498 H 0.58495 0.8024 0.05987 0.0
H499 H 0.5608 0.76719 0.06085 0.0
H500 H 0.6171 0.77328 0.07346 0.0
H501 H 0.60635 0.74027 0.06303 0.0
H502 H 0.57952 0.84385 0.08684 0.0
H503 H 0.60028 0.8348 0.05247 0.0
H504 H 0.55024 0.73448 0.05022 0.0
H505 H 0.5695 0.86539 0.07746 0.0
H506 H 0.58933 0.85559 0.04289 0.0
C507 C 0.2106 0.82635 0.13225 0.0
C508 C 0.20381 0.81095 0.13998 0.0
C509 C 0.21385 0.82302 0.12005 0.0
C510 C 0.21036 0.80423 0.11533 0.0
C511 C 0.2038 0.78894 0.12311 0.0
C512 C 0.20058 0.79226 0.13528 0.0
C513 C 0.2135 0.80043 0.10234 0.0
C514 C 0.23043 0.81423 0.09721 0.0
C515 C 0.23391 0.81014 0.08515 0.0
C516 C 0.22009 0.7921 0.07817 0.0
C517 C 0.20305 0.77815 0.08314 0.0
C518 C 0.19983 0.78254 0.0952 0.0
C519 C 0.189 0.75871 0.07594 0.0
C520 C 0.18368 0.75748 0.06321 0.0
C521 C 0.18107 0.74113 0.08175 0.0
C522 C 0.16821 0.72276 0.075 0.0
C523 C 0.16301 0.72148 0.06225 0.0
C524 C 0.25234 0.82432 0.07998 0.0
C525 C 0.25951 0.84488 0.08163 0.0
C526 C 0.26295 0.81733 0.07339 0.0
C527 C 0.28026 0.83056 0.06851 0.0
C528 C 0.28742 0.85112 0.0701 0.0
C529 C 0.27684 0.85814 0.07672 0.0
C530 C 0.17081 0.73907 0.05644 0.0
H531 H 0.21306 0.84086 0.13557 0.0
H532 H 0.21876 0.83505 0.11424 0.0
H533 H 0.20138 0.77442 0.11984 0.0
H534 H 0.19578 0.7802 0.14105 0.0
H535 H 0.24132 0.82781 0.10279 0.0
H536 H 0.18652 0.77203 0.09901 0.0
H537 H 0.22276 0.78878 0.06891 0.0
H538 H 0.18938 0.77076 0.05848 0.0
H539 H 0.18504 0.7415 0.09151 0.0
H540 H 0.16227 0.70954 0.0798 0.0
H541 H 0.2516 0.85072 0.08659 0.0
H542 H 0.25798 0.8016 0.0721 0.0
H543 H 0.16724 0.7386 0.04661 0.0
H544 H 0.28206 0.87391 0.0782 0.0
H545 H 0.28791 0.82463 0.06334 0.0
C546 C 0.2253 0.40399 0.14053 0.0
C547 C 0.20616 0.38931 0.14266 0.0
C548 C 0.229 0.41108 0.12895 0.0
C549 C 0.21364 0.40366 0.11923 0.0
C550 C 0.19463 0.3886 0.12126 0.0
C551 C 0.19093 0.3815 0.13283 0.0
C552 C 0.21722 0.41219 0.10719 0.0
C553 C 0.23453 0.41659 0.1017 0.0
C554 C 0.23832 0.42537 0.09054 0.0
C555 C 0.22443 0.42963 0.08487 0.0
C556 C 0.20697 0.42518 0.09019 0.0
C557 C 0.20352 0.41649 0.10135 0.0
C558 C 0.19246 0.42995 0.08426 0.0
C559 C 0.1989 0.44817 0.07935 0.0
C560 C 0.17203 0.41642 0.08367 0.0
C561 C 0.15834 0.42108 0.0784 0.0
C562 C 0.16476 0.43937 0.07358 0.0
C563 C 0.25685 0.4303 0.08488 0.0
C564 C 0.27496 0.43812 0.09233 0.0
C565 C 0.25664 0.42746 0.07197 0.0
C566 C 0.27412 0.43252 0.06664 0.0
C567 C 0.29224 0.44041 0.07409 0.0
C568 C 0.29242 0.44305 0.08701 0.0
C569 C 0.18521 0.45282 0.07406 0.0
H570 H 0.2373 0.41049 0.14794 0.0
H571 H 0.24375 0.42286 0.12772 0.0
H572 H 0.18257 0.38233 0.11389 0.0
H573 H 0.17611 0.36992 0.1341 0.0
H574 H 0.24491 0.41286 0.10602 0.0
H575 H 0.19043 0.41367 0.10573 0.0
H576 H 0.22724 0.43652 0.07632 0.0
H577 H 0.21454 0.45903 0.07982 0.0
H578 H 0.1666 0.40214 0.08721 0.0
H579 H 0.1427 0.41025 0.07798 0.0
H580 H 0.27572 0.44071 0.10229 0.0
H581 H 0.24294 0.42124 0.06595 0.0
H582 H 0.19064 0.46714 0.07058 0.0
H583 H 0.30604 0.44885 0.09304 0.0
H584 H 0.27344 0.43049 0.05665 0.0
C585 C 0.4591 0.91629 0.19497 0.0
C586 C 0.45615 0.93198 0.19206 0.0
C587 C 0.45649 0.9099 0.20676 0.0
C588 C 0.45083 0.91903 0.21592 0.0
C589 C 0.44761 0.93455 0.21298 0.0
C590 C 0.45031 0.94101 0.20117 0.0
C591 C 0.44856 0.9125 0.22854 0.0
C592 C 0.46255 0.90856 0.23435 0.0
C593 C 0.46046 0.90203 0.24618 0.0
C594 C 0.44418 0.89955 0.25226 0.0
C595 C 0.42992 0.90328 0.24656 0.0
C596 C 0.43232 0.90987 0.23472 0.0
C597 C 0.4122 0.89964 0.25279 0.0
C598 C 0.40227 0.88274 0.25912 0.0
C599 C 0.40487 0.9128 0.25229 0.0
C600 C 0.38795 0.90908 0.25794 0.0
C601 C 0.37796 0.89211 0.2642 0.0
C602 C 0.4751 0.89743 0.25207 0.0
C603 C 0.48173 0.88646 0.24517 0.0
C604 C 0.48245 0.90385 0.2646 0.0
C605 C 0.49619 0.89942 0.27011 0.0
C606 C 0.50274 0.88836 0.26321 0.0
C607 C 0.49536 0.88193 0.25069 0.0
C608 C 0.38539 0.87904 0.26477 0.0
H609 H 0.46382 0.90917 0.1882 0.0
H610 H 0.45885 0.89775 0.2087 0.0
H611 H 0.44336 0.94195 0.21986 0.0
H612 H 0.44777 0.95302 0.19918 0.0
H613 H 0.47532 0.9109 0.22974 0.0
H614 H 0.42116 0.91228 0.2301 0.0
H615 H 0.44248 0.89448 0.26138 0.0
H616 H 0.40735 0.87216 0.25956 0.0
H617 H 0.41228 0.92605 0.24759 0.0
H618 H 0.38253 0.91936 0.25723 0.0
H619 H 0.47618 0.88115 0.23552 0.0
H620 H 0.47772 0.91246 0.27013 0.0
H621 H 0.37822 0.86597 0.26966 0.0
H622 H 0.50026 0.87353 0.24511 0.0
H623 H 0.50149 0.90444 0.27981 0.0
C624 C 0.03781 0.50266 0.21146 0.0
C625 C 0.04575 0.5185 0.20411 0.0
C626 C 0.0438 0.5059 0.22418 0.0
C627 C 0.05795 0.52502 0.22976 0.0
C628 C 0.06605 0.54075 0.22232 0.0
C629 C 0.05995 0.53755 0.20967 0.0
C630 C 0.06454 0.52869 0.24326 0.0
C631 C 0.06788 0.51506 0.24927 0.0
C632 C 0.07534 0.51914 0.26184 0.0
C633 C 0.07942 0.53712 0.2684 0.0
C634 C 0.07626 0.55096 0.26254 0.0
C635 C 0.06848 0.54643 0.25004 0.0
C636 C 0.08221 0.57065 0.2692 0.0
C637 C 0.07874 0.57244 0.28161 0.0
C638 C 0.09202 0.58796 0.26322 0.0
C639 C 0.09836 0.60661 0.26951 0.0
C640 C 0.09515 0.60845 0.28196 0.0
C641 C 0.0798 0.50512 0.26796 0.0
C642 C 0.06675 0.48448 0.26579 0.0
C643 C 0.09736 0.5123 0.27587 0.0
C644 C 0.10177 0.49918 0.28149 0.0
C645 C 0.08876 0.47856 0.27931 0.0
C646 C 0.07119 0.47133 0.27139 0.0
C647 C 0.08512 0.59114 0.28793 0.0
H648 H 0.02675 0.48784 0.20741 0.0
H649 H 0.03715 0.49349 0.22966 0.0
H650 H 0.07735 0.55556 0.22622 0.0
H651 H 0.06662 0.54996 0.2042 0.0
H652 H 0.06553 0.50164 0.24403 0.0
H653 H 0.06552 0.55684 0.24557 0.0
H654 H 0.08549 0.54053 0.27803 0.0
H655 H 0.07108 0.55938 0.28645 0.0
H656 H 0.09517 0.58716 0.25371 0.0
H657 H 0.10578 0.61961 0.26458 0.0
H658 H 0.053 0.47849 0.25984 0.0
H659 H 0.10793 0.52808 0.27754 0.0
H660 H 0.08253 0.59207 0.29755 0.0
H661 H 0.06078 0.45552 0.26964 0.0
H662 H 0.1156 0.5052 0.28736 0.0
C663 C 0.44625 0.51209 0.20183 0.0
C664 C 0.46503 0.51526 0.19947 0.0
C665 C 0.44226 0.51483 0.21391 0.0
C666 C 0.45698 0.52094 0.2239 0.0
C667 C 0.4756 0.52373 0.2216 0.0
C668 C 0.47956 0.52083 0.20953 0.0
C669 C 0.45316 0.52523 0.23659 0.0
C670 C 0.43538 0.51218 0.24126 0.0
C671 C 0.43136 0.51663 0.25308 0.0
C672 C 0.44536 0.53445 0.26019 0.0
C673 C 0.4632 0.54766 0.25566 0.0
C674 C 0.46705 0.54286 0.24389 0.0
C675 C 0.47751 0.56685 0.26299 0.0
C676 C 0.47085 0.57866 0.26887 0.0
C677 C 0.49794 0.57374 0.26391 0.0
C678 C 0.51142 0.59212 0.27048 0.0
C679 C 0.50477 0.60405 0.27621 0.0
C680 C 0.41242 0.50289 0.25795 0.0
C681 C 0.39447 0.49361 0.2502 0.0
C682 C 0.41211 0.49924 0.27044 0.0
C683 C 0.39425 0.48683 0.27512 0.0
C684 C 0.37629 0.47772 0.2674 0.0
C685 C 0.37661 0.48114 0.25487 0.0
C686 C 0.48433 0.59707 0.27539 0.0
H687 H 0.4348 0.50809 0.19432 0.0
H688 H 0.42784 0.5128 0.2154 0.0
H689 H 0.48714 0.52818 0.22915 0.0
H690 H 0.49405 0.52302 0.2081 0.0
H691 H 0.42481 0.4984 0.23574 0.0
H692 H 0.48053 0.55325 0.24018 0.0
H693 H 0.44228 0.53817 0.26924 0.0
H694 H 0.45521 0.57384 0.26824 0.0
H695 H 0.5035 0.5649 0.25954 0.0
H696 H 0.52709 0.59716 0.27087 0.0
H697 H 0.39414 0.49633 0.24058 0.0
H698 H 0.4257 0.50586 0.27661 0.0
H699 H 0.47873 0.60583 0.27981 0.0
H700 H 0.36299 0.47452 0.24873 0.0
H701 H 0.39452 0.48423 0.28477 0.0
C702 C 0.52559 0.01822 0.03711 0.0
Eu703 Eu 0.50913 0.01086 0.01444 0.0
C704 C 0.51928 0.01155 0.04922 0.0
C705 C 0.52864 0.02484 0.05994 0.0
C706 C 0.52274 0.01887 0.07153 0.0
C707 C 0.50734 0.99947 0.07259 0.0
C708 C 0.49792 0.98621 0.06178 0.0
C709 C 0.50384 0.9922 0.05019 0.0
C710 C 0.49495 0.03173 0.00321 0.0
C711 C 0.46189 0.97731 0.01262 0.0
C712 C 0.46904 0.98459 0.96638 0.0
Eu713 Eu 0.48521 0.99168 0.98912 0.0
C714 C 0.47596 0.99073 0.95428 0.0
C715 C 0.46712 0.97701 0.9437 0.0
C716 C 0.47376 0.98239 0.93215 0.0
C717 C 0.48939 0.00163 0.931 0.0
C718 C 0.4982 0.01537 0.94165 0.0
C719 C 0.49156 0.00996 0.9532 0.0
C720 C 0.49966 0.97098 0.00034 0.0
C721 C 0.53256 0.02512 0.99093 0.0
O722 O 0.52539 0.00508 0.02892 0.0
O723 O 0.5187 0.02882 0.03235 0.0
O724 O 0.51212 0.03998 0.00968 0.0
O725 O 0.48578 0.01317 0.00347 0.0
O726 O 0.47947 0.98619 0.01921 0.0
O727 O 0.45989 0.97931 0.00075 0.0
O728 O 0.47007 0.99837 0.97442 0.0
O729 O 0.47468 0.97317 0.97138 0.0
O730 O 0.48246 0.96259 0.99388 0.0
O731 O 0.50863 0.98951 2e-05 0.0
O732 O 0.51504 0.01598 0.98427 0.0
O733 O 0.53449 0.02345 0.00286 0.0
H734 H 0.54049 0.03987 0.05934 0.0
H735 H 0.53011 0.02953 0.07965 0.0
H736 H 0.48617 0.9711 0.06228 0.0
H737 H 0.49643 0.9817 0.04201 0.0
H738 H 0.45506 0.9621 0.94436 0.0
H739 H 0.4665 0.97155 0.92411 0.0
H740 H 0.51041 0.03022 0.9411 0.0
H741 H 0.49868 0.02077 0.96127 0.0
C742 C 0.99878 0.52222 0.03501 0.0
Eu743 Eu 0.99657 0.50424 0.0135 0.0
C744 C 0.00225 0.52004 0.04807 0.0
C745 C 0.99769 0.50152 0.05189 0.0
C746 C 0.00067 0.49966 0.06441 0.0
C747 C 0.00838 0.51633 0.07331 0.0
C748 C 0.0133 0.53492 0.06934 0.0
C749 C 0.01022 0.53673 0.05684 0.0
C750 C 0.9708 0.46577 0.00505 0.0
C751 C 0.02591 0.48557 0.0143 0.0
C752 C 0.0035 0.47177 0.9678 0.0
Eu753 Eu 0.00545 0.48941 0.98938 0.0
C754 C 0.00068 0.47467 0.9548 0.0
C755 C 0.00633 0.49363 0.9513 0.0
C756 C 0.00391 0.49621 0.93886 0.0
C757 C 0.99563 0.47984 0.9297 0.0
C758 C 0.98968 0.46082 0.93333 0.0
C759 C 0.99224 0.45829 0.94576 0.0
C760 C 0.03109 0.52797 0.99785 0.0
C761 C 0.97595 0.50795 0.98861 0.0
O762 O 0.0139 0.52771 0.02855 0.0
O763 O 0.98213 0.50821 0.02897 0.0
O764 O 0.9656 0.47723 0.0108 0.0
O765 O 0.98926 0.47457 0.00487 0.0
O766 O 0.02078 0.49766 0.01989 0.0
O767 O 0.01896 0.4776 0.00275 0.0
O768 O 0.98818 0.46642 0.97406 0.0
O769 O 0.02014 0.48527 0.97411 0.0
O770 O 0.03641 0.5166 0.99212 0.0
O771 O 0.01263 0.519 0.99796 0.0
O772 O 0.98113 0.4959 0.98301 0.0
O773 O 0.98291 0.51593 0.00015 0.0
H774 H 0.99166 0.48847 0.0452 0.0
H775 H 0.99659 0.48511 0.06714 0.0
H776 H 0.01966 0.54814 0.0759 0.0
H777 H 0.01403 0.55118 0.05401 0.0
H778 H 0.01277 0.50647 0.95819 0.0
H779 H 0.00884 0.51108 0.9364 0.0
H780 H 0.98289 0.44783 0.92657 0.0
H781 H 0.98763 0.44353 0.94833 0.0
C782 C 0.47394 0.48121 0.96851 0.0
Eu783 Eu 0.49112 0.49804 0.99064 0.0
C784 C 0.47993 0.48323 0.95593 0.0
C785 C 0.49903 0.49781 0.95379 0.0
C786 C 0.50463 0.49954 0.94177 0.0
C787 C 0.4912 0.48673 0.93171 0.0
C788 C 0.47204 0.47218 0.93395 0.0
C789 C 0.46648 0.47045 0.94597 0.0
C790 C 0.50559 0.53656 0.99918 0.0
C791 C 0.53893 0.51494 0.99182 0.0
C792 C 0.53329 0.52852 0.03782 0.0
Eu793 Eu 0.51649 0.51167 0.01565 0.0
C794 C 0.52716 0.52582 0.05036 0.0
C795 C 0.51128 0.50771 0.05298 0.0
C796 C 0.50557 0.5053 0.06496 0.0
C797 C 0.51553 0.52102 0.07451 0.0
C798 C 0.53127 0.53924 0.07175 0.0
C799 C 0.53704 0.54158 0.05978 0.0
C800 C 0.50182 0.47306 0.00713 0.0
C801 C 0.46863 0.49459 0.01445 0.0
O802 O 0.48211 0.47407 0.97588 0.0
O803 O 0.47339 0.49635 0.97392 0.0
O804 O 0.48834 0.52562 0.99295 0.0
O805 O 0.51476 0.52719 -0.00013 0.0
O806 O 0.52118 0.50355 0.98565 0.0
O807 O 0.5411 0.52266 0.00336 0.0
O808 O 0.52459 0.53525 0.03055 0.0
O809 O 0.53481 0.51406 0.03223 0.0
O810 O 0.51902 0.48388 0.01344 0.0
O811 O 0.49282 0.48259 0.00645 0.0
O812 O 0.48635 0.50603 0.02064 0.0
O813 O 0.46652 0.48691 0.00291 0.0
H814 H 0.50959 0.50782 0.9614 0.0
H815 H 0.51956 0.51074 0.94039 0.0
H816 H 0.46126 0.46226 0.9264 0.0
H817 H 0.45165 0.45915 0.94749 0.0
H818 H 0.50336 0.49541 0.04577 0.0
H819 H 0.49353 0.49102 0.06677 0.0
H820 H 0.53902 0.55178 0.0788 0.0
H821 H 0.54919 0.55574 0.05787 0.0
C822 C 0.1931 0.34885 0.36959 0.0
Eu823 Eu 0.17606 0.34272 0.34718 0.0
C824 C 0.18645 0.3448 0.38195 0.0
C825 C 0.16745 0.34085 0.38424 0.0
C826 C 0.16091 0.33601 0.39588 0.0
C827 C 0.17329 0.33511 0.40542 0.0
C828 C 0.19241 0.33931 0.40307 0.0
C829 C 0.1989 0.34408 0.39142 0.0
C830 C 0.16055 0.3632 0.33695 0.0
C831 C 0.12862 0.30934 0.34581 0.0
C832 C 0.13462 0.31744 0.29953 0.0
Eu833 Eu 0.15138 0.32386 0.32205 0.0
C834 C 0.14162 0.32232 0.28733 0.0
C835 C 0.16139 0.32869 0.28549 0.0
C836 C 0.16799 0.33363 0.27389 0.0
C837 C 0.15491 0.33225 0.26393 0.0
C838 C 0.13509 0.32585 0.26585 0.0
C839 C 0.12853 0.32095 0.27747 0.0
C840 C 0.16716 0.30356 0.33232 0.0
C841 C 0.19862 0.35727 0.32338 0.0
O842 O 0.18838 0.33317 0.36193 0.0
O843 O 0.19047 0.36212 0.36434 0.0
O844 O 0.17786 0.37169 0.34327 0.0
O845 O 0.15191 0.34461 0.33693 0.0
O846 O 0.1462 0.31895 0.3524 0.0
O847 O 0.12635 0.31074 0.33386 0.0
O848 O 0.13806 0.33253 0.30734 0.0
O849 O 0.1383 0.30475 0.30468 0.0
O850 O 0.14981 0.29496 0.32604 0.0
O851 O 0.17562 0.32211 0.33225 0.0
O852 O 0.18089 0.34849 0.31702 0.0
O853 O 0.20095 0.35496 0.33516 0.0
H854 H 0.15766 0.34138 0.37701 0.0
H855 H 0.14619 0.33305 0.39741 0.0
H856 H 0.2022 0.33845 0.41015 0.0
H857 H 0.21355 0.34694 0.38976 0.0
H858 H 0.1717 0.3298 0.29302 0.0
H859 H 0.18328 0.33831 0.27269 0.0
H860 H 0.12472 0.32492 0.25843 0.0
H861 H 0.11325 0.31619 0.27877 0.0
C862 C 0.66312 0.85356 0.36952 0.0
Eu863 Eu 0.66186 0.8373 0.34761 0.0
C864 C 0.66672 0.85052 0.38236 0.0
C865 C 0.66367 0.83205 0.38539 0.0
C866 C 0.6668 0.82928 0.39771 0.0
C867 C 0.67325 0.84501 0.40714 0.0
C868 C 0.67658 0.86357 0.40401 0.0
C869 C 0.6733 0.86627 0.39171 0.0
C870 C 0.63741 0.79888 0.33842 0.0
C871 C 0.69286 0.82062 0.3477 0.0
C872 C 0.67083 0.8086 0.30126 0.0
Eu873 Eu 0.67184 0.82482 0.32313 0.0
C874 C 0.66765 0.81144 0.28828 0.0
C875 C 0.6753 0.83053 0.28444 0.0
C876 C 0.67243 0.83284 0.27199 0.0
C877 C 0.66166 0.8161 0.26322 0.0
C878 C 0.65377 0.79703 0.26715 0.0
C879 C 0.6568 0.79473 0.27957 0.0
C880 C 0.69619 0.86325 0.3324 0.0
C881 C 0.64078 0.84148 0.32306 0.0
O882 O 0.67835 0.86019 0.36309 0.0
O883 O 0.64678 0.83945 0.36324 0.0
O884 O 0.63151 0.80942 0.34455 0.0
O885 O 0.65588 0.80848 0.33828 0.0
O886 O 0.68694 0.83177 0.35364 0.0
O887 O 0.68624 0.81324 0.33603 0.0
O888 O 0.6554 0.80217 0.30752 0.0
O889 O 0.68716 0.82249 0.30768 0.0
O890 O 0.70223 0.85275 0.32637 0.0
O891 O 0.67772 0.85356 0.33241 0.0
O892 O 0.64689 0.83055 0.31706 0.0
O893 O 0.6472 0.84866 0.33477 0.0
H894 H 0.65879 0.81977 0.37824 0.0
H895 H 0.66434 0.8149 0.39984 0.0
H896 H 0.68138 0.87589 0.4111 0.0
H897 H 0.67578 0.88064 0.38951 0.0
H898 H 0.68354 0.84365 0.29104 0.0
H899 H 0.67846 0.8477 0.26924 0.0
H900 H 0.64557 0.78387 0.26057 0.0
H901 H 0.65076 0.77989 0.28237 0.0
C902 C 0.13967 0.8144 0.30145 0.0
Eu903 Eu 0.15663 0.83098 0.32365 0.0
C904 C 0.14604 0.81672 0.28897 0.0
C905 C 0.165 0.83189 0.28704 0.0
C906 C 0.17108 0.83385 0.27515 0.0
C907 C 0.15827 0.82071 0.26499 0.0
C908 C 0.13925 0.80556 0.267 0.0
C909 C 0.13322 0.80358 0.27891 0.0
C910 C 0.17079 0.86941 0.3323 0.0
C911 C 0.2045 0.84822 0.32469 0.0
C912 C 0.19895 0.86142 0.37072 0.0
Eu913 Eu 0.18213 0.84467 0.34853 0.0
C914 C 0.19256 0.85871 0.38319 0.0
C915 C 0.17538 0.84137 0.38542 0.0
C916 C 0.16942 0.83886 0.39734 0.0
C917 C 0.18047 0.85373 0.40722 0.0
C918 C 0.19757 0.87119 0.40486 0.0
C919 C 0.20356 0.87363 0.39295 0.0
C920 C 0.16792 0.8062 0.33993 0.0
C921 C 0.13421 0.82714 0.34751 0.0
O922 O 0.14762 0.80709 0.30884 0.0
O923 O 0.13904 0.82947 0.30692 0.0
O924 O 0.15345 0.8583 0.32621 0.0
O925 O 0.18017 0.86024 0.33285 0.0
O926 O 0.18673 0.83675 0.31857 0.0
O927 O 0.20671 0.85588 0.33625 0.0
O928 O 0.19055 0.8684 0.36339 0.0
O929 O 0.20021 0.84678 0.36517 0.0
O930 O 0.18518 0.81722 0.34613 0.0
O931 O 0.15864 0.81546 0.33936 0.0
O932 O 0.15196 0.83872 0.35364 0.0
O933 O 0.13206 0.81952 0.33595 0.0
H934 H 0.17506 0.84222 0.29473 0.0
H935 H 0.18573 0.84579 0.27389 0.0
H936 H 0.12915 0.79502 0.25941 0.0
H937 H 0.11857 0.79173 0.28028 0.0
H938 H 0.16664 0.82973 0.37795 0.0
H939 H 0.15631 0.82515 0.39883 0.0
H940 H 0.20622 0.8831 0.41219 0.0
H941 H 0.21676 0.88719 0.39134 0.0
C942 C 0.85893 0.6862 0.70395 0.0
Eu943 Eu 0.84233 0.67819 0.68128 0.0
C944 C 0.85269 0.6787 0.7159 0.0
C945 C 0.86081 0.69178 0.72679 0.0
C946 C 0.8546 0.68509 0.73819 0.0
C947 C 0.84012 0.66516 0.7389 0.0
C948 C 0.83205 0.65205 0.72793 0.0
C949 C 0.83827 0.65877 0.71653 0.0
C950 C 0.82802 0.69866 0.66968 0.0
C951 C 0.79524 0.64458 0.68003 0.0
C952 C 0.80091 0.64975 0.63365 0.0
Eu953 Eu 0.81788 0.65802 0.65625 0.0
C954 C 0.80715 0.65568 0.62141 0.0
C955 C 0.79708 0.64221 0.61084 0.0
C956 C 0.80299 0.64748 0.59914 0.0
C957 C 0.81915 0.66633 0.59782 0.0
C958 C 0.82925 0.67978 0.60847 0.0
C959 C 0.82328 0.67451 0.62016 0.0
C960 C 0.83229 0.63768 0.66797 0.0
C961 C 0.86515 0.69164 0.65749 0.0
O962 O 0.8601 0.67404 0.69564 0.0
O963 O 0.85076 0.69576 0.69928 0.0
O964 O 0.84531 0.70708 0.67603 0.0
O965 O 0.81882 0.68018 0.67026 0.0
O966 O 0.81298 0.65343 0.6864 0.0
O967 O 0.79291 0.64639 0.66816 0.0
O968 O 0.80163 0.66349 0.64158 0.0
O969 O 0.8075 0.63909 0.63868 0.0
O970 O 0.81494 0.62915 0.66169 0.0
O971 O 0.84137 0.65611 0.66726 0.0
O972 O 0.84751 0.68208 0.65097 0.0
O973 O 0.86741 0.69061 0.66949 0.0
H974 H 0.87194 0.70721 0.72646 0.0
H975 H 0.86129 0.69548 0.74648 0.0
H976 H 0.82072 0.63667 0.72814 0.0
H977 H 0.83173 0.64843 0.7082 0.0
H978 H 0.78467 0.62757 0.61165 0.0
H979 H 0.79507 0.63669 0.59115 0.0
H980 H 0.8416 0.69449 0.60775 0.0
H981 H 0.83122 0.68516 0.62821 0.0
C982 C 0.32565 0.18458 0.70204 0.0
Eu983 Eu 0.32658 0.16949 0.68022 0.0
C984 C 0.32926 0.18228 0.71503 0.0
C985 C 0.32394 0.19148 0.72426 0.0
C986 C 0.3272 0.18946 0.7367 0.0
C987 C 0.33593 0.17823 0.74012 0.0
C988 C 0.34111 0.16888 0.73077 0.0
C989 C 0.33776 0.17086 0.71832 0.0
C990 C 0.30258 0.13145 0.67017 0.0
C991 C 0.35808 0.15342 0.68075 0.0
C992 C 0.338 0.14282 0.63407 0.0
Eu993 Eu 0.33798 0.15817 0.65599 0.0
C994 C 0.33435 0.14538 0.62106 0.0
C995 C 0.34431 0.16408 0.61659 0.0
C996 C 0.34092 0.16599 0.60413 0.0
C997 C 0.32741 0.1493 0.59595 0.0
C998 C 0.31727 0.13068 0.60049 0.0
C999 C 0.32077 0.12873 0.61292 0.0
C1000 C 0.36205 0.19621 0.66602 0.0
C1001 C 0.30681 0.1747 0.65546 0.0
O1002 O 0.34116 0.19239 0.69585 0.0
O1003 O 0.3102 0.16945 0.69569 0.0
O1004 O 0.29623 0.14186 0.67596 0.0
O1005 O 0.32114 0.14103 0.67063 0.0
O1006 O 0.35164 0.16414 0.68665 0.0
O1007 O 0.3521 0.14647 0.66897 0.0
O1008 O 0.32258 0.13532 0.64035 0.0
O1009 O 0.35393 0.15725 0.64054 0.0
O1010 O 0.36835 0.18585 0.66009 0.0
O1011 O 0.34349 0.18661 0.66558 0.0
O1012 O 0.31331 0.16409 0.64951 0.0
O1013 O 0.31254 0.18133 0.6673 0.0
H1014 H 0.31721 0.20021 0.72185 0.0
H1015 H 0.32271 0.19656 0.74363 0.0
H1016 H 0.34803 0.16029 0.73309 0.0
H1017 H 0.34183 0.16355 0.71126 0.0
H1018 H 0.35475 0.17721 0.62268 0.0
H1019 H 0.34878 0.18056 0.6009 0.0
H1020 H 0.30691 0.11753 0.59438 0.0
H1021 H 0.31296 0.11418 0.61617 0.0
C1022 C 0.80685 0.14702 0.63528 0.0
Eu1023 Eu 0.82387 0.16404 0.65737 0.0
C1024 C 0.81325 0.14915 0.62279 0.0
C1025 C 0.8289 0.16723 0.6199 0.0
C1026 C 0.83513 0.16894 0.60805 0.0
C1027 C 0.82599 0.1525 0.59896 0.0
C1028 C 0.81043 0.13438 0.60193 0.0
C1029 C 0.80409 0.13274 0.61375 0.0
C1030 C 0.83836 0.20255 0.66589 0.0
C1031 C 0.87174 0.18109 0.65813 0.0
C1032 C 0.86685 0.19453 0.70426 0.0
Eu1033 Eu 0.84972 0.17771 0.68215 0.0
C1034 C 0.8605 0.19253 0.71676 0.0
C1035 C 0.84348 0.17529 0.71931 0.0
C1036 C 0.83743 0.17363 0.73121 0.0
C1037 C 0.84819 0.18927 0.7407 0.0
C1038 C 0.86514 0.20657 0.73805 0.0
C1039 C 0.87125 0.20816 0.72616 0.0
C1040 C 0.83511 0.13918 0.67352 0.0
C1041 C 0.80186 0.16059 0.68138 0.0
O1042 O 0.81484 0.13984 0.64275 0.0
O1043 O 0.80597 0.16201 0.64066 0.0
O1044 O 0.82101 0.19156 0.65977 0.0
O1045 O 0.8476 0.19323 0.66646 0.0
O1046 O 0.85389 0.16991 0.65203 0.0
O1047 O 0.87417 0.18854 0.66976 0.0
O1048 O 0.85909 0.20193 0.69681 0.0
O1049 O 0.86732 0.17931 0.69888 0.0
O1050 O 0.85253 0.15012 0.67956 0.0
O1051 O 0.82598 0.1486 0.67308 0.0
O1052 O 0.8197 0.17206 0.68743 0.0
O1053 O 0.7995 0.15294 0.66981 0.0
H1054 H 0.83636 0.17999 0.62684 0.0
H1055 H 0.8473 0.183 0.60605 0.0
H1056 H 0.80304 0.12153 0.59507 0.0
H1057 H 0.79209 0.11865 0.61585 0.0
H1058 H 0.83485 0.16315 0.7121 0.0
H1059 H 0.82417 0.16023 0.73295 0.0
H1060 H 0.87382 0.21879 0.74519 0.0
H1061 H 0.88436 0.22161 0.72431 0.0
H1062 H 0.29445 0.88362 0.05824 0.0
H1063 H 0.32428 0.90577 0.04878 0.0
H1064 H 0.35155 0.87236 0.06037 0.0
H1065 H 0.32192 0.85027 0.06996 0.0
H1066 H 0.36427 0.9295 0.05949 0.0
H1067 H 0.3549 0.872 0.02263 0.0
H1068 H 0.33521 0.86893 0.03172 0.0
H1069 H 0.35461 0.86511 0.03809 0.0
C1070 C 0.30687 0.8811 0.05889 0.0
C1071 C 0.30575 0.86508 0.06477 0.0
C1072 C 0.32385 0.89372 0.05343 0.0
C1073 C 0.33995 0.89049 0.05371 0.0
C1074 C 0.3391 0.87484 0.05983 0.0
H1075 H 0.4598 0.97004 0.03695 0.0
H1076 H 0.4302 0.94946 0.047 0.0
C1077 C 0.32215 0.86223 0.06529 0.0
C1078 C 0.35762 0.90342 0.04754 0.0
H1079 H 0.38505 0.90281 0.02448 0.0
C1080 C 0.36882 0.92372 0.05182 0.0
C1081 C 0.36333 0.89582 0.03744 0.0
C1082 C 0.35132 0.87431 0.0321 0.0
C1083 C 0.38583 0.9366 0.04638 0.0
C1084 C 0.39187 0.92888 0.03652 0.0
C1085 C 0.38047 0.90864 0.03212 0.0
C1086 C 0.40983 0.94157 0.03051 0.0
C1087 C 0.39702 0.95841 0.05111 0.0
C1088 C 0.40823 0.9436 0.01784 0.0
C1089 C 0.42513 0.95524 0.01204 0.0
C1090 C 0.44398 0.96499 0.01879 0.0
C1091 C 0.44553 0.96281 0.03148 0.0
C1092 C 0.42861 0.95115 0.03727 0.0
H1093 H 0.38783 0.96272 0.05644 0.0
H1094 H 0.41026 0.96165 0.05735 0.0
H1095 H 0.40212 0.96776 0.04335 0.0
H1096 H 0.39386 0.93623 0.01245 0.0
H1097 H 0.42337 0.95655 0.00226 0.0
H1098 H 0.16632 0.45734 0.05254 0.0
H1099 H 0.14225 0.46562 0.04364 0.0
H1100 H 0.10609 0.44098 0.0733 0.0
H1101 H 0.13015 0.43274 0.08231 0.0
H1102 H 0.08475 0.42818 0.04997 0.0
H1103 H 0.13261 0.51027 0.05654 0.0
H1104 H 0.14337 0.49778 0.0485 0.0
H1105 H 0.1387 0.49398 0.06435 0.0
C1106 C 0.15337 0.4539 0.05725 0.0
C1107 C 0.15018 0.44444 0.06815 0.0
C1108 C 0.13964 0.45866 0.05216 0.0
C1109 C 0.12255 0.45418 0.05792 0.0
C1110 C 0.11923 0.44461 0.06874 0.0
H1111 H 0.04267 0.49824 0.03834 0.0
H1112 H 0.06525 0.49005 0.04956 0.0
C1113 C 0.13294 0.43983 0.07383 0.0
C1114 C 0.10783 0.45894 0.05244 0.0
H1115 H 0.10227 0.49721 0.04356 0.0
C1116 C 0.08853 0.44328 0.04864 0.0
C1117 C 0.11273 0.47868 0.05088 0.0
C1118 C 0.13292 0.49618 0.05538 0.0
C1119 C 0.07413 0.44678 0.04298 0.0
C1120 C 0.0793 0.46642 0.04092 0.0
C1121 C 0.09842 0.48214 0.04505 0.0
C1122 C 0.0652 0.47093 0.03424 0.0
C1123 C 0.0535 0.42944 0.03933 0.0
C1124 C 0.05784 0.46302 0.02189 0.0
C1125 C 0.04495 0.46764 0.01546 0.0
C1126 C 0.03926 0.48039 0.02124 0.0
C1127 C 0.04671 0.48835 0.03362 0.0
C1128 C 0.05963 0.4837 0.04004 0.0
H1129 H 0.05049 0.4166 0.04455 0.0
H1130 H 0.04217 0.43369 0.04093 0.0
H1131 H 0.0519 0.42452 0.02932 0.0
H1132 H 0.06229 0.45347 0.01717 0.0
H1133 H 0.0396 0.46134 0.00592 0.0
H1134 H 0.59786 0.72237 0.04176 0.0
H1135 H 0.58629 0.68875 0.03189 0.0
H1136 H 0.53007 0.66791 0.04649 0.0
H1137 H 0.54158 0.70135 0.0565 0.0
H1138 H 0.54883 0.64397 0.04989 0.0
H1139 H 0.54314 0.66052 0.00131 0.0
H1140 H 0.56616 0.67694 0.01065 0.0
H1141 H 0.5439 0.67632 0.01445 0.0
C1142 C 0.58307 0.7106 0.0429 0.0
C1143 C 0.57058 0.7145 0.04985 0.0
C1144 C 0.57645 0.69147 0.03719 0.0
C1145 C 0.55728 0.67597 0.03837 0.0
C1146 C 0.54488 0.67975 0.04542 0.0
H1147 H 0.48725 0.55841 0.99879 0.0
H1148 H 0.50022 0.59247 0.00838 0.0
C1149 C 0.55143 0.69886 0.05106 0.0
C1150 C 0.55014 0.65571 0.03238 0.0
H1151 H 0.53693 0.6282 0.0042 0.0
C1152 C 0.54626 0.64049 0.03991 0.0
C1153 C 0.54664 0.65128 0.01936 0.0
C1154 C 0.55001 0.66704 0.01092 0.0
C1155 C 0.53909 0.62089 0.03473 0.0
C1156 C 0.53584 0.61652 0.02171 0.0
C1157 C 0.53956 0.6317 0.01418 0.0
C1158 C 0.52827 0.59616 0.01574 0.0
C1159 C 0.5347 0.60492 0.0432 0.0
C1160 C 0.53991 0.58717 0.01659 0.0
C1161 C 0.53259 0.56781 0.01108 0.0
C1162 C 0.51351 0.55717 0.00467 0.0
C1163 C 0.50199 0.56629 0.0037 0.0
C1164 C 0.50936 0.5857 0.00916 0.0
H1165 H 0.53425 0.60993 0.0529 0.0
H1166 H 0.52033 0.59132 0.03995 0.0
H1167 H 0.54644 0.6009 0.04313 0.0
H1168 H 0.55465 0.59514 0.0215 0.0
H1169 H 0.54184 0.56116 0.01188 0.0
H1170 H 0.83734 0.2839 0.96784 0.0
H1171 H 0.85983 0.31707 0.97864 0.0
H1172 H 0.89304 0.33346 0.94699 0.0
H1173 H 0.87045 0.30049 0.93604 0.0
H1174 H 0.90258 0.337 0.98405 0.0
H1175 H 0.87756 0.3769 0.95388 0.0
H1176 H 0.86325 0.35036 0.95449 0.0
H1177 H 0.88443 0.36071 0.9459 0.0
C1178 C 0.84938 0.29461 0.96316 0.0
C1179 C 0.85207 0.28962 0.95107 0.0
C1180 C 0.86225 0.31348 0.96936 0.0
C1181 C 0.87791 0.32773 0.96354 0.0
C1182 C 0.88087 0.32271 0.95157 0.0
H1183 H 0.98027 0.43956 0.99429 0.0
H1184 H 0.95746 0.40568 0.98465 0.0
C1185 C 0.86807 0.30383 0.94538 0.0
C1186 C 0.89112 0.34789 0.96997 0.0
H1187 H 0.90551 0.39675 0.9685 0.0
C1188 C 0.90322 0.35008 0.98069 0.0
C1189 C 0.8917 0.36484 0.96561 0.0
C1190 C 0.87844 0.36318 0.9544 0.0
C1191 C 0.91621 0.36891 0.98705 0.0
C1192 C 0.91717 0.38591 0.9825 0.0
C1193 C 0.9048 0.38367 0.97191 0.0
C1194 C 0.93095 0.4062 0.98857 0.0
C1195 C 0.92867 0.37048 0.99866 0.0
C1196 C 0.92356 0.41778 0.99378 0.0
C1197 C 0.93654 0.43713 0.99928 0.0
C1198 C 0.9571 0.44522 0.99953 0.0
C1199 C 0.96447 0.43363 0.99426 0.0
C1200 C 0.95149 0.41427 0.98881 0.0
H1201 H 0.92295 0.35595 0.00247 0.0
H1202 H 0.94404 0.37558 0.99649 0.0
H1203 H 0.9292 0.38149 0.00589 0.0
H1204 H 0.90774 0.41182 0.99361 0.0
H1205 H 0.93049 0.44579 0.00323 0.0
H1206 H 0.70448 0.5829 0.94342 0.0
H1207 H 0.67539 0.5766 0.95388 0.0
H1208 H 0.64794 0.514 0.94188 0.0
H1209 H 0.67673 0.52015 0.93119 0.0
H1210 H 0.6344 0.55748 0.94341 0.0
H1211 H 0.64694 0.5175 0.98019 0.0
H1212 H 0.66611 0.53303 0.97093 0.0
H1213 H 0.64713 0.50848 0.96462 0.0
C1214 C 0.69218 0.56781 0.94289 0.0
C1215 C 0.693 0.55201 0.93651 0.0
C1216 C 0.67563 0.56424 0.94893 0.0
C1217 C 0.65968 0.54482 0.94878 0.0
C1218 C 0.66028 0.52905 0.94229 0.0
H1219 H 0.54044 0.50388 0.9677 0.0
H1220 H 0.56988 0.51183 0.95727 0.0
C1221 C 0.67677 0.5326 0.93622 0.0
C1222 C 0.64232 0.54102 0.95535 0.0
H1223 H 0.61658 0.51742 0.97907 0.0
C1224 C 0.6305 0.54878 0.95123 0.0
C1225 C 0.63746 0.52984 0.96562 0.0
C1226 C 0.65013 0.52184 0.97071 0.0
C1227 C 0.61365 0.54531 0.95698 0.0
C1228 C 0.60848 0.53365 0.96703 0.0
C1229 C 0.62052 0.52622 0.9713 0.0
C1230 C 0.59065 0.52906 0.9733 0.0
C1231 C 0.60164 0.5543 0.95236 0.0
C1232 C 0.59258 0.53582 0.98584 0.0
C1233 C 0.57578 0.53129 0.99185 0.0
C1234 C 0.55673 0.51977 0.98545 0.0
C1235 C 0.55487 0.51287 0.9729 0.0
C1236 C 0.57168 0.51747 0.96689 0.0
H1237 H 0.61005 0.56653 0.94661 0.0
H1238 H 0.58812 0.54266 0.94658 0.0
H1239 H 0.59692 0.56017 0.96021 0.0
H1240 H 0.6071 0.54469 0.99095 0.0
H1241 H 0.57777 0.53679 0.00152 0.0
H1242 H 0.40258 0.11613 0.95796 0.0
H1243 H 0.41318 0.09485 0.96754 0.0
H1244 H 0.46953 0.12643 0.95291 0.0
H1245 H 0.459 0.14759 0.94321 0.0
H1246 H 0.44937 0.08233 0.94996 0.0
H1247 H 0.45718 0.11631 0.99804 0.0
H1248 H 0.43421 0.10828 0.98869 0.0
H1249 H 0.45673 0.12856 0.98459 0.0
C1250 C 0.41714 0.11839 0.9567 0.0
C1251 C 0.43002 0.13359 0.94992 0.0
C1252 C 0.42321 0.10633 0.96222 0.0
C1253 C 0.44217 0.10925 0.961 0.0
C1254 C 0.45486 0.12405 0.95399 0.0
H1255 H 0.5136 0.0714 0.00111 0.0
H1256 H 0.50014 0.08964 0.99055 0.0
C1257 C 0.44888 0.13618 0.94853 0.0
C1258 C 0.44904 0.09717 0.96723 0.0
H1259 H 0.46343 0.08973 0.99567 0.0
C1260 C 0.45237 0.08384 0.95995 0.0
C1261 C 0.4531 0.09941 0.98024 0.0
C1262 C 0.45028 0.11399 0.9884 0.0
C1263 C 0.45962 0.07257 0.96539 0.0
C1264 C 0.46356 0.07474 0.97841 0.0
C1265 C 0.46028 0.0881 0.98568 0.0
C1266 C 0.47157 0.0636 0.98466 0.0
C1267 C 0.46342 0.05873 0.95722 0.0
C1268 C 0.45983 0.043 0.98491 0.0
C1269 C 0.46742 0.0326 0.99099 0.0
C1270 C 0.48688 0.04266 0.99685 0.0
C1271 C 0.49856 0.0633 0.99664 0.0
C1272 C 0.49093 0.07371 0.99062 0.0
H1273 H 0.46279 0.06126 0.94731 0.0
H1274 H 0.47815 0.06062 0.96014 0.0
H1275 H 0.45206 0.04312 0.95813 0.0
H1276 H 0.44476 0.03503 0.98049 0.0
H1277 H 0.45801 0.01673 0.99117 0.0
H1278 H 0.67688 0.14394 0.93197 0.0
H1279 H 0.64602 0.12356 0.94099 0.0
H1280 H 0.67167 0.09222 0.9583 0.0
H1281 H 0.70249 0.11226 0.9491 0.0
H1282 H 0.6322 0.06742 0.9461 0.0
H1283 H 0.63934 0.12939 0.97831 0.0
H1284 H 0.64145 0.13401 0.96234 0.0
H1285 H 0.65991 0.13085 0.97081 0.0
C1286 C 0.67589 0.13257 0.93759 0.0
C1287 C 0.69214 0.12974 0.93986 0.0
C1288 C 0.65832 0.12109 0.94282 0.0
C1289 C 0.6567 0.1066 0.95042 0.0
C1290 C 0.67271 0.10343 0.95251 0.0
H1291 H 0.57079 0.04721 0.00162 0.0
H1292 H 0.60055 0.06658 0.99141 0.0
C1293 C 0.69032 0.11496 0.94732 0.0
C1294 C 0.63832 0.0948 0.95625 0.0
H1295 H 0.6094 0.09861 0.97726 0.0
C1296 C 0.62718 0.0742 0.95291 0.0
C1297 C 0.63198 0.10372 0.96522 0.0
C1298 C 0.64384 0.12568 0.9695 0.0
C1299 C 0.6097 0.06226 0.95823 0.0
C1300 C 0.60316 0.07125 0.96701 0.0
C1301 C 0.6144 0.09182 0.97044 0.0
C1302 C 0.58498 0.05948 0.97306 0.0
C1303 C 0.59857 0.0401 0.95459 0.0
C1304 C 0.56636 0.04927 0.96611 0.0
C1305 C 0.54928 0.03817 0.97191 0.0
C1306 C 0.55055 0.03715 0.98477 0.0
C1307 C 0.56925 0.04761 0.9917 0.0
C1308 C 0.58629 0.05871 0.98589 0.0
H1309 H 0.6078 0.03509 0.94992 0.0
H1310 H 0.59343 0.03192 0.96283 0.0
H1311 H 0.58535 0.03606 0.94809 0.0
H1312 H 0.56502 0.04996 0.95622 0.0
H1313 H 0.53513 0.03034 0.96629 0.0
H1314 H 0.86933 0.55667 0.91967 0.0
H1315 H 0.8935 0.54877 0.92893 0.0
H1316 H 0.86077 0.53082 0.9607 0.0
H1317 H 0.83627 0.53824 0.95138 0.0
H1318 H 0.91712 0.56462 0.95195 0.0
H1319 H 0.86709 0.48292 0.94941 0.0
H1320 H 0.86127 0.49861 0.94067 0.0
H1321 H 0.85777 0.49736 0.95683 0.0
C1322 C 0.86717 0.55085 0.92857 0.0
C1323 C 0.85082 0.54796 0.93476 0.0
C1324 C 0.88104 0.54646 0.93387 0.0
C1325 C 0.87875 0.53896 0.94541 0.0
C1326 C 0.86262 0.5363 0.95169 0.0
H1327 H 0.96355 0.5334 0.99671 0.0
H1328 H 0.94069 0.54117 0.98558 0.0
C1329 C 0.84875 0.54074 0.94642 0.0
C1330 C 0.89344 0.53424 0.95096 0.0
H1331 H 0.89849 0.49633 0.96111 0.0
C1332 C 0.9131 0.54968 0.9539 0.0
C1333 C 0.88817 0.51468 0.95332 0.0
C1334 C 0.86748 0.49737 0.9498 0.0
C1335 C 0.92755 0.54618 0.95947 0.0
C1336 C 0.9221 0.52677 0.96227 0.0
C1337 C 0.90257 0.51122 0.95903 0.0
C1338 C 0.93635 0.52236 0.96884 0.0
C1339 C 0.94855 0.56325 0.96225 0.0
C1340 C 0.94122 0.50893 0.96318 0.0
C1341 C 0.95426 0.50437 0.96953 0.0
C1342 C 0.96252 0.51307 0.9817 0.0
C1343 C 0.95754 0.52649 0.98733 0.0
C1344 C 0.94455 0.53105 0.98097 0.0
H1345 H 0.95137 0.57569 0.95669 0.0
H1346 H 0.9512 0.56898 0.97218 0.0
H1347 H 0.95933 0.55835 0.96039 0.0
H1348 H 0.93493 0.50198 0.95384 0.0
H1349 H 0.95774 0.49394 0.96493 0.0
H1350 H 0.40922 0.28668 0.96503 0.0
H1351 H 0.42106 0.31987 0.97564 0.0
H1352 H 0.47415 0.34295 0.95716 0.0
H1353 H 0.46264 0.30985 0.94667 0.0
H1354 H 0.45741 0.34527 0.9913 0.0
H1355 H 0.45065 0.3788 0.94907 0.0
H1356 H 0.43853 0.35226 0.94969 0.0
H1357 H 0.46449 0.36615 0.94785 0.0
C1358 C 0.4235 0.29878 0.96331 0.0
C1359 C 0.43492 0.29565 0.95493 0.0
C1360 C 0.43018 0.31772 0.96934 0.0
C1361 C 0.44832 0.33385 0.96703 0.0
C1362 C 0.45992 0.33074 0.95887 0.0
H1363 H 0.51985 0.45089 0.00731 0.0
H1364 H 0.50622 0.41656 0.99803 0.0
C1365 C 0.45329 0.31182 0.95286 0.0
C1366 C 0.4552 0.35399 0.97316 0.0
H1367 H 0.46726 0.40094 0.9673 0.0
C1368 C 0.4595 0.35745 0.98608 0.0
C1369 C 0.45767 0.36973 0.96632 0.0
C1370 C 0.45244 0.3666 0.95247 0.0
C1371 C 0.46666 0.37644 0.99233 0.0
C1372 C 0.46975 0.39232 0.98543 0.0
C1373 C 0.46503 0.38874 0.97254 0.0
C1374 C 0.47782 0.4128 0.99139 0.0
C1375 C 0.47068 0.37932 0.00626 0.0
C1376 C 0.46646 0.4221 0.99055 0.0
C1377 C 0.47421 0.44166 0.9958 0.0
C1378 C 0.49353 0.45228 0.00188 0.0
C1379 C 0.50489 0.44297 0.00272 0.0
C1380 C 0.4971 0.42337 0.99749 0.0
H1381 H 0.46311 0.36498 0.01033 0.0
H1382 H 0.48685 0.38625 0.00888 0.0
H1383 H 0.46579 0.38935 0.01036 0.0
H1384 H 0.45158 0.4142 0.98583 0.0
H1385 H 0.46513 0.44848 0.99505 0.0
H1386 H 0.16281 0.68659 0.06415 0.0
H1387 H 0.14041 0.65413 0.05263 0.0
H1388 H 0.1107 0.67934 0.03248 0.0
H1389 H 0.13287 0.71187 0.0441 0.0
H1390 H 0.09835 0.63214 0.05146 0.0
H1391 H 0.12475 0.65033 0.00518 0.0
H1392 H 0.13892 0.6655 0.01933 0.0
H1393 H 0.11818 0.66703 0.01279 0.0
C1394 C 0.15144 0.68523 0.05733 0.0
C1395 C 0.14963 0.70184 0.05505 0.0
C1396 C 0.13873 0.66669 0.05071 0.0
C1397 C 0.12406 0.66441 0.04163 0.0
C1398 C 0.12217 0.6809 0.03931 0.0
H1399 H 0.0213 0.5535 0.00921 0.0
H1400 H 0.04385 0.58679 0.01977 0.0
C1401 C 0.13486 0.69947 0.04594 0.0
C1402 C 0.11045 0.64462 0.03483 0.0
H1403 H 0.09638 0.61876 0.00606 0.0
C1404 C 0.0979 0.62918 0.04154 0.0
C1405 C 0.11009 0.64083 0.02191 0.0
C1406 C 0.1238 0.65671 0.01435 0.0
C1407 C 0.0848 0.61004 0.03564 0.0
C1408 C 0.08415 0.60635 0.02268 0.0
C1409 C 0.09685 0.62172 0.01599 0.0
C1410 C 0.07052 0.58652 0.01595 0.0
C1411 C 0.07199 0.59383 0.04334 0.0
C1412 C 0.07809 0.5756 0.01006 0.0
C1413 C 0.06525 0.55659 0.00402 0.0
C1414 C 0.04466 0.54831 0.00374 0.0
C1415 C 0.03712 0.55948 0.00939 0.0
C1416 C 0.04996 0.57844 0.01545 0.0
H1417 H 0.07744 0.59789 0.05334 0.0
H1418 H 0.05668 0.59122 0.04218 0.0
H1419 H 0.07141 0.57968 0.04027 0.0
H1420 H 0.09394 0.58166 0.01031 0.0
H1421 H 0.07142 0.5483 0.99971 0.0
H1422 H 0.29765 0.42095 0.05414 0.0
H1423 H 0.32816 0.4309 0.04445 0.0
H1424 H 0.35968 0.48218 0.0715 0.0
H1425 H 0.32915 0.47278 0.08105 0.0
H1426 H 0.35343 0.47151 0.03554 0.0
H1427 H 0.39177 0.4511 0.07152 0.0
H1428 H 0.36514 0.43998 0.06948 0.0
H1429 H 0.3803 0.46498 0.07667 0.0
C1430 C 0.311 0.43444 0.05799 0.0
C1431 C 0.3109 0.44606 0.06839 0.0
C1432 C 0.32844 0.44001 0.05248 0.0
C1433 C 0.34612 0.45715 0.05735 0.0
C1434 C 0.34618 0.46875 0.06773 0.0
H1435 H 0.46667 0.50991 0.03732 0.0
H1436 H 0.43699 0.50155 0.04764 0.0
C1437 C 0.32873 0.46328 0.0732 0.0
C1438 C 0.3644 0.4632 0.05132 0.0
H1439 H 0.40954 0.46646 0.05491 0.0
C1440 C 0.36572 0.47041 0.03974 0.0
C1441 C 0.38039 0.46188 0.05693 0.0
C1442 C 0.37944 0.45397 0.06931 0.0
C1443 C 0.38276 0.47649 0.0336 0.0
C1444 C 0.39864 0.47477 0.03906 0.0
C1445 C 0.39734 0.46772 0.05073 0.0
C1446 C 0.41659 0.47992 0.03275 0.0
C1447 C 0.38373 0.48509 0.02145 0.0
C1448 C 0.415 0.47033 0.02103 0.0
C1449 C 0.43189 0.47518 0.01506 0.0
C1450 C 0.45076 0.48953 0.02078 0.0
C1451 C 0.45235 0.49885 0.03263 0.0
C1452 C 0.43541 0.49408 0.03855 0.0
H1453 H 0.37344 0.49097 0.02049 0.0
H1454 H 0.39895 0.49726 0.0205 0.0
H1455 H 0.37931 0.47323 0.01372 0.0
H1456 H 0.40068 0.45896 0.01652 0.0
H1457 H 0.43013 0.46755 0.00601 0.0
H1458 H 0.59638 0.88948 0.04297 0.0
H1459 H 0.58393 0.90897 0.03301 0.0
H1460 H 0.53196 0.88192 0.05253 0.0
H1461 H 0.54404 0.86211 0.06234 0.0
H1462 H 0.54672 0.89386 0.01803 0.0
H1463 H 0.55434 0.94274 0.05991 0.0
H1464 H 0.56713 0.92886 0.05918 0.0
H1465 H 0.54135 0.91658 0.06153 0.0
C1466 C 0.58225 0.8876 0.0451 0.0
C1467 C 0.57125 0.8743 0.0535 0.0
C1468 C 0.57523 0.89881 0.03945 0.0
C1469 C 0.55718 0.89704 0.04218 0.0
C1470 C 0.54612 0.88376 0.05051 0.0
H1471 H 0.4817 0.93128 0.00245 0.0
H1472 H 0.49614 0.91344 0.01245 0.0
C1473 C 0.55308 0.8725 0.05612 0.0
C1474 C 0.54958 0.90865 0.03606 0.0
H1475 H 0.53668 0.94399 0.04179 0.0
C1476 C 0.54459 0.90489 0.0232 0.0
C1477 C 0.54702 0.92312 0.04285 0.0
C1478 C 0.55288 0.92825 0.05662 0.0
C1479 C 0.53667 0.91496 0.01695 0.0
C1480 C 0.53355 0.92899 0.02379 0.0
C1481 C 0.53894 0.93307 0.03661 0.0
C1482 C 0.52479 0.9397 0.01777 0.0
C1483 C 0.53186 0.91066 0.00307 0.0
C1484 C 0.53606 0.96037 0.01766 0.0
C1485 C 0.52787 0.97055 0.01195 0.0
C1486 C 0.50823 0.96023 0.0064 0.0
C1487 C 0.49691 0.93956 0.00662 0.0
C1488 C 0.50513 0.92937 0.01229 0.0
H1489 H 0.53914 0.90292 0.99893 0.0
H1490 H 0.51561 0.90097 0.00082 0.0
H1491 H 0.5365 0.92461 0.99872 0.0
H1492 H 0.55125 0.96858 0.02187 0.0
H1493 H 0.53697 0.98647 0.01182 0.0
H1494 H 0.98098 0.17818 0.39546 0.0
H1495 H 0.01102 0.20022 0.38646 0.0
H1496 H 0.99602 0.24645 0.38898 0.0
H1497 H 0.96501 0.22393 0.39697 0.0
H1498 H 0.00867 0.24527 0.36789 0.0
H1499 H 0.06167 0.24433 0.40329 0.0
H1500 H 0.04437 0.21967 0.39633 0.0
H1501 H 0.03573 0.23362 0.40519 0.0
C1502 C 0.98384 0.19292 0.39397 0.0
C1503 C 0.97042 0.19918 0.39699 0.0
C1504 C 0.00131 0.20569 0.38903 0.0
C1505 C 0.0061 0.22521 0.38734 0.0
C1506 C 0.99277 0.23153 0.39033 0.0
H1507 H 0.12409 0.31287 0.37037 0.0
H1508 H 0.09427 0.29355 0.38057 0.0
C1509 C 0.9751 0.21865 0.39503 0.0
C1510 C 0.02454 0.23872 0.38193 0.0
H1511 H 0.07437 0.25659 0.38422 0.0
C1512 C 0.02306 0.2479 0.37155 0.0
C1513 C 0.04342 0.24253 0.38683 0.0
C1514 C 0.04643 0.23469 0.3986 0.0
C1515 C 0.03981 0.26035 0.36576 0.0
C1516 C 0.05847 0.26303 0.37014 0.0
C1517 C 0.06003 0.25429 0.38072 0.0
C1518 C 0.07654 0.27481 0.3639 0.0
C1519 C 0.03728 0.27077 0.35518 0.0
C1520 C 0.07666 0.27054 0.35119 0.0
C1521 C 0.09356 0.28184 0.3453 0.0
C1522 C 0.11087 0.29726 0.35209 0.0
C1523 C 0.11097 0.30109 0.36489 0.0
C1524 C 0.09393 0.29006 0.37073 0.0
H1525 H 0.02423 0.27271 0.35583 0.0
H1526 H 0.05058 0.28562 0.35495 0.0
H1527 H 0.03477 0.26162 0.3463 0.0
H1528 H 0.06371 0.2584 0.34579 0.0
H1529 H 0.09315 0.27834 0.33546 0.0
H1530 H 0.79736 0.76857 0.4156 0.0
H1531 H 0.77324 0.77619 0.40594 0.0
H1532 H 0.81008 0.80036 0.37652 0.0
H1533 H 0.83421 0.79263 0.38604 0.0
H1534 H 0.7959 0.82457 0.38664 0.0
H1535 H 0.73549 0.74636 0.3742 0.0
H1536 H 0.74547 0.75254 0.3902 0.0
H1537 H 0.76083 0.75298 0.37847 0.0
C1538 C 0.80024 0.7753 0.407 0.0
C1539 C 0.81767 0.7799 0.40156 0.0
C1540 C 0.78645 0.77967 0.40151 0.0
C1541 C 0.78978 0.7886 0.39044 0.0
C1542 C 0.80725 0.79343 0.38506 0.0
H1543 H 0.7079 0.79802 0.33861 0.0
H1544 H 0.73138 0.7907 0.34941 0.0
C1545 C 0.82105 0.78908 0.39054 0.0
C1546 C 0.77515 0.79309 0.38452 0.0
H1547 H 0.72763 0.77146 0.3709 0.0
C1548 C 0.78096 0.81298 0.3832 0.0
C1549 C 0.75575 0.7779 0.37995 0.0
C1550 C 0.74899 0.75622 0.38065 0.0
C1551 C 0.76784 0.81812 0.37747 0.0
C1552 C 0.74833 0.80295 0.37311 0.0
C1553 C 0.74255 0.78306 0.37437 0.0
C1554 C 0.73391 0.80735 0.36675 0.0
C1555 C 0.77508 0.83967 0.37588 0.0
C1556 C 0.72736 0.81895 0.37299 0.0
C1557 C 0.71392 0.8232 0.36684 0.0
C1558 C 0.70674 0.81583 0.35436 0.0
C1559 C 0.71315 0.80397 0.34821 0.0
C1560 C 0.72656 0.79974 0.35437 0.0
H1561 H 0.79151 0.84879 0.37718 0.0
H1562 H 0.76975 0.84121 0.36656 0.0
H1563 H 0.7692 0.84576 0.38288 0.0
H1564 H 0.7326 0.82466 0.38262 0.0
H1565 H 0.70922 0.83228 0.37187 0.0
H1566 H 0.23046 0.05437 0.36357 0.0
H1567 H 0.21754 0.02041 0.35391 0.0
H1568 H 0.23505 0.00474 0.38777 0.0
H1569 H 0.24761 0.03852 0.39759 0.0
H1570 H 0.2377 0.99853 0.35083 0.0
H1571 H 0.17534 0.96308 0.37972 0.0
H1572 H 0.18869 0.98951 0.37859 0.0
H1573 H 0.19929 0.97861 0.38824 0.0
C1574 C 0.23147 0.04366 0.36898 0.0
C1575 C 0.23995 0.04909 0.38137 0.0
C1576 C 0.22419 0.02433 0.36343 0.0
C1577 C 0.22512 0.01006 0.37019 0.0
C1578 C 0.23395 0.0155 0.38246 0.0
H1579 H 0.20786 0.89492 0.34362 0.0
H1580 H 0.22108 0.92931 0.35251 0.0
C1581 C 0.24129 0.03485 0.38801 0.0
C1582 C 0.2168 0.98944 0.36441 0.0
H1583 H 0.18102 0.94148 0.36652 0.0
C1584 C 0.22529 0.98603 0.35423 0.0
C1585 C 0.20045 0.97326 0.36879 0.0
C1586 C 0.19025 0.97622 0.37937 0.0
C1587 C 0.21806 0.96676 0.34843 0.0
C1588 C 0.20208 0.95052 0.35304 0.0
C1589 C 0.19337 0.95397 0.36308 0.0
C1590 C 0.19416 0.92981 0.34757 0.0
C1591 C 0.22742 0.96393 0.33734 0.0
C1592 C 0.17453 0.91861 0.34207 0.0
C1593 C 0.16693 0.89895 0.33703 0.0
C1594 C 0.17881 0.89018 0.3375 0.0
C1595 C 0.19841 0.90136 0.34309 0.0
C1596 C 0.20601 0.92102 0.34811 0.0
H1597 H 0.23615 0.97804 0.33319 0.0
H1598 H 0.23758 0.95853 0.34025 0.0
H1599 H 0.21597 0.95268 0.33013 0.0
H1600 H 0.16514 0.92513 0.34164 0.0
H1601 H 0.15175 0.89061 0.33281 0.0
H1602 H 0.50449 0.63879 0.27508 0.0
H1603 H 0.52808 0.67149 0.28597 0.0
H1604 H 0.56116 0.64702 0.30299 0.0
H1605 H 0.5374 0.61412 0.29229 0.0
H1606 H 0.55286 0.67166 0.31957 0.0
H1607 H 0.58592 0.70784 0.27803 0.0
H1608 H 0.55933 0.69519 0.27686 0.0
H1609 H 0.57176 0.68117 0.27806 0.0
C1610 C 0.51671 0.64033 0.2812 0.0
C1611 C 0.5191 0.62388 0.28282 0.0
C1612 C 0.53027 0.65905 0.28732 0.0
C1613 C 0.54646 0.66167 0.29515 0.0
C1614 C 0.54881 0.64528 0.29691 0.0
H1615 H 0.64821 0.7751 0.32582 0.0
H1616 H 0.62646 0.74129 0.31569 0.0
C1617 C 0.5353 0.62655 0.29075 0.0
C1618 C 0.56075 0.6815 0.30166 0.0
H1619 H 0.59449 0.72897 0.29679 0.0
C1620 C 0.56204 0.68419 0.31462 0.0
C1621 C 0.57283 0.6977 0.29515 0.0
C1622 C 0.57259 0.69539 0.28126 0.0
C1623 C 0.5748 0.70286 0.32124 0.0
C1624 C 0.58638 0.71922 0.3147 0.0
C1625 C 0.58545 0.7164 0.30176 0.0
C1626 C 0.5995 0.73943 0.32109 0.0
C1627 C 0.5759 0.70493 0.33519 0.0
C1628 C 0.59148 0.74959 0.32739 0.0
C1629 C 0.60385 0.7689 0.33312 0.0
C1630 C 0.6244 0.77836 0.33262 0.0
C1631 C 0.6324 0.76815 0.32634 0.0
C1632 C 0.62002 0.74887 0.32056 0.0
H1633 H 0.5698 0.69029 0.3389 0.0
H1634 H 0.59143 0.7147 0.33937 0.0
H1635 H 0.56713 0.71179 0.33812 0.0
H1636 H 0.57563 0.74266 0.32772 0.0
H1637 H 0.59731 0.77649 0.33786 0.0
H1638 H 0.34408 0.85619 0.26431 0.0
H1639 H 0.31446 0.84919 0.27429 0.0
H1640 H 0.34081 0.91138 0.28717 0.0
H1641 H 0.37067 0.91852 0.27739 0.0
H1642 H 0.3124 0.85736 0.29988 0.0
H1643 H 0.28568 0.89597 0.26979 0.0
H1644 H 0.30365 0.88928 0.2654 0.0
H1645 H 0.31108 0.9106 0.27634 0.0
C1646 C 0.34366 0.86838 0.26933 0.0
C1647 C 0.35978 0.88792 0.27005 0.0
C1648 C 0.32667 0.86436 0.27496 0.0
C1649 C 0.32539 0.87979 0.28134 0.0
C1650 C 0.34139 0.89931 0.28209 0.0
H1651 H 0.24334 0.86982 0.33439 0.0
H1652 H 0.27262 0.87745 0.32382 0.0
C1653 C 0.35842 0.90336 0.27648 0.0
C1654 C 0.3075 0.87531 0.28751 0.0
H1655 H 0.26874 0.88382 0.28742 0.0
C1656 C 0.30283 0.86311 0.29716 0.0
C1657 C 0.29498 0.8827 0.28383 0.0
C1658 C 0.29893 0.89524 0.2732 0.0
C1659 C 0.28606 0.85831 0.30336 0.0
C1660 C 0.2738 0.86607 0.29988 0.0
C1661 C 0.2783 0.87804 0.29011 0.0
C1662 C 0.25609 0.86174 0.3062 0.0
C1663 C 0.28143 0.84473 0.31347 0.0
C1664 C 0.23715 0.85071 0.29971 0.0
C1665 C 0.22037 0.84631 0.30571 0.0
C1666 C 0.22227 0.85303 0.3183 0.0
C1667 C 0.24133 0.86435 0.32471 0.0
C1668 C 0.25808 0.86867 0.31871 0.0
H1669 H 0.28967 0.83655 0.31313 0.0
H1670 H 0.28571 0.85372 0.32261 0.0
H1671 H 0.26533 0.83378 0.31277 0.0
H1672 H 0.23534 0.84531 0.29003 0.0
H1673 H 0.20594 0.83761 0.30047 0.0
H1674 H 0.08494 0.44397 0.26857 0.0
H1675 H 0.09452 0.42191 0.27801 0.0
H1676 H 0.11407 0.4601 0.31241 0.0
H1677 H 0.10411 0.48195 0.30316 0.0
H1678 H 0.13278 0.43258 0.28818 0.0
H1679 H 0.07891 0.40439 0.32304 0.0
H1680 H 0.07579 0.4163 0.31008 0.0
H1681 H 0.09248 0.43101 0.32354 0.0
C1682 C 0.09096 0.44748 0.27821 0.0
C1683 C 0.09375 0.46469 0.28513 0.0
C1684 C 0.09653 0.43493 0.28356 0.0
C1685 C 0.10479 0.43927 0.29594 0.0
C1686 C 0.10742 0.45632 0.3029 0.0
H1687 H 0.17886 0.40262 0.33405 0.0
H1688 H 0.1647 0.42028 0.32354 0.0
C1689 C 0.10192 0.4689 0.29756 0.0
C1690 C 0.11163 0.42657 0.30141 0.0
H1691 H 0.10598 0.39847 0.32529 0.0
C1692 C 0.12683 0.42499 0.29623 0.0
C1693 C 0.10366 0.41653 0.31183 0.0
C1694 C 0.08668 0.41694 0.3174 0.0
C1695 C 0.13472 0.4141 0.30144 0.0
C1696 C 0.12735 0.40478 0.31218 0.0
C1697 C 0.11172 0.40583 0.31713 0.0
C1698 C 0.13587 0.3941 0.31851 0.0
C1699 C 0.15084 0.41259 0.2954 0.0
C1700 C 0.1242 0.37365 0.31937 0.0
C1701 C 0.13222 0.36357 0.3254 0.0
C1702 C 0.152 0.37384 0.33072 0.0
C1703 C 0.16359 0.39436 0.32998 0.0
C1704 C 0.15557 0.40442 0.32393 0.0
H1705 H 0.15133 0.41623 0.28567 0.0
H1706 H 0.16538 0.42326 0.30062 0.0
H1707 H 0.1487 0.39742 0.29549 0.0
H1708 H 0.10892 0.36548 0.3153 0.0
H1709 H 0.12295 0.34776 0.32591 0.0
H1710 H 0.3454 0.44185 0.25698 0.0
H1711 H 0.31399 0.42093 0.26538 0.0
H1712 H 0.33303 0.46353 0.29769 0.0
H1713 H 0.36427 0.48468 0.28928 0.0
H1714 H 0.30884 0.40444 0.28859 0.0
H1715 H 0.27777 0.45446 0.28507 0.0
H1716 H 0.29792 0.45698 0.27661 0.0
H1717 H 0.3025 0.4661 0.29274 0.0
C1718 C 0.3428 0.44685 0.26581 0.0
C1719 C 0.35728 0.46493 0.27246 0.0
C1720 C 0.32492 0.43485 0.27062 0.0
C1721 C 0.32114 0.44083 0.28207 0.0
C1722 C 0.33557 0.45881 0.28875 0.0
H1723 H 0.23754 0.37428 0.33254 0.0
H1724 H 0.26671 0.39384 0.32187 0.0
C1725 C 0.35348 0.47076 0.28399 0.0
C1726 C 0.30232 0.42803 0.28723 0.0
H1727 H 0.26108 0.427 0.29672 0.0
C1728 C 0.29833 0.40929 0.29031 0.0
C1729 C 0.28856 0.43435 0.2893 0.0
C1730 C 0.29175 0.45399 0.28567 0.0
C1731 C 0.28116 0.39691 0.29576 0.0
C1732 C 0.26779 0.40356 0.29829 0.0
C1733 C 0.27148 0.42204 0.29487 0.0
C1734 C 0.25005 0.39168 0.30468 0.0
C1735 C 0.27742 0.37679 0.29877 0.0
C1736 C 0.23104 0.38436 0.29861 0.0
C1737 C 0.2143 0.37319 0.30468 0.0
C1738 C 0.21631 0.36931 0.31698 0.0
C1739 C 0.23543 0.37693 0.32307 0.0
C1740 C 0.25214 0.38802 0.31697 0.0
H1741 H 0.28639 0.37198 0.2936 0.0
H1742 H 0.28148 0.37754 0.30882 0.0
H1743 H 0.26151 0.36537 0.29659 0.0
H1744 H 0.22916 0.38716 0.28914 0.0
H1745 H 0.19981 0.36765 0.29973 0.0
H1746 H 0.50168 0.85274 0.26088 0.0
H1747 H 0.52544 0.84462 0.27057 0.0
H1748 H 0.55991 0.90451 0.28853 0.0
H1749 H 0.53637 0.91286 0.27873 0.0
H1750 H 0.58204 0.88848 0.27619 0.0
H1751 H 0.53162 0.83896 0.30835 0.0
H1752 H 0.52183 0.83388 0.29233 0.0
H1753 H 0.52735 0.85675 0.30094 0.0
C1754 C 0.51439 0.86422 0.26683 0.0
C1755 C 0.51714 0.88343 0.26907 0.0
C1756 C 0.52784 0.85951 0.27242 0.0
C1757 C 0.54428 0.87393 0.28034 0.0
C1758 C 0.54724 0.89318 0.28248 0.0
H1759 H 0.62302 0.86101 0.33275 0.0
H1760 H 0.6 0.8689 0.32192 0.0
C1761 C 0.53373 0.89787 0.27695 0.0
C1762 C 0.55842 0.86893 0.28639 0.0
H1763 H 0.56269 0.84092 0.3079 0.0
C1764 C 0.57785 0.87807 0.28311 0.0
C1765 C 0.55287 0.85547 0.29547 0.0
C1766 C 0.53234 0.84576 0.29959 0.0
C1767 C 0.59191 0.87397 0.28865 0.0
C1768 C 0.58627 0.86031 0.29761 0.0
C1769 C 0.56687 0.85128 0.30094 0.0
C1770 C 0.60048 0.85567 0.30397 0.0
C1771 C 0.61276 0.88454 0.28506 0.0
C1772 C 0.60826 0.8455 0.29745 0.0
C1773 C 0.62141 0.84088 0.30362 0.0
C1774 C 0.62699 0.84641 0.31642 0.0
C1775 C 0.61911 0.8566 0.32289 0.0
C1776 C 0.60592 0.8611 0.31673 0.0
H1777 H 0.61568 0.89737 0.27985 0.0
H1778 H 0.62369 0.88995 0.29341 0.0
H1779 H 0.61512 0.87399 0.2791 0.0
H1780 H 0.60401 0.84096 0.28762 0.0
H1781 H 0.62716 0.83299 0.29836 0.0
H1782 H 0.13059 0.64229 0.28084 0.0
H1783 H 0.14233 0.67542 0.29135 0.0
H1784 H 0.08842 0.65307 0.30893 0.0
H1785 H 0.07636 0.61985 0.29829 0.0
H1786 H 0.12317 0.6983 0.28961 0.0
H1787 H 0.13344 0.68274 0.33783 0.0
H1788 H 0.13131 0.66659 0.32445 0.0
H1789 H 0.10963 0.6661 0.32941 0.0
C1790 C 0.12115 0.64441 0.28688 0.0
C1791 C 0.1025 0.62843 0.28869 0.0
C1792 C 0.12794 0.66333 0.29293 0.0
C1793 C 0.11632 0.66661 0.30099 0.0
C1794 C 0.09774 0.65073 0.3029 0.0
H1795 H 0.13132 0.78114 0.32781 0.0
H1796 H 0.11844 0.74705 0.31841 0.0
C1797 C 0.0909 0.63177 0.29682 0.0
C1798 C 0.12346 0.68685 0.30706 0.0
H1799 H 0.13811 0.71464 0.3352 0.0
C1800 C 0.12642 0.7019 0.29958 0.0
C1801 C 0.12785 0.69146 0.32004 0.0
C1802 C 0.12557 0.67595 0.32844 0.0
C1803 C 0.13355 0.72148 0.30476 0.0
C1804 C 0.13762 0.72602 0.31775 0.0
C1805 C 0.13482 0.71102 0.32524 0.0
C1806 C 0.14517 0.74639 0.32372 0.0
C1807 C 0.13701 0.73724 0.29628 0.0
C1808 C 0.16428 0.75709 0.33002 0.0
C1809 C 0.17168 0.77656 0.33537 0.0
C1810 C 0.15998 0.78552 0.33457 0.0
C1811 C 0.1407 0.77463 0.32847 0.0
C1812 C 0.13334 0.7552 0.32308 0.0
H1813 H 0.13722 0.73227 0.28653 0.0
H1814 H 0.12492 0.74074 0.29659 0.0
H1815 H 0.15123 0.75114 0.29933 0.0
H1816 H 0.17358 0.75048 0.33063 0.0
H1817 H 0.18658 0.78463 0.34005 0.0
H1818 H 0.82328 0.04627 0.37111 0.0
H1819 H 0.80086 0.01356 0.35979 0.0
H1820 H 0.76809 0.99513 0.3915 0.0
H1821 H 0.79023 0.02784 0.40284 0.0
H1822 H 0.77987 0.96858 0.38158 0.0
H1823 H 0.74233 0.98919 0.34536 0.0
H1824 H 0.76893 0.00349 0.34696 0.0
H1825 H 0.75567 0.00526 0.35942 0.0
C1826 C 0.81108 0.03539 0.37559 0.0
C1827 C 0.80857 0.03966 0.38789 0.0
C1828 C 0.79831 0.01671 0.36912 0.0
C1829 C 0.78276 0.00202 0.37479 0.0
C1830 C 0.78003 0.0063 0.38697 0.0
H1831 H 0.68469 0.88763 0.34339 0.0
H1832 H 0.70599 0.92147 0.35359 0.0
C1833 C 0.79275 0.02496 0.39345 0.0
C1834 C 0.76991 0.98183 0.36827 0.0
H1835 H 0.73597 0.95601 0.34321 0.0
C1836 C 0.77026 0.96581 0.3732 0.0
C1837 C 0.75729 0.9783 0.3574 0.0
C1838 C 0.75582 0.99491 0.35199 0.0
C1839 C 0.75844 0.94632 0.36747 0.0
C1840 C 0.74613 0.94284 0.35646 0.0
C1841 C 0.74559 0.95881 0.3516 0.0
C1842 C 0.73339 0.9226 0.35001 0.0
C1843 C 0.75895 0.92954 0.37332 0.0
C1844 C 0.7418 0.9122 0.34452 0.0
C1845 C 0.72968 0.8929 0.33868 0.0
C1846 C 0.709 0.88377 0.33825 0.0
C1847 C 0.70061 0.89432 0.34362 0.0
C1848 C 0.71273 0.91363 0.34942 0.0
H1849 H 0.76597 0.93414 0.38304 0.0
H1850 H 0.74376 0.91662 0.3732 0.0
H1851 H 0.76763 0.92461 0.36795 0.0
H1852 H 0.75773 0.919 0.34477 0.0
H1853 H 0.7365 0.88509 0.33458 0.0
H1854 H 0.96378 0.75473 0.38835 0.0
H1855 H 0.99399 0.764 0.37843 0.0
H1856 H 0.02645 0.81583 0.40499 0.0
H1857 H 0.99624 0.80712 0.41476 0.0
H1858 H 0.01935 0.80426 0.36908 0.0
H1859 H 0.05796 0.78414 0.40505 0.0
H1860 H 0.03136 0.77326 0.40321 0.0
H1861 H 0.04683 0.79834 0.41019 0.0
C1862 C 0.97728 0.7682 0.39204 0.0
C1863 C 0.97754 0.78018 0.40236 0.0
C1864 C 0.99454 0.77338 0.3864 0.0
C1865 C 0.0124 0.79048 0.39106 0.0
C1866 C 0.01282 0.80243 0.40138 0.0
H1867 H 0.1324 0.84243 0.37042 0.0
H1868 H 0.10283 0.83405 0.38085 0.0
C1869 C 0.99554 0.79735 0.40697 0.0
C1870 C 0.03049 0.79616 0.38488 0.0
H1871 H 0.07551 0.79913 0.38827 0.0
C1872 C 0.03164 0.80313 0.37323 0.0
C1873 C 0.04648 0.7948 0.39043 0.0
C1874 C 0.0457 0.78713 0.40288 0.0
C1875 C 0.04854 0.80898 0.36698 0.0
C1876 C 0.06445 0.80726 0.3724 0.0
C1877 C 0.0633 0.80039 0.38412 0.0
C1878 C 0.08233 0.81233 0.36602 0.0
C1879 C 0.04936 0.81738 0.35477 0.0
C1880 C 0.08066 0.80269 0.35431 0.0
C1881 C 0.0975 0.80757 0.34827 0.0
C1882 C 0.11639 0.82198 0.35392 0.0
C1883 C 0.11807 0.83132 0.36578 0.0
C1884 C 0.10119 0.82654 0.37177 0.0
H1885 H 0.03908 0.82326 0.35381 0.0
H1886 H 0.06456 0.82951 0.35373 0.0
H1887 H 0.04485 0.80541 0.3471 0.0
H1888 H 0.06632 0.79128 0.34985 0.0
H1889 H 0.09568 0.79991 0.33921 0.0
H1890 H 0.25118 0.23141 0.40012 0.0
H1891 H 0.23784 0.25007 0.39005 0.0
H1892 H 0.22067 0.21017 0.35656 0.0
H1893 H 0.23375 0.19128 0.36658 0.0
H1894 H 0.23959 0.25126 0.3529 0.0
H1895 H 0.17785 0.22904 0.38238 0.0
H1896 H 0.20207 0.23996 0.39069 0.0
H1897 H 0.19188 0.21645 0.38145 0.0
C1898 C 0.24449 0.22656 0.39063 0.0
C1899 C 0.24341 0.20978 0.38418 0.0
C1900 C 0.23691 0.23724 0.3849 0.0
C1901 C 0.22803 0.23129 0.37264 0.0
C1902 C 0.22744 0.21494 0.36605 0.0
H1903 H 0.14998 0.2639 0.3343 0.0
H1904 H 0.16521 0.24644 0.34386 0.0
C1905 C 0.23501 0.20424 0.37177 0.0
C1906 C 0.2191 0.24194 0.36673 0.0
H1907 H 0.18213 0.25284 0.3686 0.0
C1908 C 0.22703 0.25163 0.35631 0.0
C1909 C 0.20257 0.24213 0.37113 0.0
C1910 C 0.19293 0.23121 0.38196 0.0
C1911 C 0.21898 0.26177 0.35026 0.0
C1912 C 0.20275 0.26236 0.35485 0.0
C1913 C 0.19468 0.25246 0.36517 0.0
C1914 C 0.19373 0.27297 0.34898 0.0
C1915 C 0.22769 0.27148 0.33888 0.0
C1916 C 0.2047 0.29366 0.34882 0.0
C1917 C 0.19605 0.30362 0.34337 0.0
C1918 C 0.17627 0.29305 0.33806 0.0
C1919 C 0.16527 0.27237 0.3383 0.0
C1920 C 0.17393 0.26241 0.34376 0.0
H1921 H 0.23682 0.26572 0.3349 0.0
H1922 H 0.21583 0.26906 0.33167 0.0
H1923 H 0.23732 0.28773 0.34141 0.0
H1924 H 0.2199 0.3021 0.353 0.0
H1925 H 0.20485 0.31959 0.34331 0.0
H1926 H 0.63094 0.51279 0.71337 0.0
H1927 H 0.66176 0.53501 0.70492 0.0
H1928 H 0.67956 0.57715 0.73735 0.0
H1929 H 0.64895 0.55485 0.74602 0.0
H1930 H 0.68384 0.59364 0.71398 0.0
H1931 H 0.71796 0.54628 0.71776 0.0
H1932 H 0.69315 0.53385 0.71012 0.0
H1933 H 0.69757 0.54298 0.72624 0.0
C1934 C 0.6415 0.52667 0.71879 0.0
C1935 C 0.63751 0.53197 0.73042 0.0
C1936 C 0.65907 0.53936 0.71393 0.0
C1937 C 0.673 0.55757 0.7206 0.0
C1938 C 0.66898 0.5631 0.73209 0.0
H1939 H 0.79398 0.63465 0.70379 0.0
H1940 H 0.76461 0.61436 0.71417 0.0
C1941 C 0.65143 0.55039 0.73699 0.0
C1942 C 0.69164 0.57096 0.71546 0.0
H1943 H 0.73397 0.5741 0.70634 0.0
C1944 C 0.69486 0.58945 0.71236 0.0
C1945 C 0.70606 0.56549 0.71351 0.0
C1946 C 0.70368 0.54615 0.71717 0.0
C1947 C 0.71194 0.60242 0.70702 0.0
C1948 C 0.72601 0.59664 0.70466 0.0
C1949 C 0.72305 0.57839 0.70808 0.0
C1950 C 0.74375 0.60917 0.69844 0.0
C1951 C 0.71485 0.62225 0.70399 0.0
C1952 C 0.7417 0.61276 0.68613 0.0
C1953 C 0.75843 0.62427 0.68016 0.0
C1954 C 0.77753 0.63239 0.68639 0.0
C1955 C 0.77951 0.62869 0.69873 0.0
C1956 C 0.76275 0.61708 0.70468 0.0
H1957 H 0.70532 0.62643 0.70904 0.0
H1958 H 0.73055 0.63415 0.7063 0.0
H1959 H 0.71092 0.62141 0.69392 0.0
H1960 H 0.72715 0.60649 0.68111 0.0
H1961 H 0.75635 0.62678 0.67065 0.0
H1962 H 0.46431 0.08507 0.72606 0.0
H1963 H 0.44026 0.09302 0.7167 0.0
H1964 H 0.47718 0.15424 0.73189 0.0
H1965 H 0.50116 0.1464 0.74151 0.0
H1966 H 0.42004 0.11092 0.72894 0.0
H1967 H 0.46725 0.15598 0.69398 0.0
H1968 H 0.47212 0.13903 0.70198 0.0
H1969 H 0.47843 0.16273 0.70975 0.0
C1970 C 0.46725 0.1002 0.72752 0.0
C1971 C 0.48471 0.11511 0.73452 0.0
C1972 C 0.45353 0.10472 0.72212 0.0
C1973 C 0.45707 0.12424 0.72352 0.0
C1974 C 0.47436 0.13914 0.73056 0.0
H1975 H 0.3731 0.16395 0.70523 0.0
H1976 H 0.39683 0.15687 0.71607 0.0
C1977 C 0.48807 0.13463 0.736 0.0
C1978 C 0.44261 0.12895 0.7176 0.0
H1979 H 0.43651 0.1545 0.69506 0.0
C1980 C 0.42361 0.12048 0.72155 0.0
C1981 C 0.44733 0.14129 0.7079 0.0
C1982 C 0.46733 0.1502 0.70304 0.0
C1983 C 0.40918 0.12411 0.71608 0.0
C1984 C 0.41398 0.13662 0.70647 0.0
C1985 C 0.43296 0.14503 0.70249 0.0
C1986 C 0.39929 0.1406 0.70008 0.0
C1987 C 0.38879 0.11422 0.7204 0.0
C1988 C 0.393 0.13398 0.68748 0.0
C1989 C 0.37946 0.13797 0.68127 0.0
C1990 C 0.37203 0.1488 0.68751 0.0
C1991 C 0.37841 0.15546 0.70015 0.0
C1992 C 0.39193 0.15139 0.70638 0.0
H1993 H 0.38633 0.10204 0.72612 0.0
H1994 H 0.38698 0.12541 0.72609 0.0
H1995 H 0.37721 0.10806 0.71238 0.0
H1996 H 0.39858 0.12569 0.68246 0.0
H1997 H 0.37494 0.13266 0.67153 0.0
H1998 H 0.87398 0.36637 0.72373 0.0
H1999 H 0.86316 0.33307 0.71374 0.0
H2000 H 0.91899 0.35534 0.69843 0.0
H2001 H 0.92988 0.38883 0.70828 0.0
H2002 H 0.88316 0.33034 0.6812 0.0
H2003 H 0.8854 0.29655 0.7243 0.0
H2004 H 0.87236 0.31009 0.7245 0.0
H2005 H 0.89859 0.32309 0.72353 0.0
C2006 C 0.88392 0.36421 0.71817 0.0
C2007 C 0.90279 0.3802 0.71678 0.0
C2008 C 0.87778 0.34516 0.71257 0.0
C2009 C 0.89037 0.34178 0.70548 0.0
C2010 C 0.90913 0.3577 0.70394 0.0
H2011 H 0.87496 0.22735 0.67809 0.0
H2012 H 0.88817 0.26158 0.68735 0.0
C2013 C 0.91535 0.37675 0.70962 0.0
C2014 C 0.88379 0.32161 0.69952 0.0
H2015 H 0.87067 0.27457 0.70583 0.0
C2016 C 0.88049 0.31814 0.68656 0.0
C2017 C 0.88053 0.30584 0.70656 0.0
C2018 C 0.88453 0.30901 0.72049 0.0
C2019 C 0.87355 0.29911 0.68045 0.0
C2020 C 0.86974 0.28322 0.68752 0.0
C2021 C 0.87348 0.2868 0.70046 0.0
C2022 C 0.86185 0.26273 0.68165 0.0
C2023 C 0.87045 0.29613 0.66649 0.0
C2024 C 0.84264 0.25207 0.67547 0.0
C2025 C 0.83501 0.23248 0.67026 0.0
C2026 C 0.84649 0.22331 0.67116 0.0
C2027 C 0.86576 0.23406 0.6773 0.0
C2028 C 0.87333 0.25358 0.68257 0.0
H2029 H 0.87803 0.31046 0.6624 0.0
H2030 H 0.87596 0.28639 0.66281 0.0
H2031 H 0.85437 0.28877 0.66343 0.0
H2032 H 0.83346 0.25881 0.67483 0.0
H2033 H 0.82009 0.22449 0.66561 0.0
H2034 H 0.2058 0.96386 0.60127 0.0
H2035 H 0.22926 0.99702 0.61168 0.0
H2036 H 0.19595 0.98356 0.64333 0.0
H2037 H 0.1726 0.95023 0.63309 0.0
H2038 H 0.21966 0.02626 0.62021 0.0
H2039 H 0.25398 0.00536 0.6582 0.0
H2040 H 0.24025 0.9887 0.64441 0.0
H2041 H 0.22736 0.99227 0.65652 0.0
C2042 C 0.20364 0.96785 0.61053 0.0
C2043 C 0.18739 0.95441 0.61639 0.0
C2044 C 0.21698 0.98682 0.61642 0.0
C2045 C 0.21443 0.99263 0.62831 0.0
C2046 C 0.19831 0.97924 0.63422 0.0
H2047 H 0.26229 0.1103 0.66669 0.0
H2048 H 0.2412 0.0766 0.6562 0.0
C2049 C 0.18491 0.96029 0.62832 0.0
C2050 C 0.22815 0.01299 0.63431 0.0
H2051 H 0.26166 0.03902 0.65952 0.0
C2052 C 0.22891 0.02908 0.62877 0.0
C2053 C 0.24031 0.01657 0.64542 0.0
C2054 C 0.24064 0.99986 0.65146 0.0
C2055 C 0.24122 0.04869 0.63421 0.0
C2056 C 0.25291 0.05222 0.64551 0.0
C2057 C 0.25251 0.03619 0.65091 0.0
C2058 C 0.26564 0.07251 0.65188 0.0
C2059 C 0.24176 0.06552 0.62781 0.0
C2060 C 0.2863 0.08117 0.65307 0.0
C2061 C 0.29835 0.10038 0.65904 0.0
C2062 C 0.28988 0.11112 0.664 0.0
C2063 C 0.26918 0.10233 0.66293 0.0
C2064 C 0.25715 0.08316 0.6569 0.0
H2065 H 0.23523 0.06071 0.618 0.0
H2066 H 0.23314 0.0711 0.63267 0.0
H2067 H 0.2572 0.07805 0.62809 0.0
H2068 H 0.29309 0.07312 0.64928 0.0
H2069 H 0.31428 0.10681 0.65977 0.0
H2070 H 0.01004 0.18922 0.59609 0.0
H2071 H 0.98055 0.18213 0.60627 0.0
H2072 H 0.0074 0.2441 0.61986 0.0
H2073 H 0.03711 0.25133 0.60987 0.0
H2074 H 0.97858 0.1894 0.63186 0.0
H2075 H 0.9524 0.22978 0.60305 0.0
H2076 H 0.97025 0.22313 0.59832 0.0
H2077 H 0.97781 0.24409 0.6096 0.0
C2078 C 0.00975 0.20135 0.6013 0.0
C2079 C 0.02596 0.22085 0.60217 0.0
C2080 C 0.99283 0.19727 0.60705 0.0
C2081 C 0.99172 0.21262 0.61369 0.0
C2082 C 0.00783 0.23211 0.61458 0.0
H2083 H 0.91066 0.20149 0.66775 0.0
H2084 H 0.93969 0.20907 0.65692 0.0
C2085 C 0.02478 0.2362 0.60885 0.0
C2086 C 0.97393 0.20808 0.62 0.0
H2087 H 0.93566 0.21726 0.62071 0.0
C2088 C 0.96917 0.19546 0.62942 0.0
C2089 C 0.9616 0.21586 0.61669 0.0
C2090 C 0.9656 0.22884 0.60629 0.0
C2091 C 0.95252 0.19061 0.63576 0.0
C2092 C 0.94047 0.19878 0.63267 0.0
C2093 C 0.94505 0.21117 0.62312 0.0
C2094 C 0.92291 0.19447 0.63917 0.0
C2095 C 0.94778 0.17656 0.6456 0.0
C2096 C 0.90391 0.18411 0.63271 0.0
C2097 C 0.88727 0.17976 0.63886 0.0
C2098 C 0.88937 0.18585 0.65158 0.0
C2099 C 0.90849 0.1965 0.65797 0.0
C2100 C 0.9251 0.20078 0.65182 0.0
H2101 H 0.95569 0.16809 0.64487 0.0
H2102 H 0.95241 0.18522 0.65487 0.0
H2103 H 0.93162 0.16587 0.64496 0.0
H2104 H 0.90194 0.17921 0.62292 0.0
H2105 H 0.87278 0.17163 0.63362 0.0
H2106 H 0.76914 0.81699 0.63761 0.0
H2107 H 0.78089 0.79626 0.64654 0.0
H2108 H 0.76107 0.75778 0.61225 0.0
H2109 H 0.74976 0.77874 0.60312 0.0
H2110 H 0.75998 0.75526 0.64949 0.0
H2111 H 0.81998 0.77432 0.61892 0.0
H2112 H 0.80749 0.78839 0.62048 0.0
H2113 H 0.7957 0.76494 0.61101 0.0
C2114 C 0.76738 0.80418 0.63194 0.0
C2115 C 0.75867 0.79959 0.61962 0.0
C2116 C 0.77398 0.79229 0.63709 0.0
C2117 C 0.7721 0.77568 0.62999 0.0
C2118 C 0.76293 0.77073 0.61781 0.0
H2119 H 0.79041 0.68354 0.6587 0.0
H2120 H 0.77635 0.70169 0.64872 0.0
C2121 C 0.7563 0.7826 0.61265 0.0
C2122 C 0.77993 0.76371 0.63536 0.0
H2123 H 0.81479 0.75003 0.63248 0.0
C2124 C 0.77193 0.75406 0.64577 0.0
C2125 C 0.79567 0.7624 0.63054 0.0
C2126 C 0.80537 0.77318 0.61969 0.0
C2127 C 0.77922 0.74303 0.65149 0.0
C2128 C 0.79474 0.74145 0.64655 0.0
C2129 C 0.80279 0.75116 0.63617 0.0
C2130 C 0.80327 0.73031 0.65227 0.0
C2131 C 0.7706 0.73356 0.66295 0.0
C2132 C 0.82318 0.74033 0.65727 0.0
C2133 C 0.83127 0.72999 0.66289 0.0
C2134 C 0.81959 0.70945 0.66352 0.0
C2135 C 0.79974 0.69938 0.65833 0.0
C2136 C 0.79166 0.70973 0.65271 0.0
H2137 H 0.7621 0.73992 0.66715 0.0
H2138 H 0.76038 0.71739 0.66045 0.0
H2139 H 0.78245 0.73548 0.67 0.0
H2140 H 0.83239 0.7562 0.65697 0.0
H2141 H 0.84663 0.73808 0.66678 0.0
H2142 H 0.03411 0.77906 0.61522 0.0
H2143 H 0.00299 0.75877 0.62401 0.0
H2144 H 0.97745 0.78976 0.60611 0.0
H2145 H 0.00867 0.81048 0.59753 0.0
H2146 H 0.97165 0.78649 0.63124 0.0
H2147 H 0.95045 0.71358 0.60583 0.0
H2148 H 0.97506 0.72645 0.61375 0.0
H2149 H 0.96901 0.73692 0.60112 0.0
C2150 C 0.02188 0.78159 0.61317 0.0
C2151 C 0.02384 0.79635 0.60565 0.0
C2152 C 0.00406 0.76985 0.61809 0.0
C2153 C 0.98785 0.77259 0.61555 0.0
C2154 C 0.98975 0.78732 0.60809 0.0
H2155 H 0.86721 0.69499 0.63263 0.0
H2156 H 0.8966 0.71507 0.62223 0.0
C2157 C 0.00755 0.79905 0.60314 0.0
C2158 C 0.96917 0.76062 0.62108 0.0
H2159 H 0.93183 0.71306 0.62245 0.0
C2160 C 0.96288 0.77045 0.62928 0.0
C2161 C 0.95766 0.73973 0.61838 0.0
C2162 C 0.96324 0.72852 0.6092 0.0
C2163 C 0.9456 0.75987 0.63509 0.0
C2164 C 0.9345 0.73891 0.63274 0.0
C2165 C 0.9405 0.72912 0.62431 0.0
C2166 C 0.91671 0.72688 0.63907 0.0
C2167 C 0.93929 0.77121 0.64362 0.0
C2168 C 0.91835 0.72671 0.65195 0.0
C2169 C 0.9016 0.71528 0.65794 0.0
C2170 C 0.88289 0.70373 0.65112 0.0
C2171 C 0.88134 0.7038 0.63818 0.0
C2172 C 0.89813 0.71522 0.63221 0.0
H2173 H 0.94639 0.78713 0.642 0.0
H2174 H 0.92297 0.76464 0.64243 0.0
H2175 H 0.94374 0.77048 0.65336 0.0
H2176 H 0.93263 0.73534 0.65738 0.0
H2177 H 0.90337 0.71552 0.6679 0.0
H2178 H 0.16832 0.18612 0.59245 0.0
H2179 H 0.19209 0.17797 0.60207 0.0
H2180 H 0.22584 0.2374 0.6208 0.0
H2181 H 0.20229 0.24578 0.61107 0.0
H2182 H 0.24855 0.2221 0.60841 0.0
H2183 H 0.19745 0.17106 0.6397 0.0
H2184 H 0.18807 0.16646 0.62362 0.0
H2185 H 0.19318 0.189 0.63249 0.0
C2186 C 0.18087 0.1975 0.59855 0.0
C2187 C 0.1834 0.21659 0.60103 0.0
C2188 C 0.19434 0.19277 0.6041 0.0
C2189 C 0.21058 0.20704 0.61222 0.0
C2190 C 0.21332 0.22617 0.61459 0.0
H2191 H 0.28848 0.19374 0.665 0.0
H2192 H 0.26557 0.20159 0.65398 0.0
C2193 C 0.1998 0.23089 0.6091 0.0
C2194 C 0.2247 0.202 0.61826 0.0
H2195 H 0.22875 0.17352 0.6395 0.0
C2196 C 0.24426 0.21146 0.6152 0.0
C2197 C 0.21902 0.18823 0.62716 0.0
C2198 C 0.19834 0.17816 0.63105 0.0
C2199 C 0.25832 0.2074 0.62077 0.0
C2200 C 0.25257 0.19346 0.62957 0.0
C2201 C 0.23303 0.18409 0.63268 0.0
C2202 C 0.26679 0.18893 0.63603 0.0
C2203 C 0.2793 0.21832 0.61743 0.0
C2204 C 0.27497 0.17911 0.62956 0.0
C2205 C 0.28807 0.17452 0.63583 0.0
C2206 C 0.29319 0.17972 0.64869 0.0
C2207 C 0.28494 0.18959 0.6551 0.0
C2208 C 0.27181 0.19406 0.64883 0.0
H2209 H 0.28221 0.23123 0.61231 0.0
H2210 H 0.29001 0.22367 0.62588 0.0
H2211 H 0.282 0.20802 0.61147 0.0
H2212 H 0.27105 0.1748 0.61969 0.0
H2213 H 0.29411 0.16687 0.63062 0.0
H2214 H 0.75505 0.97264 0.60594 0.0
H2215 H 0.7688 0.00608 0.61662 0.0
H2216 H 0.78477 0.98716 0.64959 0.0
H2217 H 0.7713 0.95373 0.63894 0.0
H2218 H 0.76609 0.01023 0.65368 0.0
H2219 H 0.82886 0.04577 0.62513 0.0
H2220 H 0.8049 0.03142 0.61644 0.0
H2221 H 0.81461 0.0192 0.62558 0.0
C2222 C 0.7616 0.97562 0.61544 0.0
C2223 C 0.76221 0.96055 0.62156 0.0
C2224 C 0.76942 0.99471 0.62152 0.0
C2225 C 0.77806 0.99912 0.63381 0.0
C2226 C 0.77822 0.98403 0.64007 0.0
H2227 H 0.8537 0.11755 0.67258 0.0
H2228 H 0.83979 0.08303 0.66354 0.0
C2229 C 0.77041 0.96492 0.634 0.0
C2230 C 0.78701 0.01952 0.64011 0.0
H2231 H 0.82371 0.06736 0.63877 0.0
C2232 C 0.77873 0.02273 0.65047 0.0
C2233 C 0.80366 0.0357 0.63597 0.0
C2234 C 0.81368 0.03291 0.62524 0.0
C2235 C 0.7864 0.04186 0.65664 0.0
C2236 C 0.80262 0.05814 0.65223 0.0
C2237 C 0.81118 0.05484 0.64205 0.0
C2238 C 0.81082 0.07877 0.65797 0.0
C2239 C 0.7772 0.04447 0.66787 0.0
C2240 C 0.79917 0.08778 0.65771 0.0
C2241 C 0.80706 0.10742 0.66285 0.0
C2242 C 0.82677 0.11838 0.66827 0.0
C2243 C 0.83844 0.10938 0.66849 0.0
C2244 C 0.83054 0.08972 0.66333 0.0
H2245 H 0.76842 0.03021 0.67187 0.0
H2246 H 0.78873 0.05548 0.67513 0.0
H2247 H 0.76711 0.05004 0.66517 0.0
H2248 H 0.78403 0.0797 0.65341 0.0
H2249 H 0.79775 0.11405 0.66253 0.0
H2250 H 0.49191 0.37639 0.70648 0.0
H2251 H 0.46849 0.3438 0.69541 0.0
H2252 H 0.43618 0.32708 0.72742 0.0
H2253 H 0.45934 0.35974 0.73851 0.0
H2254 H 0.44562 0.2989 0.71734 0.0
H2255 H 0.41037 0.32218 0.68136 0.0
H2256 H 0.43697 0.33531 0.68269 0.0
H2257 H 0.42448 0.33804 0.69533 0.0
C2258 C 0.47964 0.36592 0.7111 0.0
C2259 C 0.4775 0.37069 0.72338 0.0
C2260 C 0.46628 0.34729 0.70476 0.0
C2261 C 0.4505 0.33314 0.71056 0.0
C2262 C 0.44826 0.33784 0.72278 0.0
H2263 H 0.35052 0.22067 0.67694 0.0
H2264 H 0.37184 0.25392 0.68799 0.0
C2265 C 0.46157 0.35646 0.72912 0.0
C2266 C 0.43682 0.31311 0.70406 0.0
H2267 H 0.40298 0.28861 0.67878 0.0
C2268 C 0.43624 0.29662 0.70893 0.0
C2269 C 0.42447 0.31021 0.69318 0.0
C2270 C 0.4239 0.32733 0.68786 0.0
C2271 C 0.4239 0.2773 0.70305 0.0
C2272 C 0.41202 0.27447 0.69196 0.0
C2273 C 0.41227 0.29089 0.68723 0.0
C2274 C 0.39922 0.25451 0.68514 0.0
C2275 C 0.42352 0.26003 0.7088 0.0
C2276 C 0.40762 0.24401 0.67977 0.0
C2277 C 0.39551 0.22508 0.67345 0.0
C2278 C 0.37482 0.21638 0.67241 0.0
C2279 C 0.36644 0.22702 0.67766 0.0
C2280 C 0.37857 0.24599 0.68394 0.0
H2281 H 0.42992 0.26417 0.71865 0.0
H2282 H 0.40814 0.24729 0.70827 0.0
H2283 H 0.43237 0.25506 0.70366 0.0
H2284 H 0.42355 0.25049 0.68045 0.0
H2285 H 0.40233 0.2172 0.66946 0.0
H2286 H 0.66335 0.14169 0.7478 0.0
H2287 H 0.69358 0.15022 0.73808 0.0
H2288 H 0.66095 0.0984 0.71153 0.0
H2289 H 0.63074 0.08934 0.72138 0.0
H2290 H 0.71099 0.12368 0.73325 0.0
H2291 H 0.68932 0.14838 0.6912 0.0
H2292 H 0.67845 0.14728 0.70553 0.0
H2293 H 0.67118 0.12484 0.69576 0.0
C2294 C 0.66261 0.13193 0.74 0.0
C2295 C 0.64455 0.11484 0.73536 0.0
C2296 C 0.67988 0.13691 0.73442 0.0
C2297 C 0.67939 0.12503 0.72404 0.0
C2298 C 0.66152 0.10788 0.71945 0.0
H2299 H 0.76327 0.13328 0.67333 0.0
H2300 H 0.73409 0.12461 0.68417 0.0
C2301 C 0.64426 0.1028 0.72506 0.0
C2302 C 0.69757 0.13058 0.71797 0.0
H2303 H 0.71889 0.14726 0.69156 0.0
C2304 C 0.71282 0.12891 0.72415 0.0
C2305 C 0.69976 0.1373 0.70611 0.0
C2306 C 0.68391 0.13973 0.69924 0.0
C2307 C 0.73014 0.1334 0.71864 0.0
C2308 C 0.73241 0.14025 0.70677 0.0
C2309 C 0.71714 0.14202 0.70065 0.0
C2310 C 0.75034 0.1454 0.70041 0.0
C2311 C 0.74553 0.1302 0.72543 0.0
C2312 C 0.7692 0.16011 0.70588 0.0
C2313 C 0.78597 0.16499 0.69975 0.0
C2314 C 0.78415 0.15546 0.68793 0.0
C2315 C 0.76522 0.14093 0.68241 0.0
C2316 C 0.7485 0.13594 0.6886 0.0
H2317 H 0.73915 0.11971 0.73252 0.0
H2318 H 0.75226 0.12433 0.71892 0.0
H2319 H 0.75746 0.1446 0.73025 0.0
H2320 H 0.77094 0.16797 0.71485 0.0
H2321 H 0.80032 0.17635 0.70423 0.0
H2322 H 0.89074 0.52119 0.70384 0.0
H2323 H 0.87899 0.54153 0.69438 0.0
H2324 H 0.90003 0.58199 0.72785 0.0
H2325 H 0.91201 0.56182 0.73738 0.0
H2326 H 0.86118 0.57038 0.71841 0.0
H2327 H 0.91268 0.59619 0.68208 0.0
H2328 H 0.89934 0.56969 0.6823 0.0
H2329 H 0.91672 0.58528 0.69529 0.0
C2330 C 0.89314 0.53458 0.70914 0.0
C2331 C 0.9024 0.53994 0.72135 0.0
C2332 C 0.88639 0.54617 0.70372 0.0
C2333 C 0.88889 0.56339 0.71037 0.0
C2334 C 0.89802 0.56876 0.72257 0.0
H2335 H 0.87007 0.65298 0.67856 0.0
H2336 H 0.88391 0.63557 0.68967 0.0
C2337 C 0.90477 0.55718 0.728 0.0
C2338 C 0.88144 0.57548 0.70469 0.0
H2339 H 0.88562 0.60207 0.6802 0.0
C2340 C 0.86658 0.57742 0.7101 0.0
C2341 C 0.88873 0.58483 0.69394 0.0
C2342 C 0.90538 0.58409 0.68811 0.0
C2343 C 0.85842 0.58805 0.70484 0.0
C2344 C 0.86515 0.59671 0.69381 0.0
C2345 C 0.88037 0.59522 0.68859 0.0
C2346 C 0.85652 0.6073 0.68748 0.0
C2347 C 0.8428 0.59008 0.71116 0.0
C2348 C 0.83658 0.59711 0.68252 0.0
C2349 C 0.82865 0.60701 0.67619 0.0
C2350 C 0.84056 0.62724 0.67472 0.0
C2351 C 0.86052 0.63741 0.67967 0.0
C2352 C 0.86846 0.6275 0.68597 0.0
H2353 H 0.84287 0.587 0.72098 0.0
H2354 H 0.84499 0.60524 0.71083 0.0
H2355 H 0.82799 0.57927 0.70631 0.0
H2356 H 0.82723 0.58143 0.6834 0.0
H2357 H 0.81322 0.59884 0.67242 0.0
H2358 H 0.44509 0.90968 0.16954 0.0
H2359 H 0.45279 0.92151 0.1492 0.0
H2360 H 0.4827 0.98217 0.16604 0.0
H2361 H 0.47514 0.97047 0.18646 0.0
H2362 H 0.45785 0.97521 0.14414 0.0
H2363 H 0.50859 0.94565 0.13783 0.0
H2364 H 0.48426 0.92753 0.14116 0.0
H2365 H 0.50023 0.94795 0.15261 0.0
C2366 C 0.45337 0.92554 0.16893 0.0
C2367 C 0.45966 0.93914 0.17962 0.0
C2368 C 0.45774 0.93226 0.1573 0.0
C2369 C 0.46859 0.95269 0.15616 0.0
C2370 C 0.47435 0.96633 0.16675 0.0
H2371 H 0.53133 0.00764 0.09405 0.0
H2372 H 0.52149 0.99706 0.11438 0.0
C2373 C 0.46996 0.95962 0.17839 0.0
C2374 C 0.47428 0.95983 0.14395 0.0
H2375 H 0.50095 0.95861 0.12058 0.0
C2376 C 0.46729 0.97162 0.13897 0.0
C2377 C 0.48682 0.95534 0.13734 0.0
C2378 C 0.49559 0.94358 0.14253 0.0
C2379 C 0.47228 0.97882 0.12744 0.0
C2380 C 0.48436 0.97383 0.12068 0.0
C2381 C 0.49155 0.96226 0.12574 0.0
C2382 C 0.49006 0.98074 0.10842 0.0
C2383 C 0.46491 0.99198 0.12271 0.0
C2384 C 0.47564 0.97497 0.09831 0.0
C2385 C 0.48121 0.98111 0.08669 0.0
C2386 C 0.50132 0.99306 0.08495 0.0
C2387 C 0.51571 0.99872 0.09511 0.0
C2388 C 0.51012 0.99259 0.10671 0.0
H2389 H 0.46019 0.99844 0.13026 0.0
H2390 H 0.47652 0.00429 0.11821 0.0
H2391 H 0.45193 0.98304 0.11572 0.0
H2392 H 0.4601 0.96553 0.09938 0.0
H2393 H 0.46976 0.9766 0.07908 0.0
H2394 H 0.03568 0.54109 0.19075 0.0
H2395 H 0.02777 0.53762 0.16835 0.0
H2396 H 0.0342 0.4858 0.16461 0.0
H2397 H 0.0419 0.48907 0.18711 0.0
H2398 H 0.05232 0.53974 0.15104 0.0
H2399 H 0.98224 0.46694 0.14334 0.0
H2400 H 0.99245 0.48048 0.15851 0.0
H2401 H 0.00255 0.46643 0.15155 0.0
C2402 C 0.03526 0.52887 0.18516 0.0
C2403 C 0.03945 0.51538 0.19065 0.0
C2404 C 0.0307 0.52688 0.17238 0.0
C2405 C 0.03023 0.51136 0.16482 0.0
C2406 C 0.03406 0.49764 0.17029 0.0
H2407 H 0.02177 0.49363 0.08399 0.0
H2408 H 0.02687 0.49121 0.10611 0.0
C2409 C 0.0385 0.49954 0.18312 0.0
C2410 C 0.02699 0.5105 0.15119 0.0
H2411 H 0.99623 0.4819 0.12543 0.0
C2412 C 0.04005 0.52709 0.14546 0.0
C2413 C 0.01102 0.49392 0.14391 0.0
C2414 C 0.99614 0.47598 0.14962 0.0
C2415 C 0.03748 0.52764 0.13267 0.0
C2416 C 0.0214 0.51122 0.12544 0.0
C2417 C 0.00855 0.49443 0.13107 0.0
C2418 C 0.01731 0.51174 0.1121 0.0
C2419 C 0.05192 0.54579 0.12693 0.0
C2420 C 0.00997 0.52385 0.10823 0.0
C2421 C 0.00687 0.52514 0.09564 0.0
C2422 C 0.01113 0.51439 0.08668 0.0
C2423 C 0.01816 0.50196 0.09063 0.0
C2424 C 0.02116 0.50061 0.10325 0.0
H2425 H 0.06546 0.55563 0.13335 0.0
H2426 H 0.05631 0.54139 0.1183 0.0
H2427 H 0.04469 0.55443 0.12444 0.0
H2428 H 0.00675 0.53239 0.11497 0.0
H2429 H 0.00105 0.53451 0.09294 0.0
H2430 H 0.49956 0.53889 0.18958 0.0
H2431 H 0.50674 0.53682 0.16817 0.0
H2432 H 0.44816 0.48634 0.15849 0.0
H2433 H 0.44095 0.4878 0.18 0.0
H2434 H 0.50055 0.49842 0.15243 0.0
H2435 H 0.45758 0.53309 0.13527 0.0
H2436 H 0.46775 0.53748 0.15126 0.0
H2437 H 0.44668 0.51389 0.14545 0.0
C2438 C 0.48828 0.5271 0.18298 0.0
C2439 C 0.46965 0.51351 0.18654 0.0
C2440 C 0.4924 0.52604 0.17074 0.0
C2441 C 0.47793 0.51152 0.16181 0.0
C2442 C 0.45944 0.49774 0.16529 0.0
H2443 H 0.47797 0.50093 0.0816 0.0
H2444 H 0.46835 0.49667 0.10264 0.0
C2445 C 0.45533 0.49869 0.17756 0.0
C2446 C 0.48213 0.51112 0.14878 0.0
H2447 H 0.47389 0.52452 0.12079 0.0
C2448 C 0.49469 0.50403 0.14547 0.0
C2449 C 0.4743 0.51833 0.13978 0.0
C2450 C 0.46087 0.52623 0.14303 0.0
C2451 C 0.49971 0.504 0.1333 0.0
C2452 C 0.4924 0.51183 0.12435 0.0
C2453 C 0.47953 0.51858 0.12766 0.0
C2454 C 0.49834 0.5137 0.11159 0.0
C2455 C 0.51257 0.49536 0.13014 0.0
C2456 C 0.51838 0.52481 0.10963 0.0
C2457 C 0.52396 0.52704 0.09762 0.0
C2458 C 0.50957 0.51844 0.0873 0.0
C2459 C 0.48947 0.50747 0.08931 0.0
C2460 C 0.48393 0.50514 0.10134 0.0
H2461 H 0.51156 0.48453 0.13663 0.0
H2462 H 0.50836 0.4878 0.12055 0.0
H2463 H 0.52824 0.5075 0.1309 0.0
H2464 H 0.52975 0.53197 0.1174 0.0
H2465 H 0.53957 0.53543 0.09644 0.0
H2466 H 0.96561 0.51699 0.81841 0.0
H2467 H 0.97339 0.5179 0.84064 0.0
H2468 H 0.97998 0.46658 0.83393 0.0
H2469 H 0.97167 0.46513 0.81175 0.0
H2470 H 0.95091 0.48418 0.85501 0.0
H2471 H 0.031 0.50859 0.85694 0.0
H2472 H 0.01801 0.51287 0.8443 0.0
H2473 H 0.01498 0.48864 0.84521 0.0
C2474 C 0.96869 0.50587 0.82164 0.0
C2475 C 0.96797 0.49096 0.81327 0.0
C2476 C 0.97325 0.50651 0.83434 0.0
C2477 C 0.97743 0.49243 0.83887 0.0
C2478 C 0.97712 0.47777 0.83056 0.0
H2479 H 0.00156 0.46123 0.9096 0.0
H2480 H 0.99689 0.46502 0.88777 0.0
C2481 C 0.97243 0.47703 0.81788 0.0
C2482 C 0.98089 0.49224 0.85234 0.0
H2483 H 0.01546 0.49741 0.87515 0.0
C2484 C 0.96505 0.48724 0.85947 0.0
C2485 C 0.99933 0.49612 0.85804 0.0
C2486 C 0.0169 0.50201 0.85078 0.0
C2487 C 0.96697 0.48541 0.87215 0.0
C2488 C 0.98542 0.48922 0.87788 0.0
C2489 C 0.00135 0.49451 0.87075 0.0
C2490 C 0.98833 0.48718 0.89117 0.0
C2491 C 0.94903 0.4787 0.87917 0.0
C2492 C 0.98528 0.49855 0.90035 0.0
C2493 C 0.9876 0.49617 0.91285 0.0
C2494 C 0.99329 0.48255 0.91642 0.0
C2495 C 0.99677 0.47153 0.90719 0.0
C2496 C 0.9943 0.47382 0.8947 0.0
H2497 H 0.93506 0.47133 0.87284 0.0
H2498 H 0.94829 0.46822 0.88584 0.0
H2499 H 0.94994 0.49183 0.88443 0.0
H2500 H 0.98107 0.50926 0.89786 0.0
H2501 H 0.98468 0.50481 0.91969 0.0
H2502 H 0.52278 0.50329 0.81591 0.0
H2503 H 0.51658 0.50835 0.83726 0.0
H2504 H 0.54379 0.47506 0.84923 0.0
H2505 H 0.55055 0.47044 0.82803 0.0
H2506 H 0.49355 0.47871 0.85145 0.0
H2507 H 0.57006 0.52429 0.87451 0.0
H2508 H 0.56441 0.52098 0.8579 0.0
H2509 H 0.5659 0.50206 0.86572 0.0
C2510 C 0.5278 0.4974 0.82314 0.0
C2511 C 0.53714 0.48645 0.82028 0.0
C2512 C 0.52415 0.50021 0.83531 0.0
C2513 C 0.52994 0.4923 0.84485 0.0
C2514 C 0.53953 0.48162 0.84206 0.0
H2515 H 0.48288 0.45664 0.9138 0.0
H2516 H 0.49212 0.45941 0.89267 0.0
C2517 C 0.54316 0.47878 0.82991 0.0
C2518 C 0.52476 0.49393 0.85756 0.0
H2519 H 0.54438 0.50869 0.88779 0.0
C2520 C 0.50467 0.48546 0.85938 0.0
C2521 C 0.5393 0.50296 0.86788 0.0
C2522 C 0.56114 0.51327 0.86642 0.0
C2523 C 0.49868 0.48508 0.8713 0.0
C2524 C 0.51317 0.49311 0.88167 0.0
C2525 C 0.5333 0.50231 0.87983 0.0
C2526 C 0.50766 0.49157 0.89449 0.0
C2527 C 0.4769 0.47603 0.8727 0.0
C2528 C 0.51377 0.50874 0.90261 0.0
C2529 C 0.50849 0.50721 0.91471 0.0
C2530 C 0.4971 0.48845 0.91892 0.0
C2531 C 0.4913 0.47129 0.91079 0.0
C2532 C 0.49658 0.47285 0.89871 0.0
H2533 H 0.46843 0.47568 0.86403 0.0
H2534 H 0.47091 0.4605 0.87492 0.0
H2535 H 0.4744 0.48441 0.88033 0.0
H2536 H 0.52241 0.52333 0.89954 0.0
H2537 H 0.51305 0.52071 0.92071 0.0
H2538 H 0.56179 0.05025 0.82564 0.0
H2539 H 0.55451 0.03899 0.8462 0.0
H2540 H 0.50097 0.04203 0.8425 0.0
H2541 H 0.50814 0.05331 0.82203 0.0
H2542 H 0.54986 0.05806 0.86698 0.0
H2543 H 0.48132 0.98611 0.85229 0.0
H2544 H 0.49837 0.00034 0.84155 0.0
H2545 H 0.48066 0.00685 0.84655 0.0
C2546 C 0.54848 0.04854 0.82922 0.0
C2547 C 0.53546 0.05253 0.82216 0.0
C2548 C 0.54431 0.04204 0.84094 0.0
C2549 C 0.52703 0.03935 0.84578 0.0
C2550 C 0.51413 0.04351 0.83881 0.0
H2551 H 0.49889 0.03634 0.92121 0.0
H2552 H 0.50944 0.04532 0.90074 0.0
C2553 C 0.51825 0.04996 0.82711 0.0
C2554 C 0.52275 0.03284 0.85828 0.0
H2555 H 0.48749 0.99759 0.87385 0.0
C2556 C 0.53631 0.04475 0.86849 0.0
C2557 C 0.50521 0.01531 0.86021 0.0
C2558 C 0.49064 0.00129 0.84956 0.0
C2559 C 0.53247 0.03996 0.88062 0.0
C2560 C 0.51444 0.023 0.88258 0.0
C2561 C 0.5012 0.01072 0.87234 0.0
C2562 C 0.50881 0.01787 0.89516 0.0
C2563 C 0.54781 0.05305 0.89121 0.0
C2564 C 0.50458 0.9993 0.89874 0.0
C2565 C 0.49845 0.9941 0.91041 0.0
C2566 C 0.49637 0.00734 0.91871 0.0
C2567 C 0.50067 0.02595 0.91511 0.0
C2568 C 0.50673 0.03112 0.90342 0.0
H2569 H 0.56276 0.06166 0.88806 0.0
H2570 H 0.54381 0.06381 0.89529 0.0
H2571 H 0.5485 0.04414 0.89858 0.0
H2572 H 0.50602 0.98884 0.89249 0.0
H2573 H 0.49546 0.97974 0.91296 0.0
H2574 H 0.10204 0.27891 0.51034 0.0
H2575 H 0.10808 0.29072 0.48983 0.0
H2576 H 0.16019 0.28513 0.49074 0.0
H2577 H 0.15446 0.27359 0.51124 0.0
H2578 H 0.14206 0.3239 0.48224 0.0
H2579 H 0.12725 0.25236 0.45801 0.0
H2580 H 0.11986 0.25424 0.47321 0.0
H2581 H 0.14509 0.26109 0.47143 0.0
C2582 C 0.11488 0.28035 0.50622 0.0
C2583 C 0.12767 0.27513 0.51239 0.0
C2584 C 0.11824 0.28701 0.49448 0.0
C2585 C 0.13438 0.28846 0.4887 0.0
C2586 C 0.1474 0.28368 0.49493 0.0
H2587 H 0.19375 0.3513 0.42835 0.0
H2588 H 0.18274 0.3403 0.44842 0.0
C2589 C 0.14407 0.27705 0.50664 0.0
C2590 C 0.13779 0.29509 0.47618 0.0
H2591 H 0.1425 0.28075 0.4469 0.0
C2592 C 0.142 0.31444 0.47447 0.0
C2593 C 0.13741 0.2826 0.46604 0.0
C2594 C 0.13198 0.26134 0.46719 0.0
C2595 C 0.14655 0.32187 0.46296 0.0
C2596 C 0.14712 0.30969 0.45298 0.0
C2597 C 0.14222 0.29012 0.45459 0.0
C2598 C 0.15334 0.31708 0.44089 0.0
C2599 C 0.15068 0.34267 0.46158 0.0
C2600 C 0.14057 0.30749 0.42998 0.0
C2601 C 0.1469 0.3136 0.41848 0.0
C2602 C 0.16619 0.32933 0.41768 0.0
C2603 C 0.17887 0.33903 0.42865 0.0
C2604 C 0.17252 0.33293 0.44014 0.0
H2605 H 0.14421 0.34779 0.46874 0.0
H2606 H 0.16693 0.35301 0.46266 0.0
H2607 H 0.14467 0.34357 0.45229 0.0
H2608 H 0.12577 0.29511 0.43036 0.0
H2609 H 0.13686 0.30563 0.41021 0.0
H2610 H 0.67404 0.82392 0.52442 0.0
H2611 H 0.66588 0.81819 0.50191 0.0
H2612 H 0.7272 0.85798 0.49723 0.0
H2613 H 0.73561 0.86308 0.5196 0.0
H2614 H 0.67018 0.84552 0.48644 0.0
H2615 H 0.71425 0.81136 0.47253 0.0
H2616 H 0.70937 0.81379 0.48836 0.0
H2617 H 0.72912 0.83448 0.48208 0.0
C2618 C 0.68585 0.83112 0.51858 0.0
C2619 C 0.70548 0.84398 0.52381 0.0
C2620 C 0.68114 0.82791 0.50573 0.0
C2621 C 0.69598 0.83741 0.49789 0.0
C2622 C 0.71558 0.85013 0.50308 0.0
H2623 H 0.70439 0.86954 0.42431 0.0
H2624 H 0.70855 0.86546 0.44624 0.0
C2625 C 0.72031 0.85327 0.51589 0.0
C2626 C 0.69088 0.83523 0.48433 0.0
H2627 H 0.70392 0.82528 0.45652 0.0
C2628 C 0.67729 0.84076 0.4799 0.0
C2629 C 0.70013 0.82895 0.47579 0.0
C2630 C 0.71387 0.82161 0.47993 0.0
C2631 C 0.67342 0.84105 0.46719 0.0
C2632 C 0.68338 0.83568 0.45874 0.0
C2633 C 0.69645 0.82952 0.46309 0.0
C2634 C 0.68114 0.83743 0.44541 0.0
C2635 C 0.65926 0.84775 0.46282 0.0
C2636 C 0.66444 0.82287 0.43776 0.0
C2637 C 0.66203 0.82513 0.42524 0.0
C2638 C 0.67624 0.84207 0.42025 0.0
C2639 C 0.6931 0.85646 0.42795 0.0
C2640 C 0.69555 0.85411 0.44042 0.0
H2641 H 0.65339 0.85233 0.47063 0.0
H2642 H 0.66681 0.86044 0.45725 0.0
H2643 H 0.64662 0.83546 0.45674 0.0
H2644 H 0.65319 0.80991 0.44151 0.0
H2645 H 0.64882 0.81389 0.41955 0.0
H2646 H 0.16424 0.87194 0.52193 0.0
H2647 H 0.171 0.86988 0.50041 0.0
H2648 H 0.11281 0.81858 0.49124 0.0
H2649 H 0.106 0.8201 0.51286 0.0
H2650 H 0.16117 0.82705 0.48421 0.0
H2651 H 0.12585 0.86996 0.46863 0.0
H2652 H 0.13776 0.87479 0.4842 0.0
H2653 H 0.11493 0.8521 0.47965 0.0
C2654 C 0.15296 0.85999 0.51542 0.0
C2655 C 0.13457 0.84616 0.51914 0.0
C2656 C 0.15683 0.85894 0.50312 0.0
C2657 C 0.14238 0.84412 0.49432 0.0
C2658 C 0.1241 0.83015 0.49795 0.0
H2659 H 0.14277 0.83698 0.4141 0.0
H2660 H 0.13271 0.83256 0.43504 0.0
C2661 C 0.12021 0.83113 0.51028 0.0
C2662 C 0.14635 0.84363 0.48127 0.0
H2663 H 0.14148 0.86072 0.45398 0.0
C2664 C 0.1568 0.83429 0.47754 0.0
C2665 C 0.14044 0.85296 0.47267 0.0
C2666 C 0.12912 0.86308 0.47638 0.0
C2667 C 0.16173 0.83423 0.46535 0.0
C2668 C 0.15645 0.84421 0.45682 0.0
C2669 C 0.14558 0.85315 0.46053 0.0
C2670 C 0.16255 0.84609 0.44411 0.0
C2671 C 0.17235 0.82331 0.46172 0.0
C2672 C 0.18267 0.85529 0.44226 0.0
C2673 C 0.18846 0.85761 0.4303 0.0
C2674 C 0.17426 0.85102 0.41994 0.0
C2675 C 0.15409 0.84194 0.42184 0.0
C2676 C 0.14831 0.83952 0.43381 0.0
H2677 H 0.16971 0.81156 0.46785 0.0
H2678 H 0.16757 0.81636 0.45199 0.0
H2679 H 0.18852 0.83398 0.46261 0.0
H2680 H 0.19395 0.8609 0.45007 0.0
H2681 H 0.20409 0.86449 0.42919 0.0
H2682 H 0.6635 0.83849 0.1461 0.0
H2683 H 0.67094 0.83879 0.1684 0.0
H2684 H 0.60854 0.80853 0.17262 0.0
H2685 H 0.60096 0.80805 0.15042 0.0
H2686 H 0.65499 0.85442 0.18951 0.0
H2687 H 0.63363 0.77462 0.18695 0.0
H2688 H 0.6414 0.78885 0.17385 0.0
H2689 H 0.61716 0.78064 0.17851 0.0
C2690 C 0.65139 0.83187 0.1518 0.0
C2691 C 0.63165 0.82326 0.14654 0.0
C2692 C 0.65567 0.83215 0.1645 0.0
C2693 C 0.64026 0.8236 0.17206 0.0
C2694 C 0.62059 0.81514 0.16688 0.0
H2695 H 0.62754 0.79642 0.24753 0.0
H2696 H 0.62312 0.79948 0.22549 0.0
C2697 C 0.61631 0.81499 0.15423 0.0
C2698 C 0.64459 0.82324 0.18539 0.0
H2699 H 0.6407 0.79189 0.20688 0.0
C2700 C 0.65203 0.84083 0.19335 0.0
C2701 C 0.64056 0.80543 0.19028 0.0
C2702 C 0.63286 0.78627 0.182 0.0
C2703 C 0.65508 0.84094 0.20621 0.0
C2704 C 0.65098 0.82307 0.21113 0.0
C2705 C 0.64379 0.80556 0.2031 0.0
C2706 C 0.65368 0.82201 0.2246 0.0
C2707 C 0.662 0.86002 0.21442 0.0
C2708 C 0.67234 0.83362 0.23141 0.0
C2709 C 0.67486 0.83198 0.24401 0.0
C2710 C 0.65883 0.81847 0.24998 0.0
C2711 C 0.64018 0.80684 0.24314 0.0
C2712 C 0.63763 0.80861 0.23058 0.0
H2713 H 0.65922 0.87068 0.20961 0.0
H2714 H 0.65451 0.85713 0.22302 0.0
H2715 H 0.67818 0.8672 0.21706 0.0
H2716 H 0.68503 0.84368 0.22692 0.0
H2717 H 0.68946 0.8409 0.24902 0.0
H2718 H 0.22619 0.84348 0.15702 0.0
H2719 H 0.22053 0.84791 0.17862 0.0
H2720 H 0.16749 0.79027 0.17373 0.0
H2721 H 0.17284 0.78582 0.15216 0.0
H2722 H 0.18665 0.84641 0.1887 0.0
H2723 H 0.20129 0.78783 0.20367 0.0
H2724 H 0.20854 0.7986 0.18933 0.0
H2725 H 0.18329 0.77984 0.1904 0.0
C2726 C 0.21321 0.83185 0.16051 0.0
C2727 C 0.20007 0.8142 0.15291 0.0
C2728 C 0.21006 0.83437 0.17285 0.0
C2729 C 0.1938 0.81927 0.17779 0.0
C2730 C 0.18037 0.80192 0.17015 0.0
H2731 H 0.13687 0.81729 0.24321 0.0
H2732 H 0.14702 0.8188 0.22231 0.0
C2733 C 0.18348 0.79939 0.15784 0.0
C2734 C 0.19081 0.82147 0.19097 0.0
H2735 H 0.18686 0.80008 0.21783 0.0
C2736 C 0.18684 0.8364 0.19512 0.0
C2737 C 0.19137 0.80858 0.19933 0.0
C2738 C 0.19653 0.79291 0.19552 0.0
C2739 C 0.18271 0.83831 0.20734 0.0
C2740 C 0.18233 0.82479 0.21554 0.0
C2741 C 0.18699 0.81032 0.21149 0.0
C2742 C 0.17659 0.82495 0.22825 0.0
C2743 C 0.1788 0.85478 0.21139 0.0
C2744 C 0.18974 0.82757 0.23849 0.0
C2745 C 0.18391 0.82651 0.25044 0.0
C2746 C 0.16474 0.82262 0.25235 0.0
C2747 C 0.15167 0.82013 0.24205 0.0
C2748 C 0.15753 0.82124 0.23011 0.0
H2749 H 0.18501 0.86696 0.20531 0.0
H2750 H 0.16258 0.84873 0.21088 0.0
H2751 H 0.18522 0.86108 0.22109 0.0
H2752 H 0.20446 0.83027 0.23723 0.0
H2753 H 0.19424 0.82824 0.25816 0.0
H2754 H 0.17402 0.3825 0.15463 0.0
H2755 H 0.16736 0.37263 0.17545 0.0
H2756 H 0.22212 0.37202 0.18008 0.0
H2757 H 0.22868 0.38139 0.15907 0.0
H2758 H 0.18939 0.33866 0.18807 0.0
H2759 H 0.19636 0.40956 0.20757 0.0
H2760 H 0.17926 0.39817 0.19383 0.0
H2761 H 0.20514 0.40697 0.19299 0.0
C2762 C 0.18456 0.38005 0.16001 0.0
C2763 C 0.20191 0.38277 0.1552 0.0
C2764 C 0.18083 0.37463 0.17196 0.0
C2765 C 0.19441 0.37193 0.17936 0.0
C2766 C 0.21154 0.37421 0.17453 0.0
H2767 H 0.18985 0.36374 0.25879 0.0
H2768 H 0.20095 0.37289 0.23842 0.0
C2769 C 0.21531 0.37967 0.16257 0.0
C2770 C 0.19059 0.36663 0.19213 0.0
H2771 H 0.18254 0.38261 0.21994 0.0
C2772 C 0.18803 0.3483 0.19508 0.0
C2773 C 0.18914 0.37939 0.20129 0.0
C2774 C 0.1928 0.39971 0.19883 0.0
C2775 C 0.18338 0.3421 0.20687 0.0
C2776 C 0.18099 0.35447 0.21584 0.0
C2777 C 0.1842 0.37307 0.213 0.0
C2778 C 0.17473 0.34825 0.22815 0.0
C2779 C 0.18115 0.32243 0.20963 0.0
C2780 C 0.15628 0.33142 0.2291 0.0
C2781 C 0.14995 0.3261 0.24071 0.0
C2782 C 0.16189 0.3376 0.25159 0.0
C2783 C 0.18041 0.35442 0.25059 0.0
C2784 C 0.18673 0.35973 0.23897 0.0
H2785 H 0.18883 0.31756 0.20323 0.0
H2786 H 0.18713 0.32325 0.2193 0.0
H2787 H 0.1652 0.31093 0.20845 0.0
H2788 H 0.14663 0.32257 0.22086 0.0
H2789 H 0.13569 0.31296 0.24116 0.0
H2790 H 0.76838 0.60681 0.84305 0.0
H2791 H 0.77564 0.61927 0.82277 0.0
H2792 H 0.82837 0.61471 0.82513 0.0
H2793 H 0.82156 0.60283 0.84549 0.0
H2794 H 0.83424 0.65075 0.81755 0.0
H2795 H 0.76956 0.58574 0.79023 0.0
H2796 H 0.76379 0.59722 0.8029 0.0
H2797 H 0.77769 0.58506 0.80598 0.0
C2798 C 0.78158 0.60859 0.83928 0.0
C2799 C 0.79432 0.60369 0.84584 0.0
C2800 C 0.7856 0.61551 0.82765 0.0
C2801 C 0.80238 0.61761 0.82239 0.0
C2802 C 0.81526 0.61304 0.829 0.0
H2803 H 0.83325 0.63026 0.74744 0.0
H2804 H 0.82342 0.61915 0.76771 0.0
C2805 C 0.81126 0.60612 0.84059 0.0
C2806 C 0.80678 0.62479 0.81006 0.0
H2807 H 0.78985 0.61278 0.77932 0.0
C2808 C 0.82452 0.6425 0.80919 0.0
C2809 C 0.79415 0.61385 0.79917 0.0
C2810 C 0.7753 0.59432 0.79953 0.0
C2811 C 0.83001 0.64959 0.7977 0.0
C2812 C 0.81725 0.63879 0.78683 0.0
C2813 C 0.7995 0.62108 0.78769 0.0
C2814 C 0.82244 0.6453 0.77442 0.0
C2815 C 0.84966 0.66827 0.79727 0.0
C2816 C 0.82478 0.66352 0.77142 0.0
C2817 C 0.83037 0.6699 0.75986 0.0
C2818 C 0.83358 0.65809 0.75104 0.0
C2819 C 0.83075 0.63962 0.75399 0.0
C2820 C 0.8252 0.63328 0.76557 0.0
H2821 H 0.85962 0.6721 0.80595 0.0
H2822 H 0.85726 0.66666 0.78937 0.0
H2823 H 0.84712 0.68086 0.79602 0.0
H2824 H 0.82231 0.67282 0.77804 0.0
H2825 H 0.83205 0.68402 0.75779 0.0
H2826 H 0.36726 0.15142 0.85484 0.0
H2827 H 0.35941 0.14689 0.83229 0.0
H2828 H 0.36383 0.2043 0.8337 0.0
H2829 H 0.37118 0.20879 0.85619 0.0
H2830 H 0.32738 0.15119 0.81727 0.0
H2831 H 0.40525 0.20445 0.80979 0.0
H2832 H 0.39865 0.19207 0.82368 0.0
H2833 H 0.39502 0.21271 0.82158 0.0
C2834 C 0.36623 0.16293 0.85038 0.0
C2835 C 0.37005 0.18057 0.8573 0.0
C2836 C 0.36185 0.16035 0.8375 0.0
C2837 C 0.36133 0.17539 0.83139 0.0
C2838 C 0.36445 0.19267 0.83829 0.0
H2839 H 0.34979 0.20741 0.75948 0.0
H2840 H 0.35532 0.20459 0.78137 0.0
C2841 C 0.36874 0.19523 0.85112 0.0
C2842 C 0.35811 0.17349 0.81775 0.0
H2843 H 0.38105 0.19431 0.79258 0.0
C2844 C 0.3391 0.16039 0.8118 0.0
C2845 C 0.37352 0.18554 0.81074 0.0
C2846 C 0.39433 0.19941 0.81672 0.0
C2847 C 0.33486 0.1597 0.79899 0.0
C2848 C 0.35018 0.1722 0.79201 0.0
C2849 C 0.36933 0.18479 0.79796 0.0
C2850 C 0.34647 0.17344 0.77869 0.0
C2851 C 0.31388 0.1463 0.79314 0.0
C2852 C 0.33982 0.15688 0.7699 0.0
C2853 C 0.33643 0.15839 0.75736 0.0
C2854 C 0.33975 0.17653 0.75339 0.0
C2855 C 0.34671 0.19313 0.76223 0.0
C2856 C 0.35003 0.19159 0.77474 0.0
H2857 H 0.30315 0.14098 0.80017 0.0
H2858 H 0.3095 0.15412 0.78659 0.0
H2859 H 0.31284 0.13312 0.78786 0.0
H2860 H 0.33733 0.14282 0.77274 0.0
H2861 H 0.33097 0.14529 0.75079 0.0
H2862 H 0.8223 0.17305 0.85627 0.0
H2863 H 0.83019 0.17258 0.83487 0.0
H2864 H 0.78877 0.1913 0.82384 0.0
H2865 H 0.78111 0.19233 0.84522 0.0
H2866 H 0.78693 0.15806 0.80796 0.0
H2867 H 0.86216 0.22488 0.81766 0.0
H2868 H 0.85613 0.20563 0.8277 0.0
H2869 H 0.84309 0.21912 0.82787 0.0
C2870 C 0.81495 0.1772 0.84931 0.0
C2871 C 0.80115 0.18284 0.85249 0.0
C2872 C 0.81942 0.17683 0.8371 0.0
C2873 C 0.81017 0.18207 0.82785 0.0
C2874 C 0.79603 0.18719 0.83088 0.0
H2875 H 0.84597 0.21727 0.75579 0.0
H2876 H 0.83599 0.2147 0.77678 0.0
C2877 C 0.79161 0.18766 0.8431 0.0
C2878 C 0.81558 0.18269 0.81504 0.0
H2879 H 0.85323 0.20821 0.79745 0.0
C2880 C 0.80142 0.16897 0.80562 0.0
C2881 C 0.8344 0.19713 0.81207 0.0
C2882 C 0.84984 0.21266 0.82181 0.0
C2883 C 0.80567 0.16922 0.79326 0.0
C2884 C 0.82465 0.18345 0.79032 0.0
C2885 C 0.83874 0.19725 0.79975 0.0
C2886 C 0.83013 0.18461 0.77748 0.0
C2887 C 0.78969 0.15455 0.78344 0.0
C2888 C 0.83026 0.16858 0.77096 0.0
C2889 C 0.83592 0.17 0.75896 0.0
C2890 C 0.84178 0.18757 0.75334 0.0
C2891 C 0.84172 0.20362 0.75993 0.0
C2892 C 0.83596 0.20215 0.77189 0.0
H2893 H 0.77474 0.14818 0.78668 0.0
H2894 H 0.7898 0.16163 0.77489 0.0
H2895 H 0.79238 0.14211 0.78105 0.0
H2896 H 0.82626 0.15508 0.77521 0.0
H2897 H 0.83612 0.15751 0.75417 0.0
H2898 H 0.26578 0.14232 0.48292 0.0
H2899 H 0.2728 0.143 0.50521 0.0
H2900 H 0.33524 0.17081 0.50134 0.0
H2901 H 0.32837 0.17044 0.47901 0.0
H2902 H 0.29397 0.12467 0.51626 0.0
H2903 H 0.33018 0.20607 0.53008 0.0
H2904 H 0.3143 0.19424 0.51577 0.0
H2905 H 0.33905 0.19837 0.51719 0.0
C2906 C 0.28103 0.14885 0.48683 0.0
C2907 C 0.29654 0.15641 0.47923 0.0
C2908 C 0.28499 0.14912 0.49954 0.0
C2909 C 0.30453 0.15712 0.50489 0.0
C2910 C 0.32008 0.1648 0.49737 0.0
H2911 H 0.35528 0.16951 0.58042 0.0
H2912 H 0.34985 0.17143 0.55827 0.0
C2913 C 0.31612 0.16443 0.48463 0.0
C2914 C 0.30847 0.1566 0.51827 0.0
H2915 H 0.32933 0.18602 0.54567 0.0
C2916 C 0.30166 0.13805 0.52272 0.0
C2917 C 0.31864 0.17413 0.52659 0.0
C2918 C 0.32589 0.19437 0.52224 0.0
C2919 C 0.3049 0.13653 0.53531 0.0
C2920 C 0.31475 0.15404 0.54371 0.0
C2921 C 0.32171 0.17262 0.53922 0.0
C2922 C 0.31793 0.15335 0.55718 0.0
C2923 C 0.2981 0.11621 0.53945 0.0
C2924 C 0.30176 0.1429 0.56395 0.0
C2925 C 0.30482 0.1417 0.57656 0.0
C2926 C 0.32411 0.15119 0.58268 0.0
C2927 C 0.34025 0.16215 0.57596 0.0
C2928 C 0.33718 0.16321 0.56332 0.0
H2929 H 0.29617 0.1053 0.53164 0.0
H2930 H 0.3088 0.11675 0.54686 0.0
H2931 H 0.28358 0.11072 0.54316 0.0
H2932 H 0.28675 0.13564 0.55946 0.0
H2933 H 0.2921 0.13344 0.58156 0.0
H2934 H 0.87792 0.12888 0.49375 0.0
H2935 H 0.87122 0.13278 0.51504 0.0
H2936 H 0.85619 0.17688 0.50569 0.0
H2937 H 0.86179 0.17229 0.48418 0.0
H2938 H 0.88748 0.16454 0.5325 0.0
H2939 H 0.80761 0.13833 0.52101 0.0
H2940 H 0.82254 0.13571 0.50988 0.0
H2941 H 0.82385 0.15923 0.51328 0.0
C2942 C 0.87295 0.13924 0.49616 0.0
C2943 C 0.87013 0.15006 0.48718 0.0
C2944 C 0.86931 0.14158 0.50837 0.0
C2945 C 0.86284 0.15483 0.5119 0.0
C2946 C 0.86073 0.16623 0.5031 0.0
H2947 H 0.83327 0.18191 0.58414 0.0
H2948 H 0.84348 0.18414 0.56313 0.0
C2949 C 0.86421 0.16377 0.49084 0.0
C2950 C 0.85814 0.15646 0.52477 0.0
H2951 H 0.82062 0.1499 0.54195 0.0
C2952 C 0.87288 0.16138 0.53456 0.0
C2953 C 0.83904 0.15227 0.52744 0.0
C2954 C 0.82228 0.14591 0.51737 0.0
C2955 C 0.86899 0.16211 0.54694 0.0
C2956 C 0.8499 0.15781 0.54956 0.0
C2957 C 0.83527 0.15328 0.53983 0.0
C2958 C 0.84453 0.15693 0.56237 0.0
C2959 C 0.88521 0.16738 0.55717 0.0
C2960 C 0.8417 0.14084 0.56878 0.0
C2961 C 0.83575 0.13945 0.5807 0.0
C2962 C 0.83266 0.15421 0.58641 0.0
C2963 C 0.83572 0.17043 0.57999 0.0
C2964 C 0.84148 0.1717 0.56801 0.0
H2965 H 0.89996 0.17349 0.55367 0.0
H2966 H 0.88576 0.17843 0.56437 0.0
H2967 H 0.88203 0.15384 0.56163 0.0
H2968 H 0.84387 0.12925 0.5645 0.0
H2969 H 0.83366 0.12689 0.58547 0.0
H2970 H 0.85084 0.6883 0.48335 0.0
H2971 H 0.84222 0.67789 0.50393 0.0
H2972 H 0.87885 0.73863 0.52013 0.0
H2973 H 0.88715 0.74925 0.49959 0.0
H2974 H 0.86717 0.68302 0.52579 0.0
H2975 H 0.82387 0.72115 0.532 0.0
H2976 H 0.83077 0.71663 0.51712 0.0
H2977 H 0.84864 0.73672 0.52814 0.0
C2978 C 0.85699 0.69945 0.49129 0.0
C2979 C 0.86957 0.71962 0.48983 0.0
C2980 C 0.85216 0.69346 0.50304 0.0
C2981 C 0.8597 0.70753 0.51351 0.0
C2982 C 0.87267 0.72758 0.51213 0.0
H2983 H 0.85686 0.68643 0.59109 0.0
H2984 H 0.86689 0.69615 0.57061 0.0
C2985 C 0.87754 0.73359 0.5004 0.0
C2986 C 0.85372 0.70128 0.52584 0.0
H2987 H 0.82929 0.70688 0.5493 0.0
C2988 C 0.85888 0.68821 0.53095 0.0
C2989 C 0.84269 0.70789 0.53244 0.0
C2990 C 0.83598 0.72123 0.52713 0.0
C2991 C 0.85353 0.68178 0.54261 0.0
C2992 C 0.84293 0.6888 0.54934 0.0
C2993 C 0.83756 0.70166 0.54415 0.0
C2994 C 0.83696 0.68274 0.56172 0.0
C2995 C 0.85894 0.66727 0.54753 0.0
C2996 C 0.81683 0.67236 0.56354 0.0
C2997 C 0.81106 0.66696 0.57524 0.0
C2998 C 0.82533 0.67196 0.58536 0.0
C2999 C 0.84551 0.68248 0.58351 0.0
C3000 C 0.85127 0.68785 0.57179 0.0
H3001 H 0.86274 0.65973 0.54008 0.0
H3002 H 0.87203 0.67539 0.55453 0.0
H3003 H 0.84659 0.65579 0.55208 0.0
H3004 H 0.80557 0.66843 0.5559 0.0
H3005 H 0.79541 0.65913 0.5764 0.0
loop_
_geom_bond_atom_site_label_1
_geom_bond_atom_site_label_2
_geom_bond_distance
_geom_bond_site_symmetry_2
_ccdc_geom_bond_type
C0 C1 1.386 . S
C0 C2 1.397 . S
C0 H24 0.931 . S
C1 C0 1.386 . S
C1 C5 1.397 . S
C2 C0 1.397 . S
C2 C3 1.384 . S
C2 H25 0.930 . S
C3 C2 1.384 . S
C3 C4 1.377 . S
C3 C6 1.481 . S
C4 C3 1.377 . S
C4 C5 1.389 . S
C4 H26 0.929 . S
C5 C1 1.397 . S
C5 C4 1.389 . S
C5 H27 0.931 . S
C6 C3 1.481 . S
C6 C7 1.387 . S
C6 C11 1.390 . S
C7 C6 1.387 . S
C7 C8 1.401 . S
C7 H28 0.930 . S
C8 C7 1.401 . S
C8 C9 1.376 . S
C8 C17 1.511 . S
C9 C8 1.376 . S
C9 C10 1.392 . S
C9 H30 0.931 . S
C10 C9 1.392 . S
C10 C11 1.361 . S
C10 C12 1.500 . S
C11 C6 1.390 . S
C11 C10 1.361 . S
C11 H29 0.931 . S
C12 C10 1.500 . S
C12 C13 1.371 . S
C12 C14 1.365 . S
C13 C12 1.371 . S
C13 C23 1.386 . S
C13 H31 0.931 . S
C14 C12 1.365 . S
C14 C15 1.409 . S
C14 H32 0.929 . S
C15 C14 1.409 . S
C15 C16 1.380 . S
C15 H33 0.930 . S
C16 C15 1.380 . S
C16 C23 1.357 . S
C17 C8 1.511 . S
C17 C18 1.341 . S
C17 C19 1.371 . S
C18 C17 1.341 . S
C18 C22 1.394 . S
C18 H34 0.930 . S
C19 C17 1.371 . S
C19 C20 1.392 . S
C19 H35 0.931 . S
C20 C19 1.392 . S
C20 C21 1.331 . S
C20 H38 0.932 . S
C21 C20 1.331 . S
C21 C22 1.336 . S
C22 C18 1.394 . S
C22 C21 1.336 . S
C22 H37 0.929 . S
C23 C13 1.386 . S
C23 C16 1.357 . S
C23 H36 0.928 . S
H24 C0 0.931 . S
H25 C2 0.930 . S
H26 C4 0.929 . S
H27 C5 0.931 . S
H28 C7 0.930 . S
H29 C11 0.931 . S
H30 C9 0.931 . S
H31 C13 0.931 . S
H32 C14 0.929 . S
H33 C15 0.930 . S
H34 C18 0.930 . S
H35 C19 0.931 . S
H36 C23 0.928 . S
H37 C22 0.929 . S
H38 C20 0.932 . S
C39 C40 1.386 . S
C39 C41 1.397 . S
C39 H63 0.931 . S
C40 C39 1.386 . S
C40 C44 1.397 . S
C41 C39 1.397 . S
C41 C42 1.384 . S
C41 H64 0.930 . S
C42 C41 1.384 . S
C42 C43 1.377 . S
C42 C45 1.481 . S
C43 C42 1.377 . S
C43 C44 1.389 . S
C43 H65 0.929 . S
C44 C40 1.397 . S
C44 C43 1.389 . S
C44 H66 0.931 . S
C45 C42 1.481 . S
C45 C46 1.387 . S
C45 C50 1.390 . S
C46 C45 1.387 . S
C46 C47 1.401 . S
C46 H67 0.930 . S
C47 C46 1.401 . S
C47 C48 1.376 . S
C47 C56 1.511 . S
C48 C47 1.376 . S
C48 C49 1.392 . S
C48 H69 0.931 . S
C49 C48 1.392 . S
C49 C50 1.361 . S
C49 C51 1.500 . S
C50 C45 1.390 . S
C50 C49 1.361 . S
C50 H68 0.931 . S
C51 C49 1.500 . S
C51 C52 1.371 . S
C51 C53 1.365 . S
C52 C51 1.371 . S
C52 C62 1.386 . S
C52 H70 0.931 . S
C53 C51 1.365 . S
C53 C54 1.409 . S
C53 H71 0.929 . S
C54 C53 1.409 . S
C54 C55 1.380 . S
C54 H72 0.930 . S
C55 C54 1.380 . S
C55 C62 1.357 . S
C56 C47 1.511 . S
C56 C57 1.341 . S
C56 C58 1.371 . S
C57 C56 1.341 . S
C57 C61 1.394 . S
C57 H73 0.930 . S
C58 C56 1.371 . S
C58 C59 1.392 . S
C58 H74 0.931 . S
C59 C58 1.392 . S
C59 C60 1.331 . S
C59 H77 0.932 . S
C60 C59 1.331 . S
C60 C61 1.336 . S
C61 C57 1.394 . S
C61 C60 1.336 . S
C61 H76 0.929 . S
C62 C52 1.386 . S
C62 C55 1.357 . S
C62 H75 0.928 . S
H63 C39 0.931 . S
H64 C41 0.930 . S
H65 C43 0.929 . S
H66 C44 0.931 . S
H67 C46 0.930 . S
H68 C50 0.931 . S
H69 C48 0.931 . S
H70 C52 0.931 . S
H71 C53 0.929 . S
H72 C54 0.930 . S
H73 C57 0.930 . S
H74 C58 0.931 . S
H75 C62 0.928 . S
H76 C61 0.929 . S
H77 C59 0.932 . S
C78 C79 1.386 . S
C78 C80 1.397 . S
C78 H102 0.931 . S
C79 C78 1.386 . S
C79 C83 1.397 . S
C80 C78 1.397 . S
C80 C81 1.384 . S
C80 H103 0.930 . S
C81 C80 1.384 . S
C81 C82 1.377 . S
C81 C84 1.481 . S
C82 C81 1.377 . S
C82 C83 1.389 . S
C82 H104 0.929 . S
C83 C79 1.397 . S
C83 C82 1.389 . S
C83 H105 0.931 . S
C84 C81 1.481 . S
C84 C85 1.387 . S
C84 C89 1.390 . S
C85 C84 1.387 . S
C85 C86 1.401 . S
C85 H106 0.930 . S
C86 C85 1.401 . S
C86 C87 1.376 . S
C86 C95 1.511 . S
C87 C86 1.376 . S
C87 C88 1.392 . S
C87 H108 0.931 . S
C88 C87 1.392 . S
C88 C89 1.361 . S
C88 C90 1.500 . S
C89 C84 1.390 . S
C89 C88 1.361 . S
C89 H107 0.931 . S
C90 C88 1.500 . S
C90 C91 1.371 . S
C90 C92 1.365 . S
C91 C90 1.371 . S
C91 C101 1.386 . S
C91 H109 0.931 . S
C92 C90 1.365 . S
C92 C93 1.409 . S
C92 H110 0.929 . S
C93 C92 1.409 . S
C93 C94 1.380 . S
C93 H111 0.930 . S
C94 C93 1.380 . S
C94 C101 1.357 . S
C95 C86 1.511 . S
C95 C96 1.341 . S
C95 C97 1.371 . S
C96 C95 1.341 . S
C96 C100 1.394 . S
C96 H112 0.930 . S
C97 C95 1.371 . S
C97 C98 1.392 . S
C97 H113 0.931 . S
C98 C97 1.392 . S
C98 C99 1.331 . S
C98 H116 0.932 . S
C99 C98 1.331 . S
C99 C100 1.336 . S
C100 C96 1.394 . S
C100 C99 1.336 . S
C100 H115 0.929 . S
C101 C91 1.386 . S
C101 C94 1.357 . S
C101 H114 0.928 . S
H102 C78 0.931 . S
H103 C80 0.930 . S
H104 C82 0.929 . S
H105 C83 0.931 . S
H106 C85 0.930 . S
H107 C89 0.931 . S
H108 C87 0.931 . S
H109 C91 0.931 . S
H110 C92 0.929 . S
H111 C93 0.930 . S
H112 C96 0.930 . S
H113 C97 0.931 . S
H114 C101 0.928 . S
H115 C100 0.929 . S
H116 C98 0.932 . S
C117 C118 1.386 . S
C117 C119 1.397 . S
C117 H141 0.931 . S
C118 C117 1.386 . S
C118 C122 1.397 . S
C119 C117 1.397 . S
C119 C120 1.384 . S
C119 H142 0.930 . S
C120 C119 1.384 . S
C120 C121 1.377 . S
C120 C123 1.481 . S
C121 C120 1.377 . S
C121 C122 1.389 . S
C121 H143 0.929 . S
C122 C118 1.397 . S
C122 C121 1.389 . S
C122 H144 0.931 . S
C123 C120 1.481 . S
C123 C124 1.387 . S
C123 C128 1.390 . S
C124 C123 1.387 . S
C124 C125 1.401 . S
C124 H145 0.930 . S
C125 C124 1.401 . S
C125 C126 1.376 . S
C125 C134 1.511 . S
C126 C125 1.376 . S
C126 C127 1.392 . S
C126 H147 0.931 . S
C127 C126 1.392 . S
C127 C128 1.361 . S
C127 C129 1.500 . S
C128 C123 1.390 . S
C128 C127 1.361 . S
C128 H146 0.931 . S
C129 C127 1.500 . S
C129 C130 1.371 . S
C129 C131 1.365 . S
C130 C129 1.371 . S
C130 C140 1.386 . S
C130 H148 0.931 . S
C131 C129 1.365 . S
C131 C132 1.409 . S
C131 H149 0.929 . S
C132 C131 1.409 . S
C132 C133 1.380 . S
C132 H150 0.930 . S
C133 C132 1.380 . S
C133 C140 1.357 . S
C134 C125 1.511 . S
C134 C135 1.341 . S
C134 C136 1.371 . S
C135 C134 1.341 . S
C135 C139 1.394 . S
C135 H151 0.930 . S
C136 C134 1.371 . S
C136 C137 1.392 . S
C136 H152 0.931 . S
C137 C136 1.392 . S
C137 C138 1.331 . S
C137 H155 0.932 . S
C138 C137 1.331 . S
C138 C139 1.336 . S
C139 C135 1.394 . S
C139 C138 1.336 . S
C139 H154 0.929 . S
C140 C130 1.386 . S
C140 C133 1.357 . S
C140 H153 0.928 . S
H141 C117 0.931 . S
H142 C119 0.930 . S
H143 C121 0.929 . S
H144 C122 0.931 . S
H145 C124 0.930 . S
H146 C128 0.931 . S
H147 C126 0.931 . S
H148 C130 0.931 . S
H149 C131 0.929 . S
H150 C132 0.930 . S
H151 C135 0.930 . S
H152 C136 0.931 . S
H153 C140 0.928 . S
H154 C139 0.929 . S
H155 C137 0.932 . S
C156 C157 1.386 . S
C156 C158 1.397 . S
C156 H180 0.931 . S
C157 C156 1.386 . S
C157 C161 1.397 . S
C158 C156 1.397 . S
C158 C159 1.384 . S
C158 H181 0.930 . S
C159 C158 1.384 . S
C159 C160 1.377 . S
C159 C162 1.481 . S
C160 C159 1.377 . S
C160 C161 1.389 . S
C160 H182 0.929 . S
C161 C157 1.397 . S
C161 C160 1.389 . S
C161 H183 0.931 . S
C162 C159 1.481 . S
C162 C163 1.387 . S
C162 C167 1.390 . S
C163 C162 1.387 . S
C163 C164 1.401 . S
C163 H184 0.930 . S
C164 C163 1.401 . S
C164 C165 1.376 . S
C164 C173 1.511 . S
C165 C164 1.376 . S
C165 C166 1.392 . S
C165 H186 0.931 . S
C166 C165 1.392 . S
C166 C167 1.361 . S
C166 C168 1.500 . S
C167 C162 1.390 . S
C167 C166 1.361 . S
C167 H185 0.931 . S
C168 C166 1.500 . S
C168 C169 1.371 . S
C168 C170 1.365 . S
C169 C168 1.371 . S
C169 C179 1.386 . S
C169 H187 0.931 . S
C170 C168 1.365 . S
C170 C171 1.409 . S
C170 H188 0.929 . S
C171 C170 1.409 . S
C171 C172 1.380 . S
C171 H189 0.930 . S
C172 C171 1.380 . S
C172 C179 1.357 . S
C173 C164 1.511 . S
C173 C174 1.341 . S
C173 C175 1.371 . S
C174 C173 1.341 . S
C174 C178 1.394 . S
C174 H190 0.930 . S
C175 C173 1.371 . S
C175 C176 1.392 . S
C175 H191 0.931 . S
C176 C175 1.392 . S
C176 C177 1.331 . S
C176 H194 0.932 . S
C177 C176 1.331 . S
C177 C178 1.336 . S
C178 C174 1.394 . S
C178 C177 1.336 . S
C178 H193 0.929 . S
C179 C169 1.386 . S
C179 C172 1.357 . S
C179 H192 0.928 . S
H180 C156 0.931 . S
H181 C158 0.930 . S
H182 C160 0.929 . S
H183 C161 0.931 . S
H184 C163 0.930 . S
H185 C167 0.931 . S
H186 C165 0.931 . S
H187 C169 0.931 . S
H188 C170 0.929 . S
H189 C171 0.930 . S
H190 C174 0.930 . S
H191 C175 0.931 . S
H192 C179 0.928 . S
H193 C178 0.929 . S
H194 C176 0.932 . S
C195 C196 1.386 . S
C195 C197 1.397 . S
C195 H219 0.931 . S
C196 C195 1.386 . S
C196 C200 1.397 . S
C197 C195 1.397 . S
C197 C198 1.384 . S
C197 H220 0.930 . S
C198 C197 1.384 . S
C198 C199 1.377 . S
C198 C201 1.481 . S
C199 C198 1.377 . S
C199 C200 1.389 . S
C199 H221 0.929 . S
C200 C196 1.397 . S
C200 C199 1.389 . S
C200 H222 0.931 . S
C201 C198 1.481 . S
C201 C202 1.387 . S
C201 C206 1.390 . S
C202 C201 1.387 . S
C202 C203 1.401 . S
C202 H223 0.930 . S
C203 C202 1.401 . S
C203 C204 1.376 . S
C203 C212 1.511 . S
C204 C203 1.376 . S
C204 C205 1.392 . S
C204 H225 0.931 . S
C205 C204 1.392 . S
C205 C206 1.361 . S
C205 C207 1.500 . S
C206 C201 1.390 . S
C206 C205 1.361 . S
C206 H224 0.931 . S
C207 C205 1.500 . S
C207 C208 1.371 . S
C207 C209 1.365 . S
C208 C207 1.371 . S
C208 C218 1.386 . S
C208 H226 0.931 . S
C209 C207 1.365 . S
C209 C210 1.409 . S
C209 H227 0.929 . S
C210 C209 1.409 . S
C210 C211 1.380 . S
C210 H228 0.930 . S
C211 C210 1.380 . S
C211 C218 1.357 . S
C212 C203 1.511 . S
C212 C213 1.341 . S
C212 C214 1.371 . S
C213 C212 1.341 . S
C213 C217 1.394 . S
C213 H229 0.930 . S
C214 C212 1.371 . S
C214 C215 1.392 . S
C214 H230 0.931 . S
C215 C214 1.392 . S
C215 C216 1.331 . S
C215 H233 0.932 . S
C216 C215 1.331 . S
C216 C217 1.336 . S
C217 C213 1.394 . S
C217 C216 1.336 . S
C217 H232 0.929 . S
C218 C208 1.386 . S
C218 C211 1.357 . S
C218 H231 0.928 . S
H219 C195 0.931 . S
H220 C197 0.930 . S
H221 C199 0.929 . S
H222 C200 0.931 . S
H223 C202 0.930 . S
H224 C206 0.931 . S
H225 C204 0.931 . S
H226 C208 0.931 . S
H227 C209 0.929 . S
H228 C210 0.930 . S
H229 C213 0.930 . S
H230 C214 0.931 . S
H231 C218 0.928 . S
H232 C217 0.929 . S
H233 C215 0.932 . S
C234 C235 1.386 . S
C234 C236 1.397 . S
C234 H258 0.931 . S
C235 C234 1.386 . S
C235 C239 1.397 . S
C236 C234 1.397 . S
C236 C237 1.384 . S
C236 H259 0.930 . S
C237 C236 1.384 . S
C237 C238 1.377 . S
C237 C240 1.481 . S
C238 C237 1.377 . S
C238 C239 1.389 . S
C238 H260 0.929 . S
C239 C235 1.397 . S
C239 C238 1.389 . S
C239 H261 0.931 1_655 S
C240 C237 1.481 . S
C240 C241 1.387 . S
C240 C245 1.390 . S
C241 C240 1.387 . S
C241 C242 1.401 . S
C241 H262 0.930 . S
C242 C241 1.401 . S
C242 C243 1.376 . S
C242 C251 1.511 . S
C243 C242 1.376 . S
C243 C244 1.392 . S
C243 H264 0.931 . S
C244 C243 1.392 . S
C244 C245 1.361 . S
C244 C246 1.500 . S
C245 C240 1.390 . S
C245 C244 1.361 . S
C245 H263 0.931 . S
C246 C244 1.500 . S
C246 C247 1.371 . S
C246 C248 1.365 . S
C247 C246 1.371 . S
C247 C257 1.386 . S
C247 H265 0.931 . S
C248 C246 1.365 . S
C248 C249 1.409 . S
C248 H266 0.929 . S
C249 C248 1.409 . S
C249 C250 1.380 . S
C249 H267 0.930 . S
C250 C249 1.380 . S
C250 C257 1.357 . S
C251 C242 1.511 . S
C251 C252 1.341 . S
C251 C253 1.371 . S
C252 C251 1.341 . S
C252 C256 1.394 . S
C252 H268 0.930 . S
C253 C251 1.371 . S
C253 C254 1.392 . S
C253 H269 0.931 . S
C254 C253 1.392 . S
C254 C255 1.331 . S
C254 H272 0.932 . S
C255 C254 1.331 . S
C255 C256 1.336 . S
C256 C252 1.394 . S
C256 C255 1.336 . S
C256 H271 0.929 . S
C257 C247 1.386 . S
C257 C250 1.357 . S
C257 H270 0.928 . S
H258 C234 0.931 . S
H259 C236 0.930 . S
H260 C238 0.929 . S
H261 C239 0.931 1_455 S
H262 C241 0.930 . S
H263 C245 0.931 . S
H264 C243 0.931 . S
H265 C247 0.931 . S
H266 C248 0.929 . S
H267 C249 0.930 . S
H268 C252 0.930 . S
H269 C253 0.931 . S
H270 C257 0.928 . S
H271 C256 0.929 . S
H272 C254 0.932 . S
C273 C274 1.386 . S
C273 C275 1.397 . S
C273 H297 0.931 . S
C274 C273 1.386 . S
C274 C278 1.397 . S
C275 C273 1.397 . S
C275 C276 1.384 . S
C275 H298 0.930 . S
C276 C275 1.384 . S
C276 C277 1.377 . S
C276 C279 1.481 . S
C277 C276 1.377 . S
C277 C278 1.389 . S
C277 H299 0.929 . S
C278 C274 1.397 . S
C278 C277 1.389 . S
C278 H300 0.931 . S
C279 C276 1.481 . S
C279 C280 1.387 . S
C279 C284 1.390 . S
C280 C279 1.387 . S
C280 C281 1.401 . S
C280 H301 0.930 . S
C281 C280 1.401 . S
C281 C282 1.376 . S
C281 C290 1.511 . S
C282 C281 1.376 . S
C282 C283 1.392 . S
C282 H303 0.931 . S
C283 C282 1.392 . S
C283 C284 1.361 . S
C283 C285 1.500 . S
C284 C279 1.390 . S
C284 C283 1.361 . S
C284 H302 0.931 . S
C285 C283 1.500 . S
C285 C286 1.371 . S
C285 C287 1.365 . S
C286 C285 1.371 . S
C286 C296 1.386 . S
C286 H304 0.931 . S
C287 C285 1.365 . S
C287 C288 1.409 . S
C287 H305 0.929 . S
C288 C287 1.409 . S
C288 C289 1.380 . S
C288 H306 0.930 . S
C289 C288 1.380 . S
C289 C296 1.357 . S
C290 C281 1.511 . S
C290 C291 1.341 . S
C290 C292 1.371 . S
C291 C290 1.341 . S
C291 C295 1.394 . S
C291 H307 0.930 . S
C292 C290 1.371 . S
C292 C293 1.392 . S
C292 H308 0.931 . S
C293 C292 1.392 . S
C293 C294 1.331 . S
C293 H311 0.932 . S
C294 C293 1.331 . S
C294 C295 1.336 . S
C295 C291 1.394 . S
C295 C294 1.336 . S
C295 H310 0.929 . S
C296 C286 1.386 . S
C296 C289 1.357 . S
C296 H309 0.928 . S
H297 C273 0.931 . S
H298 C275 0.930 . S
H299 C277 0.929 . S
H300 C278 0.931 . S
H301 C280 0.930 . S
H302 C284 0.931 . S
H303 C282 0.931 . S
H304 C286 0.931 . S
H305 C287 0.929 . S
H306 C288 0.930 . S
H307 C291 0.930 . S
H308 C292 0.931 . S
H309 C296 0.928 . S
H310 C295 0.929 . S
H311 C293 0.932 . S
C312 C313 1.386 . S
C312 C314 1.397 . S
C312 H336 0.931 . S
C313 C312 1.386 . S
C313 C317 1.397 . S
C314 C312 1.397 . S
C314 C315 1.384 . S
C314 H337 0.930 . S
C315 C314 1.384 . S
C315 C316 1.377 . S
C315 C318 1.481 . S
C316 C315 1.377 . S
C316 C317 1.389 . S
C316 H338 0.929 . S
C317 C313 1.397 . S
C317 C316 1.389 . S
C317 H339 0.931 . S
C318 C315 1.481 . S
C318 C319 1.387 . S
C318 C323 1.390 . S
C319 C318 1.387 . S
C319 C320 1.401 . S
C319 H340 0.930 . S
C320 C319 1.401 . S
C320 C321 1.376 . S
C320 C329 1.511 . S
C321 C320 1.376 . S
C321 C322 1.392 . S
C321 H342 0.931 . S
C322 C321 1.392 . S
C322 C323 1.361 . S
C322 C324 1.500 . S
C323 C318 1.390 . S
C323 C322 1.361 . S
C323 H341 0.931 . S
C324 C322 1.500 . S
C324 C325 1.371 . S
C324 C326 1.365 . S
C325 C324 1.371 . S
C325 C335 1.386 . S
C325 H343 0.931 . S
C326 C324 1.365 . S
C326 C327 1.409 . S
C326 H344 0.929 . S
C327 C326 1.409 . S
C327 C328 1.380 . S
C327 H345 0.930 . S
C328 C327 1.380 . S
C328 C335 1.357 . S
C329 C320 1.511 . S
C329 C330 1.341 . S
C329 C331 1.371 . S
C330 C329 1.341 . S
C330 C334 1.394 . S
C330 H346 0.930 . S
C331 C329 1.371 . S
C331 C332 1.392 . S
C331 H347 0.931 . S
C332 C331 1.392 . S
C332 C333 1.331 . S
C332 H350 0.932 . S
C333 C332 1.331 . S
C333 C334 1.336 . S
C334 C330 1.394 . S
C334 C333 1.336 . S
C334 H349 0.929 . S
C335 C325 1.386 . S
C335 C328 1.357 . S
C335 H348 0.928 . S
H336 C312 0.931 . S
H337 C314 0.930 . S
H338 C316 0.929 . S
H339 C317 0.931 . S
H340 C319 0.930 . S
H341 C323 0.931 . S
H342 C321 0.931 . S
H343 C325 0.931 . S
H344 C326 0.929 . S
H345 C327 0.930 . S
H346 C330 0.930 . S
H347 C331 0.931 . S
H348 C335 0.928 . S
H349 C334 0.929 . S
H350 C332 0.932 . S
C351 C352 1.386 . S
C351 C353 1.397 . S
C351 H375 0.931 . S
C352 C351 1.386 . S
C352 C356 1.397 . S
C353 C351 1.397 . S
C353 C354 1.384 . S
C353 H376 0.930 . S
C354 C353 1.384 . S
C354 C355 1.377 . S
C354 C357 1.481 . S
C355 C354 1.377 . S
C355 C356 1.389 . S
C355 H377 0.929 . S
C356 C352 1.397 . S
C356 C355 1.389 . S
C356 H378 0.931 . S
C357 C354 1.481 . S
C357 C358 1.387 . S
C357 C362 1.390 . S
C358 C357 1.387 . S
C358 C359 1.401 . S
C358 H379 0.930 . S
C359 C358 1.401 . S
C359 C360 1.376 . S
C359 C368 1.511 . S
C360 C359 1.376 . S
C360 C361 1.392 . S
C360 H381 0.931 . S
C361 C360 1.392 . S
C361 C362 1.361 . S
C361 C363 1.500 . S
C362 C357 1.390 . S
C362 C361 1.361 . S
C362 H380 0.931 . S
C363 C361 1.500 . S
C363 C364 1.371 . S
C363 C365 1.365 . S
C364 C363 1.371 . S
C364 C374 1.386 . S
C364 H382 0.931 . S
C365 C363 1.365 . S
C365 C366 1.409 . S
C365 H383 0.929 . S
C366 C365 1.409 . S
C366 C367 1.380 . S
C366 H384 0.930 . S
C367 C366 1.380 . S
C367 C374 1.357 . S
C368 C359 1.511 . S
C368 C369 1.341 . S
C368 C370 1.371 . S
C369 C368 1.341 . S
C369 C373 1.394 . S
C369 H385 0.930 . S
C370 C368 1.371 . S
C370 C371 1.392 . S
C370 H386 0.931 . S
C371 C370 1.392 . S
C371 C372 1.331 . S
C371 H389 0.932 . S
C372 C371 1.331 . S
C372 C373 1.336 . S
C373 C369 1.394 . S
C373 C372 1.336 . S
C373 H388 0.929 . S
C374 C364 1.386 . S
C374 C367 1.357 . S
C374 H387 0.928 . S
H375 C351 0.931 . S
H376 C353 0.930 . S
H377 C355 0.929 . S
H378 C356 0.931 . S
H379 C358 0.930 . S
H380 C362 0.931 . S
H381 C360 0.931 . S
H382 C364 0.931 . S
H383 C365 0.929 . S
H384 C366 0.930 . S
H385 C369 0.930 . S
H386 C370 0.931 . S
H387 C374 0.928 . S
H388 C373 0.929 . S
H389 C371 0.932 . S
C390 C391 1.386 . S
C390 C392 1.397 . S
C390 H414 0.931 . S
C391 C390 1.386 . S
C391 C395 1.397 . S
C392 C390 1.397 . S
C392 C393 1.384 . S
C392 H415 0.930 . S
C393 C392 1.384 . S
C393 C394 1.377 . S
C393 C396 1.481 . S
C394 C393 1.377 . S
C394 C395 1.389 . S
C394 H416 0.929 . S
C395 C391 1.397 . S
C395 C394 1.389 . S
C395 H417 0.931 . S
C396 C393 1.481 . S
C396 C397 1.387 . S
C396 C401 1.390 . S
C397 C396 1.387 . S
C397 C398 1.401 . S
C397 H418 0.930 . S
C398 C397 1.401 . S
C398 C399 1.376 . S
C398 C407 1.511 . S
C399 C398 1.376 . S
C399 C400 1.392 . S
C399 H420 0.931 . S
C400 C399 1.392 . S
C400 C401 1.361 . S
C400 C402 1.500 . S
C401 C396 1.390 . S
C401 C400 1.361 . S
C401 H419 0.931 . S
C402 C400 1.500 . S
C402 C403 1.371 . S
C402 C404 1.365 . S
C403 C402 1.371 . S
C403 C413 1.386 . S
C403 H421 0.931 . S
C404 C402 1.365 . S
C404 C405 1.409 . S
C404 H422 0.929 . S
C405 C404 1.409 . S
C405 C406 1.380 . S
C405 H423 0.930 . S
C406 C405 1.380 . S
C406 C413 1.357 . S
C407 C398 1.511 . S
C407 C408 1.341 . S
C407 C409 1.371 . S
C408 C407 1.341 . S
C408 C412 1.394 . S
C408 H424 0.930 . S
C409 C407 1.371 . S
C409 C410 1.392 . S
C409 H425 0.931 . S
C410 C409 1.392 . S
C410 C411 1.331 . S
C410 H428 0.932 . S
C411 C410 1.331 . S
C411 C412 1.336 . S
C412 C408 1.394 . S
C412 C411 1.336 . S
C412 H427 0.929 . S
C413 C403 1.386 . S
C413 C406 1.357 . S
C413 H426 0.928 . S
H414 C390 0.931 . S
H415 C392 0.930 . S
H416 C394 0.929 . S
H417 C395 0.931 . S
H418 C397 0.930 . S
H419 C401 0.931 . S
H420 C399 0.931 . S
H421 C403 0.931 . S
H422 C404 0.929 . S
H423 C405 0.930 . S
H424 C408 0.930 . S
H425 C409 0.931 . S
H426 C413 0.928 . S
H427 C412 0.929 . S
H428 C410 0.932 . S
C429 C430 1.386 . S
C429 C431 1.397 . S
C429 H453 0.931 . S
C430 C429 1.386 . S
C430 C434 1.397 . S
C431 C429 1.397 . S
C431 C432 1.384 . S
C431 H454 0.930 . S
C432 C431 1.384 . S
C432 C433 1.377 . S
C432 C435 1.481 . S
C433 C432 1.377 . S
C433 C434 1.389 . S
C433 H455 0.929 . S
C434 C430 1.397 . S
C434 C433 1.389 . S
C434 H456 0.931 . S
C435 C432 1.481 . S
C435 C436 1.387 . S
C435 C440 1.390 . S
C436 C435 1.387 . S
C436 C437 1.401 . S
C436 H457 0.930 . S
C437 C436 1.401 . S
C437 C438 1.376 . S
C437 C446 1.511 . S
C438 C437 1.376 . S
C438 C439 1.392 . S
C438 H459 0.931 . S
C439 C438 1.392 . S
C439 C440 1.361 . S
C439 C441 1.500 . S
C440 C435 1.390 . S
C440 C439 1.361 . S
C440 H458 0.931 . S
C441 C439 1.500 . S
C441 C442 1.371 . S
C441 C443 1.365 . S
C442 C441 1.371 . S
C442 C452 1.386 . S
C442 H460 0.931 . S
C443 C441 1.365 . S
C443 C444 1.409 . S
C443 H461 0.929 . S
C444 C443 1.409 . S
C444 C445 1.380 . S
C444 H462 0.930 . S
C445 C444 1.380 . S
C445 C452 1.357 . S
C446 C437 1.511 . S
C446 C447 1.341 . S
C446 C448 1.371 . S
C447 C446 1.341 . S
C447 C451 1.394 . S
C447 H463 0.930 . S
C448 C446 1.371 . S
C448 C449 1.392 . S
C448 H464 0.931 . S
C449 C448 1.392 . S
C449 C450 1.331 . S
C449 H467 0.932 . S
C450 C449 1.331 . S
C450 C451 1.336 . S
C451 C447 1.394 . S
C451 C450 1.336 . S
C451 H466 0.929 . S
C452 C442 1.386 . S
C452 C445 1.357 . S
C452 H465 0.928 . S
H453 C429 0.931 . S
H454 C431 0.930 . S
H455 C433 0.929 . S
H456 C434 0.931 . S
H457 C436 0.930 . S
H458 C440 0.931 . S
H459 C438 0.931 . S
H460 C442 0.931 . S
H461 C443 0.929 . S
H462 C444 0.930 . S
H463 C447 0.930 . S
H464 C448 0.931 . S
H465 C452 0.928 . S
H466 C451 0.929 . S
H467 C449 0.932 . S
C468 C469 1.386 . S
C468 C470 1.397 . S
C468 H492 0.931 . S
C469 C468 1.386 . S
C469 C473 1.397 . S
C470 C468 1.397 . S
C470 C471 1.384 . S
C470 H493 0.930 . S
C471 C470 1.384 . S
C471 C472 1.377 . S
C471 C474 1.481 . S
C472 C471 1.377 . S
C472 C473 1.389 . S
C472 H494 0.929 . S
C473 C469 1.397 . S
C473 C472 1.389 . S
C473 H495 0.931 . S
C474 C471 1.481 . S
C474 C475 1.387 . S
C474 C479 1.390 . S
C475 C474 1.387 . S
C475 C476 1.401 . S
C475 H496 0.930 . S
C476 C475 1.401 . S
C476 C477 1.376 . S
C476 C485 1.511 . S
C477 C476 1.376 . S
C477 C478 1.392 . S
C477 H498 0.931 . S
C478 C477 1.392 . S
C478 C479 1.361 . S
C478 C480 1.500 . S
C479 C474 1.390 . S
C479 C478 1.361 . S
C479 H497 0.931 . S
C480 C478 1.500 . S
C480 C481 1.371 . S
C480 C482 1.365 . S
C481 C480 1.371 . S
C481 C491 1.386 . S
C481 H499 0.931 . S
C482 C480 1.365 . S
C482 C483 1.409 . S
C482 H500 0.929 . S
C483 C482 1.409 . S
C483 C484 1.380 . S
C483 H501 0.930 . S
C484 C483 1.380 . S
C484 C491 1.357 . S
C485 C476 1.511 . S
C485 C486 1.341 . S
C485 C487 1.371 . S
C486 C485 1.341 . S
C486 C490 1.394 . S
C486 H502 0.930 . S
C487 C485 1.371 . S
C487 C488 1.392 . S
C487 H503 0.931 . S
C488 C487 1.392 . S
C488 C489 1.331 . S
C488 H506 0.932 . S
C489 C488 1.331 . S
C489 C490 1.336 . S
C490 C486 1.394 . S
C490 C489 1.336 . S
C490 H505 0.929 . S
C491 C481 1.386 . S
C491 C484 1.357 . S
C491 H504 0.928 . S
H492 C468 0.931 . S
H493 C470 0.930 . S
H494 C472 0.929 . S
H495 C473 0.931 . S
H496 C475 0.930 . S
H497 C479 0.931 . S
H498 C477 0.931 . S
H499 C481 0.931 . S
H500 C482 0.929 . S
H501 C483 0.930 . S
H502 C486 0.930 . S
H503 C487 0.931 . S
H504 C491 0.928 . S
H505 C490 0.929 . S
H506 C488 0.932 . S
C507 C508 1.386 . S
C507 C509 1.397 . S
C507 H531 0.931 . S
C508 C507 1.386 . S
C508 C512 1.397 . S
C509 C507 1.397 . S
C509 C510 1.384 . S
C509 H532 0.930 . S
C510 C509 1.384 . S
C510 C511 1.377 . S
C510 C513 1.481 . S
C511 C510 1.377 . S
C511 C512 1.389 . S
C511 H533 0.929 . S
C512 C508 1.397 . S
C512 C511 1.389 . S
C512 H534 0.931 . S
C513 C510 1.481 . S
C513 C514 1.387 . S
C513 C518 1.390 . S
C514 C513 1.387 . S
C514 C515 1.401 . S
C514 H535 0.930 . S
C515 C514 1.401 . S
C515 C516 1.376 . S
C515 C524 1.511 . S
C516 C515 1.376 . S
C516 C517 1.392 . S
C516 H537 0.931 . S
C517 C516 1.392 . S
C517 C518 1.361 . S
C517 C519 1.500 . S
C518 C513 1.390 . S
C518 C517 1.361 . S
C518 H536 0.931 . S
C519 C517 1.500 . S
C519 C520 1.371 . S
C519 C521 1.365 . S
C520 C519 1.371 . S
C520 C530 1.386 . S
C520 H538 0.931 . S
C521 C519 1.365 . S
C521 C522 1.409 . S
C521 H539 0.929 . S
C522 C521 1.409 . S
C522 C523 1.380 . S
C522 H540 0.930 . S
C523 C522 1.380 . S
C523 C530 1.357 . S
C524 C515 1.511 . S
C524 C525 1.341 . S
C524 C526 1.371 . S
C525 C524 1.341 . S
C525 C529 1.394 . S
C525 H541 0.930 . S
C526 C524 1.371 . S
C526 C527 1.392 . S
C526 H542 0.931 . S
C527 C526 1.392 . S
C527 C528 1.331 . S
C527 H545 0.932 . S
C528 C527 1.331 . S
C528 C529 1.336 . S
C529 C525 1.394 . S
C529 C528 1.336 . S
C529 H544 0.929 . S
C530 C520 1.386 . S
C530 C523 1.357 . S
C530 H543 0.928 . S
H531 C507 0.931 . S
H532 C509 0.930 . S
H533 C511 0.929 . S
H534 C512 0.931 . S
H535 C514 0.930 . S
H536 C518 0.931 . S
H537 C516 0.931 . S
H538 C520 0.931 . S
H539 C521 0.929 . S
H540 C522 0.930 . S
H541 C525 0.930 . S
H542 C526 0.931 . S
H543 C530 0.928 . S
H544 C529 0.929 . S
H545 C527 0.932 . S
C546 C547 1.386 . S
C546 C548 1.397 . S
C546 H570 0.931 . S
C547 C546 1.386 . S
C547 C551 1.397 . S
C548 C546 1.397 . S
C548 C549 1.384 . S
C548 H571 0.930 . S
C549 C548 1.384 . S
C549 C550 1.377 . S
C549 C552 1.481 . S
C550 C549 1.377 . S
C550 C551 1.389 . S
C550 H572 0.929 . S
C551 C547 1.397 . S
C551 C550 1.389 . S
C551 H573 0.931 . S
C552 C549 1.481 . S
C552 C553 1.387 . S
C552 C557 1.390 . S
C553 C552 1.387 . S
C553 C554 1.401 . S
C553 H574 0.930 . S
C554 C553 1.401 . S
C554 C555 1.376 . S
C554 C563 1.511 . S
C555 C554 1.376 . S
C555 C556 1.392 . S
C555 H576 0.931 . S
C556 C555 1.392 . S
C556 C557 1.361 . S
C556 C558 1.500 . S
C557 C552 1.390 . S
C557 C556 1.361 . S
C557 H575 0.931 . S
C558 C556 1.500 . S
C558 C559 1.371 . S
C558 C560 1.365 . S
C559 C558 1.371 . S
C559 C569 1.386 . S
C559 H577 0.931 . S
C560 C558 1.365 . S
C560 C561 1.409 . S
C560 H578 0.929 . S
C561 C560 1.409 . S
C561 C562 1.380 . S
C561 H579 0.930 . S
C562 C561 1.380 . S
C562 C569 1.357 . S
C563 C554 1.511 . S
C563 C564 1.341 . S
C563 C565 1.371 . S
C564 C563 1.341 . S
C564 C568 1.394 . S
C564 H580 0.930 . S
C565 C563 1.371 . S
C565 C566 1.392 . S
C565 H581 0.931 . S
C566 C565 1.392 . S
C566 C567 1.331 . S
C566 H584 0.932 . S
C567 C566 1.331 . S
C567 C568 1.336 . S
C568 C564 1.394 . S
C568 C567 1.336 . S
C568 H583 0.929 . S
C569 C559 1.386 . S
C569 C562 1.357 . S
C569 H582 0.928 . S
H570 C546 0.931 . S
H571 C548 0.930 . S
H572 C550 0.929 . S
H573 C551 0.931 . S
H574 C553 0.930 . S
H575 C557 0.931 . S
H576 C555 0.931 . S
H577 C559 0.931 . S
H578 C560 0.929 . S
H579 C561 0.930 . S
H580 C564 0.930 . S
H581 C565 0.931 . S
H582 C569 0.928 . S
H583 C568 0.929 . S
H584 C566 0.932 . S
C585 C586 1.386 . S
C585 C587 1.397 . S
C585 H609 0.931 . S
C586 C585 1.386 . S
C586 C590 1.397 . S
C587 C585 1.397 . S
C587 C588 1.384 . S
C587 H610 0.930 . S
C588 C587 1.384 . S
C588 C589 1.377 . S
C588 C591 1.481 . S
C589 C588 1.377 . S
C589 C590 1.389 . S
C589 H611 0.929 . S
C590 C586 1.397 . S
C590 C589 1.389 . S
C590 H612 0.931 . S
C591 C588 1.481 . S
C591 C592 1.387 . S
C591 C596 1.390 . S
C592 C591 1.387 . S
C592 C593 1.401 . S
C592 H613 0.930 . S
C593 C592 1.401 . S
C593 C594 1.376 . S
C593 C602 1.511 . S
C594 C593 1.376 . S
C594 C595 1.392 . S
C594 H615 0.931 . S
C595 C594 1.392 . S
C595 C596 1.361 . S
C595 C597 1.500 . S
C596 C591 1.390 . S
C596 C595 1.361 . S
C596 H614 0.931 . S
C597 C595 1.500 . S
C597 C598 1.371 . S
C597 C599 1.365 . S
C598 C597 1.371 . S
C598 C608 1.386 . S
C598 H616 0.931 . S
C599 C597 1.365 . S
C599 C600 1.409 . S
C599 H617 0.929 . S
C600 C599 1.409 . S
C600 C601 1.380 . S
C600 H618 0.930 . S
C601 C600 1.380 . S
C601 C608 1.357 . S
C602 C593 1.511 . S
C602 C603 1.341 . S
C602 C604 1.371 . S
C603 C602 1.341 . S
C603 C607 1.394 . S
C603 H619 0.930 . S
C604 C602 1.371 . S
C604 C605 1.392 . S
C604 H620 0.931 . S
C605 C604 1.392 . S
C605 C606 1.331 . S
C605 H623 0.932 . S
C606 C605 1.331 . S
C606 C607 1.336 . S
C607 C603 1.394 . S
C607 C606 1.336 . S
C607 H622 0.929 . S
C608 C598 1.386 . S
C608 C601 1.357 . S
C608 H621 0.928 . S
H609 C585 0.931 . S
H610 C587 0.930 . S
H611 C589 0.929 . S
H612 C590 0.931 . S
H613 C592 0.930 . S
H614 C596 0.931 . S
H615 C594 0.931 . S
H616 C598 0.931 . S
H617 C599 0.929 . S
H618 C600 0.930 . S
H619 C603 0.930 . S
H620 C604 0.931 . S
H621 C608 0.928 . S
H622 C607 0.929 . S
H623 C605 0.932 . S
C624 C625 1.386 . S
C624 C626 1.397 . S
C624 H648 0.931 1_455 S
C625 C624 1.386 . S
C625 C629 1.397 . S
C626 C624 1.397 . S
C626 C627 1.384 . S
C626 H649 0.930 . S
C627 C626 1.384 . S
C627 C628 1.377 . S
C627 C630 1.481 . S
C628 C627 1.377 . S
C628 C629 1.389 . S
C628 H650 0.929 . S
C629 C625 1.397 . S
C629 C628 1.389 . S
C629 H651 0.931 . S
C630 C627 1.481 . S
C630 C631 1.387 . S
C630 C635 1.390 . S
C631 C630 1.387 . S
C631 C632 1.401 . S
C631 H652 0.930 . S
C632 C631 1.401 . S
C632 C633 1.376 . S
C632 C641 1.511 . S
C633 C632 1.376 . S
C633 C634 1.392 . S
C633 H654 0.931 . S
C634 C633 1.392 . S
C634 C635 1.361 . S
C634 C636 1.500 . S
C635 C630 1.390 . S
C635 C634 1.361 . S
C635 H653 0.931 . S
C636 C634 1.500 . S
C636 C637 1.371 . S
C636 C638 1.365 . S
C637 C636 1.371 . S
C637 C647 1.386 . S
C637 H655 0.931 . S
C638 C636 1.365 . S
C638 C639 1.409 . S
C638 H656 0.929 . S
C639 C638 1.409 . S
C639 C640 1.380 . S
C639 H657 0.930 . S
C640 C639 1.380 . S
C640 C647 1.357 . S
C641 C632 1.511 . S
C641 C642 1.341 . S
C641 C643 1.371 . S
C642 C641 1.341 . S
C642 C646 1.394 . S
C642 H658 0.930 . S
C643 C641 1.371 . S
C643 C644 1.392 . S
C643 H659 0.931 . S
C644 C643 1.392 . S
C644 C645 1.331 . S
C644 H662 0.932 . S
C645 C644 1.331 . S
C645 C646 1.336 . S
C646 C642 1.394 . S
C646 C645 1.336 . S
C646 H661 0.929 . S
C647 C637 1.386 . S
C647 C640 1.357 . S
C647 H660 0.928 . S
H648 C624 0.931 1_655 S
H649 C626 0.930 . S
H650 C628 0.929 . S
H651 C629 0.931 . S
H652 C631 0.930 . S
H653 C635 0.931 . S
H654 C633 0.931 . S
H655 C637 0.931 . S
H656 C638 0.929 . S
H657 C639 0.930 . S
H658 C642 0.930 . S
H659 C643 0.931 . S
H660 C647 0.928 . S
H661 C646 0.929 . S
H662 C644 0.932 . S
C663 C664 1.386 . S
C663 C665 1.397 . S
C663 H687 0.931 . S
C664 C663 1.386 . S
C664 C668 1.397 . S
C665 C663 1.397 . S
C665 C666 1.384 . S
C665 H688 0.930 . S
C666 C665 1.384 . S
C666 C667 1.377 . S
C666 C669 1.481 . S
C667 C666 1.377 . S
C667 C668 1.389 . S
C667 H689 0.929 . S
C668 C664 1.397 . S
C668 C667 1.389 . S
C668 H690 0.931 . S
C669 C666 1.481 . S
C669 C670 1.387 . S
C669 C674 1.390 . S
C670 C669 1.387 . S
C670 C671 1.401 . S
C670 H691 0.930 . S
C671 C670 1.401 . S
C671 C672 1.376 . S
C671 C680 1.511 . S
C672 C671 1.376 . S
C672 C673 1.392 . S
C672 H693 0.931 . S
C673 C672 1.392 . S
C673 C674 1.361 . S
C673 C675 1.500 . S
C674 C669 1.390 . S
C674 C673 1.361 . S
C674 H692 0.931 . S
C675 C673 1.500 . S
C675 C676 1.371 . S
C675 C677 1.365 . S
C676 C675 1.371 . S
C676 C686 1.386 . S
C676 H694 0.931 . S
C677 C675 1.365 . S
C677 C678 1.409 . S
C677 H695 0.929 . S
C678 C677 1.409 . S
C678 C679 1.380 . S
C678 H696 0.930 . S
C679 C678 1.380 . S
C679 C686 1.357 . S
C680 C671 1.511 . S
C680 C681 1.341 . S
C680 C682 1.371 . S
C681 C680 1.341 . S
C681 C685 1.394 . S
C681 H697 0.930 . S
C682 C680 1.371 . S
C682 C683 1.392 . S
C682 H698 0.931 . S
C683 C682 1.392 . S
C683 C684 1.331 . S
C683 H701 0.932 . S
C684 C683 1.331 . S
C684 C685 1.336 . S
C685 C681 1.394 . S
C685 C684 1.336 . S
C685 H700 0.929 . S
C686 C676 1.386 . S
C686 C679 1.357 . S
C686 H699 0.928 . S
H687 C663 0.931 . S
H688 C665 0.930 . S
H689 C667 0.929 . S
H690 C668 0.931 . S
H691 C670 0.930 . S
H692 C674 0.931 . S
H693 C672 0.931 . S
H694 C676 0.931 . S
H695 C677 0.929 . S
H696 C678 0.930 . S
H697 C681 0.930 . S
H698 C682 0.931 . S
H699 C686 0.928 . S
H700 C685 0.929 . S
H701 C683 0.932 . S
C702 Eu703 2.835 . S
C702 C704 1.500 . S
C702 O722 1.257 1_545 S
C702 O723 1.260 . S
Eu703 C702 2.835 . S
Eu703 O722 2.473 1_545 S
Eu703 O723 2.480 . S
Eu703 O724 2.430 . S
Eu703 O725 2.670 1_554 S
Eu703 O726 2.394 1_545 S
Eu703 O731 2.355 1_545 S
Eu703 O733 2.374 . S
C704 C702 1.500 . S
C704 C705 1.377 . S
C704 C709 1.377 1_545 S
C705 C704 1.377 . S
C705 C706 1.395 . S
C705 H734 0.931 . S
C706 C705 1.395 . S
C706 C707 1.383 1_545 S
C706 H735 0.931 . S
C707 C706 1.383 1_565 S
C707 C708 1.394 . S
C708 C707 1.394 . S
C708 C709 1.378 . S
C708 H736 0.931 . S
C709 C704 1.377 1_565 S
C709 C708 1.378 . S
C709 H737 0.931 . S
C710 O724 1.302 . S
C710 O725 1.255 1_554 S
C711 O726 1.251 . S
C711 O727 1.251 1_554 S
C712 Eu713 2.835 . S
C712 C714 1.500 . S
C712 O728 1.257 1_565 S
C712 O729 1.260 . S
Eu713 C712 2.835 . S
Eu713 O725 2.355 1_565 S
Eu713 O727 2.374 . S
Eu713 O728 2.473 1_565 S
Eu713 O729 2.480 . S
Eu713 O730 2.430 . S
Eu713 O731 2.670 1_556 S
Eu713 O732 2.394 1_565 S
C714 C712 1.500 . S
C714 C715 1.377 . S
C714 C719 1.377 1_565 S
C715 C714 1.377 . S
C715 C716 1.395 . S
C715 H738 0.931 . S
C716 C715 1.395 . S
C716 C717 1.383 1_565 S
C716 H739 0.931 . S
C717 C716 1.383 1_545 S
C717 C718 1.394 . S
C718 C717 1.394 . S
C718 C719 1.378 . S
C718 H740 0.931 . S
C719 C714 1.377 1_545 S
C719 C718 1.378 . S
C719 H741 0.931 . S
C720 O730 1.259 1_554 S
C720 O731 1.270 . S
C721 O732 1.251 . S
C721 O733 1.251 1_556 S
O722 C702 1.257 1_565 S
O722 Eu703 2.473 1_565 S
O723 C702 1.260 . S
O723 Eu703 2.480 . S
O724 Eu703 2.430 . S
O724 C710 1.302 . S
O725 Eu703 2.670 1_556 S
O725 C710 1.255 1_556 S
O725 Eu713 2.355 1_545 S
O726 Eu703 2.394 1_565 S
O726 C711 1.251 . S
O727 C711 1.251 1_556 S
O727 Eu713 2.374 . S
O728 C712 1.257 1_545 S
O728 Eu713 2.473 1_545 S
O729 C712 1.260 . S
O729 Eu713 2.480 . S
O730 Eu713 2.430 . S
O730 C720 1.259 1_556 S
O731 Eu703 2.355 1_565 S
O731 Eu713 2.670 1_554 S
O731 C720 1.270 . S
O732 Eu713 2.394 1_545 S
O732 C721 1.251 . S
O733 Eu703 2.374 . S
O733 C721 1.251 1_554 S
H734 C705 0.931 . S
H735 C706 0.931 . S
H736 C708 0.931 . S
H737 C709 0.931 . S
H738 C715 0.931 . S
H739 C716 0.931 . S
H740 C718 0.931 . S
H741 C719 0.931 . S
C742 Eu743 2.835 . S
C742 C744 1.500 1_655 S
C742 O762 1.257 1_655 S
C742 O763 1.260 . S
Eu743 C742 2.835 . S
Eu743 O762 2.473 1_655 S
Eu743 O763 2.480 . S
Eu743 O764 2.430 . S
Eu743 O765 2.670 1_554 S
Eu743 O766 2.394 1_655 S
Eu743 O771 2.355 1_655 S
Eu743 O773 2.374 . S
C744 C742 1.500 1_455 S
C744 C745 1.377 1_455 S
C744 C749 1.377 . S
C745 C744 1.377 1_655 S
C745 C746 1.395 . S
C745 H774 0.931 . S
C746 C745 1.395 . S
C746 C747 1.383 1_655 S
C746 H775 0.931 . S
C747 C746 1.383 1_455 S
C747 C748 1.394 . S
C748 C747 1.394 . S
C748 C749 1.378 . S
C748 H776 0.931 . S
C749 C744 1.377 . S
C749 C748 1.378 . S
C749 H777 0.931 . S
C750 O764 1.259 1_556 S
C750 O765 1.270 . S
C751 O766 1.251 . S
C751 O767 1.251 . S
C752 Eu753 2.835 . S
C752 C754 1.500 1_455 S
C752 O768 1.257 1_455 S
C752 O769 1.260 . S
Eu753 C752 2.835 . S
Eu753 O765 2.355 1_455 S
Eu753 O767 2.374 1_556 S
Eu753 O768 2.473 1_455 S
Eu753 O769 2.480 . S
Eu753 O770 2.430 . S
Eu753 O771 2.670 1_556 S
Eu753 O772 2.394 1_455 S
C754 C752 1.500 1_655 S
C754 C755 1.377 1_655 S
C754 C759 1.377 . S
C755 C754 1.377 1_455 S
C755 C756 1.395 . S
C755 H778 0.931 . S
C756 C755 1.395 . S
C756 C757 1.383 1_455 S
C756 H779 0.931 . S
C757 C756 1.383 1_655 S
C757 C758 1.394 . S
C758 C757 1.394 . S
C758 C759 1.378 . S
C758 H780 0.931 . S
C759 C754 1.377 . S
C759 C758 1.378 . S
C759 H781 0.931 . S
C760 O770 1.259 1_554 S
C760 O771 1.270 . S
C761 O772 1.251 . S
C761 O773 1.251 1_556 S
O762 C742 1.257 1_455 S
O762 Eu743 2.473 1_455 S
O763 C742 1.260 . S
O763 Eu743 2.480 . S
O764 Eu743 2.430 . S
O764 C750 1.259 1_554 S
O765 Eu743 2.670 1_556 S
O765 C750 1.270 . S
O765 Eu753 2.355 1_655 S
O766 Eu743 2.394 1_455 S
O766 C751 1.251 . S
O767 C751 1.251 . S
O767 Eu753 2.374 1_554 S
O768 C752 1.257 1_655 S
O768 Eu753 2.473 1_655 S
O769 C752 1.260 . S
O769 Eu753 2.480 . S
O770 Eu753 2.430 . S
O770 C760 1.259 1_556 S
O771 Eu743 2.355 1_455 S
O771 Eu753 2.670 1_554 S
O771 C760 1.270 . S
O772 Eu753 2.394 1_655 S
O772 C761 1.251 . S
O773 Eu743 2.374 . S
O773 C761 1.251 1_554 S
H774 C745 0.931 . S
H775 C746 0.931 . S
H776 C748 0.931 . S
H777 C749 0.931 . S
H778 C755 0.931 . S
H779 C756 0.931 . S
H780 C758 0.931 . S
H781 C759 0.931 . S
C782 Eu783 2.835 . S
C782 C784 1.500 . S
C782 O802 1.257 . S
C782 O803 1.260 . S
Eu783 C782 2.835 . S
Eu783 O802 2.473 . S
Eu783 O803 2.480 . S
Eu783 O804 2.430 . S
Eu783 O805 2.670 1_556 S
Eu783 O806 2.394 . S
Eu783 O811 2.355 . S
Eu783 O813 2.334 1_556 S
C784 C782 1.500 . S
C784 C785 1.377 . S
C784 C789 1.377 . S
C785 C784 1.377 . S
C785 C786 1.395 . S
C785 H814 0.931 . S
C786 C785 1.395 . S
C786 C787 1.383 . S
C786 H815 0.931 . S
C787 C786 1.383 . S
C787 C788 1.394 . S
C788 C787 1.394 . S
C788 C789 1.378 . S
C788 H816 0.931 . S
C789 C784 1.377 . S
C789 C788 1.378 . S
C789 H817 0.931 . S
C790 O804 1.259 1_554 S
C790 O805 1.270 . S
C791 O806 1.251 . S
C791 O807 1.251 1_556 S
C792 Eu793 2.835 . S
C792 C794 1.500 . S
C792 O808 1.257 . S
C792 O809 1.260 . S
Eu793 C792 2.835 . S
Eu793 O805 2.355 . S
Eu793 O807 2.374 . S
Eu793 O808 2.473 . S
Eu793 O809 2.480 . S
Eu793 O810 2.430 . S
Eu793 O811 2.670 1_554 S
Eu793 O812 2.394 . S
C794 C792 1.500 . S
C794 C795 1.377 . S
C794 C799 1.377 . S
C795 C794 1.377 . S
C795 C796 1.395 . S
C795 H818 0.931 . S
C796 C795 1.395 . S
C796 C797 1.383 . S
C796 H819 0.931 . S
C797 C796 1.383 . S
C797 C798 1.394 . S
C798 C797 1.394 . S
C798 C799 1.378 . S
C798 H820 0.931 . S
C799 C794 1.377 . S
C799 C798 1.378 . S
C799 H821 0.931 . S
C800 O810 1.259 1_556 S
C800 O811 1.270 . S
C801 O812 1.251 . S
C801 O813 1.304 . S
O802 C782 1.257 . S
O802 Eu783 2.473 . S
O803 C782 1.260 . S
O803 Eu783 2.480 . S
O804 Eu783 2.430 . S
O804 C790 1.259 1_556 S
O805 Eu783 2.670 1_554 S
O805 C790 1.270 . S
O805 Eu793 2.355 . S
O806 Eu783 2.394 . S
O806 C791 1.251 . S
O807 C791 1.251 1_554 S
O807 Eu793 2.374 . S
O808 C792 1.257 . S
O808 Eu793 2.473 . S
O809 C792 1.260 . S
O809 Eu793 2.480 . S
O810 Eu793 2.430 . S
O810 C800 1.259 1_554 S
O811 Eu783 2.355 . S
O811 Eu793 2.670 1_556 S
O811 C800 1.270 . S
O812 Eu793 2.394 . S
O812 C801 1.251 . S
O813 Eu783 2.334 1_554 S
O813 C801 1.304 . S
H814 C785 0.931 . S
H815 C786 0.931 . S
H816 C788 0.931 . S
H817 C789 0.931 . S
H818 C795 0.931 . S
H819 C796 0.931 . S
H820 C798 0.931 . S
H821 C799 0.931 . S
C822 Eu823 2.835 . S
C822 C824 1.500 . S
C822 O842 1.257 . S
C822 O843 1.260 . S
Eu823 C822 2.835 . S
Eu823 O842 2.473 . S
Eu823 O843 2.480 . S
Eu823 O844 2.430 . S
Eu823 O845 2.670 . S
Eu823 O846 2.394 . S
Eu823 O851 2.355 . S
Eu823 O853 2.374 . S
C824 C822 1.500 . S
C824 C825 1.377 . S
C824 C829 1.377 . S
C825 C824 1.377 . S
C825 C826 1.395 . S
C825 H854 0.931 . S
C826 C825 1.395 . S
C826 C827 1.383 . S
C826 H855 0.931 . S
C827 C826 1.383 . S
C827 C828 1.394 . S
C828 C827 1.394 . S
C828 C829 1.378 . S
C828 H856 0.931 . S
C829 C824 1.377 . S
C829 C828 1.378 . S
C829 H857 0.931 . S
C830 O844 1.259 . S
C830 O845 1.270 . S
C831 O846 1.251 . S
C831 O847 1.251 . S
C832 Eu833 2.835 . S
C832 C834 1.500 . S
C832 O848 1.257 . S
C832 O849 1.260 . S
Eu833 C832 2.835 . S
Eu833 O845 2.355 . S
Eu833 O847 2.374 . S
Eu833 O848 2.473 . S
Eu833 O849 2.480 . S
Eu833 O850 2.430 . S
Eu833 O851 2.670 . S
Eu833 O852 2.394 . S
C834 C832 1.500 . S
C834 C835 1.377 . S
C834 C839 1.377 . S
C835 C834 1.377 . S
C835 C836 1.395 . S
C835 H858 0.931 . S
C836 C835 1.395 . S
C836 C837 1.383 . S
C836 H859 0.931 . S
C837 C836 1.383 . S
C837 C838 1.394 . S
C838 C837 1.394 . S
C838 C839 1.378 . S
C838 H860 0.931 . S
C839 C834 1.377 . S
C839 C838 1.378 . S
C839 H861 0.931 . S
C840 O850 1.259 . S
C840 O851 1.270 . S
C841 O852 1.251 . S
C841 O853 1.251 . S
O842 C822 1.257 . S
O842 Eu823 2.473 . S
O843 C822 1.260 . S
O843 Eu823 2.480 . S
O844 Eu823 2.430 . S
O844 C830 1.259 . S
O845 Eu823 2.670 . S
O845 C830 1.270 . S
O845 Eu833 2.355 . S
O846 Eu823 2.394 . S
O846 C831 1.251 . S
O847 C831 1.251 . S
O847 Eu833 2.374 . S
O848 C832 1.257 . S
O848 Eu833 2.473 . S
O849 C832 1.260 . S
O849 Eu833 2.480 . S
O850 Eu833 2.430 . S
O850 C840 1.259 . S
O851 Eu823 2.355 . S
O851 Eu833 2.670 . S
O851 C840 1.270 . S
O852 Eu833 2.394 . S
O852 C841 1.251 . S
O853 Eu823 2.374 . S
O853 C841 1.251 . S
H854 C825 0.931 . S
H855 C826 0.931 . S
H856 C828 0.931 . S
H857 C829 0.931 . S
H858 C835 0.931 . S
H859 C836 0.931 . S
H860 C838 0.931 . S
H861 C839 0.931 . S
C862 Eu863 2.835 . S
C862 C864 1.500 . S
C862 O882 1.257 . S
C862 O883 1.260 . S
Eu863 C862 2.835 . S
Eu863 O882 2.473 . S
Eu863 O883 2.480 . S
Eu863 O884 2.430 . S
Eu863 O885 2.670 . S
Eu863 O886 2.394 . S
Eu863 O891 2.355 . S
Eu863 O893 2.374 . S
C864 C862 1.500 . S
C864 C865 1.377 . S
C864 C869 1.377 . S
C865 C864 1.377 . S
C865 C866 1.395 . S
C865 H894 0.931 . S
C866 C865 1.395 . S
C866 C867 1.383 . S
C866 H895 0.931 . S
C867 C866 1.383 . S
C867 C868 1.394 . S
C868 C867 1.394 . S
C868 C869 1.378 . S
C868 H896 0.931 . S
C869 C864 1.377 . S
C869 C868 1.378 . S
C869 H897 0.931 . S
C870 O884 1.259 . S
C870 O885 1.270 . S
C871 O886 1.251 . S
C871 O887 1.251 . S
C872 Eu873 2.835 . S
C872 C874 1.500 . S
C872 O888 1.257 . S
C872 O889 1.260 . S
Eu873 C872 2.835 . S
Eu873 O885 2.355 . S
Eu873 O887 2.374 . S
Eu873 O888 2.473 . S
Eu873 O889 2.480 . S
Eu873 O890 2.430 . S
Eu873 O891 2.670 . S
Eu873 O892 2.394 . S
C874 C872 1.500 . S
C874 C875 1.377 . S
C874 C879 1.377 . S
C875 C874 1.377 . S
C875 C876 1.395 . S
C875 H898 0.931 . S
C876 C875 1.395 . S
C876 C877 1.383 . S
C876 H899 0.931 . S
C877 C876 1.383 . S
C877 C878 1.394 . S
C878 C877 1.394 . S
C878 C879 1.378 . S
C878 H900 0.931 . S
C879 C874 1.377 . S
C879 C878 1.378 . S
C879 H901 0.931 . S
C880 O890 1.259 . S
C880 O891 1.270 . S
C881 O892 1.251 . S
C881 O893 1.251 . S
O882 C862 1.257 . S
O882 Eu863 2.473 . S
O883 C862 1.260 . S
O883 Eu863 2.480 . S
O884 Eu863 2.430 . S
O884 C870 1.259 . S
O885 Eu863 2.670 . S
O885 C870 1.270 . S
O885 Eu873 2.355 . S
O886 Eu863 2.394 . S
O886 C871 1.251 . S
O887 C871 1.251 . S
O887 Eu873 2.374 . S
O888 C872 1.257 . S
O888 Eu873 2.473 . S
O889 C872 1.260 . S
O889 Eu873 2.480 . S
O890 Eu873 2.430 . S
O890 C880 1.259 . S
O891 Eu863 2.355 . S
O891 Eu873 2.670 . S
O891 C880 1.270 . S
O892 Eu873 2.394 . S
O892 C881 1.251 . S
O893 Eu863 2.374 . S
O893 C881 1.251 . S
H894 C865 0.931 . S
H895 C866 0.931 . S
H896 C868 0.931 . S
H897 C869 0.931 . S
H898 C875 0.931 . S
H899 C876 0.931 . S
H900 C878 0.931 . S
H901 C879 0.931 . S
C902 Eu903 2.835 . S
C902 C904 1.500 . S
C902 O922 1.257 . S
C902 O923 1.260 . S
Eu903 C902 2.835 . S
Eu903 O922 2.473 . S
Eu903 O923 2.480 . S
Eu903 O924 2.430 . S
Eu903 O925 2.670 . S
Eu903 O926 2.394 . S
Eu903 O931 2.355 . S
Eu903 O933 2.374 . S
C904 C902 1.500 . S
C904 C905 1.377 . S
C904 C909 1.377 . S
C905 C904 1.377 . S
C905 C906 1.395 . S
C905 H934 0.931 . S
C906 C905 1.395 . S
C906 C907 1.383 . S
C906 H935 0.931 . S
C907 C906 1.383 . S
C907 C908 1.394 . S
C908 C907 1.394 . S
C908 C909 1.378 . S
C908 H936 0.931 . S
C909 C904 1.377 . S
C909 C908 1.378 . S
C909 H937 0.931 . S
C910 O924 1.259 . S
C910 O925 1.270 . S
C911 O926 1.251 . S
C911 O927 1.251 . S
C912 Eu913 2.835 . S
C912 C914 1.500 . S
C912 O928 1.257 . S
C912 O929 1.260 . S
Eu913 C912 2.835 . S
Eu913 O925 2.355 . S
Eu913 O927 2.374 . S
Eu913 O928 2.473 . S
Eu913 O929 2.480 . S
Eu913 O930 2.430 . S
Eu913 O931 2.670 . S
Eu913 O932 2.394 . S
C914 C912 1.500 . S
C914 C915 1.377 . S
C914 C919 1.377 . S
C915 C914 1.377 . S
C915 C916 1.395 . S
C915 H938 0.931 . S
C916 C915 1.395 . S
C916 C917 1.383 . S
C916 H939 0.931 . S
C917 C916 1.383 . S
C917 C918 1.394 . S
C918 C917 1.394 . S
C918 C919 1.378 . S
C918 H940 0.931 . S
C919 C914 1.377 . S
C919 C918 1.378 . S
C919 H941 0.931 . S
C920 O930 1.259 . S
C920 O931 1.270 . S
C921 O932 1.251 . S
C921 O933 1.251 . S
O922 C902 1.257 . S
O922 Eu903 2.473 . S
O923 C902 1.260 . S
O923 Eu903 2.480 . S
O924 Eu903 2.430 . S
O924 C910 1.259 . S
O925 Eu903 2.670 . S
O925 C910 1.270 . S
O925 Eu913 2.355 . S
O926 Eu903 2.394 . S
O926 C911 1.251 . S
O927 C911 1.251 . S
O927 Eu913 2.374 . S
O928 C912 1.257 . S
O928 Eu913 2.473 . S
O929 C912 1.260 . S
O929 Eu913 2.480 . S
O930 Eu913 2.430 . S
O930 C920 1.259 . S
O931 Eu903 2.355 . S
O931 Eu913 2.670 . S
O931 C920 1.270 . S
O932 Eu913 2.394 . S
O932 C921 1.251 . S
O933 Eu903 2.374 . S
O933 C921 1.251 . S
H934 C905 0.931 . S
H935 C906 0.931 . S
H936 C908 0.931 . S
H937 C909 0.931 . S
H938 C915 0.931 . S
H939 C916 0.931 . S
H940 C918 0.931 . S
H941 C919 0.931 . S
C942 Eu943 2.835 . S
C942 C944 1.500 . S
C942 O962 1.257 . S
C942 O963 1.260 . S
Eu943 C942 2.835 . S
Eu943 O962 2.473 . S
Eu943 O963 2.480 . S
Eu943 O964 2.430 . S
Eu943 O965 2.670 . S
Eu943 O966 2.394 . S
Eu943 O971 2.355 . S
Eu943 O973 2.374 . S
C944 C942 1.500 . S
C944 C945 1.377 . S
C944 C949 1.377 . S
C945 C944 1.377 . S
C945 C946 1.395 . S
C945 H974 0.931 . S
C946 C945 1.395 . S
C946 C947 1.383 . S
C946 H975 0.931 . S
C947 C946 1.383 . S
C947 C948 1.394 . S
C948 C947 1.394 . S
C948 C949 1.378 . S
C948 H976 0.931 . S
C949 C944 1.377 . S
C949 C948 1.378 . S
C949 H977 0.931 . S
C950 O964 1.259 . S
C950 O965 1.270 . S
C951 O966 1.251 . S
C951 O967 1.251 . S
C952 Eu953 2.835 . S
C952 C954 1.500 . S
C952 O968 1.257 . S
C952 O969 1.260 . S
Eu953 C952 2.835 . S
Eu953 O965 2.355 . S
Eu953 O967 2.374 . S
Eu953 O968 2.473 . S
Eu953 O969 2.480 . S
Eu953 O970 2.430 . S
Eu953 O971 2.670 . S
Eu953 O972 2.394 . S
C954 C952 1.500 . S
C954 C955 1.377 . S
C954 C959 1.377 . S
C955 C954 1.377 . S
C955 C956 1.395 . S
C955 H978 0.931 . S
C956 C955 1.395 . S
C956 C957 1.383 . S
C956 H979 0.931 . S
C957 C956 1.383 . S
C957 C958 1.394 . S
C958 C957 1.394 . S
C958 C959 1.378 . S
C958 H980 0.931 . S
C959 C954 1.377 . S
C959 C958 1.378 . S
C959 H981 0.931 . S
C960 O970 1.259 . S
C960 O971 1.270 . S
C961 O972 1.251 . S
C961 O973 1.251 . S
O962 C942 1.257 . S
O962 Eu943 2.473 . S
O963 C942 1.260 . S
O963 Eu943 2.480 . S
O964 Eu943 2.430 . S
O964 C950 1.259 . S
O965 Eu943 2.670 . S
O965 C950 1.270 . S
O965 Eu953 2.355 . S
O966 Eu943 2.394 . S
O966 C951 1.251 . S
O967 C951 1.251 . S
O967 Eu953 2.374 . S
O968 C952 1.257 . S
O968 Eu953 2.473 . S
O969 C952 1.260 . S
O969 Eu953 2.480 . S
O970 Eu953 2.430 . S
O970 C960 1.259 . S
O971 Eu943 2.355 . S
O971 Eu953 2.670 . S
O971 C960 1.270 . S
O972 Eu953 2.394 . S
O972 C961 1.251 . S
O973 Eu943 2.374 . S
O973 C961 1.251 . S
H974 C945 0.931 . S
H975 C946 0.931 . S
H976 C948 0.931 . S
H977 C949 0.931 . S
H978 C955 0.931 . S
H979 C956 0.931 . S
H980 C958 0.931 . S
H981 C959 0.931 . S
C982 Eu983 2.835 . S
C982 C984 1.500 . S
C982 O1002 1.257 . S
C982 O1003 1.260 . S
Eu983 C982 2.835 . S
Eu983 O1002 2.473 . S
Eu983 O1003 2.480 . S
Eu983 O1004 2.430 . S
Eu983 O1005 2.670 . S
Eu983 O1006 2.394 . S
Eu983 O1011 2.355 . S
Eu983 O1013 2.374 . S
C984 C982 1.500 . S
C984 C985 1.377 . S
C984 C989 1.377 . S
C985 C984 1.377 . S
C985 C986 1.395 . S
C985 H1014 0.931 . S
C986 C985 1.395 . S
C986 C987 1.383 . S
C986 H1015 0.931 . S
C987 C986 1.383 . S
C987 C988 1.394 . S
C988 C987 1.394 . S
C988 C989 1.378 . S
C988 H1016 0.931 . S
C989 C984 1.377 . S
C989 C988 1.378 . S
C989 H1017 0.931 . S
C990 O1004 1.259 . S
C990 O1005 1.270 . S
C991 O1006 1.251 . S
C991 O1007 1.251 . S
C992 Eu993 2.835 . S
C992 C994 1.500 . S
C992 O1008 1.257 . S
C992 O1009 1.260 . S
Eu993 C992 2.835 . S
Eu993 O1005 2.355 . S
Eu993 O1007 2.374 . S
Eu993 O1008 2.473 . S
Eu993 O1009 2.480 . S
Eu993 O1010 2.430 . S
Eu993 O1011 2.670 . S
Eu993 O1012 2.394 . S
C994 C992 1.500 . S
C994 C995 1.377 . S
C994 C999 1.377 . S
C995 C994 1.377 . S
C995 C996 1.395 . S
C995 H1018 0.931 . S
C996 C995 1.395 . S
C996 C997 1.383 . S
C996 H1019 0.931 . S
C997 C996 1.383 . S
C997 C998 1.394 . S
C998 C997 1.394 . S
C998 C999 1.378 . S
C998 H1020 0.931 . S
C999 C994 1.377 . S
C999 C998 1.378 . S
C999 H1021 0.931 . S
C1000 O1010 1.259 . S
C1000 O1011 1.270 . S
C1001 O1012 1.251 . S
C1001 O1013 1.251 . S
O1002 C982 1.257 . S
O1002 Eu983 2.473 . S
O1003 C982 1.260 . S
O1003 Eu983 2.480 . S
O1004 Eu983 2.430 . S
O1004 C990 1.259 . S
O1005 Eu983 2.670 . S
O1005 C990 1.270 . S
O1005 Eu993 2.355 . S
O1006 Eu983 2.394 . S
O1006 C991 1.251 . S
O1007 C991 1.251 . S
O1007 Eu993 2.374 . S
O1008 C992 1.257 . S
O1008 Eu993 2.473 . S
O1009 C992 1.260 . S
O1009 Eu993 2.480 . S
O1010 Eu993 2.430 . S
O1010 C1000 1.259 . S
O1011 Eu983 2.355 . S
O1011 Eu993 2.670 . S
O1011 C1000 1.270 . S
O1012 Eu993 2.394 . S
O1012 C1001 1.251 . S
O1013 Eu983 2.374 . S
O1013 C1001 1.251 . S
H1014 C985 0.931 . S
H1015 C986 0.931 . S
H1016 C988 0.931 . S
H1017 C989 0.931 . S
H1018 C995 0.931 . S
H1019 C996 0.931 . S
H1020 C998 0.931 . S
H1021 C999 0.931 . S
C1022 Eu1023 2.835 . S
C1022 C1024 1.500 . S
C1022 O1042 1.257 . S
C1022 O1043 1.260 . S
Eu1023 C1022 2.835 . S
Eu1023 O1042 2.473 . S
Eu1023 O1043 2.480 . S
Eu1023 O1044 2.430 . S
Eu1023 O1045 2.670 . S
Eu1023 O1046 2.394 . S
Eu1023 O1051 2.355 . S
Eu1023 O1053 2.374 . S
C1024 C1022 1.500 . S
C1024 C1025 1.377 . S
C1024 C1029 1.377 . S
C1025 C1024 1.377 . S
C1025 C1026 1.395 . S
C1025 H1054 0.931 . S
C1026 C1025 1.395 . S
C1026 C1027 1.383 . S
C1026 H1055 0.931 . S
C1027 C1026 1.383 . S
C1027 C1028 1.394 . S
C1028 C1027 1.394 . S
C1028 C1029 1.378 . S
C1028 H1056 0.931 . S
C1029 C1024 1.377 . S
C1029 C1028 1.378 . S
C1029 H1057 0.931 . S
C1030 O1044 1.259 . S
C1030 O1045 1.270 . S
C1031 O1046 1.251 . S
C1031 O1047 1.251 . S
C1032 Eu1033 2.835 . S
C1032 C1034 1.500 . S
C1032 O1048 1.257 . S
C1032 O1049 1.260 . S
Eu1033 C1032 2.835 . S
Eu1033 O1045 2.355 . S
Eu1033 O1047 2.374 . S
Eu1033 O1048 2.473 . S
Eu1033 O1049 2.480 . S
Eu1033 O1050 2.430 . S
Eu1033 O1051 2.670 . S
Eu1033 O1052 2.394 . S
C1034 C1032 1.500 . S
C1034 C1035 1.377 . S
C1034 C1039 1.377 . S
C1035 C1034 1.377 . S
C1035 C1036 1.395 . S
C1035 H1058 0.931 . S
C1036 C1035 1.395 . S
C1036 C1037 1.383 . S
C1036 H1059 0.931 . S
C1037 C1036 1.383 . S
C1037 C1038 1.394 . S
C1038 C1037 1.394 . S
C1038 C1039 1.378 . S
C1038 H1060 0.931 . S
C1039 C1034 1.377 . S
C1039 C1038 1.378 . S
C1039 H1061 0.931 . S
C1040 O1050 1.259 . S
C1040 O1051 1.270 . S
C1041 O1052 1.251 . S
C1041 O1053 1.251 . S
O1042 C1022 1.257 . S
O1042 Eu1023 2.473 . S
O1043 C1022 1.260 . S
O1043 Eu1023 2.480 . S
O1044 Eu1023 2.430 . S
O1044 C1030 1.259 . S
O1045 Eu1023 2.670 . S
O1045 C1030 1.270 . S
O1045 Eu1033 2.355 . S
O1046 Eu1023 2.394 . S
O1046 C1031 1.251 . S
O1047 C1031 1.251 . S
O1047 Eu1033 2.374 . S
O1048 C1032 1.257 . S
O1048 Eu1033 2.473 . S
O1049 C1032 1.260 . S
O1049 Eu1033 2.480 . S
O1050 Eu1033 2.430 . S
O1050 C1040 1.259 . S
O1051 Eu1023 2.355 . S
O1051 Eu1033 2.670 . S
O1051 C1040 1.270 . S
O1052 Eu1033 2.394 . S
O1052 C1041 1.251 . S
O1053 Eu1023 2.374 . S
O1053 C1041 1.251 . S
H1054 C1025 0.931 . S
H1055 C1026 0.931 . S
H1056 C1028 0.931 . S
H1057 C1029 0.931 . S
H1058 C1035 0.931 . S
H1059 C1036 0.931 . S
H1060 C1038 0.931 . S
H1061 C1039 0.931 . S
H1062 C1070 0.929 . S
H1063 C1072 0.930 . S
H1064 C1074 0.930 . S
H1065 C1077 0.929 . S
H1066 C1080 0.930 . S
H1067 C1082 0.960 . S
H1068 C1082 0.960 . S
H1069 C1082 0.960 . S
C1070 H1062 0.929 . S
C1070 C1071 1.377 . S
C1070 C1072 1.384 . S
C1071 C1070 1.377 . S
C1071 C1077 1.390 . S
C1072 H1063 0.930 . S
C1072 C1070 1.384 . S
C1072 C1073 1.372 . S
C1073 C1072 1.372 . S
C1073 C1074 1.400 . S
C1073 C1078 1.490 . S
C1074 H1064 0.930 . S
C1074 C1073 1.400 . S
C1074 C1077 1.386 . S
H1075 C1091 0.930 . S
H1076 C1092 0.931 . S
C1077 H1065 0.929 . S
C1077 C1071 1.390 . S
C1077 C1074 1.386 . S
C1078 C1073 1.490 . S
C1078 C1080 1.395 . S
C1078 C1081 1.403 . S
H1079 C1085 0.930 . S
C1080 H1066 0.930 . S
C1080 C1078 1.395 . S
C1080 C1083 1.403 . S
C1081 C1078 1.403 . S
C1081 C1082 1.524 . S
C1081 C1085 1.400 . S
C1082 H1067 0.960 . S
C1082 H1068 0.960 . S
C1082 H1069 0.960 . S
C1082 C1081 1.524 . S
C1083 C1080 1.403 . S
C1083 C1084 1.392 . S
C1083 C1087 1.495 . S
C1084 C1083 1.392 . S
C1084 C1085 1.385 . S
C1084 C1086 1.478 . S
C1085 H1079 0.930 . S
C1085 C1081 1.400 . S
C1085 C1084 1.385 . S
C1086 C1084 1.478 . S
C1086 C1088 1.381 . S
C1086 C1092 1.383 . S
C1087 C1083 1.495 . S
C1087 H1093 0.959 . S
C1087 H1094 0.961 . S
C1087 H1095 0.960 . S
C1088 C1086 1.381 . S
C1088 C1089 1.394 . S
C1088 H1096 0.930 . S
C1089 C1088 1.394 . S
C1089 C1090 1.383 . S
C1089 H1097 0.929 . S
C1090 C1089 1.383 . S
C1090 C1091 1.377 . S
C1091 H1075 0.930 . S
C1091 C1090 1.377 . S
C1091 C1092 1.379 . S
C1092 H1076 0.931 . S
C1092 C1086 1.383 . S
C1092 C1091 1.379 . S
H1093 C1087 0.959 . S
H1094 C1087 0.961 . S
H1095 C1087 0.960 . S
H1096 C1088 0.930 . S
H1097 C1089 0.929 . S
H1098 C1106 0.929 . S
H1099 C1108 0.930 . S
H1100 C1110 0.930 . S
H1101 C1113 0.929 . S
H1102 C1116 0.930 . S
H1103 C1118 0.960 . S
H1104 C1118 0.960 . S
H1105 C1118 0.960 . S
C1106 H1098 0.929 . S
C1106 C1107 1.377 . S
C1106 C1108 1.384 . S
C1107 C1106 1.377 . S
C1107 C1113 1.390 . S
C1108 H1099 0.930 . S
C1108 C1106 1.384 . S
C1108 C1109 1.372 . S
C1109 C1108 1.372 . S
C1109 C1110 1.400 . S
C1109 C1114 1.490 . S
C1110 H1100 0.930 . S
C1110 C1109 1.400 . S
C1110 C1113 1.386 . S
H1111 C1127 0.930 . S
H1112 C1128 0.931 . S
C1113 H1101 0.929 . S
C1113 C1107 1.390 . S
C1113 C1110 1.386 . S
C1114 C1109 1.490 . S
C1114 C1116 1.395 . S
C1114 C1117 1.403 . S
H1115 C1121 0.930 . S
C1116 H1102 0.930 . S
C1116 C1114 1.395 . S
C1116 C1119 1.403 . S
C1117 C1114 1.403 . S
C1117 C1118 1.524 . S
C1117 C1121 1.400 . S
C1118 H1103 0.960 . S
C1118 H1104 0.960 . S
C1118 H1105 0.960 . S
C1118 C1117 1.524 . S
C1119 C1116 1.403 . S
C1119 C1120 1.392 . S
C1119 C1123 1.495 . S
C1120 C1119 1.392 . S
C1120 C1121 1.385 . S
C1120 C1122 1.478 . S
C1121 H1115 0.930 . S
C1121 C1117 1.400 . S
C1121 C1120 1.385 . S
C1122 C1120 1.478 . S
C1122 C1124 1.381 . S
C1122 C1128 1.383 . S
C1123 C1119 1.495 . S
C1123 H1129 0.959 . S
C1123 H1130 0.961 . S
C1123 H1131 0.960 . S
C1124 C1122 1.381 . S
C1124 C1125 1.394 . S
C1124 H1132 0.930 . S
C1125 C1124 1.394 . S
C1125 C1126 1.383 . S
C1125 H1133 0.929 . S
C1126 C1125 1.383 . S
C1126 C1127 1.377 . S
C1127 H1111 0.930 . S
C1127 C1126 1.377 . S
C1127 C1128 1.379 . S
C1128 H1112 0.931 . S
C1128 C1122 1.383 . S
C1128 C1127 1.379 . S
H1129 C1123 0.959 . S
H1130 C1123 0.961 . S
H1131 C1123 0.960 . S
H1132 C1124 0.930 . S
H1133 C1125 0.929 . S
H1134 C1142 0.929 . S
H1135 C1144 0.930 . S
H1136 C1146 0.930 . S
H1137 C1149 0.929 . S
H1138 C1152 0.930 . S
H1139 C1154 0.960 . S
H1140 C1154 0.960 . S
H1141 C1154 0.960 . S
C1142 H1134 0.929 . S
C1142 C1143 1.377 . S
C1142 C1144 1.384 . S
C1143 C1142 1.377 . S
C1143 C1149 1.390 . S
C1144 H1135 0.930 . S
C1144 C1142 1.384 . S
C1144 C1145 1.372 . S
C1145 C1144 1.372 . S
C1145 C1146 1.400 . S
C1145 C1150 1.490 . S
C1146 H1136 0.930 . S
C1146 C1145 1.400 . S
C1146 C1149 1.386 . S
H1147 C1163 0.930 . S
H1148 C1164 0.931 . S
C1149 H1137 0.929 . S
C1149 C1143 1.390 . S
C1149 C1146 1.386 . S
C1150 C1145 1.490 . S
C1150 C1152 1.395 . S
C1150 C1153 1.403 . S
H1151 C1157 0.930 . S
C1152 H1138 0.930 . S
C1152 C1150 1.395 . S
C1152 C1155 1.403 . S
C1153 C1150 1.403 . S
C1153 C1154 1.524 . S
C1153 C1157 1.400 . S
C1154 H1139 0.960 . S
C1154 H1140 0.960 . S
C1154 H1141 0.960 . S
C1154 C1153 1.524 . S
C1155 C1152 1.403 . S
C1155 C1156 1.392 . S
C1155 C1159 1.495 . S
C1156 C1155 1.392 . S
C1156 C1157 1.385 . S
C1156 C1158 1.478 . S
C1157 H1151 0.930 . S
C1157 C1153 1.400 . S
C1157 C1156 1.385 . S
C1158 C1156 1.478 . S
C1158 C1160 1.381 . S
C1158 C1164 1.383 . S
C1159 C1155 1.495 . S
C1159 H1165 0.959 . S
C1159 H1166 0.961 . S
C1159 H1167 0.960 . S
C1160 C1158 1.381 . S
C1160 C1161 1.394 . S
C1160 H1168 0.930 . S
C1161 C1160 1.394 . S
C1161 C1162 1.383 . S
C1161 H1169 0.929 . S
C1162 C1161 1.383 . S
C1162 C1163 1.377 . S
C1163 H1147 0.930 . S
C1163 C1162 1.377 . S
C1163 C1164 1.379 . S
C1164 H1148 0.931 . S
C1164 C1158 1.383 . S
C1164 C1163 1.379 . S
H1165 C1159 0.959 . S
H1166 C1159 0.961 . S
H1167 C1159 0.960 . S
H1168 C1160 0.930 . S
H1169 C1161 0.929 . S
H1170 C1178 0.929 . S
H1171 C1180 0.930 . S
H1172 C1182 0.930 . S
H1173 C1185 0.929 . S
H1174 C1188 0.930 . S
H1175 C1190 0.960 . S
H1176 C1190 0.960 . S
H1177 C1190 0.960 . S
C1178 H1170 0.929 . S
C1178 C1179 1.377 . S
C1178 C1180 1.384 . S
C1179 C1178 1.377 . S
C1179 C1185 1.390 . S
C1180 H1171 0.930 . S
C1180 C1178 1.384 . S
C1180 C1181 1.372 . S
C1181 C1180 1.372 . S
C1181 C1182 1.400 . S
C1181 C1186 1.490 . S
C1182 H1172 0.930 . S
C1182 C1181 1.400 . S
C1182 C1185 1.386 . S
H1183 C1199 0.930 . S
H1184 C1200 0.931 . S
C1185 H1173 0.929 . S
C1185 C1179 1.390 . S
C1185 C1182 1.386 . S
C1186 C1181 1.490 . S
C1186 C1188 1.395 . S
C1186 C1189 1.403 . S
H1187 C1193 0.930 . S
C1188 H1174 0.930 . S
C1188 C1186 1.395 . S
C1188 C1191 1.403 . S
C1189 C1186 1.403 . S
C1189 C1190 1.524 . S
C1189 C1193 1.400 . S
C1190 H1175 0.960 . S
C1190 H1176 0.960 . S
C1190 H1177 0.960 . S
C1190 C1189 1.524 . S
C1191 C1188 1.403 . S
C1191 C1192 1.392 . S
C1191 C1195 1.495 1_556 S
C1192 C1191 1.392 . S
C1192 C1193 1.385 . S
C1192 C1194 1.478 . S
C1193 H1187 0.930 . S
C1193 C1189 1.400 . S
C1193 C1192 1.385 . S
C1194 C1192 1.478 . S
C1194 C1196 1.381 . S
C1194 C1200 1.383 . S
C1195 C1191 1.495 1_554 S
C1195 H1201 0.959 . S
C1195 H1202 0.961 . S
C1195 H1203 0.960 . S
C1196 C1194 1.381 . S
C1196 C1197 1.394 . S
C1196 H1204 0.984 . S
C1197 C1196 1.394 . S
C1197 C1198 1.383 . S
C1197 H1205 0.929 1_556 S
C1198 C1197 1.383 . S
C1198 C1199 1.377 . S
C1199 H1183 0.930 . S
C1199 C1198 1.377 . S
C1199 C1200 1.379 . S
C1200 H1184 0.931 . S
C1200 C1194 1.383 . S
C1200 C1199 1.379 . S
H1201 C1195 0.959 . S
H1202 C1195 0.961 . S
H1203 C1195 0.960 . S
H1204 C1196 0.984 . S
H1205 C1197 0.929 1_554 S
H1206 C1214 0.929 . S
H1207 C1216 0.930 . S
H1208 C1218 0.930 . S
H1209 C1221 0.929 . S
H1210 C1224 0.930 . S
H1211 C1226 0.960 . S
H1212 C1226 0.960 . S
H1213 C1226 0.960 . S
C1214 H1206 0.929 . S
C1214 C1215 1.377 . S
C1214 C1216 1.384 . S
C1215 C1214 1.377 . S
C1215 C1221 1.390 . S
C1216 H1207 0.930 . S
C1216 C1214 1.384 . S
C1216 C1217 1.372 . S
C1217 C1216 1.372 . S
C1217 C1218 1.400 . S
C1217 C1222 1.490 . S
C1218 H1208 0.930 . S
C1218 C1217 1.400 . S
C1218 C1221 1.386 . S
H1219 C1235 0.930 . S
H1220 C1236 0.931 . S
C1221 H1209 0.929 . S
C1221 C1215 1.390 . S
C1221 C1218 1.386 . S
C1222 C1217 1.490 . S
C1222 C1224 1.395 . S
C1222 C1225 1.403 . S
H1223 C1229 0.930 . S
C1224 H1210 0.930 . S
C1224 C1222 1.395 . S
C1224 C1227 1.403 . S
C1225 C1222 1.403 . S
C1225 C1226 1.524 . S
C1225 C1229 1.400 . S
C1226 H1211 0.960 . S
C1226 H1212 0.960 . S
C1226 H1213 0.960 . S
C1226 C1225 1.524 . S
C1227 C1224 1.403 . S
C1227 C1228 1.392 . S
C1227 C1231 1.495 . S
C1228 C1227 1.392 . S
C1228 C1229 1.385 . S
C1228 C1230 1.478 . S
C1229 H1223 0.930 . S
C1229 C1225 1.400 . S
C1229 C1228 1.385 . S
C1230 C1228 1.478 . S
C1230 C1232 1.381 . S
C1230 C1236 1.383 . S
C1231 C1227 1.495 . S
C1231 H1237 0.959 . S
C1231 H1238 0.961 . S
C1231 H1239 0.960 . S
C1232 C1230 1.381 . S
C1232 C1233 1.394 . S
C1232 H1240 0.930 . S
C1233 C1232 1.394 . S
C1233 C1234 1.383 . S
C1233 H1241 0.975 . S
C1234 C1233 1.383 . S
C1234 C1235 1.377 . S
C1235 H1219 0.930 . S
C1235 C1234 1.377 . S
C1235 C1236 1.379 . S
C1236 H1220 0.931 . S
C1236 C1230 1.383 . S
C1236 C1235 1.379 . S
H1237 C1231 0.959 . S
H1238 C1231 0.961 . S
H1239 C1231 0.960 . S
H1240 C1232 0.930 . S
H1241 C1233 0.975 . S
H1242 C1250 0.929 . S
H1243 C1252 0.930 . S
H1244 C1254 0.930 . S
H1245 C1257 0.929 . S
H1246 C1260 0.930 . S
H1247 C1262 0.898 1_554 S
H1248 C1262 0.933 1_554 S
H1249 C1262 1.000 . S
C1250 H1242 0.929 . S
C1250 C1251 1.377 . S
C1250 C1252 1.384 . S
C1251 C1250 1.377 . S
C1251 C1257 1.390 . S
C1252 H1243 0.930 . S
C1252 C1250 1.384 . S
C1252 C1253 1.372 . S
C1253 C1252 1.372 . S
C1253 C1254 1.400 . S
C1253 C1258 1.490 . S
C1254 H1244 0.930 . S
C1254 C1253 1.400 . S
C1254 C1257 1.386 . S
H1255 C1271 0.930 . S
H1256 C1272 0.931 . S
C1257 H1245 0.929 . S
C1257 C1251 1.390 . S
C1257 C1254 1.386 . S
C1258 C1253 1.490 . S
C1258 C1260 1.395 . S
C1258 C1261 1.403 . S
H1259 C1265 0.930 . S
C1260 H1246 0.930 . S
C1260 C1258 1.395 . S
C1260 C1263 1.403 . S
C1261 C1258 1.403 . S
C1261 C1262 1.583 . S
C1261 C1265 1.400 . S
C1262 H1247 0.898 1_556 S
C1262 H1248 0.933 1_556 S
C1262 H1249 1.000 . S
C1262 C1261 1.583 . S
C1263 C1260 1.403 . S
C1263 C1264 1.392 . S
C1263 C1267 1.495 . S
C1264 C1263 1.392 . S
C1264 C1265 1.385 . S
C1264 C1266 1.478 . S
C1265 H1259 0.930 . S
C1265 C1261 1.400 . S
C1265 C1264 1.385 . S
C1266 C1264 1.478 . S
C1266 C1268 1.381 . S
C1266 C1272 1.383 . S
C1267 C1263 1.495 . S
C1267 H1273 0.959 . S
C1267 H1274 0.961 . S
C1267 H1275 0.960 . S
C1268 C1266 1.381 . S
C1268 C1269 1.394 . S
C1268 H1276 0.930 . S
C1269 C1268 1.394 . S
C1269 C1270 1.383 . S
C1269 H1277 0.929 . S
C1270 C1269 1.383 . S
C1270 C1271 1.377 . S
C1271 H1255 0.930 . S
C1271 C1270 1.377 . S
C1271 C1272 1.379 . S
C1272 H1256 0.931 . S
C1272 C1266 1.383 . S
C1272 C1271 1.379 . S
H1273 C1267 0.959 . S
H1274 C1267 0.961 . S
H1275 C1267 0.960 . S
H1276 C1268 0.930 . S
H1277 C1269 0.929 . S
H1278 C1286 0.929 . S
H1279 C1288 0.930 . S
H1280 C1290 0.930 . S
H1281 C1293 0.929 . S
H1282 C1296 0.930 . S
H1283 C1298 1.003 . S
H1284 C1298 0.960 . S
H1285 C1298 0.960 . S
C1286 H1278 0.929 . S
C1286 C1287 1.377 . S
C1286 C1288 1.384 . S
C1287 C1286 1.377 . S
C1287 C1293 1.390 . S
C1288 H1279 0.930 . S
C1288 C1286 1.384 . S
C1288 C1289 1.372 . S
C1289 C1288 1.372 . S
C1289 C1290 1.400 . S
C1289 C1294 1.490 . S
C1290 H1280 0.930 . S
C1290 C1289 1.400 . S
C1290 C1293 1.386 . S
H1291 C1307 0.930 . S
H1292 C1308 0.931 . S
C1293 H1281 0.929 . S
C1293 C1287 1.390 . S
C1293 C1290 1.386 . S
C1294 C1289 1.490 . S
C1294 C1296 1.395 . S
C1294 C1297 1.403 . S
H1295 C1301 0.930 . S
C1296 H1282 0.930 . S
C1296 C1294 1.395 . S
C1296 C1299 1.403 . S
C1297 C1294 1.403 . S
C1297 C1298 1.524 . S
C1297 C1301 1.400 . S
C1298 H1283 1.003 . S
C1298 H1284 0.960 . S
C1298 H1285 0.960 . S
C1298 C1297 1.524 . S
C1299 C1296 1.403 . S
C1299 C1300 1.392 . S
C1299 C1303 1.495 . S
C1300 C1299 1.392 . S
C1300 C1301 1.385 . S
C1300 C1302 1.478 . S
C1301 H1295 0.930 . S
C1301 C1297 1.400 . S
C1301 C1300 1.385 . S
C1302 C1300 1.478 . S
C1302 C1304 1.381 . S
C1302 C1308 1.383 . S
C1303 C1299 1.495 . S
C1303 H1309 0.959 . S
C1303 H1310 0.961 . S
C1303 H1311 0.960 . S
C1304 C1302 1.381 . S
C1304 C1305 1.394 . S
C1304 H1312 0.930 . S
C1305 C1304 1.394 . S
C1305 C1306 1.383 . S
C1305 H1313 0.929 . S
C1306 C1305 1.383 . S
C1306 C1307 1.377 . S
C1307 H1291 0.930 . S
C1307 C1306 1.377 . S
C1307 C1308 1.379 . S
C1308 H1292 0.931 . S
C1308 C1302 1.383 . S
C1308 C1307 1.379 . S
H1309 C1303 0.959 . S
H1310 C1303 0.961 . S
H1311 C1303 0.960 . S
H1312 C1304 0.930 . S
H1313 C1305 0.929 . S
H1314 C1322 0.929 . S
H1315 C1324 0.930 . S
H1316 C1326 0.930 . S
H1317 C1329 0.929 . S
H1318 C1332 0.930 . S
H1319 C1334 0.960 . S
H1320 C1334 0.960 . S
H1321 C1334 0.960 . S
C1322 H1314 0.929 . S
C1322 C1323 1.377 . S
C1322 C1324 1.384 . S
C1323 C1322 1.377 . S
C1323 C1329 1.390 . S
C1324 H1315 0.930 . S
C1324 C1322 1.384 . S
C1324 C1325 1.372 . S
C1325 C1324 1.372 . S
C1325 C1326 1.400 . S
C1325 C1330 1.490 . S
C1326 H1316 0.930 . S
C1326 C1325 1.400 . S
C1326 C1329 1.386 . S
H1327 C1343 0.853 1_554 S
H1328 C1344 0.931 . S
C1329 H1317 0.929 . S
C1329 C1323 1.390 . S
C1329 C1326 1.386 . S
C1330 C1325 1.490 . S
C1330 C1332 1.395 . S
C1330 C1333 1.403 . S
H1331 C1337 0.930 . S
C1332 H1318 0.930 . S
C1332 C1330 1.395 . S
C1332 C1335 1.403 . S
C1333 C1330 1.403 . S
C1333 C1334 1.524 . S
C1333 C1337 1.400 . S
C1334 H1319 0.960 . S
C1334 H1320 0.960 . S
C1334 H1321 0.960 . S
C1334 C1333 1.524 . S
C1335 C1332 1.403 . S
C1335 C1336 1.392 . S
C1335 C1339 1.495 . S
C1336 C1335 1.392 . S
C1336 C1337 1.385 . S
C1336 C1338 1.478 . S
C1337 H1331 0.930 . S
C1337 C1333 1.400 . S
C1337 C1336 1.385 . S
C1338 C1336 1.478 . S
C1338 C1340 1.381 . S
C1338 C1344 1.383 . S
C1339 C1335 1.495 . S
C1339 H1345 0.959 . S
C1339 H1346 0.961 . S
C1339 H1347 0.960 . S
C1340 C1338 1.381 . S
C1340 C1341 1.394 . S
C1340 H1348 0.930 . S
C1341 C1340 1.394 . S
C1341 C1342 1.383 . S
C1341 H1349 0.929 . S
C1342 C1341 1.383 . S
C1342 C1343 1.377 . S
C1343 H1327 0.853 1_556 S
C1343 C1342 1.377 . S
C1343 C1344 1.379 . S
C1344 H1328 0.931 . S
C1344 C1338 1.383 . S
C1344 C1343 1.379 . S
H1345 C1339 0.959 . S
H1346 C1339 0.961 . S
H1347 C1339 0.960 . S
H1348 C1340 0.930 . S
H1349 C1341 0.929 . S
H1350 C1358 0.929 . S
H1351 C1360 0.930 . S
H1352 C1362 0.930 . S
H1353 C1365 0.929 . S
H1354 C1368 0.930 . S
H1355 C1370 0.960 . S
H1356 C1370 0.960 . S
H1357 C1370 0.960 . S
C1358 H1350 0.929 . S
C1358 C1359 1.377 . S
C1358 C1360 1.384 . S
C1359 C1358 1.377 . S
C1359 C1365 1.390 . S
C1360 H1351 0.930 . S
C1360 C1358 1.384 . S
C1360 C1361 1.372 . S
C1361 C1360 1.372 . S
C1361 C1362 1.400 . S
C1361 C1366 1.490 . S
C1362 H1352 0.930 . S
C1362 C1361 1.400 . S
C1362 C1365 1.386 . S
H1363 C1379 0.930 . S
H1364 C1380 0.931 . S
C1365 H1353 0.929 . S
C1365 C1359 1.390 . S
C1365 C1362 1.386 . S
C1366 C1361 1.490 . S
C1366 C1368 1.395 . S
C1366 C1369 1.403 . S
H1367 C1373 0.930 . S
C1368 H1354 0.930 . S
C1368 C1366 1.395 . S
C1368 C1371 1.403 . S
C1369 C1366 1.403 . S
C1369 C1370 1.524 . S
C1369 C1373 1.400 . S
C1370 H1355 0.960 . S
C1370 H1356 0.960 . S
C1370 H1357 0.960 . S
C1370 C1369 1.524 . S
C1371 C1368 1.403 . S
C1371 C1372 1.392 . S
C1371 C1375 1.495 1_556 S
C1372 C1371 1.392 . S
C1372 C1373 1.385 . S
C1372 C1374 1.478 . S
C1373 H1367 0.930 . S
C1373 C1369 1.400 . S
C1373 C1372 1.385 . S
C1374 C1372 1.478 . S
C1374 C1376 1.418 . S
C1374 C1380 1.383 . S
C1375 C1371 1.495 1_554 S
C1375 H1381 0.959 . S
C1375 H1382 0.961 . S
C1375 H1383 0.960 . S
C1376 C1374 1.418 . S
C1376 C1377 1.392 1_556 S
C1376 H1384 0.896 1_556 S
C1377 C1376 1.392 1_554 S
C1377 C1378 1.383 1_554 S
C1377 H1385 0.929 . S
C1378 C1377 1.383 1_556 S
C1378 C1379 1.377 . S
C1379 H1363 0.930 . S
C1379 C1378 1.377 . S
C1379 C1380 1.379 . S
C1380 H1364 0.931 . S
C1380 C1374 1.383 . S
C1380 C1379 1.379 . S
H1381 C1375 0.959 . S
H1382 C1375 0.961 . S
H1383 C1375 0.960 . S
H1384 C1376 0.896 1_554 S
H1385 C1377 0.929 . S
H1386 C1394 0.929 . S
H1387 C1396 0.930 . S
H1388 C1398 0.930 . S
H1389 C1401 0.929 . S
H1390 C1404 0.930 . S
H1391 C1406 0.960 . S
H1392 C1406 0.960 . S
H1393 C1406 0.960 . S
C1394 H1386 0.929 . S
C1394 C1395 1.377 . S
C1394 C1396 1.384 . S
C1395 C1394 1.377 . S
C1395 C1401 1.390 . S
C1396 H1387 0.930 . S
C1396 C1394 1.384 . S
C1396 C1397 1.372 . S
C1397 C1396 1.372 . S
C1397 C1398 1.400 . S
C1397 C1402 1.490 . S
C1398 H1388 0.930 . S
C1398 C1397 1.400 . S
C1398 C1401 1.386 . S
H1399 C1415 0.930 . S
H1400 C1416 0.931 . S
C1401 H1389 0.929 . S
C1401 C1395 1.390 . S
C1401 C1398 1.386 . S
C1402 C1397 1.490 . S
C1402 C1404 1.395 . S
C1402 C1405 1.403 . S
H1403 C1409 0.930 . S
C1404 H1390 0.930 . S
C1404 C1402 1.395 . S
C1404 C1407 1.403 . S
C1405 C1402 1.403 . S
C1405 C1406 1.524 . S
C1405 C1409 1.400 . S
C1406 H1391 0.960 . S
C1406 H1392 0.960 . S
C1406 H1393 0.960 . S
C1406 C1405 1.524 . S
C1407 C1404 1.403 . S
C1407 C1408 1.392 . S
C1407 C1411 1.495 . S
C1408 C1407 1.392 . S
C1408 C1409 1.385 . S
C1408 C1410 1.478 . S
C1409 H1403 0.930 . S
C1409 C1405 1.400 . S
C1409 C1408 1.385 . S
C1410 C1408 1.478 . S
C1410 C1412 1.381 . S
C1410 C1416 1.383 . S
C1411 C1407 1.495 . S
C1411 H1417 0.959 . S
C1411 H1418 0.961 . S
C1411 H1419 0.960 . S
C1412 C1410 1.381 . S
C1412 C1413 1.394 . S
C1412 H1420 0.930 . S
C1413 C1412 1.394 . S
C1413 C1414 1.383 . S
C1413 H1421 0.929 . S
C1414 C1413 1.383 . S
C1414 C1415 1.377 . S
C1415 H1399 0.930 . S
C1415 C1414 1.377 . S
C1415 C1416 1.379 . S
C1416 H1400 0.931 . S
C1416 C1410 1.383 . S
C1416 C1415 1.379 . S
H1417 C1411 0.959 . S
H1418 C1411 0.961 . S
H1419 C1411 0.960 . S
H1420 C1412 0.930 . S
H1421 C1413 0.929 . S
H1422 C1430 0.929 . S
H1423 C1432 0.930 . S
H1424 C1434 0.930 . S
H1425 C1437 0.929 . S
H1426 C1440 0.930 . S
H1427 C1442 0.960 . S
H1428 C1442 0.960 . S
H1429 C1442 0.960 . S
C1430 H1422 0.929 . S
C1430 C1431 1.377 . S
C1430 C1432 1.384 . S
C1431 C1430 1.377 . S
C1431 C1437 1.390 . S
C1432 H1423 0.930 . S
C1432 C1430 1.384 . S
C1432 C1433 1.372 . S
C1433 C1432 1.372 . S
C1433 C1434 1.400 . S
C1433 C1438 1.490 . S
C1434 H1424 0.930 . S
C1434 C1433 1.400 . S
C1434 C1437 1.386 . S
H1435 C1451 0.930 . S
H1436 C1452 0.931 . S
C1437 H1425 0.929 . S
C1437 C1431 1.390 . S
C1437 C1434 1.386 . S
C1438 C1433 1.490 . S
C1438 C1440 1.395 . S
C1438 C1441 1.403 . S
H1439 C1445 0.930 . S
C1440 H1426 0.930 . S
C1440 C1438 1.395 . S
C1440 C1443 1.403 . S
C1441 C1438 1.403 . S
C1441 C1442 1.524 . S
C1441 C1445 1.400 . S
C1442 H1427 0.960 . S
C1442 H1428 0.960 . S
C1442 H1429 0.960 . S
C1442 C1441 1.524 . S
C1443 C1440 1.403 . S
C1443 C1444 1.392 . S
C1443 C1447 1.495 . S
C1444 C1443 1.392 . S
C1444 C1445 1.385 . S
C1444 C1446 1.478 . S
C1445 H1439 0.930 . S
C1445 C1441 1.400 . S
C1445 C1444 1.385 . S
C1446 C1444 1.478 . S
C1446 C1448 1.381 . S
C1446 C1452 1.383 . S
C1447 C1443 1.495 . S
C1447 H1453 0.959 . S
C1447 H1454 0.961 . S
C1447 H1455 0.960 . S
C1448 C1446 1.381 . S
C1448 C1449 1.394 . S
C1448 H1456 0.930 . S
C1449 C1448 1.394 . S
C1449 C1450 1.383 . S
C1449 H1457 0.929 . S
C1450 C1449 1.383 . S
C1450 C1451 1.377 . S
C1451 H1435 0.930 . S
C1451 C1450 1.377 . S
C1451 C1452 1.379 . S
C1452 H1436 0.931 . S
C1452 C1446 1.383 . S
C1452 C1451 1.379 . S
H1453 C1447 0.959 . S
H1454 C1447 0.961 . S
H1455 C1447 0.960 . S
H1456 C1448 0.930 . S
H1457 C1449 0.929 . S
H1458 C1466 0.929 . S
H1459 C1468 0.930 . S
H1460 C1470 0.930 . S
H1461 C1473 0.929 . S
H1462 C1476 0.930 . S
H1463 C1478 0.960 . S
H1464 C1478 0.960 . S
H1465 C1478 0.960 . S
C1466 H1458 0.929 . S
C1466 C1467 1.377 . S
C1466 C1468 1.384 . S
C1467 C1466 1.377 . S
C1467 C1473 1.390 . S
C1468 H1459 0.930 . S
C1468 C1466 1.384 . S
C1468 C1469 1.372 . S
C1469 C1468 1.372 . S
C1469 C1470 1.400 . S
C1469 C1474 1.490 . S
C1470 H1460 0.930 . S
C1470 C1469 1.400 . S
C1470 C1473 1.386 . S
H1471 C1487 0.930 . S
H1472 C1488 0.931 . S
C1473 H1461 0.929 . S
C1473 C1467 1.390 . S
C1473 C1470 1.386 . S
C1474 C1469 1.490 . S
C1474 C1476 1.395 . S
C1474 C1477 1.403 . S
H1475 C1481 0.930 . S
C1476 H1462 0.930 . S
C1476 C1474 1.395 . S
C1476 C1479 1.403 . S
C1477 C1474 1.403 . S
C1477 C1478 1.524 . S
C1477 C1481 1.400 . S
C1478 H1463 0.960 . S
C1478 H1464 0.960 . S
C1478 H1465 0.960 . S
C1478 C1477 1.524 . S
C1479 C1476 1.403 . S
C1479 C1480 1.392 . S
C1479 C1483 1.495 1_554 S
C1480 C1479 1.392 . S
C1480 C1481 1.385 . S
C1480 C1482 1.478 . S
C1481 H1475 0.930 . S
C1481 C1477 1.400 . S
C1481 C1480 1.385 . S
C1482 C1480 1.478 . S
C1482 C1484 1.381 . S
C1482 C1488 1.383 . S
C1483 C1479 1.495 1_556 S
C1483 H1489 0.959 . S
C1483 H1490 0.961 . S
C1483 H1491 0.960 . S
C1484 C1482 1.381 . S
C1484 C1485 1.394 . S
C1484 H1492 0.930 . S
C1485 C1484 1.394 . S
C1485 C1486 1.383 . S
C1485 H1493 0.929 . S
C1486 C1485 1.383 . S
C1486 C1487 1.377 . S
C1487 H1471 0.930 . S
C1487 C1486 1.377 . S
C1487 C1488 1.379 . S
C1488 H1472 0.931 . S
C1488 C1482 1.383 . S
C1488 C1487 1.379 . S
H1489 C1483 0.959 . S
H1490 C1483 0.961 . S
H1491 C1483 0.960 . S
H1492 C1484 0.930 . S
H1493 C1485 0.929 . S
H1494 C1502 0.929 . S
H1495 C1504 0.930 . S
H1496 C1506 0.930 . S
H1497 C1509 0.929 . S
H1498 C1512 0.930 . S
H1499 C1514 0.960 . S
H1500 C1514 0.960 . S
H1501 C1514 0.960 . S
C1502 H1494 0.929 . S
C1502 C1503 1.377 . S
C1502 C1504 1.384 . S
C1503 C1502 1.377 . S
C1503 C1509 1.390 . S
C1504 H1495 0.930 . S
C1504 C1502 1.384 . S
C1504 C1505 1.372 . S
C1505 C1504 1.372 . S
C1505 C1506 1.400 . S
C1505 C1510 1.490 1_655 S
C1506 H1496 0.930 . S
C1506 C1505 1.400 . S
C1506 C1509 1.386 . S
H1507 C1523 0.930 . S
H1508 C1524 0.931 . S
C1509 H1497 0.929 . S
C1509 C1503 1.390 . S
C1509 C1506 1.386 . S
C1510 C1505 1.490 1_455 S
C1510 C1512 1.395 . S
C1510 C1513 1.403 . S
H1511 C1517 0.930 . S
C1512 H1498 0.930 . S
C1512 C1510 1.395 . S
C1512 C1515 1.403 . S
C1513 C1510 1.403 . S
C1513 C1514 1.524 . S
C1513 C1517 1.400 . S
C1514 H1499 0.960 . S
C1514 H1500 0.960 . S
C1514 H1501 0.960 . S
C1514 C1513 1.524 . S
C1515 C1512 1.403 . S
C1515 C1516 1.392 . S
C1515 C1519 1.495 . S
C1516 C1515 1.392 . S
C1516 C1517 1.385 . S
C1516 C1518 1.478 . S
C1517 H1511 0.930 . S
C1517 C1513 1.400 . S
C1517 C1516 1.385 . S
C1518 C1516 1.478 . S
C1518 C1520 1.381 . S
C1518 C1524 1.383 . S
C1519 C1515 1.495 . S
C1519 H1525 0.959 . S
C1519 H1526 0.961 . S
C1519 H1527 0.960 . S
C1520 C1518 1.381 . S
C1520 C1521 1.394 . S
C1520 H1528 0.930 . S
C1521 C1520 1.394 . S
C1521 C1522 1.383 . S
C1521 H1529 0.929 . S
C1522 C1521 1.383 . S
C1522 C1523 1.377 . S
C1523 H1507 0.930 . S
C1523 C1522 1.377 . S
C1523 C1524 1.379 . S
C1524 H1508 0.931 . S
C1524 C1518 1.383 . S
C1524 C1523 1.379 . S
H1525 C1519 0.959 . S
H1526 C1519 0.961 . S
H1527 C1519 0.960 . S
H1528 C1520 0.930 . S
H1529 C1521 0.929 . S
H1530 C1538 0.929 . S
H1531 C1540 0.930 . S
H1532 C1542 0.930 . S
H1533 C1545 0.929 . S
H1534 C1548 0.930 . S
H1535 C1550 0.960 . S
H1536 C1550 0.960 . S
H1537 C1550 0.960 . S
C1538 H1530 0.929 . S
C1538 C1539 1.377 . S
C1538 C1540 1.384 . S
C1539 C1538 1.377 . S
C1539 C1545 1.390 . S
C1540 H1531 0.930 . S
C1540 C1538 1.384 . S
C1540 C1541 1.372 . S
C1541 C1540 1.372 . S
C1541 C1542 1.400 . S
C1541 C1546 1.490 . S
C1542 H1532 0.930 . S
C1542 C1541 1.400 . S
C1542 C1545 1.386 . S
H1543 C1559 0.930 . S
H1544 C1560 0.931 . S
C1545 H1533 0.929 . S
C1545 C1539 1.390 . S
C1545 C1542 1.386 . S
C1546 C1541 1.490 . S
C1546 C1548 1.395 . S
C1546 C1549 1.403 . S
H1547 C1553 0.930 . S
C1548 H1534 0.930 . S
C1548 C1546 1.395 . S
C1548 C1551 1.403 . S
C1549 C1546 1.403 . S
C1549 C1550 1.524 . S
C1549 C1553 1.400 . S
C1550 H1535 0.960 . S
C1550 H1536 0.960 . S
C1550 H1537 0.960 . S
C1550 C1549 1.524 . S
C1551 C1548 1.403 . S
C1551 C1552 1.392 . S
C1551 C1555 1.495 . S
C1552 C1551 1.392 . S
C1552 C1553 1.385 . S
C1552 C1554 1.478 . S
C1553 H1547 0.930 . S
C1553 C1549 1.400 . S
C1553 C1552 1.385 . S
C1554 C1552 1.478 . S
C1554 C1556 1.381 . S
C1554 C1560 1.383 . S
C1555 C1551 1.495 . S
C1555 H1561 0.959 . S
C1555 H1562 0.961 . S
C1555 H1563 0.960 . S
C1556 C1554 1.381 . S
C1556 C1557 1.394 . S
C1556 H1564 0.930 . S
C1557 C1556 1.394 . S
C1557 C1558 1.383 . S
C1557 H1565 0.929 . S
C1558 C1557 1.383 . S
C1558 C1559 1.377 . S
C1559 H1543 0.930 . S
C1559 C1558 1.377 . S
C1559 C1560 1.379 . S
C1560 H1544 0.931 . S
C1560 C1554 1.383 . S
C1560 C1559 1.379 . S
H1561 C1555 0.959 . S
H1562 C1555 0.961 . S
H1563 C1555 0.960 . S
H1564 C1556 0.930 . S
H1565 C1557 0.929 . S
H1566 C1574 0.929 . S
H1567 C1576 0.930 . S
H1568 C1578 0.930 . S
H1569 C1581 0.929 . S
H1570 C1584 0.895 1_545 S
H1571 C1586 0.960 . S
H1572 C1586 0.957 . S
H1573 C1586 0.955 1_545 S
C1574 H1566 0.929 . S
C1574 C1575 1.377 . S
C1574 C1576 1.384 . S
C1575 C1574 1.377 . S
C1575 C1581 1.390 . S
C1576 H1567 0.930 . S
C1576 C1574 1.384 . S
C1576 C1577 1.372 . S
C1577 C1576 1.372 . S
C1577 C1578 1.400 . S
C1577 C1582 1.447 1_545 S
C1578 H1568 0.930 . S
C1578 C1577 1.400 . S
C1578 C1581 1.386 . S
H1579 C1595 0.930 . S
H1580 C1596 0.931 . S
C1581 H1569 0.929 . S
C1581 C1575 1.390 . S
C1581 C1578 1.386 . S
C1582 C1577 1.447 1_565 S
C1582 C1584 1.413 . S
C1582 C1585 1.429 . S
H1583 C1589 0.930 . S
C1584 H1570 0.895 1_565 S
C1584 C1582 1.413 . S
C1584 C1587 1.403 . S
C1585 C1582 1.429 . S
C1585 C1586 1.524 . S
C1585 C1589 1.400 . S
C1586 H1571 0.960 . S
C1586 H1572 0.957 . S
C1586 H1573 0.955 1_565 S
C1586 C1585 1.524 . S
C1587 C1584 1.403 . S
C1587 C1588 1.392 . S
C1587 C1591 1.495 . S
C1588 C1587 1.392 . S
C1588 C1589 1.385 . S
C1588 C1590 1.478 . S
C1589 H1583 0.930 . S
C1589 C1585 1.400 . S
C1589 C1588 1.385 . S
C1590 C1588 1.478 . S
C1590 C1592 1.381 . S
C1590 C1596 1.383 . S
C1591 C1587 1.495 . S
C1591 H1597 0.959 . S
C1591 H1598 0.961 . S
C1591 H1599 0.960 . S
C1592 C1590 1.381 . S
C1592 C1593 1.394 . S
C1592 H1600 0.930 . S
C1593 C1592 1.394 . S
C1593 C1594 1.383 . S
C1593 H1601 0.929 . S
C1594 C1593 1.383 . S
C1594 C1595 1.377 . S
C1595 H1579 0.930 . S
C1595 C1594 1.377 . S
C1595 C1596 1.379 . S
C1596 H1580 0.931 . S
C1596 C1590 1.383 . S
C1596 C1595 1.379 . S
H1597 C1591 0.959 . S
H1598 C1591 0.961 . S
H1599 C1591 0.960 . S
H1600 C1592 0.930 . S
H1601 C1593 0.929 . S
H1602 C1610 0.929 . S
H1603 C1612 0.930 . S
H1604 C1614 0.930 . S
H1605 C1617 0.929 . S
H1606 C1620 0.930 . S
H1607 C1622 0.960 . S
H1608 C1622 0.960 . S
H1609 C1622 0.960 . S
C1610 H1602 0.929 . S
C1610 C1611 1.377 . S
C1610 C1612 1.384 . S
C1611 C1610 1.377 . S
C1611 C1617 1.390 . S
C1612 H1603 0.930 . S
C1612 C1610 1.384 . S
C1612 C1613 1.372 . S
C1613 C1612 1.372 . S
C1613 C1614 1.400 . S
C1613 C1618 1.490 . S
C1614 H1604 0.930 . S
C1614 C1613 1.400 . S
C1614 C1617 1.386 . S
H1615 C1631 0.930 . S
H1616 C1632 0.931 . S
C1617 H1605 0.929 . S
C1617 C1611 1.390 . S
C1617 C1614 1.386 . S
C1618 C1613 1.490 . S
C1618 C1620 1.395 . S
C1618 C1621 1.403 . S
H1619 C1625 0.930 . S
C1620 H1606 0.930 . S
C1620 C1618 1.395 . S
C1620 C1623 1.403 . S
C1621 C1618 1.403 . S
C1621 C1622 1.524 . S
C1621 C1625 1.400 . S
C1622 H1607 0.960 . S
C1622 H1608 0.960 . S
C1622 H1609 0.960 . S
C1622 C1621 1.524 . S
C1623 C1620 1.403 . S
C1623 C1624 1.392 . S
C1623 C1627 1.495 . S
C1624 C1623 1.392 . S
C1624 C1625 1.385 . S
C1624 C1626 1.478 . S
C1625 H1619 0.930 . S
C1625 C1621 1.400 . S
C1625 C1624 1.385 . S
C1626 C1624 1.478 . S
C1626 C1628 1.381 . S
C1626 C1632 1.383 . S
C1627 C1623 1.495 . S
C1627 H1633 0.959 . S
C1627 H1634 0.961 . S
C1627 H1635 0.960 . S
C1628 C1626 1.381 . S
C1628 C1629 1.394 . S
C1628 H1636 0.930 . S
C1629 C1628 1.394 . S
C1629 C1630 1.383 . S
C1629 H1637 0.929 . S
C1630 C1629 1.383 . S
C1630 C1631 1.377 . S
C1631 H1615 0.930 . S
C1631 C1630 1.377 . S
C1631 C1632 1.379 . S
C1632 H1616 0.931 . S
C1632 C1626 1.383 . S
C1632 C1631 1.379 . S
H1633 C1627 0.959 . S
H1634 C1627 0.961 . S
H1635 C1627 0.960 . S
H1636 C1628 0.930 . S
H1637 C1629 0.929 . S
H1638 C1646 0.929 . S
H1639 C1648 0.930 . S
H1640 C1650 0.930 . S
H1641 C1653 0.929 . S
H1642 C1656 0.930 . S
H1643 C1658 0.960 . S
H1644 C1658 0.960 . S
H1645 C1658 0.960 . S
C1646 H1638 0.929 . S
C1646 C1647 1.377 . S
C1646 C1648 1.384 . S
C1647 C1646 1.377 . S
C1647 C1653 1.390 . S
C1648 H1639 0.930 . S
C1648 C1646 1.384 . S
C1648 C1649 1.372 . S
C1649 C1648 1.372 . S
C1649 C1650 1.400 . S
C1649 C1654 1.490 . S
C1650 H1640 0.930 . S
C1650 C1649 1.400 . S
C1650 C1653 1.386 . S
H1651 C1667 0.930 . S
H1652 C1668 0.931 . S
C1653 H1641 0.929 . S
C1653 C1647 1.390 . S
C1653 C1650 1.386 . S
C1654 C1649 1.490 . S
C1654 C1656 1.395 . S
C1654 C1657 1.403 . S
H1655 C1661 0.930 . S
C1656 H1642 0.930 . S
C1656 C1654 1.395 . S
C1656 C1659 1.403 . S
C1657 C1654 1.403 . S
C1657 C1658 1.524 . S
C1657 C1661 1.400 . S
C1658 H1643 0.960 . S
C1658 H1644 0.960 . S
C1658 H1645 0.960 . S
C1658 C1657 1.524 . S
C1659 C1656 1.403 . S
C1659 C1660 1.392 . S
C1659 C1663 1.495 . S
C1660 C1659 1.392 . S
C1660 C1661 1.385 . S
C1660 C1662 1.478 . S
C1661 H1655 0.930 . S
C1661 C1657 1.400 . S
C1661 C1660 1.385 . S
C1662 C1660 1.478 . S
C1662 C1664 1.381 . S
C1662 C1668 1.383 . S
C1663 C1659 1.495 . S
C1663 H1669 0.959 . S
C1663 H1670 0.961 . S
C1663 H1671 0.960 . S
C1664 C1662 1.381 . S
C1664 C1665 1.394 . S
C1664 H1672 0.930 . S
C1665 C1664 1.394 . S
C1665 C1666 1.383 . S
C1665 H1673 0.929 . S
C1666 C1665 1.383 . S
C1666 C1667 1.377 . S
C1667 H1651 0.930 . S
C1667 C1666 1.377 . S
C1667 C1668 1.379 . S
C1668 H1652 0.931 . S
C1668 C1662 1.383 . S
C1668 C1667 1.379 . S
H1669 C1663 0.959 . S
H1670 C1663 0.961 . S
H1671 C1663 0.960 . S
H1672 C1664 0.930 . S
H1673 C1665 0.929 . S
H1674 C1682 0.929 . S
H1675 C1684 0.930 . S
H1676 C1686 0.930 . S
H1677 C1689 0.929 . S
H1678 C1692 0.930 . S
H1679 C1694 0.960 . S
H1680 C1694 0.960 . S
H1681 C1694 0.960 . S
C1682 H1674 0.929 . S
C1682 C1683 1.377 . S
C1682 C1684 1.384 . S
C1683 C1682 1.377 . S
C1683 C1689 1.390 . S
C1684 H1675 0.930 . S
C1684 C1682 1.384 . S
C1684 C1685 1.372 . S
C1685 C1684 1.372 . S
C1685 C1686 1.400 . S
C1685 C1690 1.490 . S
C1686 H1676 0.930 . S
C1686 C1685 1.400 . S
C1686 C1689 1.386 . S
H1687 C1703 0.930 . S
H1688 C1704 0.931 . S
C1689 H1677 0.929 . S
C1689 C1683 1.390 . S
C1689 C1686 1.386 . S
C1690 C1685 1.490 . S
C1690 C1692 1.395 . S
C1690 C1693 1.403 . S
H1691 C1697 0.930 . S
C1692 H1678 0.930 . S
C1692 C1690 1.395 . S
C1692 C1695 1.403 . S
C1693 C1690 1.403 . S
C1693 C1694 1.524 . S
C1693 C1697 1.400 . S
C1694 H1679 0.960 . S
C1694 H1680 0.960 . S
C1694 H1681 0.960 . S
C1694 C1693 1.524 . S
C1695 C1692 1.403 . S
C1695 C1696 1.392 . S
C1695 C1699 1.495 . S
C1696 C1695 1.392 . S
C1696 C1697 1.385 . S
C1696 C1698 1.478 . S
C1697 H1691 0.930 . S
C1697 C1693 1.400 . S
C1697 C1696 1.385 . S
C1698 C1696 1.478 . S
C1698 C1700 1.381 . S
C1698 C1704 1.383 . S
C1699 C1695 1.495 . S
C1699 H1705 0.959 . S
C1699 H1706 0.961 . S
C1699 H1707 0.960 . S
C1700 C1698 1.381 . S
C1700 C1701 1.394 . S
C1700 H1708 0.930 . S
C1701 C1700 1.394 . S
C1701 C1702 1.383 . S
C1701 H1709 0.929 . S
C1702 C1701 1.383 . S
C1702 C1703 1.377 . S
C1703 H1687 0.930 . S
C1703 C1702 1.377 . S
C1703 C1704 1.379 . S
C1704 H1688 0.931 . S
C1704 C1698 1.383 . S
C1704 C1703 1.379 . S
H1705 C1699 0.959 . S
H1706 C1699 0.961 . S
H1707 C1699 0.960 . S
H1708 C1700 0.930 . S
H1709 C1701 0.929 . S
H1710 C1718 0.929 . S
H1711 C1720 0.930 . S
H1712 C1722 0.930 . S
H1713 C1725 0.929 . S
H1714 C1728 0.930 . S
H1715 C1730 0.960 . S
H1716 C1730 0.960 . S
H1717 C1730 0.960 . S
C1718 H1710 0.929 . S
C1718 C1719 1.377 . S
C1718 C1720 1.384 . S
C1719 C1718 1.377 . S
C1719 C1725 1.390 . S
C1720 H1711 0.930 . S
C1720 C1718 1.384 . S
C1720 C1721 1.372 . S
C1721 C1720 1.372 . S
C1721 C1722 1.400 . S
C1721 C1726 1.490 . S
C1722 H1712 0.930 . S
C1722 C1721 1.400 . S
C1722 C1725 1.386 . S
H1723 C1739 0.930 . S
H1724 C1740 0.931 . S
C1725 H1713 0.929 . S
C1725 C1719 1.390 . S
C1725 C1722 1.386 . S
C1726 C1721 1.490 . S
C1726 C1728 1.395 . S
C1726 C1729 1.403 . S
H1727 C1733 0.930 . S
C1728 H1714 0.930 . S
C1728 C1726 1.395 . S
C1728 C1731 1.403 . S
C1729 C1726 1.403 . S
C1729 C1730 1.524 . S
C1729 C1733 1.400 . S
C1730 H1715 0.960 . S
C1730 H1716 0.960 . S
C1730 H1717 0.960 . S
C1730 C1729 1.524 . S
C1731 C1728 1.403 . S
C1731 C1732 1.392 . S
C1731 C1735 1.495 . S
C1732 C1731 1.392 . S
C1732 C1733 1.385 . S
C1732 C1734 1.478 . S
C1733 H1727 0.930 . S
C1733 C1729 1.400 . S
C1733 C1732 1.385 . S
C1734 C1732 1.478 . S
C1734 C1736 1.381 . S
C1734 C1740 1.383 . S
C1735 C1731 1.495 . S
C1735 H1741 0.959 . S
C1735 H1742 0.961 . S
C1735 H1743 0.960 . S
C1736 C1734 1.381 . S
C1736 C1737 1.394 . S
C1736 H1744 0.930 . S
C1737 C1736 1.394 . S
C1737 C1738 1.383 . S
C1737 H1745 0.929 . S
C1738 C1737 1.383 . S
C1738 C1739 1.377 . S
C1739 H1723 0.930 . S
C1739 C1738 1.377 . S
C1739 C1740 1.379 . S
C1740 H1724 0.931 . S
C1740 C1734 1.383 . S
C1740 C1739 1.379 . S
H1741 C1735 0.959 . S
H1742 C1735 0.961 . S
H1743 C1735 0.960 . S
H1744 C1736 0.930 . S
H1745 C1737 0.929 . S
H1746 C1754 0.929 . S
H1747 C1756 0.930 . S
H1748 C1758 0.930 . S
H1749 C1761 0.929 . S
H1750 C1764 0.930 . S
H1751 C1766 0.960 . S
H1752 C1766 0.960 . S
H1753 C1766 0.960 . S
C1754 H1746 0.929 . S
C1754 C1755 1.377 . S
C1754 C1756 1.384 . S
C1755 C1754 1.377 . S
C1755 C1761 1.390 . S
C1756 H1747 0.930 . S
C1756 C1754 1.384 . S
C1756 C1757 1.372 . S
C1757 C1756 1.372 . S
C1757 C1758 1.400 . S
C1757 C1762 1.490 . S
C1758 H1748 0.930 . S
C1758 C1757 1.400 . S
C1758 C1761 1.386 . S
H1759 C1775 0.930 . S
H1760 C1776 0.931 . S
C1761 H1749 0.929 . S
C1761 C1755 1.390 . S
C1761 C1758 1.386 . S
C1762 C1757 1.490 . S
C1762 C1764 1.395 . S
C1762 C1765 1.403 . S
H1763 C1769 0.930 . S
C1764 H1750 0.930 . S
C1764 C1762 1.395 . S
C1764 C1767 1.403 . S
C1765 C1762 1.403 . S
C1765 C1766 1.524 . S
C1765 C1769 1.400 . S
C1766 H1751 0.960 . S
C1766 H1752 0.960 . S
C1766 H1753 0.960 . S
C1766 C1765 1.524 . S
C1767 C1764 1.403 . S
C1767 C1768 1.392 . S
C1767 C1771 1.495 . S
C1768 C1767 1.392 . S
C1768 C1769 1.385 . S
C1768 C1770 1.478 . S
C1769 H1763 0.930 . S
C1769 C1765 1.400 . S
C1769 C1768 1.385 . S
C1770 C1768 1.478 . S
C1770 C1772 1.381 . S
C1770 C1776 1.383 . S
C1771 C1767 1.495 . S
C1771 H1777 0.959 . S
C1771 H1778 0.961 . S
C1771 H1779 0.960 . S
C1772 C1770 1.381 . S
C1772 C1773 1.394 . S
C1772 H1780 0.930 . S
C1773 C1772 1.394 . S
C1773 C1774 1.383 . S
C1773 H1781 0.929 . S
C1774 C1773 1.383 . S
C1774 C1775 1.377 . S
C1775 H1759 0.930 . S
C1775 C1774 1.377 . S
C1775 C1776 1.379 . S
C1776 H1760 0.931 . S
C1776 C1770 1.383 . S
C1776 C1775 1.379 . S
H1777 C1771 0.959 . S
H1778 C1771 0.961 . S
H1779 C1771 0.960 . S
H1780 C1772 0.930 . S
H1781 C1773 0.929 . S
H1782 C1790 0.929 . S
H1783 C1792 0.930 . S
H1784 C1794 0.930 . S
H1785 C1797 0.929 . S
H1786 C1800 0.930 . S
H1787 C1802 0.960 . S
H1788 C1802 0.960 . S
H1789 C1802 0.960 . S
C1790 H1782 0.929 . S
C1790 C1791 1.377 . S
C1790 C1792 1.384 . S
C1791 C1790 1.377 . S
C1791 C1797 1.390 . S
C1792 H1783 0.930 . S
C1792 C1790 1.384 . S
C1792 C1793 1.372 . S
C1793 C1792 1.372 . S
C1793 C1794 1.400 . S
C1793 C1798 1.490 . S
C1794 H1784 0.930 . S
C1794 C1793 1.400 . S
C1794 C1797 1.386 . S
H1795 C1811 0.930 . S
H1796 C1812 0.931 . S
C1797 H1785 0.929 . S
C1797 C1791 1.390 . S
C1797 C1794 1.386 . S
C1798 C1793 1.490 . S
C1798 C1800 1.395 . S
C1798 C1801 1.403 . S
H1799 C1805 0.930 . S
C1800 H1786 0.930 . S
C1800 C1798 1.395 . S
C1800 C1803 1.403 . S
C1801 C1798 1.403 . S
C1801 C1802 1.524 . S
C1801 C1805 1.400 . S
C1802 H1787 0.960 . S
C1802 H1788 0.960 . S
C1802 H1789 0.960 . S
C1802 C1801 1.524 . S
C1803 C1800 1.403 . S
C1803 C1804 1.392 . S
C1803 C1807 1.495 . S
C1804 C1803 1.392 . S
C1804 C1805 1.385 . S
C1804 C1806 1.478 . S
C1805 H1799 0.930 . S
C1805 C1801 1.400 . S
C1805 C1804 1.385 . S
C1806 C1804 1.478 . S
C1806 C1808 1.381 . S
C1806 C1812 1.383 . S
C1807 C1803 1.495 . S
C1807 H1813 0.959 . S
C1807 H1814 0.961 . S
C1807 H1815 0.960 . S
C1808 C1806 1.381 . S
C1808 C1809 1.394 . S
C1808 H1816 0.930 . S
C1809 C1808 1.394 . S
C1809 C1810 1.383 . S
C1809 H1817 0.929 . S
C1810 C1809 1.383 . S
C1810 C1811 1.377 . S
C1811 H1795 0.930 . S
C1811 C1810 1.377 . S
C1811 C1812 1.379 . S
C1812 H1796 0.931 . S
C1812 C1806 1.383 . S
C1812 C1811 1.379 . S
H1813 C1807 0.959 . S
H1814 C1807 0.961 . S
H1815 C1807 0.960 . S
H1816 C1808 0.930 . S
H1817 C1809 0.929 . S
H1818 C1826 0.929 . S
H1819 C1828 0.930 . S
H1820 C1830 0.930 . S
H1821 C1833 0.929 . S
H1822 C1836 0.930 . S
H1823 C1838 0.960 . S
H1824 C1838 0.960 1_545 S
H1825 C1838 0.960 1_545 S
C1826 H1818 0.929 . S
C1826 C1827 1.377 . S
C1826 C1828 1.384 . S
C1827 C1826 1.377 . S
C1827 C1833 1.390 . S
C1828 H1819 0.930 . S
C1828 C1826 1.384 . S
C1828 C1829 1.372 . S
C1829 C1828 1.372 . S
C1829 C1830 1.400 . S
C1829 C1834 1.490 1_545 S
C1830 H1820 0.930 . S
C1830 C1829 1.400 . S
C1830 C1833 1.386 . S
H1831 C1847 0.930 . S
H1832 C1848 0.931 . S
C1833 H1821 0.929 . S
C1833 C1827 1.390 . S
C1833 C1830 1.386 . S
C1834 C1829 1.490 1_565 S
C1834 C1836 1.395 . S
C1834 C1837 1.403 . S
H1835 C1841 0.930 . S
C1836 H1822 0.930 . S
C1836 C1834 1.395 . S
C1836 C1839 1.403 . S
C1837 C1834 1.403 . S
C1837 C1838 1.524 . S
C1837 C1841 1.400 . S
C1838 H1823 0.960 . S
C1838 H1824 0.960 1_565 S
C1838 H1825 0.960 1_565 S
C1838 C1837 1.524 . S
C1839 C1836 1.403 . S
C1839 C1840 1.392 . S
C1839 C1843 1.495 . S
C1840 C1839 1.392 . S
C1840 C1841 1.385 . S
C1840 C1842 1.478 . S
C1841 H1835 0.930 . S
C1841 C1837 1.400 . S
C1841 C1840 1.385 . S
C1842 C1840 1.478 . S
C1842 C1844 1.381 . S
C1842 C1848 1.383 . S
C1843 C1839 1.495 . S
C1843 H1849 0.959 . S
C1843 H1850 0.961 . S
C1843 H1851 0.960 . S
C1844 C1842 1.381 . S
C1844 C1845 1.394 . S
C1844 H1852 0.930 . S
C1845 C1844 1.394 . S
C1845 C1846 1.383 . S
C1845 H1853 0.929 . S
C1846 C1845 1.383 . S
C1846 C1847 1.377 . S
C1847 H1831 0.930 . S
C1847 C1846 1.377 . S
C1847 C1848 1.379 . S
C1848 H1832 0.931 . S
C1848 C1842 1.383 . S
C1848 C1847 1.379 . S
H1849 C1843 0.959 . S
H1850 C1843 0.961 . S
H1851 C1843 0.960 . S
H1852 C1844 0.930 . S
H1853 C1845 0.929 . S
H1854 C1862 0.929 . S
H1855 C1864 0.930 . S
H1856 C1866 0.930 . S
H1857 C1869 0.929 . S
H1858 C1872 0.930 . S
H1859 C1874 0.960 . S
H1860 C1874 0.960 . S
H1861 C1874 0.960 . S
C1862 H1854 0.929 . S
C1862 C1863 1.377 . S
C1862 C1864 1.384 . S
C1863 C1862 1.377 . S
C1863 C1869 1.390 . S
C1864 H1855 0.930 . S
C1864 C1862 1.384 . S
C1864 C1865 1.372 1_655 S
C1865 C1864 1.372 1_455 S
C1865 C1866 1.400 . S
C1865 C1870 1.490 . S
C1866 H1856 0.930 . S
C1866 C1865 1.400 . S
C1866 C1869 1.386 1_455 S
H1867 C1883 0.930 . S
H1868 C1884 0.931 . S
C1869 H1857 0.929 . S
C1869 C1863 1.390 . S
C1869 C1866 1.386 1_655 S
C1870 C1865 1.490 . S
C1870 C1872 1.395 . S
C1870 C1873 1.403 . S
H1871 C1877 0.930 . S
C1872 H1858 0.930 . S
C1872 C1870 1.395 . S
C1872 C1875 1.403 . S
C1873 C1870 1.403 . S
C1873 C1874 1.524 . S
C1873 C1877 1.400 . S
C1874 H1859 0.960 . S
C1874 H1860 0.960 . S
C1874 H1861 0.960 . S
C1874 C1873 1.524 . S
C1875 C1872 1.403 . S
C1875 C1876 1.392 . S
C1875 C1879 1.495 . S
C1876 C1875 1.392 . S
C1876 C1877 1.385 . S
C1876 C1878 1.478 . S
C1877 H1871 0.930 . S
C1877 C1873 1.400 . S
C1877 C1876 1.385 . S
C1878 C1876 1.478 . S
C1878 C1880 1.381 . S
C1878 C1884 1.383 . S
C1879 C1875 1.495 . S
C1879 H1885 0.959 . S
C1879 H1886 0.961 . S
C1879 H1887 0.960 . S
C1880 C1878 1.381 . S
C1880 C1881 1.394 . S
C1880 H1888 0.930 . S
C1881 C1880 1.394 . S
C1881 C1882 1.383 . S
C1881 H1889 0.929 . S
C1882 C1881 1.383 . S
C1882 C1883 1.377 . S
C1883 H1867 0.930 . S
C1883 C1882 1.377 . S
C1883 C1884 1.379 . S
C1884 H1868 0.931 . S
C1884 C1878 1.383 . S
C1884 C1883 1.379 . S
H1885 C1879 0.959 . S
H1886 C1879 0.961 . S
H1887 C1879 0.960 . S
H1888 C1880 0.930 . S
H1889 C1881 0.929 . S
H1890 C1898 0.929 . S
H1891 C1900 0.930 . S
H1892 C1902 0.930 . S
H1893 C1905 0.929 . S
H1894 C1908 0.930 . S
H1895 C1910 0.960 . S
H1896 C1910 0.960 . S
H1897 C1910 0.960 . S
C1898 H1890 0.929 . S
C1898 C1899 1.377 . S
C1898 C1900 1.384 . S
C1899 C1898 1.377 . S
C1899 C1905 1.390 . S
C1900 H1891 0.930 . S
C1900 C1898 1.384 . S
C1900 C1901 1.372 . S
C1901 C1900 1.372 . S
C1901 C1902 1.400 . S
C1901 C1906 1.490 . S
C1902 H1892 0.930 . S
C1902 C1901 1.400 . S
C1902 C1905 1.386 . S
H1903 C1919 0.930 . S
H1904 C1920 0.931 . S
C1905 H1893 0.929 . S
C1905 C1899 1.390 . S
C1905 C1902 1.386 . S
C1906 C1901 1.490 . S
C1906 C1908 1.395 . S
C1906 C1909 1.403 . S
H1907 C1913 0.930 . S
C1908 H1894 0.930 . S
C1908 C1906 1.395 . S
C1908 C1911 1.403 . S
C1909 C1906 1.403 . S
C1909 C1910 1.524 . S
C1909 C1913 1.400 . S
C1910 H1895 0.960 . S
C1910 H1896 0.960 . S
C1910 H1897 0.960 . S
C1910 C1909 1.524 . S
C1911 C1908 1.403 . S
C1911 C1912 1.392 . S
C1911 C1915 1.495 . S
C1912 C1911 1.392 . S
C1912 C1913 1.385 . S
C1912 C1914 1.478 . S
C1913 H1907 0.930 . S
C1913 C1909 1.400 . S
C1913 C1912 1.385 . S
C1914 C1912 1.478 . S
C1914 C1916 1.381 . S
C1914 C1920 1.383 . S
C1915 C1911 1.495 . S
C1915 H1921 0.959 . S
C1915 H1922 0.961 . S
C1915 H1923 0.960 . S
C1916 C1914 1.381 . S
C1916 C1917 1.394 . S
C1916 H1924 0.930 . S
C1917 C1916 1.394 . S
C1917 C1918 1.383 . S
C1917 H1925 0.929 . S
C1918 C1917 1.383 . S
C1918 C1919 1.377 . S
C1919 H1903 0.930 . S
C1919 C1918 1.377 . S
C1919 C1920 1.379 . S
C1920 H1904 0.931 . S
C1920 C1914 1.383 . S
C1920 C1919 1.379 . S
H1921 C1915 0.959 . S
H1922 C1915 0.961 . S
H1923 C1915 0.960 . S
H1924 C1916 0.930 . S
H1925 C1917 0.929 . S
H1926 C1934 0.929 . S
H1927 C1936 0.930 . S
H1928 C1938 0.930 . S
H1929 C1941 0.929 . S
H1930 C1944 0.930 . S
H1931 C1946 0.960 . S
H1932 C1946 0.960 . S
H1933 C1946 0.960 . S
C1934 H1926 0.929 . S
C1934 C1935 1.377 . S
C1934 C1936 1.384 . S
C1935 C1934 1.377 . S
C1935 C1941 1.390 . S
C1936 H1927 0.930 . S
C1936 C1934 1.384 . S
C1936 C1937 1.372 . S
C1937 C1936 1.372 . S
C1937 C1938 1.400 . S
C1937 C1942 1.490 . S
C1938 H1928 0.930 . S
C1938 C1937 1.400 . S
C1938 C1941 1.386 . S
H1939 C1955 0.930 . S
H1940 C1956 0.931 . S
C1941 H1929 0.929 . S
C1941 C1935 1.390 . S
C1941 C1938 1.386 . S
C1942 C1937 1.490 . S
C1942 C1944 1.395 . S
C1942 C1945 1.403 . S
H1943 C1949 0.930 . S
C1944 H1930 0.930 . S
C1944 C1942 1.395 . S
C1944 C1947 1.403 . S
C1945 C1942 1.403 . S
C1945 C1946 1.524 . S
C1945 C1949 1.400 . S
C1946 H1931 0.960 . S
C1946 H1932 0.960 . S
C1946 H1933 0.960 . S
C1946 C1945 1.524 . S
C1947 C1944 1.403 . S
C1947 C1948 1.392 . S
C1947 C1951 1.495 . S
C1948 C1947 1.392 . S
C1948 C1949 1.385 . S
C1948 C1950 1.478 . S
C1949 H1943 0.930 . S
C1949 C1945 1.400 . S
C1949 C1948 1.385 . S
C1950 C1948 1.478 . S
C1950 C1952 1.381 . S
C1950 C1956 1.383 . S
C1951 C1947 1.495 . S
C1951 H1957 0.959 . S
C1951 H1958 0.961 . S
C1951 H1959 0.960 . S
C1952 C1950 1.381 . S
C1952 C1953 1.394 . S
C1952 H1960 0.930 . S
C1953 C1952 1.394 . S
C1953 C1954 1.383 . S
C1953 H1961 0.929 . S
C1954 C1953 1.383 . S
C1954 C1955 1.377 . S
C1955 H1939 0.930 . S
C1955 C1954 1.377 . S
C1955 C1956 1.379 . S
C1956 H1940 0.931 . S
C1956 C1950 1.383 . S
C1956 C1955 1.379 . S
H1957 C1951 0.959 . S
H1958 C1951 0.961 . S
H1959 C1951 0.960 . S
H1960 C1952 0.930 . S
H1961 C1953 0.929 . S
H1962 C1970 0.929 . S
H1963 C1972 0.930 . S
H1964 C1974 0.930 . S
H1965 C1977 0.929 . S
H1966 C1980 0.930 . S
H1967 C1982 0.960 . S
H1968 C1982 0.960 . S
H1969 C1982 0.960 . S
C1970 H1962 0.929 . S
C1970 C1971 1.377 . S
C1970 C1972 1.384 . S
C1971 C1970 1.377 . S
C1971 C1977 1.390 . S
C1972 H1963 0.930 . S
C1972 C1970 1.384 . S
C1972 C1973 1.372 . S
C1973 C1972 1.372 . S
C1973 C1974 1.400 . S
C1973 C1978 1.490 . S
C1974 H1964 0.930 . S
C1974 C1973 1.400 . S
C1974 C1977 1.386 . S
H1975 C1991 0.930 . S
H1976 C1992 0.931 . S
C1977 H1965 0.929 . S
C1977 C1971 1.390 . S
C1977 C1974 1.386 . S
C1978 C1973 1.490 . S
C1978 C1980 1.395 . S
C1978 C1981 1.403 . S
H1979 C1985 0.930 . S
C1980 H1966 0.930 . S
C1980 C1978 1.395 . S
C1980 C1983 1.403 . S
C1981 C1978 1.403 . S
C1981 C1982 1.524 . S
C1981 C1985 1.400 . S
C1982 H1967 0.960 . S
C1982 H1968 0.960 . S
C1982 H1969 0.960 . S
C1982 C1981 1.524 . S
C1983 C1980 1.403 . S
C1983 C1984 1.392 . S
C1983 C1987 1.495 . S
C1984 C1983 1.392 . S
C1984 C1985 1.385 . S
C1984 C1986 1.478 . S
C1985 H1979 0.930 . S
C1985 C1981 1.400 . S
C1985 C1984 1.385 . S
C1986 C1984 1.478 . S
C1986 C1988 1.381 . S
C1986 C1992 1.383 . S
C1987 C1983 1.495 . S
C1987 H1993 0.959 . S
C1987 H1994 0.961 . S
C1987 H1995 0.960 . S
C1988 C1986 1.381 . S
C1988 C1989 1.394 . S
C1988 H1996 0.930 . S
C1989 C1988 1.394 . S
C1989 C1990 1.383 . S
C1989 H1997 0.929 . S
C1990 C1989 1.383 . S
C1990 C1991 1.377 . S
C1991 H1975 0.930 . S
C1991 C1990 1.377 . S
C1991 C1992 1.379 . S
C1992 H1976 0.931 . S
C1992 C1986 1.383 . S
C1992 C1991 1.379 . S
H1993 C1987 0.959 . S
H1994 C1987 0.961 . S
H1995 C1987 0.960 . S
H1996 C1988 0.930 . S
H1997 C1989 0.929 . S
H1998 C2006 0.929 . S
H1999 C2008 0.930 . S
H2000 C2010 0.930 . S
H2001 C2013 0.929 . S
H2002 C2016 0.930 . S
H2003 C2018 0.960 . S
H2004 C2018 0.960 . S
H2005 C2018 0.960 . S
C2006 H1998 0.929 . S
C2006 C2007 1.377 . S
C2006 C2008 1.384 . S
C2007 C2006 1.377 . S
C2007 C2013 1.390 . S
C2008 H1999 0.930 . S
C2008 C2006 1.384 . S
C2008 C2009 1.372 . S
C2009 C2008 1.372 . S
C2009 C2010 1.400 . S
C2009 C2014 1.490 . S
C2010 H2000 0.930 . S
C2010 C2009 1.400 . S
C2010 C2013 1.386 . S
H2011 C2027 0.930 . S
H2012 C2028 0.931 . S
C2013 H2001 0.929 . S
C2013 C2007 1.390 . S
C2013 C2010 1.386 . S
C2014 C2009 1.490 . S
C2014 C2016 1.395 . S
C2014 C2017 1.403 . S
H2015 C2021 0.930 . S
C2016 H2002 0.930 . S
C2016 C2014 1.395 . S
C2016 C2019 1.403 . S
C2017 C2014 1.403 . S
C2017 C2018 1.524 . S
C2017 C2021 1.400 . S
C2018 H2003 0.960 . S
C2018 H2004 0.960 . S
C2018 H2005 0.960 . S
C2018 C2017 1.524 . S
C2019 C2016 1.403 . S
C2019 C2020 1.392 . S
C2019 C2023 1.495 . S
C2020 C2019 1.392 . S
C2020 C2021 1.385 . S
C2020 C2022 1.478 . S
C2021 H2015 0.930 . S
C2021 C2017 1.400 . S
C2021 C2020 1.385 . S
C2022 C2020 1.478 . S
C2022 C2024 1.381 . S
C2022 C2028 1.383 . S
C2023 C2019 1.495 . S
C2023 H2029 0.959 . S
C2023 H2030 0.961 . S
C2023 H2031 0.960 . S
C2024 C2022 1.381 . S
C2024 C2025 1.394 . S
C2024 H2032 0.930 . S
C2025 C2024 1.394 . S
C2025 C2026 1.383 . S
C2025 H2033 0.929 . S
C2026 C2025 1.383 . S
C2026 C2027 1.377 . S
C2027 H2011 0.930 . S
C2027 C2026 1.377 . S
C2027 C2028 1.379 . S
C2028 H2012 0.931 . S
C2028 C2022 1.383 . S
C2028 C2027 1.379 . S
H2029 C2023 0.959 . S
H2030 C2023 0.961 . S
H2031 C2023 0.960 . S
H2032 C2024 0.930 . S
H2033 C2025 0.929 . S
H2034 C2042 0.929 . S
H2035 C2044 0.930 . S
H2036 C2046 0.930 . S
H2037 C2049 0.929 . S
H2038 C2052 0.930 . S
H2039 C2054 0.960 . S
H2040 C2054 0.960 1_565 S
H2041 C2054 0.960 1_565 S
C2042 H2034 0.929 . S
C2042 C2043 1.377 . S
C2042 C2044 1.384 . S
C2043 C2042 1.377 . S
C2043 C2049 1.390 . S
C2044 H2035 0.930 . S
C2044 C2042 1.384 . S
C2044 C2045 1.372 . S
C2045 C2044 1.372 . S
C2045 C2046 1.400 . S
C2045 C2050 1.490 1_565 S
C2046 H2036 0.930 . S
C2046 C2045 1.400 . S
C2046 C2049 1.386 . S
H2047 C2063 0.930 . S
H2048 C2064 0.931 . S
C2049 H2037 0.929 . S
C2049 C2043 1.390 . S
C2049 C2046 1.386 . S
C2050 C2045 1.490 1_545 S
C2050 C2052 1.395 . S
C2050 C2053 1.403 . S
H2051 C2057 0.930 . S
C2052 H2038 0.930 . S
C2052 C2050 1.395 . S
C2052 C2055 1.403 . S
C2053 C2050 1.403 . S
C2053 C2054 1.524 . S
C2053 C2057 1.400 . S
C2054 H2039 0.960 . S
C2054 H2040 0.960 1_545 S
C2054 H2041 0.960 1_545 S
C2054 C2053 1.524 . S
C2055 C2052 1.403 . S
C2055 C2056 1.392 . S
C2055 C2059 1.495 . S
C2056 C2055 1.392 . S
C2056 C2057 1.385 . S
C2056 C2058 1.478 . S
C2057 H2051 0.930 . S
C2057 C2053 1.400 . S
C2057 C2056 1.385 . S
C2058 C2056 1.478 . S
C2058 C2060 1.381 . S
C2058 C2064 1.383 . S
C2059 C2055 1.495 . S
C2059 H2065 0.959 . S
C2059 H2066 0.961 . S
C2059 H2067 0.960 . S
C2060 C2058 1.381 . S
C2060 C2061 1.394 . S
C2060 H2068 0.930 . S
C2061 C2060 1.394 . S
C2061 C2062 1.383 . S
C2061 H2069 0.929 . S
C2062 C2061 1.383 . S
C2062 C2063 1.377 . S
C2063 H2047 0.930 . S
C2063 C2062 1.377 . S
C2063 C2064 1.379 . S
C2064 H2048 0.931 . S
C2064 C2058 1.383 . S
C2064 C2063 1.379 . S
H2065 C2059 0.959 . S
H2066 C2059 0.961 . S
H2067 C2059 0.960 . S
H2068 C2060 0.930 . S
H2069 C2061 0.929 . S
H2070 C2078 0.929 . S
H2071 C2080 0.930 1_655 S
H2072 C2082 0.930 . S
H2073 C2085 0.929 . S
H2074 C2088 0.930 . S
H2075 C2090 0.960 . S
H2076 C2090 0.960 . S
H2077 C2090 0.960 . S
C2078 H2070 0.929 . S
C2078 C2079 1.377 . S
C2078 C2080 1.384 . S
C2079 C2078 1.377 . S
C2079 C2085 1.390 . S
C2080 H2071 0.930 1_455 S
C2080 C2078 1.384 . S
C2080 C2081 1.372 1_455 S
C2081 C2080 1.372 1_655 S
C2081 C2082 1.400 1_655 S
C2081 C2086 1.490 . S
C2082 H2072 0.930 . S
C2082 C2081 1.400 1_455 S
C2082 C2085 1.386 . S
H2083 C2099 0.930 . S
H2084 C2100 0.931 . S
C2085 H2073 0.929 . S
C2085 C2079 1.390 . S
C2085 C2082 1.386 . S
C2086 C2081 1.490 . S
C2086 C2088 1.395 . S
C2086 C2089 1.403 . S
H2087 C2093 0.930 . S
C2088 H2074 0.930 . S
C2088 C2086 1.395 . S
C2088 C2091 1.403 . S
C2089 C2086 1.403 . S
C2089 C2090 1.524 . S
C2089 C2093 1.400 . S
C2090 H2075 0.960 . S
C2090 H2076 0.960 . S
C2090 H2077 0.960 . S
C2090 C2089 1.524 . S
C2091 C2088 1.403 . S
C2091 C2092 1.392 . S
C2091 C2095 1.495 . S
C2092 C2091 1.392 . S
C2092 C2093 1.385 . S
C2092 C2094 1.478 . S
C2093 H2087 0.930 . S
C2093 C2089 1.400 . S
C2093 C2092 1.385 . S
C2094 C2092 1.478 . S
C2094 C2096 1.381 . S
C2094 C2100 1.383 . S
C2095 C2091 1.495 . S
C2095 H2101 0.959 . S
C2095 H2102 0.961 . S
C2095 H2103 0.960 . S
C2096 C2094 1.381 . S
C2096 C2097 1.394 . S
C2096 H2104 0.930 . S
C2097 C2096 1.394 . S
C2097 C2098 1.383 . S
C2097 H2105 0.929 . S
C2098 C2097 1.383 . S
C2098 C2099 1.377 . S
C2099 H2083 0.930 . S
C2099 C2098 1.377 . S
C2099 C2100 1.379 . S
C2100 H2084 0.931 . S
C2100 C2094 1.383 . S
C2100 C2099 1.379 . S
H2101 C2095 0.959 . S
H2102 C2095 0.961 . S
H2103 C2095 0.960 . S
H2104 C2096 0.930 . S
H2105 C2097 0.929 . S
H2106 C2114 0.929 . S
H2107 C2116 0.930 . S
H2108 C2118 0.930 . S
H2109 C2121 0.929 . S
H2110 C2124 0.930 . S
H2111 C2126 0.960 . S
H2112 C2126 0.960 . S
H2113 C2126 0.960 . S
C2114 H2106 0.929 . S
C2114 C2115 1.377 . S
C2114 C2116 1.384 . S
C2115 C2114 1.377 . S
C2115 C2121 1.390 . S
C2116 H2107 0.930 . S
C2116 C2114 1.384 . S
C2116 C2117 1.372 . S
C2117 C2116 1.372 . S
C2117 C2118 1.400 . S
C2117 C2122 1.490 . S
C2118 H2108 0.930 . S
C2118 C2117 1.400 . S
C2118 C2121 1.386 . S
H2119 C2135 0.930 . S
H2120 C2136 0.931 . S
C2121 H2109 0.929 . S
C2121 C2115 1.390 . S
C2121 C2118 1.386 . S
C2122 C2117 1.490 . S
C2122 C2124 1.395 . S
C2122 C2125 1.403 . S
H2123 C2129 0.930 . S
C2124 H2110 0.930 . S
C2124 C2122 1.395 . S
C2124 C2127 1.403 . S
C2125 C2122 1.403 . S
C2125 C2126 1.524 . S
C2125 C2129 1.400 . S
C2126 H2111 0.960 . S
C2126 H2112 0.960 . S
C2126 H2113 0.960 . S
C2126 C2125 1.524 . S
C2127 C2124 1.403 . S
C2127 C2128 1.392 . S
C2127 C2131 1.495 . S
C2128 C2127 1.392 . S
C2128 C2129 1.385 . S
C2128 C2130 1.478 . S
C2129 H2123 0.930 . S
C2129 C2125 1.400 . S
C2129 C2128 1.385 . S
C2130 C2128 1.478 . S
C2130 C2132 1.381 . S
C2130 C2136 1.383 . S
C2131 C2127 1.495 . S
C2131 H2137 0.959 . S
C2131 H2138 0.961 . S
C2131 H2139 0.960 . S
C2132 C2130 1.381 . S
C2132 C2133 1.394 . S
C2132 H2140 0.930 . S
C2133 C2132 1.394 . S
C2133 C2134 1.383 . S
C2133 H2141 0.929 . S
C2134 C2133 1.383 . S
C2134 C2135 1.377 . S
C2135 H2119 0.930 . S
C2135 C2134 1.377 . S
C2135 C2136 1.379 . S
C2136 H2120 0.931 . S
C2136 C2130 1.383 . S
C2136 C2135 1.379 . S
H2137 C2131 0.959 . S
H2138 C2131 0.961 . S
H2139 C2131 0.960 . S
H2140 C2132 0.930 . S
H2141 C2133 0.929 . S
H2142 C2150 0.929 . S
H2143 C2152 0.930 . S
H2144 C2154 0.930 . S
H2145 C2157 0.929 . S
H2146 C2160 0.930 . S
H2147 C2162 0.960 . S
H2148 C2162 0.960 . S
H2149 C2162 0.960 . S
C2150 H2142 0.929 . S
C2150 C2151 1.377 . S
C2150 C2152 1.384 . S
C2151 C2150 1.377 . S
C2151 C2157 1.390 . S
C2152 H2143 0.930 . S
C2152 C2150 1.384 . S
C2152 C2153 1.372 . S
C2153 C2152 1.372 . S
C2153 C2154 1.400 . S
C2153 C2158 1.490 1_455 S
C2154 H2144 0.930 . S
C2154 C2153 1.400 . S
C2154 C2157 1.386 . S
H2155 C2171 0.930 . S
H2156 C2172 0.931 . S
C2157 H2145 0.929 . S
C2157 C2151 1.390 . S
C2157 C2154 1.386 . S
C2158 C2153 1.490 1_655 S
C2158 C2160 1.395 . S
C2158 C2161 1.403 . S
H2159 C2165 0.930 . S
C2160 H2146 0.930 . S
C2160 C2158 1.395 . S
C2160 C2163 1.403 . S
C2161 C2158 1.403 . S
C2161 C2162 1.524 . S
C2161 C2165 1.400 . S
C2162 H2147 0.960 . S
C2162 H2148 0.960 . S
C2162 H2149 0.960 . S
C2162 C2161 1.524 . S
C2163 C2160 1.403 . S
C2163 C2164 1.392 . S
C2163 C2167 1.495 . S
C2164 C2163 1.392 . S
C2164 C2165 1.385 . S
C2164 C2166 1.478 . S
C2165 H2159 0.930 . S
C2165 C2161 1.400 . S
C2165 C2164 1.385 . S
C2166 C2164 1.478 . S
C2166 C2168 1.381 . S
C2166 C2172 1.383 . S
C2167 C2163 1.495 . S
C2167 H2173 0.959 . S
C2167 H2174 0.961 . S
C2167 H2175 0.960 . S
C2168 C2166 1.381 . S
C2168 C2169 1.394 . S
C2168 H2176 0.930 . S
C2169 C2168 1.394 . S
C2169 C2170 1.383 . S
C2169 H2177 0.929 . S
C2170 C2169 1.383 . S
C2170 C2171 1.377 . S
C2171 H2155 0.930 . S
C2171 C2170 1.377 . S
C2171 C2172 1.379 . S
C2172 H2156 0.931 . S
C2172 C2166 1.383 . S
C2172 C2171 1.379 . S
H2173 C2167 0.959 . S
H2174 C2167 0.961 . S
H2175 C2167 0.960 . S
H2176 C2168 0.930 . S
H2177 C2169 0.929 . S
H2178 C2186 0.929 . S
H2179 C2188 0.930 . S
H2180 C2190 0.930 . S
H2181 C2193 0.929 . S
H2182 C2196 0.930 . S
H2183 C2198 0.960 . S
H2184 C2198 0.960 . S
H2185 C2198 0.960 . S
C2186 H2178 0.929 . S
C2186 C2187 1.377 . S
C2186 C2188 1.384 . S
C2187 C2186 1.377 . S
C2187 C2193 1.390 . S
C2188 H2179 0.930 . S
C2188 C2186 1.384 . S
C2188 C2189 1.372 . S
C2189 C2188 1.372 . S
C2189 C2190 1.400 . S
C2189 C2194 1.490 . S
C2190 H2180 0.930 . S
C2190 C2189 1.400 . S
C2190 C2193 1.386 . S
H2191 C2207 0.930 . S
H2192 C2208 0.931 . S
C2193 H2181 0.929 . S
C2193 C2187 1.390 . S
C2193 C2190 1.386 . S
C2194 C2189 1.490 . S
C2194 C2196 1.395 . S
C2194 C2197 1.403 . S
H2195 C2201 0.930 . S
C2196 H2182 0.930 . S
C2196 C2194 1.395 . S
C2196 C2199 1.403 . S
C2197 C2194 1.403 . S
C2197 C2198 1.524 . S
C2197 C2201 1.400 . S
C2198 H2183 0.960 . S
C2198 H2184 0.960 . S
C2198 H2185 0.960 . S
C2198 C2197 1.524 . S
C2199 C2196 1.403 . S
C2199 C2200 1.392 . S
C2199 C2203 1.495 . S
C2200 C2199 1.392 . S
C2200 C2201 1.385 . S
C2200 C2202 1.478 . S
C2201 H2195 0.930 . S
C2201 C2197 1.400 . S
C2201 C2200 1.385 . S
C2202 C2200 1.478 . S
C2202 C2204 1.381 . S
C2202 C2208 1.383 . S
C2203 C2199 1.495 . S
C2203 H2209 0.959 . S
C2203 H2210 0.961 . S
C2203 H2211 0.960 . S
C2204 C2202 1.381 . S
C2204 C2205 1.394 . S
C2204 H2212 0.930 . S
C2205 C2204 1.394 . S
C2205 C2206 1.383 . S
C2205 H2213 0.929 . S
C2206 C2205 1.383 . S
C2206 C2207 1.377 . S
C2207 H2191 0.930 . S
C2207 C2206 1.377 . S
C2207 C2208 1.379 . S
C2208 H2192 0.931 . S
C2208 C2202 1.383 . S
C2208 C2207 1.379 . S
H2209 C2203 0.959 . S
H2210 C2203 0.961 . S
H2211 C2203 0.960 . S
H2212 C2204 0.930 . S
H2213 C2205 0.929 . S
H2214 C2222 0.929 . S
H2215 C2224 0.930 . S
H2216 C2226 0.930 . S
H2217 C2229 0.929 . S
H2218 C2232 0.930 . S
H2219 C2234 0.960 . S
H2220 C2234 0.960 1_565 S
H2221 C2234 0.960 1_565 S
C2222 H2214 0.929 . S
C2222 C2223 1.377 . S
C2222 C2224 1.384 . S
C2223 C2222 1.377 . S
C2223 C2229 1.390 . S
C2224 H2215 0.930 . S
C2224 C2222 1.384 . S
C2224 C2225 1.372 . S
C2225 C2224 1.372 . S
C2225 C2226 1.400 . S
C2225 C2230 1.490 1_565 S
C2226 H2216 0.930 . S
C2226 C2225 1.400 . S
C2226 C2229 1.386 . S
H2227 C2243 0.930 . S
H2228 C2244 0.931 . S
C2229 H2217 0.929 . S
C2229 C2223 1.390 . S
C2229 C2226 1.386 . S
C2230 C2225 1.490 1_545 S
C2230 C2232 1.395 . S
C2230 C2233 1.403 . S
H2231 C2237 0.930 . S
C2232 H2218 0.930 . S
C2232 C2230 1.395 . S
C2232 C2235 1.403 . S
C2233 C2230 1.403 . S
C2233 C2234 1.524 . S
C2233 C2237 1.400 . S
C2234 H2219 0.960 . S
C2234 H2220 0.960 1_545 S
C2234 H2221 0.960 1_545 S
C2234 C2233 1.524 . S
C2235 C2232 1.403 . S
C2235 C2236 1.392 . S
C2235 C2239 1.495 . S
C2236 C2235 1.392 . S
C2236 C2237 1.385 . S
C2236 C2238 1.478 . S
C2237 H2231 0.930 . S
C2237 C2233 1.400 . S
C2237 C2236 1.385 . S
C2238 C2236 1.478 . S
C2238 C2240 1.381 . S
C2238 C2244 1.383 . S
C2239 C2235 1.495 . S
C2239 H2245 0.959 . S
C2239 H2246 0.961 . S
C2239 H2247 0.960 . S
C2240 C2238 1.381 . S
C2240 C2241 1.394 . S
C2240 H2248 0.930 . S
C2241 C2240 1.394 . S
C2241 C2242 1.383 . S
C2241 H2249 0.929 . S
C2242 C2241 1.383 . S
C2242 C2243 1.377 . S
C2243 H2227 0.930 . S
C2243 C2242 1.377 . S
C2243 C2244 1.379 . S
C2244 H2228 0.931 . S
C2244 C2238 1.383 . S
C2244 C2243 1.379 . S
H2245 C2239 0.959 . S
H2246 C2239 0.961 . S
H2247 C2239 0.960 . S
H2248 C2240 0.930 . S
H2249 C2241 0.929 . S
H2250 C2258 0.929 . S
H2251 C2260 0.930 . S
H2252 C2262 0.930 . S
H2253 C2265 0.929 . S
H2254 C2268 0.930 . S
H2255 C2270 0.960 . S
H2256 C2270 0.960 . S
H2257 C2270 0.960 . S
C2258 H2250 0.929 . S
C2258 C2259 1.377 . S
C2258 C2260 1.384 . S
C2259 C2258 1.377 . S
C2259 C2265 1.390 . S
C2260 H2251 0.930 . S
C2260 C2258 1.384 . S
C2260 C2261 1.372 . S
C2261 C2260 1.372 . S
C2261 C2262 1.400 . S
C2261 C2266 1.490 . S
C2262 H2252 0.930 . S
C2262 C2261 1.400 . S
C2262 C2265 1.386 . S
H2263 C2279 0.930 . S
H2264 C2280 0.931 . S
C2265 H2253 0.929 . S
C2265 C2259 1.390 . S
C2265 C2262 1.386 . S
C2266 C2261 1.490 . S
C2266 C2268 1.395 . S
C2266 C2269 1.403 . S
H2267 C2273 0.930 . S
C2268 H2254 0.930 . S
C2268 C2266 1.395 . S
C2268 C2271 1.403 . S
C2269 C2266 1.403 . S
C2269 C2270 1.524 . S
C2269 C2273 1.400 . S
C2270 H2255 0.960 . S
C2270 H2256 0.960 . S
C2270 H2257 0.960 . S
C2270 C2269 1.524 . S
C2271 C2268 1.403 . S
C2271 C2272 1.392 . S
C2271 C2275 1.495 . S
C2272 C2271 1.392 . S
C2272 C2273 1.385 . S
C2272 C2274 1.478 . S
C2273 H2267 0.930 . S
C2273 C2269 1.400 . S
C2273 C2272 1.385 . S
C2274 C2272 1.478 . S
C2274 C2276 1.381 . S
C2274 C2280 1.383 . S
C2275 C2271 1.495 . S
C2275 H2281 0.959 . S
C2275 H2282 0.961 . S
C2275 H2283 0.960 . S
C2276 C2274 1.381 . S
C2276 C2277 1.394 . S
C2276 H2284 0.930 . S
C2277 C2276 1.394 . S
C2277 C2278 1.383 . S
C2277 H2285 0.929 . S
C2278 C2277 1.383 . S
C2278 C2279 1.377 . S
C2279 H2263 0.930 . S
C2279 C2278 1.377 . S
C2279 C2280 1.379 . S
C2280 H2264 0.931 . S
C2280 C2274 1.383 . S
C2280 C2279 1.379 . S
H2281 C2275 0.959 . S
H2282 C2275 0.961 . S
H2283 C2275 0.960 . S
H2284 C2276 0.930 . S
H2285 C2277 0.929 . S
H2286 C2294 0.929 . S
H2287 C2296 0.930 . S
H2288 C2298 0.930 . S
H2289 C2301 0.929 . S
H2290 C2304 0.930 . S
H2291 C2306 0.960 . S
H2292 C2306 0.960 . S
H2293 C2306 0.960 . S
C2294 H2286 0.929 . S
C2294 C2295 1.377 . S
C2294 C2296 1.384 . S
C2295 C2294 1.377 . S
C2295 C2301 1.390 . S
C2296 H2287 0.930 . S
C2296 C2294 1.384 . S
C2296 C2297 1.372 . S
C2297 C2296 1.372 . S
C2297 C2298 1.400 . S
C2297 C2302 1.490 . S
C2298 H2288 0.930 . S
C2298 C2297 1.400 . S
C2298 C2301 1.386 . S
H2299 C2315 0.930 . S
H2300 C2316 0.931 . S
C2301 H2289 0.929 . S
C2301 C2295 1.390 . S
C2301 C2298 1.386 . S
C2302 C2297 1.490 . S
C2302 C2304 1.395 . S
C2302 C2305 1.403 . S
H2303 C2309 0.930 . S
C2304 H2290 0.930 . S
C2304 C2302 1.395 . S
C2304 C2307 1.403 . S
C2305 C2302 1.403 . S
C2305 C2306 1.524 . S
C2305 C2309 1.400 . S
C2306 H2291 0.960 . S
C2306 H2292 0.960 . S
C2306 H2293 0.960 . S
C2306 C2305 1.524 . S
C2307 C2304 1.403 . S
C2307 C2308 1.392 . S
C2307 C2311 1.495 . S
C2308 C2307 1.392 . S
C2308 C2309 1.385 . S
C2308 C2310 1.478 . S
C2309 H2303 0.930 . S
C2309 C2305 1.400 . S
C2309 C2308 1.385 . S
C2310 C2308 1.478 . S
C2310 C2312 1.381 . S
C2310 C2316 1.383 . S
C2311 C2307 1.495 . S
C2311 H2317 0.959 . S
C2311 H2318 0.961 . S
C2311 H2319 0.960 . S
C2312 C2310 1.381 . S
C2312 C2313 1.394 . S
C2312 H2320 0.930 . S
C2313 C2312 1.394 . S
C2313 C2314 1.383 . S
C2313 H2321 0.929 . S
C2314 C2313 1.383 . S
C2314 C2315 1.377 . S
C2315 H2299 0.930 . S
C2315 C2314 1.377 . S
C2315 C2316 1.379 . S
C2316 H2300 0.931 . S
C2316 C2310 1.383 . S
C2316 C2315 1.379 . S
H2317 C2311 0.959 . S
H2318 C2311 0.961 . S
H2319 C2311 0.960 . S
H2320 C2312 0.930 . S
H2321 C2313 0.929 . S
H2322 C2330 0.929 . S
H2323 C2332 0.930 . S
H2324 C2334 0.930 . S
H2325 C2337 0.929 . S
H2326 C2340 0.930 . S
H2327 C2342 0.960 . S
H2328 C2342 0.960 . S
H2329 C2342 0.960 . S
C2330 H2322 0.929 . S
C2330 C2331 1.377 . S
C2330 C2332 1.384 . S
C2331 C2330 1.377 . S
C2331 C2337 1.390 . S
C2332 H2323 0.930 . S
C2332 C2330 1.384 . S
C2332 C2333 1.372 . S
C2333 C2332 1.372 . S
C2333 C2334 1.400 . S
C2333 C2338 1.490 . S
C2334 H2324 0.930 . S
C2334 C2333 1.400 . S
C2334 C2337 1.386 . S
H2335 C2351 0.930 . S
H2336 C2352 0.931 . S
C2337 H2325 0.929 . S
C2337 C2331 1.390 . S
C2337 C2334 1.386 . S
C2338 C2333 1.490 . S
C2338 C2340 1.395 . S
C2338 C2341 1.403 . S
H2339 C2345 0.930 . S
C2340 H2326 0.930 . S
C2340 C2338 1.395 . S
C2340 C2343 1.403 . S
C2341 C2338 1.403 . S
C2341 C2342 1.524 . S
C2341 C2345 1.400 . S
C2342 H2327 0.960 . S
C2342 H2328 0.960 . S
C2342 H2329 0.960 . S
C2342 C2341 1.524 . S
C2343 C2340 1.403 . S
C2343 C2344 1.392 . S
C2343 C2347 1.495 . S
C2344 C2343 1.392 . S
C2344 C2345 1.385 . S
C2344 C2346 1.478 . S
C2345 H2339 0.930 . S
C2345 C2341 1.400 . S
C2345 C2344 1.385 . S
C2346 C2344 1.478 . S
C2346 C2348 1.381 . S
C2346 C2352 1.383 . S
C2347 C2343 1.495 . S
C2347 H2353 0.959 . S
C2347 H2354 0.961 . S
C2347 H2355 0.960 . S
C2348 C2346 1.381 . S
C2348 C2349 1.394 . S
C2348 H2356 0.930 . S
C2349 C2348 1.394 . S
C2349 C2350 1.383 . S
C2349 H2357 0.929 . S
C2350 C2349 1.383 . S
C2350 C2351 1.377 . S
C2351 H2335 0.930 . S
C2351 C2350 1.377 . S
C2351 C2352 1.379 . S
C2352 H2336 0.931 . S
C2352 C2346 1.383 . S
C2352 C2351 1.379 . S
H2353 C2347 0.959 . S
H2354 C2347 0.961 . S
H2355 C2347 0.960 . S
H2356 C2348 0.930 . S
H2357 C2349 0.929 . S
H2358 C2366 0.929 . S
H2359 C2368 0.930 . S
H2360 C2370 0.930 . S
H2361 C2373 0.929 . S
H2362 C2376 0.930 . S
H2363 C2378 0.960 . S
H2364 C2378 0.960 . S
H2365 C2378 0.960 . S
C2366 H2358 0.929 . S
C2366 C2367 1.377 . S
C2366 C2368 1.384 . S
C2367 C2366 1.377 . S
C2367 C2373 1.390 . S
C2368 H2359 0.930 . S
C2368 C2366 1.384 . S
C2368 C2369 1.372 . S
C2369 C2368 1.372 . S
C2369 C2370 1.400 . S
C2369 C2374 1.490 . S
C2370 H2360 0.930 . S
C2370 C2369 1.400 . S
C2370 C2373 1.386 . S
H2371 C2387 0.930 . S
H2372 C2388 0.931 . S
C2373 H2361 0.929 . S
C2373 C2367 1.390 . S
C2373 C2370 1.386 . S
C2374 C2369 1.490 . S
C2374 C2376 1.395 . S
C2374 C2377 1.403 . S
H2375 C2381 0.930 . S
C2376 H2362 0.930 . S
C2376 C2374 1.395 . S
C2376 C2379 1.403 . S
C2377 C2374 1.403 . S
C2377 C2378 1.524 . S
C2377 C2381 1.400 . S
C2378 H2363 0.960 . S
C2378 H2364 0.960 . S
C2378 H2365 0.960 . S
C2378 C2377 1.524 . S
C2379 C2376 1.403 . S
C2379 C2380 1.392 . S
C2379 C2383 1.495 . S
C2380 C2379 1.392 . S
C2380 C2381 1.385 . S
C2380 C2382 1.478 . S
C2381 H2375 0.930 . S
C2381 C2377 1.400 . S
C2381 C2380 1.385 . S
C2382 C2380 1.478 . S
C2382 C2384 1.381 . S
C2382 C2388 1.383 1_565 S
C2383 C2379 1.495 . S
C2383 H2389 0.959 . S
C2383 H2390 0.961 . S
C2383 H2391 0.960 . S
C2384 C2382 1.381 . S
C2384 C2385 1.394 . S
C2384 H2392 0.930 . S
C2385 C2384 1.394 . S
C2385 C2386 1.383 . S
C2385 H2393 0.929 . S
C2386 C2385 1.383 . S
C2386 C2387 1.377 1_565 S
C2387 H2371 0.930 . S
C2387 C2386 1.377 1_545 S
C2387 C2388 1.379 . S
C2388 H2372 0.931 . S
C2388 C2382 1.383 1_545 S
C2388 C2387 1.379 . S
H2389 C2383 0.959 . S
H2390 C2383 0.961 . S
H2391 C2383 0.960 . S
H2392 C2384 0.930 . S
H2393 C2385 0.929 . S
H2394 C2402 0.929 . S
H2395 C2404 0.930 . S
H2396 C2406 0.930 1_655 S
H2397 C2409 0.929 1_655 S
H2398 C2412 0.930 . S
H2399 C2414 0.960 . S
H2400 C2414 0.960 . S
H2401 C2414 0.960 . S
C2402 H2394 0.929 . S
C2402 C2403 1.377 . S
C2402 C2404 1.384 . S
C2403 C2402 1.377 . S
C2403 C2409 1.390 . S
C2404 H2395 0.930 . S
C2404 C2402 1.384 . S
C2404 C2405 1.372 . S
C2405 C2404 1.372 . S
C2405 C2406 1.400 . S
C2405 C2410 1.490 . S
C2406 H2396 0.930 1_455 S
C2406 C2405 1.400 . S
C2406 C2409 1.386 . S
H2407 C2423 0.930 . S
H2408 C2424 0.931 . S
C2409 H2397 0.929 1_455 S
C2409 C2403 1.390 . S
C2409 C2406 1.386 . S
C2410 C2405 1.490 . S
C2410 C2412 1.395 . S
C2410 C2413 1.403 1_455 S
H2411 C2417 0.930 . S
C2412 H2398 0.930 . S
C2412 C2410 1.395 . S
C2412 C2415 1.403 . S
C2413 C2410 1.403 1_655 S
C2413 C2414 1.524 . S
C2413 C2417 1.400 . S
C2414 H2399 0.960 . S
C2414 H2400 0.960 . S
C2414 H2401 0.960 . S
C2414 C2413 1.524 . S
C2415 C2412 1.403 . S
C2415 C2416 1.392 . S
C2415 C2419 1.495 . S
C2416 C2415 1.392 . S
C2416 C2417 1.385 1_455 S
C2416 C2418 1.478 . S
C2417 H2411 0.930 . S
C2417 C2413 1.400 . S
C2417 C2416 1.385 1_655 S
C2418 C2416 1.478 . S
C2418 C2420 1.381 . S
C2418 C2424 1.383 . S
C2419 C2415 1.495 . S
C2419 H2425 0.959 . S
C2419 H2426 0.961 . S
C2419 H2427 0.960 . S
C2420 C2418 1.381 . S
C2420 C2421 1.394 . S
C2420 H2428 0.930 . S
C2421 C2420 1.394 . S
C2421 C2422 1.383 . S
C2421 H2429 0.929 . S
C2422 C2421 1.383 . S
C2422 C2423 1.377 . S
C2423 H2407 0.930 . S
C2423 C2422 1.377 . S
C2423 C2424 1.379 . S
C2424 H2408 0.931 . S
C2424 C2418 1.383 . S
C2424 C2423 1.379 . S
H2425 C2419 0.959 . S
H2426 C2419 0.961 . S
H2427 C2419 0.960 . S
H2428 C2420 0.930 . S
H2429 C2421 0.929 . S
H2430 C2438 0.929 . S
H2431 C2440 0.930 . S
H2432 C2442 0.930 . S
H2433 C2445 0.929 . S
H2434 C2448 0.930 . S
H2435 C2450 0.960 . S
H2436 C2450 0.960 . S
H2437 C2450 0.960 . S
C2438 H2430 0.929 . S
C2438 C2439 1.377 . S
C2438 C2440 1.384 . S
C2439 C2438 1.377 . S
C2439 C2445 1.390 . S
C2440 H2431 0.930 . S
C2440 C2438 1.384 . S
C2440 C2441 1.372 . S
C2441 C2440 1.372 . S
C2441 C2442 1.400 . S
C2441 C2446 1.490 . S
C2442 H2432 0.930 . S
C2442 C2441 1.400 . S
C2442 C2445 1.386 . S
H2443 C2459 0.930 . S
H2444 C2460 0.931 . S
C2445 H2433 0.929 . S
C2445 C2439 1.390 . S
C2445 C2442 1.386 . S
C2446 C2441 1.490 . S
C2446 C2448 1.395 . S
C2446 C2449 1.403 . S
H2447 C2453 0.930 . S
C2448 H2434 0.930 . S
C2448 C2446 1.395 . S
C2448 C2451 1.403 . S
C2449 C2446 1.403 . S
C2449 C2450 1.524 . S
C2449 C2453 1.400 . S
C2450 H2435 0.960 . S
C2450 H2436 0.960 . S
C2450 H2437 0.960 . S
C2450 C2449 1.524 . S
C2451 C2448 1.403 . S
C2451 C2452 1.392 . S
C2451 C2455 1.495 . S
C2452 C2451 1.392 . S
C2452 C2453 1.385 . S
C2452 C2454 1.478 . S
C2453 H2447 0.930 . S
C2453 C2449 1.400 . S
C2453 C2452 1.385 . S
C2454 C2452 1.478 . S
C2454 C2456 1.381 . S
C2454 C2460 1.383 . S
C2455 C2451 1.495 . S
C2455 H2461 0.959 . S
C2455 H2462 0.961 . S
C2455 H2463 0.960 . S
C2456 C2454 1.381 . S
C2456 C2457 1.394 . S
C2456 H2464 0.930 . S
C2457 C2456 1.394 . S
C2457 C2458 1.383 . S
C2457 H2465 0.929 . S
C2458 C2457 1.383 . S
C2458 C2459 1.377 . S
C2459 H2443 0.930 . S
C2459 C2458 1.377 . S
C2459 C2460 1.379 . S
C2460 H2444 0.931 . S
C2460 C2454 1.383 . S
C2460 C2459 1.379 . S
H2461 C2455 0.959 . S
H2462 C2455 0.961 . S
H2463 C2455 0.960 . S
H2464 C2456 0.930 . S
H2465 C2457 0.929 . S
H2466 C2474 0.929 . S
H2467 C2476 0.930 . S
H2468 C2478 0.909 1_455 S
H2469 C2481 0.920 1_455 S
H2470 C2484 0.930 . S
H2471 C2486 0.960 . S
H2472 C2486 0.960 . S
H2473 C2486 0.960 . S
C2474 H2466 0.929 . S
C2474 C2475 1.377 . S
C2474 C2476 1.384 . S
C2475 C2474 1.377 . S
C2475 C2481 1.398 . S
C2476 H2467 0.930 . S
C2476 C2474 1.384 . S
C2476 C2477 1.372 . S
C2477 C2476 1.372 . S
C2477 C2478 1.423 . S
C2477 C2482 1.490 . S
C2478 H2468 0.909 1_655 S
C2478 C2477 1.423 . S
C2478 C2481 1.384 . S
H2479 C2495 0.930 1_455 S
H2480 C2496 0.964 . S
C2481 H2469 0.920 1_655 S
C2481 C2475 1.398 . S
C2481 C2478 1.384 . S
C2482 C2477 1.490 . S
C2482 C2484 1.395 . S
C2482 C2485 1.403 1_655 S
H2483 C2489 0.930 . S
C2484 H2470 0.930 . S
C2484 C2482 1.395 . S
C2484 C2487 1.403 . S
C2485 C2482 1.403 1_455 S
C2485 C2486 1.524 . S
C2485 C2489 1.400 . S
C2486 H2471 0.960 . S
C2486 H2472 0.960 . S
C2486 H2473 0.960 . S
C2486 C2485 1.524 . S
C2487 C2484 1.403 . S
C2487 C2488 1.392 . S
C2487 C2491 1.495 . S
C2488 C2487 1.392 . S
C2488 C2489 1.385 1_655 S
C2488 C2490 1.478 . S
C2489 H2483 0.930 . S
C2489 C2485 1.400 . S
C2489 C2488 1.385 1_455 S
C2490 C2488 1.478 . S
C2490 C2492 1.381 . S
C2490 C2496 1.383 . S
C2491 C2487 1.495 . S
C2491 H2497 0.959 . S
C2491 H2498 0.961 . S
C2491 H2499 0.960 . S
C2492 C2490 1.381 . S
C2492 C2493 1.394 . S
C2492 H2500 0.930 . S
C2493 C2492 1.394 . S
C2493 C2494 1.383 . S
C2493 H2501 0.929 . S
C2494 C2493 1.383 . S
C2494 C2495 1.377 . S
C2495 H2479 0.930 1_655 S
C2495 C2494 1.377 . S
C2495 C2496 1.379 . S
C2496 H2480 0.964 . S
C2496 C2490 1.383 . S
C2496 C2495 1.379 . S
H2497 C2491 0.959 . S
H2498 C2491 0.961 . S
H2499 C2491 0.960 . S
H2500 C2492 0.930 . S
H2501 C2493 0.929 . S
H2502 C2510 0.929 . S
H2503 C2512 0.930 . S
H2504 C2514 0.930 . S
H2505 C2517 0.929 . S
H2506 C2520 0.930 . S
H2507 C2522 0.960 . S
H2508 C2522 0.960 . S
H2509 C2522 0.960 . S
C2510 H2502 0.929 . S
C2510 C2511 1.377 . S
C2510 C2512 1.384 . S
C2511 C2510 1.377 . S
C2511 C2517 1.390 . S
C2512 H2503 0.930 . S
C2512 C2510 1.384 . S
C2512 C2513 1.372 . S
C2513 C2512 1.372 . S
C2513 C2514 1.400 . S
C2513 C2518 1.490 . S
C2514 H2504 0.930 . S
C2514 C2513 1.400 . S
C2514 C2517 1.386 . S
H2515 C2531 0.930 . S
H2516 C2532 0.931 . S
C2517 H2505 0.929 . S
C2517 C2511 1.390 . S
C2517 C2514 1.386 . S
C2518 C2513 1.490 . S
C2518 C2520 1.395 . S
C2518 C2521 1.403 . S
H2519 C2525 0.930 . S
C2520 H2506 0.930 . S
C2520 C2518 1.395 . S
C2520 C2523 1.403 . S
C2521 C2518 1.403 . S
C2521 C2522 1.524 . S
C2521 C2525 1.400 . S
C2522 H2507 0.960 . S
C2522 H2508 0.960 . S
C2522 H2509 0.960 . S
C2522 C2521 1.524 . S
C2523 C2520 1.403 . S
C2523 C2524 1.392 . S
C2523 C2527 1.495 . S
C2524 C2523 1.392 . S
C2524 C2525 1.385 . S
C2524 C2526 1.478 . S
C2525 H2519 0.930 . S
C2525 C2521 1.400 . S
C2525 C2524 1.385 . S
C2526 C2524 1.478 . S
C2526 C2528 1.381 . S
C2526 C2532 1.383 . S
C2527 C2523 1.495 . S
C2527 H2533 0.959 . S
C2527 H2534 0.961 . S
C2527 H2535 0.960 . S
C2528 C2526 1.381 . S
C2528 C2529 1.394 . S
C2528 H2536 0.930 . S
C2529 C2528 1.394 . S
C2529 C2530 1.383 . S
C2529 H2537 0.929 . S
C2530 C2529 1.383 . S
C2530 C2531 1.377 . S
C2531 H2515 0.930 . S
C2531 C2530 1.377 . S
C2531 C2532 1.379 . S
C2532 H2516 0.931 . S
C2532 C2526 1.383 . S
C2532 C2531 1.379 . S
H2533 C2527 0.959 . S
H2534 C2527 0.961 . S
H2535 C2527 0.960 . S
H2536 C2528 0.930 . S
H2537 C2529 0.929 . S
H2538 C2546 0.929 . S
H2539 C2548 0.930 . S
H2540 C2550 0.930 . S
H2541 C2553 0.929 . S
H2542 C2556 0.930 . S
H2543 C2558 0.960 . S
H2544 C2558 0.960 1_565 S
H2545 C2558 0.960 . S
C2546 H2538 0.929 . S
C2546 C2547 1.377 . S
C2546 C2548 1.384 . S
C2547 C2546 1.377 . S
C2547 C2553 1.390 . S
C2548 H2539 0.930 . S
C2548 C2546 1.384 . S
C2548 C2549 1.372 . S
C2549 C2548 1.372 . S
C2549 C2550 1.400 . S
C2549 C2554 1.490 . S
C2550 H2540 0.930 . S
C2550 C2549 1.400 . S
C2550 C2553 1.386 . S
H2551 C2567 0.930 . S
H2552 C2568 0.931 . S
C2553 H2541 0.929 . S
C2553 C2547 1.390 . S
C2553 C2550 1.386 . S
C2554 C2549 1.490 . S
C2554 C2556 1.395 . S
C2554 C2557 1.403 . S
H2555 C2561 0.930 . S
C2556 H2542 0.930 . S
C2556 C2554 1.395 . S
C2556 C2559 1.403 . S
C2557 C2554 1.403 . S
C2557 C2558 1.524 . S
C2557 C2561 1.400 . S
C2558 H2543 0.960 . S
C2558 H2544 0.960 1_545 S
C2558 H2545 0.960 . S
C2558 C2557 1.524 . S
C2559 C2556 1.403 . S
C2559 C2560 1.392 . S
C2559 C2563 1.495 . S
C2560 C2559 1.392 . S
C2560 C2561 1.385 . S
C2560 C2562 1.478 . S
C2561 H2555 0.930 . S
C2561 C2557 1.400 . S
C2561 C2560 1.385 . S
C2562 C2560 1.478 . S
C2562 C2564 1.381 . S
C2562 C2568 1.383 . S
C2563 C2559 1.495 . S
C2563 H2569 0.959 . S
C2563 H2570 0.961 . S
C2563 H2571 0.960 . S
C2564 C2562 1.381 . S
C2564 C2565 1.398 . S
C2564 H2572 0.923 1_545 S
C2565 C2564 1.398 . S
C2565 C2566 1.392 . S
C2565 H2573 0.917 1_545 S
C2566 C2565 1.392 . S
C2566 C2567 1.377 . S
C2567 H2551 0.930 . S
C2567 C2566 1.377 . S
C2567 C2568 1.379 . S
C2568 H2552 0.931 . S
C2568 C2562 1.383 . S
C2568 C2567 1.379 . S
H2569 C2563 0.959 . S
H2570 C2563 0.961 . S
H2571 C2563 0.960 . S
H2572 C2564 0.923 1_565 S
H2573 C2565 0.917 1_565 S
H2574 C2582 0.929 . S
H2575 C2584 0.930 . S
H2576 C2586 0.930 . S
H2577 C2589 0.929 . S
H2578 C2592 0.930 . S
H2579 C2594 0.960 . S
H2580 C2594 0.960 . S
H2581 C2594 0.960 . S
C2582 H2574 0.929 . S
C2582 C2583 1.377 . S
C2582 C2584 1.384 . S
C2583 C2582 1.377 . S
C2583 C2589 1.390 . S
C2584 H2575 0.930 . S
C2584 C2582 1.384 . S
C2584 C2585 1.372 . S
C2585 C2584 1.372 . S
C2585 C2586 1.400 . S
C2585 C2590 1.490 . S
C2586 H2576 0.930 . S
C2586 C2585 1.400 . S
C2586 C2589 1.386 . S
H2587 C2603 0.930 . S
H2588 C2604 0.931 . S
C2589 H2577 0.929 . S
C2589 C2583 1.390 . S
C2589 C2586 1.386 . S
C2590 C2585 1.490 . S
C2590 C2592 1.395 . S
C2590 C2593 1.403 . S
H2591 C2597 0.930 . S
C2592 H2578 0.930 . S
C2592 C2590 1.395 . S
C2592 C2595 1.403 . S
C2593 C2590 1.403 . S
C2593 C2594 1.524 . S
C2593 C2597 1.400 . S
C2594 H2579 0.960 . S
C2594 H2580 0.960 . S
C2594 H2581 0.960 . S
C2594 C2593 1.524 . S
C2595 C2592 1.403 . S
C2595 C2596 1.392 . S
C2595 C2599 1.495 . S
C2596 C2595 1.392 . S
C2596 C2597 1.385 . S
C2596 C2598 1.478 . S
C2597 H2591 0.930 . S
C2597 C2593 1.400 . S
C2597 C2596 1.385 . S
C2598 C2596 1.478 . S
C2598 C2600 1.381 . S
C2598 C2604 1.383 . S
C2599 C2595 1.495 . S
C2599 H2605 0.959 . S
C2599 H2606 0.961 . S
C2599 H2607 0.960 . S
C2600 C2598 1.381 . S
C2600 C2601 1.394 . S
C2600 H2608 0.930 . S
C2601 C2600 1.394 . S
C2601 C2602 1.383 . S
C2601 H2609 0.929 . S
C2602 C2601 1.383 . S
C2602 C2603 1.377 . S
C2603 H2587 0.930 . S
C2603 C2602 1.377 . S
C2603 C2604 1.379 . S
C2604 H2588 0.931 . S
C2604 C2598 1.383 . S
C2604 C2603 1.379 . S
H2605 C2599 0.959 . S
H2606 C2599 0.961 . S
H2607 C2599 0.960 . S
H2608 C2600 0.930 . S
H2609 C2601 0.929 . S
H2610 C2618 0.929 . S
H2611 C2620 0.930 . S
H2612 C2622 0.930 . S
H2613 C2625 0.929 . S
H2614 C2628 0.930 . S
H2615 C2630 0.960 . S
H2616 C2630 0.960 . S
H2617 C2630 0.960 . S
C2618 H2610 0.929 . S
C2618 C2619 1.377 . S
C2618 C2620 1.384 . S
C2619 C2618 1.377 . S
C2619 C2625 1.390 . S
C2620 H2611 0.930 . S
C2620 C2618 1.384 . S
C2620 C2621 1.372 . S
C2621 C2620 1.372 . S
C2621 C2622 1.400 . S
C2621 C2626 1.490 . S
C2622 H2612 0.930 . S
C2622 C2621 1.400 . S
C2622 C2625 1.386 . S
H2623 C2639 0.930 . S
H2624 C2640 0.931 . S
C2625 H2613 0.929 . S
C2625 C2619 1.390 . S
C2625 C2622 1.386 . S
C2626 C2621 1.490 . S
C2626 C2628 1.395 . S
C2626 C2629 1.403 . S
H2627 C2633 0.930 . S
C2628 H2614 0.930 . S
C2628 C2626 1.395 . S
C2628 C2631 1.403 . S
C2629 C2626 1.403 . S
C2629 C2630 1.524 . S
C2629 C2633 1.400 . S
C2630 H2615 0.960 . S
C2630 H2616 0.960 . S
C2630 H2617 0.960 . S
C2630 C2629 1.524 . S
C2631 C2628 1.403 . S
C2631 C2632 1.392 . S
C2631 C2635 1.495 . S
C2632 C2631 1.392 . S
C2632 C2633 1.385 . S
C2632 C2634 1.478 . S
C2633 H2627 0.930 . S
C2633 C2629 1.400 . S
C2633 C2632 1.385 . S
C2634 C2632 1.478 . S
C2634 C2636 1.381 . S
C2634 C2640 1.383 . S
C2635 C2631 1.495 . S
C2635 H2641 0.959 . S
C2635 H2642 0.961 . S
C2635 H2643 0.960 . S
C2636 C2634 1.381 . S
C2636 C2637 1.394 . S
C2636 H2644 0.930 . S
C2637 C2636 1.394 . S
C2637 C2638 1.383 . S
C2637 H2645 0.929 . S
C2638 C2637 1.383 . S
C2638 C2639 1.377 . S
C2639 H2623 0.930 . S
C2639 C2638 1.377 . S
C2639 C2640 1.379 . S
C2640 H2624 0.931 . S
C2640 C2634 1.383 . S
C2640 C2639 1.379 . S
H2641 C2635 0.959 . S
H2642 C2635 0.961 . S
H2643 C2635 0.960 . S
H2644 C2636 0.930 . S
H2645 C2637 0.929 . S
H2646 C2654 0.929 . S
H2647 C2656 0.930 . S
H2648 C2658 0.930 . S
H2649 C2661 0.929 . S
H2650 C2664 0.930 . S
H2651 C2666 0.960 . S
H2652 C2666 0.960 . S
H2653 C2666 0.960 . S
C2654 H2646 0.929 . S
C2654 C2655 1.377 . S
C2654 C2656 1.384 . S
C2655 C2654 1.377 . S
C2655 C2661 1.390 . S
C2656 H2647 0.930 . S
C2656 C2654 1.384 . S
C2656 C2657 1.372 . S
C2657 C2656 1.372 . S
C2657 C2658 1.400 . S
C2657 C2662 1.490 . S
C2658 H2648 0.930 . S
C2658 C2657 1.400 . S
C2658 C2661 1.386 . S
H2659 C2675 0.930 . S
H2660 C2676 0.931 . S
C2661 H2649 0.929 . S
C2661 C2655 1.390 . S
C2661 C2658 1.386 . S
C2662 C2657 1.490 . S
C2662 C2664 1.395 . S
C2662 C2665 1.403 . S
H2663 C2669 0.930 . S
C2664 H2650 0.930 . S
C2664 C2662 1.395 . S
C2664 C2667 1.403 . S
C2665 C2662 1.403 . S
C2665 C2666 1.524 . S
C2665 C2669 1.400 . S
C2666 H2651 0.960 . S
C2666 H2652 0.960 . S
C2666 H2653 0.960 . S
C2666 C2665 1.524 . S
C2667 C2664 1.403 . S
C2667 C2668 1.392 . S
C2667 C2671 1.495 . S
C2668 C2667 1.392 . S
C2668 C2669 1.385 . S
C2668 C2670 1.478 . S
C2669 H2663 0.930 . S
C2669 C2665 1.400 . S
C2669 C2668 1.385 . S
C2670 C2668 1.478 . S
C2670 C2672 1.381 . S
C2670 C2676 1.383 . S
C2671 C2667 1.495 . S
C2671 H2677 0.959 . S
C2671 H2678 0.961 . S
C2671 H2679 0.960 . S
C2672 C2670 1.381 . S
C2672 C2673 1.394 . S
C2672 H2680 0.930 . S
C2673 C2672 1.394 . S
C2673 C2674 1.383 . S
C2673 H2681 0.929 . S
C2674 C2673 1.383 . S
C2674 C2675 1.377 . S
C2675 H2659 0.930 . S
C2675 C2674 1.377 . S
C2675 C2676 1.379 . S
C2676 H2660 0.931 . S
C2676 C2670 1.383 . S
C2676 C2675 1.379 . S
H2677 C2671 0.959 . S
H2678 C2671 0.961 . S
H2679 C2671 0.960 . S
H2680 C2672 0.930 . S
H2681 C2673 0.929 . S
H2682 C2690 0.929 . S
H2683 C2692 0.930 . S
H2684 C2694 0.930 . S
H2685 C2697 0.929 . S
H2686 C2700 0.930 . S
H2687 C2702 0.960 . S
H2688 C2702 0.960 . S
H2689 C2702 0.960 . S
C2690 H2682 0.929 . S
C2690 C2691 1.377 . S
C2690 C2692 1.384 . S
C2691 C2690 1.377 . S
C2691 C2697 1.390 . S
C2692 H2683 0.930 . S
C2692 C2690 1.384 . S
C2692 C2693 1.372 . S
C2693 C2692 1.372 . S
C2693 C2694 1.400 . S
C2693 C2698 1.490 . S
C2694 H2684 0.930 . S
C2694 C2693 1.400 . S
C2694 C2697 1.386 . S
H2695 C2711 0.930 . S
H2696 C2712 0.931 . S
C2697 H2685 0.929 . S
C2697 C2691 1.390 . S
C2697 C2694 1.386 . S
C2698 C2693 1.490 . S
C2698 C2700 1.395 . S
C2698 C2701 1.403 . S
H2699 C2705 0.930 . S
C2700 H2686 0.930 . S
C2700 C2698 1.395 . S
C2700 C2703 1.403 . S
C2701 C2698 1.403 . S
C2701 C2702 1.524 . S
C2701 C2705 1.400 . S
C2702 H2687 0.960 . S
C2702 H2688 0.960 . S
C2702 H2689 0.960 . S
C2702 C2701 1.524 . S
C2703 C2700 1.403 . S
C2703 C2704 1.392 . S
C2703 C2707 1.495 . S
C2704 C2703 1.392 . S
C2704 C2705 1.385 . S
C2704 C2706 1.478 . S
C2705 H2699 0.930 . S
C2705 C2701 1.400 . S
C2705 C2704 1.385 . S
C2706 C2704 1.478 . S
C2706 C2708 1.381 . S
C2706 C2712 1.383 . S
C2707 C2703 1.495 . S
C2707 H2713 0.959 . S
C2707 H2714 0.961 . S
C2707 H2715 0.960 . S
C2708 C2706 1.381 . S
C2708 C2709 1.394 . S
C2708 H2716 0.930 . S
C2709 C2708 1.394 . S
C2709 C2710 1.383 . S
C2709 H2717 0.929 . S
C2710 C2709 1.383 . S
C2710 C2711 1.377 . S
C2711 H2695 0.930 . S
C2711 C2710 1.377 . S
C2711 C2712 1.379 . S
C2712 H2696 0.931 . S
C2712 C2706 1.383 . S
C2712 C2711 1.379 . S
H2713 C2707 0.959 . S
H2714 C2707 0.961 . S
H2715 C2707 0.960 . S
H2716 C2708 0.930 . S
H2717 C2709 0.929 . S
H2718 C2726 0.929 . S
H2719 C2728 0.930 . S
H2720 C2730 0.930 . S
H2721 C2733 0.929 . S
H2722 C2736 0.930 . S
H2723 C2738 0.960 . S
H2724 C2738 0.960 . S
H2725 C2738 0.960 . S
C2726 H2718 0.929 . S
C2726 C2727 1.377 . S
C2726 C2728 1.384 . S
C2727 C2726 1.377 . S
C2727 C2733 1.390 . S
C2728 H2719 0.930 . S
C2728 C2726 1.384 . S
C2728 C2729 1.372 . S
C2729 C2728 1.372 . S
C2729 C2730 1.400 . S
C2729 C2734 1.490 . S
C2730 H2720 0.930 . S
C2730 C2729 1.400 . S
C2730 C2733 1.386 . S
H2731 C2747 0.930 . S
H2732 C2748 0.931 . S
C2733 H2721 0.929 . S
C2733 C2727 1.390 . S
C2733 C2730 1.386 . S
C2734 C2729 1.490 . S
C2734 C2736 1.395 . S
C2734 C2737 1.403 . S
H2735 C2741 0.930 . S
C2736 H2722 0.930 . S
C2736 C2734 1.395 . S
C2736 C2739 1.403 . S
C2737 C2734 1.403 . S
C2737 C2738 1.524 . S
C2737 C2741 1.400 . S
C2738 H2723 0.960 . S
C2738 H2724 0.960 . S
C2738 H2725 0.960 . S
C2738 C2737 1.524 . S
C2739 C2736 1.403 . S
C2739 C2740 1.392 . S
C2739 C2743 1.495 . S
C2740 C2739 1.392 . S
C2740 C2741 1.385 . S
C2740 C2742 1.478 . S
C2741 H2735 0.930 . S
C2741 C2737 1.400 . S
C2741 C2740 1.385 . S
C2742 C2740 1.478 . S
C2742 C2744 1.381 . S
C2742 C2748 1.383 . S
C2743 C2739 1.495 . S
C2743 H2749 0.959 . S
C2743 H2750 0.961 . S
C2743 H2751 0.960 . S
C2744 C2742 1.381 . S
C2744 C2745 1.394 . S
C2744 H2752 0.930 . S
C2745 C2744 1.394 . S
C2745 C2746 1.383 . S
C2745 H2753 0.929 . S
C2746 C2745 1.383 . S
C2746 C2747 1.377 . S
C2747 H2731 0.930 . S
C2747 C2746 1.377 . S
C2747 C2748 1.379 . S
C2748 H2732 0.931 . S
C2748 C2742 1.383 . S
C2748 C2747 1.379 . S
H2749 C2743 0.959 . S
H2750 C2743 0.961 . S
H2751 C2743 0.960 . S
H2752 C2744 0.930 . S
H2753 C2745 0.929 . S
H2754 C2762 0.929 . S
H2755 C2764 0.930 . S
H2756 C2766 0.930 . S
H2757 C2769 0.929 . S
H2758 C2772 0.930 . S
H2759 C2774 0.960 . S
H2760 C2774 0.960 . S
H2761 C2774 0.960 . S
C2762 H2754 0.929 . S
C2762 C2763 1.377 . S
C2762 C2764 1.384 . S
C2763 C2762 1.377 . S
C2763 C2769 1.390 . S
C2764 H2755 0.930 . S
C2764 C2762 1.384 . S
C2764 C2765 1.372 . S
C2765 C2764 1.372 . S
C2765 C2766 1.400 . S
C2765 C2770 1.490 . S
C2766 H2756 0.930 . S
C2766 C2765 1.400 . S
C2766 C2769 1.386 . S
H2767 C2783 0.930 . S
H2768 C2784 0.931 . S
C2769 H2757 0.929 . S
C2769 C2763 1.390 . S
C2769 C2766 1.386 . S
C2770 C2765 1.490 . S
C2770 C2772 1.395 . S
C2770 C2773 1.403 . S
H2771 C2777 0.930 . S
C2772 H2758 0.930 . S
C2772 C2770 1.395 . S
C2772 C2775 1.403 . S
C2773 C2770 1.403 . S
C2773 C2774 1.524 . S
C2773 C2777 1.400 . S
C2774 H2759 0.960 . S
C2774 H2760 0.960 . S
C2774 H2761 0.960 . S
C2774 C2773 1.524 . S
C2775 C2772 1.403 . S
C2775 C2776 1.392 . S
C2775 C2779 1.495 . S
C2776 C2775 1.392 . S
C2776 C2777 1.385 . S
C2776 C2778 1.478 . S
C2777 H2771 0.930 . S
C2777 C2773 1.400 . S
C2777 C2776 1.385 . S
C2778 C2776 1.478 . S
C2778 C2780 1.381 . S
C2778 C2784 1.383 . S
C2779 C2775 1.495 . S
C2779 H2785 0.959 . S
C2779 H2786 0.961 . S
C2779 H2787 0.960 . S
C2780 C2778 1.381 . S
C2780 C2781 1.394 . S
C2780 H2788 0.930 . S
C2781 C2780 1.394 . S
C2781 C2782 1.383 . S
C2781 H2789 0.929 . S
C2782 C2781 1.383 . S
C2782 C2783 1.377 . S
C2783 H2767 0.930 . S
C2783 C2782 1.377 . S
C2783 C2784 1.379 . S
C2784 H2768 0.931 . S
C2784 C2778 1.383 . S
C2784 C2783 1.379 . S
H2785 C2779 0.959 . S
H2786 C2779 0.961 . S
H2787 C2779 0.960 . S
H2788 C2780 0.930 . S
H2789 C2781 0.929 . S
H2790 C2798 0.929 . S
H2791 C2800 0.930 . S
H2792 C2802 0.930 . S
H2793 C2805 0.929 . S
H2794 C2808 0.930 . S
H2795 C2810 0.960 . S
H2796 C2810 0.960 . S
H2797 C2810 0.960 . S
C2798 H2790 0.929 . S
C2798 C2799 1.377 . S
C2798 C2800 1.384 . S
C2799 C2798 1.377 . S
C2799 C2805 1.390 . S
C2800 H2791 0.930 . S
C2800 C2798 1.384 . S
C2800 C2801 1.372 . S
C2801 C2800 1.372 . S
C2801 C2802 1.400 . S
C2801 C2806 1.490 . S
C2802 H2792 0.930 . S
C2802 C2801 1.400 . S
C2802 C2805 1.386 . S
H2803 C2819 0.930 . S
H2804 C2820 0.931 . S
C2805 H2793 0.929 . S
C2805 C2799 1.390 . S
C2805 C2802 1.386 . S
C2806 C2801 1.490 . S
C2806 C2808 1.395 . S
C2806 C2809 1.403 . S
H2807 C2813 0.930 . S
C2808 H2794 0.930 . S
C2808 C2806 1.395 . S
C2808 C2811 1.403 . S
C2809 C2806 1.403 . S
C2809 C2810 1.524 . S
C2809 C2813 1.400 . S
C2810 H2795 0.960 . S
C2810 H2796 0.960 . S
C2810 H2797 0.960 . S
C2810 C2809 1.524 . S
C2811 C2808 1.403 . S
C2811 C2812 1.392 . S
C2811 C2815 1.495 . S
C2812 C2811 1.392 . S
C2812 C2813 1.385 . S
C2812 C2814 1.478 . S
C2813 H2807 0.930 . S
C2813 C2809 1.400 . S
C2813 C2812 1.385 . S
C2814 C2812 1.478 . S
C2814 C2816 1.381 . S
C2814 C2820 1.383 . S
C2815 C2811 1.495 . S
C2815 H2821 0.959 . S
C2815 H2822 0.961 . S
C2815 H2823 0.960 . S
C2816 C2814 1.381 . S
C2816 C2817 1.394 . S
C2816 H2824 0.930 . S
C2817 C2816 1.394 . S
C2817 C2818 1.383 . S
C2817 H2825 0.929 . S
C2818 C2817 1.383 . S
C2818 C2819 1.377 . S
C2819 H2803 0.930 . S
C2819 C2818 1.377 . S
C2819 C2820 1.379 . S
C2820 H2804 0.931 . S
C2820 C2814 1.383 . S
C2820 C2819 1.379 . S
H2821 C2815 0.959 . S
H2822 C2815 0.961 . S
H2823 C2815 0.960 . S
H2824 C2816 0.930 . S
H2825 C2817 0.929 . S
H2826 C2834 0.929 . S
H2827 C2836 0.930 . S
H2828 C2838 0.930 . S
H2829 C2841 0.929 . S
H2830 C2844 0.930 . S
H2831 C2846 0.960 . S
H2832 C2846 0.960 . S
H2833 C2846 0.960 . S
C2834 H2826 0.929 . S
C2834 C2835 1.377 . S
C2834 C2836 1.384 . S
C2835 C2834 1.377 . S
C2835 C2841 1.390 . S
C2836 H2827 0.930 . S
C2836 C2834 1.384 . S
C2836 C2837 1.372 . S
C2837 C2836 1.372 . S
C2837 C2838 1.400 . S
C2837 C2842 1.490 . S
C2838 H2828 0.930 . S
C2838 C2837 1.400 . S
C2838 C2841 1.386 . S
H2839 C2855 0.930 . S
H2840 C2856 0.931 . S
C2841 H2829 0.929 . S
C2841 C2835 1.390 . S
C2841 C2838 1.386 . S
C2842 C2837 1.490 . S
C2842 C2844 1.395 . S
C2842 C2845 1.403 . S
H2843 C2849 0.930 . S
C2844 H2830 0.930 . S
C2844 C2842 1.395 . S
C2844 C2847 1.403 . S
C2845 C2842 1.403 . S
C2845 C2846 1.524 . S
C2845 C2849 1.400 . S
C2846 H2831 0.960 . S
C2846 H2832 0.960 . S
C2846 H2833 0.960 . S
C2846 C2845 1.524 . S
C2847 C2844 1.403 . S
C2847 C2848 1.392 . S
C2847 C2851 1.495 . S
C2848 C2847 1.392 . S
C2848 C2849 1.385 . S
C2848 C2850 1.478 . S
C2849 H2843 0.930 . S
C2849 C2845 1.400 . S
C2849 C2848 1.385 . S
C2850 C2848 1.478 . S
C2850 C2852 1.381 . S
C2850 C2856 1.383 . S
C2851 C2847 1.495 . S
C2851 H2857 0.959 . S
C2851 H2858 0.961 . S
C2851 H2859 0.960 . S
C2852 C2850 1.381 . S
C2852 C2853 1.394 . S
C2852 H2860 0.930 . S
C2853 C2852 1.394 . S
C2853 C2854 1.383 . S
C2853 H2861 0.929 . S
C2854 C2853 1.383 . S
C2854 C2855 1.377 . S
C2855 H2839 0.930 . S
C2855 C2854 1.377 . S
C2855 C2856 1.379 . S
C2856 H2840 0.931 . S
C2856 C2850 1.383 . S
C2856 C2855 1.379 . S
H2857 C2851 0.959 . S
H2858 C2851 0.961 . S
H2859 C2851 0.960 . S
H2860 C2852 0.930 . S
H2861 C2853 0.929 . S
H2862 C2870 0.929 . S
H2863 C2872 0.930 . S
H2864 C2874 0.930 . S
H2865 C2877 0.929 . S
H2866 C2880 0.930 . S
H2867 C2882 0.960 . S
H2868 C2882 0.960 . S
H2869 C2882 0.960 . S
C2870 H2862 0.929 . S
C2870 C2871 1.377 . S
C2870 C2872 1.384 . S
C2871 C2870 1.377 . S
C2871 C2877 1.390 . S
C2872 H2863 0.930 . S
C2872 C2870 1.384 . S
C2872 C2873 1.372 . S
C2873 C2872 1.372 . S
C2873 C2874 1.400 . S
C2873 C2878 1.490 . S
C2874 H2864 0.930 . S
C2874 C2873 1.400 . S
C2874 C2877 1.386 . S
H2875 C2891 0.930 . S
H2876 C2892 0.931 . S
C2877 H2865 0.929 . S
C2877 C2871 1.390 . S
C2877 C2874 1.386 . S
C2878 C2873 1.490 . S
C2878 C2880 1.395 . S
C2878 C2881 1.403 . S
H2879 C2885 0.930 . S
C2880 H2866 0.930 . S
C2880 C2878 1.395 . S
C2880 C2883 1.403 . S
C2881 C2878 1.403 . S
C2881 C2882 1.524 . S
C2881 C2885 1.400 . S
C2882 H2867 0.960 . S
C2882 H2868 0.960 . S
C2882 H2869 0.960 . S
C2882 C2881 1.524 . S
C2883 C2880 1.403 . S
C2883 C2884 1.392 . S
C2883 C2887 1.495 . S
C2884 C2883 1.392 . S
C2884 C2885 1.385 . S
C2884 C2886 1.478 . S
C2885 H2879 0.930 . S
C2885 C2881 1.400 . S
C2885 C2884 1.385 . S
C2886 C2884 1.478 . S
C2886 C2888 1.381 . S
C2886 C2892 1.383 . S
C2887 C2883 1.495 . S
C2887 H2893 0.959 . S
C2887 H2894 0.961 . S
C2887 H2895 0.960 . S
C2888 C2886 1.381 . S
C2888 C2889 1.394 . S
C2888 H2896 0.930 . S
C2889 C2888 1.394 . S
C2889 C2890 1.383 . S
C2889 H2897 0.929 . S
C2890 C2889 1.383 . S
C2890 C2891 1.377 . S
C2891 H2875 0.930 . S
C2891 C2890 1.377 . S
C2891 C2892 1.379 . S
C2892 H2876 0.931 . S
C2892 C2886 1.383 . S
C2892 C2891 1.379 . S
H2893 C2887 0.959 . S
H2894 C2887 0.961 . S
H2895 C2887 0.960 . S
H2896 C2888 0.930 . S
H2897 C2889 0.929 . S
H2898 C2906 0.929 . S
H2899 C2908 0.930 . S
H2900 C2910 0.930 . S
H2901 C2913 0.929 . S
H2902 C2916 0.930 . S
H2903 C2918 0.960 . S
H2904 C2918 0.960 . S
H2905 C2918 0.960 . S
C2906 H2898 0.929 . S
C2906 C2907 1.377 . S
C2906 C2908 1.384 . S
C2907 C2906 1.377 . S
C2907 C2913 1.390 . S
C2908 H2899 0.930 . S
C2908 C2906 1.384 . S
C2908 C2909 1.372 . S
C2909 C2908 1.372 . S
C2909 C2910 1.400 . S
C2909 C2914 1.490 . S
C2910 H2900 0.930 . S
C2910 C2909 1.400 . S
C2910 C2913 1.386 . S
H2911 C2927 0.930 . S
H2912 C2928 0.931 . S
C2913 H2901 0.929 . S
C2913 C2907 1.390 . S
C2913 C2910 1.386 . S
C2914 C2909 1.490 . S
C2914 C2916 1.395 . S
C2914 C2917 1.403 . S
H2915 C2921 0.930 . S
C2916 H2902 0.930 . S
C2916 C2914 1.395 . S
C2916 C2919 1.403 . S
C2917 C2914 1.403 . S
C2917 C2918 1.524 . S
C2917 C2921 1.400 . S
C2918 H2903 0.960 . S
C2918 H2904 0.960 . S
C2918 H2905 0.960 . S
C2918 C2917 1.524 . S
C2919 C2916 1.403 . S
C2919 C2920 1.392 . S
C2919 C2923 1.495 . S
C2920 C2919 1.392 . S
C2920 C2921 1.385 . S
C2920 C2922 1.478 . S
C2921 H2915 0.930 . S
C2921 C2917 1.400 . S
C2921 C2920 1.385 . S
C2922 C2920 1.478 . S
C2922 C2924 1.381 . S
C2922 C2928 1.383 . S
C2923 C2919 1.495 . S
C2923 H2929 0.959 . S
C2923 H2930 0.961 . S
C2923 H2931 0.960 . S
C2924 C2922 1.381 . S
C2924 C2925 1.394 . S
C2924 H2932 0.930 . S
C2925 C2924 1.394 . S
C2925 C2926 1.383 . S
C2925 H2933 0.929 . S
C2926 C2925 1.383 . S
C2926 C2927 1.377 . S
C2927 H2911 0.930 . S
C2927 C2926 1.377 . S
C2927 C2928 1.379 . S
C2928 H2912 0.931 . S
C2928 C2922 1.383 . S
C2928 C2927 1.379 . S
H2929 C2923 0.959 . S
H2930 C2923 0.961 . S
H2931 C2923 0.960 . S
H2932 C2924 0.930 . S
H2933 C2925 0.929 . S
H2934 C2942 0.929 . S
H2935 C2944 0.930 . S
H2936 C2946 0.930 . S
H2937 C2949 0.929 . S
H2938 C2952 0.930 . S
H2939 C2954 0.960 . S
H2940 C2954 0.960 . S
H2941 C2954 0.960 . S
C2942 H2934 0.929 . S
C2942 C2943 1.377 . S
C2942 C2944 1.384 . S
C2943 C2942 1.377 . S
C2943 C2949 1.390 . S
C2944 H2935 0.930 . S
C2944 C2942 1.384 . S
C2944 C2945 1.372 . S
C2945 C2944 1.372 . S
C2945 C2946 1.400 . S
C2945 C2950 1.490 . S
C2946 H2936 0.930 . S
C2946 C2945 1.400 . S
C2946 C2949 1.386 . S
H2947 C2963 0.930 . S
H2948 C2964 0.931 . S
C2949 H2937 0.929 . S
C2949 C2943 1.390 . S
C2949 C2946 1.386 . S
C2950 C2945 1.490 . S
C2950 C2952 1.395 . S
C2950 C2953 1.403 . S
H2951 C2957 0.930 . S
C2952 H2938 0.930 . S
C2952 C2950 1.395 . S
C2952 C2955 1.403 . S
C2953 C2950 1.403 . S
C2953 C2954 1.524 . S
C2953 C2957 1.400 . S
C2954 H2939 0.960 . S
C2954 H2940 0.960 . S
C2954 H2941 0.960 . S
C2954 C2953 1.524 . S
C2955 C2952 1.403 . S
C2955 C2956 1.392 . S
C2955 C2959 1.495 . S
C2956 C2955 1.392 . S
C2956 C2957 1.385 . S
C2956 C2958 1.478 . S
C2957 H2951 0.930 . S
C2957 C2953 1.400 . S
C2957 C2956 1.385 . S
C2958 C2956 1.478 . S
C2958 C2960 1.381 . S
C2958 C2964 1.383 . S
C2959 C2955 1.495 . S
C2959 H2965 0.959 . S
C2959 H2966 0.961 . S
C2959 H2967 0.960 . S
C2960 C2958 1.381 . S
C2960 C2961 1.394 . S
C2960 H2968 0.930 . S
C2961 C2960 1.394 . S
C2961 C2962 1.383 . S
C2961 H2969 0.929 . S
C2962 C2961 1.383 . S
C2962 C2963 1.377 . S
C2963 H2947 0.930 . S
C2963 C2962 1.377 . S
C2963 C2964 1.379 . S
C2964 H2948 0.931 . S
C2964 C2958 1.383 . S
C2964 C2963 1.379 . S
H2965 C2959 0.959 . S
H2966 C2959 0.961 . S
H2967 C2959 0.960 . S
H2968 C2960 0.930 . S
H2969 C2961 0.929 . S
H2970 C2978 0.929 . S
H2971 C2980 0.930 . S
H2972 C2982 0.930 . S
H2973 C2985 0.929 . S
H2974 C2988 0.930 . S
H2975 C2990 0.960 . S
H2976 C2990 0.960 . S
H2977 C2990 0.960 . S
C2978 H2970 0.929 . S
C2978 C2979 1.377 . S
C2978 C2980 1.384 . S
C2979 C2978 1.377 . S
C2979 C2985 1.390 . S
C2980 H2971 0.930 . S
C2980 C2978 1.384 . S
C2980 C2981 1.372 . S
C2981 C2980 1.372 . S
C2981 C2982 1.400 . S
C2981 C2986 1.490 . S
C2982 H2972 0.930 . S
C2982 C2981 1.400 . S
C2982 C2985 1.386 . S
H2983 C2999 0.930 . S
H2984 C3000 0.931 . S
C2985 H2973 0.929 . S
C2985 C2979 1.390 . S
C2985 C2982 1.386 . S
C2986 C2981 1.490 . S
C2986 C2988 1.395 . S
C2986 C2989 1.403 . S
H2987 C2993 0.930 . S
C2988 H2974 0.930 . S
C2988 C2986 1.395 . S
C2988 C2991 1.403 . S
C2989 C2986 1.403 . S
C2989 C2990 1.524 . S
C2989 C2993 1.400 . S
C2990 H2975 0.960 . S
C2990 H2976 0.960 . S
C2990 H2977 0.960 . S
C2990 C2989 1.524 . S
C2991 C2988 1.403 . S
C2991 C2992 1.392 . S
C2991 C2995 1.495 . S
C2992 C2991 1.392 . S
C2992 C2993 1.385 . S
C2992 C2994 1.478 . S
C2993 H2987 0.930 . S
C2993 C2989 1.400 . S
C2993 C2992 1.385 . S
C2994 C2992 1.478 . S
C2994 C2996 1.381 . S
C2994 C3000 1.383 . S
C2995 C2991 1.495 . S
C2995 H3001 0.959 . S
C2995 H3002 0.961 . S
C2995 H3003 0.960 . S
C2996 C2994 1.381 . S
C2996 C2997 1.394 . S
C2996 H3004 0.930 . S
C2997 C2996 1.394 . S
C2997 C2998 1.383 . S
C2997 H3005 0.929 . S
C2998 C2997 1.383 . S
C2998 C2999 1.377 . S
C2999 H2983 0.930 . S
C2999 C2998 1.377 . S
C2999 C3000 1.379 . S
C3000 H2984 0.931 . S
C3000 C2994 1.383 . S
C3000 C2999 1.379 . S
H3001 C2995 0.959 . S
H3002 C2995 0.961 . S
H3003 C2995 0.960 . S
H3004 C2996 0.930 . S
H3005 C2997 0.929 . S
C1071 C528 1.629 . S
C1090 C711 1.593 . S
C1107 C562 1.831 . S
C1126 C751 1.793 . S
C1143 C484 1.721 . S
C1162 C790 1.728 . S
C1179 C445 1.534 . S
C1198 C750 1.504 . S
C1234 C791 1.424 . S
C1215 C367 1.456 . S
C1251 C411 1.334 . S
C1270 C710 1.331 1_556 S
C1306 C721 1.630 . S
C1287 C450 1.634 . S
C1342 C761 1.776 . S
C1323 C372 1.804 . S
C1359 C406 1.718 . S
C1378 C800 1.692 . S
C1395 C523 1.534 . S
C1414 C760 1.532 . S
C1431 C567 1.432 . S
C1450 C801 1.415 . S
C1486 C720 1.337 . S
C1467 C489 1.341 . S
C1522 C831 1.596 . S
C1503 C60 1.625 . S
C1539 C94 1.833 . S
C1558 C871 1.821 . S
C1575 C16 1.714 . S
C1594 C910 1.695 . S
C1611 C679 1.535 . S
C1630 C870 1.502 . S
C1647 C601 1.456 . S
C1666 C911 1.453 . S
C1683 C645 1.333 . S
C1702 C830 1.338 . S
C1719 C684 1.634 . S
C1738 C841 1.603 . S
C1755 C606 1.804 . S
C1774 C881 1.782 . S
C1810 C920 1.725 . S
C1791 C640 1.715 . S
C1827 C55 1.537 . S
C1846 C880 1.514 . S
C1882 C921 1.413 . S
C1863 C99 1.431 . S
C1899 C21 1.336 . S
C1918 C840 1.358 . S
C1954 C951 1.583 . S
C1935 C294 1.627 . S
C1971 C328 1.834 . S
C1990 C991 1.799 . S
C2026 C1030 1.692 . S
C2007 C250 1.714 . S
C2062 C990 1.534 . S
C2043 C211 1.540 . S
C2098 C1031 1.444 . S
C2079 C133 1.454 . S
C2115 C177 1.327 . S
C2134 C950 1.321 . S
C2151 C216 1.639 . S
C2170 C961 1.618 . S
C2187 C138 1.804 . S
C2206 C1001 1.778 . S
C2242 C1040 1.727 . S
C2223 C172 1.710 . S
C2259 C289 1.535 . S
C2278 C1000 1.527 . S
C2295 C333 1.426 . S
C2314 C1041 1.424 . S
C2331 C255 1.342 . S
C2350 C960 1.365 . S
C2367 C586 1.274 . S
C2386 C707 1.279 . S
C2422 C747 1.897 . S
C2403 C625 1.883 . S
C2439 C664 1.570 . S
C2458 C797 1.580 . S
C2475 C235 1.892 . S
C2494 C757 1.911 . S
C2511 C274 1.559 . S
C2530 C787 1.563 . S
C2566 C717 1.269 . S
C2547 C313 1.274 . S
C2583 C118 1.275 . S
C2602 C827 1.279 . S
C2619 C157 1.884 . S
C2638 C867 1.888 . S
C2655 C196 1.570 . S
C2674 C917 1.580 . S
C2691 C469 1.892 . S
C2710 C877 1.906 . S
C2746 C907 1.563 . S
C2727 C508 1.557 . S
C2763 C547 1.272 . S
C2782 C837 1.275 . S
C2799 C352 1.276 . S
C2818 C947 1.278 . S
C2835 C391 1.880 . S
C2854 C987 1.893 . S
C2890 C1037 1.581 . S
C2871 C430 1.573 . S
C2907 C1 1.892 . S
C2926 C997 1.910 . S
C2943 C40 1.556 . S
C2962 C1027 1.564 . S
C2979 C79 1.273 . S
C2998 C957 1.277 . S
