# Generated by pormake.
# Topology rtl, (3,6)-cn, num edge types: 1
# Building blocks:
#     Node 0, Type 0, BuildingBlock: BETDAH_clean_linker_0, # of connection points: 3
#     Node 1, Type 0, BuildingBlock: BETDAH_clean_linker_0, # of connection points: 3
#     Node 2, Type 0, BuildingBlock: BETDAH_clean_linker_0, # of connection points: 3
#     Node 3, Type 0, BuildingBlock: BETDAH_clean_linker_0, # of connection points: 3
#     Node 4, Type 1, BuildingBlock: CIFDUS_clean_sbu_1, # of connection points: 6
#     Node 5, Type 1, BuildingBlock: CIFDUS_clean_sbu_1, # of connection points: 6
#     Edge 6, Type (0, 1), BuildingBlock: XIVTED_clean_linker_0, # of connection points: 2
#     Edge 7, Type (0, 1), BuildingBlock: XIVTED_clean_linker_0, # of connection points: 2
#     Edge 8, Type (0, 1), BuildingBlock: XIVTED_clean_linker_0, # of connection points: 2
#     Edge 9, Type (0, 1), BuildingBlock: XIVTED_clean_linker_0, # of connection points: 2
#     Edge 10, Type (0, 1), BuildingBlock: XIVTED_clean_linker_0, # of connection points: 2
#     Edge 11, Type (0, 1), BuildingBlock: XIVTED_clean_linker_0, # of connection points: 2
#     Edge 12, Type (0, 1), BuildingBlock: XIVTED_clean_linker_0, # of connection points: 2
#     Edge 13, Type (0, 1), BuildingBlock: XIVTED_clean_linker_0, # of connection points: 2
#     Edge 14, Type (0, 1), BuildingBlock: XIVTED_clean_linker_0, # of connection points: 2
#     Edge 15, Type (0, 1), BuildingBlock: XIVTED_clean_linker_0, # of connection points: 2
#     Edge 16, Type (0, 1), BuildingBlock: XIVTED_clean_linker_0, # of connection points: 2
#     Edge 17, Type (0, 1), BuildingBlock: XIVTED_clean_linker_0, # of connection points: 2
# Relax obj value: 0.016
# Max RMSD: 0.113
# Mean RMSD: 0.085
data_MOF--net-rtl--node1-CIFDUS_clean_sbu_1--node2-BETDAH_clean_linker_0--edge1-XIVTED_clean_linker_0
_symmetry_space_group_name_H-M    P1
_symmetry_Int_Tables_number       1
_symmetry_cell_setting            triclinic
loop_
_symmetry_equiv_pos_as_xyz
'x, y, z'
_cell_length_a     34.507996
_cell_length_b     34.487097
_cell_length_c     22.35185
_cell_angle_alpha  91.2697
_cell_angle_beta   102.5584
_cell_angle_gamma 89.992279
loop_
_atom_site_label
_atom_site_type_symbol
_atom_site_fract_x
_atom_site_fract_y
_atom_site_fract_z
_atom_type_partial_charge
H0 H 0.12935 0.88586 0.10576 0.0
H1 H 0.20514 0.82341 0.2493 0.0
H2 H 0.21346 0.80342 0.06175 0.0
C3 C 0.15215 0.86432 0.12012 0.0
C4 C 0.16916 0.8452 0.07582 0.0
C5 C 0.16499 0.857 0.18285 0.0
C6 C 0.19538 0.82999 0.20118 0.0
C7 C 0.21301 0.81051 0.15823 0.0
C8 C 0.20013 0.81841 0.09528 0.0
N9 N 0.24282 0.7828 0.18115 0.0
C10 C 0.26653 0.76234 0.14841 0.0
H11 H 0.68075 0.63547 0.57391 0.0
H12 H 0.74229 0.71082 0.47518 0.0
H13 H 0.76575 0.71882 0.67212 0.0
C14 C 0.70257 0.65806 0.57387 0.0
C15 C 0.72285 0.67488 0.63001 0.0
C16 C 0.70902 0.67085 0.51761 0.0
C17 C 0.73631 0.70103 0.51805 0.0
C18 C 0.75686 0.71848 0.57313 0.0
C19 C 0.74989 0.70561 0.62939 0.0
N20 N 0.78464 0.74817 0.56864 0.0
C21 C 0.80678 0.77156 0.61541 0.0
H22 H 0.92089 0.19958 0.07349 0.0
H23 H 0.87817 0.30088 0.15423 0.0
H24 H 0.86585 0.29229 0.95914 0.0
C25 C 0.90605 0.2274 0.06859 0.0
C26 C 0.89395 0.24318 0.00985 0.0
C27 C 0.90022 0.24773 0.12118 0.0
C28 C 0.88182 0.2842 0.11416 0.0
C29 C 0.86863 0.3 0.05606 0.0
C30 C 0.8747 0.27946 1.00383 0.0
N31 N 0.85351 0.33838 0.05278 0.0
C32 C 0.82008 0.35097 0.01099 0.0
H33 H 0.35462 0.4383 0.42374 0.0
H34 H 0.28254 0.35643 0.49471 0.0
H35 H 0.27407 0.36271 0.3004 0.0
C36 C 0.33225 0.4156 0.41577 0.0
C37 C 0.31636 0.40231 0.35559 0.0
C38 C 0.32023 0.39947 0.46629 0.0
C39 C 0.29222 0.36881 0.45627 0.0
C40 C 0.27554 0.35569 0.39585 0.0
C41 C 0.28764 0.3727 0.34651 0.0
N42 N 0.24556 0.32656 0.38116 0.0
C43 C 0.23209 0.30203 0.42099 0.0
O44 O 1.00746 0.08845 0.5366 0.0
Mn45 Mn 0.02913 0.04534 0.60161 0.0
O46 O 0.94606 0.07093 0.48882 0.0
Mn47 Mn 0.95639 1.01956 0.50564 0.0
O48 O 0.05208 1.0024 0.66638 0.0
O49 O 0.0812 0.07547 0.61912 0.0
Mn50 Mn 0.09938 0.07672 0.6994 0.0
O51 O 1.00849 0.07823 0.66876 0.0
O52 O 0.10913 0.02629 0.72358 0.0
O53 O 0.04848 1.01262 0.53318 0.0
O54 O 0.99219 0.99591 0.46545 0.0
O55 O 0.13618 0.10341 0.66853 0.0
O56 O 0.06231 0.10402 0.73241 0.0
C57 C 0.94617 0.99369 0.58581 0.0
C58 C 0.97407 0.0956 0.49995 0.0
C59 C 0.08437 0.99869 0.7076 0.0
C60 C 0.11208 0.09639 0.61638 0.0
C61 C 0.02478 0.1003 0.71456 0.0
C62 C 0.03 0.99566 0.48302 0.0
O63 O 0.97695 1.01526 0.58471 0.0
O64 O 0.92064 0.99014 0.53414 0.0
O65 O 0.5497 0.55714 0.07488 0.0
Mn66 Mn 0.51741 0.53863 0.98804 0.0
O67 O 0.5635 0.50203 0.1275 0.0
Mn68 Mn 0.54047 0.4673 0.06504 0.0
O69 O 0.48457 0.51895 0.90164 0.0
O70 O 0.48759 0.58978 0.97964 0.0
Mn71 Mn 0.48951 0.60806 0.90717 0.0
O72 O 0.56313 0.56047 0.94778 0.0
O73 O 0.46313 0.57245 0.84907 0.0
O74 O 0.47151 0.51787 0.02874 0.0
O75 O 0.48736 0.45731 0.05732 0.0
O76 O 0.46112 0.64393 0.94096 0.0
O77 O 0.54194 0.61763 0.90719 0.0
C78 C 0.5698 0.45747 0.99238 0.0
C79 C 0.56515 0.53894 0.12412 0.0
C80 C 0.46459 0.53564 0.85363 0.0
C81 C 0.46656 0.62025 0.9861 0.0
C82 C 0.56899 0.59249 0.92223 0.0
C83 C 0.46272 0.48492 0.04835 0.0
O84 O 0.54757 0.48752 0.99637 0.0
O85 O 0.5714 0.43231 0.03499 0.0
H86 H 0.15909 0.30408 0.44704 0.0
H87 H 0.17262 0.08478 0.55967 0.0
H88 H 0.26028 0.23038 0.45094 0.0
H89 H 0.07055 0.15678 0.55789 0.0
H90 H 0.20067 0.13467 0.50543 0.0
H91 H 0.12341 0.24927 0.47918 0.0
C92 C 0.17395 0.27643 0.45575 0.0
C93 C 0.21286 0.27172 0.44788 0.0
C94 C 0.17163 0.1393 0.51527 0.0
C95 C 0.17205 0.20871 0.48254 0.0
C96 C 0.15525 0.11042 0.54513 0.0
C97 C 0.11891 0.11639 0.56215 0.0
C98 C 0.1519 0.17489 0.50348 0.0
C99 C 0.09825 0.15073 0.54429 0.0
C100 C 0.15347 0.24507 0.47331 0.0
C101 C 0.23054 0.23524 0.45788 0.0
N102 N 0.11534 0.17903 0.51686 0.0
N103 N 0.21006 0.20515 0.47481 0.0
H104 H 0.25597 0.69117 0.09262 0.0
H105 H 0.48485 0.67474 0.0762 0.0
H106 H 0.34426 0.77869 0.16193 0.0
H107 H 0.39815 0.58696 1.00152 0.0
H108 H 0.43587 0.70746 0.1235 0.0
H109 H 0.3083 0.64887 0.06859 0.0
C110 C 0.28637 0.70156 0.10198 0.0
C111 C 0.29596 0.73859 0.12797 0.0
C112 C 0.42769 0.68046 0.09827 0.0
C113 C 0.35597 0.69027 0.10254 0.0
C114 C 0.45598 0.66133 0.07239 0.0
C115 C 0.4457 0.62779 0.03588 0.0
C116 C 0.38847 0.66636 0.08645 0.0
C117 C 0.40744 0.61237 0.03044 0.0
C118 C 0.31626 0.67733 0.08895 0.0
C119 C 0.33573 0.75052 0.14077 0.0
N120 N 0.37993 0.63216 0.0544 0.0
N121 N 0.36425 0.72651 0.1278 0.0
H122 H 0.78606 0.83937 0.6631 0.0
H123 H 0.99042 0.93139 0.63151 0.0
H124 H 0.88675 0.77305 0.63593 0.0
H125 H 0.88691 0.99699 0.64718 0.0
H126 H 0.96104 0.87401 0.66742 0.0
H127 H 0.8291 0.89662 0.6895 0.0
C128 C 0.81757 0.83661 0.66485 0.0
C129 C 0.83306 0.80162 0.6477 0.0
C130 C 0.94533 0.9013 0.66531 0.0
C131 C 0.88231 0.86712 0.67565 0.0
C132 C 0.96253 0.9343 0.64597 0.0
C133 C 0.94102 0.96895 0.6364 0.0
C134 C 0.90627 0.9031 0.6746 0.0
C135 C 0.90451 0.97081 0.65423 0.0
C136 C 0.84214 0.86934 0.67946 0.0
C137 C 0.87385 0.7996 0.64939 0.0
N138 N 0.88785 0.93819 0.671 0.0
N139 N 0.89696 0.83205 0.66203 0.0
H140 H 0.80875 0.42788 0.99936 0.0
H141 H 0.57497 0.39767 0.91478 0.0
H142 H 0.7498 0.31767 0.9547 0.0
H143 H 0.63198 0.50499 0.98661 0.0
H144 H 0.63798 0.37394 0.89583 0.0
H145 H 0.74489 0.4608 0.96564 0.0
C146 C 0.78239 0.41072 0.98084 0.0
C147 C 0.78427 0.37014 0.9796 0.0
C148 C 0.63659 0.40321 0.91378 0.0
C149 C 0.71114 0.40738 0.94187 0.0
C150 C 0.60037 0.41708 0.92346 0.0
C151 C 0.59826 0.45335 0.95223 0.0
C152 C 0.67115 0.42559 0.93389 0.0
C153 C 0.63226 0.47698 0.96384 0.0
C154 C 0.74596 0.42948 0.96183 0.0
C155 C 0.74944 0.34907 0.95607 0.0
N156 N 0.66762 0.46231 0.95619 0.0
N157 N 0.7142 0.36792 0.93875 0.0
H158 H 0.08602 0.87078 0.17453 0.0
H159 H 0.11156 0.98707 0.49616 0.0
H160 H 0.20045 0.88879 0.29603 0.0
H161 H 0.99942 0.95663 0.37574 0.0
H162 H 0.14588 0.95297 0.42475 0.0
H163 H 0.05487 0.90433 0.24854 0.0
C164 C 0.10467 0.88201 0.21671 0.0
C165 C 0.14596 0.87707 0.22878 0.0
C166 C 0.11376 0.95381 0.41433 0.0
C167 C 0.11028 0.9155 0.31477 0.0
C168 C 0.09415 0.97325 0.45505 0.0
C169 C 0.05244 0.9749 0.44223 0.0
C170 C 0.09146 0.93605 0.36043 0.0
C171 C 0.03153 0.95642 0.38803 0.0
C172 C 0.08682 0.90102 0.25931 0.0
C173 C 0.16846 0.89168 0.28498 0.0
N174 N 0.05119 0.93799 0.34947 0.0
N175 N 0.15037 0.91036 0.32583 0.0
H176 H 0.71593 0.59949 0.66303 0.0
H177 H 0.60866 0.66083 0.93132 0.0
H178 H 0.70902 0.71716 0.72913 0.0
H179 H 0.61282 0.54296 0.86509 0.0
H180 H 0.65742 0.67947 0.87279 0.0
H181 H 0.68975 0.57646 0.74917 0.0
C182 C 0.70935 0.6205 0.69614 0.0
C183 C 0.71405 0.66044 0.68814 0.0
C184 C 0.64845 0.64934 0.87188 0.0
C185 C 0.684 0.63412 0.78725 0.0
C186 C 0.6208 0.63861 0.90574 0.0
C187 C 0.60656 0.60032 0.90284 0.0
C188 C 0.66158 0.62174 0.83374 0.0
C189 C 0.62317 0.57274 0.86886 0.0
C190 C 0.69449 0.60727 0.74546 0.0
C191 C 0.70581 0.68617 0.73324 0.0
N192 N 0.64923 0.58414 0.8346 0.0
N193 N 0.69065 0.67262 0.78025 0.0
H194 H 0.86078 0.24708 0.21522 0.0
H195 H 0.02851 0.12758 0.44234 0.0
H196 H 0.97082 0.2113 0.16957 0.0
H197 H 0.9076 0.1387 0.46257 0.0
H198 H 1.01338 0.17069 0.35424 0.0
H199 H 0.88265 0.21878 0.31627 0.0
C200 C 0.8897 0.23355 0.2266 0.0
C201 C 0.91382 0.23134 0.18349 0.0
C202 C 0.99041 0.16433 0.37882 0.0
C203 C 0.93916 0.19881 0.29956 0.0
C204 C 0.99922 0.14024 0.4297 0.0
C205 C 0.96928 0.12969 0.45991 0.0
C206 C 0.95148 0.17809 0.35845 0.0
C207 C 0.93153 0.14614 0.44055 0.0
C208 C 0.90214 0.21729 0.28431 0.0
C209 C 0.95094 0.21314 0.20088 0.0
N210 N 0.92364 0.16921 0.39089 0.0
N211 N 0.96242 0.19753 0.25744 0.0
H212 H 0.3182 0.47503 0.50075 0.0
H213 H 0.46216 0.4555 0.83324 0.0
H214 H 0.35924 0.3638 0.57228 0.0
H215 H 0.4136 0.56247 0.75252 0.0
H216 H 0.42376 0.4198 0.74265 0.0
H217 H 0.35095 0.50594 0.59735 0.0
C218 C 0.33394 0.45707 0.53727 0.0
C219 C 0.33614 0.41685 0.52838 0.0
C220 C 0.42155 0.45108 0.74521 0.0
C221 C 0.37462 0.45222 0.63988 0.0
C222 C 0.44349 0.47149 0.79685 0.0
C223 C 0.44152 0.51222 0.80072 0.0
C224 C 0.39744 0.47158 0.69732 0.0
C225 C 0.41663 0.53124 0.752 0.0
C226 C 0.35279 0.47472 0.59257 0.0
C227 C 0.35675 0.39492 0.57745 0.0
N228 N 0.39587 0.51087 0.70282 0.0
N229 N 0.37559 0.41293 0.63103 0.0
H230 H 0.69378 0.59358 0.49269 0.0
H231 H 0.577 0.61839 0.14325 0.0
H232 H 0.67595 0.70525 0.40787 0.0
H233 H 0.60122 0.50898 0.23416 0.0
H234 H 0.612 0.65176 0.2382 0.0
H235 H 0.65857 0.56305 0.39709 0.0
C236 C 0.68222 0.61177 0.45404 0.0
C237 C 0.68776 0.65213 0.45869 0.0
C238 C 0.60957 0.62044 0.23705 0.0
C239 C 0.64746 0.61709 0.34789 0.0
C240 C 0.5896 0.60137 0.18287 0.0
C241 C 0.58603 0.56071 0.1803 0.0
C242 C 0.62601 0.59869 0.28895 0.0
C243 C 0.603 0.54029 0.23336 0.0
C244 C 0.66226 0.59426 0.39912 0.0
C245 C 0.6727 0.67401 0.40633 0.0
N246 N 0.62207 0.55942 0.28505 0.0
N247 N 0.65317 0.65625 0.35318 0.0
H248 H 0.88299 0.16651 0.9737 0.0
H249 H 0.03977 0.17253 0.76487 0.0
H250 H 0.93106 0.27386 0.92534 0.0
H251 H 0.95335 0.08007 0.74228 0.0
H252 H 1.00219 0.20865 0.82824 0.0
H253 H 0.90952 0.13261 0.89344 0.0
C254 C 0.89869 0.183 0.94565 0.0
C255 C 0.90488 0.22308 0.95624 0.0
C256 C 0.99115 0.18064 0.80901 0.0
C257 C 0.93584 0.18441 0.8653 0.0
C258 C 1.01269 0.15991 0.77304 0.0
C259 C 0.99974 0.12317 0.74846 0.0
C260 C 0.95678 0.16424 0.82202 0.0
C261 C 0.96428 0.10836 0.76023 0.0
C262 C 0.91369 0.16367 0.89982 0.0
C263 C 0.92536 0.24304 0.9185 0.0
N264 N 0.94432 0.12869 0.79706 0.0
N265 N 0.94061 0.22343 0.87544 0.0
H266 H 0.33567 0.47825 0.33639 0.0
H267 H 0.41538 0.42133 0.03648 0.0
H268 H 0.32871 0.36371 0.25265 0.0
H269 H 0.43085 0.53541 0.12098 0.0
H270 H 0.37171 0.40418 0.10419 0.0
H271 H 0.36141 0.50299 0.25056 0.0
C272 C 0.33946 0.45826 0.30007 0.0
C273 C 0.33014 0.41866 0.30229 0.0
C274 C 0.38391 0.43327 0.10735 0.0
C275 C 0.35897 0.44708 0.20317 0.0
C276 C 0.40848 0.4432 0.0681 0.0
C277 C 0.42677 0.47979 0.07322 0.0
C278 C 0.37807 0.45985 0.15309 0.0
C279 C 0.41709 0.50696 0.1153 0.0
C280 C 0.35383 0.47254 0.25076 0.0
C281 C 0.33496 0.39446 0.25302 0.0
N282 N 0.39401 0.49619 0.15459 0.0
N283 N 0.34919 0.40899 0.20596 0.0
H284 H 0.09216 0.8523 0.01205 0.0
H285 H 0.15579 0.96365 0.74055 0.0
H286 H 0.21283 0.8609 0.98968 0.0
H287 H 0.03425 0.95337 0.7576 0.0
H288 H 0.17526 0.91602 0.82047 0.0
H289 H 0.06897 0.87946 0.91042 0.0
C290 C 0.11379 0.85947 0.98538 0.0
C291 C 0.15463 0.85487 0.00996 0.0
C292 C 0.14418 0.92346 0.80614 0.0
C293 C 0.12814 0.88613 0.89316 0.0
C294 C 0.133 0.95052 0.76015 0.0
C295 C 0.09336 0.96259 0.74259 0.0
C296 C 0.11568 0.90871 0.83593 0.0
C297 C 0.06508 0.94471 0.76954 0.0
C298 C 0.10048 0.87491 0.92722 0.0
C299 C 0.18115 0.86398 0.97279 0.0
N300 N 0.0769 0.9192 0.81576 0.0
N301 N 0.1675 0.87969 0.91674 0.0
loop_
_geom_bond_atom_site_label_1
_geom_bond_atom_site_label_2
_geom_bond_distance
_geom_bond_site_symmetry_2
_ccdc_geom_bond_type
H0 C3 0.929 . S
H1 C6 0.929 . S
H2 C8 0.930 1_556 S
C3 H0 0.929 . S
C3 C4 1.398 . S
C3 C5 1.396 . S
C4 C3 1.398 . S
C4 C8 1.407 . S
C5 C3 1.396 . S
C5 C6 1.394 . S
C6 H1 0.929 . S
C6 C5 1.394 . S
C6 C7 1.382 . S
C7 C6 1.382 . S
C7 C8 1.392 . S
C7 N9 1.420 . S
C8 H2 0.930 1_554 S
C8 C4 1.407 . S
C8 C7 1.392 . S
N9 C7 1.420 . S
N9 C10 1.244 . S
C10 N9 1.244 . S
H11 C14 0.929 . S
H12 C17 0.929 . S
H13 C19 0.930 . S
C14 H11 0.929 . S
C14 C15 1.398 . S
C14 C16 1.396 . S
C15 C14 1.398 . S
C15 C19 1.407 . S
C16 C14 1.396 . S
C16 C17 1.394 . S
C17 H12 0.929 . S
C17 C16 1.394 . S
C17 C18 1.382 . S
C18 C17 1.382 . S
C18 C19 1.392 . S
C18 N20 1.420 . S
C19 H13 0.930 . S
C19 C15 1.407 . S
C19 C18 1.392 . S
N20 C18 1.420 . S
N20 C21 1.244 . S
C21 N20 1.244 . S
H22 C25 0.929 . S
H23 C28 0.929 . S
H24 C30 0.930 . S
C25 H22 0.929 . S
C25 C26 1.398 1_554 S
C25 C27 1.396 . S
C26 C25 1.398 1_556 S
C26 C30 1.407 . S
C27 C25 1.396 . S
C27 C28 1.394 . S
C28 H23 0.929 . S
C28 C27 1.394 . S
C28 C29 1.382 1_554 S
C29 C28 1.382 1_556 S
C29 C30 1.392 . S
C29 N31 1.420 . S
C30 H24 0.930 . S
C30 C26 1.407 . S
C30 C29 1.392 . S
N31 C29 1.420 . S
N31 C32 1.244 1_556 S
C32 N31 1.244 1_554 S
H33 C36 0.929 . S
H34 C39 0.929 . S
H35 C41 0.930 . S
C36 H33 0.929 . S
C36 C37 1.398 . S
C36 C38 1.396 . S
C37 C36 1.398 . S
C37 C41 1.407 . S
C38 C36 1.396 . S
C38 C39 1.394 . S
C39 H34 0.929 . S
C39 C38 1.394 . S
C39 C40 1.382 . S
C40 C39 1.382 . S
C40 C41 1.392 . S
C40 N42 1.420 . S
C41 H35 0.930 . S
C41 C37 1.407 . S
C41 C40 1.392 . S
N42 C40 1.420 . S
N42 C43 1.244 . S
C43 N42 1.244 . S
O44 Mn45 2.163 1_655 S
O44 C58 1.244 . S
Mn45 O44 2.163 1_455 S
Mn45 O48 2.160 1_545 S
Mn45 O49 2.221 . S
Mn45 O51 2.163 1_455 S
Mn45 O53 2.160 1_545 S
Mn45 O63 2.221 1_445 S
O46 Mn47 2.087 1_545 S
O46 C58 1.256 . S
Mn47 O46 2.087 1_565 S
Mn47 O54 2.089 1_655 S
Mn47 O63 2.290 . S
Mn47 O64 2.251 . S
O48 Mn45 2.160 1_565 S
O48 C59 1.239 . S
O49 Mn45 2.221 . S
O49 Mn50 2.290 . S
O49 C60 1.278 . S
Mn50 O49 2.290 . S
Mn50 O52 2.089 . S
Mn50 O55 2.251 . S
Mn50 O56 2.087 . S
O51 Mn45 2.163 1_655 S
O51 C61 1.244 . S
O52 Mn50 2.089 . S
O52 C59 1.256 1_545 S
O53 Mn45 2.160 1_565 S
O53 C62 1.239 . S
O54 Mn47 2.089 1_455 S
O54 C62 1.256 . S
O55 Mn50 2.251 . S
O55 C60 1.241 . S
O56 Mn50 2.087 . S
O56 C61 1.256 1_455 S
C57 O63 1.278 . S
C57 O64 1.241 . S
C58 O44 1.244 . S
C58 O46 1.256 . S
C59 O48 1.239 . S
C59 O52 1.256 1_565 S
C60 O49 1.278 . S
C60 O55 1.241 . S
C61 O51 1.244 . S
C61 O56 1.256 1_655 S
C62 O53 1.239 . S
C62 O54 1.256 . S
O63 Mn45 2.221 1_665 S
O63 Mn47 2.290 . S
O63 C57 1.278 . S
O64 Mn47 2.251 . S
O64 C57 1.241 . S
O65 Mn66 2.163 . S
O65 C79 1.244 . S
Mn66 O65 2.163 . S
Mn66 O69 2.160 1_554 S
Mn66 O70 2.221 . S
Mn66 O72 2.163 1_554 S
Mn66 O74 2.160 . S
Mn66 O84 2.221 . S
O67 Mn68 2.087 . S
O67 C79 1.256 . S
Mn68 O67 2.087 . S
Mn68 O75 2.089 . S
Mn68 O84 2.290 . S
Mn68 O85 2.251 . S
O69 Mn66 2.160 1_556 S
O69 C80 1.239 . S
O70 Mn66 2.221 . S
O70 Mn71 2.290 1_554 S
O70 C81 1.278 . S
Mn71 O70 2.290 1_556 S
Mn71 O73 2.089 . S
Mn71 O76 2.251 . S
Mn71 O77 2.087 . S
O72 Mn66 2.163 1_556 S
O72 C82 1.244 . S
O73 Mn71 2.089 . S
O73 C80 1.256 . S
O74 Mn66 2.160 . S
O74 C83 1.239 . S
O75 Mn68 2.089 . S
O75 C83 1.256 . S
O76 Mn71 2.251 . S
O76 C81 1.241 1_556 S
O77 Mn71 2.087 . S
O77 C82 1.256 . S
C78 O84 1.278 . S
C78 O85 1.241 . S
C79 O65 1.244 . S
C79 O67 1.256 . S
C80 O69 1.239 . S
C80 O73 1.256 . S
C81 O70 1.278 . S
C81 O76 1.241 1_554 S
C82 O72 1.244 . S
C82 O77 1.256 . S
C83 O74 1.239 . S
C83 O75 1.256 . S
O84 Mn66 2.221 . S
O84 Mn68 2.290 . S
O84 C78 1.278 . S
O85 Mn68 2.251 . S
O85 C78 1.241 . S
H86 C92 0.930 . S
H87 C96 0.930 . S
H88 C101 0.929 . S
H89 C99 0.929 . S
H90 C94 0.929 . S
H91 C100 0.929 . S
C92 H86 0.930 . S
C92 C93 1.367 . S
C92 C100 1.378 . S
C93 C92 1.367 . S
C93 C101 1.433 . S
C94 H90 0.929 . S
C94 C96 1.378 . S
C94 C98 1.350 . S
C95 C98 1.463 . S
C95 C100 1.350 . S
C95 N103 1.427 . S
C96 H87 0.930 . S
C96 C94 1.378 . S
C96 C97 1.367 . S
C97 C96 1.367 . S
C97 C99 1.433 . S
C98 C94 1.350 . S
C98 C95 1.463 . S
C98 N102 1.427 . S
C99 H89 0.929 . S
C99 C97 1.433 . S
C99 N102 1.384 . S
C100 H91 0.929 . S
C100 C92 1.378 . S
C100 C95 1.350 . S
C101 H88 0.929 . S
C101 C93 1.433 . S
C101 N103 1.384 . S
N102 C98 1.427 . S
N102 C99 1.384 . S
N103 C95 1.427 . S
N103 C101 1.384 . S
H104 C110 0.930 . S
H105 C114 0.930 . S
H106 C119 0.929 . S
H107 C117 0.929 . S
H108 C112 0.929 . S
H109 C118 0.929 . S
C110 H104 0.930 . S
C110 C111 1.367 . S
C110 C118 1.378 . S
C111 C110 1.367 . S
C111 C119 1.433 . S
C112 H108 0.929 . S
C112 C114 1.378 . S
C112 C116 1.350 . S
C113 C116 1.463 . S
C113 C118 1.350 . S
C113 N121 1.427 . S
C114 H105 0.930 . S
C114 C112 1.378 . S
C114 C115 1.367 . S
C115 C114 1.367 . S
C115 C117 1.433 . S
C116 C112 1.350 . S
C116 C113 1.463 . S
C116 N120 1.427 . S
C117 H107 0.929 . S
C117 C115 1.433 . S
C117 N120 1.384 . S
C118 H109 0.929 . S
C118 C110 1.378 . S
C118 C113 1.350 . S
C119 H106 0.929 . S
C119 C111 1.433 . S
C119 N121 1.384 . S
N120 C116 1.427 . S
N120 C117 1.384 . S
N121 C113 1.427 . S
N121 C119 1.384 . S
H122 C128 0.930 . S
H123 C132 0.930 . S
H124 C137 0.929 . S
H125 C135 0.929 . S
H126 C130 0.929 . S
H127 C136 0.929 . S
C128 H122 0.930 . S
C128 C129 1.367 . S
C128 C136 1.378 . S
C129 C128 1.367 . S
C129 C137 1.433 . S
C130 H126 0.929 . S
C130 C132 1.378 . S
C130 C134 1.350 . S
C131 C134 1.463 . S
C131 C136 1.350 . S
C131 N139 1.427 . S
C132 H123 0.930 . S
C132 C130 1.378 . S
C132 C133 1.367 . S
C133 C132 1.367 . S
C133 C135 1.433 . S
C134 C130 1.350 . S
C134 C131 1.463 . S
C134 N138 1.427 . S
C135 H125 0.929 . S
C135 C133 1.433 . S
C135 N138 1.384 . S
C136 H127 0.929 . S
C136 C128 1.378 . S
C136 C131 1.350 . S
C137 H124 0.929 . S
C137 C129 1.433 . S
C137 N139 1.384 . S
N138 C134 1.427 . S
N138 C135 1.384 . S
N139 C131 1.427 . S
N139 C137 1.384 . S
H140 C146 0.930 . S
H141 C150 0.930 . S
H142 C155 0.929 . S
H143 C153 0.929 . S
H144 C148 0.929 . S
H145 C154 0.929 . S
C146 H140 0.930 . S
C146 C147 1.367 1_556 S
C146 C154 1.378 . S
C147 C146 1.367 1_554 S
C147 C155 1.433 . S
C148 H144 0.929 . S
C148 C150 1.378 . S
C148 C152 1.350 . S
C149 C152 1.463 . S
C149 C154 1.350 1_554 S
C149 N157 1.427 . S
C150 H141 0.930 . S
C150 C148 1.378 . S
C150 C151 1.367 . S
C151 C150 1.367 . S
C151 C153 1.433 1_554 S
C152 C148 1.350 . S
C152 C149 1.463 . S
C152 N156 1.427 1_554 S
C153 H143 0.929 . S
C153 C151 1.433 1_556 S
C153 N156 1.384 . S
C154 H145 0.929 . S
C154 C146 1.378 . S
C154 C149 1.350 1_556 S
C155 H142 0.929 . S
C155 C147 1.433 . S
C155 N157 1.384 . S
N156 C152 1.427 1_556 S
N156 C153 1.384 . S
N157 C149 1.427 . S
N157 C155 1.384 . S
H158 C164 0.930 . S
H159 C168 0.930 . S
H160 C173 0.929 . S
H161 C171 0.929 . S
H162 C166 0.929 . S
H163 C172 0.929 . S
C164 H158 0.930 . S
C164 C165 1.367 . S
C164 C172 1.378 . S
C165 C164 1.367 . S
C165 C173 1.433 . S
C166 H162 0.929 . S
C166 C168 1.378 . S
C166 C170 1.350 . S
C167 C170 1.463 . S
C167 C172 1.350 . S
C167 N175 1.427 . S
C168 H159 0.930 . S
C168 C166 1.378 . S
C168 C169 1.367 . S
C169 C168 1.367 . S
C169 C171 1.433 . S
C170 C166 1.350 . S
C170 C167 1.463 . S
C170 N174 1.427 . S
C171 H161 0.929 . S
C171 C169 1.433 . S
C171 N174 1.384 . S
C172 H163 0.929 . S
C172 C164 1.378 . S
C172 C167 1.350 . S
C173 H160 0.929 . S
C173 C165 1.433 . S
C173 N175 1.384 . S
N174 C170 1.427 . S
N174 C171 1.384 . S
N175 C167 1.427 . S
N175 C173 1.384 . S
H176 C182 0.930 . S
H177 C186 0.930 . S
H178 C191 0.929 . S
H179 C189 0.929 . S
H180 C184 0.929 . S
H181 C190 0.929 . S
C182 H176 0.930 . S
C182 C183 1.367 . S
C182 C190 1.378 . S
C183 C182 1.367 . S
C183 C191 1.433 . S
C184 H180 0.929 . S
C184 C186 1.378 . S
C184 C188 1.350 . S
C185 C188 1.463 . S
C185 C190 1.350 . S
C185 N193 1.427 . S
C186 H177 0.930 . S
C186 C184 1.378 . S
C186 C187 1.367 . S
C187 C186 1.367 . S
C187 C189 1.433 . S
C188 C184 1.350 . S
C188 C185 1.463 . S
C188 N192 1.427 . S
C189 H179 0.929 . S
C189 C187 1.433 . S
C189 N192 1.384 . S
C190 H181 0.929 . S
C190 C182 1.378 . S
C190 C185 1.350 . S
C191 H178 0.929 . S
C191 C183 1.433 . S
C191 N193 1.384 . S
N192 C188 1.427 . S
N192 C189 1.384 . S
N193 C185 1.427 . S
N193 C191 1.384 . S
H194 C200 0.930 . S
H195 C204 0.930 . S
H196 C209 0.929 . S
H197 C207 0.929 . S
H198 C202 0.929 . S
H199 C208 0.929 . S
C200 H194 0.930 . S
C200 C201 1.367 . S
C200 C208 1.378 . S
C201 C200 1.367 . S
C201 C209 1.433 . S
C202 H198 0.929 . S
C202 C204 1.378 . S
C202 C206 1.350 . S
C203 C206 1.463 . S
C203 C208 1.350 . S
C203 N211 1.427 . S
C204 H195 0.930 . S
C204 C202 1.378 . S
C204 C205 1.367 . S
C205 C204 1.367 . S
C205 C207 1.433 . S
C206 C202 1.350 . S
C206 C203 1.463 . S
C206 N210 1.427 . S
C207 H197 0.929 . S
C207 C205 1.433 . S
C207 N210 1.384 . S
C208 H199 0.929 . S
C208 C200 1.378 . S
C208 C203 1.350 . S
C209 H196 0.929 . S
C209 C201 1.433 . S
C209 N211 1.384 . S
N210 C206 1.427 . S
N210 C207 1.384 . S
N211 C203 1.427 . S
N211 C209 1.384 . S
H212 C218 0.930 . S
H213 C222 0.930 . S
H214 C227 0.929 . S
H215 C225 0.929 . S
H216 C220 0.929 . S
H217 C226 0.929 . S
C218 H212 0.930 . S
C218 C219 1.367 . S
C218 C226 1.378 . S
C219 C218 1.367 . S
C219 C227 1.433 . S
C220 H216 0.929 . S
C220 C222 1.378 . S
C220 C224 1.350 . S
C221 C224 1.463 . S
C221 C226 1.350 . S
C221 N229 1.427 . S
C222 H213 0.930 . S
C222 C220 1.378 . S
C222 C223 1.367 . S
C223 C222 1.367 . S
C223 C225 1.433 . S
C224 C220 1.350 . S
C224 C221 1.463 . S
C224 N228 1.427 . S
C225 H215 0.929 . S
C225 C223 1.433 . S
C225 N228 1.384 . S
C226 H217 0.929 . S
C226 C218 1.378 . S
C226 C221 1.350 . S
C227 H214 0.929 . S
C227 C219 1.433 . S
C227 N229 1.384 . S
N228 C224 1.427 . S
N228 C225 1.384 . S
N229 C221 1.427 . S
N229 C227 1.384 . S
H230 C236 0.930 . S
H231 C240 0.930 . S
H232 C245 0.929 . S
H233 C243 0.929 . S
H234 C238 0.929 . S
H235 C244 0.929 . S
C236 H230 0.930 . S
C236 C237 1.367 . S
C236 C244 1.378 . S
C237 C236 1.367 . S
C237 C245 1.433 . S
C238 H234 0.929 . S
C238 C240 1.378 . S
C238 C242 1.350 . S
C239 C242 1.463 . S
C239 C244 1.350 . S
C239 N247 1.427 . S
C240 H231 0.930 . S
C240 C238 1.378 . S
C240 C241 1.367 . S
C241 C240 1.367 . S
C241 C243 1.433 . S
C242 C238 1.350 . S
C242 C239 1.463 . S
C242 N246 1.427 . S
C243 H233 0.929 . S
C243 C241 1.433 . S
C243 N246 1.384 . S
C244 H235 0.929 . S
C244 C236 1.378 . S
C244 C239 1.350 . S
C245 H232 0.929 . S
C245 C237 1.433 . S
C245 N247 1.384 . S
N246 C242 1.427 . S
N246 C243 1.384 . S
N247 C239 1.427 . S
N247 C245 1.384 . S
H248 C254 0.930 . S
H249 C258 0.930 . S
H250 C263 0.929 . S
H251 C261 0.929 . S
H252 C256 0.929 . S
H253 C262 0.929 . S
C254 H248 0.930 . S
C254 C255 1.367 . S
C254 C262 1.378 . S
C255 C254 1.367 . S
C255 C263 1.433 . S
C256 H252 0.929 . S
C256 C258 1.378 . S
C256 C260 1.350 . S
C257 C260 1.463 . S
C257 C262 1.350 . S
C257 N265 1.427 . S
C258 H249 0.930 . S
C258 C256 1.378 . S
C258 C259 1.367 . S
C259 C258 1.367 . S
C259 C261 1.433 . S
C260 C256 1.350 . S
C260 C257 1.463 . S
C260 N264 1.427 . S
C261 H251 0.929 . S
C261 C259 1.433 . S
C261 N264 1.384 . S
C262 H253 0.929 . S
C262 C254 1.378 . S
C262 C257 1.350 . S
C263 H250 0.929 . S
C263 C255 1.433 . S
C263 N265 1.384 . S
N264 C260 1.427 . S
N264 C261 1.384 . S
N265 C257 1.427 . S
N265 C263 1.384 . S
H266 C272 0.930 . S
H267 C276 0.930 . S
H268 C281 0.929 . S
H269 C279 0.929 . S
H270 C274 0.929 . S
H271 C280 0.929 . S
C272 H266 0.930 . S
C272 C273 1.367 . S
C272 C280 1.378 . S
C273 C272 1.367 . S
C273 C281 1.433 . S
C274 H270 0.929 . S
C274 C276 1.378 . S
C274 C278 1.350 . S
C275 C278 1.463 . S
C275 C280 1.350 . S
C275 N283 1.427 . S
C276 H267 0.930 . S
C276 C274 1.378 . S
C276 C277 1.367 . S
C277 C276 1.367 . S
C277 C279 1.433 . S
C278 C274 1.350 . S
C278 C275 1.463 . S
C278 N282 1.427 . S
C279 H269 0.929 . S
C279 C277 1.433 . S
C279 N282 1.384 . S
C280 H271 0.929 . S
C280 C272 1.378 . S
C280 C275 1.350 . S
C281 H268 0.929 . S
C281 C273 1.433 . S
C281 N283 1.384 . S
N282 C278 1.427 . S
N282 C279 1.384 . S
N283 C275 1.427 . S
N283 C281 1.384 . S
H284 C290 0.930 . S
H285 C294 0.930 . S
H286 C299 0.929 . S
H287 C297 0.929 . S
H288 C292 0.929 . S
H289 C298 0.929 . S
C290 H284 0.930 . S
C290 C291 1.367 . S
C290 C298 1.378 . S
C291 C290 1.367 . S
C291 C299 1.433 . S
C292 H288 0.929 . S
C292 C294 1.378 . S
C292 C296 1.350 . S
C293 C296 1.463 . S
C293 C298 1.350 . S
C293 N301 1.427 . S
C294 H285 0.930 . S
C294 C292 1.378 . S
C294 C295 1.367 . S
C295 C294 1.367 . S
C295 C297 1.433 . S
C296 C292 1.350 . S
C296 C293 1.463 . S
C296 N300 1.427 . S
C297 H287 0.929 . S
C297 C295 1.433 . S
C297 N300 1.384 . S
C298 H289 0.929 . S
C298 C290 1.378 . S
C298 C293 1.350 . S
C299 H286 0.929 . S
C299 C291 1.433 . S
C299 N301 1.384 . S
N300 C296 1.427 . S
N300 C297 1.384 . S
N301 C293 1.427 . S
N301 C299 1.384 . S
C97 C60 1.241 . S
C93 C43 1.438 . S
C111 C10 1.467 . S
C115 C81 1.283 . S
C129 C21 1.599 . S
C133 C57 1.417 . S
C147 C32 1.602 . S
C151 C78 1.379 . S
C169 C62 1.506 . S
C165 C5 1.503 . S
C187 C82 1.536 . S
C183 C15 1.603 . S
C201 C27 1.588 . S
C205 C58 1.549 . S
C219 C38 1.514 . S
C223 C80 1.472 . S
C241 C79 1.481 . S
C237 C16 1.510 . S
C259 C61 1.464 . S
C255 C26 1.527 . S
C277 C83 1.424 . S
C273 C37 1.452 . S
C291 C4 1.457 1_556 S
C295 C59 1.400 . S
