# Generated by pormake.
# Topology anh, (6,3)-cn, num edge types: 1
# Building blocks:
#     Node 0, Type 0, BuildingBlock: PAMTUU_clean_sbu_0, # of connection points: 6
#     Node 1, Type 0, BuildingBlock: PAMTUU_clean_sbu_0, # of connection points: 6
#     Node 2, Type 0, BuildingBlock: PAMTUU_clean_sbu_0, # of connection points: 6
#     Node 3, Type 1, BuildingBlock: CUQRIR_clean_linker_1, # of connection points: 3
#     Node 4, Type 1, BuildingBlock: CUQRIR_clean_linker_1, # of connection points: 3
#     Node 5, Type 1, BuildingBlock: CUQRIR_clean_linker_1, # of connection points: 3
#     Node 6, Type 1, BuildingBlock: CUQRIR_clean_linker_1, # of connection points: 3
#     Node 7, Type 1, BuildingBlock: CUQRIR_clean_linker_1, # of connection points: 3
#     Node 8, Type 1, BuildingBlock: CUQRIR_clean_linker_1, # of connection points: 3
#     Edge 9, Type (0, 1), BuildingBlock: AJUNOK_clean_linker_0, # of connection points: 2
#     Edge 10, Type (0, 1), BuildingBlock: AJUNOK_clean_linker_0, # of connection points: 2
#     Edge 11, Type (0, 1), BuildingBlock: AJUNOK_clean_linker_0, # of connection points: 2
#     Edge 12, Type (0, 1), BuildingBlock: AJUNOK_clean_linker_0, # of connection points: 2
#     Edge 13, Type (0, 1), BuildingBlock: AJUNOK_clean_linker_0, # of connection points: 2
#     Edge 14, Type (0, 1), BuildingBlock: AJUNOK_clean_linker_0, # of connection points: 2
#     Edge 15, Type (0, 1), BuildingBlock: AJUNOK_clean_linker_0, # of connection points: 2
#     Edge 16, Type (0, 1), BuildingBlock: AJUNOK_clean_linker_0, # of connection points: 2
#     Edge 17, Type (0, 1), BuildingBlock: AJUNOK_clean_linker_0, # of connection points: 2
#     Edge 18, Type (0, 1), BuildingBlock: AJUNOK_clean_linker_0, # of connection points: 2
#     Edge 19, Type (0, 1), BuildingBlock: AJUNOK_clean_linker_0, # of connection points: 2
#     Edge 20, Type (0, 1), BuildingBlock: AJUNOK_clean_linker_0, # of connection points: 2
#     Edge 21, Type (0, 1), BuildingBlock: AJUNOK_clean_linker_0, # of connection points: 2
#     Edge 22, Type (0, 1), BuildingBlock: AJUNOK_clean_linker_0, # of connection points: 2
#     Edge 23, Type (0, 1), BuildingBlock: AJUNOK_clean_linker_0, # of connection points: 2
#     Edge 24, Type (0, 1), BuildingBlock: AJUNOK_clean_linker_0, # of connection points: 2
#     Edge 25, Type (0, 1), BuildingBlock: AJUNOK_clean_linker_0, # of connection points: 2
#     Edge 26, Type (0, 1), BuildingBlock: AJUNOK_clean_linker_0, # of connection points: 2
# Relax obj value: 0.476
# Max RMSD: 0.230
# Mean RMSD: 0.176
data_MOF--net-anh--node1-PAMTUU_clean_sbu_0--node2-CUQRIR_clean_linker_1--edge1-AJUNOK_clean_linker_0
_symmetry_space_group_name_H-M    P1
_symmetry_Int_Tables_number       1
_symmetry_cell_setting            triclinic
loop_
_symmetry_equiv_pos_as_xyz
'x, y, z'
_cell_length_a     20.859021
_cell_length_b     20.88844
_cell_length_c     34.192913
_cell_angle_alpha  88.462607
_cell_angle_beta   89.632282
_cell_angle_gamma 120.07536
loop_
_atom_site_label
_atom_site_type_symbol
_atom_site_fract_x
_atom_site_fract_y
_atom_site_fract_z
_atom_type_partial_charge
Tb0 Tb 0.23222 0.74029 0.16215 0.0
Tb1 Tb 0.30292 0.65622 0.18494 0.0
C2 C 0.28939 0.6862 0.09535 0.0
C3 C 1.09488 0.79087 0.14094 0.0
C4 C 0.95308 0.69729 0.11644 0.0
C5 C 0.9976 0.7638 0.09552 0.0
C6 C 1.0688 0.81122 0.10803 0.0
C7 C 1.0465 0.72913 0.16468 0.0
C8 C 0.97547 0.68187 0.15219 0.0
C9 C 0.17212 0.81238 0.14047 0.0
O10 O 1.12974 0.61739 0.16608 0.0
O11 O 0.18522 0.56164 0.1969 0.0
O12 O 0.29491 0.70789 0.23825 0.0
O13 O 0.18911 0.70078 0.2199 0.0
O14 O 0.38573 0.63016 0.17421 0.0
O15 O 0.307 0.5802 0.2245 0.0
O16 O 0.40605 0.7725 0.18342 0.0
O17 O 0.34529 0.83632 0.18065 0.0
O18 O 0.29453 0.7455 0.10963 0.0
O19 O 0.27702 0.63298 0.1212 0.0
C20 C 1.12188 0.55521 0.18486 0.0
O21 O 0.20277 0.82017 0.17451 0.0
O22 O 0.18552 0.77135 0.11745 0.0
C23 C 0.23299 0.70555 0.24761 0.0
C24 C 0.3994 0.54498 0.21714 0.0
C25 C 0.4608 0.45389 0.2187 0.0
C26 C 0.38797 0.42622 0.2327 0.0
C27 C 0.35716 0.47195 0.23191 0.0
C28 C 0.47418 0.57509 0.20774 0.0
C29 C 0.50467 0.52987 0.20819 0.0
C30 C 0.36377 0.58594 0.20528 0.0
C31 C 0.41026 0.83853 0.18448 0.0
H32 H 0.9796 0.77585 0.06804 0.0
H33 H 1.10626 0.85818 0.08929 0.0
H34 H 1.06637 0.71221 0.1899 0.0
H35 H 0.94045 0.63049 0.16857 0.0
H36 H 0.3532 0.36809 0.24072 0.0
H37 H 0.29891 0.44853 0.23938 0.0
H38 H 0.50729 0.63176 0.19658 0.0
H39 H 0.56025 0.55331 0.19599 0.0
Tb40 Tb 0.68894 0.12068 0.49071 0.0
Tb41 Tb 0.84232 0.1944 0.5188 0.0
C42 C 0.80726 0.1963 0.42447 0.0
C43 C 0.48863 1.0129 0.5061 0.0
C44 C 0.35335 0.90617 0.54027 0.0
C45 C 0.3884 0.88707 0.5111 0.0
C46 C 0.45536 0.93996 0.4942 0.0
C47 C 0.45757 1.03078 0.53776 0.0
C48 C 0.39035 0.97752 0.55488 0.0
C49 C 0.55343 1.07108 0.48465 0.0
O50 O 0.7014 1.01511 0.49951 0.0
O51 O 0.81522 1.07256 0.52598 0.0
O52 O 0.77092 0.17576 0.571 0.0
O53 O 0.68721 1.07193 0.54569 0.0
O54 O 0.93374 0.17881 0.52483 0.0
O55 O 0.93589 0.27484 0.54731 0.0
O56 O 0.83203 0.29834 0.52119 0.0
O57 O 0.71246 0.24013 0.50328 0.0
O58 O 0.73739 0.15136 0.43268 0.0
O59 O 0.85613 0.22013 0.45318 0.0
C60 C 0.75726 1.00823 0.51553 0.0
O61 O 0.59619 0.12757 0.50552 0.0
O62 O 0.59073 1.05122 0.4618 0.0
C63 C 0.70977 0.11227 0.57559 0.0
C64 C 1.03737 0.294 0.5098 0.0
C65 C 1.09294 0.40872 0.45381 0.0
C66 C 1.11265 0.42378 0.49318 0.0
C67 C 1.08512 0.36627 0.52118 0.0
C68 C 1.03045 0.27823 0.46968 0.0
C69 C 1.05725 0.33577 0.4417 0.0
C70 C 0.97545 0.24593 0.53626 0.0
C71 C 0.77143 0.30326 0.51484 0.0
H72 H 0.36097 0.83311 0.4983 0.0
H73 H 0.47852 0.9245 0.47025 0.0
H74 H 0.48306 1.08678 0.54796 0.0
H75 H 0.36443 0.99353 0.57715 0.0
H76 H 1.14045 0.48009 0.50309 0.0
H77 H 1.09122 0.37945 0.55187 0.0
H78 H 0.99484 0.22252 0.45998 0.0
H79 H 1.04249 0.3234 0.41138 0.0
Tb80 Tb 0.67626 0.60396 0.8427 0.0
Tb81 Tb 0.77084 0.76401 0.84914 0.0
C82 C 0.72786 0.69343 0.76206 0.0
C83 C 0.5663 0.3932 0.85341 0.0
C84 C 0.50406 0.24337 0.84336 0.0
C85 C 0.57177 0.29336 0.82427 0.0
C86 C 0.60315 0.36861 0.82942 0.0
C87 C 0.50022 0.34373 0.87331 0.0
C88 C 0.46872 0.26854 0.86814 0.0
C89 C 0.59066 0.46999 0.8557 0.0
O90 O 0.79377 0.61421 0.84693 0.0
O91 O 0.86345 0.73741 0.85554 0.0
O92 O 0.77458 0.71337 0.90504 0.0
O93 O 0.65641 0.63987 0.89782 0.0
O94 O 0.87078 0.86141 0.83599 0.0
O95 O 0.78865 0.86163 0.87461 0.0
O96 O 0.6519 0.74894 0.86025 0.0
O97 O 0.58335 0.63171 0.84039 0.0
O98 O 0.69421 0.62739 0.77942 0.0
O99 O 0.75874 0.75286 0.78383 0.0
C100 C 0.86172 0.67309 0.85331 0.0
O101 O 0.64678 0.50952 0.87779 0.0
O102 O 0.58945 0.50469 0.82364 0.0
C103 C 0.71066 0.66929 0.92141 0.0
C104 C 0.83793 0.95131 0.82424 0.0
C105 C 0.74949 0.97907 0.77447 0.0
C106 C 0.75841 1.00228 0.81324 0.0
C107 C 0.80317 0.989 0.83804 0.0
C108 C 0.83842 0.93949 0.78382 0.0
C109 C 0.79315 0.95215 0.75913 0.0
C110 C 0.84648 0.90152 0.85168 0.0
C111 C 0.58335 0.69147 0.85321 0.0
H112 H 0.59859 0.27435 0.80417 0.0
H113 H 0.65397 0.40736 0.81375 0.0
H114 H 0.47165 0.36354 0.89165 0.0
H115 H 0.41615 0.23036 0.88245 0.0
H116 H 0.72524 1.02391 0.82538 0.0
H117 H 0.80217 0.99864 0.86898 0.0
H118 H 0.86595 0.91168 0.77204 0.0
H119 H 0.78795 0.93571 0.72899 0.0
C120 C 0.76608 0.19777 0.19629 0.0
N121 N 0.82261 0.24819 0.22111 0.0
N122 N 0.70874 0.13294 0.21524 0.0
C123 C 0.76858 0.20785 0.15272 0.0
C124 C 0.73355 0.1461 0.25255 0.0
N125 N 0.79921 0.21204 0.25646 0.0
C126 C 0.69175 1.09333 0.28663 0.0
H127 H 0.73824 0.23706 0.14455 0.0
H128 H 0.74032 0.1532 0.13889 0.0
H129 H 0.82661 0.24028 0.14147 0.0
H130 H 0.72285 1.06591 0.29666 0.0
H131 H 0.63508 1.05018 0.27897 0.0
H132 H 0.68679 0.12351 0.31156 0.0
C133 C 0.7618 0.657 0.53058 0.0
N134 N 0.75448 0.70616 0.55579 0.0
N135 N 0.75886 0.5941 0.54923 0.0
C136 C 0.77097 0.66978 0.48715 0.0
C137 C 0.74971 0.60827 0.58708 0.0
N138 N 0.74635 0.67236 0.59145 0.0
C139 C 0.74293 0.55752 0.62115 0.0
H140 H 0.73654 0.69304 0.47636 0.0
H141 H 0.75567 0.61752 0.47235 0.0
H142 H 0.82985 0.71038 0.47985 0.0
H143 H 0.76158 0.51819 0.61369 0.0
H144 H 0.68397 0.52453 0.63083 0.0
H145 H 0.77549 0.59023 0.64614 0.0
C146 C 0.22082 0.67351 0.86548 0.0
N147 N 0.27675 0.67667 0.89029 0.0
N148 N 1.16011 0.67252 0.88488 0.0
C149 C 0.2268 0.67557 0.8218 0.0
C150 C 0.18237 0.67497 0.92259 0.0
N151 N 0.24948 0.67723 0.9262 0.0
C152 C 1.13731 0.67539 0.95718 0.0
H153 H 0.28568 0.70431 0.81175 0.0
H154 H 0.19836 0.70361 0.80875 0.0
H155 H 0.19879 0.61799 0.81158 0.0
H156 H 1.07855 0.65423 0.94977 0.0
H157 H 1.16123 0.73301 0.96695 0.0
H158 H 1.13907 0.64115 0.98203 0.0
C159 C 1.06882 0.68039 0.45412 0.0
N160 N 1.08241 0.66296 0.41843 0.0
N161 N 1.11556 0.7525 0.46127 0.0
C162 C 1.0157 0.62465 0.48415 0.0
C163 C 1.15291 0.78016 0.42658 0.0
N164 N 1.13262 0.72581 0.40089 0.0
C165 C 0.21536 0.85836 0.41955 0.0
H166 H 0.95906 0.59661 0.47225 0.0
H167 H 1.03031 0.58124 0.49064 0.0
H168 H 1.01533 0.65193 0.51146 0.0
H169 H 0.26414 0.86682 0.43644 0.0
H170 H 0.19863 0.89781 0.42992 0.0
H171 H 0.23127 0.87084 0.38808 0.0
C172 C 0.4413 0.95339 0.75007 0.0
N173 N 0.48765 0.96467 0.71967 0.0
N174 N 0.42318 1.00716 0.75081 0.0
C175 C 0.42383 0.89686 0.7829 0.0
C176 C 0.45115 1.04486 0.71612 0.0
N177 N 0.48909 1.01822 0.6973 0.0
C178 C 0.45348 0.11593 0.70421 0.0
H179 H 0.38876 0.90089 0.80615 0.0
H180 H 0.47535 0.90322 0.79572 0.0
H181 H 0.39396 0.84072 0.77085 0.0
H182 H 0.4947 0.1614 0.72205 0.0
H183 H 0.3986 0.1108 0.7095 0.0
H184 H 0.4691 0.13053 0.6728 0.0
C185 C 0.65284 0.39886 0.09447 0.0
N186 N 0.68682 0.45251 0.06648 0.0
N187 N 0.58192 0.38167 0.10077 0.0
C188 C 0.69066 0.36525 0.11728 0.0
C189 C 0.57064 0.41776 0.07014 0.0
N190 N 0.63443 0.46052 0.04941 0.0
C191 C 0.49729 0.41125 0.06092 0.0
H192 H 0.6513 0.32012 0.13771 0.0
H193 H 0.73639 0.40827 0.13388 0.0
H194 H 0.71569 0.34335 0.09667 0.0
H195 H 0.48344 0.44082 0.08293 0.0
H196 H 0.45322 0.35224 0.06232 0.0
H197 H 0.4978 0.4339 0.03115 0.0
C198 C 0.44126 0.35098 0.1774 0.0
C199 C 0.4856 0.40362 0.2047 0.0
C200 C 0.47378 0.33586 0.1457 0.0
C201 C 0.55091 0.37528 0.13965 0.0
H202 H 0.38195 0.32911 0.17729 0.0
H203 H 0.43827 0.29938 0.12368 0.0
S204 S 0.68881 0.50196 0.21094 0.0
N205 N 0.60734 0.47512 0.23161 0.0
N206 N 0.67028 0.45957 0.16907 0.0
C207 C 0.59513 0.41923 0.17054 0.0
C208 C 0.56142 0.42881 0.2043 0.0
C209 C 1.15768 0.53627 0.42706 0.0
C210 C 1.09282 0.46726 0.42934 0.0
C211 C 1.15398 0.6001 0.4202 0.0
C212 C 1.08586 0.59681 0.41386 0.0
H213 H 0.21016 0.54161 0.4354 0.0
H214 H 0.20362 0.65264 0.42415 0.0
S215 S 0.90181 0.42931 0.41123 0.0
N216 N 0.95894 0.3981 0.42109 0.0
N217 N 0.95399 0.52005 0.40561 0.0
C218 C 1.02185 0.52801 0.41152 0.0
C219 C 1.02494 0.46246 0.41955 0.0
C220 C 0.68226 1.03905 0.74983 0.0
C221 C 0.68853 0.97569 0.75224 0.0
C222 C 0.61695 1.0344 0.73789 0.0
C223 C 0.55622 0.96678 0.72699 0.0
H224 H 0.72639 1.09156 0.75969 0.0
H225 H 0.61225 1.08356 0.73934 0.0
S226 S 0.54679 0.7858 0.72549 0.0
N227 N 0.63054 0.84327 0.74145 0.0
N228 N 0.50724 0.83625 0.71698 0.0
C229 C 0.56293 0.90368 0.72698 0.0
C230 C 0.62961 0.90786 0.73989 0.0
C231 C 0.88861 0.58601 0.07708 0.0
C232 C 0.88616 0.64028 0.09945 0.0
C233 C 0.82305 0.52477 0.06511 0.0
C234 C 0.75474 0.51742 0.07551 0.0
H235 H 0.94117 0.5897 0.07018 0.0
H236 H 0.82534 0.48214 0.04888 0.0
S237 S 0.72158 0.64851 0.13159 0.0
N238 N 0.81253 0.68598 0.12973 0.0
N239 N 0.68873 0.5711 0.1076 0.0
C240 C 0.75259 0.57345 0.09658 0.0
C241 C 0.81878 0.63509 0.10857 0.0
C242 C 0.22965 0.89019 0.53275 0.0
C243 C 0.27249 0.85916 0.54571 0.0
C244 C 0.1685 0.84987 0.50923 0.0
C245 C 1.14971 0.77848 0.49833 0.0
H246 H 0.2505 0.94906 0.53463 0.0
H247 H 1.14281 0.87804 0.49506 0.0
S248 S 0.22853 0.66583 0.53839 0.0
N249 N 0.27656 0.7469 0.55862 0.0
N250 N 0.16743 0.67273 0.51089 0.0
C251 C 0.18283 0.74259 0.51817 0.0
C252 C 0.24216 0.78263 0.54375 0.0
C253 C 0.40106 0.13608 0.81308 0.0
C254 C 0.46755 0.16608 0.83353 0.0
C255 C 0.38023 1.07523 0.78975 0.0
C256 C 0.42657 1.04509 0.78573 0.0
H257 H 0.36957 0.16446 0.81167 0.0
H258 H 0.33268 1.05733 0.77127 0.0
S259 S 0.59896 1.09725 0.84065 0.0
N260 N 0.57136 0.1543 0.85519 0.0
N261 N 0.53624 1.04336 0.80952 0.0
C262 C 0.48839 1.06954 0.81026 0.0
C263 C 0.50791 0.1296 0.83473 0.0
C264 C 0.80554 0.90762 0.5095 0.0
C265 C 0.7541 0.92823 0.52518 0.0
C266 C 0.80498 0.8377 0.51872 0.0
C267 C 0.75427 0.77984 0.54594 0.0
H268 H 0.84784 0.94652 0.48904 0.0
H269 H 0.84696 0.83005 0.50445 0.0
S270 S 0.60836 0.801 0.59873 0.0
N271 N 0.65087 0.8785 0.57173 0.0
N272 N 0.65024 0.75389 0.58873 0.0
C273 C 0.70334 0.80004 0.56239 0.0
C274 C 0.70317 0.87064 0.55236 0.0
C275 C 1.00549 0.73177 0.87363 0.0
C276 C 0.93873 0.67034 0.85921 0.0
C277 C 1.07553 0.73283 0.88019 0.0
C278 C 1.08898 0.67329 0.87209 0.0
H279 H 1.00367 0.78092 0.88097 0.0
H280 H 1.1203 0.78197 0.89252 0.0
S281 S 0.93663 0.49551 0.83449 0.0
N282 N 0.89555 0.54544 0.83786 0.0
N283 N 1.02263 0.54791 0.84902 0.0
C284 C 1.02314 0.61116 0.85755 0.0
C285 C 0.95099 0.60969 0.85142 0.0
C286 C 0.49881 0.98912 0.18699 0.0
C287 C 0.48877 0.91557 0.19038 0.0
C288 C 0.56919 1.05829 0.19271 0.0
C289 C 0.63815 1.06211 0.20225 0.0
H290 H 0.45078 0.99388 0.18007 0.0
H291 H 0.56862 0.10977 0.19052 0.0
S292 S 0.64792 0.88906 0.21704 0.0
N293 N 0.56035 0.85601 0.2055 0.0
N294 N 0.68655 0.98014 0.21614 0.0
C295 C 0.62871 0.98915 0.20602 0.0
C296 C 0.55736 0.91904 0.20008 0.0
C297 C 0.70873 0.39259 0.51184 0.0
C298 C 0.76945 0.3805 0.52141 0.0
C299 C 0.7066 0.46116 0.51874 0.0
C300 C 0.76533 0.52665 0.53578 0.0
H301 H 0.66046 0.34742 0.49904 0.0
H302 H 0.65652 0.4617 0.51129 0.0
S303 S 0.93587 0.52827 0.57069 0.0
N304 N 0.88929 0.44569 0.55174 0.0
N305 N 0.88544 0.56829 0.56414 0.0
C306 C 0.82575 0.51503 0.54581 0.0
C307 C 0.82784 0.44546 0.53883 0.0
C308 C 0.4936 0.73607 0.88857 0.0
C309 C 0.50434 0.68975 0.86182 0.0
C310 C 0.42197 0.73132 0.89769 0.0
C311 C 0.35204 0.68068 0.88059 0.0
H312 H 0.54171 0.77677 0.90364 0.0
H313 H 0.42217 0.76944 0.91855 0.0
S314 S 0.34168 0.54263 0.80945 0.0
N315 N 0.43079 0.58791 0.81945 0.0
N316 N 0.30273 0.58031 0.83528 0.0
C317 C 0.36171 0.63388 0.8539 0.0
C318 C 0.43437 0.63793 0.84515 0.0
C319 C 1.03415 0.41953 0.22209 0.0
C320 C 1.04297 0.47647 0.1938 0.0
C321 C 0.96501 0.34874 0.23079 0.0
C322 C 0.89518 0.32435 0.21187 0.0
H323 H 1.08236 0.4297 0.23849 0.0
H324 H 0.96752 0.31175 0.25267 0.0
S325 S 0.88227 0.44775 0.13434 0.0
N326 N 0.96958 0.49741 0.14663 0.0
N327 N 0.8448 0.37126 0.16215 0.0
C328 C 0.90321 0.38077 0.18344 0.0
C329 C 0.97385 0.45314 0.17488 0.0
C330 C 0.31829 0.74683 0.02677 0.0
C331 C 0.2926 0.68152 0.05063 0.0
C332 C 0.31263 0.74584 0.9854 0.0
C333 C 0.28139 0.67961 0.96479 0.0
H334 H 0.34017 0.79981 0.04035 0.0
H335 H 0.32786 0.79721 0.9695 0.0
S336 S 0.20758 0.49251 0.01147 0.0
N337 N 0.23701 0.54791 0.04894 0.0
N338 N 0.22592 0.54649 0.97184 0.0
C339 C 0.2587 0.61414 0.98782 0.0
C340 C 0.26444 0.61494 0.03023 0.0
C341 C 0.86379 0.1957 0.35739 0.0
C342 C 0.82713 0.22181 0.38156 0.0
C343 C 0.86397 0.20211 0.31566 0.0
C344 C 0.82907 0.23644 0.29561 0.0
H345 H 0.88711 0.16445 0.37062 0.0
H346 H 0.88576 0.17383 0.29879 0.0
S347 S 0.72613 0.31497 0.34461 0.0
N348 N 0.75473 0.28344 0.38138 0.0
N349 N 0.75901 0.29867 0.30435 0.0
C350 C 0.79681 0.26699 0.31966 0.0
C351 C 0.79437 0.2584 0.36192 0.0
C352 C 0.66909 0.64838 0.69515 0.0
C353 C 0.73 0.69953 0.71696 0.0
C354 C 0.67172 0.64687 0.65354 0.0
C355 C 0.73611 0.69483 0.6307 0.0
H356 H 0.61904 0.60729 0.7105 0.0
H357 H 0.62433 0.60353 0.63914 0.0
S358 S 0.91063 0.84172 0.67219 0.0
N359 N 0.85575 0.8033 0.71118 0.0
N360 N 0.86182 0.79721 0.63407 0.0
C361 C 0.79634 0.74824 0.6519 0.0
C362 C 0.79304 0.75126 0.69439 0.0
C363 C 0.65872 0.14097 0.63547 0.0
C364 C 0.65541 1.0901 0.60832 0.0
C365 C 0.60045 0.12038 0.66294 0.0
C366 C 0.53758 1.04865 0.66357 0.0
H367 H 0.70601 0.19656 0.63542 0.0
H368 H 0.60626 0.15914 0.68493 0.0
S369 S 0.50059 0.89581 0.59924 0.0
N370 N 0.58233 0.96438 0.58451 0.0
N371 N 0.47442 0.92881 0.6353 0.0
C372 C 0.53313 0.99892 0.63618 0.0
C373 C 0.59183 1.01849 0.60904 0.0
C374 C 0.72597 0.57571 0.95863 0.0
C375 C 0.70222 0.62767 0.95797 0.0
C376 C 0.7007 0.52004 0.98794 0.0
C377 C 0.65161 0.51471 0.01794 0.0
H378 H 0.76112 0.57564 0.93516 0.0
H379 H 0.71946 0.48021 0.98721 0.0
S380 S 0.58314 0.64614 0.03216 0.0
N381 N 0.63156 0.67473 0.99058 0.0
N382 N 0.58889 0.57377 0.04792 0.0
C383 C 0.63112 0.56953 0.01887 0.0
C384 C 0.65533 0.6251 0.98826 0.0
C385 C 1.13666 0.68941 0.29559 0.0
C386 C 0.21126 0.71065 0.28797 0.0
C387 C 1.11304 0.69796 0.33218 0.0
C388 C 1.16278 0.72865 0.36259 0.0
H389 H 1.09558 0.66544 0.27311 0.0
H390 H 1.05485 0.67932 0.33715 0.0
S391 S 0.36215 0.7852 0.35971 0.0
N392 N 0.33401 0.75841 0.31492 0.0
N393 N 0.28889 0.77473 0.38434 0.0
C394 C 0.23729 0.74847 0.35607 0.0
C395 C 0.26157 0.73907 0.31859 0.0
loop_
_geom_bond_atom_site_label_1
_geom_bond_atom_site_label_2
_geom_bond_distance
_geom_bond_site_symmetry_2
_ccdc_geom_bond_type
Tb0 C9 2.764 . S
Tb0 O10 2.325 . S
Tb0 O13 2.303 . S
Tb0 O17 2.322 1_655 S
Tb0 O18 2.349 . S
Tb0 O21 2.415 . S
Tb0 O22 2.399 . S
Tb1 O11 2.322 1_455 S
Tb1 O12 2.349 . S
Tb1 O14 2.415 . S
Tb1 O15 2.399 . S
Tb1 O16 2.325 . S
Tb1 O19 2.303 . S
Tb1 C30 2.764 . S
C2 O18 1.261 1_455 S
C2 O19 1.257 . S
C3 C6 1.358 . S
C3 C7 1.332 . S
C3 C9 1.504 . S
C4 C5 1.373 . S
C4 C8 1.308 . S
C5 C4 1.373 . S
C5 C6 1.429 . S
C5 H32 0.932 . S
C6 C3 1.358 . S
C6 C5 1.429 . S
C6 H33 0.930 . S
C7 C3 1.332 . S
C7 C8 1.394 . S
C7 H34 0.932 . S
C8 C4 1.308 . S
C8 C7 1.394 . S
C8 H35 0.929 . S
C9 Tb0 2.764 . S
C9 C3 1.504 . S
C9 O21 1.239 . S
C9 O22 1.263 . S
O10 Tb0 2.325 . S
O10 C20 1.236 . S
O11 Tb1 2.322 1_655 S
O11 C20 1.257 . S
O12 Tb1 2.349 . S
O12 C23 1.261 . S
O13 Tb0 2.303 . S
O13 C23 1.257 1_655 S
O14 Tb1 2.415 . S
O14 C30 1.239 . S
O15 Tb1 2.399 . S
O15 C30 1.263 . S
O16 Tb1 2.325 . S
O16 C31 1.236 . S
O17 Tb0 2.322 1_455 S
O17 C31 1.257 . S
O18 Tb0 2.349 . S
O18 C2 1.261 1_655 S
O19 Tb1 2.303 . S
O19 C2 1.257 . S
C20 O10 1.236 . S
C20 O11 1.257 . S
O21 Tb0 2.415 . S
O21 C9 1.239 . S
O22 Tb0 2.399 . S
O22 C9 1.263 . S
C23 O12 1.261 . S
C23 O13 1.257 1_455 S
C24 C27 1.358 . S
C24 C28 1.332 . S
C24 C30 1.504 . S
C25 C26 1.373 . S
C25 C29 1.308 . S
C26 C25 1.373 . S
C26 C27 1.429 . S
C26 H36 0.932 . S
C27 C24 1.358 . S
C27 C26 1.429 . S
C27 H37 0.930 . S
C28 C24 1.332 . S
C28 C29 1.394 . S
C28 H38 0.932 . S
C29 C25 1.308 . S
C29 C28 1.394 . S
C29 H39 0.929 . S
C30 Tb1 2.764 . S
C30 O14 1.239 . S
C30 O15 1.263 . S
C30 C24 1.504 . S
C31 O16 1.236 . S
C31 O17 1.257 . S
H32 C5 0.932 . S
H33 C6 0.930 . S
H34 C7 0.932 . S
H35 C8 0.929 . S
H36 C26 0.932 . S
H37 C27 0.930 . S
H38 C28 0.932 . S
H39 C29 0.929 . S
Tb40 C49 2.764 . S
Tb40 O50 2.325 . S
Tb40 O53 2.303 1_565 S
Tb40 O57 2.322 1_565 S
Tb40 O58 2.349 . S
Tb40 O61 2.415 . S
Tb40 O62 2.399 . S
Tb41 O51 2.322 1_545 S
Tb41 O52 2.349 . S
Tb41 O54 2.415 . S
Tb41 O55 2.399 . S
Tb41 O56 2.325 . S
Tb41 O59 2.303 . S
Tb41 C70 2.764 . S
C42 O58 1.261 1_545 S
C42 O59 1.257 . S
C43 C46 1.358 . S
C43 C47 1.332 . S
C43 C49 1.504 . S
C44 C45 1.373 . S
C44 C48 1.308 . S
C45 C44 1.373 . S
C45 C46 1.429 . S
C45 H72 0.932 . S
C46 C43 1.358 . S
C46 C45 1.429 . S
C46 H73 0.930 . S
C47 C43 1.332 . S
C47 C48 1.394 . S
C47 H74 0.932 . S
C48 C44 1.308 . S
C48 C47 1.394 . S
C48 H75 0.929 . S
C49 Tb40 2.764 . S
C49 C43 1.504 . S
C49 O61 1.239 . S
C49 O62 1.263 . S
O50 Tb40 2.325 . S
O50 C60 1.236 . S
O51 Tb41 2.322 1_565 S
O51 C60 1.257 . S
O52 Tb41 2.349 . S
O52 C63 1.261 . S
O53 Tb40 2.303 1_545 S
O53 C63 1.257 . S
O54 Tb41 2.415 . S
O54 C70 1.239 . S
O55 Tb41 2.399 . S
O55 C70 1.263 . S
O56 Tb41 2.325 . S
O56 C71 1.236 . S
O57 Tb40 2.322 1_545 S
O57 C71 1.257 . S
O58 Tb40 2.349 . S
O58 C42 1.261 1_565 S
O59 Tb41 2.303 . S
O59 C42 1.257 . S
C60 O50 1.236 . S
C60 O51 1.257 . S
O61 Tb40 2.415 . S
O61 C49 1.239 . S
O62 Tb40 2.399 . S
O62 C49 1.263 . S
C63 O52 1.261 . S
C63 O53 1.257 . S
C64 C67 1.358 . S
C64 C68 1.332 . S
C64 C70 1.504 . S
C65 C66 1.373 . S
C65 C69 1.308 . S
C66 C65 1.373 . S
C66 C67 1.429 . S
C66 H76 0.932 . S
C67 C64 1.358 . S
C67 C66 1.429 . S
C67 H77 0.930 . S
C68 C64 1.332 . S
C68 C69 1.394 . S
C68 H78 0.932 . S
C69 C65 1.308 . S
C69 C68 1.394 . S
C69 H79 0.929 . S
C70 Tb41 2.764 . S
C70 O54 1.239 . S
C70 O55 1.263 . S
C70 C64 1.504 . S
C71 O56 1.236 . S
C71 O57 1.257 . S
H72 C45 0.932 . S
H73 C46 0.930 . S
H74 C47 0.932 . S
H75 C48 0.929 . S
H76 C66 0.932 . S
H77 C67 0.930 . S
H78 C68 0.932 . S
H79 C69 0.929 . S
Tb80 C89 2.764 . S
Tb80 O90 2.325 . S
Tb80 O93 2.303 . S
Tb80 O97 2.322 . S
Tb80 O98 2.349 . S
Tb80 O101 2.415 . S
Tb80 O102 2.399 . S
Tb81 O91 2.322 . S
Tb81 O92 2.349 . S
Tb81 O94 2.415 . S
Tb81 O95 2.399 . S
Tb81 O96 2.325 . S
Tb81 O99 2.303 . S
Tb81 C110 2.764 . S
C82 O98 1.261 . S
C82 O99 1.257 . S
C83 C86 1.358 . S
C83 C87 1.332 . S
C83 C89 1.504 . S
C84 C85 1.373 . S
C84 C88 1.308 . S
C85 C84 1.373 . S
C85 C86 1.429 . S
C85 H112 0.932 . S
C86 C83 1.358 . S
C86 C85 1.429 . S
C86 H113 0.930 . S
C87 C83 1.332 . S
C87 C88 1.394 . S
C87 H114 0.932 . S
C88 C84 1.308 . S
C88 C87 1.394 . S
C88 H115 0.929 . S
C89 Tb80 2.764 . S
C89 C83 1.504 . S
C89 O101 1.239 . S
C89 O102 1.263 . S
O90 Tb80 2.325 . S
O90 C100 1.236 . S
O91 Tb81 2.322 . S
O91 C100 1.257 . S
O92 Tb81 2.349 . S
O92 C103 1.261 . S
O93 Tb80 2.303 . S
O93 C103 1.257 . S
O94 Tb81 2.415 . S
O94 C110 1.239 . S
O95 Tb81 2.399 . S
O95 C110 1.263 . S
O96 Tb81 2.325 . S
O96 C111 1.236 . S
O97 Tb80 2.322 . S
O97 C111 1.257 . S
O98 Tb80 2.349 . S
O98 C82 1.261 . S
O99 Tb81 2.303 . S
O99 C82 1.257 . S
C100 O90 1.236 . S
C100 O91 1.257 . S
O101 Tb80 2.415 . S
O101 C89 1.239 . S
O102 Tb80 2.399 . S
O102 C89 1.263 . S
C103 O92 1.261 . S
C103 O93 1.257 . S
C104 C107 1.358 . S
C104 C108 1.332 . S
C104 C110 1.504 . S
C105 C106 1.373 . S
C105 C109 1.308 . S
C106 C105 1.373 . S
C106 C107 1.429 . S
C106 H116 0.932 . S
C107 C104 1.358 . S
C107 C106 1.429 . S
C107 H117 0.930 . S
C108 C104 1.332 . S
C108 C109 1.394 . S
C108 H118 0.932 . S
C109 C105 1.308 . S
C109 C108 1.394 . S
C109 H119 0.929 . S
C110 Tb81 2.764 . S
C110 O94 1.239 . S
C110 O95 1.263 . S
C110 C104 1.504 . S
C111 O96 1.236 . S
C111 O97 1.257 . S
H112 C85 0.932 . S
H113 C86 0.930 . S
H114 C87 0.932 . S
H115 C88 0.929 . S
H116 C106 0.932 . S
H117 C107 0.930 . S
H118 C108 0.932 . S
H119 C109 0.929 . S
C120 N121 1.317 1_565 S
C120 N122 1.348 . S
C120 C123 1.485 1_565 S
N121 C120 1.317 1_545 S
N121 N125 1.370 . S
N122 C120 1.348 . S
N122 C124 1.346 . S
C123 C120 1.485 1_545 S
C123 H127 0.960 . S
C123 H128 0.961 1_545 S
C123 H129 0.960 . S
C124 N122 1.346 . S
C124 N125 1.307 1_565 S
C124 C126 1.486 . S
N125 N121 1.370 . S
N125 C124 1.307 1_545 S
C126 C124 1.486 . S
C126 H130 0.960 . S
C126 H131 0.960 . S
C126 H132 0.959 . S
H127 C123 0.960 . S
H128 C123 0.961 1_565 S
H129 C123 0.960 . S
H130 C126 0.960 . S
H131 C126 0.960 . S
H132 C126 0.959 . S
C133 N134 1.317 . S
C133 N135 1.348 . S
C133 C136 1.485 . S
N134 C133 1.317 . S
N134 N138 1.370 . S
N135 C133 1.348 . S
N135 C137 1.346 . S
C136 C133 1.485 . S
C136 H140 0.960 . S
C136 H141 0.961 . S
C136 H142 0.960 . S
C137 N135 1.346 . S
C137 N138 1.307 . S
C137 C139 1.486 . S
N138 N134 1.370 . S
N138 C137 1.307 . S
C139 C137 1.486 . S
C139 H143 0.960 . S
C139 H144 0.960 . S
C139 H145 0.959 . S
H140 C136 0.960 . S
H141 C136 0.961 . S
H142 C136 0.960 . S
H143 C139 0.960 . S
H144 C139 0.960 . S
H145 C139 0.959 . S
C146 N147 1.317 . S
C146 N148 1.348 . S
C146 C149 1.485 . S
N147 C146 1.317 . S
N147 N151 1.370 . S
N148 C146 1.348 . S
N148 C150 1.346 . S
C149 C146 1.485 . S
C149 H153 0.960 . S
C149 H154 0.961 . S
C149 H155 0.960 . S
C150 N148 1.346 . S
C150 N151 1.307 . S
C150 C152 1.486 1_455 S
N151 N147 1.370 . S
N151 C150 1.307 . S
C152 C150 1.486 1_655 S
C152 H156 0.960 . S
C152 H157 0.960 . S
C152 H158 0.959 . S
H153 C149 0.960 . S
H154 C149 0.961 . S
H155 C149 0.960 . S
H156 C152 0.960 . S
H157 C152 0.960 . S
H158 C152 0.959 . S
C159 N160 1.317 1_455 S
C159 N161 1.348 . S
C159 C162 1.485 . S
N160 C159 1.317 1_655 S
N160 N164 1.370 . S
N161 C159 1.348 . S
N161 C163 1.346 . S
C162 C159 1.485 . S
C162 H166 0.960 1_455 S
C162 H167 0.961 . S
C162 H168 0.960 1_455 S
C163 N161 1.346 . S
C163 N164 1.307 1_455 S
C163 C165 1.486 . S
N164 N160 1.370 . S
N164 C163 1.307 1_655 S
C165 C163 1.486 . S
C165 H169 0.960 . S
C165 H170 0.960 . S
C165 H171 0.959 . S
H166 C162 0.960 1_655 S
H167 C162 0.961 . S
H168 C162 0.960 1_655 S
H169 C165 0.960 . S
H170 C165 0.960 . S
H171 C165 0.959 . S
C172 N173 1.317 1_545 S
C172 N174 1.348 . S
C172 C175 1.485 . S
N173 C172 1.317 1_565 S
N173 N177 1.370 1_565 S
N174 C172 1.348 . S
N174 C176 1.346 . S
C175 C172 1.485 . S
C175 H179 0.960 1_545 S
C175 H180 0.961 . S
C175 H181 0.960 1_545 S
C176 N174 1.346 . S
C176 N177 1.307 . S
C176 C178 1.486 . S
N177 N173 1.370 1_545 S
N177 C176 1.307 . S
C178 C176 1.486 . S
C178 H182 0.960 . S
C178 H183 0.960 . S
C178 H184 0.959 . S
H179 C175 0.960 1_565 S
H180 C175 0.961 . S
H181 C175 0.960 1_565 S
H182 C178 0.960 . S
H183 C178 0.960 . S
H184 C178 0.959 . S
C185 N186 1.317 . S
C185 N187 1.348 . S
C185 C188 1.485 . S
N186 C185 1.317 . S
N186 N190 1.370 . S
N187 C185 1.348 . S
N187 C189 1.346 . S
C188 C185 1.485 . S
C188 H192 0.960 . S
C188 H193 0.961 . S
C188 H194 0.960 . S
C189 N187 1.346 . S
C189 N190 1.307 . S
C189 C191 1.486 . S
N190 N186 1.370 . S
N190 C189 1.307 . S
C191 C189 1.486 . S
C191 H195 0.960 . S
C191 H196 0.960 . S
C191 H197 0.959 . S
H192 C188 0.960 . S
H193 C188 0.961 . S
H194 C188 0.960 . S
H195 C191 0.960 . S
H196 C191 0.960 . S
H197 C191 0.959 . S
C198 C199 1.369 . S
C198 C200 1.419 . S
C198 H202 0.930 . S
C199 C198 1.369 . S
C199 C208 1.429 . S
C200 C198 1.419 . S
C200 C201 1.363 . S
C200 H203 0.929 . S
C201 C200 1.363 . S
C201 C207 1.428 . S
H202 C198 0.930 . S
H203 C200 0.929 . S
S204 N205 1.613 . S
S204 N206 1.610 . S
N205 S204 1.613 . S
N205 C208 1.350 . S
N206 S204 1.610 . S
N206 C207 1.351 . S
C207 C201 1.428 . S
C207 N206 1.351 . S
C207 C208 1.434 . S
C208 C199 1.429 . S
C208 N205 1.350 . S
C208 C207 1.434 . S
C209 C210 1.369 . S
C209 C211 1.419 . S
C209 H213 0.930 . S
C210 C209 1.369 . S
C210 C219 1.429 . S
C211 C209 1.419 . S
C211 C212 1.363 . S
C211 H214 0.929 . S
C212 C211 1.363 . S
C212 C218 1.428 . S
H213 C209 0.930 . S
H214 C211 0.929 . S
S215 N216 1.613 1_455 S
S215 N217 1.610 1_455 S
N216 S215 1.613 1_655 S
N216 C219 1.350 . S
N217 S215 1.610 1_655 S
N217 C218 1.351 . S
C218 C212 1.428 . S
C218 N217 1.351 . S
C218 C219 1.434 . S
C219 C210 1.429 . S
C219 N216 1.350 . S
C219 C218 1.434 . S
C220 C221 1.369 . S
C220 C222 1.419 . S
C220 H224 0.930 1_565 S
C221 C220 1.369 . S
C221 C230 1.429 . S
C222 C220 1.419 . S
C222 C223 1.363 . S
C222 H225 0.929 1_565 S
C223 C222 1.363 . S
C223 C229 1.428 . S
H224 C220 0.930 1_545 S
H225 C222 0.929 1_545 S
S226 N227 1.613 . S
S226 N228 1.610 . S
N227 S226 1.613 . S
N227 C230 1.350 . S
N228 S226 1.610 . S
N228 C229 1.351 . S
C229 C223 1.428 . S
C229 N228 1.351 . S
C229 C230 1.434 . S
C230 C221 1.429 . S
C230 N227 1.350 . S
C230 C229 1.434 . S
C231 C232 1.369 . S
C231 C233 1.419 . S
C231 H235 0.930 . S
C232 C231 1.369 . S
C232 C241 1.429 . S
C233 C231 1.419 . S
C233 C234 1.363 . S
C233 H236 0.929 . S
C234 C233 1.363 . S
C234 C240 1.428 . S
H235 C231 0.930 . S
H236 C233 0.929 . S
S237 N238 1.613 . S
S237 N239 1.610 . S
N238 S237 1.613 . S
N238 C241 1.350 . S
N239 S237 1.610 . S
N239 C240 1.351 . S
C240 C234 1.428 . S
C240 N239 1.351 . S
C240 C241 1.434 . S
C241 C232 1.429 . S
C241 N238 1.350 . S
C241 C240 1.434 . S
C242 C243 1.369 . S
C242 C244 1.419 . S
C242 H246 0.930 . S
C243 C242 1.369 . S
C243 C252 1.429 . S
C244 C242 1.419 . S
C244 C245 1.363 . S
C244 H247 0.929 . S
C245 C244 1.363 . S
C245 C251 1.428 . S
H246 C242 0.930 . S
H247 C244 0.929 . S
S248 N249 1.613 . S
S248 N250 1.610 . S
N249 S248 1.613 . S
N249 C252 1.350 . S
N250 S248 1.610 . S
N250 C251 1.351 . S
C251 C245 1.428 . S
C251 N250 1.351 . S
C251 C252 1.434 . S
C252 C243 1.429 . S
C252 N249 1.350 . S
C252 C251 1.434 . S
C253 C254 1.369 . S
C253 C255 1.419 . S
C253 H257 0.930 . S
C254 C253 1.369 . S
C254 C263 1.429 . S
C255 C253 1.419 . S
C255 C256 1.363 . S
C255 H258 0.929 . S
C256 C255 1.363 . S
C256 C262 1.428 . S
H257 C253 0.930 . S
H258 C255 0.929 . S
S259 N260 1.613 . S
S259 N261 1.610 . S
N260 S259 1.613 . S
N260 C263 1.350 . S
N261 S259 1.610 . S
N261 C262 1.351 . S
C262 C256 1.428 . S
C262 N261 1.351 . S
C262 C263 1.434 . S
C263 C254 1.429 . S
C263 N260 1.350 . S
C263 C262 1.434 . S
C264 C265 1.369 . S
C264 C266 1.419 . S
C264 H268 0.930 . S
C265 C264 1.369 . S
C265 C274 1.429 . S
C266 C264 1.419 . S
C266 C267 1.363 . S
C266 H269 0.929 . S
C267 C266 1.363 . S
C267 C273 1.428 . S
H268 C264 0.930 . S
H269 C266 0.929 . S
S270 N271 1.613 . S
S270 N272 1.610 . S
N271 S270 1.613 . S
N271 C274 1.350 . S
N272 S270 1.610 . S
N272 C273 1.351 . S
C273 C267 1.428 . S
C273 N272 1.351 . S
C273 C274 1.434 . S
C274 C265 1.429 . S
C274 N271 1.350 . S
C274 C273 1.434 . S
C275 C276 1.369 . S
C275 C277 1.419 . S
C275 H279 0.930 . S
C276 C275 1.369 . S
C276 C285 1.429 . S
C277 C275 1.419 . S
C277 C278 1.363 . S
C277 H280 0.929 . S
C278 C277 1.363 . S
C278 C284 1.428 . S
H279 C275 0.930 . S
H280 C277 0.929 . S
S281 N282 1.613 . S
S281 N283 1.610 . S
N282 S281 1.613 . S
N282 C285 1.350 . S
N283 S281 1.610 . S
N283 C284 1.351 . S
C284 C278 1.428 . S
C284 N283 1.351 . S
C284 C285 1.434 . S
C285 C276 1.429 . S
C285 N282 1.350 . S
C285 C284 1.434 . S
C286 C287 1.369 . S
C286 C288 1.419 . S
C286 H290 0.930 . S
C287 C286 1.369 . S
C287 C296 1.429 . S
C288 C286 1.419 . S
C288 C289 1.363 . S
C288 H291 0.929 . S
C289 C288 1.363 . S
C289 C295 1.428 . S
H290 C286 0.930 . S
H291 C288 0.929 . S
S292 N293 1.613 . S
S292 N294 1.610 . S
N293 S292 1.613 . S
N293 C296 1.350 . S
N294 S292 1.610 . S
N294 C295 1.351 . S
C295 C289 1.428 . S
C295 N294 1.351 . S
C295 C296 1.434 . S
C296 C287 1.429 . S
C296 N293 1.350 . S
C296 C295 1.434 . S
C297 C298 1.369 . S
C297 C299 1.419 . S
C297 H301 0.930 . S
C298 C297 1.369 . S
C298 C307 1.429 . S
C299 C297 1.419 . S
C299 C300 1.363 . S
C299 H302 0.929 . S
C300 C299 1.363 . S
C300 C306 1.428 . S
H301 C297 0.930 . S
H302 C299 0.929 . S
S303 N304 1.613 . S
S303 N305 1.610 . S
N304 S303 1.613 . S
N304 C307 1.350 . S
N305 S303 1.610 . S
N305 C306 1.351 . S
C306 C300 1.428 . S
C306 N305 1.351 . S
C306 C307 1.434 . S
C307 C298 1.429 . S
C307 N304 1.350 . S
C307 C306 1.434 . S
C308 C309 1.369 . S
C308 C310 1.419 . S
C308 H312 0.930 . S
C309 C308 1.369 . S
C309 C318 1.429 . S
C310 C308 1.419 . S
C310 C311 1.363 . S
C310 H313 0.929 . S
C311 C310 1.363 . S
C311 C317 1.428 . S
H312 C308 0.930 . S
H313 C310 0.929 . S
S314 N315 1.613 . S
S314 N316 1.610 . S
N315 S314 1.613 . S
N315 C318 1.350 . S
N316 S314 1.610 . S
N316 C317 1.351 . S
C317 C311 1.428 . S
C317 N316 1.351 . S
C317 C318 1.434 . S
C318 C309 1.429 . S
C318 N315 1.350 . S
C318 C317 1.434 . S
C319 C320 1.369 . S
C319 C321 1.419 . S
C319 H323 0.930 . S
C320 C319 1.369 . S
C320 C329 1.429 . S
C321 C319 1.419 . S
C321 C322 1.363 . S
C321 H324 0.929 . S
C322 C321 1.363 . S
C322 C328 1.428 . S
H323 C319 0.930 . S
H324 C321 0.929 . S
S325 N326 1.613 . S
S325 N327 1.610 . S
N326 S325 1.613 . S
N326 C329 1.350 . S
N327 S325 1.610 . S
N327 C328 1.351 . S
C328 C322 1.428 . S
C328 N327 1.351 . S
C328 C329 1.434 . S
C329 C320 1.429 . S
C329 N326 1.350 . S
C329 C328 1.434 . S
C330 C331 1.369 . S
C330 C332 1.419 1_554 S
C330 H334 0.930 . S
C331 C330 1.369 . S
C331 C340 1.429 1_455 S
C332 C330 1.419 1_556 S
C332 C333 1.363 . S
C332 H335 0.929 . S
C333 C332 1.363 . S
C333 C339 1.428 1_455 S
H334 C330 0.930 . S
H335 C332 0.929 . S
S336 N337 1.613 1_556 S
S336 N338 1.610 . S
N337 S336 1.613 1_554 S
N337 C340 1.350 . S
N338 S336 1.610 . S
N338 C339 1.351 . S
C339 C333 1.428 1_655 S
C339 N338 1.351 . S
C339 C340 1.434 1_556 S
C340 C331 1.429 1_655 S
C340 N337 1.350 . S
C340 C339 1.434 1_554 S
C341 C342 1.369 1_565 S
C341 C343 1.419 . S
C341 H345 0.930 . S
C342 C341 1.369 1_545 S
C342 C351 1.429 . S
C343 C341 1.419 . S
C343 C344 1.363 1_565 S
C343 H346 0.929 . S
C344 C343 1.363 1_545 S
C344 C350 1.428 . S
H345 C341 0.930 . S
H346 C343 0.929 . S
S347 N348 1.613 . S
S347 N349 1.610 . S
N348 S347 1.613 . S
N348 C351 1.350 . S
N349 S347 1.610 . S
N349 C350 1.351 . S
C350 C344 1.428 . S
C350 N349 1.351 . S
C350 C351 1.434 . S
C351 C342 1.429 . S
C351 N348 1.350 . S
C351 C350 1.434 . S
C352 C353 1.369 . S
C352 C354 1.419 . S
C352 H356 0.930 . S
C353 C352 1.369 . S
C353 C362 1.429 . S
C354 C352 1.419 . S
C354 C355 1.363 . S
C354 H357 0.929 . S
C355 C354 1.363 . S
C355 C361 1.428 . S
H356 C352 0.930 . S
H357 C354 0.929 . S
S358 N359 1.613 . S
S358 N360 1.610 . S
N359 S358 1.613 . S
N359 C362 1.350 . S
N360 S358 1.610 . S
N360 C361 1.351 . S
C361 C355 1.428 . S
C361 N360 1.351 . S
C361 C362 1.434 . S
C362 C353 1.429 . S
C362 N359 1.350 . S
C362 C361 1.434 . S
C363 C364 1.369 . S
C363 C365 1.419 . S
C363 H367 0.930 . S
C364 C363 1.369 . S
C364 C373 1.429 1_545 S
C365 C363 1.419 . S
C365 C366 1.363 1_545 S
C365 H368 0.929 . S
C366 C365 1.363 1_565 S
C366 C372 1.428 . S
H367 C363 0.930 . S
H368 C365 0.929 . S
S369 N370 1.613 . S
S369 N371 1.610 . S
N370 S369 1.613 . S
N370 C373 1.350 . S
N371 S369 1.610 . S
N371 C372 1.351 . S
C372 C366 1.428 . S
C372 N371 1.351 . S
C372 C373 1.434 . S
C373 C364 1.429 1_565 S
C373 N370 1.350 . S
C373 C372 1.434 . S
C374 C375 1.369 . S
C374 C376 1.419 . S
C374 H378 0.930 . S
C375 C374 1.369 . S
C375 C384 1.429 . S
C376 C374 1.419 . S
C376 C377 1.363 1_556 S
C376 H379 0.929 . S
C377 C376 1.363 1_554 S
C377 C383 1.428 . S
H378 C374 0.930 . S
H379 C376 0.929 . S
S380 N381 1.613 1_554 S
S380 N382 1.610 . S
N381 S380 1.613 1_556 S
N381 C384 1.350 . S
N382 S380 1.610 . S
N382 C383 1.351 . S
C383 C377 1.428 . S
C383 N382 1.351 . S
C383 C384 1.434 1_554 S
C384 C375 1.429 . S
C384 N381 1.350 . S
C384 C383 1.434 1_556 S
C385 C386 1.369 . S
C385 C387 1.419 . S
C385 H389 0.930 . S
C386 C385 1.369 . S
C386 C395 1.429 . S
C387 C385 1.419 . S
C387 C388 1.363 . S
C387 H390 0.929 . S
C388 C387 1.363 . S
C388 C394 1.428 . S
H389 C385 0.930 . S
H390 C387 0.929 . S
S391 N392 1.613 . S
S391 N393 1.610 . S
N392 S391 1.613 . S
N392 C395 1.350 1_455 S
N393 S391 1.610 . S
N393 C394 1.351 1_455 S
C394 C388 1.428 . S
C394 N393 1.351 1_655 S
C394 C395 1.434 . S
C395 C386 1.429 . S
C395 N392 1.350 1_655 S
C395 C394 1.434 . S
C199 C25 0.640 . S
C201 N187 0.560 . S
C210 C65 0.790 . S
C212 N160 0.785 . S
C221 C105 0.803 . S
C223 N173 0.832 . S
C232 C4 0.905 . S
C234 N186 0.899 . S
C245 N161 0.944 . S
C243 C44 0.911 . S
C256 N174 0.929 . S
C254 C84 0.877 . S
C265 C60 2.955 . S
C267 N134 2.951 . S
C276 C100 2.919 . S
C278 N148 2.862 1_655 S
C287 C31 3.140 . S
C289 N122 3.112 . S
C300 N135 3.138 . S
C298 C71 3.151 . S
C311 N147 3.262 . S
C309 C111 3.226 . S
C320 C20 2.965 . S
C322 N121 2.961 . S
C333 N151 1.805 . S
C331 C2 1.804 . S
C342 C42 1.742 . S
C344 N125 1.819 . S
C353 C82 1.748 . S
C355 N138 1.834 . S
C366 N177 1.160 1_565 S
C364 C63 1.184 . S
C377 N190 1.125 . S
C375 C103 1.148 . S
C386 C23 1.146 1_655 S
C388 N164 1.133 . S
