# Generated by pormake.
# Topology tsx, (6,3)-cn, num edge types: 1
# Building blocks:
#     Node 0, Type 0, BuildingBlock: FUNLAD_clean_sbu_0, # of connection points: 6
#     Node 1, Type 0, BuildingBlock: FUNLAD_clean_sbu_0, # of connection points: 6
#     Node 2, Type 1, BuildingBlock: KAKCAD_clean_linker_0, # of connection points: 3
#     Node 3, Type 1, BuildingBlock: KAKCAD_clean_linker_0, # of connection points: 3
#     Node 4, Type 1, BuildingBlock: KAKCAD_clean_linker_0, # of connection points: 3
#     Node 5, Type 1, BuildingBlock: KAKCAD_clean_linker_0, # of connection points: 3
#     Edge 6, Type (0, 1), BuildingBlock: XIVTED_clean_linker_0, # of connection points: 2
#     Edge 7, Type (0, 1), BuildingBlock: XIVTED_clean_linker_0, # of connection points: 2
#     Edge 8, Type (0, 1), BuildingBlock: XIVTED_clean_linker_0, # of connection points: 2
#     Edge 9, Type (0, 1), BuildingBlock: XIVTED_clean_linker_0, # of connection points: 2
#     Edge 10, Type (0, 1), BuildingBlock: XIVTED_clean_linker_0, # of connection points: 2
#     Edge 11, Type (0, 1), BuildingBlock: XIVTED_clean_linker_0, # of connection points: 2
#     Edge 12, Type (0, 1), BuildingBlock: XIVTED_clean_linker_0, # of connection points: 2
#     Edge 13, Type (0, 1), BuildingBlock: XIVTED_clean_linker_0, # of connection points: 2
#     Edge 14, Type (0, 1), BuildingBlock: XIVTED_clean_linker_0, # of connection points: 2
#     Edge 15, Type (0, 1), BuildingBlock: XIVTED_clean_linker_0, # of connection points: 2
#     Edge 16, Type (0, 1), BuildingBlock: XIVTED_clean_linker_0, # of connection points: 2
#     Edge 17, Type (0, 1), BuildingBlock: XIVTED_clean_linker_0, # of connection points: 2
# Relax obj value: 0.164
# Max RMSD: 0.155
# Mean RMSD: 0.089
data_MOF--net-tsx--node1-FUNLAD_clean_sbu_0--node2-KAKCAD_clean_linker_0--edge1-XIVTED_clean_linker_0
_symmetry_space_group_name_H-M    P1
_symmetry_Int_Tables_number       1
_symmetry_cell_setting            triclinic
loop_
_symmetry_equiv_pos_as_xyz
'x, y, z'
_cell_length_a     23.166913
_cell_length_b     26.46708
_cell_length_c     50.122513
_cell_angle_alpha  91.711169
_cell_angle_beta   91.724416
_cell_angle_gamma 89.884252
loop_
_atom_site_label
_atom_site_type_symbol
_atom_site_fract_x
_atom_site_fract_y
_atom_site_fract_z
_atom_type_partial_charge
C0 C 0.9292 0.91129 0.00316 0.0
N1 N 0.01895 0.98473 0.0673 0.0
C2 C 0.9677 -0.01113 0.07975 0.0
C3 C 0.96613 -0.0103 0.10757 0.0
C4 C 0.01778 -0.01388 0.12283 0.0
C5 C 0.07012 0.98223 0.10943 0.0
C6 C 0.0697 0.9816 0.08154 0.0
Zn7 Zn 0.01894 0.9826 0.02646 0.0
C8 C 0.09715 0.90334 0.00505 0.0
N9 N 0.01668 0.97665 0.94111 0.0
C10 C 0.96578 0.97583 0.92681 0.0
C11 C 0.06813 0.97706 0.92871 0.0
C12 C 0.06972 0.97732 0.9009 0.0
C13 C 0.01789 0.97683 0.88563 0.0
C14 C 0.9654 0.97571 0.89893 0.0
Zn15 Zn 0.01669 0.97851 0.98196 0.0
O16 O 0.94893 0.93061 0.02511 0.0
C17 C 0.93673 0.05619 0.00341 0.0
O18 O 0.95128 0.92333 0.98137 0.0
H19 H 0.1081 0.97744 0.94042 0.0
H20 H 0.92784 -0.00855 0.06807 0.0
H21 H 0.92536 0.97572 0.93706 0.0
O22 O 0.95929 0.04283 0.0255 0.0
O23 O 0.95293 0.03534 0.98173 0.0
H24 H 0.10996 0.97825 0.07125 0.0
O25 O 0.08259 0.03443 0.98312 0.0
O26 O 0.08779 0.03461 0.02692 0.0
O27 O 0.07895 0.92075 0.983 0.0
O28 O 0.07885 0.92205 0.02686 0.0
C29 C 0.10563 0.05081 0.00503 0.0
H30 H 0.92485 -0.00647 0.11701 0.0
H31 H 0.11092 0.97876 0.12035 0.0
H32 H 0.11114 0.97757 0.89144 0.0
H33 H 0.92445 0.97584 0.88792 0.0
C34 C 0.44872 0.41513 0.50301 0.0
N35 N 0.52994 0.5025 0.56387 0.0
C36 C 0.47902 0.50075 0.57664 0.0
C37 C 0.4783 0.5023 0.60446 0.0
C38 C 0.53049 0.50548 0.61942 0.0
C39 C 0.58243 0.508 0.60572 0.0
C40 C 0.58115 0.50643 0.5778 0.0
Zn41 Zn 0.52802 0.4975 0.52306 0.0
C42 C 0.61676 0.42691 0.50215 0.0
N43 N 0.52048 0.48526 0.43781 0.0
C44 C 0.46908 0.4799 0.42417 0.0
C45 C 0.57091 0.48862 0.42475 0.0
C46 C 0.57087 0.48721 0.3969 0.0
C47 C 0.51842 0.48227 0.38225 0.0
C48 C 0.46706 0.47831 0.39627 0.0
Zn49 Zn 0.52272 0.49018 0.47863 0.0
O50 O 0.4695 0.43735 0.52394 0.0
C51 C 0.43338 0.56 0.49977 0.0
O52 O 0.46443 0.42879 0.48025 0.0
H53 H 0.61129 0.49303 0.43597 0.0
H54 H 0.43876 0.49774 0.56522 0.0
H55 H 0.4295 0.4772 0.43495 0.0
O56 O 0.45852 0.5493 0.52174 0.0
O57 O 0.45137 0.54054 0.47806 0.0
H58 H 0.62113 0.50771 0.56725 0.0
O59 O 0.58076 0.55217 0.47767 0.0
O60 O 0.58563 0.55804 0.52151 0.0
O61 O 0.59348 0.43961 0.48005 0.0
O62 O 0.59761 0.44531 0.52386 0.0
C63 C 0.6004 0.57377 0.49902 0.0
H64 H 0.43717 0.5011 0.61413 0.0
H65 H 0.6237 0.50995 0.61642 0.0
H66 H 0.61143 0.49109 0.38697 0.0
H67 H 0.42572 0.4738 0.38581 0.0
C68 C 0.9973 0.93838 0.33578 0.0
C69 C 0.01488 0.98259 0.32346 0.0
C70 C 0.99526 0.93663 0.36355 0.0
C71 C 0.01087 0.97901 0.37973 0.0
C72 C 0.0289 0.02314 0.36746 0.0
C73 C 0.03092 0.02489 0.33964 0.0
C74 C 0.00733 0.97711 0.40927 0.0
C75 C 0.02499 0.93367 0.4227 0.0
C76 C 0.01904 0.93008 0.45048 0.0
C77 C 0.99499 0.97106 0.46478 0.0
C78 C 0.97967 0.01552 0.45179 0.0
C79 C 0.98564 0.01828 0.42411 0.0
C80 C 0.95646 0.0594 0.46674 0.0
C81 C 0.90286 0.05623 0.47878 0.0
C82 C 0.98511 0.106 0.46662 0.0
C83 C 0.9589 0.14953 0.47701 0.0
C84 C 0.90334 0.14719 0.48745 0.0
C85 C 0.04199 0.88499 0.46442 0.0
C86 C 0.04111 0.83719 0.45143 0.0
C87 C 0.07041 0.89016 0.48955 0.0
C88 C 0.1015 0.84975 0.50018 0.0
C89 C 0.106 0.80357 0.48568 0.0
C90 C 0.07329 0.79726 0.46169 0.0
C91 C 0.8765 0.0998 0.48916 0.0
H92 H 0.98538 0.90488 0.32396 0.0
H93 H 0.98058 0.90222 0.37233 0.0
H94 H 0.04175 0.05628 0.37936 0.0
H95 H 0.0442 0.05969 0.33079 0.0
H96 H 0.04515 0.90322 0.41144 0.0
H97 H 0.97173 0.05215 0.4141 0.0
H98 H 0.98901 0.9688 0.48602 0.0
H99 H 0.87987 0.02064 0.47867 0.0
H100 H 0.02682 0.10899 0.45758 0.0
H101 H 0.98102 0.18538 0.47583 0.0
H102 H 0.01788 0.83115 0.43254 0.0
H103 H 0.07172 0.92617 0.50038 0.0
H104 H 0.83349 0.0968 0.49685 0.0
H105 H 0.07515 0.76258 0.44977 0.0
H106 H 0.1242 0.85564 0.51921 0.0
C107 C 0.00294 0.04109 0.67421 0.0
C108 C 0.01134 -0.00638 0.68553 0.0
C109 C 1.00026 0.04571 0.64652 0.0
C110 C 0.00634 0.00301 0.62944 0.0
C111 C 0.01494 0.95549 0.6408 0.0
C112 C 0.01719 0.95084 0.66854 0.0
C113 C 0.00308 0.00818 0.59992 0.0
C114 C 0.02753 0.05029 0.58809 0.0
C115 C 0.02279 0.05648 0.56035 0.0
C116 C 0.99306 0.02033 0.54435 0.0
C117 C 0.9696 0.97769 0.55574 0.0
C118 C 0.97472 0.97161 0.58342 0.0
C119 C 0.93682 0.94064 0.53898 0.0
C120 C 0.88596 0.95552 0.52557 0.0
C121 C 0.95371 0.88975 0.53795 0.0
C122 C 0.91836 0.85363 0.52486 0.0
C123 C 0.8653 0.86798 0.51301 0.0
C124 C 0.05158 0.09943 0.5481 0.0
C125 C 0.0485 0.14803 0.55992 0.0
C126 C 0.08641 0.09122 0.5259 0.0
C127 C 0.12147 0.12989 0.5172 0.0
C128 C 0.12201 0.17739 0.5305 0.0
C129 C 0.08321 0.18672 0.55112 0.0
C130 C 0.85038 0.91944 0.51267 0.0
H131 H 0.99737 0.07465 0.68678 0.0
H132 H 0.99242 0.08274 0.63851 0.0
H133 H 0.02064 0.92191 0.62827 0.0
H134 H 0.02438 0.91384 0.67669 0.0
H135 H 0.05171 0.07768 0.60041 0.0
H136 H 0.95463 0.93928 0.59212 0.0
H137 H 0.9883 0.02537 0.52305 0.0
H138 H 0.87223 -0.00532 0.52634 0.0
H139 H 0.99316 0.87779 0.54809 0.0
H140 H 0.9307 0.81419 0.52558 0.0
H141 H 0.02084 0.1556 0.57662 0.0
H142 H 0.08938 0.05407 0.51636 0.0
H143 H 0.80984 0.93144 0.50354 0.0
H144 H 0.08159 0.22338 0.56128 0.0
H145 H 0.15093 0.1215 0.50129 0.0
C146 C 0.52439 0.44844 0.83128 0.0
C147 C 0.53347 0.49551 0.81986 0.0
C148 C 0.52235 0.44439 0.85891 0.0
C149 C 0.52966 0.48726 0.87591 0.0
C150 C 0.5397 0.53429 0.86457 0.0
C151 C 0.5417 0.53836 0.83682 0.0
C152 C 0.52454 0.48261 0.90525 0.0
C153 C 0.54738 0.4402 0.91808 0.0
C154 C 0.53707 0.43209 0.94513 0.0
C155 C 0.50424 0.4675 0.95944 0.0
C156 C 0.4837 0.51127 0.94734 0.0
C157 C 0.49387 0.51872 0.92027 0.0
C158 C 0.44856 0.54785 0.96252 0.0
C159 C 0.39884 0.53164 0.97505 0.0
C160 C 0.46283 0.59936 0.9634 0.0
C161 C 0.4264 0.63452 0.97563 0.0
C162 C 0.37474 0.61864 0.98671 0.0
C163 C 0.56131 0.38703 0.95842 0.0
C164 C 0.56547 0.3407 0.94422 0.0
C165 C 0.58315 0.39055 0.98491 0.0
C166 C 0.61172 0.34957 0.99628 0.0
C167 C 0.61973 0.30449 0.98129 0.0
C168 C 0.59475 0.30012 0.95539 0.0
C169 C 0.36206 0.5668 0.98699 0.0
H170 H 0.51873 0.41454 0.81884 0.0
H171 H 0.51376 0.40768 0.86691 0.0
H172 H 0.54594 0.56797 0.87712 0.0
H173 H 0.54844 0.57522 0.82865 0.0
H174 H 0.57363 0.41362 0.9069 0.0
H175 H 0.47535 0.55141 0.91067 0.0
H176 H 0.49432 0.46089 0.97999 0.0
H177 H 0.38709 0.49202 0.97451 0.0
H178 H 0.5014 0.61246 0.95406 0.0
H179 H 0.43692 0.67432 0.97502 0.0
H180 H 0.54758 0.33614 0.92408 0.0
H181 H 0.58055 0.42559 0.99654 0.0
H182 H 0.32258 0.55368 0.99552 0.0
H183 H 0.60025 0.26626 0.94307 0.0
H184 H 0.62924 0.35389 0.01649 0.0
C185 C 0.4971 0.54125 0.16908 0.0
C186 C 0.51413 0.49685 0.18189 0.0
C187 C 0.49542 0.54306 0.14124 0.0
C188 C 0.51073 0.50052 0.12553 0.0
C189 C 0.52867 0.45637 0.13833 0.0
C190 C 0.53036 0.45455 0.16619 0.0
C191 C 0.50613 0.50187 0.09591 0.0
C192 C 0.52358 0.54476 0.08246 0.0
C193 C 0.51658 0.54745 0.0545 0.0
C194 C 0.49144 0.50632 0.04009 0.0
C195 C 0.47636 0.4624 0.05315 0.0
C196 C 0.48343 0.4605 0.08097 0.0
C197 C 0.45228 0.41813 0.03816 0.0
C198 C 0.39971 0.42184 0.02375 0.0
C199 C 0.4785 0.37069 0.04087 0.0
C200 C 0.45048 0.32708 0.03108 0.0
C201 C 0.39537 0.33014 0.01869 0.0
C202 C 0.53946 0.59166 0.04047 0.0
C203 C 0.5394 0.64003 0.05281 0.0
C204 C 0.56663 0.58509 0.01587 0.0
C205 C 0.59691 0.62487 0.00508 0.0
C206 C 0.60191 0.67182 0.0189 0.0
C207 C 0.57079 0.67937 0.04239 0.0
C208 C 0.37136 0.37811 0.01408 0.0
H209 H 0.48507 0.57473 0.18057 0.0
H210 H 0.48092 0.57752 0.13201 0.0
H211 H 0.54138 0.42312 0.12682 0.0
H212 H 0.54326 0.41963 0.1754 0.0
H213 H 0.54435 0.57541 0.09385 0.0
H214 H 0.46955 0.42713 0.09104 0.0
H215 H 0.48441 0.50807 0.01875 0.0
H216 H 0.37873 0.45816 0.0216 0.0
H217 H 0.51954 0.36721 0.05162 0.0
H218 H 0.47069 0.29076 0.03436 0.0
H219 H 0.51728 0.64705 0.07128 0.0
H220 H 0.56741 0.54856 0.00558 0.0
H221 H 0.32888 0.38176 0.00473 0.0
H222 H 0.57324 0.71469 0.0538 0.0
H223 H 0.61844 0.61797 0.98645 0.0
H224 H 0.14157 0.10626 0.96324 0.0
H225 H 0.38589 0.25079 0.05168 0.0
H226 H 0.17626 0.08156 0.04697 0.0
H227 H 0.32287 0.30469 0.97573 0.0
H228 H 0.32017 0.17935 0.04673 0.0
H229 H 0.21738 0.17084 0.96449 0.0
C230 C 0.16528 0.11423 0.98184 0.0
C231 C 0.15236 0.08872 0.00509 0.0
C232 C 0.32096 0.20654 0.03103 0.0
C233 C 0.23917 0.16207 0.00655 0.0
C234 C 0.35899 0.24713 0.03368 0.0
C235 C 0.36001 0.28384 0.01405 0.0
C236 C 0.28347 0.20238 0.00857 0.0
C237 C 0.32311 0.27751 0.99144 0.0
C238 C 0.20841 0.15112 0.98253 0.0
C239 C 0.18446 0.10052 0.02862 0.0
N240 N 0.28613 0.2376 0.98935 0.0
N241 N 0.22634 0.13631 0.02873 0.0
H242 H 0.17548 0.87742 0.0444 0.0
H243 H 0.26186 0.61944 0.97093 0.0
H244 H 0.10978 0.83149 0.96592 0.0
H245 H 0.38809 0.70401 0.01889 0.0
H246 H 0.19198 0.68732 0.97814 0.0
H247 H 0.24219 0.80484 0.04338 0.0
C248 C 0.175 0.85197 0.02706 0.0
C249 C 0.13749 0.86039 0.00513 0.0
C250 C 0.23478 0.69069 0.98734 0.0
C251 C 0.21192 0.77759 0.00419 0.0
C252 C 0.27442 0.65187 0.98347 0.0
C253 C 0.3307 0.65632 0.99434 0.0
C254 C 0.25129 0.73398 0.00242 0.0
C255 C 0.34509 0.69949 0.01007 0.0
C256 C 0.21296 0.81087 0.0265 0.0
C257 C 0.13841 0.82653 0.98312 0.0
N258 N 0.3055 0.73693 0.01366 0.0
N259 N 0.17478 0.78637 0.98329 0.0
H260 H 0.90245 0.8354 0.96679 0.0
H261 H 0.59597 0.77596 0.02496 0.0
H262 H 0.84221 0.90989 0.0385 0.0
H263 H 0.70598 0.65643 0.99471 0.0
H264 H 0.67423 0.83609 0.01925 0.0
H265 H 0.81819 0.77905 0.96665 0.0
C266 C 0.87138 0.83993 0.98242 0.0
C267 C 0.87936 0.87685 0.00285 0.0
C268 C 0.68056 0.79668 0.01362 0.0
C269 C 0.78283 0.81404 0.00228 0.0
C270 C 0.63612 0.76217 0.01696 0.0
C271 C 0.64431 0.71047 0.01085 0.0
C272 C 0.73304 0.77973 0.00343 0.0
C273 C 0.69692 0.69566 0.99958 0.0
C274 C 0.82355 0.80793 0.9823 0.0
C275 C 0.83789 0.88141 0.0226 0.0
N276 N 0.73933 0.73009 0.99633 0.0
N277 N 0.79108 0.85053 0.02174 0.0
H278 H 0.91416 0.13138 0.0403 0.0
H279 H 0.61043 0.20147 0.97316 0.0
H280 H 0.84963 0.06249 0.96618 0.0
H281 H 0.72002 0.31582 0.01151 0.0
H282 H 0.68608 0.13886 0.98133 0.0
H283 H 0.83133 0.18968 0.03964 0.0
C284 C 0.88257 0.12858 0.02394 0.0
C285 C 0.88884 0.09265 0.00309 0.0
C286 C 0.69293 0.17763 0.98822 0.0
C287 C 0.794 0.15744 0.00275 0.0
C288 C 0.64998 0.21343 0.98353 0.0
C289 C 0.65924 0.26438 0.99109 0.0
C290 C 0.74496 0.19264 0.00102 0.0
C291 C 0.71068 0.27712 0.00533 0.0
C292 C 0.83552 0.16161 0.02364 0.0
C293 C 0.84672 0.0902 0.98242 0.0
N294 N 0.7519 0.24151 0.00965 0.0
N295 N 0.80079 0.12202 0.98285 0.0
H296 H 0.67349 0.59831 0.45939 0.0
H297 H 0.75311 0.86563 0.52676 0.0
H298 H 0.6124 0.65023 0.53598 0.0
H299 H 0.87969 0.7811 0.48234 0.0
H300 H 0.68558 0.7955 0.52005 0.0
H301 H 0.73621 0.67333 0.45869 0.0
C302 C 0.67316 0.62558 0.47594 0.0
C303 C 0.63819 0.61815 0.49787 0.0
C304 C 0.72788 0.79264 0.51147 0.0
C305 C 0.70796 0.70363 0.49682 0.0
C306 C 0.76619 0.83276 0.51503 0.0
C307 C 0.82203 0.82901 0.5051 0.0
C308 C 0.74525 0.74863 0.49768 0.0
C309 C 0.83706 0.78515 0.49044 0.0
C310 C 0.70883 0.66806 0.47553 0.0
C311 C 0.63916 0.65437 0.51883 0.0
N312 N 0.79881 0.74635 0.4872 0.0
N313 N 0.67323 0.69576 0.5177 0.0
H314 H 0.65862 0.37236 0.54422 0.0
H315 H 0.89715 0.23113 0.45734 0.0
H316 H 0.68435 0.39796 0.46075 0.0
H317 H 0.83302 0.16975 0.52955 0.0
H318 H 0.83344 0.30375 0.46306 0.0
H319 H 0.73527 0.30825 0.54325 0.0
C320 C 0.68068 0.3648 0.52577 0.0
C321 C 0.66486 0.39022 0.50246 0.0
C322 C 0.83368 0.27466 0.47781 0.0
C323 C 0.75256 0.31758 0.50135 0.0
C324 C 0.87051 0.2334 0.47473 0.0
C325 C 0.87035 0.19424 0.493 0.0
C326 C 0.79643 0.27702 0.49936 0.0
C327 C 0.83403 0.1989 0.51487 0.0
C328 C 0.72421 0.32817 0.52524 0.0
C329 C 0.6948 0.37895 0.47911 0.0
N330 N 0.79827 0.2395 0.51741 0.0
N331 N 0.7372 0.34349 0.47916 0.0
H332 H 0.38447 0.36626 0.46303 0.0
H333 H 0.18496 0.23268 0.56745 0.0
H334 H 0.40935 0.37678 0.54878 0.0
H335 H 0.16507 0.20513 0.48232 0.0
H336 H 0.26498 0.28885 0.55998 0.0
H337 H 0.30355 0.30823 0.4687 0.0
C338 C 0.37332 0.35602 0.48299 0.0
C339 C 0.40356 0.3765 0.50547 0.0
C340 C 0.24315 0.27077 0.54284 0.0
C341 C 0.31108 0.31094 0.51205 0.0
C342 C 0.19684 0.2391 0.54709 0.0
C343 C 0.16784 0.21453 0.52545 0.0
C344 C 0.26102 0.27809 0.51674 0.0
C345 C 0.18642 0.22324 0.49957 0.0
C346 C 0.32706 0.32311 0.4862 0.0
C347 C 0.38721 0.36213 0.53086 0.0
N348 N 0.23195 0.25442 0.4959 0.0
N349 N 0.342 0.33048 0.53342 0.0
H350 H 0.34412 0.56183 0.46302 0.0
H351 H 0.21158 0.81821 0.51153 0.0
H352 H 0.4074 0.63438 0.53639 0.0
H353 H 0.10143 0.69968 0.47748 0.0
H354 H 0.28799 0.75624 0.51804 0.0
H355 H 0.25958 0.6178 0.46357 0.0
C356 C 0.34026 0.58967 0.47916 0.0
C357 C 0.38275 0.59378 0.49963 0.0
C358 C 0.24675 0.7439 0.50943 0.0
C359 C 0.2869 0.65772 0.50023 0.0
C360 C 0.20261 0.77917 0.5059 0.0
C361 C 0.14952 0.76467 0.4936 0.0
C362 C 0.2385 0.69401 0.50004 0.0
C363 C 0.14189 0.7133 0.48626 0.0
C364 C 0.2919 0.62114 0.47959 0.0
C365 C 0.3755 0.63009 0.52024 0.0
N366 N 0.18626 0.68003 0.48911 0.0
N367 N 0.32878 0.66122 0.51985 0.0
H368 H 0.94028 0.93918 0.15411 0.0
H369 H 0.09593 0.02661 0.29265 0.0
H370 H 0.09331 0.0322 0.15925 0.0
H371 H 0.93598 0.94305 0.28672 0.0
H372 H 0.09663 0.02854 0.24391 0.0
H373 H 0.93901 0.93946 0.20274 0.0
C374 C 0.97343 0.95998 0.16544 0.0
C375 C 0.01688 -0.01415 0.15249 0.0
C376 C 0.06138 0.00981 0.25328 0.0
C377 C 0.01611 -0.01425 0.20837 0.0
C378 C 0.06078 0.00892 0.28113 0.0
C379 C 0.01589 0.98452 0.29386 0.0
C380 C 0.01678 -0.01388 0.238 0.0
C381 C 0.97195 0.96162 0.27783 0.0
C382 C 0.97286 0.95988 0.19326 0.0
C383 C 0.05936 0.01126 0.16833 0.0
N384 N 0.97354 0.96296 0.25079 0.0
N385 N 0.05789 0.01059 0.19542 0.0
H386 H 0.08563 0.03531 0.85512 0.0
H387 H 0.95921 0.92249 0.71534 0.0
H388 H 0.95183 0.92202 0.8488 0.0
H389 H 0.06873 0.05414 0.72277 0.0
H390 H 0.96201 0.91684 0.76404 0.0
H391 H 0.08592 0.0379 0.80644 0.0
C392 C 0.05655 0.01073 0.84348 0.0
C393 C 0.01865 0.97838 0.85605 0.0
C394 C 0.98543 0.94695 0.755 0.0
C395 C 0.0185 0.98137 0.80027 0.0
C396 C 0.98415 0.95 0.72722 0.0
C397 C 0.01366 -0.01107 0.71499 0.0
C398 C 0.01684 0.98285 0.77068 0.0
C399 C 0.04477 0.02388 0.73137 0.0
C400 C 0.05649 0.01245 0.81569 0.0
C401 C 0.98134 0.9479 0.83994 0.0
N402 N 0.04562 0.01996 0.75835 0.0
N403 N 0.9823 0.95004 0.81289 0.0
H404 H 0.46288 0.44863 0.65081 0.0
H405 H 0.60472 0.55204 0.78948 0.0
H406 H 0.59847 0.56048 0.65569 0.0
H407 H 0.46091 0.4485 0.78292 0.0
H408 H 0.60388 0.55612 0.74071 0.0
H409 H 0.46261 0.44815 0.69936 0.0
C410 C 0.49234 0.47343 0.66208 0.0
C411 C 0.53054 0.50486 0.64907 0.0
C412 C 0.57252 0.53255 0.74998 0.0
C413 C 0.53106 0.50395 0.70493 0.0
C414 C 0.57278 0.53041 0.77782 0.0
C415 C 0.53307 0.49961 0.79034 0.0
C416 C 0.53223 0.50373 0.73456 0.0
C417 C 0.49305 0.47202 0.77418 0.0
C418 C 0.4924 0.47292 0.68987 0.0
C419 C 0.56864 0.5353 0.66484 0.0
N420 N 0.49375 0.47468 0.74719 0.0
N421 N 0.56791 0.53411 0.69195 0.0
H422 H 0.59441 0.43657 0.34808 0.0
H423 H 0.43387 0.53599 0.21593 0.0
H424 H 0.44015 0.52833 0.3487 0.0
H425 H 0.59372 0.45191 0.21536 0.0
H426 H 0.4343 0.53179 0.26451 0.0
H427 H 0.59353 0.43969 0.29941 0.0
C428 C 0.56043 0.45751 0.33801 0.0
C429 C 0.51735 0.48232 0.35257 0.0
C430 C 0.46931 0.51425 0.25378 0.0
C431 C 0.51581 0.48566 0.29675 0.0
C432 C 0.4693 0.51692 0.22602 0.0
C433 C 0.51396 0.49443 0.21149 0.0
C434 C 0.51428 0.48887 0.26721 0.0
C435 C 0.55809 0.46934 0.22568 0.0
C436 C 0.55982 0.45907 0.31019 0.0
C437 C 0.47385 0.50812 0.33835 0.0
N438 N 0.55717 0.4673 0.25273 0.0
N439 N 0.47429 0.5092 0.31127 0.0
loop_
_geom_bond_atom_site_label_1
_geom_bond_atom_site_label_2
_geom_bond_distance
_geom_bond_site_symmetry_2
_ccdc_geom_bond_type
C0 O16 1.251 . S
C0 O18 1.254 1_554 S
N1 C2 1.333 1_445 S
N1 C6 1.307 . S
N1 Zn7 2.020 . S
C2 N1 1.333 1_665 S
C2 C3 1.379 . S
C2 H20 0.952 . S
C3 C2 1.379 . S
C3 C4 1.390 1_665 S
C3 H30 0.949 . S
C4 C3 1.390 1_445 S
C4 C5 1.357 . S
C5 C4 1.357 . S
C5 C6 1.370 . S
C5 H31 0.950 . S
C6 N1 1.307 . S
C6 C5 1.370 . S
C6 H24 0.948 . S
Zn7 N1 2.020 . S
Zn7 O16 2.039 1_445 S
Zn7 O22 2.034 1_455 S
Zn7 O26 2.025 . S
Zn7 O28 2.024 1_545 S
C8 O27 1.246 1_554 S
C8 O28 1.249 . S
N9 C10 1.307 1_445 S
N9 C11 1.333 . S
N9 Zn15 2.020 . S
C10 N9 1.307 1_665 S
C10 C14 1.370 . S
C10 H21 0.948 . S
C11 N9 1.333 . S
C11 C12 1.379 . S
C11 H19 0.952 . S
C12 C11 1.379 . S
C12 C13 1.390 . S
C12 H32 0.949 . S
C13 C12 1.390 . S
C13 C14 1.357 1_445 S
C14 C10 1.370 . S
C14 C13 1.357 1_665 S
C14 H33 0.950 . S
Zn15 N9 2.020 . S
Zn15 O18 2.025 1_445 S
Zn15 O23 2.024 1_455 S
Zn15 O25 2.039 . S
Zn15 O27 2.034 1_545 S
O16 C0 1.251 . S
O16 Zn7 2.039 1_665 S
C17 O22 1.246 . S
C17 O23 1.249 1_554 S
O18 C0 1.254 1_556 S
O18 Zn15 2.025 1_665 S
H19 C11 0.952 . S
H20 C2 0.952 . S
H21 C10 0.948 . S
O22 Zn7 2.034 1_655 S
O22 C17 1.246 . S
O23 Zn15 2.024 1_655 S
O23 C17 1.249 1_556 S
H24 C6 0.948 . S
O25 Zn15 2.039 . S
O25 C29 1.251 1_556 S
O26 Zn7 2.025 . S
O26 C29 1.254 . S
O27 C8 1.246 1_556 S
O27 Zn15 2.034 1_565 S
O28 Zn7 2.024 1_565 S
O28 C8 1.249 . S
C29 O25 1.251 1_554 S
C29 O26 1.254 . S
H30 C3 0.949 . S
H31 C5 0.950 . S
H32 C12 0.949 . S
H33 C14 0.950 . S
C34 O50 1.251 . S
C34 O52 1.254 . S
N35 C36 1.333 . S
N35 C40 1.307 . S
N35 Zn41 2.020 . S
C36 N35 1.333 . S
C36 C37 1.379 . S
C36 H54 0.952 . S
C37 C36 1.379 . S
C37 C38 1.390 . S
C37 H64 0.949 . S
C38 C37 1.390 . S
C38 C39 1.357 . S
C39 C38 1.357 . S
C39 C40 1.370 . S
C39 H65 0.950 . S
C40 N35 1.307 . S
C40 C39 1.370 . S
C40 H58 0.948 . S
Zn41 N35 2.020 . S
Zn41 O50 2.039 . S
Zn41 O56 2.034 . S
Zn41 O60 2.025 . S
Zn41 O62 2.024 . S
C42 O61 1.246 . S
C42 O62 1.249 . S
N43 C44 1.307 . S
N43 C45 1.333 . S
N43 Zn49 2.020 . S
C44 N43 1.307 . S
C44 C48 1.370 . S
C44 H55 0.948 . S
C45 N43 1.333 . S
C45 C46 1.379 . S
C45 H53 0.952 . S
C46 C45 1.379 . S
C46 C47 1.390 . S
C46 H66 0.949 . S
C47 C46 1.390 . S
C47 C48 1.357 . S
C48 C44 1.370 . S
C48 C47 1.357 . S
C48 H67 0.950 . S
Zn49 N43 2.020 . S
Zn49 O52 2.025 . S
Zn49 O57 2.024 . S
Zn49 O59 2.039 . S
Zn49 O61 2.034 . S
O50 C34 1.251 . S
O50 Zn41 2.039 . S
C51 O56 1.246 . S
C51 O57 1.249 . S
O52 C34 1.254 . S
O52 Zn49 2.025 . S
H53 C45 0.952 . S
H54 C36 0.952 . S
H55 C44 0.948 . S
O56 Zn41 2.034 . S
O56 C51 1.246 . S
O57 Zn49 2.024 . S
O57 C51 1.249 . S
H58 C40 0.948 . S
O59 Zn49 2.039 . S
O59 C63 1.251 . S
O60 Zn41 2.025 . S
O60 C63 1.254 . S
O61 C42 1.246 . S
O61 Zn49 2.034 . S
O62 Zn41 2.024 . S
O62 C42 1.249 . S
C63 O59 1.251 . S
C63 O60 1.254 . S
H64 C37 0.949 . S
H65 C39 0.950 . S
H66 C46 0.949 . S
H67 C48 0.950 . S
C68 C69 1.386 1_565 S
C68 C70 1.397 . S
C68 H92 0.931 . S
C69 C68 1.386 1_545 S
C69 C73 1.397 1_655 S
C70 C68 1.397 . S
C70 C71 1.385 1_655 S
C70 H93 0.930 . S
C71 C70 1.385 1_455 S
C71 C72 1.378 1_565 S
C71 C74 1.480 . S
C72 C71 1.378 1_545 S
C72 C73 1.389 . S
C72 H94 0.929 . S
C73 C69 1.397 1_455 S
C73 C72 1.389 . S
C73 H95 0.931 . S
C74 C71 1.480 . S
C74 C75 1.388 . S
C74 C79 1.389 1_465 S
C75 C74 1.388 . S
C75 C76 1.401 . S
C75 H96 0.930 . S
C76 C75 1.401 . S
C76 C77 1.370 1_455 S
C76 C85 1.511 . S
C77 C76 1.370 1_655 S
C77 C78 1.398 1_565 S
C77 H98 0.932 . S
C78 C77 1.398 1_545 S
C78 C79 1.361 . S
C78 C80 1.500 . S
C79 C74 1.389 1_645 S
C79 C78 1.361 . S
C79 H97 0.931 . S
C80 C78 1.500 . S
C80 C81 1.371 . S
C80 C82 1.365 . S
C81 C80 1.371 . S
C81 C91 1.386 . S
C81 H99 0.931 . S
C82 C80 1.365 . S
C82 C83 1.409 . S
C82 H100 0.929 . S
C83 C82 1.409 . S
C83 C84 1.380 . S
C83 H101 0.930 . S
C84 C83 1.380 . S
C84 C91 1.357 . S
C85 C76 1.511 . S
C85 C86 1.341 . S
C85 C87 1.371 . S
C86 C85 1.341 . S
C86 C90 1.394 . S
C86 H102 0.930 . S
C87 C85 1.371 . S
C87 C88 1.392 . S
C87 H103 0.931 . S
C88 C87 1.392 . S
C88 C89 1.331 . S
C88 H106 0.932 . S
C89 C88 1.331 . S
C89 C90 1.336 . S
C90 C86 1.394 . S
C90 C89 1.336 . S
C90 H105 0.929 . S
C91 C81 1.386 . S
C91 C84 1.357 . S
C91 H104 0.928 . S
H92 C68 0.931 . S
H93 C70 0.930 . S
H94 C72 0.929 . S
H95 C73 0.931 . S
H96 C75 0.930 . S
H97 C79 0.931 . S
H98 C77 0.932 . S
H99 C81 0.931 . S
H100 C82 0.929 . S
H101 C83 0.930 . S
H102 C86 0.930 . S
H103 C87 0.931 . S
H104 C91 0.928 . S
H105 C90 0.929 . S
H106 C88 0.932 . S
C107 C108 1.386 . S
C107 C109 1.397 . S
C107 H131 0.931 . S
C108 C107 1.386 . S
C108 C112 1.397 1_545 S
C109 C107 1.397 . S
C109 C110 1.384 . S
C109 H132 0.930 . S
C110 C109 1.384 . S
C110 C111 1.377 1_545 S
C110 C113 1.481 . S
C111 C110 1.377 1_565 S
C111 C112 1.389 . S
C111 H133 0.929 . S
C112 C108 1.397 1_565 S
C112 C111 1.389 . S
C112 H134 0.931 . S
C113 C110 1.481 . S
C113 C114 1.387 . S
C113 C118 1.390 1_445 S
C114 C113 1.387 . S
C114 C115 1.401 . S
C114 H135 0.930 . S
C115 C114 1.401 . S
C115 C116 1.376 . S
C115 C124 1.511 . S
C116 C115 1.376 . S
C116 C117 1.392 1_445 S
C116 H137 0.931 . S
C117 C116 1.392 1_665 S
C117 C118 1.361 . S
C117 C119 1.500 . S
C118 C113 1.390 1_665 S
C118 C117 1.361 . S
C118 H136 0.931 . S
C119 C117 1.500 . S
C119 C120 1.371 . S
C119 C121 1.365 . S
C120 C119 1.371 . S
C120 C130 1.386 . S
C120 H138 0.931 . S
C121 C119 1.365 . S
C121 C122 1.409 . S
C121 H139 0.929 . S
C122 C121 1.409 . S
C122 C123 1.380 . S
C122 H140 0.930 . S
C123 C122 1.380 . S
C123 C130 1.357 . S
C124 C115 1.511 . S
C124 C125 1.341 . S
C124 C126 1.371 . S
C125 C124 1.341 . S
C125 C129 1.394 . S
C125 H141 0.930 . S
C126 C124 1.371 . S
C126 C127 1.392 . S
C126 H142 0.931 . S
C127 C126 1.392 . S
C127 C128 1.331 . S
C127 H145 0.932 . S
C128 C127 1.331 . S
C128 C129 1.336 . S
C129 C125 1.394 . S
C129 C128 1.336 . S
C129 H144 0.929 . S
C130 C120 1.386 . S
C130 C123 1.357 . S
C130 H143 0.928 . S
H131 C107 0.931 . S
H132 C109 0.930 . S
H133 C111 0.929 . S
H134 C112 0.931 . S
H135 C114 0.930 . S
H136 C118 0.931 . S
H137 C116 0.931 . S
H138 C120 0.931 . S
H139 C121 0.929 . S
H140 C122 0.930 . S
H141 C125 0.930 . S
H142 C126 0.931 . S
H143 C130 0.928 . S
H144 C129 0.929 . S
H145 C127 0.932 . S
C146 C147 1.386 . S
C146 C148 1.397 . S
C146 H170 0.931 . S
C147 C146 1.386 . S
C147 C151 1.397 . S
C148 C146 1.397 . S
C148 C149 1.384 . S
C148 H171 0.930 . S
C149 C148 1.384 . S
C149 C150 1.377 . S
C149 C152 1.481 . S
C150 C149 1.377 . S
C150 C151 1.389 . S
C150 H172 0.929 . S
C151 C147 1.397 . S
C151 C150 1.389 . S
C151 H173 0.931 . S
C152 C149 1.481 . S
C152 C153 1.387 . S
C152 C157 1.390 . S
C153 C152 1.387 . S
C153 C154 1.401 . S
C153 H174 0.930 . S
C154 C153 1.401 . S
C154 C155 1.376 . S
C154 C163 1.511 . S
C155 C154 1.376 . S
C155 C156 1.392 . S
C155 H176 0.931 . S
C156 C155 1.392 . S
C156 C157 1.361 . S
C156 C158 1.500 . S
C157 C152 1.390 . S
C157 C156 1.361 . S
C157 H175 0.931 . S
C158 C156 1.500 . S
C158 C159 1.371 . S
C158 C160 1.365 . S
C159 C158 1.371 . S
C159 C169 1.386 1_556 S
C159 H177 0.931 . S
C160 C158 1.365 . S
C160 C161 1.409 . S
C160 H178 0.929 . S
C161 C160 1.409 . S
C161 C162 1.380 . S
C161 H179 0.930 . S
C162 C161 1.380 . S
C162 C169 1.357 1_556 S
C163 C154 1.511 . S
C163 C164 1.341 . S
C163 C165 1.371 . S
C164 C163 1.341 . S
C164 C168 1.394 . S
C164 H180 0.930 . S
C165 C163 1.371 . S
C165 C166 1.392 1_556 S
C165 H181 0.931 1_556 S
C166 C165 1.392 1_554 S
C166 C167 1.331 1_554 S
C166 H184 0.932 . S
C167 C166 1.331 1_556 S
C167 C168 1.336 . S
C168 C164 1.394 . S
C168 C167 1.336 . S
C168 H183 0.929 . S
C169 C159 1.386 1_554 S
C169 C162 1.357 1_554 S
C169 H182 0.928 . S
H170 C146 0.931 . S
H171 C148 0.930 . S
H172 C150 0.929 . S
H173 C151 0.931 . S
H174 C153 0.930 . S
H175 C157 0.931 . S
H176 C155 0.931 . S
H177 C159 0.931 . S
H178 C160 0.929 . S
H179 C161 0.930 . S
H180 C164 0.930 . S
H181 C165 0.931 1_554 S
H182 C169 0.928 . S
H183 C168 0.929 . S
H184 C166 0.932 . S
C185 C186 1.386 . S
C185 C187 1.397 . S
C185 H209 0.931 . S
C186 C185 1.386 . S
C186 C190 1.397 . S
C187 C185 1.397 . S
C187 C188 1.384 . S
C187 H210 0.930 . S
C188 C187 1.384 . S
C188 C189 1.377 . S
C188 C191 1.481 . S
C189 C188 1.377 . S
C189 C190 1.389 . S
C189 H211 0.929 . S
C190 C186 1.397 . S
C190 C189 1.389 . S
C190 H212 0.931 . S
C191 C188 1.481 . S
C191 C192 1.387 . S
C191 C196 1.390 . S
C192 C191 1.387 . S
C192 C193 1.401 . S
C192 H213 0.930 . S
C193 C192 1.401 . S
C193 C194 1.376 . S
C193 C202 1.511 . S
C194 C193 1.376 . S
C194 C195 1.392 . S
C194 H215 0.931 . S
C195 C194 1.392 . S
C195 C196 1.361 . S
C195 C197 1.500 . S
C196 C191 1.390 . S
C196 C195 1.361 . S
C196 H214 0.931 . S
C197 C195 1.500 . S
C197 C198 1.371 . S
C197 C199 1.365 . S
C198 C197 1.371 . S
C198 C208 1.403 . S
C198 H216 0.931 . S
C199 C197 1.365 . S
C199 C200 1.409 . S
C199 H217 0.929 . S
C200 C199 1.409 . S
C200 C201 1.380 . S
C200 H218 0.930 . S
C201 C200 1.380 . S
C201 C208 1.372 . S
C202 C193 1.511 . S
C202 C203 1.341 . S
C202 C204 1.371 . S
C203 C202 1.341 . S
C203 C207 1.394 . S
C203 H219 0.930 . S
C204 C202 1.371 . S
C204 C205 1.414 . S
C204 H220 0.931 . S
C205 C204 1.414 . S
C205 C206 1.350 . S
C205 H223 0.892 1_554 S
C206 C205 1.350 . S
C206 C207 1.336 . S
C207 C203 1.394 . S
C207 C206 1.336 . S
C207 H222 0.929 . S
C208 C198 1.403 . S
C208 C201 1.372 . S
C208 H221 0.897 1_554 S
H209 C185 0.931 . S
H210 C187 0.930 . S
H211 C189 0.929 . S
H212 C190 0.931 . S
H213 C192 0.930 . S
H214 C196 0.931 . S
H215 C194 0.931 . S
H216 C198 0.931 . S
H217 C199 0.929 . S
H218 C200 0.930 . S
H219 C203 0.930 . S
H220 C204 0.931 . S
H221 C208 0.897 1_556 S
H222 C207 0.929 . S
H223 C205 0.892 1_556 S
H224 C230 0.930 . S
H225 C234 0.930 . S
H226 C239 0.929 . S
H227 C237 0.929 . S
H228 C232 0.929 . S
H229 C238 0.929 . S
C230 H224 0.930 . S
C230 C231 1.367 1_556 S
C230 C238 1.378 . S
C231 C230 1.367 1_554 S
C231 C239 1.433 . S
C232 H228 0.929 . S
C232 C234 1.378 . S
C232 C236 1.350 . S
C233 C236 1.463 . S
C233 C238 1.350 1_554 S
C233 N241 1.427 . S
C234 H225 0.930 . S
C234 C232 1.378 . S
C234 C235 1.367 . S
C235 C234 1.367 . S
C235 C237 1.433 1_554 S
C236 C232 1.350 . S
C236 C233 1.463 . S
C236 N240 1.427 1_554 S
C237 H227 0.929 . S
C237 C235 1.433 1_556 S
C237 N240 1.384 . S
C238 H229 0.929 . S
C238 C230 1.378 . S
C238 C233 1.350 1_556 S
C239 H226 0.929 . S
C239 C231 1.433 . S
C239 N241 1.384 . S
N240 C236 1.427 1_556 S
N240 C237 1.384 . S
N241 C233 1.427 . S
N241 C239 1.384 . S
H242 C248 0.930 . S
H243 C252 0.930 . S
H244 C257 0.929 . S
H245 C255 0.929 . S
H246 C250 0.929 . S
H247 C256 0.929 . S
C248 H242 0.930 . S
C248 C249 1.367 . S
C248 C256 1.378 . S
C249 C248 1.367 . S
C249 C257 1.433 1_554 S
C250 H246 0.929 . S
C250 C252 1.378 . S
C250 C254 1.349 1_556 S
C251 C254 1.463 . S
C251 C256 1.350 . S
C251 N259 1.427 1_554 S
C252 H243 0.930 . S
C252 C250 1.378 . S
C252 C253 1.371 . S
C253 C252 1.371 . S
C253 C255 1.429 1_556 S
C254 C250 1.349 1_554 S
C254 C251 1.463 . S
C254 N258 1.428 . S
C255 H245 0.929 . S
C255 C253 1.429 1_554 S
C255 N258 1.384 . S
C256 H247 0.929 . S
C256 C248 1.378 . S
C256 C251 1.350 . S
C257 H244 0.929 . S
C257 C249 1.433 1_556 S
C257 N259 1.384 . S
N258 C254 1.428 . S
N258 C255 1.384 . S
N259 C251 1.427 1_556 S
N259 C257 1.384 . S
H260 C266 0.930 . S
H261 C270 0.930 . S
H262 C275 0.929 . S
H263 C273 0.929 . S
H264 C268 0.929 . S
H265 C274 0.929 . S
C266 H260 0.930 . S
C266 C267 1.367 1_556 S
C266 C274 1.378 . S
C267 C266 1.367 1_554 S
C267 C275 1.433 . S
C268 H264 0.929 . S
C268 C270 1.378 . S
C268 C272 1.350 . S
C269 C272 1.463 . S
C269 C274 1.350 1_554 S
C269 N277 1.427 . S
C270 H261 0.930 . S
C270 C268 1.378 . S
C270 C271 1.367 . S
C271 C270 1.367 . S
C271 C273 1.433 1_554 S
C272 C268 1.350 . S
C272 C269 1.463 . S
C272 N276 1.427 1_554 S
C273 H263 0.929 . S
C273 C271 1.433 1_556 S
C273 N276 1.384 . S
C274 H265 0.929 . S
C274 C266 1.378 . S
C274 C269 1.350 1_556 S
C275 H262 0.929 . S
C275 C267 1.433 . S
C275 N277 1.384 . S
N276 C272 1.427 1_556 S
N276 C273 1.384 . S
N277 C269 1.427 . S
N277 C275 1.384 . S
H278 C284 0.930 . S
H279 C288 0.930 . S
H280 C293 0.929 . S
H281 C291 0.929 . S
H282 C286 0.929 . S
H283 C292 0.929 . S
C284 H278 0.930 . S
C284 C285 1.367 . S
C284 C292 1.378 . S
C285 C284 1.367 . S
C285 C293 1.433 1_554 S
C286 H282 0.929 . S
C286 C288 1.378 . S
C286 C290 1.350 1_556 S
C287 C290 1.463 . S
C287 C292 1.350 . S
C287 N295 1.427 1_554 S
C288 H279 0.930 . S
C288 C286 1.378 . S
C288 C289 1.367 1_556 S
C289 C288 1.367 1_554 S
C289 C291 1.433 . S
C290 C286 1.350 1_554 S
C290 C287 1.463 . S
C290 N294 1.427 . S
C291 H281 0.929 . S
C291 C289 1.433 . S
C291 N294 1.384 . S
C292 H283 0.929 . S
C292 C284 1.378 . S
C292 C287 1.350 . S
C293 H280 0.929 . S
C293 C285 1.433 1_556 S
C293 N295 1.384 . S
N294 C290 1.427 . S
N294 C291 1.384 . S
N295 C287 1.427 1_556 S
N295 C293 1.384 . S
H296 C302 0.930 . S
H297 C306 0.930 . S
H298 C311 0.929 . S
H299 C309 0.929 . S
H300 C304 0.929 . S
H301 C310 0.929 . S
C302 H296 0.930 . S
C302 C303 1.367 . S
C302 C310 1.378 . S
C303 C302 1.367 . S
C303 C311 1.433 . S
C304 H300 0.929 . S
C304 C306 1.378 . S
C304 C308 1.350 . S
C305 C308 1.463 . S
C305 C310 1.350 . S
C305 N313 1.427 . S
C306 H297 0.930 . S
C306 C304 1.378 . S
C306 C307 1.367 . S
C307 C306 1.367 . S
C307 C309 1.433 . S
C308 C304 1.350 . S
C308 C305 1.463 . S
C308 N312 1.427 . S
C309 H299 0.929 . S
C309 C307 1.433 . S
C309 N312 1.384 . S
C310 H301 0.929 . S
C310 C302 1.378 . S
C310 C305 1.350 . S
C311 H298 0.929 . S
C311 C303 1.433 . S
C311 N313 1.384 . S
N312 C308 1.427 . S
N312 C309 1.384 . S
N313 C305 1.427 . S
N313 C311 1.384 . S
H314 C320 0.930 . S
H315 C324 0.930 . S
H316 C329 0.929 . S
H317 C327 0.929 . S
H318 C322 0.929 . S
H319 C328 0.929 . S
C320 H314 0.930 . S
C320 C321 1.367 . S
C320 C328 1.378 . S
C321 C320 1.367 . S
C321 C329 1.433 . S
C322 H318 0.929 . S
C322 C324 1.378 . S
C322 C326 1.350 . S
C323 C326 1.463 . S
C323 C328 1.350 . S
C323 N331 1.427 . S
C324 H315 0.930 . S
C324 C322 1.378 . S
C324 C325 1.367 . S
C325 C324 1.367 . S
C325 C327 1.433 . S
C326 C322 1.350 . S
C326 C323 1.463 . S
C326 N330 1.427 . S
C327 H317 0.929 . S
C327 C325 1.433 . S
C327 N330 1.384 . S
C328 H319 0.929 . S
C328 C320 1.378 . S
C328 C323 1.350 . S
C329 H316 0.929 . S
C329 C321 1.433 . S
C329 N331 1.384 . S
N330 C326 1.427 . S
N330 C327 1.384 . S
N331 C323 1.427 . S
N331 C329 1.384 . S
H332 C338 0.930 . S
H333 C342 0.930 . S
H334 C347 0.929 . S
H335 C345 0.929 . S
H336 C340 0.929 . S
H337 C346 0.929 . S
C338 H332 0.930 . S
C338 C339 1.367 . S
C338 C346 1.378 . S
C339 C338 1.367 . S
C339 C347 1.433 . S
C340 H336 0.929 . S
C340 C342 1.378 . S
C340 C344 1.350 . S
C341 C344 1.463 . S
C341 C346 1.350 . S
C341 N349 1.427 . S
C342 H333 0.930 . S
C342 C340 1.378 . S
C342 C343 1.367 . S
C343 C342 1.367 . S
C343 C345 1.433 . S
C344 C340 1.350 . S
C344 C341 1.463 . S
C344 N348 1.427 . S
C345 H335 0.929 . S
C345 C343 1.433 . S
C345 N348 1.384 . S
C346 H337 0.929 . S
C346 C338 1.378 . S
C346 C341 1.350 . S
C347 H334 0.929 . S
C347 C339 1.433 . S
C347 N349 1.384 . S
N348 C344 1.427 . S
N348 C345 1.384 . S
N349 C341 1.427 . S
N349 C347 1.384 . S
H350 C356 0.930 . S
H351 C360 0.930 . S
H352 C365 0.929 . S
H353 C363 0.929 . S
H354 C358 0.929 . S
H355 C364 0.929 . S
C356 H350 0.930 . S
C356 C357 1.367 . S
C356 C364 1.378 . S
C357 C356 1.367 . S
C357 C365 1.433 . S
C358 H354 0.929 . S
C358 C360 1.378 . S
C358 C362 1.350 . S
C359 C362 1.463 . S
C359 C364 1.350 . S
C359 N367 1.427 . S
C360 H351 0.930 . S
C360 C358 1.378 . S
C360 C361 1.367 . S
C361 C360 1.367 . S
C361 C363 1.433 . S
C362 C358 1.350 . S
C362 C359 1.463 . S
C362 N366 1.427 . S
C363 H353 0.929 . S
C363 C361 1.433 . S
C363 N366 1.384 . S
C364 H355 0.929 . S
C364 C356 1.378 . S
C364 C359 1.350 . S
C365 H352 0.929 . S
C365 C357 1.433 . S
C365 N367 1.384 . S
N366 C362 1.427 . S
N366 C363 1.384 . S
N367 C359 1.427 . S
N367 C365 1.384 . S
H368 C374 0.930 . S
H369 C378 0.930 . S
H370 C383 0.929 . S
H371 C381 0.929 . S
H372 C376 0.929 . S
H373 C382 0.929 . S
C374 H368 0.930 . S
C374 C375 1.367 1_665 S
C374 C382 1.378 . S
C375 C374 1.367 1_445 S
C375 C383 1.433 . S
C376 H372 0.929 . S
C376 C378 1.378 . S
C376 C380 1.350 . S
C377 C380 1.463 . S
C377 C382 1.350 1_445 S
C377 N385 1.427 . S
C378 H369 0.930 . S
C378 C376 1.378 . S
C378 C379 1.361 1_455 S
C379 C378 1.361 1_655 S
C379 C381 1.438 1_545 S
C380 C376 1.350 . S
C380 C377 1.463 . S
C380 N384 1.427 1_445 S
C381 H371 0.929 . S
C381 C379 1.438 1_565 S
C381 N384 1.384 . S
C382 H373 0.929 . S
C382 C374 1.378 . S
C382 C377 1.350 1_665 S
C383 H370 0.929 . S
C383 C375 1.433 . S
C383 N385 1.384 . S
N384 C380 1.427 1_665 S
N384 C381 1.384 . S
N385 C377 1.427 . S
N385 C383 1.384 . S
H386 C392 0.930 . S
H387 C396 0.930 1_655 S
H388 C401 0.929 . S
H389 C399 0.929 . S
H390 C394 0.933 . S
H391 C400 0.929 . S
C392 H386 0.930 . S
C392 C393 1.367 . S
C392 C400 1.378 . S
C393 C392 1.367 . S
C393 C401 1.433 1_445 S
C394 H390 0.933 . S
C394 C396 1.377 1_655 S
C394 C398 1.346 1_665 S
C395 C398 1.463 . S
C395 C400 1.350 . S
C395 N403 1.427 1_445 S
C396 H387 0.930 1_455 S
C396 C394 1.377 1_455 S
C396 C397 1.368 1_565 S
C397 C396 1.368 1_545 S
C397 C399 1.433 . S
C398 C394 1.346 1_445 S
C398 C395 1.463 . S
C398 N402 1.427 . S
C399 H389 0.929 . S
C399 C397 1.433 . S
C399 N402 1.384 . S
C400 H391 0.929 . S
C400 C392 1.378 . S
C400 C395 1.350 . S
C401 H388 0.929 . S
C401 C393 1.433 1_665 S
C401 N403 1.384 . S
N402 C398 1.427 . S
N402 C399 1.384 . S
N403 C395 1.427 1_665 S
N403 C401 1.384 . S
H404 C410 0.930 . S
H405 C414 0.930 . S
H406 C419 0.929 . S
H407 C417 0.929 . S
H408 C412 0.929 . S
H409 C418 0.929 . S
C410 H404 0.930 . S
C410 C411 1.367 . S
C410 C418 1.378 . S
C411 C410 1.367 . S
C411 C419 1.433 . S
C412 H408 0.929 . S
C412 C414 1.378 . S
C412 C416 1.350 . S
C413 C416 1.463 . S
C413 C418 1.350 . S
C413 N421 1.427 . S
C414 H405 0.930 . S
C414 C412 1.378 . S
C414 C415 1.367 . S
C415 C414 1.367 . S
C415 C417 1.433 . S
C416 C412 1.350 . S
C416 C413 1.463 . S
C416 N420 1.427 . S
C417 H407 0.929 . S
C417 C415 1.433 . S
C417 N420 1.384 . S
C418 H409 0.929 . S
C418 C410 1.378 . S
C418 C413 1.350 . S
C419 H406 0.929 . S
C419 C411 1.433 . S
C419 N421 1.384 . S
N420 C416 1.427 . S
N420 C417 1.384 . S
N421 C413 1.427 . S
N421 C419 1.384 . S
H422 C428 0.930 . S
H423 C432 0.930 . S
H424 C437 0.929 . S
H425 C435 0.929 . S
H426 C430 0.929 . S
H427 C436 0.929 . S
C428 H422 0.930 . S
C428 C429 1.367 . S
C428 C436 1.378 . S
C429 C428 1.367 . S
C429 C437 1.433 . S
C430 H426 0.929 . S
C430 C432 1.378 . S
C430 C434 1.350 . S
C431 C434 1.463 . S
C431 C436 1.350 . S
C431 N439 1.427 . S
C432 H423 0.930 . S
C432 C430 1.378 . S
C432 C433 1.367 . S
C433 C432 1.367 . S
C433 C435 1.433 . S
C434 C430 1.350 . S
C434 C431 1.463 . S
C434 N438 1.427 . S
C435 H425 0.929 . S
C435 C433 1.433 . S
C435 N438 1.384 . S
C436 H427 0.929 . S
C436 C428 1.378 . S
C436 C431 1.350 . S
C437 H424 0.929 . S
C437 C429 1.433 . S
C437 N439 1.384 . S
N438 C434 1.427 . S
N438 C435 1.384 . S
N439 C431 1.427 . S
N439 C437 1.384 . S
C235 C201 1.450 . S
C231 C29 1.506 . S
C249 C8 1.485 . S
C253 C162 1.455 . S
C267 C0 1.480 . S
C271 C206 1.437 . S
C285 C17 1.500 . S
C289 C167 1.454 1_554 S
C303 C63 1.505 . S
C307 C123 1.451 . S
C321 C42 1.486 . S
C325 C84 1.437 . S
C343 C128 1.435 . S
C339 C34 1.480 . S
C361 C89 1.459 . S
C357 C51 1.496 . S
C375 C4 1.487 . S
C379 C69 1.488 . S
C393 C13 1.485 . S
C397 C108 1.486 . S
C415 C147 1.487 . S
C411 C38 1.487 . S
C429 C47 1.482 . S
C433 C186 1.485 . S
