# Generated by pormake.
# Topology pto, (3,4)-cn, num edge types: 1
# Building blocks:
#     Node 0, Type 0, BuildingBlock: WUSLED_clean_sbu_0, # of connection points: 3
#     Node 1, Type 0, BuildingBlock: WUSLED_clean_sbu_0, # of connection points: 3
#     Node 2, Type 0, BuildingBlock: WUSLED_clean_sbu_0, # of connection points: 3
#     Node 3, Type 0, BuildingBlock: WUSLED_clean_sbu_0, # of connection points: 3
#     Node 4, Type 0, BuildingBlock: WUSLED_clean_sbu_0, # of connection points: 3
#     Node 5, Type 0, BuildingBlock: WUSLED_clean_sbu_0, # of connection points: 3
#     Node 6, Type 0, BuildingBlock: WUSLED_clean_sbu_0, # of connection points: 3
#     Node 7, Type 0, BuildingBlock: WUSLED_clean_sbu_0, # of connection points: 3
#     Node 8, Type 1, BuildingBlock: NAHDIM_clean_linker_0, # of connection points: 4
#     Node 9, Type 1, BuildingBlock: NAHDIM_clean_linker_0, # of connection points: 4
#     Node 10, Type 1, BuildingBlock: NAHDIM_clean_linker_0, # of connection points: 4
#     Node 11, Type 1, BuildingBlock: NAHDIM_clean_linker_0, # of connection points: 4
#     Node 12, Type 1, BuildingBlock: NAHDIM_clean_linker_0, # of connection points: 4
#     Node 13, Type 1, BuildingBlock: NAHDIM_clean_linker_0, # of connection points: 4
#     Edge 14, Type (0, 1), None
#     Edge 15, Type (0, 1), None
#     Edge 16, Type (0, 1), None
#     Edge 17, Type (0, 1), None
#     Edge 18, Type (0, 1), None
#     Edge 19, Type (0, 1), None
#     Edge 20, Type (0, 1), None
#     Edge 21, Type (0, 1), None
#     Edge 22, Type (0, 1), None
#     Edge 23, Type (0, 1), None
#     Edge 24, Type (0, 1), None
#     Edge 25, Type (0, 1), None
#     Edge 26, Type (0, 1), None
#     Edge 27, Type (0, 1), None
#     Edge 28, Type (0, 1), None
#     Edge 29, Type (0, 1), None
#     Edge 30, Type (0, 1), None
#     Edge 31, Type (0, 1), None
#     Edge 32, Type (0, 1), None
#     Edge 33, Type (0, 1), None
#     Edge 34, Type (0, 1), None
#     Edge 35, Type (0, 1), None
#     Edge 36, Type (0, 1), None
#     Edge 37, Type (0, 1), None
# Relax obj value: 0.002
# Max RMSD: 0.075
# Mean RMSD: 0.021
data_MOF--net-pto--node1-WUSLED_clean_sbu_0--node2-NAHDIM_clean_linker_0--edge1-none
_symmetry_space_group_name_H-M    P1
_symmetry_Int_Tables_number       1
_symmetry_cell_setting            triclinic
loop_
_symmetry_equiv_pos_as_xyz
'x, y, z'
_cell_length_a     50.050402
_cell_length_b     47.668445
_cell_length_c     45.057552
_cell_angle_alpha  88.828919
_cell_angle_beta   91.213358
_cell_angle_gamma 90.569858
loop_
_atom_site_label
_atom_site_type_symbol
_atom_site_fract_x
_atom_site_fract_y
_atom_site_fract_z
_atom_type_partial_charge
C0 C 0.29555 0.23839 0.32708 0.0
C1 C 0.32355 0.23846 0.35288 0.0
C2 C 0.29185 0.19705 0.39213 0.0
C3 C 0.32175 0.22016 0.38802 0.0
C4 C 0.25999 0.20295 0.37064 0.0
C5 C 0.26398 0.22192 0.33596 0.0
U6 U 0.27014 0.28743 0.26423 0.0
O7 O 0.22702 0.27783 0.26233 0.0
O8 O 0.24196 0.31322 0.28835 0.0
C9 C 0.22089 0.29994 0.27765 0.0
C10 C 0.2987 0.25383 0.2989 0.0
C11 C 0.2004 0.31798 0.26393 0.0
C12 C 0.14062 0.33668 0.26098 0.0
C13 C 0.1668 0.31555 0.27744 0.0
C14 C 0.18438 0.36186 0.21425 0.0
C15 C 0.15247 0.36444 0.23449 0.0
C16 C 0.209 0.33983 0.23236 0.0
C17 C 0.31747 0.31164 0.20206 0.0
C18 C 0.35115 0.34001 0.1772 0.0
C19 C 0.35963 0.29092 0.18824 0.0
C20 C 0.33437 0.2883 0.20105 0.0
C21 C 0.36841 0.31695 0.1765 0.0
C22 C 0.32598 0.33734 0.18974 0.0
C23 C 0.29136 0.31044 0.21666 0.0
O24 O 0.28413 0.24501 0.27629 0.0
O25 O 0.29952 0.28128 0.30082 0.0
O26 O 0.27821 0.2864 0.21636 0.0
O27 O 0.29063 0.32294 0.24233 0.0
H28 H 0.34173 0.24952 0.34709 0.0
H29 H 0.33926 0.21792 0.40232 0.0
H30 H 0.24197 0.19106 0.37521 0.0
H31 H 0.24731 0.22339 0.32036 0.0
H32 H 0.12094 0.33709 0.27043 0.0
H33 H 0.16229 0.30123 0.29561 0.0
H34 H 0.18994 0.37695 0.19716 0.0
H35 H 0.22918 0.33975 0.22425 0.0
H36 H 0.35735 0.36037 0.16857 0.0
H37 H 0.37256 0.27284 0.18814 0.0
H38 H 0.32828 0.26825 0.21057 0.0
H39 H 0.31329 0.3556 0.19036 0.0
C40 C 0.25148 0.79483 0.68167 0.0
C41 C 0.27361 0.81256 0.68666 0.0
C42 C 0.26424 0.83743 0.63977 0.0
C43 C 0.27996 0.83373 0.66584 0.0
C44 C 0.24194 0.81976 0.63519 0.0
C45 C 0.23561 0.79871 0.65597 0.0
U46 U 0.26407 0.74912 0.75201 0.0
O47 O 0.23442 0.73127 0.78281 0.0
O48 O 0.26005 0.70345 0.75801 0.0
C49 C 0.23948 0.70534 0.77548 0.0
C50 C 0.24483 0.77172 0.70243 0.0
C51 C 0.21608 0.68798 0.76718 0.0
C52 C 0.1833 0.65213 0.78042 0.0
C53 C 0.20431 0.67022 0.78849 0.0
C54 C 0.18515 0.6699 0.72973 0.0
C55 C 0.1737 0.65152 0.75085 0.0
C56 C 0.20609 0.68804 0.73784 0.0
C57 C 0.32429 0.76297 0.8046 0.0
C58 C 0.34067 0.77631 0.85367 0.0
C59 C 0.35684 0.73395 0.83171 0.0
C60 C 0.34071 0.73915 0.80645 0.0
C61 C 0.35702 0.75252 0.85559 0.0
C62 C 0.32461 0.78154 0.82842 0.0
C63 C 0.30752 0.76937 0.77778 0.0
O64 O 0.26144 0.75052 0.70321 0.0
O65 O 0.23722 0.77905 0.72889 0.0
O66 O 0.28346 0.77899 0.78252 0.0
O67 O 0.3079 0.75121 0.75621 0.0
H68 H 0.28611 0.80978 0.70641 0.0
H69 H 0.29739 0.84687 0.6698 0.0
H70 H 0.22961 0.82194 0.61524 0.0
H71 H 0.21849 0.78517 0.65175 0.0
H72 H 0.17502 0.63806 0.7971 0.0
H73 H 0.21177 0.66991 0.81124 0.0
H74 H 0.17834 0.66974 0.70676 0.0
H75 H 0.2149 0.70164 0.72107 0.0
H76 H 0.34021 0.79084 0.87181 0.0
H77 H 0.36905 0.71531 0.83269 0.0
H78 H 0.34115 0.72447 0.78845 0.0
H79 H 0.31238 0.80018 0.82755 0.0
C80 C 0.71086 0.71789 0.21027 0.0
C81 C 0.69859 0.68358 0.20051 0.0
C82 C 0.64644 0.7115 0.17882 0.0
C83 C 0.66484 0.67856 0.18736 0.0
C84 C 0.65531 0.74564 0.19641 0.0
C85 C 0.68961 0.74832 0.20933 0.0
U86 U 0.76528 0.74889 0.26206 0.0
O87 O 0.73949 0.7657 0.29625 0.0
O88 O 0.75711 0.7942 0.26298 0.0
C89 C 0.74347 0.79185 0.28758 0.0
C90 C 0.73797 0.71933 0.22304 0.0
C91 C 0.75049 0.8114 0.31158 0.0
C92 C 0.73664 0.83634 0.3551 0.0
C93 C 0.73052 0.81921 0.33105 0.0
C94 C 0.7828 0.83893 0.34011 0.0
C95 C 0.76288 0.84622 0.36011 0.0
C96 C 0.77669 0.82152 0.31613 0.0
C97 C 0.8304 0.70777 0.27205 0.0
C98 C 0.85375 0.66629 0.29077 0.0
C99 C 0.85203 0.67657 0.23794 0.0
C100 C 0.8372 0.70076 0.243 0.0
C101 C 0.85997 0.65873 0.26175 0.0
C102 C 0.83926 0.69057 0.29584 0.0
C103 C 0.81332 0.73207 0.27831 0.0
O104 O 0.75272 0.74125 0.21566 0.0
O105 O 0.7398 0.71255 0.25137 0.0
O106 O 0.79175 0.7259 0.2933 0.0
O107 O 0.80899 0.75056 0.25666 0.0
H108 H 0.71164 0.66569 0.2029 0.0
H109 H 0.65808 0.6585 0.17909 0.0
H110 H 0.64291 0.764 0.19361 0.0
H111 H 0.69737 0.76822 0.21698 0.0
H112 H 0.72087 0.84151 0.37011 0.0
H113 H 0.7102 0.8116 0.32796 0.0
H114 H 0.80318 0.84623 0.34343 0.0
H115 H 0.79249 0.81566 0.30148 0.0
H116 H 0.8597 0.65312 0.3096 0.0
H117 H 0.85674 0.67143 0.21535 0.0
H118 H 0.83072 0.71364 0.22417 0.0
H119 H 0.83443 0.69559 0.31845 0.0
C120 C 0.78097 0.22836 0.69693 0.0
C121 C 0.80504 0.2138 0.69466 0.0
C122 C 0.78134 0.17339 0.67443 0.0
C123 C 0.80524 0.18662 0.68368 0.0
C124 C 0.75722 0.18815 0.67617 0.0
C125 C 0.75701 0.21536 0.68741 0.0
U126 U 0.75901 0.28444 0.75169 0.0
O127 O 0.74864 0.2578 0.79038 0.0
O128 O 0.71714 0.2724 0.75931 0.0
C129 C 0.72283 0.25967 0.78481 0.0
C130 C 0.7817 0.25695 0.70915 0.0
C131 C 0.70642 0.26722 0.81024 0.0
C132 C 0.68599 0.25339 0.85684 0.0
C133 C 0.70097 0.24678 0.83214 0.0
C134 C 0.68122 0.30104 0.8379 0.0
C135 C 0.676 0.28061 0.86009 0.0
C136 C 0.6964 0.29445 0.81325 0.0
C137 C 0.79157 0.35733 0.74941 0.0
C138 C 0.80712 0.42066 0.7411 0.0
C139 C 0.83938 0.37135 0.70775 0.0
C140 C 0.81705 0.34616 0.72465 0.0
C141 C 0.83746 0.40738 0.72303 0.0
C142 C 0.78599 0.39378 0.75675 0.0
C143 C 0.77306 0.33664 0.76212 0.0
O144 O 0.76039 0.27257 0.70476 0.0
O145 O 0.79212 0.25896 0.73606 0.0
O146 O 0.78418 0.31493 0.77566 0.0
O147 O 0.75262 0.32978 0.74489 0.0
H148 H 0.82378 0.22341 0.7017 0.0
H149 H 0.82411 0.17578 0.68274 0.0
H150 H 0.73851 0.17843 0.66929 0.0
H151 H 0.73811 0.22607 0.68886 0.0
H152 H 0.68245 0.23726 0.87361 0.0
H153 H 0.70854 0.22568 0.83027 0.0
H154 H 0.67389 0.3222 0.83989 0.0
H155 H 0.70047 0.31064 0.7967 0.0
H156 H 0.80544 0.44229 0.74757 0.0
H157 H 0.85606 0.36474 0.69479 0.0
H158 H 0.81887 0.32415 0.71978 0.0
H159 H 0.76972 0.39958 0.77071 0.0
C160 C 0.80875 0.68233 0.76545 0.0
C161 C 0.82497 0.68887 0.74121 0.0
C162 C 0.84588 0.64304 0.74608 0.0
C163 C 0.84336 0.66932 0.73152 0.0
C164 C 0.82973 0.6368 0.77054 0.0
C165 C 0.81137 0.65633 0.78019 0.0
U166 U 0.77289 0.75265 0.75957 0.0
O167 O 0.72996 0.76156 0.76049 0.0
O168 O 0.75692 0.77852 0.79491 0.0
C169 C 0.73205 0.77459 0.78588 0.0
C170 C 0.78826 0.70183 0.77488 0.0
C171 C 0.71356 0.76495 0.80893 0.0
C172 C 0.68981 0.72752 0.83492 0.0
C173 C 0.70762 0.73631 0.81307 0.0
C174 C 0.68428 0.77581 0.84928 0.0
C175 C 0.67765 0.7472 0.85299 0.0
C176 C 0.70191 0.7846 0.82725 0.0
C177 C 0.79175 0.81005 0.70541 0.0
C178 C 0.76143 0.84891 0.69666 0.0
C179 C 0.80709 0.85244 0.67997 0.0
C180 C 0.81206 0.82538 0.69132 0.0
C181 C 0.78162 0.8644 0.68234 0.0
C182 C 0.76646 0.82205 0.70816 0.0
C183 C 0.79706 0.78198 0.71813 0.0
O184 O 0.79717 0.72446 0.78821 0.0
O185 O 0.76913 0.70698 0.75515 0.0
O186 O 0.77854 0.76298 0.71237 0.0
O187 O 0.80519 0.78159 0.74606 0.0
H188 H 0.82305 0.70886 0.7295 0.0
H189 H 0.85527 0.67448 0.71234 0.0
H190 H 0.83099 0.61659 0.7819 0.0
H191 H 0.79888 0.65094 0.79885 0.0
H192 H 0.68556 0.70532 0.8378 0.0
H193 H 0.71676 0.72075 0.79943 0.0
H194 H 0.67579 0.79139 0.8634 0.0
H195 H 0.70654 0.80675 0.82458 0.0
H196 H 0.74178 0.85777 0.69919 0.0
H197 H 0.82319 0.86404 0.66953 0.0
H198 H 0.83178 0.81653 0.68933 0.0
H199 H 0.75063 0.81068 0.71938 0.0
C200 C 0.70352 0.28349 0.22279 0.0
C201 C 0.70656 0.28033 0.19207 0.0
C202 C 0.66739 0.30909 0.18181 0.0
C203 C 0.68861 0.29289 0.17184 0.0
C204 C 0.66419 0.31198 0.2125 0.0
C205 C 0.68201 0.29919 0.23278 0.0
U206 U 0.7738 0.27878 0.25622 0.0
O207 O 0.78791 0.27532 0.3027 0.0
O208 O 0.79762 0.24251 0.27129 0.0
C209 C 0.79832 0.25046 0.29907 0.0
C210 C 0.72277 0.2711 0.24459 0.0
C211 C 0.79075 0.22896 0.32117 0.0
C212 C 0.75951 0.19397 0.34005 0.0
C213 C 0.76668 0.21381 0.31827 0.0
C214 C 0.80038 0.20429 0.36772 0.0
C215 C 0.77623 0.18915 0.3651 0.0
C216 C 0.80758 0.224 0.3459 0.0
C217 C 0.82881 0.32541 0.22601 0.0
C218 C 0.87222 0.32684 0.25101 0.0
C219 C 0.86554 0.35121 0.20371 0.0
C220 C 0.83888 0.34216 0.20284 0.0
C221 C 0.88245 0.34377 0.22791 0.0
C222 C 0.84562 0.31771 0.25005 0.0
C223 C 0.80087 0.31583 0.22494 0.0
O224 O 0.74149 0.25521 0.23391 0.0
O225 O 0.73179 0.28816 0.26515 0.0
O226 O 0.78681 0.32235 0.24808 0.0
O227 O 0.79719 0.28975 0.21675 0.0
H228 H 0.72289 0.26834 0.18357 0.0
H229 H 0.69143 0.29014 0.14831 0.0
H230 H 0.64795 0.32422 0.22083 0.0
H231 H 0.67914 0.30182 0.25632 0.0
H232 H 0.74073 0.18268 0.33758 0.0
H233 H 0.75339 0.21752 0.29933 0.0
H234 H 0.81356 0.2011 0.38684 0.0
H235 H 0.82619 0.2356 0.34848 0.0
H236 H 0.88489 0.32053 0.26971 0.0
H237 H 0.873 0.3639 0.18541 0.0
H238 H 0.82616 0.34813 0.18405 0.0
H239 H 0.83816 0.3046 0.26804 0.0
C240 C 0.24364 0.21654 0.70904 0.0
C241 C 0.27118 0.21263 0.70584 0.0
C242 C 0.26262 0.16754 0.68296 0.0
C243 C 0.28057 0.1884 0.69281 0.0
C244 C 0.23502 0.17149 0.68635 0.0
C245 C 0.22563 0.19588 0.69916 0.0
U246 U 0.25392 0.27319 0.7657 0.0
O247 O 0.24477 0.31816 0.76451 0.0
O248 O 0.22616 0.29039 0.79779 0.0
C249 C 0.22655 0.31542 0.78502 0.0
C250 C 0.23364 0.24129 0.72408 0.0
C251 C 0.20015 0.32697 0.7771 0.0
C252 C 0.16468 0.33609 0.74069 0.0
C253 C 0.18994 0.32549 0.74791 0.0
C254 C 0.15912 0.34908 0.7919 0.0
C255 C 0.14908 0.34826 0.7625 0.0
C256 C 0.18457 0.33874 0.79905 0.0
C257 C 0.31973 0.27367 0.81064 0.0
C258 C 0.34264 0.31317 0.83353 0.0
C259 C 0.35029 0.26593 0.8525 0.0
C260 C 0.33256 0.25544 0.83102 0.0
C261 C 0.35582 0.29489 0.85373 0.0
C262 C 0.32468 0.30268 0.81221 0.0
C263 C 0.3015 0.26186 0.78794 0.0
O264 O 0.22871 0.23731 0.75238 0.0
O265 O 0.24639 0.265 0.71842 0.0
O266 O 0.29759 0.27722 0.76368 0.0
O267 O 0.27951 0.25011 0.79798 0.0
H268 H 0.28546 0.22813 0.71378 0.0
H269 H 0.30192 0.18568 0.69088 0.0
H270 H 0.22072 0.15558 0.67949 0.0
H271 H 0.20433 0.19841 0.70181 0.0
H272 H 0.15716 0.33458 0.71805 0.0
H273 H 0.20141 0.31598 0.73071 0.0
H274 H 0.14732 0.35764 0.80937 0.0
H275 H 0.19199 0.33967 0.82178 0.0
H276 H 0.34624 0.33559 0.8343 0.0
H277 H 0.35975 0.25136 0.8681 0.0
H278 H 0.32887 0.23302 0.83029 0.0
H279 H 0.31479 0.31724 0.79694 0.0
C280 C 0.20738 0.71603 0.26614 0.0
C281 C 0.20377 0.70816 0.23644 0.0
C282 C 0.17348 0.67051 0.2516 0.0
C283 C 0.18695 0.68562 0.22926 0.0
C284 C 0.1777 0.67803 0.2814 0.0
C285 C 0.1943 0.70076 0.28853 0.0
U286 U 0.27123 0.7591 0.25624 0.0
O287 O 0.278 0.8047 0.25576 0.0
O288 O 0.29804 0.77818 0.2897 0.0
C289 C 0.29263 0.80383 0.28035 0.0
C290 C 0.22501 0.73969 0.27422 0.0
C291 C 0.28498 0.82328 0.30351 0.0
C292 C 0.25119 0.84766 0.33069 0.0
C293 C 0.25803 0.82907 0.30857 0.0
C294 C 0.2981 0.8543 0.34341 0.0
C295 C 0.27114 0.8606 0.34823 0.0
C296 C 0.30493 0.83591 0.3211 0.0
C297 C 0.3227 0.7406 0.20045 0.0
C298 C 0.3574 0.77428 0.1873 0.0
C299 C 0.36349 0.72487 0.17805 0.0
C300 C 0.33834 0.71893 0.18977 0.0
C301 C 0.37316 0.75269 0.17642 0.0
C302 C 0.33244 0.76831 0.19925 0.0
C303 C 0.29703 0.73414 0.21443 0.0
O304 O 0.24786 0.73274 0.28713 0.0
O305 O 0.22737 0.75987 0.25406 0.0
O306 O 0.27793 0.7524 0.20889 0.0
O307 O 0.29887 0.72638 0.24255 0.0
H308 H 0.214 0.71934 0.21878 0.0
H309 H 0.18457 0.67984 0.20622 0.0
H310 H 0.16818 0.66633 0.29919 0.0
H311 H 0.1971 0.70632 0.3116 0.0
H312 H 0.23027 0.85181 0.33427 0.0
H313 H 0.24229 0.81922 0.29547 0.0
H314 H 0.3139 0.86352 0.35692 0.0
H315 H 0.32581 0.83144 0.31767 0.0
H316 H 0.36464 0.79578 0.18699 0.0
H317 H 0.37546 0.70769 0.17057 0.0
H318 H 0.33129 0.69738 0.19098 0.0
H319 H 0.32092 0.7853 0.20796 0.0
C320 C 0.92799 0.33311 0.21036 0.0
C321 C 0.91148 0.35291 0.22883 0.0
C322 C 0.93368 0.39853 0.22473 0.0
C323 C 0.9417 0.40289 0.25432 0.0
C324 C 0.96261 0.42166 0.26118 0.0
C325 C 0.97573 0.43626 0.23794 0.0
C326 C 0.96711 0.4325 0.20815 0.0
C327 C 0.94586 0.41395 0.202 0.0
C328 C 0.97087 0.42569 0.29322 0.0
C329 C 0.98069 0.44762 0.18278 0.0
C330 C 0.1791 0.36378 0.26508 0.0
C331 C 0.16029 0.38588 0.25376 0.0
C332 C 0.11912 0.40891 0.26852 0.0
C333 C 0.11286 0.42048 0.24027 0.0
C334 C 0.08971 0.43658 0.23548 0.0
C335 C 0.07263 0.44148 0.25945 0.0
C336 C 0.07913 0.43023 0.28797 0.0
C337 C 0.10223 0.41401 0.29207 0.0
C338 C 0.08327 0.44805 0.20473 0.0
C339 C 0.06145 0.43504 0.31406 0.0
C340 C 0.11289 0.62668 0.26036 0.0
C341 C 0.10499 0.61422 0.23348 0.0
C342 C 0.08144 0.59812 0.23146 0.0
C343 C 0.06575 0.59382 0.25695 0.0
C344 C 0.0735 0.60649 0.28395 0.0
C345 C 0.09687 0.62296 0.28518 0.0
C346 C 0.07341 0.58552 0.20206 0.0
C347 C 0.05727 0.60233 0.31157 0.0
C348 C 0.85566 0.6115 0.2384 0.0
C349 C 0.87382 0.6311 0.25649 0.0
C350 C 0.91991 0.6202 0.24384 0.0
C351 C 0.93453 0.61563 0.21832 0.0
C352 C 0.95803 0.59971 0.21952 0.0
C353 C 0.96738 0.58849 0.2471 0.0
C354 C 0.95299 0.5935 0.27313 0.0
C355 C 0.92948 0.60938 0.27128 0.0
C356 C 0.97299 0.595 0.19136 0.0
C357 C 0.96277 0.58251 0.30304 0.0
C358 C 0.99924 0.45445 0.24464 0.0
C359 C 0.02399 0.44145 0.24887 0.0
C360 C 0.04725 0.45709 0.25446 0.0
C361 C 0.04593 0.48671 0.25536 0.0
C362 C 0.06895 0.5032 0.26036 0.0
C363 C 0.06753 0.53234 0.26051 0.0
C364 C 0.04299 0.54612 0.25597 0.0
C365 C 0.04147 0.57573 0.25536 0.0
C366 C 0.01663 0.58873 0.2522 0.0
C367 C 0.99306 0.57299 0.2491 0.0
C368 C 0.9943 0.54334 0.24834 0.0
C369 C 0.97117 0.5268 0.2441 0.0
C370 C 0.9727 0.49767 0.24297 0.0
C371 C 0.9974 0.48396 0.24623 0.0
C372 C 0.0209 0.50016 0.2512 0.0
C373 C 0.01938 0.52989 0.25189 0.0
C374 C 0.17336 0.61894 0.24375 0.0
C375 C 0.15623 0.64543 0.24351 0.0
O376 O 0.91399 0.38002 0.21739 0.0
O377 O 0.89733 0.63587 0.2413 0.0
O378 O 0.13567 0.64226 0.26351 0.0
O379 O 0.14092 0.39257 0.27398 0.0
H380 H 0.91922 0.35135 0.2521 0.0
H381 H 0.94943 0.33934 0.21169 0.0
H382 H 0.92129 0.33394 0.18669 0.0
H383 H 0.92608 0.31119 0.219 0.0
H384 H 0.93148 0.39197 0.27213 0.0
H385 H 0.93918 0.41073 0.17927 0.0
H386 H 0.99102 0.41671 0.29728 0.0
H387 H 0.95676 0.41536 0.30881 0.0
H388 H 0.97213 0.44841 0.29812 0.0
H389 H 0.97259 0.44114 0.16079 0.0
H390 H 0.00249 0.44348 0.18379 0.0
H391 H 0.97803 0.47059 0.18474 0.0
H392 H 0.17011 0.40466 0.24342 0.0
H393 H 0.17146 0.32979 0.23701 0.0
H394 H 0.17664 0.36226 0.28988 0.0
H395 H 0.19917 0.3746 0.26654 0.0
H396 H 0.12577 0.41677 0.22181 0.0
H397 H 0.10718 0.40505 0.31377 0.0
H398 H 0.06329 0.44029 0.19725 0.0
H399 H 0.09828 0.44198 0.18829 0.0
H400 H 0.08239 0.4713 0.20519 0.0
H401 H 0.07038 0.42686 0.33526 0.0
H402 H 0.04186 0.42445 0.31026 0.0
H403 H 0.05765 0.45782 0.31619 0.0
H404 H 0.14781 0.64938 0.22079 0.0
H405 H 0.11699 0.61687 0.21395 0.0
H406 H 0.10303 0.63272 0.30578 0.0
H407 H 0.07588 0.56242 0.20346 0.0
H408 H 0.08567 0.59387 0.18355 0.0
H409 H 0.05203 0.58975 0.1968 0.0
H410 H 0.0671 0.61179 0.33136 0.0
H411 H 0.05399 0.57958 0.3161 0.0
H412 H 0.03735 0.61204 0.30805 0.0
H413 H 0.87772 0.62034 0.2782 0.0
H414 H 0.83628 0.60821 0.24961 0.0
H415 H 0.86537 0.59079 0.23645 0.0
H416 H 0.85183 0.6202 0.21566 0.0
H417 H 0.92727 0.62439 0.19731 0.0
H418 H 0.9192 0.61391 0.29147 0.0
H419 H 0.97614 0.5722 0.18848 0.0
H420 H 0.99299 0.60521 0.19298 0.0
H421 H 0.96224 0.60359 0.1714 0.0
H422 H 0.94935 0.58819 0.32124 0.0
H423 H 0.98308 0.59103 0.30797 0.0
H424 H 0.96431 0.5593 0.30261 0.0
H425 H 0.02518 0.41877 0.24778 0.0
H426 H 0.08837 0.49376 0.26392 0.0
H427 H 0.08595 0.54396 0.26427 0.0
H428 H 0.01564 0.61147 0.25211 0.0
H429 H 0.95166 0.53623 0.24135 0.0
H430 H 0.95427 0.486 0.2395 0.0
H431 H 0.18996 0.62149 0.2279 0.0
H432 H 0.16113 0.60052 0.23697 0.0
H433 H 0.18188 0.61467 0.26635 0.0
C434 C 0.10131 0.33392 0.75607 0.0
C435 C 0.12129 0.35844 0.75425 0.0
C436 C 0.09289 0.3974 0.769 0.0
C437 C 0.08109 0.40323 0.74097 0.0
C438 C 0.05943 0.42156 0.73789 0.0
C439 C 0.04885 0.43381 0.7634 0.0
C440 C 0.06072 0.42812 0.79163 0.0
C441 C 0.08289 0.41033 0.79396 0.0
C442 C 0.04773 0.42771 0.70732 0.0
C443 C 0.04982 0.44061 0.81934 0.0
C444 C 0.83344 0.38325 0.75667 0.0
C445 C 0.85373 0.40512 0.7486 0.0
C446 C 0.90193 0.4093 0.74555 0.0
C447 C 0.90856 0.42333 0.77179 0.0
C448 C 0.93295 0.438 0.77479 0.0
C449 C 0.95076 0.43919 0.75072 0.0
C450 C 0.94406 0.42483 0.7243 0.0
C451 C 0.91994 0.40962 0.72233 0.0
C452 C 0.93978 0.45192 0.8038 0.0
C453 C 0.96242 0.42526 0.69816 0.0
C454 C 0.91223 0.6201 0.73202 0.0
C455 C 0.91955 0.61047 0.76061 0.0
C456 C 0.94368 0.59625 0.76572 0.0
C457 C 0.96056 0.59129 0.74158 0.0
C458 C 0.95371 0.60211 0.71295 0.0
C459 C 0.92971 0.61677 0.70865 0.0
C460 C 0.95081 0.58594 0.79674 0.0
C461 C 0.9713 0.5974 0.68677 0.0
C462 C 0.16677 0.60147 0.73809 0.0
C463 C 0.153 0.62989 0.74115 0.0
C464 C 0.1087 0.61445 0.7586 0.0
C465 C 0.09281 0.61129 0.78362 0.0
C466 C 0.06803 0.59719 0.78219 0.0
C467 C 0.05882 0.5861 0.7549 0.0
C468 C 0.07447 0.58974 0.72929 0.0
C469 C 0.09922 0.60382 0.73137 0.0
C470 C 0.05177 0.59394 0.80988 0.0
C471 C 0.06507 0.57859 0.6997 0.0
C472 C 0.02503 0.45206 0.76042 0.0
C473 C 0.99992 0.43905 0.75817 0.0
C474 C 0.97668 0.4547 0.75345 0.0
C475 C 0.97851 0.48433 0.75101 0.0
C476 C 0.95576 0.50078 0.74529 0.0
C477 C 0.95768 0.52991 0.74347 0.0
C478 C 0.98245 0.54377 0.74721 0.0
C479 C 0.9845 0.5734 0.74594 0.0
C480 C 0.00953 0.58648 0.74885 0.0
C481 C 0.03281 0.57075 0.75305 0.0
C482 C 0.03108 0.54109 0.75491 0.0
C483 C 0.05399 0.52458 0.75939 0.0
C484 C 0.0521 0.49543 0.76099 0.0
C485 C 0.02718 0.48165 0.75861 0.0
C486 C 0.00381 0.49784 0.75401 0.0
C487 C 0.00578 0.52759 0.75209 0.0
C488 C 0.85089 0.60716 0.70707 0.0
C489 C 0.86393 0.6208 0.73426 0.0
O490 O 0.11379 0.37956 0.77303 0.0
O491 O 0.1329 0.6276 0.76188 0.0
O492 O 0.88834 0.63249 0.72645 0.0
O493 O 0.87872 0.39459 0.74247 0.0
H494 H 0.12194 0.36658 0.73101 0.0
H495 H 0.08106 0.34101 0.74894 0.0
H496 H 0.10034 0.3255 0.77922 0.0
H497 H 0.10723 0.31684 0.74122 0.0
H498 H 0.08865 0.39382 0.72127 0.0
H499 H 0.09216 0.40586 0.81547 0.0
H500 H 0.02765 0.41779 0.7054 0.0
H501 H 0.06032 0.41956 0.68946 0.0
H502 H 0.04529 0.45067 0.70375 0.0
H503 H 0.06016 0.43259 0.83981 0.0
H504 H 0.02813 0.43583 0.82086 0.0
H505 H 0.05217 0.46378 0.81825 0.0
H506 H 0.85408 0.424 0.76285 0.0
H507 H 0.82799 0.38792 0.78017 0.0
H508 H 0.8449 0.36367 0.76289 0.0
H509 H 0.8055 0.38504 0.72117 0.0
H510 H 0.89495 0.42225 0.79016 0.0
H511 H 0.91477 0.39833 0.70234 0.0
H512 H 0.93895 0.47504 0.80066 0.0
H513 H 0.96042 0.44652 0.81126 0.0
H514 H 0.92574 0.44567 0.82158 0.0
H515 H 0.95202 0.41829 0.67752 0.0
H516 H 0.97926 0.41082 0.70302 0.0
H517 H 0.97086 0.44661 0.69421 0.0
H518 H 0.86672 0.60392 0.7515 0.0
H519 H 0.90633 0.61401 0.77887 0.0
H520 H 0.92396 0.62473 0.68675 0.0
H521 H 0.94876 0.56274 0.79793 0.0
H522 H 0.93769 0.59497 0.81361 0.0
H523 H 0.97192 0.59134 0.80238 0.0
H524 H 0.96253 0.6061 0.66572 0.0
H525 H 0.97462 0.57459 0.68421 0.0
H526 H 0.99111 0.60747 0.69075 0.0
H527 H 0.14445 0.63657 0.71917 0.0
H528 H 0.18334 0.60337 0.72212 0.0
H529 H 0.15246 0.58543 0.72969 0.0
H530 H 0.17497 0.59395 0.75992 0.0
H531 H 0.10009 0.61967 0.8045 0.0
H532 H 0.11095 0.60626 0.71161 0.0
H533 H 0.04723 0.5714 0.81424 0.0
H534 H 0.03242 0.60488 0.80655 0.0
H535 H 0.06223 0.60265 0.82969 0.0
H536 H 0.07861 0.58479 0.68143 0.0
H537 H 0.04469 0.58637 0.69415 0.0
H538 H 0.0639 0.55533 0.70104 0.0
H539 H 0.99849 0.41633 0.75972 0.0
H540 H 0.93616 0.49133 0.74222 0.0
H541 H 0.93943 0.54141 0.7391 0.0
H542 H 0.01094 0.6092 0.74764 0.0
H543 H 0.07368 0.53401 0.76165 0.0
H544 H 0.07045 0.48383 0.7643 0.0
H545 H 0.83127 0.59768 0.71288 0.0
H546 H 0.86393 0.59028 0.6991 0.0
H547 H 0.84788 0.62287 0.68877 0.0
C548 C 0.27759 0.11924 0.69592 0.0
C549 C 0.27328 0.14071 0.67048 0.0
C550 C 0.25963 0.10935 0.62998 0.0
C551 C 0.28519 0.09889 0.62443 0.0
C552 C 0.28849 0.07681 0.60475 0.0
C553 C 0.2658 0.06479 0.59053 0.0
C554 C 0.24011 0.07556 0.59566 0.0
C555 C 0.23743 0.0979 0.61514 0.0
C556 C 0.31621 0.06608 0.59942 0.0
C557 C 0.21549 0.06317 0.58089 0.0
C558 C 0.29537 0.84769 0.59837 0.0
C559 C 0.27192 0.85872 0.61588 0.0
C560 C 0.27718 0.90945 0.6143 0.0
C561 C 0.25325 0.91813 0.60033 0.0
C562 C 0.25161 0.94432 0.58553 0.0
C563 C 0.27449 0.96201 0.58438 0.0
C564 C 0.29848 0.95348 0.59903 0.0
C565 C 0.29936 0.92745 0.61419 0.0
C566 C 0.22541 0.95311 0.57117 0.0
C567 C 0.32322 0.97181 0.59859 0.0
C568 C 0.28117 0.92518 0.39105 0.0
C569 C 0.25692 0.93529 0.40165 0.0
C570 C 0.25627 0.96011 0.41781 0.0
C571 C 0.28037 0.97486 0.42395 0.0
C572 C 0.3047 0.96509 0.41282 0.0
C573 C 0.30471 0.94046 0.39629 0.0
C574 C 0.22984 0.97032 0.42875 0.0
C575 C 0.33074 0.98031 0.41896 0.0
C576 C 0.3014 0.19282 0.35192 0.0
C577 C 0.3022 0.17349 0.37842 0.0
C578 C 0.28281 0.12832 0.3952 0.0
C579 C 0.25947 0.11198 0.39459 0.0
C580 C 0.25716 0.08732 0.41202 0.0
C581 C 0.27915 0.07825 0.42993 0.0
C582 C 0.30293 0.09461 0.4306 0.0
C583 C 0.30433 0.1197 0.41374 0.0
C584 C 0.23132 0.07077 0.41089 0.0
C585 C 0.32723 0.08527 0.44851 0.0
C586 C 0.26889 0.04027 0.57119 0.0
C587 C 0.26994 0.01366 0.58482 0.0
C588 C 0.27328 0.98956 0.56822 0.0
C589 C 0.2755 0.99198 0.53699 0.0
C590 C 0.27904 0.96825 0.51955 0.0
C591 C 0.2806 0.97077 0.48883 0.0
C592 C 0.27904 0.99716 0.47436 0.0
C593 C 0.28012 0.99981 0.44311 0.0
C594 C 0.27998 0.02641 0.42949 0.0
C595 C 0.27799 0.05072 0.44617 0.0
C596 C 0.27552 0.04838 0.47741 0.0
C597 C 0.27216 0.07214 0.49488 0.0
C598 C 0.27009 0.06958 0.5256 0.0
C599 C 0.27105 0.04313 0.54003 0.0
C600 C 0.27427 0.01886 0.52287 0.0
C601 C 0.27631 0.02148 0.49153 0.0
C602 C 0.26027 0.86341 0.40163 0.0
C603 C 0.2634 0.88024 0.37252 0.0
O604 O 0.25534 0.1301 0.64958 0.0
O605 O 0.28386 0.15147 0.37695 0.0
O606 O 0.28293 0.90083 0.37601 0.0
O607 O 0.27925 0.88407 0.62842 0.0
H608 H 0.29281 0.14557 0.66013 0.0
H609 H 0.28634 0.09969 0.68755 0.0
H610 H 0.2583 0.11385 0.70652 0.0
H611 H 0.29163 0.12781 0.71298 0.0
H612 H 0.30269 0.10762 0.63542 0.0
H613 H 0.21782 0.10618 0.6194 0.0
H614 H 0.31794 0.04435 0.60852 0.0
H615 H 0.332 0.07927 0.61002 0.0
H616 H 0.31982 0.06538 0.57521 0.0
H617 H 0.19687 0.07345 0.58783 0.0
H618 H 0.21407 0.04039 0.58638 0.0
H619 H 0.217 0.06541 0.55641 0.0
H620 H 0.25481 0.86149 0.59995 0.0
H621 H 0.29004 0.8272 0.58839 0.0
H622 H 0.31337 0.84503 0.613 0.0
H623 H 0.30033 0.86276 0.58012 0.0
H624 H 0.23573 0.90468 0.60141 0.0
H625 H 0.31761 0.9207 0.62543 0.0
H626 H 0.22008 0.97446 0.57833 0.0
H627 H 0.20882 0.93838 0.57671 0.0
H628 H 0.22743 0.95396 0.54669 0.0
H629 H 0.34103 0.96082 0.60805 0.0
H630 H 0.3198 0.99081 0.61176 0.0
H631 H 0.32748 0.97882 0.5755 0.0
H632 H 0.24391 0.88984 0.36609 0.0
H633 H 0.23843 0.92398 0.39763 0.0
H634 H 0.32328 0.93261 0.38789 0.0
H635 H 0.22932 0.96768 0.45326 0.0
H636 H 0.21261 0.95864 0.41892 0.0
H637 H 0.22748 0.99302 0.42337 0.0
H638 H 0.34811 0.96931 0.4098 0.0
H639 H 0.33394 0.98243 0.44329 0.0
H640 H 0.32987 0.0018 0.40904 0.0
H641 H 0.32291 0.16732 0.38498 0.0
H642 H 0.28826 0.2309 0.36885 0.0
H643 H 0.29018 0.18132 0.33385 0.0
H644 H 0.32146 0.19068 0.34137 0.0
H645 H 0.24293 0.11867 0.38032 0.0
H646 H 0.32264 0.13182 0.41472 0.0
H647 H 0.22542 0.06407 0.4336 0.0
H648 H 0.23413 0.05157 0.39782 0.0
H649 H 0.21477 0.08303 0.40034 0.0
H650 H 0.34531 0.0979 0.44307 0.0
H651 H 0.33144 0.06283 0.44457 0.0
H652 H 0.3234 0.08744 0.47251 0.0
H653 H 0.26824 0.01171 0.60875 0.0
H654 H 0.28046 0.94741 0.52944 0.0
H655 H 0.28317 0.95172 0.47658 0.0
H656 H 0.28137 0.0282 0.40552 0.0
H657 H 0.27109 0.09298 0.48496 0.0
H658 H 0.26766 0.08862 0.53792 0.0
H659 H 0.24494 0.8466 0.39884 0.0
H660 H 0.25373 0.87725 0.41956 0.0
H661 H 0.27956 0.85372 0.40866 0.0
C662 C 0.42087 0.75881 0.19193 0.0
C663 C 0.40095 0.75956 0.1656 0.0
C664 C 0.4296 0.74277 0.12612 0.0
C665 C 0.44302 0.76832 0.12033 0.0
C666 C 0.46517 0.76947 0.10177 0.0
C667 C 0.47443 0.74455 0.08914 0.0
C668 C 0.46096 0.71881 0.09483 0.0
C669 C 0.43844 0.71839 0.11288 0.0
C670 C 0.47884 0.79734 0.09583 0.0
C671 C 0.47058 0.6917 0.08224 0.0
C672 C 0.68176 0.71954 0.16609 0.0
C673 C 0.65575 0.7154 0.14992 0.0
C674 C 0.62153 0.74038 0.12062 0.0
C675 C 0.60557 0.71639 0.1155 0.0
C676 C 0.58166 0.71811 0.09875 0.0
C677 C 0.57299 0.74446 0.08742 0.0
C678 C 0.58853 0.76881 0.09323 0.0
C679 C 0.61278 0.76636 0.10943 0.0
C680 C 0.56561 0.69167 0.09319 0.0
C681 C 0.57947 0.7974 0.08241 0.0
C682 C 0.61582 0.754 0.89512 0.0
C683 C 0.6062 0.72785 0.90554 0.0
C684 C 0.58208 0.72581 0.92081 0.0
C685 C 0.56753 0.75043 0.92619 0.0
C686 C 0.57693 0.77668 0.91535 0.0
C687 C 0.60088 0.77805 0.89976 0.0
C688 C 0.57234 0.69741 0.93164 0.0
C689 C 0.56192 0.80334 0.92072 0.0
C690 C 0.35914 0.72472 0.90302 0.0
C691 C 0.37354 0.74657 0.88361 0.0
C692 C 0.42115 0.73935 0.89329 0.0
C693 C 0.43731 0.71595 0.89833 0.0
C694 C 0.46093 0.71778 0.91561 0.0
C695 C 0.46895 0.74394 0.9274 0.0
C696 C 0.4531 0.76795 0.92149 0.0
C697 C 0.42926 0.76536 0.90463 0.0
C698 C 0.47736 0.69174 0.92117 0.0
C699 C 0.46154 0.7964 0.93262 0.0
C700 C 0.49874 0.74536 0.07082 0.0
C701 C 0.52358 0.74564 0.08563 0.0
C702 C 0.54741 0.74635 0.07001 0.0
C703 C 0.5465 0.7472 0.03858 0.0
C704 C 0.57001 0.74813 0.02207 0.0
C705 C 0.56893 0.74909 0.99119 0.0
C706 C 0.54429 0.74845 0.97557 0.0
C707 C 0.54304 0.74889 0.94418 0.0
C708 C 0.51827 0.74777 0.92931 0.0
C709 C 0.49442 0.74626 0.94491 0.0
C710 C 0.49525 0.74623 0.97637 0.0
C711 C 0.47173 0.74506 0.99289 0.0
C712 C 0.47279 0.74523 0.0238 0.0
C713 C 0.49743 0.74583 0.03942 0.0
C714 C 0.52141 0.74685 0.02326 0.0
C715 C 0.52031 0.74725 0.99171 0.0
C716 C 0.6749 0.7328 0.90628 0.0
C717 C 0.659 0.73735 0.87715 0.0
O718 O 0.40835 0.74057 0.14442 0.0
O719 O 0.39844 0.73637 0.87653 0.0
O720 O 0.63933 0.7572 0.88077 0.0
O721 O 0.64527 0.73928 0.13609 0.0
H722 H 0.40041 0.78108 0.15566 0.0
H723 H 0.44116 0.76494 0.18453 0.0
H724 H 0.42179 0.73736 0.20201 0.0
H725 H 0.41488 0.77378 0.20911 0.0
H726 H 0.43644 0.7875 0.13009 0.0
H727 H 0.42797 0.6988 0.11738 0.0
H728 H 0.4991 0.79721 0.10634 0.0
H729 H 0.46757 0.81519 0.10468 0.0
H730 H 0.48128 0.80077 0.07158 0.0
H731 H 0.45935 0.67318 0.09091 0.0
H732 H 0.49216 0.68891 0.08762 0.0
H733 H 0.46824 0.69247 0.05769 0.0
H734 H 0.65535 0.69675 0.13534 0.0
H735 H 0.67235 0.71154 0.21067 0.0
H736 H 0.69008 0.7403 0.15792 0.0
H737 H 0.69654 0.70657 0.15395 0.0
H738 H 0.61158 0.69611 0.12436 0.0
H739 H 0.62496 0.78484 0.11363 0.0
H740 H 0.54655 0.69252 0.1053 0.0
H741 H 0.57645 0.67247 0.10065 0.0
H742 H 0.56055 0.68999 0.06917 0.0
H743 H 0.59238 0.81452 0.09127 0.0
H744 H 0.55856 0.80098 0.08906 0.0
H745 H 0.57985 0.79847 0.0578 0.0
H746 H 0.6497 0.71717 0.87021 0.0
H747 H 0.61735 0.70894 0.90206 0.0
H748 H 0.60837 0.79809 0.89154 0.0
H749 H 0.57333 0.69648 0.95628 0.0
H750 H 0.58443 0.68003 0.92311 0.0
H751 H 0.55113 0.69413 0.9247 0.0
H752 H 0.5723 0.82221 0.91155 0.0
H753 H 0.5594 0.80596 0.94493 0.0
H754 H 0.54165 0.80196 0.91032 0.0
H755 H 0.37547 0.7661 0.8966 0.0
H756 H 0.33901 0.7323 0.90879 0.0
H757 H 0.37078 0.72097 0.92397 0.0
H758 H 0.35694 0.7045 0.89132 0.0
H759 H 0.4311 0.69607 0.88905 0.0
H760 H 0.41739 0.7838 0.89972 0.0
H761 H 0.48209 0.68911 0.94525 0.0
H762 H 0.49657 0.69396 0.90945 0.0
H763 H 0.46694 0.67251 0.91327 0.0
H764 H 0.4483 0.81338 0.92394 0.0
H765 H 0.48238 0.80122 0.92605 0.0
H766 H 0.46112 0.79626 0.95724 0.0
H767 H 0.52437 0.74493 0.10972 0.0
H768 H 0.58955 0.7483 0.03283 0.0
H769 H 0.58771 0.75009 0.97974 0.0
H770 H 0.51756 0.74787 0.90522 0.0
H771 H 0.45222 0.74417 0.9821 0.0
H772 H 0.45402 0.7446 0.03531 0.0
H773 H 0.69089 0.71715 0.90329 0.0
H774 H 0.66163 0.72475 0.924 0.0
H775 H 0.68416 0.75283 0.91366 0.0
C776 C 0.76899 0.12391 0.68791 0.0
C777 C 0.78174 0.14318 0.66442 0.0
C778 C 0.77051 0.11884 0.61868 0.0
C779 C 0.79563 0.10854 0.61121 0.0
C780 C 0.79778 0.08515 0.59295 0.0
C781 C 0.77434 0.07178 0.58192 0.0
C782 C 0.74901 0.0828 0.58849 0.0
C783 C 0.74747 0.10647 0.60647 0.0
C784 C 0.82513 0.0744 0.58584 0.0
C785 C 0.72358 0.06907 0.57722 0.0
C786 C 0.78142 0.91483 0.69555 0.0
C787 C 0.77576 0.89382 0.67085 0.0
C788 C 0.7879 0.92241 0.62712 0.0
C789 C 0.76281 0.93453 0.62104 0.0
C790 C 0.76024 0.95751 0.60127 0.0
C791 C 0.78323 0.96894 0.58767 0.0
C792 C 0.80848 0.95667 0.59354 0.0
C793 C 0.81036 0.93322 0.61281 0.0
C794 C 0.73292 0.96973 0.59509 0.0
C795 C 0.83352 0.96865 0.57992 0.0
C796 C 0.78026 0.91245 0.39493 0.0
C797 C 0.7558 0.9223 0.40512 0.0
C798 C 0.75457 0.94746 0.42074 0.0
C799 C 0.77826 0.96315 0.42622 0.0
C800 C 0.80283 0.95359 0.41539 0.0
C801 C 0.80344 0.92848 0.3996 0.0
C802 C 0.72791 0.95742 0.43121 0.0
C803 C 0.82844 0.96987 0.4206 0.0
C804 C 0.74545 0.1814 0.40739 0.0
C805 C 0.768 0.1689 0.3896 0.0
C806 C 0.76331 0.11824 0.39047 0.0
C807 C 0.74152 0.10013 0.3943 0.0
C808 C 0.74449 0.0744 0.40966 0.0
C809 C 0.77006 0.06647 0.4207 0.0
C810 C 0.7925 0.08394 0.41508 0.0
C811 C 0.78885 0.10977 0.40011 0.0
C812 C 0.72019 0.05613 0.41492 0.0
C813 C 0.82021 0.07565 0.42555 0.0
C814 C 0.77632 0.0452 0.56535 0.0
C815 C 0.77913 0.0203 0.58197 0.0
C816 C 0.7809 0.99437 0.56825 0.0
C817 C 0.77991 0.99302 0.53691 0.0
C818 C 0.78129 0.96726 0.52235 0.0
C819 C 0.78055 0.96619 0.49148 0.0
C820 C 0.77812 0.99081 0.47396 0.0
C821 C 0.77719 0.98995 0.44254 0.0
C822 C 0.77478 0.01491 0.42587 0.0
C823 C 0.77305 0.04081 0.43967 0.0
C824 C 0.77382 0.04209 0.47103 0.0
C825 C 0.77188 0.06781 0.48564 0.0
C826 C 0.77286 0.06891 0.51648 0.0
C827 C 0.7755 0.04432 0.53396 0.0
C828 C 0.77733 0.01812 0.51971 0.0
C829 C 0.77647 0.01701 0.48821 0.0
C830 C 0.78794 0.8461 0.40891 0.0
C831 C 0.76962 0.86291 0.38766 0.0
O832 O 0.76785 0.14051 0.63759 0.0
O833 O 0.75917 0.14382 0.37758 0.0
O834 O 0.78205 0.88809 0.37989 0.0
O835 O 0.79135 0.90043 0.64654 0.0
H836 H 0.80284 0.13662 0.66233 0.0
H837 H 0.77071 0.10166 0.68139 0.0
H838 H 0.74747 0.12874 0.69024 0.0
H839 H 0.77939 0.12638 0.70975 0.0
H840 H 0.81363 0.11876 0.6194 0.0
H841 H 0.72817 0.1148 0.612 0.0
H842 H 0.82804 0.05349 0.59666 0.0
H843 H 0.84139 0.08868 0.59359 0.0
H844 H 0.82676 0.07176 0.56152 0.0
H845 H 0.70544 0.0799 0.58471 0.0
H846 H 0.72279 0.04684 0.58508 0.0
H847 H 0.72332 0.06907 0.55258 0.0
H848 H 0.75417 0.89466 0.66476 0.0
H849 H 0.76923 0.90962 0.71528 0.0
H850 H 0.77616 0.93636 0.68772 0.0
H851 H 0.80293 0.91463 0.7022 0.0
H852 H 0.74505 0.92614 0.63129 0.0
H853 H 0.8296 0.92368 0.61749 0.0
H854 H 0.72929 0.97221 0.57078 0.0
H855 H 0.73196 0.99088 0.60485 0.0
H856 H 0.71669 0.95649 0.60457 0.0
H857 H 0.85185 0.95809 0.58863 0.0
H858 H 0.83521 0.99143 0.58437 0.0
H859 H 0.83243 0.96626 0.55548 0.0
H860 H 0.75093 0.86669 0.39978 0.0
H861 H 0.73754 0.91075 0.40038 0.0
H862 H 0.82216 0.92097 0.39126 0.0
H863 H 0.72836 0.9586 0.4558 0.0
H864 H 0.71118 0.94334 0.42435 0.0
H865 H 0.72397 0.97887 0.42219 0.0
H866 H 0.84612 0.95894 0.41205 0.0
H867 H 0.83157 0.97332 0.44473 0.0
H868 H 0.82696 0.99082 0.40947 0.0
H869 H 0.78517 0.16548 0.40533 0.0
H870 H 0.75191 0.20177 0.41688 0.0
H871 H 0.74019 0.16687 0.426 0.0
H872 H 0.72731 0.18474 0.39315 0.0
H873 H 0.72197 0.10674 0.38625 0.0
H874 H 0.8059 0.12338 0.39602 0.0
H875 H 0.71783 0.05223 0.43911 0.0
H876 H 0.7229 0.03547 0.40449 0.0
H877 H 0.70158 0.06572 0.40568 0.0
H878 H 0.83588 0.08965 0.41611 0.0
H879 H 0.8243 0.0537 0.41934 0.0
H880 H 0.82157 0.07663 0.45013 0.0
H881 H 0.7798 0.02109 0.60604 0.0
H882 H 0.78303 0.94761 0.53468 0.0
H883 H 0.78186 0.94579 0.48151 0.0
H884 H 0.77406 0.01414 0.40182 0.0
H885 H 0.76963 0.08744 0.4734 0.0
H886 H 0.77143 0.08929 0.52648 0.0
H887 H 0.80761 0.8424 0.39878 0.0
H888 H 0.77853 0.82557 0.41477 0.0
H889 H 0.79138 0.85789 0.42968 0.0
C890 C 0.4167 0.31982 0.19142 0.0
C891 C 0.39659 0.32112 0.16527 0.0
C892 C 0.42357 0.30133 0.12591 0.0
C893 C 0.43661 0.32638 0.11711 0.0
C894 C 0.45867 0.326 0.09839 0.0
C895 C 0.46832 0.30008 0.08855 0.0
C896 C 0.45497 0.27488 0.09676 0.0
C897 C 0.43254 0.2759 0.11501 0.0
C898 C 0.47193 0.35338 0.08944 0.0
C899 C 0.46474 0.24686 0.08673 0.0
C900 C 0.66313 0.34647 0.14244 0.0
C901 C 0.64836 0.32323 0.15978 0.0
C902 C 0.61488 0.30364 0.12484 0.0
C903 C 0.60694 0.27922 0.11038 0.0
C904 C 0.58296 0.27799 0.09375 0.0
C905 C 0.56697 0.30226 0.09065 0.0
C906 C 0.57491 0.32714 0.10518 0.0
C907 C 0.59858 0.32748 0.12245 0.0
C908 C 0.57482 0.25073 0.07949 0.0
C909 C 0.55841 0.35345 0.10256 0.0
C910 C 0.61477 0.3012 0.89627 0.0
C911 C 0.60473 0.27637 0.90938 0.0
C912 C 0.58118 0.27651 0.92582 0.0
C913 C 0.56738 0.30199 0.92927 0.0
C914 C 0.57715 0.3269 0.91555 0.0
C915 C 0.60058 0.32609 0.89894 0.0
C916 C 0.57086 0.24933 0.93923 0.0
C917 C 0.56286 0.35439 0.91849 0.0
C918 C 0.36035 0.31161 0.90549 0.0
C919 C 0.37524 0.30641 0.87675 0.0
C920 C 0.41946 0.29148 0.89621 0.0
C921 C 0.43515 0.26798 0.90257 0.0
C922 C 0.45959 0.27034 0.91815 0.0
C923 C 0.46866 0.29706 0.92727 0.0
C924 C 0.45333 0.32113 0.92011 0.0
C925 C 0.42878 0.31811 0.90478 0.0
C926 C 0.47547 0.24424 0.92535 0.0
C927 C 0.46271 0.34998 0.92911 0.0
C928 C 0.49328 0.29947 0.07117 0.0
C929 C 0.51762 0.30004 0.08695 0.0
C930 C 0.54196 0.30161 0.0723 0.0
C931 C 0.5422 0.30262 0.04089 0.0
C932 C 0.56625 0.30517 0.02539 0.0
C933 C 0.56634 0.30525 0.99449 0.0
C934 C 0.54236 0.30302 0.97787 0.0
C935 C 0.54228 0.30231 0.94645 0.0
C936 C 0.51797 0.30075 0.93067 0.0
C937 C 0.49365 0.2996 0.94537 0.0
C938 C 0.49334 0.29987 0.97675 0.0
C939 C 0.46921 0.29844 0.99223 0.0
C940 C 0.46911 0.29856 0.02311 0.0
C941 C 0.49314 0.29969 0.03975 0.0
C942 C 0.51771 0.30122 0.02458 0.0
C943 C 0.51781 0.30146 0.99304 0.0
C944 C 0.6784 0.30683 0.90756 0.0
C945 C 0.66105 0.28788 0.88783 0.0
O946 O 0.40263 0.30074 0.1449 0.0
O947 O 0.39553 0.28726 0.88209 0.0
O948 O 0.63752 0.30171 0.88021 0.0
O949 O 0.63844 0.30322 0.14046 0.0
H950 H 0.39783 0.34234 0.1548 0.0
H951 H 0.43713 0.32477 0.1836 0.0
H952 H 0.41684 0.29854 0.20197 0.0
H953 H 0.41157 0.33543 0.20833 0.0
H954 H 0.42987 0.34642 0.12457 0.0
H955 H 0.42235 0.25667 0.12162 0.0
H956 H 0.4922 0.35451 0.09982 0.0
H957 H 0.46046 0.37189 0.09635 0.0
H958 H 0.47427 0.35452 0.06499 0.0
H959 H 0.45233 0.22912 0.09523 0.0
H960 H 0.48574 0.24379 0.09451 0.0
H961 H 0.46453 0.24644 0.0621 0.0
H962 H 0.63175 0.33276 0.17203 0.0
H963 H 0.67192 0.36199 0.15801 0.0
H964 H 0.64921 0.35775 0.12701 0.0
H965 H 0.67935 0.33763 0.12912 0.0
H966 H 0.61956 0.2609 0.11242 0.0
H967 H 0.60425 0.34655 0.13362 0.0
H968 H 0.57784 0.25248 0.05519 0.0
H969 H 0.55331 0.24615 0.08305 0.0
H970 H 0.58675 0.23278 0.08835 0.0
H971 H 0.56954 0.37218 0.11065 0.0
H972 H 0.54024 0.35065 0.11603 0.0
H973 H 0.55189 0.35747 0.07916 0.0
H974 H 0.65701 0.26833 0.90087 0.0
H975 H 0.61478 0.25671 0.90624 0.0
H976 H 0.60821 0.34506 0.88834 0.0
H977 H 0.57142 0.25059 0.96381 0.0
H978 H 0.5828 0.23099 0.93278 0.0
H979 H 0.54972 0.24581 0.93217 0.0
H980 H 0.57409 0.37227 0.90841 0.0
H981 H 0.55971 0.35866 0.9423 0.0
H982 H 0.54287 0.35303 0.90742 0.0
H983 H 0.38355 0.32665 0.86816 0.0
H984 H 0.34374 0.32655 0.9012 0.0
H985 H 0.37405 0.32083 0.92243 0.0
H986 H 0.35203 0.29162 0.91468 0.0
H987 H 0.42789 0.24757 0.89571 0.0
H988 H 0.41704 0.33661 0.89985 0.0
H989 H 0.47895 0.24223 0.94972 0.0
H990 H 0.49531 0.24591 0.91487 0.0
H991 H 0.46522 0.22491 0.91746 0.0
H992 H 0.44975 0.36683 0.91961 0.0
H993 H 0.48351 0.35376 0.92179 0.0
H994 H 0.46279 0.3513 0.95368 0.0
H995 H 0.51761 0.29964 0.11104 0.0
H996 H 0.58534 0.30698 0.03697 0.0
H997 H 0.58546 0.30703 0.98379 0.0
H998 H 0.51799 0.30005 0.90662 0.0
H999 H 0.45008 0.29721 0.98065 0.0
H1000 H 0.44995 0.29748 0.03381 0.0
H1001 H 0.69761 0.29642 0.91346 0.0
H1002 H 0.68263 0.32722 0.89613 0.0
H1003 H 0.66784 0.31103 0.92843 0.0
loop_
_geom_bond_atom_site_label_1
_geom_bond_atom_site_label_2
_geom_bond_distance
_geom_bond_site_symmetry_2
_ccdc_geom_bond_type
C0 C1 1.264 . S
C0 C5 1.479 . S
C0 C10 1.465 . S
C1 C0 1.264 . S
C1 C3 1.339 . S
C1 H28 0.931 . S
C2 C3 1.395 . S
C2 C4 1.320 . S
C3 C1 1.339 . S
C3 C2 1.395 . S
C3 H29 0.929 . S
C4 C2 1.320 . S
C4 C5 1.405 . S
C4 H30 0.930 . S
C5 C0 1.479 . S
C5 C4 1.405 . S
C5 H31 0.931 . S
U6 O7 2.454 . S
U6 O8 2.458 . S
U6 C9 2.984 . S
U6 C10 2.847 . S
U6 C23 2.882 . S
U6 O24 2.441 . S
U6 O25 2.420 . S
U6 O26 2.455 . S
U6 O27 2.449 . S
O7 U6 2.454 . S
O7 C9 1.353 . S
O8 U6 2.458 . S
O8 C9 1.286 . S
C9 U6 2.984 . S
C9 O7 1.353 . S
C9 O8 1.286 . S
C9 C11 1.363 . S
C10 C0 1.465 . S
C10 U6 2.847 . S
C10 O24 1.249 . S
C10 O25 1.202 . S
C11 C9 1.363 . S
C11 C13 1.408 . S
C11 C16 1.342 . S
C12 C13 1.310 . S
C12 C15 1.461 . S
C12 H32 0.932 . S
C13 C11 1.408 . S
C13 C12 1.310 . S
C13 H33 0.930 . S
C14 C15 1.474 . S
C14 C16 1.285 . S
C14 H34 0.929 . S
C15 C12 1.461 . S
C15 C14 1.474 . S
C16 C11 1.342 . S
C16 C14 1.285 . S
C16 H35 0.930 . S
C17 C20 1.424 . S
C17 C22 1.245 . S
C17 C23 1.428 . S
C18 C21 1.260 . S
C18 C22 1.477 . S
C18 H36 0.932 . S
C19 C20 1.384 . S
C19 C21 1.479 . S
C19 H37 0.929 . S
C20 C17 1.424 . S
C20 C19 1.384 . S
C20 H38 0.928 . S
C21 C18 1.260 . S
C21 C19 1.479 . S
C22 C17 1.245 . S
C22 C18 1.477 . S
C22 H39 0.932 . S
C23 U6 2.882 . S
C23 C17 1.428 . S
C23 O26 1.301 . S
C23 O27 1.282 . S
O24 U6 2.441 . S
O24 C10 1.249 . S
O25 U6 2.420 . S
O25 C10 1.202 . S
O26 U6 2.455 . S
O26 C23 1.301 . S
O27 U6 2.449 . S
O27 C23 1.282 . S
H28 C1 0.931 . S
H29 C3 0.929 . S
H30 C4 0.930 . S
H31 C5 0.931 . S
H32 C12 0.932 . S
H33 C13 0.930 . S
H34 C14 0.929 . S
H35 C16 0.930 . S
H36 C18 0.932 . S
H37 C19 0.929 . S
H38 C20 0.928 . S
H39 C22 0.932 . S
C40 C41 1.264 . S
C40 C45 1.479 . S
C40 C50 1.465 . S
C41 C40 1.264 . S
C41 C43 1.339 . S
C41 H68 0.931 . S
C42 C43 1.395 . S
C42 C44 1.320 . S
C43 C41 1.339 . S
C43 C42 1.395 . S
C43 H69 0.929 . S
C44 C42 1.320 . S
C44 C45 1.405 . S
C44 H70 0.930 . S
C45 C40 1.479 . S
C45 C44 1.405 . S
C45 H71 0.931 . S
U46 O47 2.454 . S
U46 O48 2.458 . S
U46 C49 2.984 . S
U46 C50 2.847 . S
U46 C63 2.882 . S
U46 O64 2.441 . S
U46 O65 2.420 . S
U46 O66 2.455 . S
U46 O67 2.449 . S
O47 U46 2.454 . S
O47 C49 1.353 . S
O48 U46 2.458 . S
O48 C49 1.286 . S
C49 U46 2.984 . S
C49 O47 1.353 . S
C49 O48 1.286 . S
C49 C51 1.363 . S
C50 C40 1.465 . S
C50 U46 2.847 . S
C50 O64 1.249 . S
C50 O65 1.202 . S
C51 C49 1.363 . S
C51 C53 1.408 . S
C51 C56 1.342 . S
C52 C53 1.310 . S
C52 C55 1.461 . S
C52 H72 0.932 . S
C53 C51 1.408 . S
C53 C52 1.310 . S
C53 H73 0.930 . S
C54 C55 1.474 . S
C54 C56 1.285 . S
C54 H74 0.929 . S
C55 C52 1.461 . S
C55 C54 1.474 . S
C56 C51 1.342 . S
C56 C54 1.285 . S
C56 H75 0.930 . S
C57 C60 1.424 . S
C57 C62 1.245 . S
C57 C63 1.428 . S
C58 C61 1.260 . S
C58 C62 1.477 . S
C58 H76 0.932 . S
C59 C60 1.384 . S
C59 C61 1.479 . S
C59 H77 0.929 . S
C60 C57 1.424 . S
C60 C59 1.384 . S
C60 H78 0.928 . S
C61 C58 1.260 . S
C61 C59 1.479 . S
C62 C57 1.245 . S
C62 C58 1.477 . S
C62 H79 0.932 . S
C63 U46 2.882 . S
C63 C57 1.428 . S
C63 O66 1.301 . S
C63 O67 1.282 . S
O64 U46 2.441 . S
O64 C50 1.249 . S
O65 U46 2.420 . S
O65 C50 1.202 . S
O66 U46 2.455 . S
O66 C63 1.301 . S
O67 U46 2.449 . S
O67 C63 1.282 . S
H68 C41 0.931 . S
H69 C43 0.929 . S
H70 C44 0.930 . S
H71 C45 0.931 . S
H72 C52 0.932 . S
H73 C53 0.930 . S
H74 C54 0.929 . S
H75 C56 0.930 . S
H76 C58 0.932 . S
H77 C59 0.929 . S
H78 C60 0.928 . S
H79 C62 0.932 . S
C80 C81 1.264 . S
C80 C85 1.479 . S
C80 C90 1.465 . S
C81 C80 1.264 . S
C81 C83 1.339 . S
C81 H108 0.931 . S
C82 C83 1.395 . S
C82 C84 1.320 . S
C83 C81 1.339 . S
C83 C82 1.395 . S
C83 H109 0.929 . S
C84 C82 1.320 . S
C84 C85 1.405 . S
C84 H110 0.930 . S
C85 C80 1.479 . S
C85 C84 1.405 . S
C85 H111 0.931 . S
U86 O87 2.454 . S
U86 O88 2.458 . S
U86 C89 2.984 . S
U86 C90 2.847 . S
U86 C103 2.882 . S
U86 O104 2.441 . S
U86 O105 2.420 . S
U86 O106 2.455 . S
U86 O107 2.449 . S
O87 U86 2.454 . S
O87 C89 1.353 . S
O88 U86 2.458 . S
O88 C89 1.286 . S
C89 U86 2.984 . S
C89 O87 1.353 . S
C89 O88 1.286 . S
C89 C91 1.363 . S
C90 C80 1.465 . S
C90 U86 2.847 . S
C90 O104 1.249 . S
C90 O105 1.202 . S
C91 C89 1.363 . S
C91 C93 1.408 . S
C91 C96 1.342 . S
C92 C93 1.310 . S
C92 C95 1.461 . S
C92 H112 0.932 . S
C93 C91 1.408 . S
C93 C92 1.310 . S
C93 H113 0.930 . S
C94 C95 1.474 . S
C94 C96 1.285 . S
C94 H114 0.929 . S
C95 C92 1.461 . S
C95 C94 1.474 . S
C96 C91 1.342 . S
C96 C94 1.285 . S
C96 H115 0.930 . S
C97 C100 1.424 . S
C97 C102 1.245 . S
C97 C103 1.428 . S
C98 C101 1.260 . S
C98 C102 1.477 . S
C98 H116 0.932 . S
C99 C100 1.384 . S
C99 C101 1.479 . S
C99 H117 0.929 . S
C100 C97 1.424 . S
C100 C99 1.384 . S
C100 H118 0.928 . S
C101 C98 1.260 . S
C101 C99 1.479 . S
C102 C97 1.245 . S
C102 C98 1.477 . S
C102 H119 0.932 . S
C103 U86 2.882 . S
C103 C97 1.428 . S
C103 O106 1.301 . S
C103 O107 1.282 . S
O104 U86 2.441 . S
O104 C90 1.249 . S
O105 U86 2.420 . S
O105 C90 1.202 . S
O106 U86 2.455 . S
O106 C103 1.301 . S
O107 U86 2.449 . S
O107 C103 1.282 . S
H108 C81 0.931 . S
H109 C83 0.929 . S
H110 C84 0.930 . S
H111 C85 0.931 . S
H112 C92 0.932 . S
H113 C93 0.930 . S
H114 C94 0.929 . S
H115 C96 0.930 . S
H116 C98 0.932 . S
H117 C99 0.929 . S
H118 C100 0.928 . S
H119 C102 0.932 . S
C120 C121 1.264 . S
C120 C125 1.479 . S
C120 C130 1.465 . S
C121 C120 1.264 . S
C121 C123 1.339 . S
C121 H148 0.931 . S
C122 C123 1.395 . S
C122 C124 1.320 . S
C123 C121 1.339 . S
C123 C122 1.395 . S
C123 H149 0.929 . S
C124 C122 1.320 . S
C124 C125 1.405 . S
C124 H150 0.930 . S
C125 C120 1.479 . S
C125 C124 1.405 . S
C125 H151 0.931 . S
U126 O127 2.454 . S
U126 O128 2.458 . S
U126 C129 2.984 . S
U126 C130 2.847 . S
U126 C143 2.882 . S
U126 O144 2.441 . S
U126 O145 2.420 . S
U126 O146 2.455 . S
U126 O147 2.449 . S
O127 U126 2.454 . S
O127 C129 1.353 . S
O128 U126 2.458 . S
O128 C129 1.286 . S
C129 U126 2.984 . S
C129 O127 1.353 . S
C129 O128 1.286 . S
C129 C131 1.363 . S
C130 C120 1.465 . S
C130 U126 2.847 . S
C130 O144 1.249 . S
C130 O145 1.202 . S
C131 C129 1.363 . S
C131 C133 1.408 . S
C131 C136 1.342 . S
C132 C133 1.310 . S
C132 C135 1.461 . S
C132 H152 0.932 . S
C133 C131 1.408 . S
C133 C132 1.310 . S
C133 H153 0.930 . S
C134 C135 1.474 . S
C134 C136 1.285 . S
C134 H154 0.929 . S
C135 C132 1.461 . S
C135 C134 1.474 . S
C136 C131 1.342 . S
C136 C134 1.285 . S
C136 H155 0.930 . S
C137 C140 1.424 . S
C137 C142 1.245 . S
C137 C143 1.428 . S
C138 C141 1.260 . S
C138 C142 1.477 . S
C138 H156 0.932 . S
C139 C140 1.384 . S
C139 C141 1.479 . S
C139 H157 0.929 . S
C140 C137 1.424 . S
C140 C139 1.384 . S
C140 H158 0.928 . S
C141 C138 1.260 . S
C141 C139 1.479 . S
C142 C137 1.245 . S
C142 C138 1.477 . S
C142 H159 0.932 . S
C143 U126 2.882 . S
C143 C137 1.428 . S
C143 O146 1.301 . S
C143 O147 1.282 . S
O144 U126 2.441 . S
O144 C130 1.249 . S
O145 U126 2.420 . S
O145 C130 1.202 . S
O146 U126 2.455 . S
O146 C143 1.301 . S
O147 U126 2.449 . S
O147 C143 1.282 . S
H148 C121 0.931 . S
H149 C123 0.929 . S
H150 C124 0.930 . S
H151 C125 0.931 . S
H152 C132 0.932 . S
H153 C133 0.930 . S
H154 C134 0.929 . S
H155 C136 0.930 . S
H156 C138 0.932 . S
H157 C139 0.929 . S
H158 C140 0.928 . S
H159 C142 0.932 . S
C160 C161 1.264 . S
C160 C165 1.479 . S
C160 C170 1.465 . S
C161 C160 1.264 . S
C161 C163 1.339 . S
C161 H188 0.931 . S
C162 C163 1.395 . S
C162 C164 1.320 . S
C163 C161 1.339 . S
C163 C162 1.395 . S
C163 H189 0.929 . S
C164 C162 1.320 . S
C164 C165 1.405 . S
C164 H190 0.930 . S
C165 C160 1.479 . S
C165 C164 1.405 . S
C165 H191 0.931 . S
U166 O167 2.454 . S
U166 O168 2.458 . S
U166 C169 2.984 . S
U166 C170 2.847 . S
U166 C183 2.882 . S
U166 O184 2.441 . S
U166 O185 2.420 . S
U166 O186 2.455 . S
U166 O187 2.449 . S
O167 U166 2.454 . S
O167 C169 1.353 . S
O168 U166 2.458 . S
O168 C169 1.286 . S
C169 U166 2.984 . S
C169 O167 1.353 . S
C169 O168 1.286 . S
C169 C171 1.363 . S
C170 C160 1.465 . S
C170 U166 2.847 . S
C170 O184 1.249 . S
C170 O185 1.202 . S
C171 C169 1.363 . S
C171 C173 1.408 . S
C171 C176 1.342 . S
C172 C173 1.310 . S
C172 C175 1.461 . S
C172 H192 0.932 . S
C173 C171 1.408 . S
C173 C172 1.310 . S
C173 H193 0.930 . S
C174 C175 1.474 . S
C174 C176 1.285 . S
C174 H194 0.929 . S
C175 C172 1.461 . S
C175 C174 1.474 . S
C176 C171 1.342 . S
C176 C174 1.285 . S
C176 H195 0.930 . S
C177 C180 1.424 . S
C177 C182 1.245 . S
C177 C183 1.428 . S
C178 C181 1.260 . S
C178 C182 1.477 . S
C178 H196 0.932 . S
C179 C180 1.384 . S
C179 C181 1.479 . S
C179 H197 0.929 . S
C180 C177 1.424 . S
C180 C179 1.384 . S
C180 H198 0.928 . S
C181 C178 1.260 . S
C181 C179 1.479 . S
C182 C177 1.245 . S
C182 C178 1.477 . S
C182 H199 0.932 . S
C183 U166 2.882 . S
C183 C177 1.428 . S
C183 O186 1.301 . S
C183 O187 1.282 . S
O184 U166 2.441 . S
O184 C170 1.249 . S
O185 U166 2.420 . S
O185 C170 1.202 . S
O186 U166 2.455 . S
O186 C183 1.301 . S
O187 U166 2.449 . S
O187 C183 1.282 . S
H188 C161 0.931 . S
H189 C163 0.929 . S
H190 C164 0.930 . S
H191 C165 0.931 . S
H192 C172 0.932 . S
H193 C173 0.930 . S
H194 C174 0.929 . S
H195 C176 0.930 . S
H196 C178 0.932 . S
H197 C179 0.929 . S
H198 C180 0.928 . S
H199 C182 0.932 . S
C200 C201 1.264 . S
C200 C205 1.479 . S
C200 C210 1.465 . S
C201 C200 1.264 . S
C201 C203 1.339 . S
C201 H228 0.931 . S
C202 C203 1.395 . S
C202 C204 1.320 . S
C203 C201 1.339 . S
C203 C202 1.395 . S
C203 H229 0.929 . S
C204 C202 1.320 . S
C204 C205 1.405 . S
C204 H230 0.930 . S
C205 C200 1.479 . S
C205 C204 1.405 . S
C205 H231 0.931 . S
U206 O207 2.454 . S
U206 O208 2.458 . S
U206 C209 2.984 . S
U206 C210 2.847 . S
U206 C223 2.882 . S
U206 O224 2.441 . S
U206 O225 2.420 . S
U206 O226 2.455 . S
U206 O227 2.449 . S
O207 U206 2.454 . S
O207 C209 1.353 . S
O208 U206 2.458 . S
O208 C209 1.286 . S
C209 U206 2.984 . S
C209 O207 1.353 . S
C209 O208 1.286 . S
C209 C211 1.363 . S
C210 C200 1.465 . S
C210 U206 2.847 . S
C210 O224 1.249 . S
C210 O225 1.202 . S
C211 C209 1.363 . S
C211 C213 1.408 . S
C211 C216 1.342 . S
C212 C213 1.310 . S
C212 C215 1.461 . S
C212 H232 0.932 . S
C213 C211 1.408 . S
C213 C212 1.310 . S
C213 H233 0.930 . S
C214 C215 1.474 . S
C214 C216 1.285 . S
C214 H234 0.929 . S
C215 C212 1.461 . S
C215 C214 1.474 . S
C216 C211 1.342 . S
C216 C214 1.285 . S
C216 H235 0.930 . S
C217 C220 1.424 . S
C217 C222 1.245 . S
C217 C223 1.428 . S
C218 C221 1.260 . S
C218 C222 1.477 . S
C218 H236 0.932 . S
C219 C220 1.384 . S
C219 C221 1.479 . S
C219 H237 0.929 . S
C220 C217 1.424 . S
C220 C219 1.384 . S
C220 H238 0.928 . S
C221 C218 1.260 . S
C221 C219 1.479 . S
C222 C217 1.245 . S
C222 C218 1.477 . S
C222 H239 0.932 . S
C223 U206 2.882 . S
C223 C217 1.428 . S
C223 O226 1.301 . S
C223 O227 1.282 . S
O224 U206 2.441 . S
O224 C210 1.249 . S
O225 U206 2.420 . S
O225 C210 1.202 . S
O226 U206 2.455 . S
O226 C223 1.301 . S
O227 U206 2.449 . S
O227 C223 1.282 . S
H228 C201 0.931 . S
H229 C203 0.929 . S
H230 C204 0.930 . S
H231 C205 0.931 . S
H232 C212 0.932 . S
H233 C213 0.930 . S
H234 C214 0.929 . S
H235 C216 0.930 . S
H236 C218 0.932 . S
H237 C219 0.929 . S
H238 C220 0.928 . S
H239 C222 0.932 . S
C240 C241 1.264 . S
C240 C245 1.479 . S
C240 C250 1.465 . S
C241 C240 1.264 . S
C241 C243 1.339 . S
C241 H268 0.931 . S
C242 C243 1.395 . S
C242 C244 1.320 . S
C243 C241 1.339 . S
C243 C242 1.395 . S
C243 H269 0.929 . S
C244 C242 1.320 . S
C244 C245 1.405 . S
C244 H270 0.930 . S
C245 C240 1.479 . S
C245 C244 1.405 . S
C245 H271 0.931 . S
U246 O247 2.454 . S
U246 O248 2.458 . S
U246 C249 2.984 . S
U246 C250 2.847 . S
U246 C263 2.882 . S
U246 O264 2.441 . S
U246 O265 2.420 . S
U246 O266 2.455 . S
U246 O267 2.449 . S
O247 U246 2.454 . S
O247 C249 1.353 . S
O248 U246 2.458 . S
O248 C249 1.286 . S
C249 U246 2.984 . S
C249 O247 1.353 . S
C249 O248 1.286 . S
C249 C251 1.363 . S
C250 C240 1.465 . S
C250 U246 2.847 . S
C250 O264 1.249 . S
C250 O265 1.202 . S
C251 C249 1.363 . S
C251 C253 1.408 . S
C251 C256 1.342 . S
C252 C253 1.310 . S
C252 C255 1.461 . S
C252 H272 0.932 . S
C253 C251 1.408 . S
C253 C252 1.310 . S
C253 H273 0.930 . S
C254 C255 1.474 . S
C254 C256 1.285 . S
C254 H274 0.929 . S
C255 C252 1.461 . S
C255 C254 1.474 . S
C256 C251 1.342 . S
C256 C254 1.285 . S
C256 H275 0.930 . S
C257 C260 1.424 . S
C257 C262 1.245 . S
C257 C263 1.428 . S
C258 C261 1.260 . S
C258 C262 1.477 . S
C258 H276 0.932 . S
C259 C260 1.384 . S
C259 C261 1.479 . S
C259 H277 0.929 . S
C260 C257 1.424 . S
C260 C259 1.384 . S
C260 H278 0.928 . S
C261 C258 1.260 . S
C261 C259 1.479 . S
C262 C257 1.245 . S
C262 C258 1.477 . S
C262 H279 0.932 . S
C263 U246 2.882 . S
C263 C257 1.428 . S
C263 O266 1.301 . S
C263 O267 1.282 . S
O264 U246 2.441 . S
O264 C250 1.249 . S
O265 U246 2.420 . S
O265 C250 1.202 . S
O266 U246 2.455 . S
O266 C263 1.301 . S
O267 U246 2.449 . S
O267 C263 1.282 . S
H268 C241 0.931 . S
H269 C243 0.929 . S
H270 C244 0.930 . S
H271 C245 0.931 . S
H272 C252 0.932 . S
H273 C253 0.930 . S
H274 C254 0.929 . S
H275 C256 0.930 . S
H276 C258 0.932 . S
H277 C259 0.929 . S
H278 C260 0.928 . S
H279 C262 0.932 . S
C280 C281 1.264 . S
C280 C285 1.479 . S
C280 C290 1.465 . S
C281 C280 1.264 . S
C281 C283 1.339 . S
C281 H308 0.931 . S
C282 C283 1.395 . S
C282 C284 1.320 . S
C283 C281 1.339 . S
C283 C282 1.395 . S
C283 H309 0.929 . S
C284 C282 1.320 . S
C284 C285 1.405 . S
C284 H310 0.930 . S
C285 C280 1.479 . S
C285 C284 1.405 . S
C285 H311 0.931 . S
U286 O287 2.454 . S
U286 O288 2.458 . S
U286 C289 2.984 . S
U286 C290 2.847 . S
U286 C303 2.882 . S
U286 O304 2.441 . S
U286 O305 2.420 . S
U286 O306 2.455 . S
U286 O307 2.449 . S
O287 U286 2.454 . S
O287 C289 1.353 . S
O288 U286 2.458 . S
O288 C289 1.286 . S
C289 U286 2.984 . S
C289 O287 1.353 . S
C289 O288 1.286 . S
C289 C291 1.363 . S
C290 C280 1.465 . S
C290 U286 2.847 . S
C290 O304 1.249 . S
C290 O305 1.202 . S
C291 C289 1.363 . S
C291 C293 1.408 . S
C291 C296 1.342 . S
C292 C293 1.310 . S
C292 C295 1.461 . S
C292 H312 0.932 . S
C293 C291 1.408 . S
C293 C292 1.310 . S
C293 H313 0.930 . S
C294 C295 1.474 . S
C294 C296 1.285 . S
C294 H314 0.929 . S
C295 C292 1.461 . S
C295 C294 1.474 . S
C296 C291 1.342 . S
C296 C294 1.285 . S
C296 H315 0.930 . S
C297 C300 1.424 . S
C297 C302 1.245 . S
C297 C303 1.428 . S
C298 C301 1.260 . S
C298 C302 1.477 . S
C298 H316 0.932 . S
C299 C300 1.384 . S
C299 C301 1.479 . S
C299 H317 0.929 . S
C300 C297 1.424 . S
C300 C299 1.384 . S
C300 H318 0.928 . S
C301 C298 1.260 . S
C301 C299 1.479 . S
C302 C297 1.245 . S
C302 C298 1.477 . S
C302 H319 0.932 . S
C303 U286 2.882 . S
C303 C297 1.428 . S
C303 O306 1.301 . S
C303 O307 1.282 . S
O304 U286 2.441 . S
O304 C290 1.249 . S
O305 U286 2.420 . S
O305 C290 1.202 . S
O306 U286 2.455 . S
O306 C303 1.301 . S
O307 U286 2.449 . S
O307 C303 1.282 . S
H308 C281 0.931 . S
H309 C283 0.929 . S
H310 C284 0.930 . S
H311 C285 0.931 . S
H312 C292 0.932 . S
H313 C293 0.930 . S
H314 C294 0.929 . S
H315 C296 0.930 . S
H316 C298 0.932 . S
H317 C299 0.929 . S
H318 C300 0.928 . S
H319 C302 0.932 . S
C320 C321 1.560 . S
C320 H381 0.959 . S
C320 H382 0.959 . S
C320 H383 0.960 . S
C321 C320 1.560 . S
C321 O376 1.426 . S
C321 H380 0.980 . S
C322 C323 1.407 . S
C322 C327 1.418 . S
C322 O376 1.334 . S
C323 C322 1.407 . S
C323 C324 1.360 . S
C323 H384 0.929 . S
C324 C323 1.360 . S
C324 C325 1.401 . S
C324 C328 1.527 . S
C325 C324 1.401 . S
C325 C326 1.405 . S
C325 C358 1.587 . S
C326 C325 1.405 . S
C326 C327 1.332 . S
C326 C329 1.496 . S
C327 C322 1.418 . S
C327 C326 1.332 . S
C327 H385 0.929 . S
C328 C324 1.527 . S
C328 H386 0.959 . S
C328 H387 0.961 . S
C328 H388 0.961 . S
C329 C326 1.496 . S
C329 H389 0.960 . S
C329 H390 0.978 . S
C329 H391 0.961 . S
C330 C331 1.517 . S
C330 H393 0.961 . S
C330 H394 0.960 . S
C330 H395 0.959 . S
C331 C330 1.517 . S
C331 O379 1.468 . S
C331 H392 0.980 . S
C332 C333 1.349 . S
C332 C337 1.367 . S
C332 O379 1.408 . S
C333 C332 1.349 . S
C333 C334 1.407 . S
C333 H396 0.930 . S
C334 C333 1.407 . S
C334 C335 1.449 . S
C334 C338 1.535 . S
C335 C334 1.449 . S
C335 C336 1.384 . S
C335 C360 1.553 . S
C336 C335 1.384 . S
C336 C337 1.364 . S
C336 C339 1.450 . S
C337 C332 1.367 . S
C337 C336 1.364 . S
C337 H397 0.931 . S
C338 C334 1.535 . S
C338 H398 0.959 . S
C338 H399 0.961 . S
C338 H400 0.959 . S
C339 C336 1.450 . S
C339 H401 0.960 . S
C339 H402 0.960 . S
C339 H403 0.960 . S
C340 C341 1.309 . S
C340 C345 1.304 . S
C340 O378 1.435 . S
C341 C340 1.309 . S
C341 C342 1.476 . S
C341 H405 0.930 . S
C342 C341 1.476 . S
C342 C343 1.400 . S
C342 C346 1.567 . S
C343 C342 1.400 . S
C343 C344 1.373 . S
C343 C365 1.432 . S
C344 C343 1.373 . S
C344 C345 1.339 . S
C344 C347 1.530 . S
C345 C340 1.304 . S
C345 C344 1.339 . S
C345 H406 0.930 . S
C346 C342 1.567 . S
C346 H407 0.961 . S
C346 H408 0.960 . S
C346 H409 0.958 . S
C347 C344 1.530 . S
C347 H410 0.961 . S
C347 H411 0.960 . S
C347 H412 0.960 . S
C348 C349 1.530 . S
C348 H414 0.961 . S
C348 H415 0.961 . S
C348 H416 0.959 . S
C349 C348 1.530 . S
C349 O377 1.412 . S
C349 H413 0.980 . S
C350 C351 1.288 . S
C350 C355 1.377 . S
C350 O377 1.393 . S
C351 C350 1.288 . S
C351 C352 1.369 . S
C351 H417 0.932 . S
C352 C351 1.369 . S
C352 C353 1.398 . S
C352 C356 1.527 . S
C353 C352 1.398 . S
C353 C354 1.380 . S
C353 C367 1.497 . S
C354 C353 1.380 . S
C354 C355 1.383 . S
C354 C357 1.603 . S
C355 C350 1.377 . S
C355 C354 1.383 . S
C355 H418 0.929 . S
C356 C352 1.527 . S
C356 H419 0.961 . S
C356 H420 0.959 . S
C356 H421 0.959 . S
C357 C354 1.603 . S
C357 H422 0.960 . S
C357 H423 0.962 . S
C357 H424 0.961 . S
C358 C325 1.587 . S
C358 C359 1.360 1_655 S
C358 C371 1.412 . S
C359 C358 1.360 1_455 S
C359 C360 1.365 . S
C359 H425 0.929 . S
C360 C335 1.553 . S
C360 C359 1.365 . S
C360 C361 1.404 . S
C361 C360 1.404 . S
C361 C362 1.395 . S
C361 C372 1.451 . S
C362 C361 1.395 . S
C362 C363 1.322 . S
C362 H426 0.930 . S
C363 C362 1.322 . S
C363 C364 1.459 . S
C363 H427 0.929 . S
C364 C363 1.459 . S
C364 C365 1.445 . S
C364 C373 1.395 . S
C365 C343 1.432 . S
C365 C364 1.445 . S
C365 C366 1.370 . S
C366 C365 1.370 . S
C366 C367 1.438 1_455 S
C366 H428 0.930 . S
C367 C353 1.497 . S
C367 C366 1.438 1_655 S
C367 C368 1.360 . S
C368 C367 1.360 . S
C368 C369 1.401 . S
C368 C373 1.446 1_655 S
C369 C368 1.401 . S
C369 C370 1.347 . S
C369 H429 0.929 . S
C370 C369 1.347 . S
C370 C371 1.455 . S
C370 H430 0.930 . S
C371 C358 1.412 . S
C371 C370 1.455 . S
C371 C372 1.331 1_655 S
C372 C361 1.451 . S
C372 C371 1.331 1_455 S
C372 C373 1.497 . S
C373 C364 1.395 . S
C373 C368 1.446 1_455 S
C373 C372 1.497 . S
C374 C375 1.582 . S
C374 H431 0.962 . S
C374 H432 0.959 . S
C374 H433 0.958 . S
C375 C374 1.582 . S
C375 O378 1.458 . S
C375 H404 0.980 . S
O376 C321 1.426 . S
O376 C322 1.334 . S
O377 C349 1.412 . S
O377 C350 1.393 . S
O378 C340 1.435 . S
O378 C375 1.458 . S
O379 C331 1.468 . S
O379 C332 1.408 . S
H380 C321 0.980 . S
H381 C320 0.959 . S
H382 C320 0.959 . S
H383 C320 0.960 . S
H384 C323 0.929 . S
H385 C327 0.929 . S
H386 C328 0.959 . S
H387 C328 0.961 . S
H388 C328 0.961 . S
H389 C329 0.960 . S
H390 C329 0.978 . S
H391 C329 0.961 . S
H392 C331 0.980 . S
H393 C330 0.961 . S
H394 C330 0.960 . S
H395 C330 0.959 . S
H396 C333 0.930 . S
H397 C337 0.931 . S
H398 C338 0.959 . S
H399 C338 0.961 . S
H400 C338 0.959 . S
H401 C339 0.960 . S
H402 C339 0.960 . S
H403 C339 0.960 . S
H404 C375 0.980 . S
H405 C341 0.930 . S
H406 C345 0.930 . S
H407 C346 0.961 . S
H408 C346 0.960 . S
H409 C346 0.958 . S
H410 C347 0.961 . S
H411 C347 0.960 . S
H412 C347 0.960 . S
H413 C349 0.980 . S
H414 C348 0.961 . S
H415 C348 0.961 . S
H416 C348 0.959 . S
H417 C351 0.932 . S
H418 C355 0.929 . S
H419 C356 0.961 . S
H420 C356 0.959 . S
H421 C356 0.959 . S
H422 C357 0.960 . S
H423 C357 0.962 . S
H424 C357 0.961 . S
H425 C359 0.929 . S
H426 C362 0.930 . S
H427 C363 0.929 . S
H428 C366 0.930 . S
H429 C369 0.929 . S
H430 C370 0.930 . S
H431 C374 0.962 . S
H432 C374 0.959 . S
H433 C374 0.958 . S
C434 C435 1.560 . S
C434 H495 0.959 . S
C434 H496 0.959 . S
C434 H497 0.960 . S
C435 C434 1.560 . S
C435 O490 1.426 . S
C435 H494 0.980 . S
C436 C437 1.407 . S
C436 C441 1.418 . S
C436 O490 1.334 . S
C437 C436 1.407 . S
C437 C438 1.360 . S
C437 H498 0.929 . S
C438 C437 1.360 . S
C438 C439 1.401 . S
C438 C442 1.527 . S
C439 C438 1.401 . S
C439 C440 1.405 . S
C439 C472 1.587 . S
C440 C439 1.405 . S
C440 C441 1.332 . S
C440 C443 1.496 . S
C441 C436 1.418 . S
C441 C440 1.332 . S
C441 H499 0.929 . S
C442 C438 1.527 . S
C442 H500 0.959 . S
C442 H501 0.961 . S
C442 H502 0.961 . S
C443 C440 1.496 . S
C443 H503 0.960 . S
C443 H504 0.960 . S
C443 H505 0.961 . S
C444 C445 1.517 . S
C444 H507 0.961 . S
C444 H508 0.960 . S
C444 H509 0.959 . S
C445 C444 1.517 . S
C445 O493 1.468 . S
C445 H506 0.980 . S
C446 C447 1.349 . S
C446 C451 1.367 . S
C446 O493 1.408 . S
C447 C446 1.349 . S
C447 C448 1.407 . S
C447 H510 0.930 . S
C448 C447 1.407 . S
C448 C449 1.449 . S
C448 C452 1.535 . S
C449 C448 1.449 . S
C449 C450 1.384 . S
C449 C474 1.553 . S
C450 C449 1.384 . S
C450 C451 1.364 . S
C450 C453 1.450 . S
C451 C446 1.367 . S
C451 C450 1.364 . S
C451 H511 0.931 . S
C452 C448 1.535 . S
C452 H512 0.959 . S
C452 H513 0.961 . S
C452 H514 0.959 . S
C453 C450 1.450 . S
C453 H515 0.960 . S
C453 H516 0.960 . S
C453 H517 0.960 . S
C454 C455 1.309 . S
C454 C459 1.304 . S
C454 O492 1.435 . S
C455 C454 1.309 . S
C455 C456 1.476 . S
C455 H519 0.930 . S
C456 C455 1.476 . S
C456 C457 1.400 . S
C456 C460 1.567 . S
C457 C456 1.400 . S
C457 C458 1.373 . S
C457 C479 1.432 . S
C458 C457 1.373 . S
C458 C459 1.339 . S
C458 C461 1.530 . S
C459 C454 1.304 . S
C459 C458 1.339 . S
C459 H520 0.930 . S
C460 C456 1.567 . S
C460 H521 0.961 . S
C460 H522 0.960 . S
C460 H523 0.958 . S
C461 C458 1.530 . S
C461 H524 0.961 . S
C461 H525 0.960 . S
C461 H526 0.960 . S
C462 C463 1.530 . S
C462 H528 0.961 . S
C462 H529 0.961 . S
C462 H530 0.959 . S
C463 C462 1.530 . S
C463 O491 1.412 . S
C463 H527 0.980 . S
C464 C465 1.288 . S
C464 C469 1.377 . S
C464 O491 1.393 . S
C465 C464 1.288 . S
C465 C466 1.369 . S
C465 H531 0.932 . S
C466 C465 1.369 . S
C466 C467 1.398 . S
C466 C470 1.527 . S
C467 C466 1.398 . S
C467 C468 1.380 . S
C467 C481 1.497 . S
C468 C467 1.380 . S
C468 C469 1.383 . S
C468 C471 1.603 . S
C469 C464 1.377 . S
C469 C468 1.383 . S
C469 H532 0.929 . S
C470 C466 1.527 . S
C470 H533 0.961 . S
C470 H534 0.959 . S
C470 H535 0.959 . S
C471 C468 1.603 . S
C471 H536 0.960 . S
C471 H537 0.962 . S
C471 H538 0.961 . S
C472 C439 1.587 . S
C472 C473 1.360 . S
C472 C485 1.412 . S
C473 C472 1.360 . S
C473 C474 1.365 1_455 S
C473 H539 0.929 . S
C474 C449 1.553 . S
C474 C473 1.365 1_655 S
C474 C475 1.404 . S
C475 C474 1.404 . S
C475 C476 1.395 . S
C475 C486 1.451 1_655 S
C476 C475 1.395 . S
C476 C477 1.322 . S
C476 H540 0.930 . S
C477 C476 1.322 . S
C477 C478 1.459 . S
C477 H541 0.929 . S
C478 C477 1.459 . S
C478 C479 1.445 . S
C478 C487 1.395 1_655 S
C479 C457 1.432 . S
C479 C478 1.445 . S
C479 C480 1.370 1_655 S
C480 C479 1.370 1_455 S
C480 C481 1.438 . S
C480 H542 0.930 . S
C481 C467 1.497 . S
C481 C480 1.438 . S
C481 C482 1.360 . S
C482 C481 1.360 . S
C482 C483 1.401 . S
C482 C487 1.446 . S
C483 C482 1.401 . S
C483 C484 1.347 . S
C483 H543 0.929 . S
C484 C483 1.347 . S
C484 C485 1.455 . S
C484 H544 0.930 . S
C485 C472 1.412 . S
C485 C484 1.455 . S
C485 C486 1.331 . S
C486 C475 1.451 1_455 S
C486 C485 1.331 . S
C486 C487 1.497 . S
C487 C478 1.395 1_455 S
C487 C482 1.446 . S
C487 C486 1.497 . S
C488 C489 1.582 . S
C488 H545 0.962 . S
C488 H546 0.959 . S
C488 H547 0.958 . S
C489 C488 1.582 . S
C489 O492 1.458 . S
C489 H518 0.980 . S
O490 C435 1.426 . S
O490 C436 1.334 . S
O491 C463 1.412 . S
O491 C464 1.393 . S
O492 C454 1.435 . S
O492 C489 1.458 . S
O493 C445 1.468 . S
O493 C446 1.408 . S
H494 C435 0.980 . S
H495 C434 0.959 . S
H496 C434 0.959 . S
H497 C434 0.960 . S
H498 C437 0.929 . S
H499 C441 0.929 . S
H500 C442 0.959 . S
H501 C442 0.961 . S
H502 C442 0.961 . S
H503 C443 0.960 . S
H504 C443 0.960 . S
H505 C443 0.961 . S
H506 C445 0.980 . S
H507 C444 0.961 . S
H508 C444 0.960 . S
H509 C444 0.959 . S
H510 C447 0.930 . S
H511 C451 0.931 . S
H512 C452 0.959 . S
H513 C452 0.961 . S
H514 C452 0.959 . S
H515 C453 0.960 . S
H516 C453 0.960 . S
H517 C453 0.960 . S
H518 C489 0.980 . S
H519 C455 0.930 . S
H520 C459 0.930 . S
H521 C460 0.961 . S
H522 C460 0.960 . S
H523 C460 0.958 . S
H524 C461 0.961 . S
H525 C461 0.960 . S
H526 C461 0.960 . S
H527 C463 0.980 . S
H528 C462 0.961 . S
H529 C462 0.961 . S
H530 C462 0.959 . S
H531 C465 0.932 . S
H532 C469 0.929 . S
H533 C470 0.961 . S
H534 C470 0.959 . S
H535 C470 0.959 . S
H536 C471 0.960 . S
H537 C471 0.962 . S
H538 C471 0.961 . S
H539 C473 0.929 . S
H540 C476 0.930 . S
H541 C477 0.929 . S
H542 C480 0.930 . S
H543 C483 0.929 . S
H544 C484 0.930 . S
H545 C488 0.962 . S
H546 C488 0.959 . S
H547 C488 0.958 . S
C548 C549 1.560 . S
C548 H609 0.959 . S
C548 H610 0.959 . S
C548 H611 0.960 . S
C549 C548 1.560 . S
C549 O604 1.426 . S
C549 H608 0.980 . S
C550 C551 1.407 . S
C550 C555 1.418 . S
C550 O604 1.334 . S
C551 C550 1.407 . S
C551 C552 1.360 . S
C551 H612 0.929 . S
C552 C551 1.360 . S
C552 C553 1.401 . S
C552 C556 1.527 . S
C553 C552 1.401 . S
C553 C554 1.405 . S
C553 C586 1.587 . S
C554 C553 1.405 . S
C554 C555 1.332 . S
C554 C557 1.496 . S
C555 C550 1.418 . S
C555 C554 1.332 . S
C555 H613 0.929 . S
C556 C552 1.527 . S
C556 H614 0.959 . S
C556 H615 0.961 . S
C556 H616 0.961 . S
C557 C554 1.496 . S
C557 H617 0.960 . S
C557 H618 0.960 . S
C557 H619 0.961 . S
C558 C559 1.517 . S
C558 H621 0.961 . S
C558 H622 0.960 . S
C558 H623 0.959 . S
C559 C558 1.517 . S
C559 O607 1.468 . S
C559 H620 0.980 . S
C560 C561 1.349 . S
C560 C565 1.367 . S
C560 O607 1.408 . S
C561 C560 1.349 . S
C561 C562 1.407 . S
C561 H624 0.930 . S
C562 C561 1.407 . S
C562 C563 1.449 . S
C562 C566 1.535 . S
C563 C562 1.449 . S
C563 C564 1.384 . S
C563 C588 1.553 . S
C564 C563 1.384 . S
C564 C565 1.364 . S
C564 C567 1.450 . S
C565 C560 1.367 . S
C565 C564 1.364 . S
C565 H625 0.931 . S
C566 C562 1.535 . S
C566 H626 0.959 . S
C566 H627 0.961 . S
C566 H628 0.959 . S
C567 C564 1.450 . S
C567 H629 0.960 . S
C567 H630 0.960 . S
C567 H631 0.960 . S
C568 C569 1.309 . S
C568 C573 1.304 . S
C568 O606 1.435 . S
C569 C568 1.309 . S
C569 C570 1.476 . S
C569 H633 0.930 . S
C570 C569 1.476 . S
C570 C571 1.400 . S
C570 C574 1.567 . S
C571 C570 1.400 . S
C571 C572 1.373 . S
C571 C593 1.432 . S
C572 C571 1.373 . S
C572 C573 1.339 . S
C572 C575 1.530 . S
C573 C568 1.304 . S
C573 C572 1.339 . S
C573 H634 0.930 . S
C574 C570 1.567 . S
C574 H635 0.961 . S
C574 H636 0.960 . S
C574 H637 0.958 . S
C575 C572 1.530 . S
C575 H638 0.961 . S
C575 H639 0.960 . S
C575 H640 0.960 . S
C576 C577 1.530 . S
C576 H642 0.961 . S
C576 H643 0.961 . S
C576 H644 0.959 . S
C577 C576 1.530 . S
C577 O605 1.412 . S
C577 H641 0.980 . S
C578 C579 1.288 . S
C578 C583 1.377 . S
C578 O605 1.393 . S
C579 C578 1.288 . S
C579 C580 1.369 . S
C579 H645 0.932 . S
C580 C579 1.369 . S
C580 C581 1.398 . S
C580 C584 1.527 . S
C581 C580 1.398 . S
C581 C582 1.380 . S
C581 C595 1.497 . S
C582 C581 1.380 . S
C582 C583 1.383 . S
C582 C585 1.603 . S
C583 C578 1.377 . S
C583 C582 1.383 . S
C583 H646 0.929 . S
C584 C580 1.527 . S
C584 H647 0.961 . S
C584 H648 0.959 . S
C584 H649 0.959 . S
C585 C582 1.603 . S
C585 H650 0.960 . S
C585 H651 0.962 . S
C585 H652 0.961 . S
C586 C553 1.587 . S
C586 C587 1.360 . S
C586 C599 1.412 . S
C587 C586 1.360 . S
C587 C588 1.365 1_545 S
C587 H653 0.929 . S
C588 C563 1.553 . S
C588 C587 1.365 1_565 S
C588 C589 1.404 . S
C589 C588 1.404 . S
C589 C590 1.395 . S
C589 C600 1.451 1_565 S
C590 C589 1.395 . S
C590 C591 1.322 . S
C590 H654 0.930 . S
C591 C590 1.322 . S
C591 C592 1.459 . S
C591 H655 0.929 . S
C592 C591 1.459 . S
C592 C593 1.445 . S
C592 C601 1.395 1_565 S
C593 C571 1.432 . S
C593 C592 1.445 . S
C593 C594 1.370 1_565 S
C594 C593 1.370 1_545 S
C594 C595 1.438 . S
C594 H656 0.930 . S
C595 C581 1.497 . S
C595 C594 1.438 . S
C595 C596 1.360 . S
C596 C595 1.360 . S
C596 C597 1.401 . S
C596 C601 1.446 . S
C597 C596 1.401 . S
C597 C598 1.347 . S
C597 H657 0.929 . S
C598 C597 1.347 . S
C598 C599 1.455 . S
C598 H658 0.930 . S
C599 C586 1.412 . S
C599 C598 1.455 . S
C599 C600 1.331 . S
C600 C589 1.451 1_545 S
C600 C599 1.331 . S
C600 C601 1.497 . S
C601 C592 1.395 1_545 S
C601 C596 1.446 . S
C601 C600 1.497 . S
C602 C603 1.582 . S
C602 H659 0.962 . S
C602 H660 0.959 . S
C602 H661 0.958 . S
C603 C602 1.582 . S
C603 O606 1.458 . S
C603 H632 0.980 . S
O604 C549 1.426 . S
O604 C550 1.334 . S
O605 C577 1.412 . S
O605 C578 1.393 . S
O606 C568 1.435 . S
O606 C603 1.458 . S
O607 C559 1.468 . S
O607 C560 1.408 . S
H608 C549 0.980 . S
H609 C548 0.959 . S
H610 C548 0.959 . S
H611 C548 0.960 . S
H612 C551 0.929 . S
H613 C555 0.929 . S
H614 C556 0.959 . S
H615 C556 0.961 . S
H616 C556 0.961 . S
H617 C557 0.960 . S
H618 C557 0.960 . S
H619 C557 0.961 . S
H620 C559 0.980 . S
H621 C558 0.961 . S
H622 C558 0.960 . S
H623 C558 0.959 . S
H624 C561 0.930 . S
H625 C565 0.931 . S
H626 C566 0.959 . S
H627 C566 0.961 . S
H628 C566 0.959 . S
H629 C567 0.960 . S
H630 C567 0.960 . S
H631 C567 0.960 . S
H632 C603 0.980 . S
H633 C569 0.930 . S
H634 C573 0.930 . S
H635 C574 0.961 . S
H636 C574 0.960 . S
H637 C574 0.958 . S
H638 C575 0.961 . S
H639 C575 0.960 . S
H640 C575 0.960 . S
H641 C577 0.980 . S
H642 C576 0.961 . S
H643 C576 0.961 . S
H644 C576 0.959 . S
H645 C579 0.932 . S
H646 C583 0.929 . S
H647 C584 0.961 . S
H648 C584 0.959 . S
H649 C584 0.959 . S
H650 C585 0.960 . S
H651 C585 0.962 . S
H652 C585 0.961 . S
H653 C587 0.929 . S
H654 C590 0.930 . S
H655 C591 0.929 . S
H656 C594 0.930 . S
H657 C597 0.929 . S
H658 C598 0.930 . S
H659 C602 0.962 . S
H660 C602 0.959 . S
H661 C602 0.958 . S
C662 C663 1.560 . S
C662 H723 0.959 . S
C662 H724 0.959 . S
C662 H725 0.960 . S
C663 C662 1.560 . S
C663 O718 1.426 . S
C663 H722 0.980 . S
C664 C665 1.407 . S
C664 C669 1.418 . S
C664 O718 1.334 . S
C665 C664 1.407 . S
C665 C666 1.360 . S
C665 H726 0.929 . S
C666 C665 1.360 . S
C666 C667 1.401 . S
C666 C670 1.527 . S
C667 C666 1.401 . S
C667 C668 1.405 . S
C667 C700 1.587 . S
C668 C667 1.405 . S
C668 C669 1.332 . S
C668 C671 1.496 . S
C669 C664 1.418 . S
C669 C668 1.332 . S
C669 H727 0.929 . S
C670 C666 1.527 . S
C670 H728 0.959 . S
C670 H729 0.961 . S
C670 H730 0.961 . S
C671 C668 1.496 . S
C671 H731 0.960 . S
C671 H732 0.960 . S
C671 H733 0.961 . S
C672 C673 1.517 . S
C672 H735 0.961 . S
C672 H736 0.960 . S
C672 H737 0.959 . S
C673 C672 1.517 . S
C673 O721 1.468 . S
C673 H734 0.980 . S
C674 C675 1.349 . S
C674 C679 1.367 . S
C674 O721 1.408 . S
C675 C674 1.349 . S
C675 C676 1.407 . S
C675 H738 0.930 . S
C676 C675 1.407 . S
C676 C677 1.449 . S
C676 C680 1.535 . S
C677 C676 1.449 . S
C677 C678 1.384 . S
C677 C702 1.553 . S
C678 C677 1.384 . S
C678 C679 1.364 . S
C678 C681 1.450 . S
C679 C674 1.367 . S
C679 C678 1.364 . S
C679 H739 0.931 . S
C680 C676 1.535 . S
C680 H740 0.959 . S
C680 H741 0.961 . S
C680 H742 0.959 . S
C681 C678 1.450 . S
C681 H743 0.960 . S
C681 H744 0.960 . S
C681 H745 0.960 . S
C682 C683 1.309 . S
C682 C687 1.304 . S
C682 O720 1.435 . S
C683 C682 1.309 . S
C683 C684 1.476 . S
C683 H747 0.930 . S
C684 C683 1.476 . S
C684 C685 1.400 . S
C684 C688 1.567 . S
C685 C684 1.400 . S
C685 C686 1.373 . S
C685 C707 1.432 . S
C686 C685 1.373 . S
C686 C687 1.339 . S
C686 C689 1.530 . S
C687 C682 1.304 . S
C687 C686 1.339 . S
C687 H748 0.930 . S
C688 C684 1.567 . S
C688 H749 0.961 . S
C688 H750 0.960 . S
C688 H751 0.958 . S
C689 C686 1.530 . S
C689 H752 0.961 . S
C689 H753 0.960 . S
C689 H754 0.960 . S
C690 C691 1.530 . S
C690 H756 0.961 . S
C690 H757 0.961 . S
C690 H758 0.959 . S
C691 C690 1.530 . S
C691 O719 1.412 . S
C691 H755 0.980 . S
C692 C693 1.288 . S
C692 C697 1.377 . S
C692 O719 1.393 . S
C693 C692 1.288 . S
C693 C694 1.369 . S
C693 H759 0.932 . S
C694 C693 1.369 . S
C694 C695 1.398 . S
C694 C698 1.527 . S
C695 C694 1.398 . S
C695 C696 1.380 . S
C695 C709 1.497 . S
C696 C695 1.380 . S
C696 C697 1.383 . S
C696 C699 1.603 . S
C697 C692 1.377 . S
C697 C696 1.383 . S
C697 H760 0.929 . S
C698 C694 1.527 . S
C698 H761 0.961 . S
C698 H762 0.959 . S
C698 H763 0.959 . S
C699 C696 1.603 . S
C699 H764 0.960 . S
C699 H765 0.962 . S
C699 H766 0.961 . S
C700 C667 1.587 . S
C700 C701 1.360 . S
C700 C713 1.412 . S
C701 C700 1.360 . S
C701 C702 1.365 . S
C701 H767 0.929 . S
C702 C677 1.553 . S
C702 C701 1.365 . S
C702 C703 1.404 . S
C703 C702 1.404 . S
C703 C704 1.395 . S
C703 C714 1.451 . S
C704 C703 1.395 . S
C704 C705 1.322 1_554 S
C704 H768 0.930 . S
C705 C704 1.322 1_556 S
C705 C706 1.459 . S
C705 H769 0.929 . S
C706 C705 1.459 . S
C706 C707 1.445 . S
C706 C715 1.395 . S
C707 C685 1.432 . S
C707 C706 1.445 . S
C707 C708 1.370 . S
C708 C707 1.370 . S
C708 C709 1.438 . S
C708 H770 0.930 . S
C709 C695 1.497 . S
C709 C708 1.438 . S
C709 C710 1.360 . S
C710 C709 1.360 . S
C710 C711 1.401 . S
C710 C715 1.446 . S
C711 C710 1.401 . S
C711 C712 1.347 1_556 S
C711 H771 0.929 . S
C712 C711 1.347 1_554 S
C712 C713 1.455 . S
C712 H772 0.930 . S
C713 C700 1.412 . S
C713 C712 1.455 . S
C713 C714 1.331 . S
C714 C703 1.451 . S
C714 C713 1.331 . S
C714 C715 1.497 1_554 S
C715 C706 1.395 . S
C715 C710 1.446 . S
C715 C714 1.497 1_556 S
C716 C717 1.582 . S
C716 H773 0.962 . S
C716 H774 0.959 . S
C716 H775 0.958 . S
C717 C716 1.582 . S
C717 O720 1.458 . S
C717 H746 0.980 . S
O718 C663 1.426 . S
O718 C664 1.334 . S
O719 C691 1.412 . S
O719 C692 1.393 . S
O720 C682 1.435 . S
O720 C717 1.458 . S
O721 C673 1.468 . S
O721 C674 1.408 . S
H722 C663 0.980 . S
H723 C662 0.959 . S
H724 C662 0.959 . S
H725 C662 0.960 . S
H726 C665 0.929 . S
H727 C669 0.929 . S
H728 C670 0.959 . S
H729 C670 0.961 . S
H730 C670 0.961 . S
H731 C671 0.960 . S
H732 C671 0.960 . S
H733 C671 0.961 . S
H734 C673 0.980 . S
H735 C672 0.961 . S
H736 C672 0.960 . S
H737 C672 0.959 . S
H738 C675 0.930 . S
H739 C679 0.931 . S
H740 C680 0.959 . S
H741 C680 0.961 . S
H742 C680 0.959 . S
H743 C681 0.960 . S
H744 C681 0.960 . S
H745 C681 0.960 . S
H746 C717 0.980 . S
H747 C683 0.930 . S
H748 C687 0.930 . S
H749 C688 0.961 . S
H750 C688 0.960 . S
H751 C688 0.958 . S
H752 C689 0.961 . S
H753 C689 0.960 . S
H754 C689 0.960 . S
H755 C691 0.980 . S
H756 C690 0.961 . S
H757 C690 0.961 . S
H758 C690 0.959 . S
H759 C693 0.932 . S
H760 C697 0.929 . S
H761 C698 0.961 . S
H762 C698 0.959 . S
H763 C698 0.959 . S
H764 C699 0.960 . S
H765 C699 0.962 . S
H766 C699 0.961 . S
H767 C701 0.929 . S
H768 C704 0.930 . S
H769 C705 0.929 . S
H770 C708 0.930 . S
H771 C711 0.929 . S
H772 C712 0.930 . S
H773 C716 0.962 . S
H774 C716 0.959 . S
H775 C716 0.958 . S
C776 C777 1.560 . S
C776 H837 0.959 . S
C776 H838 0.959 . S
C776 H839 0.960 . S
C777 C776 1.560 . S
C777 O832 1.426 . S
C777 H836 0.980 . S
C778 C779 1.407 . S
C778 C783 1.418 . S
C778 O832 1.334 . S
C779 C778 1.407 . S
C779 C780 1.360 . S
C779 H840 0.929 . S
C780 C779 1.360 . S
C780 C781 1.401 . S
C780 C784 1.527 . S
C781 C780 1.401 . S
C781 C782 1.405 . S
C781 C814 1.587 . S
C782 C781 1.405 . S
C782 C783 1.332 . S
C782 C785 1.496 . S
C783 C778 1.418 . S
C783 C782 1.332 . S
C783 H841 0.929 . S
C784 C780 1.527 . S
C784 H842 0.959 . S
C784 H843 0.961 . S
C784 H844 0.961 . S
C785 C782 1.496 . S
C785 H845 0.960 . S
C785 H846 0.960 . S
C785 H847 0.961 . S
C786 C787 1.517 . S
C786 H849 0.961 . S
C786 H850 0.960 . S
C786 H851 0.959 . S
C787 C786 1.517 . S
C787 O835 1.468 . S
C787 H848 0.980 . S
C788 C789 1.349 . S
C788 C793 1.367 . S
C788 O835 1.408 . S
C789 C788 1.349 . S
C789 C790 1.407 . S
C789 H852 0.930 . S
C790 C789 1.407 . S
C790 C791 1.449 . S
C790 C794 1.535 . S
C791 C790 1.449 . S
C791 C792 1.384 . S
C791 C816 1.553 . S
C792 C791 1.384 . S
C792 C793 1.364 . S
C792 C795 1.450 . S
C793 C788 1.367 . S
C793 C792 1.364 . S
C793 H853 0.931 . S
C794 C790 1.535 . S
C794 H854 0.959 . S
C794 H855 0.961 . S
C794 H856 0.959 . S
C795 C792 1.450 . S
C795 H857 0.960 . S
C795 H858 0.960 . S
C795 H859 0.960 . S
C796 C797 1.309 . S
C796 C801 1.304 . S
C796 O834 1.435 . S
C797 C796 1.309 . S
C797 C798 1.476 . S
C797 H861 0.930 . S
C798 C797 1.476 . S
C798 C799 1.400 . S
C798 C802 1.567 . S
C799 C798 1.400 . S
C799 C800 1.373 . S
C799 C821 1.432 . S
C800 C799 1.373 . S
C800 C801 1.339 . S
C800 C803 1.530 . S
C801 C796 1.304 . S
C801 C800 1.339 . S
C801 H862 0.930 . S
C802 C798 1.567 . S
C802 H863 0.961 . S
C802 H864 0.960 . S
C802 H865 0.958 . S
C803 C800 1.530 . S
C803 H866 0.961 . S
C803 H867 0.960 . S
C803 H868 0.960 . S
C804 C805 1.530 . S
C804 H870 0.961 . S
C804 H871 0.961 . S
C804 H872 0.959 . S
C805 C804 1.530 . S
C805 O833 1.412 . S
C805 H869 0.980 . S
C806 C807 1.288 . S
C806 C811 1.377 . S
C806 O833 1.393 . S
C807 C806 1.288 . S
C807 C808 1.369 . S
C807 H873 0.932 . S
C808 C807 1.369 . S
C808 C809 1.398 . S
C808 C812 1.527 . S
C809 C808 1.398 . S
C809 C810 1.380 . S
C809 C823 1.497 . S
C810 C809 1.380 . S
C810 C811 1.383 . S
C810 C813 1.603 . S
C811 C806 1.377 . S
C811 C810 1.383 . S
C811 H874 0.929 . S
C812 C808 1.527 . S
C812 H875 0.961 . S
C812 H876 0.959 . S
C812 H877 0.959 . S
C813 C810 1.603 . S
C813 H878 0.960 . S
C813 H879 0.962 . S
C813 H880 0.961 . S
C814 C781 1.587 . S
C814 C815 1.360 . S
C814 C827 1.412 . S
C815 C814 1.360 . S
C815 C816 1.365 1_545 S
C815 H881 0.929 . S
C816 C791 1.553 . S
C816 C815 1.365 1_565 S
C816 C817 1.404 . S
C817 C816 1.404 . S
C817 C818 1.395 . S
C817 C828 1.451 1_565 S
C818 C817 1.395 . S
C818 C819 1.322 . S
C818 H882 0.930 . S
C819 C818 1.322 . S
C819 C820 1.459 . S
C819 H883 0.929 . S
C820 C819 1.459 . S
C820 C821 1.445 . S
C820 C829 1.395 1_565 S
C821 C799 1.432 . S
C821 C820 1.445 . S
C821 C822 1.370 1_565 S
C822 C821 1.370 1_545 S
C822 C823 1.438 . S
C822 H884 0.930 . S
C823 C809 1.497 . S
C823 C822 1.438 . S
C823 C824 1.360 . S
C824 C823 1.360 . S
C824 C825 1.401 . S
C824 C829 1.446 . S
C825 C824 1.401 . S
C825 C826 1.347 . S
C825 H885 0.929 . S
C826 C825 1.347 . S
C826 C827 1.455 . S
C826 H886 0.930 . S
C827 C814 1.412 . S
C827 C826 1.455 . S
C827 C828 1.331 . S
C828 C817 1.451 1_545 S
C828 C827 1.331 . S
C828 C829 1.497 . S
C829 C820 1.395 1_545 S
C829 C824 1.446 . S
C829 C828 1.497 . S
C830 C831 1.582 . S
C830 H887 0.962 . S
C830 H888 0.959 . S
C830 H889 0.958 . S
C831 C830 1.582 . S
C831 O834 1.458 . S
C831 H860 0.980 . S
O832 C777 1.426 . S
O832 C778 1.334 . S
O833 C805 1.412 . S
O833 C806 1.393 . S
O834 C796 1.435 . S
O834 C831 1.458 . S
O835 C787 1.468 . S
O835 C788 1.408 . S
H836 C777 0.980 . S
H837 C776 0.959 . S
H838 C776 0.959 . S
H839 C776 0.960 . S
H840 C779 0.929 . S
H841 C783 0.929 . S
H842 C784 0.959 . S
H843 C784 0.961 . S
H844 C784 0.961 . S
H845 C785 0.960 . S
H846 C785 0.960 . S
H847 C785 0.961 . S
H848 C787 0.980 . S
H849 C786 0.961 . S
H850 C786 0.960 . S
H851 C786 0.959 . S
H852 C789 0.930 . S
H853 C793 0.931 . S
H854 C794 0.959 . S
H855 C794 0.961 . S
H856 C794 0.959 . S
H857 C795 0.960 . S
H858 C795 0.960 . S
H859 C795 0.960 . S
H860 C831 0.980 . S
H861 C797 0.930 . S
H862 C801 0.930 . S
H863 C802 0.961 . S
H864 C802 0.960 . S
H865 C802 0.958 . S
H866 C803 0.961 . S
H867 C803 0.960 . S
H868 C803 0.960 . S
H869 C805 0.980 . S
H870 C804 0.961 . S
H871 C804 0.961 . S
H872 C804 0.959 . S
H873 C807 0.932 . S
H874 C811 0.929 . S
H875 C812 0.961 . S
H876 C812 0.959 . S
H877 C812 0.959 . S
H878 C813 0.960 . S
H879 C813 0.962 . S
H880 C813 0.961 . S
H881 C815 0.929 . S
H882 C818 0.930 . S
H883 C819 0.929 . S
H884 C822 0.930 . S
H885 C825 0.929 . S
H886 C826 0.930 . S
H887 C830 0.962 . S
H888 C830 0.959 . S
H889 C830 0.958 . S
C890 C891 1.560 . S
C890 H951 0.959 . S
C890 H952 0.959 . S
C890 H953 0.960 . S
C891 C890 1.560 . S
C891 O946 1.426 . S
C891 H950 0.980 . S
C892 C893 1.407 . S
C892 C897 1.418 . S
C892 O946 1.334 . S
C893 C892 1.407 . S
C893 C894 1.360 . S
C893 H954 0.929 . S
C894 C893 1.360 . S
C894 C895 1.401 . S
C894 C898 1.527 . S
C895 C894 1.401 . S
C895 C896 1.405 . S
C895 C928 1.587 . S
C896 C895 1.405 . S
C896 C897 1.332 . S
C896 C899 1.496 . S
C897 C892 1.418 . S
C897 C896 1.332 . S
C897 H955 0.929 . S
C898 C894 1.527 . S
C898 H956 0.959 . S
C898 H957 0.961 . S
C898 H958 0.961 . S
C899 C896 1.496 . S
C899 H959 0.960 . S
C899 H960 0.960 . S
C899 H961 0.961 . S
C900 C901 1.517 . S
C900 H963 0.961 . S
C900 H964 0.960 . S
C900 H965 0.959 . S
C901 C900 1.517 . S
C901 O949 1.468 . S
C901 H962 0.980 . S
C902 C903 1.349 . S
C902 C907 1.367 . S
C902 O949 1.408 . S
C903 C902 1.349 . S
C903 C904 1.407 . S
C903 H966 0.930 . S
C904 C903 1.407 . S
C904 C905 1.449 . S
C904 C908 1.535 . S
C905 C904 1.449 . S
C905 C906 1.384 . S
C905 C930 1.553 . S
C906 C905 1.384 . S
C906 C907 1.364 . S
C906 C909 1.450 . S
C907 C902 1.367 . S
C907 C906 1.364 . S
C907 H967 0.931 . S
C908 C904 1.535 . S
C908 H968 0.959 . S
C908 H969 0.961 . S
C908 H970 0.959 . S
C909 C906 1.450 . S
C909 H971 0.960 . S
C909 H972 0.960 . S
C909 H973 0.960 . S
C910 C911 1.309 . S
C910 C915 1.304 . S
C910 O948 1.435 . S
C911 C910 1.309 . S
C911 C912 1.476 . S
C911 H975 0.930 . S
C912 C911 1.476 . S
C912 C913 1.400 . S
C912 C916 1.567 . S
C913 C912 1.400 . S
C913 C914 1.373 . S
C913 C935 1.432 . S
C914 C913 1.373 . S
C914 C915 1.339 . S
C914 C917 1.530 . S
C915 C910 1.304 . S
C915 C914 1.339 . S
C915 H976 0.930 . S
C916 C912 1.567 . S
C916 H977 0.961 . S
C916 H978 0.960 . S
C916 H979 0.958 . S
C917 C914 1.530 . S
C917 H980 0.961 . S
C917 H981 0.960 . S
C917 H982 0.960 . S
C918 C919 1.530 . S
C918 H984 0.961 . S
C918 H985 0.961 . S
C918 H986 0.959 . S
C919 C918 1.530 . S
C919 O947 1.412 . S
C919 H983 0.980 . S
C920 C921 1.288 . S
C920 C925 1.377 . S
C920 O947 1.393 . S
C921 C920 1.288 . S
C921 C922 1.369 . S
C921 H987 0.932 . S
C922 C921 1.369 . S
C922 C923 1.398 . S
C922 C926 1.527 . S
C923 C922 1.398 . S
C923 C924 1.380 . S
C923 C937 1.497 . S
C924 C923 1.380 . S
C924 C925 1.383 . S
C924 C927 1.603 . S
C925 C920 1.377 . S
C925 C924 1.383 . S
C925 H988 0.929 . S
C926 C922 1.527 . S
C926 H989 0.961 . S
C926 H990 0.959 . S
C926 H991 0.959 . S
C927 C924 1.603 . S
C927 H992 0.960 . S
C927 H993 0.962 . S
C927 H994 0.961 . S
C928 C895 1.587 . S
C928 C929 1.360 . S
C928 C941 1.412 . S
C929 C928 1.360 . S
C929 C930 1.365 . S
C929 H995 0.929 . S
C930 C905 1.553 . S
C930 C929 1.365 . S
C930 C931 1.404 . S
C931 C930 1.404 . S
C931 C932 1.395 . S
C931 C942 1.451 . S
C932 C931 1.395 . S
C932 C933 1.322 1_554 S
C932 H996 0.930 . S
C933 C932 1.322 1_556 S
C933 C934 1.459 . S
C933 H997 0.929 . S
C934 C933 1.459 . S
C934 C935 1.445 . S
C934 C943 1.395 . S
C935 C913 1.432 . S
C935 C934 1.445 . S
C935 C936 1.370 . S
C936 C935 1.370 . S
C936 C937 1.438 . S
C936 H998 0.930 . S
C937 C923 1.497 . S
C937 C936 1.438 . S
C937 C938 1.360 . S
C938 C937 1.360 . S
C938 C939 1.401 . S
C938 C943 1.446 . S
C939 C938 1.401 . S
C939 C940 1.347 1_556 S
C939 H999 0.929 . S
C940 C939 1.347 1_554 S
C940 C941 1.455 . S
C940 H1000 0.930 . S
C941 C928 1.412 . S
C941 C940 1.455 . S
C941 C942 1.331 . S
C942 C931 1.451 . S
C942 C941 1.331 . S
C942 C943 1.497 1_554 S
C943 C934 1.395 . S
C943 C938 1.446 . S
C943 C942 1.497 1_556 S
C944 C945 1.582 . S
C944 H1001 0.962 . S
C944 H1002 0.959 . S
C944 H1003 0.958 . S
C945 C944 1.582 . S
C945 O948 1.458 . S
C945 H974 0.980 . S
O946 C891 1.426 . S
O946 C892 1.334 . S
O947 C919 1.412 . S
O947 C920 1.393 . S
O948 C910 1.435 . S
O948 C945 1.458 . S
O949 C901 1.468 . S
O949 C902 1.408 . S
H950 C891 0.980 . S
H951 C890 0.959 . S
H952 C890 0.959 . S
H953 C890 0.960 . S
H954 C893 0.929 . S
H955 C897 0.929 . S
H956 C898 0.959 . S
H957 C898 0.961 . S
H958 C898 0.961 . S
H959 C899 0.960 . S
H960 C899 0.960 . S
H961 C899 0.961 . S
H962 C901 0.980 . S
H963 C900 0.961 . S
H964 C900 0.960 . S
H965 C900 0.959 . S
H966 C903 0.930 . S
H967 C907 0.931 . S
H968 C908 0.959 . S
H969 C908 0.961 . S
H970 C908 0.959 . S
H971 C909 0.960 . S
H972 C909 0.960 . S
H973 C909 0.960 . S
H974 C945 0.980 . S
H975 C911 0.930 . S
H976 C915 0.930 . S
H977 C916 0.961 . S
H978 C916 0.960 . S
H979 C916 0.958 . S
H980 C917 0.961 . S
H981 C917 0.960 . S
H982 C917 0.960 . S
H983 C919 0.980 . S
H984 C918 0.961 . S
H985 C918 0.961 . S
H986 C918 0.959 . S
H987 C921 0.932 . S
H988 C925 0.929 . S
H989 C926 0.961 . S
H990 C926 0.959 . S
H991 C926 0.959 . S
H992 C927 0.960 . S
H993 C927 0.962 . S
H994 C927 0.961 . S
H995 C929 0.929 . S
H996 C932 0.930 . S
H997 C933 0.929 . S
H998 C936 0.930 . S
H999 C939 0.929 . S
H1000 C940 0.930 . S
H1001 C944 0.962 . S
H1002 C944 0.959 . S
H1003 C944 0.958 . S
C331 C15 0.972 . S
C463 C55 1.386 . S
C349 C101 1.372 . S
C445 C141 0.979 . S
C577 C2 1.096 . S
C691 C61 1.313 . S
C95 C831 1.449 . S
C945 C135 1.295 . S
C559 C42 0.984 . S
C82 C673 0.843 . S
C777 C122 1.626 . S
C891 C21 1.065 . S
C162 C489 1.011 . S
C321 C221 0.915 . S
C255 C435 0.876 . S
C282 C375 1.294 . S
C787 C181 1.222 . S
C901 C202 2.245 . S
C549 C242 0.745 . S
C301 C663 2.049 . S
C805 C215 1.353 . S
C919 C261 1.383 . S
C603 C295 1.360 . S
C175 C717 1.220 . S
