# Generated by pormake.
# Topology ctn, (3,4)-cn, num edge types: 1
# Building blocks:
#     Node 0, Type 0, BuildingBlock: ESEHIV_clean_linker_0, # of connection points: 3
#     Node 1, Type 0, BuildingBlock: ESEHIV_clean_linker_0, # of connection points: 3
#     Node 2, Type 0, BuildingBlock: ESEHIV_clean_linker_0, # of connection points: 3
#     Node 3, Type 0, BuildingBlock: ESEHIV_clean_linker_0, # of connection points: 3
#     Node 4, Type 0, BuildingBlock: ESEHIV_clean_linker_0, # of connection points: 3
#     Node 5, Type 0, BuildingBlock: ESEHIV_clean_linker_0, # of connection points: 3
#     Node 6, Type 0, BuildingBlock: ESEHIV_clean_linker_0, # of connection points: 3
#     Node 7, Type 0, BuildingBlock: ESEHIV_clean_linker_0, # of connection points: 3
#     Node 8, Type 0, BuildingBlock: ESEHIV_clean_linker_0, # of connection points: 3
#     Node 9, Type 0, BuildingBlock: ESEHIV_clean_linker_0, # of connection points: 3
#     Node 10, Type 0, BuildingBlock: ESEHIV_clean_linker_0, # of connection points: 3
#     Node 11, Type 0, BuildingBlock: ESEHIV_clean_linker_0, # of connection points: 3
#     Node 12, Type 0, BuildingBlock: ESEHIV_clean_linker_0, # of connection points: 3
#     Node 13, Type 0, BuildingBlock: ESEHIV_clean_linker_0, # of connection points: 3
#     Node 14, Type 0, BuildingBlock: ESEHIV_clean_linker_0, # of connection points: 3
#     Node 15, Type 0, BuildingBlock: ESEHIV_clean_linker_0, # of connection points: 3
#     Node 16, Type 1, BuildingBlock: QUQFOY_clean_sbu_1, # of connection points: 4
#     Node 17, Type 1, BuildingBlock: QUQFOY_clean_sbu_1, # of connection points: 4
#     Node 18, Type 1, BuildingBlock: QUQFOY_clean_sbu_1, # of connection points: 4
#     Node 19, Type 1, BuildingBlock: QUQFOY_clean_sbu_1, # of connection points: 4
#     Node 20, Type 1, BuildingBlock: QUQFOY_clean_sbu_1, # of connection points: 4
#     Node 21, Type 1, BuildingBlock: QUQFOY_clean_sbu_1, # of connection points: 4
#     Node 22, Type 1, BuildingBlock: QUQFOY_clean_sbu_1, # of connection points: 4
#     Node 23, Type 1, BuildingBlock: QUQFOY_clean_sbu_1, # of connection points: 4
#     Node 24, Type 1, BuildingBlock: QUQFOY_clean_sbu_1, # of connection points: 4
#     Node 25, Type 1, BuildingBlock: QUQFOY_clean_sbu_1, # of connection points: 4
#     Node 26, Type 1, BuildingBlock: QUQFOY_clean_sbu_1, # of connection points: 4
#     Node 27, Type 1, BuildingBlock: QUQFOY_clean_sbu_1, # of connection points: 4
#     Edge 28, Type (0, 1), BuildingBlock: ZUJKAS_clean_linker_0, # of connection points: 2
#     Edge 29, Type (0, 1), BuildingBlock: ZUJKAS_clean_linker_0, # of connection points: 2
#     Edge 30, Type (0, 1), BuildingBlock: ZUJKAS_clean_linker_0, # of connection points: 2
#     Edge 31, Type (0, 1), BuildingBlock: ZUJKAS_clean_linker_0, # of connection points: 2
#     Edge 32, Type (0, 1), BuildingBlock: ZUJKAS_clean_linker_0, # of connection points: 2
#     Edge 33, Type (0, 1), BuildingBlock: ZUJKAS_clean_linker_0, # of connection points: 2
#     Edge 34, Type (0, 1), BuildingBlock: ZUJKAS_clean_linker_0, # of connection points: 2
#     Edge 35, Type (0, 1), BuildingBlock: ZUJKAS_clean_linker_0, # of connection points: 2
#     Edge 36, Type (0, 1), BuildingBlock: ZUJKAS_clean_linker_0, # of connection points: 2
#     Edge 37, Type (0, 1), BuildingBlock: ZUJKAS_clean_linker_0, # of connection points: 2
#     Edge 38, Type (0, 1), BuildingBlock: ZUJKAS_clean_linker_0, # of connection points: 2
#     Edge 39, Type (0, 1), BuildingBlock: ZUJKAS_clean_linker_0, # of connection points: 2
#     Edge 40, Type (0, 1), BuildingBlock: ZUJKAS_clean_linker_0, # of connection points: 2
#     Edge 41, Type (0, 1), BuildingBlock: ZUJKAS_clean_linker_0, # of connection points: 2
#     Edge 42, Type (0, 1), BuildingBlock: ZUJKAS_clean_linker_0, # of connection points: 2
#     Edge 43, Type (0, 1), BuildingBlock: ZUJKAS_clean_linker_0, # of connection points: 2
#     Edge 44, Type (0, 1), BuildingBlock: ZUJKAS_clean_linker_0, # of connection points: 2
#     Edge 45, Type (0, 1), BuildingBlock: ZUJKAS_clean_linker_0, # of connection points: 2
#     Edge 46, Type (0, 1), BuildingBlock: ZUJKAS_clean_linker_0, # of connection points: 2
#     Edge 47, Type (0, 1), BuildingBlock: ZUJKAS_clean_linker_0, # of connection points: 2
#     Edge 48, Type (0, 1), BuildingBlock: ZUJKAS_clean_linker_0, # of connection points: 2
#     Edge 49, Type (0, 1), BuildingBlock: ZUJKAS_clean_linker_0, # of connection points: 2
#     Edge 50, Type (0, 1), BuildingBlock: ZUJKAS_clean_linker_0, # of connection points: 2
#     Edge 51, Type (0, 1), BuildingBlock: ZUJKAS_clean_linker_0, # of connection points: 2
#     Edge 52, Type (0, 1), BuildingBlock: ZUJKAS_clean_linker_0, # of connection points: 2
#     Edge 53, Type (0, 1), BuildingBlock: ZUJKAS_clean_linker_0, # of connection points: 2
#     Edge 54, Type (0, 1), BuildingBlock: ZUJKAS_clean_linker_0, # of connection points: 2
#     Edge 55, Type (0, 1), BuildingBlock: ZUJKAS_clean_linker_0, # of connection points: 2
#     Edge 56, Type (0, 1), BuildingBlock: ZUJKAS_clean_linker_0, # of connection points: 2
#     Edge 57, Type (0, 1), BuildingBlock: ZUJKAS_clean_linker_0, # of connection points: 2
#     Edge 58, Type (0, 1), BuildingBlock: ZUJKAS_clean_linker_0, # of connection points: 2
#     Edge 59, Type (0, 1), BuildingBlock: ZUJKAS_clean_linker_0, # of connection points: 2
#     Edge 60, Type (0, 1), BuildingBlock: ZUJKAS_clean_linker_0, # of connection points: 2
#     Edge 61, Type (0, 1), BuildingBlock: ZUJKAS_clean_linker_0, # of connection points: 2
#     Edge 62, Type (0, 1), BuildingBlock: ZUJKAS_clean_linker_0, # of connection points: 2
#     Edge 63, Type (0, 1), BuildingBlock: ZUJKAS_clean_linker_0, # of connection points: 2
#     Edge 64, Type (0, 1), BuildingBlock: ZUJKAS_clean_linker_0, # of connection points: 2
#     Edge 65, Type (0, 1), BuildingBlock: ZUJKAS_clean_linker_0, # of connection points: 2
#     Edge 66, Type (0, 1), BuildingBlock: ZUJKAS_clean_linker_0, # of connection points: 2
#     Edge 67, Type (0, 1), BuildingBlock: ZUJKAS_clean_linker_0, # of connection points: 2
#     Edge 68, Type (0, 1), BuildingBlock: ZUJKAS_clean_linker_0, # of connection points: 2
#     Edge 69, Type (0, 1), BuildingBlock: ZUJKAS_clean_linker_0, # of connection points: 2
#     Edge 70, Type (0, 1), BuildingBlock: ZUJKAS_clean_linker_0, # of connection points: 2
#     Edge 71, Type (0, 1), BuildingBlock: ZUJKAS_clean_linker_0, # of connection points: 2
#     Edge 72, Type (0, 1), BuildingBlock: ZUJKAS_clean_linker_0, # of connection points: 2
#     Edge 73, Type (0, 1), BuildingBlock: ZUJKAS_clean_linker_0, # of connection points: 2
#     Edge 74, Type (0, 1), BuildingBlock: ZUJKAS_clean_linker_0, # of connection points: 2
#     Edge 75, Type (0, 1), BuildingBlock: ZUJKAS_clean_linker_0, # of connection points: 2
# Relax obj value: 0.036
# Max RMSD: 0.143
# Mean RMSD: 0.065
data_MOF--net-ctn--node1-QUQFOY_clean_sbu_1--node2-ESEHIV_clean_linker_0--edge1-ZUJKAS_clean_linker_0
_symmetry_space_group_name_H-M    P1
_symmetry_Int_Tables_number       1
_symmetry_cell_setting            triclinic
loop_
_symmetry_equiv_pos_as_xyz
'x, y, z'
_cell_length_a     68.274913
_cell_length_b     68.224587
_cell_length_c     68.271775
_cell_angle_alpha  92.753522
_cell_angle_beta   90.209376
_cell_angle_gamma 94.538237
loop_
_atom_site_label
_atom_site_type_symbol
_atom_site_fract_x
_atom_site_fract_y
_atom_site_fract_z
_atom_type_partial_charge
H0 H 0.04242 0.13 0.08749 0.0
H1 H 0.06829 0.08167 0.11314 0.0
H2 H 0.09047 0.10359 0.0589 0.0
C3 C 0.05368 0.11966 0.08755 0.0
C4 C 0.06681 0.11878 0.07179 0.0
C5 C 0.05395 0.10619 0.10247 0.0
C6 C 0.06807 0.09225 0.10181 0.0
C7 C 0.08111 0.09101 0.08605 0.0
C8 C 0.0805 0.10447 0.07117 0.0
H9 H 0.29937 0.7183 0.2387 0.0
H10 H 0.31234 0.77488 0.21451 0.0
H11 H 0.25715 0.74184 0.20139 0.0
C12 C 0.29528 0.72979 0.22942 0.0
C13 C 0.27686 0.72794 0.22008 0.0
C14 C 0.30814 0.74669 0.22758 0.0
C15 C 0.30237 0.76192 0.21625 0.0
C16 C 0.28403 0.76022 0.20665 0.0
C17 C 0.27135 0.7432 0.20868 0.0
H18 H 0.93882 0.48746 0.09632 0.0
H19 H 0.96104 0.43166 0.08072 0.0
H20 H 0.91635 0.4536 0.04517 0.0
C21 C 0.9383 0.4741 0.08701 0.0
C22 C 0.92554 0.47199 0.07071 0.0
C23 C 0.95134 0.45973 0.09058 0.0
C24 C 0.95123 0.44294 0.07788 0.0
C25 C 0.93884 0.44071 0.06134 0.0
C26 C 0.92584 0.45516 0.058 0.0
H27 H 0.70808 0.76907 0.23222 0.0
H28 H 0.75455 0.80829 0.21043 0.0
H29 H 0.72072 0.82669 0.25994 0.0
C30 C 0.717 0.78294 0.23341 0.0
C31 C 0.71275 0.7973 0.2479 0.0
C32 C 0.73192 0.78688 0.21968 0.0
C33 C 0.74283 0.80524 0.2208 0.0
C34 C 0.73891 0.81965 0.23529 0.0
C35 C 0.72394 0.81552 0.24885 0.0
H36 H 0.02704 0.9482 0.44352 0.0
H37 H 0.06445 0.99656 0.42316 0.0
H38 H 0.08434 0.96211 0.46926 0.0
C39 C 0.04085 0.9572 0.4443 0.0
C40 C 0.05531 0.95324 0.45795 0.0
C41 C 0.04412 0.97268 0.43158 0.0
C42 C 0.06215 0.98414 0.43244 0.0
C43 C 0.07672 0.98044 0.44603 0.0
C44 C 0.07323 0.96486 0.45859 0.0
H45 H 0.1932 0.77068 0.80042 0.0
H46 H 0.23616 0.73542 0.82394 0.0
H47 H 0.2192 0.72739 0.76308 0.0
C48 C 0.20341 0.75938 0.79832 0.0
C49 C 0.20509 0.74991 0.77975 0.0
C50 C 0.21451 0.75421 0.81431 0.0
C51 C 0.22755 0.73946 0.8116 0.0
C52 C 0.22933 0.72963 0.79319 0.0
C53 C 0.21808 0.73501 0.77729 0.0
H54 H 0.92034 0.5776 0.49635 0.0
H55 H 0.97718 0.5919 0.47155 0.0
H56 H 0.94301 0.53884 0.45201 0.0
C57 C 0.93189 0.57413 0.48621 0.0
C58 C 0.92976 0.55667 0.47442 0.0
C59 C 0.94891 0.58696 0.48523 0.0
C60 C 0.96377 0.58231 0.47204 0.0
C61 C 0.9618 0.56496 0.46004 0.0
C62 C 0.94478 0.55215 0.46139 0.0
H63 H 0.75997 0.82212 0.82767 0.0
H64 H 0.78801 0.84136 0.7748 0.0
H65 H 0.81326 0.7979 0.80843 0.0
C66 C 0.77182 0.82143 0.81719 0.0
C67 C 0.78647 0.80847 0.81988 0.0
C68 C 0.77218 0.83326 0.80089 0.0
C69 C 0.78746 0.83208 0.78727 0.0
C70 C 0.80226 0.81927 0.78983 0.0
C71 C 0.80158 0.80743 0.8061 0.0
H72 H 0.25701 0.32131 0.32805 0.0
H73 H 0.28733 0.33837 0.27558 0.0
H74 H 0.31118 0.29669 0.31239 0.0
C75 C 0.26922 0.32015 0.31807 0.0
C76 C 0.28401 0.30776 0.32228 0.0
C77 C 0.27026 0.33127 0.30123 0.0
C78 C 0.28624 0.32971 0.28849 0.0
C79 C 0.301 0.31722 0.2924 0.0
C80 C 0.29975 0.30629 0.30928 0.0
H81 H 0.4311 0.98499 0.59643 0.0
H82 H 0.45721 0.93273 0.57597 0.0
H83 H 0.40915 0.95316 0.54381 0.0
C84 C 0.43117 0.97242 0.58611 0.0
C85 C 0.41831 0.97077 0.56987 0.0
C86 C 0.44517 0.9587 0.58831 0.0
C87 C 0.44601 0.94298 0.57446 0.0
C88 C 0.43307 0.94084 0.55836 0.0
C89 C 0.4192 0.95475 0.55621 0.0
H90 H 0.2036 0.26751 0.73764 0.0
H91 H 0.25228 0.30461 0.71685 0.0
H92 H 0.21859 0.32441 0.76595 0.0
C93 C 0.21305 0.28105 0.73894 0.0
C94 C 0.20922 0.2956 0.75337 0.0
C95 C 0.22867 0.28412 0.72579 0.0
C96 C 0.24063 0.30187 0.72736 0.0
C97 C 0.23692 0.31658 0.74163 0.0
C98 C 0.2213 0.31325 0.75466 0.0
H99 H 0.79293 0.2141 0.74686 0.0
H100 H 0.80735 0.26651 0.71565 0.0
H101 H 0.7504 0.23509 0.70809 0.0
C102 C 0.78884 0.22482 0.73668 0.0
C103 C 0.77008 0.2228 0.72808 0.0
C104 C 0.8024 0.24049 0.73224 0.0
C105 C 0.79695 0.25436 0.71912 0.0
C106 C 0.77818 0.25254 0.71036 0.0
C107 C 0.76484 0.2367 0.71492 0.0
H108 H 0.53025 0.61911 0.57916 0.0
H109 H 0.55566 0.5726 0.60808 0.0
H110 H 0.58053 0.59317 0.55434 0.0
C111 C 0.54177 0.60913 0.58011 0.0
C112 C 0.55589 0.60826 0.56519 0.0
C113 C 0.54149 0.59622 0.59551 0.0
C114 C 0.55572 0.58247 0.5961 0.0
C115 C 0.56971 0.58104 0.58119 0.0
C116 C 0.56989 0.59425 0.56598 0.0
H117 H 0.53485 0.45059 0.95031 0.0
H118 H 0.57404 0.49482 0.92511 0.0
H119 H 0.59376 0.46228 0.97277 0.0
C120 C 0.54924 0.45845 0.9497 0.0
C121 C 0.56386 0.45475 0.96329 0.0
C122 C 0.55294 0.47266 0.93566 0.0
C123 C 0.57144 0.48321 0.9353 0.0
C124 C 0.58613 0.47978 0.94886 0.0
C125 C 0.58232 0.46527 0.96253 0.0
H126 H 0.69695 0.27832 0.28851 0.0
H127 H 0.74474 0.24732 0.30915 0.0
H128 H 0.72289 0.23581 0.25018 0.0
C129 C 0.70786 0.26781 0.28584 0.0
C130 C 0.70846 0.25769 0.26748 0.0
C131 C 0.72087 0.26419 0.30095 0.0
C132 C 0.73493 0.25054 0.29741 0.0
C133 C 0.73572 0.2402 0.27917 0.0
C134 C 0.72235 0.24375 0.26428 0.0
H135 H 0.40316 0.08629 0.98434 0.0
H136 H 0.46208 0.08953 0.96179 0.0
H137 H 0.41892 0.04546 0.93828 0.0
C138 C 0.41414 0.08078 0.97456 0.0
C139 C 0.40885 0.06463 0.96157 0.0
C140 C 0.43335 0.08989 0.9749 0.0
C141 C 0.44716 0.08284 0.96165 0.0
C142 C 0.4419 0.06717 0.94811 0.0
C143 C 0.42275 0.05809 0.94819 0.0
O144 O 0.2245 0.87179 0.00194 0.0
Cd145 Cd 0.23532 0.89296 0.02259 0.0
Cd146 Cd 0.20666 0.91249 0.00857 0.0
O147 O 0.19897 0.8868 0.99238 0.0
O148 O 0.25303 0.8789 0.03914 0.0
O149 O 0.22654 0.89203 0.05068 0.0
C150 C 0.24164 0.88228 0.05372 0.0
C151 C 0.18417 0.92836 0.02772 0.0
C152 C 0.20921 0.87203 0.99132 0.0
C153 C 0.24737 0.92997 0.00244 0.0
O154 O 0.22933 0.93068 0.9982 0.0
O155 O 0.25282 0.91645 0.01288 0.0
O156 O 0.18349 0.92823 0.00883 0.0
O157 O 0.19722 0.9186 0.03583 0.0
O158 O 0.15603 0.54824 0.28081 0.0
Cd159 Cd 0.14032 0.52377 0.29087 0.0
Cd160 Cd 0.11171 0.53501 0.26705 0.0
O161 O 0.13336 0.55627 0.26027 0.0
O162 O 0.16009 0.50727 0.30142 0.0
O163 O 0.14078 0.49767 0.27603 0.0
C164 C 0.15463 0.49402 0.28797 0.0
C165 C 0.09218 0.52104 0.2412 0.0
C166 C 0.15039 0.55936 0.26786 0.0
C167 C 0.10312 0.53333 0.31032 0.0
O168 O 0.0974 0.53744 0.29339 0.0
O169 O 0.12004 0.52731 0.31272 0.0
O170 O 0.09062 0.53879 0.24792 0.0
O171 O 0.10522 0.51108 0.24903 0.0
O172 O 0.76809 0.68055 0.99166 0.0
Cd173 Cd 0.75981 0.65956 0.01139 0.0
Cd174 Cd 0.78754 0.64056 0.99289 0.0
O175 O 0.79339 0.66646 0.97897 0.0
O176 O 0.74378 0.67354 0.03094 0.0
O177 O 0.77168 0.6612 0.03852 0.0
C178 C 0.75684 0.67071 0.04397 0.0
C179 C 0.81198 0.62492 0.00821 0.0
C180 C 0.78257 0.68079 0.98002 0.0
C181 C 0.74649 0.62221 0.98887 0.0
O182 O 0.76403 0.62205 0.98278 0.0
O183 O 0.74187 0.63552 0.00127 0.0
O184 O 0.81069 0.62497 0.98935 0.0
O185 O 0.79983 0.63469 0.01849 0.0
O186 O 0.90201 0.02772 0.28054 0.0
Cd187 Cd 0.88512 0.03261 0.25646 0.0
Cd188 Cd 0.86002 0.04197 0.28464 0.0
O189 O 0.88215 0.03698 0.30398 0.0
O190 O 0.90415 0.03093 0.23462 0.0
O191 O 0.89033 0.05826 0.24307 0.0
C192 C 0.90252 0.04931 0.23211 0.0
C193 C 0.84772 0.07264 0.28355 0.0
C194 C 0.89839 0.03062 0.29863 0.0
C195 C 0.84699 0.00757 0.2578 0.0
O196 O 0.8431 0.01781 0.27312 0.0
O197 O 0.86274 0.01159 0.24844 0.0
O198 O 0.84223 0.06064 0.29691 0.0
O199 O 0.86057 0.06725 0.27094 0.0
O200 O 0.25957 0.17994 0.49375 0.0
Cd201 Cd 0.25083 0.15946 0.51382 0.0
Cd202 Cd 0.27829 0.13951 0.49614 0.0
O203 O 0.28482 0.16513 0.48189 0.0
O204 O 0.23519 0.17384 0.53341 0.0
O205 O 0.26318 0.16151 0.54073 0.0
C206 C 0.24849 0.1712 0.54625 0.0
C207 C 0.30237 0.12325 0.51137 0.0
C208 C 0.27426 0.17967 0.4824 0.0
C209 C 0.23693 0.12203 0.49186 0.0
O210 O 0.25451 0.12142 0.486 0.0
O211 O 0.23245 0.13559 0.50403 0.0
O212 O 0.30101 0.12333 0.49253 0.0
O213 O 0.29052 0.13334 0.5217 0.0
O214 O 0.40703 0.52461 0.78618 0.0
Cd215 Cd 0.38792 0.52794 0.76332 0.0
Cd216 Cd 0.36456 0.53755 0.79281 0.0
O217 O 0.38857 0.53465 0.8105 0.0
O218 O 0.4047 0.52632 0.73969 0.0
O219 O 0.39041 0.55318 0.74895 0.0
C220 C 0.40166 0.54436 0.73683 0.0
C221 C 0.34985 0.56701 0.79189 0.0
C222 C 0.40461 0.52844 0.80437 0.0
C223 C 0.35105 0.50164 0.76844 0.0
O224 O 0.34802 0.51217 0.78381 0.0
O225 O 0.36576 0.50599 0.75768 0.0
O226 O 0.34677 0.55548 0.80621 0.0
O227 O 0.36179 0.56194 0.77825 0.0
O228 O 0.73032 0.37054 0.49692 0.0
Cd229 Cd 0.74047 0.3877 0.521 0.0
Cd230 Cd 0.7167 0.41332 0.50587 0.0
O231 O 0.70966 0.39053 0.4855 0.0
O232 O 0.75454 0.3692 0.53634 0.0
O233 O 0.72875 0.38362 0.54773 0.0
C234 C 0.74228 0.37177 0.55033 0.0
C235 C 0.69205 0.43055 0.52044 0.0
C236 C 0.71763 0.37431 0.48428 0.0
C237 C 0.75975 0.42583 0.50809 0.0
O238 O 0.74287 0.42985 0.50241 0.0
O239 O 0.76189 0.40989 0.51642 0.0
O240 O 0.69674 0.43243 0.50232 0.0
O241 O 0.70097 0.41816 0.53028 0.0
O242 O 0.6462 0.04303 0.78559 0.0
Cd243 Cd 0.62953 0.01817 0.79329 0.0
Cd244 Cd 0.60454 0.02812 0.76527 0.0
O245 O 0.62687 0.04958 0.76125 0.0
O246 O 0.64756 0.00188 0.80687 0.0
O247 O 0.63306 0.9926 0.77846 0.0
C248 C 0.64485 0.989 0.79246 0.0
C249 C 0.58891 0.01362 0.73728 0.0
C250 C 0.6424 0.05356 0.77144 0.0
C251 C 0.58955 0.02704 0.80663 0.0
O252 O 0.58634 0.03102 0.78899 0.0
O253 O 0.60598 0.02121 0.81159 0.0
O254 O 0.5871 0.03171 0.7427 0.0
O255 O 0.59999 0.00358 0.74764 0.0
O256 O 0.97474 0.27395 0.91659 0.0
Cd257 Cd 0.98428 0.25127 0.89909 0.0
Cd258 Cd 0.00227 0.28026 0.88001 0.0
O259 O 0.99408 0.29735 0.90387 0.0
O260 O 0.98202 0.22763 0.91511 0.0
O261 O 0.01049 0.24202 0.90582 0.0
C262 C 0.00098 0.22863 0.91559 0.0
C263 C 0.03447 0.28266 0.8688 0.0
C264 C 0.98157 0.29182 0.91663 0.0
C265 C 0.96976 0.25574 0.85872 0.0
O266 O 0.98112 0.27143 0.85916 0.0
O267 O 0.96962 0.24437 0.87294 0.0
O268 O 0.02284 0.29628 0.86598 0.0
O269 O 0.02794 0.26784 0.87864 0.0
O270 O 0.48194 0.77901 0.41431 0.0
Cd271 Cd 0.48957 0.75561 0.39659 0.0
Cd272 Cd 0.50815 0.78413 0.37715 0.0
O273 O 0.50115 0.80203 0.40089 0.0
O274 O 0.48403 0.73261 0.413 0.0
O275 O 0.51392 0.74241 0.40317 0.0
C276 C 0.50265 0.7306 0.41321 0.0
C277 C 0.54021 0.78475 0.36568 0.0
C278 C 0.48902 0.79678 0.41407 0.0
C279 C 0.47433 0.7609 0.35657 0.0
O280 O 0.48639 0.77609 0.35665 0.0
O281 O 0.47396 0.74961 0.37085 0.0
O282 O 0.52926 0.79889 0.36271 0.0
O283 O 0.53308 0.77035 0.37579 0.0
O284 O 0.98121 0.78506 0.67302 0.0
Cd285 Cd 0.00309 0.77414 0.65591 0.0
Cd286 Cd 0.98934 0.79791 0.62909 0.0
O287 O 0.97147 0.8057 0.65183 0.0
O288 O 0.02067 0.76229 0.67441 0.0
O289 O 0.03048 0.78739 0.6565 0.0
C290 C 0.03451 0.77495 0.66933 0.0
C291 C 0.00282 0.82269 0.60982 0.0
C292 C 0.97006 0.79822 0.66848 0.0
C293 C 0.98678 0.75449 0.61867 0.0
O294 O 0.98263 0.77146 0.61397 0.0
O295 O 0.99542 0.75227 0.63482 0.0
O296 O 0.98432 0.81729 0.60936 0.0
O297 O 0.01385 0.81428 0.62175 0.0
O298 O 0.47637 0.28147 0.16821 0.0
Cd299 Cd 0.49847 0.27217 0.15014 0.0
Cd300 Cd 0.48174 0.29504 0.12477 0.0
O301 O 0.46458 0.30208 0.14816 0.0
O302 O 0.51665 0.26009 0.16789 0.0
O303 O 0.52551 0.28629 0.15116 0.0
C304 C 0.53009 0.27338 0.16328 0.0
C305 C 0.49667 0.32016 0.10695 0.0
C306 C 0.46434 0.29417 0.16461 0.0
C307 C 0.4812 0.25235 0.1132 0.0
O308 O 0.47479 0.26874 0.10952 0.0
O309 O 0.49174 0.25072 0.12831 0.0
O310 O 0.47807 0.31532 0.10557 0.0
O311 O 0.50691 0.31085 0.11888 0.0
H312 H 0.24348 0.76901 0.83982 0.0
H313 H 0.23961 0.78614 0.87179 0.0
H314 H 0.17661 0.77897 0.86482 0.0
H315 H 0.18034 0.76161 0.83295 0.0
H316 H 0.21879 0.82152 0.87726 0.0
H317 H 0.18782 0.75979 0.921 0.0
H318 H 0.20135 0.75587 0.89864 0.0
H319 H 0.17645 0.76241 0.89755 0.0
C320 C 0.22881 0.77086 0.84523 0.0
C321 C 0.21221 0.76403 0.83391 0.0
C322 C 0.22663 0.78067 0.86342 0.0
C323 C 0.20783 0.7836 0.87067 0.0
C324 C 0.19122 0.7766 0.85954 0.0
H325 H 0.18165 0.87062 0.96195 0.0
H326 H 0.17894 0.84765 0.93325 0.0
C327 C 0.19339 0.76689 0.8413 0.0
C328 C 0.20568 0.79507 0.88933 0.0
H329 H 0.18962 0.79173 0.93647 0.0
C330 C 0.21238 0.81505 0.89021 0.0
C331 C 0.19737 0.78647 0.90614 0.0
C332 C 0.19043 0.76492 0.90597 0.0
C333 C 0.21098 0.82673 0.9075 0.0
C334 C 0.20252 0.81821 0.92427 0.0
C335 C 0.19588 0.7982 0.92347 0.0
C336 C 0.20157 0.82982 0.94299 0.0
C337 C 0.21892 0.84804 0.90787 0.0
C338 C 0.21458 0.82679 0.95826 0.0
C339 C 0.21622 0.83988 0.97465 0.0
C340 C 0.2048 0.85618 0.97602 0.0
C341 C 0.19073 0.85829 0.96132 0.0
C342 C 0.18917 0.84522 0.94489 0.0
H343 H 0.22782 0.85148 0.89469 0.0
H344 H 0.20649 0.85758 0.90839 0.0
H345 H 0.22815 0.8518 0.92115 0.0
H346 H 0.22422 0.81492 0.95701 0.0
H347 H 0.22709 0.83774 0.98578 0.0
H348 H 0.97708 0.52946 0.45283 0.0
H349 H 0.00308 0.52186 0.42968 0.0
H350 H 0.00794 0.58216 0.41278 0.0
H351 H 0.98199 0.58985 0.4358 0.0
H352 H 0.00327 0.52539 0.38958 0.0
H353 H 0.06488 0.57219 0.42466 0.0
H354 H 0.04215 0.56595 0.43718 0.0
H355 H 0.04375 0.58548 0.42032 0.0
C356 C 0.98368 0.54107 0.44414 0.0
C357 C 0.97758 0.56027 0.44616 0.0
C358 C 0.99858 0.53674 0.43104 0.0
C359 C 0.00765 0.55154 0.41983 0.0
C360 C 0.00148 0.57066 0.4217 0.0
H361 H 0.06626 0.54611 0.31015 0.0
H362 H 0.04383 0.54881 0.33766 0.0
C363 C 0.98663 0.57501 0.4348 0.0
C364 C 0.02291 0.54686 0.40544 0.0
H365 H 0.06963 0.56085 0.39134 0.0
C366 C 0.01786 0.53296 0.39008 0.0
C367 C 0.04202 0.55653 0.40632 0.0
C368 C 0.04862 0.57072 0.42312 0.0
C369 C 0.03116 0.52912 0.37506 0.0
C370 C 0.04982 0.53971 0.37529 0.0
C371 C 0.0552 0.55294 0.39111 0.0
C372 C 0.06357 0.53799 0.35876 0.0
C373 C 0.02506 0.51387 0.35899 0.0
C374 C 0.08233 0.53157 0.36168 0.0
C375 C 0.0953 0.53013 0.34598 0.0
C376 C 0.08972 0.53523 0.32714 0.0
C377 C 0.071 0.54195 0.32441 0.0
C378 C 0.05809 0.54338 0.34009 0.0
H379 H 0.01312 0.50322 0.36387 0.0
H380 H 0.01946 0.52132 0.34625 0.0
H381 H 0.03767 0.50563 0.35405 0.0
H382 H 0.08685 0.52751 0.37607 0.0
H383 H 0.10963 0.52494 0.34858 0.0
H384 H 0.78011 0.82004 0.85807 0.0
H385 H 0.78076 0.79999 0.88689 0.0
H386 H 0.79347 0.74966 0.84985 0.0
H387 H 0.79261 0.76951 0.82095 0.0
H388 H 0.76189 0.7434 0.87798 0.0
H389 H 0.83118 0.77885 0.91128 0.0
H390 H 0.8131 0.79508 0.9043 0.0
H391 H 0.8249 0.78078 0.88574 0.0
C392 C 0.78291 0.80467 0.85607 0.0
C393 C 0.78635 0.79632 0.83729 0.0
C394 C 0.78347 0.79332 0.87254 0.0
C395 C 0.78742 0.77348 0.87045 0.0
C396 C 0.79056 0.76502 0.85171 0.0
H397 H 0.81144 0.68591 0.95252 0.0
H398 H 0.81335 0.70986 0.92687 0.0
C399 C 0.79012 0.77637 0.83527 0.0
C400 C 0.78777 0.7613 0.88772 0.0
H401 H 0.81357 0.75469 0.92953 0.0
C402 C 0.77314 0.74586 0.88928 0.0
C403 C 0.80261 0.76454 0.90228 0.0
C404 C 0.81897 0.78061 0.90086 0.0
C405 C 0.77286 0.73359 0.90517 0.0
C406 C 0.78753 0.73698 0.91987 0.0
C407 C 0.80228 0.75231 0.91826 0.0
C408 C 0.78787 0.72433 0.93677 0.0
C409 C 0.75705 0.7169 0.90603 0.0
C410 C 0.77328 0.72507 0.9511 0.0
C411 C 0.77216 0.71149 0.96578 0.0
C412 C 0.78559 0.69689 0.96631 0.0
C413 C 0.80082 0.69689 0.95248 0.0
C414 C 0.80196 0.71055 0.93784 0.0
H415 H 0.74887 0.71425 0.89193 0.0
H416 H 0.76351 0.70311 0.90977 0.0
H417 H 0.74643 0.72048 0.91767 0.0
H418 H 0.76239 0.73575 0.95054 0.0
H419 H 0.76031 0.71198 0.97625 0.0
H420 H 0.00536 0.97566 0.43988 0.0
H421 H 0.97959 0.98505 0.41792 0.0
H422 H 0.02162 0.99069 0.37114 0.0
H423 H 0.04744 0.98113 0.39295 0.0
H424 H 0.98133 0.02196 0.39659 0.0
H425 H 0.97381 0.95387 0.34811 0.0
H426 H 0.98444 0.95451 0.37243 0.0
H427 H 0.99847 0.96452 0.35255 0.0
C428 C 0.00903 0.97863 0.42484 0.0
C429 C 0.02837 0.97758 0.41808 0.0
C430 C 0.99435 0.98411 0.41238 0.0
C431 C 0.99873 0.98839 0.39293 0.0
C432 C 0.01796 0.98723 0.38608 0.0
H433 H 0.93625 0.0222 0.29214 0.0
H434 H 0.96008 0.01282 0.31595 0.0
C435 C 0.03269 0.9819 0.39856 0.0
C436 C 0.98331 0.99463 0.3799 0.0
H437 H 0.95696 0.98082 0.33832 0.0
C438 C 0.97586 0.01297 0.3839 0.0
C439 C 0.97633 0.98281 0.36341 0.0
C440 C 0.98352 0.96275 0.35886 0.0
C441 C 0.96195 0.0201 0.37143 0.0
C442 C 0.95503 0.00832 0.35483 0.0
C443 C 0.96231 0.98984 0.35104 0.0
C444 C 0.94067 0.01503 0.34081 0.0
C445 C 0.95531 0.04042 0.37578 0.0
C446 C 0.92183 0.01947 0.3469 0.0
C447 C 0.90817 0.02502 0.33331 0.0
C448 C 0.91305 0.02595 0.31336 0.0
C449 C 0.93198 0.02159 0.30738 0.0
C450 C 0.94563 0.0162 0.32096 0.0
H451 H 0.96567 0.04939 0.38585 0.0
H452 H 0.95384 0.04836 0.36209 0.0
H453 H 0.94073 0.03912 0.38295 0.0
H454 H 0.91756 0.01826 0.36208 0.0
H455 H 0.89366 0.02814 0.33836 0.0
H456 H 0.20085 0.2652 0.70138 0.0
H457 H 0.20604 0.24331 0.67273 0.0
H458 H 0.26838 0.24855 0.68434 0.0
H459 H 0.26332 0.27043 0.71319 0.0
H460 H 0.23517 0.25726 0.64076 0.0
H461 H 0.24944 0.18668 0.67404 0.0
H462 H 0.23466 0.20436 0.68622 0.0
H463 H 0.26074 0.20948 0.68483 0.0
C464 C 0.21562 0.26137 0.69809 0.0
C465 C 0.23168 0.26949 0.70953 0.0
C466 C 0.21855 0.24895 0.68169 0.0
C467 C 0.23755 0.24427 0.67659 0.0
C468 C 0.25359 0.25189 0.68822 0.0
H469 H 0.27692 0.175 0.575 0.0
H470 H 0.27522 0.19241 0.60719 0.0
C471 C 0.25069 0.26445 0.70457 0.0
C472 C 0.24065 0.23277 0.65815 0.0
H473 H 0.25029 0.18724 0.63951 0.0
C474 C 0.23851 0.24197 0.64044 0.0
C475 C 0.24527 0.21296 0.65792 0.0
C476 C 0.24763 0.20262 0.67671 0.0
C477 C 0.24069 0.23176 0.62238 0.0
C478 C 0.24456 0.21167 0.62207 0.0
C479 C 0.24719 0.2026 0.63982 0.0
C480 C 0.24524 0.1998 0.60338 0.0
C481 C 0.23899 0.24268 0.60381 0.0
C482 C 0.22876 0.19766 0.59092 0.0
C483 C 0.22973 0.18791 0.57257 0.0
C484 C 0.24713 0.17985 0.56642 0.0
C485 C 0.26334 0.18112 0.57932 0.0
C486 C 0.26239 0.19105 0.59768 0.0
H487 H 0.24193 0.25883 0.60658 0.0
H488 H 0.24936 0.23765 0.59249 0.0
H489 H 0.22382 0.23991 0.59786 0.0
H490 H 0.21522 0.20387 0.59526 0.0
H491 H 0.2169 0.18696 0.56309 0.0
H492 H 0.52558 0.62753 0.61464 0.0
H493 H 0.49799 0.62633 0.63771 0.0
H494 H 0.49341 0.56292 0.63188 0.0
H495 H 0.52047 0.56396 0.60865 0.0
H496 H 0.4568 0.58174 0.62789 0.0
H497 H 0.49993 0.60732 0.69517 0.0
H498 H 0.5025 0.62168 0.67373 0.0
H499 H 0.51161 0.59773 0.67345 0.0
C500 C 0.51864 0.61336 0.61829 0.0
C501 C 0.52531 0.59583 0.60998 0.0
C502 C 0.50299 0.6127 0.63152 0.0
C503 C 0.49381 0.59453 0.63655 0.0
C504 C 0.50037 0.57708 0.6282 0.0
H505 H 0.41919 0.52761 0.70535 0.0
H506 H 0.43843 0.54408 0.6801 0.0
C507 C 0.51596 0.5777 0.61508 0.0
C508 C 0.47727 0.59326 0.65046 0.0
H509 H 0.46726 0.59495 0.69941 0.0
C510 C 0.45893 0.585 0.6435 0.0
C511 C 0.48009 0.59774 0.67075 0.0
C512 C 0.49958 0.60655 0.67888 0.0
C513 C 0.44369 0.57996 0.65646 0.0
C514 C 0.44701 0.58299 0.67685 0.0
C515 C 0.46482 0.59262 0.68373 0.0
C516 C 0.4336 0.57354 0.69119 0.0
C517 C 0.42442 0.57065 0.64827 0.0
C518 C 0.42455 0.58468 0.70587 0.0
C519 C 0.4134 0.57525 0.72038 0.0
C520 C 0.41153 0.55458 0.72057 0.0
C521 C 0.42036 0.54355 0.70562 0.0
C522 C 0.43126 0.55294 0.69109 0.0
H523 H 0.42188 0.57513 0.63309 0.0
H524 H 0.42474 0.5544 0.64777 0.0
H525 H 0.41192 0.57469 0.65758 0.0
H526 H 0.42638 0.60061 0.70627 0.0
H527 H 0.40685 0.58411 0.7318 0.0
H528 H 0.80006 0.26651 0.67998 0.0
H529 H 0.79037 0.28863 0.65512 0.0
H530 H 0.73419 0.29253 0.68303 0.0
H531 H 0.74383 0.27049 0.70814 0.0
H532 H 0.75168 0.27915 0.63123 0.0
H533 H 0.75948 0.35165 0.67305 0.0
H534 H 0.77387 0.33166 0.67924 0.0
H535 H 0.74813 0.33036 0.68449 0.0
C536 C 0.78577 0.27233 0.68101 0.0
C537 C 0.7727 0.26679 0.69598 0.0
C538 C 0.78024 0.28486 0.66678 0.0
C539 C 0.76165 0.29222 0.66739 0.0
C540 C 0.74866 0.28706 0.68247 0.0
H541 H 0.71744 0.37132 0.58196 0.0
H542 H 0.7197 0.352 0.61127 0.0
C543 C 0.75413 0.2744 0.69667 0.0
C544 C 0.75555 0.30433 0.65148 0.0
H545 H 0.75107 0.35178 0.63954 0.0
C546 C 0.75134 0.29501 0.63305 0.0
C547 C 0.75492 0.32493 0.65409 0.0
C548 C 0.75936 0.3354 0.67374 0.0
C549 C 0.74707 0.30587 0.6169 0.0
C550 C 0.74748 0.32662 0.6192 0.0
C551 C 0.75085 0.33588 0.63785 0.0
C552 C 0.74621 0.3389 0.60206 0.0
C553 C 0.7424 0.29505 0.59743 0.0
C554 C 0.76061 0.33823 0.58753 0.0
C555 C 0.75936 0.34912 0.5709 0.0
C556 C 0.74373 0.36105 0.56851 0.0
C557 C 0.72959 0.36219 0.58337 0.0
C558 C 0.73086 0.3512 0.60008 0.0
H559 H 0.73678 0.27954 0.59937 0.0
H560 H 0.73132 0.3024 0.58907 0.0
H561 H 0.756 0.29487 0.5886 0.0
H562 H 0.77281 0.32916 0.58901 0.0
H563 H 0.77061 0.34804 0.55985 0.0
H564 H 0.43897 0.96327 0.62767 0.0
H565 H 0.46395 0.96893 0.6537 0.0
H566 H 0.50967 0.9672 0.61028 0.0
H567 H 0.48478 0.9607 0.58444 0.0
H568 H 0.51943 0.94842 0.64145 0.0
H569 H 0.49384 0.02083 0.66562 0.0
H570 H 0.47528 0.00091 0.66752 0.0
H571 H 0.48445 0.00735 0.64379 0.0
C572 C 0.45438 0.96406 0.6238 0.0
C573 C 0.46004 0.96166 0.60415 0.0
C574 C 0.46861 0.96737 0.6386 0.0
C575 C 0.48868 0.96889 0.63389 0.0
C576 C 0.49429 0.9661 0.61426 0.0
H577 H 0.57882 0.03182 0.70486 0.0
H578 H 0.55594 0.01898 0.67895 0.0
C579 C 0.48009 0.96243 0.59953 0.0
C580 C 0.50393 0.97396 0.64921 0.0
H581 H 0.51899 0.00898 0.68452 0.0
C582 C 0.51938 0.96168 0.65087 0.0
C583 C 0.50397 0.9914 0.66129 0.0
C584 C 0.48862 0.00598 0.65937 0.0
C585 C 0.53498 0.96647 0.66415 0.0
C586 C 0.53476 0.98369 0.67652 0.0
C587 C 0.51914 0.99576 0.67504 0.0
C588 C 0.5508 0.99009 0.69068 0.0
C589 C 0.5518 0.9534 0.66429 0.0
C590 C 0.55607 0.97792 0.70555 0.0
C591 C 0.5696 0.98512 0.72014 0.0
C592 C 0.57758 0.00474 0.72029 0.0
C593 C 0.5728 0.01665 0.70507 0.0
C594 C 0.55969 0.00934 0.69031 0.0
H595 H 0.55256 0.94446 0.65032 0.0
H596 H 0.56607 0.96217 0.66674 0.0
H597 H 0.54963 0.94309 0.67633 0.0
H598 H 0.5491 0.96318 0.70642 0.0
H599 H 0.5729 0.97576 0.73189 0.0
H600 H 0.8219 0.27357 0.74914 0.0
H601 H 0.85315 0.27591 0.76718 0.0
H602 H 0.85819 0.21388 0.75513 0.0
H603 H 0.82721 0.21152 0.73674 0.0
H604 H 0.85908 0.25431 0.8005 0.0
H605 H 0.91337 0.23909 0.74245 0.0
H606 H 0.8892 0.24658 0.73708 0.0
H607 H 0.8923 0.22156 0.74274 0.0
C608 C 0.8299 0.26054 0.74998 0.0
C609 C 0.82211 0.24235 0.74161 0.0
C610 C 0.84767 0.26187 0.76033 0.0
C611 C 0.85803 0.2451 0.7623 0.0
C612 C 0.85057 0.22705 0.7535 0.0
H613 H 0.94029 0.22613 0.85499 0.0
H614 H 0.91398 0.22243 0.83036 0.0
C615 C 0.83279 0.22569 0.7432 0.0
C616 C 0.87565 0.24609 0.77504 0.0
H617 H 0.92458 0.23891 0.77553 0.0
C618 C 0.87343 0.25103 0.79504 0.0
C619 C 0.8943 0.24186 0.7678 0.0
C620 C 0.89757 0.23713 0.74631 0.0
C621 C 0.88934 0.25161 0.8081 0.0
C622 C 0.90789 0.24688 0.80098 0.0
C623 C 0.91024 0.24226 0.78092 0.0
C624 C 0.92509 0.24741 0.8142 0.0
C625 C 0.88627 0.2575 0.8294 0.0
C626 C 0.9404 0.26219 0.81272 0.0
C627 C 0.95544 0.26435 0.82674 0.0
C628 C 0.95545 0.2517 0.84243 0.0
C629 C 0.94066 0.23619 0.84318 0.0
C630 C 0.9256 0.23408 0.82916 0.0
H631 H 0.87224 0.26448 0.8317 0.0
H632 H 0.88587 0.24421 0.83819 0.0
H633 H 0.89855 0.26791 0.83504 0.0
H634 H 0.94025 0.27255 0.80119 0.0
H635 H 0.96668 0.27637 0.82564 0.0
H636 H 0.43219 0.94328 0.51849 0.0
H637 H 0.43933 0.9178 0.49367 0.0
H638 H 0.4465 0.87707 0.53905 0.0
H639 H 0.4391 0.90236 0.56397 0.0
H640 H 0.47861 0.88176 0.51264 0.0
H641 H 0.40696 0.86656 0.47373 0.0
H642 H 0.41551 0.89212 0.47699 0.0
H643 H 0.4091 0.87824 0.49805 0.0
C644 C 0.43479 0.92875 0.52316 0.0
C645 C 0.43513 0.92483 0.54319 0.0
C646 C 0.4389 0.91424 0.50897 0.0
C647 C 0.44332 0.89557 0.51457 0.0
C648 C 0.44311 0.89142 0.53448 0.0
H649 H 0.46117 0.79101 0.44228 0.0
H650 H 0.45032 0.81516 0.46663 0.0
C651 C 0.43896 0.90588 0.54867 0.0
C652 C 0.44966 0.88086 0.49983 0.0
H653 H 0.43448 0.85245 0.45927 0.0
C654 C 0.46897 0.87529 0.50099 0.0
C655 C 0.43697 0.87244 0.48477 0.0
C656 C 0.41592 0.87747 0.48331 0.0
C657 C 0.47602 0.86163 0.4873 0.0
C658 C 0.46347 0.85352 0.47199 0.0
C659 C 0.44408 0.85888 0.47096 0.0
C660 C 0.47012 0.8391 0.45715 0.0
C661 C 0.49675 0.85577 0.48944 0.0
C662 C 0.48478 0.84468 0.44371 0.0
C663 C 0.49103 0.83093 0.42973 0.0
C664 C 0.4827 0.81137 0.42899 0.0
C665 C 0.46796 0.80591 0.44248 0.0
C666 C 0.46168 0.81968 0.45637 0.0
H667 H 0.50307 0.86023 0.50416 0.0
H668 H 0.49722 0.83961 0.48699 0.0
H669 H 0.50618 0.86304 0.47827 0.0
H670 H 0.49129 0.85969 0.44398 0.0
H671 H 0.50235 0.83563 0.41951 0.0
H672 H 0.18267 0.32213 0.76319 0.0
H673 H 0.1543 0.31777 0.78472 0.0
H674 H 0.16818 0.25842 0.79438 0.0
H675 H 0.19693 0.26278 0.77306 0.0
H676 H 0.12236 0.2876 0.77901 0.0
H677 H 0.16115 0.28425 0.85054 0.0
H678 H 0.17304 0.29461 0.82936 0.0
H679 H 0.16868 0.26843 0.83057 0.0
C680 C 0.17986 0.30823 0.7701 0.0
C681 C 0.19209 0.29283 0.76655 0.0
C682 C 0.1636 0.30574 0.7823 0.0
C683 C 0.15933 0.28787 0.79128 0.0
C684 C 0.17144 0.27242 0.78778 0.0
H685 H 0.06072 0.25424 0.86759 0.0
H686 H 0.09158 0.25451 0.84928 0.0
C687 C 0.18771 0.27487 0.77548 0.0
C688 C 0.14167 0.28533 0.80364 0.0
H689 H 0.12648 0.28077 0.85093 0.0
C690 C 0.12323 0.28603 0.79472 0.0
C691 C 0.14293 0.28314 0.82408 0.0
C692 C 0.16249 0.28267 0.83433 0.0
C693 C 0.10595 0.28482 0.80575 0.0
C694 C 0.10722 0.2833 0.8263 0.0
C695 C 0.12562 0.28205 0.83518 0.0
C696 C 0.08957 0.2837 0.83877 0.0
C697 C 0.08647 0.28513 0.79528 0.0
C698 C 0.07865 0.30028 0.83943 0.0
C699 C 0.06108 0.30016 0.84979 0.0
C700 C 0.05416 0.2835 0.85982 0.0
C701 C 0.06564 0.26727 0.85996 0.0
C702 C 0.08324 0.26738 0.84951 0.0
H703 H 0.08761 0.28083 0.77944 0.0
H704 H 0.07506 0.27505 0.80192 0.0
H705 H 0.08158 0.30026 0.79649 0.0
H706 H 0.08353 0.31318 0.83158 0.0
H707 H 0.05269 0.31298 0.84954 0.0
H708 H 0.54685 0.64674 0.56495 0.0
H709 H 0.54162 0.66605 0.53646 0.0
H710 H 0.55877 0.61834 0.49821 0.0
H711 H 0.56264 0.59839 0.52641 0.0
H712 H 0.56439 0.6796 0.50737 0.0
H713 H 0.50546 0.6261 0.47648 0.0
H714 H 0.51556 0.62434 0.50069 0.0
H715 H 0.5286 0.61582 0.47947 0.0
C716 C 0.54935 0.64026 0.55048 0.0
C717 C 0.55491 0.62087 0.54804 0.0
C718 C 0.54655 0.65141 0.53421 0.0
C719 C 0.5494 0.64348 0.51517 0.0
C720 C 0.55601 0.62458 0.51272 0.0
H721 H 0.54075 0.72057 0.41557 0.0
H722 H 0.55407 0.69824 0.43843 0.0
C723 C 0.55852 0.6133 0.52895 0.0
C724 C 0.54462 0.65476 0.49797 0.0
H725 H 0.5145 0.65348 0.45783 0.0
C726 C 0.55356 0.67388 0.49646 0.0
C727 C 0.53033 0.64731 0.48387 0.0
C728 C 0.51928 0.62735 0.48525 0.0
C729 C 0.54826 0.68594 0.48153 0.0
C730 C 0.53404 0.67844 0.46738 0.0
C731 C 0.52552 0.65913 0.46859 0.0
C732 C 0.52622 0.69094 0.45246 0.0
C733 C 0.55725 0.70688 0.48163 0.0
C734 C 0.50605 0.69354 0.45215 0.0
C735 C 0.49838 0.70591 0.43892 0.0
C736 C 0.51075 0.71607 0.42575 0.0
C737 C 0.53088 0.71303 0.42563 0.0
C738 C 0.53854 0.70043 0.4388 0.0
H739 H 0.56435 0.71162 0.49593 0.0
H740 H 0.56867 0.70806 0.47013 0.0
H741 H 0.54599 0.71719 0.47844 0.0
H742 H 0.49624 0.68634 0.46251 0.0
H743 H 0.48281 0.70791 0.43942 0.0
H744 H 0.82415 0.85047 0.77532 0.0
H745 H 0.8528 0.84952 0.75386 0.0
H746 H 0.84697 0.78606 0.75237 0.0
H747 H 0.81817 0.78688 0.77358 0.0
H748 H 0.88827 0.83065 0.7624 0.0
H749 H 0.85076 0.80053 0.69379 0.0
H750 H 0.83785 0.81196 0.71379 0.0
H751 H 0.84462 0.78716 0.71528 0.0
C752 C 0.8288 0.83633 0.77015 0.0
C753 C 0.81892 0.81874 0.77604 0.0
C754 C 0.8452 0.83582 0.75803 0.0
C755 C 0.85183 0.81773 0.75146 0.0
C756 C 0.84189 0.80015 0.75714 0.0
H757 H 0.96208 0.78493 0.70506 0.0
H758 H 0.93404 0.79179 0.72576 0.0
C759 C 0.82556 0.80064 0.76933 0.0
C760 C 0.86957 0.81717 0.73923 0.0
H761 H 0.88563 0.80136 0.69441 0.0
C762 C 0.88773 0.82439 0.74748 0.0
C763 C 0.86869 0.80915 0.71976 0.0
C764 C 0.84943 0.80189 0.71001 0.0
C765 C 0.9052 0.82328 0.73688 0.0
C766 C 0.90439 0.81461 0.71765 0.0
C767 C 0.88616 0.8079 0.70922 0.0
C768 C 0.9223 0.81193 0.70607 0.0
C769 C 0.92436 0.83141 0.74628 0.0
C770 C 0.92494 0.82102 0.68819 0.0
C771 C 0.9409 0.81713 0.67632 0.0
C772 C 0.95441 0.8039 0.68204 0.0
C773 C 0.95198 0.79522 0.70023 0.0
C774 C 0.93602 0.79918 0.71213 0.0
H775 H 0.922 0.84177 0.75895 0.0
H776 H 0.93223 0.81908 0.75168 0.0
H777 H 0.93393 0.83914 0.7355 0.0
H778 H 0.91443 0.83086 0.68327 0.0
H779 H 0.94231 0.82407 0.6624 0.0
H780 H 0.08052 0.92723 0.47107 0.0
H781 H 0.07456 0.90371 0.49682 0.0
H782 H 0.01533 0.92067 0.50302 0.0
H783 H 0.02125 0.94461 0.47781 0.0
H784 H 0.06063 0.91436 0.53738 0.0
H785 H 0.01136 0.85858 0.49535 0.0
H786 H 0.02833 0.87595 0.48363 0.0
H787 H 0.00569 0.88372 0.49346 0.0
C788 C 0.06623 0.92599 0.47794 0.0
C789 C 0.05135 0.9378 0.47236 0.0
C790 C 0.06286 0.91251 0.49257 0.0
C791 C 0.0445 0.91044 0.50164 0.0
C792 C 0.02953 0.92193 0.49594 0.0
H793 H 0.98256 0.84748 0.58911 0.0
H794 H 0.99499 0.86895 0.56369 0.0
C795 C 0.03291 0.93551 0.48145 0.0
C796 C 0.04102 0.89678 0.5176 0.0
H797 H 0.01264 0.85594 0.52988 0.0
C798 C 0.05034 0.90142 0.53576 0.0
C799 C 0.02762 0.87999 0.51529 0.0
C800 C 0.01775 0.87409 0.49585 0.0
C801 C 0.04583 0.89015 0.55207 0.0
C802 C 0.03194 0.87367 0.54991 0.0
C803 C 0.02321 0.86866 0.5315 0.0
C804 C 0.02521 0.86204 0.5667 0.0
C805 C 0.05526 0.89647 0.57162 0.0
C806 C 0.03818 0.85132 0.5771 0.0
C807 C 0.03112 0.83912 0.59186 0.0
C808 C 0.01096 0.8373 0.59616 0.0
C809 C 0.99816 0.84849 0.58607 0.0
C810 C 0.00522 0.86075 0.57151 0.0
H811 H 0.06227 0.91174 0.57171 0.0
H812 H 0.04426 0.89557 0.58355 0.0
H813 H 0.06679 0.88648 0.57485 0.0
H814 H 0.05362 0.85187 0.57339 0.0
H815 H 0.04128 0.83054 0.59931 0.0
H816 H 0.18355 0.72468 0.75419 0.0
H817 H 0.15868 0.73297 0.73078 0.0
H818 H 0.17244 0.79475 0.74539 0.0
H819 H 0.19736 0.78655 0.76885 0.0
H820 H 0.13367 0.7833 0.74974 0.0
H821 H 0.15871 0.75641 0.67698 0.0
H822 H 0.15901 0.73815 0.69503 0.0
H823 H 0.175 0.76037 0.69797 0.0
C824 C 0.18169 0.74004 0.75199 0.0
C825 C 0.19231 0.75496 0.76343 0.0
C826 C 0.1675 0.74477 0.73856 0.0
C827 C 0.16384 0.76449 0.7362 0.0
C828 C 0.17509 0.77944 0.74694 0.0
H829 H 0.06817 0.7971 0.65972 0.0
H830 H 0.10087 0.79687 0.6749 0.0
C831 C 0.18923 0.77473 0.76039 0.0
C832 C 0.14667 0.76929 0.72455 0.0
H833 H 0.12416 0.76121 0.67981 0.0
C834 C 0.13177 0.77879 0.73436 0.0
C835 C 0.14425 0.76353 0.70445 0.0
C836 C 0.16019 0.75422 0.69293 0.0
C837 C 0.11409 0.78174 0.72488 0.0
C838 C 0.11118 0.77487 0.70516 0.0
C839 C 0.12643 0.76631 0.695 0.0
C840 C 0.09178 0.77492 0.69554 0.0
C841 C 0.09839 0.79172 0.73617 0.0
C842 C 0.07606 0.7625 0.70204 0.0
C843 C 0.05753 0.76253 0.69343 0.0
C844 C 0.05433 0.77504 0.67816 0.0
C845 C 0.07017 0.78738 0.67152 0.0
C846 C 0.08883 0.78723 0.68011 0.0
H847 H 0.10454 0.80032 0.74932 0.0
H848 H 0.09091 0.80171 0.72675 0.0
H849 H 0.0872 0.78038 0.74113 0.0
H850 H 0.07815 0.75276 0.71382 0.0
H851 H 0.04568 0.75281 0.69887 0.0
H852 H 0.94013 0.59056 0.52418 0.0
H853 H 0.94518 0.61992 0.54611 0.0
H854 H 0.96902 0.65308 0.49828 0.0
H855 H 0.96374 0.62382 0.4761 0.0
H856 H 0.99235 0.65624 0.53329 0.0
H857 H 0.91441 0.67002 0.54743 0.0
H858 H 0.92041 0.64525 0.55098 0.0
H859 H 0.92181 0.65471 0.52687 0.0
C860 C 0.94613 0.60418 0.51823 0.0
C861 C 0.95147 0.60491 0.49839 0.0
C862 C 0.94902 0.62091 0.53079 0.0
C863 C 0.95724 0.63865 0.52371 0.0
C864 C 0.96259 0.63948 0.50395 0.0
H865 H 0.96666 0.75373 0.58394 0.0
H866 H 0.9596 0.72564 0.56074 0.0
C867 C 0.95966 0.62276 0.49135 0.0
C868 C 0.96106 0.65611 0.53718 0.0
H869 H 0.93852 0.68841 0.56752 0.0
C870 C 0.9806 0.66336 0.54072 0.0
C871 C 0.94564 0.66537 0.54666 0.0
C872 C 0.92436 0.65859 0.54271 0.0
C873 C 0.9852 0.67948 0.55388 0.0
C874 C 0.96982 0.68836 0.56383 0.0
C875 C 0.95025 0.68138 0.55998 0.0
C876 C 0.97378 0.70511 0.57813 0.0
C877 C 0.00642 0.68702 0.5569 0.0
C878 C 0.98382 0.70269 0.5957 0.0
C879 C 0.98787 0.71868 0.60903 0.0
C880 C 0.9819 0.73734 0.60498 0.0
C881 C 0.97153 0.73958 0.58748 0.0
C882 C 0.96745 0.72357 0.57421 0.0
H883 H 0.01595 0.68148 0.54504 0.0
H884 H 0.00801 0.70337 0.55755 0.0
H885 H 0.01177 0.68201 0.57104 0.0
H886 H 0.98855 0.68844 0.59907 0.0
H887 H 0.99581 0.71645 0.62239 0.0
H888 H 0.74789 0.84289 0.20458 0.0
H889 H 0.76599 0.87543 0.20562 0.0
H890 H 0.77263 0.87336 0.26831 0.0
H891 H 0.75478 0.84073 0.26736 0.0
H892 H 0.75623 0.91051 0.22871 0.0
H893 H 0.82941 0.88559 0.24684 0.0
H894 H 0.80959 0.86907 0.23665 0.0
H895 H 0.80961 0.87673 0.26219 0.0
C896 C 0.75339 0.8493 0.21855 0.0
C897 C 0.75003 0.83924 0.23588 0.0
C898 C 0.76359 0.8679 0.21913 0.0
C899 C 0.77075 0.87664 0.23701 0.0
C900 C 0.76737 0.86671 0.25434 0.0
H901 H 0.81191 0.99481 0.27395 0.0
H902 H 0.79256 0.96364 0.26658 0.0
C903 C 0.75708 0.84817 0.2538 0.0
C904 C 0.78163 0.89627 0.23761 0.0
H905 H 0.82637 0.92004 0.24885 0.0
C906 C 0.77159 0.91263 0.23298 0.0
C907 C 0.80171 0.89887 0.24296 0.0
C908 C 0.81332 0.88164 0.24729 0.0
C909 C 0.78103 0.9317 0.23416 0.0
C910 C 0.80092 0.93437 0.24023 0.0
C911 C 0.81108 0.91793 0.24429 0.0
C912 C 0.81138 0.95413 0.24314 0.0
C913 C 0.76969 0.94883 0.22888 0.0
C914 C 0.82833 0.95911 0.23235 0.0
C915 C 0.83946 0.9769 0.23653 0.0
C916 C 0.83393 0.98993 0.25176 0.0
C917 C 0.81658 0.98514 0.26213 0.0
C918 C 0.80543 0.96737 0.25787 0.0
H919 H 0.7565 0.94394 0.21981 0.0
H920 H 0.76471 0.95635 0.24253 0.0
H921 H 0.77908 0.95969 0.22077 0.0
H922 H 0.83319 0.94901 0.22098 0.0
H923 H 0.85275 0.98011 0.22827 0.0
H924 H 0.77491 0.24347 0.28792 0.0
H925 H 0.79767 0.21746 0.28574 0.0
H926 H 0.75097 0.17646 0.26256 0.0
H927 H 0.72835 0.20253 0.26425 0.0
H928 H 0.79573 0.18499 0.30507 0.0
H929 H 0.79439 0.16406 0.22587 0.0
H930 H 0.78453 0.18627 0.23558 0.0
H931 H 0.77006 0.16301 0.23574 0.0
C932 C 0.76962 0.22895 0.2821 0.0
C933 C 0.74991 0.225 0.27619 0.0
C934 C 0.78262 0.21413 0.28083 0.0
C935 C 0.77613 0.19506 0.27371 0.0
C936 C 0.75649 0.19117 0.26755 0.0
H937 H 0.81743 0.08576 0.30507 0.0
H938 H 0.80204 0.11657 0.30241 0.0
C939 C 0.74354 0.20605 0.2686 0.0
C940 C 0.78937 0.17886 0.27434 0.0
H941 H 0.80576 0.14015 0.24726 0.0
C942 C 0.79814 0.17536 0.29235 0.0
C943 C 0.79283 0.16647 0.25769 0.0
C944 C 0.78512 0.17027 0.2376 0.0
C945 C 0.80954 0.15935 0.29436 0.0
C946 C 0.81178 0.14614 0.27806 0.0
C947 C 0.80379 0.15012 0.25983 0.0
C948 C 0.82156 0.12765 0.27985 0.0
C949 C 0.81904 0.15679 0.31397 0.0
C950 C 0.83732 0.12334 0.26764 0.0
C951 C 0.84602 0.10554 0.26894 0.0
C952 C 0.83906 0.09176 0.28246 0.0
C953 C 0.82328 0.09614 0.29465 0.0
C954 C 0.81453 0.11383 0.29323 0.0
H955 H 0.82155 0.17107 0.32247 0.0
H956 H 0.80915 0.14692 0.32268 0.0
H957 H 0.83332 0.15018 0.31223 0.0
H958 H 0.84288 0.13374 0.2571 0.0
H959 H 0.85811 0.10256 0.25931 0.0
H960 H 0.38451 0.04994 0.93136 0.0
H961 H 0.35335 0.02975 0.93382 0.0
H962 H 0.35799 0.0346 0.99692 0.0
H963 H 0.38903 0.05456 0.99462 0.0
H964 H 0.34881 0.99402 0.95088 0.0
H965 H 0.30122 0.04627 0.98761 0.0
H966 H 0.3239 0.05422 0.97577 0.0
H967 H 0.32422 0.04555 0.00026 0.0
C968 C 0.37878 0.04681 0.94575 0.0
C969 C 0.38919 0.05388 0.9628 0.0
C970 C 0.36096 0.03539 0.94712 0.0
C971 C 0.35323 0.03099 0.96555 0.0
C972 C 0.36342 0.0383 0.98257 0.0
H973 H 0.28709 0.93253 0.00832 0.0
H974 H 0.31139 0.95732 0.99659 0.0
C975 C 0.38119 0.04968 0.98122 0.0
C976 C 0.33552 0.01727 0.9672 0.0
H977 H 0.29153 0.01172 0.99061 0.0
C978 C 0.33611 0.99797 0.95926 0.0
C979 C 0.31887 0.02253 0.97789 0.0
C980 C 0.3169 0.04334 0.98569 0.0
C981 C 0.321 0.98347 0.96275 0.0
C982 C 0.30511 0.98839 0.97474 0.0
C983 C 0.30391 0.00795 0.98166 0.0
C984 C 0.29028 0.97321 0.98132 0.0
C985 C 0.32237 0.96295 0.95388 0.0
C986 C 0.27031 0.97425 0.97701 0.0
C987 C 0.25632 0.96015 0.9838 0.0
C988 C 0.2621 0.94489 0.99516 0.0
C989 C 0.28214 0.94403 -0.00046 0.0
C990 C 0.29608 0.9581 0.99273 0.0
H991 H 0.33175 0.96303 0.94061 0.0
H992 H 0.32909 0.95386 0.96474 0.0
H993 H 0.30761 0.95586 0.94984 0.0
H994 H 0.26557 0.98593 0.96836 0.0
H995 H 0.24101 0.96127 0.98021 0.0
H996 H 0.25313 0.33793 0.26601 0.0
H997 H 0.23009 0.36264 0.25941 0.0
H998 H 0.23 0.38034 0.32088 0.0
H999 H 0.25325 0.35603 0.32759 0.0
H1000 H 0.19132 0.37572 0.30084 0.0
H1001 H 0.24852 0.42298 0.26331 0.0
H1002 H 0.24485 0.39752 0.25498 0.0
H1003 H 0.25472 0.40383 0.27905 0.0
C1004 C 0.24822 0.34711 0.27812 0.0
C1005 C 0.25513 0.3451 0.29732 0.0
C1006 C 0.23501 0.36112 0.27432 0.0
C1007 C 0.22851 0.37334 0.28965 0.0
C1008 C 0.23483 0.37095 0.30888 0.0
H1009 H 0.18626 0.48444 0.30871 0.0
H1010 H 0.20239 0.45379 0.30643 0.0
C1011 C 0.24806 0.35701 0.31269 0.0
C1012 C 0.21598 0.38941 0.28569 0.0
H1013 H 0.21768 0.4354 0.26789 0.0
C1014 C 0.1969 0.38865 0.29334 0.0
C1015 C 0.22346 0.40624 0.27601 0.0
C1016 C 0.24404 0.4079 0.26793 0.0
C1017 C 0.18528 0.40462 0.29206 0.0
C1018 C 0.19302 0.42167 0.28294 0.0
C1019 C 0.21182 0.42217 0.27473 0.0
C1020 C 0.18286 0.43997 0.28393 0.0
C1021 C 0.1652 0.40366 0.30126 0.0
C1022 C 0.16656 0.44228 0.27193 0.0
C1023 C 0.1573 0.45989 0.27312 0.0
C1024 C 0.1642 0.47533 0.28641 0.0
C1025 C 0.18053 0.47284 0.29837 0.0
C1026 C 0.1898 0.45536 0.29708 0.0
H1027 H 0.16165 0.3896 0.30853 0.0
H1028 H 0.16435 0.41608 0.31227 0.0
H1029 H 0.1539 0.40519 0.28982 0.0
H1030 H 0.1611 0.43051 0.26164 0.0
H1031 H 0.14474 0.46139 0.26373 0.0
H1032 H 0.09974 0.99585 0.41677 0.0
H1033 H 0.12942 0.0185 0.4205 0.0
H1034 H 0.12455 0.0174 0.4834 0.0
H1035 H 0.09486 0.99517 0.47987 0.0
H1036 H 0.13242 0.05609 0.44048 0.0
H1037 H 0.18203 0.00567 0.47286 0.0
H1038 H 0.15965 0.99697 0.45991 0.0
H1039 H 0.15879 0.00606 0.48504 0.0
C1040 C 0.10502 0.00045 0.43139 0.0
C1041 C 0.09506 0.99359 0.44803 0.0
C1042 C 0.122 0.01327 0.43347 0.0
C1043 C 0.12932 0.01928 0.45221 0.0
C1044 C 0.11939 0.01251 0.46881 0.0
H1045 H 0.19767 0.11973 0.49997 0.0
H1046 H 0.17246 0.09469 0.48777 0.0
C1047 C 0.10244 -0.00022 0.46676 0.0
C1048 C 0.14671 0.0335 0.45465 0.0
H1049 H 0.19165 0.04022 0.47703 0.0
C1050 C 0.14551 0.05257 0.4482 0.0
C1051 C 0.16383 0.02875 0.46451 0.0
C1052 C 0.16629 0.00819 0.47081 0.0
C1053 C 0.16062 0.06737 0.45227 0.0
C1054 C 0.17716 0.06294 0.46327 0.0
C1055 C 0.17882 0.0436 0.4688 0.0
C1056 C 0.1924 0.07835 0.47006 0.0
C1057 C 0.15865 0.08766 0.445 0.0
C1058 C 0.21202 0.07718 0.46445 0.0
C1059 C 0.22651 0.09141 0.47147 0.0
C1060 C 0.22162 0.10696 0.48436 0.0
C1061 C 0.20193 0.108 0.49002 0.0
C1062 C 0.18747 0.09379 0.48296 0.0
H1063 H 0.14832 0.08723 0.43234 0.0
H1064 H 0.1528 0.09708 0.45695 0.0
H1065 H 0.17311 0.0946 0.44056 0.0
H1066 H 0.2161 0.06525 0.45463 0.0
H1067 H 0.24154 0.09015 0.46686 0.0
H1068 H 0.76086 0.20925 0.7641 0.0
H1069 H 0.73915 0.18026 0.77153 0.0
H1070 H 0.7262 0.16937 0.70992 0.0
H1071 H 0.74804 0.19826 0.70234 0.0
H1072 H 0.69726 0.17207 0.76014 0.0
H1073 H 0.74665 0.11699 0.7302 0.0
H1074 H 0.75536 0.1421 0.737 0.0
H1075 H 0.7418 0.13659 0.71459 0.0
C1076 C 0.75341 0.20064 0.75215 0.0
C1077 C 0.75617 0.20592 0.73264 0.0
C1078 C 0.74099 0.18418 0.75642 0.0
C1079 C 0.73132 0.17265 0.74124 0.0
C1080 C 0.73374 0.17804 0.72178 0.0
H1081 H 0.63649 0.08156 0.74523 0.0
H1082 H 0.65828 0.11052 0.73834 0.0
C1083 C 0.74606 0.19459 0.71751 0.0
C1084 C 0.71868 0.15495 0.7458 0.0
H1085 H 0.71527 0.10478 0.74086 0.0
C1086 C 0.70115 0.15734 0.75596 0.0
C1087 C 0.72402 0.13583 0.74046 0.0
C1088 C 0.74304 0.13258 0.73008 0.0
C1089 C 0.68858 0.14101 0.76065 0.0
C1090 C 0.69372 0.12192 0.75495 0.0
C1091 C 0.7114 0.1195 0.74509 0.0
C1092 C 0.68077 0.10426 0.75899 0.0
C1093 C 0.66996 0.14423 0.77177 0.0
C1094 C 0.68646 0.09106 0.77264 0.0
C1095 C 0.67403 0.0745 0.77669 0.0
C1096 C 0.65582 0.07082 0.76695 0.0
C1097 C 0.65039 0.08396 0.75301 0.0
C1098 C 0.66276 0.10056 0.7491 0.0
H1099 H 0.67 0.15947 0.77831 0.0
H1100 H 0.6572 0.14161 0.76161 0.0
H1101 H 0.6679 0.1337 0.78364 0.0
H1102 H 0.7004 0.09371 0.78033 0.0
H1103 H 0.67868 0.06462 0.78744 0.0
H1104 H 0.4108 0.98703 0.53514 0.0
H1105 H 0.39012 0.01377 0.52938 0.0
H1106 H 0.37563 0.01753 0.59079 0.0
H1107 H 0.39618 0.99047 0.59672 0.0
H1108 H 0.3493 0.01527 0.53754 0.0
H1109 H 0.39568 0.07467 0.57835 0.0
H1110 H 0.40484 0.05137 0.57085 0.0
H1111 H 0.38853 0.05293 0.59131 0.0
C1112 C 0.40302 0.99332 0.54741 0.0
C1113 C 0.40509 0.98655 0.56639 0.0
C1114 C 0.39133 0.00871 0.54411 0.0
C1115 C 0.38156 0.01776 0.55969 0.0
C1116 C 0.38335 0.01095 0.57863 0.0
H1117 H 0.30515 0.11498 0.5502 0.0
H1118 H 0.32424 0.08986 0.56409 0.0
C1119 C 0.39506 0.9955 0.58197 0.0
C1120 C 0.36933 0.03412 0.55579 0.0
H1121 H 0.3672 0.08385 0.56266 0.0
C1122 C 0.35311 0.03024 0.54316 0.0
C1123 C 0.37432 0.05359 0.56326 0.0
C1124 C 0.39185 0.05855 0.57661 0.0
C1125 C 0.34199 0.04539 0.53739 0.0
C1126 C 0.34744 0.06497 0.54419 0.0
C1127 C 0.36317 0.06881 0.55745 0.0
C1128 C 0.33765 0.08163 0.53658 0.0
C1129 C 0.32462 0.04038 0.52382 0.0
C1130 C 0.33953 0.08574 0.51673 0.0
C1131 C 0.32875 0.1 0.50879 0.0
C1132 C 0.31592 0.11048 0.52058 0.0
C1133 C 0.3149 0.10712 0.54074 0.0
C1134 C 0.32574 0.09278 0.54869 0.0
H1135 H 0.3194 0.02455 0.52399 0.0
H1136 H 0.31225 0.04935 0.52792 0.0
H1137 H 0.32899 0.04363 0.50861 0.0
H1138 H 0.34891 0.07747 0.50723 0.0
H1139 H 0.33 0.10232 0.49324 0.0
H1140 H 0.60835 0.58186 0.56983 0.0
H1141 H 0.62807 0.55375 0.56421 0.0
H1142 H 0.58096 0.51509 0.58604 0.0
H1143 H 0.56073 0.5428 0.59062 0.0
H1144 H 0.64146 0.52543 0.58742 0.0
H1145 H 0.58844 0.49186 0.53104 0.0
H1146 H 0.58728 0.51664 0.54114 0.0
H1147 H 0.57807 0.49606 0.55485 0.0
C1148 C 0.60215 0.56738 0.5734 0.0
C1149 C 0.58283 0.56461 0.58041 0.0
C1150 C 0.61352 0.55136 0.57036 0.0
C1151 C 0.60581 0.53229 0.57434 0.0
C1152 C 0.58703 0.52963 0.58249 0.0
H1153 H 0.67996 0.43216 0.55882 0.0
H1154 H 0.65796 0.45516 0.57408 0.0
C1155 C 0.57558 0.54558 0.58534 0.0
C1156 C 0.61696 0.51514 0.56874 0.0
H1157 H 0.61576 0.47428 0.53774 0.0
C1158 C 0.63582 0.51414 0.57668 0.0
C1159 C 0.60958 0.50055 0.55458 0.0
C1160 C 0.58982 0.50135 0.54475 0.0
C1161 C 0.64771 0.49915 0.5705 0.0
C1162 C 0.64034 0.48463 0.55629 0.0
C1163 C 0.62128 0.48535 0.54877 0.0
C1164 C 0.65283 0.46987 0.54735 0.0
C1165 C 0.66836 0.49952 0.57855 0.0
C1166 C 0.65664 0.47007 0.5272 0.0
C1167 C 0.66893 0.4569 0.51845 0.0
C1168 C 0.67771 0.44319 0.52968 0.0
C1169 C 0.67346 0.44259 0.5498 0.0
C1170 C 0.66104 0.45581 0.55857 0.0
H1171 H 0.67301 0.51376 0.58644 0.0
H1172 H 0.66913 0.48765 0.589 0.0
H1173 H 0.67895 0.49689 0.56657 0.0
H1174 H 0.6504 0.48075 0.51826 0.0
H1175 H 0.67184 0.45776 0.50292 0.0
H1176 H 0.75065 0.28068 0.32479 0.0
H1177 H 0.74779 0.29744 0.35708 0.0
H1178 H 0.68468 0.28753 0.35346 0.0
H1179 H 0.68742 0.27026 0.3215 0.0
H1180 H 0.72795 0.33108 0.36564 0.0
H1181 H 0.69758 0.26803 0.40766 0.0
H1182 H 0.70906 0.26486 0.38405 0.0
H1183 H 0.68425 0.27182 0.38559 0.0
C1184 C 0.73619 0.28185 0.331 0.0
C1185 C 0.71926 0.27418 0.3206 0.0
C1186 C 0.73457 0.29149 0.34937 0.0
C1187 C 0.71604 0.2935 0.35772 0.0
C1188 C 0.69913 0.28584 0.34741 0.0
H1189 H 0.69394 0.37883 0.45257 0.0
H1190 H 0.69152 0.35841 0.42207 0.0
C1191 C 0.70072 0.27621 0.32905 0.0
C1192 C 0.71439 0.30437 0.37683 0.0
H1193 H 0.69844 0.29969 0.42384 0.0
C1194 C 0.7215 0.32424 0.37838 0.0
C1195 C 0.70608 0.29531 0.3934 0.0
C1196 C 0.69895 0.27379 0.39273 0.0
C1197 C 0.72049 0.33537 0.39609 0.0
C1198 C 0.71183 0.32644 0.41257 0.0
C1199 C 0.70481 0.30653 0.41107 0.0
C1200 C 0.71106 0.33731 0.43177 0.0
C1201 C 0.72915 0.35645 0.39715 0.0
C1202 C 0.72207 0.33162 0.4476 0.0
C1203 C 0.7234 0.34316 0.46506 0.0
C1204 C 0.71371 0.36059 0.46701 0.0
C1205 C 0.70171 0.36559 0.45151 0.0
C1206 C 0.70038 0.35401 0.43404 0.0
H1207 H 0.73896 0.35971 0.38457 0.0
H1208 H 0.7171 0.36643 0.39691 0.0
H1209 H 0.73766 0.35981 0.41096 0.0
H1210 H 0.73031 0.3187 0.44614 0.0
H1211 H 0.73266 0.33879 0.47675 0.0
H1212 H 0.48006 0.06 0.9551 0.0
H1213 H 0.5047 0.05114 0.93091 0.0
H1214 H 0.46121 0.05004 0.88483 0.0
H1215 H 0.43654 0.05915 0.90887 0.0
H1216 H 0.50266 0.01694 0.90126 0.0
H1217 H 0.50796 0.09105 0.87 0.0
H1218 H 0.49802 0.08671 0.89403 0.0
H1219 H 0.48365 0.07924 0.87251 0.0
C1220 C 0.47577 0.05787 0.93981 0.0
C1221 C 0.45645 0.06041 0.93381 0.0
C1222 C 0.48979 0.0527 0.92608 0.0
C1223 C 0.48473 0.05015 0.90616 0.0
C1224 C 0.46535 0.05212 0.90017 0.0
H1225 H 0.55153 0.03484 0.80023 0.0
H1226 H 0.52594 0.03904 0.82459 0.0
C1227 C 0.45129 0.05719 0.9139 0.0
C1228 C 0.4999 0.04614 0.89154 0.0
H1229 H 0.52628 0.06694 0.85453 0.0
C1230 C 0.50789 0.02782 0.89102 0.0
C1231 C 0.50658 0.06044 0.8783 0.0
C1232 C 0.49876 0.08055 0.87872 0.0
C1233 C 0.52226 0.02327 0.87725 0.0
C1234 C 0.52903 0.03763 0.86405 0.0
C1235 C 0.52102 0.05597 0.86466 0.0
C1236 C 0.54439 0.03404 0.84941 0.0
C1237 C 0.52971 0.00301 0.87667 0.0
C1238 C 0.56327 0.02992 0.85533 0.0
C1239 C 0.57794 0.02741 0.84143 0.0
C1240 C 0.57401 0.02924 0.82139 0.0
C1241 C 0.55506 0.03339 0.81554 0.0
C1242 C 0.54041 0.03577 0.82943 0.0
H1243 H 0.51936 0.99223 0.88384 0.0
H1244 H 0.53209 0.99755 0.86135 0.0
H1245 H 0.54396 0.00369 0.88464 0.0
H1246 H 0.56676 0.02899 0.87073 0.0
H1247 H 0.59241 0.02434 0.84641 0.0
H1248 H 0.25228 0.28675 0.33741 0.0
H1249 H 0.25141 0.26727 0.36666 0.0
H1250 H 0.31313 0.28329 0.37669 0.0
H1251 H 0.31401 0.3032 0.34781 0.0
H1252 H 0.27373 0.23532 0.37263 0.0
H1253 H 0.28858 0.29465 0.43056 0.0
H1254 H 0.28081 0.29944 0.40604 0.0
H1255 H 0.30595 0.29506 0.41085 0.0
C1256 C 0.26558 0.28637 0.34603 0.0
C1257 C 0.28321 0.29648 0.34032 0.0
C1258 C 0.26508 0.27518 0.36266 0.0
C1259 C 0.28215 0.27405 0.37392 0.0
C1260 C 0.29973 0.28425 0.36836 0.0
H1261 H 0.30244 0.18253 0.454 0.0
H1262 H 0.30552 0.20638 0.42833 0.0
C1263 C 0.30025 0.29541 0.35174 0.0
C1264 C 0.28182 0.26134 0.39087 0.0
H1265 H 0.28957 0.26173 0.44033 0.0
C1266 C 0.27714 0.24107 0.38745 0.0
C1267 C 0.28615 0.26897 0.41016 0.0
C1268 C 0.29049 0.29074 0.41473 0.0
C1269 C 0.27687 0.22815 0.40281 0.0
C1270 C 0.28171 0.23571 0.42202 0.0
C1271 C 0.28614 0.25601 0.42551 0.0
C1272 C 0.28143 0.22274 0.43875 0.0
C1273 C 0.27107 0.20657 0.39841 0.0
C1274 C 0.26743 0.22463 0.45354 0.0
C1275 C 0.26567 0.21111 0.46827 0.0
C1276 C 0.27794 0.19549 0.46847 0.0
C1277 C 0.29267 0.1943 0.4542 0.0
C1278 C 0.2944 0.20784 0.43947 0.0
H1279 H 0.26365 0.20391 0.38391 0.0
H1280 H 0.28444 0.19832 0.39824 0.0
H1281 H 0.26111 0.20056 0.40987 0.0
H1282 H 0.25737 0.23613 0.45326 0.0
H1283 H 0.25425 0.21254 0.4791 0.0
H1284 H 0.51477 0.47852 0.94448 0.0
H1285 H 0.48919 0.48793 0.92232 0.0
H1286 H 0.53007 0.48761 0.87433 0.0
H1287 H 0.55567 0.47796 0.89634 0.0
H1288 H 0.4923 0.52297 0.89888 0.0
H1289 H 0.4802 0.45276 0.85408 0.0
H1290 H 0.4916 0.45417 0.87808 0.0
H1291 H 0.50536 0.46238 0.85725 0.0
C1292 C 0.51821 0.48015 0.92914 0.0
C1293 C 0.53718 0.47741 0.92209 0.0
C1294 C 0.50364 0.48565 0.91656 0.0
C1295 C 0.50775 0.48829 0.89671 0.0
C1296 C 0.5266 0.48542 0.88958 0.0
H1297 H 0.44196 0.51913 0.79608 0.0
H1298 H 0.46707 0.51066 0.81906 0.0
C1299 C 0.5412 0.48003 0.90217 0.0
C1300 C 0.4925 0.49467 0.88356 0.0
H1301 H 0.46441 0.47999 0.84332 0.0
C1302 C 0.48609 0.51358 0.88677 0.0
C1303 C 0.48458 0.48236 0.86779 0.0
C1304 C 0.49062 0.46172 0.86409 0.0
C1305 C 0.47218 0.52072 0.8743 0.0
C1306 C 0.46421 0.50839 0.85851 0.0
C1307 C 0.47057 0.48942 0.85541 0.0
C1308 C 0.44932 0.51484 0.8449 0.0
C1309 C 0.46658 0.54154 0.87783 0.0
C1310 C 0.43104 0.5201 0.85182 0.0
C1311 C 0.41667 0.52511 0.83872 0.0
C1312 C 0.42026 0.52467 0.81844 0.0
C1313 C 0.43869 0.5196 0.8116 0.0
C1314 C 0.45306 0.51472 0.82471 0.0
H1315 H 0.47779 0.55062 0.88686 0.0
H1316 H 0.46465 0.54873 0.86377 0.0
H1317 H 0.45245 0.5413 0.88584 0.0
H1318 H 0.42769 0.51987 0.8673 0.0
H1319 H 0.40258 0.5288 0.84446 0.0
H1320 H 0.73735 0.7937 0.18102 0.0
H1321 H 0.74327 0.76992 0.15427 0.0
H1322 H 0.74061 0.7233 0.19491 0.0
H1323 H 0.73455 0.74713 0.22187 0.0
H1324 H 0.7736 0.74557 0.14956 0.0
H1325 H 0.70116 0.70228 0.15223 0.0
H1326 H 0.70586 0.72602 0.16491 0.0
H1327 H 0.7151 0.70456 0.17472 0.0
C1328 C 0.73815 0.77841 0.18431 0.0
C1329 C 0.73552 0.77228 0.20355 0.0
C1330 C 0.74148 0.76483 0.169 0.0
C1331 C 0.74221 0.74483 0.17258 0.0
C1332 C 0.73975 0.73862 0.19179 0.0
H1333 H 0.78157 0.6676 0.07531 0.0
H1334 H 0.77901 0.68292 0.10837 0.0
C1335 C 0.73632 0.75223 0.20715 0.0
C1336 C 0.74555 0.7307 0.156 0.0
H1337 H 0.7233 0.69238 0.12807 0.0
C1338 C 0.76272 0.73378 0.14495 0.0
C1339 C 0.73125 0.71544 0.15002 0.0
C1340 C 0.71222 0.71188 0.16095 0.0
C1341 C 0.76569 0.72247 0.12766 0.0
C1342 C 0.75125 0.7074 0.12151 0.0
C1343 C 0.73439 0.70386 0.13293 0.0
C1344 C 0.7523 0.69667 0.1022 0.0
C1345 C 0.78374 0.72746 0.11561 0.0
C1346 C 0.73779 0.69877 0.08804 0.0
C1347 C 0.73911 0.68995 0.0693 0.0
C1348 C 0.75499 0.67882 0.0643 0.0
C1349 C 0.76923 0.67621 0.07868 0.0
C1350 C 0.76785 0.68501 0.09753 0.0
H1351 H 0.79138 0.74188 0.12042 0.0
H1352 H 0.79419 0.71596 0.11714 0.0
H1353 H 0.77982 0.72787 0.09984 0.0
H1354 H 0.72566 0.70768 0.09134 0.0
H1355 H 0.72785 0.69221 0.05861 0.0
H1356 H 0.03739 0.13686 0.12231 0.0
H1357 H 0.01065 0.13458 0.14635 0.0
H1358 H 0.00847 0.07126 0.14052 0.0
H1359 H 0.03444 0.07328 0.11624 0.0
H1360 H 0.97037 0.11009 0.13973 0.0
H1361 H 0.01599 0.08869 0.20147 0.0
H1362 H 0.02614 0.10235 0.18132 0.0
H1363 H 0.02031 0.07624 0.17826 0.0
C1364 C 0.03115 0.12246 0.12612 0.0
C1365 C 0.03828 0.10525 0.11754 0.0
C1366 C 0.01595 0.12121 0.13986 0.0
C1367 C 0.00784 0.10276 0.14529 0.0
C1368 C 0.0148 0.08563 0.13669 0.0
H1369 H 0.9269 0.03329 0.20555 0.0
H1370 H 0.9512 0.05046 0.18514 0.0
C1371 C 0.02979 0.08684 0.12293 0.0
C1372 C 0.99187 0.10089 0.15975 0.0
H1373 H 0.98132 0.08055 0.20348 0.0
C1374 C 0.97272 0.10415 0.15393 0.0
C1375 C 0.99512 0.09316 0.1782 0.0
C1376 C 0.01552 0.09004 0.18532 0.0
C1377 C 0.9565 0.09845 0.16557 0.0
C1378 C 0.9597 0.08942 0.18336 0.0
C1379 C 0.97896 0.08742 0.18975 0.0
C1380 C 0.94344 0.0796 0.19435 0.0
C1381 C 0.93601 0.10082 0.15824 0.0
C1382 C 0.93078 0.09037 0.20599 0.0
C1383 C 0.91676 0.08054 0.21774 0.0
C1384 C 0.91536 0.05986 0.21802 0.0
C1385 C 0.92763 0.04921 0.20575 0.0
C1386 C 0.94154 0.05899 0.19407 0.0
H1387 H 0.936 0.1075 0.14371 0.0
H1388 H 0.92747 0.08626 0.15705 0.0
H1389 H 0.92838 0.11032 0.16891 0.0
H1390 H 0.93217 0.10631 0.20645 0.0
H1391 H 0.90754 0.08914 0.22709 0.0
H1392 H 0.28722 0.8 0.21506 0.0
H1393 H 0.27755 0.82592 0.19415 0.0
H1394 H 0.25854 0.78186 0.14918 0.0
H1395 H 0.26791 0.75602 0.17001 0.0
H1396 H 0.29109 0.83578 0.15898 0.0
H1397 H 0.2117 0.81413 0.15215 0.0
H1398 H 0.22701 0.80432 0.17031 0.0
H1399 H 0.2257 0.79369 0.14561 0.0
C1400 C 0.28091 0.7959 0.20073 0.0
C1401 C 0.27817 0.776 0.1942 0.0
C1402 C 0.27531 0.81068 0.18886 0.0
C1403 C 0.26688 0.80579 0.17031 0.0
C1404 C 0.26439 0.78594 0.1637 0.0
H1405 H 0.27142 0.86024 0.06329 0.0
H1406 H 0.27704 0.84541 0.09428 0.0
C1407 C 0.26984 0.77119 0.17558 0.0
C1408 C 0.26185 0.82135 0.15717 0.0
H1409 H 0.22599 0.83343 0.12606 0.0
C1410 C 0.27674 0.83552 0.15206 0.0
C1411 C 0.24299 0.82138 0.14851 0.0
C1412 C 0.2259 0.80769 0.15462 0.0
C1413 C 0.27369 0.84874 0.13745 0.0
C1414 C 0.25544 0.84739 0.12738 0.0
C1415 C 0.2401 0.83424 0.13354 0.0
C1416 C 0.25264 0.85786 0.10919 0.0
C1417 C 0.29021 0.86373 0.13267 0.0
C1418 C 0.23673 0.86947 0.10706 0.0
C1419 C 0.23329 0.87782 0.08915 0.0
C1420 C 0.24565 0.87457 0.07308 0.0
C1421 C 0.26168 0.86315 0.07539 0.0
C1422 C 0.26504 0.85479 0.09319 0.0
H1423 H 0.29965 0.86782 0.14575 0.0
H1424 H 0.29959 0.85728 0.1212 0.0
H1425 H 0.28456 0.87727 0.12716 0.0
H1426 H 0.22686 0.87186 0.11918 0.0
H1427 H 0.2208 0.88653 0.0878 0.0
H1428 H 0.94627 0.47449 0.12814 0.0
H1429 H 0.97157 0.48191 0.15358 0.0
H1430 H 0.015 0.45922 0.11478 0.0
H1431 H 0.99008 0.45241 0.08911 0.0
H1432 H 0.99788 0.45715 0.17154 0.0
H1433 H 0.03684 0.5161 0.12956 0.0
H1434 H 0.01226 0.50594 0.12341 0.0
H1435 H 0.03301 0.49253 0.11665 0.0
C1436 C 0.96122 0.47113 0.12503 0.0
C1437 C 0.96618 0.46294 0.10659 0.0
C1438 C 0.9756 0.47523 0.1396 0.0
C1439 C 0.99514 0.4713 0.13592 0.0
C1440 C 2e-05 0.46256 0.11779 0.0
H1441 H 0.08981 0.48342 0.22458 0.0
H1442 H 0.067 0.46964 0.19863 0.0
C1443 C 0.98571 0.4585 0.10322 0.0
C1444 C 0.01059 0.47712 0.15075 0.0
H1445 H 0.05136 0.50862 0.1594 0.0
C1446 C 0.00965 0.46832 0.16891 0.0
C1447 C 0.02579 0.49181 0.14722 0.0
C1448 C 0.02704 0.5023 0.12823 0.0
C1449 C 0.0235 0.47398 0.18378 0.0
C1450 C 0.03872 0.48863 0.18021 0.0
C1451 C 0.03976 0.49724 0.16197 0.0
C1452 C 0.05269 0.49656 0.19574 0.0
C1453 C 0.0214 0.46477 0.20339 0.0
C1454 C 0.0524 0.51629 0.20234 0.0
C1455 C 0.06538 0.52418 0.21697 0.0
C1456 C 0.07899 0.5125 0.22527 0.0
C1457 C 0.07945 0.49275 0.21848 0.0
C1458 C 0.06638 0.48484 0.20377 0.0
H1459 H 0.00695 0.45626 0.20485 0.0
H1460 H 0.03312 0.45459 0.20508 0.0
H1461 H 0.02309 0.47624 0.21551 0.0
H1462 H 0.04198 0.52558 0.19626 0.0
H1463 H 0.06463 0.53945 0.22183 0.0
H1464 H 0.33433 0.71863 0.23003 0.0
H1465 H 0.36439 0.7204 0.24991 0.0
H1466 H 0.35562 0.78045 0.26815 0.0
H1467 H 0.32528 0.77866 0.24866 0.0
H1468 H 0.39926 0.747 0.25001 0.0
H1469 H 0.35778 0.75091 0.31982 0.0
H1470 H 0.3461 0.74353 0.29657 0.0
H1471 H 0.35267 0.76911 0.30273 0.0
C1472 C 0.33882 0.73222 0.23828 0.0
C1473 C 0.32735 0.74844 0.23799 0.0
C1474 C 0.35604 0.73323 0.24949 0.0
C1475 C 0.36201 0.75045 0.26067 0.0
C1476 C 0.35106 0.76695 0.25979 0.0
H1477 H 0.47011 0.78271 0.32445 0.0
H1478 H 0.44378 0.77871 0.29995 0.0
C1479 C 0.33385 0.76596 0.24854 0.0
C1480 C 0.37921 0.75081 0.27391 0.0
H1481 H 0.39244 0.75482 0.32224 0.0
C1482 C 0.39782 0.74869 0.2658 0.0
C1483 C 0.37715 0.75266 0.2945 0.0
C1484 C 0.35735 0.75401 0.304 0.0
C1485 C 0.41458 0.74878 0.27781 0.0
C1486 C 0.41259 0.75124 0.29837 0.0
C1487 C 0.39391 0.75301 0.30645 0.0
C1488 C 0.42966 0.75242 0.31188 0.0
C1489 C 0.4342 0.74601 0.26843 0.0
C1490 C 0.43042 0.73897 0.32672 0.0
C1491 C 0.44538 0.74127 0.34084 0.0
C1492 C 0.45977 0.75718 0.34044 0.0
C1493 C 0.45929 0.77028 0.32517 0.0
C1494 C 0.44431 0.76796 0.31107 0.0
H1495 H 0.43249 0.73915 0.25337 0.0
H1496 H 0.4425 0.76058 0.26742 0.0
H1497 H 0.44304 0.73669 0.27734 0.0
H1498 H 0.41917 0.72693 0.32762 0.0
H1499 H 0.44532 0.73091 0.35238 0.0
H1500 H 0.97258 0.42644 0.04766 0.0
H1501 H 0.97606 0.39948 0.0235 0.0
H1502 H 0.91304 0.39057 0.01755 0.0
H1503 H 0.90937 0.41756 0.04205 0.0
H1504 H 0.9606 0.35956 0.02476 0.0
H1505 H 0.93324 0.39728 0.9607 0.0
H1506 H 0.94068 0.41042 0.98344 0.0
H1507 H 0.91753 0.39601 0.98178 0.0
C1508 C 0.95942 0.41861 0.04143 0.0
C1509 C 0.94068 0.42406 0.04685 0.0
C1510 C 0.96145 0.40328 0.02755 0.0
C1511 C 0.94483 0.39317 0.01868 0.0
C1512 C 0.92605 0.39841 0.02408 0.0
H1513 H 0.95488 0.28513 0.94585 0.0
H1514 H 0.94411 0.30893 0.97065 0.0
C1515 C 0.92399 0.4138 0.03803 0.0
C1516 C 0.94745 0.37719 0.00377 0.0
H1517 H 0.94353 0.36541 0.95469 0.0
C1518 C 0.9567 0.3607 0.00946 0.0
C1519 C 0.94248 0.37891 0.98385 0.0
C1520 C 0.93305 0.39664 0.97693 0.0
C1521 C 0.96152 0.34601 0.99564 0.0
C1522 C 0.9567 0.3478 0.97569 0.0
C1523 C 0.9471 0.3641 0.97004 0.0
C1524 C 0.96256 0.33349 0.9603 0.0
C1525 C 0.97241 0.32911 0.00238 0.0
C1526 C 0.97617 0.33955 0.94605 0.0
C1527 C 0.98232 0.32604 0.93182 0.0
C1528 C 0.9749 0.3062 0.93156 0.0
C1529 C 0.961 0.30026 0.94571 0.0
C1530 C 0.95485 0.31381 0.95993 0.0
H1531 H 0.97847 0.332 0.01746 0.0
H1532 H 0.96218 0.31564 0.00236 0.0
H1533 H 0.98466 0.32615 0.99229 0.0
H1534 H 0.98224 0.35472 0.94611 0.0
H1535 H 0.99298 0.33113 0.92111 0.0
H1536 H 0.70216 0.7642 0.26793 0.0
H1537 H 0.67359 0.7586 0.28934 0.0
H1538 H 0.65697 0.81702 0.27949 0.0
H1539 H 0.68508 0.82258 0.25792 0.0
H1540 H 0.66294 0.78221 0.3244 0.0
H1541 H 0.60753 0.77956 0.26449 0.0
H1542 H 0.63315 0.77622 0.26006 0.0
H1543 H 0.62518 0.80053 0.26445 0.0
C1544 C 0.69234 0.77579 0.27029 0.0
C1545 C 0.69586 0.79383 0.26127 0.0
C1546 C 0.67613 0.77261 0.28257 0.0
C1547 C 0.66313 0.78734 0.2858 0.0
C1548 C 0.66675 0.80541 0.277 0.0
H1549 H 0.55927 0.81389 0.34553 0.0
H1550 H 0.59001 0.8127 0.32761 0.0
C1551 C 0.68292 0.80862 0.26483 0.0
C1552 C 0.64562 0.78404 0.29824 0.0
H1553 H 0.59567 0.78383 0.2971 0.0
C1554 C 0.64819 0.78226 0.31847 0.0
C1555 C 0.62645 0.78404 0.29036 0.0
C1556 C 0.62283 0.785 0.26862 0.0
C1557 C 0.63203 0.78153 0.3312 0.0
C1558 C 0.61293 0.78236 0.32337 0.0
C1559 C 0.61037 0.78335 0.30306 0.0
C1560 C 0.59541 0.78341 0.33595 0.0
C1561 C 0.63553 0.78075 0.35296 0.0
C1562 C 0.58842 0.7674 0.34682 0.0
C1563 C 0.57078 0.76804 0.35717 0.0
C1564 C 0.55987 0.78466 0.35666 0.0
C1565 C 0.56727 0.80085 0.3462 0.0
C1566 C 0.58484 0.8002 0.33593 0.0
H1567 H 0.65133 0.78357 0.35692 0.0
H1568 H 0.62709 0.79171 0.36114 0.0
H1569 H 0.63035 0.76594 0.3578 0.0
H1570 H 0.59624 0.75419 0.34678 0.0
H1571 H 0.56541 0.7553 0.36502 0.0
H1572 H 0.06483 0.10754 0.03299 0.0
H1573 H 0.05824 0.12774 0.00551 0.0
H1574 H 0.05765 0.17888 0.04517 0.0
H1575 H 0.06372 0.15852 0.07285 0.0
H1576 H 0.02649 0.17574 0.02263 0.0
H1577 H 0.09082 0.16678 0.97516 0.0
H1578 H 0.07903 0.14337 0.9809 0.0
H1579 H 0.09015 0.15948 0.00023 0.0
C1580 C 0.06372 0.12318 0.03578 0.0
C1581 C 0.06485 0.13151 0.05502 0.0
C1582 C 0.06007 0.13474 0.02004 0.0
C1583 C 0.05782 0.15492 0.02319 0.0
C1584 C 0.05945 0.16337 0.04237 0.0
H1585 H 0.03911 0.23372 0.92847 0.0
H1586 H 0.05415 0.21599 0.95427 0.0
C1587 C 0.06287 0.15175 0.05816 0.0
C1588 C 0.05176 0.16669 0.00681 0.0
H1589 H 0.06217 0.1778 0.9595 0.0
C1590 C 0.03446 0.17638 0.00893 0.0
C1591 C 0.06227 0.16778 0.98899 0.0
C1592 C 0.08171 0.15897 0.98625 0.0
C1593 C 0.02701 0.18653 0.99356 0.0
C1594 C 0.03677 0.18647 0.97531 0.0
C1595 C 0.05449 0.17747 0.97337 0.0
C1596 C 0.02864 0.19567 0.95814 0.0
C1597 C 0.00878 0.19734 0.99712 0.0
C1598 C 0.00966 0.18954 0.95119 0.0
C1599 C 0.00099 0.19973 0.93665 0.0
C1600 C 0.01128 0.21601 0.92852 0.0
C1601 C 0.03081 0.22124 0.93448 0.0
C1602 C 0.03941 0.21116 0.94924 0.0
H1603 H 0.00674 0.20097 0.01299 0.0
H1604 H 0.00941 0.2112 0.98918 0.0
H1605 H 0.99571 0.18783 0.99184 0.0
H1606 H 0.00131 0.17725 0.95747 0.0
H1607 H 0.986 0.1952 0.93219 0.0
H1608 H 0.32346 0.3473 0.27654 0.0
H1609 H 0.35186 0.3448 0.25493 0.0
H1610 H 0.34539 0.28155 0.25702 0.0
H1611 H 0.31686 0.28389 0.27838 0.0
H1612 H 0.38766 0.32539 0.26335 0.0
H1613 H 0.34651 0.29343 0.19737 0.0
H1614 H 0.33481 0.30619 0.21736 0.0
H1615 H 0.34115 0.28138 0.21981 0.0
C1616 C 0.32798 0.33286 0.2722 0.0
C1617 C 0.31793 0.31578 0.27906 0.0
C1618 C 0.34424 0.33148 0.26 0.0
C1619 C 0.35055 0.313 0.25433 0.0
C1620 C 0.34058 0.29593 0.26113 0.0
H1621 H 0.45869 0.27979 0.20116 0.0
H1622 H 0.43177 0.28574 0.22371 0.0
C1623 C 0.3244 0.29729 0.27341 0.0
C1624 C 0.36771 0.31154 0.24141 0.0
H1625 H 0.38125 0.29466 0.19603 0.0
C1626 C 0.38631 0.31874 0.2486 0.0
C1627 C 0.36576 0.30301 0.22217 0.0
C1628 C 0.34598 0.29568 0.21358 0.0
C1629 C 0.40316 0.31729 0.23709 0.0
C1630 C 0.40126 0.30832 0.21802 0.0
C1631 C 0.38261 0.30143 0.21073 0.0
C1632 C 0.41841 0.30595 0.20524 0.0
C1633 C 0.42283 0.32552 0.24528 0.0
C1634 C 0.41973 0.31535 0.18745 0.0
C1635 C 0.43503 0.31199 0.17454 0.0
C1636 C 0.4492 0.29899 0.17913 0.0
C1637 C 0.44805 0.28991 0.1972 0.0
C1638 C 0.43274 0.29334 0.21014 0.0
H1639 H 0.42124 0.33567 0.25829 0.0
H1640 H 0.43126 0.31322 0.24981 0.0
H1641 H 0.43149 0.33351 0.234 0.0
H1642 H 0.40874 0.32508 0.18342 0.0
H1643 H 0.43545 0.31923 0.16076 0.0
H1644 H 0.57429 0.45959 0.00197 0.0
H1645 H 0.56684 0.43694 0.02803 0.0
H1646 H 0.53542 0.39616 0.9866 0.0
H1647 H 0.54345 0.41844 0.96022 0.0
H1648 H 0.5305 0.42434 0.04094 0.0
H1649 H 0.57062 0.36073 0.01472 0.0
H1650 H 0.57494 0.38484 0.00501 0.0
H1651 H 0.55422 0.36864 0.99662 0.0
C1652 C 0.56614 0.44562 0.99829 0.0
C1653 C 0.55959 0.44073 0.97898 0.0
C1654 C 0.5618 0.43276 0.01324 0.0
C1655 C 0.55086 0.41476 0.00918 0.0
C1656 C 0.54425 0.40981 0.98995 0.0
H1657 H 0.47821 0.34312 0.08242 0.0
H1658 H 0.49314 0.36702 0.06044 0.0
C1659 C 0.54863 0.42265 0.97495 0.0
C1660 C 0.54534 0.40172 0.02531 0.0
H1661 H 0.54692 0.35475 0.03997 0.0
C1662 C 0.53427 0.40919 0.04084 0.0
C1663 C 0.55056 0.38207 0.02531 0.0
C1664 C 0.56341 0.37363 0.00963 0.0
C1665 C 0.52758 0.39726 0.05598 0.0
C1666 C 0.5318 0.3773 0.05536 0.0
C1667 C 0.54358 0.37004 0.04029 0.0
C1668 C 0.52301 0.36339 0.06943 0.0
C1669 C 0.5159 0.40611 0.07241 0.0
C1670 C 0.53491 0.35321 0.08157 0.0
C1671 C 0.5264 0.33942 0.09418 0.0
C1672 C 0.50587 0.3355 0.09463 0.0
C1673 C 0.49406 0.34584 0.08249 0.0
C1674 C 0.50255 0.3596 0.06999 0.0
H1675 H 0.51898 0.42235 0.07395 0.0
H1676 H 0.49998 0.40296 0.06919 0.0
H1677 H 0.51917 0.39972 0.08661 0.0
H1678 H 0.55075 0.35587 0.08121 0.0
H1679 H 0.53588 0.33161 0.10329 0.0
H1680 H 0.69679 0.29291 0.25632 0.0
H1681 H 0.66897 0.29825 0.23502 0.0
H1682 H 0.65898 0.23563 0.223 0.0
H1683 H 0.6867 0.23013 0.24441 0.0
H1684 H 0.65436 0.26063 0.18934 0.0
H1685 H 0.61268 0.28219 0.25587 0.0
H1686 H 0.63625 0.29533 0.25274 0.0
H1687 H 0.63485 0.26954 0.25717 0.0
C1688 C 0.68878 0.28029 0.24898 0.0
C1689 C 0.69374 0.26108 0.25223 0.0
C1690 C 0.67296 0.28337 0.2368 0.0
C1691 C 0.66182 0.26731 0.22771 0.0
C1692 C 0.66744 0.2482 0.22993 0.0
H1693 H 0.5426 0.24937 0.1906 0.0
H1694 H 0.57541 0.24933 0.2048 0.0
C1695 C 0.6833 0.24509 0.24211 0.0
C1696 C 0.6433 0.27024 0.21737 0.0
H1697 H 0.59649 0.28273 0.22548 0.0
C1698 C 0.64173 0.26562 0.19715 0.0
C1699 C 0.62685 0.27658 0.22773 0.0
C1700 C 0.62757 0.28108 0.2496 0.0
C1701 C 0.62399 0.26703 0.187 0.0
C1702 C 0.60755 0.27326 0.19741 0.0
C1703 C 0.60922 0.27811 0.21757 0.0
C1704 C 0.58798 0.2733 0.1881 0.0
C1705 C 0.62268 0.26121 0.16542 0.0
C1706 C 0.5842 0.28691 0.17406 0.0
C1707 C 0.56535 0.28705 0.16592 0.0
C1708 C 0.55008 0.27355 0.17173 0.0
C1709 C 0.55402 0.25996 0.18578 0.0
C1710 C 0.57276 0.25989 0.19392 0.0
H1711 H 0.63593 0.25416 0.16013 0.0
H1712 H 0.60952 0.25088 0.1623 0.0
H1713 H 0.62113 0.27451 0.15698 0.0
H1714 H 0.59575 0.29754 0.16959 0.0
H1715 H 0.56276 0.29771 0.15513 0.0
H1716 H 0.45903 0.1223 0.96962 0.0
H1717 H 0.46931 0.14873 0.99355 0.0
H1718 H 0.42939 0.12301 0.03581 0.0
H1719 H 0.42052 0.09546 0.01273 0.0
H1720 H 0.45077 0.17588 0.00986 0.0
H1721 H 0.47678 0.13201 0.06924 0.0
H1722 H 0.47061 0.12125 0.04516 0.0
H1723 H 0.45169 0.12453 0.06312 0.0
C1724 C 0.4528 0.12191 0.98417 0.0
C1725 C 0.43907 0.10652 0.98923 0.0
C1726 C 0.45854 0.13721 0.99778 0.0
C1727 C 0.45046 0.13768 0.01665 0.0
C1728 C 0.43634 0.12268 0.02158 0.0
H1729 H 0.44877 0.24459 0.09004 0.0
H1730 H 0.44164 0.21655 0.0668 0.0
C1731 C 0.43095 0.1071 0.00815 0.0
C1732 C 0.4562 0.15428 0.03086 0.0
H1733 H 0.47055 0.16536 0.07828 0.0
C1734 C 0.45531 0.17356 0.02476 0.0
C1735 C 0.46253 0.15133 0.05019 0.0
C1736 C 0.46568 0.13116 0.05722 0.0
C1737 C 0.46016 0.18993 0.03754 0.0
C1738 C 0.4651 0.18693 0.05728 0.0
C1739 C 0.46643 0.16767 0.06325 0.0
C1740 C 0.46903 0.20353 0.07194 0.0
C1741 C 0.46035 0.21019 0.02953 0.0
C1742 C 0.48627 0.20498 0.08338 0.0
C1743 C 0.49003 0.22063 0.09717 0.0
C1744 C 0.47675 0.23525 0.0995 0.0
C1745 C 0.45938 0.23365 0.08829 0.0
C1746 C 0.45539 0.21774 0.07488 0.0
H1747 H 0.4631 0.20973 0.01349 0.0
H1748 H 0.44579 0.21601 0.03193 0.0
H1749 H 0.47177 0.22055 0.03683 0.0
H1750 H 0.49696 0.19414 0.08148 0.0
H1751 H 0.50355 0.22156 0.10564 0.0
H1752 H 0.22386 0.35332 0.74608 0.0
H1753 H 0.2435 0.38491 0.74845 0.0
H1754 H 0.29646 0.35489 0.74116 0.0
H1755 H 0.2769 0.32312 0.7392 0.0
H1756 H 0.29741 0.38299 0.77305 0.0
H1757 H 0.27278 0.414 0.70425 0.0
H1758 H 0.25316 0.40507 0.71975 0.0
H1759 H 0.26923 0.38809 0.70879 0.0
C1760 C 0.23969 0.35344 0.74505 0.0
C1761 C 0.24886 0.33574 0.74253 0.0
C1762 C 0.25086 0.3715 0.74617 0.0
C1763 C 0.27138 0.37221 0.7447 0.0
C1764 C 0.2806 0.35461 0.74216 0.0
H1765 H 0.35279 0.47606 0.73646 0.0
H1766 H 0.33327 0.44474 0.73018 0.0
C1767 C 0.26943 0.33652 0.74097 0.0
C1768 C 0.28324 0.3913 0.74682 0.0
H1769 H 0.29107 0.43615 0.72683 0.0
C1770 C 0.29613 0.39458 0.76289 0.0
C1771 C 0.28161 0.40628 0.73344 0.0
C1772 C 0.26859 0.40319 0.71547 0.0
C1773 C 0.30713 0.41268 0.76621 0.0
C1774 C 0.30498 0.4279 0.75322 0.0
C1775 C 0.29247 0.42448 0.73687 0.0
C1776 C 0.31579 0.44744 0.75637 0.0
C1777 C 0.32107 0.41534 0.78351 0.0
C1778 C 0.31201 0.45951 0.77291 0.0
C1779 C 0.32308 0.47742 0.77655 0.0
C1780 C 0.33813 0.48357 0.76367 0.0
C1781 C 0.34138 0.47173 0.74672 0.0
C1782 C 0.33025 0.45384 0.74309 0.0
H1783 H 0.32431 0.40101 0.78936 0.0
H1784 H 0.33512 0.42339 0.77941 0.0
H1785 H 0.31434 0.42413 0.79541 0.0
H1786 H 0.30067 0.45492 0.78317 0.0
H1787 H 0.32012 0.48622 0.78968 0.0
H1788 H 0.23322 0.69992 0.81789 0.0
H1789 H 0.25521 0.67344 0.81472 0.0
H1790 H 0.27654 0.69538 0.75991 0.0
H1791 H 0.25485 0.72235 0.76323 0.0
H1792 H 0.25611 0.64447 0.78362 0.0
H1793 H 0.32718 0.69012 0.79226 0.0
H1794 H 0.304 0.69933 0.79926 0.0
H1795 H 0.31051 0.69713 0.77385 0.0
C1796 C 0.24276 0.69928 0.80527 0.0
C1797 C 0.24244 0.71334 0.79089 0.0
C1798 C 0.25522 0.68407 0.80342 0.0
C1799 C 0.26766 0.68262 0.78722 0.0
C1800 C 0.26726 0.69645 0.77268 0.0
H1801 H 0.35182 0.59376 0.76309 0.0
H1802 H 0.33224 0.62218 0.76044 0.0
C1803 C 0.25473 0.7117 0.7745 0.0
C1804 C 0.28069 0.66629 0.78555 0.0
H1805 H 0.32875 0.65583 0.78728 0.0
C1806 C 0.27199 0.64694 0.78431 0.0
C1807 C 0.3014 0.66962 0.78634 0.0
C1808 C 0.31142 0.69015 0.78814 0.0
C1809 C 0.28345 0.63078 0.78417 0.0
C1810 C 0.30412 0.63408 0.78564 0.0
C1811 C 0.31288 0.65341 0.78623 0.0
C1812 C 0.31672 0.6176 0.78761 0.0
C1813 C 0.27333 0.61028 0.78252 0.0
C1814 C 0.31481 0.60601 0.80401 0.0
C1815 C 0.32593 0.58985 0.80558 0.0
C1816 C 0.33926 0.58502 0.79081 0.0
C1817 C 0.34163 0.59706 0.77468 0.0
C1818 C 0.33048 0.61328 0.77314 0.0
H1819 H 0.2583 0.61022 0.7762 0.0
H1820 H 0.28191 0.60026 0.77326 0.0
H1821 H 0.272 0.60435 0.79735 0.0
H1822 H 0.30453 0.60936 0.81552 0.0
H1823 H 0.32383 0.58098 0.81825 0.0
H1824 H 0.89147 0.56555 0.47518 0.0
H1825 H 0.8623 0.54301 0.48014 0.0
H1826 H 0.89889 0.49448 0.4826 0.0
H1827 H 0.92815 0.51692 0.47775 0.0
H1828 H 0.85093 0.50371 0.45594 0.0
H1829 H 0.86501 0.49838 0.53588 0.0
H1830 H 0.87463 0.51917 0.52244 0.0
H1831 H 0.88533 0.49606 0.5194 0.0
C1832 C 0.89327 0.55007 0.47676 0.0
C1833 C 0.91204 0.54295 0.47617 0.0
C1834 C 0.87664 0.53725 0.4795 0.0
C1835 C 0.87859 0.51721 0.48185 0.0
C1836 C 0.89722 0.50997 0.48088 0.0
H1837 H 0.79843 0.41975 0.51359 0.0
H1838 H 0.82707 0.44201 0.50657 0.0
C1839 C 0.91385 0.52274 0.47801 0.0
C1840 C 0.86115 0.50392 0.48578 0.0
H1841 H 0.83793 0.47884 0.52216 0.0
C1842 C 0.84799 0.49825 0.47038 0.0
C1843 C 0.85758 0.49689 0.50465 0.0
C1844 C 0.87127 0.50295 0.52165 0.0
C1845 C 0.83133 0.48537 0.47332 0.0
C1846 C 0.8276 0.47846 0.49228 0.0
C1847 C 0.84083 0.48419 0.50766 0.0
C1848 C 0.81016 0.46512 0.49647 0.0
C1849 C 0.81817 0.47891 0.45601 0.0
C1850 C 0.79117 0.47091 0.49341 0.0
C1851 C 0.77476 0.45818 0.49728 0.0
C1852 C 0.77707 0.43955 0.50453 0.0
C1853 C 0.79613 0.434 0.508 0.0
C1854 C 0.81252 0.44668 0.50399 0.0
H1855 H 0.82587 0.48104 0.44187 0.0
H1856 H 0.81275 0.46318 0.45664 0.0
H1857 H 0.80527 0.48785 0.4562 0.0
H1858 H 0.78903 0.48529 0.48809 0.0
H1859 H 0.76027 0.46297 0.49462 0.0
H1860 H 0.75825 0.85837 0.82879 0.0
H1861 H 0.73444 0.88284 0.82449 0.0
H1862 H 0.72843 0.86488 0.76322 0.0
H1863 H 0.75214 0.84015 0.76742 0.0
H1864 H 0.74036 0.91373 0.79441 0.0
H1865 H 0.67041 0.86594 0.78646 0.0
H1866 H 0.69157 0.8582 0.7991 0.0
H1867 H 0.69157 0.85894 0.7729 0.0
C1868 C 0.75162 0.8594 0.81447 0.0
C1869 C 0.75702 0.84735 0.79844 0.0
C1870 C 0.73811 0.87342 0.81204 0.0
C1871 C 0.72964 0.87549 0.79359 0.0
C1872 C 0.73471 0.86331 0.7776 0.0
H1873 H 0.64666 0.96113 0.76229 0.0
H1874 H 0.66697 0.93295 0.76088 0.0
C1875 C 0.74834 0.84934 0.77999 0.0
C1876 C 0.71645 0.89129 0.79099 0.0
H1877 H 0.66831 0.9002 0.78534 0.0
C1878 C 0.72462 0.9108 0.79232 0.0
C1879 C 0.69601 0.88731 0.78801 0.0
C1880 C 0.68671 0.86649 0.78659 0.0
C1881 C 0.71279 0.92656 0.79114 0.0
C1882 C 0.69221 0.92266 0.78907 0.0
C1883 C 0.68409 0.90311 0.78704 0.0
C1884 C 0.67893 0.93876 0.79016 0.0
C1885 C 0.72244 0.94728 0.79219 0.0
C1886 C 0.67853 0.95091 0.80728 0.0
C1887 C 0.66709 0.96695 0.80811 0.0
C1888 C 0.65564 0.97105 0.79188 0.0
C1889 C 0.65539 0.95837 0.775 0.0
C1890 C 0.66696 0.9423 0.77416 0.0
H1891 H 0.73815 0.9476 0.78791 0.0
H1892 H 0.71479 0.95691 0.78252 0.0
H1893 H 0.72181 0.95347 0.80748 0.0
H1894 H 0.68734 0.94813 0.81994 0.0
H1895 H 0.66745 0.97629 0.82141 0.0
H1896 H 0.60522 0.49577 0.98165 0.0
H1897 H 0.63498 0.51801 0.98358 0.0
H1898 H 0.63896 0.51529 0.9205 0.0
H1899 H 0.60913 0.49268 0.91839 0.0
H1900 H 0.6735 0.51285 0.96845 0.0
H1901 H 0.63792 0.57489 0.93647 0.0
H1902 H 0.62387 0.5537 0.94549 0.0
H1903 H 0.63636 0.55177 0.92248 0.0
C1904 C 0.61258 0.49958 0.96817 0.0
C1905 C 0.60484 0.49243 0.94985 0.0
C1906 C 0.62953 0.51237 0.96931 0.0
C1907 C 0.63902 0.51837 0.95219 0.0
C1908 C 0.63165 0.51099 0.93386 0.0
H1909 H 0.75119 0.59118 0.96278 0.0
H1910 H 0.72618 0.56546 0.95132 0.0
C1911 C 0.61464 0.49813 0.93269 0.0
C1912 C 0.65623 0.53288 0.95383 0.0
H1913 H 0.67047 0.58125 0.94767 0.0
C1914 C 0.67302 0.52774 0.96367 0.0
C1915 C 0.65535 0.55229 0.9477 0.0
C1916 C 0.6374 0.55866 0.93755 0.0
C1917 C 0.68877 0.54172 0.96811 0.0
C1918 C 0.68771 0.56123 0.96235 0.0
C1919 C 0.6712 0.56622 0.95197 0.0
C1920 C 0.70278 0.57708 0.96849 0.0
C1921 C 0.70599 0.53577 0.97976 0.0
C1922 C 0.69774 0.59228 0.98159 0.0
C1923 C 0.71192 0.607 0.98813 0.0
C1924 C 0.73142 0.60681 0.98161 0.0
C1925 C 0.73634 0.5917 0.96818 0.0
C1926 C 0.72211 0.57696 0.96165 0.0
H1927 H 0.70297 0.52106 0.98592 0.0
H1928 H 0.71897 0.53519 0.97007 0.0
H1929 H 0.70981 0.54674 0.99198 0.0
H1930 H 0.68286 0.59259 0.987 0.0
H1931 H 0.70761 0.61844 0.99841 0.0
H1932 H 0.28551 0.68948 0.21869 0.0
H1933 H 0.26342 0.66052 0.22516 0.0
H1934 H 0.21544 0.69745 0.23373 0.0
H1935 H 0.23754 0.72655 0.22773 0.0
H1936 H 0.22031 0.67132 0.26393 0.0
H1937 H 0.21893 0.63296 0.19025 0.0
H1938 H 0.24309 0.64006 0.19996 0.0
H1939 H 0.22709 0.65869 0.19422 0.0
C1940 C 0.27024 0.69141 0.22191 0.0
C1941 C 0.26324 0.71027 0.22271 0.0
C1942 C 0.25762 0.67485 0.22541 0.0
C1943 C 0.23779 0.67687 0.22968 0.0
C1944 C 0.23069 0.69563 0.23031 0.0
H1945 H 0.14366 0.58509 0.23956 0.0
H1946 H 0.16497 0.61357 0.23026 0.0
C1947 C 0.24329 0.71219 0.22677 0.0
C1948 C 0.22469 0.65954 0.23459 0.0
H1949 H 0.20469 0.61495 0.21631 0.0
C1950 C 0.21681 0.65902 0.25352 0.0
C1951 C 0.2201 0.64364 0.22088 0.0
C1952 C 0.22758 0.64385 0.20012 0.0
C1953 C 0.20465 0.6428 0.25924 0.0
C1954 C 0.2005 0.62665 0.24571 0.0
C1955 C 0.2081 0.62731 0.22667 0.0
C1956 C 0.188 0.60907 0.25102 0.0
C1957 C 0.19615 0.64316 0.27961 0.0
C1958 C 0.1941 0.597 0.26555 0.0
C1959 C 0.18198 0.5807 0.27091 0.0
C1960 C 0.16356 0.57621 0.26178 0.0
C1961 C 0.1577 0.58818 0.24695 0.0
C1962 C 0.16986 0.60443 0.24158 0.0
H1963 H 0.19712 0.65828 0.28656 0.0
H1964 H 0.18052 0.63724 0.2793 0.0
H1965 H 0.20444 0.63376 0.28894 0.0
H1966 H 0.20822 0.60022 0.27278 0.0
H1967 H 0.18699 0.57174 0.28232 0.0
H1968 H 0.90371 0.49351 0.09619 0.0
H1969 H 0.88378 0.5206 0.08858 0.0
H1970 H 0.89945 0.51394 0.02763 0.0
H1971 H 0.91944 0.4871 0.03508 0.0
H1972 H 0.89567 0.55648 0.07109 0.0
H1973 H 0.83921 0.5118 0.02614 0.0
H1974 H 0.85589 0.50096 0.04228 0.0
H1975 H 0.86386 0.50832 0.01845 0.0
C1976 C 0.90289 0.49784 0.08117 0.0
C1977 C 0.91298 0.48802 0.06619 0.0
C1978 C 0.89149 0.51326 0.07686 0.0
C1979 C 0.88992 0.51903 0.05751 0.0
C1980 C 0.90011 0.5094 0.04259 0.0
H1981 H 0.83995 0.60433 0.9902 0.0
H1982 H 0.85934 0.57996 0.00439 0.0
C1983 C 0.91148 0.49402 0.04687 0.0
C1984 C 0.87796 0.53537 0.05278 0.0
H1985 H 0.84036 0.54664 0.02339 0.0
C1986 C 0.8834 0.55435 0.06086 0.0
C1987 C 0.86192 0.53246 0.03953 0.0
C1988 C 0.85472 0.51225 0.03124 0.0
C1989 C 0.87376 0.57068 0.05528 0.0
C1990 C 0.85825 0.56783 0.04143 0.0
C1991 C 0.8524 0.54876 0.03388 0.0
C1992 C 0.84832 0.5844 0.03379 0.0
C1993 C 0.88065 0.59094 0.0636 0.0
C1994 C 0.83601 0.59526 0.04577 0.0
C1995 C 0.82487 0.60928 0.03769 0.0
C1996 C 0.82582 0.61251 0.0175 0.0
C1997 C 0.83883 0.60218 0.00578 0.0
C1998 C 0.84991 0.58822 0.01385 0.0
H1999 H 0.89478 0.59101 0.07173 0.0
H2000 H 0.88247 0.60146 0.05169 0.0
H2001 H 0.86942 0.59626 0.07384 0.0
H2002 H 0.83443 0.59234 0.06116 0.0
H2003 H 0.81492 0.61695 0.04708 0.0
H2004 H 0.10348 0.07602 0.11443 0.0
H2005 H 0.12143 0.0462 0.11151 0.0
H2006 H 0.10474 0.03833 0.05051 0.0
H2007 H 0.0866 0.06776 0.05332 0.0
H2008 H 0.09651 0.00412 0.07671 0.0
H2009 H 0.17369 0.03786 0.07891 0.0
H2010 H 0.15625 0.04632 0.09653 0.0
H2011 H 0.15357 0.05145 0.07121 0.0
C2012 C 0.10377 0.06798 0.10038 0.0
C2013 C 0.09371 0.07428 0.08407 0.0
C2014 C 0.11407 0.05104 0.09873 0.0
C2015 C 0.11438 0.04018 0.08079 0.0
C2016 C 0.10467 0.0466 0.06446 0.0
H2017 H 0.15185 0.94507 0.01519 0.0
H2018 H 0.13399 0.96991 0.03266 0.0
C2019 C 0.09447 0.06352 0.06605 0.0
C2020 C 0.12415 0.02164 0.07892 0.0
H2021 H 0.16894 0.00382 0.0716 0.0
C2022 C 0.11237 0.00395 0.07592 0.0
C2023 C 0.1448 0.02153 0.07817 0.0
C2024 C 0.15795 0.04025 0.08131 0.0
C2025 C 0.1207 0.98622 0.07117 0.0
C2026 C 0.14128 0.98633 0.069 0.0
C2027 C 0.15315 0.0038 0.07326 0.0
C2028 C 0.15051 0.96934 0.05973 0.0
C2029 C 0.10735 0.96764 0.06797 0.0
C2030 C 0.16572 0.96069 0.06917 0.0
C2031 C 0.17601 0.94638 0.05916 0.0
C2032 C 0.17142 0.94082 0.03947 0.0
C2033 C 0.15572 0.94902 0.03035 0.0
C2034 C 0.1454 0.96315 0.04037 0.0
H2035 H 0.09361 0.96843 0.07655 0.0
H2036 H 0.10319 0.96574 0.05223 0.0
H2037 H 0.11473 0.9545 0.07214 0.0
H2038 H 0.16997 0.96541 0.08406 0.0
H2039 H 0.18813 0.94041 0.06652 0.0
loop_
_geom_bond_atom_site_label_1
_geom_bond_atom_site_label_2
_geom_bond_distance
_geom_bond_site_symmetry_2
_ccdc_geom_bond_type
H0 C3 0.931 . S
H1 C6 0.928 . S
H2 C8 0.930 . S
C3 H0 0.931 . S
C3 C4 1.413 . S
C3 C5 1.360 . S
C4 C3 1.413 . S
C4 C8 1.429 . S
C5 C3 1.360 . S
C5 C6 1.372 . S
C6 H1 0.928 . S
C6 C5 1.372 . S
C6 C7 1.404 . S
C7 C6 1.404 . S
C7 C8 1.391 . S
C8 H2 0.930 . S
C8 C4 1.429 . S
C8 C7 1.391 . S
H9 C12 0.931 . S
H10 C15 0.928 . S
H11 C17 0.930 . S
C12 H9 0.931 . S
C12 C13 1.413 . S
C12 C14 1.360 . S
C13 C12 1.413 . S
C13 C17 1.429 . S
C14 C12 1.360 . S
C14 C15 1.372 . S
C15 H10 0.928 . S
C15 C14 1.372 . S
C15 C16 1.404 . S
C16 C15 1.404 . S
C16 C17 1.391 . S
C17 H11 0.930 . S
C17 C13 1.429 . S
C17 C16 1.391 . S
H18 C21 0.931 . S
H19 C24 0.928 . S
H20 C26 0.930 . S
C21 H18 0.931 . S
C21 C22 1.413 . S
C21 C23 1.360 . S
C22 C21 1.413 . S
C22 C26 1.429 . S
C23 C21 1.360 . S
C23 C24 1.372 . S
C24 H19 0.928 . S
C24 C23 1.372 . S
C24 C25 1.404 . S
C25 C24 1.404 . S
C25 C26 1.391 . S
C26 H20 0.930 . S
C26 C22 1.429 . S
C26 C25 1.391 . S
H27 C30 0.931 . S
H28 C33 0.928 . S
H29 C35 0.930 . S
C30 H27 0.931 . S
C30 C31 1.413 . S
C30 C32 1.360 . S
C31 C30 1.413 . S
C31 C35 1.429 . S
C32 C30 1.360 . S
C32 C33 1.372 . S
C33 H28 0.928 . S
C33 C32 1.372 . S
C33 C34 1.404 . S
C34 C33 1.404 . S
C34 C35 1.391 . S
C35 H29 0.930 . S
C35 C31 1.429 . S
C35 C34 1.391 . S
H36 C39 0.931 . S
H37 C42 0.928 . S
H38 C44 0.930 . S
C39 H36 0.931 . S
C39 C40 1.413 . S
C39 C41 1.360 . S
C40 C39 1.413 . S
C40 C44 1.429 . S
C41 C39 1.360 . S
C41 C42 1.372 . S
C42 H37 0.928 . S
C42 C41 1.372 . S
C42 C43 1.404 . S
C43 C42 1.404 . S
C43 C44 1.391 . S
C44 H38 0.930 . S
C44 C40 1.429 . S
C44 C43 1.391 . S
H45 C48 0.931 . S
H46 C51 0.928 . S
H47 C53 0.930 . S
C48 H45 0.931 . S
C48 C49 1.413 . S
C48 C50 1.360 . S
C49 C48 1.413 . S
C49 C53 1.429 . S
C50 C48 1.360 . S
C50 C51 1.372 . S
C51 H46 0.928 . S
C51 C50 1.372 . S
C51 C52 1.404 . S
C52 C51 1.404 . S
C52 C53 1.391 . S
C53 H47 0.930 . S
C53 C49 1.429 . S
C53 C52 1.391 . S
H54 C57 0.931 . S
H55 C60 0.928 . S
H56 C62 0.930 . S
C57 H54 0.931 . S
C57 C58 1.413 . S
C57 C59 1.360 . S
C58 C57 1.413 . S
C58 C62 1.429 . S
C59 C57 1.360 . S
C59 C60 1.372 . S
C60 H55 0.928 . S
C60 C59 1.372 . S
C60 C61 1.404 . S
C61 C60 1.404 . S
C61 C62 1.391 . S
C62 H56 0.930 . S
C62 C58 1.429 . S
C62 C61 1.391 . S
H63 C66 0.931 . S
H64 C69 0.928 . S
H65 C71 0.930 . S
C66 H63 0.931 . S
C66 C67 1.413 . S
C66 C68 1.360 . S
C67 C66 1.413 . S
C67 C71 1.429 . S
C68 C66 1.360 . S
C68 C69 1.372 . S
C69 H64 0.928 . S
C69 C68 1.372 . S
C69 C70 1.404 . S
C70 C69 1.404 . S
C70 C71 1.391 . S
C71 H65 0.930 . S
C71 C67 1.429 . S
C71 C70 1.391 . S
H72 C75 0.931 . S
H73 C78 0.928 . S
H74 C80 0.930 . S
C75 H72 0.931 . S
C75 C76 1.413 . S
C75 C77 1.360 . S
C76 C75 1.413 . S
C76 C80 1.429 . S
C77 C75 1.360 . S
C77 C78 1.372 . S
C78 H73 0.928 . S
C78 C77 1.372 . S
C78 C79 1.404 . S
C79 C78 1.404 . S
C79 C80 1.391 . S
C80 H74 0.930 . S
C80 C76 1.429 . S
C80 C79 1.391 . S
H81 C84 0.931 . S
H82 C87 0.928 . S
H83 C89 0.930 . S
C84 H81 0.931 . S
C84 C85 1.413 . S
C84 C86 1.360 . S
C85 C84 1.413 . S
C85 C89 1.429 . S
C86 C84 1.360 . S
C86 C87 1.372 . S
C87 H82 0.928 . S
C87 C86 1.372 . S
C87 C88 1.404 . S
C88 C87 1.404 . S
C88 C89 1.391 . S
C89 H83 0.930 . S
C89 C85 1.429 . S
C89 C88 1.391 . S
H90 C93 0.931 . S
H91 C96 0.928 . S
H92 C98 0.930 . S
C93 H90 0.931 . S
C93 C94 1.413 . S
C93 C95 1.360 . S
C94 C93 1.413 . S
C94 C98 1.429 . S
C95 C93 1.360 . S
C95 C96 1.372 . S
C96 H91 0.928 . S
C96 C95 1.372 . S
C96 C97 1.404 . S
C97 C96 1.404 . S
C97 C98 1.391 . S
C98 H92 0.930 . S
C98 C94 1.429 . S
C98 C97 1.391 . S
H99 C102 0.931 . S
H100 C105 0.928 . S
H101 C107 0.930 . S
C102 H99 0.931 . S
C102 C103 1.413 . S
C102 C104 1.360 . S
C103 C102 1.413 . S
C103 C107 1.429 . S
C104 C102 1.360 . S
C104 C105 1.372 . S
C105 H100 0.928 . S
C105 C104 1.372 . S
C105 C106 1.404 . S
C106 C105 1.404 . S
C106 C107 1.391 . S
C107 H101 0.930 . S
C107 C103 1.429 . S
C107 C106 1.391 . S
H108 C111 0.931 . S
H109 C114 0.928 . S
H110 C116 0.930 . S
C111 H108 0.931 . S
C111 C112 1.413 . S
C111 C113 1.360 . S
C112 C111 1.413 . S
C112 C116 1.429 . S
C113 C111 1.360 . S
C113 C114 1.372 . S
C114 H109 0.928 . S
C114 C113 1.372 . S
C114 C115 1.404 . S
C115 C114 1.404 . S
C115 C116 1.391 . S
C116 H110 0.930 . S
C116 C112 1.429 . S
C116 C115 1.391 . S
H117 C120 0.931 . S
H118 C123 0.928 . S
H119 C125 0.930 . S
C120 H117 0.931 . S
C120 C121 1.413 . S
C120 C122 1.360 . S
C121 C120 1.413 . S
C121 C125 1.429 . S
C122 C120 1.360 . S
C122 C123 1.372 . S
C123 H118 0.928 . S
C123 C122 1.372 . S
C123 C124 1.404 . S
C124 C123 1.404 . S
C124 C125 1.391 . S
C125 H119 0.930 . S
C125 C121 1.429 . S
C125 C124 1.391 . S
H126 C129 0.931 . S
H127 C132 0.928 . S
H128 C134 0.930 . S
C129 H126 0.931 . S
C129 C130 1.413 . S
C129 C131 1.360 . S
C130 C129 1.413 . S
C130 C134 1.429 . S
C131 C129 1.360 . S
C131 C132 1.372 . S
C132 H127 0.928 . S
C132 C131 1.372 . S
C132 C133 1.404 . S
C133 C132 1.404 . S
C133 C134 1.391 . S
C134 H128 0.930 . S
C134 C130 1.429 . S
C134 C133 1.391 . S
H135 C138 0.931 . S
H136 C141 0.928 . S
H137 C143 0.930 . S
C138 H135 0.931 . S
C138 C139 1.413 . S
C138 C140 1.360 . S
C139 C138 1.413 . S
C139 C143 1.429 . S
C140 C138 1.360 . S
C140 C141 1.372 . S
C141 H136 0.928 . S
C141 C140 1.372 . S
C141 C142 1.404 . S
C142 C141 1.404 . S
C142 C143 1.391 . S
C143 H137 0.930 . S
C143 C139 1.429 . S
C143 C142 1.391 . S
O144 Cd145 2.223 . S
O144 C152 1.315 . S
Cd145 O144 2.223 . S
Cd145 O148 2.297 . S
Cd145 O149 2.439 . S
Cd145 O155 2.240 . S
Cd146 O147 2.240 . S
Cd146 O154 2.223 . S
Cd146 O156 2.297 . S
Cd146 O157 2.439 . S
O147 Cd146 2.240 . S
O147 C152 1.279 . S
O148 Cd145 2.297 . S
O148 C150 1.247 . S
O149 Cd145 2.439 . S
O149 C150 1.208 . S
C150 O148 1.247 . S
C150 O149 1.208 . S
C151 O156 1.247 . S
C151 O157 1.208 . S
C152 O144 1.315 . S
C152 O147 1.279 . S
C153 O154 1.315 . S
C153 O155 1.279 . S
O154 Cd146 2.223 . S
O154 C153 1.315 . S
O155 Cd145 2.240 . S
O155 C153 1.279 . S
O156 Cd146 2.297 . S
O156 C151 1.247 . S
O157 Cd146 2.439 . S
O157 C151 1.208 . S
O158 Cd159 2.223 . S
O158 C166 1.315 . S
Cd159 O158 2.223 . S
Cd159 O162 2.297 . S
Cd159 O163 2.439 . S
Cd159 O169 2.240 . S
Cd160 O161 2.240 . S
Cd160 O168 2.223 . S
Cd160 O170 2.297 . S
Cd160 O171 2.439 . S
O161 Cd160 2.240 . S
O161 C166 1.279 . S
O162 Cd159 2.297 . S
O162 C164 1.247 . S
O163 Cd159 2.439 . S
O163 C164 1.208 . S
C164 O162 1.247 . S
C164 O163 1.208 . S
C165 O170 1.247 . S
C165 O171 1.208 . S
C166 O158 1.315 . S
C166 O161 1.279 . S
C167 O168 1.315 . S
C167 O169 1.279 . S
O168 Cd160 2.223 . S
O168 C167 1.315 . S
O169 Cd159 2.240 . S
O169 C167 1.279 . S
O170 Cd160 2.297 . S
O170 C165 1.247 . S
O171 Cd160 2.439 . S
O171 C165 1.208 . S
O172 Cd173 2.223 1_556 S
O172 C180 1.315 . S
Cd173 O172 2.223 1_554 S
Cd173 O176 2.297 . S
Cd173 O177 2.439 . S
Cd173 O183 2.240 . S
Cd174 O175 2.240 . S
Cd174 O182 2.223 . S
Cd174 O184 2.297 1_556 S
Cd174 O185 2.439 1_556 S
O175 Cd174 2.240 . S
O175 C180 1.279 . S
O176 Cd173 2.297 . S
O176 C178 1.247 . S
O177 Cd173 2.439 . S
O177 C178 1.208 . S
C178 O176 1.247 . S
C178 O177 1.208 . S
C179 O184 1.247 . S
C179 O185 1.208 . S
C180 O172 1.315 . S
C180 O175 1.279 . S
C181 O182 1.315 . S
C181 O183 1.279 1_556 S
O182 Cd174 2.223 . S
O182 C181 1.315 . S
O183 Cd173 2.240 . S
O183 C181 1.279 1_554 S
O184 Cd174 2.297 1_554 S
O184 C179 1.247 . S
O185 Cd174 2.439 1_554 S
O185 C179 1.208 . S
O186 Cd187 2.223 . S
O186 C194 1.315 . S
Cd187 O186 2.223 . S
Cd187 O190 2.297 . S
Cd187 O191 2.439 . S
Cd187 O197 2.240 . S
Cd188 O189 2.240 . S
Cd188 O196 2.223 . S
Cd188 O198 2.297 . S
Cd188 O199 2.439 . S
O189 Cd188 2.240 . S
O189 C194 1.279 . S
O190 Cd187 2.297 . S
O190 C192 1.247 . S
O191 Cd187 2.439 . S
O191 C192 1.208 . S
C192 O190 1.247 . S
C192 O191 1.208 . S
C193 O198 1.247 . S
C193 O199 1.208 . S
C194 O186 1.315 . S
C194 O189 1.279 . S
C195 O196 1.315 . S
C195 O197 1.279 . S
O196 Cd188 2.223 . S
O196 C195 1.315 . S
O197 Cd187 2.240 . S
O197 C195 1.279 . S
O198 Cd188 2.297 . S
O198 C193 1.247 . S
O199 Cd188 2.439 . S
O199 C193 1.208 . S
O200 Cd201 2.223 . S
O200 C208 1.315 . S
Cd201 O200 2.223 . S
Cd201 O204 2.297 . S
Cd201 O205 2.439 . S
Cd201 O211 2.240 . S
Cd202 O203 2.240 . S
Cd202 O210 2.223 . S
Cd202 O212 2.297 . S
Cd202 O213 2.439 . S
O203 Cd202 2.240 . S
O203 C208 1.279 . S
O204 Cd201 2.297 . S
O204 C206 1.247 . S
O205 Cd201 2.439 . S
O205 C206 1.208 . S
C206 O204 1.247 . S
C206 O205 1.208 . S
C207 O212 1.247 . S
C207 O213 1.208 . S
C208 O200 1.315 . S
C208 O203 1.279 . S
C209 O210 1.315 . S
C209 O211 1.279 . S
O210 Cd202 2.223 . S
O210 C209 1.315 . S
O211 Cd201 2.240 . S
O211 C209 1.279 . S
O212 Cd202 2.297 . S
O212 C207 1.247 . S
O213 Cd202 2.439 . S
O213 C207 1.208 . S
O214 Cd215 2.223 . S
O214 C222 1.315 . S
Cd215 O214 2.223 . S
Cd215 O218 2.297 . S
Cd215 O219 2.439 . S
Cd215 O225 2.240 . S
Cd216 O217 2.240 . S
Cd216 O224 2.223 . S
Cd216 O226 2.297 . S
Cd216 O227 2.439 . S
O217 Cd216 2.240 . S
O217 C222 1.279 . S
O218 Cd215 2.297 . S
O218 C220 1.247 . S
O219 Cd215 2.439 . S
O219 C220 1.208 . S
C220 O218 1.247 . S
C220 O219 1.208 . S
C221 O226 1.247 . S
C221 O227 1.208 . S
C222 O214 1.315 . S
C222 O217 1.279 . S
C223 O224 1.315 . S
C223 O225 1.279 . S
O224 Cd216 2.223 . S
O224 C223 1.315 . S
O225 Cd215 2.240 . S
O225 C223 1.279 . S
O226 Cd216 2.297 . S
O226 C221 1.247 . S
O227 Cd216 2.439 . S
O227 C221 1.208 . S
O228 Cd229 2.223 . S
O228 C236 1.315 . S
Cd229 O228 2.223 . S
Cd229 O232 2.297 . S
Cd229 O233 2.439 . S
Cd229 O239 2.240 . S
Cd230 O231 2.240 . S
Cd230 O238 2.223 . S
Cd230 O240 2.297 . S
Cd230 O241 2.439 . S
O231 Cd230 2.240 . S
O231 C236 1.279 . S
O232 Cd229 2.297 . S
O232 C234 1.247 . S
O233 Cd229 2.439 . S
O233 C234 1.208 . S
C234 O232 1.247 . S
C234 O233 1.208 . S
C235 O240 1.247 . S
C235 O241 1.208 . S
C236 O228 1.315 . S
C236 O231 1.279 . S
C237 O238 1.315 . S
C237 O239 1.279 . S
O238 Cd230 2.223 . S
O238 C237 1.315 . S
O239 Cd229 2.240 . S
O239 C237 1.279 . S
O240 Cd230 2.297 . S
O240 C235 1.247 . S
O241 Cd230 2.439 . S
O241 C235 1.208 . S
O242 Cd243 2.223 1_545 S
O242 C250 1.315 . S
Cd243 O242 2.223 1_565 S
Cd243 O246 2.297 . S
Cd243 O247 2.439 . S
Cd243 O253 2.240 1_565 S
Cd244 O245 2.240 . S
Cd244 O252 2.223 . S
Cd244 O254 2.297 . S
Cd244 O255 2.439 1_545 S
O245 Cd244 2.240 . S
O245 C250 1.279 . S
O246 Cd243 2.297 . S
O246 C248 1.247 . S
O247 Cd243 2.439 . S
O247 C248 1.208 . S
C248 O246 1.247 . S
C248 O247 1.208 . S
C249 O254 1.247 1_565 S
C249 O255 1.208 . S
C250 O242 1.315 . S
C250 O245 1.279 . S
C251 O252 1.315 . S
C251 O253 1.279 . S
O252 Cd244 2.223 . S
O252 C251 1.315 . S
O253 Cd243 2.240 1_545 S
O253 C251 1.279 . S
O254 Cd244 2.297 . S
O254 C249 1.247 1_545 S
O255 Cd244 2.439 1_565 S
O255 C249 1.208 . S
O256 Cd257 2.223 . S
O256 C264 1.315 . S
Cd257 O256 2.223 . S
Cd257 O260 2.297 1_655 S
Cd257 O261 2.439 1_655 S
Cd257 O267 2.240 . S
Cd258 O259 2.240 . S
Cd258 O266 2.223 1_455 S
Cd258 O268 2.297 . S
Cd258 O269 2.439 . S
O259 Cd258 2.240 . S
O259 C264 1.279 1_455 S
O260 Cd257 2.297 1_455 S
O260 C262 1.247 . S
O261 Cd257 2.439 1_455 S
O261 C262 1.208 . S
C262 O260 1.247 . S
C262 O261 1.208 . S
C263 O268 1.247 . S
C263 O269 1.208 . S
C264 O256 1.315 . S
C264 O259 1.279 1_655 S
C265 O266 1.315 . S
C265 O267 1.279 . S
O266 Cd258 2.223 1_655 S
O266 C265 1.315 . S
O267 Cd257 2.240 . S
O267 C265 1.279 . S
O268 Cd258 2.297 . S
O268 C263 1.247 . S
O269 Cd258 2.439 . S
O269 C263 1.208 . S
O270 Cd271 2.223 . S
O270 C278 1.315 . S
Cd271 O270 2.223 . S
Cd271 O274 2.297 . S
Cd271 O275 2.439 . S
Cd271 O281 2.240 . S
Cd272 O273 2.240 . S
Cd272 O280 2.223 . S
Cd272 O282 2.297 . S
Cd272 O283 2.439 . S
O273 Cd272 2.240 . S
O273 C278 1.279 . S
O274 Cd271 2.297 . S
O274 C276 1.247 . S
O275 Cd271 2.439 . S
O275 C276 1.208 . S
C276 O274 1.247 . S
C276 O275 1.208 . S
C277 O282 1.247 . S
C277 O283 1.208 . S
C278 O270 1.315 . S
C278 O273 1.279 . S
C279 O280 1.315 . S
C279 O281 1.279 . S
O280 Cd272 2.223 . S
O280 C279 1.315 . S
O281 Cd271 2.240 . S
O281 C279 1.279 . S
O282 Cd272 2.297 . S
O282 C277 1.247 . S
O283 Cd272 2.439 . S
O283 C277 1.208 . S
O284 Cd285 2.223 1_655 S
O284 C292 1.315 . S
Cd285 O284 2.223 1_455 S
Cd285 O288 2.297 . S
Cd285 O289 2.439 . S
Cd285 O295 2.240 . S
Cd286 O287 2.240 . S
Cd286 O294 2.223 . S
Cd286 O296 2.297 1_655 S
Cd286 O297 2.439 1_655 S
O287 Cd286 2.240 . S
O287 C292 1.279 . S
O288 Cd285 2.297 . S
O288 C290 1.247 . S
O289 Cd285 2.439 . S
O289 C290 1.208 . S
C290 O288 1.247 . S
C290 O289 1.208 . S
C291 O296 1.247 . S
C291 O297 1.208 . S
C292 O284 1.315 . S
C292 O287 1.279 . S
C293 O294 1.315 . S
C293 O295 1.279 1_655 S
O294 Cd286 2.223 . S
O294 C293 1.315 . S
O295 Cd285 2.240 . S
O295 C293 1.279 1_455 S
O296 Cd286 2.297 1_455 S
O296 C291 1.247 . S
O297 Cd286 2.439 1_455 S
O297 C291 1.208 . S
O298 Cd299 2.223 . S
O298 C306 1.315 . S
Cd299 O298 2.223 . S
Cd299 O302 2.297 . S
Cd299 O303 2.439 . S
Cd299 O309 2.240 . S
Cd300 O301 2.240 . S
Cd300 O308 2.223 . S
Cd300 O310 2.297 . S
Cd300 O311 2.439 . S
O301 Cd300 2.240 . S
O301 C306 1.279 . S
O302 Cd299 2.297 . S
O302 C304 1.247 . S
O303 Cd299 2.439 . S
O303 C304 1.208 . S
C304 O302 1.247 . S
C304 O303 1.208 . S
C305 O310 1.247 . S
C305 O311 1.208 . S
C306 O298 1.315 . S
C306 O301 1.279 . S
C307 O308 1.315 . S
C307 O309 1.279 . S
O308 Cd300 2.223 . S
O308 C307 1.315 . S
O309 Cd299 2.240 . S
O309 C307 1.279 . S
O310 Cd300 2.297 . S
O310 C305 1.247 . S
O311 Cd300 2.439 . S
O311 C305 1.208 . S
H312 C320 0.929 . S
H313 C322 0.930 . S
H314 C324 0.930 . S
H315 C327 0.929 . S
H316 C330 0.930 . S
H317 C332 0.960 . S
H318 C332 0.960 . S
H319 C332 0.960 . S
C320 H312 0.929 . S
C320 C321 1.377 . S
C320 C322 1.384 . S
C321 C320 1.377 . S
C321 C327 1.390 . S
C322 H313 0.930 . S
C322 C320 1.384 . S
C322 C323 1.372 . S
C323 C322 1.372 . S
C323 C324 1.400 . S
C323 C328 1.490 . S
C324 H314 0.930 . S
C324 C323 1.400 . S
C324 C327 1.386 . S
H325 C341 0.930 . S
H326 C342 0.931 . S
C327 H315 0.929 . S
C327 C321 1.390 . S
C327 C324 1.386 . S
C328 C323 1.490 . S
C328 C330 1.395 . S
C328 C331 1.403 . S
H329 C335 0.930 . S
C330 H316 0.930 . S
C330 C328 1.395 . S
C330 C333 1.403 . S
C331 C328 1.403 . S
C331 C332 1.524 . S
C331 C335 1.400 . S
C332 H317 0.960 . S
C332 H318 0.960 . S
C332 H319 0.960 . S
C332 C331 1.524 . S
C333 C330 1.403 . S
C333 C334 1.392 . S
C333 C337 1.495 . S
C334 C333 1.392 . S
C334 C335 1.385 . S
C334 C336 1.478 . S
C335 H329 0.930 . S
C335 C331 1.400 . S
C335 C334 1.385 . S
C336 C334 1.478 . S
C336 C338 1.381 . S
C336 C342 1.383 . S
C337 C333 1.495 . S
C337 H343 0.959 . S
C337 H344 0.961 . S
C337 H345 0.960 . S
C338 C336 1.381 . S
C338 C339 1.394 . S
C338 H346 0.930 . S
C339 C338 1.394 . S
C339 C340 1.383 . S
C339 H347 0.929 . S
C340 C339 1.383 . S
C340 C341 1.377 . S
C341 H325 0.930 . S
C341 C340 1.377 . S
C341 C342 1.379 . S
C342 H326 0.931 . S
C342 C336 1.383 . S
C342 C341 1.379 . S
H343 C337 0.959 . S
H344 C337 0.961 . S
H345 C337 0.960 . S
H346 C338 0.930 . S
H347 C339 0.929 . S
H348 C356 0.929 . S
H349 C358 0.930 . S
H350 C360 0.930 . S
H351 C363 0.929 . S
H352 C366 0.930 . S
H353 C368 0.960 . S
H354 C368 0.960 . S
H355 C368 0.960 . S
C356 H348 0.929 . S
C356 C357 1.377 . S
C356 C358 1.384 . S
C357 C356 1.377 . S
C357 C363 1.390 . S
C358 H349 0.930 . S
C358 C356 1.384 . S
C358 C359 1.372 . S
C359 C358 1.372 . S
C359 C360 1.400 . S
C359 C364 1.490 . S
C360 H350 0.930 . S
C360 C359 1.400 . S
C360 C363 1.386 . S
H361 C377 0.930 . S
H362 C378 0.931 . S
C363 H351 0.929 . S
C363 C357 1.390 . S
C363 C360 1.386 . S
C364 C359 1.490 . S
C364 C366 1.395 . S
C364 C367 1.403 1_655 S
H365 C371 0.930 . S
C366 H352 0.930 . S
C366 C364 1.395 . S
C366 C369 1.403 1_655 S
C367 C364 1.403 1_455 S
C367 C368 1.524 . S
C367 C371 1.400 . S
C368 H353 0.960 . S
C368 H354 0.960 . S
C368 H355 0.960 . S
C368 C367 1.524 . S
C369 C366 1.403 1_455 S
C369 C370 1.392 . S
C369 C373 1.495 . S
C370 C369 1.392 . S
C370 C371 1.385 . S
C370 C372 1.478 . S
C371 H365 0.930 . S
C371 C367 1.400 . S
C371 C370 1.385 . S
C372 C370 1.478 . S
C372 C374 1.381 . S
C372 C378 1.383 . S
C373 C369 1.495 . S
C373 H379 0.959 1_455 S
C373 H380 0.962 . S
C373 H381 0.960 . S
C374 C372 1.381 . S
C374 C375 1.394 . S
C374 H382 0.930 . S
C375 C374 1.394 . S
C375 C376 1.383 . S
C375 H383 0.929 . S
C376 C375 1.383 . S
C376 C377 1.377 . S
C377 H361 0.930 . S
C377 C376 1.377 . S
C377 C378 1.379 . S
C378 H362 0.931 . S
C378 C372 1.383 . S
C378 C377 1.379 . S
H379 C373 0.959 1_655 S
H380 C373 0.962 . S
H381 C373 0.960 . S
H382 C374 0.930 . S
H383 C375 0.929 . S
H384 C392 0.929 . S
H385 C394 0.930 . S
H386 C396 0.930 . S
H387 C399 0.929 . S
H388 C402 0.930 . S
H389 C404 0.960 . S
H390 C404 0.960 . S
H391 C404 0.960 . S
C392 H384 0.929 . S
C392 C393 1.377 . S
C392 C394 1.384 . S
C393 C392 1.377 . S
C393 C399 1.390 . S
C394 H385 0.930 . S
C394 C392 1.384 . S
C394 C395 1.372 . S
C395 C394 1.372 . S
C395 C396 1.400 . S
C395 C400 1.490 . S
C396 H386 0.930 . S
C396 C395 1.400 . S
C396 C399 1.386 . S
H397 C413 0.930 . S
H398 C414 0.931 . S
C399 H387 0.929 . S
C399 C393 1.390 . S
C399 C396 1.386 . S
C400 C395 1.490 . S
C400 C402 1.395 . S
C400 C403 1.403 . S
H401 C407 0.930 . S
C402 H388 0.930 . S
C402 C400 1.395 . S
C402 C405 1.403 . S
C403 C400 1.403 . S
C403 C404 1.524 . S
C403 C407 1.400 . S
C404 H389 0.960 . S
C404 H390 0.960 . S
C404 H391 0.960 . S
C404 C403 1.524 . S
C405 C402 1.403 . S
C405 C406 1.392 . S
C405 C409 1.495 . S
C406 C405 1.392 . S
C406 C407 1.385 . S
C406 C408 1.478 . S
C407 H401 0.930 . S
C407 C403 1.400 . S
C407 C406 1.385 . S
C408 C406 1.478 . S
C408 C410 1.381 . S
C408 C414 1.383 . S
C409 C405 1.495 . S
C409 H415 0.959 . S
C409 H416 0.961 . S
C409 H417 0.960 . S
C410 C408 1.381 . S
C410 C411 1.394 . S
C410 H418 0.930 . S
C411 C410 1.394 . S
C411 C412 1.383 . S
C411 H419 0.929 . S
C412 C411 1.383 . S
C412 C413 1.377 . S
C413 H397 0.930 . S
C413 C412 1.377 . S
C413 C414 1.379 . S
C414 H398 0.931 . S
C414 C408 1.383 . S
C414 C413 1.379 . S
H415 C409 0.959 . S
H416 C409 0.961 . S
H417 C409 0.960 . S
H418 C410 0.930 . S
H419 C411 0.929 . S
H420 C428 0.929 . S
H421 C430 0.930 . S
H422 C432 0.930 . S
H423 C435 0.929 . S
H424 C438 0.900 1_455 S
H425 C440 0.960 . S
H426 C440 0.960 . S
H427 C440 0.960 1_455 S
C428 H420 0.929 . S
C428 C429 1.377 . S
C428 C430 1.384 . S
C429 C428 1.377 . S
C429 C435 1.390 . S
C430 H421 0.930 . S
C430 C428 1.384 . S
C430 C431 1.372 . S
C431 C430 1.372 . S
C431 C432 1.400 . S
C431 C436 1.490 . S
C432 H422 0.930 . S
C432 C431 1.400 . S
C432 C435 1.386 . S
H433 C449 0.930 . S
H434 C450 0.931 . S
C435 H423 0.929 . S
C435 C429 1.390 . S
C435 C432 1.386 . S
C436 C431 1.490 . S
C436 C438 1.382 1_465 S
C436 C439 1.403 1_455 S
H437 C443 0.930 . S
C438 H424 0.900 1_655 S
C438 C436 1.382 1_645 S
C438 C441 1.448 . S
C439 C436 1.403 1_655 S
C439 C440 1.524 . S
C439 C443 1.400 . S
C440 H425 0.960 . S
C440 H426 0.960 . S
C440 H427 0.960 1_655 S
C440 C439 1.524 . S
C441 C438 1.448 . S
C441 C442 1.392 . S
C441 C445 1.495 . S
C442 C441 1.392 . S
C442 C443 1.385 1_545 S
C442 C444 1.478 . S
C443 H437 0.930 . S
C443 C439 1.400 . S
C443 C442 1.385 1_565 S
C444 C442 1.478 . S
C444 C446 1.381 . S
C444 C450 1.383 . S
C445 C441 1.495 . S
C445 H451 0.959 . S
C445 H452 0.961 . S
C445 H453 0.960 . S
C446 C444 1.381 . S
C446 C447 1.394 . S
C446 H454 0.930 . S
C447 C446 1.394 . S
C447 C448 1.383 . S
C447 H455 0.929 . S
C448 C447 1.383 . S
C448 C449 1.377 . S
C449 H433 0.930 . S
C449 C448 1.377 . S
C449 C450 1.379 . S
C450 H434 0.931 . S
C450 C444 1.383 . S
C450 C449 1.379 . S
H451 C445 0.959 . S
H452 C445 0.961 . S
H453 C445 0.960 . S
H454 C446 0.930 . S
H455 C447 0.929 . S
H456 C464 0.929 . S
H457 C466 0.930 . S
H458 C468 0.930 . S
H459 C471 0.929 . S
H460 C474 0.930 . S
H461 C476 0.960 . S
H462 C476 0.960 . S
H463 C476 0.960 . S
C464 H456 0.929 . S
C464 C465 1.377 . S
C464 C466 1.384 . S
C465 C464 1.377 . S
C465 C471 1.390 . S
C466 H457 0.930 . S
C466 C464 1.384 . S
C466 C467 1.372 . S
C467 C466 1.372 . S
C467 C468 1.400 . S
C467 C472 1.490 . S
C468 H458 0.930 . S
C468 C467 1.400 . S
C468 C471 1.386 . S
H469 C485 0.930 . S
H470 C486 0.931 . S
C471 H459 0.929 . S
C471 C465 1.390 . S
C471 C468 1.386 . S
C472 C467 1.490 . S
C472 C474 1.395 . S
C472 C475 1.403 . S
H473 C479 0.930 . S
C474 H460 0.930 . S
C474 C472 1.395 . S
C474 C477 1.403 . S
C475 C472 1.403 . S
C475 C476 1.524 . S
C475 C479 1.400 . S
C476 H461 0.960 . S
C476 H462 0.960 . S
C476 H463 0.960 . S
C476 C475 1.524 . S
C477 C474 1.403 . S
C477 C478 1.392 . S
C477 C481 1.495 . S
C478 C477 1.392 . S
C478 C479 1.385 . S
C478 C480 1.478 . S
C479 H473 0.930 . S
C479 C475 1.400 . S
C479 C478 1.385 . S
C480 C478 1.478 . S
C480 C482 1.381 . S
C480 C486 1.383 . S
C481 C477 1.495 . S
C481 H487 0.959 . S
C481 H488 0.961 . S
C481 H489 0.960 . S
C482 C480 1.381 . S
C482 C483 1.394 . S
C482 H490 0.930 . S
C483 C482 1.394 . S
C483 C484 1.383 . S
C483 H491 0.929 . S
C484 C483 1.383 . S
C484 C485 1.377 . S
C485 H469 0.930 . S
C485 C484 1.377 . S
C485 C486 1.379 . S
C486 H470 0.931 . S
C486 C480 1.383 . S
C486 C485 1.379 . S
H487 C481 0.959 . S
H488 C481 0.961 . S
H489 C481 0.960 . S
H490 C482 0.930 . S
H491 C483 0.929 . S
H492 C500 0.929 . S
H493 C502 0.930 . S
H494 C504 0.930 . S
H495 C507 0.929 . S
H496 C510 0.930 . S
H497 C512 0.960 . S
H498 C512 0.960 . S
H499 C512 0.960 . S
C500 H492 0.929 . S
C500 C501 1.377 . S
C500 C502 1.384 . S
C501 C500 1.377 . S
C501 C507 1.390 . S
C502 H493 0.930 . S
C502 C500 1.384 . S
C502 C503 1.372 . S
C503 C502 1.372 . S
C503 C504 1.400 . S
C503 C508 1.490 . S
C504 H494 0.930 . S
C504 C503 1.400 . S
C504 C507 1.386 . S
H505 C521 0.930 . S
H506 C522 0.931 . S
C507 H495 0.929 . S
C507 C501 1.390 . S
C507 C504 1.386 . S
C508 C503 1.490 . S
C508 C510 1.395 . S
C508 C511 1.403 . S
H509 C515 0.930 . S
C510 H496 0.930 . S
C510 C508 1.395 . S
C510 C513 1.403 . S
C511 C508 1.403 . S
C511 C512 1.524 . S
C511 C515 1.400 . S
C512 H497 0.960 . S
C512 H498 0.960 . S
C512 H499 0.960 . S
C512 C511 1.524 . S
C513 C510 1.403 . S
C513 C514 1.392 . S
C513 C517 1.495 . S
C514 C513 1.392 . S
C514 C515 1.385 . S
C514 C516 1.478 . S
C515 H509 0.930 . S
C515 C511 1.400 . S
C515 C514 1.385 . S
C516 C514 1.478 . S
C516 C518 1.381 . S
C516 C522 1.383 . S
C517 C513 1.495 . S
C517 H523 0.959 . S
C517 H524 0.961 . S
C517 H525 0.960 . S
C518 C516 1.381 . S
C518 C519 1.394 . S
C518 H526 0.930 . S
C519 C518 1.394 . S
C519 C520 1.383 . S
C519 H527 0.929 . S
C520 C519 1.383 . S
C520 C521 1.377 . S
C521 H505 0.930 . S
C521 C520 1.377 . S
C521 C522 1.379 . S
C522 H506 0.931 . S
C522 C516 1.383 . S
C522 C521 1.379 . S
H523 C517 0.959 . S
H524 C517 0.961 . S
H525 C517 0.960 . S
H526 C518 0.930 . S
H527 C519 0.929 . S
H528 C536 0.929 . S
H529 C538 0.930 . S
H530 C540 0.930 . S
H531 C543 0.929 . S
H532 C546 0.930 . S
H533 C548 0.960 . S
H534 C548 0.960 . S
H535 C548 0.960 . S
C536 H528 0.929 . S
C536 C537 1.377 . S
C536 C538 1.384 . S
C537 C536 1.377 . S
C537 C543 1.390 . S
C538 H529 0.930 . S
C538 C536 1.384 . S
C538 C539 1.372 . S
C539 C538 1.372 . S
C539 C540 1.400 . S
C539 C544 1.490 . S
C540 H530 0.930 . S
C540 C539 1.400 . S
C540 C543 1.386 . S
H541 C557 0.930 . S
H542 C558 0.931 . S
C543 H531 0.929 . S
C543 C537 1.390 . S
C543 C540 1.386 . S
C544 C539 1.490 . S
C544 C546 1.395 . S
C544 C547 1.403 . S
H545 C551 0.930 . S
C546 H532 0.930 . S
C546 C544 1.395 . S
C546 C549 1.403 . S
C547 C544 1.403 . S
C547 C548 1.524 . S
C547 C551 1.400 . S
C548 H533 0.960 . S
C548 H534 0.960 . S
C548 H535 0.960 . S
C548 C547 1.524 . S
C549 C546 1.403 . S
C549 C550 1.392 . S
C549 C553 1.495 . S
C550 C549 1.392 . S
C550 C551 1.385 . S
C550 C552 1.478 . S
C551 H545 0.930 . S
C551 C547 1.400 . S
C551 C550 1.385 . S
C552 C550 1.478 . S
C552 C554 1.381 . S
C552 C558 1.383 . S
C553 C549 1.495 . S
C553 H559 0.959 . S
C553 H560 0.961 . S
C553 H561 0.960 . S
C554 C552 1.381 . S
C554 C555 1.394 . S
C554 H562 0.930 . S
C555 C554 1.394 . S
C555 C556 1.383 . S
C555 H563 0.929 . S
C556 C555 1.383 . S
C556 C557 1.377 . S
C557 H541 0.930 . S
C557 C556 1.377 . S
C557 C558 1.379 . S
C558 H542 0.931 . S
C558 C552 1.383 . S
C558 C557 1.379 . S
H559 C553 0.959 . S
H560 C553 0.961 . S
H561 C553 0.960 . S
H562 C554 0.930 . S
H563 C555 0.929 . S
H564 C572 0.929 . S
H565 C574 0.930 . S
H566 C576 0.930 . S
H567 C579 0.929 . S
H568 C582 0.930 . S
H569 C584 0.960 . S
H570 C584 0.960 . S
H571 C584 0.960 . S
C572 H564 0.929 . S
C572 C573 1.377 . S
C572 C574 1.384 . S
C573 C572 1.377 . S
C573 C579 1.390 . S
C574 H565 0.930 . S
C574 C572 1.384 . S
C574 C575 1.372 . S
C575 C574 1.372 . S
C575 C576 1.400 . S
C575 C580 1.490 . S
C576 H566 0.930 . S
C576 C575 1.400 . S
C576 C579 1.386 . S
H577 C593 0.930 . S
H578 C594 0.931 . S
C579 H567 0.929 . S
C579 C573 1.390 . S
C579 C576 1.386 . S
C580 C575 1.490 . S
C580 C582 1.395 . S
C580 C583 1.403 . S
H581 C587 0.930 . S
C582 H568 0.930 . S
C582 C580 1.395 . S
C582 C585 1.403 . S
C583 C580 1.403 . S
C583 C584 1.524 . S
C583 C587 1.400 . S
C584 H569 0.960 . S
C584 H570 0.960 . S
C584 H571 0.960 . S
C584 C583 1.524 . S
C585 C582 1.403 . S
C585 C586 1.392 . S
C585 C589 1.495 . S
C586 C585 1.392 . S
C586 C587 1.385 . S
C586 C588 1.478 . S
C587 H581 0.930 . S
C587 C583 1.400 . S
C587 C586 1.385 . S
C588 C586 1.478 . S
C588 C590 1.381 . S
C588 C594 1.383 . S
C589 C585 1.495 . S
C589 H595 0.959 . S
C589 H596 0.961 . S
C589 H597 0.960 . S
C590 C588 1.381 . S
C590 C591 1.394 . S
C590 H598 0.930 . S
C591 C590 1.394 . S
C591 C592 1.383 . S
C591 H599 0.929 . S
C592 C591 1.383 . S
C592 C593 1.377 . S
C593 H577 0.930 . S
C593 C592 1.377 . S
C593 C594 1.379 . S
C594 H578 0.931 . S
C594 C588 1.383 . S
C594 C593 1.379 . S
H595 C589 0.959 . S
H596 C589 0.961 . S
H597 C589 0.960 . S
H598 C590 0.930 . S
H599 C591 0.929 . S
H600 C608 0.929 . S
H601 C610 0.930 . S
H602 C612 0.930 . S
H603 C615 0.929 . S
H604 C618 0.930 . S
H605 C620 0.960 . S
H606 C620 0.960 . S
H607 C620 0.960 . S
C608 H600 0.929 . S
C608 C609 1.377 . S
C608 C610 1.384 . S
C609 C608 1.377 . S
C609 C615 1.390 . S
C610 H601 0.930 . S
C610 C608 1.384 . S
C610 C611 1.372 . S
C611 C610 1.372 . S
C611 C612 1.400 . S
C611 C616 1.490 . S
C612 H602 0.930 . S
C612 C611 1.400 . S
C612 C615 1.386 . S
H613 C629 0.930 . S
H614 C630 0.931 . S
C615 H603 0.929 . S
C615 C609 1.390 . S
C615 C612 1.386 . S
C616 C611 1.490 . S
C616 C618 1.395 . S
C616 C619 1.403 . S
H617 C623 0.930 . S
C618 H604 0.930 . S
C618 C616 1.395 . S
C618 C621 1.403 . S
C619 C616 1.403 . S
C619 C620 1.524 . S
C619 C623 1.400 . S
C620 H605 0.960 . S
C620 H606 0.960 . S
C620 H607 0.960 . S
C620 C619 1.524 . S
C621 C618 1.403 . S
C621 C622 1.392 . S
C621 C625 1.495 . S
C622 C621 1.392 . S
C622 C623 1.385 . S
C622 C624 1.478 . S
C623 H617 0.930 . S
C623 C619 1.400 . S
C623 C622 1.385 . S
C624 C622 1.478 . S
C624 C626 1.381 . S
C624 C630 1.383 . S
C625 C621 1.495 . S
C625 H631 0.959 . S
C625 H632 0.961 . S
C625 H633 0.960 . S
C626 C624 1.381 . S
C626 C627 1.394 . S
C626 H634 0.930 . S
C627 C626 1.394 . S
C627 C628 1.383 . S
C627 H635 0.929 . S
C628 C627 1.383 . S
C628 C629 1.377 . S
C629 H613 0.930 . S
C629 C628 1.377 . S
C629 C630 1.379 . S
C630 H614 0.931 . S
C630 C624 1.383 . S
C630 C629 1.379 . S
H631 C625 0.959 . S
H632 C625 0.961 . S
H633 C625 0.960 . S
H634 C626 0.930 . S
H635 C627 0.929 . S
H636 C644 0.929 . S
H637 C646 0.930 . S
H638 C648 0.930 . S
H639 C651 0.929 . S
H640 C654 0.930 . S
H641 C656 0.960 . S
H642 C656 0.960 . S
H643 C656 0.960 . S
C644 H636 0.929 . S
C644 C645 1.377 . S
C644 C646 1.384 . S
C645 C644 1.377 . S
C645 C651 1.390 . S
C646 H637 0.930 . S
C646 C644 1.384 . S
C646 C647 1.372 . S
C647 C646 1.372 . S
C647 C648 1.400 . S
C647 C652 1.490 . S
C648 H638 0.930 . S
C648 C647 1.400 . S
C648 C651 1.386 . S
H649 C665 0.930 . S
H650 C666 0.931 . S
C651 H639 0.929 . S
C651 C645 1.390 . S
C651 C648 1.386 . S
C652 C647 1.490 . S
C652 C654 1.395 . S
C652 C655 1.403 . S
H653 C659 0.930 . S
C654 H640 0.930 . S
C654 C652 1.395 . S
C654 C657 1.403 . S
C655 C652 1.403 . S
C655 C656 1.524 . S
C655 C659 1.400 . S
C656 H641 0.960 . S
C656 H642 0.960 . S
C656 H643 0.960 . S
C656 C655 1.524 . S
C657 C654 1.403 . S
C657 C658 1.392 . S
C657 C661 1.495 . S
C658 C657 1.392 . S
C658 C659 1.385 . S
C658 C660 1.478 . S
C659 H653 0.930 . S
C659 C655 1.400 . S
C659 C658 1.385 . S
C660 C658 1.478 . S
C660 C662 1.381 . S
C660 C666 1.383 . S
C661 C657 1.495 . S
C661 H667 0.959 . S
C661 H668 0.961 . S
C661 H669 0.960 . S
C662 C660 1.381 . S
C662 C663 1.394 . S
C662 H670 0.930 . S
C663 C662 1.394 . S
C663 C664 1.383 . S
C663 H671 0.929 . S
C664 C663 1.383 . S
C664 C665 1.377 . S
C665 H649 0.930 . S
C665 C664 1.377 . S
C665 C666 1.379 . S
C666 H650 0.931 . S
C666 C660 1.383 . S
C666 C665 1.379 . S
H667 C661 0.959 . S
H668 C661 0.961 . S
H669 C661 0.960 . S
H670 C662 0.930 . S
H671 C663 0.929 . S
H672 C680 0.929 . S
H673 C682 0.930 . S
H674 C684 0.930 . S
H675 C687 0.929 . S
H676 C690 0.930 . S
H677 C692 0.960 . S
H678 C692 0.960 . S
H679 C692 0.960 . S
C680 H672 0.929 . S
C680 C681 1.377 . S
C680 C682 1.384 . S
C681 C680 1.377 . S
C681 C687 1.390 . S
C682 H673 0.930 . S
C682 C680 1.384 . S
C682 C683 1.372 . S
C683 C682 1.372 . S
C683 C684 1.400 . S
C683 C688 1.490 . S
C684 H674 0.930 . S
C684 C683 1.400 . S
C684 C687 1.386 . S
H685 C701 0.930 . S
H686 C702 0.931 . S
C687 H675 0.929 . S
C687 C681 1.390 . S
C687 C684 1.386 . S
C688 C683 1.490 . S
C688 C690 1.395 . S
C688 C691 1.403 . S
H689 C695 0.930 . S
C690 H676 0.930 . S
C690 C688 1.395 . S
C690 C693 1.403 . S
C691 C688 1.403 . S
C691 C692 1.524 . S
C691 C695 1.400 . S
C692 H677 0.960 . S
C692 H678 0.960 . S
C692 H679 0.960 . S
C692 C691 1.524 . S
C693 C690 1.403 . S
C693 C694 1.392 . S
C693 C697 1.495 . S
C694 C693 1.392 . S
C694 C695 1.385 . S
C694 C696 1.478 . S
C695 H689 0.930 . S
C695 C691 1.400 . S
C695 C694 1.385 . S
C696 C694 1.478 . S
C696 C698 1.381 . S
C696 C702 1.383 . S
C697 C693 1.495 . S
C697 H703 0.959 . S
C697 H704 0.961 . S
C697 H705 0.960 . S
C698 C696 1.381 . S
C698 C699 1.394 . S
C698 H706 0.930 . S
C699 C698 1.394 . S
C699 C700 1.383 . S
C699 H707 0.929 . S
C700 C699 1.383 . S
C700 C701 1.377 . S
C701 H685 0.930 . S
C701 C700 1.377 . S
C701 C702 1.379 . S
C702 H686 0.931 . S
C702 C696 1.383 . S
C702 C701 1.379 . S
H703 C697 0.959 . S
H704 C697 0.961 . S
H705 C697 0.960 . S
H706 C698 0.930 . S
H707 C699 0.929 . S
H708 C716 0.929 . S
H709 C718 0.930 . S
H710 C720 0.930 . S
H711 C723 0.929 . S
H712 C726 0.930 . S
H713 C728 0.960 . S
H714 C728 0.960 . S
H715 C728 0.960 . S
C716 H708 0.929 . S
C716 C717 1.377 . S
C716 C718 1.384 . S
C717 C716 1.377 . S
C717 C723 1.390 . S
C718 H709 0.930 . S
C718 C716 1.384 . S
C718 C719 1.372 . S
C719 C718 1.372 . S
C719 C720 1.400 . S
C719 C724 1.490 . S
C720 H710 0.930 . S
C720 C719 1.400 . S
C720 C723 1.386 . S
H721 C737 0.930 . S
H722 C738 0.931 . S
C723 H711 0.929 . S
C723 C717 1.390 . S
C723 C720 1.386 . S
C724 C719 1.490 . S
C724 C726 1.395 . S
C724 C727 1.403 . S
H725 C731 0.930 . S
C726 H712 0.930 . S
C726 C724 1.395 . S
C726 C729 1.403 . S
C727 C724 1.403 . S
C727 C728 1.524 . S
C727 C731 1.400 . S
C728 H713 0.960 . S
C728 H714 0.960 . S
C728 H715 0.960 . S
C728 C727 1.524 . S
C729 C726 1.403 . S
C729 C730 1.392 . S
C729 C733 1.495 . S
C730 C729 1.392 . S
C730 C731 1.385 . S
C730 C732 1.478 . S
C731 H725 0.930 . S
C731 C727 1.400 . S
C731 C730 1.385 . S
C732 C730 1.478 . S
C732 C734 1.381 . S
C732 C738 1.383 . S
C733 C729 1.495 . S
C733 H739 0.959 . S
C733 H740 0.961 . S
C733 H741 0.960 . S
C734 C732 1.381 . S
C734 C735 1.394 . S
C734 H742 0.930 . S
C735 C734 1.394 . S
C735 C736 1.383 . S
C735 H743 0.929 . S
C736 C735 1.383 . S
C736 C737 1.377 . S
C737 H721 0.930 . S
C737 C736 1.377 . S
C737 C738 1.379 . S
C738 H722 0.931 . S
C738 C732 1.383 . S
C738 C737 1.379 . S
H739 C733 0.959 . S
H740 C733 0.961 . S
H741 C733 0.960 . S
H742 C734 0.930 . S
H743 C735 0.929 . S
H744 C752 0.929 . S
H745 C754 0.930 . S
H746 C756 0.930 . S
H747 C759 0.929 . S
H748 C762 0.930 . S
H749 C764 0.960 . S
H750 C764 0.960 . S
H751 C764 0.960 . S
C752 H744 0.929 . S
C752 C753 1.377 . S
C752 C754 1.384 . S
C753 C752 1.377 . S
C753 C759 1.390 . S
C754 H745 0.930 . S
C754 C752 1.384 . S
C754 C755 1.372 . S
C755 C754 1.372 . S
C755 C756 1.400 . S
C755 C760 1.490 . S
C756 H746 0.930 . S
C756 C755 1.400 . S
C756 C759 1.386 . S
H757 C773 0.930 . S
H758 C774 0.931 . S
C759 H747 0.929 . S
C759 C753 1.390 . S
C759 C756 1.386 . S
C760 C755 1.490 . S
C760 C762 1.395 . S
C760 C763 1.403 . S
H761 C767 0.930 . S
C762 H748 0.930 . S
C762 C760 1.395 . S
C762 C765 1.403 . S
C763 C760 1.403 . S
C763 C764 1.524 . S
C763 C767 1.400 . S
C764 H749 0.960 . S
C764 H750 0.960 . S
C764 H751 0.960 . S
C764 C763 1.524 . S
C765 C762 1.403 . S
C765 C766 1.392 . S
C765 C769 1.495 . S
C766 C765 1.392 . S
C766 C767 1.385 . S
C766 C768 1.478 . S
C767 H761 0.930 . S
C767 C763 1.400 . S
C767 C766 1.385 . S
C768 C766 1.478 . S
C768 C770 1.381 . S
C768 C774 1.383 . S
C769 C765 1.495 . S
C769 H775 0.959 . S
C769 H776 0.961 . S
C769 H777 0.960 . S
C770 C768 1.381 . S
C770 C771 1.394 . S
C770 H778 0.930 . S
C771 C770 1.394 . S
C771 C772 1.383 . S
C771 H779 0.929 . S
C772 C771 1.383 . S
C772 C773 1.377 . S
C773 H757 0.930 . S
C773 C772 1.377 . S
C773 C774 1.379 . S
C774 H758 0.931 . S
C774 C768 1.383 . S
C774 C773 1.379 . S
H775 C769 0.959 . S
H776 C769 0.961 . S
H777 C769 0.960 . S
H778 C770 0.930 . S
H779 C771 0.929 . S
H780 C788 0.929 . S
H781 C790 0.930 . S
H782 C792 0.930 . S
H783 C795 0.929 . S
H784 C798 0.930 . S
H785 C800 0.960 . S
H786 C800 0.960 . S
H787 C800 0.960 . S
C788 H780 0.929 . S
C788 C789 1.377 . S
C788 C790 1.384 . S
C789 C788 1.377 . S
C789 C795 1.390 . S
C790 H781 0.930 . S
C790 C788 1.384 . S
C790 C791 1.372 . S
C791 C790 1.372 . S
C791 C792 1.400 . S
C791 C796 1.490 . S
C792 H782 0.930 . S
C792 C791 1.400 . S
C792 C795 1.386 . S
H793 C809 0.930 . S
H794 C810 0.931 . S
C795 H783 0.929 . S
C795 C789 1.390 . S
C795 C792 1.386 . S
C796 C791 1.490 . S
C796 C798 1.395 . S
C796 C799 1.403 . S
H797 C803 0.930 . S
C798 H784 0.930 . S
C798 C796 1.395 . S
C798 C801 1.403 . S
C799 C796 1.403 . S
C799 C800 1.524 . S
C799 C803 1.400 . S
C800 H785 0.960 . S
C800 H786 0.960 . S
C800 H787 0.960 . S
C800 C799 1.524 . S
C801 C798 1.403 . S
C801 C802 1.392 . S
C801 C805 1.495 . S
C802 C801 1.392 . S
C802 C803 1.385 . S
C802 C804 1.478 . S
C803 H797 0.930 . S
C803 C799 1.400 . S
C803 C802 1.385 . S
C804 C802 1.478 . S
C804 C806 1.381 . S
C804 C810 1.383 . S
C805 C801 1.495 . S
C805 H811 0.959 . S
C805 H812 0.961 . S
C805 H813 0.960 . S
C806 C804 1.381 . S
C806 C807 1.394 . S
C806 H814 0.930 . S
C807 C806 1.394 . S
C807 C808 1.383 . S
C807 H815 0.929 . S
C808 C807 1.383 . S
C808 C809 1.377 . S
C809 H793 0.930 . S
C809 C808 1.377 . S
C809 C810 1.379 . S
C810 H794 0.931 . S
C810 C804 1.383 . S
C810 C809 1.379 . S
H811 C805 0.959 . S
H812 C805 0.961 . S
H813 C805 0.960 . S
H814 C806 0.930 . S
H815 C807 0.929 . S
H816 C824 0.929 . S
H817 C826 0.930 . S
H818 C828 0.930 . S
H819 C831 0.929 . S
H820 C834 0.930 . S
H821 C836 0.960 . S
H822 C836 0.960 . S
H823 C836 0.960 . S
C824 H816 0.929 . S
C824 C825 1.377 . S
C824 C826 1.384 . S
C825 C824 1.377 . S
C825 C831 1.390 . S
C826 H817 0.930 . S
C826 C824 1.384 . S
C826 C827 1.372 . S
C827 C826 1.372 . S
C827 C828 1.400 . S
C827 C832 1.490 . S
C828 H818 0.930 . S
C828 C827 1.400 . S
C828 C831 1.386 . S
H829 C845 0.930 . S
H830 C846 0.931 . S
C831 H819 0.929 . S
C831 C825 1.390 . S
C831 C828 1.386 . S
C832 C827 1.490 . S
C832 C834 1.395 . S
C832 C835 1.403 . S
H833 C839 0.930 . S
C834 H820 0.930 . S
C834 C832 1.395 . S
C834 C837 1.403 . S
C835 C832 1.403 . S
C835 C836 1.524 . S
C835 C839 1.400 . S
C836 H821 0.960 . S
C836 H822 0.960 . S
C836 H823 0.960 . S
C836 C835 1.524 . S
C837 C834 1.403 . S
C837 C838 1.392 . S
C837 C841 1.495 . S
C838 C837 1.392 . S
C838 C839 1.385 . S
C838 C840 1.478 . S
C839 H833 0.930 . S
C839 C835 1.400 . S
C839 C838 1.385 . S
C840 C838 1.478 . S
C840 C842 1.381 . S
C840 C846 1.383 . S
C841 C837 1.495 . S
C841 H847 0.959 . S
C841 H848 0.961 . S
C841 H849 0.960 . S
C842 C840 1.381 . S
C842 C843 1.394 . S
C842 H850 0.930 . S
C843 C842 1.394 . S
C843 C844 1.383 . S
C843 H851 0.929 . S
C844 C843 1.383 . S
C844 C845 1.377 . S
C845 H829 0.930 . S
C845 C844 1.377 . S
C845 C846 1.379 . S
C846 H830 0.931 . S
C846 C840 1.383 . S
C846 C845 1.379 . S
H847 C841 0.959 . S
H848 C841 0.961 . S
H849 C841 0.960 . S
H850 C842 0.930 . S
H851 C843 0.929 . S
H852 C860 0.929 . S
H853 C862 0.930 . S
H854 C864 0.930 . S
H855 C867 0.929 . S
H856 C870 0.930 . S
H857 C872 0.960 . S
H858 C872 0.960 . S
H859 C872 0.960 . S
C860 H852 0.929 . S
C860 C861 1.377 . S
C860 C862 1.384 . S
C861 C860 1.377 . S
C861 C867 1.390 . S
C862 H853 0.930 . S
C862 C860 1.384 . S
C862 C863 1.372 . S
C863 C862 1.372 . S
C863 C864 1.400 . S
C863 C868 1.490 . S
C864 H854 0.930 . S
C864 C863 1.400 . S
C864 C867 1.386 . S
H865 C881 0.930 1_455 S
H866 C882 0.931 . S
C867 H855 0.929 . S
C867 C861 1.390 . S
C867 C864 1.386 . S
C868 C863 1.490 . S
C868 C870 1.395 . S
C868 C871 1.403 . S
H869 C875 0.930 . S
C870 H856 0.930 . S
C870 C868 1.395 . S
C870 C873 1.403 . S
C871 C868 1.403 . S
C871 C872 1.524 . S
C871 C875 1.400 . S
C872 H857 0.960 . S
C872 H858 0.960 . S
C872 H859 0.960 . S
C872 C871 1.524 . S
C873 C870 1.403 . S
C873 C874 1.392 . S
C873 C877 1.495 . S
C874 C873 1.392 . S
C874 C875 1.385 . S
C874 C876 1.478 . S
C875 H869 0.930 . S
C875 C871 1.400 . S
C875 C874 1.385 . S
C876 C874 1.478 . S
C876 C878 1.381 . S
C876 C882 1.383 . S
C877 C873 1.495 . S
C877 H883 0.959 . S
C877 H884 0.961 . S
C877 H885 0.960 . S
C878 C876 1.381 . S
C878 C879 1.394 . S
C878 H886 0.930 . S
C879 C878 1.394 . S
C879 C880 1.383 . S
C879 H887 0.929 . S
C880 C879 1.383 . S
C880 C881 1.377 . S
C881 H865 0.930 1_655 S
C881 C880 1.377 . S
C881 C882 1.379 . S
C882 H866 0.931 . S
C882 C876 1.383 . S
C882 C881 1.379 . S
H883 C877 0.959 . S
H884 C877 0.961 . S
H885 C877 0.960 . S
H886 C878 0.930 . S
H887 C879 0.929 . S
H888 C896 0.929 . S
H889 C898 0.930 . S
H890 C900 0.930 . S
H891 C903 0.929 . S
H892 C906 0.930 . S
H893 C908 0.960 . S
H894 C908 0.960 . S
H895 C908 0.960 . S
C896 H888 0.929 . S
C896 C897 1.377 . S
C896 C898 1.384 . S
C897 C896 1.377 . S
C897 C903 1.390 . S
C898 H889 0.930 . S
C898 C896 1.384 . S
C898 C899 1.372 . S
C899 C898 1.372 . S
C899 C900 1.400 . S
C899 C904 1.490 . S
C900 H890 0.930 . S
C900 C899 1.400 . S
C900 C903 1.386 . S
H901 C917 0.930 . S
H902 C918 0.931 . S
C903 H891 0.929 . S
C903 C897 1.390 . S
C903 C900 1.386 . S
C904 C899 1.490 . S
C904 C906 1.395 . S
C904 C907 1.403 . S
H905 C911 0.930 . S
C906 H892 0.930 . S
C906 C904 1.395 . S
C906 C909 1.403 . S
C907 C904 1.403 . S
C907 C908 1.524 . S
C907 C911 1.400 . S
C908 H893 0.960 . S
C908 H894 0.960 . S
C908 H895 0.960 . S
C908 C907 1.524 . S
C909 C906 1.403 . S
C909 C910 1.392 . S
C909 C913 1.495 . S
C910 C909 1.392 . S
C910 C911 1.385 . S
C910 C912 1.478 . S
C911 H905 0.930 . S
C911 C907 1.400 . S
C911 C910 1.385 . S
C912 C910 1.478 . S
C912 C914 1.381 . S
C912 C918 1.383 . S
C913 C909 1.495 . S
C913 H919 0.959 . S
C913 H920 0.961 . S
C913 H921 0.960 . S
C914 C912 1.381 . S
C914 C915 1.394 1_565 S
C914 H922 0.930 . S
C915 C914 1.394 1_545 S
C915 C916 1.383 . S
C915 H923 0.929 . S
C916 C915 1.383 . S
C916 C917 1.377 1_545 S
C917 H901 0.930 . S
C917 C916 1.377 1_565 S
C917 C918 1.379 . S
C918 H902 0.931 . S
C918 C912 1.383 . S
C918 C917 1.379 . S
H919 C913 0.959 . S
H920 C913 0.961 . S
H921 C913 0.960 . S
H922 C914 0.930 . S
H923 C915 0.929 . S
H924 C932 0.929 . S
H925 C934 0.930 . S
H926 C936 0.930 . S
H927 C939 0.929 . S
H928 C942 0.930 . S
H929 C944 0.960 . S
H930 C944 0.960 . S
H931 C944 0.960 . S
C932 H924 0.929 . S
C932 C933 1.377 . S
C932 C934 1.384 . S
C933 C932 1.377 . S
C933 C939 1.390 . S
C934 H925 0.930 . S
C934 C932 1.384 . S
C934 C935 1.372 . S
C935 C934 1.372 . S
C935 C936 1.400 . S
C935 C940 1.490 . S
C936 H926 0.930 . S
C936 C935 1.400 . S
C936 C939 1.386 . S
H937 C953 0.930 . S
H938 C954 0.931 . S
C939 H927 0.929 . S
C939 C933 1.390 . S
C939 C936 1.386 . S
C940 C935 1.490 . S
C940 C942 1.395 . S
C940 C943 1.403 . S
H941 C947 0.930 . S
C942 H928 0.930 . S
C942 C940 1.395 . S
C942 C945 1.403 . S
C943 C940 1.403 . S
C943 C944 1.524 . S
C943 C947 1.400 . S
C944 H929 0.960 . S
C944 H930 0.960 . S
C944 H931 0.960 . S
C944 C943 1.524 . S
C945 C942 1.403 . S
C945 C946 1.392 . S
C945 C949 1.495 . S
C946 C945 1.392 . S
C946 C947 1.385 . S
C946 C948 1.478 . S
C947 H941 0.930 . S
C947 C943 1.400 . S
C947 C946 1.385 . S
C948 C946 1.478 . S
C948 C950 1.381 . S
C948 C954 1.383 . S
C949 C945 1.495 . S
C949 H955 0.959 . S
C949 H956 0.961 . S
C949 H957 0.960 . S
C950 C948 1.381 . S
C950 C951 1.394 . S
C950 H958 0.930 . S
C951 C950 1.394 . S
C951 C952 1.383 . S
C951 H959 0.929 . S
C952 C951 1.383 . S
C952 C953 1.377 . S
C953 H937 0.930 . S
C953 C952 1.377 . S
C953 C954 1.379 . S
C954 H938 0.931 . S
C954 C948 1.383 . S
C954 C953 1.379 . S
H955 C949 0.959 . S
H956 C949 0.961 . S
H957 C949 0.960 . S
H958 C950 0.930 . S
H959 C951 0.929 . S
H960 C968 0.929 . S
H961 C970 0.930 . S
H962 C972 0.930 . S
H963 C975 0.929 . S
H964 C978 0.930 . S
H965 C980 0.960 1_554 S
H966 C980 0.960 . S
H967 C980 0.960 . S
C968 H960 0.929 . S
C968 C969 1.377 . S
C968 C970 1.384 . S
C969 C968 1.377 . S
C969 C975 1.390 . S
C970 H961 0.930 . S
C970 C968 1.384 . S
C970 C971 1.372 . S
C971 C970 1.372 . S
C971 C972 1.400 . S
C971 C976 1.490 . S
C972 H962 0.930 . S
C972 C971 1.400 . S
C972 C975 1.386 . S
H973 C989 0.930 . S
H974 C990 0.931 . S
C975 H963 0.929 . S
C975 C969 1.390 . S
C975 C972 1.386 . S
C976 C971 1.490 . S
C976 C978 1.395 . S
C976 C979 1.403 . S
H977 C983 0.930 1_554 S
C978 H964 0.930 . S
C978 C976 1.395 . S
C978 C981 1.403 1_545 S
C979 C976 1.403 . S
C979 C980 1.524 . S
C979 C983 1.400 . S
C980 H965 0.960 1_556 S
C980 H966 0.960 . S
C980 H967 0.960 . S
C980 C979 1.524 . S
C981 C978 1.403 1_565 S
C981 C982 1.392 . S
C981 C985 1.495 . S
C982 C981 1.392 . S
C982 C983 1.385 1_565 S
C982 C984 1.478 . S
C983 H977 0.930 1_556 S
C983 C979 1.400 . S
C983 C982 1.385 1_545 S
C984 C982 1.478 . S
C984 C986 1.381 . S
C984 C990 1.383 1_556 S
C985 C981 1.495 . S
C985 H991 0.959 . S
C985 H992 0.961 . S
C985 H993 0.960 . S
C986 C984 1.381 . S
C986 C987 1.394 . S
C986 H994 0.930 . S
C987 C986 1.394 . S
C987 C988 1.383 1_556 S
C987 H995 0.929 . S
C988 C987 1.383 1_554 S
C988 C989 1.377 . S
C989 H973 0.930 . S
C989 C988 1.377 . S
C989 C990 1.379 . S
C990 H974 0.931 . S
C990 C984 1.383 1_554 S
C990 C989 1.379 . S
H991 C985 0.959 . S
H992 C985 0.961 . S
H993 C985 0.960 . S
H994 C986 0.930 . S
H995 C987 0.929 . S
H996 C1004 0.929 . S
H997 C1006 0.930 . S
H998 C1008 0.930 . S
H999 C1011 0.929 . S
H1000 C1014 0.930 . S
H1001 C1016 0.960 . S
H1002 C1016 0.960 . S
H1003 C1016 0.960 . S
C1004 H996 0.929 . S
C1004 C1005 1.377 . S
C1004 C1006 1.384 . S
C1005 C1004 1.377 . S
C1005 C1011 1.390 . S
C1006 H997 0.930 . S
C1006 C1004 1.384 . S
C1006 C1007 1.372 . S
C1007 C1006 1.372 . S
C1007 C1008 1.400 . S
C1007 C1012 1.490 . S
C1008 H998 0.930 . S
C1008 C1007 1.400 . S
C1008 C1011 1.386 . S
H1009 C1025 0.930 . S
H1010 C1026 0.931 . S
C1011 H999 0.929 . S
C1011 C1005 1.390 . S
C1011 C1008 1.386 . S
C1012 C1007 1.490 . S
C1012 C1014 1.395 . S
C1012 C1015 1.403 . S
H1013 C1019 0.930 . S
C1014 H1000 0.930 . S
C1014 C1012 1.395 . S
C1014 C1017 1.403 . S
C1015 C1012 1.403 . S
C1015 C1016 1.524 . S
C1015 C1019 1.400 . S
C1016 H1001 0.960 . S
C1016 H1002 0.960 . S
C1016 H1003 0.960 . S
C1016 C1015 1.524 . S
C1017 C1014 1.403 . S
C1017 C1018 1.392 . S
C1017 C1021 1.495 . S
C1018 C1017 1.392 . S
C1018 C1019 1.385 . S
C1018 C1020 1.478 . S
C1019 H1013 0.930 . S
C1019 C1015 1.400 . S
C1019 C1018 1.385 . S
C1020 C1018 1.478 . S
C1020 C1022 1.381 . S
C1020 C1026 1.383 . S
C1021 C1017 1.495 . S
C1021 H1027 0.959 . S
C1021 H1028 0.961 . S
C1021 H1029 0.960 . S
C1022 C1020 1.381 . S
C1022 C1023 1.394 . S
C1022 H1030 0.930 . S
C1023 C1022 1.394 . S
C1023 C1024 1.383 . S
C1023 H1031 0.929 . S
C1024 C1023 1.383 . S
C1024 C1025 1.377 . S
C1025 H1009 0.930 . S
C1025 C1024 1.377 . S
C1025 C1026 1.379 . S
C1026 H1010 0.931 . S
C1026 C1020 1.383 . S
C1026 C1025 1.379 . S
H1027 C1021 0.959 . S
H1028 C1021 0.961 . S
H1029 C1021 0.960 . S
H1030 C1022 0.930 . S
H1031 C1023 0.929 . S
H1032 C1040 0.929 . S
H1033 C1042 0.930 . S
H1034 C1044 0.930 . S
H1035 C1047 0.929 . S
H1036 C1050 0.930 . S
H1037 C1052 0.960 . S
H1038 C1052 0.960 1_565 S
H1039 C1052 0.960 . S
C1040 H1032 0.929 . S
C1040 C1041 1.377 . S
C1040 C1042 1.384 1_565 S
C1041 C1040 1.377 . S
C1041 C1047 1.390 . S
C1042 H1033 0.930 . S
C1042 C1040 1.384 1_545 S
C1042 C1043 1.372 . S
C1043 C1042 1.372 . S
C1043 C1044 1.400 . S
C1043 C1048 1.490 . S
C1044 H1034 0.930 . S
C1044 C1043 1.400 . S
C1044 C1047 1.386 1_545 S
H1045 C1061 0.930 . S
H1046 C1062 0.931 . S
C1047 H1035 0.929 . S
C1047 C1041 1.390 . S
C1047 C1044 1.386 1_565 S
C1048 C1043 1.490 . S
C1048 C1050 1.395 . S
C1048 C1051 1.403 . S
H1049 C1055 0.930 . S
C1050 H1036 0.930 . S
C1050 C1048 1.395 . S
C1050 C1053 1.403 . S
C1051 C1048 1.403 . S
C1051 C1052 1.524 . S
C1051 C1055 1.400 . S
C1052 H1037 0.960 . S
C1052 H1038 0.960 1_545 S
C1052 H1039 0.960 . S
C1052 C1051 1.524 . S
C1053 C1050 1.403 . S
C1053 C1054 1.392 . S
C1053 C1057 1.495 . S
C1054 C1053 1.392 . S
C1054 C1055 1.385 . S
C1054 C1056 1.478 . S
C1055 H1049 0.930 . S
C1055 C1051 1.400 . S
C1055 C1054 1.385 . S
C1056 C1054 1.478 . S
C1056 C1058 1.381 . S
C1056 C1062 1.383 . S
C1057 C1053 1.495 . S
C1057 H1063 0.959 . S
C1057 H1064 0.961 . S
C1057 H1065 0.960 . S
C1058 C1056 1.381 . S
C1058 C1059 1.394 . S
C1058 H1066 0.930 . S
C1059 C1058 1.394 . S
C1059 C1060 1.383 . S
C1059 H1067 0.929 . S
C1060 C1059 1.383 . S
C1060 C1061 1.377 . S
C1061 H1045 0.930 . S
C1061 C1060 1.377 . S
C1061 C1062 1.379 . S
C1062 H1046 0.931 . S
C1062 C1056 1.383 . S
C1062 C1061 1.379 . S
H1063 C1057 0.959 . S
H1064 C1057 0.961 . S
H1065 C1057 0.960 . S
H1066 C1058 0.930 . S
H1067 C1059 0.929 . S
H1068 C1076 0.929 . S
H1069 C1078 0.930 . S
H1070 C1080 0.930 . S
H1071 C1083 0.929 . S
H1072 C1086 0.930 . S
H1073 C1088 0.960 . S
H1074 C1088 0.960 . S
H1075 C1088 0.960 . S
C1076 H1068 0.929 . S
C1076 C1077 1.377 . S
C1076 C1078 1.384 . S
C1077 C1076 1.377 . S
C1077 C1083 1.390 . S
C1078 H1069 0.930 . S
C1078 C1076 1.384 . S
C1078 C1079 1.372 . S
C1079 C1078 1.372 . S
C1079 C1080 1.400 . S
C1079 C1084 1.490 . S
C1080 H1070 0.930 . S
C1080 C1079 1.400 . S
C1080 C1083 1.386 . S
H1081 C1097 0.930 . S
H1082 C1098 0.931 . S
C1083 H1071 0.929 . S
C1083 C1077 1.390 . S
C1083 C1080 1.386 . S
C1084 C1079 1.490 . S
C1084 C1086 1.395 . S
C1084 C1087 1.403 . S
H1085 C1091 0.930 . S
C1086 H1072 0.930 . S
C1086 C1084 1.395 . S
C1086 C1089 1.403 . S
C1087 C1084 1.403 . S
C1087 C1088 1.524 . S
C1087 C1091 1.400 . S
C1088 H1073 0.960 . S
C1088 H1074 0.960 . S
C1088 H1075 0.960 . S
C1088 C1087 1.524 . S
C1089 C1086 1.403 . S
C1089 C1090 1.392 . S
C1089 C1093 1.495 . S
C1090 C1089 1.392 . S
C1090 C1091 1.385 . S
C1090 C1092 1.478 . S
C1091 H1085 0.930 . S
C1091 C1087 1.400 . S
C1091 C1090 1.385 . S
C1092 C1090 1.478 . S
C1092 C1094 1.381 . S
C1092 C1098 1.383 . S
C1093 C1089 1.495 . S
C1093 H1099 0.959 . S
C1093 H1100 0.961 . S
C1093 H1101 0.960 . S
C1094 C1092 1.381 . S
C1094 C1095 1.394 . S
C1094 H1102 0.930 . S
C1095 C1094 1.394 . S
C1095 C1096 1.383 . S
C1095 H1103 0.929 . S
C1096 C1095 1.383 . S
C1096 C1097 1.377 . S
C1097 H1081 0.930 . S
C1097 C1096 1.377 . S
C1097 C1098 1.379 . S
C1098 H1082 0.931 . S
C1098 C1092 1.383 . S
C1098 C1097 1.379 . S
H1099 C1093 0.959 . S
H1100 C1093 0.961 . S
H1101 C1093 0.960 . S
H1102 C1094 0.930 . S
H1103 C1095 0.929 . S
H1104 C1112 0.929 . S
H1105 C1114 0.930 . S
H1106 C1116 0.930 . S
H1107 C1119 0.929 . S
H1108 C1122 0.889 1_565 S
H1109 C1124 0.960 . S
H1110 C1124 0.960 . S
H1111 C1124 0.960 . S
C1112 H1104 0.929 . S
C1112 C1113 1.377 . S
C1112 C1114 1.384 . S
C1113 C1112 1.377 . S
C1113 C1119 1.390 . S
C1114 H1105 0.930 . S
C1114 C1112 1.384 . S
C1114 C1115 1.372 . S
C1115 C1114 1.372 . S
C1115 C1116 1.400 . S
C1115 C1120 1.490 1_565 S
C1116 H1106 0.930 . S
C1116 C1115 1.400 . S
C1116 C1119 1.386 . S
H1117 C1133 0.930 . S
H1118 C1134 0.931 . S
C1119 H1107 0.929 . S
C1119 C1113 1.390 . S
C1119 C1116 1.386 . S
C1120 C1115 1.490 1_545 S
C1120 C1122 1.397 . S
C1120 C1123 1.403 . S
H1121 C1127 0.930 . S
C1122 H1108 0.889 1_545 S
C1122 C1120 1.397 . S
C1122 C1125 1.442 . S
C1123 C1120 1.403 . S
C1123 C1124 1.524 . S
C1123 C1127 1.400 . S
C1124 H1109 0.960 . S
C1124 H1110 0.960 . S
C1124 H1111 0.960 . S
C1124 C1123 1.524 . S
C1125 C1122 1.442 . S
C1125 C1126 1.392 . S
C1125 C1129 1.495 . S
C1126 C1125 1.392 . S
C1126 C1127 1.385 . S
C1126 C1128 1.478 . S
C1127 H1121 0.930 . S
C1127 C1123 1.400 . S
C1127 C1126 1.385 . S
C1128 C1126 1.478 . S
C1128 C1130 1.381 . S
C1128 C1134 1.383 . S
C1129 C1125 1.495 . S
C1129 H1135 0.959 1_545 S
C1129 H1136 0.961 . S
C1129 H1137 0.960 . S
C1130 C1128 1.381 . S
C1130 C1131 1.394 . S
C1130 H1138 0.930 . S
C1131 C1130 1.394 . S
C1131 C1132 1.383 . S
C1131 H1139 0.929 . S
C1132 C1131 1.383 . S
C1132 C1133 1.377 . S
C1133 H1117 0.930 . S
C1133 C1132 1.377 . S
C1133 C1134 1.379 . S
C1134 H1118 0.931 . S
C1134 C1128 1.383 . S
C1134 C1133 1.379 . S
H1135 C1129 0.959 1_565 S
H1136 C1129 0.961 . S
H1137 C1129 0.960 . S
H1138 C1130 0.930 . S
H1139 C1131 0.929 . S
H1140 C1148 0.929 . S
H1141 C1150 0.930 . S
H1142 C1152 0.930 . S
H1143 C1155 0.929 . S
H1144 C1158 0.930 . S
H1145 C1160 0.960 . S
H1146 C1160 0.960 . S
H1147 C1160 0.960 . S
C1148 H1140 0.929 . S
C1148 C1149 1.377 . S
C1148 C1150 1.384 . S
C1149 C1148 1.377 . S
C1149 C1155 1.390 . S
C1150 H1141 0.930 . S
C1150 C1148 1.384 . S
C1150 C1151 1.372 . S
C1151 C1150 1.372 . S
C1151 C1152 1.400 . S
C1151 C1156 1.490 . S
C1152 H1142 0.930 . S
C1152 C1151 1.400 . S
C1152 C1155 1.386 . S
H1153 C1169 0.930 . S
H1154 C1170 0.931 . S
C1155 H1143 0.929 . S
C1155 C1149 1.390 . S
C1155 C1152 1.386 . S
C1156 C1151 1.490 . S
C1156 C1158 1.395 . S
C1156 C1159 1.403 . S
H1157 C1163 0.930 . S
C1158 H1144 0.930 . S
C1158 C1156 1.395 . S
C1158 C1161 1.403 . S
C1159 C1156 1.403 . S
C1159 C1160 1.524 . S
C1159 C1163 1.400 . S
C1160 H1145 0.960 . S
C1160 H1146 0.960 . S
C1160 H1147 0.960 . S
C1160 C1159 1.524 . S
C1161 C1158 1.403 . S
C1161 C1162 1.392 . S
C1161 C1165 1.495 . S
C1162 C1161 1.392 . S
C1162 C1163 1.385 . S
C1162 C1164 1.478 . S
C1163 H1157 0.930 . S
C1163 C1159 1.400 . S
C1163 C1162 1.385 . S
C1164 C1162 1.478 . S
C1164 C1166 1.381 . S
C1164 C1170 1.383 . S
C1165 C1161 1.495 . S
C1165 H1171 0.959 . S
C1165 H1172 0.961 . S
C1165 H1173 0.960 . S
C1166 C1164 1.381 . S
C1166 C1167 1.394 . S
C1166 H1174 0.930 . S
C1167 C1166 1.394 . S
C1167 C1168 1.383 . S
C1167 H1175 0.929 . S
C1168 C1167 1.383 . S
C1168 C1169 1.377 . S
C1169 H1153 0.930 . S
C1169 C1168 1.377 . S
C1169 C1170 1.379 . S
C1170 H1154 0.931 . S
C1170 C1164 1.383 . S
C1170 C1169 1.379 . S
H1171 C1165 0.959 . S
H1172 C1165 0.961 . S
H1173 C1165 0.960 . S
H1174 C1166 0.930 . S
H1175 C1167 0.929 . S
H1176 C1184 0.929 . S
H1177 C1186 0.930 . S
H1178 C1188 0.930 . S
H1179 C1191 0.929 . S
H1180 C1194 0.930 . S
H1181 C1196 0.960 . S
H1182 C1196 0.960 . S
H1183 C1196 0.960 . S
C1184 H1176 0.929 . S
C1184 C1185 1.377 . S
C1184 C1186 1.384 . S
C1185 C1184 1.377 . S
C1185 C1191 1.390 . S
C1186 H1177 0.930 . S
C1186 C1184 1.384 . S
C1186 C1187 1.372 . S
C1187 C1186 1.372 . S
C1187 C1188 1.400 . S
C1187 C1192 1.490 . S
C1188 H1178 0.930 . S
C1188 C1187 1.400 . S
C1188 C1191 1.386 . S
H1189 C1205 0.930 . S
H1190 C1206 0.931 . S
C1191 H1179 0.929 . S
C1191 C1185 1.390 . S
C1191 C1188 1.386 . S
C1192 C1187 1.490 . S
C1192 C1194 1.395 . S
C1192 C1195 1.403 . S
H1193 C1199 0.930 . S
C1194 H1180 0.930 . S
C1194 C1192 1.395 . S
C1194 C1197 1.403 . S
C1195 C1192 1.403 . S
C1195 C1196 1.524 . S
C1195 C1199 1.400 . S
C1196 H1181 0.960 . S
C1196 H1182 0.960 . S
C1196 H1183 0.960 . S
C1196 C1195 1.524 . S
C1197 C1194 1.403 . S
C1197 C1198 1.392 . S
C1197 C1201 1.495 . S
C1198 C1197 1.392 . S
C1198 C1199 1.385 . S
C1198 C1200 1.478 . S
C1199 H1193 0.930 . S
C1199 C1195 1.400 . S
C1199 C1198 1.385 . S
C1200 C1198 1.478 . S
C1200 C1202 1.381 . S
C1200 C1206 1.383 . S
C1201 C1197 1.495 . S
C1201 H1207 0.959 . S
C1201 H1208 0.961 . S
C1201 H1209 0.960 . S
C1202 C1200 1.381 . S
C1202 C1203 1.394 . S
C1202 H1210 0.930 . S
C1203 C1202 1.394 . S
C1203 C1204 1.383 . S
C1203 H1211 0.929 . S
C1204 C1203 1.383 . S
C1204 C1205 1.377 . S
C1205 H1189 0.930 . S
C1205 C1204 1.377 . S
C1205 C1206 1.379 . S
C1206 H1190 0.931 . S
C1206 C1200 1.383 . S
C1206 C1205 1.379 . S
H1207 C1201 0.959 . S
H1208 C1201 0.961 . S
H1209 C1201 0.960 . S
H1210 C1202 0.930 . S
H1211 C1203 0.929 . S
H1212 C1220 0.929 . S
H1213 C1222 0.930 . S
H1214 C1224 0.930 . S
H1215 C1227 0.929 . S
H1216 C1230 0.930 . S
H1217 C1232 0.960 . S
H1218 C1232 0.960 . S
H1219 C1232 0.960 . S
C1220 H1212 0.929 . S
C1220 C1221 1.377 . S
C1220 C1222 1.384 . S
C1221 C1220 1.377 . S
C1221 C1227 1.390 . S
C1222 H1213 0.930 . S
C1222 C1220 1.384 . S
C1222 C1223 1.372 . S
C1223 C1222 1.372 . S
C1223 C1224 1.400 . S
C1223 C1228 1.490 . S
C1224 H1214 0.930 . S
C1224 C1223 1.400 . S
C1224 C1227 1.386 . S
H1225 C1241 0.930 . S
H1226 C1242 0.931 . S
C1227 H1215 0.929 . S
C1227 C1221 1.390 . S
C1227 C1224 1.386 . S
C1228 C1223 1.490 . S
C1228 C1230 1.395 . S
C1228 C1231 1.403 . S
H1229 C1235 0.930 . S
C1230 H1216 0.930 . S
C1230 C1228 1.395 . S
C1230 C1233 1.403 . S
C1231 C1228 1.403 . S
C1231 C1232 1.524 . S
C1231 C1235 1.400 . S
C1232 H1217 0.960 . S
C1232 H1218 0.960 . S
C1232 H1219 0.960 . S
C1232 C1231 1.524 . S
C1233 C1230 1.403 . S
C1233 C1234 1.392 . S
C1233 C1237 1.495 . S
C1234 C1233 1.392 . S
C1234 C1235 1.385 . S
C1234 C1236 1.478 . S
C1235 H1229 0.930 . S
C1235 C1231 1.400 . S
C1235 C1234 1.385 . S
C1236 C1234 1.478 . S
C1236 C1238 1.381 . S
C1236 C1242 1.383 . S
C1237 C1233 1.495 . S
C1237 H1243 0.959 . S
C1237 H1244 0.961 . S
C1237 H1245 0.960 . S
C1238 C1236 1.381 . S
C1238 C1239 1.394 . S
C1238 H1246 0.930 . S
C1239 C1238 1.394 . S
C1239 C1240 1.383 . S
C1239 H1247 0.929 . S
C1240 C1239 1.383 . S
C1240 C1241 1.377 . S
C1241 H1225 0.930 . S
C1241 C1240 1.377 . S
C1241 C1242 1.379 . S
C1242 H1226 0.931 . S
C1242 C1236 1.383 . S
C1242 C1241 1.379 . S
H1243 C1237 0.959 . S
H1244 C1237 0.961 . S
H1245 C1237 0.960 . S
H1246 C1238 0.930 . S
H1247 C1239 0.929 . S
H1248 C1256 0.929 . S
H1249 C1258 0.930 . S
H1250 C1260 0.930 . S
H1251 C1263 0.929 . S
H1252 C1266 0.930 . S
H1253 C1268 0.960 . S
H1254 C1268 0.960 . S
H1255 C1268 0.960 . S
C1256 H1248 0.929 . S
C1256 C1257 1.377 . S
C1256 C1258 1.384 . S
C1257 C1256 1.377 . S
C1257 C1263 1.390 . S
C1258 H1249 0.930 . S
C1258 C1256 1.384 . S
C1258 C1259 1.372 . S
C1259 C1258 1.372 . S
C1259 C1260 1.400 . S
C1259 C1264 1.490 . S
C1260 H1250 0.930 . S
C1260 C1259 1.400 . S
C1260 C1263 1.386 . S
H1261 C1277 0.930 . S
H1262 C1278 0.931 . S
C1263 H1251 0.929 . S
C1263 C1257 1.390 . S
C1263 C1260 1.386 . S
C1264 C1259 1.490 . S
C1264 C1266 1.395 . S
C1264 C1267 1.403 . S
H1265 C1271 0.930 . S
C1266 H1252 0.930 . S
C1266 C1264 1.395 . S
C1266 C1269 1.403 . S
C1267 C1264 1.403 . S
C1267 C1268 1.524 . S
C1267 C1271 1.400 . S
C1268 H1253 0.960 . S
C1268 H1254 0.960 . S
C1268 H1255 0.960 . S
C1268 C1267 1.524 . S
C1269 C1266 1.403 . S
C1269 C1270 1.392 . S
C1269 C1273 1.495 . S
C1270 C1269 1.392 . S
C1270 C1271 1.385 . S
C1270 C1272 1.478 . S
C1271 H1265 0.930 . S
C1271 C1267 1.400 . S
C1271 C1270 1.385 . S
C1272 C1270 1.478 . S
C1272 C1274 1.381 . S
C1272 C1278 1.383 . S
C1273 C1269 1.495 . S
C1273 H1279 0.959 . S
C1273 H1280 0.961 . S
C1273 H1281 0.960 . S
C1274 C1272 1.381 . S
C1274 C1275 1.394 . S
C1274 H1282 0.930 . S
C1275 C1274 1.394 . S
C1275 C1276 1.383 . S
C1275 H1283 0.929 . S
C1276 C1275 1.383 . S
C1276 C1277 1.377 . S
C1277 H1261 0.930 . S
C1277 C1276 1.377 . S
C1277 C1278 1.379 . S
C1278 H1262 0.931 . S
C1278 C1272 1.383 . S
C1278 C1277 1.379 . S
H1279 C1273 0.959 . S
H1280 C1273 0.961 . S
H1281 C1273 0.960 . S
H1282 C1274 0.930 . S
H1283 C1275 0.929 . S
H1284 C1292 0.929 . S
H1285 C1294 0.930 . S
H1286 C1296 0.930 . S
H1287 C1299 0.929 . S
H1288 C1302 0.930 . S
H1289 C1304 0.960 . S
H1290 C1304 0.960 . S
H1291 C1304 0.960 . S
C1292 H1284 0.929 . S
C1292 C1293 1.377 . S
C1292 C1294 1.384 . S
C1293 C1292 1.377 . S
C1293 C1299 1.390 . S
C1294 H1285 0.930 . S
C1294 C1292 1.384 . S
C1294 C1295 1.372 . S
C1295 C1294 1.372 . S
C1295 C1296 1.400 . S
C1295 C1300 1.490 . S
C1296 H1286 0.930 . S
C1296 C1295 1.400 . S
C1296 C1299 1.386 . S
H1297 C1313 0.930 . S
H1298 C1314 0.931 . S
C1299 H1287 0.929 . S
C1299 C1293 1.390 . S
C1299 C1296 1.386 . S
C1300 C1295 1.490 . S
C1300 C1302 1.395 . S
C1300 C1303 1.403 . S
H1301 C1307 0.930 . S
C1302 H1288 0.930 . S
C1302 C1300 1.395 . S
C1302 C1305 1.403 . S
C1303 C1300 1.403 . S
C1303 C1304 1.524 . S
C1303 C1307 1.400 . S
C1304 H1289 0.960 . S
C1304 H1290 0.960 . S
C1304 H1291 0.960 . S
C1304 C1303 1.524 . S
C1305 C1302 1.403 . S
C1305 C1306 1.392 . S
C1305 C1309 1.495 . S
C1306 C1305 1.392 . S
C1306 C1307 1.385 . S
C1306 C1308 1.478 . S
C1307 H1301 0.930 . S
C1307 C1303 1.400 . S
C1307 C1306 1.385 . S
C1308 C1306 1.478 . S
C1308 C1310 1.381 . S
C1308 C1314 1.383 . S
C1309 C1305 1.495 . S
C1309 H1315 0.959 . S
C1309 H1316 0.961 . S
C1309 H1317 0.960 . S
C1310 C1308 1.381 . S
C1310 C1311 1.394 . S
C1310 H1318 0.930 . S
C1311 C1310 1.394 . S
C1311 C1312 1.383 . S
C1311 H1319 0.929 . S
C1312 C1311 1.383 . S
C1312 C1313 1.377 . S
C1313 H1297 0.930 . S
C1313 C1312 1.377 . S
C1313 C1314 1.379 . S
C1314 H1298 0.931 . S
C1314 C1308 1.383 . S
C1314 C1313 1.379 . S
H1315 C1309 0.959 . S
H1316 C1309 0.961 . S
H1317 C1309 0.960 . S
H1318 C1310 0.930 . S
H1319 C1311 0.929 . S
H1320 C1328 0.929 . S
H1321 C1330 0.930 . S
H1322 C1332 0.930 . S
H1323 C1335 0.929 . S
H1324 C1338 0.930 . S
H1325 C1340 0.960 . S
H1326 C1340 0.960 . S
H1327 C1340 0.960 . S
C1328 H1320 0.929 . S
C1328 C1329 1.377 . S
C1328 C1330 1.384 . S
C1329 C1328 1.377 . S
C1329 C1335 1.390 . S
C1330 H1321 0.930 . S
C1330 C1328 1.384 . S
C1330 C1331 1.372 . S
C1331 C1330 1.372 . S
C1331 C1332 1.400 . S
C1331 C1336 1.490 . S
C1332 H1322 0.930 . S
C1332 C1331 1.400 . S
C1332 C1335 1.386 . S
H1333 C1349 0.930 . S
H1334 C1350 0.931 . S
C1335 H1323 0.929 . S
C1335 C1329 1.390 . S
C1335 C1332 1.386 . S
C1336 C1331 1.490 . S
C1336 C1338 1.395 . S
C1336 C1339 1.403 . S
H1337 C1343 0.930 . S
C1338 H1324 0.930 . S
C1338 C1336 1.395 . S
C1338 C1341 1.403 . S
C1339 C1336 1.403 . S
C1339 C1340 1.524 . S
C1339 C1343 1.400 . S
C1340 H1325 0.960 . S
C1340 H1326 0.960 . S
C1340 H1327 0.960 . S
C1340 C1339 1.524 . S
C1341 C1338 1.403 . S
C1341 C1342 1.392 . S
C1341 C1345 1.495 . S
C1342 C1341 1.392 . S
C1342 C1343 1.385 . S
C1342 C1344 1.478 . S
C1343 H1337 0.930 . S
C1343 C1339 1.400 . S
C1343 C1342 1.385 . S
C1344 C1342 1.478 . S
C1344 C1346 1.381 . S
C1344 C1350 1.383 . S
C1345 C1341 1.495 . S
C1345 H1351 0.959 . S
C1345 H1352 0.961 . S
C1345 H1353 0.960 . S
C1346 C1344 1.381 . S
C1346 C1347 1.394 . S
C1346 H1354 0.930 . S
C1347 C1346 1.394 . S
C1347 C1348 1.383 . S
C1347 H1355 0.929 . S
C1348 C1347 1.383 . S
C1348 C1349 1.377 . S
C1349 H1333 0.930 . S
C1349 C1348 1.377 . S
C1349 C1350 1.379 . S
C1350 H1334 0.931 . S
C1350 C1344 1.383 . S
C1350 C1349 1.379 . S
H1351 C1345 0.959 . S
H1352 C1345 0.961 . S
H1353 C1345 0.960 . S
H1354 C1346 0.930 . S
H1355 C1347 0.929 . S
H1356 C1364 0.929 . S
H1357 C1366 0.930 . S
H1358 C1368 0.930 . S
H1359 C1371 0.929 . S
H1360 C1374 0.930 . S
H1361 C1376 0.960 . S
H1362 C1376 0.960 . S
H1363 C1376 0.960 . S
C1364 H1356 0.929 . S
C1364 C1365 1.377 . S
C1364 C1366 1.384 . S
C1365 C1364 1.377 . S
C1365 C1371 1.390 . S
C1366 H1357 0.930 . S
C1366 C1364 1.384 . S
C1366 C1367 1.372 . S
C1367 C1366 1.372 . S
C1367 C1368 1.400 . S
C1367 C1372 1.490 . S
C1368 H1358 0.930 . S
C1368 C1367 1.400 . S
C1368 C1371 1.386 . S
H1369 C1385 0.930 . S
H1370 C1386 0.931 . S
C1371 H1359 0.929 . S
C1371 C1365 1.390 . S
C1371 C1368 1.386 . S
C1372 C1367 1.490 . S
C1372 C1374 1.395 . S
C1372 C1375 1.403 . S
H1373 C1379 0.930 . S
C1374 H1360 0.930 . S
C1374 C1372 1.395 . S
C1374 C1377 1.403 1_455 S
C1375 C1372 1.403 . S
C1375 C1376 1.524 . S
C1375 C1379 1.400 . S
C1376 H1361 0.960 . S
C1376 H1362 0.960 . S
C1376 H1363 0.960 . S
C1376 C1375 1.524 . S
C1377 C1374 1.403 1_655 S
C1377 C1378 1.392 . S
C1377 C1381 1.495 . S
C1378 C1377 1.392 . S
C1378 C1379 1.385 1_655 S
C1378 C1380 1.478 . S
C1379 H1373 0.930 . S
C1379 C1375 1.400 . S
C1379 C1378 1.385 1_455 S
C1380 C1378 1.478 . S
C1380 C1382 1.381 . S
C1380 C1386 1.383 . S
C1381 C1377 1.495 . S
C1381 H1387 0.959 . S
C1381 H1388 0.961 . S
C1381 H1389 0.960 . S
C1382 C1380 1.381 . S
C1382 C1383 1.394 . S
C1382 H1390 0.930 . S
C1383 C1382 1.394 . S
C1383 C1384 1.383 . S
C1383 H1391 0.929 . S
C1384 C1383 1.383 . S
C1384 C1385 1.377 . S
C1385 H1369 0.930 . S
C1385 C1384 1.377 . S
C1385 C1386 1.379 . S
C1386 H1370 0.931 . S
C1386 C1380 1.383 . S
C1386 C1385 1.379 . S
H1387 C1381 0.959 . S
H1388 C1381 0.961 . S
H1389 C1381 0.960 . S
H1390 C1382 0.930 . S
H1391 C1383 0.929 . S
H1392 C1400 0.929 . S
H1393 C1402 0.930 . S
H1394 C1404 0.930 . S
H1395 C1407 0.929 . S
H1396 C1410 0.930 . S
H1397 C1412 0.960 . S
H1398 C1412 0.960 . S
H1399 C1412 0.960 . S
C1400 H1392 0.929 . S
C1400 C1401 1.377 . S
C1400 C1402 1.384 . S
C1401 C1400 1.377 . S
C1401 C1407 1.390 . S
C1402 H1393 0.930 . S
C1402 C1400 1.384 . S
C1402 C1403 1.372 . S
C1403 C1402 1.372 . S
C1403 C1404 1.400 . S
C1403 C1408 1.490 . S
C1404 H1394 0.930 . S
C1404 C1403 1.400 . S
C1404 C1407 1.386 . S
H1405 C1421 0.930 . S
H1406 C1422 0.931 . S
C1407 H1395 0.929 . S
C1407 C1401 1.390 . S
C1407 C1404 1.386 . S
C1408 C1403 1.490 . S
C1408 C1410 1.395 . S
C1408 C1411 1.403 . S
H1409 C1415 0.930 . S
C1410 H1396 0.930 . S
C1410 C1408 1.395 . S
C1410 C1413 1.403 . S
C1411 C1408 1.403 . S
C1411 C1412 1.524 . S
C1411 C1415 1.400 . S
C1412 H1397 0.960 . S
C1412 H1398 0.960 . S
C1412 H1399 0.960 . S
C1412 C1411 1.524 . S
C1413 C1410 1.403 . S
C1413 C1414 1.392 . S
C1413 C1417 1.495 . S
C1414 C1413 1.392 . S
C1414 C1415 1.385 . S
C1414 C1416 1.478 . S
C1415 H1409 0.930 . S
C1415 C1411 1.400 . S
C1415 C1414 1.385 . S
C1416 C1414 1.478 . S
C1416 C1418 1.381 . S
C1416 C1422 1.383 . S
C1417 C1413 1.495 . S
C1417 H1423 0.959 . S
C1417 H1424 0.961 . S
C1417 H1425 0.960 . S
C1418 C1416 1.381 . S
C1418 C1419 1.394 . S
C1418 H1426 0.930 . S
C1419 C1418 1.394 . S
C1419 C1420 1.383 . S
C1419 H1427 0.929 . S
C1420 C1419 1.383 . S
C1420 C1421 1.377 . S
C1421 H1405 0.930 . S
C1421 C1420 1.377 . S
C1421 C1422 1.379 . S
C1422 H1406 0.931 . S
C1422 C1416 1.383 . S
C1422 C1421 1.379 . S
H1423 C1417 0.959 . S
H1424 C1417 0.961 . S
H1425 C1417 0.960 . S
H1426 C1418 0.930 . S
H1427 C1419 0.929 . S
H1428 C1436 0.929 . S
H1429 C1438 0.930 . S
H1430 C1440 0.930 . S
H1431 C1443 0.929 . S
H1432 C1446 0.930 . S
H1433 C1448 0.960 1_455 S
H1434 C1448 0.960 . S
H1435 C1448 0.960 . S
C1436 H1428 0.929 . S
C1436 C1437 1.377 . S
C1436 C1438 1.384 . S
C1437 C1436 1.377 . S
C1437 C1443 1.390 . S
C1438 H1429 0.930 . S
C1438 C1436 1.384 . S
C1438 C1439 1.372 . S
C1439 C1438 1.372 . S
C1439 C1440 1.400 . S
C1439 C1444 1.490 . S
C1440 H1430 0.930 . S
C1440 C1439 1.400 . S
C1440 C1443 1.386 . S
H1441 C1457 0.930 . S
H1442 C1458 0.931 . S
C1443 H1431 0.929 . S
C1443 C1437 1.390 . S
C1443 C1440 1.386 . S
C1444 C1439 1.490 . S
C1444 C1446 1.395 . S
C1444 C1447 1.403 . S
H1445 C1451 0.930 . S
C1446 H1432 0.930 . S
C1446 C1444 1.395 . S
C1446 C1449 1.403 . S
C1447 C1444 1.403 . S
C1447 C1448 1.524 . S
C1447 C1451 1.400 1_655 S
C1448 H1433 0.960 1_655 S
C1448 H1434 0.960 . S
C1448 H1435 0.960 . S
C1448 C1447 1.524 . S
C1449 C1446 1.403 . S
C1449 C1450 1.392 1_655 S
C1449 C1453 1.495 . S
C1450 C1449 1.392 1_455 S
C1450 C1451 1.385 . S
C1450 C1452 1.478 . S
C1451 H1445 0.930 . S
C1451 C1447 1.400 1_455 S
C1451 C1450 1.385 . S
C1452 C1450 1.478 . S
C1452 C1454 1.381 . S
C1452 C1458 1.383 . S
C1453 C1449 1.495 . S
C1453 H1459 0.959 . S
C1453 H1460 0.961 . S
C1453 H1461 0.960 . S
C1454 C1452 1.381 . S
C1454 C1455 1.394 . S
C1454 H1462 0.930 . S
C1455 C1454 1.394 . S
C1455 C1456 1.383 . S
C1455 H1463 0.929 . S
C1456 C1455 1.383 . S
C1456 C1457 1.377 . S
C1457 H1441 0.930 . S
C1457 C1456 1.377 . S
C1457 C1458 1.379 . S
C1458 H1442 0.931 . S
C1458 C1452 1.383 . S
C1458 C1457 1.379 . S
H1459 C1453 0.959 . S
H1460 C1453 0.961 . S
H1461 C1453 0.960 . S
H1462 C1454 0.930 . S
H1463 C1455 0.929 . S
H1464 C1472 0.929 . S
H1465 C1474 0.930 . S
H1466 C1476 0.930 . S
H1467 C1479 0.929 . S
H1468 C1482 0.930 . S
H1469 C1484 0.960 . S
H1470 C1484 0.960 . S
H1471 C1484 0.960 . S
C1472 H1464 0.929 . S
C1472 C1473 1.377 . S
C1472 C1474 1.384 . S
C1473 C1472 1.377 . S
C1473 C1479 1.390 . S
C1474 H1465 0.930 . S
C1474 C1472 1.384 . S
C1474 C1475 1.372 . S
C1475 C1474 1.372 . S
C1475 C1476 1.400 . S
C1475 C1480 1.490 . S
C1476 H1466 0.930 . S
C1476 C1475 1.400 . S
C1476 C1479 1.386 . S
H1477 C1493 0.930 . S
H1478 C1494 0.931 . S
C1479 H1467 0.929 . S
C1479 C1473 1.390 . S
C1479 C1476 1.386 . S
C1480 C1475 1.490 . S
C1480 C1482 1.395 . S
C1480 C1483 1.403 . S
H1481 C1487 0.930 . S
C1482 H1468 0.930 . S
C1482 C1480 1.395 . S
C1482 C1485 1.403 . S
C1483 C1480 1.403 . S
C1483 C1484 1.524 . S
C1483 C1487 1.400 . S
C1484 H1469 0.960 . S
C1484 H1470 0.960 . S
C1484 H1471 0.960 . S
C1484 C1483 1.524 . S
C1485 C1482 1.403 . S
C1485 C1486 1.392 . S
C1485 C1489 1.495 . S
C1486 C1485 1.392 . S
C1486 C1487 1.385 . S
C1486 C1488 1.478 . S
C1487 H1481 0.930 . S
C1487 C1483 1.400 . S
C1487 C1486 1.385 . S
C1488 C1486 1.478 . S
C1488 C1490 1.381 . S
C1488 C1494 1.383 . S
C1489 C1485 1.495 . S
C1489 H1495 0.959 . S
C1489 H1496 0.961 . S
C1489 H1497 0.960 . S
C1490 C1488 1.381 . S
C1490 C1491 1.394 . S
C1490 H1498 0.930 . S
C1491 C1490 1.394 . S
C1491 C1492 1.383 . S
C1491 H1499 0.929 . S
C1492 C1491 1.383 . S
C1492 C1493 1.377 . S
C1493 H1477 0.930 . S
C1493 C1492 1.377 . S
C1493 C1494 1.379 . S
C1494 H1478 0.931 . S
C1494 C1488 1.383 . S
C1494 C1493 1.379 . S
H1495 C1489 0.959 . S
H1496 C1489 0.961 . S
H1497 C1489 0.960 . S
H1498 C1490 0.930 . S
H1499 C1491 0.929 . S
H1500 C1508 0.929 . S
H1501 C1510 0.930 . S
H1502 C1512 0.930 . S
H1503 C1515 0.929 . S
H1504 C1518 0.930 . S
H1505 C1520 0.960 . S
H1506 C1520 0.960 . S
H1507 C1520 0.960 . S
C1508 H1500 0.929 . S
C1508 C1509 1.377 . S
C1508 C1510 1.384 . S
C1509 C1508 1.377 . S
C1509 C1515 1.390 . S
C1510 H1501 0.930 . S
C1510 C1508 1.384 . S
C1510 C1511 1.372 . S
C1511 C1510 1.372 . S
C1511 C1512 1.400 . S
C1511 C1516 1.490 . S
C1512 H1502 0.930 . S
C1512 C1511 1.400 . S
C1512 C1515 1.386 . S
H1513 C1529 0.930 . S
H1514 C1530 0.931 . S
C1515 H1503 0.929 . S
C1515 C1509 1.390 . S
C1515 C1512 1.386 . S
C1516 C1511 1.490 . S
C1516 C1518 1.395 . S
C1516 C1519 1.403 1_554 S
H1517 C1523 0.930 . S
C1518 H1504 0.930 . S
C1518 C1516 1.395 . S
C1518 C1521 1.403 . S
C1519 C1516 1.403 1_556 S
C1519 C1520 1.524 . S
C1519 C1523 1.400 . S
C1520 H1505 0.960 . S
C1520 H1506 0.960 . S
C1520 H1507 0.960 . S
C1520 C1519 1.524 . S
C1521 C1518 1.403 . S
C1521 C1522 1.392 1_554 S
C1521 C1525 1.495 . S
C1522 C1521 1.392 1_556 S
C1522 C1523 1.385 . S
C1522 C1524 1.478 . S
C1523 H1517 0.930 . S
C1523 C1519 1.400 . S
C1523 C1522 1.385 . S
C1524 C1522 1.478 . S
C1524 C1526 1.381 . S
C1524 C1530 1.383 . S
C1525 C1521 1.495 . S
C1525 H1531 0.959 . S
C1525 H1532 0.987 . S
C1525 H1533 0.960 . S
C1526 C1524 1.381 . S
C1526 C1527 1.394 . S
C1526 H1534 0.930 . S
C1527 C1526 1.394 . S
C1527 C1528 1.383 . S
C1527 H1535 0.929 1_655 S
C1528 C1527 1.383 . S
C1528 C1529 1.377 . S
C1529 H1513 0.930 . S
C1529 C1528 1.377 . S
C1529 C1530 1.379 . S
C1530 H1514 0.931 . S
C1530 C1524 1.383 . S
C1530 C1529 1.379 . S
H1531 C1525 0.959 . S
H1532 C1525 0.987 . S
H1533 C1525 0.960 . S
H1534 C1526 0.930 . S
H1535 C1527 0.929 1_455 S
H1536 C1544 0.929 . S
H1537 C1546 0.930 . S
H1538 C1548 0.930 . S
H1539 C1551 0.929 . S
H1540 C1554 0.930 . S
H1541 C1556 0.960 . S
H1542 C1556 0.960 . S
H1543 C1556 0.960 . S
C1544 H1536 0.929 . S
C1544 C1545 1.377 . S
C1544 C1546 1.384 . S
C1545 C1544 1.377 . S
C1545 C1551 1.390 . S
C1546 H1537 0.930 . S
C1546 C1544 1.384 . S
C1546 C1547 1.372 . S
C1547 C1546 1.372 . S
C1547 C1548 1.400 . S
C1547 C1552 1.490 . S
C1548 H1538 0.930 . S
C1548 C1547 1.400 . S
C1548 C1551 1.386 . S
H1549 C1565 0.930 . S
H1550 C1566 0.931 . S
C1551 H1539 0.929 . S
C1551 C1545 1.390 . S
C1551 C1548 1.386 . S
C1552 C1547 1.490 . S
C1552 C1554 1.395 . S
C1552 C1555 1.403 . S
H1553 C1559 0.930 . S
C1554 H1540 0.930 . S
C1554 C1552 1.395 . S
C1554 C1557 1.403 . S
C1555 C1552 1.403 . S
C1555 C1556 1.524 . S
C1555 C1559 1.400 . S
C1556 H1541 0.960 . S
C1556 H1542 0.960 . S
C1556 H1543 0.960 . S
C1556 C1555 1.524 . S
C1557 C1554 1.403 . S
C1557 C1558 1.392 . S
C1557 C1561 1.495 . S
C1558 C1557 1.392 . S
C1558 C1559 1.385 . S
C1558 C1560 1.478 . S
C1559 H1553 0.930 . S
C1559 C1555 1.400 . S
C1559 C1558 1.385 . S
C1560 C1558 1.478 . S
C1560 C1562 1.381 . S
C1560 C1566 1.383 . S
C1561 C1557 1.495 . S
C1561 H1567 0.959 . S
C1561 H1568 0.961 . S
C1561 H1569 0.960 . S
C1562 C1560 1.381 . S
C1562 C1563 1.394 . S
C1562 H1570 0.930 . S
C1563 C1562 1.394 . S
C1563 C1564 1.383 . S
C1563 H1571 0.929 . S
C1564 C1563 1.383 . S
C1564 C1565 1.377 . S
C1565 H1549 0.930 . S
C1565 C1564 1.377 . S
C1565 C1566 1.379 . S
C1566 H1550 0.931 . S
C1566 C1560 1.383 . S
C1566 C1565 1.379 . S
H1567 C1561 0.959 . S
H1568 C1561 0.961 . S
H1569 C1561 0.960 . S
H1570 C1562 0.930 . S
H1571 C1563 0.929 . S
H1572 C1580 0.929 . S
H1573 C1582 0.930 . S
H1574 C1584 0.930 . S
H1575 C1587 0.929 . S
H1576 C1590 0.930 . S
H1577 C1592 0.960 . S
H1578 C1592 0.960 . S
H1579 C1592 0.960 . S
C1580 H1572 0.929 . S
C1580 C1581 1.377 . S
C1580 C1582 1.384 . S
C1581 C1580 1.377 . S
C1581 C1587 1.390 . S
C1582 H1573 0.930 . S
C1582 C1580 1.384 . S
C1582 C1583 1.372 . S
C1583 C1582 1.372 . S
C1583 C1584 1.400 . S
C1583 C1588 1.490 . S
C1584 H1574 0.930 . S
C1584 C1583 1.400 . S
C1584 C1587 1.386 . S
H1585 C1601 0.930 . S
H1586 C1602 0.931 . S
C1587 H1575 0.929 . S
C1587 C1581 1.390 . S
C1587 C1584 1.386 . S
C1588 C1583 1.490 . S
C1588 C1590 1.395 . S
C1588 C1591 1.403 . S
H1589 C1595 0.930 1_556 S
C1590 H1576 0.930 . S
C1590 C1588 1.395 . S
C1590 C1593 1.403 . S
C1591 C1588 1.403 . S
C1591 C1592 1.524 . S
C1591 C1595 1.400 . S
C1592 H1577 0.960 . S
C1592 H1578 0.960 . S
C1592 H1579 0.960 . S
C1592 C1591 1.524 . S
C1593 C1590 1.403 . S
C1593 C1594 1.392 . S
C1593 C1597 1.495 . S
C1594 C1593 1.392 . S
C1594 C1595 1.385 . S
C1594 C1596 1.478 1_554 S
C1595 H1589 0.930 1_554 S
C1595 C1591 1.400 . S
C1595 C1594 1.385 . S
C1596 C1594 1.478 1_556 S
C1596 C1598 1.381 . S
C1596 C1602 1.383 . S
C1597 C1593 1.495 . S
C1597 H1603 0.959 . S
C1597 H1604 0.961 . S
C1597 H1605 0.960 . S
C1598 C1596 1.381 . S
C1598 C1599 1.394 . S
C1598 H1606 0.930 . S
C1599 C1598 1.394 . S
C1599 C1600 1.383 . S
C1599 H1607 0.929 . S
C1600 C1599 1.383 . S
C1600 C1601 1.377 . S
C1601 H1585 0.930 . S
C1601 C1600 1.377 . S
C1601 C1602 1.379 . S
C1602 H1586 0.931 . S
C1602 C1596 1.383 . S
C1602 C1601 1.379 . S
H1603 C1597 0.959 . S
H1604 C1597 0.961 . S
H1605 C1597 0.960 . S
H1606 C1598 0.930 . S
H1607 C1599 0.929 . S
H1608 C1616 0.929 . S
H1609 C1618 0.930 . S
H1610 C1620 0.930 . S
H1611 C1623 0.929 . S
H1612 C1626 0.930 . S
H1613 C1628 0.960 . S
H1614 C1628 0.960 . S
H1615 C1628 0.960 . S
C1616 H1608 0.929 . S
C1616 C1617 1.377 . S
C1616 C1618 1.384 . S
C1617 C1616 1.377 . S
C1617 C1623 1.390 . S
C1618 H1609 0.930 . S
C1618 C1616 1.384 . S
C1618 C1619 1.372 . S
C1619 C1618 1.372 . S
C1619 C1620 1.400 . S
C1619 C1624 1.490 . S
C1620 H1610 0.930 . S
C1620 C1619 1.400 . S
C1620 C1623 1.386 . S
H1621 C1637 0.930 . S
H1622 C1638 0.931 . S
C1623 H1611 0.929 . S
C1623 C1617 1.390 . S
C1623 C1620 1.386 . S
C1624 C1619 1.490 . S
C1624 C1626 1.395 . S
C1624 C1627 1.403 . S
H1625 C1631 0.930 . S
C1626 H1612 0.930 . S
C1626 C1624 1.395 . S
C1626 C1629 1.403 . S
C1627 C1624 1.403 . S
C1627 C1628 1.524 . S
C1627 C1631 1.400 . S
C1628 H1613 0.960 . S
C1628 H1614 0.960 . S
C1628 H1615 0.960 . S
C1628 C1627 1.524 . S
C1629 C1626 1.403 . S
C1629 C1630 1.392 . S
C1629 C1633 1.495 . S
C1630 C1629 1.392 . S
C1630 C1631 1.385 . S
C1630 C1632 1.478 . S
C1631 H1625 0.930 . S
C1631 C1627 1.400 . S
C1631 C1630 1.385 . S
C1632 C1630 1.478 . S
C1632 C1634 1.381 . S
C1632 C1638 1.383 . S
C1633 C1629 1.495 . S
C1633 H1639 0.959 . S
C1633 H1640 0.961 . S
C1633 H1641 0.960 . S
C1634 C1632 1.381 . S
C1634 C1635 1.394 . S
C1634 H1642 0.930 . S
C1635 C1634 1.394 . S
C1635 C1636 1.383 . S
C1635 H1643 0.929 . S
C1636 C1635 1.383 . S
C1636 C1637 1.377 . S
C1637 H1621 0.930 . S
C1637 C1636 1.377 . S
C1637 C1638 1.379 . S
C1638 H1622 0.931 . S
C1638 C1632 1.383 . S
C1638 C1637 1.379 . S
H1639 C1633 0.959 . S
H1640 C1633 0.961 . S
H1641 C1633 0.960 . S
H1642 C1634 0.930 . S
H1643 C1635 0.929 . S
H1644 C1652 0.929 . S
H1645 C1654 0.930 . S
H1646 C1656 0.930 . S
H1647 C1659 0.929 . S
H1648 C1662 0.930 . S
H1649 C1664 0.960 . S
H1650 C1664 0.960 . S
H1651 C1664 0.960 . S
C1652 H1644 0.929 . S
C1652 C1653 1.377 . S
C1652 C1654 1.384 . S
C1653 C1652 1.377 . S
C1653 C1659 1.390 . S
C1654 H1645 0.930 . S
C1654 C1652 1.384 . S
C1654 C1655 1.372 . S
C1655 C1654 1.372 . S
C1655 C1656 1.400 . S
C1655 C1660 1.490 . S
C1656 H1646 0.930 . S
C1656 C1655 1.400 . S
C1656 C1659 1.386 . S
H1657 C1673 0.930 . S
H1658 C1674 0.931 . S
C1659 H1647 0.929 . S
C1659 C1653 1.390 . S
C1659 C1656 1.386 . S
C1660 C1655 1.490 . S
C1660 C1662 1.395 1_556 S
C1660 C1663 1.403 . S
H1661 C1667 0.930 . S
C1662 H1648 0.930 . S
C1662 C1660 1.395 1_554 S
C1662 C1665 1.403 . S
C1663 C1660 1.403 . S
C1663 C1664 1.524 . S
C1663 C1667 1.400 1_556 S
C1664 H1649 0.960 . S
C1664 H1650 0.960 . S
C1664 H1651 0.960 . S
C1664 C1663 1.524 . S
C1665 C1662 1.403 . S
C1665 C1666 1.392 . S
C1665 C1669 1.495 . S
C1666 C1665 1.392 . S
C1666 C1667 1.385 . S
C1666 C1668 1.478 . S
C1667 H1661 0.930 . S
C1667 C1663 1.400 1_554 S
C1667 C1666 1.385 . S
C1668 C1666 1.478 . S
C1668 C1670 1.381 . S
C1668 C1674 1.383 . S
C1669 C1665 1.495 . S
C1669 H1675 0.959 . S
C1669 H1676 0.961 . S
C1669 H1677 0.960 . S
C1670 C1668 1.381 . S
C1670 C1671 1.394 . S
C1670 H1678 0.930 . S
C1671 C1670 1.394 . S
C1671 C1672 1.383 . S
C1671 H1679 0.929 . S
C1672 C1671 1.383 . S
C1672 C1673 1.377 . S
C1673 H1657 0.930 . S
C1673 C1672 1.377 . S
C1673 C1674 1.379 . S
C1674 H1658 0.931 . S
C1674 C1668 1.383 . S
C1674 C1673 1.379 . S
H1675 C1669 0.959 . S
H1676 C1669 0.961 . S
H1677 C1669 0.960 . S
H1678 C1670 0.930 . S
H1679 C1671 0.929 . S
H1680 C1688 0.929 . S
H1681 C1690 0.930 . S
H1682 C1692 0.930 . S
H1683 C1695 0.929 . S
H1684 C1698 0.930 . S
H1685 C1700 0.960 . S
H1686 C1700 0.960 . S
H1687 C1700 0.960 . S
C1688 H1680 0.929 . S
C1688 C1689 1.377 . S
C1688 C1690 1.384 . S
C1689 C1688 1.377 . S
C1689 C1695 1.390 . S
C1690 H1681 0.930 . S
C1690 C1688 1.384 . S
C1690 C1691 1.372 . S
C1691 C1690 1.372 . S
C1691 C1692 1.400 . S
C1691 C1696 1.490 . S
C1692 H1682 0.930 . S
C1692 C1691 1.400 . S
C1692 C1695 1.386 . S
H1693 C1709 0.930 . S
H1694 C1710 0.931 . S
C1695 H1683 0.929 . S
C1695 C1689 1.390 . S
C1695 C1692 1.386 . S
C1696 C1691 1.490 . S
C1696 C1698 1.395 . S
C1696 C1699 1.403 . S
H1697 C1703 0.930 . S
C1698 H1684 0.930 . S
C1698 C1696 1.395 . S
C1698 C1701 1.403 . S
C1699 C1696 1.403 . S
C1699 C1700 1.524 . S
C1699 C1703 1.400 . S
C1700 H1685 0.960 . S
C1700 H1686 0.960 . S
C1700 H1687 0.960 . S
C1700 C1699 1.524 . S
C1701 C1698 1.403 . S
C1701 C1702 1.392 . S
C1701 C1705 1.495 . S
C1702 C1701 1.392 . S
C1702 C1703 1.385 . S
C1702 C1704 1.478 . S
C1703 H1697 0.930 . S
C1703 C1699 1.400 . S
C1703 C1702 1.385 . S
C1704 C1702 1.478 . S
C1704 C1706 1.381 . S
C1704 C1710 1.383 . S
C1705 C1701 1.495 . S
C1705 H1711 0.959 . S
C1705 H1712 0.961 . S
C1705 H1713 0.960 . S
C1706 C1704 1.381 . S
C1706 C1707 1.394 . S
C1706 H1714 0.930 . S
C1707 C1706 1.394 . S
C1707 C1708 1.383 . S
C1707 H1715 0.929 . S
C1708 C1707 1.383 . S
C1708 C1709 1.377 . S
C1709 H1693 0.930 . S
C1709 C1708 1.377 . S
C1709 C1710 1.379 . S
C1710 H1694 0.931 . S
C1710 C1704 1.383 . S
C1710 C1709 1.379 . S
H1711 C1705 0.959 . S
H1712 C1705 0.961 . S
H1713 C1705 0.960 . S
H1714 C1706 0.930 . S
H1715 C1707 0.929 . S
H1716 C1724 0.929 . S
H1717 C1726 0.930 . S
H1718 C1728 0.930 1_554 S
H1719 C1731 0.929 . S
H1720 C1734 0.930 1_556 S
H1721 C1736 0.960 . S
H1722 C1736 0.960 . S
H1723 C1736 0.960 . S
C1724 H1716 0.929 . S
C1724 C1725 1.377 . S
C1724 C1726 1.384 . S
C1725 C1724 1.377 . S
C1725 C1731 1.390 . S
C1726 H1717 0.930 . S
C1726 C1724 1.384 . S
C1726 C1727 1.372 . S
C1727 C1726 1.372 . S
C1727 C1728 1.400 . S
C1727 C1732 1.490 1_556 S
C1728 H1718 0.930 1_556 S
C1728 C1727 1.400 . S
C1728 C1731 1.386 . S
H1729 C1745 0.930 . S
H1730 C1746 0.931 . S
C1731 H1719 0.929 . S
C1731 C1725 1.390 . S
C1731 C1728 1.386 . S
C1732 C1727 1.490 1_554 S
C1732 C1734 1.395 . S
C1732 C1735 1.403 . S
H1733 C1739 0.930 . S
C1734 H1720 0.930 1_554 S
C1734 C1732 1.395 . S
C1734 C1737 1.403 . S
C1735 C1732 1.403 . S
C1735 C1736 1.524 . S
C1735 C1739 1.400 . S
C1736 H1721 0.960 . S
C1736 H1722 0.960 . S
C1736 H1723 0.960 . S
C1736 C1735 1.524 . S
C1737 C1734 1.403 . S
C1737 C1738 1.392 . S
C1737 C1741 1.495 . S
C1738 C1737 1.392 . S
C1738 C1739 1.385 . S
C1738 C1740 1.478 . S
C1739 H1733 0.930 . S
C1739 C1735 1.400 . S
C1739 C1738 1.385 . S
C1740 C1738 1.478 . S
C1740 C1742 1.381 . S
C1740 C1746 1.383 . S
C1741 C1737 1.495 . S
C1741 H1747 0.959 1_554 S
C1741 H1748 0.961 . S
C1741 H1749 0.960 . S
C1742 C1740 1.381 . S
C1742 C1743 1.394 . S
C1742 H1750 0.930 . S
C1743 C1742 1.394 . S
C1743 C1744 1.383 . S
C1743 H1751 0.929 . S
C1744 C1743 1.383 . S
C1744 C1745 1.377 . S
C1745 H1729 0.930 . S
C1745 C1744 1.377 . S
C1745 C1746 1.379 . S
C1746 H1730 0.931 . S
C1746 C1740 1.383 . S
C1746 C1745 1.379 . S
H1747 C1741 0.959 1_556 S
H1748 C1741 0.961 . S
H1749 C1741 0.960 . S
H1750 C1742 0.930 . S
H1751 C1743 0.929 . S
H1752 C1760 0.929 . S
H1753 C1762 0.930 . S
H1754 C1764 0.930 . S
H1755 C1767 0.929 . S
H1756 C1770 0.930 . S
H1757 C1772 0.960 . S
H1758 C1772 0.960 . S
H1759 C1772 0.960 . S
C1760 H1752 0.929 . S
C1760 C1761 1.377 . S
C1760 C1762 1.384 . S
C1761 C1760 1.377 . S
C1761 C1767 1.390 . S
C1762 H1753 0.930 . S
C1762 C1760 1.384 . S
C1762 C1763 1.372 . S
C1763 C1762 1.372 . S
C1763 C1764 1.400 . S
C1763 C1768 1.490 . S
C1764 H1754 0.930 . S
C1764 C1763 1.400 . S
C1764 C1767 1.386 . S
H1765 C1781 0.930 . S
H1766 C1782 0.931 . S
C1767 H1755 0.929 . S
C1767 C1761 1.390 . S
C1767 C1764 1.386 . S
C1768 C1763 1.490 . S
C1768 C1770 1.395 . S
C1768 C1771 1.403 . S
H1769 C1775 0.930 . S
C1770 H1756 0.930 . S
C1770 C1768 1.395 . S
C1770 C1773 1.403 . S
C1771 C1768 1.403 . S
C1771 C1772 1.524 . S
C1771 C1775 1.400 . S
C1772 H1757 0.960 . S
C1772 H1758 0.960 . S
C1772 H1759 0.960 . S
C1772 C1771 1.524 . S
C1773 C1770 1.403 . S
C1773 C1774 1.392 . S
C1773 C1777 1.495 . S
C1774 C1773 1.392 . S
C1774 C1775 1.385 . S
C1774 C1776 1.478 . S
C1775 H1769 0.930 . S
C1775 C1771 1.400 . S
C1775 C1774 1.385 . S
C1776 C1774 1.478 . S
C1776 C1778 1.381 . S
C1776 C1782 1.383 . S
C1777 C1773 1.495 . S
C1777 H1783 0.959 . S
C1777 H1784 0.961 . S
C1777 H1785 0.960 . S
C1778 C1776 1.381 . S
C1778 C1779 1.394 . S
C1778 H1786 0.930 . S
C1779 C1778 1.394 . S
C1779 C1780 1.383 . S
C1779 H1787 0.929 . S
C1780 C1779 1.383 . S
C1780 C1781 1.377 . S
C1781 H1765 0.930 . S
C1781 C1780 1.377 . S
C1781 C1782 1.379 . S
C1782 H1766 0.931 . S
C1782 C1776 1.383 . S
C1782 C1781 1.379 . S
H1783 C1777 0.959 . S
H1784 C1777 0.961 . S
H1785 C1777 0.960 . S
H1786 C1778 0.930 . S
H1787 C1779 0.929 . S
H1788 C1796 0.929 . S
H1789 C1798 0.930 . S
H1790 C1800 0.930 . S
H1791 C1803 0.929 . S
H1792 C1806 0.930 . S
H1793 C1808 0.960 . S
H1794 C1808 0.960 . S
H1795 C1808 0.960 . S
C1796 H1788 0.929 . S
C1796 C1797 1.377 . S
C1796 C1798 1.384 . S
C1797 C1796 1.377 . S
C1797 C1803 1.390 . S
C1798 H1789 0.930 . S
C1798 C1796 1.384 . S
C1798 C1799 1.372 . S
C1799 C1798 1.372 . S
C1799 C1800 1.400 . S
C1799 C1804 1.490 . S
C1800 H1790 0.930 . S
C1800 C1799 1.400 . S
C1800 C1803 1.386 . S
H1801 C1817 0.930 . S
H1802 C1818 0.931 . S
C1803 H1791 0.929 . S
C1803 C1797 1.390 . S
C1803 C1800 1.386 . S
C1804 C1799 1.490 . S
C1804 C1806 1.395 . S
C1804 C1807 1.403 . S
H1805 C1811 0.930 . S
C1806 H1792 0.930 . S
C1806 C1804 1.395 . S
C1806 C1809 1.403 . S
C1807 C1804 1.403 . S
C1807 C1808 1.524 . S
C1807 C1811 1.400 . S
C1808 H1793 0.960 . S
C1808 H1794 0.960 . S
C1808 H1795 0.960 . S
C1808 C1807 1.524 . S
C1809 C1806 1.403 . S
C1809 C1810 1.392 . S
C1809 C1813 1.495 . S
C1810 C1809 1.392 . S
C1810 C1811 1.385 . S
C1810 C1812 1.478 . S
C1811 H1805 0.930 . S
C1811 C1807 1.400 . S
C1811 C1810 1.385 . S
C1812 C1810 1.478 . S
C1812 C1814 1.381 . S
C1812 C1818 1.383 . S
C1813 C1809 1.495 . S
C1813 H1819 0.959 . S
C1813 H1820 0.961 . S
C1813 H1821 0.960 . S
C1814 C1812 1.381 . S
C1814 C1815 1.394 . S
C1814 H1822 0.930 . S
C1815 C1814 1.394 . S
C1815 C1816 1.383 . S
C1815 H1823 0.929 . S
C1816 C1815 1.383 . S
C1816 C1817 1.377 . S
C1817 H1801 0.930 . S
C1817 C1816 1.377 . S
C1817 C1818 1.379 . S
C1818 H1802 0.931 . S
C1818 C1812 1.383 . S
C1818 C1817 1.379 . S
H1819 C1813 0.959 . S
H1820 C1813 0.961 . S
H1821 C1813 0.960 . S
H1822 C1814 0.930 . S
H1823 C1815 0.929 . S
H1824 C1832 0.929 . S
H1825 C1834 0.930 . S
H1826 C1836 0.930 . S
H1827 C1839 0.929 . S
H1828 C1842 0.930 . S
H1829 C1844 0.960 . S
H1830 C1844 0.960 . S
H1831 C1844 0.960 . S
C1832 H1824 0.929 . S
C1832 C1833 1.377 . S
C1832 C1834 1.384 . S
C1833 C1832 1.377 . S
C1833 C1839 1.390 . S
C1834 H1825 0.930 . S
C1834 C1832 1.384 . S
C1834 C1835 1.372 . S
C1835 C1834 1.372 . S
C1835 C1836 1.400 . S
C1835 C1840 1.490 . S
C1836 H1826 0.930 . S
C1836 C1835 1.400 . S
C1836 C1839 1.386 . S
H1837 C1853 0.930 . S
H1838 C1854 0.931 . S
C1839 H1827 0.929 . S
C1839 C1833 1.390 . S
C1839 C1836 1.386 . S
C1840 C1835 1.490 . S
C1840 C1842 1.395 . S
C1840 C1843 1.403 . S
H1841 C1847 0.930 . S
C1842 H1828 0.930 . S
C1842 C1840 1.395 . S
C1842 C1845 1.403 . S
C1843 C1840 1.403 . S
C1843 C1844 1.524 . S
C1843 C1847 1.400 . S
C1844 H1829 0.960 . S
C1844 H1830 0.960 . S
C1844 H1831 0.960 . S
C1844 C1843 1.524 . S
C1845 C1842 1.403 . S
C1845 C1846 1.392 . S
C1845 C1849 1.495 . S
C1846 C1845 1.392 . S
C1846 C1847 1.385 . S
C1846 C1848 1.478 . S
C1847 H1841 0.930 . S
C1847 C1843 1.400 . S
C1847 C1846 1.385 . S
C1848 C1846 1.478 . S
C1848 C1850 1.381 . S
C1848 C1854 1.383 . S
C1849 C1845 1.495 . S
C1849 H1855 0.959 . S
C1849 H1856 0.961 . S
C1849 H1857 0.960 . S
C1850 C1848 1.381 . S
C1850 C1851 1.394 . S
C1850 H1858 0.930 . S
C1851 C1850 1.394 . S
C1851 C1852 1.383 . S
C1851 H1859 0.929 . S
C1852 C1851 1.383 . S
C1852 C1853 1.377 . S
C1853 H1837 0.930 . S
C1853 C1852 1.377 . S
C1853 C1854 1.379 . S
C1854 H1838 0.931 . S
C1854 C1848 1.383 . S
C1854 C1853 1.379 . S
H1855 C1849 0.959 . S
H1856 C1849 0.961 . S
H1857 C1849 0.960 . S
H1858 C1850 0.930 . S
H1859 C1851 0.929 . S
H1860 C1868 0.929 . S
H1861 C1870 0.930 . S
H1862 C1872 0.930 . S
H1863 C1875 0.929 . S
H1864 C1878 0.930 . S
H1865 C1880 0.960 . S
H1866 C1880 0.960 . S
H1867 C1880 0.960 . S
C1868 H1860 0.929 . S
C1868 C1869 1.377 . S
C1868 C1870 1.384 . S
C1869 C1868 1.377 . S
C1869 C1875 1.390 . S
C1870 H1861 0.930 . S
C1870 C1868 1.384 . S
C1870 C1871 1.372 . S
C1871 C1870 1.372 . S
C1871 C1872 1.400 . S
C1871 C1876 1.490 . S
C1872 H1862 0.930 . S
C1872 C1871 1.400 . S
C1872 C1875 1.386 . S
H1873 C1889 0.930 . S
H1874 C1890 0.931 . S
C1875 H1863 0.929 . S
C1875 C1869 1.390 . S
C1875 C1872 1.386 . S
C1876 C1871 1.490 . S
C1876 C1878 1.395 . S
C1876 C1879 1.403 . S
H1877 C1883 0.930 . S
C1878 H1864 0.930 . S
C1878 C1876 1.395 . S
C1878 C1881 1.403 . S
C1879 C1876 1.403 . S
C1879 C1880 1.524 . S
C1879 C1883 1.400 . S
C1880 H1865 0.960 . S
C1880 H1866 0.960 . S
C1880 H1867 0.960 . S
C1880 C1879 1.524 . S
C1881 C1878 1.403 . S
C1881 C1882 1.392 . S
C1881 C1885 1.495 . S
C1882 C1881 1.392 . S
C1882 C1883 1.385 . S
C1882 C1884 1.478 . S
C1883 H1877 0.930 . S
C1883 C1879 1.400 . S
C1883 C1882 1.385 . S
C1884 C1882 1.478 . S
C1884 C1886 1.381 . S
C1884 C1890 1.383 . S
C1885 C1881 1.495 . S
C1885 H1891 0.959 . S
C1885 H1892 0.961 . S
C1885 H1893 0.960 . S
C1886 C1884 1.381 . S
C1886 C1887 1.394 . S
C1886 H1894 0.930 . S
C1887 C1886 1.394 . S
C1887 C1888 1.383 . S
C1887 H1895 0.929 . S
C1888 C1887 1.383 . S
C1888 C1889 1.377 . S
C1889 H1873 0.930 . S
C1889 C1888 1.377 . S
C1889 C1890 1.379 . S
C1890 H1874 0.931 . S
C1890 C1884 1.383 . S
C1890 C1889 1.379 . S
H1891 C1885 0.959 . S
H1892 C1885 0.961 . S
H1893 C1885 0.960 . S
H1894 C1886 0.930 . S
H1895 C1887 0.929 . S
H1896 C1904 0.929 . S
H1897 C1906 0.930 . S
H1898 C1908 0.930 . S
H1899 C1911 0.929 . S
H1900 C1914 0.930 . S
H1901 C1916 0.960 . S
H1902 C1916 0.960 . S
H1903 C1916 0.960 . S
C1904 H1896 0.929 . S
C1904 C1905 1.377 . S
C1904 C1906 1.384 . S
C1905 C1904 1.377 . S
C1905 C1911 1.390 . S
C1906 H1897 0.930 . S
C1906 C1904 1.384 . S
C1906 C1907 1.372 . S
C1907 C1906 1.372 . S
C1907 C1908 1.400 . S
C1907 C1912 1.490 . S
C1908 H1898 0.930 . S
C1908 C1907 1.400 . S
C1908 C1911 1.386 . S
H1909 C1925 0.930 . S
H1910 C1926 0.931 . S
C1911 H1899 0.929 . S
C1911 C1905 1.390 . S
C1911 C1908 1.386 . S
C1912 C1907 1.490 . S
C1912 C1914 1.395 . S
C1912 C1915 1.403 . S
H1913 C1919 0.930 . S
C1914 H1900 0.930 . S
C1914 C1912 1.395 . S
C1914 C1917 1.403 . S
C1915 C1912 1.403 . S
C1915 C1916 1.524 . S
C1915 C1919 1.400 . S
C1916 H1901 0.960 . S
C1916 H1902 0.960 . S
C1916 H1903 0.960 . S
C1916 C1915 1.524 . S
C1917 C1914 1.403 . S
C1917 C1918 1.392 . S
C1917 C1921 1.495 . S
C1918 C1917 1.392 . S
C1918 C1919 1.385 . S
C1918 C1920 1.478 . S
C1919 H1913 0.930 . S
C1919 C1915 1.400 . S
C1919 C1918 1.385 . S
C1920 C1918 1.478 . S
C1920 C1922 1.381 . S
C1920 C1926 1.383 . S
C1921 C1917 1.495 . S
C1921 H1927 0.959 . S
C1921 H1928 0.961 . S
C1921 H1929 0.960 . S
C1922 C1920 1.381 . S
C1922 C1923 1.394 . S
C1922 H1930 0.930 . S
C1923 C1922 1.394 . S
C1923 C1924 1.383 . S
C1923 H1931 0.929 1_556 S
C1924 C1923 1.383 . S
C1924 C1925 1.377 . S
C1925 H1909 0.930 . S
C1925 C1924 1.377 . S
C1925 C1926 1.379 . S
C1926 H1910 0.931 . S
C1926 C1920 1.383 . S
C1926 C1925 1.379 . S
H1927 C1921 0.959 . S
H1928 C1921 0.961 . S
H1929 C1921 0.960 . S
H1930 C1922 0.930 . S
H1931 C1923 0.929 1_554 S
H1932 C1940 0.929 . S
H1933 C1942 0.930 . S
H1934 C1944 0.930 . S
H1935 C1947 0.929 . S
H1936 C1950 0.930 . S
H1937 C1952 0.960 . S
H1938 C1952 0.960 . S
H1939 C1952 0.960 . S
C1940 H1932 0.929 . S
C1940 C1941 1.377 . S
C1940 C1942 1.384 . S
C1941 C1940 1.377 . S
C1941 C1947 1.390 . S
C1942 H1933 0.930 . S
C1942 C1940 1.384 . S
C1942 C1943 1.372 . S
C1943 C1942 1.372 . S
C1943 C1944 1.400 . S
C1943 C1948 1.490 . S
C1944 H1934 0.930 . S
C1944 C1943 1.400 . S
C1944 C1947 1.386 . S
H1945 C1961 0.930 . S
H1946 C1962 0.931 . S
C1947 H1935 0.929 . S
C1947 C1941 1.390 . S
C1947 C1944 1.386 . S
C1948 C1943 1.490 . S
C1948 C1950 1.395 . S
C1948 C1951 1.403 . S
H1949 C1955 0.930 . S
C1950 H1936 0.930 . S
C1950 C1948 1.395 . S
C1950 C1953 1.403 . S
C1951 C1948 1.403 . S
C1951 C1952 1.524 . S
C1951 C1955 1.400 . S
C1952 H1937 0.960 . S
C1952 H1938 0.960 . S
C1952 H1939 0.960 . S
C1952 C1951 1.524 . S
C1953 C1950 1.403 . S
C1953 C1954 1.392 . S
C1953 C1957 1.495 . S
C1954 C1953 1.392 . S
C1954 C1955 1.385 . S
C1954 C1956 1.478 . S
C1955 H1949 0.930 . S
C1955 C1951 1.400 . S
C1955 C1954 1.385 . S
C1956 C1954 1.478 . S
C1956 C1958 1.381 . S
C1956 C1962 1.383 . S
C1957 C1953 1.495 . S
C1957 H1963 0.959 . S
C1957 H1964 0.961 . S
C1957 H1965 0.960 . S
C1958 C1956 1.381 . S
C1958 C1959 1.394 . S
C1958 H1966 0.930 . S
C1959 C1958 1.394 . S
C1959 C1960 1.383 . S
C1959 H1967 0.929 . S
C1960 C1959 1.383 . S
C1960 C1961 1.377 . S
C1961 H1945 0.930 . S
C1961 C1960 1.377 . S
C1961 C1962 1.379 . S
C1962 H1946 0.931 . S
C1962 C1956 1.383 . S
C1962 C1961 1.379 . S
H1963 C1957 0.959 . S
H1964 C1957 0.961 . S
H1965 C1957 0.960 . S
H1966 C1958 0.930 . S
H1967 C1959 0.929 . S
H1968 C1976 0.929 . S
H1969 C1978 0.930 . S
H1970 C1980 0.930 . S
H1971 C1983 0.929 . S
H1972 C1986 0.930 . S
H1973 C1988 0.960 . S
H1974 C1988 0.960 . S
H1975 C1988 0.960 . S
C1976 H1968 0.929 . S
C1976 C1977 1.377 . S
C1976 C1978 1.384 . S
C1977 C1976 1.377 . S
C1977 C1983 1.390 . S
C1978 H1969 0.930 . S
C1978 C1976 1.384 . S
C1978 C1979 1.372 . S
C1979 C1978 1.372 . S
C1979 C1980 1.400 . S
C1979 C1984 1.490 . S
C1980 H1970 0.930 . S
C1980 C1979 1.400 . S
C1980 C1983 1.386 . S
H1981 C1997 0.930 . S
H1982 C1998 0.931 . S
C1983 H1971 0.929 . S
C1983 C1977 1.390 . S
C1983 C1980 1.386 . S
C1984 C1979 1.490 . S
C1984 C1986 1.395 . S
C1984 C1987 1.403 . S
H1985 C1991 0.930 . S
C1986 H1972 0.930 . S
C1986 C1984 1.395 . S
C1986 C1989 1.403 . S
C1987 C1984 1.403 . S
C1987 C1988 1.524 . S
C1987 C1991 1.400 . S
C1988 H1973 0.960 . S
C1988 H1974 0.960 . S
C1988 H1975 0.960 . S
C1988 C1987 1.524 . S
C1989 C1986 1.403 . S
C1989 C1990 1.392 . S
C1989 C1993 1.495 . S
C1990 C1989 1.392 . S
C1990 C1991 1.385 . S
C1990 C1992 1.478 . S
C1991 H1985 0.930 . S
C1991 C1987 1.400 . S
C1991 C1990 1.385 . S
C1992 C1990 1.478 . S
C1992 C1994 1.381 . S
C1992 C1998 1.383 . S
C1993 C1989 1.495 . S
C1993 H1999 0.959 . S
C1993 H2000 0.961 . S
C1993 H2001 0.960 . S
C1994 C1992 1.381 . S
C1994 C1995 1.394 . S
C1994 H2002 0.930 . S
C1995 C1994 1.394 . S
C1995 C1996 1.383 . S
C1995 H2003 0.929 . S
C1996 C1995 1.383 . S
C1996 C1997 1.377 . S
C1997 H1981 0.930 . S
C1997 C1996 1.377 . S
C1997 C1998 1.379 . S
C1998 H1982 0.931 . S
C1998 C1992 1.383 . S
C1998 C1997 1.379 . S
H1999 C1993 0.959 . S
H2000 C1993 0.961 . S
H2001 C1993 0.960 . S
H2002 C1994 0.930 . S
H2003 C1995 0.929 . S
H2004 C2012 0.929 . S
H2005 C2014 0.930 . S
H2006 C2016 0.930 . S
H2007 C2019 0.929 . S
H2008 C2022 0.930 . S
H2009 C2024 0.960 . S
H2010 C2024 0.960 . S
H2011 C2024 0.960 . S
C2012 H2004 0.929 . S
C2012 C2013 1.377 . S
C2012 C2014 1.384 . S
C2013 C2012 1.377 . S
C2013 C2019 1.390 . S
C2014 H2005 0.930 . S
C2014 C2012 1.384 . S
C2014 C2015 1.372 . S
C2015 C2014 1.372 . S
C2015 C2016 1.400 . S
C2015 C2020 1.490 . S
C2016 H2006 0.930 . S
C2016 C2015 1.400 . S
C2016 C2019 1.386 . S
H2017 C2033 0.930 . S
H2018 C2034 0.911 1_545 S
C2019 H2007 0.929 . S
C2019 C2013 1.390 . S
C2019 C2016 1.386 . S
C2020 C2015 1.490 . S
C2020 C2022 1.395 . S
C2020 C2023 1.403 . S
H2021 C2027 0.930 . S
C2022 H2008 0.930 . S
C2022 C2020 1.395 . S
C2022 C2025 1.403 . S
C2023 C2020 1.403 . S
C2023 C2024 1.524 . S
C2023 C2027 1.400 . S
C2024 H2009 0.960 . S
C2024 H2010 0.960 . S
C2024 H2011 0.960 . S
C2024 C2023 1.524 . S
C2025 C2022 1.403 . S
C2025 C2026 1.392 . S
C2025 C2029 1.479 1_545 S
C2026 C2025 1.392 . S
C2026 C2027 1.385 . S
C2026 C2028 1.478 . S
C2027 H2021 0.930 . S
C2027 C2023 1.400 . S
C2027 C2026 1.385 . S
C2028 C2026 1.478 . S
C2028 C2030 1.381 1_545 S
C2028 C2034 1.379 1_545 S
C2029 C2025 1.479 1_565 S
C2029 H2035 0.955 1_565 S
C2029 H2036 0.969 . S
C2029 H2037 0.972 . S
C2030 C2028 1.381 1_565 S
C2030 C2031 1.394 . S
C2030 H2038 0.930 . S
C2031 C2030 1.394 . S
C2031 C2032 1.383 . S
C2031 H2039 0.929 . S
C2032 C2031 1.383 . S
C2032 C2033 1.377 . S
C2033 H2017 0.930 . S
C2033 C2032 1.377 . S
C2033 C2034 1.403 . S
C2034 H2018 0.911 1_565 S
C2034 C2028 1.379 1_565 S
C2034 C2033 1.403 . S
H2035 C2029 0.955 1_545 S
H2036 C2029 0.969 . S
H2037 C2029 0.972 . S
H2038 C2030 0.930 . S
H2039 C2031 0.929 . S
C340 C152 1.622 1_556 S
C321 C50 1.626 . S
C376 C167 1.640 . S
C357 C61 1.679 . S
C393 C67 1.712 . S
C412 C180 1.691 . S
C448 C194 1.459 . S
C429 C41 1.490 . S
C484 C206 1.639 . S
C465 C95 1.703 . S
C520 C220 1.215 . S
C501 C113 1.234 . S
C537 C106 1.758 . S
C556 C234 1.711 . S
C592 C249 1.414 . S
C573 C86 1.412 . S
C609 C104 1.662 . S
C628 C265 1.642 . S
C664 C278 1.427 . S
C645 C88 1.442 . S
C681 C94 1.615 . S
C700 C263 1.576 . S
C736 C276 1.380 . S
C717 C112 1.377 . S
C753 C70 1.832 . S
C772 C292 1.804 . S
C789 C40 1.492 . S
C808 C291 1.479 . S
C825 C49 1.754 . S
C844 C290 1.693 . S
C861 C59 1.585 . S
C880 C293 1.578 . S
C897 C34 1.680 . S
C916 C195 1.659 . S
C933 C133 1.504 . S
C952 C193 1.455 . S
C988 C153 1.503 . S
C969 C139 1.512 . S
C1024 C164 1.738 . S
C1005 C77 1.765 . S
C1041 C43 1.534 . S
C1060 C209 1.528 . S
C1096 C250 1.888 . S
C1077 C103 1.895 . S
C1132 C207 1.409 . S
C1113 C85 1.423 . S
C1168 C235 1.376 . S
C1149 C115 1.382 . S
C1204 C236 1.623 . S
C1185 C131 1.626 . S
C1221 C142 1.681 . S
C1240 C251 1.665 . S
C1257 C76 1.712 . S
C1276 C208 1.701 . S
C1312 C222 1.466 . S
C1293 C122 1.491 . S
C1329 C32 1.703 . S
C1348 C178 1.662 . S
C1384 C192 1.231 . S
C1365 C5 1.233 . S
C1420 C150 1.701 . S
C1401 C16 1.758 . S
C1456 C165 1.405 . S
C1437 C23 1.409 . S
C1473 C14 1.663 . S
C1492 C279 1.640 . S
C1509 C25 1.440 . S
C1528 C264 1.410 . S
C1545 C31 1.614 . S
C1564 C277 1.564 . S
C1581 C4 1.376 . S
C1600 C262 1.348 . S
C1636 C306 1.805 . S
C1617 C79 1.832 . S
C1672 C305 1.459 . S
C1653 C121 1.491 . S
C1708 C304 1.688 . S
C1689 C130 1.754 . S
C1725 C140 1.583 . S
C1744 C307 1.546 . S
C1761 C97 1.681 . S
C1780 C223 1.664 . S
C1816 C221 1.466 . S
C1797 C52 1.505 . S
C1852 C237 1.471 . S
C1833 C58 1.509 . S
C1888 C248 1.736 . S
C1869 C68 1.766 . S
C1905 C124 1.529 . S
C1924 C181 1.496 . S
C1960 C166 1.875 . S
C1941 C13 1.895 . S
C1977 C22 1.430 . S
C1996 C179 1.432 . S
C2032 C151 1.361 . S
C2013 C7 1.385 . S
