# Generated by pormake.
# Topology tsx, (6,3)-cn, num edge types: 1
# Building blocks:
#     Node 0, Type 0, BuildingBlock: FUNLAD_clean_sbu_0, # of connection points: 6
#     Node 1, Type 0, BuildingBlock: FUNLAD_clean_sbu_0, # of connection points: 6
#     Node 2, Type 1, BuildingBlock: VETTIZ_charged_linker_0, # of connection points: 3
#     Node 3, Type 1, BuildingBlock: VETTIZ_charged_linker_0, # of connection points: 3
#     Node 4, Type 1, BuildingBlock: VETTIZ_charged_linker_0, # of connection points: 3
#     Node 5, Type 1, BuildingBlock: VETTIZ_charged_linker_0, # of connection points: 3
#     Edge 6, Type (0, 1), BuildingBlock: XIVTED_clean_linker_0, # of connection points: 2
#     Edge 7, Type (0, 1), BuildingBlock: XIVTED_clean_linker_0, # of connection points: 2
#     Edge 8, Type (0, 1), BuildingBlock: XIVTED_clean_linker_0, # of connection points: 2
#     Edge 9, Type (0, 1), BuildingBlock: XIVTED_clean_linker_0, # of connection points: 2
#     Edge 10, Type (0, 1), BuildingBlock: XIVTED_clean_linker_0, # of connection points: 2
#     Edge 11, Type (0, 1), BuildingBlock: XIVTED_clean_linker_0, # of connection points: 2
#     Edge 12, Type (0, 1), BuildingBlock: XIVTED_clean_linker_0, # of connection points: 2
#     Edge 13, Type (0, 1), BuildingBlock: XIVTED_clean_linker_0, # of connection points: 2
#     Edge 14, Type (0, 1), BuildingBlock: XIVTED_clean_linker_0, # of connection points: 2
#     Edge 15, Type (0, 1), BuildingBlock: XIVTED_clean_linker_0, # of connection points: 2
#     Edge 16, Type (0, 1), BuildingBlock: XIVTED_clean_linker_0, # of connection points: 2
#     Edge 17, Type (0, 1), BuildingBlock: XIVTED_clean_linker_0, # of connection points: 2
# Relax obj value: 0.169
# Max RMSD: 0.157
# Mean RMSD: 0.092
data_MOF--net-tsx--node1-FUNLAD_clean_sbu_0--node2-VETTIZ_charged_linker_0--edge1-XIVTED_clean_linker_0
_symmetry_space_group_name_H-M    P1
_symmetry_Int_Tables_number       1
_symmetry_cell_setting            triclinic
loop_
_symmetry_equiv_pos_as_xyz
'x, y, z'
_cell_length_a     22.921448
_cell_length_b     25.366167
_cell_length_c     50.598079
_cell_angle_alpha  90.977011
_cell_angle_beta   92.117732
_cell_angle_gamma 89.905356
loop_
_atom_site_label
_atom_site_type_symbol
_atom_site_fract_x
_atom_site_fract_y
_atom_site_fract_z
_atom_type_partial_charge
C0 C 0.98572 0.9482 0.99143 0.0
N1 N 0.04944 0.03439 0.05692 0.0
C2 C 0.99509 0.03807 0.0667 0.0
C3 C 0.98821 0.04471 0.09383 0.0
C4 C 0.03776 0.0473 0.11097 0.0
C5 C 0.09323 0.04241 0.10036 0.0
C6 C 0.0981 0.03609 0.07313 0.0
Zn7 Zn 0.05946 0.03016 0.01725 0.0
C8 C 0.1557 0.95712 0.00253 0.0
N9 N 0.08381 0.02448 0.93451 0.0
C10 C 0.03714 0.02106 0.91715 0.0
C11 C 0.13946 0.02439 0.92598 0.0
C12 C 0.14991 0.01939 0.89909 0.0
C13 C 0.10261 0.01561 0.88083 0.0
C14 C 0.04561 0.01707 0.89002 0.0
Zn15 Zn 0.07155 0.02802 0.97415 0.0
O16 O 0.99662 0.97148 0.01342 0.0
C17 C 0.97453 0.0993 0.98796 0.0
O18 O 0.01311 0.96127 0.97109 0.0
H19 H 0.17594 0.02773 0.94007 0.0
H20 H 0.95704 0.03652 0.05342 0.0
H21 H 0.99332 0.02091 0.92437 0.0
O22 O 0.99224 0.08819 0.01133 0.0
O23 O 0.99981 0.07871 0.9684 0.0
H24 H 0.14088 0.03353 0.06488 0.0
O25 O 0.12872 0.09527 0.97798 0.0
O26 O 0.12099 0.09022 0.02088 0.0
O27 O 0.14258 0.97684 0.98024 0.0
O28 O 0.12672 0.9708 0.02249 0.0
C29 C 0.14201 0.11263 0.00116 0.0
H30 H 0.94464 0.04766 0.10132 0.0
H31 H 0.1325 0.04475 0.1129 0.0
H32 H 0.19443 0.01882 0.8926 0.0
H33 H 0.00814 0.01389 0.8764 0.0
C34 C 0.36856 0.44405 0.48399 0.0
N35 N 0.42283 0.51788 0.55478 0.0
C36 C 0.36652 0.51467 0.56224 0.0
C37 C 0.35424 0.50668 0.58871 0.0
C38 C 0.40043 0.50203 0.60755 0.0
C39 C 0.45794 0.50765 0.59936 0.0
C40 C 0.46819 0.51533 0.57277 0.0
Zn41 Zn 0.44158 0.52083 0.51591 0.0
C42 C 0.53459 0.44455 0.50243 0.0
N43 N 0.48185 0.5236 0.4347 0.0
C44 C 0.44051 0.51909 0.41483 0.0
C45 C 0.53963 0.52586 0.42956 0.0
C46 C 0.558 0.52197 0.40367 0.0
C47 C 0.51656 0.51581 0.38275 0.0
C48 C 0.457 0.5152 0.38854 0.0
Zn49 Zn 0.46025 0.52236 0.47339 0.0
O50 O 0.37599 0.46477 0.50687 0.0
C51 C 0.36644 0.59763 0.48656 0.0
O52 O 0.39998 0.45896 0.46531 0.0
H53 H 0.57187 0.52918 0.44564 0.0
H54 H 0.33114 0.51677 0.54755 0.0
H55 H 0.39483 0.51743 0.41939 0.0
O56 O 0.38007 0.58227 0.50978 0.0
O57 O 0.39241 0.5779 0.4669 0.0
H58 H 0.51259 0.51792 0.5664 0.0
O59 O 0.52026 0.58515 0.48206 0.0
O60 O 0.50728 0.5779 0.52452 0.0
O61 O 0.52695 0.4669 0.48035 0.0
O62 O 0.50325 0.45809 0.52157 0.0
C63 C 0.53281 0.59977 0.50574 0.0
H64 H 0.30929 0.50236 0.59417 0.0
H65 H 0.49481 0.50549 0.61332 0.0
H66 H 0.60435 0.52188 0.40023 0.0
H67 H 0.42352 0.51124 0.37297 0.0
C68 C 0.02228 0.88799 0.44926 0.0
C69 C 0.08376 0.88854 0.45058 0.0
C70 C 0.11387 0.93306 0.4419 0.0
C71 C 0.02271 0.9717 0.42698 0.0
C72 C 0.99258 0.93115 0.43818 0.0
C73 C 0.92809 0.94298 0.43789 0.0
H74 H 0.74426 0.15629 0.42835 0.0
C75 C 0.98069 0.01098 0.41744 0.0
C76 C 0.92828 1.00058 0.42962 0.0
H77 H 0.80516 0.09368 0.50308 0.0
H78 H 0.86702 0.03072 0.47985 0.0
H79 H 0.86598 0.16895 0.40661 0.0
H80 H 0.75263 0.03415 0.39018 0.0
H81 H 0.78755 0.05312 0.36148 0.0
H82 H 0.73663 0.0977 0.37655 0.0
H83 H 0.79466 0.17557 0.39085 0.0
H84 H 0.85503 0.15578 0.37219 0.0
C85 C 0.90228 0.93419 0.46485 0.0
C86 C 0.89625 0.90828 0.41661 0.0
C87 C 0.00942 0.07301 0.32424 0.0
C88 C 0.96869 0.08727 0.30413 0.0
C89 C 0.91024 0.0966 0.31061 0.0
C90 C 0.8924 0.0905 0.3365 0.0
C91 C 0.93335 0.07561 0.35622 0.0
C92 C 0.99063 0.06603 0.34997 0.0
C93 C 0.02625 0.04461 0.37303 0.0
C94 C 0.97927 0.03913 0.39338 0.0
C95 C 0.92584 0.05975 0.38363 0.0
C96 C 0.07235 0.08621 0.38165 0.0
C97 C 0.054 0.99138 0.36504 0.0
C98 C 0.76815 0.12671 0.43953 0.0
C99 C 0.76877 0.12835 0.46729 0.0
C100 C 0.80229 0.09133 0.48168 0.0
C101 C 0.83697 0.05446 0.46837 0.0
C102 C 0.83636 0.05386 0.4406 0.0
C103 C 0.80373 0.09055 0.42655 0.0
C104 C 0.82159 0.09339 0.39817 0.0
C105 C 0.87583 0.05872 0.39929 0.0
C106 C 0.87865 0.03063 0.4228 0.0
C107 C 0.83509 0.15139 0.39145 0.0
C108 C 0.77211 0.06866 0.38047 0.0
H109 H 0.10717 0.00928 0.42474 0.0
H110 H 0.99837 0.85515 0.45691 0.0
H111 H 0.84906 0.91845 0.41519 0.0
H112 H 0.9004 0.86587 0.42157 0.0
H113 H 0.91479 0.914 0.39686 0.0
H114 H 0.92543 0.95948 0.47968 0.0
H115 H 0.90725 0.89249 0.4709 0.0
H116 H 0.85494 0.94358 0.46427 0.0
H117 H 0.05466 0.06598 0.31983 0.0
H118 H 0.87762 0.10639 0.29545 0.0
H119 H 0.84721 0.09662 0.34019 0.0
H120 H 0.0515 0.12531 0.38491 0.0
H121 H 0.10517 0.09046 0.3662 0.0
H122 H 0.09569 0.07598 0.40028 0.0
H123 H 0.01989 0.96057 0.36185 0.0
H124 H 0.08641 0.97771 0.38004 0.0
H125 H 0.07817 0.9947 0.34654 0.0
H126 H 0.16109 0.93476 0.44354 0.0
C127 C 0.08333 0.97517 0.43045 0.0
C128 C 0.10151 0.10055 0.51573 0.0
C129 C 0.15477 0.12708 0.52074 0.0
C130 C 0.18869 0.11553 0.54366 0.0
C131 C 0.11546 0.05417 0.55715 0.0
C132 C 0.08328 0.0634 0.53401 0.0
C133 C 0.02901 0.02978 0.53187 0.0
H134 H 0.87201 0.82951 0.58066 0.0
C135 C 0.08434 0.01496 0.57245 0.0
C136 C 0.03416 0.99951 0.5576 0.0
H137 H 0.83025 0.92221 0.51156 0.0
H138 H 0.91464 0.97796 0.52189 0.0
H139 H 0.01455 0.82657 0.57781 0.0
H140 H 0.88988 0.9239 0.61633 0.0
H141 H 0.95404 0.93264 0.63585 0.0
H142 H 0.92157 0.86798 0.63249 0.0
H143 H 0.96966 0.80659 0.60423 0.0
H144 H 0.0394 0.83762 0.61092 0.0
C145 C 0.03374 0.99255 0.5075 0.0
C146 C 0.97472 0.06642 0.5308 0.0
C147 C 0.14484 0.9824 0.66812 0.0
C148 C 0.12151 0.94983 0.68726 0.0
C149 C 0.08071 0.91069 0.67933 0.0
C150 C 0.05989 0.90685 0.65303 0.0
C151 C 0.08004 0.94254 0.63453 0.0
C152 C 0.12371 0.97792 0.64186 0.0
C153 C 0.14106 0.01134 0.61913 0.0
C154 C 0.09627 0.9938 0.59786 0.0
C155 C 0.0607 0.95371 0.60711 0.0
C156 C 0.20427 0.99624 0.61193 0.0
C157 C 0.13336 0.07012 0.62706 0.0
C158 C 0.88101 0.86144 0.56748 0.0
C159 C 0.8453 0.87035 0.54478 0.0
C160 C 0.85832 0.91317 0.52856 0.0
C161 C 0.90714 0.94528 0.53441 0.0
C162 C 0.94373 0.9342 0.55641 0.0
C163 C 0.92928 0.89401 0.57301 0.0
C164 C 0.96894 0.89217 0.59727 0.0
C165 C 0.01149 0.93604 0.59167 0.0
C166 C 0.99724 0.9599 0.56744 0.0
C167 C 0.99973 0.83782 0.59783 0.0
C168 C 0.93207 0.90447 0.62182 0.0
H169 H 0.19641 0.07323 0.57924 0.0
H170 H 0.07485 0.10864 0.49814 0.0
H171 H 0.93827 0.0508 0.54208 0.0
H172 H 0.95915 0.0733 0.51009 0.0
H173 H 0.98451 0.10561 0.54013 0.0
H174 H 0.07873 0.97639 0.50627 0.0
H175 H 0.02336 0.01371 0.48886 0.0
H176 H 0.00497 0.95789 0.50851 0.0
H177 H 0.17707 0.0121 0.67373 0.0
H178 H 0.06224 0.88513 0.69377 0.0
H179 H 0.02738 0.87751 0.6483 0.0
H180 H 0.21819 0.9579 0.62049 0.0
H181 H 0.23621 0.0264 0.61934 0.0
H182 H 0.20856 0.99079 0.59029 0.0
H183 H 0.0901 0.07661 0.63586 0.0
H184 H 0.13503 0.09683 0.61015 0.0
H185 H 0.16763 0.08274 0.64191 0.0
H186 H 0.2296 0.1359 0.54789 0.0
C187 C 0.16928 0.07939 0.56189 0.0
C188 C 0.60324 0.36468 0.95553 0.0
C189 C 0.62514 0.32008 0.94212 0.0
C190 C 0.60194 0.30751 0.91655 0.0
C191 C 0.53731 0.38283 0.91806 0.0
C192 C 0.55963 0.3955 0.94307 0.0
C193 C 0.5313 0.44425 0.95424 0.0
H194 H 0.34575 0.65059 0.93476 0.0
C195 C 0.4933 0.42283 0.91051 0.0
C196 C 0.4888 0.4588 0.93174 0.0
H197 H 0.44501 0.61492 0.0064 0.0
H198 H 0.48242 0.53494 0.98539 0.0
H199 H 0.44069 0.6252 0.89588 0.0
H200 H 0.30087 0.52991 0.92292 0.0
H201 H 0.30384 0.51981 0.88851 0.0
H202 H 0.28995 0.58505 0.90151 0.0
H203 H 0.3676 0.63116 0.88238 0.0
H204 H 0.41906 0.58509 0.86875 0.0
C205 C 0.57898 0.48667 0.9589 0.0
C206 C 0.49951 0.42904 0.97938 0.0
C207 C 0.40731 0.42109 0.81681 0.0
C208 C 0.3745 0.45836 0.80229 0.0
C209 C 0.34992 0.50149 0.81593 0.0
C210 C 0.36075 0.50892 0.84317 0.0
C211 C 0.39728 0.47337 0.85693 0.0
C212 C 0.41907 0.42989 0.84382 0.0
C213 C 0.46047 0.39838 0.86102 0.0
C214 C 0.46041 0.4305 0.88659 0.0
C215 C 0.42306 0.47405 0.88413 0.0
C216 C 0.52116 0.39834 0.8483 0.0
C217 C 0.4336 0.34298 0.86435 0.0
C218 C 0.37547 0.62549 0.946 0.0
C219 C 0.39311 0.63909 0.97205 0.0
C220 C 0.4311 0.60513 0.98623 0.0
C221 C 0.45274 0.55903 0.97406 0.0
C222 C 0.43548 0.54662 0.94769 0.0
C223 C 0.39662 0.57935 0.93437 0.0
C224 C 0.38198 0.5603 0.90671 0.0
C225 C 0.41812 0.51039 0.90552 0.0
C226 C 0.4501 0.50262 0.92939 0.0
C227 C 0.40287 0.60247 0.88727 0.0
C228 C 0.31567 0.54835 0.90453 0.0
H229 H 0.5425 0.32621 0.88522 0.0
H230 H 0.61931 0.37527 0.9753 0.0
H231 H 0.45933 0.45238 0.98172 0.0
H232 H 0.52854 0.43356 -0.00267 0.0
H233 H 0.48455 0.38733 0.97831 0.0
H234 H 0.5609 0.52616 0.96295 0.0
H235 H 0.6053 0.49051 0.941 0.0
H236 H 0.6092 0.47583 0.9756 0.0
H237 H 0.42612 0.38697 0.80718 0.0
H238 H 0.32488 0.53121 0.80539 0.0
H239 H 0.34215 0.54329 0.8522 0.0
H240 H 0.52792 0.43497 0.83701 0.0
H241 H 0.52565 0.36443 0.83434 0.0
H242 H 0.55796 0.39794 0.863 0.0
H243 H 0.38533 0.34554 0.86571 0.0
H244 H 0.44881 0.32384 0.88281 0.0
H245 H 0.44299 0.31668 0.84724 0.0
H246 H 0.61858 0.27442 0.90531 0.0
C247 C 0.55797 0.33814 0.90465 0.0
C248 C 0.67747 0.64381 0.03764 0.0
C249 C 0.73626 0.65825 0.04251 0.0
C250 C 0.76901 0.63353 0.06295 0.0
C251 C 0.68361 0.58578 0.07517 0.0
C252 C 0.65258 0.60601 0.05374 0.0
C253 C 0.59626 0.57611 0.04827 0.0
H254 H 0.44044 0.35545 0.07364 0.0
C255 C 0.64967 0.54357 0.08611 0.0
C256 C 0.60084 0.53401 0.0694 0.0
H257 H 0.39415 0.47601 0.01744 0.0
H258 H 0.47965 0.52697 0.03224 0.0
H259 H 0.58358 0.35642 0.06853 0.0
H260 H 0.45542 0.40419 0.11759 0.0
H261 H 0.50952 0.44458 0.13372 0.0
H262 H 0.51519 0.37347 0.13374 0.0
H263 H 0.53926 0.32317 0.09169 0.0
H264 H 0.60881 0.35112 0.10195 0.0
C265 C 0.59698 0.55228 0.02 0.0
C266 C 0.54486 0.61426 0.0528 0.0
C267 C 0.65955 0.49813 0.1827 0.0
C268 C 0.63763 0.45452 0.19616 0.0
C269 C 0.62248 0.40837 0.18147 0.0
C270 C 0.62137 0.40825 0.15384 0.0
C271 C 0.63472 0.45469 0.14095 0.0
C272 C 0.65893 0.49678 0.15496 0.0
C273 C 0.67922 0.53901 0.13681 0.0
C274 C 0.65809 0.51606 0.10994 0.0
C275 C 0.62684 0.46939 0.11322 0.0
C276 C 0.74609 0.54438 0.14025 0.0
C277 C 0.64851 0.59173 0.14296 0.0
C278 C 0.4488 0.39281 0.06442 0.0
C279 C 0.41166 0.41135 0.04398 0.0
C280 C 0.42325 0.46046 0.03277 0.0
C281 C 0.47271 0.48977 0.0413 0.0
C282 C 0.5107 0.46952 0.06111 0.0
C283 C 0.49701 0.42279 0.07304 0.0
C284 C 0.53815 0.40966 0.09577 0.0
C285 C 0.58024 0.45583 0.09507 0.0
C286 C 0.56491 0.4899 0.07423 0.0
C287 C 0.5691 0.3571 0.08929 0.0
C288 C 0.50324 0.408 0.12156 0.0
H289 H 0.77056 0.57367 0.09206 0.0
H290 H 0.65256 0.65969 0.02099 0.0
H291 H 0.50357 0.59358 0.05617 0.0
H292 H 0.53827 0.64103 0.03579 0.0
H293 H 0.55354 0.63911 0.07085 0.0
H294 H 0.64082 0.53586 0.0159 0.0
H295 H 0.58643 0.58268 0.00501 0.0
H296 H 0.56641 0.51919 0.01694 0.0
H297 H 0.67355 0.53357 0.19329 0.0
H298 H 0.60926 0.37299 0.19132 0.0
H299 H 0.6096 0.37258 0.1433 0.0
H300 H 0.76053 0.54158 0.1614 0.0
H301 H 0.76101 0.58366 0.13405 0.0
H302 H 0.76868 0.5128 0.12906 0.0
H303 H 0.60025 0.58696 0.1417 0.0
H304 H 0.66064 0.6222 0.12865 0.0
H305 H 0.66135 0.6066 0.16312 0.0
H306 H 0.81497 0.6423 0.06629 0.0
C307 C 0.74313 0.5963 0.07885 0.0
H308 H 0.16541 0.16264 0.04814 0.0
H309 H 0.3817 0.37764 0.99339 0.0
H310 H 0.20052 0.17187 0.96506 0.0
H311 H 0.32903 0.36893 0.0741 0.0
H312 H 0.31084 0.30795 0.98093 0.0
H313 H 0.22218 0.24168 0.0566 0.0
C314 C 0.1853 0.18121 0.03158 0.0
C315 C 0.17842 0.16022 0.00582 0.0
C316 C 0.31427 0.3219 0.00127 0.0
C317 C 0.24407 0.25188 0.0155 0.0
C318 C 0.35432 0.36185 0.00832 0.0
C319 C 0.36157 0.37834 0.03486 0.0
C320 C 0.28152 0.29877 0.02095 0.0
C321 C 0.32527 0.35672 0.05349 0.0
C322 C 0.21761 0.22678 0.03644 0.0
C323 C 0.20499 0.18658 0.98524 0.0
N324 N 0.28732 0.31778 0.04623 0.0
N325 N 0.23705 0.23102 0.99054 0.0
H326 H 0.24779 0.94705 0.9708 0.0
H327 H 0.33082 0.65621 0.01691 0.0
H328 H 0.16935 0.87507 0.03743 0.0
H329 H 0.40681 0.73646 0.95219 0.0
H330 H 0.2816 0.7389 0.02956 0.0
H331 H 0.31647 0.87421 0.96855 0.0
C332 C 0.24547 0.91603 0.98519 0.0
C333 C 0.20243 0.91685 0.00416 0.0
C334 C 0.3099 0.73858 0.0129 0.0
C335 C 0.28068 0.83217 0.00141 0.0
C336 C 0.33818 0.69158 0.0058 0.0
C337 C 0.3724 0.68968 0.98338 0.0
C338 C 0.31625 0.78367 -0.00258 0.0
C339 C 0.38032 0.73627 0.96948 0.0
C340 C 0.28478 0.87429 0.9839 0.0
C341 C 0.20189 0.87584 0.02247 0.0
N342 N 0.3521 0.78106 0.97657 0.0
N343 N 0.23986 0.83459 0.02038 0.0
H344 H 0.8803 0.95419 0.01309 0.0
H345 H 0.83934 0.64967 0.01729 0.0
H346 H 0.98831 0.85005 0.96769 0.0
H347 H 0.69764 0.75737 0.03121 0.0
H348 H 0.8929 0.72088 -0.00312 0.0
H349 H 0.81057 0.88273 0.01788 0.0
C350 C 0.88869 0.91628 0.00376 0.0
C351 C 0.94002 0.9076 0.99013 0.0
C352 C 0.84962 0.72869 0.0039 0.0
C353 C 0.8613 0.82533 -0.00394 0.0
C354 C 0.81924 0.68822 0.01567 0.0
C355 C 0.76447 0.69808 0.02624 0.0
C356 C 0.82549 0.77955 0.00325 0.0
C357 C 0.7399 0.74835 0.02337 0.0
C358 C 0.84885 0.87558 0.00642 0.0
C359 C 0.94903 0.85806 0.97832 0.0
N360 N 0.7711 0.78756 0.01261 0.0
N361 N 0.91055 0.81822 0.98205 0.0
H362 H 0.89974 0.09607 0.94522 0.0
H363 H 0.71997 0.35174 0.97384 0.0
H364 H 0.93064 0.17772 0.01994 0.0
H365 H 0.64001 0.213 0.93752 0.0
H366 H 0.80385 0.29754 0.9881 0.0
H367 H 0.8119 0.14895 0.93752 0.0
C368 C 0.88821 0.12542 0.95994 0.0
C369 C 0.92248 0.13265 0.98324 0.0
C370 C 0.76748 0.27922 0.97721 0.0
C371 C 0.82228 0.19348 0.97439 0.0
C372 C 0.71945 0.30994 0.96915 0.0
C373 C 0.67309 0.28726 0.95392 0.0
C374 C 0.76948 0.22587 0.96955 0.0
C375 C 0.6754 0.23282 0.94836 0.0
C376 C 0.83789 0.15524 0.95561 0.0
C377 C 0.90519 0.17096 0.00175 0.0
N378 N 0.72315 0.20428 0.95575 0.0
N379 N 0.85641 0.20054 -0.00319 0.0
H380 H 0.56619 0.6431 0.55385 0.0
H381 H 0.80864 0.8319 0.49587 0.0
H382 H 0.59919 0.65231 0.4706 0.0
H383 H 0.76783 0.82729 0.57841 0.0
H384 H 0.73023 0.76848 0.48583 0.0
H385 H 0.63894 0.7118 0.56293 0.0
C386 C 0.58869 0.65959 0.53745 0.0
C387 C 0.57657 0.64178 0.51142 0.0
C388 C 0.73832 0.78151 0.50612 0.0
C389 C 0.66017 0.72069 0.52171 0.0
C390 C 0.78284 0.81801 0.51185 0.0
C391 C 0.79522 0.83472 0.53807 0.0
C392 C 0.70588 0.76152 0.52674 0.0
C393 C 0.76069 0.81483 0.55798 0.0
C394 C 0.63022 0.69894 0.54266 0.0
C395 C 0.60711 0.66477 0.49098 0.0
N396 N 0.71786 0.77921 0.55192 0.0
N397 N 0.64759 0.70292 0.49657 0.0
H398 H 0.53171 0.3575 0.53399 0.0
H399 H 0.80531 0.22844 0.46342 0.0
H400 H 0.63398 0.43295 0.4756 0.0
H401 H 0.67589 0.13436 0.50029 0.0
H402 H 0.75631 0.30825 0.47856 0.0
H403 H 0.59654 0.28008 0.53174 0.0
C404 C 0.56848 0.35816 0.52115 0.0
C405 C 0.57741 0.40132 0.50477 0.0
C406 C 0.73881 0.27027 0.48365 0.0
C407 C 0.65126 0.31376 0.50225 0.0
C408 C 0.76685 0.22483 0.47509 0.0
C409 C 0.74395 0.17516 0.48041 0.0
C410 C 0.68707 0.26612 0.49745 0.0
C411 C 0.69444 0.17222 0.49576 0.0
C412 C 0.6051 0.314 0.51977 0.0
C413 C 0.62528 0.40024 0.48835 0.0
N414 N 0.66694 0.21731 0.5035 0.0
N415 N 0.6602 0.35714 0.48745 0.0
H416 H 0.264 0.43539 0.50688 0.0
H417 H 0.25453 0.13157 0.49321 0.0
H418 H 0.37678 0.35463 0.45314 0.0
H419 H 0.10076 0.22082 0.51153 0.0
H420 H 0.29796 0.21129 0.47553 0.0
H421 H 0.20098 0.35781 0.50675 0.0
C422 C 0.27484 0.4015 0.49467 0.0
C423 C 0.3257 0.4011 0.48013 0.0
C424 C 0.25405 0.21316 0.4827 0.0
C425 C 0.25467 0.31177 0.48036 0.0
C426 C 0.2293 0.16773 0.49271 0.0
C427 C 0.17415 0.16996 0.50377 0.0
C428 C 0.22404 0.26132 0.48455 0.0
C429 C 0.1433 0.21765 0.50301 0.0
C430 C 0.23878 0.35732 0.49451 0.0
C431 C 0.33782 0.35637 0.46459 0.0
N432 N 0.16922 0.26184 0.49415 0.0
N433 N 0.30324 0.31288 0.46559 0.0
H434 H 0.30187 0.61703 0.44131 0.0
H435 H 0.16523 0.88447 0.49121 0.0
H436 H 0.3267 0.66963 0.52252 0.0
H437 H 0.07984 0.78891 0.43012 0.0
H438 H 0.23053 0.81026 0.50184 0.0
H439 H 0.22657 0.68467 0.43485 0.0
C440 C 0.29149 0.64285 0.45776 0.0
C441 C 0.3206 0.63789 0.48246 0.0
C442 C 0.19694 0.80535 0.48638 0.0
C443 C 0.23506 0.71535 0.47515 0.0
C444 C 0.15985 0.8475 0.48035 0.0
C445 C 0.11731 0.84237 0.45985 0.0
C446 C 0.19226 0.75845 0.4713 0.0
C447 C 0.11195 0.79401 0.4462 0.0
C448 C 0.24829 0.68111 0.45411 0.0
C449 C 0.30519 0.67212 0.50317 0.0
N450 N 0.14968 0.75405 0.45188 0.0
N451 N 0.26387 0.70987 0.49897 0.0
H452 H 0.09661 0.99748 0.15139 0.0
H453 H 0.93392 0.15605 0.26524 0.0
H454 H 0.96562 0.11656 0.13592 0.0
H455 H 0.04085 0.01818 0.27906 0.0
H456 H 0.95422 0.14939 0.2182 0.0
H457 H 0.08576 0.01183 0.19882 0.0
C458 C 0.06579 0.02685 0.158 0.0
C459 C 0.03173 0.0557 0.13974 0.0
C460 C 0.97353 0.12085 0.23159 0.0
C461 C 0.01894 0.0722 0.1939 0.0
C462 C 0.96188 0.12456 0.25842 0.0
C463 C 0.98547 0.08749 0.27612 0.0
C464 C 0.00909 0.07983 0.22242 0.0
C465 C 0.02224 0.04805 0.26624 0.0
C466 C 0.05944 0.03488 0.18505 0.0
C467 C 0.99208 0.09292 0.14936 0.0
N468 N 0.03265 0.04511 0.24004 0.0
N469 N 0.98674 0.10011 0.17581 0.0
H470 H 0.0568 0.07408 0.84043 0.0
H471 H 0.15164 0.88037 0.72642 0.0
H472 H 0.17095 0.94241 0.8568 0.0
H473 H 0.11467 0.04462 0.71266 0.0
H474 H 0.15476 0.89891 0.77425 0.0
H475 H 0.07137 0.06072 0.79304 0.0
C476 C 0.08501 0.04245 0.83395 0.0
C477 C 0.11267 0.00919 0.85234 0.0
C478 C 0.14695 0.93096 0.7607 0.0
C479 C 0.12915 0.99342 0.79848 0.0
C480 C 0.14513 0.92041 0.73352 0.0
C481 C 0.13299 0.96108 0.71571 0.0
C482 C 0.13512 0.98221 0.76999 0.0
C483 C 0.12472 0.0123 0.72578 0.0
C484 C 0.09364 0.03506 0.80703 0.0
C485 C 0.14912 0.96895 0.84311 0.0
N486 N 0.12503 0.02129 0.7523 0.0
N487 N 0.1558 0.96171 0.81673 0.0
H488 H 0.31372 0.54048 0.63886 0.0
H489 H 0.46002 0.42473 0.76962 0.0
H490 H 0.46152 0.43466 0.63971 0.0
H491 H 0.28459 0.48773 0.76761 0.0
H492 H 0.4601 0.42821 0.72187 0.0
H493 H 0.3008 0.52249 0.68572 0.0
C494 C 0.34308 0.51313 0.6488 0.0
C495 C 0.38939 0.48972 0.63546 0.0
C496 C 0.42124 0.44071 0.7318 0.0
C497 C 0.37514 0.46943 0.68893 0.0
C498 C 0.42087 0.43828 0.7592 0.0
C499 C 0.37206 0.45577 0.77289 0.0
C500 C 0.37293 0.46168 0.71777 0.0
C501 C 0.32355 0.47455 0.75801 0.0
C502 C 0.33572 0.50297 0.67553 0.0
C503 C 0.42624 0.45477 0.64936 0.0
N504 N 0.32542 0.47753 0.73124 0.0
N505 N 0.41861 0.44607 0.67535 0.0
H506 H 0.60703 0.56372 0.35824 0.0
H507 H 0.5442 0.41319 0.22054 0.0
H508 H 0.47063 0.44808 0.34478 0.0
H509 H 0.6989 0.50716 0.2367 0.0
H510 H 0.51692 0.42637 0.266 0.0
H511 H 0.64057 0.54567 0.31367 0.0
C512 C 0.58417 0.53447 0.34595 0.0
C513 C 0.53578 0.50746 0.35529 0.0
C514 C 0.55711 0.44381 0.25972 0.0
C515 C 0.57377 0.48694 0.30422 0.0
C516 C 0.57319 0.43583 0.23373 0.0
C517 C 0.6243 0.45881 0.22464 0.0
C518 C 0.59187 0.47555 0.2769 0.0
C519 C 0.65884 0.48913 0.24267 0.0
C520 C 0.60333 0.52427 0.3205 0.0
C521 C 0.50743 0.47055 0.33833 0.0
N522 N 0.64183 0.49685 0.26793 0.0
N523 N 0.52684 0.46143 0.31365 0.0
loop_
_geom_bond_atom_site_label_1
_geom_bond_atom_site_label_2
_geom_bond_distance
_geom_bond_site_symmetry_2
_ccdc_geom_bond_type
C0 O16 1.251 . S
C0 O18 1.254 1_554 S
N1 C2 1.333 1_445 S
N1 C6 1.307 . S
N1 Zn7 2.020 . S
C2 N1 1.333 1_665 S
C2 C3 1.379 . S
C2 H20 0.952 . S
C3 C2 1.379 . S
C3 C4 1.390 1_665 S
C3 H30 0.949 . S
C4 C3 1.390 1_445 S
C4 C5 1.357 . S
C5 C4 1.357 . S
C5 C6 1.370 . S
C5 H31 0.950 . S
C6 N1 1.307 . S
C6 C5 1.370 . S
C6 H24 0.948 . S
Zn7 N1 2.020 . S
Zn7 O16 2.039 1_445 S
Zn7 O22 2.034 1_455 S
Zn7 O26 2.025 . S
Zn7 O28 2.024 1_545 S
C8 O27 1.246 1_554 S
C8 O28 1.249 . S
N9 C10 1.307 1_445 S
N9 C11 1.333 . S
N9 Zn15 2.020 . S
C10 N9 1.307 1_665 S
C10 C14 1.370 . S
C10 H21 0.948 . S
C11 N9 1.333 . S
C11 C12 1.379 . S
C11 H19 0.952 . S
C12 C11 1.379 . S
C12 C13 1.390 . S
C12 H32 0.949 . S
C13 C12 1.390 . S
C13 C14 1.357 1_445 S
C14 C10 1.370 . S
C14 C13 1.357 1_665 S
C14 H33 0.950 . S
Zn15 N9 2.020 . S
Zn15 O18 2.025 1_445 S
Zn15 O23 2.024 1_455 S
Zn15 O25 2.039 . S
Zn15 O27 2.034 1_545 S
O16 C0 1.251 . S
O16 Zn7 2.039 1_665 S
C17 O22 1.246 . S
C17 O23 1.249 1_554 S
O18 C0 1.254 1_556 S
O18 Zn15 2.025 1_665 S
H19 C11 0.952 . S
H20 C2 0.952 . S
H21 C10 0.948 . S
O22 Zn7 2.034 1_655 S
O22 C17 1.246 . S
O23 Zn15 2.024 1_655 S
O23 C17 1.249 1_556 S
H24 C6 0.948 . S
O25 Zn15 2.039 . S
O25 C29 1.251 1_556 S
O26 Zn7 2.025 . S
O26 C29 1.254 . S
O27 C8 1.246 1_556 S
O27 Zn15 2.034 1_565 S
O28 Zn7 2.024 1_565 S
O28 C8 1.249 . S
C29 O25 1.251 1_554 S
C29 O26 1.254 . S
H30 C3 0.949 . S
H31 C5 0.950 . S
H32 C12 0.949 . S
H33 C14 0.950 . S
C34 O50 1.251 . S
C34 O52 1.254 . S
N35 C36 1.333 . S
N35 C40 1.307 . S
N35 Zn41 2.020 . S
C36 N35 1.333 . S
C36 C37 1.379 . S
C36 H54 0.952 . S
C37 C36 1.379 . S
C37 C38 1.390 . S
C37 H64 0.949 . S
C38 C37 1.390 . S
C38 C39 1.357 . S
C39 C38 1.357 . S
C39 C40 1.370 . S
C39 H65 0.950 . S
C40 N35 1.307 . S
C40 C39 1.370 . S
C40 H58 0.948 . S
Zn41 N35 2.020 . S
Zn41 O50 2.039 . S
Zn41 O56 2.034 . S
Zn41 O60 2.025 . S
Zn41 O62 2.024 . S
C42 O61 1.246 . S
C42 O62 1.249 . S
N43 C44 1.307 . S
N43 C45 1.333 . S
N43 Zn49 2.020 . S
C44 N43 1.307 . S
C44 C48 1.370 . S
C44 H55 0.948 . S
C45 N43 1.333 . S
C45 C46 1.379 . S
C45 H53 0.952 . S
C46 C45 1.379 . S
C46 C47 1.390 . S
C46 H66 0.949 . S
C47 C46 1.390 . S
C47 C48 1.357 . S
C48 C44 1.370 . S
C48 C47 1.357 . S
C48 H67 0.950 . S
Zn49 N43 2.020 . S
Zn49 O52 2.025 . S
Zn49 O57 2.024 . S
Zn49 O59 2.039 . S
Zn49 O61 2.034 . S
O50 C34 1.251 . S
O50 Zn41 2.039 . S
C51 O56 1.246 . S
C51 O57 1.249 . S
O52 C34 1.254 . S
O52 Zn49 2.025 . S
H53 C45 0.952 . S
H54 C36 0.952 . S
H55 C44 0.948 . S
O56 Zn41 2.034 . S
O56 C51 1.246 . S
O57 Zn49 2.024 . S
O57 C51 1.249 . S
H58 C40 0.948 . S
O59 Zn49 2.039 . S
O59 C63 1.251 . S
O60 Zn41 2.025 . S
O60 C63 1.254 . S
O61 C42 1.246 . S
O61 Zn49 2.034 . S
O62 Zn41 2.024 . S
O62 C42 1.249 . S
C63 O59 1.251 . S
C63 O60 1.254 . S
H64 C37 0.949 . S
H65 C39 0.950 . S
H66 C46 0.949 . S
H67 C48 0.950 . S
C68 C69 1.391 . S
C68 C72 1.391 . S
C68 H110 0.948 . S
C69 C68 1.391 . S
C69 C70 1.391 . S
C70 C69 1.391 . S
C70 H126 0.947 . S
C70 C127 1.392 . S
C71 C72 1.391 . S
C71 C75 1.397 . S
C71 C127 1.419 . S
C72 C68 1.391 . S
C72 C71 1.391 . S
C72 C73 1.399 . S
C73 C72 1.399 . S
C73 C76 1.396 . S
C73 C85 1.453 1_565 S
C73 C86 1.684 1_455 S
H74 C98 0.948 . S
C75 C71 1.397 . S
C75 C76 1.394 . S
C75 C94 1.723 . S
C76 C73 1.396 . S
C76 C75 1.394 . S
C76 C106 1.723 1_465 S
H77 C100 0.947 . S
H78 C101 0.948 . S
H79 C107 0.982 . S
H80 C108 0.979 . S
H81 C108 0.980 . S
H82 C108 0.983 . S
H83 C107 0.979 . S
H84 C107 0.977 . S
C85 C73 1.453 1_545 S
C85 H114 0.982 . S
C85 H115 0.979 1_545 S
C85 H116 0.977 . S
C86 C73 1.684 1_655 S
C86 H111 0.979 . S
C86 H112 0.980 . S
C86 H113 0.983 1_655 S
C87 C88 1.391 1_465 S
C87 C92 1.391 . S
C87 H117 0.948 . S
C88 C87 1.391 1_645 S
C88 C89 1.391 . S
C89 C88 1.391 . S
C89 C90 1.392 . S
C89 H118 0.947 . S
C90 C89 1.392 . S
C90 C91 1.419 . S
C90 H119 0.948 . S
C91 C90 1.419 . S
C91 C92 1.391 1_645 S
C91 C95 1.397 . S
C92 C87 1.391 . S
C92 C91 1.391 1_465 S
C92 C93 1.399 . S
C93 C92 1.399 . S
C93 C94 1.396 . S
C93 C96 1.453 . S
C93 C97 1.684 . S
C94 C75 1.723 . S
C94 C93 1.396 . S
C94 C95 1.394 1_465 S
C95 C91 1.397 . S
C95 C94 1.394 1_645 S
C95 C105 1.723 . S
C96 C93 1.453 . S
C96 H120 0.982 . S
C96 H121 0.979 . S
C96 H122 0.977 . S
C97 C93 1.684 . S
C97 H123 0.979 . S
C97 H124 0.980 . S
C97 H125 0.983 . S
C98 H74 0.948 . S
C98 C99 1.391 . S
C98 C103 1.391 . S
C99 C98 1.391 . S
C99 C100 1.391 . S
C100 H77 0.947 . S
C100 C99 1.391 . S
C100 C101 1.392 . S
C101 H78 0.948 . S
C101 C100 1.392 . S
C101 C102 1.419 . S
C102 C101 1.419 . S
C102 C103 1.391 . S
C102 C106 1.397 . S
C103 C98 1.391 . S
C103 C102 1.391 . S
C103 C104 1.399 . S
C104 C103 1.399 . S
C104 C105 1.396 . S
C104 C107 1.453 . S
C104 C108 1.684 . S
C105 C95 1.723 . S
C105 C104 1.396 . S
C105 C106 1.394 . S
C106 C76 1.723 1_645 S
C106 C102 1.397 . S
C106 C105 1.394 . S
C107 H79 0.982 . S
C107 H83 0.979 . S
C107 H84 0.977 . S
C107 C104 1.453 . S
C108 H80 0.979 . S
C108 H81 0.980 . S
C108 H82 0.983 . S
C108 C104 1.684 . S
H109 C127 0.948 . S
H110 C68 0.948 . S
H111 C86 0.979 . S
H112 C86 0.980 . S
H113 C86 0.983 1_455 S
H114 C85 0.982 . S
H115 C85 0.979 1_565 S
H116 C85 0.977 . S
H117 C87 0.948 . S
H118 C89 0.947 . S
H119 C90 0.948 . S
H120 C96 0.982 . S
H121 C96 0.979 . S
H122 C96 0.977 . S
H123 C97 0.979 . S
H124 C97 0.980 . S
H125 C97 0.983 . S
H126 C70 0.947 . S
C127 C70 1.392 . S
C127 C71 1.419 . S
C127 H109 0.948 . S
C128 C129 1.391 . S
C128 C132 1.391 . S
C128 H170 0.948 . S
C129 C128 1.391 . S
C129 C130 1.391 . S
C130 C129 1.391 . S
C130 H186 0.947 . S
C130 C187 1.392 . S
C131 C132 1.391 . S
C131 C135 1.397 . S
C131 C187 1.419 . S
C132 C128 1.391 . S
C132 C131 1.391 . S
C132 C133 1.399 . S
C133 C132 1.399 . S
C133 C136 1.396 . S
C133 C145 1.453 . S
C133 C146 1.676 1_455 S
H134 C158 0.948 . S
C135 C131 1.397 . S
C135 C136 1.394 . S
C135 C154 1.723 . S
C136 C133 1.396 . S
C136 C135 1.394 . S
C136 C166 1.723 1_445 S
H137 C160 0.947 . S
H138 C161 0.948 . S
H139 C167 0.982 . S
H140 C168 0.979 . S
H141 C168 0.980 . S
H142 C168 0.983 . S
H143 C167 0.979 . S
H144 C167 0.977 . S
C145 C133 1.453 . S
C145 H174 0.982 1_545 S
C145 H175 0.979 . S
C145 H176 0.977 1_545 S
C146 C133 1.676 1_655 S
C146 H171 0.986 . S
C146 H172 0.986 . S
C146 H173 0.977 1_655 S
C147 C148 1.391 . S
C147 C152 1.391 . S
C147 H177 0.948 . S
C148 C147 1.391 . S
C148 C149 1.391 1_445 S
C149 C148 1.391 1_665 S
C149 C150 1.392 . S
C149 H178 0.947 . S
C150 C149 1.392 . S
C150 C151 1.419 1_655 S
C150 H179 0.948 . S
C151 C150 1.419 1_455 S
C151 C152 1.391 1_565 S
C151 C155 1.396 1_565 S
C152 C147 1.391 . S
C152 C151 1.391 1_545 S
C152 C153 1.399 . S
C153 C152 1.399 . S
C153 C154 1.396 . S
C153 C156 1.453 . S
C153 C157 1.684 . S
C154 C135 1.723 . S
C154 C153 1.396 . S
C154 C155 1.409 . S
C155 C151 1.396 1_545 S
C155 C154 1.409 . S
C155 C165 1.711 1_445 S
C156 C153 1.453 . S
C156 H180 0.982 . S
C156 H181 0.979 . S
C156 H182 0.977 . S
C157 C153 1.684 . S
C157 H183 0.979 . S
C157 H184 0.980 . S
C157 H185 0.983 . S
C158 H134 0.948 . S
C158 C159 1.391 . S
C158 C163 1.391 . S
C159 C158 1.391 . S
C159 C160 1.391 . S
C160 H137 0.947 . S
C160 C159 1.391 . S
C160 C161 1.392 . S
C161 H138 0.948 . S
C161 C160 1.392 . S
C161 C162 1.419 . S
C162 C161 1.419 . S
C162 C163 1.391 . S
C162 C166 1.397 . S
C163 C158 1.391 . S
C163 C162 1.391 . S
C163 C164 1.399 . S
C164 C163 1.399 . S
C164 C165 1.396 . S
C164 C167 1.453 . S
C164 C168 1.684 . S
C165 C155 1.711 1_665 S
C165 C164 1.396 . S
C165 C166 1.394 . S
C166 C136 1.723 1_665 S
C166 C162 1.397 . S
C166 C165 1.394 . S
C167 H139 0.982 . S
C167 H143 0.979 . S
C167 H144 0.977 . S
C167 C164 1.453 . S
C168 H140 0.979 . S
C168 H141 0.980 . S
C168 H142 0.983 . S
C168 C164 1.684 . S
H169 C187 0.948 . S
H170 C128 0.948 . S
H171 C146 0.986 . S
H172 C146 0.986 . S
H173 C146 0.977 1_455 S
H174 C145 0.982 1_565 S
H175 C145 0.979 . S
H176 C145 0.977 1_565 S
H177 C147 0.948 . S
H178 C149 0.947 . S
H179 C150 0.948 . S
H180 C156 0.982 . S
H181 C156 0.979 . S
H182 C156 0.977 . S
H183 C157 0.979 . S
H184 C157 0.980 . S
H185 C157 0.983 . S
H186 C130 0.947 . S
C187 C130 1.392 . S
C187 C131 1.419 . S
C187 H169 0.948 . S
C188 C189 1.391 1_554 S
C188 C192 1.391 1_554 S
C188 H230 0.949 . S
C189 C188 1.391 1_556 S
C189 C190 1.391 . S
C190 C189 1.391 . S
C190 H246 0.947 . S
C190 C247 1.392 . S
C191 C192 1.391 . S
C191 C195 1.397 . S
C191 C247 1.419 . S
C192 C188 1.391 1_556 S
C192 C191 1.391 . S
C192 C193 1.399 . S
C193 C192 1.399 . S
C193 C196 1.396 . S
C193 C205 1.453 1_556 S
C193 C206 1.684 1_556 S
H194 C218 0.948 . S
C195 C191 1.397 . S
C195 C196 1.394 . S
C195 C214 1.723 . S
C196 C193 1.396 . S
C196 C195 1.394 . S
C196 C226 1.723 . S
H197 C220 0.947 . S
H198 C221 0.935 1_554 S
H199 C227 0.982 . S
H200 C228 0.979 . S
H201 C228 0.980 . S
H202 C228 0.983 . S
H203 C227 0.979 . S
H204 C227 0.977 . S
C205 C193 1.453 1_554 S
C205 H234 0.992 . S
C205 H235 0.979 . S
C205 H236 0.977 . S
C206 C193 1.684 1_554 S
C206 H231 0.979 . S
C206 H232 0.980 . S
C206 H233 0.983 . S
C207 C208 1.391 . S
C207 C212 1.391 . S
C207 H237 0.948 . S
C208 C207 1.391 . S
C208 C209 1.391 . S
C209 C208 1.391 . S
C209 C210 1.392 . S
C209 H238 0.947 . S
C210 C209 1.392 . S
C210 C211 1.419 . S
C210 H239 0.948 . S
C211 C210 1.419 . S
C211 C212 1.391 . S
C211 C215 1.397 . S
C212 C207 1.391 . S
C212 C211 1.391 . S
C212 C213 1.399 . S
C213 C212 1.399 . S
C213 C214 1.396 . S
C213 C216 1.453 . S
C213 C217 1.684 . S
C214 C195 1.723 . S
C214 C213 1.396 . S
C214 C215 1.394 . S
C215 C211 1.397 . S
C215 C214 1.394 . S
C215 C225 1.723 . S
C216 C213 1.453 . S
C216 H240 0.982 . S
C216 H241 0.979 . S
C216 H242 0.977 . S
C217 C213 1.684 . S
C217 H243 0.979 . S
C217 H244 0.980 . S
C217 H245 0.983 . S
C218 H194 0.948 . S
C218 C219 1.391 . S
C218 C223 1.391 . S
C219 C218 1.391 . S
C219 C220 1.391 1_556 S
C220 H197 0.947 . S
C220 C219 1.391 1_554 S
C220 C221 1.381 1_554 S
C221 H198 0.935 1_556 S
C221 C220 1.381 1_556 S
C221 C222 1.443 . S
C222 C221 1.443 . S
C222 C223 1.391 . S
C222 C226 1.397 . S
C223 C218 1.391 . S
C223 C222 1.391 . S
C223 C224 1.399 . S
C224 C223 1.399 . S
C224 C225 1.396 . S
C224 C227 1.453 . S
C224 C228 1.684 . S
C225 C215 1.723 . S
C225 C224 1.396 . S
C225 C226 1.394 . S
C226 C196 1.723 . S
C226 C222 1.397 . S
C226 C225 1.394 . S
C227 H199 0.982 . S
C227 H203 0.979 . S
C227 H204 0.977 . S
C227 C224 1.453 . S
C228 H200 0.979 . S
C228 H201 0.980 . S
C228 H202 0.983 . S
C228 C224 1.684 . S
H229 C247 0.948 . S
H230 C188 0.949 . S
H231 C206 0.979 . S
H232 C206 0.980 . S
H233 C206 0.983 . S
H234 C205 0.992 . S
H235 C205 0.979 . S
H236 C205 0.977 . S
H237 C207 0.948 . S
H238 C209 0.947 . S
H239 C210 0.948 . S
H240 C216 0.982 . S
H241 C216 0.979 . S
H242 C216 0.977 . S
H243 C217 0.979 . S
H244 C217 0.980 . S
H245 C217 0.983 . S
H246 C190 0.947 . S
C247 C190 1.392 . S
C247 C191 1.419 . S
C247 H229 0.948 . S
C248 C249 1.391 . S
C248 C252 1.391 . S
C248 H290 0.948 1_554 S
C249 C248 1.391 . S
C249 C250 1.391 . S
C250 C249 1.391 . S
C250 H306 0.947 . S
C250 C307 1.392 . S
C251 C252 1.391 . S
C251 C255 1.397 . S
C251 C307 1.419 . S
C252 C248 1.391 . S
C252 C251 1.391 . S
C252 C253 1.399 . S
C253 C252 1.399 . S
C253 C256 1.396 . S
C253 C265 1.453 1_554 S
C253 C266 1.684 1_554 S
H254 C278 0.948 . S
C255 C251 1.397 . S
C255 C256 1.394 . S
C255 C274 1.723 . S
C256 C253 1.396 . S
C256 C255 1.394 . S
C256 C286 1.723 . S
H257 C280 0.947 . S
H258 C281 0.948 1_556 S
H259 C287 0.982 . S
H260 C288 0.979 . S
H261 C288 0.980 . S
H262 C288 0.983 . S
H263 C287 0.979 . S
H264 C287 0.977 . S
C265 C253 1.453 1_556 S
C265 H294 0.982 1_556 S
C265 H295 0.979 . S
C265 H296 0.977 . S
C266 C253 1.684 1_556 S
C266 H291 0.979 . S
C266 H292 0.980 . S
C266 H293 0.983 . S
C267 C268 1.391 . S
C267 C272 1.391 . S
C267 H297 0.948 . S
C268 C267 1.391 . S
C268 C269 1.391 . S
C269 C268 1.391 . S
C269 C270 1.392 . S
C269 H298 0.947 . S
C270 C269 1.392 . S
C270 C271 1.419 . S
C270 H299 0.948 . S
C271 C270 1.419 . S
C271 C272 1.391 . S
C271 C275 1.397 . S
C272 C267 1.391 . S
C272 C271 1.391 . S
C272 C273 1.399 . S
C273 C272 1.399 . S
C273 C274 1.396 . S
C273 C276 1.453 . S
C273 C277 1.684 . S
C274 C255 1.723 . S
C274 C273 1.396 . S
C274 C275 1.394 . S
C275 C271 1.397 . S
C275 C274 1.394 . S
C275 C285 1.723 . S
C276 C273 1.453 . S
C276 H300 0.982 . S
C276 H301 0.979 . S
C276 H302 0.977 . S
C277 C273 1.684 . S
C277 H303 0.979 . S
C277 H304 0.980 . S
C277 H305 0.983 . S
C278 H254 0.948 . S
C278 C279 1.391 . S
C278 C283 1.391 . S
C279 C278 1.391 . S
C279 C280 1.391 1_554 S
C280 H257 0.947 . S
C280 C279 1.391 1_556 S
C280 C281 1.392 1_556 S
C281 H258 0.948 1_554 S
C281 C280 1.392 1_554 S
C281 C282 1.419 . S
C282 C281 1.419 . S
C282 C283 1.391 . S
C282 C286 1.397 . S
C283 C278 1.391 . S
C283 C282 1.391 . S
C283 C284 1.399 . S
C284 C283 1.399 . S
C284 C285 1.396 . S
C284 C287 1.453 . S
C284 C288 1.684 . S
C285 C275 1.723 . S
C285 C284 1.396 . S
C285 C286 1.394 . S
C286 C256 1.723 . S
C286 C282 1.397 . S
C286 C285 1.394 . S
C287 H259 0.982 . S
C287 H263 0.979 . S
C287 H264 0.977 . S
C287 C284 1.453 . S
C288 H260 0.979 . S
C288 H261 0.980 . S
C288 H262 0.983 . S
C288 C284 1.684 . S
H289 C307 0.948 . S
H290 C248 0.948 1_556 S
H291 C266 0.979 . S
H292 C266 0.980 . S
H293 C266 0.983 . S
H294 C265 0.982 1_554 S
H295 C265 0.979 . S
H296 C265 0.977 . S
H297 C267 0.948 . S
H298 C269 0.947 . S
H299 C270 0.948 . S
H300 C276 0.982 . S
H301 C276 0.979 . S
H302 C276 0.977 . S
H303 C277 0.979 . S
H304 C277 0.980 . S
H305 C277 0.983 . S
H306 C250 0.947 . S
C307 C250 1.392 . S
C307 C251 1.419 . S
C307 H289 0.948 . S
H308 C314 0.930 . S
H309 C318 0.930 . S
H310 C323 0.929 . S
H311 C321 0.929 . S
H312 C316 0.929 . S
H313 C322 0.929 . S
C314 H308 0.930 . S
C314 C315 1.367 . S
C314 C322 1.378 . S
C315 C314 1.367 . S
C315 C323 1.433 1_554 S
C316 H312 0.929 . S
C316 C318 1.378 . S
C316 C320 1.350 1_556 S
C317 C320 1.463 . S
C317 C322 1.350 . S
C317 N325 1.427 1_554 S
C318 H309 0.930 . S
C318 C316 1.378 . S
C318 C319 1.367 1_556 S
C319 C318 1.367 1_554 S
C319 C321 1.433 . S
C320 C316 1.350 1_554 S
C320 C317 1.463 . S
C320 N324 1.427 . S
C321 H311 0.929 . S
C321 C319 1.433 . S
C321 N324 1.384 . S
C322 H313 0.929 . S
C322 C314 1.378 . S
C322 C317 1.350 . S
C323 H310 0.929 . S
C323 C315 1.433 1_556 S
C323 N325 1.384 . S
N324 C320 1.427 . S
N324 C321 1.384 . S
N325 C317 1.427 1_556 S
N325 C323 1.384 . S
H326 C332 0.930 . S
H327 C336 0.930 . S
H328 C341 0.929 . S
H329 C339 0.929 . S
H330 C334 0.929 . S
H331 C340 0.929 . S
C332 H326 0.930 . S
C332 C333 1.367 1_556 S
C332 C340 1.378 . S
C333 C332 1.367 1_554 S
C333 C341 1.433 . S
C334 H330 0.929 . S
C334 C336 1.378 . S
C334 C338 1.376 . S
C335 C338 1.462 1_556 S
C335 C340 1.347 . S
C335 N343 1.431 1_556 S
C336 H327 0.930 . S
C336 C334 1.378 . S
C336 C337 1.337 1_554 S
C337 C336 1.337 1_556 S
C337 C339 1.463 . S
C338 C334 1.376 . S
C338 C335 1.462 1_554 S
C338 N342 1.400 1_554 S
C339 H329 0.929 . S
C339 C337 1.463 . S
C339 N342 1.384 . S
C340 H331 0.929 . S
C340 C332 1.378 . S
C340 C335 1.347 . S
C341 H328 0.929 . S
C341 C333 1.433 . S
C341 N343 1.384 . S
N342 C338 1.400 1_556 S
N342 C339 1.384 . S
N343 C335 1.431 1_554 S
N343 C341 1.384 . S
H344 C350 0.930 . S
H345 C354 0.932 . S
H346 C359 0.929 . S
H347 C357 0.929 . S
H348 C352 0.929 . S
H349 C358 0.929 . S
C350 H344 0.930 . S
C350 C351 1.367 . S
C350 C358 1.378 . S
C351 C350 1.367 . S
C351 C359 1.433 1_554 S
C352 H348 0.929 . S
C352 C354 1.378 . S
C352 C356 1.350 1_556 S
C353 C356 1.463 . S
C353 C358 1.350 . S
C353 N361 1.427 1_554 S
C354 H345 0.932 . S
C354 C352 1.378 . S
C354 C355 1.365 1_556 S
C355 C354 1.365 1_554 S
C355 C357 1.433 . S
C356 C352 1.350 1_554 S
C356 C353 1.463 . S
C356 N360 1.427 . S
C357 H347 0.929 . S
C357 C355 1.433 . S
C357 N360 1.384 . S
C358 H349 0.929 . S
C358 C350 1.378 . S
C358 C353 1.350 . S
C359 H346 0.929 . S
C359 C351 1.433 1_556 S
C359 N361 1.384 . S
N360 C356 1.427 . S
N360 C357 1.384 . S
N361 C353 1.427 1_556 S
N361 C359 1.384 . S
H362 C368 0.930 . S
H363 C372 0.930 . S
H364 C377 0.929 . S
H365 C375 0.929 . S
H366 C370 0.929 . S
H367 C376 0.929 . S
C368 H362 0.930 . S
C368 C369 1.367 1_556 S
C368 C376 1.378 . S
C369 C368 1.367 1_554 S
C369 C377 1.433 . S
C370 H366 0.929 . S
C370 C372 1.378 . S
C370 C374 1.350 . S
C371 C374 1.464 . S
C371 C376 1.325 1_554 S
C371 N379 1.453 . S
C372 H363 0.930 . S
C372 C370 1.378 . S
C372 C373 1.375 . S
C373 C372 1.375 . S
C373 C375 1.425 1_554 S
C374 C370 1.350 . S
C374 C371 1.464 . S
C374 N378 1.427 1_554 S
C375 H365 0.929 . S
C375 C373 1.425 1_556 S
C375 N378 1.384 . S
C376 H367 0.929 . S
C376 C368 1.378 . S
C376 C371 1.325 1_556 S
C377 H364 0.929 . S
C377 C369 1.433 . S
C377 N379 1.384 . S
N378 C374 1.427 1_556 S
N378 C375 1.384 . S
N379 C371 1.453 . S
N379 C377 1.384 . S
H380 C386 0.930 . S
H381 C390 0.930 . S
H382 C395 0.929 . S
H383 C393 0.929 . S
H384 C388 0.929 . S
H385 C394 0.929 . S
C386 H380 0.930 . S
C386 C387 1.367 . S
C386 C394 1.378 . S
C387 C386 1.367 . S
C387 C395 1.433 . S
C388 H384 0.929 . S
C388 C390 1.378 . S
C388 C392 1.350 . S
C389 C392 1.463 . S
C389 C394 1.350 . S
C389 N397 1.427 . S
C390 H381 0.930 . S
C390 C388 1.378 . S
C390 C391 1.367 . S
C391 C390 1.367 . S
C391 C393 1.433 . S
C392 C388 1.350 . S
C392 C389 1.463 . S
C392 N396 1.427 . S
C393 H383 0.929 . S
C393 C391 1.433 . S
C393 N396 1.384 . S
C394 H385 0.929 . S
C394 C386 1.378 . S
C394 C389 1.350 . S
C395 H382 0.929 . S
C395 C387 1.433 . S
C395 N397 1.384 . S
N396 C392 1.427 . S
N396 C393 1.384 . S
N397 C389 1.427 . S
N397 C395 1.384 . S
H398 C404 0.930 . S
H399 C408 0.930 . S
H400 C413 0.929 . S
H401 C411 0.929 . S
H402 C406 0.929 . S
H403 C412 0.929 . S
C404 H398 0.930 . S
C404 C405 1.367 . S
C404 C412 1.378 . S
C405 C404 1.367 . S
C405 C413 1.433 . S
C406 H402 0.929 . S
C406 C408 1.378 . S
C406 C410 1.350 . S
C407 C410 1.463 . S
C407 C412 1.350 . S
C407 N415 1.427 . S
C408 H399 0.930 . S
C408 C406 1.378 . S
C408 C409 1.367 . S
C409 C408 1.367 . S
C409 C411 1.433 . S
C410 C406 1.350 . S
C410 C407 1.463 . S
C410 N414 1.427 . S
C411 H401 0.929 . S
C411 C409 1.433 . S
C411 N414 1.384 . S
C412 H403 0.929 . S
C412 C404 1.378 . S
C412 C407 1.350 . S
C413 H400 0.929 . S
C413 C405 1.433 . S
C413 N415 1.384 . S
N414 C410 1.427 . S
N414 C411 1.384 . S
N415 C407 1.427 . S
N415 C413 1.384 . S
H416 C422 0.930 . S
H417 C426 0.930 . S
H418 C431 0.929 . S
H419 C429 0.929 . S
H420 C424 0.929 . S
H421 C430 0.929 . S
C422 H416 0.930 . S
C422 C423 1.367 . S
C422 C430 1.378 . S
C423 C422 1.367 . S
C423 C431 1.433 . S
C424 H420 0.929 . S
C424 C426 1.378 . S
C424 C428 1.350 . S
C425 C428 1.463 . S
C425 C430 1.350 . S
C425 N433 1.427 . S
C426 H417 0.930 . S
C426 C424 1.378 . S
C426 C427 1.367 . S
C427 C426 1.367 . S
C427 C429 1.433 . S
C428 C424 1.350 . S
C428 C425 1.463 . S
C428 N432 1.427 . S
C429 H419 0.929 . S
C429 C427 1.433 . S
C429 N432 1.384 . S
C430 H421 0.929 . S
C430 C422 1.378 . S
C430 C425 1.350 . S
C431 H418 0.929 . S
C431 C423 1.433 . S
C431 N433 1.384 . S
N432 C428 1.427 . S
N432 C429 1.384 . S
N433 C425 1.427 . S
N433 C431 1.384 . S
H434 C440 0.930 . S
H435 C444 0.930 . S
H436 C449 0.929 . S
H437 C447 0.929 . S
H438 C442 0.929 . S
H439 C448 0.929 . S
C440 H434 0.930 . S
C440 C441 1.367 . S
C440 C448 1.378 . S
C441 C440 1.367 . S
C441 C449 1.433 . S
C442 H438 0.929 . S
C442 C444 1.378 . S
C442 C446 1.350 . S
C443 C446 1.463 . S
C443 C448 1.350 . S
C443 N451 1.427 . S
C444 H435 0.930 . S
C444 C442 1.378 . S
C444 C445 1.367 . S
C445 C444 1.367 . S
C445 C447 1.433 . S
C446 C442 1.350 . S
C446 C443 1.463 . S
C446 N450 1.427 . S
C447 H437 0.929 . S
C447 C445 1.433 . S
C447 N450 1.384 . S
C448 H439 0.929 . S
C448 C440 1.378 . S
C448 C443 1.350 . S
C449 H436 0.929 . S
C449 C441 1.433 . S
C449 N451 1.384 . S
N450 C446 1.427 . S
N450 C447 1.384 . S
N451 C443 1.427 . S
N451 C449 1.384 . S
H452 C458 0.930 . S
H453 C462 0.930 . S
H454 C467 0.929 . S
H455 C465 0.929 . S
H456 C460 0.929 . S
H457 C466 0.929 . S
C458 H452 0.930 . S
C458 C459 1.367 1_565 S
C458 C466 1.378 . S
C459 C458 1.367 1_545 S
C459 C467 1.433 1_455 S
C460 H456 0.929 . S
C460 C462 1.378 . S
C460 C464 1.350 1_655 S
C461 C464 1.463 . S
C461 C466 1.350 1_545 S
C461 N469 1.427 1_455 S
C462 H453 0.930 . S
C462 C460 1.378 . S
C462 C463 1.367 . S
C463 C462 1.367 . S
C463 C465 1.433 1_645 S
C464 C460 1.350 1_455 S
C464 C461 1.463 . S
C464 N468 1.427 1_545 S
C465 H455 0.929 . S
C465 C463 1.433 1_465 S
C465 N468 1.384 . S
C466 H457 0.929 . S
C466 C458 1.378 . S
C466 C461 1.350 1_565 S
C467 H454 0.929 . S
C467 C459 1.433 1_655 S
C467 N469 1.384 . S
N468 C464 1.427 1_565 S
N468 C465 1.384 . S
N469 C461 1.427 1_655 S
N469 C467 1.384 . S
H470 C476 0.930 1_655 S
H471 C480 0.930 . S
H472 C485 0.929 . S
H473 C483 0.927 1_655 S
H474 C478 0.929 . S
H475 C484 0.929 1_655 S
C476 H470 0.930 1_455 S
C476 C477 1.367 . S
C476 C484 1.378 . S
C477 C476 1.367 . S
C477 C485 1.433 1_545 S
C478 H474 0.929 . S
C478 C480 1.378 . S
C478 C482 1.350 1_565 S
C479 C482 1.463 . S
C479 C484 1.350 . S
C479 N487 1.427 1_545 S
C480 H471 0.930 . S
C480 C478 1.378 . S
C480 C481 1.367 1_565 S
C481 C480 1.367 1_545 S
C481 C483 1.433 . S
C482 C478 1.350 1_545 S
C482 C479 1.463 . S
C482 N486 1.427 . S
C483 H473 0.927 1_455 S
C483 C481 1.433 . S
C483 N486 1.384 . S
C484 H475 0.929 1_455 S
C484 C476 1.378 . S
C484 C479 1.350 . S
C485 H472 0.929 . S
C485 C477 1.433 1_565 S
C485 N487 1.384 . S
N486 C482 1.427 . S
N486 C483 1.384 . S
N487 C479 1.427 1_565 S
N487 C485 1.384 . S
H488 C494 0.930 . S
H489 C498 0.930 . S
H490 C503 0.929 . S
H491 C501 0.929 . S
H492 C496 0.929 . S
H493 C502 0.929 . S
C494 H488 0.930 . S
C494 C495 1.367 . S
C494 C502 1.378 . S
C495 C494 1.367 . S
C495 C503 1.433 . S
C496 H492 0.929 . S
C496 C498 1.378 . S
C496 C500 1.350 . S
C497 C500 1.463 . S
C497 C502 1.350 . S
C497 N505 1.427 . S
C498 H489 0.930 . S
C498 C496 1.378 . S
C498 C499 1.367 . S
C499 C498 1.367 . S
C499 C501 1.433 . S
C500 C496 1.350 . S
C500 C497 1.463 . S
C500 N504 1.427 . S
C501 H491 0.929 . S
C501 C499 1.433 . S
C501 N504 1.384 . S
C502 H493 0.929 . S
C502 C494 1.378 . S
C502 C497 1.350 . S
C503 H490 0.929 . S
C503 C495 1.433 . S
C503 N505 1.384 . S
N504 C500 1.427 . S
N504 C501 1.384 . S
N505 C497 1.427 . S
N505 C503 1.384 . S
H506 C512 0.930 . S
H507 C516 0.930 . S
H508 C521 0.929 . S
H509 C519 0.929 . S
H510 C514 0.929 . S
H511 C520 0.929 . S
C512 H506 0.930 . S
C512 C513 1.367 . S
C512 C520 1.378 . S
C513 C512 1.367 . S
C513 C521 1.433 . S
C514 H510 0.929 . S
C514 C516 1.378 . S
C514 C518 1.350 . S
C515 C518 1.463 . S
C515 C520 1.350 . S
C515 N523 1.427 . S
C516 H507 0.930 . S
C516 C514 1.378 . S
C516 C517 1.367 . S
C517 C516 1.367 . S
C517 C519 1.433 . S
C518 C514 1.350 . S
C518 C515 1.463 . S
C518 N522 1.427 . S
C519 H509 0.929 . S
C519 C517 1.433 . S
C519 N522 1.384 . S
C520 H511 0.929 . S
C520 C512 1.378 . S
C520 C515 1.350 . S
C521 H508 0.929 . S
C521 C513 1.433 . S
C521 N523 1.384 . S
N522 C518 1.427 . S
N522 C519 1.384 . S
N523 C515 1.427 . S
N523 C521 1.384 . S
C319 C279 1.489 . S
C315 C29 1.501 . S
C333 C8 1.483 . S
C337 C219 1.482 . S
C351 C0 1.472 . S
C355 C249 1.360 . S
C369 C17 1.488 . S
C373 C189 1.375 1_554 S
C387 C63 1.501 . S
C391 C159 1.489 . S
C405 C42 1.483 . S
C409 C99 1.471 . S
C427 C129 1.343 . S
C423 C34 1.472 . S
C445 C69 1.380 . S
C441 C51 1.489 . S
C459 C4 1.485 . S
C463 C88 1.461 . S
C477 C13 1.485 . S
C481 C148 1.457 . S
C499 C208 1.470 . S
C495 C38 1.485 . S
C513 C47 1.485 . S
C517 C268 1.452 . S
