# Generated by pormake.
# Topology anh, (6,3)-cn, num edge types: 1
# Building blocks:
#     Node 0, Type 0, BuildingBlock: CUKXOW_clean_sbu_0, # of connection points: 6
#     Node 1, Type 0, BuildingBlock: CUKXOW_clean_sbu_0, # of connection points: 6
#     Node 2, Type 0, BuildingBlock: CUKXOW_clean_sbu_0, # of connection points: 6
#     Node 3, Type 1, BuildingBlock: BETDIP_clean_linker_0, # of connection points: 3
#     Node 4, Type 1, BuildingBlock: BETDIP_clean_linker_0, # of connection points: 3
#     Node 5, Type 1, BuildingBlock: BETDIP_clean_linker_0, # of connection points: 3
#     Node 6, Type 1, BuildingBlock: BETDIP_clean_linker_0, # of connection points: 3
#     Node 7, Type 1, BuildingBlock: BETDIP_clean_linker_0, # of connection points: 3
#     Node 8, Type 1, BuildingBlock: BETDIP_clean_linker_0, # of connection points: 3
#     Edge 9, Type (0, 1), BuildingBlock: EZIPEK_clean_linker_0, # of connection points: 2
#     Edge 10, Type (0, 1), BuildingBlock: EZIPEK_clean_linker_0, # of connection points: 2
#     Edge 11, Type (0, 1), BuildingBlock: EZIPEK_clean_linker_0, # of connection points: 2
#     Edge 12, Type (0, 1), BuildingBlock: EZIPEK_clean_linker_0, # of connection points: 2
#     Edge 13, Type (0, 1), BuildingBlock: EZIPEK_clean_linker_0, # of connection points: 2
#     Edge 14, Type (0, 1), BuildingBlock: EZIPEK_clean_linker_0, # of connection points: 2
#     Edge 15, Type (0, 1), BuildingBlock: EZIPEK_clean_linker_0, # of connection points: 2
#     Edge 16, Type (0, 1), BuildingBlock: EZIPEK_clean_linker_0, # of connection points: 2
#     Edge 17, Type (0, 1), BuildingBlock: EZIPEK_clean_linker_0, # of connection points: 2
#     Edge 18, Type (0, 1), BuildingBlock: EZIPEK_clean_linker_0, # of connection points: 2
#     Edge 19, Type (0, 1), BuildingBlock: EZIPEK_clean_linker_0, # of connection points: 2
#     Edge 20, Type (0, 1), BuildingBlock: EZIPEK_clean_linker_0, # of connection points: 2
#     Edge 21, Type (0, 1), BuildingBlock: EZIPEK_clean_linker_0, # of connection points: 2
#     Edge 22, Type (0, 1), BuildingBlock: EZIPEK_clean_linker_0, # of connection points: 2
#     Edge 23, Type (0, 1), BuildingBlock: EZIPEK_clean_linker_0, # of connection points: 2
#     Edge 24, Type (0, 1), BuildingBlock: EZIPEK_clean_linker_0, # of connection points: 2
#     Edge 25, Type (0, 1), BuildingBlock: EZIPEK_clean_linker_0, # of connection points: 2
#     Edge 26, Type (0, 1), BuildingBlock: EZIPEK_clean_linker_0, # of connection points: 2
# Relax obj value: 0.088
# Max RMSD: 0.175
# Mean RMSD: 0.107
data_MOF--net-anh--node1-CUKXOW_clean_sbu_0--node2-BETDIP_clean_linker_0--edge1-EZIPEK_clean_linker_0
_symmetry_space_group_name_H-M    P1
_symmetry_Int_Tables_number       1
_symmetry_cell_setting            triclinic
loop_
_symmetry_equiv_pos_as_xyz
'x, y, z'
_cell_length_a     21.22195
_cell_length_b     20.456638
_cell_length_c     35.155302
_cell_angle_alpha  97.262079
_cell_angle_beta   90.470565
_cell_angle_gamma 110.62818
loop_
_atom_site_label
_atom_site_type_symbol
_atom_site_fract_x
_atom_site_fract_y
_atom_site_fract_z
_atom_type_partial_charge
Tb0 Tb 0.14102 0.69184 0.15043 0.0
C1 C 0.10424 0.60991 0.22195 0.0
Tb2 Tb 0.06384 0.52321 0.13736 0.0
O3 O 0.04761 0.71893 0.15561 0.0
O4 O 0.04322 0.61744 0.14449 0.0
O5 O 0.13893 0.67007 0.20924 0.0
C6 C 0.95489 0.40734 0.13898 0.0
O7 O 0.06897 0.55013 0.19976 0.0
C8 C 0.19882 0.55917 0.14354 0.0
C9 C 0.11027 0.60298 0.06577 0.0
O10 O 1.01703 0.41034 0.14183 0.0
O11 O 0.95456 0.46845 0.13302 0.0
O12 O 0.15546 0.49449 0.13746 0.0
O13 O 0.1631 0.59791 0.14435 0.0
O14 O 0.07155 0.54304 0.07773 0.0
O15 O 0.14524 0.66168 0.08894 0.0
C16 C 0.24316 0.81475 0.15721 0.0
O17 O 0.19259 0.79534 0.13204 0.0
O18 O 0.23555 0.76592 0.17885 0.0
C19 C 1.00565 0.65372 0.14939 0.0
Tb20 Tb 0.53531 0.99078 0.49331 0.0
C21 C 0.59783 0.0301 0.41686 0.0
Tb22 Tb 0.68448 0.08285 0.49618 0.0
O23 O 0.50388 0.07866 0.48186 0.0
O24 O 0.59428 0.09761 0.51131 0.0
O25 O 0.55408 0.97873 0.43275 0.0
C26 C 0.79029 0.19902 0.49223 0.0
O27 O 0.64779 0.08153 0.43736 0.0
C28 C 0.66304 0.94877 0.49572 0.0
C29 C 0.61936 0.04054 0.57418 0.0
O30 O 0.78029 0.13808 0.47207 0.0
O31 O 0.74242 0.19341 0.51567 0.0
O32 O 0.72021 0.99882 0.5075 0.0
O33 O 0.62635 0.97521 0.47908 0.0
O34 O 0.67509 0.07504 0.55747 0.0
O35 O 0.56056 0.00637 0.55466 0.0
C36 C 0.42092 0.88285 0.49578 0.0
O37 O 0.47904 0.88778 0.51039 0.0
O38 O 0.42703 0.93922 0.48063 0.0
C39 C 0.56008 0.12747 0.49584 0.0
Tb40 Tb 0.43155 0.45121 0.82214 0.0
C41 C 0.49462 0.48608 0.90643 0.0
Tb42 Tb 0.57961 0.50397 0.83581 0.0
O43 O 0.41846 0.35295 0.8449 0.0
O44 O 0.50519 0.40295 0.81805 0.0
O45 O 0.44495 0.4882 0.8841 0.0
C46 C 0.71028 0.52477 0.8388 0.0
O47 O 0.54913 0.4784 0.89213 0.0
C48 C 0.5261 0.60395 0.84134 0.0
C49 C 0.52338 0.48013 0.75031 0.0
O50 O 0.68412 0.57244 0.84788 0.0
O51 O 0.66277 0.46468 0.82786 0.0
O52 O 0.57797 0.60637 0.86198 0.0
O53 O 0.50932 0.548 0.81811 0.0
O54 O 0.57792 0.50197 0.77395 0.0
O55 O 0.46117 0.45803 0.76259 0.0
C56 C 0.30772 0.44501 0.80409 0.0
O57 O 0.33608 0.4028 0.78773 0.0
O58 O 0.3487 0.48894 0.83091 0.0
C59 C 0.4778 0.35229 0.83659 0.0
H60 H 0.54084 0.07842 0.14991 0.0
H61 H 0.67167 0.13737 0.25285 0.0
H62 H 0.47735 0.97393 0.2492 0.0
H63 H 0.70911 0.24133 0.22809 0.0
C64 C 0.7125 0.22438 0.19787 0.0
C65 C 0.55098 0.07129 0.17907 0.0
C66 C 0.50184 0.02111 0.1973 0.0
C67 C 0.61278 0.11323 0.19864 0.0
C68 C 0.62463 0.10538 0.23708 0.0
C69 C 0.57574 0.05526 0.25538 0.0
C70 C 0.51539 0.01236 0.235 0.0
N71 N 0.66237 0.16194 0.17896 0.0
H72 H 0.6118 0.47547 0.48108 0.0
H73 H 0.58034 0.59628 0.58415 0.0
H74 H 0.5486 0.37733 0.58255 0.0
H75 H 0.53634 0.64513 0.53788 0.0
C76 C 0.57745 0.65451 0.51865 0.0
C77 C 0.59659 0.47829 0.5104 0.0
C78 C 0.58031 0.41825 0.52957 0.0
C79 C 0.59262 0.54192 0.52917 0.0
C80 C 0.57814 0.54649 0.56832 0.0
C81 C 0.56286 0.48734 0.58768 0.0
C82 C 0.56097 0.42312 0.56756 0.0
N83 N 0.60642 0.60167 0.50913 0.0
H84 H 1.02125 0.6285 0.80387 0.0
H85 H 0.18951 0.65371 0.88089 0.0
H86 H 0.98718 0.58446 0.91951 0.0
H87 H 0.25481 0.68704 0.79743 0.0
C88 C 0.2084 0.64333 0.79996 0.0
C89 C 0.04084 0.62643 0.83212 0.0
C90 C 0.99663 0.60329 0.86072 0.0
C91 C 0.10984 0.643 0.83872 0.0
C92 C 0.13575 0.63939 0.87523 0.0
C93 C 0.09114 0.61912 0.9047 0.0
C94 C 1.02179 0.60055 0.89701 0.0
N95 N 0.15074 0.66118 0.80734 0.0
H96 H 0.13175 0.60577 0.49616 0.0
H97 H 1.02933 0.51431 0.38524 0.0
H98 H 0.20525 0.70213 0.39558 0.0
H99 H 0.93861 0.47819 0.42214 0.0
C100 C 0.96132 0.45963 0.4443 0.0
C101 C 0.12653 0.60723 0.46562 0.0
C102 C 0.17436 0.65978 0.44835 0.0
C103 C 0.07276 0.55568 0.44333 0.0
C104 C 0.06833 0.55587 0.40334 0.0
C105 C 0.11546 0.60908 0.38613 0.0
C106 C 0.1679 0.66152 0.40887 0.0
N107 N 1.0259 0.50212 0.46137 0.0
H108 H 0.50967 0.04121 0.83944 0.0
H109 H 0.58217 0.94189 0.74297 0.0
H110 H 0.56362 0.14265 0.73822 0.0
H111 H 0.48614 0.84662 0.76026 0.0
C112 C 0.50354 0.85337 0.79017 0.0
C113 C 0.52951 0.04212 0.81113 0.0
C114 C 0.53765 0.10005 0.79141 0.0
C115 C 0.54353 0.98372 0.79332 0.0
C116 C 0.56951 0.98566 0.75666 0.0
C117 C 0.57572 0.04211 0.73639 0.0
C118 C 0.55996 0.09928 0.75399 0.0
N119 N 0.52874 0.92217 0.81156 0.0
H120 H 0.54685 0.6133 0.18084 0.0
H121 H 0.62559 0.55304 0.0744 0.0
H122 H 0.41848 0.53321 0.07688 0.0
H123 H 0.68415 0.51106 0.12012 0.0
C124 C 0.70642 0.56284 0.13699 0.0
C125 C 0.53943 0.59141 0.15076 0.0
C126 C 0.47461 0.57325 0.1313 0.0
C127 C 0.59458 0.58104 0.13071 0.0
C128 C 0.58402 0.55655 0.09108 0.0
C129 C 0.52103 0.54002 0.07203 0.0
C130 C 0.46669 0.5458 0.09236 0.0
N131 N 0.66115 0.59943 0.14901 0.0
C132 C 0.32371 0.63147 0.13288 0.0
C133 C 0.27495 0.57804 0.15048 0.0
C134 C 0.3656 0.53349 0.16658 0.0
C135 C 0.41333 0.5857 0.14808 0.0
N136 N 0.44193 0.69638 0.1239 0.0
N137 N 0.25702 0.49385 0.19525 0.0
C138 C 0.39349 0.63881 0.13495 0.0
C139 C 0.29848 0.5341 0.17089 0.0
N140 N 0.30339 0.67227 0.11162 0.0
N141 N 0.38337 0.48104 0.17844 0.0
H142 H 0.2091 0.4951 0.20042 0.0
H143 H 0.27279 0.46561 0.21352 0.0
H144 H 0.43247 0.48099 0.1772 0.0
H145 H 0.34894 0.43619 0.18758 0.0
H146 H 0.3338 0.70161 0.09214 0.0
H147 H 0.25495 0.67314 0.11172 0.0
H148 H 0.43234 0.74028 0.11721 0.0
H149 H 0.49299 0.70282 0.12527 0.0
C150 C 0.80801 0.3172 0.47286 0.0
C151 C 0.83565 0.26673 0.48189 0.0
C152 C 0.94637 0.34108 0.46407 0.0
C153 C 0.92007 0.39486 0.45961 0.0
N154 N 0.82949 0.43997 0.46866 0.0
N155 N 0.93301 0.23514 0.49228 0.0
C156 C 0.85202 0.38479 0.46685 0.0
C157 C 0.90552 0.28006 0.47945 0.0
N158 N 0.73984 0.29934 0.46722 0.0
N159 N 1.00838 0.34587 0.45144 0.0
H160 H 0.90438 0.18986 0.50368 0.0
H161 H 0.98481 0.24616 0.49481 0.0
H162 H 0.03873 0.38783 0.43818 0.0
H163 H 1.02679 0.30478 0.45051 0.0
H164 H 0.7179 0.3327 0.45726 0.0
H165 H 0.70555 0.24848 0.46779 0.0
H166 H 0.78191 0.4366 0.4777 0.0
H167 H 0.86062 0.49096 0.46513 0.0
C168 C 0.47127 0.69526 0.84405 0.0
C169 C 0.52142 0.66927 0.82957 0.0
C170 C 0.55722 0.76204 0.78798 0.0
C171 C 0.51156 0.79198 0.80516 0.0
N172 N 0.42949 0.79219 0.85212 0.0
N173 N 0.61853 0.68307 0.79144 0.0
C174 C 0.47019 0.76035 0.83419 0.0
C175 C 0.56629 0.70421 0.80263 0.0
N176 N 0.42294 0.6563 0.86586 0.0
N177 N 0.59104 0.78786 0.757 0.0
H178 H 0.62616 0.63952 0.80013 0.0
H179 H 0.65769 0.71188 0.77581 0.0
H180 H 0.5886 0.83217 0.74634 0.0
H181 H 0.61777 0.76241 0.74002 0.0
H182 H 0.38062 0.66817 0.87376 0.0
H183 H 0.42205 0.60838 0.87339 0.0
H184 H 0.40365 0.77603 0.8763 0.0
H185 H 0.42497 0.83797 0.84438 0.0
C186 C 0.8908 0.59359 0.11226 0.0
C187 C 0.92867 0.63 0.14705 0.0
C188 C 0.82067 0.62563 0.17624 0.0
C189 C 0.78359 0.59331 0.14067 0.0
N190 N 0.78733 0.56105 0.07258 0.0
N191 N 0.92922 0.69154 0.21041 0.0
C192 C 0.81994 0.58106 0.1082 0.0
C193 C 0.89338 0.64962 0.17836 0.0
N194 N 0.92257 0.5716 0.08245 0.0
N195 N 0.78659 0.62982 0.20869 0.0
H196 H 0.98141 0.70682 0.21433 0.0
H197 H 0.9077 0.71479 0.23212 0.0
H198 H 0.73416 0.61242 0.20851 0.0
H199 H 0.80987 0.64485 0.23621 0.0
H200 H 0.89715 0.53606 0.0586 0.0
H201 H 0.97456 0.5855 0.08258 0.0
H202 H 0.81173 0.55873 0.04715 0.0
H203 H 0.73672 0.55405 0.06783 0.0
C204 C 0.29702 0.83014 0.50195 0.0
C205 C 0.35829 0.82036 0.49262 0.0
C206 C 0.29561 0.6965 0.46825 0.0
C207 C 0.23503 0.71059 0.47041 0.0
N208 N 0.17583 0.78948 0.48925 0.0
N209 N 0.41608 0.74508 0.46354 0.0
C210 C 0.23489 0.7768 0.48779 0.0
C211 C 0.358 0.75335 0.47571 0.0
N212 N 0.29852 0.89003 0.52475 0.0
N213 N 0.29332 0.62887 0.45828 0.0
H214 H 0.46312 0.78522 0.46708 0.0
H215 H 0.41676 0.69967 0.44672 0.0
H216 H 0.24811 0.58621 0.45195 0.0
H217 H 0.33545 0.61422 0.45999 0.0
H218 H 0.25558 0.89775 0.53526 0.0
H219 H 0.34348 0.92918 0.53629 0.0
H220 H 0.1734 0.83926 0.4973 0.0
H221 H 0.12918 0.75044 0.48045 0.0
C222 C 0.54379 0.27462 0.84768 0.0
C223 C 0.48992 0.28486 0.82808 0.0
C224 C 0.4586 0.16606 0.79223 0.0
C225 C 0.51764 0.1599 0.80788 0.0
N226 N 0.62111 0.211 0.84738 0.0
N227 N 0.40378 0.24504 0.77611 0.0
C228 C 0.56141 0.21474 0.83498 0.0
C229 C 0.44904 0.23168 0.79898 0.0
N230 N 0.57733 0.32132 0.87883 0.0
N231 N 0.41146 0.10888 0.77099 0.0
H232 H 0.39648 0.29314 0.77881 0.0
H233 H 0.37823 0.21083 0.75185 0.0
H234 H 0.41689 0.05985 0.76556 0.0
H235 H 0.36427 0.10819 0.76206 0.0
H236 H 0.61247 0.31308 0.89664 0.0
H237 H 0.56556 0.36539 0.8889 0.0
H238 H 0.65886 0.25307 0.86343 0.0
H239 H 0.63498 0.16732 0.83933 0.0
C240 C 0.61469 0.81866 0.46846 0.0
C241 C 0.64655 0.87234 0.49973 0.0
C242 C 0.65061 0.78058 0.538 0.0
C243 C 0.6092 0.72778 0.50931 0.0
N244 N 0.55018 0.69462 0.44723 0.0
N245 N 0.69038 0.90283 0.5662 0.0
C246 C 0.59099 0.74627 0.47443 0.0
C247 C 0.6642 0.85294 0.53485 0.0
N248 N 0.61019 0.83647 0.43261 0.0
N249 N 0.67778 0.76138 0.56821 0.0
H250 H 0.69996 0.95625 0.56639 0.0
H251 H 0.6961 0.89064 0.59358 0.0
H252 H 0.66877 0.70886 0.57131 0.0
H253 H 0.71457 0.79704 0.58794 0.0
H254 H 0.59289 0.79972 0.40802 0.0
H255 H 0.63059 0.88811 0.42653 0.0
H256 H 0.52907 0.70472 0.42282 0.0
H257 H 0.53445 0.64118 0.45015 0.0
C258 C 0.82623 0.60462 0.82981 0.0
C259 C 0.78323 0.53924 0.83982 0.0
C260 C 0.88165 0.51008 0.85503 0.0
C261 C 0.92337 0.58066 0.85241 0.0
N262 N 0.93332 0.6994 0.84403 0.0
N263 N 0.77073 0.43347 0.86816 0.0
C264 C 0.89521 0.62931 0.84161 0.0
C265 C 0.81084 0.49238 0.85384 0.0
N266 N 0.80183 0.64202 0.80789 0.0
N267 N 0.90941 0.45979 0.85789 0.0
H268 H 0.71881 0.41954 0.86972 0.0
H269 H 0.7901 0.40207 0.88216 0.0
H270 H 0.96123 0.4704 0.85779 0.0
H271 H 0.8806 0.4063 0.85626 0.0
H272 H 0.83284 0.6873 0.79742 0.0
H273 H 0.75237 0.62309 0.79614 0.0
H274 H 0.91276 0.73748 0.8398 0.0
H275 H 0.98378 0.72043 0.85408 0.0
C276 C 0.31272 0.93497 0.18986 0.0
C277 C 0.30365 0.87946 0.15957 0.0
C278 C 0.42372 0.92574 0.14772 0.0
C279 C 0.43344 0.98015 0.17897 0.0
N280 N 0.38494 0.05069 0.2204 0.0
N281 N 0.34369 0.83685 0.10128 0.0
C282 C 0.3769 0.98948 0.1969 0.0
C283 C 0.35696 0.88006 0.13553 0.0
N284 N 0.26061 0.93441 0.21253 0.0
N285 N 0.47787 0.91457 0.13137 0.0
H286 H 0.29486 0.80389 0.09157 0.0
H287 H 0.37968 0.839 0.08103 0.0
H288 H 0.52762 0.94617 0.13977 0.0
H289 H 0.47354 0.87095 0.11129 0.0
H290 H 0.26627 0.96886 0.23787 0.0
H291 H 0.21206 0.89701 0.20676 0.0
H292 H 0.34493 0.06298 0.23214 0.0
H293 H 0.43122 0.09236 0.22478 0.0
C294 C 0.54545 0.23476 0.4731 0.0
C295 C 0.57341 0.20547 0.50062 0.0
C296 C 0.62964 0.32528 0.53385 0.0
C297 C 0.58794 0.35047 0.51286 0.0
N298 N 0.50042 0.32529 0.46303 0.0
N299 N 0.62907 0.22642 0.56402 0.0
C300 C 0.54447 0.30436 0.4823 0.0
C301 C 0.61289 0.25166 0.53271 0.0
N302 N 0.52215 0.19759 0.43771 0.0
N303 N 0.68392 0.37175 0.5559 0.0
H304 H 0.60893 0.17361 0.56776 0.0
H305 H 0.65389 0.25948 0.58883 0.0
H306 H 0.69831 0.4261 0.55595 0.0
H307 H 0.71826 0.35569 0.56999 0.0
H308 H 0.50577 0.21864 0.41576 0.0
H309 H 0.52796 0.14968 0.42892 0.0
H310 H 0.46297 0.29073 0.44323 0.0
H311 H 0.49822 0.37564 0.46885 0.0
C312 C 0.19848 0.4627 0.80684 0.0
C313 C 0.25502 0.46334 0.78598 0.0
C314 C 0.25338 0.56475 0.75721 0.0
C315 C 0.20463 0.57103 0.78322 0.0
N316 N 0.10146 0.49795 0.80744 0.0
N317 N 0.31329 0.49105 0.72846 0.0
C318 C 0.16746 0.51154 0.80068 0.0
C319 C 0.27417 0.50589 0.75633 0.0
N320 N 0.17574 0.41687 0.83289 0.0
N321 N 0.28137 0.61631 0.73482 0.0
H322 H 0.32785 0.44723 0.72741 0.0
H323 H 0.32445 0.51709 0.70439 0.0
H324 H 0.26272 0.65681 0.73305 0.0
H325 H 0.32303 0.61927 0.71871 0.0
H326 H 0.13792 0.41871 0.85128 0.0
H327 H 0.19682 0.37881 0.83647 0.0
H328 H 0.07177 0.45358 0.81917 0.0
H329 H 0.07472 0.52402 0.79449 0.0
C330 C 0.83395 0.327 0.12798 0.0
C331 C 0.89512 0.35139 0.15101 0.0
C332 C 0.83793 0.27778 0.19927 0.0
C333 C 0.77509 0.26227 0.17919 0.0
N334 N 0.71184 0.28005 0.12652 0.0
N335 N 0.9515 0.36066 0.21284 0.0
C336 C 0.77256 0.28825 0.14381 0.0
C337 C 0.89648 0.32916 0.18766 0.0
N338 N 0.83465 0.34042 0.09085 0.0
N339 N 0.84196 0.24273 0.22931 0.0
H340 H 0.99476 0.40112 0.20693 0.0
H341 H 0.95148 0.35178 0.24138 0.0
H342 H 0.80031 0.20381 0.23836 0.0
H343 H 0.88764 0.2469 0.24249 0.0
H344 H 0.79287 0.31829 0.07146 0.0
H345 H 0.87883 0.36824 0.07837 0.0
H346 H 0.70719 0.30465 0.10301 0.0
H347 H 0.66577 0.25391 0.13763 0.0
C348 C 0.09719 0.66474 0.01087 0.0
C349 C 0.11169 0.60837 0.02405 0.0
C350 C 0.12559 0.56396 0.9576 0.0
C351 C 0.11414 0.62229 0.94509 0.0
N352 N 0.10841 0.73787 0.96048 0.0
N353 N 0.15499 0.51386 0.01111 0.0
C354 C 0.10705 0.67618 0.97215 0.0
C355 C 0.13054 0.56066 -0.00225 0.0
N356 N 0.06944 0.70447 0.03451 0.0
N357 N 0.12924 0.51069 0.93112 0.0
H358 H 0.16045 0.51101 0.04031 0.0
H359 H 0.17538 0.48236 -0.00647 0.0
H360 H 0.12838 0.51315 0.90166 0.0
H361 H 0.12962 0.46292 0.93823 0.0
H362 H 0.05164 0.74134 0.02501 0.0
H363 H 0.05712 0.69553 0.0625 0.0
H364 H 0.10957 0.78172 0.97953 0.0
H365 H 0.11553 0.74747 0.93207 0.0
C366 C 0.5348 0.04382 0.35958 0.0
C367 C 0.59076 0.03115 0.37496 0.0
C368 C 0.63533 0.02798 0.31072 0.0
C369 C 0.58428 0.05041 0.29693 0.0
N370 N 0.49628 0.09742 0.3114 0.0
N371 N 0.69754 0.01568 0.36595 0.0
C372 C 0.53707 0.06335 0.32229 0.0
C373 C 0.64234 0.02509 0.35078 0.0
N374 N 0.47891 0.03654 0.38009 0.0
N375 N 0.67489 0.00623 0.28544 0.0
H376 H 0.702 0.00769 0.39442 0.0
H377 H 0.74036 0.01939 0.3508 0.0
H378 H 0.67033 0.0063 0.25589 0.0
H379 H 0.70817 0.98246 0.29328 0.0
H380 H 0.43435 0.03805 0.36821 0.0
H381 H 0.47461 0.02307 0.40775 0.0
H382 H 0.46552 0.11411 0.3302 0.0
H383 H 0.49907 0.11635 0.28505 0.0
C384 C 0.58036 0.45727 0.69063 0.0
C385 C 0.53319 0.48376 0.70881 0.0
C386 C 0.50336 0.5127 0.64716 0.0
C387 C 0.55528 0.49254 0.63003 0.0
N388 N 0.65767 0.46909 0.63985 0.0
N389 N 0.46588 0.55718 0.70634 0.0
C390 C 0.59834 0.47208 0.65316 0.0
C391 C 0.49913 0.51746 0.68771 0.0
N392 N 0.60621 0.4157 0.70832 0.0
N393 N 0.45663 0.52483 0.62496 0.0
H394 H 0.46438 0.56506 0.73616 0.0
H395 H 0.44627 0.58846 0.69238 0.0
H396 H 0.45675 0.52007 0.59509 0.0
H397 H 0.41429 0.53315 0.63612 0.0
H398 H 0.63629 0.39035 0.69451 0.0
H399 H 0.59158 0.40007 0.73498 0.0
H400 H 0.67491 0.48491 0.61362 0.0
H401 H 0.69316 0.45959 0.65685 0.0
C402 C 0.57462 0.9774 0.63008 0.0
C403 C 0.61993 0.03857 0.61657 0.0
C404 C 0.64977 0.09319 0.68379 0.0
C405 C 0.59367 0.039 0.69553 0.0
N406 N 0.49337 0.936 0.67703 0.0
N407 N 0.69687 0.16033 0.63271 0.0
C408 C 0.55359 0.98261 0.66797 0.0
C409 C 0.65729 0.09798 0.64393 0.0
N410 N 0.5522 0.91374 0.60706 0.0
N411 N 0.6965 0.13946 0.71063 0.0
H412 H 0.70522 0.1686 0.60441 0.0
H413 H 0.71752 0.20662 0.65193 0.0
H414 H 0.69331 0.13647 0.74 0.0
H415 H 0.74179 0.17569 0.70344 0.0
H416 H 0.52355 0.86699 0.61709 0.0
H417 H 0.5688 0.90619 0.57962 0.0
H418 H 0.46002 0.89801 0.65651 0.0
H419 H 0.47311 0.94018 0.70374 0.0
C420 C 0.48911 0.44204 0.96997 0.0
C421 C 0.49283 0.49781 0.9488 0.0
C422 C 0.51162 0.57985 0.00863 0.0
C423 C 0.51317 0.52537 0.02952 0.0
N424 N 0.50864 0.40645 0.03108 0.0
N425 N 0.51297 0.62105 0.94712 0.0
C426 C 0.5034 0.45687 0.01046 0.0
C427 C 0.50471 0.56687 0.96793 0.0
N428 N 0.46974 0.37458 0.95133 0.0
N429 N 0.51654 0.6442 0.02779 0.0
H430 H 0.50474 0.61332 0.91753 0.0
H431 H 0.53137 0.67409 0.9587 0.0
H432 H 0.5283 0.65863 0.05722 0.0
H433 H 0.50569 0.68247 0.01499 0.0
H434 H 0.46017 0.33026 0.96513 0.0
H435 H 0.45755 0.36214 0.92186 0.0
H436 H 0.50945 0.35782 0.0187 0.0
H437 H 0.51644 0.41483 0.06091 0.0
C438 C 0.05011 0.60945 0.28491 0.0
C439 C 0.10646 0.60869 0.26376 0.0
C440 C 0.16446 0.59845 0.32187 0.0
C441 C 0.11179 0.6081 0.34384 0.0
N442 N 1.00998 0.63543 0.34722 0.0
N443 N 0.22141 0.61249 0.26241 0.0
C444 C 0.05591 0.61691 0.32563 0.0
C445 C 0.16505 0.6065 0.28236 0.0
N446 N 0.99094 0.60241 0.26615 0.0
N447 N 0.2122 0.57842 0.33829 0.0
H448 H 0.22331 0.61649 0.23314 0.0
H449 H 0.26784 0.61894 0.27547 0.0
H450 H 0.21231 0.56962 0.36687 0.0
H451 H 0.2477 0.56365 0.3227 0.0
H452 H 0.94615 0.59535 0.27987 0.0
H453 H 0.98509 0.59758 0.23634 0.0
H454 H 0.97219 0.64964 0.33554 0.0
H455 H 1.01333 0.64313 0.37717 0.0
loop_
_geom_bond_atom_site_label_1
_geom_bond_atom_site_label_2
_geom_bond_distance
_geom_bond_site_symmetry_2
_ccdc_geom_bond_type
Tb0 O3 2.453 1_455 S
Tb0 O4 2.596 1_455 S
Tb0 O5 2.374 . S
Tb0 O13 2.343 . S
Tb0 O15 2.353 . S
Tb0 O17 2.427 . S
Tb0 O18 2.513 . S
C1 O5 1.251 . S
C1 O7 1.263 . S
Tb2 O4 2.343 1_455 S
Tb2 O7 2.353 . S
Tb2 O10 2.427 1_455 S
Tb2 O11 2.513 1_455 S
Tb2 O12 2.453 . S
Tb2 O13 2.596 . S
Tb2 O14 2.374 . S
O3 Tb0 2.453 1_655 S
O3 C19 1.245 . S
O4 Tb0 2.596 1_655 S
O4 Tb2 2.343 1_655 S
O4 C19 1.259 . S
O5 Tb0 2.374 . S
O5 C1 1.251 . S
C6 O10 1.275 . S
C6 O11 1.246 . S
O7 C1 1.263 . S
O7 Tb2 2.353 . S
C8 O12 1.245 . S
C8 O13 1.259 . S
C9 O14 1.250 . S
C9 O15 1.263 . S
O10 Tb2 2.427 1_655 S
O10 C6 1.275 . S
O11 Tb2 2.513 1_655 S
O11 C6 1.246 . S
O12 Tb2 2.453 . S
O12 C8 1.245 . S
O13 Tb0 2.343 . S
O13 Tb2 2.596 . S
O13 C8 1.259 . S
O14 Tb2 2.374 . S
O14 C9 1.250 . S
O15 Tb0 2.353 . S
O15 C9 1.263 . S
C16 O17 1.275 . S
C16 O18 1.246 . S
O17 Tb0 2.427 . S
O17 C16 1.275 . S
O18 Tb0 2.513 . S
O18 C16 1.246 . S
C19 O3 1.245 . S
C19 O4 1.259 . S
Tb20 O23 2.453 . S
Tb20 O24 2.596 . S
Tb20 O25 2.374 . S
Tb20 O33 2.343 1_545 S
Tb20 O35 2.353 . S
Tb20 O37 2.427 1_545 S
Tb20 O38 2.513 1_545 S
C21 O25 1.251 . S
C21 O27 1.263 . S
Tb22 O24 2.343 . S
Tb22 O27 2.353 . S
Tb22 O30 2.427 . S
Tb22 O31 2.513 . S
Tb22 O32 2.453 1_545 S
Tb22 O33 2.596 1_545 S
Tb22 O34 2.374 . S
O23 Tb20 2.453 . S
O23 C39 1.245 . S
O24 Tb20 2.596 . S
O24 Tb22 2.343 . S
O24 C39 1.259 . S
O25 Tb20 2.374 . S
O25 C21 1.251 . S
C26 O30 1.275 . S
C26 O31 1.246 . S
O27 C21 1.263 . S
O27 Tb22 2.353 . S
C28 O32 1.245 . S
C28 O33 1.259 . S
C29 O34 1.250 . S
C29 O35 1.263 . S
O30 Tb22 2.427 . S
O30 C26 1.275 . S
O31 Tb22 2.513 . S
O31 C26 1.246 . S
O32 Tb22 2.453 1_565 S
O32 C28 1.245 . S
O33 Tb20 2.343 1_565 S
O33 Tb22 2.596 1_565 S
O33 C28 1.259 . S
O34 Tb22 2.374 . S
O34 C29 1.250 . S
O35 Tb20 2.353 . S
O35 C29 1.263 . S
C36 O37 1.275 . S
C36 O38 1.246 . S
O37 Tb20 2.427 1_565 S
O37 C36 1.275 . S
O38 Tb20 2.513 1_565 S
O38 C36 1.246 . S
C39 O23 1.245 . S
C39 O24 1.259 . S
Tb40 O43 2.453 . S
Tb40 O44 2.596 . S
Tb40 O45 2.374 . S
Tb40 O53 2.343 . S
Tb40 O55 2.353 . S
Tb40 O57 2.427 . S
Tb40 O58 2.513 . S
C41 O45 1.251 . S
C41 O47 1.263 . S
Tb42 O44 2.343 . S
Tb42 O47 2.353 . S
Tb42 O50 2.427 . S
Tb42 O51 2.513 . S
Tb42 O52 2.453 . S
Tb42 O53 2.596 . S
Tb42 O54 2.374 . S
O43 Tb40 2.453 . S
O43 C59 1.245 . S
O44 Tb40 2.596 . S
O44 Tb42 2.343 . S
O44 C59 1.259 . S
O45 Tb40 2.374 . S
O45 C41 1.251 . S
C46 O50 1.275 . S
C46 O51 1.246 . S
O47 C41 1.263 . S
O47 Tb42 2.353 . S
C48 O52 1.245 . S
C48 O53 1.259 . S
C49 O54 1.250 . S
C49 O55 1.263 . S
O50 Tb42 2.427 . S
O50 C46 1.275 . S
O51 Tb42 2.513 . S
O51 C46 1.246 . S
O52 Tb42 2.453 . S
O52 C48 1.245 . S
O53 Tb40 2.343 . S
O53 Tb42 2.596 . S
O53 C48 1.259 . S
O54 Tb42 2.374 . S
O54 C49 1.250 . S
O55 Tb40 2.353 . S
O55 C49 1.263 . S
C56 O57 1.275 . S
C56 O58 1.246 . S
O57 Tb40 2.427 . S
O57 C56 1.275 . S
O58 Tb40 2.513 . S
O58 C56 1.246 . S
C59 O43 1.245 . S
C59 O44 1.259 . S
H60 C65 0.930 . S
H61 C68 0.930 . S
H62 C70 0.930 1_565 S
H63 C64 1.016 . S
C64 H63 1.016 . S
C64 N71 1.286 . S
C65 H60 0.930 . S
C65 C66 1.397 1_545 S
C65 C67 1.361 . S
C66 C65 1.397 1_565 S
C66 C70 1.390 1_565 S
C67 C65 1.361 . S
C67 C68 1.393 . S
C67 N71 1.413 . S
C68 H61 0.930 . S
C68 C67 1.393 . S
C68 C69 1.399 . S
C69 C68 1.399 . S
C69 C70 1.381 . S
C70 H62 0.930 1_545 S
C70 C66 1.390 1_545 S
C70 C69 1.381 . S
N71 C64 1.286 . S
N71 C67 1.413 . S
H72 C77 0.930 . S
H73 C80 0.930 . S
H74 C82 0.930 . S
H75 C76 1.016 . S
C76 H75 1.016 . S
C76 N83 1.286 . S
C77 H72 0.930 . S
C77 C78 1.397 . S
C77 C79 1.361 . S
C78 C77 1.397 . S
C78 C82 1.390 . S
C79 C77 1.361 . S
C79 C80 1.393 . S
C79 N83 1.413 . S
C80 H73 0.930 . S
C80 C79 1.393 . S
C80 C81 1.399 . S
C81 C80 1.399 . S
C81 C82 1.381 . S
C82 H74 0.930 . S
C82 C78 1.390 . S
C82 C81 1.381 . S
N83 C76 1.286 . S
N83 C79 1.413 . S
H84 C89 0.930 . S
H85 C92 0.930 . S
H86 C94 0.930 . S
H87 C88 1.016 . S
C88 H87 1.016 . S
C88 N95 1.286 . S
C89 H84 0.930 . S
C89 C90 1.397 1_455 S
C89 C91 1.361 . S
C90 C89 1.397 1_655 S
C90 C94 1.390 . S
C91 C89 1.361 . S
C91 C92 1.393 . S
C91 N95 1.413 . S
C92 H85 0.930 . S
C92 C91 1.393 . S
C92 C93 1.399 . S
C93 C92 1.399 . S
C93 C94 1.381 1_455 S
C94 H86 0.930 . S
C94 C90 1.390 . S
C94 C93 1.381 1_655 S
N95 C88 1.286 . S
N95 C91 1.413 . S
H96 C101 0.930 . S
H97 C104 0.930 . S
H98 C106 0.930 . S
H99 C100 1.016 . S
C100 H99 1.016 . S
C100 N107 1.286 . S
C101 H96 0.930 . S
C101 C102 1.397 . S
C101 C103 1.361 1_455 S
C102 C101 1.397 . S
C102 C106 1.390 . S
C103 C101 1.361 1_655 S
C103 C104 1.393 . S
C103 N107 1.413 . S
C104 H97 0.930 . S
C104 C103 1.393 . S
C104 C105 1.399 1_655 S
C105 C104 1.399 1_455 S
C105 C106 1.381 . S
C106 H98 0.930 . S
C106 C102 1.390 . S
C106 C105 1.381 . S
N107 C100 1.286 . S
N107 C103 1.413 . S
H108 C113 0.930 . S
H109 C116 0.917 1_565 S
H110 C118 0.930 . S
H111 C112 1.016 . S
C112 H111 1.016 . S
C112 N119 1.286 . S
C113 H108 0.930 . S
C113 C114 1.397 . S
C113 C115 1.361 . S
C114 C113 1.397 . S
C114 C118 1.390 . S
C115 C113 1.361 . S
C115 C116 1.393 . S
C115 N119 1.413 1_545 S
C116 H109 0.917 1_545 S
C116 C115 1.393 . S
C116 C117 1.412 . S
C117 C116 1.412 . S
C117 C118 1.381 . S
C118 H110 0.930 . S
C118 C114 1.390 . S
C118 C117 1.381 . S
N119 C112 1.286 . S
N119 C115 1.413 1_565 S
H120 C125 0.930 . S
H121 C128 0.930 . S
H122 C130 0.930 . S
H123 C124 1.016 . S
C124 H123 1.016 . S
C124 N131 1.286 . S
C125 H120 0.930 . S
C125 C126 1.397 . S
C125 C127 1.361 . S
C126 C125 1.397 . S
C126 C130 1.390 . S
C127 C125 1.361 . S
C127 C128 1.393 . S
C127 N131 1.413 . S
C128 H121 0.930 . S
C128 C127 1.393 . S
C128 C129 1.399 . S
C129 C128 1.399 . S
C129 C130 1.381 . S
C130 H122 0.930 . S
C130 C126 1.390 . S
C130 C129 1.381 . S
N131 C124 1.286 . S
N131 C127 1.413 . S
C132 C133 1.363 . S
C132 C138 1.379 . S
C132 N140 1.356 . S
C133 C132 1.363 . S
C133 C139 1.363 . S
C134 C135 1.363 . S
C134 C139 1.379 . S
C134 N141 1.356 . S
C135 C134 1.363 . S
C135 C138 1.363 . S
N136 C138 1.356 . S
N136 H148 0.984 . S
N136 H149 0.985 . S
N137 C139 1.356 . S
N137 H142 0.984 . S
N137 H143 0.985 . S
C138 C132 1.379 . S
C138 C135 1.363 . S
C138 N136 1.356 . S
C139 C133 1.363 . S
C139 C134 1.379 . S
C139 N137 1.356 . S
N140 C132 1.356 . S
N140 H146 0.984 . S
N140 H147 0.984 . S
N141 C134 1.356 . S
N141 H144 0.984 . S
N141 H145 0.985 . S
H142 N137 0.984 . S
H143 N137 0.985 . S
H144 N141 0.984 . S
H145 N141 0.985 . S
H146 N140 0.984 . S
H147 N140 0.984 . S
H148 N136 0.984 . S
H149 N136 0.985 . S
C150 C151 1.363 . S
C150 C156 1.379 . S
C150 N158 1.356 . S
C151 C150 1.363 . S
C151 C157 1.363 . S
C152 C153 1.363 . S
C152 C157 1.379 . S
C152 N159 1.356 . S
C153 C152 1.363 . S
C153 C156 1.363 . S
N154 C156 1.356 . S
N154 H166 0.984 . S
N154 H167 0.985 . S
N155 C157 1.356 . S
N155 H160 0.984 . S
N155 H161 0.985 . S
C156 C150 1.379 . S
C156 C153 1.363 . S
C156 N154 1.356 . S
C157 C151 1.363 . S
C157 C152 1.379 . S
C157 N155 1.356 . S
N158 C150 1.356 . S
N158 H164 0.984 . S
N158 H165 0.984 . S
N159 C152 1.356 . S
N159 H162 0.984 . S
N159 H163 0.985 . S
H160 N155 0.984 . S
H161 N155 0.985 . S
H162 N159 0.984 . S
H163 N159 0.985 . S
H164 N158 0.984 . S
H165 N158 0.984 . S
H166 N154 0.984 . S
H167 N154 0.985 . S
C168 C169 1.363 . S
C168 C174 1.379 . S
C168 N176 1.356 . S
C169 C168 1.363 . S
C169 C175 1.363 . S
C170 C171 1.363 . S
C170 C175 1.379 . S
C170 N177 1.356 . S
C171 C170 1.363 . S
C171 C174 1.363 . S
N172 C174 1.356 . S
N172 H184 0.984 . S
N172 H185 0.985 . S
N173 C175 1.356 . S
N173 H178 0.984 . S
N173 H179 0.985 . S
C174 C168 1.379 . S
C174 C171 1.363 . S
C174 N172 1.356 . S
C175 C169 1.363 . S
C175 C170 1.379 . S
C175 N173 1.356 . S
N176 C168 1.356 . S
N176 H182 0.984 . S
N176 H183 0.984 . S
N177 C170 1.356 . S
N177 H180 0.984 . S
N177 H181 0.985 . S
H178 N173 0.984 . S
H179 N173 0.985 . S
H180 N177 0.984 . S
H181 N177 0.985 . S
H182 N176 0.984 . S
H183 N176 0.984 . S
H184 N172 0.984 . S
H185 N172 0.985 . S
C186 C187 1.363 . S
C186 C192 1.379 . S
C186 N194 1.356 . S
C187 C186 1.363 . S
C187 C193 1.363 . S
C188 C189 1.363 . S
C188 C193 1.379 . S
C188 N195 1.356 . S
C189 C188 1.363 . S
C189 C192 1.363 . S
N190 C192 1.356 . S
N190 H202 0.984 . S
N190 H203 0.985 . S
N191 C193 1.356 . S
N191 H196 0.984 . S
N191 H197 0.985 . S
C192 C186 1.379 . S
C192 C189 1.363 . S
C192 N190 1.356 . S
C193 C187 1.363 . S
C193 C188 1.379 . S
C193 N191 1.356 . S
N194 C186 1.356 . S
N194 H200 0.984 . S
N194 H201 0.984 . S
N195 C188 1.356 . S
N195 H198 0.984 . S
N195 H199 0.985 . S
H196 N191 0.984 . S
H197 N191 0.985 . S
H198 N195 0.984 . S
H199 N195 0.985 . S
H200 N194 0.984 . S
H201 N194 0.984 . S
H202 N190 0.984 . S
H203 N190 0.985 . S
C204 C205 1.363 . S
C204 C210 1.379 . S
C204 N212 1.356 . S
C205 C204 1.363 . S
C205 C211 1.363 . S
C206 C207 1.363 . S
C206 C211 1.379 . S
C206 N213 1.356 . S
C207 C206 1.363 . S
C207 C210 1.363 . S
N208 C210 1.356 . S
N208 H220 0.984 . S
N208 H221 0.985 . S
N209 C211 1.356 . S
N209 H214 0.984 . S
N209 H215 0.985 . S
C210 C204 1.379 . S
C210 C207 1.363 . S
C210 N208 1.356 . S
C211 C205 1.363 . S
C211 C206 1.379 . S
C211 N209 1.356 . S
N212 C204 1.356 . S
N212 H218 0.984 . S
N212 H219 0.984 . S
N213 C206 1.356 . S
N213 H216 0.984 . S
N213 H217 0.985 . S
H214 N209 0.984 . S
H215 N209 0.985 . S
H216 N213 0.984 . S
H217 N213 0.985 . S
H218 N212 0.984 . S
H219 N212 0.984 . S
H220 N208 0.984 . S
H221 N208 0.985 . S
C222 C223 1.363 . S
C222 C228 1.379 . S
C222 N230 1.356 . S
C223 C222 1.363 . S
C223 C229 1.363 . S
C224 C225 1.363 . S
C224 C229 1.379 . S
C224 N231 1.356 . S
C225 C224 1.363 . S
C225 C228 1.363 . S
N226 C228 1.356 . S
N226 H238 0.984 . S
N226 H239 0.985 . S
N227 C229 1.356 . S
N227 H232 0.984 . S
N227 H233 0.985 . S
C228 C222 1.379 . S
C228 C225 1.363 . S
C228 N226 1.356 . S
C229 C223 1.363 . S
C229 C224 1.379 . S
C229 N227 1.356 . S
N230 C222 1.356 . S
N230 H236 0.984 . S
N230 H237 0.984 . S
N231 C224 1.356 . S
N231 H234 0.984 . S
N231 H235 0.985 . S
H232 N227 0.984 . S
H233 N227 0.985 . S
H234 N231 0.984 . S
H235 N231 0.985 . S
H236 N230 0.984 . S
H237 N230 0.984 . S
H238 N226 0.984 . S
H239 N226 0.985 . S
C240 C241 1.363 . S
C240 C246 1.379 . S
C240 N248 1.356 . S
C241 C240 1.363 . S
C241 C247 1.363 . S
C242 C243 1.363 . S
C242 C247 1.379 . S
C242 N249 1.356 . S
C243 C242 1.363 . S
C243 C246 1.363 . S
N244 C246 1.356 . S
N244 H256 0.984 . S
N244 H257 0.985 . S
N245 C247 1.356 . S
N245 H250 0.984 . S
N245 H251 0.985 . S
C246 C240 1.379 . S
C246 C243 1.363 . S
C246 N244 1.356 . S
C247 C241 1.363 . S
C247 C242 1.379 . S
C247 N245 1.356 . S
N248 C240 1.356 . S
N248 H254 0.984 . S
N248 H255 0.984 . S
N249 C242 1.356 . S
N249 H252 0.984 . S
N249 H253 0.985 . S
H250 N245 0.984 . S
H251 N245 0.985 . S
H252 N249 0.984 . S
H253 N249 0.985 . S
H254 N248 0.984 . S
H255 N248 0.984 . S
H256 N244 0.984 . S
H257 N244 0.985 . S
C258 C259 1.363 . S
C258 C264 1.379 . S
C258 N266 1.356 . S
C259 C258 1.363 . S
C259 C265 1.363 . S
C260 C261 1.363 . S
C260 C265 1.379 . S
C260 N267 1.356 . S
C261 C260 1.363 . S
C261 C264 1.363 . S
N262 C264 1.356 . S
N262 H274 0.984 . S
N262 H275 0.985 . S
N263 C265 1.356 . S
N263 H268 0.984 . S
N263 H269 0.985 . S
C264 C258 1.379 . S
C264 C261 1.363 . S
C264 N262 1.356 . S
C265 C259 1.363 . S
C265 C260 1.379 . S
C265 N263 1.356 . S
N266 C258 1.356 . S
N266 H272 0.984 . S
N266 H273 0.984 . S
N267 C260 1.356 . S
N267 H270 0.984 . S
N267 H271 0.985 . S
H268 N263 0.984 . S
H269 N263 0.985 . S
H270 N267 0.984 . S
H271 N267 0.985 . S
H272 N266 0.984 . S
H273 N266 0.984 . S
H274 N262 0.984 . S
H275 N262 0.985 . S
C276 C277 1.363 . S
C276 C282 1.379 . S
C276 N284 1.356 . S
C277 C276 1.363 . S
C277 C283 1.363 . S
C278 C279 1.363 . S
C278 C283 1.379 . S
C278 N285 1.356 . S
C279 C278 1.363 . S
C279 C282 1.363 . S
N280 C282 1.356 . S
N280 H292 0.984 . S
N280 H293 0.985 1_565 S
N281 C283 1.356 . S
N281 H286 0.984 . S
N281 H287 0.985 . S
C282 C276 1.379 . S
C282 C279 1.363 . S
C282 N280 1.356 . S
C283 C277 1.363 . S
C283 C278 1.379 . S
C283 N281 1.356 . S
N284 C276 1.356 . S
N284 H290 0.984 . S
N284 H291 0.984 . S
N285 C278 1.356 . S
N285 H288 0.984 . S
N285 H289 0.985 . S
H286 N281 0.984 . S
H287 N281 0.985 . S
H288 N285 0.984 . S
H289 N285 0.985 . S
H290 N284 0.984 . S
H291 N284 0.984 . S
H292 N280 0.984 . S
H293 N280 0.985 1_545 S
C294 C295 1.363 . S
C294 C300 1.379 . S
C294 N302 1.356 . S
C295 C294 1.363 . S
C295 C301 1.363 . S
C296 C297 1.363 . S
C296 C301 1.379 . S
C296 N303 1.356 . S
C297 C296 1.363 . S
C297 C300 1.363 . S
N298 C300 1.356 . S
N298 H310 0.984 . S
N298 H311 0.985 . S
N299 C301 1.356 . S
N299 H304 0.984 . S
N299 H305 0.985 . S
C300 C294 1.379 . S
C300 C297 1.363 . S
C300 N298 1.356 . S
C301 C295 1.363 . S
C301 C296 1.379 . S
C301 N299 1.356 . S
N302 C294 1.356 . S
N302 H308 0.984 . S
N302 H309 0.984 . S
N303 C296 1.356 . S
N303 H306 0.984 . S
N303 H307 0.985 . S
H304 N299 0.984 . S
H305 N299 0.985 . S
H306 N303 0.984 . S
H307 N303 0.985 . S
H308 N302 0.984 . S
H309 N302 0.984 . S
H310 N298 0.984 . S
H311 N298 0.985 . S
C312 C313 1.363 . S
C312 C318 1.379 . S
C312 N320 1.356 . S
C313 C312 1.363 . S
C313 C319 1.363 . S
C314 C315 1.363 . S
C314 C319 1.379 . S
C314 N321 1.356 . S
C315 C314 1.363 . S
C315 C318 1.363 . S
N316 C318 1.356 . S
N316 H328 0.984 . S
N316 H329 0.985 . S
N317 C319 1.356 . S
N317 H322 0.984 . S
N317 H323 0.985 . S
C318 C312 1.379 . S
C318 C315 1.363 . S
C318 N316 1.356 . S
C319 C313 1.363 . S
C319 C314 1.379 . S
C319 N317 1.356 . S
N320 C312 1.356 . S
N320 H326 0.984 . S
N320 H327 0.984 . S
N321 C314 1.356 . S
N321 H324 0.984 . S
N321 H325 0.985 . S
H322 N317 0.984 . S
H323 N317 0.985 . S
H324 N321 0.984 . S
H325 N321 0.985 . S
H326 N320 0.984 . S
H327 N320 0.984 . S
H328 N316 0.984 . S
H329 N316 0.985 . S
C330 C331 1.363 . S
C330 C336 1.379 . S
C330 N338 1.356 . S
C331 C330 1.363 . S
C331 C337 1.363 . S
C332 C333 1.363 . S
C332 C337 1.379 . S
C332 N339 1.356 . S
C333 C332 1.363 . S
C333 C336 1.363 . S
N334 C336 1.356 . S
N334 H346 0.984 . S
N334 H347 0.985 . S
N335 C337 1.356 . S
N335 H340 0.984 . S
N335 H341 0.985 . S
C336 C330 1.379 . S
C336 C333 1.363 . S
C336 N334 1.356 . S
C337 C331 1.363 . S
C337 C332 1.379 . S
C337 N335 1.356 . S
N338 C330 1.356 . S
N338 H344 0.984 . S
N338 H345 0.984 . S
N339 C332 1.356 . S
N339 H342 0.984 . S
N339 H343 0.985 . S
H340 N335 0.984 . S
H341 N335 0.985 . S
H342 N339 0.984 . S
H343 N339 0.985 . S
H344 N338 0.984 . S
H345 N338 0.984 . S
H346 N334 0.984 . S
H347 N334 0.985 . S
C348 C349 1.363 . S
C348 C354 1.379 1_554 S
C348 N356 1.356 . S
C349 C348 1.363 . S
C349 C355 1.363 . S
C350 C351 1.363 . S
C350 C355 1.379 1_556 S
C350 N357 1.356 . S
C351 C350 1.363 . S
C351 C354 1.363 . S
N352 C354 1.356 . S
N352 H364 0.984 . S
N352 H365 0.985 . S
N353 C355 1.356 . S
N353 H358 0.984 . S
N353 H359 0.985 . S
C354 C348 1.379 1_556 S
C354 C351 1.363 . S
C354 N352 1.356 . S
C355 C349 1.363 . S
C355 C350 1.379 1_554 S
C355 N353 1.356 . S
N356 C348 1.356 . S
N356 H362 0.984 . S
N356 H363 0.984 . S
N357 C350 1.356 . S
N357 H360 0.984 . S
N357 H361 0.985 . S
H358 N353 0.984 . S
H359 N353 0.985 . S
H360 N357 0.984 . S
H361 N357 0.985 . S
H362 N356 0.984 . S
H363 N356 0.984 . S
H364 N352 0.984 . S
H365 N352 0.985 . S
C366 C367 1.363 . S
C366 C372 1.379 . S
C366 N374 1.356 . S
C367 C366 1.363 . S
C367 C373 1.363 . S
C368 C369 1.363 . S
C368 C373 1.379 . S
C368 N375 1.356 1_545 S
C369 C368 1.363 . S
C369 C372 1.363 . S
N370 C372 1.356 . S
N370 H382 0.984 . S
N370 H383 0.985 . S
N371 C373 1.356 1_565 S
N371 H376 0.984 . S
N371 H377 0.985 . S
C372 C366 1.379 . S
C372 C369 1.363 . S
C372 N370 1.356 . S
C373 C367 1.363 . S
C373 C368 1.379 . S
C373 N371 1.356 1_545 S
N374 C366 1.356 . S
N374 H380 0.984 . S
N374 H381 0.984 . S
N375 C368 1.356 1_565 S
N375 H378 0.984 . S
N375 H379 0.985 . S
H376 N371 0.984 . S
H377 N371 0.985 . S
H378 N375 0.984 . S
H379 N375 0.985 . S
H380 N374 0.984 . S
H381 N374 0.984 . S
H382 N370 0.984 . S
H383 N370 0.985 . S
C384 C385 1.363 . S
C384 C390 1.379 . S
C384 N392 1.356 . S
C385 C384 1.363 . S
C385 C391 1.363 . S
C386 C387 1.363 . S
C386 C391 1.379 . S
C386 N393 1.356 . S
C387 C386 1.363 . S
C387 C390 1.363 . S
N388 C390 1.356 . S
N388 H400 0.984 . S
N388 H401 0.985 . S
N389 C391 1.356 . S
N389 H394 0.984 . S
N389 H395 0.985 . S
C390 C384 1.379 . S
C390 C387 1.363 . S
C390 N388 1.356 . S
C391 C385 1.363 . S
C391 C386 1.379 . S
C391 N389 1.356 . S
N392 C384 1.356 . S
N392 H398 0.984 . S
N392 H399 0.984 . S
N393 C386 1.356 . S
N393 H396 0.984 . S
N393 H397 0.985 . S
H394 N389 0.984 . S
H395 N389 0.985 . S
H396 N393 0.984 . S
H397 N393 0.985 . S
H398 N392 0.984 . S
H399 N392 0.984 . S
H400 N388 0.984 . S
H401 N388 0.985 . S
C402 C403 1.363 . S
C402 C408 1.382 . S
C402 N410 1.356 1_545 S
C403 C402 1.363 . S
C403 C409 1.363 . S
C404 C405 1.363 . S
C404 C409 1.379 . S
C404 N411 1.356 . S
C405 C404 1.363 . S
C405 C408 1.365 . S
N406 C408 1.351 1_565 S
N406 H418 0.984 . S
N406 H419 0.985 . S
N407 C409 1.356 . S
N407 H412 0.984 . S
N407 H413 0.985 . S
C408 C402 1.382 . S
C408 C405 1.365 . S
C408 N406 1.351 1_545 S
C409 C403 1.363 . S
C409 C404 1.379 . S
C409 N407 1.356 . S
N410 C402 1.356 1_565 S
N410 H416 0.984 . S
N410 H417 0.984 . S
N411 C404 1.356 . S
N411 H414 0.984 . S
N411 H415 0.985 . S
H412 N407 0.984 . S
H413 N407 0.985 . S
H414 N411 0.984 . S
H415 N411 0.985 . S
H416 N410 0.984 . S
H417 N410 0.984 . S
H418 N406 0.984 . S
H419 N406 0.985 . S
C420 C421 1.363 . S
C420 C426 1.382 . S
C420 N428 1.356 . S
C421 C420 1.363 . S
C421 C427 1.363 . S
C422 C423 1.363 . S
C422 C427 1.379 1_554 S
C422 N429 1.356 . S
C423 C422 1.363 . S
C423 C426 1.361 1_554 S
N424 C426 1.354 1_554 S
N424 H436 0.984 . S
N424 H437 0.985 . S
N425 C427 1.356 . S
N425 H430 0.984 . S
N425 H431 0.985 . S
C426 C420 1.382 . S
C426 C423 1.361 1_556 S
C426 N424 1.354 1_556 S
C427 C421 1.363 . S
C427 C422 1.379 1_556 S
C427 N425 1.356 . S
N428 C420 1.356 . S
N428 H434 0.984 . S
N428 H435 0.984 . S
N429 C422 1.356 . S
N429 H432 0.984 . S
N429 H433 0.985 . S
H430 N425 0.984 . S
H431 N425 0.985 . S
H432 N429 0.984 . S
H433 N429 0.985 . S
H434 N428 0.984 . S
H435 N428 0.984 . S
H436 N424 0.984 . S
H437 N424 0.985 . S
C438 C439 1.363 1_655 S
C438 C444 1.379 . S
C438 N446 1.356 . S
C439 C438 1.363 1_455 S
C439 C445 1.363 . S
C440 C441 1.363 . S
C440 C445 1.379 . S
C440 N447 1.356 . S
C441 C440 1.363 . S
C441 C444 1.363 1_455 S
N442 C444 1.356 . S
N442 H454 0.984 . S
N442 H455 0.985 . S
N443 C445 1.356 . S
N443 H448 0.984 . S
N443 H449 0.985 . S
C444 C438 1.379 . S
C444 C441 1.363 1_655 S
C444 N442 1.356 . S
C445 C439 1.363 . S
C445 C440 1.379 . S
C445 N443 1.356 . S
N446 C438 1.356 . S
N446 H452 0.984 . S
N446 H453 0.984 . S
N447 C440 1.356 . S
N447 H450 0.984 . S
N447 H451 0.985 . S
H448 N443 0.984 . S
H449 N443 0.985 . S
H450 N447 0.984 . S
H451 N447 0.985 . S
H452 N446 0.984 . S
H453 N446 0.984 . S
H454 N442 0.984 . S
H455 N442 0.985 . S
C133 C8 2.113 . S
C135 C126 2.190 . S
C151 C26 1.416 . S
C153 C100 1.411 . S
C169 C48 1.567 . S
C171 C112 1.594 . S
C187 C19 1.741 . S
C189 C124 1.678 . S
C207 C102 1.359 . S
C205 C36 1.354 . S
C225 C114 1.573 . S
C223 C59 1.518 . S
C241 C28 1.575 . S
C243 C76 1.597 . S
C259 C46 1.329 . S
C261 C90 1.383 . S
C277 C16 1.372 . S
C279 C66 1.366 . S
C297 C78 1.568 . S
C295 C39 1.532 . S
C315 C88 0.900 . S
C313 C56 0.917 . S
C331 C6 1.455 . S
C333 C64 1.436 . S
C351 C93 1.513 . S
C349 C9 1.456 . S
C367 C21 1.522 . S
C369 C69 1.541 . S
C385 C49 1.484 . S
C387 C81 1.479 . S
C405 C117 1.497 . S
C403 C29 1.500 . S
C423 C129 1.648 . S
C421 C41 1.604 . S
C439 C1 1.501 . S
C441 C105 1.507 . S
