# Generated by pormake.
# Topology eea, (3,6)-cn, num edge types: 1
# Building blocks:
#     Node 0, Type 0, BuildingBlock: BELTOD_clean_linker_0, # of connection points: 3
#     Node 1, Type 0, BuildingBlock: BELTOD_clean_linker_0, # of connection points: 3
#     Node 2, Type 0, BuildingBlock: BELTOD_clean_linker_0, # of connection points: 3
#     Node 3, Type 0, BuildingBlock: BELTOD_clean_linker_0, # of connection points: 3
#     Node 4, Type 0, BuildingBlock: BELTOD_clean_linker_0, # of connection points: 3
#     Node 5, Type 0, BuildingBlock: BELTOD_clean_linker_0, # of connection points: 3
#     Node 6, Type 0, BuildingBlock: BELTOD_clean_linker_0, # of connection points: 3
#     Node 7, Type 0, BuildingBlock: BELTOD_clean_linker_0, # of connection points: 3
#     Node 8, Type 0, BuildingBlock: BELTOD_clean_linker_0, # of connection points: 3
#     Node 9, Type 0, BuildingBlock: BELTOD_clean_linker_0, # of connection points: 3
#     Node 10, Type 0, BuildingBlock: BELTOD_clean_linker_0, # of connection points: 3
#     Node 11, Type 0, BuildingBlock: BELTOD_clean_linker_0, # of connection points: 3
#     Node 12, Type 0, BuildingBlock: BELTOD_clean_linker_0, # of connection points: 3
#     Node 13, Type 0, BuildingBlock: BELTOD_clean_linker_0, # of connection points: 3
#     Node 14, Type 0, BuildingBlock: BELTOD_clean_linker_0, # of connection points: 3
#     Node 15, Type 0, BuildingBlock: BELTOD_clean_linker_0, # of connection points: 3
#     Node 16, Type 0, BuildingBlock: BELTOD_clean_linker_0, # of connection points: 3
#     Node 17, Type 0, BuildingBlock: BELTOD_clean_linker_0, # of connection points: 3
#     Node 18, Type 1, BuildingBlock: KUMBOL_clean_sbu_0, # of connection points: 6
#     Node 19, Type 1, BuildingBlock: KUMBOL_clean_sbu_0, # of connection points: 6
#     Node 20, Type 1, BuildingBlock: KUMBOL_clean_sbu_0, # of connection points: 6
#     Node 21, Type 1, BuildingBlock: KUMBOL_clean_sbu_0, # of connection points: 6
#     Node 22, Type 1, BuildingBlock: KUMBOL_clean_sbu_0, # of connection points: 6
#     Node 23, Type 1, BuildingBlock: KUMBOL_clean_sbu_0, # of connection points: 6
#     Node 24, Type 1, BuildingBlock: KUMBOL_clean_sbu_0, # of connection points: 6
#     Node 25, Type 1, BuildingBlock: KUMBOL_clean_sbu_0, # of connection points: 6
#     Node 26, Type 1, BuildingBlock: KUMBOL_clean_sbu_0, # of connection points: 6
#     Edge 27, Type (0, 1), None
#     Edge 28, Type (0, 1), None
#     Edge 29, Type (0, 1), None
#     Edge 30, Type (0, 1), None
#     Edge 31, Type (0, 1), None
#     Edge 32, Type (0, 1), None
#     Edge 33, Type (0, 1), None
#     Edge 34, Type (0, 1), None
#     Edge 35, Type (0, 1), None
#     Edge 36, Type (0, 1), None
#     Edge 37, Type (0, 1), None
#     Edge 38, Type (0, 1), None
#     Edge 39, Type (0, 1), None
#     Edge 40, Type (0, 1), None
#     Edge 41, Type (0, 1), None
#     Edge 42, Type (0, 1), None
#     Edge 43, Type (0, 1), None
#     Edge 44, Type (0, 1), None
#     Edge 45, Type (0, 1), None
#     Edge 46, Type (0, 1), None
#     Edge 47, Type (0, 1), None
#     Edge 48, Type (0, 1), None
#     Edge 49, Type (0, 1), None
#     Edge 50, Type (0, 1), None
#     Edge 51, Type (0, 1), None
#     Edge 52, Type (0, 1), None
#     Edge 53, Type (0, 1), None
#     Edge 54, Type (0, 1), None
#     Edge 55, Type (0, 1), None
#     Edge 56, Type (0, 1), None
#     Edge 57, Type (0, 1), None
#     Edge 58, Type (0, 1), None
#     Edge 59, Type (0, 1), None
#     Edge 60, Type (0, 1), None
#     Edge 61, Type (0, 1), None
#     Edge 62, Type (0, 1), None
#     Edge 63, Type (0, 1), None
#     Edge 64, Type (0, 1), None
#     Edge 65, Type (0, 1), None
#     Edge 66, Type (0, 1), None
#     Edge 67, Type (0, 1), None
#     Edge 68, Type (0, 1), None
#     Edge 69, Type (0, 1), None
#     Edge 70, Type (0, 1), None
#     Edge 71, Type (0, 1), None
#     Edge 72, Type (0, 1), None
#     Edge 73, Type (0, 1), None
#     Edge 74, Type (0, 1), None
#     Edge 75, Type (0, 1), None
#     Edge 76, Type (0, 1), None
#     Edge 77, Type (0, 1), None
#     Edge 78, Type (0, 1), None
#     Edge 79, Type (0, 1), None
#     Edge 80, Type (0, 1), None
# Relax obj value: 0.005
# Max RMSD: 0.132
# Mean RMSD: 0.104
data_MOF--net-eea--node1-KUMBOL_clean_sbu_0--node2-BELTOD_clean_linker_0--edge1-none
_symmetry_space_group_name_H-M    P1
_symmetry_Int_Tables_number       1
_symmetry_cell_setting            triclinic
loop_
_symmetry_equiv_pos_as_xyz
'x, y, z'
_cell_length_a     28.994274
_cell_length_b     30.069411
_cell_length_c     48.056085
_cell_angle_alpha  89.96708
_cell_angle_beta   90.08666
_cell_angle_gamma 119.97819
loop_
_atom_site_label
_atom_site_type_symbol
_atom_site_fract_x
_atom_site_fract_y
_atom_site_fract_z
_atom_type_partial_charge
P0 P 0.31033 0.13921 0.39875 0.0
H1 H 0.27366 0.08922 0.34538 0.0
H2 H 0.22011 -0.00041 0.33181 0.0
H3 H 0.19683 0.9545 0.41817 0.0
H4 H 0.24966 0.04473 0.43186 0.0
H5 H 0.34815 0.24836 0.40099 0.0
H6 H 0.30852 0.29991 0.38708 0.0
H7 H 0.16177 0.16175 0.36641 0.0
H8 H 0.20098 0.11031 0.38108 0.0
H9 H 0.37275 0.10047 0.4253 0.0
H10 H 0.29925 0.18863 0.44961 0.0
O11 O 0.36335 0.1621 0.37794 0.0
H12 H 0.40607 0.10619 0.47254 0.0
H13 H 0.33465 0.19686 0.49663 0.0
C14 C 0.26689 0.07332 0.38953 0.0
C15 C 0.25631 0.06006 0.3614 0.0
C16 C 0.22475 0.00884 0.35363 0.0
C17 C 0.20376 0.97013 0.37388 0.0
C18 C 0.21235 0.98378 0.40215 0.0
C19 C 0.24314 0.03521 0.40996 0.0
C20 C 0.2778 0.17565 0.39202 0.0
C21 C 0.30719 0.22919 0.3939 0.0
C22 C 0.28445 0.25856 0.3859 0.0
C23 C 0.23216 0.2348 0.37546 0.0
C24 C 0.20237 0.18104 0.37408 0.0
C25 C 0.22488 0.15164 0.38255 0.0
C26 C 0.33395 0.14443 0.43391 0.0
C27 C 0.36424 0.1215 0.44081 0.0
C28 C 0.3836 0.12516 0.46782 0.0
C29 C 0.37353 0.1524 0.48845 0.0
C30 C 0.34276 0.17512 0.48141 0.0
C31 C 0.32286 0.17089 0.45439 0.0
P32 P 0.91937 0.10121 0.42146 0.0
H33 H 0.91789 0.0237 0.38482 0.0
H34 H 0.84615 0.95381 0.35874 0.0
H35 H 0.74271 0.01486 0.37729 0.0
H36 H 0.8157 0.08615 0.40263 0.0
H37 H 0.02032 0.12665 0.39636 0.0
H38 H 0.09075 0.20436 0.37543 0.0
H39 H 0.99624 0.27778 0.38478 0.0
H40 H 0.92486 0.1988 0.40613 0.0
H41 H 0.81789 0.03748 0.44935 0.0
H42 H 0.95328 0.18974 0.45904 0.0
O43 O 0.94992 0.07166 0.43507 0.0
H44 H 0.77411 0.0525 0.48864 0.0
H45 H 0.90999 0.20395 0.49932 0.0
C46 C 0.87115 0.05852 0.39667 0.0
C47 C 0.88021 0.02275 0.38275 0.0
C48 C 0.83926 0.98305 0.36766 0.0
C49 C 0.78865 0.97855 0.3665 0.0
C50 C 0.78118 0.01715 0.37832 0.0
C51 C 0.82272 0.05765 0.39285 0.0
C52 C 0.96824 0.15767 0.40361 0.0
C53 C 0.01443 0.15925 0.3938 0.0
C54 C 0.05455 0.20366 0.38145 0.0
C55 C 0.04875 0.247 0.37809 0.0
C56 C 1.00143 0.24468 0.38695 0.0
C57 C 0.96095 0.19988 0.39926 0.0
C58 C 0.88744 0.11369 0.45011 0.0
C59 C 0.8377 0.07462 0.45944 0.0
C60 C 0.81287 0.08292 0.48203 0.0
C61 C 0.83841 0.12965 0.49643 0.0
C62 C 0.88938 0.16792 0.4881 0.0
C63 C 0.91381 0.15995 0.46503 0.0
P64 P 0.85199 0.71106 0.39975 0.0
H65 H 0.74264 0.67703 0.38493 0.0
H66 H 0.69258 0.72011 0.37439 0.0
H67 H 0.83346 0.86686 0.38772 0.0
H68 H 0.88387 0.82322 0.39967 0.0
H69 H 0.91446 0.66227 0.4053 0.0
H70 H 0.00373 0.68335 0.39208 0.0
H71 H 0.03538 0.83155 0.36256 0.0
H72 H 0.94324 0.8086 0.37449 0.0
H73 H 0.75275 0.63686 0.42606 0.0
H74 H 0.91533 0.73462 0.45217 0.0
O75 O 0.82076 0.65832 0.38012 0.0
H76 H 0.7295 0.59959 0.47233 0.0
H77 H 0.89253 0.69584 0.49884 0.0
C78 C 0.81812 0.74675 0.39172 0.0
C79 C 0.76345 0.71856 0.3854 0.0
C80 C 0.73468 0.74316 0.37904 0.0
C81 C 0.75985 0.79679 0.37858 0.0
C82 C 0.81375 0.82536 0.38669 0.0
C83 C 0.84269 0.80049 0.39334 0.0
C84 C 0.92187 0.73406 0.39168 0.0
C85 C 0.9403 0.6995 0.39606 0.0
C86 C 0.99159 0.71153 0.38825 0.0
C87 C 0.02695 0.75901 0.376 0.0
C88 C 0.00899 0.79431 0.3716 0.0
C89 C 0.95645 0.78153 0.37892 0.0
C90 C 0.83595 0.68816 0.43536 0.0
C91 C 0.78356 0.65061 0.4418 0.0
C92 C 0.77035 0.62888 0.46836 0.0
C93 C 0.80927 0.64386 0.48934 0.0
C94 C 0.86148 0.6833 0.48326 0.0
C95 C 0.87467 0.70532 0.45649 0.0
P96 P 0.14838 0.29049 0.6306 0.0
H97 H 0.08779 0.33887 0.64731 0.0
H98 H 0.99623 0.30779 0.66103 0.0
H99 H 0.96522 0.15198 0.65879 0.0
H100 H 0.05861 0.18358 0.64449 0.0
H101 H 0.24898 0.33205 0.66149 0.0
H102 H 0.31049 0.30089 0.67069 0.0
H103 H 0.2026 0.1571 0.63131 0.0
H104 H 0.14026 0.18867 0.62154 0.0
H105 H 0.09953 0.33326 0.59412 0.0
H106 H 0.20576 0.27286 0.58425 0.0
O107 O 0.18086 0.35045 0.64287 0.0
H108 H 0.11881 0.36606 0.54646 0.0
H109 H 0.2238 0.30456 0.53627 0.0
C110 C 0.08095 0.26388 0.64475 0.0
C111 C 0.06219 0.29797 0.65025 0.0
C112 C 0.00951 0.28017 0.65831 0.0
C113 C 0.97346 0.22753 0.66148 0.0
C114 C 0.9923 0.19291 0.65716 0.0
C115 C 0.04563 0.21096 0.64869 0.0
C116 C 0.18872 0.26234 0.64134 0.0
C117 C 0.23734 0.29331 0.65522 0.0
C118 C 0.27287 0.27556 0.66058 0.0
C119 C 0.26032 0.22586 0.65284 0.0
C120 C 0.21212 0.19483 0.63861 0.0
C121 C 0.17645 0.21279 0.63305 0.0
C122 C 0.15031 0.29964 0.59302 0.0
C123 C 0.12531 0.32513 0.58149 0.0
C124 C 0.1365 0.34412 0.55419 0.0
C125 C 0.17255 0.33759 0.53757 0.0
C126 C 0.19522 0.30945 0.54844 0.0
C127 C 0.18469 0.29117 0.57599 0.0
P128 P 0.81357 0.90006 0.58987 0.0
H129 H 0.90062 0.98615 0.61946 0.0
H130 H 0.9039 0.05136 0.65123 0.0
H131 H 0.73452 0.9881 0.64095 0.0
H132 H 0.73092 0.92172 0.61039 0.0
H133 H 0.7563 0.78655 0.58499 0.0
H134 H 0.75933 0.72006 0.61277 0.0
H135 H 0.87353 0.83694 0.66788 0.0
H136 H 0.86856 0.90217 0.64106 0.0
H137 H 0.81199 0.92218 0.53064 0.0
H138 H 0.69742 0.83053 0.59337 0.0
O139 O 0.8711 0.92548 0.5726 0.0
H140 H 0.74084 0.89338 0.49612 0.0
H141 H 0.62581 0.80127 0.5588 0.0
C142 C 0.81561 0.94931 0.61219 0.0
C143 C 0.86406 0.986 0.62424 0.0
C144 C 0.86591 0.02296 0.6426 0.0
C145 C 0.81946 0.02459 0.6486 0.0
C146 C 0.77095 0.98762 0.63669 0.0
C147 C 0.76893 0.94985 0.61897 0.0
C148 C 0.81071 0.84952 0.61139 0.0
C149 C 0.7806 0.79773 0.60358 0.0
C150 C 0.78271 0.75964 0.61943 0.0
C151 C 0.8161 0.77292 0.64294 0.0
C152 C 0.84636 0.8249 0.65044 0.0
C153 C 0.84357 0.86261 0.63492 0.0
C154 C 0.76021 0.87796 0.56456 0.0
C155 C 0.77156 0.89552 0.53699 0.0
C156 C 0.7308 0.87886 0.51718 0.0
C157 C 0.67764 0.84469 0.52461 0.0
C158 C 0.66628 0.82777 0.5524 0.0
C159 C 0.70719 0.84426 0.57216 0.0
P160 P 0.15086 0.84479 0.63396 0.0
H161 H 0.17774 0.89376 0.68837 0.0
H162 H 0.2194 0.98388 0.70264 0.0
H163 H 0.2087 0.0263 0.6179 0.0
H164 H 0.16661 0.93638 0.60399 0.0
H165 H 0.09676 0.73662 0.64724 0.0
H166 H 0.00432 0.67425 0.65822 0.0
H167 H 0.96281 0.7932 0.65264 0.0
H168 H 0.05617 0.85622 0.6417 0.0
H169 H 0.24863 0.89237 0.60222 0.0
H170 H 0.08173 0.79256 0.58498 0.0
O171 O 0.18945 0.82729 0.65103 0.0
H172 H 0.27022 0.88287 0.55425 0.0
H173 H 0.10331 0.78288 0.53664 0.0
C174 C 0.17068 0.90887 0.64503 0.0
C175 C 0.18331 0.92247 0.67306 0.0
C176 C 0.20677 0.97387 0.68122 0.0
C177 C 0.21808 0.01216 0.66129 0.0
C178 C 0.20111 -0.00236 0.63366 0.0
C179 C 0.17728 0.94628 0.62562 0.0
C180 C 0.08326 0.80095 0.64384 0.0
C181 C 0.06815 0.74964 0.64891 0.0
C182 C 0.01553 0.71417 0.6554 0.0
C183 C 0.97717 0.72946 0.65708 0.0
C184 C 0.99226 0.78107 0.65239 0.0
C185 C 0.04525 0.81676 0.6458 0.0
C186 C 0.16374 0.84268 0.59731 0.0
C187 C 0.21654 0.86897 0.58798 0.0
C188 C 0.22882 0.86357 0.56055 0.0
C189 C 0.18848 0.83185 0.54174 0.0
C190 C 0.13515 0.8078 0.55063 0.0
C191 C 0.12286 0.81303 0.5783 0.0
P192 P 0.97699 0.47253 0.73208 0.0
H193 H 0.94032 0.42254 0.67872 0.0
H194 H 0.88676 0.33291 0.66514 0.0
H195 H 0.86349 0.28782 0.75151 0.0
H196 H 0.91632 0.37805 0.76519 0.0
H197 H 0.01481 0.58169 0.73432 0.0
H198 H 0.97519 0.63323 0.72042 0.0
H199 H 0.82843 0.49508 0.69975 0.0
H200 H 0.86764 0.44364 0.71441 0.0
H201 H 0.03941 0.4338 0.75863 0.0
H202 H 0.9659 0.52195 0.78294 0.0
O203 O 0.03001 0.49542 0.71127 0.0
H204 H 0.07273 0.43951 0.80588 0.0
H205 H 1.0013 0.53018 0.82997 0.0
C206 C 0.93354 0.40664 0.72287 0.0
C207 C 0.92296 0.39338 0.69473 0.0
C208 C 0.89141 0.34216 0.68697 0.0
C209 C 0.87042 0.30345 0.70721 0.0
C210 C 0.87901 0.3171 0.73549 0.0
C211 C 0.9098 0.36853 0.74329 0.0
C212 C 0.94446 0.50898 0.72536 0.0
C213 C 0.97385 0.56251 0.72723 0.0
C214 C 0.95111 0.59188 0.71924 0.0
C215 C 0.89882 0.56812 0.70879 0.0
C216 C 0.86903 0.51437 0.70741 0.0
C217 C 0.89154 0.48496 0.71588 0.0
C218 C 1.00061 0.47775 0.76724 0.0
C219 C 0.0309 0.45483 0.77415 0.0
C220 C 0.05026 0.45848 0.80115 0.0
C221 C 0.04019 0.48572 0.82179 0.0
C222 C 0.00941 0.50844 0.81474 0.0
C223 C 0.98952 0.50422 0.78773 0.0
P224 P 0.58603 0.43455 0.75479 0.0
H225 H 0.58456 0.35703 0.71815 0.0
H226 H 0.51282 0.28714 0.69207 0.0
H227 H 0.40937 0.34818 0.71062 0.0
H228 H 0.48236 0.41948 0.73596 0.0
H229 H 0.68698 0.45998 0.72969 0.0
H230 H 0.75741 0.53769 0.70876 0.0
H231 H 0.66291 0.61111 0.71811 0.0
H232 H 0.59153 0.53214 0.73945 0.0
H233 H 0.48455 0.37082 0.78268 0.0
H234 H 0.61995 0.52308 0.79237 0.0
O235 O 0.61658 0.405 0.7684 0.0
H236 H 0.44078 0.38585 0.82197 0.0
H237 H 0.57666 0.53729 0.83264 0.0
C238 C 0.53782 0.39185 0.73001 0.0
C239 C 0.54687 0.35608 0.71608 0.0
C240 C 0.50592 0.31638 0.70099 0.0
C241 C 0.45532 0.31188 0.69984 0.0
C242 C 0.44784 0.35048 0.71165 0.0
C243 C 0.48938 0.39098 0.72618 0.0
C244 C 0.6349 0.49101 0.73694 0.0
C245 C 0.68109 0.49259 0.72713 0.0
C246 C 0.72122 0.53699 0.71478 0.0
C247 C 0.71542 0.58034 0.71142 0.0
C248 C 0.6681 0.57802 0.72028 0.0
C249 C 0.62762 0.53321 0.73259 0.0
C250 C 0.5541 0.44703 0.78344 0.0
C251 C 0.50436 0.40797 0.79277 0.0
C252 C 0.47954 0.41627 0.81536 0.0
C253 C 0.50508 0.463 0.82976 0.0
C254 C 0.55605 0.50127 0.82143 0.0
C255 C 0.58047 0.4933 0.79836 0.0
P256 P 0.51865 0.04438 0.73308 0.0
H257 H 0.4093 0.01036 0.71826 0.0
H258 H 0.35925 0.05343 0.70772 0.0
H259 H 0.50012 0.20018 0.72105 0.0
H260 H 0.55053 0.15654 0.733 0.0
H261 H 0.58112 0.99559 0.73864 0.0
H262 H 0.6704 0.01667 0.72542 0.0
H263 H 0.70204 0.16487 0.6959 0.0
H264 H 0.60991 0.14193 0.70782 0.0
H265 H 0.41941 0.97018 0.75939 0.0
H266 H 0.58199 0.06795 0.78551 0.0
O267 O 0.48742 0.99164 0.71346 0.0
H268 H 0.39616 0.9329 0.80566 0.0
H269 H 0.55919 0.02916 0.83217 0.0
C270 C 0.48479 0.08007 0.72505 0.0
C271 C 0.43012 0.05188 0.71873 0.0
C272 C 0.40134 0.07648 0.71238 0.0
C273 C 0.42651 0.13011 0.71191 0.0
C274 C 0.48041 0.15869 0.72003 0.0
C275 C 0.50936 0.13381 0.72668 0.0
C276 C 0.58854 0.06738 0.72502 0.0
C277 C 0.60697 0.03282 0.72939 0.0
C278 C 0.65825 0.04485 0.72159 0.0
C279 C 0.69361 0.09233 0.70934 0.0
C280 C 0.67565 0.12763 0.70493 0.0
C281 C 0.62311 0.11485 0.71226 0.0
C282 C 0.50261 0.02148 0.7687 0.0
C283 C 0.45022 0.98392 0.77514 0.0
C284 C 0.43701 0.9622 0.8017 0.0
C285 C 0.47592 0.97718 0.82267 0.0
C286 C 0.52813 0.01662 0.81659 0.0
C287 C 0.54133 0.03864 0.78983 0.0
P288 P 0.81505 0.62382 0.96393 0.0
H289 H 0.75445 0.6722 0.98065 0.0
H290 H 0.6629 0.64113 0.99437 0.0
H291 H 0.63188 0.48531 0.99212 0.0
H292 H 0.72528 0.51691 0.97782 0.0
H293 H 0.91564 0.66538 0.99482 0.0
H294 H 0.97716 0.63421 1.00402 0.0
H295 H 0.86926 0.49043 0.96464 0.0
H296 H 0.80692 0.522 0.95487 0.0
H297 H 0.7662 0.6666 0.92745 0.0
H298 H 0.87243 0.60619 0.91758 0.0
O299 O 0.84752 0.68378 0.9762 0.0
H300 H 0.78548 0.69939 0.87979 0.0
H301 H 0.89047 0.63789 0.8696 0.0
C302 C 0.74762 0.59721 0.97808 0.0
C303 C 0.72885 0.6313 0.98359 0.0
C304 C 0.67617 0.6135 0.99164 0.0
C305 C 0.64012 0.56086 0.99481 0.0
C306 C 0.65897 0.52624 0.99049 0.0
C307 C 0.7123 0.54429 0.98202 0.0
C308 C 0.85538 0.59567 0.97467 0.0
C309 C 0.904 0.62664 0.98855 0.0
C310 C 0.93953 0.60889 0.99391 0.0
C311 C 0.92698 0.55919 0.98617 0.0
C312 C 0.87879 0.52815 0.97194 0.0
C313 C 0.84312 0.54612 0.96638 0.0
C314 C 0.81697 0.63297 0.92635 0.0
C315 C 0.79198 0.65846 0.91482 0.0
C316 C 0.80317 0.67745 0.88752 0.0
C317 C 0.83922 0.67092 0.8709 0.0
C318 C 0.86189 0.64278 0.88177 0.0
C319 C 0.85136 0.6245 0.90932 0.0
P320 P 0.48023 0.23338 0.92321 0.0
H321 H 0.56728 0.31947 0.95279 0.0
H322 H 0.57056 0.38469 0.98456 0.0
H323 H 0.40118 0.32144 0.97428 0.0
H324 H 0.39758 0.25505 0.94372 0.0
H325 H 0.42296 0.11988 0.91832 0.0
H326 H 0.42599 0.05338 0.94611 0.0
H327 H 0.54018 0.17027 1.00122 0.0
H328 H 0.53521 0.23549 0.9744 0.0
H329 H 0.47865 0.25551 0.86397 0.0
H330 H 0.36408 0.16385 0.9267 0.0
O331 O 0.53776 0.2588 0.90593 0.0
H332 H 0.4075 0.22671 0.82945 0.0
H333 H 0.29247 0.13459 0.89214 0.0
C334 C 0.48227 0.28264 0.94553 0.0
C335 C 0.53072 0.31932 0.95758 0.0
C336 C 0.53257 0.35628 0.97593 0.0
C337 C 0.48612 0.35792 0.98193 0.0
C338 C 0.43761 0.32095 0.97002 0.0
C339 C 0.43559 0.28318 0.95231 0.0
C340 C 0.47736 0.18285 0.94472 0.0
C341 C 0.44726 0.13105 0.93691 0.0
C342 C 0.44937 0.09297 0.95277 0.0
C343 C 0.48276 0.10625 0.97627 0.0
C344 C 0.51301 0.15823 0.98377 0.0
C345 C 0.51022 0.19593 0.96825 0.0
C346 C 0.42687 0.21128 0.89789 0.0
C347 C 0.43822 0.22884 0.87032 0.0
C348 C 0.39746 0.21219 0.85052 0.0
C349 C 0.34429 0.17802 0.85795 0.0
C350 C 0.33294 0.1611 0.88574 0.0
C351 C 0.37385 0.17759 0.9055 0.0
P352 P 0.81752 0.17812 0.9673 0.0
H353 H 0.8444 0.22709 0.0217 0.0
H354 H 0.88606 0.31721 0.03597 0.0
H355 H 0.87536 0.35962 0.95124 0.0
H356 H 0.83326 0.26971 0.93733 0.0
H357 H 0.76342 0.06995 0.98057 0.0
H358 H 0.67098 0.00757 0.99156 0.0
H359 H 0.62947 0.12653 0.98597 0.0
H360 H 0.72282 0.18955 0.97504 0.0
H361 H 0.91529 0.22571 0.93556 0.0
H362 H 0.74839 0.12588 0.91832 0.0
O363 O 0.8561 0.16062 0.98436 0.0
H364 H 0.93688 0.21621 0.88759 0.0
H365 H 0.76998 0.1162 0.86998 0.0
C366 C 0.83733 0.2422 0.97837 0.0
C367 C 0.84997 0.2558 1.00639 0.0
C368 C 0.87342 0.3072 0.01455 0.0
C369 C 0.88474 0.34548 0.99463 0.0
C370 C 0.86777 0.33097 0.96699 0.0
C371 C 0.84393 0.27961 0.95896 0.0
C372 C 0.74992 0.13428 0.97717 0.0
C373 C 0.7348 0.08297 0.98225 0.0
C374 C 0.68219 0.0475 0.98873 0.0
C375 C 0.64383 0.06278 0.99041 0.0
C376 C 0.65891 0.11439 0.98573 0.0
C377 C 0.71191 0.15008 0.97913 0.0
C378 C 0.83039 0.17601 0.93064 0.0
C379 C 0.88319 0.2023 0.92132 0.0
C380 C 0.89548 0.19691 0.89389 0.0
C381 C 0.85514 0.16519 0.87507 0.0
C382 C 0.80182 0.14113 0.88397 0.0
C383 C 0.78952 0.14636 0.91164 0.0
P384 P 0.64365 0.80587 0.06541 0.0
H385 H 0.60699 0.75587 1.01205 0.0
H386 H 0.55344 0.66624 0.99847 0.0
H387 H 0.53016 0.62116 0.08484 0.0
H388 H 0.58299 0.71139 0.09852 0.0
H389 H 0.68148 0.91502 0.06765 0.0
H390 H 0.64185 0.96656 0.05375 0.0
H391 H 0.4951 0.8284 0.03308 0.0
H392 H 0.53431 0.77697 0.04774 0.0
H393 H 0.70607 0.76713 0.09196 0.0
H394 H 0.63257 0.85529 0.11627 0.0
O395 O 0.69667 0.82875 0.0446 0.0
H396 H 0.7394 0.77285 0.13921 0.0
H397 H 0.66798 0.86352 0.1633 0.0
C398 C 0.60021 0.73997 0.0562 0.0
C399 C 0.58964 0.72672 0.02807 0.0
C400 C 0.55808 0.67549 0.0203 0.0
C401 C 0.53709 0.63678 0.04054 0.0
C402 C 0.54568 0.65043 0.06882 0.0
C403 C 0.57647 0.70186 0.07663 0.0
C404 C 0.61112 0.84231 0.05869 0.0
C405 C 0.64051 0.89584 0.06056 0.0
C406 C 0.61778 0.92521 0.05257 0.0
C407 C 0.56549 0.90145 0.04212 0.0
C408 C 0.53569 0.8477 0.04075 0.0
C409 C 0.5582 0.81829 0.04922 0.0
C410 C 0.66727 0.81108 0.10057 0.0
C411 C 0.69756 0.78816 0.10748 0.0
C412 C 0.71693 0.79182 0.13448 0.0
C413 C 0.70686 0.81906 0.15512 0.0
C414 C 0.67608 0.84178 0.14807 0.0
C415 C 0.65619 0.83755 0.12106 0.0
P416 P 0.25269 0.76787 0.08812 0.0
H417 H 0.25122 0.69036 0.05148 0.0
H418 H 0.17948 0.62047 0.0254 0.0
H419 H 0.07604 0.68151 0.04395 0.0
H420 H 0.14902 0.75281 0.06929 0.0
H421 H 0.35364 0.79331 0.06302 0.0
H422 H 0.42407 0.87102 0.04209 0.0
H423 H 0.32957 0.94444 0.05144 0.0
H424 H 0.25819 0.86546 0.07279 0.0
H425 H 0.15121 0.70415 0.11601 0.0
H426 H 0.28661 0.85641 0.1257 0.0
O427 O 0.28324 0.73832 0.10173 0.0
H428 H 0.10743 0.71918 0.1553 0.0
H429 H 0.24333 0.87062 0.16598 0.0
C430 C 0.20448 0.72517 0.06334 0.0
C431 C 0.21353 0.68941 0.04942 0.0
C432 C 0.17258 0.64971 0.03433 0.0
C433 C 0.12198 0.64521 0.03317 0.0
C434 C 0.11451 0.68381 0.04498 0.0
C435 C 0.15604 0.7243 0.05951 0.0
C436 C 0.30156 0.82433 0.07028 0.0
C437 C 0.34775 0.82591 0.06047 0.0
C438 C 0.38788 0.87032 0.04812 0.0
C439 C 0.38208 0.91366 0.04475 0.0
C440 C 0.33476 0.91134 0.05361 0.0
C441 C 0.29428 0.86654 0.06592 0.0
C442 C 0.22076 0.78036 0.11678 0.0
C443 C 0.17102 0.74129 0.1261 0.0
C444 C 0.1462 0.7496 0.14869 0.0
C445 C 0.17174 0.79633 0.16309 0.0
C446 C 0.22271 0.8346 0.15477 0.0
C447 C 0.24714 0.82662 0.13169 0.0
P448 P 0.18532 0.37772 0.06641 0.0
H449 H 0.07597 0.34369 0.0516 0.0
H450 H 0.02591 0.38676 0.04106 0.0
H451 H 0.16678 0.53351 0.05438 0.0
H452 H 0.2172 0.48987 0.06634 0.0
H453 H 0.24779 0.32893 0.07197 0.0
H454 H 0.33706 0.35 0.05875 0.0
H455 H 0.36871 0.4982 0.02923 0.0
H456 H 0.27657 0.47526 0.04115 0.0
H457 H 0.08608 0.30351 0.09273 0.0
H458 H 0.24866 0.40129 0.11884 0.0
O459 O 0.15409 0.32498 0.04679 0.0
H460 H 0.06283 0.26624 0.139 0.0
H461 H 0.22586 0.3625 0.16551 0.0
C462 C 0.15145 0.4134 0.05839 0.0
C463 C 0.09678 0.38521 0.05207 0.0
C464 C 0.06801 0.40981 0.04571 0.0
C465 C 0.09318 0.46344 0.04524 0.0
C466 C 0.14707 0.49202 0.05336 0.0
C467 C 0.17602 0.46715 0.06001 0.0
C468 C 0.25521 0.40072 0.05835 0.0
C469 C 0.27363 0.36615 0.06273 0.0
C470 C 0.32492 0.37819 0.05492 0.0
C471 C 0.36028 0.42567 0.04267 0.0
C472 C 0.34232 0.46096 0.03827 0.0
C473 C 0.28978 0.44819 0.04559 0.0
C474 C 0.16928 0.35482 0.10203 0.0
C475 C 0.11689 0.31726 0.10847 0.0
C476 C 0.10368 0.29554 0.13503 0.0
C477 C 0.1426 0.31052 0.15601 0.0
C478 C 0.19481 0.34996 0.14993 0.0
C479 C 0.208 0.37198 0.12316 0.0
P480 P 0.48172 0.95716 0.29726 0.0
H481 H 0.42112 0.00555 0.31398 0.0
H482 H 0.32957 0.97447 0.3277 0.0
H483 H 0.29855 0.81865 0.32545 0.0
H484 H 0.39195 0.85025 0.31115 0.0
H485 H 0.58231 -0.00127 0.32815 0.0
H486 H 0.64383 0.96756 0.33735 0.0
H487 H 0.53593 0.82378 0.29797 0.0
H488 H 0.47359 0.85534 0.28821 0.0
H489 H 0.43287 -6e-05 0.26078 0.0
H490 H 0.53909 0.93953 0.25091 0.0
O491 O 0.5142 0.01713 0.30954 0.0
H492 H 0.45215 0.03273 0.21313 0.0
H493 H 0.55713 0.97122 0.20294 0.0
C494 C 0.41429 0.93056 0.31142 0.0
C495 C 0.39552 0.96465 0.31692 0.0
C496 C 0.34284 0.94684 0.32497 0.0
C497 C 0.30679 0.89421 0.32815 0.0
C498 C 0.32564 0.85959 0.32382 0.0
C499 C 0.37897 0.87764 0.31536 0.0
C500 C 0.52205 0.92902 0.30801 0.0
C501 C 0.57067 0.95999 0.32189 0.0
C502 C 0.6062 0.94223 0.32724 0.0
C503 C 0.59365 0.89253 0.3195 0.0
C504 C 0.54546 0.8615 0.30528 0.0
C505 C 0.50979 0.87947 0.29971 0.0
C506 C 0.48364 0.96631 0.25969 0.0
C507 C 0.45864 0.9918 0.24816 0.0
C508 C 0.46984 0.01079 0.22086 0.0
C509 C 0.50588 0.00426 0.20423 0.0
C510 C 0.52855 0.97611 0.2151 0.0
C511 C 0.51802 0.95784 0.24266 0.0
P512 P 0.1469 0.56672 0.25654 0.0
H513 H 0.23395 0.65281 0.28613 0.0
H514 H 0.23723 0.71803 0.31789 0.0
H515 H 0.06785 0.65479 0.30761 0.0
H516 H 0.06425 0.58839 0.27706 0.0
H517 H 0.08963 0.45322 0.25165 0.0
H518 H 0.09267 0.38672 0.27944 0.0
H519 H 0.20683 0.50361 0.33456 0.0
H520 H 0.20186 0.56884 0.30774 0.0
H521 H 0.14532 0.58884 0.19731 0.0
H522 H 0.03075 0.49719 0.26004 0.0
O523 O 0.20443 0.59213 0.23927 0.0
H524 H 0.07417 0.56004 0.16279 0.0
H525 H 0.95914 0.46793 0.22547 0.0
C526 C 0.14894 0.61598 0.27886 0.0
C527 C 0.19739 0.65267 0.29091 0.0
C528 C 0.19924 0.68963 0.30927 0.0
C529 C 0.15279 0.69126 0.31526 0.0
C530 C 0.10428 0.6543 0.30336 0.0
C531 C 0.10226 0.61653 0.28564 0.0
C532 C 0.14403 0.51619 0.27806 0.0
C533 C 0.11393 0.46439 0.27025 0.0
C534 C 0.11604 0.42631 0.2861 0.0
C535 C 0.14942 0.43959 0.30961 0.0
C536 C 0.17967 0.49157 0.31712 0.0
C537 C 0.17688 0.52927 0.30159 0.0
C538 C 0.09354 0.54462 0.23123 0.0
C539 C 0.10489 0.56218 0.20366 0.0
C540 C 0.06413 0.54552 0.18385 0.0
C541 C 0.01096 0.51135 0.19128 0.0
C542 C 0.99961 0.49443 0.21907 0.0
C543 C 0.04052 0.51092 0.23883 0.0
P544 P 0.48419 0.51147 0.30063 0.0
H545 H 0.51107 0.56044 0.35503 0.0
H546 H 0.55273 0.65055 0.3693 0.0
H547 H 0.54204 0.69297 0.28457 0.0
H548 H 0.49994 0.60306 0.27066 0.0
H549 H 0.43009 0.4033 0.31391 0.0
H550 H 0.33766 0.34092 0.32489 0.0
H551 H 0.29614 0.45987 0.3193 0.0
H552 H 0.3895 0.5229 0.30837 0.0
H553 H 0.58196 0.55905 0.26889 0.0
H554 H 0.41506 0.45923 0.25165 0.0
O555 O 0.52278 0.49397 0.31769 0.0
H556 H 0.60355 0.54955 0.22092 0.0
H557 H 0.43665 0.44954 0.20331 0.0
C558 C 0.50401 0.57555 0.31169 0.0
C559 C 0.51664 0.58915 0.33972 0.0
C560 C 0.5401 0.64055 0.34788 0.0
C561 C 0.55141 0.67883 0.32796 0.0
C562 C 0.53444 0.66432 0.30032 0.0
C563 C 0.51061 0.61296 0.29229 0.0
C564 C 0.41659 0.46762 0.31051 0.0
C565 C 0.40148 0.41631 0.31558 0.0
C566 C 0.34886 0.38085 0.32206 0.0
C567 C 0.3105 0.39613 0.32374 0.0
C568 C 0.32559 0.44774 0.31906 0.0
C569 C 0.37858 0.48343 0.31247 0.0
C570 C 0.49707 0.50935 0.26397 0.0
C571 C 0.54986 0.53564 0.25465 0.0
C572 C 0.56215 0.53025 0.22721 0.0
C573 C 0.52181 0.49853 0.2084 0.0
C574 C 0.46848 0.47447 0.2173 0.0
C575 C 0.45619 0.4797 0.24497 0.0
Gd576 Gd 0.53216 0.0353 0.04611 0.0
Gd577 Gd 0.48309 0.95555 0.98109 0.0
C578 C 0.32011 0.81016 0.98612 0.0
C579 C 0.34347 0.74316 0.9829 0.0
C580 C 0.41184 0.83284 0.97895 0.0
C581 C 0.37424 0.84743 0.98281 0.0
C582 C 0.39682 0.7805 0.97806 0.0
C583 C 0.30513 0.75796 0.98699 0.0
C584 C 0.28274 0.82651 0.98803 0.0
C585 C 0.29966 0.87875 0.98569 0.0
N586 N 0.39048 0.8982 0.98237 0.0
C587 C 0.35395 0.91427 0.98262 0.0
H588 H 0.3665 0.95455 0.98137 0.0
C589 C 0.50051 0.85763 0.96713 0.0
N590 N 0.46294 0.87005 0.9748 0.0
C591 C 0.48763 0.80617 0.96588 0.0
C592 C 0.43571 0.7674 0.97182 0.0
H593 H 0.54092 0.88761 0.96309 0.0
H594 H 0.26394 0.72882 0.99023 0.0
H595 H 0.65473 0.05021 0.0512 0.0
H596 H 0.24078 0.79912 0.99071 0.0
H597 H 0.27101 0.89178 0.98663 0.0
H598 H 0.33141 0.70283 0.983 0.0
H599 H 0.45725 0.08942 0.05787 0.0
H600 H 0.76803 0.21079 0.05431 0.0
H601 H 0.74785 0.12052 0.05351 0.0
H602 H 0.65845 0.28837 0.05801 0.0
H603 H 0.51781 0.79647 0.96057 0.0
H604 H 0.42582 0.72758 0.97092 0.0
H605 H 0.73435 0.27326 0.05545 0.0
H606 H 0.46911 0.17617 0.06265 0.0
N607 N 0.62224 0.09977 0.04971 0.0
C608 C 0.72705 0.17998 0.05316 0.0
C609 C 0.71579 0.1291 0.05283 0.0
C610 C 0.68515 0.19043 0.05288 0.0
C611 C 0.63248 0.14888 0.05149 0.0
C612 C 0.66284 0.08926 0.05148 0.0
N613 N 0.54003 0.1162 0.05304 0.0
C614 C 0.59001 0.15738 0.05327 0.0
C615 C 0.50343 0.17136 0.06001 0.0
C616 C 0.55447 0.2142 0.05889 0.0
C617 C 0.4969 0.12226 0.05736 0.0
C618 C 0.59867 0.20762 0.05602 0.0
H619 H 0.55931 0.25204 0.06049 0.0
O620 O 0.4882 0.01605 0.08503 0.0
O621 O 0.46905 0.96601 0.02514 0.0
O622 O 0.46082 0.0183 0.98397 0.0
O623 O 0.52483 0.08289 1.01215 0.0
O624 O 0.4432 0.00294 0.05104 0.0
O625 O 0.56497 0.02089 0.08377 0.0
O626 O 0.52069 0.96502 0.94072 0.0
O627 O 0.54867 0.02236 1.00247 0.0
O628 O 0.5635 0.97998 0.04257 0.0
O629 O 0.50585 0.91367 1.0125 0.0
O630 O 0.57007 0.98458 0.97356 0.0
O631 O 0.45256 0.97547 0.9446 0.0
C632 C 0.4279 0.96283 0.03571 0.0
C633 C 0.65098 0.2494 0.05618 0.0
C634 C 0.69418 0.2408 0.05468 0.0
C635 C 0.52483 0.01332 0.09935 0.0
C636 C 0.53693 0.03859 0.1269 0.0
C637 C 0.56393 0.09231 0.12861 0.0
C638 C 0.51834 0.00914 0.1516 0.0
C639 C 0.52571 0.03355 0.17768 0.0
C640 C 0.57175 0.1165 0.15436 0.0
C641 C 0.55251 0.08746 0.17866 0.0
C642 C 0.48932 0.06709 0.99175 0.0
C643 C 0.58775 0.02264 0.99064 0.0
C644 C 0.48715 0.97448 0.92767 0.0
C645 C 0.46652 0.94756 0.90098 0.0
C646 C 0.43247 0.89427 0.90065 0.0
C647 C 0.48143 0.97503 0.87561 0.0
C648 C 0.46195 0.94924 0.84997 0.0
C649 C 0.41357 0.86847 0.87545 0.0
C650 C 0.42814 0.89553 0.85036 0.0
C651 C 0.54284 0.93287 0.03228 0.0
H652 H 0.57831 0.11551 0.10999 0.0
H653 H 0.4971 0.96758 0.15045 0.0
H654 H 0.59243 0.158 0.15547 0.0
H655 H 0.55888 0.10719 0.19838 0.0
H656 H 0.4207 0.87261 0.91988 0.0
H657 H 0.50745 0.01631 0.87593 0.0
H658 H 0.38755 0.82724 0.87533 0.0
H659 H 0.41324 0.87412 0.83118 0.0
Gd660 Gd 0.97154 0.49536 0.0464 0.0
Gd661 Gd 0.03021 0.50108 0.97879 0.0
C662 C 0.14289 0.43719 0.98751 0.0
C663 C 0.22892 0.51528 0.98965 0.0
C664 C 0.14886 0.51963 0.98083 0.0
C665 C 0.11832 0.46707 0.98374 0.0
C666 C 0.20478 0.54384 0.98182 0.0
C667 C 0.19803 0.46177 0.99203 0.0
C668 C 0.11126 0.38369 0.98673 0.0
C669 C 0.05643 0.36137 0.98261 0.0
N670 N 0.06469 0.44494 0.98163 0.0
C671 C 0.03364 0.39272 0.98027 0.0
H672 H 0.99132 0.37482 0.97721 0.0
C673 C 0.15268 0.59464 0.96327 0.0
N674 N 0.12401 0.54623 0.97428 0.0
C675 C 0.20838 0.62006 0.96316 0.0
C676 C 0.23459 0.59512 0.97347 0.0
H677 H 0.1324 0.61438 0.95594 0.0
H678 H 0.21713 0.43968 0.99688 0.0
H679 H 0.04447 0.58399 0.09436 0.0
H680 H 0.12873 0.3594 0.98924 0.0
H681 H 0.03155 0.32003 0.9817 0.0
H682 H 0.27165 0.53381 0.99245 0.0
H683 H 0.84782 0.42508 0.02024 0.0
H684 H 0.97976 0.68391 0.10394 0.0
H685 H 0.04737 0.65991 0.11638 0.0
H686 H 0.82114 0.60205 0.04812 0.0
H687 H 0.23095 0.65881 0.95522 0.0
H688 H 0.27766 0.61457 0.97333 0.0
H689 H 0.8958 0.66282 0.07762 0.0
H690 H 0.76889 0.43426 1.01246 0.0
N691 N 0.97693 0.56672 0.06938 0.0
C692 C 0.97814 0.65048 0.09445 0.0
C693 C 0.01641 0.63709 0.10153 0.0
C694 C 0.93683 0.61919 0.07618 0.0
C695 C 0.9365 0.57606 0.06451 0.0
C696 C 0.0146 0.59416 0.08915 0.0
N697 N 0.89308 0.49831 0.03937 0.0
C698 C 0.89314 0.54064 0.04918 0.0
C699 C 0.80374 0.46461 0.02265 0.0
C700 C 0.80483 0.50978 0.03062 0.0
C701 C 0.84866 0.45959 0.02705 0.0
C702 C 0.84961 0.54821 0.0444 0.0
H703 H 0.77073 0.51433 0.02634 0.0
O704 O 0.90851 0.44508 0.07504 0.0
O705 O 0.0225 0.47223 0.02246 0.0
O706 O 0.95013 0.42938 0.98045 0.0
O707 O 0.92774 0.41566 0.02742 0.0
O708 O 0.0533 0.51255 0.05954 0.0
O709 O 0.99055 0.47263 0.08567 0.0
O710 O 0.03742 0.53482 0.93791 0.0
O711 O 0.96366 0.50405 1.00068 0.0
O712 O 0.03117 0.57853 0.03698 0.0
O713 O 0.08566 0.57101 1.00401 0.0
O714 O 0.0082 0.56221 0.97207 0.0
O715 O 0.00491 0.45305 0.94182 0.0
C716 C 0.06141 0.48873 0.0395 0.0
C717 C 0.85231 0.5938 0.05347 0.0
C718 C 0.89538 0.62887 0.06975 0.0
C719 C 0.94183 0.44969 0.09458 0.0
C720 C 0.9338 0.46431 0.12291 0.0
C721 C 0.88605 0.46271 0.13011 0.0
C722 C 0.97431 0.47984 0.14316 0.0
C723 C 0.96758 0.49399 0.17017 0.0
C724 C 0.87903 0.47646 0.15687 0.0
C725 C 0.91936 0.49194 0.17678 0.0
C726 C 0.92142 0.39997 1.00126 0.0
C727 C 0.96811 0.5438 0.98876 0.0
C728 C 0.02043 0.49155 0.92482 0.0
C729 C 0.05215 0.49243 0.90083 0.0
C730 C 0.10243 0.49729 0.90449 0.0
C731 C 0.03187 0.48866 0.87387 0.0
C732 C 0.06184 0.49032 0.85044 0.0
C733 C 0.13258 0.49931 0.88145 0.0
C734 C 0.11267 0.49608 0.85459 0.0
C735 C 0.07641 0.59713 0.02309 0.0
H736 H 0.85411 0.45091 0.11511 0.0
H737 H 0.01101 0.48048 0.13798 0.0
H738 H 0.84216 0.47528 0.16218 0.0
H739 H 0.91309 0.50306 0.19724 0.0
H740 H 0.11839 0.49955 0.92506 0.0
H741 H 0.99244 0.48372 0.87127 0.0
H742 H 0.17159 0.5035 0.8844 0.0
H743 H 0.13735 0.49856 0.83711 0.0
Gd744 Gd 0.47582 0.49937 0.98275 0.0
Gd745 Gd 0.52205 0.4774 0.04989 0.0
C746 C 0.69176 0.5178 0.07108 0.0
C747 C 0.68234 0.43366 0.07797 0.0
C748 C 0.60658 0.44136 0.0626 0.0
C749 C 0.63805 0.4944 0.0625 0.0
C750 C 0.62824 0.41053 0.07084 0.0
C751 C 0.71378 0.48718 0.07852 0.0
C752 C 0.72095 0.57125 0.0735 0.0
C753 C 0.69715 0.60022 0.06686 0.0
N754 N 0.61494 0.52308 0.05672 0.0
C755 C 0.64379 0.57545 0.05875 0.0
H756 H 0.62611 0.59884 0.05459 0.0
C757 C 0.51959 0.36906 0.0623 0.0
N758 N 0.5535 0.42029 0.05803 0.0
C759 C 0.53943 0.33686 0.06967 0.0
C760 C 0.59409 0.35766 0.0738 0.0
H761 H 0.47714 0.35321 0.05988 0.0
H762 H 0.75479 0.50453 0.08538 0.0
H763 H 0.36383 0.38343 0.98782 0.0
H764 H 0.76127 0.59046 0.08142 0.0
H765 H 0.71945 0.64162 0.06874 0.0
H766 H 0.69962 0.41057 0.08437 0.0
H767 H 0.52965 0.61852 0.95911 0.0
H768 H 0.23412 0.39509 0.95461 0.0
H769 H 0.26969 0.34338 0.97558 0.0
H770 H 0.31356 0.57159 0.92811 0.0
H771 H 0.51235 0.29631 0.07286 0.0
H772 H 0.60934 0.33312 0.08059 0.0
H773 H 0.25143 0.47979 0.93592 0.0
H774 H 0.50212 0.67728 0.93918 0.0
N775 N 0.38229 0.4594 0.97676 0.0
C776 C 0.27552 0.41356 0.96093 0.0
C777 C 0.29547 0.38426 0.97267 0.0
C778 C 0.3095 0.46614 0.95686 0.0
C779 C 0.36307 0.4884 0.96559 0.0
C780 C 0.34932 0.40758 0.97981 0.0
N781 N 0.4506 0.55754 0.96556 0.0
C782 C 0.39836 0.5394 0.96015 0.0
C783 C 0.47239 0.63875 0.94521 0.0
C784 C 0.41859 0.62108 0.94022 0.0
C785 C 0.48781 0.60568 0.95703 0.0
C786 C 0.38101 0.57029 0.94675 0.0
H787 H 0.40679 0.64616 0.93019 0.0
O788 O 0.5186 0.5235 0.94341 0.0
O789 O 0.54435 0.50305 1.00628 0.0
O790 O 0.5345 0.5577 0.04695 0.0
O791 O 0.48673 0.56537 1.00955 0.0
O792 O 0.5619 0.56263 0.97948 0.0
O793 O 0.45721 0.44457 0.94926 0.0
O794 O 0.48217 0.44032 0.0885 0.0
O795 O 0.45445 0.47842 0.02759 0.0
O796 O 0.45599 0.41738 0.99038 0.0
O797 O 0.52543 0.42469 0.01722 0.0
O798 O 0.4361 0.41503 0.05193 0.0
O799 O 0.53848 0.52183 0.08811 0.0
C800 C 0.5823 0.54436 0.99667 0.0
C801 C 0.32753 0.54868 0.93868 0.0
C802 C 0.29216 0.49643 0.94316 0.0
C803 C 0.49063 0.47864 0.93191 0.0
C804 C 0.47052 0.47774 0.90371 0.0
C805 C 0.42249 0.47746 0.89947 0.0
C806 C 0.49873 0.47508 0.88069 0.0
C807 C 0.47834 0.47085 0.8537 0.0
C808 C 0.40265 0.47425 0.87262 0.0
C809 C 0.43016 0.47046 0.84979 0.0
C810 C 0.51617 0.58301 0.03238 0.0
C811 C 0.41615 0.43739 0.03735 0.0
C812 C 0.5075 0.48204 0.10339 0.0
C813 C 0.52962 0.47717 0.13028 0.0
C814 C 0.56665 0.46018 0.13078 0.0
C815 C 0.51403 0.48948 0.15567 0.0
C816 C 0.53656 0.48581 0.18109 0.0
C817 C 0.58878 0.45632 0.15575 0.0
C818 C 0.57409 0.46919 0.18071 0.0
C819 C 0.48878 0.40109 0.99779 0.0
H820 H 0.39986 0.47882 0.91682 0.0
H821 H 0.53547 0.47446 0.88382 0.0
H822 H 0.36543 0.47381 0.86955 0.0
H823 H 0.41375 0.46686 0.8291 0.0
H824 H 0.57837 0.44958 0.11195 0.0
H825 H 0.48523 0.50244 0.15561 0.0
H826 H 0.61736 0.44313 0.15574 0.0
H827 H 0.59158 0.46542 0.19987 0.0
Gd828 Gd 0.19883 0.36864 0.37945 0.0
Gd829 Gd 0.14976 0.2889 0.31443 0.0
C830 C 0.98679 0.1435 0.31946 0.0
C831 C 0.01016 0.0765 0.31624 0.0
C832 C 0.07852 0.16619 0.31229 0.0
C833 C 0.04091 0.18077 0.31614 0.0
C834 C 0.06351 0.11385 0.31139 0.0
C835 C 0.97182 0.0913 0.32032 0.0
C836 C 0.94942 0.15985 0.32137 0.0
C837 C 0.96633 0.21209 0.31903 0.0
N838 N 0.05715 0.23155 0.3157 0.0
C839 C 0.02062 0.24761 0.31596 0.0
H840 H 0.03317 0.28789 0.31471 0.0
C841 C 0.16719 0.19098 0.30047 0.0
N842 N 0.12962 0.20339 0.30813 0.0
C843 C 0.15432 0.13953 0.29921 0.0
C844 C 0.10239 0.10075 0.30515 0.0
H845 H 0.2076 0.22097 0.29642 0.0
H846 H 0.93062 0.06216 0.32356 0.0
H847 H 0.3214 0.38355 0.38453 0.0
H848 H 0.90745 0.13245 0.32405 0.0
H849 H 0.93768 0.22512 0.31996 0.0
H850 H 0.99809 0.03618 0.31634 0.0
H851 H 0.12393 0.42276 0.39122 0.0
H852 H 0.43471 0.54413 0.38765 0.0
H853 H 0.41452 0.45386 0.38684 0.0
H854 H 0.32513 0.62172 0.39136 0.0
H855 H 0.18449 0.12983 0.2939 0.0
H856 H 0.09251 0.06093 0.30425 0.0
H857 H 0.40103 0.6066 0.38879 0.0
H858 H 0.13578 0.50951 0.396 0.0
N859 N 0.28892 0.43311 0.38305 0.0
C860 C 0.39373 0.51333 0.38649 0.0
C861 C 0.38247 0.46245 0.38617 0.0
C862 C 0.35182 0.52377 0.38622 0.0
C863 C 0.29916 0.48223 0.38482 0.0
C864 C 0.32951 0.42261 0.38482 0.0
N865 N 0.20671 0.44955 0.38638 0.0
C866 C 0.25669 0.49072 0.38661 0.0
C867 C 0.1701 0.5047 0.39335 0.0
C868 C 0.22114 0.54754 0.39224 0.0
C869 C 0.16357 0.4556 0.39071 0.0
C870 C 0.26535 0.54096 0.38937 0.0
H871 H 0.22598 0.58538 0.39385 0.0
O872 O 0.15487 0.34939 0.41836 0.0
O873 O 0.13573 0.29935 0.35848 0.0
O874 O 0.12749 0.35165 0.31731 0.0
O875 O 0.19149 0.41623 0.34549 0.0
O876 O 0.10987 0.33628 0.38438 0.0
O877 O 0.23165 0.35424 0.4171 0.0
O878 O 0.18737 0.29837 0.27405 0.0
O879 O 0.21534 0.35571 0.33581 0.0
O880 O 0.23017 0.31332 0.3759 0.0
O881 O 0.17253 0.24702 0.34583 0.0
O882 O 0.23674 0.31793 0.3069 0.0
O883 O 0.11923 0.30881 0.27794 0.0
C884 C 0.09457 0.29617 0.36905 0.0
C885 C 0.31765 0.58274 0.38952 0.0
C886 C 0.36085 0.57415 0.38802 0.0
C887 C 0.19151 0.34666 0.43269 0.0
C888 C 0.2036 0.37193 0.46024 0.0
C889 C 0.2306 0.42564 0.46195 0.0
C890 C 0.18501 0.34247 0.48494 0.0
C891 C 0.19238 0.36688 0.51102 0.0
C892 C 0.23842 0.44984 0.4877 0.0
C893 C 0.21917 0.4208 0.512 0.0
C894 C 0.15598 0.40043 0.32509 0.0
C895 C 0.25443 0.35599 0.32397 0.0
C896 C 0.15382 0.30783 0.26101 0.0
C897 C 0.1332 0.2809 0.23432 0.0
C898 C 0.09914 0.22761 0.23399 0.0
C899 C 0.14811 0.30837 0.20895 0.0
C900 C 0.12863 0.28258 0.1833 0.0
C901 C 0.08025 0.20182 0.20879 0.0
C902 C 0.09482 0.22887 0.1837 0.0
C903 C 0.20952 0.26621 0.36561 0.0
H904 H 0.24498 0.44885 0.44333 0.0
H905 H 0.16377 0.30091 0.48379 0.0
H906 H 0.2591 0.49133 0.48881 0.0
H907 H 0.22555 0.44053 0.53172 0.0
H908 H 0.08738 0.20596 0.25322 0.0
H909 H 0.17412 0.34966 0.20926 0.0
H910 H 0.05424 0.16058 0.20867 0.0
H911 H 0.07993 0.20746 0.16451 0.0
Gd912 Gd 0.63821 0.8287 0.37973 0.0
Gd913 Gd 0.69689 0.83442 0.31213 0.0
C914 C 0.80957 0.77054 0.32084 0.0
C915 C 0.8956 0.84863 0.32298 0.0
C916 C 0.81554 0.85298 0.31416 0.0
C917 C 0.785 0.80042 0.31707 0.0
C918 C 0.87146 0.87719 0.31515 0.0
C919 C 0.8647 0.79512 0.32536 0.0
C920 C 0.77794 0.71703 0.32006 0.0
C921 C 0.7231 0.69472 0.31594 0.0
N922 N 0.73136 0.77828 0.31496 0.0
C923 C 0.70031 0.72607 0.3136 0.0
H924 H 0.65799 0.70817 0.31054 0.0
C925 C 0.81935 0.92799 0.2966 0.0
N926 N 0.79068 0.87958 0.30761 0.0
C927 C 0.87505 0.95341 0.2965 0.0
C928 C 0.90126 0.92847 0.3068 0.0
H929 H 0.79908 0.94773 0.28927 0.0
H930 H 0.88381 0.77303 0.33022 0.0
H931 H 0.71114 0.91733 0.42769 0.0
H932 H 0.79541 0.69275 0.32257 0.0
H933 H 0.69823 0.65338 0.31503 0.0
H934 H 0.93833 0.86716 0.32578 0.0
H935 H 0.51449 0.75842 0.35357 0.0
H936 H 0.64643 0.01725 0.43728 0.0
H937 H 0.71404 0.99325 0.44971 0.0
H938 H 0.4878 0.93539 0.38145 0.0
H939 H 0.89762 0.99216 0.28856 0.0
H940 H 0.94433 0.94792 0.30667 0.0
H941 H 0.56246 0.99616 0.41095 0.0
H942 H 0.43557 0.76759 0.34579 0.0
N943 N 0.6436 0.90006 0.40271 0.0
C944 C 0.6448 0.98382 0.42778 0.0
C945 C 0.68308 0.97044 0.43486 0.0
C946 C 0.6035 0.95253 0.40951 0.0
C947 C 0.60316 0.9094 0.39784 0.0
C948 C 0.68127 0.92751 0.42248 0.0
N949 N 0.55975 0.83165 0.3727 0.0
C950 C 0.55981 0.87398 0.38251 0.0
C951 C 0.47041 0.79795 0.35598 0.0
C952 C 0.4715 0.84312 0.36395 0.0
C953 C 0.51533 0.79294 0.36038 0.0
C954 C 0.51628 0.88155 0.37774 0.0
H955 H 0.4374 0.84767 0.35967 0.0
O956 O 0.57518 0.77842 0.40837 0.0
O957 O 0.68917 0.80557 0.35579 0.0
O958 O 0.6168 0.76273 0.31378 0.0
O959 O 0.59441 0.74901 0.36075 0.0
O960 O 0.71997 0.84589 0.39287 0.0
O961 O 0.65722 0.80597 0.419 0.0
O962 O 0.7041 0.86817 0.27124 0.0
O963 O 0.63033 0.8374 0.33401 0.0
O964 O 0.69785 0.91188 0.37032 0.0
O965 O 0.75234 0.90436 0.33734 0.0
O966 O 0.67487 0.89556 0.3054 0.0
O967 O 0.67158 0.7864 0.27515 0.0
C968 C 0.72808 0.82208 0.37283 0.0
C969 C 0.51897 0.92714 0.3868 0.0
C970 C 0.56204 0.96221 0.40308 0.0
C971 C 0.60851 0.78303 0.42791 0.0
C972 C 0.60047 0.79765 0.45624 0.0
C973 C 0.55272 0.79605 0.46344 0.0
C974 C 0.64098 0.81318 0.47649 0.0
C975 C 0.63426 0.82733 0.5035 0.0
C976 C 0.5457 0.8098 0.4902 0.0
C977 C 0.58603 0.82528 0.51011 0.0
C978 C 0.5881 0.73332 0.33459 0.0
C979 C 0.63479 0.87715 0.3221 0.0
C980 C 0.6871 0.8249 0.25815 0.0
C981 C 0.71882 0.82578 0.23416 0.0
C982 C 0.7691 0.83064 0.23782 0.0
C983 C 0.69855 0.822 0.2072 0.0
C984 C 0.72852 0.82366 0.18377 0.0
C985 C 0.79925 0.83265 0.21478 0.0
C986 C 0.77934 0.82943 0.18793 0.0
C987 C 0.74308 0.93047 0.35643 0.0
H988 H 0.52078 0.78426 0.44844 0.0
H989 H 0.67768 0.81383 0.47131 0.0
H990 H 0.50884 0.80862 0.49552 0.0
H991 H 0.57976 0.83639 0.53057 0.0
H992 H 0.78507 0.8329 0.2584 0.0
H993 H 0.65911 0.81707 0.2046 0.0
H994 H 0.83826 0.83685 0.21774 0.0
H995 H 0.80402 0.8319 0.17044 0.0
Gd996 Gd 0.14249 0.83272 0.31608 0.0
Gd997 Gd 0.18872 0.81075 0.38322 0.0
C998 C 0.35843 0.85116 0.40441 0.0
C999 C 0.34902 0.76702 0.4113 0.0
C1000 C 0.27326 0.77472 0.39593 0.0
C1001 C 0.30472 0.82776 0.39583 0.0
C1002 C 0.29492 0.74388 0.40417 0.0
C1003 C 0.38046 0.82054 0.41185 0.0
C1004 C 0.38762 0.90461 0.40683 0.0
C1005 C 0.36382 0.93357 0.40019 0.0
N1006 N 0.28161 0.85644 0.39005 0.0
C1007 C 0.31045 0.9088 0.39208 0.0
H1008 H 0.29277 0.93219 0.38792 0.0
C1009 C 0.18627 0.70241 0.39563 0.0
N1010 N 0.22018 0.75364 0.39136 0.0
C1011 C 0.20612 0.67021 0.403 0.0
C1012 C 0.26077 0.69102 0.40713 0.0
H1013 H 0.14382 0.68656 0.39321 0.0
H1014 H 0.42147 0.83789 0.41871 0.0
H1015 H 0.0305 0.71678 0.32115 0.0
H1016 H 0.42794 0.92382 0.41476 0.0
H1017 H 0.38611 0.97497 0.40207 0.0
H1018 H 0.36631 0.74393 0.4177 0.0
H1019 H 0.19632 0.95187 0.29245 0.0
H1020 H 0.90079 0.72844 0.28794 0.0
H1021 H 0.93636 0.67672 0.30891 0.0
H1022 H 0.98023 0.90494 0.26145 0.0
H1023 H 0.17904 0.62966 0.40619 0.0
H1024 H 0.27602 0.66648 0.41391 0.0
H1025 H 0.9181 0.81313 0.26925 0.0
H1026 H 0.16879 0.01063 0.27251 0.0
N1027 N 0.04896 0.79275 0.31009 0.0
C1028 C 0.94219 0.74691 0.29426 0.0
C1029 C 0.96214 0.71761 0.306 0.0
C1030 C 0.97617 0.79949 0.2902 0.0
C1031 C 0.02974 0.82175 0.29892 0.0
C1032 C 0.01599 0.74093 0.31314 0.0
N1033 N 0.11727 0.89089 0.29889 0.0
C1034 C 0.06503 0.87274 0.29349 0.0
C1035 C 0.13906 0.9721 0.27854 0.0
C1036 C 0.08526 0.95443 0.27355 0.0
C1037 C 0.15448 0.93903 0.29036 0.0
C1038 C 0.04767 0.90363 0.28008 0.0
H1039 H 0.07346 0.97951 0.26353 0.0
O1040 O 0.18527 0.85685 0.27674 0.0
O1041 O 0.21102 0.83639 0.33961 0.0
O1042 O 0.20117 0.89104 0.38029 0.0
O1043 O 0.1534 0.89872 0.34289 0.0
O1044 O 0.22857 0.89597 0.31281 0.0
O1045 O 0.12389 0.77792 0.2826 0.0
O1046 O 0.14884 0.77366 0.42183 0.0
O1047 O 0.12112 0.81176 0.36092 0.0
O1048 O 0.12266 0.75073 0.32371 0.0
O1049 O 0.1921 0.75803 0.35055 0.0
O1050 O 0.10277 0.74837 0.38526 0.0
O1051 O 0.20515 0.85517 0.42145 0.0
C1052 C 0.24897 0.87771 0.33 0.0
C1053 C 0.9942 0.88203 0.27201 0.0
C1054 C 0.95883 0.82977 0.27649 0.0
C1055 C 0.1573 0.81199 0.26524 0.0
C1056 C 0.13718 0.81108 0.23704 0.0
C1057 C 0.08915 0.8108 0.2328 0.0
C1058 C 0.1654 0.80842 0.21402 0.0
C1059 C 0.145 0.80418 0.18703 0.0
C1060 C 0.06931 0.80758 0.20595 0.0
C1061 C 0.09682 0.80379 0.18312 0.0
C1062 C 0.18284 0.91636 0.36572 0.0
C1063 C 0.08282 0.77073 0.37068 0.0
C1064 C 0.17417 0.81538 0.43672 0.0
C1065 C 0.19629 0.81051 0.46361 0.0
C1066 C 0.23331 0.7935 0.46412 0.0
C1067 C 0.1807 0.82282 0.489 0.0
C1068 C 0.20322 0.81914 0.51443 0.0
C1069 C 0.25544 0.78964 0.48908 0.0
C1070 C 0.24075 0.80251 0.51404 0.0
C1071 C 0.15545 0.73444 0.33112 0.0
H1072 H 0.06653 0.81216 0.25015 0.0
H1073 H 0.20214 0.80781 0.21715 0.0
H1074 H 0.03209 0.80714 0.20289 0.0
H1075 H 0.0804 0.80019 0.16243 0.0
H1076 H 0.24503 0.7829 0.44528 0.0
H1077 H 0.1519 0.83578 0.48894 0.0
H1078 H 0.28401 0.77645 0.48907 0.0
H1079 H 0.25824 0.79874 0.5332 0.0
Gd1080 Gd 0.8655 0.70197 0.71278 0.0
Gd1081 Gd 0.81643 0.62223 0.64776 0.0
C1082 C 0.65346 0.47683 0.65279 0.0
C1083 C 0.67681 0.40983 0.64957 0.0
C1084 C 0.74518 0.49952 0.64562 0.0
C1085 C 0.70758 0.51411 0.64947 0.0
C1086 C 0.73017 0.44718 0.64472 0.0
C1087 C 0.63848 0.42464 0.65365 0.0
C1088 C 0.61609 0.49318 0.6547 0.0
C1089 C 0.633 0.54543 0.65236 0.0
N1090 N 0.72382 0.56488 0.64903 0.0
C1091 C 0.68729 0.58094 0.64929 0.0
H1092 H 0.69984 0.62123 0.64803 0.0
C1093 C 0.83386 0.52431 0.6338 0.0
N1094 N 0.79629 0.53672 0.64147 0.0
C1095 C 0.82098 0.47285 0.63255 0.0
C1096 C 0.76905 0.43408 0.63848 0.0
H1097 H 0.87427 0.55429 0.62975 0.0
H1098 H 0.59728 0.3955 0.65689 0.0
H1099 H 0.98807 0.71688 0.71787 0.0
H1100 H 0.57412 0.46579 0.65737 0.0
H1101 H 0.60435 0.55846 0.65329 0.0
H1102 H 0.66475 0.36951 0.64967 0.0
H1103 H 0.7906 0.7561 0.72454 0.0
H1104 H 0.10138 0.87746 0.72098 0.0
H1105 H 0.08119 0.78719 0.72018 0.0
H1106 H 0.9918 0.95505 0.72467 0.0
H1107 H 0.85115 0.46315 0.62724 0.0
H1108 H 0.75917 0.39426 0.63758 0.0
H1109 H 0.0677 0.93993 0.72211 0.0
H1110 H 0.80245 0.84285 0.72931 0.0
N1111 N 0.95559 0.76644 0.71638 0.0
C1112 C 0.0604 0.84665 0.71982 0.0
C1113 C 0.04913 0.79577 0.7195 0.0
C1114 C 0.01849 0.8571 0.71955 0.0
C1115 C 0.96583 0.81556 0.71815 0.0
C1116 C 0.99618 0.75593 0.71815 0.0
N1117 N 0.87338 0.78288 0.71971 0.0
C1118 C 0.92336 0.82406 0.71993 0.0
C1119 C 0.83677 0.83804 0.72667 0.0
C1120 C 0.88781 0.88088 0.72555 0.0
C1121 C 0.83024 0.78894 0.72403 0.0
C1122 C 0.93202 0.87429 0.72269 0.0
H1123 H 0.89266 0.91871 0.72716 0.0
O1124 O 0.82154 0.68272 0.75169 0.0
O1125 O 0.8024 0.63268 0.69181 0.0
O1126 O 0.79416 0.68498 0.65064 0.0
O1127 O 0.85817 0.74956 0.67881 0.0
O1128 O 0.77654 0.66961 0.71771 0.0
O1129 O 0.89831 0.68757 0.75043 0.0
O1130 O 0.85404 0.63169 0.60738 0.0
O1131 O 0.88201 0.68904 0.66914 0.0
O1132 O 0.89684 0.64665 0.70923 0.0
O1133 O 0.83919 0.58035 0.67916 0.0
O1134 O 0.90341 0.65126 0.64023 0.0
O1135 O 0.78591 0.64214 0.61127 0.0
C1136 C 0.76124 0.62951 0.70238 0.0
C1137 C 0.98432 0.91608 0.72284 0.0
C1138 C 0.02752 0.90748 0.72134 0.0
C1139 C 0.85817 0.67999 0.76602 0.0
C1140 C 0.87026 0.70526 0.79357 0.0
C1141 C 0.89727 0.75898 0.79528 0.0
C1142 C 0.85168 0.6758 0.81827 0.0
C1143 C 0.85905 0.70021 0.84435 0.0
C1144 C 0.90509 0.78317 0.82103 0.0
C1145 C 0.88584 0.75413 0.84533 0.0
C1146 C 0.82266 0.73377 0.65841 0.0
C1147 C 0.9211 0.68932 0.65731 0.0
C1148 C 0.82049 0.64116 0.59434 0.0
C1149 C 0.79987 0.61424 0.56765 0.0
C1150 C 0.76581 0.56095 0.56732 0.0
C1151 C 0.81478 0.64171 0.54228 0.0
C1152 C 0.79529 0.61592 0.51663 0.0
C1153 C 0.74691 0.53515 0.54212 0.0
C1154 C 0.76148 0.56221 0.51703 0.0
C1155 C 0.87618 0.59954 0.69894 0.0
H1156 H 0.91165 0.78218 0.77666 0.0
H1157 H 0.83043 0.63425 0.81712 0.0
H1158 H 0.92577 0.82467 0.82214 0.0
H1159 H 0.89222 0.77386 0.86505 0.0
H1160 H 0.75404 0.53929 0.58655 0.0
H1161 H 0.84079 0.68299 0.54259 0.0
H1162 H 0.72089 0.49392 0.542 0.0
H1163 H 0.74659 0.54081 0.49784 0.0
Gd1164 Gd 0.30488 0.16203 0.71306 0.0
Gd1165 Gd 0.36355 0.16775 0.64546 0.0
C1166 C 0.47624 0.10387 0.65418 0.0
C1167 C 0.56227 0.18196 0.65632 0.0
C1168 C 0.4822 0.18631 0.6475 0.0
C1169 C 0.45166 0.13375 0.65041 0.0
C1170 C 0.53812 0.21052 0.64849 0.0
C1171 C 0.53137 0.12845 0.6587 0.0
C1172 C 0.44461 0.05037 0.6534 0.0
C1173 C 0.38977 0.02805 0.64927 0.0
N1174 N 0.39803 0.11161 0.6483 0.0
C1175 C 0.36698 0.0594 0.64694 0.0
H1176 H 0.32466 0.0415 0.64388 0.0
C1177 C 0.48602 0.26131 0.62994 0.0
N1178 N 0.45735 0.21291 0.64094 0.0
C1179 C 0.54171 0.28674 0.62983 0.0
C1180 C 0.56793 0.2618 0.64014 0.0
H1181 H 0.46574 0.28106 0.6226 0.0
H1182 H 0.55048 0.10636 0.66355 0.0
H1183 H 0.3778 0.25065 0.76103 0.0
H1184 H 0.46208 0.02608 0.65591 0.0
H1185 H 0.3649 0.98671 0.64836 0.0
H1186 H 0.605 0.20049 0.65911 0.0
H1187 H 0.18116 0.09175 0.6869 0.0
H1188 H 0.31309 0.35058 0.77061 0.0
H1189 H 0.38071 0.32658 0.78305 0.0
H1190 H 0.15447 0.26871 0.71479 0.0
H1191 H 0.56429 0.32548 0.62189 0.0
H1192 H 0.611 0.28125 0.64 0.0
H1193 H 0.22913 0.32948 0.74429 0.0
H1194 H 0.10223 0.10092 0.67912 0.0
N1195 N 0.31026 0.23338 0.73605 0.0
C1196 C 0.31147 0.31715 0.76112 0.0
C1197 C 0.34975 0.30376 0.7682 0.0
C1198 C 0.27016 0.28585 0.74285 0.0
C1199 C 0.26983 0.24272 0.73118 0.0
C1200 C 0.34793 0.26083 0.75582 0.0
N1201 N 0.22641 0.16497 0.70603 0.0
C1202 C 0.22648 0.20731 0.71585 0.0
C1203 C 0.13708 0.13127 0.68932 0.0
C1204 C 0.13816 0.17645 0.69728 0.0
C1205 C 0.182 0.12626 0.69372 0.0
C1206 C 0.18295 0.21487 0.71107 0.0
H1207 H 0.10406 0.18099 0.69301 0.0
O1208 O 0.24185 0.11175 0.7417 0.0
O1209 O 0.35584 0.1389 0.68913 0.0
O1210 O 0.28347 0.09606 0.64712 0.0
O1211 O 0.26108 0.08233 0.69409 0.0
O1212 O 0.38663 0.17922 0.72621 0.0
O1213 O 0.32389 0.1393 0.75234 0.0
O1214 O 0.37076 0.20149 0.60457 0.0
O1215 O 0.297 0.17073 0.66735 0.0
O1216 O 0.36451 0.2452 0.70365 0.0
O1217 O 0.419 0.23768 0.67068 0.0
O1218 O 0.34154 0.22888 0.63874 0.0
O1219 O 0.33825 0.11972 0.60848 0.0
C1220 C 0.39475 0.1554 0.70617 0.0
C1221 C 0.18564 0.26047 0.72014 0.0
C1222 C 0.22871 0.29553 0.73641 0.0
C1223 C 0.27517 0.11635 0.76124 0.0
C1224 C 0.26714 0.13097 0.78958 0.0
C1225 C 0.21938 0.12937 0.79678 0.0
C1226 C 0.30764 0.14651 0.80982 0.0
C1227 C 0.30091 0.16065 0.83683 0.0
C1228 C 0.21236 0.14312 0.82353 0.0
C1229 C 0.25269 0.1586 0.84345 0.0
C1230 C 0.25477 0.06665 0.66792 0.0
C1231 C 0.30145 0.21048 0.65543 0.0
C1232 C 0.35377 0.15823 0.59149 0.0
C1233 C 0.38549 0.15911 0.56749 0.0
C1234 C 0.43577 0.16397 0.57116 0.0
C1235 C 0.36522 0.15534 0.54054 0.0
C1236 C 0.39519 0.157 0.5171 0.0
C1237 C 0.46592 0.16599 0.54811 0.0
C1238 C 0.44601 0.16276 0.52126 0.0
C1239 C 0.40975 0.2638 0.68976 0.0
H1240 H 0.18744 0.11757 0.78177 0.0
H1241 H 0.34434 0.14715 0.80465 0.0
H1242 H 0.17549 0.14194 0.82885 0.0
H1243 H 0.24642 0.16971 0.86391 0.0
H1244 H 0.45174 0.16623 0.59173 0.0
H1245 H 0.32578 0.1504 0.53794 0.0
H1246 H 0.50493 0.17018 0.55107 0.0
H1247 H 0.47069 0.16524 0.50377 0.0
Gd1248 Gd 0.80915 0.16604 0.64942 0.0
Gd1249 Gd 0.85539 0.14407 0.71656 0.0
C1250 C 0.02509 0.18448 0.73775 0.0
C1251 C 0.01568 0.10033 0.74464 0.0
C1252 C 0.93992 0.10803 0.72927 0.0
C1253 C 0.97138 0.16108 0.72917 0.0
C1254 C 0.96159 0.0772 0.73751 0.0
C1255 C 0.04712 0.15385 0.74519 0.0
C1256 C 0.05429 0.23792 0.74017 0.0
C1257 C 0.03048 0.26689 0.73352 0.0
N1258 N 0.94828 0.18975 0.72339 0.0
C1259 C 0.97712 0.24212 0.72542 0.0
H1260 H 0.95944 0.26551 0.72125 0.0
C1261 C 0.85293 0.03573 0.72898 0.0
N1262 N 0.88684 0.08696 0.7247 0.0
C1263 C 0.87277 0.00353 0.73634 0.0
C1264 C 0.92743 0.02433 0.74047 0.0
H1265 H 0.81048 0.01988 0.72655 0.0
H1266 H 0.08813 0.17121 0.75205 0.0
H1267 H 0.69716 0.05009 0.65449 0.0
H1268 H 0.09461 0.25713 0.74809 0.0
H1269 H 0.05278 0.30829 0.73541 0.0
H1270 H 0.03297 0.07725 0.75104 0.0
H1271 H 0.86298 0.28518 0.62578 0.0
H1272 H 0.56745 0.06175 0.62128 0.0
H1273 H 0.60303 0.01004 0.64225 0.0
H1274 H 0.64689 0.23825 0.59478 0.0
H1275 H 0.84569 0.96298 0.73953 0.0
H1276 H 0.94268 -0.00021 0.74726 0.0
H1277 H 0.58476 0.14644 0.60259 0.0
H1278 H 0.83545 0.34394 0.60585 0.0
N1279 N 0.71562 0.12606 0.64343 0.0
C1280 C 0.60885 0.08022 0.6276 0.0
C1281 C 0.62881 0.05092 0.63934 0.0
C1282 C 0.64283 0.1328 0.62353 0.0
C1283 C 0.6964 0.15506 0.63226 0.0
C1284 C 0.68266 0.07424 0.64648 0.0
N1285 N 0.78393 0.2242 0.63223 0.0
C1286 C 0.7317 0.20606 0.62682 0.0
C1287 C 0.80572 0.30541 0.61188 0.0
C1288 C 0.75192 0.28774 0.60688 0.0
C1289 C 0.82114 0.27234 0.62369 0.0
C1290 C 0.71434 0.23695 0.61341 0.0
H1291 H 0.74012 0.31282 0.59686 0.0
O1292 O 0.85193 0.19016 0.61008 0.0
O1293 O 0.87768 0.16971 0.67295 0.0
O1294 O 0.86783 0.22436 0.71362 0.0
O1295 O 0.82006 0.23204 0.67622 0.0
O1296 O 0.89524 0.22929 0.64614 0.0
O1297 O 0.79055 0.11123 0.61594 0.0
O1298 O 0.8155 0.10699 0.75517 0.0
O1299 O 0.78778 0.14508 0.69426 0.0
O1300 O 0.78932 0.08405 0.65705 0.0
O1301 O 0.85876 0.09135 0.68389 0.0
O1302 O 0.76944 0.0817 0.7186 0.0
O1303 O 0.87182 0.18849 0.75478 0.0
C1304 C 0.91563 0.21103 0.66334 0.0
C1305 C 0.66087 0.21534 0.60535 0.0
C1306 C 0.6255 0.16309 0.60983 0.0
C1307 C 0.82397 0.14531 0.59858 0.0
C1308 C 0.80385 0.1444 0.57038 0.0
C1309 C 0.75581 0.14411 0.56614 0.0
C1310 C 0.83206 0.14173 0.54736 0.0
C1311 C 0.81167 0.1375 0.52037 0.0
C1312 C 0.73597 0.14089 0.53929 0.0
C1313 C 0.76348 0.1371 0.51646 0.0
C1314 C 0.8495 0.24968 0.69905 0.0
C1315 C 0.74948 0.10405 0.70402 0.0
C1316 C 0.84084 0.14871 0.77006 0.0
C1317 C 0.86296 0.14384 0.79695 0.0
C1318 C 0.89999 0.12685 0.79745 0.0
C1319 C 0.84737 0.15615 0.82234 0.0
C1320 C 0.86989 0.15248 0.84776 0.0
C1321 C 0.92212 0.12299 0.82242 0.0
C1322 C 0.90742 0.13586 0.84738 0.0
C1323 C 0.82211 0.06776 0.66446 0.0
H1324 H 0.73318 0.14546 0.58349 0.0
H1325 H 0.8688 0.14113 0.55049 0.0
H1326 H 0.69875 0.14044 0.53622 0.0
H1327 H 0.74707 0.1335 0.49577 0.0
H1328 H 0.91171 0.11625 0.77861 0.0
H1329 H 0.81856 0.1691 0.82228 0.0
H1330 H 0.9507 0.1098 0.82241 0.0
H1331 H 0.92492 0.13208 0.86654 0.0
loop_
_geom_bond_atom_site_label_1
_geom_bond_atom_site_label_2
_geom_bond_distance
_geom_bond_site_symmetry_2
_ccdc_geom_bond_type
P0 O11 1.490 . S
P0 C14 1.812 . S
P0 C20 1.803 . S
P0 C26 1.819 . S
H1 C15 0.941 . S
H2 C16 0.939 . S
H3 C18 0.940 1_565 S
H4 C19 0.940 . S
H5 C21 0.939 . S
H6 C22 0.942 . S
H7 C24 0.940 . S
H8 C25 0.939 . S
H9 C27 0.941 . S
H10 C31 0.939 . S
O11 P0 1.490 . S
H12 C28 0.939 . S
H13 C30 0.940 . S
C14 P0 1.812 . S
C14 C15 1.389 . S
C14 C19 1.391 . S
C15 H1 0.941 . S
C15 C14 1.389 . S
C15 C16 1.397 . S
C16 H2 0.939 . S
C16 C15 1.397 . S
C16 C17 1.378 1_545 S
C17 C16 1.378 1_565 S
C17 C18 1.378 1_565 S
C18 H3 0.940 1_545 S
C18 C17 1.378 1_545 S
C18 C19 1.396 . S
C19 H4 0.940 . S
C19 C14 1.391 . S
C19 C18 1.396 . S
C20 P0 1.803 . S
C20 C21 1.378 . S
C20 C25 1.400 . S
C21 H5 0.939 . S
C21 C20 1.378 . S
C21 C22 1.361 . S
C22 H6 0.942 . S
C22 C21 1.361 . S
C22 C23 1.369 . S
C23 C22 1.369 . S
C23 C24 1.404 . S
C24 H7 0.940 . S
C24 C23 1.404 . S
C24 C25 1.389 . S
C25 H8 0.939 . S
C25 C20 1.400 . S
C25 C24 1.389 . S
C26 P0 1.819 . S
C26 C27 1.391 . S
C26 C31 1.391 . S
C27 H9 0.941 . S
C27 C26 1.391 . S
C27 C28 1.396 . S
C28 H12 0.939 . S
C28 C27 1.396 . S
C28 C29 1.397 . S
C29 C28 1.397 . S
C29 C30 1.385 . S
C30 H13 0.940 . S
C30 C29 1.385 . S
C30 C31 1.388 . S
C31 H10 0.939 . S
C31 C26 1.391 . S
C31 C30 1.388 . S
P32 O43 1.490 . S
P32 C46 1.812 . S
P32 C52 1.803 . S
P32 C58 1.819 . S
H33 C47 0.938 1_565 S
H34 C48 0.939 . S
H35 C50 0.940 . S
H36 C51 0.940 . S
H37 C53 0.939 . S
H38 C54 0.942 . S
H39 C56 0.940 . S
H40 C57 0.939 . S
H41 C59 0.941 . S
H42 C63 0.939 . S
O43 P32 1.490 . S
H44 C60 0.939 . S
H45 C62 0.940 . S
C46 P32 1.812 . S
C46 C47 1.389 . S
C46 C51 1.391 . S
C47 H33 0.938 1_545 S
C47 C46 1.389 . S
C47 C48 1.397 1_545 S
C48 H34 0.939 . S
C48 C47 1.397 1_565 S
C48 C49 1.378 . S
C49 C48 1.378 . S
C49 C50 1.378 1_565 S
C50 H35 0.940 . S
C50 C49 1.378 1_545 S
C50 C51 1.396 . S
C51 H36 0.940 . S
C51 C46 1.391 . S
C51 C50 1.396 . S
C52 P32 1.803 . S
C52 C53 1.378 1_655 S
C52 C57 1.400 . S
C53 H37 0.939 . S
C53 C52 1.378 1_455 S
C53 C54 1.361 . S
C54 H38 0.942 . S
C54 C53 1.361 . S
C54 C55 1.369 . S
C55 C54 1.369 . S
C55 C56 1.404 1_455 S
C56 H39 0.940 . S
C56 C55 1.404 1_655 S
C56 C57 1.389 . S
C57 H40 0.939 . S
C57 C52 1.400 . S
C57 C56 1.389 . S
C58 P32 1.819 . S
C58 C59 1.391 . S
C58 C63 1.391 . S
C59 H41 0.941 . S
C59 C58 1.391 . S
C59 C60 1.396 . S
C60 H44 0.939 . S
C60 C59 1.396 . S
C60 C61 1.397 . S
C61 C60 1.397 . S
C61 C62 1.385 . S
C62 H45 0.940 . S
C62 C61 1.385 . S
C62 C63 1.388 . S
C63 H42 0.939 . S
C63 C58 1.391 . S
C63 C62 1.388 . S
P64 O75 1.490 . S
P64 C78 1.812 . S
P64 C84 1.803 . S
P64 C90 1.819 . S
H65 C79 0.941 . S
H66 C80 0.939 . S
H67 C82 0.940 . S
H68 C83 0.940 . S
H69 C85 0.939 . S
H70 C86 0.942 1_455 S
H71 C88 0.941 . S
H72 C89 0.939 . S
H73 C91 0.941 . S
H74 C95 0.939 . S
O75 P64 1.490 . S
H76 C92 0.939 . S
H77 C94 0.940 . S
C78 P64 1.812 . S
C78 C79 1.389 . S
C78 C83 1.391 . S
C79 H65 0.941 . S
C79 C78 1.389 . S
C79 C80 1.397 . S
C80 H66 0.939 . S
C80 C79 1.397 . S
C80 C81 1.378 . S
C81 C80 1.378 . S
C81 C82 1.378 . S
C82 H67 0.940 . S
C82 C81 1.378 . S
C82 C83 1.396 . S
C83 H68 0.940 . S
C83 C78 1.391 . S
C83 C82 1.396 . S
C84 P64 1.803 . S
C84 C85 1.378 . S
C84 C89 1.400 . S
C85 H69 0.939 . S
C85 C84 1.378 . S
C85 C86 1.361 . S
C86 H70 0.942 1_655 S
C86 C85 1.361 . S
C86 C87 1.369 1_655 S
C87 C86 1.369 1_455 S
C87 C88 1.422 . S
C88 H71 0.941 . S
C88 C87 1.422 . S
C88 C89 1.371 1_455 S
C89 H72 0.939 . S
C89 C84 1.400 . S
C89 C88 1.371 1_655 S
C90 P64 1.819 . S
C90 C91 1.391 . S
C90 C95 1.391 . S
C91 H73 0.941 . S
C91 C90 1.391 . S
C91 C92 1.396 . S
C92 H76 0.939 . S
C92 C91 1.396 . S
C92 C93 1.397 . S
C93 C92 1.397 . S
C93 C94 1.385 . S
C94 H77 0.940 . S
C94 C93 1.385 . S
C94 C95 1.388 . S
C95 H74 0.939 . S
C95 C90 1.391 . S
C95 C94 1.388 . S
P96 O107 1.490 . S
P96 C110 1.812 . S
P96 C116 1.803 . S
P96 C122 1.819 . S
H97 C111 0.941 . S
H98 C112 0.939 . S
H99 C114 0.940 . S
H100 C115 0.940 . S
H101 C117 0.939 . S
H102 C118 0.942 . S
H103 C120 0.940 . S
H104 C121 0.939 . S
H105 C123 0.941 . S
H106 C127 0.939 . S
O107 P96 1.490 . S
H108 C124 0.939 . S
H109 C126 0.940 . S
C110 P96 1.812 . S
C110 C111 1.389 . S
C110 C115 1.391 . S
C111 H97 0.941 . S
C111 C110 1.389 . S
C111 C112 1.397 . S
C112 H98 0.939 . S
C112 C111 1.397 . S
C112 C113 1.378 1_455 S
C113 C112 1.378 1_655 S
C113 C114 1.378 . S
C114 H99 0.940 . S
C114 C113 1.378 . S
C114 C115 1.396 1_655 S
C115 H100 0.940 . S
C115 C110 1.391 . S
C115 C114 1.396 1_455 S
C116 P96 1.803 . S
C116 C117 1.378 . S
C116 C121 1.400 . S
C117 H101 0.939 . S
C117 C116 1.378 . S
C117 C118 1.361 . S
C118 H102 0.942 . S
C118 C117 1.361 . S
C118 C119 1.369 . S
C119 C118 1.369 . S
C119 C120 1.404 . S
C120 H103 0.940 . S
C120 C119 1.404 . S
C120 C121 1.389 . S
C121 H104 0.939 . S
C121 C116 1.400 . S
C121 C120 1.389 . S
C122 P96 1.819 . S
C122 C123 1.391 . S
C122 C127 1.391 . S
C123 H105 0.941 . S
C123 C122 1.391 . S
C123 C124 1.396 . S
C124 H108 0.939 . S
C124 C123 1.396 . S
C124 C125 1.397 . S
C125 C124 1.397 . S
C125 C126 1.385 . S
C126 H109 0.940 . S
C126 C125 1.385 . S
C126 C127 1.388 . S
C127 H106 0.939 . S
C127 C122 1.391 . S
C127 C126 1.388 . S
P128 O139 1.490 . S
P128 C142 1.812 . S
P128 C148 1.803 . S
P128 C154 1.819 . S
H129 C143 0.940 1_545 S
H130 C144 0.939 . S
H131 C146 0.940 . S
H132 C147 0.940 . S
H133 C149 0.939 . S
H134 C150 0.942 . S
H135 C152 0.940 . S
H136 C153 0.939 . S
H137 C155 0.941 . S
H138 C159 0.939 . S
O139 P128 1.490 . S
H140 C156 0.939 . S
H141 C158 0.940 . S
C142 P128 1.812 . S
C142 C143 1.389 . S
C142 C147 1.391 . S
C143 H129 0.940 1_565 S
C143 C142 1.389 . S
C143 C144 1.397 1_565 S
C144 H130 0.939 . S
C144 C143 1.397 1_545 S
C144 C145 1.378 . S
C145 C144 1.378 . S
C145 C146 1.378 1_545 S
C146 H131 0.940 . S
C146 C145 1.378 1_565 S
C146 C147 1.396 . S
C147 H132 0.940 . S
C147 C142 1.391 . S
C147 C146 1.396 . S
C148 P128 1.803 . S
C148 C149 1.378 . S
C148 C153 1.400 . S
C149 H133 0.939 . S
C149 C148 1.378 . S
C149 C150 1.361 . S
C150 H134 0.942 . S
C150 C149 1.361 . S
C150 C151 1.369 . S
C151 C150 1.369 . S
C151 C152 1.404 . S
C152 H135 0.940 . S
C152 C151 1.404 . S
C152 C153 1.389 . S
C153 H136 0.939 . S
C153 C148 1.400 . S
C153 C152 1.389 . S
C154 P128 1.819 . S
C154 C155 1.391 . S
C154 C159 1.391 . S
C155 H137 0.941 . S
C155 C154 1.391 . S
C155 C156 1.396 . S
C156 H140 0.939 . S
C156 C155 1.396 . S
C156 C157 1.397 . S
C157 C156 1.397 . S
C157 C158 1.385 . S
C158 H141 0.940 . S
C158 C157 1.385 . S
C158 C159 1.388 . S
C159 H138 0.939 . S
C159 C154 1.391 . S
C159 C158 1.388 . S
P160 O171 1.490 . S
P160 C174 1.812 . S
P160 C180 1.803 . S
P160 C186 1.819 . S
H161 C175 0.941 . S
H162 C176 0.939 . S
H163 C178 0.931 1_545 S
H164 C179 0.940 . S
H165 C181 0.939 . S
H166 C182 0.942 1_655 S
H167 C184 0.940 1_655 S
H168 C185 0.939 . S
H169 C187 0.941 . S
H170 C191 0.939 . S
O171 P160 1.490 . S
H172 C188 0.939 . S
H173 C190 0.940 . S
C174 P160 1.812 . S
C174 C175 1.389 . S
C174 C179 1.391 . S
C175 H161 0.941 . S
C175 C174 1.389 . S
C175 C176 1.397 . S
C176 H162 0.939 . S
C176 C175 1.397 . S
C176 C177 1.378 1_565 S
C177 C176 1.378 1_545 S
C177 C178 1.378 1_545 S
C178 H163 0.931 1_565 S
C178 C177 1.378 1_565 S
C178 C179 1.405 . S
C179 H164 0.940 . S
C179 C174 1.391 . S
C179 C178 1.405 . S
C180 P160 1.803 . S
C180 C181 1.378 . S
C180 C185 1.400 . S
C181 H165 0.939 . S
C181 C180 1.378 . S
C181 C182 1.361 . S
C182 H166 0.942 1_455 S
C182 C181 1.361 . S
C182 C183 1.369 1_455 S
C183 C182 1.369 1_655 S
C183 C184 1.404 1_655 S
C184 H167 0.940 1_455 S
C184 C183 1.404 1_455 S
C184 C185 1.389 . S
C185 H168 0.939 . S
C185 C180 1.400 . S
C185 C184 1.389 . S
C186 P160 1.819 . S
C186 C187 1.391 . S
C186 C191 1.391 . S
C187 H169 0.941 . S
C187 C186 1.391 . S
C187 C188 1.396 . S
C188 H172 0.939 . S
C188 C187 1.396 . S
C188 C189 1.397 . S
C189 C188 1.397 . S
C189 C190 1.385 . S
C190 H173 0.940 . S
C190 C189 1.385 . S
C190 C191 1.388 . S
C191 H170 0.939 . S
C191 C186 1.391 . S
C191 C190 1.388 . S
P192 O203 1.490 1_655 S
P192 C206 1.812 . S
P192 C212 1.803 . S
P192 C218 1.819 . S
H193 C207 0.941 . S
H194 C208 0.939 . S
H195 C210 0.940 . S
H196 C211 0.940 . S
H197 C213 0.939 1_455 S
H198 C214 0.942 . S
H199 C216 0.940 . S
H200 C217 0.939 . S
H201 C219 0.941 . S
H202 C223 0.939 . S
O203 P192 1.490 1_455 S
H204 C220 0.925 1_455 S
H205 C222 0.940 . S
C206 P192 1.812 . S
C206 C207 1.389 . S
C206 C211 1.391 . S
C207 H193 0.941 . S
C207 C206 1.389 . S
C207 C208 1.397 . S
C208 H194 0.939 . S
C208 C207 1.397 . S
C208 C209 1.378 . S
C209 C208 1.378 . S
C209 C210 1.378 . S
C210 H195 0.940 . S
C210 C209 1.378 . S
C210 C211 1.396 . S
C211 H196 0.940 . S
C211 C206 1.391 . S
C211 C210 1.396 . S
C212 P192 1.803 . S
C212 C213 1.378 . S
C212 C217 1.400 . S
C213 H197 0.939 1_655 S
C213 C212 1.378 . S
C213 C214 1.361 . S
C214 H198 0.942 . S
C214 C213 1.361 . S
C214 C215 1.369 . S
C215 C214 1.369 . S
C215 C216 1.404 . S
C216 H199 0.940 . S
C216 C215 1.404 . S
C216 C217 1.389 . S
C217 H200 0.939 . S
C217 C212 1.400 . S
C217 C216 1.389 . S
C218 P192 1.819 . S
C218 C219 1.391 1_655 S
C218 C223 1.391 . S
C219 H201 0.941 . S
C219 C218 1.391 1_455 S
C219 C220 1.395 1_455 S
C220 H204 0.925 1_655 S
C220 C219 1.395 1_655 S
C220 C221 1.413 . S
C221 C220 1.413 . S
C221 C222 1.385 . S
C222 H205 0.940 . S
C222 C221 1.385 . S
C222 C223 1.388 . S
C223 H202 0.939 . S
C223 C218 1.391 . S
C223 C222 1.388 . S
P224 O235 1.490 . S
P224 C238 1.812 . S
P224 C244 1.803 . S
P224 C250 1.819 . S
H225 C239 0.941 . S
H226 C240 0.939 . S
H227 C242 0.940 . S
H228 C243 0.940 . S
H229 C245 0.939 . S
H230 C246 0.942 . S
H231 C248 0.940 . S
H232 C249 0.939 . S
H233 C251 0.941 . S
H234 C255 0.939 . S
O235 P224 1.490 . S
H236 C252 0.939 . S
H237 C254 0.940 . S
C238 P224 1.812 . S
C238 C239 1.389 . S
C238 C243 1.391 . S
C239 H225 0.941 . S
C239 C238 1.389 . S
C239 C240 1.397 . S
C240 H226 0.939 . S
C240 C239 1.397 . S
C240 C241 1.378 . S
C241 C240 1.378 . S
C241 C242 1.378 . S
C242 H227 0.940 . S
C242 C241 1.378 . S
C242 C243 1.396 . S
C243 H228 0.940 . S
C243 C238 1.391 . S
C243 C242 1.396 . S
C244 P224 1.803 . S
C244 C245 1.378 . S
C244 C249 1.400 . S
C245 H229 0.939 . S
C245 C244 1.378 . S
C245 C246 1.361 . S
C246 H230 0.942 . S
C246 C245 1.361 . S
C246 C247 1.369 . S
C247 C246 1.369 . S
C247 C248 1.404 . S
C248 H231 0.940 . S
C248 C247 1.404 . S
C248 C249 1.389 . S
C249 H232 0.939 . S
C249 C244 1.400 . S
C249 C248 1.389 . S
C250 P224 1.819 . S
C250 C251 1.391 . S
C250 C255 1.391 . S
C251 H233 0.941 . S
C251 C250 1.391 . S
C251 C252 1.396 . S
C252 H236 0.939 . S
C252 C251 1.396 . S
C252 C253 1.397 . S
C253 C252 1.397 . S
C253 C254 1.385 . S
C254 H237 0.940 . S
C254 C253 1.385 . S
C254 C255 1.388 . S
C255 H234 0.939 . S
C255 C250 1.391 . S
C255 C254 1.388 . S
P256 O267 1.490 1_545 S
P256 C270 1.812 . S
P256 C276 1.803 . S
P256 C282 1.819 . S
H257 C271 0.941 . S
H258 C272 0.939 . S
H259 C274 0.940 . S
H260 C275 0.940 . S
H261 C277 0.939 . S
H262 C278 0.942 . S
H263 C280 0.940 . S
H264 C281 0.939 . S
H265 C283 0.941 1_565 S
H266 C287 0.939 . S
O267 P256 1.490 1_565 S
H268 C284 0.939 . S
H269 C286 0.940 . S
C270 P256 1.812 . S
C270 C271 1.389 . S
C270 C275 1.391 . S
C271 H257 0.941 . S
C271 C270 1.389 . S
C271 C272 1.397 . S
C272 H258 0.939 . S
C272 C271 1.397 . S
C272 C273 1.378 . S
C273 C272 1.378 . S
C273 C274 1.378 . S
C274 H259 0.940 . S
C274 C273 1.378 . S
C274 C275 1.396 . S
C275 H260 0.940 . S
C275 C270 1.391 . S
C275 C274 1.396 . S
C276 P256 1.803 . S
C276 C277 1.378 . S
C276 C281 1.400 . S
C277 H261 0.939 . S
C277 C276 1.378 . S
C277 C278 1.361 . S
C278 H262 0.942 . S
C278 C277 1.361 . S
C278 C279 1.369 . S
C279 C278 1.369 . S
C279 C280 1.404 . S
C280 H263 0.940 . S
C280 C279 1.404 . S
C280 C281 1.389 . S
C281 H264 0.939 . S
C281 C276 1.400 . S
C281 C280 1.389 . S
C282 P256 1.819 . S
C282 C283 1.391 . S
C282 C287 1.391 . S
C283 H265 0.941 1_545 S
C283 C282 1.391 . S
C283 C284 1.396 . S
C284 H268 0.939 . S
C284 C283 1.396 . S
C284 C285 1.397 . S
C285 C284 1.397 . S
C285 C286 1.385 . S
C286 H269 0.940 . S
C286 C285 1.385 . S
C286 C287 1.388 . S
C287 H266 0.939 . S
C287 C282 1.391 . S
C287 C286 1.388 . S
P288 O299 1.490 . S
P288 C302 1.812 . S
P288 C308 1.803 . S
P288 C314 1.819 . S
H289 C303 0.941 . S
H290 C304 0.939 1_554 S
H291 C306 0.940 . S
H292 C307 0.940 . S
H293 C309 0.939 . S
H294 C310 0.942 . S
H295 C312 0.940 . S
H296 C313 0.939 . S
H297 C315 0.941 . S
H298 C319 0.939 . S
O299 P288 1.490 . S
H300 C316 0.939 . S
H301 C318 0.940 . S
C302 P288 1.812 . S
C302 C303 1.389 . S
C302 C307 1.391 . S
C303 H289 0.941 . S
C303 C302 1.389 . S
C303 C304 1.397 . S
C304 H290 0.939 1_556 S
C304 C303 1.397 . S
C304 C305 1.378 . S
C305 C304 1.378 . S
C305 C306 1.378 . S
C306 H291 0.940 . S
C306 C305 1.378 . S
C306 C307 1.396 . S
C307 H292 0.940 . S
C307 C302 1.391 . S
C307 C306 1.396 . S
C308 P288 1.803 . S
C308 C309 1.378 . S
C308 C313 1.400 . S
C309 H293 0.939 . S
C309 C308 1.378 . S
C309 C310 1.361 . S
C310 H294 0.942 . S
C310 C309 1.361 . S
C310 C311 1.369 . S
C311 C310 1.369 . S
C311 C312 1.404 . S
C312 H295 0.940 . S
C312 C311 1.404 . S
C312 C313 1.389 . S
C313 H296 0.939 . S
C313 C308 1.400 . S
C313 C312 1.389 . S
C314 P288 1.819 . S
C314 C315 1.391 . S
C314 C319 1.391 . S
C315 H297 0.941 . S
C315 C314 1.391 . S
C315 C316 1.396 . S
C316 H300 0.939 . S
C316 C315 1.396 . S
C316 C317 1.397 . S
C317 C316 1.397 . S
C317 C318 1.385 . S
C318 H301 0.940 . S
C318 C317 1.385 . S
C318 C319 1.388 . S
C319 H298 0.939 . S
C319 C314 1.391 . S
C319 C318 1.388 . S
P320 O331 1.490 . S
P320 C334 1.812 . S
P320 C340 1.803 . S
P320 C346 1.819 . S
H321 C335 0.941 . S
H322 C336 0.939 . S
H323 C338 0.940 . S
H324 C339 0.940 . S
H325 C341 0.939 . S
H326 C342 0.942 . S
H327 C344 0.940 . S
H328 C345 0.939 . S
H329 C347 0.941 . S
H330 C351 0.939 . S
O331 P320 1.490 . S
H332 C348 0.939 . S
H333 C350 0.940 . S
C334 P320 1.812 . S
C334 C335 1.389 . S
C334 C339 1.391 . S
C335 H321 0.941 . S
C335 C334 1.389 . S
C335 C336 1.397 . S
C336 H322 0.939 . S
C336 C335 1.397 . S
C336 C337 1.378 . S
C337 C336 1.378 . S
C337 C338 1.378 . S
C338 H323 0.940 . S
C338 C337 1.378 . S
C338 C339 1.396 . S
C339 H324 0.940 . S
C339 C334 1.391 . S
C339 C338 1.396 . S
C340 P320 1.803 . S
C340 C341 1.378 . S
C340 C345 1.400 . S
C341 H325 0.939 . S
C341 C340 1.378 . S
C341 C342 1.361 . S
C342 H326 0.942 . S
C342 C341 1.361 . S
C342 C343 1.369 . S
C343 C342 1.369 . S
C343 C344 1.404 . S
C344 H327 0.940 . S
C344 C343 1.404 . S
C344 C345 1.389 . S
C345 H328 0.939 . S
C345 C340 1.400 . S
C345 C344 1.389 . S
C346 P320 1.819 . S
C346 C347 1.391 . S
C346 C351 1.391 . S
C347 H329 0.941 . S
C347 C346 1.391 . S
C347 C348 1.396 . S
C348 H332 0.939 . S
C348 C347 1.396 . S
C348 C349 1.397 . S
C349 C348 1.397 . S
C349 C350 1.385 . S
C350 H333 0.940 . S
C350 C349 1.385 . S
C350 C351 1.388 . S
C351 H330 0.939 . S
C351 C346 1.391 . S
C351 C350 1.388 . S
P352 O363 1.490 . S
P352 C366 1.812 . S
P352 C372 1.803 . S
P352 C378 1.819 . S
H353 C367 0.941 . S
H354 C368 0.939 1_554 S
H355 C370 0.940 . S
H356 C371 0.940 . S
H357 C373 0.939 . S
H358 C374 0.942 . S
H359 C376 0.940 . S
H360 C377 0.939 . S
H361 C379 0.941 . S
H362 C383 0.939 . S
O363 P352 1.490 . S
H364 C380 0.939 . S
H365 C382 0.940 . S
C366 P352 1.812 . S
C366 C367 1.389 . S
C366 C371 1.391 . S
C367 H353 0.941 . S
C367 C366 1.389 . S
C367 C368 1.397 . S
C368 H354 0.939 1_556 S
C368 C367 1.397 . S
C368 C369 1.378 . S
C369 C368 1.378 . S
C369 C370 1.378 . S
C370 H355 0.940 . S
C370 C369 1.378 . S
C370 C371 1.396 . S
C371 H356 0.940 . S
C371 C366 1.391 . S
C371 C370 1.396 . S
C372 P352 1.803 . S
C372 C373 1.378 . S
C372 C377 1.400 . S
C373 H357 0.939 . S
C373 C372 1.378 . S
C373 C374 1.361 . S
C374 H358 0.942 . S
C374 C373 1.361 . S
C374 C375 1.369 . S
C375 C374 1.369 . S
C375 C376 1.404 . S
C376 H359 0.940 . S
C376 C375 1.404 . S
C376 C377 1.389 . S
C377 H360 0.939 . S
C377 C372 1.400 . S
C377 C376 1.389 . S
C378 P352 1.819 . S
C378 C379 1.391 . S
C378 C383 1.391 . S
C379 H361 0.941 . S
C379 C378 1.391 . S
C379 C380 1.396 . S
C380 H364 0.939 . S
C380 C379 1.396 . S
C380 C381 1.397 . S
C381 C380 1.397 . S
C381 C382 1.385 . S
C382 H365 0.940 . S
C382 C381 1.385 . S
C382 C383 1.388 . S
C383 H362 0.939 . S
C383 C378 1.391 . S
C383 C382 1.388 . S
P384 O395 1.490 . S
P384 C398 1.812 . S
P384 C404 1.803 . S
P384 C410 1.819 . S
H385 C399 0.941 . S
H386 C400 0.939 1_556 S
H387 C402 0.940 . S
H388 C403 0.940 . S
H389 C405 0.939 . S
H390 C406 0.942 . S
H391 C408 0.940 . S
H392 C409 0.939 . S
H393 C411 0.941 . S
H394 C415 0.939 . S
O395 P384 1.490 . S
H396 C412 0.939 . S
H397 C414 0.940 . S
C398 P384 1.812 . S
C398 C399 1.389 . S
C398 C403 1.391 . S
C399 H385 0.941 . S
C399 C398 1.389 . S
C399 C400 1.397 . S
C400 H386 0.939 1_554 S
C400 C399 1.397 . S
C400 C401 1.378 . S
C401 C400 1.378 . S
C401 C402 1.378 . S
C402 H387 0.940 . S
C402 C401 1.378 . S
C402 C403 1.396 . S
C403 H388 0.940 . S
C403 C398 1.391 . S
C403 C402 1.396 . S
C404 P384 1.803 . S
C404 C405 1.378 . S
C404 C409 1.400 . S
C405 H389 0.939 . S
C405 C404 1.378 . S
C405 C406 1.361 . S
C406 H390 0.942 . S
C406 C405 1.361 . S
C406 C407 1.369 . S
C407 C406 1.369 . S
C407 C408 1.404 . S
C408 H391 0.940 . S
C408 C407 1.404 . S
C408 C409 1.389 . S
C409 H392 0.939 . S
C409 C404 1.400 . S
C409 C408 1.389 . S
C410 P384 1.819 . S
C410 C411 1.391 . S
C410 C415 1.391 . S
C411 H393 0.941 . S
C411 C410 1.391 . S
C411 C412 1.396 . S
C412 H396 0.939 . S
C412 C411 1.396 . S
C412 C413 1.397 . S
C413 C412 1.397 . S
C413 C414 1.385 . S
C414 H397 0.940 . S
C414 C413 1.385 . S
C414 C415 1.388 . S
C415 H394 0.939 . S
C415 C410 1.391 . S
C415 C414 1.388 . S
P416 O427 1.490 . S
P416 C430 1.812 . S
P416 C436 1.803 . S
P416 C442 1.819 . S
H417 C431 0.941 . S
H418 C432 0.939 . S
H419 C434 0.940 . S
H420 C435 0.940 . S
H421 C437 0.939 . S
H422 C438 0.942 . S
H423 C440 0.940 . S
H424 C441 0.939 . S
H425 C443 0.941 . S
H426 C447 0.939 . S
O427 P416 1.490 . S
H428 C444 0.939 . S
H429 C446 0.940 . S
C430 P416 1.812 . S
C430 C431 1.389 . S
C430 C435 1.391 . S
C431 H417 0.941 . S
C431 C430 1.389 . S
C431 C432 1.397 . S
C432 H418 0.939 . S
C432 C431 1.397 . S
C432 C433 1.378 . S
C433 C432 1.378 . S
C433 C434 1.378 . S
C434 H419 0.940 . S
C434 C433 1.378 . S
C434 C435 1.396 . S
C435 H420 0.940 . S
C435 C430 1.391 . S
C435 C434 1.396 . S
C436 P416 1.803 . S
C436 C437 1.378 . S
C436 C441 1.400 . S
C437 H421 0.939 . S
C437 C436 1.378 . S
C437 C438 1.361 . S
C438 H422 0.942 . S
C438 C437 1.361 . S
C438 C439 1.369 . S
C439 C438 1.369 . S
C439 C440 1.404 . S
C440 H423 0.940 . S
C440 C439 1.404 . S
C440 C441 1.389 . S
C441 H424 0.939 . S
C441 C436 1.400 . S
C441 C440 1.389 . S
C442 P416 1.819 . S
C442 C443 1.391 . S
C442 C447 1.391 . S
C443 H425 0.941 . S
C443 C442 1.391 . S
C443 C444 1.396 . S
C444 H428 0.939 . S
C444 C443 1.396 . S
C444 C445 1.397 . S
C445 C444 1.397 . S
C445 C446 1.385 . S
C446 H429 0.940 . S
C446 C445 1.385 . S
C446 C447 1.388 . S
C447 H426 0.939 . S
C447 C442 1.391 . S
C447 C446 1.388 . S
P448 O459 1.490 . S
P448 C462 1.812 . S
P448 C468 1.803 . S
P448 C474 1.819 . S
H449 C463 0.941 . S
H450 C464 0.915 1_556 S
H451 C466 0.940 . S
H452 C467 0.940 . S
H453 C469 0.939 . S
H454 C470 0.942 . S
H455 C472 0.940 . S
H456 C473 0.939 . S
H457 C475 0.941 . S
H458 C479 0.939 . S
O459 P448 1.490 . S
H460 C476 0.939 . S
H461 C478 0.940 . S
C462 P448 1.812 . S
C462 C463 1.389 . S
C462 C467 1.391 . S
C463 H449 0.941 . S
C463 C462 1.389 . S
C463 C464 1.397 . S
C464 H450 0.915 1_554 S
C464 C463 1.397 . S
C464 C465 1.378 . S
C465 C464 1.378 . S
C465 C466 1.378 . S
C466 H451 0.940 . S
C466 C465 1.378 . S
C466 C467 1.396 . S
C467 H452 0.940 . S
C467 C462 1.391 . S
C467 C466 1.396 . S
C468 P448 1.803 . S
C468 C469 1.378 . S
C468 C473 1.400 . S
C469 H453 0.939 . S
C469 C468 1.378 . S
C469 C470 1.361 . S
C470 H454 0.942 . S
C470 C469 1.361 . S
C470 C471 1.369 . S
C471 C470 1.369 . S
C471 C472 1.404 . S
C472 H455 0.940 . S
C472 C471 1.404 . S
C472 C473 1.389 . S
C473 H456 0.939 . S
C473 C468 1.400 . S
C473 C472 1.389 . S
C474 P448 1.819 . S
C474 C475 1.391 . S
C474 C479 1.391 . S
C475 H457 0.941 . S
C475 C474 1.391 . S
C475 C476 1.396 . S
C476 H460 0.939 . S
C476 C475 1.396 . S
C476 C477 1.397 . S
C477 C476 1.397 . S
C477 C478 1.385 . S
C478 H461 0.940 . S
C478 C477 1.385 . S
C478 C479 1.388 . S
C479 H458 0.939 . S
C479 C474 1.391 . S
C479 C478 1.388 . S
P480 O491 1.490 1_565 S
P480 C494 1.812 . S
P480 C500 1.803 . S
P480 C506 1.819 . S
H481 C495 0.941 . S
H482 C496 0.939 . S
H483 C498 0.940 . S
H484 C499 0.940 . S
H485 C501 0.939 . S
H486 C502 0.942 . S
H487 C504 0.940 . S
H488 C505 0.939 . S
H489 C507 0.941 1_545 S
H490 C511 0.939 . S
O491 P480 1.490 1_545 S
H492 C508 0.941 1_545 S
H493 C510 0.940 . S
C494 P480 1.812 . S
C494 C495 1.389 . S
C494 C499 1.391 . S
C495 H481 0.941 . S
C495 C494 1.389 . S
C495 C496 1.397 . S
C496 H482 0.939 . S
C496 C495 1.397 . S
C496 C497 1.378 . S
C497 C496 1.378 . S
C497 C498 1.378 . S
C498 H483 0.940 . S
C498 C497 1.378 . S
C498 C499 1.396 . S
C499 H484 0.940 . S
C499 C494 1.391 . S
C499 C498 1.396 . S
C500 P480 1.803 . S
C500 C501 1.378 . S
C500 C505 1.400 . S
C501 H485 0.939 . S
C501 C500 1.378 . S
C501 C502 1.361 . S
C502 H486 0.942 . S
C502 C501 1.361 . S
C502 C503 1.369 . S
C503 C502 1.369 . S
C503 C504 1.404 . S
C504 H487 0.940 . S
C504 C503 1.404 . S
C504 C505 1.389 . S
C505 H488 0.939 . S
C505 C500 1.400 . S
C505 C504 1.389 . S
C506 P480 1.819 . S
C506 C507 1.391 . S
C506 C511 1.391 . S
C507 H489 0.941 1_565 S
C507 C506 1.391 . S
C507 C508 1.396 . S
C508 H492 0.941 1_565 S
C508 C507 1.396 . S
C508 C509 1.397 . S
C509 C508 1.397 . S
C509 C510 1.385 . S
C510 H493 0.940 . S
C510 C509 1.385 . S
C510 C511 1.388 . S
C511 H490 0.939 . S
C511 C506 1.391 . S
C511 C510 1.388 . S
P512 O523 1.490 . S
P512 C526 1.812 . S
P512 C532 1.803 . S
P512 C538 1.819 . S
H513 C527 0.941 . S
H514 C528 0.939 . S
H515 C530 0.940 . S
H516 C531 0.940 . S
H517 C533 0.939 . S
H518 C534 0.942 . S
H519 C536 0.940 . S
H520 C537 0.939 . S
H521 C539 0.941 . S
H522 C543 0.939 . S
O523 P512 1.490 . S
H524 C540 0.939 . S
H525 C542 0.940 . S
C526 P512 1.812 . S
C526 C527 1.389 . S
C526 C531 1.391 . S
C527 H513 0.941 . S
C527 C526 1.389 . S
C527 C528 1.397 . S
C528 H514 0.939 . S
C528 C527 1.397 . S
C528 C529 1.378 . S
C529 C528 1.378 . S
C529 C530 1.378 . S
C530 H515 0.940 . S
C530 C529 1.378 . S
C530 C531 1.396 . S
C531 H516 0.940 . S
C531 C526 1.391 . S
C531 C530 1.396 . S
C532 P512 1.803 . S
C532 C533 1.378 . S
C532 C537 1.400 . S
C533 H517 0.939 . S
C533 C532 1.378 . S
C533 C534 1.361 . S
C534 H518 0.942 . S
C534 C533 1.361 . S
C534 C535 1.369 . S
C535 C534 1.369 . S
C535 C536 1.404 . S
C536 H519 0.940 . S
C536 C535 1.404 . S
C536 C537 1.389 . S
C537 H520 0.939 . S
C537 C532 1.400 . S
C537 C536 1.389 . S
C538 P512 1.819 . S
C538 C539 1.391 . S
C538 C543 1.391 . S
C539 H521 0.941 . S
C539 C538 1.391 . S
C539 C540 1.396 . S
C540 H524 0.939 . S
C540 C539 1.396 . S
C540 C541 1.397 . S
C541 C540 1.397 . S
C541 C542 1.385 . S
C542 H525 0.940 . S
C542 C541 1.385 . S
C542 C543 1.388 . S
C543 H522 0.939 . S
C543 C538 1.391 . S
C543 C542 1.388 . S
P544 O555 1.490 . S
P544 C558 1.812 . S
P544 C564 1.803 . S
P544 C570 1.819 . S
H545 C559 0.941 . S
H546 C560 0.939 . S
H547 C562 0.940 . S
H548 C563 0.940 . S
H549 C565 0.939 . S
H550 C566 0.942 . S
H551 C568 0.940 . S
H552 C569 0.939 . S
H553 C571 0.941 . S
H554 C575 0.939 . S
O555 P544 1.490 . S
H556 C572 0.939 . S
H557 C574 0.940 . S
C558 P544 1.812 . S
C558 C559 1.389 . S
C558 C563 1.391 . S
C559 H545 0.941 . S
C559 C558 1.389 . S
C559 C560 1.397 . S
C560 H546 0.939 . S
C560 C559 1.397 . S
C560 C561 1.378 . S
C561 C560 1.378 . S
C561 C562 1.378 . S
C562 H547 0.940 . S
C562 C561 1.378 . S
C562 C563 1.396 . S
C563 H548 0.940 . S
C563 C558 1.391 . S
C563 C562 1.396 . S
C564 P544 1.803 . S
C564 C565 1.378 . S
C564 C569 1.400 . S
C565 H549 0.939 . S
C565 C564 1.378 . S
C565 C566 1.361 . S
C566 H550 0.942 . S
C566 C565 1.361 . S
C566 C567 1.369 . S
C567 C566 1.369 . S
C567 C568 1.404 . S
C568 H551 0.940 . S
C568 C567 1.404 . S
C568 C569 1.389 . S
C569 H552 0.939 . S
C569 C564 1.400 . S
C569 C568 1.389 . S
C570 P544 1.819 . S
C570 C571 1.391 . S
C570 C575 1.391 . S
C571 H553 0.941 . S
C571 C570 1.391 . S
C571 C572 1.396 . S
C572 H556 0.939 . S
C572 C571 1.396 . S
C572 C573 1.397 . S
C573 C572 1.397 . S
C573 C574 1.385 . S
C574 H557 0.940 . S
C574 C573 1.385 . S
C574 C575 1.388 . S
C575 H554 0.939 . S
C575 C570 1.391 . S
C575 C574 1.388 . S
Gd576 N607 2.661 . S
Gd576 N613 2.601 . S
Gd576 O620 2.545 . S
Gd576 O621 2.606 1_545 S
Gd576 O623 2.429 . S
Gd576 O624 2.545 1_545 S
Gd576 O625 2.412 . S
Gd576 O627 2.362 1_554 S
Gd576 O628 2.324 1_545 S
Gd576 C635 2.828 . S
Gd577 N586 2.661 . S
Gd577 N590 2.601 . S
Gd577 O621 2.362 1_556 S
Gd577 O622 2.324 1_565 S
Gd577 O626 2.545 . S
Gd577 O627 2.606 1_565 S
Gd577 O629 2.429 . S
Gd577 O630 2.545 1_565 S
Gd577 O631 2.412 . S
Gd577 C644 2.828 . S
C578 C581 1.417 . S
C578 C583 1.431 . S
C578 C584 1.412 . S
C579 C582 1.437 . S
C579 C583 1.317 . S
C579 H598 0.929 . S
C580 C581 1.426 . S
C580 C582 1.413 . S
C580 N590 1.359 . S
C581 C578 1.417 . S
C581 C580 1.426 . S
C581 N586 1.350 . S
C582 C579 1.437 . S
C582 C580 1.413 . S
C582 C592 1.391 . S
C583 C578 1.431 . S
C583 C579 1.317 . S
C583 H594 0.930 . S
C584 C578 1.412 . S
C584 C585 1.355 . S
C584 H596 0.930 . S
C585 C584 1.355 . S
C585 C587 1.402 . S
C585 H597 0.930 . S
N586 Gd577 2.661 . S
N586 C581 1.350 . S
N586 C587 1.307 . S
C587 C585 1.402 . S
C587 N586 1.307 . S
C587 H588 0.930 . S
H588 C587 0.930 . S
C589 N590 1.334 . S
C589 C591 1.394 . S
C589 H593 0.930 . S
N590 Gd577 2.601 . S
N590 C580 1.359 . S
N590 C589 1.334 . S
C591 C589 1.394 . S
C591 C592 1.359 . S
C591 H603 0.930 . S
C592 C582 1.391 . S
C592 C591 1.359 . S
C592 H604 0.929 . S
H593 C589 0.930 . S
H594 C583 0.930 . S
H595 C612 0.930 . S
H596 C584 0.930 . S
H597 C585 0.930 . S
H598 C579 0.929 . S
H599 C617 0.930 . S
H600 C608 0.930 . S
H601 C609 0.930 . S
H602 C633 0.929 . S
H603 C591 0.930 . S
H604 C592 0.929 . S
H605 C634 0.930 . S
H606 C615 0.930 . S
N607 Gd576 2.661 . S
N607 C611 1.350 . S
N607 C612 1.307 . S
C608 H600 0.930 . S
C608 C609 1.355 . S
C608 C610 1.412 . S
C609 H601 0.930 . S
C609 C608 1.355 . S
C609 C612 1.402 . S
C610 C608 1.412 . S
C610 C611 1.417 . S
C610 C634 1.431 . S
C611 N607 1.350 . S
C611 C610 1.417 . S
C611 C614 1.426 . S
C612 H595 0.930 . S
C612 N607 1.307 . S
C612 C609 1.402 . S
N613 Gd576 2.601 . S
N613 C614 1.359 . S
N613 C617 1.334 . S
C614 C611 1.426 . S
C614 N613 1.359 . S
C614 C618 1.413 . S
C615 H606 0.930 . S
C615 C616 1.359 . S
C615 C617 1.394 . S
C616 C615 1.359 . S
C616 C618 1.391 . S
C616 H619 0.929 . S
C617 H599 0.930 . S
C617 N613 1.334 . S
C617 C615 1.394 . S
C618 C614 1.413 . S
C618 C616 1.391 . S
C618 C633 1.437 . S
H619 C616 0.929 . S
O620 Gd576 2.545 . S
O620 C635 1.258 . S
O621 Gd576 2.606 1_565 S
O621 Gd577 2.362 1_554 S
O621 C632 1.284 . S
O622 Gd577 2.324 1_545 S
O622 C642 1.254 . S
O623 Gd576 2.429 . S
O623 C642 1.268 1_554 S
O624 Gd576 2.545 1_565 S
O624 C632 1.250 . S
O625 Gd576 2.412 . S
O625 C635 1.252 . S
O626 Gd577 2.545 . S
O626 C644 1.258 . S
O627 Gd576 2.362 1_556 S
O627 Gd577 2.606 1_545 S
O627 C643 1.284 . S
O628 Gd576 2.324 1_565 S
O628 C651 1.254 . S
O629 Gd577 2.429 . S
O629 C651 1.268 1_556 S
O630 Gd577 2.545 1_545 S
O630 C643 1.250 . S
O631 Gd577 2.412 . S
O631 C644 1.252 . S
C632 O621 1.284 . S
C632 O624 1.250 . S
C633 H602 0.929 . S
C633 C618 1.437 . S
C633 C634 1.317 . S
C634 H605 0.930 . S
C634 C610 1.431 . S
C634 C633 1.317 . S
C635 Gd576 2.828 . S
C635 O620 1.258 . S
C635 O625 1.252 . S
C635 C636 1.497 . S
C636 C635 1.497 . S
C636 C637 1.395 . S
C636 C638 1.380 1_545 S
C637 C636 1.395 . S
C637 C640 1.398 . S
C637 H652 0.930 . S
C638 C636 1.380 1_565 S
C638 C639 1.391 . S
C638 H653 0.930 . S
C639 C638 1.391 . S
C639 C641 1.387 1_565 S
C640 C637 1.398 . S
C640 C641 1.380 . S
C640 H654 0.930 . S
C641 C639 1.387 1_545 S
C641 C640 1.380 . S
C641 H655 0.930 . S
C642 O622 1.254 . S
C642 O623 1.268 1_556 S
C643 O627 1.284 . S
C643 O630 1.250 . S
C644 Gd577 2.828 . S
C644 O626 1.258 . S
C644 O631 1.252 . S
C644 C645 1.497 . S
C645 C644 1.497 . S
C645 C646 1.395 . S
C645 C647 1.380 1_565 S
C646 C645 1.395 . S
C646 C649 1.398 . S
C646 H656 0.930 . S
C647 C645 1.380 1_545 S
C647 C648 1.391 . S
C647 H657 0.930 . S
C648 C647 1.391 . S
C648 C650 1.387 1_545 S
C649 C646 1.398 . S
C649 C650 1.380 . S
C649 H658 0.930 . S
C650 C648 1.387 1_565 S
C650 C649 1.380 . S
C650 H659 0.930 . S
C651 O628 1.254 . S
C651 O629 1.268 1_554 S
H652 C637 0.930 . S
H653 C638 0.930 . S
H654 C640 0.930 . S
H655 C641 0.930 . S
H656 C646 0.930 . S
H657 C647 0.930 . S
H658 C649 0.930 . S
H659 C650 0.930 . S
Gd660 N691 2.661 . S
Gd660 N697 2.601 . S
Gd660 O704 2.545 . S
Gd660 O705 2.606 1_655 S
Gd660 O707 2.429 . S
Gd660 O708 2.545 1_655 S
Gd660 O709 2.412 . S
Gd660 O711 2.362 1_554 S
Gd660 O712 2.324 1_655 S
Gd660 C719 2.828 . S
Gd661 N670 2.661 . S
Gd661 N674 2.601 . S
Gd661 O705 2.362 1_556 S
Gd661 O706 2.324 1_455 S
Gd661 O710 2.545 . S
Gd661 O711 2.606 1_455 S
Gd661 O713 2.429 . S
Gd661 O714 2.545 1_455 S
Gd661 O715 2.412 . S
Gd661 C728 2.828 . S
C662 C665 1.417 . S
C662 C667 1.431 . S
C662 C668 1.412 . S
C663 C666 1.437 . S
C663 C667 1.317 . S
C663 H682 0.929 . S
C664 C665 1.426 . S
C664 C666 1.413 . S
C664 N674 1.359 . S
C665 C662 1.417 . S
C665 C664 1.426 . S
C665 N670 1.350 . S
C666 C663 1.437 . S
C666 C664 1.413 . S
C666 C676 1.391 . S
C667 C662 1.431 . S
C667 C663 1.317 . S
C667 H678 0.930 . S
C668 C662 1.412 . S
C668 C669 1.355 . S
C668 H680 0.930 . S
C669 C668 1.355 . S
C669 C671 1.402 . S
C669 H681 0.930 . S
N670 Gd661 2.661 . S
N670 C665 1.350 . S
N670 C671 1.307 . S
C671 C669 1.402 . S
C671 N670 1.307 . S
C671 H672 0.930 . S
H672 C671 0.930 . S
C673 N674 1.334 . S
C673 C675 1.394 . S
C673 H677 0.930 . S
N674 Gd661 2.601 . S
N674 C664 1.359 . S
N674 C673 1.334 . S
C675 C673 1.394 . S
C675 C676 1.359 . S
C675 H687 0.930 . S
C676 C666 1.391 . S
C676 C675 1.359 . S
C676 H688 0.929 . S
H677 C673 0.930 . S
H678 C667 0.930 . S
H679 C696 0.930 . S
H680 C668 0.930 . S
H681 C669 0.930 . S
H682 C663 0.929 . S
H683 C701 0.930 . S
H684 C692 0.930 . S
H685 C693 0.930 . S
H686 C717 0.929 . S
H687 C675 0.930 . S
H688 C676 0.929 . S
H689 C718 0.930 . S
H690 C699 0.930 . S
N691 Gd660 2.661 . S
N691 C695 1.350 . S
N691 C696 1.307 . S
C692 H684 0.930 . S
C692 C693 1.355 . S
C692 C694 1.412 . S
C693 H685 0.930 . S
C693 C692 1.355 . S
C693 C696 1.402 . S
C694 C692 1.412 . S
C694 C695 1.417 . S
C694 C718 1.431 . S
C695 N691 1.350 . S
C695 C694 1.417 . S
C695 C698 1.426 . S
C696 H679 0.930 . S
C696 N691 1.307 . S
C696 C693 1.402 . S
N697 Gd660 2.601 . S
N697 C698 1.359 . S
N697 C701 1.334 . S
C698 C695 1.426 . S
C698 N697 1.359 . S
C698 C702 1.413 . S
C699 H690 0.930 . S
C699 C700 1.359 . S
C699 C701 1.394 . S
C700 C699 1.359 . S
C700 C702 1.391 . S
C700 H703 0.929 . S
C701 H683 0.930 . S
C701 N697 1.334 . S
C701 C699 1.394 . S
C702 C698 1.413 . S
C702 C700 1.391 . S
C702 C717 1.437 . S
H703 C700 0.929 . S
O704 Gd660 2.545 . S
O704 C719 1.258 . S
O705 Gd660 2.606 1_455 S
O705 Gd661 2.362 1_554 S
O705 C716 1.284 . S
O706 Gd661 2.324 1_655 S
O706 C726 1.254 . S
O707 Gd660 2.429 . S
O707 C726 1.268 1_554 S
O708 Gd660 2.545 1_455 S
O708 C716 1.250 . S
O709 Gd660 2.412 . S
O709 C719 1.252 . S
O710 Gd661 2.545 . S
O710 C728 1.258 . S
O711 Gd660 2.362 1_556 S
O711 Gd661 2.606 1_655 S
O711 C727 1.284 . S
O712 Gd660 2.324 1_455 S
O712 C735 1.254 . S
O713 Gd661 2.429 . S
O713 C735 1.268 1_556 S
O714 Gd661 2.545 1_655 S
O714 C727 1.250 . S
O715 Gd661 2.412 . S
O715 C728 1.252 . S
C716 O705 1.284 . S
C716 O708 1.250 . S
C717 H686 0.929 . S
C717 C702 1.437 . S
C717 C718 1.317 . S
C718 H689 0.930 . S
C718 C694 1.431 . S
C718 C717 1.317 . S
C719 Gd660 2.828 . S
C719 O704 1.258 . S
C719 O709 1.252 . S
C719 C720 1.497 . S
C720 C719 1.497 . S
C720 C721 1.395 . S
C720 C722 1.380 1_655 S
C721 C720 1.395 . S
C721 C724 1.398 . S
C721 H736 0.930 . S
C722 C720 1.380 1_455 S
C722 C723 1.391 . S
C722 H737 0.930 . S
C723 C722 1.391 . S
C723 C725 1.387 1_455 S
C724 C721 1.398 . S
C724 C725 1.380 . S
C724 H738 0.930 . S
C725 C723 1.387 1_655 S
C725 C724 1.380 . S
C725 H739 0.930 . S
C726 O706 1.254 . S
C726 O707 1.268 1_556 S
C727 O711 1.284 . S
C727 O714 1.250 . S
C728 Gd661 2.828 . S
C728 O710 1.258 . S
C728 O715 1.252 . S
C728 C729 1.497 . S
C729 C728 1.497 . S
C729 C730 1.395 . S
C729 C731 1.380 1_455 S
C730 C729 1.395 . S
C730 C733 1.398 . S
C730 H740 0.930 . S
C731 C729 1.380 1_655 S
C731 C732 1.391 . S
C731 H741 0.930 . S
C732 C731 1.391 . S
C732 C734 1.387 1_655 S
C733 C730 1.398 . S
C733 C734 1.380 . S
C733 H742 0.930 . S
C734 C732 1.387 1_455 S
C734 C733 1.380 . S
C734 H743 0.930 . S
C735 O712 1.254 . S
C735 O713 1.268 1_554 S
H736 C721 0.930 . S
H737 C722 0.930 . S
H738 C724 0.930 . S
H739 C725 0.930 . S
H740 C730 0.930 . S
H741 C731 0.930 . S
H742 C733 0.930 . S
H743 C734 0.930 . S
Gd744 N775 2.661 . S
Gd744 N781 2.601 . S
Gd744 O788 2.545 . S
Gd744 O789 2.606 . S
Gd744 O791 2.429 . S
Gd744 O792 2.545 . S
Gd744 O793 2.412 . S
Gd744 O795 2.362 1_556 S
Gd744 O796 2.324 . S
Gd744 C803 2.828 . S
Gd745 N754 2.661 . S
Gd745 N758 2.601 . S
Gd745 O789 2.362 1_554 S
Gd745 O790 2.324 . S
Gd745 O794 2.545 . S
Gd745 O795 2.606 . S
Gd745 O797 2.429 . S
Gd745 O798 2.545 . S
Gd745 O799 2.412 . S
Gd745 C812 2.828 . S
C746 C749 1.417 . S
C746 C751 1.431 . S
C746 C752 1.412 . S
C747 C750 1.437 . S
C747 C751 1.317 . S
C747 H766 0.929 . S
C748 C749 1.426 . S
C748 C750 1.413 . S
C748 N758 1.359 . S
C749 C746 1.417 . S
C749 C748 1.426 . S
C749 N754 1.350 . S
C750 C747 1.437 . S
C750 C748 1.413 . S
C750 C760 1.391 . S
C751 C746 1.431 . S
C751 C747 1.317 . S
C751 H762 0.930 . S
C752 C746 1.412 . S
C752 C753 1.355 . S
C752 H764 0.930 . S
C753 C752 1.355 . S
C753 C755 1.402 . S
C753 H765 0.930 . S
N754 Gd745 2.661 . S
N754 C749 1.350 . S
N754 C755 1.307 . S
C755 C753 1.402 . S
C755 N754 1.307 . S
C755 H756 0.930 . S
H756 C755 0.930 . S
C757 N758 1.334 . S
C757 C759 1.394 . S
C757 H761 0.930 . S
N758 Gd745 2.601 . S
N758 C748 1.359 . S
N758 C757 1.334 . S
C759 C757 1.394 . S
C759 C760 1.359 . S
C759 H771 0.930 . S
C760 C750 1.391 . S
C760 C759 1.359 . S
C760 H772 0.929 . S
H761 C757 0.930 . S
H762 C751 0.930 . S
H763 C780 0.930 . S
H764 C752 0.930 . S
H765 C753 0.930 . S
H766 C747 0.929 . S
H767 C785 0.930 . S
H768 C776 0.930 . S
H769 C777 0.930 . S
H770 C801 0.929 . S
H771 C759 0.930 . S
H772 C760 0.929 . S
H773 C802 0.930 . S
H774 C783 0.930 . S
N775 Gd744 2.661 . S
N775 C779 1.350 . S
N775 C780 1.307 . S
C776 H768 0.930 . S
C776 C777 1.355 . S
C776 C778 1.412 . S
C777 H769 0.930 . S
C777 C776 1.355 . S
C777 C780 1.402 . S
C778 C776 1.412 . S
C778 C779 1.417 . S
C778 C802 1.431 . S
C779 N775 1.350 . S
C779 C778 1.417 . S
C779 C782 1.426 . S
C780 H763 0.930 . S
C780 N775 1.307 . S
C780 C777 1.402 . S
N781 Gd744 2.601 . S
N781 C782 1.359 . S
N781 C785 1.334 . S
C782 C779 1.426 . S
C782 N781 1.359 . S
C782 C786 1.413 . S
C783 H774 0.930 . S
C783 C784 1.359 . S
C783 C785 1.394 . S
C784 C783 1.359 . S
C784 C786 1.391 . S
C784 H787 0.929 . S
C785 H767 0.930 . S
C785 N781 1.334 . S
C785 C783 1.394 . S
C786 C782 1.413 . S
C786 C784 1.391 . S
C786 C801 1.437 . S
H787 C784 0.929 . S
O788 Gd744 2.545 . S
O788 C803 1.258 . S
O789 Gd744 2.606 . S
O789 Gd745 2.362 1_556 S
O789 C800 1.284 . S
O790 Gd745 2.324 . S
O790 C810 1.254 . S
O791 Gd744 2.429 . S
O791 C810 1.268 1_556 S
O792 Gd744 2.545 . S
O792 C800 1.250 . S
O793 Gd744 2.412 . S
O793 C803 1.252 . S
O794 Gd745 2.545 . S
O794 C812 1.258 . S
O795 Gd744 2.362 1_554 S
O795 Gd745 2.606 . S
O795 C811 1.284 . S
O796 Gd744 2.324 . S
O796 C819 1.254 . S
O797 Gd745 2.429 . S
O797 C819 1.268 1_554 S
O798 Gd745 2.545 . S
O798 C811 1.250 . S
O799 Gd745 2.412 . S
O799 C812 1.252 . S
C800 O789 1.284 . S
C800 O792 1.250 . S
C801 H770 0.929 . S
C801 C786 1.437 . S
C801 C802 1.317 . S
C802 H773 0.930 . S
C802 C778 1.431 . S
C802 C801 1.317 . S
C803 Gd744 2.828 . S
C803 O788 1.258 . S
C803 O793 1.252 . S
C803 C804 1.497 . S
C804 C803 1.497 . S
C804 C805 1.395 . S
C804 C806 1.380 . S
C805 C804 1.395 . S
C805 C808 1.398 . S
C805 H820 0.930 . S
C806 C804 1.380 . S
C806 C807 1.391 . S
C806 H821 0.930 . S
C807 C806 1.391 . S
C807 C809 1.387 . S
C808 C805 1.398 . S
C808 C809 1.380 . S
C808 H822 0.930 . S
C809 C807 1.387 . S
C809 C808 1.380 . S
C809 H823 0.930 . S
C810 O790 1.254 . S
C810 O791 1.268 1_554 S
C811 O795 1.284 . S
C811 O798 1.250 . S
C812 Gd745 2.828 . S
C812 O794 1.258 . S
C812 O799 1.252 . S
C812 C813 1.497 . S
C813 C812 1.497 . S
C813 C814 1.395 . S
C813 C815 1.380 . S
C814 C813 1.395 . S
C814 C817 1.398 . S
C814 H824 0.930 . S
C815 C813 1.380 . S
C815 C816 1.391 . S
C815 H825 0.930 . S
C816 C815 1.391 . S
C816 C818 1.387 . S
C817 C814 1.398 . S
C817 C818 1.380 . S
C817 H826 0.930 . S
C818 C816 1.387 . S
C818 C817 1.380 . S
C818 H827 0.930 . S
C819 O796 1.254 . S
C819 O797 1.268 1_556 S
H820 C805 0.930 . S
H821 C806 0.930 . S
H822 C808 0.930 . S
H823 C809 0.930 . S
H824 C814 0.930 . S
H825 C815 0.930 . S
H826 C817 0.930 . S
H827 C818 0.930 . S
Gd828 N859 2.661 . S
Gd828 N865 2.601 . S
Gd828 O872 2.545 . S
Gd828 O873 2.606 . S
Gd828 O875 2.429 . S
Gd828 O876 2.545 . S
Gd828 O877 2.412 . S
Gd828 O879 2.362 . S
Gd828 O880 2.324 . S
Gd828 C887 2.828 . S
Gd829 N838 2.661 . S
Gd829 N842 2.601 . S
Gd829 O873 2.362 . S
Gd829 O874 2.324 . S
Gd829 O878 2.545 . S
Gd829 O879 2.606 . S
Gd829 O881 2.429 . S
Gd829 O882 2.545 . S
Gd829 O883 2.412 . S
Gd829 C896 2.828 . S
C830 C833 1.417 1_655 S
C830 C835 1.431 . S
C830 C836 1.412 . S
C831 C834 1.437 1_655 S
C831 C835 1.317 . S
C831 H850 0.929 . S
C832 C833 1.426 . S
C832 C834 1.413 . S
C832 N842 1.359 . S
C833 C830 1.417 1_455 S
C833 C832 1.426 . S
C833 N838 1.350 . S
C834 C831 1.437 1_455 S
C834 C832 1.413 . S
C834 C844 1.391 . S
C835 C830 1.431 . S
C835 C831 1.317 . S
C835 H846 0.930 . S
C836 C830 1.412 . S
C836 C837 1.355 . S
C836 H848 0.930 . S
C837 C836 1.355 . S
C837 C839 1.402 1_655 S
C837 H849 0.930 . S
N838 Gd829 2.661 . S
N838 C833 1.350 . S
N838 C839 1.307 . S
C839 C837 1.402 1_455 S
C839 N838 1.307 . S
C839 H840 0.930 . S
H840 C839 0.930 . S
C841 N842 1.334 . S
C841 C843 1.394 . S
C841 H845 0.930 . S
N842 Gd829 2.601 . S
N842 C832 1.359 . S
N842 C841 1.334 . S
C843 C841 1.394 . S
C843 C844 1.359 . S
C843 H855 0.930 . S
C844 C834 1.391 . S
C844 C843 1.359 . S
C844 H856 0.929 . S
H845 C841 0.930 . S
H846 C835 0.930 . S
H847 C864 0.930 . S
H848 C836 0.930 . S
H849 C837 0.930 . S
H850 C831 0.929 . S
H851 C869 0.930 . S
H852 C860 0.930 . S
H853 C861 0.930 . S
H854 C885 0.929 . S
H855 C843 0.930 . S
H856 C844 0.929 . S
H857 C886 0.930 . S
H858 C867 0.930 . S
N859 Gd828 2.661 . S
N859 C863 1.350 . S
N859 C864 1.307 . S
C860 H852 0.930 . S
C860 C861 1.355 . S
C860 C862 1.412 . S
C861 H853 0.930 . S
C861 C860 1.355 . S
C861 C864 1.402 . S
C862 C860 1.412 . S
C862 C863 1.417 . S
C862 C886 1.431 . S
C863 N859 1.350 . S
C863 C862 1.417 . S
C863 C866 1.426 . S
C864 H847 0.930 . S
C864 N859 1.307 . S
C864 C861 1.402 . S
N865 Gd828 2.601 . S
N865 C866 1.359 . S
N865 C869 1.334 . S
C866 C863 1.426 . S
C866 N865 1.359 . S
C866 C870 1.413 . S
C867 H858 0.930 . S
C867 C868 1.359 . S
C867 C869 1.394 . S
C868 C867 1.359 . S
C868 C870 1.391 . S
C868 H871 0.929 . S
C869 H851 0.930 . S
C869 N865 1.334 . S
C869 C867 1.394 . S
C870 C866 1.413 . S
C870 C868 1.391 . S
C870 C885 1.437 . S
H871 C868 0.929 . S
O872 Gd828 2.545 . S
O872 C887 1.258 . S
O873 Gd828 2.606 . S
O873 Gd829 2.362 . S
O873 C884 1.284 . S
O874 Gd829 2.324 . S
O874 C894 1.254 . S
O875 Gd828 2.429 . S
O875 C894 1.268 . S
O876 Gd828 2.545 . S
O876 C884 1.250 . S
O877 Gd828 2.412 . S
O877 C887 1.252 . S
O878 Gd829 2.545 . S
O878 C896 1.258 . S
O879 Gd828 2.362 . S
O879 Gd829 2.606 . S
O879 C895 1.284 . S
O880 Gd828 2.324 . S
O880 C903 1.254 . S
O881 Gd829 2.429 . S
O881 C903 1.268 . S
O882 Gd829 2.545 . S
O882 C895 1.250 . S
O883 Gd829 2.412 . S
O883 C896 1.252 . S
C884 O873 1.284 . S
C884 O876 1.250 . S
C885 H854 0.929 . S
C885 C870 1.437 . S
C885 C886 1.317 . S
C886 H857 0.930 . S
C886 C862 1.431 . S
C886 C885 1.317 . S
C887 Gd828 2.828 . S
C887 O872 1.258 . S
C887 O877 1.252 . S
C887 C888 1.497 . S
C888 C887 1.497 . S
C888 C889 1.395 . S
C888 C890 1.380 . S
C889 C888 1.395 . S
C889 C892 1.398 . S
C889 H904 0.930 . S
C890 C888 1.380 . S
C890 C891 1.391 . S
C890 H905 0.930 . S
C891 C890 1.391 . S
C891 C893 1.387 . S
C892 C889 1.398 . S
C892 C893 1.380 . S
C892 H906 0.930 . S
C893 C891 1.387 . S
C893 C892 1.380 . S
C893 H907 0.930 . S
C894 O874 1.254 . S
C894 O875 1.268 . S
C895 O879 1.284 . S
C895 O882 1.250 . S
C896 Gd829 2.828 . S
C896 O878 1.258 . S
C896 O883 1.252 . S
C896 C897 1.497 . S
C897 C896 1.497 . S
C897 C898 1.395 . S
C897 C899 1.380 . S
C898 C897 1.395 . S
C898 C901 1.398 . S
C898 H908 0.930 . S
C899 C897 1.380 . S
C899 C900 1.391 . S
C899 H909 0.930 . S
C900 C899 1.391 . S
C900 C902 1.387 . S
C901 C898 1.398 . S
C901 C902 1.380 . S
C901 H910 0.930 . S
C902 C900 1.387 . S
C902 C901 1.380 . S
C902 H911 0.930 . S
C903 O880 1.254 . S
C903 O881 1.268 . S
H904 C889 0.930 . S
H905 C890 0.930 . S
H906 C892 0.930 . S
H907 C893 0.930 . S
H908 C898 0.930 . S
H909 C899 0.930 . S
H910 C901 0.930 . S
H911 C902 0.930 . S
Gd912 N943 2.661 . S
Gd912 N949 2.601 . S
Gd912 O956 2.545 . S
Gd912 O957 2.606 . S
Gd912 O959 2.429 . S
Gd912 O960 2.545 . S
Gd912 O961 2.412 . S
Gd912 O963 2.362 . S
Gd912 O964 2.324 . S
Gd912 C971 2.828 . S
Gd913 N922 2.661 . S
Gd913 N926 2.601 . S
Gd913 O957 2.362 . S
Gd913 O958 2.324 . S
Gd913 O962 2.545 . S
Gd913 O963 2.606 . S
Gd913 O965 2.429 . S
Gd913 O966 2.545 . S
Gd913 O967 2.412 . S
Gd913 C980 2.828 . S
C914 C917 1.417 . S
C914 C919 1.431 . S
C914 C920 1.412 . S
C915 C918 1.437 . S
C915 C919 1.317 . S
C915 H934 0.929 . S
C916 C917 1.426 . S
C916 C918 1.413 . S
C916 N926 1.359 . S
C917 C914 1.417 . S
C917 C916 1.426 . S
C917 N922 1.350 . S
C918 C915 1.437 . S
C918 C916 1.413 . S
C918 C928 1.391 . S
C919 C914 1.431 . S
C919 C915 1.317 . S
C919 H930 0.930 . S
C920 C914 1.412 . S
C920 C921 1.355 . S
C920 H932 0.930 . S
C921 C920 1.355 . S
C921 C923 1.402 . S
C921 H933 0.930 . S
N922 Gd913 2.661 . S
N922 C917 1.350 . S
N922 C923 1.307 . S
C923 C921 1.402 . S
C923 N922 1.307 . S
C923 H924 0.930 . S
H924 C923 0.930 . S
C925 N926 1.334 . S
C925 C927 1.394 . S
C925 H929 0.930 . S
N926 Gd913 2.601 . S
N926 C916 1.359 . S
N926 C925 1.334 . S
C927 C925 1.394 . S
C927 C928 1.359 . S
C927 H939 0.930 1_565 S
C928 C918 1.391 . S
C928 C927 1.359 . S
C928 H940 0.929 . S
H929 C925 0.930 . S
H930 C919 0.930 . S
H931 C948 0.930 . S
H932 C920 0.930 . S
H933 C921 0.930 . S
H934 C915 0.929 . S
H935 C953 0.930 . S
H936 C944 0.930 . S
H937 C945 0.930 . S
H938 C969 0.929 . S
H939 C927 0.930 1_545 S
H940 C928 0.929 . S
H941 C970 0.930 . S
H942 C951 0.930 . S
N943 Gd912 2.661 . S
N943 C947 1.350 . S
N943 C948 1.307 . S
C944 H936 0.930 . S
C944 C945 1.355 . S
C944 C946 1.412 . S
C945 H937 0.930 . S
C945 C944 1.355 . S
C945 C948 1.402 . S
C946 C944 1.412 . S
C946 C947 1.417 . S
C946 C970 1.431 . S
C947 N943 1.350 . S
C947 C946 1.417 . S
C947 C950 1.426 . S
C948 H931 0.930 . S
C948 N943 1.307 . S
C948 C945 1.402 . S
N949 Gd912 2.601 . S
N949 C950 1.359 . S
N949 C953 1.334 . S
C950 C947 1.426 . S
C950 N949 1.359 . S
C950 C954 1.413 . S
C951 H942 0.930 . S
C951 C952 1.359 . S
C951 C953 1.394 . S
C952 C951 1.359 . S
C952 C954 1.391 . S
C952 H955 0.929 . S
C953 H935 0.930 . S
C953 N949 1.334 . S
C953 C951 1.394 . S
C954 C950 1.413 . S
C954 C952 1.391 . S
C954 C969 1.437 . S
H955 C952 0.929 . S
O956 Gd912 2.545 . S
O956 C971 1.258 . S
O957 Gd912 2.606 . S
O957 Gd913 2.362 . S
O957 C968 1.284 . S
O958 Gd913 2.324 . S
O958 C978 1.254 . S
O959 Gd912 2.429 . S
O959 C978 1.268 . S
O960 Gd912 2.545 . S
O960 C968 1.250 . S
O961 Gd912 2.412 . S
O961 C971 1.252 . S
O962 Gd913 2.545 . S
O962 C980 1.258 . S
O963 Gd912 2.362 . S
O963 Gd913 2.606 . S
O963 C979 1.284 . S
O964 Gd912 2.324 . S
O964 C987 1.254 . S
O965 Gd913 2.429 . S
O965 C987 1.268 . S
O966 Gd913 2.545 . S
O966 C979 1.250 . S
O967 Gd913 2.412 . S
O967 C980 1.252 . S
C968 O957 1.284 . S
C968 O960 1.250 . S
C969 H938 0.929 . S
C969 C954 1.437 . S
C969 C970 1.317 . S
C970 H941 0.930 . S
C970 C946 1.431 . S
C970 C969 1.317 . S
C971 Gd912 2.828 . S
C971 O956 1.258 . S
C971 O961 1.252 . S
C971 C972 1.497 . S
C972 C971 1.497 . S
C972 C973 1.395 . S
C972 C974 1.380 . S
C973 C972 1.395 . S
C973 C976 1.398 . S
C973 H988 0.930 . S
C974 C972 1.380 . S
C974 C975 1.391 . S
C974 H989 0.930 . S
C975 C974 1.391 . S
C975 C977 1.387 . S
C976 C973 1.398 . S
C976 C977 1.380 . S
C976 H990 0.930 . S
C977 C975 1.387 . S
C977 C976 1.380 . S
C977 H991 0.930 . S
C978 O958 1.254 . S
C978 O959 1.268 . S
C979 O963 1.284 . S
C979 O966 1.250 . S
C980 Gd913 2.828 . S
C980 O962 1.258 . S
C980 O967 1.252 . S
C980 C981 1.497 . S
C981 C980 1.497 . S
C981 C982 1.395 . S
C981 C983 1.380 . S
C982 C981 1.395 . S
C982 C985 1.398 . S
C982 H992 0.930 . S
C983 C981 1.380 . S
C983 C984 1.391 . S
C983 H993 0.930 . S
C984 C983 1.391 . S
C984 C986 1.387 . S
C985 C982 1.398 . S
C985 C986 1.380 . S
C985 H994 0.930 . S
C986 C984 1.387 . S
C986 C985 1.380 . S
C986 H995 0.930 . S
C987 O964 1.254 . S
C987 O965 1.268 . S
H988 C973 0.930 . S
H989 C974 0.930 . S
H990 C976 0.930 . S
H991 C977 0.930 . S
H992 C982 0.930 . S
H993 C983 0.930 . S
H994 C985 0.930 . S
H995 C986 0.930 . S
Gd996 N1027 2.661 . S
Gd996 N1033 2.601 . S
Gd996 O1040 2.545 . S
Gd996 O1041 2.606 . S
Gd996 O1043 2.429 . S
Gd996 O1044 2.545 . S
Gd996 O1045 2.412 . S
Gd996 O1047 2.362 . S
Gd996 O1048 2.324 . S
Gd996 C1055 2.828 . S
Gd997 N1006 2.661 . S
Gd997 N1010 2.601 . S
Gd997 O1041 2.362 . S
Gd997 O1042 2.324 . S
Gd997 O1046 2.545 . S
Gd997 O1047 2.606 . S
Gd997 O1049 2.429 . S
Gd997 O1050 2.545 . S
Gd997 O1051 2.412 . S
Gd997 C1064 2.828 . S
C998 C1001 1.417 . S
C998 C1003 1.431 . S
C998 C1004 1.412 . S
C999 C1002 1.437 . S
C999 C1003 1.317 . S
C999 H1018 0.929 . S
C1000 C1001 1.426 . S
C1000 C1002 1.413 . S
C1000 N1010 1.359 . S
C1001 C998 1.417 . S
C1001 C1000 1.426 . S
C1001 N1006 1.350 . S
C1002 C999 1.437 . S
C1002 C1000 1.413 . S
C1002 C1012 1.391 . S
C1003 C998 1.431 . S
C1003 C999 1.317 . S
C1003 H1014 0.930 . S
C1004 C998 1.412 . S
C1004 C1005 1.355 . S
C1004 H1016 0.930 . S
C1005 C1004 1.355 . S
C1005 C1007 1.402 . S
C1005 H1017 0.930 . S
N1006 Gd997 2.661 . S
N1006 C1001 1.350 . S
N1006 C1007 1.307 . S
C1007 C1005 1.402 . S
C1007 N1006 1.307 . S
C1007 H1008 0.930 . S
H1008 C1007 0.930 . S
C1009 N1010 1.334 . S
C1009 C1011 1.394 . S
C1009 H1013 0.930 . S
N1010 Gd997 2.601 . S
N1010 C1000 1.359 . S
N1010 C1009 1.334 . S
C1011 C1009 1.394 . S
C1011 C1012 1.359 . S
C1011 H1023 0.930 . S
C1012 C1002 1.391 . S
C1012 C1011 1.359 . S
C1012 H1024 0.929 . S
H1013 C1009 0.930 . S
H1014 C1003 0.930 . S
H1015 C1032 0.930 . S
H1016 C1004 0.930 . S
H1017 C1005 0.930 . S
H1018 C999 0.929 . S
H1019 C1037 0.930 . S
H1020 C1028 0.930 . S
H1021 C1029 0.930 . S
H1022 C1053 0.929 . S
H1023 C1011 0.930 . S
H1024 C1012 0.929 . S
H1025 C1054 0.930 . S
H1026 C1035 0.930 1_545 S
N1027 Gd996 2.661 . S
N1027 C1031 1.350 . S
N1027 C1032 1.307 . S
C1028 H1020 0.930 . S
C1028 C1029 1.355 . S
C1028 C1030 1.412 . S
C1029 H1021 0.930 . S
C1029 C1028 1.355 . S
C1029 C1032 1.402 1_655 S
C1030 C1028 1.412 . S
C1030 C1031 1.417 1_655 S
C1030 C1054 1.431 . S
C1031 N1027 1.350 . S
C1031 C1030 1.417 1_455 S
C1031 C1034 1.426 . S
C1032 H1015 0.930 . S
C1032 N1027 1.307 . S
C1032 C1029 1.402 1_455 S
N1033 Gd996 2.601 . S
N1033 C1034 1.359 . S
N1033 C1037 1.334 . S
C1034 C1031 1.426 . S
C1034 N1033 1.359 . S
C1034 C1038 1.413 . S
C1035 H1026 0.930 1_565 S
C1035 C1036 1.359 . S
C1035 C1037 1.394 . S
C1036 C1035 1.359 . S
C1036 C1038 1.391 . S
C1036 H1039 0.929 . S
C1037 H1019 0.930 . S
C1037 N1033 1.334 . S
C1037 C1035 1.394 . S
C1038 C1034 1.413 . S
C1038 C1036 1.391 . S
C1038 C1053 1.437 1_455 S
H1039 C1036 0.929 . S
O1040 Gd996 2.545 . S
O1040 C1055 1.258 . S
O1041 Gd996 2.606 . S
O1041 Gd997 2.362 . S
O1041 C1052 1.284 . S
O1042 Gd997 2.324 . S
O1042 C1062 1.254 . S
O1043 Gd996 2.429 . S
O1043 C1062 1.268 . S
O1044 Gd996 2.545 . S
O1044 C1052 1.250 . S
O1045 Gd996 2.412 . S
O1045 C1055 1.252 . S
O1046 Gd997 2.545 . S
O1046 C1064 1.258 . S
O1047 Gd996 2.362 . S
O1047 Gd997 2.606 . S
O1047 C1063 1.284 . S
O1048 Gd996 2.324 . S
O1048 C1071 1.254 . S
O1049 Gd997 2.429 . S
O1049 C1071 1.268 . S
O1050 Gd997 2.545 . S
O1050 C1063 1.250 . S
O1051 Gd997 2.412 . S
O1051 C1064 1.252 . S
C1052 O1041 1.284 . S
C1052 O1044 1.250 . S
C1053 H1022 0.929 . S
C1053 C1038 1.437 1_655 S
C1053 C1054 1.317 . S
C1054 H1025 0.930 . S
C1054 C1030 1.431 . S
C1054 C1053 1.317 . S
C1055 Gd996 2.828 . S
C1055 O1040 1.258 . S
C1055 O1045 1.252 . S
C1055 C1056 1.497 . S
C1056 C1055 1.497 . S
C1056 C1057 1.395 . S
C1056 C1058 1.380 . S
C1057 C1056 1.395 . S
C1057 C1060 1.398 . S
C1057 H1072 0.930 . S
C1058 C1056 1.380 . S
C1058 C1059 1.391 . S
C1058 H1073 0.930 . S
C1059 C1058 1.391 . S
C1059 C1061 1.387 . S
C1060 C1057 1.398 . S
C1060 C1061 1.380 . S
C1060 H1074 0.930 . S
C1061 C1059 1.387 . S
C1061 C1060 1.380 . S
C1061 H1075 0.930 . S
C1062 O1042 1.254 . S
C1062 O1043 1.268 . S
C1063 O1047 1.284 . S
C1063 O1050 1.250 . S
C1064 Gd997 2.828 . S
C1064 O1046 1.258 . S
C1064 O1051 1.252 . S
C1064 C1065 1.497 . S
C1065 C1064 1.497 . S
C1065 C1066 1.395 . S
C1065 C1067 1.380 . S
C1066 C1065 1.395 . S
C1066 C1069 1.398 . S
C1066 H1076 0.930 . S
C1067 C1065 1.380 . S
C1067 C1068 1.391 . S
C1067 H1077 0.930 . S
C1068 C1067 1.391 . S
C1068 C1070 1.387 . S
C1069 C1066 1.398 . S
C1069 C1070 1.380 . S
C1069 H1078 0.930 . S
C1070 C1068 1.387 . S
C1070 C1069 1.380 . S
C1070 H1079 0.930 . S
C1071 O1048 1.254 . S
C1071 O1049 1.268 . S
H1072 C1057 0.930 . S
H1073 C1058 0.930 . S
H1074 C1060 0.930 . S
H1075 C1061 0.930 . S
H1076 C1066 0.930 . S
H1077 C1067 0.930 . S
H1078 C1069 0.930 . S
H1079 C1070 0.930 . S
Gd1080 N1111 2.661 . S
Gd1080 N1117 2.601 . S
Gd1080 O1124 2.545 . S
Gd1080 O1125 2.606 . S
Gd1080 O1127 2.429 . S
Gd1080 O1128 2.545 . S
Gd1080 O1129 2.412 . S
Gd1080 O1131 2.362 . S
Gd1080 O1132 2.324 . S
Gd1080 C1139 2.828 . S
Gd1081 N1090 2.661 . S
Gd1081 N1094 2.601 . S
Gd1081 O1125 2.362 . S
Gd1081 O1126 2.324 . S
Gd1081 O1130 2.545 . S
Gd1081 O1131 2.606 . S
Gd1081 O1133 2.429 . S
Gd1081 O1134 2.545 . S
Gd1081 O1135 2.412 . S
Gd1081 C1148 2.828 . S
C1082 C1085 1.417 . S
C1082 C1087 1.431 . S
C1082 C1088 1.412 . S
C1083 C1086 1.437 . S
C1083 C1087 1.317 . S
C1083 H1102 0.929 . S
C1084 C1085 1.426 . S
C1084 C1086 1.413 . S
C1084 N1094 1.359 . S
C1085 C1082 1.417 . S
C1085 C1084 1.426 . S
C1085 N1090 1.350 . S
C1086 C1083 1.437 . S
C1086 C1084 1.413 . S
C1086 C1096 1.391 . S
C1087 C1082 1.431 . S
C1087 C1083 1.317 . S
C1087 H1098 0.930 . S
C1088 C1082 1.412 . S
C1088 C1089 1.355 . S
C1088 H1100 0.930 . S
C1089 C1088 1.355 . S
C1089 C1091 1.402 . S
C1089 H1101 0.930 . S
N1090 Gd1081 2.661 . S
N1090 C1085 1.350 . S
N1090 C1091 1.307 . S
C1091 C1089 1.402 . S
C1091 N1090 1.307 . S
C1091 H1092 0.930 . S
H1092 C1091 0.930 . S
C1093 N1094 1.334 . S
C1093 C1095 1.394 . S
C1093 H1097 0.930 . S
N1094 Gd1081 2.601 . S
N1094 C1084 1.359 . S
N1094 C1093 1.334 . S
C1095 C1093 1.394 . S
C1095 C1096 1.359 . S
C1095 H1107 0.930 . S
C1096 C1086 1.391 . S
C1096 C1095 1.359 . S
C1096 H1108 0.929 . S
H1097 C1093 0.930 . S
H1098 C1087 0.930 . S
H1099 C1116 0.930 . S
H1100 C1088 0.930 . S
H1101 C1089 0.930 . S
H1102 C1083 0.929 . S
H1103 C1121 0.930 . S
H1104 C1112 0.930 . S
H1105 C1113 0.930 . S
H1106 C1137 0.929 . S
H1107 C1095 0.930 . S
H1108 C1096 0.929 . S
H1109 C1138 0.930 . S
H1110 C1119 0.930 . S
N1111 Gd1080 2.661 . S
N1111 C1115 1.350 . S
N1111 C1116 1.307 . S
C1112 H1104 0.930 . S
C1112 C1113 1.355 . S
C1112 C1114 1.412 . S
C1113 H1105 0.930 . S
C1113 C1112 1.355 . S
C1113 C1116 1.402 1_455 S
C1114 C1112 1.412 . S
C1114 C1115 1.417 1_455 S
C1114 C1138 1.431 . S
C1115 N1111 1.350 . S
C1115 C1114 1.417 1_655 S
C1115 C1118 1.426 . S
C1116 H1099 0.930 . S
C1116 N1111 1.307 . S
C1116 C1113 1.402 1_655 S
N1117 Gd1080 2.601 . S
N1117 C1118 1.359 . S
N1117 C1121 1.334 . S
C1118 C1115 1.426 . S
C1118 N1117 1.359 . S
C1118 C1122 1.413 . S
C1119 H1110 0.930 . S
C1119 C1120 1.359 . S
C1119 C1121 1.394 . S
C1120 C1119 1.359 . S
C1120 C1122 1.391 . S
C1120 H1123 0.929 . S
C1121 H1103 0.930 . S
C1121 N1117 1.334 . S
C1121 C1119 1.394 . S
C1122 C1118 1.413 . S
C1122 C1120 1.391 . S
C1122 C1137 1.437 1_655 S
H1123 C1120 0.929 . S
O1124 Gd1080 2.545 . S
O1124 C1139 1.258 . S
O1125 Gd1080 2.606 . S
O1125 Gd1081 2.362 . S
O1125 C1136 1.284 . S
O1126 Gd1081 2.324 . S
O1126 C1146 1.254 . S
O1127 Gd1080 2.429 . S
O1127 C1146 1.268 . S
O1128 Gd1080 2.545 . S
O1128 C1136 1.250 . S
O1129 Gd1080 2.412 . S
O1129 C1139 1.252 . S
O1130 Gd1081 2.545 . S
O1130 C1148 1.258 . S
O1131 Gd1080 2.362 . S
O1131 Gd1081 2.606 . S
O1131 C1147 1.284 . S
O1132 Gd1080 2.324 . S
O1132 C1155 1.254 . S
O1133 Gd1081 2.429 . S
O1133 C1155 1.268 . S
O1134 Gd1081 2.545 . S
O1134 C1147 1.250 . S
O1135 Gd1081 2.412 . S
O1135 C1148 1.252 . S
C1136 O1125 1.284 . S
C1136 O1128 1.250 . S
C1137 H1106 0.929 . S
C1137 C1122 1.437 1_455 S
C1137 C1138 1.317 . S
C1138 H1109 0.930 . S
C1138 C1114 1.431 . S
C1138 C1137 1.317 . S
C1139 Gd1080 2.828 . S
C1139 O1124 1.258 . S
C1139 O1129 1.252 . S
C1139 C1140 1.497 . S
C1140 C1139 1.497 . S
C1140 C1141 1.395 . S
C1140 C1142 1.380 . S
C1141 C1140 1.395 . S
C1141 C1144 1.398 . S
C1141 H1156 0.930 . S
C1142 C1140 1.380 . S
C1142 C1143 1.391 . S
C1142 H1157 0.930 . S
C1143 C1142 1.391 . S
C1143 C1145 1.387 . S
C1144 C1141 1.398 . S
C1144 C1145 1.380 . S
C1144 H1158 0.930 . S
C1145 C1143 1.387 . S
C1145 C1144 1.380 . S
C1145 H1159 0.930 . S
C1146 O1126 1.254 . S
C1146 O1127 1.268 . S
C1147 O1131 1.284 . S
C1147 O1134 1.250 . S
C1148 Gd1081 2.828 . S
C1148 O1130 1.258 . S
C1148 O1135 1.252 . S
C1148 C1149 1.497 . S
C1149 C1148 1.497 . S
C1149 C1150 1.395 . S
C1149 C1151 1.380 . S
C1150 C1149 1.395 . S
C1150 C1153 1.398 . S
C1150 H1160 0.930 . S
C1151 C1149 1.380 . S
C1151 C1152 1.391 . S
C1151 H1161 0.930 . S
C1152 C1151 1.391 . S
C1152 C1154 1.387 . S
C1153 C1150 1.398 . S
C1153 C1154 1.380 . S
C1153 H1162 0.930 . S
C1154 C1152 1.387 . S
C1154 C1153 1.380 . S
C1154 H1163 0.930 . S
C1155 O1132 1.254 . S
C1155 O1133 1.268 . S
H1156 C1141 0.930 . S
H1157 C1142 0.930 . S
H1158 C1144 0.930 . S
H1159 C1145 0.930 . S
H1160 C1150 0.930 . S
H1161 C1151 0.930 . S
H1162 C1153 0.930 . S
H1163 C1154 0.930 . S
Gd1164 N1195 2.661 . S
Gd1164 N1201 2.601 . S
Gd1164 O1208 2.545 . S
Gd1164 O1209 2.606 . S
Gd1164 O1211 2.429 . S
Gd1164 O1212 2.545 . S
Gd1164 O1213 2.412 . S
Gd1164 O1215 2.362 . S
Gd1164 O1216 2.324 . S
Gd1164 C1223 2.828 . S
Gd1165 N1174 2.661 . S
Gd1165 N1178 2.601 . S
Gd1165 O1209 2.362 . S
Gd1165 O1210 2.324 . S
Gd1165 O1214 2.545 . S
Gd1165 O1215 2.606 . S
Gd1165 O1217 2.429 . S
Gd1165 O1218 2.545 . S
Gd1165 O1219 2.412 . S
Gd1165 C1232 2.828 . S
C1166 C1169 1.417 . S
C1166 C1171 1.431 . S
C1166 C1172 1.412 . S
C1167 C1170 1.437 . S
C1167 C1171 1.317 . S
C1167 H1186 0.929 . S
C1168 C1169 1.426 . S
C1168 C1170 1.413 . S
C1168 N1178 1.359 . S
C1169 C1166 1.417 . S
C1169 C1168 1.426 . S
C1169 N1174 1.350 . S
C1170 C1167 1.437 . S
C1170 C1168 1.413 . S
C1170 C1180 1.391 . S
C1171 C1166 1.431 . S
C1171 C1167 1.317 . S
C1171 H1182 0.930 . S
C1172 C1166 1.412 . S
C1172 C1173 1.355 . S
C1172 H1184 0.930 . S
C1173 C1172 1.355 . S
C1173 C1175 1.402 . S
C1173 H1185 0.930 . S
N1174 Gd1165 2.661 . S
N1174 C1169 1.350 . S
N1174 C1175 1.307 . S
C1175 C1173 1.402 . S
C1175 N1174 1.307 . S
C1175 H1176 0.930 . S
H1176 C1175 0.930 . S
C1177 N1178 1.334 . S
C1177 C1179 1.394 . S
C1177 H1181 0.930 . S
N1178 Gd1165 2.601 . S
N1178 C1168 1.359 . S
N1178 C1177 1.334 . S
C1179 C1177 1.394 . S
C1179 C1180 1.359 . S
C1179 H1191 0.930 . S
C1180 C1170 1.391 . S
C1180 C1179 1.359 . S
C1180 H1192 0.929 . S
H1181 C1177 0.930 . S
H1182 C1171 0.930 . S
H1183 C1200 0.930 . S
H1184 C1172 0.930 . S
H1185 C1173 0.930 . S
H1186 C1167 0.929 . S
H1187 C1205 0.930 . S
H1188 C1196 0.930 . S
H1189 C1197 0.930 . S
H1190 C1221 0.929 . S
H1191 C1179 0.930 . S
H1192 C1180 0.929 . S
H1193 C1222 0.930 . S
H1194 C1203 0.930 1_565 S
N1195 Gd1164 2.661 . S
N1195 C1199 1.350 . S
N1195 C1200 1.307 . S
C1196 H1188 0.930 . S
C1196 C1197 1.355 . S
C1196 C1198 1.412 . S
C1197 H1189 0.930 . S
C1197 C1196 1.355 . S
C1197 C1200 1.402 . S
C1198 C1196 1.412 . S
C1198 C1199 1.417 . S
C1198 C1222 1.431 . S
C1199 N1195 1.350 . S
C1199 C1198 1.417 . S
C1199 C1202 1.426 . S
C1200 H1183 0.930 . S
C1200 N1195 1.307 . S
C1200 C1197 1.402 . S
N1201 Gd1164 2.601 . S
N1201 C1202 1.359 . S
N1201 C1205 1.334 . S
C1202 C1199 1.426 . S
C1202 N1201 1.359 . S
C1202 C1206 1.413 . S
C1203 H1194 0.930 1_545 S
C1203 C1204 1.359 . S
C1203 C1205 1.394 . S
C1204 C1203 1.359 . S
C1204 C1206 1.391 . S
C1204 H1207 0.929 . S
C1205 H1187 0.930 . S
C1205 N1201 1.334 . S
C1205 C1203 1.394 . S
C1206 C1202 1.413 . S
C1206 C1204 1.391 . S
C1206 C1221 1.437 . S
H1207 C1204 0.929 . S
O1208 Gd1164 2.545 . S
O1208 C1223 1.258 . S
O1209 Gd1164 2.606 . S
O1209 Gd1165 2.362 . S
O1209 C1220 1.284 . S
O1210 Gd1165 2.324 . S
O1210 C1230 1.254 . S
O1211 Gd1164 2.429 . S
O1211 C1230 1.268 . S
O1212 Gd1164 2.545 . S
O1212 C1220 1.250 . S
O1213 Gd1164 2.412 . S
O1213 C1223 1.252 . S
O1214 Gd1165 2.545 . S
O1214 C1232 1.258 . S
O1215 Gd1164 2.362 . S
O1215 Gd1165 2.606 . S
O1215 C1231 1.284 . S
O1216 Gd1164 2.324 . S
O1216 C1239 1.254 . S
O1217 Gd1165 2.429 . S
O1217 C1239 1.268 . S
O1218 Gd1165 2.545 . S
O1218 C1231 1.250 . S
O1219 Gd1165 2.412 . S
O1219 C1232 1.252 . S
C1220 O1209 1.284 . S
C1220 O1212 1.250 . S
C1221 H1190 0.929 . S
C1221 C1206 1.437 . S
C1221 C1222 1.317 . S
C1222 H1193 0.930 . S
C1222 C1198 1.431 . S
C1222 C1221 1.317 . S
C1223 Gd1164 2.828 . S
C1223 O1208 1.258 . S
C1223 O1213 1.252 . S
C1223 C1224 1.497 . S
C1224 C1223 1.497 . S
C1224 C1225 1.395 . S
C1224 C1226 1.380 . S
C1225 C1224 1.395 . S
C1225 C1228 1.398 . S
C1225 H1240 0.930 . S
C1226 C1224 1.380 . S
C1226 C1227 1.391 . S
C1226 H1241 0.930 . S
C1227 C1226 1.391 . S
C1227 C1229 1.387 . S
C1228 C1225 1.398 . S
C1228 C1229 1.380 . S
C1228 H1242 0.930 . S
C1229 C1227 1.387 . S
C1229 C1228 1.380 . S
C1229 H1243 0.930 . S
C1230 O1210 1.254 . S
C1230 O1211 1.268 . S
C1231 O1215 1.284 . S
C1231 O1218 1.250 . S
C1232 Gd1165 2.828 . S
C1232 O1214 1.258 . S
C1232 O1219 1.252 . S
C1232 C1233 1.497 . S
C1233 C1232 1.497 . S
C1233 C1234 1.395 . S
C1233 C1235 1.380 . S
C1234 C1233 1.395 . S
C1234 C1237 1.398 . S
C1234 H1244 0.930 . S
C1235 C1233 1.380 . S
C1235 C1236 1.391 . S
C1235 H1245 0.930 . S
C1236 C1235 1.391 . S
C1236 C1238 1.387 . S
C1237 C1234 1.398 . S
C1237 C1238 1.380 . S
C1237 H1246 0.930 . S
C1238 C1236 1.387 . S
C1238 C1237 1.380 . S
C1238 H1247 0.930 . S
C1239 O1216 1.254 . S
C1239 O1217 1.268 . S
H1240 C1225 0.930 . S
H1241 C1226 0.930 . S
H1242 C1228 0.930 . S
H1243 C1229 0.930 . S
H1244 C1234 0.930 . S
H1245 C1235 0.930 . S
H1246 C1237 0.930 . S
H1247 C1238 0.930 . S
Gd1248 N1279 2.661 . S
Gd1248 N1285 2.601 . S
Gd1248 O1292 2.545 . S
Gd1248 O1293 2.606 . S
Gd1248 O1295 2.429 . S
Gd1248 O1296 2.545 . S
Gd1248 O1297 2.412 . S
Gd1248 O1299 2.362 . S
Gd1248 O1300 2.324 . S
Gd1248 C1307 2.828 . S
Gd1249 N1258 2.661 . S
Gd1249 N1262 2.601 . S
Gd1249 O1293 2.362 . S
Gd1249 O1294 2.324 . S
Gd1249 O1298 2.545 . S
Gd1249 O1299 2.606 . S
Gd1249 O1301 2.429 . S
Gd1249 O1302 2.545 . S
Gd1249 O1303 2.412 . S
Gd1249 C1316 2.828 . S
C1250 C1253 1.417 1_455 S
C1250 C1255 1.431 . S
C1250 C1256 1.412 . S
C1251 C1254 1.437 1_455 S
C1251 C1255 1.317 . S
C1251 H1270 0.929 . S
C1252 C1253 1.426 . S
C1252 C1254 1.413 . S
C1252 N1262 1.359 . S
C1253 C1250 1.417 1_655 S
C1253 C1252 1.426 . S
C1253 N1258 1.350 . S
C1254 C1251 1.437 1_655 S
C1254 C1252 1.413 . S
C1254 C1264 1.391 . S
C1255 C1250 1.431 . S
C1255 C1251 1.317 . S
C1255 H1266 0.930 . S
C1256 C1250 1.412 . S
C1256 C1257 1.355 . S
C1256 H1268 0.930 . S
C1257 C1256 1.355 . S
C1257 C1259 1.402 1_455 S
C1257 H1269 0.930 . S
N1258 Gd1249 2.661 . S
N1258 C1253 1.350 . S
N1258 C1259 1.307 . S
C1259 C1257 1.402 1_655 S
C1259 N1258 1.307 . S
C1259 H1260 0.930 . S
H1260 C1259 0.930 . S
C1261 N1262 1.334 . S
C1261 C1263 1.394 . S
C1261 H1265 0.930 . S
N1262 Gd1249 2.601 . S
N1262 C1252 1.359 . S
N1262 C1261 1.334 . S
C1263 C1261 1.394 . S
C1263 C1264 1.359 . S
C1263 H1275 0.930 1_545 S
C1264 C1254 1.391 . S
C1264 C1263 1.359 . S
C1264 H1276 0.929 . S
H1265 C1261 0.930 . S
H1266 C1255 0.930 . S
H1267 C1284 0.930 . S
H1268 C1256 0.930 . S
H1269 C1257 0.930 . S
H1270 C1251 0.929 . S
H1271 C1289 0.930 . S
H1272 C1280 0.930 . S
H1273 C1281 0.930 . S
H1274 C1305 0.929 . S
H1275 C1263 0.930 1_565 S
H1276 C1264 0.929 . S
H1277 C1306 0.930 . S
H1278 C1287 0.930 . S
N1279 Gd1248 2.661 . S
N1279 C1283 1.350 . S
N1279 C1284 1.307 . S
C1280 H1272 0.930 . S
C1280 C1281 1.355 . S
C1280 C1282 1.412 . S
C1281 H1273 0.930 . S
C1281 C1280 1.355 . S
C1281 C1284 1.402 . S
C1282 C1280 1.412 . S
C1282 C1283 1.417 . S
C1282 C1306 1.431 . S
C1283 N1279 1.350 . S
C1283 C1282 1.417 . S
C1283 C1286 1.426 . S
C1284 H1267 0.930 . S
C1284 N1279 1.307 . S
C1284 C1281 1.402 . S
N1285 Gd1248 2.601 . S
N1285 C1286 1.359 . S
N1285 C1289 1.334 . S
C1286 C1283 1.426 . S
C1286 N1285 1.359 . S
C1286 C1290 1.413 . S
C1287 H1278 0.930 . S
C1287 C1288 1.359 . S
C1287 C1289 1.394 . S
C1288 C1287 1.359 . S
C1288 C1290 1.391 . S
C1288 H1291 0.929 . S
C1289 H1271 0.930 . S
C1289 N1285 1.334 . S
C1289 C1287 1.394 . S
C1290 C1286 1.413 . S
C1290 C1288 1.391 . S
C1290 C1305 1.437 . S
H1291 C1288 0.929 . S
O1292 Gd1248 2.545 . S
O1292 C1307 1.258 . S
O1293 Gd1248 2.606 . S
O1293 Gd1249 2.362 . S
O1293 C1304 1.284 . S
O1294 Gd1249 2.324 . S
O1294 C1314 1.254 . S
O1295 Gd1248 2.429 . S
O1295 C1314 1.268 . S
O1296 Gd1248 2.545 . S
O1296 C1304 1.250 . S
O1297 Gd1248 2.412 . S
O1297 C1307 1.252 . S
O1298 Gd1249 2.545 . S
O1298 C1316 1.258 . S
O1299 Gd1248 2.362 . S
O1299 Gd1249 2.606 . S
O1299 C1315 1.284 . S
O1300 Gd1248 2.324 . S
O1300 C1323 1.254 . S
O1301 Gd1249 2.429 . S
O1301 C1323 1.268 . S
O1302 Gd1249 2.545 . S
O1302 C1315 1.250 . S
O1303 Gd1249 2.412 . S
O1303 C1316 1.252 . S
C1304 O1293 1.284 . S
C1304 O1296 1.250 . S
C1305 H1274 0.929 . S
C1305 C1290 1.437 . S
C1305 C1306 1.317 . S
C1306 H1277 0.930 . S
C1306 C1282 1.431 . S
C1306 C1305 1.317 . S
C1307 Gd1248 2.828 . S
C1307 O1292 1.258 . S
C1307 O1297 1.252 . S
C1307 C1308 1.497 . S
C1308 C1307 1.497 . S
C1308 C1309 1.395 . S
C1308 C1310 1.380 . S
C1309 C1308 1.395 . S
C1309 C1312 1.398 . S
C1309 H1324 0.930 . S
C1310 C1308 1.380 . S
C1310 C1311 1.391 . S
C1310 H1325 0.930 . S
C1311 C1310 1.391 . S
C1311 C1313 1.387 . S
C1312 C1309 1.398 . S
C1312 C1313 1.380 . S
C1312 H1326 0.930 . S
C1313 C1311 1.387 . S
C1313 C1312 1.380 . S
C1313 H1327 0.930 . S
C1314 O1294 1.254 . S
C1314 O1295 1.268 . S
C1315 O1299 1.284 . S
C1315 O1302 1.250 . S
C1316 Gd1249 2.828 . S
C1316 O1298 1.258 . S
C1316 O1303 1.252 . S
C1316 C1317 1.497 . S
C1317 C1316 1.497 . S
C1317 C1318 1.395 . S
C1317 C1319 1.380 . S
C1318 C1317 1.395 . S
C1318 C1321 1.398 . S
C1318 H1328 0.930 . S
C1319 C1317 1.380 . S
C1319 C1320 1.391 . S
C1319 H1329 0.930 . S
C1320 C1319 1.391 . S
C1320 C1322 1.387 . S
C1321 C1318 1.398 . S
C1321 C1322 1.380 . S
C1321 H1330 0.930 . S
C1322 C1320 1.387 . S
C1322 C1321 1.380 . S
C1322 H1331 0.930 . S
C1323 O1300 1.254 . S
C1323 O1301 1.268 . S
H1324 C1309 0.930 . S
H1325 C1310 0.930 . S
H1326 C1312 0.930 . S
H1327 C1313 0.930 . S
H1328 C1318 0.930 . S
H1329 C1319 0.930 . S
H1330 C1321 0.930 . S
H1331 C1322 0.930 . S
C439 C632 1.317 . S
C465 C716 1.628 . S
C401 C810 1.574 . S
C369 C726 1.464 . S
C800 C305 1.542 . S
C343 C642 1.230 . S
C643 C375 1.604 . S
C727 C311 1.609 . S
C337 C819 1.369 . S
C433 C735 1.318 . S
C471 C811 1.522 . S
C651 C407 1.518 . S
C884 C55 1.317 . S
C81 C968 1.628 . S
C17 C1062 1.574 . S
C561 C978 1.464 . S
C497 C1052 1.542 . S
C535 C894 1.231 . S
C567 C895 1.603 . S
C503 C979 1.609 . S
C1071 C529 1.369 . S
C49 C987 1.318 . S
C1063 C87 1.522 . S
C23 C903 1.518 . S
C1136 C247 1.317 . S
C273 C1220 1.629 . S
C1314 C209 1.575 . S
C1230 C177 1.465 . S
C1304 C113 1.541 . S
C151 C1146 1.230 . S
C183 C1147 1.604 . S
C119 C1231 1.609 . S
C1323 C145 1.369 . S
C241 C1239 1.318 . S
C279 C1315 1.523 . S
C215 C1155 1.519 . S
C509 C639 1.411 . S
C723 C541 1.491 . S
C573 C816 1.286 . S
C221 C732 1.268 . S
C253 C807 1.588 . S
C648 C285 1.398 . S
C125 C891 1.411 . S
C157 C975 1.492 . S
C189 C1068 1.285 . S
C413 C984 1.268 . S
C1059 C445 1.588 . S
C477 C900 1.398 . S
C317 C1143 1.411 . S
C349 C1227 1.492 . S
C1320 C381 1.286 . S
C29 C1236 1.268 . S
C61 C1311 1.588 . S
C93 C1152 1.399 . S
