# Generated by pormake.
# Topology llk, (3,12)-cn, num edge types: 1
# Building blocks:
#     Node 0, Type 0, BuildingBlock: KAKCAD_clean_linker_0, # of connection points: 3
#     Node 1, Type 0, BuildingBlock: KAKCAD_clean_linker_0, # of connection points: 3
#     Node 2, Type 0, BuildingBlock: KAKCAD_clean_linker_0, # of connection points: 3
#     Node 3, Type 0, BuildingBlock: KAKCAD_clean_linker_0, # of connection points: 3
#     Node 4, Type 0, BuildingBlock: KAKCAD_clean_linker_0, # of connection points: 3
#     Node 5, Type 0, BuildingBlock: KAKCAD_clean_linker_0, # of connection points: 3
#     Node 6, Type 0, BuildingBlock: KAKCAD_clean_linker_0, # of connection points: 3
#     Node 7, Type 0, BuildingBlock: KAKCAD_clean_linker_0, # of connection points: 3
#     Node 8, Type 0, BuildingBlock: KAKCAD_clean_linker_0, # of connection points: 3
#     Node 9, Type 0, BuildingBlock: KAKCAD_clean_linker_0, # of connection points: 3
#     Node 10, Type 0, BuildingBlock: KAKCAD_clean_linker_0, # of connection points: 3
#     Node 11, Type 0, BuildingBlock: KAKCAD_clean_linker_0, # of connection points: 3
#     Node 12, Type 0, BuildingBlock: KAKCAD_clean_linker_0, # of connection points: 3
#     Node 13, Type 0, BuildingBlock: KAKCAD_clean_linker_0, # of connection points: 3
#     Node 14, Type 0, BuildingBlock: KAKCAD_clean_linker_0, # of connection points: 3
#     Node 15, Type 0, BuildingBlock: KAKCAD_clean_linker_0, # of connection points: 3
#     Node 16, Type 0, BuildingBlock: KAKCAD_clean_linker_0, # of connection points: 3
#     Node 17, Type 0, BuildingBlock: KAKCAD_clean_linker_0, # of connection points: 3
#     Node 18, Type 0, BuildingBlock: KAKCAD_clean_linker_0, # of connection points: 3
#     Node 19, Type 0, BuildingBlock: KAKCAD_clean_linker_0, # of connection points: 3
#     Node 20, Type 0, BuildingBlock: KAKCAD_clean_linker_0, # of connection points: 3
#     Node 21, Type 0, BuildingBlock: KAKCAD_clean_linker_0, # of connection points: 3
#     Node 22, Type 0, BuildingBlock: KAKCAD_clean_linker_0, # of connection points: 3
#     Node 23, Type 0, BuildingBlock: KAKCAD_clean_linker_0, # of connection points: 3
#     Node 24, Type 1, BuildingBlock: EZIPEK_clean_sbu_0, # of connection points: 12
#     Node 25, Type 1, BuildingBlock: EZIPEK_clean_sbu_0, # of connection points: 12
#     Node 26, Type 1, BuildingBlock: EZIPEK_clean_sbu_0, # of connection points: 12
#     Node 27, Type 1, BuildingBlock: EZIPEK_clean_sbu_0, # of connection points: 12
#     Node 28, Type 1, BuildingBlock: EZIPEK_clean_sbu_0, # of connection points: 12
#     Node 29, Type 1, BuildingBlock: EZIPEK_clean_sbu_0, # of connection points: 12
#     Edge 30, Type (0, 1), None
#     Edge 31, Type (0, 1), None
#     Edge 32, Type (0, 1), None
#     Edge 33, Type (0, 1), None
#     Edge 34, Type (0, 1), None
#     Edge 35, Type (0, 1), None
#     Edge 36, Type (0, 1), None
#     Edge 37, Type (0, 1), None
#     Edge 38, Type (0, 1), None
#     Edge 39, Type (0, 1), None
#     Edge 40, Type (0, 1), None
#     Edge 41, Type (0, 1), None
#     Edge 42, Type (0, 1), None
#     Edge 43, Type (0, 1), None
#     Edge 44, Type (0, 1), None
#     Edge 45, Type (0, 1), None
#     Edge 46, Type (0, 1), None
#     Edge 47, Type (0, 1), None
#     Edge 48, Type (0, 1), None
#     Edge 49, Type (0, 1), None
#     Edge 50, Type (0, 1), None
#     Edge 51, Type (0, 1), None
#     Edge 52, Type (0, 1), None
#     Edge 53, Type (0, 1), None
#     Edge 54, Type (0, 1), None
#     Edge 55, Type (0, 1), None
#     Edge 56, Type (0, 1), None
#     Edge 57, Type (0, 1), None
#     Edge 58, Type (0, 1), None
#     Edge 59, Type (0, 1), None
#     Edge 60, Type (0, 1), None
#     Edge 61, Type (0, 1), None
#     Edge 62, Type (0, 1), None
#     Edge 63, Type (0, 1), None
#     Edge 64, Type (0, 1), None
#     Edge 65, Type (0, 1), None
#     Edge 66, Type (0, 1), None
#     Edge 67, Type (0, 1), None
#     Edge 68, Type (0, 1), None
#     Edge 69, Type (0, 1), None
#     Edge 70, Type (0, 1), None
#     Edge 71, Type (0, 1), None
#     Edge 72, Type (0, 1), None
#     Edge 73, Type (0, 1), None
#     Edge 74, Type (0, 1), None
#     Edge 75, Type (0, 1), None
#     Edge 76, Type (0, 1), None
#     Edge 77, Type (0, 1), None
#     Edge 78, Type (0, 1), None
#     Edge 79, Type (0, 1), None
#     Edge 80, Type (0, 1), None
#     Edge 81, Type (0, 1), None
#     Edge 82, Type (0, 1), None
#     Edge 83, Type (0, 1), None
#     Edge 84, Type (0, 1), None
#     Edge 85, Type (0, 1), None
#     Edge 86, Type (0, 1), None
#     Edge 87, Type (0, 1), None
#     Edge 88, Type (0, 1), None
#     Edge 89, Type (0, 1), None
#     Edge 90, Type (0, 1), None
#     Edge 91, Type (0, 1), None
#     Edge 92, Type (0, 1), None
#     Edge 93, Type (0, 1), None
#     Edge 94, Type (0, 1), None
#     Edge 95, Type (0, 1), None
#     Edge 96, Type (0, 1), None
#     Edge 97, Type (0, 1), None
#     Edge 98, Type (0, 1), None
#     Edge 99, Type (0, 1), None
#     Edge 100, Type (0, 1), None
#     Edge 101, Type (0, 1), None
# Relax obj value: 0.106
# Max RMSD: 0.160
# Mean RMSD: 0.134
data_MOF--net-llk--node1-EZIPEK_clean_sbu_0--node2-KAKCAD_clean_linker_0--edge1-none
_symmetry_space_group_name_H-M    P1
_symmetry_Int_Tables_number       1
_symmetry_cell_setting            triclinic
loop_
_symmetry_equiv_pos_as_xyz
'x, y, z'
_cell_length_a     32.587335
_cell_length_b     32.598323
_cell_length_c     32.59676
_cell_angle_alpha  90.002036
_cell_angle_beta   89.998861
_cell_angle_gamma 90.004189
loop_
_atom_site_label
_atom_site_type_symbol
_atom_site_fract_x
_atom_site_fract_y
_atom_site_fract_z
_atom_type_partial_charge
C0 C 0.04368 0.39631 0.34444 0.0
C1 C 0.046 0.38674 0.38619 0.0
C2 C 0.05931 0.36956 0.31546 0.0
C3 C 0.07713 0.33191 0.32739 0.0
C4 C 0.0847 0.32538 0.36945 0.0
C5 C 0.0686 0.35223 0.39866 0.0
C6 C 0.07518 0.29669 0.29826 0.0
C7 C 0.06949 0.30508 0.25663 0.0
C8 C 0.03651 0.28721 0.23577 0.0
C9 C 0.01695 0.25225 0.25322 0.0
C10 C 0.03081 0.23697 0.29171 0.0
C11 C 0.06057 0.25925 0.31328 0.0
C12 C 1.01195 0.20211 0.3147 0.0
C13 C 0.99218 0.21049 0.35228 0.0
C14 C 0.02523 0.16181 0.30725 0.0
C15 C 0.02121 0.13138 0.33763 0.0
C16 C 1.00461 0.14074 0.37655 0.0
C17 C 0.01917 0.31283 0.202 0.0
C18 C 0.99947 0.34999 0.21248 0.0
C19 C 0.03373 0.30824 0.16179 0.0
C20 C 0.02989 0.34037 0.13327 0.0
C21 C 1.01244 0.37851 0.14445 0.0
C22 C 0.9965 0.38254 0.18427 0.0
C23 C 0.98888 0.18037 0.3829 0.0
H24 H 0.02803 0.42362 0.33377 0.0
H25 H 0.05332 0.37723 0.28379 0.0
H26 H 0.10034 0.29807 0.38004 0.0
H27 H 0.07313 0.34547 0.43089 0.0
H28 H 0.08401 0.33205 0.24356 0.0
H29 H 0.06757 0.25001 0.34442 0.0
H30 H 0.99077 0.23843 0.23816 0.0
H31 H 0.98249 0.24149 0.35936 0.0
H32 H 0.04166 0.15464 0.27927 0.0
H33 H 0.03358 0.10116 0.33149 0.0
H34 H 0.98904 0.35495 0.24365 0.0
H35 H 0.05041 0.28082 0.15317 0.0
H36 H 0.97534 0.18862 0.41212 0.0
H37 H 0.98242 0.41106 0.19389 0.0
H38 H 0.04254 0.33592 0.10287 0.0
C39 C 0.67888 0.97503 0.39872 0.0
C40 C 0.63707 0.97288 0.38933 0.0
C41 C 0.70768 0.95911 0.37187 0.0
C42 C 0.69542 0.94111 0.33441 0.0
C43 C 0.6533 0.93339 0.32834 0.0
C44 C 0.62431 0.94988 0.35519 0.0
C45 C 0.72404 0.9433 0.29879 0.0
C46 C 0.76588 0.94856 0.30649 0.0
C47 C 0.78702 0.98096 0.28785 0.0
C48 C 0.76913 1.00076 0.2533 0.0
C49 C 0.72998 0.98775 0.23907 0.0
C50 C 0.70845 0.95826 0.26173 0.0
C51 C 0.70663 1.00716 0.20479 0.0
C52 C 0.66873 0.02615 0.21366 0.0
C53 C 0.71461 0.99563 0.16411 0.0
C54 C 0.6844 1.00041 0.13367 0.0
C55 C 0.64517 0.01615 0.14336 0.0
C56 C 0.82123 0.99827 0.31284 0.0
C57 C 0.81113 0.01785 0.35011 0.0
C58 C 0.86154 0.98414 0.30753 0.0
C59 C 0.89059 0.98832 0.3392 0.0
C60 C 0.87965 1.00542 0.37753 0.0
C61 C 0.8397 0.02081 0.38221 0.0
C62 C 0.63828 0.03025 0.18349 0.0
H63 H 0.68974 0.99096 0.42581 0.0
H64 H 0.73945 0.96511 0.37917 0.0
H65 H 0.6425 0.91757 0.30122 0.0
H66 H 0.59201 0.94546 0.34862 0.0
H67 H 0.77918 0.93412 0.33338 0.0
H68 H 0.67703 0.95172 0.25311 0.0
H69 H 0.78432 0.02667 0.23912 0.0
H70 H 0.66135 0.03464 0.24495 0.0
H71 H 0.74292 0.97996 0.1565 0.0
H72 H 0.69101 0.98936 0.10304 0.0
H73 H 0.77995 0.02802 0.35557 0.0
H74 H 0.86988 0.96763 0.27992 0.0
H75 H 0.60884 0.04312 0.192 0.0
H76 H 0.83017 0.03433 0.41099 0.0
H77 H 0.92114 0.97614 0.33437 0.0
C78 C 0.04371 0.68189 0.39641 0.0
C79 C 0.04604 0.64012 0.38693 0.0
C80 C 0.05929 0.7108 0.36956 0.0
C81 C 0.0771 0.69879 0.33192 0.0
C82 C 0.0847 0.65672 0.3255 0.0
C83 C 0.06863 0.62757 0.35244 0.0
C84 C 0.07511 0.72781 0.29662 0.0
C85 C 0.06942 0.76946 0.30491 0.0
C86 C 0.03643 0.79026 0.287 0.0
C87 C 0.01691 0.77275 0.25206 0.0
C88 C 0.03077 0.73422 0.23686 0.0
C89 C 0.06049 0.71269 0.25922 0.0
C90 C 1.01197 0.71121 0.20198 0.0
C91 C 0.99225 0.67359 0.21034 0.0
C92 C 0.02521 0.7187 0.16168 0.0
C93 C 0.0212 0.68835 0.13122 0.0
C94 C 1.00464 0.64941 0.14055 0.0
C95 C 0.01906 0.82405 0.31258 0.0
C96 C 0.99934 0.81358 0.34974 0.0
C97 C 0.03365 0.86423 0.30799 0.0
C98 C 0.02982 0.89276 0.34012 0.0
C99 C 1.01235 0.88159 0.37826 0.0
C100 C 0.99638 0.8418 0.38229 0.0
C101 C 0.98894 0.64301 0.1802 0.0
H102 H 0.02806 0.69261 0.42371 0.0
H103 H 0.05328 0.74249 0.37716 0.0
H104 H 0.10033 0.64607 0.2982 0.0
H105 H 0.07318 0.59533 0.34575 0.0
H106 H 0.08394 0.78259 0.33185 0.0
H107 H 0.06747 0.68153 0.25007 0.0
H108 H 0.99074 0.78779 0.23818 0.0
H109 H 0.98258 0.66648 0.24135 0.0
H110 H 0.0416 0.74672 0.15452 0.0
H111 H 0.03353 0.69454 0.10099 0.0
H112 H 0.98889 0.78242 0.3547 0.0
H113 H 0.05035 0.87284 0.28058 0.0
H114 H 0.97544 0.61377 0.18843 0.0
H115 H 0.98229 0.83219 0.41081 0.0
H116 H 0.0425 0.92315 0.33567 0.0
C117 C 0.39452 0.97964 0.34309 0.0
C118 C 0.385 0.9758 0.38476 0.0
C119 C 0.36824 0.96407 0.31361 0.0
C120 C 0.33122 0.94466 0.325 0.0
C121 C 0.32499 0.93561 0.36681 0.0
C122 C 0.35121 0.95185 0.3965 0.0
C123 C 0.29583 0.94655 0.29609 0.0
C124 C 0.30381 0.95338 0.25457 0.0
C125 C 0.28463 0.98602 0.23431 0.0
C126 C 0.24946 1.00449 0.25264 0.0
C127 C 0.23507 0.9897 0.2912 0.0
C128 C 0.25818 0.95988 0.31174 0.0
C129 C 0.20033 1.00749 0.31536 0.0
C130 C 0.20905 0.02575 0.35367 0.0
C131 C 0.15994 0.99453 0.30782 0.0
C132 C 0.12974 0.99755 0.3386 0.0
C133 C 0.13942 1.01272 0.37805 0.0
C134 C 0.30919 1.00417 0.2001 0.0
C135 C 0.34608 0.02463 0.21007 0.0
C136 C 0.30449 0.98944 0.15993 0.0
C137 C 0.33633 0.99367 0.13105 0.0
C138 C 0.37434 1.01162 0.14188 0.0
C139 C 0.37835 0.02793 0.18157 0.0
C140 C 0.17919 0.02796 0.38468 0.0
H141 H 0.42132 0.99649 0.33292 0.0
H142 H 0.37558 0.97134 0.28211 0.0
H143 H 0.29819 0.9188 0.37692 0.0
H144 H 0.34448 0.94641 0.42854 0.0
H145 H 0.33113 0.93993 0.24107 0.0
H146 H 0.2494 0.95192 0.34276 0.0
H147 H 0.2348 0.03057 0.23821 0.0
H148 H 0.24013 0.03518 0.36082 0.0
H149 H 0.15245 0.97923 0.27929 0.0
H150 H 0.09934 0.98575 0.33217 0.0
H151 H 0.3512 0.03521 0.24117 0.0
H152 H 0.2773 0.9722 0.15164 0.0
H153 H 0.18763 0.04056 0.41426 0.0
H154 H 0.40676 0.04238 0.19095 0.0
H155 H 0.33191 0.98074 0.10076 0.0
C156 C 0.04443 0.62985 0.68211 0.0
C157 C 0.04647 0.6394 0.64035 0.0
C158 C 0.0601 0.65671 0.71098 0.0
C159 C 0.07766 0.69445 0.69891 0.0
C160 C 0.08508 0.7009 0.6568 0.0
C161 C 0.06892 0.67394 0.62771 0.0
C162 C 0.07551 0.72978 0.72791 0.0
C163 C 0.06967 0.72151 0.76953 0.0
C164 C 0.03644 0.73921 0.79014 0.0
C165 C 0.01682 0.77404 0.7725 0.0
C166 C 0.03085 0.78933 0.73407 0.0
C167 C 0.06083 0.76713 0.71271 0.0
C168 C 1.01201 0.82411 0.71094 0.0
C169 C 0.99251 0.81565 0.67323 0.0
C170 C 0.025 0.86447 0.7185 0.0
C171 C 0.02097 0.89492 0.68813 0.0
C172 C 1.00463 0.88551 0.64912 0.0
C173 C 0.01901 0.71353 0.82381 0.0
C174 C 0.99952 0.67628 0.81323 0.0
C175 C 0.03334 0.71817 0.86409 0.0
C176 C 0.02951 0.68602 0.89258 0.0
C177 C 1.01227 0.6478 0.88132 0.0
C178 C 0.99654 0.64371 0.84143 0.0
C179 C 0.98918 0.84578 0.64263 0.0
H180 H 0.02894 0.60249 0.6929 0.0
H181 H 0.0543 0.64905 0.74269 0.0
H182 H 0.10059 0.72823 0.64608 0.0
H183 H 0.07329 0.68068 0.59546 0.0
H184 H 0.08428 0.69468 0.78278 0.0
H185 H 0.06798 0.77635 0.68161 0.0
H186 H 0.99047 0.78776 0.78737 0.0
H187 H 0.98305 0.78459 0.66606 0.0
H188 H 0.04121 0.87172 0.74659 0.0
H189 H 0.03311 0.92521 0.69439 0.0
H190 H 0.98927 0.67128 0.78201 0.0
H191 H 0.04987 0.74566 0.8728 0.0
H192 H 0.97586 0.83748 0.61334 0.0
H193 H 0.98264 0.61513 0.83174 0.0
H194 H 0.042 0.69053 0.92304 0.0
C195 C 0.39451 0.0473 0.68339 0.0
C196 C 0.38496 0.05074 0.64169 0.0
C197 C 0.36818 0.06303 0.71274 0.0
C198 C 0.33107 0.0822 0.70119 0.0
C199 C 0.32488 0.09097 0.65931 0.0
C200 C 0.35114 0.07456 0.62976 0.0
C201 C 0.2956 0.08026 0.73002 0.0
C202 C 0.30351 0.07331 0.77155 0.0
C203 C 0.28451 0.04043 0.79158 0.0
C204 C 0.24947 0.02186 0.7731 0.0
C205 C 0.23503 0.03682 0.73464 0.0
C206 C 0.258 0.06687 0.71429 0.0
C207 C 0.20038 0.01899 0.71036 0.0
C208 C 0.20919 1.00096 0.67196 0.0
C209 C 0.15991 0.03169 0.71796 0.0
C210 C 0.12973 0.02862 0.68718 0.0
C211 C 0.13947 0.01368 0.64767 0.0
C212 C 0.30917 0.0222 0.82568 0.0
C213 C 0.34612 1.00192 0.81557 0.0
C214 C 0.30445 0.03673 0.86592 0.0
C215 C 0.33633 0.03248 0.89474 0.0
C216 C 0.37439 0.01471 0.88381 0.0
C217 C 0.37842 0.99859 0.84404 0.0
C218 C 0.17933 0.9987 0.64095 0.0
H219 H 0.42135 0.0306 0.6937 0.0
H220 H 0.37556 0.05606 0.74429 0.0
H221 H 0.29807 0.10766 0.64904 0.0
H222 H 0.34441 0.07973 0.59768 0.0
H223 H 0.33071 0.08687 0.78517 0.0
H224 H 0.24919 0.07498 0.68331 0.0
H225 H 0.23495 0.99561 0.78736 0.0
H226 H 0.24032 0.99174 0.66476 0.0
H227 H 0.15234 0.0468 0.74657 0.0
H228 H 0.09927 0.04023 0.69367 0.0
H229 H 0.35125 0.9915 0.78442 0.0
H230 H 0.27722 0.05383 0.87431 0.0
H231 H 0.18784 0.98627 0.61132 0.0
H232 H 0.40688 0.98429 0.83456 0.0
H233 H 0.33189 0.04526 0.92509 0.0
C234 C 0.04441 0.34423 0.62993 0.0
C235 C 0.04644 0.38598 0.63958 0.0
C236 C 0.06012 0.31531 0.65669 0.0
C237 C 0.0777 0.32729 0.69445 0.0
C238 C 0.08509 0.36938 0.70101 0.0
C239 C 0.06891 0.39853 0.67415 0.0
C240 C 0.07558 0.29819 0.7297 0.0
C241 C 0.06974 0.25658 0.72132 0.0
C242 C 0.03653 0.23591 0.73899 0.0
C243 C 0.01689 0.25347 0.77384 0.0
C244 C 0.03091 0.29187 0.78922 0.0
C245 C 0.0609 0.31327 0.7671 0.0
C246 C 1.01201 0.31495 0.82401 0.0
C247 C 0.99241 0.3526 0.81553 0.0
C248 C 0.02509 0.30747 0.86436 0.0
C249 C 0.02105 0.33787 0.89478 0.0
C250 C 1.00461 0.37684 0.88534 0.0
C251 C 0.01913 0.20225 0.71326 0.0
C252 C 0.99967 0.21284 0.676 0.0
C253 C 0.03343 0.16197 0.71792 0.0
C254 C 0.02959 0.13347 0.68577 0.0
C255 C 1.01238 0.14474 0.64754 0.0
C256 C 0.99668 0.18464 0.64344 0.0
C257 C 0.98907 0.38323 0.84563 0.0
H258 H 0.02892 0.33351 0.60254 0.0
H259 H 0.05434 0.28362 0.64894 0.0
H260 H 0.10061 0.38003 0.72837 0.0
H261 H 0.07326 0.43077 0.68096 0.0
H262 H 0.08435 0.24341 0.69445 0.0
H263 H 0.06805 0.34435 0.7764 0.0
H264 H 0.99054 0.23856 0.78753 0.0
H265 H 0.98289 0.3597 0.78448 0.0
H266 H 0.04139 0.27944 0.87161 0.0
H267 H 0.03326 0.33169 0.92505 0.0
H268 H 0.98945 0.24407 0.671 0.0
H269 H 0.04994 0.15325 0.74542 0.0
H270 H 0.97567 0.41249 0.83732 0.0
H271 H 0.9828 0.19434 0.61485 0.0
H272 H 0.04206 0.10301 0.69028 0.0
C273 C 0.67885 0.0515 0.62769 0.0
C274 C 0.63705 0.05338 0.63727 0.0
C275 C 0.70767 0.06759 0.65441 0.0
C276 C 0.69547 0.08547 0.69195 0.0
C277 C 0.65334 0.09297 0.69819 0.0
C278 C 0.62431 0.07632 0.67146 0.0
C279 C 0.72423 0.08331 0.72747 0.0
C280 C 0.76604 0.07799 0.71963 0.0
C281 C 0.78717 0.04548 0.73809 0.0
C282 C 0.76933 0.02561 0.77263 0.0
C283 C 0.73027 0.03869 0.78705 0.0
C284 C 0.70877 0.06834 0.76459 0.0
C285 C 0.70694 0.01917 0.82127 0.0
C286 C 0.66906 1.00016 0.81233 0.0
C287 C 0.71484 0.03071 0.86197 0.0
C288 C 0.68457 0.0259 0.89236 0.0
C289 C 0.64537 1.01014 0.88259 0.0
C290 C 0.82129 0.02819 0.71298 0.0
C291 C 0.8111 1.00877 0.67565 0.0
C292 C 0.86166 0.04214 0.71833 0.0
C293 C 0.89069 0.03793 0.68665 0.0
C294 C 0.87968 0.02098 0.64827 0.0
C295 C 0.83966 1.00577 0.64354 0.0
C296 C 0.63857 0.99603 0.84245 0.0
H297 H 0.68968 0.03566 0.60055 0.0
H298 H 0.73944 0.0618 0.64695 0.0
H299 H 0.64256 0.10874 0.72535 0.0
H300 H 0.59203 0.08056 0.67817 0.0
H301 H 0.7793 0.09249 0.69274 0.0
H302 H 0.67742 0.07497 0.77337 0.0
H303 H 0.78448 0.99959 0.78666 0.0
H304 H 0.66175 0.99169 0.78102 0.0
H305 H 0.74311 0.04641 0.86963 0.0
H306 H 0.69112 0.03696 0.92299 0.0
H307 H 0.77988 0.99874 0.67017 0.0
H308 H 0.87007 0.05852 0.74599 0.0
H309 H 0.60915 0.98314 0.83387 0.0
H310 H 0.83008 0.99236 0.61473 0.0
H311 H 0.92129 0.04997 0.69152 0.0
C312 C 0.3945 0.34283 0.04715 0.0
C313 C 0.38496 0.38452 0.05078 0.0
C314 C 0.36814 0.31342 0.0627 0.0
C315 C 0.33101 0.32489 0.08188 0.0
C316 C 0.3248 0.36672 0.09082 0.0
C317 C 0.35109 0.39634 0.07458 0.0
C318 C 0.29557 0.29604 0.07981 0.0
C319 C 0.30351 0.25452 0.07285 0.0
C320 C 0.28449 0.23446 0.03999 0.0
C321 C 0.24944 0.25292 0.02143 0.0
C322 C 0.235 0.2914 0.03637 0.0
C323 C 0.25798 0.31177 0.0664 0.0
C324 C 0.20033 0.31566 0.01856 0.0
C325 C 0.20913 0.35404 1.0005 0.0
C326 C 0.15988 0.30808 0.03132 0.0
C327 C 0.1297 0.33887 0.02829 0.0
C328 C 0.13944 0.37837 0.01331 0.0
C329 C 0.30914 0.20035 0.02178 0.0
C330 C 0.34611 0.21043 1.00151 0.0
C331 C 0.3044 0.16011 0.03631 0.0
C332 C 0.33628 0.13128 0.03209 0.0
C333 C 0.37435 0.14219 0.01433 0.0
C334 C 0.3784 0.18195 0.99821 0.0
C335 C 0.17928 0.38506 0.99827 0.0
H336 H 0.42137 0.3326 0.03045 0.0
H337 H 0.37552 0.2819 0.05558 0.0
H338 H 0.29795 0.37691 0.1075 0.0
H339 H 0.34435 0.4284 0.07988 0.0
H340 H 0.33072 0.24092 0.08639 0.0
H341 H 0.24918 0.34276 0.07449 0.0
H342 H 0.23489 0.23864 0.99521 0.0
H343 H 0.24025 0.36123 0.99122 0.0
H344 H 0.15232 0.27948 0.04646 0.0
H345 H 0.09925 0.33239 0.03994 0.0
H346 H 0.35126 0.24157 0.99109 0.0
H347 H 0.27716 0.15174 0.05341 0.0
H348 H 0.18778 0.41468 0.98582 0.0
H349 H 0.40687 0.19142 0.98392 0.0
H350 H 0.33181 0.10093 0.04488 0.0
C351 C 0.3945 0.68313 0.97961 0.0
C352 C 0.385 0.64145 0.9759 0.0
C353 C 0.36825 0.71254 0.96387 0.0
C354 C 0.33127 0.70106 0.94442 0.0
C355 C 0.32508 0.65922 0.93549 0.0
C356 C 0.35128 0.62961 0.9519 0.0
C357 C 0.29585 0.72996 0.94615 0.0
C358 C 0.3038 0.77149 0.95295 0.0
C359 C 0.28461 0.79175 0.98559 0.0
C360 C 0.24945 0.7734 1.00406 0.0
C361 C 0.23507 0.73484 0.98926 0.0
C362 C 0.25819 0.71431 0.95945 0.0
C363 C 0.20033 0.71067 1.00705 0.0
C364 C 0.20907 0.67236 0.02531 0.0
C365 C 0.15993 0.7182 0.99412 0.0
C366 C 0.12974 0.68743 0.99717 0.0
C367 C 0.13942 0.64798 1.01234 0.0
C368 C 0.30916 0.82595 1.00375 0.0
C369 C 0.34601 0.81597 0.02427 0.0
C370 C 0.30451 0.86611 0.98898 0.0
C371 C 0.33637 0.89497 0.99322 0.0
C372 C 0.37434 0.88414 1.01124 0.0
C373 C 0.37829 0.84446 0.0276 0.0
C374 C 0.17921 0.64135 0.02756 0.0
H375 H 0.42126 0.69337 0.99648 0.0
H376 H 0.37557 0.74406 0.97103 0.0
H377 H 0.29834 0.64904 0.91865 0.0
H378 H 0.34458 0.59755 0.94655 0.0
H379 H 0.33112 0.78499 0.93951 0.0
H380 H 0.24942 0.68328 0.95148 0.0
H381 H 0.23478 0.78782 0.03014 0.0
H382 H 0.24015 0.66522 0.03473 0.0
H383 H 0.15243 0.74673 0.97883 0.0
H384 H 0.09933 0.69385 0.98539 0.0
H385 H 0.3511 0.78489 0.0349 0.0
H386 H 0.27736 0.8744 0.97169 0.0
H387 H 0.18765 0.61178 0.04015 0.0
H388 H 0.40668 0.83508 0.0421 0.0
H389 H 0.33199 0.92525 0.98026 0.0
C390 C 0.67892 0.39855 0.0515 0.0
C391 C 0.63712 0.38904 0.05354 0.0
C392 C 0.70775 0.37176 0.06742 0.0
C393 C 0.69556 0.33422 0.0853 0.0
C394 C 0.65345 0.32803 0.09294 0.0
C395 C 0.62441 0.35484 0.07646 0.0
C396 C 0.72427 0.29867 0.08302 0.0
C397 C 0.76608 0.30646 0.07769 0.0
C398 C 0.78719 0.28796 0.04518 0.0
C399 C 0.76931 0.25344 0.02532 0.0
C400 C 0.73023 0.23908 0.03839 0.0
C401 C 0.70874 0.26159 0.06801 0.0
C402 C 0.70687 0.20485 0.0189 0.0
C403 C 0.66898 0.21378 0.99992 0.0
C404 C 0.71479 0.16416 0.03042 0.0
C405 C 0.68454 0.13376 0.02563 0.0
C406 C 0.64532 0.14351 1.0099 0.0
C407 C 0.82133 0.31304 0.02788 0.0
C408 C 0.81115 0.35037 1.00846 0.0
C409 C 0.86169 0.3077 0.04184 0.0
C410 C 0.89073 0.33938 0.03765 0.0
C411 C 0.87973 0.37776 0.02071 0.0
C412 C 0.83971 0.38249 1.00549 0.0
C413 C 0.63849 0.18365 0.9958 0.0
H414 H 0.68973 0.4257 0.03565 0.0
H415 H 0.73952 0.37916 0.06149 0.0
H416 H 0.64269 0.30085 0.1087 0.0
H417 H 0.59212 0.34817 0.08081 0.0
H418 H 0.77937 0.33334 0.09218 0.0
H419 H 0.67736 0.25287 0.07461 0.0
H420 H 0.78446 0.23937 0.99932 0.0
H421 H 0.66165 0.24508 0.99145 0.0
H422 H 0.74309 0.15651 0.0461 0.0
H423 H 0.6911 0.10312 0.03668 0.0
H424 H 0.77993 0.35586 0.99842 0.0
H425 H 0.8701 0.28004 0.05823 0.0
H426 H 0.60906 0.19221 0.98294 0.0
H427 H 0.83013 0.4113 0.99209 0.0
H428 H 0.92132 0.33452 0.0497 0.0
C429 C 0.67883 0.62753 0.97511 0.0
C430 C 0.63702 0.63699 0.9731 0.0
C431 C 0.70762 0.6543 0.95904 0.0
C432 C 0.69536 0.69175 0.94102 0.0
C433 C 0.65322 0.69787 0.93344 0.0
C434 C 0.62424 0.6711 0.95008 0.0
C435 C 0.72404 0.72734 0.94308 0.0
C436 C 0.76587 0.71959 0.94832 0.0
C437 C 0.78705 0.73821 0.98072 0.0
C438 C 0.76921 0.77278 1.00051 0.0
C439 C 0.73008 0.78708 0.98749 0.0
C440 C 0.70853 0.76445 0.958 0.0
C441 C 0.70676 0.82136 1.00692 0.0
C442 C 0.66889 0.81249 0.02598 0.0
C443 C 0.71469 0.86203 0.99532 0.0
C444 C 0.68446 0.89246 1.00011 0.0
C445 C 0.64526 0.88275 0.01592 0.0
C446 C 0.82124 0.7132 0.998 0.0
C447 C 0.81114 0.67594 0.01759 0.0
C448 C 0.86155 0.71849 0.98386 0.0
C449 C 0.8906 0.68681 0.98804 0.0
C450 C 0.87965 0.6485 1.00516 0.0
C451 C 0.8397 0.64383 0.02056 0.0
C452 C 0.63843 0.84264 0.03009 0.0
H453 H 0.6897 0.60046 0.99104 0.0
H454 H 0.7394 0.64695 0.96493 0.0
H455 H 0.64241 0.72498 0.9176 0.0
H456 H 0.59194 0.67771 0.94575 0.0
H457 H 0.77913 0.69267 0.93388 0.0
H458 H 0.67713 0.77312 0.95145 0.0
H459 H 0.78441 0.78694 0.02643 0.0
H460 H 0.66155 0.7812 0.03452 0.0
H461 H 0.74297 0.86964 0.97959 0.0
H462 H 0.69103 0.92307 0.989 0.0
H463 H 0.77995 0.67049 0.02778 0.0
H464 H 0.8699 0.74608 0.96734 0.0
H465 H 0.60901 0.83412 0.04302 0.0
H466 H 0.83017 0.61506 0.03412 0.0
H467 H 0.92114 0.69163 0.97585 0.0
C468 C 0.54423 0.8963 0.84419 0.0
C469 C 0.54626 0.88678 0.88596 0.0
C470 C 0.56 0.86948 0.81535 0.0
C471 C 0.57765 0.8318 0.82744 0.0
C472 C 0.58502 0.82536 0.86955 0.0
C473 C 0.56877 0.85228 0.89862 0.0
C474 C 0.57566 0.79647 0.79842 0.0
C475 C 0.56988 0.80474 0.75678 0.0
C476 C 0.53672 0.78698 0.73612 0.0
C477 C 0.51712 0.75212 0.75372 0.0
C478 C 0.53112 0.73685 0.79217 0.0
C479 C 0.56102 0.75909 0.81357 0.0
C480 C 0.51227 0.70205 0.81528 0.0
C481 C 0.49269 0.7105 0.85295 0.0
C482 C 0.52534 0.6617 0.80776 0.0
C483 C 0.5213 0.63126 0.83814 0.0
C484 C 0.50488 0.64067 0.87712 0.0
C485 C 0.5193 0.81264 0.70242 0.0
C486 C 0.49971 0.84984 0.71297 0.0
C487 C 0.53374 0.80805 0.66217 0.0
C488 C 0.52989 0.8402 0.63368 0.0
C489 C 0.51255 0.87838 0.64493 0.0
C490 C 0.49672 0.88241 0.68479 0.0
C491 C 0.48936 0.68037 0.88356 0.0
H492 H 0.52869 0.92363 0.83339 0.0
H493 H 0.55422 0.87713 0.78363 0.0
H494 H 0.60058 0.79807 0.88029 0.0
H495 H 0.57312 0.84557 0.93088 0.0
H496 H 0.58446 0.83161 0.74358 0.0
H497 H 0.56814 0.74987 0.84469 0.0
H498 H 0.49081 0.73836 0.73881 0.0
H499 H 0.48317 0.74154 0.86008 0.0
H500 H 0.54161 0.65446 0.7797 0.0
H501 H 0.5335 0.60099 0.83192 0.0
H502 H 0.48938 0.8548 0.74418 0.0
H503 H 0.55034 0.7806 0.65348 0.0
H504 H 0.47597 0.68867 0.91283 0.0
H505 H 0.48274 0.91096 0.69447 0.0
H506 H 0.54246 0.83574 0.60325 0.0
C507 C 0.17868 0.47495 0.89856 0.0
C508 C 0.1369 0.473 0.88895 0.0
C509 C 0.20755 0.45888 0.87188 0.0
C510 C 0.19541 0.44095 0.83435 0.0
C511 C 0.15329 0.43342 0.82806 0.0
C512 C 0.12422 0.45005 0.85475 0.0
C513 C 0.22424 0.44305 0.79887 0.0
C514 C 0.26604 0.44833 0.80678 0.0
C515 C 0.28726 0.48076 0.78827 0.0
C516 C 0.26951 0.5006 0.75368 0.0
C517 C 0.23044 0.48757 0.73924 0.0
C518 C 0.20885 0.458 0.76172 0.0
C519 C 0.20717 0.50708 0.70497 0.0
C520 C 0.16934 0.5262 0.71388 0.0
C521 C 0.21503 0.49542 0.66431 0.0
C522 C 0.18477 0.5002 0.63391 0.0
C523 C 0.1456 0.51606 0.64365 0.0
C524 C 0.32142 0.49801 0.81338 0.0
C525 C 0.31127 0.51743 0.85071 0.0
C526 C 0.36178 0.48405 0.808 0.0
C527 C 0.39084 0.48825 0.83966 0.0
C528 C 0.37986 0.50521 0.87804 0.0
C529 C 0.33985 0.52042 0.8828 0.0
C530 C 0.13884 0.5303 0.68375 0.0
H531 H 0.18948 0.49082 0.9257 0.0
H532 H 0.23931 0.46472 0.87937 0.0
H533 H 0.14256 0.41763 0.80089 0.0
H534 H 0.09194 0.44576 0.84802 0.0
H535 H 0.27923 0.43386 0.83372 0.0
H536 H 0.17749 0.45142 0.75291 0.0
H537 H 0.28473 0.52656 0.73962 0.0
H538 H 0.16204 0.53477 0.74516 0.0
H539 H 0.24327 0.47963 0.65668 0.0
H540 H 0.19129 0.48904 0.6033 0.0
H541 H 0.28005 0.52748 0.85622 0.0
H542 H 0.37017 0.46767 0.78033 0.0
H543 H 0.10945 0.54326 0.69229 0.0
H544 H 0.33029 0.53384 0.91162 0.0
H545 H 0.42143 0.4762 0.83477 0.0
C546 C 0.54448 0.18192 0.89633 0.0
C547 C 0.54638 0.14017 0.88665 0.0
C548 C 0.56032 0.21081 0.86961 0.0
C549 C 0.5779 0.19881 0.83186 0.0
C550 C 0.58517 0.1567 0.82528 0.0
C551 C 0.56886 0.12758 0.8521 0.0
C552 C 0.57589 0.22794 0.79662 0.0
C553 C 0.57006 0.26954 0.80502 0.0
C554 C 0.53685 0.29022 0.78736 0.0
C555 C 0.5172 0.27267 0.7525 0.0
C556 C 0.53123 0.23428 0.7371 0.0
C557 C 0.56124 0.21288 0.7592 0.0
C558 C 0.51231 0.2112 0.70233 0.0
C559 C 0.49273 0.17354 0.71081 0.0
C560 C 0.52536 0.21869 0.66197 0.0
C561 C 0.5213 0.1883 0.63155 0.0
C562 C 0.50487 0.14933 0.64099 0.0
C563 C 0.51946 0.32388 0.81309 0.0
C564 C 0.5 0.31329 0.85035 0.0
C565 C 0.53373 0.36417 0.80841 0.0
C566 C 0.52986 0.39268 0.84054 0.0
C567 C 0.51265 0.38141 0.87878 0.0
C568 C 0.49698 0.3415 0.8829 0.0
C569 C 0.48937 0.14292 0.6807 0.0
H570 H 0.52899 0.19267 0.92371 0.0
H571 H 0.55465 0.24252 0.87739 0.0
H572 H 0.6007 0.14602 0.79794 0.0
H573 H 0.57313 0.09533 0.84527 0.0
H574 H 0.58467 0.28271 0.83189 0.0
H575 H 0.5684 0.18182 0.74986 0.0
H576 H 0.49085 0.28758 0.73883 0.0
H577 H 0.48323 0.16643 0.74187 0.0
H578 H 0.54164 0.24674 0.65471 0.0
H579 H 0.53349 0.1945 0.60126 0.0
H580 H 0.48979 0.28205 0.85536 0.0
H581 H 0.55023 0.37289 0.78091 0.0
H582 H 0.47598 0.11366 0.68902 0.0
H583 H 0.4831 0.33181 0.91149 0.0
H584 H 0.54231 0.42315 0.83602 0.0
C585 C 0.89447 0.47861 0.84287 0.0
C586 C 0.88481 0.47532 0.88456 0.0
C587 C 0.8682 0.46279 0.8135 0.0
C588 C 0.83103 0.44371 0.82503 0.0
C589 C 0.82475 0.43506 0.86692 0.0
C590 C 0.85095 0.45155 0.89648 0.0
C591 C 0.79561 0.44568 0.79613 0.0
C592 C 0.80358 0.45271 0.75463 0.0
C593 C 0.7847 0.4857 0.73466 0.0
C594 C 0.7497 0.50432 0.75315 0.0
C595 C 0.73515 0.48928 0.79155 0.0
C596 C 0.75799 0.45908 0.81182 0.0
C597 C 0.70055 0.50716 0.81586 0.0
C598 C 0.70943 0.5251 0.85429 0.0
C599 C 0.66006 0.49455 0.80826 0.0
C600 C 0.62989 0.49762 0.83906 0.0
C601 C 0.63969 0.51249 0.8786 0.0
C602 C 0.80943 0.50395 0.70062 0.0
C603 C 0.84645 0.52408 0.71077 0.0
C604 C 0.80464 0.48958 0.66033 0.0
C605 C 0.83652 0.49385 0.63149 0.0
C606 C 0.87464 0.51149 0.64246 0.0
C607 C 0.87874 0.52744 0.68229 0.0
C608 C 0.67959 0.52738 0.88532 0.0
H609 H 0.92135 0.49523 0.83257 0.0
H610 H 0.87568 0.46964 0.78195 0.0
H611 H 0.79791 0.41841 0.87718 0.0
H612 H 0.84414 0.44648 0.92856 0.0
H613 H 0.83076 0.43912 0.741 0.0
H614 H 0.74909 0.45088 0.84275 0.0
H615 H 0.73527 0.53066 0.73896 0.0
H616 H 0.74058 0.53424 0.86149 0.0
H617 H 0.65245 0.4795 0.77963 0.0
H618 H 0.59941 0.48609 0.83257 0.0
H619 H 0.85163 0.53437 0.74196 0.0
H620 H 0.77735 0.47259 0.65189 0.0
H621 H 0.68813 0.53973 0.91496 0.0
H622 H 0.90724 0.54163 0.6918 0.0
H623 H 0.83202 0.48119 0.6011 0.0
C624 C 0.54362 0.12987 0.18176 0.0
C625 C 0.54589 0.13945 0.14001 0.0
C626 C 0.55933 0.15659 0.21072 0.0
C627 C 0.57719 0.19423 0.19878 0.0
C628 C 0.58471 0.20076 0.15671 0.0
C629 C 0.56852 0.17393 0.12751 0.0
C630 C 0.57533 0.22945 0.22791 0.0
C631 C 0.56968 0.22105 0.26954 0.0
C632 C 0.53673 0.23894 0.29045 0.0
C633 C 0.5172 0.27393 0.27303 0.0
C634 C 0.53105 0.28922 0.23453 0.0
C635 C 0.56075 0.26691 0.21292 0.0
C636 C 0.51221 0.32411 0.21157 0.0
C637 C 0.49237 0.31576 0.17401 0.0
C638 C 0.52556 0.36439 0.21899 0.0
C639 C 0.52153 0.39483 0.18862 0.0
C640 C 0.50485 0.38549 0.14973 0.0
C641 C 0.51941 0.21332 0.32423 0.0
C642 C 0.49968 0.17617 0.31376 0.0
C643 C 0.534 0.2179 0.36441 0.0
C644 C 0.53017 0.18577 0.39293 0.0
C645 C 0.51268 0.14764 0.38177 0.0
C646 C 0.4967 0.14362 0.34197 0.0
C647 C 0.48905 0.34588 0.1434 0.0
H648 H 0.52796 0.10256 0.19245 0.0
H649 H 0.55338 0.14892 0.2424 0.0
H650 H 0.60037 0.22805 0.1461 0.0
H651 H 0.57302 0.18069 0.09528 0.0
H652 H 0.58418 0.19407 0.28259 0.0
H653 H 0.56772 0.27615 0.18178 0.0
H654 H 0.49105 0.28778 0.28812 0.0
H655 H 0.48263 0.28476 0.16695 0.0
H656 H 0.54204 0.37154 0.24695 0.0
H657 H 0.53394 0.42504 0.19475 0.0
H658 H 0.48921 0.17123 0.2826 0.0
H659 H 0.55071 0.24531 0.37303 0.0
H660 H 0.47547 0.33765 0.11421 0.0
H661 H 0.4826 0.11511 0.33236 0.0
H662 H 0.54285 0.19021 0.42333 0.0
C663 C 0.89448 0.54683 0.18317 0.0
C664 C 0.88486 0.55052 0.1415 0.0
C665 C 0.86825 0.56248 0.21265 0.0
C666 C 0.83119 0.58182 0.20128 0.0
C667 C 0.82489 0.59076 0.15945 0.0
C668 C 0.85106 0.57444 0.12976 0.0
C669 C 0.79584 0.57994 0.23025 0.0
C670 C 0.80388 0.57305 0.27175 0.0
C671 C 0.78478 0.54034 0.29198 0.0
C672 C 0.74964 0.52182 0.27365 0.0
C673 C 0.73517 0.53667 0.23515 0.0
C674 C 0.75817 0.56659 0.21465 0.0
C675 C 0.70046 0.51882 0.21097 0.0
C676 C 0.70923 0.5006 0.17265 0.0
C677 C 0.66004 0.53172 0.21848 0.0
C678 C 0.62987 0.52867 0.18769 0.0
C679 C 0.6396 0.51355 0.14823 0.0
C680 C 0.80941 0.52218 0.32615 0.0
C681 C 0.84632 0.50181 0.31611 0.0
C682 C 0.80468 0.5368 0.36636 0.0
C683 C 0.83652 0.53254 0.39522 0.0
C684 C 0.87455 0.51466 0.38435 0.0
C685 C 0.87859 0.49847 0.34462 0.0
C686 C 0.6794 0.49836 0.14161 0.0
H687 H 0.9213 0.53002 0.19334 0.0
H688 H 0.87567 0.55533 0.24415 0.0
H689 H 0.79808 0.60754 0.14934 0.0
H690 H 0.84427 0.57978 0.09772 0.0
H691 H 0.83118 0.58653 0.28524 0.0
H692 H 0.74931 0.57462 0.18366 0.0
H693 H 0.73505 0.49568 0.28804 0.0
H694 H 0.74033 0.49122 0.16551 0.0
H695 H 0.65252 0.54699 0.24702 0.0
H696 H 0.59946 0.54043 0.1941 0.0
H697 H 0.85146 0.49131 0.28499 0.0
H698 H 0.77747 0.55397 0.37469 0.0
H699 H 0.68787 0.4858 0.11204 0.0
H700 H 0.90702 0.48409 0.3352 0.0
H701 H 0.83208 0.54538 0.42555 0.0
C702 C 0.5433 0.84437 0.12993 0.0
C703 C 0.54571 0.88614 0.13935 0.0
C704 C 0.55894 0.81547 0.15675 0.0
C705 C 0.57689 0.8275 0.19431 0.0
C706 C 0.5845 0.86957 0.20071 0.0
C707 C 0.56838 0.89871 0.17379 0.0
C708 C 0.57509 0.79847 0.22961 0.0
C709 C 0.56951 0.75681 0.22133 0.0
C710 C 0.53664 0.73589 0.23934 0.0
C711 C 0.51716 0.75334 0.27434 0.0
C712 C 0.53095 0.79191 0.2895 0.0
C713 C 0.56053 0.81355 0.26705 0.0
C714 C 0.51217 0.81488 0.32443 0.0
C715 C 0.4923 0.85242 0.31611 0.0
C716 C 0.52556 0.80746 0.36469 0.0
C717 C 0.52155 0.83782 0.39515 0.0
C718 C 0.50485 0.8767 0.38583 0.0
C719 C 0.51931 0.70205 0.21379 0.0
C720 C 0.49941 0.71247 0.17672 0.0
C721 C 0.53408 0.66192 0.21828 0.0
C722 C 0.53026 0.63342 0.18613 0.0
C723 C 0.51262 0.64455 0.14807 0.0
C724 C 0.49646 0.68429 0.14414 0.0
C725 C 0.489 0.88302 0.34624 0.0
H726 H 0.52757 0.83363 0.10268 0.0
H727 H 0.55289 0.78377 0.14921 0.0
H728 H 0.60021 0.88023 0.22796 0.0
H729 H 0.57297 0.93095 0.18043 0.0
H730 H 0.58398 0.74373 0.19434 0.0
H731 H 0.56744 0.84473 0.27618 0.0
H732 H 0.49107 0.73822 0.28829 0.0
H733 H 0.48251 0.85948 0.28513 0.0
H734 H 0.54206 0.7795 0.37182 0.0
H735 H 0.534 0.8317 0.42534 0.0
H736 H 0.48881 0.74359 0.17184 0.0
H737 H 0.55092 0.65335 0.24562 0.0
H738 H 0.47539 0.91221 0.33803 0.0
H739 H 0.48223 0.69386 0.11568 0.0
H740 H 0.54307 0.60307 0.19049 0.0
C741 C 0.17878 0.5508 0.12751 0.0
C742 C 0.13697 0.5531 0.13691 0.0
C743 C 0.20763 0.56666 0.15433 0.0
C744 C 0.19544 0.58479 0.19175 0.0
C745 C 0.15335 0.5926 0.19785 0.0
C746 C 0.12429 0.57617 0.17103 0.0
C747 C 0.22411 0.58267 0.22733 0.0
C748 C 0.26595 0.5775 0.21959 0.0
C749 C 0.28722 0.54525 0.23835 0.0
C750 C 0.26941 0.52551 0.27297 0.0
C751 C 0.23022 0.53842 0.28718 0.0
C752 C 0.20858 0.56775 0.26444 0.0
C753 C 0.20694 0.51902 0.32151 0.0
C754 C 0.16912 0.49986 0.31268 0.0
C755 C 0.21485 0.53075 0.36215 0.0
C756 C 0.18463 0.52598 0.39259 0.0
C757 C 0.14546 0.51007 0.38292 0.0
C758 C 0.32147 0.52798 0.21341 0.0
C759 C 0.31143 0.50828 0.1762 0.0
C760 C 0.36175 0.54222 0.2187 0.0
C761 C 0.39083 0.53803 0.18704 0.0
C762 C 0.37993 0.52081 0.14876 0.0
C763 C 0.34001 0.50531 0.1441 0.0
C764 C 0.13866 0.49577 0.34285 0.0
H765 H 0.18957 0.53479 0.10045 0.0
H766 H 0.23938 0.56053 0.14705 0.0
H767 H 0.14261 0.60848 0.22497 0.0
H768 H 0.09201 0.58068 0.1776 0.0
H769 H 0.27918 0.59187 0.19262 0.0
H770 H 0.17714 0.57421 0.27304 0.0
H771 H 0.2847 0.4997 0.28724 0.0
H772 H 0.1618 0.49122 0.28143 0.0
H773 H 0.2431 0.54656 0.36972 0.0
H774 H 0.19117 0.53718 0.42318 0.0
H775 H 0.28028 0.49801 0.17075 0.0
H776 H 0.37005 0.55882 0.24626 0.0
H777 H 0.10927 0.48276 0.33437 0.0
H778 H 0.33052 0.4917 0.11536 0.0
H779 H 0.42135 0.55029 0.19184 0.0
C780 C 0.89448 0.84305 0.54693 0.0
C781 C 0.88487 0.88472 0.5505 0.0
C782 C 0.86827 0.81362 0.56273 0.0
C783 C 0.83123 0.82506 0.58208 0.0
C784 C 0.82497 0.86691 0.59091 0.0
C785 C 0.85111 0.89655 0.57445 0.0
C786 C 0.79585 0.79612 0.5803 0.0
C787 C 0.80385 0.7546 0.57342 0.0
C788 C 0.78477 0.73441 0.54068 0.0
C789 C 0.74964 0.75277 0.52216 0.0
C790 C 0.73517 0.79126 0.53705 0.0
C791 C 0.75817 0.81172 0.56699 0.0
C792 C 0.70047 0.81545 0.51922 0.0
C793 C 0.70925 0.85378 0.50102 0.0
C794 C 0.66004 0.80794 0.5321 0.0
C795 C 0.62987 0.83873 0.52904 0.0
C796 C 0.6396 0.87818 0.51393 0.0
C797 C 0.8094 0.70026 0.52251 0.0
C798 C 0.84631 0.7103 0.50213 0.0
C799 C 0.8047 0.66005 0.53713 0.0
C800 C 0.83656 0.6312 0.53288 0.0
C801 C 0.87458 0.64208 0.515 0.0
C802 C 0.8786 0.68182 0.4988 0.0
C803 C 0.67941 0.88481 0.49877 0.0
H804 H 0.92128 0.83282 0.53012 0.0
H805 H 0.87569 0.7821 0.55568 0.0
H806 H 0.79819 0.87709 0.60771 0.0
H807 H 0.84435 0.9286 0.57972 0.0
H808 H 0.83115 0.7411 0.5869 0.0
H809 H 0.74932 0.84271 0.57504 0.0
H810 H 0.73506 0.7384 0.49601 0.0
H811 H 0.74035 0.86092 0.49166 0.0
H812 H 0.6525 0.77939 0.54735 0.0
H813 H 0.59945 0.83231 0.54078 0.0
H814 H 0.85144 0.74142 0.49162 0.0
H815 H 0.77749 0.65171 0.55431 0.0
H816 H 0.68789 0.91439 0.48622 0.0
H817 H 0.90703 0.69125 0.48441 0.0
H818 H 0.83213 0.60088 0.54573 0.0
C819 C 0.89448 0.18333 0.47878 0.0
C820 C 0.88482 0.14165 0.47534 0.0
C821 C 0.8682 0.21275 0.46311 0.0
C822 C 0.83102 0.2013 0.44402 0.0
C823 C 0.82471 0.15944 0.43524 0.0
C824 C 0.85093 0.12982 0.45158 0.0
C825 C 0.79563 0.23022 0.44609 0.0
C826 C 0.80364 0.27171 0.45313 0.0
C827 C 0.78474 0.29172 0.48609 0.0
C828 C 0.74972 0.27325 0.5047 0.0
C829 C 0.73517 0.23484 0.48969 0.0
C830 C 0.75802 0.21454 0.45952 0.0
C831 C 0.70056 0.21056 0.50757 0.0
C832 C 0.70941 0.17214 0.52554 0.0
C833 C 0.66008 0.21814 0.49492 0.0
C834 C 0.62991 0.18734 0.49798 0.0
C835 C 0.63969 0.14781 0.51287 0.0
C836 C 0.80946 0.32578 0.50431 0.0
C837 C 0.84649 0.31566 0.52444 0.0
C838 C 0.80464 0.36607 0.48995 0.0
C839 C 0.8365 0.39492 0.49421 0.0
C840 C 0.87462 0.38398 0.51183 0.0
C841 C 0.87876 0.34416 0.52778 0.0
C842 C 0.67957 0.14111 0.5278 0.0
H843 H 0.92139 0.19356 0.49542 0.0
H844 H 0.87569 0.24427 0.47008 0.0
H845 H 0.79784 0.14925 0.41859 0.0
H846 H 0.8441 0.09776 0.44641 0.0
H847 H 0.83083 0.28532 0.43955 0.0
H848 H 0.74911 0.1836 0.45134 0.0
H849 H 0.73527 0.28747 0.53101 0.0
H850 H 0.74055 0.16495 0.53472 0.0
H851 H 0.65247 0.24676 0.47984 0.0
H852 H 0.59944 0.19383 0.48641 0.0
H853 H 0.85169 0.28448 0.53472 0.0
H854 H 0.77734 0.37448 0.47297 0.0
H855 H 0.6881 0.11147 0.54018 0.0
H856 H 0.90727 0.33467 0.54197 0.0
H857 H 0.83197 0.42531 0.48156 0.0
C858 C 0.17868 0.89862 0.55068 0.0
C859 C 0.13687 0.88918 0.55286 0.0
C860 C 0.20752 0.87189 0.56671 0.0
C861 C 0.19532 0.8345 0.58487 0.0
C862 C 0.15321 0.82835 0.59255 0.0
C863 C 0.12416 0.85509 0.57596 0.0
C864 C 0.22406 0.79897 0.58293 0.0
C865 C 0.26589 0.80676 0.5778 0.0
C866 C 0.28723 0.78802 0.54557 0.0
C867 C 0.26948 0.75337 0.52583 0.0
C868 C 0.2303 0.7391 0.53873 0.0
C869 C 0.20862 0.7618 0.56806 0.0
C870 C 0.20707 0.70476 0.5193 0.0
C871 C 0.16928 0.71359 0.50007 0.0
C872 C 0.21492 0.66414 0.5311 0.0
C873 C 0.18468 0.63372 0.52632 0.0
C874 C 0.14555 0.64339 0.51034 0.0
C875 C 0.32148 0.81298 0.52833 0.0
C876 C 0.31145 0.85018 0.5086 0.0
C877 C 0.36175 0.80773 0.54262 0.0
C878 C 0.39082 0.83939 0.53842 0.0
C879 C 0.37992 0.87765 0.52116 0.0
C880 C 0.34002 0.88228 0.50563 0.0
C881 C 0.1388 0.68344 0.49598 0.0
H882 H 0.1895 0.92567 0.53466 0.0
H883 H 0.23928 0.87923 0.56069 0.0
H884 H 0.14245 0.80126 0.60846 0.0
H885 H 0.09188 0.84848 0.5804 0.0
H886 H 0.27906 0.83376 0.59217 0.0
H887 H 0.1772 0.75314 0.57452 0.0
H888 H 0.2848 0.73913 0.50002 0.0
H889 H 0.162 0.74484 0.49138 0.0
H890 H 0.24313 0.65657 0.54697 0.0
H891 H 0.19118 0.60314 0.53758 0.0
H892 H 0.2803 0.8556 0.49829 0.0
H893 H 0.37004 0.78018 0.55924 0.0
H894 H 0.10943 0.69193 0.48292 0.0
H895 H 0.33053 0.91101 0.49197 0.0
H896 H 0.42133 0.83461 0.55071 0.0
C897 C 0.17876 0.12758 0.47491 0.0
C898 C 0.13697 0.13713 0.47284 0.0
C899 C 0.20764 0.15434 0.45899 0.0
C900 C 0.1955 0.19188 0.44108 0.0
C901 C 0.1534 0.19811 0.43342 0.0
C902 C 0.12432 0.17134 0.4499 0.0
C903 C 0.22426 0.22739 0.44335 0.0
C904 C 0.26607 0.21955 0.44865 0.0
C905 C 0.28723 0.23809 0.48111 0.0
C906 C 0.26941 0.27265 0.50094 0.0
C907 C 0.23032 0.28702 0.4879 0.0
C908 C 0.20878 0.2645 0.45833 0.0
C909 C 0.20701 0.32129 0.50737 0.0
C910 C 0.16913 0.31241 0.5264 0.0
C911 C 0.21494 0.36197 0.49578 0.0
C912 C 0.1847 0.39238 0.50055 0.0
C913 C 0.14549 0.38267 0.51632 0.0
C914 C 0.32139 0.21301 0.49839 0.0
C915 C 0.31124 0.17566 0.51778 0.0
C916 C 0.36176 0.21842 0.48445 0.0
C917 C 0.39083 0.18676 0.48864 0.0
C918 C 0.37985 0.14836 0.50556 0.0
C919 C 0.33983 0.14358 0.52075 0.0
C920 C 0.13866 0.34255 0.53049 0.0
H921 H 0.18954 0.10043 0.49078 0.0
H922 H 0.23939 0.14691 0.46494 0.0
H923 H 0.14268 0.22529 0.41765 0.0
H924 H 0.09204 0.17803 0.44553 0.0
H925 H 0.27931 0.19264 0.43419 0.0
H926 H 0.17741 0.27324 0.45174 0.0
H927 H 0.28461 0.28674 0.5269 0.0
H928 H 0.16179 0.28112 0.53492 0.0
H929 H 0.24323 0.36958 0.48006 0.0
H930 H 0.19127 0.423 0.48945 0.0
H931 H 0.28002 0.17013 0.5278 0.0
H932 H 0.37015 0.24609 0.46809 0.0
H933 H 0.10923 0.33402 0.54339 0.0
H934 H 0.33027 0.11474 0.53413 0.0
H935 H 0.42142 0.19167 0.47662 0.0
C936 C 1.00546 0.91642 0.61511 0.0
C937 C 1.0107 0.91213 0.41264 0.0
C938 C 1.01073 0.11423 0.61313 0.0
C939 C 1.00545 0.10989 0.41058 0.0
C940 C 0.91221 0.11101 0.49361 0.0
C941 C 0.91222 0.91537 0.53218 0.0
C942 C 0.10695 0.10959 0.49193 0.0
C943 C 0.10689 0.91673 0.53375 0.0
C944 C 0.10821 1.01215 0.41183 0.0
C945 C 0.91017 1.0074 0.41178 0.0
C946 C 0.10825 0.01421 0.61389 0.0
C947 C 0.9102 0.01897 0.614 0.0
Eu948 Eu 1.0092 0.93507 0.51366 0.0
O949 O 0.97113 0.97473 0.47655 0.0
O950 O 0.0441 0.97865 0.54849 0.0
Eu951 Eu 0.93067 0.01318 0.5129 0.0
Eu952 Eu 0.08691 0.01316 0.51287 0.0
O953 O 0.97411 0.97887 0.54819 0.0
O954 O 0.04721 0.9744 0.47616 0.0
Eu955 Eu 1.00915 0.01553 0.59004 0.0
Eu956 Eu 1.00913 1.01079 0.43571 0.0
O957 O 0.97121 0.05169 0.54916 0.0
O958 O 0.97416 0.04753 0.47761 0.0
O959 O 0.04406 0.04773 0.47729 0.0
O960 O 0.04718 0.052 0.54953 0.0
Eu961 Eu 1.00923 0.0914 0.51207 0.0
O962 O 1.0052 0.90266 0.57625 0.0
O963 O 1.00996 0.89933 0.45198 0.0
O964 O 1.01002 0.12706 0.5738 0.0
O965 O 1.0052 0.1237 0.44943 0.0
O966 O 0.89859 0.07252 0.49672 0.0
O967 O 0.89859 0.95385 0.52911 0.0
O968 O 0.12019 0.07194 0.50056 0.0
O969 O 0.12016 0.95437 0.52513 0.0
O970 O 0.06896 1.01283 0.40024 0.0
O971 O 0.94941 1.00928 0.40041 0.0
O972 O 0.069 0.01351 0.62549 0.0
O973 O 0.94945 0.01706 0.62537 0.0
O974 O 0.06871 0.12342 0.49655 0.0
O975 O 0.9497 0.12421 0.50295 0.0
O976 O 0.06863 0.90295 0.52916 0.0
O977 O 0.9497 0.90219 0.52279 0.0
O978 O 1.0109 0.9512 0.40093 0.0
O979 O 1.00758 0.07046 0.3996 0.0
O980 O 1.00758 0.95584 0.62613 0.0
O981 O 1.01091 0.07514 0.62482 0.0
O982 O 0.89683 0.01953 0.57491 0.0
O983 O 0.89681 1.00687 0.45088 0.0
O984 O 0.12123 0.01588 0.57475 0.0
O985 O 0.12121 1.01048 0.45097 0.0
C986 C 0.52773 0.91618 0.11115 0.0
C987 C 0.52782 0.11134 0.10992 0.0
C988 C 0.52804 0.91492 0.91594 0.0
C989 C 0.52811 0.11015 0.91472 0.0
C990 C 0.61168 1.01013 0.9138 0.0
C991 C 0.61154 0.01616 0.11209 0.0
C992 C 0.40907 0.01346 0.91412 0.0
C993 C 0.409 1.01286 0.11155 0.0
C994 C 0.40904 0.11188 0.01312 0.0
C995 C 0.61164 0.11229 1.0099 0.0
C996 C 0.40902 0.91445 1.01251 0.0
C997 C 0.61161 0.91399 0.01593 0.0
Eu998 Eu 0.51056 0.01384 0.09099 0.0
O999 O 0.54626 0.04936 0.04839 0.0
O1000 O 0.4741 0.97617 0.05046 0.0
Eu1001 Eu 0.58821 0.01314 1.01294 0.0
Eu1002 Eu 0.43391 0.01316 1.01285 0.0
O1003 O 0.54625 0.97759 0.04905 0.0
O1004 O 0.47411 0.05083 0.04979 0.0
Eu1005 Eu 0.51059 0.93496 0.01359 0.0
Eu1006 Eu 0.51062 0.09136 1.01222 0.0
O1007 O 0.54622 0.977 0.97739 0.0
O1008 O 0.54623 0.04865 0.97675 0.0
O1009 O 0.4742 0.05011 0.97522 0.0
O1010 O 0.47419 0.97553 0.97589 0.0
Eu1011 Eu 0.51065 1.01247 0.93467 0.0
O1012 O 0.52391 0.95469 0.12433 0.0
O1013 O 0.51968 0.07368 0.12339 0.0
O1014 O 0.51992 0.95256 0.90239 0.0
O1015 O 0.52423 0.07166 0.90147 0.0
O1016 O 0.62329 1.01221 0.95296 0.0
O1017 O 0.62323 0.01407 0.07295 0.0
O1018 O 0.39804 0.01441 0.95348 0.0
O1019 O 0.39797 1.01188 0.07218 0.0
O1020 O 0.44812 0.12544 1.01208 0.0
O1021 O 0.57253 0.12532 1.00914 0.0
O1022 O 0.44809 0.90089 0.01362 0.0
O1023 O 0.57249 0.90098 0.01671 0.0
O1024 O 0.44816 1.01239 0.90056 0.0
O1025 O 0.57257 1.00937 0.90074 0.0
O1026 O 0.44808 0.01395 0.12509 0.0
O1027 O 0.57241 0.01692 0.12506 0.0
O1028 O 0.52402 0.12459 0.07143 0.0
O1029 O 0.51988 0.12367 0.95235 0.0
O1030 O 0.51965 0.90265 0.07349 0.0
O1031 O 0.5241 0.9017 0.95443 0.0
O1032 O 0.62326 0.95315 0.01384 0.0
O1033 O 0.62327 0.07313 1.01199 0.0
O1034 O 0.39799 0.95381 1.01154 0.0
O1035 O 0.39801 0.07252 0.01408 0.0
C1036 C 1.01079 0.41291 0.11394 0.0
C1037 C 1.00544 0.41088 0.91619 0.0
C1038 C 1.00548 0.61541 0.10967 0.0
C1039 C 1.01065 0.61339 0.91184 0.0
C1040 C 0.91017 0.61424 1.00716 0.0
C1041 C 0.91024 0.41204 0.01872 0.0
C1042 C 0.10821 0.6142 1.01181 0.0
C1043 C 0.10823 0.41216 0.01388 0.0
C1044 C 0.1069 0.49219 0.91645 0.0
C1045 C 0.91218 0.49374 0.91514 0.0
C1046 C 0.10695 0.53407 0.10932 0.0
C1047 C 0.91224 0.53234 0.1108 0.0
Eu1048 Eu 1.00916 0.43609 0.01528 0.0
O1049 O 0.97411 0.47791 0.97855 0.0
O1050 O 0.04726 0.47654 0.05175 0.0
Eu1051 Eu 0.93067 0.51313 1.01294 0.0
Eu1052 Eu 0.08691 0.51317 1.01288 0.0
O1053 O 0.97116 0.4769 0.05146 0.0
O1054 O 0.0441 0.47761 0.97831 0.0
Eu1055 Eu 1.00925 0.51394 0.09111 0.0
Eu1056 Eu 1.00919 0.51234 0.93469 0.0
O1057 O 0.97417 0.54843 0.04726 0.0
O1058 O 0.97118 0.54945 0.97444 0.0
O1059 O 0.04715 0.54984 0.97409 0.0
O1060 O 0.04406 0.54876 0.04744 0.0
Eu1061 Eu 1.00913 0.59033 1.01054 0.0
O1062 O 1.01098 0.40124 0.07485 0.0
O1063 O 1.00758 0.39993 0.95563 0.0
O1064 O 1.0076 0.62641 0.07024 0.0
O1065 O 1.01084 0.62509 0.95092 0.0
O1066 O 0.8968 0.57514 1.00662 0.0
O1067 O 0.89684 0.45112 0.01928 0.0
O1068 O 0.12121 0.57507 1.01015 0.0
O1069 O 0.12123 0.45129 0.01557 0.0
O1070 O 0.06865 0.4968 0.90264 0.0
O1071 O 0.94964 0.50313 0.90191 0.0
O1072 O 0.06872 0.52943 0.12316 0.0
O1073 O 0.94974 0.52299 0.12397 0.0
O1074 O 0.06897 0.62579 1.01252 0.0
O1075 O 0.94941 0.62562 1.00904 0.0
O1076 O 0.06898 0.40059 0.0132 0.0
O1077 O 0.94949 0.4007 0.01682 0.0
O1078 O 1.00518 0.44972 0.90237 0.0
O1079 O 1.00993 0.57406 0.89901 0.0
O1080 O 1.01004 0.45223 0.12678 0.0
O1081 O 1.00523 0.57655 0.12345 0.0
O1082 O 0.89861 0.5293 0.07231 0.0
O1083 O 0.89858 0.49687 0.95363 0.0
O1084 O 0.12019 0.5255 0.07166 0.0
O1085 O 0.12016 0.50086 0.95408 0.0
C1086 C 0.50568 0.41634 0.11569 0.0
C1087 C 0.51096 0.61405 0.11365 0.0
C1088 C 0.51098 0.41195 0.91317 0.0
C1089 C 0.50569 0.60978 0.91114 0.0
C1090 C 0.60847 0.51196 0.91238 0.0
C1091 C 0.60841 0.51409 0.11443 0.0
C1092 C 0.4104 0.50721 0.91229 0.0
C1093 C 0.41044 0.51882 0.1145 0.0
C1094 C 0.4124 0.61081 0.99416 0.0
C1095 C 0.60709 0.60945 0.99233 0.0
C1096 C 0.4124 0.41517 0.03261 0.0
C1097 C 0.60713 0.4166 0.03442 0.0
Eu1098 Eu 0.50937 0.51541 0.09046 0.0
O1099 O 0.54745 0.5519 0.05003 0.0
O1100 O 0.47432 0.47863 0.04866 0.0
Eu1101 Eu 0.58713 0.51302 0.01341 0.0
Eu1102 Eu 0.43089 0.513 0.0134 0.0
O1103 O 0.54432 0.47844 0.04896 0.0
O1104 O 0.47135 0.55155 0.04965 0.0
Eu1105 Eu 0.50943 0.43481 0.01422 0.0
Eu1106 Eu 0.50941 0.59123 1.01262 0.0
O1107 O 0.54739 0.47422 0.97672 0.0
O1108 O 0.54426 0.54755 0.97783 0.0
O1109 O 0.47437 0.54735 0.97811 0.0
O1110 O 0.47143 0.47453 0.9771 0.0
Eu1111 Eu 0.50937 0.51065 0.93622 0.0
O1112 O 0.50782 0.45577 0.12665 0.0
O1113 O 0.51117 0.57496 0.12532 0.0
O1114 O 0.51114 0.45103 0.90147 0.0
O1115 O 0.50782 0.57036 0.90014 0.0
O1116 O 0.62146 0.51026 0.95153 0.0
O1117 O 0.62143 0.51578 0.0753 0.0
O1118 O 0.39704 0.50667 0.95139 0.0
O1119 O 0.39706 0.51931 0.07541 0.0
O1120 O 0.44987 0.62402 1.0035 0.0
O1121 O 0.56886 0.62327 0.99704 0.0
O1122 O 0.4499 0.40198 0.02331 0.0
O1123 O 0.56889 0.40277 0.02976 0.0
O1124 O 0.44964 0.50911 0.90091 0.0
O1125 O 0.56922 0.5127 0.90079 0.0
O1126 O 0.44969 0.51697 0.12585 0.0
O1127 O 0.56916 0.51337 0.12599 0.0
O1128 O 0.51019 0.6269 0.07434 0.0
O1129 O 0.50542 0.62357 0.94999 0.0
O1130 O 0.5054 0.40251 0.07685 0.0
O1131 O 0.51025 0.39913 0.9525 0.0
O1132 O 0.62039 0.45424 0.0258 0.0
O1133 O 0.62037 0.57182 1.00096 0.0
O1134 O 0.3988 0.45366 0.02952 0.0
O1135 O 0.3988 0.57232 0.99722 0.0
C1136 C 0.02826 0.41603 0.6115 0.0
C1137 C 0.028 0.41487 0.4163 0.0
C1138 C 0.02829 0.61125 0.61035 0.0
C1139 C 0.02804 0.61006 0.41511 0.0
C1140 C 0.90926 0.61177 0.51374 0.0
C1141 C 0.90929 0.41432 0.51307 0.0
C1142 C 0.11188 0.61217 0.51033 0.0
C1143 C 0.11184 0.41391 0.51632 0.0
C1144 C 0.11182 0.51006 0.41417 0.0
C1145 C 0.90923 0.51341 0.41467 0.0
C1146 C 0.11192 0.51606 0.61245 0.0
C1147 C 0.90932 0.51274 0.61214 0.0
Eu1148 Eu 1.01085 0.43494 0.51401 0.0
O1149 O 0.97435 0.47547 0.47637 0.0
O1150 O 0.04651 0.47757 0.54952 0.0
Eu1151 Eu 0.93414 0.51304 0.5134 0.0
Eu1152 Eu 0.08844 0.51304 0.51332 0.0
O1153 O 0.97439 0.47612 0.55103 0.0
O1154 O 0.0465 0.47692 0.47776 0.0
Eu1155 Eu 1.01089 0.51371 0.59156 0.0
Eu1156 Eu 1.01081 0.51238 0.43516 0.0
O1157 O 0.97443 0.55069 0.55034 0.0
O1158 O 0.97439 0.55003 0.47576 0.0
O1159 O 0.04645 0.54859 0.47718 0.0
O1160 O 0.04646 0.54921 0.54884 0.0
Eu1161 Eu 1.01085 0.59126 0.51268 0.0
O1162 O 0.02008 0.40255 0.57384 0.0
O1163 O 0.02425 0.40166 0.45481 0.0
O1164 O 0.02436 0.62448 0.57186 0.0
O1165 O 0.01997 0.62358 0.45279 0.0
O1166 O 0.89824 0.5724 0.51469 0.0
O1167 O 0.89825 0.45368 0.51215 0.0
O1168 O 0.12351 0.57302 0.51243 0.0
O1169 O 0.12349 0.45306 0.51423 0.0
O1170 O 0.07269 0.50928 0.40116 0.0
O1171 O 0.9483 0.51233 0.40111 0.0
O1172 O 0.07281 0.51682 0.6255 0.0
O1173 O 0.9484 0.51379 0.62568 0.0
O1174 O 0.07276 0.62521 0.50956 0.0
O1175 O 0.94834 0.62533 0.51265 0.0
O1176 O 0.07271 0.40091 0.51708 0.0
O1177 O 0.94838 0.4008 0.51411 0.0
O1178 O 0.01984 0.45252 0.4028 0.0
O1179 O 0.02419 0.57157 0.40189 0.0
O1180 O 0.0244 0.45451 0.62476 0.0
O1181 O 0.02016 0.5736 0.62388 0.0
O1182 O 0.89827 0.5118 0.57278 0.0
O1183 O 0.89821 0.51434 0.45405 0.0
O1184 O 0.12353 0.51397 0.57328 0.0
O1185 O 0.12348 0.51216 0.45332 0.0
C1186 C 0.51091 0.9128 0.61443 0.0
C1187 C 0.50568 0.91073 0.41669 0.0
C1188 C 0.50568 0.1153 0.61012 0.0
C1189 C 0.51101 0.11325 0.4123 0.0
C1190 C 0.4104 0.11411 0.50755 0.0
C1191 C 0.41043 0.91192 0.51916 0.0
C1192 C 0.60847 0.11403 0.51232 0.0
C1193 C 0.60841 0.91199 0.51447 0.0
C1194 C 0.60711 0.992 0.41691 0.0
C1195 C 0.41242 0.9939 0.41546 0.0
C1196 C 0.6071 0.03413 0.60977 0.0
C1197 C 0.41238 0.03239 0.61112 0.0
Eu1198 Eu 0.50936 0.93596 0.51576 0.0
O1199 O 0.47432 0.97774 0.47896 0.0
O1200 O 0.54744 0.97641 0.55225 0.0
Eu1201 Eu 0.43089 0.01301 0.51332 0.0
Eu1202 Eu 0.58713 0.013 0.51336 0.0
O1203 O 0.47133 0.97678 0.5519 0.0
O1204 O 0.54431 0.97746 0.47879 0.0
Eu1205 Eu 0.5094 0.01382 0.59158 0.0
Eu1206 Eu 0.50944 1.01221 0.43516 0.0
O1207 O 0.47437 0.0483 0.54767 0.0
O1208 O 0.47143 0.04932 0.47487 0.0
O1209 O 0.5474 0.0497 0.47456 0.0
O1210 O 0.54425 0.04859 0.54789 0.0
Eu1211 Eu 0.50937 0.0902 0.51099 0.0
O1212 O 0.51111 0.90113 0.57534 0.0
O1213 O 0.50783 0.89978 0.45612 0.0
O1214 O 0.5078 0.12629 0.57069 0.0
O1215 O 0.51118 0.12496 0.45138 0.0
O1216 O 0.39704 0.07502 0.50701 0.0
O1217 O 0.39705 0.951 0.51965 0.0
O1218 O 0.62146 0.07489 0.5106 0.0
O1219 O 0.62143 0.95112 0.51613 0.0
O1220 O 0.56888 0.99669 0.4031 0.0
O1221 O 0.44992 1.00321 0.4023 0.0
O1222 O 0.56886 0.02945 0.62361 0.0
O1223 O 0.44985 0.02306 0.62435 0.0
O1224 O 0.56923 0.12563 0.51307 0.0
O1225 O 0.44964 0.1255 0.50945 0.0
O1226 O 0.56915 0.90043 0.51376 0.0
O1227 O 0.44968 0.90057 0.51731 0.0
O1228 O 0.50539 0.94957 0.40287 0.0
O1229 O 0.51026 0.07392 0.39948 0.0
O1230 O 0.51017 0.95212 0.62727 0.0
O1231 O 0.50542 0.07645 0.62392 0.0
O1232 O 0.39878 0.02923 0.57262 0.0
O1233 O 0.39881 0.99692 0.45396 0.0
O1234 O 0.62037 0.02545 0.57214 0.0
O1235 O 0.62038 1.00059 0.45456 0.0
loop_
_geom_bond_atom_site_label_1
_geom_bond_atom_site_label_2
_geom_bond_distance
_geom_bond_site_symmetry_2
_ccdc_geom_bond_type
C0 C1 1.386 1_655 S
C0 C2 1.397 . S
C0 H24 0.931 . S
C1 C0 1.386 1_455 S
C1 C5 1.397 . S
C2 C0 1.397 . S
C2 C3 1.384 1_655 S
C2 H25 0.930 . S
C3 C2 1.384 1_455 S
C3 C4 1.377 . S
C3 C6 1.481 . S
C4 C3 1.377 . S
C4 C5 1.389 . S
C4 H26 0.929 . S
C5 C1 1.397 . S
C5 C4 1.389 . S
C5 H27 0.931 . S
C6 C3 1.481 . S
C6 C7 1.388 . S
C6 C11 1.390 . S
C7 C6 1.388 . S
C7 C8 1.402 . S
C7 H28 0.929 1_455 S
C8 C7 1.402 . S
C8 C9 1.376 . S
C8 C17 1.511 . S
C9 C8 1.376 . S
C9 C10 1.392 . S
C9 H30 0.932 . S
C10 C9 1.392 . S
C10 C11 1.361 . S
C10 C12 1.500 . S
C11 C6 1.390 . S
C11 C10 1.361 . S
C11 H29 0.931 . S
C12 C10 1.500 . S
C12 C13 1.371 1_455 S
C12 C14 1.365 . S
C13 C12 1.371 1_655 S
C13 C23 1.386 . S
C13 H31 0.931 . S
C14 C12 1.365 . S
C14 C15 1.409 . S
C14 H32 0.929 . S
C15 C14 1.409 . S
C15 C16 1.380 . S
C15 H33 0.930 . S
C16 C15 1.380 . S
C16 C23 1.357 1_455 S
C17 C8 1.511 . S
C17 C18 1.339 1_455 S
C17 C19 1.373 . S
C18 C17 1.339 1_655 S
C18 C22 1.394 . S
C18 H34 0.930 . S
C19 C17 1.373 . S
C19 C20 1.392 . S
C19 H35 0.931 . S
C20 C19 1.392 . S
C20 C21 1.331 . S
C20 H38 0.932 . S
C21 C20 1.331 . S
C21 C22 1.336 1_455 S
C22 C18 1.394 . S
C22 C21 1.336 1_655 S
C22 H37 0.929 . S
C23 C13 1.386 . S
C23 C16 1.357 1_655 S
C23 H36 0.928 . S
H24 C0 0.931 . S
H25 C2 0.930 . S
H26 C4 0.929 . S
H27 C5 0.931 . S
H28 C7 0.929 1_655 S
H29 C11 0.931 . S
H30 C9 0.932 . S
H31 C13 0.931 . S
H32 C14 0.929 . S
H33 C15 0.930 . S
H34 C18 0.930 . S
H35 C19 0.931 . S
H36 C23 0.928 . S
H37 C22 0.929 . S
H38 C20 0.932 . S
C39 C40 1.397 . S
C39 C41 1.397 . S
C39 H63 0.931 . S
C40 C39 1.397 . S
C40 C44 1.386 1_545 S
C41 C39 1.397 . S
C41 C42 1.392 . S
C41 H64 0.930 . S
C42 C41 1.392 . S
C42 C43 1.369 1_545 S
C42 C45 1.481 . S
C43 C42 1.369 1_565 S
C43 C44 1.389 . S
C43 H65 0.929 . S
C44 C40 1.386 1_565 S
C44 C43 1.389 . S
C44 H66 0.931 . S
C45 C42 1.481 . S
C45 C46 1.387 . S
C45 C50 1.391 . S
C46 C45 1.387 . S
C46 C47 1.401 . S
C46 H67 0.930 . S
C47 C46 1.401 . S
C47 C48 1.376 . S
C47 C56 1.511 . S
C48 C47 1.376 . S
C48 C49 1.393 . S
C48 H69 0.931 . S
C49 C48 1.393 . S
C49 C50 1.361 . S
C49 C51 1.499 1_545 S
C50 C45 1.391 . S
C50 C49 1.361 . S
C50 H68 0.931 . S
C51 C49 1.499 1_565 S
C51 C52 1.362 1_565 S
C51 C53 1.374 . S
C52 C51 1.362 1_545 S
C52 C62 1.386 . S
C52 H70 0.931 . S
C53 C51 1.374 . S
C53 C54 1.409 . S
C53 H71 0.929 . S
C54 C53 1.409 . S
C54 C55 1.379 . S
C54 H72 0.930 . S
C55 C54 1.379 . S
C55 C62 1.358 1_565 S
C56 C47 1.511 . S
C56 C57 1.341 . S
C56 C58 1.371 1_545 S
C57 C56 1.341 . S
C57 C61 1.394 . S
C57 H73 0.930 . S
C58 C56 1.371 1_565 S
C58 C59 1.392 . S
C58 H74 0.931 . S
C59 C58 1.392 . S
C59 C60 1.331 1_565 S
C59 H77 0.932 . S
C60 C59 1.331 1_545 S
C60 C61 1.336 . S
C61 C57 1.394 . S
C61 C60 1.336 . S
C61 H76 0.929 . S
C62 C52 1.386 . S
C62 C55 1.358 1_545 S
C62 H75 0.928 . S
H63 C39 0.931 . S
H64 C41 0.930 . S
H65 C43 0.929 . S
H66 C44 0.931 . S
H67 C46 0.930 . S
H68 C50 0.931 . S
H69 C48 0.931 . S
H70 C52 0.931 . S
H71 C53 0.929 . S
H72 C54 0.930 . S
H73 C57 0.930 . S
H74 C58 0.931 . S
H75 C62 0.928 . S
H76 C61 0.929 . S
H77 C59 0.932 . S
C78 C79 1.386 1_655 S
C78 C80 1.397 . S
C78 H102 0.931 . S
C79 C78 1.386 1_455 S
C79 C83 1.397 . S
C80 C78 1.397 . S
C80 C81 1.384 1_655 S
C80 H103 0.930 . S
C81 C80 1.384 1_455 S
C81 C82 1.377 . S
C81 C84 1.481 . S
C82 C81 1.377 . S
C82 C83 1.389 . S
C82 H104 0.929 . S
C83 C79 1.397 . S
C83 C82 1.389 . S
C83 H105 0.931 . S
C84 C81 1.481 . S
C84 C85 1.388 . S
C84 C89 1.390 . S
C85 C84 1.388 . S
C85 C86 1.402 . S
C85 H106 0.929 1_455 S
C86 C85 1.402 . S
C86 C87 1.376 . S
C86 C95 1.511 . S
C87 C86 1.376 . S
C87 C88 1.392 . S
C87 H108 0.932 . S
C88 C87 1.392 . S
C88 C89 1.361 . S
C88 C90 1.500 . S
C89 C84 1.390 . S
C89 C88 1.361 . S
C89 H107 0.931 . S
C90 C88 1.500 . S
C90 C91 1.371 1_455 S
C90 C92 1.365 . S
C91 C90 1.371 1_655 S
C91 C101 1.386 . S
C91 H109 0.931 . S
C92 C90 1.365 . S
C92 C93 1.409 . S
C92 H110 0.929 . S
C93 C92 1.409 . S
C93 C94 1.380 . S
C93 H111 0.930 . S
C94 C93 1.380 . S
C94 C101 1.357 1_455 S
C95 C86 1.511 . S
C95 C96 1.339 1_455 S
C95 C97 1.373 . S
C96 C95 1.339 1_655 S
C96 C100 1.394 . S
C96 H112 0.930 . S
C97 C95 1.373 . S
C97 C98 1.392 . S
C97 H113 0.931 . S
C98 C97 1.392 . S
C98 C99 1.331 . S
C98 H116 0.932 . S
C99 C98 1.331 . S
C99 C100 1.336 1_455 S
C100 C96 1.394 . S
C100 C99 1.336 1_655 S
C100 H115 0.929 . S
C101 C91 1.386 . S
C101 C94 1.357 1_655 S
C101 H114 0.928 . S
H102 C78 0.931 . S
H103 C80 0.930 . S
H104 C82 0.929 . S
H105 C83 0.931 . S
H106 C85 0.929 1_655 S
H107 C89 0.931 . S
H108 C87 0.932 . S
H109 C91 0.931 . S
H110 C92 0.929 . S
H111 C93 0.930 . S
H112 C96 0.930 . S
H113 C97 0.931 . S
H114 C101 0.928 . S
H115 C100 0.929 . S
H116 C98 0.932 . S
C117 C118 1.397 . S
C117 C119 1.397 . S
C117 H141 0.931 . S
C118 C117 1.397 . S
C118 C122 1.386 1_545 S
C119 C117 1.397 . S
C119 C120 1.392 . S
C119 H142 0.930 . S
C120 C119 1.392 . S
C120 C121 1.369 1_545 S
C120 C123 1.481 . S
C121 C120 1.369 1_565 S
C121 C122 1.389 . S
C121 H143 0.929 . S
C122 C118 1.386 1_565 S
C122 C121 1.389 . S
C122 H144 0.931 . S
C123 C120 1.481 . S
C123 C124 1.387 . S
C123 C128 1.391 . S
C124 C123 1.387 . S
C124 C125 1.401 . S
C124 H145 0.930 . S
C125 C124 1.401 . S
C125 C126 1.376 . S
C125 C134 1.511 . S
C126 C125 1.376 . S
C126 C127 1.393 . S
C126 H147 0.931 . S
C127 C126 1.393 . S
C127 C128 1.361 . S
C127 C129 1.499 1_545 S
C128 C123 1.391 . S
C128 C127 1.361 . S
C128 H146 0.931 . S
C129 C127 1.499 1_565 S
C129 C130 1.362 1_565 S
C129 C131 1.374 . S
C130 C129 1.362 1_545 S
C130 C140 1.386 . S
C130 H148 0.931 . S
C131 C129 1.374 . S
C131 C132 1.409 . S
C131 H149 0.929 . S
C132 C131 1.409 . S
C132 C133 1.379 . S
C132 H150 0.930 . S
C133 C132 1.379 . S
C133 C140 1.358 1_565 S
C134 C125 1.511 . S
C134 C135 1.341 . S
C134 C136 1.371 1_545 S
C135 C134 1.341 . S
C135 C139 1.394 . S
C135 H151 0.930 . S
C136 C134 1.371 1_565 S
C136 C137 1.392 . S
C136 H152 0.931 . S
C137 C136 1.392 . S
C137 C138 1.331 1_565 S
C137 H155 0.932 . S
C138 C137 1.331 1_545 S
C138 C139 1.336 . S
C139 C135 1.394 . S
C139 C138 1.336 . S
C139 H154 0.929 . S
C140 C130 1.386 . S
C140 C133 1.358 1_545 S
C140 H153 0.928 . S
H141 C117 0.931 . S
H142 C119 0.930 . S
H143 C121 0.929 . S
H144 C122 0.931 . S
H145 C124 0.930 . S
H146 C128 0.931 . S
H147 C126 0.931 . S
H148 C130 0.931 . S
H149 C131 0.929 . S
H150 C132 0.930 . S
H151 C135 0.930 . S
H152 C136 0.931 . S
H153 C140 0.928 . S
H154 C139 0.929 . S
H155 C137 0.932 . S
C156 C157 1.386 1_655 S
C156 C158 1.397 . S
C156 H180 0.931 . S
C157 C156 1.386 1_455 S
C157 C161 1.397 . S
C158 C156 1.397 . S
C158 C159 1.384 1_655 S
C158 H181 0.930 . S
C159 C158 1.384 1_455 S
C159 C160 1.377 . S
C159 C162 1.481 . S
C160 C159 1.377 . S
C160 C161 1.389 . S
C160 H182 0.929 . S
C161 C157 1.397 . S
C161 C160 1.389 . S
C161 H183 0.931 . S
C162 C159 1.481 . S
C162 C163 1.388 . S
C162 C167 1.390 . S
C163 C162 1.388 . S
C163 C164 1.402 . S
C163 H184 0.929 1_455 S
C164 C163 1.402 . S
C164 C165 1.376 . S
C164 C173 1.511 . S
C165 C164 1.376 . S
C165 C166 1.392 . S
C165 H186 0.932 . S
C166 C165 1.392 . S
C166 C167 1.361 . S
C166 C168 1.500 . S
C167 C162 1.390 . S
C167 C166 1.361 . S
C167 H185 0.931 . S
C168 C166 1.500 . S
C168 C169 1.371 1_455 S
C168 C170 1.365 . S
C169 C168 1.371 1_655 S
C169 C179 1.386 . S
C169 H187 0.931 . S
C170 C168 1.365 . S
C170 C171 1.409 . S
C170 H188 0.929 . S
C171 C170 1.409 . S
C171 C172 1.380 . S
C171 H189 0.930 . S
C172 C171 1.380 . S
C172 C179 1.357 1_455 S
C173 C164 1.511 . S
C173 C174 1.339 1_455 S
C173 C175 1.373 . S
C174 C173 1.339 1_655 S
C174 C178 1.394 . S
C174 H190 0.930 . S
C175 C173 1.373 . S
C175 C176 1.392 . S
C175 H191 0.931 . S
C176 C175 1.392 . S
C176 C177 1.331 . S
C176 H194 0.932 . S
C177 C176 1.331 . S
C177 C178 1.336 1_455 S
C178 C174 1.394 . S
C178 C177 1.336 1_655 S
C178 H193 0.929 . S
C179 C169 1.386 . S
C179 C172 1.357 1_655 S
C179 H192 0.928 . S
H180 C156 0.931 . S
H181 C158 0.930 . S
H182 C160 0.929 . S
H183 C161 0.931 . S
H184 C163 0.929 1_655 S
H185 C167 0.931 . S
H186 C165 0.932 . S
H187 C169 0.931 . S
H188 C170 0.929 . S
H189 C171 0.930 . S
H190 C174 0.930 . S
H191 C175 0.931 . S
H192 C179 0.928 . S
H193 C178 0.929 . S
H194 C176 0.932 . S
C195 C196 1.390 . S
C195 C197 1.397 . S
C195 H219 0.931 . S
C196 C195 1.390 . S
C196 C200 1.393 1_565 S
C197 C195 1.397 . S
C197 C198 1.385 . S
C197 H220 0.930 . S
C198 C197 1.385 . S
C198 C199 1.377 1_565 S
C198 C201 1.480 . S
C199 C198 1.377 1_545 S
C199 C200 1.389 . S
C199 H221 0.929 . S
C200 C196 1.393 1_545 S
C200 C199 1.389 . S
C200 H222 0.931 . S
C201 C198 1.480 . S
C201 C202 1.388 . S
C201 C206 1.390 . S
C202 C201 1.388 . S
C202 C203 1.402 . S
C202 H223 0.930 . S
C203 C202 1.402 . S
C203 C204 1.377 . S
C203 C212 1.512 . S
C204 C203 1.377 . S
C204 C205 1.392 . S
C204 H225 0.931 . S
C205 C204 1.392 . S
C205 C206 1.361 . S
C205 C207 1.500 1_565 S
C206 C201 1.390 . S
C206 C205 1.361 . S
C206 H224 0.931 . S
C207 C205 1.500 1_545 S
C207 C208 1.371 1_545 S
C207 C209 1.365 . S
C208 C207 1.371 1_565 S
C208 C218 1.386 . S
C208 H226 0.931 . S
C209 C207 1.365 . S
C209 C210 1.409 . S
C209 H227 0.929 . S
C210 C209 1.409 . S
C210 C211 1.384 . S
C210 H228 0.930 . S
C211 C210 1.384 . S
C211 C218 1.353 1_545 S
C212 C203 1.512 . S
C212 C213 1.341 . S
C212 C214 1.371 1_565 S
C213 C212 1.341 . S
C213 C217 1.394 . S
C213 H229 0.930 . S
C214 C212 1.371 1_545 S
C214 C215 1.392 . S
C214 H230 0.931 . S
C215 C214 1.392 . S
C215 C216 1.324 1_545 S
C215 H233 0.932 . S
C216 C215 1.324 1_565 S
C216 C217 1.343 . S
C217 C213 1.394 . S
C217 C216 1.343 . S
C217 H232 0.929 . S
C218 C208 1.386 . S
C218 C211 1.353 1_565 S
C218 H231 0.928 . S
H219 C195 0.931 . S
H220 C197 0.930 . S
H221 C199 0.929 . S
H222 C200 0.931 . S
H223 C202 0.930 . S
H224 C206 0.931 . S
H225 C204 0.931 . S
H226 C208 0.931 . S
H227 C209 0.929 . S
H228 C210 0.930 . S
H229 C213 0.930 . S
H230 C214 0.931 . S
H231 C218 0.928 . S
H232 C217 0.929 . S
H233 C215 0.932 . S
C234 C235 1.386 1_655 S
C234 C236 1.397 . S
C234 H258 0.931 . S
C235 C234 1.386 1_455 S
C235 C239 1.397 . S
C236 C234 1.397 . S
C236 C237 1.384 1_655 S
C236 H259 0.930 . S
C237 C236 1.384 1_455 S
C237 C238 1.377 . S
C237 C240 1.481 . S
C238 C237 1.377 . S
C238 C239 1.389 . S
C238 H260 0.929 . S
C239 C235 1.397 . S
C239 C238 1.389 . S
C239 H261 0.931 . S
C240 C237 1.481 . S
C240 C241 1.388 . S
C240 C245 1.390 . S
C241 C240 1.388 . S
C241 C242 1.402 . S
C241 H262 0.929 1_455 S
C242 C241 1.402 . S
C242 C243 1.376 . S
C242 C251 1.511 . S
C243 C242 1.376 . S
C243 C244 1.392 . S
C243 H264 0.932 . S
C244 C243 1.392 . S
C244 C245 1.361 . S
C244 C246 1.500 . S
C245 C240 1.390 . S
C245 C244 1.361 . S
C245 H263 0.931 . S
C246 C244 1.500 . S
C246 C247 1.371 1_455 S
C246 C248 1.365 . S
C247 C246 1.371 1_655 S
C247 C257 1.386 . S
C247 H265 0.931 . S
C248 C246 1.365 . S
C248 C249 1.409 . S
C248 H266 0.929 . S
C249 C248 1.409 . S
C249 C250 1.380 . S
C249 H267 0.930 . S
C250 C249 1.380 . S
C250 C257 1.357 1_455 S
C251 C242 1.511 . S
C251 C252 1.339 1_455 S
C251 C253 1.373 . S
C252 C251 1.339 1_655 S
C252 C256 1.394 . S
C252 H268 0.930 . S
C253 C251 1.373 . S
C253 C254 1.392 . S
C253 H269 0.931 . S
C254 C253 1.392 . S
C254 C255 1.331 . S
C254 H272 0.932 . S
C255 C254 1.331 . S
C255 C256 1.336 1_455 S
C256 C252 1.394 . S
C256 C255 1.336 1_655 S
C256 H271 0.929 . S
C257 C247 1.386 . S
C257 C250 1.357 1_655 S
C257 H270 0.928 . S
H258 C234 0.931 . S
H259 C236 0.930 . S
H260 C238 0.929 . S
H261 C239 0.931 . S
H262 C241 0.929 1_655 S
H263 C245 0.931 . S
H264 C243 0.932 . S
H265 C247 0.931 . S
H266 C248 0.929 . S
H267 C249 0.930 . S
H268 C252 0.930 . S
H269 C253 0.931 . S
H270 C257 0.928 . S
H271 C256 0.929 . S
H272 C254 0.932 . S
C273 C274 1.390 . S
C273 C275 1.397 . S
C273 H297 0.931 . S
C274 C273 1.390 . S
C274 C278 1.393 1_565 S
C275 C273 1.397 . S
C275 C276 1.385 . S
C275 H298 0.930 . S
C276 C275 1.385 . S
C276 C277 1.377 1_565 S
C276 C279 1.480 . S
C277 C276 1.377 1_545 S
C277 C278 1.389 . S
C277 H299 0.929 . S
C278 C274 1.393 1_545 S
C278 C277 1.389 . S
C278 H300 0.931 . S
C279 C276 1.480 . S
C279 C280 1.388 . S
C279 C284 1.390 . S
C280 C279 1.388 . S
C280 C281 1.402 . S
C280 H301 0.930 . S
C281 C280 1.402 . S
C281 C282 1.377 . S
C281 C290 1.512 . S
C282 C281 1.377 . S
C282 C283 1.392 . S
C282 H303 0.931 . S
C283 C282 1.392 . S
C283 C284 1.361 . S
C283 C285 1.500 1_565 S
C284 C279 1.390 . S
C284 C283 1.361 . S
C284 H302 0.931 . S
C285 C283 1.500 1_545 S
C285 C286 1.371 1_545 S
C285 C287 1.365 . S
C286 C285 1.371 1_565 S
C286 C296 1.386 . S
C286 H304 0.931 . S
C287 C285 1.365 . S
C287 C288 1.409 . S
C287 H305 0.929 . S
C288 C287 1.409 . S
C288 C289 1.384 . S
C288 H306 0.930 . S
C289 C288 1.384 . S
C289 C296 1.353 1_545 S
C290 C281 1.512 . S
C290 C291 1.341 . S
C290 C292 1.371 1_565 S
C291 C290 1.341 . S
C291 C295 1.394 . S
C291 H307 0.930 . S
C292 C290 1.371 1_545 S
C292 C293 1.392 . S
C292 H308 0.931 . S
C293 C292 1.392 . S
C293 C294 1.324 1_545 S
C293 H311 0.932 . S
C294 C293 1.324 1_565 S
C294 C295 1.343 . S
C295 C291 1.394 . S
C295 C294 1.343 . S
C295 H310 0.929 . S
C296 C286 1.386 . S
C296 C289 1.353 1_565 S
C296 H309 0.928 . S
H297 C273 0.931 . S
H298 C275 0.930 . S
H299 C277 0.929 . S
H300 C278 0.931 . S
H301 C280 0.930 . S
H302 C284 0.931 . S
H303 C282 0.931 . S
H304 C286 0.931 . S
H305 C287 0.929 . S
H306 C288 0.930 . S
H307 C291 0.930 . S
H308 C292 0.931 . S
H309 C296 0.928 . S
H310 C295 0.929 . S
H311 C293 0.932 . S
C312 C313 1.390 . S
C312 C314 1.397 . S
C312 H336 0.931 . S
C313 C312 1.390 . S
C313 C317 1.393 1_556 S
C314 C312 1.397 . S
C314 C315 1.385 . S
C314 H337 0.930 . S
C315 C314 1.385 . S
C315 C316 1.377 1_556 S
C315 C318 1.480 . S
C316 C315 1.377 1_554 S
C316 C317 1.389 . S
C316 H338 0.929 . S
C317 C313 1.393 1_554 S
C317 C316 1.389 . S
C317 H339 0.931 . S
C318 C315 1.480 . S
C318 C319 1.388 . S
C318 C323 1.390 . S
C319 C318 1.388 . S
C319 C320 1.402 . S
C319 H340 0.930 . S
C320 C319 1.402 . S
C320 C321 1.377 . S
C320 C329 1.512 . S
C321 C320 1.377 . S
C321 C322 1.392 . S
C321 H342 0.931 . S
C322 C321 1.392 . S
C322 C323 1.361 . S
C322 C324 1.500 1_556 S
C323 C318 1.390 . S
C323 C322 1.361 . S
C323 H341 0.931 . S
C324 C322 1.500 1_554 S
C324 C325 1.371 1_554 S
C324 C326 1.365 . S
C325 C324 1.371 1_556 S
C325 C335 1.386 . S
C325 H343 0.931 . S
C326 C324 1.365 . S
C326 C327 1.409 . S
C326 H344 0.929 . S
C327 C326 1.409 . S
C327 C328 1.384 . S
C327 H345 0.930 . S
C328 C327 1.384 . S
C328 C335 1.353 1_554 S
C329 C320 1.512 . S
C329 C330 1.341 . S
C329 C331 1.371 1_556 S
C330 C329 1.341 . S
C330 C334 1.394 . S
C330 H346 0.930 . S
C331 C329 1.371 1_554 S
C331 C332 1.392 . S
C331 H347 0.931 . S
C332 C331 1.392 . S
C332 C333 1.324 1_554 S
C332 H350 0.932 . S
C333 C332 1.324 1_556 S
C333 C334 1.343 . S
C334 C330 1.394 . S
C334 C333 1.343 . S
C334 H349 0.929 . S
C335 C325 1.386 . S
C335 C328 1.353 1_556 S
C335 H348 0.928 . S
H336 C312 0.931 . S
H337 C314 0.930 . S
H338 C316 0.929 . S
H339 C317 0.931 . S
H340 C319 0.930 . S
H341 C323 0.931 . S
H342 C321 0.931 . S
H343 C325 0.931 . S
H344 C326 0.929 . S
H345 C327 0.930 . S
H346 C330 0.930 . S
H347 C331 0.931 . S
H348 C335 0.928 . S
H349 C334 0.929 . S
H350 C332 0.932 . S
C351 C352 1.397 . S
C351 C353 1.397 . S
C351 H375 0.931 . S
C352 C351 1.397 . S
C352 C356 1.386 1_554 S
C353 C351 1.397 . S
C353 C354 1.392 . S
C353 H376 0.930 . S
C354 C353 1.392 . S
C354 C355 1.369 1_554 S
C354 C357 1.481 . S
C355 C354 1.369 1_556 S
C355 C356 1.389 . S
C355 H377 0.929 . S
C356 C352 1.386 1_556 S
C356 C355 1.389 . S
C356 H378 0.931 . S
C357 C354 1.481 . S
C357 C358 1.387 . S
C357 C362 1.391 . S
C358 C357 1.387 . S
C358 C359 1.401 . S
C358 H379 0.930 . S
C359 C358 1.401 . S
C359 C360 1.376 . S
C359 C368 1.511 . S
C360 C359 1.376 . S
C360 C361 1.393 . S
C360 H381 0.931 . S
C361 C360 1.393 . S
C361 C362 1.361 . S
C361 C363 1.499 1_554 S
C362 C357 1.391 . S
C362 C361 1.361 . S
C362 H380 0.931 . S
C363 C361 1.499 1_556 S
C363 C364 1.362 1_556 S
C363 C365 1.374 . S
C364 C363 1.362 1_554 S
C364 C374 1.386 . S
C364 H382 0.931 . S
C365 C363 1.374 . S
C365 C366 1.409 . S
C365 H383 0.929 . S
C366 C365 1.409 . S
C366 C367 1.379 . S
C366 H384 0.930 . S
C367 C366 1.379 . S
C367 C374 1.358 1_556 S
C368 C359 1.511 . S
C368 C369 1.341 . S
C368 C370 1.371 1_554 S
C369 C368 1.341 . S
C369 C373 1.394 . S
C369 H385 0.930 . S
C370 C368 1.371 1_556 S
C370 C371 1.392 . S
C370 H386 0.931 . S
C371 C370 1.392 . S
C371 C372 1.331 1_556 S
C371 H389 0.932 . S
C372 C371 1.331 1_554 S
C372 C373 1.336 . S
C373 C369 1.394 . S
C373 C372 1.336 . S
C373 H388 0.929 . S
C374 C364 1.386 . S
C374 C367 1.358 1_554 S
C374 H387 0.928 . S
H375 C351 0.931 . S
H376 C353 0.930 . S
H377 C355 0.929 . S
H378 C356 0.931 . S
H379 C358 0.930 . S
H380 C362 0.931 . S
H381 C360 0.931 . S
H382 C364 0.931 . S
H383 C365 0.929 . S
H384 C366 0.930 . S
H385 C369 0.930 . S
H386 C370 0.931 . S
H387 C374 0.928 . S
H388 C373 0.929 . S
H389 C371 0.932 . S
C390 C391 1.390 . S
C390 C392 1.397 . S
C390 H414 0.931 . S
C391 C390 1.390 . S
C391 C395 1.393 1_556 S
C392 C390 1.397 . S
C392 C393 1.385 . S
C392 H415 0.930 . S
C393 C392 1.385 . S
C393 C394 1.377 1_556 S
C393 C396 1.480 . S
C394 C393 1.377 1_554 S
C394 C395 1.389 . S
C394 H416 0.929 . S
C395 C391 1.393 1_554 S
C395 C394 1.389 . S
C395 H417 0.931 . S
C396 C393 1.480 . S
C396 C397 1.388 . S
C396 C401 1.390 . S
C397 C396 1.388 . S
C397 C398 1.402 . S
C397 H418 0.930 . S
C398 C397 1.402 . S
C398 C399 1.377 . S
C398 C407 1.512 . S
C399 C398 1.377 . S
C399 C400 1.392 . S
C399 H420 0.931 . S
C400 C399 1.392 . S
C400 C401 1.361 . S
C400 C402 1.500 1_556 S
C401 C396 1.390 . S
C401 C400 1.361 . S
C401 H419 0.931 . S
C402 C400 1.500 1_554 S
C402 C403 1.371 1_554 S
C402 C404 1.365 . S
C403 C402 1.371 1_556 S
C403 C413 1.386 . S
C403 H421 0.931 . S
C404 C402 1.365 . S
C404 C405 1.409 . S
C404 H422 0.929 . S
C405 C404 1.409 . S
C405 C406 1.384 . S
C405 H423 0.930 . S
C406 C405 1.384 . S
C406 C413 1.353 1_554 S
C407 C398 1.512 . S
C407 C408 1.341 . S
C407 C409 1.371 1_556 S
C408 C407 1.341 . S
C408 C412 1.394 . S
C408 H424 0.930 . S
C409 C407 1.371 1_554 S
C409 C410 1.392 . S
C409 H425 0.931 . S
C410 C409 1.392 . S
C410 C411 1.324 1_554 S
C410 H428 0.932 . S
C411 C410 1.324 1_556 S
C411 C412 1.343 . S
C412 C408 1.394 . S
C412 C411 1.343 . S
C412 H427 0.929 . S
C413 C403 1.386 . S
C413 C406 1.353 1_556 S
C413 H426 0.928 . S
H414 C390 0.931 . S
H415 C392 0.930 . S
H416 C394 0.929 . S
H417 C395 0.931 . S
H418 C397 0.930 . S
H419 C401 0.931 . S
H420 C399 0.931 . S
H421 C403 0.931 . S
H422 C404 0.929 . S
H423 C405 0.930 . S
H424 C408 0.930 . S
H425 C409 0.931 . S
H426 C413 0.928 . S
H427 C412 0.929 . S
H428 C410 0.932 . S
C429 C430 1.397 . S
C429 C431 1.397 . S
C429 H453 0.931 . S
C430 C429 1.397 . S
C430 C434 1.386 1_554 S
C431 C429 1.397 . S
C431 C432 1.392 . S
C431 H454 0.930 . S
C432 C431 1.392 . S
C432 C433 1.369 1_554 S
C432 C435 1.481 . S
C433 C432 1.369 1_556 S
C433 C434 1.389 . S
C433 H455 0.929 . S
C434 C430 1.386 1_556 S
C434 C433 1.389 . S
C434 H456 0.931 . S
C435 C432 1.481 . S
C435 C436 1.387 . S
C435 C440 1.391 . S
C436 C435 1.387 . S
C436 C437 1.401 . S
C436 H457 0.930 . S
C437 C436 1.401 . S
C437 C438 1.376 . S
C437 C446 1.511 . S
C438 C437 1.376 . S
C438 C439 1.393 . S
C438 H459 0.931 . S
C439 C438 1.393 . S
C439 C440 1.361 . S
C439 C441 1.499 1_554 S
C440 C435 1.391 . S
C440 C439 1.361 . S
C440 H458 0.931 . S
C441 C439 1.499 1_556 S
C441 C442 1.362 1_556 S
C441 C443 1.374 . S
C442 C441 1.362 1_554 S
C442 C452 1.386 . S
C442 H460 0.931 . S
C443 C441 1.374 . S
C443 C444 1.409 . S
C443 H461 0.929 . S
C444 C443 1.409 . S
C444 C445 1.379 . S
C444 H462 0.930 . S
C445 C444 1.379 . S
C445 C452 1.358 1_556 S
C446 C437 1.511 . S
C446 C447 1.341 . S
C446 C448 1.371 1_554 S
C447 C446 1.341 . S
C447 C451 1.394 . S
C447 H463 0.930 . S
C448 C446 1.371 1_556 S
C448 C449 1.392 . S
C448 H464 0.931 . S
C449 C448 1.392 . S
C449 C450 1.331 1_556 S
C449 H467 0.932 . S
C450 C449 1.331 1_554 S
C450 C451 1.336 . S
C451 C447 1.394 . S
C451 C450 1.336 . S
C451 H466 0.929 . S
C452 C442 1.386 . S
C452 C445 1.358 1_554 S
C452 H465 0.928 . S
H453 C429 0.931 . S
H454 C431 0.930 . S
H455 C433 0.929 . S
H456 C434 0.931 . S
H457 C436 0.930 . S
H458 C440 0.931 . S
H459 C438 0.931 . S
H460 C442 0.931 . S
H461 C443 0.929 . S
H462 C444 0.930 . S
H463 C447 0.930 . S
H464 C448 0.931 . S
H465 C452 0.928 . S
H466 C451 0.929 . S
H467 C449 0.932 . S
C468 C469 1.386 . S
C468 C470 1.397 . S
C468 H492 0.931 . S
C469 C468 1.386 . S
C469 C473 1.397 . S
C470 C468 1.397 . S
C470 C471 1.384 . S
C470 H493 0.930 . S
C471 C470 1.384 . S
C471 C472 1.377 . S
C471 C474 1.481 . S
C472 C471 1.377 . S
C472 C473 1.389 . S
C472 H494 0.929 . S
C473 C469 1.397 . S
C473 C472 1.389 . S
C473 H495 0.931 . S
C474 C471 1.481 . S
C474 C475 1.387 . S
C474 C479 1.390 . S
C475 C474 1.387 . S
C475 C476 1.401 . S
C475 H496 0.930 . S
C476 C475 1.401 . S
C476 C477 1.376 . S
C476 C485 1.511 . S
C477 C476 1.376 . S
C477 C478 1.392 . S
C477 H498 0.931 . S
C478 C477 1.392 . S
C478 C479 1.361 . S
C478 C480 1.500 . S
C479 C474 1.390 . S
C479 C478 1.361 . S
C479 H497 0.931 . S
C480 C478 1.500 . S
C480 C481 1.371 . S
C480 C482 1.365 . S
C481 C480 1.371 . S
C481 C491 1.386 . S
C481 H499 0.931 . S
C482 C480 1.365 . S
C482 C483 1.409 . S
C482 H500 0.929 . S
C483 C482 1.409 . S
C483 C484 1.380 . S
C483 H501 0.930 . S
C484 C483 1.380 . S
C484 C491 1.357 . S
C485 C476 1.511 . S
C485 C486 1.341 . S
C485 C487 1.371 . S
C486 C485 1.341 . S
C486 C490 1.394 . S
C486 H502 0.930 . S
C487 C485 1.371 . S
C487 C488 1.392 . S
C487 H503 0.931 . S
C488 C487 1.392 . S
C488 C489 1.331 . S
C488 H506 0.932 . S
C489 C488 1.331 . S
C489 C490 1.336 . S
C490 C486 1.394 . S
C490 C489 1.336 . S
C490 H505 0.929 . S
C491 C481 1.386 . S
C491 C484 1.357 . S
C491 H504 0.928 . S
H492 C468 0.931 . S
H493 C470 0.930 . S
H494 C472 0.929 . S
H495 C473 0.931 . S
H496 C475 0.930 . S
H497 C479 0.931 . S
H498 C477 0.931 . S
H499 C481 0.931 . S
H500 C482 0.929 . S
H501 C483 0.930 . S
H502 C486 0.930 . S
H503 C487 0.931 . S
H504 C491 0.928 . S
H505 C490 0.929 . S
H506 C488 0.932 . S
C507 C508 1.386 . S
C507 C509 1.397 . S
C507 H531 0.931 . S
C508 C507 1.386 . S
C508 C512 1.397 . S
C509 C507 1.397 . S
C509 C510 1.384 . S
C509 H532 0.930 . S
C510 C509 1.384 . S
C510 C511 1.377 . S
C510 C513 1.481 . S
C511 C510 1.377 . S
C511 C512 1.389 . S
C511 H533 0.929 . S
C512 C508 1.397 . S
C512 C511 1.389 . S
C512 H534 0.931 . S
C513 C510 1.481 . S
C513 C514 1.387 . S
C513 C518 1.390 . S
C514 C513 1.387 . S
C514 C515 1.401 . S
C514 H535 0.930 . S
C515 C514 1.401 . S
C515 C516 1.376 . S
C515 C524 1.511 . S
C516 C515 1.376 . S
C516 C517 1.392 . S
C516 H537 0.931 . S
C517 C516 1.392 . S
C517 C518 1.361 . S
C517 C519 1.500 . S
C518 C513 1.390 . S
C518 C517 1.361 . S
C518 H536 0.931 . S
C519 C517 1.500 . S
C519 C520 1.371 . S
C519 C521 1.365 . S
C520 C519 1.371 . S
C520 C530 1.386 . S
C520 H538 0.931 . S
C521 C519 1.365 . S
C521 C522 1.409 . S
C521 H539 0.929 . S
C522 C521 1.409 . S
C522 C523 1.380 . S
C522 H540 0.930 . S
C523 C522 1.380 . S
C523 C530 1.357 . S
C524 C515 1.511 . S
C524 C525 1.341 . S
C524 C526 1.371 . S
C525 C524 1.341 . S
C525 C529 1.394 . S
C525 H541 0.930 . S
C526 C524 1.371 . S
C526 C527 1.392 . S
C526 H542 0.931 . S
C527 C526 1.392 . S
C527 C528 1.331 . S
C527 H545 0.932 . S
C528 C527 1.331 . S
C528 C529 1.336 . S
C529 C525 1.394 . S
C529 C528 1.336 . S
C529 H544 0.929 . S
C530 C520 1.386 . S
C530 C523 1.357 . S
C530 H543 0.928 . S
H531 C507 0.931 . S
H532 C509 0.930 . S
H533 C511 0.929 . S
H534 C512 0.931 . S
H535 C514 0.930 . S
H536 C518 0.931 . S
H537 C516 0.931 . S
H538 C520 0.931 . S
H539 C521 0.929 . S
H540 C522 0.930 . S
H541 C525 0.930 . S
H542 C526 0.931 . S
H543 C530 0.928 . S
H544 C529 0.929 . S
H545 C527 0.932 . S
C546 C547 1.386 . S
C546 C548 1.397 . S
C546 H570 0.931 . S
C547 C546 1.386 . S
C547 C551 1.397 . S
C548 C546 1.397 . S
C548 C549 1.384 . S
C548 H571 0.930 . S
C549 C548 1.384 . S
C549 C550 1.377 . S
C549 C552 1.481 . S
C550 C549 1.377 . S
C550 C551 1.389 . S
C550 H572 0.929 . S
C551 C547 1.397 . S
C551 C550 1.389 . S
C551 H573 0.931 . S
C552 C549 1.481 . S
C552 C553 1.387 . S
C552 C557 1.390 . S
C553 C552 1.387 . S
C553 C554 1.401 . S
C553 H574 0.930 . S
C554 C553 1.401 . S
C554 C555 1.376 . S
C554 C563 1.511 . S
C555 C554 1.376 . S
C555 C556 1.392 . S
C555 H576 0.931 . S
C556 C555 1.392 . S
C556 C557 1.361 . S
C556 C558 1.500 . S
C557 C552 1.390 . S
C557 C556 1.361 . S
C557 H575 0.931 . S
C558 C556 1.500 . S
C558 C559 1.371 . S
C558 C560 1.365 . S
C559 C558 1.371 . S
C559 C569 1.386 . S
C559 H577 0.931 . S
C560 C558 1.365 . S
C560 C561 1.409 . S
C560 H578 0.929 . S
C561 C560 1.409 . S
C561 C562 1.380 . S
C561 H579 0.930 . S
C562 C561 1.380 . S
C562 C569 1.357 . S
C563 C554 1.511 . S
C563 C564 1.341 . S
C563 C565 1.371 . S
C564 C563 1.341 . S
C564 C568 1.394 . S
C564 H580 0.930 . S
C565 C563 1.371 . S
C565 C566 1.392 . S
C565 H581 0.931 . S
C566 C565 1.392 . S
C566 C567 1.331 . S
C566 H584 0.932 . S
C567 C566 1.331 . S
C567 C568 1.336 . S
C568 C564 1.394 . S
C568 C567 1.336 . S
C568 H583 0.929 . S
C569 C559 1.386 . S
C569 C562 1.357 . S
C569 H582 0.928 . S
H570 C546 0.931 . S
H571 C548 0.930 . S
H572 C550 0.929 . S
H573 C551 0.931 . S
H574 C553 0.930 . S
H575 C557 0.931 . S
H576 C555 0.931 . S
H577 C559 0.931 . S
H578 C560 0.929 . S
H579 C561 0.930 . S
H580 C564 0.930 . S
H581 C565 0.931 . S
H582 C569 0.928 . S
H583 C568 0.929 . S
H584 C566 0.932 . S
C585 C586 1.386 . S
C585 C587 1.397 . S
C585 H609 0.931 . S
C586 C585 1.386 . S
C586 C590 1.397 . S
C587 C585 1.397 . S
C587 C588 1.384 . S
C587 H610 0.930 . S
C588 C587 1.384 . S
C588 C589 1.377 . S
C588 C591 1.481 . S
C589 C588 1.377 . S
C589 C590 1.389 . S
C589 H611 0.929 . S
C590 C586 1.397 . S
C590 C589 1.389 . S
C590 H612 0.931 . S
C591 C588 1.481 . S
C591 C592 1.387 . S
C591 C596 1.390 . S
C592 C591 1.387 . S
C592 C593 1.401 . S
C592 H613 0.930 . S
C593 C592 1.401 . S
C593 C594 1.376 . S
C593 C602 1.511 . S
C594 C593 1.376 . S
C594 C595 1.392 . S
C594 H615 0.931 . S
C595 C594 1.392 . S
C595 C596 1.361 . S
C595 C597 1.500 . S
C596 C591 1.390 . S
C596 C595 1.361 . S
C596 H614 0.931 . S
C597 C595 1.500 . S
C597 C598 1.371 . S
C597 C599 1.365 . S
C598 C597 1.371 . S
C598 C608 1.386 . S
C598 H616 0.931 . S
C599 C597 1.365 . S
C599 C600 1.409 . S
C599 H617 0.929 . S
C600 C599 1.409 . S
C600 C601 1.380 . S
C600 H618 0.930 . S
C601 C600 1.380 . S
C601 C608 1.357 . S
C602 C593 1.511 . S
C602 C603 1.341 . S
C602 C604 1.371 . S
C603 C602 1.341 . S
C603 C607 1.394 . S
C603 H619 0.930 . S
C604 C602 1.371 . S
C604 C605 1.392 . S
C604 H620 0.931 . S
C605 C604 1.392 . S
C605 C606 1.331 . S
C605 H623 0.932 . S
C606 C605 1.331 . S
C606 C607 1.336 . S
C607 C603 1.394 . S
C607 C606 1.336 . S
C607 H622 0.929 . S
C608 C598 1.386 . S
C608 C601 1.357 . S
C608 H621 0.928 . S
H609 C585 0.931 . S
H610 C587 0.930 . S
H611 C589 0.929 . S
H612 C590 0.931 . S
H613 C592 0.930 . S
H614 C596 0.931 . S
H615 C594 0.931 . S
H616 C598 0.931 . S
H617 C599 0.929 . S
H618 C600 0.930 . S
H619 C603 0.930 . S
H620 C604 0.931 . S
H621 C608 0.928 . S
H622 C607 0.929 . S
H623 C605 0.932 . S
C624 C625 1.386 . S
C624 C626 1.397 . S
C624 H648 0.931 . S
C625 C624 1.386 . S
C625 C629 1.397 . S
C626 C624 1.397 . S
C626 C627 1.384 . S
C626 H649 0.930 . S
C627 C626 1.384 . S
C627 C628 1.377 . S
C627 C630 1.481 . S
C628 C627 1.377 . S
C628 C629 1.389 . S
C628 H650 0.929 . S
C629 C625 1.397 . S
C629 C628 1.389 . S
C629 H651 0.931 . S
C630 C627 1.481 . S
C630 C631 1.387 . S
C630 C635 1.390 . S
C631 C630 1.387 . S
C631 C632 1.401 . S
C631 H652 0.930 . S
C632 C631 1.401 . S
C632 C633 1.376 . S
C632 C641 1.511 . S
C633 C632 1.376 . S
C633 C634 1.392 . S
C633 H654 0.931 . S
C634 C633 1.392 . S
C634 C635 1.361 . S
C634 C636 1.500 . S
C635 C630 1.390 . S
C635 C634 1.361 . S
C635 H653 0.931 . S
C636 C634 1.500 . S
C636 C637 1.371 . S
C636 C638 1.365 . S
C637 C636 1.371 . S
C637 C647 1.386 . S
C637 H655 0.931 . S
C638 C636 1.365 . S
C638 C639 1.409 . S
C638 H656 0.929 . S
C639 C638 1.409 . S
C639 C640 1.380 . S
C639 H657 0.930 . S
C640 C639 1.380 . S
C640 C647 1.357 . S
C641 C632 1.511 . S
C641 C642 1.341 . S
C641 C643 1.371 . S
C642 C641 1.341 . S
C642 C646 1.394 . S
C642 H658 0.930 . S
C643 C641 1.371 . S
C643 C644 1.392 . S
C643 H659 0.931 . S
C644 C643 1.392 . S
C644 C645 1.331 . S
C644 H662 0.932 . S
C645 C644 1.331 . S
C645 C646 1.336 . S
C646 C642 1.394 . S
C646 C645 1.336 . S
C646 H661 0.929 . S
C647 C637 1.386 . S
C647 C640 1.357 . S
C647 H660 0.928 . S
H648 C624 0.931 . S
H649 C626 0.930 . S
H650 C628 0.929 . S
H651 C629 0.931 . S
H652 C631 0.930 . S
H653 C635 0.931 . S
H654 C633 0.931 . S
H655 C637 0.931 . S
H656 C638 0.929 . S
H657 C639 0.930 . S
H658 C642 0.930 . S
H659 C643 0.931 . S
H660 C647 0.928 . S
H661 C646 0.929 . S
H662 C644 0.932 . S
C663 C664 1.386 . S
C663 C665 1.397 . S
C663 H687 0.931 . S
C664 C663 1.386 . S
C664 C668 1.397 . S
C665 C663 1.397 . S
C665 C666 1.384 . S
C665 H688 0.930 . S
C666 C665 1.384 . S
C666 C667 1.377 . S
C666 C669 1.481 . S
C667 C666 1.377 . S
C667 C668 1.389 . S
C667 H689 0.929 . S
C668 C664 1.397 . S
C668 C667 1.389 . S
C668 H690 0.931 . S
C669 C666 1.481 . S
C669 C670 1.387 . S
C669 C674 1.390 . S
C670 C669 1.387 . S
C670 C671 1.401 . S
C670 H691 0.930 . S
C671 C670 1.401 . S
C671 C672 1.376 . S
C671 C680 1.511 . S
C672 C671 1.376 . S
C672 C673 1.392 . S
C672 H693 0.931 . S
C673 C672 1.392 . S
C673 C674 1.361 . S
C673 C675 1.500 . S
C674 C669 1.390 . S
C674 C673 1.361 . S
C674 H692 0.931 . S
C675 C673 1.500 . S
C675 C676 1.371 . S
C675 C677 1.365 . S
C676 C675 1.371 . S
C676 C686 1.386 . S
C676 H694 0.931 . S
C677 C675 1.365 . S
C677 C678 1.409 . S
C677 H695 0.929 . S
C678 C677 1.409 . S
C678 C679 1.380 . S
C678 H696 0.930 . S
C679 C678 1.380 . S
C679 C686 1.357 . S
C680 C671 1.511 . S
C680 C681 1.341 . S
C680 C682 1.371 . S
C681 C680 1.341 . S
C681 C685 1.394 . S
C681 H697 0.930 . S
C682 C680 1.371 . S
C682 C683 1.392 . S
C682 H698 0.931 . S
C683 C682 1.392 . S
C683 C684 1.331 . S
C683 H701 0.932 . S
C684 C683 1.331 . S
C684 C685 1.336 . S
C685 C681 1.394 . S
C685 C684 1.336 . S
C685 H700 0.929 . S
C686 C676 1.386 . S
C686 C679 1.357 . S
C686 H699 0.928 . S
H687 C663 0.931 . S
H688 C665 0.930 . S
H689 C667 0.929 . S
H690 C668 0.931 . S
H691 C670 0.930 . S
H692 C674 0.931 . S
H693 C672 0.931 . S
H694 C676 0.931 . S
H695 C677 0.929 . S
H696 C678 0.930 . S
H697 C681 0.930 . S
H698 C682 0.931 . S
H699 C686 0.928 . S
H700 C685 0.929 . S
H701 C683 0.932 . S
C702 C703 1.386 . S
C702 C704 1.397 . S
C702 H726 0.931 . S
C703 C702 1.386 . S
C703 C707 1.397 . S
C704 C702 1.397 . S
C704 C705 1.384 . S
C704 H727 0.930 . S
C705 C704 1.384 . S
C705 C706 1.377 . S
C705 C708 1.481 . S
C706 C705 1.377 . S
C706 C707 1.389 . S
C706 H728 0.929 . S
C707 C703 1.397 . S
C707 C706 1.389 . S
C707 H729 0.931 . S
C708 C705 1.481 . S
C708 C709 1.387 . S
C708 C713 1.390 . S
C709 C708 1.387 . S
C709 C710 1.401 . S
C709 H730 0.930 . S
C710 C709 1.401 . S
C710 C711 1.376 . S
C710 C719 1.511 . S
C711 C710 1.376 . S
C711 C712 1.392 . S
C711 H732 0.931 . S
C712 C711 1.392 . S
C712 C713 1.361 . S
C712 C714 1.500 . S
C713 C708 1.390 . S
C713 C712 1.361 . S
C713 H731 0.931 . S
C714 C712 1.500 . S
C714 C715 1.371 . S
C714 C716 1.365 . S
C715 C714 1.371 . S
C715 C725 1.386 . S
C715 H733 0.931 . S
C716 C714 1.365 . S
C716 C717 1.409 . S
C716 H734 0.929 . S
C717 C716 1.409 . S
C717 C718 1.380 . S
C717 H735 0.930 . S
C718 C717 1.380 . S
C718 C725 1.357 . S
C719 C710 1.511 . S
C719 C720 1.341 . S
C719 C721 1.371 . S
C720 C719 1.341 . S
C720 C724 1.394 . S
C720 H736 0.930 . S
C721 C719 1.371 . S
C721 C722 1.392 . S
C721 H737 0.931 . S
C722 C721 1.392 . S
C722 C723 1.331 . S
C722 H740 0.932 . S
C723 C722 1.331 . S
C723 C724 1.336 . S
C724 C720 1.394 . S
C724 C723 1.336 . S
C724 H739 0.929 . S
C725 C715 1.386 . S
C725 C718 1.357 . S
C725 H738 0.928 . S
H726 C702 0.931 . S
H727 C704 0.930 . S
H728 C706 0.929 . S
H729 C707 0.931 . S
H730 C709 0.930 . S
H731 C713 0.931 . S
H732 C711 0.931 . S
H733 C715 0.931 . S
H734 C716 0.929 . S
H735 C717 0.930 . S
H736 C720 0.930 . S
H737 C721 0.931 . S
H738 C725 0.928 . S
H739 C724 0.929 . S
H740 C722 0.932 . S
C741 C742 1.386 . S
C741 C743 1.397 . S
C741 H765 0.931 . S
C742 C741 1.386 . S
C742 C746 1.397 . S
C743 C741 1.397 . S
C743 C744 1.384 . S
C743 H766 0.930 . S
C744 C743 1.384 . S
C744 C745 1.377 . S
C744 C747 1.481 . S
C745 C744 1.377 . S
C745 C746 1.389 . S
C745 H767 0.929 . S
C746 C742 1.397 . S
C746 C745 1.389 . S
C746 H768 0.931 . S
C747 C744 1.481 . S
C747 C748 1.387 . S
C747 C752 1.390 . S
C748 C747 1.387 . S
C748 C749 1.401 . S
C748 H769 0.930 . S
C749 C748 1.401 . S
C749 C750 1.376 . S
C749 C758 1.511 . S
C750 C749 1.376 . S
C750 C751 1.392 . S
C750 H771 0.931 . S
C751 C750 1.392 . S
C751 C752 1.361 . S
C751 C753 1.500 . S
C752 C747 1.390 . S
C752 C751 1.361 . S
C752 H770 0.931 . S
C753 C751 1.500 . S
C753 C754 1.371 . S
C753 C755 1.365 . S
C754 C753 1.371 . S
C754 C764 1.386 . S
C754 H772 0.931 . S
C755 C753 1.365 . S
C755 C756 1.409 . S
C755 H773 0.929 . S
C756 C755 1.409 . S
C756 C757 1.380 . S
C756 H774 0.930 . S
C757 C756 1.380 . S
C757 C764 1.357 . S
C758 C749 1.511 . S
C758 C759 1.341 . S
C758 C760 1.371 . S
C759 C758 1.341 . S
C759 C763 1.394 . S
C759 H775 0.930 . S
C760 C758 1.371 . S
C760 C761 1.392 . S
C760 H776 0.931 . S
C761 C760 1.392 . S
C761 C762 1.331 . S
C761 H779 0.932 . S
C762 C761 1.331 . S
C762 C763 1.336 . S
C763 C759 1.394 . S
C763 C762 1.336 . S
C763 H778 0.929 . S
C764 C754 1.386 . S
C764 C757 1.357 . S
C764 H777 0.928 . S
H765 C741 0.931 . S
H766 C743 0.930 . S
H767 C745 0.929 . S
H768 C746 0.931 . S
H769 C748 0.930 . S
H770 C752 0.931 . S
H771 C750 0.931 . S
H772 C754 0.931 . S
H773 C755 0.929 . S
H774 C756 0.930 . S
H775 C759 0.930 . S
H776 C760 0.931 . S
H777 C764 0.928 . S
H778 C763 0.929 . S
H779 C761 0.932 . S
C780 C781 1.386 . S
C780 C782 1.397 . S
C780 H804 0.931 . S
C781 C780 1.386 . S
C781 C785 1.397 . S
C782 C780 1.397 . S
C782 C783 1.384 . S
C782 H805 0.930 . S
C783 C782 1.384 . S
C783 C784 1.377 . S
C783 C786 1.481 . S
C784 C783 1.377 . S
C784 C785 1.389 . S
C784 H806 0.929 . S
C785 C781 1.397 . S
C785 C784 1.389 . S
C785 H807 0.931 . S
C786 C783 1.481 . S
C786 C787 1.387 . S
C786 C791 1.390 . S
C787 C786 1.387 . S
C787 C788 1.401 . S
C787 H808 0.930 . S
C788 C787 1.401 . S
C788 C789 1.376 . S
C788 C797 1.511 . S
C789 C788 1.376 . S
C789 C790 1.392 . S
C789 H810 0.931 . S
C790 C789 1.392 . S
C790 C791 1.361 . S
C790 C792 1.500 . S
C791 C786 1.390 . S
C791 C790 1.361 . S
C791 H809 0.931 . S
C792 C790 1.500 . S
C792 C793 1.371 . S
C792 C794 1.365 . S
C793 C792 1.371 . S
C793 C803 1.386 . S
C793 H811 0.931 . S
C794 C792 1.365 . S
C794 C795 1.409 . S
C794 H812 0.929 . S
C795 C794 1.409 . S
C795 C796 1.380 . S
C795 H813 0.930 . S
C796 C795 1.380 . S
C796 C803 1.357 . S
C797 C788 1.511 . S
C797 C798 1.341 . S
C797 C799 1.371 . S
C798 C797 1.341 . S
C798 C802 1.394 . S
C798 H814 0.930 . S
C799 C797 1.371 . S
C799 C800 1.392 . S
C799 H815 0.931 . S
C800 C799 1.392 . S
C800 C801 1.331 . S
C800 H818 0.932 . S
C801 C800 1.331 . S
C801 C802 1.336 . S
C802 C798 1.394 . S
C802 C801 1.336 . S
C802 H817 0.929 . S
C803 C793 1.386 . S
C803 C796 1.357 . S
C803 H816 0.928 . S
H804 C780 0.931 . S
H805 C782 0.930 . S
H806 C784 0.929 . S
H807 C785 0.931 . S
H808 C787 0.930 . S
H809 C791 0.931 . S
H810 C789 0.931 . S
H811 C793 0.931 . S
H812 C794 0.929 . S
H813 C795 0.930 . S
H814 C798 0.930 . S
H815 C799 0.931 . S
H816 C803 0.928 . S
H817 C802 0.929 . S
H818 C800 0.932 . S
C819 C820 1.386 . S
C819 C821 1.397 . S
C819 H843 0.931 . S
C820 C819 1.386 . S
C820 C824 1.397 . S
C821 C819 1.397 . S
C821 C822 1.384 . S
C821 H844 0.930 . S
C822 C821 1.384 . S
C822 C823 1.377 . S
C822 C825 1.481 . S
C823 C822 1.377 . S
C823 C824 1.389 . S
C823 H845 0.929 . S
C824 C820 1.397 . S
C824 C823 1.389 . S
C824 H846 0.931 . S
C825 C822 1.481 . S
C825 C826 1.387 . S
C825 C830 1.390 . S
C826 C825 1.387 . S
C826 C827 1.401 . S
C826 H847 0.930 . S
C827 C826 1.401 . S
C827 C828 1.376 . S
C827 C836 1.511 . S
C828 C827 1.376 . S
C828 C829 1.392 . S
C828 H849 0.931 . S
C829 C828 1.392 . S
C829 C830 1.361 . S
C829 C831 1.500 . S
C830 C825 1.390 . S
C830 C829 1.361 . S
C830 H848 0.931 . S
C831 C829 1.500 . S
C831 C832 1.371 . S
C831 C833 1.365 . S
C832 C831 1.371 . S
C832 C842 1.386 . S
C832 H850 0.931 . S
C833 C831 1.365 . S
C833 C834 1.409 . S
C833 H851 0.929 . S
C834 C833 1.409 . S
C834 C835 1.380 . S
C834 H852 0.930 . S
C835 C834 1.380 . S
C835 C842 1.357 . S
C836 C827 1.511 . S
C836 C837 1.341 . S
C836 C838 1.371 . S
C837 C836 1.341 . S
C837 C841 1.394 . S
C837 H853 0.930 . S
C838 C836 1.371 . S
C838 C839 1.392 . S
C838 H854 0.931 . S
C839 C838 1.392 . S
C839 C840 1.331 . S
C839 H857 0.932 . S
C840 C839 1.331 . S
C840 C841 1.336 . S
C841 C837 1.394 . S
C841 C840 1.336 . S
C841 H856 0.929 . S
C842 C832 1.386 . S
C842 C835 1.357 . S
C842 H855 0.928 . S
H843 C819 0.931 . S
H844 C821 0.930 . S
H845 C823 0.929 . S
H846 C824 0.931 . S
H847 C826 0.930 . S
H848 C830 0.931 . S
H849 C828 0.931 . S
H850 C832 0.931 . S
H851 C833 0.929 . S
H852 C834 0.930 . S
H853 C837 0.930 . S
H854 C838 0.931 . S
H855 C842 0.928 . S
H856 C841 0.929 . S
H857 C839 0.932 . S
C858 C859 1.386 . S
C858 C860 1.397 . S
C858 H882 0.931 . S
C859 C858 1.386 . S
C859 C863 1.397 . S
C860 C858 1.397 . S
C860 C861 1.384 . S
C860 H883 0.930 . S
C861 C860 1.384 . S
C861 C862 1.377 . S
C861 C864 1.481 . S
C862 C861 1.377 . S
C862 C863 1.389 . S
C862 H884 0.929 . S
C863 C859 1.397 . S
C863 C862 1.389 . S
C863 H885 0.931 . S
C864 C861 1.481 . S
C864 C865 1.387 . S
C864 C869 1.390 . S
C865 C864 1.387 . S
C865 C866 1.401 . S
C865 H886 0.930 . S
C866 C865 1.401 . S
C866 C867 1.376 . S
C866 C875 1.511 . S
C867 C866 1.376 . S
C867 C868 1.392 . S
C867 H888 0.931 . S
C868 C867 1.392 . S
C868 C869 1.361 . S
C868 C870 1.500 . S
C869 C864 1.390 . S
C869 C868 1.361 . S
C869 H887 0.931 . S
C870 C868 1.500 . S
C870 C871 1.371 . S
C870 C872 1.365 . S
C871 C870 1.371 . S
C871 C881 1.386 . S
C871 H889 0.931 . S
C872 C870 1.365 . S
C872 C873 1.409 . S
C872 H890 0.929 . S
C873 C872 1.409 . S
C873 C874 1.380 . S
C873 H891 0.930 . S
C874 C873 1.380 . S
C874 C881 1.357 . S
C875 C866 1.511 . S
C875 C876 1.341 . S
C875 C877 1.371 . S
C876 C875 1.341 . S
C876 C880 1.394 . S
C876 H892 0.930 . S
C877 C875 1.371 . S
C877 C878 1.392 . S
C877 H893 0.931 . S
C878 C877 1.392 . S
C878 C879 1.331 . S
C878 H896 0.932 . S
C879 C878 1.331 . S
C879 C880 1.336 . S
C880 C876 1.394 . S
C880 C879 1.336 . S
C880 H895 0.929 . S
C881 C871 1.386 . S
C881 C874 1.357 . S
C881 H894 0.928 . S
H882 C858 0.931 . S
H883 C860 0.930 . S
H884 C862 0.929 . S
H885 C863 0.931 . S
H886 C865 0.930 . S
H887 C869 0.931 . S
H888 C867 0.931 . S
H889 C871 0.931 . S
H890 C872 0.929 . S
H891 C873 0.930 . S
H892 C876 0.930 . S
H893 C877 0.931 . S
H894 C881 0.928 . S
H895 C880 0.929 . S
H896 C878 0.932 . S
C897 C898 1.386 . S
C897 C899 1.397 . S
C897 H921 0.931 . S
C898 C897 1.386 . S
C898 C902 1.397 . S
C899 C897 1.397 . S
C899 C900 1.384 . S
C899 H922 0.930 . S
C900 C899 1.384 . S
C900 C901 1.377 . S
C900 C903 1.481 . S
C901 C900 1.377 . S
C901 C902 1.389 . S
C901 H923 0.929 . S
C902 C898 1.397 . S
C902 C901 1.389 . S
C902 H924 0.931 . S
C903 C900 1.481 . S
C903 C904 1.387 . S
C903 C908 1.390 . S
C904 C903 1.387 . S
C904 C905 1.401 . S
C904 H925 0.930 . S
C905 C904 1.401 . S
C905 C906 1.376 . S
C905 C914 1.511 . S
C906 C905 1.376 . S
C906 C907 1.392 . S
C906 H927 0.931 . S
C907 C906 1.392 . S
C907 C908 1.361 . S
C907 C909 1.500 . S
C908 C903 1.390 . S
C908 C907 1.361 . S
C908 H926 0.931 . S
C909 C907 1.500 . S
C909 C910 1.371 . S
C909 C911 1.365 . S
C910 C909 1.371 . S
C910 C920 1.386 . S
C910 H928 0.931 . S
C911 C909 1.365 . S
C911 C912 1.409 . S
C911 H929 0.929 . S
C912 C911 1.409 . S
C912 C913 1.380 . S
C912 H930 0.930 . S
C913 C912 1.380 . S
C913 C920 1.357 . S
C914 C905 1.511 . S
C914 C915 1.341 . S
C914 C916 1.371 . S
C915 C914 1.341 . S
C915 C919 1.394 . S
C915 H931 0.930 . S
C916 C914 1.371 . S
C916 C917 1.392 . S
C916 H932 0.931 . S
C917 C916 1.392 . S
C917 C918 1.331 . S
C917 H935 0.932 . S
C918 C917 1.331 . S
C918 C919 1.336 . S
C919 C915 1.394 . S
C919 C918 1.336 . S
C919 H934 0.929 . S
C920 C910 1.386 . S
C920 C913 1.357 . S
C920 H933 0.928 . S
H921 C897 0.931 . S
H922 C899 0.930 . S
H923 C901 0.929 . S
H924 C902 0.931 . S
H925 C904 0.930 . S
H926 C908 0.931 . S
H927 C906 0.931 . S
H928 C910 0.931 . S
H929 C911 0.929 . S
H930 C912 0.930 . S
H931 C915 0.930 . S
H932 C916 0.931 . S
H933 C920 0.928 . S
H934 C919 0.929 . S
H935 C917 0.932 . S
C936 O962 1.283 . S
C936 O980 1.283 . S
C937 O963 1.283 . S
C937 O978 1.283 . S
C938 O964 1.283 . S
C938 O981 1.283 . S
C939 O965 1.283 . S
C939 O979 1.283 . S
C940 O966 1.283 . S
C940 O975 1.283 . S
C941 O967 1.283 . S
C941 O977 1.283 . S
C942 O968 1.283 . S
C942 O974 1.283 . S
C943 O969 1.283 . S
C943 O976 1.283 . S
C944 O970 1.283 . S
C944 O985 1.283 . S
C945 O971 1.283 . S
C945 O983 1.283 . S
C946 O972 1.283 . S
C946 O984 1.283 . S
C947 O973 1.283 . S
C947 O982 1.283 . S
Eu948 O949 2.370 1_455 S
Eu948 O950 2.370 . S
Eu948 O953 2.370 1_455 S
Eu948 O954 2.370 . S
Eu948 O962 2.363 . S
Eu948 O963 2.363 . S
Eu948 O976 2.363 . S
Eu948 O977 2.363 1_455 S
O949 Eu948 2.370 1_655 S
O949 Eu951 2.370 1_565 S
O949 Eu956 2.369 1_665 S
O950 Eu948 2.370 . S
O950 Eu952 2.370 1_565 S
O950 Eu955 2.370 1_565 S
Eu951 O949 2.370 1_545 S
Eu951 O953 2.370 1_545 S
Eu951 O957 2.371 . S
Eu951 O958 2.371 . S
Eu951 O966 2.364 . S
Eu951 O967 2.362 1_545 S
Eu951 O982 2.363 . S
Eu951 O983 2.363 . S
Eu952 O950 2.370 1_545 S
Eu952 O954 2.370 1_545 S
Eu952 O959 2.371 . S
Eu952 O960 2.371 . S
Eu952 O968 2.364 . S
Eu952 O969 2.362 1_545 S
Eu952 O984 2.363 . S
Eu952 O985 2.363 . S
O953 Eu948 2.370 1_655 S
O953 Eu951 2.370 1_565 S
O953 Eu955 2.370 1_665 S
O954 Eu948 2.370 . S
O954 Eu952 2.370 1_565 S
O954 Eu956 2.369 1_565 S
Eu955 O950 2.370 1_545 S
Eu955 O953 2.370 1_445 S
Eu955 O957 2.370 1_455 S
Eu955 O960 2.370 . S
Eu955 O972 2.363 . S
Eu955 O973 2.363 1_455 S
Eu955 O980 2.363 1_545 S
Eu955 O981 2.363 . S
Eu956 O949 2.369 1_445 S
Eu956 O954 2.369 1_545 S
Eu956 O958 2.371 1_455 S
Eu956 O959 2.371 . S
Eu956 O970 2.363 . S
Eu956 O971 2.363 1_455 S
Eu956 O978 2.361 1_545 S
Eu956 O979 2.365 . S
O957 Eu951 2.371 . S
O957 Eu955 2.370 1_655 S
O957 Eu961 2.370 1_655 S
O958 Eu951 2.371 . S
O958 Eu956 2.371 1_655 S
O958 Eu961 2.370 1_655 S
O959 Eu952 2.371 . S
O959 Eu956 2.371 . S
O959 Eu961 2.370 . S
O960 Eu952 2.371 . S
O960 Eu955 2.370 . S
O960 Eu961 2.370 . S
Eu961 O957 2.370 1_455 S
Eu961 O958 2.370 1_455 S
Eu961 O959 2.370 . S
Eu961 O960 2.370 . S
Eu961 O964 2.363 . S
Eu961 O965 2.363 . S
Eu961 O974 2.363 . S
Eu961 O975 2.363 1_455 S
O962 C936 1.283 . S
O962 Eu948 2.363 . S
O963 C937 1.283 . S
O963 Eu948 2.363 . S
O964 C938 1.283 . S
O964 Eu961 2.363 . S
O965 C939 1.283 . S
O965 Eu961 2.363 . S
O966 C940 1.283 . S
O966 Eu951 2.364 . S
O967 C941 1.283 . S
O967 Eu951 2.362 1_565 S
O968 C942 1.283 . S
O968 Eu952 2.364 . S
O969 C943 1.283 . S
O969 Eu952 2.362 1_565 S
O970 C944 1.283 . S
O970 Eu956 2.363 . S
O971 C945 1.283 . S
O971 Eu956 2.363 1_655 S
O972 C946 1.283 . S
O972 Eu955 2.363 . S
O973 C947 1.283 . S
O973 Eu955 2.363 1_655 S
O974 C942 1.283 . S
O974 Eu961 2.363 . S
O975 C940 1.283 . S
O975 Eu961 2.363 1_655 S
O976 C943 1.283 . S
O976 Eu948 2.363 . S
O977 C941 1.283 . S
O977 Eu948 2.363 1_655 S
O978 C937 1.283 . S
O978 Eu956 2.361 1_565 S
O979 C939 1.283 . S
O979 Eu956 2.365 . S
O980 C936 1.283 . S
O980 Eu955 2.363 1_565 S
O981 C938 1.283 . S
O981 Eu955 2.363 . S
O982 C947 1.283 . S
O982 Eu951 2.363 . S
O983 C945 1.283 . S
O983 Eu951 2.363 . S
O984 C946 1.283 . S
O984 Eu952 2.363 . S
O985 C944 1.283 . S
O985 Eu952 2.363 . S
C986 O1012 1.283 . S
C986 O1030 1.283 . S
C987 O1013 1.283 . S
C987 O1028 1.283 . S
C988 O1014 1.283 . S
C988 O1031 1.283 . S
C989 O1015 1.283 . S
C989 O1029 1.283 . S
C990 O1016 1.283 1_565 S
C990 O1025 1.283 . S
C991 O1017 1.283 . S
C991 O1027 1.283 . S
C992 O1018 1.283 1_565 S
C992 O1024 1.283 . S
C993 O1019 1.283 . S
C993 O1026 1.283 . S
C994 O1020 1.283 . S
C994 O1035 1.283 1_556 S
C995 O1021 1.283 . S
C995 O1033 1.283 1_556 S
C996 O1022 1.283 . S
C996 O1034 1.283 . S
C997 O1023 1.283 . S
C997 O1032 1.283 . S
Eu998 O999 2.373 . S
Eu998 O1000 2.368 1_545 S
Eu998 O1003 2.368 1_545 S
Eu998 O1004 2.373 . S
Eu998 O1012 2.359 1_545 S
Eu998 O1013 2.367 . S
Eu998 O1026 2.363 . S
Eu998 O1027 2.363 . S
O999 Eu998 2.373 . S
O999 Eu1001 2.371 . S
O999 Eu1006 2.368 . S
O1000 Eu998 2.368 1_565 S
O1000 Eu1002 2.370 1_565 S
O1000 Eu1005 2.373 . S
Eu1001 O999 2.371 . S
Eu1001 O1003 2.370 1_545 S
Eu1001 O1007 2.369 1_544 S
Eu1001 O1008 2.370 1_554 S
Eu1001 O1016 2.362 1_554 S
Eu1001 O1017 2.364 . S
Eu1001 O1032 2.362 1_545 S
Eu1001 O1033 2.364 . S
Eu1002 O1000 2.370 1_545 S
Eu1002 O1004 2.371 . S
Eu1002 O1009 2.370 1_554 S
Eu1002 O1010 2.369 1_544 S
Eu1002 O1018 2.362 1_554 S
Eu1002 O1019 2.364 . S
Eu1002 O1034 2.362 1_545 S
Eu1002 O1035 2.364 . S
O1003 Eu998 2.368 1_565 S
O1003 Eu1001 2.370 1_565 S
O1003 Eu1005 2.373 . S
O1004 Eu998 2.373 . S
O1004 Eu1002 2.371 . S
O1004 Eu1006 2.368 . S
Eu1005 O1000 2.373 . S
Eu1005 O1003 2.373 . S
Eu1005 O1007 2.368 1_554 S
Eu1005 O1010 2.368 1_554 S
Eu1005 O1022 2.363 . S
Eu1005 O1023 2.363 . S
Eu1005 O1030 2.367 . S
Eu1005 O1031 2.359 1_554 S
Eu1006 O999 2.368 . S
Eu1006 O1004 2.368 . S
Eu1006 O1008 2.372 1_554 S
Eu1006 O1009 2.372 1_554 S
Eu1006 O1020 2.363 1_554 S
Eu1006 O1021 2.363 1_554 S
Eu1006 O1028 2.360 . S
Eu1006 O1029 2.366 1_554 S
O1007 Eu1001 2.369 1_566 S
O1007 Eu1005 2.368 1_556 S
O1007 Eu1011 2.372 1_565 S
O1008 Eu1001 2.370 1_556 S
O1008 Eu1006 2.372 1_556 S
O1008 Eu1011 2.368 . S
O1009 Eu1002 2.370 1_556 S
O1009 Eu1006 2.372 1_556 S
O1009 Eu1011 2.368 . S
O1010 Eu1002 2.369 1_566 S
O1010 Eu1005 2.368 1_556 S
O1010 Eu1011 2.372 1_565 S
Eu1011 O1007 2.372 1_545 S
Eu1011 O1008 2.368 . S
Eu1011 O1009 2.368 . S
Eu1011 O1010 2.372 1_545 S
Eu1011 O1014 2.366 1_545 S
Eu1011 O1015 2.360 . S
Eu1011 O1024 2.363 1_545 S
Eu1011 O1025 2.363 1_545 S
O1012 C986 1.283 . S
O1012 Eu998 2.359 1_565 S
O1013 C987 1.283 . S
O1013 Eu998 2.367 . S
O1014 C988 1.283 . S
O1014 Eu1011 2.366 1_565 S
O1015 C989 1.283 . S
O1015 Eu1011 2.360 . S
O1016 C990 1.283 1_545 S
O1016 Eu1001 2.362 1_556 S
O1017 C991 1.283 . S
O1017 Eu1001 2.364 . S
O1018 C992 1.283 1_545 S
O1018 Eu1002 2.362 1_556 S
O1019 C993 1.283 . S
O1019 Eu1002 2.364 . S
O1020 C994 1.283 . S
O1020 Eu1006 2.363 1_556 S
O1021 C995 1.283 . S
O1021 Eu1006 2.363 1_556 S
O1022 C996 1.283 . S
O1022 Eu1005 2.363 . S
O1023 C997 1.283 . S
O1023 Eu1005 2.363 . S
O1024 C992 1.283 . S
O1024 Eu1011 2.363 1_565 S
O1025 C990 1.283 . S
O1025 Eu1011 2.363 1_565 S
O1026 C993 1.283 . S
O1026 Eu998 2.363 . S
O1027 C991 1.283 . S
O1027 Eu998 2.363 . S
O1028 C987 1.283 . S
O1028 Eu1006 2.360 . S
O1029 C989 1.283 . S
O1029 Eu1006 2.366 1_556 S
O1030 C986 1.283 . S
O1030 Eu1005 2.367 . S
O1031 C988 1.283 . S
O1031 Eu1005 2.359 1_556 S
O1032 C997 1.283 . S
O1032 Eu1001 2.362 1_565 S
O1033 C995 1.283 1_554 S
O1033 Eu1001 2.364 . S
O1034 C996 1.283 . S
O1034 Eu1002 2.362 1_565 S
O1035 C994 1.283 1_554 S
O1035 Eu1002 2.364 . S
C1036 O1062 1.283 . S
C1036 O1080 1.283 . S
C1037 O1063 1.283 . S
C1037 O1078 1.283 . S
C1038 O1064 1.283 . S
C1038 O1081 1.283 . S
C1039 O1065 1.283 . S
C1039 O1079 1.283 . S
C1040 O1066 1.283 . S
C1040 O1075 1.283 . S
C1041 O1067 1.283 . S
C1041 O1077 1.283 . S
C1042 O1068 1.283 . S
C1042 O1074 1.283 . S
C1043 O1069 1.283 . S
C1043 O1076 1.283 . S
C1044 O1070 1.283 . S
C1044 O1085 1.283 . S
C1045 O1071 1.283 . S
C1045 O1083 1.283 . S
C1046 O1072 1.283 . S
C1046 O1084 1.283 . S
C1047 O1073 1.283 . S
C1047 O1082 1.283 . S
Eu1048 O1049 2.370 1_454 S
Eu1048 O1050 2.370 . S
Eu1048 O1053 2.370 1_455 S
Eu1048 O1054 2.370 1_554 S
Eu1048 O1062 2.363 . S
Eu1048 O1063 2.363 1_554 S
Eu1048 O1076 2.363 . S
Eu1048 O1077 2.363 1_455 S
O1049 Eu1048 2.370 1_656 S
O1049 Eu1051 2.370 1_556 S
O1049 Eu1056 2.370 1_655 S
O1050 Eu1048 2.370 . S
O1050 Eu1052 2.371 . S
O1050 Eu1055 2.370 . S
Eu1051 O1049 2.370 1_554 S
Eu1051 O1053 2.371 . S
Eu1051 O1057 2.371 . S
Eu1051 O1058 2.370 1_554 S
Eu1051 O1066 2.363 . S
Eu1051 O1067 2.363 . S
Eu1051 O1082 2.364 . S
Eu1051 O1083 2.362 1_554 S
Eu1052 O1050 2.371 . S
Eu1052 O1054 2.370 1_554 S
Eu1052 O1059 2.370 1_554 S
Eu1052 O1060 2.371 . S
Eu1052 O1068 2.363 . S
Eu1052 O1069 2.363 . S
Eu1052 O1084 2.364 . S
Eu1052 O1085 2.362 1_554 S
O1053 Eu1048 2.370 1_655 S
O1053 Eu1051 2.371 . S
O1053 Eu1055 2.370 1_655 S
O1054 Eu1048 2.370 1_556 S
O1054 Eu1052 2.370 1_556 S
O1054 Eu1056 2.370 . S
Eu1055 O1050 2.370 . S
Eu1055 O1053 2.370 1_455 S
Eu1055 O1057 2.370 1_455 S
Eu1055 O1060 2.370 . S
Eu1055 O1072 2.363 . S
Eu1055 O1073 2.363 1_455 S
Eu1055 O1080 2.363 . S
Eu1055 O1081 2.363 . S
Eu1056 O1049 2.370 1_455 S
Eu1056 O1054 2.370 . S
Eu1056 O1058 2.370 1_455 S
Eu1056 O1059 2.370 . S
Eu1056 O1070 2.363 . S
Eu1056 O1071 2.363 1_455 S
Eu1056 O1078 2.363 . S
Eu1056 O1079 2.363 . S
O1057 Eu1051 2.371 . S
O1057 Eu1055 2.370 1_655 S
O1057 Eu1061 2.371 1_655 S
O1058 Eu1051 2.370 1_556 S
O1058 Eu1056 2.370 1_655 S
O1058 Eu1061 2.369 1_656 S
O1059 Eu1052 2.370 1_556 S
O1059 Eu1056 2.370 . S
O1059 Eu1061 2.369 1_556 S
O1060 Eu1052 2.371 . S
O1060 Eu1055 2.370 . S
O1060 Eu1061 2.371 . S
Eu1061 O1057 2.371 1_455 S
Eu1061 O1058 2.369 1_454 S
Eu1061 O1059 2.369 1_554 S
Eu1061 O1060 2.371 . S
Eu1061 O1064 2.365 . S
Eu1061 O1065 2.361 1_554 S
Eu1061 O1074 2.363 . S
Eu1061 O1075 2.363 1_455 S
O1062 C1036 1.283 . S
O1062 Eu1048 2.363 . S
O1063 C1037 1.283 . S
O1063 Eu1048 2.363 1_556 S
O1064 C1038 1.283 . S
O1064 Eu1061 2.365 . S
O1065 C1039 1.283 . S
O1065 Eu1061 2.361 1_556 S
O1066 C1040 1.283 . S
O1066 Eu1051 2.363 . S
O1067 C1041 1.283 . S
O1067 Eu1051 2.363 . S
O1068 C1042 1.283 . S
O1068 Eu1052 2.363 . S
O1069 C1043 1.283 . S
O1069 Eu1052 2.363 . S
O1070 C1044 1.283 . S
O1070 Eu1056 2.363 . S
O1071 C1045 1.283 . S
O1071 Eu1056 2.363 1_655 S
O1072 C1046 1.283 . S
O1072 Eu1055 2.363 . S
O1073 C1047 1.283 . S
O1073 Eu1055 2.363 1_655 S
O1074 C1042 1.283 . S
O1074 Eu1061 2.363 . S
O1075 C1040 1.283 . S
O1075 Eu1061 2.363 1_655 S
O1076 C1043 1.283 . S
O1076 Eu1048 2.363 . S
O1077 C1041 1.283 . S
O1077 Eu1048 2.363 1_655 S
O1078 C1037 1.283 . S
O1078 Eu1056 2.363 . S
O1079 C1039 1.283 . S
O1079 Eu1056 2.363 . S
O1080 C1036 1.283 . S
O1080 Eu1055 2.363 . S
O1081 C1038 1.283 . S
O1081 Eu1055 2.363 . S
O1082 C1047 1.283 . S
O1082 Eu1051 2.364 . S
O1083 C1045 1.283 . S
O1083 Eu1051 2.362 1_556 S
O1084 C1046 1.283 . S
O1084 Eu1052 2.364 . S
O1085 C1044 1.283 . S
O1085 Eu1052 2.362 1_556 S
C1086 O1112 1.283 . S
C1086 O1130 1.283 . S
C1087 O1113 1.283 . S
C1087 O1128 1.283 . S
C1088 O1114 1.283 . S
C1088 O1131 1.283 . S
C1089 O1115 1.283 . S
C1089 O1129 1.283 . S
C1090 O1116 1.283 . S
C1090 O1125 1.283 . S
C1091 O1117 1.283 . S
C1091 O1127 1.283 . S
C1092 O1118 1.283 . S
C1092 O1124 1.283 . S
C1093 O1119 1.283 . S
C1093 O1126 1.283 . S
C1094 O1120 1.283 . S
C1094 O1135 1.283 . S
C1095 O1121 1.283 . S
C1095 O1133 1.283 . S
C1096 O1122 1.283 . S
C1096 O1134 1.283 . S
C1097 O1123 1.283 . S
C1097 O1132 1.283 . S
Eu1098 O1099 2.370 . S
Eu1098 O1100 2.370 . S
Eu1098 O1103 2.370 . S
Eu1098 O1104 2.370 . S
Eu1098 O1112 2.363 . S
Eu1098 O1113 2.363 . S
Eu1098 O1126 2.363 . S
Eu1098 O1127 2.363 . S
O1099 Eu1098 2.370 . S
O1099 Eu1101 2.371 . S
O1099 Eu1106 2.371 . S
O1100 Eu1098 2.370 . S
O1100 Eu1102 2.371 . S
O1100 Eu1105 2.370 . S
Eu1101 O1099 2.371 . S
Eu1101 O1103 2.371 . S
Eu1101 O1107 2.370 1_554 S
Eu1101 O1108 2.370 1_554 S
Eu1101 O1116 2.362 1_554 S
Eu1101 O1117 2.364 . S
Eu1101 O1132 2.363 . S
Eu1101 O1133 2.363 . S
Eu1102 O1100 2.371 . S
Eu1102 O1104 2.371 . S
Eu1102 O1109 2.370 1_554 S
Eu1102 O1110 2.370 1_554 S
Eu1102 O1118 2.362 1_554 S
Eu1102 O1119 2.364 . S
Eu1102 O1134 2.363 . S
Eu1102 O1135 2.363 . S
O1103 Eu1098 2.370 . S
O1103 Eu1101 2.371 . S
O1103 Eu1105 2.370 . S
O1104 Eu1098 2.370 . S
O1104 Eu1102 2.371 . S
O1104 Eu1106 2.371 . S
Eu1105 O1100 2.370 . S
Eu1105 O1103 2.370 . S
Eu1105 O1107 2.370 1_554 S
Eu1105 O1110 2.370 1_554 S
Eu1105 O1122 2.363 . S
Eu1105 O1123 2.363 . S
Eu1105 O1130 2.363 . S
Eu1105 O1131 2.363 1_554 S
Eu1106 O1099 2.371 . S
Eu1106 O1104 2.371 . S
Eu1106 O1108 2.369 1_554 S
Eu1106 O1109 2.369 1_554 S
Eu1106 O1120 2.363 . S
Eu1106 O1121 2.363 . S
Eu1106 O1128 2.365 . S
Eu1106 O1129 2.361 1_554 S
O1107 Eu1101 2.370 1_556 S
O1107 Eu1105 2.370 1_556 S
O1107 Eu1111 2.370 . S
O1108 Eu1101 2.370 1_556 S
O1108 Eu1106 2.369 1_556 S
O1108 Eu1111 2.370 . S
O1109 Eu1102 2.370 1_556 S
O1109 Eu1106 2.369 1_556 S
O1109 Eu1111 2.370 . S
O1110 Eu1102 2.370 1_556 S
O1110 Eu1105 2.370 1_556 S
O1110 Eu1111 2.370 . S
Eu1111 O1107 2.370 . S
Eu1111 O1108 2.370 . S
Eu1111 O1109 2.370 . S
Eu1111 O1110 2.370 . S
Eu1111 O1114 2.363 . S
Eu1111 O1115 2.363 . S
Eu1111 O1124 2.363 . S
Eu1111 O1125 2.363 . S
O1112 C1086 1.283 . S
O1112 Eu1098 2.363 . S
O1113 C1087 1.283 . S
O1113 Eu1098 2.363 . S
O1114 C1088 1.283 . S
O1114 Eu1111 2.363 . S
O1115 C1089 1.283 . S
O1115 Eu1111 2.363 . S
O1116 C1090 1.283 . S
O1116 Eu1101 2.362 1_556 S
O1117 C1091 1.283 . S
O1117 Eu1101 2.364 . S
O1118 C1092 1.283 . S
O1118 Eu1102 2.362 1_556 S
O1119 C1093 1.283 . S
O1119 Eu1102 2.364 . S
O1120 C1094 1.283 . S
O1120 Eu1106 2.363 . S
O1121 C1095 1.283 . S
O1121 Eu1106 2.363 . S
O1122 C1096 1.283 . S
O1122 Eu1105 2.363 . S
O1123 C1097 1.283 . S
O1123 Eu1105 2.363 . S
O1124 C1092 1.283 . S
O1124 Eu1111 2.363 . S
O1125 C1090 1.283 . S
O1125 Eu1111 2.363 . S
O1126 C1093 1.283 . S
O1126 Eu1098 2.363 . S
O1127 C1091 1.283 . S
O1127 Eu1098 2.363 . S
O1128 C1087 1.283 . S
O1128 Eu1106 2.365 . S
O1129 C1089 1.283 . S
O1129 Eu1106 2.361 1_556 S
O1130 C1086 1.283 . S
O1130 Eu1105 2.363 . S
O1131 C1088 1.283 . S
O1131 Eu1105 2.363 1_556 S
O1132 C1097 1.283 . S
O1132 Eu1101 2.363 . S
O1133 C1095 1.283 . S
O1133 Eu1101 2.363 . S
O1134 C1096 1.283 . S
O1134 Eu1102 2.363 . S
O1135 C1094 1.283 . S
O1135 Eu1102 2.363 . S
C1136 O1162 1.283 . S
C1136 O1180 1.283 . S
C1137 O1163 1.283 . S
C1137 O1178 1.283 . S
C1138 O1164 1.283 . S
C1138 O1181 1.283 . S
C1139 O1165 1.283 . S
C1139 O1179 1.283 . S
C1140 O1166 1.283 . S
C1140 O1175 1.283 . S
C1141 O1167 1.283 . S
C1141 O1177 1.283 . S
C1142 O1168 1.283 . S
C1142 O1174 1.283 . S
C1143 O1169 1.283 . S
C1143 O1176 1.283 . S
C1144 O1170 1.283 . S
C1144 O1185 1.283 . S
C1145 O1171 1.283 . S
C1145 O1183 1.283 . S
C1146 O1172 1.283 . S
C1146 O1184 1.283 . S
C1147 O1173 1.283 . S
C1147 O1182 1.283 . S
Eu1148 O1149 2.370 1_455 S
Eu1148 O1150 2.370 . S
Eu1148 O1153 2.370 1_455 S
Eu1148 O1154 2.370 . S
Eu1148 O1162 2.363 . S
Eu1148 O1163 2.363 . S
Eu1148 O1176 2.363 . S
Eu1148 O1177 2.363 1_455 S
O1149 Eu1148 2.370 1_655 S
O1149 Eu1151 2.370 . S
O1149 Eu1156 2.370 1_655 S
O1150 Eu1148 2.370 . S
O1150 Eu1152 2.370 . S
O1150 Eu1155 2.370 . S
Eu1151 O1149 2.370 . S
Eu1151 O1153 2.370 . S
Eu1151 O1157 2.370 . S
Eu1151 O1158 2.370 . S
Eu1151 O1166 2.363 . S
Eu1151 O1167 2.363 . S
Eu1151 O1182 2.363 . S
Eu1151 O1183 2.363 . S
Eu1152 O1150 2.370 . S
Eu1152 O1154 2.370 . S
Eu1152 O1159 2.370 . S
Eu1152 O1160 2.370 . S
Eu1152 O1168 2.363 . S
Eu1152 O1169 2.363 . S
Eu1152 O1184 2.363 . S
Eu1152 O1185 2.363 . S
O1153 Eu1148 2.370 1_655 S
O1153 Eu1151 2.370 . S
O1153 Eu1155 2.370 1_655 S
O1154 Eu1148 2.370 . S
O1154 Eu1152 2.370 . S
O1154 Eu1156 2.370 . S
Eu1155 O1150 2.370 . S
Eu1155 O1153 2.370 1_455 S
Eu1155 O1157 2.370 1_455 S
Eu1155 O1160 2.370 . S
Eu1155 O1172 2.363 . S
Eu1155 O1173 2.363 1_455 S
Eu1155 O1180 2.363 . S
Eu1155 O1181 2.363 . S
Eu1156 O1149 2.370 1_455 S
Eu1156 O1154 2.370 . S
Eu1156 O1158 2.370 1_455 S
Eu1156 O1159 2.370 . S
Eu1156 O1170 2.363 . S
Eu1156 O1171 2.363 1_455 S
Eu1156 O1178 2.363 . S
Eu1156 O1179 2.363 . S
O1157 Eu1151 2.370 . S
O1157 Eu1155 2.370 1_655 S
O1157 Eu1161 2.370 1_655 S
O1158 Eu1151 2.370 . S
O1158 Eu1156 2.370 1_655 S
O1158 Eu1161 2.370 1_655 S
O1159 Eu1152 2.370 . S
O1159 Eu1156 2.370 . S
O1159 Eu1161 2.370 . S
O1160 Eu1152 2.370 . S
O1160 Eu1155 2.370 . S
O1160 Eu1161 2.370 . S
Eu1161 O1157 2.370 1_455 S
Eu1161 O1158 2.370 1_455 S
Eu1161 O1159 2.370 . S
Eu1161 O1160 2.370 . S
Eu1161 O1164 2.363 . S
Eu1161 O1165 2.363 . S
Eu1161 O1174 2.363 . S
Eu1161 O1175 2.363 1_455 S
O1162 C1136 1.283 . S
O1162 Eu1148 2.363 . S
O1163 C1137 1.283 . S
O1163 Eu1148 2.363 . S
O1164 C1138 1.283 . S
O1164 Eu1161 2.363 . S
O1165 C1139 1.283 . S
O1165 Eu1161 2.363 . S
O1166 C1140 1.283 . S
O1166 Eu1151 2.363 . S
O1167 C1141 1.283 . S
O1167 Eu1151 2.363 . S
O1168 C1142 1.283 . S
O1168 Eu1152 2.363 . S
O1169 C1143 1.283 . S
O1169 Eu1152 2.363 . S
O1170 C1144 1.283 . S
O1170 Eu1156 2.363 . S
O1171 C1145 1.283 . S
O1171 Eu1156 2.363 1_655 S
O1172 C1146 1.283 . S
O1172 Eu1155 2.363 . S
O1173 C1147 1.283 . S
O1173 Eu1155 2.363 1_655 S
O1174 C1142 1.283 . S
O1174 Eu1161 2.363 . S
O1175 C1140 1.283 . S
O1175 Eu1161 2.363 1_655 S
O1176 C1143 1.283 . S
O1176 Eu1148 2.363 . S
O1177 C1141 1.283 . S
O1177 Eu1148 2.363 1_655 S
O1178 C1137 1.283 . S
O1178 Eu1156 2.363 . S
O1179 C1139 1.283 . S
O1179 Eu1156 2.363 . S
O1180 C1136 1.283 . S
O1180 Eu1155 2.363 . S
O1181 C1138 1.283 . S
O1181 Eu1155 2.363 . S
O1182 C1147 1.283 . S
O1182 Eu1151 2.363 . S
O1183 C1145 1.283 . S
O1183 Eu1151 2.363 . S
O1184 C1146 1.283 . S
O1184 Eu1152 2.363 . S
O1185 C1144 1.283 . S
O1185 Eu1152 2.363 . S
C1186 O1212 1.283 . S
C1186 O1230 1.283 . S
C1187 O1213 1.283 . S
C1187 O1228 1.283 . S
C1188 O1214 1.283 . S
C1188 O1231 1.283 . S
C1189 O1215 1.283 . S
C1189 O1229 1.283 . S
C1190 O1216 1.283 . S
C1190 O1225 1.283 . S
C1191 O1217 1.283 . S
C1191 O1227 1.283 . S
C1192 O1218 1.283 . S
C1192 O1224 1.283 . S
C1193 O1219 1.283 . S
C1193 O1226 1.283 . S
C1194 O1220 1.283 . S
C1194 O1235 1.283 . S
C1195 O1221 1.283 . S
C1195 O1233 1.283 . S
C1196 O1222 1.283 . S
C1196 O1234 1.283 . S
C1197 O1223 1.283 . S
C1197 O1232 1.283 . S
Eu1198 O1199 2.370 . S
Eu1198 O1200 2.370 . S
Eu1198 O1203 2.370 . S
Eu1198 O1204 2.370 . S
Eu1198 O1212 2.363 . S
Eu1198 O1213 2.363 . S
Eu1198 O1226 2.363 . S
Eu1198 O1227 2.363 . S
O1199 Eu1198 2.370 . S
O1199 Eu1201 2.370 1_565 S
O1199 Eu1206 2.369 1_565 S
O1200 Eu1198 2.370 . S
O1200 Eu1202 2.370 1_565 S
O1200 Eu1205 2.370 1_565 S
Eu1201 O1199 2.370 1_545 S
Eu1201 O1203 2.370 1_545 S
Eu1201 O1207 2.371 . S
Eu1201 O1208 2.371 . S
Eu1201 O1216 2.364 . S
Eu1201 O1217 2.362 1_545 S
Eu1201 O1232 2.363 . S
Eu1201 O1233 2.363 . S
Eu1202 O1200 2.370 1_545 S
Eu1202 O1204 2.370 1_545 S
Eu1202 O1209 2.371 . S
Eu1202 O1210 2.371 . S
Eu1202 O1218 2.364 . S
Eu1202 O1219 2.362 1_545 S
Eu1202 O1234 2.363 . S
Eu1202 O1235 2.363 . S
O1203 Eu1198 2.370 . S
O1203 Eu1201 2.370 1_565 S
O1203 Eu1205 2.370 1_565 S
O1204 Eu1198 2.370 . S
O1204 Eu1202 2.370 1_565 S
O1204 Eu1206 2.369 1_565 S
Eu1205 O1200 2.370 1_545 S
Eu1205 O1203 2.370 1_545 S
Eu1205 O1207 2.370 . S
Eu1205 O1210 2.370 . S
Eu1205 O1222 2.363 . S
Eu1205 O1223 2.363 . S
Eu1205 O1230 2.363 1_545 S
Eu1205 O1231 2.363 . S
Eu1206 O1199 2.369 1_545 S
Eu1206 O1204 2.369 1_545 S
Eu1206 O1208 2.371 . S
Eu1206 O1209 2.371 . S
Eu1206 O1220 2.363 . S
Eu1206 O1221 2.363 . S
Eu1206 O1228 2.361 1_545 S
Eu1206 O1229 2.365 . S
O1207 Eu1201 2.371 . S
O1207 Eu1205 2.370 . S
O1207 Eu1211 2.370 . S
O1208 Eu1201 2.371 . S
O1208 Eu1206 2.371 . S
O1208 Eu1211 2.370 . S
O1209 Eu1202 2.371 . S
O1209 Eu1206 2.371 . S
O1209 Eu1211 2.370 . S
O1210 Eu1202 2.371 . S
O1210 Eu1205 2.370 . S
O1210 Eu1211 2.370 . S
Eu1211 O1207 2.370 . S
Eu1211 O1208 2.370 . S
Eu1211 O1209 2.370 . S
Eu1211 O1210 2.370 . S
Eu1211 O1214 2.363 . S
Eu1211 O1215 2.363 . S
Eu1211 O1224 2.363 . S
Eu1211 O1225 2.363 . S
O1212 C1186 1.283 . S
O1212 Eu1198 2.363 . S
O1213 C1187 1.283 . S
O1213 Eu1198 2.363 . S
O1214 C1188 1.283 . S
O1214 Eu1211 2.363 . S
O1215 C1189 1.283 . S
O1215 Eu1211 2.363 . S
O1216 C1190 1.283 . S
O1216 Eu1201 2.364 . S
O1217 C1191 1.283 . S
O1217 Eu1201 2.362 1_565 S
O1218 C1192 1.283 . S
O1218 Eu1202 2.364 . S
O1219 C1193 1.283 . S
O1219 Eu1202 2.362 1_565 S
O1220 C1194 1.283 . S
O1220 Eu1206 2.363 . S
O1221 C1195 1.283 . S
O1221 Eu1206 2.363 . S
O1222 C1196 1.283 . S
O1222 Eu1205 2.363 . S
O1223 C1197 1.283 . S
O1223 Eu1205 2.363 . S
O1224 C1192 1.283 . S
O1224 Eu1211 2.363 . S
O1225 C1190 1.283 . S
O1225 Eu1211 2.363 . S
O1226 C1193 1.283 . S
O1226 Eu1198 2.363 . S
O1227 C1191 1.283 . S
O1227 Eu1198 2.363 . S
O1228 C1187 1.283 . S
O1228 Eu1206 2.361 1_565 S
O1229 C1189 1.283 . S
O1229 Eu1206 2.365 . S
O1230 C1186 1.283 . S
O1230 Eu1205 2.363 1_565 S
O1231 C1188 1.283 . S
O1231 Eu1205 2.363 . S
O1232 C1197 1.283 . S
O1232 Eu1201 2.363 . S
O1233 C1195 1.283 . S
O1233 Eu1201 2.363 . S
O1234 C1196 1.283 . S
O1234 Eu1202 2.363 . S
O1235 C1194 1.283 . S
O1235 Eu1202 2.363 . S
C942 C898 0.980 . S
C820 C940 0.978 . S
C941 C781 0.978 . S
C859 C943 0.980 . S
C987 C625 0.979 . S
C1047 C664 0.978 . S
C703 C986 0.979 . S
C1046 C742 0.980 . S
C469 C988 0.979 . S
C1044 C508 0.980 . S
C547 C989 0.979 . S
C586 C1045 0.978 . S
C1095 C430 0.980 . S
C352 C1094 0.978 . S
C313 C1096 0.978 1_556 S
C1097 C391 0.980 1_554 S
C157 C1138 0.979 . S
C196 C1197 0.978 1_565 S
C235 C1136 0.979 . S
C274 C1196 0.980 1_565 S
C1137 C1 0.979 . S
C1194 C40 0.980 . S
C79 C1139 0.979 . S
C1195 C118 0.978 . S
C939 C16 3.154 . S
C60 C945 3.221 . S
C99 C937 3.225 . S
C133 C944 3.157 1_565 S
C172 C936 3.154 . S
C946 C211 3.157 . S
C255 C938 3.225 . S
C947 C294 3.221 1_545 S
C993 C138 3.226 . S
C21 C1036 3.225 . S
C991 C55 3.152 1_545 S
C1038 C94 3.154 . S
C216 C992 3.226 . S
C1037 C250 3.154 . S
C990 C289 3.152 1_565 S
C1039 C177 3.225 . S
C1043 C328 3.157 . S
C367 C1042 3.157 1_556 S
C994 C333 3.226 . S
C1041 C411 3.221 1_554 S
C445 C997 3.152 1_556 S
C450 C1040 3.221 . S
C996 C372 3.226 . S
C995 C406 3.152 1_556 S
C1089 C484 3.154 . S
C1092 C528 3.221 . S
C567 C1088 3.225 . S
C1090 C601 3.157 . S
C1086 C640 3.153 . S
C679 C1091 3.157 . S
C723 C1087 3.225 . S
C1093 C762 3.221 . S
C1147 C606 3.226 . S
C489 C1186 3.225 . S
C1146 C523 3.152 . S
C1188 C562 3.153 . S
C1145 C684 3.226 . S
C718 C1187 3.154 . S
C1144 C757 3.152 . S
C1189 C645 3.225 . S
C1193 C796 3.157 . S
C835 C1192 3.157 . S
C1140 C801 3.226 . S
C879 C1191 3.221 . S
C1143 C913 3.152 . S
C1190 C918 3.221 . S
C1141 C840 3.226 . S
C874 C1142 3.152 . S
