# Generated by pormake.
# Topology anh, (6,3)-cn, num edge types: 1
# Building blocks:
#     Node 0, Type 0, BuildingBlock: INOVEN_clean_sbu_0, # of connection points: 6
#     Node 1, Type 0, BuildingBlock: INOVEN_clean_sbu_0, # of connection points: 6
#     Node 2, Type 0, BuildingBlock: INOVEN_clean_sbu_0, # of connection points: 6
#     Node 3, Type 1, BuildingBlock: PAMTOO_clean_linker_0, # of connection points: 3
#     Node 4, Type 1, BuildingBlock: PAMTOO_clean_linker_0, # of connection points: 3
#     Node 5, Type 1, BuildingBlock: PAMTOO_clean_linker_0, # of connection points: 3
#     Node 6, Type 1, BuildingBlock: PAMTOO_clean_linker_0, # of connection points: 3
#     Node 7, Type 1, BuildingBlock: PAMTOO_clean_linker_0, # of connection points: 3
#     Node 8, Type 1, BuildingBlock: PAMTOO_clean_linker_0, # of connection points: 3
#     Edge 9, Type (0, 1), BuildingBlock: CIFDUS_clean_linker_0, # of connection points: 2
#     Edge 10, Type (0, 1), BuildingBlock: CIFDUS_clean_linker_0, # of connection points: 2
#     Edge 11, Type (0, 1), BuildingBlock: CIFDUS_clean_linker_0, # of connection points: 2
#     Edge 12, Type (0, 1), BuildingBlock: CIFDUS_clean_linker_0, # of connection points: 2
#     Edge 13, Type (0, 1), BuildingBlock: CIFDUS_clean_linker_0, # of connection points: 2
#     Edge 14, Type (0, 1), BuildingBlock: CIFDUS_clean_linker_0, # of connection points: 2
#     Edge 15, Type (0, 1), BuildingBlock: CIFDUS_clean_linker_0, # of connection points: 2
#     Edge 16, Type (0, 1), BuildingBlock: CIFDUS_clean_linker_0, # of connection points: 2
#     Edge 17, Type (0, 1), BuildingBlock: CIFDUS_clean_linker_0, # of connection points: 2
#     Edge 18, Type (0, 1), BuildingBlock: CIFDUS_clean_linker_0, # of connection points: 2
#     Edge 19, Type (0, 1), BuildingBlock: CIFDUS_clean_linker_0, # of connection points: 2
#     Edge 20, Type (0, 1), BuildingBlock: CIFDUS_clean_linker_0, # of connection points: 2
#     Edge 21, Type (0, 1), BuildingBlock: CIFDUS_clean_linker_0, # of connection points: 2
#     Edge 22, Type (0, 1), BuildingBlock: CIFDUS_clean_linker_0, # of connection points: 2
#     Edge 23, Type (0, 1), BuildingBlock: CIFDUS_clean_linker_0, # of connection points: 2
#     Edge 24, Type (0, 1), BuildingBlock: CIFDUS_clean_linker_0, # of connection points: 2
#     Edge 25, Type (0, 1), BuildingBlock: CIFDUS_clean_linker_0, # of connection points: 2
#     Edge 26, Type (0, 1), BuildingBlock: CIFDUS_clean_linker_0, # of connection points: 2
# Relax obj value: 0.186
# Max RMSD: 0.198
# Mean RMSD: 0.131
data_MOF--net-anh--node1-INOVEN_clean_sbu_0--node2-PAMTOO_clean_linker_0--edge1-CIFDUS_clean_linker_0
_symmetry_space_group_name_H-M    P1
_symmetry_Int_Tables_number       1
_symmetry_cell_setting            triclinic
loop_
_symmetry_equiv_pos_as_xyz
'x, y, z'
_cell_length_a     28.169907
_cell_length_b     33.863751
_cell_length_c     42.900712
_cell_angle_alpha  88.296165
_cell_angle_beta   92.263149
_cell_angle_gamma 130.95851
loop_
_atom_site_label
_atom_site_type_symbol
_atom_site_fract_x
_atom_site_fract_y
_atom_site_fract_z
_atom_type_partial_charge
Gd0 Gd 0.21318 0.55144 0.14612 0.0
Gd1 Gd 0.11898 0.55976 0.16624 0.0
C2 C 0.26789 0.66612 0.16178 0.0
C3 C 0.27424 0.53375 0.11491 0.0
C4 C 0.27452 0.4918 0.10771 0.0
C5 C 0.24978 0.44956 0.12817 0.0
C6 C 0.30155 0.49495 0.08 0.0
C7 C 0.28156 0.41505 0.09363 0.0
C8 C 0.30501 0.45693 0.07298 0.0
C9 C 0.25347 0.41153 0.12122 0.0
C10 C 0.19988 0.54732 0.20856 0.0
C11 C 1.06333 0.44355 0.15312 0.0
C12 C 1.05112 0.5727 0.19469 0.0
C13 C 0.98342 0.5381 0.20046 0.0
C14 C 0.9513 0.55575 0.19281 0.0
C15 C 0.94926 0.48587 0.20992 0.0
C16 C 0.85095 0.46774 0.19992 0.0
C17 C 0.8836 0.45111 0.2099 0.0
C18 C 0.88577 0.52095 0.1924 0.0
C19 C 0.12567 0.55652 0.10401 0.0
O20 O 0.27719 0.63965 0.14507 0.0
O21 O 0.21305 0.64181 0.17502 0.0
O22 O 0.2894 0.5511 0.14359 0.0
O23 O 0.22752 0.52933 0.10291 0.0
O24 O 0.25332 0.56956 0.19579 0.0
O25 O 0.15689 0.52617 0.18799 0.0
O26 O 1.05148 0.47178 0.16508 0.0
O27 O 0.12059 0.46584 0.14352 0.0
O28 O 1.06633 0.58579 0.16546 0.0
O29 O 1.08236 0.56109 0.20923 0.0
O30 O 1.07369 0.53391 0.11839 0.0
O31 O 0.17215 0.58222 0.12301 0.0
H32 H 0.22823 0.4463 0.14957 0.0
H33 H 0.32085 0.52734 0.06396 0.0
H34 H 0.32749 0.46107 0.05173 0.0
H35 H 0.23428 0.37935 0.13738 0.0
H36 H 0.97682 0.59582 0.18533 0.0
H37 H 0.973 0.47122 0.21593 0.0
H38 H 0.85843 0.41068 0.2163 0.0
H39 H 0.86267 0.53527 0.18404 0.0
Gd40 Gd 0.72726 0.06479 0.47775 0.0
Gd41 Gd 0.64457 0.08678 0.46187 0.0
C42 C 0.57655 0.96642 0.46311 0.0
C43 C 0.78258 0.03403 0.50404 0.0
C44 C 0.77517 0.98724 0.50946 0.0
C45 C 0.82932 0.99358 0.51383 0.0
C46 C 0.71574 0.93701 0.51126 0.0
C47 C 0.76525 0.90033 0.52363 0.0
C48 C 0.71081 0.89379 0.51828 0.0
C49 C 0.82449 0.95059 0.52081 0.0
C50 C 0.71661 0.07502 0.41568 0.0
C51 C 0.79714 0.18498 0.46653 0.0
C52 C 0.59259 0.12435 0.44329 0.0
C53 C 0.59979 0.16873 0.45463 0.0
C54 C 0.61314 0.18222 0.48633 0.0
C55 C 0.59567 0.19907 0.43376 0.0
C56 C 0.6175 0.25572 0.4763 0.0
C57 C 0.6045 0.24223 0.44446 0.0
C58 C 0.62144 0.22495 0.49707 0.0
C59 C 0.65564 0.07547 0.52369 0.0
O60 O 0.62817 0.98207 0.47867 0.0
O61 O 0.57639 1.00165 0.44903 0.0
O62 O 0.79252 0.05146 0.47539 0.0
O63 O 0.74474 0.03657 0.51865 0.0
O64 O 0.76819 0.09153 0.42985 0.0
O65 O 0.6723 0.05145 0.43452 0.0
O66 O 0.74167 0.16628 0.4549 0.0
O67 O 0.80272 0.15336 0.48138 0.0
O68 O 0.56607 0.08455 0.46237 0.0
O69 O 0.6417 0.13645 0.43009 0.0
O70 O 0.60341 0.05617 0.50937 0.0
O71 O 0.7003 0.10109 0.50502 0.0
H72 H 0.87555 0.03204 0.5123 0.0
H73 H 0.67333 0.93137 0.50783 0.0
H74 H 0.66453 0.8556 0.52047 0.0
H75 H 0.86725 0.95679 0.52427 0.0
H76 H 0.61719 0.15969 0.50287 0.0
H77 H 0.58614 0.18964 0.40915 0.0
H78 H 0.60203 0.26543 0.42772 0.0
H79 H 0.6303 0.23348 0.52179 0.0
Gd80 Gd 0.67309 0.60023 0.84709 0.0
Gd81 Gd 0.57462 0.48566 0.84631 0.0
C82 C 0.51811 0.54555 0.84674 0.0
C83 C 0.73932 0.69826 0.83254 0.0
C84 C 0.73093 0.73581 0.82231 0.0
C85 C 0.72284 0.76145 0.84385 0.0
C86 C 0.73532 0.74896 0.79054 0.0
C87 C 0.7259 0.81367 0.80203 0.0
C88 C 0.73257 0.78711 0.78054 0.0
C89 C 0.72009 0.79979 0.8338 0.0
C90 C 0.63583 0.55409 0.90366 0.0
C91 C 0.73096 0.54172 0.85022 0.0
C92 C 0.51222 0.38704 0.85637 0.0
C93 C 0.52644 0.35271 0.85168 0.0
C94 C 0.57759 0.36959 0.83377 0.0
C95 C 0.48875 0.30262 0.86504 0.0
C96 C 0.55287 0.28631 0.84247 0.0
C97 C 0.50169 0.26972 0.86046 0.0
C98 C 0.59073 0.33682 0.82925 0.0
C99 C 0.60413 0.52958 0.7895 0.0
O100 O 0.57897 0.58698 0.84092 0.0
O101 O 0.50411 0.49986 0.85296 0.0
O102 O 0.7266 0.68096 0.86134 0.0
O103 O 0.72159 0.66207 0.81256 0.0
O104 O 0.69471 0.59229 0.8975 0.0
O105 O 0.6014 0.54351 0.88026 0.0
O106 O 0.66926 0.49946 0.85266 0.0
O107 O 0.74583 0.58795 0.84607 0.0
O108 O 0.50526 0.40531 0.83097 0.0
O109 O 0.54576 0.42257 0.87809 0.0
O110 O 0.54722 0.49076 0.79768 0.0
O111 O 0.64327 0.54214 0.81124 0.0
H112 H 0.71988 0.7527 0.86854 0.0
H113 H 0.74199 0.73034 0.7733 0.0
H114 H 0.73615 0.79605 0.75585 0.0
H115 H 0.71543 0.81972 0.85103 0.0
H116 H 0.60731 0.40811 0.82317 0.0
H117 H 0.44898 0.28878 0.87886 0.0
H118 H 0.47089 0.23089 0.87064 0.0
H119 H 0.63096 0.35129 0.81563 0.0
H120 H 0.80599 0.17343 0.22684 0.0
H121 H 0.64668 1.00829 0.22491 0.0
H122 H 0.70683 0.09887 0.13997 0.0
H123 H 0.55486 0.99344 0.14077 0.0
C124 C 0.56236 0.97954 0.16262 0.0
O125 O 0.62523 1.00245 0.16496 0.0
H126 H 0.55091 0.99234 0.18243 0.0
C127 C 0.76887 0.13844 0.21384 0.0
C128 C 0.7624 0.14233 0.18161 0.0
C129 C 0.72704 0.09069 0.22974 0.0
C130 C 0.67844 0.04558 0.21294 0.0
C131 C 0.67072 0.04786 0.18063 0.0
C132 C 0.7125 0.0967 0.1649 0.0
H133 H 0.70043 0.65589 0.61211 0.0
H134 H 0.67286 0.51637 0.59997 0.0
H135 H 0.6861 0.60159 0.51973 0.0
H136 H 0.5877 0.48791 0.51357 0.0
C137 C 0.60722 0.47512 0.52981 0.0
O138 O 0.66759 0.51845 0.53894 0.0
H139 H 0.57675 0.45606 0.55047 0.0
C140 C 0.69537 0.62831 0.59685 0.0
C141 C 0.6955 0.63481 0.56433 0.0
C142 C 0.68758 0.58599 0.60998 0.0
C143 C 0.68005 0.54979 0.59024 0.0
C144 C 0.67856 0.55512 0.55777 0.0
C145 C 0.68671 0.59768 0.54487 0.0
H146 H 1.00564 0.53717 0.91636 0.0
H147 H 0.15137 0.52916 0.91353 0.0
H148 H 1.08183 0.54815 0.82757 0.0
H149 H 0.24797 0.58672 0.88146 0.0
C150 C 0.23447 0.56935 0.85778 0.0
O151 O 0.16659 0.5352 0.85416 0.0
H152 H 0.25436 0.60269 0.84147 0.0
C153 C 1.03676 0.53699 0.90241 0.0
C154 C 1.0343 0.54191 0.86986 0.0
C155 C 1.07911 0.53364 0.918 0.0
C156 C 0.12134 0.53412 0.90108 0.0
C157 C 0.12567 0.54008 0.86856 0.0
C158 C 1.08131 0.54459 0.85272 0.0
H159 H 0.10456 0.45505 0.39258 0.0
H160 H 0.27279 0.61552 0.40642 0.0
H161 H 0.16281 0.52089 0.4851 0.0
H162 H 0.2503 0.65185 0.49484 0.0
C163 C 0.26873 0.65677 0.47133 0.0
O164 O 0.26716 0.61548 0.4662 0.0
H165 H 0.23664 0.6552 0.45428 0.0
C166 C 0.1365 0.48809 0.40796 0.0
C167 C 0.12546 0.48149 0.44027 0.0
C168 C 0.18968 0.53592 0.39541 0.0
C169 C 0.23209 0.57816 0.41559 0.0
C170 C 0.22282 0.57348 0.44771 0.0
C171 C 0.16963 0.52482 0.46018 0.0
H172 H 0.69743 1.01021 0.70677 0.0
H173 H 0.68312 0.12785 0.7181 0.0
H174 H 0.67404 0.04447 0.79821 0.0
H175 H 0.59158 0.06823 0.80596 0.0
C176 C 0.60803 0.0951 0.78561 0.0
O177 O 0.66763 0.11502 0.77837 0.0
H178 H 0.57424 0.07182 0.76581 0.0
C179 C 0.69267 0.03247 0.72188 0.0
C180 C 0.68672 0.02264 0.75427 0.0
C181 C 0.69213 0.07067 0.70866 0.0
C182 C 0.68459 0.09884 0.72802 0.0
C183 C 0.677 0.08872 0.76014 0.0
C184 C 0.67877 0.05117 0.77325 0.0
H185 H 0.60899 0.43273 0.09124 0.0
H186 H 0.45222 0.31766 0.03065 0.0
H187 H 0.47156 0.27295 0.12163 0.0
H188 H 0.33759 0.19397 0.1038 0.0
C189 C 0.34331 0.21603 0.08246 0.0
O190 O 0.40177 0.2405 0.07033 0.0
H191 H 0.30654 0.18665 0.06534 0.0
C192 C 0.56538 0.39318 0.08699 0.0
C193 C 0.54313 0.35483 0.1101 0.0
C194 C 0.53414 0.38033 0.05786 0.0
C195 C 0.47729 0.32888 0.05293 0.0
C196 C 0.45449 0.29049 0.07606 0.0
C197 C 0.4882 0.3032 0.10431 0.0
H198 H 0.31839 0.37529 0.1336 0.0
H199 H 0.26034 0.36815 0.03785 0.0
H200 H 0.27519 0.30683 0.02583 0.0
H201 H 0.30497 0.25515 0.04261 0.0
H202 H 0.36212 0.26194 0.1383 0.0
H203 H 0.34738 0.32344 0.15039 0.0
C204 C 0.30822 0.35979 0.1102 0.0
C205 C 0.28813 0.37615 0.08669 0.0
C206 C 0.31683 0.32457 0.10347 0.0
C207 C 0.27635 0.3565 0.05632 0.0
C208 C 0.28464 0.32133 0.04944 0.0
C209 C 0.31364 0.26995 0.06609 0.0
C210 C 0.33337 0.25355 0.0897 0.0
C211 C 0.30495 0.30515 0.07281 0.0
C212 C 0.34587 0.27356 0.11996 0.0
C213 C 0.33757 0.30871 0.12682 0.0
H214 H 0.91733 0.2497 0.49505 0.0
H215 H 0.80446 0.24953 0.42385 0.0
H216 H 0.89309 0.33977 0.41079 0.0
H217 H 1.004 0.41897 0.41763 0.0
H218 H 0.11852 0.42337 0.48949 0.0
H219 H 1.02878 0.33289 0.50435 0.0
C220 C 0.91205 0.26944 0.47677 0.0
C221 C 0.8534 0.2418 0.46047 0.0
C222 C 0.96391 0.32276 0.46942 0.0
C223 C 0.84818 0.26891 0.437 0.0
C224 C 0.89922 0.32095 0.42937 0.0
C225 C 1.00942 0.40037 0.43672 0.0
C226 C 1.06862 0.42845 0.45224 0.0
C227 C 0.95744 0.34826 0.44518 0.0
C228 C 1.07385 0.40335 0.47717 0.0
C229 C 1.02241 0.3512 0.48553 0.0
H230 H 0.6531 0.83562 0.82061 0.0
H231 H 0.80331 0.88982 0.75917 0.0
H232 H 0.80498 0.95895 0.73957 0.0
H233 H 0.76359 1.0039 0.73925 0.0
H234 H 0.613 0.95029 0.80014 0.0
H235 H 0.61298 0.88232 0.82107 0.0
C236 C 0.68656 0.86284 0.80314 0.0
C237 C 0.72753 0.85692 0.7912 0.0
C238 C 0.6875 0.90294 0.79192 0.0
C239 C 0.7703 0.89253 0.76838 0.0
C240 C 0.77162 0.93242 0.75726 0.0
C241 C 0.73038 0.97715 0.75694 0.0
C242 C 0.68816 0.98227 0.76792 0.0
C243 C 0.73015 0.93778 0.76865 0.0
C244 C 0.64647 0.94778 0.79139 0.0
C245 C 0.64613 0.90858 0.80325 0.0
H246 H 0.76444 0.4791 0.20695 0.0
H247 H 0.78261 0.36959 0.17555 0.0
H248 H 0.67869 0.31698 0.15088 0.0
H249 H 0.59445 0.31308 0.1282 0.0
H250 H 0.5834 0.42904 0.15324 0.0
H251 H 0.67235 0.4682 0.19011 0.0
C252 C 0.74538 0.44339 0.19503 0.0
C253 C 0.78222 0.42924 0.19257 0.0
C254 C 0.687 0.41484 0.17921 0.0
C255 C 0.75573 0.38177 0.17797 0.0
C256 C 0.69637 0.35181 0.16342 0.0
C257 C 0.61024 0.34574 0.14263 0.0
C258 C 0.58307 0.36846 0.13814 0.0
C259 C 0.66324 0.36952 0.16246 0.0
C260 C 0.60407 0.41118 0.15647 0.0
C261 C 0.65506 0.43368 0.17732 0.0
H262 H 0.54802 0.87788 0.49187 0.0
H263 H 0.47219 0.92535 0.42698 0.0
H264 H 0.37481 0.83547 0.42218 0.0
H265 H 0.30735 0.74325 0.43779 0.0
H266 H 0.37834 0.69282 0.5031 0.0
H267 H 0.48023 0.78266 0.506 0.0
C268 C 0.5104 0.86854 0.47652 0.0
C269 C 0.51838 0.90938 0.45997 0.0
C270 C 0.453 0.81567 0.4738 0.0
C271 C 0.46835 0.8957 0.44026 0.0
C272 C 0.4121 0.84387 0.43738 0.0
C273 C 0.34542 0.75158 0.45226 0.0
C274 C 0.3351 0.7107 0.46977 0.0
C275 C 0.40348 0.80355 0.45419 0.0
C276 C 0.385 0.72301 0.48889 0.0
C277 C 0.44326 0.77465 0.49073 0.0
H278 H 0.59128 0.27289 0.78908 0.0
H279 H 0.54472 0.21976 0.88459 0.0
H280 H 0.56063 0.15832 0.87598 0.0
H281 H 0.58361 0.11681 0.8408 0.0
H282 H 0.6308 0.16981 0.74554 0.0
H283 H 0.62033 0.23494 0.75473 0.0
C284 C 0.58547 0.24846 0.80818 0.0
C285 C 0.56614 0.25084 0.8374 0.0
C286 C 0.595 0.21318 0.80311 0.0
C287 C 0.55825 0.21822 0.86168 0.0
C288 C 0.56778 0.18322 0.85685 0.0
C289 C 0.59225 0.14304 0.82218 0.0
C290 C 0.60792 0.1386 0.7925 0.0
C291 C 0.58544 0.1799 0.82759 0.0
C292 C 0.61886 0.17272 0.76856 0.0
C293 C 0.61259 0.20972 0.7738 0.0
H294 H 0.68668 0.8009 0.50042 0.0
H295 H 0.83392 0.8996 0.56964 0.0
H296 H 0.82761 0.82715 0.58695 0.0
H297 H 0.77902 0.73555 0.58346 0.0
H298 H 0.6296 0.63506 0.51565 0.0
H299 H 0.63855 0.70849 0.4965 0.0
C300 C 0.71713 0.80639 0.51937 0.0
C301 C 0.76083 0.85566 0.53363 0.0
C302 C 0.71309 0.76434 0.52938 0.0
C303 C 0.80049 0.86233 0.55794 0.0
C304 C 0.79673 0.82085 0.56799 0.0
C305 C 0.7482 0.72963 0.56456 0.0
C306 C 0.70346 0.67986 0.55115 0.0
C307 C 0.75306 0.7717 0.55399 0.0
C308 C 0.66479 0.6731 0.52623 0.0
C309 C 0.66955 0.71496 0.51544 0.0
H310 H 0.86191 0.60618 0.82967 0.0
H311 H 0.72139 0.46242 0.87877 0.0
H312 H 0.79606 0.44884 0.88718 0.0
H313 H 0.90376 0.47717 0.88302 0.0
H314 H 1.04423 0.6169 0.83122 0.0
H315 H 0.96937 0.631 0.82163 0.0
C316 C 0.84684 0.57158 0.84224 0.0
C317 C 0.78299 0.53579 0.85374 0.0
C318 C 0.89137 0.56261 0.84653 0.0
C319 C 0.76792 0.49146 0.86947 0.0
C320 C 0.81161 0.48343 0.87438 0.0
C321 C 0.91857 0.51049 0.86894 0.0
C322 C 0.98229 0.54514 0.8576 0.0
C323 C 0.87383 0.5185 0.86324 0.0
C324 C 0.99719 0.58804 0.83996 0.0
C325 C 0.95356 0.5966 0.83474 0.0
H326 H 0.38771 0.73337 0.13747 0.0
H327 H 0.26395 0.73128 0.19523 0.0
H328 H 0.34391 0.82557 0.2017 0.0
H329 H 0.44795 0.90996 0.19002 0.0
H330 H 0.57241 0.91442 0.13176 0.0
H331 H 0.49409 0.81883 0.12662 0.0
C332 C 0.37821 0.75343 0.15157 0.0
C333 C 0.31906 0.7244 0.16575 0.0
C334 C 0.42499 0.80855 0.15527 0.0
C335 C 0.30836 0.7518 0.18389 0.0
C336 C 0.35434 0.8061 0.18768 0.0
C337 C 0.45847 0.88998 0.17661 0.0
C338 C 0.51704 0.91962 0.16199 0.0
C339 C 0.41272 0.83499 0.17342 0.0
C340 C 0.52866 0.89283 0.14393 0.0
C341 C 0.48352 0.83804 0.14081 0.0
H342 H 0.55408 0.28844 0.45791 0.0
H343 H 0.7016 0.32601 0.52123 0.0
H344 H 0.71214 0.3972 0.54294 0.0
H345 H 0.67719 0.44724 0.54524 0.0
H346 H 0.53254 0.41182 0.48083 0.0
H347 H 0.52372 0.34182 0.45802 0.0
C348 C 0.58931 0.31268 0.47609 0.0
C349 C 0.62651 0.30132 0.48804 0.0
C350 C 0.59576 0.35411 0.48827 0.0
C351 C 0.67129 0.33294 0.51196 0.0
C352 C 0.67771 0.37398 0.5243 0.0
C353 C 0.64461 0.42479 0.52583 0.0
C354 C 0.60659 0.43542 0.51422 0.0
C355 C 0.63984 0.38465 0.51283 0.0
C356 C 0.56318 0.405 0.4897 0.0
C357 C 0.55794 0.36487 0.47676 0.0
H358 H 0.38278 0.47538 0.86149 0.0
H359 H 0.53453 0.63361 0.83163 0.0
H360 H 0.46406 0.65188 0.83058 0.0
H361 H 0.35942 0.62656 0.83895 0.0
H362 H 0.20565 0.47075 0.87018 0.0
H363 H 0.27434 0.44934 0.86961 0.0
C364 C 0.40111 0.51404 0.85456 0.0
C365 C 0.46717 0.55278 0.84652 0.0
C366 C 0.35844 0.52522 0.85401 0.0
C367 C 0.48624 0.60212 0.838 0.0
C368 C 0.44497 0.61292 0.83734 0.0
C369 C 0.33953 0.58715 0.84503 0.0
C370 C 0.27398 0.55015 0.85335 0.0
C371 C 0.38082 0.5752 0.84526 0.0
C372 C 0.25335 0.50045 0.86243 0.0
C373 C 0.29385 0.48823 0.86239 0.0
H374 H 0.93505 0.38412 0.15306 0.0
H375 H 1.07718 0.37073 0.15351 0.0
H376 H 0.99617 0.27577 0.15892 0.0
H377 H 0.8853 0.19665 0.16833 0.0
H378 H 0.74269 0.20913 0.16579 0.0
H379 H 0.82268 0.3035 0.15595 0.0
C380 C 0.9483 0.3604 0.154 0.0
C381 C 1.01264 0.38505 0.15315 0.0
C382 C 0.90103 0.30529 0.15661 0.0
C383 C 1.02843 0.35328 0.15409 0.0
C384 C 0.98195 0.29875 0.15727 0.0
C385 C 0.87158 0.21982 0.16453 0.0
C386 C 0.80776 0.19556 0.16716 0.0
C387 C 0.91816 0.27431 0.15906 0.0
C388 C 0.79103 0.22644 0.16309 0.0
C389 C 0.83703 0.28062 0.15787 0.0
H390 H 1.02822 0.49924 0.06267 0.0
H391 H 0.23077 0.6129 0.06825 0.0
H392 H 0.23465 0.61435 0.01114 0.0
H393 H 0.17964 0.58586 0.95943 0.0
H394 H 0.97681 0.47119 0.95489 0.0
H395 H 0.97392 0.46779 0.01169 0.0
C396 C 1.07329 0.52428 0.0514 0.0
C397 C 0.12913 0.55623 0.06963 0.0
C398 C 1.07504 0.52489 0.01869 0.0
C399 C 0.18712 0.58809 0.05471 0.0
C400 C 0.1893 0.58893 0.02206 0.0
C401 C 0.13486 0.55966 0.97089 0.0
C402 C 1.07847 0.52922 0.95279 0.0
C403 C 0.13348 0.55782 0.00377 0.0
C404 C 1.02087 0.49574 0.96812 0.0
C405 C 1.01915 0.49359 0.00065 0.0
H406 H 0.80533 0.11447 0.37237 0.0
H407 H 0.60799 0.03113 0.38235 0.0
H408 H 0.59293 0.02623 0.32559 0.0
H409 H 0.63649 0.04694 0.27298 0.0
H410 H 0.83418 0.13132 0.26335 0.0
H411 H 0.84849 0.13428 0.32004 0.0
C412 C 0.75905 0.09524 0.36209 0.0
C413 C 0.70785 0.07315 0.38144 0.0
C414 C 0.7508 0.09261 0.32949 0.0
C415 C 0.64815 0.04844 0.36788 0.0
C416 C 0.63949 0.04554 0.33544 0.0
C417 C 0.68247 0.06536 0.28336 0.0
C418 C 0.73419 0.08883 0.26407 0.0
C419 C 0.69048 0.06746 0.31601 0.0
C420 C 0.79375 0.11327 0.27777 0.0
C421 C 0.80196 0.11497 0.31015 0.0
H422 H 0.69385 0.54541 0.75455 0.0
H423 H 0.54674 0.55279 0.75204 0.0
H424 H 0.56213 0.57393 0.69635 0.0
H425 H 0.61239 0.58454 0.64786 0.0
H426 H 0.75296 0.56954 0.64856 0.0
H427 H 0.74487 0.55638 0.70533 0.0
C428 C 0.66612 0.55258 0.74176 0.0
C429 C 0.61976 0.54826 0.75713 0.0
C430 C 0.67339 0.56243 0.70943 0.0
C431 C 0.58288 0.55629 0.74047 0.0
C432 C 0.59147 0.56812 0.7087 0.0
C433 C 0.64164 0.57886 0.66054 0.0
C434 C 0.68339 0.57823 0.64425 0.0
C435 C 0.63575 0.57035 0.69285 0.0
C436 C 0.72029 0.56993 0.66073 0.0
C437 C 0.71584 0.56265 0.69313 0.0
H438 H 0.74274 0.14554 0.56743 0.0
H439 H 0.57627 0.98407 0.55434 0.0
H440 H 0.57517 0.96729 0.61025 0.0
H441 H 0.61792 0.99955 0.66332 0.0
H442 H 0.77776 0.16269 0.67769 0.0
H443 H 0.78518 0.17821 0.62115 0.0
C444 C 0.70691 0.10666 0.57694 0.0
C445 C 0.65995 0.06591 0.55699 0.0
C446 C 0.70504 0.09784 0.60937 0.0
C447 C 0.61288 1.01589 0.56942 0.0
C448 C 0.61216 1.00633 0.60134 0.0
C449 C 0.65461 0.03836 0.65396 0.0
C450 C 0.69741 0.07989 0.67446 0.0
C451 C 0.65739 0.04714 0.6216 0.0
C452 C 0.74423 0.13021 0.66223 0.0
C453 C 0.74854 0.13902 0.62995 0.0
H454 H 0.69799 0.54762 0.95123 0.0
H455 H 0.51536 0.49219 0.92128 0.0
H456 H 0.468 0.43541 0.96691 0.0
H457 H 0.47713 0.39833 0.01421 0.0
H458 H 0.65846 0.44973 0.04306 0.0
H459 H 0.70741 0.51142 -0.00041 0.0
C460 C 0.64806 0.52355 0.95502 0.0
C461 C 0.61027 0.52404 0.933 0.0
C462 C 0.62067 0.49006 0.98114 0.0
C463 C 0.54545 0.49234 0.93791 0.0
C464 C 0.51821 0.45977 0.96398 0.0
C465 C 0.52731 0.42292 0.01095 0.0
C466 C 0.56387 0.4194 0.03201 0.0
C467 C 0.55514 0.45768 0.98552 0.0
C468 C 0.62911 0.45213 0.02758 0.0
C469 C 0.65724 0.48724 0.00254 0.0
H470 H 0.28591 0.5862 0.25664 0.0
H471 H 0.08724 0.49133 0.2365 0.0
H472 H 1.06641 0.47974 0.29213 0.0
H473 H 0.10447 0.49712 0.34669 0.0
H474 H 0.30258 0.58813 0.36711 0.0
H475 H 0.3236 0.6008 0.31149 0.0
C476 C 0.23813 0.56301 0.26449 0.0
C477 C 0.18836 0.54028 0.24246 0.0
C478 C 0.22628 0.55581 0.29667 0.0
C479 C 0.12658 0.50998 0.25296 0.0
C480 C 0.11452 0.50308 0.28481 0.0
C481 C 0.15218 0.51921 0.33904 0.0
C482 C 0.20179 0.54189 0.36127 0.0
C483 C 0.16399 0.52585 0.30691 0.0
C484 C 0.26344 0.57099 0.35069 0.0
C485 C 0.27557 0.57802 0.3188 0.0
loop_
_geom_bond_atom_site_label_1
_geom_bond_atom_site_label_2
_geom_bond_distance
_geom_bond_site_symmetry_2
_ccdc_geom_bond_type
Gd0 C3 2.818 . S
Gd0 O20 2.377 . S
Gd0 O22 2.448 . S
Gd0 O23 2.506 . S
Gd0 O24 2.435 . S
Gd0 O25 2.717 1_455 S
Gd0 O27 2.395 1_455 S
Gd0 O31 2.327 . S
Gd1 C12 2.818 . S
Gd1 O21 2.395 1_655 S
Gd1 O25 2.327 . S
Gd1 O26 2.377 . S
Gd1 O28 2.448 . S
Gd1 O29 2.506 . S
Gd1 O30 2.435 . S
Gd1 O31 2.717 1_655 S
C2 O20 1.240 . S
C2 O21 1.240 . S
C3 Gd0 2.818 . S
C3 C4 1.510 . S
C3 O22 1.249 . S
C3 O23 1.252 . S
C4 C3 1.510 . S
C4 C5 1.404 . S
C4 C6 1.352 . S
C5 C4 1.404 . S
C5 C9 1.389 . S
C5 H32 0.930 . S
C6 C4 1.352 . S
C6 C8 1.374 . S
C6 H33 0.931 . S
C7 C8 1.359 . S
C7 C9 1.364 . S
C8 C6 1.374 . S
C8 C7 1.359 . S
C8 H34 0.931 . S
C9 C5 1.389 . S
C9 C7 1.364 . S
C9 H35 0.931 . S
C10 O24 1.256 . S
C10 O25 1.257 1_455 S
C11 O26 1.240 . S
C11 O27 1.240 . S
C12 Gd1 2.818 . S
C12 C13 1.510 . S
C12 O28 1.249 . S
C12 O29 1.252 . S
C13 C12 1.510 . S
C13 C14 1.404 . S
C13 C15 1.352 . S
C14 C13 1.404 . S
C14 C18 1.389 . S
C14 H36 0.930 . S
C15 C13 1.352 . S
C15 C17 1.374 . S
C15 H37 0.931 . S
C16 C17 1.359 . S
C16 C18 1.364 . S
C17 C15 1.374 . S
C17 C16 1.359 . S
C17 H38 0.931 . S
C18 C14 1.389 . S
C18 C16 1.364 . S
C18 H39 0.931 . S
C19 O30 1.256 1_455 S
C19 O31 1.257 . S
O20 Gd0 2.377 . S
O20 C2 1.240 . S
O21 Gd1 2.395 1_455 S
O21 C2 1.240 . S
O22 Gd0 2.448 . S
O22 C3 1.249 . S
O23 Gd0 2.506 . S
O23 C3 1.252 . S
O24 Gd0 2.435 . S
O24 C10 1.256 . S
O25 Gd0 2.717 1_655 S
O25 Gd1 2.327 . S
O25 C10 1.257 1_655 S
O26 Gd1 2.377 . S
O26 C11 1.240 . S
O27 Gd0 2.395 1_655 S
O27 C11 1.240 . S
O28 Gd1 2.448 . S
O28 C12 1.249 . S
O29 Gd1 2.506 . S
O29 C12 1.252 . S
O30 Gd1 2.435 . S
O30 C19 1.256 1_655 S
O31 Gd0 2.327 . S
O31 Gd1 2.717 1_455 S
O31 C19 1.257 . S
H32 C5 0.930 . S
H33 C6 0.931 . S
H34 C8 0.931 . S
H35 C9 0.931 . S
H36 C14 0.930 . S
H37 C15 0.931 . S
H38 C17 0.931 . S
H39 C18 0.931 . S
Gd40 C43 2.818 1_545 S
Gd40 O60 2.377 1_545 S
Gd40 O62 2.448 1_545 S
Gd40 O63 2.506 1_545 S
Gd40 O64 2.435 . S
Gd40 O65 2.717 . S
Gd40 O67 2.395 . S
Gd40 O71 2.327 . S
Gd41 C52 2.818 . S
Gd41 O61 2.395 1_545 S
Gd41 O65 2.327 . S
Gd41 O66 2.377 . S
Gd41 O68 2.448 . S
Gd41 O69 2.506 . S
Gd41 O70 2.435 . S
Gd41 O71 2.717 . S
C42 O60 1.240 . S
C42 O61 1.240 . S
C43 Gd40 2.818 1_565 S
C43 C44 1.510 . S
C43 O62 1.249 . S
C43 O63 1.252 . S
C44 C43 1.510 . S
C44 C45 1.404 . S
C44 C46 1.352 . S
C45 C44 1.404 . S
C45 C49 1.389 . S
C45 H72 0.930 . S
C46 C44 1.352 . S
C46 C48 1.374 . S
C46 H73 0.931 . S
C47 C48 1.359 . S
C47 C49 1.364 . S
C48 C46 1.374 . S
C48 C47 1.359 . S
C48 H74 0.931 . S
C49 C45 1.389 . S
C49 C47 1.364 . S
C49 H75 0.931 . S
C50 O64 1.256 . S
C50 O65 1.257 . S
C51 O66 1.240 . S
C51 O67 1.240 . S
C52 Gd41 2.818 . S
C52 C53 1.510 . S
C52 O68 1.249 . S
C52 O69 1.252 . S
C53 C52 1.510 . S
C53 C54 1.404 . S
C53 C55 1.352 . S
C54 C53 1.404 . S
C54 C58 1.389 . S
C54 H76 0.930 . S
C55 C53 1.352 . S
C55 C57 1.374 . S
C55 H77 0.931 . S
C56 C57 1.359 . S
C56 C58 1.364 . S
C57 C55 1.374 . S
C57 C56 1.359 . S
C57 H78 0.931 . S
C58 C54 1.389 . S
C58 C56 1.364 . S
C58 H79 0.931 . S
C59 O70 1.256 . S
C59 O71 1.257 . S
O60 Gd40 2.377 1_565 S
O60 C42 1.240 . S
O61 Gd41 2.395 1_565 S
O61 C42 1.240 . S
O62 Gd40 2.448 1_565 S
O62 C43 1.249 . S
O63 Gd40 2.506 1_565 S
O63 C43 1.252 . S
O64 Gd40 2.435 . S
O64 C50 1.256 . S
O65 Gd40 2.717 . S
O65 Gd41 2.327 . S
O65 C50 1.257 . S
O66 Gd41 2.377 . S
O66 C51 1.240 . S
O67 Gd40 2.395 . S
O67 C51 1.240 . S
O68 Gd41 2.448 . S
O68 C52 1.249 . S
O69 Gd41 2.506 . S
O69 C52 1.252 . S
O70 Gd41 2.435 . S
O70 C59 1.256 . S
O71 Gd40 2.327 . S
O71 Gd41 2.717 . S
O71 C59 1.257 . S
H72 C45 0.930 . S
H73 C46 0.931 . S
H74 C48 0.931 . S
H75 C49 0.931 . S
H76 C54 0.930 . S
H77 C55 0.931 . S
H78 C57 0.931 . S
H79 C58 0.931 . S
Gd80 C83 2.818 . S
Gd80 O100 2.377 . S
Gd80 O102 2.448 . S
Gd80 O103 2.506 . S
Gd80 O104 2.435 . S
Gd80 O105 2.717 . S
Gd80 O107 2.395 . S
Gd80 O111 2.327 . S
Gd81 C92 2.818 . S
Gd81 O101 2.395 . S
Gd81 O105 2.327 . S
Gd81 O106 2.377 . S
Gd81 O108 2.448 . S
Gd81 O109 2.506 . S
Gd81 O110 2.435 . S
Gd81 O111 2.717 . S
C82 O100 1.240 . S
C82 O101 1.240 . S
C83 Gd80 2.818 . S
C83 C84 1.510 . S
C83 O102 1.249 . S
C83 O103 1.252 . S
C84 C83 1.510 . S
C84 C85 1.404 . S
C84 C86 1.352 . S
C85 C84 1.404 . S
C85 C89 1.389 . S
C85 H112 0.930 . S
C86 C84 1.352 . S
C86 C88 1.374 . S
C86 H113 0.931 . S
C87 C88 1.359 . S
C87 C89 1.364 . S
C88 C86 1.374 . S
C88 C87 1.359 . S
C88 H114 0.931 . S
C89 C85 1.389 . S
C89 C87 1.364 . S
C89 H115 0.931 . S
C90 O104 1.256 . S
C90 O105 1.257 . S
C91 O106 1.240 . S
C91 O107 1.240 . S
C92 Gd81 2.818 . S
C92 C93 1.510 . S
C92 O108 1.249 . S
C92 O109 1.252 . S
C93 C92 1.510 . S
C93 C94 1.404 . S
C93 C95 1.352 . S
C94 C93 1.404 . S
C94 C98 1.389 . S
C94 H116 0.930 . S
C95 C93 1.352 . S
C95 C97 1.374 . S
C95 H117 0.931 . S
C96 C97 1.359 . S
C96 C98 1.364 . S
C97 C95 1.374 . S
C97 C96 1.359 . S
C97 H118 0.931 . S
C98 C94 1.389 . S
C98 C96 1.364 . S
C98 H119 0.931 . S
C99 O110 1.256 . S
C99 O111 1.257 . S
O100 Gd80 2.377 . S
O100 C82 1.240 . S
O101 Gd81 2.395 . S
O101 C82 1.240 . S
O102 Gd80 2.448 . S
O102 C83 1.249 . S
O103 Gd80 2.506 . S
O103 C83 1.252 . S
O104 Gd80 2.435 . S
O104 C90 1.256 . S
O105 Gd80 2.717 . S
O105 Gd81 2.327 . S
O105 C90 1.257 . S
O106 Gd81 2.377 . S
O106 C91 1.240 . S
O107 Gd80 2.395 . S
O107 C91 1.240 . S
O108 Gd81 2.448 . S
O108 C92 1.249 . S
O109 Gd81 2.506 . S
O109 C92 1.252 . S
O110 Gd81 2.435 . S
O110 C99 1.256 . S
O111 Gd80 2.327 . S
O111 Gd81 2.717 . S
O111 C99 1.257 . S
H112 C85 0.930 . S
H113 C86 0.931 . S
H114 C88 0.931 . S
H115 C89 0.931 . S
H116 C94 0.930 . S
H117 C95 0.931 . S
H118 C97 0.931 . S
H119 C98 0.931 . S
H120 C127 0.929 . S
H121 C130 0.930 . S
H122 C132 0.929 . S
H123 C124 0.969 . S
C124 H123 0.969 . S
C124 O125 1.550 . S
C124 H126 0.973 . S
O125 C124 1.550 . S
O125 C131 1.412 . S
H126 C124 0.973 . S
C127 H120 0.929 . S
C127 C128 1.400 . S
C127 C129 1.364 . S
C128 C127 1.400 . S
C128 C132 1.377 . S
C129 C127 1.364 . S
C129 C130 1.374 1_545 S
C130 H121 0.930 . S
C130 C129 1.374 1_565 S
C130 C131 1.383 . S
C131 O125 1.412 . S
C131 C130 1.383 . S
C131 C132 1.394 1_565 S
C132 H122 0.929 . S
C132 C128 1.377 . S
C132 C131 1.394 1_545 S
H133 C140 0.929 . S
H134 C143 0.930 . S
H135 C145 0.929 . S
H136 C137 0.969 . S
C137 H136 0.969 . S
C137 O138 1.550 . S
C137 H139 0.973 . S
O138 C137 1.550 . S
O138 C144 1.412 . S
H139 C137 0.973 . S
C140 H133 0.929 . S
C140 C141 1.400 . S
C140 C142 1.364 . S
C141 C140 1.400 . S
C141 C145 1.377 . S
C142 C140 1.364 . S
C142 C143 1.374 . S
C143 H134 0.930 . S
C143 C142 1.374 . S
C143 C144 1.383 . S
C144 O138 1.412 . S
C144 C143 1.383 . S
C144 C145 1.394 . S
C145 H135 0.929 . S
C145 C141 1.377 . S
C145 C144 1.394 . S
H146 C153 0.929 . S
H147 C156 0.930 . S
H148 C158 0.929 . S
H149 C150 0.969 . S
C150 H149 0.969 . S
C150 O151 1.550 . S
C150 H152 0.973 . S
O151 C150 1.550 . S
O151 C157 1.412 . S
H152 C150 0.973 . S
C153 H146 0.929 . S
C153 C154 1.400 . S
C153 C155 1.364 . S
C154 C153 1.400 . S
C154 C158 1.377 . S
C155 C153 1.364 . S
C155 C156 1.374 . S
C156 H147 0.930 . S
C156 C155 1.374 . S
C156 C157 1.383 . S
C157 O151 1.412 . S
C157 C156 1.383 . S
C157 C158 1.394 . S
C158 H148 0.929 . S
C158 C154 1.377 . S
C158 C157 1.394 . S
H159 C166 0.929 . S
H160 C169 0.930 . S
H161 C171 0.929 . S
H162 C163 0.969 . S
C163 H162 0.969 . S
C163 O164 1.550 . S
C163 H165 0.973 . S
O164 C163 1.550 . S
O164 C170 1.412 . S
H165 C163 0.973 . S
C166 H159 0.929 . S
C166 C167 1.400 . S
C166 C168 1.364 1_655 S
C167 C166 1.400 . S
C167 C171 1.377 1_655 S
C168 C166 1.364 1_455 S
C168 C169 1.374 . S
C169 H160 0.930 . S
C169 C168 1.374 . S
C169 C170 1.383 . S
C170 O164 1.412 . S
C170 C169 1.383 . S
C170 C171 1.394 . S
C171 H161 0.929 . S
C171 C167 1.377 1_455 S
C171 C170 1.394 . S
H172 C179 0.929 . S
H173 C182 0.930 . S
H174 C184 0.931 . S
H175 C176 0.969 . S
C176 H175 0.969 . S
C176 O177 1.550 . S
C176 H178 0.973 . S
O177 C176 1.550 . S
O177 C183 1.412 . S
H178 C176 0.973 . S
C179 H172 0.929 . S
C179 C180 1.400 . S
C179 C181 1.364 1_565 S
C180 C179 1.400 . S
C180 C184 1.377 1_565 S
C181 C179 1.364 1_545 S
C181 C182 1.374 . S
C182 H173 0.930 . S
C182 C181 1.374 . S
C182 C183 1.383 . S
C183 O177 1.412 . S
C183 C182 1.383 . S
C183 C184 1.394 . S
C184 H174 0.931 . S
C184 C180 1.377 1_545 S
C184 C183 1.394 . S
H185 C192 0.929 . S
H186 C195 0.930 . S
H187 C197 0.929 . S
H188 C189 0.969 . S
C189 H188 0.969 . S
C189 O190 1.550 . S
C189 H191 0.973 . S
O190 C189 1.550 . S
O190 C196 1.412 . S
H191 C189 0.973 . S
C192 H185 0.929 . S
C192 C193 1.400 . S
C192 C194 1.364 . S
C193 C192 1.400 . S
C193 C197 1.377 . S
C194 C192 1.364 . S
C194 C195 1.374 . S
C195 H186 0.930 . S
C195 C194 1.374 . S
C195 C196 1.383 . S
C196 O190 1.412 . S
C196 C195 1.383 . S
C196 C197 1.394 . S
C197 H187 0.929 . S
C197 C193 1.377 . S
C197 C196 1.394 . S
H198 C204 0.930 . S
H199 C207 0.930 . S
H200 C208 0.930 . S
H201 C209 0.930 . S
H202 C212 0.930 . S
H203 C213 0.930 . S
C204 H198 0.930 . S
C204 C205 1.355 . S
C204 C206 1.415 . S
C205 C204 1.355 . S
C205 C207 1.419 . S
C206 C204 1.415 . S
C206 C211 1.425 . S
C206 C213 1.409 . S
C207 H199 0.930 . S
C207 C205 1.419 . S
C207 C208 1.362 . S
C208 H200 0.930 . S
C208 C207 1.362 . S
C208 C211 1.409 . S
C209 H201 0.930 . S
C209 C210 1.355 . S
C209 C211 1.415 . S
C210 C209 1.355 . S
C210 C212 1.419 . S
C211 C206 1.425 . S
C211 C208 1.409 . S
C211 C209 1.415 . S
C212 H202 0.930 . S
C212 C210 1.419 . S
C212 C213 1.362 . S
C213 H203 0.930 . S
C213 C206 1.409 . S
C213 C212 1.362 . S
H214 C220 0.930 . S
H215 C223 0.930 . S
H216 C224 0.930 . S
H217 C225 0.930 . S
H218 C228 0.930 . S
H219 C229 0.930 . S
C220 H214 0.930 . S
C220 C221 1.355 . S
C220 C222 1.415 . S
C221 C220 1.355 . S
C221 C223 1.419 . S
C222 C220 1.415 . S
C222 C227 1.425 . S
C222 C229 1.409 . S
C223 H215 0.930 . S
C223 C221 1.419 . S
C223 C224 1.362 . S
C224 H216 0.930 . S
C224 C223 1.362 . S
C224 C227 1.409 . S
C225 H217 0.930 . S
C225 C226 1.355 . S
C225 C227 1.415 . S
C226 C225 1.355 . S
C226 C228 1.419 . S
C227 C222 1.425 . S
C227 C224 1.409 . S
C227 C225 1.415 . S
C228 H218 0.930 . S
C228 C226 1.419 . S
C228 C229 1.362 . S
C229 H219 0.930 . S
C229 C222 1.409 . S
C229 C228 1.362 . S
H230 C236 0.930 . S
H231 C239 0.930 . S
H232 C240 0.930 . S
H233 C241 0.930 . S
H234 C244 0.930 . S
H235 C245 0.930 . S
C236 H230 0.930 . S
C236 C237 1.355 . S
C236 C238 1.415 . S
C237 C236 1.355 . S
C237 C239 1.419 . S
C238 C236 1.415 . S
C238 C243 1.425 . S
C238 C245 1.409 . S
C239 H231 0.930 . S
C239 C237 1.419 . S
C239 C240 1.362 . S
C240 H232 0.930 . S
C240 C239 1.362 . S
C240 C243 1.409 . S
C241 H233 0.930 . S
C241 C242 1.355 . S
C241 C243 1.415 . S
C242 C241 1.355 . S
C242 C244 1.419 . S
C243 C238 1.425 . S
C243 C240 1.409 . S
C243 C241 1.415 . S
C244 H234 0.930 . S
C244 C242 1.419 . S
C244 C245 1.362 . S
C245 H235 0.930 . S
C245 C238 1.409 . S
C245 C244 1.362 . S
H246 C252 0.930 . S
H247 C255 0.930 . S
H248 C256 0.930 . S
H249 C257 0.930 . S
H250 C260 0.930 . S
H251 C261 0.930 . S
C252 H246 0.930 . S
C252 C253 1.355 . S
C252 C254 1.415 . S
C253 C252 1.355 . S
C253 C255 1.419 . S
C254 C252 1.415 . S
C254 C259 1.425 . S
C254 C261 1.409 . S
C255 H247 0.930 . S
C255 C253 1.419 . S
C255 C256 1.362 . S
C256 H248 0.930 . S
C256 C255 1.362 . S
C256 C259 1.409 . S
C257 H249 0.930 . S
C257 C258 1.355 . S
C257 C259 1.415 . S
C258 C257 1.355 . S
C258 C260 1.419 . S
C259 C254 1.425 . S
C259 C256 1.409 . S
C259 C257 1.415 . S
C260 H250 0.930 . S
C260 C258 1.419 . S
C260 C261 1.362 . S
C261 H251 0.930 . S
C261 C254 1.409 . S
C261 C260 1.362 . S
H262 C268 0.930 . S
H263 C271 0.930 . S
H264 C272 0.930 . S
H265 C273 0.930 . S
H266 C276 0.930 . S
H267 C277 0.930 . S
C268 H262 0.930 . S
C268 C269 1.355 . S
C268 C270 1.415 . S
C269 C268 1.355 . S
C269 C271 1.419 . S
C270 C268 1.415 . S
C270 C275 1.425 . S
C270 C277 1.409 . S
C271 H263 0.930 . S
C271 C269 1.419 . S
C271 C272 1.362 . S
C272 H264 0.930 . S
C272 C271 1.362 . S
C272 C275 1.409 . S
C273 H265 0.930 . S
C273 C274 1.355 . S
C273 C275 1.415 . S
C274 C273 1.355 . S
C274 C276 1.419 . S
C275 C270 1.425 . S
C275 C272 1.409 . S
C275 C273 1.415 . S
C276 H266 0.930 . S
C276 C274 1.419 . S
C276 C277 1.362 . S
C277 H267 0.930 . S
C277 C270 1.409 . S
C277 C276 1.362 . S
H278 C284 0.930 . S
H279 C287 0.930 . S
H280 C288 0.930 . S
H281 C289 0.930 . S
H282 C292 0.930 . S
H283 C293 0.930 . S
C284 H278 0.930 . S
C284 C285 1.355 . S
C284 C286 1.415 . S
C285 C284 1.355 . S
C285 C287 1.419 . S
C286 C284 1.415 . S
C286 C291 1.425 . S
C286 C293 1.409 . S
C287 H279 0.930 . S
C287 C285 1.419 . S
C287 C288 1.362 . S
C288 H280 0.930 . S
C288 C287 1.362 . S
C288 C291 1.409 . S
C289 H281 0.930 . S
C289 C290 1.355 . S
C289 C291 1.415 . S
C290 C289 1.355 . S
C290 C292 1.419 . S
C291 C286 1.425 . S
C291 C288 1.409 . S
C291 C289 1.415 . S
C292 H282 0.930 . S
C292 C290 1.419 . S
C292 C293 1.362 . S
C293 H283 0.930 . S
C293 C286 1.409 . S
C293 C292 1.362 . S
H294 C300 0.930 . S
H295 C303 0.930 . S
H296 C304 0.930 . S
H297 C305 0.930 . S
H298 C308 0.930 . S
H299 C309 0.930 . S
C300 H294 0.930 . S
C300 C301 1.355 . S
C300 C302 1.415 . S
C301 C300 1.355 . S
C301 C303 1.419 . S
C302 C300 1.415 . S
C302 C307 1.425 . S
C302 C309 1.409 . S
C303 H295 0.930 . S
C303 C301 1.419 . S
C303 C304 1.362 . S
C304 H296 0.930 . S
C304 C303 1.362 . S
C304 C307 1.409 . S
C305 H297 0.930 . S
C305 C306 1.355 . S
C305 C307 1.415 . S
C306 C305 1.355 . S
C306 C308 1.419 . S
C307 C302 1.425 . S
C307 C304 1.409 . S
C307 C305 1.415 . S
C308 H298 0.930 . S
C308 C306 1.419 . S
C308 C309 1.362 . S
C309 H299 0.930 . S
C309 C302 1.409 . S
C309 C308 1.362 . S
H310 C316 0.930 . S
H311 C319 0.930 . S
H312 C320 0.930 . S
H313 C321 0.930 . S
H314 C324 0.930 1_455 S
H315 C325 0.930 . S
C316 H310 0.930 . S
C316 C317 1.355 . S
C316 C318 1.415 . S
C317 C316 1.355 . S
C317 C319 1.419 . S
C318 C316 1.415 . S
C318 C323 1.425 . S
C318 C325 1.409 . S
C319 H311 0.930 . S
C319 C317 1.419 . S
C319 C320 1.362 . S
C320 H312 0.930 . S
C320 C319 1.362 . S
C320 C323 1.409 . S
C321 H313 0.930 . S
C321 C322 1.355 . S
C321 C323 1.415 . S
C322 C321 1.355 . S
C322 C324 1.419 . S
C323 C318 1.425 . S
C323 C320 1.409 . S
C323 C321 1.415 . S
C324 H314 0.930 1_655 S
C324 C322 1.419 . S
C324 C325 1.362 . S
C325 H315 0.930 . S
C325 C318 1.409 . S
C325 C324 1.362 . S
H326 C332 0.930 . S
H327 C335 0.930 . S
H328 C336 0.930 . S
H329 C337 0.930 . S
H330 C340 0.930 . S
H331 C341 0.930 . S
C332 H326 0.930 . S
C332 C333 1.355 . S
C332 C334 1.415 . S
C333 C332 1.355 . S
C333 C335 1.419 . S
C334 C332 1.415 . S
C334 C339 1.425 . S
C334 C341 1.409 . S
C335 H327 0.930 . S
C335 C333 1.419 . S
C335 C336 1.362 . S
C336 H328 0.930 . S
C336 C335 1.362 . S
C336 C339 1.409 . S
C337 H329 0.930 . S
C337 C338 1.355 . S
C337 C339 1.415 . S
C338 C337 1.355 . S
C338 C340 1.419 . S
C339 C334 1.425 . S
C339 C336 1.409 . S
C339 C337 1.415 . S
C340 H330 0.930 . S
C340 C338 1.419 . S
C340 C341 1.362 . S
C341 H331 0.930 . S
C341 C334 1.409 . S
C341 C340 1.362 . S
H342 C348 0.930 . S
H343 C351 0.930 . S
H344 C352 0.930 . S
H345 C353 0.930 . S
H346 C356 0.930 . S
H347 C357 0.930 . S
C348 H342 0.930 . S
C348 C349 1.355 . S
C348 C350 1.415 . S
C349 C348 1.355 . S
C349 C351 1.419 . S
C350 C348 1.415 . S
C350 C355 1.425 . S
C350 C357 1.409 . S
C351 H343 0.930 . S
C351 C349 1.419 . S
C351 C352 1.362 . S
C352 H344 0.930 . S
C352 C351 1.362 . S
C352 C355 1.409 . S
C353 H345 0.930 . S
C353 C354 1.355 . S
C353 C355 1.415 . S
C354 C353 1.355 . S
C354 C356 1.419 . S
C355 C350 1.425 . S
C355 C352 1.409 . S
C355 C353 1.415 . S
C356 H346 0.930 . S
C356 C354 1.419 . S
C356 C357 1.362 . S
C357 H347 0.930 . S
C357 C350 1.409 . S
C357 C356 1.362 . S
H358 C364 0.930 . S
H359 C367 0.930 . S
H360 C368 0.930 . S
H361 C369 0.930 . S
H362 C372 0.930 . S
H363 C373 0.930 . S
C364 H358 0.930 . S
C364 C365 1.355 . S
C364 C366 1.415 . S
C365 C364 1.355 . S
C365 C367 1.419 . S
C366 C364 1.415 . S
C366 C371 1.425 . S
C366 C373 1.409 . S
C367 H359 0.930 . S
C367 C365 1.419 . S
C367 C368 1.362 . S
C368 H360 0.930 . S
C368 C367 1.362 . S
C368 C371 1.409 . S
C369 H361 0.930 . S
C369 C370 1.355 . S
C369 C371 1.415 . S
C370 C369 1.355 . S
C370 C372 1.419 . S
C371 C366 1.425 . S
C371 C368 1.409 . S
C371 C369 1.415 . S
C372 H362 0.930 . S
C372 C370 1.419 . S
C372 C373 1.362 . S
C373 H363 0.930 . S
C373 C366 1.409 . S
C373 C372 1.362 . S
H374 C380 0.930 . S
H375 C383 0.930 . S
H376 C384 0.930 . S
H377 C385 0.930 . S
H378 C388 0.930 . S
H379 C389 0.930 . S
C380 H374 0.930 . S
C380 C381 1.355 . S
C380 C382 1.415 . S
C381 C380 1.355 . S
C381 C383 1.419 . S
C382 C380 1.415 . S
C382 C387 1.425 . S
C382 C389 1.409 . S
C383 H375 0.930 . S
C383 C381 1.419 . S
C383 C384 1.362 . S
C384 H376 0.930 . S
C384 C383 1.362 . S
C384 C387 1.409 . S
C385 H377 0.930 . S
C385 C386 1.355 . S
C385 C387 1.415 . S
C386 C385 1.355 . S
C386 C388 1.419 . S
C387 C382 1.425 . S
C387 C384 1.409 . S
C387 C385 1.415 . S
C388 H378 0.930 . S
C388 C386 1.419 . S
C388 C389 1.362 . S
C389 H379 0.930 . S
C389 C382 1.409 . S
C389 C388 1.362 . S
H390 C396 0.930 . S
H391 C399 0.930 . S
H392 C400 0.930 . S
H393 C401 0.930 . S
H394 C404 0.928 1_655 S
H395 C405 0.930 . S
C396 H390 0.930 . S
C396 C397 1.355 1_655 S
C396 C398 1.415 1_655 S
C397 C396 1.355 1_455 S
C397 C399 1.419 . S
C398 C396 1.415 1_455 S
C398 C403 1.425 . S
C398 C405 1.409 1_454 S
C399 H391 0.930 . S
C399 C397 1.419 . S
C399 C400 1.362 . S
C400 H392 0.930 . S
C400 C399 1.362 . S
C400 C403 1.409 . S
C401 H393 0.930 . S
C401 C402 1.355 . S
C401 C403 1.415 1_556 S
C402 C401 1.355 . S
C402 C404 1.423 . S
C403 C398 1.425 . S
C403 C400 1.409 . S
C403 C401 1.415 1_554 S
C404 H394 0.928 1_455 S
C404 C402 1.423 . S
C404 C405 1.361 1_455 S
C405 H395 0.930 . S
C405 C398 1.409 1_656 S
C405 C404 1.361 1_655 S
H406 C412 0.930 . S
H407 C415 0.930 . S
H408 C416 0.930 . S
H409 C417 0.930 . S
H410 C420 0.930 . S
H411 C421 0.930 . S
C412 H406 0.930 . S
C412 C413 1.355 1_565 S
C412 C414 1.415 1_565 S
C413 C412 1.355 1_545 S
C413 C415 1.419 . S
C414 C412 1.415 1_545 S
C414 C419 1.425 . S
C414 C421 1.409 1_545 S
C415 H407 0.930 . S
C415 C413 1.419 . S
C415 C416 1.362 . S
C416 H408 0.930 . S
C416 C415 1.362 . S
C416 C419 1.409 . S
C417 H409 0.930 . S
C417 C418 1.355 . S
C417 C419 1.415 . S
C418 C417 1.355 . S
C418 C420 1.419 1_545 S
C419 C414 1.425 . S
C419 C416 1.409 . S
C419 C417 1.415 . S
C420 H410 0.930 . S
C420 C418 1.419 1_565 S
C420 C421 1.362 . S
C421 H411 0.930 . S
C421 C414 1.409 1_565 S
C421 C420 1.362 . S
H422 C428 0.930 . S
H423 C431 0.930 . S
H424 C432 0.930 . S
H425 C433 0.930 . S
H426 C436 0.930 . S
H427 C437 0.930 . S
C428 H422 0.930 . S
C428 C429 1.355 . S
C428 C430 1.415 . S
C429 C428 1.355 . S
C429 C431 1.419 . S
C430 C428 1.415 . S
C430 C435 1.425 . S
C430 C437 1.409 . S
C431 H423 0.930 . S
C431 C429 1.419 . S
C431 C432 1.362 . S
C432 H424 0.930 . S
C432 C431 1.362 . S
C432 C435 1.409 . S
C433 H425 0.930 . S
C433 C434 1.355 . S
C433 C435 1.415 . S
C434 C433 1.355 . S
C434 C436 1.419 . S
C435 C430 1.425 . S
C435 C432 1.409 . S
C435 C433 1.415 . S
C436 H426 0.930 . S
C436 C434 1.419 . S
C436 C437 1.362 . S
C437 H427 0.930 . S
C437 C430 1.409 . S
C437 C436 1.362 . S
H438 C444 0.930 . S
H439 C447 0.930 . S
H440 C448 0.930 . S
H441 C449 0.930 . S
H442 C452 0.930 . S
H443 C453 0.930 . S
C444 H438 0.930 . S
C444 C445 1.355 . S
C444 C446 1.415 . S
C445 C444 1.355 . S
C445 C447 1.419 1_545 S
C446 C444 1.415 . S
C446 C451 1.425 1_545 S
C446 C453 1.409 . S
C447 H439 0.930 . S
C447 C445 1.419 1_565 S
C447 C448 1.362 . S
C448 H440 0.930 . S
C448 C447 1.362 . S
C448 C451 1.409 . S
C449 H441 0.930 . S
C449 C450 1.355 1_565 S
C449 C451 1.415 . S
C450 C449 1.355 1_545 S
C450 C452 1.419 . S
C451 C446 1.425 1_565 S
C451 C448 1.409 . S
C451 C449 1.415 . S
C452 H442 0.930 . S
C452 C450 1.419 . S
C452 C453 1.362 . S
C453 H443 0.930 . S
C453 C446 1.409 . S
C453 C452 1.362 . S
H454 C460 0.930 . S
H455 C463 0.930 . S
H456 C464 0.930 . S
H457 C465 0.930 . S
H458 C468 0.930 . S
H459 C469 0.930 . S
C460 H454 0.930 . S
C460 C461 1.355 . S
C460 C462 1.415 . S
C461 C460 1.355 . S
C461 C463 1.419 . S
C462 C460 1.415 . S
C462 C467 1.425 . S
C462 C469 1.409 . S
C463 H455 0.930 . S
C463 C461 1.419 . S
C463 C464 1.362 . S
C464 H456 0.930 . S
C464 C463 1.362 . S
C464 C467 1.409 . S
C465 H457 0.930 . S
C465 C466 1.355 . S
C465 C467 1.415 1_554 S
C466 C465 1.355 . S
C466 C468 1.419 . S
C467 C462 1.425 . S
C467 C464 1.409 . S
C467 C465 1.415 1_556 S
C468 H458 0.930 . S
C468 C466 1.419 . S
C468 C469 1.362 1_554 S
C469 H459 0.930 . S
C469 C462 1.409 . S
C469 C468 1.362 1_556 S
H470 C476 0.930 . S
H471 C479 0.930 . S
H472 C480 0.930 . S
H473 C481 0.930 . S
H474 C484 0.930 . S
H475 C485 0.930 . S
C476 H470 0.930 . S
C476 C477 1.355 1_455 S
C476 C478 1.415 . S
C477 C476 1.355 1_655 S
C477 C479 1.419 . S
C478 C476 1.415 . S
C478 C483 1.425 1_455 S
C478 C485 1.409 . S
C479 H471 0.930 . S
C479 C477 1.419 . S
C479 C480 1.362 . S
C480 H472 0.930 . S
C480 C479 1.362 . S
C480 C483 1.409 . S
C481 H473 0.930 . S
C481 C482 1.355 1_655 S
C481 C483 1.415 . S
C482 C481 1.355 1_455 S
C482 C484 1.419 . S
C483 C478 1.425 1_655 S
C483 C480 1.409 . S
C483 C481 1.415 . S
C484 H474 0.930 . S
C484 C482 1.419 . S
C484 C485 1.362 . S
C485 H475 0.930 . S
C485 C478 1.409 . S
C485 C484 1.362 . S
C205 C7 0.803 . S
C210 C189 0.872 . S
C221 C51 1.849 . S
C226 C167 1.829 . S
C237 C87 1.209 . S
C242 C180 1.260 . S
C253 C16 0.458 . S
C258 C193 0.403 . S
C274 C163 1.904 . S
C269 C42 2.032 . S
C290 C176 1.270 . S
C285 C96 1.377 . S
C301 C47 1.085 . S
C306 C141 1.118 . S
C317 C91 3.051 . S
C322 C154 3.011 1_655 S
C333 C2 2.037 . S
C338 C124 1.936 . S
C354 C137 1.387 . S
C349 C56 1.379 . S
C370 C150 2.855 . S
C365 C82 3.058 . S
C381 C11 1.836 . S
C386 C128 1.833 . S
C402 C155 1.742 . S
C397 C19 1.727 . S
C413 C50 1.469 . S
C418 C129 1.486 . S
C429 C99 1.518 . S
C434 C142 1.610 . S
C450 C181 1.535 . S
C445 C59 1.469 . S
C466 C194 1.303 . S
C461 C90 1.286 . S
C477 C10 1.430 1_655 S
C482 C168 1.476 . S
