# Generated by pormake.
# Topology pyr, (3,6)-cn, num edge types: 1
# Building blocks:
#     Node 0, Type 0, BuildingBlock: PAMTOO_clean_linker_0, # of connection points: 3
#     Node 1, Type 0, BuildingBlock: PAMTOO_clean_linker_0, # of connection points: 3
#     Node 2, Type 0, BuildingBlock: PAMTOO_clean_linker_0, # of connection points: 3
#     Node 3, Type 0, BuildingBlock: PAMTOO_clean_linker_0, # of connection points: 3
#     Node 4, Type 0, BuildingBlock: PAMTOO_clean_linker_0, # of connection points: 3
#     Node 5, Type 0, BuildingBlock: PAMTOO_clean_linker_0, # of connection points: 3
#     Node 6, Type 0, BuildingBlock: PAMTOO_clean_linker_0, # of connection points: 3
#     Node 7, Type 0, BuildingBlock: PAMTOO_clean_linker_0, # of connection points: 3
#     Node 8, Type 1, BuildingBlock: VOLQOD_clean_sbu_1, # of connection points: 6
#     Node 9, Type 1, BuildingBlock: VOLQOD_clean_sbu_1, # of connection points: 6
#     Node 10, Type 1, BuildingBlock: VOLQOD_clean_sbu_1, # of connection points: 6
#     Node 11, Type 1, BuildingBlock: VOLQOD_clean_sbu_1, # of connection points: 6
#     Edge 12, Type (0, 1), BuildingBlock: OJICUG_clean_linker_0, # of connection points: 2
#     Edge 13, Type (0, 1), BuildingBlock: OJICUG_clean_linker_0, # of connection points: 2
#     Edge 14, Type (0, 1), BuildingBlock: OJICUG_clean_linker_0, # of connection points: 2
#     Edge 15, Type (0, 1), BuildingBlock: OJICUG_clean_linker_0, # of connection points: 2
#     Edge 16, Type (0, 1), BuildingBlock: OJICUG_clean_linker_0, # of connection points: 2
#     Edge 17, Type (0, 1), BuildingBlock: OJICUG_clean_linker_0, # of connection points: 2
#     Edge 18, Type (0, 1), BuildingBlock: OJICUG_clean_linker_0, # of connection points: 2
#     Edge 19, Type (0, 1), BuildingBlock: OJICUG_clean_linker_0, # of connection points: 2
#     Edge 20, Type (0, 1), BuildingBlock: OJICUG_clean_linker_0, # of connection points: 2
#     Edge 21, Type (0, 1), BuildingBlock: OJICUG_clean_linker_0, # of connection points: 2
#     Edge 22, Type (0, 1), BuildingBlock: OJICUG_clean_linker_0, # of connection points: 2
#     Edge 23, Type (0, 1), BuildingBlock: OJICUG_clean_linker_0, # of connection points: 2
#     Edge 24, Type (0, 1), BuildingBlock: OJICUG_clean_linker_0, # of connection points: 2
#     Edge 25, Type (0, 1), BuildingBlock: OJICUG_clean_linker_0, # of connection points: 2
#     Edge 26, Type (0, 1), BuildingBlock: OJICUG_clean_linker_0, # of connection points: 2
#     Edge 27, Type (0, 1), BuildingBlock: OJICUG_clean_linker_0, # of connection points: 2
#     Edge 28, Type (0, 1), BuildingBlock: OJICUG_clean_linker_0, # of connection points: 2
#     Edge 29, Type (0, 1), BuildingBlock: OJICUG_clean_linker_0, # of connection points: 2
#     Edge 30, Type (0, 1), BuildingBlock: OJICUG_clean_linker_0, # of connection points: 2
#     Edge 31, Type (0, 1), BuildingBlock: OJICUG_clean_linker_0, # of connection points: 2
#     Edge 32, Type (0, 1), BuildingBlock: OJICUG_clean_linker_0, # of connection points: 2
#     Edge 33, Type (0, 1), BuildingBlock: OJICUG_clean_linker_0, # of connection points: 2
#     Edge 34, Type (0, 1), BuildingBlock: OJICUG_clean_linker_0, # of connection points: 2
#     Edge 35, Type (0, 1), BuildingBlock: OJICUG_clean_linker_0, # of connection points: 2
# Relax obj value: 0.126
# Max RMSD: 0.195
# Mean RMSD: 0.159
data_MOF--net-pry--node1-VOLQOD_clean_sbu_1--node2-PAMTOO_clean_linker_0--edge1-OJICUG_clean_linker_0
_symmetry_space_group_name_H-M    P1
_symmetry_Int_Tables_number       1
_symmetry_cell_setting            triclinic
loop_
_symmetry_equiv_pos_as_xyz
'x, y, z'
_cell_length_a     26.750999
_cell_length_b     27.725643
_cell_length_c     27.504891
_cell_angle_alpha  89.785809
_cell_angle_beta   91.303608
_cell_angle_gamma 95.622366
loop_
_atom_site_label
_atom_site_type_symbol
_atom_site_fract_x
_atom_site_fract_y
_atom_site_fract_z
_atom_type_partial_charge
H0 H 0.07943 0.19096 0.2131 0.0
H1 H 0.19114 0.08932 0.21297 0.0
H2 H 0.18497 0.18979 0.09603 0.0
H3 H 0.19758 0.08696 0.06687 0.0
C4 C 0.21958 0.07727 0.09971 0.0
O5 O 0.22825 0.11691 0.12989 0.0
H6 H 0.19738 0.04712 0.11878 0.0
C7 C 0.11062 0.17645 0.19572 0.0
C8 C 0.1286 0.19594 0.15099 0.0
C9 C 0.13369 0.13856 0.21878 0.0
C10 C 0.17346 0.11894 0.19614 0.0
C11 C 0.19042 0.13671 0.15146 0.0
C12 C 0.16895 0.17542 0.12949 0.0
H13 H 0.35164 0.96208 0.69946 0.0
H14 H 0.35359 0.86594 0.57704 0.0
H15 H 0.46781 0.86507 0.68799 0.0
H16 H 0.50305 0.85298 0.59122 0.0
C17 C 0.47012 0.83036 0.5752 0.0
O18 O 0.43195 0.82467 0.60814 0.0
H19 H 0.45715 0.84901 0.54201 0.0
C20 C 0.36986 0.93528 0.67962 0.0
C21 C 0.41274 0.91616 0.69983 0.0
C22 C 0.34826 0.91738 0.63525 0.0
C23 C 0.37028 0.88079 0.61072 0.0
C24 C 0.41324 0.86232 0.62995 0.0
C25 C 0.43453 0.88015 0.67391 0.0
H26 H 0.70543 0.32285 0.97771 0.0
H27 H 0.56979 0.33846 0.89383 0.0
H28 H 0.69289 0.4486 0.88807 0.0
H29 H 0.59315 0.48379 0.8753 0.0
C30 C 0.57429 0.45252 0.85447 0.0
O31 O 0.60614 0.41685 0.85017 0.0
H32 H 0.53993 0.4382 0.87393 0.0
C33 C 0.6828 0.3443 0.95464 0.0
C34 C 0.70426 0.3889 0.93684 0.0
C35 C 0.63422 0.32541 0.93968 0.0
C36 C 0.60698 0.35227 0.90675 0.0
C37 C 0.62859 0.39612 0.88801 0.0
C38 C 0.67664 0.41478 0.9035 0.0
H39 H 0.86342 0.68462 0.4866 0.0
H40 H 0.87915 0.55968 0.39658 0.0
H41 H 0.98132 0.68683 0.38261 0.0
H42 H 0.93293 0.65211 0.29448 0.0
C43 C 0.93037 0.61223 0.3007 0.0
O44 O 0.95092 0.60253 0.34571 0.0
H45 H 0.88979 0.59859 0.2993 0.0
C46 C 0.88356 0.66581 0.46 0.0
C47 C 0.92568 0.69055 0.43795 0.0
C48 C 0.86543 0.61852 0.44504 0.0
C49 C 0.89159 0.596 0.40896 0.0
C50 C 0.9323 0.62111 0.38598 0.0
C51 C 0.94984 0.66777 0.40103 0.0
H52 H 0.86088 0.97125 0.84364 0.0
H53 H 0.87008 0.87733 0.9675 0.0
H54 H 0.97604 0.87263 0.85381 0.0
H55 H 0.90018 0.78442 0.88693 0.0
C56 C 0.9163 0.78615 0.92472 0.0
O57 O 0.94225 0.83108 0.93314 0.0
H58 H 0.88443 0.78085 0.95006 0.0
C59 C 0.88039 0.94473 0.86364 0.0
C60 C 0.9221 0.92567 0.84337 0.0
C61 C 0.86191 0.92801 0.90868 0.0
C62 C 0.88542 0.89205 0.93382 0.0
C63 C 0.9256 0.87138 0.91315 0.0
C64 C 0.9446 0.88891 0.86881 0.0
H65 H 0.71835 0.04552 0.34616 0.0
H66 H 0.59361 0.1322 0.34555 0.0
H67 H 0.69597 0.13921 0.46741 0.0
H68 H 0.58899 0.15447 0.49028 0.0
C69 C 0.57999 0.17404 0.45628 0.0
O70 O 0.62099 0.17725 0.42648 0.0
H71 H 0.54714 0.15398 0.43742 0.0
C72 C 0.69662 0.0706 0.36455 0.0
C73 C 0.713 0.08971 0.4104 0.0
C74 C 0.65285 0.08464 0.34134 0.0
C75 C 0.6259 0.11903 0.36389 0.0
C76 C 0.64214 0.13886 0.40888 0.0
C77 C 0.6846 0.12344 0.43246 0.0
H78 H 0.39038 0.67014 0.02776 0.0
H79 H 0.3863 0.5397 0.11388 0.0
H80 H 0.49798 0.65727 0.14461 0.0
H81 H 0.53467 0.57022 0.16162 0.0
C82 C 0.50176 0.54808 0.17693 0.0
O83 O 0.45909 0.57177 0.17186 0.0
H84 H 0.49595 0.51278 0.15753 0.0
C85 C 0.4067 0.64845 0.05572 0.0
C86 C 0.44835 0.66847 0.08336 0.0
C87 C 0.38353 0.60212 0.06672 0.0
C88 C 0.40462 0.57468 0.10341 0.0
C89 C 0.44569 0.59465 0.13118 0.0
C90 C 0.46727 0.64155 0.12156 0.0
H91 H 0.10401 0.32652 0.701 0.0
H92 H 0.12879 0.47641 0.6599 0.0
H93 H 0.14514 0.36582 0.55444 0.0
H94 H 0.19339 0.51042 0.60935 0.0
C95 C 0.18786 0.49629 0.57161 0.0
O96 O 0.14942 0.45918 0.56904 0.0
H97 H 0.17596 0.52717 0.54981 0.0
C98 C 0.11469 0.35395 0.67397 0.0
C99 C 0.12325 0.33998 0.62607 0.0
C100 C 0.11736 0.40303 0.68675 0.0
C101 C 0.12846 0.43837 0.65096 0.0
C102 C 0.14068 0.42497 0.60389 0.0
C103 C 0.1386 0.37578 0.59165 0.0
O104 O 0.02667 0.12087 0.57703 0.0
Zn105 Zn 0.99093 0.05432 0.56507 0.0
O106 O 0.03344 0.01513 0.52696 0.0
Zn107 Zn -0.00104 0.9954 0.46558 0.0
Zn108 Zn 0.09809 0.05222 0.5138 0.0
Zn109 Zn 0.04603 0.95707 0.56321 0.0
O110 O 0.99043 0.9224 0.45745 0.0
O111 O 0.01602 0.89694 0.52956 0.0
O112 O 0.92457 0.06195 0.52929 0.0
O113 O 0.92926 0.01623 0.46365 0.0
O114 O 0.0346 0.02817 0.40842 0.0
O115 O 0.10495 0.06439 0.44163 0.0
O116 O 0.15741 0.01898 0.54084 0.0
O117 O 0.97584 0.02358 0.63122 0.0
O118 O 0.11989 0.95192 0.57349 0.0
O119 O 0.015 0.95668 0.62845 0.0
C120 C 0.07027 0.14089 0.56732 0.0
C121 C 0.99651 0.88827 0.48754 0.0
C122 C 0.07631 0.05424 0.40462 0.0
C123 C 0.90525 0.04317 0.49007 0.0
C124 C 0.15957 0.97901 0.56353 0.0
C125 C 0.98829 0.98457 0.65075 0.0
O126 O 0.10149 0.11835 0.54423 0.0
O127 O 0.53528 0.10437 0.97144 0.0
Zn128 Zn 0.50177 0.03736 0.97874 0.0
O129 O 0.5441 0.99788 0.01826 0.0
Zn130 Zn 0.55885 0.9441 0.9776 0.0
Zn131 Zn 0.60703 0.0354 0.03844 0.0
Zn132 Zn 0.50899 0.97435 0.07694 0.0
O133 O 0.53748 0.88115 0.00983 0.0
O134 O 0.50171 0.90105 0.07817 0.0
O135 O 0.48461 0.0104 0.91141 0.0
O136 O 0.52193 0.94261 0.91313 0.0
O137 O 0.63237 0.94743 0.96399 0.0
O138 O 0.66742 0.00864 0.009 0.0
O139 O 0.61663 0.03734 0.11147 0.0
O140 O 0.43641 0.04254 0.01131 0.0
O141 O 0.54611 0.9989 0.13875 0.0
O142 O 0.43959 0.9974 0.07799 0.0
C143 C 0.57549 0.12619 0.9894 0.0
C144 C 0.51488 0.86927 0.04892 0.0
C145 C 0.67095 0.97412 0.97917 0.0
C146 C 0.49466 0.97134 0.89132 0.0
C147 C 0.58881 0.02261 0.14656 0.0
C148 C 0.41641 0.02469 0.04976 0.0
O149 O 0.60566 0.10452 0.01627 0.0
O150 O 0.57016 0.52414 0.62917 0.0
Zn151 Zn 0.57354 0.54826 0.56001 0.0
O152 O 0.53113 0.50361 0.51727 0.0
Zn153 Zn 0.57295 0.47634 0.46973 0.0
Zn154 Zn 0.49629 0.4503 0.55452 0.0
Zn155 Zn 0.48211 0.53959 0.48288 0.0
O156 O 0.5523 0.49134 0.40163 0.0
O157 O 0.49268 0.54063 0.41095 0.0
O158 O 0.64617 0.55644 0.53838 0.0
O159 O 0.6443 0.50498 0.47659 0.0
O160 O 0.5689 0.40437 0.47414 0.0
O161 O 0.51449 0.384 0.5323 0.0
O162 O 0.42065 0.45171 0.54891 0.0
O163 O 0.54901 0.61512 0.55972 0.0
O164 O 0.41173 0.5111 0.49597 0.0
O165 O 0.48661 0.60878 0.50497 0.0
C166 C 0.54453 0.48892 0.64973 0.0
C167 C 0.52115 0.51874 0.38397 0.0
C168 C 0.5441 0.37236 0.49953 0.0
C169 C 0.66806 0.53662 0.5041 0.0
C170 C 0.39283 0.47748 0.52361 0.0
C171 C 0.51441 0.63371 0.53566 0.0
O172 O 0.51516 0.45857 0.62538 0.0
O173 O 0.99352 0.49135 0.11534 0.0
Zn174 Zn 0.00107 0.45366 0.05437 0.0
O175 O 0.0445 0.4914 0.00883 0.0
Zn176 Zn 0.00744 0.506 0.94984 0.0
Zn177 Zn 0.06972 0.55313 0.03879 0.0
Zn178 Zn 0.09929 0.45343 0.99125 0.0
O179 O 0.03888 0.48277 0.8901 0.0
O180 O 0.09863 0.43978 0.91911 0.0
O181 O 0.93174 0.43793 0.02457 0.0
O182 O 0.93796 0.47351 0.95213 0.0
O183 O 0.00027 0.57697 0.94208 0.0
O184 O 0.0425 0.61066 0.00543 0.0
O185 O 0.14478 0.5614 0.0363 0.0
O186 O 0.02978 0.39159 0.07484 0.0
O187 O 0.16565 0.49168 0.00672 0.0
O188 O 0.09613 0.38963 0.0279 0.0
C189 C 0.01548 0.53059 0.13258 0.0
C190 C 0.07371 0.45556 0.88343 0.0
C191 C 0.01544 0.61421 0.96716 0.0
C192 C 0.91257 0.44853 0.98352 0.0
C193 C 0.17778 0.53423 0.02318 0.0
C194 C 0.06715 0.37075 0.06047 0.0
O195 O 0.0478 0.55669 0.10816 0.0
C196 C 0.15383 0.11617 0.3045 0.0
C197 C 0.11779 0.11936 0.26696 0.0
H198 H 0.16911 0.09316 0.37719 0.0
C199 C 0.06785 0.10104 0.27482 0.0
H200 H 0.19263 0.13009 0.2993 0.0
C201 C 0.05445 0.07901 0.31923 0.0
C202 C 0.09063 0.07565 0.35681 0.0
H203 H 0.03952 0.1027 0.24625 0.0
H204 H 0.01567 0.065 0.32426 0.0
C205 C 0.14037 0.0949 0.34902 0.0
C206 C 0.43403 0.97925 0.76535 0.0
C207 C 0.43317 0.93108 0.74906 0.0
H208 H 0.45407 0.02992 0.82305 0.0
C209 C 0.45204 0.89661 0.78045 0.0
H210 H 0.42018 0.00687 0.74213 0.0
C211 C 0.47224 0.90998 0.82618 0.0
C212 C 0.47339 0.95805 0.84237 0.0
H213 H 0.45074 0.85888 0.77005 0.0
H214 H 0.48636 0.88229 0.84915 0.0
C215 C 0.45369 0.99254 0.81163 0.0
C216 C 0.59122 0.5044 0.78039 0.0
C217 C 0.56089 0.46769 0.80388 0.0
H218 H 0.60968 0.54023 0.71322 0.0
C219 C 0.52381 0.43941 0.77694 0.0
H220 H 0.62092 0.52579 0.80031 0.0
C221 C 0.51775 0.44704 0.72706 0.0
C222 C 0.54896 0.48294 0.7031 0.0
H223 H 0.50087 0.41011 0.79418 0.0
H224 H 0.4894 0.42396 0.70714 0.0
C225 C 0.58506 0.51225 0.7305 0.0
C226 C 0.9971 0.61457 0.23739 0.0
C227 C 0.95721 0.58865 0.26135 0.0
H228 H 0.04716 0.61646 0.17775 0.0
C229 C 0.94101 0.54123 0.2466 0.0
H230 H 0.01069 0.65095 0.24885 0.0
C231 C 0.96177 0.52135 0.20606 0.0
C232 C -0.00065 0.54851 0.17977 0.0
H233 H 0.91083 0.52037 0.26524 0.0
H234 H 0.94697 0.48542 0.1943 0.0
C235 C 0.01794 0.59474 0.19683 0.0
C236 C 0.2923 0.07972 0.04314 0.0
C237 C 0.26913 0.06131 0.08542 0.0
H238 H 0.35672 0.08226 0.99843 0.0
C239 C 0.29444 0.03077 0.11612 0.0
H240 H 0.27375 0.10407 0.01945 0.0
C241 C 0.34208 0.01832 0.10438 0.0
C242 C 0.36541 0.03662 0.0619 0.0
H243 H 0.27748 0.01694 0.14942 0.0
H244 H 0.36077 0.9948 0.12884 0.0
C245 C 0.33984 0.06731 0.03132 0.0
C246 C 0.29548 0.98319 0.6081 0.0
C247 C 0.30048 0.93382 0.61622 0.0
H248 H 0.24712 0.0363 0.58382 0.0
C249 C 0.25941 0.89963 0.60586 0.0
H250 H 0.32675 0.01018 0.61568 0.0
C251 C 0.21394 0.91444 0.58842 0.0
C252 C 0.20874 0.96376 0.58003 0.0
H253 H 0.26226 0.86136 0.61205 0.0
H254 H 0.18279 0.88717 0.58139 0.0
C255 C 0.25014 0.99802 0.58959 0.0
C256 C 0.7897 0.42478 0.91339 0.0
C257 C 0.75717 0.40571 0.94954 0.0
H258 H 0.86416 0.45281 0.89569 0.0
C259 C 0.7762 0.40054 0.99716 0.0
H260 H 0.77652 0.42824 0.87614 0.0
C261 C 0.82684 0.4139 0.00829 0.0
C262 C 0.8593 0.43297 0.97205 0.0
H263 H 0.75188 0.38625 0.02585 0.0
H264 H 0.8404 0.40968 0.04532 0.0
C265 C 0.84012 0.43841 0.92455 0.0
C266 C 0.79985 0.60242 0.50997 0.0
C267 C 0.81653 0.59475 0.46261 0.0
H268 H 0.7398 0.59012 0.56054 0.0
C269 C 0.78464 0.56582 0.43063 0.0
H270 H 0.82342 0.62397 0.53589 0.0
C271 C 0.73772 0.54545 0.4452 0.0
C272 C 0.7204 0.55425 0.49185 0.0
H273 H 0.79485 0.5601 0.3934 0.0
H274 H 0.71413 0.52435 0.4189 0.0
C275 C 0.75208 0.58271 0.5243 0.0
C276 C 0.08883 0.27515 0.15548 0.0
C277 C 0.10755 0.23872 0.12743 0.0
H278 H 0.06063 0.34505 0.15611 0.0
C279 C 0.10902 0.24517 0.07653 0.0
H280 H 0.08752 0.27227 0.19468 0.0
C281 C 0.09555 0.28785 0.05484 0.0
C282 C 0.07828 0.32445 0.08313 0.0
H283 H 0.12125 0.21754 0.05312 0.0
H284 H 0.09861 0.29222 0.01583 0.0
C285 C 0.07373 0.31721 0.13346 0.0
C286 C 0.62741 0.2572 0.00038 0.0
C287 C 0.6148 0.27557 0.95439 0.0
H288 H 0.62565 0.19512 0.04713 0.0
C289 C 0.58684 0.24463 0.92114 0.0
H290 H 0.64788 0.28017 0.02735 0.0
C291 C 0.57289 0.19638 0.93316 0.0
C292 C 0.58765 0.17776 0.97813 0.0
H293 H 0.57726 0.25695 0.88504 0.0
H294 H 0.55218 0.17317 0.90649 0.0
C295 C 0.6146 0.20858 0.01185 0.0
C296 C 0.95281 0.75462 0.49948 0.0
C297 C 0.94274 0.74135 0.45085 0.0
H298 H 0.97856 0.81133 0.54913 0.0
C299 C 0.95029 0.77666 0.41423 0.0
H300 H 0.94747 0.72797 0.52828 0.0
C301 C 0.96769 0.82444 0.42601 0.0
C302 C 0.97857 0.83766 0.47462 0.0
H303 H 0.94239 0.76733 0.37642 0.0
H304 H 0.97299 0.85088 0.39703 0.0
C305 C 0.97096 0.80222 0.51124 0.0
C306 C 0.45782 0.75367 0.5259 0.0
C307 C 0.48471 0.78108 0.56236 0.0
H308 H 0.44637 0.68593 0.48852 0.0
C309 C 0.52198 0.76016 0.58967 0.0
H310 H 0.42825 0.76882 0.50504 0.0
C311 C 0.53243 0.71262 0.58045 0.0
C312 C 0.5053 0.6849 0.54412 0.0
H313 H 0.54249 0.78039 0.61864 0.0
H314 H 0.56112 0.69736 0.6024 0.0
C315 C 0.46812 0.70617 0.5167 0.0
C316 C 0.939 0.98997 0.77888 0.0
C317 C 0.9396 0.94147 0.79421 0.0
H318 H 0.95355 0.04173 0.72145 0.0
C319 C 0.95594 0.90767 0.76164 0.0
H320 H 0.92716 0.01714 0.80312 0.0
C321 C 0.97182 0.92195 0.71538 0.0
C322 C 0.97109 0.97028 0.70001 0.0
H323 H 0.95571 0.86979 0.77142 0.0
H324 H 0.98403 0.89476 0.69135 0.0
C325 C 0.95426 0.00416 0.73214 0.0
C326 C 0.58649 0.0492 0.28194 0.0
C327 C 0.63694 0.06591 0.29219 0.0
H328 H 0.53183 0.02161 0.22825 0.0
C329 C 0.67177 0.06632 0.25468 0.0
H330 H 0.55888 0.04826 0.31023 0.0
C331 C 0.65627 0.05156 0.20765 0.0
C332 C 0.60568 0.03538 0.19716 0.0
H333 H 0.71081 0.0794 0.26136 0.0
H334 H 0.68393 0.05326 0.17938 0.0
C335 C 0.5711 0.0337 0.23505 0.0
C336 C 0.50566 0.57911 0.26268 0.0
C337 C 0.5113 0.541 0.23032 0.0
H338 H 0.50269 0.60121 0.33688 0.0
C339 C 0.52366 0.49631 0.24872 0.0
H340 H 0.49725 0.61428 0.24925 0.0
C341 C 0.52795 0.48921 0.29892 0.0
C342 C 0.51908 0.52648 0.33118 0.0
H343 H 0.52887 0.46669 0.22437 0.0
H344 H 0.53665 0.45421 0.31253 0.0
C345 C 0.50854 0.57162 0.31268 0.0
C346 C 0.1288 0.39438 0.77686 0.0
C347 C 0.10684 0.41707 0.73711 0.0
H348 H 0.13588 0.38889 0.85429 0.0
C349 C 0.07429 0.45268 0.74577 0.0
H350 H 0.15436 0.36706 0.77114 0.0
C351 C 0.06351 0.46507 0.79328 0.0
C352 C 0.0854 0.44237 0.83316 0.0
H353 H 0.05646 0.47039 0.71578 0.0
H354 H 0.03802 0.49251 0.79868 0.0
C355 C 0.11836 0.40704 0.82442 0.0
C356 C 0.8109 0.96347 0.97251 0.0
C357 C 0.81402 0.94303 0.92618 0.0
H358 H 0.76287 0.99049 0.02543 0.0
C359 C 0.77034 0.93422 0.89712 0.0
H360 H 0.84423 0.97033 0.99551 0.0
C361 C 0.724 0.94457 0.91448 0.0
C362 C 0.72058 0.96488 0.96086 0.0
H363 H 0.77187 0.91804 0.86145 0.0
H364 H 0.69078 0.93666 0.89152 0.0
C365 C 0.76454 0.97499 0.98948 0.0
C366 C 0.79164 0.11071 0.462 0.0
C367 C 0.76096 0.07663 0.43378 0.0
H368 H 0.86066 0.12651 0.5027 0.0
C369 C 0.77747 0.0305 0.42689 0.0
H370 H 0.78121 0.14699 0.46748 0.0
C371 C 0.82394 0.01951 0.44587 0.0
C372 C 0.85456 0.05383 0.47337 0.0
H373 H 0.75468 0.00273 0.4066 0.0
H374 H 0.83599 0.98402 0.43897 0.0
C375 C 0.83754 0.09919 0.48207 0.0
C376 C 0.31937 0.53744 0.0344 0.0
C377 C 0.33269 0.58609 0.04717 0.0
H378 H 0.25975 0.48275 0.01648 0.0
C379 C 0.29525 0.61822 0.04788 0.0
H380 H 0.34759 0.51199 0.03351 0.0
C381 C 0.24515 0.60154 0.03863 0.0
C382 C 0.23139 0.5524 0.02826 0.0
H383 H 0.30421 0.65575 0.05834 0.0
H384 H 0.21705 0.62698 0.04106 0.0
C385 C 0.26914 0.52076 0.02477 0.0
C386 C 0.25632 0.50036 0.50989 0.0
C387 C 0.23689 0.48143 0.55372 0.0
H388 H 0.32099 0.51357 0.46572 0.0
C389 C 0.26687 0.45443 0.58381 0.0
H390 H 0.2338 0.52105 0.48592 0.0
C391 C 0.31689 0.44988 0.57221 0.0
C392 C 0.33775 0.47265 0.5305 0.0
H393 H 0.2526 0.43951 0.6178 0.0
H394 H 0.34 0.43135 0.59757 0.0
C395 C 0.30631 0.49618 0.49847 0.0
C396 C 0.94912 0.70857 0.89822 0.0
C397 C 0.94941 0.74577 0.93275 0.0
H398 H 0.97034 0.63824 0.8817 0.0
C399 C 0.97561 0.7414 0.97712 0.0
H400 H 0.92884 0.7108 0.86387 0.0
C401 C -0.00034 0.69974 0.98741 0.0
C402 C 0.99723 0.66141 0.95374 0.0
H403 H 0.97576 0.76936 0.00455 0.0
H404 H 0.01799 0.6966 0.02264 0.0
C405 C 0.97278 0.6669 0.90856 0.0
C406 C 0.47204 0.75248 0.11389 0.0
C407 C 0.46865 0.71918 0.07531 0.0
H408 H 0.48903 0.82645 0.13575 0.0
C409 C 0.48247 0.73504 0.02865 0.0
H410 H 0.46112 0.741 0.15015 0.0
C411 C 0.49899 0.78362 0.0205 0.0
C412 C 0.50104 0.81738 0.05874 0.0
H413 H 0.48018 0.70987 0.99845 0.0
H414 H 0.50878 0.79493 0.98391 0.0
C415 C 0.48773 0.80129 0.1056 0.0
C416 C 0.06603 0.2632 0.6268 0.0
C417 C 0.11096 0.28868 0.6114 0.0
H418 H 0.01801 0.19699 0.62507 0.0
C419 C 0.14267 0.2652 0.58135 0.0
H420 H 0.04031 0.28061 0.64923 0.0
C421 C 0.1298 0.21699 0.56736 0.0
C422 C 0.08472 0.19158 0.58275 0.0
H423 H 0.17752 0.28396 0.56901 0.0
H424 H 0.15502 0.19981 0.54418 0.0
C425 C 0.05305 0.21531 0.61263 0.0
C426 C 0.55324 0.23717 0.51461 0.0
C427 C 0.56729 0.22459 0.46768 0.0
H428 H 0.53443 0.29414 0.56173 0.0
C429 C 0.56947 0.25999 0.43096 0.0
H430 H 0.55032 0.21028 0.54332 0.0
C431 C 0.56136 0.30766 0.44158 0.0
C432 C 0.54929 0.32088 0.48885 0.0
H433 H 0.5788 0.25105 0.39415 0.0
H434 H 0.5647 0.33433 0.41264 0.0
C435 C 0.54403 0.28498 0.52508 0.0
loop_
_geom_bond_atom_site_label_1
_geom_bond_atom_site_label_2
_geom_bond_distance
_geom_bond_site_symmetry_2
_ccdc_geom_bond_type
H0 C7 0.929 . S
H1 C10 0.930 . S
H2 C12 0.929 . S
H3 C4 0.969 . S
C4 H3 0.969 . S
C4 O5 1.550 . S
C4 H6 0.973 . S
O5 C4 1.550 . S
O5 C11 1.412 . S
H6 C4 0.973 . S
C7 H0 0.929 . S
C7 C8 1.400 . S
C7 C9 1.364 . S
C8 C7 1.400 . S
C8 C12 1.377 . S
C9 C7 1.364 . S
C9 C10 1.374 . S
C10 H1 0.930 . S
C10 C9 1.374 . S
C10 C11 1.383 . S
C11 O5 1.412 . S
C11 C10 1.383 . S
C11 C12 1.394 . S
C12 H2 0.929 . S
C12 C8 1.377 . S
C12 C11 1.394 . S
H13 C20 0.929 . S
H14 C23 0.930 . S
H15 C25 0.929 . S
H16 C17 0.969 . S
C17 H16 0.969 . S
C17 O18 1.550 . S
C17 H19 0.973 . S
O18 C17 1.550 . S
O18 C24 1.412 . S
H19 C17 0.973 . S
C20 H13 0.929 . S
C20 C21 1.400 . S
C20 C22 1.364 . S
C21 C20 1.400 . S
C21 C25 1.377 . S
C22 C20 1.364 . S
C22 C23 1.374 . S
C23 H14 0.930 . S
C23 C22 1.374 . S
C23 C24 1.383 . S
C24 O18 1.412 . S
C24 C23 1.383 . S
C24 C25 1.394 . S
C25 H15 0.929 . S
C25 C21 1.377 . S
C25 C24 1.394 . S
H26 C33 0.929 . S
H27 C36 0.930 . S
H28 C38 0.929 . S
H29 C30 0.969 . S
C30 H29 0.969 . S
C30 O31 1.550 . S
C30 H32 0.973 . S
O31 C30 1.550 . S
O31 C37 1.412 . S
H32 C30 0.973 . S
C33 H26 0.929 . S
C33 C34 1.400 . S
C33 C35 1.364 . S
C34 C33 1.400 . S
C34 C38 1.377 . S
C35 C33 1.364 . S
C35 C36 1.374 . S
C36 H27 0.930 . S
C36 C35 1.374 . S
C36 C37 1.383 . S
C37 O31 1.412 . S
C37 C36 1.383 . S
C37 C38 1.394 . S
C38 H28 0.929 . S
C38 C34 1.377 . S
C38 C37 1.394 . S
H39 C46 0.929 . S
H40 C49 0.930 . S
H41 C51 0.929 . S
H42 C43 0.969 . S
C43 H42 0.969 . S
C43 O44 1.550 . S
C43 H45 0.973 . S
O44 C43 1.550 . S
O44 C50 1.412 . S
H45 C43 0.973 . S
C46 H39 0.929 . S
C46 C47 1.400 . S
C46 C48 1.364 . S
C47 C46 1.400 . S
C47 C51 1.377 . S
C48 C46 1.364 . S
C48 C49 1.374 . S
C49 H40 0.930 . S
C49 C48 1.374 . S
C49 C50 1.383 . S
C50 O44 1.412 . S
C50 C49 1.383 . S
C50 C51 1.394 . S
C51 H41 0.929 . S
C51 C47 1.377 . S
C51 C50 1.394 . S
H52 C59 0.931 . S
H53 C62 0.930 . S
H54 C64 0.929 . S
H55 C56 0.969 . S
C56 H55 0.969 . S
C56 O57 1.550 . S
C56 H58 0.973 1_556 S
O57 C56 1.550 . S
O57 C63 1.412 . S
H58 C56 0.973 1_554 S
C59 H52 0.931 . S
C59 C60 1.400 . S
C59 C61 1.364 . S
C60 C59 1.400 . S
C60 C64 1.377 . S
C61 C59 1.364 . S
C61 C62 1.374 . S
C62 H53 0.930 . S
C62 C61 1.374 . S
C62 C63 1.383 . S
C63 O57 1.412 . S
C63 C62 1.383 . S
C63 C64 1.394 . S
C64 H54 0.929 . S
C64 C60 1.377 . S
C64 C63 1.394 . S
H65 C72 0.929 . S
H66 C75 0.930 . S
H67 C77 0.929 . S
H68 C69 0.969 . S
C69 H68 0.969 . S
C69 O70 1.550 . S
C69 H71 0.973 . S
O70 C69 1.550 . S
O70 C76 1.412 . S
H71 C69 0.973 . S
C72 H65 0.929 . S
C72 C73 1.400 . S
C72 C74 1.364 . S
C73 C72 1.400 . S
C73 C77 1.377 . S
C74 C72 1.364 . S
C74 C75 1.374 . S
C75 H66 0.930 . S
C75 C74 1.374 . S
C75 C76 1.383 . S
C76 O70 1.412 . S
C76 C75 1.383 . S
C76 C77 1.394 . S
C77 H67 0.929 . S
C77 C73 1.377 . S
C77 C76 1.394 . S
H78 C85 0.929 . S
H79 C88 0.930 . S
H80 C90 0.929 . S
H81 C82 0.969 . S
C82 H81 0.969 . S
C82 O83 1.550 . S
C82 H84 0.973 . S
O83 C82 1.550 . S
O83 C89 1.412 . S
H84 C82 0.973 . S
C85 H78 0.929 . S
C85 C86 1.400 . S
C85 C87 1.364 . S
C86 C85 1.400 . S
C86 C90 1.377 . S
C87 C85 1.364 . S
C87 C88 1.374 . S
C88 H79 0.930 . S
C88 C87 1.374 . S
C88 C89 1.383 . S
C89 O83 1.412 . S
C89 C88 1.383 . S
C89 C90 1.394 . S
C90 H80 0.929 . S
C90 C86 1.377 . S
C90 C89 1.394 . S
H91 C98 0.929 . S
H92 C101 0.930 . S
H93 C103 0.929 . S
H94 C95 0.969 . S
C95 H94 0.969 . S
C95 O96 1.550 . S
C95 H97 0.973 . S
O96 C95 1.550 . S
O96 C102 1.412 . S
H97 C95 0.973 . S
C98 H91 0.929 . S
C98 C99 1.400 . S
C98 C100 1.364 . S
C99 C98 1.400 . S
C99 C103 1.377 . S
C100 C98 1.364 . S
C100 C101 1.374 . S
C101 H92 0.930 . S
C101 C100 1.374 . S
C101 C102 1.383 . S
C102 O96 1.412 . S
C102 C101 1.383 . S
C102 C103 1.394 . S
C103 H93 0.929 . S
C103 C99 1.377 . S
C103 C102 1.394 . S
O104 Zn105 1.953 1_455 S
O104 C120 1.225 . S
Zn105 O104 1.953 1_655 S
Zn105 O106 1.949 1_655 S
Zn105 O112 1.919 . S
Zn105 O117 1.924 . S
O106 Zn105 1.949 1_455 S
O106 Zn107 1.923 1_445 S
O106 Zn108 1.950 . S
O106 Zn109 1.945 1_545 S
Zn107 O106 1.923 1_665 S
Zn107 O110 1.933 . S
Zn107 O113 1.941 1_565 S
Zn107 O114 1.965 1_665 S
Zn108 O106 1.950 . S
Zn108 O115 1.938 . S
Zn108 O116 1.906 . S
Zn108 O126 1.953 . S
Zn109 O106 1.945 1_565 S
Zn109 O111 1.932 1_455 S
Zn109 O118 1.977 . S
Zn109 O119 1.910 1_455 S
O110 Zn107 1.933 . S
O110 C121 1.226 . S
O111 Zn109 1.932 1_655 S
O111 C121 1.307 . S
O112 Zn105 1.919 . S
O112 C123 1.253 . S
O113 Zn107 1.941 1_545 S
O113 C123 1.283 . S
O114 Zn107 1.965 1_445 S
O114 C122 1.303 . S
O115 Zn108 1.938 . S
O115 C122 1.247 . S
O116 Zn108 1.906 . S
O116 C124 1.304 1_545 S
O117 Zn105 1.924 . S
O117 C125 1.295 1_545 S
O118 Zn109 1.977 . S
O118 C124 1.272 . S
O119 Zn109 1.910 1_655 S
O119 C125 1.249 . S
C120 O104 1.225 . S
C120 O126 1.298 . S
C121 O110 1.226 . S
C121 O111 1.307 . S
C122 O114 1.303 . S
C122 O115 1.247 . S
C123 O112 1.253 . S
C123 O113 1.283 . S
C124 O116 1.304 1_565 S
C124 O118 1.272 . S
C125 O117 1.295 1_565 S
C125 O119 1.249 . S
O126 Zn108 1.953 . S
O126 C120 1.298 . S
O127 Zn128 1.953 . S
O127 C143 1.225 . S
Zn128 O127 1.953 . S
Zn128 O129 1.949 1_556 S
Zn128 O135 1.919 . S
Zn128 O140 1.924 . S
O129 Zn128 1.949 1_554 S
O129 Zn130 1.923 1_544 S
O129 Zn131 1.950 . S
O129 Zn132 1.945 1_545 S
Zn130 O129 1.923 1_566 S
Zn130 O133 1.933 1_556 S
Zn130 O136 1.941 . S
Zn130 O137 1.965 . S
Zn131 O129 1.950 . S
Zn131 O138 1.938 . S
Zn131 O139 1.906 . S
Zn131 O149 1.953 . S
Zn132 O129 1.945 1_565 S
Zn132 O134 1.932 . S
Zn132 O141 1.977 1_565 S
Zn132 O142 1.910 1_565 S
O133 Zn130 1.933 1_554 S
O133 C144 1.226 . S
O134 Zn132 1.932 . S
O134 C144 1.307 . S
O135 Zn128 1.919 . S
O135 C146 1.253 1_545 S
O136 Zn130 1.941 . S
O136 C146 1.283 . S
O137 Zn130 1.965 . S
O137 C145 1.303 . S
O138 Zn131 1.938 . S
O138 C145 1.247 1_544 S
O139 Zn131 1.906 . S
O139 C147 1.304 . S
O140 Zn128 1.924 . S
O140 C148 1.311 1_556 S
O141 Zn132 1.977 1_545 S
O141 C147 1.272 . S
O142 Zn132 1.910 1_545 S
O142 C148 1.231 . S
C143 O127 1.225 . S
C143 O149 1.298 1_556 S
C144 O133 1.226 . S
C144 O134 1.307 . S
C145 O137 1.303 . S
C145 O138 1.247 1_566 S
C146 O135 1.253 1_565 S
C146 O136 1.283 . S
C147 O139 1.304 . S
C147 O141 1.272 . S
C148 O140 1.311 1_554 S
C148 O142 1.231 . S
O149 Zn131 1.953 . S
O149 C143 1.298 1_554 S
O150 Zn151 1.953 . S
O150 C166 1.225 . S
Zn151 O150 1.953 . S
Zn151 O152 1.949 . S
Zn151 O158 1.919 . S
Zn151 O163 1.924 . S
O152 Zn151 1.949 . S
O152 Zn153 1.923 . S
O152 Zn154 1.950 . S
O152 Zn155 1.945 . S
Zn153 O152 1.923 . S
Zn153 O156 1.933 . S
Zn153 O159 1.941 . S
Zn153 O160 1.965 . S
Zn154 O152 1.950 . S
Zn154 O161 1.938 . S
Zn154 O162 1.906 . S
Zn154 O172 1.953 . S
Zn155 O152 1.945 . S
Zn155 O157 1.932 . S
Zn155 O164 1.977 . S
Zn155 O165 1.910 . S
O156 Zn153 1.933 . S
O156 C167 1.226 . S
O157 Zn155 1.932 . S
O157 C167 1.307 . S
O158 Zn151 1.919 . S
O158 C169 1.253 . S
O159 Zn153 1.941 . S
O159 C169 1.283 . S
O160 Zn153 1.965 . S
O160 C168 1.303 . S
O161 Zn154 1.938 . S
O161 C168 1.247 . S
O162 Zn154 1.906 . S
O162 C170 1.304 . S
O163 Zn151 1.924 . S
O163 C171 1.311 . S
O164 Zn155 1.977 . S
O164 C170 1.272 . S
O165 Zn155 1.910 . S
O165 C171 1.231 . S
C166 O150 1.225 . S
C166 O172 1.298 . S
C167 O156 1.226 . S
C167 O157 1.307 . S
C168 O160 1.303 . S
C168 O161 1.247 . S
C169 O158 1.253 . S
C169 O159 1.283 . S
C170 O162 1.304 . S
C170 O164 1.272 . S
C171 O163 1.311 . S
C171 O165 1.231 . S
O172 Zn154 1.953 . S
O172 C166 1.298 . S
O173 Zn174 1.953 . S
O173 C189 1.224 . S
Zn174 O173 1.953 . S
Zn174 O175 1.949 1_655 S
Zn174 O181 1.919 . S
Zn174 O186 1.924 1_655 S
O175 Zn174 1.949 1_455 S
O175 Zn176 1.923 1_554 S
O175 Zn177 1.950 . S
O175 Zn178 1.941 1_554 S
Zn176 O175 1.923 1_556 S
Zn176 O179 1.933 . S
Zn176 O182 1.941 1_455 S
Zn176 O183 1.965 . S
Zn177 O175 1.950 . S
Zn177 O184 1.938 . S
Zn177 O185 1.906 . S
Zn177 O195 1.953 . S
Zn178 O175 1.941 1_556 S
Zn178 O180 1.950 . S
Zn178 O187 1.972 1_556 S
Zn178 O188 1.901 1_556 S
O179 Zn176 1.933 . S
O179 C190 1.226 . S
O180 Zn178 1.950 . S
O180 C190 1.307 . S
O181 Zn174 1.919 . S
O181 C192 1.253 1_554 S
O182 Zn176 1.941 1_655 S
O182 C192 1.283 . S
O183 Zn176 1.965 . S
O183 C191 1.303 . S
O184 Zn177 1.938 . S
O184 C191 1.247 1_554 S
O185 Zn177 1.906 . S
O185 C193 1.304 . S
O186 Zn174 1.924 1_455 S
O186 C194 1.311 . S
O187 Zn178 1.972 1_554 S
O187 C193 1.272 . S
O188 Zn178 1.901 1_554 S
O188 C194 1.231 . S
C189 O173 1.224 . S
C189 O195 1.300 1_655 S
C190 O179 1.226 . S
C190 O180 1.307 . S
C191 O183 1.303 . S
C191 O184 1.247 1_556 S
C192 O181 1.253 1_556 S
C192 O182 1.283 . S
C193 O185 1.304 . S
C193 O187 1.272 . S
C194 O186 1.311 . S
C194 O188 1.231 . S
O195 Zn177 1.953 . S
O195 C189 1.300 1_455 S
C196 C197 1.387 . S
C196 H200 0.950 . S
C196 C205 1.390 . S
C197 C196 1.387 . S
C197 C199 1.387 . S
H198 C205 0.950 . S
C199 C197 1.387 . S
C199 C201 1.390 . S
C199 H203 0.950 . S
H200 C196 0.950 . S
C201 C199 1.390 . S
C201 C202 1.387 . S
C201 H204 0.950 . S
C202 C201 1.387 . S
C202 C205 1.387 . S
H203 C199 0.950 . S
H204 C201 0.950 . S
C205 C196 1.390 . S
C205 H198 0.950 . S
C205 C202 1.387 . S
C206 C207 1.387 . S
C206 H210 0.950 1_565 S
C206 C215 1.390 . S
C207 C206 1.387 . S
C207 C209 1.387 . S
H208 C215 0.950 1_545 S
C209 C207 1.387 . S
C209 C211 1.390 . S
C209 H213 0.950 . S
H210 C206 0.950 1_545 S
C211 C209 1.390 . S
C211 C212 1.387 . S
C211 H214 0.950 . S
C212 C211 1.387 . S
C212 C215 1.387 . S
H213 C209 0.950 . S
H214 C211 0.950 . S
C215 C206 1.390 . S
C215 H208 0.950 1_565 S
C215 C212 1.387 . S
C216 C217 1.387 . S
C216 H220 0.950 . S
C216 C225 1.390 . S
C217 C216 1.387 . S
C217 C219 1.387 . S
H218 C225 0.950 . S
C219 C217 1.387 . S
C219 C221 1.390 . S
C219 H223 0.950 . S
H220 C216 0.950 . S
C221 C219 1.390 . S
C221 C222 1.387 . S
C221 H224 0.950 . S
C222 C221 1.387 . S
C222 C225 1.387 . S
H223 C219 0.950 . S
H224 C221 0.950 . S
C225 C216 1.390 . S
C225 H218 0.950 . S
C225 C222 1.387 . S
C226 C227 1.387 1_455 S
C226 H230 0.950 . S
C226 C235 1.390 . S
C227 C226 1.387 1_655 S
C227 C229 1.387 . S
H228 C235 0.950 . S
C229 C227 1.387 . S
C229 C231 1.390 . S
C229 H233 0.950 . S
H230 C226 0.950 . S
C231 C229 1.390 . S
C231 C232 1.387 . S
C231 H234 0.950 . S
C232 C231 1.387 . S
C232 C235 1.387 1_655 S
H233 C229 0.950 . S
H234 C231 0.950 . S
C235 C226 1.390 . S
C235 H228 0.950 . S
C235 C232 1.387 1_455 S
C236 C237 1.387 . S
C236 H240 0.950 . S
C236 C245 1.390 . S
C237 C236 1.387 . S
C237 C239 1.387 . S
H238 C245 0.950 . S
C239 C237 1.387 . S
C239 C241 1.390 . S
C239 H243 0.950 . S
H240 C236 0.950 . S
C241 C239 1.390 . S
C241 C242 1.387 . S
C241 H244 0.950 . S
C242 C241 1.387 . S
C242 C245 1.387 . S
H243 C239 0.950 . S
H244 C241 0.950 . S
C245 C236 1.390 . S
C245 H238 0.950 . S
C245 C242 1.387 . S
C246 C247 1.387 . S
C246 H250 0.950 . S
C246 C255 1.390 . S
C247 C246 1.387 . S
C247 C249 1.387 . S
H248 C255 0.950 . S
C249 C247 1.387 . S
C249 C251 1.390 . S
C249 H253 0.950 . S
H250 C246 0.950 . S
C251 C249 1.390 . S
C251 C252 1.387 . S
C251 H254 0.950 . S
C252 C251 1.387 . S
C252 C255 1.387 . S
H253 C249 0.950 . S
H254 C251 0.950 . S
C255 C246 1.390 . S
C255 H248 0.950 . S
C255 C252 1.387 . S
C256 C257 1.387 . S
C256 H260 0.950 . S
C256 C265 1.390 . S
C257 C256 1.387 . S
C257 C259 1.387 . S
H258 C265 0.950 . S
C259 C257 1.387 . S
C259 C261 1.390 . S
C259 H263 0.950 1_556 S
H260 C256 0.950 . S
C261 C259 1.390 . S
C261 C262 1.387 . S
C261 H264 0.950 1_556 S
C262 C261 1.387 . S
C262 C265 1.387 . S
H263 C259 0.950 1_554 S
H264 C261 0.950 1_554 S
C265 C256 1.390 . S
C265 H258 0.950 . S
C265 C262 1.387 . S
C266 C267 1.387 . S
C266 H270 0.950 . S
C266 C275 1.390 . S
C267 C266 1.387 . S
C267 C269 1.387 . S
H268 C275 0.950 . S
C269 C267 1.387 . S
C269 C271 1.390 . S
C269 H273 0.950 . S
H270 C266 0.950 . S
C271 C269 1.390 . S
C271 C272 1.387 . S
C271 H274 0.950 . S
C272 C271 1.387 . S
C272 C275 1.387 . S
H273 C269 0.950 . S
H274 C271 0.950 . S
C275 C266 1.390 . S
C275 H268 0.950 . S
C275 C272 1.387 . S
C276 C277 1.387 . S
C276 H280 0.950 . S
C276 C285 1.390 . S
C277 C276 1.387 . S
C277 C279 1.387 . S
H278 C285 0.950 . S
C279 C277 1.387 . S
C279 C281 1.390 . S
C279 H283 0.950 . S
H280 C276 0.950 . S
C281 C279 1.390 . S
C281 C282 1.387 . S
C281 H284 0.950 . S
C282 C281 1.387 . S
C282 C285 1.387 . S
H283 C279 0.950 . S
H284 C281 0.950 . S
C285 C276 1.390 . S
C285 H278 0.950 . S
C285 C282 1.387 . S
C286 C287 1.387 . S
C286 H290 0.950 1_556 S
C286 C295 1.390 . S
C287 C286 1.387 . S
C287 C289 1.387 . S
H288 C295 0.950 1_554 S
C289 C287 1.387 . S
C289 C291 1.390 . S
C289 H293 0.950 . S
H290 C286 0.950 1_554 S
C291 C289 1.390 . S
C291 C292 1.387 . S
C291 H294 0.950 . S
C292 C291 1.387 . S
C292 C295 1.387 . S
H293 C289 0.950 . S
H294 C291 0.950 . S
C295 C286 1.390 . S
C295 H288 0.950 1_556 S
C295 C292 1.387 . S
C296 C297 1.387 . S
C296 H300 0.950 . S
C296 C305 1.390 . S
C297 C296 1.387 . S
C297 C299 1.387 . S
H298 C305 0.950 1_455 S
C299 C297 1.387 . S
C299 C301 1.390 . S
C299 H303 0.950 . S
H300 C296 0.950 . S
C301 C299 1.390 . S
C301 C302 1.387 . S
C301 H304 0.950 . S
C302 C301 1.387 . S
C302 C305 1.387 . S
H303 C299 0.950 . S
H304 C301 0.950 . S
C305 C296 1.390 . S
C305 H298 0.950 1_655 S
C305 C302 1.387 . S
C306 C307 1.387 . S
C306 H310 0.950 . S
C306 C315 1.390 . S
C307 C306 1.387 . S
C307 C309 1.387 . S
H308 C315 0.950 . S
C309 C307 1.387 . S
C309 C311 1.390 . S
C309 H313 0.950 . S
H310 C306 0.950 . S
C311 C309 1.390 . S
C311 C312 1.387 . S
C311 H314 0.950 . S
C312 C311 1.387 . S
C312 C315 1.387 . S
H313 C309 0.950 . S
H314 C311 0.950 . S
C315 C306 1.390 . S
C315 H308 0.950 . S
C315 C312 1.387 . S
C316 C317 1.387 1_545 S
C316 H320 0.950 . S
C316 C325 1.390 . S
C317 C316 1.387 1_565 S
C317 C319 1.387 . S
H318 C325 0.950 . S
C319 C317 1.387 . S
C319 C321 1.390 . S
C319 H323 0.950 1_655 S
H320 C316 0.950 . S
C321 C319 1.390 . S
C321 C322 1.387 . S
C321 H324 0.950 1_655 S
C322 C321 1.387 . S
C322 C325 1.387 1_565 S
H323 C319 0.950 1_455 S
H324 C321 0.950 1_455 S
C325 C316 1.390 . S
C325 H318 0.950 . S
C325 C322 1.387 1_545 S
C326 C327 1.387 1_565 S
C326 H330 0.950 . S
C326 C335 1.390 . S
C327 C326 1.387 1_545 S
C327 C329 1.387 . S
H328 C335 0.950 . S
C329 C327 1.387 . S
C329 C331 1.390 . S
C329 H333 0.950 . S
H330 C326 0.950 . S
C331 C329 1.390 . S
C331 C332 1.387 . S
C331 H334 0.950 . S
C332 C331 1.387 . S
C332 C335 1.387 1_545 S
H333 C329 0.950 . S
H334 C331 0.950 . S
C335 C326 1.390 . S
C335 H328 0.950 . S
C335 C332 1.387 1_565 S
C336 C337 1.387 . S
C336 H340 0.950 . S
C336 C345 1.390 . S
C337 C336 1.387 . S
C337 C339 1.387 . S
H338 C345 0.950 . S
C339 C337 1.387 . S
C339 C341 1.390 . S
C339 H343 0.950 . S
H340 C336 0.950 . S
C341 C339 1.390 . S
C341 C342 1.387 . S
C341 H344 0.950 . S
C342 C341 1.387 . S
C342 C345 1.387 . S
H343 C339 0.950 . S
H344 C341 0.950 . S
C345 C336 1.390 . S
C345 H338 0.950 . S
C345 C342 1.387 . S
C346 C347 1.387 . S
C346 H350 0.950 . S
C346 C355 1.390 . S
C347 C346 1.387 . S
C347 C349 1.387 . S
H348 C355 0.950 . S
C349 C347 1.387 . S
C349 C351 1.390 . S
C349 H353 0.950 . S
H350 C346 0.950 . S
C351 C349 1.390 . S
C351 C352 1.387 . S
C351 H354 0.950 . S
C352 C351 1.387 . S
C352 C355 1.387 . S
H353 C349 0.950 . S
H354 C351 0.950 . S
C355 C346 1.390 . S
C355 H348 0.950 . S
C355 C352 1.387 . S
C356 C357 1.392 . S
C356 H360 0.947 1_566 S
C356 C365 1.388 1_565 S
C357 C356 1.392 . S
C357 C359 1.387 . S
H358 C365 0.950 1_554 S
C359 C357 1.387 . S
C359 C361 1.390 . S
C359 H363 0.950 . S
H360 C356 0.947 1_544 S
C361 C359 1.390 . S
C361 C362 1.387 . S
C361 H364 0.950 . S
C362 C361 1.387 . S
C362 C365 1.387 1_565 S
H363 C359 0.950 . S
H364 C361 0.950 . S
C365 C356 1.388 1_545 S
C365 H358 0.950 1_556 S
C365 C362 1.387 1_545 S
C366 C367 1.387 . S
C366 H370 0.950 . S
C366 C375 1.390 . S
C367 C366 1.387 . S
C367 C369 1.387 1_545 S
H368 C375 0.950 . S
C369 C367 1.387 1_565 S
C369 C371 1.390 . S
C369 H373 0.950 . S
H370 C366 0.950 . S
C371 C369 1.390 . S
C371 C372 1.387 1_565 S
C371 H374 0.950 . S
C372 C371 1.387 1_545 S
C372 C375 1.387 . S
H373 C369 0.950 . S
H374 C371 0.950 . S
C375 C366 1.390 . S
C375 H368 0.950 . S
C375 C372 1.387 . S
C376 C377 1.387 . S
C376 H380 0.950 1_554 S
C376 C385 1.390 . S
C377 C376 1.387 . S
C377 C379 1.387 . S
H378 C385 0.950 1_556 S
C379 C377 1.387 . S
C379 C381 1.390 . S
C379 H383 0.950 . S
H380 C376 0.950 1_556 S
C381 C379 1.390 . S
C381 C382 1.387 . S
C381 H384 0.950 . S
C382 C381 1.387 . S
C382 C385 1.387 . S
H383 C379 0.950 . S
H384 C381 0.950 . S
C385 C376 1.390 . S
C385 H378 0.950 1_554 S
C385 C382 1.387 . S
C386 C387 1.387 . S
C386 H390 0.950 . S
C386 C395 1.390 . S
C387 C386 1.387 . S
C387 C389 1.387 . S
H388 C395 0.950 . S
C389 C387 1.387 . S
C389 C391 1.390 . S
C389 H393 0.950 . S
H390 C386 0.950 . S
C391 C389 1.390 . S
C391 C392 1.387 . S
C391 H394 0.950 . S
C392 C391 1.387 . S
C392 C395 1.387 . S
H393 C389 0.950 . S
H394 C391 0.950 . S
C395 C386 1.390 . S
C395 H388 0.950 . S
C395 C392 1.387 . S
C396 C397 1.387 . S
C396 H400 0.950 . S
C396 C405 1.390 . S
C397 C396 1.387 . S
C397 C399 1.387 1_556 S
H398 C405 0.949 1_455 S
C399 C397 1.387 1_554 S
C399 C401 1.390 . S
C399 H403 0.950 . S
H400 C396 0.950 . S
C401 C399 1.390 . S
C401 C402 1.387 1_554 S
C401 H404 0.950 . S
C402 C401 1.387 1_556 S
C402 C405 1.387 . S
H403 C399 0.950 . S
H404 C401 0.950 . S
C405 C396 1.390 . S
C405 H398 0.949 1_655 S
C405 C402 1.387 . S
C406 C407 1.387 . S
C406 H410 0.950 . S
C406 C415 1.390 . S
C407 C406 1.387 . S
C407 C409 1.387 . S
H408 C415 0.950 . S
C409 C407 1.387 . S
C409 C411 1.390 . S
C409 H413 0.950 1_554 S
H410 C406 0.950 . S
C411 C409 1.390 . S
C411 C412 1.387 . S
C411 H414 0.950 1_554 S
C412 C411 1.387 . S
C412 C415 1.387 . S
H413 C409 0.950 1_556 S
H414 C411 0.950 1_556 S
C415 C406 1.390 . S
C415 H408 0.950 . S
C415 C412 1.387 . S
C416 C417 1.387 . S
C416 H420 0.950 . S
C416 C425 1.390 . S
C417 C416 1.387 . S
C417 C419 1.387 . S
H418 C425 0.950 . S
C419 C417 1.387 . S
C419 C421 1.390 . S
C419 H423 0.950 . S
H420 C416 0.950 . S
C421 C419 1.390 . S
C421 C422 1.387 . S
C421 H424 0.950 . S
C422 C421 1.387 . S
C422 C425 1.387 . S
H423 C419 0.950 . S
H424 C421 0.950 . S
C425 C416 1.390 . S
C425 H418 0.950 . S
C425 C422 1.387 . S
C426 C427 1.387 . S
C426 H430 0.950 . S
C426 C435 1.390 . S
C427 C426 1.387 . S
C427 C429 1.387 . S
H428 C435 0.950 . S
C429 C427 1.387 . S
C429 C431 1.390 . S
C429 H433 0.950 . S
H430 C426 0.950 . S
C431 C429 1.390 . S
C431 C432 1.387 . S
C431 H434 0.950 . S
C432 C431 1.387 . S
C432 C435 1.387 . S
H433 C429 0.950 . S
H434 C431 0.950 . S
C435 C426 1.390 . S
C435 H428 0.950 . S
C435 C432 1.387 . S
C197 C9 1.909 . S
C202 C122 1.869 . S
C207 C21 1.603 . S
C212 C146 1.570 . S
C222 C166 1.276 . S
C217 C30 1.270 . S
C227 C43 1.200 . S
C232 C189 1.285 . S
C242 C148 1.546 . S
C237 C4 1.615 . S
C252 C124 2.001 . S
C247 C22 2.057 . S
C262 C192 1.325 . S
C257 C34 1.371 . S
C272 C169 1.439 . S
C267 C48 1.485 . S
C277 C8 1.565 . S
C282 C194 1.533 . S
C292 C143 1.624 . S
C287 C35 1.607 . S
C297 C47 1.629 . S
C302 C121 1.645 . S
C307 C17 1.460 . S
C312 C171 1.373 . S
C322 C125 1.651 . S
C317 C60 1.630 . S
C327 C74 1.802 . S
C332 C147 1.789 . S
C337 C82 1.332 . S
C342 C167 1.350 . S
C347 C100 1.878 . S
C352 C190 1.908 . S
C357 C61 1.773 . S
C362 C145 1.745 . S
C372 C123 1.586 . S
C367 C73 1.568 . S
C382 C193 1.549 . S
C377 C87 1.563 . S
C392 C170 1.220 . S
C387 C95 1.242 . S
C397 C56 1.669 . S
C402 C191 1.756 1_655 S
C412 C144 1.663 . S
C407 C86 1.628 . S
C422 C120 1.518 . S
C417 C99 1.480 . S
C427 C69 1.670 . S
C432 C168 1.624 . S
