# Generated by pormake.
# Topology anh, (6,3)-cn, num edge types: 1
# Building blocks:
#     Node 0, Type 0, BuildingBlock: PAMTUU_clean_sbu_0, # of connection points: 6
#     Node 1, Type 0, BuildingBlock: PAMTUU_clean_sbu_0, # of connection points: 6
#     Node 2, Type 0, BuildingBlock: PAMTUU_clean_sbu_0, # of connection points: 6
#     Node 3, Type 1, BuildingBlock: QEWDON_clean_linker_0, # of connection points: 3
#     Node 4, Type 1, BuildingBlock: QEWDON_clean_linker_0, # of connection points: 3
#     Node 5, Type 1, BuildingBlock: QEWDON_clean_linker_0, # of connection points: 3
#     Node 6, Type 1, BuildingBlock: QEWDON_clean_linker_0, # of connection points: 3
#     Node 7, Type 1, BuildingBlock: QEWDON_clean_linker_0, # of connection points: 3
#     Node 8, Type 1, BuildingBlock: QEWDON_clean_linker_0, # of connection points: 3
#     Edge 9, Type (0, 1), BuildingBlock: TEMPAE_clean_linker_10, # of connection points: 2
#     Edge 10, Type (0, 1), BuildingBlock: TEMPAE_clean_linker_10, # of connection points: 2
#     Edge 11, Type (0, 1), BuildingBlock: TEMPAE_clean_linker_10, # of connection points: 2
#     Edge 12, Type (0, 1), BuildingBlock: TEMPAE_clean_linker_10, # of connection points: 2
#     Edge 13, Type (0, 1), BuildingBlock: TEMPAE_clean_linker_10, # of connection points: 2
#     Edge 14, Type (0, 1), BuildingBlock: TEMPAE_clean_linker_10, # of connection points: 2
#     Edge 15, Type (0, 1), BuildingBlock: TEMPAE_clean_linker_10, # of connection points: 2
#     Edge 16, Type (0, 1), BuildingBlock: TEMPAE_clean_linker_10, # of connection points: 2
#     Edge 17, Type (0, 1), BuildingBlock: TEMPAE_clean_linker_10, # of connection points: 2
#     Edge 18, Type (0, 1), BuildingBlock: TEMPAE_clean_linker_10, # of connection points: 2
#     Edge 19, Type (0, 1), BuildingBlock: TEMPAE_clean_linker_10, # of connection points: 2
#     Edge 20, Type (0, 1), BuildingBlock: TEMPAE_clean_linker_10, # of connection points: 2
#     Edge 21, Type (0, 1), BuildingBlock: TEMPAE_clean_linker_10, # of connection points: 2
#     Edge 22, Type (0, 1), BuildingBlock: TEMPAE_clean_linker_10, # of connection points: 2
#     Edge 23, Type (0, 1), BuildingBlock: TEMPAE_clean_linker_10, # of connection points: 2
#     Edge 24, Type (0, 1), BuildingBlock: TEMPAE_clean_linker_10, # of connection points: 2
#     Edge 25, Type (0, 1), BuildingBlock: TEMPAE_clean_linker_10, # of connection points: 2
#     Edge 26, Type (0, 1), BuildingBlock: TEMPAE_clean_linker_10, # of connection points: 2
# Relax obj value: 0.213
# Max RMSD: 0.137
# Mean RMSD: 0.113
data_MOF--net-anh--node1-PAMTUU_clean_sbu_0--node2-QEWDON_clean_linker_0--edge1-TEMPAE_clean_linker_10
_symmetry_space_group_name_H-M    P1
_symmetry_Int_Tables_number       1
_symmetry_cell_setting            triclinic
loop_
_symmetry_equiv_pos_as_xyz
'x, y, z'
_cell_length_a     33.404054
_cell_length_b     33.34602
_cell_length_c     49.410262
_cell_angle_alpha  95.816327
_cell_angle_beta   95.156194
_cell_angle_gamma 120.03226
loop_
_atom_site_label
_atom_site_type_symbol
_atom_site_fract_x
_atom_site_fract_y
_atom_site_fract_z
_atom_type_partial_charge
Tb0 Tb 0.0901 0.62133 0.14289 0.0
Tb1 Tb 0.14556 0.56768 0.14188 0.0
C2 C 0.11059 0.5886 0.08724 0.0
C3 C 0.99901 0.64322 0.15849 0.0
C4 C 0.9094 0.60238 0.17353 0.0
C5 C 0.92619 0.64153 0.15981 0.0
C6 C 0.97065 0.66177 0.15239 0.0
C7 C 0.98328 0.60527 0.173 0.0
C8 C 0.93878 0.58498 0.1805 0.0
C9 C 1.04273 0.66 0.14737 0.0
O10 O 1.03177 0.54532 0.13601 0.0
O11 O 1.07355 0.50966 0.14604 0.0
O12 O 0.15719 0.60222 0.18425 0.0
O13 O 1.08523 0.59257 0.18022 0.0
O14 O 0.18132 0.54107 0.12072 0.0
O15 O 0.17523 0.53485 0.16331 0.0
O16 O 0.20103 0.64123 0.139 0.0
O17 O 0.16545 0.68076 0.15375 0.0
O18 O 0.10933 0.62259 0.10211 0.0
O19 O 0.11377 0.55647 0.099 0.0
C20 C 1.03238 0.5072 0.14143 0.0
O21 O 1.07942 0.67106 0.16525 0.0
O22 O 1.03936 0.63406 0.12462 0.0
C23 C 0.12144 0.59729 0.19551 0.0
C24 C 0.24919 0.56022 0.15094 0.0
C25 C 0.3456 0.61834 0.1711 0.0
C26 C 0.31959 0.57456 0.17953 0.0
C27 C 0.27149 0.54584 0.16969 0.0
C28 C 0.27572 0.60339 0.14197 0.0
C29 C 0.32331 0.63228 0.1521 0.0
C30 C 0.19782 0.53371 0.14338 0.0
C31 C 0.20386 0.68176 0.1475 0.0
H32 H 0.90405 0.6551 0.15344 0.0
H33 H 0.98209 0.69062 0.14092 0.0
H34 H 1.00473 0.59026 0.1777 0.0
H35 H 0.92691 0.55498 0.19101 0.0
H36 H 0.33633 0.56303 0.19404 0.0
H37 H 0.25157 0.51297 0.1771 0.0
H38 H 0.25963 0.61533 0.12738 0.0
H39 H 0.34287 0.66536 0.1448 0.0
Tb40 Tb 0.5921 0.09316 0.47426 0.0
Tb41 Tb 0.70234 0.14913 0.48812 0.0
C42 C 0.65029 0.11806 0.42752 0.0
C43 C 0.4717 1.00852 0.47953 0.0
C44 C 0.40973 0.93673 0.50606 0.0
C45 C 0.39324 0.95756 0.48815 0.0
C46 C 0.42403 0.99327 0.4751 0.0
C47 C 0.48863 0.98836 0.49754 0.0
C48 C 0.45782 0.9526 0.51069 0.0
C49 C 0.50417 1.04784 0.46706 0.0
O50 O 0.60948 1.03539 0.47172 0.0
O51 O 0.68658 0.07663 0.49257 0.0
O52 O 0.67692 0.15365 0.527 0.0
O53 O 0.60894 0.08394 0.51506 0.0
O54 O 0.76631 0.18356 0.47359 0.0
O55 O 0.76487 0.18164 0.51686 0.0
O56 O 0.68651 0.20561 0.48098 0.0
O57 O 0.61015 0.16782 0.48711 0.0
O58 O 0.61584 0.11965 0.43701 0.0
O59 O 0.68212 0.11673 0.44436 0.0
C60 C 0.64769 1.03556 0.48268 0.0
O61 O 0.53011 0.08679 0.48454 0.0
O62 O 0.52847 1.03934 0.45054 0.0
C63 C 0.64043 0.11817 0.5339 0.0
C64 C 0.81691 0.25466 0.50402 0.0
C65 C 0.85239 0.35251 0.51277 0.0
C66 C 0.84479 0.3282 0.5352 0.0
C67 C 0.82719 0.2797 0.53087 0.0
C68 C 0.82699 0.27955 0.48186 0.0
C69 C 0.84388 0.3276 0.48612 0.0
C70 C 0.78991 0.20259 0.49841 0.0
C71 C 0.64869 0.20749 0.48502 0.0
H72 H 0.35621 0.94528 0.48349 0.0
H73 H 0.41059 1.00885 0.46147 0.0
H74 H 0.52564 1.0003 0.50141 0.0
H75 H 0.47149 0.93716 0.52425 0.0
H76 H 0.85169 0.34646 0.55603 0.0
H77 H 0.82004 0.26158 0.54842 0.0
H78 H 0.81961 0.26155 0.4609 0.0
H79 H 0.84845 0.34478 0.46823 0.0
Tb80 Tb 0.6368 0.5854 0.8126 0.0
Tb81 Tb 0.69036 0.69603 0.81976 0.0
C82 C 0.6592 0.63583 0.76187 0.0
C83 C 0.6159 0.46818 0.8171 0.0
C84 C 0.64721 0.40827 0.832 0.0
C85 C 0.67625 0.44772 0.8205 0.0
C86 C 0.66084 0.47767 0.81327 0.0
C87 C 0.58794 0.43027 0.82995 0.0
C88 C 0.60355 0.40055 0.83745 0.0
C89 C 0.59816 0.49783 0.80809 0.0
O90 O 0.71139 0.60375 0.81251 0.0
O91 O 0.75122 0.68407 0.82556 0.0
O92 O 0.66464 0.67475 0.85769 0.0
O93 O 0.67278 0.61161 0.85472 0.0
O94 O 0.70277 0.75679 0.80416 0.0
O95 O 0.73323 0.76144 0.8457 0.0
O96 O 0.61434 0.67441 0.81056 0.0
O97 O 0.58018 0.60052 0.82112 0.0
O98 O 0.62545 0.60325 0.77238 0.0
O99 O 0.69486 0.67197 0.77812 0.0
C100 C 0.75188 0.64438 0.81995 0.0
O101 O 0.59379 0.52372 0.82784 0.0
O102 O 0.61703 0.52104 0.78851 0.0
C103 C 0.66976 0.64417 0.86963 0.0
C104 C 0.69456 0.8033 0.83896 0.0
C105 C 0.62717 0.82943 0.84557 0.0
C106 C 0.66923 0.85958 0.83619 0.0
C107 C 0.70231 0.84626 0.83251 0.0
C108 C 0.65498 0.77545 0.85082 0.0
C109 C 0.62149 0.7881 0.85391 0.0
C110 C 0.72133 0.78259 0.82861 0.0
C111 C 0.57687 0.63739 0.81648 0.0
H112 H 0.70992 0.45413 0.816 0.0
H113 H 0.68348 0.50729 0.80386 0.0
H114 H 0.55349 0.42285 0.83342 0.0
H115 H 0.58024 0.36984 0.84586 0.0
H116 H 0.67558 0.89245 0.83035 0.0
H117 H 0.73252 0.86822 0.82328 0.0
H118 H 0.64808 0.74205 0.85593 0.0
H119 H 0.5897 0.76365 0.86097 0.0
H120 H 0.64776 0.12696 0.21018 0.0
C121 C 0.61738 0.09329 0.20101 0.0
C122 C 0.59026 0.06288 0.21858 0.0
C123 C 0.60453 0.08244 0.17207 0.0
H124 H 0.52932 0.99718 0.22098 0.0
C125 C 0.54923 1.01963 0.20704 0.0
C126 C 0.53263 1.00456 0.17848 0.0
C127 C 0.56107 1.03712 0.16104 0.0
C128 C 0.63455 0.12055 0.15436 0.0
H129 H 0.5496 1.02653 0.13902 0.0
C130 C 0.68369 0.16007 0.16237 0.0
C131 C 0.70743 0.19472 0.14442 0.0
C132 C 0.6115 0.11877 0.12867 0.0
H133 H 0.57512 0.09227 0.1215 0.0
C134 C 0.6335 0.15192 0.1118 0.0
H135 H 0.70349 0.16336 0.18186 0.0
C136 C 0.6798 0.1887 0.11942 0.0
H137 H 0.69406 0.21334 0.10528 0.0
H138 H 0.61394 0.14929 0.09233 0.0
H139 H 0.64217 0.6398 0.54502 0.0
C140 C 0.64703 0.61164 0.53657 0.0
C141 C 0.65078 0.58258 0.55437 0.0
C142 C 0.6468 0.6037 0.508 0.0
H143 H 0.65781 0.5225 0.55734 0.0
C144 C 0.65461 0.54399 0.54336 0.0
C145 C 0.65388 0.53173 0.51506 0.0
C146 C 0.64979 0.56242 0.49741 0.0
C147 C 0.63975 0.63665 0.48981 0.0
H148 H 0.64992 0.55443 0.47569 0.0
C149 C 0.64817 0.68428 0.49924 0.0
C150 C 0.63872 0.71122 0.48054 0.0
C151 C 0.62114 0.61826 0.46179 0.0
H152 H 0.61231 0.58318 0.45321 0.0
C153 C 0.61151 0.64337 0.44403 0.0
H154 H 0.66272 0.70064 0.52055 0.0
C155 C 0.61993 0.68829 0.45307 0.0
H156 H 0.61096 0.70523 0.43805 0.0
H157 H 0.5967 0.62738 0.42266 0.0
H158 H 0.17611 0.62439 0.8786 0.0
C159 C 0.14702 0.62709 0.86961 0.0
C160 C 0.11064 0.61802 0.88504 0.0
C161 C 0.14682 0.64015 0.84334 0.0
H162 H 1.04516 0.61438 0.88675 0.0
C163 C 1.07248 0.62208 0.87437 0.0
C164 C 1.06876 0.63648 0.84888 0.0
C165 C 0.10629 0.64444 0.83309 0.0
C166 C 0.19045 0.65196 0.8283 0.0
H167 H 0.10376 0.65437 0.81317 0.0
C168 C 0.22705 0.64001 0.83491 0.0
C169 C 0.26692 0.65391 0.81995 0.0
C170 C 0.19695 0.67849 0.807 0.0
H171 H 0.17318 0.69035 0.80122 0.0
C172 C 0.23485 0.69198 0.79285 0.0
H173 H 0.22436 0.61948 0.85096 0.0
C174 C 0.26865 0.67998 0.79904 0.0
H175 H 0.2971 0.69177 0.78718 0.0
H176 H 0.23825 0.71256 0.77667 0.0
H177 H 1.01268 0.63609 0.38313 0.0
C178 C 1.04298 0.64768 0.39872 0.0
C179 C 1.08151 0.64499 0.39162 0.0
C180 C 1.04338 0.66477 0.42603 0.0
H181 H 0.15126 0.66035 0.40621 0.0
C182 C 0.12059 0.66029 0.41187 0.0
C183 C 0.12226 0.67945 0.4388 0.0
C184 C 1.08311 0.68039 0.44597 0.0
C185 C 1.00274 0.66674 0.43413 0.0
H186 H 1.08462 0.69602 0.46667 0.0
C187 C 0.98448 0.64771 0.45723 0.0
C188 C 0.94514 0.64767 0.46516 0.0
C189 C 0.98189 0.687 0.41912 0.0
H190 H 0.99562 0.70222 0.4013 0.0
C191 C 0.9433 0.68804 0.42725 0.0
H192 H 0.99947 0.63041 0.46814 0.0
C193 C 0.92462 0.66807 0.45001 0.0
H194 H 0.89378 0.66773 0.45546 0.0
H195 H 0.92732 0.70365 0.41559 0.0
H196 H 0.49425 0.99894 0.70633 0.0
C197 C 0.51334 1.02611 0.72433 0.0
C198 C 0.55483 0.06769 0.72237 0.0
C199 C 0.49617 1.0201 0.7495 0.0
H200 H 0.61061 0.13522 0.74413 0.0
C201 C 0.5793 0.10261 0.74576 0.0
C202 C 0.56205 0.09721 0.77073 0.0
C203 C 0.52065 1.05602 0.77251 0.0
C204 C 0.45317 0.97654 0.75255 0.0
H205 H 0.50678 1.05252 0.79172 0.0
C206 C 0.4543 0.95468 0.77507 0.0
C207 C 0.41416 0.91435 0.77972 0.0
C208 C 0.41112 0.95738 0.73405 0.0
H209 H 0.4093 0.97384 0.71655 0.0
C210 C 0.3708 0.91717 0.73847 0.0
H211 H 0.48745 0.96842 0.78853 0.0
C212 C 0.37223 0.89556 0.76113 0.0
H213 H 0.3409 0.86407 0.76395 0.0
H214 H 0.33839 0.90258 0.7242 0.0
H215 H 0.67173 0.70154 0.08537 0.0
C216 C 0.66669 0.66904 0.09122 0.0
C217 C 0.65322 0.63009 0.07084 0.0
C218 C 0.67581 0.66688 0.11908 0.0
H219 H 0.63921 0.55903 0.06295 0.0
C220 C 0.64736 0.58838 0.07866 0.0
C221 C 0.65702 0.58611 0.10653 0.0
C222 C 0.67059 0.62544 0.12665 0.0
C223 C 0.69167 0.70817 0.14045 0.0
H224 H 0.67984 0.6249 0.14817 0.0
C225 C 0.65991 0.72189 0.14668 0.0
C226 C 0.67211 0.75773 0.16899 0.0
C227 C 0.7368 0.73147 0.15606 0.0
H228 H 0.7617 0.72091 0.15161 0.0
C229 C 0.74973 0.7682 0.17777 0.0
H230 H 0.62451 0.70236 0.13521 0.0
C231 C 0.71736 0.78098 0.1845 0.0
H232 H 0.72726 0.80829 0.20199 0.0
H233 H 0.78452 0.78599 0.18984 0.0
C234 C 0.42539 0.62992 0.1768 0.0
C235 C 0.39656 0.64851 0.18044 0.0
C236 C 0.47412 0.65937 0.18069 0.0
C237 C 0.49438 0.7085 0.18901 0.0
C238 C 0.46552 0.72695 0.19487 0.0
C239 C 0.41672 0.69673 0.19008 0.0
C240 C 0.50358 0.63816 0.17396 0.0
C241 C 0.48539 0.77864 0.2047 0.0
C242 C 0.62386 0.75853 0.2043 0.0
C243 C 0.63469 0.76485 0.17773 0.0
C244 C 0.57902 0.74645 0.20972 0.0
C245 C 0.54476 0.7399 0.18791 0.0
C246 C 0.55802 0.75363 0.16245 0.0
C247 C 0.60319 0.76629 0.15772 0.0
C248 C 0.56675 0.73527 0.23771 0.0
C249 C 0.52289 0.74886 0.13898 0.0
H250 H 0.40966 0.59268 0.16917 0.0
H251 H 0.39425 0.71102 0.19312 0.0
H252 H 0.52141 0.65235 0.15633 0.0
H253 H 0.53114 0.64772 0.1918 0.0
H254 H 0.48239 0.59923 0.16851 0.0
H255 H 0.46456 0.78376 0.2195 0.0
H256 H 0.52254 0.79684 0.21479 0.0
H257 H 0.48312 0.79548 0.18683 0.0
H258 H 0.64846 0.75808 0.21998 0.0
H259 H 0.61219 0.7724 0.13737 0.0
H260 H 0.54894 0.6967 0.23705 0.0
H261 H 0.54236 0.74682 0.24365 0.0
H262 H 0.59855 0.75233 0.25378 0.0
H263 H 0.49791 0.71103 0.13081 0.0
H264 H 0.54001 0.7662 0.12183 0.0
H265 H 0.50239 0.76439 0.14628 0.0
C266 C 0.8977 0.4319 0.49978 0.0
C267 C 0.8673 0.40316 0.51643 0.0
C268 C 0.90645 0.47736 0.49926 0.0
C269 C 0.88581 0.49559 0.51675 0.0
C270 C 0.85824 0.46838 0.53535 0.0
C271 C 0.84872 0.42208 0.53472 0.0
C272 C 0.93633 0.50501 0.47902 0.0
C273 C 0.83875 0.48801 0.55573 0.0
C274 C 0.94947 0.6218 0.51039 0.0
C275 C 0.92218 0.61928 0.48625 0.0
C276 C 0.93407 0.58332 0.5243 0.0
C277 C 0.89099 0.54164 0.51336 0.0
C278 C 0.85989 0.54255 0.49228 0.0
C279 C 0.87596 0.58166 0.4789 0.0
C280 C 0.96712 0.58491 0.54785 0.0
C281 C 0.81273 0.49959 0.48077 0.0
H282 H 0.91363 0.41823 0.48638 0.0
H283 H 0.82544 0.40028 0.54784 0.0
H284 H 0.91616 0.51479 0.46485 0.0
H285 H 0.96761 0.53798 0.4902 0.0
H286 H 0.94849 0.48497 0.46639 0.0
H287 H 0.81609 0.46152 0.56788 0.0
H288 H 0.86805 0.51832 0.57023 0.0
H289 H 0.81831 0.50132 0.54503 0.0
H290 H 0.98485 0.65163 0.51657 0.0
H291 H 0.85446 0.57998 0.46052 0.0
H292 H 0.98928 0.57209 0.53962 0.0
H293 H 0.9477 0.56215 0.56257 0.0
H294 H 0.99069 0.62141 0.55907 0.0
H295 H 0.81777 0.47336 0.46824 0.0
H296 H 0.79027 0.508 0.46744 0.0
H297 H 0.79407 0.48325 0.49765 0.0
C298 C 0.57901 0.85687 0.82104 0.0
C299 C 0.58723 0.83789 0.84346 0.0
C300 C 0.54019 0.86238 0.81717 0.0
C301 C 0.50757 0.84742 0.83579 0.0
C302 C 0.51507 0.82775 0.85837 0.0
C303 C 0.55509 0.82364 0.86211 0.0
C304 C 0.53407 0.88403 0.79281 0.0
C305 C 0.48039 0.81008 0.87811 0.0
C306 C 0.44974 0.91635 0.8267 0.0
C307 C 0.41951 0.88975 0.80189 0.0
C308 C 0.47459 0.89971 0.84142 0.0
C309 C 0.46725 0.85483 0.83149 0.0
C310 C 0.42869 0.82412 0.81048 0.0
C311 C 0.40552 0.84225 0.7955 0.0
C312 C 0.51446 0.93364 0.86411 0.0
C313 C 0.41694 0.77464 0.80081 0.0
H314 H 0.60237 0.86647 0.80592 0.0
H315 H 0.56094 0.80891 0.87955 0.0
H316 H 0.50133 0.85817 0.77855 0.0
H317 H 0.53116 0.91499 0.79989 0.0
H318 H 0.5637 0.89555 0.78103 0.0
H319 H 0.49193 0.79679 0.89505 0.0
H320 H 0.47488 0.83835 0.88723 0.0
H321 H 0.44594 0.78123 0.86679 0.0
H322 H 0.45899 0.95259 0.83238 0.0
H323 H 0.38096 0.8209 0.77685 0.0
H324 H 0.54705 0.95197 0.8551 0.0
H325 H 0.52053 0.9153 0.88003 0.0
H326 H 0.50783 0.96063 0.87414 0.0
H327 H 0.44371 0.77563 0.7887 0.0
H328 H 0.38208 0.75338 0.78749 0.0
H329 H 0.41705 0.75714 0.8187 0.0
C330 C 0.83163 0.52807 0.16951 0.0
C331 C 0.85954 0.57715 0.17715 0.0
C332 C 0.78268 0.50615 0.16313 0.0
C333 C 0.76219 0.53441 0.16319 0.0
C334 C 0.78963 0.58255 0.17563 0.0
C335 C 0.83798 0.60297 0.18305 0.0
C336 C 0.75416 0.45372 0.15358 0.0
C337 C 0.7697 0.61452 0.17735 0.0
C338 C 0.69814 0.5424 0.10161 0.0
C339 C 0.66568 0.54913 0.11432 0.0
C340 C 0.72563 0.52823 0.1159 0.0
C341 C 0.71942 0.51987 0.14323 0.0
C342 C 0.67904 0.51516 0.15299 0.0
C343 C 0.65306 0.53125 0.13871 0.0
C344 C 0.76628 0.53038 0.10351 0.0
C345 C 0.66694 0.49932 0.18014 0.0
H346 H 0.84783 0.50725 0.16593 0.0
H347 H 0.85954 0.64047 0.19054 0.0
H348 H 0.71586 0.43982 0.15073 0.0
H349 H 0.76372 0.4445 0.13394 0.0
H350 H 0.76283 0.43596 0.16894 0.0
H351 H 0.79577 0.65058 0.18836 0.0
H352 H 0.75772 0.61726 0.15629 0.0
H353 H 0.73921 0.60014 0.18834 0.0
H354 H 0.70707 0.55486 0.08233 0.0
H355 H 0.62639 0.53441 0.14804 0.0
H356 H 0.76679 0.49765 0.10467 0.0
H357 H 0.79985 0.56031 0.11518 0.0
H358 H 0.7644 0.53491 0.08155 0.0
H359 H 0.68609 0.48228 0.18764 0.0
H360 H 0.62866 0.47413 0.17791 0.0
H361 H 0.67535 0.52982 0.19584 0.0
C362 C 0.37777 0.85382 0.5134 0.0
C363 C 0.3754 0.89484 0.51667 0.0
C364 C 0.33712 0.8098 0.51181 0.0
C365 C 0.29384 0.80753 0.51241 0.0
C366 C 0.29357 0.84886 0.52188 0.0
C367 C 0.3348 0.89243 0.52408 0.0
C368 C 0.33915 0.76592 0.50463 0.0
C369 C 0.24845 0.84767 0.52476 0.0
C370 C 0.20579 0.74133 0.44761 0.0
C371 C 0.16762 0.70673 0.45752 0.0
C372 C 0.24763 0.77286 0.46521 0.0
C373 C 0.25185 0.76917 0.49358 0.0
C374 C 0.21434 0.73234 0.50345 0.0
C375 C 0.17212 0.7019 0.48531 0.0
C376 C 0.28623 0.81168 0.45343 0.0
C377 C 0.21751 0.7256 0.53312 0.0
H378 H 0.40952 0.85533 0.50869 0.0
H379 H 0.33369 0.92439 0.52819 0.0
H380 H 0.31143 0.73612 0.51277 0.0
H381 H 0.33341 0.75617 0.48187 0.0
H382 H 0.37396 0.77166 0.51299 0.0
H383 H 0.25492 0.8813 0.5363 0.0
H384 H 0.22864 0.84133 0.50395 0.0
H385 H 0.22626 0.81865 0.53556 0.0
H386 H 0.20203 0.74547 0.42621 0.0
H387 H 0.1425 0.67487 0.49292 0.0
H388 H 0.31828 0.80938 0.45614 0.0
H389 H 0.29508 0.84654 0.46437 0.0
H390 H 0.27632 0.80997 0.43109 0.0
H391 H 0.25419 0.74395 0.54406 0.0
H392 H 0.20071 0.68758 0.53428 0.0
H393 H 0.19789 0.73906 0.54404 0.0
C394 C 0.66289 0.35014 0.80833 0.0
C395 C 0.65738 0.37021 0.83291 0.0
C396 C 0.65759 0.30558 0.80558 0.0
C397 C 0.64794 0.28135 0.82834 0.0
C398 C 0.64944 0.30456 0.85435 0.0
C399 C 0.65294 0.34852 0.85621 0.0
C400 C 0.65638 0.28233 0.77736 0.0
C401 C 0.64311 0.28146 0.87959 0.0
C402 C 0.55518 0.15668 0.80045 0.0
C403 C 0.58276 0.13814 0.79299 0.0
C404 C 0.5759 0.20242 0.81492 0.0
C405 C 0.62531 0.22952 0.82271 0.0
C406 C 0.65244 0.20838 0.81867 0.0
C407 C 0.63092 0.16304 0.80314 0.0
C408 C 0.5454 0.22342 0.81874 0.0
C409 C 0.70461 0.23479 0.82849 0.0
H410 H 0.66639 0.36708 0.79035 0.0
H411 H 0.64954 0.3646 0.87539 0.0
H412 H 0.68035 0.26845 0.77858 0.0
H413 H 0.62045 0.25219 0.76938 0.0
H414 H 0.66665 0.30689 0.76225 0.0
H415 H 0.66256 0.30823 0.89852 0.0
H416 H 0.60547 0.26239 0.88161 0.0
H417 H 0.65529 0.25596 0.87835 0.0
H418 H 0.51789 0.13717 0.79256 0.0
H419 H 0.65206 0.14815 0.79769 0.0
H420 H 0.55445 0.25152 0.80604 0.0
H421 H 0.55153 0.23958 0.84056 0.0
H422 H 0.50747 0.19684 0.81266 0.0
H423 H 0.72317 0.25188 0.81172 0.0
H424 H 0.71635 0.21035 0.83389 0.0
H425 H 0.71507 0.26237 0.84671 0.0
C426 C 0.60881 0.94361 0.47149 0.0
C427 C 0.64704 0.98836 0.48433 0.0
C428 C 0.60833 0.90027 0.4728 0.0
C429 C 0.64664 0.89938 0.48772 0.0
C430 C 0.68497 0.94437 0.50107 0.0
C431 C 0.68484 0.9872 0.49911 0.0
C432 C 0.5664 0.85492 0.4577 0.0
C433 C 0.72683 0.94747 0.51766 0.0
C434 C 0.62864 0.77829 0.50695 0.0
C435 C 0.64729 0.76254 0.48655 0.0
C436 C 0.62895 0.82211 0.50802 0.0
C437 C 0.64775 0.85249 0.48808 0.0
C438 C 0.66757 0.8372 0.468 0.0
C439 C 0.66734 0.79393 0.46763 0.0
C440 C 0.60781 0.83536 0.53035 0.0
C441 C 0.68806 0.86612 0.44593 0.0
H442 H 0.5789 0.94228 0.45996 0.0
H443 H 0.71491 1.02029 0.50951 0.0
H444 H 0.57754 0.83792 0.44205 0.0
H445 H 0.55079 0.83025 0.47234 0.0
H446 H 0.53905 0.86032 0.44723 0.0
H447 H 0.75271 0.98384 0.52829 0.0
H448 H 0.71532 0.92405 0.53332 0.0
H449 H 0.74447 0.9352 0.50395 0.0
H450 H 0.61199 0.75548 0.52161 0.0
H451 H 0.68202 0.78375 0.45149 0.0
H452 H 0.57562 0.83407 0.52103 0.0
H453 H 0.63259 0.87194 0.54102 0.0
H454 H 0.59857 0.81148 0.54583 0.0
H455 H 0.6606 0.86921 0.43357 0.0
H456 H 0.70268 0.85059 0.43182 0.0
H457 H 0.7163 0.90222 0.4555 0.0
C458 C 0.8015 0.60377 0.8248 0.0
C459 C 0.79936 0.64472 0.82224 0.0
C460 C 0.84463 0.60326 0.82746 0.0
C461 C 0.88888 0.64439 0.82689 0.0
C462 C 0.88682 0.68563 0.8237 0.0
C463 C 0.8433 0.68548 0.82187 0.0
C464 C 0.84276 0.5582 0.83149 0.0
C465 C 0.93112 0.7306 0.82206 0.0
C466 C 1.00716 0.65821 0.86245 0.0
C467 C 1.0254 0.64299 0.84132 0.0
C468 C 0.96415 0.65841 0.85807 0.0
C469 C 0.93675 0.64491 0.83135 0.0
C470 C 0.95578 0.63174 0.80949 0.0
C471 C 0.99866 0.63054 0.81461 0.0
C472 C 0.94738 0.67228 0.88269 0.0
C473 C 0.93032 0.61818 0.78034 0.0
H474 H 0.76905 0.57161 0.82534 0.0
H475 H 0.84379 0.71774 0.81977 0.0
H476 H 0.85688 0.54717 0.81468 0.0
H477 H 0.86519 0.56397 0.85119 0.0
H478 H 0.80656 0.5292 0.83185 0.0
H479 H 0.92402 0.75811 0.81641 0.0
H480 H 0.95462 0.7443 0.84227 0.0
H481 H 0.95016 0.72385 0.80663 0.0
H482 H 1.02657 0.66991 0.88321 0.0
H483 H 1.01052 0.61863 0.79758 0.0
H484 H 0.9115 0.64371 0.88401 0.0
H485 H 0.94549 0.70403 0.88033 0.0
H486 H 0.97067 0.67974 0.90237 0.0
H487 H 0.89687 0.58422 0.77818 0.0
H488 H 0.95133 0.61451 0.76513 0.0
H489 H 0.92151 0.64486 0.77534 0.0
C490 C 0.26027 0.77272 0.1643 0.0
C491 C 0.25169 0.72935 0.15001 0.0
C492 C 0.30459 0.81626 0.16719 0.0
C493 C 0.3431 0.81892 0.15509 0.0
C494 C 0.33433 0.77535 0.14027 0.0
C495 C 0.29008 0.73217 0.13823 0.0
C496 C 0.3105 0.85973 0.18399 0.0
C497 C 0.37216 0.77388 0.12649 0.0
C498 C 0.4496 0.94468 0.14733 0.0
C499 C 0.4856 0.95519 0.16934 0.0
C500 C 0.40451 0.90116 0.14207 0.0
C501 C 0.39262 0.86583 0.15932 0.0
C502 C 0.42908 0.87587 0.18103 0.0
C503 C 0.47398 0.9185 0.1852 0.0
C504 C 0.36907 0.89316 0.11789 0.0
C505 C 0.42025 0.84182 0.20083 0.0
H506 H 0.2323 0.77266 0.17384 0.0
H507 H 0.28554 0.70021 0.12696 0.0
H508 H 0.3401 0.87372 0.2013 0.0
H509 H 0.31933 0.88745 0.17106 0.0
H510 H 0.27843 0.85285 0.19253 0.0
H511 H 0.35815 0.74087 0.11154 0.0
H512 H 0.38954 0.80424 0.11556 0.0
H513 H 0.39929 0.77617 0.14233 0.0
H514 H 0.45609 0.97101 0.13442 0.0
H515 H 0.50031 0.9231 0.20168 0.0
H516 H 0.33889 0.89342 0.1254 0.0
H517 H 0.35541 0.8581 0.10521 0.0
H518 H 0.38409 0.92047 0.10462 0.0
H519 H 0.39041 0.83707 0.21122 0.0
H520 H 0.45129 0.85396 0.21686 0.0
H521 H 0.4103 0.80689 0.18949 0.0
C522 C 0.61469 0.26162 0.49787 0.0
C523 C 0.64964 0.2553 0.4873 0.0
C524 C 0.6159 0.30576 0.50069 0.0
C525 C 0.65214 0.34641 0.49202 0.0
C526 C 0.68714 0.3399 0.48093 0.0
C527 C 0.68584 0.29581 0.47916 0.0
C528 C 0.57853 0.30917 0.51389 0.0
C529 C 0.72742 0.37966 0.47111 0.0
C530 C 0.63054 0.45219 0.48234 0.0
C531 C 0.65713 0.48656 0.50625 0.0
C532 C 0.62951 0.40804 0.47709 0.0
C533 C 0.65472 0.39545 0.49618 0.0
C534 C 0.68271 0.43063 0.51971 0.0
C535 C 0.68407 0.47461 0.52409 0.0
C536 C 0.60105 0.37452 0.45075 0.0
C537 C 0.71103 0.42143 0.54098 0.0
H538 H 0.58639 0.23195 0.50466 0.0
H539 H 0.71366 0.29318 0.47101 0.0
H540 H 0.59508 0.33781 0.53207 0.0
H541 H 0.55847 0.31822 0.49916 0.0
H542 H 0.55369 0.27589 0.52063 0.0
H543 H 0.73659 0.36632 0.45258 0.0
H544 H 0.71978 0.40706 0.46606 0.0
H545 H 0.75865 0.3959 0.4875 0.0
H546 H 0.60935 0.45912 0.46787 0.0
H547 H 0.70653 0.4999 0.54225 0.0
H548 H 0.57038 0.34286 0.4555 0.0
H549 H 0.62239 0.36273 0.44034 0.0
H550 H 0.58823 0.39065 0.43633 0.0
H551 H 0.68772 0.3887 0.54875 0.0
H552 H 0.72979 0.45075 0.55876 0.0
H553 H 0.7371 0.41604 0.53138 0.0
C554 C 0.49036 0.60064 0.8264 0.0
C555 C 0.53032 0.63775 0.81828 0.0
C556 C 0.44772 0.60115 0.82844 0.0
C557 C 0.4427 0.6396 0.82223 0.0
C558 C 0.48305 0.6771 0.81409 0.0
C559 C 0.52527 0.67584 0.81236 0.0
C560 C 0.40754 0.55988 0.83734 0.0
C561 C 0.48177 0.71922 0.80702 0.0
C562 C 0.31733 0.62264 0.79993 0.0
C563 C 0.30757 0.6428 0.82332 0.0
C564 C 0.35943 0.62081 0.79954 0.0
C565 C 0.39546 0.63984 0.8231 0.0
C566 C 0.3858 0.65966 0.84705 0.0
C567 C 0.34304 0.66103 0.84688 0.0
C568 C 0.36591 0.59946 0.77315 0.0
C569 C 0.42136 0.68037 0.87308 0.0
H570 H 0.49229 0.57068 0.83134 0.0
H571 H 0.55471 0.70527 0.80615 0.0
H572 H 0.39749 0.57213 0.85584 0.0
H573 H 0.37652 0.54307 0.82078 0.0
H574 H 0.41627 0.53307 0.8422 0.0
H575 H 0.47488 0.73597 0.82508 0.0
H576 H 0.51503 0.74571 0.801 0.0
H577 H 0.45266 0.70785 0.7898 0.0
H578 H 0.29206 0.60926 0.78112 0.0
H579 H 0.33836 0.67827 0.86507 0.0
H580 H 0.37325 0.57138 0.77701 0.0
H581 H 0.39662 0.62669 0.76541 0.0
H582 H 0.33467 0.58432 0.75682 0.0
H583 H 0.42449 0.65207 0.88122 0.0
H584 H 0.4117 0.69807 0.88927 0.0
H585 H 0.45638 0.7061 0.86865 0.0
C586 C 0.98499 0.42154 0.1525 0.0
C587 C 0.9856 0.46094 0.1435 0.0
C588 C 0.94249 0.37926 0.15511 0.0
C589 C 0.89719 0.37376 0.14839 0.0
C590 C 0.89757 0.41353 0.13946 0.0
C591 C 0.94068 0.45567 0.13738 0.0
C592 C 0.94628 0.34006 0.16536 0.0
C593 C 0.85186 0.41158 0.13178 0.0
C594 C 0.78515 0.2462 0.12625 0.0
C595 C 0.75962 0.23734 0.1487 0.0
C596 C 0.82846 0.28893 0.12606 0.0
C597 C 0.85014 0.32622 0.14916 0.0
C598 C 0.82589 0.31712 0.17249 0.0
C599 C 0.78169 0.27396 0.17194 0.0
C600 C 0.85039 0.29472 0.10026 0.0
C601 C 0.84614 0.35385 0.19814 0.0
H602 H 1.01828 0.42372 0.1578 0.0
H603 H 0.93894 0.48478 0.13067 0.0
H604 H 0.92763 0.3301 0.18327 0.0
H605 H 0.92912 0.30853 0.14898 0.0
H606 H 0.98326 0.34991 0.17161 0.0
H607 H 0.85692 0.44421 0.1248 0.0
H608 H 0.82894 0.38126 0.11507 0.0
H609 H 0.83319 0.4061 0.14976 0.0
H610 H 0.77013 0.21956 0.10787 0.0
H611 H 0.76361 0.26982 0.18951 0.0
H612 H 0.88651 0.30141 0.10505 0.0
H613 H 0.85301 0.32567 0.09217 0.0
H614 H 0.83 0.26331 0.08384 0.0
H615 H 0.884 0.36683 0.20407 0.0
H616 H 0.82788 0.34017 0.21575 0.0
H617 H 0.84297 0.38432 0.19403 0.0
C618 C 0.09985 0.61848 0.04415 0.0
C619 C 0.1098 0.58794 0.0569 0.0
C620 C 0.10081 0.6203 0.01589 0.0
C621 C 0.11233 0.59113 -0.00031 0.0
C622 C 0.12214 0.55996 0.01232 0.0
C623 C 0.12059 0.55859 0.04071 0.0
C624 C 0.08963 0.65376 0.00337 0.0
C625 C 0.13482 0.52844 -0.00409 0.0
C626 C 1.0728 0.57189 0.92218 0.0
C627 C 0.11306 0.60666 0.91356 0.0
C628 C 1.07261 0.56513 0.94985 0.0
C629 C 0.1138 0.59352 0.96958 0.0
C630 C 0.15525 0.62696 0.96076 0.0
C631 C 0.15437 0.63319 0.93294 0.0
C632 C 1.0276 0.52903 0.95819 0.0
C633 C 0.20006 0.6578 0.98097 0.0
H634 H 0.09131 0.64126 0.05631 0.0
H635 H 0.1286 0.53506 0.0503 0.0
H636 H 0.12006 0.67921 -0.00539 0.0
H637 H 1.05964 0.63403 0.98619 0.0
H638 H 1.08077 0.67369 0.01865 0.0
H639 H 0.14109 0.50588 0.00862 0.0
H640 H 0.10633 0.50554 0.97836 0.0
H641 H 0.16688 0.55006 0.98709 0.0
H642 H 1.04088 0.5506 0.90734 0.0
H643 H 0.18559 0.66038 0.92666 0.0
H644 H 1.01469 0.54702 0.97185 0.0
H645 H 1.03381 0.50558 0.97004 0.0
H646 H 0.99975 0.50715 0.94012 0.0
H647 H 0.19571 0.68255 -0.00458 0.0
H648 H 0.23033 0.67853 0.97051 0.0
H649 H 0.20818 0.63617 -0.00653 0.0
C650 C 0.6529 0.07893 0.38214 0.0
C651 C 0.65115 0.11559 0.39746 0.0
C652 C 0.64674 0.07256 0.35307 0.0
C653 C 0.64042 0.10464 0.33906 0.0
C654 C 0.6415 0.14333 0.35472 0.0
C655 C 0.64577 0.14769 0.38363 0.0
C656 C 0.64425 1.02995 0.33732 0.0
C657 C 0.6367 0.17941 0.34091 0.0
C658 C 0.65116 0.10082 0.26231 0.0
C659 C 0.60392 0.07608 0.24954 0.0
C660 C 0.66371 0.11129 0.29133 0.0
C661 C 0.6283 0.0954 0.30817 0.0
C662 C 0.58071 0.07072 0.29548 0.0
C663 C 0.56924 0.06249 0.26659 0.0
C664 C 0.71489 0.13929 0.30395 0.0
C665 C 0.54158 1.05234 0.31243 0.0
H666 H 0.65646 1.05375 0.39281 0.0
H667 H 0.64452 0.17614 0.39548 0.0
H668 H 0.60853 1.00648 0.32531 0.0
H669 H 0.66911 1.04053 0.32238 0.0
H670 H 0.65225 1.00973 0.35115 0.0
H671 H 0.64485 0.21064 0.35597 0.0
H672 H 0.66037 0.19117 0.32533 0.0
H673 H 0.60033 0.16355 0.32994 0.0
H674 H 0.67852 0.11146 0.24969 0.0
H675 H 0.53267 1.04507 0.25741 0.0
H676 H 0.72413 0.11739 0.31546 0.0
H677 H 0.72194 0.17008 0.31896 0.0
H678 H 0.73813 0.15194 0.28819 0.0
H679 H 0.54599 1.03024 0.32636 0.0
H680 H 0.50643 1.0311 0.2994 0.0
H681 H 0.54283 0.08207 0.32557 0.0
C682 C 0.69711 0.63682 0.72035 0.0
C683 C 0.65781 0.63088 0.73157 0.0
C684 C 0.69569 0.62972 0.6916 0.0
C685 C 0.65463 0.61847 0.67357 0.0
C686 C 0.61538 0.61414 0.68494 0.0
C687 C 0.61707 0.61927 0.71377 0.0
C688 C 0.73765 0.6328 0.68053 0.0
C689 C 0.57164 0.60421 0.66667 0.0
C690 C 0.66945 0.63807 0.59921 0.0
C691 C 0.65023 0.592 0.58488 0.0
C692 C 0.66968 0.64707 0.62776 0.0
C693 C 0.65217 0.60945 0.6429 0.0
C694 C 0.63295 0.56301 0.62873 0.0
C695 C 0.63105 0.5548 0.60001 0.0
C696 C 0.68888 0.69698 0.64176 0.0
C697 C 0.61504 0.52182 0.64401 0.0
H698 H 0.7285 0.64539 0.73411 0.0
H699 H 0.58676 0.61503 0.72245 0.0
H700 H 0.72713 0.59897 0.66737 0.0
H701 H 0.7512 0.66038 0.6674 0.0
H702 H 0.76649 0.64091 0.69724 0.0
H703 H 0.54596 0.60615 0.67872 0.0
H704 H 0.58082 0.62974 0.6522 0.0
H705 H 0.55454 0.56864 0.65406 0.0
H706 H 0.68502 0.66748 0.58826 0.0
H707 H 0.61439 0.51884 0.5895 0.0
H708 H 0.7215 0.70901 0.65632 0.0
H709 H 0.66336 0.69885 0.65397 0.0
H710 H 0.6968 0.72162 0.62678 0.0
H711 H 0.64282 0.528 0.66086 0.0
H712 H 0.60374 0.48822 0.63029 0.0
H713 H 0.58488 0.51805 0.65364 0.0
C714 C 0.66925 0.13645 0.58491 0.0
C715 C 0.63225 0.11589 0.56268 0.0
C716 C 0.66032 0.13007 0.61194 0.0
C717 C 0.61339 0.10339 0.61661 0.0
C718 C 0.57604 0.08378 0.59421 0.0
C719 C 0.58596 0.09001 0.56757 0.0
C720 C 0.70095 0.15093 0.63538 0.0
C721 C 0.52546 1.05595 0.5983 0.0
C722 C 0.57913 1.0453 0.67965 0.0
C723 C 0.57118 0.07697 0.69562 0.0
C724 C 0.59529 1.05464 0.65442 0.0
C725 C 0.60258 0.09609 0.64483 0.0
C726 C 0.5949 0.12829 0.66107 0.0
C727 C 0.57957 0.11845 0.68636 0.0
C728 C 0.60361 1.01976 0.63776 0.0
C729 C 0.60113 0.17224 0.65129 0.0
H730 H 0.70502 0.15616 0.58109 0.0
H731 H 0.55717 0.07445 0.55043 0.0
H732 H 0.69768 0.17479 0.65118 0.0
H733 H 0.70041 0.12252 0.64554 0.0
H734 H 0.73529 0.1709 0.62834 0.0
H735 H 0.50056 1.04385 0.57867 0.0
H736 H 0.51913 1.02469 0.60749 0.0
H737 H 0.51762 0.07771 0.61287 0.0
H738 H 0.57306 1.01348 0.68701 0.0
H739 H 0.57307 0.14277 0.6987 0.0
H740 H 0.63894 1.03799 0.63176 0.0
H741 H 0.57765 1.00307 0.61847 0.0
H742 H 0.60065 0.99169 0.64926 0.0
H743 H 0.63644 0.19282 0.64559 0.0
H744 H 0.5966 0.19508 0.66717 0.0
H745 H 0.5751 0.16245 0.63253 0.0
C746 C 0.6483 0.66764 0.91298 0.0
C747 C 0.66687 0.6434 0.8992 0.0
C748 C 0.6436 0.66594 0.94081 0.0
C749 C 0.65864 0.64009 0.95528 0.0
C750 C 0.67779 0.61587 0.94154 0.0
C751 C 0.68129 0.61748 0.91355 0.0
C752 C 0.62235 0.69158 0.95468 0.0
C753 C 0.69489 0.58855 0.95647 0.0
C754 C 0.69066 0.67191 0.03308 0.0
C755 C 0.65202 0.63487 0.0414 0.0
C756 C 0.69296 0.67437 0.00509 0.0
C757 C 0.65539 0.63922 0.985 0.0
C758 C 0.61555 0.60256 -0.0067 0.0
C759 C 0.61454 0.60056 0.02149 0.0
C760 C 0.73631 0.71361 -0.00299 0.0
C761 C 0.57449 0.56496 0.97243 0.0
H762 H 0.63665 0.68737 0.90189 0.0
H763 H 0.69573 0.59878 0.90297 0.0
H764 H 0.59148 0.66664 0.96334 0.0
H765 H 0.64808 0.71869 0.97213 0.0
H766 H 0.61116 0.70896 0.94027 0.0
H767 H 0.70918 0.57196 0.94283 0.0
H768 H 0.72266 0.61222 0.97419 0.0
H769 H 0.66578 0.56063 0.96488 0.0
H770 H 0.72003 0.698 0.04849 0.0
H771 H 0.58469 0.57194 0.02799 0.0
H772 H 0.72664 0.73312 0.98354 0.0
H773 H 0.75378 0.69868 0.98503 0.0
H774 H 0.76185 0.73886 0.0152 0.0
H775 H 0.56165 0.58128 0.9582 0.0
H776 H 0.54499 0.54065 0.98232 0.0
H777 H 0.58572 0.54413 0.95975 0.0
C778 C 1.07655 0.56633 0.23297 0.0
C779 C 0.11973 0.59592 0.22503 0.0
C780 C 1.07057 0.56967 0.26058 0.0
C781 C 0.10854 0.60411 0.28067 0.0
C782 C 0.15305 0.63238 0.27298 0.0
C783 C 0.15826 0.62763 0.2451 0.0
C784 C 1.02284 0.53821 0.26795 0.0
C785 C 0.19426 0.66967 0.29386 0.0
C786 C 1.07605 0.65301 0.34202 0.0
C787 C 1.08388 0.63085 0.36272 0.0
C788 C 1.08435 0.64483 0.31527 0.0
C789 C 0.10028 0.61327 0.30907 0.0
C790 C 0.10694 0.58977 0.32972 0.0
C791 C 0.09894 0.59909 0.35639 0.0
C792 C 1.07697 0.67068 0.29379 0.0
C793 C 0.12291 0.55516 0.32369 0.0
H794 H 1.04681 0.54149 0.21735 0.0
H795 H 0.1915 0.65068 0.23883 0.0
H796 H 1.02595 0.52218 0.28603 0.0
H797 H 1.00679 0.55937 0.27367 0.0
H798 H 0.99878 0.50964 0.25056 0.0
H799 H 0.22736 0.68546 0.28515 0.0
H800 H 0.18749 0.69801 0.30111 0.0
H801 H 0.19894 0.65477 0.31214 0.0
H802 H 1.06516 0.67815 0.34704 0.0
H803 H 0.10497 0.58196 0.37246 0.0
H804 H 1.05025 0.64517 0.27614 0.0
H805 H 0.11003 0.69159 0.28569 0.0
H806 H 1.06533 0.69469 0.30211 0.0
H807 H 0.09811 0.52667 0.30652 0.0
H808 H 0.12555 0.53916 0.34193 0.0
H809 H 0.15768 0.57299 0.31698 0.0
loop_
_geom_bond_atom_site_label_1
_geom_bond_atom_site_label_2
_geom_bond_distance
_geom_bond_site_symmetry_2
_ccdc_geom_bond_type
Tb0 C9 2.764 1_455 S
Tb0 O10 2.325 1_455 S
Tb0 O13 2.303 . S
Tb0 O17 2.322 . S
Tb0 O18 2.349 . S
Tb0 O21 2.415 1_455 S
Tb0 O22 2.399 1_455 S
Tb1 O11 2.322 . S
Tb1 O12 2.349 . S
Tb1 O14 2.415 . S
Tb1 O15 2.399 . S
Tb1 O16 2.325 . S
Tb1 O19 2.303 . S
Tb1 C30 2.764 . S
C2 O18 1.261 . S
C2 O19 1.257 . S
C3 C6 1.358 . S
C3 C7 1.332 . S
C3 C9 1.504 . S
C4 C5 1.373 . S
C4 C8 1.308 . S
C5 C4 1.373 . S
C5 C6 1.429 . S
C5 H32 0.932 . S
C6 C3 1.358 . S
C6 C5 1.429 . S
C6 H33 0.930 . S
C7 C3 1.332 . S
C7 C8 1.394 . S
C7 H34 0.932 . S
C8 C4 1.308 . S
C8 C7 1.394 . S
C8 H35 0.929 . S
C9 Tb0 2.764 1_655 S
C9 C3 1.504 . S
C9 O21 1.239 . S
C9 O22 1.263 . S
O10 Tb0 2.325 1_655 S
O10 C20 1.236 . S
O11 Tb1 2.322 . S
O11 C20 1.257 1_455 S
O12 Tb1 2.349 . S
O12 C23 1.261 . S
O13 Tb0 2.303 . S
O13 C23 1.257 . S
O14 Tb1 2.415 . S
O14 C30 1.239 . S
O15 Tb1 2.399 . S
O15 C30 1.263 . S
O16 Tb1 2.325 . S
O16 C31 1.236 . S
O17 Tb0 2.322 . S
O17 C31 1.257 . S
O18 Tb0 2.349 . S
O18 C2 1.261 . S
O19 Tb1 2.303 . S
O19 C2 1.257 . S
C20 O10 1.236 . S
C20 O11 1.257 1_655 S
O21 Tb0 2.415 1_655 S
O21 C9 1.239 . S
O22 Tb0 2.399 1_655 S
O22 C9 1.263 . S
C23 O12 1.261 . S
C23 O13 1.257 . S
C24 C27 1.358 . S
C24 C28 1.332 . S
C24 C30 1.504 . S
C25 C26 1.373 . S
C25 C29 1.308 . S
C26 C25 1.373 . S
C26 C27 1.429 . S
C26 H36 0.932 . S
C27 C24 1.358 . S
C27 C26 1.429 . S
C27 H37 0.930 . S
C28 C24 1.332 . S
C28 C29 1.394 . S
C28 H38 0.932 . S
C29 C25 1.308 . S
C29 C28 1.394 . S
C29 H39 0.929 . S
C30 Tb1 2.764 . S
C30 O14 1.239 . S
C30 O15 1.263 . S
C30 C24 1.504 . S
C31 O16 1.236 . S
C31 O17 1.257 . S
H32 C5 0.932 . S
H33 C6 0.930 . S
H34 C7 0.932 . S
H35 C8 0.929 . S
H36 C26 0.932 . S
H37 C27 0.930 . S
H38 C28 0.932 . S
H39 C29 0.929 . S
Tb40 C49 2.764 1_545 S
Tb40 O50 2.325 1_545 S
Tb40 O53 2.303 . S
Tb40 O57 2.322 . S
Tb40 O58 2.349 . S
Tb40 O61 2.415 1_545 S
Tb40 O62 2.399 1_545 S
Tb41 O51 2.322 . S
Tb41 O52 2.349 . S
Tb41 O54 2.415 . S
Tb41 O55 2.399 . S
Tb41 O56 2.325 . S
Tb41 O59 2.303 . S
Tb41 C70 2.764 . S
C42 O58 1.261 . S
C42 O59 1.257 . S
C43 C46 1.358 . S
C43 C47 1.332 . S
C43 C49 1.504 . S
C44 C45 1.373 . S
C44 C48 1.308 . S
C45 C44 1.373 . S
C45 C46 1.429 . S
C45 H72 0.932 . S
C46 C43 1.358 . S
C46 C45 1.429 . S
C46 H73 0.930 . S
C47 C43 1.332 . S
C47 C48 1.394 . S
C47 H74 0.932 . S
C48 C44 1.308 . S
C48 C47 1.394 . S
C48 H75 0.929 . S
C49 Tb40 2.764 1_565 S
C49 C43 1.504 . S
C49 O61 1.239 . S
C49 O62 1.263 . S
O50 Tb40 2.325 1_565 S
O50 C60 1.230 . S
O51 Tb41 2.322 . S
O51 C60 1.250 1_545 S
O52 Tb41 2.349 . S
O52 C63 1.261 . S
O53 Tb40 2.303 . S
O53 C63 1.257 . S
O54 Tb41 2.415 . S
O54 C70 1.239 . S
O55 Tb41 2.399 . S
O55 C70 1.263 . S
O56 Tb41 2.325 . S
O56 C71 1.236 . S
O57 Tb40 2.322 . S
O57 C71 1.257 . S
O58 Tb40 2.349 . S
O58 C42 1.261 . S
O59 Tb41 2.303 . S
O59 C42 1.257 . S
C60 O50 1.230 . S
C60 O51 1.250 1_565 S
O61 Tb40 2.415 1_565 S
O61 C49 1.239 . S
O62 Tb40 2.399 1_565 S
O62 C49 1.263 . S
C63 O52 1.261 . S
C63 O53 1.257 . S
C64 C67 1.358 . S
C64 C68 1.332 . S
C64 C70 1.504 . S
C65 C66 1.373 . S
C65 C69 1.308 . S
C66 C65 1.373 . S
C66 C67 1.429 . S
C66 H76 0.932 . S
C67 C64 1.358 . S
C67 C66 1.429 . S
C67 H77 0.930 . S
C68 C64 1.332 . S
C68 C69 1.394 . S
C68 H78 0.932 . S
C69 C65 1.308 . S
C69 C68 1.394 . S
C69 H79 0.929 . S
C70 Tb41 2.764 . S
C70 O54 1.239 . S
C70 O55 1.263 . S
C70 C64 1.504 . S
C71 O56 1.236 . S
C71 O57 1.257 . S
H72 C45 0.932 . S
H73 C46 0.930 . S
H74 C47 0.932 . S
H75 C48 0.929 . S
H76 C66 0.932 . S
H77 C67 0.930 . S
H78 C68 0.932 . S
H79 C69 0.929 . S
Tb80 C89 2.764 . S
Tb80 O90 2.325 . S
Tb80 O93 2.303 . S
Tb80 O97 2.322 . S
Tb80 O98 2.349 . S
Tb80 O101 2.415 . S
Tb80 O102 2.399 . S
Tb81 O91 2.322 . S
Tb81 O92 2.349 . S
Tb81 O94 2.415 . S
Tb81 O95 2.399 . S
Tb81 O96 2.325 . S
Tb81 O99 2.303 . S
Tb81 C110 2.764 . S
C82 O98 1.261 . S
C82 O99 1.257 . S
C83 C86 1.358 . S
C83 C87 1.332 . S
C83 C89 1.504 . S
C84 C85 1.373 . S
C84 C88 1.308 . S
C85 C84 1.373 . S
C85 C86 1.429 . S
C85 H112 0.932 . S
C86 C83 1.358 . S
C86 C85 1.429 . S
C86 H113 0.930 . S
C87 C83 1.332 . S
C87 C88 1.394 . S
C87 H114 0.932 . S
C88 C84 1.308 . S
C88 C87 1.394 . S
C88 H115 0.929 . S
C89 Tb80 2.764 . S
C89 C83 1.504 . S
C89 O101 1.239 . S
C89 O102 1.263 . S
O90 Tb80 2.325 . S
O90 C100 1.236 . S
O91 Tb81 2.322 . S
O91 C100 1.257 . S
O92 Tb81 2.349 . S
O92 C103 1.261 . S
O93 Tb80 2.303 . S
O93 C103 1.257 . S
O94 Tb81 2.415 . S
O94 C110 1.239 . S
O95 Tb81 2.399 . S
O95 C110 1.263 . S
O96 Tb81 2.325 . S
O96 C111 1.236 . S
O97 Tb80 2.322 . S
O97 C111 1.257 . S
O98 Tb80 2.349 . S
O98 C82 1.261 . S
O99 Tb81 2.303 . S
O99 C82 1.257 . S
C100 O90 1.236 . S
C100 O91 1.257 . S
O101 Tb80 2.415 . S
O101 C89 1.239 . S
O102 Tb80 2.399 . S
O102 C89 1.263 . S
C103 O92 1.261 . S
C103 O93 1.257 . S
C104 C107 1.358 . S
C104 C108 1.332 . S
C104 C110 1.504 . S
C105 C106 1.373 . S
C105 C109 1.308 . S
C106 C105 1.373 . S
C106 C107 1.429 . S
C106 H116 0.932 . S
C107 C104 1.358 . S
C107 C106 1.429 . S
C107 H117 0.930 . S
C108 C104 1.332 . S
C108 C109 1.394 . S
C108 H118 0.932 . S
C109 C105 1.308 . S
C109 C108 1.394 . S
C109 H119 0.929 . S
C110 Tb81 2.764 . S
C110 O94 1.239 . S
C110 O95 1.263 . S
C110 C104 1.504 . S
C111 O96 1.236 . S
C111 O97 1.257 . S
H112 C85 0.932 . S
H113 C86 0.930 . S
H114 C87 0.932 . S
H115 C88 0.929 . S
H116 C106 0.932 . S
H117 C107 0.930 . S
H118 C108 0.932 . S
H119 C109 0.929 . S
H120 C121 0.949 . S
C121 H120 0.949 . S
C121 C122 1.395 . S
C121 C123 1.391 . S
C122 C121 1.395 . S
C122 C125 1.390 . S
C123 C121 1.391 . S
C123 C127 1.387 . S
C123 C128 1.491 . S
H124 C125 0.950 . S
C125 C122 1.390 . S
C125 H124 0.950 . S
C125 C126 1.378 . S
C126 C125 1.378 . S
C126 C127 1.409 . S
C127 C123 1.387 . S
C127 C126 1.409 . S
C127 H129 0.951 . S
C128 C123 1.491 . S
C128 C130 1.382 . S
C128 C132 1.404 . S
H129 C127 0.951 . S
C130 C128 1.382 . S
C130 C131 1.390 . S
C130 H135 0.949 . S
C131 C130 1.390 . S
C131 C136 1.399 . S
C132 C128 1.404 . S
C132 H133 0.950 . S
C132 C134 1.375 . S
H133 C132 0.950 . S
C134 C132 1.375 . S
C134 C136 1.382 . S
C134 H138 0.950 . S
H135 C130 0.949 . S
C136 C131 1.399 . S
C136 C134 1.382 . S
C136 H137 0.952 . S
H137 C136 0.952 . S
H138 C134 0.950 . S
H139 C140 0.949 . S
C140 H139 0.949 . S
C140 C141 1.395 . S
C140 C142 1.391 . S
C141 C140 1.395 . S
C141 C144 1.390 . S
C142 C140 1.391 . S
C142 C146 1.387 . S
C142 C147 1.491 . S
H143 C144 0.950 . S
C144 C141 1.390 . S
C144 H143 0.950 . S
C144 C145 1.378 . S
C145 C144 1.378 . S
C145 C146 1.409 . S
C146 C142 1.387 . S
C146 C145 1.409 . S
C146 H148 0.951 . S
C147 C142 1.491 . S
C147 C149 1.382 . S
C147 C151 1.404 . S
H148 C146 0.951 . S
C149 C147 1.382 . S
C149 C150 1.390 . S
C149 H154 0.949 . S
C150 C149 1.390 . S
C150 C155 1.399 . S
C151 C147 1.404 . S
C151 H152 0.950 . S
C151 C153 1.375 . S
H152 C151 0.950 . S
C153 C151 1.375 . S
C153 C155 1.382 . S
C153 H157 0.950 . S
H154 C149 0.949 . S
C155 C150 1.399 . S
C155 C153 1.382 . S
C155 H156 0.952 . S
H156 C155 0.952 . S
H157 C153 0.950 . S
H158 C159 0.949 . S
C159 H158 0.949 . S
C159 C160 1.395 . S
C159 C161 1.391 . S
C160 C159 1.395 . S
C160 C163 1.390 . S
C161 C159 1.391 . S
C161 C165 1.387 . S
C161 C166 1.491 . S
H162 C163 0.950 1_655 S
C163 C160 1.390 . S
C163 H162 0.950 1_455 S
C163 C164 1.378 . S
C164 C163 1.378 . S
C164 C165 1.409 . S
C165 C161 1.387 . S
C165 C164 1.409 . S
C165 H167 0.951 . S
C166 C161 1.491 . S
C166 C168 1.382 . S
C166 C170 1.404 . S
H167 C165 0.951 . S
C168 C166 1.382 . S
C168 C169 1.390 . S
C168 H173 0.949 . S
C169 C168 1.390 . S
C169 C174 1.399 . S
C170 C166 1.404 . S
C170 H171 0.950 . S
C170 C172 1.375 . S
H171 C170 0.950 . S
C172 C170 1.375 . S
C172 C174 1.382 . S
C172 H176 0.950 . S
H173 C168 0.949 . S
C174 C169 1.399 . S
C174 C172 1.382 . S
C174 H175 0.952 . S
H175 C174 0.952 . S
H176 C172 0.950 . S
H177 C178 0.949 . S
C178 H177 0.949 . S
C178 C179 1.395 1_655 S
C178 C180 1.391 1_655 S
C179 C178 1.395 1_455 S
C179 C182 1.390 . S
C180 C178 1.391 1_455 S
C180 C184 1.387 . S
C180 C185 1.491 1_455 S
H181 C182 0.950 . S
C182 C179 1.390 . S
C182 H181 0.950 . S
C182 C183 1.378 . S
C183 C182 1.378 . S
C183 C184 1.409 . S
C184 C180 1.387 . S
C184 C183 1.409 . S
C184 H186 0.951 . S
C185 C180 1.491 1_655 S
C185 C187 1.382 . S
C185 C189 1.404 . S
H186 C184 0.951 . S
C187 C185 1.382 . S
C187 C188 1.390 . S
C187 H192 0.949 . S
C188 C187 1.390 . S
C188 C193 1.399 . S
C189 C185 1.404 . S
C189 H190 0.950 . S
C189 C191 1.375 . S
H190 C189 0.950 . S
C191 C189 1.375 . S
C191 C193 1.382 . S
C191 H195 0.950 . S
H192 C187 0.949 . S
C193 C188 1.399 . S
C193 C191 1.382 . S
C193 H194 0.952 . S
H194 C193 0.952 . S
H195 C191 0.950 . S
H196 C197 0.949 1_565 S
C197 H196 0.949 1_545 S
C197 C198 1.395 . S
C197 C199 1.391 . S
C198 C197 1.395 . S
C198 C201 1.390 . S
C199 C197 1.391 . S
C199 C203 1.387 . S
C199 C204 1.491 1_545 S
H200 C201 0.950 . S
C201 C198 1.390 . S
C201 H200 0.950 . S
C201 C202 1.378 . S
C202 C201 1.378 . S
C202 C203 1.409 . S
C203 C199 1.387 . S
C203 C202 1.409 . S
C203 H205 0.951 . S
C204 C199 1.491 1_565 S
C204 C206 1.382 . S
C204 C208 1.404 . S
H205 C203 0.951 . S
C206 C204 1.382 . S
C206 C207 1.390 . S
C206 H211 0.949 . S
C207 C206 1.390 . S
C207 C212 1.399 . S
C208 C204 1.404 . S
C208 H209 0.950 1_565 S
C208 C210 1.375 . S
H209 C208 0.950 1_545 S
C210 C208 1.375 . S
C210 C212 1.382 . S
C210 H214 0.950 . S
H211 C206 0.949 . S
C212 C207 1.399 . S
C212 C210 1.382 . S
C212 H213 0.952 . S
H213 C212 0.952 . S
H214 C210 0.950 . S
H215 C216 0.949 . S
C216 H215 0.949 . S
C216 C217 1.395 . S
C216 C218 1.391 . S
C217 C216 1.395 . S
C217 C220 1.390 . S
C218 C216 1.391 . S
C218 C222 1.387 . S
C218 C223 1.491 . S
H219 C220 0.950 . S
C220 C217 1.390 . S
C220 H219 0.950 . S
C220 C221 1.378 . S
C221 C220 1.378 . S
C221 C222 1.409 . S
C222 C218 1.387 . S
C222 C221 1.409 . S
C222 H224 0.951 . S
C223 C218 1.491 . S
C223 C225 1.382 . S
C223 C227 1.404 . S
H224 C222 0.951 . S
C225 C223 1.382 . S
C225 C226 1.390 . S
C225 H230 0.949 . S
C226 C225 1.390 . S
C226 C231 1.399 . S
C227 C223 1.404 . S
C227 H228 0.950 . S
C227 C229 1.375 . S
H228 C227 0.950 . S
C229 C227 1.375 . S
C229 C231 1.382 . S
C229 H233 0.950 . S
H230 C225 0.949 . S
C231 C226 1.399 . S
C231 C229 1.382 . S
C231 H232 0.952 . S
H232 C231 0.952 . S
H233 C229 0.950 . S
C234 C235 1.391 . S
C234 C236 1.394 . S
C234 H250 0.931 . S
C235 C234 1.391 . S
C235 C239 1.376 . S
C236 C234 1.394 . S
C236 C237 1.369 . S
C236 C240 1.531 . S
C237 C236 1.369 . S
C237 C238 1.410 . S
C237 C245 1.503 . S
C238 C237 1.410 . S
C238 C239 1.392 . S
C238 C241 1.511 . S
C239 C235 1.376 . S
C239 C238 1.392 . S
C239 H251 0.929 . S
C240 C236 1.531 . S
C240 H252 0.960 . S
C240 H253 0.962 . S
C240 H254 0.960 . S
C241 C238 1.511 . S
C241 H255 0.961 . S
C241 H256 0.961 . S
C241 H257 0.961 . S
C242 C243 1.370 . S
C242 C244 1.363 . S
C242 H258 0.931 . S
C243 C242 1.370 . S
C243 C247 1.408 . S
C244 C242 1.363 . S
C244 C245 1.370 . S
C244 C248 1.524 . S
C245 C237 1.503 . S
C245 C244 1.370 . S
C245 C246 1.403 . S
C246 C245 1.403 . S
C246 C247 1.404 . S
C246 C249 1.539 . S
C247 C243 1.408 . S
C247 C246 1.404 . S
C247 H259 0.930 . S
C248 C244 1.524 . S
C248 H260 0.956 . S
C248 H261 0.961 . S
C248 H262 0.961 . S
C249 C246 1.539 . S
C249 H263 0.958 . S
C249 H264 0.961 . S
C249 H265 0.960 . S
H250 C234 0.931 . S
H251 C239 0.929 . S
H252 C240 0.960 . S
H253 C240 0.962 . S
H254 C240 0.960 . S
H255 C241 0.961 . S
H256 C241 0.961 . S
H257 C241 0.961 . S
H258 C242 0.931 . S
H259 C247 0.930 . S
H260 C248 0.956 . S
H261 C248 0.961 . S
H262 C248 0.961 . S
H263 C249 0.958 . S
H264 C249 0.961 . S
H265 C249 0.960 . S
C266 C267 1.391 . S
C266 C268 1.394 . S
C266 H282 0.931 . S
C267 C266 1.391 . S
C267 C271 1.376 . S
C268 C266 1.394 . S
C268 C269 1.369 . S
C268 C272 1.531 . S
C269 C268 1.369 . S
C269 C270 1.410 . S
C269 C277 1.503 . S
C270 C269 1.410 . S
C270 C271 1.392 . S
C270 C273 1.511 . S
C271 C267 1.376 . S
C271 C270 1.392 . S
C271 H283 0.929 . S
C272 C268 1.531 . S
C272 H284 0.960 . S
C272 H285 0.962 . S
C272 H286 0.960 . S
C273 C270 1.511 . S
C273 H287 0.961 . S
C273 H288 0.961 . S
C273 H289 0.961 . S
C274 C275 1.370 . S
C274 C276 1.363 . S
C274 H290 0.931 . S
C275 C274 1.370 . S
C275 C279 1.408 . S
C276 C274 1.363 . S
C276 C277 1.370 . S
C276 C280 1.524 . S
C277 C269 1.503 . S
C277 C276 1.370 . S
C277 C278 1.403 . S
C278 C277 1.403 . S
C278 C279 1.404 . S
C278 C281 1.539 . S
C279 C275 1.408 . S
C279 C278 1.404 . S
C279 H291 0.930 . S
C280 C276 1.524 . S
C280 H292 0.956 . S
C280 H293 0.961 . S
C280 H294 0.961 . S
C281 C278 1.539 . S
C281 H295 0.958 . S
C281 H296 0.961 . S
C281 H297 0.960 . S
H282 C266 0.931 . S
H283 C271 0.929 . S
H284 C272 0.960 . S
H285 C272 0.962 . S
H286 C272 0.960 . S
H287 C273 0.961 . S
H288 C273 0.961 . S
H289 C273 0.961 . S
H290 C274 0.931 . S
H291 C279 0.930 . S
H292 C280 0.956 . S
H293 C280 0.961 . S
H294 C280 0.961 . S
H295 C281 0.958 . S
H296 C281 0.961 . S
H297 C281 0.960 . S
C298 C299 1.391 . S
C298 C300 1.394 . S
C298 H314 0.931 . S
C299 C298 1.391 . S
C299 C303 1.376 . S
C300 C298 1.394 . S
C300 C301 1.369 . S
C300 C304 1.531 . S
C301 C300 1.369 . S
C301 C302 1.410 . S
C301 C309 1.503 . S
C302 C301 1.410 . S
C302 C303 1.392 . S
C302 C305 1.511 . S
C303 C299 1.376 . S
C303 C302 1.392 . S
C303 H315 0.929 . S
C304 C300 1.531 . S
C304 H316 0.960 . S
C304 H317 0.962 . S
C304 H318 0.960 . S
C305 C302 1.511 . S
C305 H319 0.961 . S
C305 H320 0.961 . S
C305 H321 0.961 . S
C306 C307 1.370 . S
C306 C308 1.363 . S
C306 H322 0.931 . S
C307 C306 1.370 . S
C307 C311 1.408 . S
C308 C306 1.363 . S
C308 C309 1.370 . S
C308 C312 1.524 . S
C309 C301 1.503 . S
C309 C308 1.370 . S
C309 C310 1.403 . S
C310 C309 1.403 . S
C310 C311 1.404 . S
C310 C313 1.539 . S
C311 C307 1.408 . S
C311 C310 1.404 . S
C311 H323 0.930 . S
C312 C308 1.524 . S
C312 H324 0.956 . S
C312 H325 0.961 . S
C312 H326 0.961 . S
C313 C310 1.539 . S
C313 H327 0.958 . S
C313 H328 0.961 . S
C313 H329 0.960 . S
H314 C298 0.931 . S
H315 C303 0.929 . S
H316 C304 0.960 . S
H317 C304 0.962 . S
H318 C304 0.960 . S
H319 C305 0.961 . S
H320 C305 0.961 . S
H321 C305 0.961 . S
H322 C306 0.931 . S
H323 C311 0.930 . S
H324 C312 0.956 . S
H325 C312 0.961 . S
H326 C312 0.961 . S
H327 C313 0.958 . S
H328 C313 0.961 . S
H329 C313 0.960 . S
C330 C331 1.391 . S
C330 C332 1.394 . S
C330 H346 0.931 . S
C331 C330 1.391 . S
C331 C335 1.376 . S
C332 C330 1.394 . S
C332 C333 1.369 . S
C332 C336 1.531 . S
C333 C332 1.369 . S
C333 C334 1.410 . S
C333 C341 1.503 . S
C334 C333 1.410 . S
C334 C335 1.392 . S
C334 C337 1.511 . S
C335 C331 1.376 . S
C335 C334 1.392 . S
C335 H347 0.929 . S
C336 C332 1.531 . S
C336 H348 0.960 . S
C336 H349 0.962 . S
C336 H350 0.960 . S
C337 C334 1.511 . S
C337 H351 0.961 . S
C337 H352 0.961 . S
C337 H353 0.961 . S
C338 C339 1.370 . S
C338 C340 1.363 . S
C338 H354 0.931 . S
C339 C338 1.370 . S
C339 C343 1.408 . S
C340 C338 1.363 . S
C340 C341 1.370 . S
C340 C344 1.524 . S
C341 C333 1.503 . S
C341 C340 1.370 . S
C341 C342 1.403 . S
C342 C341 1.403 . S
C342 C343 1.404 . S
C342 C345 1.539 . S
C343 C339 1.408 . S
C343 C342 1.404 . S
C343 H355 0.930 . S
C344 C340 1.524 . S
C344 H356 0.956 . S
C344 H357 0.961 . S
C344 H358 0.961 . S
C345 C342 1.539 . S
C345 H359 0.958 . S
C345 H360 0.961 . S
C345 H361 0.960 . S
H346 C330 0.931 . S
H347 C335 0.929 . S
H348 C336 0.960 . S
H349 C336 0.962 . S
H350 C336 0.960 . S
H351 C337 0.961 . S
H352 C337 0.961 . S
H353 C337 0.961 . S
H354 C338 0.931 . S
H355 C343 0.930 . S
H356 C344 0.956 . S
H357 C344 0.961 . S
H358 C344 0.961 . S
H359 C345 0.958 . S
H360 C345 0.961 . S
H361 C345 0.960 . S
C362 C363 1.391 . S
C362 C364 1.394 . S
C362 H378 0.931 . S
C363 C362 1.391 . S
C363 C367 1.376 . S
C364 C362 1.394 . S
C364 C365 1.369 . S
C364 C368 1.531 . S
C365 C364 1.369 . S
C365 C366 1.410 . S
C365 C373 1.503 . S
C366 C365 1.410 . S
C366 C367 1.392 . S
C366 C369 1.511 . S
C367 C363 1.376 . S
C367 C366 1.392 . S
C367 H379 0.929 . S
C368 C364 1.531 . S
C368 H380 0.960 . S
C368 H381 0.962 . S
C368 H382 0.960 . S
C369 C366 1.511 . S
C369 H383 0.961 . S
C369 H384 0.961 . S
C369 H385 0.961 . S
C370 C371 1.370 . S
C370 C372 1.363 . S
C370 H386 0.931 . S
C371 C370 1.370 . S
C371 C375 1.408 . S
C372 C370 1.363 . S
C372 C373 1.370 . S
C372 C376 1.524 . S
C373 C365 1.503 . S
C373 C372 1.370 . S
C373 C374 1.403 . S
C374 C373 1.403 . S
C374 C375 1.404 . S
C374 C377 1.539 . S
C375 C371 1.408 . S
C375 C374 1.404 . S
C375 H387 0.930 . S
C376 C372 1.524 . S
C376 H388 0.956 . S
C376 H389 0.961 . S
C376 H390 0.961 . S
C377 C374 1.539 . S
C377 H391 0.958 . S
C377 H392 0.961 . S
C377 H393 0.960 . S
H378 C362 0.931 . S
H379 C367 0.929 . S
H380 C368 0.960 . S
H381 C368 0.962 . S
H382 C368 0.960 . S
H383 C369 0.961 . S
H384 C369 0.961 . S
H385 C369 0.961 . S
H386 C370 0.931 . S
H387 C375 0.930 . S
H388 C376 0.956 . S
H389 C376 0.961 . S
H390 C376 0.961 . S
H391 C377 0.958 . S
H392 C377 0.961 . S
H393 C377 0.960 . S
C394 C395 1.391 . S
C394 C396 1.394 . S
C394 H410 0.931 . S
C395 C394 1.391 . S
C395 C399 1.376 . S
C396 C394 1.394 . S
C396 C397 1.369 . S
C396 C400 1.531 . S
C397 C396 1.369 . S
C397 C398 1.410 . S
C397 C405 1.503 . S
C398 C397 1.410 . S
C398 C399 1.392 . S
C398 C401 1.511 . S
C399 C395 1.376 . S
C399 C398 1.392 . S
C399 H411 0.929 . S
C400 C396 1.531 . S
C400 H412 0.960 . S
C400 H413 0.962 . S
C400 H414 0.960 . S
C401 C398 1.511 . S
C401 H415 0.961 . S
C401 H416 0.961 . S
C401 H417 0.961 . S
C402 C403 1.370 . S
C402 C404 1.363 . S
C402 H418 0.931 . S
C403 C402 1.370 . S
C403 C407 1.408 . S
C404 C402 1.363 . S
C404 C405 1.370 . S
C404 C408 1.524 . S
C405 C397 1.503 . S
C405 C404 1.370 . S
C405 C406 1.403 . S
C406 C405 1.403 . S
C406 C407 1.404 . S
C406 C409 1.539 . S
C407 C403 1.408 . S
C407 C406 1.404 . S
C407 H419 0.930 . S
C408 C404 1.524 . S
C408 H420 0.956 . S
C408 H421 0.961 . S
C408 H422 0.961 . S
C409 C406 1.539 . S
C409 H423 0.958 . S
C409 H424 0.961 . S
C409 H425 0.960 . S
H410 C394 0.931 . S
H411 C399 0.929 . S
H412 C400 0.960 . S
H413 C400 0.962 . S
H414 C400 0.960 . S
H415 C401 0.961 . S
H416 C401 0.961 . S
H417 C401 0.961 . S
H418 C402 0.931 . S
H419 C407 0.930 . S
H420 C408 0.956 . S
H421 C408 0.961 . S
H422 C408 0.961 . S
H423 C409 0.958 . S
H424 C409 0.961 . S
H425 C409 0.960 . S
C426 C427 1.391 . S
C426 C428 1.394 . S
C426 H442 0.931 . S
C427 C426 1.391 . S
C427 C431 1.376 . S
C428 C426 1.394 . S
C428 C429 1.369 . S
C428 C432 1.531 . S
C429 C428 1.369 . S
C429 C430 1.410 . S
C429 C437 1.503 . S
C430 C429 1.410 . S
C430 C431 1.392 . S
C430 C433 1.511 . S
C431 C427 1.376 . S
C431 C430 1.392 . S
C431 H443 0.929 . S
C432 C428 1.531 . S
C432 H444 0.960 . S
C432 H445 0.962 . S
C432 H446 0.960 . S
C433 C430 1.511 . S
C433 H447 0.961 . S
C433 H448 0.961 . S
C433 H449 0.961 . S
C434 C435 1.370 . S
C434 C436 1.363 . S
C434 H450 0.931 . S
C435 C434 1.370 . S
C435 C439 1.408 . S
C436 C434 1.363 . S
C436 C437 1.370 . S
C436 C440 1.524 . S
C437 C429 1.503 . S
C437 C436 1.370 . S
C437 C438 1.403 . S
C438 C437 1.403 . S
C438 C439 1.404 . S
C438 C441 1.539 . S
C439 C435 1.408 . S
C439 C438 1.404 . S
C439 H451 0.930 . S
C440 C436 1.524 . S
C440 H452 0.956 . S
C440 H453 0.961 . S
C440 H454 0.961 . S
C441 C438 1.539 . S
C441 H455 0.958 . S
C441 H456 0.961 . S
C441 H457 0.960 . S
H442 C426 0.931 . S
H443 C431 0.929 . S
H444 C432 0.960 . S
H445 C432 0.962 . S
H446 C432 0.960 . S
H447 C433 0.961 . S
H448 C433 0.961 . S
H449 C433 0.961 . S
H450 C434 0.931 . S
H451 C439 0.930 . S
H452 C440 0.956 . S
H453 C440 0.961 . S
H454 C440 0.961 . S
H455 C441 0.958 . S
H456 C441 0.961 . S
H457 C441 0.960 . S
C458 C459 1.391 . S
C458 C460 1.394 . S
C458 H474 0.931 . S
C459 C458 1.391 . S
C459 C463 1.376 . S
C460 C458 1.394 . S
C460 C461 1.369 . S
C460 C464 1.531 . S
C461 C460 1.369 . S
C461 C462 1.410 . S
C461 C469 1.503 . S
C462 C461 1.410 . S
C462 C463 1.392 . S
C462 C465 1.511 . S
C463 C459 1.376 . S
C463 C462 1.392 . S
C463 H475 0.929 . S
C464 C460 1.531 . S
C464 H476 0.960 . S
C464 H477 0.962 . S
C464 H478 0.960 . S
C465 C462 1.511 . S
C465 H479 0.961 . S
C465 H480 0.961 . S
C465 H481 0.961 . S
C466 C467 1.370 . S
C466 C468 1.363 . S
C466 H482 0.931 . S
C467 C466 1.370 . S
C467 C471 1.408 . S
C468 C466 1.363 . S
C468 C469 1.370 . S
C468 C472 1.524 . S
C469 C461 1.503 . S
C469 C468 1.370 . S
C469 C470 1.403 . S
C470 C469 1.403 . S
C470 C471 1.404 . S
C470 C473 1.539 . S
C471 C467 1.408 . S
C471 C470 1.404 . S
C471 H483 0.930 . S
C472 C468 1.524 . S
C472 H484 0.956 . S
C472 H485 0.961 . S
C472 H486 0.961 . S
C473 C470 1.539 . S
C473 H487 0.958 . S
C473 H488 0.961 . S
C473 H489 0.960 . S
H474 C458 0.931 . S
H475 C463 0.929 . S
H476 C464 0.960 . S
H477 C464 0.962 . S
H478 C464 0.960 . S
H479 C465 0.961 . S
H480 C465 0.961 . S
H481 C465 0.961 . S
H482 C466 0.931 . S
H483 C471 0.930 . S
H484 C472 0.956 . S
H485 C472 0.961 . S
H486 C472 0.961 . S
H487 C473 0.958 . S
H488 C473 0.961 . S
H489 C473 0.960 . S
C490 C491 1.391 . S
C490 C492 1.394 . S
C490 H506 0.931 . S
C491 C490 1.391 . S
C491 C495 1.376 . S
C492 C490 1.394 . S
C492 C493 1.369 . S
C492 C496 1.531 . S
C493 C492 1.369 . S
C493 C494 1.410 . S
C493 C501 1.503 . S
C494 C493 1.410 . S
C494 C495 1.392 . S
C494 C497 1.511 . S
C495 C491 1.376 . S
C495 C494 1.392 . S
C495 H507 0.929 . S
C496 C492 1.531 . S
C496 H508 0.960 . S
C496 H509 0.962 . S
C496 H510 0.960 . S
C497 C494 1.511 . S
C497 H511 0.961 . S
C497 H512 0.961 . S
C497 H513 0.961 . S
C498 C499 1.370 . S
C498 C500 1.363 . S
C498 H514 0.931 . S
C499 C498 1.370 . S
C499 C503 1.408 . S
C500 C498 1.363 . S
C500 C501 1.370 . S
C500 C504 1.524 . S
C501 C493 1.503 . S
C501 C500 1.370 . S
C501 C502 1.403 . S
C502 C501 1.403 . S
C502 C503 1.404 . S
C502 C505 1.539 . S
C503 C499 1.408 . S
C503 C502 1.404 . S
C503 H515 0.930 . S
C504 C500 1.524 . S
C504 H516 0.956 . S
C504 H517 0.961 . S
C504 H518 0.961 . S
C505 C502 1.539 . S
C505 H519 0.958 . S
C505 H520 0.961 . S
C505 H521 0.960 . S
H506 C490 0.931 . S
H507 C495 0.929 . S
H508 C496 0.960 . S
H509 C496 0.962 . S
H510 C496 0.960 . S
H511 C497 0.961 . S
H512 C497 0.961 . S
H513 C497 0.961 . S
H514 C498 0.931 . S
H515 C503 0.930 . S
H516 C504 0.956 . S
H517 C504 0.961 . S
H518 C504 0.961 . S
H519 C505 0.958 . S
H520 C505 0.961 . S
H521 C505 0.960 . S
C522 C523 1.391 . S
C522 C524 1.394 . S
C522 H538 0.931 . S
C523 C522 1.391 . S
C523 C527 1.376 . S
C524 C522 1.394 . S
C524 C525 1.369 . S
C524 C528 1.531 . S
C525 C524 1.369 . S
C525 C526 1.410 . S
C525 C533 1.503 . S
C526 C525 1.410 . S
C526 C527 1.392 . S
C526 C529 1.511 . S
C527 C523 1.376 . S
C527 C526 1.392 . S
C527 H539 0.929 . S
C528 C524 1.531 . S
C528 H540 0.960 . S
C528 H541 0.962 . S
C528 H542 0.960 . S
C529 C526 1.511 . S
C529 H543 0.961 . S
C529 H544 0.961 . S
C529 H545 0.961 . S
C530 C531 1.370 . S
C530 C532 1.363 . S
C530 H546 0.931 . S
C531 C530 1.370 . S
C531 C535 1.408 . S
C532 C530 1.363 . S
C532 C533 1.370 . S
C532 C536 1.524 . S
C533 C525 1.503 . S
C533 C532 1.370 . S
C533 C534 1.403 . S
C534 C533 1.403 . S
C534 C535 1.404 . S
C534 C537 1.539 . S
C535 C531 1.408 . S
C535 C534 1.404 . S
C535 H547 0.930 . S
C536 C532 1.524 . S
C536 H548 0.956 . S
C536 H549 0.961 . S
C536 H550 0.961 . S
C537 C534 1.539 . S
C537 H551 0.958 . S
C537 H552 0.961 . S
C537 H553 0.960 . S
H538 C522 0.931 . S
H539 C527 0.929 . S
H540 C528 0.960 . S
H541 C528 0.962 . S
H542 C528 0.960 . S
H543 C529 0.961 . S
H544 C529 0.961 . S
H545 C529 0.961 . S
H546 C530 0.931 . S
H547 C535 0.930 . S
H548 C536 0.956 . S
H549 C536 0.961 . S
H550 C536 0.961 . S
H551 C537 0.958 . S
H552 C537 0.961 . S
H553 C537 0.960 . S
C554 C555 1.391 . S
C554 C556 1.394 . S
C554 H570 0.931 . S
C555 C554 1.391 . S
C555 C559 1.376 . S
C556 C554 1.394 . S
C556 C557 1.369 . S
C556 C560 1.531 . S
C557 C556 1.369 . S
C557 C558 1.410 . S
C557 C565 1.503 . S
C558 C557 1.410 . S
C558 C559 1.392 . S
C558 C561 1.511 . S
C559 C555 1.376 . S
C559 C558 1.392 . S
C559 H571 0.929 . S
C560 C556 1.531 . S
C560 H572 0.960 . S
C560 H573 0.962 . S
C560 H574 0.960 . S
C561 C558 1.511 . S
C561 H575 0.961 . S
C561 H576 0.961 . S
C561 H577 0.961 . S
C562 C563 1.370 . S
C562 C564 1.363 . S
C562 H578 0.931 . S
C563 C562 1.370 . S
C563 C567 1.408 . S
C564 C562 1.363 . S
C564 C565 1.370 . S
C564 C568 1.524 . S
C565 C557 1.503 . S
C565 C564 1.370 . S
C565 C566 1.403 . S
C566 C565 1.403 . S
C566 C567 1.404 . S
C566 C569 1.539 . S
C567 C563 1.408 . S
C567 C566 1.404 . S
C567 H579 0.930 . S
C568 C564 1.524 . S
C568 H580 0.956 . S
C568 H581 0.961 . S
C568 H582 0.961 . S
C569 C566 1.539 . S
C569 H583 0.958 . S
C569 H584 0.961 . S
C569 H585 0.960 . S
H570 C554 0.931 . S
H571 C559 0.929 . S
H572 C560 0.960 . S
H573 C560 0.962 . S
H574 C560 0.960 . S
H575 C561 0.961 . S
H576 C561 0.961 . S
H577 C561 0.961 . S
H578 C562 0.931 . S
H579 C567 0.930 . S
H580 C568 0.956 . S
H581 C568 0.961 . S
H582 C568 0.961 . S
H583 C569 0.958 . S
H584 C569 0.961 . S
H585 C569 0.960 . S
C586 C587 1.391 . S
C586 C588 1.394 . S
C586 H602 0.931 . S
C587 C586 1.391 . S
C587 C591 1.376 . S
C588 C586 1.394 . S
C588 C589 1.369 . S
C588 C592 1.531 . S
C589 C588 1.369 . S
C589 C590 1.410 . S
C589 C597 1.503 . S
C590 C589 1.410 . S
C590 C591 1.392 . S
C590 C593 1.511 . S
C591 C587 1.376 . S
C591 C590 1.392 . S
C591 H603 0.929 . S
C592 C588 1.531 . S
C592 H604 0.960 . S
C592 H605 0.962 . S
C592 H606 0.960 . S
C593 C590 1.511 . S
C593 H607 0.961 . S
C593 H608 0.961 . S
C593 H609 0.961 . S
C594 C595 1.370 . S
C594 C596 1.363 . S
C594 H610 0.931 . S
C595 C594 1.370 . S
C595 C599 1.408 . S
C596 C594 1.363 . S
C596 C597 1.370 . S
C596 C600 1.524 . S
C597 C589 1.503 . S
C597 C596 1.370 . S
C597 C598 1.403 . S
C598 C597 1.403 . S
C598 C599 1.404 . S
C598 C601 1.539 . S
C599 C595 1.408 . S
C599 C598 1.404 . S
C599 H611 0.930 . S
C600 C596 1.524 . S
C600 H612 0.956 . S
C600 H613 0.961 . S
C600 H614 0.961 . S
C601 C598 1.539 . S
C601 H615 0.958 . S
C601 H616 0.961 . S
C601 H617 0.960 . S
H602 C586 0.931 . S
H603 C591 0.929 . S
H604 C592 0.960 . S
H605 C592 0.962 . S
H606 C592 0.960 . S
H607 C593 0.961 . S
H608 C593 0.961 . S
H609 C593 0.961 . S
H610 C594 0.931 . S
H611 C599 0.930 . S
H612 C600 0.956 . S
H613 C600 0.961 . S
H614 C600 0.961 . S
H615 C601 0.958 . S
H616 C601 0.961 . S
H617 C601 0.960 . S
C618 C619 1.391 . S
C618 C620 1.394 . S
C618 H634 0.931 . S
C619 C618 1.391 . S
C619 C623 1.376 . S
C620 C618 1.394 . S
C620 C621 1.369 . S
C620 C624 1.531 . S
C621 C620 1.369 . S
C621 C622 1.410 . S
C621 C629 1.503 1_554 S
C622 C621 1.410 . S
C622 C623 1.392 . S
C622 C625 1.511 . S
C623 C619 1.376 . S
C623 C622 1.392 . S
C623 H635 0.929 . S
C624 C620 1.531 . S
C624 H636 0.960 . S
C624 H637 0.962 1_455 S
C624 H638 0.960 . S
C625 C622 1.511 . S
C625 H639 0.961 . S
C625 H640 0.961 . S
C625 H641 0.961 . S
C626 C627 1.370 . S
C626 C628 1.363 . S
C626 H642 0.929 1_455 S
C627 C626 1.370 . S
C627 C631 1.408 . S
C628 C626 1.363 . S
C628 C629 1.370 . S
C628 C632 1.524 1_455 S
C629 C621 1.503 1_556 S
C629 C628 1.370 . S
C629 C630 1.403 . S
C630 C629 1.403 . S
C630 C631 1.404 . S
C630 C633 1.539 1_556 S
C631 C627 1.408 . S
C631 C630 1.404 . S
C631 H643 0.930 . S
C632 C628 1.524 1_655 S
C632 H644 0.962 . S
C632 H645 0.961 1_656 S
C632 H646 0.961 . S
C633 C630 1.539 1_554 S
C633 H647 0.958 . S
C633 H648 0.961 1_554 S
C633 H649 0.960 . S
H634 C618 0.931 . S
H635 C623 0.929 . S
H636 C624 0.960 . S
H637 C624 0.962 1_655 S
H638 C624 0.960 . S
H639 C625 0.961 . S
H640 C625 0.961 . S
H641 C625 0.961 . S
H642 C626 0.929 1_655 S
H643 C631 0.930 . S
H644 C632 0.962 . S
H645 C632 0.961 1_454 S
H646 C632 0.961 . S
H647 C633 0.958 . S
H648 C633 0.961 1_556 S
H649 C633 0.960 . S
C650 C651 1.391 . S
C650 C652 1.394 . S
C650 H666 0.931 . S
C651 C650 1.391 . S
C651 C655 1.376 . S
C652 C650 1.394 . S
C652 C653 1.369 . S
C652 C656 1.531 . S
C653 C652 1.369 . S
C653 C654 1.410 . S
C653 C661 1.503 . S
C654 C653 1.410 . S
C654 C655 1.392 . S
C654 C657 1.511 . S
C655 C651 1.376 . S
C655 C654 1.392 . S
C655 H667 0.929 . S
C656 C652 1.531 . S
C656 H668 0.960 . S
C656 H669 0.962 . S
C656 H670 0.960 . S
C657 C654 1.511 . S
C657 H671 0.961 . S
C657 H672 0.961 . S
C657 H673 0.961 . S
C658 C659 1.370 . S
C658 C660 1.363 . S
C658 H674 0.931 . S
C659 C658 1.370 . S
C659 C663 1.408 . S
C660 C658 1.363 . S
C660 C661 1.370 . S
C660 C664 1.524 . S
C661 C653 1.503 . S
C661 C660 1.370 . S
C661 C662 1.403 . S
C662 C661 1.403 . S
C662 C663 1.404 . S
C662 C665 1.539 1_545 S
C663 C659 1.408 . S
C663 C662 1.404 . S
C663 H675 0.930 . S
C664 C660 1.524 . S
C664 H676 0.956 . S
C664 H677 0.961 . S
C664 H678 0.961 . S
C665 C662 1.539 1_565 S
C665 H679 0.958 . S
C665 H680 0.961 . S
C665 H681 0.960 1_565 S
H666 C650 0.931 . S
H667 C655 0.929 . S
H668 C656 0.960 . S
H669 C656 0.962 . S
H670 C656 0.960 . S
H671 C657 0.961 . S
H672 C657 0.961 . S
H673 C657 0.961 . S
H674 C658 0.931 . S
H675 C663 0.930 . S
H676 C664 0.956 . S
H677 C664 0.961 . S
H678 C664 0.961 . S
H679 C665 0.958 . S
H680 C665 0.961 . S
H681 C665 0.960 1_545 S
C682 C683 1.391 . S
C682 C684 1.394 . S
C682 H698 0.931 . S
C683 C682 1.391 . S
C683 C687 1.376 . S
C684 C682 1.394 . S
C684 C685 1.369 . S
C684 C688 1.531 . S
C685 C684 1.369 . S
C685 C686 1.410 . S
C685 C693 1.503 . S
C686 C685 1.410 . S
C686 C687 1.392 . S
C686 C689 1.511 . S
C687 C683 1.376 . S
C687 C686 1.392 . S
C687 H699 0.929 . S
C688 C684 1.531 . S
C688 H700 0.960 . S
C688 H701 0.962 . S
C688 H702 0.960 . S
C689 C686 1.511 . S
C689 H703 0.961 . S
C689 H704 0.961 . S
C689 H705 0.961 . S
C690 C691 1.370 . S
C690 C692 1.363 . S
C690 H706 0.931 . S
C691 C690 1.370 . S
C691 C695 1.408 . S
C692 C690 1.363 . S
C692 C693 1.370 . S
C692 C696 1.524 . S
C693 C685 1.503 . S
C693 C692 1.370 . S
C693 C694 1.403 . S
C694 C693 1.403 . S
C694 C695 1.404 . S
C694 C697 1.539 . S
C695 C691 1.408 . S
C695 C694 1.404 . S
C695 H707 0.930 . S
C696 C692 1.524 . S
C696 H708 0.956 . S
C696 H709 0.961 . S
C696 H710 0.961 . S
C697 C694 1.539 . S
C697 H711 0.958 . S
C697 H712 0.961 . S
C697 H713 0.960 . S
H698 C682 0.931 . S
H699 C687 0.929 . S
H700 C688 0.960 . S
H701 C688 0.962 . S
H702 C688 0.960 . S
H703 C689 0.961 . S
H704 C689 0.961 . S
H705 C689 0.961 . S
H706 C690 0.931 . S
H707 C695 0.930 . S
H708 C696 0.956 . S
H709 C696 0.961 . S
H710 C696 0.961 . S
H711 C697 0.958 . S
H712 C697 0.961 . S
H713 C697 0.960 . S
C714 C715 1.391 . S
C714 C716 1.394 . S
C714 H730 0.931 . S
C715 C714 1.391 . S
C715 C719 1.376 . S
C716 C714 1.394 . S
C716 C717 1.369 . S
C716 C720 1.531 . S
C717 C716 1.369 . S
C717 C718 1.410 . S
C717 C725 1.503 . S
C718 C717 1.410 . S
C718 C719 1.392 . S
C718 C721 1.511 1_545 S
C719 C715 1.376 . S
C719 C718 1.392 . S
C719 H731 0.929 . S
C720 C716 1.531 . S
C720 H732 0.960 . S
C720 H733 0.962 . S
C720 H734 0.960 . S
C721 C718 1.511 1_565 S
C721 H735 0.961 . S
C721 H736 0.961 . S
C721 H737 0.961 1_565 S
C722 C723 1.370 . S
C722 C724 1.363 . S
C722 H738 0.931 . S
C723 C722 1.370 . S
C723 C727 1.408 . S
C724 C722 1.363 . S
C724 C725 1.370 . S
C724 C728 1.524 . S
C725 C717 1.503 . S
C725 C724 1.370 . S
C725 C726 1.403 . S
C726 C725 1.403 . S
C726 C727 1.404 . S
C726 C729 1.539 . S
C727 C723 1.408 . S
C727 C726 1.404 . S
C727 H739 0.930 . S
C728 C724 1.524 . S
C728 H740 0.956 . S
C728 H741 0.961 . S
C728 H742 0.961 . S
C729 C726 1.539 . S
C729 H743 0.958 . S
C729 H744 0.961 . S
C729 H745 0.960 . S
H730 C714 0.931 . S
H731 C719 0.929 . S
H732 C720 0.960 . S
H733 C720 0.962 . S
H734 C720 0.960 . S
H735 C721 0.961 . S
H736 C721 0.961 . S
H737 C721 0.961 1_545 S
H738 C722 0.931 . S
H739 C727 0.930 . S
H740 C728 0.956 . S
H741 C728 0.961 . S
H742 C728 0.961 . S
H743 C729 0.958 . S
H744 C729 0.961 . S
H745 C729 0.960 . S
C746 C747 1.391 . S
C746 C748 1.394 . S
C746 H762 0.931 . S
C747 C746 1.391 . S
C747 C751 1.376 . S
C748 C746 1.394 . S
C748 C749 1.369 . S
C748 C752 1.531 . S
C749 C748 1.369 . S
C749 C750 1.410 . S
C749 C757 1.503 . S
C750 C749 1.410 . S
C750 C751 1.392 . S
C750 C753 1.511 . S
C751 C747 1.376 . S
C751 C750 1.392 . S
C751 H763 0.929 . S
C752 C748 1.531 . S
C752 H764 0.960 . S
C752 H765 0.962 . S
C752 H766 0.960 . S
C753 C750 1.511 . S
C753 H767 0.961 . S
C753 H768 0.961 1_556 S
C753 H769 0.961 . S
C754 C755 1.370 . S
C754 C756 1.363 . S
C754 H770 0.931 . S
C755 C754 1.370 . S
C755 C759 1.408 . S
C756 C754 1.363 . S
C756 C757 1.370 1_554 S
C756 C760 1.524 . S
C757 C749 1.503 . S
C757 C756 1.370 1_556 S
C757 C758 1.403 1_556 S
C758 C757 1.403 1_554 S
C758 C759 1.404 . S
C758 C761 1.539 1_554 S
C759 C755 1.408 . S
C759 C758 1.404 . S
C759 H771 0.930 . S
C760 C756 1.524 . S
C760 H772 0.956 1_554 S
C760 H773 0.961 1_554 S
C760 H774 0.961 . S
C761 C758 1.539 1_556 S
C761 H775 0.958 . S
C761 H776 0.961 1_556 S
C761 H777 0.960 . S
H762 C746 0.931 . S
H763 C751 0.929 . S
H764 C752 0.960 . S
H765 C752 0.962 . S
H766 C752 0.960 . S
H767 C753 0.961 . S
H768 C753 0.961 1_554 S
H769 C753 0.961 . S
H770 C754 0.931 . S
H771 C759 0.930 . S
H772 C760 0.956 1_556 S
H773 C760 0.961 1_556 S
H774 C760 0.961 . S
H775 C761 0.958 . S
H776 C761 0.961 1_554 S
H777 C761 0.960 . S
C778 C779 1.391 . S
C778 C780 1.396 . S
C778 H794 0.931 1_455 S
C779 C778 1.391 . S
C779 C783 1.376 . S
C780 C778 1.396 . S
C780 C781 1.380 . S
C780 C784 1.517 1_455 S
C781 C780 1.380 . S
C781 C782 1.410 . S
C781 C789 1.503 . S
C782 C781 1.410 . S
C782 C783 1.392 . S
C782 C785 1.511 . S
C783 C779 1.376 . S
C783 C782 1.392 . S
C783 H795 0.929 . S
C784 C780 1.517 1_655 S
C784 H796 0.960 . S
C784 H797 0.962 . S
C784 H798 0.960 . S
C785 C782 1.511 . S
C785 H799 0.961 . S
C785 H800 0.961 . S
C785 H801 0.961 . S
C786 C787 1.370 . S
C786 C788 1.363 . S
C786 H802 0.931 . S
C787 C786 1.370 . S
C787 C791 1.408 . S
C788 C786 1.363 . S
C788 C789 1.370 . S
C788 C792 1.524 . S
C789 C781 1.503 . S
C789 C788 1.370 . S
C789 C790 1.403 . S
C790 C789 1.403 . S
C790 C791 1.404 . S
C790 C793 1.539 . S
C791 C787 1.408 . S
C791 C790 1.404 . S
C791 H803 0.930 . S
C792 C788 1.524 . S
C792 H804 0.956 1_455 S
C792 H805 0.961 . S
C792 H806 0.961 . S
C793 C790 1.539 . S
C793 H807 0.958 . S
C793 H808 0.961 . S
C793 H809 0.960 . S
H794 C778 0.931 1_655 S
H795 C783 0.929 . S
H796 C784 0.960 . S
H797 C784 0.962 . S
H798 C784 0.960 . S
H799 C785 0.961 . S
H800 C785 0.961 . S
H801 C785 0.961 . S
H802 C786 0.931 . S
H803 C791 0.930 . S
H804 C792 0.956 1_655 S
H805 C792 0.961 . S
H806 C792 0.961 . S
H807 C793 0.958 . S
H808 C793 0.961 . S
H809 C793 0.960 . S
C235 C25 0.532 . S
C243 C226 0.625 . S
C267 C65 0.207 . S
C275 C188 0.543 . S
C299 C105 0.235 . S
C307 C207 0.502 . S
C331 C4 0.348 . S
C339 C221 0.365 . S
C371 C183 0.245 . S
C363 C44 0.250 . S
C403 C202 0.177 . S
C395 C84 0.129 . S
C427 C60 3.094 . S
C435 C150 2.995 . S
C459 C100 3.032 . S
C467 C164 3.000 1_655 S
C491 C31 3.007 . S
C499 C126 2.960 1_565 S
C531 C145 2.965 . S
C523 C71 3.003 . S
C563 C169 2.972 . S
C555 C111 3.038 . S
C587 C20 3.083 . S
C595 C131 2.994 . S
C627 C160 1.738 . S
C619 C2 1.722 . S
C651 C42 1.734 . S
C659 C122 1.742 . S
C683 C82 1.714 . S
C691 C141 1.737 . S
C723 C198 1.284 . S
C715 C63 1.287 . S
C755 C217 1.353 . S
C747 C103 1.360 . S
C779 C23 1.206 . S
C787 C179 1.265 . S
