# Generated by pormake.
# Topology pyr, (3,6)-cn, num edge types: 1
# Building blocks:
#     Node 0, Type 0, BuildingBlock: QEWDON_clean_linker_0, # of connection points: 3
#     Node 1, Type 0, BuildingBlock: QEWDON_clean_linker_0, # of connection points: 3
#     Node 2, Type 0, BuildingBlock: QEWDON_clean_linker_0, # of connection points: 3
#     Node 3, Type 0, BuildingBlock: QEWDON_clean_linker_0, # of connection points: 3
#     Node 4, Type 0, BuildingBlock: QEWDON_clean_linker_0, # of connection points: 3
#     Node 5, Type 0, BuildingBlock: QEWDON_clean_linker_0, # of connection points: 3
#     Node 6, Type 0, BuildingBlock: QEWDON_clean_linker_0, # of connection points: 3
#     Node 7, Type 0, BuildingBlock: QEWDON_clean_linker_0, # of connection points: 3
#     Node 8, Type 1, BuildingBlock: PAMTOO_clean_sbu_0, # of connection points: 6
#     Node 9, Type 1, BuildingBlock: PAMTOO_clean_sbu_0, # of connection points: 6
#     Node 10, Type 1, BuildingBlock: PAMTOO_clean_sbu_0, # of connection points: 6
#     Node 11, Type 1, BuildingBlock: PAMTOO_clean_sbu_0, # of connection points: 6
#     Edge 12, Type (0, 1), BuildingBlock: MIFKUJ_clean_linker_0, # of connection points: 2
#     Edge 13, Type (0, 1), BuildingBlock: MIFKUJ_clean_linker_0, # of connection points: 2
#     Edge 14, Type (0, 1), BuildingBlock: MIFKUJ_clean_linker_0, # of connection points: 2
#     Edge 15, Type (0, 1), BuildingBlock: MIFKUJ_clean_linker_0, # of connection points: 2
#     Edge 16, Type (0, 1), BuildingBlock: MIFKUJ_clean_linker_0, # of connection points: 2
#     Edge 17, Type (0, 1), BuildingBlock: MIFKUJ_clean_linker_0, # of connection points: 2
#     Edge 18, Type (0, 1), BuildingBlock: MIFKUJ_clean_linker_0, # of connection points: 2
#     Edge 19, Type (0, 1), BuildingBlock: MIFKUJ_clean_linker_0, # of connection points: 2
#     Edge 20, Type (0, 1), BuildingBlock: MIFKUJ_clean_linker_0, # of connection points: 2
#     Edge 21, Type (0, 1), BuildingBlock: MIFKUJ_clean_linker_0, # of connection points: 2
#     Edge 22, Type (0, 1), BuildingBlock: MIFKUJ_clean_linker_0, # of connection points: 2
#     Edge 23, Type (0, 1), BuildingBlock: MIFKUJ_clean_linker_0, # of connection points: 2
#     Edge 24, Type (0, 1), BuildingBlock: MIFKUJ_clean_linker_0, # of connection points: 2
#     Edge 25, Type (0, 1), BuildingBlock: MIFKUJ_clean_linker_0, # of connection points: 2
#     Edge 26, Type (0, 1), BuildingBlock: MIFKUJ_clean_linker_0, # of connection points: 2
#     Edge 27, Type (0, 1), BuildingBlock: MIFKUJ_clean_linker_0, # of connection points: 2
#     Edge 28, Type (0, 1), BuildingBlock: MIFKUJ_clean_linker_0, # of connection points: 2
#     Edge 29, Type (0, 1), BuildingBlock: MIFKUJ_clean_linker_0, # of connection points: 2
#     Edge 30, Type (0, 1), BuildingBlock: MIFKUJ_clean_linker_0, # of connection points: 2
#     Edge 31, Type (0, 1), BuildingBlock: MIFKUJ_clean_linker_0, # of connection points: 2
#     Edge 32, Type (0, 1), BuildingBlock: MIFKUJ_clean_linker_0, # of connection points: 2
#     Edge 33, Type (0, 1), BuildingBlock: MIFKUJ_clean_linker_0, # of connection points: 2
#     Edge 34, Type (0, 1), BuildingBlock: MIFKUJ_clean_linker_0, # of connection points: 2
#     Edge 35, Type (0, 1), BuildingBlock: MIFKUJ_clean_linker_0, # of connection points: 2
# Relax obj value: 0.120
# Max RMSD: 0.248
# Mean RMSD: 0.180
data_MOF--net-pyr--node1-PAMTOO_clean_sbu_0--node2-QEWDON_clean_linker_0--edge1-MIFKUJ_clean_linker_0
_symmetry_space_group_name_H-M    P1
_symmetry_Int_Tables_number       1
_symmetry_cell_setting            triclinic
loop_
_symmetry_equiv_pos_as_xyz
'x, y, z'
_cell_length_a     47.844403
_cell_length_b     50.718783
_cell_length_c     54.549801
_cell_angle_alpha  90.16826
_cell_angle_beta   90.445734
_cell_angle_gamma 111.53101
loop_
_atom_site_label
_atom_site_type_symbol
_atom_site_fract_x
_atom_site_fract_y
_atom_site_fract_z
_atom_type_partial_charge
H0 H 0.36148 0.29409 0.17403 0.0
C1 C 0.34644 0.2855 0.18922 0.0
C2 C 0.34295 0.25868 0.19846 0.0
C3 C 0.33018 0.30107 0.19911 0.0
H4 H 0.32072 0.22706 0.22532 0.0
C5 C 0.32324 0.24764 0.218 0.0
C6 C 0.30727 0.26317 0.22849 0.0
C7 C 0.31052 0.28971 0.21865 0.0
C8 C 0.33464 0.32969 0.18964 0.0
H9 H 0.29879 0.30214 0.22686 0.0
C10 C 0.30985 0.33722 0.18378 0.0
C11 C 0.31409 0.36449 0.17487 0.0
C12 C 0.36383 0.34968 0.18657 0.0
H13 H 0.38326 0.34447 0.19113 0.0
C14 C 0.36821 0.37679 0.17804 0.0
H15 H 0.28735 0.32156 0.18555 0.0
C16 C 0.34361 0.38422 0.17228 0.0
H17 H 0.34777 0.40556 0.16604 0.0
H18 H 0.39079 0.39216 0.17598 0.0
H19 H 0.20933 0.83847 0.74091 0.0
C20 C 0.2229 0.82832 0.73193 0.0
C21 C 0.25172 0.83246 0.74103 0.0
C22 C 0.21136 0.81077 0.71142 0.0
H23 H 0.29125 0.82226 0.7363 0.0
C24 C 0.26898 0.8191 0.72929 0.0
C25 C 0.25771 0.80143 0.70883 0.0
C26 C 0.22877 0.79731 0.69996 0.0
C27 C 0.18064 0.80579 0.70253 0.0
H28 H 0.21967 0.78351 0.68431 0.0
C29 C 0.17331 0.82829 0.69331 0.0
C30 C 0.14379 0.82381 0.68533 0.0
C31 C 0.15846 0.77856 0.70364 0.0
H32 H 0.16377 0.76099 0.71072 0.0
C33 C 0.1291 0.77396 0.69617 0.0
H34 H 0.19089 0.84905 0.69187 0.0
C35 C 0.12171 0.79636 0.68723 0.0
H36 H 0.09859 0.79212 0.68201 0.0
H37 H 0.11195 0.75297 0.69743 0.0
H38 H 0.68271 0.45289 0.86483 0.0
C39 C 0.67445 0.43076 0.87003 0.0
C40 C 0.69273 0.42021 0.88423 0.0
C41 C 0.64489 0.4131 0.8637 0.0
H42 H 0.69465 0.3841 0.90383 0.0
C43 C 0.68118 0.39178 0.8918 0.0
C44 C 0.65172 0.37386 0.88583 0.0
C45 C 0.63385 0.3847 0.87154 0.0
C46 C 0.62376 0.42503 0.85242 0.0
H47 H 0.61092 0.37126 0.867 0.0
C48 C 0.6288 0.43827 0.82922 0.0
C49 C 0.60786 0.44922 0.81933 0.0
C50 C 0.59782 0.42291 0.86545 0.0
H51 H 0.59355 0.41297 0.88331 0.0
C52 C 0.57727 0.43373 0.85579 0.0
H53 H 0.64868 0.43993 0.81897 0.0
C54 C 0.58217 0.44674 0.83296 0.0
H55 H 0.5655 0.45452 0.82573 0.0
H56 H 0.55735 0.43193 0.86601 0.0
H57 H 0.89938 0.76971 0.35131 0.0
C58 C 0.88327 0.75241 0.36133 0.0
C59 C 0.87825 0.75613 0.38624 0.0
C60 C 0.86573 0.72748 0.34867 0.0
H61 H 0.85178 0.73715 0.41771 0.0
C62 C 0.85618 0.73412 0.39865 0.0
C63 C 0.83813 0.70923 0.38636 0.0
C64 C 0.84313 0.70597 0.36129 0.0
C65 C 0.86667 0.72706 0.32148 0.0
H66 H 0.82845 0.6875 0.35132 0.0
C67 C 0.87859 0.70962 0.30819 0.0
C68 C 0.88061 0.71161 0.28232 0.0
C69 C 0.85602 0.74552 0.30871 0.0
H70 H 0.84671 0.75895 0.31854 0.0
C71 C 0.85729 0.74694 0.28325 0.0
H72 H 0.88714 0.6955 0.31789 0.0
C73 C 0.86959 0.73028 0.27016 0.0
H74 H 0.87049 0.73198 0.25036 0.0
H75 H 0.84894 0.76122 0.27362 0.0
H76 H 0.72148 0.78855 0.92321 0.0
C77 C 0.73091 0.80181 0.90751 0.0
C78 C 0.75997 0.80545 0.89969 0.0
C79 C 0.71425 0.81584 0.89557 0.0
H80 H 0.79404 0.825 0.87287 0.0
C81 C 0.77183 0.82256 0.87928 0.0
C82 C 0.75528 0.83629 0.86686 0.0
C83 C 0.72668 0.83333 0.87544 0.0
C84 C 0.68347 0.81148 0.90376 0.0
H85 H 0.71359 0.84366 0.86588 0.0
C86 C 0.67554 0.8347 0.91013 0.0
C87 C 0.64652 0.83039 0.91879 0.0
C88 C 0.66204 0.78389 0.90566 0.0
H89 H 0.66768 0.76573 0.90076 0.0
C90 C 0.63307 0.77951 0.91364 0.0
H91 H 0.69232 0.85596 0.90924 0.0
C92 C 0.62531 0.80254 0.92021 0.0
H93 H 0.60267 0.79853 0.92638 0.0
H94 H 0.61659 0.75818 0.91486 0.0
H95 H 0.84208 0.26775 0.45133 0.0
C96 C 0.82991 0.26528 0.43414 0.0
C97 C 0.83898 0.25329 0.41386 0.0
C98 C 0.80446 0.2729 0.4328 0.0
H99 H 0.8296 0.24078 0.37596 0.0
C100 C 0.82295 0.25011 0.39169 0.0
C101 C 0.79742 0.25745 0.38995 0.0
C102 C 0.78833 0.26882 0.41055 0.0
C103 C 0.79371 0.28341 0.45504 0.0
H104 H 0.76818 0.27378 0.40936 0.0
C105 C 0.78048 0.30403 0.45317 0.0
C106 C 0.76947 0.31323 0.47409 0.0
C107 C 0.79589 0.27228 0.47829 0.0
H108 H 0.80506 0.25583 0.48045 0.0
C109 C 0.78553 0.28172 0.4991 0.0
H110 H 0.77898 0.31315 0.43551 0.0
C111 C 0.77237 0.30201 0.49708 0.0
H112 H 0.76372 0.30833 0.51345 0.0
H113 H 0.78723 0.27291 0.51685 0.0
H114 H 0.42687 0.75846 0.23647 0.0
C115 C 0.40333 0.74858 0.23142 0.0
C116 C 0.39025 0.76271 0.21554 0.0
C117 C 0.38692 0.72062 0.23883 0.0
H118 H 0.3509 0.75943 0.19469 0.0
C119 C 0.36039 0.74877 0.20761 0.0
C120 C 0.34345 0.72089 0.21486 0.0
C121 C 0.35697 0.70716 0.23083 0.0
C122 C 0.40287 0.70305 0.24923 0.0
H123 H 0.34481 0.68541 0.23618 0.0
C124 C 0.40775 0.70126 0.27467 0.0
C125 C 0.42268 0.68357 0.28342 0.0
C126 C 0.41273 0.68707 0.23279 0.0
H127 H 0.40905 0.68809 0.21324 0.0
C128 C 0.42714 0.6695 0.2413 0.0
H129 H 0.40019 0.7136 0.28742 0.0
C130 C 0.432 0.66766 0.26632 0.0
H131 H 0.44277 0.65334 0.27232 0.0
H132 H 0.43443 0.6571 0.22844 0.0
H133 H 0.21319 0.43649 0.75975 0.0
C134 C 0.19902 0.41845 0.74902 0.0
C135 C 0.20671 0.41502 0.72466 0.0
C136 C 0.17473 0.39715 0.76024 0.0
H137 H 0.19452 0.38877 0.69238 0.0
C138 C 0.18893 0.39086 0.71132 0.0
C139 C 0.16503 0.36902 0.72226 0.0
C140 C 0.15797 0.37257 0.74675 0.0
C141 C 0.17044 0.39741 0.78718 0.0
H142 H 0.1405 0.35553 0.75592 0.0
C143 C 0.159 0.41624 0.79887 0.0
C144 C 0.15312 0.41383 0.82433 0.0
C145 C 0.17685 0.37714 0.80125 0.0
H146 H 0.18572 0.36259 0.79268 0.0
C147 C 0.17177 0.37527 0.82639 0.0
H148 H 0.15369 0.43178 0.78817 0.0
C149 C 0.15982 0.3933 0.83783 0.0
H150 H 0.15576 0.39122 0.85738 0.0
H151 H 0.1768 0.35955 0.83703 0.0
Dy152 Dy 0.05509 0.07763 0.53436 0.0
Dy153 Dy 0.99104 0.05341 0.56444 0.0
C154 C 0.04357 0.1101 0.58102 0.0
O155 O 0.06506 0.0568 0.56761 0.0
O156 O 0.01693 0.02723 0.57696 0.0
O157 O 0.10129 0.10666 0.53062 0.0
O158 O 0.08103 0.07367 0.50353 0.0
O159 O 0.9838 0.03229 0.5276 0.0
O160 O 0.03103 0.03213 0.52425 0.0
O161 O 0.98853 0.08861 0.54157 0.0
O162 O 0.02332 0.09113 0.51193 0.0
O163 O 0.94984 0.01836 0.57203 0.0
O164 O 0.95804 0.05959 0.58824 0.0
C165 C 0.04619 0.03446 0.57874 0.0
O166 O 0.05358 0.11274 0.55845 0.0
O167 O 0.0238 0.08603 0.58886 0.0
C168 C 0.11762 0.11633 0.48947 0.0
C169 C 0.14596 0.14994 0.44907 0.0
C170 C 0.16231 0.14986 0.47063 0.0
C171 C 0.14828 0.1331 0.49056 0.0
C172 C 0.1008 0.11754 0.46856 0.0
C173 C 0.11486 0.1341 0.44852 0.0
C174 C 0.10424 0.09616 0.50938 0.0
C175 C 1.00236 0.02114 0.51865 0.0
C176 C 1.00076 0.09741 0.5202 0.0
C177 C 0.92801 0.01886 0.61073 0.0
C178 C 0.9012 0.99157 0.65429 0.0
C179 C 0.89372 0.97745 0.63159 0.0
C180 C 0.90689 0.99101 0.61005 0.0
C181 C 0.93572 0.033 0.63344 0.0
C182 C 0.92238 0.01947 0.65501 0.0
C183 C 0.94049 0.03292 0.58745 0.0
H184 H 0.18613 0.16227 0.47192 0.0
H185 H 0.1616 0.13262 0.50659 0.0
H186 H 0.07701 0.10492 0.46732 0.0
H187 H 0.10157 0.13344 0.43221 0.0
H188 H 0.87719 0.95609 0.6304 0.0
H189 H 0.9003 0.97977 0.59276 0.0
H190 H 0.95188 0.05453 0.63456 0.0
H191 H 0.92876 0.03078 0.67228 0.0
Dy192 Dy 0.495 0.05785 0.04061 0.0
Dy193 Dy 0.55898 0.08455 0.07103 0.0
C194 C 0.50977 0.02508 0.08533 0.0
O195 O 0.48374 0.07493 0.07523 0.0
O196 O 0.53034 0.10789 0.08442 0.0
O197 O 0.44868 0.02923 0.03657 0.0
O198 O 0.4691 0.06135 0.00927 0.0
O199 O 0.56515 0.10522 0.03436 0.0
O200 O 0.5174 0.10393 0.03181 0.0
O201 O 0.56565 0.05251 0.04607 0.0
O202 O 0.52649 0.04431 0.01843 0.0
O203 O 0.59761 0.1216 0.08073 0.0
O204 O 0.59365 0.08029 0.09447 0.0
C205 C 0.50099 0.09785 0.08688 0.0
O206 O 0.49966 0.02259 0.06263 0.0
O207 O 0.52781 0.04971 0.09404 0.0
C208 C 0.43141 0.01895 0.99504 0.0
C209 C 0.40161 0.98176 0.95644 0.0
C210 C 0.4002 0.97174 0.98059 0.0
C211 C 0.41497 0.99017 0.99973 0.0
C212 C 0.43272 0.02888 0.9709 0.0
C213 C 0.41813 0.01051 0.95184 0.0
C214 C 0.44566 0.03925 0.0151 0.0
C215 C 0.5457 0.11545 0.02561 0.0
C216 C 0.55161 0.04152 0.02551 0.0
C217 C 0.61936 0.12065 0.11958 0.0
C218 C 0.64258 0.14636 0.1651 0.0
C219 C 0.6511 0.16155 0.14314 0.0
C220 C 0.63972 0.14878 0.12065 0.0
C221 C 0.61031 0.1055 0.14149 0.0
C222 C 0.62185 0.11824 0.16403 0.0
C223 C 0.60871 0.10758 0.09538 0.0
H224 H 0.38772 0.94965 0.98467 0.0
H225 H 0.41323 0.98192 0.01818 0.0
H226 H 0.4447 0.05104 0.96673 0.0
H227 H 0.41915 0.01902 0.93353 0.0
H228 H 0.66659 0.18338 0.14329 0.0
H229 H 0.647 0.16089 0.104 0.0
H230 H 0.59462 0.08374 0.14124 0.0
H231 H 0.61506 0.10583 0.18056 0.0
Dy232 Dy 0.5133 0.54837 0.54182 0.0
Dy233 Dy 0.52789 0.60946 0.56958 0.0
C234 C 0.54779 0.56136 0.59294 0.0
O235 O 0.47767 0.54046 0.57019 0.0
O236 O 0.47883 0.58575 0.57567 0.0
O237 O 0.50165 0.50303 0.54302 0.0
O238 O 0.51167 0.52489 0.50832 0.0
O239 O 0.50991 0.6135 0.53235 0.0
O240 O 0.48313 0.56682 0.52279 0.0
O241 O 0.57188 0.61077 0.5544 0.0
O242 O 0.55107 0.58083 0.52234 0.0
O243 O 0.5427 0.65515 0.56826 0.0
O244 O 0.53084 0.63344 0.60289 0.0
C245 C 0.46593 0.55825 0.57893 0.0
O246 O 0.54804 0.55137 0.57073 0.0
O247 O 0.53578 0.58039 0.59702 0.0
C248 C 0.5303 0.48853 0.51454 0.0
C249 C 0.57474 0.46638 0.50296 0.0
C250 C 0.57402 0.47773 0.52636 0.0
C251 C 0.55214 0.48886 0.53206 0.0
C252 C 0.53102 0.47729 0.49114 0.0
C253 C 0.55313 0.46639 0.48535 0.0
C254 C 0.50805 0.50151 0.51998 0.0
C255 C 0.4899 0.59403 0.51881 0.0
C256 C 0.57401 0.60079 0.53255 0.0
C257 C 0.51697 0.67254 0.59689 0.0
C258 C 0.47557 0.69722 0.61112 0.0
C259 C 0.46918 0.67836 0.59108 0.0
C260 C 0.48965 0.666 0.58411 0.0
C261 C 0.5238 0.69188 0.61645 0.0
C262 C 0.50326 0.70414 0.62353 0.0
C263 C 0.53699 0.65731 0.59136 0.0
H264 H 0.59062 0.47829 0.54018 0.0
H265 H 0.55248 0.49792 0.55011 0.0
H266 H 0.51461 0.47714 0.47729 0.0
H267 H 0.55305 0.45757 0.46722 0.0
H268 H 0.4479 0.67236 0.58137 0.0
H269 H 0.48381 0.65076 0.56916 0.0
H270 H 0.54469 0.69696 0.62662 0.0
H271 H 0.5089 0.71881 0.63888 0.0
Dy272 Dy 0.02222 0.59576 0.03632 0.0
Dy273 Dy 0.01065 0.53527 0.06415 0.0
C274 C 0.9906 0.58261 0.08895 0.0
O275 O 0.06749 0.60147 0.05178 0.0
O276 O 0.05286 0.56611 0.08073 0.0
O277 O 0.03307 0.64108 0.036 0.0
O278 O 0.02202 0.61705 1.00217 0.0
O279 O 0.04498 0.53843 0.03555 0.0
O280 O 0.03196 0.567 0.0092 0.0
O281 O 0.97496 0.52704 0.03516 0.0
O282 O 0.97284 0.57124 0.03429 0.0
O283 O 0.99896 0.48995 0.06227 0.0
O284 O 0.00807 0.51145 0.09745 0.0
C285 C 0.07293 0.58913 0.07147 0.0
O286 O 0.0098 0.60152 0.07482 0.0
O287 O 0.98283 0.55528 0.08464 0.0
C288 C 0.00497 0.65447 1.00622 0.0
C289 C 0.96213 0.67736 0.99124 0.0
C290 C 0.9552 0.65649 0.00954 0.0
C291 C 0.97643 0.6451 0.01693 0.0
C292 C 0.01208 0.67531 0.9881 0.0
C293 C 0.99086 0.68668 0.98065 0.0
C294 C 0.02666 0.64133 0.01276 0.0
C295 C 0.04482 0.5486 0.01347 0.0
C296 C 0.96099 0.5441 0.02919 0.0
C297 C 0.02582 0.47423 0.09195 0.0
C298 C 0.06985 0.45197 0.10564 0.0
C299 C 0.06679 0.45899 0.08108 0.0
C300 C 0.04516 0.47014 0.07433 0.0
C301 C 0.02826 0.46657 0.11633 0.0
C302 C 0.05009 0.45564 0.12314 0.0
C303 C 0.00446 0.48808 0.08554 0.0
H304 H 0.93344 0.64907 0.01826 0.0
H305 H 0.9705 0.6288 0.03084 0.0
H306 H 0.03388 0.68248 0.97944 0.0
H307 H 0.99677 0.70236 0.96624 0.0
H308 H 0.08123 0.45601 0.06702 0.0
H309 H 0.04395 0.47596 0.05537 0.0
H310 H 0.01374 0.46972 0.13026 0.0
H311 H 0.05201 0.45086 0.14227 0.0
H312 H 0.25152 0.26432 0.23849 0.0
H313 H 0.22114 0.24643 0.2751 0.0
H314 H 0.29024 0.21961 0.30466 0.0
H315 H 0.3207 0.23758 0.26841 0.0
H316 H 0.23522 0.17876 0.30884 0.0
H317 H 0.28128 0.27953 0.32527 0.0
H318 H 0.29296 0.33005 0.31621 0.0
H319 H 0.19885 0.31617 0.31572 0.0
H320 H 0.1866 0.26546 0.32446 0.0
H321 H 0.20098 0.15359 0.43236 0.0
H322 H 0.22539 0.17463 0.39444 0.0
H323 H 0.15049 0.19908 0.37604 0.0
H324 H 0.1264 0.17923 0.41476 0.0
H325 H 0.20288 0.2401 0.36384 0.0
H326 H 0.15652 0.14044 0.35006 0.0
H327 H 0.14406 0.08973 0.35871 0.0
H328 H 0.23719 0.10087 0.35317 0.0
H329 H 0.25028 0.15176 0.34483 0.0
C330 C 0.26029 0.25478 0.25288 0.0
C331 C 0.28846 0.25224 0.25048 0.0
C332 C 0.24291 0.24455 0.27376 0.0
C333 C 0.2535 0.2318 0.29265 0.0
C334 C 0.28155 0.22922 0.29024 0.0
C335 C 0.29888 0.2394 0.26945 0.0
C336 C 0.23547 0.2208 0.31494 0.0
C337 C 0.22838 0.19223 0.32098 0.0
C338 C 0.22564 0.23815 0.33032 0.0
C339 C 0.23302 0.26866 0.32525 0.0
C340 C 0.26307 0.28722 0.32304 0.0
C341 C 0.26979 0.31589 0.318 0.0
C342 C 0.24666 0.3263 0.31532 0.0
C343 C 0.21675 0.30807 0.31776 0.0
C344 C 0.2099 0.27937 0.32277 0.0
C345 C 0.18989 0.16397 0.42059 0.0
C346 C 0.16162 0.16461 0.42667 0.0
C347 C 0.20374 0.17567 0.3987 0.0
C348 C 0.18948 0.18789 0.38215 0.0
C349 C 0.16177 0.18953 0.38846 0.0
C350 C 0.14793 0.17796 0.4105 0.0
C351 C 0.20334 0.19822 0.35806 0.0
C352 C 0.20951 0.22657 0.35161 0.0
C353 C 0.2122 0.18063 0.34216 0.0
C354 C 0.2044 0.14997 0.34699 0.0
C355 C 0.17437 0.13212 0.35084 0.0
C356 C 0.16719 0.10333 0.35567 0.0
C357 C 0.18982 0.0921 0.35653 0.0
C358 C 0.21968 0.10961 0.35251 0.0
C359 C 0.22699 0.13842 0.3477 0.0
H360 H 0.18422 0.06981 0.36028 0.0
H361 H 0.25191 0.3485 0.31141 0.0
H362 H 0.30714 0.87344 0.74769 0.0
H363 H 0.32955 0.89699 0.78607 0.0
H364 H 0.24624 0.85339 0.82344 0.0
H365 H 0.22358 0.82986 0.78489 0.0
H366 H 0.27288 0.90813 0.8393 0.0
H367 H 0.30187 0.8284 0.82717 0.0
H368 H 0.32209 0.79759 0.80409 0.0
H369 H 0.40751 0.866 0.7989 0.0
H370 H 0.38765 0.89738 0.82159 0.0
H371 H 0.34435 0.94209 0.95652 0.0
H372 H 0.31616 0.91385 0.92172 0.0
H373 H 0.39333 0.95112 0.87548 0.0
H374 H 0.42184 0.97869 0.91028 0.0
H375 H 0.36629 0.89528 0.86653 0.0
H376 H 0.33576 0.97578 0.87573 0.0
H377 H 0.31526 0.00677 0.89826 0.0
H378 H 0.23251 0.93641 0.90913 0.0
H379 H 0.25269 0.9049 0.88693 0.0
C380 C 0.29353 0.86908 0.76405 0.0
C381 C 0.26375 0.84962 0.76341 0.0
C382 C 0.30635 0.88249 0.78595 0.0
C383 C 0.28975 0.87643 0.80769 0.0
C384 C 0.25947 0.85821 0.80687 0.0
C385 C 0.24654 0.84488 0.78486 0.0
C386 C 0.30457 0.88822 0.83135 0.0
C387 C 0.29302 0.90496 0.84548 0.0
C388 C 0.331 0.88425 0.83927 0.0
C389 C 0.34318 0.86531 0.82593 0.0
C390 C 0.32491 0.83693 0.82098 0.0
C391 C 0.33632 0.81936 0.80797 0.0
C392 C 0.36605 0.82985 0.79999 0.0
C393 C 0.38448 0.85791 0.80507 0.0
C394 C 0.37316 0.8756 0.81803 0.0
C395 C 0.35545 0.94387 0.93904 0.0
C396 C 0.38524 0.96279 0.93607 0.0
C397 C 0.33924 0.92793 0.91913 0.0
C398 C 0.35251 0.93074 0.89593 0.0
C399 C 0.3826 0.94874 0.89319 0.0
C400 C 0.39879 0.96464 0.91304 0.0
C401 C 0.33499 0.9157 0.87422 0.0
C402 C 0.34599 0.89825 0.86048 0.0
C403 C 0.30805 0.91898 0.86671 0.0
C404 C 0.29585 0.93793 0.87992 0.0
C405 C 0.31327 0.96688 0.88309 0.0
C406 C 0.3017 0.98454 0.89577 0.0
C407 C 0.27263 0.97355 0.90518 0.0
C408 C 0.25504 0.94488 0.90187 0.0
C409 C 0.26653 0.92712 0.88923 0.0
H410 H 0.26371 0.98726 0.91499 0.0
H411 H 0.37484 0.81622 0.78991 0.0
H412 H 0.60301 0.49947 0.80762 0.0
H413 H 0.59808 0.51698 0.76681 0.0
H414 H 0.61478 0.44671 0.73417 0.0
H415 H 0.61976 0.42895 0.77533 0.0
H416 H 0.64065 0.49823 0.7075 0.0
H417 H 0.54559 0.44071 0.73999 0.0
H418 H 0.50545 0.42446 0.77072 0.0
H419 H 0.49582 0.50533 0.76869 0.0
H420 H 0.53636 0.52229 0.73831 0.0
H421 H 0.57093 0.5188 0.59372 0.0
H422 H 0.58623 0.49844 0.62986 0.0
H423 H 0.56632 0.55806 0.67637 0.0
H424 H 0.55086 0.5782 0.64074 0.0
H425 H 0.54119 0.50569 0.6936 0.0
H426 H 0.63908 0.56425 0.66344 0.0
H427 H 0.67908 0.58033 0.63254 0.0
H428 H 0.68233 0.49691 0.62928 0.0
H429 H 0.64204 0.48023 0.65996 0.0
C430 C 0.60618 0.48798 0.79177 0.0
C431 C 0.61142 0.46264 0.7947 0.0
C432 C 0.60331 0.498 0.76843 0.0
C433 C 0.60543 0.48286 0.7474 0.0
C434 C 0.61291 0.45867 0.75014 0.0
C435 C 0.61586 0.4486 0.77365 0.0
C436 C 0.59726 0.49123 0.72297 0.0
C437 C 0.61876 0.49946 0.70429 0.0
C438 C 0.56874 0.49301 0.71877 0.0
C439 C 0.54427 0.48287 0.73704 0.0
C440 C 0.53514 0.45513 0.74627 0.0
C441 C 0.51227 0.44578 0.76361 0.0
C442 C 0.49814 0.46388 0.7717 0.0
C443 C 0.50682 0.49135 0.76244 0.0
C444 C 0.52975 0.50085 0.74516 0.0
C445 C 0.57009 0.52774 0.61163 0.0
C446 C 0.55953 0.55012 0.61424 0.0
C447 C 0.57893 0.51611 0.63229 0.0
C448 C 0.57748 0.52671 0.65592 0.0
C449 C 0.56754 0.54939 0.65841 0.0
C450 C 0.55876 0.56096 0.6379 0.0
C451 C 0.5849 0.51369 0.67835 0.0
C452 C 0.56307 0.50434 0.69668 0.0
C453 C 0.61302 0.51088 0.6821 0.0
C454 C 0.63732 0.52092 0.66377 0.0
C455 C 0.64815 0.54928 0.65598 0.0
C456 C 0.67091 0.55851 0.63854 0.0
C457 C 0.68317 0.53963 0.62889 0.0
C458 C 0.67277 0.51149 0.63674 0.0
C459 C 0.64999 0.50214 0.65416 0.0
H460 H 0.70079 0.54682 0.61539 0.0
H461 H 0.48042 0.45659 0.78511 0.0
H462 H 0.86654 0.65386 0.28018 0.0
H463 H 0.88388 0.62768 0.24952 0.0
H464 H 0.94329 0.70687 0.21956 0.0
H465 H 0.92576 0.73279 0.24973 0.0
H466 H 0.9107 0.67429 0.18419 0.0
H467 H 0.96874 0.66085 0.25272 0.0
H468 H 0.97588 0.64516 0.29425 0.0
H469 H 0.91971 0.55968 0.27555 0.0
H470 H 0.91191 0.57494 0.23398 0.0
H471 H 0.00374 0.63738 0.10383 0.0
H472 H 0.98358 0.65475 0.13845 0.0
H473 H 0.92826 0.56903 0.15732 0.0
H474 H 0.94889 0.55123 0.12265 0.0
H475 H 0.95292 0.59967 0.19817 0.0
H476 H 0.89762 0.61211 0.129 0.0
H477 H 0.89018 0.62729 0.08735 0.0
H478 H 0.93984 0.71404 0.1072 0.0
H479 H 0.94798 0.69935 0.14888 0.0
C480 C 0.88382 0.66555 0.2674 0.0
C481 C 0.89473 0.69535 0.26729 0.0
C482 C 0.89368 0.65061 0.24981 0.0
C483 C 0.91485 0.66525 0.23202 0.0
C484 C 0.92676 0.69501 0.23283 0.0
C485 C 0.91684 0.70983 0.25019 0.0
C486 C 0.92343 0.65012 0.21151 0.0
C487 C 0.92023 0.65819 0.18733 0.0
C488 C 0.93477 0.62826 0.21537 0.0
C489 C 0.93946 0.6191 0.24034 0.0
C490 C 0.9577 0.63875 0.25753 0.0
C491 C 0.96191 0.62993 0.28107 0.0
C492 C 0.94818 0.60146 0.28757 0.0
C493 C 0.93028 0.58174 0.27051 0.0
C494 C 0.92597 0.59046 0.24696 0.0
C495 C 0.98725 0.62207 0.11523 0.0
C496 C 0.97784 0.59282 0.11022 0.0
C497 C 0.97563 0.63212 0.13507 0.0
C498 C 0.95399 0.6133 0.15038 0.0
C499 C 0.94484 0.58402 0.14576 0.0
C500 C 0.95658 0.57388 0.12585 0.0
C501 C 0.94104 0.62454 0.17097 0.0
C502 C 0.94322 0.61565 0.19507 0.0
C503 C 0.9286 0.64562 0.16709 0.0
C504 C 0.92359 0.65458 0.14205 0.0
C505 C 0.90713 0.63441 0.12445 0.0
C506 C 0.90277 0.64293 0.10083 0.0
C507 C 0.91457 0.6716 0.09462 0.0
C508 C 0.93072 0.69183 0.11203 0.0
C509 C 0.93519 0.68342 0.13567 0.0
H510 H 0.91115 0.67816 0.07633 0.0
H511 H 0.95147 0.59467 0.30579 0.0
H512 H 0.40294 0.2778 0.18849 0.0
H513 H 0.43171 0.25072 0.17202 0.0
H514 H 0.35088 0.1758 0.16841 0.0
H515 H 0.32219 0.2027 0.18539 0.0
H516 H 0.39518 0.1623 0.18535 0.0
H517 H 0.38221 0.21591 0.11675 0.0
H518 H 0.3849 0.25895 0.0944 0.0
H519 H 0.48085 0.29306 0.10339 0.0
H520 H 0.47869 0.25036 0.12611 0.0
H521 H 0.44187 0.08134 0.09957 0.0
H522 H 0.41747 0.10901 0.1213 0.0
H523 H 0.50282 0.17799 0.1297 0.0
H524 H 0.52752 0.15049 0.10781 0.0
H525 H 0.45867 0.19539 0.11182 0.0
H526 H 0.47062 0.13882 0.17846 0.0
H527 H 0.46642 0.09426 0.19893 0.0
H528 H 0.37034 0.06407 0.19165 0.0
H529 H 0.37398 0.1083 0.17081 0.0
C530 C 0.39131 0.2556 0.18402 0.0
C531 C 0.36031 0.24238 0.18809 0.0
C532 C 0.40775 0.24013 0.17461 0.0
C533 C 0.39341 0.21127 0.16865 0.0
C534 C 0.36247 0.19801 0.17289 0.0
C535 C 0.34609 0.21339 0.18256 0.0
C536 C 0.41058 0.1949 0.15794 0.0
C537 C 0.40881 0.16941 0.16912 0.0
C538 C 0.42889 0.2044 0.13706 0.0
C539 C 0.43025 0.23007 0.12336 0.0
C540 C 0.40386 0.23268 0.11413 0.0
C541 C 0.40529 0.257 0.10137 0.0
C542 C 0.43302 0.27876 0.09753 0.0
C543 C 0.45939 0.27621 0.10641 0.0
C544 C 0.45807 0.25195 0.11921 0.0
C545 C 0.45557 0.10229 0.10621 0.0
C546 C 0.48667 0.11371 0.10188 0.0
C547 C 0.44157 0.11804 0.11873 0.0
C548 C 0.45836 0.1455 0.12723 0.0
C549 C 0.48947 0.15682 0.1233 0.0
C550 C 0.50355 0.14102 0.11087 0.0
C551 C 0.44312 0.16282 0.13915 0.0
C552 C 0.44522 0.18844 0.12817 0.0
C553 C 0.42488 0.15327 0.16003 0.0
C554 C 0.4226 0.1268 0.17289 0.0
C555 C 0.4486 0.12261 0.18107 0.0
C556 C 0.44632 0.09741 0.19276 0.0
C557 C 0.41814 0.07632 0.19653 0.0
C558 C 0.39216 0.08042 0.1887 0.0
C559 C 0.39432 0.10556 0.17697 0.0
H560 H 0.41642 0.05681 0.20557 0.0
H561 H 0.43408 0.29757 0.08764 0.0
H562 H 0.10307 0.82099 0.64863 0.0
H563 H 0.08953 0.8591 0.63214 0.0
H564 H 0.1551 0.91906 0.67961 0.0
H565 H 0.16683 0.88053 0.69796 0.0
H566 H 0.10912 0.93221 0.67892 0.0
H567 H 0.1655 0.91187 0.61523 0.0
H568 H 0.18068 0.88319 0.58535 0.0
H569 H 0.09462 0.85897 0.54949 0.0
H570 H 0.07872 0.88712 0.57938 0.0
H571 H 0.10169 0.04723 0.6002 0.0
H572 H 0.12144 0.01402 0.61996 0.0
H573 H 0.03758 0.94516 0.60535 0.0
H574 H 0.01742 0.97806 0.58634 0.0
H575 H 0.09818 0.94101 0.58912 0.0
H576 H 0.04233 0.95951 0.65753 0.0
H577 H 0.0307 0.99129 0.68662 0.0
H578 H 0.12234 0.02333 0.71198 0.0
H579 H 0.13458 0.99198 0.68277 0.0
C580 C 0.11433 0.84214 0.65598 0.0
C581 C 0.1361 0.84746 0.67476 0.0
C582 C 0.10693 0.86411 0.64611 0.0
C583 C 0.12177 0.89218 0.65414 0.0
C584 C 0.14345 0.89764 0.67292 0.0
C585 C 0.15042 0.87554 0.68321 0.0
C586 C 0.11399 0.91559 0.64338 0.0
C587 C 0.1073 0.93434 0.65925 0.0
C588 C 0.11141 0.91853 0.61769 0.0
C589 C 0.12083 0.90142 0.59972 0.0
C590 C 0.14971 0.90023 0.6011 0.0
C591 C 0.15846 0.88409 0.58414 0.0
C592 C 0.1386 0.86921 0.56557 0.0
C593 C 0.10997 0.87047 0.5639 0.0
C594 C 0.10108 0.88653 0.58084 0.0
C595 C 0.08742 0.02505 0.60145 0.0
C596 C 0.05798 0.01525 0.59186 0.0
C597 C 0.0987 0.00619 0.61271 0.0
C598 C 0.08088 0.97726 0.61405 0.0
C599 C 0.05156 0.96746 0.60451 0.0
C600 C 0.04007 0.98632 0.59378 0.0
C601 C 0.09294 0.95684 0.62468 0.0
C602 C 0.10045 0.93883 0.60874 0.0
C603 C 0.09684 0.95494 0.65019 0.0
C604 C 0.08945 0.9737 0.66775 0.0
C605 C 0.06007 0.97356 0.66911 0.0
C606 C 0.05334 0.99143 0.68567 0.0
C607 C 0.07579 0.00939 0.70108 0.0
C608 C 0.10499 0.00945 0.7 0.0
C609 C 0.11183 0.99163 0.68346 0.0
H610 H 0.07054 0.02321 0.71389 0.0
H611 H 0.14543 0.85674 0.55245 0.0
H612 H 0.74488 0.41007 0.88416 0.0
H613 H 0.7909 0.43556 0.90733 0.0
H614 H 0.75423 0.49773 0.9298 0.0
H615 H 0.70798 0.47224 0.90649 0.0
H616 H 0.81662 0.52155 0.92165 0.0
H617 H 0.7467 0.4455 0.96684 0.0
H618 H 0.71167 0.39636 0.97298 0.0
H619 H 0.78402 0.36627 0.96429 0.0
H620 H 0.81941 0.41521 0.95763 0.0
H621 H 0.91913 0.56869 0.02272 0.0
H622 H 0.87312 0.55105 0.99786 0.0
H623 H 0.89309 0.47752 0.97774 0.0
H624 H 0.93825 0.49439 1.00344 0.0
H625 H 0.8365 0.4617 0.98617 0.0
H626 H 0.90638 0.53915 0.93961 0.0
H627 H 0.94051 0.5888 0.93426 0.0
H628 H 0.86745 0.61706 0.94664 0.0
H629 H 0.83299 0.5676 0.95249 0.0
C630 C 0.74686 0.4295 0.89362 0.0
C631 C 0.7227 0.439 0.8937 0.0
C632 C 0.77315 0.44403 0.90688 0.0
C633 C 0.77577 0.46824 0.9207 0.0
C634 C 0.75265 0.47905 0.91933 0.0
C635 C 0.72628 0.46451 0.90594 0.0
C636 C 0.80124 0.48034 0.93833 0.0
C637 C 0.82085 0.50862 0.93594 0.0
C638 C 0.80676 0.46343 0.95696 0.0
C639 C 0.78567 0.43401 0.96152 0.0
C640 C 0.75512 0.42839 0.96608 0.0
C641 C 0.73519 0.40057 0.96966 0.0
C642 C 0.7456 0.3782 0.96897 0.0
C643 C 0.77599 0.38362 0.96479 0.0
C644 C 0.796 0.4114 0.96112 0.0
C645 C 0.91358 0.54866 0.01312 0.0
C646 C 0.93237 0.53294 0.01507 0.0
C647 C 0.88736 0.53869 0.99873 0.0
C648 C 0.8798 0.51317 0.98543 0.0
C649 C 0.89833 0.49727 0.98773 0.0
C650 C 0.92421 0.50695 1.00246 0.0
C651 C 0.85267 0.50279 0.96913 0.0
C652 C 0.83247 0.47476 0.97189 0.0
C653 C 0.84662 0.52003 0.95097 0.0
C654 C 0.86717 0.54969 0.94671 0.0
C655 C 0.89763 0.55596 0.94129 0.0
C656 C 0.91704 0.58408 0.9382 0.0
C657 C 0.90618 0.60608 0.94021 0.0
C658 C 0.87585 0.6 0.94516 0.0
C659 C 0.85637 0.57193 0.94835 0.0
H660 H 0.92126 0.62784 0.9379 0.0
H661 H 0.73013 0.35668 0.97172 0.0
H662 H 0.77983 0.68828 0.37033 0.0
H663 H 0.73508 0.66527 0.39512 0.0
H664 H 0.7912 0.66354 0.45684 0.0
H665 H 0.83608 0.68637 0.43204 0.0
H666 H 0.73675 0.61503 0.45415 0.0
H667 H 0.77049 0.71678 0.45295 0.0
H668 H 0.78639 0.76348 0.43301 0.0
H669 H 0.70026 0.73989 0.39733 0.0
H670 H 0.68405 0.69279 0.4167 0.0
H671 H 0.63226 0.61779 0.54934 0.0
H672 H 0.6781 0.63255 0.5243 0.0
H673 H 0.62439 0.62472 0.45891 0.0
H674 H 0.57876 0.60915 0.48357 0.0
H675 H 0.67839 0.67748 0.46464 0.0
H676 H 0.64469 0.57579 0.46518 0.0
H677 H 0.62854 0.52871 0.48447 0.0
H678 H 0.71386 0.55198 0.52139 0.0
H679 H 0.73032 0.59946 0.50266 0.0
C680 C 0.78263 0.68209 0.3889 0.0
C681 C 0.81148 0.68927 0.39927 0.0
C682 C 0.75704 0.66913 0.40312 0.0
C683 C 0.75982 0.66309 0.42796 0.0
C684 C 0.78852 0.66807 0.43776 0.0
C685 C 0.81413 0.68119 0.42359 0.0
C686 C 0.73325 0.65482 0.44429 0.0
C687 C 0.72418 0.6288 0.45666 0.0
C688 C 0.71667 0.67269 0.44743 0.0
C689 C 0.72617 0.70115 0.43607 0.0
C690 C 0.75502 0.72147 0.4407 0.0
C691 C 0.76408 0.74802 0.42952 0.0
C692 C 0.74437 0.75463 0.41387 0.0
C693 C 0.71552 0.73472 0.40943 0.0
C694 C 0.70638 0.70809 0.42051 0.0
C695 C 0.63038 0.61949 0.52965 0.0
C696 C 0.60205 0.61232 0.51835 0.0
C697 C 0.65646 0.62773 0.51539 0.0
C698 C 0.65453 0.62954 0.48976 0.0
C699 C 0.62633 0.62337 0.47863 0.0
C700 C 0.60032 0.61446 0.49274 0.0
C701 C 0.68177 0.63766 0.47434 0.0
C702 C 0.69101 0.66374 0.46219 0.0
C703 C 0.6984 0.61984 0.47144 0.0
C704 C 0.68859 0.59134 0.48279 0.0
C705 C 0.65988 0.57102 0.47765 0.0
C706 C 0.6507 0.54422 0.48842 0.0
C707 C 0.67013 0.53738 0.5042 0.0
C708 C 0.69881 0.55733 0.5092 0.0
C709 C 0.70808 0.58419 0.49852 0.0
H710 H 0.66299 0.5166 0.51248 0.0
H711 H 0.75142 0.7752 0.40523 0.0
H712 H 0.25955 0.34966 0.19791 0.0
H713 H 0.217 0.36308 0.18663 0.0
H714 H 0.26704 0.41123 0.1258 0.0
H715 H 0.30925 0.3972 0.13634 0.0
H716 H 0.23971 0.44091 0.15449 0.0
H717 H 0.21375 0.34978 0.1146 0.0
H718 H 0.20397 0.29856 0.11311 0.0
H719 H 0.13238 0.28298 0.16466 0.0
H720 H 0.14203 0.33419 0.16672 0.0
H721 H 0.12751 0.46957 0.08853 0.0
H722 H 0.16747 0.4533 0.10087 0.0
H723 H 0.10824 0.39632 0.15294 0.0
H724 H 0.06748 0.41132 0.13966 0.0
H725 H 0.13964 0.37072 0.13086 0.0
H726 H 0.16341 0.46001 0.17093 0.0
H727 H 0.17286 0.51103 0.17465 0.0
H728 H 0.24785 0.53022 0.1261 0.0
H729 H 0.23858 0.47924 0.12178 0.0
C730 C 0.2614 0.36277 0.18192 0.0
C731 C 0.28795 0.37237 0.16808 0.0
C732 C 0.2371 0.37054 0.17559 0.0
C733 C 0.23889 0.38811 0.15537 0.0
C734 C 0.26529 0.39778 0.14156 0.0
C735 C 0.28947 0.38984 0.14772 0.0
C736 C 0.21339 0.3967 0.14864 0.0
C737 C 0.21791 0.42563 0.14904 0.0
C738 C 0.18473 0.37664 0.14233 0.0
C739 C 0.17883 0.34585 0.14102 0.0
C740 C 0.1961 0.33546 0.12578 0.0
C741 C 0.19054 0.30642 0.1248 0.0
C742 C 0.16762 0.28753 0.13883 0.0
C743 C 0.15016 0.29764 0.15383 0.0
C744 C 0.15564 0.32666 0.1549 0.0
C745 C 0.12274 0.45325 0.10233 0.0
C746 C 0.09418 0.44179 0.11309 0.0
C747 C 0.14581 0.44424 0.10963 0.0
C748 C 0.14107 0.42395 0.12817 0.0
C749 C 0.1125 0.41213 0.1387 0.0
C750 C 0.08929 0.42095 0.13125 0.0
C751 C 0.16595 0.41507 0.13645 0.0
C752 C 0.16136 0.38607 0.13639 0.0
C753 C 0.19448 0.43507 0.14339 0.0
C754 C 0.20013 0.46577 0.14587 0.0
C755 C 0.18177 0.47508 0.16089 0.0
C756 C 0.18711 0.504 0.16312 0.0
C757 C 0.2109 0.52384 0.15058 0.0
C758 C 0.2294 0.51481 0.13577 0.0
C759 C 0.22413 0.48591 0.13344 0.0
H760 H 0.21505 0.5462 0.15244 0.0
H761 H 0.16335 0.26506 0.13804 0.0
H762 H 0.59555 0.34682 0.90497 0.0
H763 H 0.57659 0.3014 0.92612 0.0
H764 H 0.66052 0.29033 0.91365 0.0
H765 H 0.67923 0.33524 0.89152 0.0
H766 H 0.61496 0.24088 0.90841 0.0
H767 H 0.64598 0.31467 0.96867 0.0
H768 H 0.64809 0.35883 0.98903 0.0
H769 H 0.55345 0.32203 1.00322 0.0
H770 H 0.5507 0.27776 0.9826 0.0
H771 H 0.60084 0.14091 1.00446 0.0
H772 H 0.61767 0.1832 0.97868 0.0
H773 H 0.5307 0.18984 0.98489 0.0
H774 H 0.51363 0.14753 0.01059 0.0
H775 H 0.57789 0.2411 0.99309 0.0
H776 H 0.54878 0.16594 0.93292 0.0
H777 H 0.54932 0.12208 0.91367 0.0
H778 H 0.64403 0.16206 0.90093 0.0
H779 H 0.64413 0.20605 0.92044 0.0
C780 C 0.60978 0.33448 0.90619 0.0
C781 C 0.63903 0.34485 0.89658 0.0
C782 C 0.59901 0.30861 0.91858 0.0
C783 C 0.61731 0.29264 0.92192 0.0
C784 C 0.64602 0.30231 0.91147 0.0
C785 C 0.65677 0.32813 0.89897 0.0
C786 C 0.60695 0.26647 0.93709 0.0
C787 C 0.60716 0.24102 0.92701 0.0
C788 C 0.59649 0.26648 0.96133 0.0
C789 C 0.59807 0.293 0.97386 0.0
C790 C 0.62557 0.31607 0.97596 0.0
C791 C 0.62689 0.34111 0.98758 0.0
C792 C 0.6009 0.34326 0.99736 0.0
C793 C 0.57355 0.32034 0.9956 0.0
C794 C 0.5721 0.29526 0.98396 0.0
C795 C 0.58524 0.1513 1.00029 0.0
C796 C 0.55585 0.14078 0.00958 0.0
C797 C 0.59488 0.17543 0.98547 0.0
C798 C 0.57538 0.1896 0.97972 0.0
C799 C 0.54611 0.17923 0.98907 0.0
C800 C 0.53636 0.15497 1.0037 0.0
C801 C 0.58567 0.21553 0.96433 0.0
C802 C 0.58556 0.24096 0.97444 0.0
C803 C 0.59659 0.21555 0.94028 0.0
C804 C 0.59652 0.1892 0.92835 0.0
C805 C 0.56977 0.16531 0.92619 0.0
C806 C 0.56995 0.14043 0.9152 0.0
C807 C 0.59671 0.13926 0.90614 0.0
C808 C 0.62332 0.16299 0.90798 0.0
C809 C 0.62327 0.18791 0.91898 0.0
H810 H 0.5968 0.11997 0.89765 0.0
H811 H 0.60196 0.36266 1.00635 0.0
H812 H 0.85201 0.78524 0.41402 0.0
H813 H 0.87583 0.83088 0.43464 0.0
H814 H 0.96205 0.83655 0.40706 0.0
H815 H 0.9382 0.79037 0.38639 0.0
H816 H 0.96339 0.85143 0.45728 0.0
H817 H 0.92876 0.87538 0.38096 0.0
H818 H 0.89174 0.87136 0.34808 0.0
H819 H 0.8355 0.89278 0.39919 0.0
H820 H 0.87199 0.89652 0.43248 0.0
H821 H 0.03498 0.99563 0.49354 0.0
H822 H 0.01622 0.95186 0.46944 0.0
H823 H 0.92509 0.94343 0.48507 0.0
H824 H 0.94371 0.98762 0.50874 0.0
H825 H 0.92911 0.93054 0.43887 0.0
H826 H 0.96142 0.90453 0.51549 0.0
H827 H 0.99713 0.90771 0.54924 0.0
H828 H 0.05616 0.8891 0.49902 0.0
H829 H 0.02103 0.88629 0.46486 0.0
C830 C 0.8761 0.79601 0.4125 0.0
C831 C 0.89327 0.78405 0.3987 0.0
C832 C 0.88965 0.82224 0.42416 0.0
C833 C 0.9207 0.83724 0.42229 0.0
C834 C 0.93804 0.82533 0.40873 0.0
C835 C 0.9244 0.79907 0.39683 0.0
C836 C 0.93468 0.86542 0.43448 0.0
C837 C 0.95633 0.86893 0.45298 0.0
C838 C 0.9249 0.888 0.42929 0.0
C839 C 0.90301 0.88601 0.40926 0.0
C840 C 0.9084 0.87903 0.38524 0.0
C841 C 0.88752 0.87683 0.36652 0.0
C842 C 0.86126 0.88175 0.37156 0.0
C843 C 0.85585 0.88895 0.39532 0.0
C844 C 0.87664 0.89114 0.41412 0.0
C845 C 0.01092 0.98454 0.49181 0.0
C846 C 0.99086 0.99513 0.50319 0.0
C847 C 1.00022 0.95938 0.4781 0.0
C848 C 0.96921 0.94399 0.47573 0.0
C849 C 0.94911 0.95483 0.48665 0.0
C850 C 0.9598 0.98012 0.50022 0.0
C851 C 0.95766 0.91658 0.46194 0.0
C852 C 0.93641 0.91318 0.44311 0.0
C853 C 0.96767 0.89404 0.467 0.0
C854 C 0.98873 0.8955 0.48756 0.0
C855 C 0.98212 0.90133 0.5116 0.0
C856 C 1.00225 0.90304 0.53081 0.0
C857 C 0.02894 0.89868 0.52627 0.0
C858 C 0.03551 0.89253 0.50251 0.0
C859 C 0.01549 0.89087 0.48321 0.0
H860 H 0.04449 0.90001 0.54117 0.0
H861 H 0.84512 0.88004 0.35704 0.0
H862 H 0.26782 0.79751 0.65983 0.0
H863 H 0.30313 0.77873 0.64104 0.0
H864 H 0.32548 0.75547 0.7125 0.0
H865 H 0.29031 0.77408 0.73129 0.0
H866 H 0.37499 0.78518 0.68738 0.0
H867 H 0.28324 0.70554 0.67159 0.0
H868 H 0.23172 0.68177 0.65549 0.0
H869 H 0.26226 0.7083 0.58259 0.0
H870 H 0.31393 0.73256 0.59831 0.0
H871 H 0.4586 0.70082 0.6582 0.0
H872 H 0.4204 0.71837 0.67258 0.0
H873 H 0.40264 0.73643 0.59807 0.0
H874 H 0.44076 0.71857 0.58352 0.0
H875 H 0.35129 0.71163 0.62218 0.0
H876 H 0.44323 0.78975 0.63748 0.0
H877 H 0.49482 0.81377 0.65335 0.0
H878 H 0.46407 0.791 0.72683 0.0
H879 H 0.41234 0.76648 0.71137 0.0
C880 C 0.27989 0.78791 0.67144 0.0
C881 C 0.27652 0.78746 0.69703 0.0
C882 C 0.30007 0.77725 0.66071 0.0
C883 C 0.31696 0.76574 0.67539 0.0
C884 C 0.31285 0.76445 0.70085 0.0
C885 C 0.29279 0.77513 0.71156 0.0
C886 C 0.3401 0.75635 0.66456 0.0
C887 C 0.36974 0.76885 0.67333 0.0
C888 C 0.33342 0.73576 0.64564 0.0
C889 C 0.30239 0.72113 0.63617 0.0
C890 C 0.27893 0.70651 0.65215 0.0
C891 C 0.2497 0.69291 0.64309 0.0
C892 C 0.2437 0.6936 0.61804 0.0
C893 C 0.26693 0.70782 0.60199 0.0
C894 C 0.29619 0.72149 0.61097 0.0
C895 C 0.44682 0.70884 0.6449 0.0
C896 C 0.45286 0.70857 0.61975 0.0
C897 C 0.42495 0.71882 0.65313 0.0
C898 C 0.40896 0.7291 0.63643 0.0
C899 C 0.41474 0.72863 0.61128 0.0
C900 C 0.4365 0.71844 0.603 0.0
C901 C 0.38608 0.7401 0.64534 0.0
C902 C 0.35656 0.72804 0.63616 0.0
C903 C 0.39286 0.7612 0.66385 0.0
C904 C 0.42394 0.77607 0.67323 0.0
C905 C 0.4475 0.78969 0.65701 0.0
C906 C 0.47676 0.80342 0.66594 0.0
C907 C 0.48273 0.80386 0.69108 0.0
C908 C 0.45942 0.79062 0.70736 0.0
C909 C 0.43012 0.77683 0.69853 0.0
H910 H 0.5054 0.8145 0.69795 0.0
H911 H 0.22106 0.68305 0.61106 0.0
H912 H 0.75699 0.88932 0.85485 0.0
H913 H 0.78093 0.9176 0.81908 0.0
H914 H 0.80557 0.8488 0.79288 0.0
H915 H 0.78204 0.82073 0.82855 0.0
H916 H 0.85205 0.89673 0.79091 0.0
H917 H 0.74827 0.86517 0.76622 0.0
H918 H 0.69479 0.85849 0.77018 0.0
H919 H 0.71818 0.94867 0.77321 0.0
H920 H 0.77187 0.95589 0.7696 0.0
H921 H 0.89122 0.93724 0.66831 0.0
H922 H 0.86579 0.91302 0.70512 0.0
H923 H 0.85295 0.98905 0.72858 0.0
H924 H 0.87797 0.01332 0.69149 0.0
H925 H 0.80152 0.94079 0.73327 0.0
H926 H 0.90586 0.97148 0.75561 0.0
H927 H 0.95879 0.97686 0.75024 0.0
H928 H 0.93346 0.8864 0.75042 0.0
H929 H 0.88029 0.88047 0.75543 0.0
C930 C 0.76723 0.88019 0.84128 0.0
C931 C 0.76786 0.85294 0.84455 0.0
C932 C 0.78089 0.89632 0.82087 0.0
C933 C 0.79501 0.88529 0.80326 0.0
C934 C 0.79504 0.85785 0.8063 0.0
C935 C 0.78161 0.84184 0.8267 0.0
C936 C 0.81069 0.90249 0.78202 0.0
C937 C 0.84086 0.9061 0.77818 0.0
C938 C 0.79637 0.91535 0.76574 0.0
C939 C 0.76412 0.91106 0.76793 0.0
C940 C 0.74203 0.88357 0.76796 0.0
C941 C 0.71168 0.87969 0.77009 0.0
C942 C 0.7031 0.90314 0.77203 0.0
C943 C 0.72486 0.93053 0.77176 0.0
C944 C 0.75526 0.93453 0.76965 0.0
C945 C 0.88288 0.94877 0.68126 0.0
C946 C 0.88662 0.9772 0.67704 0.0
C947 C 0.86853 0.93497 0.70234 0.0
C948 C 0.85771 0.94932 0.71965 0.0
C949 C 0.86122 0.97764 0.71546 0.0
C950 C 0.87573 0.99153 0.6944 0.0
C951 C 0.84263 0.93459 0.74206 0.0
C952 C 0.81267 0.93153 0.74613 0.0
C953 C 0.85704 0.92202 0.75848 0.0
C954 C 0.88905 0.92554 0.75569 0.0
C955 C 0.91154 0.95273 0.75433 0.0
C956 C 0.9416 0.95588 0.75137 0.0
C957 C 0.94948 0.93198 0.74993 0.0
C958 C 0.92732 0.90489 0.75151 0.0
C959 C 0.89723 0.90162 0.75444 0.0
H960 H 0.97276 0.93447 0.74763 0.0
H961 H 0.67959 0.90009 0.77367 0.0
H962 H 0.7364 0.23183 0.38585 0.0
H963 H 0.70654 0.21625 0.34827 0.0
H964 H 0.78681 0.25141 0.30512 0.0
H965 H 0.81675 0.26763 0.34264 0.0
H966 H 0.73879 0.26074 0.28423 0.0
H967 H 0.76043 0.18272 0.31833 0.0
H968 H 0.76127 0.14927 0.35079 0.0
H969 H 0.66497 0.11842 0.35447 0.0
H970 H 0.66361 0.15204 0.32227 0.0
H971 H 0.70081 0.18082 0.1745 0.0
H972 H 0.72296 0.20269 0.21339 0.0
H973 H 0.63741 0.16335 0.24872 0.0
H974 H 0.61478 0.14173 0.20963 0.0
H975 H 0.68381 0.15708 0.27481 0.0
H976 H 0.66231 0.23265 0.23758 0.0
H977 H 0.66224 0.2659 0.20472 0.0
H978 H 0.75869 0.30114 0.20638 0.0
H979 H 0.75937 0.26781 0.23901 0.0
C980 C 0.7476 0.2368 0.36834 0.0
C981 C 0.77894 0.25083 0.36717 0.0
C982 C 0.73054 0.22769 0.34691 0.0
C983 C 0.74454 0.23236 0.32396 0.0
C984 C 0.7756 0.24753 0.32267 0.0
C985 C 0.79269 0.2566 0.34409 0.0
C986 C 0.72718 0.21999 0.30141 0.0
C987 C 0.72693 0.23808 0.28207 0.0
C988 C 0.71118 0.19046 0.29886 0.0
C989 C 0.71194 0.17012 0.31811 0.0
C990 C 0.73945 0.16897 0.32621 0.0
C991 C 0.74002 0.14996 0.34453 0.0
C992 C 0.71319 0.13179 0.35473 0.0
C993 C 0.68574 0.13255 0.34658 0.0
C994 C 0.68505 0.15157 0.32829 0.0
C995 C 0.68652 0.17714 0.19041 0.0
C996 C 0.65594 0.15965 0.18887 0.0
C997 C 0.69927 0.18962 0.21266 0.0
C998 C 0.68174 0.18492 0.23386 0.0
C999 C 0.65129 0.16728 0.23253 0.0
C1000 C 0.63845 0.15485 0.21021 0.0
C1001 C 0.69562 0.19779 0.2575 0.0
C1002 C 0.69531 0.17979 0.27705 0.0
C1003 C 0.71118 0.22738 0.26019 0.0
C1004 C 0.71088 0.24755 0.24061 0.0
C1005 C 0.68352 0.24733 0.23081 0.0
C1006 C 0.68337 0.26623 0.21224 0.0
C1007 C 0.71044 0.28558 0.20343 0.0
C1008 C 0.73773 0.28612 0.21321 0.0
C1009 C 0.73801 0.26725 0.23176 0.0
H1010 H 0.71028 0.30019 0.18906 0.0
H1011 H 0.71368 0.11708 0.36891 0.0
H1012 H 0.4738 0.68178 0.30461 0.0
H1013 H 0.48099 0.66891 0.34641 0.0
H1014 H 0.39295 0.66728 0.36525 0.0
H1015 H 0.38494 0.6787 0.32267 0.0
H1016 H 0.48506 0.68906 0.38901 0.0
H1017 H 0.36256 0.61753 0.40969 0.0
H1018 H 0.31614 0.58857 0.38761 0.0
H1019 H 0.36847 0.5769 0.32787 0.0
H1020 H 0.41517 0.60548 0.34973 0.0
H1021 H 0.48652 0.64602 0.51126 0.0
H1022 H 0.4706 0.66347 0.47405 0.0
H1023 H 0.44891 0.58144 0.43992 0.0
H1024 H 0.46386 0.56356 0.47749 0.0
H1025 H 0.40978 0.6028 0.4252 0.0
H1026 H 0.51715 0.6374 0.4302 0.0
H1027 H 0.56695 0.66158 0.44935 0.0
H1028 H 0.5509 0.73947 0.45206 0.0
H1029 H 0.50078 0.71561 0.43323 0.0
C1030 C 0.45587 0.67867 0.31759 0.0
C1031 C 0.42852 0.68072 0.31007 0.0
C1032 C 0.46014 0.67152 0.34166 0.0
C1033 C 0.43734 0.66648 0.35909 0.0
C1034 C 0.41068 0.67036 0.3521 0.0
C1035 C 0.40625 0.67728 0.32779 0.0
C1036 C 0.44147 0.65612 0.38404 0.0
C1037 C 0.46841 0.67034 0.39695 0.0
C1038 C 0.42018 0.63132 0.39443 0.0
C1039 C 0.39229 0.61393 0.38121 0.0
C1040 C 0.36413 0.60873 0.39186 0.0
C1041 C 0.33778 0.59239 0.37939 0.0
C1042 C 0.33935 0.581 0.35631 0.0
C1043 C 0.36728 0.58583 0.3457 0.0
C1044 C 0.39369 0.60211 0.35811 0.0
C1045 C 0.478 0.63156 0.49595 0.0
C1046 C 0.47674 0.60344 0.4973 0.0
C1047 C 0.469 0.64162 0.4746 0.0
C1048 C 0.45916 0.62403 0.45385 0.0
C1049 C 0.45649 0.59553 0.45558 0.0
C1050 C 0.46508 0.58531 0.4771 0.0
C1051 C 0.45336 0.63572 0.43002 0.0
C1052 C 0.42618 0.62177 0.41738 0.0
C1053 C 0.47489 0.66018 0.41941 0.0
C1054 C 0.5051 0.67465 0.43055 0.0
C1055 C 0.52416 0.65964 0.43503 0.0
C1056 C 0.55245 0.67329 0.44581 0.0
C1057 C 0.56205 0.70203 0.45197 0.0
C1058 C 0.54341 0.71719 0.44731 0.0
C1059 C 0.51506 0.70363 0.43658 0.0
H1060 H 0.58396 0.71256 0.46032 0.0
H1061 H 0.31894 0.56838 0.34667 0.0
H1062 H 0.17531 0.47162 0.83064 0.0
H1063 H 0.15703 0.49885 0.85964 0.0
H1064 H 0.0823 0.42272 0.87768 0.0
H1065 H 0.10048 0.39572 0.84889 0.0
H1066 H 0.06485 0.46783 0.87659 0.0
H1067 H 0.14509 0.44407 0.91248 0.0
H1068 H 0.19642 0.44361 0.9146 0.0
H1069 H 0.23298 0.5346 0.91694 0.0
H1070 H 0.18183 0.53559 0.91447 0.0
H1071 H 0.07206 0.50934 0.01437 0.0
H1072 H 0.09074 0.49022 0.97957 0.0
H1073 H 0.0663 0.54491 0.93055 0.0
H1074 H 0.0473 0.56391 0.96511 0.0
H1075 H 0.13392 0.51256 0.94593 0.0
H1076 H 0.04168 0.50972 0.87614 0.0
H1077 H 0.98902 0.50678 0.8758 0.0
H1078 H 0.97396 0.46283 0.94449 0.0
H1079 H 0.02636 0.46516 0.94506 0.0
C1080 C 0.15454 0.46098 0.84032 0.0
C1081 C 0.13926 0.43161 0.83751 0.0
C1082 C 0.14424 0.47645 0.85704 0.0
C1083 C 0.11843 0.46278 0.87113 0.0
C1084 C 0.10221 0.43379 0.8671 0.0
C1085 C 0.11261 0.41836 0.85063 0.0
C1086 C 0.10942 0.47781 0.89142 0.0
C1087 C 0.08008 0.47789 0.89159 0.0
C1088 C 0.12898 0.49047 0.91135 0.0
C1089 C 0.15969 0.48991 0.91302 0.0
C1090 C 0.16409 0.46398 0.91326 0.0
C1091 C 0.19314 0.46362 0.91455 0.0
C1092 C 0.21795 0.48906 0.91584 0.0
C1093 C 0.21375 0.51491 0.9159 0.0
C1094 C 0.18474 0.51539 0.91456 0.0
C1095 C 0.07078 0.51744 0.99622 0.0
C1096 C 0.05796 0.53809 0.99262 0.0
C1097 C 0.08158 0.50652 0.97631 0.0
C1098 C 0.07967 0.51584 0.95232 0.0
C1099 C 0.06766 0.53702 0.94878 0.0
C1100 C 0.05687 0.54795 0.96864 0.0
C1101 C 0.08942 0.50281 0.93101 0.0
C1102 C 0.11884 0.50298 0.93071 0.0
C1103 C 0.06978 0.48999 0.91114 0.0
C1104 C 0.03803 0.48791 0.91075 0.0
C1105 C 0.02708 0.49933 0.89111 0.0
C1106 C 0.99729 0.49778 0.89089 0.0
C1107 C 0.97819 0.48472 0.91016 0.0
C1108 C 0.9888 0.47304 0.92962 0.0
C1109 C 0.01855 0.47448 0.92991 0.0
H1110 H 0.95516 0.48359 0.90997 0.0
H1111 H 0.24043 0.48874 0.91684 0.0
H1112 H 0.6607 0.88275 0.8976 0.0
H1113 H 0.64848 0.92284 0.91262 0.0
H1114 H 0.60173 0.87261 0.97377 0.0
H1115 H 0.61457 0.83296 0.95938 0.0
H1116 H 0.59577 0.92977 0.92058 0.0
H1117 H 0.61357 0.91335 0.02426 0.0
H1118 H 0.64564 0.89622 0.05036 0.0
H1119 H 0.71264 0.91712 0.99427 0.0
H1120 H 0.6812 0.93475 0.968 0.0
H1121 H 0.521 0.99786 0.99458 0.0
H1122 H 0.54061 0.96606 0.97313 0.0
H1123 H 0.62978 0.01469 1.00033 0.0
H1124 H 0.60992 0.04561 0.02284 0.0
H1125 H 0.62115 0.96336 1.00635 0.0
H1126 H 0.60653 0.01462 0.93746 0.0
H1127 H 0.5789 0.03538 0.91009 0.0
H1128 H 0.51442 0.95235 0.89384 0.0
H1129 H 0.54144 0.93111 0.92135 0.0
C1130 C 0.648 0.88035 0.91434 0.0
C1131 C 0.63864 0.85466 0.92731 0.0
C1132 C 0.64083 0.90319 0.92278 0.0
C1133 C 0.62443 0.9008 0.94443 0.0
C1134 C 0.61471 0.87506 0.95717 0.0
C1135 C 0.62183 0.8523 0.94878 0.0
C1136 C 0.61763 0.92518 0.95407 0.0
C1137 C 0.60141 0.93727 0.93929 0.0
C1138 C 0.62566 0.93543 0.97826 0.0
C1139 C 0.64488 0.92514 0.99408 0.0
C1140 C 0.6352 0.91441 0.01754 0.0
C1141 C 0.65326 0.90459 0.03236 0.0
C1142 C 0.68112 0.9055 0.02395 0.0
C1143 C 0.69101 0.91632 1.00073 0.0
C1144 C 0.67306 0.9262 0.98586 0.0
C1145 C 0.54486 1.00197 0.99571 0.0
C1146 C 0.56394 0.02418 0.0104 0.0
C1147 C 0.5561 0.98385 0.98332 0.0
C1148 C 0.58682 0.98808 0.9848 0.0
C1149 C 0.60601 0.01086 0.99892 0.0
C1150 C 0.59466 0.02858 0.01173 0.0
C1151 C 0.59857 0.96771 0.9731 0.0
C1152 C 0.61569 0.95622 0.98754 0.0
C1153 C 0.59204 0.95863 0.94839 0.0
C1154 C 0.57592 0.97129 0.9316 0.0
C1155 C 0.58637 1.0008 0.92815 0.0
C1156 C 0.57083 0.01265 0.9126 0.0
C1157 C 0.5449 0.99519 0.90027 0.0
C1158 C 0.53451 0.96584 0.9034 0.0
C1159 C 0.54995 0.95388 0.91894 0.0
H1160 H 0.53288 0.00441 0.88826 0.0
H1161 H 0.69505 0.89788 0.03544 0.0
H1162 H 0.8403 0.20401 0.39407 0.0
H1163 H 0.8746 0.18019 0.40431 0.0
H1164 H 0.92481 0.24968 0.452 0.0
H1165 H 0.89172 0.27472 0.44057 0.0
H1166 H 0.96159 0.22563 0.43213 0.0
H1167 H 0.86657 0.19442 0.47416 0.0
H1168 H 0.81127 0.17633 0.47649 0.0
H1169 H 0.80603 0.10128 0.43697 0.0
H1170 H 0.86134 0.11915 0.4341 0.0
H1171 H 0.96006 0.12003 0.53463 0.0
H1172 H 0.93837 0.14816 0.51079 0.0
H1173 H 0.99101 0.14321 0.44831 0.0
H1174 H 0.01352 0.11512 0.47242 0.0
H1175 H 0.90417 0.13376 0.47153 0.0
H1176 H 0.00354 0.20519 0.41408 0.0
H1177 H 0.05896 0.22564 0.41612 0.0
H1178 H 0.05601 0.2241 0.49477 0.0
H1179 H 1.00065 0.20413 0.4932 0.0
C1180 C 0.85927 0.21487 0.40599 0.0
C1181 C 0.86287 0.24119 0.4168 0.0
C1182 C 0.87876 0.20103 0.41199 0.0
C1183 C 0.90181 0.21285 0.42936 0.0
C1184 C 0.90702 0.24007 0.43868 0.0
C1185 C 0.88779 0.25417 0.43239 0.0
C1186 C 0.91755 0.19534 0.44033 0.0
C1187 C 0.9491 0.20542 0.44055 0.0
C1188 C 0.90125 0.16919 0.45171 0.0
C1189 C 0.86803 0.15825 0.45369 0.0
C1190 C 0.8536 0.17413 0.46585 0.0
C1191 C 0.82227 0.16392 0.46727 0.0
C1192 C 0.80514 0.1377 0.45683 0.0
C1193 C 0.81932 0.12161 0.445 0.0
C1194 C 0.85066 0.13176 0.44348 0.0
C1195 C 0.96718 0.12485 0.51583 0.0
C1196 C 0.98842 0.11511 0.50539 0.0
C1197 C 0.95467 0.14096 0.5022 0.0
C1198 C 0.96297 0.14774 0.47776 0.0
C1199 C 0.98443 0.13837 0.46722 0.0
C1200 C 0.99719 0.12227 0.48098 0.0
C1201 C 0.9483 0.16406 0.46356 0.0
C1202 C 0.9168 0.1537 0.46271 0.0
C1203 C 0.96471 0.19023 0.45229 0.0
C1204 C 0.99798 0.20283 0.45349 0.0
C1205 C 0.01474 0.20933 0.4318 0.0
C1206 C 0.04614 0.22085 0.43288 0.0
C1207 C 0.061 0.22609 0.45557 0.0
C1208 C 0.04449 0.21997 0.47722 0.0
C1209 C 0.0131 0.20853 0.47624 0.0
H1210 H 0.08531 0.23494 0.45636 0.0
H1211 H 0.78088 0.12983 0.45794 0.0
H1212 H 0.30051 0.74254 0.20137 0.0
H1213 H 0.25515 0.71954 0.17731 0.0
H1214 H 0.26997 0.64064 0.18028 0.0
H1215 H 0.31727 0.66432 0.20197 0.0
H1216 H 0.25388 0.64461 0.13778 0.0
H1217 H 0.21169 0.65636 0.21375 0.0
H1218 H 0.20381 0.68103 0.25055 0.0
H1219 H 0.17598 0.73625 0.2053 0.0
H1220 H 0.18407 0.71215 0.16819 0.0
H1221 H 0.10091 0.56258 0.10064 0.0
H1222 H 0.14687 0.58433 0.12513 0.0
H1223 H 0.15598 0.66663 0.09762 0.0
H1224 H 0.11033 0.64495 0.07254 0.0
H1225 H 0.1585 0.65936 0.15261 0.0
H1226 H 0.20119 0.64273 0.07621 0.0
H1227 H 0.20557 0.61244 0.04215 0.0
H1228 H 0.22832 0.55898 0.09315 0.0
H1229 H 0.22377 0.58884 0.12754 0.0
C1230 C 0.29442 0.72035 0.19678 0.0
C1231 C 0.31308 0.70555 0.20357 0.0
C1232 C 0.26795 0.70698 0.18332 0.0
C1233 C 0.2586 0.67809 0.17712 0.0
C1234 C 0.27653 0.66294 0.18471 0.0
C1235 C 0.3035 0.67651 0.19758 0.0
C1236 C 0.23111 0.66413 0.16163 0.0
C1237 C 0.23296 0.64757 0.1414 0.0
C1238 C 0.20363 0.66802 0.16591 0.0
C1239 C 0.19876 0.68261 0.18818 0.0
C1240 C 0.20411 0.6739 0.21163 0.0
C1241 C 0.19956 0.68776 0.23255 0.0
C1242 C 0.18947 0.71024 0.23026 0.0
C1243 C 0.18383 0.71886 0.20704 0.0
C1244 C 0.18836 0.70509 0.18606 0.0
C1245 C 0.11286 0.58529 0.0996 0.0
C1246 C 0.10203 0.60207 0.08463 0.0
C1247 C 0.13909 0.59765 0.1136 0.0
C1248 C 0.15472 0.62706 0.11321 0.0
C1249 C 0.14417 0.64388 0.09815 0.0
C1250 C 0.11823 0.63145 0.08373 0.0
C1251 C 0.18165 0.64027 0.12905 0.0
C1252 C 0.17956 0.65655 0.14926 0.0
C1253 C 0.20854 0.63541 0.12523 0.0
C1254 C 0.21175 0.61779 0.10448 0.0
C1255 C 0.20687 0.62438 0.08018 0.0
C1256 C 0.20946 0.60733 0.06081 0.0
C1257 C 0.21712 0.58375 0.06549 0.0
C1258 C 0.22234 0.57723 0.08955 0.0
C1259 C 0.21978 0.59421 0.10898 0.0
H1260 H 0.2191 0.57057 0.05047 0.0
H1261 H 0.18597 0.72094 0.24647 0.0
H1262 H 0.22809 0.47339 0.72118 0.0
H1263 H 0.27361 0.50389 0.69972 0.0
H1264 H 0.2946 0.43035 0.68189 0.0
H1265 H 0.24973 0.4002 0.70322 0.0
H1266 H 0.34442 0.47413 0.69627 0.0
H1267 H 0.26017 0.45868 0.64052 0.0
H1268 H 0.21155 0.46113 0.62795 0.0
H1269 H 0.24821 0.55171 0.63612 0.0
H1270 H 0.29697 0.54973 0.64906 0.0
H1271 H 0.43588 0.50336 0.59278 0.0
H1272 H 0.39347 0.48522 0.62053 0.0
H1273 H 0.39127 0.56907 0.62811 0.0
H1274 H 0.43391 0.58757 0.60017 0.0
H1275 H 0.33435 0.52805 0.62315 0.0
H1276 H 0.42084 0.54401 0.67316 0.0
H1277 H 0.46961 0.5416 0.68525 0.0
H1278 H 0.42938 0.45084 0.68843 0.0
H1279 H 0.38045 0.45265 0.67593 0.0
C1280 C 0.24267 0.46391 0.71287 0.0
C1281 C 0.23518 0.4344 0.71361 0.0
C1282 C 0.26854 0.48127 0.70052 0.0
C1283 C 0.28742 0.46938 0.68896 0.0
C1284 C 0.28046 0.44007 0.69059 0.0
C1285 C 0.25466 0.42281 0.70266 0.0
C1286 C 0.31395 0.48683 0.67435 0.0
C1287 C 0.34219 0.48586 0.68025 0.0
C1288 C 0.31132 0.50285 0.65383 0.0
C1289 C 0.28206 0.50403 0.64606 0.0
C1290 C 0.25777 0.47909 0.63984 0.0
C1291 C 0.23022 0.48039 0.63261 0.0
C1292 C 0.22676 0.50655 0.63132 0.0
C1293 C 0.2509 0.53146 0.63719 0.0
C1294 C 0.27849 0.53026 0.64447 0.0
C1295 C 0.42634 0.51802 0.60014 0.0
C1296 C 0.43849 0.547 0.59424 0.0
C1297 C 0.40214 0.5076 0.61617 0.0
C1298 C 0.38945 0.52584 0.62674 0.0
C1299 C 0.40079 0.55461 0.62028 0.0
C1300 C 0.42519 0.56514 0.60429 0.0
C1301 C 0.36459 0.51461 0.64467 0.0
C1302 C 0.33672 0.51676 0.63942 0.0
C1303 C 0.36757 0.4997 0.66584 0.0
C1304 C 0.39698 0.49847 0.67342 0.0
C1305 C 0.42242 0.52351 0.67624 0.0
C1306 C 0.4501 0.52226 0.68319 0.0
C1307 C 0.4526 0.49608 0.68757 0.0
C1308 C 0.42741 0.47111 0.68502 0.0
C1309 C 0.39969 0.47223 0.67802 0.0
H1310 H 0.47405 0.49516 0.69299 0.0
H1311 H 0.20542 0.50752 0.62571 0.0
H1312 H 0.81882 0.82883 0.91351 0.0
H1313 H 0.85026 0.80478 0.9307 0.0
H1314 H 0.77383 0.72604 0.93177 0.0
H1315 H 0.74208 0.75014 0.91458 0.0
H1316 H 0.80948 0.73287 0.97296 0.0
H1317 H 0.82264 0.7381 0.88611 0.0
H1318 H 0.83254 0.76155 0.84585 0.0
H1319 H 0.9205 0.81541 0.87052 0.0
H1320 H 0.91095 0.79258 0.91108 0.0
H1321 H 0.9017 0.64916 0.98354 0.0
H1322 H 0.86482 0.6689 0.96944 0.0
H1323 H 0.93447 0.75201 0.96614 0.0
H1324 H 0.97137 0.73255 0.98043 0.0
H1325 H 0.89945 0.73939 0.92493 0.0
H1326 H 0.88514 0.73476 0.01244 0.0
H1327 H 0.87509 0.71058 0.05239 0.0
H1328 H 0.78897 0.65442 0.02594 0.0
H1329 H 0.79874 0.67797 0.98568 0.0
C1330 C 0.80868 0.80641 0.91748 0.0
C1331 C 0.7781 0.79127 0.9124 0.0
C1332 C 0.82665 0.7927 0.92732 0.0
C1333 C 0.8145 0.76351 0.93207 0.0
C1334 C 0.78365 0.74856 0.92815 0.0
C1335 C 0.76556 0.76234 0.91837 0.0
C1336 C 0.83448 0.7486 0.94001 0.0
C1337 C 0.82891 0.73391 0.96231 0.0
C1338 C 0.85999 0.75022 0.92619 0.0
C1339 C 0.86598 0.76378 0.90171 0.0
C1340 C 0.84402 0.75507 0.88301 0.0
C1341 C 0.84958 0.76824 0.86013 0.0
C1342 C 0.87711 0.79 0.85565 0.0
C1343 C 0.89918 0.79857 0.87403 0.0
C1344 C 0.89371 0.78551 0.89696 0.0
C1345 C 0.90911 0.67169 0.98006 0.0
C1346 C 0.93951 0.68927 0.98308 0.0
C1347 C 0.88801 0.68292 0.97195 0.0
C1348 C 0.89689 0.71195 0.96687 0.0
C1349 C 0.92718 0.72952 0.96986 0.0
C1350 C 0.94825 0.71834 0.97795 0.0
C1351 C 0.87483 0.72414 0.95812 0.0
C1352 C 0.87996 0.73822 0.93556 0.0
C1353 C 0.8489 0.72182 0.97165 0.0
C1354 C 0.84281 0.70794 0.99597 0.0
C1355 C 0.86415 0.71712 0.01509 0.0
C1356 C 0.8585 0.70354 0.03779 0.0
C1357 C 0.83144 0.68093 0.04168 0.0
C1358 C 0.80994 0.67191 0.02289 0.0
C1359 C 0.81552 0.68537 1.00013 0.0
H1360 H 0.82711 0.67044 0.05927 0.0
H1361 H 0.88137 0.80018 0.83793 0.0
H1362 H 0.39475 0.77743 0.16744 0.0
H1363 H 0.42072 0.82391 0.14956 0.0
H1364 H 0.45277 0.85834 0.22128 0.0
H1365 H 0.42616 0.81142 0.23947 0.0
H1366 H 0.43011 0.89266 0.19506 0.0
H1367 H 0.50136 0.8494 0.18153 0.0
H1368 H 0.51968 0.8119 0.16901 0.0
H1369 H 0.4913 0.81692 0.09488 0.0
H1370 H 0.47238 0.85416 0.10702 0.0
H1371 H 0.52039 0.02215 0.13469 0.0
H1372 H 0.50539 0.97971 0.16038 0.0
H1373 H 0.464 0.9279 0.09756 0.0
H1374 H 0.47885 0.97 0.07182 0.0
H1375 H 0.4983 0.90525 0.12432 0.0
H1376 H 0.42189 0.94462 0.13968 0.0
H1377 H 0.40389 0.98228 0.15241 0.0
H1378 H 0.4434 0.98504 0.22377 0.0
H1379 H 0.46201 0.94763 0.21133 0.0
C1380 C 0.40733 0.79486 0.17946 0.0
C1381 C 0.40822 0.79081 0.2049 0.0
C1382 C 0.42238 0.82142 0.16917 0.0
C1383 C 0.43891 0.84465 0.18401 0.0
C1384 C 0.44019 0.84071 0.20946 0.0
C1385 C 0.42518 0.81391 0.21981 0.0
C1386 C 0.45395 0.87299 0.17264 0.0
C1387 C 0.44556 0.89561 0.17995 0.0
C1388 C 0.47382 0.87682 0.1527 0.0
C1389 C 0.48527 0.85447 0.14524 0.0
C1390 C 0.49882 0.84237 0.16259 0.0
C1391 C 0.50934 0.82118 0.15556 0.0
C1392 C 0.50661 0.812 0.13117 0.0
C1393 C 0.4934 0.82404 0.11376 0.0
C1394 C 0.4828 0.84523 0.12071 0.0
C1395 C 0.50809 1.00173 0.12634 0.0
C1396 C 0.50077 0.99955 0.10117 0.0
C1397 C 0.49946 0.97748 0.14108 0.0
C1398 C 0.48344 0.9506 0.13094 0.0
C1399 C 0.47639 0.94839 0.1058 0.0
C1400 C 0.4848 0.97256 0.09112 0.0
C1401 C 0.47382 0.92461 0.1463 0.0
C1402 C 0.48326 0.90244 0.1397 0.0
C1403 C 0.45506 0.92129 0.16693 0.0
C1404 C 0.44365 0.94358 0.17448 0.0
C1405 C 0.42695 0.95342 0.15802 0.0
C1406 C 0.4166 0.97469 0.16519 0.0
C1407 C 0.42259 0.98612 0.18885 0.0
C1408 C 0.43884 0.97621 0.20543 0.0
C1409 C 0.44928 0.95497 0.19833 0.0
H1410 H 0.41457 1.0026 0.19437 0.0
H1411 H 0.51478 0.79559 0.12576 0.0
H1412 H 0.10532 0.33317 0.7241 0.0
H1413 H 0.08087 0.28828 0.70189 0.0
H1414 H 0.16469 0.2984 0.6671 0.0
H1415 H 0.1896 0.34215 0.6899 0.0
H1416 H 0.1139 0.28475 0.63425 0.0
H1417 H 0.14357 0.25402 0.7112 0.0
H1418 H 0.14386 0.25013 0.75625 0.0
H1419 H 0.04782 0.2087 0.75566 0.0
H1420 H 0.04694 0.21273 0.7106 0.0
H1421 H 0.09597 0.15568 0.57807 0.0
H1422 H 0.11279 0.19839 0.60343 0.0
H1423 H 0.03154 0.1652 0.64573 0.0
H1424 H 0.01529 0.12158 0.62101 0.0
H1425 H 0.07476 0.19127 0.67532 0.0
H1426 H 0.04346 0.2178 0.59938 0.0
H1427 H 0.04061 0.22251 0.55453 0.0
H1428 H 0.13488 0.27294 0.55287 0.0
H1429 H 0.13842 0.26819 0.59765 0.0
C1430 C 0.11867 0.32574 0.71193 0.0
C1431 C 0.14948 0.34172 0.70868 0.0
C1432 C 0.10458 0.30013 0.69915 0.0
C1433 C 0.12095 0.29009 0.68274 0.0
C1434 C 0.15156 0.3059 0.67946 0.0
C1435 C 0.16571 0.33116 0.69243 0.0
C1436 C 0.10653 0.26315 0.66883 0.0
C1437 C 0.10549 0.26426 0.64317 0.0
C1438 C 0.09458 0.23654 0.68054 0.0
C1439 C 0.09516 0.23399 0.70758 0.0
C1440 C 0.12249 0.24432 0.7207 0.0
C1441 C 0.12277 0.24204 0.74623 0.0
C1442 C 0.09587 0.22926 0.75882 0.0
C1443 C 0.06864 0.21865 0.74589 0.0
C1444 C 0.06824 0.22091 0.72036 0.0
C1445 C 0.0817 0.1574 0.59283 0.0
C1446 C 0.05418 0.13532 0.59741 0.0
C1447 C 0.09125 0.18199 0.60725 0.0
C1448 C 0.0731 0.18557 0.62614 0.0
C1449 C 0.04592 0.16317 0.63119 0.0
C1450 C 0.03663 0.13821 0.61705 0.0
C1451 C 0.08267 0.21267 0.64048 0.0
C1452 C 0.08278 0.21167 0.66625 0.0
C1453 C 0.09328 0.23951 0.62886 0.0
C1454 C 0.09123 0.24246 0.60189 0.0
C1455 C 0.06363 0.22974 0.58944 0.0
C1456 C 0.06189 0.23243 0.56402 0.0
C1457 C 0.08756 0.24799 0.55086 0.0
C1458 C 0.11502 0.2609 0.56309 0.0
C1459 C 0.1169 0.25823 0.58849 0.0
H1460 H 0.08619 0.25012 0.53121 0.0
H1461 H 0.09612 0.22751 0.77858 0.0
H1462 H 0.72785 0.31354 0.43955 0.0
H1463 H 0.6982 0.34387 0.43843 0.0
H1464 H 0.7446 0.38799 0.50322 0.0
H1465 H 0.77488 0.35829 0.50405 0.0
H1466 H 0.65946 0.34612 0.47215 0.0
H1467 H 0.74579 0.45557 0.50355 0.0
H1468 H 0.79963 0.48423 0.4987 0.0
H1469 H 0.80065 0.44119 0.43101 0.0
H1470 H 0.74674 0.41256 0.43526 0.0
H1471 H 0.59032 0.42927 0.53061 0.0
H1472 H 0.62618 0.40684 0.52058 0.0
H1473 H 0.64626 0.45256 0.4524 0.0
H1474 H 0.6103 0.47521 0.4624 0.0
H1475 H 0.69788 0.45112 0.47791 0.0
H1476 H 0.60224 0.38774 0.44875 0.0
H1477 H 0.54808 0.35939 0.4516 0.0
H1478 H 0.56553 0.31054 0.50981 0.0
H1479 H 0.61979 0.3389 0.50755 0.0
C1480 C 0.73224 0.33015 0.45322 0.0
C1481 C 0.75365 0.33346 0.47195 0.0
C1482 C 0.71513 0.34732 0.45265 0.0
C1483 C 0.71925 0.36827 0.47067 0.0
C1484 C 0.74127 0.37221 0.48894 0.0
C1485 C 0.75835 0.35503 0.48954 0.0
C1486 C 0.69892 0.3844 0.47162 0.0
C1487 C 0.66791 0.36908 0.47323 0.0
C1488 C 0.70987 0.41439 0.47273 0.0
C1489 C 0.74225 0.43175 0.46985 0.0
C1490 C 0.75746 0.45231 0.48757 0.0
C1491 C 0.78801 0.46854 0.48493 0.0
C1492 C 0.80357 0.46448 0.46459 0.0
C1493 C 0.7886 0.44424 0.4468 0.0
C1494 C 0.75805 0.42798 0.44934 0.0
C1495 C 0.6026 0.43476 0.5136 0.0
C1496 C 0.59744 0.45384 0.49721 0.0
C1497 C 0.62295 0.42186 0.50785 0.0
C1498 C 0.63863 0.42789 0.48567 0.0
C1499 C 0.63428 0.4476 0.46958 0.0
C1500 C 0.61363 0.46032 0.47521 0.0
C1501 C 0.65872 0.41272 0.47909 0.0
C1502 C 0.68957 0.42818 0.47654 0.0
C1503 C 0.64765 0.38285 0.4768 0.0
C1504 C 0.61506 0.36559 0.4781 0.0
C1505 C 0.59451 0.37109 0.46228 0.0
C1506 C 0.5638 0.355 0.46377 0.0
C1507 C 0.55337 0.33321 0.48091 0.0
C1508 C 0.57364 0.32744 0.49655 0.0
C1509 C 0.60438 0.34349 0.49516 0.0
H1510 H 0.52958 0.32078 0.48203 0.0
H1511 H 0.82722 0.47705 0.46259 0.0
loop_
_geom_bond_atom_site_label_1
_geom_bond_atom_site_label_2
_geom_bond_distance
_geom_bond_site_symmetry_2
_ccdc_geom_bond_type
H0 C1 0.949 . S
C1 H0 0.949 . S
C1 C2 1.395 . S
C1 C3 1.391 . S
C2 C1 1.395 . S
C2 C5 1.390 . S
C3 C1 1.391 . S
C3 C7 1.387 . S
C3 C8 1.491 . S
H4 C5 0.950 . S
C5 C2 1.390 . S
C5 H4 0.950 . S
C5 C6 1.378 . S
C6 C5 1.378 . S
C6 C7 1.409 . S
C7 C3 1.387 . S
C7 C6 1.409 . S
C7 H9 0.951 . S
C8 C3 1.491 . S
C8 C10 1.382 . S
C8 C12 1.404 . S
H9 C7 0.951 . S
C10 C8 1.382 . S
C10 C11 1.390 . S
C10 H15 0.949 . S
C11 C10 1.390 . S
C11 C16 1.399 . S
C12 C8 1.404 . S
C12 H13 0.950 . S
C12 C14 1.375 . S
H13 C12 0.950 . S
C14 C12 1.375 . S
C14 C16 1.382 . S
C14 H18 0.950 . S
H15 C10 0.949 . S
C16 C11 1.399 . S
C16 C14 1.382 . S
C16 H17 0.952 . S
H17 C16 0.952 . S
H18 C14 0.950 . S
H19 C20 0.949 . S
C20 H19 0.949 . S
C20 C21 1.395 . S
C20 C22 1.391 . S
C21 C20 1.395 . S
C21 C24 1.390 . S
C22 C20 1.391 . S
C22 C26 1.387 . S
C22 C27 1.491 . S
H23 C24 0.950 . S
C24 C21 1.390 . S
C24 H23 0.950 . S
C24 C25 1.378 . S
C25 C24 1.378 . S
C25 C26 1.409 . S
C26 C22 1.387 . S
C26 C25 1.409 . S
C26 H28 0.951 . S
C27 C22 1.491 . S
C27 C29 1.382 . S
C27 C31 1.404 . S
H28 C26 0.951 . S
C29 C27 1.382 . S
C29 C30 1.390 . S
C29 H34 0.949 . S
C30 C29 1.390 . S
C30 C35 1.399 . S
C31 C27 1.404 . S
C31 H32 0.950 . S
C31 C33 1.375 . S
H32 C31 0.950 . S
C33 C31 1.375 . S
C33 C35 1.382 . S
C33 H37 0.950 . S
H34 C29 0.949 . S
C35 C30 1.399 . S
C35 C33 1.382 . S
C35 H36 0.952 . S
H36 C35 0.952 . S
H37 C33 0.950 . S
H38 C39 0.949 . S
C39 H38 0.949 . S
C39 C40 1.395 . S
C39 C41 1.391 . S
C40 C39 1.395 . S
C40 C43 1.390 . S
C41 C39 1.391 . S
C41 C45 1.387 . S
C41 C46 1.491 . S
H42 C43 0.950 . S
C43 C40 1.390 . S
C43 H42 0.950 . S
C43 C44 1.378 . S
C44 C43 1.378 . S
C44 C45 1.409 . S
C45 C41 1.387 . S
C45 C44 1.409 . S
C45 H47 0.951 . S
C46 C41 1.491 . S
C46 C48 1.382 . S
C46 C50 1.404 . S
H47 C45 0.951 . S
C48 C46 1.382 . S
C48 C49 1.390 . S
C48 H53 0.949 . S
C49 C48 1.390 . S
C49 C54 1.399 . S
C50 C46 1.404 . S
C50 H51 0.950 . S
C50 C52 1.375 . S
H51 C50 0.950 . S
C52 C50 1.375 . S
C52 C54 1.382 . S
C52 H56 0.950 . S
H53 C48 0.949 . S
C54 C49 1.399 . S
C54 C52 1.382 . S
C54 H55 0.952 . S
H55 C54 0.952 . S
H56 C52 0.950 . S
H57 C58 0.949 . S
C58 H57 0.949 . S
C58 C59 1.395 . S
C58 C60 1.391 . S
C59 C58 1.395 . S
C59 C62 1.390 . S
C60 C58 1.391 . S
C60 C64 1.387 . S
C60 C65 1.491 . S
H61 C62 0.950 . S
C62 C59 1.390 . S
C62 H61 0.950 . S
C62 C63 1.378 . S
C63 C62 1.378 . S
C63 C64 1.409 . S
C64 C60 1.387 . S
C64 C63 1.409 . S
C64 H66 0.951 . S
C65 C60 1.491 . S
C65 C67 1.382 . S
C65 C69 1.404 . S
H66 C64 0.951 . S
C67 C65 1.382 . S
C67 C68 1.390 . S
C67 H72 0.949 . S
C68 C67 1.390 . S
C68 C73 1.399 . S
C69 C65 1.404 . S
C69 H70 0.950 . S
C69 C71 1.375 . S
H70 C69 0.950 . S
C71 C69 1.375 . S
C71 C73 1.382 . S
C71 H75 0.950 . S
H72 C67 0.949 . S
C73 C68 1.399 . S
C73 C71 1.382 . S
C73 H74 0.952 . S
H74 C73 0.952 . S
H75 C71 0.950 . S
H76 C77 0.949 . S
C77 H76 0.949 . S
C77 C78 1.395 . S
C77 C79 1.391 . S
C78 C77 1.395 . S
C78 C81 1.390 . S
C79 C77 1.391 . S
C79 C83 1.387 . S
C79 C84 1.491 . S
H80 C81 0.950 . S
C81 C78 1.390 . S
C81 H80 0.950 . S
C81 C82 1.378 . S
C82 C81 1.378 . S
C82 C83 1.409 . S
C83 C79 1.387 . S
C83 C82 1.409 . S
C83 H85 0.951 . S
C84 C79 1.491 . S
C84 C86 1.382 . S
C84 C88 1.404 . S
H85 C83 0.951 . S
C86 C84 1.382 . S
C86 C87 1.390 . S
C86 H91 0.949 . S
C87 C86 1.390 . S
C87 C92 1.399 . S
C88 C84 1.404 . S
C88 H89 0.950 . S
C88 C90 1.375 . S
H89 C88 0.950 . S
C90 C88 1.375 . S
C90 C92 1.382 . S
C90 H94 0.950 . S
H91 C86 0.949 . S
C92 C87 1.399 . S
C92 C90 1.382 . S
C92 H93 0.952 . S
H93 C92 0.952 . S
H94 C90 0.950 . S
H95 C96 0.949 . S
C96 H95 0.949 . S
C96 C97 1.395 . S
C96 C98 1.391 . S
C97 C96 1.395 . S
C97 C100 1.390 . S
C98 C96 1.391 . S
C98 C102 1.387 . S
C98 C103 1.491 . S
H99 C100 0.950 . S
C100 C97 1.390 . S
C100 H99 0.950 . S
C100 C101 1.378 . S
C101 C100 1.378 . S
C101 C102 1.409 . S
C102 C98 1.387 . S
C102 C101 1.409 . S
C102 H104 0.951 . S
C103 C98 1.491 . S
C103 C105 1.382 . S
C103 C107 1.404 . S
H104 C102 0.951 . S
C105 C103 1.382 . S
C105 C106 1.390 . S
C105 H110 0.949 . S
C106 C105 1.390 . S
C106 C111 1.399 . S
C107 C103 1.404 . S
C107 H108 0.950 . S
C107 C109 1.375 . S
H108 C107 0.950 . S
C109 C107 1.375 . S
C109 C111 1.382 . S
C109 H113 0.950 . S
H110 C105 0.949 . S
C111 C106 1.399 . S
C111 C109 1.382 . S
C111 H112 0.952 . S
H112 C111 0.952 . S
H113 C109 0.950 . S
H114 C115 0.949 . S
C115 H114 0.949 . S
C115 C116 1.395 . S
C115 C117 1.391 . S
C116 C115 1.395 . S
C116 C119 1.390 . S
C117 C115 1.391 . S
C117 C121 1.387 . S
C117 C122 1.491 . S
H118 C119 0.950 . S
C119 C116 1.390 . S
C119 H118 0.950 . S
C119 C120 1.378 . S
C120 C119 1.378 . S
C120 C121 1.409 . S
C121 C117 1.387 . S
C121 C120 1.409 . S
C121 H123 0.951 . S
C122 C117 1.491 . S
C122 C124 1.382 . S
C122 C126 1.404 . S
H123 C121 0.951 . S
C124 C122 1.382 . S
C124 C125 1.390 . S
C124 H129 0.949 . S
C125 C124 1.390 . S
C125 C130 1.399 . S
C126 C122 1.404 . S
C126 H127 0.950 . S
C126 C128 1.375 . S
H127 C126 0.950 . S
C128 C126 1.375 . S
C128 C130 1.382 . S
C128 H132 0.950 . S
H129 C124 0.949 . S
C130 C125 1.399 . S
C130 C128 1.382 . S
C130 H131 0.952 . S
H131 C130 0.952 . S
H132 C128 0.950 . S
H133 C134 0.949 . S
C134 H133 0.949 . S
C134 C135 1.395 . S
C134 C136 1.391 . S
C135 C134 1.395 . S
C135 C138 1.390 . S
C136 C134 1.391 . S
C136 C140 1.387 . S
C136 C141 1.491 . S
H137 C138 0.950 . S
C138 C135 1.390 . S
C138 H137 0.950 . S
C138 C139 1.378 . S
C139 C138 1.378 . S
C139 C140 1.409 . S
C140 C136 1.387 . S
C140 C139 1.409 . S
C140 H142 0.951 . S
C141 C136 1.491 . S
C141 C143 1.382 . S
C141 C145 1.404 . S
H142 C140 0.951 . S
C143 C141 1.382 . S
C143 C144 1.390 . S
C143 H148 0.949 . S
C144 C143 1.390 . S
C144 C149 1.399 . S
C145 C141 1.404 . S
C145 H146 0.950 . S
C145 C147 1.375 . S
H146 C145 0.950 . S
C147 C145 1.375 . S
C147 C149 1.382 . S
C147 H151 0.950 . S
H148 C143 0.949 . S
C149 C144 1.399 . S
C149 C147 1.382 . S
C149 H150 0.952 . S
H150 C149 0.952 . S
H151 C147 0.950 . S
Dy152 O155 2.307 . S
Dy152 O157 2.395 . S
Dy152 O158 2.379 . S
Dy152 O160 2.339 . S
Dy152 O162 2.298 . S
Dy152 O166 2.275 . S
Dy152 C174 2.738 . S
Dy153 O156 2.298 1_655 S
Dy153 O159 2.275 . S
Dy153 O161 2.307 . S
Dy153 O163 2.395 1_545 S
Dy153 O164 2.379 . S
Dy153 O167 2.339 1_655 S
Dy153 C183 2.738 1_545 S
C154 O166 1.254 . S
C154 O167 1.257 . S
O155 Dy152 2.307 . S
O155 C165 1.266 . S
O156 Dy153 2.298 1_455 S
O156 C165 1.236 . S
O157 Dy152 2.395 . S
O157 C174 1.255 . S
O158 Dy152 2.379 . S
O158 C174 1.249 . S
O159 Dy153 2.275 . S
O159 C175 1.254 1_545 S
O160 Dy152 2.339 . S
O160 C175 1.257 1_445 S
O161 Dy153 2.307 . S
O161 C176 1.266 . S
O162 Dy152 2.298 . S
O162 C176 1.236 1_455 S
O163 Dy153 2.395 1_565 S
O163 C183 1.255 . S
O164 Dy153 2.379 . S
O164 C183 1.249 1_545 S
C165 O155 1.266 . S
C165 O156 1.236 . S
O166 Dy152 2.275 . S
O166 C154 1.254 . S
O167 Dy153 2.339 1_455 S
O167 C154 1.257 . S
C168 C171 1.344 . S
C168 C172 1.328 . S
C168 C174 1.516 . S
C169 C170 1.304 . S
C169 C173 1.323 . S
C170 C169 1.304 . S
C170 C171 1.371 . S
C170 H184 0.930 . S
C171 C168 1.344 . S
C171 C170 1.371 . S
C171 H185 0.931 . S
C172 C168 1.328 . S
C172 C173 1.433 . S
C172 H186 0.931 . S
C173 C169 1.323 . S
C173 C172 1.433 . S
C173 H187 0.933 . S
C174 Dy152 2.738 . S
C174 O157 1.255 . S
C174 O158 1.249 . S
C174 C168 1.516 . S
C175 O159 1.254 1_565 S
C175 O160 1.257 1_665 S
C176 O161 1.266 . S
C176 O162 1.236 1_655 S
C177 C180 1.344 . S
C177 C181 1.328 . S
C177 C183 1.516 . S
C178 C179 1.304 . S
C178 C182 1.323 . S
C179 C178 1.304 . S
C179 C180 1.371 . S
C179 H188 0.930 . S
C180 C177 1.344 . S
C180 C179 1.371 . S
C180 H189 0.931 . S
C181 C177 1.328 . S
C181 C182 1.433 . S
C181 H190 0.931 . S
C182 C178 1.323 . S
C182 C181 1.433 . S
C182 H191 0.933 . S
C183 Dy153 2.738 1_565 S
C183 O163 1.255 . S
C183 O164 1.249 1_565 S
C183 C177 1.516 . S
H184 C170 0.930 . S
H185 C171 0.931 . S
H186 C172 0.931 . S
H187 C173 0.933 . S
H188 C179 0.930 . S
H189 C180 0.931 . S
H190 C181 0.931 . S
H191 C182 0.933 . S
Dy192 O195 2.307 . S
Dy192 O197 2.395 1_545 S
Dy192 O198 2.379 . S
Dy192 O200 2.339 . S
Dy192 O202 2.298 . S
Dy192 O206 2.275 . S
Dy192 C214 2.738 1_545 S
Dy193 O196 2.298 . S
Dy193 O199 2.275 . S
Dy193 O201 2.307 . S
Dy193 O203 2.395 . S
Dy193 O204 2.379 . S
Dy193 O207 2.320 1_545 S
Dy193 C223 2.738 . S
C194 O206 1.254 1_565 S
C194 O207 1.259 . S
O195 Dy192 2.307 . S
O195 C205 1.266 . S
O196 Dy193 2.298 . S
O196 C205 1.236 . S
O197 Dy192 2.395 1_565 S
O197 C214 1.255 . S
O198 Dy192 2.379 . S
O198 C214 1.249 1_545 S
O199 Dy193 2.275 . S
O199 C215 1.254 . S
O200 Dy192 2.339 . S
O200 C215 1.257 . S
O201 Dy193 2.307 . S
O201 C216 1.266 . S
O202 Dy192 2.298 . S
O202 C216 1.236 . S
O203 Dy193 2.395 . S
O203 C223 1.255 . S
O204 Dy193 2.379 . S
O204 C223 1.249 . S
C205 O195 1.266 . S
C205 O196 1.236 . S
O206 Dy192 2.275 . S
O206 C194 1.254 1_545 S
O207 Dy193 2.320 1_565 S
O207 C194 1.259 . S
C208 C211 1.344 . S
C208 C212 1.328 . S
C208 C214 1.516 1_556 S
C209 C210 1.304 . S
C209 C213 1.323 . S
C210 C209 1.304 . S
C210 C211 1.371 . S
C210 H224 0.930 . S
C211 C208 1.344 . S
C211 C210 1.371 . S
C211 H225 0.931 1_556 S
C212 C208 1.328 . S
C212 C213 1.433 . S
C212 H226 0.931 . S
C213 C209 1.323 . S
C213 C212 1.433 . S
C213 H227 0.933 . S
C214 Dy192 2.738 1_565 S
C214 O197 1.255 . S
C214 O198 1.249 1_565 S
C214 C208 1.516 1_554 S
C215 O199 1.254 . S
C215 O200 1.257 . S
C216 O201 1.266 . S
C216 O202 1.236 . S
C217 C220 1.344 . S
C217 C221 1.328 . S
C217 C223 1.516 . S
C218 C219 1.304 . S
C218 C222 1.323 . S
C219 C218 1.304 . S
C219 C220 1.371 . S
C219 H228 0.930 . S
C220 C217 1.344 . S
C220 C219 1.371 . S
C220 H229 0.931 . S
C221 C217 1.328 . S
C221 C222 1.433 . S
C221 H230 0.931 . S
C222 C218 1.323 . S
C222 C221 1.433 . S
C222 H231 0.933 . S
C223 Dy193 2.738 . S
C223 O203 1.255 . S
C223 O204 1.249 . S
C223 C217 1.516 . S
H224 C210 0.930 . S
H225 C211 0.931 1_554 S
H226 C212 0.931 . S
H227 C213 0.933 . S
H228 C219 0.930 . S
H229 C220 0.931 . S
H230 C221 0.931 . S
H231 C222 0.933 . S
Dy232 O235 2.307 . S
Dy232 O237 2.395 . S
Dy232 O238 2.379 . S
Dy232 O240 2.339 . S
Dy232 O242 2.298 . S
Dy232 O246 2.275 . S
Dy232 C254 2.738 . S
Dy233 O236 2.298 . S
Dy233 O239 2.275 . S
Dy233 O241 2.307 . S
Dy233 O243 2.395 . S
Dy233 O244 2.379 . S
Dy233 O247 2.339 . S
Dy233 C263 2.738 . S
C234 O246 1.254 . S
C234 O247 1.257 . S
O235 Dy232 2.307 . S
O235 C245 1.266 . S
O236 Dy233 2.298 . S
O236 C245 1.236 . S
O237 Dy232 2.395 . S
O237 C254 1.255 . S
O238 Dy232 2.379 . S
O238 C254 1.249 . S
O239 Dy233 2.275 . S
O239 C255 1.254 . S
O240 Dy232 2.339 . S
O240 C255 1.257 . S
O241 Dy233 2.307 . S
O241 C256 1.266 . S
O242 Dy232 2.298 . S
O242 C256 1.236 . S
O243 Dy233 2.395 . S
O243 C263 1.255 . S
O244 Dy233 2.379 . S
O244 C263 1.249 . S
C245 O235 1.266 . S
C245 O236 1.236 . S
O246 Dy232 2.275 . S
O246 C234 1.254 . S
O247 Dy233 2.339 . S
O247 C234 1.257 . S
C248 C251 1.344 . S
C248 C252 1.328 . S
C248 C254 1.516 . S
C249 C250 1.304 . S
C249 C253 1.323 . S
C250 C249 1.304 . S
C250 C251 1.371 . S
C250 H264 0.930 . S
C251 C248 1.344 . S
C251 C250 1.371 . S
C251 H265 0.931 . S
C252 C248 1.328 . S
C252 C253 1.433 . S
C252 H266 0.931 . S
C253 C249 1.323 . S
C253 C252 1.433 . S
C253 H267 0.933 . S
C254 Dy232 2.738 . S
C254 O237 1.255 . S
C254 O238 1.249 . S
C254 C248 1.516 . S
C255 O239 1.254 . S
C255 O240 1.257 . S
C256 O241 1.266 . S
C256 O242 1.236 . S
C257 C260 1.344 . S
C257 C261 1.328 . S
C257 C263 1.516 . S
C258 C259 1.304 . S
C258 C262 1.323 . S
C259 C258 1.304 . S
C259 C260 1.371 . S
C259 H268 0.930 . S
C260 C257 1.344 . S
C260 C259 1.371 . S
C260 H269 0.931 . S
C261 C257 1.328 . S
C261 C262 1.433 . S
C261 H270 0.931 . S
C262 C258 1.323 . S
C262 C261 1.433 . S
C262 H271 0.933 . S
C263 Dy233 2.738 . S
C263 O243 1.255 . S
C263 O244 1.249 . S
C263 C257 1.516 . S
H264 C250 0.930 . S
H265 C251 0.931 . S
H266 C252 0.931 . S
H267 C253 0.933 . S
H268 C259 0.930 . S
H269 C260 0.931 . S
H270 C261 0.931 . S
H271 C262 0.933 . S
Dy272 O275 2.307 1_556 S
Dy272 O277 2.395 . S
Dy272 O278 2.379 . S
Dy272 O280 2.339 . S
Dy272 O282 2.298 . S
Dy272 O286 2.275 1_556 S
Dy272 C294 2.738 . S
Dy273 O276 2.298 . S
Dy273 O279 2.275 1_554 S
Dy273 O281 2.311 1_455 S
Dy273 O283 2.395 . S
Dy273 O284 2.379 . S
Dy273 O287 2.339 . S
Dy273 C303 2.738 . S
C274 O286 1.254 . S
C274 O287 1.257 . S
O275 Dy272 2.307 1_554 S
O275 C285 1.266 . S
O276 Dy273 2.298 . S
O276 C285 1.236 . S
O277 Dy272 2.395 . S
O277 C294 1.255 . S
O278 Dy272 2.379 . S
O278 C294 1.249 . S
O279 Dy273 2.275 1_556 S
O279 C295 1.254 . S
O280 Dy272 2.339 . S
O280 C295 1.257 . S
O281 Dy273 2.311 1_655 S
O281 C296 1.264 1_554 S
O282 Dy272 2.298 . S
O282 C296 1.236 1_455 S
O283 Dy273 2.395 . S
O283 C303 1.255 . S
O284 Dy273 2.379 . S
O284 C303 1.249 . S
C285 O275 1.266 . S
C285 O276 1.236 . S
O286 Dy272 2.275 1_554 S
O286 C274 1.254 . S
O287 Dy273 2.339 . S
O287 C274 1.257 . S
C288 C291 1.344 . S
C288 C292 1.328 . S
C288 C294 1.516 1_655 S
C289 C290 1.304 . S
C289 C293 1.323 . S
C290 C289 1.304 . S
C290 C291 1.371 . S
C290 H304 0.930 . S
C291 C288 1.344 . S
C291 C290 1.371 . S
C291 H305 0.931 . S
C292 C288 1.328 . S
C292 C293 1.433 . S
C292 H306 0.931 1_655 S
C293 C289 1.323 . S
C293 C292 1.433 . S
C293 H307 0.933 . S
C294 Dy272 2.738 . S
C294 O277 1.255 . S
C294 O278 1.249 . S
C294 C288 1.516 1_455 S
C295 O279 1.254 . S
C295 O280 1.257 . S
C296 O281 1.264 1_556 S
C296 O282 1.236 1_655 S
C297 C300 1.344 . S
C297 C301 1.328 . S
C297 C303 1.516 . S
C298 C299 1.304 . S
C298 C302 1.323 . S
C299 C298 1.304 . S
C299 C300 1.371 . S
C299 H308 0.930 . S
C300 C297 1.344 . S
C300 C299 1.371 . S
C300 H309 0.931 . S
C301 C297 1.328 . S
C301 C302 1.433 . S
C301 H310 0.931 . S
C302 C298 1.323 . S
C302 C301 1.433 . S
C302 H311 0.933 . S
C303 Dy273 2.738 . S
C303 O283 1.255 . S
C303 O284 1.249 . S
C303 C297 1.516 . S
H304 C290 0.930 . S
H305 C291 0.931 . S
H306 C292 0.931 1_455 S
H307 C293 0.933 . S
H308 C299 0.930 . S
H309 C300 0.931 . S
H310 C301 0.931 . S
H311 C302 0.933 . S
H312 C330 0.951 . S
H313 C332 0.951 . S
H314 C334 0.950 . S
H315 C335 0.950 . S
H316 C337 0.950 . S
H317 C340 0.950 . S
H318 C341 0.950 . S
H319 C343 0.950 . S
H320 C344 0.950 . S
H321 C345 0.951 . S
H322 C347 0.951 . S
H323 C349 0.950 . S
H324 C350 0.950 . S
H325 C352 0.950 . S
H326 C355 0.950 . S
H327 C356 0.950 . S
H328 C358 0.950 . S
H329 C359 0.950 . S
C330 H312 0.951 . S
C330 C331 1.366 . S
C330 C332 1.388 . S
C331 C330 1.366 . S
C331 C335 1.385 . S
C332 H313 0.951 . S
C332 C330 1.388 . S
C332 C333 1.366 . S
C333 C332 1.366 . S
C333 C334 1.414 . S
C333 C336 1.499 . S
C334 H314 0.950 . S
C334 C333 1.414 . S
C334 C335 1.374 . S
C335 H315 0.950 . S
C335 C331 1.385 . S
C335 C334 1.374 . S
C336 C333 1.499 . S
C336 C337 1.373 . S
C336 C338 1.389 . S
C337 H316 0.950 . S
C337 C336 1.373 . S
C337 C353 1.377 . S
C338 C336 1.389 . S
C338 C339 1.524 . S
C338 C352 1.377 . S
C339 C338 1.524 . S
C339 C340 1.397 . S
C339 C344 1.363 . S
C340 H317 0.950 . S
C340 C339 1.397 . S
C340 C341 1.334 . S
C341 H318 0.950 . S
C341 C340 1.334 . S
C341 C342 1.287 . S
C342 C341 1.287 . S
C342 C343 1.524 . S
C342 H361 0.913 . S
C343 H319 0.950 . S
C343 C342 1.524 . S
C343 C344 1.415 . S
C344 H320 0.950 . S
C344 C339 1.363 . S
C344 C343 1.415 . S
C345 H321 0.951 . S
C345 C346 1.366 . S
C345 C347 1.388 . S
C346 C345 1.366 . S
C346 C350 1.385 . S
C347 H322 0.951 . S
C347 C345 1.388 . S
C347 C348 1.366 . S
C348 C347 1.366 . S
C348 C349 1.414 . S
C348 C351 1.499 . S
C349 H323 0.950 . S
C349 C348 1.414 . S
C349 C350 1.374 . S
C350 H324 0.950 . S
C350 C346 1.385 . S
C350 C349 1.374 . S
C351 C348 1.499 . S
C351 C352 1.373 . S
C351 C353 1.389 . S
C352 H325 0.950 . S
C352 C338 1.377 . S
C352 C351 1.373 . S
C353 C337 1.377 . S
C353 C351 1.389 . S
C353 C354 1.524 . S
C354 C353 1.524 . S
C354 C355 1.397 . S
C354 C359 1.363 . S
C355 H326 0.950 . S
C355 C354 1.397 . S
C355 C356 1.334 . S
C356 H327 0.950 . S
C356 C355 1.334 . S
C356 C357 1.287 . S
C357 C356 1.287 . S
C357 C358 1.524 . S
C357 H360 0.999 . S
C358 H328 0.950 . S
C358 C357 1.524 . S
C358 C359 1.415 . S
C359 H329 0.950 . S
C359 C354 1.363 . S
C359 C358 1.415 . S
H360 C357 0.999 . S
H361 C342 0.913 . S
H362 C380 0.951 . S
H363 C382 0.951 . S
H364 C384 0.950 . S
H365 C385 0.950 . S
H366 C387 0.950 . S
H367 C390 0.950 . S
H368 C391 0.950 . S
H369 C393 0.950 . S
H370 C394 0.950 . S
H371 C395 0.951 . S
H372 C397 0.951 . S
H373 C399 0.950 . S
H374 C400 0.950 . S
H375 C402 0.950 . S
H376 C405 0.950 . S
H377 C406 0.950 . S
H378 C408 0.950 . S
H379 C409 0.950 . S
C380 H362 0.951 . S
C380 C381 1.366 . S
C380 C382 1.388 . S
C381 C380 1.366 . S
C381 C385 1.385 . S
C382 H363 0.951 . S
C382 C380 1.388 . S
C382 C383 1.366 . S
C383 C382 1.366 . S
C383 C384 1.414 . S
C383 C386 1.499 . S
C384 H364 0.950 . S
C384 C383 1.414 . S
C384 C385 1.374 . S
C385 H365 0.950 . S
C385 C381 1.385 . S
C385 C384 1.374 . S
C386 C383 1.499 . S
C386 C387 1.373 . S
C386 C388 1.389 . S
C387 H366 0.950 . S
C387 C386 1.373 . S
C387 C403 1.377 . S
C388 C386 1.389 . S
C388 C389 1.524 . S
C388 C402 1.377 . S
C389 C388 1.524 . S
C389 C390 1.397 . S
C389 C394 1.363 . S
C390 H367 0.950 . S
C390 C389 1.397 . S
C390 C391 1.334 . S
C391 H368 0.950 . S
C391 C390 1.334 . S
C391 C392 1.287 . S
C392 C391 1.287 . S
C392 C393 1.524 . S
C392 H411 0.913 . S
C393 H369 0.950 . S
C393 C392 1.524 . S
C393 C394 1.415 . S
C394 H370 0.950 . S
C394 C389 1.363 . S
C394 C393 1.415 . S
C395 H371 0.951 . S
C395 C396 1.366 . S
C395 C397 1.388 . S
C396 C395 1.366 . S
C396 C400 1.385 . S
C397 H372 0.951 . S
C397 C395 1.388 . S
C397 C398 1.366 . S
C398 C397 1.366 . S
C398 C399 1.414 . S
C398 C401 1.499 . S
C399 H373 0.950 . S
C399 C398 1.414 . S
C399 C400 1.374 . S
C400 H374 0.950 . S
C400 C396 1.385 . S
C400 C399 1.374 . S
C401 C398 1.499 . S
C401 C402 1.373 . S
C401 C403 1.389 . S
C402 H375 0.950 . S
C402 C388 1.377 . S
C402 C401 1.373 . S
C403 C387 1.377 . S
C403 C401 1.389 . S
C403 C404 1.524 . S
C404 C403 1.524 . S
C404 C405 1.397 . S
C404 C409 1.363 . S
C405 H376 0.950 . S
C405 C404 1.397 . S
C405 C406 1.334 . S
C406 H377 0.950 . S
C406 C405 1.334 . S
C406 C407 1.287 . S
C407 C406 1.287 . S
C407 C408 1.524 . S
C407 H410 0.999 . S
C408 H378 0.950 . S
C408 C407 1.524 . S
C408 C409 1.415 . S
C409 H379 0.950 . S
C409 C404 1.363 . S
C409 C408 1.415 . S
H410 C407 0.999 . S
H411 C392 0.913 . S
H412 C430 0.951 . S
H413 C432 0.951 . S
H414 C434 0.950 . S
H415 C435 0.950 . S
H416 C437 0.950 . S
H417 C440 0.950 . S
H418 C441 0.950 . S
H419 C443 0.950 . S
H420 C444 0.950 . S
H421 C445 0.951 . S
H422 C447 0.951 . S
H423 C449 0.950 . S
H424 C450 0.950 . S
H425 C452 0.950 . S
H426 C455 0.950 . S
H427 C456 0.950 . S
H428 C458 0.950 . S
H429 C459 0.950 . S
C430 H412 0.951 . S
C430 C431 1.366 . S
C430 C432 1.388 . S
C431 C430 1.366 . S
C431 C435 1.385 . S
C432 H413 0.951 . S
C432 C430 1.388 . S
C432 C433 1.366 . S
C433 C432 1.366 . S
C433 C434 1.414 . S
C433 C436 1.499 . S
C434 H414 0.950 . S
C434 C433 1.414 . S
C434 C435 1.374 . S
C435 H415 0.950 . S
C435 C431 1.385 . S
C435 C434 1.374 . S
C436 C433 1.499 . S
C436 C437 1.373 . S
C436 C438 1.389 . S
C437 H416 0.950 . S
C437 C436 1.373 . S
C437 C453 1.377 . S
C438 C436 1.389 . S
C438 C439 1.524 . S
C438 C452 1.377 . S
C439 C438 1.524 . S
C439 C440 1.397 . S
C439 C444 1.363 . S
C440 H417 0.950 . S
C440 C439 1.397 . S
C440 C441 1.334 . S
C441 H418 0.950 . S
C441 C440 1.334 . S
C441 C442 1.287 . S
C442 C441 1.287 . S
C442 C443 1.524 . S
C442 H461 0.913 . S
C443 H419 0.950 . S
C443 C442 1.524 . S
C443 C444 1.415 . S
C444 H420 0.950 . S
C444 C439 1.363 . S
C444 C443 1.415 . S
C445 H421 0.951 . S
C445 C446 1.366 . S
C445 C447 1.388 . S
C446 C445 1.366 . S
C446 C450 1.385 . S
C447 H422 0.951 . S
C447 C445 1.388 . S
C447 C448 1.366 . S
C448 C447 1.366 . S
C448 C449 1.414 . S
C448 C451 1.499 . S
C449 H423 0.950 . S
C449 C448 1.414 . S
C449 C450 1.374 . S
C450 H424 0.950 . S
C450 C446 1.385 . S
C450 C449 1.374 . S
C451 C448 1.499 . S
C451 C452 1.373 . S
C451 C453 1.389 . S
C452 H425 0.950 . S
C452 C438 1.377 . S
C452 C451 1.373 . S
C453 C437 1.377 . S
C453 C451 1.389 . S
C453 C454 1.524 . S
C454 C453 1.524 . S
C454 C455 1.397 . S
C454 C459 1.363 . S
C455 H426 0.950 . S
C455 C454 1.397 . S
C455 C456 1.334 . S
C456 H427 0.950 . S
C456 C455 1.334 . S
C456 C457 1.287 . S
C457 C456 1.287 . S
C457 C458 1.524 . S
C457 H460 0.999 . S
C458 H428 0.950 . S
C458 C457 1.524 . S
C458 C459 1.415 . S
C459 H429 0.950 . S
C459 C454 1.363 . S
C459 C458 1.415 . S
H460 C457 0.999 . S
H461 C442 0.913 . S
H462 C480 0.951 . S
H463 C482 0.951 . S
H464 C484 0.950 . S
H465 C485 0.950 . S
H466 C487 0.950 . S
H467 C490 0.950 . S
H468 C491 0.950 . S
H469 C493 0.950 . S
H470 C494 0.950 . S
H471 C495 0.951 . S
H472 C497 0.960 . S
H473 C499 0.950 . S
H474 C500 0.950 . S
H475 C502 0.950 . S
H476 C505 0.950 . S
H477 C506 0.950 . S
H478 C508 0.950 1_455 S
H479 C509 0.950 . S
C480 H462 0.951 . S
C480 C481 1.366 . S
C480 C482 1.388 . S
C481 C480 1.366 . S
C481 C485 1.385 . S
C482 H463 0.951 . S
C482 C480 1.388 . S
C482 C483 1.366 . S
C483 C482 1.366 . S
C483 C484 1.414 . S
C483 C486 1.499 . S
C484 H464 0.950 . S
C484 C483 1.414 . S
C484 C485 1.374 . S
C485 H465 0.950 . S
C485 C481 1.385 . S
C485 C484 1.374 . S
C486 C483 1.499 . S
C486 C487 1.373 . S
C486 C488 1.389 . S
C487 H466 0.950 . S
C487 C486 1.373 . S
C487 C503 1.377 . S
C488 C486 1.389 . S
C488 C489 1.524 . S
C488 C502 1.377 . S
C489 C488 1.524 . S
C489 C490 1.397 . S
C489 C494 1.363 . S
C490 H467 0.950 . S
C490 C489 1.397 . S
C490 C491 1.334 . S
C491 H468 0.950 . S
C491 C490 1.334 . S
C491 C492 1.287 . S
C492 C491 1.287 . S
C492 C493 1.524 . S
C492 H511 0.913 . S
C493 H469 0.950 . S
C493 C492 1.524 . S
C493 C494 1.415 . S
C494 H470 0.950 . S
C494 C489 1.363 . S
C494 C493 1.415 . S
C495 H471 0.951 . S
C495 C496 1.366 1_455 S
C495 C497 1.408 . S
C496 C495 1.366 1_655 S
C496 C500 1.385 . S
C497 H472 0.960 . S
C497 C495 1.408 . S
C497 C498 1.337 1_455 S
C498 C497 1.337 1_655 S
C498 C499 1.414 . S
C498 C501 1.499 . S
C499 H473 0.950 . S
C499 C498 1.414 . S
C499 C500 1.374 . S
C500 H474 0.950 . S
C500 C496 1.385 . S
C500 C499 1.374 . S
C501 C498 1.499 . S
C501 C502 1.373 . S
C501 C503 1.389 . S
C502 H475 0.950 . S
C502 C488 1.377 . S
C502 C501 1.373 . S
C503 C487 1.377 . S
C503 C501 1.389 . S
C503 C504 1.524 . S
C504 C503 1.524 . S
C504 C505 1.397 . S
C504 C509 1.363 . S
C505 H476 0.950 . S
C505 C504 1.397 . S
C505 C506 1.334 . S
C506 H477 0.950 . S
C506 C505 1.334 . S
C506 C507 1.287 . S
C507 C506 1.287 . S
C507 C508 1.524 . S
C507 H510 0.999 . S
C508 H478 0.950 1_655 S
C508 C507 1.524 . S
C508 C509 1.415 . S
C509 H479 0.950 . S
C509 C504 1.363 . S
C509 C508 1.415 . S
H510 C507 0.999 . S
H511 C492 0.913 . S
H512 C530 0.951 . S
H513 C532 0.951 . S
H514 C534 0.950 . S
H515 C535 0.950 . S
H516 C537 0.950 . S
H517 C540 0.950 . S
H518 C541 0.950 . S
H519 C543 0.950 . S
H520 C544 0.950 . S
H521 C545 0.951 . S
H522 C547 0.951 . S
H523 C549 0.950 . S
H524 C550 0.950 . S
H525 C552 0.950 . S
H526 C555 0.950 . S
H527 C556 0.950 . S
H528 C558 0.950 . S
H529 C559 0.950 . S
C530 H512 0.951 . S
C530 C531 1.366 . S
C530 C532 1.388 . S
C531 C530 1.366 . S
C531 C535 1.385 . S
C532 H513 0.951 . S
C532 C530 1.388 . S
C532 C533 1.366 . S
C533 C532 1.366 . S
C533 C534 1.414 . S
C533 C536 1.499 . S
C534 H514 0.950 . S
C534 C533 1.414 . S
C534 C535 1.374 . S
C535 H515 0.950 . S
C535 C531 1.385 . S
C535 C534 1.374 . S
C536 C533 1.499 . S
C536 C537 1.373 . S
C536 C538 1.389 . S
C537 H516 0.950 . S
C537 C536 1.373 . S
C537 C553 1.377 . S
C538 C536 1.389 . S
C538 C539 1.524 . S
C538 C552 1.377 . S
C539 C538 1.524 . S
C539 C540 1.397 . S
C539 C544 1.363 . S
C540 H517 0.950 . S
C540 C539 1.397 . S
C540 C541 1.334 . S
C541 H518 0.950 . S
C541 C540 1.334 . S
C541 C542 1.287 . S
C542 C541 1.287 . S
C542 C543 1.524 . S
C542 H561 0.913 . S
C543 H519 0.950 . S
C543 C542 1.524 . S
C543 C544 1.415 . S
C544 H520 0.950 . S
C544 C539 1.363 . S
C544 C543 1.415 . S
C545 H521 0.951 . S
C545 C546 1.366 . S
C545 C547 1.388 . S
C546 C545 1.366 . S
C546 C550 1.385 . S
C547 H522 0.951 . S
C547 C545 1.388 . S
C547 C548 1.366 . S
C548 C547 1.366 . S
C548 C549 1.414 . S
C548 C551 1.499 . S
C549 H523 0.950 . S
C549 C548 1.414 . S
C549 C550 1.374 . S
C550 H524 0.950 . S
C550 C546 1.385 . S
C550 C549 1.374 . S
C551 C548 1.499 . S
C551 C552 1.373 . S
C551 C553 1.389 . S
C552 H525 0.950 . S
C552 C538 1.377 . S
C552 C551 1.373 . S
C553 C537 1.377 . S
C553 C551 1.389 . S
C553 C554 1.524 . S
C554 C553 1.524 . S
C554 C555 1.397 . S
C554 C559 1.363 . S
C555 H526 0.950 . S
C555 C554 1.397 . S
C555 C556 1.334 . S
C556 H527 0.950 . S
C556 C555 1.334 . S
C556 C557 1.287 . S
C557 C556 1.287 . S
C557 C558 1.524 . S
C557 H560 0.999 . S
C558 H528 0.950 . S
C558 C557 1.524 . S
C558 C559 1.415 . S
C559 H529 0.950 . S
C559 C554 1.363 . S
C559 C558 1.415 . S
H560 C557 0.999 . S
H561 C542 0.913 . S
H562 C580 0.951 . S
H563 C582 0.951 . S
H564 C584 0.950 . S
H565 C585 0.950 . S
H566 C587 0.950 . S
H567 C590 0.950 . S
H568 C591 0.950 . S
H569 C593 0.950 . S
H570 C594 0.950 . S
H571 C595 0.951 1_545 S
H572 C597 0.951 . S
H573 C599 0.950 . S
H574 C600 0.950 . S
H575 C602 0.950 . S
H576 C605 0.950 . S
H577 C606 0.950 1_655 S
H578 C608 0.950 . S
H579 C609 0.950 . S
C580 H562 0.951 . S
C580 C581 1.366 . S
C580 C582 1.388 . S
C581 C580 1.366 . S
C581 C585 1.385 . S
C582 H563 0.951 . S
C582 C580 1.388 . S
C582 C583 1.366 . S
C583 C582 1.366 . S
C583 C584 1.414 . S
C583 C586 1.499 . S
C584 H564 0.950 . S
C584 C583 1.414 . S
C584 C585 1.374 . S
C585 H565 0.950 . S
C585 C581 1.385 . S
C585 C584 1.374 . S
C586 C583 1.499 . S
C586 C587 1.373 . S
C586 C588 1.389 . S
C587 H566 0.950 . S
C587 C586 1.373 . S
C587 C603 1.377 . S
C588 C586 1.389 . S
C588 C589 1.524 . S
C588 C602 1.377 . S
C589 C588 1.524 . S
C589 C590 1.397 . S
C589 C594 1.363 . S
C590 H567 0.950 . S
C590 C589 1.397 . S
C590 C591 1.334 . S
C591 H568 0.950 . S
C591 C590 1.334 . S
C591 C592 1.287 . S
C592 C591 1.287 . S
C592 C593 1.524 . S
C592 H611 0.913 . S
C593 H569 0.950 . S
C593 C592 1.524 . S
C593 C594 1.415 . S
C594 H570 0.950 . S
C594 C589 1.363 . S
C594 C593 1.415 . S
C595 H571 0.951 1_565 S
C595 C596 1.366 . S
C595 C597 1.388 . S
C596 C595 1.366 . S
C596 C600 1.385 . S
C597 H572 0.951 . S
C597 C595 1.388 . S
C597 C598 1.366 . S
C598 C597 1.366 . S
C598 C599 1.414 . S
C598 C601 1.499 . S
C599 H573 0.950 . S
C599 C598 1.414 . S
C599 C600 1.374 . S
C600 H574 0.950 . S
C600 C596 1.385 . S
C600 C599 1.374 . S
C601 C598 1.499 . S
C601 C602 1.373 . S
C601 C603 1.389 . S
C602 H575 0.950 . S
C602 C588 1.377 . S
C602 C601 1.373 . S
C603 C587 1.377 . S
C603 C601 1.389 . S
C603 C604 1.524 . S
C604 C603 1.524 . S
C604 C605 1.397 . S
C604 C609 1.363 . S
C605 H576 0.950 . S
C605 C604 1.397 . S
C605 C606 1.334 . S
C606 H577 0.950 1_455 S
C606 C605 1.334 . S
C606 C607 1.287 . S
C607 C606 1.287 . S
C607 C608 1.524 . S
C607 H610 0.999 . S
C608 H578 0.950 . S
C608 C607 1.524 . S
C608 C609 1.415 . S
C609 H579 0.950 . S
C609 C604 1.363 . S
C609 C608 1.415 . S
H610 C607 0.999 . S
H611 C592 0.913 . S
H612 C630 0.951 . S
H613 C632 0.951 . S
H614 C634 0.950 . S
H615 C635 0.950 . S
H616 C637 0.950 . S
H617 C640 0.950 . S
H618 C641 0.950 . S
H619 C643 0.950 . S
H620 C644 0.950 . S
H621 C645 0.951 . S
H622 C647 0.951 . S
H623 C649 0.950 . S
H624 C650 0.950 . S
H625 C652 0.950 . S
H626 C655 0.950 . S
H627 C656 0.950 . S
H628 C658 0.950 . S
H629 C659 0.950 . S
C630 H612 0.951 . S
C630 C631 1.366 . S
C630 C632 1.388 . S
C631 C630 1.366 . S
C631 C635 1.385 . S
C632 H613 0.951 . S
C632 C630 1.388 . S
C632 C633 1.366 . S
C633 C632 1.366 . S
C633 C634 1.414 . S
C633 C636 1.499 . S
C634 H614 0.950 . S
C634 C633 1.414 . S
C634 C635 1.374 . S
C635 H615 0.950 . S
C635 C631 1.385 . S
C635 C634 1.374 . S
C636 C633 1.499 . S
C636 C637 1.373 . S
C636 C638 1.389 . S
C637 H616 0.950 . S
C637 C636 1.373 . S
C637 C653 1.377 . S
C638 C636 1.389 . S
C638 C639 1.524 . S
C638 C652 1.377 . S
C639 C638 1.524 . S
C639 C640 1.397 . S
C639 C644 1.363 . S
C640 H617 0.950 . S
C640 C639 1.397 . S
C640 C641 1.334 . S
C641 H618 0.950 . S
C641 C640 1.334 . S
C641 C642 1.287 . S
C642 C641 1.287 . S
C642 C643 1.524 . S
C642 H661 0.913 . S
C643 H619 0.950 . S
C643 C642 1.524 . S
C643 C644 1.415 . S
C644 H620 0.950 . S
C644 C639 1.363 . S
C644 C643 1.415 . S
C645 H621 0.951 . S
C645 C646 1.366 . S
C645 C647 1.388 . S
C646 C645 1.366 . S
C646 C650 1.385 . S
C647 H622 0.951 . S
C647 C645 1.388 . S
C647 C648 1.366 . S
C648 C647 1.366 . S
C648 C649 1.414 . S
C648 C651 1.499 . S
C649 H623 0.950 . S
C649 C648 1.414 . S
C649 C650 1.374 . S
C650 H624 0.950 . S
C650 C646 1.385 . S
C650 C649 1.374 . S
C651 C648 1.499 . S
C651 C652 1.373 . S
C651 C653 1.389 . S
C652 H625 0.950 . S
C652 C638 1.377 . S
C652 C651 1.373 . S
C653 C637 1.377 . S
C653 C651 1.389 . S
C653 C654 1.524 . S
C654 C653 1.524 . S
C654 C655 1.397 . S
C654 C659 1.363 . S
C655 H626 0.950 . S
C655 C654 1.397 . S
C655 C656 1.334 . S
C656 H627 0.950 . S
C656 C655 1.334 . S
C656 C657 1.287 . S
C657 C656 1.287 . S
C657 C658 1.524 . S
C657 H660 0.999 . S
C658 H628 0.950 . S
C658 C657 1.524 . S
C658 C659 1.415 . S
C659 H629 0.950 . S
C659 C654 1.363 . S
C659 C658 1.415 . S
H660 C657 0.999 . S
H661 C642 0.913 . S
H662 C680 0.951 . S
H663 C682 0.951 . S
H664 C684 0.950 . S
H665 C685 0.950 . S
H666 C687 0.950 . S
H667 C690 0.950 . S
H668 C691 0.950 . S
H669 C693 0.950 . S
H670 C694 0.950 . S
H671 C695 0.951 . S
H672 C697 0.951 . S
H673 C699 0.950 . S
H674 C700 0.950 . S
H675 C702 0.950 . S
H676 C705 0.950 . S
H677 C706 0.950 . S
H678 C708 0.950 . S
H679 C709 0.950 . S
C680 H662 0.951 . S
C680 C681 1.366 . S
C680 C682 1.388 . S
C681 C680 1.366 . S
C681 C685 1.385 . S
C682 H663 0.951 . S
C682 C680 1.388 . S
C682 C683 1.366 . S
C683 C682 1.366 . S
C683 C684 1.414 . S
C683 C686 1.499 . S
C684 H664 0.950 . S
C684 C683 1.414 . S
C684 C685 1.374 . S
C685 H665 0.950 . S
C685 C681 1.385 . S
C685 C684 1.374 . S
C686 C683 1.499 . S
C686 C687 1.373 . S
C686 C688 1.389 . S
C687 H666 0.950 . S
C687 C686 1.373 . S
C687 C703 1.377 . S
C688 C686 1.389 . S
C688 C689 1.524 . S
C688 C702 1.377 . S
C689 C688 1.524 . S
C689 C690 1.397 . S
C689 C694 1.363 . S
C690 H667 0.950 . S
C690 C689 1.397 . S
C690 C691 1.334 . S
C691 H668 0.950 . S
C691 C690 1.334 . S
C691 C692 1.287 . S
C692 C691 1.287 . S
C692 C693 1.524 . S
C692 H711 0.913 . S
C693 H669 0.950 . S
C693 C692 1.524 . S
C693 C694 1.415 . S
C694 H670 0.950 . S
C694 C689 1.363 . S
C694 C693 1.415 . S
C695 H671 0.951 . S
C695 C696 1.366 . S
C695 C697 1.388 . S
C696 C695 1.366 . S
C696 C700 1.385 . S
C697 H672 0.951 . S
C697 C695 1.388 . S
C697 C698 1.366 . S
C698 C697 1.366 . S
C698 C699 1.414 . S
C698 C701 1.499 . S
C699 H673 0.950 . S
C699 C698 1.414 . S
C699 C700 1.374 . S
C700 H674 0.950 . S
C700 C696 1.385 . S
C700 C699 1.374 . S
C701 C698 1.499 . S
C701 C702 1.373 . S
C701 C703 1.389 . S
C702 H675 0.950 . S
C702 C688 1.377 . S
C702 C701 1.373 . S
C703 C687 1.377 . S
C703 C701 1.389 . S
C703 C704 1.524 . S
C704 C703 1.524 . S
C704 C705 1.397 . S
C704 C709 1.363 . S
C705 H676 0.950 . S
C705 C704 1.397 . S
C705 C706 1.334 . S
C706 H677 0.950 . S
C706 C705 1.334 . S
C706 C707 1.287 . S
C707 C706 1.287 . S
C707 C708 1.524 . S
C707 H710 0.999 . S
C708 H678 0.950 . S
C708 C707 1.524 . S
C708 C709 1.415 . S
C709 H679 0.950 . S
C709 C704 1.363 . S
C709 C708 1.415 . S
H710 C707 0.999 . S
H711 C692 0.913 . S
H712 C730 0.951 . S
H713 C732 0.951 . S
H714 C734 0.950 . S
H715 C735 0.950 . S
H716 C737 0.950 . S
H717 C740 0.950 . S
H718 C741 0.950 . S
H719 C743 0.950 . S
H720 C744 0.950 . S
H721 C745 0.951 . S
H722 C747 0.951 . S
H723 C749 0.950 . S
H724 C750 0.950 . S
H725 C752 0.950 . S
H726 C755 0.950 . S
H727 C756 0.950 . S
H728 C758 0.950 . S
H729 C759 0.950 . S
C730 H712 0.951 . S
C730 C731 1.366 . S
C730 C732 1.388 . S
C731 C730 1.366 . S
C731 C735 1.385 . S
C732 H713 0.951 . S
C732 C730 1.388 . S
C732 C733 1.366 . S
C733 C732 1.366 . S
C733 C734 1.414 . S
C733 C736 1.499 . S
C734 H714 0.950 . S
C734 C733 1.414 . S
C734 C735 1.374 . S
C735 H715 0.950 . S
C735 C731 1.385 . S
C735 C734 1.374 . S
C736 C733 1.499 . S
C736 C737 1.373 . S
C736 C738 1.389 . S
C737 H716 0.950 . S
C737 C736 1.373 . S
C737 C753 1.377 . S
C738 C736 1.389 . S
C738 C739 1.524 . S
C738 C752 1.377 . S
C739 C738 1.524 . S
C739 C740 1.397 . S
C739 C744 1.363 . S
C740 H717 0.950 . S
C740 C739 1.397 . S
C740 C741 1.334 . S
C741 H718 0.950 . S
C741 C740 1.334 . S
C741 C742 1.287 . S
C742 C741 1.287 . S
C742 C743 1.524 . S
C742 H761 0.913 . S
C743 H719 0.950 . S
C743 C742 1.524 . S
C743 C744 1.415 . S
C744 H720 0.950 . S
C744 C739 1.363 . S
C744 C743 1.415 . S
C745 H721 0.951 . S
C745 C746 1.366 . S
C745 C747 1.388 . S
C746 C745 1.366 . S
C746 C750 1.385 . S
C747 H722 0.951 . S
C747 C745 1.388 . S
C747 C748 1.366 . S
C748 C747 1.366 . S
C748 C749 1.414 . S
C748 C751 1.499 . S
C749 H723 0.950 . S
C749 C748 1.414 . S
C749 C750 1.374 . S
C750 H724 0.950 . S
C750 C746 1.385 . S
C750 C749 1.374 . S
C751 C748 1.499 . S
C751 C752 1.373 . S
C751 C753 1.389 . S
C752 H725 0.950 . S
C752 C738 1.377 . S
C752 C751 1.373 . S
C753 C737 1.377 . S
C753 C751 1.389 . S
C753 C754 1.524 . S
C754 C753 1.524 . S
C754 C755 1.397 . S
C754 C759 1.363 . S
C755 H726 0.950 . S
C755 C754 1.397 . S
C755 C756 1.334 . S
C756 H727 0.950 . S
C756 C755 1.334 . S
C756 C757 1.287 . S
C757 C756 1.287 . S
C757 C758 1.524 . S
C757 H760 0.999 . S
C758 H728 0.950 . S
C758 C757 1.524 . S
C758 C759 1.415 . S
C759 H729 0.950 . S
C759 C754 1.363 . S
C759 C758 1.415 . S
H760 C757 0.999 . S
H761 C742 0.913 . S
H762 C780 0.951 . S
H763 C782 0.951 . S
H764 C784 0.950 . S
H765 C785 0.950 . S
H766 C787 0.950 . S
H767 C790 0.950 1_556 S
H768 C791 0.950 . S
H769 C793 0.950 . S
H770 C794 0.950 . S
H771 C795 0.951 . S
H772 C797 0.951 . S
H773 C799 0.950 . S
H774 C800 0.950 . S
H775 C802 0.950 1_554 S
H776 C805 0.950 . S
H777 C806 0.950 . S
H778 C808 0.950 . S
H779 C809 0.950 . S
C780 H762 0.951 . S
C780 C781 1.366 . S
C780 C782 1.388 . S
C781 C780 1.366 . S
C781 C785 1.385 . S
C782 H763 0.951 . S
C782 C780 1.388 . S
C782 C783 1.366 . S
C783 C782 1.366 . S
C783 C784 1.414 . S
C783 C786 1.499 . S
C784 H764 0.950 . S
C784 C783 1.414 . S
C784 C785 1.374 . S
C785 H765 0.950 . S
C785 C781 1.385 . S
C785 C784 1.374 . S
C786 C783 1.499 . S
C786 C787 1.373 . S
C786 C788 1.389 . S
C787 H766 0.950 . S
C787 C786 1.373 . S
C787 C803 1.377 . S
C788 C786 1.389 . S
C788 C789 1.528 . S
C788 C802 1.377 . S
C789 C788 1.528 . S
C789 C790 1.396 1_556 S
C789 C794 1.360 1_556 S
C790 H767 0.950 1_554 S
C790 C789 1.396 1_554 S
C790 C791 1.334 . S
C791 H768 0.950 . S
C791 C790 1.334 . S
C791 C792 1.287 . S
C792 C791 1.287 . S
C792 C793 1.524 . S
C792 H811 0.913 . S
C793 H769 0.950 . S
C793 C792 1.524 . S
C793 C794 1.415 . S
C794 H770 0.950 . S
C794 C789 1.360 1_554 S
C794 C793 1.415 . S
C795 H771 0.951 . S
C795 C796 1.366 . S
C795 C797 1.388 1_554 S
C796 C795 1.366 . S
C796 C800 1.385 . S
C797 H772 0.951 . S
C797 C795 1.388 1_556 S
C797 C798 1.366 . S
C798 C797 1.366 . S
C798 C799 1.414 1_556 S
C798 C801 1.499 . S
C799 H773 0.950 . S
C799 C798 1.414 1_554 S
C799 C800 1.374 . S
C800 H774 0.950 . S
C800 C796 1.385 . S
C800 C799 1.374 . S
C801 C798 1.499 . S
C801 C802 1.373 . S
C801 C803 1.389 . S
C802 H775 0.950 1_556 S
C802 C788 1.377 . S
C802 C801 1.373 . S
C803 C787 1.377 . S
C803 C801 1.389 . S
C803 C804 1.524 . S
C804 C803 1.524 . S
C804 C805 1.397 . S
C804 C809 1.363 . S
C805 H776 0.950 . S
C805 C804 1.397 . S
C805 C806 1.334 . S
C806 H777 0.950 . S
C806 C805 1.334 . S
C806 C807 1.287 . S
C807 C806 1.287 . S
C807 C808 1.524 . S
C807 H810 0.999 . S
C808 H778 0.950 . S
C808 C807 1.524 . S
C808 C809 1.415 . S
C809 H779 0.950 . S
C809 C804 1.363 . S
C809 C808 1.415 . S
H810 C807 0.999 . S
H811 C792 0.913 . S
H812 C830 0.951 . S
H813 C832 0.951 . S
H814 C834 0.950 . S
H815 C835 0.950 . S
H816 C837 0.950 . S
H817 C840 0.950 . S
H818 C841 0.950 . S
H819 C843 0.950 . S
H820 C844 0.950 . S
H821 C845 0.951 1_455 S
H822 C847 0.951 . S
H823 C849 0.950 . S
H824 C850 0.950 . S
H825 C852 0.950 . S
H826 C855 0.950 . S
H827 C856 0.950 . S
H828 C858 0.950 . S
H829 C859 0.950 . S
C830 H812 0.951 . S
C830 C831 1.366 . S
C830 C832 1.388 . S
C831 C830 1.366 . S
C831 C835 1.385 . S
C832 H813 0.951 . S
C832 C830 1.388 . S
C832 C833 1.366 . S
C833 C832 1.366 . S
C833 C834 1.414 . S
C833 C836 1.499 . S
C834 H814 0.950 . S
C834 C833 1.414 . S
C834 C835 1.374 . S
C835 H815 0.950 . S
C835 C831 1.385 . S
C835 C834 1.374 . S
C836 C833 1.499 . S
C836 C837 1.373 . S
C836 C838 1.389 . S
C837 H816 0.950 . S
C837 C836 1.373 . S
C837 C853 1.377 . S
C838 C836 1.389 . S
C838 C839 1.524 . S
C838 C852 1.377 . S
C839 C838 1.524 . S
C839 C840 1.397 . S
C839 C844 1.363 . S
C840 H817 0.950 . S
C840 C839 1.397 . S
C840 C841 1.334 . S
C841 H818 0.950 . S
C841 C840 1.334 . S
C841 C842 1.287 . S
C842 C841 1.287 . S
C842 C843 1.524 . S
C842 H861 0.913 . S
C843 H819 0.950 . S
C843 C842 1.524 . S
C843 C844 1.415 . S
C844 H820 0.950 . S
C844 C839 1.363 . S
C844 C843 1.415 . S
C845 H821 0.951 1_655 S
C845 C846 1.366 . S
C845 C847 1.388 . S
C846 C845 1.366 . S
C846 C850 1.385 . S
C847 H822 0.951 . S
C847 C845 1.388 . S
C847 C848 1.366 . S
C848 C847 1.366 . S
C848 C849 1.414 . S
C848 C851 1.499 . S
C849 H823 0.950 . S
C849 C848 1.414 . S
C849 C850 1.374 . S
C850 H824 0.950 . S
C850 C846 1.385 . S
C850 C849 1.374 . S
C851 C848 1.499 . S
C851 C852 1.373 . S
C851 C853 1.389 . S
C852 H825 0.950 . S
C852 C838 1.377 . S
C852 C851 1.373 . S
C853 C837 1.377 . S
C853 C851 1.389 . S
C853 C854 1.524 . S
C854 C853 1.524 . S
C854 C855 1.397 . S
C854 C859 1.363 . S
C855 H826 0.950 . S
C855 C854 1.397 . S
C855 C856 1.334 . S
C856 H827 0.950 . S
C856 C855 1.334 . S
C856 C857 1.287 . S
C857 C856 1.287 . S
C857 C858 1.524 1_655 S
C857 H860 0.999 1_655 S
C858 H828 0.950 . S
C858 C857 1.524 1_455 S
C858 C859 1.415 1_455 S
C859 H829 0.950 . S
C859 C854 1.363 . S
C859 C858 1.415 1_655 S
H860 C857 0.999 1_455 S
H861 C842 0.913 . S
H862 C880 0.951 . S
H863 C882 0.951 . S
H864 C884 0.950 . S
H865 C885 0.950 . S
H866 C887 0.950 . S
H867 C890 0.950 . S
H868 C891 0.950 . S
H869 C893 0.950 . S
H870 C894 0.950 . S
H871 C895 0.951 . S
H872 C897 0.951 . S
H873 C899 0.950 . S
H874 C900 0.950 . S
H875 C902 0.950 . S
H876 C905 0.950 . S
H877 C906 0.950 . S
H878 C908 0.950 . S
H879 C909 0.950 . S
C880 H862 0.951 . S
C880 C881 1.366 . S
C880 C882 1.388 . S
C881 C880 1.366 . S
C881 C885 1.385 . S
C882 H863 0.951 . S
C882 C880 1.388 . S
C882 C883 1.366 . S
C883 C882 1.366 . S
C883 C884 1.414 . S
C883 C886 1.499 . S
C884 H864 0.950 . S
C884 C883 1.414 . S
C884 C885 1.374 . S
C885 H865 0.950 . S
C885 C881 1.385 . S
C885 C884 1.374 . S
C886 C883 1.499 . S
C886 C887 1.373 . S
C886 C888 1.389 . S
C887 H866 0.950 . S
C887 C886 1.373 . S
C887 C903 1.377 . S
C888 C886 1.389 . S
C888 C889 1.524 . S
C888 C902 1.377 . S
C889 C888 1.524 . S
C889 C890 1.397 . S
C889 C894 1.363 . S
C890 H867 0.950 . S
C890 C889 1.397 . S
C890 C891 1.334 . S
C891 H868 0.950 . S
C891 C890 1.334 . S
C891 C892 1.287 . S
C892 C891 1.287 . S
C892 C893 1.524 . S
C892 H911 0.913 . S
C893 H869 0.950 . S
C893 C892 1.524 . S
C893 C894 1.415 . S
C894 H870 0.950 . S
C894 C889 1.363 . S
C894 C893 1.415 . S
C895 H871 0.951 . S
C895 C896 1.366 . S
C895 C897 1.388 . S
C896 C895 1.366 . S
C896 C900 1.385 . S
C897 H872 0.951 . S
C897 C895 1.388 . S
C897 C898 1.366 . S
C898 C897 1.366 . S
C898 C899 1.414 . S
C898 C901 1.499 . S
C899 H873 0.950 . S
C899 C898 1.414 . S
C899 C900 1.374 . S
C900 H874 0.950 . S
C900 C896 1.385 . S
C900 C899 1.374 . S
C901 C898 1.499 . S
C901 C902 1.373 . S
C901 C903 1.389 . S
C902 H875 0.950 . S
C902 C888 1.377 . S
C902 C901 1.373 . S
C903 C887 1.377 . S
C903 C901 1.389 . S
C903 C904 1.524 . S
C904 C903 1.524 . S
C904 C905 1.397 . S
C904 C909 1.363 . S
C905 H876 0.950 . S
C905 C904 1.397 . S
C905 C906 1.334 . S
C906 H877 0.950 . S
C906 C905 1.334 . S
C906 C907 1.287 . S
C907 C906 1.287 . S
C907 C908 1.524 . S
C907 H910 0.999 . S
C908 H878 0.950 . S
C908 C907 1.524 . S
C908 C909 1.415 . S
C909 H879 0.950 . S
C909 C904 1.363 . S
C909 C908 1.415 . S
H910 C907 0.999 . S
H911 C892 0.913 . S
H912 C930 0.951 . S
H913 C932 0.951 . S
H914 C934 0.950 . S
H915 C935 0.950 . S
H916 C937 0.950 . S
H917 C940 0.950 . S
H918 C941 0.950 . S
H919 C943 0.950 . S
H920 C944 0.950 . S
H921 C945 0.951 . S
H922 C947 0.951 . S
H923 C949 0.950 . S
H924 C950 0.950 . S
H925 C952 0.950 . S
H926 C955 0.950 . S
H927 C956 0.950 . S
H928 C958 0.950 . S
H929 C959 0.950 . S
C930 H912 0.951 . S
C930 C931 1.366 . S
C930 C932 1.388 . S
C931 C930 1.366 . S
C931 C935 1.385 . S
C932 H913 0.951 . S
C932 C930 1.388 . S
C932 C933 1.366 . S
C933 C932 1.366 . S
C933 C934 1.414 . S
C933 C936 1.499 . S
C934 H914 0.950 . S
C934 C933 1.414 . S
C934 C935 1.374 . S
C935 H915 0.950 . S
C935 C931 1.385 . S
C935 C934 1.374 . S
C936 C933 1.499 . S
C936 C937 1.373 . S
C936 C938 1.389 . S
C937 H916 0.950 . S
C937 C936 1.373 . S
C937 C953 1.377 . S
C938 C936 1.389 . S
C938 C939 1.524 . S
C938 C952 1.377 . S
C939 C938 1.524 . S
C939 C940 1.397 . S
C939 C944 1.363 . S
C940 H917 0.950 . S
C940 C939 1.397 . S
C940 C941 1.334 . S
C941 H918 0.950 . S
C941 C940 1.334 . S
C941 C942 1.287 . S
C942 C941 1.287 . S
C942 C943 1.524 . S
C942 H961 0.913 . S
C943 H919 0.950 . S
C943 C942 1.524 . S
C943 C944 1.415 . S
C944 H920 0.950 . S
C944 C939 1.363 . S
C944 C943 1.415 . S
C945 H921 0.951 . S
C945 C946 1.366 . S
C945 C947 1.388 . S
C946 C945 1.366 . S
C946 C950 1.385 . S
C947 H922 0.951 . S
C947 C945 1.388 . S
C947 C948 1.366 . S
C948 C947 1.366 . S
C948 C949 1.414 . S
C948 C951 1.499 . S
C949 H923 0.950 . S
C949 C948 1.414 . S
C949 C950 1.374 . S
C950 H924 0.950 . S
C950 C946 1.385 . S
C950 C949 1.374 . S
C951 C948 1.499 . S
C951 C952 1.373 . S
C951 C953 1.389 . S
C952 H925 0.950 . S
C952 C938 1.377 . S
C952 C951 1.373 . S
C953 C937 1.377 . S
C953 C951 1.389 . S
C953 C954 1.524 . S
C954 C953 1.524 . S
C954 C955 1.397 . S
C954 C959 1.363 . S
C955 H926 0.950 . S
C955 C954 1.397 . S
C955 C956 1.334 . S
C956 H927 0.950 . S
C956 C955 1.334 . S
C956 C957 1.287 . S
C957 C956 1.287 . S
C957 C958 1.524 . S
C957 H960 0.999 . S
C958 H928 0.950 . S
C958 C957 1.524 . S
C958 C959 1.415 . S
C959 H929 0.950 . S
C959 C954 1.363 . S
C959 C958 1.415 . S
H960 C957 0.999 . S
H961 C942 0.913 . S
H962 C980 0.951 . S
H963 C982 0.951 . S
H964 C984 0.950 . S
H965 C985 0.950 . S
H966 C987 0.950 . S
H967 C990 0.950 . S
H968 C991 0.950 . S
H969 C993 0.950 . S
H970 C994 0.950 . S
H971 C995 0.951 . S
H972 C997 0.951 . S
H973 C999 0.950 . S
H974 C1000 0.950 . S
H975 C1002 0.950 . S
H976 C1005 0.950 . S
H977 C1006 0.950 . S
H978 C1008 0.950 . S
H979 C1009 0.950 . S
C980 H962 0.951 . S
C980 C981 1.366 . S
C980 C982 1.388 . S
C981 C980 1.366 . S
C981 C985 1.385 . S
C982 H963 0.951 . S
C982 C980 1.388 . S
C982 C983 1.366 . S
C983 C982 1.366 . S
C983 C984 1.414 . S
C983 C986 1.499 . S
C984 H964 0.950 . S
C984 C983 1.414 . S
C984 C985 1.374 . S
C985 H965 0.950 . S
C985 C981 1.385 . S
C985 C984 1.374 . S
C986 C983 1.499 . S
C986 C987 1.373 . S
C986 C988 1.389 . S
C987 H966 0.950 . S
C987 C986 1.373 . S
C987 C1003 1.377 . S
C988 C986 1.389 . S
C988 C989 1.524 . S
C988 C1002 1.377 . S
C989 C988 1.524 . S
C989 C990 1.397 . S
C989 C994 1.363 . S
C990 H967 0.950 . S
C990 C989 1.397 . S
C990 C991 1.334 . S
C991 H968 0.950 . S
C991 C990 1.334 . S
C991 C992 1.287 . S
C992 C991 1.287 . S
C992 C993 1.524 . S
C992 H1011 0.913 . S
C993 H969 0.950 . S
C993 C992 1.524 . S
C993 C994 1.415 . S
C994 H970 0.950 . S
C994 C989 1.363 . S
C994 C993 1.415 . S
C995 H971 0.951 . S
C995 C996 1.366 . S
C995 C997 1.388 . S
C996 C995 1.366 . S
C996 C1000 1.385 . S
C997 H972 0.951 . S
C997 C995 1.388 . S
C997 C998 1.366 . S
C998 C997 1.366 . S
C998 C999 1.414 . S
C998 C1001 1.499 . S
C999 H973 0.950 . S
C999 C998 1.414 . S
C999 C1000 1.374 . S
C1000 H974 0.950 . S
C1000 C996 1.385 . S
C1000 C999 1.374 . S
C1001 C998 1.499 . S
C1001 C1002 1.373 . S
C1001 C1003 1.389 . S
C1002 H975 0.950 . S
C1002 C988 1.377 . S
C1002 C1001 1.373 . S
C1003 C987 1.377 . S
C1003 C1001 1.389 . S
C1003 C1004 1.524 . S
C1004 C1003 1.524 . S
C1004 C1005 1.397 . S
C1004 C1009 1.363 . S
C1005 H976 0.950 . S
C1005 C1004 1.397 . S
C1005 C1006 1.334 . S
C1006 H977 0.950 . S
C1006 C1005 1.334 . S
C1006 C1007 1.287 . S
C1007 C1006 1.287 . S
C1007 C1008 1.524 . S
C1007 H1010 0.999 . S
C1008 H978 0.950 . S
C1008 C1007 1.524 . S
C1008 C1009 1.415 . S
C1009 H979 0.950 . S
C1009 C1004 1.363 . S
C1009 C1008 1.415 . S
H1010 C1007 0.999 . S
H1011 C992 0.913 . S
H1012 C1030 0.951 . S
H1013 C1032 0.951 . S
H1014 C1034 0.950 . S
H1015 C1035 0.950 . S
H1016 C1037 0.950 . S
H1017 C1040 0.950 . S
H1018 C1041 0.950 . S
H1019 C1043 0.950 . S
H1020 C1044 0.950 . S
H1021 C1045 0.951 . S
H1022 C1047 0.951 . S
H1023 C1049 0.950 . S
H1024 C1050 0.950 . S
H1025 C1052 0.950 . S
H1026 C1055 0.950 . S
H1027 C1056 0.950 . S
H1028 C1058 0.950 . S
H1029 C1059 0.950 . S
C1030 H1012 0.951 . S
C1030 C1031 1.366 . S
C1030 C1032 1.388 . S
C1031 C1030 1.366 . S
C1031 C1035 1.385 . S
C1032 H1013 0.951 . S
C1032 C1030 1.388 . S
C1032 C1033 1.366 . S
C1033 C1032 1.366 . S
C1033 C1034 1.414 . S
C1033 C1036 1.499 . S
C1034 H1014 0.950 . S
C1034 C1033 1.414 . S
C1034 C1035 1.374 . S
C1035 H1015 0.950 . S
C1035 C1031 1.385 . S
C1035 C1034 1.374 . S
C1036 C1033 1.499 . S
C1036 C1037 1.373 . S
C1036 C1038 1.389 . S
C1037 H1016 0.950 . S
C1037 C1036 1.373 . S
C1037 C1053 1.377 . S
C1038 C1036 1.389 . S
C1038 C1039 1.524 . S
C1038 C1052 1.377 . S
C1039 C1038 1.524 . S
C1039 C1040 1.397 . S
C1039 C1044 1.363 . S
C1040 H1017 0.950 . S
C1040 C1039 1.397 . S
C1040 C1041 1.334 . S
C1041 H1018 0.950 . S
C1041 C1040 1.334 . S
C1041 C1042 1.287 . S
C1042 C1041 1.287 . S
C1042 C1043 1.524 . S
C1042 H1061 0.913 . S
C1043 H1019 0.950 . S
C1043 C1042 1.524 . S
C1043 C1044 1.415 . S
C1044 H1020 0.950 . S
C1044 C1039 1.363 . S
C1044 C1043 1.415 . S
C1045 H1021 0.951 . S
C1045 C1046 1.366 . S
C1045 C1047 1.388 . S
C1046 C1045 1.366 . S
C1046 C1050 1.385 . S
C1047 H1022 0.951 . S
C1047 C1045 1.388 . S
C1047 C1048 1.366 . S
C1048 C1047 1.366 . S
C1048 C1049 1.414 . S
C1048 C1051 1.499 . S
C1049 H1023 0.950 . S
C1049 C1048 1.414 . S
C1049 C1050 1.374 . S
C1050 H1024 0.950 . S
C1050 C1046 1.385 . S
C1050 C1049 1.374 . S
C1051 C1048 1.499 . S
C1051 C1052 1.373 . S
C1051 C1053 1.389 . S
C1052 H1025 0.950 . S
C1052 C1038 1.377 . S
C1052 C1051 1.373 . S
C1053 C1037 1.377 . S
C1053 C1051 1.389 . S
C1053 C1054 1.524 . S
C1054 C1053 1.524 . S
C1054 C1055 1.397 . S
C1054 C1059 1.363 . S
C1055 H1026 0.950 . S
C1055 C1054 1.397 . S
C1055 C1056 1.334 . S
C1056 H1027 0.950 . S
C1056 C1055 1.334 . S
C1056 C1057 1.287 . S
C1057 C1056 1.287 . S
C1057 C1058 1.524 . S
C1057 H1060 0.999 . S
C1058 H1028 0.950 . S
C1058 C1057 1.524 . S
C1058 C1059 1.415 . S
C1059 H1029 0.950 . S
C1059 C1054 1.363 . S
C1059 C1058 1.415 . S
H1060 C1057 0.999 . S
H1061 C1042 0.913 . S
H1062 C1080 0.951 . S
H1063 C1082 0.951 . S
H1064 C1084 0.950 . S
H1065 C1085 0.950 . S
H1066 C1087 0.950 . S
H1067 C1090 0.950 . S
H1068 C1091 0.950 . S
H1069 C1093 0.950 . S
H1070 C1094 0.950 . S
H1071 C1095 0.951 . S
H1072 C1097 0.951 . S
H1073 C1099 0.950 . S
H1074 C1100 0.950 . S
H1075 C1102 0.950 . S
H1076 C1105 0.950 . S
H1077 C1106 0.950 . S
H1078 C1108 0.941 1_655 S
H1079 C1109 0.950 . S
C1080 H1062 0.951 . S
C1080 C1081 1.366 . S
C1080 C1082 1.388 . S
C1081 C1080 1.366 . S
C1081 C1085 1.385 . S
C1082 H1063 0.951 . S
C1082 C1080 1.388 . S
C1082 C1083 1.366 . S
C1083 C1082 1.366 . S
C1083 C1084 1.414 . S
C1083 C1086 1.499 . S
C1084 H1064 0.950 . S
C1084 C1083 1.414 . S
C1084 C1085 1.374 . S
C1085 H1065 0.950 . S
C1085 C1081 1.385 . S
C1085 C1084 1.374 . S
C1086 C1083 1.499 . S
C1086 C1087 1.373 . S
C1086 C1088 1.389 . S
C1087 H1066 0.950 . S
C1087 C1086 1.373 . S
C1087 C1103 1.377 . S
C1088 C1086 1.389 . S
C1088 C1089 1.524 . S
C1088 C1102 1.377 . S
C1089 C1088 1.524 . S
C1089 C1090 1.397 . S
C1089 C1094 1.363 . S
C1090 H1067 0.950 . S
C1090 C1089 1.397 . S
C1090 C1091 1.334 . S
C1091 H1068 0.950 . S
C1091 C1090 1.334 . S
C1091 C1092 1.287 . S
C1092 C1091 1.287 . S
C1092 C1093 1.524 . S
C1092 H1111 0.913 . S
C1093 H1069 0.950 . S
C1093 C1092 1.524 . S
C1093 C1094 1.415 . S
C1094 H1070 0.950 . S
C1094 C1089 1.363 . S
C1094 C1093 1.415 . S
C1095 H1071 0.951 . S
C1095 C1096 1.366 . S
C1095 C1097 1.388 . S
C1096 C1095 1.366 . S
C1096 C1100 1.385 . S
C1097 H1072 0.951 . S
C1097 C1095 1.388 . S
C1097 C1098 1.366 . S
C1098 C1097 1.366 . S
C1098 C1099 1.414 . S
C1098 C1101 1.499 . S
C1099 H1073 0.950 . S
C1099 C1098 1.414 . S
C1099 C1100 1.374 . S
C1100 H1074 0.950 . S
C1100 C1096 1.385 . S
C1100 C1099 1.374 . S
C1101 C1098 1.499 . S
C1101 C1102 1.373 . S
C1101 C1103 1.389 . S
C1102 H1075 0.950 . S
C1102 C1088 1.377 . S
C1102 C1101 1.373 . S
C1103 C1087 1.377 . S
C1103 C1101 1.389 . S
C1103 C1104 1.524 . S
C1104 C1103 1.524 . S
C1104 C1105 1.397 . S
C1104 C1109 1.363 . S
C1105 H1076 0.950 . S
C1105 C1104 1.397 . S
C1105 C1106 1.334 . S
C1106 H1077 0.950 . S
C1106 C1105 1.334 . S
C1106 C1107 1.287 1_455 S
C1107 C1106 1.287 1_655 S
C1107 C1108 1.508 1_655 S
C1107 H1110 0.999 . S
C1108 H1078 0.941 1_455 S
C1108 C1107 1.508 1_455 S
C1108 C1109 1.441 . S
C1109 H1079 0.950 . S
C1109 C1104 1.363 . S
C1109 C1108 1.441 . S
H1110 C1107 0.999 . S
H1111 C1092 0.913 . S
H1112 C1130 0.951 . S
H1113 C1132 0.951 . S
H1114 C1134 0.950 . S
H1115 C1135 0.950 . S
H1116 C1137 0.950 . S
H1117 C1140 0.950 . S
H1118 C1141 0.950 . S
H1119 C1143 0.950 . S
H1120 C1144 0.950 . S
H1121 C1145 0.951 . S
H1122 C1147 0.951 . S
H1123 C1149 0.964 . S
H1124 C1150 0.950 1_545 S
H1125 C1152 0.950 . S
H1126 C1155 0.950 . S
H1127 C1156 0.950 . S
H1128 C1158 0.950 . S
H1129 C1159 0.950 . S
C1130 H1112 0.951 . S
C1130 C1131 1.366 . S
C1130 C1132 1.388 . S
C1131 C1130 1.366 . S
C1131 C1135 1.385 . S
C1132 H1113 0.951 . S
C1132 C1130 1.388 . S
C1132 C1133 1.366 . S
C1133 C1132 1.366 . S
C1133 C1134 1.414 . S
C1133 C1136 1.499 . S
C1134 H1114 0.950 . S
C1134 C1133 1.414 . S
C1134 C1135 1.374 . S
C1135 H1115 0.950 . S
C1135 C1131 1.385 . S
C1135 C1134 1.374 . S
C1136 C1133 1.499 . S
C1136 C1137 1.373 . S
C1136 C1138 1.389 . S
C1137 H1116 0.950 . S
C1137 C1136 1.373 . S
C1137 C1153 1.377 . S
C1138 C1136 1.389 . S
C1138 C1139 1.524 . S
C1138 C1152 1.377 . S
C1139 C1138 1.524 . S
C1139 C1140 1.397 . S
C1139 C1144 1.363 . S
C1140 H1117 0.950 . S
C1140 C1139 1.397 . S
C1140 C1141 1.334 . S
C1141 H1118 0.950 . S
C1141 C1140 1.334 . S
C1141 C1142 1.287 . S
C1142 C1141 1.287 . S
C1142 C1143 1.524 . S
C1142 H1161 0.913 . S
C1143 H1119 0.950 . S
C1143 C1142 1.524 . S
C1143 C1144 1.415 . S
C1144 H1120 0.950 . S
C1144 C1139 1.363 . S
C1144 C1143 1.415 . S
C1145 H1121 0.951 . S
C1145 C1146 1.366 . S
C1145 C1147 1.388 . S
C1146 C1145 1.366 . S
C1146 C1150 1.385 . S
C1147 H1122 0.951 . S
C1147 C1145 1.388 . S
C1147 C1148 1.366 1_554 S
C1148 C1147 1.366 1_556 S
C1148 C1149 1.415 . S
C1148 C1151 1.499 . S
C1149 H1123 0.964 . S
C1149 C1148 1.415 . S
C1149 C1150 1.360 1_556 S
C1150 H1124 0.950 1_565 S
C1150 C1146 1.385 . S
C1150 C1149 1.360 1_554 S
C1151 C1148 1.499 . S
C1151 C1152 1.373 . S
C1151 C1153 1.389 . S
C1152 H1125 0.950 . S
C1152 C1138 1.377 . S
C1152 C1151 1.373 . S
C1153 C1137 1.377 . S
C1153 C1151 1.389 . S
C1153 C1154 1.524 . S
C1154 C1153 1.524 . S
C1154 C1155 1.397 . S
C1154 C1159 1.363 . S
C1155 H1126 0.950 . S
C1155 C1154 1.397 . S
C1155 C1156 1.334 . S
C1156 H1127 0.950 . S
C1156 C1155 1.334 . S
C1156 C1157 1.287 . S
C1157 C1156 1.287 . S
C1157 C1158 1.524 . S
C1157 H1160 0.999 . S
C1158 H1128 0.950 . S
C1158 C1157 1.524 . S
C1158 C1159 1.415 . S
C1159 H1129 0.950 . S
C1159 C1154 1.363 . S
C1159 C1158 1.415 . S
H1160 C1157 0.999 . S
H1161 C1142 0.913 . S
H1162 C1180 0.951 . S
H1163 C1182 0.951 . S
H1164 C1184 0.950 . S
H1165 C1185 0.950 . S
H1166 C1187 0.950 . S
H1167 C1190 0.950 . S
H1168 C1191 0.950 . S
H1169 C1193 0.950 . S
H1170 C1194 0.950 . S
H1171 C1195 0.951 . S
H1172 C1197 0.951 . S
H1173 C1199 0.950 . S
H1174 C1200 0.950 . S
H1175 C1202 0.950 . S
H1176 C1205 0.950 1_655 S
H1177 C1206 0.950 . S
H1178 C1208 0.950 . S
H1179 C1209 0.951 1_655 S
C1180 H1162 0.951 . S
C1180 C1181 1.366 . S
C1180 C1182 1.388 . S
C1181 C1180 1.366 . S
C1181 C1185 1.385 . S
C1182 H1163 0.951 . S
C1182 C1180 1.388 . S
C1182 C1183 1.366 . S
C1183 C1182 1.366 . S
C1183 C1184 1.414 . S
C1183 C1186 1.499 . S
C1184 H1164 0.950 . S
C1184 C1183 1.414 . S
C1184 C1185 1.374 . S
C1185 H1165 0.950 . S
C1185 C1181 1.385 . S
C1185 C1184 1.374 . S
C1186 C1183 1.499 . S
C1186 C1187 1.373 . S
C1186 C1188 1.389 . S
C1187 H1166 0.950 . S
C1187 C1186 1.373 . S
C1187 C1203 1.377 . S
C1188 C1186 1.389 . S
C1188 C1189 1.524 . S
C1188 C1202 1.377 . S
C1189 C1188 1.524 . S
C1189 C1190 1.397 . S
C1189 C1194 1.363 . S
C1190 H1167 0.950 . S
C1190 C1189 1.397 . S
C1190 C1191 1.334 . S
C1191 H1168 0.950 . S
C1191 C1190 1.334 . S
C1191 C1192 1.287 . S
C1192 C1191 1.287 . S
C1192 C1193 1.524 . S
C1192 H1211 0.913 . S
C1193 H1169 0.950 . S
C1193 C1192 1.524 . S
C1193 C1194 1.415 . S
C1194 H1170 0.950 . S
C1194 C1189 1.363 . S
C1194 C1193 1.415 . S
C1195 H1171 0.951 . S
C1195 C1196 1.366 . S
C1195 C1197 1.388 . S
C1196 C1195 1.366 . S
C1196 C1200 1.385 . S
C1197 H1172 0.951 . S
C1197 C1195 1.388 . S
C1197 C1198 1.366 . S
C1198 C1197 1.366 . S
C1198 C1199 1.414 . S
C1198 C1201 1.499 . S
C1199 H1173 0.950 . S
C1199 C1198 1.414 . S
C1199 C1200 1.374 . S
C1200 H1174 0.950 . S
C1200 C1196 1.385 . S
C1200 C1199 1.374 . S
C1201 C1198 1.499 . S
C1201 C1202 1.373 . S
C1201 C1203 1.389 . S
C1202 H1175 0.950 . S
C1202 C1188 1.377 . S
C1202 C1201 1.373 . S
C1203 C1187 1.377 . S
C1203 C1201 1.389 . S
C1203 C1204 1.524 . S
C1204 C1203 1.524 . S
C1204 C1205 1.397 1_655 S
C1204 C1209 1.363 1_655 S
C1205 H1176 0.950 1_455 S
C1205 C1204 1.397 1_455 S
C1205 C1206 1.334 . S
C1206 H1177 0.950 . S
C1206 C1205 1.334 . S
C1206 C1207 1.287 . S
C1207 C1206 1.287 . S
C1207 C1208 1.524 . S
C1207 H1210 0.999 . S
C1208 H1178 0.950 . S
C1208 C1207 1.524 . S
C1208 C1209 1.415 . S
C1209 H1179 0.951 1_455 S
C1209 C1204 1.363 1_455 S
C1209 C1208 1.415 . S
H1210 C1207 0.999 . S
H1211 C1192 0.913 . S
H1212 C1230 0.951 . S
H1213 C1232 0.951 . S
H1214 C1234 0.950 . S
H1215 C1235 0.950 . S
H1216 C1237 0.950 . S
H1217 C1240 0.950 . S
H1218 C1241 0.950 . S
H1219 C1243 0.950 . S
H1220 C1244 0.950 . S
H1221 C1245 0.951 . S
H1222 C1247 0.951 . S
H1223 C1249 0.950 . S
H1224 C1250 0.950 . S
H1225 C1252 0.950 . S
H1226 C1255 0.950 . S
H1227 C1256 0.950 . S
H1228 C1258 0.950 . S
H1229 C1259 0.950 . S
C1230 H1212 0.951 . S
C1230 C1231 1.366 . S
C1230 C1232 1.388 . S
C1231 C1230 1.366 . S
C1231 C1235 1.385 . S
C1232 H1213 0.951 . S
C1232 C1230 1.388 . S
C1232 C1233 1.366 . S
C1233 C1232 1.366 . S
C1233 C1234 1.414 . S
C1233 C1236 1.499 . S
C1234 H1214 0.950 . S
C1234 C1233 1.414 . S
C1234 C1235 1.374 . S
C1235 H1215 0.950 . S
C1235 C1231 1.385 . S
C1235 C1234 1.374 . S
C1236 C1233 1.499 . S
C1236 C1237 1.373 . S
C1236 C1238 1.389 . S
C1237 H1216 0.950 . S
C1237 C1236 1.373 . S
C1237 C1253 1.377 . S
C1238 C1236 1.389 . S
C1238 C1239 1.524 . S
C1238 C1252 1.377 . S
C1239 C1238 1.524 . S
C1239 C1240 1.397 . S
C1239 C1244 1.363 . S
C1240 H1217 0.950 . S
C1240 C1239 1.397 . S
C1240 C1241 1.334 . S
C1241 H1218 0.950 . S
C1241 C1240 1.334 . S
C1241 C1242 1.287 . S
C1242 C1241 1.287 . S
C1242 C1243 1.524 . S
C1242 H1261 0.913 . S
C1243 H1219 0.950 . S
C1243 C1242 1.524 . S
C1243 C1244 1.415 . S
C1244 H1220 0.950 . S
C1244 C1239 1.363 . S
C1244 C1243 1.415 . S
C1245 H1221 0.951 . S
C1245 C1246 1.366 . S
C1245 C1247 1.388 . S
C1246 C1245 1.366 . S
C1246 C1250 1.385 . S
C1247 H1222 0.951 . S
C1247 C1245 1.388 . S
C1247 C1248 1.366 . S
C1248 C1247 1.366 . S
C1248 C1249 1.414 . S
C1248 C1251 1.499 . S
C1249 H1223 0.950 . S
C1249 C1248 1.414 . S
C1249 C1250 1.374 . S
C1250 H1224 0.950 . S
C1250 C1246 1.385 . S
C1250 C1249 1.374 . S
C1251 C1248 1.499 . S
C1251 C1252 1.373 . S
C1251 C1253 1.389 . S
C1252 H1225 0.950 . S
C1252 C1238 1.377 . S
C1252 C1251 1.373 . S
C1253 C1237 1.377 . S
C1253 C1251 1.389 . S
C1253 C1254 1.524 . S
C1254 C1253 1.524 . S
C1254 C1255 1.397 . S
C1254 C1259 1.363 . S
C1255 H1226 0.950 . S
C1255 C1254 1.397 . S
C1255 C1256 1.334 . S
C1256 H1227 0.950 . S
C1256 C1255 1.334 . S
C1256 C1257 1.287 . S
C1257 C1256 1.287 . S
C1257 C1258 1.524 . S
C1257 H1260 0.999 . S
C1258 H1228 0.950 . S
C1258 C1257 1.524 . S
C1258 C1259 1.415 . S
C1259 H1229 0.950 . S
C1259 C1254 1.363 . S
C1259 C1258 1.415 . S
H1260 C1257 0.999 . S
H1261 C1242 0.913 . S
H1262 C1280 0.951 . S
H1263 C1282 0.951 . S
H1264 C1284 0.950 . S
H1265 C1285 0.950 . S
H1266 C1287 0.950 . S
H1267 C1290 0.950 . S
H1268 C1291 0.950 . S
H1269 C1293 0.950 . S
H1270 C1294 0.950 . S
H1271 C1295 0.951 . S
H1272 C1297 0.951 . S
H1273 C1299 0.950 . S
H1274 C1300 0.950 . S
H1275 C1302 0.950 . S
H1276 C1305 0.950 . S
H1277 C1306 0.950 . S
H1278 C1308 0.950 . S
H1279 C1309 0.950 . S
C1280 H1262 0.951 . S
C1280 C1281 1.366 . S
C1280 C1282 1.388 . S
C1281 C1280 1.366 . S
C1281 C1285 1.385 . S
C1282 H1263 0.951 . S
C1282 C1280 1.388 . S
C1282 C1283 1.366 . S
C1283 C1282 1.366 . S
C1283 C1284 1.414 . S
C1283 C1286 1.499 . S
C1284 H1264 0.950 . S
C1284 C1283 1.414 . S
C1284 C1285 1.374 . S
C1285 H1265 0.950 . S
C1285 C1281 1.385 . S
C1285 C1284 1.374 . S
C1286 C1283 1.499 . S
C1286 C1287 1.373 . S
C1286 C1288 1.389 . S
C1287 H1266 0.950 . S
C1287 C1286 1.373 . S
C1287 C1303 1.377 . S
C1288 C1286 1.389 . S
C1288 C1289 1.524 . S
C1288 C1302 1.377 . S
C1289 C1288 1.524 . S
C1289 C1290 1.397 . S
C1289 C1294 1.363 . S
C1290 H1267 0.950 . S
C1290 C1289 1.397 . S
C1290 C1291 1.334 . S
C1291 H1268 0.950 . S
C1291 C1290 1.334 . S
C1291 C1292 1.287 . S
C1292 C1291 1.287 . S
C1292 C1293 1.524 . S
C1292 H1311 0.913 . S
C1293 H1269 0.950 . S
C1293 C1292 1.524 . S
C1293 C1294 1.415 . S
C1294 H1270 0.950 . S
C1294 C1289 1.363 . S
C1294 C1293 1.415 . S
C1295 H1271 0.951 . S
C1295 C1296 1.366 . S
C1295 C1297 1.388 . S
C1296 C1295 1.366 . S
C1296 C1300 1.385 . S
C1297 H1272 0.951 . S
C1297 C1295 1.388 . S
C1297 C1298 1.366 . S
C1298 C1297 1.366 . S
C1298 C1299 1.414 . S
C1298 C1301 1.499 . S
C1299 H1273 0.950 . S
C1299 C1298 1.414 . S
C1299 C1300 1.374 . S
C1300 H1274 0.950 . S
C1300 C1296 1.385 . S
C1300 C1299 1.374 . S
C1301 C1298 1.499 . S
C1301 C1302 1.373 . S
C1301 C1303 1.389 . S
C1302 H1275 0.950 . S
C1302 C1288 1.377 . S
C1302 C1301 1.373 . S
C1303 C1287 1.377 . S
C1303 C1301 1.389 . S
C1303 C1304 1.524 . S
C1304 C1303 1.524 . S
C1304 C1305 1.397 . S
C1304 C1309 1.363 . S
C1305 H1276 0.950 . S
C1305 C1304 1.397 . S
C1305 C1306 1.334 . S
C1306 H1277 0.950 . S
C1306 C1305 1.334 . S
C1306 C1307 1.287 . S
C1307 C1306 1.287 . S
C1307 C1308 1.524 . S
C1307 H1310 0.999 . S
C1308 H1278 0.950 . S
C1308 C1307 1.524 . S
C1308 C1309 1.415 . S
C1309 H1279 0.950 . S
C1309 C1304 1.363 . S
C1309 C1308 1.415 . S
H1310 C1307 0.999 . S
H1311 C1292 0.913 . S
H1312 C1330 0.951 . S
H1313 C1332 0.951 . S
H1314 C1334 0.950 . S
H1315 C1335 0.950 . S
H1316 C1337 0.950 . S
H1317 C1340 0.950 . S
H1318 C1341 0.950 . S
H1319 C1343 0.950 . S
H1320 C1344 0.950 . S
H1321 C1345 0.951 . S
H1322 C1347 0.951 . S
H1323 C1349 0.950 . S
H1324 C1350 0.950 . S
H1325 C1352 0.950 . S
H1326 C1355 0.950 . S
H1327 C1356 0.935 1_554 S
H1328 C1358 0.950 . S
H1329 C1359 0.950 . S
C1330 H1312 0.951 . S
C1330 C1331 1.366 . S
C1330 C1332 1.388 . S
C1331 C1330 1.366 . S
C1331 C1335 1.385 . S
C1332 H1313 0.951 . S
C1332 C1330 1.388 . S
C1332 C1333 1.366 . S
C1333 C1332 1.366 . S
C1333 C1334 1.414 . S
C1333 C1336 1.499 . S
C1334 H1314 0.950 . S
C1334 C1333 1.414 . S
C1334 C1335 1.374 . S
C1335 H1315 0.950 . S
C1335 C1331 1.385 . S
C1335 C1334 1.374 . S
C1336 C1333 1.499 . S
C1336 C1337 1.373 . S
C1336 C1338 1.389 . S
C1337 H1316 0.950 . S
C1337 C1336 1.373 . S
C1337 C1353 1.377 . S
C1338 C1336 1.389 . S
C1338 C1339 1.524 . S
C1338 C1352 1.377 . S
C1339 C1338 1.524 . S
C1339 C1340 1.397 . S
C1339 C1344 1.363 . S
C1340 H1317 0.950 . S
C1340 C1339 1.397 . S
C1340 C1341 1.334 . S
C1341 H1318 0.950 . S
C1341 C1340 1.334 . S
C1341 C1342 1.287 . S
C1342 C1341 1.287 . S
C1342 C1343 1.524 . S
C1342 H1361 0.913 . S
C1343 H1319 0.950 . S
C1343 C1342 1.524 . S
C1343 C1344 1.415 . S
C1344 H1320 0.950 . S
C1344 C1339 1.363 . S
C1344 C1343 1.415 . S
C1345 H1321 0.951 . S
C1345 C1346 1.366 . S
C1345 C1347 1.388 . S
C1346 C1345 1.366 . S
C1346 C1350 1.385 . S
C1347 H1322 0.951 . S
C1347 C1345 1.388 . S
C1347 C1348 1.366 . S
C1348 C1347 1.366 . S
C1348 C1349 1.414 . S
C1348 C1351 1.499 . S
C1349 H1323 0.950 . S
C1349 C1348 1.414 . S
C1349 C1350 1.374 . S
C1350 H1324 0.950 . S
C1350 C1346 1.385 . S
C1350 C1349 1.374 . S
C1351 C1348 1.499 . S
C1351 C1352 1.373 . S
C1351 C1353 1.389 . S
C1352 H1325 0.950 . S
C1352 C1338 1.377 . S
C1352 C1351 1.373 . S
C1353 C1337 1.377 . S
C1353 C1351 1.389 . S
C1353 C1354 1.524 . S
C1354 C1353 1.524 . S
C1354 C1355 1.397 . S
C1354 C1359 1.363 . S
C1355 H1326 0.950 . S
C1355 C1354 1.397 . S
C1355 C1356 1.334 . S
C1356 H1327 0.935 1_556 S
C1356 C1355 1.334 . S
C1356 C1357 1.287 . S
C1357 C1356 1.287 . S
C1357 C1358 1.524 . S
C1357 H1360 0.999 1_556 S
C1358 H1328 0.950 . S
C1358 C1357 1.524 . S
C1358 C1359 1.415 . S
C1359 H1329 0.950 . S
C1359 C1354 1.363 . S
C1359 C1358 1.415 . S
H1360 C1357 0.999 1_554 S
H1361 C1342 0.913 . S
H1362 C1380 0.951 . S
H1363 C1382 0.951 . S
H1364 C1384 0.950 . S
H1365 C1385 0.950 . S
H1366 C1387 0.950 . S
H1367 C1390 0.950 . S
H1368 C1391 0.950 . S
H1369 C1393 0.950 . S
H1370 C1394 0.950 . S
H1371 C1395 0.951 . S
H1372 C1397 0.951 . S
H1373 C1399 0.950 . S
H1374 C1400 0.950 . S
H1375 C1402 0.950 . S
H1376 C1405 0.950 . S
H1377 C1406 0.950 . S
H1378 C1408 0.950 . S
H1379 C1409 0.950 . S
C1380 H1362 0.951 . S
C1380 C1381 1.366 . S
C1380 C1382 1.388 . S
C1381 C1380 1.366 . S
C1381 C1385 1.385 . S
C1382 H1363 0.951 . S
C1382 C1380 1.388 . S
C1382 C1383 1.366 . S
C1383 C1382 1.366 . S
C1383 C1384 1.414 . S
C1383 C1386 1.499 . S
C1384 H1364 0.950 . S
C1384 C1383 1.414 . S
C1384 C1385 1.374 . S
C1385 H1365 0.950 . S
C1385 C1381 1.385 . S
C1385 C1384 1.374 . S
C1386 C1383 1.499 . S
C1386 C1387 1.373 . S
C1386 C1388 1.389 . S
C1387 H1366 0.950 . S
C1387 C1386 1.373 . S
C1387 C1403 1.377 . S
C1388 C1386 1.389 . S
C1388 C1389 1.524 . S
C1388 C1402 1.377 . S
C1389 C1388 1.524 . S
C1389 C1390 1.397 . S
C1389 C1394 1.363 . S
C1390 H1367 0.950 . S
C1390 C1389 1.397 . S
C1390 C1391 1.334 . S
C1391 H1368 0.950 . S
C1391 C1390 1.334 . S
C1391 C1392 1.287 . S
C1392 C1391 1.287 . S
C1392 C1393 1.524 . S
C1392 H1411 0.913 . S
C1393 H1369 0.950 . S
C1393 C1392 1.524 . S
C1393 C1394 1.415 . S
C1394 H1370 0.950 . S
C1394 C1389 1.363 . S
C1394 C1393 1.415 . S
C1395 H1371 0.951 . S
C1395 C1396 1.366 . S
C1395 C1397 1.388 . S
C1396 C1395 1.366 . S
C1396 C1400 1.385 . S
C1397 H1372 0.951 . S
C1397 C1395 1.388 . S
C1397 C1398 1.366 . S
C1398 C1397 1.366 . S
C1398 C1399 1.414 . S
C1398 C1401 1.499 . S
C1399 H1373 0.950 . S
C1399 C1398 1.414 . S
C1399 C1400 1.374 . S
C1400 H1374 0.950 . S
C1400 C1396 1.385 . S
C1400 C1399 1.374 . S
C1401 C1398 1.499 . S
C1401 C1402 1.373 . S
C1401 C1403 1.389 . S
C1402 H1375 0.950 . S
C1402 C1388 1.377 . S
C1402 C1401 1.373 . S
C1403 C1387 1.377 . S
C1403 C1401 1.389 . S
C1403 C1404 1.524 . S
C1404 C1403 1.524 . S
C1404 C1405 1.397 . S
C1404 C1409 1.363 . S
C1405 H1376 0.950 . S
C1405 C1404 1.397 . S
C1405 C1406 1.334 . S
C1406 H1377 0.950 . S
C1406 C1405 1.334 . S
C1406 C1407 1.287 . S
C1407 C1406 1.287 . S
C1407 C1408 1.524 . S
C1407 H1410 0.999 . S
C1408 H1378 0.950 . S
C1408 C1407 1.524 . S
C1408 C1409 1.415 . S
C1409 H1379 0.950 . S
C1409 C1404 1.363 . S
C1409 C1408 1.415 . S
H1410 C1407 0.999 . S
H1411 C1392 0.913 . S
H1412 C1430 0.951 . S
H1413 C1432 0.951 . S
H1414 C1434 0.950 . S
H1415 C1435 0.950 . S
H1416 C1437 0.950 . S
H1417 C1440 0.950 . S
H1418 C1441 0.950 . S
H1419 C1443 0.950 . S
H1420 C1444 0.950 . S
H1421 C1445 0.951 . S
H1422 C1447 0.951 . S
H1423 C1449 0.950 . S
H1424 C1450 0.950 . S
H1425 C1452 0.950 . S
H1426 C1455 0.950 . S
H1427 C1456 0.950 . S
H1428 C1458 0.950 . S
H1429 C1459 0.950 . S
C1430 H1412 0.951 . S
C1430 C1431 1.366 . S
C1430 C1432 1.388 . S
C1431 C1430 1.366 . S
C1431 C1435 1.385 . S
C1432 H1413 0.951 . S
C1432 C1430 1.388 . S
C1432 C1433 1.366 . S
C1433 C1432 1.366 . S
C1433 C1434 1.414 . S
C1433 C1436 1.499 . S
C1434 H1414 0.950 . S
C1434 C1433 1.414 . S
C1434 C1435 1.374 . S
C1435 H1415 0.950 . S
C1435 C1431 1.385 . S
C1435 C1434 1.374 . S
C1436 C1433 1.499 . S
C1436 C1437 1.373 . S
C1436 C1438 1.389 . S
C1437 H1416 0.950 . S
C1437 C1436 1.373 . S
C1437 C1453 1.377 . S
C1438 C1436 1.389 . S
C1438 C1439 1.524 . S
C1438 C1452 1.377 . S
C1439 C1438 1.524 . S
C1439 C1440 1.397 . S
C1439 C1444 1.363 . S
C1440 H1417 0.950 . S
C1440 C1439 1.397 . S
C1440 C1441 1.334 . S
C1441 H1418 0.950 . S
C1441 C1440 1.334 . S
C1441 C1442 1.287 . S
C1442 C1441 1.287 . S
C1442 C1443 1.524 . S
C1442 H1461 0.913 . S
C1443 H1419 0.950 . S
C1443 C1442 1.524 . S
C1443 C1444 1.415 . S
C1444 H1420 0.950 . S
C1444 C1439 1.363 . S
C1444 C1443 1.415 . S
C1445 H1421 0.951 . S
C1445 C1446 1.366 . S
C1445 C1447 1.388 . S
C1446 C1445 1.366 . S
C1446 C1450 1.385 . S
C1447 H1422 0.951 . S
C1447 C1445 1.388 . S
C1447 C1448 1.366 . S
C1448 C1447 1.366 . S
C1448 C1449 1.414 . S
C1448 C1451 1.499 . S
C1449 H1423 0.950 . S
C1449 C1448 1.414 . S
C1449 C1450 1.374 . S
C1450 H1424 0.950 . S
C1450 C1446 1.385 . S
C1450 C1449 1.374 . S
C1451 C1448 1.499 . S
C1451 C1452 1.373 . S
C1451 C1453 1.389 . S
C1452 H1425 0.950 . S
C1452 C1438 1.377 . S
C1452 C1451 1.373 . S
C1453 C1437 1.377 . S
C1453 C1451 1.389 . S
C1453 C1454 1.524 . S
C1454 C1453 1.524 . S
C1454 C1455 1.397 . S
C1454 C1459 1.363 . S
C1455 H1426 0.950 . S
C1455 C1454 1.397 . S
C1455 C1456 1.334 . S
C1456 H1427 0.950 . S
C1456 C1455 1.334 . S
C1456 C1457 1.287 . S
C1457 C1456 1.287 . S
C1457 C1458 1.524 . S
C1457 H1460 0.999 . S
C1458 H1428 0.950 . S
C1458 C1457 1.524 . S
C1458 C1459 1.415 . S
C1459 H1429 0.950 . S
C1459 C1454 1.363 . S
C1459 C1458 1.415 . S
H1460 C1457 0.999 . S
H1461 C1442 0.913 . S
H1462 C1480 0.951 . S
H1463 C1482 0.951 . S
H1464 C1484 0.950 . S
H1465 C1485 0.950 . S
H1466 C1487 0.950 . S
H1467 C1490 0.950 . S
H1468 C1491 0.950 . S
H1469 C1493 0.950 . S
H1470 C1494 0.950 . S
H1471 C1495 0.951 . S
H1472 C1497 0.951 . S
H1473 C1499 0.950 . S
H1474 C1500 0.950 . S
H1475 C1502 0.950 . S
H1476 C1505 0.950 . S
H1477 C1506 0.950 . S
H1478 C1508 0.950 . S
H1479 C1509 0.950 . S
C1480 H1462 0.951 . S
C1480 C1481 1.366 . S
C1480 C1482 1.388 . S
C1481 C1480 1.366 . S
C1481 C1485 1.385 . S
C1482 H1463 0.951 . S
C1482 C1480 1.388 . S
C1482 C1483 1.366 . S
C1483 C1482 1.366 . S
C1483 C1484 1.414 . S
C1483 C1486 1.499 . S
C1484 H1464 0.950 . S
C1484 C1483 1.414 . S
C1484 C1485 1.374 . S
C1485 H1465 0.950 . S
C1485 C1481 1.385 . S
C1485 C1484 1.374 . S
C1486 C1483 1.499 . S
C1486 C1487 1.373 . S
C1486 C1488 1.389 . S
C1487 H1466 0.950 . S
C1487 C1486 1.373 . S
C1487 C1503 1.377 . S
C1488 C1486 1.389 . S
C1488 C1489 1.524 . S
C1488 C1502 1.377 . S
C1489 C1488 1.524 . S
C1489 C1490 1.397 . S
C1489 C1494 1.363 . S
C1490 H1467 0.950 . S
C1490 C1489 1.397 . S
C1490 C1491 1.334 . S
C1491 H1468 0.950 . S
C1491 C1490 1.334 . S
C1491 C1492 1.287 . S
C1492 C1491 1.287 . S
C1492 C1493 1.524 . S
C1492 H1511 0.913 . S
C1493 H1469 0.950 . S
C1493 C1492 1.524 . S
C1493 C1494 1.415 . S
C1494 H1470 0.950 . S
C1494 C1489 1.363 . S
C1494 C1493 1.415 . S
C1495 H1471 0.951 . S
C1495 C1496 1.366 . S
C1495 C1497 1.388 . S
C1496 C1495 1.366 . S
C1496 C1500 1.385 . S
C1497 H1472 0.951 . S
C1497 C1495 1.388 . S
C1497 C1498 1.366 . S
C1498 C1497 1.366 . S
C1498 C1499 1.414 . S
C1498 C1501 1.499 . S
C1499 H1473 0.950 . S
C1499 C1498 1.414 . S
C1499 C1500 1.374 . S
C1500 H1474 0.950 . S
C1500 C1496 1.385 . S
C1500 C1499 1.374 . S
C1501 C1498 1.499 . S
C1501 C1502 1.373 . S
C1501 C1503 1.389 . S
C1502 H1475 0.950 . S
C1502 C1488 1.377 . S
C1502 C1501 1.373 . S
C1503 C1487 1.377 . S
C1503 C1501 1.389 . S
C1503 C1504 1.524 . S
C1504 C1503 1.524 . S
C1504 C1505 1.397 . S
C1504 C1509 1.363 . S
C1505 H1476 0.950 . S
C1505 C1504 1.397 . S
C1505 C1506 1.334 . S
C1506 H1477 0.950 . S
C1506 C1505 1.334 . S
C1506 C1507 1.287 . S
C1507 C1506 1.287 . S
C1507 C1508 1.524 . S
C1507 H1510 0.999 . S
C1508 H1478 0.950 . S
C1508 C1507 1.524 . S
C1508 C1509 1.415 . S
C1509 H1479 0.950 . S
C1509 C1504 1.363 . S
C1509 C1508 1.415 . S
H1510 C1507 0.999 . S
H1511 C1492 0.913 . S
C331 C6 1.199 . S
C346 C169 1.216 . S
C381 C21 1.562 . S
C396 C209 1.611 . S
C446 C234 1.625 . S
C431 C49 1.580 . S
C481 C68 2.051 . S
C496 C274 2.116 1_655 S
C546 C205 2.696 . S
C531 C2 2.629 . S
C596 C165 1.407 1_565 S
C581 C30 1.358 . S
C646 C296 1.423 . S
C631 C40 1.426 . S
C696 C256 1.332 . S
C681 C63 1.375 . S
C731 C11 1.099 . S
C746 C298 1.199 . S
C796 C215 2.425 . S
C781 C44 2.472 . S
C831 C59 1.633 . S
C846 C175 1.622 . S
C881 C25 1.738 . S
C896 C258 1.717 . S
C946 C178 1.534 . S
C931 C82 1.517 . S
C981 C101 1.183 . S
C996 C218 1.206 . S
C1031 C125 2.071 . S
C1046 C255 2.116 . S
C1081 C144 1.659 . S
C1096 C295 1.721 . S
C1131 C87 1.384 . S
C1146 C216 1.468 1_565 S
C1196 C176 2.639 . S
C1181 C97 2.570 . S
C1246 C285 1.296 . S
C1231 C120 1.335 . S
C1296 C245 1.455 . S
C1281 C135 1.454 . S
C1331 C78 1.776 . S
C1346 C289 1.808 . S
C1396 C194 1.595 . S
C1381 C116 1.606 . S
C1446 C154 2.400 . S
C1431 C139 2.446 . S
C1481 C106 0.990 . S
C1496 C249 1.190 . S
