# Generated by pormake.
# Topology apo, (3,6)-cn, num edge types: 1
# Building blocks:
#     Node 0, Type 0, BuildingBlock: QEWDON_clean_linker_0, # of connection points: 3
#     Node 1, Type 0, BuildingBlock: QEWDON_clean_linker_0, # of connection points: 3
#     Node 2, Type 0, BuildingBlock: QEWDON_clean_linker_0, # of connection points: 3
#     Node 3, Type 0, BuildingBlock: QEWDON_clean_linker_0, # of connection points: 3
#     Node 4, Type 0, BuildingBlock: QEWDON_clean_linker_0, # of connection points: 3
#     Node 5, Type 0, BuildingBlock: QEWDON_clean_linker_0, # of connection points: 3
#     Node 6, Type 0, BuildingBlock: QEWDON_clean_linker_0, # of connection points: 3
#     Node 7, Type 0, BuildingBlock: QEWDON_clean_linker_0, # of connection points: 3
#     Node 8, Type 1, BuildingBlock: KUMJIN_clean_sbu_1, # of connection points: 6
#     Node 9, Type 1, BuildingBlock: KUMJIN_clean_sbu_1, # of connection points: 6
#     Node 10, Type 1, BuildingBlock: KUMJIN_clean_sbu_1, # of connection points: 6
#     Node 11, Type 1, BuildingBlock: KUMJIN_clean_sbu_1, # of connection points: 6
#     Edge 12, Type (0, 1), BuildingBlock: UVAHIK_clean_linker_0, # of connection points: 2
#     Edge 13, Type (0, 1), BuildingBlock: UVAHIK_clean_linker_0, # of connection points: 2
#     Edge 14, Type (0, 1), BuildingBlock: UVAHIK_clean_linker_0, # of connection points: 2
#     Edge 15, Type (0, 1), BuildingBlock: UVAHIK_clean_linker_0, # of connection points: 2
#     Edge 16, Type (0, 1), BuildingBlock: UVAHIK_clean_linker_0, # of connection points: 2
#     Edge 17, Type (0, 1), BuildingBlock: UVAHIK_clean_linker_0, # of connection points: 2
#     Edge 18, Type (0, 1), BuildingBlock: UVAHIK_clean_linker_0, # of connection points: 2
#     Edge 19, Type (0, 1), BuildingBlock: UVAHIK_clean_linker_0, # of connection points: 2
#     Edge 20, Type (0, 1), BuildingBlock: UVAHIK_clean_linker_0, # of connection points: 2
#     Edge 21, Type (0, 1), BuildingBlock: UVAHIK_clean_linker_0, # of connection points: 2
#     Edge 22, Type (0, 1), BuildingBlock: UVAHIK_clean_linker_0, # of connection points: 2
#     Edge 23, Type (0, 1), BuildingBlock: UVAHIK_clean_linker_0, # of connection points: 2
#     Edge 24, Type (0, 1), BuildingBlock: UVAHIK_clean_linker_0, # of connection points: 2
#     Edge 25, Type (0, 1), BuildingBlock: UVAHIK_clean_linker_0, # of connection points: 2
#     Edge 26, Type (0, 1), BuildingBlock: UVAHIK_clean_linker_0, # of connection points: 2
#     Edge 27, Type (0, 1), BuildingBlock: UVAHIK_clean_linker_0, # of connection points: 2
#     Edge 28, Type (0, 1), BuildingBlock: UVAHIK_clean_linker_0, # of connection points: 2
#     Edge 29, Type (0, 1), BuildingBlock: UVAHIK_clean_linker_0, # of connection points: 2
#     Edge 30, Type (0, 1), BuildingBlock: UVAHIK_clean_linker_0, # of connection points: 2
#     Edge 31, Type (0, 1), BuildingBlock: UVAHIK_clean_linker_0, # of connection points: 2
#     Edge 32, Type (0, 1), BuildingBlock: UVAHIK_clean_linker_0, # of connection points: 2
#     Edge 33, Type (0, 1), BuildingBlock: UVAHIK_clean_linker_0, # of connection points: 2
#     Edge 34, Type (0, 1), BuildingBlock: UVAHIK_clean_linker_0, # of connection points: 2
#     Edge 35, Type (0, 1), BuildingBlock: UVAHIK_clean_linker_0, # of connection points: 2
# Relax obj value: 0.074
# Max RMSD: 0.250
# Mean RMSD: 0.202
data_MOF--net-apo--node1-KUMJIN_clean_sbu_1--node2-QEWDON_clean_linker_0--edge1-UVAHIK_clean_linker_0
_symmetry_space_group_name_H-M    P1
_symmetry_Int_Tables_number       1
_symmetry_cell_setting            triclinic
loop_
_symmetry_equiv_pos_as_xyz
'x, y, z'
_cell_length_a     37.898483
_cell_length_b     55.753213
_cell_length_c     64.827246
_cell_angle_alpha  90.006569
_cell_angle_beta   90.115556
_cell_angle_gamma 90.270956
loop_
_atom_site_label
_atom_site_type_symbol
_atom_site_fract_x
_atom_site_fract_y
_atom_site_fract_z
_atom_type_partial_charge
H0 H 0.28339 0.3894 0.38472 0.0
C1 C 0.29577 0.38925 0.39981 0.0
C2 C 0.32789 0.40144 0.40291 0.0
C3 C 0.27853 0.37803 0.41637 0.0
H4 H 0.36827 0.41069 0.42488 0.0
C5 C 0.34339 0.40141 0.42263 0.0
C6 C 0.32618 0.39073 0.43957 0.0
C7 C 0.29364 0.37906 0.43617 0.0
C8 C 0.24277 0.3677 0.4135 0.0
H9 H 0.27921 0.37141 0.44901 0.0
C10 C 0.2363 0.3493 0.39904 0.0
C11 C 0.20182 0.3403 0.39617 0.0
C12 C 0.21459 0.37682 0.42511 0.0
H13 H 0.21896 0.39103 0.43624 0.0
C14 C 0.18044 0.36804 0.42217 0.0
H15 H 0.25791 0.34206 0.3901 0.0
C16 C 0.17401 0.34998 0.40775 0.0
H17 H 0.14732 0.34326 0.40586 0.0
H18 H 0.15887 0.37528 0.4311 0.0
H19 H 0.23599 0.12518 0.88664 0.0
C20 C 0.22251 0.12575 0.90137 0.0
C21 C 0.1895 0.11439 0.9036 0.0
C22 C 0.23906 0.13669 0.91837 0.0
H23 H 0.14736 0.10585 0.92461 0.0
C24 C 0.17269 0.11472 0.92292 0.0
C25 C 0.18909 0.12516 0.94025 0.0
C26 C 0.22219 0.13629 0.93768 0.0
C27 C 0.27568 0.14614 0.91672 0.0
H28 H 0.23572 0.14388 0.95091 0.0
C29 C 0.28548 0.16275 0.90129 0.0
C30 C 0.32047 0.17155 0.90026 0.0
C31 C 0.30122 0.1383 0.93091 0.0
H32 H 0.29452 0.12535 0.94275 0.0
C33 C 0.33574 0.14686 0.92991 0.0
H34 H 0.26596 0.16886 0.89027 0.0
C35 C 0.34532 0.16338 0.91479 0.0
H36 H 0.37219 0.17009 0.91472 0.0
H37 H 0.35514 0.14075 0.94098 0.0
H38 H 0.75529 0.12623 0.63026 0.0
C39 C 0.76721 0.12795 0.61514 0.0
C40 C 0.79948 0.11653 0.61089 0.0
C41 C 0.74929 0.14064 0.59968 0.0
H42 H 0.83893 0.11003 0.58755 0.0
C43 C 0.81428 0.11887 0.59104 0.0
C44 C 0.7969 0.13186 0.57544 0.0
C45 C 0.76434 0.14258 0.57999 0.0
C46 C 0.71307 0.14966 0.60326 0.0
H47 H 0.7499 0.15185 0.56797 0.0
C48 C 0.70532 0.16519 0.6198 0.0
C49 C 0.67055 0.17346 0.6228 0.0
C50 C 0.68584 0.14242 0.58988 0.0
H51 H 0.69112 0.13035 0.57716 0.0
C52 C 0.65148 0.15042 0.59287 0.0
H53 H 0.72621 0.17089 0.63017 0.0
C54 C 0.64383 0.16583 0.60916 0.0
H55 H 0.617 0.17214 0.61086 0.0
H56 H 0.6307 0.14475 0.58245 0.0
H57 H 0.74324 0.38557 0.13359 0.0
C58 C 0.73056 0.38526 0.11859 0.0
C59 C 0.69947 0.39846 0.11519 0.0
C60 C 0.7464 0.3726 0.10237 0.0
H61 H 0.66056 0.40879 0.09245 0.0
C62 C 0.68401 0.39827 0.0954 0.0
C63 C 0.69934 0.38539 0.07911 0.0
C64 C 0.73045 0.37254 0.0828 0.0
C65 C 0.78188 0.36199 0.10488 0.0
H66 H 0.74325 0.36327 0.07017 0.0
C67 C 0.78846 0.34352 0.11921 0.0
C68 C 0.82209 0.33283 0.1202 0.0
C69 C 0.80937 0.37021 0.09217 0.0
H70 H 0.8049 0.38451 0.08116 0.0
C71 C 0.84284 0.36015 0.09355 0.0
H72 H 0.76725 0.33689 0.12888 0.0
C73 C 0.84917 0.34154 0.10737 0.0
H74 H 0.87539 0.33391 0.10804 0.0
H75 H 0.86388 0.36668 0.08374 0.0
H76 H 0.67657 0.65214 0.63932 0.0
C77 C 0.67559 0.64734 0.62312 0.0
C78 C 0.66955 0.62333 0.6173 0.0
C79 C 0.67839 0.66537 0.60809 0.0
H80 H 0.66194 0.59915 0.59169 0.0
C81 C 0.66715 0.61755 0.59622 0.0
C82 C 0.66946 0.63544 0.58099 0.0
C83 C 0.67537 0.6593 0.58711 0.0
C84 C 0.67883 0.69096 0.61416 0.0
H85 H 0.6759 0.67344 0.57563 0.0
C86 C 0.70808 0.7015 0.62423 0.0
C87 C 0.70808 0.72625 0.62895 0.0
C88 C 0.64941 0.70509 0.60934 0.0
H89 H 0.62667 0.69728 0.60167 0.0
C90 C 0.6489 0.72933 0.61448 0.0
H91 H 0.73103 0.69069 0.62768 0.0
C92 C 0.67792 0.73986 0.62418 0.0
H93 H 0.67667 0.75874 0.62803 0.0
H94 H 0.62596 0.74004 0.61085 0.0
H95 H 0.83304 0.86488 0.13659 0.0
C96 C 0.83649 0.86936 0.12046 0.0
C97 C 0.84577 0.89293 0.11455 0.0
C98 C 0.8336 0.85103 0.10569 0.0
H99 H 0.8594 0.9155 0.08855 0.0
C100 C 0.85059 0.89788 0.09338 0.0
C101 C 0.84667 0.87987 0.07836 0.0
C102 C 0.83822 0.85648 0.08474 0.0
C103 C 0.83159 0.82558 0.11213 0.0
H104 H 0.83596 0.84222 0.07343 0.0
C105 C 0.80186 0.81597 0.12233 0.0
C106 C 0.80057 0.79129 0.12731 0.0
C107 C 0.86019 0.81062 0.10751 0.0
H108 H 0.88332 0.81771 0.09978 0.0
C109 C 0.85942 0.78648 0.11293 0.0
H110 H 0.77954 0.8274 0.12567 0.0
C111 C 0.82991 0.77685 0.12271 0.0
H112 H 0.83012 0.758 0.12677 0.0
H113 H 0.88174 0.77514 0.10945 0.0
H114 H 0.18355 0.86053 0.37987 0.0
C115 C 0.1852 0.86453 0.39621 0.0
C116 C 0.18224 0.88836 0.40304 0.0
C117 C 0.18898 0.84577 0.41046 0.0
H118 H 0.18126 0.91178 0.4295 0.0
C119 C 0.18373 0.8934 0.42429 0.0
C120 C 0.18715 0.87476 0.43879 0.0
C121 C 0.18982 0.85102 0.43164 0.0
C122 C 0.18955 0.82044 0.40352 0.0
H123 H 0.19164 0.83639 0.44259 0.0
C124 C 0.21427 0.81243 0.38888 0.0
C125 C 0.21546 0.78801 0.38315 0.0
C126 C 0.16559 0.80397 0.4121 0.0
H127 H 0.14621 0.80975 0.4233 0.0
C128 C 0.16632 0.77992 0.40632 0.0
H129 H 0.23276 0.82512 0.38222 0.0
C130 C 0.19111 0.77193 0.39207 0.0
H131 H 0.19166 0.75299 0.38838 0.0
H132 H 0.14784 0.76734 0.4131 0.0
H133 H 0.32669 0.65698 0.87989 0.0
C134 C 0.32561 0.65326 0.8963 0.0
C135 C 0.32996 0.62964 0.90348 0.0
C136 C 0.32132 0.6722 0.91029 0.0
H137 H 0.33265 0.60688 0.93031 0.0
C138 C 0.32915 0.62507 0.92482 0.0
C139 C 0.32522 0.64392 0.93906 0.0
C140 C 0.32129 0.66742 0.93155 0.0
C141 C 0.31993 0.69736 0.90308 0.0
H142 H 0.31926 0.68228 0.94226 0.0
C143 C 0.2922 0.70558 0.89044 0.0
C144 C 0.28975 0.73013 0.88553 0.0
C145 C 0.34574 0.71366 0.91 0.0
H146 H 0.3673 0.70767 0.91968 0.0
C147 C 0.34381 0.73784 0.90465 0.0
H148 H 0.27185 0.69322 0.8853 0.0
C149 C 0.31582 0.7461 0.89266 0.0
H150 H 0.31437 0.76504 0.88901 0.0
H151 H 0.36376 0.75028 0.9101 0.0
Eu152 Eu 0.05014 0.11969 0.24086 0.0
C153 C 0.91423 0.07526 0.27917 0.0
N154 N 0.92221 0.09849 0.27487 0.0
C155 C 0.86557 0.10384 0.25906 0.0
C156 C 0.88182 0.06511 0.27285 0.0
C157 C 0.89821 0.11304 0.26546 0.0
C158 C 0.85746 0.07971 0.26258 0.0
C159 C 0.93058 0.03774 0.29535 0.0
C160 C 0.93834 0.06179 0.29026 0.0
C161 C 0.89901 0.02721 0.28832 0.0
C162 C 0.87464 0.04089 0.27714 0.0
Eu163 Eu 0.97752 0.1128 0.28639 0.0
N164 N 0.96833 0.07262 0.29716 0.0
C165 C 0.95416 0.02525 0.308 0.0
C166 C 0.98959 0.0612 0.31099 0.0
C167 C 0.98347 0.0372 0.31617 0.0
H168 H 0.90434 0.13171 0.2628 0.0
H169 H 1.00094 0.0281 0.32679 0.0
H170 H 0.11672 0.08302 0.25674 0.0
H171 H 0.05718 0.21519 0.22358 0.0
H172 H 0.01071 0.07076 0.31853 0.0
H173 H 0.94918 1.00675 0.31225 0.0
H174 H 0.03192 0.17407 0.22253 0.0
H175 H 0.84674 0.11535 0.25139 0.0
H176 H 0.89277 1.0087 0.29192 0.0
H177 H 0.85007 0.03269 0.27219 0.0
H178 H 0.17373 0.08677 0.27464 0.0
H179 H 0.83223 0.0726 0.25752 0.0
H180 H 0.11328 0.22275 0.24218 0.0
N181 N 0.10737 0.12066 0.25588 0.0
C182 C 0.12216 0.14281 0.25808 0.0
C183 C 0.15921 0.10271 0.27041 0.0
C184 C 0.15539 0.1458 0.26761 0.0
C185 C 0.12638 0.10066 0.26068 0.0
C186 C 0.17347 0.1254 0.27429 0.0
N187 N 0.07301 0.15908 0.24062 0.0
C188 C 0.05647 0.17738 0.23057 0.0
C189 C 0.1201 0.18557 0.25097 0.0
C190 C 0.10485 0.1625 0.24984 0.0
C191 C 0.10243 0.20475 0.24163 0.0
C192 C 0.07071 0.20056 0.23114 0.0
H193 H 0.19905 0.12692 0.28168 0.0
H194 H 0.19526 0.17155 0.27712 0.0
H195 H 0.16429 0.20639 0.2626 0.0
O196 O 0.03762 0.12117 0.20789 0.0
O197 O 0.03782 0.1493 0.26384 0.0
O198 O 0.03112 0.12877 0.29374 0.0
O199 O 0.09006 0.11175 0.21765 0.0
O200 O 0.9951 0.1331 0.23352 0.0
O201 O 0.96948 0.14452 0.2646 0.0
O202 O 0.95778 0.11095 0.31806 0.0
O203 O 0.96649 0.09697 0.25446 0.0
O204 O 0.02071 0.08435 0.24328 0.0
O205 O 0.95483 0.14431 0.30124 0.0
O206 O 0.03291 0.09836 0.29244 0.0
O207 O 0.05418 0.086 0.26077 0.0
C208 C 0.04369 0.14719 0.28363 0.0
C209 C 0.06983 0.09511 0.18643 0.0
C210 C 0.0788 0.08296 0.15053 0.0
C211 C 0.07443 0.05886 0.15664 0.0
C212 C 0.06549 0.07104 0.19209 0.0
C213 C 0.06762 0.05303 0.17722 0.0
C214 C 0.07617 0.10104 0.16569 0.0
C215 C 0.97296 0.14627 0.24435 0.0
C216 C 0.06872 0.11415 0.20208 0.0
C217 C 0.16998 0.1689 0.2696 0.0
C218 C 0.15241 0.18874 0.26127 0.0
C219 C 0.98625 0.08185 0.24409 0.0
C220 C 0.91187 0.13736 0.32732 0.0
C221 C 0.87514 0.14071 0.35816 0.0
C222 C 0.84643 0.14717 0.34559 0.0
C223 C 0.88287 0.14384 0.31506 0.0
C224 C 0.90779 0.13565 0.34883 0.0
C225 C 0.85031 0.1486 0.32419 0.0
C226 C 0.0524 0.08401 0.28103 0.0
C227 C 0.94687 0.13301 0.31822 0.0
H228 H 0.07697 0.04438 0.14562 0.0
H229 H 0.0609 0.06622 0.20804 0.0
H230 H 0.06445 0.03444 0.1817 0.0
H231 H 0.07897 0.11975 0.16146 0.0
H232 H 0.82091 0.15095 0.3523 0.0
H233 H 0.88542 0.14546 0.29851 0.0
H234 H 0.93029 0.13095 0.35834 0.0
H235 H 0.82804 0.15358 0.31466 0.0
Eu236 Eu 0.45553 0.39938 0.74205 0.0
C237 C 0.60151 0.43571 0.76429 0.0
N238 N 0.59133 0.4123 0.76511 0.0
C239 C 0.64328 0.40061 0.74676 0.0
C240 C 0.63292 0.44251 0.75421 0.0
C241 C 0.61181 0.39472 0.75683 0.0
C242 C 0.65379 0.42461 0.74534 0.0
C243 C 0.59012 0.47729 0.7729 0.0
C244 C 0.58005 0.45289 0.77334 0.0
C245 C 0.62093 0.48421 0.76242 0.0
C246 C 0.64229 0.46687 0.75312 0.0
Eu247 Eu 0.53724 0.40401 0.78165 0.0
N248 N 0.55008 0.4457 0.78317 0.0
C249 C 0.56945 0.49392 0.78352 0.0
C250 C 0.53222 0.46147 0.79532 0.0
C251 C 0.54085 0.48588 0.79519 0.0
H252 H 0.60382 0.37617 0.75799 0.0
H253 H 0.52591 0.49837 0.80445 0.0
H254 H 0.39672 0.44292 0.75097 0.0
H255 H 0.43776 0.30188 0.74133 0.0
H256 H 0.51213 0.45526 0.80572 0.0
H257 H 0.57628 0.51281 0.78358 0.0
H258 H 0.46983 0.33983 0.73616 0.0
H259 H 0.65937 0.38665 0.74008 0.0
H260 H 0.6288 0.5029 0.76172 0.0
H261 H 0.66613 0.47248 0.74524 0.0
H262 H 0.33492 0.4467 0.76259 0.0
H263 H 0.67808 0.42912 0.73742 0.0
H264 H 0.37576 0.30232 0.75313 0.0
N265 N 0.39625 0.40488 0.75181 0.0
C266 C 0.37684 0.38459 0.75471 0.0
C267 C 0.34646 0.42913 0.76058 0.0
C268 C 0.34133 0.38588 0.76106 0.0
C269 C 0.38156 0.42697 0.75428 0.0
C270 C 0.3263 0.4085 0.7641 0.0
N271 N 0.42713 0.36173 0.74572 0.0
C272 C 0.44307 0.34039 0.74157 0.0
C273 C 0.3731 0.34109 0.75437 0.0
C274 C 0.39255 0.36243 0.75136 0.0
C275 C 0.38977 0.31911 0.75092 0.0
C276 C 0.42481 0.31878 0.74433 0.0
H277 H 0.2991 0.41023 0.76897 0.0
H278 H 0.29471 0.36529 0.76912 0.0
H279 H 0.32253 0.3261 0.76333 0.0
O280 O 0.4663 0.39243 0.70945 0.0
O281 O 0.4485 0.38186 0.77353 0.0
O282 O 0.50383 0.37031 0.78461 0.0
O283 O 0.41897 0.41126 0.71815 0.0
O284 O 0.50482 0.37765 0.73444 0.0
O285 O 0.53699 0.36895 0.76414 0.0
O286 O 0.54013 0.40758 0.81521 0.0
O287 O 0.54191 0.41565 0.74794 0.0
O288 O 0.48886 0.43304 0.74172 0.0
O289 O 0.5806 0.38808 0.7992 0.0
O290 O 0.4837 0.41943 0.79108 0.0
O291 O 0.45977 0.43352 0.76076 0.0
C292 C 0.46932 0.36781 0.78429 0.0
C293 C 0.4445 0.42153 0.6863 0.0
C294 C 0.44047 0.43198 0.64968 0.0
C295 C 0.45257 0.45526 0.65461 0.0
C296 C 0.45679 0.44472 0.69074 0.0
C297 C 0.46093 0.46143 0.67493 0.0
C298 C 0.4368 0.41514 0.66581 0.0
C299 C 0.52858 0.36503 0.74467 0.0
C300 C 0.43867 0.40409 0.70297 0.0
C301 C 0.32198 0.36464 0.76417 0.0
C302 C 0.33781 0.34232 0.76084 0.0
C303 C 0.52309 0.43255 0.7393 0.0
C304 C 0.59711 0.40874 0.82968 0.0
C305 C 0.62281 0.41632 0.8637 0.0
C306 C 0.64609 0.433 0.8547 0.0
C307 C 0.62074 0.42534 0.82104 0.0
C308 C 0.59835 0.40417 0.85101 0.0
C309 C 0.64507 0.43739 0.83351 0.0
C310 C 0.46258 0.4341 0.78098 0.0
C311 C 0.57029 0.3967 0.81682 0.0
H312 H 0.45499 0.46896 0.64286 0.0
H313 H 0.4627 0.44998 0.70644 0.0
H314 H 0.47015 0.47937 0.67847 0.0
H315 H 0.42798 0.39702 0.66256 0.0
H316 H 0.66544 0.44244 0.86402 0.0
H317 H 0.62041 0.42902 0.80471 0.0
H318 H 0.5799 0.3915 0.85774 0.0
H319 H 0.66322 0.45017 0.82672 0.0
Eu320 Eu 0.03692 0.90604 0.73159 0.0
C321 C 0.88756 0.87918 0.7588 0.0
N322 N 0.90432 0.90062 0.76128 0.0
C323 C 0.85401 0.921 0.74728 0.0
C324 C 0.85396 0.87778 0.74945 0.0
C325 C 0.88705 0.92148 0.75691 0.0
C326 C 0.83769 0.89902 0.74313 0.0
C327 C 0.88552 0.8364 0.76573 0.0
C328 C 0.90309 0.85871 0.76676 0.0
C329 C 0.85282 0.83475 0.75559 0.0
C330 C 0.83715 0.85538 0.74738 0.0
Eu331 Eu 0.96178 0.89897 0.77598 0.0
N332 N 0.93524 0.86069 0.77587 0.0
C333 C 0.90134 0.81646 0.77501 0.0
C334 C 0.95012 0.84164 0.78577 0.0
C335 C 0.93357 0.81916 0.7853 0.0
H336 H 0.89834 0.93861 0.76106 0.0
H337 H 0.94573 0.80394 0.79279 0.0
H338 H 0.1082 0.88675 0.75684 0.0
H339 H 0.014 0.99306 0.69485 0.0
H340 H 0.97509 0.84381 0.79366 0.0
H341 H 0.88869 0.799 0.77454 0.0
H342 H 0.00482 0.94984 0.70077 0.0
H343 H 0.84092 0.9376 0.74335 0.0
H344 H 0.83919 0.81769 0.7543 0.0
H345 H 0.81156 0.85393 0.73999 0.0
H346 H 0.16417 0.90312 0.77086 0.0
H347 H 0.81192 0.89871 0.73587 0.0
H348 H 0.06393 0.01404 0.71178 0.0
N349 N 0.09066 0.92038 0.74551 0.0
C350 C 0.09839 0.94391 0.74243 0.0
C351 C 0.14579 0.91481 0.76302 0.0
C352 C 0.1298 0.95408 0.75027 0.0
C353 C 0.11409 0.90562 0.75519 0.0
C354 C 0.15354 0.9392 0.76074 0.0
N355 N 0.0457 0.94703 0.7231 0.0
C356 C 0.02517 0.9591 0.70928 0.0
C357 C 0.0822 0.98221 0.7276 0.0
C358 C 0.07482 0.95775 0.73128 0.0
C359 C 0.05924 0.99522 0.71496 0.0
C360 C 0.03095 0.98348 0.70545 0.0
H361 H 0.178 0.94632 0.76695 0.0
H362 H 0.16034 0.98683 0.75345 0.0
H363 H 0.11867 0.01148 0.73357 0.0
O364 O 0.05509 0.90957 0.69977 0.0
O365 O 0.04565 0.91999 0.76438 0.0
O366 O 0.99174 0.93414 0.77413 0.0
O367 O 0.06589 0.87702 0.7165 0.0
O368 O 0.98161 0.91981 0.7246 0.0
O369 O 0.96005 0.93271 0.75597 0.0
O370 O 0.97513 0.8964 0.80872 0.0
O371 O 0.97264 0.86918 0.75282 0.0
O372 O 0.98412 0.88945 0.72307 0.0
O373 O 0.92321 0.90797 0.79977 0.0
O374 O 0.01571 0.88311 0.78308 0.0
O375 O 0.04177 0.8728 0.7518 0.0
C376 C 0.02625 0.93593 0.77397 0.0
C377 C 0.10629 0.88871 0.69017 0.0
C378 C 0.14295 0.89035 0.65917 0.0
C379 C 0.17323 0.89023 0.67174 0.0
C380 C 0.13687 0.88826 0.70238 0.0
C381 C 0.17013 0.88911 0.69319 0.0
C382 C 0.10949 0.88961 0.66857 0.0
C383 C 0.96187 0.93428 0.7357 0.0
C384 C 0.07082 0.88895 0.69945 0.0
C385 C 0.13656 0.97862 0.74734 0.0
C386 C 0.11276 0.99267 0.73607 0.0
C387 C 0.96898 0.87159 0.73283 0.0
C388 C 0.94611 0.92312 0.83102 0.0
C389 C 0.93778 0.93503 0.86699 0.0
C390 C 0.94904 0.95837 0.86181 0.0
C391 C 0.95713 0.94648 0.8262 0.0
C392 C 0.93647 0.91745 0.85136 0.0
C393 C 0.95865 0.96399 0.84157 0.0
C394 C 0.03824 0.87048 0.772 0.0
C395 C 0.94486 0.90444 0.81504 0.0
H396 H 0.19934 0.89056 0.66497 0.0
H397 H 0.13513 0.88722 0.71897 0.0
H398 H 0.19361 0.8888 0.70272 0.0
H399 H 0.08587 0.89007 0.65911 0.0
H400 H 0.94996 0.97241 0.87335 0.0
H401 H 0.96447 0.95112 0.81058 0.0
H402 H 0.92841 0.89926 0.85502 0.0
H403 H 0.96716 0.98201 0.83776 0.0
Eu404 Eu 0.47489 0.61327 0.23315 0.0
C405 C 0.62269 0.64303 0.26187 0.0
N406 N 0.60657 0.62135 0.26422 0.0
C407 C 0.65795 0.60168 0.25093 0.0
C408 C 0.65655 0.64489 0.25299 0.0
C409 C 0.62461 0.60074 0.26009 0.0
C410 C 0.67372 0.62387 0.24697 0.0
C411 C 0.623 0.68591 0.2685 0.0
C412 C 0.60618 0.66333 0.26947 0.0
C413 C 0.65602 0.68797 0.25886 0.0
C414 C 0.67269 0.66752 0.25104 0.0
Eu415 Eu 0.54867 0.62225 0.27824 0.0
N416 N 0.57375 0.66096 0.27809 0.0
C417 C 0.60613 0.70571 0.27733 0.0
C418 C 0.55779 0.67989 0.28753 0.0
C419 C 0.57356 0.70262 0.2871 0.0
H420 H 0.61376 0.58344 0.2641 0.0
H421 H 0.56058 0.71773 0.29424 0.0
H422 H 0.40324 0.6327 0.25788 0.0
H423 H 0.49951 0.52563 0.19803 0.0
H424 H 0.53259 0.67742 0.29505 0.0
H425 H 0.61818 0.72336 0.2769 0.0
H426 H 0.50826 0.56898 0.20345 0.0
H427 H 0.67171 0.58527 0.24722 0.0
H428 H 0.66912 0.70523 0.25765 0.0
H429 H 0.69849 0.66932 0.24402 0.0
H430 H 0.34721 0.61634 0.27166 0.0
H431 H 0.69972 0.62454 0.24007 0.0
H432 H 0.44921 0.50483 0.21463 0.0
N433 N 0.42114 0.59898 0.24696 0.0
C434 C 0.4136 0.57539 0.24403 0.0
C435 C 0.36575 0.6046 0.26406 0.0
C436 C 0.38212 0.56524 0.25173 0.0
C437 C 0.39751 0.61379 0.25637 0.0
C438 C 0.35815 0.58017 0.2619 0.0
N439 N 0.46671 0.5721 0.22521 0.0
C440 C 0.48772 0.55983 0.21184 0.0
C441 C 0.43034 0.5369 0.22981 0.0
C442 C 0.43746 0.56144 0.23324 0.0
C443 C 0.45371 0.52373 0.21761 0.0
C444 C 0.48219 0.53537 0.20827 0.0
H445 H 0.33364 0.57307 0.26799 0.0
H446 H 0.35172 0.53245 0.255 0.0
H447 H 0.39393 0.50761 0.23579 0.0
O448 O 0.45734 0.60893 0.20122 0.0
O449 O 0.46588 0.59984 0.26605 0.0
O450 O 0.51999 0.58663 0.27644 0.0
O451 O 0.44577 0.64175 0.21736 0.0
O452 O 0.53056 0.59979 0.22692 0.0
O453 O 0.55204 0.58814 0.25875 0.0
O454 O 0.53445 0.62471 0.31084 0.0
O455 O 0.53822 0.65132 0.25431 0.0
O456 O 0.52762 0.63004 0.22491 0.0
O457 O 0.58717 0.61445 0.30245 0.0
O458 O 0.4941 0.63765 0.28445 0.0
O459 O 0.46951 0.64704 0.25252 0.0
C460 C 0.48558 0.58424 0.27587 0.0
C461 C 0.40601 0.62929 0.19089 0.0
C462 C 0.36981 0.62769 0.15963 0.0
C463 C 0.33936 0.62716 0.17198 0.0
C464 C 0.37526 0.62908 0.20289 0.0
C465 C 0.34215 0.62794 0.19346 0.0
C466 C 0.40313 0.62874 0.16926 0.0
C467 C 0.55049 0.58592 0.23851 0.0
C468 C 0.44133 0.62945 0.20045 0.0
C469 C 0.37556 0.54064 0.24899 0.0
C470 C 0.39966 0.52648 0.23811 0.0
C471 C 0.5422 0.64835 0.23441 0.0
C472 C 0.56436 0.59856 0.33333 0.0
C473 C 0.57402 0.58613 0.36907 0.0
C474 C 0.56312 0.56276 0.36368 0.0
C475 C 0.55372 0.57517 0.32831 0.0
C476 C 0.57449 0.60399 0.35367 0.0
C477 C 0.55303 0.55739 0.34345 0.0
C478 C 0.472 0.64988 0.2727 0.0
C479 C 0.56497 0.61741 0.31749 0.0
H480 H 0.31336 0.62659 0.16503 0.0
H481 H 0.37675 0.62983 0.21949 0.0
H482 H 0.31855 0.62774 0.20283 0.0
H483 H 0.42687 0.62879 0.15996 0.0
H484 H 0.56289 0.54851 0.37502 0.0
H485 H 0.5461 0.57069 0.31269 0.0
H486 H 0.58234 0.62218 0.35749 0.0
H487 H 0.54481 0.53935 0.33947 0.0
C488 C 0.19632 0.92829 0.38714 0.0
C489 C 0.17473 0.90782 0.38813 0.0
C490 C 0.18806 0.94709 0.37366 0.0
C491 C 0.12814 0.96317 0.32942 0.0
H492 H 0.14997 0.0279 0.34713 0.0
C493 C 0.08436 0.04462 0.28071 0.0
C494 C 0.07315 0.06506 0.2915 0.0
C495 C 0.10153 0.02595 0.29106 0.0
C496 C 0.14321 0.00999 0.34199 0.0
H497 H 0.12751 0.89091 0.37612 0.0
H498 H 0.11188 0.92398 0.35348 0.0
H499 H 0.16893 0.99436 0.36798 0.0
H500 H 0.0731 0.08256 0.32135 0.0
H501 H 0.10071 0.04967 0.33958 0.0
H502 H 0.10005 0.97885 0.30428 0.0
C503 C 0.13607 0.92538 0.36231 0.0
C504 C 0.15478 0.99057 0.35383 0.0
C505 C 0.14482 0.90641 0.37542 0.0
C506 C 0.08077 0.06684 0.31265 0.0
C507 C 0.0972 0.04801 0.32307 0.0
C508 C 0.11589 0.9826 0.31782 0.0
C509 C 0.15747 0.9461 0.36125 0.0
C510 C 0.1471 0.96682 0.34787 0.0
C511 C 0.10749 0.02711 0.31252 0.0
C512 C 0.12286 1.00635 0.32405 0.0
H513 H 0.21966 0.92969 0.39675 0.0
H514 H 0.20572 0.96238 0.37306 0.0
H515 H 0.12232 0.94524 0.32393 0.0
H516 H 0.0792 0.0428 0.26435 0.0
H517 H 0.10981 0.01053 0.2822 0.0
C518 C 0.31946 0.58832 0.88927 0.0
C519 C 0.33842 0.61 0.88891 0.0
C520 C 0.32912 0.56928 0.87641 0.0
C521 C 0.38656 0.55425 0.8311 0.0
H522 H 0.37526 0.48954 0.85191 0.0
C523 C 0.42923 0.47289 0.78231 0.0
C524 C 0.44363 0.45303 0.79261 0.0
C525 C 0.41299 0.49134 0.79334 0.0
C526 C 0.37907 0.50747 0.8459 0.0
H527 H 0.38247 0.62878 0.87505 0.0
H528 H 0.40039 0.59546 0.85331 0.0
H529 H 0.35475 0.52307 0.87235 0.0
H530 H 0.45205 0.43698 0.82266 0.0
H531 H 0.42562 0.46962 0.84196 0.0
H532 H 0.41308 0.53884 0.80534 0.0
C533 C 0.3772 0.59322 0.86283 0.0
C534 C 0.36661 0.52681 0.85752 0.0
C535 C 0.36707 0.61236 0.87538 0.0
C536 C 0.44115 0.45199 0.81422 0.0
C537 C 0.4256 0.47069 0.82529 0.0
C538 C 0.39963 0.53497 0.81968 0.0
C539 C 0.3585 0.5713 0.8632 0.0
C540 C 0.37034 0.55054 0.85036 0.0
C541 C 0.41143 0.49075 0.81504 0.0
C542 C 0.39625 0.51126 0.82693 0.0
H543 H 0.29714 0.58612 0.89953 0.0
H544 H 0.31352 0.55299 0.8769 0.0
H545 H 0.3894 0.57211 0.82477 0.0
H546 H 0.43107 0.4745 0.76571 0.0
H547 H 0.40185 0.50614 0.78475 0.0
C548 C 0.67654 0.5816 0.63135 0.0
C549 C 0.66176 0.60459 0.63299 0.0
C550 C 0.66564 0.56307 0.64447 0.0
C551 C 0.61416 0.55018 0.69248 0.0
H552 H 0.60137 0.48784 0.66692 0.0
C553 C 0.5269 0.47515 0.72751 0.0
C554 C 0.54077 0.45185 0.72756 0.0
C555 C 0.54431 0.49367 0.71707 0.0
C556 C 0.60516 0.50506 0.67435 0.0
H557 H 0.6245 0.62629 0.64997 0.0
H558 H 0.605 0.59401 0.6726 0.0
H559 H 0.62778 0.52045 0.64721 0.0
H560 H 0.58324 0.42945 0.71649 0.0
H561 H 0.61353 0.46179 0.69797 0.0
H562 H 0.59036 0.53476 0.71942 0.0
C563 C 0.62559 0.59029 0.66151 0.0
C564 C 0.62047 0.52379 0.66309 0.0
C565 C 0.63676 0.60886 0.64852 0.0
C566 C 0.57207 0.4473 0.71673 0.0
C567 C 0.58929 0.46576 0.70608 0.0
C568 C 0.59853 0.53148 0.70367 0.0
C569 C 0.63936 0.567 0.65941 0.0
C570 C 0.62497 0.54669 0.67193 0.0
C571 C 0.57567 0.48918 0.7062 0.0
C572 C 0.59363 0.50877 0.69467 0.0
H573 H 0.6961 0.57784 0.61964 0.0
H574 H 0.67748 0.54556 0.64267 0.0
H575 H 0.61773 0.56738 0.69996 0.0
H576 H 0.50287 0.47914 0.73584 0.0
H577 H 0.53297 0.51146 0.71725 0.0
C578 C 0.86918 0.90596 0.14939 0.0
C579 C 0.85368 0.91189 0.13031 0.0
C580 C 0.87976 0.92386 0.16325 0.0
C581 C 0.87525 0.99047 0.17293 0.0
H582 H 0.95819 0.97721 0.20591 0.0
C583 C 0.93292 0.06196 0.22842 0.0
C584 C 0.96941 0.06213 0.23217 0.0
C585 C 0.91704 0.04319 0.21743 0.0
C586 C 0.93534 0.98149 0.1966 0.0
H587 H 0.8355 0.94175 0.11164 0.0
H588 H 0.8563 0.97271 0.13481 0.0
H589 H 0.93401 0.94618 0.18402 0.0
H590 H 0.01802 0.0428 0.22682 0.0
H591 H 0.99118 0.01132 0.20624 0.0
H592 H 0.8783 0.02636 0.18425 0.0
C593 C 0.85952 0.95422 0.13949 0.0
C594 C 0.92083 0.96335 0.18428 0.0
C595 C 0.84811 0.93631 0.12588 0.0
C596 C 0.98983 0.04335 0.22419 0.0
C597 C 0.97418 0.02494 0.21265 0.0
C598 C 0.89031 1.0088 0.18484 0.0
C599 C 0.87602 0.94833 0.15829 0.0
C600 C 0.89057 0.96752 0.17217 0.0
C601 C 0.93744 0.02442 0.2092 0.0
C602 C 0.92071 1.00466 0.19684 0.0
H603 H 0.87439 0.88749 0.15346 0.0
H604 H 0.89136 0.91837 0.17775 0.0
H605 H 0.85158 0.99447 0.16425 0.0
H606 H 0.91656 0.07647 0.23379 0.0
H607 H 0.88868 0.04349 0.2155 0.0
C608 C 0.79561 0.08528 0.63884 0.0
C609 C 0.81635 0.10065 0.62655 0.0
C610 C 0.81137 0.069 0.65238 0.0
C611 C 0.89346 0.03537 0.65943 0.0
H612 H 0.8557 0.02124 0.71369 0.0
C613 C 0.93283 0.95049 0.70401 0.0
C614 C 0.94192 0.95331 0.72489 0.0
C615 C 0.91705 0.9692 0.69311 0.0
C616 C 0.86666 0.0251 0.69863 0.0
H617 H 0.87008 0.11149 0.61964 0.0
H618 H 0.89757 0.08284 0.6431 0.0
H619 H 0.83013 0.05368 0.69315 0.0
H620 H 0.94019 0.97756 0.75099 0.0
H621 H 0.91203 0.01027 0.73194 0.0
H622 H 0.92985 1.00679 0.66482 0.0
C623 C 0.86906 0.08328 0.64205 0.0
C624 C 0.85187 0.04354 0.68681 0.0
C625 C 0.85329 0.09968 0.62858 0.0
C626 C 0.93343 0.97487 0.7349 0.0
C627 C 0.91735 0.99359 0.724 0.0
C628 C 0.90802 0.01685 0.67116 0.0
C629 C 0.84829 0.06753 0.65391 0.0
C630 C 0.86499 0.0488 0.66702 0.0
C631 C 0.90961 0.9911 0.70288 0.0
C632 C 0.89462 0.01135 0.69082 0.0
H633 H 0.76713 0.08517 0.63746 0.0
H634 H 0.79462 0.05691 0.66109 0.0
H635 H 0.90398 0.03879 0.64419 0.0
H636 H 0.93859 0.93394 0.69595 0.0
H637 H 0.91076 0.96654 0.67696 0.0
C638 C 0.70704 0.42841 0.14394 0.0
C639 C 0.68466 0.41415 0.13161 0.0
C640 C 0.69304 0.44518 0.15771 0.0
C641 C 0.61406 0.48208 0.16448 0.0
H642 H 0.65356 0.49608 0.21843 0.0
C643 C 0.58013 0.56878 0.2075 0.0
C644 C 0.57053 0.56655 0.22832 0.0
C645 C 0.59535 0.54957 0.19703 0.0
C646 C 0.64215 0.49228 0.20344 0.0
H647 H 0.62996 0.40541 0.12504 0.0
H648 H 0.60558 0.43476 0.14896 0.0
H649 H 0.67635 0.46229 0.19837 0.0
H650 H 0.57104 0.5429 0.25485 0.0
H651 H 0.59812 0.50925 0.23653 0.0
H652 H 0.57995 0.51198 0.16943 0.0
C653 C 0.63398 0.43321 0.14773 0.0
C654 C 0.65535 0.47305 0.19191 0.0
C655 C 0.64795 0.4164 0.13402 0.0
C656 C 0.5782 0.54512 0.23879 0.0
C657 C 0.59366 0.52587 0.22831 0.0
C658 C 0.6011 0.50134 0.17591 0.0
C659 C 0.65635 0.44816 0.15941 0.0
C660 C 0.64151 0.4678 0.17225 0.0
C661 C 0.60163 0.52773 0.20718 0.0
C662 C 0.61515 0.5068 0.19544 0.0
H663 H 0.73542 0.4274 0.1423 0.0
H664 H 0.71101 0.45657 0.16633 0.0
H665 H 0.60308 0.47873 0.14931 0.0
H666 H 0.57502 0.58523 0.19912 0.0
H667 H 0.60188 0.55174 0.18087 0.0
C668 C 0.32177 0.43329 0.37595 0.0
C669 C 0.34321 0.4167 0.38637 0.0
C670 C 0.33661 0.45004 0.36243 0.0
C671 C 0.41399 0.46424 0.33064 0.0
H672 H 0.38877 0.53038 0.34138 0.0
C673 C 0.48808 0.54364 0.29237 0.0
C674 C 0.46889 0.5644 0.28755 0.0
C675 C 0.47244 0.52497 0.30357 0.0
C676 C 0.3957 0.51202 0.33783 0.0
H677 H 0.39675 0.40395 0.39008 0.0
H678 H 0.4227 0.43306 0.36608 0.0
H679 H 0.36152 0.49841 0.36138 0.0
H680 H 0.41861 0.58208 0.29114 0.0
H681 H 0.39048 0.54907 0.30936 0.0
H682 H 0.44765 0.4777 0.30679 0.0
C683 C 0.39443 0.43312 0.36851 0.0
C684 C 0.38013 0.49369 0.3494 0.0
C685 C 0.37963 0.41655 0.38228 0.0
C686 C 0.43378 0.56608 0.29415 0.0
C687 C 0.41789 0.54727 0.30499 0.0
C688 C 0.42923 0.48257 0.31881 0.0
C689 C 0.37316 0.45039 0.35883 0.0
C690 C 0.38917 0.46962 0.34599 0.0
C691 C 0.43705 0.52648 0.31002 0.0
C692 C 0.42041 0.50677 0.3223 0.0
H693 H 0.29369 0.43402 0.37895 0.0
H694 H 0.31957 0.46302 0.35505 0.0
H695 H 0.42127 0.44581 0.3276 0.0
H696 H 0.51526 0.54181 0.2875 0.0
H697 H 0.48835 0.50952 0.30743 0.0
C698 C 0.19511 0.08252 0.87658 0.0
C699 C 0.17424 0.09969 0.88662 0.0
C700 C 0.17989 0.06621 0.86275 0.0
C701 C 0.10259 0.05406 0.82984 0.0
H702 H 0.12407 0.98732 0.84071 0.0
C703 C 0.02511 0.97643 0.79081 0.0
C704 C 0.04346 0.95533 0.78599 0.0
C705 C 0.04141 0.99471 0.80223 0.0
C706 C 0.11818 1.00584 0.83713 0.0
H707 H 0.1214 0.11401 0.88928 0.0
H708 H 0.09483 0.08568 0.86481 0.0
H709 H 0.15264 0.01858 0.86099 0.0
H710 H 0.09289 0.93661 0.78989 0.0
H711 H 0.12213 0.96887 0.80854 0.0
H712 H 0.06857 0.04143 0.80574 0.0
C713 C 0.12294 0.08479 0.86774 0.0
C714 C 0.13453 0.02377 0.84885 0.0
C715 C 0.13809 0.10092 0.8818 0.0
C716 C 0.07836 0.95288 0.79289 0.0
C717 C 0.0949 0.97128 0.80397 0.0
C718 C 0.08655 0.03611 0.81789 0.0
C719 C 0.14353 0.06689 0.85847 0.0
C720 C 0.12685 0.04807 0.8454 0.0
C721 C 0.07661 0.99242 0.80895 0.0
C722 C 0.09401 0.01171 0.82142 0.0
H723 H 0.22295 0.08096 0.88013 0.0
H724 H 0.19646 0.05274 0.85569 0.0
H725 H 0.09634 0.07266 0.82676 0.0
H726 H 0.99812 0.97885 0.78572 0.0
H727 H 0.02617 0.01046 0.80603 0.0
C728 C 0.17763 0.14066 0.97629 0.0
C729 C 0.17332 0.12261 0.96129 0.0
C730 C 0.16535 0.13733 0.99646 0.0
C731 C 0.13757 0.08861 0.03257 0.0
H732 H 0.10516 0.14176 0.06601 0.0
C733 C 0.07249 0.07535 0.11231 0.0
C734 C 0.08685 0.08906 0.12857 0.0
C735 C 0.08149 0.0802 0.09181 0.0
C736 C 0.11428 0.12678 0.05684 0.0
H737 H 0.15189 0.0869 0.95604 0.0
H738 H 0.12871 0.08179 0.99051 0.0
H739 H 0.12255 0.14883 0.03026 0.0
H740 H 0.12181 0.11897 0.13563 0.0
H741 H 0.13639 0.12787 0.0998 0.0
H742 H 0.1284 0.06654 0.05909 0.0
C743 C 0.1426 0.09828 0.98696 0.0
C744 C 0.12444 0.13081 0.03636 0.0
C745 C 0.15536 0.10145 0.96692 0.0
C746 C 0.1097 0.10822 0.12362 0.0
C747 C 0.11824 0.1133 0.10307 0.0
C748 C 0.12688 0.08455 0.0529 0.0
C749 C 0.14796 0.11596 1.00216 0.0
C750 C 0.13636 0.11178 0.02392 0.0
C751 C 0.10459 0.09914 0.08699 0.0
C752 C 0.11525 0.10358 0.06528 0.0
H753 H 0.19083 0.15736 0.97254 0.0
H754 H 0.17035 0.15132 1.00767 0.0
H755 H 0.14738 0.07354 0.02378 0.0
H756 H 0.05419 0.06082 0.11536 0.0
H757 H 0.07022 0.06919 0.07969 0.0
C758 C 0.3354 0.3754 0.47594 0.0
C759 C 0.34071 0.39335 0.46096 0.0
C760 C 0.34715 0.3786 0.49625 0.0
C761 C 0.3778 0.42682 0.5325 0.0
H762 H 0.40568 0.37274 0.56632 0.0
C763 C 0.44897 0.43618 0.6112 0.0
C764 C 0.43096 0.42562 0.62793 0.0
C765 C 0.43876 0.43138 0.59088 0.0
C766 C 0.39787 0.38795 0.55701 0.0
H767 H 0.36312 0.42885 0.45605 0.0
H768 H 0.38579 0.43355 0.49064 0.0
H769 H 0.38759 0.36604 0.53059 0.0
H770 H 0.38812 0.40127 0.63592 0.0
H771 H 0.37169 0.39208 0.60037 0.0
H772 H 0.3896 0.44871 0.55885 0.0
C773 C 0.37137 0.41729 0.487 0.0
C774 C 0.38723 0.38417 0.53655 0.0
C775 C 0.35896 0.41432 0.46685 0.0
C776 C 0.40316 0.40947 0.62361 0.0
C777 C 0.39349 0.40428 0.60323 0.0
C778 C 0.3892 0.43061 0.55275 0.0
C779 C 0.36518 0.39968 0.50214 0.0
C780 C 0.37693 0.40356 0.52397 0.0
C781 C 0.41087 0.41546 0.58672 0.0
C782 C 0.39921 0.41123 0.5652 0.0
H783 H 0.32199 0.35882 0.47204 0.0
H784 H 0.34141 0.36467 0.50739 0.0
H785 H 0.36923 0.4422 0.52367 0.0
H786 H 0.47107 0.4482 0.61373 0.0
H787 H 0.45278 0.44004 0.57835 0.0
C788 C 0.67522 0.40916 0.0494 0.0
C789 C 0.6847 0.38688 0.05784 0.0
C790 C 0.66415 0.4109 0.02886 0.0
C791 C 0.66941 0.37845 0.97901 0.0
H792 H 0.60045 0.42562 0.96186 0.0
C793 C 0.62423 0.38813 0.89399 0.0
C794 C 0.62434 0.4117 0.88628 0.0
C795 C 0.62798 0.38386 0.91516 0.0
C796 C 0.61984 0.41241 0.96642 0.0
H797 H 0.68874 0.34883 0.05157 0.0
H798 H 0.66872 0.35173 0.01584 0.0
H799 H 0.61295 0.42014 0.99849 0.0
H800 H 0.62709 0.44926 0.89479 0.0
H801 H 0.63356 0.44182 0.93171 0.0
H802 H 0.67624 0.37079 0.94689 0.0
C803 C 0.67063 0.36799 0.02492 0.0
C804 C 0.62711 0.40931 0.98741 0.0
C805 C 0.68196 0.36628 0.04543 0.0
C806 C 0.62725 0.43089 0.90025 0.0
C807 C 0.63063 0.42664 0.92141 0.0
C808 C 0.66191 0.38143 0.95803 0.0
C809 C 0.66205 0.39038 0.01626 0.0
C810 C 0.65238 0.39252 0.994 0.0
C811 C 0.63148 0.40307 0.9291 0.0
C812 C 0.63741 0.39868 0.95147 0.0
H813 H 0.67758 0.42542 0.05846 0.0
H814 H 0.65839 0.4285 0.0227 0.0
H815 H 0.68944 0.36563 0.9834 0.0
H816 H 0.62222 0.37298 0.88359 0.0
H817 H 0.62828 0.36551 0.92064 0.0
C818 C 0.80785 0.15418 0.54227 0.0
C819 C 0.81133 0.13312 0.55405 0.0
C820 C 0.81865 0.15485 0.52167 0.0
C821 C 0.83743 0.11456 0.47742 0.0
H822 H 0.87345 0.1731 0.45278 0.0
C823 C 0.88422 0.12015 0.3923 0.0
C824 C 0.87112 0.13969 0.38095 0.0
C825 C 0.87973 0.11907 0.41372 0.0
C826 C 0.86329 0.15665 0.45943 0.0
H827 H 0.82987 0.09637 0.55329 0.0
H828 H 0.84999 0.09783 0.51767 0.0
H829 H 0.86199 0.17173 0.48976 0.0
H830 H 0.84381 0.17365 0.38323 0.0
H831 H 0.83616 0.17183 0.42061 0.0
H832 H 0.83907 0.09951 0.44701 0.0
C833 C 0.83811 0.11371 0.52423 0.0
C834 C 0.85658 0.15586 0.48064 0.0
C835 C 0.82703 0.11298 0.54482 0.0
C836 C 0.85391 0.15827 0.39153 0.0
C837 C 0.84982 0.15733 0.41294 0.0
C838 C 0.8445 0.11529 0.45624 0.0
C839 C 0.83358 0.13455 0.51226 0.0
C840 C 0.84307 0.1349 0.4899 0.0
C841 C 0.8625 0.13767 0.42428 0.0
C842 C 0.85705 0.13644 0.44697 0.0
H843 H 0.79636 0.17016 0.54892 0.0
H844 H 0.81431 0.17116 0.51298 0.0
H845 H 0.82652 0.09822 0.48385 0.0
H846 H 0.89742 0.10551 0.38456 0.0
H847 H 0.88995 0.10376 0.42205 0.0
C848 C 0.8421 0.90671 0.0472 0.0
C849 C 0.85378 0.8852 0.0562 0.0
C850 C 0.84974 0.91201 0.02657 0.0
C851 C 0.87684 0.884 0.97721 0.0
H852 H 0.9059 0.94866 0.96294 0.0
C853 C 0.89818 0.91421 0.89261 0.0
C854 C 0.92745 0.9291 0.88859 0.0
C855 C 0.88831 0.90887 0.9129 0.0
C856 C 0.89803 0.93047 0.96667 0.0
H857 H 0.88308 0.85253 0.05049 0.0
H858 H 0.89621 0.86171 0.01458 0.0
H859 H 0.8904 0.93919 0.99851 0.0
H860 H 0.96966 0.94963 0.90289 0.0
H861 H 0.95244 0.94034 0.9382 0.0
H862 H 0.88518 0.87516 0.94545 0.0
C863 C 0.88065 0.87433 0.02337 0.0
C864 C 0.88873 0.92511 0.98704 0.0
C865 C 0.87307 0.86905 0.04399 0.0
C866 C 0.94663 0.93843 0.90539 0.0
C867 C 0.93674 0.93311 0.92566 0.0
C868 C 0.88605 0.88937 0.95683 0.0
C869 C 0.86923 0.89592 0.01442 0.0
C870 C 0.87818 0.90178 0.9926 0.0
C871 C 0.90742 0.91829 0.92969 0.0
C872 C 0.89694 0.91266 0.95131 0.0
H873 H 0.82682 0.91941 0.05608 0.0
H874 H 0.84009 0.92864 0.0201 0.0
H875 H 0.86849 0.8659 0.9809 0.0
H876 H 0.88246 0.90701 0.88007 0.0
H877 H 0.8653 0.89766 0.91542 0.0
C878 C 0.63496 0.6138 0.55349 0.0
C879 C 0.66257 0.62954 0.5589 0.0
C880 C 0.62734 0.60893 0.53281 0.0
C881 C 0.63881 0.63334 0.48016 0.0
H882 H 0.61069 0.56917 0.46368 0.0
C883 C 0.61409 0.60674 0.3947 0.0
C884 C 0.58496 0.59171 0.39067 0.0
C885 C 0.62479 0.61145 0.415 0.0
C886 C 0.61816 0.58725 0.46805 0.0
H887 H 0.70412 0.65227 0.54668 0.0
H888 H 0.69091 0.64367 0.5105 0.0
H889 H 0.62787 0.57685 0.49931 0.0
H890 H 0.54367 0.57042 0.40497 0.0
H891 H 0.56234 0.57855 0.44026 0.0
H892 H 0.62898 0.64371 0.44885 0.0
C893 C 0.67486 0.63532 0.52231 0.0
C894 C 0.62803 0.59166 0.4885 0.0
C895 C 0.68249 0.64021 0.54305 0.0
C896 C 0.56661 0.58171 0.40746 0.0
C897 C 0.57733 0.58637 0.42772 0.0
C898 C 0.62899 0.62891 0.45967 0.0
C899 C 0.64709 0.61966 0.51692 0.0
C900 C 0.63819 0.6148 0.49489 0.0
C901 C 0.60666 0.60121 0.43177 0.0
C902 C 0.61823 0.60585 0.4534 0.0
H903 H 0.61855 0.60567 0.56525 0.0
H904 H 0.60533 0.59715 0.52927 0.0
H905 H 0.64603 0.65145 0.48457 0.0
H906 H 0.62914 0.61449 0.38216 0.0
H907 H 0.64773 0.62274 0.41755 0.0
C908 C 0.30619 0.65255 0.9755 0.0
C909 C 0.32744 0.63954 0.96173 0.0
C910 C 0.31036 0.65002 0.99682 0.0
C911 C 0.34542 0.61029 0.03735 0.0
H912 H 0.35016 0.66874 0.06973 0.0
C913 C 0.34299 0.61174 0.12686 0.0
C914 C 0.36664 0.6275 0.13676 0.0
C915 C 0.339 0.61221 0.1054 0.0
C916 C 0.34909 0.65226 0.06089 0.0
H917 H 0.36936 0.61324 0.95979 0.0
H918 H 0.37606 0.60849 0.99701 0.0
H919 H 0.34071 0.6711 0.03254 0.0
H920 H 0.40478 0.65602 0.13188 0.0
H921 H 0.39776 0.65688 0.0944 0.0
H922 H 0.35383 0.59148 0.06578 0.0
C923 C 0.35612 0.62063 0.99123 0.0
C924 C 0.34331 0.6536 0.03962 0.0
C925 C 0.35216 0.6233 0.96988 0.0
C926 C 0.38652 0.64355 0.1247 0.0
C927 C 0.38227 0.64419 0.10326 0.0
C928 C 0.35084 0.60894 0.05869 0.0
C929 C 0.33566 0.63425 1.00493 0.0
C930 C 0.34142 0.63265 0.02759 0.0
C931 C 0.35831 0.62862 0.09338 0.0
C932 C 0.35283 0.62993 0.07069 0.0
H933 H 0.28643 0.66487 0.96981 0.0
H934 H 0.29378 0.66046 1.00699 0.0
H935 H 0.34393 0.59383 0.02851 0.0
H936 H 0.32753 0.59903 0.13572 0.0
H937 H 0.32019 0.60009 0.09826 0.0
C938 C 0.16168 0.89629 0.46953 0.0
C939 C 0.18572 0.87961 0.46141 0.0
C940 C 0.15804 0.89912 0.49088 0.0
C941 C 0.1698 0.86569 0.53911 0.0
H942 H 0.16094 0.92768 0.56571 0.0
C943 C 0.1261 0.8753 0.62397 0.0
C944 C 0.14638 0.89085 0.63633 0.0
C945 C 0.13052 0.87493 0.60256 0.0
C946 C 0.16347 0.91025 0.55849 0.0
H947 H 0.22612 0.8538 0.46952 0.0
H948 H 0.21934 0.8585 0.50668 0.0
H949 H 0.17099 0.92556 0.52844 0.0
H950 H 0.1864 0.91875 0.63584 0.0
H951 H 0.19404 0.91816 0.59839 0.0
H952 H 0.1623 0.85034 0.56906 0.0
C953 C 0.20298 0.86914 0.49651 0.0
C954 C 0.16898 0.90904 0.53715 0.0
C955 C 0.20683 0.86644 0.47519 0.0
C956 C 0.17062 0.90641 0.62674 0.0
C957 C 0.17478 0.90622 0.60529 0.0
C958 C 0.16392 0.86689 0.56036 0.0
C959 C 0.17816 0.88522 0.5046 0.0
C960 C 0.17238 0.88673 0.52725 0.0
C961 C 0.15507 0.89028 0.59298 0.0
C962 C 0.16077 0.88917 0.57031 0.0
H963 H 0.14466 0.90652 0.45942 0.0
H964 H 0.13851 0.91154 0.49665 0.0
H965 H 0.17191 0.84823 0.5319 0.0
H966 H 0.10738 0.86299 0.63091 0.0
H967 H 0.11471 0.8626 0.59346 0.0
C968 C 0.16789 0.32317 0.36648 0.0
C969 C 0.19429 0.3205 0.38153 0.0
C970 C 0.15747 0.3037 0.35429 0.0
C971 C 0.14884 0.23903 0.35649 0.0
H972 H 0.13197 0.24358 0.29762 0.0
C973 C 0.08758 0.16006 0.31035 0.0
C974 C 0.06379 0.16601 0.29458 0.0
C975 C 0.10781 0.17794 0.31998 0.0
C976 C 0.1361 0.24205 0.3141 0.0
H977 H 0.23104 0.29564 0.39541 0.0
H978 H 0.21225 0.26126 0.37429 0.0
H979 H 0.1602 0.27689 0.31577 0.0
H980 H 0.04177 0.19513 0.27673 0.0
H981 H 0.07581 0.22643 0.29396 0.0
H982 H 0.12325 0.20481 0.35518 0.0
C983 C 0.19991 0.27851 0.37183 0.0
C984 C 0.15254 0.2611 0.32444 0.0
C985 C 0.21081 0.29816 0.38378 0.0
C986 C 0.06016 0.1901 0.28878 0.0
C987 C 0.07997 0.20799 0.29855 0.0
C988 C 0.13191 0.22011 0.34621 0.0
C989 C 0.17279 0.28103 0.35715 0.0
C990 C 0.15867 0.25992 0.34579 0.0
C991 C 0.10423 0.2022 0.31425 0.0
C992 C 0.12477 0.22151 0.32492 0.0
H993 H 0.15473 0.34022 0.3645 0.0
H994 H 0.13633 0.30613 0.34323 0.0
H995 H 0.15288 0.23774 0.373 0.0
H996 H 0.09114 0.14152 0.31488 0.0
H997 H 0.12655 0.17267 0.33174 0.0
C998 C 0.31072 0.21 0.88053 0.0
C999 C 0.33155 0.18974 0.88469 0.0
C1000 C 0.32372 0.22864 0.86808 0.0
C1001 C 0.40847 0.2553 0.85255 0.0
H1002 H 0.354 0.28947 0.81141 0.0
C1003 C 0.4728 0.32712 0.80062 0.0
C1004 C 0.453 0.34755 0.79568 0.0
C1005 C 0.457 0.3076 0.81062 0.0
C1006 C 0.36946 0.28032 0.82304 0.0
H1007 H 0.38121 0.17239 0.8777 0.0
H1008 H 0.40382 0.20478 0.85621 0.0
H1009 H 0.32728 0.25575 0.82989 0.0
H1010 H 0.40117 0.36369 0.79765 0.0
H1011 H 0.37377 0.32991 0.81539 0.0
H1012 H 0.45036 0.27996 0.84619 0.0
C1013 C 0.37779 0.20655 0.8629 0.0
C1014 C 0.35413 0.26095 0.83357 0.0
C1015 C 0.36479 0.18797 0.87521 0.0
C1016 C 0.41711 0.34812 0.80109 0.0
C1017 C 0.40133 0.32865 0.81118 0.0
C1018 C 0.42366 0.27472 0.84219 0.0
C1019 C 0.35784 0.22738 0.85961 0.0
C1020 C 0.37357 0.24811 0.84836 0.0
C1021 C 0.42106 0.30811 0.8161 0.0
C1022 C 0.40449 0.28746 0.82719 0.0
H1023 H 0.28509 0.21199 0.88767 0.0
H1024 H 0.30773 0.24448 0.86587 0.0
H1025 H 0.42395 0.24611 0.86416 0.0
H1026 H 0.50039 0.32598 0.79641 0.0
H1027 H 0.47294 0.29196 0.81378 0.0
C1028 C 0.63056 0.18747 0.651 0.0
C1029 C 0.66165 0.19064 0.63952 0.0
C1030 C 0.619 0.20525 0.66452 0.0
C1031 C 0.64448 0.26093 0.69222 0.0
H1032 H 0.54492 0.27536 0.68642 0.0
C1033 C 0.57035 0.32998 0.7437 0.0
C1034 C 0.54626 0.34511 0.73356 0.0
C1035 C 0.58636 0.31099 0.73316 0.0
C1036 C 0.5728 0.27165 0.68817 0.0
H1037 H 0.70603 0.21444 0.63409 0.0
H1038 H 0.68576 0.24567 0.65778 0.0
H1039 H 0.57009 0.2422 0.66714 0.0
H1040 H 0.52067 0.35219 0.70419 0.0
H1041 H 0.54841 0.31922 0.68598 0.0
H1042 H 0.64706 0.29083 0.71305 0.0
C1043 C 0.67042 0.22932 0.65635 0.0
C1044 C 0.58717 0.25244 0.6773 0.0
C1045 C 0.68206 0.21143 0.6428 0.0
C1046 C 0.53888 0.34089 0.71259 0.0
C1047 C 0.55469 0.32188 0.70213 0.0
C1048 C 0.62998 0.28015 0.70323 0.0
C1049 C 0.63818 0.22671 0.66689 0.0
C1050 C 0.62319 0.24684 0.67912 0.0
C1051 C 0.57842 0.30659 0.7123 0.0
C1052 C 0.594 0.28583 0.70119 0.0
H1053 H 0.61461 0.17144 0.64911 0.0
H1054 H 0.59451 0.20242 0.67277 0.0
H1055 H 0.67228 0.25702 0.69402 0.0
H1056 H 0.57665 0.33263 0.75985 0.0
H1057 H 0.60432 0.29942 0.74147 0.0
C1058 C 0.82152 0.31281 0.1551 0.0
C1059 C 0.82949 0.31213 0.13394 0.0
C1060 C 0.83315 0.29445 0.16826 0.0
C1061 C 0.90382 0.2494 0.17067 0.0
H1062 H 0.85035 0.22079 0.21535 0.0
C1063 C 0.95341 0.16526 0.21131 0.0
C1064 C 0.95191 0.16438 0.23297 0.0
C1065 C 0.93585 0.18315 0.2004 0.0
C1066 C 0.8657 0.22882 0.20306 0.0
H1067 H 0.85321 0.2909 0.1097 0.0
H1068 H 0.87298 0.25894 0.13242 0.0
H1069 H 0.82347 0.25222 0.19404 0.0
H1070 H 0.92945 0.18128 0.26006 0.0
H1071 H 0.8988 0.21279 0.24084 0.0
H1072 H 0.94597 0.22627 0.17949 0.0
C1073 C 0.85877 0.27388 0.13906 0.0
C1074 C 0.85031 0.24678 0.19086 0.0
C1075 C 0.84734 0.29215 0.12602 0.0
C1076 C 0.93129 0.18146 0.24339 0.0
C1077 C 0.91361 0.19946 0.23239 0.0
C1078 C 0.9191 0.23158 0.18278 0.0
C1079 C 0.85283 0.27514 0.16042 0.0
C1080 C 0.86905 0.25696 0.17429 0.0
C1081 C 0.91629 0.20076 0.21078 0.0
C1082 C 0.90009 0.22074 0.19889 0.0
H1083 H 0.8078 0.32803 0.1616 0.0
H1084 H 0.82812 0.29592 0.18465 0.0
H1085 H 0.91938 0.25732 0.15842 0.0
H1086 H 0.96861 0.1523 0.20267 0.0
H1087 H 0.93782 0.18328 0.18373 0.0
C1088 C 0.74939 0.76136 0.6316 0.0
C1089 C 0.73919 0.73843 0.63849 0.0
C1090 C 0.77595 0.77423 0.64171 0.0
C1091 C 0.85181 0.76966 0.67712 0.0
H1092 H 0.83063 0.83647 0.68799 0.0
C1093 C 0.9417 0.83103 0.72759 0.0
C1094 C 0.94543 0.85504 0.72142 0.0
C1095 C 0.91756 0.81583 0.71763 0.0
C1096 C 0.83726 0.81795 0.68485 0.0
H1097 H 0.7503 0.71059 0.66088 0.0
H1098 H 0.79725 0.73313 0.67853 0.0
H1099 H 0.78751 0.81145 0.67021 0.0
H1100 H 0.92795 0.88182 0.69954 0.0
H1101 H 0.88644 0.85529 0.68183 0.0
H1102 H 0.90183 0.7763 0.69159 0.0
C1103 C 0.78439 0.7411 0.66528 0.0
C1104 C 0.81244 0.80357 0.6747 0.0
C1105 C 0.75756 0.72818 0.65516 0.0
C1106 C 0.92553 0.86339 0.70465 0.0
C1107 C 0.90143 0.84823 0.69468 0.0
C1108 C 0.87682 0.78413 0.68721 0.0
C1109 C 0.79326 0.76452 0.65894 0.0
C1110 C 0.81951 0.77932 0.6705 0.0
C1111 C 0.89678 0.82432 0.70119 0.0
C1112 C 0.86999 0.80855 0.69102 0.0
H1113 H 0.73646 0.76957 0.61848 0.0
H1114 H 0.78274 0.79196 0.63609 0.0
H1115 H 0.85811 0.75107 0.67403 0.0
H1116 H 0.9571 0.82408 0.74032 0.0
H1117 H 0.91456 0.79762 0.72319 0.0
C1118 C 0.75732 0.75738 0.13001 0.0
C1119 C 0.76896 0.77998 0.13695 0.0
C1120 C 0.73077 0.74495 0.14043 0.0
C1121 C 0.65735 0.75004 0.17717 0.0
H1122 H 0.67866 0.6832 0.1879 0.0
C1123 C 0.56928 0.68892 0.22879 0.0
C1124 C 0.56539 0.66486 0.22276 0.0
C1125 C 0.59304 0.70408 0.21855 0.0
C1126 C 0.67197 0.70172 0.18481 0.0
H1127 H 0.76026 0.80785 0.15964 0.0
H1128 H 0.71323 0.78608 0.17787 0.0
H1129 H 0.72097 0.70801 0.16939 0.0
H1130 H 0.58212 0.638 0.20077 0.0
H1131 H 0.6228 0.66448 0.18253 0.0
H1132 H 0.60801 0.74359 0.19238 0.0
C1133 C 0.72501 0.77801 0.16436 0.0
C1134 C 0.69633 0.71598 0.17424 0.0
C1135 C 0.75186 0.79049 0.15391 0.0
C1136 C 0.58469 0.65646 0.20581 0.0
C1137 C 0.60833 0.67159 0.19553 0.0
C1138 C 0.63274 0.73567 0.18766 0.0
C1139 C 0.71491 0.75481 0.15803 0.0
C1140 C 0.68919 0.74023 0.17008 0.0
C1141 C 0.61321 0.69552 0.20193 0.0
C1142 C 0.6396 0.71124 0.19141 0.0
H1143 H 0.76931 0.74902 0.11668 0.0
H1144 H 0.72298 0.72739 0.13484 0.0
H1145 H 0.65105 0.76864 0.17413 0.0
H1146 H 0.55425 0.69594 0.24161 0.0
H1147 H 0.59621 0.72232 0.22402 0.0
C1148 C 0.23415 0.7606 0.35443 0.0
C1149 C 0.2427 0.7788 0.36864 0.0
C1150 C 0.26029 0.7499 0.34244 0.0
C1151 C 0.3175 0.73517 0.31269 0.0
H1152 H 0.40699 0.72256 0.33952 0.0
C1153 C 0.42878 0.68386 0.27101 0.0
C1154 C 0.44825 0.66738 0.2828 0.0
C1155 C 0.40564 0.69988 0.28053 0.0
C1156 C 0.38207 0.72576 0.33182 0.0
H1157 H 0.2855 0.80071 0.38064 0.0
H1158 H 0.33096 0.78264 0.35915 0.0
H1159 H 0.36258 0.74607 0.35731 0.0
H1160 H 0.45865 0.65493 0.31393 0.0
H1161 H 0.41772 0.68229 0.33042 0.0
H1162 H 0.33621 0.71376 0.28768 0.0
C1163 C 0.30408 0.7762 0.35767 0.0
C1164 C 0.35674 0.73963 0.34192 0.0
C1165 C 0.27789 0.78682 0.3698 0.0
C1166 C 0.44426 0.66747 0.30435 0.0
C1167 C 0.42089 0.68332 0.31385 0.0
C1168 C 0.3427 0.72112 0.30268 0.0
C1169 C 0.29574 0.75725 0.34412 0.0
C1170 C 0.32389 0.74426 0.33261 0.0
C1171 C 0.40113 0.69971 0.30208 0.0
C1172 C 0.37518 0.71595 0.31221 0.0
H1173 H 0.20724 0.75423 0.35285 0.0
H1174 H 0.25275 0.73523 0.33238 0.0
H1175 H 0.29279 0.73865 0.30487 0.0
H1176 H 0.43138 0.68441 0.25438 0.0
H1177 H 0.39138 0.71247 0.27096 0.0
C1178 C 0.23709 0.75647 0.88365 0.0
C1179 C 0.25927 0.73984 0.87402 0.0
C1180 C 0.21101 0.7683 0.8724 0.0
C1181 C 0.16234 0.76902 0.82225 0.0
H1182 H 0.15038 0.83606 0.83645 0.0
C1183 C 0.084 0.83781 0.77224 0.0
C1184 C 0.06155 0.85341 0.78307 0.0
C1185 C 0.10685 0.82245 0.78289 0.0
C1186 C 0.15315 0.81732 0.8324 0.0
H1187 H 0.27124 0.72191 0.84533 0.0
H1188 H 0.22611 0.74309 0.82529 0.0
H1189 H 0.19201 0.81182 0.85574 0.0
H1190 H 0.04518 0.86463 0.81366 0.0
H1191 H 0.08501 0.83805 0.83206 0.0
H1192 H 0.12382 0.775 0.79846 0.0
C1193 C 0.2283 0.74669 0.84166 0.0
C1194 C 0.17695 0.80332 0.84354 0.0
C1195 C 0.25418 0.73456 0.85307 0.0
C1196 C 0.06213 0.85297 0.80476 0.0
C1197 C 0.0851 0.8378 0.81535 0.0
C1198 C 0.13868 0.78316 0.81093 0.0
C1199 C 0.2069 0.76414 0.8511 0.0
C1200 C 0.18165 0.7789 0.83881 0.0
C1201 C 0.10796 0.82252 0.80457 0.0
C1202 C 0.13361 0.80741 0.81604 0.0
H1203 H 0.24048 0.7607 0.89985 0.0
H1204 H 0.19445 0.78105 0.88038 0.0
H1205 H 0.16503 0.75027 0.81823 0.0
H1206 H 0.08423 0.83762 0.75554 0.0
H1207 H 0.12431 0.81097 0.77416 0.0
loop_
_geom_bond_atom_site_label_1
_geom_bond_atom_site_label_2
_geom_bond_distance
_geom_bond_site_symmetry_2
_ccdc_geom_bond_type
H0 C1 0.949 . S
C1 H0 0.949 . S
C1 C2 1.395 . S
C1 C3 1.391 . S
C2 C1 1.395 . S
C2 C5 1.390 . S
C3 C1 1.391 . S
C3 C7 1.387 . S
C3 C8 1.491 . S
H4 C5 0.950 . S
C5 C2 1.390 . S
C5 H4 0.950 . S
C5 C6 1.378 . S
C6 C5 1.378 . S
C6 C7 1.409 . S
C7 C3 1.387 . S
C7 C6 1.409 . S
C7 H9 0.951 . S
C8 C3 1.491 . S
C8 C10 1.382 . S
C8 C12 1.404 . S
H9 C7 0.951 . S
C10 C8 1.382 . S
C10 C11 1.390 . S
C10 H15 0.949 . S
C11 C10 1.390 . S
C11 C16 1.399 . S
C12 C8 1.404 . S
C12 H13 0.950 . S
C12 C14 1.375 . S
H13 C12 0.950 . S
C14 C12 1.375 . S
C14 C16 1.382 . S
C14 H18 0.950 . S
H15 C10 0.949 . S
C16 C11 1.399 . S
C16 C14 1.382 . S
C16 H17 0.952 . S
H17 C16 0.952 . S
H18 C14 0.950 . S
H19 C20 0.949 . S
C20 H19 0.949 . S
C20 C21 1.395 . S
C20 C22 1.391 . S
C21 C20 1.395 . S
C21 C24 1.390 . S
C22 C20 1.391 . S
C22 C26 1.387 . S
C22 C27 1.491 . S
H23 C24 0.950 . S
C24 C21 1.390 . S
C24 H23 0.950 . S
C24 C25 1.378 . S
C25 C24 1.378 . S
C25 C26 1.409 . S
C26 C22 1.387 . S
C26 C25 1.409 . S
C26 H28 0.951 . S
C27 C22 1.491 . S
C27 C29 1.382 . S
C27 C31 1.404 . S
H28 C26 0.951 . S
C29 C27 1.382 . S
C29 C30 1.390 . S
C29 H34 0.949 . S
C30 C29 1.390 . S
C30 C35 1.399 . S
C31 C27 1.404 . S
C31 H32 0.950 . S
C31 C33 1.375 . S
H32 C31 0.950 . S
C33 C31 1.375 . S
C33 C35 1.382 . S
C33 H37 0.950 . S
H34 C29 0.949 . S
C35 C30 1.399 . S
C35 C33 1.382 . S
C35 H36 0.952 . S
H36 C35 0.952 . S
H37 C33 0.950 . S
H38 C39 0.949 . S
C39 H38 0.949 . S
C39 C40 1.395 . S
C39 C41 1.391 . S
C40 C39 1.395 . S
C40 C43 1.390 . S
C41 C39 1.391 . S
C41 C45 1.387 . S
C41 C46 1.491 . S
H42 C43 0.950 . S
C43 C40 1.390 . S
C43 H42 0.950 . S
C43 C44 1.378 . S
C44 C43 1.378 . S
C44 C45 1.409 . S
C45 C41 1.387 . S
C45 C44 1.409 . S
C45 H47 0.951 . S
C46 C41 1.491 . S
C46 C48 1.382 . S
C46 C50 1.404 . S
H47 C45 0.951 . S
C48 C46 1.382 . S
C48 C49 1.390 . S
C48 H53 0.949 . S
C49 C48 1.390 . S
C49 C54 1.399 . S
C50 C46 1.404 . S
C50 H51 0.950 . S
C50 C52 1.375 . S
H51 C50 0.950 . S
C52 C50 1.375 . S
C52 C54 1.382 . S
C52 H56 0.950 . S
H53 C48 0.949 . S
C54 C49 1.399 . S
C54 C52 1.382 . S
C54 H55 0.952 . S
H55 C54 0.952 . S
H56 C52 0.950 . S
H57 C58 0.949 . S
C58 H57 0.949 . S
C58 C59 1.395 . S
C58 C60 1.391 . S
C59 C58 1.395 . S
C59 C62 1.390 . S
C60 C58 1.391 . S
C60 C64 1.387 . S
C60 C65 1.491 . S
H61 C62 0.950 . S
C62 C59 1.390 . S
C62 H61 0.950 . S
C62 C63 1.378 . S
C63 C62 1.378 . S
C63 C64 1.409 . S
C64 C60 1.387 . S
C64 C63 1.409 . S
C64 H66 0.951 . S
C65 C60 1.491 . S
C65 C67 1.382 . S
C65 C69 1.404 . S
H66 C64 0.951 . S
C67 C65 1.382 . S
C67 C68 1.390 . S
C67 H72 0.949 . S
C68 C67 1.390 . S
C68 C73 1.399 . S
C69 C65 1.404 . S
C69 H70 0.950 . S
C69 C71 1.375 . S
H70 C69 0.950 . S
C71 C69 1.375 . S
C71 C73 1.382 . S
C71 H75 0.950 . S
H72 C67 0.949 . S
C73 C68 1.399 . S
C73 C71 1.382 . S
C73 H74 0.952 . S
H74 C73 0.952 . S
H75 C71 0.950 . S
H76 C77 0.949 . S
C77 H76 0.949 . S
C77 C78 1.395 . S
C77 C79 1.391 . S
C78 C77 1.395 . S
C78 C81 1.390 . S
C79 C77 1.391 . S
C79 C83 1.387 . S
C79 C84 1.491 . S
H80 C81 0.950 . S
C81 C78 1.390 . S
C81 H80 0.950 . S
C81 C82 1.378 . S
C82 C81 1.378 . S
C82 C83 1.409 . S
C83 C79 1.387 . S
C83 C82 1.409 . S
C83 H85 0.951 . S
C84 C79 1.491 . S
C84 C86 1.382 . S
C84 C88 1.404 . S
H85 C83 0.951 . S
C86 C84 1.382 . S
C86 C87 1.390 . S
C86 H91 0.949 . S
C87 C86 1.390 . S
C87 C92 1.399 . S
C88 C84 1.404 . S
C88 H89 0.950 . S
C88 C90 1.375 . S
H89 C88 0.950 . S
C90 C88 1.375 . S
C90 C92 1.382 . S
C90 H94 0.950 . S
H91 C86 0.949 . S
C92 C87 1.399 . S
C92 C90 1.382 . S
C92 H93 0.952 . S
H93 C92 0.952 . S
H94 C90 0.950 . S
H95 C96 0.949 . S
C96 H95 0.949 . S
C96 C97 1.395 . S
C96 C98 1.391 . S
C97 C96 1.395 . S
C97 C100 1.390 . S
C98 C96 1.391 . S
C98 C102 1.387 . S
C98 C103 1.491 . S
H99 C100 0.950 . S
C100 C97 1.390 . S
C100 H99 0.950 . S
C100 C101 1.378 . S
C101 C100 1.378 . S
C101 C102 1.409 . S
C102 C98 1.387 . S
C102 C101 1.409 . S
C102 H104 0.951 . S
C103 C98 1.491 . S
C103 C105 1.382 . S
C103 C107 1.404 . S
H104 C102 0.951 . S
C105 C103 1.382 . S
C105 C106 1.390 . S
C105 H110 0.949 . S
C106 C105 1.390 . S
C106 C111 1.399 . S
C107 C103 1.404 . S
C107 H108 0.950 . S
C107 C109 1.375 . S
H108 C107 0.950 . S
C109 C107 1.375 . S
C109 C111 1.382 . S
C109 H113 0.950 . S
H110 C105 0.949 . S
C111 C106 1.399 . S
C111 C109 1.382 . S
C111 H112 0.952 . S
H112 C111 0.952 . S
H113 C109 0.950 . S
H114 C115 0.949 . S
C115 H114 0.949 . S
C115 C116 1.395 . S
C115 C117 1.391 . S
C116 C115 1.395 . S
C116 C119 1.390 . S
C117 C115 1.391 . S
C117 C121 1.387 . S
C117 C122 1.491 . S
H118 C119 0.950 . S
C119 C116 1.390 . S
C119 H118 0.950 . S
C119 C120 1.378 . S
C120 C119 1.378 . S
C120 C121 1.409 . S
C121 C117 1.387 . S
C121 C120 1.409 . S
C121 H123 0.951 . S
C122 C117 1.491 . S
C122 C124 1.382 . S
C122 C126 1.404 . S
H123 C121 0.951 . S
C124 C122 1.382 . S
C124 C125 1.390 . S
C124 H129 0.949 . S
C125 C124 1.390 . S
C125 C130 1.399 . S
C126 C122 1.404 . S
C126 H127 0.950 . S
C126 C128 1.375 . S
H127 C126 0.950 . S
C128 C126 1.375 . S
C128 C130 1.382 . S
C128 H132 0.950 . S
H129 C124 0.949 . S
C130 C125 1.399 . S
C130 C128 1.382 . S
C130 H131 0.952 . S
H131 C130 0.952 . S
H132 C128 0.950 . S
H133 C134 0.949 . S
C134 H133 0.949 . S
C134 C135 1.395 . S
C134 C136 1.391 . S
C135 C134 1.395 . S
C135 C138 1.390 . S
C136 C134 1.391 . S
C136 C140 1.387 . S
C136 C141 1.491 . S
H137 C138 0.950 . S
C138 C135 1.390 . S
C138 H137 0.950 . S
C138 C139 1.378 . S
C139 C138 1.378 . S
C139 C140 1.409 . S
C140 C136 1.387 . S
C140 C139 1.409 . S
C140 H142 0.951 . S
C141 C136 1.491 . S
C141 C143 1.382 . S
C141 C145 1.404 . S
H142 C140 0.951 . S
C143 C141 1.382 . S
C143 C144 1.390 . S
C143 H148 0.949 . S
C144 C143 1.390 . S
C144 C149 1.399 . S
C145 C141 1.404 . S
C145 H146 0.950 . S
C145 C147 1.375 . S
H146 C145 0.950 . S
C147 C145 1.375 . S
C147 C149 1.382 . S
C147 H151 0.950 . S
H148 C143 0.949 . S
C149 C144 1.399 . S
C149 C147 1.382 . S
C149 H150 0.952 . S
H150 C149 0.952 . S
H151 C147 0.950 . S
Eu152 N181 2.600 . S
Eu152 N187 2.562 . S
Eu152 O196 2.462 . S
Eu152 O197 2.373 . S
Eu152 O199 2.432 . S
Eu152 O200 2.297 . S
Eu152 O204 2.355 . S
Eu152 O207 2.372 . S
Eu152 C216 2.787 . S
C153 N154 1.365 . S
C153 C156 1.405 . S
C153 C160 1.448 . S
N154 C153 1.365 . S
N154 C157 1.319 . S
N154 Eu163 2.600 . S
C155 C157 1.397 . S
C155 C158 1.367 . S
C155 H175 0.931 . S
C156 C153 1.405 . S
C156 C158 1.403 . S
C156 C162 1.439 . S
C157 N154 1.319 . S
C157 C155 1.397 . S
C157 H168 0.930 . S
C158 C155 1.367 . S
C158 C156 1.403 . S
C158 H179 0.929 . S
C159 C160 1.430 . S
C159 C161 1.387 . S
C159 C165 1.404 . S
C160 C153 1.448 . S
C160 C159 1.430 . S
C160 N164 1.351 . S
C161 C159 1.387 . S
C161 C162 1.374 . S
C161 H176 0.931 . S
C162 C156 1.439 . S
C162 C161 1.374 . S
C162 H177 0.931 . S
Eu163 N154 2.600 . S
Eu163 N164 2.562 . S
Eu163 O198 2.335 1_655 S
Eu163 O201 2.372 . S
Eu163 O202 2.462 . S
Eu163 O203 2.373 . S
Eu163 O205 2.432 . S
Eu163 O206 2.291 1_655 S
Eu163 C227 2.787 . S
N164 C160 1.351 . S
N164 Eu163 2.562 . S
N164 C166 1.325 . S
C165 C159 1.404 . S
C165 C167 1.366 . S
C165 H173 0.930 1_545 S
C166 N164 1.325 . S
C166 C167 1.416 . S
C166 H172 0.929 . S
C167 C165 1.366 . S
C167 C166 1.416 . S
C167 H169 0.930 1_545 S
H168 C157 0.930 . S
H169 C167 0.930 1_565 S
H170 C185 0.930 . S
H171 C192 0.930 . S
H172 C166 0.929 . S
H173 C165 0.930 1_565 S
H174 C188 0.929 . S
H175 C155 0.931 . S
H176 C161 0.931 . S
H177 C162 0.931 . S
H178 C183 0.931 . S
H179 C158 0.929 . S
H180 C191 0.930 . S
N181 Eu152 2.600 . S
N181 C182 1.365 . S
N181 C185 1.319 . S
C182 N181 1.365 . S
C182 C184 1.405 . S
C182 C190 1.448 . S
C183 H178 0.931 . S
C183 C185 1.397 . S
C183 C186 1.367 . S
C184 C182 1.405 . S
C184 C186 1.403 . S
C184 C217 1.439 . S
C185 H170 0.930 . S
C185 N181 1.319 . S
C185 C183 1.397 . S
C186 C183 1.367 . S
C186 C184 1.403 . S
C186 H193 0.929 . S
N187 Eu152 2.562 . S
N187 C188 1.325 . S
N187 C190 1.351 . S
C188 H174 0.929 . S
C188 N187 1.325 . S
C188 C192 1.416 . S
C189 C190 1.430 . S
C189 C191 1.404 . S
C189 C218 1.387 . S
C190 C182 1.448 . S
C190 N187 1.351 . S
C190 C189 1.430 . S
C191 H180 0.930 . S
C191 C189 1.404 . S
C191 C192 1.366 . S
C192 H171 0.930 . S
C192 C188 1.416 . S
C192 C191 1.366 . S
H193 C186 0.929 . S
H194 C217 0.931 . S
H195 C218 0.931 . S
O196 Eu152 2.462 . S
O196 C216 1.252 . S
O197 Eu152 2.373 . S
O197 C208 1.249 . S
O198 Eu163 2.335 1_455 S
O198 C208 1.264 . S
O199 Eu152 2.432 . S
O199 C216 1.268 . S
O200 Eu152 2.297 . S
O200 C215 1.249 1_455 S
O201 Eu163 2.372 . S
O201 C215 1.257 . S
O202 Eu163 2.462 . S
O202 C227 1.252 . S
O203 Eu163 2.373 . S
O203 C219 1.249 . S
O204 Eu152 2.355 . S
O204 C219 1.238 1_455 S
O205 Eu163 2.432 . S
O205 C227 1.268 . S
O206 Eu163 2.291 1_455 S
O206 C226 1.255 . S
O207 Eu152 2.372 . S
O207 C226 1.257 . S
C208 O197 1.249 . S
C208 O198 1.264 . S
C209 C212 1.382 . S
C209 C214 1.390 . S
C209 C216 1.506 . S
C210 C211 1.398 . S
C210 C214 1.392 . S
C211 C210 1.398 . S
C211 C213 1.372 . S
C211 H228 0.931 . S
C212 C209 1.382 . S
C212 C213 1.390 . S
C212 H229 0.931 . S
C213 C211 1.372 . S
C213 C212 1.390 . S
C213 H230 0.929 . S
C214 C209 1.390 . S
C214 C210 1.392 . S
C214 H231 0.930 . S
C215 O200 1.249 1_655 S
C215 O201 1.257 . S
C216 Eu152 2.787 . S
C216 O196 1.252 . S
C216 O199 1.268 . S
C216 C209 1.506 . S
C217 C184 1.439 . S
C217 H194 0.931 . S
C217 C218 1.374 . S
C218 C189 1.387 . S
C218 H195 0.931 . S
C218 C217 1.374 . S
C219 O203 1.249 . S
C219 O204 1.238 1_655 S
C220 C223 1.382 . S
C220 C224 1.390 . S
C220 C227 1.506 . S
C221 C222 1.398 . S
C221 C224 1.392 . S
C222 C221 1.398 . S
C222 C225 1.372 . S
C222 H232 0.931 . S
C223 C220 1.382 . S
C223 C225 1.390 . S
C223 H233 0.931 . S
C224 C220 1.390 . S
C224 C221 1.392 . S
C224 H234 0.930 . S
C225 C222 1.372 . S
C225 C223 1.390 . S
C225 H235 0.929 . S
C226 O206 1.255 . S
C226 O207 1.257 . S
C227 Eu163 2.787 . S
C227 O202 1.252 . S
C227 O205 1.268 . S
C227 C220 1.506 . S
H228 C211 0.931 . S
H229 C212 0.931 . S
H230 C213 0.929 . S
H231 C214 0.930 . S
H232 C222 0.931 . S
H233 C223 0.931 . S
H234 C224 0.930 . S
H235 C225 0.929 . S
Eu236 N265 2.600 . S
Eu236 N271 2.562 . S
Eu236 O280 2.462 . S
Eu236 O281 2.373 . S
Eu236 O283 2.432 . S
Eu236 O284 2.291 . S
Eu236 O288 2.335 . S
Eu236 O291 2.372 . S
Eu236 C300 2.787 . S
C237 N238 1.365 . S
C237 C240 1.405 . S
C237 C244 1.448 . S
N238 C237 1.365 . S
N238 C241 1.319 . S
N238 Eu247 2.600 . S
C239 C241 1.397 . S
C239 C242 1.367 . S
C239 H259 0.931 . S
C240 C237 1.405 . S
C240 C242 1.403 . S
C240 C246 1.439 . S
C241 N238 1.319 . S
C241 C239 1.397 . S
C241 H252 0.930 . S
C242 C239 1.367 . S
C242 C240 1.403 . S
C242 H263 0.929 . S
C243 C244 1.430 . S
C243 C245 1.387 . S
C243 C249 1.404 . S
C244 C237 1.448 . S
C244 C243 1.430 . S
C244 N248 1.351 . S
C245 C243 1.387 . S
C245 C246 1.374 . S
C245 H260 0.931 . S
C246 C240 1.439 . S
C246 C245 1.374 . S
C246 H261 0.931 . S
Eu247 N238 2.600 . S
Eu247 N248 2.562 . S
Eu247 O282 2.335 . S
Eu247 O285 2.372 . S
Eu247 O286 2.462 . S
Eu247 O287 2.373 . S
Eu247 O289 2.432 . S
Eu247 O290 2.291 . S
Eu247 C311 2.787 . S
N248 C244 1.351 . S
N248 Eu247 2.562 . S
N248 C250 1.325 . S
C249 C243 1.404 . S
C249 C251 1.366 . S
C249 H257 0.930 . S
C250 N248 1.325 . S
C250 C251 1.416 . S
C250 H256 0.929 . S
C251 C249 1.366 . S
C251 C250 1.416 . S
C251 H253 0.930 . S
H252 C241 0.930 . S
H253 C251 0.930 . S
H254 C269 0.930 . S
H255 C276 0.930 . S
H256 C250 0.929 . S
H257 C249 0.930 . S
H258 C272 0.929 . S
H259 C239 0.931 . S
H260 C245 0.931 . S
H261 C246 0.931 . S
H262 C267 0.931 . S
H263 C242 0.929 . S
H264 C275 0.930 . S
N265 Eu236 2.600 . S
N265 C266 1.365 . S
N265 C269 1.319 . S
C266 N265 1.365 . S
C266 C268 1.405 . S
C266 C274 1.448 . S
C267 H262 0.931 . S
C267 C269 1.397 . S
C267 C270 1.367 . S
C268 C266 1.405 . S
C268 C270 1.403 . S
C268 C301 1.439 . S
C269 H254 0.930 . S
C269 N265 1.319 . S
C269 C267 1.397 . S
C270 C267 1.367 . S
C270 C268 1.403 . S
C270 H277 0.929 . S
N271 Eu236 2.562 . S
N271 C272 1.325 . S
N271 C274 1.351 . S
C272 H258 0.929 . S
C272 N271 1.325 . S
C272 C276 1.416 . S
C273 C274 1.430 . S
C273 C275 1.404 . S
C273 C302 1.387 . S
C274 C266 1.448 . S
C274 N271 1.351 . S
C274 C273 1.430 . S
C275 H264 0.930 . S
C275 C273 1.404 . S
C275 C276 1.366 . S
C276 H255 0.930 . S
C276 C272 1.416 . S
C276 C275 1.366 . S
H277 C270 0.929 . S
H278 C301 0.931 . S
H279 C302 0.931 . S
O280 Eu236 2.462 . S
O280 C300 1.252 . S
O281 Eu236 2.373 . S
O281 C292 1.249 . S
O282 Eu247 2.335 . S
O282 C292 1.264 . S
O283 Eu236 2.432 . S
O283 C300 1.268 . S
O284 Eu236 2.291 . S
O284 C299 1.255 . S
O285 Eu247 2.372 . S
O285 C299 1.257 . S
O286 Eu247 2.462 . S
O286 C311 1.252 . S
O287 Eu247 2.373 . S
O287 C303 1.249 . S
O288 Eu236 2.335 . S
O288 C303 1.264 . S
O289 Eu247 2.432 . S
O289 C311 1.268 . S
O290 Eu247 2.291 . S
O290 C310 1.255 . S
O291 Eu236 2.372 . S
O291 C310 1.257 . S
C292 O281 1.249 . S
C292 O282 1.264 . S
C293 C296 1.382 . S
C293 C298 1.390 . S
C293 C300 1.506 . S
C294 C295 1.398 . S
C294 C298 1.392 . S
C295 C294 1.398 . S
C295 C297 1.372 . S
C295 H312 0.931 . S
C296 C293 1.382 . S
C296 C297 1.390 . S
C296 H313 0.931 . S
C297 C295 1.372 . S
C297 C296 1.390 . S
C297 H314 0.929 . S
C298 C293 1.390 . S
C298 C294 1.392 . S
C298 H315 0.930 . S
C299 O284 1.255 . S
C299 O285 1.257 . S
C300 Eu236 2.787 . S
C300 O280 1.252 . S
C300 O283 1.268 . S
C300 C293 1.506 . S
C301 C268 1.439 . S
C301 H278 0.931 . S
C301 C302 1.374 . S
C302 C273 1.387 . S
C302 H279 0.931 . S
C302 C301 1.374 . S
C303 O287 1.249 . S
C303 O288 1.264 . S
C304 C307 1.382 . S
C304 C308 1.390 . S
C304 C311 1.506 . S
C305 C306 1.398 . S
C305 C308 1.392 . S
C306 C305 1.398 . S
C306 C309 1.372 . S
C306 H316 0.931 . S
C307 C304 1.382 . S
C307 C309 1.390 . S
C307 H317 0.931 . S
C308 C304 1.390 . S
C308 C305 1.392 . S
C308 H318 0.930 . S
C309 C306 1.372 . S
C309 C307 1.390 . S
C309 H319 0.929 . S
C310 O290 1.255 . S
C310 O291 1.257 . S
C311 Eu247 2.787 . S
C311 O286 1.252 . S
C311 O289 1.268 . S
C311 C304 1.506 . S
H312 C295 0.931 . S
H313 C296 0.931 . S
H314 C297 0.929 . S
H315 C298 0.930 . S
H316 C306 0.931 . S
H317 C307 0.931 . S
H318 C308 0.930 . S
H319 C309 0.929 . S
Eu320 N349 2.600 . S
Eu320 N355 2.562 . S
Eu320 O364 2.462 . S
Eu320 O365 2.373 . S
Eu320 O367 2.432 . S
Eu320 O368 2.291 . S
Eu320 O372 2.335 . S
Eu320 O375 2.372 . S
Eu320 C384 2.787 . S
C321 N322 1.365 . S
C321 C324 1.405 . S
C321 C328 1.448 . S
N322 C321 1.365 . S
N322 C325 1.319 . S
N322 Eu331 2.600 . S
C323 C325 1.397 . S
C323 C326 1.367 . S
C323 H343 0.931 . S
C324 C321 1.405 . S
C324 C326 1.403 . S
C324 C330 1.439 . S
C325 N322 1.319 . S
C325 C323 1.397 . S
C325 H336 0.930 . S
C326 C323 1.367 . S
C326 C324 1.403 . S
C326 H347 0.929 . S
C327 C328 1.430 . S
C327 C329 1.387 . S
C327 C333 1.404 . S
C328 C321 1.448 . S
C328 C327 1.430 . S
C328 N332 1.351 . S
C329 C327 1.387 . S
C329 C330 1.374 . S
C329 H344 0.931 . S
C330 C324 1.439 . S
C330 C329 1.374 . S
C330 H345 0.931 . S
Eu331 N322 2.600 . S
Eu331 N332 2.562 . S
Eu331 O366 2.335 1_655 S
Eu331 O369 2.372 . S
Eu331 O370 2.462 . S
Eu331 O371 2.373 . S
Eu331 O373 2.432 . S
Eu331 O374 2.291 1_655 S
Eu331 C395 2.787 . S
N332 C328 1.351 . S
N332 Eu331 2.562 . S
N332 C334 1.325 . S
C333 C327 1.404 . S
C333 C335 1.366 . S
C333 H341 0.930 . S
C334 N332 1.325 . S
C334 C335 1.416 . S
C334 H340 0.929 . S
C335 C333 1.366 . S
C335 C334 1.416 . S
C335 H337 0.930 . S
H336 C325 0.930 . S
H337 C335 0.930 . S
H338 C353 0.930 . S
H339 C360 0.930 1_545 S
H340 C334 0.929 . S
H341 C333 0.930 . S
H342 C356 0.929 . S
H343 C323 0.931 . S
H344 C329 0.931 . S
H345 C330 0.931 . S
H346 C351 0.931 . S
H347 C326 0.929 . S
H348 C359 0.930 1_545 S
N349 Eu320 2.600 . S
N349 C350 1.365 . S
N349 C353 1.319 . S
C350 N349 1.365 . S
C350 C352 1.405 . S
C350 C358 1.448 . S
C351 H346 0.931 . S
C351 C353 1.397 . S
C351 C354 1.367 . S
C352 C350 1.405 . S
C352 C354 1.403 . S
C352 C385 1.439 . S
C353 H338 0.930 . S
C353 N349 1.319 . S
C353 C351 1.397 . S
C354 C351 1.367 . S
C354 C352 1.403 . S
C354 H361 0.929 . S
N355 Eu320 2.562 . S
N355 C356 1.325 . S
N355 C358 1.351 . S
C356 H342 0.929 . S
C356 N355 1.325 . S
C356 C360 1.416 . S
C357 C358 1.430 . S
C357 C359 1.404 . S
C357 C386 1.387 . S
C358 C350 1.448 . S
C358 N355 1.351 . S
C358 C357 1.430 . S
C359 H348 0.930 1_565 S
C359 C357 1.404 . S
C359 C360 1.366 . S
C360 H339 0.930 1_565 S
C360 C356 1.416 . S
C360 C359 1.366 . S
H361 C354 0.929 . S
H362 C385 0.931 . S
H363 C386 0.931 . S
O364 Eu320 2.462 . S
O364 C384 1.252 . S
O365 Eu320 2.373 . S
O365 C376 1.249 . S
O366 Eu331 2.335 1_455 S
O366 C376 1.264 . S
O367 Eu320 2.432 . S
O367 C384 1.268 . S
O368 Eu320 2.291 . S
O368 C383 1.255 1_455 S
O369 Eu331 2.372 . S
O369 C383 1.257 . S
O370 Eu331 2.462 . S
O370 C395 1.252 . S
O371 Eu331 2.373 . S
O371 C387 1.249 . S
O372 Eu320 2.335 . S
O372 C387 1.264 1_455 S
O373 Eu331 2.432 . S
O373 C395 1.268 . S
O374 Eu331 2.291 1_455 S
O374 C394 1.255 . S
O375 Eu320 2.372 . S
O375 C394 1.257 . S
C376 O365 1.249 . S
C376 O366 1.264 . S
C377 C380 1.382 . S
C377 C382 1.390 . S
C377 C384 1.506 . S
C378 C379 1.398 . S
C378 C382 1.392 . S
C379 C378 1.398 . S
C379 C381 1.372 . S
C379 H396 0.931 . S
C380 C377 1.382 . S
C380 C381 1.390 . S
C380 H397 0.931 . S
C381 C379 1.372 . S
C381 C380 1.390 . S
C381 H398 0.929 . S
C382 C377 1.390 . S
C382 C378 1.392 . S
C382 H399 0.930 . S
C383 O368 1.255 1_655 S
C383 O369 1.257 . S
C384 Eu320 2.787 . S
C384 O364 1.252 . S
C384 O367 1.268 . S
C384 C377 1.506 . S
C385 C352 1.439 . S
C385 H362 0.931 . S
C385 C386 1.374 . S
C386 C357 1.387 . S
C386 H363 0.931 . S
C386 C385 1.374 . S
C387 O371 1.249 . S
C387 O372 1.264 1_655 S
C388 C391 1.382 . S
C388 C392 1.390 . S
C388 C395 1.506 . S
C389 C390 1.398 . S
C389 C392 1.392 . S
C390 C389 1.398 . S
C390 C393 1.372 . S
C390 H400 0.931 . S
C391 C388 1.382 . S
C391 C393 1.390 . S
C391 H401 0.931 . S
C392 C388 1.390 . S
C392 C389 1.392 . S
C392 H402 0.930 . S
C393 C390 1.372 . S
C393 C391 1.390 . S
C393 H403 0.929 . S
C394 O374 1.255 . S
C394 O375 1.257 . S
C395 Eu331 2.787 . S
C395 O370 1.252 . S
C395 O373 1.268 . S
C395 C388 1.506 . S
H396 C379 0.931 . S
H397 C380 0.931 . S
H398 C381 0.929 . S
H399 C382 0.930 . S
H400 C390 0.931 . S
H401 C391 0.931 . S
H402 C392 0.930 . S
H403 C393 0.929 . S
Eu404 N433 2.600 . S
Eu404 N439 2.562 . S
Eu404 O448 2.462 . S
Eu404 O449 2.373 . S
Eu404 O451 2.432 . S
Eu404 O452 2.291 . S
Eu404 O456 2.335 . S
Eu404 O459 2.372 . S
Eu404 C468 2.787 . S
C405 N406 1.365 . S
C405 C408 1.405 . S
C405 C412 1.448 . S
N406 C405 1.365 . S
N406 C409 1.319 . S
N406 Eu415 2.600 . S
C407 C409 1.397 . S
C407 C410 1.367 . S
C407 H427 0.931 . S
C408 C405 1.405 . S
C408 C410 1.403 . S
C408 C414 1.439 . S
C409 N406 1.319 . S
C409 C407 1.397 . S
C409 H420 0.930 . S
C410 C407 1.367 . S
C410 C408 1.403 . S
C410 H431 0.929 . S
C411 C412 1.430 . S
C411 C413 1.387 . S
C411 C417 1.404 . S
C412 C405 1.448 . S
C412 C411 1.430 . S
C412 N416 1.351 . S
C413 C411 1.387 . S
C413 C414 1.374 . S
C413 H428 0.931 . S
C414 C408 1.439 . S
C414 C413 1.374 . S
C414 H429 0.931 . S
Eu415 N406 2.600 . S
Eu415 N416 2.562 . S
Eu415 O450 2.335 . S
Eu415 O453 2.372 . S
Eu415 O454 2.462 . S
Eu415 O455 2.373 . S
Eu415 O457 2.432 . S
Eu415 O458 2.291 . S
Eu415 C479 2.787 . S
N416 C412 1.351 . S
N416 Eu415 2.562 . S
N416 C418 1.325 . S
C417 C411 1.404 . S
C417 C419 1.366 . S
C417 H425 0.930 . S
C418 N416 1.325 . S
C418 C419 1.416 . S
C418 H424 0.929 . S
C419 C417 1.366 . S
C419 C418 1.416 . S
C419 H421 0.930 . S
H420 C409 0.930 . S
H421 C419 0.930 . S
H422 C437 0.930 . S
H423 C444 0.930 . S
H424 C418 0.929 . S
H425 C417 0.930 . S
H426 C440 0.929 . S
H427 C407 0.931 . S
H428 C413 0.931 . S
H429 C414 0.931 . S
H430 C435 0.931 . S
H431 C410 0.929 . S
H432 C443 0.930 . S
N433 Eu404 2.600 . S
N433 C434 1.365 . S
N433 C437 1.319 . S
C434 N433 1.365 . S
C434 C436 1.405 . S
C434 C442 1.448 . S
C435 H430 0.931 . S
C435 C437 1.397 . S
C435 C438 1.367 . S
C436 C434 1.405 . S
C436 C438 1.403 . S
C436 C469 1.439 . S
C437 H422 0.930 . S
C437 N433 1.319 . S
C437 C435 1.397 . S
C438 C435 1.367 . S
C438 C436 1.403 . S
C438 H445 0.929 . S
N439 Eu404 2.562 . S
N439 C440 1.325 . S
N439 C442 1.351 . S
C440 H426 0.929 . S
C440 N439 1.325 . S
C440 C444 1.416 . S
C441 C442 1.430 . S
C441 C443 1.404 . S
C441 C470 1.387 . S
C442 C434 1.448 . S
C442 N439 1.351 . S
C442 C441 1.430 . S
C443 H432 0.930 . S
C443 C441 1.404 . S
C443 C444 1.366 . S
C444 H423 0.930 . S
C444 C440 1.416 . S
C444 C443 1.366 . S
H445 C438 0.929 . S
H446 C469 0.931 . S
H447 C470 0.931 . S
O448 Eu404 2.462 . S
O448 C468 1.252 . S
O449 Eu404 2.373 . S
O449 C460 1.249 . S
O450 Eu415 2.335 . S
O450 C460 1.264 . S
O451 Eu404 2.432 . S
O451 C468 1.268 . S
O452 Eu404 2.291 . S
O452 C467 1.255 . S
O453 Eu415 2.372 . S
O453 C467 1.257 . S
O454 Eu415 2.462 . S
O454 C479 1.252 . S
O455 Eu415 2.373 . S
O455 C471 1.249 . S
O456 Eu404 2.335 . S
O456 C471 1.264 . S
O457 Eu415 2.432 . S
O457 C479 1.268 . S
O458 Eu415 2.291 . S
O458 C478 1.255 . S
O459 Eu404 2.372 . S
O459 C478 1.257 . S
C460 O449 1.249 . S
C460 O450 1.264 . S
C461 C464 1.382 . S
C461 C466 1.390 . S
C461 C468 1.506 . S
C462 C463 1.398 . S
C462 C466 1.392 . S
C463 C462 1.398 . S
C463 C465 1.372 . S
C463 H480 0.931 . S
C464 C461 1.382 . S
C464 C465 1.390 . S
C464 H481 0.931 . S
C465 C463 1.372 . S
C465 C464 1.390 . S
C465 H482 0.929 . S
C466 C461 1.390 . S
C466 C462 1.392 . S
C466 H483 0.930 . S
C467 O452 1.255 . S
C467 O453 1.257 . S
C468 Eu404 2.787 . S
C468 O448 1.252 . S
C468 O451 1.268 . S
C468 C461 1.506 . S
C469 C436 1.439 . S
C469 H446 0.931 . S
C469 C470 1.374 . S
C470 C441 1.387 . S
C470 H447 0.931 . S
C470 C469 1.374 . S
C471 O455 1.249 . S
C471 O456 1.264 . S
C472 C475 1.382 . S
C472 C476 1.390 . S
C472 C479 1.506 . S
C473 C474 1.398 . S
C473 C476 1.392 . S
C474 C473 1.398 . S
C474 C477 1.372 . S
C474 H484 0.931 . S
C475 C472 1.382 . S
C475 C477 1.390 . S
C475 H485 0.931 . S
C476 C472 1.390 . S
C476 C473 1.392 . S
C476 H486 0.930 . S
C477 C474 1.372 . S
C477 C475 1.390 . S
C477 H487 0.929 . S
C478 O458 1.255 . S
C478 O459 1.257 . S
C479 Eu415 2.787 . S
C479 O454 1.252 . S
C479 O457 1.268 . S
C479 C472 1.506 . S
H480 C463 0.931 . S
H481 C464 0.931 . S
H482 C465 0.929 . S
H483 C466 0.930 . S
H484 C474 0.931 . S
H485 C475 0.931 . S
H486 C476 0.930 . S
H487 C477 0.929 . S
C488 C489 1.349 . S
C488 C490 1.327 . S
C488 H513 0.950 . S
C489 C488 1.349 . S
C489 C505 1.349 . S
C490 C488 1.327 . S
C490 C509 1.429 . S
C490 H514 0.950 . S
C491 C508 1.574 . S
C491 C510 1.368 . S
C491 H515 0.949 . S
H492 C496 0.949 1_545 S
C493 C494 1.349 . S
C493 C495 1.327 1_545 S
C493 H516 0.950 . S
C494 C493 1.349 . S
C494 C506 1.349 . S
C495 C493 1.327 1_565 S
C495 C511 1.429 . S
C495 H517 0.950 . S
C496 H492 0.949 1_565 S
C496 C504 1.574 . S
C496 C512 1.368 . S
H497 C505 0.950 . S
H498 C503 0.950 . S
H499 C504 0.949 . S
H500 C506 0.950 . S
H501 C507 0.950 . S
H502 C508 0.949 . S
C503 H498 0.950 . S
C503 C505 1.327 . S
C503 C509 1.429 . S
C504 C496 1.574 . S
C504 H499 0.949 . S
C504 C510 1.368 . S
C505 C489 1.349 . S
C505 H497 0.950 . S
C505 C503 1.327 . S
C506 C494 1.349 . S
C506 H500 0.950 . S
C506 C507 1.327 . S
C507 H501 0.950 . S
C507 C506 1.327 . S
C507 C511 1.426 1_545 S
C508 C491 1.574 . S
C508 H502 0.949 . S
C508 C512 1.368 . S
C509 C490 1.429 . S
C509 C503 1.429 . S
C509 C510 1.523 . S
C510 C491 1.368 . S
C510 C504 1.368 . S
C510 C509 1.523 . S
C511 C495 1.429 . S
C511 C507 1.426 1_565 S
C511 C512 1.525 . S
C512 C496 1.368 . S
C512 C508 1.368 . S
C512 C511 1.525 . S
H513 C488 0.950 . S
H514 C490 0.950 . S
H515 C491 0.949 . S
H516 C493 0.950 . S
H517 C495 0.950 . S
C518 C519 1.349 . S
C518 C520 1.327 . S
C518 H543 0.950 . S
C519 C518 1.349 . S
C519 C535 1.349 . S
C520 C518 1.327 . S
C520 C539 1.429 . S
C520 H544 0.950 . S
C521 C538 1.574 . S
C521 C540 1.368 . S
C521 H545 0.949 . S
H522 C526 0.949 . S
C523 C524 1.349 . S
C523 C525 1.327 . S
C523 H546 0.950 . S
C524 C523 1.349 . S
C524 C536 1.349 . S
C525 C523 1.327 . S
C525 C541 1.429 . S
C525 H547 0.950 . S
C526 H522 0.949 . S
C526 C534 1.574 . S
C526 C542 1.368 . S
H527 C535 0.950 . S
H528 C533 0.950 . S
H529 C534 0.949 . S
H530 C536 0.950 . S
H531 C537 0.950 . S
H532 C538 0.949 . S
C533 H528 0.950 . S
C533 C535 1.327 . S
C533 C539 1.429 . S
C534 C526 1.574 . S
C534 H529 0.949 . S
C534 C540 1.368 . S
C535 C519 1.349 . S
C535 H527 0.950 . S
C535 C533 1.327 . S
C536 C524 1.349 . S
C536 H530 0.950 . S
C536 C537 1.327 . S
C537 H531 0.950 . S
C537 C536 1.327 . S
C537 C541 1.429 . S
C538 C521 1.574 . S
C538 H532 0.949 . S
C538 C542 1.368 . S
C539 C520 1.429 . S
C539 C533 1.429 . S
C539 C540 1.523 . S
C540 C521 1.368 . S
C540 C534 1.368 . S
C540 C539 1.523 . S
C541 C525 1.429 . S
C541 C537 1.429 . S
C541 C542 1.523 . S
C542 C526 1.368 . S
C542 C538 1.368 . S
C542 C541 1.523 . S
H543 C518 0.950 . S
H544 C520 0.950 . S
H545 C521 0.949 . S
H546 C523 0.950 . S
H547 C525 0.950 . S
C548 C549 1.349 . S
C548 C550 1.327 . S
C548 H573 0.950 . S
C549 C548 1.349 . S
C549 C565 1.349 . S
C550 C548 1.327 . S
C550 C569 1.429 . S
C550 H574 0.950 . S
C551 C568 1.574 . S
C551 C570 1.368 . S
C551 H575 0.949 . S
H552 C556 0.949 . S
C553 C554 1.349 . S
C553 C555 1.327 . S
C553 H576 0.950 . S
C554 C553 1.349 . S
C554 C566 1.349 . S
C555 C553 1.327 . S
C555 C571 1.429 . S
C555 H577 0.950 . S
C556 H552 0.949 . S
C556 C564 1.574 . S
C556 C572 1.368 . S
H557 C565 0.950 . S
H558 C563 0.950 . S
H559 C564 0.949 . S
H560 C566 0.950 . S
H561 C567 0.950 . S
H562 C568 0.949 . S
C563 H558 0.950 . S
C563 C565 1.327 . S
C563 C569 1.429 . S
C564 C556 1.574 . S
C564 H559 0.949 . S
C564 C570 1.368 . S
C565 C549 1.349 . S
C565 H557 0.950 . S
C565 C563 1.327 . S
C566 C554 1.349 . S
C566 H560 0.950 . S
C566 C567 1.327 . S
C567 H561 0.950 . S
C567 C566 1.327 . S
C567 C571 1.429 . S
C568 C551 1.574 . S
C568 H562 0.949 . S
C568 C572 1.368 . S
C569 C550 1.429 . S
C569 C563 1.429 . S
C569 C570 1.523 . S
C570 C551 1.368 . S
C570 C564 1.368 . S
C570 C569 1.523 . S
C571 C555 1.429 . S
C571 C567 1.429 . S
C571 C572 1.523 . S
C572 C556 1.368 . S
C572 C568 1.368 . S
C572 C571 1.523 . S
H573 C548 0.950 . S
H574 C550 0.950 . S
H575 C551 0.949 . S
H576 C553 0.950 . S
H577 C555 0.950 . S
C578 C579 1.349 . S
C578 C580 1.327 . S
C578 H603 0.950 . S
C579 C578 1.349 . S
C579 C595 1.349 . S
C580 C578 1.327 . S
C580 C599 1.429 . S
C580 H604 0.950 . S
C581 C598 1.574 . S
C581 C600 1.368 . S
C581 H605 0.949 . S
H582 C586 0.949 . S
C583 C584 1.349 . S
C583 C585 1.327 . S
C583 H606 0.950 . S
C584 C583 1.349 . S
C584 C596 1.349 . S
C585 C583 1.327 . S
C585 C601 1.421 1_545 S
C585 H607 0.950 . S
C586 H582 0.949 . S
C586 C594 1.574 . S
C586 C602 1.368 . S
H587 C595 0.950 . S
H588 C593 0.950 . S
H589 C594 0.949 . S
H590 C596 0.950 . S
H591 C597 0.950 . S
H592 C598 0.949 1_545 S
C593 H588 0.950 . S
C593 C595 1.327 . S
C593 C599 1.429 . S
C594 C586 1.574 . S
C594 H589 0.949 . S
C594 C600 1.368 . S
C595 C579 1.349 . S
C595 H587 0.950 . S
C595 C593 1.327 . S
C596 C584 1.349 . S
C596 H590 0.950 . S
C596 C597 1.327 1_545 S
C597 H591 0.950 . S
C597 C596 1.327 1_565 S
C597 C601 1.430 . S
C598 C581 1.574 . S
C598 H592 0.949 1_565 S
C598 C602 1.368 . S
C599 C580 1.429 . S
C599 C593 1.429 . S
C599 C600 1.523 . S
C600 C581 1.368 . S
C600 C594 1.368 . S
C600 C599 1.523 . S
C601 C585 1.421 1_565 S
C601 C597 1.430 . S
C601 C602 1.528 . S
C602 C586 1.368 . S
C602 C598 1.368 . S
C602 C601 1.528 . S
H603 C578 0.950 . S
H604 C580 0.950 . S
H605 C581 0.949 . S
H606 C583 0.950 . S
H607 C585 0.950 . S
C608 C609 1.349 . S
C608 C610 1.327 . S
C608 H633 0.950 . S
C609 C608 1.349 . S
C609 C625 1.349 . S
C610 C608 1.327 . S
C610 C629 1.429 . S
C610 H634 0.950 . S
C611 C628 1.574 . S
C611 C630 1.368 . S
C611 H635 0.949 . S
H612 C616 0.949 . S
C613 C614 1.349 . S
C613 C615 1.327 . S
C613 H636 0.950 . S
C614 C613 1.349 . S
C614 C626 1.349 . S
C615 C613 1.327 . S
C615 C631 1.427 1_565 S
C615 H637 0.950 . S
C616 H612 0.949 . S
C616 C624 1.574 . S
C616 C632 1.368 . S
H617 C625 0.950 . S
H618 C623 0.950 . S
H619 C624 0.949 . S
H620 C626 0.950 . S
H621 C627 0.967 . S
H622 C628 0.949 . S
C623 H618 0.950 . S
C623 C625 1.327 . S
C623 C629 1.429 . S
C624 C616 1.574 . S
C624 H619 0.949 . S
C624 C630 1.368 . S
C625 C609 1.349 . S
C625 H617 0.950 . S
C625 C623 1.327 . S
C626 C614 1.349 . S
C626 H620 0.950 . S
C626 C627 1.327 . S
C627 H621 0.967 . S
C627 C626 1.327 . S
C627 C631 1.428 1_565 S
C628 C611 1.574 . S
C628 H622 0.949 . S
C628 C632 1.368 . S
C629 C610 1.429 . S
C629 C623 1.429 . S
C629 C630 1.523 . S
C630 C611 1.368 . S
C630 C624 1.368 . S
C630 C629 1.523 . S
C631 C615 1.427 1_545 S
C631 C627 1.428 1_545 S
C631 C632 1.525 . S
C632 C616 1.368 . S
C632 C628 1.368 . S
C632 C631 1.525 . S
H633 C608 0.950 . S
H634 C610 0.950 . S
H635 C611 0.949 . S
H636 C613 0.950 . S
H637 C615 0.950 . S
C638 C639 1.349 . S
C638 C640 1.327 . S
C638 H663 0.950 . S
C639 C638 1.349 . S
C639 C655 1.349 . S
C640 C638 1.327 . S
C640 C659 1.429 . S
C640 H664 0.950 . S
C641 C658 1.574 . S
C641 C660 1.368 . S
C641 H665 0.949 . S
H642 C646 0.949 . S
C643 C644 1.349 . S
C643 C645 1.327 . S
C643 H666 0.950 . S
C644 C643 1.349 . S
C644 C656 1.349 . S
C645 C643 1.327 . S
C645 C661 1.429 . S
C645 H667 0.950 . S
C646 H642 0.949 . S
C646 C654 1.574 . S
C646 C662 1.368 . S
H647 C655 0.950 . S
H648 C653 0.950 . S
H649 C654 0.949 . S
H650 C656 0.950 . S
H651 C657 0.950 . S
H652 C658 0.949 . S
C653 H648 0.950 . S
C653 C655 1.327 . S
C653 C659 1.429 . S
C654 C646 1.574 . S
C654 H649 0.949 . S
C654 C660 1.368 . S
C655 C639 1.349 . S
C655 H647 0.950 . S
C655 C653 1.327 . S
C656 C644 1.349 . S
C656 H650 0.950 . S
C656 C657 1.327 . S
C657 H651 0.950 . S
C657 C656 1.327 . S
C657 C661 1.429 . S
C658 C641 1.574 . S
C658 H652 0.949 . S
C658 C662 1.368 . S
C659 C640 1.429 . S
C659 C653 1.429 . S
C659 C660 1.523 . S
C660 C641 1.368 . S
C660 C654 1.368 . S
C660 C659 1.523 . S
C661 C645 1.429 . S
C661 C657 1.429 . S
C661 C662 1.523 . S
C662 C646 1.368 . S
C662 C658 1.368 . S
C662 C661 1.523 . S
H663 C638 0.950 . S
H664 C640 0.950 . S
H665 C641 0.949 . S
H666 C643 0.950 . S
H667 C645 0.950 . S
C668 C669 1.349 . S
C668 C670 1.327 . S
C668 H693 0.950 . S
C669 C668 1.349 . S
C669 C685 1.349 . S
C670 C668 1.327 . S
C670 C689 1.429 . S
C670 H694 0.950 . S
C671 C688 1.574 . S
C671 C690 1.368 . S
C671 H695 0.949 . S
H672 C676 0.949 . S
C673 C674 1.349 . S
C673 C675 1.327 . S
C673 H696 0.950 . S
C674 C673 1.349 . S
C674 C686 1.349 . S
C675 C673 1.327 . S
C675 C691 1.429 . S
C675 H697 0.950 . S
C676 H672 0.949 . S
C676 C684 1.574 . S
C676 C692 1.368 . S
H677 C685 0.950 . S
H678 C683 0.950 . S
H679 C684 0.949 . S
H680 C686 0.950 . S
H681 C687 0.950 . S
H682 C688 0.949 . S
C683 H678 0.950 . S
C683 C685 1.327 . S
C683 C689 1.429 . S
C684 C676 1.574 . S
C684 H679 0.949 . S
C684 C690 1.368 . S
C685 C669 1.349 . S
C685 H677 0.950 . S
C685 C683 1.327 . S
C686 C674 1.349 . S
C686 H680 0.950 . S
C686 C687 1.327 . S
C687 H681 0.950 . S
C687 C686 1.327 . S
C687 C691 1.429 . S
C688 C671 1.574 . S
C688 H682 0.949 . S
C688 C692 1.368 . S
C689 C670 1.429 . S
C689 C683 1.429 . S
C689 C690 1.523 . S
C690 C671 1.368 . S
C690 C684 1.368 . S
C690 C689 1.523 . S
C691 C675 1.429 . S
C691 C687 1.429 . S
C691 C692 1.523 . S
C692 C676 1.368 . S
C692 C688 1.368 . S
C692 C691 1.523 . S
H693 C668 0.950 . S
H694 C670 0.950 . S
H695 C671 0.949 . S
H696 C673 0.950 . S
H697 C675 0.950 . S
C698 C699 1.349 . S
C698 C700 1.327 . S
C698 H723 0.950 . S
C699 C698 1.349 . S
C699 C715 1.349 . S
C700 C698 1.327 . S
C700 C719 1.429 . S
C700 H724 0.950 . S
C701 C718 1.574 . S
C701 C720 1.368 . S
C701 H725 0.949 . S
H702 C706 0.949 . S
C703 C704 1.349 . S
C703 C705 1.327 . S
C703 H726 0.950 . S
C704 C703 1.349 . S
C704 C716 1.349 . S
C705 C703 1.327 . S
C705 C721 1.428 1_565 S
C705 H727 0.950 1_565 S
C706 H702 0.949 . S
C706 C714 1.574 . S
C706 C722 1.368 . S
H707 C715 0.950 . S
H708 C713 0.950 . S
H709 C714 0.949 . S
H710 C716 0.950 . S
H711 C717 0.950 . S
H712 C718 0.949 . S
C713 H708 0.950 . S
C713 C715 1.327 . S
C713 C719 1.429 . S
C714 C706 1.574 . S
C714 H709 0.949 . S
C714 C720 1.368 . S
C715 C699 1.349 . S
C715 H707 0.950 . S
C715 C713 1.327 . S
C716 C704 1.349 . S
C716 H710 0.950 . S
C716 C717 1.327 . S
C717 H711 0.950 . S
C717 C716 1.327 . S
C717 C721 1.424 1_565 S
C718 C701 1.574 . S
C718 H712 0.949 . S
C718 C722 1.368 . S
C719 C700 1.429 . S
C719 C713 1.429 . S
C719 C720 1.523 . S
C720 C701 1.368 . S
C720 C714 1.368 . S
C720 C719 1.523 . S
C721 C705 1.428 1_545 S
C721 C717 1.424 1_545 S
C721 C722 1.528 . S
C722 C706 1.368 . S
C722 C718 1.368 . S
C722 C721 1.528 . S
H723 C698 0.950 . S
H724 C700 0.950 . S
H725 C701 0.949 . S
H726 C703 0.950 . S
H727 C705 0.950 1_545 S
C728 C729 1.349 . S
C728 C730 1.327 . S
C728 H753 0.950 . S
C729 C728 1.349 . S
C729 C745 1.349 . S
C730 C728 1.327 . S
C730 C749 1.429 . S
C730 H754 0.950 . S
C731 C748 1.574 . S
C731 C750 1.368 . S
C731 H755 0.949 . S
H732 C736 0.949 . S
C733 C734 1.349 . S
C733 C735 1.327 . S
C733 H756 0.950 . S
C734 C733 1.349 . S
C734 C746 1.349 . S
C735 C733 1.327 . S
C735 C751 1.429 . S
C735 H757 0.950 . S
C736 H732 0.949 . S
C736 C744 1.574 . S
C736 C752 1.368 . S
H737 C745 0.950 . S
H738 C743 0.950 . S
H739 C744 0.949 . S
H740 C746 0.950 . S
H741 C747 0.950 . S
H742 C748 0.949 . S
C743 H738 0.950 . S
C743 C745 1.327 . S
C743 C749 1.429 . S
C744 C736 1.574 . S
C744 H739 0.949 . S
C744 C750 1.368 . S
C745 C729 1.349 . S
C745 H737 0.950 . S
C745 C743 1.327 . S
C746 C734 1.349 . S
C746 H740 0.950 . S
C746 C747 1.327 . S
C747 H741 0.950 . S
C747 C746 1.327 . S
C747 C751 1.429 . S
C748 C731 1.574 . S
C748 H742 0.949 . S
C748 C752 1.368 . S
C749 C730 1.429 . S
C749 C743 1.429 . S
C749 C750 1.523 1_556 S
C750 C731 1.368 . S
C750 C744 1.368 . S
C750 C749 1.523 1_554 S
C751 C735 1.429 . S
C751 C747 1.429 . S
C751 C752 1.523 . S
C752 C736 1.368 . S
C752 C748 1.368 . S
C752 C751 1.523 . S
H753 C728 0.950 . S
H754 C730 0.950 . S
H755 C731 0.949 . S
H756 C733 0.950 . S
H757 C735 0.950 . S
C758 C759 1.349 . S
C758 C760 1.327 . S
C758 H783 0.950 . S
C759 C758 1.349 . S
C759 C775 1.349 . S
C760 C758 1.327 . S
C760 C779 1.429 . S
C760 H784 0.950 . S
C761 C778 1.574 . S
C761 C780 1.368 . S
C761 H785 0.949 . S
H762 C766 0.949 . S
C763 C764 1.349 . S
C763 C765 1.327 . S
C763 H786 0.950 . S
C764 C763 1.349 . S
C764 C776 1.349 . S
C765 C763 1.327 . S
C765 C781 1.429 . S
C765 H787 0.950 . S
C766 H762 0.949 . S
C766 C774 1.574 . S
C766 C782 1.368 . S
H767 C775 0.950 . S
H768 C773 0.950 . S
H769 C774 0.949 . S
H770 C776 0.950 . S
H771 C777 0.950 . S
H772 C778 0.949 . S
C773 H768 0.950 . S
C773 C775 1.327 . S
C773 C779 1.429 . S
C774 C766 1.574 . S
C774 H769 0.949 . S
C774 C780 1.368 . S
C775 C759 1.349 . S
C775 H767 0.950 . S
C775 C773 1.327 . S
C776 C764 1.349 . S
C776 H770 0.950 . S
C776 C777 1.327 . S
C777 H771 0.950 . S
C777 C776 1.327 . S
C777 C781 1.429 . S
C778 C761 1.574 . S
C778 H772 0.949 . S
C778 C782 1.368 . S
C779 C760 1.429 . S
C779 C773 1.429 . S
C779 C780 1.523 . S
C780 C761 1.368 . S
C780 C774 1.368 . S
C780 C779 1.523 . S
C781 C765 1.429 . S
C781 C777 1.429 . S
C781 C782 1.523 . S
C782 C766 1.368 . S
C782 C778 1.368 . S
C782 C781 1.523 . S
H783 C758 0.950 . S
H784 C760 0.950 . S
H785 C761 0.949 . S
H786 C763 0.950 . S
H787 C765 0.950 . S
C788 C789 1.349 . S
C788 C790 1.327 . S
C788 H813 0.950 . S
C789 C788 1.349 . S
C789 C805 1.349 . S
C790 C788 1.327 . S
C790 C809 1.429 . S
C790 H814 0.950 . S
C791 C808 1.574 . S
C791 C810 1.368 . S
C791 H815 0.949 . S
H792 C796 0.949 . S
C793 C794 1.349 . S
C793 C795 1.327 . S
C793 H816 0.950 . S
C794 C793 1.349 . S
C794 C806 1.349 . S
C795 C793 1.327 . S
C795 C811 1.429 . S
C795 H817 0.950 . S
C796 H792 0.949 . S
C796 C804 1.574 . S
C796 C812 1.368 . S
H797 C805 0.950 . S
H798 C803 0.950 . S
H799 C804 0.949 . S
H800 C806 0.950 . S
H801 C807 0.950 . S
H802 C808 0.949 . S
C803 H798 0.950 . S
C803 C805 1.327 . S
C803 C809 1.429 . S
C804 C796 1.574 . S
C804 H799 0.949 . S
C804 C810 1.368 . S
C805 C789 1.349 . S
C805 H797 0.950 . S
C805 C803 1.327 . S
C806 C794 1.349 . S
C806 H800 0.950 . S
C806 C807 1.327 . S
C807 H801 0.950 . S
C807 C806 1.327 . S
C807 C811 1.429 . S
C808 C791 1.574 . S
C808 H802 0.949 . S
C808 C812 1.368 . S
C809 C790 1.429 . S
C809 C803 1.429 . S
C809 C810 1.523 1_554 S
C810 C791 1.368 . S
C810 C804 1.368 . S
C810 C809 1.523 1_556 S
C811 C795 1.429 . S
C811 C807 1.429 . S
C811 C812 1.523 . S
C812 C796 1.368 . S
C812 C808 1.368 . S
C812 C811 1.523 . S
H813 C788 0.950 . S
H814 C790 0.950 . S
H815 C791 0.949 . S
H816 C793 0.950 . S
H817 C795 0.950 . S
C818 C819 1.349 . S
C818 C820 1.327 . S
C818 H843 0.950 . S
C819 C818 1.349 . S
C819 C835 1.349 . S
C820 C818 1.327 . S
C820 C839 1.429 . S
C820 H844 0.950 . S
C821 C838 1.574 . S
C821 C840 1.368 . S
C821 H845 0.949 . S
H822 C826 0.949 . S
C823 C824 1.349 . S
C823 C825 1.327 . S
C823 H846 0.950 . S
C824 C823 1.349 . S
C824 C836 1.349 . S
C825 C823 1.327 . S
C825 C841 1.429 . S
C825 H847 0.950 . S
C826 H822 0.949 . S
C826 C834 1.574 . S
C826 C842 1.368 . S
H827 C835 0.950 . S
H828 C833 0.950 . S
H829 C834 0.949 . S
H830 C836 0.950 . S
H831 C837 0.950 . S
H832 C838 0.949 . S
C833 H828 0.950 . S
C833 C835 1.327 . S
C833 C839 1.429 . S
C834 C826 1.574 . S
C834 H829 0.949 . S
C834 C840 1.368 . S
C835 C819 1.349 . S
C835 H827 0.950 . S
C835 C833 1.327 . S
C836 C824 1.349 . S
C836 H830 0.950 . S
C836 C837 1.327 . S
C837 H831 0.950 . S
C837 C836 1.327 . S
C837 C841 1.429 . S
C838 C821 1.574 . S
C838 H832 0.949 . S
C838 C842 1.368 . S
C839 C820 1.429 . S
C839 C833 1.429 . S
C839 C840 1.523 . S
C840 C821 1.368 . S
C840 C834 1.368 . S
C840 C839 1.523 . S
C841 C825 1.429 . S
C841 C837 1.429 . S
C841 C842 1.523 . S
C842 C826 1.368 . S
C842 C838 1.368 . S
C842 C841 1.523 . S
H843 C818 0.950 . S
H844 C820 0.950 . S
H845 C821 0.949 . S
H846 C823 0.950 . S
H847 C825 0.950 . S
C848 C849 1.349 . S
C848 C850 1.327 . S
C848 H873 0.950 . S
C849 C848 1.349 . S
C849 C865 1.349 . S
C850 C848 1.327 . S
C850 C869 1.429 . S
C850 H874 0.950 . S
C851 C868 1.574 . S
C851 C870 1.368 . S
C851 H875 0.949 . S
H852 C856 0.949 . S
C853 C854 1.349 . S
C853 C855 1.327 . S
C853 H876 0.950 . S
C854 C853 1.349 . S
C854 C866 1.349 . S
C855 C853 1.327 . S
C855 C871 1.429 . S
C855 H877 0.950 . S
C856 H852 0.949 . S
C856 C864 1.574 . S
C856 C872 1.368 . S
H857 C865 0.950 . S
H858 C863 0.950 1_556 S
H859 C864 0.949 . S
H860 C866 0.950 . S
H861 C867 0.950 . S
H862 C868 0.949 . S
C863 H858 0.950 1_554 S
C863 C865 1.327 . S
C863 C869 1.429 . S
C864 C856 1.574 . S
C864 H859 0.949 . S
C864 C870 1.368 . S
C865 C849 1.349 . S
C865 H857 0.950 . S
C865 C863 1.327 . S
C866 C854 1.349 . S
C866 H860 0.950 . S
C866 C867 1.327 . S
C867 H861 0.950 . S
C867 C866 1.327 . S
C867 C871 1.429 . S
C868 C851 1.574 . S
C868 H862 0.949 . S
C868 C872 1.368 . S
C869 C850 1.429 . S
C869 C863 1.429 . S
C869 C870 1.523 1_554 S
C870 C851 1.368 . S
C870 C864 1.368 . S
C870 C869 1.523 1_556 S
C871 C855 1.429 . S
C871 C867 1.429 . S
C871 C872 1.523 . S
C872 C856 1.368 . S
C872 C868 1.368 . S
C872 C871 1.523 . S
H873 C848 0.950 . S
H874 C850 0.950 . S
H875 C851 0.949 . S
H876 C853 0.950 . S
H877 C855 0.950 . S
C878 C879 1.349 . S
C878 C880 1.327 . S
C878 H903 0.950 . S
C879 C878 1.349 . S
C879 C895 1.349 . S
C880 C878 1.327 . S
C880 C899 1.429 . S
C880 H904 0.950 . S
C881 C898 1.574 . S
C881 C900 1.368 . S
C881 H905 0.949 . S
H882 C886 0.949 . S
C883 C884 1.349 . S
C883 C885 1.327 . S
C883 H906 0.950 . S
C884 C883 1.349 . S
C884 C896 1.349 . S
C885 C883 1.327 . S
C885 C901 1.429 . S
C885 H907 0.950 . S
C886 H882 0.949 . S
C886 C894 1.574 . S
C886 C902 1.368 . S
H887 C895 0.950 . S
H888 C893 0.950 . S
H889 C894 0.949 . S
H890 C896 0.950 . S
H891 C897 0.950 . S
H892 C898 0.949 . S
C893 H888 0.950 . S
C893 C895 1.327 . S
C893 C899 1.429 . S
C894 C886 1.574 . S
C894 H889 0.949 . S
C894 C900 1.368 . S
C895 C879 1.349 . S
C895 H887 0.950 . S
C895 C893 1.327 . S
C896 C884 1.349 . S
C896 H890 0.950 . S
C896 C897 1.327 . S
C897 H891 0.950 . S
C897 C896 1.327 . S
C897 C901 1.429 . S
C898 C881 1.574 . S
C898 H892 0.949 . S
C898 C902 1.368 . S
C899 C880 1.429 . S
C899 C893 1.429 . S
C899 C900 1.523 . S
C900 C881 1.368 . S
C900 C894 1.368 . S
C900 C899 1.523 . S
C901 C885 1.429 . S
C901 C897 1.429 . S
C901 C902 1.523 . S
C902 C886 1.368 . S
C902 C898 1.368 . S
C902 C901 1.523 . S
H903 C878 0.950 . S
H904 C880 0.950 . S
H905 C881 0.949 . S
H906 C883 0.950 . S
H907 C885 0.950 . S
C908 C909 1.349 . S
C908 C910 1.327 . S
C908 H933 0.950 . S
C909 C908 1.349 . S
C909 C925 1.349 . S
C910 C908 1.327 . S
C910 C929 1.429 . S
C910 H934 0.950 1_556 S
C911 C928 1.574 . S
C911 C930 1.368 . S
C911 H935 0.949 . S
H912 C916 0.949 . S
C913 C914 1.349 . S
C913 C915 1.327 . S
C913 H936 0.950 . S
C914 C913 1.349 . S
C914 C926 1.349 . S
C915 C913 1.327 . S
C915 C931 1.429 . S
C915 H937 0.950 . S
C916 H912 0.949 . S
C916 C924 1.574 . S
C916 C932 1.368 . S
H917 C925 0.950 . S
H918 C923 0.950 . S
H919 C924 0.949 . S
H920 C926 0.950 . S
H921 C927 0.950 . S
H922 C928 0.949 . S
C923 H918 0.950 . S
C923 C925 1.327 . S
C923 C929 1.429 . S
C924 C916 1.574 . S
C924 H919 0.949 . S
C924 C930 1.368 . S
C925 C909 1.349 . S
C925 H917 0.950 . S
C925 C923 1.327 . S
C926 C914 1.349 . S
C926 H920 0.950 . S
C926 C927 1.327 . S
C927 H921 0.950 . S
C927 C926 1.327 . S
C927 C931 1.429 . S
C928 C911 1.574 . S
C928 H922 0.949 . S
C928 C932 1.368 . S
C929 C910 1.429 . S
C929 C923 1.429 . S
C929 C930 1.523 1_556 S
C930 C911 1.368 . S
C930 C924 1.368 . S
C930 C929 1.523 1_554 S
C931 C915 1.429 . S
C931 C927 1.429 . S
C931 C932 1.523 . S
C932 C916 1.368 . S
C932 C928 1.368 . S
C932 C931 1.523 . S
H933 C908 0.950 . S
H934 C910 0.950 1_554 S
H935 C911 0.949 . S
H936 C913 0.950 . S
H937 C915 0.950 . S
C938 C939 1.349 . S
C938 C940 1.327 . S
C938 H963 0.950 . S
C939 C938 1.349 . S
C939 C955 1.349 . S
C940 C938 1.327 . S
C940 C959 1.429 . S
C940 H964 0.950 . S
C941 C958 1.574 . S
C941 C960 1.368 . S
C941 H965 0.949 . S
H942 C946 0.949 . S
C943 C944 1.349 . S
C943 C945 1.327 . S
C943 H966 0.950 . S
C944 C943 1.349 . S
C944 C956 1.349 . S
C945 C943 1.327 . S
C945 C961 1.429 . S
C945 H967 0.950 . S
C946 H942 0.949 . S
C946 C954 1.574 . S
C946 C962 1.368 . S
H947 C955 0.950 . S
H948 C953 0.950 . S
H949 C954 0.949 . S
H950 C956 0.950 . S
H951 C957 0.950 . S
H952 C958 0.949 . S
C953 H948 0.950 . S
C953 C955 1.327 . S
C953 C959 1.429 . S
C954 C946 1.574 . S
C954 H949 0.949 . S
C954 C960 1.368 . S
C955 C939 1.349 . S
C955 H947 0.950 . S
C955 C953 1.327 . S
C956 C944 1.349 . S
C956 H950 0.950 . S
C956 C957 1.327 . S
C957 H951 0.950 . S
C957 C956 1.327 . S
C957 C961 1.429 . S
C958 C941 1.574 . S
C958 H952 0.949 . S
C958 C962 1.368 . S
C959 C940 1.429 . S
C959 C953 1.429 . S
C959 C960 1.523 . S
C960 C941 1.368 . S
C960 C954 1.368 . S
C960 C959 1.523 . S
C961 C945 1.429 . S
C961 C957 1.429 . S
C961 C962 1.523 . S
C962 C946 1.368 . S
C962 C958 1.368 . S
C962 C961 1.523 . S
H963 C938 0.950 . S
H964 C940 0.950 . S
H965 C941 0.949 . S
H966 C943 0.950 . S
H967 C945 0.950 . S
C968 C969 1.349 . S
C968 C970 1.327 . S
C968 H993 0.950 . S
C969 C968 1.349 . S
C969 C985 1.349 . S
C970 C968 1.327 . S
C970 C989 1.429 . S
C970 H994 0.950 . S
C971 C988 1.574 . S
C971 C990 1.368 . S
C971 H995 0.949 . S
H972 C976 0.949 . S
C973 C974 1.349 . S
C973 C975 1.327 . S
C973 H996 0.950 . S
C974 C973 1.349 . S
C974 C986 1.349 . S
C975 C973 1.327 . S
C975 C991 1.429 . S
C975 H997 0.950 . S
C976 H972 0.949 . S
C976 C984 1.574 . S
C976 C992 1.368 . S
H977 C985 0.950 . S
H978 C983 0.950 . S
H979 C984 0.949 . S
H980 C986 0.950 . S
H981 C987 0.950 . S
H982 C988 0.949 . S
C983 H978 0.950 . S
C983 C985 1.327 . S
C983 C989 1.429 . S
C984 C976 1.574 . S
C984 H979 0.949 . S
C984 C990 1.368 . S
C985 C969 1.349 . S
C985 H977 0.950 . S
C985 C983 1.327 . S
C986 C974 1.349 . S
C986 H980 0.950 . S
C986 C987 1.327 . S
C987 H981 0.950 . S
C987 C986 1.327 . S
C987 C991 1.429 . S
C988 C971 1.574 . S
C988 H982 0.949 . S
C988 C992 1.368 . S
C989 C970 1.429 . S
C989 C983 1.429 . S
C989 C990 1.523 . S
C990 C971 1.368 . S
C990 C984 1.368 . S
C990 C989 1.523 . S
C991 C975 1.429 . S
C991 C987 1.429 . S
C991 C992 1.523 . S
C992 C976 1.368 . S
C992 C988 1.368 . S
C992 C991 1.523 . S
H993 C968 0.950 . S
H994 C970 0.950 . S
H995 C971 0.949 . S
H996 C973 0.950 . S
H997 C975 0.950 . S
C998 C999 1.349 . S
C998 C1000 1.327 . S
C998 H1023 0.950 . S
C999 C998 1.349 . S
C999 C1015 1.349 . S
C1000 C998 1.327 . S
C1000 C1019 1.429 . S
C1000 H1024 0.950 . S
C1001 C1018 1.574 . S
C1001 C1020 1.368 . S
C1001 H1025 0.949 . S
H1002 C1006 0.949 . S
C1003 C1004 1.349 . S
C1003 C1005 1.327 . S
C1003 H1026 0.950 . S
C1004 C1003 1.349 . S
C1004 C1016 1.349 . S
C1005 C1003 1.327 . S
C1005 C1021 1.429 . S
C1005 H1027 0.950 . S
C1006 H1002 0.949 . S
C1006 C1014 1.574 . S
C1006 C1022 1.368 . S
H1007 C1015 0.950 . S
H1008 C1013 0.950 . S
H1009 C1014 0.949 . S
H1010 C1016 0.950 . S
H1011 C1017 0.950 . S
H1012 C1018 0.949 . S
C1013 H1008 0.950 . S
C1013 C1015 1.327 . S
C1013 C1019 1.429 . S
C1014 C1006 1.574 . S
C1014 H1009 0.949 . S
C1014 C1020 1.368 . S
C1015 C999 1.349 . S
C1015 H1007 0.950 . S
C1015 C1013 1.327 . S
C1016 C1004 1.349 . S
C1016 H1010 0.950 . S
C1016 C1017 1.327 . S
C1017 H1011 0.950 . S
C1017 C1016 1.327 . S
C1017 C1021 1.429 . S
C1018 C1001 1.574 . S
C1018 H1012 0.949 . S
C1018 C1022 1.368 . S
C1019 C1000 1.429 . S
C1019 C1013 1.429 . S
C1019 C1020 1.523 . S
C1020 C1001 1.368 . S
C1020 C1014 1.368 . S
C1020 C1019 1.523 . S
C1021 C1005 1.429 . S
C1021 C1017 1.429 . S
C1021 C1022 1.523 . S
C1022 C1006 1.368 . S
C1022 C1018 1.368 . S
C1022 C1021 1.523 . S
H1023 C998 0.950 . S
H1024 C1000 0.950 . S
H1025 C1001 0.949 . S
H1026 C1003 0.950 . S
H1027 C1005 0.950 . S
C1028 C1029 1.349 . S
C1028 C1030 1.327 . S
C1028 H1053 0.950 . S
C1029 C1028 1.349 . S
C1029 C1045 1.349 . S
C1030 C1028 1.327 . S
C1030 C1049 1.429 . S
C1030 H1054 0.950 . S
C1031 C1048 1.574 . S
C1031 C1050 1.368 . S
C1031 H1055 0.949 . S
H1032 C1036 0.949 . S
C1033 C1034 1.349 . S
C1033 C1035 1.327 . S
C1033 H1056 0.950 . S
C1034 C1033 1.349 . S
C1034 C1046 1.349 . S
C1035 C1033 1.327 . S
C1035 C1051 1.429 . S
C1035 H1057 0.950 . S
C1036 H1032 0.949 . S
C1036 C1044 1.574 . S
C1036 C1052 1.368 . S
H1037 C1045 0.950 . S
H1038 C1043 0.950 . S
H1039 C1044 0.949 . S
H1040 C1046 0.950 . S
H1041 C1047 0.950 . S
H1042 C1048 0.949 . S
C1043 H1038 0.950 . S
C1043 C1045 1.327 . S
C1043 C1049 1.429 . S
C1044 C1036 1.574 . S
C1044 H1039 0.949 . S
C1044 C1050 1.368 . S
C1045 C1029 1.349 . S
C1045 H1037 0.950 . S
C1045 C1043 1.327 . S
C1046 C1034 1.349 . S
C1046 H1040 0.950 . S
C1046 C1047 1.327 . S
C1047 H1041 0.950 . S
C1047 C1046 1.327 . S
C1047 C1051 1.429 . S
C1048 C1031 1.574 . S
C1048 H1042 0.949 . S
C1048 C1052 1.368 . S
C1049 C1030 1.429 . S
C1049 C1043 1.429 . S
C1049 C1050 1.523 . S
C1050 C1031 1.368 . S
C1050 C1044 1.368 . S
C1050 C1049 1.523 . S
C1051 C1035 1.429 . S
C1051 C1047 1.429 . S
C1051 C1052 1.523 . S
C1052 C1036 1.368 . S
C1052 C1048 1.368 . S
C1052 C1051 1.523 . S
H1053 C1028 0.950 . S
H1054 C1030 0.950 . S
H1055 C1031 0.949 . S
H1056 C1033 0.950 . S
H1057 C1035 0.950 . S
C1058 C1059 1.349 . S
C1058 C1060 1.327 . S
C1058 H1083 0.950 . S
C1059 C1058 1.349 . S
C1059 C1075 1.349 . S
C1060 C1058 1.327 . S
C1060 C1079 1.429 . S
C1060 H1084 0.950 . S
C1061 C1078 1.574 . S
C1061 C1080 1.368 . S
C1061 H1085 0.949 . S
H1062 C1066 0.949 . S
C1063 C1064 1.349 . S
C1063 C1065 1.327 . S
C1063 H1086 0.950 . S
C1064 C1063 1.349 . S
C1064 C1076 1.349 . S
C1065 C1063 1.327 . S
C1065 C1081 1.429 . S
C1065 H1087 0.950 . S
C1066 H1062 0.949 . S
C1066 C1074 1.574 . S
C1066 C1082 1.368 . S
H1067 C1075 0.950 . S
H1068 C1073 0.950 . S
H1069 C1074 0.949 . S
H1070 C1076 0.950 . S
H1071 C1077 0.950 . S
H1072 C1078 0.949 . S
C1073 H1068 0.950 . S
C1073 C1075 1.327 . S
C1073 C1079 1.429 . S
C1074 C1066 1.574 . S
C1074 H1069 0.949 . S
C1074 C1080 1.368 . S
C1075 C1059 1.349 . S
C1075 H1067 0.950 . S
C1075 C1073 1.327 . S
C1076 C1064 1.349 . S
C1076 H1070 0.950 . S
C1076 C1077 1.327 . S
C1077 H1071 0.950 . S
C1077 C1076 1.327 . S
C1077 C1081 1.429 . S
C1078 C1061 1.574 . S
C1078 H1072 0.949 . S
C1078 C1082 1.368 . S
C1079 C1060 1.429 . S
C1079 C1073 1.429 . S
C1079 C1080 1.523 . S
C1080 C1061 1.368 . S
C1080 C1074 1.368 . S
C1080 C1079 1.523 . S
C1081 C1065 1.429 . S
C1081 C1077 1.429 . S
C1081 C1082 1.523 . S
C1082 C1066 1.368 . S
C1082 C1078 1.368 . S
C1082 C1081 1.523 . S
H1083 C1058 0.950 . S
H1084 C1060 0.950 . S
H1085 C1061 0.949 . S
H1086 C1063 0.950 . S
H1087 C1065 0.950 . S
C1088 C1089 1.349 . S
C1088 C1090 1.327 . S
C1088 H1113 0.950 . S
C1089 C1088 1.349 . S
C1089 C1105 1.349 . S
C1090 C1088 1.327 . S
C1090 C1109 1.429 . S
C1090 H1114 0.950 . S
C1091 C1108 1.574 . S
C1091 C1110 1.368 . S
C1091 H1115 0.949 . S
H1092 C1096 0.949 . S
C1093 C1094 1.349 . S
C1093 C1095 1.327 . S
C1093 H1116 0.950 . S
C1094 C1093 1.349 . S
C1094 C1106 1.349 . S
C1095 C1093 1.327 . S
C1095 C1111 1.429 . S
C1095 H1117 0.950 . S
C1096 H1092 0.949 . S
C1096 C1104 1.574 . S
C1096 C1112 1.368 . S
H1097 C1105 0.950 . S
H1098 C1103 0.950 . S
H1099 C1104 0.949 . S
H1100 C1106 0.950 . S
H1101 C1107 0.950 . S
H1102 C1108 0.949 . S
C1103 H1098 0.950 . S
C1103 C1105 1.327 . S
C1103 C1109 1.429 . S
C1104 C1096 1.574 . S
C1104 H1099 0.949 . S
C1104 C1110 1.368 . S
C1105 C1089 1.349 . S
C1105 H1097 0.950 . S
C1105 C1103 1.327 . S
C1106 C1094 1.349 . S
C1106 H1100 0.950 . S
C1106 C1107 1.327 . S
C1107 H1101 0.950 . S
C1107 C1106 1.327 . S
C1107 C1111 1.429 . S
C1108 C1091 1.574 . S
C1108 H1102 0.949 . S
C1108 C1112 1.368 . S
C1109 C1090 1.429 . S
C1109 C1103 1.429 . S
C1109 C1110 1.523 . S
C1110 C1091 1.368 . S
C1110 C1104 1.368 . S
C1110 C1109 1.523 . S
C1111 C1095 1.429 . S
C1111 C1107 1.429 . S
C1111 C1112 1.523 . S
C1112 C1096 1.368 . S
C1112 C1108 1.368 . S
C1112 C1111 1.523 . S
H1113 C1088 0.950 . S
H1114 C1090 0.950 . S
H1115 C1091 0.949 . S
H1116 C1093 0.950 . S
H1117 C1095 0.950 . S
C1118 C1119 1.349 . S
C1118 C1120 1.327 . S
C1118 H1143 0.950 . S
C1119 C1118 1.349 . S
C1119 C1135 1.349 . S
C1120 C1118 1.327 . S
C1120 C1139 1.429 . S
C1120 H1144 0.950 . S
C1121 C1138 1.574 . S
C1121 C1140 1.368 . S
C1121 H1145 0.949 . S
H1122 C1126 0.949 . S
C1123 C1124 1.349 . S
C1123 C1125 1.327 . S
C1123 H1146 0.950 . S
C1124 C1123 1.349 . S
C1124 C1136 1.349 . S
C1125 C1123 1.327 . S
C1125 C1141 1.429 . S
C1125 H1147 0.950 . S
C1126 H1122 0.949 . S
C1126 C1134 1.574 . S
C1126 C1142 1.368 . S
H1127 C1135 0.950 . S
H1128 C1133 0.950 . S
H1129 C1134 0.949 . S
H1130 C1136 0.950 . S
H1131 C1137 0.950 . S
H1132 C1138 0.949 . S
C1133 H1128 0.950 . S
C1133 C1135 1.327 . S
C1133 C1139 1.429 . S
C1134 C1126 1.574 . S
C1134 H1129 0.949 . S
C1134 C1140 1.368 . S
C1135 C1119 1.349 . S
C1135 H1127 0.950 . S
C1135 C1133 1.327 . S
C1136 C1124 1.349 . S
C1136 H1130 0.950 . S
C1136 C1137 1.327 . S
C1137 H1131 0.950 . S
C1137 C1136 1.327 . S
C1137 C1141 1.429 . S
C1138 C1121 1.574 . S
C1138 H1132 0.949 . S
C1138 C1142 1.368 . S
C1139 C1120 1.429 . S
C1139 C1133 1.429 . S
C1139 C1140 1.523 . S
C1140 C1121 1.368 . S
C1140 C1134 1.368 . S
C1140 C1139 1.523 . S
C1141 C1125 1.429 . S
C1141 C1137 1.429 . S
C1141 C1142 1.523 . S
C1142 C1126 1.368 . S
C1142 C1138 1.368 . S
C1142 C1141 1.523 . S
H1143 C1118 0.950 . S
H1144 C1120 0.950 . S
H1145 C1121 0.949 . S
H1146 C1123 0.950 . S
H1147 C1125 0.950 . S
C1148 C1149 1.349 . S
C1148 C1150 1.327 . S
C1148 H1173 0.950 . S
C1149 C1148 1.349 . S
C1149 C1165 1.349 . S
C1150 C1148 1.327 . S
C1150 C1169 1.429 . S
C1150 H1174 0.950 . S
C1151 C1168 1.574 . S
C1151 C1170 1.368 . S
C1151 H1175 0.949 . S
H1152 C1156 0.949 . S
C1153 C1154 1.349 . S
C1153 C1155 1.327 . S
C1153 H1176 0.950 . S
C1154 C1153 1.349 . S
C1154 C1166 1.349 . S
C1155 C1153 1.327 . S
C1155 C1171 1.429 . S
C1155 H1177 0.950 . S
C1156 H1152 0.949 . S
C1156 C1164 1.574 . S
C1156 C1172 1.368 . S
H1157 C1165 0.950 . S
H1158 C1163 0.950 . S
H1159 C1164 0.949 . S
H1160 C1166 0.950 . S
H1161 C1167 0.950 . S
H1162 C1168 0.949 . S
C1163 H1158 0.950 . S
C1163 C1165 1.327 . S
C1163 C1169 1.429 . S
C1164 C1156 1.574 . S
C1164 H1159 0.949 . S
C1164 C1170 1.368 . S
C1165 C1149 1.349 . S
C1165 H1157 0.950 . S
C1165 C1163 1.327 . S
C1166 C1154 1.349 . S
C1166 H1160 0.950 . S
C1166 C1167 1.327 . S
C1167 H1161 0.950 . S
C1167 C1166 1.327 . S
C1167 C1171 1.429 . S
C1168 C1151 1.574 . S
C1168 H1162 0.949 . S
C1168 C1172 1.368 . S
C1169 C1150 1.429 . S
C1169 C1163 1.429 . S
C1169 C1170 1.523 . S
C1170 C1151 1.368 . S
C1170 C1164 1.368 . S
C1170 C1169 1.523 . S
C1171 C1155 1.429 . S
C1171 C1167 1.429 . S
C1171 C1172 1.523 . S
C1172 C1156 1.368 . S
C1172 C1168 1.368 . S
C1172 C1171 1.523 . S
H1173 C1148 0.950 . S
H1174 C1150 0.950 . S
H1175 C1151 0.949 . S
H1176 C1153 0.950 . S
H1177 C1155 0.950 . S
C1178 C1179 1.349 . S
C1178 C1180 1.327 . S
C1178 H1203 0.950 . S
C1179 C1178 1.349 . S
C1179 C1195 1.349 . S
C1180 C1178 1.327 . S
C1180 C1199 1.429 . S
C1180 H1204 0.950 . S
C1181 C1198 1.574 . S
C1181 C1200 1.368 . S
C1181 H1205 0.949 . S
H1182 C1186 0.949 . S
C1183 C1184 1.349 . S
C1183 C1185 1.327 . S
C1183 H1206 0.950 . S
C1184 C1183 1.349 . S
C1184 C1196 1.349 . S
C1185 C1183 1.327 . S
C1185 C1201 1.429 . S
C1185 H1207 0.950 . S
C1186 H1182 0.949 . S
C1186 C1194 1.574 . S
C1186 C1202 1.368 . S
H1187 C1195 0.950 . S
H1188 C1193 0.950 . S
H1189 C1194 0.949 . S
H1190 C1196 0.950 . S
H1191 C1197 0.950 . S
H1192 C1198 0.949 . S
C1193 H1188 0.950 . S
C1193 C1195 1.327 . S
C1193 C1199 1.429 . S
C1194 C1186 1.574 . S
C1194 H1189 0.949 . S
C1194 C1200 1.368 . S
C1195 C1179 1.349 . S
C1195 H1187 0.950 . S
C1195 C1193 1.327 . S
C1196 C1184 1.349 . S
C1196 H1190 0.950 . S
C1196 C1197 1.327 . S
C1197 H1191 0.950 . S
C1197 C1196 1.327 . S
C1197 C1201 1.429 . S
C1198 C1181 1.574 . S
C1198 H1192 0.949 . S
C1198 C1202 1.368 . S
C1199 C1180 1.429 . S
C1199 C1193 1.429 . S
C1199 C1200 1.523 . S
C1200 C1181 1.368 . S
C1200 C1194 1.368 . S
C1200 C1199 1.523 . S
C1201 C1185 1.429 . S
C1201 C1197 1.429 . S
C1201 C1202 1.523 . S
C1202 C1186 1.368 . S
C1202 C1198 1.368 . S
C1202 C1201 1.523 . S
H1203 C1178 0.950 . S
H1204 C1180 0.950 . S
H1205 C1181 0.949 . S
H1206 C1183 0.950 . S
H1207 C1185 0.950 . S
C489 C116 1.838 . S
C494 C226 1.829 . S
C524 C310 1.829 . S
C519 C135 1.838 . S
C554 C303 1.837 . S
C549 C78 1.832 . S
C579 C97 1.832 . S
C584 C219 1.837 . S
C614 C383 1.829 . S
C609 C40 1.839 . S
C644 C467 1.829 . S
C639 C59 1.839 . S
C669 C2 1.833 . S
C674 C460 1.837 . S
C699 C21 1.833 . S
C704 C376 1.837 . S
C734 C210 1.597 . S
C729 C25 1.767 . S
C764 C294 1.597 . S
C759 C6 1.766 . S
C794 C305 1.515 . S
C789 C63 1.773 . S
C824 C221 1.515 . S
C819 C44 1.773 . S
C854 C389 1.597 . S
C849 C101 1.764 . S
C879 C82 1.764 . S
C884 C473 1.597 . S
C914 C462 1.515 . S
C909 C139 1.770 . S
C939 C120 1.771 . S
C944 C378 1.515 . S
C974 C208 1.540 . S
C969 C11 1.467 . S
C1004 C292 1.541 . S
C999 C30 1.467 . S
C1029 C49 1.461 . S
C1034 C299 1.509 . S
C1064 C215 1.509 . S
C1059 C68 1.461 . S
C1094 C387 1.540 . S
C1089 C87 1.422 . S
C1119 C106 1.423 . S
C1124 C471 1.541 . S
C1149 C125 1.421 . S
C1154 C478 1.509 . S
C1179 C144 1.420 . S
C1184 C394 1.509 . S
