# Generated by pormake.
# Topology tsx, (6,3)-cn, num edge types: 1
# Building blocks:
#     Node 0, Type 0, BuildingBlock: FUNLAD_clean_sbu_0, # of connection points: 6
#     Node 1, Type 0, BuildingBlock: FUNLAD_clean_sbu_0, # of connection points: 6
#     Node 2, Type 1, BuildingBlock: INOVEN_clean_linker_0, # of connection points: 3
#     Node 3, Type 1, BuildingBlock: INOVEN_clean_linker_0, # of connection points: 3
#     Node 4, Type 1, BuildingBlock: INOVEN_clean_linker_0, # of connection points: 3
#     Node 5, Type 1, BuildingBlock: INOVEN_clean_linker_0, # of connection points: 3
#     Edge 6, Type (0, 1), BuildingBlock: FUNLAD_clean_linker_1, # of connection points: 2
#     Edge 7, Type (0, 1), BuildingBlock: FUNLAD_clean_linker_1, # of connection points: 2
#     Edge 8, Type (0, 1), BuildingBlock: FUNLAD_clean_linker_1, # of connection points: 2
#     Edge 9, Type (0, 1), BuildingBlock: FUNLAD_clean_linker_1, # of connection points: 2
#     Edge 10, Type (0, 1), BuildingBlock: FUNLAD_clean_linker_1, # of connection points: 2
#     Edge 11, Type (0, 1), BuildingBlock: FUNLAD_clean_linker_1, # of connection points: 2
#     Edge 12, Type (0, 1), BuildingBlock: FUNLAD_clean_linker_1, # of connection points: 2
#     Edge 13, Type (0, 1), BuildingBlock: FUNLAD_clean_linker_1, # of connection points: 2
#     Edge 14, Type (0, 1), BuildingBlock: FUNLAD_clean_linker_1, # of connection points: 2
#     Edge 15, Type (0, 1), BuildingBlock: FUNLAD_clean_linker_1, # of connection points: 2
#     Edge 16, Type (0, 1), BuildingBlock: FUNLAD_clean_linker_1, # of connection points: 2
#     Edge 17, Type (0, 1), BuildingBlock: FUNLAD_clean_linker_1, # of connection points: 2
# Relax obj value: 0.103
# Max RMSD: 0.111
# Mean RMSD: 0.104
data_MOF--net-tsx--node1-FUNLAD_clean_sbu_0--node2-INOVEN_clean_linker_0--edge1-FUNLAD_clean_linker_1
_symmetry_space_group_name_H-M    P1
_symmetry_Int_Tables_number       1
_symmetry_cell_setting            triclinic
loop_
_symmetry_equiv_pos_as_xyz
'x, y, z'
_cell_length_a     20.199282
_cell_length_b     22.306179
_cell_length_c     40.714793
_cell_angle_alpha  91.277962
_cell_angle_beta   101.42976
_cell_angle_gamma 89.434337
loop_
_atom_site_label
_atom_site_type_symbol
_atom_site_fract_x
_atom_site_fract_y
_atom_site_fract_z
_atom_type_partial_charge
C0 C 0.92217 0.94772 -0.00184 0.0
N1 N 0.03111 0.04449 0.08014 0.0
C2 C 0.97431 0.04555 0.09333 0.0
C3 C 0.97906 0.05015 0.12792 0.0
C4 C 0.04271 0.05363 0.14923 0.0
C5 C 0.10063 0.05287 0.13486 0.0
C6 C 0.09353 0.04804 0.1001 0.0
Zn7 Zn 0.02213 0.03969 0.02947 0.0
C8 C 0.11858 0.95106 0.00867 0.0
N9 N 0.0031 0.03068 0.92326 0.0
C10 C 0.94056 0.02872 0.90329 0.0
C11 C 0.05975 0.03139 0.90995 0.0
C12 C 0.05474 0.03047 0.87526 0.0
C13 C 0.99094 0.02944 0.85401 0.0
C14 C 0.9332 0.02798 0.86843 0.0
Zn15 Zn 0.01233 0.03422 0.97412 0.0
O16 O 0.94754 0.97319 0.02595 0.0
C17 C 0.91671 0.12306 0.99529 0.0
O18 O 0.94122 0.96296 0.97162 0.0
H19 H 0.10898 0.03292 0.92627 0.0
H20 H 0.92515 0.04299 0.07699 0.0
H21 H 0.89622 0.02773 0.91441 0.0
O22 O 0.94644 0.10693 0.02422 0.0
O23 O 0.93323 0.09906 0.96947 0.0
H24 H 0.13799 0.04746 0.08904 0.0
O25 O 0.08372 0.10548 0.97747 0.0
O26 O 0.09584 0.10659 0.03228 0.0
O27 O 0.09168 0.96972 0.97976 0.0
O28 O 0.09865 0.9722 0.0343 0.0
C29 C 0.11132 0.12709 0.00601 0.0
H30 H 0.9332 0.05064 0.13794 0.0
H31 H 0.15098 0.05642 0.14984 0.0
H32 H 0.10042 0.03105 0.86511 0.0
H33 H 0.8829 0.02531 0.85323 0.0
C34 C 0.41535 0.37711 0.50135 0.0
N35 N 0.53319 0.4608 0.58581 0.0
C36 C 0.47703 0.45789 0.59943 0.0
C37 C 0.48218 0.46387 0.634 0.0
C38 C 0.54548 0.47361 0.65474 0.0
C39 C 0.60308 0.4738 0.64017 0.0
C40 C 0.59564 0.4674 0.60544 0.0
Zn41 Zn 0.52165 0.46177 0.53496 0.0
C42 C 0.61132 0.3767 0.50872 0.0
N43 N 0.49255 0.46841 0.4285 0.0
C44 C 0.42962 0.47279 0.40915 0.0
C45 C 0.54846 0.4668 0.41456 0.0
C46 C 0.54241 0.46988 0.37989 0.0
C47 C 0.47793 0.47432 0.35922 0.0
C48 C 0.42123 0.47595 0.37435 0.0
Zn49 Zn 0.50448 0.46607 0.47947 0.0
O50 O 0.45019 0.39181 0.52989 0.0
C51 C 0.41553 0.5515 0.50656 0.0
O52 O 0.42609 0.40225 0.47525 0.0
H53 H 0.59807 0.46381 0.43042 0.0
H54 H 0.42784 0.45263 0.58338 0.0
H55 H 0.38585 0.47425 0.42075 0.0
O56 O 0.44342 0.52619 0.53341 0.0
O57 O 0.43245 0.53623 0.47908 0.0
H58 H 0.63965 0.46908 0.59409 0.0
O59 O 0.58211 0.53125 0.48435 0.0
O60 O 0.5924 0.53176 0.53906 0.0
O61 O 0.57722 0.39542 0.48111 0.0
O62 O 0.60016 0.39832 0.53621 0.0
C63 C 0.60935 0.55211 0.51309 0.0
H64 H 0.43673 0.46275 0.64432 0.0
H65 H 0.65331 0.47906 0.65516 0.0
H66 H 0.58806 0.47005 0.36983 0.0
H67 H 0.37072 0.47979 0.35937 0.0
H68 H 0.0791 0.94099 0.48655 0.0
H69 H 0.19871 0.94493 0.40983 0.0
H70 H 0.03857 0.07277 0.40982 0.0
N71 N 0.99949 0.03306 0.46406 0.0
N72 N 0.98404 0.08721 0.46145 0.0
C73 C 0.09098 0.96032 0.46427 0.0
C74 C 0.1444 0.9372 0.45008 0.0
C75 C 0.05373 0.01003 0.45009 0.0
C76 C 0.0683 0.03512 0.42101 0.0
C77 C 0.11947 0.01084 0.40593 0.0
C78 C 0.15882 0.96358 0.42137 0.0
H79 H 0.96515 0.94313 0.51133 0.0
H80 H 0.85145 0.92185 0.5894 0.0
H81 H 0.99006 0.06772 0.59467 0.0
N82 N 0.03372 0.03804 0.53854 0.0
N83 N 0.04542 0.09241 0.5441 0.0
C84 C 0.95101 0.95847 0.53445 0.0
C85 C 0.90139 0.92785 0.54709 0.0
C86 C 0.98224 0.00924 0.55128 0.0
C87 C 0.9653 0.02871 0.58163 0.0
C88 C 0.91869 0.99656 0.59564 0.0
C89 C 0.88601 0.94711 0.57793 0.0
H90 H 0.57761 0.54113 -0.00015 0.0
H91 H 0.67997 0.48008 0.92197 0.0
H92 H 0.54359 0.62935 0.90484 0.0
N93 N 0.51082 0.63128 0.9659 0.0
N94 N 0.48968 0.67698 0.94988 0.0
C95 C 0.5877 0.54519 0.97487 0.0
C96 C 0.63159 0.50423 0.96331 0.0
C97 C 0.55599 0.59077 0.95402 0.0
C98 C 0.56821 0.59476 0.92124 0.0
C99 C 0.612 0.55408 0.90953 0.0
C100 C 0.64483 0.51033 0.93095 0.0
H101 H 0.44058 0.54287 0.0086 0.0
H102 H 0.41631 0.44241 0.09448 0.0
H103 H 0.54639 0.59565 0.10705 0.0
N104 N 0.52832 0.62102 0.04206 0.0
N105 N 0.58881 0.6334 0.05287 0.0
C106 C 0.45128 0.53628 0.03544 0.0
C107 C 0.42109 0.48885 0.04905 0.0
C108 C 0.49714 0.57418 0.05624 0.0
C109 C 0.51168 0.56564 0.09099 0.0
C110 C 0.48031 0.51987 0.10517 0.0
C111 C 0.43635 0.48071 0.08396 0.0
H112 H 0.18454 0.18999 0.0348 0.0
C113 C 0.15983 0.17672 0.00949 0.0
H114 H 0.14543 0.19771 0.95812 0.0
H115 H 0.22362 0.46857 0.00435 0.0
H116 H 0.10662 0.47974 0.97565 0.0
H117 H 0.03882 0.39122 0.9531 0.0
H118 H 0.08739 0.29103 0.95906 0.0
C119 C 0.17188 0.20804 0.98352 0.0
C120 C 0.21621 0.26169 0.99006 0.0
C121 C 0.18733 0.31984 0.9857 0.0
C122 C 0.22621 0.37084 -0.0011 0.0
C123 C 0.19591 0.42839 0.99499 0.0
C124 C 0.12899 0.43539 0.97852 0.0
C125 C 0.09083 0.38553 0.96579 0.0
C126 C 0.11928 0.32829 0.96939 0.0
H127 H 0.38803 0.43716 0.00142 0.0
C128 C 0.37793 0.44538 0.0264 0.0
H129 H 0.31507 0.42419 0.06029 0.0
H130 H 0.29051 0.15811 0.99556 0.0
H131 H 0.4082 0.14702 0.02308 0.0
H132 H 0.4744 0.23478 0.04825 0.0
H133 H 0.42403 0.3341 0.04547 0.0
C134 C 0.32906 0.4142 0.03634 0.0
C135 C 0.29371 0.36347 0.01625 0.0
C136 C 0.32429 0.30582 0.01811 0.0
C137 C 0.28565 0.25496 0.00455 0.0
C138 C 0.31731 0.1979 0.00634 0.0
C139 C 0.3848 0.191 0.02188 0.0
C140 C 0.42212 0.24043 0.03597 0.0
C141 C 0.39253 0.29727 0.03419 0.0
H142 H 0.1974 0.89356 0.03815 0.0
C143 C 0.17329 0.90577 0.01287 0.0
H144 H 0.16914 0.89015 0.96113 0.0
H145 H 0.48046 0.79731 0.01351 0.0
H146 H 0.50604 0.90187 0.02811 0.0
H147 H 0.41465 0.97701 0.0251 0.0
H148 H 0.29727 0.94799 0.00803 0.0
C149 C 0.19418 0.8799 0.98656 0.0
C150 C 0.24961 0.83452 0.99091 0.0
C151 C 0.31797 0.85264 0.00041 0.0
C152 C 0.3708 0.80978 0.00096 0.0
C153 C 0.43858 0.82855 0.01151 0.0
C154 C 0.45391 0.88829 0.02018 0.0
C155 C 0.40244 0.93055 0.01858 0.0
C156 C 0.3352 0.91323 0.0088 0.0
H157 H 0.43113 0.75834 0.94541 0.0
C158 C 0.44272 0.71791 0.95989 0.0
H159 H 0.41752 0.66581 -0.00165 0.0
H160 H 0.12425 0.78401 0.97535 0.0
H161 H 0.09898 0.67898 0.96202 0.0
H162 H 0.1906 0.60505 0.96186 0.0
H163 H 0.30797 0.63556 0.975 0.0
C164 C 0.40954 0.70735 0.98473 0.0
C165 C 0.35524 0.74941 0.99089 0.0
C166 C 0.28698 0.73057 0.98357 0.0
C167 C 0.23411 0.77325 0.98347 0.0
C168 C 0.1663 0.75347 0.97555 0.0
C169 C 0.15111 0.69334 0.96792 0.0
C170 C 0.2027 0.65171 0.96784 0.0
C171 C 0.26991 0.66986 0.97543 0.0
H172 H 0.87473 0.86131 0.9797 0.0
C173 C 0.87379 0.89847 -0.00268 0.0
H174 H 0.8316 0.93579 0.03635 0.0
H175 H 0.64964 0.68874 0.98014 0.0
H176 H 0.62616 0.73295 0.92521 0.0
H177 H 0.67539 0.8304 0.9158 0.0
H178 H 0.75024 0.88288 0.96101 0.0
C179 C 0.83205 0.8977 0.01925 0.0
C180 C 0.79421 0.84307 0.02502 0.0
C181 C 0.74662 0.81536 -0.00116 0.0
C182 C 0.71379 0.76166 0.0049 0.0
C183 C 0.67206 0.73167 0.97753 0.0
C184 C 0.65878 0.75626 0.94574 0.0
C185 C 0.68682 0.81092 0.94041 0.0
C186 C 0.73025 0.84032 0.96654 0.0
H187 H 0.58847 0.71774 0.02722 0.0
C188 C 0.61959 0.68208 0.04016 0.0
H189 H 0.71638 0.64834 0.0586 0.0
H190 H 0.88524 0.88229 0.08069 0.0
H191 H 0.90099 0.84271 0.13644 0.0
H192 H 0.83437 0.75668 0.14832 0.0
H193 H 0.7526 0.70912 0.10433 0.0
C194 C 0.68708 0.68472 0.04538 0.0
C195 C 0.72375 0.73886 0.03783 0.0
C196 C 0.76975 0.76766 0.06422 0.0
C197 C 0.80608 0.81887 0.05766 0.0
C198 C 0.85427 0.84465 0.08425 0.0
C199 C 0.86424 0.82217 0.11648 0.0
C200 C 0.82691 0.77366 0.12314 0.0
C201 C 0.78023 0.74657 0.09749 0.0
H202 H 0.8454 0.18647 0.96606 0.0
C203 C 0.86625 0.17182 0.99133 0.0
H204 H 0.86895 0.18769 0.04314 0.0
H205 H 0.79432 0.45442 0.98049 0.0
H206 H 0.9162 0.46202 0.98984 0.0
H207 H 0.98894 0.3759 0.0106 0.0
H208 H 0.93995 0.28117 0.0214 0.0
C209 C 0.84868 0.20097 0.01758 0.0
C210 C 0.8054 0.25543 0.01207 0.0
C211 C 0.83477 0.31113 0.00725 0.0
C212 C 0.79277 0.36114 0.99615 0.0
C213 C 0.82354 0.41524 0.9896 0.0
C214 C 0.89359 0.42022 0.9948 0.0
C215 C 0.93456 0.37171 0.00639 0.0
C216 C 0.90579 0.31761 0.01246 0.0
H217 H 0.68093 0.46422 0.01173 0.0
C218 C 0.66473 0.45547 0.98499 0.0
H219 H 0.65729 0.39128 0.94549 0.0
H220 H 0.73435 0.15738 0.02384 0.0
H221 H 0.61212 0.15041 0.01687 0.0
H222 H 0.53904 0.23742 -0.00192 0.0
H223 H 0.58757 0.33215 0.9865 0.0
C224 C 0.67763 0.40187 0.97171 0.0
C225 C 0.72148 0.35543 0.99068 0.0
C226 C 0.69249 0.30103 -0.00191 0.0
C227 C 0.73458 0.2509 0.00887 0.0
C228 C 0.70439 0.19668 0.01548 0.0
C229 C 0.63447 0.19217 0.01164 0.0
C230 C 0.59329 0.24119 0.00109 0.0
C231 C 0.62169 0.29514 0.99437 0.0
H232 H 0.67672 0.61937 0.54204 0.0
C233 C 0.65772 0.6018 0.51683 0.0
H234 H 0.65559 0.61258 0.46517 0.0
H235 H 0.71418 0.89125 0.49012 0.0
H236 H 0.60476 0.89132 0.45241 0.0
H237 H 0.5454 0.79645 0.43433 0.0
H238 H 0.59526 0.701 0.45356 0.0
C239 C 0.67586 0.62815 0.49062 0.0
C240 C 0.71703 0.68377 0.49607 0.0
C241 C 0.6874 0.739 0.48419 0.0
C242 C 0.72104 0.79371 0.49505 0.0
C243 C 0.69021 0.84842 0.48306 0.0
C244 C 0.62757 0.84909 0.46133 0.0
C245 C 0.59419 0.79567 0.45112 0.0
C246 C 0.62342 0.74115 0.46237 0.0
H247 H 0.89691 0.85034 0.51155 0.0
C248 C 0.87036 0.87324 0.52901 0.0
H249 H 0.78118 0.87463 0.54888 0.0
H250 H 0.79442 0.58521 0.51633 0.0
H251 H 0.90382 0.58449 0.55414 0.0
H252 H 0.95828 0.67918 0.57696 0.0
H253 H 0.90481 0.77476 0.56164 0.0
C254 C 0.81184 0.85034 0.53391 0.0
C255 C 0.78384 0.79305 0.51792 0.0
C256 C 0.81557 0.73753 0.52806 0.0
C257 C 0.78277 0.68283 0.51632 0.0
C258 C 0.8162 0.62791 0.52567 0.0
C259 C 0.87908 0.6269 0.54715 0.0
C260 C 0.90983 0.68021 0.55989 0.0
C261 C 0.87862 0.73496 0.55067 0.0
H262 H 0.70879 0.33478 0.53055 0.0
C263 C 0.66712 0.33363 0.50908 0.0
H264 H 0.62682 0.2944 0.46204 0.0
H265 H 0.89614 0.22241 0.41799 0.0
H266 H 0.84435 0.29058 0.37492 0.0
H267 H 0.74148 0.34743 0.38006 0.0
H268 H 0.68922 0.33558 0.42797 0.0
C269 C 0.66889 0.29538 0.48333 0.0
C270 C 0.73105 0.26031 0.48079 0.0
C271 C 0.76214 0.26919 0.45294 0.0
C272 C 0.82295 0.2382 0.45061 0.0
C273 C 0.85122 0.24613 0.42177 0.0
C274 C 0.82181 0.28499 0.39666 0.0
C275 C 0.76383 0.31685 0.39951 0.0
C276 C 0.73417 0.30931 0.42721 0.0
H277 H 0.88703 0.08118 0.4765 0.0
C278 C 0.92673 0.11095 0.47232 0.0
H279 H 0.96011 0.1986 0.46935 0.0
H280 H 0.67844 0.2235 0.5341 0.0
H281 H 0.73396 0.16024 0.57918 0.0
H282 H 0.84709 0.11779 0.5791 0.0
H283 H 0.90425 0.13639 0.53331 0.0
C284 C 0.91957 0.17057 0.47428 0.0
C285 C 0.85419 0.20009 0.47676 0.0
C286 C 0.82349 0.19158 0.50478 0.0
C287 C 0.76046 0.21977 0.5061 0.0
C288 C 0.72813 0.20629 0.53286 0.0
C289 C 0.75916 0.16956 0.55874 0.0
C290 C 0.82269 0.14534 0.55859 0.0
C291 C 0.85472 0.15604 0.532 0.0
H292 H 0.31563 0.34104 0.47808 0.0
C293 C 0.35813 0.33593 0.49888 0.0
H294 H 0.39826 0.2916 0.54349 0.0
H295 H 0.13339 0.23233 0.59164 0.0
H296 H 0.1928 0.29613 0.63642 0.0
H297 H 0.2965 0.34875 0.63059 0.0
H298 H 0.34201 0.33685 0.58026 0.0
C299 C 0.35535 0.29618 0.52284 0.0
C300 C 0.29133 0.26545 0.52517 0.0
C301 C 0.26407 0.27465 0.55448 0.0
C302 C 0.20282 0.24624 0.55732 0.0
C303 C 0.17858 0.25406 0.58755 0.0
C304 C 0.21234 0.2905 0.61363 0.0
C305 C 0.27078 0.31997 0.61038 0.0
C306 C 0.29654 0.31239 0.58128 0.0
H307 H 0.1395 0.0923 0.52606 0.0
C308 C 0.09988 0.11993 0.53333 0.0
H309 H 0.0645 0.20609 0.54208 0.0
H310 H 0.33394 0.23038 0.46762 0.0
H311 H 0.26853 0.17541 0.42028 0.0
H312 H 0.15408 0.13992 0.42171 0.0
H313 H 0.10584 0.15581 0.47132 0.0
C314 C 0.10447 0.17974 0.53429 0.0
C315 C 0.16736 0.21061 0.53031 0.0
C316 C 0.19299 0.20364 0.50039 0.0
C317 C 0.25656 0.22874 0.49843 0.0
C318 C 0.28396 0.21597 0.46959 0.0
C319 C 0.24726 0.18387 0.44236 0.0
C320 C 0.18302 0.16336 0.44329 0.0
C321 C 0.1561 0.17261 0.47197 0.0
H322 H 0.35212 0.6096 0.53227 0.0
C323 C 0.36588 0.5997 0.50822 0.0
H324 H 0.35239 0.62357 0.45741 0.0
H325 H 0.07848 0.76366 0.4488 0.0
H326 H 0.03925 0.67253 0.41776 0.0
H327 H 0.11528 0.58536 0.4175 0.0
H328 H 0.23128 0.58902 0.44807 0.0
C329 C 0.34038 0.63355 0.48183 0.0
C330 C 0.29334 0.68427 0.48477 0.0
C331 C 0.2253 0.68095 0.46739 0.0
C332 C 0.18121 0.73094 0.46791 0.0
C333 C 0.11406 0.72696 0.4495 0.0
C334 C 0.09083 0.67485 0.43157 0.0
C335 C 0.13364 0.62578 0.43141 0.0
C336 C 0.20014 0.62853 0.44903 0.0
H337 H 0.23449 0.87917 0.45594 0.0
C338 C 0.18586 0.8847 0.46339 0.0
H339 H 0.1143 0.84153 0.48623 0.0
H340 H 0.42171 0.70713 0.52013 0.0
H341 H 0.45837 0.79578 0.55398 0.0
H342 H 0.37892 0.87891 0.55846 0.0
H343 H 0.26241 0.87412 0.52836 0.0
C344 C 0.1644 0.84025 0.48035 0.0
C345 C 0.20532 0.78409 0.48588 0.0
C346 C 0.2719 0.7858 0.50522 0.0
C347 C 0.31663 0.73657 0.50395 0.0
C348 C 0.3845 0.74183 0.52133 0.0
C349 C 0.40644 0.79277 0.5407 0.0
C350 C 0.36181 0.83967 0.54312 0.0
C351 C 0.29529 0.83652 0.52559 0.0
H352 H 0.99818 0.06334 0.19442 0.0
C353 C 0.0457 0.05724 0.18596 0.0
H354 H 0.15127 0.04343 0.2028 0.0
H355 H 0.14605 0.14709 0.3489 0.0
H356 H 0.20674 0.22607 0.32748 0.0
H357 H 0.21847 0.22476 0.26828 0.0
H358 H 0.16971 0.14441 0.23011 0.0
C359 C 0.10219 0.0496 0.20933 0.0
C360 C 0.09875 0.0485 0.24541 0.0
C361 C 0.12813 0.09548 0.26736 0.0
C362 C 0.12154 0.09621 0.30149 0.0
C363 C 0.15025 0.14412 0.32282 0.0
C364 C 0.18499 0.1898 0.31083 0.0
C365 C 0.19157 0.18907 0.27748 0.0
C366 C 0.16341 0.14268 0.25585 0.0
H367 H 0.17819 0.02023 0.36589 0.0
C368 C 0.1298 0.0302 0.37275 0.0
H369 H 0.0281 0.05472 0.35398 0.0
H370 H 0.04559 0.94681 0.21127 0.0
H371 H 0.98598 0.86769 0.23282 0.0
H372 H 0.97071 0.87103 0.29147 0.0
H373 H 0.0155 0.9533 0.32891 0.0
C374 C 0.07868 0.04955 0.34897 0.0
C375 C 0.08575 0.04989 0.31345 0.0
C376 C 0.05752 0.00225 0.29169 0.0
C377 C 0.06499 1.001 0.25774 0.0
C378 C 0.03928 0.95129 0.23697 0.0
C379 C 0.00544 0.90519 0.24911 0.0
C380 C 0.99694 0.90702 0.28212 0.0
C381 C 0.0228 0.95468 0.30332 0.0
H382 H 0.03219 0.01399 0.80813 0.0
C383 C 0.98704 0.02769 0.8172 0.0
H384 H 0.88716 0.06119 0.80241 0.0
H385 H 0.93725 0.14565 0.66165 0.0
H386 H 0.92435 0.24121 0.68955 0.0
H387 H 0.91537 0.24581 0.74912 0.0
H388 H 0.91886 0.15494 0.78115 0.0
C389 C 0.9318 0.04317 0.7946 0.0
C390 C 0.9323 0.04008 0.7581 0.0
C391 C 0.93002 0.09364 0.7398 0.0
C392 C 0.93592 0.09108 0.70556 0.0
C393 C 0.93354 0.14518 0.68781 0.0
C394 C 0.92608 0.20028 0.70349 0.0
C395 C 0.92097 0.20286 0.73703 0.0
C396 C 0.923 0.15034 0.75512 0.0
H397 H 0.859 0.99526 0.63573 0.0
C398 C 0.90608 0.01053 0.62967 0.0
H399 H 0.00263 0.04663 0.64999 0.0
H400 H 0.92702 0.9285 0.78433 0.0
H401 H 0.94174 0.83319 0.7568 0.0
H402 H 0.96049 0.82909 0.69873 0.0
H403 H 0.96332 0.92004 0.6677 0.0
C404 C 0.95395 0.0328 0.65455 0.0
C405 C 0.94417 0.03506 0.68977 0.0
C406 C 0.94527 0.98133 0.70792 0.0
C407 C 0.93765 0.9838 0.74188 0.0
C408 C 0.93541 0.92938 0.75892 0.0
C409 C 0.94332 0.87429 0.74334 0.0
C410 C 0.95363 0.87198 0.71062 0.0
C411 C 0.95475 0.92466 0.69301 0.0
H412 H 0.50564 0.47048 0.70144 0.0
C413 C 0.54891 0.48386 0.69115 0.0
H414 H 0.642 0.53031 0.7019 0.0
H415 H 0.57431 0.67174 0.82719 0.0
H416 H 0.5791 0.75211 0.78849 0.0
H417 H 0.59126 0.72975 0.73035 0.0
H418 H 0.59925 0.62707 0.7106 0.0
C419 C 0.60019 0.51216 0.71154 0.0
C420 C 0.59703 0.52554 0.74715 0.0
C421 C 0.59217 0.58592 0.75816 0.0
C422 C 0.58424 0.59886 0.79151 0.0
C423 C 0.57987 0.65948 0.802 0.0
C424 C 0.58256 0.70601 0.78006 0.0
C425 C 0.58946 0.69342 0.74734 0.0
C426 C 0.5941 0.63421 0.73634 0.0
H427 H 0.66986 0.53545 0.86971 0.0
C428 C 0.6225 0.55369 0.87459 0.0
H429 H 0.52349 0.58129 0.85214 0.0
H430 H 0.61593 0.4055 0.73581 0.0
H431 H 0.60746 0.32514 0.77387 0.0
H432 H 0.58339 0.34707 0.83001 0.0
H433 H 0.5692 0.44938 0.84865 0.0
C434 C 0.5724 0.5651 0.84845 0.0
C435 C 0.58085 0.55146 0.81365 0.0
C436 C 0.58568 0.49102 0.80265 0.0
C437 C 0.59584 0.47816 0.76968 0.0
C438 C 0.60495 0.41768 0.76004 0.0
C439 C 0.60075 0.3711 0.78174 0.0
C440 C 0.58749 0.38346 0.81338 0.0
C441 C 0.57992 0.44256 0.82384 0.0
H442 H 0.41823 0.49454 0.30897 0.0
C443 C 0.46761 0.47966 0.3222 0.0
H444 H 0.56361 0.4478 0.31569 0.0
H445 H 0.4663 0.37537 0.1632 0.0
H446 H 0.48503 0.27765 0.1885 0.0
H447 H 0.51063 0.26804 0.24998 0.0
H448 H 0.518 0.3561 0.28654 0.0
C449 C 0.51513 0.46663 0.30413 0.0
C450 C 0.50074 0.4729 0.26708 0.0
C451 C 0.49646 0.42094 0.2461 0.0
C452 C 0.4809 0.42642 0.21067 0.0
C453 C 0.47732 0.37378 0.19028 0.0
C454 C 0.48805 0.31739 0.20447 0.0
C455 C 0.50253 0.31199 0.23908 0.0
C456 C 0.5067 0.36295 0.25978 0.0
H457 H 0.54277 0.53208 0.1561 0.0
C458 C 0.49573 0.51335 0.14214 0.0
H459 H 0.40441 0.47087 0.14635 0.0
H460 H 0.51327 0.5821 0.29997 0.0
H461 H 0.49093 0.67952 0.27477 0.0
H462 H 0.45589 0.68853 0.21349 0.0
H463 H 0.44427 0.60029 0.17705 0.0
C464 C 0.45253 0.48887 0.15923 0.0
C465 C 0.46958 0.48383 0.19631 0.0
C466 C 0.47356 0.53586 0.21729 0.0
C467 C 0.49068 0.53047 0.2527 0.0
C468 C 0.49782 0.58334 0.273 0.0
C469 C 0.48556 0.63963 0.25885 0.0
C470 C 0.46608 0.64472 0.22435 0.0
C471 C 0.46 0.59364 0.20369 0.0
loop_
_geom_bond_atom_site_label_1
_geom_bond_atom_site_label_2
_geom_bond_distance
_geom_bond_site_symmetry_2
_ccdc_geom_bond_type
C0 O16 1.251 . S
C0 O18 1.254 1_554 S
N1 C2 1.333 1_445 S
N1 C6 1.307 . S
N1 Zn7 2.020 . S
C2 N1 1.333 1_665 S
C2 C3 1.379 . S
C2 H20 0.952 . S
C3 C2 1.379 . S
C3 C4 1.390 1_665 S
C3 H30 0.949 . S
C4 C3 1.390 1_445 S
C4 C5 1.357 . S
C5 C4 1.357 . S
C5 C6 1.370 . S
C5 H31 0.950 . S
C6 N1 1.307 . S
C6 C5 1.370 . S
C6 H24 0.948 . S
Zn7 N1 2.020 . S
Zn7 O16 2.039 1_445 S
Zn7 O22 2.034 1_455 S
Zn7 O26 2.025 . S
Zn7 O28 2.024 1_545 S
C8 O27 1.246 1_554 S
C8 O28 1.249 . S
N9 C10 1.314 1_545 S
N9 C11 1.324 1_655 S
N9 Zn15 2.021 1_655 S
C10 N9 1.314 1_565 S
C10 C14 1.370 . S
C10 H21 0.948 . S
C11 N9 1.324 1_455 S
C11 C12 1.379 . S
C11 H19 0.952 . S
C12 C11 1.379 . S
C12 C13 1.390 1_455 S
C12 H32 0.949 . S
C13 C12 1.390 1_655 S
C13 C14 1.357 1_545 S
C14 C10 1.370 . S
C14 C13 1.357 1_565 S
C14 H33 0.950 . S
Zn15 N9 2.021 1_455 S
Zn15 O18 2.025 1_445 S
Zn15 O23 2.024 1_455 S
Zn15 O25 2.039 . S
Zn15 O27 2.034 1_545 S
O16 C0 1.251 . S
O16 Zn7 2.039 1_665 S
C17 O22 1.246 . S
C17 O23 1.249 1_554 S
O18 C0 1.254 1_556 S
O18 Zn15 2.025 1_665 S
H19 C11 0.952 . S
H20 C2 0.952 . S
H21 C10 0.948 . S
O22 Zn7 2.034 1_655 S
O22 C17 1.246 . S
O23 Zn15 2.024 1_655 S
O23 C17 1.249 1_556 S
H24 C6 0.948 . S
O25 Zn15 2.039 . S
O25 C29 1.251 1_556 S
O26 Zn7 2.025 . S
O26 C29 1.254 . S
O27 C8 1.246 1_556 S
O27 Zn15 2.034 1_565 S
O28 Zn7 2.024 1_565 S
O28 C8 1.249 . S
C29 O25 1.251 1_554 S
C29 O26 1.254 . S
H30 C3 0.949 . S
H31 C5 0.950 . S
H32 C12 0.949 . S
H33 C14 0.950 . S
C34 O50 1.251 . S
C34 O52 1.254 . S
N35 C36 1.333 . S
N35 C40 1.307 . S
N35 Zn41 2.020 . S
C36 N35 1.333 . S
C36 C37 1.379 . S
C36 H54 0.952 . S
C37 C36 1.379 . S
C37 C38 1.390 . S
C37 H64 0.949 . S
C38 C37 1.390 . S
C38 C39 1.357 . S
C39 C38 1.357 . S
C39 C40 1.370 . S
C39 H65 0.950 . S
C40 N35 1.307 . S
C40 C39 1.370 . S
C40 H58 0.948 . S
Zn41 N35 2.020 . S
Zn41 O50 2.039 . S
Zn41 O56 2.034 . S
Zn41 O60 2.025 . S
Zn41 O62 2.024 . S
C42 O61 1.246 . S
C42 O62 1.249 . S
N43 C44 1.307 . S
N43 C45 1.333 . S
N43 Zn49 2.020 . S
C44 N43 1.307 . S
C44 C48 1.370 . S
C44 H55 0.948 . S
C45 N43 1.333 . S
C45 C46 1.379 . S
C45 H53 0.952 . S
C46 C45 1.379 . S
C46 C47 1.390 . S
C46 H66 0.949 . S
C47 C46 1.390 . S
C47 C48 1.357 . S
C48 C44 1.370 . S
C48 C47 1.357 . S
C48 H67 0.950 . S
Zn49 N43 2.020 . S
Zn49 O52 2.025 . S
Zn49 O57 2.024 . S
Zn49 O59 2.039 . S
Zn49 O61 2.034 . S
O50 C34 1.251 . S
O50 Zn41 2.039 . S
C51 O56 1.246 . S
C51 O57 1.249 . S
O52 C34 1.254 . S
O52 Zn49 2.025 . S
H53 C45 0.952 . S
H54 C36 0.952 . S
H55 C44 0.948 . S
O56 Zn41 2.034 . S
O56 C51 1.246 . S
O57 Zn49 2.024 . S
O57 C51 1.249 . S
H58 C40 0.948 . S
O59 Zn49 2.039 . S
O59 C63 1.251 . S
O60 Zn41 2.025 . S
O60 C63 1.254 . S
O61 C42 1.246 . S
O61 Zn49 2.034 . S
O62 Zn41 2.024 . S
O62 C42 1.249 . S
C63 O59 1.251 . S
C63 O60 1.254 . S
H64 C37 0.949 . S
H65 C39 0.950 . S
H66 C46 0.949 . S
H67 C48 0.950 . S
H68 C73 0.929 . S
H69 C78 0.931 . S
H70 C76 0.930 1_655 S
N71 N72 1.234 . S
N71 C75 1.453 1_655 S
N72 N71 1.234 . S
C73 H68 0.929 . S
C73 C74 1.373 . S
C73 C75 1.368 1_565 S
C74 C73 1.373 . S
C74 C78 1.397 . S
C75 N71 1.453 1_455 S
C75 C73 1.368 1_545 S
C75 C76 1.373 . S
C76 H70 0.930 1_455 S
C76 C75 1.373 . S
C76 C77 1.371 . S
C77 C76 1.371 . S
C77 C78 1.383 1_545 S
C78 H69 0.931 . S
C78 C74 1.397 . S
C78 C77 1.383 1_565 S
H79 C84 0.929 . S
H80 C89 0.931 . S
H81 C87 0.930 . S
N82 N83 1.234 . S
N82 C86 1.453 . S
N83 N82 1.234 . S
C84 H79 0.929 . S
C84 C85 1.373 . S
C84 C86 1.368 1_665 S
C85 C84 1.373 . S
C85 C89 1.397 . S
C86 N82 1.453 . S
C86 C84 1.368 1_445 S
C86 C87 1.373 . S
C87 H81 0.930 . S
C87 C86 1.373 . S
C87 C88 1.371 1_455 S
C88 C87 1.371 1_655 S
C88 C89 1.383 1_545 S
C89 H80 0.931 . S
C89 C85 1.397 . S
C89 C88 1.383 1_565 S
H90 C95 0.929 1_554 S
H91 C100 0.931 . S
H92 C98 0.930 . S
N93 N94 1.234 . S
N93 C97 1.453 . S
N94 N93 1.234 . S
C95 H90 0.929 1_556 S
C95 C96 1.373 . S
C95 C97 1.368 . S
C96 C95 1.373 . S
C96 C100 1.397 . S
C97 N93 1.453 . S
C97 C95 1.368 . S
C97 C98 1.373 . S
C98 H92 0.930 . S
C98 C97 1.373 . S
C98 C99 1.371 . S
C99 C98 1.371 . S
C99 C100 1.383 . S
C100 H91 0.931 . S
C100 C96 1.397 . S
C100 C99 1.383 . S
H101 C106 0.929 1_556 S
H102 C111 0.931 . S
H103 C109 0.930 . S
N104 N105 1.234 . S
N104 C108 1.453 . S
N105 N104 1.234 . S
C106 H101 0.929 1_554 S
C106 C107 1.373 . S
C106 C108 1.368 . S
C107 C106 1.373 . S
C107 C111 1.397 . S
C108 N104 1.453 . S
C108 C106 1.368 . S
C108 C109 1.373 . S
C109 H103 0.930 . S
C109 C108 1.373 . S
C109 C110 1.371 . S
C110 C109 1.371 . S
C110 C111 1.383 . S
C111 H102 0.931 . S
C111 C107 1.397 . S
C111 C110 1.383 . S
H112 C113 0.951 . S
C113 H112 0.951 . S
C113 C119 1.265 . S
H114 C119 0.950 . S
H115 C123 0.949 . S
H116 C124 0.950 . S
H117 C125 0.951 . S
H118 C126 0.951 . S
C119 C113 1.265 . S
C119 H114 0.950 . S
C119 C120 1.478 . S
C120 C119 1.478 . S
C120 C121 1.397 1_554 S
C120 C137 1.394 . S
C121 C120 1.397 1_556 S
C121 C122 1.438 . S
C121 C126 1.429 . S
C122 C121 1.438 . S
C122 C123 1.428 . S
C122 C135 1.394 1_556 S
C123 H115 0.949 . S
C123 C122 1.428 . S
C123 C124 1.345 . S
C124 H116 0.950 . S
C124 C123 1.345 . S
C124 C125 1.424 . S
C125 H117 0.951 . S
C125 C124 1.424 . S
C125 C126 1.347 . S
C126 H118 0.951 . S
C126 C121 1.429 . S
C126 C125 1.347 . S
H127 C128 0.951 . S
C128 H127 0.951 . S
C128 C134 1.265 . S
H129 C134 0.950 . S
H130 C138 0.949 . S
H131 C139 0.950 . S
H132 C140 0.951 . S
H133 C141 0.951 . S
C134 C128 1.265 . S
C134 H129 0.950 . S
C134 C135 1.478 . S
C135 C122 1.394 1_554 S
C135 C134 1.478 . S
C135 C136 1.397 . S
C136 C135 1.397 . S
C136 C137 1.438 . S
C136 C141 1.429 . S
C137 C120 1.394 . S
C137 C136 1.438 . S
C137 C138 1.428 . S
C138 H130 0.949 . S
C138 C137 1.428 . S
C138 C139 1.345 . S
C139 H131 0.950 . S
C139 C138 1.345 . S
C139 C140 1.424 . S
C140 H132 0.951 . S
C140 C139 1.424 . S
C140 C141 1.347 . S
C141 H133 0.951 . S
C141 C136 1.429 . S
C141 C140 1.347 . S
H142 C143 0.951 . S
C143 H142 0.951 . S
C143 C149 1.254 1_554 S
H144 C149 0.961 . S
H145 C153 0.949 . S
H146 C154 0.950 . S
H147 C155 0.951 . S
H148 C156 0.951 . S
C149 C143 1.254 1_556 S
C149 H144 0.961 . S
C149 C150 1.479 1_556 S
C150 C149 1.479 1_554 S
C150 C151 1.397 . S
C150 C167 1.394 1_554 S
C151 C150 1.397 . S
C151 C152 1.438 . S
C151 C156 1.429 . S
C152 C151 1.438 . S
C152 C153 1.428 . S
C152 C165 1.394 . S
C153 H145 0.949 . S
C153 C152 1.428 . S
C153 C154 1.345 . S
C154 H146 0.950 . S
C154 C153 1.345 . S
C154 C155 1.424 . S
C155 H147 0.951 . S
C155 C154 1.424 . S
C155 C156 1.347 . S
C156 H148 0.951 . S
C156 C151 1.429 . S
C156 C155 1.347 . S
H157 C158 0.951 . S
C158 H157 0.951 . S
C158 C164 1.265 1_556 S
H159 C164 0.950 . S
H160 C168 0.949 . S
H161 C169 0.950 . S
H162 C170 0.951 . S
H163 C171 0.951 . S
C164 C158 1.265 1_554 S
C164 H159 0.950 . S
C164 C165 1.478 . S
C165 C152 1.394 . S
C165 C164 1.478 . S
C165 C166 1.397 1_554 S
C166 C165 1.397 1_556 S
C166 C167 1.438 . S
C166 C171 1.429 . S
C167 C150 1.394 1_556 S
C167 C166 1.438 . S
C167 C168 1.428 . S
C168 H160 0.949 . S
C168 C167 1.428 . S
C168 C169 1.345 . S
C169 H161 0.950 . S
C169 C168 1.345 . S
C169 C170 1.424 . S
C170 H162 0.951 . S
C170 C169 1.424 . S
C170 C171 1.347 . S
C171 H163 0.951 . S
C171 C166 1.429 . S
C171 C170 1.347 . S
H172 C173 0.951 . S
C173 H172 0.951 . S
C173 C179 1.265 . S
H174 C179 0.950 1_556 S
H175 C183 0.949 . S
H176 C184 0.950 . S
H177 C185 0.951 . S
H178 C186 0.951 . S
C179 C173 1.265 . S
C179 H174 0.950 1_554 S
C179 C180 1.478 . S
C180 C179 1.478 . S
C180 C181 1.397 1_554 S
C180 C197 1.394 . S
C181 C180 1.397 1_556 S
C181 C182 1.438 . S
C181 C186 1.429 . S
C182 C181 1.438 . S
C182 C183 1.428 . S
C182 C195 1.394 1_556 S
C183 H175 0.949 . S
C183 C182 1.428 . S
C183 C184 1.345 . S
C184 H176 0.950 . S
C184 C183 1.345 . S
C184 C185 1.424 . S
C185 H177 0.951 . S
C185 C184 1.424 . S
C185 C186 1.347 . S
C186 H178 0.951 . S
C186 C181 1.429 . S
C186 C185 1.347 . S
H187 C188 0.951 . S
C188 H187 0.951 . S
C188 C194 1.265 . S
H189 C194 0.950 . S
H190 C198 0.949 . S
H191 C199 0.950 . S
H192 C200 0.951 . S
H193 C201 0.951 . S
C194 C188 1.265 . S
C194 H189 0.950 . S
C194 C195 1.478 . S
C195 C182 1.394 1_554 S
C195 C194 1.478 . S
C195 C196 1.397 . S
C196 C195 1.397 . S
C196 C197 1.438 . S
C196 C201 1.429 . S
C197 C180 1.394 . S
C197 C196 1.438 . S
C197 C198 1.428 . S
C198 H190 0.949 . S
C198 C197 1.428 . S
C198 C199 1.345 . S
C199 H191 0.950 . S
C199 C198 1.345 . S
C199 C200 1.424 . S
C200 H192 0.951 . S
C200 C199 1.424 . S
C200 C201 1.347 . S
C201 H193 0.951 . S
C201 C196 1.429 . S
C201 C200 1.347 . S
H202 C203 0.953 1_556 S
C203 H202 0.953 1_554 S
C203 C209 1.263 1_554 S
H204 C209 0.956 1_554 S
H205 C213 0.949 . S
H206 C214 0.950 . S
H207 C215 0.951 . S
H208 C216 0.951 . S
C209 C203 1.263 1_556 S
C209 H204 0.956 1_556 S
C209 C210 1.477 . S
C210 C209 1.477 . S
C210 C211 1.397 . S
C210 C227 1.394 1_556 S
C211 C210 1.397 . S
C211 C212 1.438 . S
C211 C216 1.429 . S
C212 C211 1.438 . S
C212 C213 1.428 . S
C212 C225 1.394 . S
C213 H205 0.949 . S
C213 C212 1.428 . S
C213 C214 1.345 . S
C214 H206 0.950 . S
C214 C213 1.345 . S
C214 C215 1.424 . S
C215 H207 0.951 . S
C215 C214 1.424 . S
C215 C216 1.347 . S
C216 H208 0.951 . S
C216 C211 1.429 . S
C216 C215 1.347 . S
H217 C218 0.951 . S
C218 H217 0.951 . S
C218 C224 1.265 . S
H219 C224 0.950 . S
H220 C228 0.949 . S
H221 C229 0.950 . S
H222 C230 0.951 . S
H223 C231 0.951 . S
C224 C218 1.265 . S
C224 H219 0.950 . S
C224 C225 1.478 . S
C225 C212 1.394 . S
C225 C224 1.478 . S
C225 C226 1.397 1_556 S
C226 C225 1.397 1_554 S
C226 C227 1.438 . S
C226 C231 1.429 . S
C227 C210 1.394 1_554 S
C227 C226 1.438 . S
C227 C228 1.428 . S
C228 H220 0.949 . S
C228 C227 1.428 . S
C228 C229 1.345 . S
C229 H221 0.950 . S
C229 C228 1.345 . S
C229 C230 1.424 . S
C230 H222 0.951 . S
C230 C229 1.424 . S
C230 C231 1.347 . S
C231 H223 0.951 . S
C231 C226 1.429 . S
C231 C230 1.347 . S
H232 C233 0.951 . S
C233 H232 0.951 . S
C233 C239 1.265 . S
H234 C239 0.950 . S
H235 C243 0.949 . S
H236 C244 0.950 . S
H237 C245 0.951 . S
H238 C246 0.951 . S
C239 C233 1.265 . S
C239 H234 0.950 . S
C239 C240 1.478 . S
C240 C239 1.478 . S
C240 C241 1.397 . S
C240 C257 1.394 . S
C241 C240 1.397 . S
C241 C242 1.438 . S
C241 C246 1.429 . S
C242 C241 1.438 . S
C242 C243 1.428 . S
C242 C255 1.394 . S
C243 H235 0.949 . S
C243 C242 1.428 . S
C243 C244 1.345 . S
C244 H236 0.950 . S
C244 C243 1.345 . S
C244 C245 1.424 . S
C245 H237 0.951 . S
C245 C244 1.424 . S
C245 C246 1.347 . S
C246 H238 0.951 . S
C246 C241 1.429 . S
C246 C245 1.347 . S
H247 C248 0.951 . S
C248 H247 0.951 . S
C248 C254 1.265 . S
H249 C254 0.950 . S
H250 C258 0.949 . S
H251 C259 0.950 . S
H252 C260 0.951 . S
H253 C261 0.951 . S
C254 C248 1.265 . S
C254 H249 0.950 . S
C254 C255 1.478 . S
C255 C242 1.394 . S
C255 C254 1.478 . S
C255 C256 1.397 . S
C256 C255 1.397 . S
C256 C257 1.438 . S
C256 C261 1.429 . S
C257 C240 1.394 . S
C257 C256 1.438 . S
C257 C258 1.428 . S
C258 H250 0.949 . S
C258 C257 1.428 . S
C258 C259 1.345 . S
C259 H251 0.950 . S
C259 C258 1.345 . S
C259 C260 1.424 . S
C260 H252 0.951 . S
C260 C259 1.424 . S
C260 C261 1.347 . S
C261 H253 0.951 . S
C261 C256 1.429 . S
C261 C260 1.347 . S
H262 C263 0.951 . S
C263 H262 0.951 . S
C263 C269 1.265 . S
H264 C269 0.950 . S
H265 C273 0.949 . S
H266 C274 0.950 . S
H267 C275 0.951 . S
H268 C276 0.951 . S
C269 C263 1.265 . S
C269 H264 0.950 . S
C269 C270 1.478 . S
C270 C269 1.478 . S
C270 C271 1.397 . S
C270 C287 1.394 . S
C271 C270 1.397 . S
C271 C272 1.438 . S
C271 C276 1.429 . S
C272 C271 1.438 . S
C272 C273 1.428 . S
C272 C285 1.394 . S
C273 H265 0.949 . S
C273 C272 1.428 . S
C273 C274 1.345 . S
C274 H266 0.950 . S
C274 C273 1.345 . S
C274 C275 1.424 . S
C275 H267 0.951 . S
C275 C274 1.424 . S
C275 C276 1.347 . S
C276 H268 0.951 . S
C276 C271 1.429 . S
C276 C275 1.347 . S
H277 C278 0.951 . S
C278 H277 0.951 . S
C278 C284 1.265 . S
H279 C284 0.950 . S
H280 C288 0.949 . S
H281 C289 0.950 . S
H282 C290 0.951 . S
H283 C291 0.951 . S
C284 C278 1.265 . S
C284 H279 0.950 . S
C284 C285 1.478 . S
C285 C272 1.394 . S
C285 C284 1.478 . S
C285 C286 1.397 . S
C286 C285 1.397 . S
C286 C287 1.438 . S
C286 C291 1.429 . S
C287 C270 1.394 . S
C287 C286 1.438 . S
C287 C288 1.428 . S
C288 H280 0.949 . S
C288 C287 1.428 . S
C288 C289 1.345 . S
C289 H281 0.950 . S
C289 C288 1.345 . S
C289 C290 1.424 . S
C290 H282 0.951 . S
C290 C289 1.424 . S
C290 C291 1.347 . S
C291 H283 0.951 . S
C291 C286 1.429 . S
C291 C290 1.347 . S
H292 C293 0.951 . S
C293 H292 0.951 . S
C293 C299 1.265 . S
H294 C299 0.950 . S
H295 C303 0.949 . S
H296 C304 0.950 . S
H297 C305 0.951 . S
H298 C306 0.951 . S
C299 C293 1.265 . S
C299 H294 0.950 . S
C299 C300 1.478 . S
C300 C299 1.478 . S
C300 C301 1.397 . S
C300 C317 1.394 . S
C301 C300 1.397 . S
C301 C302 1.438 . S
C301 C306 1.429 . S
C302 C301 1.438 . S
C302 C303 1.428 . S
C302 C315 1.394 . S
C303 H295 0.949 . S
C303 C302 1.428 . S
C303 C304 1.345 . S
C304 H296 0.950 . S
C304 C303 1.345 . S
C304 C305 1.424 . S
C305 H297 0.951 . S
C305 C304 1.424 . S
C305 C306 1.347 . S
C306 H298 0.951 . S
C306 C301 1.429 . S
C306 C305 1.347 . S
H307 C308 0.951 . S
C308 H307 0.951 . S
C308 C314 1.265 . S
H309 C314 0.950 . S
H310 C318 0.949 . S
H311 C319 0.950 . S
H312 C320 0.951 . S
H313 C321 0.951 . S
C314 C308 1.265 . S
C314 H309 0.950 . S
C314 C315 1.478 . S
C315 C302 1.394 . S
C315 C314 1.478 . S
C315 C316 1.397 . S
C316 C315 1.397 . S
C316 C317 1.438 . S
C316 C321 1.429 . S
C317 C300 1.394 . S
C317 C316 1.438 . S
C317 C318 1.428 . S
C318 H310 0.949 . S
C318 C317 1.428 . S
C318 C319 1.345 . S
C319 H311 0.950 . S
C319 C318 1.345 . S
C319 C320 1.424 . S
C320 H312 0.951 . S
C320 C319 1.424 . S
C320 C321 1.347 . S
C321 H313 0.951 . S
C321 C316 1.429 . S
C321 C320 1.347 . S
H322 C323 0.951 . S
C323 H322 0.951 . S
C323 C329 1.265 . S
H324 C329 0.950 . S
H325 C333 0.949 . S
H326 C334 0.950 . S
H327 C335 0.951 . S
H328 C336 0.951 . S
C329 C323 1.265 . S
C329 H324 0.950 . S
C329 C330 1.478 . S
C330 C329 1.478 . S
C330 C331 1.397 . S
C330 C347 1.394 . S
C331 C330 1.397 . S
C331 C332 1.438 . S
C331 C336 1.429 . S
C332 C331 1.438 . S
C332 C333 1.428 . S
C332 C345 1.394 . S
C333 H325 0.949 . S
C333 C332 1.428 . S
C333 C334 1.345 . S
C334 H326 0.950 . S
C334 C333 1.345 . S
C334 C335 1.424 . S
C335 H327 0.951 . S
C335 C334 1.424 . S
C335 C336 1.347 . S
C336 H328 0.951 . S
C336 C331 1.429 . S
C336 C335 1.347 . S
H337 C338 0.951 . S
C338 H337 0.951 . S
C338 C344 1.265 . S
H339 C344 0.950 . S
H340 C348 0.949 . S
H341 C349 0.950 . S
H342 C350 0.951 . S
H343 C351 0.951 . S
C344 C338 1.265 . S
C344 H339 0.950 . S
C344 C345 1.478 . S
C345 C332 1.394 . S
C345 C344 1.478 . S
C345 C346 1.397 . S
C346 C345 1.397 . S
C346 C347 1.438 . S
C346 C351 1.429 . S
C347 C330 1.394 . S
C347 C346 1.438 . S
C347 C348 1.428 . S
C348 H340 0.949 . S
C348 C347 1.428 . S
C348 C349 1.345 . S
C349 H341 0.950 . S
C349 C348 1.345 . S
C349 C350 1.424 . S
C350 H342 0.951 . S
C350 C349 1.424 . S
C350 C351 1.347 . S
C351 H343 0.951 . S
C351 C346 1.429 . S
C351 C350 1.347 . S
H352 C353 0.951 1_655 S
C353 H352 0.951 1_455 S
C353 C359 1.265 . S
H354 C359 0.950 . S
H355 C363 0.949 . S
H356 C364 0.950 . S
H357 C365 0.951 . S
H358 C366 0.951 . S
C359 C353 1.265 . S
C359 H354 0.950 . S
C359 C360 1.478 . S
C360 C359 1.478 . S
C360 C361 1.397 . S
C360 C377 1.394 1_545 S
C361 C360 1.397 . S
C361 C362 1.438 . S
C361 C366 1.429 . S
C362 C361 1.438 . S
C362 C363 1.428 . S
C362 C375 1.394 . S
C363 H355 0.949 . S
C363 C362 1.428 . S
C363 C364 1.345 . S
C364 H356 0.950 . S
C364 C363 1.345 . S
C364 C365 1.424 . S
C365 H357 0.951 . S
C365 C364 1.424 . S
C365 C366 1.347 . S
C366 H358 0.951 . S
C366 C361 1.429 . S
C366 C365 1.347 . S
H367 C368 0.951 . S
C368 H367 0.951 . S
C368 C374 1.265 . S
H369 C374 0.950 1_655 S
H370 C378 0.949 1_455 S
H371 C379 0.950 . S
H372 C380 0.951 . S
H373 C381 0.951 . S
C374 C368 1.265 . S
C374 H369 0.950 1_455 S
C374 C375 1.478 . S
C375 C362 1.394 . S
C375 C374 1.478 . S
C375 C376 1.397 1_545 S
C376 C375 1.397 1_565 S
C376 C377 1.438 . S
C376 C381 1.429 1_455 S
C377 C360 1.394 1_565 S
C377 C376 1.438 . S
C377 C378 1.428 1_455 S
C378 H370 0.949 1_655 S
C378 C377 1.428 1_655 S
C378 C379 1.345 . S
C379 H371 0.950 . S
C379 C378 1.345 . S
C379 C380 1.424 . S
C380 H372 0.951 . S
C380 C379 1.424 . S
C380 C381 1.347 . S
C381 H373 0.951 . S
C381 C376 1.429 1_655 S
C381 C380 1.347 . S
H382 C383 0.951 . S
C383 H382 0.951 . S
C383 C389 1.265 1_455 S
H384 C389 0.950 . S
H385 C393 0.949 . S
H386 C394 0.950 . S
H387 C395 0.951 . S
H388 C396 0.951 . S
C389 C383 1.265 1_655 S
C389 H384 0.950 . S
C389 C390 1.478 . S
C390 C389 1.478 . S
C390 C391 1.397 . S
C390 C407 1.394 1_645 S
C391 C390 1.397 . S
C391 C392 1.438 . S
C391 C396 1.429 . S
C392 C391 1.438 . S
C392 C393 1.428 . S
C392 C405 1.394 1_655 S
C393 H385 0.949 . S
C393 C392 1.428 . S
C393 C394 1.345 . S
C394 H386 0.950 . S
C394 C393 1.345 . S
C394 C395 1.424 . S
C395 H387 0.951 . S
C395 C394 1.424 . S
C395 C396 1.347 . S
C396 H388 0.951 . S
C396 C391 1.429 . S
C396 C395 1.347 . S
H397 C398 0.951 . S
C398 H397 0.951 . S
C398 C404 1.265 1_655 S
H399 C404 0.947 1_565 S
H400 C408 0.949 1_655 S
H401 C409 0.950 . S
H402 C410 0.951 . S
H403 C411 0.951 . S
C404 C398 1.265 1_455 S
C404 H399 0.947 1_545 S
C404 C405 1.478 . S
C405 C392 1.394 1_455 S
C405 C404 1.478 . S
C405 C406 1.397 1_545 S
C406 C405 1.397 1_565 S
C406 C407 1.438 . S
C406 C411 1.429 . S
C407 C390 1.394 1_465 S
C407 C406 1.438 . S
C407 C408 1.428 . S
C408 H400 0.949 1_455 S
C408 C407 1.428 . S
C408 C409 1.345 . S
C409 H401 0.950 . S
C409 C408 1.345 . S
C409 C410 1.424 . S
C410 H402 0.951 . S
C410 C409 1.424 . S
C410 C411 1.347 . S
C411 H403 0.951 . S
C411 C406 1.429 . S
C411 C410 1.347 . S
H412 C413 0.951 . S
C413 H412 0.951 . S
C413 C419 1.265 . S
H414 C419 0.950 . S
H415 C423 0.949 . S
H416 C424 0.950 . S
H417 C425 0.951 . S
H418 C426 0.951 . S
C419 C413 1.265 . S
C419 H414 0.950 . S
C419 C420 1.478 . S
C420 C419 1.478 . S
C420 C421 1.397 . S
C420 C437 1.394 . S
C421 C420 1.397 . S
C421 C422 1.438 . S
C421 C426 1.429 . S
C422 C421 1.438 . S
C422 C423 1.428 . S
C422 C435 1.394 . S
C423 H415 0.949 . S
C423 C422 1.428 . S
C423 C424 1.345 . S
C424 H416 0.950 . S
C424 C423 1.345 . S
C424 C425 1.424 . S
C425 H417 0.951 . S
C425 C424 1.424 . S
C425 C426 1.347 . S
C426 H418 0.951 . S
C426 C421 1.429 . S
C426 C425 1.347 . S
H427 C428 0.951 . S
C428 H427 0.951 . S
C428 C434 1.265 . S
H429 C434 0.950 . S
H430 C438 0.949 . S
H431 C439 0.950 . S
H432 C440 0.951 . S
H433 C441 0.951 . S
C434 C428 1.265 . S
C434 H429 0.950 . S
C434 C435 1.478 . S
C435 C422 1.394 . S
C435 C434 1.478 . S
C435 C436 1.397 . S
C436 C435 1.397 . S
C436 C437 1.438 . S
C436 C441 1.429 . S
C437 C420 1.394 . S
C437 C436 1.438 . S
C437 C438 1.428 . S
C438 H430 0.949 . S
C438 C437 1.428 . S
C438 C439 1.345 . S
C439 H431 0.950 . S
C439 C438 1.345 . S
C439 C440 1.424 . S
C440 H432 0.951 . S
C440 C439 1.424 . S
C440 C441 1.347 . S
C441 H433 0.951 . S
C441 C436 1.429 . S
C441 C440 1.347 . S
H442 C443 0.951 . S
C443 H442 0.951 . S
C443 C449 1.265 . S
H444 C449 0.950 . S
H445 C453 0.949 . S
H446 C454 0.950 . S
H447 C455 0.951 . S
H448 C456 0.951 . S
C449 C443 1.265 . S
C449 H444 0.950 . S
C449 C450 1.478 . S
C450 C449 1.478 . S
C450 C451 1.397 . S
C450 C467 1.394 . S
C451 C450 1.397 . S
C451 C452 1.438 . S
C451 C456 1.429 . S
C452 C451 1.438 . S
C452 C453 1.428 . S
C452 C465 1.394 . S
C453 H445 0.949 . S
C453 C452 1.428 . S
C453 C454 1.345 . S
C454 H446 0.950 . S
C454 C453 1.345 . S
C454 C455 1.424 . S
C455 H447 0.951 . S
C455 C454 1.424 . S
C455 C456 1.347 . S
C456 H448 0.951 . S
C456 C451 1.429 . S
C456 C455 1.347 . S
H457 C458 0.951 . S
C458 H457 0.951 . S
C458 C464 1.265 . S
H459 C464 0.950 . S
H460 C468 0.949 . S
H461 C469 0.950 . S
H462 C470 0.951 . S
H463 C471 0.951 . S
C464 C458 1.265 . S
C464 H459 0.950 . S
C464 C465 1.478 . S
C465 C452 1.394 . S
C465 C464 1.478 . S
C465 C466 1.397 . S
C466 C465 1.397 . S
C466 C467 1.438 . S
C466 C471 1.429 . S
C467 C450 1.394 . S
C467 C466 1.438 . S
C467 C468 1.428 . S
C468 H460 0.949 . S
C468 C467 1.428 . S
C468 C469 1.345 . S
C469 H461 0.950 . S
C469 C468 1.345 . S
C469 C470 1.424 . S
C470 H462 0.951 . S
C470 C469 1.424 . S
C470 C471 1.347 . S
C471 H463 0.951 . S
C471 C466 1.429 . S
C471 C470 1.347 . S
C128 C107 1.431 . S
C113 C29 1.467 . S
C143 C8 1.403 . S
C158 N94 1.302 . S
C173 C0 1.400 . S
C188 N105 1.349 . S
C203 C17 1.465 . S
C218 C96 1.455 . S
C233 C63 1.467 . S
C248 C85 1.432 . S
C263 C42 1.378 . S
C278 N72 1.328 . S
C308 N83 1.354 . S
C293 C34 1.387 . S
C338 C74 1.447 . S
C323 C51 1.468 . S
C353 C4 1.503 . S
C368 C77 1.489 . S
C383 C13 1.497 1_455 S
C398 C88 1.485 . S
C428 C99 1.492 . S
C413 C38 1.504 . S
C443 C47 1.499 . S
C458 C110 1.500 . S
