# Generated by pormake.
# Topology eea, (3,6)-cn, num edge types: 1
# Building blocks:
#     Node 0, Type 0, BuildingBlock: BETDIP_clean_linker_0, # of connection points: 3
#     Node 1, Type 0, BuildingBlock: BETDIP_clean_linker_0, # of connection points: 3
#     Node 2, Type 0, BuildingBlock: BETDIP_clean_linker_0, # of connection points: 3
#     Node 3, Type 0, BuildingBlock: BETDIP_clean_linker_0, # of connection points: 3
#     Node 4, Type 0, BuildingBlock: BETDIP_clean_linker_0, # of connection points: 3
#     Node 5, Type 0, BuildingBlock: BETDIP_clean_linker_0, # of connection points: 3
#     Node 6, Type 0, BuildingBlock: BETDIP_clean_linker_0, # of connection points: 3
#     Node 7, Type 0, BuildingBlock: BETDIP_clean_linker_0, # of connection points: 3
#     Node 8, Type 0, BuildingBlock: BETDIP_clean_linker_0, # of connection points: 3
#     Node 9, Type 0, BuildingBlock: BETDIP_clean_linker_0, # of connection points: 3
#     Node 10, Type 0, BuildingBlock: BETDIP_clean_linker_0, # of connection points: 3
#     Node 11, Type 0, BuildingBlock: BETDIP_clean_linker_0, # of connection points: 3
#     Node 12, Type 0, BuildingBlock: BETDIP_clean_linker_0, # of connection points: 3
#     Node 13, Type 0, BuildingBlock: BETDIP_clean_linker_0, # of connection points: 3
#     Node 14, Type 0, BuildingBlock: BETDIP_clean_linker_0, # of connection points: 3
#     Node 15, Type 0, BuildingBlock: BETDIP_clean_linker_0, # of connection points: 3
#     Node 16, Type 0, BuildingBlock: BETDIP_clean_linker_0, # of connection points: 3
#     Node 17, Type 0, BuildingBlock: BETDIP_clean_linker_0, # of connection points: 3
#     Node 18, Type 1, BuildingBlock: CIFDUS_clean_sbu_1, # of connection points: 6
#     Node 19, Type 1, BuildingBlock: CIFDUS_clean_sbu_1, # of connection points: 6
#     Node 20, Type 1, BuildingBlock: CIFDUS_clean_sbu_1, # of connection points: 6
#     Node 21, Type 1, BuildingBlock: CIFDUS_clean_sbu_1, # of connection points: 6
#     Node 22, Type 1, BuildingBlock: CIFDUS_clean_sbu_1, # of connection points: 6
#     Node 23, Type 1, BuildingBlock: CIFDUS_clean_sbu_1, # of connection points: 6
#     Node 24, Type 1, BuildingBlock: CIFDUS_clean_sbu_1, # of connection points: 6
#     Node 25, Type 1, BuildingBlock: CIFDUS_clean_sbu_1, # of connection points: 6
#     Node 26, Type 1, BuildingBlock: CIFDUS_clean_sbu_1, # of connection points: 6
#     Edge 27, Type (0, 1), BuildingBlock: UVAHIK_clean_linker_0, # of connection points: 2
#     Edge 28, Type (0, 1), BuildingBlock: UVAHIK_clean_linker_0, # of connection points: 2
#     Edge 29, Type (0, 1), BuildingBlock: UVAHIK_clean_linker_0, # of connection points: 2
#     Edge 30, Type (0, 1), BuildingBlock: UVAHIK_clean_linker_0, # of connection points: 2
#     Edge 31, Type (0, 1), BuildingBlock: UVAHIK_clean_linker_0, # of connection points: 2
#     Edge 32, Type (0, 1), BuildingBlock: UVAHIK_clean_linker_0, # of connection points: 2
#     Edge 33, Type (0, 1), BuildingBlock: UVAHIK_clean_linker_0, # of connection points: 2
#     Edge 34, Type (0, 1), BuildingBlock: UVAHIK_clean_linker_0, # of connection points: 2
#     Edge 35, Type (0, 1), BuildingBlock: UVAHIK_clean_linker_0, # of connection points: 2
#     Edge 36, Type (0, 1), BuildingBlock: UVAHIK_clean_linker_0, # of connection points: 2
#     Edge 37, Type (0, 1), BuildingBlock: UVAHIK_clean_linker_0, # of connection points: 2
#     Edge 38, Type (0, 1), BuildingBlock: UVAHIK_clean_linker_0, # of connection points: 2
#     Edge 39, Type (0, 1), BuildingBlock: UVAHIK_clean_linker_0, # of connection points: 2
#     Edge 40, Type (0, 1), BuildingBlock: UVAHIK_clean_linker_0, # of connection points: 2
#     Edge 41, Type (0, 1), BuildingBlock: UVAHIK_clean_linker_0, # of connection points: 2
#     Edge 42, Type (0, 1), BuildingBlock: UVAHIK_clean_linker_0, # of connection points: 2
#     Edge 43, Type (0, 1), BuildingBlock: UVAHIK_clean_linker_0, # of connection points: 2
#     Edge 44, Type (0, 1), BuildingBlock: UVAHIK_clean_linker_0, # of connection points: 2
#     Edge 45, Type (0, 1), BuildingBlock: UVAHIK_clean_linker_0, # of connection points: 2
#     Edge 46, Type (0, 1), BuildingBlock: UVAHIK_clean_linker_0, # of connection points: 2
#     Edge 47, Type (0, 1), BuildingBlock: UVAHIK_clean_linker_0, # of connection points: 2
#     Edge 48, Type (0, 1), BuildingBlock: UVAHIK_clean_linker_0, # of connection points: 2
#     Edge 49, Type (0, 1), BuildingBlock: UVAHIK_clean_linker_0, # of connection points: 2
#     Edge 50, Type (0, 1), BuildingBlock: UVAHIK_clean_linker_0, # of connection points: 2
#     Edge 51, Type (0, 1), BuildingBlock: UVAHIK_clean_linker_0, # of connection points: 2
#     Edge 52, Type (0, 1), BuildingBlock: UVAHIK_clean_linker_0, # of connection points: 2
#     Edge 53, Type (0, 1), BuildingBlock: UVAHIK_clean_linker_0, # of connection points: 2
#     Edge 54, Type (0, 1), BuildingBlock: UVAHIK_clean_linker_0, # of connection points: 2
#     Edge 55, Type (0, 1), BuildingBlock: UVAHIK_clean_linker_0, # of connection points: 2
#     Edge 56, Type (0, 1), BuildingBlock: UVAHIK_clean_linker_0, # of connection points: 2
#     Edge 57, Type (0, 1), BuildingBlock: UVAHIK_clean_linker_0, # of connection points: 2
#     Edge 58, Type (0, 1), BuildingBlock: UVAHIK_clean_linker_0, # of connection points: 2
#     Edge 59, Type (0, 1), BuildingBlock: UVAHIK_clean_linker_0, # of connection points: 2
#     Edge 60, Type (0, 1), BuildingBlock: UVAHIK_clean_linker_0, # of connection points: 2
#     Edge 61, Type (0, 1), BuildingBlock: UVAHIK_clean_linker_0, # of connection points: 2
#     Edge 62, Type (0, 1), BuildingBlock: UVAHIK_clean_linker_0, # of connection points: 2
#     Edge 63, Type (0, 1), BuildingBlock: UVAHIK_clean_linker_0, # of connection points: 2
#     Edge 64, Type (0, 1), BuildingBlock: UVAHIK_clean_linker_0, # of connection points: 2
#     Edge 65, Type (0, 1), BuildingBlock: UVAHIK_clean_linker_0, # of connection points: 2
#     Edge 66, Type (0, 1), BuildingBlock: UVAHIK_clean_linker_0, # of connection points: 2
#     Edge 67, Type (0, 1), BuildingBlock: UVAHIK_clean_linker_0, # of connection points: 2
#     Edge 68, Type (0, 1), BuildingBlock: UVAHIK_clean_linker_0, # of connection points: 2
#     Edge 69, Type (0, 1), BuildingBlock: UVAHIK_clean_linker_0, # of connection points: 2
#     Edge 70, Type (0, 1), BuildingBlock: UVAHIK_clean_linker_0, # of connection points: 2
#     Edge 71, Type (0, 1), BuildingBlock: UVAHIK_clean_linker_0, # of connection points: 2
#     Edge 72, Type (0, 1), BuildingBlock: UVAHIK_clean_linker_0, # of connection points: 2
#     Edge 73, Type (0, 1), BuildingBlock: UVAHIK_clean_linker_0, # of connection points: 2
#     Edge 74, Type (0, 1), BuildingBlock: UVAHIK_clean_linker_0, # of connection points: 2
#     Edge 75, Type (0, 1), BuildingBlock: UVAHIK_clean_linker_0, # of connection points: 2
#     Edge 76, Type (0, 1), BuildingBlock: UVAHIK_clean_linker_0, # of connection points: 2
#     Edge 77, Type (0, 1), BuildingBlock: UVAHIK_clean_linker_0, # of connection points: 2
#     Edge 78, Type (0, 1), BuildingBlock: UVAHIK_clean_linker_0, # of connection points: 2
#     Edge 79, Type (0, 1), BuildingBlock: UVAHIK_clean_linker_0, # of connection points: 2
#     Edge 80, Type (0, 1), BuildingBlock: UVAHIK_clean_linker_0, # of connection points: 2
# Relax obj value: 0.088
# Max RMSD: 0.118
# Mean RMSD: 0.105
data_MOF--net-eea--node1-CIFDUS_clean_sbu_1--node2-BETDIP_clean_linker_0--edge1-UVAHIK_clean_linker_0
_symmetry_space_group_name_H-M    P1
_symmetry_Int_Tables_number       1
_symmetry_cell_setting            triclinic
loop_
_symmetry_equiv_pos_as_xyz
'x, y, z'
_cell_length_a     74.830056
_cell_length_b     73.752195
_cell_length_c     57.968717
_cell_angle_alpha  90.225033
_cell_angle_beta   90.17495
_cell_angle_gamma 120.0347
loop_
_atom_site_label
_atom_site_type_symbol
_atom_site_fract_x
_atom_site_fract_y
_atom_site_fract_z
_atom_type_partial_charge
H0 H 0.14732 0.06223 0.38499 0.0
H1 H 0.18652 0.11093 0.43287 0.0
H2 H 0.18117 0.05038 0.43729 0.0
H3 H 0.19288 0.12939 0.39755 0.0
C4 C 0.17668 0.12442 0.39473 0.0
C5 C 0.15775 0.0675 0.39966 0.0
C6 C 0.16274 0.05359 0.41071 0.0
C7 C 0.16659 0.08839 0.40735 0.0
C8 C 0.18019 0.0951 0.42635 0.0
C9 C 0.18558 0.08154 0.43723 0.0
C10 C 0.17663 0.06079 0.42942 0.0
N11 N 0.16188 0.10264 0.396 0.0
H12 H 0.94027 0.09407 0.36667 0.0
H13 H 0.8913 0.07881 0.41496 0.0
H14 H 0.93662 0.14317 0.40281 0.0
H15 H 0.89783 0.0511 0.42123 0.0
C16 C 0.89665 0.04658 0.40317 0.0
C17 C 0.93259 0.09903 0.37887 0.0
C18 C 0.9402 0.12048 0.38294 0.0
C19 C 0.91523 0.08391 0.39075 0.0
C20 C 0.9052 0.09039 0.40645 0.0
C21 C 0.91273 0.11174 0.41095 0.0
C22 C 0.9302 0.12666 0.39898 0.0
N23 N 0.90773 0.06227 0.3864 0.0
H24 H 0.9024 0.81372 0.35291 0.0
H25 H 0.91244 0.78338 0.41058 0.0
H26 H 0.85902 0.7907 0.40886 0.0
H27 H 0.92924 0.77543 0.38472 0.0
C28 C 0.93692 0.78911 0.37376 0.0
C29 C 0.89758 0.80602 0.36947 0.0
C30 C 0.87957 0.80351 0.37989 0.0
C31 C 0.90932 0.79846 0.38012 0.0
C32 C 0.90308 0.78854 0.40166 0.0
C33 C 0.88485 0.78548 0.41213 0.0
C34 C 0.87333 0.79331 0.40124 0.0
N35 N 0.92736 0.80116 0.36884 0.0
H36 H 0.09945 0.20674 0.66987 0.0
H37 H 0.14803 0.23306 0.61964 0.0
H38 H 0.08872 0.22562 0.60338 0.0
H39 H 0.16759 0.24339 0.65309 0.0
C40 C 0.15993 0.22875 0.66253 0.0
C41 C 0.10487 0.21323 0.65288 0.0
C42 C 0.09159 0.21541 0.63741 0.0
C43 C 0.12525 0.21968 0.64678 0.0
C44 C 0.1324 0.22827 0.62482 0.0
C45 C 0.11922 0.23025 0.60908 0.0
C46 C 0.09875 0.22358 0.61532 0.0
N47 N 0.13804 0.21681 0.66277 0.0
H48 H 0.87333 0.92601 0.63481 0.0
H49 H 0.83386 0.9364 0.58911 0.0
H50 H 0.8368 0.88 0.58313 0.0
H51 H 0.83049 0.95085 0.62351 0.0
C52 C 0.84695 0.96139 0.62601 0.0
C53 C 0.86246 0.92093 0.62056 0.0
C54 C 0.85622 0.90158 0.60955 0.0
C55 C 0.85434 0.93357 0.61336 0.0
C56 C 0.8401 0.92675 0.59491 0.0
C57 C 0.83349 0.90736 0.58413 0.0
C58 C 0.84183 0.89503 0.59139 0.0
N59 N 0.86047 0.95306 0.62463 0.0
H60 H 0.09938 0.94845 0.64007 0.0
H61 H 0.08949 0.9003 0.59095 0.0
H62 H 0.13989 0.96286 0.58201 0.0
H63 H 0.07929 0.88075 0.62364 0.0
C64 C 0.06942 0.88603 0.63127 0.0
C65 C 0.10369 0.94362 0.62436 0.0
C66 C 0.12057 0.95835 0.61137 0.0
C67 C 0.09262 0.92252 0.61739 0.0
C68 C 0.09835 0.91633 0.59699 0.0
C69 C 0.11539 0.93077 0.58408 0.0
C70 C 0.12626 0.95175 0.59135 0.0
N71 N 0.07587 0.90776 0.6311 0.0
H72 H 0.81499 0.39755 0.71929 0.0
H73 H 0.84739 0.43813 0.77701 0.0
H74 H 0.84363 0.37849 0.77102 0.0
H75 H 0.85432 0.46286 0.75095 0.0
C76 C 0.83946 0.45725 0.74254 0.0
C77 C 0.82375 0.40067 0.73517 0.0
C78 C 0.82796 0.38545 0.74417 0.0
C79 C 0.83101 0.42 0.74665 0.0
C80 C 0.84214 0.42368 0.76747 0.0
C81 C 0.84702 0.40894 0.77602 0.0
C82 C 0.83983 0.38989 0.76438 0.0
N83 N 0.827 0.4355 0.73719 0.0
H84 H 0.59888 0.42724 0.71048 0.0
H85 H 0.55981 0.41315 0.7699 0.0
H86 H 0.60834 0.4761 0.75853 0.0
H87 H 0.53611 0.39177 0.74456 0.0
C88 C 0.54388 0.3844 0.73627 0.0
C89 C 0.59474 0.43226 0.72618 0.0
C90 C 0.60588 0.45344 0.7331 0.0
C91 C 0.57755 0.41773 0.73885 0.0
C92 C 0.57249 0.42429 0.75943 0.0
C93 C 0.58327 0.44531 0.76642 0.0
C94 C 0.59985 0.45983 0.75309 0.0
N95 N 0.56515 0.3968 0.73049 0.0
H96 H 0.57253 0.15561 0.68896 0.0
H97 H 0.58415 0.12816 0.74832 0.0
H98 H 0.52801 0.13038 0.74363 0.0
H99 H 0.60371 0.12265 0.72422 0.0
C100 C 0.61027 0.13573 0.71235 0.0
C101 C 0.56781 0.14806 0.70562 0.0
C102 C 0.54902 0.14413 0.71522 0.0
C103 C 0.58045 0.14207 0.71716 0.0
C104 C 0.57425 0.13223 0.73875 0.0
C105 C 0.55527 0.12778 0.74841 0.0
C106 C 0.54288 0.13409 0.73665 0.0
N107 N 0.59918 0.14608 0.70653 0.0
H108 H 0.77359 0.56371 0.02057 0.0
H109 H 0.82118 0.59067 0.96935 0.0
H110 H 0.76498 0.59231 0.96018 0.0
H111 H 0.84065 0.59876 0.0054 0.0
C112 C 0.83265 0.58267 0.01145 0.0
C113 C 0.77912 0.57172 0.00427 0.0
C114 C 0.767 0.57772 0.99147 0.0
C115 C 0.79881 0.57678 0.99669 0.0
C116 C 0.80615 0.58716 0.97554 0.0
C117 C 0.79404 0.59288 0.96227 0.0
C118 C 0.77456 0.58823 0.97048 0.0
N119 N 0.81078 0.57086 0.01037 0.0
H120 H 0.53167 0.25968 0.96929 0.0
H121 H 0.49269 0.26937 0.92201 0.0
H122 H 0.49731 0.21387 0.91656 0.0
H123 H 0.48826 0.28385 0.95538 0.0
C124 C 0.50455 0.2943 0.95909 0.0
C125 C 0.52116 0.25452 0.95468 0.0
C126 C 0.51569 0.23539 0.94355 0.0
C127 C 0.5128 0.26685 0.9471 0.0
C128 C 0.49909 0.25995 0.92815 0.0
C129 C 0.4932 0.24076 0.91727 0.0
C130 C 0.50177 0.22874 0.92491 0.0
N131 N 0.51823 0.28612 0.95851 0.0
H132 H 0.77338 0.26978 0.97603 0.0
H133 H 0.75951 0.22343 0.92295 0.0
H134 H 0.81668 0.28182 0.92149 0.0
H135 H 0.74409 0.20184 0.9527 0.0
C136 C 0.7362 0.20885 0.96147 0.0
C137 C 0.77749 0.26489 0.96022 0.0
C138 C 0.79655 0.2781 0.94972 0.0
C139 C 0.76427 0.24485 0.95109 0.0
C140 C 0.76978 0.23862 0.93053 0.0
C141 C 0.78875 0.25178 0.91982 0.0
C142 C 0.80202 0.27146 0.92962 0.0
N143 N 0.74584 0.23105 0.96314 0.0
H144 H 0.47844 0.73193 0.0607 0.0
H145 H 0.51649 0.77973 0.11019 0.0
H146 H 0.5113 0.7193 0.11358 0.0
H147 H 0.52156 0.80026 0.07946 0.0
C148 C 0.5057 0.79407 0.07375 0.0
C149 C 0.48863 0.73699 0.07559 0.0
C150 C 0.49351 0.72294 0.0865 0.0
C151 C 0.49708 0.7577 0.08382 0.0
C152 C 0.51018 0.76403 0.10331 0.0
C153 C 0.5156 0.75039 0.11387 0.0
C154 C 0.5071 0.72988 0.10546 0.0
N155 N 0.4923 0.77195 0.07254 0.0
H156 H 0.27141 0.75862 0.03791 0.0
H157 H 0.22775 0.74226 0.09303 0.0
H158 H 0.27072 0.8069 0.07937 0.0
H159 H 0.23329 0.71359 0.09413 0.0
C160 C 0.23046 0.71005 0.07581 0.0
C161 C 0.26513 0.76333 0.05202 0.0
C162 C 0.27297 0.78473 0.05688 0.0
C163 C 0.24913 0.74792 0.06529 0.0
C164 C 0.24067 0.75401 0.08331 0.0
C165 C 0.24825 0.77524 0.08837 0.0
C166 C 0.2644 0.79048 0.07509 0.0
N167 N 0.24101 0.72641 0.05959 0.0
H168 H 0.22598 0.46998 0.01058 0.0
H169 H 0.24097 0.44424 0.06906 0.0
H170 H 0.18358 0.44421 0.06726 0.0
H171 H 0.25469 0.43407 0.03565 0.0
C172 C 0.26383 0.45011 0.02965 0.0
C173 C 0.22202 0.4627 0.02742 0.0
C174 C 0.20295 0.45737 0.0374 0.0
C175 C 0.23557 0.45761 0.03849 0.0
C176 C 0.23035 0.44781 0.06017 0.0
C177 C 0.21175 0.44331 0.0708 0.0
C178 C 0.19814 0.44806 0.05927 0.0
N179 N 0.25452 0.46274 0.0277 0.0
H180 H 0.43334 0.87459 0.34326 0.0
H181 H 0.47712 0.90216 0.28818 0.0
H182 H 0.42147 0.90553 0.28748 0.0
H183 H 0.49932 0.90762 0.3176 0.0
C184 C 0.49163 0.89285 0.32677 0.0
C185 C 0.43784 0.88294 0.32704 0.0
C186 C 0.42518 0.8896 0.3166 0.0
C187 C 0.45684 0.8879 0.31728 0.0
C188 C 0.46272 0.89872 0.29619 0.0
C189 C 0.45014 0.90531 0.28539 0.0
C190 C 0.43144 0.90075 0.29581 0.0
N191 N 0.46981 0.88202 0.32912 0.0
H192 H 0.20661 0.59364 0.29679 0.0
H193 H 0.17521 0.61335 0.24945 0.0
H194 H 0.15581 0.54814 0.25539 0.0
H195 H 0.20889 0.64255 0.24861 0.0
C196 C 0.20989 0.64468 0.26724 0.0
C197 C 0.19477 0.58992 0.28385 0.0
C198 C 0.18149 0.56891 0.27721 0.0
C199 C 0.19272 0.60614 0.27383 0.0
C200 C 0.17733 0.60114 0.257 0.0
C201 C 0.164 0.58032 0.25035 0.0
C202 C 0.16597 0.56426 0.26071 0.0
N203 N 0.20547 0.62724 0.28148 0.0
H204 H 0.43556 0.62108 0.31468 0.0
H205 H 0.42911 0.57166 0.26949 0.0
H206 H 0.47671 0.63516 0.25732 0.0
H207 H 0.421 0.55531 0.3083 0.0
C208 C 0.40896 0.55925 0.31098 0.0
C209 C 0.44049 0.61602 0.29962 0.0
C210 C 0.45719 0.63073 0.28647 0.0
C211 C 0.43045 0.59467 0.29374 0.0
C212 C 0.43706 0.58807 0.27437 0.0
C213 C 0.45352 0.60267 0.26086 0.0
C214 C 0.46341 0.62393 0.26705 0.0
N215 N 0.41342 0.58013 0.30714 0.0
O216 O 0.46636 0.98265 0.00749 0.0
Mn217 Mn 0.49526 0.00944 0.01316 0.0
O218 O 0.44222 0.99003 0.01999 0.0
Mn219 Mn 0.46026 0.01483 0.03511 0.0
O220 O 0.52405 0.03637 0.01881 0.0
O221 O 0.50833 0.99154 0.00869 0.0
Mn222 Mn 0.53051 0.0047 0.99146 0.0
O223 O 0.49771 0.01641 0.978 0.0
O224 O 0.5484 0.02875 0.00777 0.0
O225 O 0.49284 1.00273 0.04845 0.0
O226 O 0.47031 0.01152 0.06316 0.0
O227 O 0.52802 0.97912 0.99845 0.0
O228 O 0.5214 0.00928 0.96341 0.0
C229 C 0.47897 0.04262 0.01523 0.0
C230 C 0.4474 0.97776 0.01036 0.0
C231 C 0.54299 0.041 0.0169 0.0
C232 C 0.51183 0.97609 0.00961 0.0
C233 C 0.50812 0.01521 0.96105 0.0
C234 C 0.48322 0.0051 0.06553 0.0
O235 O 0.48217 0.02712 0.01747 0.0
O236 O 0.4629 0.04021 0.02616 0.0
O237 O 0.02779 0.49118 0.00684 0.0
Mn238 Mn 0.00657 0.50094 0.01294 0.0
O239 O 0.02091 0.46498 0.0315 0.0
Mn240 Mn 0.00135 0.46746 0.04893 0.0
O241 O 0.98546 0.51105 0.01848 0.0
O242 O 0.02549 0.52784 0.99656 0.0
Mn243 Mn 0.01209 0.53243 0.97446 0.0
O244 O 0.99106 0.48661 0.98216 0.0
O245 O 0.99092 0.53383 0.98964 0.0
O246 O 0.02173 0.5149 0.04422 0.0
O247 O 0.01184 0.48901 0.07027 0.0
O248 O 0.03887 0.55464 0.9737 0.0
O249 O 0.00314 0.51035 0.95387 0.0
C250 C 0.97127 0.45652 0.03439 0.0
C251 C 0.03118 0.47697 0.01486 0.0
C252 C 0.98115 0.52355 0.00753 0.0
C253 C 0.0417 0.54516 0.99084 0.0
C254 C 0.99223 0.49162 0.9608 0.0
C255 C 0.02127 0.50832 0.06491 0.0
O256 O 0.98763 0.47383 0.02898 0.0
O257 O 0.97422 0.44604 0.05031 0.0
O258 O 0.54947 0.53116 0.01951 0.0
Mn259 Mn 0.51801 0.52082 0.01673 0.0
O260 O 0.56613 0.55998 0.99749 0.0
Mn261 Mn 0.5429 0.55801 0.98332 0.0
O262 O 0.48653 0.5104 0.01432 0.0
O263 O 0.51191 0.49285 0.02867 0.0
Mn264 Mn 0.49471 0.48514 0.05201 0.0
O265 O 0.51848 0.53208 0.0502 0.0
O266 O 0.47114 0.48439 0.04034 0.0
O267 O 0.51786 0.50999 0.98314 0.0
O268 O 0.53156 0.5382 0.95993 0.0
O269 O 0.49998 0.46345 0.04675 0.0
O270 O 0.50815 0.50519 0.07467 0.0
C271 C 0.52359 0.56595 0.00335 0.0
C272 C 0.56612 0.54674 0.01166 0.0
C273 C 0.47046 0.49642 0.02494 0.0
C274 C 0.5114 0.47517 0.03019 0.0
C275 C 0.51548 0.52463 0.07077 0.0
C276 C 0.52286 0.51846 0.96305 0.0
O277 O 0.52394 0.54872 0.00483 0.0
O278 O 0.53595 0.57862 0.98796 0.0
O279 O 0.14005 0.31728 0.34296 0.0
Mn280 Mn 0.17049 0.34222 0.3432 0.0
O281 O 0.12162 0.32678 0.3655 0.0
Mn282 Mn 0.14394 0.35115 0.37713 0.0
O283 O 0.20096 0.3671 0.34325 0.0
O284 O 0.17974 0.32235 0.33294 0.0
Mn285 Mn 0.19663 0.3321 0.30948 0.0
O286 O 0.16702 0.34925 0.30886 0.0
O287 O 0.21864 0.35755 0.31944 0.0
O288 O 0.17388 0.33471 0.37711 0.0
O289 O 0.1582 0.3467 0.40058 0.0
O290 O 0.19448 0.30667 0.31723 0.0
O291 O 0.18078 0.33436 0.28643 0.0
C292 C 0.15966 0.37877 0.35642 0.0
C293 C 0.12296 0.31368 0.35216 0.0
C294 C 0.21767 0.37073 0.33302 0.0
C295 C 0.18216 0.30627 0.33307 0.0
C296 C 0.17063 0.3439 0.28896 0.0
C297 C 0.16898 0.33796 0.39731 0.0
O298 O 0.16139 0.36228 0.35407 0.0
O299 O 0.14713 0.37738 0.37254 0.0
O300 O 0.70186 0.83109 0.33637 0.0
Mn301 Mn 0.67635 0.83276 0.34786 0.0
O302 O 0.69688 0.7993 0.34605 0.0
Mn303 Mn 0.67489 0.79213 0.36589 0.0
O304 O 0.65097 0.8348 0.35948 0.0
O305 O 0.69239 0.86353 0.34257 0.0
Mn306 Mn 0.67777 0.87316 0.32921 0.0
O307 O 0.66447 0.82781 0.31447 0.0
O308 O 0.65677 0.86699 0.35009 0.0
O309 O 0.688 0.83734 0.38148 0.0
O310 O 0.68216 0.80594 0.39424 0.0
O311 O 0.70433 0.89583 0.33337 0.0
O312 O 0.66902 0.85856 0.30135 0.0
C313 C 0.64514 0.78321 0.3508 0.0
C314 C 0.70719 0.81702 0.33619 0.0
C315 C 0.64628 0.84936 0.36007 0.0
C316 C 0.70811 0.88208 0.34234 0.0
C317 C 0.66293 0.8391 0.29863 0.0
C318 C 0.68852 0.82543 0.39736 0.0
O319 O 0.66039 0.80195 0.3527 0.0
O320 O 0.64892 0.76929 0.35931 0.0
O321 O 0.21518 0.8571 0.34792 0.0
Mn322 Mn 0.185 0.84989 0.34059 0.0
O323 O 0.23626 0.88714 0.32937 0.0
Mn324 Mn 0.21603 0.88918 0.31279 0.0
O325 O 0.1548 0.8428 0.33318 0.0
O326 O 0.17539 0.82021 0.35027 0.0
Mn327 Mn 0.15332 0.8108 0.36773 0.0
O328 O 0.18185 0.85816 0.37422 0.0
O329 O 0.13347 0.81136 0.34899 0.0
O330 O 0.18818 0.84187 0.30666 0.0
O331 O 0.20601 0.87203 0.28696 0.0
O332 O 0.15925 0.78935 0.36572 0.0
O333 O 0.16115 0.82842 0.39331 0.0
C334 C 0.19636 0.89774 0.33121 0.0
C335 C 0.23325 0.87215 0.34274 0.0
C336 C 0.13675 0.82697 0.33659 0.0
C337 C 0.17431 0.8023 0.35286 0.0
C338 C 0.17255 0.84831 0.39261 0.0
C339 C 0.19567 0.85207 0.28781 0.0
O340 O 0.19477 0.87954 0.3314 0.0
O341 O 0.2111 0.91111 0.3183 0.0
O342 O 0.8024 0.64693 0.67628 0.0
Mn343 Mn 0.83142 0.67417 0.68019 0.0
O344 O 0.77853 0.65491 0.6883 0.0
Mn345 Mn 0.79684 0.68029 0.70212 0.0
O346 O 0.86026 0.7015 0.68407 0.0
O347 O 0.8446 0.65635 0.67627 0.0
Mn348 Mn 0.8664 0.66905 0.65835 0.0
O349 O 0.83272 0.67954 0.64473 0.0
O350 O 0.88459 0.69371 0.67354 0.0
O351 O 0.83022 0.6692 0.71586 0.0
O352 O 0.80775 0.67828 0.73017 0.0
O353 O 0.86416 0.64374 0.6662 0.0
O354 O 0.85659 0.67263 0.63022 0.0
C355 C 0.81512 0.70735 0.68107 0.0
C356 C 0.78349 0.64218 0.67943 0.0
C357 C 0.87922 0.70626 0.6819 0.0
C358 C 0.84814 0.64094 0.67755 0.0
C359 C 0.84295 0.67807 0.62775 0.0
C360 C 0.821 0.67233 0.73283 0.0
O361 O 0.81829 0.69188 0.68382 0.0
O362 O 0.79924 0.70531 0.6921 0.0
O363 O 0.36547 0.15916 0.66626 0.0
Mn364 Mn 0.34003 0.16124 0.67703 0.0
O365 O 0.36049 0.12767 0.67728 0.0
Mn366 Mn 0.33836 0.12103 0.69675 0.0
O367 O 0.31478 0.16367 0.68807 0.0
O368 O 0.35625 0.19193 0.67097 0.0
Mn369 Mn 0.34181 0.20105 0.65617 0.0
O370 O 0.32829 0.15545 0.64347 0.0
O371 O 0.32009 0.19506 0.67592 0.0
O372 O 0.35158 0.1666 0.71073 0.0
O373 O 0.3455 0.13548 0.72472 0.0
O374 O 0.36796 0.22408 0.66112 0.0
O375 O 0.33421 0.18612 0.62854 0.0
C376 C 0.30873 0.11178 0.68109 0.0
C377 C 0.37082 0.14511 0.66688 0.0
C378 C 0.30988 0.17805 0.68712 0.0
C379 C 0.37169 0.21068 0.67111 0.0
C380 C 0.32765 0.1665 0.62674 0.0
C381 C 0.35196 0.15506 0.72715 0.0
O382 O 0.32396 0.13056 0.68272 0.0
O383 O 0.31242 0.09807 0.69034 0.0
O384 O 0.88006 0.18813 0.66863 0.0
Mn385 Mn 0.85092 0.18433 0.66203 0.0
O386 O 0.90363 0.22039 0.65643 0.0
Mn387 Mn 0.88531 0.22554 0.63995 0.0
O388 O 0.82178 0.18059 0.65523 0.0
O389 O 0.83896 0.15357 0.66697 0.0
Mn390 Mn 0.81626 0.14305 0.68333 0.0
O391 O 0.84738 0.18891 0.69693 0.0
O392 O 0.79824 0.14783 0.66589 0.0
O393 O 0.85427 0.17969 0.62718 0.0
O394 O 0.87635 0.21118 0.61199 0.0
O395 O 0.82058 0.12099 0.67643 0.0
O396 O 0.8243 0.15739 0.71131 0.0
C397 C 0.8653 0.2335 0.65869 0.0
C398 C 0.89878 0.20309 0.6663 0.0
C399 C 0.80312 0.16531 0.65651 0.0
C400 C 0.8367 0.13511 0.6658 0.0
C401 C 0.83687 0.17701 0.71373 0.0
C402 C 0.864 0.19146 0.61 0.0
O403 O 0.86301 0.21507 0.65706 0.0
O404 O 0.8812 0.24765 0.6478 0.0
C405 C 0.30812 0.79976 0.03899 0.0
C406 C 0.29047 0.80126 0.04357 0.0
C407 C 0.32551 0.81649 0.02887 0.0
C408 C 0.34373 0.86692 0.99792 0.0
H409 H 0.39533 0.88371 0.0299 0.0
C410 C 0.41007 0.95199 0.00305 0.0
C411 C 0.4306 0.9563 0.00454 0.0
C412 C 0.39374 0.93138 0.00172 0.0
C413 C 0.38119 0.87906 0.02038 0.0
H414 H 0.27673 0.82092 0.03986 0.0
H415 H 0.30701 0.85011 0.02254 0.0
H416 H 0.36499 0.85026 0.03885 0.0
H417 H 0.45001 0.94233 0.00449 0.0
H418 H 0.42151 0.90621 0.00201 0.0
H419 H 0.35979 0.89613 0.9801 0.0
C420 C 0.30749 0.83604 0.02663 0.0
C421 C 0.36375 0.85984 0.02554 0.0
C422 C 0.2902 0.8194 0.0368 0.0
C423 C 0.43443 0.93953 0.00326 0.0
C424 C 0.41807 0.91883 0.00207 0.0
C425 C 0.36117 0.88614 0.99276 0.0
C426 C 0.32553 0.835 0.02298 0.0
C427 C 0.34466 0.85381 0.01486 0.0
C428 C 0.39749 0.91451 0.00194 0.0
C429 C 0.37996 0.89272 0.00442 0.0
H430 H 0.30882 0.78602 0.04409 0.0
H431 H 0.33908 0.8151 0.02609 0.0
H432 H 0.32936 0.86256 0.98907 0.0
H433 H 0.40653 0.96454 0.00389 0.0
H434 H 0.37812 0.92867 0.00185 0.0
C435 C 0.19293 0.47986 0.01454 0.0
C436 C 0.18751 0.46058 0.02483 0.0
C437 C 0.17772 0.48314 0.00454 0.0
C438 C 0.12266 0.45528 0.98538 0.0
H439 H 0.12273 0.50471 0.00849 0.0
C440 C 0.04981 0.45713 0.00917 0.0
C441 C 0.04874 0.47539 0.00566 0.0
C442 C 0.06755 0.45652 0.0033 0.0
C443 C 0.12266 0.49107 0.00138 0.0
H444 H 0.16232 0.42922 0.03143 0.0
H445 H 0.13588 0.43494 0.01445 0.0
H446 H 0.15349 0.50168 0.01306 0.0
H447 H 0.06508 0.50704 0.99222 0.0
H448 H 0.09632 0.50602 0.98229 0.0
H449 H 0.09133 0.44411 0.97506 0.0
C450 C 0.15176 0.44755 0.01388 0.0
C451 C 0.14031 0.48933 0.00397 0.0
C452 C 0.16687 0.44435 0.02393 0.0
C453 C 0.06543 0.49271 0.9951 0.0
C454 C 0.08333 0.49219 0.98951 0.0
C455 C 0.10499 0.45696 0.9829 0.0
C456 C 0.15691 0.46709 0.00447 0.0
C457 C 0.14018 0.47102 0.9969 0.0
C458 C 0.08471 0.47422 0.99401 0.0
C459 C 0.10455 0.47449 0.99173 0.0
H460 H 0.20876 0.49262 0.01499 0.0
H461 H 0.18216 0.49832 0.99731 0.0
H462 H 0.12225 0.44117 0.97929 0.0
H463 H 0.03716 0.4435 0.01715 0.0
H464 H 0.06824 0.44253 0.00723 0.0
C465 C 0.48942 0.69759 0.0551 0.0
C466 C 0.4857 0.70125 0.07789 0.0
C467 C 0.4865 0.67795 0.04859 0.0
C468 C 0.48854 0.63405 0.07561 0.0
H469 H 0.47493 0.61009 0.01404 0.0
C470 C 0.52441 0.58958 0.03389 0.0
C471 C 0.51263 0.57266 0.01904 0.0
C472 C 0.51571 0.60035 0.04442 0.0
C473 C 0.47838 0.61631 0.03146 0.0
H474 H 0.47428 0.68688 0.11114 0.0
H475 H 0.46877 0.65256 0.09973 0.0
H476 H 0.46851 0.6385 0.02444 0.0
H477 H 0.4825 0.55339 0.00357 0.0
H478 H 0.46714 0.57259 0.02175 0.0
H479 H 0.49909 0.6124 0.08236 0.0
C480 C 0.47444 0.6649 0.087 0.0
C481 C 0.47495 0.63277 0.03733 0.0
C482 C 0.47745 0.6845 0.0935 0.0
C483 C 0.4917 0.5661 0.01546 0.0
C484 C 0.48303 0.57721 0.02564 0.0
C485 C 0.49207 0.61771 0.0697 0.0
C486 C 0.47973 0.6616 0.06475 0.0
C487 C 0.48049 0.64221 0.0593 0.0
C488 C 0.49515 0.59482 0.03973 0.0
C489 C 0.48758 0.60906 0.04737 0.0
H490 H 0.49596 0.71028 0.04279 0.0
H491 H 0.49087 0.67604 0.03135 0.0
H492 H 0.49321 0.64102 0.09261 0.0
H493 H 0.54071 0.59516 0.03644 0.0
H494 H 0.52554 0.61396 0.05493 0.0
C495 C 0.80747 0.31487 0.96216 0.0
C496 C 0.81169 0.29841 0.96012 0.0
C497 C 0.82315 0.33492 0.96883 0.0
C498 C 0.88029 0.3665 0.97011 0.0
H499 H 0.87234 0.40352 0.01099 0.0
C500 C 0.93312 0.43785 0.03512 0.0
C501 C 0.95136 0.44722 0.02221 0.0
C502 C 0.91436 0.42342 0.02484 0.0
C503 C 0.87484 0.39337 -0.00045 0.0
H504 H 0.83487 0.28938 0.9647 0.0
H505 H 0.86191 0.32391 0.97713 0.0
H506 H 0.84284 0.36964 0.00015 0.0
H507 H 0.96434 0.44893 0.98856 0.0
H508 H 0.93153 0.42516 0.97002 0.0
H509 H 0.91226 0.38921 0.97052 0.0
C510 C 0.84688 0.32177 0.97283 0.0
C511 C 0.85787 0.37402 0.99317 0.0
C512 C 0.83137 0.30193 0.96597 0.0
C513 C 0.95038 0.44289 0.99858 0.0
C514 C 0.93158 0.4287 0.98817 0.0
C515 C 0.89719 0.38562 0.97664 0.0
C516 C 0.84319 0.33868 0.97366 0.0
C517 C 0.86053 0.36012 0.97886 0.0
C518 C 0.91349 0.41798 0.0014 0.0
C519 C 0.89484 0.39918 0.99186 0.0
H520 H 0.79238 0.31245 0.95759 0.0
H521 H 0.81979 0.34759 0.9693 0.0
H522 H 0.88284 0.35645 0.95855 0.0
H523 H 0.93363 0.44055 0.05356 0.0
H524 H 0.90094 0.41537 0.03577 0.0
C525 C 0.73237 0.55362 0.00901 0.0
C526 C 0.74655 0.57334 3e-05 0.0
C527 C 0.7128 0.54939 0.01611 0.0
C528 C 0.68293 0.57525 0.0321 0.0
H529 H 0.6358 0.52447 0.00854 0.0
C530 C 0.60452 0.56818 0.0145 0.0
C531 C 0.5863 0.54904 0.01814 0.0
C532 C 0.62377 0.56996 0.01803 0.0
C533 C 0.64876 0.5385 0.0157 0.0
H534 H 0.75166 0.6043 0.99225 0.0
H535 H 0.71754 0.59689 0.00431 0.0
H536 H 0.67047 0.52973 0.00388 0.0
H537 H 0.57401 0.51694 0.02925 0.0
H538 H 0.60783 0.52002 0.03528 0.0
H539 H 0.66129 0.58438 0.04314 0.0
C540 C 0.72151 0.58471 0.00603 0.0
C541 C 0.66863 0.54153 0.013 0.0
C542 C 0.74097 0.58888 0.99884 0.0
C543 C 0.58776 0.53189 0.02631 0.0
C544 C 0.60711 0.53362 0.02963 0.0
C545 C 0.66309 0.57223 0.03478 0.0
C546 C 0.70712 0.56487 0.01456 0.0
C547 C 0.68597 0.56023 0.02053 0.0
C548 C 0.62531 0.5526 0.02516 0.0
C549 C 0.64584 0.55412 0.02597 0.0
H550 H 0.73622 0.54131 0.01003 0.0
H551 H 0.70207 0.53399 0.0227 0.0
H552 H 0.69596 0.58963 0.03851 0.0
H553 H 0.60396 0.58174 0.00833 0.0
H554 H 0.63747 0.58473 0.01415 0.0
C555 C 0.53172 0.21327 0.93608 0.0
C556 C 0.52304 0.22122 0.95178 0.0
C557 C 0.53428 0.19635 0.94202 0.0
C558 C 0.53044 0.16115 0.9906 0.0
H559 H 0.51068 0.1191 0.94205 0.0
C560 C 0.51154 0.0765 0.00919 0.0
C561 C 0.49165 0.06161 0.0017 0.0
C562 C 0.52109 0.09701 0.00064 0.0
C563 C 0.51637 0.1307 0.95577 0.0
H564 H 0.51133 0.21853 0.9864 0.0
H565 H 0.51541 0.18872 0.99678 0.0
H566 H 0.51704 0.15407 0.93362 0.0
H567 H 0.46644 0.05589 0.97889 0.0
H568 H 0.48302 0.09128 0.96361 0.0
H569 H 0.52843 0.1372 0.01306 0.0
C570 C 0.52062 0.19573 0.97998 0.0
C571 C 0.52025 0.1509 0.9509 0.0
C572 C 0.51827 0.21284 0.97409 0.0
C573 C 0.48197 0.06705 0.98457 0.0
C574 C 0.49152 0.08737 0.97584 0.0
C575 C 0.52651 0.14088 0.99549 0.0
C576 C 0.52795 0.18676 0.96371 0.0
C577 C 0.5268 0.16627 0.96837 0.0
C578 C 0.51085 0.10285 0.9844 0.0
C579 C 0.51881 0.12522 0.97828 0.0
H580 H 0.53559 0.21953 0.91878 0.0
H581 H 0.54045 0.19025 0.92923 0.0
H582 H 0.53576 0.17263 0.00442 0.0
H583 H 0.51903 0.07274 0.02286 0.0
H584 H 0.53605 0.10851 0.00745 0.0
C585 C 0.70556 0.202 0.98598 0.0
C586 C 0.71615 0.19461 0.97241 0.0
C587 C 0.68665 0.18784 0.99616 0.0
C588 C 0.65507 0.13153 0.01171 0.0
H589 H 0.60899 0.14162 0.01069 0.0
C590 C 0.56185 0.079 0.00852 0.0
C591 C 0.55963 0.06237 0.0222 0.0
C592 C 0.58053 0.09801 0.00839 0.0
C593 C 0.62168 0.13852 0.01111 0.0
H594 H 0.71527 0.16689 0.95853 0.0
H595 H 0.68236 0.14237 0.97568 0.0
H596 H 0.64286 0.16885 0.9976 0.0
H597 H 0.57431 0.0528 0.04771 0.0
H598 H 0.60651 0.08634 0.04872 0.0
H599 H 0.63396 0.10087 0.02356 0.0
C600 C 0.6887 0.15892 0.97908 0.0
C601 C 0.64118 0.15426 0.00384 0.0
C602 C 0.7075 0.17299 0.96906 0.0
C603 C 0.57569 0.06551 0.03714 0.0
C604 C 0.59422 0.08465 0.03741 0.0
C605 C 0.63563 0.1158 0.01871 0.0
C606 C 0.67806 0.1661 0.99292 0.0
C607 C 0.65798 0.1507 0.00342 0.0
C608 C 0.59732 0.10076 0.02209 0.0
C609 C 0.6185 0.11883 0.01801 0.0
H610 H 0.71189 0.21863 0.98885 0.0
H611 H 0.67891 0.19389 0.00678 0.0
H612 H 0.66774 0.12839 0.01215 0.0
H613 H 0.54984 0.0767 0.9964 0.0
H614 H 0.58224 0.10983 0.99618 0.0
C615 C 0.8355 0.55198 0.02528 0.0
C616 C 0.84484 0.57343 0.02027 0.0
C617 C 0.84761 0.54316 0.03131 0.0
C618 C 0.90041 0.55575 0.04892 0.0
H619 H 0.89009 0.50937 0.00861 0.0
C620 C 0.95188 0.52894 0.99771 0.0
C621 C 0.96313 0.52524 0.01462 0.0
C622 C 0.93484 0.5307 0.00372 0.0
C623 C 0.89293 0.52205 0.02032 0.0
H624 H 0.87383 0.60266 0.01871 0.0
H625 H 0.89501 0.58732 0.02918 0.0
H626 H 0.86478 0.52091 0.01082 0.0
H627 H 0.96526 0.52023 0.05111 0.0
H628 H 0.93553 0.52419 0.06184 0.0
H629 H 0.92921 0.55754 0.0573 0.0
C630 C 0.87839 0.57731 0.02866 0.0
C631 C 0.87842 0.5286 0.02168 0.0
C632 C 0.86631 0.58607 0.02247 0.0
C633 C 0.95685 0.52313 0.03777 0.0
C634 C 0.93993 0.52538 0.04389 0.0
C635 C 0.91486 0.54903 0.04772 0.0
C636 C 0.86922 0.55568 0.03261 0.0
C637 C 0.8824 0.54607 0.03525 0.0
C638 C 0.92879 0.52911 0.02683 0.0
C639 C 0.9116 0.5327 0.03265 0.0
H640 H 0.81895 0.54185 0.02379 0.0
H641 H 0.84014 0.52646 0.03436 0.0
H642 H 0.90376 0.56913 0.0597 0.0
H643 H 0.95619 0.53038 0.97969 0.0
H644 H 0.92666 0.53383 0.99029 0.0
C645 C 0.53154 0.33124 0.97053 0.0
C646 C 0.51166 0.31684 0.96236 0.0
C647 C 0.53737 0.3524 0.97369 0.0
C648 C 0.52376 0.39228 0.95625 0.0
H649 H 0.54357 0.41664 0.01682 0.0
C650 C 0.50714 0.45323 0.9962 0.0
C651 C 0.52016 0.46688 0.0134 0.0
C652 C 0.51194 0.43933 0.9852 0.0
C653 C 0.53859 0.41043 -0.00043 0.0
H654 H 0.4825 0.3132 0.95076 0.0
H655 H 0.49268 0.34991 0.95595 0.0
H656 H 0.54101 0.38328 0.00699 0.0
H657 H 0.54869 0.47739 0.03219 0.0
H658 H 0.55758 0.45353 0.01248 0.0
H659 H 0.52078 0.41909 0.94897 0.0
C660 C 0.50382 0.34504 0.95987 0.0
C661 C 0.53706 0.39121 0.99399 0.0
C662 C 0.49792 0.32398 0.95708 0.0
C663 C 0.53873 0.46737 0.01848 0.0
C664 C 0.54359 0.45345 0.00746 0.0
C665 C 0.52546 0.41158 0.96173 0.0
C666 C 0.52355 0.3595 0.96831 0.0
C667 C 0.52889 0.38156 0.97259 0.0
C668 C 0.52977 0.43858 0.99144 0.0
C669 C 0.53214 0.42053 0.98379 0.0
H670 H 0.54244 0.32613 0.97475 0.0
H671 H 0.55267 0.3632 0.98028 0.0
H672 H 0.51773 0.38537 0.93946 0.0
H673 H 0.49245 0.45221 0.9925 0.0
H674 H 0.50076 0.42802 0.97321 0.0
C675 C 0.20938 0.6833 0.0454 0.0
C676 C 0.21322 0.68936 0.06872 0.0
C677 C 0.19194 0.66434 0.03905 0.0
C678 C 0.13953 0.62941 0.05758 0.0
H679 H 0.13985 0.59002 0.01336 0.0
C680 C 0.06307 0.55933 0.0264 0.0
C681 C 0.06171 0.55471 0.00282 0.0
C682 C 0.08227 0.57257 0.03669 0.0
C683 C 0.13943 0.60093 0.02558 0.0
H684 H 0.20235 0.68025 0.10366 0.0
H685 H 0.17166 0.64732 0.0925 0.0
H686 H 0.17248 0.61984 0.02639 0.0
H687 H 0.07903 0.56011 0.97133 0.0
H688 H 0.11245 0.58335 0.98895 0.0
H689 H 0.10668 0.61153 0.05597 0.0
C690 C 0.18214 0.65715 0.0792 0.0
C691 C 0.15814 0.61795 0.03309 0.0
C692 C 0.19969 0.67592 0.08557 0.0
C693 C 0.07982 0.56307 0.98974 0.0
C694 C 0.09899 0.57636 -8e-05 0.0
C695 C 0.12083 0.61265 0.04981 0.0
C696 C 0.17795 0.65131 0.05587 0.0
C697 C 0.15834 0.63245 0.04899 0.0
C698 C 0.10046 0.58173 0.02346 0.0
C699 C 0.12047 0.59829 0.03346 0.0
H700 H 0.21959 0.69334 0.03205 0.0
H701 H 0.18898 0.66026 0.02092 0.0
H702 H 0.13923 0.64051 0.06966 0.0
H703 H 0.04922 0.55384 0.03657 0.0
H704 H 0.08274 0.57616 0.05488 0.0
C705 C 0.29264 0.44385 0.01995 0.0
C706 C 0.28545 0.458 0.02271 0.0
C707 C 0.31334 0.45107 0.01483 0.0
C708 C 0.36383 0.49527 0.02576 0.0
H709 H 0.38236 0.46822 0.98207 0.0
C710 C 0.44577 0.50122 0.99951 0.0
C711 C 0.45028 0.49491 0.02056 0.0
C712 C 0.42648 0.49965 0.99598 0.0
C713 C 0.37742 0.47614 0.99403 0.0
H714 H 0.29409 0.49079 0.02197 0.0
H715 H 0.33052 0.50348 0.0136 0.0
H716 H 0.34608 0.45944 0.98186 0.0
H717 H 0.43845 0.4827 0.0546 0.0
H718 H 0.40526 0.48054 0.04859 0.0
H719 H 0.39482 0.51091 0.03892 0.0
C720 C 0.32004 0.48679 0.0151 0.0
C721 C 0.35672 0.47104 0.99404 0.0
C722 C 0.29922 0.47952 0.01985 0.0
C723 C 0.43539 0.48745 0.03809 0.0
C724 C 0.41645 0.48637 0.03476 0.0
C725 C 0.3844 0.50008 0.02601 0.0
C726 C 0.32732 0.47262 0.01275 0.0
C727 C 0.34965 0.48021 0.01026 0.0
C728 C 0.41178 0.49235 0.0137 0.0
C729 C 0.39123 0.49019 0.01051 0.0
H730 H 0.2823 0.42719 0.02211 0.0
H731 H 0.3186 0.43983 0.01342 0.0
H732 H 0.35876 0.50244 0.03857 0.0
H733 H 0.457 0.50708 0.98573 0.0
H734 H 0.42311 0.5043 0.97958 0.0
C735 C 0.48105 0.80442 0.05632 0.0
C736 C 0.49868 0.80933 0.06956 0.0
C737 C 0.47572 0.81984 0.05185 0.0
C738 C 0.48305 0.87038 0.07287 0.0
H739 H 0.4815 0.88392 0.00869 0.0
C740 C 0.50578 0.95325 0.04318 0.0
C741 C 0.49912 0.95623 0.02166 0.0
C742 C 0.49909 0.93301 0.05131 0.0
C743 C 0.48126 0.88016 0.02675 0.0
H744 H 0.52416 0.8338 0.08899 0.0
H745 H 0.51459 0.86039 0.08178 0.0
H746 H 0.48191 0.85211 0.01853 0.0
H747 H 0.48001 0.94065 0.99191 0.0
H748 H 0.46703 0.9053 0.00668 0.0
H749 H 0.48264 0.89845 0.08125 0.0
C750 C 0.50494 0.8448 0.07474 0.0
C751 C 0.4816 0.86188 0.03234 0.0
C752 C 0.51049 0.82962 0.07873 0.0
C753 C 0.48473 0.93872 0.00899 0.0
C754 C 0.47771 0.91845 0.01726 0.0
C755 C 0.48237 0.88849 0.06732 0.0
C756 C 0.48765 0.84019 0.06107 0.0
C757 C 0.48323 0.8572 0.05541 0.0
C758 C 0.48562 0.91528 0.03799 0.0
C759 C 0.48226 0.89408 0.04414 0.0
H760 H 0.47172 0.7889 0.04898 0.0
H761 H 0.46235 0.81593 0.04117 0.0
H762 H 0.48408 0.86701 0.09084 0.0
H763 H 0.51754 0.96652 0.0528 0.0
H764 H 0.50586 0.93143 0.06715 0.0
C765 C 0.95986 0.15421 0.36148 0.0
C766 C 0.95932 0.1367 0.37172 0.0
C767 C 0.97852 0.17104 0.35397 0.0
C768 C 0.03237 0.19789 0.37002 0.0
H769 H 0.04037 0.23079 0.31492 0.0
C770 C 0.08791 0.28615 0.36491 0.0
C771 C 0.10432 0.29271 0.34924 0.0
C772 C 0.07124 0.26575 0.36417 0.0
C773 C 0.03839 0.22158 0.33021 0.0
H774 H 0.97768 0.12267 0.38128 0.0
H775 H 0.01046 0.15233 0.36846 0.0
H776 H 0.00893 0.19643 0.31895 0.0
H777 H 0.11555 0.28305 0.31989 0.0
H778 H 0.08577 0.24723 0.31827 0.0
H779 H 0.06119 0.22351 0.38187 0.0
C780 C 0.99639 0.15291 0.36612 0.0
C781 C 0.02044 0.20204 0.33257 0.0
C782 C 0.97766 0.13592 0.37332 0.0
C783 C 0.1032 0.27849 0.33222 0.0
C784 C 0.08622 0.25806 0.33125 0.0
C785 C 0.05007 0.21751 0.36783 0.0
C786 C 0.99707 0.17084 0.35686 0.0
C787 C 0.01712 0.19016 0.35269 0.0
C788 C 0.07034 0.25148 0.34754 0.0
C789 C 0.05305 0.22965 0.34811 0.0
H790 H 0.94591 0.15515 0.36 0.0
H791 H 0.97858 0.18471 0.34709 0.0
H792 H 0.03013 0.18923 0.38583 0.0
H793 H 0.08823 0.29656 0.37834 0.0
H794 H 0.05909 0.26101 0.37682 0.0
C795 C 0.86001 0.82283 0.37933 0.0
C796 C 0.86652 0.81036 0.36786 0.0
C797 C 0.84624 0.82777 0.36862 0.0
C798 C 0.80273 0.80432 0.33101 0.0
H799 H 0.80722 0.85898 0.32875 0.0
C800 C 0.73026 0.80852 0.31359 0.0
C801 C 0.72775 0.82252 0.32774 0.0
C802 C 0.74978 0.81076 0.31068 0.0
C803 C 0.8056 0.84356 0.32938 0.0
H804 H 0.86425 0.79366 0.33617 0.0
H805 H 0.83957 0.80175 0.3177 0.0
H806 H 0.83719 0.85604 0.33993 0.0
H807 H 0.74348 0.85036 0.349 0.0
H808 H 0.77728 0.85373 0.34514 0.0
H809 H 0.77098 0.79141 0.32262 0.0
C810 C 0.84543 0.80799 0.33476 0.0
C811 C 0.82284 0.84196 0.33561 0.0
C812 C 0.85952 0.8034 0.34528 0.0
C813 C 0.74517 0.8396 0.33766 0.0
C814 C 0.76461 0.84148 0.33539 0.0
C815 C 0.78541 0.80584 0.32534 0.0
C816 C 0.83847 0.81997 0.34647 0.0
C817 C 0.8214 0.82227 0.33689 0.0
C818 C 0.76703 0.82648 0.32274 0.0
C819 C 0.78641 0.82544 0.32494 0.0
H820 H 0.86528 0.82842 0.39672 0.0
H821 H 0.84089 0.83683 0.37808 0.0
H822 H 0.80118 0.78894 0.33214 0.0
H823 H 0.71696 0.79525 0.30574 0.0
H824 H 0.75107 0.79938 0.30004 0.0
C825 C 0.15897 0.02823 0.37951 0.0
C826 C 0.15504 0.03189 0.40221 0.0
C827 C 0.15626 0.00865 0.37312 0.0
C828 C 0.15776 0.96445 0.40061 0.0
H829 H 0.14665 0.94177 0.33844 0.0
C830 C 0.19532 0.92055 0.36168 0.0
C831 C 0.18453 0.90435 0.34567 0.0
C832 C 0.18608 0.93108 0.37153 0.0
C833 C 0.1494 0.94761 0.35602 0.0
H834 H 0.14352 0.01755 0.43545 0.0
H835 H 0.13817 0.98326 0.42419 0.0
H836 H 0.13965 0.9698 0.34855 0.0
H837 H 0.15567 0.88624 0.32731 0.0
H838 H 0.13925 0.90481 0.34451 0.0
H839 H 0.16799 0.94265 0.40792 0.0
C840 C 0.14392 0.99558 0.41144 0.0
C841 C 0.14564 0.96388 0.36174 0.0
C842 C 0.1468 0.01516 0.41786 0.0
C843 C 0.16401 0.89828 0.34018 0.0
C844 C 0.15479 0.9091 0.34977 0.0
C845 C 0.16152 0.94823 0.3949 0.0
C846 C 0.14943 0.9923 0.38928 0.0
C847 C 0.15034 0.97294 0.38394 0.0
C848 C 0.16596 0.92602 0.36508 0.0
C849 C 0.15802 0.94007 0.37234 0.0
H850 H 0.16554 0.04091 0.36719 0.0
H851 H 0.16082 0.00681 0.35595 0.0
H852 H 0.16177 0.97108 0.41783 0.0
H853 H 0.21133 0.92576 0.36574 0.0
H854 H 0.19525 0.94418 0.38298 0.0
C855 C 0.47555 0.66903 0.27766 0.0
C856 C 0.46972 0.65291 0.29382 0.0
C857 C 0.49122 0.6894 0.28287 0.0
C858 C 0.52729 0.72334 0.3298 0.0
H859 H 0.56709 0.74342 0.28009 0.0
C860 C 0.61264 0.78465 0.34653 0.0
C861 C 0.62559 0.77721 0.33896 0.0
C862 C 0.59228 0.77543 0.33831 0.0
C863 C 0.55607 0.7382 0.29408 0.0
H864 H 0.47456 0.64567 0.32861 0.0
H865 H 0.50218 0.681 0.33763 0.0
H866 H 0.53204 0.71543 0.27265 0.0
H867 H 0.62812 0.75519 0.31642 0.0
H868 H 0.59295 0.73936 0.30177 0.0
H869 H 0.55198 0.74506 0.35161 0.0
C870 C 0.49449 0.67817 0.32106 0.0
C871 C 0.53585 0.72224 0.28979 0.0
C872 C 0.47865 0.65785 0.31592 0.0
C873 C 0.61839 0.76129 0.32227 0.0
C874 C 0.59828 0.75233 0.31381 0.0
C875 C 0.54759 0.73927 0.33411 0.0
C876 C 0.50158 0.694 0.30425 0.0
C877 C 0.52142 0.71397 0.30782 0.0
C878 C 0.58475 0.7588 0.32227 0.0
C879 C 0.56242 0.74618 0.31651 0.0
H880 H 0.46873 0.66563 0.26056 0.0
H881 H 0.49592 0.70128 0.26971 0.0
H882 H 0.51648 0.71764 0.34398 0.0
H883 H 0.61776 0.7965 0.35992 0.0
H884 H 0.5822 0.7807 0.34517 0.0
C885 C 0.39115 0.86534 0.33521 0.0
C886 C 0.40563 0.88549 0.32755 0.0
C887 C 0.37214 0.86137 0.34407 0.0
C888 C 0.34471 0.88752 0.36752 0.0
H889 H 0.29623 0.84205 0.33821 0.0
C890 C 0.27097 0.89011 0.35133 0.0
C891 C 0.25169 0.87162 0.3511 0.0
C892 C 0.28899 0.88948 0.35557 0.0
C893 C 0.30951 0.85449 0.34705 0.0
H894 H 0.41208 0.91745 0.32416 0.0
H895 H 0.37903 0.91058 0.33955 0.0
H896 H 0.32991 0.8452 0.33225 0.0
H897 H 0.23604 0.83805 0.35642 0.0
H898 H 0.26772 0.83692 0.36379 0.0
H899 H 0.32447 0.89732 0.38157 0.0
C900 C 0.38227 0.89783 0.33877 0.0
C901 C 0.32884 0.85632 0.34359 0.0
C902 C 0.4011 0.90173 0.32971 0.0
C903 C 0.25069 0.85257 0.35652 0.0
C904 C 0.26882 0.8519 0.36057 0.0
C905 C 0.32541 0.88566 0.37105 0.0
C906 C 0.36745 0.87757 0.34575 0.0
C907 C 0.34672 0.87332 0.35306 0.0
C908 C 0.28821 0.87031 0.35958 0.0
C909 C 0.30771 0.86961 0.3601 0.0
H910 H 0.39427 0.85254 0.33367 0.0
H911 H 0.36103 0.84562 0.34938 0.0
H912 H 0.35819 0.90056 0.3754 0.0
H913 H 0.27226 0.90506 0.34737 0.0
H914 H 0.30363 0.90393 0.35439 0.0
C915 C 0.16722 0.53503 0.29841 0.0
C916 C 0.18378 0.55159 0.28686 0.0
C917 C 0.16847 0.5176 0.30556 0.0
C918 C 0.1914 0.48583 0.29115 0.0
H919 H 0.17707 0.46504 0.35361 0.0
C920 C 0.16403 0.40047 0.32186 0.0
C921 C 0.17123 0.39838 0.34349 0.0
C922 C 0.17 0.42041 0.31308 0.0
C923 C 0.18132 0.47074 0.33615 0.0
H924 H 0.21456 0.56296 0.27361 0.0
H925 H 0.21659 0.53209 0.28569 0.0
H926 H 0.17832 0.49768 0.34302 0.0
H927 H 0.19079 0.41521 0.37257 0.0
H928 H 0.20128 0.44999 0.35733 0.0
H929 H 0.19354 0.45831 0.2841 0.0
C930 C 0.20278 0.53279 0.28944 0.0
C931 C 0.18189 0.48935 0.33008 0.0
C932 C 0.2017 0.55048 0.28273 0.0
C933 C 0.18541 0.41646 0.35559 0.0
C934 C 0.19121 0.43633 0.347 0.0
C935 C 0.19043 0.46692 0.29712 0.0
C936 C 0.18613 0.51614 0.30084 0.0
C937 C 0.18682 0.49704 0.3075 0.0
C938 C 0.18288 0.43851 0.32612 0.0
C939 C 0.18533 0.45917 0.3197 0.0
H940 H 0.15319 0.53548 0.30162 0.0
H941 H 0.15536 0.50495 0.3142 0.0
H942 H 0.1951 0.49134 0.27356 0.0
H943 H 0.15243 0.38674 0.3127 0.0
H944 H 0.16318 0.42158 0.29705 0.0
C945 C 0.38594 0.52367 0.32681 0.0
C946 C 0.38841 0.54274 0.31886 0.0
C947 C 0.36641 0.50726 0.33274 0.0
C948 C 0.31278 0.4854 0.3168 0.0
H949 H 0.30186 0.44958 0.36999 0.0
C950 C 0.23889 0.40554 0.35345 0.0
C951 C 0.23644 0.39168 0.33534 0.0
C952 C 0.25648 0.4256 0.35454 0.0
C953 C 0.30464 0.45963 0.35526 0.0
H954 H 0.37249 0.5598 0.31121 0.0
H955 H 0.33819 0.53085 0.32105 0.0
H956 H 0.33505 0.48238 0.36697 0.0
H957 H 0.25045 0.38825 0.30405 0.0
H958 H 0.28055 0.42315 0.30577 0.0
H959 H 0.28292 0.46208 0.30445 0.0
C960 C 0.35143 0.52873 0.32294 0.0
C961 C 0.32361 0.47827 0.35344 0.0
C962 C 0.37105 0.54529 0.31737 0.0
C963 C 0.25185 0.39836 0.31838 0.0
C964 C 0.26906 0.41841 0.31922 0.0
C965 C 0.29403 0.46663 0.31842 0.0
C966 C 0.3489 0.50947 0.33045 0.0
C967 C 0.32799 0.49114 0.33398 0.0
C968 C 0.27153 0.43222 0.33722 0.0
C969 C 0.28995 0.45342 0.33745 0.0
H970 H 0.39909 0.52133 0.32806 0.0
H971 H 0.36489 0.49252 0.3382 0.0
H972 H 0.3158 0.49489 0.30152 0.0
H973 H 0.22727 0.4009 0.36672 0.0
H974 H 0.25813 0.43606 0.36859 0.0
C975 C 0.52593 0.89675 0.33468 0.0
C976 C 0.5045 0.88523 0.33765 0.0
C977 C 0.53858 0.88992 0.34436 0.0
C978 C 0.5384 0.84285 0.3651 0.0
H979 H 0.59334 0.88452 0.38528 0.0
C980 C 0.62546 0.85689 0.38759 0.0
C981 C 0.62629 0.84482 0.36937 0.0
C982 C 0.6073 0.85734 0.39182 0.0
C983 C 0.57794 0.87245 0.38034 0.0
H984 H 0.47935 0.85752 0.35321 0.0
H985 H 0.50159 0.84558 0.3704 0.0
H986 H 0.56802 0.89492 0.37742 0.0
H987 H 0.60897 0.82316 0.34187 0.0
H988 H 0.57753 0.82425 0.34863 0.0
H989 H 0.54841 0.82036 0.36799 0.0
C990 C 0.50858 0.85985 0.36041 0.0
C991 C 0.56348 0.87856 0.37541 0.0
C992 C 0.49587 0.86672 0.35064 0.0
C993 C 0.60842 0.83209 0.35646 0.0
C994 C 0.59039 0.83282 0.36036 0.0
C995 C 0.55285 0.83666 0.37029 0.0
C996 C 0.5301 0.87141 0.35738 0.0
C997 C 0.54386 0.86403 0.36674 0.0
C998 C 0.58993 0.8463 0.37733 0.0
C999 C 0.5731 0.85156 0.37704 0.0
H1000 H 0.53293 0.911 0.32463 0.0
H1001 H 0.55501 0.89897 0.34119 0.0
H1002 H 0.52338 0.83122 0.35854 0.0
H1003 H 0.6392 0.86697 0.39758 0.0
H1004 H 0.60737 0.86746 0.40544 0.0
C1005 C 0.21012 0.67819 0.26163 0.0
C1006 C 0.21208 0.66442 0.27666 0.0
C1007 C 0.21071 0.69627 0.27001 0.0
C1008 C 0.20448 0.71958 0.32445 0.0
H1009 H 0.22214 0.76829 0.28559 0.0
C1010 C 0.20025 0.79103 0.3564 0.0
C1011 C 0.18804 0.79586 0.34215 0.0
C1012 C 0.20807 0.77855 0.34814 0.0
C1013 C 0.21725 0.75483 0.29665 0.0
H1014 H 0.21702 0.65914 0.31224 0.0
H1015 H 0.21897 0.6912 0.32691 0.0
H1016 H 0.22687 0.73947 0.2725 0.0
H1017 H 0.17422 0.79141 0.30836 0.0
H1018 H 0.18876 0.77045 0.29335 0.0
H1019 H 0.19509 0.73517 0.34865 0.0
C1020 C 0.21626 0.68775 0.30865 0.0
C1021 C 0.21978 0.73817 0.28911 0.0
C1022 C 0.2153 0.6694 0.30026 0.0
C1023 C 0.18457 0.78887 0.3192 0.0
C1024 C 0.19263 0.77661 0.31078 0.0
C1025 C 0.20232 0.73639 0.33213 0.0
C1026 C 0.21367 0.70133 0.29368 0.0
C1027 C 0.213 0.72006 0.30268 0.0
C1028 C 0.20374 0.77061 0.32547 0.0
C1029 C 0.20834 0.75403 0.31816 0.0
H1030 H 0.20751 0.67465 0.24335 0.0
H1031 H 0.2082 0.70591 0.25789 0.0
H1032 H 0.19868 0.70589 0.3353 0.0
H1033 H 0.20258 0.79575 0.37439 0.0
H1034 H 0.21662 0.77422 0.35982 0.0
C1035 C 0.86706 0.01174 0.41305 0.0
C1036 C 0.88129 0.02484 0.39656 0.0
C1037 C 0.85118 0.99177 0.40693 0.0
C1038 C 0.82166 0.96158 0.35548 0.0
H1039 H 0.79499 0.91737 0.40063 0.0
C1040 C 0.74367 0.8892 0.33538 0.0
C1041 C 0.72875 0.88794 0.35088 0.0
C1042 C 0.76465 0.90088 0.34111 0.0
C1043 C 0.80244 0.92948 0.38777 0.0
H1044 H 0.89087 0.02701 0.36097 0.0
H1045 H 0.86357 0.99179 0.35034 0.0
H1046 H 0.82841 0.94805 0.40967 0.0
H1047 H 0.72365 0.89725 0.38448 0.0
H1048 H 0.7602 0.91688 0.39503 0.0
H1049 H 0.79552 0.94305 0.33374 0.0
C1050 C 0.86421 0.99713 0.3679 0.0
C1051 C 0.82148 0.94718 0.39298 0.0
C1052 C 0.87995 0.01729 0.37399 0.0
C1053 C 0.7349 0.89734 0.37269 0.0
C1054 C 0.75582 0.90869 0.37861 0.0
C1055 C 0.80282 0.94374 0.35015 0.0
C1056 C 0.84932 0.98424 0.38418 0.0
C1057 C 0.83099 0.96385 0.37724 0.0
C1058 C 0.77093 0.91139 0.36247 0.0
C1059 C 0.7927 0.92784 0.36651 0.0
H1060 H 0.86775 0.01725 0.43057 0.0
H1061 H 0.8399 0.98264 0.41991 0.0
H1062 H 0.82822 0.97409 0.34298 0.0
H1063 H 0.73919 0.88245 0.31824 0.0
H1064 H 0.77599 0.90272 0.32838 0.0
C1065 C 0.96687 0.81008 0.34721 0.0
C1066 C 0.95713 0.79439 0.3639 0.0
C1067 C 0.98606 0.81467 0.33829 0.0
C1068 C 0.0212 0.79263 0.33416 0.0
H1069 H 0.06371 0.85037 0.32479 0.0
C1070 C 0.11457 0.84306 0.33727 0.0
C1071 C 0.11849 0.82766 0.32854 0.0
C1072 C 0.09493 0.84075 0.33504 0.0
C1073 C 0.05204 0.83415 0.32736 0.0
H1074 H 0.95972 0.77142 0.38453 0.0
H1075 H 0.9933 0.77977 0.36967 0.0
H1076 H 0.02897 0.84228 0.33519 0.0
H1077 H 0.10587 0.79874 0.30908 0.0
H1078 H 0.07193 0.79529 0.30373 0.0
H1079 H 0.04432 0.78446 0.32818 0.0
C1080 C 0.98604 0.78817 0.36285 0.0
C1081 C 0.03201 0.82949 0.33305 0.0
C1082 C 0.96686 0.78348 0.37155 0.0
C1083 C 0.1031 0.81082 0.3159 0.0
C1084 C 0.08362 0.80875 0.31315 0.0
C1085 C 0.0412 0.79729 0.32883 0.0
C1086 C 0.99588 0.80374 0.34601 0.0
C1087 C 0.01649 0.80869 0.33715 0.0
C1088 C 0.07892 0.82307 0.32377 0.0
C1089 C 0.05706 0.81815 0.32587 0.0
H1090 H 0.95966 0.81871 0.34095 0.0
H1091 H 0.9931 0.82664 0.32522 0.0
H1092 H 0.00953 0.77639 0.33661 0.0
H1093 H 0.12611 0.8559 0.34757 0.0
H1094 H 0.092 0.85202 0.3437 0.0
C1095 C 0.18632 0.16178 0.39704 0.0
C1096 C 0.17105 0.14097 0.39254 0.0
C1097 C 0.18187 0.17798 0.39549 0.0
C1098 C 0.14884 0.19378 0.36639 0.0
H1099 H 0.17204 0.23876 0.41168 0.0
C1100 C 0.15333 0.27234 0.34704 0.0
C1101 C 0.17343 0.28927 0.35002 0.0
C1102 C 0.14748 0.25304 0.35751 0.0
C1103 C 0.16538 0.22633 0.3989 0.0
H1104 H 0.13905 0.12072 0.38271 0.0
H1105 H 0.1313 0.14938 0.37937 0.0
H1106 H 0.17258 0.20647 0.41899 0.0
H1107 H 0.20275 0.29994 0.36711 0.0
H1108 H 0.19264 0.26672 0.38571 0.0
H1109 H 0.14275 0.21406 0.34566 0.0
C1110 C 0.14671 0.15301 0.38438 0.0
C1111 C 0.16568 0.20782 0.4031 0.0
C1112 C 0.15112 0.13664 0.3863 0.0
C1113 C 0.18702 0.28719 0.36497 0.0
C1114 C 0.18118 0.26807 0.37559 0.0
C1115 C 0.14867 0.21238 0.3621 0.0
C1116 C 0.16205 0.17386 0.38912 0.0
C1117 C 0.15811 0.19164 0.38653 0.0
C1118 C 0.16168 0.25044 0.37112 0.0
C1119 C 0.15765 0.22921 0.37793 0.0
H1120 H 0.20182 0.16557 0.40186 0.0
H1121 H 0.19414 0.19386 0.39883 0.0
H1122 H 0.14296 0.18164 0.35326 0.0
H1123 H 0.14277 0.27349 0.33514 0.0
H1124 H 0.13227 0.23987 0.35391 0.0
C1125 C 0.6402 0.46624 0.71387 0.0
C1126 C 0.62361 0.46924 0.71952 0.0
C1127 C 0.65795 0.48233 0.70347 0.0
C1128 C 0.67805 0.53247 0.67194 0.0
H1129 H 0.7297 0.54825 0.70328 0.0
C1130 C 0.74607 0.61657 0.67275 0.0
C1131 C 0.76645 0.62053 0.67477 0.0
C1132 C 0.72944 0.59609 0.67249 0.0
C1133 C 0.71555 0.54385 0.6939 0.0
H1134 H 0.61207 0.4909 0.71764 0.0
H1135 H 0.6428 0.51881 0.69935 0.0
H1136 H 0.69872 0.51558 0.71328 0.0
H1137 H 0.78527 0.60596 0.67695 0.0
H1138 H 0.75622 0.57001 0.67611 0.0
H1139 H 0.6947 0.56093 0.65295 0.0
C1140 C 0.64223 0.50413 0.70295 0.0
C1141 C 0.69775 0.52511 0.6997 0.0
C1142 C 0.62469 0.48821 0.71359 0.0
C1143 C 0.76982 0.60343 0.67519 0.0
C1144 C 0.75312 0.58284 0.675 0.0
C1145 C 0.69585 0.55112 0.66603 0.0
C1146 C 0.65925 0.50156 0.69817 0.0
C1147 C 0.67867 0.51955 0.68931 0.0
C1148 C 0.73267 0.57893 0.67425 0.0
C1149 C 0.7147 0.55742 0.67749 0.0
H1150 H 0.63979 0.45179 0.71834 0.0
H1151 H 0.67077 0.47986 0.69988 0.0
H1152 H 0.66364 0.52843 0.66334 0.0
H1153 H 0.74288 0.62936 0.67232 0.0
H1154 H 0.71398 0.59382 0.67218 0.0
C1155 C 0.52746 0.16119 0.71253 0.0
C1156 C 0.53511 0.1492 0.70223 0.0
C1157 C 0.5129 0.16443 0.70097 0.0
C1158 C 0.46945 0.13707 0.66423 0.0
H1159 H 0.47085 0.19001 0.65723 0.0
C1160 C 0.39435 0.13613 0.64584 0.0
C1161 C 0.39146 0.15052 0.65881 0.0
C1162 C 0.41414 0.13901 0.64301 0.0
C1163 C 0.4701 0.17506 0.65918 0.0
H1164 H 0.53402 0.13157 0.67177 0.0
H1165 H 0.50789 0.13663 0.65183 0.0
H1166 H 0.50205 0.18968 0.6691 0.0
H1167 H 0.40671 0.17944 0.67834 0.0
H1168 H 0.44098 0.1841 0.6745 0.0
H1169 H 0.43737 0.12217 0.65656 0.0
C1170 C 0.51351 0.14384 0.6686 0.0
C1171 C 0.48804 0.17494 0.66579 0.0
C1172 C 0.5284 0.14097 0.67995 0.0
C1173 C 0.40868 0.16843 0.66776 0.0
C1174 C 0.4284 0.17104 0.66553 0.0
C1175 C 0.45143 0.13714 0.6582 0.0
C1176 C 0.50547 0.15537 0.67915 0.0
C1177 C 0.48769 0.15592 0.66883 0.0
C1178 C 0.43131 0.15589 0.65394 0.0
C1179 C 0.45132 0.15612 0.65618 0.0
H1180 H 0.53247 0.16769 0.72969 0.0
H1181 H 0.50671 0.17316 0.70953 0.0
H1182 H 0.46879 0.12219 0.66671 0.0
H1183 H 0.3812 0.12219 0.63878 0.0
H1184 H 0.41577 0.12737 0.63329 0.0
C1185 C 0.82869 0.36418 0.71078 0.0
C1186 C 0.82105 0.36504 0.73258 0.0
C1187 C 0.82649 0.34528 0.70245 0.0
C1188 C 0.82152 0.29664 0.72606 0.0
H1189 H 0.8202 0.28202 0.66155 0.0
C1190 C 0.86035 0.25226 0.69111 0.0
C1191 C 0.85199 0.23906 0.67186 0.0
C1192 C 0.85077 0.26281 0.7001 0.0
C1193 C 0.82019 0.2856 0.67969 0.0
H1194 H 0.80375 0.34674 0.76196 0.0
H1195 H 0.79924 0.31367 0.74718 0.0
H1196 H 0.81324 0.30991 0.67244 0.0
H1197 H 0.82694 0.22603 0.64707 0.0
H1198 H 0.80991 0.24444 0.66286 0.0
H1199 H 0.82887 0.27266 0.73328 0.0
C1200 C 0.80743 0.32757 0.73672 0.0
C1201 C 0.81646 0.30179 0.6859 0.0
C1202 C 0.8098 0.34645 0.74509 0.0
C1203 C 0.83335 0.23577 0.66231 0.0
C1204 C 0.82381 0.24652 0.67115 0.0
C1205 C 0.82524 0.2805 0.71985 0.0
C1206 C 0.81651 0.3269 0.71576 0.0
C1207 C 0.8176 0.30788 0.70914 0.0
C1208 C 0.83282 0.26072 0.68968 0.0
C1209 C 0.8252 0.27516 0.69655 0.0
H1210 H 0.83765 0.37838 0.70096 0.0
H1211 H 0.83382 0.34545 0.68632 0.0
H1212 H 0.82277 0.30096 0.74411 0.0
H1213 H 0.87499 0.25538 0.69837 0.0
H1214 H 0.8583 0.27377 0.71417 0.0
C1215 C 0.14006 0.99686 0.60368 0.0
C1216 C 0.13375 0.9803 0.61935 0.0
C1217 C 0.15599 0.01695 0.60942 0.0
C1218 C 0.19135 0.04981 0.65721 0.0
H1219 H 0.23209 0.07075 0.60845 0.0
C1220 C 0.27617 0.11292 0.67501 0.0
C1221 C 0.28939 0.10545 0.66855 0.0
C1222 C 0.25591 0.10324 0.66637 0.0
C1223 C 0.22079 0.06531 0.62216 0.0
H1224 H 0.13811 0.97203 0.65386 0.0
H1225 H 0.16614 0.00697 0.66384 0.0
H1226 H 0.19726 0.04257 0.60019 0.0
H1227 H 0.29256 0.08306 0.64733 0.0
H1228 H 0.25763 0.06656 0.6318 0.0
H1229 H 0.21552 0.07167 0.67953 0.0
C1230 C 0.15864 0.00463 0.64722 0.0
C1231 C 0.20072 0.04923 0.61741 0.0
C1232 C 0.14256 0.98455 0.64152 0.0
C1233 C 0.28262 0.08915 0.65237 0.0
C1234 C 0.26265 0.07979 0.64342 0.0
C1235 C 0.21148 0.06595 0.66196 0.0
C1236 C 0.16611 0.02087 0.63089 0.0
C1237 C 0.18595 0.0407 0.63508 0.0
C1238 C 0.24881 0.08621 0.6509 0.0
C1239 C 0.22662 0.07323 0.64468 0.0
H1240 H 0.13334 0.99402 0.58654 0.0
H1241 H 0.16102 0.02918 0.59662 0.0
H1242 H 0.18028 0.04385 0.67113 0.0
H1243 H 0.28098 0.12517 0.6879 0.0
H1244 H 0.24557 0.10849 0.67243 0.0
C1245 C 0.06846 0.21928 0.66551 0.0
C1246 C 0.07077 0.21055 0.64493 0.0
C1247 C 0.04913 0.21604 0.67197 0.0
C1248 C 0.99361 0.18217 0.66545 0.0
H1249 H 0.99086 0.23299 0.67254 0.0
C1250 C 0.91679 0.18274 0.66216 0.0
C1251 C 0.91579 0.19946 0.67239 0.0
C1252 C 0.93504 0.18192 0.66318 0.0
C1253 C 0.99126 0.21855 0.67131 0.0
H1254 H 0.05469 0.19104 0.61537 0.0
H1255 H 0.02059 0.18496 0.62699 0.0
H1256 H 0.02394 0.23532 0.66601 0.0
H1257 H 0.93227 0.2276 0.69304 0.0
H1258 H 0.96369 0.22552 0.69634 0.0
H1259 H 0.96101 0.1653 0.67114 0.0
C1260 C 0.03383 0.19439 0.63798 0.0
C1261 C 0.01029 0.21997 0.66733 0.0
C1262 C 0.05328 0.19797 0.63128 0.0
C1263 C 0.93275 0.21455 0.68505 0.0
C1264 C 0.95083 0.21347 0.6866 0.0
C1265 C 0.97455 0.18071 0.66994 0.0
C1266 C 0.03168 0.2037 0.65818 0.0
C1267 C 0.0116 0.20183 0.66401 0.0
C1268 C 0.95258 0.1977 0.67477 0.0
C1269 C 0.97304 0.19891 0.67254 0.0
H1270 H 0.08175 0.22917 0.67623 0.0
H1271 H 0.04782 0.22338 0.68761 0.0
H1272 H 0.99431 0.16796 0.66311 0.0
H1273 H 0.90403 0.17123 0.65181 0.0
H1274 H 0.9357 0.16966 0.65358 0.0
C1275 C 0.85869 0.87885 0.63991 0.0
C1276 C 0.86323 0.88705 0.61752 0.0
C1277 C 0.86057 0.86144 0.64567 0.0
C1278 C 0.85826 0.81574 0.61639 0.0
H1279 H 0.86669 0.80188 0.67837 0.0
C1280 C 0.81849 0.7319 0.65034 0.0
C1281 C 0.82799 0.7262 0.66743 0.0
C1282 C 0.82839 0.7522 0.64154 0.0
C1283 C 0.86468 0.80558 0.66084 0.0
H1284 H 0.87489 0.88472 0.58419 0.0
H1285 H 0.87897 0.85491 0.5944 0.0
H1286 H 0.87501 0.83759 0.66966 0.0
H1287 H 0.85536 0.73689 0.68852 0.0
H1288 H 0.87301 0.77255 0.6729 0.0
H1289 H 0.84768 0.78371 0.60764 0.0
C1290 C 0.87333 0.86139 0.60737 0.0
C1291 C 0.86919 0.82603 0.65592 0.0
C1292 C 0.87122 0.8786 0.60156 0.0
C1293 C 0.84801 0.74081 0.67484 0.0
C1294 C 0.85792 0.76128 0.66617 0.0
C1295 C 0.85383 0.79536 0.62129 0.0
C1296 C 0.86719 0.85199 0.62917 0.0
C1297 C 0.86547 0.83124 0.63378 0.0
C1298 C 0.84791 0.7674 0.64996 0.0
C1299 C 0.85634 0.78983 0.64374 0.0
H1300 H 0.85226 0.88493 0.65242 0.0
H1301 H 0.85552 0.8546 0.66256 0.0
H1302 H 0.85497 0.81898 0.59918 0.0
H1303 H 0.80286 0.72097 0.64476 0.0
H1304 H 0.82004 0.75633 0.62934 0.0
C1305 C 0.0366 0.87532 0.6535 0.0
C1306 C 0.04958 0.87003 0.64133 0.0
C1307 C 0.01786 0.85957 0.66258 0.0
C1308 C 0.99023 0.80259 0.67698 0.0
H1309 H 0.94103 0.80734 0.67316 0.0
C1310 C 0.89722 0.74389 0.67153 0.0
C1311 C 0.89579 0.72798 0.68591 0.0
C1312 C 0.91534 0.76341 0.67102 0.0
C1313 C 0.95459 0.80568 0.67429 0.0
H1314 H 0.05314 0.84432 0.62888 0.0
H1315 H 0.02049 0.81701 0.64394 0.0
H1316 H 0.9742 0.83675 0.66164 0.0
H1317 H 0.91149 0.72008 0.71188 0.0
H1318 H 0.94273 0.75448 0.71212 0.0
H1319 H 0.97072 0.77121 0.68802 0.0
C1320 C 0.02482 0.83317 0.6472 0.0
C1321 C 0.97371 0.82271 0.66796 0.0
C1322 C 0.0435 0.84884 0.63835 0.0
C1323 C 0.91223 0.73223 0.7008 0.0
C1324 C 0.93022 0.75187 0.70064 0.0
C1325 C 0.97117 0.78555 0.683 0.0
C1326 C 0.01174 0.83826 0.65956 0.0
C1327 C 0.99172 0.82119 0.66869 0.0
C1328 C 0.9324 0.76744 0.685 0.0
C1329 C 0.95296 0.78665 0.68134 0.0
H1330 H 0.04093 0.89157 0.65608 0.0
H1331 H 0.00828 0.86409 0.67213 0.0
H1332 H 0.00379 0.80095 0.67833 0.0
H1333 H 0.88496 0.74071 0.65936 0.0
H1334 H 0.91638 0.77474 0.65849 0.0
C1335 C 0.19414 0.2328 0.67162 0.0
C1336 C 0.17265 0.22126 0.67402 0.0
C1337 C 0.20651 0.22545 0.68093 0.0
C1338 C 0.20468 0.17669 0.69844 0.0
H1339 H 0.26062 0.21614 0.71783 0.0
C1340 C 0.29067 0.18622 0.71616 0.0
C1341 C 0.29041 0.17427 0.6972 0.0
C1342 C 0.27316 0.18753 0.72153 0.0
C1343 C 0.24494 0.20467 0.71309 0.0
H1344 H 0.14715 0.19323 0.68865 0.0
H1345 H 0.16886 0.18048 0.70529 0.0
H1346 H 0.23619 0.22814 0.71239 0.0
H1347 H 0.27177 0.15344 0.66971 0.0
H1348 H 0.24145 0.1562 0.67835 0.0
H1349 H 0.21347 0.15318 0.69919 0.0
C1350 C 0.17614 0.19509 0.6959 0.0
C1351 C 0.23098 0.2117 0.70955 0.0
C1352 C 0.16372 0.20244 0.68647 0.0
C1353 C 0.27208 0.16243 0.68469 0.0
C1354 C 0.2547 0.16405 0.68973 0.0
C1355 C 0.2186 0.16956 0.70228 0.0
C1356 C 0.19768 0.20642 0.69303 0.0
C1357 C 0.21099 0.19803 0.70116 0.0
C1358 C 0.25535 0.17748 0.7075 0.0
C1359 C 0.23919 0.18365 0.70867 0.0
H1360 H 0.20137 0.2473 0.66201 0.0
H1361 H 0.22298 0.2344 0.67792 0.0
H1362 H 0.18938 0.16568 0.69203 0.0
H1363 H 0.30479 0.19557 0.72589 0.0
H1364 H 0.27407 0.19754 0.73574 0.0
C1365 C 0.84128 0.99111 0.61832 0.0
C1366 C 0.85442 0.98413 0.62661 0.0
C1367 C 0.84743 0.01234 0.61875 0.0
C1368 C 0.87616 0.05923 0.65148 0.0
H1369 H 0.86768 0.08569 0.59814 0.0
C1370 C 0.86805 0.13169 0.66407 0.0
C1371 C 0.85018 0.12934 0.65334 0.0
C1372 C 0.8766 0.11949 0.65688 0.0
C1373 C 0.8702 0.07862 0.61322 0.0
H1374 H 0.8843 0.99381 0.64201 0.0
H1375 H 0.89482 0.03129 0.64371 0.0
H1376 H 0.86676 0.0523 0.59367 0.0
H1377 H 0.82788 0.11356 0.62608 0.0
H1378 H 0.84253 0.09239 0.61345 0.0
H1379 H 0.87781 0.08445 0.67145 0.0
C1380 C 0.87993 0.0202 0.6364 0.0
C1381 C 0.86979 0.05956 0.6106 0.0
C1382 C 0.87393 0.99884 0.63543 0.0
C1383 C 0.84196 0.11595 0.63425 0.0
C1384 C 0.85042 0.10378 0.62706 0.0
C1385 C 0.87626 0.07817 0.65418 0.0
C1386 C 0.86671 0.0271 0.62794 0.0
C1387 C 0.87197 0.0493 0.62984 0.0
C1388 C 0.86721 0.10457 0.63903 0.0
C1389 C 0.87238 0.08766 0.63523 0.0
H1390 H 0.82616 0.98008 0.61143 0.0
H1391 H 0.83681 0.01718 0.61244 0.0
H1392 H 0.87777 0.05158 0.66661 0.0
H1393 H 0.87436 0.14164 0.67919 0.0
H1394 H 0.88973 0.1208 0.66626 0.0
C1395 C 0.51266 0.35023 0.74332 0.0
C1396 C 0.53151 0.36163 0.7318 0.0
C1397 C 0.49974 0.32898 0.73877 0.0
C1398 C 0.48458 0.29124 0.69253 0.0
H1399 H 0.45131 0.2528 0.74064 0.0
C1400 C 0.40787 0.21805 0.66964 0.0
C1401 C 0.39162 0.21737 0.6823 0.0
C1402 C 0.42827 0.23017 0.6775 0.0
C1403 C 0.46057 0.26323 0.72698 0.0
H1404 H 0.55193 0.35978 0.7067 0.0
H1405 H 0.52885 0.32233 0.69813 0.0
H1406 H 0.48224 0.2857 0.75096 0.0
H1407 H 0.38353 0.22822 0.71305 0.0
H1408 H 0.41885 0.24902 0.72708 0.0
H1409 H 0.4622 0.26953 0.66863 0.0
C1410 C 0.52429 0.32993 0.71096 0.0
C1411 C 0.47828 0.28206 0.73289 0.0
C1412 C 0.53748 0.35129 0.71586 0.0
C1413 C 0.39583 0.228 0.70343 0.0
C1414 C 0.4161 0.23994 0.7114 0.0
C1415 C 0.4668 0.27243 0.6866 0.0
C1416 C 0.50521 0.31862 0.72231 0.0
C1417 C 0.48991 0.2967 0.7158 0.0
C1418 C 0.43266 0.24192 0.69805 0.0
C1419 C 0.45405 0.25868 0.70385 0.0
H1420 H 0.50772 0.35787 0.75569 0.0
H1421 H 0.48501 0.32087 0.74749 0.0
H1422 H 0.49316 0.30224 0.67898 0.0
H1423 H 0.40493 0.21034 0.65297 0.0
H1424 H 0.44066 0.23126 0.66689 0.0
C1425 C 0.64029 0.13049 0.70768 0.0
C1426 C 0.63005 0.14122 0.7012 0.0
C1427 C 0.65886 0.13507 0.69732 0.0
C1428 C 0.70308 0.17561 0.66503 0.0
H1429 H 0.71262 0.1293 0.65399 0.0
C1430 C 0.76963 0.15335 0.63661 0.0
C1431 C 0.78598 0.16856 0.64991 0.0
C1432 C 0.75077 0.1529 0.63576 0.0
C1433 C 0.71022 0.14248 0.65637 0.0
H1434 H 0.63121 0.16534 0.67889 0.0
H1435 H 0.66371 0.17323 0.6605 0.0
H1436 H 0.67899 0.12229 0.66651 0.0
H1437 H 0.79606 0.19586 0.6717 0.0
H1438 H 0.76302 0.19479 0.67096 0.0
H1439 H 0.73444 0.19581 0.6548 0.0
C1440 C 0.65743 0.16137 0.67376 0.0
C1441 C 0.69093 0.13843 0.664 0.0
C1442 C 0.63879 0.1568 0.68422 0.0
C1443 C 0.78376 0.18427 0.66093 0.0
C1444 C 0.76474 0.18357 0.66052 0.0
C1445 C 0.72244 0.17969 0.6572 0.0
C1446 C 0.66759 0.15043 0.6801 0.0
C1447 C 0.68731 0.15493 0.66914 0.0
C1448 C 0.7477 0.16722 0.64887 0.0
C1449 C 0.72641 0.16318 0.65336 0.0
H1450 H 0.63394 0.11853 0.72084 0.0
H1451 H 0.6665 0.12667 0.703 0.0
H1452 H 0.70078 0.18869 0.66882 0.0
H1453 H 0.77107 0.14108 0.62799 0.0
H1454 H 0.7382 0.14048 0.62602 0.0
C1455 C 0.81679 0.46889 0.7225 0.0
C1456 C 0.833 0.47287 0.73776 0.0
C1457 C 0.81196 0.48463 0.71776 0.0
C1458 C 0.81836 0.53468 0.74027 0.0
H1459 H 0.81876 0.54938 0.67614 0.0
C1460 C 0.84185 0.61802 0.71115 0.0
C1461 C 0.8353 0.62111 0.6896 0.0
C1462 C 0.83513 0.59773 0.71915 0.0
C1463 C 0.81802 0.54529 0.69416 0.0
H1464 H 0.85645 0.49604 0.7604 0.0
H1465 H 0.84784 0.5232 0.75251 0.0
H1466 H 0.81896 0.51743 0.68583 0.0
H1467 H 0.81612 0.60569 0.65984 0.0
H1468 H 0.80331 0.57024 0.67427 0.0
H1469 H 0.81778 0.56266 0.7487 0.0
C1470 C 0.83885 0.50807 0.74418 0.0
C1471 C 0.81822 0.52693 0.69968 0.0
C1472 C 0.84388 0.49256 0.74856 0.0
C1473 C 0.82089 0.60366 0.67685 0.0
C1474 C 0.81392 0.58335 0.68494 0.0
C1475 C 0.81791 0.55292 0.73476 0.0
C1476 C 0.82298 0.5044 0.72858 0.0
C1477 C 0.81909 0.52178 0.72279 0.0
C1478 C 0.82178 0.58009 0.70565 0.0
C1479 C 0.81844 0.55888 0.71162 0.0
H1480 H 0.80818 0.45385 0.71389 0.0
H1481 H 0.79966 0.48138 0.70563 0.0
H1482 H 0.81872 0.53095 0.75826 0.0
H1483 H 0.85353 0.63125 0.72089 0.0
H1484 H 0.8418 0.59603 0.73501 0.0
C1485 C 0.46506 0.91108 0.24543 0.0
C1486 C 0.45656 0.91717 0.26341 0.0
C1487 C 0.47038 0.92189 0.2245 0.0
C1488 C 0.45798 0.95563 0.18924 0.0
H1489 H 0.50743 0.96802 0.15541 0.0
C1490 C 0.47989 0.0059 0.10831 0.0
C1491 C 0.48568 0.99858 0.08892 0.0
C1492 C 0.47897 0.99747 0.13006 0.0
C1493 C 0.4935 0.96453 0.16459 0.0
H1494 H 0.44786 0.93995 0.27385 0.0
H1495 H 0.45712 0.95876 0.23744 0.0
H1496 H 0.50051 0.95011 0.19257 0.0
H1497 H 0.4961 0.97746 0.07738 0.0
H1498 H 0.49425 0.96248 0.11546 0.0
H1499 H 0.45075 0.96972 0.16137 0.0
C1500 C 0.45929 0.94538 0.23931 0.0
C1501 C 0.48952 0.95426 0.18585 0.0
C1502 C 0.45396 0.93459 0.26018 0.0
C1503 C 0.49167 0.98347 0.092 0.0
C1504 C 0.4906 0.97489 0.11383 0.0
C1505 C 0.46193 0.96583 0.16809 0.0
C1506 C 0.46733 0.93901 0.2211 0.0
C1507 C 0.47175 0.94981 0.19847 0.0
C1508 C 0.48363 0.98137 0.13297 0.0
C1509 C 0.47979 0.97054 0.15555 0.0
H1510 H 0.46709 0.89762 0.24732 0.0
H1511 H 0.47634 0.91646 0.21075 0.0
H1512 H 0.44392 0.952 0.19822 0.0
H1513 H 0.47546 0.01774 0.1066 0.0
H1514 H 0.47408 0.00322 0.14454 0.0
C1515 C 0.15409 0.58525 0.21068 0.0
C1516 C 0.14825 0.57549 0.23224 0.0
C1517 C 0.13935 0.58057 0.19338 0.0
C1518 C 0.08568 0.54031 0.17682 0.0
H1519 H 0.09329 0.58142 0.13056 0.0
C1520 C 0.0258 0.52122 0.10533 0.0
C1521 C 0.03408 0.52299 0.08321 0.0
C1522 C 0.03879 0.53092 0.12426 0.0
C1523 C 0.09097 0.56987 0.14347 0.0
H1524 H 0.1225 0.55371 0.25303 0.0
H1525 H 0.0965 0.54614 0.22328 0.0
H1526 H 0.11752 0.59159 0.1629 0.0
H1527 H 0.06227 0.53572 0.06363 0.0
H1528 H 0.08501 0.55387 0.09641 0.0
H1529 H 0.05895 0.51873 0.15746 0.0
C1530 C 0.11253 0.55686 0.21927 0.0
C1531 C 0.10492 0.57557 0.1619 0.0
C1532 C 0.12737 0.56124 0.23641 0.0
C1533 C 0.05546 0.53534 0.08017 0.0
C1534 C 0.06846 0.54535 0.09903 0.0
C1535 C 0.07155 0.53476 0.15869 0.0
C1536 C 0.11832 0.5663 0.1974 0.0
C1537 C 0.10268 0.56076 0.17864 0.0
C1538 C 0.06028 0.54258 0.12136 0.0
C1539 C 0.07421 0.54938 0.14168 0.0
H1540 H 0.17017 0.59621 0.20705 0.0
H1541 H 0.14457 0.58784 0.1767 0.0
H1542 H 0.08358 0.52829 0.18896 0.0
H1543 H 0.00937 0.51135 0.10816 0.0
H1544 H 0.03213 0.52854 0.14132 0.0
C1545 C 0.46403 0.57862 0.24229 0.0
C1546 C 0.46106 0.59594 0.24073 0.0
C1547 C 0.47261 0.57331 0.22388 0.0
C1548 C 0.48147 0.57988 0.1612 0.0
H1549 H 0.52253 0.56377 0.17385 0.0
C1550 C 0.51741 0.55706 0.08726 0.0
C1551 C 0.51728 0.53815 0.09066 0.0
C1552 C 0.51434 0.56738 0.1058 0.0
C1553 C 0.51104 0.56817 0.17003 0.0
H1554 H 0.46415 0.62087 0.21841 0.0
H1555 H 0.47919 0.61166 0.18635 0.0
H1556 H 0.5082 0.57418 0.20561 0.0
H1557 H 0.5156 0.51621 0.11658 0.0
H1558 H 0.51011 0.53397 0.14873 0.0
H1559 H 0.48387 0.5734 0.12573 0.0
C1560 C 0.4749 0.60218 0.20177 0.0
C1561 C 0.50278 0.57406 0.18823 0.0
C1562 C 0.46642 0.60754 0.22019 0.0
C1563 C 0.51565 0.53067 0.11328 0.0
C1564 C 0.51261 0.54096 0.13179 0.0
C1565 C 0.48967 0.57392 0.143 0.0
C1566 C 0.47829 0.58514 0.20348 0.0
C1567 C 0.4877 0.57971 0.18405 0.0
C1568 C 0.51115 0.55901 0.12817 0.0
C1569 C 0.50434 0.5677 0.14722 0.0
H1570 H 0.46021 0.56949 0.25795 0.0
H1571 H 0.47476 0.55991 0.2256 0.0
H1572 H 0.46974 0.58397 0.15742 0.0
H1573 H 0.51861 0.56322 0.07009 0.0
H1574 H 0.51368 0.58148 0.10246 0.0
C1575 C 0.87866 0.41278 0.7952 0.0
C1576 C 0.86049 0.41385 0.79654 0.0
C1577 C 0.89203 0.41844 0.81414 0.0
C1578 C 0.90449 0.44857 0.86914 0.0
H1579 H 0.93815 0.42304 0.88026 0.0
C1580 C 0.95582 0.4689 0.9493 0.0
C1581 C 0.97676 0.47664 0.94453 0.0
C1582 C 0.94084 0.4582 0.93238 0.0
C1583 C 0.92882 0.43026 0.8773 0.0
H1584 H 0.84156 0.4209 0.81874 0.0
H1585 H 0.86435 0.42992 0.85223 0.0
H1586 H 0.91276 0.4099 0.84887 0.0
H1587 H 0.99864 0.47931 0.91857 0.0
H1588 H 0.97222 0.46003 0.88882 0.0
H1589 H 0.92029 0.46861 0.89788 0.0
C1590 C 0.86877 0.42545 0.83638 0.0
C1591 C 0.91436 0.42287 0.85925 0.0
C1592 C 0.85561 0.42016 0.81728 0.0
C1593 C 0.9825 0.473 0.92274 0.0
C1594 C 0.96744 0.46203 0.90581 0.0
C1595 C 0.91863 0.45567 0.88737 0.0
C1596 C 0.88734 0.42498 0.83497 0.0
C1597 C 0.9021 0.43205 0.85481 0.0
C1598 C 0.94654 0.4551 0.91032 0.0
C1599 C 0.93101 0.44668 0.89153 0.0
H1600 H 0.88281 0.40813 0.77926 0.0
H1601 H 0.9063 0.41822 0.81216 0.0
H1602 H 0.89579 0.45645 0.86602 0.0
H1603 H 0.95113 0.47227 0.96569 0.0
H1604 H 0.92484 0.45303 0.93626 0.0
C1605 C 0.57177 0.44071 0.80768 0.0
C1606 C 0.57642 0.45211 0.78705 0.0
C1607 C 0.56411 0.44639 0.82666 0.0
C1608 C 0.55949 0.49069 0.85044 0.0
H1609 H 0.51768 0.4478 0.88929 0.0
C1610 C 0.5205 0.51276 0.92049 0.0
C1611 C 0.52125 0.50558 0.94269 0.0
C1612 C 0.52416 0.5039 0.90107 0.0
C1613 C 0.52938 0.45991 0.8786 0.0
H1614 H 0.57652 0.47825 0.77003 0.0
H1615 H 0.56285 0.488 0.80291 0.0
H1616 H 0.53112 0.43763 0.85631 0.0
H1617 H 0.52528 0.48272 0.9618 0.0
H1618 H 0.53129 0.46686 0.92776 0.0
H1619 H 0.55764 0.51293 0.87255 0.0
C1620 C 0.56555 0.47496 0.80472 0.0
C1621 C 0.53718 0.45413 0.85978 0.0
C1622 C 0.57339 0.46939 0.78584 0.0
C1623 C 0.52415 0.48826 0.94492 0.0
C1624 C 0.52778 0.47931 0.92542 0.0
C1625 C 0.55156 0.49642 0.86904 0.0
C1626 C 0.56076 0.4635 0.82538 0.0
C1627 C 0.55236 0.46947 0.84546 0.0
C1628 C 0.52868 0.48766 0.90341 0.0
C1629 C 0.5364 0.48113 0.8833 0.0
H1630 H 0.57412 0.42741 0.80914 0.0
H1631 H 0.56098 0.43745 0.84239 0.0
H1632 H 0.57148 0.50296 0.84018 0.0
H1633 H 0.51818 0.52602 0.91821 0.0
H1634 H 0.52435 0.51037 0.88427 0.0
C1635 C 0.55057 0.09814 0.77345 0.0
C1636 C 0.54801 0.11556 0.77011 0.0
C1637 C 0.54403 0.08661 0.79377 0.0
C1638 C 0.51006 0.07507 0.84437 0.0
H1639 H 0.54674 0.05773 0.87085 0.0
C1640 C 0.50085 0.03847 0.93591 0.0
C1641 C 0.50651 0.02301 0.93809 0.0
C1642 C 0.50338 0.04876 0.91486 0.0
C1643 C 0.53616 0.06218 0.86354 0.0
H1644 H 0.53625 0.13436 0.78541 0.0
H1645 H 0.52489 0.11422 0.82117 0.0
H1646 H 0.55658 0.07817 0.8357 0.0
H1647 H 0.5175 0.00495 0.91948 0.0
H1648 H 0.52142 0.02246 0.88285 0.0
H1649 H 0.48972 0.0591 0.87258 0.0
C1650 C 0.53182 0.1094 0.80789 0.0
C1651 C 0.54183 0.07395 0.84338 0.0
C1652 C 0.53836 0.12096 0.78745 0.0
C1653 C 0.51327 0.017 0.91845 0.0
C1654 C 0.51565 0.02713 0.89748 0.0
C1655 C 0.50438 0.06326 0.86468 0.0
C1656 C 0.53478 0.09221 0.81136 0.0
C1657 C 0.52878 0.08035 0.83336 0.0
C1658 C 0.51151 0.04367 0.89565 0.0
C1659 C 0.51728 0.05647 0.87432 0.0
H1660 H 0.55748 0.09324 0.76021 0.0
H1661 H 0.54612 0.07319 0.79565 0.0
H1662 H 0.49962 0.07968 0.83702 0.0
H1663 H 0.49568 0.04351 0.95076 0.0
H1664 H 0.50005 0.06145 0.914 0.0
C1665 C 0.11926 0.22888 0.56595 0.0
C1666 C 0.12723 0.24021 0.58651 0.0
C1667 C 0.12707 0.2384 0.54465 0.0
C1668 C 0.17072 0.28689 0.51818 0.0
H1669 H 0.13269 0.2707 0.46648 0.0
C1670 C 0.17624 0.33769 0.43932 0.0
C1671 C 0.17274 0.32816 0.41747 0.0
C1672 C 0.17484 0.3264 0.4592 0.0
C1673 C 0.14355 0.27516 0.4807 0.0
H1674 H 0.1493 0.27021 0.60125 0.0
H1675 H 0.16213 0.2873 0.56427 0.0
H1676 H 0.12097 0.252 0.50272 0.0
H1677 H 0.1658 0.29967 0.39919 0.0
H1678 H 0.16286 0.27975 0.43408 0.0
H1679 H 0.19277 0.31115 0.49624 0.0
C1680 C 0.15051 0.27086 0.56427 0.0
C1681 C 0.13689 0.26439 0.50152 0.0
C1682 C 0.14303 0.26118 0.58553 0.0
C1683 C 0.16897 0.30751 0.41578 0.0
C1684 C 0.16708 0.29606 0.43571 0.0
C1685 C 0.1772 0.29799 0.49748 0.0
C1686 C 0.14269 0.25962 0.54346 0.0
C1687 C 0.15029 0.27023 0.52072 0.0
C1688 C 0.16942 0.30526 0.45759 0.0
C1689 C 0.16361 0.29229 0.47864 0.0
H1690 H 0.10718 0.2126 0.5664 0.0
H1691 H 0.12089 0.22901 0.52917 0.0
H1692 H 0.18172 0.2916 0.53225 0.0
H1693 H 0.17901 0.35352 0.44107 0.0
H1694 H 0.17657 0.33376 0.47591 0.0
C1695 C 0.81744 0.91293 0.54862 0.0
C1696 C 0.8172 0.89956 0.566 0.0
C1697 C 0.80195 0.90546 0.53172 0.0
C1698 C 0.76348 0.85648 0.50354 0.0
H1699 H 0.73918 0.88928 0.48257 0.0
C1700 C 0.69713 0.82202 0.43827 0.0
C1701 C 0.69887 0.8349 0.41959 0.0
C1702 C 0.70959 0.83046 0.4578 0.0
C1703 C 0.74592 0.88 0.48815 0.0
H1704 H 0.80016 0.86807 0.57967 0.0
H1705 H 0.77328 0.85503 0.55016 0.0
H1706 H 0.76541 0.90308 0.5131 0.0
H1707 H 0.71405 0.8669 0.40752 0.0
H1708 H 0.73616 0.88164 0.4414 0.0
H1709 H 0.74441 0.83359 0.47848 0.0
C1710 C 0.7856 0.87119 0.54936 0.0
C1711 C 0.76095 0.88791 0.5056 0.0
C1712 C 0.80104 0.87864 0.56624 0.0
C1713 C 0.7124 0.85659 0.42156 0.0
C1714 C 0.72503 0.86504 0.44104 0.0
C1715 C 0.74855 0.84862 0.48613 0.0
C1716 C 0.78593 0.88447 0.53184 0.0
C1717 C 0.76988 0.87621 0.51347 0.0
C1718 C 0.72422 0.85194 0.45907 0.0
C1719 C 0.73955 0.86025 0.47822 0.0
H1720 H 0.82978 0.92908 0.54787 0.0
H1721 H 0.80276 0.916 0.51829 0.0
H1722 H 0.77034 0.84726 0.5089 0.0
H1723 H 0.68664 0.80528 0.4375 0.0
H1724 H 0.70818 0.82001 0.47166 0.0
C1725 C 0.123 0.90493 0.56458 0.0
C1726 C 0.12268 0.92381 0.56384 0.0
C1727 C 0.13095 0.89892 0.54618 0.0
C1728 C 0.14367 0.90825 0.48417 0.0
H1729 H 0.1754 0.881 0.49745 0.0
C1730 C 0.1779 0.88134 0.41151 0.0
C1731 C 0.17316 0.8604 0.41336 0.0
C1732 C 0.17501 0.89159 0.43026 0.0
C1733 C 0.16656 0.88857 0.49347 0.0
H1734 H 0.13006 0.95096 0.54287 0.0
H1735 H 0.14433 0.94068 0.51096 0.0
H1736 H 0.16315 0.89369 0.52913 0.0
H1737 H 0.16291 0.83423 0.43682 0.0
H1738 H 0.15805 0.85208 0.46948 0.0
H1739 H 0.14693 0.90291 0.44849 0.0
C1740 C 0.13827 0.93042 0.52571 0.0
C1741 C 0.15944 0.89575 0.51161 0.0
C1742 C 0.13026 0.93641 0.5441 0.0
C1743 C 0.16664 0.85034 0.43477 0.0
C1744 C 0.16395 0.86062 0.45355 0.0
C1745 C 0.15088 0.90114 0.46601 0.0
C1746 C 0.13886 0.91168 0.5266 0.0
C1747 C 0.14758 0.90532 0.50721 0.0
C1748 C 0.16757 0.88115 0.45134 0.0
C1749 C 0.16207 0.89088 0.47048 0.0
H1750 H 0.11753 0.89496 0.57961 0.0
H1751 H 0.13082 0.88421 0.5473 0.0
H1752 H 0.13443 0.91537 0.48014 0.0
H1753 H 0.18289 0.88947 0.39527 0.0
H1754 H 0.17813 0.9075 0.42811 0.0
C1755 C 0.54725 0.7537 0.13283 0.0
C1756 C 0.53086 0.75786 0.13304 0.0
C1757 C 0.56227 0.76162 0.15022 0.0
C1758 C 0.58472 0.80349 0.19443 0.0
H1759 H 0.60838 0.77116 0.21875 0.0
C1760 C 0.63761 0.80705 0.27671 0.0
C1761 C 0.65155 0.82874 0.27717 0.0
C1762 C 0.62422 0.79779 0.25795 0.0
C1763 C 0.60186 0.78035 0.21221 0.0
H1764 H 0.51697 0.773 0.15198 0.0
H1765 H 0.543 0.78661 0.18256 0.0
H1766 H 0.58119 0.75571 0.1895 0.0
H1767 H 0.66346 0.85745 0.25757 0.0
H1768 H 0.64065 0.84121 0.22456 0.0
H1769 H 0.60478 0.82784 0.21761 0.0
C1770 C 0.54453 0.77761 0.16869 0.0
C1771 C 0.58642 0.77158 0.19528 0.0
C1772 C 0.52958 0.76978 0.15123 0.0
C1773 C 0.65273 0.84073 0.25786 0.0
C1774 C 0.63953 0.83145 0.23902 0.0
C1775 C 0.60007 0.81221 0.21138 0.0
C1776 C 0.56119 0.77383 0.16826 0.0
C1777 C 0.57762 0.78303 0.18625 0.0
C1778 C 0.62466 0.81 0.23915 0.0
C1779 C 0.60884 0.80078 0.2205 0.0
H1780 H 0.54878 0.74479 0.11885 0.0
H1781 H 0.57502 0.75865 0.14918 0.0
H1782 H 0.57852 0.81288 0.18764 0.0
H1783 H 0.63624 0.7974 0.29134 0.0
H1784 H 0.61287 0.78127 0.25875 0.0
C1785 C 0.23518 0.79789 0.10499 0.0
C1786 C 0.23941 0.78148 0.10766 0.0
C1787 C 0.22721 0.80399 0.12331 0.0
C1788 C 0.20154 0.78665 0.18024 0.0
H1789 H 0.22466 0.84621 0.19078 0.0
C1790 C 0.19641 0.82277 0.26698 0.0
C1791 C 0.19423 0.84057 0.26635 0.0
C1792 C 0.19847 0.81385 0.24657 0.0
C1793 C 0.21776 0.82951 0.18788 0.0
H1794 H 0.23865 0.75862 0.13164 0.0
H1795 H 0.22502 0.76942 0.1637 0.0
H1796 H 0.23525 0.83417 0.1572 0.0
H1797 H 0.19185 0.8627 0.24391 0.0
H1798 H 0.19529 0.84706 0.20817 0.0
H1799 H 0.18448 0.78211 0.2114 0.0
C1800 C 0.22744 0.77731 0.14732 0.0
C1801 C 0.22385 0.82259 0.1686 0.0
C1802 C 0.23531 0.77116 0.12897 0.0
C1803 C 0.19345 0.84891 0.24488 0.0
C1804 C 0.19553 0.84003 0.22446 0.0
C1805 C 0.1955 0.79359 0.19961 0.0
C1806 C 0.2234 0.79388 0.14476 0.0
C1807 C 0.21597 0.80109 0.16464 0.0
C1808 C 0.19859 0.82272 0.2251 0.0
C1809 C 0.20368 0.81511 0.20373 0.0
H1810 H 0.23788 0.80592 0.08866 0.0
H1811 H 0.22397 0.81658 0.12062 0.0
H1812 H 0.19493 0.76996 0.17752 0.0
H1813 H 0.198 0.81666 0.28325 0.0
H1814 H 0.20118 0.80075 0.2477 0.0
C1815 C 0.20637 0.41462 0.09774 0.0
C1816 C 0.20615 0.43323 0.09371 0.0
C1817 C 0.19999 0.40449 0.11896 0.0
C1818 C 0.17126 0.40254 0.17248 0.0
H1819 H 0.19798 0.37285 0.19588 0.0
C1820 C 0.16803 0.37143 0.26645 0.0
C1821 C 0.16564 0.35131 0.26757 0.0
C1822 C 0.16928 0.38073 0.24502 0.0
C1823 C 0.19026 0.38094 0.18945 0.0
H1824 H 0.19956 0.45618 0.1087 0.0
H1825 H 0.18929 0.43908 0.14615 0.0
H1826 H 0.20917 0.39131 0.15951 0.0
H1827 H 0.1607 0.32437 0.24734 0.0
H1828 H 0.16296 0.3406 0.2101 0.0
H1829 H 0.15296 0.39266 0.20333 0.0
C1830 C 0.19369 0.43182 0.13276 0.0
C1831 C 0.19659 0.39146 0.16851 0.0
C1832 C 0.19974 0.44174 0.11139 0.0
C1833 C 0.16268 0.33997 0.247 0.0
C1834 C 0.16405 0.34925 0.2257 0.0
C1835 C 0.16517 0.39226 0.19374 0.0
C1836 C 0.19361 0.41297 0.13682 0.0
C1837 C 0.18706 0.40223 0.15955 0.0
C1838 C 0.1683 0.37003 0.22451 0.0
C1839 C 0.17446 0.38117 0.20222 0.0
H1840 H 0.21096 0.4076 0.08425 0.0
H1841 H 0.19973 0.3898 0.12115 0.0
H1842 H 0.16335 0.41042 0.16607 0.0
H1843 H 0.17078 0.38067 0.28197 0.0
H1844 H 0.17264 0.39682 0.2445 0.0
C1845 C 0.81004 0.59594 0.92333 0.0
C1846 C 0.8014 0.60342 0.93968 0.0
C1847 C 0.81519 0.60477 0.90129 0.0
C1848 C 0.80106 0.63405 0.86091 0.0
H1849 H 0.84929 0.64319 0.82663 0.0
C1850 C 0.8201 0.67695 0.77532 0.0
C1851 C 0.82461 0.66772 0.75667 0.0
C1852 C 0.82019 0.67045 0.79783 0.0
C1853 C 0.8357 0.64057 0.83596 0.0
H1854 H 0.7926 0.62682 0.94628 0.0
H1855 H 0.80176 0.64236 0.90808 0.0
H1856 H 0.84395 0.62931 0.86595 0.0
H1857 H 0.83398 0.64526 0.74715 0.0
H1858 H 0.83392 0.63363 0.78674 0.0
H1859 H 0.79265 0.64508 0.83116 0.0
C1860 C 0.80407 0.62932 0.91199 0.0
C1861 C 0.83263 0.63263 0.85845 0.0
C1862 C 0.79884 0.62046 0.9339 0.0
C1863 C 0.83047 0.65268 0.76118 0.0
C1864 C 0.83043 0.64603 0.78384 0.0
C1865 C 0.80413 0.64197 0.8386 0.0
C1866 C 0.81185 0.62129 0.89523 0.0
C1867 C 0.81535 0.62947 0.87125 0.0
C1868 C 0.82462 0.6544 0.80231 0.0
C1869 C 0.82157 0.64555 0.82592 0.0
H1870 H 0.81207 0.58273 0.92726 0.0
H1871 H 0.82103 0.59813 0.88875 0.0
H1872 H 0.78729 0.63126 0.86999 0.0
H1873 H 0.81585 0.68882 0.77248 0.0
H1874 H 0.81618 0.67761 0.81172 0.0
C1875 C 0.46154 0.21173 0.89848 0.0
C1876 C 0.47741 0.23278 0.89859 0.0
C1877 C 0.44663 0.20405 0.88103 0.0
C1878 C 0.4227 0.22002 0.83557 0.0
H1879 H 0.40776 0.16575 0.80943 0.0
C1880 C 0.37554 0.18683 0.75077 0.0
C1881 C 0.3622 0.16507 0.74926 0.0
C1882 C 0.38799 0.19579 0.7703 0.0
C1883 C 0.41147 0.18077 0.81677 0.0
H1884 H 0.48999 0.26232 0.88052 0.0
H1885 H 0.4639 0.24884 0.84987 0.0
H1886 H 0.43299 0.18007 0.84052 0.0
H1887 H 0.35015 0.13586 0.76798 0.0
H1888 H 0.37139 0.15148 0.80216 0.0
H1889 H 0.40121 0.22071 0.81153 0.0
C1890 C 0.4629 0.23836 0.86348 0.0
C1891 C 0.42599 0.189 0.83458 0.0
C1892 C 0.47786 0.24606 0.88099 0.0
C1893 C 0.36049 0.15264 0.76838 0.0
C1894 C 0.37278 0.16159 0.78794 0.0
C1895 C 0.40809 0.21175 0.8177 0.0
C1896 C 0.44721 0.21722 0.86323 0.0
C1897 C 0.43175 0.20869 0.84424 0.0
C1898 C 0.38719 0.18314 0.7888 0.0
C1899 C 0.40227 0.19198 0.80816 0.0
H1900 H 0.46049 0.20121 0.91207 0.0
H1901 H 0.43452 0.18779 0.88157 0.0
H1902 H 0.42669 0.23516 0.84281 0.0
H1903 H 0.37716 0.19682 0.73639 0.0
H1904 H 0.39896 0.21244 0.77036 0.0
C1905 C 0.78095 0.23434 0.88083 0.0
C1906 C 0.79508 0.24483 0.89883 0.0
C1907 C 0.78701 0.22787 0.86112 0.0
C1908 C 0.83297 0.2372 0.82789 0.0
H1909 H 0.79557 0.18224 0.80235 0.0
C1910 C 0.82947 0.17366 0.75598 0.0
C1911 C 0.83752 0.1865 0.7365 0.0
C1912 C 0.82653 0.18166 0.77655 0.0
C1913 C 0.8063 0.19756 0.80938 0.0
H1914 H 0.8266 0.25643 0.91039 0.0
H1915 H 0.83715 0.24516 0.87601 0.0
H1916 H 0.78556 0.19426 0.83644 0.0
H1917 H 0.84994 0.21816 0.72382 0.0
H1918 H 0.84461 0.23214 0.75978 0.0
H1919 H 0.85382 0.24032 0.80086 0.0
C1920 C 0.82148 0.24225 0.87695 0.0
C1921 C 0.80043 0.20456 0.82876 0.0
C1922 C 0.81542 0.2487 0.89666 0.0
C1923 C 0.84376 0.20788 0.73852 0.0
C1924 C 0.8407 0.21588 0.75914 0.0
C1925 C 0.83884 0.2302 0.80842 0.0
C1926 C 0.80734 0.23173 0.85897 0.0
C1927 C 0.81367 0.22445 0.83825 0.0
C1928 C 0.83144 0.20267 0.77814 0.0
C1929 C 0.82559 0.21025 0.799 0.0
H1930 H 0.76526 0.23138 0.88184 0.0
H1931 H 0.77581 0.22005 0.84743 0.0
H1932 H 0.84344 0.25269 0.83468 0.0
H1933 H 0.82474 0.15718 0.75511 0.0
H1934 H 0.81986 0.1712 0.79106 0.0
C1935 C 0.21903 0.10919 0.45453 0.0
C1936 C 0.20123 0.08934 0.45609 0.0
C1937 C 0.23383 0.1166 0.47211 0.0
C1938 C 0.25332 0.09993 0.52141 0.0
H1939 H 0.27509 0.15739 0.54163 0.0
C1940 C 0.3201 0.16748 0.5849 0.0
C1941 C 0.31689 0.15586 0.60513 0.0
C1942 C 0.30757 0.15836 0.56556 0.0
C1943 C 0.26947 0.14142 0.53596 0.0
H1944 H 0.18508 0.06167 0.47736 0.0
H1945 H 0.21104 0.07465 0.50812 0.0
H1946 H 0.24989 0.1435 0.51048 0.0
H1947 H 0.29865 0.12524 0.62056 0.0
H1948 H 0.27644 0.10938 0.58694 0.0
H1949 H 0.27292 0.09789 0.54707 0.0
C1950 C 0.21358 0.08437 0.49314 0.0
C1951 C 0.25496 0.13344 0.51812 0.0
C1952 C 0.19871 0.07696 0.47555 0.0
C1953 C 0.30159 0.13457 0.60518 0.0
C1954 C 0.28886 0.12548 0.58588 0.0
C1955 C 0.26795 0.10796 0.53927 0.0
C1956 C 0.23124 0.10433 0.49166 0.0
C1957 C 0.24672 0.11263 0.51062 0.0
C1958 C 0.29133 0.13747 0.56608 0.0
C1959 C 0.27622 0.12883 0.54671 0.0
H1960 H 0.22168 0.11894 0.43955 0.0
H1961 H 0.24744 0.13191 0.47029 0.0
H1962 H 0.24738 0.08388 0.51585 0.0
H1963 H 0.33193 0.18386 0.58423 0.0
H1964 H 0.31024 0.16789 0.55038 0.0
C1965 C 0.89584 0.10719 0.4496 0.0
C1966 C 0.90297 0.11843 0.42889 0.0
C1967 C 0.88784 0.11413 0.46707 0.0
C1968 C 0.89211 0.16218 0.49001 0.0
H1969 H 0.84415 0.12481 0.52609 0.0
C1970 C 0.868 0.19377 0.5671 0.0
C1971 C 0.8624 0.18163 0.58722 0.0
C1972 C 0.86935 0.18531 0.54603 0.0
C1973 C 0.85766 0.13544 0.5163 0.0
H1974 H 0.90643 0.14537 0.41007 0.0
H1975 H 0.89289 0.15773 0.44084 0.0
H1976 H 0.85343 0.11129 0.49242 0.0
H1977 H 0.85299 0.15082 0.60083 0.0
H1978 H 0.85597 0.13621 0.56429 0.0
H1979 H 0.89702 0.18612 0.51422 0.0
C1980 C 0.89362 0.14358 0.4435 0.0
C1981 C 0.86292 0.12769 0.49698 0.0
C1982 C 0.90145 0.13654 0.42593 0.0
C1983 C 0.85724 0.16054 0.58561 0.0
C1984 C 0.85889 0.15215 0.56458 0.0
C1985 C 0.887 0.16987 0.50941 0.0
C1986 C 0.88695 0.13257 0.46435 0.0
C1987 C 0.88032 0.14095 0.48378 0.0
C1988 C 0.86548 0.1646 0.54463 0.0
C1989 C 0.86982 0.15658 0.52297 0.0
H1990 H 0.89706 0.09338 0.45268 0.0
H1991 H 0.88309 0.10548 0.48307 0.0
H1992 H 0.9058 0.1727 0.48039 0.0
H1993 H 0.87182 0.21001 0.56773 0.0
H1994 H 0.87394 0.1952 0.53093 0.0
C1995 C 0.86923 0.77963 0.45184 0.0
C1996 C 0.87755 0.77331 0.43388 0.0
C1997 C 0.86296 0.7683 0.47246 0.0
C1998 C 0.8725 0.73218 0.50702 0.0
H1999 H 0.82228 0.71982 0.53913 0.0
C2000 C 0.84681 0.67833 0.58499 0.0
C2001 C 0.84066 0.68504 0.60457 0.0
C2002 C 0.84847 0.68768 0.56364 0.0
C2003 C 0.83642 0.72329 0.53043 0.0
H2004 H 0.88478 0.74953 0.42306 0.0
H2005 H 0.874 0.72995 0.45886 0.0
H2006 H 0.83111 0.73953 0.50299 0.0
H2007 H 0.83029 0.70603 0.61684 0.0
H2008 H 0.83353 0.72267 0.57949 0.0
H2009 H 0.87809 0.71632 0.53433 0.0
C2010 C 0.87272 0.74388 0.45728 0.0
C2011 C 0.84149 0.73459 0.50977 0.0
C2012 C 0.87894 0.75515 0.43676 0.0
C2013 C 0.83496 0.70044 0.60203 0.0
C2014 C 0.83684 0.70998 0.58062 0.0
C2015 C 0.86749 0.72098 0.52757 0.0
C2016 C 0.8649 0.75045 0.47549 0.0
C2017 C 0.85951 0.73898 0.49774 0.0
C2018 C 0.8443 0.70418 0.56136 0.0
C2019 C 0.8493 0.71619 0.53945 0.0
H2020 H 0.86803 0.79361 0.45019 0.0
H2021 H 0.85713 0.77384 0.48623 0.0
H2022 H 0.88674 0.73572 0.49849 0.0
H2023 H 0.85105 0.66632 0.58633 0.0
H2024 H 0.8537 0.68241 0.54902 0.0
loop_
_geom_bond_atom_site_label_1
_geom_bond_atom_site_label_2
_geom_bond_distance
_geom_bond_site_symmetry_2
_ccdc_geom_bond_type
H0 C5 0.930 . S
H1 C8 0.930 . S
H2 C10 0.930 . S
H3 C4 1.016 . S
C4 H3 1.016 . S
C4 N11 1.286 . S
C5 H0 0.930 . S
C5 C6 1.397 . S
C5 C7 1.361 . S
C6 C5 1.397 . S
C6 C10 1.390 . S
C7 C5 1.361 . S
C7 C8 1.393 . S
C7 N11 1.413 . S
C8 H1 0.930 . S
C8 C7 1.393 . S
C8 C9 1.399 . S
C9 C8 1.399 . S
C9 C10 1.381 . S
C10 H2 0.930 . S
C10 C6 1.390 . S
C10 C9 1.381 . S
N11 C4 1.286 . S
N11 C7 1.413 . S
H12 C17 0.930 . S
H13 C20 0.930 . S
H14 C22 0.930 . S
H15 C16 1.016 . S
C16 H15 1.016 . S
C16 N23 1.286 . S
C17 H12 0.930 . S
C17 C18 1.397 . S
C17 C19 1.361 . S
C18 C17 1.397 . S
C18 C22 1.390 . S
C19 C17 1.361 . S
C19 C20 1.393 . S
C19 N23 1.413 . S
C20 H13 0.930 . S
C20 C19 1.393 . S
C20 C21 1.399 . S
C21 C20 1.399 . S
C21 C22 1.381 . S
C22 H14 0.930 . S
C22 C18 1.390 . S
C22 C21 1.381 . S
N23 C16 1.286 . S
N23 C19 1.413 . S
H24 C29 0.930 . S
H25 C32 0.930 . S
H26 C34 0.930 . S
H27 C28 1.016 . S
C28 H27 1.016 . S
C28 N35 1.286 . S
C29 H24 0.930 . S
C29 C30 1.397 . S
C29 C31 1.361 . S
C30 C29 1.397 . S
C30 C34 1.390 . S
C31 C29 1.361 . S
C31 C32 1.393 . S
C31 N35 1.413 . S
C32 H25 0.930 . S
C32 C31 1.393 . S
C32 C33 1.399 . S
C33 C32 1.399 . S
C33 C34 1.381 . S
C34 H26 0.930 . S
C34 C30 1.390 . S
C34 C33 1.381 . S
N35 C28 1.286 . S
N35 C31 1.413 . S
H36 C41 0.930 . S
H37 C44 0.930 . S
H38 C46 0.930 . S
H39 C40 1.016 . S
C40 H39 1.016 . S
C40 N47 1.286 . S
C41 H36 0.930 . S
C41 C42 1.397 . S
C41 C43 1.361 . S
C42 C41 1.397 . S
C42 C46 1.390 . S
C43 C41 1.361 . S
C43 C44 1.393 . S
C43 N47 1.413 . S
C44 H37 0.930 . S
C44 C43 1.393 . S
C44 C45 1.399 . S
C45 C44 1.399 . S
C45 C46 1.381 . S
C46 H38 0.930 . S
C46 C42 1.390 . S
C46 C45 1.381 . S
N47 C40 1.286 . S
N47 C43 1.413 . S
H48 C53 0.930 . S
H49 C56 0.930 . S
H50 C58 0.930 . S
H51 C52 1.016 . S
C52 H51 1.016 . S
C52 N59 1.286 . S
C53 H48 0.930 . S
C53 C54 1.397 . S
C53 C55 1.361 . S
C54 C53 1.397 . S
C54 C58 1.390 . S
C55 C53 1.361 . S
C55 C56 1.393 . S
C55 N59 1.413 . S
C56 H49 0.930 . S
C56 C55 1.393 . S
C56 C57 1.399 . S
C57 C56 1.399 . S
C57 C58 1.381 . S
C58 H50 0.930 . S
C58 C54 1.390 . S
C58 C57 1.381 . S
N59 C52 1.286 . S
N59 C55 1.413 . S
H60 C65 0.930 . S
H61 C68 0.930 . S
H62 C70 0.930 . S
H63 C64 1.016 . S
C64 H63 1.016 . S
C64 N71 1.286 . S
C65 H60 0.930 . S
C65 C66 1.397 . S
C65 C67 1.361 . S
C66 C65 1.397 . S
C66 C70 1.390 . S
C67 C65 1.361 . S
C67 C68 1.393 . S
C67 N71 1.413 . S
C68 H61 0.930 . S
C68 C67 1.393 . S
C68 C69 1.399 . S
C69 C68 1.399 . S
C69 C70 1.381 . S
C70 H62 0.930 . S
C70 C66 1.390 . S
C70 C69 1.381 . S
N71 C64 1.286 . S
N71 C67 1.413 . S
H72 C77 0.930 . S
H73 C80 0.930 . S
H74 C82 0.930 . S
H75 C76 1.016 . S
C76 H75 1.016 . S
C76 N83 1.286 . S
C77 H72 0.930 . S
C77 C78 1.397 . S
C77 C79 1.361 . S
C78 C77 1.397 . S
C78 C82 1.390 . S
C79 C77 1.361 . S
C79 C80 1.393 . S
C79 N83 1.413 . S
C80 H73 0.930 . S
C80 C79 1.393 . S
C80 C81 1.399 . S
C81 C80 1.399 . S
C81 C82 1.381 . S
C82 H74 0.930 . S
C82 C78 1.390 . S
C82 C81 1.381 . S
N83 C76 1.286 . S
N83 C79 1.413 . S
H84 C89 0.930 . S
H85 C92 0.930 . S
H86 C94 0.930 . S
H87 C88 1.016 . S
C88 H87 1.016 . S
C88 N95 1.286 . S
C89 H84 0.930 . S
C89 C90 1.397 . S
C89 C91 1.361 . S
C90 C89 1.397 . S
C90 C94 1.390 . S
C91 C89 1.361 . S
C91 C92 1.393 . S
C91 N95 1.413 . S
C92 H85 0.930 . S
C92 C91 1.393 . S
C92 C93 1.399 . S
C93 C92 1.399 . S
C93 C94 1.381 . S
C94 H86 0.930 . S
C94 C90 1.390 . S
C94 C93 1.381 . S
N95 C88 1.286 . S
N95 C91 1.413 . S
H96 C101 0.930 . S
H97 C104 0.930 . S
H98 C106 0.930 . S
H99 C100 1.016 . S
C100 H99 1.016 . S
C100 N107 1.286 . S
C101 H96 0.930 . S
C101 C102 1.397 . S
C101 C103 1.361 . S
C102 C101 1.397 . S
C102 C106 1.390 . S
C103 C101 1.361 . S
C103 C104 1.393 . S
C103 N107 1.413 . S
C104 H97 0.930 . S
C104 C103 1.393 . S
C104 C105 1.399 . S
C105 C104 1.399 . S
C105 C106 1.381 . S
C106 H98 0.930 . S
C106 C102 1.390 . S
C106 C105 1.381 . S
N107 C100 1.286 . S
N107 C103 1.413 . S
H108 C113 0.930 . S
H109 C116 0.930 . S
H110 C118 0.930 . S
H111 C112 1.016 1_556 S
C112 H111 1.016 1_554 S
C112 N119 1.286 . S
C113 H108 0.930 . S
C113 C114 1.397 1_554 S
C113 C115 1.361 1_554 S
C114 C113 1.397 1_556 S
C114 C118 1.390 . S
C115 C113 1.361 1_556 S
C115 C116 1.393 . S
C115 N119 1.413 1_556 S
C116 H109 0.930 . S
C116 C115 1.393 . S
C116 C117 1.399 . S
C117 C116 1.399 . S
C117 C118 1.381 . S
C118 H110 0.930 . S
C118 C114 1.390 . S
C118 C117 1.381 . S
N119 C112 1.286 . S
N119 C115 1.413 1_554 S
H120 C125 0.930 . S
H121 C128 0.930 . S
H122 C130 0.930 . S
H123 C124 1.016 1_556 S
C124 H123 1.016 1_554 S
C124 N131 1.286 . S
C125 H120 0.930 . S
C125 C126 1.397 1_554 S
C125 C127 1.371 . S
C126 C125 1.397 1_556 S
C126 C130 1.390 . S
C127 C125 1.371 . S
C127 C128 1.372 1_554 S
C127 N131 1.425 . S
C128 H121 0.930 . S
C128 C127 1.372 1_556 S
C128 C129 1.399 . S
C129 C128 1.399 . S
C129 C130 1.381 . S
C130 H122 0.930 . S
C130 C126 1.390 . S
C130 C129 1.381 . S
N131 C124 1.286 . S
N131 C127 1.425 . S
H132 C137 0.930 . S
H133 C140 0.930 . S
H134 C142 0.930 . S
H135 C136 1.016 . S
C136 H135 1.016 . S
C136 N143 1.286 1_556 S
C137 H132 0.930 . S
C137 C138 1.397 1_554 S
C137 C139 1.361 1_554 S
C138 C137 1.397 1_556 S
C138 C142 1.390 . S
C139 C137 1.361 1_556 S
C139 C140 1.393 . S
C139 N143 1.413 1_556 S
C140 H133 0.930 . S
C140 C139 1.393 . S
C140 C141 1.399 . S
C141 C140 1.399 . S
C141 C142 1.381 . S
C142 H134 0.930 . S
C142 C138 1.390 . S
C142 C141 1.381 . S
N143 C136 1.286 1_554 S
N143 C139 1.413 1_554 S
H144 C149 0.930 . S
H145 C152 0.930 . S
H146 C154 0.930 . S
H147 C148 1.016 . S
C148 H147 1.016 . S
C148 N155 1.286 . S
C149 H144 0.930 . S
C149 C150 1.397 . S
C149 C151 1.361 . S
C150 C149 1.397 . S
C150 C154 1.390 . S
C151 C149 1.361 . S
C151 C152 1.393 . S
C151 N155 1.413 . S
C152 H145 0.930 . S
C152 C151 1.393 . S
C152 C153 1.399 . S
C153 C152 1.399 . S
C153 C154 1.381 . S
C154 H146 0.930 . S
C154 C150 1.390 . S
C154 C153 1.381 . S
N155 C148 1.286 . S
N155 C151 1.413 . S
H156 C161 0.930 1_556 S
H157 C164 0.930 . S
H158 C166 0.930 . S
H159 C160 1.016 . S
C160 H159 1.016 . S
C160 N167 1.286 . S
C161 H156 0.930 1_554 S
C161 C162 1.397 . S
C161 C163 1.361 . S
C162 C161 1.397 . S
C162 C166 1.390 . S
C163 C161 1.361 . S
C163 C164 1.393 . S
C163 N167 1.413 . S
C164 H157 0.930 . S
C164 C163 1.393 . S
C164 C165 1.399 . S
C165 C164 1.399 . S
C165 C166 1.381 . S
C166 H158 0.930 . S
C166 C162 1.390 . S
C166 C165 1.381 . S
N167 C160 1.286 . S
N167 C163 1.413 . S
H168 C173 0.930 . S
H169 C176 0.930 . S
H170 C178 0.930 . S
H171 C172 1.016 . S
C172 H171 1.016 . S
C172 N179 1.286 . S
C173 H168 0.930 . S
C173 C174 1.397 . S
C173 C175 1.361 . S
C174 C173 1.397 . S
C174 C178 1.390 . S
C175 C173 1.361 . S
C175 C176 1.393 . S
C175 N179 1.413 . S
C176 H169 0.930 . S
C176 C175 1.393 . S
C176 C177 1.399 . S
C177 C176 1.399 . S
C177 C178 1.381 . S
C178 H170 0.930 . S
C178 C174 1.390 . S
C178 C177 1.381 . S
N179 C172 1.286 . S
N179 C175 1.413 . S
H180 C185 0.930 . S
H181 C188 0.930 . S
H182 C190 0.930 . S
H183 C184 1.016 . S
C184 H183 1.016 . S
C184 N191 1.286 . S
C185 H180 0.930 . S
C185 C186 1.397 . S
C185 C187 1.361 . S
C186 C185 1.397 . S
C186 C190 1.390 . S
C187 C185 1.361 . S
C187 C188 1.393 . S
C187 N191 1.413 . S
C188 H181 0.930 . S
C188 C187 1.393 . S
C188 C189 1.399 . S
C189 C188 1.399 . S
C189 C190 1.381 . S
C190 H182 0.930 . S
C190 C186 1.390 . S
C190 C189 1.381 . S
N191 C184 1.286 . S
N191 C187 1.413 . S
H192 C197 0.930 . S
H193 C200 0.930 . S
H194 C202 0.930 . S
H195 C196 1.016 . S
C196 H195 1.016 . S
C196 N203 1.286 . S
C197 H192 0.930 . S
C197 C198 1.397 . S
C197 C199 1.361 . S
C198 C197 1.397 . S
C198 C202 1.390 . S
C199 C197 1.361 . S
C199 C200 1.393 . S
C199 N203 1.413 . S
C200 H193 0.930 . S
C200 C199 1.393 . S
C200 C201 1.399 . S
C201 C200 1.399 . S
C201 C202 1.381 . S
C202 H194 0.930 . S
C202 C198 1.390 . S
C202 C201 1.381 . S
N203 C196 1.286 . S
N203 C199 1.413 . S
H204 C209 0.930 . S
H205 C212 0.930 . S
H206 C214 0.930 . S
H207 C208 1.016 . S
C208 H207 1.016 . S
C208 N215 1.286 . S
C209 H204 0.930 . S
C209 C210 1.397 . S
C209 C211 1.361 . S
C210 C209 1.397 . S
C210 C214 1.390 . S
C211 C209 1.361 . S
C211 C212 1.393 . S
C211 N215 1.413 . S
C212 H205 0.930 . S
C212 C211 1.393 . S
C212 C213 1.399 . S
C213 C212 1.399 . S
C213 C214 1.381 . S
C214 H206 0.930 . S
C214 C210 1.390 . S
C214 C213 1.381 . S
N215 C208 1.286 . S
N215 C211 1.413 . S
O216 Mn217 2.163 1_565 S
O216 C230 1.244 . S
Mn217 O216 2.163 1_545 S
Mn217 O220 2.160 . S
Mn217 O221 2.221 1_545 S
Mn217 O223 2.163 1_554 S
Mn217 O225 2.160 . S
Mn217 O235 2.221 . S
O218 Mn219 2.087 1_565 S
O218 C230 1.256 . S
Mn219 O218 2.087 1_545 S
Mn219 O226 2.089 1_545 S
Mn219 O235 2.290 . S
Mn219 O236 2.251 . S
O220 Mn217 2.160 . S
O220 C231 1.239 . S
O221 Mn217 2.221 1_565 S
O221 Mn222 2.290 1_564 S
O221 C232 1.278 . S
Mn222 O221 2.290 1_546 S
Mn222 O224 2.089 . S
Mn222 O227 2.251 1_545 S
Mn222 O228 2.087 . S
O223 Mn217 2.163 1_556 S
O223 C233 1.244 . S
O224 Mn222 2.089 . S
O224 C231 1.256 1_556 S
O225 Mn217 2.160 . S
O225 C234 1.239 1_545 S
O226 Mn219 2.089 1_565 S
O226 C234 1.256 . S
O227 Mn222 2.251 1_565 S
O227 C232 1.241 1_556 S
O228 Mn222 2.087 . S
O228 C233 1.256 . S
C229 O235 1.278 . S
C229 O236 1.241 . S
C230 O216 1.244 . S
C230 O218 1.256 . S
C231 O220 1.239 . S
C231 O224 1.256 1_554 S
C232 O221 1.278 . S
C232 O227 1.241 1_554 S
C233 O223 1.244 . S
C233 O228 1.256 . S
C234 O225 1.239 1_565 S
C234 O226 1.256 . S
O235 Mn217 2.221 . S
O235 Mn219 2.290 . S
O235 C229 1.278 . S
O236 Mn219 2.251 . S
O236 C229 1.241 . S
O237 Mn238 2.163 . S
O237 C251 1.244 . S
Mn238 O237 2.163 . S
Mn238 O241 2.160 1_455 S
Mn238 O242 2.221 . S
Mn238 O244 2.163 1_454 S
Mn238 O246 2.160 . S
Mn238 O256 2.221 1_455 S
O239 Mn240 2.087 . S
O239 C251 1.256 . S
Mn240 O239 2.087 . S
Mn240 O247 2.089 . S
Mn240 O256 2.290 1_455 S
Mn240 O257 2.251 1_455 S
O241 Mn238 2.160 1_655 S
O241 C252 1.239 . S
O242 Mn238 2.221 . S
O242 Mn243 2.290 1_554 S
O242 C253 1.278 . S
Mn243 O242 2.290 1_556 S
Mn243 O245 2.089 1_455 S
Mn243 O248 2.251 . S
Mn243 O249 2.087 . S
O244 Mn238 2.163 1_656 S
O244 C254 1.244 . S
O245 Mn243 2.089 1_655 S
O245 C252 1.256 1_556 S
O246 Mn238 2.160 . S
O246 C255 1.239 . S
O247 Mn240 2.089 . S
O247 C255 1.256 . S
O248 Mn243 2.251 . S
O248 C253 1.241 1_556 S
O249 Mn243 2.087 . S
O249 C254 1.256 1_455 S
C250 O256 1.278 . S
C250 O257 1.241 . S
C251 O237 1.244 . S
C251 O239 1.256 . S
C252 O241 1.239 . S
C252 O245 1.256 1_554 S
C253 O242 1.278 . S
C253 O248 1.241 1_554 S
C254 O244 1.244 . S
C254 O249 1.256 1_655 S
C255 O246 1.239 . S
C255 O247 1.256 . S
O256 Mn238 2.221 1_655 S
O256 Mn240 2.290 1_655 S
O256 C250 1.278 . S
O257 Mn240 2.251 1_655 S
O257 C250 1.241 . S
O258 Mn259 2.163 . S
O258 C272 1.244 . S
Mn259 O258 2.163 . S
Mn259 O262 2.160 . S
Mn259 O263 2.221 . S
Mn259 O265 2.163 . S
Mn259 O267 2.160 1_554 S
Mn259 O277 2.221 1_554 S
O260 Mn261 2.087 . S
O260 C272 1.256 1_556 S
Mn261 O260 2.087 . S
Mn261 O268 2.089 . S
Mn261 O277 2.290 . S
Mn261 O278 2.251 1_556 S
O262 Mn259 2.160 . S
O262 C273 1.239 . S
O263 Mn259 2.221 . S
O263 Mn264 2.290 . S
O263 C274 1.278 . S
Mn264 O263 2.290 . S
Mn264 O266 2.089 . S
Mn264 O269 2.251 . S
Mn264 O270 2.087 . S
O265 Mn259 2.163 . S
O265 C275 1.244 . S
O266 Mn264 2.089 . S
O266 C273 1.256 . S
O267 Mn259 2.160 1_556 S
O267 C276 1.239 . S
O268 Mn261 2.089 . S
O268 C276 1.256 . S
O269 Mn264 2.251 . S
O269 C274 1.241 . S
O270 Mn264 2.087 . S
O270 C275 1.256 . S
C271 O277 1.278 1_554 S
C271 O278 1.241 . S
C272 O258 1.244 . S
C272 O260 1.256 1_554 S
C273 O262 1.239 . S
C273 O266 1.256 . S
C274 O263 1.278 . S
C274 O269 1.241 . S
C275 O265 1.244 . S
C275 O270 1.256 . S
C276 O267 1.239 . S
C276 O268 1.256 . S
O277 Mn259 2.221 1_556 S
O277 Mn261 2.290 . S
O277 C271 1.278 1_556 S
O278 Mn261 2.251 1_554 S
O278 C271 1.241 . S
O279 Mn280 2.163 . S
O279 C293 1.244 . S
Mn280 O279 2.163 . S
Mn280 O283 2.160 . S
Mn280 O284 2.221 . S
Mn280 O286 2.163 . S
Mn280 O288 2.160 . S
Mn280 O298 2.221 . S
O281 Mn282 2.087 . S
O281 C293 1.256 . S
Mn282 O281 2.087 . S
Mn282 O289 2.089 . S
Mn282 O298 2.290 . S
Mn282 O299 2.251 . S
O283 Mn280 2.160 . S
O283 C294 1.239 . S
O284 Mn280 2.221 . S
O284 Mn285 2.290 . S
O284 C295 1.278 . S
Mn285 O284 2.290 . S
Mn285 O287 2.089 . S
Mn285 O290 2.251 . S
Mn285 O291 2.087 . S
O286 Mn280 2.163 . S
O286 C296 1.244 . S
O287 Mn285 2.089 . S
O287 C294 1.256 . S
O288 Mn280 2.160 . S
O288 C297 1.239 . S
O289 Mn282 2.089 . S
O289 C297 1.256 . S
O290 Mn285 2.251 . S
O290 C295 1.241 . S
O291 Mn285 2.087 . S
O291 C296 1.256 . S
C292 O298 1.278 . S
C292 O299 1.241 . S
C293 O279 1.244 . S
C293 O281 1.256 . S
C294 O283 1.239 . S
C294 O287 1.256 . S
C295 O284 1.278 . S
C295 O290 1.241 . S
C296 O286 1.244 . S
C296 O291 1.256 . S
C297 O288 1.239 . S
C297 O289 1.256 . S
O298 Mn280 2.221 . S
O298 Mn282 2.290 . S
O298 C292 1.278 . S
O299 Mn282 2.251 . S
O299 C292 1.241 . S
O300 Mn301 2.163 . S
O300 C314 1.244 . S
Mn301 O300 2.163 . S
Mn301 O304 2.160 . S
Mn301 O305 2.221 . S
Mn301 O307 2.163 . S
Mn301 O309 2.160 . S
Mn301 O319 2.221 . S
O302 Mn303 2.087 . S
O302 C314 1.256 . S
Mn303 O302 2.087 . S
Mn303 O310 2.089 . S
Mn303 O319 2.290 . S
Mn303 O320 2.251 . S
O304 Mn301 2.160 . S
O304 C315 1.239 . S
O305 Mn301 2.221 . S
O305 Mn306 2.290 . S
O305 C316 1.278 . S
Mn306 O305 2.290 . S
Mn306 O308 2.089 . S
Mn306 O311 2.251 . S
Mn306 O312 2.087 . S
O307 Mn301 2.163 . S
O307 C317 1.244 . S
O308 Mn306 2.089 . S
O308 C315 1.256 . S
O309 Mn301 2.160 . S
O309 C318 1.239 . S
O310 Mn303 2.089 . S
O310 C318 1.256 . S
O311 Mn306 2.251 . S
O311 C316 1.241 . S
O312 Mn306 2.087 . S
O312 C317 1.256 . S
C313 O319 1.278 . S
C313 O320 1.241 . S
C314 O300 1.244 . S
C314 O302 1.256 . S
C315 O304 1.239 . S
C315 O308 1.256 . S
C316 O305 1.278 . S
C316 O311 1.241 . S
C317 O307 1.244 . S
C317 O312 1.256 . S
C318 O309 1.239 . S
C318 O310 1.256 . S
O319 Mn301 2.221 . S
O319 Mn303 2.290 . S
O319 C313 1.278 . S
O320 Mn303 2.251 . S
O320 C313 1.241 . S
O321 Mn322 2.163 . S
O321 C335 1.244 . S
Mn322 O321 2.163 . S
Mn322 O325 2.160 . S
Mn322 O326 2.221 . S
Mn322 O328 2.163 . S
Mn322 O330 2.160 . S
Mn322 O340 2.221 . S
O323 Mn324 2.087 . S
O323 C335 1.256 . S
Mn324 O323 2.087 . S
Mn324 O331 2.089 . S
Mn324 O340 2.290 . S
Mn324 O341 2.251 . S
O325 Mn322 2.160 . S
O325 C336 1.239 . S
O326 Mn322 2.221 . S
O326 Mn327 2.290 . S
O326 C337 1.278 . S
Mn327 O326 2.290 . S
Mn327 O329 2.089 . S
Mn327 O332 2.251 . S
Mn327 O333 2.087 . S
O328 Mn322 2.163 . S
O328 C338 1.244 . S
O329 Mn327 2.089 . S
O329 C336 1.256 . S
O330 Mn322 2.160 . S
O330 C339 1.239 . S
O331 Mn324 2.089 . S
O331 C339 1.256 . S
O332 Mn327 2.251 . S
O332 C337 1.241 . S
O333 Mn327 2.087 . S
O333 C338 1.256 . S
C334 O340 1.278 . S
C334 O341 1.241 . S
C335 O321 1.244 . S
C335 O323 1.256 . S
C336 O325 1.239 . S
C336 O329 1.256 . S
C337 O326 1.278 . S
C337 O332 1.241 . S
C338 O328 1.244 . S
C338 O333 1.256 . S
C339 O330 1.239 . S
C339 O331 1.256 . S
O340 Mn322 2.221 . S
O340 Mn324 2.290 . S
O340 C334 1.278 . S
O341 Mn324 2.251 . S
O341 C334 1.241 . S
O342 Mn343 2.163 . S
O342 C356 1.244 . S
Mn343 O342 2.163 . S
Mn343 O346 2.160 . S
Mn343 O347 2.221 . S
Mn343 O349 2.163 . S
Mn343 O351 2.160 . S
Mn343 O361 2.221 . S
O344 Mn345 2.087 . S
O344 C356 1.256 . S
Mn345 O344 2.087 . S
Mn345 O352 2.089 . S
Mn345 O361 2.290 . S
Mn345 O362 2.251 . S
O346 Mn343 2.160 . S
O346 C357 1.239 . S
O347 Mn343 2.221 . S
O347 Mn348 2.290 . S
O347 C358 1.278 . S
Mn348 O347 2.290 . S
Mn348 O350 2.089 . S
Mn348 O353 2.251 . S
Mn348 O354 2.087 . S
O349 Mn343 2.163 . S
O349 C359 1.244 . S
O350 Mn348 2.089 . S
O350 C357 1.256 . S
O351 Mn343 2.160 . S
O351 C360 1.239 . S
O352 Mn345 2.089 . S
O352 C360 1.256 . S
O353 Mn348 2.251 . S
O353 C358 1.241 . S
O354 Mn348 2.087 . S
O354 C359 1.256 . S
C355 O361 1.278 . S
C355 O362 1.241 . S
C356 O342 1.244 . S
C356 O344 1.256 . S
C357 O346 1.239 . S
C357 O350 1.256 . S
C358 O347 1.278 . S
C358 O353 1.241 . S
C359 O349 1.244 . S
C359 O354 1.256 . S
C360 O351 1.239 . S
C360 O352 1.256 . S
O361 Mn343 2.221 . S
O361 Mn345 2.290 . S
O361 C355 1.278 . S
O362 Mn345 2.251 . S
O362 C355 1.241 . S
O363 Mn364 2.163 . S
O363 C377 1.244 . S
Mn364 O363 2.163 . S
Mn364 O367 2.160 . S
Mn364 O368 2.221 . S
Mn364 O370 2.163 . S
Mn364 O372 2.160 . S
Mn364 O382 2.221 . S
O365 Mn366 2.087 . S
O365 C377 1.256 . S
Mn366 O365 2.087 . S
Mn366 O373 2.089 . S
Mn366 O382 2.290 . S
Mn366 O383 2.251 . S
O367 Mn364 2.160 . S
O367 C378 1.239 . S
O368 Mn364 2.221 . S
O368 Mn369 2.290 . S
O368 C379 1.278 . S
Mn369 O368 2.290 . S
Mn369 O371 2.089 . S
Mn369 O374 2.251 . S
Mn369 O375 2.087 . S
O370 Mn364 2.163 . S
O370 C380 1.244 . S
O371 Mn369 2.089 . S
O371 C378 1.256 . S
O372 Mn364 2.160 . S
O372 C381 1.239 . S
O373 Mn366 2.089 . S
O373 C381 1.256 . S
O374 Mn369 2.251 . S
O374 C379 1.241 . S
O375 Mn369 2.087 . S
O375 C380 1.256 . S
C376 O382 1.278 . S
C376 O383 1.241 . S
C377 O363 1.244 . S
C377 O365 1.256 . S
C378 O367 1.239 . S
C378 O371 1.256 . S
C379 O368 1.278 . S
C379 O374 1.241 . S
C380 O370 1.244 . S
C380 O375 1.256 . S
C381 O372 1.239 . S
C381 O373 1.256 . S
O382 Mn364 2.221 . S
O382 Mn366 2.290 . S
O382 C376 1.278 . S
O383 Mn366 2.251 . S
O383 C376 1.241 . S
O384 Mn385 2.163 . S
O384 C398 1.244 . S
Mn385 O384 2.163 . S
Mn385 O388 2.160 . S
Mn385 O389 2.221 . S
Mn385 O391 2.163 . S
Mn385 O393 2.160 . S
Mn385 O403 2.221 . S
O386 Mn387 2.087 . S
O386 C398 1.256 . S
Mn387 O386 2.087 . S
Mn387 O394 2.089 . S
Mn387 O403 2.290 . S
Mn387 O404 2.251 . S
O388 Mn385 2.160 . S
O388 C399 1.239 . S
O389 Mn385 2.221 . S
O389 Mn390 2.290 . S
O389 C400 1.278 . S
Mn390 O389 2.290 . S
Mn390 O392 2.089 . S
Mn390 O395 2.251 . S
Mn390 O396 2.087 . S
O391 Mn385 2.163 . S
O391 C401 1.244 . S
O392 Mn390 2.089 . S
O392 C399 1.256 . S
O393 Mn385 2.160 . S
O393 C402 1.239 . S
O394 Mn387 2.089 . S
O394 C402 1.256 . S
O395 Mn390 2.251 . S
O395 C400 1.241 . S
O396 Mn390 2.087 . S
O396 C401 1.256 . S
C397 O403 1.278 . S
C397 O404 1.241 . S
C398 O384 1.244 . S
C398 O386 1.256 . S
C399 O388 1.239 . S
C399 O392 1.256 . S
C400 O389 1.278 . S
C400 O395 1.241 . S
C401 O391 1.244 . S
C401 O396 1.256 . S
C402 O393 1.239 . S
C402 O394 1.256 . S
O403 Mn385 2.221 . S
O403 Mn387 2.290 . S
O403 C397 1.278 . S
O404 Mn387 2.251 . S
O404 C397 1.241 . S
C405 C406 1.349 . S
C405 C407 1.327 . S
C405 H430 0.950 . S
C406 C405 1.349 . S
C406 C422 1.349 . S
C407 C405 1.327 . S
C407 C426 1.429 . S
C407 H431 0.950 . S
C408 C425 1.572 1_554 S
C408 C427 1.400 . S
C408 H432 0.922 1_554 S
H409 C413 0.949 . S
C410 C411 1.316 1_556 S
C410 C412 1.327 . S
C410 H433 0.985 . S
C411 C410 1.316 1_554 S
C411 C423 1.349 . S
C412 C410 1.327 . S
C412 C428 1.406 1_556 S
C412 H434 0.972 . S
C413 H409 0.949 . S
C413 C421 1.574 . S
C413 C429 1.368 . S
H414 C422 0.950 1_556 S
H415 C420 0.950 1_556 S
H416 C421 0.949 . S
H417 C423 0.950 . S
H418 C424 0.950 . S
H419 C425 0.946 . S
C420 H415 0.950 1_554 S
C420 C422 1.327 . S
C420 C426 1.429 . S
C421 C413 1.574 . S
C421 H416 0.949 . S
C421 C427 1.368 . S
C422 C406 1.349 . S
C422 H414 0.950 1_554 S
C422 C420 1.327 . S
C423 C411 1.349 . S
C423 H417 0.950 . S
C423 C424 1.327 . S
C424 H418 0.950 . S
C424 C423 1.327 . S
C424 C428 1.429 . S
C425 C408 1.572 1_556 S
C425 H419 0.946 . S
C425 C429 1.372 1_556 S
C426 C407 1.429 . S
C426 C420 1.429 . S
C426 C427 1.523 . S
C427 C408 1.400 . S
C427 C421 1.368 . S
C427 C426 1.523 . S
C428 C412 1.406 1_554 S
C428 C424 1.429 . S
C428 C429 1.523 . S
C429 C413 1.368 . S
C429 C425 1.372 1_554 S
C429 C428 1.523 . S
H430 C405 0.950 . S
H431 C407 0.950 . S
H432 C408 0.922 1_556 S
H433 C410 0.985 . S
H434 C412 0.972 . S
C435 C436 1.349 . S
C435 C437 1.327 . S
C435 H460 0.950 . S
C436 C435 1.349 . S
C436 C452 1.349 . S
C437 C435 1.327 . S
C437 C456 1.429 . S
C437 H461 0.950 . S
C438 C455 1.574 . S
C438 C457 1.368 . S
C438 H462 0.949 1_554 S
H439 C443 0.949 . S
C440 C441 1.349 . S
C440 C442 1.327 . S
C440 H463 0.950 1_554 S
C441 C440 1.349 . S
C441 C453 1.349 . S
C442 C440 1.327 . S
C442 C458 1.429 . S
C442 H464 0.950 1_554 S
C443 H439 0.949 . S
C443 C451 1.574 . S
C443 C459 1.368 . S
H444 C452 0.959 . S
H445 C450 0.950 1_556 S
H446 C451 0.949 . S
H447 C453 0.950 . S
H448 C454 0.950 . S
H449 C455 0.949 1_556 S
C450 H445 0.950 1_554 S
C450 C452 1.327 . S
C450 C456 1.429 . S
C451 C443 1.574 . S
C451 H446 0.949 . S
C451 C457 1.368 . S
C452 C436 1.349 . S
C452 H444 0.959 . S
C452 C450 1.327 . S
C453 C441 1.349 . S
C453 H447 0.950 . S
C453 C454 1.327 . S
C454 H448 0.950 . S
C454 C453 1.327 . S
C454 C458 1.429 . S
C455 C438 1.574 . S
C455 H449 0.949 1_554 S
C455 C459 1.368 . S
C456 C437 1.429 . S
C456 C450 1.429 . S
C456 C457 1.523 . S
C457 C438 1.368 . S
C457 C451 1.368 . S
C457 C456 1.523 . S
C458 C442 1.429 . S
C458 C454 1.429 . S
C458 C459 1.523 . S
C459 C443 1.368 . S
C459 C455 1.368 . S
C459 C458 1.523 . S
H460 C435 0.950 . S
H461 C437 0.950 . S
H462 C438 0.949 1_556 S
H463 C440 0.950 1_556 S
H464 C442 0.950 1_556 S
C465 C466 1.349 . S
C465 C467 1.327 . S
C465 H490 0.950 1_554 S
C466 C465 1.349 . S
C466 C482 1.349 . S
C467 C465 1.327 . S
C467 C486 1.429 . S
C467 H491 0.950 1_554 S
C468 C485 1.574 . S
C468 C487 1.368 . S
C468 H492 0.949 . S
H469 C473 0.949 1_556 S
C470 C471 1.349 . S
C470 C472 1.327 . S
C470 H493 0.950 . S
C471 C470 1.349 . S
C471 C483 1.330 1_554 S
C472 C470 1.327 . S
C472 C488 1.429 . S
C472 H494 0.950 . S
C473 H469 0.949 1_554 S
C473 C481 1.574 . S
C473 C489 1.368 . S
H474 C482 0.950 . S
H475 C480 0.950 . S
H476 C481 0.949 1_556 S
H477 C483 0.970 . S
H478 C484 0.948 1_556 S
H479 C485 0.949 . S
C480 H475 0.950 . S
C480 C482 1.327 . S
C480 C486 1.429 . S
C481 C473 1.574 . S
C481 H476 0.949 1_554 S
C481 C487 1.368 . S
C482 C466 1.349 . S
C482 H474 0.950 . S
C482 C480 1.327 . S
C483 C471 1.330 1_556 S
C483 H477 0.970 . S
C483 C484 1.327 1_556 S
C484 H478 0.948 1_554 S
C484 C483 1.327 1_554 S
C484 C488 1.430 . S
C485 C468 1.574 . S
C485 H479 0.949 . S
C485 C489 1.368 . S
C486 C467 1.429 . S
C486 C480 1.429 . S
C486 C487 1.523 . S
C487 C468 1.368 . S
C487 C481 1.368 . S
C487 C486 1.523 . S
C488 C472 1.429 . S
C488 C484 1.430 . S
C488 C489 1.523 . S
C489 C473 1.368 . S
C489 C485 1.368 . S
C489 C488 1.523 . S
H490 C465 0.950 1_556 S
H491 C467 0.950 1_556 S
H492 C468 0.949 . S
H493 C470 0.950 . S
H494 C472 0.950 . S
C495 C496 1.349 . S
C495 C497 1.327 . S
C495 H520 0.950 . S
C496 C495 1.349 . S
C496 C512 1.349 1_556 S
C497 C495 1.327 . S
C497 C516 1.444 . S
C497 H521 0.950 . S
C498 C515 1.574 . S
C498 C517 1.393 . S
C498 H522 0.949 . S
H499 C503 0.949 . S
C500 C501 1.349 . S
C500 C502 1.327 . S
C500 H523 0.950 . S
C501 C500 1.349 . S
C501 C513 1.349 1_554 S
C502 C500 1.327 . S
C502 C518 1.429 . S
C502 H524 0.950 . S
C503 H499 0.949 . S
C503 C511 1.574 . S
C503 C519 1.368 1_556 S
H504 C512 0.950 . S
H505 C510 0.950 . S
H506 C511 0.949 . S
H507 C513 0.950 . S
H508 C514 0.950 . S
H509 C515 0.949 . S
C510 H505 0.950 . S
C510 C512 1.327 . S
C510 C516 1.414 1_554 S
C511 C503 1.574 . S
C511 H506 0.949 . S
C511 C517 1.345 1_556 S
C512 C496 1.349 1_554 S
C512 H504 0.950 . S
C512 C510 1.327 . S
C513 C501 1.349 1_556 S
C513 H507 0.950 . S
C513 C514 1.327 . S
C514 H508 0.950 . S
C514 C513 1.327 . S
C514 C518 1.429 1_556 S
C515 C498 1.574 . S
C515 H509 0.949 . S
C515 C519 1.368 . S
C516 C497 1.444 . S
C516 C510 1.414 1_556 S
C516 C517 1.522 1_556 S
C517 C498 1.393 . S
C517 C511 1.345 1_554 S
C517 C516 1.522 1_554 S
C518 C502 1.429 . S
C518 C514 1.429 1_554 S
C518 C519 1.523 . S
C519 C503 1.368 1_554 S
C519 C515 1.368 . S
C519 C518 1.523 . S
H520 C495 0.950 . S
H521 C497 0.950 . S
H522 C498 0.949 . S
H523 C500 0.950 . S
H524 C502 0.950 . S
C525 C526 1.347 . S
C525 C527 1.327 . S
C525 H550 0.950 . S
C526 C525 1.347 . S
C526 C542 1.350 1_556 S
C527 C525 1.327 . S
C527 C546 1.429 1_556 S
C527 H551 0.950 . S
C528 C545 1.574 . S
C528 C547 1.368 . S
C528 H552 0.949 . S
H529 C533 0.949 . S
C530 C531 1.349 . S
C530 C532 1.327 . S
C530 H553 0.950 . S
C531 C530 1.349 . S
C531 C543 1.349 1_554 S
C532 C530 1.327 . S
C532 C548 1.429 . S
C532 H554 0.950 . S
C533 H529 0.949 . S
C533 C541 1.574 . S
C533 C549 1.368 1_556 S
H534 C542 0.950 . S
H535 C540 0.950 . S
H536 C541 0.949 . S
H537 C543 0.950 . S
H538 C544 0.950 . S
H539 C545 0.949 . S
C540 H535 0.950 . S
C540 C542 1.327 . S
C540 C546 1.429 . S
C541 C533 1.574 . S
C541 H536 0.949 . S
C541 C547 1.368 1_556 S
C542 C526 1.350 1_554 S
C542 H534 0.950 . S
C542 C540 1.327 . S
C543 C531 1.349 1_556 S
C543 H537 0.950 . S
C543 C544 1.327 . S
C544 H538 0.950 . S
C544 C543 1.327 . S
C544 C548 1.429 1_556 S
C545 C528 1.574 . S
C545 H539 0.949 . S
C545 C549 1.368 . S
C546 C527 1.429 1_554 S
C546 C540 1.429 . S
C546 C547 1.523 . S
C547 C528 1.368 . S
C547 C541 1.368 1_554 S
C547 C546 1.523 . S
C548 C532 1.429 . S
C548 C544 1.429 1_554 S
C548 C549 1.523 . S
C549 C533 1.368 1_554 S
C549 C545 1.368 . S
C549 C548 1.523 . S
H550 C525 0.950 . S
H551 C527 0.950 . S
H552 C528 0.949 . S
H553 C530 0.950 . S
H554 C532 0.950 . S
C555 C556 1.349 1_556 S
C555 C557 1.327 . S
C555 H580 0.950 . S
C556 C555 1.349 1_554 S
C556 C572 1.349 . S
C557 C555 1.327 . S
C557 C576 1.429 1_556 S
C557 H581 0.950 . S
C558 C575 1.574 . S
C558 C577 1.368 . S
C558 H582 0.949 . S
H559 C563 0.949 . S
C560 C561 1.349 . S
C560 C562 1.327 . S
C560 H583 0.950 . S
C561 C560 1.349 . S
C561 C573 1.349 1_554 S
C562 C560 1.327 . S
C562 C578 1.429 . S
C562 H584 0.950 . S
C563 H559 0.949 . S
C563 C571 1.574 . S
C563 C579 1.368 1_556 S
H564 C572 0.950 . S
H565 C570 0.950 . S
H566 C571 0.949 . S
H567 C573 0.950 . S
H568 C574 0.950 . S
H569 C575 0.949 . S
C570 H565 0.950 . S
C570 C572 1.327 . S
C570 C576 1.429 . S
C571 C563 1.574 . S
C571 H566 0.949 . S
C571 C577 1.368 1_556 S
C572 C556 1.349 . S
C572 H564 0.950 . S
C572 C570 1.327 . S
C573 C561 1.349 1_556 S
C573 H567 0.950 . S
C573 C574 1.327 . S
C574 H568 0.950 . S
C574 C573 1.327 . S
C574 C578 1.429 1_556 S
C575 C558 1.574 . S
C575 H569 0.949 . S
C575 C579 1.368 . S
C576 C557 1.429 1_554 S
C576 C570 1.429 . S
C576 C577 1.523 . S
C577 C558 1.368 . S
C577 C571 1.368 1_554 S
C577 C576 1.523 . S
C578 C562 1.429 . S
C578 C574 1.429 1_554 S
C578 C579 1.523 . S
C579 C563 1.368 1_554 S
C579 C575 1.368 . S
C579 C578 1.523 . S
H580 C555 0.950 . S
H581 C557 0.950 . S
H582 C558 0.949 . S
H583 C560 0.950 . S
H584 C562 0.950 . S
C585 C586 1.349 . S
C585 C587 1.327 . S
C585 H610 0.950 . S
C586 C585 1.349 . S
C586 C602 1.349 1_554 S
C587 C585 1.327 . S
C587 C606 1.429 . S
C587 H611 0.950 . S
C588 C605 1.574 . S
C588 C607 1.368 1_556 S
C588 H612 0.949 . S
H589 C593 0.949 . S
C590 C591 1.349 1_556 S
C590 C592 1.327 . S
C590 H613 0.950 . S
C591 C590 1.349 1_554 S
C591 C603 1.349 . S
C592 C590 1.327 . S
C592 C608 1.429 1_556 S
C592 H614 0.950 . S
C593 H589 0.949 . S
C593 C601 1.574 . S
C593 C609 1.368 . S
H594 C602 0.950 . S
H595 C600 0.950 . S
H596 C601 0.949 . S
H597 C603 0.950 . S
H598 C604 0.950 . S
H599 C605 0.949 . S
C600 H595 0.950 . S
C600 C602 1.327 . S
C600 C606 1.429 1_556 S
C601 C593 1.574 . S
C601 H596 0.949 . S
C601 C607 1.368 . S
C602 C586 1.349 1_556 S
C602 H594 0.950 . S
C602 C600 1.327 . S
C603 C591 1.349 . S
C603 H597 0.950 . S
C603 C604 1.327 . S
C604 H598 0.950 . S
C604 C603 1.327 . S
C604 C608 1.429 . S
C605 C588 1.574 . S
C605 H599 0.949 . S
C605 C609 1.368 1_556 S
C606 C587 1.429 . S
C606 C600 1.429 1_554 S
C606 C607 1.523 . S
C607 C588 1.368 1_554 S
C607 C601 1.368 . S
C607 C606 1.523 . S
C608 C592 1.429 1_554 S
C608 C604 1.429 . S
C608 C609 1.523 . S
C609 C593 1.368 . S
C609 C605 1.368 1_554 S
C609 C608 1.523 . S
H610 C585 0.950 . S
H611 C587 0.950 . S
H612 C588 0.949 . S
H613 C590 0.950 . S
H614 C592 0.950 . S
C615 C616 1.349 . S
C615 C617 1.327 . S
C615 H640 0.950 . S
C616 C615 1.349 . S
C616 C632 1.349 1_554 S
C617 C615 1.327 . S
C617 C636 1.429 . S
C617 H641 0.950 . S
C618 C635 1.574 . S
C618 C637 1.368 1_556 S
C618 H642 0.949 . S
H619 C623 0.949 . S
C620 C621 1.349 1_556 S
C620 C622 1.327 . S
C620 H643 0.950 . S
C621 C620 1.349 1_554 S
C621 C633 1.349 . S
C622 C620 1.327 . S
C622 C638 1.429 1_556 S
C622 H644 0.950 . S
C623 H619 0.949 . S
C623 C631 1.574 . S
C623 C639 1.368 . S
H624 C632 0.950 . S
H625 C630 0.950 . S
H626 C631 0.949 . S
H627 C633 0.950 . S
H628 C634 0.950 . S
H629 C635 0.949 . S
C630 H625 0.950 . S
C630 C632 1.327 . S
C630 C636 1.429 1_556 S
C631 C623 1.574 . S
C631 H626 0.949 . S
C631 C637 1.368 . S
C632 C616 1.349 1_556 S
C632 H624 0.950 . S
C632 C630 1.327 . S
C633 C621 1.349 . S
C633 H627 0.950 . S
C633 C634 1.327 . S
C634 H628 0.950 . S
C634 C633 1.327 . S
C634 C638 1.429 . S
C635 C618 1.574 . S
C635 H629 0.949 . S
C635 C639 1.368 1_556 S
C636 C617 1.429 . S
C636 C630 1.429 1_554 S
C636 C637 1.523 . S
C637 C618 1.368 1_554 S
C637 C631 1.368 . S
C637 C636 1.523 . S
C638 C622 1.429 1_554 S
C638 C634 1.429 . S
C638 C639 1.523 . S
C639 C623 1.368 . S
C639 C635 1.368 1_554 S
C639 C638 1.523 . S
H640 C615 0.950 . S
H641 C617 0.950 . S
H642 C618 0.949 . S
H643 C620 0.950 . S
H644 C622 0.950 . S
C645 C646 1.349 . S
C645 C647 1.327 . S
C645 H670 0.950 . S
C646 C645 1.349 . S
C646 C662 1.349 1_554 S
C647 C645 1.327 . S
C647 C666 1.429 . S
C647 H671 0.950 . S
C648 C665 1.574 . S
C648 C667 1.368 1_556 S
C648 H672 0.949 . S
H649 C653 0.949 . S
C650 C651 1.349 1_556 S
C650 C652 1.327 . S
C650 H673 0.950 . S
C651 C650 1.349 1_554 S
C651 C663 1.349 . S
C652 C650 1.327 . S
C652 C668 1.429 1_556 S
C652 H674 0.950 . S
C653 H649 0.949 . S
C653 C661 1.574 . S
C653 C669 1.368 . S
H654 C662 0.950 . S
H655 C660 0.950 . S
H656 C661 0.949 . S
H657 C663 0.950 . S
H658 C664 0.950 . S
H659 C665 0.949 . S
C660 H655 0.950 . S
C660 C662 1.327 . S
C660 C666 1.429 1_556 S
C661 C653 1.574 . S
C661 H656 0.949 . S
C661 C667 1.368 . S
C662 C646 1.349 1_556 S
C662 H654 0.950 . S
C662 C660 1.327 . S
C663 C651 1.349 . S
C663 H657 0.950 . S
C663 C664 1.327 . S
C664 H658 0.950 . S
C664 C663 1.327 . S
C664 C668 1.429 . S
C665 C648 1.574 . S
C665 H659 0.949 . S
C665 C669 1.368 1_556 S
C666 C647 1.429 . S
C666 C660 1.429 1_554 S
C666 C667 1.523 . S
C667 C648 1.368 1_554 S
C667 C661 1.368 . S
C667 C666 1.523 . S
C668 C652 1.429 1_554 S
C668 C664 1.429 . S
C668 C669 1.523 . S
C669 C653 1.368 . S
C669 C665 1.368 1_554 S
C669 C668 1.523 . S
H670 C645 0.950 . S
H671 C647 0.950 . S
H672 C648 0.949 . S
H673 C650 0.950 . S
H674 C652 0.950 . S
C675 C676 1.349 . S
C675 C677 1.327 . S
C675 H700 0.950 1_554 S
C676 C675 1.349 . S
C676 C692 1.349 . S
C677 C675 1.327 . S
C677 C696 1.429 . S
C677 H701 0.950 1_554 S
C678 C695 1.574 . S
C678 C697 1.368 . S
C678 H702 0.949 . S
H679 C683 0.949 1_556 S
C680 C681 1.349 . S
C680 C682 1.327 . S
C680 H703 0.950 . S
C681 C680 1.349 . S
C681 C693 1.349 . S
C682 C680 1.327 . S
C682 C698 1.429 . S
C682 H704 0.950 . S
C683 H679 0.949 1_554 S
C683 C691 1.574 . S
C683 C699 1.368 . S
H684 C692 0.950 . S
H685 C690 0.950 . S
H686 C691 0.949 1_556 S
H687 C693 0.950 1_556 S
H688 C694 0.950 1_556 S
H689 C695 0.949 . S
C690 H685 0.950 . S
C690 C692 1.327 . S
C690 C696 1.429 . S
C691 C683 1.574 . S
C691 H686 0.949 1_554 S
C691 C697 1.368 . S
C692 C676 1.349 . S
C692 H684 0.950 . S
C692 C690 1.327 . S
C693 C681 1.349 . S
C693 H687 0.950 1_554 S
C693 C694 1.327 . S
C694 H688 0.950 1_554 S
C694 C693 1.327 . S
C694 C698 1.429 . S
C695 C678 1.574 . S
C695 H689 0.949 . S
C695 C699 1.368 . S
C696 C677 1.429 . S
C696 C690 1.429 . S
C696 C697 1.523 . S
C697 C678 1.368 . S
C697 C691 1.368 . S
C697 C696 1.523 . S
C698 C682 1.429 . S
C698 C694 1.429 . S
C698 C699 1.523 . S
C699 C683 1.368 . S
C699 C695 1.368 . S
C699 C698 1.523 . S
H700 C675 0.950 1_556 S
H701 C677 0.950 1_556 S
H702 C678 0.949 . S
H703 C680 0.950 . S
H704 C682 0.950 . S
C705 C706 1.349 . S
C705 C707 1.327 . S
C705 H730 0.950 . S
C706 C705 1.349 . S
C706 C722 1.349 . S
C707 C705 1.327 . S
C707 C726 1.429 . S
C707 H731 0.950 . S
C708 C725 1.574 . S
C708 C727 1.368 1_556 S
C708 H732 0.949 . S
H709 C713 0.949 . S
C710 C711 1.349 1_556 S
C710 C712 1.327 . S
C710 H733 0.950 . S
C711 C710 1.349 1_554 S
C711 C723 1.349 . S
C712 C710 1.327 . S
C712 C728 1.429 1_556 S
C712 H734 0.950 . S
C713 H709 0.949 . S
C713 C721 1.574 . S
C713 C729 1.368 . S
H714 C722 0.949 1_556 S
H715 C720 0.950 . S
H716 C721 0.949 . S
H717 C723 0.950 . S
H718 C724 0.950 . S
H719 C725 0.949 . S
C720 H715 0.950 . S
C720 C722 1.327 1_556 S
C720 C726 1.429 1_556 S
C721 C713 1.574 . S
C721 H716 0.949 . S
C721 C727 1.368 . S
C722 C706 1.349 . S
C722 H714 0.949 1_554 S
C722 C720 1.327 1_554 S
C723 C711 1.349 . S
C723 H717 0.950 . S
C723 C724 1.327 . S
C724 H718 0.950 . S
C724 C723 1.327 . S
C724 C728 1.429 . S
C725 C708 1.574 . S
C725 H719 0.949 . S
C725 C729 1.368 1_556 S
C726 C707 1.429 . S
C726 C720 1.429 1_554 S
C726 C727 1.523 . S
C727 C708 1.368 1_554 S
C727 C721 1.368 . S
C727 C726 1.523 . S
C728 C712 1.429 1_554 S
C728 C724 1.429 . S
C728 C729 1.523 . S
C729 C713 1.368 . S
C729 C725 1.368 1_554 S
C729 C728 1.523 . S
H730 C705 0.950 . S
H731 C707 0.950 . S
H732 C708 0.949 . S
H733 C710 0.950 . S
H734 C712 0.950 . S
C735 C736 1.349 1_556 S
C735 C737 1.327 . S
C735 H760 0.950 . S
C736 C735 1.349 1_554 S
C736 C752 1.349 . S
C737 C735 1.327 . S
C737 C756 1.429 1_556 S
C737 H761 0.950 . S
C738 C755 1.574 . S
C738 C757 1.368 . S
C738 H762 0.949 . S
H739 C743 0.949 . S
C740 C741 1.349 . S
C740 C742 1.327 . S
C740 H763 0.950 . S
C741 C740 1.349 . S
C741 C753 1.349 1_554 S
C742 C740 1.327 . S
C742 C758 1.429 . S
C742 H764 0.950 . S
C743 H739 0.949 . S
C743 C751 1.574 . S
C743 C759 1.368 1_556 S
H744 C752 0.950 . S
H745 C750 0.950 . S
H746 C751 0.949 . S
H747 C753 0.950 . S
H748 C754 0.950 . S
H749 C755 0.949 . S
C750 H745 0.950 . S
C750 C752 1.327 . S
C750 C756 1.429 . S
C751 C743 1.574 . S
C751 H746 0.949 . S
C751 C757 1.368 1_556 S
C752 C736 1.349 . S
C752 H744 0.950 . S
C752 C750 1.327 . S
C753 C741 1.349 1_556 S
C753 H747 0.950 . S
C753 C754 1.327 . S
C754 H748 0.950 . S
C754 C753 1.327 . S
C754 C758 1.429 1_556 S
C755 C738 1.574 . S
C755 H749 0.949 . S
C755 C759 1.368 . S
C756 C737 1.429 1_554 S
C756 C750 1.429 . S
C756 C757 1.523 . S
C757 C738 1.368 . S
C757 C751 1.368 1_554 S
C757 C756 1.523 . S
C758 C742 1.429 . S
C758 C754 1.429 1_554 S
C758 C759 1.523 . S
C759 C743 1.368 1_554 S
C759 C755 1.368 . S
C759 C758 1.523 . S
H760 C735 0.950 . S
H761 C737 0.950 . S
H762 C738 0.949 . S
H763 C740 0.950 . S
H764 C742 0.950 . S
C765 C766 1.349 . S
C765 C767 1.327 . S
C765 H790 0.950 . S
C766 C765 1.349 . S
C766 C782 1.349 . S
C767 C765 1.327 . S
C767 C786 1.429 . S
C767 H791 0.950 . S
C768 C785 1.574 . S
C768 C787 1.368 1_455 S
C768 H792 0.949 1_455 S
H769 C773 0.949 . S
C770 C771 1.349 . S
C770 C772 1.327 . S
C770 H793 0.950 . S
C771 C770 1.349 . S
C771 C783 1.349 . S
C772 C770 1.327 . S
C772 C788 1.429 . S
C772 H794 0.950 . S
C773 H769 0.949 . S
C773 C781 1.574 1_455 S
C773 C789 1.368 . S
H774 C782 0.950 . S
H775 C780 0.950 . S
H776 C781 0.949 . S
H777 C783 0.950 . S
H778 C784 0.950 . S
H779 C785 0.949 . S
C780 H775 0.950 . S
C780 C782 1.327 . S
C780 C786 1.429 . S
C781 C773 1.574 1_655 S
C781 H776 0.949 . S
C781 C787 1.368 . S
C782 C766 1.349 . S
C782 H774 0.950 . S
C782 C780 1.327 . S
C783 C771 1.349 . S
C783 H777 0.950 . S
C783 C784 1.327 . S
C784 H778 0.950 . S
C784 C783 1.327 . S
C784 C788 1.429 . S
C785 C768 1.574 . S
C785 H779 0.949 . S
C785 C789 1.368 . S
C786 C767 1.429 . S
C786 C780 1.429 . S
C786 C787 1.523 . S
C787 C768 1.368 1_655 S
C787 C781 1.368 . S
C787 C786 1.523 . S
C788 C772 1.429 . S
C788 C784 1.429 . S
C788 C789 1.523 . S
C789 C773 1.368 . S
C789 C785 1.368 . S
C789 C788 1.523 . S
H790 C765 0.950 . S
H791 C767 0.950 . S
H792 C768 0.949 1_655 S
H793 C770 0.950 . S
H794 C772 0.950 . S
C795 C796 1.349 . S
C795 C797 1.327 . S
C795 H820 0.950 . S
C796 C795 1.349 . S
C796 C812 1.349 . S
C797 C795 1.327 . S
C797 C816 1.429 . S
C797 H821 0.950 . S
C798 C815 1.574 . S
C798 C817 1.368 . S
C798 H822 0.949 . S
H799 C803 0.949 . S
C800 C801 1.349 . S
C800 C802 1.327 . S
C800 H823 0.950 . S
C801 C800 1.349 . S
C801 C813 1.349 . S
C802 C800 1.327 . S
C802 C818 1.429 . S
C802 H824 0.950 . S
C803 H799 0.949 . S
C803 C811 1.574 . S
C803 C819 1.368 . S
H804 C812 0.950 . S
H805 C810 0.950 . S
H806 C811 0.949 . S
H807 C813 0.950 . S
H808 C814 0.950 . S
H809 C815 0.949 . S
C810 H805 0.950 . S
C810 C812 1.327 . S
C810 C816 1.429 . S
C811 C803 1.574 . S
C811 H806 0.949 . S
C811 C817 1.368 . S
C812 C796 1.349 . S
C812 H804 0.950 . S
C812 C810 1.327 . S
C813 C801 1.349 . S
C813 H807 0.950 . S
C813 C814 1.327 . S
C814 H808 0.950 . S
C814 C813 1.327 . S
C814 C818 1.429 . S
C815 C798 1.574 . S
C815 H809 0.949 . S
C815 C819 1.368 . S
C816 C797 1.429 . S
C816 C810 1.429 . S
C816 C817 1.523 . S
C817 C798 1.368 . S
C817 C811 1.368 . S
C817 C816 1.523 . S
C818 C802 1.429 . S
C818 C814 1.429 . S
C818 C819 1.523 . S
C819 C803 1.368 . S
C819 C815 1.368 . S
C819 C818 1.523 . S
H820 C795 0.950 . S
H821 C797 0.950 . S
H822 C798 0.949 . S
H823 C800 0.950 . S
H824 C802 0.950 . S
C825 C826 1.349 . S
C825 C827 1.327 . S
C825 H850 0.950 . S
C826 C825 1.349 . S
C826 C842 1.349 . S
C827 C825 1.327 . S
C827 C846 1.429 . S
C827 H851 0.950 . S
C828 C845 1.574 1_545 S
C828 C847 1.368 . S
C828 H852 0.949 . S
H829 C833 0.949 . S
C830 C831 1.349 . S
C830 C832 1.327 . S
C830 H853 0.950 . S
C831 C830 1.349 . S
C831 C843 1.349 . S
C832 C830 1.327 . S
C832 C848 1.429 . S
C832 H854 0.950 . S
C833 H829 0.949 . S
C833 C841 1.574 1_565 S
C833 C849 1.368 . S
H834 C842 0.950 . S
H835 C840 0.950 . S
H836 C841 0.949 . S
H837 C843 0.950 . S
H838 C844 0.950 . S
H839 C845 0.949 . S
C840 H835 0.950 . S
C840 C842 1.327 . S
C840 C846 1.429 . S
C841 C833 1.574 1_545 S
C841 H836 0.949 . S
C841 C847 1.368 . S
C842 C826 1.349 . S
C842 H834 0.950 . S
C842 C840 1.327 . S
C843 C831 1.349 . S
C843 H837 0.950 . S
C843 C844 1.327 . S
C844 H838 0.950 . S
C844 C843 1.327 . S
C844 C848 1.429 . S
C845 C828 1.574 1_565 S
C845 H839 0.949 . S
C845 C849 1.368 . S
C846 C827 1.429 . S
C846 C840 1.429 . S
C846 C847 1.523 . S
C847 C828 1.368 . S
C847 C841 1.368 . S
C847 C846 1.523 . S
C848 C832 1.429 . S
C848 C844 1.429 . S
C848 C849 1.523 . S
C849 C833 1.368 . S
C849 C845 1.368 . S
C849 C848 1.523 . S
H850 C825 0.950 . S
H851 C827 0.950 . S
H852 C828 0.949 . S
H853 C830 0.950 . S
H854 C832 0.950 . S
C855 C856 1.349 . S
C855 C857 1.327 . S
C855 H880 0.950 . S
C856 C855 1.349 . S
C856 C872 1.349 . S
C857 C855 1.327 . S
C857 C876 1.429 . S
C857 H881 0.950 . S
C858 C875 1.574 . S
C858 C877 1.368 . S
C858 H882 0.949 . S
H859 C863 0.949 . S
C860 C861 1.349 . S
C860 C862 1.327 . S
C860 H883 0.950 . S
C861 C860 1.349 . S
C861 C873 1.349 . S
C862 C860 1.327 . S
C862 C878 1.429 . S
C862 H884 0.950 . S
C863 H859 0.949 . S
C863 C871 1.574 . S
C863 C879 1.368 . S
H864 C872 0.950 . S
H865 C870 0.950 . S
H866 C871 0.949 . S
H867 C873 0.950 . S
H868 C874 0.950 . S
H869 C875 0.949 . S
C870 H865 0.950 . S
C870 C872 1.327 . S
C870 C876 1.429 . S
C871 C863 1.574 . S
C871 H866 0.949 . S
C871 C877 1.368 . S
C872 C856 1.349 . S
C872 H864 0.950 . S
C872 C870 1.327 . S
C873 C861 1.349 . S
C873 H867 0.950 . S
C873 C874 1.327 . S
C874 H868 0.950 . S
C874 C873 1.327 . S
C874 C878 1.429 . S
C875 C858 1.574 . S
C875 H869 0.949 . S
C875 C879 1.368 . S
C876 C857 1.429 . S
C876 C870 1.429 . S
C876 C877 1.523 . S
C877 C858 1.368 . S
C877 C871 1.368 . S
C877 C876 1.523 . S
C878 C862 1.429 . S
C878 C874 1.429 . S
C878 C879 1.523 . S
C879 C863 1.368 . S
C879 C875 1.368 . S
C879 C878 1.523 . S
H880 C855 0.950 . S
H881 C857 0.950 . S
H882 C858 0.949 . S
H883 C860 0.950 . S
H884 C862 0.950 . S
C885 C886 1.349 . S
C885 C887 1.327 . S
C885 H910 0.950 . S
C886 C885 1.349 . S
C886 C902 1.349 . S
C887 C885 1.327 . S
C887 C906 1.429 . S
C887 H911 0.950 . S
C888 C905 1.574 . S
C888 C907 1.368 . S
C888 H912 0.949 . S
H889 C893 0.949 . S
C890 C891 1.349 . S
C890 C892 1.327 . S
C890 H913 0.950 . S
C891 C890 1.349 . S
C891 C903 1.349 . S
C892 C890 1.327 . S
C892 C908 1.429 . S
C892 H914 0.950 . S
C893 H889 0.949 . S
C893 C901 1.574 . S
C893 C909 1.368 . S
H894 C902 0.950 . S
H895 C900 0.950 . S
H896 C901 0.949 . S
H897 C903 0.950 . S
H898 C904 0.950 . S
H899 C905 0.949 . S
C900 H895 0.950 . S
C900 C902 1.327 . S
C900 C906 1.429 . S
C901 C893 1.574 . S
C901 H896 0.949 . S
C901 C907 1.368 . S
C902 C886 1.349 . S
C902 H894 0.950 . S
C902 C900 1.327 . S
C903 C891 1.349 . S
C903 H897 0.950 . S
C903 C904 1.327 . S
C904 H898 0.950 . S
C904 C903 1.327 . S
C904 C908 1.429 . S
C905 C888 1.574 . S
C905 H899 0.949 . S
C905 C909 1.368 . S
C906 C887 1.429 . S
C906 C900 1.429 . S
C906 C907 1.523 . S
C907 C888 1.368 . S
C907 C901 1.368 . S
C907 C906 1.523 . S
C908 C892 1.429 . S
C908 C904 1.429 . S
C908 C909 1.523 . S
C909 C893 1.368 . S
C909 C905 1.368 . S
C909 C908 1.523 . S
H910 C885 0.950 . S
H911 C887 0.950 . S
H912 C888 0.949 . S
H913 C890 0.950 . S
H914 C892 0.950 . S
C915 C916 1.349 . S
C915 C917 1.327 . S
C915 H940 0.950 . S
C916 C915 1.349 . S
C916 C932 1.349 . S
C917 C915 1.327 . S
C917 C936 1.429 . S
C917 H941 0.950 . S
C918 C935 1.574 . S
C918 C937 1.368 . S
C918 H942 0.949 . S
H919 C923 0.949 . S
C920 C921 1.349 . S
C920 C922 1.327 . S
C920 H943 0.950 . S
C921 C920 1.349 . S
C921 C933 1.349 . S
C922 C920 1.327 . S
C922 C938 1.429 . S
C922 H944 0.950 . S
C923 H919 0.949 . S
C923 C931 1.574 . S
C923 C939 1.368 . S
H924 C932 0.950 . S
H925 C930 0.950 . S
H926 C931 0.949 . S
H927 C933 0.950 . S
H928 C934 0.950 . S
H929 C935 0.949 . S
C930 H925 0.950 . S
C930 C932 1.327 . S
C930 C936 1.429 . S
C931 C923 1.574 . S
C931 H926 0.949 . S
C931 C937 1.368 . S
C932 C916 1.349 . S
C932 H924 0.950 . S
C932 C930 1.327 . S
C933 C921 1.349 . S
C933 H927 0.950 . S
C933 C934 1.327 . S
C934 H928 0.950 . S
C934 C933 1.327 . S
C934 C938 1.429 . S
C935 C918 1.574 . S
C935 H929 0.949 . S
C935 C939 1.368 . S
C936 C917 1.429 . S
C936 C930 1.429 . S
C936 C937 1.523 . S
C937 C918 1.368 . S
C937 C931 1.368 . S
C937 C936 1.523 . S
C938 C922 1.429 . S
C938 C934 1.429 . S
C938 C939 1.523 . S
C939 C923 1.368 . S
C939 C935 1.368 . S
C939 C938 1.523 . S
H940 C915 0.950 . S
H941 C917 0.950 . S
H942 C918 0.949 . S
H943 C920 0.950 . S
H944 C922 0.950 . S
C945 C946 1.349 . S
C945 C947 1.327 . S
C945 H970 0.950 . S
C946 C945 1.349 . S
C946 C962 1.349 . S
C947 C945 1.327 . S
C947 C966 1.429 . S
C947 H971 0.950 . S
C948 C965 1.574 . S
C948 C967 1.368 . S
C948 H972 0.949 . S
H949 C953 0.949 . S
C950 C951 1.349 . S
C950 C952 1.327 . S
C950 H973 0.950 . S
C951 C950 1.349 . S
C951 C963 1.349 . S
C952 C950 1.327 . S
C952 C968 1.429 . S
C952 H974 0.950 . S
C953 H949 0.949 . S
C953 C961 1.574 . S
C953 C969 1.368 . S
H954 C962 0.950 . S
H955 C960 0.950 . S
H956 C961 0.949 . S
H957 C963 0.950 . S
H958 C964 0.950 . S
H959 C965 0.949 . S
C960 H955 0.950 . S
C960 C962 1.327 . S
C960 C966 1.429 . S
C961 C953 1.574 . S
C961 H956 0.949 . S
C961 C967 1.368 . S
C962 C946 1.349 . S
C962 H954 0.950 . S
C962 C960 1.327 . S
C963 C951 1.349 . S
C963 H957 0.950 . S
C963 C964 1.327 . S
C964 H958 0.950 . S
C964 C963 1.327 . S
C964 C968 1.429 . S
C965 C948 1.574 . S
C965 H959 0.949 . S
C965 C969 1.368 . S
C966 C947 1.429 . S
C966 C960 1.429 . S
C966 C967 1.523 . S
C967 C948 1.368 . S
C967 C961 1.368 . S
C967 C966 1.523 . S
C968 C952 1.429 . S
C968 C964 1.429 . S
C968 C969 1.523 . S
C969 C953 1.368 . S
C969 C965 1.368 . S
C969 C968 1.523 . S
H970 C945 0.950 . S
H971 C947 0.950 . S
H972 C948 0.949 . S
H973 C950 0.950 . S
H974 C952 0.950 . S
C975 C976 1.349 . S
C975 C977 1.327 . S
C975 H1000 0.950 . S
C976 C975 1.349 . S
C976 C992 1.349 . S
C977 C975 1.327 . S
C977 C996 1.429 . S
C977 H1001 0.950 . S
C978 C995 1.574 . S
C978 C997 1.368 . S
C978 H1002 0.949 . S
H979 C983 0.949 . S
C980 C981 1.349 . S
C980 C982 1.327 . S
C980 H1003 0.950 . S
C981 C980 1.349 . S
C981 C993 1.349 . S
C982 C980 1.327 . S
C982 C998 1.429 . S
C982 H1004 0.950 . S
C983 H979 0.949 . S
C983 C991 1.574 . S
C983 C999 1.368 . S
H984 C992 0.950 . S
H985 C990 0.950 . S
H986 C991 0.949 . S
H987 C993 0.950 . S
H988 C994 0.950 . S
H989 C995 0.949 . S
C990 H985 0.950 . S
C990 C992 1.327 . S
C990 C996 1.429 . S
C991 C983 1.574 . S
C991 H986 0.949 . S
C991 C997 1.368 . S
C992 C976 1.349 . S
C992 H984 0.950 . S
C992 C990 1.327 . S
C993 C981 1.349 . S
C993 H987 0.950 . S
C993 C994 1.327 . S
C994 H988 0.950 . S
C994 C993 1.327 . S
C994 C998 1.429 . S
C995 C978 1.574 . S
C995 H989 0.949 . S
C995 C999 1.368 . S
C996 C977 1.429 . S
C996 C990 1.429 . S
C996 C997 1.523 . S
C997 C978 1.368 . S
C997 C991 1.368 . S
C997 C996 1.523 . S
C998 C982 1.429 . S
C998 C994 1.429 . S
C998 C999 1.523 . S
C999 C983 1.368 . S
C999 C995 1.368 . S
C999 C998 1.523 . S
H1000 C975 0.950 . S
H1001 C977 0.950 . S
H1002 C978 0.949 . S
H1003 C980 0.950 . S
H1004 C982 0.950 . S
C1005 C1006 1.349 . S
C1005 C1007 1.327 . S
C1005 H1030 0.950 . S
C1006 C1005 1.349 . S
C1006 C1022 1.349 . S
C1007 C1005 1.327 . S
C1007 C1026 1.429 . S
C1007 H1031 0.950 . S
C1008 C1025 1.574 . S
C1008 C1027 1.368 . S
C1008 H1032 0.949 . S
H1009 C1013 0.949 . S
C1010 C1011 1.349 . S
C1010 C1012 1.327 . S
C1010 H1033 0.950 . S
C1011 C1010 1.349 . S
C1011 C1023 1.349 . S
C1012 C1010 1.327 . S
C1012 C1028 1.429 . S
C1012 H1034 0.950 . S
C1013 H1009 0.949 . S
C1013 C1021 1.574 . S
C1013 C1029 1.368 . S
H1014 C1022 0.950 . S
H1015 C1020 0.950 . S
H1016 C1021 0.949 . S
H1017 C1023 0.950 . S
H1018 C1024 0.950 . S
H1019 C1025 0.949 . S
C1020 H1015 0.950 . S
C1020 C1022 1.327 . S
C1020 C1026 1.429 . S
C1021 C1013 1.574 . S
C1021 H1016 0.949 . S
C1021 C1027 1.368 . S
C1022 C1006 1.349 . S
C1022 H1014 0.950 . S
C1022 C1020 1.327 . S
C1023 C1011 1.349 . S
C1023 H1017 0.950 . S
C1023 C1024 1.327 . S
C1024 H1018 0.950 . S
C1024 C1023 1.327 . S
C1024 C1028 1.429 . S
C1025 C1008 1.574 . S
C1025 H1019 0.949 . S
C1025 C1029 1.368 . S
C1026 C1007 1.429 . S
C1026 C1020 1.429 . S
C1026 C1027 1.523 . S
C1027 C1008 1.368 . S
C1027 C1021 1.368 . S
C1027 C1026 1.523 . S
C1028 C1012 1.429 . S
C1028 C1024 1.429 . S
C1028 C1029 1.523 . S
C1029 C1013 1.368 . S
C1029 C1025 1.368 . S
C1029 C1028 1.523 . S
H1030 C1005 0.950 . S
H1031 C1007 0.950 . S
H1032 C1008 0.949 . S
H1033 C1010 0.950 . S
H1034 C1012 0.950 . S
C1035 C1036 1.349 . S
C1035 C1037 1.327 . S
C1035 H1060 0.950 . S
C1036 C1035 1.349 . S
C1036 C1052 1.349 . S
C1037 C1035 1.327 . S
C1037 C1056 1.429 . S
C1037 H1061 0.950 . S
C1038 C1055 1.574 . S
C1038 C1057 1.368 . S
C1038 H1062 0.949 . S
H1039 C1043 0.949 . S
C1040 C1041 1.349 . S
C1040 C1042 1.327 . S
C1040 H1063 0.950 . S
C1041 C1040 1.349 . S
C1041 C1053 1.349 . S
C1042 C1040 1.327 . S
C1042 C1058 1.429 . S
C1042 H1064 0.950 . S
C1043 H1039 0.949 . S
C1043 C1051 1.574 . S
C1043 C1059 1.368 . S
H1044 C1052 0.950 . S
H1045 C1050 0.950 . S
H1046 C1051 0.949 . S
H1047 C1053 0.950 . S
H1048 C1054 0.950 . S
H1049 C1055 0.949 . S
C1050 H1045 0.950 . S
C1050 C1052 1.327 . S
C1050 C1056 1.429 . S
C1051 C1043 1.574 . S
C1051 H1046 0.949 . S
C1051 C1057 1.368 . S
C1052 C1036 1.349 . S
C1052 H1044 0.950 . S
C1052 C1050 1.327 . S
C1053 C1041 1.349 . S
C1053 H1047 0.950 . S
C1053 C1054 1.327 . S
C1054 H1048 0.950 . S
C1054 C1053 1.327 . S
C1054 C1058 1.429 . S
C1055 C1038 1.574 . S
C1055 H1049 0.949 . S
C1055 C1059 1.368 . S
C1056 C1037 1.429 . S
C1056 C1050 1.429 . S
C1056 C1057 1.523 1_545 S
C1057 C1038 1.368 . S
C1057 C1051 1.368 . S
C1057 C1056 1.523 1_565 S
C1058 C1042 1.429 . S
C1058 C1054 1.429 . S
C1058 C1059 1.523 . S
C1059 C1043 1.368 . S
C1059 C1055 1.368 . S
C1059 C1058 1.523 . S
H1060 C1035 0.950 . S
H1061 C1037 0.950 . S
H1062 C1038 0.949 . S
H1063 C1040 0.950 . S
H1064 C1042 0.950 . S
C1065 C1066 1.349 . S
C1065 C1067 1.327 . S
C1065 H1090 0.950 . S
C1066 C1065 1.349 . S
C1066 C1082 1.349 . S
C1067 C1065 1.327 . S
C1067 C1086 1.461 . S
C1067 H1091 0.950 . S
C1068 C1085 1.574 . S
C1068 C1087 1.368 . S
C1068 H1092 0.949 . S
H1069 C1073 0.949 . S
C1070 C1071 1.349 . S
C1070 C1072 1.327 . S
C1070 H1093 0.950 . S
C1071 C1070 1.349 . S
C1071 C1083 1.349 . S
C1072 C1070 1.327 . S
C1072 C1088 1.429 . S
C1072 H1094 0.950 . S
C1073 H1069 0.949 . S
C1073 C1081 1.574 . S
C1073 C1089 1.368 . S
H1074 C1082 0.950 . S
H1075 C1080 0.950 . S
H1076 C1081 0.949 . S
H1077 C1083 0.950 . S
H1078 C1084 0.950 . S
H1079 C1085 0.949 . S
C1080 H1075 0.950 . S
C1080 C1082 1.327 . S
C1080 C1086 1.446 . S
C1081 C1073 1.574 . S
C1081 H1076 0.949 . S
C1081 C1087 1.368 . S
C1082 C1066 1.349 . S
C1082 H1074 0.950 . S
C1082 C1080 1.327 . S
C1083 C1071 1.349 . S
C1083 H1077 0.950 . S
C1083 C1084 1.327 . S
C1084 H1078 0.950 . S
C1084 C1083 1.327 . S
C1084 C1088 1.429 . S
C1085 C1068 1.574 . S
C1085 H1079 0.949 . S
C1085 C1089 1.368 . S
C1086 C1067 1.461 . S
C1086 C1080 1.446 . S
C1086 C1087 1.478 1_655 S
C1087 C1068 1.368 . S
C1087 C1081 1.368 . S
C1087 C1086 1.478 1_455 S
C1088 C1072 1.429 . S
C1088 C1084 1.429 . S
C1088 C1089 1.523 . S
C1089 C1073 1.368 . S
C1089 C1085 1.368 . S
C1089 C1088 1.523 . S
H1090 C1065 0.950 . S
H1091 C1067 0.950 . S
H1092 C1068 0.949 . S
H1093 C1070 0.950 . S
H1094 C1072 0.950 . S
C1095 C1096 1.349 . S
C1095 C1097 1.327 . S
C1095 H1120 0.950 . S
C1096 C1095 1.349 . S
C1096 C1112 1.349 . S
C1097 C1095 1.327 . S
C1097 C1116 1.429 . S
C1097 H1121 0.950 . S
C1098 C1115 1.574 . S
C1098 C1117 1.368 . S
C1098 H1122 0.949 . S
H1099 C1103 0.949 . S
C1100 C1101 1.349 . S
C1100 C1102 1.327 . S
C1100 H1123 0.950 . S
C1101 C1100 1.349 . S
C1101 C1113 1.349 . S
C1102 C1100 1.327 . S
C1102 C1118 1.429 . S
C1102 H1124 0.950 . S
C1103 H1099 0.949 . S
C1103 C1111 1.574 . S
C1103 C1119 1.368 . S
H1104 C1112 0.950 . S
H1105 C1110 0.950 . S
H1106 C1111 0.949 . S
H1107 C1113 0.950 . S
H1108 C1114 0.950 . S
H1109 C1115 0.949 . S
C1110 H1105 0.950 . S
C1110 C1112 1.327 . S
C1110 C1116 1.429 . S
C1111 C1103 1.574 . S
C1111 H1106 0.949 . S
C1111 C1117 1.368 . S
C1112 C1096 1.349 . S
C1112 H1104 0.950 . S
C1112 C1110 1.327 . S
C1113 C1101 1.349 . S
C1113 H1107 0.950 . S
C1113 C1114 1.327 . S
C1114 H1108 0.950 . S
C1114 C1113 1.327 . S
C1114 C1118 1.429 . S
C1115 C1098 1.574 . S
C1115 H1109 0.949 . S
C1115 C1119 1.368 . S
C1116 C1097 1.429 . S
C1116 C1110 1.429 . S
C1116 C1117 1.523 . S
C1117 C1098 1.368 . S
C1117 C1111 1.368 . S
C1117 C1116 1.523 . S
C1118 C1102 1.429 . S
C1118 C1114 1.429 . S
C1118 C1119 1.523 . S
C1119 C1103 1.368 . S
C1119 C1115 1.368 . S
C1119 C1118 1.523 . S
H1120 C1095 0.950 . S
H1121 C1097 0.950 . S
H1122 C1098 0.949 . S
H1123 C1100 0.950 . S
H1124 C1102 0.950 . S
C1125 C1126 1.349 . S
C1125 C1127 1.327 . S
C1125 H1150 0.950 . S
C1126 C1125 1.349 . S
C1126 C1142 1.349 . S
C1127 C1125 1.327 . S
C1127 C1146 1.429 . S
C1127 H1151 0.950 . S
C1128 C1145 1.574 . S
C1128 C1147 1.368 . S
C1128 H1152 0.949 . S
H1129 C1133 0.949 . S
C1130 C1131 1.349 . S
C1130 C1132 1.327 . S
C1130 H1153 0.950 . S
C1131 C1130 1.349 . S
C1131 C1143 1.349 . S
C1132 C1130 1.327 . S
C1132 C1148 1.429 . S
C1132 H1154 0.950 . S
C1133 H1129 0.949 . S
C1133 C1141 1.574 . S
C1133 C1149 1.368 . S
H1134 C1142 0.950 . S
H1135 C1140 0.950 . S
H1136 C1141 0.949 . S
H1137 C1143 0.950 . S
H1138 C1144 0.950 . S
H1139 C1145 0.949 . S
C1140 H1135 0.950 . S
C1140 C1142 1.327 . S
C1140 C1146 1.429 . S
C1141 C1133 1.574 . S
C1141 H1136 0.949 . S
C1141 C1147 1.368 . S
C1142 C1126 1.349 . S
C1142 H1134 0.950 . S
C1142 C1140 1.327 . S
C1143 C1131 1.349 . S
C1143 H1137 0.950 . S
C1143 C1144 1.327 . S
C1144 H1138 0.950 . S
C1144 C1143 1.327 . S
C1144 C1148 1.429 . S
C1145 C1128 1.574 . S
C1145 H1139 0.949 . S
C1145 C1149 1.368 . S
C1146 C1127 1.429 . S
C1146 C1140 1.429 . S
C1146 C1147 1.523 . S
C1147 C1128 1.368 . S
C1147 C1141 1.368 . S
C1147 C1146 1.523 . S
C1148 C1132 1.429 . S
C1148 C1144 1.429 . S
C1148 C1149 1.523 . S
C1149 C1133 1.368 . S
C1149 C1145 1.368 . S
C1149 C1148 1.523 . S
H1150 C1125 0.950 . S
H1151 C1127 0.950 . S
H1152 C1128 0.949 . S
H1153 C1130 0.950 . S
H1154 C1132 0.950 . S
C1155 C1156 1.349 . S
C1155 C1157 1.327 . S
C1155 H1180 0.950 . S
C1156 C1155 1.349 . S
C1156 C1172 1.349 . S
C1157 C1155 1.327 . S
C1157 C1176 1.429 . S
C1157 H1181 0.950 . S
C1158 C1175 1.574 . S
C1158 C1177 1.368 . S
C1158 H1182 0.949 . S
H1159 C1163 0.949 . S
C1160 C1161 1.349 . S
C1160 C1162 1.327 . S
C1160 H1183 0.950 . S
C1161 C1160 1.349 . S
C1161 C1173 1.349 . S
C1162 C1160 1.327 . S
C1162 C1178 1.429 . S
C1162 H1184 0.950 . S
C1163 H1159 0.949 . S
C1163 C1171 1.574 . S
C1163 C1179 1.368 . S
H1164 C1172 0.950 . S
H1165 C1170 0.950 . S
H1166 C1171 0.949 . S
H1167 C1173 0.950 . S
H1168 C1174 0.950 . S
H1169 C1175 0.949 . S
C1170 H1165 0.950 . S
C1170 C1172 1.327 . S
C1170 C1176 1.429 . S
C1171 C1163 1.574 . S
C1171 H1166 0.949 . S
C1171 C1177 1.368 . S
C1172 C1156 1.349 . S
C1172 H1164 0.950 . S
C1172 C1170 1.327 . S
C1173 C1161 1.349 . S
C1173 H1167 0.950 . S
C1173 C1174 1.327 . S
C1174 H1168 0.950 . S
C1174 C1173 1.327 . S
C1174 C1178 1.429 . S
C1175 C1158 1.574 . S
C1175 H1169 0.949 . S
C1175 C1179 1.368 . S
C1176 C1157 1.429 . S
C1176 C1170 1.429 . S
C1176 C1177 1.523 . S
C1177 C1158 1.368 . S
C1177 C1171 1.368 . S
C1177 C1176 1.523 . S
C1178 C1162 1.429 . S
C1178 C1174 1.429 . S
C1178 C1179 1.523 . S
C1179 C1163 1.368 . S
C1179 C1175 1.368 . S
C1179 C1178 1.523 . S
H1180 C1155 0.950 . S
H1181 C1157 0.950 . S
H1182 C1158 0.949 . S
H1183 C1160 0.950 . S
H1184 C1162 0.950 . S
C1185 C1186 1.349 . S
C1185 C1187 1.327 . S
C1185 H1210 0.950 . S
C1186 C1185 1.349 . S
C1186 C1202 1.349 . S
C1187 C1185 1.327 . S
C1187 C1206 1.429 . S
C1187 H1211 0.950 . S
C1188 C1205 1.574 . S
C1188 C1207 1.368 . S
C1188 H1212 0.949 . S
H1189 C1193 0.949 . S
C1190 C1191 1.349 . S
C1190 C1192 1.327 . S
C1190 H1213 0.950 . S
C1191 C1190 1.349 . S
C1191 C1203 1.349 . S
C1192 C1190 1.327 . S
C1192 C1208 1.429 . S
C1192 H1214 0.950 . S
C1193 H1189 0.949 . S
C1193 C1201 1.574 . S
C1193 C1209 1.368 . S
H1194 C1202 0.950 . S
H1195 C1200 0.950 . S
H1196 C1201 0.949 . S
H1197 C1203 0.950 . S
H1198 C1204 0.950 . S
H1199 C1205 0.949 . S
C1200 H1195 0.950 . S
C1200 C1202 1.327 . S
C1200 C1206 1.429 . S
C1201 C1193 1.574 . S
C1201 H1196 0.949 . S
C1201 C1207 1.368 . S
C1202 C1186 1.349 . S
C1202 H1194 0.950 . S
C1202 C1200 1.327 . S
C1203 C1191 1.349 . S
C1203 H1197 0.950 . S
C1203 C1204 1.327 . S
C1204 H1198 0.950 . S
C1204 C1203 1.327 . S
C1204 C1208 1.429 . S
C1205 C1188 1.574 . S
C1205 H1199 0.949 . S
C1205 C1209 1.368 . S
C1206 C1187 1.429 . S
C1206 C1200 1.429 . S
C1206 C1207 1.523 . S
C1207 C1188 1.368 . S
C1207 C1201 1.368 . S
C1207 C1206 1.523 . S
C1208 C1192 1.429 . S
C1208 C1204 1.429 . S
C1208 C1209 1.523 . S
C1209 C1193 1.368 . S
C1209 C1205 1.368 . S
C1209 C1208 1.523 . S
H1210 C1185 0.950 . S
H1211 C1187 0.950 . S
H1212 C1188 0.949 . S
H1213 C1190 0.950 . S
H1214 C1192 0.950 . S
C1215 C1216 1.349 . S
C1215 C1217 1.327 . S
C1215 H1240 0.950 . S
C1216 C1215 1.349 . S
C1216 C1232 1.349 . S
C1217 C1215 1.327 . S
C1217 C1236 1.429 . S
C1217 H1241 0.950 . S
C1218 C1235 1.574 1_565 S
C1218 C1237 1.368 . S
C1218 H1242 0.949 . S
H1219 C1223 0.949 . S
C1220 C1221 1.349 . S
C1220 C1222 1.327 . S
C1220 H1243 0.950 . S
C1221 C1220 1.349 . S
C1221 C1233 1.349 . S
C1222 C1220 1.327 . S
C1222 C1238 1.429 . S
C1222 H1244 0.950 . S
C1223 H1219 0.949 . S
C1223 C1231 1.574 1_545 S
C1223 C1239 1.368 . S
H1224 C1232 0.950 . S
H1225 C1230 0.950 . S
H1226 C1231 0.949 . S
H1227 C1233 0.950 . S
H1228 C1234 0.950 . S
H1229 C1235 0.949 . S
C1230 H1225 0.950 . S
C1230 C1232 1.327 . S
C1230 C1236 1.429 . S
C1231 C1223 1.574 1_565 S
C1231 H1226 0.949 . S
C1231 C1237 1.368 . S
C1232 C1216 1.349 . S
C1232 H1224 0.950 . S
C1232 C1230 1.327 . S
C1233 C1221 1.349 . S
C1233 H1227 0.950 . S
C1233 C1234 1.327 . S
C1234 H1228 0.950 . S
C1234 C1233 1.327 . S
C1234 C1238 1.429 . S
C1235 C1218 1.574 1_545 S
C1235 H1229 0.949 . S
C1235 C1239 1.368 . S
C1236 C1217 1.429 . S
C1236 C1230 1.429 . S
C1236 C1237 1.523 . S
C1237 C1218 1.368 . S
C1237 C1231 1.368 . S
C1237 C1236 1.523 . S
C1238 C1222 1.429 . S
C1238 C1234 1.429 . S
C1238 C1239 1.523 . S
C1239 C1223 1.368 . S
C1239 C1235 1.368 . S
C1239 C1238 1.523 . S
H1240 C1215 0.950 . S
H1241 C1217 0.950 . S
H1242 C1218 0.949 . S
H1243 C1220 0.950 . S
H1244 C1222 0.950 . S
C1245 C1246 1.349 . S
C1245 C1247 1.327 . S
C1245 H1270 0.950 . S
C1246 C1245 1.349 . S
C1246 C1262 1.349 . S
C1247 C1245 1.327 . S
C1247 C1266 1.429 . S
C1247 H1271 0.950 . S
C1248 C1265 1.574 1_455 S
C1248 C1267 1.368 . S
C1248 H1272 0.949 . S
H1249 C1253 0.949 1_655 S
C1250 C1251 1.349 . S
C1250 C1252 1.327 . S
C1250 H1273 0.950 . S
C1251 C1250 1.349 . S
C1251 C1263 1.349 . S
C1252 C1250 1.327 . S
C1252 C1268 1.429 . S
C1252 H1274 0.950 . S
C1253 H1249 0.949 1_455 S
C1253 C1261 1.574 . S
C1253 C1269 1.368 1_455 S
H1254 C1262 0.950 . S
H1255 C1260 0.950 . S
H1256 C1261 0.949 . S
H1257 C1263 0.950 . S
H1258 C1264 0.950 . S
H1259 C1265 0.949 . S
C1260 H1255 0.950 . S
C1260 C1262 1.327 . S
C1260 C1266 1.429 . S
C1261 C1253 1.574 . S
C1261 H1256 0.949 . S
C1261 C1267 1.368 . S
C1262 C1246 1.349 . S
C1262 H1254 0.950 . S
C1262 C1260 1.327 . S
C1263 C1251 1.349 . S
C1263 H1257 0.950 . S
C1263 C1264 1.327 . S
C1264 H1258 0.950 . S
C1264 C1263 1.327 . S
C1264 C1268 1.429 . S
C1265 C1248 1.574 1_655 S
C1265 H1259 0.949 . S
C1265 C1269 1.368 . S
C1266 C1247 1.429 . S
C1266 C1260 1.429 . S
C1266 C1267 1.523 . S
C1267 C1248 1.368 . S
C1267 C1261 1.368 . S
C1267 C1266 1.523 . S
C1268 C1252 1.429 . S
C1268 C1264 1.429 . S
C1268 C1269 1.523 . S
C1269 C1253 1.368 1_655 S
C1269 C1265 1.368 . S
C1269 C1268 1.523 . S
H1270 C1245 0.950 . S
H1271 C1247 0.950 . S
H1272 C1248 0.949 . S
H1273 C1250 0.950 . S
H1274 C1252 0.950 . S
C1275 C1276 1.349 . S
C1275 C1277 1.327 . S
C1275 H1300 0.950 . S
C1276 C1275 1.349 . S
C1276 C1292 1.349 . S
C1277 C1275 1.327 . S
C1277 C1296 1.429 . S
C1277 H1301 0.950 . S
C1278 C1295 1.574 . S
C1278 C1297 1.368 . S
C1278 H1302 0.949 . S
H1279 C1283 0.949 . S
C1280 C1281 1.349 . S
C1280 C1282 1.327 . S
C1280 H1303 0.950 . S
C1281 C1280 1.349 . S
C1281 C1293 1.349 . S
C1282 C1280 1.327 . S
C1282 C1298 1.429 . S
C1282 H1304 0.950 . S
C1283 H1279 0.949 . S
C1283 C1291 1.574 . S
C1283 C1299 1.368 . S
H1284 C1292 0.950 . S
H1285 C1290 0.950 . S
H1286 C1291 0.949 . S
H1287 C1293 0.950 . S
H1288 C1294 0.950 . S
H1289 C1295 0.949 . S
C1290 H1285 0.950 . S
C1290 C1292 1.327 . S
C1290 C1296 1.429 . S
C1291 C1283 1.574 . S
C1291 H1286 0.949 . S
C1291 C1297 1.368 . S
C1292 C1276 1.349 . S
C1292 H1284 0.950 . S
C1292 C1290 1.327 . S
C1293 C1281 1.349 . S
C1293 H1287 0.950 . S
C1293 C1294 1.327 . S
C1294 H1288 0.950 . S
C1294 C1293 1.327 . S
C1294 C1298 1.429 . S
C1295 C1278 1.574 . S
C1295 H1289 0.949 . S
C1295 C1299 1.368 . S
C1296 C1277 1.429 . S
C1296 C1290 1.429 . S
C1296 C1297 1.523 . S
C1297 C1278 1.368 . S
C1297 C1291 1.368 . S
C1297 C1296 1.523 . S
C1298 C1282 1.429 . S
C1298 C1294 1.429 . S
C1298 C1299 1.523 . S
C1299 C1283 1.368 . S
C1299 C1295 1.368 . S
C1299 C1298 1.523 . S
H1300 C1275 0.950 . S
H1301 C1277 0.950 . S
H1302 C1278 0.949 . S
H1303 C1280 0.950 . S
H1304 C1282 0.950 . S
C1305 C1306 1.349 . S
C1305 C1307 1.327 . S
C1305 H1330 0.950 . S
C1306 C1305 1.349 . S
C1306 C1322 1.349 . S
C1307 C1305 1.327 . S
C1307 C1326 1.429 . S
C1307 H1331 0.950 . S
C1308 C1325 1.574 . S
C1308 C1327 1.368 . S
C1308 H1332 0.949 . S
H1309 C1313 0.949 . S
C1310 C1311 1.349 . S
C1310 C1312 1.327 . S
C1310 H1333 0.950 . S
C1311 C1310 1.349 . S
C1311 C1323 1.349 . S
C1312 C1310 1.327 . S
C1312 C1328 1.429 . S
C1312 H1334 0.950 . S
C1313 H1309 0.949 . S
C1313 C1321 1.574 . S
C1313 C1329 1.368 . S
H1314 C1322 0.950 . S
H1315 C1320 0.950 . S
H1316 C1321 0.949 . S
H1317 C1323 0.950 . S
H1318 C1324 0.950 . S
H1319 C1325 0.949 . S
C1320 H1315 0.950 . S
C1320 C1322 1.327 . S
C1320 C1326 1.429 . S
C1321 C1313 1.574 . S
C1321 H1316 0.949 . S
C1321 C1327 1.368 . S
C1322 C1306 1.349 . S
C1322 H1314 0.950 . S
C1322 C1320 1.327 . S
C1323 C1311 1.349 . S
C1323 H1317 0.950 . S
C1323 C1324 1.327 . S
C1324 H1318 0.950 . S
C1324 C1323 1.327 . S
C1324 C1328 1.429 . S
C1325 C1308 1.574 . S
C1325 H1319 0.949 . S
C1325 C1329 1.368 . S
C1326 C1307 1.429 . S
C1326 C1320 1.429 . S
C1326 C1327 1.523 1_455 S
C1327 C1308 1.368 . S
C1327 C1321 1.368 . S
C1327 C1326 1.523 1_655 S
C1328 C1312 1.429 . S
C1328 C1324 1.429 . S
C1328 C1329 1.523 . S
C1329 C1313 1.368 . S
C1329 C1325 1.368 . S
C1329 C1328 1.523 . S
H1330 C1305 0.950 . S
H1331 C1307 0.950 . S
H1332 C1308 0.949 . S
H1333 C1310 0.950 . S
H1334 C1312 0.950 . S
C1335 C1336 1.349 . S
C1335 C1337 1.327 . S
C1335 H1360 0.950 . S
C1336 C1335 1.349 . S
C1336 C1352 1.349 . S
C1337 C1335 1.327 . S
C1337 C1356 1.429 . S
C1337 H1361 0.950 . S
C1338 C1355 1.574 . S
C1338 C1357 1.368 . S
C1338 H1362 0.949 . S
H1339 C1343 0.949 . S
C1340 C1341 1.349 . S
C1340 C1342 1.327 . S
C1340 H1363 0.950 . S
C1341 C1340 1.349 . S
C1341 C1353 1.349 . S
C1342 C1340 1.327 . S
C1342 C1358 1.429 . S
C1342 H1364 0.950 . S
C1343 H1339 0.949 . S
C1343 C1351 1.574 . S
C1343 C1359 1.368 . S
H1344 C1352 0.950 . S
H1345 C1350 0.950 . S
H1346 C1351 0.949 . S
H1347 C1353 0.950 . S
H1348 C1354 0.950 . S
H1349 C1355 0.949 . S
C1350 H1345 0.950 . S
C1350 C1352 1.327 . S
C1350 C1356 1.429 . S
C1351 C1343 1.574 . S
C1351 H1346 0.949 . S
C1351 C1357 1.368 . S
C1352 C1336 1.349 . S
C1352 H1344 0.950 . S
C1352 C1350 1.327 . S
C1353 C1341 1.349 . S
C1353 H1347 0.950 . S
C1353 C1354 1.327 . S
C1354 H1348 0.950 . S
C1354 C1353 1.327 . S
C1354 C1358 1.429 . S
C1355 C1338 1.574 . S
C1355 H1349 0.949 . S
C1355 C1359 1.368 . S
C1356 C1337 1.429 . S
C1356 C1350 1.429 . S
C1356 C1357 1.523 . S
C1357 C1338 1.368 . S
C1357 C1351 1.368 . S
C1357 C1356 1.523 . S
C1358 C1342 1.429 . S
C1358 C1354 1.429 . S
C1358 C1359 1.523 . S
C1359 C1343 1.368 . S
C1359 C1355 1.368 . S
C1359 C1358 1.523 . S
H1360 C1335 0.950 . S
H1361 C1337 0.950 . S
H1362 C1338 0.949 . S
H1363 C1340 0.950 . S
H1364 C1342 0.950 . S
C1365 C1366 1.349 . S
C1365 C1367 1.327 . S
C1365 H1390 0.950 . S
C1366 C1365 1.349 . S
C1366 C1382 1.349 . S
C1367 C1365 1.327 . S
C1367 C1386 1.429 1_565 S
C1367 H1391 0.950 . S
C1368 C1385 1.574 . S
C1368 C1387 1.368 . S
C1368 H1392 0.949 . S
H1369 C1373 0.949 . S
C1370 C1371 1.349 . S
C1370 C1372 1.327 . S
C1370 H1393 0.950 . S
C1371 C1370 1.349 . S
C1371 C1383 1.349 . S
C1372 C1370 1.327 . S
C1372 C1388 1.429 . S
C1372 H1394 0.950 . S
C1373 H1369 0.949 . S
C1373 C1381 1.574 . S
C1373 C1389 1.368 . S
H1374 C1382 0.950 . S
H1375 C1380 0.950 . S
H1376 C1381 0.949 . S
H1377 C1383 0.950 . S
H1378 C1384 0.950 . S
H1379 C1385 0.949 . S
C1380 H1375 0.950 . S
C1380 C1382 1.327 . S
C1380 C1386 1.429 1_565 S
C1381 C1373 1.574 . S
C1381 H1376 0.949 . S
C1381 C1387 1.368 . S
C1382 C1366 1.349 . S
C1382 H1374 0.950 . S
C1382 C1380 1.327 . S
C1383 C1371 1.349 . S
C1383 H1377 0.950 . S
C1383 C1384 1.327 . S
C1384 H1378 0.950 . S
C1384 C1383 1.327 . S
C1384 C1388 1.429 . S
C1385 C1368 1.574 . S
C1385 H1379 0.949 . S
C1385 C1389 1.368 . S
C1386 C1367 1.429 1_545 S
C1386 C1380 1.429 1_545 S
C1386 C1387 1.523 . S
C1387 C1368 1.368 . S
C1387 C1381 1.368 . S
C1387 C1386 1.523 . S
C1388 C1372 1.429 . S
C1388 C1384 1.429 . S
C1388 C1389 1.523 . S
C1389 C1373 1.368 . S
C1389 C1385 1.368 . S
C1389 C1388 1.523 . S
H1390 C1365 0.950 . S
H1391 C1367 0.950 . S
H1392 C1368 0.949 . S
H1393 C1370 0.950 . S
H1394 C1372 0.950 . S
C1395 C1396 1.349 . S
C1395 C1397 1.327 . S
C1395 H1420 0.950 . S
C1396 C1395 1.349 . S
C1396 C1412 1.349 . S
C1397 C1395 1.327 . S
C1397 C1416 1.429 . S
C1397 H1421 0.950 . S
C1398 C1415 1.574 . S
C1398 C1417 1.368 . S
C1398 H1422 0.949 . S
H1399 C1403 0.949 . S
C1400 C1401 1.349 . S
C1400 C1402 1.327 . S
C1400 H1423 0.950 . S
C1401 C1400 1.349 . S
C1401 C1413 1.349 . S
C1402 C1400 1.327 . S
C1402 C1418 1.429 . S
C1402 H1424 0.950 . S
C1403 H1399 0.949 . S
C1403 C1411 1.574 . S
C1403 C1419 1.368 . S
H1404 C1412 0.950 . S
H1405 C1410 0.950 . S
H1406 C1411 0.949 . S
H1407 C1413 0.950 . S
H1408 C1414 0.950 . S
H1409 C1415 0.949 . S
C1410 H1405 0.950 . S
C1410 C1412 1.327 . S
C1410 C1416 1.429 . S
C1411 C1403 1.574 . S
C1411 H1406 0.949 . S
C1411 C1417 1.368 . S
C1412 C1396 1.349 . S
C1412 H1404 0.950 . S
C1412 C1410 1.327 . S
C1413 C1401 1.349 . S
C1413 H1407 0.950 . S
C1413 C1414 1.327 . S
C1414 H1408 0.950 . S
C1414 C1413 1.327 . S
C1414 C1418 1.429 . S
C1415 C1398 1.574 . S
C1415 H1409 0.949 . S
C1415 C1419 1.368 . S
C1416 C1397 1.429 . S
C1416 C1410 1.429 . S
C1416 C1417 1.523 . S
C1417 C1398 1.368 . S
C1417 C1411 1.368 . S
C1417 C1416 1.523 . S
C1418 C1402 1.429 . S
C1418 C1414 1.429 . S
C1418 C1419 1.523 . S
C1419 C1403 1.368 . S
C1419 C1415 1.368 . S
C1419 C1418 1.523 . S
H1420 C1395 0.950 . S
H1421 C1397 0.950 . S
H1422 C1398 0.949 . S
H1423 C1400 0.950 . S
H1424 C1402 0.950 . S
C1425 C1426 1.349 . S
C1425 C1427 1.327 . S
C1425 H1450 0.950 . S
C1426 C1425 1.349 . S
C1426 C1442 1.349 . S
C1427 C1425 1.327 . S
C1427 C1446 1.429 . S
C1427 H1451 0.950 . S
C1428 C1445 1.574 . S
C1428 C1447 1.368 . S
C1428 H1452 0.949 . S
H1429 C1433 0.949 . S
C1430 C1431 1.349 . S
C1430 C1432 1.327 . S
C1430 H1453 0.950 . S
C1431 C1430 1.349 . S
C1431 C1443 1.349 . S
C1432 C1430 1.327 . S
C1432 C1448 1.429 . S
C1432 H1454 0.950 . S
C1433 H1429 0.949 . S
C1433 C1441 1.574 . S
C1433 C1449 1.368 . S
H1434 C1442 0.950 . S
H1435 C1440 0.950 . S
H1436 C1441 0.949 . S
H1437 C1443 0.950 . S
H1438 C1444 0.950 . S
H1439 C1445 0.949 . S
C1440 H1435 0.950 . S
C1440 C1442 1.327 . S
C1440 C1446 1.429 . S
C1441 C1433 1.574 . S
C1441 H1436 0.949 . S
C1441 C1447 1.368 . S
C1442 C1426 1.349 . S
C1442 H1434 0.950 . S
C1442 C1440 1.327 . S
C1443 C1431 1.349 . S
C1443 H1437 0.950 . S
C1443 C1444 1.327 . S
C1444 H1438 0.950 . S
C1444 C1443 1.327 . S
C1444 C1448 1.429 . S
C1445 C1428 1.574 . S
C1445 H1439 0.949 . S
C1445 C1449 1.368 . S
C1446 C1427 1.429 . S
C1446 C1440 1.429 . S
C1446 C1447 1.523 . S
C1447 C1428 1.368 . S
C1447 C1441 1.368 . S
C1447 C1446 1.523 . S
C1448 C1432 1.429 . S
C1448 C1444 1.429 . S
C1448 C1449 1.523 . S
C1449 C1433 1.368 . S
C1449 C1445 1.368 . S
C1449 C1448 1.523 . S
H1450 C1425 0.950 . S
H1451 C1427 0.950 . S
H1452 C1428 0.949 . S
H1453 C1430 0.950 . S
H1454 C1432 0.950 . S
C1455 C1456 1.349 . S
C1455 C1457 1.327 . S
C1455 H1480 0.950 . S
C1456 C1455 1.349 . S
C1456 C1472 1.349 . S
C1457 C1455 1.327 . S
C1457 C1476 1.429 . S
C1457 H1481 0.950 . S
C1458 C1475 1.574 . S
C1458 C1477 1.368 . S
C1458 H1482 0.949 . S
H1459 C1463 0.949 . S
C1460 C1461 1.349 . S
C1460 C1462 1.327 . S
C1460 H1483 0.950 . S
C1461 C1460 1.349 . S
C1461 C1473 1.349 . S
C1462 C1460 1.327 . S
C1462 C1478 1.429 . S
C1462 H1484 0.950 . S
C1463 H1459 0.949 . S
C1463 C1471 1.574 . S
C1463 C1479 1.368 . S
H1464 C1472 0.950 . S
H1465 C1470 0.950 . S
H1466 C1471 0.949 . S
H1467 C1473 0.950 . S
H1468 C1474 0.950 . S
H1469 C1475 0.949 . S
C1470 H1465 0.950 . S
C1470 C1472 1.327 . S
C1470 C1476 1.429 . S
C1471 C1463 1.574 . S
C1471 H1466 0.949 . S
C1471 C1477 1.368 . S
C1472 C1456 1.349 . S
C1472 H1464 0.950 . S
C1472 C1470 1.327 . S
C1473 C1461 1.349 . S
C1473 H1467 0.950 . S
C1473 C1474 1.327 . S
C1474 H1468 0.950 . S
C1474 C1473 1.327 . S
C1474 C1478 1.429 . S
C1475 C1458 1.574 . S
C1475 H1469 0.949 . S
C1475 C1479 1.368 . S
C1476 C1457 1.429 . S
C1476 C1470 1.429 . S
C1476 C1477 1.523 . S
C1477 C1458 1.368 . S
C1477 C1471 1.368 . S
C1477 C1476 1.523 . S
C1478 C1462 1.429 . S
C1478 C1474 1.429 . S
C1478 C1479 1.523 . S
C1479 C1463 1.368 . S
C1479 C1475 1.368 . S
C1479 C1478 1.523 . S
H1480 C1455 0.950 . S
H1481 C1457 0.950 . S
H1482 C1458 0.949 . S
H1483 C1460 0.950 . S
H1484 C1462 0.950 . S
C1485 C1486 1.349 . S
C1485 C1487 1.327 . S
C1485 H1510 0.950 . S
C1486 C1485 1.349 . S
C1486 C1502 1.349 . S
C1487 C1485 1.327 . S
C1487 C1506 1.429 . S
C1487 H1511 0.950 . S
C1488 C1505 1.574 . S
C1488 C1507 1.368 . S
C1488 H1512 0.949 . S
H1489 C1493 0.949 . S
C1490 C1491 1.349 . S
C1490 C1492 1.327 . S
C1490 H1513 0.950 . S
C1491 C1490 1.349 . S
C1491 C1503 1.349 . S
C1492 C1490 1.327 . S
C1492 C1508 1.429 . S
C1492 H1514 0.950 . S
C1493 H1489 0.949 . S
C1493 C1501 1.574 . S
C1493 C1509 1.368 . S
H1494 C1502 0.950 . S
H1495 C1500 0.950 . S
H1496 C1501 0.949 . S
H1497 C1503 0.950 . S
H1498 C1504 0.950 . S
H1499 C1505 0.949 . S
C1500 H1495 0.950 . S
C1500 C1502 1.327 . S
C1500 C1506 1.429 . S
C1501 C1493 1.574 . S
C1501 H1496 0.949 . S
C1501 C1507 1.368 . S
C1502 C1486 1.349 . S
C1502 H1494 0.950 . S
C1502 C1500 1.327 . S
C1503 C1491 1.349 . S
C1503 H1497 0.950 . S
C1503 C1504 1.327 . S
C1504 H1498 0.950 . S
C1504 C1503 1.327 . S
C1504 C1508 1.429 . S
C1505 C1488 1.574 . S
C1505 H1499 0.949 . S
C1505 C1509 1.368 . S
C1506 C1487 1.429 . S
C1506 C1500 1.429 . S
C1506 C1507 1.523 . S
C1507 C1488 1.368 . S
C1507 C1501 1.368 . S
C1507 C1506 1.523 . S
C1508 C1492 1.429 . S
C1508 C1504 1.429 . S
C1508 C1509 1.523 . S
C1509 C1493 1.368 . S
C1509 C1505 1.368 . S
C1509 C1508 1.523 . S
H1510 C1485 0.950 . S
H1511 C1487 0.950 . S
H1512 C1488 0.949 . S
H1513 C1490 0.950 . S
H1514 C1492 0.950 . S
C1515 C1516 1.349 . S
C1515 C1517 1.327 . S
C1515 H1540 0.950 . S
C1516 C1515 1.349 . S
C1516 C1532 1.349 . S
C1517 C1515 1.327 . S
C1517 C1536 1.429 . S
C1517 H1541 0.950 . S
C1518 C1535 1.574 . S
C1518 C1537 1.368 . S
C1518 H1542 0.949 . S
H1519 C1523 0.949 . S
C1520 C1521 1.349 . S
C1520 C1522 1.327 . S
C1520 H1543 0.970 . S
C1521 C1520 1.349 . S
C1521 C1533 1.349 . S
C1522 C1520 1.327 . S
C1522 C1538 1.429 . S
C1522 H1544 0.950 . S
C1523 H1519 0.949 . S
C1523 C1531 1.574 . S
C1523 C1539 1.368 . S
H1524 C1532 0.950 . S
H1525 C1530 0.950 . S
H1526 C1531 0.949 . S
H1527 C1533 0.950 . S
H1528 C1534 0.950 . S
H1529 C1535 0.949 . S
C1530 H1525 0.950 . S
C1530 C1532 1.327 . S
C1530 C1536 1.429 . S
C1531 C1523 1.574 . S
C1531 H1526 0.949 . S
C1531 C1537 1.368 . S
C1532 C1516 1.349 . S
C1532 H1524 0.950 . S
C1532 C1530 1.327 . S
C1533 C1521 1.349 . S
C1533 H1527 0.950 . S
C1533 C1534 1.327 . S
C1534 H1528 0.950 . S
C1534 C1533 1.327 . S
C1534 C1538 1.429 . S
C1535 C1518 1.574 . S
C1535 H1529 0.949 . S
C1535 C1539 1.368 . S
C1536 C1517 1.429 . S
C1536 C1530 1.429 . S
C1536 C1537 1.523 . S
C1537 C1518 1.368 . S
C1537 C1531 1.368 . S
C1537 C1536 1.523 . S
C1538 C1522 1.429 . S
C1538 C1534 1.429 . S
C1538 C1539 1.523 . S
C1539 C1523 1.368 . S
C1539 C1535 1.368 . S
C1539 C1538 1.523 . S
H1540 C1515 0.950 . S
H1541 C1517 0.950 . S
H1542 C1518 0.949 . S
H1543 C1520 0.970 . S
H1544 C1522 0.950 . S
C1545 C1546 1.349 . S
C1545 C1547 1.327 . S
C1545 H1570 0.950 . S
C1546 C1545 1.349 . S
C1546 C1562 1.349 . S
C1547 C1545 1.327 . S
C1547 C1566 1.429 . S
C1547 H1571 0.950 . S
C1548 C1565 1.574 . S
C1548 C1567 1.368 . S
C1548 H1572 0.949 . S
H1549 C1553 0.949 . S
C1550 C1551 1.349 . S
C1550 C1552 1.327 . S
C1550 H1573 0.950 . S
C1551 C1550 1.349 . S
C1551 C1563 1.349 . S
C1552 C1550 1.327 . S
C1552 C1568 1.429 . S
C1552 H1574 0.950 . S
C1553 H1549 0.949 . S
C1553 C1561 1.574 . S
C1553 C1569 1.368 . S
H1554 C1562 0.950 . S
H1555 C1560 0.950 . S
H1556 C1561 0.949 . S
H1557 C1563 0.950 . S
H1558 C1564 0.950 . S
H1559 C1565 0.949 . S
C1560 H1555 0.950 . S
C1560 C1562 1.327 . S
C1560 C1566 1.429 . S
C1561 C1553 1.574 . S
C1561 H1556 0.949 . S
C1561 C1567 1.368 . S
C1562 C1546 1.349 . S
C1562 H1554 0.950 . S
C1562 C1560 1.327 . S
C1563 C1551 1.349 . S
C1563 H1557 0.950 . S
C1563 C1564 1.327 . S
C1564 H1558 0.950 . S
C1564 C1563 1.327 . S
C1564 C1568 1.429 . S
C1565 C1548 1.574 . S
C1565 H1559 0.949 . S
C1565 C1569 1.368 . S
C1566 C1547 1.429 . S
C1566 C1560 1.429 . S
C1566 C1567 1.523 . S
C1567 C1548 1.368 . S
C1567 C1561 1.368 . S
C1567 C1566 1.523 . S
C1568 C1552 1.429 . S
C1568 C1564 1.429 . S
C1568 C1569 1.523 . S
C1569 C1553 1.368 . S
C1569 C1565 1.368 . S
C1569 C1568 1.523 . S
H1570 C1545 0.950 . S
H1571 C1547 0.950 . S
H1572 C1548 0.949 . S
H1573 C1550 0.950 . S
H1574 C1552 0.950 . S
C1575 C1576 1.349 . S
C1575 C1577 1.327 . S
C1575 H1600 0.950 . S
C1576 C1575 1.349 . S
C1576 C1592 1.349 . S
C1577 C1575 1.327 . S
C1577 C1596 1.429 . S
C1577 H1601 0.950 . S
C1578 C1595 1.574 . S
C1578 C1597 1.368 . S
C1578 H1602 0.949 . S
H1579 C1583 0.949 . S
C1580 C1581 1.349 . S
C1580 C1582 1.327 . S
C1580 H1603 0.950 . S
C1581 C1580 1.349 . S
C1581 C1593 1.349 . S
C1582 C1580 1.327 . S
C1582 C1598 1.429 . S
C1582 H1604 0.950 . S
C1583 H1579 0.949 . S
C1583 C1591 1.574 . S
C1583 C1599 1.368 . S
H1584 C1592 0.950 . S
H1585 C1590 0.950 . S
H1586 C1591 0.949 . S
H1587 C1593 0.950 . S
H1588 C1594 0.950 . S
H1589 C1595 0.949 . S
C1590 H1585 0.950 . S
C1590 C1592 1.327 . S
C1590 C1596 1.429 . S
C1591 C1583 1.574 . S
C1591 H1586 0.949 . S
C1591 C1597 1.368 . S
C1592 C1576 1.349 . S
C1592 H1584 0.950 . S
C1592 C1590 1.327 . S
C1593 C1581 1.349 . S
C1593 H1587 0.950 . S
C1593 C1594 1.327 . S
C1594 H1588 0.950 . S
C1594 C1593 1.327 . S
C1594 C1598 1.429 . S
C1595 C1578 1.574 . S
C1595 H1589 0.949 . S
C1595 C1599 1.368 . S
C1596 C1577 1.429 . S
C1596 C1590 1.429 . S
C1596 C1597 1.523 . S
C1597 C1578 1.368 . S
C1597 C1591 1.368 . S
C1597 C1596 1.523 . S
C1598 C1582 1.429 . S
C1598 C1594 1.429 . S
C1598 C1599 1.523 . S
C1599 C1583 1.368 . S
C1599 C1595 1.368 . S
C1599 C1598 1.523 . S
H1600 C1575 0.950 . S
H1601 C1577 0.950 . S
H1602 C1578 0.949 . S
H1603 C1580 0.950 . S
H1604 C1582 0.950 . S
C1605 C1606 1.349 . S
C1605 C1607 1.327 . S
C1605 H1630 0.950 . S
C1606 C1605 1.349 . S
C1606 C1622 1.349 . S
C1607 C1605 1.327 . S
C1607 C1626 1.429 . S
C1607 H1631 0.950 . S
C1608 C1625 1.574 . S
C1608 C1627 1.368 . S
C1608 H1632 0.949 . S
H1609 C1613 0.949 . S
C1610 C1611 1.349 . S
C1610 C1612 1.327 . S
C1610 H1633 0.950 . S
C1611 C1610 1.349 . S
C1611 C1623 1.349 . S
C1612 C1610 1.327 . S
C1612 C1628 1.429 . S
C1612 H1634 0.950 . S
C1613 H1609 0.949 . S
C1613 C1621 1.574 . S
C1613 C1629 1.368 . S
H1614 C1622 0.950 . S
H1615 C1620 0.950 . S
H1616 C1621 0.949 . S
H1617 C1623 0.950 . S
H1618 C1624 0.950 . S
H1619 C1625 0.949 . S
C1620 H1615 0.950 . S
C1620 C1622 1.327 . S
C1620 C1626 1.429 . S
C1621 C1613 1.574 . S
C1621 H1616 0.949 . S
C1621 C1627 1.368 . S
C1622 C1606 1.349 . S
C1622 H1614 0.950 . S
C1622 C1620 1.327 . S
C1623 C1611 1.349 . S
C1623 H1617 0.950 . S
C1623 C1624 1.327 . S
C1624 H1618 0.950 . S
C1624 C1623 1.327 . S
C1624 C1628 1.429 . S
C1625 C1608 1.574 . S
C1625 H1619 0.949 . S
C1625 C1629 1.368 . S
C1626 C1607 1.429 . S
C1626 C1620 1.429 . S
C1626 C1627 1.523 . S
C1627 C1608 1.368 . S
C1627 C1621 1.368 . S
C1627 C1626 1.523 . S
C1628 C1612 1.429 . S
C1628 C1624 1.429 . S
C1628 C1629 1.523 . S
C1629 C1613 1.368 . S
C1629 C1625 1.368 . S
C1629 C1628 1.523 . S
H1630 C1605 0.950 . S
H1631 C1607 0.950 . S
H1632 C1608 0.949 . S
H1633 C1610 0.950 . S
H1634 C1612 0.950 . S
C1635 C1636 1.349 . S
C1635 C1637 1.327 . S
C1635 H1660 0.950 . S
C1636 C1635 1.349 . S
C1636 C1652 1.349 . S
C1637 C1635 1.327 . S
C1637 C1656 1.429 . S
C1637 H1661 0.950 . S
C1638 C1655 1.574 . S
C1638 C1657 1.368 . S
C1638 H1662 0.949 . S
H1639 C1643 0.949 . S
C1640 C1641 1.349 . S
C1640 C1642 1.327 . S
C1640 H1663 0.950 . S
C1641 C1640 1.349 . S
C1641 C1653 1.349 . S
C1642 C1640 1.327 . S
C1642 C1658 1.429 . S
C1642 H1664 0.950 . S
C1643 H1639 0.949 . S
C1643 C1651 1.574 . S
C1643 C1659 1.368 . S
H1644 C1652 0.950 . S
H1645 C1650 0.950 . S
H1646 C1651 0.949 . S
H1647 C1653 0.990 . S
H1648 C1654 0.950 . S
H1649 C1655 0.949 . S
C1650 H1645 0.950 . S
C1650 C1652 1.327 . S
C1650 C1656 1.429 . S
C1651 C1643 1.574 . S
C1651 H1646 0.949 . S
C1651 C1657 1.368 . S
C1652 C1636 1.349 . S
C1652 H1644 0.950 . S
C1652 C1650 1.327 . S
C1653 C1641 1.349 . S
C1653 H1647 0.990 . S
C1653 C1654 1.327 . S
C1654 H1648 0.950 . S
C1654 C1653 1.327 . S
C1654 C1658 1.429 . S
C1655 C1638 1.574 . S
C1655 H1649 0.949 . S
C1655 C1659 1.368 . S
C1656 C1637 1.429 . S
C1656 C1650 1.429 . S
C1656 C1657 1.523 . S
C1657 C1638 1.368 . S
C1657 C1651 1.368 . S
C1657 C1656 1.523 . S
C1658 C1642 1.429 . S
C1658 C1654 1.429 . S
C1658 C1659 1.523 . S
C1659 C1643 1.368 . S
C1659 C1655 1.368 . S
C1659 C1658 1.523 . S
H1660 C1635 0.950 . S
H1661 C1637 0.950 . S
H1662 C1638 0.949 . S
H1663 C1640 0.950 . S
H1664 C1642 0.950 . S
C1665 C1666 1.349 . S
C1665 C1667 1.327 . S
C1665 H1690 0.950 . S
C1666 C1665 1.349 . S
C1666 C1682 1.349 . S
C1667 C1665 1.327 . S
C1667 C1686 1.429 . S
C1667 H1691 0.950 . S
C1668 C1685 1.574 . S
C1668 C1687 1.368 . S
C1668 H1692 0.949 . S
H1669 C1673 0.949 . S
C1670 C1671 1.349 . S
C1670 C1672 1.327 . S
C1670 H1693 0.950 . S
C1671 C1670 1.349 . S
C1671 C1683 1.349 . S
C1672 C1670 1.327 . S
C1672 C1688 1.429 . S
C1672 H1694 0.950 . S
C1673 H1669 0.949 . S
C1673 C1681 1.574 . S
C1673 C1689 1.368 . S
H1674 C1682 0.950 . S
H1675 C1680 0.950 . S
H1676 C1681 0.949 . S
H1677 C1683 0.950 . S
H1678 C1684 0.950 . S
H1679 C1685 0.949 . S
C1680 H1675 0.950 . S
C1680 C1682 1.327 . S
C1680 C1686 1.429 . S
C1681 C1673 1.574 . S
C1681 H1676 0.949 . S
C1681 C1687 1.368 . S
C1682 C1666 1.349 . S
C1682 H1674 0.950 . S
C1682 C1680 1.327 . S
C1683 C1671 1.349 . S
C1683 H1677 0.950 . S
C1683 C1684 1.327 . S
C1684 H1678 0.950 . S
C1684 C1683 1.327 . S
C1684 C1688 1.429 . S
C1685 C1668 1.574 . S
C1685 H1679 0.949 . S
C1685 C1689 1.368 . S
C1686 C1667 1.429 . S
C1686 C1680 1.429 . S
C1686 C1687 1.523 . S
C1687 C1668 1.368 . S
C1687 C1681 1.368 . S
C1687 C1686 1.523 . S
C1688 C1672 1.429 . S
C1688 C1684 1.429 . S
C1688 C1689 1.523 . S
C1689 C1673 1.368 . S
C1689 C1685 1.368 . S
C1689 C1688 1.523 . S
H1690 C1665 0.950 . S
H1691 C1667 0.950 . S
H1692 C1668 0.949 . S
H1693 C1670 0.950 . S
H1694 C1672 0.950 . S
C1695 C1696 1.349 . S
C1695 C1697 1.327 . S
C1695 H1720 0.950 . S
C1696 C1695 1.349 . S
C1696 C1712 1.349 . S
C1697 C1695 1.327 . S
C1697 C1716 1.429 . S
C1697 H1721 0.950 . S
C1698 C1715 1.574 . S
C1698 C1717 1.368 . S
C1698 H1722 0.949 . S
H1699 C1703 0.949 . S
C1700 C1701 1.349 . S
C1700 C1702 1.327 . S
C1700 H1723 0.950 . S
C1701 C1700 1.349 . S
C1701 C1713 1.349 . S
C1702 C1700 1.327 . S
C1702 C1718 1.429 . S
C1702 H1724 0.950 . S
C1703 H1699 0.949 . S
C1703 C1711 1.574 . S
C1703 C1719 1.368 . S
H1704 C1712 0.950 . S
H1705 C1710 0.950 . S
H1706 C1711 0.949 . S
H1707 C1713 0.950 . S
H1708 C1714 0.950 . S
H1709 C1715 0.949 . S
C1710 H1705 0.950 . S
C1710 C1712 1.327 . S
C1710 C1716 1.429 . S
C1711 C1703 1.574 . S
C1711 H1706 0.949 . S
C1711 C1717 1.368 . S
C1712 C1696 1.349 . S
C1712 H1704 0.950 . S
C1712 C1710 1.327 . S
C1713 C1701 1.349 . S
C1713 H1707 0.950 . S
C1713 C1714 1.327 . S
C1714 H1708 0.950 . S
C1714 C1713 1.327 . S
C1714 C1718 1.429 . S
C1715 C1698 1.574 . S
C1715 H1709 0.949 . S
C1715 C1719 1.368 . S
C1716 C1697 1.429 . S
C1716 C1710 1.429 . S
C1716 C1717 1.523 . S
C1717 C1698 1.368 . S
C1717 C1711 1.368 . S
C1717 C1716 1.523 . S
C1718 C1702 1.429 . S
C1718 C1714 1.429 . S
C1718 C1719 1.523 . S
C1719 C1703 1.368 . S
C1719 C1715 1.368 . S
C1719 C1718 1.523 . S
H1720 C1695 0.950 . S
H1721 C1697 0.950 . S
H1722 C1698 0.949 . S
H1723 C1700 0.950 . S
H1724 C1702 0.950 . S
C1725 C1726 1.349 . S
C1725 C1727 1.327 . S
C1725 H1750 0.950 . S
C1726 C1725 1.349 . S
C1726 C1742 1.349 . S
C1727 C1725 1.327 . S
C1727 C1746 1.429 . S
C1727 H1751 0.950 . S
C1728 C1745 1.574 . S
C1728 C1747 1.368 . S
C1728 H1752 0.949 . S
H1729 C1733 0.949 . S
C1730 C1731 1.349 . S
C1730 C1732 1.327 . S
C1730 H1753 0.950 . S
C1731 C1730 1.349 . S
C1731 C1743 1.349 . S
C1732 C1730 1.327 . S
C1732 C1748 1.429 . S
C1732 H1754 0.950 . S
C1733 H1729 0.949 . S
C1733 C1741 1.574 . S
C1733 C1749 1.368 . S
H1734 C1742 0.950 . S
H1735 C1740 0.950 . S
H1736 C1741 0.949 . S
H1737 C1743 0.950 . S
H1738 C1744 0.950 . S
H1739 C1745 0.949 . S
C1740 H1735 0.950 . S
C1740 C1742 1.327 . S
C1740 C1746 1.429 . S
C1741 C1733 1.574 . S
C1741 H1736 0.949 . S
C1741 C1747 1.368 . S
C1742 C1726 1.349 . S
C1742 H1734 0.950 . S
C1742 C1740 1.327 . S
C1743 C1731 1.349 . S
C1743 H1737 0.950 . S
C1743 C1744 1.327 . S
C1744 H1738 0.950 . S
C1744 C1743 1.327 . S
C1744 C1748 1.429 . S
C1745 C1728 1.574 . S
C1745 H1739 0.949 . S
C1745 C1749 1.368 . S
C1746 C1727 1.429 . S
C1746 C1740 1.429 . S
C1746 C1747 1.523 . S
C1747 C1728 1.368 . S
C1747 C1741 1.368 . S
C1747 C1746 1.523 . S
C1748 C1732 1.429 . S
C1748 C1744 1.429 . S
C1748 C1749 1.523 . S
C1749 C1733 1.368 . S
C1749 C1745 1.368 . S
C1749 C1748 1.523 . S
H1750 C1725 0.950 . S
H1751 C1727 0.950 . S
H1752 C1728 0.949 . S
H1753 C1730 0.950 . S
H1754 C1732 0.950 . S
C1755 C1756 1.349 . S
C1755 C1757 1.327 . S
C1755 H1780 0.950 . S
C1756 C1755 1.349 . S
C1756 C1772 1.349 . S
C1757 C1755 1.327 . S
C1757 C1776 1.429 . S
C1757 H1781 0.950 . S
C1758 C1775 1.574 . S
C1758 C1777 1.368 . S
C1758 H1782 0.949 . S
H1759 C1763 0.949 . S
C1760 C1761 1.349 . S
C1760 C1762 1.327 . S
C1760 H1783 0.950 . S
C1761 C1760 1.349 . S
C1761 C1773 1.349 . S
C1762 C1760 1.327 . S
C1762 C1778 1.429 . S
C1762 H1784 0.950 . S
C1763 H1759 0.949 . S
C1763 C1771 1.574 . S
C1763 C1779 1.368 . S
H1764 C1772 0.950 . S
H1765 C1770 0.950 . S
H1766 C1771 0.949 . S
H1767 C1773 0.950 . S
H1768 C1774 0.950 . S
H1769 C1775 0.949 . S
C1770 H1765 0.950 . S
C1770 C1772 1.327 . S
C1770 C1776 1.429 . S
C1771 C1763 1.574 . S
C1771 H1766 0.949 . S
C1771 C1777 1.368 . S
C1772 C1756 1.349 . S
C1772 H1764 0.950 . S
C1772 C1770 1.327 . S
C1773 C1761 1.349 . S
C1773 H1767 0.950 . S
C1773 C1774 1.327 . S
C1774 H1768 0.950 . S
C1774 C1773 1.327 . S
C1774 C1778 1.429 . S
C1775 C1758 1.574 . S
C1775 H1769 0.949 . S
C1775 C1779 1.368 . S
C1776 C1757 1.429 . S
C1776 C1770 1.429 . S
C1776 C1777 1.523 . S
C1777 C1758 1.368 . S
C1777 C1771 1.368 . S
C1777 C1776 1.523 . S
C1778 C1762 1.429 . S
C1778 C1774 1.429 . S
C1778 C1779 1.523 . S
C1779 C1763 1.368 . S
C1779 C1775 1.368 . S
C1779 C1778 1.523 . S
H1780 C1755 0.950 . S
H1781 C1757 0.950 . S
H1782 C1758 0.949 . S
H1783 C1760 0.950 . S
H1784 C1762 0.950 . S
C1785 C1786 1.349 . S
C1785 C1787 1.327 . S
C1785 H1810 0.950 . S
C1786 C1785 1.349 . S
C1786 C1802 1.349 . S
C1787 C1785 1.327 . S
C1787 C1806 1.429 . S
C1787 H1811 0.950 . S
C1788 C1805 1.574 . S
C1788 C1807 1.368 . S
C1788 H1812 0.949 . S
H1789 C1793 0.949 . S
C1790 C1791 1.349 . S
C1790 C1792 1.327 . S
C1790 H1813 0.950 . S
C1791 C1790 1.349 . S
C1791 C1803 1.349 . S
C1792 C1790 1.327 . S
C1792 C1808 1.429 . S
C1792 H1814 0.950 . S
C1793 H1789 0.949 . S
C1793 C1801 1.574 . S
C1793 C1809 1.368 . S
H1794 C1802 0.950 . S
H1795 C1800 0.950 . S
H1796 C1801 0.949 . S
H1797 C1803 0.950 . S
H1798 C1804 0.950 . S
H1799 C1805 0.949 . S
C1800 H1795 0.950 . S
C1800 C1802 1.327 . S
C1800 C1806 1.429 . S
C1801 C1793 1.574 . S
C1801 H1796 0.949 . S
C1801 C1807 1.368 . S
C1802 C1786 1.349 . S
C1802 H1794 0.950 . S
C1802 C1800 1.327 . S
C1803 C1791 1.349 . S
C1803 H1797 0.950 . S
C1803 C1804 1.327 . S
C1804 H1798 0.950 . S
C1804 C1803 1.327 . S
C1804 C1808 1.429 . S
C1805 C1788 1.574 . S
C1805 H1799 0.949 . S
C1805 C1809 1.368 . S
C1806 C1787 1.429 . S
C1806 C1800 1.429 . S
C1806 C1807 1.523 . S
C1807 C1788 1.368 . S
C1807 C1801 1.368 . S
C1807 C1806 1.523 . S
C1808 C1792 1.429 . S
C1808 C1804 1.429 . S
C1808 C1809 1.523 . S
C1809 C1793 1.368 . S
C1809 C1805 1.368 . S
C1809 C1808 1.523 . S
H1810 C1785 0.950 . S
H1811 C1787 0.950 . S
H1812 C1788 0.949 . S
H1813 C1790 0.950 . S
H1814 C1792 0.950 . S
C1815 C1816 1.349 . S
C1815 C1817 1.327 . S
C1815 H1840 0.950 . S
C1816 C1815 1.349 . S
C1816 C1832 1.349 . S
C1817 C1815 1.327 . S
C1817 C1836 1.429 . S
C1817 H1841 0.950 . S
C1818 C1835 1.574 . S
C1818 C1837 1.368 . S
C1818 H1842 0.949 . S
H1819 C1823 0.949 . S
C1820 C1821 1.349 . S
C1820 C1822 1.327 . S
C1820 H1843 0.950 . S
C1821 C1820 1.349 . S
C1821 C1833 1.349 . S
C1822 C1820 1.327 . S
C1822 C1838 1.429 . S
C1822 H1844 0.950 . S
C1823 H1819 0.949 . S
C1823 C1831 1.574 . S
C1823 C1839 1.368 . S
H1824 C1832 0.950 . S
H1825 C1830 0.950 . S
H1826 C1831 0.949 . S
H1827 C1833 0.950 . S
H1828 C1834 0.950 . S
H1829 C1835 0.949 . S
C1830 H1825 0.950 . S
C1830 C1832 1.327 . S
C1830 C1836 1.429 . S
C1831 C1823 1.574 . S
C1831 H1826 0.949 . S
C1831 C1837 1.368 . S
C1832 C1816 1.349 . S
C1832 H1824 0.950 . S
C1832 C1830 1.327 . S
C1833 C1821 1.349 . S
C1833 H1827 0.950 . S
C1833 C1834 1.327 . S
C1834 H1828 0.950 . S
C1834 C1833 1.327 . S
C1834 C1838 1.429 . S
C1835 C1818 1.574 . S
C1835 H1829 0.949 . S
C1835 C1839 1.368 . S
C1836 C1817 1.429 . S
C1836 C1830 1.429 . S
C1836 C1837 1.523 . S
C1837 C1818 1.368 . S
C1837 C1831 1.368 . S
C1837 C1836 1.523 . S
C1838 C1822 1.429 . S
C1838 C1834 1.429 . S
C1838 C1839 1.523 . S
C1839 C1823 1.368 . S
C1839 C1835 1.368 . S
C1839 C1838 1.523 . S
H1840 C1815 0.950 . S
H1841 C1817 0.950 . S
H1842 C1818 0.949 . S
H1843 C1820 0.950 . S
H1844 C1822 0.950 . S
C1845 C1846 1.349 . S
C1845 C1847 1.327 . S
C1845 H1870 0.950 . S
C1846 C1845 1.349 . S
C1846 C1862 1.349 . S
C1847 C1845 1.327 . S
C1847 C1866 1.429 . S
C1847 H1871 0.950 . S
C1848 C1865 1.574 . S
C1848 C1867 1.368 . S
C1848 H1872 0.949 . S
H1849 C1853 0.949 . S
C1850 C1851 1.349 . S
C1850 C1852 1.327 . S
C1850 H1873 0.950 . S
C1851 C1850 1.349 . S
C1851 C1863 1.349 . S
C1852 C1850 1.327 . S
C1852 C1868 1.429 . S
C1852 H1874 0.950 . S
C1853 H1849 0.949 . S
C1853 C1861 1.574 . S
C1853 C1869 1.368 . S
H1854 C1862 0.950 . S
H1855 C1860 0.950 . S
H1856 C1861 0.949 . S
H1857 C1863 0.950 . S
H1858 C1864 0.950 . S
H1859 C1865 0.949 . S
C1860 H1855 0.950 . S
C1860 C1862 1.327 . S
C1860 C1866 1.429 . S
C1861 C1853 1.574 . S
C1861 H1856 0.949 . S
C1861 C1867 1.368 . S
C1862 C1846 1.349 . S
C1862 H1854 0.950 . S
C1862 C1860 1.327 . S
C1863 C1851 1.349 . S
C1863 H1857 0.950 . S
C1863 C1864 1.327 . S
C1864 H1858 0.950 . S
C1864 C1863 1.327 . S
C1864 C1868 1.429 . S
C1865 C1848 1.574 . S
C1865 H1859 0.949 . S
C1865 C1869 1.368 . S
C1866 C1847 1.429 . S
C1866 C1860 1.429 . S
C1866 C1867 1.523 . S
C1867 C1848 1.368 . S
C1867 C1861 1.368 . S
C1867 C1866 1.523 . S
C1868 C1852 1.429 . S
C1868 C1864 1.429 . S
C1868 C1869 1.523 . S
C1869 C1853 1.368 . S
C1869 C1865 1.368 . S
C1869 C1868 1.523 . S
H1870 C1845 0.950 . S
H1871 C1847 0.950 . S
H1872 C1848 0.949 . S
H1873 C1850 0.950 . S
H1874 C1852 0.950 . S
C1875 C1876 1.349 . S
C1875 C1877 1.327 . S
C1875 H1900 0.950 . S
C1876 C1875 1.349 . S
C1876 C1892 1.349 . S
C1877 C1875 1.327 . S
C1877 C1896 1.429 . S
C1877 H1901 0.950 . S
C1878 C1895 1.574 . S
C1878 C1897 1.368 . S
C1878 H1902 0.949 . S
H1879 C1883 0.949 . S
C1880 C1881 1.349 . S
C1880 C1882 1.327 . S
C1880 H1903 0.950 . S
C1881 C1880 1.349 . S
C1881 C1893 1.349 . S
C1882 C1880 1.327 . S
C1882 C1898 1.429 . S
C1882 H1904 0.950 . S
C1883 H1879 0.949 . S
C1883 C1891 1.574 . S
C1883 C1899 1.368 . S
H1884 C1892 0.950 . S
H1885 C1890 0.950 . S
H1886 C1891 0.949 . S
H1887 C1893 0.950 . S
H1888 C1894 0.950 . S
H1889 C1895 0.949 . S
C1890 H1885 0.950 . S
C1890 C1892 1.327 . S
C1890 C1896 1.429 . S
C1891 C1883 1.574 . S
C1891 H1886 0.949 . S
C1891 C1897 1.368 . S
C1892 C1876 1.349 . S
C1892 H1884 0.950 . S
C1892 C1890 1.327 . S
C1893 C1881 1.349 . S
C1893 H1887 0.950 . S
C1893 C1894 1.327 . S
C1894 H1888 0.950 . S
C1894 C1893 1.327 . S
C1894 C1898 1.429 . S
C1895 C1878 1.574 . S
C1895 H1889 0.949 . S
C1895 C1899 1.368 . S
C1896 C1877 1.429 . S
C1896 C1890 1.429 . S
C1896 C1897 1.523 . S
C1897 C1878 1.368 . S
C1897 C1891 1.368 . S
C1897 C1896 1.523 . S
C1898 C1882 1.429 . S
C1898 C1894 1.429 . S
C1898 C1899 1.523 . S
C1899 C1883 1.368 . S
C1899 C1895 1.368 . S
C1899 C1898 1.523 . S
H1900 C1875 0.950 . S
H1901 C1877 0.950 . S
H1902 C1878 0.949 . S
H1903 C1880 0.950 . S
H1904 C1882 0.950 . S
C1905 C1906 1.349 . S
C1905 C1907 1.327 . S
C1905 H1930 0.950 . S
C1906 C1905 1.349 . S
C1906 C1922 1.349 . S
C1907 C1905 1.327 . S
C1907 C1926 1.429 . S
C1907 H1931 0.950 . S
C1908 C1925 1.574 . S
C1908 C1927 1.368 . S
C1908 H1932 0.949 . S
H1909 C1913 0.949 . S
C1910 C1911 1.349 . S
C1910 C1912 1.327 . S
C1910 H1933 0.950 . S
C1911 C1910 1.349 . S
C1911 C1923 1.349 . S
C1912 C1910 1.327 . S
C1912 C1928 1.429 . S
C1912 H1934 0.950 . S
C1913 H1909 0.949 . S
C1913 C1921 1.574 . S
C1913 C1929 1.368 . S
H1914 C1922 0.950 . S
H1915 C1920 0.950 . S
H1916 C1921 0.949 . S
H1917 C1923 0.950 . S
H1918 C1924 0.950 . S
H1919 C1925 0.949 . S
C1920 H1915 0.950 . S
C1920 C1922 1.327 . S
C1920 C1926 1.429 . S
C1921 C1913 1.574 . S
C1921 H1916 0.949 . S
C1921 C1927 1.368 . S
C1922 C1906 1.349 . S
C1922 H1914 0.950 . S
C1922 C1920 1.327 . S
C1923 C1911 1.349 . S
C1923 H1917 0.950 . S
C1923 C1924 1.327 . S
C1924 H1918 0.950 . S
C1924 C1923 1.327 . S
C1924 C1928 1.429 . S
C1925 C1908 1.574 . S
C1925 H1919 0.949 . S
C1925 C1929 1.368 . S
C1926 C1907 1.429 . S
C1926 C1920 1.429 . S
C1926 C1927 1.523 . S
C1927 C1908 1.368 . S
C1927 C1921 1.368 . S
C1927 C1926 1.523 . S
C1928 C1912 1.429 . S
C1928 C1924 1.429 . S
C1928 C1929 1.523 . S
C1929 C1913 1.368 . S
C1929 C1925 1.368 . S
C1929 C1928 1.523 . S
H1930 C1905 0.950 . S
H1931 C1907 0.950 . S
H1932 C1908 0.949 . S
H1933 C1910 0.950 . S
H1934 C1912 0.950 . S
C1935 C1936 1.349 . S
C1935 C1937 1.327 . S
C1935 H1960 0.950 . S
C1936 C1935 1.349 . S
C1936 C1952 1.349 . S
C1937 C1935 1.327 . S
C1937 C1956 1.429 . S
C1937 H1961 0.950 . S
C1938 C1955 1.574 . S
C1938 C1957 1.368 . S
C1938 H1962 0.949 . S
H1939 C1943 0.949 . S
C1940 C1941 1.349 . S
C1940 C1942 1.327 . S
C1940 H1963 0.950 . S
C1941 C1940 1.349 . S
C1941 C1953 1.349 . S
C1942 C1940 1.327 . S
C1942 C1958 1.429 . S
C1942 H1964 0.950 . S
C1943 H1939 0.949 . S
C1943 C1951 1.574 . S
C1943 C1959 1.368 . S
H1944 C1952 0.950 . S
H1945 C1950 0.950 . S
H1946 C1951 0.949 . S
H1947 C1953 0.950 . S
H1948 C1954 0.950 . S
H1949 C1955 0.949 . S
C1950 H1945 0.950 . S
C1950 C1952 1.327 . S
C1950 C1956 1.429 . S
C1951 C1943 1.574 . S
C1951 H1946 0.949 . S
C1951 C1957 1.368 . S
C1952 C1936 1.349 . S
C1952 H1944 0.950 . S
C1952 C1950 1.327 . S
C1953 C1941 1.349 . S
C1953 H1947 0.950 . S
C1953 C1954 1.327 . S
C1954 H1948 0.950 . S
C1954 C1953 1.327 . S
C1954 C1958 1.429 . S
C1955 C1938 1.574 . S
C1955 H1949 0.949 . S
C1955 C1959 1.368 . S
C1956 C1937 1.429 . S
C1956 C1950 1.429 . S
C1956 C1957 1.523 . S
C1957 C1938 1.368 . S
C1957 C1951 1.368 . S
C1957 C1956 1.523 . S
C1958 C1942 1.429 . S
C1958 C1954 1.429 . S
C1958 C1959 1.523 . S
C1959 C1943 1.368 . S
C1959 C1955 1.368 . S
C1959 C1958 1.523 . S
H1960 C1935 0.950 . S
H1961 C1937 0.950 . S
H1962 C1938 0.949 . S
H1963 C1940 0.950 . S
H1964 C1942 0.950 . S
C1965 C1966 1.349 . S
C1965 C1967 1.327 . S
C1965 H1990 0.950 . S
C1966 C1965 1.349 . S
C1966 C1982 1.349 . S
C1967 C1965 1.327 . S
C1967 C1986 1.429 . S
C1967 H1991 0.950 . S
C1968 C1985 1.574 . S
C1968 C1987 1.368 . S
C1968 H1992 0.949 . S
H1969 C1973 0.949 . S
C1970 C1971 1.349 . S
C1970 C1972 1.327 . S
C1970 H1993 0.950 . S
C1971 C1970 1.349 . S
C1971 C1983 1.349 . S
C1972 C1970 1.327 . S
C1972 C1988 1.429 . S
C1972 H1994 0.950 . S
C1973 H1969 0.949 . S
C1973 C1981 1.574 . S
C1973 C1989 1.368 . S
H1974 C1982 0.950 . S
H1975 C1980 0.950 . S
H1976 C1981 0.949 . S
H1977 C1983 0.950 . S
H1978 C1984 0.950 . S
H1979 C1985 0.949 . S
C1980 H1975 0.950 . S
C1980 C1982 1.327 . S
C1980 C1986 1.429 . S
C1981 C1973 1.574 . S
C1981 H1976 0.949 . S
C1981 C1987 1.368 . S
C1982 C1966 1.349 . S
C1982 H1974 0.950 . S
C1982 C1980 1.327 . S
C1983 C1971 1.349 . S
C1983 H1977 0.950 . S
C1983 C1984 1.327 . S
C1984 H1978 0.950 . S
C1984 C1983 1.327 . S
C1984 C1988 1.429 . S
C1985 C1968 1.574 . S
C1985 H1979 0.949 . S
C1985 C1989 1.368 . S
C1986 C1967 1.429 . S
C1986 C1980 1.429 . S
C1986 C1987 1.523 . S
C1987 C1968 1.368 . S
C1987 C1981 1.368 . S
C1987 C1986 1.523 . S
C1988 C1972 1.429 . S
C1988 C1984 1.429 . S
C1988 C1989 1.523 . S
C1989 C1973 1.368 . S
C1989 C1985 1.368 . S
C1989 C1988 1.523 . S
H1990 C1965 0.950 . S
H1991 C1967 0.950 . S
H1992 C1968 0.949 . S
H1993 C1970 0.950 . S
H1994 C1972 0.950 . S
C1995 C1996 1.349 . S
C1995 C1997 1.327 . S
C1995 H2020 0.950 . S
C1996 C1995 1.349 . S
C1996 C2012 1.349 . S
C1997 C1995 1.327 . S
C1997 C2016 1.429 . S
C1997 H2021 0.950 . S
C1998 C2015 1.574 . S
C1998 C2017 1.368 . S
C1998 H2022 0.949 . S
H1999 C2003 0.949 . S
C2000 C2001 1.349 . S
C2000 C2002 1.327 . S
C2000 H2023 0.950 . S
C2001 C2000 1.349 . S
C2001 C2013 1.349 . S
C2002 C2000 1.327 . S
C2002 C2018 1.429 . S
C2002 H2024 0.950 . S
C2003 H1999 0.949 . S
C2003 C2011 1.574 . S
C2003 C2019 1.368 . S
H2004 C2012 0.950 . S
H2005 C2010 0.950 . S
H2006 C2011 0.949 . S
H2007 C2013 0.950 . S
H2008 C2014 0.950 . S
H2009 C2015 0.949 . S
C2010 H2005 0.950 . S
C2010 C2012 1.327 . S
C2010 C2016 1.429 . S
C2011 C2003 1.574 . S
C2011 H2006 0.949 . S
C2011 C2017 1.368 . S
C2012 C1996 1.349 . S
C2012 H2004 0.950 . S
C2012 C2010 1.327 . S
C2013 C2001 1.349 . S
C2013 H2007 0.950 . S
C2013 C2014 1.327 . S
C2014 H2008 0.950 . S
C2014 C2013 1.327 . S
C2014 C2018 1.429 . S
C2015 C1998 1.574 . S
C2015 H2009 0.949 . S
C2015 C2019 1.368 . S
C2016 C1997 1.429 . S
C2016 C2010 1.429 . S
C2016 C2017 1.523 . S
C2017 C1998 1.368 . S
C2017 C2011 1.368 . S
C2017 C2016 1.523 . S
C2018 C2002 1.429 . S
C2018 C2014 1.429 . S
C2018 C2019 1.523 . S
C2019 C2003 1.368 . S
C2019 C2015 1.368 . S
C2019 C2018 1.523 . S
H2020 C1995 0.950 . S
H2021 C1997 0.950 . S
H2022 C1998 0.949 . S
H2023 C2000 0.950 . S
H2024 C2002 0.950 . S
C406 C162 1.405 . S
C411 C230 1.380 . S
C436 C174 1.387 . S
C441 C251 1.358 . S
C466 C150 1.336 . S
C471 C271 1.198 . S
C496 C138 1.335 . S
C501 C250 1.189 . S
C531 C272 1.374 . S
C526 C114 1.404 . S
C556 C126 1.355 1_554 S
C561 C229 1.206 . S
C591 C231 1.369 . S
C586 C136 1.402 1_554 S
C621 C252 1.369 . S
C616 C112 1.390 . S
C646 C124 1.454 . S
C651 C274 1.259 . S
C676 C160 1.423 . S
C681 C253 1.242 . S
C706 C172 1.372 . S
C711 C273 1.346 . S
C741 C232 1.251 . S
C736 C148 1.438 . S
C771 C293 1.380 . S
C766 C18 1.405 . S
C796 C30 1.387 . S
C801 C314 1.357 . S
C826 C6 1.336 . S
C831 C334 1.198 . S
C856 C210 1.335 . S
C861 C313 1.189 . S
C886 C186 1.404 . S
C891 C335 1.374 . S
C916 C198 1.354 . S
C921 C292 1.206 . S
C946 C208 1.402 . S
C951 C294 1.370 . S
C976 C184 1.390 . S
C981 C315 1.369 . S
C1011 C337 1.259 . S
C1006 C196 1.454 . S
C1036 C16 1.424 . S
C1041 C316 1.242 . S
C1071 C336 1.345 . S
C1066 C28 1.372 . S
C1096 C4 1.438 . S
C1101 C295 1.251 . S
C1131 C356 1.380 . S
C1126 C90 1.405 . S
C1156 C102 1.387 . S
C1161 C377 1.357 . S
C1191 C397 1.198 . S
C1186 C78 1.336 . S
C1221 C376 1.189 . S
C1216 C66 1.335 . S
C1251 C398 1.373 . S
C1246 C42 1.404 . S
C1276 C54 1.354 . S
C1281 C355 1.206 . S
C1306 C64 1.402 . S
C1311 C357 1.369 . S
C1336 C40 1.390 . S
C1341 C378 1.369 . S
C1371 C400 1.259 . S
C1366 C52 1.454 . S
C1396 C88 1.424 . S
C1401 C379 1.242 . S
C1426 C100 1.372 . S
C1431 C399 1.346 . S
C1456 C76 1.438 . S
C1461 C358 1.251 . S
C1486 C189 1.492 . S
C1491 C234 1.476 . S
C1521 C255 1.515 . S
C1516 C201 1.530 . S
C1546 C213 1.563 . S
C1551 C275 1.507 . S
C1576 C81 1.636 . S
C1581 C254 1.578 . S
C1606 C93 1.567 . S
C1611 C276 1.549 . S
C1641 C233 1.541 . S
C1636 C105 1.596 . S
C1666 C45 1.492 . S
C1671 C297 1.476 . S
C1696 C57 1.530 . S
C1701 C318 1.515 . S
C1726 C69 1.563 . S
C1731 C338 1.507 . S
C1756 C153 1.637 . S
C1761 C317 1.578 . S
C1791 C339 1.549 . S
C1786 C165 1.567 . S
C1816 C177 1.596 . S
C1821 C296 1.541 . S
C1846 C117 1.492 . S
C1851 C360 1.476 . S
C1876 C129 1.530 . S
C1881 C381 1.515 . S
C1911 C401 1.507 . S
C1906 C141 1.563 . S
C1936 C9 1.637 . S
C1941 C380 1.578 . S
C1966 C21 1.567 . S
C1971 C402 1.549 . S
C1996 C33 1.596 . S
C2001 C359 1.541 . S
