# Generated by pormake.
# Topology pyr, (3,6)-cn, num edge types: 1
# Building blocks:
#     Node 0, Type 0, BuildingBlock: BETDAH_clean_linker_0, # of connection points: 3
#     Node 1, Type 0, BuildingBlock: BETDAH_clean_linker_0, # of connection points: 3
#     Node 2, Type 0, BuildingBlock: BETDAH_clean_linker_0, # of connection points: 3
#     Node 3, Type 0, BuildingBlock: BETDAH_clean_linker_0, # of connection points: 3
#     Node 4, Type 0, BuildingBlock: BETDAH_clean_linker_0, # of connection points: 3
#     Node 5, Type 0, BuildingBlock: BETDAH_clean_linker_0, # of connection points: 3
#     Node 6, Type 0, BuildingBlock: BETDAH_clean_linker_0, # of connection points: 3
#     Node 7, Type 0, BuildingBlock: BETDAH_clean_linker_0, # of connection points: 3
#     Node 8, Type 1, BuildingBlock: BETFEN_clean_sbu_0, # of connection points: 6
#     Node 9, Type 1, BuildingBlock: BETFEN_clean_sbu_0, # of connection points: 6
#     Node 10, Type 1, BuildingBlock: BETFEN_clean_sbu_0, # of connection points: 6
#     Node 11, Type 1, BuildingBlock: BETFEN_clean_sbu_0, # of connection points: 6
#     Edge 12, Type (0, 1), BuildingBlock: AJUNOK_clean_linker_0, # of connection points: 2
#     Edge 13, Type (0, 1), BuildingBlock: AJUNOK_clean_linker_0, # of connection points: 2
#     Edge 14, Type (0, 1), BuildingBlock: AJUNOK_clean_linker_0, # of connection points: 2
#     Edge 15, Type (0, 1), BuildingBlock: AJUNOK_clean_linker_0, # of connection points: 2
#     Edge 16, Type (0, 1), BuildingBlock: AJUNOK_clean_linker_0, # of connection points: 2
#     Edge 17, Type (0, 1), BuildingBlock: AJUNOK_clean_linker_0, # of connection points: 2
#     Edge 18, Type (0, 1), BuildingBlock: AJUNOK_clean_linker_0, # of connection points: 2
#     Edge 19, Type (0, 1), BuildingBlock: AJUNOK_clean_linker_0, # of connection points: 2
#     Edge 20, Type (0, 1), BuildingBlock: AJUNOK_clean_linker_0, # of connection points: 2
#     Edge 21, Type (0, 1), BuildingBlock: AJUNOK_clean_linker_0, # of connection points: 2
#     Edge 22, Type (0, 1), BuildingBlock: AJUNOK_clean_linker_0, # of connection points: 2
#     Edge 23, Type (0, 1), BuildingBlock: AJUNOK_clean_linker_0, # of connection points: 2
#     Edge 24, Type (0, 1), BuildingBlock: AJUNOK_clean_linker_0, # of connection points: 2
#     Edge 25, Type (0, 1), BuildingBlock: AJUNOK_clean_linker_0, # of connection points: 2
#     Edge 26, Type (0, 1), BuildingBlock: AJUNOK_clean_linker_0, # of connection points: 2
#     Edge 27, Type (0, 1), BuildingBlock: AJUNOK_clean_linker_0, # of connection points: 2
#     Edge 28, Type (0, 1), BuildingBlock: AJUNOK_clean_linker_0, # of connection points: 2
#     Edge 29, Type (0, 1), BuildingBlock: AJUNOK_clean_linker_0, # of connection points: 2
#     Edge 30, Type (0, 1), BuildingBlock: AJUNOK_clean_linker_0, # of connection points: 2
#     Edge 31, Type (0, 1), BuildingBlock: AJUNOK_clean_linker_0, # of connection points: 2
#     Edge 32, Type (0, 1), BuildingBlock: AJUNOK_clean_linker_0, # of connection points: 2
#     Edge 33, Type (0, 1), BuildingBlock: AJUNOK_clean_linker_0, # of connection points: 2
#     Edge 34, Type (0, 1), BuildingBlock: AJUNOK_clean_linker_0, # of connection points: 2
#     Edge 35, Type (0, 1), BuildingBlock: AJUNOK_clean_linker_0, # of connection points: 2
# Relax obj value: 0.223
# Max RMSD: 0.328
# Mean RMSD: 0.147
data_MOF--net-pyr--node1-BETFEN_clean_sbu_0--node2-BETDAH_clean_linker_0--edge1-AJUNOK_clean_linker_0
_symmetry_space_group_name_H-M    P1
_symmetry_Int_Tables_number       1
_symmetry_cell_setting            triclinic
loop_
_symmetry_equiv_pos_as_xyz
'x, y, z'
_cell_length_a     26.897616
_cell_length_b     30.565583
_cell_length_c     28.147741
_cell_angle_alpha  92.352286
_cell_angle_beta   102.50385
_cell_angle_gamma 120.78667
loop_
_atom_site_label
_atom_site_type_symbol
_atom_site_fract_x
_atom_site_fract_y
_atom_site_fract_z
_atom_type_partial_charge
H0 H 0.42564 0.32188 0.32685 0.0
H1 H 0.56034 0.45049 0.27921 0.0
H2 H 0.44192 0.46942 0.3468 0.0
C3 C 0.44775 0.36242 0.32367 0.0
C4 C 0.42607 0.39247 0.3381 0.0
C5 C 0.49462 0.38254 0.30125 0.0
C6 C 0.52552 0.43515 0.29829 0.0
C7 C 0.50769 0.46695 0.31586 0.0
C8 C 0.4576 0.44539 0.33553 0.0
N9 N 0.53375 0.51807 0.30604 0.0
C10 C 0.49533 0.53359 0.28451 0.0
H11 H 0.38251 0.83709 0.79501 0.0
H12 H 0.28229 0.91096 0.76718 0.0
H13 H 0.267 0.80579 0.64979 0.0
C14 C 0.34933 0.8418 0.77011 0.0
C15 C 0.32564 0.8165 0.72089 0.0
C16 C 0.33444 0.87613 0.78694 0.0
C17 C 0.29304 0.88373 0.75438 0.0
C18 C 0.26797 0.85775 0.70474 0.0
C19 C 0.28479 0.82451 0.68829 0.0
N20 N 0.22757 0.86534 0.66979 0.0
C21 C 0.21277 0.90184 0.67831 0.0
H22 H 0.70404 0.33578 0.96176 0.0
H23 H 0.69133 0.4199 0.84596 0.0
H24 H 0.5335 0.27752 0.8558 0.0
C25 C 0.67696 0.33965 0.92948 0.0
C26 C 0.61586 0.30216 0.9121 0.0
C27 C 0.7043 0.38145 0.90558 0.0
C28 C 0.66977 0.38721 0.8641 0.0
C29 C 0.6076 0.3496 0.84582 0.0
C30 C 0.58106 0.30681 0.86985 0.0
N31 N 0.57048 0.35269 0.80323 0.0
C32 C 0.58754 0.39348 0.77684 0.0
H33 H 0.8787 0.75978 0.47894 0.0
H34 H 0.95277 0.76383 0.35665 0.0
H35 H 0.80419 0.62049 0.37504 0.0
C36 C 0.87905 0.73974 0.44646 0.0
C37 C 0.83622 0.6866 0.43084 0.0
C38 C 0.92016 0.7686 0.4199 0.0
C39 C 0.92168 0.74226 0.3778 0.0
C40 C 0.88102 0.68782 0.3627 0.0
C41 C 0.83785 0.66118 0.38882 0.0
N42 N 0.87631 0.65816 0.31912 0.0
C43 C 0.91862 0.66622 0.29312 0.0
H44 H 0.70212 0.68154 0.81315 0.0
H45 H 0.55019 0.60842 0.87234 0.0
H46 H 0.56408 0.71653 0.77537 0.0
C47 C 0.65838 0.67433 0.81378 0.0
C48 C 0.63741 0.70354 0.79027 0.0
C49 C 0.6263 0.63894 0.84203 0.0
C50 C 0.57247 0.63253 0.84726 0.0
C51 C 0.55075 0.66133 0.82369 0.0
C52 C 0.58193 0.69502 0.79366 0.0
N53 N 0.50582 0.66497 0.83843 0.0
C54 C 0.52179 0.71348 0.86044 0.0
H55 H 0.82786 0.16965 0.35171 0.0
H56 H 0.86937 0.22906 0.50536 0.0
H57 H 0.76203 0.26287 0.3949 0.0
C58 C 0.82602 0.19351 0.38003 0.0
C59 C 0.7929 0.21701 0.36711 0.0
C60 C 0.85348 0.19768 0.42973 0.0
C61 C 0.84866 0.22617 0.4668 0.0
C62 C 0.81579 0.24969 0.45472 0.0
C63 C 0.78793 0.24509 0.40471 0.0
N64 N 0.81034 0.27637 0.49379 0.0
C65 C 0.7688 0.29127 0.48754 0.0
H66 H 0.39129 0.79661 0.18063 0.0
H67 H 0.3939 0.70021 0.28708 0.0
H68 H 0.55938 0.83738 0.28086 0.0
C69 C 0.41625 0.78875 0.21119 0.0
C70 C 0.47848 0.82194 0.22809 0.0
C71 C 0.38556 0.74532 0.23239 0.0
C72 C 0.41781 0.73408 0.271 0.0
C73 C 0.48092 0.76771 0.28915 0.0
C74 C 0.51091 0.8116 0.26737 0.0
N75 N 0.51586 0.75948 0.32935 0.0
C76 C 0.49553 0.71671 0.35314 0.0
H77 H 0.21611 0.35595 0.67386 0.0
H78 H 0.26485 0.50326 0.74837 0.0
H79 H 0.12765 0.3621 0.78225 0.0
C80 C 0.20961 0.37872 0.69957 0.0
C81 C 0.16653 0.35275 0.72523 0.0
C82 C 0.24383 0.43264 0.70575 0.0
C83 C 0.23786 0.46134 0.74229 0.0
C84 C 0.19697 0.43685 0.77101 0.0
C85 C 0.16037 0.38181 0.76184 0.0
N86 N 0.19555 0.47027 0.80762 0.0
C87 C 0.16021 0.46027 0.84094 0.0
Pr88 Pr 0.99693 0.03595 0.59352 0.0
Pr89 Pr 0.09214 0.08826 0.55043 0.0
C90 C 0.89185 0.98159 0.61671 0.0
C91 C 0.85488 0.93745 0.63821 0.0
C92 C 0.88 0.91432 0.66833 0.0
C93 C 0.8451 0.87608 0.69292 0.0
C94 C 0.785 0.86097 0.6878 0.0
C95 C 0.7596 0.883 0.65618 0.0
C96 C 0.79443 0.92111 0.63164 0.0
C97 C 0.07311 0.14011 0.64099 0.0
C98 C 0.10923 0.02438 0.63835 0.0
C99 C 0.19467 0.1519 0.52688 0.0
C100 C 0.21639 0.19637 0.50124 0.0
C101 C 0.17717 0.19877 0.46085 0.0
C102 C 0.19979 0.23765 0.43276 0.0
C103 C 0.26178 0.27482 0.44503 0.0
C104 C 0.30017 0.27452 0.48758 0.0
C105 C 0.27762 0.23541 0.51539 0.0
C106 C 1.0154 0.98414 0.5017 0.0
C107 C 0.9771 0.0945 0.50215 0.0
O108 O 0.89785 0.97221 0.57327 0.0
O109 O 0.94114 0.02003 0.6471 0.0
O110 O 0.05444 0.12419 0.59472 0.0
O111 O 0.05687 0.10144 0.66436 0.0
O112 O 0.13763 0.06573 0.61859 0.0
O113 O 0.05044 1.00001 0.62956 0.0
O114 O 0.18722 0.15924 0.57023 0.0
O115 O 0.15168 0.10725 0.49949 0.0
O116 O 0.03332 0.99945 0.54809 0.0
O117 O 0.03426 0.02334 0.47892 0.0
O118 O 0.95019 0.05399 0.52304 0.0
O119 O 0.03584 0.12056 0.5113 0.0
H120 H 0.9268 0.92674 0.67376 0.0
H121 H 0.86546 0.85938 0.717 0.0
H122 H 0.71298 0.87109 0.65084 0.0
H123 H 0.77456 0.93873 0.60843 0.0
H124 H 0.12951 0.16933 0.44974 0.0
H125 H 0.16941 0.23734 0.40023 0.0
H126 H 0.34826 0.30258 0.49746 0.0
H127 H 0.30841 0.23438 0.54664 0.0
Pr128 Pr 0.51115 0.06601 0.08738 0.0
Pr129 Pr 0.60946 0.06779 0.06302 0.0
C130 C 0.418 0.06166 0.1114 0.0
C131 C 0.41835 0.1069 0.13196 0.0
C132 C 0.4432 0.15221 0.1115 0.0
C133 C 0.45892 0.19921 0.13763 0.0
C134 C 0.44997 0.20183 0.18465 0.0
C135 C 0.42108 0.15589 0.20353 0.0
C136 C 0.40575 0.10881 0.1775 0.0
C137 C 0.57078 0.14982 0.03997 0.0
C138 C 0.64138 0.14053 0.16586 0.0
C139 C 0.70076 0.06975 0.03757 0.0
C140 C 0.69791 0.0233 1.01623 0.0
C141 C 0.67805 0.98006 0.03991 0.0
C142 C 0.6567 0.93128 1.01397 0.0
C143 C 0.65495 0.92454 0.96389 0.0
C144 C 0.68027 0.96847 0.94157 0.0
C145 C 0.70132 0.01747 0.9675 0.0
C146 C 0.54706 0.98204 0.10744 0.0
C147 C 0.48014 0.99587 0.98349 0.0
O148 O 0.45419 0.05145 0.14056 0.0
O149 O 0.42074 0.05879 0.0657 0.0
O150 O 0.55768 0.10444 1.02704 0.0
O151 O 0.55676 0.15379 0.08042 0.0
O152 O 0.66163 0.13959 0.12749 0.0
O153 O 0.58388 0.10986 0.16228 0.0
O154 O 0.66558 0.08147 1.0092 0.0
O155 O 0.69894 0.07311 0.08353 0.0
O156 O 0.56122 0.02749 0.12217 0.0
O157 O 0.56238 0.97951 0.06742 0.0
O158 O 0.45914 0.99508 1.02177 0.0
O159 O 0.5376 0.02742 0.9877 0.0
H160 H 0.45378 0.15215 0.07651 0.0
H161 H 0.4806 0.2339 0.12202 0.0
H162 H 0.41177 0.15659 0.23902 0.0
H163 H 0.38699 0.07448 0.1941 0.0
H164 H 0.67453 0.98292 0.07738 0.0
H165 H 0.63783 0.8983 1.03233 0.0
H166 H 0.68137 0.96465 0.90345 0.0
H167 H 0.71634 0.05014 0.9484 0.0
Pr168 Pr 0.5661 0.60517 0.59891 0.0
Pr169 Pr 0.50785 0.50343 0.53189 0.0
C170 C 0.58781 0.69481 0.64476 0.0
C171 C 0.54927 0.71024 0.65996 0.0
C172 C 0.5653 0.76189 0.66397 0.0
C173 C 0.52553 0.77554 0.6733 0.0
C174 C 0.46851 0.73746 0.6776 0.0
C175 C 0.45311 0.68582 0.67401 0.0
C176 C 0.49349 0.6726 0.66605 0.0
C177 C 0.58827 0.53453 0.64424 0.0
C178 C 0.42393 0.51354 0.59427 0.0
C179 C 0.48621 0.41407 0.48518 0.0
C180 C 0.52226 0.39138 0.47995 0.0
C181 C 0.56319 0.41047 0.45112 0.0
C182 C 0.6005 0.39163 0.4497 0.0
C183 C 0.59733 0.35298 0.47657 0.0
C184 C 0.55519 0.33283 0.5042 0.0
C185 C 0.51778 0.35164 0.50563 0.0
C186 C 0.48641 0.57429 0.48593 0.0
C187 C 0.64963 0.59601 0.53684 0.0
O188 O 0.57781 0.68389 0.59702 0.0
O189 O 0.59528 0.66168 0.66823 0.0
O190 O 0.53887 0.52465 0.6164 0.0
O191 O 0.62964 0.58352 0.65015 0.0
O192 O 0.42859 0.4797 0.56798 0.0
O193 O 0.46611 0.56322 0.60393 0.0
O194 O 0.47825 0.41897 0.52882 0.0
O195 O 0.49658 0.45397 0.46403 0.0
O196 O 0.53551 0.58385 0.51405 0.0
O197 O 0.44504 0.52538 0.48 0.0
O198 O 0.64116 0.62916 0.55954 0.0
O199 O 0.61075 0.54554 0.53108 0.0
H200 H 0.60804 0.79146 0.65907 0.0
H201 H 0.53913 0.81582 0.6766 0.0
H202 H 0.40926 0.65527 0.676 0.0
H203 H 0.48046 0.63269 0.66358 0.0
H204 H 0.5674 0.44069 0.43037 0.0
H205 H 0.63215 0.40749 0.4277 0.0
H206 H 0.55242 0.30368 0.526 0.0
H207 H 0.48638 0.33602 0.52788 0.0
Pr208 Pr 0.03315 0.59685 0.03731 0.0
Pr209 Pr 0.05196 0.52833 0.1038 0.0
C210 C 0.98736 0.6299 0.9638 0.0
C211 C 0.92992 0.62702 0.95181 0.0
C212 C 0.89796 0.61763 0.98746 0.0
C213 C 0.84064 0.61 0.97518 0.0
C214 C 0.81449 0.61156 0.92698 0.0
C215 C 0.84649 0.62065 0.89126 0.0
C216 C 0.90381 0.6282 0.9036 0.0
C217 C 0.14734 0.64472 0.10332 0.0
C218 C 1.0031 0.60186 0.14417 0.0
C219 C 0.09431 0.49377 0.17801 0.0
C220 C 0.15032 0.4943 0.19126 0.0
C221 C 0.17488 0.48841 0.15404 0.0
C222 C 0.23228 0.4964 0.16641 0.0
C223 C 0.26608 0.51085 0.2161 0.0
C224 C 0.24156 0.51669 0.25334 0.0
C225 C 0.18386 0.50834 0.24095 0.0
C226 C 0.93817 0.4813 0.03759 0.0
C227 C 0.08208 0.52345 0.99668 0.0
O228 O 0.98198 0.58487 0.95816 0.0
O229 O 1.02719 0.66104 1.00482 0.0
O230 O 0.11855 0.59965 0.07863 0.0
O231 O 0.12 0.66902 0.09052 0.0
O232 O 0.03066 0.5766 0.15638 0.0
O233 O 0.99057 0.60833 0.09793 0.0
O234 O 0.10223 0.5398 0.18309 0.0
O235 O 0.05404 0.46293 0.137 0.0
O236 O 0.96699 0.52592 0.06307 0.0
O237 O 0.96561 0.45688 0.04916 0.0
O238 O 0.05425 0.54857 0.9848 0.0
O239 O 0.09493 0.51679 0.04296 0.0
H240 H 0.91696 0.6154 1.0246 0.0
H241 H 0.81668 0.6026 1.00319 0.0
H242 H 0.82749 0.62267 0.85395 0.0
H243 H 0.92748 0.63451 0.87547 0.0
H244 H 0.15039 0.479 0.11535 0.0
H245 H 0.25075 0.49225 0.13715 0.0
H246 H 0.26703 0.52765 0.29192 0.0
H247 H 0.16606 0.51417 0.27 0.0
C248 C 0.36849 0.39133 0.39823 0.0
C249 C 0.37077 0.36737 0.3557 0.0
C250 C 0.32942 0.36184 0.42595 0.0
C251 C 0.28869 0.30825 0.40989 0.0
H252 H 0.40003 0.43213 0.41242 0.0
H253 H 0.33353 0.38038 0.46147 0.0
S254 S 0.25887 0.23226 0.28979 0.0
N255 N 0.31601 0.29078 0.29084 0.0
N256 N 0.242 0.2354 0.34233 0.0
C257 C 0.28294 0.28604 0.36283 0.0
C258 C 0.32363 0.31579 0.33541 0.0
C259 C 0.43196 0.93498 0.84942 0.0
C260 C 0.36884 0.90804 0.83685 0.0
C261 C 0.46686 0.96223 0.89708 0.0
C262 C 0.4402 0.964 0.9344 0.0
H263 H 0.45475 0.93469 0.82208 0.0
H264 H 0.5153 0.982 0.90451 0.0
S265 S 0.2762 0.90046 0.91997 0.0
N266 N 0.28051 0.88472 0.86479 0.0
N267 N 0.34637 0.93692 0.95515 0.0
C268 C 0.37693 0.93762 0.92227 0.0
C269 C 0.34116 0.90963 0.87326 0.0
C270 C 0.53716 0.42076 0.7125 0.0
C271 C 0.59095 0.42974 0.7438 0.0
C272 C 0.53729 0.45439 0.68001 0.0
C273 C 0.59132 0.49894 0.67785 0.0
H274 H 0.49434 0.38737 0.71314 0.0
H275 H 0.49433 0.44563 0.6569 0.0
S276 S 0.74495 0.53822 0.75073 0.0
N277 N 0.70004 0.48456 0.76923 0.0
N278 N 0.70053 0.54909 0.70928 0.0
C279 C 0.6457 0.50812 0.70882 0.0
C280 C 0.64548 0.47319 0.74153 0.0
C281 C 0.97845 0.63205 0.26879 0.0
C282 C 0.94693 0.65726 0.25753 0.0
C283 C 0.99717 0.61518 0.23246 0.0
C284 C 0.98473 0.6222 0.18285 0.0
H285 H 0.98727 0.62388 0.30571 0.0
H286 H 1.0206 0.5955 0.24331 0.0
S287 S 0.90334 0.68667 0.1345 0.0
N288 N 0.90438 0.68876 0.19346 0.0
N289 N 0.93914 0.65777 0.12557 0.0
C290 C 0.95397 0.64832 0.17159 0.0
C291 C 0.93514 0.66551 0.20868 0.0
C292 C 0.47169 0.33266 0.21997 0.0
C293 C 0.49941 0.34513 0.27111 0.0
C294 C 0.45769 0.28703 0.19179 0.0
C295 C 0.47109 0.25249 0.21394 0.0
H296 H 0.45672 0.35637 0.20236 0.0
H297 H 0.43334 0.27742 0.15302 0.0
S298 S 0.55283 0.27248 0.34502 0.0
N299 N 0.54533 0.32273 0.34184 0.0
N300 N 0.52135 0.2377 0.2886 0.0
C301 C 0.50302 0.2667 0.26435 0.0
C302 C 0.51665 0.3129 0.29303 0.0
C303 C 0.22381 0.98495 0.66403 0.0
C304 C 0.19226 0.93721 0.67903 0.0
C305 C 0.19872 0.01537 0.65494 0.0
C306 C 0.1409 0.99867 0.66005 0.0
H307 H 0.26673 0.99763 0.65679 0.0
H308 H 0.22334 0.05056 0.64083 0.0
S309 S 0.0439 0.87873 0.70459 0.0
N310 N 0.10362 0.87647 0.70316 0.0
N311 N 0.05604 0.93324 0.68648 0.0
C312 C 0.11102 0.95244 0.67853 0.0
C313 C 0.13677 0.92168 0.68777 0.0
C314 C 0.79167 0.4612 0.96072 0.0
C315 C 0.76971 0.417 0.92563 0.0
C316 C 0.84792 0.48344 0.99566 0.0
C317 C 0.88314 0.46157 0.99681 0.0
H318 H 0.76315 0.47584 0.96387 0.0
H319 H 0.86203 0.51577 1.02389 0.0
S320 S 0.84921 0.351 0.90744 0.0
N321 N 0.79008 0.35626 0.88993 0.0
N322 N 0.8957 0.39779 0.95568 0.0
C323 C 0.8638 0.42018 0.95923 0.0
C324 C 0.80709 0.39808 0.92342 0.0
C325 C 0.76393 0.68793 0.47374 0.0
C326 C 0.78765 0.66032 0.45693 0.0
C327 C 0.72157 0.66721 0.50081 0.0
C328 C 0.69851 0.61687 0.5113 0.0
H329 H 0.7777 0.72613 0.46557 0.0
H330 H 0.70538 0.6908 0.51225 0.0
S331 S 0.74332 0.52669 0.47524 0.0
N332 N 0.78457 0.5792 0.45355 0.0
N333 N 0.70168 0.539 0.50189 0.0
C334 C 0.72027 0.58786 0.49388 0.0
C335 C 0.76518 0.60972 0.4672 0.0
C336 C 0.43318 0.5719 0.27415 0.0
C337 C 0.44124 0.53174 0.26108 0.0
C338 C 0.3763 0.56543 0.25857 0.0
C339 C 0.32646 0.51869 0.22926 0.0
H340 H 0.47041 0.60767 0.2975 0.0
H341 H 0.371 0.59673 0.27008 0.0
S342 S 0.32585 0.40247 0.18504 0.0
N343 N 0.39634 0.44456 0.2169 0.0
N344 N 0.28934 0.43218 0.18736 0.0
C345 C 0.33484 0.479 0.21475 0.0
C346 C 0.39247 0.48562 0.23076 0.0
C347 C 0.58706 0.26763 0.98692 0.0
C348 C 0.59164 0.25844 0.93914 0.0
C349 C 0.57994 0.23217 1.01907 0.0
C350 C 0.57798 0.18645 1.00494 0.0
H351 H 0.5916 0.3036 1.00025 0.0
H352 H 0.57728 0.2413 0.05569 0.0
S353 S 0.58774 0.14449 0.88335 0.0
N354 N 0.59321 0.20045 0.87896 0.0
N355 N 0.57983 0.13359 0.93904 0.0
C356 C 0.58122 0.17635 0.95673 0.0
C357 C 0.58805 0.21238 0.92395 0.0
C358 C 0.9863 0.84736 0.48719 0.0
C359 C 0.95624 0.82646 0.43646 0.0
C360 C 1.00534 0.89806 0.50761 0.0
C361 C 0.99618 0.9309 0.47826 0.0
H362 H 0.99224 0.82316 0.51194 0.0
H363 H 1.02663 0.91128 0.54707 0.0
S364 S 0.92344 0.89694 0.34292 0.0
N365 N 0.92042 0.84387 0.35713 0.0
N366 N 0.95811 0.93971 0.39502 0.0
C367 C 0.96922 0.91169 0.42704 0.0
C368 C 0.94905 0.85957 0.4063 0.0
C369 C 0.38121 0.80434 0.66676 0.0
C370 C 0.3509 0.78782 0.70345 0.0
C371 C 0.4177 0.78663 0.65767 0.0
C372 C 0.42508 0.75168 0.68486 0.0
H373 H 0.37948 0.83338 0.64691 0.0
H374 H 0.44146 0.80141 0.62989 0.0
S375 S 0.35035 0.69319 0.78191 0.0
N376 N 0.32645 0.73169 0.76439 0.0
N377 N 0.39535 0.69857 0.74782 0.0
C378 C 0.39205 0.73258 0.71968 0.0
C379 C 0.355 0.75071 0.72891 0.0
C380 C 0.7097 0.73713 0.73824 0.0
C381 C 0.67601 0.7452 0.76557 0.0
C382 C 0.74508 0.77487 0.71347 0.0
C383 C 0.7488 0.8224 0.71556 0.0
H384 H 0.70706 0.70055 0.73431 0.0
H385 H 0.7687 0.76633 0.69165 0.0
S386 S 0.67828 0.86694 0.78844 0.0
N387 N 0.65505 0.80742 0.79804 0.0
N388 N 0.72119 0.87808 0.75081 0.0
C389 C 0.71777 0.83219 0.7444 0.0
C390 C 0.68166 0.79376 0.7697 0.0
C391 C 0.69628 0.18863 0.30403 0.0
C392 C 0.75797 0.20703 0.31497 0.0
C393 C 0.65977 0.17058 0.2552 0.0
C394 C 0.68347 0.17011 0.21528 0.0
H395 H 0.67521 0.18537 0.33357 0.0
H396 H 0.61203 0.15457 0.24906 0.0
S397 S 0.84447 0.22237 0.22398 0.0
N398 N 0.84288 0.23006 0.28193 0.0
N399 N 0.77423 0.19557 0.18989 0.0
C400 C 0.74601 0.19211 0.2255 0.0
C401 C 0.78325 0.21053 0.27539 0.0
C402 C 0.44183 0.65312 0.4051 0.0
C403 C 0.48922 0.67718 0.38283 0.0
C404 C 0.43961 0.61823 0.43732 0.0
C405 C 0.48513 0.60703 0.44859 0.0
H406 H 0.40708 0.66206 0.3984 0.0
H407 H 0.40326 0.60127 0.4547 0.0
S408 S 0.6146 0.65569 0.39495 0.0
N409 N 0.57972 0.68454 0.37127 0.0
N410 N 0.57565 0.61936 0.43107 0.0
C411 C 0.53131 0.6296 0.42493 0.0
C412 C 0.53339 0.6647 0.39233 0.0
C413 C 0.09867 0.49015 0.86925 0.0
C414 C 0.13476 0.46891 0.87941 0.0
C415 C 0.08144 0.50676 0.90694 0.0
C416 C 0.09967 0.50336 0.95703 0.0
H417 H 0.08491 0.49538 0.83191 0.0
H418 H 0.05419 0.52323 0.89659 0.0
S419 S 0.19467 0.45014 1.00331 0.0
N420 N 0.18807 0.44513 0.94327 0.0
N421 N 0.15586 0.47562 1.01375 0.0
C422 C 0.13508 0.48121 0.9674 0.0
C423 C 0.15262 0.46436 0.92886 0.0
C424 C 0.59649 0.78171 0.93098 0.0
C425 C 0.55302 0.76625 0.88556 0.0
C426 C 0.63067 0.83336 0.9553 0.0
C427 C 0.62249 0.87129 0.93487 0.0
H428 H 0.60444 0.75374 0.94773 0.0
H429 H 0.66364 0.84365 0.99045 0.0
S430 S 0.51453 0.8495 0.81528 0.0
N431 N 0.50476 0.79205 0.81971 0.0
N432 N 0.56703 0.88907 0.86595 0.0
C433 C 0.57936 0.85603 0.88883 0.0
C434 C 0.545 0.80341 0.86402 0.0
C435 C 0.85869 0.12879 0.47021 0.0
C436 C 0.88326 0.16894 0.4435 0.0
C437 C 0.8876 0.10269 0.48632 0.0
C438 C 0.94276 0.11646 0.47703 0.0
H439 H 0.81721 0.11804 0.47936 0.0
H440 H 0.86777 0.07309 0.50812 0.0
S441 S 1.02401 0.21785 0.40638 0.0
N442 N 0.96378 0.21992 0.40622 0.0
N443 N 1.01931 0.17173 0.43734 0.0
C444 C 0.96684 0.15571 0.44901 0.0
C445 C 0.93679 0.18176 0.43202 0.0
C446 C 0.29385 0.66464 0.18096 0.0
C447 C 0.31965 0.71261 0.21164 0.0
C448 C 0.23652 0.64153 0.1473 0.0
C449 C 0.20394 0.66617 0.14302 0.0
H450 H 0.31982 0.64689 0.18036 0.0
H451 H 0.21917 0.60565 0.12268 0.0
S452 S 0.24807 0.78752 0.22165 0.0
N453 N 0.3055 0.78023 0.2407 0.0
N454 N 0.19815 0.73726 0.17729 0.0
C455 C 0.22729 0.71184 0.17651 0.0
C456 C 0.28508 0.7349 0.21099 0.0
C457 C 0.34606 0.49948 0.69618 0.0
C458 C 0.28674 0.45747 0.67457 0.0
C459 C 0.38924 0.51824 0.66926 0.0
C460 C 0.37529 0.49563 0.61968 0.0
H461 H 0.36014 0.51658 0.73483 0.0
H462 H 0.4348 0.54923 0.68833 0.0
S463 S 0.22502 0.38963 0.54338 0.0
N464 N 0.21485 0.39816 0.598 0.0
N465 N 0.29694 0.43177 0.54896 0.0
C466 C 0.31586 0.45506 0.597 0.0
C467 C 0.27144 0.43661 0.62393 0.0
C468 C 0.66364 0.57998 0.84912 0.0
C469 C 0.65707 0.6174 0.87253 0.0
C470 C 0.71197 0.57457 0.86984 0.0
C471 C 0.75561 0.60708 0.91388 0.0
H472 H 0.63462 0.55824 0.81256 0.0
H473 H 0.71786 0.54755 0.84956 0.0
S474 S 0.75353 0.70641 0.99204 0.0
N475 N 0.69321 0.68294 0.94449 0.0
N476 N 0.78519 0.67378 0.983 0.0
C477 C 0.74603 0.641 0.93997 0.0
C478 C 0.69633 0.64595 0.91924 0.0
C479 C 0.50934 0.91199 0.21575 0.0
C480 C 0.50727 0.86613 0.2024 0.0
C481 C 0.52288 0.94953 0.18514 0.0
C482 C 0.53389 0.94217 0.13964 0.0
H483 H 0.49806 0.91791 0.24915 0.0
H484 H 0.52325 0.98397 0.19665 0.0
S485 S 0.53417 0.82832 0.08838 0.0
N486 N 0.51791 0.81551 0.14141 0.0
N487 N 0.54306 0.88543 0.08366 0.0
C488 C 0.53297 0.8967 0.12646 0.0
C489 C 0.51968 0.85884 0.15785 0.0
C490 C 0.14148 0.26306 0.73687 0.0
C491 C 0.12847 0.2952 0.70938 0.0
C492 C 0.12198 0.2124 0.715 0.0
C493 C 0.09028 0.19255 0.66444 0.0
H494 H 0.17007 0.27827 0.77457 0.0
H495 H 0.13431 0.18955 0.73724 0.0
S496 S 0.04078 0.25982 0.57745 0.0
N497 N 0.07784 0.30187 0.63 0.0
N498 N 0.04287 0.20814 0.58881 0.0
C499 C 0.07475 0.22357 0.63731 0.0
C500 C 0.09329 0.27434 0.6598 0.0
C501 C 0.74376 0.35812 0.48885 0.0
C502 C 0.72495 0.30571 0.48271 0.0
C503 C 0.70196 0.37297 0.48621 0.0
C504 C 0.6401 0.33581 0.47764 0.0
H505 H 0.79108 0.38783 0.49623 0.0
H506 H 0.71839 0.4139 0.49196 0.0
S507 S 0.56872 0.19315 0.45667 0.0
N508 N 0.64134 0.21645 0.46602 0.0
N509 N 0.56234 0.24402 0.46123 0.0
C510 C 0.62097 0.28309 0.47095 0.0
C511 C 0.66358 0.26811 0.47331 0.0
loop_
_geom_bond_atom_site_label_1
_geom_bond_atom_site_label_2
_geom_bond_distance
_geom_bond_site_symmetry_2
_ccdc_geom_bond_type
H0 C3 0.929 . S
H1 C6 0.929 . S
H2 C8 0.930 . S
C3 H0 0.929 . S
C3 C4 1.398 . S
C3 C5 1.396 . S
C4 C3 1.398 . S
C4 C8 1.407 . S
C5 C3 1.396 . S
C5 C6 1.394 . S
C6 H1 0.929 . S
C6 C5 1.394 . S
C6 C7 1.382 . S
C7 C6 1.382 . S
C7 C8 1.392 . S
C7 N9 1.420 . S
C8 H2 0.930 . S
C8 C4 1.407 . S
C8 C7 1.392 . S
N9 C7 1.420 . S
N9 C10 1.244 . S
C10 N9 1.244 . S
H11 C14 0.929 . S
H12 C17 0.929 . S
H13 C19 0.930 . S
C14 H11 0.929 . S
C14 C15 1.398 . S
C14 C16 1.396 . S
C15 C14 1.398 . S
C15 C19 1.407 . S
C16 C14 1.396 . S
C16 C17 1.394 . S
C17 H12 0.929 . S
C17 C16 1.394 . S
C17 C18 1.382 . S
C18 C17 1.382 . S
C18 C19 1.392 . S
C18 N20 1.420 . S
C19 H13 0.930 . S
C19 C15 1.407 . S
C19 C18 1.392 . S
N20 C18 1.420 . S
N20 C21 1.244 . S
C21 N20 1.244 . S
H22 C25 0.929 . S
H23 C28 0.929 . S
H24 C30 0.930 . S
C25 H22 0.929 . S
C25 C26 1.398 . S
C25 C27 1.396 . S
C26 C25 1.398 . S
C26 C30 1.407 . S
C27 C25 1.396 . S
C27 C28 1.394 . S
C28 H23 0.929 . S
C28 C27 1.394 . S
C28 C29 1.382 . S
C29 C28 1.382 . S
C29 C30 1.392 . S
C29 N31 1.420 . S
C30 H24 0.930 . S
C30 C26 1.407 . S
C30 C29 1.392 . S
N31 C29 1.420 . S
N31 C32 1.244 . S
C32 N31 1.244 . S
H33 C36 0.929 . S
H34 C39 0.929 . S
H35 C41 0.930 . S
C36 H33 0.929 . S
C36 C37 1.398 . S
C36 C38 1.396 . S
C37 C36 1.398 . S
C37 C41 1.407 . S
C38 C36 1.396 . S
C38 C39 1.394 . S
C39 H34 0.929 . S
C39 C38 1.394 . S
C39 C40 1.382 . S
C40 C39 1.382 . S
C40 C41 1.392 . S
C40 N42 1.420 . S
C41 H35 0.930 . S
C41 C37 1.407 . S
C41 C40 1.392 . S
N42 C40 1.420 . S
N42 C43 1.244 . S
C43 N42 1.244 . S
H44 C47 0.929 . S
H45 C50 0.929 . S
H46 C52 0.930 . S
C47 H44 0.929 . S
C47 C48 1.398 . S
C47 C49 1.396 . S
C48 C47 1.398 . S
C48 C52 1.407 . S
C49 C47 1.396 . S
C49 C50 1.394 . S
C50 H45 0.929 . S
C50 C49 1.394 . S
C50 C51 1.382 . S
C51 C50 1.382 . S
C51 C52 1.392 . S
C51 N53 1.420 . S
C52 H46 0.930 . S
C52 C48 1.407 . S
C52 C51 1.392 . S
N53 C51 1.420 . S
N53 C54 1.244 . S
C54 N53 1.244 . S
H55 C58 0.929 . S
H56 C61 0.929 . S
H57 C63 0.930 . S
C58 H55 0.929 . S
C58 C59 1.398 . S
C58 C60 1.396 . S
C59 C58 1.398 . S
C59 C63 1.407 . S
C60 C58 1.396 . S
C60 C61 1.394 . S
C61 H56 0.929 . S
C61 C60 1.394 . S
C61 C62 1.382 . S
C62 C61 1.382 . S
C62 C63 1.392 . S
C62 N64 1.420 . S
C63 H57 0.930 . S
C63 C59 1.407 . S
C63 C62 1.392 . S
N64 C62 1.420 . S
N64 C65 1.244 . S
C65 N64 1.244 . S
H66 C69 0.929 . S
H67 C72 0.929 . S
H68 C74 0.930 . S
C69 H66 0.929 . S
C69 C70 1.398 . S
C69 C71 1.396 . S
C70 C69 1.398 . S
C70 C74 1.407 . S
C71 C69 1.396 . S
C71 C72 1.394 . S
C72 H67 0.929 . S
C72 C71 1.394 . S
C72 C73 1.382 . S
C73 C72 1.382 . S
C73 C74 1.392 . S
C73 N75 1.420 . S
C74 H68 0.930 . S
C74 C70 1.407 . S
C74 C73 1.392 . S
N75 C73 1.420 . S
N75 C76 1.244 . S
C76 N75 1.244 . S
H77 C80 0.929 . S
H78 C83 0.929 . S
H79 C85 0.930 . S
C80 H77 0.929 . S
C80 C81 1.398 . S
C80 C82 1.396 . S
C81 C80 1.398 . S
C81 C85 1.407 . S
C82 C80 1.396 . S
C82 C83 1.394 . S
C83 H78 0.929 . S
C83 C82 1.394 . S
C83 C84 1.382 . S
C84 C83 1.382 . S
C84 C85 1.392 . S
C84 N86 1.420 . S
C85 H79 0.930 . S
C85 C81 1.407 . S
C85 C84 1.392 . S
N86 C84 1.420 . S
N86 C87 1.244 . S
C87 N86 1.244 . S
Pr88 C90 2.880 . S
Pr88 O108 2.562 . S
Pr88 O109 2.490 . S
Pr88 O110 2.695 1_665 S
Pr88 O111 2.512 1_665 S
Pr88 O113 2.437 1_655 S
Pr88 O116 2.436 . S
Pr88 O118 2.438 1_565 S
Pr89 C99 2.880 . S
Pr89 O110 2.436 . S
Pr89 O112 2.438 1_545 S
Pr89 O114 2.562 . S
Pr89 O115 2.490 . S
Pr89 O116 2.695 1_445 S
Pr89 O117 2.512 1_545 S
Pr89 O119 2.437 . S
C90 Pr88 2.880 . S
C90 C91 1.491 . S
C90 O108 1.254 . S
C90 O109 1.225 . S
C91 C90 1.491 . S
C91 C92 1.392 . S
C91 C96 1.356 . S
C92 C91 1.392 . S
C92 C93 1.368 . S
C92 H120 0.929 . S
C93 C92 1.368 . S
C93 C94 1.386 . S
C93 H121 0.929 . S
C94 C93 1.386 . S
C94 C95 1.373 . S
C95 C94 1.373 . S
C95 C96 1.409 . S
C95 H122 0.931 . S
C96 C91 1.356 . S
C96 C95 1.409 . S
C96 H123 0.930 . S
C97 O110 1.270 . S
C97 O111 1.248 . S
C98 O112 1.267 . S
C98 O113 1.278 . S
C99 Pr89 2.880 . S
C99 C100 1.491 . S
C99 O114 1.254 . S
C99 O115 1.225 . S
C100 C99 1.491 . S
C100 C101 1.392 . S
C100 C105 1.356 . S
C101 C100 1.392 . S
C101 C102 1.368 . S
C101 H124 0.929 . S
C102 C101 1.368 . S
C102 C103 1.386 . S
C102 H125 0.929 . S
C103 C102 1.386 . S
C103 C104 1.373 . S
C104 C103 1.373 . S
C104 C105 1.409 . S
C104 H126 0.931 . S
C105 C100 1.356 . S
C105 C104 1.409 . S
C105 H127 0.930 . S
C106 O116 1.270 . S
C106 O117 1.248 1_655 S
C107 O118 1.267 . S
C107 O119 1.278 1_655 S
O108 Pr88 2.562 . S
O108 C90 1.254 . S
O109 Pr88 2.490 . S
O109 C90 1.225 . S
O110 Pr88 2.695 1_445 S
O110 Pr89 2.436 . S
O110 C97 1.270 . S
O111 Pr88 2.512 1_445 S
O111 C97 1.248 . S
O112 Pr89 2.438 1_565 S
O112 C98 1.267 . S
O113 Pr88 2.437 1_455 S
O113 C98 1.278 . S
O114 Pr89 2.562 . S
O114 C99 1.254 . S
O115 Pr89 2.490 . S
O115 C99 1.225 . S
O116 Pr88 2.436 . S
O116 Pr89 2.695 1_665 S
O116 C106 1.270 . S
O117 Pr89 2.512 1_565 S
O117 C106 1.248 1_455 S
O118 Pr88 2.438 1_545 S
O118 C107 1.267 . S
O119 Pr89 2.437 . S
O119 C107 1.278 1_455 S
H120 C92 0.929 . S
H121 C93 0.929 . S
H122 C95 0.931 . S
H123 C96 0.930 . S
H124 C101 0.929 . S
H125 C102 0.929 . S
H126 C104 0.931 . S
H127 C105 0.930 . S
Pr128 C130 2.880 . S
Pr128 O148 2.562 . S
Pr128 O149 2.490 . S
Pr128 O150 2.695 . S
Pr128 O151 2.512 . S
Pr128 O153 2.437 . S
Pr128 O156 2.436 1_545 S
Pr128 O158 2.438 1_544 S
Pr129 C139 2.880 1_554 S
Pr129 O150 2.436 1_565 S
Pr129 O152 2.438 1_565 S
Pr129 O154 2.562 1_554 S
Pr129 O155 2.490 . S
Pr129 O156 2.695 . S
Pr129 O157 2.512 . S
Pr129 O159 2.437 1_554 S
C130 Pr128 2.880 . S
C130 C131 1.491 . S
C130 O148 1.254 . S
C130 O149 1.225 . S
C131 C130 1.491 . S
C131 C132 1.392 . S
C131 C136 1.356 . S
C132 C131 1.392 . S
C132 C133 1.368 . S
C132 H160 0.929 . S
C133 C132 1.368 . S
C133 C134 1.386 . S
C133 H161 0.929 . S
C134 C133 1.386 . S
C134 C135 1.373 . S
C135 C134 1.373 . S
C135 C136 1.409 . S
C135 H162 0.931 . S
C136 C131 1.356 . S
C136 C135 1.409 . S
C136 H163 0.930 . S
C137 O150 1.264 1_556 S
C137 O151 1.243 1_556 S
C138 O152 1.267 . S
C138 O153 1.278 . S
C139 Pr129 2.880 1_556 S
C139 C140 1.491 . S
C139 O154 1.254 . S
C139 O155 1.225 1_556 S
C140 C139 1.491 . S
C140 C141 1.392 . S
C140 C145 1.356 . S
C141 C140 1.392 . S
C141 C142 1.368 . S
C141 H164 0.929 . S
C142 C141 1.368 . S
C142 C143 1.386 . S
C142 H165 0.929 . S
C143 C142 1.386 . S
C143 C144 1.373 . S
C144 C143 1.373 . S
C144 C145 1.409 . S
C144 H166 0.931 . S
C145 C140 1.356 . S
C145 C144 1.409 . S
C145 H167 0.930 . S
C146 O156 1.270 . S
C146 O157 1.248 . S
C147 O158 1.267 . S
C147 O159 1.278 . S
O148 Pr128 2.562 . S
O148 C130 1.254 . S
O149 Pr128 2.490 . S
O149 C130 1.225 . S
O150 Pr128 2.695 . S
O150 Pr129 2.436 1_545 S
O150 C137 1.264 1_554 S
O151 Pr128 2.512 . S
O151 C137 1.243 1_554 S
O152 Pr129 2.438 1_545 S
O152 C138 1.267 . S
O153 Pr128 2.437 . S
O153 C138 1.278 . S
O154 Pr129 2.562 1_556 S
O154 C139 1.254 . S
O155 Pr129 2.490 . S
O155 C139 1.225 1_554 S
O156 Pr128 2.436 1_565 S
O156 Pr129 2.695 . S
O156 C146 1.270 . S
O157 Pr129 2.512 . S
O157 C146 1.248 . S
O158 Pr128 2.438 1_566 S
O158 C147 1.267 . S
O159 Pr129 2.437 1_556 S
O159 C147 1.278 . S
H160 C132 0.929 . S
H161 C133 0.929 . S
H162 C135 0.931 . S
H163 C136 0.930 . S
H164 C141 0.929 . S
H165 C142 0.929 . S
H166 C144 0.931 . S
H167 C145 0.930 . S
Pr168 C170 2.880 . S
Pr168 O188 2.562 . S
Pr168 O189 2.490 . S
Pr168 O190 2.695 . S
Pr168 O191 2.512 . S
Pr168 O193 2.437 . S
Pr168 O196 2.436 . S
Pr168 O198 2.438 . S
Pr169 C179 2.880 . S
Pr169 O190 2.436 . S
Pr169 O192 2.438 . S
Pr169 O194 2.562 . S
Pr169 O195 2.490 . S
Pr169 O196 2.695 . S
Pr169 O197 2.512 . S
Pr169 O199 2.437 . S
C170 Pr168 2.880 . S
C170 C171 1.491 . S
C170 O188 1.254 . S
C170 O189 1.225 . S
C171 C170 1.491 . S
C171 C172 1.392 . S
C171 C176 1.356 . S
C172 C171 1.392 . S
C172 C173 1.368 . S
C172 H200 0.929 . S
C173 C172 1.368 . S
C173 C174 1.386 . S
C173 H201 0.929 . S
C174 C173 1.386 . S
C174 C175 1.373 . S
C175 C174 1.373 . S
C175 C176 1.409 . S
C175 H202 0.931 . S
C176 C171 1.356 . S
C176 C175 1.409 . S
C176 H203 0.930 . S
C177 O190 1.270 . S
C177 O191 1.248 . S
C178 O192 1.267 . S
C178 O193 1.278 . S
C179 Pr169 2.880 . S
C179 C180 1.491 . S
C179 O194 1.254 . S
C179 O195 1.225 . S
C180 C179 1.491 . S
C180 C181 1.392 . S
C180 C185 1.356 . S
C181 C180 1.392 . S
C181 C182 1.368 . S
C181 H204 0.929 . S
C182 C181 1.368 . S
C182 C183 1.386 . S
C182 H205 0.929 . S
C183 C182 1.386 . S
C183 C184 1.373 . S
C184 C183 1.373 . S
C184 C185 1.409 . S
C184 H206 0.931 . S
C185 C180 1.356 . S
C185 C184 1.409 . S
C185 H207 0.930 . S
C186 O196 1.270 . S
C186 O197 1.248 . S
C187 O198 1.267 . S
C187 O199 1.278 . S
O188 Pr168 2.562 . S
O188 C170 1.254 . S
O189 Pr168 2.490 . S
O189 C170 1.225 . S
O190 Pr168 2.695 . S
O190 Pr169 2.436 . S
O190 C177 1.270 . S
O191 Pr168 2.512 . S
O191 C177 1.248 . S
O192 Pr169 2.438 . S
O192 C178 1.267 . S
O193 Pr168 2.437 . S
O193 C178 1.278 . S
O194 Pr169 2.562 . S
O194 C179 1.254 . S
O195 Pr169 2.490 . S
O195 C179 1.225 . S
O196 Pr168 2.436 . S
O196 Pr169 2.695 . S
O196 C186 1.270 . S
O197 Pr169 2.512 . S
O197 C186 1.248 . S
O198 Pr168 2.438 . S
O198 C187 1.267 . S
O199 Pr169 2.437 . S
O199 C187 1.278 . S
H200 C172 0.929 . S
H201 C173 0.929 . S
H202 C175 0.931 . S
H203 C176 0.930 . S
H204 C181 0.929 . S
H205 C182 0.929 . S
H206 C184 0.931 . S
H207 C185 0.930 . S
Pr208 C210 2.880 1_455 S
Pr208 O228 2.562 1_455 S
Pr208 O229 2.490 . S
Pr208 O230 2.695 1_556 S
Pr208 O231 2.512 1_556 S
Pr208 O233 2.437 1_556 S
Pr208 O236 2.436 1_455 S
Pr208 O238 2.438 . S
Pr209 C219 2.880 . S
Pr209 O230 2.436 . S
Pr209 O232 2.448 . S
Pr209 O234 2.562 . S
Pr209 O235 2.490 . S
Pr209 O236 2.695 1_454 S
Pr209 O237 2.512 1_454 S
Pr209 O239 2.437 1_554 S
C210 Pr208 2.880 1_655 S
C210 C211 1.491 . S
C210 O228 1.254 . S
C210 O229 1.225 1_655 S
C211 C210 1.491 . S
C211 C212 1.392 . S
C211 C216 1.356 . S
C212 C211 1.392 . S
C212 C213 1.368 . S
C212 H240 0.929 1_655 S
C213 C212 1.368 . S
C213 C214 1.386 . S
C213 H241 0.929 . S
C214 C213 1.386 . S
C214 C215 1.373 . S
C215 C214 1.373 . S
C215 C216 1.409 . S
C215 H242 0.931 . S
C216 C211 1.356 . S
C216 C215 1.409 . S
C216 H243 0.930 . S
C217 O230 1.270 . S
C217 O231 1.248 . S
C218 O232 1.260 1_655 S
C218 O233 1.278 1_655 S
C219 Pr209 2.880 . S
C219 C220 1.491 . S
C219 O234 1.254 . S
C219 O235 1.225 . S
C220 C219 1.491 . S
C220 C221 1.392 . S
C220 C225 1.356 . S
C221 C220 1.392 . S
C221 C222 1.368 . S
C221 H244 0.929 . S
C222 C221 1.368 . S
C222 C223 1.386 . S
C222 H245 0.929 . S
C223 C222 1.386 . S
C223 C224 1.373 . S
C224 C223 1.373 . S
C224 C225 1.409 . S
C224 H246 0.931 . S
C225 C220 1.356 . S
C225 C224 1.409 . S
C225 H247 0.930 . S
C226 O236 1.270 . S
C226 O237 1.248 . S
C227 O238 1.267 . S
C227 O239 1.278 . S
O228 Pr208 2.562 1_655 S
O228 C210 1.254 . S
O229 Pr208 2.490 . S
O229 C210 1.225 1_455 S
O230 Pr208 2.695 1_554 S
O230 Pr209 2.436 . S
O230 C217 1.270 . S
O231 Pr208 2.512 1_554 S
O231 C217 1.248 . S
O232 Pr209 2.448 . S
O232 C218 1.260 1_455 S
O233 Pr208 2.437 1_554 S
O233 C218 1.278 1_455 S
O234 Pr209 2.562 . S
O234 C219 1.254 . S
O235 Pr209 2.490 . S
O235 C219 1.225 . S
O236 Pr208 2.436 1_655 S
O236 Pr209 2.695 1_656 S
O236 C226 1.270 . S
O237 Pr209 2.512 1_656 S
O237 C226 1.248 . S
O238 Pr208 2.438 . S
O238 C227 1.267 . S
O239 Pr209 2.437 1_556 S
O239 C227 1.278 . S
H240 C212 0.929 1_455 S
H241 C213 0.929 . S
H242 C215 0.931 . S
H243 C216 0.930 . S
H244 C221 0.929 . S
H245 C222 0.929 . S
H246 C224 0.931 . S
H247 C225 0.930 . S
C248 C249 1.369 . S
C248 C250 1.419 . S
C248 H252 0.930 . S
C249 C248 1.369 . S
C249 C258 1.429 . S
C250 C248 1.419 . S
C250 C251 1.363 . S
C250 H253 0.929 . S
C251 C250 1.363 . S
C251 C257 1.428 . S
H252 C248 0.930 . S
H253 C250 0.929 . S
S254 N255 1.613 . S
S254 N256 1.610 . S
N255 S254 1.613 . S
N255 C258 1.350 . S
N256 S254 1.610 . S
N256 C257 1.351 . S
C257 C251 1.428 . S
C257 N256 1.351 . S
C257 C258 1.434 . S
C258 C249 1.429 . S
C258 N255 1.350 . S
C258 C257 1.434 . S
C259 C260 1.369 . S
C259 C261 1.419 . S
C259 H263 0.930 . S
C260 C259 1.369 . S
C260 C269 1.429 . S
C261 C259 1.419 . S
C261 C262 1.363 . S
C261 H264 0.929 . S
C262 C261 1.363 . S
C262 C268 1.428 . S
H263 C259 0.930 . S
H264 C261 0.929 . S
S265 N266 1.613 . S
S265 N267 1.610 . S
N266 S265 1.613 . S
N266 C269 1.350 . S
N267 S265 1.610 . S
N267 C268 1.351 . S
C268 C262 1.428 . S
C268 N267 1.351 . S
C268 C269 1.434 . S
C269 C260 1.429 . S
C269 N266 1.350 . S
C269 C268 1.434 . S
C270 C271 1.369 . S
C270 C272 1.419 . S
C270 H274 0.930 . S
C271 C270 1.369 . S
C271 C280 1.429 . S
C272 C270 1.419 . S
C272 C273 1.363 . S
C272 H275 0.929 . S
C273 C272 1.363 . S
C273 C279 1.428 . S
H274 C270 0.930 . S
H275 C272 0.929 . S
S276 N277 1.613 . S
S276 N278 1.610 . S
N277 S276 1.613 . S
N277 C280 1.350 . S
N278 S276 1.610 . S
N278 C279 1.351 . S
C279 C273 1.428 . S
C279 N278 1.351 . S
C279 C280 1.434 . S
C280 C271 1.429 . S
C280 N277 1.350 . S
C280 C279 1.434 . S
C281 C282 1.369 . S
C281 C283 1.419 . S
C281 H285 0.930 . S
C282 C281 1.369 . S
C282 C291 1.429 . S
C283 C281 1.419 . S
C283 C284 1.363 . S
C283 H286 0.929 . S
C284 C283 1.363 . S
C284 C290 1.428 . S
H285 C281 0.930 . S
H286 C283 0.929 . S
S287 N288 1.613 1_455 S
S287 N289 1.610 1_455 S
N288 S287 1.613 1_655 S
N288 C291 1.350 . S
N289 S287 1.610 1_655 S
N289 C290 1.351 . S
C290 C284 1.428 . S
C290 N289 1.351 . S
C290 C291 1.434 . S
C291 C282 1.429 . S
C291 N288 1.350 . S
C291 C290 1.434 . S
C292 C293 1.369 . S
C292 C294 1.419 . S
C292 H296 0.930 . S
C293 C292 1.369 . S
C293 C302 1.429 . S
C294 C292 1.419 . S
C294 C295 1.363 . S
C294 H297 0.929 . S
C295 C294 1.363 . S
C295 C301 1.428 . S
H296 C292 0.930 . S
H297 C294 0.929 . S
S298 N299 1.613 . S
S298 N300 1.610 . S
N299 S298 1.613 . S
N299 C302 1.350 . S
N300 S298 1.610 . S
N300 C301 1.351 . S
C301 C295 1.428 . S
C301 N300 1.351 . S
C301 C302 1.434 . S
C302 C293 1.429 . S
C302 N299 1.350 . S
C302 C301 1.434 . S
C303 C304 1.369 . S
C303 C305 1.419 . S
C303 H307 0.930 . S
C304 C303 1.369 . S
C304 C313 1.429 . S
C305 C303 1.419 . S
C305 C306 1.363 . S
C305 H308 0.929 . S
C306 C305 1.363 . S
C306 C312 1.428 . S
H307 C303 0.930 . S
H308 C305 0.929 . S
S309 N310 1.613 . S
S309 N311 1.610 . S
N310 S309 1.613 . S
N310 C313 1.350 1_655 S
N311 S309 1.610 . S
N311 C312 1.351 1_655 S
C312 C306 1.428 . S
C312 N311 1.351 1_455 S
C312 C313 1.434 . S
C313 C304 1.429 . S
C313 N310 1.350 1_455 S
C313 C312 1.434 . S
C314 C315 1.369 . S
C314 C316 1.419 . S
C314 H318 0.930 . S
C315 C314 1.369 . S
C315 C324 1.429 . S
C316 C314 1.419 . S
C316 C317 1.363 . S
C316 H319 0.929 . S
C317 C316 1.363 . S
C317 C323 1.428 . S
H318 C314 0.930 . S
H319 C316 0.929 . S
S320 N321 1.613 . S
S320 N322 1.610 . S
N321 S320 1.613 . S
N321 C324 1.350 . S
N322 S320 1.610 . S
N322 C323 1.351 . S
C323 C317 1.428 . S
C323 N322 1.351 . S
C323 C324 1.434 . S
C324 C315 1.429 . S
C324 N321 1.350 . S
C324 C323 1.434 . S
C325 C326 1.369 . S
C325 C327 1.419 . S
C325 H329 0.930 . S
C326 C325 1.369 . S
C326 C335 1.429 . S
C327 C325 1.419 . S
C327 C328 1.363 . S
C327 H330 0.929 . S
C328 C327 1.363 . S
C328 C334 1.428 . S
H329 C325 0.930 . S
H330 C327 0.929 . S
S331 N332 1.613 . S
S331 N333 1.610 . S
N332 S331 1.613 . S
N332 C335 1.350 . S
N333 S331 1.610 . S
N333 C334 1.351 . S
C334 C328 1.428 . S
C334 N333 1.351 . S
C334 C335 1.434 . S
C335 C326 1.429 . S
C335 N332 1.350 . S
C335 C334 1.434 . S
C336 C337 1.369 . S
C336 C338 1.419 . S
C336 H340 0.930 . S
C337 C336 1.369 . S
C337 C346 1.429 . S
C338 C336 1.419 . S
C338 C339 1.363 . S
C338 H341 0.929 . S
C339 C338 1.363 . S
C339 C345 1.428 . S
H340 C336 0.930 . S
H341 C338 0.929 . S
S342 N343 1.613 . S
S342 N344 1.610 . S
N343 S342 1.613 . S
N343 C346 1.350 . S
N344 S342 1.610 . S
N344 C345 1.351 . S
C345 C339 1.428 . S
C345 N344 1.351 . S
C345 C346 1.434 . S
C346 C337 1.429 . S
C346 N343 1.350 . S
C346 C345 1.434 . S
C347 C348 1.369 . S
C347 C349 1.419 . S
C347 H351 0.930 . S
C348 C347 1.369 . S
C348 C357 1.429 . S
C349 C347 1.419 . S
C349 C350 1.363 . S
C349 H352 0.953 . S
C350 C349 1.363 . S
C350 C356 1.428 . S
H351 C347 0.930 . S
H352 C349 0.953 . S
S353 N354 1.613 . S
S353 N355 1.610 . S
N354 S353 1.613 . S
N354 C357 1.350 . S
N355 S353 1.610 . S
N355 C356 1.351 . S
C356 C350 1.428 . S
C356 N355 1.351 . S
C356 C357 1.434 . S
C357 C348 1.429 . S
C357 N354 1.350 . S
C357 C356 1.434 . S
C358 C359 1.369 . S
C358 C360 1.419 . S
C358 H362 0.930 . S
C359 C358 1.369 . S
C359 C368 1.429 . S
C360 C358 1.419 . S
C360 C361 1.363 . S
C360 H363 0.929 . S
C361 C360 1.363 . S
C361 C367 1.428 . S
H362 C358 0.930 . S
H363 C360 0.929 . S
S364 N365 1.613 . S
S364 N366 1.610 . S
N365 S364 1.613 . S
N365 C368 1.350 . S
N366 S364 1.610 . S
N366 C367 1.351 . S
C367 C361 1.428 . S
C367 N366 1.351 . S
C367 C368 1.434 . S
C368 C359 1.429 . S
C368 N365 1.350 . S
C368 C367 1.434 . S
C369 C370 1.369 . S
C369 C371 1.419 . S
C369 H373 0.930 . S
C370 C369 1.369 . S
C370 C379 1.429 . S
C371 C369 1.419 . S
C371 C372 1.363 . S
C371 H374 0.929 . S
C372 C371 1.363 . S
C372 C378 1.428 . S
H373 C369 0.930 . S
H374 C371 0.929 . S
S375 N376 1.613 . S
S375 N377 1.610 . S
N376 S375 1.613 . S
N376 C379 1.350 . S
N377 S375 1.610 . S
N377 C378 1.351 . S
C378 C372 1.428 . S
C378 N377 1.351 . S
C378 C379 1.434 . S
C379 C370 1.429 . S
C379 N376 1.350 . S
C379 C378 1.434 . S
C380 C381 1.369 . S
C380 C382 1.419 . S
C380 H384 0.930 . S
C381 C380 1.369 . S
C381 C390 1.429 . S
C382 C380 1.419 . S
C382 C383 1.363 . S
C382 H385 0.929 . S
C383 C382 1.363 . S
C383 C389 1.428 . S
H384 C380 0.930 . S
H385 C382 0.929 . S
S386 N387 1.613 . S
S386 N388 1.610 . S
N387 S386 1.613 . S
N387 C390 1.350 . S
N388 S386 1.610 . S
N388 C389 1.351 . S
C389 C383 1.428 . S
C389 N388 1.351 . S
C389 C390 1.434 . S
C390 C381 1.429 . S
C390 N387 1.350 . S
C390 C389 1.434 . S
C391 C392 1.369 . S
C391 C393 1.419 . S
C391 H395 0.930 . S
C392 C391 1.369 . S
C392 C401 1.429 . S
C393 C391 1.419 . S
C393 C394 1.363 . S
C393 H396 0.929 . S
C394 C393 1.363 . S
C394 C400 1.428 . S
H395 C391 0.930 . S
H396 C393 0.929 . S
S397 N398 1.613 . S
S397 N399 1.610 . S
N398 S397 1.613 . S
N398 C401 1.350 . S
N399 S397 1.610 . S
N399 C400 1.351 . S
C400 C394 1.428 . S
C400 N399 1.351 . S
C400 C401 1.434 . S
C401 C392 1.429 . S
C401 N398 1.350 . S
C401 C400 1.434 . S
C402 C403 1.369 . S
C402 C404 1.419 . S
C402 H406 0.930 . S
C403 C402 1.369 . S
C403 C412 1.429 . S
C404 C402 1.419 . S
C404 C405 1.363 . S
C404 H407 0.929 . S
C405 C404 1.363 . S
C405 C411 1.428 . S
H406 C402 0.930 . S
H407 C404 0.929 . S
S408 N409 1.613 . S
S408 N410 1.610 . S
N409 S408 1.613 . S
N409 C412 1.350 . S
N410 S408 1.610 . S
N410 C411 1.351 . S
C411 C405 1.428 . S
C411 N410 1.351 . S
C411 C412 1.434 . S
C412 C403 1.429 . S
C412 N409 1.350 . S
C412 C411 1.434 . S
C413 C414 1.369 . S
C413 C415 1.419 . S
C413 H417 0.930 . S
C414 C413 1.369 . S
C414 C423 1.429 . S
C415 C413 1.419 . S
C415 C416 1.363 . S
C415 H418 0.929 . S
C416 C415 1.363 . S
C416 C422 1.428 . S
H417 C413 0.930 . S
H418 C415 0.929 . S
S419 N420 1.613 . S
S419 N421 1.610 . S
N420 S419 1.613 . S
N420 C423 1.350 . S
N421 S419 1.610 . S
N421 C422 1.351 . S
C422 C416 1.428 . S
C422 N421 1.351 . S
C422 C423 1.434 . S
C423 C414 1.429 . S
C423 N420 1.350 . S
C423 C422 1.434 . S
C424 C425 1.369 . S
C424 C426 1.419 . S
C424 H428 0.930 . S
C425 C424 1.369 . S
C425 C434 1.429 . S
C426 C424 1.419 . S
C426 C427 1.363 . S
C426 H429 0.929 . S
C427 C426 1.363 . S
C427 C433 1.428 . S
H428 C424 0.930 . S
H429 C426 0.929 . S
S430 N431 1.613 . S
S430 N432 1.610 . S
N431 S430 1.613 . S
N431 C434 1.350 . S
N432 S430 1.610 . S
N432 C433 1.351 . S
C433 C427 1.428 . S
C433 N432 1.351 . S
C433 C434 1.434 . S
C434 C425 1.429 . S
C434 N431 1.350 . S
C434 C433 1.434 . S
C435 C436 1.369 . S
C435 C437 1.419 . S
C435 H439 0.930 . S
C436 C435 1.369 . S
C436 C445 1.429 . S
C437 C435 1.419 . S
C437 C438 1.363 . S
C437 H440 0.929 . S
C438 C437 1.363 . S
C438 C444 1.428 . S
H439 C435 0.930 . S
H440 C437 0.929 . S
S441 N442 1.613 . S
S441 N443 1.610 . S
N442 S441 1.613 . S
N442 C445 1.350 . S
N443 S441 1.610 . S
N443 C444 1.351 . S
C444 C438 1.428 . S
C444 N443 1.351 . S
C444 C445 1.434 . S
C445 C436 1.429 . S
C445 N442 1.350 . S
C445 C444 1.434 . S
C446 C447 1.369 . S
C446 C448 1.419 . S
C446 H450 0.930 . S
C447 C446 1.369 . S
C447 C456 1.429 . S
C448 C446 1.419 . S
C448 C449 1.363 . S
C448 H451 0.929 . S
C449 C448 1.363 . S
C449 C455 1.428 . S
H450 C446 0.930 . S
H451 C448 0.929 . S
S452 N453 1.613 . S
S452 N454 1.610 . S
N453 S452 1.613 . S
N453 C456 1.350 . S
N454 S452 1.610 . S
N454 C455 1.351 . S
C455 C449 1.428 . S
C455 N454 1.351 . S
C455 C456 1.434 . S
C456 C447 1.429 . S
C456 N453 1.350 . S
C456 C455 1.434 . S
C457 C458 1.369 . S
C457 C459 1.419 . S
C457 H461 0.930 . S
C458 C457 1.369 . S
C458 C467 1.429 . S
C459 C457 1.419 . S
C459 C460 1.363 . S
C459 H462 0.929 . S
C460 C459 1.363 . S
C460 C466 1.428 . S
H461 C457 0.930 . S
H462 C459 0.929 . S
S463 N464 1.613 . S
S463 N465 1.610 . S
N464 S463 1.613 . S
N464 C467 1.350 . S
N465 S463 1.610 . S
N465 C466 1.351 . S
C466 C460 1.428 . S
C466 N465 1.351 . S
C466 C467 1.434 . S
C467 C458 1.429 . S
C467 N464 1.350 . S
C467 C466 1.434 . S
C468 C469 1.369 . S
C468 C470 1.419 . S
C468 H472 0.930 . S
C469 C468 1.369 . S
C469 C478 1.429 . S
C470 C468 1.419 . S
C470 C471 1.363 . S
C470 H473 0.929 . S
C471 C470 1.363 . S
C471 C477 1.428 . S
H472 C468 0.930 . S
H473 C470 0.929 . S
S474 N475 1.613 . S
S474 N476 1.610 . S
N475 S474 1.613 . S
N475 C478 1.350 . S
N476 S474 1.610 . S
N476 C477 1.351 . S
C477 C471 1.428 . S
C477 N476 1.351 . S
C477 C478 1.434 . S
C478 C469 1.429 . S
C478 N475 1.350 . S
C478 C477 1.434 . S
C479 C480 1.369 . S
C479 C481 1.419 . S
C479 H483 0.930 . S
C480 C479 1.369 . S
C480 C489 1.429 . S
C481 C479 1.419 . S
C481 C482 1.363 . S
C481 H484 0.929 . S
C482 C481 1.363 . S
C482 C488 1.428 . S
H483 C479 0.930 . S
H484 C481 0.929 . S
S485 N486 1.613 . S
S485 N487 1.610 . S
N486 S485 1.613 . S
N486 C489 1.350 . S
N487 S485 1.610 . S
N487 C488 1.351 . S
C488 C482 1.428 . S
C488 N487 1.351 . S
C488 C489 1.434 . S
C489 C480 1.429 . S
C489 N486 1.350 . S
C489 C488 1.434 . S
C490 C491 1.369 . S
C490 C492 1.419 . S
C490 H494 0.930 . S
C491 C490 1.369 . S
C491 C500 1.429 . S
C492 C490 1.419 . S
C492 C493 1.363 . S
C492 H495 0.929 . S
C493 C492 1.363 . S
C493 C499 1.428 . S
H494 C490 0.930 . S
H495 C492 0.929 . S
S496 N497 1.613 . S
S496 N498 1.610 . S
N497 S496 1.613 . S
N497 C500 1.350 . S
N498 S496 1.610 . S
N498 C499 1.351 . S
C499 C493 1.428 . S
C499 N498 1.351 . S
C499 C500 1.434 . S
C500 C491 1.429 . S
C500 N497 1.350 . S
C500 C499 1.434 . S
C501 C502 1.369 . S
C501 C503 1.419 . S
C501 H505 0.930 . S
C502 C501 1.369 . S
C502 C511 1.429 . S
C503 C501 1.419 . S
C503 C504 1.363 . S
C503 H506 0.929 . S
C504 C503 1.363 . S
C504 C510 1.428 . S
H505 C501 0.930 . S
H506 C503 0.929 . S
S507 N508 1.613 . S
S507 N509 1.610 . S
N508 S507 1.613 . S
N508 C511 1.350 . S
N509 S507 1.610 . S
N509 C510 1.351 . S
C510 C504 1.428 . S
C510 N509 1.351 . S
C510 C511 1.434 . S
C511 C502 1.429 . S
C511 N508 1.350 . S
C511 C510 1.434 . S
C249 C4 1.132 . S
C251 C103 1.208 . S
C260 C16 1.542 . S
C262 C147 1.595 . S
C273 C177 2.204 . S
C271 C32 2.058 . S
C282 C43 2.649 . S
C284 C218 2.642 . S
C295 C134 1.406 . S
C293 C5 1.308 . S
C306 C98 2.065 . S
C304 C21 1.988 . S
C317 C226 1.204 . S
C315 C27 1.258 . S
C328 C187 2.357 . S
C326 C37 2.423 . S
C337 C10 1.440 . S
C339 C223 1.509 . S
C350 C137 2.271 . S
C348 C26 2.318 . S
C359 C38 1.662 . S
C361 C106 1.656 . S
C370 C15 2.434 . S
C372 C174 2.399 . S
C383 C94 1.292 . S
C381 C48 1.238 . S
C392 C59 1.369 . S
C394 C138 1.383 . S
C403 C76 2.040 . S
C405 C186 2.064 . S
C414 C87 2.532 . S
C416 C227 2.474 . S
C425 C54 0.932 . S
C427 C143 0.969 . S
C438 C107 2.688 . S
C436 C60 2.638 . S
C449 C217 1.279 . S
C447 C71 1.147 . S
C460 C178 2.001 . S
C458 C82 2.018 . S
C469 C49 1.992 . S
C471 C214 2.087 . S
C482 C146 1.594 . S
C480 C70 1.621 . S
C493 C97 2.032 . S
C491 C81 2.087 . S
C502 C65 2.066 . S
C504 C183 2.040 . S
