# Generated by pormake.
# Topology zzz, (3,6)-cn, num edge types: 1
# Building blocks:
#     Node 0, Type 0, BuildingBlock: VETTIZ_charged_linker_0, # of connection points: 3
#     Node 1, Type 0, BuildingBlock: VETTIZ_charged_linker_0, # of connection points: 3
#     Node 2, Type 0, BuildingBlock: VETTIZ_charged_linker_0, # of connection points: 3
#     Node 3, Type 0, BuildingBlock: VETTIZ_charged_linker_0, # of connection points: 3
#     Node 4, Type 0, BuildingBlock: VETTIZ_charged_linker_0, # of connection points: 3
#     Node 5, Type 0, BuildingBlock: VETTIZ_charged_linker_0, # of connection points: 3
#     Node 6, Type 0, BuildingBlock: VETTIZ_charged_linker_0, # of connection points: 3
#     Node 7, Type 0, BuildingBlock: VETTIZ_charged_linker_0, # of connection points: 3
#     Node 8, Type 1, BuildingBlock: CUKXOW_clean_sbu_0, # of connection points: 6
#     Node 9, Type 1, BuildingBlock: CUKXOW_clean_sbu_0, # of connection points: 6
#     Node 10, Type 1, BuildingBlock: CUKXOW_clean_sbu_0, # of connection points: 6
#     Node 11, Type 1, BuildingBlock: CUKXOW_clean_sbu_0, # of connection points: 6
#     Edge 12, Type (0, 1), BuildingBlock: TEMPAE_clean_linker_10, # of connection points: 2
#     Edge 13, Type (0, 1), BuildingBlock: TEMPAE_clean_linker_10, # of connection points: 2
#     Edge 14, Type (0, 1), BuildingBlock: TEMPAE_clean_linker_10, # of connection points: 2
#     Edge 15, Type (0, 1), BuildingBlock: TEMPAE_clean_linker_10, # of connection points: 2
#     Edge 16, Type (0, 1), BuildingBlock: TEMPAE_clean_linker_10, # of connection points: 2
#     Edge 17, Type (0, 1), BuildingBlock: TEMPAE_clean_linker_10, # of connection points: 2
#     Edge 18, Type (0, 1), BuildingBlock: TEMPAE_clean_linker_10, # of connection points: 2
#     Edge 19, Type (0, 1), BuildingBlock: TEMPAE_clean_linker_10, # of connection points: 2
#     Edge 20, Type (0, 1), BuildingBlock: TEMPAE_clean_linker_10, # of connection points: 2
#     Edge 21, Type (0, 1), BuildingBlock: TEMPAE_clean_linker_10, # of connection points: 2
#     Edge 22, Type (0, 1), BuildingBlock: TEMPAE_clean_linker_10, # of connection points: 2
#     Edge 23, Type (0, 1), BuildingBlock: TEMPAE_clean_linker_10, # of connection points: 2
#     Edge 24, Type (0, 1), BuildingBlock: TEMPAE_clean_linker_10, # of connection points: 2
#     Edge 25, Type (0, 1), BuildingBlock: TEMPAE_clean_linker_10, # of connection points: 2
#     Edge 26, Type (0, 1), BuildingBlock: TEMPAE_clean_linker_10, # of connection points: 2
#     Edge 27, Type (0, 1), BuildingBlock: TEMPAE_clean_linker_10, # of connection points: 2
#     Edge 28, Type (0, 1), BuildingBlock: TEMPAE_clean_linker_10, # of connection points: 2
#     Edge 29, Type (0, 1), BuildingBlock: TEMPAE_clean_linker_10, # of connection points: 2
#     Edge 30, Type (0, 1), BuildingBlock: TEMPAE_clean_linker_10, # of connection points: 2
#     Edge 31, Type (0, 1), BuildingBlock: TEMPAE_clean_linker_10, # of connection points: 2
#     Edge 32, Type (0, 1), BuildingBlock: TEMPAE_clean_linker_10, # of connection points: 2
#     Edge 33, Type (0, 1), BuildingBlock: TEMPAE_clean_linker_10, # of connection points: 2
#     Edge 34, Type (0, 1), BuildingBlock: TEMPAE_clean_linker_10, # of connection points: 2
#     Edge 35, Type (0, 1), BuildingBlock: TEMPAE_clean_linker_10, # of connection points: 2
# Relax obj value: 0.220
# Max RMSD: 0.235
# Mean RMSD: 0.190
data_MOF--net-zzz--node1-CUKXOW_clean_sbu_0--node2-VETTIZ_charged_linker_0--edge1-TEMPAE_clean_linker_10
_symmetry_space_group_name_H-M    P1
_symmetry_Int_Tables_number       1
_symmetry_cell_setting            triclinic
loop_
_symmetry_equiv_pos_as_xyz
'x, y, z'
_cell_length_a     58.427308
_cell_length_b     57.126166
_cell_length_c     20.620477
_cell_angle_alpha  92.628302
_cell_angle_beta   88.238205
_cell_angle_gamma 95.455542
loop_
_atom_site_label
_atom_site_type_symbol
_atom_site_fract_x
_atom_site_fract_y
_atom_site_fract_z
_atom_type_partial_charge
C0 C 0.79041 0.46643 0.29268 0.0
C1 C 0.80983 0.45681 0.31644 0.0
C2 C 0.81984 0.4391 0.27873 0.0
C3 C 0.79386 0.44303 0.19214 0.0
C4 C 0.78236 0.45876 0.23057 0.0
C5 C 0.76144 0.46561 0.19667 0.0
H6 H 0.70132 0.45864 0.91543 0.0
C7 C 0.7835 0.44052 0.12789 0.0
C8 C 0.7639 0.45305 0.12999 0.0
H9 H 0.68208 0.49327 0.09714 0.0
H10 H 0.71638 0.48168 0.14621 0.0
H11 H 0.74994 0.48075 0.91618 0.0
H12 H 0.72048 0.41254 0.96863 0.0
H13 H 0.74545 0.40901 0.91998 0.0
H14 H 0.72233 0.42321 0.88782 0.0
H15 H 0.74754 0.45665 0.85755 0.0
H16 H 0.77287 0.46315 0.90568 0.0
C17 C 0.76336 0.49261 0.19203 0.0
C18 C 0.73975 0.45564 0.23461 0.0
C19 C 0.83202 0.41166 0.93907 0.0
C20 C 0.83016 0.41344 0.87185 0.0
C21 C 0.80893 0.41785 0.84681 0.0
C22 C 0.79032 0.42221 0.88877 0.0
C23 C 0.79328 0.42295 0.95635 0.0
C24 C 0.81365 0.417 0.9804 0.0
C25 C 0.81454 0.42041 0.053 0.0
C26 C 0.79178 0.43067 0.06826 0.0
C27 C 0.77943 0.43195 0.01168 0.0
C28 C 0.83554 0.43826 0.06906 0.0
C29 C 0.81537 0.39593 0.08221 0.0
C30 C 0.70435 0.46403 0.96569 0.0
C31 C 0.6888 0.47703 0.00195 0.0
C32 C 0.69356 0.48305 0.06785 0.0
C33 C 0.71349 0.47632 0.09634 0.0
C34 C 0.72889 0.46346 0.05863 0.0
C35 C 0.72411 0.45779 0.99424 0.0
C36 C 0.74273 0.44561 0.95916 0.0
C37 C 0.75875 0.4431 0.01407 0.0
C38 C 0.75088 0.45371 0.07262 0.0
C39 C 0.75385 0.46219 0.90669 0.0
C40 C 0.73231 0.42132 0.93196 0.0
H41 H 0.8206 0.41893 0.19077 0.0
H42 H 0.78196 0.4796 0.32136 0.0
H43 H 0.74176 0.43756 0.25008 0.0
H44 H 0.72421 0.45392 0.20512 0.0
H45 H 0.73662 0.46681 0.27894 0.0
H46 H 0.78077 0.49913 0.17343 0.0
H47 H 0.76054 0.50134 0.24048 0.0
H48 H 0.75098 0.49845 0.15834 0.0
H49 H 0.84829 0.4086 0.95945 0.0
H50 H 0.80716 0.4192 0.795 0.0
H51 H 0.77474 0.42599 0.86697 0.0
H52 H 0.83604 0.45363 0.03762 0.0
H53 H 0.85191 0.43002 0.06084 0.0
H54 H 0.83538 0.44561 0.11925 0.0
H55 H 0.81047 0.38121 0.0466 0.0
H56 H 0.80294 0.39325 0.12359 0.0
H57 H 0.83289 0.39348 0.09858 0.0
H58 H 0.83471 0.43136 0.29545 0.0
C59 C 0.81184 0.43205 0.21737 0.0
C60 C 0.92635 0.81213 0.87827 0.0
C61 C 0.92315 0.83618 0.88568 0.0
C62 C 0.90618 0.8436 0.92991 0.0
C63 C 0.90115 0.80466 0.97147 0.0
C64 C 0.91458 0.79648 0.92089 0.0
C65 C 0.91594 0.77037 0.9227 0.0
H66 H 0.93421 0.68076 0.08608 0.0
C67 C 0.89693 0.78613 0.01846 0.0
C68 C 0.9033 0.76527 0.98765 0.0
H69 H 0.91022 0.67822 0.88895 0.0
H70 H 0.89487 0.71631 0.91032 0.0
H71 H 0.95409 0.73746 0.10033 0.0
H72 H 0.88564 0.70455 0.14181 0.0
H73 H 0.89399 0.7255 0.20414 0.0
H74 H 0.90961 0.69988 0.19066 0.0
H75 H 0.94844 0.71671 0.16314 0.0
H76 H 0.94382 0.74717 0.17737 0.0
C77 C 0.94136 0.76502 0.92368 0.0
C78 C 0.90371 0.75841 0.86276 0.0
C79 C 0.90387 0.81685 0.25125 0.0
C80 C 0.91359 0.80824 0.3056 0.0
C81 C 0.91756 0.78426 0.30495 0.0
C82 C 0.91343 0.76964 0.24876 0.0
C83 C 0.90584 0.77931 0.19246 0.0
C84 C 0.90105 0.80257 0.19479 0.0
C85 C 0.89495 0.81086 0.13006 0.0
C86 C 0.89692 0.78861 0.08752 0.0
C87 C 0.90304 0.77004 0.12452 0.0
C88 C 0.91264 0.83176 0.11092 0.0
C89 C 0.86991 0.81744 0.13473 0.0
C90 C 0.92643 0.68873 0.0466 0.0
C91 C 0.92481 0.67728 0.98441 0.0
C92 C 0.91315 0.68746 0.93547 0.0
C93 C 0.90526 0.70964 0.94601 0.0
C94 C 0.9102 0.72207 0.00429 0.0
C95 C 0.91854 0.71121 0.0556 0.0
C96 C 0.9174 0.72653 0.1174 0.0
C97 C 0.90744 0.74821 0.09261 0.0
C98 C 0.90503 0.74557 0.02534 0.0
C99 C 0.94218 0.73228 0.14144 0.0
C100 C 0.90092 0.7135 0.16663 0.0
H101 H 0.88226 0.83384 0.00662 0.0
H102 H 0.93868 0.80602 0.84261 0.0
H103 H 0.90584 0.76973 0.82013 0.0
H104 H 0.88496 0.7546 0.8728 0.0
H105 H 0.91129 0.74201 0.84647 0.0
H106 H 0.95017 0.77445 0.96568 0.0
H107 H 0.95073 0.77047 0.87834 0.0
H108 H 0.94276 0.74591 0.9274 0.0
H109 H 0.90012 0.83507 0.25101 0.0
H110 H 0.92491 0.77715 0.34655 0.0
H111 H 0.91723 0.75168 0.25034 0.0
H112 H 0.92217 0.84025 0.15285 0.0
H113 H 0.90418 0.8462 0.09038 0.0
H114 H 0.92603 0.82595 0.076 0.0
H115 H 0.85858 0.80379 0.16014 0.0
H116 H 0.86257 0.81863 0.08638 0.0
H117 H 0.8689 0.83453 0.16217 0.0
H118 H 0.90301 0.86199 0.93485 0.0
C119 C 0.89482 0.82769 0.9725 0.0
C120 C 0.81822 0.99647 0.11307 0.0
C121 C 0.82678 0.00919 0.05847 0.0
C122 C 0.81259 0.02473 0.03153 0.0
C123 C 0.78053 0.00903 0.09661 0.0
C124 C 0.79492 0.99734 0.13276 0.0
C125 C 0.78136 0.98467 0.18684 0.0
H126 H 0.67419 0.94753 0.30194 0.0
C127 C 0.75671 0.00147 0.11441 0.0
C128 C 0.75677 0.98974 0.17251 0.0
H129 H 0.71792 0.00084 0.40676 0.0
H130 H 0.74647 0.00033 0.3171 0.0
H131 H 0.67814 0.98479 0.15973 0.0
H132 H 0.71363 0.92206 0.18765 0.0
H133 H 0.69716 0.92427 0.11741 0.0
H134 H 0.6827 0.91995 0.1948 0.0
H135 H 0.66311 0.96426 0.21213 0.0
H136 H 0.6661 0.95604 0.13072 0.0
C137 C 0.78925 0.99517 0.25326 0.0
C138 C 0.7841 0.95808 0.18103 0.0
C139 C 0.69604 0.99927 0.94327 0.0
C140 C 0.67512 0.98519 0.93548 0.0
C141 C 0.67104 0.96447 0.97052 0.0
C142 C 0.6863 0.95958 0.01814 0.0
C143 C 0.70477 0.97616 0.03282 0.0
C144 C 0.71071 0.99432 0.99203 0.0
C145 C 0.73319 0.00787 0.00938 0.0
C146 C 0.73828 0.99605 0.07145 0.0
C147 C 0.72099 0.97809 0.08586 0.0
C148 C 0.72924 0.03402 0.02313 0.0
C149 C 0.75105 0.00411 0.9534 0.0
C150 C 0.68989 0.95906 0.30683 0.0
C151 C 0.69334 0.9744 0.36183 0.0
C152 C 0.7147 0.98836 0.36625 0.0
C153 C 0.73133 0.98795 0.31506 0.0
C154 C 0.72637 0.97391 0.25865 0.0
C155 C 0.70516 0.96114 0.25349 0.0
C156 C 0.69875 0.95584 0.1835 0.0
C157 C 0.71925 0.96892 0.14877 0.0
C158 C 0.73641 0.97642 0.19296 0.0
C159 C 0.6755 0.96582 0.17049 0.0
C160 C 0.69793 0.92904 0.16985 0.0
H161 H 0.77911 0.03639 0.02812 0.0
H162 H 0.82886 0.98518 0.13703 0.0
H163 H 0.77892 0.95063 0.13232 0.0
H164 H 0.77316 0.9486 0.21833 0.0
H165 H 0.80223 0.95467 0.18831 0.0
H166 H 0.7853 0.01381 0.25985 0.0
H167 H 0.80811 0.99462 0.25757 0.0
H168 H 0.78071 0.98489 0.29307 0.0
H169 H 0.70031 0.0145 0.91429 0.0
H170 H 0.65551 0.95277 0.96388 0.0
H171 H 0.68311 0.94348 0.04309 0.0
H172 H 0.71372 0.03565 0.05505 0.0
H173 H 0.72673 0.04279 0.97722 0.0
H174 H 0.74381 0.04383 0.04851 0.0
H175 H 0.76247 0.99043 0.96463 0.0
H176 H 0.76176 0.02057 0.94243 0.0
H177 H 0.74269 0.99832 0.9069 0.0
H178 H 0.81911 0.03625 0.99353 0.0
C179 C 0.78946 0.0246 0.05023 0.0
C180 C 0.59565 0.71936 0.34877 0.0
C181 C 0.60327 0.6975 0.36354 0.0
C182 C 0.61728 0.68601 0.31784 0.0
C183 C 0.61034 0.714 0.23887 0.0
C184 C 0.6002 0.72771 0.28604 0.0
C185 C 0.59496 0.75083 0.25939 0.0
H186 H 0.58412 0.81336 0.98961 0.0
C187 C 0.60834 0.72428 0.17602 0.0
C188 C 0.60066 0.74666 0.18716 0.0
H189 H 0.57813 0.83846 0.18937 0.0
H190 H 0.58656 0.80025 0.22566 0.0
H191 H 0.6279 0.78082 0.99784 0.0
H192 H 0.55476 0.77005 0.00702 0.0
H193 H 0.56268 0.74132 0.99275 0.0
H194 H 0.57014 0.7633 0.93353 0.0
H195 H 0.60841 0.78376 0.9335 0.0
H196 H 0.61847 0.75573 0.94834 0.0
C197 C 0.61136 0.77075 0.2908 0.0
C198 C 0.56922 0.75401 0.27188 0.0
C199 C 0.59221 0.66696 0.98671 0.0
C200 C 0.5828 0.6698 0.92631 0.0
C201 C 0.58326 0.6924 0.9019 0.0
C202 C 0.59136 0.71225 0.94021 0.0
C203 C 0.59829 0.70929 0.00387 0.0
C204 C 0.59958 0.68688 0.02517 0.0
C205 C 0.60643 0.6869 0.09486 0.0
C206 C 0.60741 0.71316 0.11318 0.0
C207 C 0.60229 0.72604 0.06002 0.0
C208 C 0.63019 0.67696 0.09757 0.0
C209 C 0.58722 0.67243 0.13342 0.0
C210 C 0.58519 0.81074 0.04112 0.0
C211 C 0.58116 0.82891 0.08681 0.0
C212 C 0.5816 0.8247 0.15354 0.0
C213 C 0.58659 0.80265 0.17435 0.0
C214 C 0.59072 0.78463 0.12781 0.0
C215 C 0.58966 0.7888 0.06246 0.0
C216 C 0.59219 0.76712 0.01984 0.0
C217 C 0.59745 0.74986 0.06986 0.0
C218 C 0.59634 0.76008 0.13316 0.0
C219 C 0.61278 0.77204 0.97191 0.0
C220 C 0.56889 0.76003 0.98627 0.0
H221 H 0.63151 0.68509 0.22156 0.0
H222 H 0.58578 0.72908 0.38417 0.0
H223 H 0.55842 0.73785 0.2555 0.0
H224 H 0.56351 0.76865 0.24532 0.0
H225 H 0.56548 0.75737 0.32444 0.0
H226 H 0.62795 0.76423 0.30334 0.0
H227 H 0.60362 0.77814 0.33623 0.0
H228 H 0.61624 0.78512 0.25752 0.0
H229 H 0.59208 0.64955 0.00552 0.0
H230 H 0.57612 0.69477 0.85504 0.0
H231 H 0.59093 0.72917 0.92018 0.0
H232 H 0.63646 0.67047 0.04915 0.0
H233 H 0.62947 0.66172 0.1294 0.0
H234 H 0.64364 0.6906 0.11538 0.0
H235 H 0.57036 0.67961 0.12816 0.0
H236 H 0.59053 0.67233 0.18566 0.0
H237 H 0.58556 0.65369 0.1159 0.0
H238 H 0.62388 0.66957 0.32866 0.0
C239 C 0.62111 0.69442 0.25559 0.0
C240 C 0.3118 0.52117 0.33469 0.0
C241 C 0.31886 0.52208 0.39995 0.0
C242 C 0.30294 0.52757 0.44979 0.0
C243 C 0.27539 0.53531 0.37077 0.0
C244 C 0.2898 0.52782 0.32124 0.0
C245 C 0.27853 0.52818 0.25589 0.0
H246 H 0.18807 0.56354 0.09316 0.0
C247 C 0.25564 0.54462 0.34208 0.0
C248 C 0.25731 0.54101 0.27432 0.0
H249 H 0.23612 0.51527 0.01945 0.0
H250 H 0.25781 0.52197 0.11912 0.0
H251 H 0.18181 0.54215 0.24072 0.0
H252 H 0.21925 0.60137 0.15403 0.0
H253 H 0.22056 0.60821 0.23837 0.0
H254 H 0.19312 0.60466 0.19938 0.0
H255 H 0.17065 0.56461 0.19568 0.0
H256 H 0.17622 0.56969 0.27909 0.0
C257 C 0.27195 0.50237 0.2325 0.0
C258 C 0.29481 0.54206 0.20804 0.0
C259 C 0.19348 0.57867 0.48401 0.0
C260 C 0.17586 0.59296 0.47022 0.0
C261 C 0.17787 0.6048 0.41105 0.0
C262 C 0.1939 0.59892 0.36262 0.0
C263 C 0.20841 0.58153 0.37394 0.0
C264 C 0.20989 0.57381 0.43564 0.0
C265 C 0.23037 0.56001 0.44172 0.0
C266 C 0.23858 0.55806 0.37097 0.0
C267 C 0.22481 0.56976 0.33152 0.0
C268 C 0.2221 0.53558 0.46785 0.0
C269 C 0.24806 0.57488 0.48536 0.0
C270 C 0.20342 0.55458 0.09781 0.0
C271 C 0.21031 0.53888 0.04834 0.0
C272 C 0.23027 0.52731 0.0571 0.0
C273 C 0.24262 0.53095 0.11515 0.0
C274 C 0.23451 0.5457 0.16566 0.0
C275 C 0.21528 0.55736 0.15585 0.0
C276 C 0.20773 0.57106 0.21518 0.0
C277 C 0.22501 0.56489 0.26357 0.0
C278 C 0.2409 0.5502 0.2347 0.0
C279 C 0.18281 0.56143 0.23397 0.0
C280 C 0.21019 0.59767 0.20123 0.0
H281 H 0.27027 0.53839 0.47573 0.0
H282 H 0.32335 0.51627 0.29541 0.0
H283 H 0.30089 0.55958 0.23013 0.0
H284 H 0.28624 0.54517 0.16263 0.0
H285 H 0.3101 0.53247 0.19516 0.0
H286 H 0.26675 0.49116 0.27416 0.0
H287 H 0.28668 0.49481 0.20658 0.0
H288 H 0.25695 0.50047 0.20087 0.0
H289 H 0.19406 0.57019 0.52951 0.0
H290 H 0.1665 0.61788 0.40032 0.0
H291 H 0.19401 0.60744 0.31735 0.0
H292 H 0.20667 0.52769 0.44166 0.0
H293 H 0.21744 0.53702 0.52041 0.0
H294 H 0.23518 0.52286 0.46089 0.0
H295 H 0.24359 0.59326 0.49482 0.0
H296 H 0.26549 0.5767 0.46219 0.0
H297 H 0.24912 0.56713 0.53349 0.0
H298 H 0.30735 0.5272 0.50037 0.0
C299 C 0.28141 0.53424 0.43557 0.0
C300 C 0.08613 0.1945 0.50459 0.0
C301 C 0.08878 0.17034 0.49718 0.0
C302 C 0.1056 0.16252 0.45303 0.0
C303 C 0.11144 0.2014 0.41132 0.0
C304 C 0.09822 0.2099 0.46191 0.0
C305 C 0.0973 0.23607 0.45979 0.0
H306 H 0.07863 0.32513 0.29771 0.0
C307 C 0.11593 0.2198 0.36406 0.0
C308 C 0.10998 0.24085 0.39471 0.0
H309 H 0.10433 0.32797 0.49309 0.0
H310 H 0.11968 0.28991 0.47076 0.0
H311 H 0.12736 0.30139 0.23969 0.0
H312 H 0.05909 0.26842 0.28343 0.0
H313 H 0.06903 0.25906 0.20563 0.0
H314 H 0.06438 0.28944 0.22114 0.0
H315 H 0.10319 0.30606 0.19164 0.0
H316 H 0.11872 0.28039 0.17777 0.0
C317 C 0.10976 0.24792 0.51949 0.0
C318 C 0.07201 0.24187 0.45892 0.0
C319 C 0.10833 0.18884 0.13161 0.0
C320 C 0.09872 0.1975 0.07715 0.0
C321 C 0.09491 0.22152 0.07772 0.0
C322 C 0.09913 0.23615 0.13386 0.0
C323 C 0.10668 0.22647 0.19017 0.0
C324 C 0.11127 0.20315 0.18797 0.0
C325 C 0.11732 0.19485 0.25272 0.0
C326 C 0.1157 0.2172 0.29503 0.0
C327 C 0.1097 0.23581 0.25796 0.0
C328 C 0.14223 0.18788 0.24793 0.0
C329 C 0.09937 0.17421 0.27218 0.0
C330 C 0.08684 0.31727 0.33661 0.0
C331 C 0.08883 0.32873 0.39876 0.0
C332 C 0.10107 0.3187 0.44677 0.0
C333 C 0.10899 0.29657 0.43572 0.0
C334 C 0.1036 0.28409 0.37784 0.0
C335 C 0.09486 0.29486 0.32704 0.0
C336 C 0.09567 0.27948 0.26524 0.0
C337 C 0.10569 0.25777 0.28972 0.0
C338 C 0.1085 0.26052 0.35681 0.0
C339 C 0.11196 0.29244 0.21544 0.0
C340 C 0.07079 0.27379 0.24203 0.0
H341 H 0.1297 0.17176 0.37628 0.0
H342 H 0.07395 0.2009 0.54023 0.0
H343 H 0.06304 0.23256 0.41703 0.0
H344 H 0.07093 0.26103 0.45513 0.0
H345 H 0.06259 0.23662 0.50434 0.0
H346 H 0.10725 0.23679 0.56246 0.0
H347 H 0.10265 0.26464 0.53516 0.0
H348 H 0.12857 0.25117 0.50951 0.0
H349 H 0.11196 0.17059 0.13196 0.0
H350 H 0.08763 0.22868 0.03607 0.0
H351 H 0.09543 0.25415 0.13223 0.0
H352 H 0.15372 0.20136 0.22234 0.0
H353 H 0.14298 0.17073 0.22061 0.0
H354 H 0.14957 0.18662 0.29625 0.0
H355 H 0.08969 0.16583 0.23041 0.0
H356 H 0.08614 0.18026 0.30724 0.0
H357 H 0.10763 0.15963 0.2927 0.0
H358 H 0.10837 0.14403 0.44811 0.0
C359 C 0.11728 0.1782 0.41039 0.0
C360 C 0.3079 0.03467 0.05472 0.0
C361 C 0.3292 0.04862 0.0461 0.0
C362 C 0.33379 0.06862 0.08856 0.0
C363 C 0.30281 0.05441 0.15927 0.0
C364 C 0.29426 0.03887 0.11117 0.0
C365 C 0.27117 0.02686 0.13299 0.0
H366 H 0.20088 0.99375 0.38331 0.0
C367 C 0.28989 0.04995 0.21964 0.0
C368 C 0.2691 0.03698 0.20307 0.0
H369 H 0.17572 0.0313 0.22657 0.0
H370 H 0.21532 0.03845 0.183 0.0
H371 H 0.24876 0.97273 0.31485 0.0
H372 H 0.2307 0.03618 0.41578 0.0
H373 H 0.25769 0.031 0.44354 0.0
H374 H 0.23352 0.00958 0.45673 0.0
H375 H 0.24398 0.97473 0.40118 0.0
H376 H 0.27197 0.98248 0.36432 0.0
C377 C 0.27198 0.99995 0.13118 0.0
C378 C 0.25212 0.03369 0.08979 0.0
C379 C 0.34221 0.03767 0.40472 0.0
C380 C 0.33941 0.02205 0.45557 0.0
C381 C 0.31742 0.01112 0.4706 0.0
C382 C 0.29867 0.01465 0.43314 0.0
C383 C 0.30196 0.02907 0.37964 0.0
C384 C 0.3234 0.04042 0.36608 0.0
C385 C 0.32385 0.05384 0.30469 0.0
C386 C 0.29927 0.04738 0.28171 0.0
C387 C 0.28668 0.03327 0.32693 0.0
C388 C 0.34259 0.04519 0.25682 0.0
C389 C 0.32822 0.08029 0.32344 0.0
C390 C 0.20336 0.00279 0.33827 0.0
C391 C 0.18486 0.01175 0.30857 0.0
C392 C 0.18936 0.02352 0.24977 0.0
C393 C 0.21203 0.02729 0.22374 0.0
C394 C 0.2302 0.01914 0.25656 0.0
C395 C 0.22576 0.00825 0.31469 0.0
C396 C 0.24689 0.00905 0.35508 0.0
C397 C 0.26409 0.02356 0.31329 0.0
C398 C 0.25485 0.0271 0.25338 0.0
C399 C 0.25329 0.98349 0.3598 0.0
C400 C 0.24211 0.02193 0.42152 0.0
H401 H 0.32535 0.08598 0.17906 0.0
H402 H 0.30273 0.02015 0.02121 0.0
H403 H 0.24948 0.05263 0.0977 0.0
H404 H 0.2357 0.02291 0.09978 0.0
H405 H 0.25672 0.03041 0.03767 0.0
H406 H 0.28618 0.99513 0.16115 0.0
H407 H 0.2747 0.99297 0.08063 0.0
H408 H 0.25555 0.99117 0.15052 0.0
H409 H 0.35904 0.04626 0.39275 0.0
H410 H 0.31494 0.99919 0.51013 0.0
H411 H 0.28248 0.00542 0.44625 0.0
H412 H 0.33587 0.02926 0.22784 0.0
H413 H 0.35793 0.04057 0.28202 0.0
H414 H 0.34943 0.05903 0.22385 0.0
H415 H 0.3461 0.08457 0.34024 0.0
H416 H 0.31618 0.08538 0.36332 0.0
H417 H 0.32565 0.09141 0.28245 0.0
H418 H 0.34845 0.08128 0.08008 0.0
C419 C 0.32071 0.07143 0.14565 0.0
C420 C 0.41595 0.27376 0.00603 0.0
C421 C 0.40822 0.29519 0.98782 0.0
C422 C 0.39253 0.30638 0.02921 0.0
C423 C 0.39828 0.27952 0.11206 0.0
C424 C 0.40991 0.26577 0.06841 0.0
C425 C 0.41482 0.24311 0.09847 0.0
H426 H 0.42141 0.18475 0.37781 0.0
C427 C 0.39904 0.27014 0.17631 0.0
C428 C 0.40721 0.24787 0.16916 0.0
H429 H 0.43173 0.15727 0.18179 0.0
H430 H 0.42275 0.1944 0.13953 0.0
H431 H 0.44962 0.22738 0.36283 0.0
H432 H 0.37684 0.21613 0.35825 0.0
H433 H 0.38511 0.24189 0.40665 0.0
H434 H 0.39509 0.21427 0.42614 0.0
H435 H 0.43266 0.23664 0.43076 0.0
H436 H 0.44189 0.25642 0.36723 0.0
C437 C 0.44084 0.2404 0.09179 0.0
C438 C 0.3996 0.22256 0.06552 0.0
C439 C 0.41532 0.33036 0.35821 0.0
C440 C 0.42357 0.32833 0.42057 0.0
C441 C 0.42105 0.30631 0.44912 0.0
C442 C 0.41254 0.2861 0.41286 0.0
C443 C 0.40711 0.28805 0.34745 0.0
C444 C 0.40738 0.31006 0.32216 0.0
C445 C 0.40147 0.30895 0.25159 0.0
C446 C 0.39925 0.28234 0.23764 0.0
C447 C 0.40325 0.27035 0.29347 0.0
C448 C 0.42178 0.32156 0.21262 0.0
C449 C 0.37862 0.32025 0.24428 0.0
C450 C 0.42109 0.18656 0.32576 0.0
C451 C 0.42656 0.16804 0.28285 0.0
C452 C 0.42712 0.17128 0.21545 0.0
C453 C 0.42185 0.19271 0.19117 0.0
C454 C 0.41647 0.21114 0.23493 0.0
C455 C 0.41643 0.20794 0.30102 0.0
C456 C 0.41276 0.23007 0.34063 0.0
C457 C 0.4082 0.24645 0.28753 0.0
C458 C 0.41058 0.23535 0.22562 0.0
C459 C 0.43523 0.2381 0.37746 0.0
C460 C 0.39135 0.22542 0.38573 0.0
H461 H 0.37526 0.30702 0.12202 0.0
H462 H 0.42704 0.26416 0.97371 0.0
H463 H 0.38339 0.22858 0.0481 0.0
H464 H 0.3939 0.2086 0.09943 0.0
H465 H 0.40869 0.21474 0.02291 0.0
H466 H 0.45093 0.25682 0.10955 0.0
H467 H 0.446 0.23686 0.04024 0.0
H468 H 0.44601 0.22602 0.1204 0.0
H469 H 0.41666 0.34734 0.3364 0.0
H470 H 0.42704 0.30454 0.4977 0.0
H471 H 0.41146 0.26957 0.43589 0.0
H472 H 0.43798 0.31344 0.22039 0.0
H473 H 0.42442 0.34052 0.2275 0.0
H474 H 0.41887 0.32088 0.15996 0.0
H475 H 0.37375 0.33064 0.28867 0.0
H476 H 0.36407 0.30667 0.23469 0.0
H477 H 0.37995 0.33286 0.20464 0.0
H478 H 0.38567 0.32235 0.01543 0.0
C479 C 0.38723 0.29831 0.09126 0.0
Tb480 Tb 0.9931 0.98316 0.64807 0.0
C481 C 0.04106 0.00476 0.59526 0.0
Tb482 Tb 0.01966 0.02341 0.73039 0.0
O483 O 0.98877 0.00761 0.57115 0.0
O484 O 0.99165 0.01953 0.66731 0.0
O485 O 0.02599 0.98578 0.5949 0.0
C486 C 0.03992 0.06427 0.77782 0.0
O487 O 0.0401 0.02258 0.63901 0.0
C488 C 0.02182 0.98035 0.76847 0.0
C489 C 0.97148 0.0022 0.78269 0.0
O490 O 0.04961 0.04472 0.7707 0.0
O491 O 0.01893 0.0607 0.75847 0.0
O492 O 0.0238 0.99894 0.80742 0.0
O493 O 0.02097 0.98703 0.71149 0.0
O494 O 0.98677 0.02099 0.78319 0.0
O495 O 0.97231 0.98435 0.73893 0.0
C496 C 0.97286 0.94214 0.60165 0.0
O497 O 0.9632 0.96172 0.60794 0.0
O498 O 0.99384 0.94577 0.62111 0.0
C499 C 0.99061 0.02616 0.61034 0.0
Tb500 Tb 0.50355 0.0243 0.65026 0.0
C501 C 0.54781 0.99734 0.62641 0.0
Tb502 Tb 0.51189 0.98434 0.74286 0.0
O503 O 0.53382 0.0461 0.68411 0.0
O504 O 0.51645 0.02155 0.74378 0.0
O505 O 0.53337 0.01075 0.60034 0.0
C506 C 0.52763 0.95522 0.82517 0.0
O507 O 0.54351 0.98698 0.68257 0.0
C508 C 0.48095 0.97366 0.6541 0.0
C509 C 0.46848 0.01232 0.7696 0.0
O510 O 0.52135 0.94966 0.76621 0.0
O511 O 0.52505 0.97731 0.83806 0.0
O512 O 0.48095 0.96347 0.70912 0.0
O513 O 0.4992 0.98717 0.6492 0.0
O514 O 0.48301 0.99887 0.79512 0.0
O515 O 0.4724 0.02219 0.71257 0.0
C516 C 0.48682 0.05117 0.56384 0.0
O517 O 0.49296 0.05803 0.62216 0.0
O518 O 0.49016 0.02912 0.55399 0.0
C519 C 0.53443 0.0355 0.73842 0.0
Tb520 Tb 0.5196 0.51687 0.63853 0.0
C521 C 0.46799 0.49999 0.60966 0.0
Tb522 Tb 0.49547 0.4758 0.71715 0.0
O523 O 0.51767 0.49432 0.55 0.0
O524 O 0.51989 0.47995 0.6401 0.0
O525 O 0.48465 0.5175 0.60561 0.0
C526 C 0.47524 0.43471 0.75684 0.0
O527 O 0.4692 0.48166 0.64686 0.0
C528 C 0.49775 0.51785 0.77423 0.0
C529 C 0.54683 0.49303 0.74652 0.0
O530 O 0.4721 0.45529 0.78311 0.0
O531 O 0.48966 0.43731 0.70806 0.0
O532 O 0.49757 0.49859 0.80551 0.0
O533 O 0.49495 0.5126 0.71493 0.0
O534 O 0.53071 0.47495 0.74796 0.0
O535 O 0.5451 0.51182 0.71163 0.0
C536 C 0.54017 0.55778 0.59875 0.0
O537 O 0.52491 0.5554 0.64554 0.0
O538 O 0.54391 0.5371 0.57431 0.0
C539 C 0.51698 0.47489 0.58067 0.0
Tb540 Tb 0.98547 0.50313 0.64612 0.0
C541 C 0.02442 0.4705 0.60591 0.0
Tb542 Tb 0.02594 0.50148 0.73937 0.0
O543 O 0.00774 0.52487 0.58032 0.0
O544 O 0.01354 0.52612 0.67942 0.0
O545 O 0.00226 0.4737 0.60117 0.0
C546 C 0.06779 0.50633 0.79113 0.0
O547 O 0.03723 0.48094 0.65329 0.0
C548 C 0.98974 0.4715 0.75912 0.0
C549 C 0.98682 0.53387 0.78021 0.0
O550 O 0.04873 0.49897 0.82094 0.0
O551 O 0.06329 0.51098 0.73208 0.0
O552 O 0.00367 0.47928 0.80485 0.0
O553 O 0.99787 0.47863 0.70604 0.0
O554 O 0.00887 0.53039 0.78598 0.0
O555 O 0.97415 0.52369 0.73215 0.0
C556 C 0.94424 0.49899 0.59096 0.0
O557 O 0.94775 0.49633 0.65195 0.0
O558 O 0.96389 0.50392 0.56129 0.0
C559 C 0.02148 0.53304 0.62592 0.0
C560 C 0.16153 0.0136 0.41291 0.0
C561 C 0.16211 0.0115 0.34456 0.0
C562 C 0.14078 0.01225 0.44891 0.0
C563 C 0.11971 0.00993 0.4163 0.0
C564 C 0.11994 0.00898 0.34742 0.0
C565 C 0.14112 0.00947 0.31231 0.0
C566 C 0.14146 0.01341 0.52224 0.0
C567 C 0.09783 0.00756 0.31098 0.0
C568 C 0.06807 0.98543 0.51759 0.0
C569 C 0.05992 0.00604 0.54525 0.0
C570 C 0.08698 0.98643 0.47353 0.0
C571 C 0.09767 0.00858 0.45538 0.0
C572 C 0.08885 0.02944 0.48112 0.0
C573 C 0.07021 0.02789 0.52602 0.0
C574 C 0.0963 0.96378 0.44926 0.0
C575 C 0.09918 0.05344 0.46175 0.0
H576 H 0.17743 0.01649 0.43901 0.0
H577 H 0.1412 0.00806 0.25974 0.0
H578 H 0.13391 0.02946 0.54185 0.0
H579 H 0.131 0.99801 0.54215 0.0
H580 H 0.15924 0.01374 0.54015 0.0
H581 H 0.10089 0.00772 0.25755 0.0
H582 H 0.08694 0.99124 0.32263 0.0
H583 H 0.08798 0.02262 0.32652 0.0
H584 H 0.06025 0.96846 0.53236 0.0
H585 H 0.06368 0.04383 0.54625 0.0
H586 H 0.11373 0.96297 0.46855 0.0
H587 H 0.09805 0.96315 0.39553 0.0
H588 H 0.08518 0.948 0.46439 0.0
H589 H 0.09303 0.06778 0.49391 0.0
H590 H 0.0944 0.05625 0.41122 0.0
H591 H 0.11823 0.05484 0.46286 0.0
C592 C 0.45617 0.14063 0.30136 0.0
C593 C 0.43346 0.14631 0.30985 0.0
C594 C 0.46435 0.12298 0.33717 0.0
C595 C 0.4493 0.11049 0.38153 0.0
C596 C 0.42587 0.11501 0.38647 0.0
C597 C 0.41831 0.13316 0.35126 0.0
C598 C 0.48949 0.1189 0.33099 0.0
C599 C 0.40911 0.10165 0.43177 0.0
C600 C 0.46998 0.05673 0.45617 0.0
C601 C 0.4773 0.06613 0.51682 0.0
C602 C 0.46034 0.07076 0.41193 0.0
C603 C 0.45866 0.09491 0.42817 0.0
C604 C 0.4663 0.10449 0.48922 0.0
C605 C 0.47533 0.08992 0.53299 0.0
C606 C 0.45188 0.05976 0.34808 0.0
C607 C 0.46506 0.1302 0.50824 0.0
H608 H 0.46789 0.15102 0.26979 0.0
H609 H 0.40073 0.13762 0.35769 0.0
H610 H 0.49818 0.12517 0.37655 0.0
H611 H 0.49155 0.09985 0.32391 0.0
H612 H 0.49835 0.12831 0.28995 0.0
H613 H 0.391 0.10456 0.42232 0.0
H614 H 0.41097 0.08249 0.42702 0.0
H615 H 0.41282 0.10748 0.48274 0.0
H616 H 0.47168 0.03836 0.44347 0.0
H617 H 0.48102 0.09724 0.57986 0.0
H618 H 0.46159 0.0684 0.30724 0.0
H619 H 0.4335 0.0625 0.34282 0.0
H620 H 0.45375 0.04057 0.34378 0.0
H621 H 0.47477 0.14132 0.47203 0.0
H622 H 0.47215 0.13498 0.55695 0.0
H623 H 0.44693 0.13449 0.50859 0.0
C624 C 0.35443 0.49982 0.39188 0.0
C625 C 0.34275 0.51853 0.41839 0.0
C626 C 0.37589 0.4953 0.4158 0.0
C627 C 0.38568 0.50968 0.4677 0.0
C628 C 0.37434 0.52909 0.49263 0.0
C629 C 0.35329 0.53343 0.46713 0.0
C630 C 0.38778 0.47479 0.38687 0.0
C631 C 0.38402 0.54491 0.54795 0.0
C632 C 0.42645 0.48803 0.58709 0.0
C633 C 0.44727 0.50086 0.57024 0.0
C634 C 0.40645 0.48982 0.55209 0.0
C635 C 0.40739 0.50439 0.49805 0.0
C636 C 0.4287 0.51625 0.47854 0.0
C637 C 0.4483 0.51456 0.51525 0.0
C638 C 0.38405 0.47712 0.57518 0.0
C639 C 0.43063 0.53148 0.42032 0.0
H640 H 0.34646 0.48827 0.35414 0.0
H641 H 0.34473 0.54834 0.48667 0.0
H642 H 0.406 0.48048 0.37424 0.0
H643 H 0.38782 0.46103 0.42311 0.0
H644 H 0.37922 0.46685 0.34265 0.0
H645 H 0.37302 0.55926 0.56178 0.0
H646 H 0.38576 0.53439 0.59117 0.0
H647 H 0.40144 0.55294 0.53439 0.0
H648 H 0.42555 0.47724 0.62915 0.0
H649 H 0.46445 0.52411 0.50094 0.0
H650 H 0.37546 0.46688 0.53431 0.0
H651 H 0.37228 0.49019 0.59381 0.0
H652 H 0.38651 0.46498 0.61444 0.0
H653 H 0.42195 0.52207 0.37825 0.0
H654 H 0.44882 0.53676 0.40611 0.0
H655 H 0.42189 0.54765 0.43156 0.0
C656 C 0.08065 0.37025 0.37845 0.0
C657 C 0.07757 0.3504 0.41637 0.0
C658 C 0.07184 0.39146 0.39998 0.0
C659 C 0.05968 0.39262 0.46047 0.0
C660 C 0.0557 0.37225 0.49722 0.0
C661 C 0.06465 0.35145 0.47465 0.0
C662 C 0.07626 0.4128 0.35934 0.0
C663 C 0.04267 0.37259 0.56167 0.0
C664 C 0.05741 0.44805 0.56743 0.0
C665 C 0.03443 0.45271 0.56174 0.0
C666 C 0.06636 0.42946 0.53116 0.0
C667 C 0.05202 0.41521 0.48803 0.0
C668 C 0.02929 0.42078 0.47889 0.0
C669 C 0.02075 0.43945 0.5159 0.0
C670 C 0.09074 0.42415 0.54221 0.0
C671 C 0.0135 0.40613 0.43303 0.0
H672 H 0.09064 0.36945 0.33337 0.0
H673 H 0.0619 0.33595 0.50343 0.0
H674 H 0.06005 0.42101 0.353 0.0
H675 H 0.08831 0.42613 0.38459 0.0
H676 H 0.0838 0.40841 0.31069 0.0
H677 H 0.04027 0.35496 0.58284 0.0
H678 H 0.0521 0.38499 0.59672 0.0
H679 H 0.0255 0.37889 0.55585 0.0
H680 H 0.06826 0.45838 0.60195 0.0
H681 H 0.00305 0.44306 0.51045 0.0
H682 H 0.10006 0.42146 0.49519 0.0
H683 H 0.09048 0.4076 0.5685 0.0
H684 H 0.10046 0.43844 0.57119 0.0
H685 H 0.02249 0.40267 0.38589 0.0
H686 H 0.99773 0.41479 0.42397 0.0
H687 H 0.00826 0.38885 0.45412 0.0
C688 C 0.86909 0.00203 0.05888 0.0
C689 C 0.84927 0.00534 0.02487 0.0
C690 C 0.8903 0.99964 0.0256 0.0
C691 C 0.89174 0.0009 0.957 0.0
C692 C 0.87164 0.00351 0.92256 0.0
C693 C 0.85075 0.00528 0.95665 0.0
C694 C 0.91124 0.99625 0.06382 0.0
C695 C 0.87225 0.00497 0.84949 0.0
C696 C 0.94659 0.02215 0.86504 0.0
C697 C 0.95241 0.0014 0.83221 0.0
C698 C 0.92756 0.02203 0.90845 0.0
C699 C 0.91418 0.00057 0.9203 0.0
C700 C 0.92067 0.97937 0.8898 0.0
C701 C 0.9396 0.98007 0.84584 0.0
C702 C 0.921 0.04512 0.93865 0.0
C703 C 0.9072 0.95605 0.90228 0.0
H704 H 0.86817 0.00184 0.11142 0.0
H705 H 0.83544 0.00683 0.92938 0.0
H706 H 0.91978 0.98095 0.04308 0.0
H707 H 0.92384 0.01198 0.06044 0.0
H708 H 0.90691 0.99343 0.11589 0.0
H709 H 0.85508 0.00712 0.83006 0.0
H710 H 0.88435 0.02009 0.83488 0.0
H711 H 0.87858 0.98881 0.82633 0.0
H712 H 0.95637 0.03873 0.85496 0.0
H713 H 0.94426 0.96393 0.82162 0.0
H714 H 0.9184 0.04388 0.99192 0.0
H715 H 0.90447 0.04923 0.91877 0.0
H716 H 0.93422 0.05994 0.92901 0.0
H717 H 0.91405 0.94124 0.87348 0.0
H718 H 0.8889 0.95665 0.89028 0.0
H719 H 0.90769 0.95244 0.9546 0.0
C720 C 0.55301 0.85845 0.07424 0.0
C721 C 0.57522 0.85159 0.06344 0.0
C722 C 0.54566 0.87734 0.04158 0.0
C723 C 0.56107 0.88982 0.99806 0.0
C724 C 0.58405 0.88395 0.99079 0.0
C725 C 0.59076 0.86467 0.02291 0.0
C726 C 0.52095 0.88281 0.05005 0.0
C727 C 0.60118 0.89713 0.94611 0.0
C728 C 0.53634 0.91495 0.85099 0.0
C729 C 0.53615 0.93878 0.86997 0.0
C730 C 0.54419 0.89888 0.8926 0.0
C731 C 0.55246 0.90691 0.95436 0.0
C732 C 0.55251 0.93104 0.97357 0.0
C733 C 0.54403 0.94666 0.93139 0.0
C734 C 0.54359 0.87325 0.87041 0.0
C735 C 0.5616 0.94036 0.0384 0.0
H736 H 0.54097 0.84811 0.10508 0.0
H737 H 0.60795 0.85926 0.01465 0.0
H738 H 0.51999 0.90197 0.05941 0.0
H739 H 0.5117 0.87771 0.00459 0.0
H740 H 0.5119 0.87325 0.09052 0.0
H741 H 0.61902 0.89267 0.95297 0.0
H742 H 0.59662 0.89268 0.89488 0.0
H743 H 0.60069 0.91641 0.95429 0.0
H744 H 0.53016 0.90879 0.80359 0.0
H745 H 0.54365 0.96502 0.94638 0.0
H746 H 0.53338 0.86217 0.90576 0.0
H747 H 0.56127 0.86765 0.86832 0.0
H748 H 0.53601 0.86977 0.82177 0.0
H749 H 0.55126 0.93177 0.07822 0.0
H750 H 0.56119 0.95973 0.04504 0.0
H751 H 0.57958 0.93604 0.04302 0.0
C752 C 0.66904 0.48907 0.90377 0.0
C753 C 0.66789 0.48385 0.96988 0.0
C754 C 0.64919 0.49197 0.86959 0.0
C755 C 0.62756 0.49065 0.90262 0.0
C756 C 0.62639 0.48723 0.97034 0.0
C757 C 0.6465 0.48356 0.00305 0.0
C758 C 0.6513 0.49557 0.79744 0.0
C759 C 0.60378 0.48675 0.00782 0.0
C760 C 0.57907 0.51349 0.81106 0.0
C761 C 0.56737 0.49248 0.78671 0.0
C762 C 0.59825 0.51321 0.85056 0.0
C763 C 0.60619 0.49141 0.86505 0.0
C764 C 0.59447 0.47016 0.84023 0.0
C765 C 0.57503 0.47096 0.80218 0.0
C766 C 0.60967 0.53627 0.87758 0.0
C767 C 0.60281 0.44657 0.85246 0.0
H768 H 0.68551 0.49032 0.87793 0.0
H769 H 0.64528 0.47964 0.05401 0.0
H770 H 0.64111 0.48099 0.77085 0.0
H771 H 0.64419 0.51218 0.78602 0.0
H772 H 0.6694 0.49626 0.77897 0.0
H773 H 0.60606 0.48648 0.06106 0.0
H774 H 0.59479 0.50237 0.99729 0.0
H775 H 0.59248 0.4709 0.99235 0.0
H776 H 0.57301 0.53019 0.80016 0.0
H777 H 0.56609 0.45468 0.78332 0.0
H778 H 0.62867 0.53676 0.87313 0.0
H779 H 0.60507 0.53823 0.93003 0.0
H780 H 0.60414 0.55156 0.85278 0.0
H781 H 0.62067 0.44598 0.83292 0.0
H782 H 0.59181 0.4317 0.82964 0.0
H783 H 0.60314 0.44403 0.90541 0.0
C784 C 0.94958 0.65421 0.91133 0.0
C785 C 0.93573 0.65536 0.96788 0.0
C786 C 0.95812 0.63315 0.88922 0.0
C787 C 0.9527 0.6126 0.92456 0.0
C788 C 0.93959 0.61384 0.98345 0.0
C789 C 0.93127 0.63533 0.00463 0.0
C790 C 0.97224 0.63273 0.82657 0.0
C791 C 0.9336 0.59232 0.02253 0.0
C792 C 0.95437 0.5576 0.81555 0.0
C793 C 0.97685 0.55179 0.82406 0.0
C794 C 0.94569 0.57645 0.85137 0.0
C795 C 0.9598 0.58979 0.89694 0.0
C796 C 0.98193 0.58306 0.90884 0.0
C797 C 0.9902 0.56416 0.87221 0.0
C798 C 0.92196 0.58301 0.83733 0.0
C799 C 0.99743 0.59671 0.95735 0.0
H800 H 0.95332 0.66983 0.88344 0.0
H801 H 0.92053 0.63622 0.04833 0.0
H802 H 0.98886 0.62552 0.83434 0.0
H803 H 0.96295 0.62103 0.78962 0.0
H804 H 0.97583 0.6505 0.80673 0.0
H805 H 0.92553 0.59672 0.07048 0.0
H806 H 0.92144 0.5797 0.99526 0.0
H807 H 0.94921 0.58327 0.03035 0.0
H808 H 0.94377 0.54801 0.7791 0.0
H809 H 0.0075 0.55966 0.87985 0.0
H810 H 0.92345 0.59982 0.81194 0.0
H811 H 0.91197 0.58577 0.88322 0.0
H812 H 0.9122 0.56934 0.80637 0.0
H813 H 0.00379 0.61396 0.93769 0.0
H814 H 0.01252 0.58722 0.9681 0.0
H815 H 0.98783 0.60028 0.00343 0.0
C816 C 0.0487 0.15228 0.50584 0.0
C817 C 0.07151 0.15302 0.52551 0.0
C818 C 0.03262 0.13345 0.52131 0.0
C819 C 0.03954 0.1152 0.55816 0.0
C820 C 0.06216 0.11684 0.58226 0.0
C821 C 0.07806 0.13556 0.56446 0.0
C822 C 0.00877 0.13242 0.49453 0.0
C823 C 0.06993 0.09819 0.62385 0.0
C824 C 0.99708 0.06927 0.63345 0.0
C825 C 0.99941 0.04983 0.59077 0.0
C826 C 0.00928 0.09111 0.62205 0.0
C827 C 0.02402 0.09338 0.56658 0.0
C828 C 0.02501 0.07421 0.52076 0.0
C829 C 0.01251 0.05263 0.53326 0.0
C830 C 0.00706 0.11148 0.67034 0.0
C831 C 0.03977 0.07626 0.45949 0.0
H832 H 0.0438 0.16573 0.47494 0.0
H833 H 0.09575 0.13624 0.57943 0.0
H834 H 0.00754 0.11984 0.4519 0.0
H835 H 0.99553 0.12608 0.53095 0.0
H836 H 0.00474 0.14986 0.47869 0.0
H837 H 0.08668 0.10382 0.64655 0.0
H838 H 0.05694 0.09372 0.66275 0.0
H839 H 0.07182 0.08197 0.59345 0.0
H840 H 0.98633 0.06713 0.67698 0.0
H841 H 0.01409 0.03761 0.49988 0.0
H842 H 1.00111 0.12657 0.64571 0.0
H843 H 0.02412 0.1175 0.69046 0.0
H844 H 0.99479 0.10682 0.71095 0.0
H845 H 0.04087 0.05899 0.43308 0.0
H846 H 0.05742 0.08393 0.47075 0.0
H847 H 0.03243 0.08832 0.42674 0.0
C848 C 0.36257 0.9907 0.48884 0.0
C849 C 0.3597 0.01473 0.48712 0.0
C850 C 0.38224 0.98308 0.51483 0.0
C851 C 0.39926 0.99993 0.54043 0.0
C852 C 0.39641 0.02426 0.53926 0.0
C853 C 0.37666 0.03141 0.51197 0.0
C854 C 0.38494 0.95702 0.51417 0.0
C855 C 0.41415 0.04265 0.56703 0.0
C856 C 0.43924 0.97823 0.66008 0.0
C857 C 0.45959 0.97764 0.62258 0.0
C858 C 0.41961 0.98608 0.63442 0.0
C859 C 0.42002 0.99198 0.56852 0.0
C860 C 0.4401 0.98991 0.52925 0.0
C861 C 0.45987 0.9831 0.55721 0.0
C862 C 0.39877 0.98884 0.67839 0.0
C863 C 0.44067 0.99491 0.45792 0.0
H864 H 0.34963 0.97785 0.46828 0.0
H865 H 0.37437 0.04999 0.51035 0.0
H866 H 0.4011 0.95326 0.48774 0.0
H867 H 0.3862 0.95133 0.56454 0.0
H868 H 0.37034 0.94628 0.49082 0.0
H869 H 0.41506 0.04076 0.6202 0.0
H870 H 0.4314 0.04005 0.54567 0.0
H871 H 0.41017 0.06085 0.55807 0.0
H872 H 0.43902 0.97379 0.71064 0.0
H873 H 0.4756 0.98221 0.52825 0.0
H874 H 0.38351 0.97817 0.65854 0.0
H875 H 0.39485 0.0075 0.68079 0.0
H876 H 0.40133 0.98347 0.72858 0.0
H877 H 0.42862 0.98176 0.432 0.0
H878 H 0.45812 0.99418 0.43536 0.0
H879 H 0.4348 0.01248 0.45067 0.0
C880 C 0.45777 0.35721 0.41518 0.0
C881 C 0.43808 0.34835 0.44978 0.0
C882 C 0.47135 0.37711 0.43841 0.0
C883 C 0.46496 0.38856 0.49754 0.0
C884 C 0.44529 0.37935 0.5336 0.0
C885 C 0.43213 0.35913 0.50935 0.0
C886 C 0.49214 0.38629 0.39857 0.0
C887 C 0.43721 0.39112 0.59605 0.0
C888 C 0.51068 0.43116 0.5773 0.0
C889 C 0.50484 0.45269 0.55627 0.0
C890 C 0.49776 0.41005 0.55895 0.0
C891 C 0.47844 0.4107 0.51938 0.0
C892 C 0.47256 0.4325 0.49802 0.0
C893 C 0.48617 0.45319 0.51558 0.0
C894 C 0.50507 0.38713 0.58116 0.0
C895 C 0.45174 0.43399 0.45732 0.0
H896 H 0.46239 0.34862 0.36925 0.0
H897 H 0.41681 0.35226 0.53582 0.0
H898 H 0.48982 0.40419 0.38271 0.0
H899 H 0.50772 0.38773 0.42847 0.0
H900 H 0.49519 0.3748 0.35482 0.0
H901 H 0.43163 0.37772 0.63207 0.0
H902 H 0.45047 0.40401 0.61792 0.0
H903 H 0.42201 0.40054 0.58613 0.0
H904 H 0.52526 0.43088 0.60848 0.0
H905 H 0.48168 0.4699 0.49933 0.0
H906 H 0.51611 0.38991 0.62426 0.0
H907 H 0.51506 0.37879 0.54132 0.0
H908 H 0.48999 0.37464 0.59311 0.0
H909 H 0.45348 0.42354 0.41102 0.0
H910 H 0.44924 0.4524 0.44605 0.0
H911 H 0.43609 0.42635 0.48341 0.0
C912 C 0.15291 0.58349 0.57397 0.0
C913 C 0.1541 0.59251 0.5113 0.0
C914 C 0.13168 0.57609 0.60384 0.0
C915 C 0.11113 0.57914 0.57223 0.0
C916 C 0.11206 0.59146 0.51431 0.0
C917 C 0.13339 0.59748 0.48385 0.0
C918 C 0.1315 0.56281 0.66552 0.0
C919 C 0.09043 0.59621 0.48077 0.0
C920 C 0.05975 0.5338 0.5717 0.0
C921 C 0.04473 0.54425 0.61556 0.0
C922 C 0.0821 0.54426 0.56094 0.0
C923 C 0.08904 0.56624 0.59259 0.0
C924 C 0.07395 0.57662 0.63802 0.0
C925 C 0.05201 0.56515 0.65004 0.0
C926 C 0.09802 0.5321 0.51426 0.0
C927 C 0.08046 0.60032 0.67114 0.0
H928 H 0.16842 0.58074 0.59862 0.0
H929 H 0.13325 0.60446 0.43612 0.0
H930 H 0.1168 0.56658 0.69836 0.0
H931 H 0.12971 0.54366 0.65271 0.0
H932 H 0.14772 0.567 0.69218 0.0
H933 H 0.0939 0.60993 0.44432 0.0
H934 H 0.08305 0.5798 0.45537 0.0
H935 H 0.0773 0.60196 0.51653 0.0
H936 H 0.05407 0.51732 0.54633 0.0
H937 H 0.0402 0.57298 0.68435 0.0
H938 H 0.11509 0.53156 0.53604 0.0
H939 H 0.10067 0.54209 0.46934 0.0
H940 H 0.09107 0.51381 0.50063 0.0
H941 H 0.09791 0.60108 0.69125 0.0
H942 H 0.06806 0.6045 0.71096 0.0
H943 H 0.08086 0.61415 0.63496 0.0
C944 C 0.93325 0.87067 0.81675 0.0
C945 C 0.94007 0.85384 0.85738 0.0
C946 C 0.94881 0.88958 0.79821 0.0
C947 C 0.9713 0.89207 0.82326 0.0
C948 C 0.97845 0.87453 0.86229 0.0
C949 C 0.96276 0.85547 0.87837 0.0
C950 C 0.94083 0.90747 0.75446 0.0
C951 C 0.00215 0.8766 0.89043 0.0
C952 C 0.01459 0.93717 0.74715 0.0
C953 C 0.01212 0.95698 0.78829 0.0
C954 C 0.00192 0.91559 0.75894 0.0
C955 C 0.98654 0.91397 0.81322 0.0
C956 C 0.98506 0.93364 0.85705 0.0
C957 C 0.99807 0.95491 0.84431 0.0
C958 C 0.0044 0.89478 0.71233 0.0
C959 C 0.96916 0.93245 0.91621 0.0
H960 H 0.91564 0.86931 0.80084 0.0
H961 H 0.96784 0.8425 0.91058 0.0
H962 H 0.95395 0.91178 0.71576 0.0
H963 H 0.92429 0.90118 0.73144 0.0
H964 H 0.93845 0.92394 0.78329 0.0
H965 H 0.00605 0.86002 0.91208 0.0
H966 H 0.01552 0.88135 0.85275 0.0
H967 H 0.00335 0.89086 0.9289 0.0
H968 H 0.0259 0.93878 0.7046 0.0
H969 H 0.99624 0.97027 0.87627 0.0
H970 H 0.01014 0.87994 0.73851 0.0
H971 H 0.01695 0.89903 0.67206 0.0
H972 H 0.98748 0.88859 0.69158 0.0
H973 H 0.95131 0.92678 0.90165 0.0
H974 H 0.96924 0.94964 0.94374 0.0
H975 H 0.97437 0.91914 0.94896 0.0
C976 C 0.64176 0.97814 0.86078 0.0
C977 C 0.65657 0.99373 0.89811 0.0
C978 C 0.62253 0.98595 0.83219 0.0
C979 C 0.61813 0.00984 0.84147 0.0
C980 C 0.63344 0.02579 0.87712 0.0
C981 C 0.65243 0.01753 0.90514 0.0
C982 C 0.60654 0.96855 0.79388 0.0
C983 C 0.62928 0.05141 0.88776 0.0
C984 C 0.57675 0.03477 0.73166 0.0
C985 C 0.5562 0.032 0.76853 0.0
C986 C 0.59707 0.02741 0.75445 0.0
C987 C 0.59691 0.018 0.81669 0.0
C988 C 0.57651 0.01659 0.8558 0.0
C989 C 0.55625 0.02347 0.83088 0.0
C990 C 0.61837 0.02875 0.71083 0.0
C991 C 0.57602 0.00743 0.9234 0.0
H992 H 0.64499 0.95978 0.85482 0.0
H993 H 0.6635 0.0296 0.93503 0.0
H994 H 0.58942 0.96653 0.81894 0.0
H995 H 0.60399 0.97514 0.74507 0.0
H996 H 0.61314 0.95095 0.78792 0.0
H997 H 0.62737 0.05944 0.84049 0.0
H998 H 0.61301 0.05289 0.91617 0.0
H999 H 0.64346 0.06173 0.91411 0.0
H1000 H 0.5767 0.04152 0.68341 0.0
H1001 H 0.54039 0.02188 0.85966 0.0
H1002 H 0.62238 0.01067 0.69562 0.0
H1003 H 0.6334 0.03734 0.7372 0.0
H1004 H 0.61618 0.03855 0.66647 0.0
H1005 H 0.58109 0.98917 0.9214 0.0
H1006 H 0.55878 0.00759 0.94756 0.0
H1007 H 0.58869 0.0183 0.95373 0.0
C1008 C 0.54725 0.64293 0.92543 0.0
C1009 C 0.56866 0.64975 0.89645 0.0
C1010 C 0.53445 0.62211 0.90494 0.0
C1011 C 0.54332 0.60785 0.8541 0.0
C1012 C 0.56475 0.6151 0.82327 0.0
C1013 C 0.57722 0.63608 0.84504 0.0
C1014 C 0.51192 0.61489 0.93964 0.0
C1015 C 0.57544 0.60035 0.76998 0.0
C1016 C 0.52432 0.5425 0.8468 0.0
C1017 C 0.50767 0.54098 0.79912 0.0
C1018 C 0.53601 0.56424 0.86523 0.0
C1019 C 0.53064 0.58488 0.83575 0.0
C1020 C 0.51312 0.58348 0.78933 0.0
C1021 C 0.50176 0.56147 0.77183 0.0
C1022 C 0.55425 0.5651 0.91581 0.0
C1023 C 0.5061 0.60503 0.75813 0.0
H1024 H 0.54089 0.65359 0.96573 0.0
H1025 H 0.594 0.64131 0.82352 0.0
H1026 H 0.49779 0.6128 0.90455 0.0
H1027 H 0.51274 0.59759 0.96147 0.0
H1028 H 0.50758 0.62791 0.97868 0.0
H1029 H 0.58927 0.5912 0.79072 0.0
H1030 H 0.56299 0.58688 0.74697 0.0
H1031 H 0.58356 0.61177 0.73184 0.0
H1032 H 0.52882 0.52658 0.868 0.0
H1033 H 0.48854 0.56021 0.73567 0.0
H1034 H 0.54945 0.57651 0.95811 0.0
H1035 H 0.57089 0.57297 0.89563 0.0
H1036 H 0.55672 0.54738 0.933 0.0
H1037 H 0.49227 0.61242 0.78839 0.0
H1038 H 0.49917 0.60051 0.70908 0.0
H1039 H 0.52058 0.61894 0.75376 0.0
C1040 C 0.86828 0.40022 0.83599 0.0
C1041 C 0.85153 0.41604 0.83162 0.0
C1042 C 0.89096 0.40614 0.81401 0.0
C1043 C 0.897 0.4286 0.7889 0.0
C1044 C 0.8797 0.44373 0.77926 0.0
C1045 C 0.85708 0.43715 0.80021 0.0
C1046 C 0.90879 0.38914 0.82229 0.0
C1047 C 0.88543 0.46781 0.75264 0.0
C1048 C 0.9556 0.45925 0.82863 0.0
C1049 C 0.96686 0.45881 0.76791 0.0
C1050 C 0.93293 0.44907 0.83615 0.0
C1051 C 0.92157 0.43772 0.78183 0.0
C1052 C 0.93328 0.43642 0.72089 0.0
C1053 C 0.95575 0.44726 0.71451 0.0
C1054 C 0.92085 0.45126 0.90169 0.0
C1055 C 0.92196 0.42431 0.66193 0.0
H1056 H 0.86392 0.38385 0.86009 0.0
H1057 H 0.8442 0.44951 0.79741 0.0
H1058 H 0.92012 0.38821 0.77821 0.0
H1059 H 0.9198 0.39539 0.86366 0.0
H1060 H 0.9008 0.37116 0.83202 0.0
H1061 H 0.86979 0.47644 0.74207 0.0
H1062 H 0.89564 0.47921 0.7884 0.0
H1063 H 0.8961 0.46654 0.70753 0.0
H1064 H 0.9642 0.46831 0.86973 0.0
H1065 H 0.96456 0.44691 0.66746 0.0
H1066 H 0.91473 0.43357 0.91879 0.0
H1067 H 0.90552 0.46112 0.89757 0.0
H1068 H 0.93218 0.4605 0.93895 0.0
H1069 H 0.91127 0.40801 0.67496 0.0
H1070 H 0.93486 0.41975 0.62385 0.0
H1071 H 0.91054 0.43623 0.64083 0.0
C1072 C 0.07799 0.15926 0.04153 0.0
C1073 C 0.09028 0.1805 0.02453 0.0
C1074 C 0.07076 0.142 0.9944 0.0
C1075 C 0.07563 0.14608 0.92804 0.0
C1076 C 0.08744 0.16777 0.91006 0.0
C1077 C 0.09463 0.18482 0.95869 0.0
C1078 C 0.05806 0.11924 0.01592 0.0
C1079 C 0.0927 0.17277 0.83969 0.0
C1080 C 0.07318 0.08879 0.82715 0.0
C1081 C 0.05025 0.08653 0.80814 0.0
C1082 C 0.08231 0.10901 0.86234 0.0
C1083 C 0.06814 0.12735 0.87854 0.0
C1084 C 0.04542 0.12571 0.8557 0.0
C1085 C 0.03669 0.10521 0.82132 0.0
C1086 C 0.1066 0.11003 0.8859 0.0
C1087 C 0.02976 0.14487 0.87138 0.0
H1088 H 0.07404 0.15606 0.09227 0.0
H1089 H 0.10406 0.20124 0.94537 0.0
H1090 H 0.04084 0.1167 0.99405 0.0
H1091 H 0.0676 0.10413 0.99885 0.0
H1092 H 0.05576 0.11884 0.06955 0.0
H1093 H 0.10116 0.19082 0.83354 0.0
H1094 H 0.10416 0.1599 0.81819 0.0
H1095 H 0.07664 0.17064 0.81183 0.0
H1096 H 0.08373 0.07439 0.81663 0.0
H1097 H 0.0189 0.10345 0.80709 0.0
H1098 H 0.10618 0.10782 0.93913 0.0
H1099 H 0.11601 0.1274 0.87678 0.0
H1100 H 0.1163 0.09603 0.86209 0.0
H1101 H 0.02411 0.14428 0.92319 0.0
H1102 H 0.01423 0.14282 0.84111 0.0
H1103 H 0.03897 0.16248 0.86404 0.0
C1104 C 0.37103 0.04696 0.01627 0.0
C1105 C 0.34788 0.04168 0.99928 0.0
C1106 C 0.38923 0.04132 0.97455 0.0
C1107 C 0.38453 0.02896 0.91481 0.0
C1108 C 0.36133 0.02267 0.89776 0.0
C1109 C 0.34326 0.0293 0.93986 0.0
C1110 C 0.41363 0.0487 0.9947 0.0
C1111 C 0.35566 0.00885 0.83527 0.0
C1112 C 0.43419 0.03503 0.79118 0.0
C1113 C 0.44633 0.01582 0.80441 0.0
C1114 C 0.41343 0.03893 0.82444 0.0
C1115 C 0.40421 0.02291 0.87108 0.0
C1116 C 0.41575 0.00275 0.88194 0.0
C1117 C 0.4368 0.99962 0.8492 0.0
C1118 C 0.40206 0.0609 0.81215 0.0
C1119 C 0.4062 0.98483 0.92967 0.0
H1120 H 0.37517 0.05541 0.06307 0.0
H1121 H 0.3256 0.02489 0.92595 0.0
H1122 H 0.42294 0.03293 0.00051 0.0
H1123 H 0.42296 0.05918 0.95649 0.0
H1124 H 0.41433 0.05938 0.04113 0.0
H1125 H 0.33685 0.00446 0.83013 0.0
H1126 H 0.36238 0.01905 0.79315 0.0
H1127 H 0.36418 0.99227 0.83315 0.0
H1128 H 0.44128 0.04752 0.75615 0.0
H1129 H 0.44575 0.98439 0.85849 0.0
H1130 H 0.40334 0.07293 0.85597 0.0
H1131 H 0.38352 0.05652 0.80293 0.0
H1132 H 0.41013 0.07039 0.7702 0.0
H1133 H 0.41528 0.96858 0.92564 0.0
H1134 H 0.38761 0.98001 0.92185 0.0
H1135 H 0.40793 0.99248 0.97989 0.0
C1136 C 0.40524 0.31864 0.88946 0.0
C1137 C 0.41896 0.30838 0.93279 0.0
C1138 C 0.41459 0.33689 0.85045 0.0
C1139 C 0.43804 0.3454 0.85623 0.0
C1140 C 0.45233 0.33374 0.89587 0.0
C1141 C 0.44263 0.31519 0.93328 0.0
C1142 C 0.39894 0.3483 0.80707 0.0
C1143 C 0.47738 0.34229 0.90377 0.0
C1144 C 0.46754 0.39096 0.74444 0.0
C1145 C 0.465 0.41195 0.78067 0.0
C1146 C 0.45816 0.36916 0.76706 0.0
C1147 C 0.44678 0.36832 0.82863 0.0
C1148 C 0.44426 0.38955 0.86548 0.0
C1149 C 0.45315 0.41112 0.84064 0.0
C1150 C 0.4607 0.34708 0.72545 0.0
C1151 C 0.43253 0.38946 0.93181 0.0
H1152 H 0.38692 0.31338 0.8891 0.0
H1153 H 0.45321 0.3075 0.96739 0.0
H1154 H 0.39497 0.36551 0.82959 0.0
H1155 H 0.40749 0.35171 0.75917 0.0
H1156 H 0.38248 0.33724 0.79935 0.0
H1157 H 0.4867 0.32977 0.93024 0.0
H1158 H 0.48604 0.34505 0.85577 0.0
H1159 H 0.47874 0.3595 0.93134 0.0
H1160 H 0.47682 0.39158 0.69827 0.0
H1161 H 0.45127 0.42733 0.86892 0.0
H1162 H 0.4442 0.33574 0.72403 0.0
H1163 H 0.47362 0.33685 0.74659 0.0
H1164 H 0.46635 0.35106 0.6749 0.0
H1165 H 0.41457 0.38136 0.92812 0.0
H1166 H 0.4322 0.40745 0.95448 0.0
H1167 H 0.44154 0.37867 0.96444 0.0
C1168 C 0.1841 0.55133 0.96485 0.0
C1169 C 0.19494 0.53331 0.99204 0.0
C1170 C 0.16519 0.54626 0.92446 0.0
C1171 C 0.15711 0.52252 0.90958 0.0
C1172 C 0.16935 0.50427 0.93163 0.0
C1173 C 0.18805 0.50986 0.97294 0.0
C1174 C 0.15274 0.56632 0.90218 0.0
C1175 C 0.16175 0.47875 0.91535 0.0
C1176 C 0.09254 0.51013 0.88817 0.0
C1177 C 0.09075 0.50955 0.82056 0.0
C1178 C 0.11404 0.51409 0.91747 0.0
C1179 C 0.13438 0.51696 0.87815 0.0
C1180 C 0.13269 0.51565 0.80961 0.0
C1181 C 0.11086 0.51233 0.78162 0.0
C1182 C 0.11493 0.51578 0.99068 0.0
C1183 C 0.15392 0.51795 0.76595 0.0
H1184 H 0.18959 0.56952 0.97833 0.0
H1185 H 0.19623 0.49579 0.99369 0.0
H1186 H 0.14975 0.56431 0.8493 0.0
H1187 H 0.13565 0.56609 0.92732 0.0
H1188 H 0.16239 0.58372 0.91264 0.0
H1189 H 0.17511 0.46704 0.92647 0.0
H1190 H 0.1459 0.47336 0.94404 0.0
H1191 H 0.15759 0.47613 0.86322 0.0
H1192 H 0.07703 0.50805 0.91839 0.0
H1193 H 0.10952 0.51172 0.72924 0.0
H1194 H 0.12305 0.53335 0.00687 0.0
H1195 H 0.12566 0.50244 0.00792 0.0
H1196 H 0.09758 0.51309 0.01427 0.0
H1197 H 0.16208 0.53628 0.76968 0.0
H1198 H 0.14993 0.51346 0.71429 0.0
H1199 H 0.16671 0.50632 0.78144 0.0
C1200 C 0.91781 0.82111 0.42391 0.0
C1201 C 0.92212 0.82529 0.35799 0.0
C1202 C 0.92508 0.83823 0.47228 0.0
C1203 C 0.93695 0.85983 0.45393 0.0
C1204 C 0.94181 0.86377 0.38749 0.0
C1205 C 0.93447 0.84646 0.34063 0.0
C1206 C 0.91982 0.83339 0.54275 0.0
C1207 C 0.95459 0.88643 0.36558 0.0
C1208 C 0.93955 0.91745 0.55322 0.0
C1209 C 0.96248 0.91975 0.57214 0.0
C1210 C 0.93035 0.8971 0.51873 0.0
C1211 C 0.94447 0.87868 0.5031 0.0
C1212 C 0.96719 0.88036 0.52595 0.0
C1213 C 0.97598 0.90098 0.55968 0.0
C1214 C 0.90605 0.89603 0.49523 0.0
C1215 C 0.9828 0.86111 0.51087 0.0
H1216 H 0.90833 0.80474 0.43748 0.0
H1217 H 0.93839 0.84954 0.28981 0.0
H1218 H 0.93587 0.83562 0.57065 0.0
H1219 H 0.90833 0.84628 0.56396 0.0
H1220 H 0.91139 0.81535 0.5492 0.0
H1221 H 0.95692 0.88669 0.31193 0.0
H1222 H 0.94508 0.90161 0.38225 0.0
H1223 H 0.97179 0.889 0.38753 0.0
H1224 H 0.92903 0.93191 0.56325 0.0
H1225 H 0.99377 0.90276 0.57396 0.0
H1226 H 0.89663 0.87869 0.50474 0.0
H1227 H 0.90645 0.8981 0.44194 0.0
H1228 H 0.89638 0.9101 0.51877 0.0
H1229 H 0.97355 0.84355 0.51856 0.0
H1230 H 0.99831 0.86322 0.54123 0.0
H1231 H 0.9885 0.86154 0.45907 0.0
C1232 C 0.67621 0.98545 0.47318 0.0
C1233 C 0.6733 0.9782 0.40757 0.0
C1234 C 0.65712 0.98967 0.51445 0.0
C1235 C 0.63455 0.98591 0.49017 0.0
C1236 C 0.63152 0.97847 0.42446 0.0
C1237 C 0.65077 0.97542 0.38396 0.0
C1238 C 0.66111 0.99856 0.58361 0.0
C1239 C 0.60782 0.97379 0.39642 0.0
C1240 C 0.58136 0.97416 0.59935 0.0
C1241 C 0.57043 0.99476 0.59368 0.0
C1242 C 0.6027 0.97133 0.56803 0.0
C1243 C 0.61383 0.98992 0.53213 0.0
C1244 C 0.60345 0.01129 0.52956 0.0
C1245 C 0.58167 0.01326 0.55913 0.0
C1246 C 0.61272 0.948 0.57053 0.0
C1247 C 0.61513 0.03193 0.49435 0.0
H1248 H 0.69334 0.98787 0.49244 0.0
H1249 H 0.64792 0.97115 0.33302 0.0
H1250 H 0.65423 0.01594 0.59174 0.0
H1251 H 0.65172 0.98644 0.61791 0.0
H1252 H 0.67963 0.00044 0.59541 0.0
H1253 H 0.60832 0.96614 0.34594 0.0
H1254 H 0.59682 0.96149 0.42689 0.0
H1255 H 0.59947 0.99043 0.39619 0.0
H1256 H 0.57282 0.95988 0.62653 0.0
H1257 H 0.57358 0.02947 0.55608 0.0
H1258 H 0.63085 0.95064 0.58574 0.0
H1259 H 0.61266 0.93931 0.52127 0.0
H1260 H 0.60287 0.93599 0.60443 0.0
H1261 H 0.63343 0.03513 0.50792 0.0
H1262 H 0.6066 0.04829 0.5052 0.0
H1263 H 0.6148 0.028 0.4412 0.0
C1264 C 0.60867 0.67364 0.45957 0.0
C1265 C 0.5939 0.68429 0.42006 0.0
C1266 C 0.60021 0.65532 0.49952 0.0
C1267 C 0.57657 0.64712 0.49846 0.0
C1268 C 0.56135 0.65916 0.4628 0.0
C1269 C 0.5702 0.67778 0.42445 0.0
C1270 C 0.61688 0.64353 0.53865 0.0
C1271 C 0.53606 0.65092 0.4599 0.0
C1272 C 0.56113 0.58141 0.51314 0.0
C1273 C 0.55054 0.58046 0.57484 0.0
C1274 C 0.56977 0.60302 0.48804 0.0
C1275 C 0.56837 0.62412 0.52644 0.0
C1276 C 0.55845 0.6231 0.58988 0.0
C1277 C 0.54924 0.60129 0.61274 0.0
C1278 C 0.57989 0.60332 0.41974 0.0
C1279 C 0.55724 0.64498 0.63323 0.0
H1280 H 0.62702 0.67866 0.45607 0.0
H1281 H 0.55882 0.68577 0.39324 0.0
H1282 H 0.60954 0.63988 0.58783 0.0
H1283 H 0.62021 0.62641 0.51431 0.0
H1284 H 0.63357 0.65444 0.54359 0.0
H1285 H 0.52617 0.66366 0.43614 0.0
H1286 H 0.53384 0.6338 0.43201 0.0
H1287 H 0.52864 0.64808 0.50935 0.0
H1288 H 0.56206 0.5653 0.48365 0.0
H1289 H 0.54108 0.60053 0.66044 0.0
H1290 H 0.59798 0.61121 0.42024 0.0
H1291 H 0.57019 0.61439 0.38968 0.0
H1292 H 0.5795 0.58541 0.39614 0.0
H1293 H 0.57393 0.65602 0.63214 0.0
H1294 H 0.55271 0.64075 0.68436 0.0
H1295 H 0.54402 0.65564 0.61542 0.0
C1296 C 0.82916 0.4899 0.38483 0.0
C1297 C 0.82159 0.46593 0.37679 0.0
C1298 C 0.84643 0.49763 0.42923 0.0
C1299 C 0.85646 0.48095 0.4656 0.0
C1300 C 0.8471 0.45716 0.46252 0.0
C1301 C 0.82965 0.45 0.41862 0.0
C1302 C 0.85528 0.52332 0.4331 0.0
C1303 C 0.85707 0.43878 0.50062 0.0
C1304 C 0.92083 0.49023 0.4925 0.0
C1305 C 0.92173 0.4957 0.55926 0.0
C1306 C 0.89968 0.48579 0.46158 0.0
C1307 C 0.87886 0.4874 0.49805 0.0
C1308 C 0.87973 0.4938 0.56524 0.0
C1309 C 0.90119 0.49762 0.5952 0.0
C1310 C 0.89966 0.47868 0.3901 0.0
C1311 C 0.8581 0.49613 0.60593 0.0
H1312 H 0.82302 0.50232 0.35277 0.0
H1313 H 0.82358 0.4315 0.41322 0.0
H1314 H 0.85814 0.52944 0.48432 0.0
H1315 H 0.87205 0.52579 0.40638 0.0
H1316 H 0.8432 0.53449 0.41151 0.0
H1317 H 0.84627 0.42168 0.49851 0.0
H1318 H 0.87448 0.43588 0.48058 0.0
H1319 H 0.85897 0.44482 0.5522 0.0
H1320 H 0.9367 0.48875 0.46464 0.0
H1321 H 0.90192 0.50231 0.64667 0.0
H1322 H 0.89042 0.49107 0.36309 0.0
H1323 H 0.89042 0.46091 0.38278 0.0
H1324 H 0.91732 0.47837 0.36871 0.0
H1325 H 0.84507 0.50429 0.57863 0.0
H1326 H 0.86166 0.50683 0.65149 0.0
H1327 H 0.85055 0.4784 0.61931 0.0
loop_
_geom_bond_atom_site_label_1
_geom_bond_atom_site_label_2
_geom_bond_distance
_geom_bond_site_symmetry_2
_ccdc_geom_bond_type
C0 C1 1.391 . S
C0 C4 1.391 . S
C0 H42 0.948 . S
C1 C0 1.391 . S
C1 C2 1.391 . S
C2 C1 1.391 . S
C2 H58 0.947 . S
C2 C59 1.392 . S
C3 C4 1.391 . S
C3 C7 1.397 . S
C3 C59 1.419 . S
C4 C0 1.391 . S
C4 C3 1.391 . S
C4 C5 1.399 . S
C5 C4 1.399 . S
C5 C8 1.396 . S
C5 C17 1.453 . S
C5 C18 1.684 . S
H6 C30 0.948 . S
C7 C3 1.397 . S
C7 C8 1.394 . S
C7 C26 1.723 . S
C8 C5 1.396 . S
C8 C7 1.394 . S
C8 C38 1.723 . S
H9 C32 0.947 . S
H10 C33 0.948 . S
H11 C39 0.982 . S
H12 C40 0.979 . S
H13 C40 0.980 . S
H14 C40 0.983 . S
H15 C39 0.979 . S
H16 C39 0.977 . S
C17 C5 1.453 . S
C17 H46 0.982 . S
C17 H47 0.979 . S
C17 H48 0.977 . S
C18 C5 1.684 . S
C18 H43 0.979 . S
C18 H44 0.980 . S
C18 H45 0.983 . S
C19 C20 1.391 . S
C19 C24 1.391 . S
C19 H49 0.948 . S
C20 C19 1.391 . S
C20 C21 1.391 . S
C21 C20 1.391 . S
C21 C22 1.392 . S
C21 H50 0.947 . S
C22 C21 1.392 . S
C22 C23 1.419 . S
C22 H51 0.948 . S
C23 C22 1.419 . S
C23 C24 1.391 . S
C23 C27 1.395 1_556 S
C24 C19 1.391 . S
C24 C23 1.391 . S
C24 C25 1.399 1_556 S
C25 C24 1.399 1_554 S
C25 C26 1.396 . S
C25 C28 1.453 . S
C25 C29 1.684 . S
C26 C7 1.723 . S
C26 C25 1.396 . S
C26 C27 1.396 . S
C27 C23 1.395 1_554 S
C27 C26 1.396 . S
C27 C37 1.723 1_554 S
C28 C25 1.453 . S
C28 H52 0.982 . S
C28 H53 0.979 . S
C28 H54 0.977 . S
C29 C25 1.684 . S
C29 H55 0.979 . S
C29 H56 0.980 . S
C29 H57 0.983 . S
C30 H6 0.948 . S
C30 C31 1.391 1_556 S
C30 C35 1.391 . S
C31 C30 1.391 1_554 S
C31 C32 1.391 . S
C32 H9 0.947 . S
C32 C31 1.391 . S
C32 C33 1.392 . S
C33 H10 0.948 . S
C33 C32 1.392 . S
C33 C34 1.419 . S
C34 C33 1.419 . S
C34 C35 1.391 1_554 S
C34 C38 1.397 . S
C35 C30 1.391 . S
C35 C34 1.391 1_556 S
C35 C36 1.399 . S
C36 C35 1.399 . S
C36 C37 1.396 . S
C36 C39 1.453 . S
C36 C40 1.684 . S
C37 C27 1.723 1_556 S
C37 C36 1.396 . S
C37 C38 1.394 1_556 S
C38 C8 1.723 . S
C38 C34 1.397 . S
C38 C37 1.394 1_554 S
C39 H11 0.982 . S
C39 H15 0.979 . S
C39 H16 0.977 . S
C39 C36 1.453 . S
C40 H12 0.979 . S
C40 H13 0.980 . S
C40 H14 0.983 . S
C40 C36 1.684 . S
H41 C59 0.948 . S
H42 C0 0.948 . S
H43 C18 0.979 . S
H44 C18 0.980 . S
H45 C18 0.983 . S
H46 C17 0.982 . S
H47 C17 0.979 . S
H48 C17 0.977 . S
H49 C19 0.948 . S
H50 C21 0.947 . S
H51 C22 0.948 . S
H52 C28 0.982 . S
H53 C28 0.979 . S
H54 C28 0.977 . S
H55 C29 0.979 . S
H56 C29 0.980 . S
H57 C29 0.983 . S
H58 C2 0.947 . S
C59 C2 1.392 . S
C59 C3 1.419 . S
C59 H41 0.948 . S
C60 C61 1.391 . S
C60 C64 1.391 . S
C60 H102 0.948 . S
C61 C60 1.391 . S
C61 C62 1.391 . S
C62 C61 1.391 . S
C62 H118 0.947 . S
C62 C119 1.392 . S
C63 C64 1.391 . S
C63 C67 1.397 . S
C63 C119 1.419 . S
C64 C60 1.391 . S
C64 C63 1.391 . S
C64 C65 1.399 . S
C65 C64 1.399 . S
C65 C68 1.396 . S
C65 C77 1.453 . S
C65 C78 1.684 . S
H66 C90 0.948 . S
C67 C63 1.397 . S
C67 C68 1.394 . S
C67 C86 1.723 1_556 S
C68 C65 1.396 . S
C68 C67 1.394 . S
C68 C98 1.723 . S
H69 C92 0.947 . S
H70 C93 0.948 . S
H71 C99 0.982 . S
H72 C100 0.979 . S
H73 C100 0.980 . S
H74 C100 0.983 . S
H75 C99 0.979 . S
H76 C99 0.977 . S
C77 C65 1.453 . S
C77 H106 0.982 . S
C77 H107 0.979 . S
C77 H108 0.977 . S
C78 C65 1.684 . S
C78 H103 0.979 . S
C78 H104 0.980 . S
C78 H105 0.983 . S
C79 C80 1.391 . S
C79 C84 1.391 . S
C79 H109 0.948 . S
C80 C79 1.391 . S
C80 C81 1.391 . S
C81 C80 1.391 . S
C81 C82 1.392 . S
C81 H110 0.947 . S
C82 C81 1.392 . S
C82 C83 1.419 . S
C82 H111 0.948 . S
C83 C82 1.419 . S
C83 C84 1.391 . S
C83 C87 1.397 . S
C84 C79 1.391 . S
C84 C83 1.391 . S
C84 C85 1.399 . S
C85 C84 1.399 . S
C85 C86 1.396 . S
C85 C88 1.453 . S
C85 C89 1.684 . S
C86 C67 1.723 1_554 S
C86 C85 1.396 . S
C86 C87 1.394 . S
C87 C83 1.397 . S
C87 C86 1.394 . S
C87 C97 1.723 . S
C88 C85 1.453 . S
C88 H112 0.982 . S
C88 H113 0.979 . S
C88 H114 0.977 . S
C89 C85 1.684 . S
C89 H115 0.979 . S
C89 H116 0.980 . S
C89 H117 0.983 . S
C90 H66 0.948 . S
C90 C91 1.391 1_554 S
C90 C95 1.391 . S
C91 C90 1.391 1_556 S
C91 C92 1.391 . S
C92 H69 0.947 . S
C92 C91 1.391 . S
C92 C93 1.392 . S
C93 H70 0.948 . S
C93 C92 1.392 . S
C93 C94 1.419 . S
C94 C93 1.419 . S
C94 C95 1.391 1_556 S
C94 C98 1.397 . S
C95 C90 1.391 . S
C95 C94 1.391 1_554 S
C95 C96 1.399 . S
C96 C95 1.399 . S
C96 C97 1.396 . S
C96 C99 1.453 . S
C96 C100 1.684 . S
C97 C87 1.723 . S
C97 C96 1.396 . S
C97 C98 1.394 1_554 S
C98 C68 1.723 . S
C98 C94 1.397 . S
C98 C97 1.394 1_556 S
C99 H71 0.982 . S
C99 H75 0.979 . S
C99 H76 0.977 . S
C99 C96 1.453 . S
C100 H72 0.979 . S
C100 H73 0.980 . S
C100 H74 0.983 . S
C100 C96 1.684 . S
H101 C119 0.948 . S
H102 C60 0.948 . S
H103 C78 0.979 . S
H104 C78 0.980 . S
H105 C78 0.983 . S
H106 C77 0.982 . S
H107 C77 0.979 . S
H108 C77 0.977 . S
H109 C79 0.948 . S
H110 C81 0.947 . S
H111 C82 0.948 . S
H112 C88 0.982 . S
H113 C88 0.979 . S
H114 C88 0.977 . S
H115 C89 0.979 . S
H116 C89 0.980 . S
H117 C89 0.983 . S
H118 C62 0.947 . S
C119 C62 1.392 . S
C119 C63 1.419 . S
C119 H101 0.948 . S
C120 C121 1.391 . S
C120 C124 1.391 . S
C120 H162 0.948 . S
C121 C120 1.391 . S
C121 C122 1.391 1_554 S
C122 C121 1.391 1_556 S
C122 H178 0.947 . S
C122 C179 1.392 . S
C123 C124 1.391 . S
C123 C127 1.397 1_565 S
C123 C179 1.419 1_554 S
C124 C120 1.391 . S
C124 C123 1.391 . S
C124 C125 1.399 . S
C125 C124 1.399 . S
C125 C128 1.396 1_565 S
C125 C137 1.453 1_565 S
C125 C138 1.684 . S
H126 C150 0.948 . S
C127 C123 1.397 1_545 S
C127 C128 1.394 . S
C127 C146 1.722 . S
C128 C125 1.396 1_545 S
C128 C127 1.394 . S
C128 C158 1.723 . S
H129 C152 0.947 . S
H130 C153 0.948 . S
H131 C159 0.982 . S
H132 C160 0.979 . S
H133 C160 0.980 . S
H134 C160 0.983 . S
H135 C159 0.979 . S
H136 C159 0.977 . S
C137 C125 1.453 1_545 S
C137 H166 0.982 . S
C137 H167 0.979 . S
C137 H168 0.977 . S
C138 C125 1.684 . S
C138 H163 0.979 . S
C138 H164 0.980 . S
C138 H165 0.983 . S
C139 C140 1.391 . S
C139 C144 1.391 . S
C139 H169 0.948 . S
C140 C139 1.391 . S
C140 C141 1.391 . S
C141 C140 1.391 . S
C141 C142 1.392 1_556 S
C141 H170 0.947 . S
C142 C141 1.392 1_554 S
C142 C143 1.419 . S
C142 H171 0.948 . S
C143 C142 1.419 . S
C143 C144 1.391 1_554 S
C143 C147 1.397 1_565 S
C144 C139 1.391 . S
C144 C143 1.391 1_556 S
C144 C145 1.399 . S
C145 C144 1.399 . S
C145 C146 1.396 1_566 S
C145 C148 1.453 1_565 S
C145 C149 1.684 . S
C146 C127 1.722 . S
C146 C145 1.396 1_544 S
C146 C147 1.394 . S
C147 C143 1.397 1_545 S
C147 C146 1.394 . S
C147 C157 1.723 . S
C148 C145 1.453 1_545 S
C148 H172 0.982 . S
C148 H173 0.979 . S
C148 H174 0.977 . S
C149 C145 1.684 . S
C149 H175 0.979 . S
C149 H176 0.980 . S
C149 H177 0.983 . S
C150 H126 0.948 . S
C150 C151 1.391 . S
C150 C155 1.391 . S
C151 C150 1.391 . S
C151 C152 1.391 . S
C152 H129 0.947 . S
C152 C151 1.391 . S
C152 C153 1.392 . S
C153 H130 0.948 . S
C153 C152 1.392 . S
C153 C154 1.419 . S
C154 C153 1.419 . S
C154 C155 1.391 . S
C154 C158 1.397 1_565 S
C155 C150 1.391 . S
C155 C154 1.391 . S
C155 C156 1.399 . S
C156 C155 1.399 . S
C156 C157 1.396 1_565 S
C156 C159 1.453 1_565 S
C156 C160 1.684 . S
C157 C147 1.723 . S
C157 C156 1.396 1_545 S
C157 C158 1.394 . S
C158 C128 1.723 . S
C158 C154 1.397 1_545 S
C158 C157 1.394 . S
C159 H131 0.982 . S
C159 H135 0.979 . S
C159 H136 0.977 . S
C159 C156 1.453 1_545 S
C160 H132 0.979 . S
C160 H133 0.980 . S
C160 H134 0.983 . S
C160 C156 1.684 . S
H161 C179 0.948 . S
H162 C120 0.948 . S
H163 C138 0.979 . S
H164 C138 0.980 . S
H165 C138 0.983 . S
H166 C137 0.982 . S
H167 C137 0.979 . S
H168 C137 0.977 . S
H169 C139 0.948 . S
H170 C141 0.947 . S
H171 C142 0.948 . S
H172 C148 0.982 . S
H173 C148 0.979 . S
H174 C148 0.977 . S
H175 C149 0.979 . S
H176 C149 0.980 . S
H177 C149 0.983 . S
H178 C122 0.947 . S
C179 C122 1.392 . S
C179 C123 1.419 1_556 S
C179 H161 0.948 . S
C180 C181 1.391 . S
C180 C184 1.391 . S
C180 H222 0.948 . S
C181 C180 1.391 . S
C181 C182 1.391 . S
C182 C181 1.391 . S
C182 H238 0.947 . S
C182 C239 1.392 . S
C183 C184 1.391 . S
C183 C187 1.397 . S
C183 C239 1.419 . S
C184 C180 1.391 . S
C184 C183 1.391 . S
C184 C185 1.399 . S
C185 C184 1.399 . S
C185 C188 1.396 . S
C185 C197 1.453 . S
C185 C198 1.684 . S
H186 C210 0.948 . S
C187 C183 1.397 . S
C187 C188 1.394 . S
C187 C206 1.723 . S
C188 C185 1.396 . S
C188 C187 1.394 . S
C188 C218 1.723 . S
H189 C212 0.947 . S
H190 C213 0.948 . S
H191 C219 0.982 . S
H192 C220 0.979 . S
H193 C220 0.980 . S
H194 C220 0.983 . S
H195 C219 0.979 . S
H196 C219 0.977 . S
C197 C185 1.453 . S
C197 H226 0.982 . S
C197 H227 0.979 . S
C197 H228 0.977 . S
C198 C185 1.684 . S
C198 H223 0.979 . S
C198 H224 0.980 . S
C198 H225 0.983 . S
C199 C200 1.391 . S
C199 C204 1.391 . S
C199 H229 0.948 . S
C200 C199 1.391 . S
C200 C201 1.391 . S
C201 C200 1.391 . S
C201 C202 1.392 . S
C201 H230 0.947 . S
C202 C201 1.392 . S
C202 C203 1.419 . S
C202 H231 0.948 . S
C203 C202 1.419 . S
C203 C204 1.391 . S
C203 C207 1.397 1_556 S
C204 C199 1.391 . S
C204 C203 1.391 . S
C204 C205 1.399 1_556 S
C205 C204 1.399 1_554 S
C205 C206 1.396 . S
C205 C208 1.453 . S
C205 C209 1.684 . S
C206 C187 1.723 . S
C206 C205 1.396 . S
C206 C207 1.394 . S
C207 C203 1.397 1_554 S
C207 C206 1.394 . S
C207 C217 1.723 . S
C208 C205 1.453 . S
C208 H232 0.982 . S
C208 H233 0.979 . S
C208 H234 0.977 . S
C209 C205 1.684 . S
C209 H235 0.979 . S
C209 H236 0.980 . S
C209 H237 0.983 . S
C210 H186 0.948 . S
C210 C211 1.391 1_556 S
C210 C215 1.391 1_556 S
C211 C210 1.391 1_554 S
C211 C212 1.391 . S
C212 H189 0.947 . S
C212 C211 1.391 . S
C212 C213 1.392 . S
C213 H190 0.948 . S
C213 C212 1.392 . S
C213 C214 1.419 . S
C214 C213 1.419 . S
C214 C215 1.391 . S
C214 C218 1.397 . S
C215 C210 1.391 1_554 S
C215 C214 1.391 . S
C215 C216 1.399 1_554 S
C216 C215 1.399 1_556 S
C216 C217 1.396 1_556 S
C216 C219 1.453 . S
C216 C220 1.684 . S
C217 C207 1.723 . S
C217 C216 1.396 1_554 S
C217 C218 1.394 . S
C218 C188 1.723 . S
C218 C214 1.397 . S
C218 C217 1.394 . S
C219 H191 0.982 . S
C219 H195 0.979 . S
C219 H196 0.977 . S
C219 C216 1.453 . S
C220 H192 0.979 . S
C220 H193 0.980 . S
C220 H194 0.983 . S
C220 C216 1.684 . S
H221 C239 0.948 . S
H222 C180 0.948 . S
H223 C198 0.979 . S
H224 C198 0.980 . S
H225 C198 0.983 . S
H226 C197 0.982 . S
H227 C197 0.979 . S
H228 C197 0.977 . S
H229 C199 0.948 . S
H230 C201 0.947 . S
H231 C202 0.948 . S
H232 C208 0.982 . S
H233 C208 0.979 . S
H234 C208 0.977 . S
H235 C209 0.979 . S
H236 C209 0.980 . S
H237 C209 0.983 . S
H238 C182 0.947 . S
C239 C182 1.392 . S
C239 C183 1.419 . S
C239 H221 0.948 . S
C240 C241 1.391 . S
C240 C244 1.391 . S
C240 H282 0.948 . S
C241 C240 1.391 . S
C241 C242 1.391 . S
C242 C241 1.391 . S
C242 H298 0.947 . S
C242 C299 1.392 . S
C243 C244 1.391 . S
C243 C247 1.397 . S
C243 C299 1.419 . S
C244 C240 1.391 . S
C244 C243 1.391 . S
C244 C245 1.399 . S
C245 C244 1.399 . S
C245 C248 1.396 . S
C245 C257 1.453 . S
C245 C258 1.684 . S
H246 C270 0.948 . S
C247 C243 1.397 . S
C247 C248 1.394 . S
C247 C266 1.723 . S
C248 C245 1.396 . S
C248 C247 1.394 . S
C248 C278 1.723 . S
H249 C272 0.947 . S
H250 C273 0.948 . S
H251 C279 0.982 . S
H252 C280 0.979 . S
H253 C280 0.980 . S
H254 C280 0.983 . S
H255 C279 0.979 . S
H256 C279 0.977 . S
C257 C245 1.453 . S
C257 H286 0.982 . S
C257 H287 0.979 . S
C257 H288 0.977 . S
C258 C245 1.684 . S
C258 H283 0.979 . S
C258 H284 0.980 . S
C258 H285 0.983 . S
C259 C260 1.391 . S
C259 C264 1.391 . S
C259 H289 0.948 . S
C260 C259 1.391 . S
C260 C261 1.391 . S
C261 C260 1.391 . S
C261 C262 1.392 . S
C261 H290 0.947 . S
C262 C261 1.392 . S
C262 C263 1.419 . S
C262 H291 0.948 . S
C263 C262 1.419 . S
C263 C264 1.391 . S
C263 C267 1.397 . S
C264 C259 1.391 . S
C264 C263 1.391 . S
C264 C265 1.399 . S
C265 C264 1.399 . S
C265 C266 1.396 . S
C265 C268 1.453 . S
C265 C269 1.684 . S
C266 C247 1.723 . S
C266 C265 1.396 . S
C266 C267 1.394 . S
C267 C263 1.397 . S
C267 C266 1.394 . S
C267 C277 1.723 . S
C268 C265 1.453 . S
C268 H292 0.982 . S
C268 H293 0.979 . S
C268 H294 0.977 . S
C269 C265 1.684 . S
C269 H295 0.979 . S
C269 H296 0.980 . S
C269 H297 0.983 . S
C270 H246 0.948 . S
C270 C271 1.391 . S
C270 C275 1.391 . S
C271 C270 1.391 . S
C271 C272 1.391 . S
C272 H249 0.947 . S
C272 C271 1.391 . S
C272 C273 1.392 . S
C273 H250 0.948 . S
C273 C272 1.392 . S
C273 C274 1.419 . S
C274 C273 1.419 . S
C274 C275 1.391 . S
C274 C278 1.397 . S
C275 C270 1.391 . S
C275 C274 1.391 . S
C275 C276 1.399 . S
C276 C275 1.399 . S
C276 C277 1.396 . S
C276 C279 1.453 . S
C276 C280 1.684 . S
C277 C267 1.723 . S
C277 C276 1.396 . S
C277 C278 1.394 . S
C278 C248 1.723 . S
C278 C274 1.397 . S
C278 C277 1.394 . S
C279 H251 0.982 . S
C279 H255 0.979 . S
C279 H256 0.977 . S
C279 C276 1.453 . S
C280 H252 0.979 . S
C280 H253 0.980 . S
C280 H254 0.983 . S
C280 C276 1.684 . S
H281 C299 0.948 . S
H282 C240 0.948 . S
H283 C258 0.979 . S
H284 C258 0.980 . S
H285 C258 0.983 . S
H286 C257 0.982 . S
H287 C257 0.979 . S
H288 C257 0.977 . S
H289 C259 0.948 . S
H290 C261 0.947 . S
H291 C262 0.948 . S
H292 C268 0.982 . S
H293 C268 0.979 . S
H294 C268 0.977 . S
H295 C269 0.979 . S
H296 C269 0.980 . S
H297 C269 0.983 . S
H298 C242 0.947 . S
C299 C242 1.392 . S
C299 C243 1.419 . S
C299 H281 0.948 . S
C300 C301 1.391 . S
C300 C304 1.391 . S
C300 H342 0.948 . S
C301 C300 1.391 . S
C301 C302 1.391 . S
C302 C301 1.391 . S
C302 H358 0.947 . S
C302 C359 1.392 . S
C303 C304 1.391 . S
C303 C307 1.397 . S
C303 C359 1.419 . S
C304 C300 1.391 . S
C304 C303 1.391 . S
C304 C305 1.399 . S
C305 C304 1.399 . S
C305 C308 1.396 . S
C305 C317 1.453 . S
C305 C318 1.684 . S
H306 C330 0.948 . S
C307 C303 1.397 . S
C307 C308 1.394 . S
C307 C326 1.723 . S
C308 C305 1.396 . S
C308 C307 1.394 . S
C308 C338 1.723 . S
H309 C332 0.947 . S
H310 C333 0.948 . S
H311 C339 0.982 . S
H312 C340 0.979 . S
H313 C340 0.980 . S
H314 C340 0.983 . S
H315 C339 0.979 . S
H316 C339 0.977 . S
C317 C305 1.453 . S
C317 H346 0.982 . S
C317 H347 0.979 . S
C317 H348 0.977 . S
C318 C305 1.684 . S
C318 H343 0.979 . S
C318 H344 0.980 . S
C318 H345 0.983 . S
C319 C320 1.391 . S
C319 C324 1.391 . S
C319 H349 0.948 . S
C320 C319 1.391 . S
C320 C321 1.391 . S
C321 C320 1.391 . S
C321 C322 1.392 . S
C321 H350 0.947 . S
C322 C321 1.392 . S
C322 C323 1.419 . S
C322 H351 0.948 . S
C323 C322 1.419 . S
C323 C324 1.391 . S
C323 C327 1.397 . S
C324 C319 1.391 . S
C324 C323 1.391 . S
C324 C325 1.399 . S
C325 C324 1.399 . S
C325 C326 1.396 . S
C325 C328 1.453 . S
C325 C329 1.684 . S
C326 C307 1.723 . S
C326 C325 1.396 . S
C326 C327 1.394 . S
C327 C323 1.397 . S
C327 C326 1.394 . S
C327 C337 1.723 . S
C328 C325 1.453 . S
C328 H352 0.982 . S
C328 H353 0.979 . S
C328 H354 0.977 . S
C329 C325 1.684 . S
C329 H355 0.979 . S
C329 H356 0.980 . S
C329 H357 0.983 . S
C330 H306 0.948 . S
C330 C331 1.391 . S
C330 C335 1.391 . S
C331 C330 1.391 . S
C331 C332 1.391 . S
C332 H309 0.947 . S
C332 C331 1.391 . S
C332 C333 1.392 . S
C333 H310 0.948 . S
C333 C332 1.392 . S
C333 C334 1.419 . S
C334 C333 1.419 . S
C334 C335 1.391 . S
C334 C338 1.397 . S
C335 C330 1.391 . S
C335 C334 1.391 . S
C335 C336 1.399 . S
C336 C335 1.399 . S
C336 C337 1.396 . S
C336 C339 1.453 . S
C336 C340 1.684 . S
C337 C327 1.723 . S
C337 C336 1.396 . S
C337 C338 1.394 . S
C338 C308 1.723 . S
C338 C334 1.397 . S
C338 C337 1.394 . S
C339 H311 0.982 . S
C339 H315 0.979 . S
C339 H316 0.977 . S
C339 C336 1.453 . S
C340 H312 0.979 . S
C340 H313 0.980 . S
C340 H314 0.983 . S
C340 C336 1.684 . S
H341 C359 0.948 . S
H342 C300 0.948 . S
H343 C318 0.979 . S
H344 C318 0.980 . S
H345 C318 0.983 . S
H346 C317 0.982 . S
H347 C317 0.979 . S
H348 C317 0.977 . S
H349 C319 0.948 . S
H350 C321 0.947 . S
H351 C322 0.948 . S
H352 C328 0.982 . S
H353 C328 0.979 . S
H354 C328 0.977 . S
H355 C329 0.979 . S
H356 C329 0.980 . S
H357 C329 0.983 . S
H358 C302 0.947 . S
C359 C302 1.392 . S
C359 C303 1.419 . S
C359 H341 0.948 . S
C360 C361 1.391 . S
C360 C364 1.391 . S
C360 H402 0.948 . S
C361 C360 1.391 . S
C361 C362 1.391 . S
C362 C361 1.391 . S
C362 H418 0.947 . S
C362 C419 1.392 . S
C363 C364 1.391 . S
C363 C367 1.397 . S
C363 C419 1.419 . S
C364 C360 1.391 . S
C364 C363 1.391 . S
C364 C365 1.399 . S
C365 C364 1.399 . S
C365 C368 1.396 . S
C365 C377 1.453 1_545 S
C365 C378 1.684 . S
H366 C390 0.948 . S
C367 C363 1.397 . S
C367 C368 1.394 . S
C367 C386 1.723 . S
C368 C365 1.396 . S
C368 C367 1.394 . S
C368 C398 1.723 . S
H369 C392 0.947 . S
H370 C393 0.948 . S
H371 C399 0.982 . S
H372 C400 0.979 . S
H373 C400 0.980 . S
H374 C400 0.983 . S
H375 C399 0.979 . S
H376 C399 0.977 . S
C377 C365 1.453 1_565 S
C377 H406 0.982 . S
C377 H407 0.979 . S
C377 H408 0.977 . S
C378 C365 1.684 . S
C378 H403 0.979 . S
C378 H404 0.980 . S
C378 H405 0.983 . S
C379 C380 1.391 . S
C379 C384 1.391 . S
C379 H409 0.948 . S
C380 C379 1.391 . S
C380 C381 1.391 . S
C381 C380 1.391 . S
C381 C382 1.392 . S
C381 H410 0.947 . S
C382 C381 1.392 . S
C382 C383 1.419 . S
C382 H411 0.948 . S
C383 C382 1.419 . S
C383 C384 1.391 . S
C383 C387 1.397 . S
C384 C379 1.391 . S
C384 C383 1.391 . S
C384 C385 1.399 . S
C385 C384 1.399 . S
C385 C386 1.396 . S
C385 C388 1.453 1_545 S
C385 C389 1.684 . S
C386 C367 1.723 . S
C386 C385 1.396 . S
C386 C387 1.394 . S
C387 C383 1.397 . S
C387 C386 1.394 . S
C387 C397 1.723 . S
C388 C385 1.453 1_565 S
C388 H412 0.982 . S
C388 H413 0.979 . S
C388 H414 0.977 . S
C389 C385 1.684 . S
C389 H415 0.979 . S
C389 H416 0.980 . S
C389 H417 0.983 . S
C390 H366 0.948 . S
C390 C391 1.391 . S
C390 C395 1.391 . S
C391 C390 1.391 . S
C391 C392 1.391 . S
C392 H369 0.947 . S
C392 C391 1.391 . S
C392 C393 1.392 . S
C393 H370 0.948 . S
C393 C392 1.392 . S
C393 C394 1.419 . S
C394 C393 1.419 . S
C394 C395 1.391 . S
C394 C398 1.397 . S
C395 C390 1.391 . S
C395 C394 1.391 . S
C395 C396 1.399 . S
C396 C395 1.399 . S
C396 C397 1.396 . S
C396 C399 1.453 1_545 S
C396 C400 1.684 . S
C397 C387 1.723 . S
C397 C396 1.396 . S
C397 C398 1.394 . S
C398 C368 1.723 . S
C398 C394 1.397 . S
C398 C397 1.394 . S
C399 H371 0.982 . S
C399 H375 0.979 . S
C399 H376 0.977 . S
C399 C396 1.453 1_565 S
C400 H372 0.979 . S
C400 H373 0.980 . S
C400 H374 0.983 . S
C400 C396 1.684 . S
H401 C419 0.948 . S
H402 C360 0.948 . S
H403 C378 0.979 . S
H404 C378 0.980 . S
H405 C378 0.983 . S
H406 C377 0.982 . S
H407 C377 0.979 . S
H408 C377 0.977 . S
H409 C379 0.948 . S
H410 C381 0.947 . S
H411 C382 0.948 . S
H412 C388 0.982 . S
H413 C388 0.979 . S
H414 C388 0.977 . S
H415 C389 0.979 . S
H416 C389 0.980 . S
H417 C389 0.983 . S
H418 C362 0.947 . S
C419 C362 1.392 . S
C419 C363 1.419 . S
C419 H401 0.948 . S
C420 C421 1.391 . S
C420 C424 1.391 . S
C420 H462 0.948 . S
C421 C420 1.391 . S
C421 C422 1.391 . S
C422 C421 1.391 . S
C422 H478 0.947 . S
C422 C479 1.392 . S
C423 C424 1.391 . S
C423 C427 1.397 . S
C423 C479 1.419 . S
C424 C420 1.391 . S
C424 C423 1.391 . S
C424 C425 1.399 . S
C425 C424 1.399 . S
C425 C428 1.396 . S
C425 C437 1.453 . S
C425 C438 1.684 . S
H426 C450 0.948 . S
C427 C423 1.397 . S
C427 C428 1.394 . S
C427 C446 1.723 . S
C428 C425 1.396 . S
C428 C427 1.394 . S
C428 C458 1.723 . S
H429 C452 0.947 . S
H430 C453 0.948 . S
H431 C459 0.982 . S
H432 C460 0.979 . S
H433 C460 0.980 . S
H434 C460 0.983 . S
H435 C459 0.979 . S
H436 C459 0.977 . S
C437 C425 1.453 . S
C437 H466 0.982 . S
C437 H467 0.979 . S
C437 H468 0.977 . S
C438 C425 1.684 . S
C438 H463 0.979 . S
C438 H464 0.980 . S
C438 H465 0.983 . S
C439 C440 1.391 . S
C439 C444 1.391 . S
C439 H469 0.948 . S
C440 C439 1.391 . S
C440 C441 1.391 . S
C441 C440 1.391 . S
C441 C442 1.392 . S
C441 H470 0.947 . S
C442 C441 1.392 . S
C442 C443 1.419 . S
C442 H471 0.948 . S
C443 C442 1.419 . S
C443 C444 1.391 . S
C443 C447 1.397 . S
C444 C439 1.391 . S
C444 C443 1.391 . S
C444 C445 1.399 . S
C445 C444 1.399 . S
C445 C446 1.396 . S
C445 C448 1.453 . S
C445 C449 1.684 . S
C446 C427 1.723 . S
C446 C445 1.396 . S
C446 C447 1.394 . S
C447 C443 1.397 . S
C447 C446 1.394 . S
C447 C457 1.723 . S
C448 C445 1.453 . S
C448 H472 0.982 . S
C448 H473 0.979 . S
C448 H474 0.977 . S
C449 C445 1.684 . S
C449 H475 0.979 . S
C449 H476 0.980 . S
C449 H477 0.983 . S
C450 H426 0.948 . S
C450 C451 1.391 . S
C450 C455 1.391 . S
C451 C450 1.391 . S
C451 C452 1.391 . S
C452 H429 0.947 . S
C452 C451 1.391 . S
C452 C453 1.392 . S
C453 H430 0.948 . S
C453 C452 1.392 . S
C453 C454 1.419 . S
C454 C453 1.419 . S
C454 C455 1.391 . S
C454 C458 1.397 . S
C455 C450 1.391 . S
C455 C454 1.391 . S
C455 C456 1.399 . S
C456 C455 1.399 . S
C456 C457 1.396 . S
C456 C459 1.453 . S
C456 C460 1.684 . S
C457 C447 1.723 . S
C457 C456 1.396 . S
C457 C458 1.394 . S
C458 C428 1.723 . S
C458 C454 1.397 . S
C458 C457 1.394 . S
C459 H431 0.982 . S
C459 H435 0.979 . S
C459 H436 0.977 . S
C459 C456 1.453 . S
C460 H432 0.979 . S
C460 H433 0.980 . S
C460 H434 0.983 . S
C460 C456 1.684 . S
H461 C479 0.948 . S
H462 C420 0.948 . S
H463 C438 0.979 . S
H464 C438 0.980 . S
H465 C438 0.983 . S
H466 C437 0.982 . S
H467 C437 0.979 . S
H468 C437 0.977 . S
H469 C439 0.948 . S
H470 C441 0.947 . S
H471 C442 0.948 . S
H472 C448 0.982 . S
H473 C448 0.979 . S
H474 C448 0.977 . S
H475 C449 0.979 . S
H476 C449 0.980 . S
H477 C449 0.983 . S
H478 C422 0.947 . S
C479 C422 1.392 . S
C479 C423 1.419 . S
C479 H461 0.948 . S
Tb480 O483 2.453 1_665 S
Tb480 O484 2.596 1_665 S
Tb480 O485 2.374 1_655 S
Tb480 O493 2.343 . S
Tb480 O495 2.353 1_565 S
Tb480 O497 2.427 . S
Tb480 O498 2.513 . S
C481 O485 1.251 . S
C481 O487 1.263 . S
Tb482 O484 2.343 . S
Tb482 O487 2.353 1_545 S
Tb482 O490 2.427 . S
Tb482 O491 2.513 . S
Tb482 O492 2.453 1_545 S
Tb482 O493 2.596 1_445 S
Tb482 O494 2.374 1_455 S
O483 Tb480 2.453 1_445 S
O483 C499 1.245 . S
O484 Tb480 2.596 1_445 S
O484 Tb482 2.343 . S
O484 C499 1.259 . S
O485 Tb480 2.374 1_455 S
O485 C481 1.251 . S
C486 O490 1.275 . S
C486 O491 1.246 . S
O487 C481 1.263 . S
O487 Tb482 2.353 1_565 S
C488 O492 1.245 1_655 S
C488 O493 1.259 . S
C489 O494 1.250 . S
C489 O495 1.263 . S
O490 Tb482 2.427 . S
O490 C486 1.275 . S
O491 Tb482 2.513 . S
O491 C486 1.246 . S
O492 Tb482 2.453 1_565 S
O492 C488 1.245 1_455 S
O493 Tb480 2.343 . S
O493 Tb482 2.596 1_665 S
O493 C488 1.259 . S
O494 Tb482 2.374 1_655 S
O494 C489 1.250 . S
O495 Tb480 2.353 1_545 S
O495 C489 1.263 . S
C496 O497 1.275 . S
C496 O498 1.246 . S
O497 Tb480 2.427 . S
O497 C496 1.275 . S
O498 Tb480 2.513 . S
O498 C496 1.246 . S
C499 O483 1.245 . S
C499 O484 1.259 . S
Tb500 O503 2.453 . S
Tb500 O504 2.596 1_545 S
Tb500 O505 2.374 . S
Tb500 O513 2.343 . S
Tb500 O515 2.353 . S
Tb500 O517 2.427 . S
Tb500 O518 2.513 . S
C501 O505 1.274 . S
C501 O507 1.241 1_545 S
Tb502 O504 2.343 . S
Tb502 O507 2.353 . S
Tb502 O510 2.427 . S
Tb502 O511 2.513 . S
Tb502 O512 2.453 . S
Tb502 O513 2.596 1_565 S
Tb502 O514 2.374 . S
O503 Tb500 2.453 . S
O503 C519 1.245 . S
O504 Tb500 2.596 1_565 S
O504 Tb502 2.343 . S
O504 C519 1.259 1_565 S
O505 Tb500 2.374 . S
O505 C501 1.274 . S
C506 O510 1.275 . S
C506 O511 1.246 . S
O507 C501 1.241 1_565 S
O507 Tb502 2.353 . S
C508 O512 1.245 . S
C508 O513 1.259 1_565 S
C509 O514 1.250 1_545 S
C509 O515 1.263 . S
O510 Tb502 2.427 . S
O510 C506 1.275 . S
O511 Tb502 2.513 . S
O511 C506 1.246 . S
O512 Tb502 2.453 . S
O512 C508 1.245 . S
O513 Tb500 2.343 . S
O513 Tb502 2.596 1_545 S
O513 C508 1.259 1_545 S
O514 Tb502 2.374 . S
O514 C509 1.250 1_565 S
O515 Tb500 2.353 . S
O515 C509 1.263 . S
C516 O517 1.275 . S
C516 O518 1.246 . S
O517 Tb500 2.427 . S
O517 C516 1.275 . S
O518 Tb500 2.513 . S
O518 C516 1.246 . S
C519 O503 1.245 . S
C519 O504 1.259 1_545 S
Tb520 O523 2.453 . S
Tb520 O524 2.596 . S
Tb520 O525 2.374 . S
Tb520 O533 2.343 . S
Tb520 O535 2.353 . S
Tb520 O537 2.427 . S
Tb520 O538 2.513 . S
C521 O525 1.251 . S
C521 O527 1.263 . S
Tb522 O524 2.343 . S
Tb522 O527 2.353 . S
Tb522 O530 2.427 . S
Tb522 O531 2.513 . S
Tb522 O532 2.453 . S
Tb522 O533 2.596 . S
Tb522 O534 2.374 . S
O523 Tb520 2.453 . S
O523 C539 1.245 . S
O524 Tb520 2.596 . S
O524 Tb522 2.343 . S
O524 C539 1.259 . S
O525 Tb520 2.374 . S
O525 C521 1.251 . S
C526 O530 1.275 . S
C526 O531 1.246 . S
O527 C521 1.263 . S
O527 Tb522 2.353 . S
C528 O532 1.245 . S
C528 O533 1.259 . S
C529 O534 1.250 . S
C529 O535 1.263 . S
O530 Tb522 2.427 . S
O530 C526 1.275 . S
O531 Tb522 2.513 . S
O531 C526 1.246 . S
O532 Tb522 2.453 . S
O532 C528 1.245 . S
O533 Tb520 2.343 . S
O533 Tb522 2.596 . S
O533 C528 1.259 . S
O534 Tb522 2.374 . S
O534 C529 1.250 . S
O535 Tb520 2.353 . S
O535 C529 1.263 . S
C536 O537 1.275 . S
C536 O538 1.246 . S
O537 Tb520 2.427 . S
O537 C536 1.275 . S
O538 Tb520 2.513 . S
O538 C536 1.246 . S
C539 O523 1.245 . S
C539 O524 1.259 . S
Tb540 O543 2.453 1_655 S
Tb540 O544 2.596 1_655 S
Tb540 O545 2.374 1_655 S
Tb540 O553 2.343 . S
Tb540 O555 2.353 . S
Tb540 O557 2.427 . S
Tb540 O558 2.513 . S
C541 O545 1.251 . S
C541 O547 1.263 . S
Tb542 O544 2.343 . S
Tb542 O547 2.353 . S
Tb542 O550 2.427 . S
Tb542 O551 2.513 . S
Tb542 O552 2.453 1_455 S
Tb542 O553 2.596 1_455 S
Tb542 O554 2.374 . S
O543 Tb540 2.453 1_455 S
O543 C559 1.245 . S
O544 Tb540 2.596 1_455 S
O544 Tb542 2.343 . S
O544 C559 1.259 . S
O545 Tb540 2.374 1_455 S
O545 C541 1.251 . S
C546 O550 1.275 . S
C546 O551 1.246 . S
O547 C541 1.263 . S
O547 Tb542 2.353 . S
C548 O552 1.245 . S
C548 O553 1.259 . S
C549 O554 1.250 1_655 S
C549 O555 1.263 . S
O550 Tb542 2.427 . S
O550 C546 1.275 . S
O551 Tb542 2.513 . S
O551 C546 1.246 . S
O552 Tb542 2.453 1_655 S
O552 C548 1.245 . S
O553 Tb540 2.343 . S
O553 Tb542 2.596 1_655 S
O553 C548 1.259 . S
O554 Tb542 2.374 . S
O554 C549 1.250 1_455 S
O555 Tb540 2.353 . S
O555 C549 1.263 . S
C556 O557 1.275 . S
C556 O558 1.246 . S
O557 Tb540 2.427 . S
O557 C556 1.275 . S
O558 Tb540 2.513 . S
O558 C556 1.246 . S
C559 O543 1.245 . S
C559 O544 1.259 . S
C560 C561 1.391 . S
C560 C562 1.394 . S
C560 H576 0.931 . S
C561 C560 1.391 . S
C561 C565 1.376 . S
C562 C560 1.394 . S
C562 C563 1.369 . S
C562 C566 1.531 . S
C563 C562 1.369 . S
C563 C564 1.410 . S
C563 C571 1.503 . S
C564 C563 1.410 . S
C564 C565 1.392 . S
C564 C567 1.511 1_545 S
C565 C561 1.376 . S
C565 C564 1.392 . S
C565 H577 0.929 1_545 S
C566 C562 1.531 . S
C566 H578 0.960 . S
C566 H579 0.926 1_545 S
C566 H580 0.960 . S
C567 C564 1.511 1_565 S
C567 H581 0.985 . S
C567 H582 0.982 . S
C567 H583 0.918 1_565 S
C568 C569 1.370 . S
C568 C570 1.363 . S
C568 H584 0.931 . S
C569 C568 1.370 . S
C569 C573 1.408 1_565 S
C570 C568 1.363 . S
C570 C571 1.370 1_565 S
C570 C574 1.524 . S
C571 C563 1.503 . S
C571 C570 1.370 1_545 S
C571 C572 1.403 . S
C572 C571 1.403 . S
C572 C573 1.404 . S
C572 C575 1.539 . S
C573 C569 1.408 1_545 S
C573 C572 1.404 . S
C573 H585 0.930 . S
C574 C570 1.524 . S
C574 H586 0.956 . S
C574 H587 0.961 . S
C574 H588 0.961 . S
C575 C572 1.539 . S
C575 H589 0.958 . S
C575 H590 0.961 . S
C575 H591 0.960 . S
H576 C560 0.931 . S
H577 C565 0.929 1_565 S
H578 C566 0.960 . S
H579 C566 0.926 1_565 S
H580 C566 0.960 . S
H581 C567 0.985 . S
H582 C567 0.982 . S
H583 C567 0.918 1_545 S
H584 C568 0.931 . S
H585 C573 0.930 . S
H586 C574 0.956 . S
H587 C574 0.961 . S
H588 C574 0.961 . S
H589 C575 0.958 . S
H590 C575 0.961 . S
H591 C575 0.960 . S
C592 C593 1.391 . S
C592 C594 1.394 . S
C592 H608 0.931 . S
C593 C592 1.391 . S
C593 C597 1.376 . S
C594 C592 1.394 . S
C594 C595 1.369 . S
C594 C598 1.531 . S
C595 C594 1.369 . S
C595 C596 1.410 . S
C595 C603 1.503 . S
C596 C595 1.410 . S
C596 C597 1.392 . S
C596 C599 1.511 . S
C597 C593 1.376 . S
C597 C596 1.392 . S
C597 H609 0.929 . S
C598 C594 1.531 . S
C598 H610 0.960 . S
C598 H611 0.962 . S
C598 H612 0.960 . S
C599 C596 1.511 . S
C599 H613 0.961 . S
C599 H614 0.961 . S
C599 H615 0.961 . S
C600 C601 1.370 . S
C600 C602 1.363 . S
C600 H616 0.931 . S
C601 C600 1.370 . S
C601 C605 1.408 . S
C602 C600 1.363 . S
C602 C603 1.370 . S
C602 C606 1.524 . S
C603 C595 1.503 . S
C603 C602 1.370 . S
C603 C604 1.403 . S
C604 C603 1.403 . S
C604 C605 1.404 . S
C604 C607 1.539 . S
C605 C601 1.408 . S
C605 C604 1.404 . S
C605 H617 0.930 . S
C606 C602 1.524 . S
C606 H618 0.956 . S
C606 H619 0.961 . S
C606 H620 0.961 . S
C607 C604 1.539 . S
C607 H621 0.958 . S
C607 H622 0.961 . S
C607 H623 0.960 . S
H608 C592 0.931 . S
H609 C597 0.929 . S
H610 C598 0.960 . S
H611 C598 0.962 . S
H612 C598 0.960 . S
H613 C599 0.961 . S
H614 C599 0.961 . S
H615 C599 0.961 . S
H616 C600 0.931 . S
H617 C605 0.930 . S
H618 C606 0.956 . S
H619 C606 0.961 . S
H620 C606 0.961 . S
H621 C607 0.958 . S
H622 C607 0.961 . S
H623 C607 0.960 . S
C624 C625 1.391 . S
C624 C626 1.394 . S
C624 H640 0.931 . S
C625 C624 1.391 . S
C625 C629 1.376 . S
C626 C624 1.394 . S
C626 C627 1.369 . S
C626 C630 1.531 . S
C627 C626 1.369 . S
C627 C628 1.410 . S
C627 C635 1.503 . S
C628 C627 1.410 . S
C628 C629 1.392 . S
C628 C631 1.511 . S
C629 C625 1.376 . S
C629 C628 1.392 . S
C629 H641 0.929 . S
C630 C626 1.531 . S
C630 H642 0.960 . S
C630 H643 0.962 . S
C630 H644 0.960 . S
C631 C628 1.511 . S
C631 H645 0.961 . S
C631 H646 0.961 . S
C631 H647 0.961 . S
C632 C633 1.370 . S
C632 C634 1.363 . S
C632 H648 0.931 . S
C633 C632 1.370 . S
C633 C637 1.408 . S
C634 C632 1.363 . S
C634 C635 1.370 . S
C634 C638 1.524 . S
C635 C627 1.503 . S
C635 C634 1.370 . S
C635 C636 1.403 . S
C636 C635 1.403 . S
C636 C637 1.404 . S
C636 C639 1.539 . S
C637 C633 1.408 . S
C637 C636 1.404 . S
C637 H649 0.930 . S
C638 C634 1.524 . S
C638 H650 0.956 . S
C638 H651 0.961 . S
C638 H652 0.961 . S
C639 C636 1.539 . S
C639 H653 0.958 . S
C639 H654 0.961 . S
C639 H655 0.960 . S
H640 C624 0.931 . S
H641 C629 0.929 . S
H642 C630 0.960 . S
H643 C630 0.962 . S
H644 C630 0.960 . S
H645 C631 0.961 . S
H646 C631 0.961 . S
H647 C631 0.961 . S
H648 C632 0.931 . S
H649 C637 0.930 . S
H650 C638 0.956 . S
H651 C638 0.961 . S
H652 C638 0.961 . S
H653 C639 0.958 . S
H654 C639 0.961 . S
H655 C639 0.960 . S
C656 C657 1.391 . S
C656 C658 1.394 . S
C656 H672 0.931 . S
C657 C656 1.391 . S
C657 C661 1.376 . S
C658 C656 1.394 . S
C658 C659 1.369 . S
C658 C662 1.531 . S
C659 C658 1.369 . S
C659 C660 1.410 . S
C659 C667 1.503 . S
C660 C659 1.410 . S
C660 C661 1.392 . S
C660 C663 1.511 . S
C661 C657 1.376 . S
C661 C660 1.392 . S
C661 H673 0.929 . S
C662 C658 1.531 . S
C662 H674 0.960 . S
C662 H675 0.962 . S
C662 H676 0.960 . S
C663 C660 1.511 . S
C663 H677 0.961 . S
C663 H678 0.961 . S
C663 H679 0.961 . S
C664 C665 1.370 . S
C664 C666 1.363 . S
C664 H680 0.931 . S
C665 C664 1.370 . S
C665 C669 1.408 . S
C666 C664 1.363 . S
C666 C667 1.370 . S
C666 C670 1.524 . S
C667 C659 1.503 . S
C667 C666 1.370 . S
C667 C668 1.403 . S
C668 C667 1.403 . S
C668 C669 1.404 . S
C668 C671 1.539 . S
C669 C665 1.408 . S
C669 C668 1.404 . S
C669 H681 0.930 . S
C670 C666 1.524 . S
C670 H682 0.956 . S
C670 H683 0.961 . S
C670 H684 0.961 . S
C671 C668 1.539 . S
C671 H685 0.958 . S
C671 H686 0.961 . S
C671 H687 0.960 . S
H672 C656 0.931 . S
H673 C661 0.929 . S
H674 C662 0.960 . S
H675 C662 0.962 . S
H676 C662 0.960 . S
H677 C663 0.961 . S
H678 C663 0.961 . S
H679 C663 0.961 . S
H680 C664 0.931 . S
H681 C669 0.930 . S
H682 C670 0.956 . S
H683 C670 0.961 . S
H684 C670 0.961 . S
H685 C671 0.958 . S
H686 C671 0.961 . S
H687 C671 0.960 . S
C688 C689 1.389 . S
C688 C690 1.396 1_554 S
C688 H704 0.932 1_565 S
C689 C688 1.389 . S
C689 C693 1.376 1_554 S
C690 C688 1.396 1_556 S
C690 C691 1.369 . S
C690 C694 1.531 1_566 S
C691 C690 1.369 . S
C691 C692 1.410 . S
C691 C699 1.504 . S
C692 C691 1.410 . S
C692 C693 1.392 . S
C692 C695 1.511 . S
C693 C689 1.376 1_556 S
C693 C692 1.392 . S
C693 H705 0.929 . S
C694 C690 1.531 1_544 S
C694 H706 0.960 1_544 S
C694 H707 0.963 . S
C694 H708 0.960 1_545 S
C695 C692 1.511 . S
C695 H709 0.985 . S
C695 H710 0.943 1_565 S
C695 H711 0.961 . S
C696 C697 1.370 . S
C696 C698 1.363 . S
C696 H712 0.931 . S
C697 C696 1.370 . S
C697 C701 1.408 1_545 S
C698 C696 1.363 . S
C698 C699 1.359 1_545 S
C698 C702 1.524 . S
C699 C691 1.504 . S
C699 C698 1.359 1_565 S
C699 C700 1.413 . S
C700 C699 1.413 . S
C700 C701 1.404 . S
C700 C703 1.539 . S
C701 C697 1.408 1_565 S
C701 C700 1.404 . S
C701 H713 0.930 . S
C702 C698 1.524 . S
C702 H714 0.956 . S
C702 H715 0.961 . S
C702 H716 0.961 . S
C703 C700 1.539 . S
C703 H717 0.958 . S
C703 H718 0.961 . S
C703 H719 0.960 . S
H704 C688 0.932 1_545 S
H705 C693 0.929 . S
H706 C694 0.960 1_566 S
H707 C694 0.963 . S
H708 C694 0.960 1_565 S
H709 C695 0.985 . S
H710 C695 0.943 1_545 S
H711 C695 0.961 . S
H712 C696 0.931 . S
H713 C701 0.930 . S
H714 C702 0.956 . S
H715 C702 0.961 . S
H716 C702 0.961 . S
H717 C703 0.958 . S
H718 C703 0.961 . S
H719 C703 0.960 . S
C720 C721 1.391 1_554 S
C720 C722 1.394 1_554 S
C720 H736 0.931 . S
C721 C720 1.391 1_556 S
C721 C725 1.376 . S
C722 C720 1.394 1_556 S
C722 C723 1.369 . S
C722 C726 1.531 1_556 S
C723 C722 1.369 . S
C723 C724 1.410 . S
C723 C731 1.503 . S
C724 C723 1.410 . S
C724 C725 1.392 . S
C724 C727 1.511 . S
C725 C721 1.376 . S
C725 C724 1.392 . S
C725 H737 0.929 . S
C726 C722 1.531 1_554 S
C726 H738 0.960 1_554 S
C726 H739 0.962 . S
C726 H740 0.960 . S
C727 C724 1.511 . S
C727 H741 0.961 . S
C727 H742 0.961 . S
C727 H743 0.961 . S
C728 C729 1.370 . S
C728 C730 1.363 . S
C728 H744 0.931 . S
C729 C728 1.370 . S
C729 C733 1.408 . S
C730 C728 1.363 . S
C730 C731 1.370 . S
C730 C734 1.524 . S
C731 C723 1.503 . S
C731 C730 1.370 . S
C731 C732 1.403 . S
C732 C731 1.403 . S
C732 C733 1.404 . S
C732 C735 1.539 . S
C733 C729 1.408 . S
C733 C732 1.404 . S
C733 H745 0.930 . S
C734 C730 1.524 . S
C734 H746 0.956 . S
C734 H747 0.961 . S
C734 H748 0.961 . S
C735 C732 1.539 . S
C735 H749 0.958 . S
C735 H750 0.961 . S
C735 H751 0.960 . S
H736 C720 0.931 . S
H737 C725 0.929 . S
H738 C726 0.960 1_556 S
H739 C726 0.962 . S
H740 C726 0.960 . S
H741 C727 0.961 . S
H742 C727 0.961 . S
H743 C727 0.961 . S
H744 C728 0.931 . S
H745 C733 0.930 . S
H746 C734 0.956 . S
H747 C734 0.961 . S
H748 C734 0.961 . S
H749 C735 0.958 . S
H750 C735 0.961 . S
H751 C735 0.960 . S
C752 C753 1.391 . S
C752 C754 1.394 . S
C752 H768 0.931 . S
C753 C752 1.391 . S
C753 C757 1.376 . S
C754 C752 1.394 . S
C754 C755 1.369 . S
C754 C758 1.531 . S
C755 C754 1.369 . S
C755 C756 1.410 . S
C755 C763 1.503 . S
C756 C755 1.410 . S
C756 C757 1.392 . S
C756 C759 1.511 . S
C757 C753 1.376 . S
C757 C756 1.392 . S
C757 H769 0.929 1_556 S
C758 C754 1.531 . S
C758 H770 0.960 . S
C758 H771 0.962 . S
C758 H772 0.960 . S
C759 C756 1.511 . S
C759 H773 0.961 1_556 S
C759 H774 0.961 . S
C759 H775 0.961 . S
C760 C761 1.370 . S
C760 C762 1.363 . S
C760 H776 0.931 . S
C761 C760 1.370 . S
C761 C765 1.408 . S
C762 C760 1.363 . S
C762 C763 1.370 . S
C762 C766 1.524 . S
C763 C755 1.503 . S
C763 C762 1.370 . S
C763 C764 1.403 . S
C764 C763 1.403 . S
C764 C765 1.404 . S
C764 C767 1.539 . S
C765 C761 1.408 . S
C765 C764 1.404 . S
C765 H777 0.930 . S
C766 C762 1.524 . S
C766 H778 0.956 . S
C766 H779 0.961 . S
C766 H780 0.961 . S
C767 C764 1.539 . S
C767 H781 0.958 . S
C767 H782 0.961 . S
C767 H783 0.960 . S
H768 C752 0.931 . S
H769 C757 0.929 1_554 S
H770 C758 0.960 . S
H771 C758 0.962 . S
H772 C758 0.960 . S
H773 C759 0.961 1_554 S
H774 C759 0.961 . S
H775 C759 0.961 . S
H776 C760 0.931 . S
H777 C765 0.930 . S
H778 C766 0.956 . S
H779 C766 0.961 . S
H780 C766 0.961 . S
H781 C767 0.958 . S
H782 C767 0.961 . S
H783 C767 0.960 . S
C784 C785 1.391 . S
C784 C786 1.394 . S
C784 H800 0.931 . S
C785 C784 1.391 . S
C785 C789 1.376 . S
C786 C784 1.394 . S
C786 C787 1.369 . S
C786 C790 1.531 . S
C787 C786 1.369 . S
C787 C788 1.410 . S
C787 C795 1.503 . S
C788 C787 1.410 . S
C788 C789 1.392 . S
C788 C791 1.511 . S
C789 C785 1.376 . S
C789 C788 1.392 . S
C789 H801 0.929 . S
C790 C786 1.531 . S
C790 H802 0.960 . S
C790 H803 0.962 . S
C790 H804 0.960 1_556 S
C791 C788 1.511 . S
C791 H805 0.961 . S
C791 H806 0.961 . S
C791 H807 0.961 . S
C792 C793 1.370 . S
C792 C794 1.363 . S
C792 H808 0.931 . S
C793 C792 1.370 . S
C793 C797 1.408 . S
C794 C792 1.363 . S
C794 C795 1.370 . S
C794 C798 1.524 . S
C795 C787 1.503 . S
C795 C794 1.370 . S
C795 C796 1.403 . S
C796 C795 1.403 . S
C796 C797 1.404 . S
C796 C799 1.539 . S
C797 C793 1.408 . S
C797 C796 1.404 . S
C797 H809 0.930 . S
C798 C794 1.524 . S
C798 H810 0.956 . S
C798 H811 0.961 . S
C798 H812 0.961 . S
C799 C796 1.539 . S
C799 H813 0.958 . S
C799 H814 0.961 . S
C799 H815 0.960 . S
H800 C784 0.931 . S
H801 C789 0.929 . S
H802 C790 0.960 . S
H803 C790 0.962 . S
H804 C790 0.960 1_554 S
H805 C791 0.961 . S
H806 C791 0.961 . S
H807 C791 0.961 . S
H808 C792 0.931 . S
H809 C797 0.930 . S
H810 C798 0.956 . S
H811 C798 0.961 . S
H812 C798 0.961 . S
H813 C799 0.958 . S
H814 C799 0.961 . S
H815 C799 0.960 . S
C816 C817 1.391 . S
C816 C818 1.394 . S
C816 H832 0.931 . S
C817 C816 1.391 . S
C817 C821 1.376 . S
C818 C816 1.394 . S
C818 C819 1.369 . S
C818 C822 1.531 . S
C819 C818 1.369 . S
C819 C820 1.410 . S
C819 C827 1.503 . S
C820 C819 1.410 . S
C820 C821 1.392 . S
C820 C823 1.511 . S
C821 C817 1.376 . S
C821 C820 1.392 . S
C821 H833 0.929 . S
C822 C818 1.531 . S
C822 H834 0.960 . S
C822 H835 0.962 . S
C822 H836 0.960 . S
C823 C820 1.511 . S
C823 H837 0.961 . S
C823 H838 0.961 . S
C823 H839 0.961 . S
C824 C825 1.370 . S
C824 C826 1.363 . S
C824 H840 0.931 . S
C825 C824 1.370 . S
C825 C829 1.408 . S
C826 C824 1.363 . S
C826 C827 1.370 . S
C826 C830 1.524 . S
C827 C819 1.503 . S
C827 C826 1.370 . S
C827 C828 1.403 . S
C828 C827 1.403 . S
C828 C829 1.404 . S
C828 C831 1.539 . S
C829 C825 1.408 . S
C829 C828 1.404 . S
C829 H841 0.930 . S
C830 C826 1.524 . S
C830 H842 0.956 . S
C830 H843 0.961 . S
C830 H844 0.961 . S
C831 C828 1.539 . S
C831 H845 0.958 . S
C831 H846 0.961 . S
C831 H847 0.960 . S
H832 C816 0.931 . S
H833 C821 0.929 . S
H834 C822 0.960 . S
H835 C822 0.962 . S
H836 C822 0.960 . S
H837 C823 0.961 . S
H838 C823 0.961 . S
H839 C823 0.961 . S
H840 C824 0.931 . S
H841 C829 0.930 . S
H842 C830 0.956 . S
H843 C830 0.961 . S
H844 C830 0.961 . S
H845 C831 0.958 . S
H846 C831 0.961 . S
H847 C831 0.960 . S
C848 C849 1.391 1_565 S
C848 C850 1.394 . S
C848 H864 0.931 . S
C849 C848 1.391 1_545 S
C849 C853 1.376 . S
C850 C848 1.394 . S
C850 C851 1.369 1_565 S
C850 C854 1.531 . S
C851 C850 1.369 1_545 S
C851 C852 1.410 . S
C851 C859 1.503 . S
C852 C851 1.410 . S
C852 C853 1.392 . S
C852 C855 1.511 . S
C853 C849 1.376 . S
C853 C852 1.392 . S
C853 H865 0.929 . S
C854 C850 1.531 . S
C854 H866 0.960 . S
C854 H867 0.962 . S
C854 H868 0.960 . S
C855 C852 1.511 . S
C855 H869 0.961 . S
C855 H870 0.961 . S
C855 H871 0.961 . S
C856 C857 1.378 . S
C856 C858 1.363 . S
C856 H872 0.931 . S
C857 C856 1.378 . S
C857 C861 1.397 1_565 S
C858 C856 1.363 . S
C858 C859 1.370 1_565 S
C858 C862 1.524 . S
C859 C851 1.503 . S
C859 C858 1.370 1_545 S
C859 C860 1.403 . S
C860 C859 1.403 . S
C860 C861 1.404 . S
C860 C863 1.539 . S
C861 C857 1.397 1_545 S
C861 C860 1.404 . S
C861 H873 0.930 . S
C862 C858 1.524 . S
C862 H874 0.956 . S
C862 H875 0.961 . S
C862 H876 0.961 . S
C863 C860 1.539 . S
C863 H877 0.958 . S
C863 H878 0.961 . S
C863 H879 0.960 . S
H864 C848 0.931 . S
H865 C853 0.929 . S
H866 C854 0.960 . S
H867 C854 0.962 . S
H868 C854 0.960 . S
H869 C855 0.961 . S
H870 C855 0.961 . S
H871 C855 0.961 . S
H872 C856 0.931 . S
H873 C861 0.930 . S
H874 C862 0.956 . S
H875 C862 0.961 . S
H876 C862 0.961 . S
H877 C863 0.958 . S
H878 C863 0.961 . S
H879 C863 0.960 . S
C880 C881 1.391 . S
C880 C882 1.394 . S
C880 H896 0.931 . S
C881 C880 1.391 . S
C881 C885 1.376 . S
C882 C880 1.394 . S
C882 C883 1.369 . S
C882 C886 1.531 . S
C883 C882 1.369 . S
C883 C884 1.410 . S
C883 C891 1.503 . S
C884 C883 1.410 . S
C884 C885 1.392 . S
C884 C887 1.511 . S
C885 C881 1.376 . S
C885 C884 1.392 . S
C885 H897 0.929 . S
C886 C882 1.531 . S
C886 H898 0.960 . S
C886 H899 0.962 . S
C886 H900 0.960 . S
C887 C884 1.511 . S
C887 H901 0.961 . S
C887 H902 0.961 . S
C887 H903 0.961 . S
C888 C889 1.370 . S
C888 C890 1.363 . S
C888 H904 0.931 . S
C889 C888 1.370 . S
C889 C893 1.408 . S
C890 C888 1.363 . S
C890 C891 1.370 . S
C890 C894 1.524 . S
C891 C883 1.503 . S
C891 C890 1.370 . S
C891 C892 1.403 . S
C892 C891 1.403 . S
C892 C893 1.404 . S
C892 C895 1.539 . S
C893 C889 1.408 . S
C893 C892 1.404 . S
C893 H905 0.930 . S
C894 C890 1.524 . S
C894 H906 0.956 . S
C894 H907 0.961 . S
C894 H908 0.961 . S
C895 C892 1.539 . S
C895 H909 0.958 . S
C895 H910 0.961 . S
C895 H911 0.960 . S
H896 C880 0.931 . S
H897 C885 0.929 . S
H898 C886 0.960 . S
H899 C886 0.962 . S
H900 C886 0.960 . S
H901 C887 0.961 . S
H902 C887 0.961 . S
H903 C887 0.961 . S
H904 C888 0.931 . S
H905 C893 0.930 . S
H906 C894 0.956 . S
H907 C894 0.961 . S
H908 C894 0.961 . S
H909 C895 0.958 . S
H910 C895 0.961 . S
H911 C895 0.960 . S
C912 C913 1.391 . S
C912 C914 1.394 . S
C912 H928 0.931 . S
C913 C912 1.391 . S
C913 C917 1.376 . S
C914 C912 1.394 . S
C914 C915 1.369 . S
C914 C918 1.531 . S
C915 C914 1.369 . S
C915 C916 1.410 . S
C915 C923 1.503 . S
C916 C915 1.410 . S
C916 C917 1.392 . S
C916 C919 1.511 . S
C917 C913 1.376 . S
C917 C916 1.392 . S
C917 H929 0.929 . S
C918 C914 1.531 . S
C918 H930 0.960 . S
C918 H931 0.962 . S
C918 H932 0.960 . S
C919 C916 1.511 . S
C919 H933 0.961 . S
C919 H934 0.961 . S
C919 H935 0.961 . S
C920 C921 1.370 . S
C920 C922 1.363 . S
C920 H936 0.931 . S
C921 C920 1.370 . S
C921 C925 1.408 . S
C922 C920 1.363 . S
C922 C923 1.370 . S
C922 C926 1.524 . S
C923 C915 1.503 . S
C923 C922 1.370 . S
C923 C924 1.403 . S
C924 C923 1.403 . S
C924 C925 1.404 . S
C924 C927 1.539 . S
C925 C921 1.408 . S
C925 C924 1.404 . S
C925 H937 0.930 . S
C926 C922 1.524 . S
C926 H938 0.956 . S
C926 H939 0.961 . S
C926 H940 0.961 . S
C927 C924 1.539 . S
C927 H941 0.958 . S
C927 H942 0.961 . S
C927 H943 0.960 . S
H928 C912 0.931 . S
H929 C917 0.929 . S
H930 C918 0.960 . S
H931 C918 0.962 . S
H932 C918 0.960 . S
H933 C919 0.961 . S
H934 C919 0.961 . S
H935 C919 0.961 . S
H936 C920 0.931 . S
H937 C925 0.930 . S
H938 C926 0.956 . S
H939 C926 0.961 . S
H940 C926 0.961 . S
H941 C927 0.958 . S
H942 C927 0.961 . S
H943 C927 0.960 . S
C944 C945 1.391 . S
C944 C946 1.394 . S
C944 H960 0.931 . S
C945 C944 1.391 . S
C945 C949 1.376 . S
C946 C944 1.394 . S
C946 C947 1.369 . S
C946 C950 1.531 . S
C947 C946 1.369 . S
C947 C948 1.410 . S
C947 C955 1.503 . S
C948 C947 1.410 . S
C948 C949 1.392 . S
C948 C951 1.511 . S
C949 C945 1.376 . S
C949 C948 1.392 . S
C949 H961 0.929 . S
C950 C946 1.531 . S
C950 H962 0.960 . S
C950 H963 0.962 . S
C950 H964 0.960 . S
C951 C948 1.511 . S
C951 H965 0.961 . S
C951 H966 0.961 . S
C951 H967 0.961 . S
C952 C953 1.370 . S
C952 C954 1.363 . S
C952 H968 0.931 . S
C953 C952 1.370 . S
C953 C957 1.408 . S
C954 C952 1.363 . S
C954 C955 1.370 . S
C954 C958 1.524 . S
C955 C947 1.503 . S
C955 C954 1.370 . S
C955 C956 1.403 . S
C956 C955 1.403 . S
C956 C957 1.404 . S
C956 C959 1.539 . S
C957 C953 1.408 . S
C957 C956 1.404 . S
C957 H969 0.930 . S
C958 C954 1.524 . S
C958 H970 0.956 . S
C958 H971 0.961 . S
C958 H972 0.961 . S
C959 C956 1.539 . S
C959 H973 0.958 . S
C959 H974 0.961 . S
C959 H975 0.960 . S
H960 C944 0.931 . S
H961 C949 0.929 . S
H962 C950 0.960 . S
H963 C950 0.962 . S
H964 C950 0.960 . S
H965 C951 0.961 . S
H966 C951 0.961 . S
H967 C951 0.961 . S
H968 C952 0.931 . S
H969 C957 0.930 . S
H970 C958 0.956 . S
H971 C958 0.961 . S
H972 C958 0.961 . S
H973 C959 0.958 . S
H974 C959 0.961 . S
H975 C959 0.960 . S
C976 C977 1.391 1_545 S
C976 C978 1.394 . S
C976 H992 0.931 . S
C977 C976 1.391 1_565 S
C977 C981 1.376 . S
C978 C976 1.394 . S
C978 C979 1.369 1_545 S
C978 C982 1.531 . S
C979 C978 1.369 1_565 S
C979 C980 1.410 . S
C979 C987 1.513 . S
C980 C979 1.410 . S
C980 C981 1.392 . S
C980 C983 1.511 . S
C981 C977 1.376 . S
C981 C980 1.392 . S
C981 H993 0.929 . S
C982 C978 1.531 . S
C982 H994 0.960 . S
C982 H995 0.962 . S
C982 H996 0.960 . S
C983 C980 1.511 . S
C983 H997 0.961 . S
C983 H998 0.961 . S
C983 H999 0.961 . S
C984 C985 1.370 . S
C984 C986 1.363 . S
C984 H1000 0.931 . S
C985 C984 1.370 . S
C985 C989 1.408 1_545 S
C986 C984 1.363 . S
C986 C987 1.329 1_545 S
C986 C990 1.524 . S
C987 C979 1.513 . S
C987 C986 1.329 1_565 S
C987 C988 1.435 . S
C988 C987 1.435 . S
C988 C989 1.404 . S
C988 C991 1.539 . S
C989 C985 1.408 1_565 S
C989 C988 1.404 . S
C989 H1001 0.930 . S
C990 C986 1.524 . S
C990 H1002 0.956 . S
C990 H1003 0.961 . S
C990 H1004 0.961 . S
C991 C988 1.539 . S
C991 H1005 0.958 . S
C991 H1006 0.961 . S
C991 H1007 0.960 . S
H992 C976 0.931 . S
H993 C981 0.929 . S
H994 C982 0.960 . S
H995 C982 0.962 . S
H996 C982 0.960 . S
H997 C983 0.961 . S
H998 C983 0.961 . S
H999 C983 0.961 . S
H1000 C984 0.931 . S
H1001 C989 0.930 . S
H1002 C990 0.956 . S
H1003 C990 0.961 . S
H1004 C990 0.961 . S
H1005 C991 0.958 . S
H1006 C991 0.961 . S
H1007 C991 0.960 . S
C1008 C1009 1.391 . S
C1008 C1010 1.394 . S
C1008 H1024 0.931 . S
C1009 C1008 1.391 . S
C1009 C1013 1.376 . S
C1010 C1008 1.394 . S
C1010 C1011 1.369 . S
C1010 C1014 1.531 . S
C1011 C1010 1.369 . S
C1011 C1012 1.410 . S
C1011 C1019 1.503 . S
C1012 C1011 1.410 . S
C1012 C1013 1.392 . S
C1012 C1015 1.511 . S
C1013 C1009 1.376 . S
C1013 C1012 1.392 . S
C1013 H1025 0.929 . S
C1014 C1010 1.531 . S
C1014 H1026 0.960 . S
C1014 H1027 0.962 . S
C1014 H1028 0.960 . S
C1015 C1012 1.511 . S
C1015 H1029 0.961 . S
C1015 H1030 0.961 . S
C1015 H1031 0.961 . S
C1016 C1017 1.370 . S
C1016 C1018 1.363 . S
C1016 H1032 0.931 . S
C1017 C1016 1.370 . S
C1017 C1021 1.408 . S
C1018 C1016 1.363 . S
C1018 C1019 1.370 . S
C1018 C1022 1.524 . S
C1019 C1011 1.503 . S
C1019 C1018 1.370 . S
C1019 C1020 1.403 . S
C1020 C1019 1.403 . S
C1020 C1021 1.404 . S
C1020 C1023 1.539 . S
C1021 C1017 1.408 . S
C1021 C1020 1.404 . S
C1021 H1033 0.930 . S
C1022 C1018 1.524 . S
C1022 H1034 0.956 . S
C1022 H1035 0.961 . S
C1022 H1036 0.961 . S
C1023 C1020 1.539 . S
C1023 H1037 0.958 . S
C1023 H1038 0.961 . S
C1023 H1039 0.960 . S
H1024 C1008 0.931 . S
H1025 C1013 0.929 . S
H1026 C1014 0.960 . S
H1027 C1014 0.962 . S
H1028 C1014 0.960 . S
H1029 C1015 0.961 . S
H1030 C1015 0.961 . S
H1031 C1015 0.961 . S
H1032 C1016 0.931 . S
H1033 C1021 0.930 . S
H1034 C1022 0.956 . S
H1035 C1022 0.961 . S
H1036 C1022 0.961 . S
H1037 C1023 0.958 . S
H1038 C1023 0.961 . S
H1039 C1023 0.960 . S
C1040 C1041 1.391 . S
C1040 C1042 1.394 . S
C1040 H1056 0.931 . S
C1041 C1040 1.391 . S
C1041 C1045 1.376 . S
C1042 C1040 1.394 . S
C1042 C1043 1.369 . S
C1042 C1046 1.531 . S
C1043 C1042 1.369 . S
C1043 C1044 1.410 . S
C1043 C1051 1.503 . S
C1044 C1043 1.410 . S
C1044 C1045 1.392 . S
C1044 C1047 1.511 . S
C1045 C1041 1.376 . S
C1045 C1044 1.392 . S
C1045 H1057 0.929 . S
C1046 C1042 1.531 . S
C1046 H1058 0.960 . S
C1046 H1059 0.962 . S
C1046 H1060 0.960 . S
C1047 C1044 1.511 . S
C1047 H1061 0.961 . S
C1047 H1062 0.961 . S
C1047 H1063 0.961 . S
C1048 C1049 1.370 . S
C1048 C1050 1.363 . S
C1048 H1064 0.931 . S
C1049 C1048 1.370 . S
C1049 C1053 1.408 . S
C1050 C1048 1.363 . S
C1050 C1051 1.370 . S
C1050 C1054 1.524 . S
C1051 C1043 1.503 . S
C1051 C1050 1.370 . S
C1051 C1052 1.403 . S
C1052 C1051 1.403 . S
C1052 C1053 1.404 . S
C1052 C1055 1.539 . S
C1053 C1049 1.408 . S
C1053 C1052 1.404 . S
C1053 H1065 0.930 . S
C1054 C1050 1.524 . S
C1054 H1066 0.956 . S
C1054 H1067 0.961 . S
C1054 H1068 0.961 . S
C1055 C1052 1.539 . S
C1055 H1069 0.958 . S
C1055 H1070 0.961 . S
C1055 H1071 0.960 . S
H1056 C1040 0.931 . S
H1057 C1045 0.929 . S
H1058 C1046 0.960 . S
H1059 C1046 0.962 . S
H1060 C1046 0.960 . S
H1061 C1047 0.961 . S
H1062 C1047 0.961 . S
H1063 C1047 0.961 . S
H1064 C1048 0.931 . S
H1065 C1053 0.930 . S
H1066 C1054 0.956 . S
H1067 C1054 0.961 . S
H1068 C1054 0.961 . S
H1069 C1055 0.958 . S
H1070 C1055 0.961 . S
H1071 C1055 0.960 . S
C1072 C1073 1.391 . S
C1072 C1074 1.394 . S
C1072 H1088 0.931 . S
C1073 C1072 1.391 . S
C1073 C1077 1.376 1_554 S
C1074 C1072 1.394 . S
C1074 C1075 1.369 1_554 S
C1074 C1078 1.531 . S
C1075 C1074 1.369 1_556 S
C1075 C1076 1.410 . S
C1075 C1083 1.503 . S
C1076 C1075 1.410 . S
C1076 C1077 1.392 . S
C1076 C1079 1.511 . S
C1077 C1073 1.376 1_556 S
C1077 C1076 1.392 . S
C1077 H1089 0.929 . S
C1078 C1074 1.531 . S
C1078 H1090 0.960 1_554 S
C1078 H1091 0.962 . S
C1078 H1092 0.960 . S
C1079 C1076 1.511 . S
C1079 H1093 0.961 . S
C1079 H1094 0.961 . S
C1079 H1095 0.961 . S
C1080 C1081 1.370 . S
C1080 C1082 1.363 . S
C1080 H1096 0.931 . S
C1081 C1080 1.370 . S
C1081 C1085 1.408 . S
C1082 C1080 1.363 . S
C1082 C1083 1.370 . S
C1082 C1086 1.524 . S
C1083 C1075 1.503 . S
C1083 C1082 1.370 . S
C1083 C1084 1.403 . S
C1084 C1083 1.403 . S
C1084 C1085 1.404 . S
C1084 C1087 1.539 . S
C1085 C1081 1.408 . S
C1085 C1084 1.404 . S
C1085 H1097 0.930 . S
C1086 C1082 1.524 . S
C1086 H1098 0.956 1_556 S
C1086 H1099 0.961 . S
C1086 H1100 0.961 1_556 S
C1087 C1084 1.539 . S
C1087 H1101 0.958 . S
C1087 H1102 0.961 . S
C1087 H1103 0.960 . S
H1088 C1072 0.931 . S
H1089 C1077 0.929 . S
H1090 C1078 0.960 1_556 S
H1091 C1078 0.962 . S
H1092 C1078 0.960 . S
H1093 C1079 0.961 . S
H1094 C1079 0.961 . S
H1095 C1079 0.961 . S
H1096 C1080 0.931 . S
H1097 C1085 0.930 . S
H1098 C1086 0.956 1_554 S
H1099 C1086 0.961 . S
H1100 C1086 0.961 1_554 S
H1101 C1087 0.958 . S
H1102 C1087 0.961 . S
H1103 C1087 0.960 . S
C1104 C1105 1.391 1_565 S
C1104 C1106 1.394 . S
C1104 H1120 0.931 . S
C1105 C1104 1.391 1_545 S
C1105 C1109 1.376 . S
C1106 C1104 1.394 . S
C1106 C1107 1.377 . S
C1106 C1110 1.531 . S
C1107 C1106 1.377 . S
C1107 C1108 1.401 1_565 S
C1107 C1115 1.506 1_565 S
C1108 C1107 1.401 1_545 S
C1108 C1109 1.392 . S
C1108 C1111 1.511 . S
C1109 C1105 1.376 . S
C1109 C1108 1.392 . S
C1109 H1121 0.929 . S
C1110 C1106 1.531 . S
C1110 H1122 0.960 . S
C1110 H1123 0.962 . S
C1110 H1124 0.960 . S
C1111 C1108 1.511 . S
C1111 H1125 0.961 . S
C1111 H1126 0.961 . S
C1111 H1127 0.961 . S
C1112 C1113 1.370 . S
C1112 C1114 1.363 . S
C1112 H1128 0.931 . S
C1113 C1112 1.370 . S
C1113 C1117 1.408 1_545 S
C1114 C1112 1.363 . S
C1114 C1115 1.386 . S
C1114 C1118 1.524 . S
C1115 C1107 1.506 1_545 S
C1115 C1114 1.386 . S
C1115 C1116 1.386 1_545 S
C1116 C1115 1.386 1_565 S
C1116 C1117 1.404 . S
C1116 C1119 1.539 . S
C1117 C1113 1.408 1_565 S
C1117 C1116 1.404 . S
C1117 H1129 0.930 . S
C1118 C1114 1.524 . S
C1118 H1130 0.955 . S
C1118 H1131 0.961 . S
C1118 H1132 0.961 . S
C1119 C1116 1.539 . S
C1119 H1133 0.958 . S
C1119 H1134 0.961 . S
C1119 H1135 0.960 . S
H1120 C1104 0.931 . S
H1121 C1109 0.929 . S
H1122 C1110 0.960 . S
H1123 C1110 0.962 . S
H1124 C1110 0.960 . S
H1125 C1111 0.961 . S
H1126 C1111 0.961 . S
H1127 C1111 0.961 . S
H1128 C1112 0.931 . S
H1129 C1117 0.930 . S
H1130 C1118 0.955 . S
H1131 C1118 0.961 . S
H1132 C1118 0.961 . S
H1133 C1119 0.958 . S
H1134 C1119 0.961 . S
H1135 C1119 0.960 . S
C1136 C1137 1.391 . S
C1136 C1138 1.394 . S
C1136 H1152 0.931 . S
C1137 C1136 1.391 . S
C1137 C1141 1.376 . S
C1138 C1136 1.394 . S
C1138 C1139 1.369 . S
C1138 C1142 1.531 . S
C1139 C1138 1.369 . S
C1139 C1140 1.410 . S
C1139 C1147 1.503 . S
C1140 C1139 1.410 . S
C1140 C1141 1.392 . S
C1140 C1143 1.511 . S
C1141 C1137 1.376 . S
C1141 C1140 1.392 . S
C1141 H1153 0.929 1_556 S
C1142 C1138 1.531 . S
C1142 H1154 0.960 . S
C1142 H1155 0.962 . S
C1142 H1156 0.960 . S
C1143 C1140 1.511 . S
C1143 H1157 0.961 . S
C1143 H1158 0.961 . S
C1143 H1159 0.961 1_556 S
C1144 C1145 1.370 . S
C1144 C1146 1.363 . S
C1144 H1160 0.931 . S
C1145 C1144 1.370 . S
C1145 C1149 1.408 . S
C1146 C1144 1.363 . S
C1146 C1147 1.370 . S
C1146 C1150 1.524 . S
C1147 C1139 1.503 . S
C1147 C1146 1.370 . S
C1147 C1148 1.403 . S
C1148 C1147 1.403 . S
C1148 C1149 1.404 . S
C1148 C1151 1.539 1_556 S
C1149 C1145 1.408 . S
C1149 C1148 1.404 . S
C1149 H1161 0.930 . S
C1150 C1146 1.524 . S
C1150 H1162 0.956 . S
C1150 H1163 0.961 . S
C1150 H1164 0.961 . S
C1151 C1148 1.539 1_554 S
C1151 H1165 0.958 . S
C1151 H1166 0.961 . S
C1151 H1167 0.960 . S
H1152 C1136 0.931 . S
H1153 C1141 0.929 1_554 S
H1154 C1142 0.960 . S
H1155 C1142 0.962 . S
H1156 C1142 0.960 . S
H1157 C1143 0.961 . S
H1158 C1143 0.961 . S
H1159 C1143 0.961 1_554 S
H1160 C1144 0.931 . S
H1161 C1149 0.930 . S
H1162 C1150 0.956 . S
H1163 C1150 0.961 . S
H1164 C1150 0.961 . S
H1165 C1151 0.958 . S
H1166 C1151 0.961 . S
H1167 C1151 0.960 . S
C1168 C1169 1.391 1_554 S
C1168 C1170 1.394 1_554 S
C1168 H1184 0.931 . S
C1169 C1168 1.391 1_556 S
C1169 C1173 1.376 . S
C1170 C1168 1.394 1_556 S
C1170 C1171 1.369 . S
C1170 C1174 1.531 . S
C1171 C1170 1.369 . S
C1171 C1172 1.410 . S
C1171 C1179 1.503 . S
C1172 C1171 1.410 . S
C1172 C1173 1.392 . S
C1172 C1175 1.511 . S
C1173 C1169 1.376 . S
C1173 C1172 1.392 . S
C1173 H1185 0.929 . S
C1174 C1170 1.531 . S
C1174 H1186 0.960 . S
C1174 H1187 0.962 1_556 S
C1174 H1188 0.960 . S
C1175 C1172 1.511 . S
C1175 H1189 0.961 . S
C1175 H1190 0.961 . S
C1175 H1191 0.961 . S
C1176 C1177 1.370 . S
C1176 C1178 1.363 . S
C1176 H1192 0.931 . S
C1177 C1176 1.370 . S
C1177 C1181 1.408 . S
C1178 C1176 1.363 . S
C1178 C1179 1.370 . S
C1178 C1182 1.524 . S
C1179 C1171 1.503 . S
C1179 C1178 1.370 . S
C1179 C1180 1.403 . S
C1180 C1179 1.403 . S
C1180 C1181 1.404 . S
C1180 C1183 1.539 . S
C1181 C1177 1.408 . S
C1181 C1180 1.404 . S
C1181 H1193 0.930 . S
C1182 C1178 1.524 . S
C1182 H1194 0.956 1_556 S
C1182 H1195 0.961 . S
C1182 H1196 0.961 1_556 S
C1183 C1180 1.539 . S
C1183 H1197 0.958 . S
C1183 H1198 0.961 . S
C1183 H1199 0.960 . S
H1184 C1168 0.931 . S
H1185 C1173 0.929 . S
H1186 C1174 0.960 . S
H1187 C1174 0.962 1_554 S
H1188 C1174 0.960 . S
H1189 C1175 0.961 . S
H1190 C1175 0.961 . S
H1191 C1175 0.961 . S
H1192 C1176 0.931 . S
H1193 C1181 0.930 . S
H1194 C1182 0.956 1_554 S
H1195 C1182 0.961 . S
H1196 C1182 0.961 1_554 S
H1197 C1183 0.958 . S
H1198 C1183 0.961 . S
H1199 C1183 0.960 . S
C1200 C1201 1.391 . S
C1200 C1202 1.394 . S
C1200 H1216 0.931 . S
C1201 C1200 1.391 . S
C1201 C1205 1.376 . S
C1202 C1200 1.394 . S
C1202 C1203 1.369 . S
C1202 C1206 1.531 . S
C1203 C1202 1.369 . S
C1203 C1204 1.410 . S
C1203 C1211 1.503 . S
C1204 C1203 1.410 . S
C1204 C1205 1.392 . S
C1204 C1207 1.511 . S
C1205 C1201 1.376 . S
C1205 C1204 1.392 . S
C1205 H1217 0.929 . S
C1206 C1202 1.531 . S
C1206 H1218 0.960 . S
C1206 H1219 0.962 . S
C1206 H1220 0.960 . S
C1207 C1204 1.511 . S
C1207 H1221 0.961 . S
C1207 H1222 0.961 . S
C1207 H1223 0.961 . S
C1208 C1209 1.370 . S
C1208 C1210 1.363 . S
C1208 H1224 0.931 . S
C1209 C1208 1.370 . S
C1209 C1213 1.408 . S
C1210 C1208 1.363 . S
C1210 C1211 1.370 . S
C1210 C1214 1.524 . S
C1211 C1203 1.503 . S
C1211 C1210 1.370 . S
C1211 C1212 1.403 . S
C1212 C1211 1.403 . S
C1212 C1213 1.404 . S
C1212 C1215 1.539 . S
C1213 C1209 1.408 . S
C1213 C1212 1.404 . S
C1213 H1225 0.930 . S
C1214 C1210 1.524 . S
C1214 H1226 0.956 . S
C1214 H1227 0.961 . S
C1214 H1228 0.961 . S
C1215 C1212 1.539 . S
C1215 H1229 0.958 . S
C1215 H1230 0.961 . S
C1215 H1231 0.960 . S
H1216 C1200 0.931 . S
H1217 C1205 0.929 . S
H1218 C1206 0.960 . S
H1219 C1206 0.962 . S
H1220 C1206 0.960 . S
H1221 C1207 0.961 . S
H1222 C1207 0.961 . S
H1223 C1207 0.961 . S
H1224 C1208 0.931 . S
H1225 C1213 0.930 . S
H1226 C1214 0.956 . S
H1227 C1214 0.961 . S
H1228 C1214 0.961 . S
H1229 C1215 0.958 . S
H1230 C1215 0.961 . S
H1231 C1215 0.960 . S
C1232 C1233 1.391 . S
C1232 C1234 1.394 . S
C1232 H1248 0.931 . S
C1233 C1232 1.391 . S
C1233 C1237 1.375 . S
C1234 C1232 1.394 . S
C1234 C1235 1.369 . S
C1234 C1238 1.531 . S
C1235 C1234 1.369 . S
C1235 C1236 1.410 . S
C1235 C1243 1.503 . S
C1236 C1235 1.410 . S
C1236 C1237 1.396 . S
C1236 C1239 1.511 . S
C1237 C1233 1.375 . S
C1237 C1236 1.396 . S
C1237 H1249 0.927 1_545 S
C1238 C1234 1.531 . S
C1238 H1250 0.960 . S
C1238 H1251 0.962 1_545 S
C1238 H1252 0.960 . S
C1239 C1236 1.511 . S
C1239 H1253 0.948 1_545 S
C1239 H1254 0.952 1_545 S
C1239 H1255 0.983 . S
C1240 C1241 1.343 1_565 S
C1240 C1242 1.363 . S
C1240 H1256 0.931 . S
C1241 C1240 1.343 1_545 S
C1241 C1245 1.437 . S
C1242 C1240 1.363 . S
C1242 C1243 1.370 1_565 S
C1242 C1246 1.524 . S
C1243 C1235 1.503 . S
C1243 C1242 1.370 1_545 S
C1243 C1244 1.403 . S
C1244 C1243 1.403 . S
C1244 C1245 1.404 . S
C1244 C1247 1.539 . S
C1245 C1241 1.437 . S
C1245 C1244 1.404 . S
C1245 H1257 0.930 . S
C1246 C1242 1.524 . S
C1246 H1258 0.956 . S
C1246 H1259 0.961 . S
C1246 H1260 0.961 . S
C1247 C1244 1.539 . S
C1247 H1261 0.958 . S
C1247 H1262 0.961 . S
C1247 H1263 0.960 . S
H1248 C1232 0.931 . S
H1249 C1237 0.927 1_565 S
H1250 C1238 0.960 . S
H1251 C1238 0.962 1_565 S
H1252 C1238 0.960 . S
H1253 C1239 0.948 1_565 S
H1254 C1239 0.952 1_565 S
H1255 C1239 0.983 . S
H1256 C1240 0.931 . S
H1257 C1245 0.930 . S
H1258 C1246 0.956 . S
H1259 C1246 0.961 . S
H1260 C1246 0.961 . S
H1261 C1247 0.958 . S
H1262 C1247 0.961 . S
H1263 C1247 0.960 . S
C1264 C1265 1.391 . S
C1264 C1266 1.394 . S
C1264 H1280 0.931 . S
C1265 C1264 1.391 . S
C1265 C1269 1.376 . S
C1266 C1264 1.394 . S
C1266 C1267 1.369 . S
C1266 C1270 1.531 . S
C1267 C1266 1.369 . S
C1267 C1268 1.410 . S
C1267 C1275 1.503 . S
C1268 C1267 1.410 . S
C1268 C1269 1.392 . S
C1268 C1271 1.511 . S
C1269 C1265 1.376 . S
C1269 C1268 1.392 . S
C1269 H1281 0.929 . S
C1270 C1266 1.531 . S
C1270 H1282 0.960 . S
C1270 H1283 0.962 . S
C1270 H1284 0.960 . S
C1271 C1268 1.511 . S
C1271 H1285 0.961 . S
C1271 H1286 0.961 . S
C1271 H1287 0.961 . S
C1272 C1273 1.370 . S
C1272 C1274 1.363 . S
C1272 H1288 0.931 . S
C1273 C1272 1.370 . S
C1273 C1277 1.408 . S
C1274 C1272 1.363 . S
C1274 C1275 1.370 . S
C1274 C1278 1.524 . S
C1275 C1267 1.503 . S
C1275 C1274 1.370 . S
C1275 C1276 1.403 . S
C1276 C1275 1.403 . S
C1276 C1277 1.404 . S
C1276 C1279 1.539 . S
C1277 C1273 1.408 . S
C1277 C1276 1.404 . S
C1277 H1289 0.930 . S
C1278 C1274 1.524 . S
C1278 H1290 0.956 . S
C1278 H1291 0.961 . S
C1278 H1292 0.961 . S
C1279 C1276 1.539 . S
C1279 H1293 0.958 . S
C1279 H1294 0.961 . S
C1279 H1295 0.960 . S
H1280 C1264 0.931 . S
H1281 C1269 0.929 . S
H1282 C1270 0.960 . S
H1283 C1270 0.962 . S
H1284 C1270 0.960 . S
H1285 C1271 0.961 . S
H1286 C1271 0.961 . S
H1287 C1271 0.961 . S
H1288 C1272 0.931 . S
H1289 C1277 0.930 . S
H1290 C1278 0.956 . S
H1291 C1278 0.961 . S
H1292 C1278 0.961 . S
H1293 C1279 0.958 . S
H1294 C1279 0.961 . S
H1295 C1279 0.960 . S
C1296 C1297 1.391 . S
C1296 C1298 1.394 . S
C1296 H1312 0.931 . S
C1297 C1296 1.391 . S
C1297 C1301 1.376 . S
C1298 C1296 1.394 . S
C1298 C1299 1.369 . S
C1298 C1302 1.531 . S
C1299 C1298 1.369 . S
C1299 C1300 1.410 . S
C1299 C1307 1.503 . S
C1300 C1299 1.410 . S
C1300 C1301 1.392 . S
C1300 C1303 1.511 . S
C1301 C1297 1.376 . S
C1301 C1300 1.392 . S
C1301 H1313 0.929 . S
C1302 C1298 1.531 . S
C1302 H1314 0.960 . S
C1302 H1315 0.962 . S
C1302 H1316 0.960 . S
C1303 C1300 1.511 . S
C1303 H1317 0.961 . S
C1303 H1318 0.961 . S
C1303 H1319 0.961 . S
C1304 C1305 1.370 . S
C1304 C1306 1.363 . S
C1304 H1320 0.931 . S
C1305 C1304 1.370 . S
C1305 C1309 1.408 . S
C1306 C1304 1.363 . S
C1306 C1307 1.370 . S
C1306 C1310 1.524 . S
C1307 C1299 1.503 . S
C1307 C1306 1.370 . S
C1307 C1308 1.403 . S
C1308 C1307 1.403 . S
C1308 C1309 1.404 . S
C1308 C1311 1.539 . S
C1309 C1305 1.408 . S
C1309 C1308 1.404 . S
C1309 H1321 0.930 . S
C1310 C1306 1.524 . S
C1310 H1322 0.956 . S
C1310 H1323 0.961 . S
C1310 H1324 0.961 . S
C1311 C1308 1.539 . S
C1311 H1325 0.958 . S
C1311 H1326 0.961 . S
C1311 H1327 0.960 . S
H1312 C1296 0.931 . S
H1313 C1301 0.929 . S
H1314 C1302 0.960 . S
H1315 C1302 0.962 . S
H1316 C1302 0.960 . S
H1317 C1303 0.961 . S
H1318 C1303 0.961 . S
H1319 C1303 0.961 . S
H1320 C1304 0.931 . S
H1321 C1309 0.930 . S
H1322 C1310 0.956 . S
H1323 C1310 0.961 . S
H1324 C1310 0.961 . S
H1325 C1311 0.958 . S
H1326 C1311 0.961 . S
H1327 C1311 0.960 . S
C561 C391 1.546 . S
C569 C481 1.545 . S
C601 C516 2.249 . S
C593 C451 2.167 . S
C633 C521 1.414 . S
C625 C241 1.381 . S
C665 C541 1.948 . S
C657 C331 1.730 . S
C697 C489 1.548 . S
C689 C121 1.434 . S
C721 C211 2.098 1_556 S
C729 C506 2.248 . S
C753 C31 1.464 1_556 S
C761 C529 1.415 . S
C785 C91 1.854 . S
C793 C549 1.948 . S
C825 C499 1.493 . S
C817 C301 1.213 . S
C857 C508 0.695 . S
C849 C380 0.628 . S
C889 C539 1.634 . S
C881 C440 1.563 . S
C913 C260 0.824 . S
C921 C559 0.869 . S
C945 C61 1.288 . S
C953 C488 1.492 . S
C985 C519 0.684 . S
C977 C140 0.714 . S
C1017 C528 1.648 . S
C1009 C200 1.447 . S
C1041 C20 0.922 . S
C1049 C548 0.899 . S
C1073 C320 2.088 . S
C1081 C486 2.232 . S
C1105 C361 1.636 1_556 S
C1113 C509 1.899 . S
C1145 C526 2.379 . S
C1137 C421 2.052 1_556 S
C1177 C546 2.103 . S
C1169 C271 2.066 1_556 S
C1201 C80 2.183 . S
C1209 C496 2.232 . S
C1241 C501 1.901 . S
C1233 C151 1.827 1_545 S
C1273 C536 2.384 . S
C1265 C181 2.017 . S
C1297 C1 1.864 . S
C1305 C556 2.103 . S
