# Generated by pormake.
# Topology ssc, (4,4)-cn, num edge types: 1
# Building blocks:
#     Node 0, Type 0, BuildingBlock: CEKHIL_clean_sbu_0, # of connection points: 4
#     Node 1, Type 0, BuildingBlock: CEKHIL_clean_sbu_0, # of connection points: 4
#     Node 2, Type 0, BuildingBlock: CEKHIL_clean_sbu_0, # of connection points: 4
#     Node 3, Type 0, BuildingBlock: CEKHIL_clean_sbu_0, # of connection points: 4
#     Node 4, Type 0, BuildingBlock: CEKHIL_clean_sbu_0, # of connection points: 4
#     Node 5, Type 0, BuildingBlock: CEKHIL_clean_sbu_0, # of connection points: 4
#     Node 6, Type 0, BuildingBlock: CEKHIL_clean_sbu_0, # of connection points: 4
#     Node 7, Type 0, BuildingBlock: CEKHIL_clean_sbu_0, # of connection points: 4
#     Node 8, Type 0, BuildingBlock: CEKHIL_clean_sbu_0, # of connection points: 4
#     Node 9, Type 0, BuildingBlock: CEKHIL_clean_sbu_0, # of connection points: 4
#     Node 10, Type 0, BuildingBlock: CEKHIL_clean_sbu_0, # of connection points: 4
#     Node 11, Type 0, BuildingBlock: CEKHIL_clean_sbu_0, # of connection points: 4
#     Node 12, Type 1, BuildingBlock: KUFVIS_clean_linker_0, # of connection points: 4
#     Node 13, Type 1, BuildingBlock: KUFVIS_clean_linker_0, # of connection points: 4
#     Node 14, Type 1, BuildingBlock: KUFVIS_clean_linker_0, # of connection points: 4
#     Node 15, Type 1, BuildingBlock: KUFVIS_clean_linker_0, # of connection points: 4
#     Node 16, Type 1, BuildingBlock: KUFVIS_clean_linker_0, # of connection points: 4
#     Node 17, Type 1, BuildingBlock: KUFVIS_clean_linker_0, # of connection points: 4
#     Node 18, Type 1, BuildingBlock: KUFVIS_clean_linker_0, # of connection points: 4
#     Node 19, Type 1, BuildingBlock: KUFVIS_clean_linker_0, # of connection points: 4
#     Node 20, Type 1, BuildingBlock: KUFVIS_clean_linker_0, # of connection points: 4
#     Node 21, Type 1, BuildingBlock: KUFVIS_clean_linker_0, # of connection points: 4
#     Node 22, Type 1, BuildingBlock: KUFVIS_clean_linker_0, # of connection points: 4
#     Node 23, Type 1, BuildingBlock: KUFVIS_clean_linker_0, # of connection points: 4
#     Edge 24, Type (0, 1), BuildingBlock: UVAHIK_clean_linker_0, # of connection points: 2
#     Edge 25, Type (0, 1), BuildingBlock: UVAHIK_clean_linker_0, # of connection points: 2
#     Edge 26, Type (0, 1), BuildingBlock: UVAHIK_clean_linker_0, # of connection points: 2
#     Edge 27, Type (0, 1), BuildingBlock: UVAHIK_clean_linker_0, # of connection points: 2
#     Edge 28, Type (0, 1), BuildingBlock: UVAHIK_clean_linker_0, # of connection points: 2
#     Edge 29, Type (0, 1), BuildingBlock: UVAHIK_clean_linker_0, # of connection points: 2
#     Edge 30, Type (0, 1), BuildingBlock: UVAHIK_clean_linker_0, # of connection points: 2
#     Edge 31, Type (0, 1), BuildingBlock: UVAHIK_clean_linker_0, # of connection points: 2
#     Edge 32, Type (0, 1), BuildingBlock: UVAHIK_clean_linker_0, # of connection points: 2
#     Edge 33, Type (0, 1), BuildingBlock: UVAHIK_clean_linker_0, # of connection points: 2
#     Edge 34, Type (0, 1), BuildingBlock: UVAHIK_clean_linker_0, # of connection points: 2
#     Edge 35, Type (0, 1), BuildingBlock: UVAHIK_clean_linker_0, # of connection points: 2
#     Edge 36, Type (0, 1), BuildingBlock: UVAHIK_clean_linker_0, # of connection points: 2
#     Edge 37, Type (0, 1), BuildingBlock: UVAHIK_clean_linker_0, # of connection points: 2
#     Edge 38, Type (0, 1), BuildingBlock: UVAHIK_clean_linker_0, # of connection points: 2
#     Edge 39, Type (0, 1), BuildingBlock: UVAHIK_clean_linker_0, # of connection points: 2
#     Edge 40, Type (0, 1), BuildingBlock: UVAHIK_clean_linker_0, # of connection points: 2
#     Edge 41, Type (0, 1), BuildingBlock: UVAHIK_clean_linker_0, # of connection points: 2
#     Edge 42, Type (0, 1), BuildingBlock: UVAHIK_clean_linker_0, # of connection points: 2
#     Edge 43, Type (0, 1), BuildingBlock: UVAHIK_clean_linker_0, # of connection points: 2
#     Edge 44, Type (0, 1), BuildingBlock: UVAHIK_clean_linker_0, # of connection points: 2
#     Edge 45, Type (0, 1), BuildingBlock: UVAHIK_clean_linker_0, # of connection points: 2
#     Edge 46, Type (0, 1), BuildingBlock: UVAHIK_clean_linker_0, # of connection points: 2
#     Edge 47, Type (0, 1), BuildingBlock: UVAHIK_clean_linker_0, # of connection points: 2
#     Edge 48, Type (0, 1), BuildingBlock: UVAHIK_clean_linker_0, # of connection points: 2
#     Edge 49, Type (0, 1), BuildingBlock: UVAHIK_clean_linker_0, # of connection points: 2
#     Edge 50, Type (0, 1), BuildingBlock: UVAHIK_clean_linker_0, # of connection points: 2
#     Edge 51, Type (0, 1), BuildingBlock: UVAHIK_clean_linker_0, # of connection points: 2
#     Edge 52, Type (0, 1), BuildingBlock: UVAHIK_clean_linker_0, # of connection points: 2
#     Edge 53, Type (0, 1), BuildingBlock: UVAHIK_clean_linker_0, # of connection points: 2
#     Edge 54, Type (0, 1), BuildingBlock: UVAHIK_clean_linker_0, # of connection points: 2
#     Edge 55, Type (0, 1), BuildingBlock: UVAHIK_clean_linker_0, # of connection points: 2
#     Edge 56, Type (0, 1), BuildingBlock: UVAHIK_clean_linker_0, # of connection points: 2
#     Edge 57, Type (0, 1), BuildingBlock: UVAHIK_clean_linker_0, # of connection points: 2
#     Edge 58, Type (0, 1), BuildingBlock: UVAHIK_clean_linker_0, # of connection points: 2
#     Edge 59, Type (0, 1), BuildingBlock: UVAHIK_clean_linker_0, # of connection points: 2
#     Edge 60, Type (0, 1), BuildingBlock: UVAHIK_clean_linker_0, # of connection points: 2
#     Edge 61, Type (0, 1), BuildingBlock: UVAHIK_clean_linker_0, # of connection points: 2
#     Edge 62, Type (0, 1), BuildingBlock: UVAHIK_clean_linker_0, # of connection points: 2
#     Edge 63, Type (0, 1), BuildingBlock: UVAHIK_clean_linker_0, # of connection points: 2
#     Edge 64, Type (0, 1), BuildingBlock: UVAHIK_clean_linker_0, # of connection points: 2
#     Edge 65, Type (0, 1), BuildingBlock: UVAHIK_clean_linker_0, # of connection points: 2
#     Edge 66, Type (0, 1), BuildingBlock: UVAHIK_clean_linker_0, # of connection points: 2
#     Edge 67, Type (0, 1), BuildingBlock: UVAHIK_clean_linker_0, # of connection points: 2
#     Edge 68, Type (0, 1), BuildingBlock: UVAHIK_clean_linker_0, # of connection points: 2
#     Edge 69, Type (0, 1), BuildingBlock: UVAHIK_clean_linker_0, # of connection points: 2
#     Edge 70, Type (0, 1), BuildingBlock: UVAHIK_clean_linker_0, # of connection points: 2
#     Edge 71, Type (0, 1), BuildingBlock: UVAHIK_clean_linker_0, # of connection points: 2
# Relax obj value: 0.121
# Max RMSD: 0.309
# Mean RMSD: 0.273
data_MOF--net-ssc--node1-CEKHIL_clean_sbu_0--node2-KUFVIS_clean_linker_0--edge1-UVAHIK_clean_linker_0
_symmetry_space_group_name_H-M    P1
_symmetry_Int_Tables_number       1
_symmetry_cell_setting            triclinic
loop_
_symmetry_equiv_pos_as_xyz
'x, y, z'
_cell_length_a     39.557119
_cell_length_b     39.61123
_cell_length_c     39.47265
_cell_angle_alpha  91.178985
_cell_angle_beta   89.782019
_cell_angle_gamma 92.913007
loop_
_atom_site_label
_atom_site_type_symbol
_atom_site_fract_x
_atom_site_fract_y
_atom_site_fract_z
_atom_type_partial_charge
Co0 Co 0.034 0.26272 0.12707 0.0
O1 O 0.06164 0.27406 0.08834 0.0
O2 O 0.01677 0.3014 0.10521 0.0
C3 C 0.07678 0.25605 0.16355 0.0
O4 O -0.00018 0.2598 0.16579 0.0
Co5 Co 0.03561 0.19271 0.16044 0.0
O6 O 0.00556 0.21246 0.19512 0.0
C7 C 0.00216 0.19859 0.09446 0.0
C8 C 0.04142 0.29839 0.08368 0.0
C9 C 0.99194 0.24052 0.19076 0.0
O10 O 0.00483 0.23102 0.09763 0.0
O11 O 0.01521 0.17881 0.11546 0.0
O12 O 0.06668 0.28606 0.15743 0.0
O13 O 0.06286 0.2317 0.1454 0.0
Co14 Co 0.02588 0.78053 0.42649 0.0
O15 O 0.05762 0.77577 0.46277 0.0
O16 O 0.01316 0.7409 0.45229 0.0
C17 C 0.06506 0.79119 0.38586 0.0
O18 O 0.9883 0.77559 0.39117 0.0
Co19 Co 0.02074 0.84744 0.38792 0.0
O20 O 0.99135 0.81975 0.35637 0.0
C21 C 0.99452 0.84212 0.45786 0.0
C22 C 0.03972 0.74865 0.47069 0.0
C23 C 0.97884 0.79075 0.36455 0.0
O24 O 0.99808 0.80996 0.4569 0.0
O25 O 0.00451 0.86167 0.43399 0.0
O26 O 0.05697 0.76025 0.39429 0.0
O27 O 0.05117 0.8144 0.40368 0.0
Co28 Co 0.53643 0.76047 0.63348 0.0
O29 O 0.5705 0.77285 0.60043 0.0
O30 O 0.52162 0.79723 0.60672 0.0
C31 C 0.57205 0.75753 0.67777 0.0
O32 O 0.49584 0.75647 0.66543 0.0
Co33 Co 0.53547 0.69173 0.66933 0.0
O34 O 0.49953 0.71093 0.69791 0.0
C35 C 0.51259 0.69397 0.59861 0.0
C36 C 0.5504 0.79575 0.59087 0.0
C37 C 0.48521 0.73775 0.68994 0.0
O38 O 0.5146 0.72651 0.60046 0.0
O39 O 0.52219 0.67537 0.62253 0.0
O40 O 0.56156 0.78649 0.66845 0.0
O41 O 0.56315 0.73192 0.6584 0.0
Co42 Co 0.52561 0.26865 0.92375 0.0
O43 O 0.55646 0.2578 0.95923 0.0
O44 O 0.5083 0.22912 0.94708 0.0
C45 C 0.56495 0.2775 0.88289 0.0
O46 O 0.48767 0.27007 0.88917 0.0
Co47 Co 0.52744 0.3382 0.88891 0.0
O48 O 0.49294 0.31672 0.85791 0.0
C49 C 0.50346 0.332 0.95957 0.0
C50 C 0.53525 0.23258 0.96575 0.0
C51 C 0.47831 0.28822 0.8646 0.0
O52 O 0.50194 0.29951 0.9564 0.0
O53 O 0.51575 0.3515 0.93664 0.0
O54 O 0.55374 0.24691 0.88964 0.0
O55 O 0.55405 0.30106 0.90244 0.0
Co56 Co 0.12233 0.98727 0.2704 0.0
O57 O 0.15354 0.95615 0.25145 0.0
O58 O 0.15241 0.97304 0.30525 0.0
C59 C 0.07539 0.96359 0.24615 0.0
O60 O 0.09327 0.01702 0.30016 0.0
Co61 Co 0.08018 0.03364 0.22646 0.0
O62 O 0.0517 0.03538 0.26785 0.0
C63 C 0.15261 0.05126 0.23793 0.0
C64 C 0.16596 0.95457 0.28178 0.0
C65 C 0.06427 0.02988 0.29676 0.0
O66 O 0.1545 0.02657 0.25851 0.0
O67 O 0.12576 0.05754 0.22173 0.0
O68 O 0.08718 0.95111 0.27368 0.0
O69 O 0.09367 0.98778 0.23282 0.0
Co70 Co 0.24811 0.90943 0.53616 0.0
O71 O 0.24076 0.94509 0.5691 0.0
O72 O 0.20979 0.93417 0.52315 0.0
C73 C 0.256 0.86863 0.57392 0.0
O74 O 0.24572 0.87525 0.49684 0.0
Co75 Co 0.31525 0.87289 0.52962 0.0
O76 O 0.29338 0.84699 0.49142 0.0
C77 C 0.31236 0.94415 0.51086 0.0
C78 C 0.21538 0.95262 0.5503 0.0
C79 C 0.2637 0.85328 0.48189 0.0
O80 O 0.27981 0.94108 0.51048 0.0
O81 O 0.33086 0.92094 0.52129 0.0
O82 O 0.22553 0.87635 0.56582 0.0
O83 O 0.28032 0.88699 0.56081 0.0
Co84 Co 0.41072 0.05322 0.78949 0.0
O85 O 0.38211 0.0845 0.76796 0.0
O86 O 0.37913 0.07059 0.822 0.0
C87 C 0.46007 0.07375 0.7675 0.0
O88 O 0.43577 0.02414 0.82196 0.0
Co89 Co 0.45491 0.00267 0.75076 0.0
O90 O 0.4791 0.0012 0.79467 0.0
C91 C 0.3808 0.98873 0.75571 0.0
C92 C 0.36787 0.08822 0.79747 0.0
C93 C 0.46378 0.00906 0.82192 0.0
O94 O 0.37801 0.01427 0.77618 0.0
O95 O 0.40877 0.9811 0.74179 0.0
O96 O 0.44721 0.08835 0.79406 0.0
O97 O 0.44187 0.04912 0.75406 0.0
Co98 Co 0.27808 0.12021 0.02566 0.0
O99 O 0.29149 0.08694 0.0573 0.0
O100 O 0.3187 0.09976 0.00979 0.0
C101 C 0.26697 0.16059 0.06494 0.0
O102 O 0.27372 0.15331 0.98708 0.0
Co103 Co 0.2061 0.14827 0.02549 0.0
O104 O 0.22419 0.17856 0.98964 0.0
C105 C 0.21666 0.0772 0.00661 0.0
C106 C 0.31655 0.08157 0.0368 0.0
C107 C 0.25313 0.17475 0.97618 0.0
O108 O 0.24844 0.08426 0.00176 0.0
O109 O 0.19664 0.09836 0.01957 0.0
O110 O 0.29794 0.15702 0.05465 0.0
O111 O 0.24481 0.13878 0.05285 0.0
Co112 Co 0.76546 0.40677 0.00947 0.0
O113 O 0.75928 0.44092 0.04426 0.0
O114 O 0.7284 0.43408 0.99773 0.0
C115 C 0.77073 0.36359 0.04505 0.0
O116 O 0.76199 0.37427 0.96862 0.0
Co117 Co 0.83083 0.36679 0.00245 0.0
O118 O 0.80534 0.33981 0.96743 0.0
C119 C 0.83126 0.43812 0.98209 0.0
C120 C 0.73418 0.4504 0.02616 0.0
C121 C 0.77745 0.34921 0.95572 0.0
O122 O 0.79886 0.43826 0.98545 0.0
O123 O 0.84864 0.41306 0.98995 0.0
O124 O 0.74089 0.37331 0.03725 0.0
O125 O 0.79607 0.38148 0.03327 0.0
Co126 Co 0.90612 0.53868 0.28131 0.0
O127 O 0.87477 0.57006 0.26468 0.0
O128 O 0.87748 0.55351 0.31782 0.0
C129 C 0.95233 0.56132 0.25522 0.0
O130 O 0.93549 0.50881 0.30896 0.0
Co131 Co 0.9457 0.49102 0.23402 0.0
O132 O 0.97298 0.48389 0.27514 0.0
C133 C 0.87226 0.47833 0.24443 0.0
C134 C 0.86321 0.57176 0.29551 0.0
C135 C 0.96196 0.49166 0.30451 0.0
O136 O 0.87291 0.49981 0.26946 0.0
O137 O 0.89801 0.4734 0.22556 0.0
O138 O 0.94215 0.57448 0.28374 0.0
O139 O 0.93313 0.53705 0.24258 0.0
Co140 Co 0.78888 0.62564 0.51698 0.0
O141 O 0.79717 0.59069 0.54856 0.0
O142 O 0.82906 0.6027 0.50373 0.0
C143 C 0.77821 0.66539 0.5568 0.0
O144 O 0.78937 0.66024 0.47909 0.0
Co145 Co 0.71892 0.65752 0.51312 0.0
O146 O 0.74132 0.68817 0.48008 0.0
C147 C 0.72687 0.58706 0.49027 0.0
C148 C 0.82337 0.58412 0.53012 0.0
C149 C 0.77058 0.6832 0.46793 0.0
O150 O 0.75925 0.59225 0.49 0.0
O151 O 0.70667 0.60895 0.50149 0.0
O152 O 0.80927 0.65978 0.54831 0.0
O153 O 0.75523 0.64573 0.54265 0.0
Co154 Co 0.61118 0.48736 0.77785 0.0
O155 O 0.64398 0.45737 0.75982 0.0
O156 O 0.63764 0.47031 0.81422 0.0
C157 C 0.56702 0.46555 0.74725 0.0
O158 O 0.57974 0.51525 0.80677 0.0
Co159 Co 0.57241 0.53677 0.73385 0.0
O160 O 0.54056 0.53579 0.77287 0.0
C161 C 0.64448 0.5524 0.75109 0.0
C162 C 0.65317 0.45325 0.79098 0.0
C163 C 0.55121 0.52857 0.8021 0.0
O164 O 0.6442 0.5275 0.77171 0.0
O165 O 0.6192 0.55871 0.73248 0.0
O166 O 0.57586 0.45094 0.77484 0.0
O167 O 0.58634 0.49094 0.73808 0.0
H168 H 0.93699 0.36148 0.73402 0.0
H169 H 0.97263 0.27303 0.781 0.0
H170 H 0.01725 0.30803 0.68738 0.0
H171 H 0.00477 0.23957 0.6856 0.0
H172 H 0.0814 0.18529 0.73444 0.0
H173 H 0.04455 0.27463 0.78253 0.0
C174 C 0.95466 0.34144 0.73477 0.0
C175 C 0.97789 0.33804 0.70818 0.0
C176 C 0.95222 0.31798 0.76093 0.0
C177 C 0.97436 0.29138 0.76098 0.0
C178 C 0.99816 0.2879 0.73468 0.0
C179 C -0.00063 0.31094 0.70799 0.0
C180 C 0.02114 0.25964 0.73467 0.0
C181 C 0.02128 0.23654 0.70707 0.0
C182 C 0.04247 0.20927 0.70745 0.0
C183 C 0.06397 0.2056 0.73503 0.0
C184 C 0.06529 0.2292 0.76196 0.0
C185 C 0.04353 0.25611 0.7619 0.0
H186 H 0.94929 0.67 0.77506 0.0
H187 H 0.03175 0.73066 0.81786 0.0
H188 H 0.98133 0.76341 0.72845 0.0
H189 H 0.05363 0.77463 0.7229 0.0
H190 H 0.09059 0.86245 0.78002 0.0
H191 H 0.01765 0.79319 0.82467 0.0
C192 C 0.96737 0.69146 0.77323 0.0
C193 C 0.96323 0.71535 0.74813 0.0
C194 C 0.99167 0.69709 0.79856 0.0
C195 C 0.01346 0.72595 0.7977 0.0
C196 C 0.01073 0.74943 0.77169 0.0
C197 C 0.98523 0.74425 0.74706 0.0
C198 C 0.03194 0.78115 0.77295 0.0
C199 C 0.05281 0.79072 0.7454 0.0
C200 C 0.07384 0.82035 0.74777 0.0
C201 C 0.07328 0.84039 0.77742 0.0
C202 C 0.05346 0.83055 0.80519 0.0
C203 C 0.03278 0.80096 0.80295 0.0
H204 H 0.4527 0.86074 0.21181 0.0
H205 H 0.48689 0.77327 0.26156 0.0
H206 H 0.52989 0.80298 0.1653 0.0
H207 H 0.52054 0.73637 0.16537 0.0
H208 H 0.59273 0.68105 0.21983 0.0
H209 H 0.55458 0.77119 0.26465 0.0
C210 C 0.46966 0.8401 0.21291 0.0
C211 C 0.49199 0.8349 0.18591 0.0
C212 C 0.46728 0.81788 0.2401 0.0
C213 C 0.48856 0.7906 0.24065 0.0
C214 C 0.51155 0.78527 0.21394 0.0
C215 C 0.51264 0.80714 0.1862 0.0
C216 C 0.53427 0.75673 0.21518 0.0
C217 C 0.53577 0.7334 0.18779 0.0
C218 C 0.55647 0.70579 0.18978 0.0
C219 C 0.57607 0.70195 0.2187 0.0
C220 C 0.57575 0.72553 0.2455 0.0
C221 C 0.55467 0.75281 0.24391 0.0
H222 H 0.4094 0.20005 0.2902 0.0
H223 H 0.50021 0.2333 0.34212 0.0
H224 H 0.47648 0.27522 0.24514 0.0
H225 H 0.53757 0.27041 0.24303 0.0
H226 H 0.61332 0.32347 0.30404 0.0
H227 H 0.51897 0.29122 0.34945 0.0
C228 C 0.43226 0.21641 0.29154 0.0
C229 C 0.4403 0.23811 0.26487 0.0
C230 C 0.45371 0.21465 0.31932 0.0
C231 C 0.48319 0.23555 0.32091 0.0
C232 C 0.4918 0.2577 0.29436 0.0
C233 C 0.47018 0.25871 0.26604 0.0
C234 C 0.52428 0.27807 0.29606 0.0
C235 C 0.54549 0.28126 0.26733 0.0
C236 C 0.5777 0.29739 0.27046 0.0
C237 C 0.58858 0.31041 0.30195 0.0
C238 C 0.56765 0.3082 0.33042 0.0
C239 C 0.53529 0.29255 0.32735 0.0
H240 H 0.73237 0.92042 0.33339 0.0
H241 H 0.77698 0.97742 0.25167 0.0
H242 H 0.68218 0.00566 0.2963 0.0
H243 H 0.67517 0.01102 0.23364 0.0
H244 H 0.72069 0.09957 0.18789 0.0
H245 H 0.77899 0.04322 0.25628 0.0
C246 C 0.7317 0.94142 0.31619 0.0
C247 C 0.70423 0.96224 0.31731 0.0
C248 C 0.75812 0.94695 0.29296 0.0
C249 C 0.75692 0.97362 0.27021 0.0
C250 C 0.72948 0.99505 0.2712 0.0
C251 C 0.70334 0.98932 0.29513 0.0
C252 C 0.72763 0.02316 0.24713 0.0
C253 C 0.69705 0.02818 0.22999 0.0
C254 C 0.6944 0.05597 0.20893 0.0
C255 C 0.72266 0.07798 0.20415 0.0
C256 C 0.7531 0.07349 0.2209 0.0
C257 C 0.75571 0.04609 0.24249 0.0
H258 H 0.13311 0.28834 0.47215 0.0
H259 H 0.17879 0.32978 0.5634 0.0
H260 H 0.22177 0.24509 0.51178 0.0
H261 H 0.21711 0.23943 0.58805 0.0
H262 H 0.30821 0.2909 0.62541 0.0
H263 H 0.25005 0.33699 0.54922 0.0
C264 C 0.15155 0.28682 0.49226 0.0
C265 C 0.17673 0.26327 0.48921 0.0
C266 C 0.15198 0.3109 0.51882 0.0
C267 C 0.17762 0.3107 0.54329 0.0
C268 C 0.20222 0.2863 0.54136 0.0
C269 C 0.20178 0.26273 0.51423 0.0
C270 C 0.23065 0.28774 0.56545 0.0
C271 C 0.23533 0.26079 0.58749 0.0
C272 C 0.26349 0.2619 0.60908 0.0
C273 C 0.28678 0.28963 0.60822 0.0
C274 C 0.282 0.3167 0.58701 0.0
C275 C 0.25374 0.316 0.56578 0.0
H276 H 0.75488 0.10149 0.84701 0.0
H277 H 0.70888 0.03397 0.77185 0.0
H278 H 0.80473 0.01216 0.81635 0.0
H279 H 0.80565 0.00742 0.7472 0.0
H280 H 0.77079 0.90707 0.71661 0.0
H281 H 0.71403 0.96211 0.79036 0.0
C282 C 0.75507 0.07814 0.83214 0.0
C283 C 0.78285 0.05786 0.83438 0.0
C284 C 0.72826 0.06976 0.80992 0.0
C285 C 0.72893 0.04005 0.78993 0.0
C286 C 0.75638 0.01891 0.7926 0.0
C287 C 0.78317 0.02793 0.81493 0.0
C288 C 0.75888 0.98868 0.77041 0.0
C289 C 0.78697 0.98648 0.74853 0.0
C290 C 0.79158 0.95694 0.72932 0.0
C291 C 0.7675 0.93001 0.73154 0.0
C292 C 0.73963 0.93162 0.75333 0.0
C293 C 0.7351 0.96108 0.7728 0.0
H294 H 0.36841 0.73665 0.9603 0.0
H295 H 0.32266 0.70104 0.05228 0.0
H296 H 0.28299 0.78632 0.00186 0.0
H297 H 0.28414 0.80089 0.06795 0.0
H298 H 0.2103 0.75123 0.13228 0.0
H299 H 0.25994 0.69352 0.05559 0.0
C300 C 0.35014 0.73969 0.98059 0.0
C301 C 0.32646 0.76467 0.97836 0.0
C302 C 0.34861 0.71651 0.00685 0.0
C303 C 0.32382 0.71912 0.03201 0.0
C304 C 0.30055 0.74484 0.03099 0.0
C305 C 0.30171 0.76739 0.00375 0.0
C306 C 0.2745 0.74712 0.0579 0.0
C307 C 0.26941 0.77822 0.07483 0.0
C308 C 0.24597 0.77957 0.10149 0.0
C309 C 0.22808 0.75005 0.1113 0.0
C310 C 0.23331 0.71897 0.0954 0.0
C311 C 0.25606 0.71759 0.06819 0.0
H312 H 0.62854 0.80998 0.99118 0.0
H313 H 0.66928 0.84817 0.08559 0.0
H314 H 0.71301 0.76277 0.03552 0.0
H315 H 0.70614 0.75269 0.10694 0.0
H316 H 0.78038 0.80838 0.16797 0.0
H317 H 0.73732 0.85566 0.08266 0.0
C318 C 0.64589 0.80756 0.01213 0.0
C319 C 0.67019 0.783 0.01043 0.0
C320 C 0.64559 0.83104 0.039 0.0
C321 C 0.66913 0.82945 0.06514 0.0
C322 C 0.69304 0.80433 0.06452 0.0
C323 C 0.69371 0.78122 0.03691 0.0
C324 C 0.71853 0.80425 0.0918 0.0
C325 C 0.72139 0.77568 0.11221 0.0
C326 C 0.74327 0.77754 0.14019 0.0
C327 C 0.76269 0.8074 0.14695 0.0
C328 C 0.76096 0.83543 0.12629 0.0
C329 C 0.73888 0.83386 0.09864 0.0
H330 H 0.27653 0.61269 0.34127 0.0
H331 H 0.22922 0.55109 0.26219 0.0
H332 H 0.31987 0.51969 0.31056 0.0
H333 H 0.32686 0.51269 0.2462 0.0
H334 H 0.28086 0.42035 0.2053 0.0
H335 H 0.22386 0.48215 0.27294 0.0
C336 C 0.27584 0.58985 0.32556 0.0
C337 C 0.30138 0.56695 0.32872 0.0
C338 C 0.24981 0.58432 0.30184 0.0
C339 C 0.24883 0.55502 0.28117 0.0
C340 C 0.27406 0.53141 0.28444 0.0
C341 C 0.3001 0.5375 0.30839 0.0
C342 C 0.27496 0.50134 0.26162 0.0
C343 C 0.3051 0.49502 0.2439 0.0
C344 C 0.30751 0.46561 0.22392 0.0
C345 C 0.27932 0.44305 0.22101 0.0
C346 C 0.2492 0.44881 0.23837 0.0
C347 C 0.24688 0.47802 0.25879 0.0
H348 H 0.8615 0.21797 0.45355 0.0
H349 H 0.82997 0.18394 0.55151 0.0
H350 H 0.78957 0.27404 0.51036 0.0
H351 H 0.79392 0.28719 0.57162 0.0
H352 H 0.7324 0.23901 0.64818 0.0
H353 H 0.77128 0.17893 0.56696 0.0
C354 C 0.84658 0.22142 0.47639 0.0
C355 C 0.82614 0.24911 0.47943 0.0
C356 C 0.84775 0.19784 0.50208 0.0
C357 C 0.82857 0.20218 0.53153 0.0
C358 C 0.80717 0.22953 0.53487 0.0
C359 C 0.80611 0.25309 0.50852 0.0
C360 C 0.78558 0.23266 0.56556 0.0
C361 C 0.78168 0.26444 0.5817 0.0
C362 C 0.7624 0.26651 0.61147 0.0
C363 C 0.74742 0.23714 0.62517 0.0
C364 C 0.75073 0.20562 0.60953 0.0
C365 C 0.76933 0.2034 0.57939 0.0
H366 H 0.22314 0.42354 0.83914 0.0
H367 H 0.279 0.48562 0.76819 0.0
H368 H 0.17968 0.51265 0.80205 0.0
H369 H 0.18252 0.5208 0.73772 0.0
H370 H 0.23084 0.61563 0.71 0.0
H371 H 0.27935 0.55342 0.78112 0.0
C372 C 0.22494 0.44577 0.82347 0.0
C373 C 0.19788 0.46712 0.82263 0.0
C374 C 0.25418 0.45224 0.80413 0.0
C375 C 0.25664 0.48083 0.78365 0.0
C376 C 0.22971 0.50287 0.78284 0.0
C377 C 0.20051 0.4959 0.80259 0.0
C378 C 0.23133 0.53298 0.76114 0.0
C379 C 0.20394 0.53894 0.73956 0.0
C380 C 0.20362 0.56889 0.72136 0.0
C381 C 0.23114 0.59229 0.72394 0.0
C382 C 0.25851 0.58686 0.74512 0.0
C383 C 0.25873 0.55714 0.76381 0.0
C384 C 0.06311 0.31028 0.02568 0.0
C385 C 0.04616 0.32122 0.05487 0.0
C386 C 0.06835 0.33184 0.99847 0.0
C387 C 0.08698 0.41721 0.97833 0.0
H388 H 0.06475 0.38833 0.88627 0.0
C389 C 0.1537 0.48183 0.86565 0.0
C390 C 0.1671 0.45841 0.84273 0.0
C391 C 0.12858 0.47134 0.88883 0.0
C392 C 0.07112 0.39687 0.9118 0.0
H393 H 0.0213 0.36314 0.07866 0.0
H394 H 0.03192 0.4016 0.03122 0.0
H395 H 0.04067 0.35664 0.93376 0.0
H396 H 0.16291 0.40662 0.82394 0.0
H397 H 0.12009 0.38814 0.86442 0.0
H398 H 0.1198 0.45554 0.95669 0.0
C399 C 0.0404 0.37605 0.02935 0.0
C400 C 0.05714 0.37883 0.93891 0.0
C401 C 0.03437 0.35411 0.05634 0.0
C402 C 0.15327 0.42508 0.84166 0.0
C403 C 0.12836 0.41462 0.86469 0.0
C404 C 0.10148 0.43494 0.95119 0.0
C405 C 0.05738 0.36498 0.00022 0.0
C406 C 0.06596 0.38814 0.9723 0.0
C407 C 0.11642 0.43729 0.88933 0.0
C408 C 0.09486 0.42405 0.91757 0.0
H409 H 0.07229 0.285 0.02383 0.0
H410 H 0.08186 0.32293 0.97637 0.0
H411 H 0.09422 0.4247 0.00395 0.0
H412 H 0.16395 0.50771 0.86691 0.0
H413 H 0.11961 0.48956 0.90716 0.0
C414 C 0.94388 0.78895 0.31177 0.0
C415 C 0.95209 0.77428 0.34259 0.0
C416 C 0.91895 0.77385 0.2908 0.0
C417 C 0.87939 0.72873 0.24193 0.0
H418 H 0.79035 0.70627 0.27862 0.0
C419 C 0.77156 0.72476 0.15164 0.0
C420 C 0.7488 0.74881 0.16238 0.0
C421 C 0.79177 0.70949 0.17537 0.0
C422 C 0.81519 0.7118 0.26798 0.0
H423 H 0.93984 0.73227 0.37571 0.0
H424 H 0.89591 0.70588 0.33878 0.0
H425 H 0.83832 0.71668 0.317 0.0
H426 H 0.72514 0.77164 0.20603 0.0
H427 H 0.76017 0.74552 0.24729 0.0
H428 H 0.85665 0.72528 0.19316 0.0
C429 C 0.90913 0.72905 0.33096 0.0
C430 C 0.84265 0.71792 0.28997 0.0
C431 C 0.93436 0.74415 0.35202 0.0
C432 C 0.74249 0.75303 0.19721 0.0
C433 C 0.76284 0.73808 0.2209 0.0
C434 C 0.8522 0.72209 0.22001 0.0
C435 C 0.90145 0.7436 0.29992 0.0
C436 C 0.87454 0.72859 0.27719 0.0
C437 C 0.78971 0.71851 0.21002 0.0
C438 C 0.81935 0.71523 0.23276 0.0
H439 H 0.95671 0.81223 0.30369 0.0
H440 H 0.91301 0.78628 0.26752 0.0
H441 H 0.90391 0.73591 0.23124 0.0
H442 H 0.77692 0.72116 0.12491 0.0
H443 H 0.81149 0.69361 0.16622 0.0
C444 C 0.491 0.64192 0.56648 0.0
C445 C 0.49725 0.67723 0.56796 0.0
C446 C 0.47473 0.62634 0.53848 0.0
C447 C 0.45183 0.63931 0.44906 0.0
H448 H 0.37724 0.57497 0.46772 0.0
C449 C 0.34497 0.60778 0.354 0.0
C450 C 0.32983 0.57492 0.35244 0.0
C451 C 0.36979 0.61652 0.37804 0.0
C452 C 0.3984 0.59234 0.46195 0.0
H453 H 0.49208 0.72364 0.54053 0.0
H454 H 0.46359 0.69641 0.49187 0.0
H455 H 0.41262 0.59749 0.51412 0.0
H456 H 0.3298 0.52503 0.37393 0.0
H457 H 0.37369 0.54023 0.41595 0.0
H458 H 0.43721 0.63466 0.39697 0.0
C459 C 0.4715 0.68079 0.51229 0.0
C460 C 0.41865 0.60532 0.48858 0.0
C461 C 0.48764 0.69641 0.54034 0.0
C462 C 0.34104 0.55055 0.37457 0.0
C463 C 0.36593 0.55934 0.39878 0.0
C464 C 0.43165 0.62626 0.42242 0.0
C465 C 0.4645 0.64562 0.51123 0.0
C466 C 0.44515 0.62947 0.48252 0.0
C467 C 0.38021 0.59259 0.4011 0.0
C468 C 0.40424 0.60317 0.42865 0.0
H469 H 0.49813 0.62629 0.58718 0.0
H470 H 0.47002 0.59915 0.53824 0.0
H471 H 0.47244 0.65743 0.44352 0.0
H472 H 0.33723 0.62698 0.33691 0.0
H473 H 0.37992 0.64243 0.3793 0.0
C474 C 0.5962 0.2602 0.83057 0.0
C475 C 0.58769 0.28546 0.85404 0.0
C476 C 0.618 0.26794 0.80358 0.0
C477 C 0.65447 0.33792 0.75236 0.0
H478 H 0.72293 0.27373 0.73237 0.0
C479 C 0.77452 0.30422 0.66037 0.0
C480 C 0.7566 0.29831 0.63003 0.0
C481 C 0.758 0.31681 0.68895 0.0
C482 C 0.70436 0.29227 0.73795 0.0
H483 H 0.59521 0.33869 0.86763 0.0
H484 H 0.63379 0.35201 0.82079 0.0
H485 H 0.68349 0.26338 0.77862 0.0
H486 H 0.71018 0.30705 0.60364 0.0
H487 H 0.68154 0.32973 0.65322 0.0
H488 H 0.67429 0.36573 0.70978 0.0
C489 C 0.62315 0.32639 0.82293 0.0
C490 C 0.68162 0.28613 0.76433 0.0
C491 C 0.60123 0.31866 0.84986 0.0
C492 C 0.72455 0.31159 0.62675 0.0
C493 C 0.708 0.32426 0.65532 0.0
C494 C 0.67689 0.34374 0.72523 0.0
C495 C 0.63192 0.30106 0.79961 0.0
C496 C 0.65638 0.30871 0.77187 0.0
C497 C 0.72359 0.32386 0.6872 0.0
C498 C 0.70221 0.32104 0.71798 0.0
H499 H 0.58608 0.23444 0.83306 0.0
H500 H 0.624 0.24792 0.78579 0.0
H501 H 0.63504 0.35568 0.7574 0.0
H502 H 0.79919 0.29402 0.66352 0.0
H503 H 0.77073 0.31686 0.71322 0.0
C504 C 0.03681 0.69366 0.50131 0.0
C505 C 0.04999 0.72713 0.49863 0.0
C506 C 0.04868 0.67267 0.52634 0.0
C507 C 0.12307 0.6654 0.58205 0.0
H508 H 0.06556 0.60011 0.63031 0.0
C509 C 0.15945 0.60852 0.70692 0.0
C510 C 0.17444 0.57761 0.70056 0.0
C511 C 0.13811 0.62167 0.68306 0.0
C512 C 0.08178 0.61805 0.61667 0.0
H513 H 0.0846 0.76541 0.521 0.0
H514 H 0.10444 0.72941 0.56512 0.0
H515 H 0.04092 0.6351 0.58695 0.0
H516 H 0.17707 0.53497 0.66565 0.0
H517 H 0.13933 0.55825 0.62346 0.0
H518 H 0.16359 0.64912 0.61255 0.0
C519 C 0.08582 0.71883 0.54731 0.0
C520 C 0.06782 0.63802 0.59188 0.0
C521 C 0.07428 0.73959 0.52215 0.0
C522 C 0.1655 0.55868 0.67118 0.0
C523 C 0.14406 0.57195 0.64714 0.0
C524 C 0.13684 0.64568 0.60681 0.0
C525 C 0.07375 0.68488 0.54932 0.0
C526 C 0.08827 0.66232 0.57463 0.0
C527 C 0.13127 0.60407 0.65251 0.0
C528 C 0.11631 0.62213 0.62446 0.0
H529 H 0.01809 0.68335 0.48346 0.0
H530 H 0.03896 0.64664 0.52698 0.0
H531 H 0.13977 0.68318 0.56877 0.0
H532 H 0.16605 0.62355 0.72941 0.0
H533 H 0.12868 0.6466 0.68747 0.0
C534 C 0.59848 0.78193 0.73088 0.0
C535 C 0.59195 0.75398 0.70902 0.0
C536 C 0.61628 0.77845 0.76101 0.0
C537 C 0.6345 0.71487 0.82367 0.0
H538 H 0.69177 0.78839 0.86155 0.0
C539 C 0.70147 0.7673 0.95782 0.0
C540 C 0.67271 0.76293 0.97855 0.0
C541 C 0.7 0.75763 0.92348 0.0
C542 C 0.67648 0.7672 0.85122 0.0
H543 H 0.59998 0.70065 0.70099 0.0
H544 H 0.6312 0.69456 0.75365 0.0
H545 H 0.67436 0.78986 0.80253 0.0
H546 H 0.62107 0.74235 0.98075 0.0
H547 H 0.61842 0.72522 0.92124 0.0
H548 H 0.63599 0.69259 0.87259 0.0
C549 C 0.62219 0.7191 0.74767 0.0
C550 C 0.6661 0.76831 0.81746 0.0
C551 C 0.60434 0.72261 0.7175 0.0
C552 C 0.64363 0.74579 0.96528 0.0
C553 C 0.64219 0.73597 0.93112 0.0
C554 C 0.64492 0.71374 0.85744 0.0
C555 C 0.62802 0.74691 0.76999 0.0
C556 C 0.64394 0.74281 0.80367 0.0
C557 C 0.66979 0.74327 0.90941 0.0
C558 C 0.66498 0.74052 0.87201 0.0
H559 H 0.58936 0.80646 0.72501 0.0
H560 H 0.61989 0.80031 0.77778 0.0
H561 H 0.61743 0.69478 0.81391 0.0
H562 H 0.72409 0.78077 0.9674 0.0
H563 H 0.72185 0.76316 0.90756 0.0
C564 C 0.47668 0.32851 0.01746 0.0
C565 C 0.49026 0.34806 0.99084 0.0
C566 C 0.46367 0.34417 0.04646 0.0
C567 C 0.42638 0.42308 0.07344 0.0
H568 H 0.43923 0.39062 0.16424 0.0
C569 C 0.35581 0.4816 0.18506 0.0
C570 C 0.33905 0.45765 0.20573 0.0
C571 C 0.3815 0.47184 0.16302 0.0
C572 C 0.43537 0.39997 0.13903 0.0
H573 H 0.50167 0.39949 0.97448 0.0
H574 H 0.47905 0.42646 0.02481 0.0
H575 H 0.46916 0.36513 0.11667 0.0
H576 H 0.33814 0.40572 0.22214 0.0
H577 H 0.38203 0.3885 0.1833 0.0
H578 H 0.39162 0.45687 0.0952 0.0
C579 C 0.47812 0.39909 0.02311 0.0
C580 C 0.45246 0.38531 0.11183 0.0
C581 C 0.49115 0.38353 0.99426 0.0
C582 C 0.35026 0.42456 0.20599 0.0
C583 C 0.37574 0.41479 0.18396 0.0
C584 C 0.40916 0.43755 0.10052 0.0
C585 C 0.46389 0.37964 0.04935 0.0
C586 C 0.44772 0.39641 0.0787 0.0
C587 C 0.39081 0.43798 0.16129 0.0
C588 C 0.41296 0.42581 0.13359 0.0
H589 H 0.47574 0.30116 0.01577 0.0
H590 H 0.45256 0.32853 0.06619 0.0
H591 H 0.42187 0.4319 0.04814 0.0
H592 H 0.34773 0.5073 0.18447 0.0
H593 H 0.39311 0.4905 0.14635 0.0
C594 C 0.95275 0.28337 0.21464 0.0
C595 C 0.96535 0.25075 0.21499 0.0
C596 C 0.9279 0.29275 0.23795 0.0
C597 C 0.86374 0.25657 0.29776 0.0
H598 H 0.88233 0.33849 0.3513 0.0
C599 C 0.85574 0.29123 0.44313 0.0
C600 C 0.82591 0.27219 0.45062 0.0
C601 C 0.86271 0.30103 0.40996 0.0
C602 C 0.87648 0.3157 0.33638 0.0
H603 H 0.96103 0.20228 0.23976 0.0
H604 H 0.9182 0.2186 0.28016 0.0
H605 H 0.91525 0.3282 0.3 0.0
H606 H 0.77814 0.25187 0.43065 0.0
H607 H 0.78963 0.26999 0.37267 0.0
H608 H 0.82705 0.24254 0.33521 0.0
C609 C 0.92719 0.2369 0.26174 0.0
C610 C 0.8952 0.30993 0.30682 0.0
C611 C 0.9521 0.22764 0.23876 0.0
C612 C 0.80119 0.26686 0.42545 0.0
C613 C 0.80806 0.27679 0.39218 0.0
C614 C 0.84516 0.26224 0.32728 0.0
C615 C 0.91488 0.26957 0.26177 0.0
C616 C 0.89016 0.27948 0.28818 0.0
C617 C 0.83994 0.2918 0.38363 0.0
C618 C 0.85245 0.29108 0.34793 0.0
H619 H 0.96232 0.3018 0.19663 0.0
H620 H 0.91889 0.31809 0.23734 0.0
H621 H 0.85873 0.23321 0.28347 0.0
H622 H 0.87532 0.2952 0.46214 0.0
H623 H 0.88755 0.31242 0.40457 0.0
C624 C 0.00938 0.0413 0.32493 0.0
C625 C 0.04457 0.03872 0.32732 0.0
C626 C 0.99039 0.04995 0.35333 0.0
C627 C 0.954 0.05296 0.42087 0.0
H628 H 0.98111 0.13838 0.4649 0.0
C629 C 0.89868 0.16517 0.51407 0.0
C630 C 0.86824 0.16817 0.49655 0.0
C631 C 0.92162 0.14137 0.50319 0.0
C632 C 0.97351 0.11401 0.45368 0.0
H633 H 0.08743 0.04273 0.36154 0.0
H634 H 0.05405 0.05888 0.41131 0.0
H635 H 0.02026 0.11127 0.4264 0.0
H636 H 0.83661 0.14785 0.45569 0.0
H637 H 0.87618 0.10638 0.43675 0.0
H638 H 0.90675 0.05631 0.44695 0.0
C639 C 0.04131 0.05382 0.38736 0.0
C640 C 0.99595 0.09854 0.43152 0.0
C641 C 0.06034 0.04458 0.35893 0.0
C642 C 0.85991 0.14569 0.46966 0.0
C643 C 0.88257 0.12185 0.45898 0.0
C644 C 0.93168 0.06826 0.44318 0.0
C645 C 0.00614 0.05659 0.38476 0.0
C646 C 0.98578 0.06869 0.41374 0.0
C647 C 0.91423 0.12018 0.47481 0.0
C648 C 0.94057 0.09978 0.45857 0.0
H649 H 0.99641 0.03664 0.30104 0.0
H650 H 0.9634 0.05239 0.35044 0.0
H651 H 0.94579 0.0296 0.40792 0.0
H652 H 0.9056 0.18256 0.53472 0.0
H653 H 0.9457 0.14052 0.51604 0.0
C654 C 0.29385 0.82698 0.5984 0.0
C655 C 0.26286 0.84271 0.59891 0.0
C656 C 0.30112 0.80343 0.62291 0.0
C657 C 0.25809 0.75002 0.68921 0.0
H658 H 0.35046 0.72804 0.70843 0.0
C659 C 0.27652 0.64128 0.77197 0.0
C660 C 0.28401 0.61506 0.74912 0.0
C661 C 0.28555 0.67481 0.76418 0.0
C662 C 0.32462 0.73446 0.70376 0.0
H663 H 0.21558 0.84716 0.62593 0.0
H664 H 0.22868 0.80765 0.66956 0.0
H665 H 0.33996 0.77664 0.67346 0.0
H666 H 0.3115 0.60239 0.70357 0.0
H667 H 0.32825 0.66084 0.69049 0.0
H668 H 0.24295 0.7082 0.72 0.0
C669 C 0.24708 0.81213 0.6497 0.0
C670 C 0.31842 0.76191 0.6832 0.0
C671 C 0.23946 0.83495 0.62464 0.0
C672 C 0.30582 0.62219 0.72175 0.0
C673 C 0.31521 0.65571 0.71417 0.0
C674 C 0.26432 0.72349 0.71055 0.0
C675 C 0.27792 0.7957 0.64915 0.0
C676 C 0.28498 0.76941 0.67462 0.0
C677 C 0.30253 0.68227 0.73372 0.0
C678 C 0.29754 0.71487 0.71732 0.0
H679 H 0.31236 0.83254 0.57873 0.0
H680 H 0.32473 0.79093 0.62069 0.0
H681 H 0.23201 0.75394 0.68297 0.0
H682 H 0.25939 0.6364 0.793 0.0
H683 H 0.27563 0.69494 0.77969 0.0
C684 C 0.51318 0.99642 0.8579 0.0
C685 C 0.47815 -0.00048 0.85463 0.0
C686 C 0.5268 0.98652 0.88849 0.0
C687 C 0.50826 0.93224 0.95734 0.0
H688 H 0.58818 0.9761 0.99861 0.0
C689 C 0.58935 0.85656 0.04399 0.0
C690 C 0.62394 0.85995 0.03627 0.0
C691 C 0.56746 0.88096 0.0335 0.0
C692 C 0.56591 0.96343 0.98742 0.0
H693 H 0.42991 0.99521 0.88093 0.0
H694 H 0.4538 0.97643 0.9342 0.0
H695 H 0.55743 0.00532 0.95545 0.0
H696 H 0.66339 0.89156 0.01329 0.0
H697 H 0.62559 0.93335 0.99378 0.0
H698 H 0.51809 0.88919 0.98653 0.0
C699 C 0.4706 0.98234 0.91317 0.0
C700 C 0.54822 0.98032 0.9629 0.0
C701 C 0.45703 0.99303 0.88275 0.0
C702 C 0.63678 0.88885 0.01986 0.0
C703 C 0.61496 0.91289 0.00885 0.0
C704 C 0.52632 0.91504 0.9813 0.0
C705 C 0.50559 0.97888 0.9162 0.0
C706 C 0.52 0.96435 0.94681 0.0
C707 C 0.57978 0.90862 0.0143 0.0
C708 C 0.55627 0.92984 0.9956 0.0
H709 H 0.53008 0.00156 0.83675 0.0
H710 H 0.55383 0.98362 0.89012 0.0
H711 H 0.48659 0.91938 0.94516 0.0
H712 H 0.57905 0.83421 0.05651 0.0
H713 H 0.54069 0.87718 0.03889 0.0
C714 C 0.27961 0.21391 0.09929 0.0
C715 C 0.25675 0.18761 0.0887 0.0
C716 C 0.2691 0.23916 0.12176 0.0
C717 C 0.2456 0.27659 0.18507 0.0
H718 H 0.16235 0.32101 0.16791 0.0
C719 C 0.22322 0.39518 0.25886 0.0
C720 C 0.22232 0.42172 0.23594 0.0
C721 C 0.21381 0.36211 0.24829 0.0
C722 C 0.18537 0.3085 0.17337 0.0
H723 H 0.20507 0.16694 0.09361 0.0
H724 H 0.18714 0.21054 0.13314 0.0
H725 H 0.17693 0.27212 0.13295 0.0
H726 H 0.20612 0.43576 0.18618 0.0
H727 H 0.18931 0.37845 0.16777 0.0
H728 H 0.25497 0.31357 0.22436 0.0
C729 C 0.21292 0.21201 0.12371 0.0
C730 C 0.19375 0.28053 0.15336 0.0
C731 C 0.22331 0.18698 0.10114 0.0
C732 C 0.20666 0.41569 0.2044 0.0
C733 C 0.19727 0.38268 0.1938 0.0
C734 C 0.23707 0.30422 0.20526 0.0
C735 C 0.2357 0.23832 0.13438 0.0
C736 C 0.22461 0.26512 0.15821 0.0
C737 C 0.2035 0.35531 0.21465 0.0
C738 C 0.20745 0.32129 0.19891 0.0
H739 H 0.30546 0.21509 0.09011 0.0
H740 H 0.28713 0.25944 0.1292 0.0
H741 H 0.26921 0.2649 0.18984 0.0
H742 H 0.2355 0.3992 0.2832 0.0
H743 H 0.21814 0.34157 0.26519 0.0
C744 C 0.03335 0.95949 0.19938 0.0
C745 C 0.0411 0.95462 0.23352 0.0
C746 C 0.00058 0.95236 0.18734 0.0
C747 C 0.91957 0.90634 0.21035 0.0
H748 H 0.88493 0.95566 0.13504 0.0
C749 C 0.78525 0.87915 0.16638 0.0
C750 C 0.78426 0.86497 0.13349 0.0
C751 C 0.81366 0.89851 0.17737 0.0
C752 C 0.89435 0.94187 0.15616 0.0
H753 H 0.02074 0.93961 0.28222 0.0
H754 H 0.96311 0.92862 0.26178 0.0
H755 H 0.94076 0.97193 0.15835 0.0
H756 H 0.81029 0.86256 0.08525 0.0
H757 H 0.86024 0.89682 0.1046 0.0
H758 H 0.8728 0.87688 0.20858 0.0
C759 C 0.98247 0.93658 0.24377 0.0
C760 C 0.92642 0.95088 0.16938 0.0
C761 C 0.01548 0.94294 0.25561 0.0
C762 C 0.81043 0.87353 0.11062 0.0
C763 C 0.83899 0.89297 0.12172 0.0
C764 C 0.88736 0.8979 0.19765 0.0
C765 C 0.97457 0.94098 0.20938 0.0
C766 C 0.93967 0.9329 0.19639 0.0
C767 C 0.8415 0.90391 0.15575 0.0
C768 C 0.8746 0.91533 0.17026 0.0
H769 H 0.05277 0.96849 0.18186 0.0
H770 H 0.99587 0.95537 0.1606 0.0
H771 H 0.92895 0.89129 0.23052 0.0
H772 H 0.7653 0.87285 0.1844 0.0
H773 H 0.81507 0.90724 0.20349 0.0
C774 C 0.22179 0.81215 0.45494 0.0
C775 C 0.24969 0.83507 0.45187 0.0
C776 C 0.21055 0.79248 0.42697 0.0
C777 C 0.24417 0.76038 0.34508 0.0
H778 H 0.15651 0.71198 0.34352 0.0
C779 C 0.23389 0.63675 0.27433 0.0
C780 C 0.22616 0.61158 0.29804 0.0
C781 C 0.22395 0.66977 0.28031 0.0
C782 C 0.18095 0.7256 0.34326 0.0
H783 H 0.28611 0.85784 0.4171 0.0
H784 H 0.26544 0.82511 0.36771 0.0
H785 H 0.16514 0.76244 0.37956 0.0
H786 H 0.19841 0.59962 0.34385 0.0
H787 H 0.18069 0.6568 0.35421 0.0
H788 H 0.2603 0.72315 0.30967 0.0
C789 C 0.25306 0.82082 0.39183 0.0
C790 C 0.18609 0.75435 0.36422 0.0
C791 C 0.26487 0.83975 0.42006 0.0
C792 C 0.2043 0.6186 0.32504 0.0
C793 C 0.19427 0.65151 0.33099 0.0
C794 C 0.23888 0.73204 0.32383 0.0
C795 C 0.22652 0.79593 0.39508 0.0
C796 C 0.21835 0.771 0.3669 0.0
C797 C 0.20628 0.67795 0.31015 0.0
C798 C 0.20778 0.71322 0.32402 0.0
H799 H 0.20971 0.80832 0.47934 0.0
H800 H 0.19046 0.77341 0.43098 0.0
H801 H 0.26948 0.77206 0.34621 0.0
H802 H 0.25101 0.63194 0.25349 0.0
H803 H 0.23307 0.6895 0.26346 0.0
C804 C 0.51925 0.09883 0.77522 0.0
C805 C 0.49451 0.08214 0.75472 0.0
C806 C 0.55216 0.10518 0.76278 0.0
C807 C 0.60927 0.08219 0.69037 0.0
H808 H 0.65569 0.16778 0.71422 0.0
C809 C 0.70605 0.1588 0.60799 0.0
C810 C 0.73302 0.17603 0.62501 0.0
C811 C 0.68236 0.13878 0.62613 0.0
C812 C 0.64333 0.14347 0.70777 0.0
H813 H 0.48442 0.05947 0.70512 0.0
H814 H 0.54071 0.07199 0.68289 0.0
H815 H 0.60297 0.15139 0.74258 0.0
H816 H 0.7587 0.18317 0.67317 0.0
H817 H 0.71762 0.14793 0.70462 0.0
H818 H 0.64894 0.07569 0.65386 0.0
C819 C 0.5356 0.07905 0.70898 0.0
C820 C 0.61305 0.13399 0.7241 0.0
C821 C 0.50307 0.07221 0.72159 0.0
C822 C 0.73798 0.17017 0.65957 0.0
C823 C 0.71437 0.15031 0.67762 0.0
C824 C 0.6393 0.092 0.67363 0.0
C825 C 0.56075 0.09544 0.72938 0.0
C826 C 0.59512 0.10358 0.71506 0.0
C827 C 0.68544 0.13593 0.66144 0.0
C828 C 0.65628 0.12298 0.68183 0.0
H829 H 0.51337 0.1064 0.80101 0.0
H830 H 0.57087 0.11746 0.77946 0.0
H831 H 0.59679 0.05812 0.68335 0.0
H832 H 0.70158 0.16324 0.58143 0.0
H833 H 0.6602 0.12798 0.61307 0.0
C834 C 0.23943 0.21592 0.93155 0.0
C835 C 0.26333 0.19622 0.94702 0.0
C836 C 0.24902 0.23794 0.90571 0.0
C837 C 0.32242 0.28871 0.8752 0.0
H838 H 0.25723 0.3112 0.80727 0.0
C839 C 0.29681 0.42203 0.83575 0.0
C840 C 0.28023 0.42689 0.805 0.0
C841 C 0.30853 0.39037 0.84333 0.0
C842 C 0.2763 0.30502 0.82541 0.0
H843 H 0.31595 0.18311 0.94605 0.0
H844 H 0.33274 0.22188 0.90071 0.0
H845 H 0.24845 0.25967 0.83863 0.0
H846 H 0.26663 0.40414 0.75639 0.0
H847 H 0.28791 0.34889 0.76915 0.0
H848 H 0.34936 0.33534 0.86311 0.0
C849 C 0.30659 0.22041 0.90903 0.0
C850 C 0.27106 0.27541 0.84363 0.0
C851 C 0.29691 0.19814 0.93493 0.0
C852 C 0.27965 0.40105 0.78014 0.0
C853 C 0.29139 0.3693 0.78769 0.0
C854 C 0.32765 0.31857 0.85702 0.0
C855 C 0.28281 0.24098 0.89448 0.0
C856 C 0.29307 0.26769 0.86987 0.0
C857 C 0.30363 0.36299 0.8203 0.0
C858 C 0.30378 0.32783 0.83299 0.0
H859 H 0.21328 0.21492 0.93984 0.0
H860 H 0.23001 0.25362 0.89552 0.0
H861 H 0.34001 0.28354 0.89517 0.0
H862 H 0.29711 0.44151 0.85545 0.0
H863 H 0.31774 0.38655 0.86869 0.0
C864 C 0.3334 0.03109 0.06838 0.0
C865 C 0.34068 0.05511 0.04339 0.0
C866 C 0.35554 0.0055 0.07424 0.0
C867 C 0.44381 0.98473 0.06896 0.0
H868 H 0.40655 0.89382 0.08418 0.0
C869 C 0.47903 0.84599 0.12537 0.0
C870 C 0.49131 0.85793 0.15694 0.0
C871 C 0.46863 0.86878 0.1013 0.0
C872 C 0.41764 0.91882 0.0793 0.0
H873 H 0.37711 0.07136 0.00509 0.0
H874 H 0.41636 0.02683 0.01598 0.0
H875 H 0.37039 0.93618 0.06217 0.0
H876 H 0.50551 0.90263 0.18703 0.0
H877 H 0.48787 0.94239 0.14508 0.0
H878 H 0.49072 0.96767 0.08774 0.0
C879 C 0.39328 0.02777 0.03076 0.0
C880 C 0.39678 0.94319 0.06707 0.0
C881 C 0.37081 0.05317 0.02453 0.0
C882 C 0.49621 0.89291 0.16276 0.0
C883 C 0.48618 0.91564 0.13865 0.0
C884 C 0.46468 0.96036 0.08154 0.0
C885 C 0.3857 0.00353 0.05553 0.0
C886 C 0.40931 0.97667 0.06291 0.0
C887 C 0.47064 0.90381 0.1084 0.0
C888 C 0.45149 0.92743 0.08791 0.0
H889 H 0.3104 0.03184 0.0833 0.0
H890 H 0.34928 0.98748 0.09387 0.0
H891 H 0.45416 0.01033 0.06592 0.0
H892 H 0.47483 0.8191 0.12046 0.0
H893 H 0.45706 0.85896 0.07805 0.0
C894 C 0.83767 0.50065 0.97327 0.0
C895 C 0.84989 0.46821 0.96872 0.0
C896 C 0.85679 0.52908 0.96228 0.0
C897 C 0.94407 0.5558 0.93281 0.0
H898 H 0.898 0.62828 0.89116 0.0
C899 C 0.99508 0.64141 0.82597 0.0
C900 C 0.98912 0.67594 0.82871 0.0
C901 C 0.9837 0.61947 0.8513 0.0
C902 C 0.91118 0.60851 0.90331 0.0
H903 H 0.89104 0.43988 0.9482 0.0
H904 H 0.92339 0.48886 0.92764 0.0
H905 H 0.86492 0.58291 0.91836 0.0
H906 H 0.96814 0.71515 0.86015 0.0
H907 H 0.94739 0.6765 0.90421 0.0
H908 H 0.99021 0.58046 0.91523 0.0
C909 C 0.8999 0.49284 0.94095 0.0
C910 C 0.89226 0.5825 0.91897 0.0
C911 C 0.88113 0.46463 0.95241 0.0
C912 C 0.97349 0.68863 0.85795 0.0
C913 C 0.96144 0.66659 0.88292 0.0
C914 C 0.96292 0.58147 0.91653 0.0
C915 C 0.88823 0.52551 0.94604 0.0
C916 C 0.90841 0.55533 0.93318 0.0
C917 C 0.96548 0.63173 0.87918 0.0
C918 C 0.94655 0.60765 0.90111 0.0
H919 H 0.81377 0.50414 0.98606 0.0
H920 H 0.84711 0.55384 0.96693 0.0
H921 H 0.95747 0.53584 0.94434 0.0
H922 H 0.00658 0.63117 0.80329 0.0
H923 H 0.98677 0.5926 0.84776 0.0
C924 C 0.82086 0.593 0.33743 0.0
C925 C 0.83443 0.5927 0.30439 0.0
C926 C 0.79227 0.61127 0.34499 0.0
C927 C 0.74529 0.68104 0.33228 0.0
H928 H 0.66172 0.63044 0.30967 0.0
C929 C 0.63207 0.73862 0.271 0.0
C930 C 0.60002 0.72205 0.27325 0.0
C931 C 0.65927 0.72705 0.2892 0.0
C932 C 0.6845 0.64496 0.31714 0.0
H933 H 0.82928 0.61206 0.25373 0.0
H934 H 0.7791 0.64329 0.26693 0.0
H935 H 0.71401 0.60107 0.31416 0.0
H936 H 0.57014 0.68262 0.29816 0.0
H937 H 0.61729 0.66314 0.33123 0.0
H938 H 0.7162 0.72529 0.33362 0.0
C939 C 0.79092 0.62976 0.28692 0.0
C940 C 0.71446 0.62803 0.31952 0.0
C941 C 0.81945 0.6117 0.27938 0.0
C942 C 0.59467 0.69595 0.29641 0.0
C943 C 0.62177 0.68459 0.31494 0.0
C944 C 0.71526 0.6981 0.33 0.0
C945 C 0.77707 0.6295 0.31964 0.0
C946 C 0.74516 0.64614 0.32581 0.0
C947 C 0.65477 0.69868 0.31 0.0
C948 C 0.68474 0.68042 0.32094 0.0
H949 H 0.83188 0.57861 0.35725 0.0
H950 H 0.78164 0.61063 0.37032 0.0
H951 H 0.76892 0.69523 0.3372 0.0
H952 H 0.63679 0.7584 0.25275 0.0
H953 H 0.68429 0.73837 0.28441 0.0
C954 C 0.67682 0.54903 0.47461 0.0
C955 C 0.71203 0.55379 0.47876 0.0
C956 C 0.66224 0.51722 0.4662 0.0
C957 C 0.68146 0.4358 0.42696 0.0
H958 H 0.59385 0.40769 0.46437 0.0
C959 C 0.61215 0.31771 0.3744 0.0
C960 C 0.57984 0.32435 0.3624 0.0
C961 C 0.62828 0.33947 0.39813 0.0
C962 C 0.61839 0.41513 0.45388 0.0
H963 H 0.75959 0.52875 0.47717 0.0
H964 H 0.73398 0.47301 0.46246 0.0
H965 H 0.62361 0.45915 0.48614 0.0
H966 H 0.53758 0.35663 0.368 0.0
H967 H 0.56578 0.39495 0.40942 0.0
H968 H 0.67587 0.39255 0.39397 0.0
C969 C 0.71774 0.49407 0.46553 0.0
C970 C 0.63536 0.44462 0.46619 0.0
C971 C 0.7324 0.52601 0.47386 0.0
C972 C 0.56245 0.35097 0.37705 0.0
C973 C 0.57865 0.37288 0.40075 0.0
C974 C 0.66457 0.40629 0.41477 0.0
C975 C 0.68245 0.48931 0.46185 0.0
C976 C 0.66662 0.45579 0.45214 0.0
C977 C 0.6124 0.36832 0.4101 0.0
C978 C 0.63245 0.39612 0.42746 0.0
H979 H 0.66036 0.56988 0.47799 0.0
H980 H 0.63508 0.51461 0.46271 0.0
H981 H 0.7053 0.44385 0.41535 0.0
H982 H 0.62587 0.29707 0.36358 0.0
H983 H 0.65401 0.33495 0.40543 0.0
C984 C 0.20363 0.92618 0.32249 0.0
C985 C 0.19422 0.93275 0.28901 0.0
C986 C 0.23068 0.90568 0.32887 0.0
C987 C 0.28467 0.84277 0.28771 0.0
H988 H 0.3562 0.88126 0.34553 0.0
C989 C 0.43409 0.85449 0.2788 0.0
C990 C 0.44016 0.82212 0.2657 0.0
C991 C 0.40362 0.86066 0.29516 0.0
C992 C 0.33632 0.86991 0.32959 0.0
H993 H 0.2058 0.92312 0.2361 0.0
H994 H 0.2527 0.88765 0.24709 0.0
H995 H 0.3009 0.90609 0.34599 0.0
H996 H 0.42075 0.77003 0.2627 0.0
H997 H 0.36757 0.78063 0.29189 0.0
H998 H 0.32036 0.80824 0.2693 0.0
C999 C 0.23894 0.89773 0.26848 0.0
C1000 C 0.30456 0.884 0.33004 0.0
C1001 C 0.21217 0.91828 0.26215 0.0
C1002 C 0.41672 0.79526 0.27249 0.0
C1003 C 0.38612 0.80143 0.28892 0.0
C1004 C 0.31629 0.8287 0.28723 0.0
C1005 C 0.24863 0.89128 0.30186 0.0
C1006 C 0.279 0.87164 0.30775 0.0
C1007 C 0.37848 0.83455 0.29881 0.0
C1008 C 0.34307 0.84321 0.30684 0.0
H1009 H 0.19016 0.93692 0.34373 0.0
H1010 H 0.23759 0.90112 0.35484 0.0
H1011 H 0.26529 0.83231 0.27078 0.0
H1012 H 0.45194 0.87559 0.27423 0.0
H1013 H 0.39873 0.88652 0.30223 0.0
C1014 C 0.16413 0.98573 0.5408 0.0
C1015 C 0.19387 0.98096 0.55914 0.0
C1016 C 0.14356 0.01233 0.54929 0.0
C1017 C 0.14441 0.09518 0.59331 0.0
H1018 H 0.04836 0.0753 0.60714 0.0
C1019 C 0.06127 0.19655 0.64853 0.0
C1020 C 0.04518 0.18559 0.67837 0.0
C1021 C 0.07359 0.17296 0.62531 0.0
C1022 C 0.07506 0.08131 0.60298 0.0
H1023 H 0.22556 0.00049 0.60049 0.0
H1024 H 0.18975 0.04706 0.6152 0.0
H1025 H 0.08382 0.03128 0.58442 0.0
H1026 H 0.02683 0.14196 0.70631 0.0
H1027 H 0.04761 0.1007 0.66557 0.0
H1028 H 0.13606 0.14471 0.61312 0.0
C1029 C 0.18244 0.03031 0.59416 0.0
C1030 C 0.09532 0.05619 0.58988 0.0
C1031 C 0.20281 0.00351 0.5859 0.0
C1032 C 0.03885 0.15086 0.68322 0.0
C1033 C 0.05078 0.12731 0.65988 0.0
C1034 C 0.12413 0.12036 0.60609 0.0
C1035 C 0.15254 0.03492 0.57603 0.0
C1036 C 0.13037 0.06261 0.58586 0.0
C1037 C 0.0697 0.13812 0.63153 0.0
C1038 C 0.08941 0.11343 0.61196 0.0
H1039 H 0.15657 0.96876 0.52002 0.0
H1040 H 0.12075 0.01537 0.53481 0.0
H1041 H 0.17128 0.10095 0.59006 0.0
H1042 H 0.06678 0.22326 0.64458 0.0
H1043 H 0.08784 0.18197 0.60352 0.0
C1044 C 0.81136 0.46152 0.25678 0.0
C1045 C 0.84033 0.45854 0.23647 0.0
C1046 C 0.78135 0.44294 0.2488 0.0
C1047 C 0.74955 0.36607 0.20262 0.0
H1048 H 0.66288 0.40423 0.22061 0.0
C1049 C 0.63251 0.28835 0.24293 0.0
C1050 C 0.60088 0.30268 0.24163 0.0
C1051 C 0.66072 0.30464 0.22808 0.0
C1052 C 0.68669 0.3932 0.21451 0.0
H1053 H 0.86014 0.4339 0.19138 0.0
H1054 H 0.80786 0.40187 0.17746 0.0
H1055 H 0.71423 0.44019 0.22451 0.0
H1056 H 0.57252 0.34199 0.21975 0.0
H1057 H 0.62152 0.36968 0.19206 0.0
H1058 H 0.72206 0.31889 0.19362 0.0
C1059 C 0.80846 0.41823 0.19981 0.0
C1060 C 0.71626 0.41381 0.21741 0.0
C1061 C 0.83846 0.43671 0.20782 0.0
C1062 C 0.59673 0.33045 0.22089 0.0
C1063 C 0.62495 0.34664 0.20566 0.0
C1064 C 0.71993 0.34544 0.1997 0.0
C1065 C 0.77958 0.42103 0.22023 0.0
C1066 C 0.74808 0.40024 0.21265 0.0
C1067 C 0.65764 0.33544 0.21145 0.0
C1068 C 0.68818 0.35846 0.20666 0.0
H1069 H 0.81186 0.47807 0.27901 0.0
H1070 H 0.75972 0.44524 0.26542 0.0
H1071 H 0.77365 0.35473 0.19879 0.0
H1072 H 0.63623 0.26709 0.25912 0.0
H1073 H 0.68528 0.29503 0.23317 0.0
C1074 C 0.70587 0.56674 0.76377 0.0
C1075 C 0.67579 0.57433 0.74741 0.0
C1076 C 0.73583 0.58606 0.758 0.0
C1077 C 0.77001 0.66803 0.72535 0.0
H1078 H 0.85206 0.61914 0.71651 0.0
C1079 C 0.92557 0.68519 0.70608 0.0
C1080 C 0.93139 0.71244 0.72885 0.0
C1081 C 0.89248 0.67323 0.69881 0.0
C1082 C 0.82942 0.63335 0.71808 0.0
H1083 H 0.65354 0.60915 0.71301 0.0
H1084 H 0.70574 0.64241 0.7028 0.0
H1085 H 0.79852 0.58822 0.72506 0.0
H1086 H 0.9078 0.75055 0.75949 0.0
H1087 H 0.85027 0.72934 0.74786 0.0
H1088 H 0.80102 0.71323 0.71864 0.0
C1089 C 0.70615 0.62165 0.72021 0.0
C1090 C 0.79869 0.61552 0.72373 0.0
C1091 C 0.67622 0.60237 0.72597 0.0
C1092 C 0.9038 0.7298 0.74138 0.0
C1093 C 0.87074 0.71742 0.73477 0.0
C1094 C 0.80087 0.68594 0.71974 0.0
C1095 C 0.73643 0.61341 0.73572 0.0
C1096 C 0.76872 0.63263 0.72807 0.0
C1097 C 0.86476 0.68765 0.71513 0.0
C1098 C 0.83111 0.66887 0.71638 0.0
H1099 H 0.70648 0.54548 0.78056 0.0
H1100 H 0.75861 0.57947 0.7709 0.0
H1101 H 0.74736 0.68203 0.7286 0.0
H1102 H 0.94655 0.67128 0.69639 0.0
H1103 H 0.88884 0.65101 0.68253 0.0
C1104 C 0.59416 0.82253 0.55296 0.0
C1105 C 0.56025 0.81924 0.56353 0.0
C1106 C 0.60386 0.84468 0.52725 0.0
C1107 C 0.57327 0.8835 0.45176 0.0
H1108 H 0.6557 0.94032 0.46072 0.0
C1109 C 0.6705 0.97735 0.36867 0.0
C1110 C 0.67669 0.95475 0.3418 0.0
C1111 C 0.64932 0.96717 0.3955 0.0
C1112 C 0.63229 0.92513 0.45796 0.0
H1113 H 0.5098 0.83644 0.5554 0.0
H1114 H 0.52677 0.87476 0.5096 0.0
H1115 H 0.633 0.91014 0.50977 0.0
H1116 H 0.66425 0.90496 0.32041 0.0
H1117 H 0.62689 0.88732 0.36682 0.0
H1118 H 0.57347 0.8973 0.3995 0.0
C1119 C 0.5458 0.86035 0.52159 0.0
C1120 C 0.6195 0.9076 0.48595 0.0
C1121 C 0.53615 0.83853 0.54778 0.0
C1122 C 0.65968 0.92279 0.34091 0.0
C1123 C 0.63822 0.9128 0.36738 0.0
C1124 C 0.58629 0.90075 0.42361 0.0
C1125 C 0.5798 0.86371 0.5112 0.0
C1126 C 0.59039 0.88593 0.4829 0.0
C1127 C 0.63371 0.93444 0.39552 0.0
C1128 C 0.61641 0.92107 0.42624 0.0
H1129 H 0.61333 0.80807 0.56466 0.0
H1130 H 0.63017 0.84641 0.51943 0.0
H1131 H 0.55083 0.86689 0.44871 0.0
H1132 H 0.68359 0.00204 0.3699 0.0
H1133 H 0.64615 0.9844 0.41681 0.0
C1134 C 0.43471 0.29725 0.82027 0.0
C1135 C 0.44898 0.27582 0.84363 0.0
C1136 C 0.40721 0.28584 0.8004 0.0
C1137 C 0.36561 0.20962 0.76291 0.0
H1138 H 0.29623 0.27213 0.74363 0.0
C1139 C 0.24936 0.23982 0.66572 0.0
C1140 C 0.26822 0.23703 0.63573 0.0
C1141 C 0.26346 0.23124 0.69664 0.0
C1142 C 0.31482 0.25386 0.74912 0.0
H1143 H 0.44517 0.22545 0.86448 0.0
H1144 H 0.39706 0.20545 0.82934 0.0
H1145 H 0.33738 0.28612 0.78759 0.0
H1146 H 0.31382 0.21833 0.61346 0.0
H1147 H 0.33834 0.2031 0.66703 0.0
H1148 H 0.34423 0.17831 0.72262 0.0
C1149 C 0.40738 0.23111 0.82655 0.0
C1150 C 0.33859 0.2621 0.77428 0.0
C1151 C 0.43485 0.24264 0.84671 0.0
C1152 C 0.29876 0.22048 0.63632 0.0
C1153 C 0.31287 0.21193 0.66717 0.0
C1154 C 0.34201 0.20152 0.73724 0.0
C1155 C 0.39327 0.25263 0.8032 0.0
C1156 C 0.3649 0.2407 0.78072 0.0
C1157 C 0.29659 0.21988 0.69783 0.0
C1158 C 0.3169 0.22402 0.72943 0.0
H1159 H 0.44479 0.32295 0.81722 0.0
H1160 H 0.39728 0.30292 0.78227 0.0
H1161 H 0.38562 0.19256 0.7673 0.0
H1162 H 0.22584 0.2527 0.66589 0.0
H1163 H 0.24992 0.23691 0.7198 0.0
C1164 C 0.97548 0.14827 0.06328 0.0
C1165 C 0.98287 0.18338 0.06534 0.0
C1166 C 0.95688 0.13395 0.03612 0.0
C1167 C 0.89638 0.15613 0.97038 0.0
H1168 H 0.91722 0.06932 0.93035 0.0
C1169 C 0.82465 0.10315 0.85419 0.0
C1170 C 0.81188 0.06948 0.85594 0.0
C1171 C 0.84882 0.11594 0.87727 0.0
C1172 C 0.91102 0.09347 0.94144 0.0
H1173 H 0.9771 0.23082 0.03992 0.0
H1174 H 0.94507 0.20575 0.99238 0.0
H1175 H 0.95305 0.09437 0.97557 0.0
H1176 H 0.8158 0.02218 0.88182 0.0
H1177 H 0.85827 0.04467 0.92261 0.0
H1178 H 0.85436 0.15528 0.93651 0.0
C1179 C 0.95313 0.18937 0.01212 0.0
C1180 C 0.93147 0.10781 0.96735 0.0
C1181 C 0.97161 0.20373 0.03934 0.0
C1182 C 0.82527 0.04823 0.87998 0.0
C1183 C 0.84954 0.0611 0.90324 0.0
C1184 C 0.87609 0.1419 0.94449 0.0
C1185 C 0.94532 0.15434 0.01031 0.0
C1186 C 0.92431 0.1393 0.98216 0.0
C1187 C 0.8608 0.09538 0.90269 0.0
C1188 C 0.88314 0.11042 0.92972 0.0
H1189 H 0.98367 0.1318 0.08286 0.0
H1190 H 0.95092 0.10695 0.03576 0.0
H1191 H 0.88969 0.18004 0.98168 0.0
H1192 H 0.81525 0.11989 0.83541 0.0
H1193 H 0.85761 0.14222 0.87568 0.0
C1194 C 0.10158 0.77395 0.33724 0.0
C1195 C 0.08848 0.7996 0.35767 0.0
C1196 C 0.12399 0.78204 0.31085 0.0
C1197 C 0.15049 0.85005 0.25345 0.0
H1198 H 0.22535 0.79268 0.23601 0.0
C1199 C 0.26248 0.81525 0.15097 0.0
C1200 C 0.24126 0.80996 0.12277 0.0
C1201 C 0.24944 0.82773 0.18146 0.0
C1202 C 0.20512 0.80958 0.24082 0.0
H1203 H 0.08865 0.85386 0.36661 0.0
H1204 H 0.12809 0.86791 0.32061 0.0
H1205 H 0.19155 0.78489 0.28693 0.0
H1206 H 0.19202 0.81884 0.10224 0.0
H1207 H 0.16927 0.84086 0.15499 0.0
H1208 H 0.16375 0.87424 0.20679 0.0
C1209 C 0.12075 0.8416 0.32484 0.0
C1210 C 0.18539 0.80469 0.26981 0.0
C1211 C 0.09825 0.83351 0.3512 0.0
C1212 C 0.2089 0.82295 0.12365 0.0
C1213 C 0.19578 0.83528 0.15412 0.0
C1214 C 0.17028 0.85493 0.22431 0.0
C1215 C 0.13393 0.81593 0.30444 0.0
C1216 C 0.1573 0.8242 0.27597 0.0
C1217 C 0.21503 0.83496 0.18397 0.0
C1218 C 0.19756 0.83442 0.2174 0.0
H1219 H 0.09449 0.74762 0.34157 0.0
H1220 H 0.13325 0.76171 0.29518 0.0
H1221 H 0.12896 0.8655 0.25751 0.0
H1222 H 0.28748 0.80525 0.15093 0.0
H1223 H 0.26522 0.8282 0.20386 0.0
C1224 C 0.52671 0.17587 0.99226 0.0
C1225 C 0.54143 0.20896 0.99322 0.0
C1226 C 0.5334 0.15325 0.01789 0.0
C1227 C 0.55612 0.14769 0.10604 0.0
H1228 H 0.61043 0.07203 0.08186 0.0
C1229 C 0.65054 0.09665 0.19694 0.0
C1230 C 0.66223 0.06399 0.19266 0.0
C1231 C 0.62544 0.10791 0.17595 0.0
C1232 C 0.5944 0.09231 0.0892 0.0
H1233 H 0.57381 0.24466 0.02203 0.0
H1234 H 0.58457 0.20543 0.06741 0.0
H1235 H 0.58594 0.10487 0.03738 0.0
H1236 H 0.65491 0.01634 0.16528 0.0
H1237 H 0.60997 0.03568 0.1288 0.0
H1238 H 0.56452 0.13561 0.15773 0.0
C1239 C 0.56825 0.19696 0.04661 0.0
C1240 C 0.5806 0.11124 0.06362 0.0
C1241 C 0.56228 0.21927 0.0206 0.0
C1242 C 0.64625 0.04167 0.16899 0.0
C1243 C 0.62085 0.05293 0.1479 0.0
C1244 C 0.56927 0.12836 0.13162 0.0
C1245 C 0.5541 0.16372 0.04531 0.0
C1246 C 0.56261 0.1399 0.07191 0.0
C1247 C 0.61115 0.08669 0.15021 0.0
C1248 C 0.59004 0.10146 0.12357 0.0
H1249 H 0.51061 0.16727 0.97134 0.0
H1250 H 0.52239 0.12766 0.01639 0.0
H1251 H 0.54192 0.16949 0.11293 0.0
H1252 H 0.66242 0.11427 0.21518 0.0
H1253 H 0.61918 0.13413 0.17847 0.0
C1254 C 0.11028 0.21688 0.19749 0.0
C1255 C 0.10027 0.24976 0.19147 0.0
C1256 C 0.1299 0.2104 0.22579 0.0
C1257 C 0.1797 0.25228 0.29663 0.0
H1258 H 0.14191 0.1773 0.34859 0.0
C1259 C 0.14978 0.22812 0.44247 0.0
C1260 C 0.17912 0.2436 0.457 0.0
C1261 C 0.14922 0.21868 0.40821 0.0
C1262 C 0.153 0.19818 0.33434 0.0
H1263 H 0.10467 0.30196 0.20912 0.0
H1264 H 0.13821 0.29071 0.25873 0.0
H1265 H 0.12488 0.1832 0.28996 0.0
H1266 H 0.23189 0.25816 0.44806 0.0
H1267 H 0.23119 0.24093 0.38826 0.0
H1268 H 0.20572 0.26877 0.34176 0.0
C1269 C 0.1313 0.26985 0.24155 0.0
C1270 C 0.1435 0.2014 0.30053 0.0
C1271 C 0.11173 0.2763 0.21326 0.0
C1272 C 0.20892 0.24618 0.43754 0.0
C1273 C 0.20839 0.23672 0.40318 0.0
C1274 C 0.18905 0.24916 0.33048 0.0
C1275 C 0.13985 0.23667 0.2487 0.0
C1276 C 0.1556 0.22932 0.28174 0.0
C1277 C 0.17806 0.22448 0.38774 0.0
C1278 C 0.17467 0.22288 0.35017 0.0
H1279 H 0.10221 0.19595 0.18084 0.0
H1280 H 0.13655 0.18467 0.23021 0.0
H1281 H 0.19007 0.27368 0.28263 0.0
H1282 H 0.12651 0.2257 0.45699 0.0
H1283 H 0.12533 0.2095 0.3973 0.0
C1284 C 0.97092 0.89201 0.48803 0.0
C1285 C 0.9782 0.85759 0.48785 0.0
C1286 C 0.95562 0.90686 0.51612 0.0
C1287 C 0.93949 0.89674 0.60742 0.0
H1288 H 0.86289 0.95149 0.59111 0.0
C1289 C 0.83888 0.92288 0.70813 0.0
C1290 C 0.82163 0.953 0.70736 0.0
C1291 C 0.86344 0.9161 0.68388 0.0
C1292 C 0.8847 0.93696 0.5962 0.0
H1293 H 0.97541 0.81194 0.51745 0.0
H1294 H 0.94843 0.83796 0.5665 0.0
H1295 H 0.89448 0.92927 0.54334 0.0
H1296 H 0.81824 0.00076 0.68223 0.0
H1297 H 0.86188 0.98924 0.63992 0.0
H1298 H 0.92941 0.90402 0.6603 0.0
C1299 C 0.95488 0.85342 0.54487 0.0
C1300 C 0.9027 0.92406 0.56877 0.0
C1301 C 0.97007 0.83846 0.51665 0.0
C1302 C 0.83113 0.97733 0.68331 0.0
C1303 C 0.85583 0.97054 0.65894 0.0
C1304 C 0.9216 0.90982 0.63489 0.0
C1305 C 0.94734 0.88774 0.5448 0.0
C1306 C 0.92988 0.9033 0.57407 0.0
C1307 C 0.87149 0.93938 0.65834 0.0
C1308 C 0.89354 0.92951 0.62959 0.0
H1309 H 0.97689 0.9076 0.46638 0.0
H1310 H 0.95041 0.93342 0.51545 0.0
H1311 H 0.96071 0.8813 0.61226 0.0
H1312 H 0.83237 0.90387 0.72674 0.0
H1313 H 0.8747 0.89176 0.68412 0.0
C1314 C 0.44261 0.78014 0.70732 0.0
C1315 C 0.45554 0.74786 0.71022 0.0
C1316 C 0.41657 0.79039 0.72878 0.0
C1317 C 0.35291 0.75836 0.79214 0.0
H1318 H 0.37544 0.84288 0.84002 0.0
C1319 C 0.35592 0.80111 0.93585 0.0
C1320 C 0.32601 0.7841 0.94679 0.0
C1321 C 0.36074 0.80825 0.90165 0.0
C1322 C 0.36845 0.8194 0.82669 0.0
H1323 H 0.44966 0.70039 0.73665 0.0
H1324 H 0.40494 0.71824 0.77399 0.0
H1325 H 0.40484 0.82947 0.78747 0.0
H1326 H 0.27617 0.76465 0.93152 0.0
H1327 H 0.28423 0.77769 0.87159 0.0
H1328 H 0.31869 0.74686 0.83266 0.0
C1329 C 0.41462 0.73569 0.75509 0.0
C1330 C 0.38511 0.81183 0.79634 0.0
C1331 C 0.44065 0.72555 0.73386 0.0
C1332 C 0.29939 0.77799 0.92369 0.0
C1333 C 0.30422 0.78507 0.88933 0.0
C1334 C 0.33633 0.76587 0.82248 0.0
C1335 C 0.40273 0.76847 0.75338 0.0
C1336 C 0.37886 0.78037 0.77977 0.0
C1337 C 0.33574 0.79835 0.87763 0.0
C1338 C 0.34529 0.79565 0.84112 0.0
H1339 H 0.45331 0.79791 0.68921 0.0
H1340 H 0.40777 0.8157 0.72664 0.0
H1341 H 0.34698 0.73422 0.7796 0.0
H1342 H 0.37686 0.80587 0.95322 0.0
H1343 H 0.38541 0.81834 0.89376 0.0
C1344 C 0.54539 0.55476 0.85969 0.0
C1345 C 0.53061 0.53741 0.83174 0.0
C1346 C 0.52515 0.56603 0.88633 0.0
C1347 C 0.43514 0.58452 0.90348 0.0
H1348 H 0.47024 0.60702 0.99318 0.0
C1349 C 0.35528 0.6548 0.99886 0.0
C1350 C 0.37026 0.68728 0.00461 0.0
C1351 C 0.37476 0.62874 0.98655 0.0
C1352 C 0.46004 0.6004 0.96835 0.0
H1353 H 0.48387 0.51579 0.81052 0.0
H1354 H 0.44874 0.53311 0.85789 0.0
H1355 H 0.5039 0.57429 0.95352 0.0
H1356 H 0.41741 0.71747 0.00521 0.0
H1357 H 0.45174 0.67157 0.9846 0.0
H1358 H 0.39128 0.61047 0.91853 0.0
C1359 C 0.47557 0.53993 0.85874 0.0
C1360 C 0.47942 0.58203 0.94541 0.0
C1361 C 0.49566 0.5297 0.83164 0.0
C1362 C 0.40546 0.69251 0.00113 0.0
C1363 C 0.42503 0.66628 0.98942 0.0
C1364 C 0.41555 0.60205 0.92664 0.0
C1365 C 0.4898 0.5593 0.88598 0.0
C1366 C 0.46765 0.57468 0.91224 0.0
C1367 C 0.40953 0.63472 0.98041 0.0
C1368 C 0.42814 0.6109 0.95893 0.0
H1369 H 0.57237 0.56101 0.86017 0.0
H1370 H 0.53723 0.58123 0.90637 0.0
H1371 H 0.42523 0.58031 0.87815 0.0
H1372 H 0.32811 0.65035 0.00102 0.0
H1373 H 0.36231 0.60458 0.97971 0.0
C1374 C 0.80165 0.313 0.06104 0.0
C1375 C 0.77578 0.33519 0.06758 0.0
C1376 C 0.80726 0.28672 0.08316 0.0
C1377 C 0.76579 0.24028 0.15549 0.0
H1378 H 0.85271 0.19938 0.15941 0.0
C1379 C 0.77854 0.12895 0.23889 0.0
C1380 C 0.77986 0.10043 0.21735 0.0
C1381 C 0.78955 0.16078 0.22734 0.0
C1382 C 0.8285 0.21096 0.15886 0.0
H1383 H 0.73644 0.34858 0.10277 0.0
H1384 H 0.74735 0.30438 0.14236 0.0
H1385 H 0.84671 0.24975 0.12559 0.0
H1386 H 0.79754 0.08175 0.16893 0.0
H1387 H 0.81788 0.13724 0.14912 0.0
H1388 H 0.74791 0.20181 0.18922 0.0
C1389 C 0.76239 0.30575 0.11955 0.0
C1390 C 0.82477 0.23953 0.13907 0.0
C1391 C 0.75608 0.33127 0.09687 0.0
C1392 C 0.79686 0.10335 0.18617 0.0
C1393 C 0.80828 0.13515 0.17478 0.0
C1394 C 0.76982 0.2125 0.17591 0.0
C1395 C 0.78782 0.28274 0.11297 0.0
C1396 C 0.79306 0.25416 0.1364 0.0
C1397 C 0.80234 0.16431 0.19428 0.0
C1398 C 0.80095 0.19715 0.17728 0.0
H1399 H 0.81719 0.31564 0.0385 0.0
H1400 H 0.82652 0.26932 0.07644 0.0
H1401 H 0.74071 0.24977 0.15377 0.0
H1402 H 0.765 0.12734 0.26276 0.0
H1403 H 0.7848 0.18295 0.24283 0.0
C1404 C 0.01025 0.4631 0.33074 0.0
C1405 C 0.98032 0.48046 0.33468 0.0
C1406 C 0.02775 0.45265 0.35898 0.0
C1407 C 0.01626 0.43047 0.44815 0.0
H1408 H 0.11426 0.43129 0.4453 0.0
C1409 C 0.09406 0.33111 0.50948 0.0
C1410 C 0.12826 0.33862 0.51728 0.0
C1411 C 0.07382 0.35621 0.49772 0.0
C1412 C 0.08696 0.43149 0.44713 0.0
H1413 H 0.94552 0.50064 0.3717 0.0
H1414 H 0.97621 0.48222 0.42106 0.0
H1415 H 0.0841 0.46089 0.40251 0.0
H1416 H 0.16711 0.37891 0.52259 0.0
H1417 H 0.13151 0.42307 0.50273 0.0
H1418 H 0.01918 0.40038 0.49246 0.0
C1419 C 0.98595 0.47663 0.396 0.0
C1420 C 0.06962 0.44806 0.42219 0.0
C1421 C 0.96843 0.48722 0.36768 0.0
C1422 C 0.14081 0.37241 0.51675 0.0
C1423 C 0.12052 0.39761 0.50498 0.0
C1424 C 0.03364 0.41389 0.47321 0.0
C1425 C 0.01584 0.45924 0.39195 0.0
C1426 C 0.03407 0.44662 0.42163 0.0
C1427 C 0.08738 0.38939 0.49355 0.0
C1428 C 0.06916 0.41313 0.47224 0.0
H1429 H 0.02022 0.45742 0.30579 0.0
H1430 H 0.05034 0.43873 0.35491 0.0
H1431 H 0.98885 0.42895 0.44851 0.0
H1432 H 0.08372 0.30526 0.50994 0.0
H1433 H 0.0485 0.34882 0.48913 0.0
C1434 C 0.79219 0.69792 0.61022 0.0
C1435 C 0.76939 0.68948 0.58396 0.0
C1436 C 0.78235 0.71793 0.63776 0.0
C1437 C 0.70498 0.75523 0.67768 0.0
H1438 H 0.77315 0.81506 0.72069 0.0
C1439 C 0.69657 0.89076 0.72959 0.0
C1440 C 0.71826 0.90029 0.75657 0.0
C1441 C 0.69228 0.85673 0.7196 0.0
C1442 C 0.75385 0.79794 0.70952 0.0
H1443 H 0.71881 0.69593 0.56521 0.0
H1444 H 0.70227 0.73252 0.61176 0.0
H1445 H 0.79017 0.77425 0.67863 0.0
H1446 H 0.74763 0.8819 0.79776 0.0
H1447 H 0.74028 0.82253 0.78028 0.0
H1448 H 0.66853 0.78234 0.70645 0.0
C1449 C 0.72722 0.72258 0.61241 0.0
C1450 C 0.76362 0.77431 0.68522 0.0
C1451 C 0.73686 0.70199 0.58528 0.0
C1452 C 0.73057 0.87509 0.77702 0.0
C1453 C 0.72667 0.84113 0.7668 0.0
C1454 C 0.69515 0.77975 0.7013 0.0
C1455 C 0.74961 0.73054 0.63943 0.0
C1456 C 0.73932 0.75306 0.66822 0.0
C1457 C 0.70997 0.83215 0.73635 0.0
C1458 C 0.7195 0.80165 0.71703 0.0
H1459 H 0.81728 0.68815 0.61006 0.0
H1460 H 0.80051 0.72306 0.6578 0.0
H1461 H 0.68543 0.73872 0.6662 0.0
H1462 H 0.68715 0.9098 0.71325 0.0
H1463 H 0.67921 0.85045 0.69605 0.0
C1464 C 0.51317 0.4299 0.73973 0.0
C1465 C 0.5354 0.45623 0.72882 0.0
C1466 C 0.48347 0.42137 0.72166 0.0
C1467 C 0.44647 0.42735 0.63664 0.0
H1468 H 0.36275 0.40153 0.68282 0.0
C1469 C 0.29926 0.37348 0.61041 0.0
C1470 C 0.3065 0.34581 0.58937 0.0
C1471 C 0.32556 0.39505 0.62299 0.0
C1472 C 0.38573 0.4093 0.66947 0.0
H1473 H 0.54379 0.49462 0.69079 0.0
H1474 H 0.49209 0.47993 0.6596 0.0
H1475 H 0.41183 0.42215 0.71575 0.0
H1476 H 0.34594 0.32009 0.56288 0.0
H1477 H 0.39188 0.35791 0.58424 0.0
H1478 H 0.4205 0.41399 0.5904 0.0
C1479 C 0.49768 0.46557 0.68178 0.0
C1480 C 0.414 0.42059 0.68841 0.0
C1481 C 0.52725 0.47406 0.69978 0.0
C1482 C 0.33987 0.34173 0.57858 0.0
C1483 C 0.36611 0.36334 0.59096 0.0
C1484 C 0.41823 0.41598 0.61772 0.0
C1485 C 0.47554 0.43902 0.69235 0.0
C1486 C 0.44485 0.42916 0.67224 0.0
C1487 C 0.3594 0.38916 0.61465 0.0
C1488 C 0.38772 0.40624 0.63396 0.0
H1489 H 0.51881 0.41575 0.76203 0.0
H1490 H 0.46708 0.40051 0.73023 0.0
H1491 H 0.46994 0.43357 0.62342 0.0
H1492 H 0.27369 0.37663 0.61946 0.0
H1493 H 0.31962 0.41501 0.64087 0.0
C1494 C 0.72875 0.33429 0.91607 0.0
C1495 C 0.76225 0.32994 0.92641 0.0
C1496 C 0.71382 0.31339 0.89054 0.0
C1497 C 0.73403 0.24749 0.82517 0.0
H1498 H 0.64844 0.20441 0.85277 0.0
C1499 C 0.70592 0.11643 0.77744 0.0
C1500 C 0.70294 0.09547 0.80562 0.0
C1501 C 0.69758 0.1503 0.78045 0.0
C1502 C 0.67215 0.21638 0.84439 0.0
H1503 H 0.80706 0.30194 0.9161 0.0
H1504 H 0.78125 0.26556 0.87268 0.0
H1505 H 0.66862 0.25722 0.88038 0.0
H1506 H 0.68327 0.09116 0.85658 0.0
H1507 H 0.66882 0.14974 0.86199 0.0
H1508 H 0.73929 0.20547 0.79147 0.0
C1509 C 0.76627 0.28505 0.88388 0.0
C1510 C 0.68362 0.24688 0.86003 0.0
C1511 C 0.78105 0.30571 0.90928 0.0
C1512 C 0.68583 0.10695 0.83452 0.0
C1513 C 0.67768 0.14077 0.8376 0.0
C1514 C 0.72274 0.217 0.80976 0.0
C1515 C 0.73222 0.28793 0.87476 0.0
C1516 C 0.71563 0.26174 0.85191 0.0
C1517 C 0.68643 0.16351 0.81168 0.0
C1518 C 0.69244 0.20014 0.82035 0.0
H1519 H 0.71367 0.35303 0.92843 0.0
H1520 H 0.68769 0.3166 0.88377 0.0
H1521 H 0.75835 0.25872 0.81761 0.0
H1522 H 0.71897 0.1081 0.75483 0.0
H1523 H 0.70358 0.16702 0.75971 0.0
C1524 C 0.99032 0.56095 0.20496 0.0
C1525 C 0.98446 0.57178 0.23851 0.0
C1526 C 0.02038 0.57049 0.18844 0.0
C1527 C 0.10862 0.59854 0.20139 0.0
H1528 H 0.10054 0.64083 0.11426 0.0
C1529 C 0.21411 0.6833 0.14353 0.0
C1530 C 0.21469 0.68862 0.10846 0.0
C1531 C 0.18988 0.66105 0.15771 0.0
C1532 C 0.1035 0.62825 0.13808 0.0
H1533 H 0.00565 0.60056 0.28133 0.0
H1534 H 0.05882 0.61705 0.25233 0.0
H1535 H 0.04997 0.61916 0.14329 0.0
H1536 H 0.19308 0.67226 0.06025 0.0
H1537 H 0.1513 0.63204 0.08485 0.0
H1538 H 0.16216 0.60742 0.19625 0.0
C1539 C 0.03992 0.60119 0.23897 0.0
C1540 C 0.0744 0.61615 0.15487 0.0
C1541 C 0.00949 0.592 0.25543 0.0
C1542 C 0.193 0.66863 0.08738 0.0
C1543 C 0.16881 0.64602 0.10158 0.0
C1544 C 0.13786 0.61018 0.18435 0.0
C1545 C 0.04544 0.59071 0.20522 0.0
C1546 C 0.07663 0.60179 0.18693 0.0
C1547 C 0.16586 0.64329 0.13706 0.0
C1548 C 0.13563 0.62589 0.15278 0.0
H1549 H 0.9715 0.54531 0.19125 0.0
H1550 H 0.0241 0.56195 0.1625 0.0
H1551 H 0.11098 0.58708 0.2259 0.0
H1552 H 0.23088 0.69824 0.16027 0.0
H1553 H 0.18852 0.65989 0.18506 0.0
C1554 C 0.7594 0.72431 0.42268 0.0
C1555 C 0.78244 0.70429 0.43905 0.0
C1556 C 0.76976 0.74477 0.39595 0.0
C1557 C 0.84216 0.79243 0.36155 0.0
H1558 H 0.77687 0.80551 0.29066 0.0
C1559 C 0.80516 0.91973 0.32126 0.0
C1560 C 0.7853 0.92279 0.29226 0.0
C1561 C 0.82109 0.88974 0.32713 0.0
C1562 C 0.79616 0.80202 0.30946 0.0
H1563 H 0.83458 0.68971 0.43941 0.0
H1564 H 0.85287 0.72616 0.39235 0.0
H1565 H 0.77084 0.75626 0.32532 0.0
H1566 H 0.7693 0.89887 0.24499 0.0
H1567 H 0.79862 0.84697 0.2541 0.0
H1568 H 0.86658 0.83936 0.34656 0.0
C1569 C 0.8267 0.72576 0.40059 0.0
C1570 C 0.79229 0.77377 0.3298 0.0
C1571 C 0.8162 0.70491 0.42745 0.0
C1572 C 0.785 0.89718 0.26724 0.0
C1573 C 0.80137 0.86729 0.27283 0.0
C1574 C 0.84604 0.82094 0.34114 0.0
C1575 C 0.80348 0.7459 0.38458 0.0
C1576 C 0.81383 0.76986 0.35749 0.0
C1577 C 0.81728 0.86218 0.30409 0.0
C1578 C 0.82161 0.82729 0.31645 0.0
H1579 H 0.73316 0.72442 0.43059 0.0
H1580 H 0.75133 0.76039 0.38463 0.0
H1581 H 0.85958 0.78977 0.38231 0.0
H1582 H 0.80541 0.93912 0.34104 0.0
H1583 H 0.83293 0.88703 0.35153 0.0
C1584 C 0.87808 0.55473 0.52545 0.0
C1585 C 0.84524 0.55647 0.53891 0.0
C1586 C 0.89896 0.52911 0.53526 0.0
C1587 C 0.89674 0.44448 0.57245 0.0
H1588 H 0.98359 0.47177 0.61228 0.0
C1589 C 0.97846 0.39685 0.68669 0.0
C1590 C 0.97739 0.3619 0.67983 0.0
C1591 C 0.97081 0.41936 0.66143 0.0
C1592 C 0.95961 0.46369 0.60082 0.0
H1593 H 0.80814 0.53228 0.57229 0.0
H1594 H 0.84422 0.48751 0.58892 0.0
H1595 H 0.95152 0.5132 0.5824 0.0
H1596 H 0.96966 0.32311 0.6408 0.0
H1597 H 0.95594 0.36259 0.59641 0.0
H1598 H 0.90383 0.39551 0.59221 0.0
C1599 C 0.85393 0.50588 0.5709 0.0
C1600 C 0.94137 0.48733 0.58357 0.0
C1601 C 0.83337 0.5317 0.56159 0.0
C1602 C 0.97081 0.34999 0.64664 0.0
C1603 C 0.96275 0.37253 0.62137 0.0
C1604 C 0.91508 0.42081 0.58935 0.0
C1605 C 0.88702 0.50446 0.55811 0.0
C1606 C 0.90918 0.47823 0.57037 0.0
C1607 C 0.96154 0.40734 0.62885 0.0
C1608 C 0.94613 0.43045 0.60482 0.0
H1609 H 0.88787 0.57354 0.50793 0.0
H1610 H 0.92438 0.52856 0.52505 0.0
H1611 H 0.87211 0.43674 0.56221 0.0
H1612 H 0.98351 0.4066 0.71212 0.0
H1613 H 0.96981 0.44595 0.66813 0.0
C1614 C 0.36491 0.98042 0.50108 0.0
C1615 C 0.32954 0.97553 0.49832 0.0
C1616 C 0.3816 0.00917 0.4881 0.0
C1617 C 0.36939 0.09495 0.45658 0.0
H1618 H 0.44731 0.07663 0.40041 0.0
C1619 C 0.43992 0.15518 0.33497 0.0
C1620 C 0.44606 0.18905 0.34518 0.0
C1621 C 0.43007 0.13096 0.35854 0.0
C1622 C 0.42576 0.08217 0.41624 0.0
H1623 H 0.28387 0.99775 0.48082 0.0
H1624 H 0.31324 0.04779 0.45751 0.0
H1625 H 0.42017 0.03132 0.43305 0.0
H1626 H 0.44763 0.22431 0.38785 0.0
H1627 H 0.42978 0.18157 0.42953 0.0
H1628 H 0.37432 0.1456 0.43839 0.0
C1629 C 0.32792 0.02945 0.47013 0.0
C1630 C 0.41035 0.05632 0.43512 0.0
C1631 C 0.31115 0.00064 0.48322 0.0
C1632 C 0.44306 0.19825 0.37955 0.0
C1633 C 0.43272 0.17395 0.40321 0.0
C1634 C 0.38496 0.12092 0.43775 0.0
C1635 C 0.36339 0.03369 0.47196 0.0
C1636 C 0.38156 0.06223 0.4549 0.0
C1637 C 0.42592 0.14015 0.39279 0.0
C1638 C 0.41275 0.11448 0.41676 0.0
H1639 H 0.37989 0.96187 0.51297 0.0
H1640 H 0.40889 0.01201 0.49033 0.0
H1641 H 0.34745 0.10028 0.47192 0.0
H1642 H 0.44226 0.14755 0.30858 0.0
H1643 H 0.42461 0.10517 0.34974 0.0
C1644 C 0.32218 0.12278 0.77507 0.0
C1645 C 0.33991 0.11117 0.80285 0.0
C1646 C 0.29491 0.14337 0.78002 0.0
C1647 C 0.23122 0.1667 0.84388 0.0
H1648 H 0.21036 0.23038 0.77465 0.0
C1649 C 0.11802 0.2532 0.78955 0.0
C1650 C 0.09271 0.22712 0.78713 0.0
C1651 C 0.1496 0.24698 0.80334 0.0
C1652 C 0.21597 0.21329 0.79471 0.0
H1653 H 0.34372 0.11288 0.85765 0.0
H1654 H 0.29658 0.14979 0.8663 0.0
H1655 H 0.26473 0.20493 0.77404 0.0
H1656 H 0.07884 0.17561 0.80075 0.0
H1657 H 0.13366 0.16471 0.82491 0.0
H1658 H 0.1818 0.17473 0.86416 0.0
C1659 C 0.30325 0.14231 0.84069 0.0
C1660 C 0.24709 0.19829 0.79403 0.0
C1661 C 0.3303 0.12125 0.83573 0.0
C1662 C 0.09803 0.1961 0.80234 0.0
C1663 C 0.12946 0.18993 0.81626 0.0
C1664 C 0.19999 0.18187 0.84468 0.0
C1665 C 0.28501 0.15342 0.81287 0.0
C1666 C 0.25461 0.17377 0.81768 0.0
C1667 C 0.15623 0.21463 0.815 0.0
C1668 C 0.19158 0.20447 0.81938 0.0
H1669 H 0.32886 0.11531 0.74945 0.0
H1670 H 0.28108 0.15071 0.75795 0.0
H1671 H 0.23608 0.14797 0.86261 0.0
H1672 H 0.11459 0.27728 0.77784 0.0
H1673 H 0.16961 0.26667 0.80252 0.0
C1674 C 0.21522 0.02467 0.96975 0.0
C1675 C 0.20154 0.04375 0.99634 0.0
C1676 C 0.19761 0.99543 0.95739 0.0
C1677 C 0.10997 0.96219 0.9505 0.0
H1678 H 0.15025 0.88282 0.91208 0.0
C1679 C 0.07305 0.83371 0.86502 0.0
C1680 C 0.05843 0.84938 0.83749 0.0
C1681 C 0.08641 0.85325 0.89216 0.0
C1682 C 0.13852 0.90452 0.92329 0.0
H1683 H 0.16061 0.04555 0.03303 0.0
H1684 H 0.13041 0.99456 0.0119 0.0
H1685 H 0.18515 0.92378 0.94555 0.0
H1686 H 0.04393 0.89693 0.81744 0.0
H1687 H 0.06648 0.93107 0.8651 0.0
H1688 H 0.06367 0.94357 0.92738 0.0
C1689 C 0.15405 0.00258 -0.00013 0.0
C1690 C 0.15858 0.92813 0.94206 0.0
C1691 C 0.17139 0.03179 0.01195 0.0
C1692 C 0.05486 0.88441 0.83863 0.0
C1693 C 0.06777 0.90385 0.86588 0.0
C1694 C 0.09001 0.93873 0.93165 0.0
C1695 C 0.16627 0.98478 0.97168 0.0
C1696 C 0.14465 0.95757 0.95522 0.0
C1697 C 0.08487 0.88861 0.89223 0.0
C1698 C 0.10427 0.91011 0.91716 0.0
H1699 H 0.23849 0.03326 0.95737 0.0
H1700 H 0.2076 0.98228 0.93552 0.0
H1701 H 0.09851 0.98479 0.95999 0.0
H1702 H 0.0764 0.80673 0.86437 0.0
H1703 H 0.09927 0.84092 0.91229 0.0
C1704 C 0.68665 0.42209 0.83328 0.0
C1705 C 0.67976 0.42984 0.79944 0.0
C1706 C 0.7122 0.40019 0.84089 0.0
C1707 C 0.76752 0.33709 0.80121 0.0
H1708 H 0.83521 0.37251 0.86503 0.0
C1709 C 0.91669 0.35147 0.80032 0.0
C1710 C 0.92403 0.32007 0.78567 0.0
C1711 C 0.88538 0.356 0.81572 0.0
C1712 C 0.8164 0.36201 0.84737 0.0
H1713 H 0.69393 0.42042 0.74715 0.0
H1714 H 0.73857 0.38297 0.76029 0.0
H1715 H 0.78002 0.39731 0.8634 0.0
H1716 H 0.90592 0.26787 0.77884 0.0
H1717 H 0.8512 0.27561 0.80626 0.0
H1718 H 0.80444 0.3037 0.78315 0.0
C1719 C 0.72391 0.39311 0.78101 0.0
C1720 C 0.78465 0.37605 0.84663 0.0
C1721 C 0.69851 0.41491 0.77345 0.0
C1722 C 0.9009 0.29237 0.78991 0.0
C1723 C 0.86945 0.2969 0.80533 0.0
C1724 C 0.79919 0.32315 0.80183 0.0
C1725 C 0.73121 0.38558 0.81479 0.0
C1726 C 0.76063 0.36502 0.82214 0.0
C1727 C 0.86065 0.32921 0.81679 0.0
C1728 C 0.8247 0.33673 0.8236 0.0
H1729 H 0.67244 0.43306 0.85388 0.0
H1730 H 0.71723 0.39489 0.86715 0.0
H1731 H 0.7492 0.3275 0.78269 0.0
H1732 H 0.93423 0.37317 0.79766 0.0
H1733 H 0.87962 0.38129 0.82403 0.0
C1734 C 0.71734 0.4927 0.07022 0.0
C1735 C 0.71231 0.47749 0.03807 0.0
C1736 C 0.69559 0.51693 0.08233 0.0
C1737 C 0.63355 0.57766 0.05606 0.0
H1738 H 0.60621 0.57259 0.1503 0.0
C1739 C 0.54784 0.64749 0.16618 0.0
C1740 C 0.55976 0.68105 0.16172 0.0
C1741 C 0.55969 0.6216 0.14547 0.0
C1742 C 0.61304 0.57414 0.12376 0.0
H1743 H 0.68086 0.47623 0.99311 0.0
H1744 H 0.64284 0.51865 0.01433 0.0
H1745 H 0.64127 0.52966 0.12608 0.0
H1746 H 0.59164 0.71443 0.13124 0.0
H1747 H 0.61272 0.66923 0.09504 0.0
H1748 H 0.60537 0.62245 0.05397 0.0
C1749 C 0.66371 0.5119 0.03008 0.0
C1750 C 0.63363 0.54976 0.11003 0.0
C1751 C 0.68543 0.48752 0.018 0.0
C1752 C 0.58168 0.68874 0.13465 0.0
C1753 C 0.59378 0.66279 0.11403 0.0
C1754 C 0.61295 0.60223 0.06989 0.0
C1755 C 0.66832 0.52658 0.06256 0.0
C1756 C 0.64463 0.55151 0.07621 0.0
C1757 C 0.58413 0.62877 0.12029 0.0
C1758 C 0.60279 0.60097 0.10405 0.0
H1759 H 0.73785 0.48561 0.08628 0.0
H1760 H 0.70018 0.52818 0.10724 0.0
H1761 H 0.64166 0.57974 0.02992 0.0
H1762 H 0.5312 0.64105 0.1872 0.0
H1763 H 0.5512 0.59576 0.15051 0.0
C1764 C 0.3181 0.98067 0.74701 0.0
C1765 C 0.3503 0.96726 0.74679 0.0
C1766 C 0.28977 0.96081 0.73617 0.0
C1767 C 0.2557 0.87468 0.73119 0.0
H1768 H 0.19177 0.90848 0.6675 0.0
C1769 C 0.1272 0.80629 0.71852 0.0
C1770 C 0.10094 0.8285 0.7229 0.0
C1771 C 0.15934 0.81861 0.70829 0.0
C1772 C 0.20927 0.89866 0.6854 0.0
H1773 H 0.37796 0.92235 0.73578 0.0
H1774 H 0.32819 0.88741 0.71803 0.0
H1775 H 0.245 0.94065 0.67893 0.0
H1776 H 0.08597 0.87954 0.71535 0.0
H1777 H 0.14156 0.90118 0.69794 0.0
H1778 H 0.21948 0.83409 0.73981 0.0
C1779 C 0.32507 0.91342 0.72597 0.0
C1780 C 0.23975 0.91708 0.69185 0.0
C1781 C 0.35347 0.93343 0.73615 0.0
C1782 C 0.10592 0.86196 0.71221 0.0
C1783 C 0.13799 0.87434 0.70224 0.0
C1784 C 0.22498 0.85662 0.72532 0.0
C1785 C 0.29303 0.92703 0.72555 0.0
C1786 C 0.26277 0.90569 0.7155 0.0
C1787 C 0.16567 0.85336 0.70249 0.0
C1788 C 0.20086 0.86884 0.70307 0.0
H1789 H 0.31492 0.00669 0.75485 0.0
H1790 H 0.2652 0.97171 0.7365 0.0
H1791 H 0.27307 0.86536 0.74954 0.0
H1792 H 0.124 0.78035 0.72663 0.0
H1793 H 0.17976 0.80142 0.70777 0.0
C1794 C 0.18108 0.10786 0.22787 0.0
C1795 C 0.18323 0.07286 0.23138 0.0
C1796 C 0.20996 0.1282 0.2204 0.0
C1797 C 0.30426 0.12607 0.22066 0.0
H1798 H 0.2983 0.21274 0.17796 0.0
C1799 C 0.42169 0.20907 0.21219 0.0
C1800 C 0.41758 0.23582 0.23544 0.0
C1801 C 0.39335 0.19272 0.19702 0.0
C1802 C 0.30024 0.1883 0.18922 0.0
H1803 H 0.21657 0.03128 0.22849 0.0
H1804 H 0.26652 0.06608 0.21338 0.0
H1805 H 0.24777 0.1747 0.18174 0.0
H1806 H 0.38204 0.27006 0.25692 0.0
H1807 H 0.3326 0.24226 0.22954 0.0
H1808 H 0.35666 0.13973 0.2279 0.0
C1809 C 0.24314 0.07847 0.21804 0.0
C1810 C 0.27129 0.16664 0.19201 0.0
C1811 C 0.21449 0.05835 0.2266 0.0
C1812 C 0.38577 0.24972 0.23872 0.0
C1813 C 0.35744 0.23359 0.22324 0.0
C1814 C 0.33317 0.14725 0.21697 0.0
C1815 C 0.24148 0.1138 0.21525 0.0
C1816 C 0.27271 0.13554 0.20865 0.0
C1817 C 0.36079 0.20328 0.20471 0.0
C1818 C 0.33133 0.17887 0.20189 0.0
H1819 H 0.15713 0.11959 0.23146 0.0
H1820 H 0.20749 0.15524 0.2193 0.0
H1821 H 0.30663 0.10298 0.23443 0.0
H1822 H 0.44596 0.19774 0.20964 0.0
H1823 H 0.39654 0.16956 0.18253 0.0
loop_
_geom_bond_atom_site_label_1
_geom_bond_atom_site_label_2
_geom_bond_distance
_geom_bond_site_symmetry_2
_ccdc_geom_bond_type
Co0 O1 2.216 . S
Co0 O2 2.091 . S
Co0 O4 2.004 1_455 S
Co0 O10 2.021 1_455 S
Co0 O12 2.137 . S
Co0 O13 2.244 . S
O1 Co0 2.216 . S
O1 C8 1.247 . S
O2 Co0 2.091 . S
O2 C8 1.261 . S
C3 O12 1.247 . S
C3 O13 1.272 . S
O4 Co0 2.004 1_655 S
O4 C9 1.259 . S
Co5 O6 2.061 1_455 S
Co5 O11 2.048 1_455 S
Co5 O13 2.135 . S
O6 Co5 2.061 1_655 S
O6 C9 1.235 . S
C7 O10 1.238 . S
C7 O11 1.254 . S
C8 O1 1.247 . S
C8 O2 1.261 . S
C9 O4 1.259 . S
C9 O6 1.235 . S
O10 Co0 2.021 1_655 S
O10 C7 1.238 . S
O11 Co5 2.048 1_655 S
O11 C7 1.254 . S
O12 Co0 2.137 . S
O12 C3 1.247 . S
O13 Co0 2.244 . S
O13 C3 1.272 . S
O13 Co5 2.135 . S
Co14 O15 2.216 . S
Co14 O16 2.093 . S
Co14 O18 2.004 1_455 S
Co14 O24 2.021 1_455 S
Co14 O26 2.137 . S
Co14 O27 2.244 . S
O15 Co14 2.216 . S
O15 C22 1.247 . S
O16 Co14 2.093 . S
O16 C22 1.286 . S
C17 O26 1.247 . S
C17 O27 1.272 . S
O18 Co14 2.004 1_655 S
O18 C23 1.259 . S
Co19 O20 2.061 1_455 S
Co19 O25 2.052 1_455 S
Co19 O27 2.135 . S
O20 Co19 2.061 1_655 S
O20 C23 1.235 . S
C21 O24 1.238 . S
C21 O25 1.241 . S
C22 O15 1.247 . S
C22 O16 1.286 . S
C23 O18 1.259 . S
C23 O20 1.235 . S
O24 Co14 2.021 1_655 S
O24 C21 1.238 . S
O25 Co19 2.052 1_655 S
O25 C21 1.241 . S
O26 Co14 2.137 . S
O26 C17 1.247 . S
O27 Co14 2.244 . S
O27 C17 1.272 . S
O27 Co19 2.135 . S
Co28 O29 2.216 . S
Co28 O30 2.091 . S
Co28 O32 2.004 . S
Co28 O38 2.021 . S
Co28 O40 2.137 . S
Co28 O41 2.244 . S
O29 Co28 2.216 . S
O29 C36 1.247 . S
O30 Co28 2.091 . S
O30 C36 1.261 . S
C31 O40 1.247 . S
C31 O41 1.272 . S
O32 Co28 2.004 . S
O32 C37 1.259 . S
Co33 O34 2.061 . S
Co33 O39 2.052 . S
Co33 O41 2.135 . S
O34 Co33 2.061 . S
O34 C37 1.235 . S
C35 O38 1.238 . S
C35 O39 1.241 . S
C36 O29 1.247 . S
C36 O30 1.261 . S
C37 O32 1.259 . S
C37 O34 1.235 . S
O38 Co28 2.021 . S
O38 C35 1.238 . S
O39 Co33 2.052 . S
O39 C35 1.241 . S
O40 Co28 2.137 . S
O40 C31 1.247 . S
O41 Co28 2.244 . S
O41 C31 1.272 . S
O41 Co33 2.135 . S
Co42 O43 2.216 . S
Co42 O44 2.091 . S
Co42 O46 2.004 . S
Co42 O52 2.021 . S
Co42 O54 2.137 . S
Co42 O55 2.244 . S
O43 Co42 2.216 . S
O43 C50 1.247 . S
O44 Co42 2.091 . S
O44 C50 1.261 . S
C45 O54 1.247 . S
C45 O55 1.272 . S
O46 Co42 2.004 . S
O46 C51 1.259 . S
Co47 O48 2.061 . S
Co47 O53 2.052 . S
Co47 O55 2.135 . S
O48 Co47 2.061 . S
O48 C51 1.235 . S
C49 O52 1.238 . S
C49 O53 1.241 . S
C50 O43 1.247 . S
C50 O44 1.261 . S
C51 O46 1.259 . S
C51 O48 1.235 . S
O52 Co42 2.021 . S
O52 C49 1.238 . S
O53 Co47 2.052 . S
O53 C49 1.241 . S
O54 Co42 2.137 . S
O54 C45 1.247 . S
O55 Co42 2.244 . S
O55 C45 1.272 . S
O55 Co47 2.135 . S
Co56 O57 2.216 . S
Co56 O58 2.091 . S
Co56 O60 2.004 1_565 S
Co56 O66 2.021 1_565 S
Co56 O68 2.137 . S
Co56 O69 2.244 1_565 S
O57 Co56 2.216 . S
O57 C64 1.247 . S
O58 Co56 2.091 . S
O58 C64 1.261 . S
C59 O68 1.247 . S
C59 O69 1.272 1_565 S
O60 Co56 2.004 1_545 S
O60 C65 1.259 . S
Co61 O62 2.061 . S
Co61 O67 2.052 . S
Co61 O69 2.135 . S
O62 Co61 2.061 . S
O62 C65 1.235 . S
C63 O66 1.238 . S
C63 O67 1.241 . S
C64 O57 1.247 . S
C64 O58 1.261 . S
C65 O60 1.259 . S
C65 O62 1.235 . S
O66 Co56 2.021 1_545 S
O66 C63 1.238 . S
O67 Co61 2.052 . S
O67 C63 1.241 . S
O68 Co56 2.137 . S
O68 C59 1.247 . S
O69 Co56 2.244 1_545 S
O69 C59 1.272 1_545 S
O69 Co61 2.135 . S
Co70 O71 2.216 . S
Co70 O72 2.091 . S
Co70 O74 2.004 . S
Co70 O80 2.021 . S
Co70 O82 2.137 . S
Co70 O83 2.244 . S
O71 Co70 2.216 . S
O71 C78 1.247 . S
O72 Co70 2.091 . S
O72 C78 1.261 . S
C73 O82 1.247 . S
C73 O83 1.272 . S
O74 Co70 2.004 . S
O74 C79 1.259 . S
Co75 O76 2.061 . S
Co75 O81 2.052 . S
Co75 O83 2.135 . S
O76 Co75 2.061 . S
O76 C79 1.235 . S
C77 O80 1.238 . S
C77 O81 1.241 . S
C78 O71 1.247 . S
C78 O72 1.261 . S
C79 O74 1.259 . S
C79 O76 1.235 . S
O80 Co70 2.021 . S
O80 C77 1.238 . S
O81 Co75 2.052 . S
O81 C77 1.241 . S
O82 Co70 2.137 . S
O82 C73 1.247 . S
O83 Co70 2.244 . S
O83 C73 1.272 . S
O83 Co75 2.135 . S
Co84 O85 2.216 . S
Co84 O86 2.091 . S
Co84 O88 2.004 . S
Co84 O94 2.021 . S
Co84 O96 2.137 . S
Co84 O97 2.244 . S
O85 Co84 2.216 . S
O85 C92 1.247 . S
O86 Co84 2.091 . S
O86 C92 1.261 . S
C87 O96 1.247 . S
C87 O97 1.272 . S
O88 Co84 2.004 . S
O88 C93 1.259 . S
Co89 O90 2.061 . S
Co89 O95 2.052 . S
Co89 O97 2.135 1_565 S
O90 Co89 2.061 . S
O90 C93 1.235 1_565 S
C91 O94 1.238 1_565 S
C91 O95 1.241 . S
C92 O85 1.247 . S
C92 O86 1.261 . S
C93 O88 1.259 . S
C93 O90 1.235 1_545 S
O94 Co84 2.021 . S
O94 C91 1.238 1_545 S
O95 Co89 2.052 . S
O95 C91 1.241 . S
O96 Co84 2.137 . S
O96 C87 1.247 . S
O97 Co84 2.244 . S
O97 C87 1.272 . S
O97 Co89 2.135 1_545 S
Co98 O99 2.216 . S
Co98 O100 2.091 1_554 S
Co98 O102 2.004 1_554 S
Co98 O108 2.021 1_554 S
Co98 O110 2.137 . S
Co98 O111 2.244 . S
O99 Co98 2.216 . S
O99 C106 1.247 . S
O100 Co98 2.091 1_556 S
O100 C106 1.261 1_556 S
C101 O110 1.247 . S
C101 O111 1.272 . S
O102 Co98 2.004 1_556 S
O102 C107 1.259 . S
Co103 O104 2.051 1_554 S
Co103 O109 2.050 1_554 S
Co103 O111 2.144 . S
O104 Co103 2.051 1_556 S
O104 C107 1.235 . S
C105 O108 1.238 . S
C105 O109 1.241 . S
C106 O99 1.247 . S
C106 O100 1.261 1_554 S
C107 O102 1.259 . S
C107 O104 1.235 . S
O108 Co98 2.021 1_556 S
O108 C105 1.238 . S
O109 Co103 2.050 1_556 S
O109 C105 1.241 . S
O110 Co98 2.137 . S
O110 C101 1.247 . S
O111 Co98 2.244 . S
O111 C101 1.272 . S
O111 Co103 2.144 . S
Co112 O113 2.216 . S
Co112 O114 2.091 . S
Co112 O116 2.004 1_554 S
Co112 O122 2.021 1_554 S
Co112 O124 2.137 . S
Co112 O125 2.244 . S
O113 Co112 2.216 . S
O113 C120 1.247 . S
O114 Co112 2.091 . S
O114 C120 1.261 . S
C115 O124 1.247 . S
C115 O125 1.272 . S
O116 Co112 2.004 1_556 S
O116 C121 1.259 . S
Co117 O118 2.061 1_554 S
Co117 O123 2.052 . S
Co117 O125 2.135 . S
O118 Co117 2.061 1_556 S
O118 C121 1.235 . S
C119 O122 1.238 . S
C119 O123 1.241 1_556 S
C120 O113 1.247 . S
C120 O114 1.261 . S
C121 O116 1.259 . S
C121 O118 1.235 . S
O122 Co112 2.021 1_556 S
O122 C119 1.238 . S
O123 Co117 2.052 . S
O123 C119 1.241 1_554 S
O124 Co112 2.137 . S
O124 C115 1.247 . S
O125 Co112 2.244 . S
O125 C115 1.272 . S
O125 Co117 2.135 . S
Co126 O127 2.216 . S
Co126 O128 2.091 . S
Co126 O130 2.004 . S
Co126 O136 2.021 . S
Co126 O138 2.137 . S
Co126 O139 2.244 . S
O127 Co126 2.216 . S
O127 C134 1.247 . S
O128 Co126 2.091 . S
O128 C134 1.261 . S
C129 O138 1.247 . S
C129 O139 1.272 . S
O130 Co126 2.004 . S
O130 C135 1.259 . S
Co131 O132 2.061 . S
Co131 O137 2.052 . S
Co131 O139 2.135 . S
O132 Co131 2.061 . S
O132 C135 1.235 . S
C133 O136 1.238 . S
C133 O137 1.241 . S
C134 O127 1.247 . S
C134 O128 1.261 . S
C135 O130 1.259 . S
C135 O132 1.235 . S
O136 Co126 2.021 . S
O136 C133 1.238 . S
O137 Co131 2.052 . S
O137 C133 1.241 . S
O138 Co126 2.137 . S
O138 C129 1.247 . S
O139 Co126 2.244 . S
O139 C129 1.272 . S
O139 Co131 2.135 . S
Co140 O141 2.216 . S
Co140 O142 2.091 . S
Co140 O144 2.004 . S
Co140 O150 2.021 . S
Co140 O152 2.137 . S
Co140 O153 2.244 . S
O141 Co140 2.216 . S
O141 C148 1.247 . S
O142 Co140 2.091 . S
O142 C148 1.261 . S
C143 O152 1.247 . S
C143 O153 1.272 . S
O144 Co140 2.004 . S
O144 C149 1.259 . S
Co145 O146 2.061 . S
Co145 O151 2.052 . S
Co145 O153 2.135 . S
O146 Co145 2.061 . S
O146 C149 1.235 . S
C147 O150 1.238 . S
C147 O151 1.241 . S
C148 O141 1.247 . S
C148 O142 1.261 . S
C149 O144 1.259 . S
C149 O146 1.235 . S
O150 Co140 2.021 . S
O150 C147 1.238 . S
O151 Co145 2.052 . S
O151 C147 1.241 . S
O152 Co140 2.137 . S
O152 C143 1.247 . S
O153 Co140 2.244 . S
O153 C143 1.272 . S
O153 Co145 2.135 . S
Co154 O155 2.216 . S
Co154 O156 2.091 . S
Co154 O158 2.004 . S
Co154 O164 2.021 . S
Co154 O166 2.137 . S
Co154 O167 2.244 . S
O155 Co154 2.216 . S
O155 C162 1.247 . S
O156 Co154 2.091 . S
O156 C162 1.261 . S
C157 O166 1.247 . S
C157 O167 1.272 . S
O158 Co154 2.004 . S
O158 C163 1.259 . S
Co159 O160 2.061 . S
Co159 O165 2.052 . S
Co159 O167 2.135 . S
O160 Co159 2.061 . S
O160 C163 1.235 . S
C161 O164 1.238 . S
C161 O165 1.241 . S
C162 O155 1.247 . S
C162 O156 1.261 . S
C163 O158 1.259 . S
C163 O160 1.235 . S
O164 Co154 2.021 . S
O164 C161 1.238 . S
O165 Co159 2.052 . S
O165 C161 1.241 . S
O166 Co154 2.137 . S
O166 C157 1.247 . S
O167 Co154 2.244 . S
O167 C157 1.272 . S
O167 Co159 2.135 . S
H168 C174 0.930 . S
H169 C177 0.931 . S
H170 C179 0.931 . S
H171 C181 0.930 . S
H172 C183 0.930 . S
H173 C185 0.931 . S
C174 H168 0.930 . S
C174 C175 1.380 . S
C174 C176 1.394 . S
C175 C174 1.380 . S
C175 C179 1.382 . S
C176 C174 1.394 . S
C176 C177 1.400 . S
C177 H169 0.931 . S
C177 C176 1.400 . S
C177 C178 1.375 . S
C178 C177 1.375 . S
C178 C179 1.415 . S
C178 C180 1.501 1_655 S
C179 H170 0.931 . S
C179 C175 1.382 . S
C179 C178 1.415 . S
C180 C178 1.501 1_455 S
C180 C181 1.384 . S
C180 C185 1.408 . S
C181 H171 0.930 . S
C181 C180 1.384 . S
C181 C182 1.389 . S
C182 C181 1.389 . S
C182 C183 1.405 . S
C183 H172 0.930 . S
C183 C182 1.405 . S
C183 C184 1.364 . S
C184 C183 1.364 . S
C184 C185 1.400 . S
C185 H173 0.931 . S
C185 C180 1.408 . S
C185 C184 1.400 . S
H186 C192 0.930 . S
H187 C195 0.931 1_455 S
H188 C197 0.931 . S
H189 C199 0.930 . S
H190 C201 0.930 . S
H191 C203 0.931 . S
C192 H186 0.930 . S
C192 C193 1.380 . S
C192 C194 1.394 . S
C193 C192 1.380 . S
C193 C197 1.382 . S
C194 C192 1.394 . S
C194 C195 1.400 . S
C195 H187 0.931 1_655 S
C195 C194 1.400 . S
C195 C196 1.375 1_655 S
C196 C195 1.375 1_455 S
C196 C197 1.415 1_455 S
C196 C198 1.501 . S
C197 H188 0.931 . S
C197 C193 1.382 . S
C197 C196 1.415 1_655 S
C198 C196 1.501 . S
C198 C199 1.384 . S
C198 C203 1.408 . S
C199 H189 0.930 . S
C199 C198 1.384 . S
C199 C200 1.389 . S
C200 C199 1.389 . S
C200 C201 1.405 . S
C201 H190 0.930 . S
C201 C200 1.405 . S
C201 C202 1.364 . S
C202 C201 1.364 . S
C202 C203 1.400 . S
C203 H191 0.931 . S
C203 C198 1.408 . S
C203 C202 1.400 . S
H204 C210 0.930 . S
H205 C213 0.931 . S
H206 C215 0.931 . S
H207 C217 0.930 . S
H208 C219 0.930 . S
H209 C221 0.931 . S
C210 H204 0.930 . S
C210 C211 1.380 . S
C210 C212 1.394 . S
C211 C210 1.380 . S
C211 C215 1.382 . S
C212 C210 1.394 . S
C212 C213 1.400 . S
C213 H205 0.931 . S
C213 C212 1.400 . S
C213 C214 1.375 . S
C214 C213 1.375 . S
C214 C215 1.415 . S
C214 C216 1.501 . S
C215 H206 0.931 . S
C215 C211 1.382 . S
C215 C214 1.415 . S
C216 C214 1.501 . S
C216 C217 1.384 . S
C216 C221 1.408 . S
C217 H207 0.930 . S
C217 C216 1.384 . S
C217 C218 1.389 . S
C218 C217 1.389 . S
C218 C219 1.405 . S
C219 H208 0.930 . S
C219 C218 1.405 . S
C219 C220 1.364 . S
C220 C219 1.364 . S
C220 C221 1.400 . S
C221 H209 0.931 . S
C221 C216 1.408 . S
C221 C220 1.400 . S
H222 C228 0.930 . S
H223 C231 0.931 . S
H224 C233 0.931 . S
H225 C235 0.930 . S
H226 C237 0.930 . S
H227 C239 0.931 . S
C228 H222 0.930 . S
C228 C229 1.380 . S
C228 C230 1.394 . S
C229 C228 1.380 . S
C229 C233 1.382 . S
C230 C228 1.394 . S
C230 C231 1.400 . S
C231 H223 0.931 . S
C231 C230 1.400 . S
C231 C232 1.375 . S
C232 C231 1.375 . S
C232 C233 1.415 . S
C232 C234 1.501 . S
C233 H224 0.931 . S
C233 C229 1.382 . S
C233 C232 1.415 . S
C234 C232 1.501 . S
C234 C235 1.384 . S
C234 C239 1.408 . S
C235 H225 0.930 . S
C235 C234 1.384 . S
C235 C236 1.389 . S
C236 C235 1.389 . S
C236 C237 1.405 . S
C237 H226 0.930 . S
C237 C236 1.405 . S
C237 C238 1.364 . S
C238 C237 1.364 . S
C238 C239 1.400 . S
C239 H227 0.931 . S
C239 C234 1.408 . S
C239 C238 1.400 . S
H240 C246 0.930 . S
H241 C249 0.928 1_545 S
H242 C251 0.931 . S
H243 C253 0.930 . S
H244 C255 0.930 . S
H245 C257 0.931 . S
C246 H240 0.930 . S
C246 C247 1.380 . S
C246 C248 1.394 . S
C247 C246 1.380 . S
C247 C251 1.382 1_565 S
C248 C246 1.394 . S
C248 C249 1.410 . S
C249 H241 0.928 1_565 S
C249 C248 1.410 . S
C249 C250 1.368 1_565 S
C250 C249 1.368 1_545 S
C250 C251 1.415 . S
C250 C252 1.501 . S
C251 H242 0.931 . S
C251 C247 1.382 1_545 S
C251 C250 1.415 . S
C252 C250 1.501 . S
C252 C253 1.384 . S
C252 C257 1.408 . S
C253 H243 0.930 . S
C253 C252 1.384 . S
C253 C254 1.389 . S
C254 C253 1.389 . S
C254 C255 1.405 . S
C255 H244 0.930 . S
C255 C254 1.405 . S
C255 C256 1.364 . S
C256 C255 1.364 . S
C256 C257 1.400 . S
C257 H245 0.931 . S
C257 C252 1.408 . S
C257 C256 1.400 . S
H258 C264 0.930 . S
H259 C267 0.931 . S
H260 C269 0.931 . S
H261 C271 0.930 . S
H262 C273 0.930 . S
H263 C275 0.931 . S
C264 H258 0.930 . S
C264 C265 1.380 . S
C264 C266 1.394 . S
C265 C264 1.380 . S
C265 C269 1.382 . S
C266 C264 1.394 . S
C266 C267 1.400 . S
C267 H259 0.931 . S
C267 C266 1.400 . S
C267 C268 1.375 . S
C268 C267 1.375 . S
C268 C269 1.415 . S
C268 C270 1.501 . S
C269 H260 0.931 . S
C269 C265 1.382 . S
C269 C268 1.415 . S
C270 C268 1.501 . S
C270 C271 1.384 . S
C270 C275 1.408 . S
C271 H261 0.930 . S
C271 C270 1.384 . S
C271 C272 1.389 . S
C272 C271 1.389 . S
C272 C273 1.405 . S
C273 H262 0.930 . S
C273 C272 1.405 . S
C273 C274 1.364 . S
C274 C273 1.364 . S
C274 C275 1.400 . S
C275 H263 0.931 . S
C275 C270 1.408 . S
C275 C274 1.400 . S
H276 C282 0.930 . S
H277 C285 0.931 . S
H278 C287 0.931 . S
H279 C289 0.930 . S
H280 C291 0.930 . S
H281 C293 0.931 . S
C282 H276 0.930 . S
C282 C283 1.380 . S
C282 C284 1.394 . S
C283 C282 1.380 . S
C283 C287 1.382 . S
C284 C282 1.394 . S
C284 C285 1.400 . S
C285 H277 0.931 . S
C285 C284 1.400 . S
C285 C286 1.375 . S
C286 C285 1.375 . S
C286 C287 1.415 . S
C286 C288 1.501 1_545 S
C287 H278 0.931 . S
C287 C283 1.382 . S
C287 C286 1.415 . S
C288 C286 1.501 1_565 S
C288 C289 1.384 . S
C288 C293 1.408 . S
C289 H279 0.930 . S
C289 C288 1.384 . S
C289 C290 1.389 . S
C290 C289 1.389 . S
C290 C291 1.405 . S
C291 H280 0.930 . S
C291 C290 1.405 . S
C291 C292 1.364 . S
C292 C291 1.364 . S
C292 C293 1.400 . S
C293 H281 0.931 . S
C293 C288 1.408 . S
C293 C292 1.400 . S
H294 C300 0.930 . S
H295 C303 0.931 . S
H296 C305 0.931 . S
H297 C307 0.930 . S
H298 C309 0.930 . S
H299 C311 0.931 . S
C300 H294 0.930 . S
C300 C301 1.380 . S
C300 C302 1.394 . S
C301 C300 1.380 . S
C301 C305 1.382 1_556 S
C302 C300 1.394 . S
C302 C303 1.400 1_556 S
C303 H295 0.931 . S
C303 C302 1.400 1_554 S
C303 C304 1.375 . S
C304 C303 1.375 . S
C304 C305 1.415 . S
C304 C306 1.501 . S
C305 H296 0.931 . S
C305 C301 1.382 1_554 S
C305 C304 1.415 . S
C306 C304 1.501 . S
C306 C307 1.384 . S
C306 C311 1.408 . S
C307 H297 0.930 . S
C307 C306 1.384 . S
C307 C308 1.389 . S
C308 C307 1.389 . S
C308 C309 1.405 . S
C309 H298 0.930 . S
C309 C308 1.405 . S
C309 C310 1.364 . S
C310 C309 1.364 . S
C310 C311 1.400 . S
C311 H299 0.931 . S
C311 C306 1.408 . S
C311 C310 1.400 . S
H312 C318 0.930 . S
H313 C321 0.931 . S
H314 C323 0.931 1_554 S
H315 C325 0.930 . S
H316 C327 0.930 . S
H317 C329 0.931 . S
C318 H312 0.930 . S
C318 C319 1.380 . S
C318 C320 1.394 . S
C319 C318 1.380 . S
C319 C323 1.382 . S
C320 C318 1.394 . S
C320 C321 1.400 1_556 S
C321 H313 0.931 . S
C321 C320 1.400 1_554 S
C321 C322 1.375 . S
C322 C321 1.375 . S
C322 C323 1.415 1_554 S
C322 C324 1.501 . S
C323 H314 0.931 1_556 S
C323 C319 1.382 . S
C323 C322 1.415 1_556 S
C324 C322 1.501 . S
C324 C325 1.384 . S
C324 C329 1.408 . S
C325 H315 0.930 . S
C325 C324 1.384 . S
C325 C326 1.389 . S
C326 C325 1.389 . S
C326 C327 1.405 . S
C327 H316 0.930 . S
C327 C326 1.405 . S
C327 C328 1.364 . S
C328 C327 1.364 . S
C328 C329 1.400 . S
C329 H317 0.931 . S
C329 C324 1.408 . S
C329 C328 1.400 . S
H330 C336 0.930 . S
H331 C339 0.931 . S
H332 C341 0.931 . S
H333 C343 0.930 . S
H334 C345 0.930 . S
H335 C347 0.931 . S
C336 H330 0.930 . S
C336 C337 1.380 . S
C336 C338 1.394 . S
C337 C336 1.380 . S
C337 C341 1.382 . S
C338 C336 1.394 . S
C338 C339 1.400 . S
C339 H331 0.931 . S
C339 C338 1.400 . S
C339 C340 1.375 . S
C340 C339 1.375 . S
C340 C341 1.415 . S
C340 C342 1.501 . S
C341 H332 0.931 . S
C341 C337 1.382 . S
C341 C340 1.415 . S
C342 C340 1.501 . S
C342 C343 1.384 . S
C342 C347 1.408 . S
C343 H333 0.930 . S
C343 C342 1.384 . S
C343 C344 1.389 . S
C344 C343 1.389 . S
C344 C345 1.405 . S
C345 H334 0.930 . S
C345 C344 1.405 . S
C345 C346 1.364 . S
C346 C345 1.364 . S
C346 C347 1.400 . S
C347 H335 0.931 . S
C347 C342 1.408 . S
C347 C346 1.400 . S
H348 C354 0.930 . S
H349 C357 0.931 . S
H350 C359 0.931 . S
H351 C361 0.930 . S
H352 C363 0.930 . S
H353 C365 0.931 . S
C354 H348 0.930 . S
C354 C355 1.380 . S
C354 C356 1.394 . S
C355 C354 1.380 . S
C355 C359 1.382 . S
C356 C354 1.394 . S
C356 C357 1.400 . S
C357 H349 0.931 . S
C357 C356 1.400 . S
C357 C358 1.375 . S
C358 C357 1.375 . S
C358 C359 1.415 . S
C358 C360 1.501 . S
C359 H350 0.931 . S
C359 C355 1.382 . S
C359 C358 1.415 . S
C360 C358 1.501 . S
C360 C361 1.384 . S
C360 C365 1.408 . S
C361 H351 0.930 . S
C361 C360 1.384 . S
C361 C362 1.389 . S
C362 C361 1.389 . S
C362 C363 1.405 . S
C363 H352 0.930 . S
C363 C362 1.405 . S
C363 C364 1.364 . S
C364 C363 1.364 . S
C364 C365 1.400 . S
C365 H353 0.931 . S
C365 C360 1.408 . S
C365 C364 1.400 . S
H366 C372 0.930 . S
H367 C375 0.931 . S
H368 C377 0.931 . S
H369 C379 0.930 . S
H370 C381 0.930 . S
H371 C383 0.931 . S
C372 H366 0.930 . S
C372 C373 1.380 . S
C372 C374 1.394 . S
C373 C372 1.380 . S
C373 C377 1.382 . S
C374 C372 1.394 . S
C374 C375 1.400 . S
C375 H367 0.931 . S
C375 C374 1.400 . S
C375 C376 1.375 . S
C376 C375 1.375 . S
C376 C377 1.415 . S
C376 C378 1.501 . S
C377 H368 0.931 . S
C377 C373 1.382 . S
C377 C376 1.415 . S
C378 C376 1.501 . S
C378 C379 1.384 . S
C378 C383 1.408 . S
C379 H369 0.930 . S
C379 C378 1.384 . S
C379 C380 1.389 . S
C380 C379 1.389 . S
C380 C381 1.405 . S
C381 H370 0.930 . S
C381 C380 1.405 . S
C381 C382 1.364 . S
C382 C381 1.364 . S
C382 C383 1.400 . S
C383 H371 0.931 . S
C383 C378 1.408 . S
C383 C382 1.400 . S
C384 C385 1.349 . S
C384 C386 1.327 . S
C384 H409 0.950 . S
C385 C384 1.349 . S
C385 C401 1.349 . S
C386 C384 1.327 . S
C386 C405 1.429 . S
C386 H410 0.950 1_554 S
C387 C404 1.586 . S
C387 C406 1.372 . S
C387 H411 0.935 1_556 S
H388 C392 0.949 . S
C389 C390 1.349 . S
C389 C391 1.327 . S
C389 H412 0.950 . S
C390 C389 1.349 . S
C390 C402 1.349 . S
C391 C389 1.327 . S
C391 C407 1.429 . S
C391 H413 0.950 . S
C392 H388 0.949 . S
C392 C400 1.574 . S
C392 C408 1.368 . S
H393 C401 0.950 . S
H394 C399 0.950 . S
H395 C400 0.949 . S
H396 C402 0.950 . S
H397 C403 0.950 . S
H398 C404 0.949 . S
C399 H394 0.950 . S
C399 C401 1.327 . S
C399 C405 1.429 . S
C400 C392 1.574 . S
C400 H395 0.949 . S
C400 C406 1.368 . S
C401 C385 1.349 . S
C401 H393 0.950 . S
C401 C399 1.327 . S
C402 C390 1.349 . S
C402 H396 0.950 . S
C402 C403 1.327 . S
C403 H397 0.950 . S
C403 C402 1.327 . S
C403 C407 1.429 . S
C404 C387 1.586 . S
C404 H398 0.949 . S
C404 C408 1.368 . S
C405 C386 1.429 . S
C405 C399 1.429 . S
C405 C406 1.523 1_554 S
C406 C387 1.372 . S
C406 C400 1.368 . S
C406 C405 1.523 1_556 S
C407 C391 1.429 . S
C407 C403 1.429 . S
C407 C408 1.523 . S
C408 C392 1.368 . S
C408 C404 1.368 . S
C408 C407 1.523 . S
H409 C384 0.950 . S
H410 C386 0.950 1_556 S
H411 C387 0.935 1_554 S
H412 C389 0.950 . S
H413 C391 0.950 . S
C414 C415 1.349 . S
C414 C416 1.327 . S
C414 H439 0.950 . S
C415 C414 1.349 . S
C415 C431 1.349 . S
C416 C414 1.327 . S
C416 C435 1.429 . S
C416 H440 0.950 . S
C417 C434 1.574 . S
C417 C436 1.368 . S
C417 H441 0.949 . S
H418 C422 0.949 . S
C419 C420 1.349 . S
C419 C421 1.327 . S
C419 H442 0.950 . S
C420 C419 1.349 . S
C420 C432 1.349 . S
C421 C419 1.327 . S
C421 C437 1.429 . S
C421 H443 0.950 . S
C422 H418 0.949 . S
C422 C430 1.574 . S
C422 C438 1.368 . S
H423 C431 0.950 . S
H424 C429 0.950 . S
H425 C430 0.949 . S
H426 C432 0.950 . S
H427 C433 0.950 . S
H428 C434 0.949 . S
C429 H424 0.950 . S
C429 C431 1.327 . S
C429 C435 1.429 . S
C430 C422 1.574 . S
C430 H425 0.949 . S
C430 C436 1.368 . S
C431 C415 1.349 . S
C431 H423 0.950 . S
C431 C429 1.327 . S
C432 C420 1.349 . S
C432 H426 0.950 . S
C432 C433 1.327 . S
C433 H427 0.950 . S
C433 C432 1.327 . S
C433 C437 1.429 . S
C434 C417 1.574 . S
C434 H428 0.949 . S
C434 C438 1.368 . S
C435 C416 1.429 . S
C435 C429 1.429 . S
C435 C436 1.523 . S
C436 C417 1.368 . S
C436 C430 1.368 . S
C436 C435 1.523 . S
C437 C421 1.429 . S
C437 C433 1.429 . S
C437 C438 1.523 . S
C438 C422 1.368 . S
C438 C434 1.368 . S
C438 C437 1.523 . S
H439 C414 0.950 . S
H440 C416 0.950 . S
H441 C417 0.949 . S
H442 C419 0.950 . S
H443 C421 0.950 . S
C444 C445 1.349 . S
C444 C446 1.327 . S
C444 H469 0.950 . S
C445 C444 1.349 . S
C445 C461 1.349 . S
C446 C444 1.327 . S
C446 C465 1.429 . S
C446 H470 0.950 . S
C447 C464 1.574 . S
C447 C466 1.368 . S
C447 H471 0.949 . S
H448 C452 0.949 . S
C449 C450 1.349 . S
C449 C451 1.327 . S
C449 H472 0.950 . S
C450 C449 1.349 . S
C450 C462 1.349 . S
C451 C449 1.327 . S
C451 C467 1.429 . S
C451 H473 0.950 . S
C452 H448 0.949 . S
C452 C460 1.574 . S
C452 C468 1.368 . S
H453 C461 0.950 . S
H454 C459 0.950 . S
H455 C460 0.949 . S
H456 C462 0.950 . S
H457 C463 0.950 . S
H458 C464 0.949 . S
C459 H454 0.950 . S
C459 C461 1.327 . S
C459 C465 1.429 . S
C460 C452 1.574 . S
C460 H455 0.949 . S
C460 C466 1.368 . S
C461 C445 1.349 . S
C461 H453 0.950 . S
C461 C459 1.327 . S
C462 C450 1.349 . S
C462 H456 0.950 . S
C462 C463 1.327 . S
C463 H457 0.950 . S
C463 C462 1.327 . S
C463 C467 1.429 . S
C464 C447 1.574 . S
C464 H458 0.949 . S
C464 C468 1.368 . S
C465 C446 1.429 . S
C465 C459 1.429 . S
C465 C466 1.523 . S
C466 C447 1.368 . S
C466 C460 1.368 . S
C466 C465 1.523 . S
C467 C451 1.429 . S
C467 C463 1.429 . S
C467 C468 1.523 . S
C468 C452 1.368 . S
C468 C464 1.368 . S
C468 C467 1.523 . S
H469 C444 0.950 . S
H470 C446 0.950 . S
H471 C447 0.949 . S
H472 C449 0.950 . S
H473 C451 0.950 . S
C474 C475 1.349 . S
C474 C476 1.327 . S
C474 H499 0.950 . S
C475 C474 1.349 . S
C475 C491 1.349 . S
C476 C474 1.327 . S
C476 C495 1.429 . S
C476 H500 0.950 . S
C477 C494 1.574 . S
C477 C496 1.368 . S
C477 H501 0.949 . S
H478 C482 0.949 . S
C479 C480 1.349 . S
C479 C481 1.327 . S
C479 H502 0.950 . S
C480 C479 1.349 . S
C480 C492 1.349 . S
C481 C479 1.327 . S
C481 C497 1.429 . S
C481 H503 0.950 . S
C482 H478 0.949 . S
C482 C490 1.574 . S
C482 C498 1.368 . S
H483 C491 0.950 . S
H484 C489 0.950 . S
H485 C490 0.949 . S
H486 C492 0.950 . S
H487 C493 0.950 . S
H488 C494 0.949 . S
C489 H484 0.950 . S
C489 C491 1.327 . S
C489 C495 1.429 . S
C490 C482 1.574 . S
C490 H485 0.949 . S
C490 C496 1.368 . S
C491 C475 1.349 . S
C491 H483 0.950 . S
C491 C489 1.327 . S
C492 C480 1.349 . S
C492 H486 0.950 . S
C492 C493 1.327 . S
C493 H487 0.950 . S
C493 C492 1.327 . S
C493 C497 1.429 . S
C494 C477 1.574 . S
C494 H488 0.949 . S
C494 C498 1.368 . S
C495 C476 1.429 . S
C495 C489 1.429 . S
C495 C496 1.523 . S
C496 C477 1.368 . S
C496 C490 1.368 . S
C496 C495 1.523 . S
C497 C481 1.429 . S
C497 C493 1.429 . S
C497 C498 1.523 . S
C498 C482 1.368 . S
C498 C494 1.368 . S
C498 C497 1.523 . S
H499 C474 0.950 . S
H500 C476 0.950 . S
H501 C477 0.949 . S
H502 C479 0.950 . S
H503 C481 0.950 . S
C504 C505 1.349 . S
C504 C506 1.327 . S
C504 H529 0.950 . S
C505 C504 1.349 . S
C505 C521 1.349 . S
C506 C504 1.327 . S
C506 C525 1.429 . S
C506 H530 0.950 . S
C507 C524 1.574 . S
C507 C526 1.368 . S
C507 H531 0.949 . S
H508 C512 0.949 . S
C509 C510 1.349 . S
C509 C511 1.327 . S
C509 H532 0.950 . S
C510 C509 1.349 . S
C510 C522 1.349 . S
C511 C509 1.327 . S
C511 C527 1.429 . S
C511 H533 0.950 . S
C512 H508 0.949 . S
C512 C520 1.574 . S
C512 C528 1.368 . S
H513 C521 0.950 . S
H514 C519 0.950 . S
H515 C520 0.949 . S
H516 C522 0.950 . S
H517 C523 0.950 . S
H518 C524 0.949 . S
C519 H514 0.950 . S
C519 C521 1.327 . S
C519 C525 1.429 . S
C520 C512 1.574 . S
C520 H515 0.949 . S
C520 C526 1.368 . S
C521 C505 1.349 . S
C521 H513 0.950 . S
C521 C519 1.327 . S
C522 C510 1.349 . S
C522 H516 0.950 . S
C522 C523 1.327 . S
C523 H517 0.950 . S
C523 C522 1.327 . S
C523 C527 1.429 . S
C524 C507 1.574 . S
C524 H518 0.949 . S
C524 C528 1.368 . S
C525 C506 1.429 . S
C525 C519 1.429 . S
C525 C526 1.523 . S
C526 C507 1.368 . S
C526 C520 1.368 . S
C526 C525 1.523 . S
C527 C511 1.429 . S
C527 C523 1.429 . S
C527 C528 1.523 . S
C528 C512 1.368 . S
C528 C524 1.368 . S
C528 C527 1.523 . S
H529 C504 0.950 . S
H530 C506 0.950 . S
H531 C507 0.949 . S
H532 C509 0.950 . S
H533 C511 0.950 . S
C534 C535 1.349 . S
C534 C536 1.327 . S
C534 H559 0.950 . S
C535 C534 1.349 . S
C535 C551 1.349 . S
C536 C534 1.327 . S
C536 C555 1.429 . S
C536 H560 0.950 . S
C537 C554 1.574 . S
C537 C556 1.368 . S
C537 H561 0.949 . S
H538 C542 0.949 . S
C539 C540 1.349 . S
C539 C541 1.327 . S
C539 H562 0.950 . S
C540 C539 1.349 . S
C540 C552 1.349 . S
C541 C539 1.327 . S
C541 C557 1.429 . S
C541 H563 0.950 . S
C542 H538 0.949 . S
C542 C550 1.574 . S
C542 C558 1.368 . S
H543 C551 0.950 . S
H544 C549 0.950 . S
H545 C550 0.949 . S
H546 C552 0.950 . S
H547 C553 0.950 . S
H548 C554 0.949 . S
C549 H544 0.950 . S
C549 C551 1.327 . S
C549 C555 1.429 . S
C550 C542 1.574 . S
C550 H545 0.949 . S
C550 C556 1.368 . S
C551 C535 1.349 . S
C551 H543 0.950 . S
C551 C549 1.327 . S
C552 C540 1.349 . S
C552 H546 0.950 . S
C552 C553 1.327 . S
C553 H547 0.950 . S
C553 C552 1.327 . S
C553 C557 1.429 . S
C554 C537 1.574 . S
C554 H548 0.949 . S
C554 C558 1.368 . S
C555 C536 1.429 . S
C555 C549 1.429 . S
C555 C556 1.523 . S
C556 C537 1.368 . S
C556 C550 1.368 . S
C556 C555 1.523 . S
C557 C541 1.429 . S
C557 C553 1.429 . S
C557 C558 1.523 . S
C558 C542 1.368 . S
C558 C554 1.368 . S
C558 C557 1.523 . S
H559 C534 0.950 . S
H560 C536 0.950 . S
H561 C537 0.949 . S
H562 C539 0.950 . S
H563 C541 0.950 . S
C564 C565 1.349 1_554 S
C564 C566 1.327 . S
C564 H589 0.950 . S
C565 C564 1.349 1_556 S
C565 C581 1.349 . S
C566 C564 1.327 . S
C566 C585 1.429 . S
C566 H590 0.950 . S
C567 C584 1.574 . S
C567 C586 1.368 . S
C567 H591 0.949 . S
H568 C572 0.949 . S
C569 C570 1.349 . S
C569 C571 1.327 . S
C569 H592 0.950 . S
C570 C569 1.349 . S
C570 C582 1.349 . S
C571 C569 1.327 . S
C571 C587 1.429 . S
C571 H593 0.950 . S
C572 H568 0.949 . S
C572 C580 1.574 . S
C572 C588 1.368 . S
H573 C581 0.950 . S
H574 C579 0.947 1_556 S
H575 C580 0.949 . S
H576 C582 0.950 . S
H577 C583 0.950 . S
H578 C584 0.949 . S
C579 H574 0.947 1_554 S
C579 C581 1.307 1_554 S
C579 C585 1.451 . S
C580 C572 1.574 . S
C580 H575 0.949 . S
C580 C586 1.368 . S
C581 C565 1.349 . S
C581 H573 0.950 . S
C581 C579 1.307 1_556 S
C582 C570 1.349 . S
C582 H576 0.950 . S
C582 C583 1.327 . S
C583 H577 0.950 . S
C583 C582 1.327 . S
C583 C587 1.429 . S
C584 C567 1.574 . S
C584 H578 0.949 . S
C584 C588 1.368 . S
C585 C566 1.429 . S
C585 C579 1.451 . S
C585 C586 1.523 . S
C586 C567 1.368 . S
C586 C580 1.368 . S
C586 C585 1.523 . S
C587 C571 1.429 . S
C587 C583 1.429 . S
C587 C588 1.523 . S
C588 C572 1.368 . S
C588 C584 1.368 . S
C588 C587 1.523 . S
H589 C564 0.950 . S
H590 C566 0.950 . S
H591 C567 0.949 . S
H592 C569 0.950 . S
H593 C571 0.950 . S
C594 C595 1.349 . S
C594 C596 1.327 . S
C594 H619 0.950 . S
C595 C594 1.349 . S
C595 C611 1.349 . S
C596 C594 1.327 . S
C596 C615 1.429 . S
C596 H620 0.950 . S
C597 C614 1.574 . S
C597 C616 1.368 . S
C597 H621 0.949 . S
H598 C602 0.949 . S
C599 C600 1.349 . S
C599 C601 1.327 . S
C599 H622 0.950 . S
C600 C599 1.349 . S
C600 C612 1.349 . S
C601 C599 1.327 . S
C601 C617 1.429 . S
C601 H623 0.950 . S
C602 H598 0.949 . S
C602 C610 1.574 . S
C602 C618 1.368 . S
H603 C611 0.950 . S
H604 C609 0.950 . S
H605 C610 0.949 . S
H606 C612 0.950 . S
H607 C613 0.950 . S
H608 C614 0.949 . S
C609 H604 0.950 . S
C609 C611 1.327 . S
C609 C615 1.429 . S
C610 C602 1.574 . S
C610 H605 0.949 . S
C610 C616 1.368 . S
C611 C595 1.349 . S
C611 H603 0.950 . S
C611 C609 1.327 . S
C612 C600 1.349 . S
C612 H606 0.950 . S
C612 C613 1.327 . S
C613 H607 0.950 . S
C613 C612 1.327 . S
C613 C617 1.429 . S
C614 C597 1.574 . S
C614 H608 0.949 . S
C614 C618 1.368 . S
C615 C596 1.429 . S
C615 C609 1.429 . S
C615 C616 1.523 . S
C616 C597 1.368 . S
C616 C610 1.368 . S
C616 C615 1.523 . S
C617 C601 1.429 . S
C617 C613 1.429 . S
C617 C618 1.523 . S
C618 C602 1.368 . S
C618 C614 1.368 . S
C618 C617 1.523 . S
H619 C594 0.950 . S
H620 C596 0.950 . S
H621 C597 0.949 . S
H622 C599 0.950 . S
H623 C601 0.950 . S
C624 C625 1.349 . S
C624 C626 1.327 . S
C624 H649 0.950 . S
C625 C624 1.349 . S
C625 C641 1.349 . S
C626 C624 1.327 . S
C626 C645 1.429 . S
C626 H650 0.950 1_455 S
C627 C644 1.574 . S
C627 C646 1.368 . S
C627 H651 0.949 . S
H628 C632 0.949 . S
C629 C630 1.349 . S
C629 C631 1.327 . S
C629 H652 0.950 . S
C630 C629 1.349 . S
C630 C642 1.349 . S
C631 C629 1.327 . S
C631 C647 1.429 . S
C631 H653 0.950 . S
C632 H628 0.949 . S
C632 C640 1.574 . S
C632 C648 1.368 . S
H633 C641 0.950 . S
H634 C639 0.950 . S
H635 C640 0.949 . S
H636 C642 0.950 . S
H637 C643 0.950 . S
H638 C644 0.949 . S
C639 H634 0.950 . S
C639 C641 1.327 . S
C639 C645 1.429 . S
C640 C632 1.574 . S
C640 H635 0.949 . S
C640 C646 1.368 . S
C641 C625 1.349 . S
C641 H633 0.950 . S
C641 C639 1.327 . S
C642 C630 1.349 . S
C642 H636 0.950 . S
C642 C643 1.327 . S
C643 H637 0.950 . S
C643 C642 1.327 . S
C643 C647 1.429 . S
C644 C627 1.574 . S
C644 H638 0.949 . S
C644 C648 1.368 . S
C645 C626 1.429 . S
C645 C639 1.429 . S
C645 C646 1.523 1_455 S
C646 C627 1.368 . S
C646 C640 1.368 . S
C646 C645 1.523 1_655 S
C647 C631 1.429 . S
C647 C643 1.429 . S
C647 C648 1.523 . S
C648 C632 1.368 . S
C648 C644 1.368 . S
C648 C647 1.523 . S
H649 C624 0.950 . S
H650 C626 0.950 1_655 S
H651 C627 0.949 . S
H652 C629 0.950 . S
H653 C631 0.950 . S
C654 C655 1.349 . S
C654 C656 1.327 . S
C654 H679 0.950 . S
C655 C654 1.349 . S
C655 C671 1.349 . S
C656 C654 1.327 . S
C656 C675 1.429 . S
C656 H680 0.950 . S
C657 C674 1.574 . S
C657 C676 1.368 . S
C657 H681 0.949 . S
H658 C662 0.949 . S
C659 C660 1.349 . S
C659 C661 1.327 . S
C659 H682 0.950 . S
C660 C659 1.349 . S
C660 C672 1.349 . S
C661 C659 1.327 . S
C661 C677 1.429 . S
C661 H683 0.950 . S
C662 H658 0.949 . S
C662 C670 1.574 . S
C662 C678 1.368 . S
H663 C671 0.950 . S
H664 C669 0.950 . S
H665 C670 0.949 . S
H666 C672 0.950 . S
H667 C673 0.950 . S
H668 C674 0.949 . S
C669 H664 0.950 . S
C669 C671 1.327 . S
C669 C675 1.429 . S
C670 C662 1.574 . S
C670 H665 0.949 . S
C670 C676 1.368 . S
C671 C655 1.349 . S
C671 H663 0.950 . S
C671 C669 1.327 . S
C672 C660 1.349 . S
C672 H666 0.950 . S
C672 C673 1.327 . S
C673 H667 0.950 . S
C673 C672 1.327 . S
C673 C677 1.429 . S
C674 C657 1.574 . S
C674 H668 0.949 . S
C674 C678 1.368 . S
C675 C656 1.429 . S
C675 C669 1.429 . S
C675 C676 1.523 . S
C676 C657 1.368 . S
C676 C670 1.368 . S
C676 C675 1.523 . S
C677 C661 1.429 . S
C677 C673 1.429 . S
C677 C678 1.523 . S
C678 C662 1.368 . S
C678 C674 1.368 . S
C678 C677 1.523 . S
H679 C654 0.950 . S
H680 C656 0.950 . S
H681 C657 0.949 . S
H682 C659 0.950 . S
H683 C661 0.950 . S
C684 C685 1.349 . S
C684 C686 1.327 . S
C684 H709 0.950 . S
C685 C684 1.349 . S
C685 C701 1.349 1_545 S
C686 C684 1.327 . S
C686 C705 1.429 1_545 S
C686 H710 0.950 . S
C687 C704 1.574 . S
C687 C706 1.368 . S
C687 H711 0.949 . S
H688 C692 0.949 . S
C689 C690 1.349 . S
C689 C691 1.327 . S
C689 H712 0.950 . S
C690 C689 1.349 . S
C690 C702 1.349 . S
C691 C689 1.327 . S
C691 C707 1.429 . S
C691 H713 0.950 . S
C692 H688 0.949 . S
C692 C700 1.574 . S
C692 C708 1.368 . S
H693 C701 0.950 . S
H694 C699 0.950 . S
H695 C700 0.949 1_545 S
H696 C702 0.950 . S
H697 C703 0.950 . S
H698 C704 0.949 . S
C699 H694 0.950 . S
C699 C701 1.327 . S
C699 C705 1.429 . S
C700 C692 1.574 . S
C700 H695 0.949 1_565 S
C700 C706 1.368 . S
C701 C685 1.349 1_565 S
C701 H693 0.950 . S
C701 C699 1.327 . S
C702 C690 1.349 . S
C702 H696 0.950 . S
C702 C703 1.327 . S
C703 H697 0.950 . S
C703 C702 1.327 . S
C703 C707 1.429 . S
C704 C687 1.574 . S
C704 H698 0.949 . S
C704 C708 1.368 . S
C705 C686 1.429 1_565 S
C705 C699 1.429 . S
C705 C706 1.523 . S
C706 C687 1.368 . S
C706 C700 1.368 . S
C706 C705 1.523 . S
C707 C691 1.429 . S
C707 C703 1.429 . S
C707 C708 1.523 . S
C708 C692 1.368 . S
C708 C704 1.368 . S
C708 C707 1.523 . S
H709 C684 0.950 . S
H710 C686 0.950 . S
H711 C687 0.949 . S
H712 C689 0.950 . S
H713 C691 0.950 . S
C714 C715 1.349 . S
C714 C716 1.327 . S
C714 H739 0.950 . S
C715 C714 1.349 . S
C715 C731 1.349 . S
C716 C714 1.327 . S
C716 C735 1.429 . S
C716 H740 0.950 . S
C717 C734 1.574 . S
C717 C736 1.368 . S
C717 H741 0.949 . S
H718 C722 0.949 . S
C719 C720 1.349 . S
C719 C721 1.327 . S
C719 H742 0.950 . S
C720 C719 1.349 . S
C720 C732 1.349 . S
C721 C719 1.327 . S
C721 C737 1.429 . S
C721 H743 0.950 . S
C722 H718 0.949 . S
C722 C730 1.574 . S
C722 C738 1.368 . S
H723 C731 0.950 . S
H724 C729 0.950 . S
H725 C730 0.949 . S
H726 C732 0.950 . S
H727 C733 0.950 . S
H728 C734 0.949 . S
C729 H724 0.950 . S
C729 C731 1.327 . S
C729 C735 1.429 . S
C730 C722 1.574 . S
C730 H725 0.949 . S
C730 C736 1.368 . S
C731 C715 1.349 . S
C731 H723 0.950 . S
C731 C729 1.327 . S
C732 C720 1.349 . S
C732 H726 0.950 . S
C732 C733 1.327 . S
C733 H727 0.950 . S
C733 C732 1.327 . S
C733 C737 1.429 . S
C734 C717 1.574 . S
C734 H728 0.949 . S
C734 C738 1.368 . S
C735 C716 1.429 . S
C735 C729 1.429 . S
C735 C736 1.523 . S
C736 C717 1.368 . S
C736 C730 1.368 . S
C736 C735 1.523 . S
C737 C721 1.429 . S
C737 C733 1.429 . S
C737 C738 1.523 . S
C738 C722 1.368 . S
C738 C734 1.368 . S
C738 C737 1.523 . S
H739 C714 0.950 . S
H740 C716 0.950 . S
H741 C717 0.949 . S
H742 C719 0.950 . S
H743 C721 0.950 . S
C744 C745 1.349 . S
C744 C746 1.327 . S
C744 H769 0.950 . S
C745 C744 1.349 . S
C745 C761 1.349 . S
C746 C744 1.327 . S
C746 C765 1.429 . S
C746 H770 0.950 . S
C747 C764 1.574 . S
C747 C766 1.368 . S
C747 H771 0.949 . S
H748 C752 0.949 . S
C749 C750 1.349 . S
C749 C751 1.327 . S
C749 H772 0.950 . S
C750 C749 1.349 . S
C750 C762 1.349 . S
C751 C749 1.327 . S
C751 C767 1.429 . S
C751 H773 0.950 . S
C752 H748 0.949 . S
C752 C760 1.574 . S
C752 C768 1.368 . S
H753 C761 0.950 . S
H754 C759 0.950 1_655 S
H755 C760 0.949 1_455 S
H756 C762 0.950 . S
H757 C763 0.950 . S
H758 C764 0.949 . S
C759 H754 0.950 1_455 S
C759 C761 1.327 . S
C759 C765 1.429 . S
C760 C752 1.574 . S
C760 H755 0.949 1_655 S
C760 C766 1.368 . S
C761 C745 1.349 . S
C761 H753 0.950 . S
C761 C759 1.327 . S
C762 C750 1.349 . S
C762 H756 0.950 . S
C762 C763 1.327 . S
C763 H757 0.950 . S
C763 C762 1.327 . S
C763 C767 1.429 . S
C764 C747 1.574 . S
C764 H758 0.949 . S
C764 C768 1.368 . S
C765 C746 1.429 . S
C765 C759 1.429 . S
C765 C766 1.523 1_455 S
C766 C747 1.368 . S
C766 C760 1.368 . S
C766 C765 1.523 1_655 S
C767 C751 1.429 . S
C767 C763 1.429 . S
C767 C768 1.523 . S
C768 C752 1.368 . S
C768 C764 1.368 . S
C768 C767 1.523 . S
H769 C744 0.950 . S
H770 C746 0.950 . S
H771 C747 0.949 . S
H772 C749 0.950 . S
H773 C751 0.950 . S
C774 C775 1.349 . S
C774 C776 1.327 . S
C774 H799 0.950 . S
C775 C774 1.349 . S
C775 C791 1.349 . S
C776 C774 1.327 . S
C776 C795 1.429 . S
C776 H800 0.950 . S
C777 C794 1.574 . S
C777 C796 1.368 . S
C777 H801 0.949 . S
H778 C782 0.949 . S
C779 C780 1.349 . S
C779 C781 1.327 . S
C779 H802 0.950 . S
C780 C779 1.349 . S
C780 C792 1.349 . S
C781 C779 1.327 . S
C781 C797 1.429 . S
C781 H803 0.950 . S
C782 H778 0.949 . S
C782 C790 1.574 . S
C782 C798 1.368 . S
H783 C791 0.950 . S
H784 C789 0.950 . S
H785 C790 0.949 . S
H786 C792 0.950 . S
H787 C793 0.950 . S
H788 C794 0.949 . S
C789 H784 0.950 . S
C789 C791 1.327 . S
C789 C795 1.429 . S
C790 C782 1.574 . S
C790 H785 0.949 . S
C790 C796 1.368 . S
C791 C775 1.349 . S
C791 H783 0.950 . S
C791 C789 1.327 . S
C792 C780 1.349 . S
C792 H786 0.950 . S
C792 C793 1.327 . S
C793 H787 0.950 . S
C793 C792 1.327 . S
C793 C797 1.429 . S
C794 C777 1.574 . S
C794 H788 0.949 . S
C794 C798 1.368 . S
C795 C776 1.429 . S
C795 C789 1.429 . S
C795 C796 1.523 . S
C796 C777 1.368 . S
C796 C790 1.368 . S
C796 C795 1.523 . S
C797 C781 1.429 . S
C797 C793 1.429 . S
C797 C798 1.523 . S
C798 C782 1.368 . S
C798 C794 1.368 . S
C798 C797 1.523 . S
H799 C774 0.950 . S
H800 C776 0.950 . S
H801 C777 0.949 . S
H802 C779 0.950 . S
H803 C781 0.950 . S
C804 C805 1.349 . S
C804 C806 1.327 . S
C804 H829 0.950 . S
C805 C804 1.349 . S
C805 C821 1.349 . S
C806 C804 1.327 . S
C806 C825 1.429 . S
C806 H830 0.950 . S
C807 C824 1.574 . S
C807 C826 1.368 . S
C807 H831 0.949 . S
H808 C812 0.949 . S
C809 C810 1.349 . S
C809 C811 1.327 . S
C809 H832 0.950 . S
C810 C809 1.349 . S
C810 C822 1.349 . S
C811 C809 1.327 . S
C811 C827 1.429 . S
C811 H833 0.950 . S
C812 H808 0.949 . S
C812 C820 1.574 . S
C812 C828 1.368 . S
H813 C821 0.950 . S
H814 C819 0.950 . S
H815 C820 0.949 . S
H816 C822 0.950 . S
H817 C823 0.950 . S
H818 C824 0.949 . S
C819 H814 0.950 . S
C819 C821 1.327 . S
C819 C825 1.429 . S
C820 C812 1.574 . S
C820 H815 0.949 . S
C820 C826 1.368 . S
C821 C805 1.349 . S
C821 H813 0.950 . S
C821 C819 1.327 . S
C822 C810 1.349 . S
C822 H816 0.950 . S
C822 C823 1.327 . S
C823 H817 0.950 . S
C823 C822 1.327 . S
C823 C827 1.429 . S
C824 C807 1.574 . S
C824 H818 0.949 . S
C824 C828 1.368 . S
C825 C806 1.429 . S
C825 C819 1.429 . S
C825 C826 1.523 . S
C826 C807 1.368 . S
C826 C820 1.368 . S
C826 C825 1.523 . S
C827 C811 1.429 . S
C827 C823 1.429 . S
C827 C828 1.523 . S
C828 C812 1.368 . S
C828 C824 1.368 . S
C828 C827 1.523 . S
H829 C804 0.950 . S
H830 C806 0.950 . S
H831 C807 0.949 . S
H832 C809 0.950 . S
H833 C811 0.950 . S
C834 C835 1.349 . S
C834 C836 1.327 . S
C834 H859 0.950 . S
C835 C834 1.349 . S
C835 C851 1.349 . S
C836 C834 1.327 . S
C836 C855 1.429 . S
C836 H860 0.950 . S
C837 C854 1.574 . S
C837 C856 1.368 . S
C837 H861 0.949 . S
H838 C842 0.949 . S
C839 C840 1.349 . S
C839 C841 1.327 . S
C839 H862 0.950 . S
C840 C839 1.349 . S
C840 C852 1.349 . S
C841 C839 1.327 . S
C841 C857 1.429 . S
C841 H863 0.950 . S
C842 H838 0.949 . S
C842 C850 1.574 . S
C842 C858 1.368 . S
H843 C851 0.950 . S
H844 C849 0.950 . S
H845 C850 0.949 . S
H846 C852 0.950 . S
H847 C853 0.950 . S
H848 C854 0.949 . S
C849 H844 0.950 . S
C849 C851 1.327 . S
C849 C855 1.429 . S
C850 C842 1.574 . S
C850 H845 0.949 . S
C850 C856 1.368 . S
C851 C835 1.349 . S
C851 H843 0.950 . S
C851 C849 1.327 . S
C852 C840 1.349 . S
C852 H846 0.950 . S
C852 C853 1.327 . S
C853 H847 0.950 . S
C853 C852 1.327 . S
C853 C857 1.429 . S
C854 C837 1.574 . S
C854 H848 0.949 . S
C854 C858 1.368 . S
C855 C836 1.429 . S
C855 C849 1.429 . S
C855 C856 1.523 . S
C856 C837 1.368 . S
C856 C850 1.368 . S
C856 C855 1.523 . S
C857 C841 1.429 . S
C857 C853 1.429 . S
C857 C858 1.523 . S
C858 C842 1.368 . S
C858 C854 1.368 . S
C858 C857 1.523 . S
H859 C834 0.950 . S
H860 C836 0.950 . S
H861 C837 0.949 . S
H862 C839 0.950 . S
H863 C841 0.950 . S
C864 C865 1.349 . S
C864 C866 1.327 . S
C864 H889 0.950 . S
C865 C864 1.349 . S
C865 C881 1.349 . S
C866 C864 1.327 . S
C866 C885 1.429 . S
C866 H890 0.950 . S
C867 C884 1.574 . S
C867 C886 1.368 . S
C867 H891 0.949 . S
H868 C872 0.949 . S
C869 C870 1.349 . S
C869 C871 1.327 . S
C869 H892 0.950 . S
C870 C869 1.349 . S
C870 C882 1.349 . S
C871 C869 1.327 . S
C871 C887 1.429 . S
C871 H893 0.950 . S
C872 H868 0.949 . S
C872 C880 1.574 . S
C872 C888 1.368 . S
H873 C881 0.950 1_556 S
H874 C879 0.950 1_565 S
H875 C880 0.949 1_545 S
H876 C882 0.950 . S
H877 C883 0.950 . S
H878 C884 0.949 . S
C879 H874 0.950 1_545 S
C879 C881 1.327 . S
C879 C885 1.429 . S
C880 C872 1.574 . S
C880 H875 0.949 1_565 S
C880 C886 1.368 . S
C881 C865 1.349 . S
C881 H873 0.950 1_554 S
C881 C879 1.327 . S
C882 C870 1.349 . S
C882 H876 0.950 . S
C882 C883 1.327 . S
C883 H877 0.950 . S
C883 C882 1.327 . S
C883 C887 1.429 . S
C884 C867 1.574 . S
C884 H878 0.949 . S
C884 C888 1.368 . S
C885 C866 1.429 . S
C885 C879 1.429 . S
C885 C886 1.523 1_545 S
C886 C867 1.368 . S
C886 C880 1.368 . S
C886 C885 1.523 1_565 S
C887 C871 1.429 . S
C887 C883 1.429 . S
C887 C888 1.523 . S
C888 C872 1.368 . S
C888 C884 1.368 . S
C888 C887 1.523 . S
H889 C864 0.950 . S
H890 C866 0.950 . S
H891 C867 0.949 . S
H892 C869 0.950 . S
H893 C871 0.950 . S
C894 C895 1.349 . S
C894 C896 1.327 . S
C894 H919 0.950 . S
C895 C894 1.349 . S
C895 C911 1.351 . S
C896 C894 1.327 . S
C896 C915 1.429 . S
C896 H920 0.950 . S
C897 C914 1.574 . S
C897 C916 1.368 . S
C897 H921 0.949 . S
H898 C902 0.949 . S
C899 C900 1.349 . S
C899 C901 1.327 . S
C899 H922 0.950 . S
C900 C899 1.349 . S
C900 C912 1.349 . S
C901 C899 1.327 . S
C901 C917 1.429 . S
C901 H923 0.950 . S
C902 H898 0.949 . S
C902 C910 1.574 . S
C902 C918 1.368 . S
H903 C911 0.946 1_554 S
H904 C909 0.950 1_554 S
H905 C910 0.949 . S
H906 C912 0.950 . S
H907 C913 0.950 . S
H908 C914 0.949 . S
C909 H904 0.950 1_556 S
C909 C911 1.329 . S
C909 C915 1.429 . S
C910 C902 1.574 . S
C910 H905 0.949 . S
C910 C916 1.368 . S
C911 C895 1.351 . S
C911 H903 0.946 1_556 S
C911 C909 1.329 . S
C912 C900 1.349 . S
C912 H906 0.950 . S
C912 C913 1.327 . S
C913 H907 0.950 . S
C913 C912 1.327 . S
C913 C917 1.429 . S
C914 C897 1.574 . S
C914 H908 0.949 . S
C914 C918 1.368 . S
C915 C896 1.429 . S
C915 C909 1.429 . S
C915 C916 1.523 . S
C916 C897 1.368 . S
C916 C910 1.368 . S
C916 C915 1.523 . S
C917 C901 1.429 . S
C917 C913 1.429 . S
C917 C918 1.523 . S
C918 C902 1.368 . S
C918 C914 1.368 . S
C918 C917 1.523 . S
H919 C894 0.950 . S
H920 C896 0.950 . S
H921 C897 0.949 . S
H922 C899 0.950 . S
H923 C901 0.950 . S
C924 C925 1.349 . S
C924 C926 1.327 . S
C924 H949 0.950 . S
C925 C924 1.349 . S
C925 C941 1.349 . S
C926 C924 1.327 . S
C926 C945 1.429 . S
C926 H950 0.950 . S
C927 C944 1.574 . S
C927 C946 1.368 . S
C927 H951 0.949 . S
H928 C932 0.949 . S
C929 C930 1.349 . S
C929 C931 1.327 . S
C929 H952 0.950 . S
C930 C929 1.349 . S
C930 C942 1.349 . S
C931 C929 1.327 . S
C931 C947 1.429 . S
C931 H953 0.950 . S
C932 H928 0.949 . S
C932 C940 1.574 . S
C932 C948 1.368 . S
H933 C941 0.950 . S
H934 C939 0.950 . S
H935 C940 0.949 . S
H936 C942 0.950 . S
H937 C943 0.950 . S
H938 C944 0.949 . S
C939 H934 0.950 . S
C939 C941 1.327 . S
C939 C945 1.429 . S
C940 C932 1.574 . S
C940 H935 0.949 . S
C940 C946 1.368 . S
C941 C925 1.349 . S
C941 H933 0.950 . S
C941 C939 1.327 . S
C942 C930 1.349 . S
C942 H936 0.950 . S
C942 C943 1.327 . S
C943 H937 0.950 . S
C943 C942 1.327 . S
C943 C947 1.429 . S
C944 C927 1.574 . S
C944 H938 0.949 . S
C944 C948 1.368 . S
C945 C926 1.429 . S
C945 C939 1.429 . S
C945 C946 1.523 . S
C946 C927 1.368 . S
C946 C940 1.368 . S
C946 C945 1.523 . S
C947 C931 1.429 . S
C947 C943 1.429 . S
C947 C948 1.523 . S
C948 C932 1.368 . S
C948 C944 1.368 . S
C948 C947 1.523 . S
H949 C924 0.950 . S
H950 C926 0.950 . S
H951 C927 0.949 . S
H952 C929 0.950 . S
H953 C931 0.950 . S
C954 C955 1.349 . S
C954 C956 1.327 . S
C954 H979 0.950 . S
C955 C954 1.349 . S
C955 C971 1.349 . S
C956 C954 1.327 . S
C956 C975 1.429 . S
C956 H980 0.950 . S
C957 C974 1.574 . S
C957 C976 1.368 . S
C957 H981 0.949 . S
H958 C962 0.949 . S
C959 C960 1.349 . S
C959 C961 1.327 . S
C959 H982 0.950 . S
C960 C959 1.349 . S
C960 C972 1.349 . S
C961 C959 1.327 . S
C961 C977 1.429 . S
C961 H983 0.950 . S
C962 H958 0.949 . S
C962 C970 1.574 . S
C962 C978 1.368 . S
H963 C971 0.950 . S
H964 C969 0.950 . S
H965 C970 0.949 . S
H966 C972 0.950 . S
H967 C973 0.950 . S
H968 C974 0.949 . S
C969 H964 0.950 . S
C969 C971 1.327 . S
C969 C975 1.429 . S
C970 C962 1.574 . S
C970 H965 0.949 . S
C970 C976 1.368 . S
C971 C955 1.349 . S
C971 H963 0.950 . S
C971 C969 1.327 . S
C972 C960 1.349 . S
C972 H966 0.950 . S
C972 C973 1.327 . S
C973 H967 0.950 . S
C973 C972 1.327 . S
C973 C977 1.429 . S
C974 C957 1.574 . S
C974 H968 0.949 . S
C974 C978 1.368 . S
C975 C956 1.429 . S
C975 C969 1.429 . S
C975 C976 1.523 . S
C976 C957 1.368 . S
C976 C970 1.368 . S
C976 C975 1.523 . S
C977 C961 1.429 . S
C977 C973 1.429 . S
C977 C978 1.523 . S
C978 C962 1.368 . S
C978 C974 1.368 . S
C978 C977 1.523 . S
H979 C954 0.950 . S
H980 C956 0.950 . S
H981 C957 0.949 . S
H982 C959 0.950 . S
H983 C961 0.950 . S
C984 C985 1.349 . S
C984 C986 1.327 . S
C984 H1009 0.950 . S
C985 C984 1.349 . S
C985 C1001 1.349 . S
C986 C984 1.327 . S
C986 C1005 1.429 . S
C986 H1010 0.950 . S
C987 C1004 1.574 . S
C987 C1006 1.368 . S
C987 H1011 0.949 . S
H988 C992 0.949 . S
C989 C990 1.349 . S
C989 C991 1.327 . S
C989 H1012 0.950 . S
C990 C989 1.349 . S
C990 C1002 1.349 . S
C991 C989 1.327 . S
C991 C1007 1.429 . S
C991 H1013 0.950 . S
C992 H988 0.949 . S
C992 C1000 1.574 . S
C992 C1008 1.368 . S
H993 C1001 0.950 . S
H994 C999 0.950 . S
H995 C1000 0.949 . S
H996 C1002 0.950 . S
H997 C1003 0.950 . S
H998 C1004 0.949 . S
C999 H994 0.950 . S
C999 C1001 1.327 . S
C999 C1005 1.429 . S
C1000 C992 1.574 . S
C1000 H995 0.949 . S
C1000 C1006 1.368 . S
C1001 C985 1.349 . S
C1001 H993 0.950 . S
C1001 C999 1.327 . S
C1002 C990 1.349 . S
C1002 H996 0.950 . S
C1002 C1003 1.327 . S
C1003 H997 0.950 . S
C1003 C1002 1.327 . S
C1003 C1007 1.429 . S
C1004 C987 1.574 . S
C1004 H998 0.949 . S
C1004 C1008 1.368 . S
C1005 C986 1.429 . S
C1005 C999 1.429 . S
C1005 C1006 1.523 . S
C1006 C987 1.368 . S
C1006 C1000 1.368 . S
C1006 C1005 1.523 . S
C1007 C991 1.429 . S
C1007 C1003 1.429 . S
C1007 C1008 1.523 . S
C1008 C992 1.368 . S
C1008 C1004 1.368 . S
C1008 C1007 1.523 . S
H1009 C984 0.950 . S
H1010 C986 0.950 . S
H1011 C987 0.949 . S
H1012 C989 0.950 . S
H1013 C991 0.950 . S
C1014 C1015 1.349 . S
C1014 C1016 1.327 1_565 S
C1014 H1039 0.950 . S
C1015 C1014 1.349 . S
C1015 C1031 1.349 . S
C1016 C1014 1.327 1_545 S
C1016 C1035 1.429 . S
C1016 H1040 0.950 . S
C1017 C1034 1.574 . S
C1017 C1036 1.368 . S
C1017 H1041 0.949 . S
H1018 C1022 0.949 . S
C1019 C1020 1.349 . S
C1019 C1021 1.327 . S
C1019 H1042 0.950 . S
C1020 C1019 1.349 . S
C1020 C1032 1.349 . S
C1021 C1019 1.327 . S
C1021 C1037 1.429 . S
C1021 H1043 0.950 . S
C1022 H1018 0.949 . S
C1022 C1030 1.574 . S
C1022 C1038 1.368 . S
H1023 C1031 0.950 . S
H1024 C1029 0.950 . S
H1025 C1030 0.949 . S
H1026 C1032 0.950 . S
H1027 C1033 0.950 . S
H1028 C1034 0.949 . S
C1029 H1024 0.950 . S
C1029 C1031 1.327 1_545 S
C1029 C1035 1.429 . S
C1030 C1022 1.574 . S
C1030 H1025 0.949 . S
C1030 C1036 1.368 . S
C1031 C1015 1.349 . S
C1031 H1023 0.950 . S
C1031 C1029 1.327 1_565 S
C1032 C1020 1.349 . S
C1032 H1026 0.950 . S
C1032 C1033 1.327 . S
C1033 H1027 0.950 . S
C1033 C1032 1.327 . S
C1033 C1037 1.429 . S
C1034 C1017 1.574 . S
C1034 H1028 0.949 . S
C1034 C1038 1.368 . S
C1035 C1016 1.429 . S
C1035 C1029 1.429 . S
C1035 C1036 1.523 . S
C1036 C1017 1.368 . S
C1036 C1030 1.368 . S
C1036 C1035 1.523 . S
C1037 C1021 1.429 . S
C1037 C1033 1.429 . S
C1037 C1038 1.523 . S
C1038 C1022 1.368 . S
C1038 C1034 1.368 . S
C1038 C1037 1.523 . S
H1039 C1014 0.950 . S
H1040 C1016 0.950 . S
H1041 C1017 0.949 . S
H1042 C1019 0.950 . S
H1043 C1021 0.950 . S
C1044 C1045 1.349 . S
C1044 C1046 1.327 . S
C1044 H1069 0.950 . S
C1045 C1044 1.349 . S
C1045 C1061 1.349 . S
C1046 C1044 1.327 . S
C1046 C1065 1.429 . S
C1046 H1070 0.950 . S
C1047 C1064 1.574 . S
C1047 C1066 1.368 . S
C1047 H1071 0.949 . S
H1048 C1052 0.949 . S
C1049 C1050 1.349 . S
C1049 C1051 1.327 . S
C1049 H1072 0.950 . S
C1050 C1049 1.349 . S
C1050 C1062 1.349 . S
C1051 C1049 1.327 . S
C1051 C1067 1.429 . S
C1051 H1073 0.950 . S
C1052 H1048 0.949 . S
C1052 C1060 1.574 . S
C1052 C1068 1.368 . S
H1053 C1061 0.950 . S
H1054 C1059 0.950 . S
H1055 C1060 0.949 . S
H1056 C1062 0.950 . S
H1057 C1063 0.950 . S
H1058 C1064 0.949 . S
C1059 H1054 0.950 . S
C1059 C1061 1.327 . S
C1059 C1065 1.429 . S
C1060 C1052 1.574 . S
C1060 H1055 0.949 . S
C1060 C1066 1.368 . S
C1061 C1045 1.349 . S
C1061 H1053 0.950 . S
C1061 C1059 1.327 . S
C1062 C1050 1.349 . S
C1062 H1056 0.950 . S
C1062 C1063 1.327 . S
C1063 H1057 0.950 . S
C1063 C1062 1.327 . S
C1063 C1067 1.429 . S
C1064 C1047 1.574 . S
C1064 H1058 0.949 . S
C1064 C1068 1.368 . S
C1065 C1046 1.429 . S
C1065 C1059 1.429 . S
C1065 C1066 1.523 . S
C1066 C1047 1.368 . S
C1066 C1060 1.368 . S
C1066 C1065 1.523 . S
C1067 C1051 1.429 . S
C1067 C1063 1.429 . S
C1067 C1068 1.523 . S
C1068 C1052 1.368 . S
C1068 C1064 1.368 . S
C1068 C1067 1.523 . S
H1069 C1044 0.950 . S
H1070 C1046 0.950 . S
H1071 C1047 0.949 . S
H1072 C1049 0.950 . S
H1073 C1051 0.950 . S
C1074 C1075 1.349 . S
C1074 C1076 1.327 . S
C1074 H1099 0.950 . S
C1075 C1074 1.349 . S
C1075 C1091 1.349 . S
C1076 C1074 1.327 . S
C1076 C1095 1.429 . S
C1076 H1100 0.950 . S
C1077 C1094 1.574 . S
C1077 C1096 1.368 . S
C1077 H1101 0.949 . S
H1078 C1082 0.949 . S
C1079 C1080 1.349 . S
C1079 C1081 1.327 . S
C1079 H1102 0.950 . S
C1080 C1079 1.349 . S
C1080 C1092 1.349 . S
C1081 C1079 1.327 . S
C1081 C1097 1.429 . S
C1081 H1103 0.950 . S
C1082 H1078 0.949 . S
C1082 C1090 1.574 . S
C1082 C1098 1.368 . S
H1083 C1091 0.950 . S
H1084 C1089 0.950 . S
H1085 C1090 0.949 . S
H1086 C1092 0.950 . S
H1087 C1093 0.950 . S
H1088 C1094 0.949 . S
C1089 H1084 0.950 . S
C1089 C1091 1.327 . S
C1089 C1095 1.429 . S
C1090 C1082 1.574 . S
C1090 H1085 0.949 . S
C1090 C1096 1.368 . S
C1091 C1075 1.349 . S
C1091 H1083 0.950 . S
C1091 C1089 1.327 . S
C1092 C1080 1.349 . S
C1092 H1086 0.950 . S
C1092 C1093 1.327 . S
C1093 H1087 0.950 . S
C1093 C1092 1.327 . S
C1093 C1097 1.429 . S
C1094 C1077 1.574 . S
C1094 H1088 0.949 . S
C1094 C1098 1.368 . S
C1095 C1076 1.429 . S
C1095 C1089 1.429 . S
C1095 C1096 1.523 . S
C1096 C1077 1.368 . S
C1096 C1090 1.368 . S
C1096 C1095 1.523 . S
C1097 C1081 1.429 . S
C1097 C1093 1.429 . S
C1097 C1098 1.523 . S
C1098 C1082 1.368 . S
C1098 C1094 1.368 . S
C1098 C1097 1.523 . S
H1099 C1074 0.950 . S
H1100 C1076 0.950 . S
H1101 C1077 0.949 . S
H1102 C1079 0.950 . S
H1103 C1081 0.950 . S
C1104 C1105 1.349 . S
C1104 C1106 1.327 . S
C1104 H1129 0.950 . S
C1105 C1104 1.349 . S
C1105 C1121 1.349 . S
C1106 C1104 1.327 . S
C1106 C1125 1.429 . S
C1106 H1130 0.950 . S
C1107 C1124 1.574 . S
C1107 C1126 1.368 . S
C1107 H1131 0.949 . S
H1108 C1112 0.949 . S
C1109 C1110 1.349 . S
C1109 C1111 1.327 . S
C1109 H1132 0.950 . S
C1110 C1109 1.349 . S
C1110 C1122 1.349 . S
C1111 C1109 1.327 . S
C1111 C1127 1.429 . S
C1111 H1133 0.950 . S
C1112 H1108 0.949 . S
C1112 C1120 1.574 . S
C1112 C1128 1.368 . S
H1113 C1121 0.950 . S
H1114 C1119 0.950 . S
H1115 C1120 0.949 . S
H1116 C1122 0.950 . S
H1117 C1123 0.950 . S
H1118 C1124 0.949 . S
C1119 H1114 0.950 . S
C1119 C1121 1.327 . S
C1119 C1125 1.429 . S
C1120 C1112 1.574 . S
C1120 H1115 0.949 . S
C1120 C1126 1.368 . S
C1121 C1105 1.349 . S
C1121 H1113 0.950 . S
C1121 C1119 1.327 . S
C1122 C1110 1.349 . S
C1122 H1116 0.950 . S
C1122 C1123 1.327 . S
C1123 H1117 0.950 . S
C1123 C1122 1.327 . S
C1123 C1127 1.429 . S
C1124 C1107 1.574 . S
C1124 H1118 0.949 . S
C1124 C1128 1.368 . S
C1125 C1106 1.429 . S
C1125 C1119 1.429 . S
C1125 C1126 1.523 . S
C1126 C1107 1.368 . S
C1126 C1120 1.368 . S
C1126 C1125 1.523 . S
C1127 C1111 1.429 . S
C1127 C1123 1.429 . S
C1127 C1128 1.523 . S
C1128 C1112 1.368 . S
C1128 C1124 1.368 . S
C1128 C1127 1.523 . S
H1129 C1104 0.950 . S
H1130 C1106 0.950 . S
H1131 C1107 0.949 . S
H1132 C1109 0.950 . S
H1133 C1111 0.950 . S
C1134 C1135 1.349 . S
C1134 C1136 1.327 . S
C1134 H1159 0.950 . S
C1135 C1134 1.349 . S
C1135 C1151 1.349 . S
C1136 C1134 1.327 . S
C1136 C1155 1.429 . S
C1136 H1160 0.950 . S
C1137 C1154 1.574 . S
C1137 C1156 1.368 . S
C1137 H1161 0.949 . S
H1138 C1142 0.949 . S
C1139 C1140 1.349 . S
C1139 C1141 1.327 . S
C1139 H1162 0.950 . S
C1140 C1139 1.349 . S
C1140 C1152 1.349 . S
C1141 C1139 1.327 . S
C1141 C1157 1.429 . S
C1141 H1163 0.950 . S
C1142 H1138 0.949 . S
C1142 C1150 1.574 . S
C1142 C1158 1.368 . S
H1143 C1151 0.950 . S
H1144 C1149 0.950 . S
H1145 C1150 0.949 . S
H1146 C1152 0.950 . S
H1147 C1153 0.950 . S
H1148 C1154 0.949 . S
C1149 H1144 0.950 . S
C1149 C1151 1.327 . S
C1149 C1155 1.429 . S
C1150 C1142 1.574 . S
C1150 H1145 0.949 . S
C1150 C1156 1.368 . S
C1151 C1135 1.349 . S
C1151 H1143 0.950 . S
C1151 C1149 1.327 . S
C1152 C1140 1.349 . S
C1152 H1146 0.950 . S
C1152 C1153 1.327 . S
C1153 H1147 0.950 . S
C1153 C1152 1.327 . S
C1153 C1157 1.429 . S
C1154 C1137 1.574 . S
C1154 H1148 0.949 . S
C1154 C1158 1.368 . S
C1155 C1136 1.429 . S
C1155 C1149 1.429 . S
C1155 C1156 1.523 . S
C1156 C1137 1.368 . S
C1156 C1150 1.368 . S
C1156 C1155 1.523 . S
C1157 C1141 1.429 . S
C1157 C1153 1.429 . S
C1157 C1158 1.523 . S
C1158 C1142 1.368 . S
C1158 C1154 1.368 . S
C1158 C1157 1.523 . S
H1159 C1134 0.950 . S
H1160 C1136 0.950 . S
H1161 C1137 0.949 . S
H1162 C1139 0.950 . S
H1163 C1141 0.950 . S
C1164 C1165 1.349 . S
C1164 C1166 1.327 . S
C1164 H1189 0.950 . S
C1165 C1164 1.349 . S
C1165 C1181 1.349 . S
C1166 C1164 1.327 . S
C1166 C1185 1.429 . S
C1166 H1190 0.950 . S
C1167 C1184 1.574 . S
C1167 C1186 1.368 . S
C1167 H1191 0.949 . S
H1168 C1172 0.949 . S
C1169 C1170 1.349 . S
C1169 C1171 1.327 . S
C1169 H1192 0.950 . S
C1170 C1169 1.349 . S
C1170 C1182 1.349 . S
C1171 C1169 1.327 . S
C1171 C1187 1.429 . S
C1171 H1193 0.950 . S
C1172 H1168 0.949 . S
C1172 C1180 1.574 . S
C1172 C1188 1.368 . S
H1173 C1181 0.950 . S
H1174 C1179 0.950 . S
H1175 C1180 0.949 1_554 S
H1176 C1182 0.950 . S
H1177 C1183 0.950 . S
H1178 C1184 0.949 . S
C1179 H1174 0.950 . S
C1179 C1181 1.327 . S
C1179 C1185 1.429 . S
C1180 C1172 1.574 . S
C1180 H1175 0.949 1_556 S
C1180 C1186 1.368 . S
C1181 C1165 1.349 . S
C1181 H1173 0.950 . S
C1181 C1179 1.327 . S
C1182 C1170 1.349 . S
C1182 H1176 0.950 . S
C1182 C1183 1.327 . S
C1183 H1177 0.950 . S
C1183 C1182 1.327 . S
C1183 C1187 1.429 . S
C1184 C1167 1.574 . S
C1184 H1178 0.949 . S
C1184 C1188 1.368 . S
C1185 C1166 1.429 . S
C1185 C1179 1.429 . S
C1185 C1186 1.523 1_554 S
C1186 C1167 1.368 . S
C1186 C1180 1.368 . S
C1186 C1185 1.523 1_556 S
C1187 C1171 1.429 . S
C1187 C1183 1.429 . S
C1187 C1188 1.523 . S
C1188 C1172 1.368 . S
C1188 C1184 1.368 . S
C1188 C1187 1.523 . S
H1189 C1164 0.950 . S
H1190 C1166 0.950 . S
H1191 C1167 0.949 . S
H1192 C1169 0.950 . S
H1193 C1171 0.950 . S
C1194 C1195 1.349 . S
C1194 C1196 1.327 . S
C1194 H1219 0.950 . S
C1195 C1194 1.349 . S
C1195 C1211 1.349 . S
C1196 C1194 1.327 . S
C1196 C1215 1.429 . S
C1196 H1220 0.950 . S
C1197 C1214 1.574 . S
C1197 C1216 1.368 . S
C1197 H1221 0.949 . S
H1198 C1202 0.949 . S
C1199 C1200 1.349 . S
C1199 C1201 1.327 . S
C1199 H1222 0.950 . S
C1200 C1199 1.349 . S
C1200 C1212 1.349 . S
C1201 C1199 1.327 . S
C1201 C1217 1.429 . S
C1201 H1223 0.950 . S
C1202 H1198 0.949 . S
C1202 C1210 1.574 . S
C1202 C1218 1.368 . S
H1203 C1211 0.950 . S
H1204 C1209 0.950 . S
H1205 C1210 0.949 . S
H1206 C1212 0.950 . S
H1207 C1213 0.950 . S
H1208 C1214 0.949 . S
C1209 H1204 0.950 . S
C1209 C1211 1.327 . S
C1209 C1215 1.429 . S
C1210 C1202 1.574 . S
C1210 H1205 0.949 . S
C1210 C1216 1.368 . S
C1211 C1195 1.349 . S
C1211 H1203 0.950 . S
C1211 C1209 1.327 . S
C1212 C1200 1.349 . S
C1212 H1206 0.950 . S
C1212 C1213 1.327 . S
C1213 H1207 0.950 . S
C1213 C1212 1.327 . S
C1213 C1217 1.429 . S
C1214 C1197 1.574 . S
C1214 H1208 0.949 . S
C1214 C1218 1.368 . S
C1215 C1196 1.429 . S
C1215 C1209 1.429 . S
C1215 C1216 1.523 . S
C1216 C1197 1.368 . S
C1216 C1210 1.368 . S
C1216 C1215 1.523 . S
C1217 C1201 1.429 . S
C1217 C1213 1.429 . S
C1217 C1218 1.523 . S
C1218 C1202 1.368 . S
C1218 C1214 1.368 . S
C1218 C1217 1.523 . S
H1219 C1194 0.950 . S
H1220 C1196 0.950 . S
H1221 C1197 0.949 . S
H1222 C1199 0.950 . S
H1223 C1201 0.950 . S
C1224 C1225 1.349 . S
C1224 C1226 1.327 1_556 S
C1224 H1249 0.950 . S
C1225 C1224 1.349 . S
C1225 C1241 1.349 1_556 S
C1226 C1224 1.327 1_554 S
C1226 C1245 1.429 . S
C1226 H1250 0.950 . S
C1227 C1244 1.574 . S
C1227 C1246 1.368 . S
C1227 H1251 0.949 . S
H1228 C1232 0.949 . S
C1229 C1230 1.349 . S
C1229 C1231 1.327 . S
C1229 H1252 0.950 . S
C1230 C1229 1.349 . S
C1230 C1242 1.349 . S
C1231 C1229 1.327 . S
C1231 C1247 1.429 . S
C1231 H1253 0.950 . S
C1232 H1228 0.949 . S
C1232 C1240 1.574 . S
C1232 C1248 1.368 . S
H1233 C1241 0.950 . S
H1234 C1239 0.950 . S
H1235 C1240 0.949 . S
H1236 C1242 0.950 . S
H1237 C1243 0.950 . S
H1238 C1244 0.949 . S
C1239 H1234 0.950 . S
C1239 C1241 1.327 . S
C1239 C1245 1.429 . S
C1240 C1232 1.574 . S
C1240 H1235 0.949 . S
C1240 C1246 1.368 . S
C1241 C1225 1.349 1_554 S
C1241 H1233 0.950 . S
C1241 C1239 1.327 . S
C1242 C1230 1.349 . S
C1242 H1236 0.950 . S
C1242 C1243 1.327 . S
C1243 H1237 0.950 . S
C1243 C1242 1.327 . S
C1243 C1247 1.429 . S
C1244 C1227 1.574 . S
C1244 H1238 0.949 . S
C1244 C1248 1.368 . S
C1245 C1226 1.429 . S
C1245 C1239 1.429 . S
C1245 C1246 1.523 . S
C1246 C1227 1.368 . S
C1246 C1240 1.368 . S
C1246 C1245 1.523 . S
C1247 C1231 1.429 . S
C1247 C1243 1.429 . S
C1247 C1248 1.523 . S
C1248 C1232 1.368 . S
C1248 C1244 1.368 . S
C1248 C1247 1.523 . S
H1249 C1224 0.950 . S
H1250 C1226 0.950 . S
H1251 C1227 0.949 . S
H1252 C1229 0.950 . S
H1253 C1231 0.950 . S
C1254 C1255 1.349 . S
C1254 C1256 1.327 . S
C1254 H1279 0.950 . S
C1255 C1254 1.349 . S
C1255 C1271 1.349 . S
C1256 C1254 1.327 . S
C1256 C1275 1.429 . S
C1256 H1280 0.950 . S
C1257 C1274 1.574 . S
C1257 C1276 1.368 . S
C1257 H1281 0.949 . S
H1258 C1262 0.949 . S
C1259 C1260 1.349 . S
C1259 C1261 1.327 . S
C1259 H1282 0.950 . S
C1260 C1259 1.349 . S
C1260 C1272 1.349 . S
C1261 C1259 1.327 . S
C1261 C1277 1.429 . S
C1261 H1283 0.950 . S
C1262 H1258 0.949 . S
C1262 C1270 1.574 . S
C1262 C1278 1.368 . S
H1263 C1271 0.950 . S
H1264 C1269 0.950 . S
H1265 C1270 0.949 . S
H1266 C1272 0.950 . S
H1267 C1273 0.950 . S
H1268 C1274 0.949 . S
C1269 H1264 0.950 . S
C1269 C1271 1.327 . S
C1269 C1275 1.429 . S
C1270 C1262 1.574 . S
C1270 H1265 0.949 . S
C1270 C1276 1.368 . S
C1271 C1255 1.349 . S
C1271 H1263 0.950 . S
C1271 C1269 1.327 . S
C1272 C1260 1.349 . S
C1272 H1266 0.950 . S
C1272 C1273 1.327 . S
C1273 H1267 0.950 . S
C1273 C1272 1.327 . S
C1273 C1277 1.429 . S
C1274 C1257 1.574 . S
C1274 H1268 0.949 . S
C1274 C1278 1.368 . S
C1275 C1256 1.429 . S
C1275 C1269 1.429 . S
C1275 C1276 1.523 . S
C1276 C1257 1.368 . S
C1276 C1270 1.368 . S
C1276 C1275 1.523 . S
C1277 C1261 1.429 . S
C1277 C1273 1.429 . S
C1277 C1278 1.523 . S
C1278 C1262 1.368 . S
C1278 C1274 1.368 . S
C1278 C1277 1.523 . S
H1279 C1254 0.950 . S
H1280 C1256 0.950 . S
H1281 C1257 0.949 . S
H1282 C1259 0.950 . S
H1283 C1261 0.950 . S
C1284 C1285 1.349 . S
C1284 C1286 1.327 . S
C1284 H1309 0.950 . S
C1285 C1284 1.349 . S
C1285 C1301 1.349 . S
C1286 C1284 1.327 . S
C1286 C1305 1.429 . S
C1286 H1310 0.950 . S
C1287 C1304 1.574 . S
C1287 C1306 1.368 . S
C1287 H1311 0.949 . S
H1288 C1292 0.949 . S
C1289 C1290 1.349 . S
C1289 C1291 1.327 . S
C1289 H1312 0.950 . S
C1290 C1289 1.349 . S
C1290 C1302 1.349 . S
C1291 C1289 1.327 . S
C1291 C1307 1.429 . S
C1291 H1313 0.950 . S
C1292 H1288 0.949 . S
C1292 C1300 1.574 . S
C1292 C1308 1.368 . S
H1293 C1301 0.950 1_455 S
H1294 C1299 0.950 . S
H1295 C1300 0.949 . S
H1296 C1302 0.950 . S
H1297 C1303 0.950 . S
H1298 C1304 0.949 . S
C1299 H1294 0.950 . S
C1299 C1301 1.327 . S
C1299 C1305 1.429 . S
C1300 C1292 1.574 . S
C1300 H1295 0.949 . S
C1300 C1306 1.368 . S
C1301 C1285 1.349 . S
C1301 H1293 0.950 1_655 S
C1301 C1299 1.327 . S
C1302 C1290 1.349 . S
C1302 H1296 0.950 . S
C1302 C1303 1.327 . S
C1303 H1297 0.950 . S
C1303 C1302 1.327 . S
C1303 C1307 1.429 . S
C1304 C1287 1.574 . S
C1304 H1298 0.949 . S
C1304 C1308 1.368 . S
C1305 C1286 1.429 . S
C1305 C1299 1.429 . S
C1305 C1306 1.523 . S
C1306 C1287 1.368 . S
C1306 C1300 1.368 . S
C1306 C1305 1.523 . S
C1307 C1291 1.429 . S
C1307 C1303 1.429 . S
C1307 C1308 1.523 . S
C1308 C1292 1.368 . S
C1308 C1304 1.368 . S
C1308 C1307 1.523 . S
H1309 C1284 0.950 . S
H1310 C1286 0.950 . S
H1311 C1287 0.949 . S
H1312 C1289 0.950 . S
H1313 C1291 0.950 . S
C1314 C1315 1.349 . S
C1314 C1316 1.327 . S
C1314 H1339 0.950 . S
C1315 C1314 1.349 . S
C1315 C1331 1.349 . S
C1316 C1314 1.327 . S
C1316 C1335 1.429 . S
C1316 H1340 0.950 . S
C1317 C1334 1.574 . S
C1317 C1336 1.368 . S
C1317 H1341 0.949 . S
H1318 C1322 0.949 . S
C1319 C1320 1.349 . S
C1319 C1321 1.327 . S
C1319 H1342 0.950 . S
C1320 C1319 1.349 . S
C1320 C1332 1.349 . S
C1321 C1319 1.327 . S
C1321 C1337 1.429 . S
C1321 H1343 0.950 . S
C1322 H1318 0.949 . S
C1322 C1330 1.574 . S
C1322 C1338 1.368 . S
H1323 C1331 0.950 . S
H1324 C1329 0.950 . S
H1325 C1330 0.949 . S
H1326 C1332 0.950 . S
H1327 C1333 0.950 . S
H1328 C1334 0.949 . S
C1329 H1324 0.950 . S
C1329 C1331 1.327 . S
C1329 C1335 1.429 . S
C1330 C1322 1.574 . S
C1330 H1325 0.949 . S
C1330 C1336 1.368 . S
C1331 C1315 1.349 . S
C1331 H1323 0.950 . S
C1331 C1329 1.327 . S
C1332 C1320 1.349 . S
C1332 H1326 0.950 . S
C1332 C1333 1.327 . S
C1333 H1327 0.950 . S
C1333 C1332 1.327 . S
C1333 C1337 1.429 . S
C1334 C1317 1.574 . S
C1334 H1328 0.949 . S
C1334 C1338 1.368 . S
C1335 C1316 1.429 . S
C1335 C1329 1.429 . S
C1335 C1336 1.523 . S
C1336 C1317 1.368 . S
C1336 C1330 1.368 . S
C1336 C1335 1.523 . S
C1337 C1321 1.429 . S
C1337 C1333 1.429 . S
C1337 C1338 1.523 . S
C1338 C1322 1.368 . S
C1338 C1334 1.368 . S
C1338 C1337 1.523 . S
H1339 C1314 0.950 . S
H1340 C1316 0.950 . S
H1341 C1317 0.949 . S
H1342 C1319 0.950 . S
H1343 C1321 0.950 . S
C1344 C1345 1.349 . S
C1344 C1346 1.327 . S
C1344 H1369 0.950 . S
C1345 C1344 1.349 . S
C1345 C1361 1.349 . S
C1346 C1344 1.327 . S
C1346 C1365 1.429 . S
C1346 H1370 0.950 . S
C1347 C1364 1.574 . S
C1347 C1366 1.368 . S
C1347 H1371 0.949 . S
H1348 C1352 0.949 . S
C1349 C1350 1.349 . S
C1349 C1351 1.327 . S
C1349 H1372 0.950 . S
C1350 C1349 1.349 . S
C1350 C1362 1.349 . S
C1351 C1349 1.327 . S
C1351 C1367 1.429 . S
C1351 H1373 0.950 . S
C1352 H1348 0.949 . S
C1352 C1360 1.574 . S
C1352 C1368 1.368 . S
H1353 C1361 0.950 . S
H1354 C1359 0.950 . S
H1355 C1360 0.949 . S
H1356 C1362 0.950 1_554 S
H1357 C1363 0.966 . S
H1358 C1364 0.949 . S
C1359 H1354 0.950 . S
C1359 C1361 1.327 . S
C1359 C1365 1.429 . S
C1360 C1352 1.574 . S
C1360 H1355 0.949 . S
C1360 C1366 1.368 . S
C1361 C1345 1.349 . S
C1361 H1353 0.950 . S
C1361 C1359 1.327 . S
C1362 C1350 1.349 . S
C1362 H1356 0.950 1_556 S
C1362 C1363 1.327 . S
C1363 H1357 0.966 . S
C1363 C1362 1.327 . S
C1363 C1367 1.429 . S
C1364 C1347 1.574 . S
C1364 H1358 0.949 . S
C1364 C1368 1.368 . S
C1365 C1346 1.429 . S
C1365 C1359 1.429 . S
C1365 C1366 1.523 . S
C1366 C1347 1.368 . S
C1366 C1360 1.368 . S
C1366 C1365 1.523 . S
C1367 C1351 1.429 . S
C1367 C1363 1.429 . S
C1367 C1368 1.523 . S
C1368 C1352 1.368 . S
C1368 C1364 1.368 . S
C1368 C1367 1.523 . S
H1369 C1344 0.950 . S
H1370 C1346 0.950 . S
H1371 C1347 0.949 . S
H1372 C1349 0.950 . S
H1373 C1351 0.950 . S
C1374 C1375 1.349 . S
C1374 C1376 1.327 . S
C1374 H1399 0.950 . S
C1375 C1374 1.349 . S
C1375 C1391 1.349 . S
C1376 C1374 1.327 . S
C1376 C1395 1.429 . S
C1376 H1400 0.950 . S
C1377 C1394 1.574 . S
C1377 C1396 1.368 . S
C1377 H1401 0.949 . S
H1378 C1382 0.949 . S
C1379 C1380 1.349 . S
C1379 C1381 1.327 . S
C1379 H1402 0.950 . S
C1380 C1379 1.349 . S
C1380 C1392 1.349 . S
C1381 C1379 1.327 . S
C1381 C1397 1.429 . S
C1381 H1403 0.950 . S
C1382 H1378 0.949 . S
C1382 C1390 1.574 . S
C1382 C1398 1.368 . S
H1383 C1391 0.950 . S
H1384 C1389 0.950 . S
H1385 C1390 0.949 . S
H1386 C1392 0.950 . S
H1387 C1393 0.950 . S
H1388 C1394 0.949 . S
C1389 H1384 0.950 . S
C1389 C1391 1.327 . S
C1389 C1395 1.429 . S
C1390 C1382 1.574 . S
C1390 H1385 0.949 . S
C1390 C1396 1.368 . S
C1391 C1375 1.349 . S
C1391 H1383 0.950 . S
C1391 C1389 1.327 . S
C1392 C1380 1.349 . S
C1392 H1386 0.950 . S
C1392 C1393 1.327 . S
C1393 H1387 0.950 . S
C1393 C1392 1.327 . S
C1393 C1397 1.429 . S
C1394 C1377 1.574 . S
C1394 H1388 0.949 . S
C1394 C1398 1.368 . S
C1395 C1376 1.429 . S
C1395 C1389 1.429 . S
C1395 C1396 1.523 . S
C1396 C1377 1.368 . S
C1396 C1390 1.368 . S
C1396 C1395 1.523 . S
C1397 C1381 1.429 . S
C1397 C1393 1.429 . S
C1397 C1398 1.523 . S
C1398 C1382 1.368 . S
C1398 C1394 1.368 . S
C1398 C1397 1.523 . S
H1399 C1374 0.950 . S
H1400 C1376 0.950 . S
H1401 C1377 0.949 . S
H1402 C1379 0.950 . S
H1403 C1381 0.950 . S
C1404 C1405 1.349 . S
C1404 C1406 1.348 . S
C1404 H1429 0.950 . S
C1405 C1404 1.349 . S
C1405 C1421 1.349 . S
C1406 C1404 1.348 . S
C1406 C1425 1.418 1_655 S
C1406 H1430 0.940 1_655 S
C1407 C1424 1.574 . S
C1407 C1426 1.368 . S
C1407 H1431 0.949 . S
H1408 C1412 0.949 . S
C1409 C1410 1.349 . S
C1409 C1411 1.327 . S
C1409 H1432 0.950 . S
C1410 C1409 1.349 . S
C1410 C1422 1.349 . S
C1411 C1409 1.327 . S
C1411 C1427 1.429 . S
C1411 H1433 0.950 . S
C1412 H1408 0.949 . S
C1412 C1420 1.574 . S
C1412 C1428 1.368 . S
H1413 C1421 0.950 . S
H1414 C1419 0.962 . S
H1415 C1420 0.949 . S
H1416 C1422 0.950 . S
H1417 C1423 0.950 . S
H1418 C1424 0.949 . S
C1419 H1414 0.962 . S
C1419 C1421 1.301 1_455 S
C1419 C1425 1.443 . S
C1420 C1412 1.574 . S
C1420 H1415 0.949 . S
C1420 C1426 1.368 . S
C1421 C1405 1.349 . S
C1421 H1413 0.950 . S
C1421 C1419 1.301 1_655 S
C1422 C1410 1.349 . S
C1422 H1416 0.950 . S
C1422 C1423 1.327 . S
C1423 H1417 0.950 . S
C1423 C1422 1.327 . S
C1423 C1427 1.429 . S
C1424 C1407 1.574 . S
C1424 H1418 0.949 . S
C1424 C1428 1.368 . S
C1425 C1406 1.418 1_455 S
C1425 C1419 1.443 . S
C1425 C1426 1.523 . S
C1426 C1407 1.368 . S
C1426 C1420 1.368 . S
C1426 C1425 1.523 . S
C1427 C1411 1.429 . S
C1427 C1423 1.429 . S
C1427 C1428 1.523 . S
C1428 C1412 1.368 . S
C1428 C1424 1.368 . S
C1428 C1427 1.523 . S
H1429 C1404 0.950 . S
H1430 C1406 0.940 1_455 S
H1431 C1407 0.949 . S
H1432 C1409 0.950 . S
H1433 C1411 0.950 . S
C1434 C1435 1.349 . S
C1434 C1436 1.327 . S
C1434 H1459 0.950 . S
C1435 C1434 1.349 . S
C1435 C1451 1.349 . S
C1436 C1434 1.327 . S
C1436 C1455 1.429 . S
C1436 H1460 0.950 . S
C1437 C1454 1.574 . S
C1437 C1456 1.368 . S
C1437 H1461 0.949 . S
H1438 C1442 0.949 . S
C1439 C1440 1.349 . S
C1439 C1441 1.327 . S
C1439 H1462 0.950 . S
C1440 C1439 1.349 . S
C1440 C1452 1.349 . S
C1441 C1439 1.327 . S
C1441 C1457 1.429 . S
C1441 H1463 0.950 . S
C1442 H1438 0.949 . S
C1442 C1450 1.574 . S
C1442 C1458 1.368 . S
H1443 C1451 0.950 . S
H1444 C1449 0.950 . S
H1445 C1450 0.949 . S
H1446 C1452 0.950 . S
H1447 C1453 0.950 . S
H1448 C1454 0.949 . S
C1449 H1444 0.950 . S
C1449 C1451 1.327 . S
C1449 C1455 1.429 . S
C1450 C1442 1.574 . S
C1450 H1445 0.949 . S
C1450 C1456 1.368 . S
C1451 C1435 1.349 . S
C1451 H1443 0.950 . S
C1451 C1449 1.327 . S
C1452 C1440 1.349 . S
C1452 H1446 0.950 . S
C1452 C1453 1.327 . S
C1453 H1447 0.950 . S
C1453 C1452 1.327 . S
C1453 C1457 1.429 . S
C1454 C1437 1.574 . S
C1454 H1448 0.949 . S
C1454 C1458 1.368 . S
C1455 C1436 1.429 . S
C1455 C1449 1.429 . S
C1455 C1456 1.523 . S
C1456 C1437 1.368 . S
C1456 C1450 1.368 . S
C1456 C1455 1.523 . S
C1457 C1441 1.429 . S
C1457 C1453 1.429 . S
C1457 C1458 1.523 . S
C1458 C1442 1.368 . S
C1458 C1454 1.368 . S
C1458 C1457 1.523 . S
H1459 C1434 0.950 . S
H1460 C1436 0.950 . S
H1461 C1437 0.949 . S
H1462 C1439 0.950 . S
H1463 C1441 0.950 . S
C1464 C1465 1.349 . S
C1464 C1466 1.327 . S
C1464 H1489 0.950 . S
C1465 C1464 1.349 . S
C1465 C1481 1.349 . S
C1466 C1464 1.327 . S
C1466 C1485 1.429 . S
C1466 H1490 0.950 . S
C1467 C1484 1.574 . S
C1467 C1486 1.368 . S
C1467 H1491 0.949 . S
H1468 C1472 0.949 . S
C1469 C1470 1.349 . S
C1469 C1471 1.327 . S
C1469 H1492 0.950 . S
C1470 C1469 1.349 . S
C1470 C1482 1.349 . S
C1471 C1469 1.327 . S
C1471 C1487 1.429 . S
C1471 H1493 0.950 . S
C1472 H1468 0.949 . S
C1472 C1480 1.574 . S
C1472 C1488 1.368 . S
H1473 C1481 0.950 . S
H1474 C1479 0.950 . S
H1475 C1480 0.949 . S
H1476 C1482 0.950 . S
H1477 C1483 0.950 . S
H1478 C1484 0.949 . S
C1479 H1474 0.950 . S
C1479 C1481 1.327 . S
C1479 C1485 1.429 . S
C1480 C1472 1.574 . S
C1480 H1475 0.949 . S
C1480 C1486 1.368 . S
C1481 C1465 1.349 . S
C1481 H1473 0.950 . S
C1481 C1479 1.327 . S
C1482 C1470 1.349 . S
C1482 H1476 0.950 . S
C1482 C1483 1.327 . S
C1483 H1477 0.950 . S
C1483 C1482 1.327 . S
C1483 C1487 1.429 . S
C1484 C1467 1.574 . S
C1484 H1478 0.949 . S
C1484 C1488 1.368 . S
C1485 C1466 1.429 . S
C1485 C1479 1.429 . S
C1485 C1486 1.523 . S
C1486 C1467 1.368 . S
C1486 C1480 1.368 . S
C1486 C1485 1.523 . S
C1487 C1471 1.429 . S
C1487 C1483 1.429 . S
C1487 C1488 1.523 . S
C1488 C1472 1.368 . S
C1488 C1484 1.368 . S
C1488 C1487 1.523 . S
H1489 C1464 0.950 . S
H1490 C1466 0.950 . S
H1491 C1467 0.949 . S
H1492 C1469 0.950 . S
H1493 C1471 0.950 . S
C1494 C1495 1.349 . S
C1494 C1496 1.327 . S
C1494 H1519 0.950 . S
C1495 C1494 1.349 . S
C1495 C1511 1.349 . S
C1496 C1494 1.327 . S
C1496 C1515 1.429 . S
C1496 H1520 0.950 . S
C1497 C1514 1.574 . S
C1497 C1516 1.368 . S
C1497 H1521 0.949 . S
H1498 C1502 0.949 . S
C1499 C1500 1.349 . S
C1499 C1501 1.327 . S
C1499 H1522 0.950 . S
C1500 C1499 1.349 . S
C1500 C1512 1.349 . S
C1501 C1499 1.327 . S
C1501 C1517 1.429 . S
C1501 H1523 0.950 . S
C1502 H1498 0.949 . S
C1502 C1510 1.574 . S
C1502 C1518 1.368 . S
H1503 C1511 0.950 . S
H1504 C1509 0.950 . S
H1505 C1510 0.949 . S
H1506 C1512 0.950 . S
H1507 C1513 0.950 . S
H1508 C1514 0.949 . S
C1509 H1504 0.950 . S
C1509 C1511 1.327 . S
C1509 C1515 1.429 . S
C1510 C1502 1.574 . S
C1510 H1505 0.949 . S
C1510 C1516 1.368 . S
C1511 C1495 1.349 . S
C1511 H1503 0.950 . S
C1511 C1509 1.327 . S
C1512 C1500 1.349 . S
C1512 H1506 0.950 . S
C1512 C1513 1.327 . S
C1513 H1507 0.950 . S
C1513 C1512 1.327 . S
C1513 C1517 1.429 . S
C1514 C1497 1.574 . S
C1514 H1508 0.949 . S
C1514 C1518 1.368 . S
C1515 C1496 1.429 . S
C1515 C1509 1.429 . S
C1515 C1516 1.523 . S
C1516 C1497 1.368 . S
C1516 C1510 1.368 . S
C1516 C1515 1.523 . S
C1517 C1501 1.429 . S
C1517 C1513 1.429 . S
C1517 C1518 1.523 . S
C1518 C1502 1.368 . S
C1518 C1514 1.368 . S
C1518 C1517 1.523 . S
H1519 C1494 0.950 . S
H1520 C1496 0.950 . S
H1521 C1497 0.949 . S
H1522 C1499 0.950 . S
H1523 C1501 0.950 . S
C1524 C1525 1.349 . S
C1524 C1526 1.327 . S
C1524 H1549 0.950 . S
C1525 C1524 1.349 . S
C1525 C1541 1.349 . S
C1526 C1524 1.327 . S
C1526 C1545 1.429 1_655 S
C1526 H1550 0.950 . S
C1527 C1544 1.574 . S
C1527 C1546 1.368 . S
C1527 H1551 0.949 . S
H1528 C1532 0.949 . S
C1529 C1530 1.349 . S
C1529 C1531 1.327 . S
C1529 H1552 0.950 . S
C1530 C1529 1.349 . S
C1530 C1542 1.349 . S
C1531 C1529 1.327 . S
C1531 C1547 1.429 . S
C1531 H1553 0.950 . S
C1532 H1528 0.949 . S
C1532 C1540 1.574 . S
C1532 C1548 1.368 . S
H1533 C1541 0.950 . S
H1534 C1539 0.950 . S
H1535 C1540 0.949 . S
H1536 C1542 0.950 . S
H1537 C1543 0.950 . S
H1538 C1544 0.949 . S
C1539 H1534 0.950 . S
C1539 C1541 1.327 1_455 S
C1539 C1545 1.429 . S
C1540 C1532 1.574 . S
C1540 H1535 0.949 . S
C1540 C1546 1.368 . S
C1541 C1525 1.349 . S
C1541 H1533 0.950 . S
C1541 C1539 1.327 1_655 S
C1542 C1530 1.349 . S
C1542 H1536 0.950 . S
C1542 C1543 1.327 . S
C1543 H1537 0.950 . S
C1543 C1542 1.327 . S
C1543 C1547 1.429 . S
C1544 C1527 1.574 . S
C1544 H1538 0.949 . S
C1544 C1548 1.368 . S
C1545 C1526 1.429 1_455 S
C1545 C1539 1.429 . S
C1545 C1546 1.523 . S
C1546 C1527 1.368 . S
C1546 C1540 1.368 . S
C1546 C1545 1.523 . S
C1547 C1531 1.429 . S
C1547 C1543 1.429 . S
C1547 C1548 1.523 . S
C1548 C1532 1.368 . S
C1548 C1544 1.368 . S
C1548 C1547 1.523 . S
H1549 C1524 0.950 . S
H1550 C1526 0.950 . S
H1551 C1527 0.949 . S
H1552 C1529 0.950 . S
H1553 C1531 0.950 . S
C1554 C1555 1.349 . S
C1554 C1556 1.327 . S
C1554 H1579 0.950 . S
C1555 C1554 1.349 . S
C1555 C1571 1.349 . S
C1556 C1554 1.327 . S
C1556 C1575 1.429 . S
C1556 H1580 0.950 . S
C1557 C1574 1.574 . S
C1557 C1576 1.368 . S
C1557 H1581 0.949 . S
H1558 C1562 0.949 . S
C1559 C1560 1.349 . S
C1559 C1561 1.327 . S
C1559 H1582 0.950 . S
C1560 C1559 1.349 . S
C1560 C1572 1.349 . S
C1561 C1559 1.327 . S
C1561 C1577 1.429 . S
C1561 H1583 0.950 . S
C1562 H1558 0.949 . S
C1562 C1570 1.574 . S
C1562 C1578 1.368 . S
H1563 C1571 0.950 . S
H1564 C1569 0.950 . S
H1565 C1570 0.949 . S
H1566 C1572 0.950 . S
H1567 C1573 0.950 . S
H1568 C1574 0.949 . S
C1569 H1564 0.950 . S
C1569 C1571 1.327 . S
C1569 C1575 1.429 . S
C1570 C1562 1.574 . S
C1570 H1565 0.949 . S
C1570 C1576 1.368 . S
C1571 C1555 1.349 . S
C1571 H1563 0.950 . S
C1571 C1569 1.327 . S
C1572 C1560 1.349 . S
C1572 H1566 0.950 . S
C1572 C1573 1.327 . S
C1573 H1567 0.950 . S
C1573 C1572 1.327 . S
C1573 C1577 1.429 . S
C1574 C1557 1.574 . S
C1574 H1568 0.949 . S
C1574 C1578 1.368 . S
C1575 C1556 1.429 . S
C1575 C1569 1.429 . S
C1575 C1576 1.523 . S
C1576 C1557 1.368 . S
C1576 C1570 1.368 . S
C1576 C1575 1.523 . S
C1577 C1561 1.429 . S
C1577 C1573 1.429 . S
C1577 C1578 1.523 . S
C1578 C1562 1.368 . S
C1578 C1574 1.368 . S
C1578 C1577 1.523 . S
H1579 C1554 0.950 . S
H1580 C1556 0.950 . S
H1581 C1557 0.949 . S
H1582 C1559 0.950 . S
H1583 C1561 0.950 . S
C1584 C1585 1.349 . S
C1584 C1586 1.327 . S
C1584 H1609 0.950 . S
C1585 C1584 1.349 . S
C1585 C1601 1.349 . S
C1586 C1584 1.327 . S
C1586 C1605 1.429 . S
C1586 H1610 0.950 . S
C1587 C1604 1.574 . S
C1587 C1606 1.368 . S
C1587 H1611 0.949 . S
H1588 C1592 0.949 . S
C1589 C1590 1.349 . S
C1589 C1591 1.327 . S
C1589 H1612 0.950 . S
C1590 C1589 1.349 . S
C1590 C1602 1.349 . S
C1591 C1589 1.327 . S
C1591 C1607 1.429 . S
C1591 H1613 0.950 . S
C1592 H1588 0.949 . S
C1592 C1600 1.574 . S
C1592 C1608 1.368 . S
H1593 C1601 0.950 . S
H1594 C1599 0.950 . S
H1595 C1600 0.949 . S
H1596 C1602 0.950 . S
H1597 C1603 0.950 . S
H1598 C1604 0.949 . S
C1599 H1594 0.950 . S
C1599 C1601 1.327 . S
C1599 C1605 1.429 . S
C1600 C1592 1.574 . S
C1600 H1595 0.949 . S
C1600 C1606 1.368 . S
C1601 C1585 1.349 . S
C1601 H1593 0.950 . S
C1601 C1599 1.327 . S
C1602 C1590 1.349 . S
C1602 H1596 0.950 . S
C1602 C1603 1.327 . S
C1603 H1597 0.950 . S
C1603 C1602 1.327 . S
C1603 C1607 1.429 . S
C1604 C1587 1.574 . S
C1604 H1598 0.949 . S
C1604 C1608 1.368 . S
C1605 C1586 1.429 . S
C1605 C1599 1.429 . S
C1605 C1606 1.523 . S
C1606 C1587 1.368 . S
C1606 C1600 1.368 . S
C1606 C1605 1.523 . S
C1607 C1591 1.429 . S
C1607 C1603 1.429 . S
C1607 C1608 1.523 . S
C1608 C1592 1.368 . S
C1608 C1604 1.368 . S
C1608 C1607 1.523 . S
H1609 C1584 0.950 . S
H1610 C1586 0.950 . S
H1611 C1587 0.949 . S
H1612 C1589 0.950 . S
H1613 C1591 0.950 . S
C1614 C1615 1.349 . S
C1614 C1616 1.327 1_565 S
C1614 H1639 0.950 . S
C1615 C1614 1.349 . S
C1615 C1631 1.349 . S
C1616 C1614 1.327 1_545 S
C1616 C1635 1.429 . S
C1616 H1640 0.950 . S
C1617 C1634 1.574 . S
C1617 C1636 1.368 . S
C1617 H1641 0.949 . S
H1618 C1622 0.949 . S
C1619 C1620 1.349 . S
C1619 C1621 1.327 . S
C1619 H1642 0.950 . S
C1620 C1619 1.349 . S
C1620 C1632 1.349 . S
C1621 C1619 1.327 . S
C1621 C1637 1.429 . S
C1621 H1643 0.950 . S
C1622 H1618 0.949 . S
C1622 C1630 1.574 . S
C1622 C1638 1.368 . S
H1623 C1631 0.950 . S
H1624 C1629 0.950 1_545 S
H1625 C1630 0.949 . S
H1626 C1632 0.950 . S
H1627 C1633 0.950 . S
H1628 C1634 0.949 . S
C1629 H1624 0.950 1_565 S
C1629 C1631 1.327 . S
C1629 C1635 1.429 1_565 S
C1630 C1622 1.574 . S
C1630 H1625 0.949 . S
C1630 C1636 1.368 . S
C1631 C1615 1.349 . S
C1631 H1623 0.950 . S
C1631 C1629 1.327 . S
C1632 C1620 1.349 . S
C1632 H1626 0.950 . S
C1632 C1633 1.327 . S
C1633 H1627 0.950 . S
C1633 C1632 1.327 . S
C1633 C1637 1.429 . S
C1634 C1617 1.574 . S
C1634 H1628 0.949 . S
C1634 C1638 1.368 . S
C1635 C1616 1.429 . S
C1635 C1629 1.429 1_545 S
C1635 C1636 1.523 . S
C1636 C1617 1.368 . S
C1636 C1630 1.368 . S
C1636 C1635 1.523 . S
C1637 C1621 1.429 . S
C1637 C1633 1.429 . S
C1637 C1638 1.523 . S
C1638 C1622 1.368 . S
C1638 C1634 1.368 . S
C1638 C1637 1.523 . S
H1639 C1614 0.950 . S
H1640 C1616 0.950 . S
H1641 C1617 0.949 . S
H1642 C1619 0.950 . S
H1643 C1621 0.950 . S
C1644 C1645 1.349 . S
C1644 C1646 1.327 . S
C1644 H1669 0.950 . S
C1645 C1644 1.349 . S
C1645 C1661 1.349 . S
C1646 C1644 1.327 . S
C1646 C1665 1.429 . S
C1646 H1670 0.950 . S
C1647 C1664 1.574 . S
C1647 C1666 1.368 . S
C1647 H1671 0.949 . S
H1648 C1652 0.949 . S
C1649 C1650 1.349 . S
C1649 C1651 1.327 . S
C1649 H1672 0.950 . S
C1650 C1649 1.349 . S
C1650 C1662 1.349 . S
C1651 C1649 1.327 . S
C1651 C1667 1.429 . S
C1651 H1673 0.950 . S
C1652 H1648 0.949 . S
C1652 C1660 1.574 . S
C1652 C1668 1.368 . S
H1653 C1661 0.950 . S
H1654 C1659 0.950 . S
H1655 C1660 0.949 . S
H1656 C1662 0.950 . S
H1657 C1663 0.950 . S
H1658 C1664 0.949 . S
C1659 H1654 0.950 . S
C1659 C1661 1.327 . S
C1659 C1665 1.429 . S
C1660 C1652 1.574 . S
C1660 H1655 0.949 . S
C1660 C1666 1.368 . S
C1661 C1645 1.349 . S
C1661 H1653 0.950 . S
C1661 C1659 1.327 . S
C1662 C1650 1.349 . S
C1662 H1656 0.950 . S
C1662 C1663 1.327 . S
C1663 H1657 0.950 . S
C1663 C1662 1.327 . S
C1663 C1667 1.429 . S
C1664 C1647 1.574 . S
C1664 H1658 0.949 . S
C1664 C1668 1.368 . S
C1665 C1646 1.429 . S
C1665 C1659 1.429 . S
C1665 C1666 1.523 . S
C1666 C1647 1.368 . S
C1666 C1660 1.368 . S
C1666 C1665 1.523 . S
C1667 C1651 1.429 . S
C1667 C1663 1.429 . S
C1667 C1668 1.523 . S
C1668 C1652 1.368 . S
C1668 C1664 1.368 . S
C1668 C1667 1.523 . S
H1669 C1644 0.950 . S
H1670 C1646 0.950 . S
H1671 C1647 0.949 . S
H1672 C1649 0.950 . S
H1673 C1651 0.950 . S
C1674 C1675 1.349 . S
C1674 C1676 1.327 . S
C1674 H1699 0.950 . S
C1675 C1674 1.349 . S
C1675 C1691 1.349 . S
C1676 C1674 1.327 . S
C1676 C1695 1.429 . S
C1676 H1700 0.950 . S
C1677 C1694 1.574 . S
C1677 C1696 1.368 . S
C1677 H1701 0.949 . S
H1678 C1682 0.949 . S
C1679 C1680 1.349 . S
C1679 C1681 1.327 . S
C1679 H1702 0.950 . S
C1680 C1679 1.349 . S
C1680 C1692 1.349 . S
C1681 C1679 1.327 . S
C1681 C1697 1.429 . S
C1681 H1703 0.950 . S
C1682 H1678 0.949 . S
C1682 C1690 1.574 . S
C1682 C1698 1.368 . S
H1683 C1691 0.950 1_554 S
H1684 C1689 0.950 . S
H1685 C1690 0.949 . S
H1686 C1692 0.950 . S
H1687 C1693 0.950 . S
H1688 C1694 0.949 . S
C1689 H1684 0.950 . S
C1689 C1691 1.327 . S
C1689 C1695 1.429 . S
C1690 C1682 1.574 . S
C1690 H1685 0.949 . S
C1690 C1696 1.368 . S
C1691 C1675 1.349 . S
C1691 H1683 0.950 1_556 S
C1691 C1689 1.327 . S
C1692 C1680 1.349 . S
C1692 H1686 0.950 . S
C1692 C1693 1.327 . S
C1693 H1687 0.950 . S
C1693 C1692 1.327 . S
C1693 C1697 1.429 . S
C1694 C1677 1.574 . S
C1694 H1688 0.949 . S
C1694 C1698 1.368 . S
C1695 C1676 1.429 . S
C1695 C1689 1.429 . S
C1695 C1696 1.523 1_545 S
C1696 C1677 1.368 . S
C1696 C1690 1.368 . S
C1696 C1695 1.523 1_565 S
C1697 C1681 1.429 . S
C1697 C1693 1.429 . S
C1697 C1698 1.523 . S
C1698 C1682 1.368 . S
C1698 C1694 1.368 . S
C1698 C1697 1.523 . S
H1699 C1674 0.950 . S
H1700 C1676 0.950 . S
H1701 C1677 0.949 . S
H1702 C1679 0.950 . S
H1703 C1681 0.950 . S
C1704 C1705 1.349 . S
C1704 C1706 1.327 . S
C1704 H1729 0.950 . S
C1705 C1704 1.349 . S
C1705 C1721 1.349 . S
C1706 C1704 1.327 . S
C1706 C1725 1.429 . S
C1706 H1730 0.950 . S
C1707 C1724 1.574 . S
C1707 C1726 1.368 . S
C1707 H1731 0.949 . S
H1708 C1712 0.949 . S
C1709 C1710 1.349 . S
C1709 C1711 1.327 . S
C1709 H1732 0.950 . S
C1710 C1709 1.349 . S
C1710 C1722 1.349 . S
C1711 C1709 1.327 . S
C1711 C1727 1.429 . S
C1711 H1733 0.950 . S
C1712 H1708 0.949 . S
C1712 C1720 1.574 . S
C1712 C1728 1.368 . S
H1713 C1721 0.950 . S
H1714 C1719 0.950 . S
H1715 C1720 0.949 . S
H1716 C1722 0.950 . S
H1717 C1723 0.950 . S
H1718 C1724 0.949 . S
C1719 H1714 0.950 . S
C1719 C1721 1.327 . S
C1719 C1725 1.429 . S
C1720 C1712 1.574 . S
C1720 H1715 0.949 . S
C1720 C1726 1.368 . S
C1721 C1705 1.349 . S
C1721 H1713 0.950 . S
C1721 C1719 1.327 . S
C1722 C1710 1.349 . S
C1722 H1716 0.950 . S
C1722 C1723 1.327 . S
C1723 H1717 0.950 . S
C1723 C1722 1.327 . S
C1723 C1727 1.429 . S
C1724 C1707 1.574 . S
C1724 H1718 0.949 . S
C1724 C1728 1.368 . S
C1725 C1706 1.429 . S
C1725 C1719 1.429 . S
C1725 C1726 1.523 . S
C1726 C1707 1.368 . S
C1726 C1720 1.368 . S
C1726 C1725 1.523 . S
C1727 C1711 1.429 . S
C1727 C1723 1.429 . S
C1727 C1728 1.523 . S
C1728 C1712 1.368 . S
C1728 C1724 1.368 . S
C1728 C1727 1.523 . S
H1729 C1704 0.950 . S
H1730 C1706 0.950 . S
H1731 C1707 0.949 . S
H1732 C1709 0.950 . S
H1733 C1711 0.950 . S
C1734 C1735 1.349 . S
C1734 C1736 1.327 . S
C1734 H1759 0.950 . S
C1735 C1734 1.349 . S
C1735 C1751 1.349 . S
C1736 C1734 1.327 . S
C1736 C1755 1.429 . S
C1736 H1760 0.950 . S
C1737 C1754 1.574 . S
C1737 C1756 1.368 . S
C1737 H1761 0.949 . S
H1738 C1742 0.949 . S
C1739 C1740 1.349 . S
C1739 C1741 1.327 . S
C1739 H1762 0.950 . S
C1740 C1739 1.349 . S
C1740 C1752 1.349 . S
C1741 C1739 1.327 . S
C1741 C1757 1.429 . S
C1741 H1763 0.950 . S
C1742 H1738 0.949 . S
C1742 C1750 1.574 . S
C1742 C1758 1.368 . S
H1743 C1751 0.950 . S
H1744 C1749 0.950 . S
H1745 C1750 0.949 . S
H1746 C1752 0.950 . S
H1747 C1753 0.950 . S
H1748 C1754 0.949 . S
C1749 H1744 0.950 . S
C1749 C1751 1.327 . S
C1749 C1755 1.429 . S
C1750 C1742 1.574 . S
C1750 H1745 0.949 . S
C1750 C1756 1.368 . S
C1751 C1735 1.349 . S
C1751 H1743 0.950 . S
C1751 C1749 1.327 . S
C1752 C1740 1.349 . S
C1752 H1746 0.950 . S
C1752 C1753 1.327 . S
C1753 H1747 0.950 . S
C1753 C1752 1.327 . S
C1753 C1757 1.429 . S
C1754 C1737 1.574 . S
C1754 H1748 0.949 . S
C1754 C1758 1.368 . S
C1755 C1736 1.429 . S
C1755 C1749 1.429 . S
C1755 C1756 1.523 . S
C1756 C1737 1.368 . S
C1756 C1750 1.368 . S
C1756 C1755 1.523 . S
C1757 C1741 1.429 . S
C1757 C1753 1.429 . S
C1757 C1758 1.523 . S
C1758 C1742 1.368 . S
C1758 C1754 1.368 . S
C1758 C1757 1.523 . S
H1759 C1734 0.950 . S
H1760 C1736 0.950 . S
H1761 C1737 0.949 . S
H1762 C1739 0.950 . S
H1763 C1741 0.950 . S
C1764 C1765 1.349 . S
C1764 C1766 1.327 . S
C1764 H1789 0.950 1_565 S
C1765 C1764 1.349 . S
C1765 C1781 1.349 . S
C1766 C1764 1.327 . S
C1766 C1785 1.429 . S
C1766 H1790 0.950 . S
C1767 C1784 1.574 . S
C1767 C1786 1.368 . S
C1767 H1791 0.949 . S
H1768 C1772 0.949 . S
C1769 C1770 1.349 . S
C1769 C1771 1.327 . S
C1769 H1792 0.950 . S
C1770 C1769 1.349 . S
C1770 C1782 1.349 . S
C1771 C1769 1.327 . S
C1771 C1787 1.429 . S
C1771 H1793 0.950 . S
C1772 H1768 0.949 . S
C1772 C1780 1.574 . S
C1772 C1788 1.368 . S
H1773 C1781 0.950 . S
H1774 C1779 0.950 . S
H1775 C1780 0.949 . S
H1776 C1782 0.950 . S
H1777 C1783 0.950 . S
H1778 C1784 0.949 . S
C1779 H1774 0.950 . S
C1779 C1781 1.327 . S
C1779 C1785 1.429 . S
C1780 C1772 1.574 . S
C1780 H1775 0.949 . S
C1780 C1786 1.368 . S
C1781 C1765 1.349 . S
C1781 H1773 0.950 . S
C1781 C1779 1.327 . S
C1782 C1770 1.349 . S
C1782 H1776 0.950 . S
C1782 C1783 1.327 . S
C1783 H1777 0.950 . S
C1783 C1782 1.327 . S
C1783 C1787 1.429 . S
C1784 C1767 1.574 . S
C1784 H1778 0.949 . S
C1784 C1788 1.368 . S
C1785 C1766 1.429 . S
C1785 C1779 1.429 . S
C1785 C1786 1.523 . S
C1786 C1767 1.368 . S
C1786 C1780 1.368 . S
C1786 C1785 1.523 . S
C1787 C1771 1.429 . S
C1787 C1783 1.429 . S
C1787 C1788 1.523 . S
C1788 C1772 1.368 . S
C1788 C1784 1.368 . S
C1788 C1787 1.523 . S
H1789 C1764 0.950 1_545 S
H1790 C1766 0.950 . S
H1791 C1767 0.949 . S
H1792 C1769 0.950 . S
H1793 C1771 0.950 . S
C1794 C1795 1.349 . S
C1794 C1796 1.327 . S
C1794 H1819 0.950 . S
C1795 C1794 1.349 . S
C1795 C1811 1.349 . S
C1796 C1794 1.327 . S
C1796 C1815 1.429 . S
C1796 H1820 0.950 . S
C1797 C1814 1.574 . S
C1797 C1816 1.368 . S
C1797 H1821 0.949 . S
H1798 C1802 0.949 . S
C1799 C1800 1.349 . S
C1799 C1801 1.327 . S
C1799 H1822 0.950 . S
C1800 C1799 1.349 . S
C1800 C1812 1.349 . S
C1801 C1799 1.327 . S
C1801 C1817 1.429 . S
C1801 H1823 0.950 . S
C1802 H1798 0.949 . S
C1802 C1810 1.574 . S
C1802 C1818 1.368 . S
H1803 C1811 0.950 . S
H1804 C1809 0.950 . S
H1805 C1810 0.949 . S
H1806 C1812 0.950 . S
H1807 C1813 0.950 . S
H1808 C1814 0.949 . S
C1809 H1804 0.950 . S
C1809 C1811 1.327 . S
C1809 C1815 1.429 . S
C1810 C1802 1.574 . S
C1810 H1805 0.949 . S
C1810 C1816 1.368 . S
C1811 C1795 1.349 . S
C1811 H1803 0.950 . S
C1811 C1809 1.327 . S
C1812 C1800 1.349 . S
C1812 H1806 0.950 . S
C1812 C1813 1.327 . S
C1813 H1807 0.950 . S
C1813 C1812 1.327 . S
C1813 C1817 1.429 . S
C1814 C1797 1.574 . S
C1814 H1808 0.949 . S
C1814 C1818 1.368 . S
C1815 C1796 1.429 . S
C1815 C1809 1.429 . S
C1815 C1816 1.523 . S
C1816 C1797 1.368 . S
C1816 C1810 1.368 . S
C1816 C1815 1.523 . S
C1817 C1801 1.429 . S
C1817 C1813 1.429 . S
C1817 C1818 1.523 . S
C1818 C1802 1.368 . S
C1818 C1814 1.368 . S
C1818 C1817 1.523 . S
H1819 C1794 0.950 . S
H1820 C1796 0.950 . S
H1821 C1797 0.949 . S
H1822 C1799 0.950 . S
H1823 C1801 0.950 . S
C390 C373 1.184 . S
C385 C8 1.235 . S
C415 C23 1.005 . S
C420 C326 0.937 . S
C445 C35 1.250 . S
C450 C337 1.192 . S
C480 C362 0.885 . S
C475 C45 0.972 . S
C505 C22 1.229 . S
C510 C380 1.163 . S
C540 C319 0.876 . S
C535 C31 0.931 . S
C570 C344 1.154 . S
C565 C49 1.239 . S
C600 C355 0.911 . S
C595 C9 0.962 . S
C625 C65 1.214 . S
C630 C356 1.210 . S
C660 C382 0.909 . S
C655 C73 0.985 . S
C690 C320 1.238 . S
C685 C93 1.238 . S
C720 C346 0.863 . S
C715 C101 0.939 . S
C745 C59 1.204 . S
C750 C328 1.154 . S
C775 C79 0.976 . S
C780 C338 0.922 . S
C805 C87 1.196 . S
C810 C364 1.140 . S
C840 C374 1.005 . S
C835 C107 1.056 . S
C870 C211 1.258 . S
C865 C106 1.309 . S
C900 C194 1.147 . S
C895 C119 1.208 . S
C930 C220 0.951 . S
C925 C134 1.018 . S
C960 C238 1.121 . S
C955 C147 1.186 . S
C985 C64 0.998 . S
C990 C212 0.932 . S
C1015 C78 1.268 . S
C1020 C182 1.203 . S
C1045 C133 1.000 . S
C1050 C236 0.879 . S
C1075 C161 0.976 . S
C1080 C193 0.878 . S
C1110 C247 1.185 . S
C1105 C36 1.235 . S
C1140 C272 0.937 . S
C1135 C51 1.005 . S
C1165 C7 1.250 . S
C1170 C283 1.193 . S
C1195 C17 0.973 . S
C1200 C308 0.885 . S
C1230 C254 1.163 . S
C1225 C50 1.229 . S
C1260 C265 0.876 . S
C1255 C3 0.931 . S
C1285 C21 1.239 . S
C1290 C290 1.154 . S
C1320 C301 0.911 . S
C1315 C37 0.962 . S
C1345 C163 1.214 . S
C1350 C302 1.209 . S
C1375 C115 0.985 . S
C1380 C256 0.908 . S
C1410 C266 1.238 . S
C1405 C135 1.238 . S
C1435 C143 0.939 . S
C1440 C292 0.863 . S
C1470 C274 1.154 . S
C1465 C157 1.204 . S
C1495 C121 0.976 . S
C1500 C284 0.922 . S
C1530 C310 1.140 . S
C1525 C129 1.196 . S
C1560 C248 1.005 . S
C1555 C149 1.057 . S
C1590 C175 1.258 . S
C1585 C148 1.309 . S
C1620 C230 1.148 . S
C1615 C77 1.208 . S
C1645 C92 1.018 . S
C1650 C184 0.951 . S
C1680 C202 1.121 . S
C1675 C105 1.186 . S
C1710 C176 0.932 . S
C1705 C162 0.998 . S
C1735 C120 1.268 . S
C1740 C218 1.203 . S
C1765 C91 1.000 . S
C1770 C200 0.879 . S
C1795 C63 0.976 . S
C1800 C229 0.878 . S
