# Generated by pormake.
# Topology dag, (6,3)-cn, num edge types: 1
# Building blocks:
#     Node 0, Type 0, BuildingBlock: IZENUY_clean_sbu_0, # of connection points: 6
#     Node 1, Type 0, BuildingBlock: IZENUY_clean_sbu_0, # of connection points: 6
#     Node 2, Type 0, BuildingBlock: IZENUY_clean_sbu_0, # of connection points: 6
#     Node 3, Type 0, BuildingBlock: IZENUY_clean_sbu_0, # of connection points: 6
#     Node 4, Type 1, BuildingBlock: CUQRIR_clean_linker_1, # of connection points: 3
#     Node 5, Type 1, BuildingBlock: CUQRIR_clean_linker_1, # of connection points: 3
#     Node 6, Type 1, BuildingBlock: CUQRIR_clean_linker_1, # of connection points: 3
#     Node 7, Type 1, BuildingBlock: CUQRIR_clean_linker_1, # of connection points: 3
#     Node 8, Type 1, BuildingBlock: CUQRIR_clean_linker_1, # of connection points: 3
#     Node 9, Type 1, BuildingBlock: CUQRIR_clean_linker_1, # of connection points: 3
#     Node 10, Type 1, BuildingBlock: CUQRIR_clean_linker_1, # of connection points: 3
#     Node 11, Type 1, BuildingBlock: CUQRIR_clean_linker_1, # of connection points: 3
#     Edge 12, Type (0, 1), BuildingBlock: MIFKUJ_clean_linker_0, # of connection points: 2
#     Edge 13, Type (0, 1), BuildingBlock: MIFKUJ_clean_linker_0, # of connection points: 2
#     Edge 14, Type (0, 1), BuildingBlock: MIFKUJ_clean_linker_0, # of connection points: 2
#     Edge 15, Type (0, 1), BuildingBlock: MIFKUJ_clean_linker_0, # of connection points: 2
#     Edge 16, Type (0, 1), BuildingBlock: MIFKUJ_clean_linker_0, # of connection points: 2
#     Edge 17, Type (0, 1), BuildingBlock: MIFKUJ_clean_linker_0, # of connection points: 2
#     Edge 18, Type (0, 1), BuildingBlock: MIFKUJ_clean_linker_0, # of connection points: 2
#     Edge 19, Type (0, 1), BuildingBlock: MIFKUJ_clean_linker_0, # of connection points: 2
#     Edge 20, Type (0, 1), BuildingBlock: MIFKUJ_clean_linker_0, # of connection points: 2
#     Edge 21, Type (0, 1), BuildingBlock: MIFKUJ_clean_linker_0, # of connection points: 2
#     Edge 22, Type (0, 1), BuildingBlock: MIFKUJ_clean_linker_0, # of connection points: 2
#     Edge 23, Type (0, 1), BuildingBlock: MIFKUJ_clean_linker_0, # of connection points: 2
#     Edge 24, Type (0, 1), BuildingBlock: MIFKUJ_clean_linker_0, # of connection points: 2
#     Edge 25, Type (0, 1), BuildingBlock: MIFKUJ_clean_linker_0, # of connection points: 2
#     Edge 26, Type (0, 1), BuildingBlock: MIFKUJ_clean_linker_0, # of connection points: 2
#     Edge 27, Type (0, 1), BuildingBlock: MIFKUJ_clean_linker_0, # of connection points: 2
#     Edge 28, Type (0, 1), BuildingBlock: MIFKUJ_clean_linker_0, # of connection points: 2
#     Edge 29, Type (0, 1), BuildingBlock: MIFKUJ_clean_linker_0, # of connection points: 2
#     Edge 30, Type (0, 1), BuildingBlock: MIFKUJ_clean_linker_0, # of connection points: 2
#     Edge 31, Type (0, 1), BuildingBlock: MIFKUJ_clean_linker_0, # of connection points: 2
#     Edge 32, Type (0, 1), BuildingBlock: MIFKUJ_clean_linker_0, # of connection points: 2
#     Edge 33, Type (0, 1), BuildingBlock: MIFKUJ_clean_linker_0, # of connection points: 2
#     Edge 34, Type (0, 1), BuildingBlock: MIFKUJ_clean_linker_0, # of connection points: 2
#     Edge 35, Type (0, 1), BuildingBlock: MIFKUJ_clean_linker_0, # of connection points: 2
# Relax obj value: 0.082
# Max RMSD: 0.074
# Mean RMSD: 0.068
data_MOF--net-dag--node1-IZENUY_clean_sbu_0--node2-CUQRIR_clean_linker_1--edge1-MIFKUJ_clean_linker_0
_symmetry_space_group_name_H-M    P1
_symmetry_Int_Tables_number       1
_symmetry_cell_setting            triclinic
loop_
_symmetry_equiv_pos_as_xyz
'x, y, z'
_cell_length_a     48.790946
_cell_length_b     49.390081
_cell_length_c     44.074169
_cell_angle_alpha  92.280852
_cell_angle_beta   89.875664
_cell_angle_gamma 89.896607
loop_
_atom_site_label
_atom_site_type_symbol
_atom_site_fract_x
_atom_site_fract_y
_atom_site_fract_z
_atom_type_partial_charge
Fe0 Fe 0.15416 0.88888 0.03952 0.0
Fe1 Fe 0.09337 0.90286 0.03075 0.0
O2 O 0.11962 0.87841 0.0346 0.0
Fe3 Fe 0.11144 0.84345 0.03346 0.0
O4 O 0.12502 0.83952 0.0713 0.0
O5 O 0.1638 0.86057 0.06312 0.0
O6 O 0.1459 0.90806 0.07433 0.0
C7 C 0.12751 0.92603 0.07664 0.0
C8 C 0.16151 0.84522 0.00052 0.0
O9 O 0.10948 0.92832 0.05628 0.0
C10 C 0.07814 0.86077 0.98842 0.0
O11 O 0.15091 0.91908 0.01692 0.0
O12 O 0.10961 0.91629 0.99743 0.0
O13 O 0.14389 0.83253 0.01558 0.0
O14 O 0.16474 0.87041 0.005 0.0
C15 C 0.06725 0.86741 0.06695 0.0
O16 O 0.07237 0.88159 0.00489 0.0
O17 O 0.0973 0.84506 0.99547 0.0
C18 C 0.13374 0.92536 0.99689 0.0
O19 O 0.07522 0.89136 0.06366 0.0
O20 O 0.07753 0.84789 0.05123 0.0
C21 C 0.14942 0.84492 0.07869 0.0
Fe22 Fe 0.65791 0.61397 0.5041 0.0
Fe23 Fe 0.61153 0.65508 0.51687 0.0
O24 O 0.62324 0.62109 0.51342 0.0
Fe25 Fe 0.60025 0.59402 0.519 0.0
O26 O 0.62041 0.58221 0.55024 0.0
O27 O 0.65978 0.58308 0.52609 0.0
O28 O 0.66997 0.63249 0.53764 0.0
C29 C 0.66438 0.65698 0.54417 0.0
C30 C 0.63272 0.57461 0.4694 0.0
O31 O 0.64401 0.66854 0.53233 0.0
C32 C 0.56816 0.62753 0.48616 0.0
O33 O 0.66253 0.64354 0.48074 0.0
O34 O 0.62148 0.66154 0.47812 0.0
O35 O 0.61715 0.57028 0.4917 0.0
O36 O 0.6481 0.59508 0.46968 0.0
C37 C 0.58427 0.63322 0.56425 0.0
O38 O 0.5771 0.64752 0.50209 0.0
O39 O 0.57864 0.60429 0.4881 0.0
C40 C 0.64539 0.65839 0.46771 0.0
O41 O 0.60056 0.6512 0.55577 0.0
O42 O 0.57916 0.6125 0.54743 0.0
C43 C 0.64526 0.57539 0.54803 0.0
Fe44 Fe 0.88448 0.15797 0.01148 0.0
Fe45 Fe 0.90314 0.09905 0.01608 0.0
O46 O 0.87681 0.12288 0.00974 0.0
Fe47 Fe 0.84312 0.1116 0.00136 0.0
O48 O 0.84311 0.1281 0.9653 0.0
O49 O 0.85935 0.16707 0.98279 0.0
O50 O 0.90929 0.15384 0.98092 0.0
C51 C 0.92984 0.13842 0.98189 0.0
C52 C 0.83507 0.1581 0.04058 0.0
O53 O 0.93072 0.11962 0.00055 0.0
C54 C 0.8571 0.07626 0.04484 0.0
O55 O 0.91098 0.15534 0.04085 0.0
O56 O 0.90878 0.11301 0.05419 0.0
O57 O 0.82626 0.1406 0.02117 0.0
O58 O 0.86007 0.16447 0.0418 0.0
C59 C 0.8769 0.07435 0.96777 0.0
O60 O 0.88059 0.074 0.0328 0.0
O61 O 0.84056 0.09418 0.03669 0.0
C62 C 0.91521 0.13738 0.06008 0.0
O63 O 0.89911 0.08371 0.97833 0.0
O64 O 0.85417 0.08065 0.98018 0.0
C65 C 0.84755 0.15296 0.96215 0.0
Fe66 Fe 0.4009 0.4071 0.5266 0.0
Fe67 Fe 0.34272 0.38978 0.54327 0.0
O68 O 0.37691 0.38122 0.53327 0.0
Fe69 Fe 0.38714 0.34688 0.52996 0.0
O70 O 0.41286 0.3519 0.55924 0.0
O71 O 0.43068 0.38834 0.54025 0.0
O72 O 0.39685 0.42119 0.56493 0.0
C73 C 0.37428 0.42944 0.5758 0.0
C74 C 0.41445 0.37091 0.48082 0.0
O75 O 0.35181 0.42168 0.56396 0.0
C76 C 0.33672 0.3435 0.50353 0.0
O77 O 0.37562 0.43056 0.51145 0.0
O78 O 0.3377 0.40679 0.50803 0.0
O79 O 0.41215 0.35205 0.49937 0.0
O80 O 0.4064 0.39458 0.48795 0.0
C81 C 0.35208 0.34863 0.58145 0.0
O82 O 0.32747 0.35953 0.52431 0.0
O83 O 0.36213 0.33957 0.50058 0.0
C84 C 0.35248 0.42592 0.49937 0.0
O85 O 0.3456 0.37319 0.57909 0.0
O86 O 0.36394 0.33562 0.55979 0.0
C87 C 0.4322 0.36865 0.5577 0.0
C88 C 0.12389 0.1906 0.31249 0.0
N89 N 0.11397 0.17134 0.29282 0.0
N90 N 0.14828 0.18275 0.32394 0.0
C91 C 0.10909 0.21633 0.32187 0.0
C92 C 0.15279 0.15795 0.31051 0.0
N93 N 0.13186 0.15099 0.2917 0.0
C94 C 0.17872 0.14178 0.31355 0.0
H95 H 0.11497 0.2325 0.30635 0.0
H96 H 0.11469 0.22304 0.34537 0.0
H97 H 0.08656 0.21349 0.32045 0.0
H98 H 0.17656 0.12845 0.33309 0.0
H99 H 0.19656 0.1553 0.31779 0.0
H100 H 0.18268 0.12883 0.29285 0.0
C101 C 0.34943 0.65917 0.81437 0.0
N102 N 0.37119 0.64968 0.79805 0.0
N103 N 0.35596 0.68256 0.82986 0.0
C104 C 0.32145 0.64638 0.81425 0.0
C105 C 0.38242 0.68701 0.82205 0.0
N106 N 0.39169 0.66697 0.80293 0.0
C107 C 0.39934 0.7108 0.83308 0.0
H108 H 0.30534 0.66223 0.81346 0.0
H109 H 0.31869 0.63548 0.83556 0.0
H110 H 0.31871 0.6316 0.79494 0.0
H111 H 0.39219 0.71857 0.85571 0.0
H112 H 0.3974 0.72723 0.81675 0.0
H113 H 0.4213 0.70507 0.83435 0.0
C114 C 0.7687 0.83569 0.22814 0.0
N115 N 0.79032 0.84362 0.21136 0.0
N116 N 0.774 0.81151 0.24053 0.0
C117 C 0.74372 0.85278 0.23498 0.0
C118 C 0.79967 0.80517 0.23074 0.0
N119 N 0.8096 0.82471 0.21319 0.0
C120 C 0.81449 0.77922 0.23686 0.0
H121 H 0.7357 0.84914 0.25803 0.0
H122 H 0.72752 0.8473 0.21821 0.0
H123 H 0.74835 0.87465 0.23333 0.0
H124 H 0.79979 0.76269 0.24115 0.0
H125 H 0.82764 0.78244 0.25719 0.0
H126 H 0.82789 0.77306 0.2174 0.0
C127 C 0.73134 0.32425 0.71407 0.0
N128 N 0.71057 0.33409 0.69751 0.0
N129 N 0.72514 0.29921 0.72353 0.0
C130 C 0.75673 0.33985 0.72292 0.0
C131 C 0.69976 0.29424 0.71216 0.0
N132 N 0.69085 0.31556 0.69647 0.0
C133 C 0.6831 0.26933 0.71793 0.0
H134 H 0.76451 0.35127 0.70357 0.0
H135 H 0.77314 0.3262 0.73072 0.0
H136 H 0.75155 0.35474 0.74158 0.0
H137 H 0.67278 0.27204 0.74031 0.0
H138 H 0.69624 0.25108 0.71862 0.0
H139 H 0.66732 0.26583 0.70014 0.0
C140 C 0.62049 0.3202 0.2242 0.0
N141 N 0.61421 0.34015 0.245 0.0
N142 N 0.6458 0.32414 0.21239 0.0
C143 C 0.60134 0.29776 0.21425 0.0
C144 C 0.65464 0.34728 0.2268 0.0
N145 N 0.63536 0.35706 0.24642 0.0
C146 C 0.68316 0.35859 0.2243 0.0
H147 H 0.60428 0.28031 0.22899 0.0
H148 H 0.60555 0.29094 0.1904 0.0
H149 H 0.57969 0.30453 0.21637 0.0
H150 H 0.68386 0.37237 0.20505 0.0
H151 H 0.69835 0.34213 0.21996 0.0
H152 H 0.68905 0.37031 0.24527 0.0
C153 C 0.19177 0.19473 0.80564 0.0
N154 N 0.18082 0.17492 0.82212 0.0
N155 N 0.21685 0.1873 0.79517 0.0
C156 C 0.1787 0.22185 0.80091 0.0
C157 C 0.22086 0.16228 0.80582 0.0
N158 N 0.19888 0.1547 0.82223 0.0
C159 C 0.24542 0.14477 0.79861 0.0
H160 H 0.16591 0.2204 0.78013 0.0
H161 H 0.19451 0.23763 0.79775 0.0
H162 H 0.16538 0.22801 0.82043 0.0
H163 H 0.25512 0.15039 0.77696 0.0
H164 H 0.23962 0.12304 0.79716 0.0
H165 H 0.26069 0.14773 0.81706 0.0
C166 C 0.27933 0.65719 0.30187 0.0
N167 N 0.29886 0.64681 0.31984 0.0
N168 N 0.28683 0.68204 0.29285 0.0
C169 C 0.25298 0.64321 0.29303 0.0
C170 C 0.31167 0.68628 0.30589 0.0
N171 N 0.31885 0.66496 0.32241 0.0
C172 C 0.32869 0.71139 0.30309 0.0
H173 H 0.24736 0.6477 0.26936 0.0
H174 H 0.23637 0.65095 0.30827 0.0
H175 H 0.25424 0.62099 0.29517 0.0
H176 H 0.31556 0.72924 0.29902 0.0
H177 H 0.34299 0.70836 0.28364 0.0
H178 H 0.34106 0.71535 0.32389 0.0
C179 C 0.85252 0.85097 0.72065 0.0
N180 N 0.87116 0.85787 0.74229 0.0
N181 N 0.8548 0.82436 0.7122 0.0
C182 C 0.83309 0.87053 0.70658 0.0
C183 C 0.87568 0.81534 0.72939 0.0
N184 N 0.88567 0.83573 0.74751 0.0
C185 C 0.8842 0.78612 0.731 0.0
H186 H 0.8136 0.87119 0.7196 0.0
H187 H 0.82847 0.86401 0.68275 0.0
H188 H 0.84189 0.89124 0.70714 0.0
H189 H 0.89949 0.78142 0.71287 0.0
H190 H 0.86637 0.77247 0.72738 0.0
H191 H 0.89366 0.78201 0.75321 0.0
H192 H 0.17197 0.95099 0.10292 0.0
H193 H 0.17156 0.98762 0.14207 0.0
H194 H 0.08336 0.98175 0.14793 0.0
H195 H 0.08375 0.94664 0.10737 0.0
H196 H 0.0934 0.02994 0.14845 0.0
H197 H 0.13005 0.95978 0.2057 0.0
H198 H 0.16042 0.92215 0.21865 0.0
H199 H 0.22982 0.97552 0.21879 0.0
H200 H 0.19978 0.01353 0.20556 0.0
H201 H 0.13051 0.09916 0.30806 0.0
H202 H 0.12668 0.05858 0.27424 0.0
H203 H 0.12608 0.10921 0.19662 0.0
H204 H 0.12936 0.14964 0.23068 0.0
H205 H 0.15798 0.03683 0.23504 0.0
H206 H 0.09093 0.08198 0.13849 0.0
H207 H 0.0483 0.10811 0.13194 0.0
H208 H 0.02401 0.09212 0.22311 0.0
H209 H 0.06658 0.06623 0.2304 0.0
C210 C 0.15259 0.95748 0.11283 0.0
C211 C 0.12789 0.94617 0.10218 0.0
C212 C 0.15234 0.9783 0.13534 0.0
C213 C 0.12743 0.98746 0.14832 0.0
C214 C 0.10285 0.97538 0.13821 0.0
C215 C 0.10306 0.95522 0.11512 0.0
C216 C 0.12668 0.0105 0.17122 0.0
C217 C 0.10756 0.03137 0.16738 0.0
C218 C 0.14444 0.01214 0.1966 0.0
C219 C 0.16271 0.98941 0.20432 0.0
C220 C 0.15182 0.96344 0.20824 0.0
C221 C 0.16898 0.94205 0.21569 0.0
C222 C 0.19709 0.94638 0.21944 0.0
C223 C 0.20806 0.97218 0.21583 0.0
C224 C 0.19096 0.99367 0.2084 0.0
C225 C 0.12954 0.10139 0.28375 0.0
C226 C 0.13018 0.12724 0.27177 0.0
C227 C 0.12731 0.07834 0.26444 0.0
C228 C 0.12578 0.0808 0.2328 0.0
C229 C 0.1266 0.10677 0.22091 0.0
C230 C 0.12867 0.1298 0.24024 0.0
C231 C 0.12473 0.05626 0.21212 0.0
C232 C 0.14377 0.03531 0.21616 0.0
C233 C 0.10574 0.05371 0.18795 0.0
C234 C 0.08208 0.07236 0.18506 0.0
C235 C 0.07667 0.08438 0.15728 0.0
C236 C 0.05248 0.09906 0.15341 0.0
C237 C 0.03349 0.10171 0.1771 0.0
C238 C 0.03889 0.09023 0.20491 0.0
C239 C 0.06313 0.07571 0.20899 0.0
H240 H 0.01448 0.11246 0.17385 0.0
H241 H 0.21034 0.92978 0.22523 0.0
H242 H 0.56823 0.59502 0.60313 0.0
H243 H 0.54072 0.6015 0.64922 0.0
H244 H 0.53596 0.68732 0.6343 0.0
H245 H 0.56512 0.681 0.58935 0.0
H246 H 0.53938 0.68361 0.6895 0.0
H247 H 0.48163 0.63897 0.61788 0.0
H248 H 0.46278 0.60551 0.58059 0.0
H249 H 0.46506 0.54439 0.64713 0.0
H250 H 0.48444 0.57736 0.68468 0.0
H251 H 0.40516 0.70051 0.75899 0.0
H252 H 0.4453 0.69659 0.72518 0.0
H253 H 0.47405 0.62832 0.77431 0.0
H254 H 0.43459 0.63325 0.80898 0.0
H255 H 0.46213 0.62132 0.70759 0.0
H256 H 0.51273 0.67563 0.78006 0.0
H257 H 0.52078 0.71555 0.81421 0.0
H258 H 0.51861 0.76723 0.73819 0.0
H259 H 0.51011 0.72766 0.70361 0.0
C260 C 0.56141 0.61527 0.60989 0.0
C261 C 0.56864 0.6375 0.5927 0.0
C262 C 0.54548 0.61896 0.63609 0.0
C263 C 0.53557 0.64483 0.64502 0.0
C264 C 0.54327 0.66714 0.62805 0.0
C265 C 0.5599 0.66354 0.60231 0.0
C266 C 0.51716 0.6486 0.6719 0.0
C267 C 0.52217 0.67021 0.69298 0.0
C268 C 0.49481 0.63099 0.67705 0.0
C269 C 0.48504 0.61054 0.65393 0.0
C270 C 0.47864 0.61827 0.6244 0.0
C271 C 0.46772 0.59942 0.60325 0.0
C272 C 0.46286 0.57281 0.61144 0.0
C273 C 0.46898 0.56497 0.64077 0.0
C274 C 0.47999 0.58372 0.66197 0.0
C275 C 0.42054 0.68522 0.7629 0.0
C276 C 0.41685 0.66685 0.78597 0.0
C277 C 0.44336 0.683 0.74377 0.0
C278 C 0.46259 0.66223 0.74743 0.0
C279 C 0.45945 0.64453 0.7713 0.0
C280 C 0.43689 0.64712 0.79077 0.0
C281 C 0.48358 0.65679 0.72379 0.0
C282 C 0.47926 0.63466 0.70364 0.0
C283 C 0.50527 0.67486 0.71853 0.0
C284 C 0.51055 0.69867 0.73926 0.0
C285 C 0.51371 0.69552 0.77064 0.0
C286 C 0.51841 0.71809 0.79008 0.0
C287 C 0.52015 0.74392 0.77839 0.0
C288 C 0.51725 0.74722 0.74722 0.0
C289 C 0.51252 0.72472 0.72769 0.0
H290 H 0.52379 0.76136 0.79347 0.0
H291 H 0.45425 0.55829 0.59509 0.0
H292 H 0.80453 0.06443 0.06224 0.0
H293 H 0.78967 0.02653 0.09236 0.0
H294 H 0.87407 0.0033 0.10504 0.0
H295 H 0.88897 0.04057 0.07439 0.0
H296 H 0.84611 0.96117 0.08764 0.0
H297 H 0.83433 0.03218 0.16325 0.0
H298 H 0.81746 0.07585 0.18506 0.0
H299 H 0.73437 0.04866 0.17428 0.0
H300 H 0.75075 0.00493 0.15199 0.0
H301 H 0.8306 0.88044 0.21944 0.0
H302 H 0.83759 0.92134 0.19047 0.0
H303 H 0.76323 0.90492 0.14082 0.0
H304 H 0.75663 0.86324 0.16897 0.0
H305 H 0.78248 0.96611 0.17564 0.0
H306 H 0.79827 0.89528 0.09471 0.0
H307 H 0.81903 0.8533 0.07271 0.0
H308 H 0.89906 0.88193 0.09845 0.0
H309 H 0.87869 0.92405 0.1207 0.0
C310 C 0.81992 0.05142 0.07175 0.0
C311 C 0.84793 0.05534 0.0657 0.0
C312 C 0.8114 0.02981 0.08906 0.0
C313 C 0.83076 0.01205 0.101 0.0
C314 C 0.85874 0.0166 0.09588 0.0
C315 C 0.86724 0.03795 0.07838 0.0
C316 C 0.82202 0.98773 0.11723 0.0
C317 C 0.83229 0.96242 0.10697 0.0
C318 C 0.8037 0.98914 0.14223 0.0
C319 C 0.79376 0.0154 0.15561 0.0
C320 C 0.81245 0.0356 0.16527 0.0
C321 C 0.80298 0.06035 0.17777 0.0
C322 C 0.77486 0.06506 0.18096 0.0
C323 C 0.75615 0.045 0.17174 0.0
C324 C 0.76552 0.02022 0.15918 0.0
C325 C 0.81586 0.88552 0.20223 0.0
C326 C 0.79325 0.86869 0.19608 0.0
C327 C 0.81981 0.90883 0.18593 0.0
C328 C 0.80106 0.91589 0.1636 0.0
C329 C 0.77792 0.89967 0.15803 0.0
C330 C 0.77412 0.87607 0.17409 0.0
C331 C 0.80648 0.93994 0.14575 0.0
C332 C 0.79589 0.96511 0.15597 0.0
C333 C 0.82489 0.93859 0.12104 0.0
C334 C 0.83696 0.91265 0.10949 0.0
C335 C 0.82025 0.89245 0.09599 0.0
C336 C 0.83196 0.86875 0.08327 0.0
C337 C 0.86037 0.86513 0.08383 0.0
C338 C 0.87709 0.88494 0.09768 0.0
C339 C 0.86548 0.9087 0.11036 0.0
H340 H 0.8694 0.84681 0.07387 0.0
H341 H 0.76756 0.08423 0.19066 0.0
H342 H 0.44026 0.33995 0.60865 0.0
H343 H 0.48413 0.33011 0.63311 0.0
H344 H 0.52687 0.37413 0.56498 0.0
H345 H 0.48322 0.38451 0.54081 0.0
H346 H 0.54825 0.32023 0.57714 0.0
H347 H 0.5207 0.40456 0.62834 0.0
H348 H 0.48827 0.43391 0.6574 0.0
H349 H 0.48806 0.37811 0.72966 0.0
H350 H 0.52018 0.34819 0.70079 0.0
H351 H 0.68122 0.3297 0.63914 0.0
H352 H 0.63663 0.33847 0.61614 0.0
H353 H 0.5964 0.31656 0.69902 0.0
H354 H 0.64119 0.31005 0.72266 0.0
H355 H 0.57223 0.35782 0.67972 0.0
H356 H 0.59956 0.27372 0.6317 0.0
H357 H 0.62959 0.24152 0.60319 0.0
H358 H 0.62772 0.29217 0.52626 0.0
H359 H 0.598 0.32489 0.55446 0.0
C360 C 0.45902 0.3476 0.59901 0.0
C361 C 0.45836 0.36312 0.57298 0.0
C362 C 0.48398 0.342 0.61297 0.0
C363 C 0.50859 0.35148 0.6008 0.0
C364 C 0.50802 0.36671 0.57466 0.0
C365 C 0.48308 0.37274 0.56103 0.0
C366 C 0.53506 0.3455 0.61528 0.0
C367 C 0.55373 0.32861 0.59944 0.0
C368 C 0.5416 0.35583 0.64471 0.0
C369 C 0.52261 0.374 0.66226 0.0
C370 C 0.51356 0.39844 0.65031 0.0
C371 C 0.49527 0.4152 0.66677 0.0
C372 C 0.48605 0.40785 0.69532 0.0
C373 C 0.49519 0.38376 0.70752 0.0
C374 C 0.51345 0.36691 0.69113 0.0
C375 C 0.66278 0.32685 0.65232 0.0
C376 C 0.66448 0.31885 0.68243 0.0
C377 C 0.63731 0.33156 0.63914 0.0
C378 C 0.61302 0.32758 0.65557 0.0
C379 C 0.61478 0.31959 0.68576 0.0
C380 C 0.6403 0.3155 0.69914 0.0
C381 C 0.58584 0.33244 0.64159 0.0
C382 C 0.56691 0.34919 0.65749 0.0
C383 C 0.57886 0.32154 0.61238 0.0
C384 C 0.59677 0.3019 0.59533 0.0
C385 C 0.60573 0.27811 0.60879 0.0
C386 C 0.62267 0.25975 0.59267 0.0
C387 C 0.63062 0.26484 0.56296 0.0
C388 C 0.62159 0.28828 0.54929 0.0
C389 C 0.60468 0.30673 0.56533 0.0
H390 H 0.64373 0.25059 0.55051 0.0
H391 H 0.47187 0.42084 0.70802 0.0
H392 H 0.6248 0.52029 0.47293 0.0
H393 H 0.62935 0.48547 0.43216 0.0
H394 H 0.65043 0.54677 0.36916 0.0
H395 H 0.64662 0.58179 0.41017 0.0
H396 H 0.60832 0.50859 0.34891 0.0
H397 H 0.69775 0.51163 0.39078 0.0
H398 H 0.73433 0.51032 0.42907 0.0
H399 H 0.71379 0.42795 0.44679 0.0
H400 H 0.67605 0.42923 0.40997 0.0
H401 H 0.64271 0.40893 0.23208 0.0
H402 H 0.6451 0.4486 0.26758 0.0
H403 H 0.63559 0.39613 0.34293 0.0
H404 H 0.63382 0.35665 0.30737 0.0
H405 H 0.67539 0.43325 0.35325 0.0
H406 H 0.58181 0.43291 0.31693 0.0
H407 H 0.54564 0.43387 0.27791 0.0
H408 H 0.57591 0.50995 0.24826 0.0
H409 H 0.61238 0.50943 0.28693 0.0
C410 C 0.63039 0.52637 0.45039 0.0
C411 C 0.63531 0.55373 0.44464 0.0
C412 C 0.6331 0.50646 0.4272 0.0
C413 C 0.6403 0.51359 0.39775 0.0
C414 C 0.6449 0.54092 0.3918 0.0
C415 C 0.6428 0.56083 0.41519 0.0
C416 C 0.64248 0.49238 0.3732 0.0
C417 C 0.62326 0.49232 0.34957 0.0
C418 C 0.66177 0.47102 0.37443 0.0
C419 C 0.68367 0.47069 0.39783 0.0
C420 C 0.70053 0.49344 0.40336 0.0
C421 C 0.72153 0.49271 0.42484 0.0
C422 C 0.72626 0.46915 0.44056 0.0
C423 C 0.70997 0.4463 0.43485 0.0
C424 C 0.68864 0.44707 0.4138 0.0
C425 C 0.64136 0.4061 0.25627 0.0
C426 C 0.63793 0.38006 0.26724 0.0
C427 C 0.64252 0.42862 0.27645 0.0
C428 C 0.64018 0.42532 0.30787 0.0
C429 C 0.63735 0.39914 0.31878 0.0
C430 C 0.63623 0.37668 0.2986 0.0
C431 C 0.64074 0.44902 0.32957 0.0
C432 C 0.66054 0.44959 0.35259 0.0
C433 C 0.62194 0.47076 0.32787 0.0
C434 C 0.60002 0.471 0.30462 0.0
C435 C 0.5809 0.44974 0.30194 0.0
C436 C 0.56033 0.45021 0.27992 0.0
C437 C 0.55858 0.47186 0.26056 0.0
C438 C 0.57733 0.49316 0.26324 0.0
C439 C 0.59793 0.49282 0.28522 0.0
H440 H 0.54263 0.47217 0.24354 0.0
H441 H 0.74264 0.46855 0.45705 0.0
H442 H 0.98236 0.1233 0.99324 0.0
H443 H 0.02344 0.13345 0.96407 0.0
H444 H 0.97439 0.17626 0.90027 0.0
H445 H 0.93298 0.16663 0.92977 0.0
H446 H 0.01579 0.13504 0.87559 0.0
H447 H 0.00661 0.21423 0.94299 0.0
H448 H 4e-05 0.23736 0.99309 0.0
H449 H 0.07321 0.20003 0.02583 0.0
H450 H 0.08 0.17634 0.97602 0.0
H451 H 0.13124 0.18476 0.79804 0.0
H452 H 0.08677 0.18266 0.82391 0.0
H453 H 0.1278 0.16229 0.90671 0.0
H454 H 0.1722 0.16609 0.88118 0.0
H455 H 0.08795 0.19508 0.92006 0.0
H456 H 0.09714 0.11377 0.85772 0.0
H457 H 0.10427 0.08617 0.81043 0.0
H458 H 0.03308 0.12193 0.77122 0.0
H459 H 0.02562 0.14997 0.81811 0.0
C460 C 0.98025 0.13483 0.97298 0.0
C461 C 0.95447 0.14424 0.9638 0.0
C462 C 0.00373 0.14065 0.95642 0.0
C463 C 0.00183 0.15565 0.93019 0.0
C464 C 0.97614 0.16467 0.92054 0.0
C465 C 0.95261 0.15926 0.93743 0.0
C466 C 0.02693 0.16191 0.91313 0.0
C467 C 0.03141 0.14857 0.88491 0.0
C468 C 0.04751 0.17881 0.926 0.0
C469 C 0.04368 0.19334 0.95584 0.0
C470 C 0.02118 0.21078 0.96094 0.0
C471 C 0.01744 0.22403 0.98927 0.0
C472 C 0.03616 0.22012 0.01265 0.0
C473 C 0.05871 0.20302 0.0077 0.0
C474 C 0.06254 0.18971 0.97941 0.0
C475 C 0.13061 0.18042 0.82191 0.0
C476 C 0.1549 0.1755 0.83774 0.0
C477 C 0.10529 0.17886 0.83657 0.0
C478 C 0.10391 0.1718 0.86712 0.0
C479 C 0.12832 0.16768 0.88313 0.0
C480 C 0.15361 0.16967 0.86858 0.0
C481 C 0.07709 0.16811 0.88232 0.0
C482 C 0.07229 0.18181 0.91036 0.0
C483 C 0.05646 0.15101 0.86956 0.0
C484 C 0.06099 0.1342 0.84132 0.0
C485 C 0.08312 0.11592 0.83893 0.0
C486 C 0.08721 0.10018 0.81223 0.0
C487 C 0.06922 0.10239 0.78784 0.0
C488 C 0.04704 0.12029 0.79012 0.0
C489 C 0.04285 0.13609 0.81675 0.0
H490 H 0.07243 0.09017 0.7672 0.0
H491 H 0.03322 0.23038 0.03458 0.0
H492 H 0.30229 0.42505 0.47123 0.0
H493 H 0.28563 0.45596 0.43315 0.0
H494 H 0.36219 0.49944 0.43805 0.0
H495 H 0.37906 0.46873 0.47565 0.0
H496 H 0.27792 0.51066 0.43689 0.0
H497 H 0.38039 0.51858 0.36972 0.0
H498 H 0.41936 0.48899 0.35517 0.0
H499 H 0.36805 0.41887 0.36111 0.0
H500 H 0.32862 0.44806 0.37521 0.0
H501 H 0.2957 0.63739 0.37923 0.0
H502 H 0.29724 0.59343 0.40266 0.0
H503 H 0.30096 0.5535 0.3137 0.0
H504 H 0.30173 0.598 0.29061 0.0
H505 H 0.33369 0.5295 0.34591 0.0
H506 H 0.24136 0.5515 0.36216 0.0
H507 H 0.20071 0.57909 0.3759 0.0
H508 H 0.22802 0.58618 0.46841 0.0
H509 H 0.26906 0.55899 0.45517 0.0
C510 C 0.31559 0.44116 0.46413 0.0
C511 C 0.34201 0.44442 0.47649 0.0
C512 C 0.30602 0.45878 0.44241 0.0
C513 C 0.32283 0.4797 0.43253 0.0
C514 C 0.34909 0.48309 0.44498 0.0
C515 C 0.35863 0.46559 0.46663 0.0
C516 C 0.31301 0.49875 0.40986 0.0
C517 C 0.28997 0.5148 0.4169 0.0
C518 C 0.32807 0.50322 0.3831 0.0
C519 C 0.35152 0.48557 0.37362 0.0
C520 C 0.37731 0.49689 0.36765 0.0
C521 C 0.39952 0.48016 0.35955 0.0
C522 C 0.3962 0.45206 0.35726 0.0
C523 C 0.37061 0.44064 0.36294 0.0
C524 C 0.34833 0.45727 0.371 0.0
C525 C 0.29718 0.61917 0.36487 0.0
C526 C 0.29878 0.62082 0.33332 0.0
C527 C 0.29741 0.59401 0.37813 0.0
C528 C 0.2984 0.56993 0.35997 0.0
C529 C 0.29993 0.57167 0.32825 0.0
C530 C 0.3003 0.59696 0.31505 0.0
C531 C 0.30005 0.54327 0.37447 0.0
C532 C 0.32125 0.52534 0.3656 0.0
C533 C 0.28312 0.53694 0.39938 0.0
C534 C 0.25835 0.55319 0.40762 0.0
C535 C 0.23878 0.55904 0.38541 0.0
C536 C 0.21565 0.57461 0.39311 0.0
C537 C 0.21179 0.58438 0.423 0.0
C538 C 0.23103 0.57856 0.44527 0.0
C539 C 0.2542 0.56301 0.43769 0.0
H540 H 0.19388 0.59645 0.42892 0.0
H541 H 0.41344 0.43915 0.35108 0.0
H542 H 0.02443 0.87383 0.98214 0.0
H543 H 0.99437 0.86274 0.93919 0.0
H544 H 0.06079 0.82068 0.89291 0.0
H545 H 0.09105 0.83116 0.93641 0.0
H546 H 0.02984 0.86259 0.85889 0.0
H547 H 0.01645 0.78213 0.91483 0.0
H548 H 0.00535 0.7538 0.958 0.0
H549 H 0.92624 0.79156 0.96646 0.0
H550 H 0.93698 0.8204 0.92363 0.0
H551 H 0.93838 0.8214 0.73914 0.0
H552 H 0.97423 0.82006 0.77826 0.0
H553 H 0.91477 0.84459 0.84659 0.0
H554 H 0.87891 0.84493 0.80762 0.0
H555 H 0.94636 0.80607 0.86669 0.0
H556 H 0.95958 0.88962 0.81653 0.0
H557 H 0.96763 0.91822 0.77278 0.0
H558 H 0.04443 0.87803 0.75503 0.0
H559 H 0.03669 0.84889 0.79843 0.0
C560 C 0.03266 0.86214 0.96288 0.0
C561 C 0.06011 0.85343 0.96253 0.0
C562 C 0.01542 0.85571 0.93847 0.0
C563 C 0.02539 0.84083 0.91304 0.0
C564 C 0.05278 0.83211 0.91247 0.0
C565 C 0.06996 0.83805 0.93726 0.0
C566 C 0.00717 0.83559 0.88672 0.0
C567 C 0.01188 0.84976 0.86025 0.0
C568 C 0.98337 0.81956 0.88904 0.0
C569 C 0.9776 0.80353 0.91609 0.0
C570 C 0.99686 0.7847 0.92618 0.0
C571 C 0.99057 0.76846 0.95051 0.0
C572 C 0.96504 0.77079 0.96481 0.0
C573 C 0.94595 0.78971 0.95524 0.0
C574 C 0.95212 0.806 0.93095 0.0
C575 C 0.93313 0.82618 0.76263 0.0
C576 C 0.90621 0.83351 0.77061 0.0
C577 C 0.95351 0.82562 0.78485 0.0
C578 C 0.94717 0.83258 0.81529 0.0
C579 C 0.92003 0.83918 0.82326 0.0
C580 C 0.89968 0.83953 0.80111 0.0
C581 C 0.96869 0.83342 0.83899 0.0
C582 C 0.96453 0.81856 0.86506 0.0
C583 C 0.99269 0.84927 0.83653 0.0
C584 C 0.99741 0.86685 0.81051 0.0
C585 C 0.97809 0.88672 0.80315 0.0
C586 C 0.9826 0.90305 0.77845 0.0
C587 C 0.00647 0.89988 0.76109 0.0
C588 C 0.02592 0.88042 0.76846 0.0
C589 C 0.02149 0.86399 0.79312 0.0
H590 H 0.00993 0.91255 0.74198 0.0
H591 H 0.95994 0.75781 0.98318 0.0
H592 H 0.9217 0.05428 0.93644 0.0
H593 H 0.92236 0.01925 0.89558 0.0
H594 H 0.83428 0.01328 0.90036 0.0
H595 H 0.83339 0.04797 0.94131 0.0
H596 H 0.85826 0.96419 0.89995 0.0
H597 H 0.86565 0.04488 0.84252 0.0
H598 H 0.88624 0.08825 0.82864 0.0
H599 H 0.96213 0.04773 0.80691 0.0
H600 H 0.94209 0.00414 0.82108 0.0
H601 H 0.82916 0.8832 0.77114 0.0
H602 H 0.83172 0.92248 0.80643 0.0
H603 H 0.91909 0.92665 0.79196 0.0
H604 H 0.91612 0.88833 0.75478 0.0
H605 H 0.8985 0.97616 0.79788 0.0
H606 H 0.89088 0.8952 0.8545 0.0
H607 H 0.87046 0.85204 0.86973 0.0
H608 H 0.79549 0.89312 0.89372 0.0
H609 H 0.81528 0.93647 0.87854 0.0
C610 C 0.90245 0.04558 0.92873 0.0
C611 C 0.87749 0.05385 0.94229 0.0
C612 C 0.90287 0.02566 0.90527 0.0
C613 C 0.87835 0.01377 0.89483 0.0
C614 C 0.85344 0.02216 0.90811 0.0
C615 C 0.85298 0.04204 0.93151 0.0
C616 C 0.87855 0.99185 0.87083 0.0
C617 C 0.86677 0.96691 0.8775 0.0
C618 C 0.89045 0.99515 0.8419 0.0
C619 C 0.90246 0.0213 0.83317 0.0
C620 C 0.8868 0.04525 0.83502 0.0
C621 C 0.89835 0.06986 0.82705 0.0
C622 C 0.9255 0.07075 0.81698 0.0
C623 C 0.94112 0.04701 0.81476 0.0
C624 C 0.92967 0.02235 0.82273 0.0
C625 C 0.84872 0.8931 0.77472 0.0
C626 C 0.87241 0.88291 0.76019 0.0
C627 C 0.85029 0.91521 0.79531 0.0
C628 C 0.87573 0.92709 0.80245 0.0
C629 C 0.89929 0.91769 0.78695 0.0
C630 C 0.89762 0.89582 0.76586 0.0
C631 C 0.8777 0.94863 0.82683 0.0
C632 C 0.89005 0.97341 0.82033 0.0
C633 C 0.86639 0.94519 0.85606 0.0
C634 C 0.85451 0.91906 0.86517 0.0
C635 C 0.86999 0.89501 0.86285 0.0
C636 C 0.85855 0.87053 0.8715 0.0
C637 C 0.83172 0.86985 0.88255 0.0
C638 C 0.81626 0.89367 0.88511 0.0
C639 C 0.82759 0.9182 0.87656 0.0
H640 H 0.82292 0.85087 0.8892 0.0
H641 H 0.93441 0.08983 0.81083 0.0
H642 H 0.43958 0.32403 0.46055 0.0
H643 H 0.47031 0.31781 0.41704 0.0
H644 H 0.45704 0.40085 0.3939 0.0
H645 H 0.42593 0.40722 0.43713 0.0
H646 H 0.45942 0.36736 0.34351 0.0
H647 H 0.51243 0.38443 0.4335 0.0
H648 H 0.52699 0.37719 0.48611 0.0
H649 H 0.5532 0.29647 0.46037 0.0
H650 H 0.53829 0.30303 0.4077 0.0
H651 H 0.58005 0.38277 0.25388 0.0
H652 H 0.54307 0.38708 0.29164 0.0
H653 H 0.55834 0.30523 0.31797 0.0
H654 H 0.59603 0.30143 0.28118 0.0
H655 H 0.55438 0.33848 0.3664 0.0
H656 H 0.50112 0.32244 0.27539 0.0
H657 H 0.48653 0.33103 0.22309 0.0
H658 H 0.4618 0.41172 0.25103 0.0
H659 H 0.47655 0.40372 0.30343 0.0
C660 C 0.44292 0.34092 0.44605 0.0
C661 C 0.43061 0.36625 0.45262 0.0
C662 C 0.46056 0.33733 0.42123 0.0
C663 C 0.46635 0.35903 0.40263 0.0
C664 C 0.45297 0.3839 0.40811 0.0
C665 C 0.43528 0.38751 0.43291 0.0
C666 C 0.48749 0.35617 0.37853 0.0
C667 C 0.48026 0.36128 0.3485 0.0
C668 C 0.51459 0.348 0.3851 0.0
C669 C 0.52397 0.34413 0.41669 0.0
C670 C 0.52111 0.36506 0.43909 0.0
C671 C 0.52944 0.36109 0.46893 0.0
C672 C 0.54096 0.33636 0.4766 0.0
C673 C 0.54424 0.31559 0.45441 0.0
C674 C 0.53585 0.31942 0.42456 0.0
C675 C 0.57522 0.3657 0.2676 0.0
C676 C 0.59055 0.34168 0.26457 0.0
C677 C 0.5541 0.3681 0.28899 0.0
C678 C 0.54774 0.34638 0.30739 0.0
C679 C 0.5628 0.3222 0.30394 0.0
C680 C 0.58405 0.3199 0.28273 0.0
C681 C 0.52626 0.34924 0.33119 0.0
C682 C 0.5335 0.34434 0.36129 0.0
C683 C 0.49926 0.35779 0.3247 0.0
C684 C 0.49013 0.36254 0.29327 0.0
C685 C 0.49272 0.34207 0.27034 0.0
C686 C 0.4844 0.34683 0.24068 0.0
C687 C 0.4733 0.37193 0.23373 0.0
C688 C 0.47042 0.3923 0.25644 0.0
C689 C 0.47872 0.38765 0.28613 0.0
H690 H 0.46688 0.37557 0.21076 0.0
H691 H 0.54739 0.33333 0.49971 0.0
H692 H 0.18271 0.95154 0.99237 0.0
H693 H 0.19424 0.98852 0.9597 0.0
H694 H 0.11375 0.98405 0.91961 0.0
H695 H 0.10192 0.94675 0.95229 0.0
H696 H 0.15529 0.99138 0.87699 0.0
H697 H 0.12553 0.03148 0.97233 0.0
H698 H 0.12503 0.03804 0.02808 0.0
H699 H 0.20953 0.06209 0.0268 0.0
H700 H 0.21066 0.05526 0.97104 0.0
H701 H 0.1559 0.12124 0.81319 0.0
H702 H 0.14565 0.08036 0.84076 0.0
H703 H 0.22209 0.08915 0.88919 0.0
H704 H 0.23157 0.13093 0.86263 0.0
H705 H 0.18209 0.07909 0.92716 0.0
H706 H 0.21196 0.03893 0.83158 0.0
H707 H 0.21227 0.03238 0.77581 0.0
H708 H 0.12762 0.00881 0.77739 0.0
H709 H 0.12672 0.01552 0.83316 0.0
C710 C 0.16743 0.95822 0.97651 0.0
C711 C 0.14124 0.94633 0.97521 0.0
C712 C 0.17408 0.97943 0.95787 0.0
C713 C 0.15472 0.98927 0.93758 0.0
C714 C 0.12894 0.97679 0.93525 0.0
C715 C 0.1222 0.95555 0.95399 0.0
C716 C 0.16119 0.01324 0.9197 0.0
C717 C 0.16084 0.01067 0.8879 0.0
C718 C 0.16893 0.03822 0.93401 0.0
C719 C 0.16825 0.0426 0.96753 0.0
C720 C 0.14407 0.03797 0.98395 0.0
C721 C 0.14366 0.04176 0.01555 0.0
C722 C 0.16725 0.0504 0.03098 0.0
C723 C 0.19128 0.05536 0.01482 0.0
C724 C 0.19181 0.05155 0.98322 0.0
C725 C 0.1705 0.11426 0.82962 0.0
C726 C 0.19451 0.12905 0.83589 0.0
C727 C 0.16477 0.09085 0.84517 0.0
C728 C 0.18324 0.08146 0.86678 0.0
C729 C 0.20757 0.09595 0.87255 0.0
C730 C 0.21314 0.11958 0.85722 0.0
C731 C 0.17655 0.05724 0.88431 0.0
C732 C 0.17671 0.0598 0.91614 0.0
C733 C 0.16865 0.03227 0.87 0.0
C734 C 0.16923 0.0279 0.83651 0.0
C735 C 0.19337 0.03248 0.82001 0.0
C736 C 0.19366 0.02873 0.78841 0.0
C737 C 0.16997 0.02023 0.77306 0.0
C738 C 0.14596 0.01539 0.7893 0.0
C739 C 0.14556 0.01912 0.82091 0.0
H740 H 0.17022 0.01735 0.74859 0.0
H741 H 0.1669 0.05332 0.05545 0.0
H742 H 0.54097 0.5889 0.45154 0.0
H743 H 0.50006 0.59502 0.42059 0.0
H744 H 0.49883 0.68015 0.44652 0.0
H745 H 0.53984 0.67436 0.47721 0.0
H746 H 0.44969 0.61108 0.43716 0.0
H747 H 0.47389 0.71544 0.38732 0.0
H748 H 0.51433 0.74174 0.37234 0.0
H749 H 0.55994 0.6681 0.35637 0.0
H750 H 0.51967 0.64135 0.3708 0.0
H751 H 0.32922 0.6728 0.38195 0.0
H752 H 0.37323 0.66584 0.40764 0.0
H753 H 0.41069 0.64349 0.32142 0.0
H754 H 0.3663 0.64984 0.29604 0.0
H755 H 0.44309 0.67886 0.35728 0.0
H756 H 0.39651 0.59535 0.36437 0.0
H757 H 0.3583 0.5652 0.37501 0.0
H758 H 0.36084 0.58997 0.46946 0.0
H759 H 0.39907 0.62105 0.45913 0.0
C760 C 0.53207 0.60896 0.45059 0.0
C761 C 0.54367 0.63113 0.46693 0.0
C762 C 0.50866 0.6124 0.43293 0.0
C763 C 0.49653 0.63806 0.4311 0.0
C764 C 0.50808 0.66024 0.44729 0.0
C765 C 0.53146 0.65683 0.46495 0.0
C766 C 0.47131 0.64153 0.41296 0.0
C767 C 0.44826 0.62595 0.41976 0.0
C768 C 0.46963 0.66053 0.3898 0.0
C769 C 0.49381 0.67642 0.38044 0.0
C770 C 0.4925 0.70486 0.38046 0.0
C771 C 0.51541 0.71984 0.37209 0.0
C772 C 0.53972 0.7066 0.36351 0.0
C773 C 0.54113 0.67833 0.36313 0.0
C774 C 0.51827 0.66326 0.37144 0.0
C775 C 0.34685 0.66603 0.36876 0.0
C776 C 0.34459 0.66115 0.33735 0.0
C777 C 0.37193 0.66229 0.38327 0.0
C778 C 0.39515 0.65399 0.36642 0.0
C779 C 0.39301 0.6499 0.3348 0.0
C780 C 0.36781 0.65334 0.32038 0.0
C781 C 0.42142 0.64882 0.38201 0.0
C782 C 0.44458 0.66411 0.37479 0.0
C783 C 0.42346 0.62914 0.40435 0.0
C784 C 0.40041 0.61075 0.4109 0.0
C785 C 0.38875 0.59462 0.38737 0.0
C786 C 0.36709 0.57726 0.39339 0.0
C787 C 0.357 0.57552 0.42293 0.0
C788 C 0.36863 0.59131 0.44656 0.0
C789 C 0.39032 0.60884 0.44064 0.0
H790 H 0.34023 0.56195 0.42751 0.0
H791 H 0.55744 0.71824 0.35709 0.0
H792 H 0.41435 0.44144 0.61743 0.0
H793 H 0.41473 0.47878 0.6559 0.0
H794 H 0.33517 0.50458 0.62586 0.0
H795 H 0.33426 0.467 0.58792 0.0
H796 H 0.38164 0.54648 0.63248 0.0
H797 H 0.33182 0.47623 0.6847 0.0
H798 H 0.32753 0.42995 0.70322 0.0
H799 H 0.40102 0.44116 0.75563 0.0
H800 H 0.40594 0.4874 0.73705 0.0
H801 H 0.34466 0.64653 0.7446 0.0
H802 H 0.34576 0.60871 0.70679 0.0
H803 H 0.40172 0.56577 0.76371 0.0
H804 H 0.39814 0.60251 0.80253 0.0
H805 H 0.36989 0.53156 0.74236 0.0
H806 H 0.41932 0.60175 0.69573 0.0
H807 H 0.42861 0.64684 0.67552 0.0
H808 H 0.36373 0.63526 0.61086 0.0
H809 H 0.35348 0.59061 0.6312 0.0
C810 C 0.39689 0.45501 0.61914 0.0
C811 C 0.37424 0.45128 0.59974 0.0
C812 C 0.39716 0.47628 0.64106 0.0
C813 C 0.37501 0.49437 0.64353 0.0
C814 C 0.35245 0.49079 0.62416 0.0
C815 C 0.35191 0.46924 0.60267 0.0
C816 C 0.37526 0.51708 0.66639 0.0
C817 C 0.37877 0.54346 0.65653 0.0
C818 C 0.37264 0.51273 0.6977 0.0
C819 C 0.36939 0.48514 0.70926 0.0
C820 C 0.34718 0.46874 0.69998 0.0
C821 C 0.34461 0.44254 0.71053 0.0
C822 C 0.36403 0.43259 0.73053 0.0
C823 C 0.38601 0.44887 0.74011 0.0
C824 C 0.38868 0.47509 0.72961 0.0
C825 C 0.35692 0.6288 0.74889 0.0
C826 C 0.37159 0.62733 0.77609 0.0
C827 C 0.35791 0.60737 0.7272 0.0
C828 C 0.37443 0.5845 0.73186 0.0
C829 C 0.38894 0.58313 0.75932 0.0
C830 C 0.38722 0.6042 0.78136 0.0
C831 C 0.37595 0.56166 0.70871 0.0
C832 C 0.37287 0.53503 0.71843 0.0
C833 C 0.37963 0.56582 0.67724 0.0
C834 C 0.38551 0.59291 0.66523 0.0
C835 C 0.40691 0.60895 0.6774 0.0
C836 C 0.41237 0.63438 0.6659 0.0
C837 C 0.39685 0.64382 0.64191 0.0
C838 C 0.37575 0.62792 0.62944 0.0
C839 C 0.37006 0.60258 0.641 0.0
H840 H 0.40118 0.66347 0.633 0.0
H841 H 0.36201 0.4123 0.73865 0.0
H842 H 0.05241 0.82025 0.09276 0.0
H843 H 0.01053 0.81144 0.12136 0.0
H844 H 0.98491 0.89433 0.1116 0.0
H845 H 0.02732 0.90356 0.08442 0.0
H846 H 0.97185 0.87918 0.16555 0.0
H847 H 0.96171 0.83863 0.06329 0.0
H848 H 0.97861 0.8082 0.02153 0.0
H849 H 0.97296 0.74029 0.07911 0.0
H850 H 0.95638 0.77037 0.12128 0.0
H851 H 0.82145 0.828 0.15386 0.0
H852 H 0.86708 0.83309 0.13138 0.0
H853 H 0.90362 0.82943 0.22011 0.0
H854 H 0.85789 0.82415 0.2425 0.0
H855 H 0.91163 0.80457 0.12733 0.0
H856 H 0.95985 0.86699 0.22488 0.0
H857 H 0.94741 0.89888 0.26721 0.0
H858 H 0.87761 0.92546 0.21749 0.0
H859 H 0.88931 0.89338 0.17481 0.0
C860 C 0.03793 0.83663 0.09699 0.0
C861 C 0.04302 0.86252 0.08614 0.0
C862 C 0.01394 0.83155 0.11319 0.0
C863 C 0.9942 0.85205 0.118 0.0
C864 C 0.99975 0.87815 0.10809 0.0
C865 C 0.02399 0.8834 0.09249 0.0
C866 C 0.96737 0.84628 0.13241 0.0
C867 C 0.9587 0.86284 0.15719 0.0
C868 C 0.95011 0.82501 0.12152 0.0
C869 C 0.95804 0.80676 0.09547 0.0
C870 C 0.964 0.81719 0.06697 0.0
C871 C 0.97358 0.80002 0.04327 0.0
C872 C 0.97702 0.77236 0.04776 0.0
C873 C 0.97038 0.76173 0.07573 0.0
C874 C 0.96085 0.77881 0.09951 0.0
C875 C 0.83934 0.82821 0.16837 0.0
C876 C 0.83644 0.82578 0.19976 0.0
C877 C 0.8653 0.83129 0.15562 0.0
C878 C 0.88872 0.83257 0.17409 0.0
C879 C 0.88583 0.82921 0.20545 0.0
C880 C 0.85985 0.82588 0.21818 0.0
C881 C 0.916 0.83763 0.16039 0.0
C882 C 0.92475 0.82092 0.1357 0.0
C883 C 0.93328 0.85888 0.17125 0.0
C884 C 0.92536 0.87766 0.19683 0.0
C885 C 0.94175 0.87957 0.22301 0.0
C886 C 0.93478 0.89758 0.24705 0.0
C887 C 0.91158 0.91401 0.24503 0.0
C888 C 0.8953 0.91242 0.21899 0.0
C889 C 0.90204 0.89427 0.19494 0.0
H890 H 0.90628 0.92807 0.2636 0.0
H891 H 0.98494 0.75914 0.02964 0.0
H892 H 0.69433 0.54861 0.54366 0.0
H893 H 0.7096 0.51078 0.57348 0.0
H894 H 0.6362 0.51746 0.62796 0.0
H895 H 0.62073 0.55543 0.59838 0.0
H896 H 0.6838 0.50559 0.6618 0.0
H897 H 0.63654 0.4741 0.57082 0.0
H898 H 0.62868 0.47207 0.51551 0.0
H899 H 0.70992 0.44048 0.50091 0.0
H900 H 0.71842 0.44289 0.55594 0.0
H901 H 0.67382 0.37196 0.71551 0.0
H902 H 0.6666 0.41624 0.69342 0.0
H903 H 0.73477 0.40069 0.6325 0.0
H904 H 0.74115 0.35597 0.65403 0.0
H905 H 0.69221 0.41839 0.60253 0.0
H906 H 0.73909 0.44717 0.69329 0.0
H907 H 0.74807 0.45035 0.74834 0.0
H908 H 0.6692 0.48712 0.76383 0.0
H909 H 0.65958 0.48381 0.70888 0.0
C910 C 0.68159 0.54234 0.56226 0.0
C911 C 0.6561 0.55478 0.56834 0.0
C912 C 0.69037 0.52071 0.57927 0.0
C913 C 0.67385 0.51117 0.60264 0.0
C914 C 0.6492 0.52454 0.60997 0.0
C915 C 0.64033 0.54611 0.5929 0.0
C916 C 0.68105 0.4858 0.61753 0.0
C917 C 0.68545 0.48645 0.64898 0.0
C918 C 0.68364 0.461 0.60059 0.0
C919 C 0.67822 0.45893 0.56748 0.0
C920 C 0.65278 0.4669 0.55576 0.0
C921 C 0.6482 0.46569 0.52443 0.0
C922 C 0.66879 0.45624 0.50462 0.0
C923 C 0.69396 0.44788 0.51614 0.0
C924 C 0.69868 0.44916 0.54742 0.0
C925 C 0.68735 0.37831 0.69763 0.0
C926 C 0.70818 0.361 0.68654 0.0
C927 C 0.68337 0.40356 0.68515 0.0
C928 C 0.7004 0.41196 0.66157 0.0
C929 C 0.7215 0.3947 0.65078 0.0
C930 C 0.72532 0.36937 0.66318 0.0
C931 C 0.69516 0.43802 0.64697 0.0
C932 C 0.69087 0.4375 0.61548 0.0
C933 C 0.69276 0.4629 0.66392 0.0
C934 C 0.69852 0.46503 0.69697 0.0
C935 C 0.72357 0.45575 0.70845 0.0
C936 C 0.72879 0.4576 0.73964 0.0
C937 C 0.70919 0.46887 0.75958 0.0
C938 C 0.68436 0.47838 0.74836 0.0
C939 C 0.67902 0.47654 0.71719 0.0
H940 H 0.71328 0.47029 0.78372 0.0
H941 H 0.66518 0.45535 0.48039 0.0
H942 H 0.92888 0.10434 0.10624 0.0
H943 H 0.95858 0.11514 0.14963 0.0
H944 H 0.96793 0.19675 0.11986 0.0
H945 H 0.93843 0.18616 0.0763 0.0
H946 H 0.017 0.1722 0.13183 0.0
H947 H 0.92997 0.18546 0.18186 0.0
H948 H 0.88324 0.17228 0.19672 0.0
H949 H 0.91556 0.10373 0.24185 0.0
H950 H 0.96247 0.11629 0.2269 0.0
H951 H 0.09966 0.21135 0.25614 0.0
H952 H 0.06091 0.21126 0.2209 0.0
H953 H 0.0357 0.13342 0.25231 0.0
H954 H 0.07362 0.13434 0.28856 0.0
H955 H 0.99274 0.16006 0.23979 0.0
H956 H 0.0785 0.14356 0.18861 0.0
H957 H 0.12536 0.15259 0.17068 0.0
H958 H 0.09678 0.22274 0.12578 0.0
H959 H 0.0497 0.21426 0.14345 0.0
C960 C 0.93702 0.12467 0.10905 0.0
C961 C 0.93136 0.14435 0.08769 0.0
C962 C 0.95388 0.13084 0.13395 0.0
C963 C 0.96527 0.1568 0.13804 0.0
C964 C 0.95927 0.17661 0.11711 0.0
C965 C 0.94237 0.17051 0.09227 0.0
C966 C 0.9848 0.16277 0.16308 0.0
C967 C 0.01161 0.17016 0.15553 0.0
C968 C 0.97787 0.15914 0.1938 0.0
C969 C 0.94971 0.15174 0.20311 0.0
C970 C 0.9271 0.16748 0.1948 0.0
C971 C 0.90058 0.16014 0.20326 0.0
C972 C 0.89643 0.13716 0.22018 0.0
C973 C 0.9188 0.12152 0.22875 0.0
C974 C 0.94536 0.12877 0.22033 0.0
C975 C 0.08535 0.19463 0.25595 0.0
C976 C 0.08955 0.17274 0.27474 0.0
C977 C 0.06347 0.19437 0.23558 0.0
C978 C 0.0459 0.17187 0.23316 0.0
C979 C 0.04923 0.15075 0.25327 0.0
C980 C 0.07087 0.15121 0.2739 0.0
C981 C 0.02516 0.16946 0.20861 0.0
C982 C 0.99812 0.1626 0.21618 0.0
C983 C 0.03203 0.1731 0.17775 0.0
C984 C 0.06051 0.17837 0.16755 0.0
C985 C 0.08215 0.16097 0.17501 0.0
C986 C 0.10877 0.16598 0.16489 0.0
C987 C 0.11404 0.18824 0.14721 0.0
C988 C 0.09268 0.20552 0.13952 0.0
C989 C 0.06601 0.20061 0.14955 0.0
H990 H 0.13467 0.19207 0.13941 0.0
H991 H 0.87589 0.13149 0.22668 0.0
H992 H 0.12483 0.81908 0.12533 0.0
H993 H 0.14722 0.79197 0.16368 0.0
H994 H 0.22605 0.80849 0.1241 0.0
H995 H 0.20403 0.83588 0.08615 0.0
H996 H 0.21514 0.7524 0.13401 0.0
H997 H 0.21231 0.84001 0.18661 0.0
H998 H 0.18978 0.88137 0.20739 0.0
H999 H 0.1384 0.83349 0.26349 0.0
H1000 H 0.16049 0.79173 0.2427 0.0
H1001 H 0.30664 0.70302 0.24184 0.0
H1002 H 0.28204 0.73164 0.20683 0.0
H1003 H 0.20939 0.72701 0.2625 0.0
H1004 H 0.2347 0.69979 0.29847 0.0
H1005 H 0.21457 0.77606 0.24449 0.0
H1006 H 0.21795 0.68856 0.19488 0.0
H1007 H 0.23907 0.64641 0.17401 0.0
H1008 H 0.28644 0.69203 0.11171 0.0
H1009 H 0.26595 0.73452 0.13256 0.0
C1010 C 0.14694 0.81707 0.12497 0.0
C1011 C 0.16268 0.82965 0.1028 0.0
C1012 C 0.15967 0.80165 0.14687 0.0
C1013 C 0.18824 0.79832 0.14663 0.0
C1014 C 0.20397 0.81088 0.1246 0.0
C1015 C 0.19135 0.82662 0.10306 0.0
C1016 C 0.20183 0.7812 0.16889 0.0
C1017 C 0.21531 0.75764 0.15816 0.0
C1018 C 0.20118 0.78772 0.20038 0.0
C1019 C 0.18782 0.81275 0.21284 0.0
C1020 C 0.19602 0.83828 0.20315 0.0
C1021 C 0.18337 0.86181 0.215 0.0
C1022 C 0.16258 0.86009 0.2367 0.0
C1023 C 0.15447 0.8348 0.24665 0.0
C1024 C 0.16706 0.81119 0.23486 0.0
C1025 C 0.28554 0.70848 0.24669 0.0
C1026 C 0.27243 0.6992 0.27263 0.0
C1027 C 0.27139 0.72451 0.22655 0.0
C1028 C 0.24366 0.73102 0.23167 0.0
C1029 C 0.23069 0.72211 0.25794 0.0
C1030 C 0.24501 0.70639 0.2783 0.0
C1031 C 0.22829 0.74719 0.20967 0.0
C1032 C 0.21436 0.77059 0.2204 0.0
C1033 C 0.22823 0.74031 0.17815 0.0
C1034 C 0.2406 0.71477 0.16552 0.0
C1035 C 0.23304 0.68964 0.17691 0.0
C1036 C 0.24488 0.66568 0.16505 0.0
C1037 C 0.26414 0.66655 0.14161 0.0
C1038 C 0.27156 0.69139 0.12992 0.0
C1039 C 0.25983 0.71542 0.14173 0.0
H1040 H 0.27328 0.64798 0.13245 0.0
H1041 H 0.15282 0.87832 0.2459 0.0
H1042 H 0.71872 0.64699 0.55302 0.0
H1043 H 0.75166 0.6755 0.58081 0.0
H1044 H 0.68709 0.73203 0.6058 0.0
H1045 H 0.65427 0.70417 0.57664 0.0
H1046 H 0.72879 0.75911 0.59036 0.0
H1047 H 0.71678 0.68596 0.65685 0.0
H1048 H 0.71499 0.63838 0.67167 0.0
H1049 H 0.7998 0.62798 0.64761 0.0
H1050 H 0.802 0.67543 0.63226 0.0
H1051 H 0.79966 0.82378 0.71593 0.0
H1052 H 0.7681 0.79559 0.6853 0.0
H1053 H 0.83664 0.75891 0.63726 0.0
H1054 H 0.86828 0.78827 0.66691 0.0
H1055 H 0.79436 0.72208 0.66403 0.0
H1056 H 0.80448 0.79799 0.59911 0.0
H1057 H 0.8043 0.84658 0.5883 0.0
H1058 H 0.71971 0.85246 0.61486 0.0
H1059 H 0.71951 0.80396 0.62631 0.0
C1060 C 0.71149 0.66539 0.56465 0.0
C1061 C 0.68389 0.67332 0.56276 0.0
C1062 C 0.73035 0.68164 0.58066 0.0
C1063 C 0.72186 0.70576 0.59588 0.0
C1064 C 0.69419 0.71355 0.59426 0.0
C1065 C 0.67542 0.69758 0.57769 0.0
C1066 C 0.74194 0.72325 0.61272 0.0
C1067 C 0.74284 0.75097 0.60674 0.0
C1068 C 0.76069 0.7127 0.6338 0.0
C1069 C 0.75948 0.68418 0.64312 0.0
C1070 C 0.735 0.67348 0.65451 0.0
C1071 C 0.73392 0.64654 0.66304 0.0
C1072 C 0.75725 0.63015 0.66051 0.0
C1073 C 0.78173 0.64069 0.64952 0.0
C1074 C 0.78292 0.66761 0.64093 0.0
C1075 C 0.80791 0.81021 0.69831 0.0
C1076 C 0.83632 0.80837 0.69344 0.0
C1077 C 0.78994 0.79396 0.68108 0.0
C1078 C 0.80012 0.77528 0.65907 0.0
C1079 C 0.82849 0.77323 0.65423 0.0
C1080 C 0.84646 0.78989 0.6711 0.0
C1081 C 0.78097 0.75761 0.64157 0.0
C1082 C 0.78028 0.72997 0.64753 0.0
C1083 C 0.76205 0.7683 0.62099 0.0
C1084 C 0.76206 0.7974 0.61385 0.0
C1085 C 0.78591 0.80969 0.60291 0.0
C1086 C 0.78586 0.83721 0.59662 0.0
C1087 C 0.76203 0.85261 0.60096 0.0
C1088 C 0.73816 0.84051 0.61154 0.0
C1089 C 0.73811 0.813 0.61791 0.0
H1090 H 0.76203 0.87392 0.59607 0.0
H1091 H 0.75637 0.60929 0.66712 0.0
H1092 H 0.78998 0.13981 0.06983 0.0
H1093 H 0.75635 0.16684 0.09926 0.0
H1094 H 0.80091 0.23966 0.07967 0.0
H1095 H 0.83554 0.21238 0.05242 0.0
H1096 H 0.78496 0.2453 0.13284 0.0
H1097 H 0.73856 0.21563 0.04166 0.0
H1098 H 0.72122 0.18237 0.00317 0.0
H1099 H 0.67106 0.14607 0.07049 0.0
H1100 H 0.68863 0.17861 0.10962 0.0
H1101 H 0.67397 0.33753 0.16244 0.0
H1102 H 0.70461 0.30785 0.13173 0.0
H1103 H 0.68237 0.24039 0.18579 0.0
H1104 H 0.65301 0.27033 0.21752 0.0
H1105 H 0.68532 0.23226 0.11537 0.0
H1106 H 0.73516 0.26347 0.20617 0.0
H1107 H 0.75137 0.2997 0.2418 0.0
H1108 H 0.79385 0.33723 0.16916 0.0
H1109 H 0.77742 0.30146 0.13297 0.0
C1110 C 0.79257 0.16158 0.07211 0.0
C1111 C 0.81523 0.1741 0.05899 0.0
C1112 C 0.77325 0.17707 0.08865 0.0
C1113 C 0.77561 0.20547 0.09114 0.0
C1114 C 0.79852 0.21785 0.07817 0.0
C1115 C 0.8183 0.20228 0.06256 0.0
C1116 C 0.75448 0.22238 0.10736 0.0
C1117 C 0.76324 0.24254 0.12858 0.0
C1118 C 0.72595 0.2188 0.10227 0.0
C1119 C 0.71512 0.19942 0.07865 0.0
C1120 C 0.72397 0.20045 0.04832 0.0
C1121 C 0.71409 0.18174 0.02637 0.0
C1122 C 0.69505 0.16216 0.03436 0.0
C1123 C 0.68583 0.16124 0.06433 0.0
C1124 C 0.69577 0.17979 0.08642 0.0
C1125 C 0.67564 0.31635 0.16761 0.0
C1126 C 0.66125 0.30617 0.1923 0.0
C1127 C 0.6929 0.29944 0.15002 0.0
C1128 C 0.6956 0.27201 0.15658 0.0
C1129 C 0.68029 0.26148 0.1803 0.0
C1130 C 0.66347 0.27852 0.19827 0.0
C1131 C 0.71608 0.25485 0.14028 0.0
C1132 C 0.70714 0.2348 0.11926 0.0
C1133 C 0.74441 0.25886 0.14495 0.0
C1134 C 0.75482 0.27997 0.16683 0.0
C1135 C 0.74776 0.27957 0.19775 0.0
C1136 C 0.75701 0.30001 0.21806 0.0
C1137 C 0.77356 0.3208 0.20774 0.0
C1138 C 0.78098 0.32114 0.17711 0.0
C1139 C 0.77172 0.30079 0.1567 0.0
H1140 H 0.7807 0.33661 0.22349 0.0
H1141 H 0.68742 0.14771 0.01732 0.0
H1142 H 0.32949 0.36968 0.63437 0.0
H1143 H 0.31158 0.34462 0.67691 0.0
H1144 H 0.33453 0.26925 0.63075 0.0
H1145 H 0.35307 0.29402 0.58875 0.0
H1146 H 0.27094 0.31132 0.67853 0.0
H1147 H 0.34863 0.221 0.67921 0.0
H1148 H 0.39813 0.21333 0.67126 0.0
H1149 H 0.41414 0.29709 0.69428 0.0
H1150 H 0.36481 0.30519 0.70284 0.0
H1151 H 0.20647 0.19976 0.73784 0.0
H1152 H 0.23409 0.22878 0.70588 0.0
H1153 H 0.29346 0.23868 0.77801 0.0
H1154 H 0.26607 0.20858 0.80938 0.0
H1155 H 0.31907 0.23517 0.72589 0.0
H1156 H 0.24484 0.28756 0.7656 0.0
H1157 H 0.19657 0.29789 0.77811 0.0
H1158 H 0.17668 0.29675 0.68321 0.0
H1159 H 0.22474 0.28589 0.67012 0.0
C1160 C 0.33098 0.34778 0.63345 0.0
C1161 C 0.34266 0.33386 0.60812 0.0
C1162 C 0.32072 0.33349 0.65777 0.0
C1163 C 0.32194 0.30505 0.6572 0.0
C1164 C 0.33388 0.29119 0.63208 0.0
C1165 C 0.34434 0.30542 0.60793 0.0
C1166 C 0.30913 0.28964 0.68174 0.0
C1167 C 0.28156 0.29482 0.68904 0.0
C1168 C 0.32315 0.26854 0.69612 0.0
C1169 C 0.35294 0.26372 0.69145 0.0
C1170 C 0.36271 0.23775 0.68276 0.0
C1171 C 0.39075 0.23333 0.67811 0.0
C1172 C 0.40926 0.25472 0.68219 0.0
C1173 C 0.39978 0.28056 0.69103 0.0
C1174 C 0.37177 0.28507 0.69575 0.0
C1175 C 0.22562 0.20795 0.7465 0.0
C1176 C 0.23433 0.20228 0.77581 0.0
C1177 C 0.24127 0.22461 0.72847 0.0
C1178 C 0.26554 0.23645 0.73983 0.0
C1179 C 0.27476 0.2299 0.76883 0.0
C1180 C 0.25924 0.21282 0.7867 0.0
C1181 C 0.28066 0.25622 0.72164 0.0
C1182 C 0.30861 0.25189 0.71561 0.0
C1183 C 0.26725 0.27867 0.70916 0.0
C1184 C 0.2384 0.28576 0.71689 0.0
C1185 C 0.23015 0.28938 0.74739 0.0
C1186 C 0.20282 0.29532 0.75459 0.0
C1187 C 0.18357 0.29795 0.73147 0.0
C1188 C 0.19162 0.29471 0.7011 0.0
C1189 C 0.21892 0.28868 0.69377 0.0
H1190 H 0.16242 0.30253 0.73709 0.0
H1191 H 0.43095 0.25126 0.67854 0.0
H1192 H 0.61402 0.68398 0.42578 0.0
H1193 H 0.6303 0.71233 0.38485 0.0
H1194 H 0.71384 0.69875 0.41219 0.0
H1195 H 0.69797 0.67023 0.45256 0.0
H1196 H 0.69796 0.75518 0.40421 0.0
H1197 H 0.69333 0.6651 0.35355 0.0
H1198 H 0.668 0.62392 0.3371 0.0
H1199 H 0.61179 0.67211 0.28719 0.0
H1200 H 0.63664 0.71362 0.30367 0.0
H1201 H 0.79026 0.79371 0.2945 0.0
H1202 H 0.7629 0.76926 0.33079 0.0
H1203 H 0.69239 0.77461 0.27228 0.0
H1204 H 0.72062 0.79754 0.23483 0.0
H1205 H 0.69312 0.72693 0.29503 0.0
H1206 H 0.69932 0.81588 0.33798 0.0
H1207 H 0.7212 0.8588 0.35492 0.0
H1208 H 0.76878 0.81677 0.4201 0.0
H1209 H 0.7475 0.77351 0.40324 0.0
C1210 C 0.63585 0.687 0.42296 0.0
C1211 C 0.65472 0.67487 0.44238 0.0
C1212 C 0.64508 0.70314 0.39961 0.0
C1213 C 0.67324 0.70762 0.39567 0.0
C1214 C 0.69203 0.69556 0.415 0.0
C1215 C 0.6829 0.67915 0.43794 0.0
C1216 C 0.68355 0.72497 0.3716 0.0
C1217 C 0.69704 0.74905 0.38032 0.0
C1218 C 0.6812 0.71744 0.34046 0.0
C1219 C 0.66667 0.69245 0.33007 0.0
C1220 C 0.67547 0.66692 0.33923 0.0
C1221 C 0.66122 0.64352 0.32987 0.0
C1222 C 0.63826 0.6454 0.31117 0.0
C1223 C 0.62957 0.67068 0.30169 0.0
C1224 C 0.64374 0.69414 0.31101 0.0
C1225 C 0.76905 0.78928 0.28923 0.0
C1226 C 0.75752 0.79736 0.26191 0.0
C1227 C 0.75327 0.77568 0.31015 0.0
C1228 C 0.72535 0.7706 0.30465 0.0
C1229 C 0.71381 0.77845 0.27716 0.0
C1230 C 0.72981 0.7917 0.25592 0.0
C1231 C 0.7086 0.75684 0.32765 0.0
C1232 C 0.69376 0.73348 0.3188 0.0
C1233 C 0.70916 0.76537 0.35874 0.0
C1234 C 0.7219 0.7914 0.3692 0.0
C1235 C 0.71456 0.81575 0.35581 0.0
C1236 C 0.72685 0.84015 0.36541 0.0
C1237 C 0.74639 0.84051 0.38855 0.0
C1238 C 0.75364 0.81646 0.40218 0.0
C1239 C 0.74144 0.792 0.39264 0.0
H1240 H 0.75589 0.85942 0.39594 0.0
H1241 H 0.62723 0.62727 0.30397 0.0
H1242 H 0.84119 0.20721 0.95546 0.0
H1243 H 0.82113 0.2299 0.91263 0.0
H1244 H 0.80868 0.15267 0.86566 0.0
H1245 H 0.8286 0.12956 0.90874 0.0
H1246 H 0.83211 0.19585 0.8295 0.0
H1247 H 0.75584 0.17896 0.89651 0.0
H1248 H 0.73189 0.18037 0.94585 0.0
H1249 H 0.73749 0.26719 0.95064 0.0
H1250 H 0.7618 0.26627 0.90147 0.0
H1251 H 0.74507 0.24842 0.71605 0.0
H1252 H 0.76661 0.22139 0.75501 0.0
H1253 H 0.76078 0.28978 0.81895 0.0
H1254 H 0.73744 0.31586 0.78054 0.0
H1255 H 0.74596 0.24798 0.84585 0.0
H1256 H 0.82293 0.26744 0.78288 0.0
H1257 H 0.84954 0.26917 0.73537 0.0
H1258 H 0.84656 0.18242 0.72479 0.0
H1259 H 0.81959 0.18019 0.77205 0.0
C1260 C 0.83433 0.19498 0.93601 0.0
C1261 C 0.83634 0.16655 0.93557 0.0
C1262 C 0.82283 0.208 0.91159 0.0
C1263 C 0.8133 0.19291 0.88618 0.0
C1264 C 0.81592 0.1646 0.88518 0.0
C1265 C 0.82716 0.15147 0.90982 0.0
C1266 C 0.79997 0.2069 0.86112 0.0
C1267 C 0.81304 0.20693 0.83278 0.0
C1268 C 0.7756 0.22197 0.86592 0.0
C1269 C 0.76084 0.22252 0.89542 0.0
C1270 C 0.75216 0.19834 0.9082 0.0
C1271 C 0.73848 0.19905 0.93613 0.0
C1272 C 0.73323 0.22386 0.95142 0.0
C1273 C 0.74159 0.24799 0.93878 0.0
C1274 C 0.75529 0.24739 0.91087 0.0
C1275 C 0.74828 0.25741 0.73856 0.0
C1276 C 0.73949 0.28397 0.7456 0.0
C1277 C 0.76089 0.24218 0.76067 0.0
C1278 C 0.76563 0.25361 0.78992 0.0
C1279 C 0.75732 0.28045 0.79664 0.0
C1280 C 0.74422 0.29542 0.77472 0.0
C1281 C 0.77824 0.23743 0.81397 0.0
C1282 C 0.76498 0.23689 0.84226 0.0
C1283 C 0.80278 0.22241 0.80926 0.0
C1284 C 0.81898 0.22368 0.78083 0.0
C1285 C 0.82775 0.24874 0.77029 0.0
C1286 C 0.84294 0.24981 0.74343 0.0
C1287 C 0.84967 0.22592 0.72703 0.0
C1288 C 0.84129 0.20091 0.73749 0.0
C1289 C 0.82607 0.19973 0.76432 0.0
H1290 H 0.86144 0.22679 0.70624 0.0
H1291 H 0.7226 0.22442 0.97301 0.0
H1292 H 0.28111 0.3494 0.49888 0.0
H1293 H 0.24938 0.32107 0.46886 0.0
H1294 H 0.31693 0.2714 0.43623 0.0
H1295 H 0.34883 0.30002 0.46545 0.0
H1296 H 0.28415 0.2798 0.39158 0.0
H1297 H 0.27294 0.2507 0.49274 0.0
H1298 H 0.26444 0.25589 0.54784 0.0
H1299 H 0.18411 0.28751 0.53098 0.0
H1300 H 0.19228 0.28289 0.47575 0.0
H1301 H 0.17191 0.16732 0.37576 0.0
H1302 H 0.20486 0.19344 0.4072 0.0
H1303 H 0.19787 0.25998 0.34706 0.0
H1304 H 0.16603 0.23338 0.31511 0.0
H1305 H 0.20222 0.23975 0.43923 0.0
H1306 H 0.25859 0.29141 0.34067 0.0
H1307 H 0.27013 0.28164 0.28681 0.0
H1308 H 0.26582 0.19622 0.30088 0.0
H1309 H 0.25468 0.20546 0.3549 0.0
C1310 C 0.28922 0.33247 0.48527 0.0
C1311 C 0.31749 0.3269 0.4847 0.0
C1312 C 0.27103 0.31621 0.46823 0.0
C1313 C 0.28071 0.29383 0.45065 0.0
C1314 C 0.30897 0.28852 0.44965 0.0
C1315 C 0.32719 0.30491 0.46643 0.0
C1316 C 0.26144 0.27598 0.43317 0.0
C1317 C 0.26624 0.27107 0.40203 0.0
C1318 C 0.2384 0.26402 0.4469 0.0
C1319 C 0.23333 0.26668 0.4801 0.0
C1320 C 0.25353 0.25894 0.50078 0.0
C1321 C 0.24876 0.26176 0.53204 0.0
C1322 C 0.22377 0.27208 0.5429 0.0
C1323 C 0.20347 0.27955 0.52253 0.0
C1324 C 0.20815 0.27682 0.49124 0.0
C1325 C 0.17763 0.18748 0.36936 0.0
C1326 C 0.1666 0.19843 0.34314 0.0
C1327 C 0.19622 0.20244 0.38734 0.0
C1328 C 0.20407 0.22856 0.37931 0.0
C1329 C 0.19246 0.23973 0.35347 0.0
C1330 C 0.17408 0.2247 0.33542 0.0
C1331 C 0.22469 0.24404 0.39758 0.0
C1332 C 0.22014 0.24851 0.42883 0.0
C1333 C 0.24842 0.25493 0.38415 0.0
C1334 C 0.25554 0.24916 0.35177 0.0
C1335 C 0.26023 0.27054 0.3323 0.0
C1336 C 0.26668 0.2651 0.30173 0.0
C1337 C 0.26862 0.23833 0.29041 0.0
C1338 C 0.26422 0.21694 0.30965 0.0
C1339 C 0.25781 0.22228 0.34024 0.0
H1340 H 0.27358 0.23416 0.26673 0.0
H1341 H 0.22012 0.27424 0.56711 0.0
H1342 H 0.16802 0.79031 0.996 0.0
H1343 H 0.20224 0.76451 0.96656 0.0
H1344 H 0.23374 0.83843 0.93118 0.0
H1345 H 0.19953 0.86466 0.96084 0.0
H1346 H 0.22678 0.79456 0.8869 0.0
H1347 H 0.26758 0.8121 0.98527 0.0
H1348 H 0.26809 0.81238 0.04122 0.0
H1349 H 0.25983 0.72578 0.03855 0.0
H1350 H 0.25877 0.72502 0.98254 0.0
H1351 H 0.34662 0.73575 0.82257 0.0
H1352 H 0.31518 0.76523 0.85206 0.0
H1353 H 0.29186 0.69765 0.90564 0.0
H1354 H 0.32477 0.66872 0.87738 0.0
H1355 H 0.29548 0.7403 0.9411 0.0
H1356 H 0.25172 0.72095 0.84571 0.0
H1357 H 0.24743 0.71816 0.78995 0.0
H1358 H 0.25726 0.80439 0.78689 0.0
H1359 H 0.262 0.80765 0.84264 0.0
C1360 C 0.18206 0.80117 0.98183 0.0
C1361 C 0.18111 0.82961 0.98092 0.0
C1362 C 0.20167 0.78635 0.96511 0.0
C1363 C 0.22066 0.79961 0.947 0.0
C1364 C 0.21928 0.82788 0.94515 0.0
C1365 C 0.19978 0.84281 0.96215 0.0
C1366 C 0.24223 0.78383 0.93049 0.0
C1367 C 0.24212 0.78303 0.89867 0.0
C1368 C 0.26162 0.76816 0.94599 0.0
C1369 C 0.26285 0.76853 0.97968 0.0
C1370 C 0.26568 0.79313 0.9966 0.0
C1371 C 0.26609 0.79337 0.02833 0.0
C1372 C 0.26393 0.76912 0.04343 0.0
C1373 C 0.26147 0.74456 0.02682 0.0
C1374 C 0.26098 0.74421 0.99507 0.0
C1375 C 0.3351 0.72741 0.84101 0.0
C1376 C 0.33798 0.70002 0.84773 0.0
C1377 C 0.31688 0.74413 0.85759 0.0
C1378 C 0.30069 0.73358 0.88073 0.0
C1379 C 0.30399 0.70627 0.88782 0.0
C1380 C 0.32254 0.68968 0.87152 0.0
C1381 C 0.28009 0.75085 0.89728 0.0
C1382 C 0.28031 0.75192 0.92919 0.0
C1383 C 0.26045 0.76638 0.88185 0.0
C1384 C 0.2575 0.76451 0.84832 0.0
C1385 C 0.25317 0.7393 0.83313 0.0
C1386 C 0.25063 0.73763 0.80153 0.0
C1387 C 0.25215 0.76108 0.78488 0.0
C1388 C 0.25614 0.78624 0.79981 0.0
C1389 C 0.25874 0.78802 0.83142 0.0
H1390 H 0.25017 0.75975 0.76041 0.0
H1391 H 0.26421 0.76935 0.068 0.0
loop_
_geom_bond_atom_site_label_1
_geom_bond_atom_site_label_2
_geom_bond_distance
_geom_bond_site_symmetry_2
_ccdc_geom_bond_type
Fe0 O2 1.918 . S
Fe0 O5 1.997 . S
Fe0 O6 2.002 . S
Fe0 O11 1.976 . S
Fe0 O14 1.996 . S
Fe1 O2 1.918 . S
Fe1 O9 1.997 . S
Fe1 O12 2.016 . S
Fe1 O16 1.976 1_554 S
Fe1 O19 2.002 . S
O2 Fe0 1.918 . S
O2 Fe1 1.918 . S
O2 Fe3 1.918 . S
Fe3 O2 1.918 . S
Fe3 O4 2.002 . S
Fe3 O13 1.997 . S
Fe3 O17 1.996 1_554 S
Fe3 O20 1.997 . S
O4 Fe3 2.002 . S
O4 C21 1.295 . S
O5 Fe0 1.997 . S
O5 C21 1.235 . S
O6 Fe0 2.002 . S
O6 C7 1.295 . S
C7 O6 1.295 . S
C7 O9 1.235 . S
C8 O13 1.281 1_556 S
C8 O14 1.255 1_556 S
O9 Fe1 1.997 . S
O9 C7 1.235 . S
C10 O16 1.287 . S
C10 O17 1.255 . S
O11 Fe0 1.976 . S
O11 C18 1.287 1_554 S
O12 Fe1 2.016 . S
O12 C18 1.249 1_554 S
O13 Fe3 1.997 . S
O13 C8 1.281 1_554 S
O14 Fe0 1.996 . S
O14 C8 1.255 1_554 S
C15 O19 1.295 . S
C15 O20 1.235 . S
O16 Fe1 1.976 1_556 S
O16 C10 1.287 . S
O17 Fe3 1.996 1_556 S
O17 C10 1.255 . S
C18 O11 1.287 1_556 S
C18 O12 1.249 1_556 S
O19 Fe1 2.002 . S
O19 C15 1.295 . S
O20 Fe3 1.997 . S
O20 C15 1.235 . S
C21 O4 1.295 . S
C21 O5 1.235 . S
Fe22 O24 1.918 . S
Fe22 O27 1.997 . S
Fe22 O28 2.002 . S
Fe22 O33 1.976 . S
Fe22 O36 1.996 . S
Fe23 O24 1.918 . S
Fe23 O31 1.997 . S
Fe23 O34 1.996 . S
Fe23 O38 1.976 . S
Fe23 O41 2.002 . S
O24 Fe22 1.918 . S
O24 Fe23 1.918 . S
O24 Fe25 1.918 . S
Fe25 O24 1.918 . S
Fe25 O26 2.002 . S
Fe25 O35 1.976 . S
Fe25 O39 1.996 . S
Fe25 O42 1.997 . S
O26 Fe25 2.002 . S
O26 C43 1.295 . S
O27 Fe22 1.997 . S
O27 C43 1.235 . S
O28 Fe22 2.002 . S
O28 C29 1.295 . S
C29 O28 1.295 . S
C29 O31 1.235 . S
C30 O35 1.287 . S
C30 O36 1.255 . S
O31 Fe23 1.997 . S
O31 C29 1.235 . S
C32 O38 1.287 . S
C32 O39 1.255 . S
O33 Fe22 1.976 . S
O33 C40 1.287 . S
O34 Fe23 1.996 . S
O34 C40 1.255 . S
O35 Fe25 1.976 . S
O35 C30 1.287 . S
O36 Fe22 1.996 . S
O36 C30 1.255 . S
C37 O41 1.295 . S
C37 O42 1.235 . S
O38 Fe23 1.976 . S
O38 C32 1.287 . S
O39 Fe25 1.996 . S
O39 C32 1.255 . S
C40 O33 1.287 . S
C40 O34 1.255 . S
O41 Fe23 2.002 . S
O41 C37 1.295 . S
O42 Fe25 1.997 . S
O42 C37 1.235 . S
C43 O26 1.295 . S
C43 O27 1.235 . S
Fe44 O46 1.918 . S
Fe44 O49 1.997 1_554 S
Fe44 O50 2.002 1_554 S
Fe44 O55 1.976 . S
Fe44 O58 1.996 . S
Fe45 O46 1.918 . S
Fe45 O53 1.997 1_554 S
Fe45 O56 1.996 . S
Fe45 O60 1.976 . S
Fe45 O63 2.002 1_554 S
O46 Fe44 1.918 . S
O46 Fe45 1.918 . S
O46 Fe47 1.920 . S
Fe47 O46 1.920 . S
Fe47 O48 1.993 1_554 S
Fe47 O57 1.984 . S
Fe47 O61 2.004 . S
Fe47 O64 1.988 1_554 S
O48 Fe47 1.993 1_556 S
O48 C65 1.295 . S
O49 Fe44 1.997 1_556 S
O49 C65 1.235 . S
O50 Fe44 2.002 1_556 S
O50 C51 1.295 . S
C51 O50 1.295 . S
C51 O53 1.235 . S
C52 O57 1.287 . S
C52 O58 1.255 . S
O53 Fe45 1.997 1_556 S
O53 C51 1.235 . S
C54 O60 1.287 . S
C54 O61 1.255 . S
O55 Fe44 1.976 . S
O55 C62 1.287 . S
O56 Fe45 1.996 . S
O56 C62 1.255 . S
O57 Fe47 1.984 . S
O57 C52 1.287 . S
O58 Fe44 1.996 . S
O58 C52 1.255 . S
C59 O63 1.295 . S
C59 O64 1.235 . S
O60 Fe45 1.976 . S
O60 C54 1.287 . S
O61 Fe47 2.004 . S
O61 C54 1.255 . S
C62 O55 1.287 . S
C62 O56 1.255 . S
O63 Fe45 2.002 1_556 S
O63 C59 1.295 . S
O64 Fe47 1.988 1_556 S
O64 C59 1.235 . S
C65 O48 1.295 . S
C65 O49 1.235 . S
Fe66 O68 1.918 . S
Fe66 O71 1.997 . S
Fe66 O72 2.002 . S
Fe66 O77 1.976 . S
Fe66 O80 1.996 . S
Fe67 O68 1.918 . S
Fe67 O75 1.997 . S
Fe67 O78 1.996 . S
Fe67 O82 1.976 . S
Fe67 O85 2.002 . S
O68 Fe66 1.918 . S
O68 Fe67 1.918 . S
O68 Fe69 1.918 . S
Fe69 O68 1.918 . S
Fe69 O70 2.002 . S
Fe69 O79 1.976 . S
Fe69 O83 1.996 . S
Fe69 O86 1.997 . S
O70 Fe69 2.002 . S
O70 C87 1.295 . S
O71 Fe66 1.997 . S
O71 C87 1.235 . S
O72 Fe66 2.002 . S
O72 C73 1.295 . S
C73 O72 1.295 . S
C73 O75 1.235 . S
C74 O79 1.287 . S
C74 O80 1.255 . S
O75 Fe67 1.997 . S
O75 C73 1.235 . S
C76 O82 1.287 . S
C76 O83 1.255 . S
O77 Fe66 1.976 . S
O77 C84 1.287 . S
O78 Fe67 1.996 . S
O78 C84 1.255 . S
O79 Fe69 1.976 . S
O79 C74 1.287 . S
O80 Fe66 1.996 . S
O80 C74 1.255 . S
C81 O85 1.295 . S
C81 O86 1.235 . S
O82 Fe67 1.976 . S
O82 C76 1.287 . S
O83 Fe69 1.996 . S
O83 C76 1.255 . S
C84 O77 1.287 . S
C84 O78 1.255 . S
O85 Fe67 2.002 . S
O85 C81 1.295 . S
O86 Fe69 1.997 . S
O86 C81 1.235 . S
C87 O70 1.295 . S
C87 O71 1.235 . S
C88 N89 1.317 . S
C88 N90 1.348 . S
C88 C91 1.485 . S
N89 C88 1.317 . S
N89 N93 1.370 . S
N90 C88 1.348 . S
N90 C92 1.346 . S
C91 C88 1.485 . S
C91 H95 0.960 . S
C91 H96 0.961 . S
C91 H97 0.960 . S
C92 N90 1.346 . S
C92 N93 1.307 . S
C92 C94 1.486 . S
N93 N89 1.370 . S
N93 C92 1.307 . S
C94 C92 1.486 . S
C94 H98 0.960 . S
C94 H99 0.960 . S
C94 H100 0.959 . S
H95 C91 0.960 . S
H96 C91 0.961 . S
H97 C91 0.960 . S
H98 C94 0.960 . S
H99 C94 0.960 . S
H100 C94 0.959 . S
C101 N102 1.317 . S
C101 N103 1.348 . S
C101 C104 1.485 . S
N102 C101 1.317 . S
N102 N106 1.370 . S
N103 C101 1.348 . S
N103 C105 1.346 . S
C104 C101 1.485 . S
C104 H108 0.960 . S
C104 H109 0.961 . S
C104 H110 0.960 . S
C105 N103 1.346 . S
C105 N106 1.307 . S
C105 C107 1.486 . S
N106 N102 1.370 . S
N106 C105 1.307 . S
C107 C105 1.486 . S
C107 H111 0.960 . S
C107 H112 0.960 . S
C107 H113 0.959 . S
H108 C104 0.960 . S
H109 C104 0.961 . S
H110 C104 0.960 . S
H111 C107 0.960 . S
H112 C107 0.960 . S
H113 C107 0.959 . S
C114 N115 1.317 . S
C114 N116 1.348 . S
C114 C117 1.485 . S
N115 C114 1.317 . S
N115 N119 1.370 . S
N116 C114 1.348 . S
N116 C118 1.346 . S
C117 C114 1.485 . S
C117 H121 0.960 . S
C117 H122 0.961 . S
C117 H123 0.960 . S
C118 N116 1.346 . S
C118 N119 1.307 . S
C118 C120 1.486 . S
N119 N115 1.370 . S
N119 C118 1.307 . S
C120 C118 1.486 . S
C120 H124 0.960 . S
C120 H125 0.960 . S
C120 H126 0.959 . S
H121 C117 0.960 . S
H122 C117 0.961 . S
H123 C117 0.960 . S
H124 C120 0.960 . S
H125 C120 0.960 . S
H126 C120 0.959 . S
C127 N128 1.317 . S
C127 N129 1.348 . S
C127 C130 1.485 . S
N128 C127 1.317 . S
N128 N132 1.370 . S
N129 C127 1.348 . S
N129 C131 1.346 . S
C130 C127 1.485 . S
C130 H134 0.960 . S
C130 H135 0.961 . S
C130 H136 0.960 . S
C131 N129 1.346 . S
C131 N132 1.307 . S
C131 C133 1.486 . S
N132 N128 1.370 . S
N132 C131 1.307 . S
C133 C131 1.486 . S
C133 H137 0.960 . S
C133 H138 0.960 . S
C133 H139 0.959 . S
H134 C130 0.960 . S
H135 C130 0.961 . S
H136 C130 0.960 . S
H137 C133 0.960 . S
H138 C133 0.960 . S
H139 C133 0.959 . S
C140 N141 1.317 . S
C140 N142 1.348 . S
C140 C143 1.485 . S
N141 C140 1.317 . S
N141 N145 1.370 . S
N142 C140 1.348 . S
N142 C144 1.346 . S
C143 C140 1.485 . S
C143 H147 0.960 . S
C143 H148 0.961 . S
C143 H149 0.960 . S
C144 N142 1.346 . S
C144 N145 1.307 . S
C144 C146 1.486 . S
N145 N141 1.370 . S
N145 C144 1.307 . S
C146 C144 1.486 . S
C146 H150 0.960 . S
C146 H151 0.960 . S
C146 H152 0.959 . S
H147 C143 0.960 . S
H148 C143 0.961 . S
H149 C143 0.960 . S
H150 C146 0.960 . S
H151 C146 0.960 . S
H152 C146 0.959 . S
C153 N154 1.317 . S
C153 N155 1.348 . S
C153 C156 1.485 . S
N154 C153 1.317 . S
N154 N158 1.370 . S
N155 C153 1.348 . S
N155 C157 1.346 . S
C156 C153 1.485 . S
C156 H160 0.960 . S
C156 H161 0.961 . S
C156 H162 0.960 . S
C157 N155 1.346 . S
C157 N158 1.307 . S
C157 C159 1.486 . S
N158 N154 1.370 . S
N158 C157 1.307 . S
C159 C157 1.486 . S
C159 H163 0.960 . S
C159 H164 0.960 . S
C159 H165 0.959 . S
H160 C156 0.960 . S
H161 C156 0.961 . S
H162 C156 0.960 . S
H163 C159 0.960 . S
H164 C159 0.960 . S
H165 C159 0.959 . S
C166 N167 1.317 . S
C166 N168 1.348 . S
C166 C169 1.485 . S
N167 C166 1.317 . S
N167 N171 1.370 . S
N168 C166 1.348 . S
N168 C170 1.346 . S
C169 C166 1.485 . S
C169 H173 0.960 . S
C169 H174 0.961 . S
C169 H175 0.960 . S
C170 N168 1.346 . S
C170 N171 1.307 . S
C170 C172 1.486 . S
N171 N167 1.370 . S
N171 C170 1.307 . S
C172 C170 1.486 . S
C172 H176 0.960 . S
C172 H177 0.960 . S
C172 H178 0.959 . S
H173 C169 0.960 . S
H174 C169 0.961 . S
H175 C169 0.960 . S
H176 C172 0.960 . S
H177 C172 0.960 . S
H178 C172 0.959 . S
C179 N180 1.317 . S
C179 N181 1.348 . S
C179 C182 1.485 . S
N180 C179 1.317 . S
N180 N184 1.370 . S
N181 C179 1.348 . S
N181 C183 1.346 . S
C182 C179 1.485 . S
C182 H186 0.960 . S
C182 H187 0.961 . S
C182 H188 0.960 . S
C183 N181 1.346 . S
C183 N184 1.307 . S
C183 C185 1.486 . S
N184 N180 1.370 . S
N184 C183 1.307 . S
C185 C183 1.486 . S
C185 H189 0.960 . S
C185 H190 0.960 . S
C185 H191 0.959 . S
H186 C182 0.960 . S
H187 C182 0.961 . S
H188 C182 0.960 . S
H189 C185 0.960 . S
H190 C185 0.960 . S
H191 C185 0.959 . S
H192 C210 0.951 . S
H193 C212 0.951 . S
H194 C214 0.950 . S
H195 C215 0.950 . S
H196 C217 0.950 . S
H197 C220 0.950 . S
H198 C221 0.950 . S
H199 C223 0.950 . S
H200 C224 0.950 1_545 S
H201 C225 0.951 . S
H202 C227 0.951 . S
H203 C229 0.950 . S
H204 C230 0.950 . S
H205 C232 0.950 . S
H206 C235 0.950 . S
H207 C236 0.950 . S
H208 C238 0.950 . S
H209 C239 0.950 . S
C210 H192 0.951 . S
C210 C211 1.366 . S
C210 C212 1.388 . S
C211 C210 1.366 . S
C211 C215 1.385 . S
C212 H193 0.951 . S
C212 C210 1.388 . S
C212 C213 1.366 . S
C213 C212 1.366 . S
C213 C214 1.414 . S
C213 C216 1.499 1_565 S
C214 H194 0.950 . S
C214 C213 1.414 . S
C214 C215 1.374 . S
C215 H195 0.950 . S
C215 C211 1.385 . S
C215 C214 1.374 . S
C216 C213 1.499 1_545 S
C216 C217 1.373 . S
C216 C218 1.389 . S
C217 H196 0.950 . S
C217 C216 1.373 . S
C217 C233 1.377 . S
C218 C216 1.389 . S
C218 C219 1.524 1_545 S
C218 C232 1.377 . S
C219 C218 1.524 1_565 S
C219 C220 1.397 . S
C219 C224 1.363 . S
C220 H197 0.950 . S
C220 C219 1.397 . S
C220 C221 1.334 . S
C221 H198 0.950 . S
C221 C220 1.334 . S
C221 C222 1.287 . S
C222 C221 1.287 . S
C222 C223 1.524 . S
C222 H241 0.913 . S
C223 H199 0.950 . S
C223 C222 1.524 . S
C223 C224 1.415 . S
C224 H200 0.950 1_565 S
C224 C219 1.363 . S
C224 C223 1.415 . S
C225 H201 0.951 . S
C225 C226 1.366 . S
C225 C227 1.388 . S
C226 C225 1.366 . S
C226 C230 1.385 . S
C227 H202 0.951 . S
C227 C225 1.388 . S
C227 C228 1.366 . S
C228 C227 1.366 . S
C228 C229 1.414 . S
C228 C231 1.499 . S
C229 H203 0.950 . S
C229 C228 1.414 . S
C229 C230 1.374 . S
C230 H204 0.950 . S
C230 C226 1.385 . S
C230 C229 1.374 . S
C231 C228 1.499 . S
C231 C232 1.373 . S
C231 C233 1.389 . S
C232 H205 0.950 . S
C232 C218 1.377 . S
C232 C231 1.373 . S
C233 C217 1.377 . S
C233 C231 1.389 . S
C233 C234 1.524 . S
C234 C233 1.524 . S
C234 C235 1.397 . S
C234 C239 1.363 . S
C235 H206 0.950 . S
C235 C234 1.397 . S
C235 C236 1.334 . S
C236 H207 0.950 . S
C236 C235 1.334 . S
C236 C237 1.287 . S
C237 C236 1.287 . S
C237 C238 1.524 . S
C237 H240 0.999 . S
C238 H208 0.950 . S
C238 C237 1.524 . S
C238 C239 1.415 . S
C239 H209 0.950 . S
C239 C234 1.363 . S
C239 C238 1.415 . S
H240 C237 0.999 . S
H241 C222 0.913 . S
H242 C260 0.951 . S
H243 C262 0.951 . S
H244 C264 0.950 . S
H245 C265 0.950 . S
H246 C267 0.950 . S
H247 C270 0.950 . S
H248 C271 0.950 . S
H249 C273 0.950 . S
H250 C274 0.950 . S
H251 C275 0.951 . S
H252 C277 0.951 . S
H253 C279 0.950 . S
H254 C280 0.950 . S
H255 C282 0.950 . S
H256 C285 0.950 . S
H257 C286 0.950 . S
H258 C288 0.950 . S
H259 C289 0.950 . S
C260 H242 0.951 . S
C260 C261 1.366 . S
C260 C262 1.388 . S
C261 C260 1.366 . S
C261 C265 1.385 . S
C262 H243 0.951 . S
C262 C260 1.388 . S
C262 C263 1.366 . S
C263 C262 1.366 . S
C263 C264 1.414 . S
C263 C266 1.499 . S
C264 H244 0.950 . S
C264 C263 1.414 . S
C264 C265 1.374 . S
C265 H245 0.950 . S
C265 C261 1.385 . S
C265 C264 1.374 . S
C266 C263 1.499 . S
C266 C267 1.373 . S
C266 C268 1.389 . S
C267 H246 0.950 . S
C267 C266 1.373 . S
C267 C283 1.377 . S
C268 C266 1.389 . S
C268 C269 1.524 . S
C268 C282 1.377 . S
C269 C268 1.524 . S
C269 C270 1.397 . S
C269 C274 1.363 . S
C270 H247 0.950 . S
C270 C269 1.397 . S
C270 C271 1.334 . S
C271 H248 0.950 . S
C271 C270 1.334 . S
C271 C272 1.287 . S
C272 C271 1.287 . S
C272 C273 1.524 . S
C272 H291 0.913 . S
C273 H249 0.950 . S
C273 C272 1.524 . S
C273 C274 1.415 . S
C274 H250 0.950 . S
C274 C269 1.363 . S
C274 C273 1.415 . S
C275 H251 0.951 . S
C275 C276 1.366 . S
C275 C277 1.388 . S
C276 C275 1.366 . S
C276 C280 1.385 . S
C277 H252 0.951 . S
C277 C275 1.388 . S
C277 C278 1.366 . S
C278 C277 1.366 . S
C278 C279 1.414 . S
C278 C281 1.499 . S
C279 H253 0.950 . S
C279 C278 1.414 . S
C279 C280 1.374 . S
C280 H254 0.950 . S
C280 C276 1.385 . S
C280 C279 1.374 . S
C281 C278 1.499 . S
C281 C282 1.373 . S
C281 C283 1.389 . S
C282 H255 0.950 . S
C282 C268 1.377 . S
C282 C281 1.373 . S
C283 C267 1.377 . S
C283 C281 1.389 . S
C283 C284 1.524 . S
C284 C283 1.524 . S
C284 C285 1.397 . S
C284 C289 1.363 . S
C285 H256 0.950 . S
C285 C284 1.397 . S
C285 C286 1.334 . S
C286 H257 0.950 . S
C286 C285 1.334 . S
C286 C287 1.287 . S
C287 C286 1.287 . S
C287 C288 1.524 . S
C287 H290 0.999 . S
C288 H258 0.950 . S
C288 C287 1.524 . S
C288 C289 1.415 . S
C289 H259 0.950 . S
C289 C284 1.363 . S
C289 C288 1.415 . S
H290 C287 0.999 . S
H291 C272 0.913 . S
H292 C310 0.951 . S
H293 C312 0.951 . S
H294 C314 0.950 . S
H295 C315 0.950 . S
H296 C317 0.950 . S
H297 C320 0.950 . S
H298 C321 0.950 . S
H299 C323 0.950 . S
H300 C324 0.950 1_565 S
H301 C325 0.951 . S
H302 C327 0.951 . S
H303 C329 0.950 . S
H304 C330 0.950 . S
H305 C332 0.950 . S
H306 C335 0.950 . S
H307 C336 0.950 . S
H308 C338 0.950 . S
H309 C339 0.950 . S
C310 H292 0.951 . S
C310 C311 1.366 . S
C310 C312 1.388 . S
C311 C310 1.366 . S
C311 C315 1.385 . S
C312 H293 0.951 . S
C312 C310 1.388 . S
C312 C313 1.366 . S
C313 C312 1.366 . S
C313 C314 1.414 . S
C313 C316 1.499 1_545 S
C314 H294 0.950 . S
C314 C313 1.414 . S
C314 C315 1.374 . S
C315 H295 0.950 . S
C315 C311 1.385 . S
C315 C314 1.374 . S
C316 C313 1.499 1_565 S
C316 C317 1.373 . S
C316 C318 1.389 . S
C317 H296 0.950 . S
C317 C316 1.373 . S
C317 C333 1.377 . S
C318 C316 1.389 . S
C318 C319 1.524 1_565 S
C318 C332 1.377 . S
C319 C318 1.524 1_545 S
C319 C320 1.397 . S
C319 C324 1.363 . S
C320 H297 0.950 . S
C320 C319 1.397 . S
C320 C321 1.334 . S
C321 H298 0.950 . S
C321 C320 1.334 . S
C321 C322 1.287 . S
C322 C321 1.287 . S
C322 C323 1.524 . S
C322 H341 0.913 . S
C323 H299 0.950 . S
C323 C322 1.524 . S
C323 C324 1.415 . S
C324 H300 0.950 1_545 S
C324 C319 1.363 . S
C324 C323 1.415 . S
C325 H301 0.951 . S
C325 C326 1.366 . S
C325 C327 1.388 . S
C326 C325 1.366 . S
C326 C330 1.385 . S
C327 H302 0.951 . S
C327 C325 1.388 . S
C327 C328 1.366 . S
C328 C327 1.366 . S
C328 C329 1.414 . S
C328 C331 1.499 . S
C329 H303 0.950 . S
C329 C328 1.414 . S
C329 C330 1.374 . S
C330 H304 0.950 . S
C330 C326 1.385 . S
C330 C329 1.374 . S
C331 C328 1.499 . S
C331 C332 1.373 . S
C331 C333 1.389 . S
C332 H305 0.950 . S
C332 C318 1.377 . S
C332 C331 1.373 . S
C333 C317 1.377 . S
C333 C331 1.389 . S
C333 C334 1.524 . S
C334 C333 1.524 . S
C334 C335 1.397 . S
C334 C339 1.363 . S
C335 H306 0.950 . S
C335 C334 1.397 . S
C335 C336 1.334 . S
C336 H307 0.950 . S
C336 C335 1.334 . S
C336 C337 1.287 . S
C337 C336 1.287 . S
C337 C338 1.524 . S
C337 H340 0.999 . S
C338 H308 0.950 . S
C338 C337 1.524 . S
C338 C339 1.415 . S
C339 H309 0.950 . S
C339 C334 1.363 . S
C339 C338 1.415 . S
H340 C337 0.999 . S
H341 C322 0.913 . S
H342 C360 0.951 . S
H343 C362 0.951 . S
H344 C364 0.950 . S
H345 C365 0.950 . S
H346 C367 0.950 . S
H347 C370 0.950 . S
H348 C371 0.950 . S
H349 C373 0.950 . S
H350 C374 0.950 . S
H351 C375 0.951 . S
H352 C377 0.951 . S
H353 C379 0.950 . S
H354 C380 0.950 . S
H355 C382 0.950 . S
H356 C385 0.950 . S
H357 C386 0.950 . S
H358 C388 0.950 . S
H359 C389 0.950 . S
C360 H342 0.951 . S
C360 C361 1.366 . S
C360 C362 1.388 . S
C361 C360 1.366 . S
C361 C365 1.385 . S
C362 H343 0.951 . S
C362 C360 1.388 . S
C362 C363 1.366 . S
C363 C362 1.366 . S
C363 C364 1.414 . S
C363 C366 1.499 . S
C364 H344 0.950 . S
C364 C363 1.414 . S
C364 C365 1.374 . S
C365 H345 0.950 . S
C365 C361 1.385 . S
C365 C364 1.374 . S
C366 C363 1.499 . S
C366 C367 1.373 . S
C366 C368 1.389 . S
C367 H346 0.950 . S
C367 C366 1.373 . S
C367 C383 1.377 . S
C368 C366 1.389 . S
C368 C369 1.524 . S
C368 C382 1.377 . S
C369 C368 1.524 . S
C369 C370 1.397 . S
C369 C374 1.363 . S
C370 H347 0.950 . S
C370 C369 1.397 . S
C370 C371 1.334 . S
C371 H348 0.950 . S
C371 C370 1.334 . S
C371 C372 1.287 . S
C372 C371 1.287 . S
C372 C373 1.524 . S
C372 H391 0.913 . S
C373 H349 0.950 . S
C373 C372 1.524 . S
C373 C374 1.415 . S
C374 H350 0.950 . S
C374 C369 1.363 . S
C374 C373 1.415 . S
C375 H351 0.951 . S
C375 C376 1.366 . S
C375 C377 1.388 . S
C376 C375 1.366 . S
C376 C380 1.385 . S
C377 H352 0.951 . S
C377 C375 1.388 . S
C377 C378 1.366 . S
C378 C377 1.366 . S
C378 C379 1.414 . S
C378 C381 1.499 . S
C379 H353 0.950 . S
C379 C378 1.414 . S
C379 C380 1.374 . S
C380 H354 0.950 . S
C380 C376 1.385 . S
C380 C379 1.374 . S
C381 C378 1.499 . S
C381 C382 1.373 . S
C381 C383 1.389 . S
C382 H355 0.950 . S
C382 C368 1.377 . S
C382 C381 1.373 . S
C383 C367 1.377 . S
C383 C381 1.389 . S
C383 C384 1.524 . S
C384 C383 1.524 . S
C384 C385 1.397 . S
C384 C389 1.363 . S
C385 H356 0.950 . S
C385 C384 1.397 . S
C385 C386 1.334 . S
C386 H357 0.950 . S
C386 C385 1.334 . S
C386 C387 1.287 . S
C387 C386 1.287 . S
C387 C388 1.524 . S
C387 H390 0.999 . S
C388 H358 0.950 . S
C388 C387 1.524 . S
C388 C389 1.415 . S
C389 H359 0.950 . S
C389 C384 1.363 . S
C389 C388 1.415 . S
H390 C387 0.999 . S
H391 C372 0.913 . S
H392 C410 0.951 . S
H393 C412 0.951 . S
H394 C414 0.950 . S
H395 C415 0.950 . S
H396 C417 0.950 . S
H397 C420 0.950 . S
H398 C421 0.950 . S
H399 C423 0.950 . S
H400 C424 0.950 . S
H401 C425 0.951 . S
H402 C427 0.951 . S
H403 C429 0.950 . S
H404 C430 0.950 . S
H405 C432 0.950 . S
H406 C435 0.950 . S
H407 C436 0.950 . S
H408 C438 0.950 . S
H409 C439 0.950 . S
C410 H392 0.951 . S
C410 C411 1.366 . S
C410 C412 1.388 . S
C411 C410 1.366 . S
C411 C415 1.385 . S
C412 H393 0.951 . S
C412 C410 1.388 . S
C412 C413 1.366 . S
C413 C412 1.366 . S
C413 C414 1.414 . S
C413 C416 1.499 . S
C414 H394 0.950 . S
C414 C413 1.414 . S
C414 C415 1.374 . S
C415 H395 0.950 . S
C415 C411 1.385 . S
C415 C414 1.374 . S
C416 C413 1.499 . S
C416 C417 1.373 . S
C416 C418 1.389 . S
C417 H396 0.950 . S
C417 C416 1.373 . S
C417 C433 1.377 . S
C418 C416 1.389 . S
C418 C419 1.524 . S
C418 C432 1.377 . S
C419 C418 1.524 . S
C419 C420 1.397 . S
C419 C424 1.363 . S
C420 H397 0.950 . S
C420 C419 1.397 . S
C420 C421 1.334 . S
C421 H398 0.950 . S
C421 C420 1.334 . S
C421 C422 1.287 . S
C422 C421 1.287 . S
C422 C423 1.524 . S
C422 H441 0.913 . S
C423 H399 0.950 . S
C423 C422 1.524 . S
C423 C424 1.415 . S
C424 H400 0.950 . S
C424 C419 1.363 . S
C424 C423 1.415 . S
C425 H401 0.951 . S
C425 C426 1.366 . S
C425 C427 1.388 . S
C426 C425 1.366 . S
C426 C430 1.385 . S
C427 H402 0.951 . S
C427 C425 1.388 . S
C427 C428 1.366 . S
C428 C427 1.366 . S
C428 C429 1.414 . S
C428 C431 1.499 . S
C429 H403 0.950 . S
C429 C428 1.414 . S
C429 C430 1.374 . S
C430 H404 0.950 . S
C430 C426 1.385 . S
C430 C429 1.374 . S
C431 C428 1.499 . S
C431 C432 1.373 . S
C431 C433 1.389 . S
C432 H405 0.950 . S
C432 C418 1.377 . S
C432 C431 1.373 . S
C433 C417 1.377 . S
C433 C431 1.389 . S
C433 C434 1.524 . S
C434 C433 1.524 . S
C434 C435 1.397 . S
C434 C439 1.363 . S
C435 H406 0.950 . S
C435 C434 1.397 . S
C435 C436 1.334 . S
C436 H407 0.950 . S
C436 C435 1.334 . S
C436 C437 1.287 . S
C437 C436 1.287 . S
C437 C438 1.524 . S
C437 H440 0.999 . S
C438 H408 0.950 . S
C438 C437 1.524 . S
C438 C439 1.415 . S
C439 H409 0.950 . S
C439 C434 1.363 . S
C439 C438 1.415 . S
H440 C437 0.999 . S
H441 C422 0.913 . S
H442 C460 0.975 . S
H443 C462 0.951 1_455 S
H444 C464 0.950 . S
H445 C465 0.950 . S
H446 C467 0.950 . S
H447 C470 0.950 . S
H448 C471 0.950 1_655 S
H449 C473 0.950 1_554 S
H450 C474 0.950 . S
H451 C475 0.951 . S
H452 C477 0.951 . S
H453 C479 0.950 . S
H454 C480 0.950 . S
H455 C482 0.950 . S
H456 C485 0.950 . S
H457 C486 0.950 . S
H458 C488 0.950 . S
H459 C489 0.950 . S
C460 H442 0.975 . S
C460 C461 1.366 . S
C460 C462 1.388 . S
C461 C460 1.366 . S
C461 C465 1.385 . S
C462 H443 0.951 1_655 S
C462 C460 1.388 . S
C462 C463 1.372 . S
C463 C462 1.372 . S
C463 C464 1.448 . S
C463 C466 1.460 1_655 S
C464 H444 0.950 . S
C464 C463 1.448 . S
C464 C465 1.374 . S
C465 H445 0.950 . S
C465 C461 1.385 . S
C465 C464 1.374 . S
C466 C463 1.460 1_455 S
C466 C467 1.373 . S
C466 C468 1.389 . S
C467 H446 0.950 . S
C467 C466 1.373 . S
C467 C483 1.377 . S
C468 C466 1.389 . S
C468 C469 1.524 . S
C468 C482 1.377 . S
C469 C468 1.524 . S
C469 C470 1.397 . S
C469 C474 1.363 . S
C470 H447 0.950 . S
C470 C469 1.397 . S
C470 C471 1.334 . S
C471 H448 0.950 1_455 S
C471 C470 1.334 . S
C471 C472 1.287 . S
C472 C471 1.287 . S
C472 C473 1.524 . S
C472 H491 0.913 . S
C473 H449 0.950 1_556 S
C473 C472 1.524 . S
C473 C474 1.415 . S
C474 H450 0.950 . S
C474 C469 1.363 . S
C474 C473 1.415 . S
C475 H451 0.951 . S
C475 C476 1.366 . S
C475 C477 1.388 . S
C476 C475 1.366 . S
C476 C480 1.385 . S
C477 H452 0.951 . S
C477 C475 1.388 . S
C477 C478 1.366 . S
C478 C477 1.366 . S
C478 C479 1.414 . S
C478 C481 1.499 . S
C479 H453 0.950 . S
C479 C478 1.414 . S
C479 C480 1.374 . S
C480 H454 0.950 . S
C480 C476 1.385 . S
C480 C479 1.374 . S
C481 C478 1.499 . S
C481 C482 1.373 . S
C481 C483 1.389 . S
C482 H455 0.950 . S
C482 C468 1.377 . S
C482 C481 1.373 . S
C483 C467 1.377 . S
C483 C481 1.389 . S
C483 C484 1.524 . S
C484 C483 1.524 . S
C484 C485 1.397 . S
C484 C489 1.363 . S
C485 H456 0.950 . S
C485 C484 1.397 . S
C485 C486 1.334 . S
C486 H457 0.950 . S
C486 C485 1.334 . S
C486 C487 1.287 . S
C487 C486 1.287 . S
C487 C488 1.524 . S
C487 H490 0.999 . S
C488 H458 0.950 . S
C488 C487 1.524 . S
C488 C489 1.415 . S
C489 H459 0.950 . S
C489 C484 1.363 . S
C489 C488 1.415 . S
H490 C487 0.999 . S
H491 C472 0.913 . S
H492 C510 0.951 . S
H493 C512 0.951 . S
H494 C514 0.950 . S
H495 C515 0.950 . S
H496 C517 0.950 . S
H497 C520 0.950 . S
H498 C521 0.950 . S
H499 C523 0.950 . S
H500 C524 0.950 . S
H501 C525 0.951 . S
H502 C527 0.951 . S
H503 C529 0.950 . S
H504 C530 0.950 . S
H505 C532 0.950 . S
H506 C535 0.950 . S
H507 C536 0.950 . S
H508 C538 0.950 . S
H509 C539 0.950 . S
C510 H492 0.951 . S
C510 C511 1.366 . S
C510 C512 1.388 . S
C511 C510 1.366 . S
C511 C515 1.385 . S
C512 H493 0.951 . S
C512 C510 1.388 . S
C512 C513 1.366 . S
C513 C512 1.366 . S
C513 C514 1.414 . S
C513 C516 1.499 . S
C514 H494 0.950 . S
C514 C513 1.414 . S
C514 C515 1.374 . S
C515 H495 0.950 . S
C515 C511 1.385 . S
C515 C514 1.374 . S
C516 C513 1.499 . S
C516 C517 1.373 . S
C516 C518 1.389 . S
C517 H496 0.950 . S
C517 C516 1.373 . S
C517 C533 1.377 . S
C518 C516 1.389 . S
C518 C519 1.524 . S
C518 C532 1.377 . S
C519 C518 1.524 . S
C519 C520 1.397 . S
C519 C524 1.363 . S
C520 H497 0.950 . S
C520 C519 1.397 . S
C520 C521 1.334 . S
C521 H498 0.950 . S
C521 C520 1.334 . S
C521 C522 1.287 . S
C522 C521 1.287 . S
C522 C523 1.524 . S
C522 H541 0.913 . S
C523 H499 0.950 . S
C523 C522 1.524 . S
C523 C524 1.415 . S
C524 H500 0.950 . S
C524 C519 1.363 . S
C524 C523 1.415 . S
C525 H501 0.951 . S
C525 C526 1.366 . S
C525 C527 1.388 . S
C526 C525 1.366 . S
C526 C530 1.385 . S
C527 H502 0.951 . S
C527 C525 1.388 . S
C527 C528 1.366 . S
C528 C527 1.366 . S
C528 C529 1.414 . S
C528 C531 1.499 . S
C529 H503 0.950 . S
C529 C528 1.414 . S
C529 C530 1.374 . S
C530 H504 0.950 . S
C530 C526 1.385 . S
C530 C529 1.374 . S
C531 C528 1.499 . S
C531 C532 1.373 . S
C531 C533 1.389 . S
C532 H505 0.950 . S
C532 C518 1.377 . S
C532 C531 1.373 . S
C533 C517 1.377 . S
C533 C531 1.389 . S
C533 C534 1.524 . S
C534 C533 1.524 . S
C534 C535 1.397 . S
C534 C539 1.363 . S
C535 H506 0.950 . S
C535 C534 1.397 . S
C535 C536 1.334 . S
C536 H507 0.950 . S
C536 C535 1.334 . S
C536 C537 1.287 . S
C537 C536 1.287 . S
C537 C538 1.524 . S
C537 H540 0.999 . S
C538 H508 0.950 . S
C538 C537 1.524 . S
C538 C539 1.415 . S
C539 H509 0.950 . S
C539 C534 1.363 . S
C539 C538 1.415 . S
H540 C537 0.999 . S
H541 C522 0.913 . S
H542 C560 0.951 . S
H543 C562 0.951 . S
H544 C564 0.950 . S
H545 C565 0.950 . S
H546 C567 0.950 . S
H547 C570 0.950 . S
H548 C571 0.950 . S
H549 C573 0.950 . S
H550 C574 0.950 . S
H551 C575 0.951 . S
H552 C577 0.951 . S
H553 C579 0.950 . S
H554 C580 0.950 . S
H555 C582 0.950 . S
H556 C585 0.950 . S
H557 C586 0.950 . S
H558 C588 0.950 . S
H559 C589 0.950 . S
C560 H542 0.951 . S
C560 C561 1.366 . S
C560 C562 1.388 . S
C561 C560 1.366 . S
C561 C565 1.385 . S
C562 H543 0.951 . S
C562 C560 1.388 . S
C562 C563 1.366 . S
C563 C562 1.366 . S
C563 C564 1.414 . S
C563 C566 1.499 . S
C564 H544 0.950 . S
C564 C563 1.414 . S
C564 C565 1.374 . S
C565 H545 0.950 . S
C565 C561 1.385 . S
C565 C564 1.374 . S
C566 C563 1.499 . S
C566 C567 1.373 . S
C566 C568 1.389 1_455 S
C567 H546 0.950 . S
C567 C566 1.373 . S
C567 C583 1.377 1_455 S
C568 C566 1.389 1_655 S
C568 C569 1.524 . S
C568 C582 1.377 . S
C569 C568 1.524 . S
C569 C570 1.397 1_655 S
C569 C574 1.363 . S
C570 H547 0.950 . S
C570 C569 1.397 1_455 S
C570 C571 1.334 . S
C571 H548 0.950 . S
C571 C570 1.334 . S
C571 C572 1.287 1_455 S
C572 C571 1.287 1_655 S
C572 C573 1.524 . S
C572 H591 0.913 . S
C573 H549 0.950 . S
C573 C572 1.524 . S
C573 C574 1.415 . S
C574 H550 0.950 . S
C574 C569 1.363 . S
C574 C573 1.415 . S
C575 H551 0.951 . S
C575 C576 1.366 . S
C575 C577 1.388 . S
C576 C575 1.366 . S
C576 C580 1.385 . S
C577 H552 0.951 . S
C577 C575 1.388 . S
C577 C578 1.366 . S
C578 C577 1.366 . S
C578 C579 1.414 . S
C578 C581 1.499 . S
C579 H553 0.950 . S
C579 C578 1.414 . S
C579 C580 1.374 . S
C580 H554 0.950 . S
C580 C576 1.385 . S
C580 C579 1.374 . S
C581 C578 1.499 . S
C581 C582 1.373 . S
C581 C583 1.389 . S
C582 H555 0.950 . S
C582 C568 1.377 . S
C582 C581 1.373 . S
C583 C567 1.377 1_655 S
C583 C581 1.389 . S
C583 C584 1.524 . S
C584 C583 1.524 . S
C584 C585 1.397 . S
C584 C589 1.363 1_655 S
C585 H556 0.950 . S
C585 C584 1.397 . S
C585 C586 1.334 . S
C586 H557 0.950 . S
C586 C585 1.334 . S
C586 C587 1.287 . S
C587 C586 1.287 . S
C587 C588 1.524 1_655 S
C587 H590 0.999 . S
C588 H558 0.950 . S
C588 C587 1.524 1_455 S
C588 C589 1.415 . S
C589 H559 0.950 . S
C589 C584 1.363 1_455 S
C589 C588 1.415 . S
H590 C587 0.999 . S
H591 C572 0.913 . S
H592 C610 0.951 . S
H593 C612 0.951 . S
H594 C614 0.950 . S
H595 C615 0.950 . S
H596 C617 0.950 . S
H597 C620 0.950 . S
H598 C621 0.950 . S
H599 C623 0.950 . S
H600 C624 0.950 1_565 S
H601 C625 0.951 . S
H602 C627 0.951 . S
H603 C629 0.950 . S
H604 C630 0.950 . S
H605 C632 0.950 . S
H606 C635 0.950 . S
H607 C636 0.950 . S
H608 C638 0.950 . S
H609 C639 0.950 . S
C610 H592 0.951 . S
C610 C611 1.366 . S
C610 C612 1.388 . S
C611 C610 1.366 . S
C611 C615 1.385 . S
C612 H593 0.951 . S
C612 C610 1.388 . S
C612 C613 1.366 . S
C613 C612 1.366 . S
C613 C614 1.414 . S
C613 C616 1.499 1_545 S
C614 H594 0.950 . S
C614 C613 1.414 . S
C614 C615 1.374 . S
C615 H595 0.950 . S
C615 C611 1.385 . S
C615 C614 1.374 . S
C616 C613 1.499 1_565 S
C616 C617 1.373 . S
C616 C618 1.389 . S
C617 H596 0.950 . S
C617 C616 1.373 . S
C617 C633 1.377 . S
C618 C616 1.389 . S
C618 C619 1.524 1_565 S
C618 C632 1.377 . S
C619 C618 1.524 1_545 S
C619 C620 1.397 . S
C619 C624 1.363 . S
C620 H597 0.950 . S
C620 C619 1.397 . S
C620 C621 1.334 . S
C621 H598 0.950 . S
C621 C620 1.334 . S
C621 C622 1.287 . S
C622 C621 1.287 . S
C622 C623 1.524 . S
C622 H641 0.913 . S
C623 H599 0.950 . S
C623 C622 1.524 . S
C623 C624 1.415 . S
C624 H600 0.950 1_545 S
C624 C619 1.363 . S
C624 C623 1.415 . S
C625 H601 0.951 . S
C625 C626 1.366 . S
C625 C627 1.388 . S
C626 C625 1.366 . S
C626 C630 1.385 . S
C627 H602 0.951 . S
C627 C625 1.388 . S
C627 C628 1.366 . S
C628 C627 1.366 . S
C628 C629 1.414 . S
C628 C631 1.499 . S
C629 H603 0.950 . S
C629 C628 1.414 . S
C629 C630 1.374 . S
C630 H604 0.950 . S
C630 C626 1.385 . S
C630 C629 1.374 . S
C631 C628 1.499 . S
C631 C632 1.373 . S
C631 C633 1.389 . S
C632 H605 0.950 . S
C632 C618 1.377 . S
C632 C631 1.373 . S
C633 C617 1.377 . S
C633 C631 1.389 . S
C633 C634 1.524 . S
C634 C633 1.524 . S
C634 C635 1.397 . S
C634 C639 1.363 . S
C635 H606 0.950 . S
C635 C634 1.397 . S
C635 C636 1.334 . S
C636 H607 0.950 . S
C636 C635 1.334 . S
C636 C637 1.287 . S
C637 C636 1.287 . S
C637 C638 1.524 . S
C637 H640 0.999 . S
C638 H608 0.950 . S
C638 C637 1.524 . S
C638 C639 1.415 . S
C639 H609 0.950 . S
C639 C634 1.363 . S
C639 C638 1.415 . S
H640 C637 0.999 . S
H641 C622 0.913 . S
H642 C660 0.951 . S
H643 C662 0.951 . S
H644 C664 0.950 . S
H645 C665 0.950 . S
H646 C667 0.950 . S
H647 C670 0.950 . S
H648 C671 0.950 . S
H649 C673 0.950 . S
H650 C674 0.950 . S
H651 C675 0.951 . S
H652 C677 0.951 . S
H653 C679 0.950 . S
H654 C680 0.950 . S
H655 C682 0.950 . S
H656 C685 0.950 . S
H657 C686 0.950 . S
H658 C688 0.950 . S
H659 C689 0.950 . S
C660 H642 0.951 . S
C660 C661 1.366 . S
C660 C662 1.388 . S
C661 C660 1.366 . S
C661 C665 1.385 . S
C662 H643 0.951 . S
C662 C660 1.388 . S
C662 C663 1.366 . S
C663 C662 1.366 . S
C663 C664 1.414 . S
C663 C666 1.499 . S
C664 H644 0.950 . S
C664 C663 1.414 . S
C664 C665 1.374 . S
C665 H645 0.950 . S
C665 C661 1.385 . S
C665 C664 1.374 . S
C666 C663 1.499 . S
C666 C667 1.373 . S
C666 C668 1.389 . S
C667 H646 0.950 . S
C667 C666 1.373 . S
C667 C683 1.377 . S
C668 C666 1.389 . S
C668 C669 1.524 . S
C668 C682 1.377 . S
C669 C668 1.524 . S
C669 C670 1.397 . S
C669 C674 1.363 . S
C670 H647 0.950 . S
C670 C669 1.397 . S
C670 C671 1.334 . S
C671 H648 0.950 . S
C671 C670 1.334 . S
C671 C672 1.287 . S
C672 C671 1.287 . S
C672 C673 1.524 . S
C672 H691 0.913 . S
C673 H649 0.950 . S
C673 C672 1.524 . S
C673 C674 1.415 . S
C674 H650 0.950 . S
C674 C669 1.363 . S
C674 C673 1.415 . S
C675 H651 0.951 . S
C675 C676 1.366 . S
C675 C677 1.388 . S
C676 C675 1.366 . S
C676 C680 1.385 . S
C677 H652 0.951 . S
C677 C675 1.388 . S
C677 C678 1.366 . S
C678 C677 1.366 . S
C678 C679 1.414 . S
C678 C681 1.499 . S
C679 H653 0.950 . S
C679 C678 1.414 . S
C679 C680 1.374 . S
C680 H654 0.950 . S
C680 C676 1.385 . S
C680 C679 1.374 . S
C681 C678 1.499 . S
C681 C682 1.373 . S
C681 C683 1.389 . S
C682 H655 0.950 . S
C682 C668 1.377 . S
C682 C681 1.373 . S
C683 C667 1.377 . S
C683 C681 1.389 . S
C683 C684 1.524 . S
C684 C683 1.524 . S
C684 C685 1.397 . S
C684 C689 1.363 . S
C685 H656 0.950 . S
C685 C684 1.397 . S
C685 C686 1.334 . S
C686 H657 0.950 . S
C686 C685 1.334 . S
C686 C687 1.287 . S
C687 C686 1.287 . S
C687 C688 1.524 . S
C687 H690 0.999 . S
C688 H658 0.950 . S
C688 C687 1.524 . S
C688 C689 1.415 . S
C689 H659 0.950 . S
C689 C684 1.363 . S
C689 C688 1.415 . S
H690 C687 0.999 . S
H691 C672 0.913 . S
H692 C710 0.951 1_554 S
H693 C712 0.951 . S
H694 C714 0.950 . S
H695 C715 0.950 . S
H696 C717 0.950 1_565 S
H697 C720 0.950 . S
H698 C721 0.950 . S
H699 C723 0.950 . S
H700 C724 0.950 1_556 S
H701 C725 0.951 . S
H702 C727 0.951 . S
H703 C729 0.950 . S
H704 C730 0.950 . S
H705 C732 0.950 . S
H706 C735 0.950 . S
H707 C736 0.950 . S
H708 C738 0.950 . S
H709 C739 0.950 . S
C710 H692 0.951 1_556 S
C710 C711 1.366 . S
C710 C712 1.388 . S
C711 C710 1.366 . S
C711 C715 1.385 . S
C712 H693 0.951 . S
C712 C710 1.388 . S
C712 C713 1.366 . S
C713 C712 1.366 . S
C713 C714 1.414 . S
C713 C716 1.499 1_565 S
C714 H694 0.950 . S
C714 C713 1.414 . S
C714 C715 1.374 . S
C715 H695 0.950 . S
C715 C711 1.385 . S
C715 C714 1.374 . S
C716 C713 1.499 1_545 S
C716 C717 1.373 . S
C716 C718 1.389 . S
C717 H696 0.950 1_545 S
C717 C716 1.373 . S
C717 C733 1.377 . S
C718 C716 1.389 . S
C718 C719 1.524 . S
C718 C732 1.377 . S
C719 C718 1.524 . S
C719 C720 1.397 . S
C719 C724 1.363 1_556 S
C720 H697 0.950 . S
C720 C719 1.397 . S
C720 C721 1.334 1_556 S
C721 H698 0.950 . S
C721 C720 1.334 1_554 S
C721 C722 1.287 . S
C722 C721 1.287 . S
C722 C723 1.524 . S
C722 H741 0.913 . S
C723 H699 0.950 . S
C723 C722 1.524 . S
C723 C724 1.415 . S
C724 H700 0.950 1_554 S
C724 C719 1.363 1_554 S
C724 C723 1.415 . S
C725 H701 0.951 . S
C725 C726 1.366 . S
C725 C727 1.388 . S
C726 C725 1.366 . S
C726 C730 1.385 . S
C727 H702 0.951 . S
C727 C725 1.388 . S
C727 C728 1.366 . S
C728 C727 1.366 . S
C728 C729 1.414 . S
C728 C731 1.499 . S
C729 H703 0.950 . S
C729 C728 1.414 . S
C729 C730 1.374 . S
C730 H704 0.950 . S
C730 C726 1.385 . S
C730 C729 1.374 . S
C731 C728 1.499 . S
C731 C732 1.373 . S
C731 C733 1.389 . S
C732 H705 0.950 . S
C732 C718 1.377 . S
C732 C731 1.373 . S
C733 C717 1.377 . S
C733 C731 1.389 . S
C733 C734 1.524 . S
C734 C733 1.524 . S
C734 C735 1.397 . S
C734 C739 1.363 . S
C735 H706 0.950 . S
C735 C734 1.397 . S
C735 C736 1.334 . S
C736 H707 0.950 . S
C736 C735 1.334 . S
C736 C737 1.287 . S
C737 C736 1.287 . S
C737 C738 1.524 . S
C737 H740 0.999 . S
C738 H708 0.950 . S
C738 C737 1.524 . S
C738 C739 1.415 . S
C739 H709 0.950 . S
C739 C734 1.363 . S
C739 C738 1.415 . S
H740 C737 0.999 . S
H741 C722 0.913 . S
H742 C760 0.951 . S
H743 C762 0.951 . S
H744 C764 0.950 . S
H745 C765 0.950 . S
H746 C767 0.950 . S
H747 C770 0.950 . S
H748 C771 0.950 . S
H749 C773 0.950 . S
H750 C774 0.950 . S
H751 C775 0.951 . S
H752 C777 0.951 . S
H753 C779 0.950 . S
H754 C780 0.950 . S
H755 C782 0.950 . S
H756 C785 0.950 . S
H757 C786 0.950 . S
H758 C788 0.950 . S
H759 C789 0.950 . S
C760 H742 0.951 . S
C760 C761 1.366 . S
C760 C762 1.388 . S
C761 C760 1.366 . S
C761 C765 1.385 . S
C762 H743 0.951 . S
C762 C760 1.388 . S
C762 C763 1.366 . S
C763 C762 1.366 . S
C763 C764 1.414 . S
C763 C766 1.499 . S
C764 H744 0.950 . S
C764 C763 1.414 . S
C764 C765 1.374 . S
C765 H745 0.950 . S
C765 C761 1.385 . S
C765 C764 1.374 . S
C766 C763 1.499 . S
C766 C767 1.373 . S
C766 C768 1.389 . S
C767 H746 0.950 . S
C767 C766 1.373 . S
C767 C783 1.377 . S
C768 C766 1.389 . S
C768 C769 1.524 . S
C768 C782 1.377 . S
C769 C768 1.524 . S
C769 C770 1.397 . S
C769 C774 1.363 . S
C770 H747 0.950 . S
C770 C769 1.397 . S
C770 C771 1.334 . S
C771 H748 0.950 . S
C771 C770 1.334 . S
C771 C772 1.287 . S
C772 C771 1.287 . S
C772 C773 1.524 . S
C772 H791 0.913 . S
C773 H749 0.950 . S
C773 C772 1.524 . S
C773 C774 1.415 . S
C774 H750 0.950 . S
C774 C769 1.363 . S
C774 C773 1.415 . S
C775 H751 0.951 . S
C775 C776 1.366 . S
C775 C777 1.388 . S
C776 C775 1.366 . S
C776 C780 1.385 . S
C777 H752 0.951 . S
C777 C775 1.388 . S
C777 C778 1.366 . S
C778 C777 1.366 . S
C778 C779 1.414 . S
C778 C781 1.499 . S
C779 H753 0.950 . S
C779 C778 1.414 . S
C779 C780 1.374 . S
C780 H754 0.950 . S
C780 C776 1.385 . S
C780 C779 1.374 . S
C781 C778 1.499 . S
C781 C782 1.373 . S
C781 C783 1.389 . S
C782 H755 0.950 . S
C782 C768 1.377 . S
C782 C781 1.373 . S
C783 C767 1.377 . S
C783 C781 1.389 . S
C783 C784 1.524 . S
C784 C783 1.524 . S
C784 C785 1.397 . S
C784 C789 1.363 . S
C785 H756 0.950 . S
C785 C784 1.397 . S
C785 C786 1.334 . S
C786 H757 0.950 . S
C786 C785 1.334 . S
C786 C787 1.287 . S
C787 C786 1.287 . S
C787 C788 1.524 . S
C787 H790 0.999 . S
C788 H758 0.950 . S
C788 C787 1.524 . S
C788 C789 1.415 . S
C789 H759 0.950 . S
C789 C784 1.363 . S
C789 C788 1.415 . S
H790 C787 0.999 . S
H791 C772 0.913 . S
H792 C810 0.951 . S
H793 C812 0.951 . S
H794 C814 0.950 . S
H795 C815 0.950 . S
H796 C817 0.950 . S
H797 C820 0.950 . S
H798 C821 0.950 . S
H799 C823 0.950 . S
H800 C824 0.950 . S
H801 C825 0.951 . S
H802 C827 0.951 . S
H803 C829 0.950 . S
H804 C830 0.950 . S
H805 C832 0.950 . S
H806 C835 0.950 . S
H807 C836 0.950 . S
H808 C838 0.950 . S
H809 C839 0.950 . S
C810 H792 0.951 . S
C810 C811 1.366 . S
C810 C812 1.388 . S
C811 C810 1.366 . S
C811 C815 1.385 . S
C812 H793 0.951 . S
C812 C810 1.388 . S
C812 C813 1.366 . S
C813 C812 1.366 . S
C813 C814 1.414 . S
C813 C816 1.499 . S
C814 H794 0.950 . S
C814 C813 1.414 . S
C814 C815 1.374 . S
C815 H795 0.950 . S
C815 C811 1.385 . S
C815 C814 1.374 . S
C816 C813 1.499 . S
C816 C817 1.373 . S
C816 C818 1.389 . S
C817 H796 0.950 . S
C817 C816 1.373 . S
C817 C833 1.377 . S
C818 C816 1.389 . S
C818 C819 1.524 . S
C818 C832 1.377 . S
C819 C818 1.524 . S
C819 C820 1.397 . S
C819 C824 1.363 . S
C820 H797 0.950 . S
C820 C819 1.397 . S
C820 C821 1.334 . S
C821 H798 0.950 . S
C821 C820 1.334 . S
C821 C822 1.287 . S
C822 C821 1.287 . S
C822 C823 1.524 . S
C822 H841 0.913 . S
C823 H799 0.950 . S
C823 C822 1.524 . S
C823 C824 1.415 . S
C824 H800 0.950 . S
C824 C819 1.363 . S
C824 C823 1.415 . S
C825 H801 0.951 . S
C825 C826 1.366 . S
C825 C827 1.388 . S
C826 C825 1.366 . S
C826 C830 1.385 . S
C827 H802 0.951 . S
C827 C825 1.388 . S
C827 C828 1.366 . S
C828 C827 1.366 . S
C828 C829 1.414 . S
C828 C831 1.499 . S
C829 H803 0.950 . S
C829 C828 1.414 . S
C829 C830 1.374 . S
C830 H804 0.950 . S
C830 C826 1.385 . S
C830 C829 1.374 . S
C831 C828 1.499 . S
C831 C832 1.373 . S
C831 C833 1.389 . S
C832 H805 0.950 . S
C832 C818 1.377 . S
C832 C831 1.373 . S
C833 C817 1.377 . S
C833 C831 1.389 . S
C833 C834 1.524 . S
C834 C833 1.524 . S
C834 C835 1.397 . S
C834 C839 1.363 . S
C835 H806 0.950 . S
C835 C834 1.397 . S
C835 C836 1.334 . S
C836 H807 0.950 . S
C836 C835 1.334 . S
C836 C837 1.287 . S
C837 C836 1.287 . S
C837 C838 1.524 . S
C837 H840 0.999 . S
C838 H808 0.950 . S
C838 C837 1.524 . S
C838 C839 1.415 . S
C839 H809 0.950 . S
C839 C834 1.363 . S
C839 C838 1.415 . S
H840 C837 0.999 . S
H841 C822 0.913 . S
H842 C860 0.951 . S
H843 C862 0.951 . S
H844 C864 0.950 1_655 S
H845 C865 0.950 . S
H846 C867 0.950 . S
H847 C870 0.950 . S
H848 C871 0.950 . S
H849 C873 0.950 . S
H850 C874 0.950 . S
H851 C875 0.951 . S
H852 C877 0.951 . S
H853 C879 0.950 . S
H854 C880 0.950 . S
H855 C882 0.950 . S
H856 C885 0.950 . S
H857 C886 0.950 . S
H858 C888 0.950 . S
H859 C889 0.950 . S
C860 H842 0.951 . S
C860 C861 1.366 . S
C860 C862 1.388 . S
C861 C860 1.366 . S
C861 C865 1.385 . S
C862 H843 0.951 . S
C862 C860 1.388 . S
C862 C863 1.399 . S
C863 C862 1.399 . S
C863 C864 1.419 . S
C863 C866 1.461 1_455 S
C864 H844 0.950 1_455 S
C864 C863 1.419 . S
C864 C865 1.374 . S
C865 H845 0.950 . S
C865 C861 1.385 . S
C865 C864 1.374 . S
C866 C863 1.461 1_655 S
C866 C867 1.373 . S
C866 C868 1.389 . S
C867 H846 0.950 . S
C867 C866 1.373 . S
C867 C883 1.377 . S
C868 C866 1.389 . S
C868 C869 1.524 . S
C868 C882 1.377 . S
C869 C868 1.524 . S
C869 C870 1.397 . S
C869 C874 1.363 . S
C870 H847 0.950 . S
C870 C869 1.397 . S
C870 C871 1.334 1_655 S
C871 H848 0.950 . S
C871 C870 1.334 1_455 S
C871 C872 1.287 . S
C872 C871 1.287 . S
C872 C873 1.524 . S
C872 H891 0.913 . S
C873 H849 0.950 . S
C873 C872 1.524 . S
C873 C874 1.415 1_455 S
C874 H850 0.950 . S
C874 C869 1.363 . S
C874 C873 1.415 1_655 S
C875 H851 0.951 . S
C875 C876 1.366 . S
C875 C877 1.388 . S
C876 C875 1.366 . S
C876 C880 1.385 . S
C877 H852 0.951 . S
C877 C875 1.388 . S
C877 C878 1.366 . S
C878 C877 1.366 . S
C878 C879 1.414 . S
C878 C881 1.499 . S
C879 H853 0.950 . S
C879 C878 1.414 . S
C879 C880 1.374 . S
C880 H854 0.950 . S
C880 C876 1.385 . S
C880 C879 1.374 . S
C881 C878 1.499 . S
C881 C882 1.373 . S
C881 C883 1.389 . S
C882 H855 0.950 . S
C882 C868 1.377 . S
C882 C881 1.373 . S
C883 C867 1.377 . S
C883 C881 1.389 . S
C883 C884 1.524 . S
C884 C883 1.524 . S
C884 C885 1.397 . S
C884 C889 1.363 . S
C885 H856 0.950 . S
C885 C884 1.397 . S
C885 C886 1.334 . S
C886 H857 0.950 . S
C886 C885 1.334 . S
C886 C887 1.287 . S
C887 C886 1.287 . S
C887 C888 1.524 . S
C887 H890 0.999 . S
C888 H858 0.950 . S
C888 C887 1.524 . S
C888 C889 1.415 . S
C889 H859 0.950 . S
C889 C884 1.363 . S
C889 C888 1.415 . S
H890 C887 0.999 . S
H891 C872 0.913 . S
H892 C910 0.951 . S
H893 C912 0.951 . S
H894 C914 0.950 . S
H895 C915 0.950 . S
H896 C917 0.950 . S
H897 C920 0.950 . S
H898 C921 0.950 . S
H899 C923 0.950 . S
H900 C924 0.950 . S
H901 C925 0.951 . S
H902 C927 0.951 . S
H903 C929 0.950 . S
H904 C930 0.950 . S
H905 C932 0.950 . S
H906 C935 0.950 . S
H907 C936 0.950 . S
H908 C938 0.950 . S
H909 C939 0.950 . S
C910 H892 0.951 . S
C910 C911 1.366 . S
C910 C912 1.388 . S
C911 C910 1.366 . S
C911 C915 1.385 . S
C912 H893 0.951 . S
C912 C910 1.388 . S
C912 C913 1.366 . S
C913 C912 1.366 . S
C913 C914 1.414 . S
C913 C916 1.499 . S
C914 H894 0.950 . S
C914 C913 1.414 . S
C914 C915 1.374 . S
C915 H895 0.950 . S
C915 C911 1.385 . S
C915 C914 1.374 . S
C916 C913 1.499 . S
C916 C917 1.373 . S
C916 C918 1.389 . S
C917 H896 0.950 . S
C917 C916 1.373 . S
C917 C933 1.377 . S
C918 C916 1.389 . S
C918 C919 1.524 . S
C918 C932 1.377 . S
C919 C918 1.524 . S
C919 C920 1.397 . S
C919 C924 1.363 . S
C920 H897 0.950 . S
C920 C919 1.397 . S
C920 C921 1.334 . S
C921 H898 0.950 . S
C921 C920 1.334 . S
C921 C922 1.287 . S
C922 C921 1.287 . S
C922 C923 1.524 . S
C922 H941 0.913 . S
C923 H899 0.950 . S
C923 C922 1.524 . S
C923 C924 1.415 . S
C924 H900 0.950 . S
C924 C919 1.363 . S
C924 C923 1.415 . S
C925 H901 0.951 . S
C925 C926 1.366 . S
C925 C927 1.388 . S
C926 C925 1.366 . S
C926 C930 1.385 . S
C927 H902 0.951 . S
C927 C925 1.388 . S
C927 C928 1.366 . S
C928 C927 1.366 . S
C928 C929 1.414 . S
C928 C931 1.499 . S
C929 H903 0.950 . S
C929 C928 1.414 . S
C929 C930 1.374 . S
C930 H904 0.950 . S
C930 C926 1.385 . S
C930 C929 1.374 . S
C931 C928 1.499 . S
C931 C932 1.373 . S
C931 C933 1.389 . S
C932 H905 0.950 . S
C932 C918 1.377 . S
C932 C931 1.373 . S
C933 C917 1.377 . S
C933 C931 1.389 . S
C933 C934 1.524 . S
C934 C933 1.524 . S
C934 C935 1.397 . S
C934 C939 1.363 . S
C935 H906 0.950 . S
C935 C934 1.397 . S
C935 C936 1.334 . S
C936 H907 0.950 . S
C936 C935 1.334 . S
C936 C937 1.287 . S
C937 C936 1.287 . S
C937 C938 1.524 . S
C937 H940 0.999 . S
C938 H908 0.950 . S
C938 C937 1.524 . S
C938 C939 1.415 . S
C939 H909 0.950 . S
C939 C934 1.363 . S
C939 C938 1.415 . S
H940 C937 0.999 . S
H941 C922 0.913 . S
H942 C960 0.951 . S
H943 C962 0.951 . S
H944 C964 0.950 . S
H945 C965 0.950 . S
H946 C967 0.950 . S
H947 C970 0.950 . S
H948 C971 0.950 . S
H949 C973 0.950 . S
H950 C974 0.950 . S
H951 C975 0.951 . S
H952 C977 0.951 . S
H953 C979 0.950 . S
H954 C980 0.950 . S
H955 C982 0.950 1_655 S
H956 C985 0.950 . S
H957 C986 0.950 . S
H958 C988 0.950 . S
H959 C989 0.950 . S
C960 H942 0.951 . S
C960 C961 1.366 . S
C960 C962 1.388 . S
C961 C960 1.366 . S
C961 C965 1.385 . S
C962 H943 0.951 . S
C962 C960 1.388 . S
C962 C963 1.366 . S
C963 C962 1.366 . S
C963 C964 1.414 . S
C963 C966 1.499 . S
C964 H944 0.950 . S
C964 C963 1.414 . S
C964 C965 1.374 . S
C965 H945 0.950 . S
C965 C961 1.385 . S
C965 C964 1.374 . S
C966 C963 1.499 . S
C966 C967 1.373 1_655 S
C966 C968 1.389 . S
C967 H946 0.950 . S
C967 C966 1.373 1_455 S
C967 C983 1.377 . S
C968 C966 1.389 . S
C968 C969 1.524 . S
C968 C982 1.377 1_655 S
C969 C968 1.524 . S
C969 C970 1.397 . S
C969 C974 1.363 . S
C970 H947 0.950 . S
C970 C969 1.397 . S
C970 C971 1.334 . S
C971 H948 0.950 . S
C971 C970 1.334 . S
C971 C972 1.287 . S
C972 C971 1.287 . S
C972 C973 1.524 . S
C972 H991 0.913 . S
C973 H949 0.950 . S
C973 C972 1.524 . S
C973 C974 1.415 . S
C974 H950 0.950 . S
C974 C969 1.363 . S
C974 C973 1.415 . S
C975 H951 0.951 . S
C975 C976 1.366 . S
C975 C977 1.388 . S
C976 C975 1.366 . S
C976 C980 1.385 . S
C977 H952 0.951 . S
C977 C975 1.388 . S
C977 C978 1.366 . S
C978 C977 1.366 . S
C978 C979 1.414 . S
C978 C981 1.499 . S
C979 H953 0.950 . S
C979 C978 1.414 . S
C979 C980 1.374 . S
C980 H954 0.950 . S
C980 C976 1.385 . S
C980 C979 1.374 . S
C981 C978 1.499 . S
C981 C982 1.373 . S
C981 C983 1.389 . S
C982 H955 0.950 1_455 S
C982 C968 1.377 1_455 S
C982 C981 1.373 . S
C983 C967 1.377 . S
C983 C981 1.389 . S
C983 C984 1.524 . S
C984 C983 1.524 . S
C984 C985 1.397 . S
C984 C989 1.363 . S
C985 H956 0.950 . S
C985 C984 1.397 . S
C985 C986 1.334 . S
C986 H957 0.950 . S
C986 C985 1.334 . S
C986 C987 1.287 . S
C987 C986 1.287 . S
C987 C988 1.524 . S
C987 H990 0.999 . S
C988 H958 0.950 . S
C988 C987 1.524 . S
C988 C989 1.415 . S
C989 H959 0.950 . S
C989 C984 1.363 . S
C989 C988 1.415 . S
H990 C987 0.999 . S
H991 C972 0.913 . S
H992 C1010 0.951 . S
H993 C1012 0.951 . S
H994 C1014 0.950 . S
H995 C1015 0.950 . S
H996 C1017 0.950 . S
H997 C1020 0.950 . S
H998 C1021 0.950 . S
H999 C1023 0.950 . S
H1000 C1024 0.950 . S
H1001 C1025 0.951 . S
H1002 C1027 0.951 . S
H1003 C1029 0.950 . S
H1004 C1030 0.950 . S
H1005 C1032 0.950 . S
H1006 C1035 0.950 . S
H1007 C1036 0.950 . S
H1008 C1038 0.950 . S
H1009 C1039 0.950 . S
C1010 H992 0.951 . S
C1010 C1011 1.366 . S
C1010 C1012 1.388 . S
C1011 C1010 1.366 . S
C1011 C1015 1.385 . S
C1012 H993 0.951 . S
C1012 C1010 1.388 . S
C1012 C1013 1.366 . S
C1013 C1012 1.366 . S
C1013 C1014 1.414 . S
C1013 C1016 1.499 . S
C1014 H994 0.950 . S
C1014 C1013 1.414 . S
C1014 C1015 1.374 . S
C1015 H995 0.950 . S
C1015 C1011 1.385 . S
C1015 C1014 1.374 . S
C1016 C1013 1.499 . S
C1016 C1017 1.373 . S
C1016 C1018 1.389 . S
C1017 H996 0.950 . S
C1017 C1016 1.373 . S
C1017 C1033 1.377 . S
C1018 C1016 1.389 . S
C1018 C1019 1.524 . S
C1018 C1032 1.377 . S
C1019 C1018 1.524 . S
C1019 C1020 1.397 . S
C1019 C1024 1.363 . S
C1020 H997 0.950 . S
C1020 C1019 1.397 . S
C1020 C1021 1.334 . S
C1021 H998 0.950 . S
C1021 C1020 1.334 . S
C1021 C1022 1.287 . S
C1022 C1021 1.287 . S
C1022 C1023 1.524 . S
C1022 H1041 0.913 . S
C1023 H999 0.950 . S
C1023 C1022 1.524 . S
C1023 C1024 1.415 . S
C1024 H1000 0.950 . S
C1024 C1019 1.363 . S
C1024 C1023 1.415 . S
C1025 H1001 0.951 . S
C1025 C1026 1.366 . S
C1025 C1027 1.388 . S
C1026 C1025 1.366 . S
C1026 C1030 1.385 . S
C1027 H1002 0.951 . S
C1027 C1025 1.388 . S
C1027 C1028 1.366 . S
C1028 C1027 1.366 . S
C1028 C1029 1.414 . S
C1028 C1031 1.499 . S
C1029 H1003 0.950 . S
C1029 C1028 1.414 . S
C1029 C1030 1.374 . S
C1030 H1004 0.950 . S
C1030 C1026 1.385 . S
C1030 C1029 1.374 . S
C1031 C1028 1.499 . S
C1031 C1032 1.373 . S
C1031 C1033 1.389 . S
C1032 H1005 0.950 . S
C1032 C1018 1.377 . S
C1032 C1031 1.373 . S
C1033 C1017 1.377 . S
C1033 C1031 1.389 . S
C1033 C1034 1.524 . S
C1034 C1033 1.524 . S
C1034 C1035 1.397 . S
C1034 C1039 1.363 . S
C1035 H1006 0.950 . S
C1035 C1034 1.397 . S
C1035 C1036 1.334 . S
C1036 H1007 0.950 . S
C1036 C1035 1.334 . S
C1036 C1037 1.287 . S
C1037 C1036 1.287 . S
C1037 C1038 1.524 . S
C1037 H1040 0.999 . S
C1038 H1008 0.950 . S
C1038 C1037 1.524 . S
C1038 C1039 1.415 . S
C1039 H1009 0.950 . S
C1039 C1034 1.363 . S
C1039 C1038 1.415 . S
H1040 C1037 0.999 . S
H1041 C1022 0.913 . S
H1042 C1060 0.951 . S
H1043 C1062 0.951 . S
H1044 C1064 0.950 . S
H1045 C1065 0.950 . S
H1046 C1067 0.950 . S
H1047 C1070 0.950 . S
H1048 C1071 0.950 . S
H1049 C1073 0.950 . S
H1050 C1074 0.950 . S
H1051 C1075 0.951 . S
H1052 C1077 0.951 . S
H1053 C1079 0.950 . S
H1054 C1080 0.950 . S
H1055 C1082 0.950 . S
H1056 C1085 0.950 . S
H1057 C1086 0.950 . S
H1058 C1088 0.950 . S
H1059 C1089 0.950 . S
C1060 H1042 0.951 . S
C1060 C1061 1.366 . S
C1060 C1062 1.388 . S
C1061 C1060 1.366 . S
C1061 C1065 1.385 . S
C1062 H1043 0.951 . S
C1062 C1060 1.388 . S
C1062 C1063 1.366 . S
C1063 C1062 1.366 . S
C1063 C1064 1.414 . S
C1063 C1066 1.499 . S
C1064 H1044 0.950 . S
C1064 C1063 1.414 . S
C1064 C1065 1.374 . S
C1065 H1045 0.950 . S
C1065 C1061 1.385 . S
C1065 C1064 1.374 . S
C1066 C1063 1.499 . S
C1066 C1067 1.373 . S
C1066 C1068 1.389 . S
C1067 H1046 0.950 . S
C1067 C1066 1.373 . S
C1067 C1083 1.377 . S
C1068 C1066 1.389 . S
C1068 C1069 1.524 . S
C1068 C1082 1.377 . S
C1069 C1068 1.524 . S
C1069 C1070 1.397 . S
C1069 C1074 1.363 . S
C1070 H1047 0.950 . S
C1070 C1069 1.397 . S
C1070 C1071 1.334 . S
C1071 H1048 0.950 . S
C1071 C1070 1.334 . S
C1071 C1072 1.287 . S
C1072 C1071 1.287 . S
C1072 C1073 1.524 . S
C1072 H1091 0.913 . S
C1073 H1049 0.950 . S
C1073 C1072 1.524 . S
C1073 C1074 1.415 . S
C1074 H1050 0.950 . S
C1074 C1069 1.363 . S
C1074 C1073 1.415 . S
C1075 H1051 0.951 . S
C1075 C1076 1.366 . S
C1075 C1077 1.388 . S
C1076 C1075 1.366 . S
C1076 C1080 1.385 . S
C1077 H1052 0.951 . S
C1077 C1075 1.388 . S
C1077 C1078 1.366 . S
C1078 C1077 1.366 . S
C1078 C1079 1.414 . S
C1078 C1081 1.499 . S
C1079 H1053 0.950 . S
C1079 C1078 1.414 . S
C1079 C1080 1.374 . S
C1080 H1054 0.950 . S
C1080 C1076 1.385 . S
C1080 C1079 1.374 . S
C1081 C1078 1.499 . S
C1081 C1082 1.373 . S
C1081 C1083 1.389 . S
C1082 H1055 0.950 . S
C1082 C1068 1.377 . S
C1082 C1081 1.373 . S
C1083 C1067 1.377 . S
C1083 C1081 1.389 . S
C1083 C1084 1.524 . S
C1084 C1083 1.524 . S
C1084 C1085 1.397 . S
C1084 C1089 1.363 . S
C1085 H1056 0.950 . S
C1085 C1084 1.397 . S
C1085 C1086 1.334 . S
C1086 H1057 0.950 . S
C1086 C1085 1.334 . S
C1086 C1087 1.287 . S
C1087 C1086 1.287 . S
C1087 C1088 1.524 . S
C1087 H1090 0.999 . S
C1088 H1058 0.950 . S
C1088 C1087 1.524 . S
C1088 C1089 1.415 . S
C1089 H1059 0.950 . S
C1089 C1084 1.363 . S
C1089 C1088 1.415 . S
H1090 C1087 0.999 . S
H1091 C1072 0.913 . S
H1092 C1110 0.951 . S
H1093 C1112 0.951 . S
H1094 C1114 0.950 . S
H1095 C1115 0.950 . S
H1096 C1117 0.950 . S
H1097 C1120 0.950 . S
H1098 C1121 0.950 . S
H1099 C1123 0.950 . S
H1100 C1124 0.950 . S
H1101 C1125 0.951 . S
H1102 C1127 0.951 . S
H1103 C1129 0.950 . S
H1104 C1130 0.950 . S
H1105 C1132 0.950 . S
H1106 C1135 0.950 . S
H1107 C1136 0.950 . S
H1108 C1138 0.950 . S
H1109 C1139 0.950 . S
C1110 H1092 0.951 . S
C1110 C1111 1.366 . S
C1110 C1112 1.388 . S
C1111 C1110 1.366 . S
C1111 C1115 1.385 . S
C1112 H1093 0.951 . S
C1112 C1110 1.388 . S
C1112 C1113 1.366 . S
C1113 C1112 1.366 . S
C1113 C1114 1.414 . S
C1113 C1116 1.499 . S
C1114 H1094 0.950 . S
C1114 C1113 1.414 . S
C1114 C1115 1.374 . S
C1115 H1095 0.950 . S
C1115 C1111 1.385 . S
C1115 C1114 1.374 . S
C1116 C1113 1.499 . S
C1116 C1117 1.373 . S
C1116 C1118 1.389 . S
C1117 H1096 0.950 . S
C1117 C1116 1.373 . S
C1117 C1133 1.377 . S
C1118 C1116 1.389 . S
C1118 C1119 1.524 . S
C1118 C1132 1.377 . S
C1119 C1118 1.524 . S
C1119 C1120 1.397 . S
C1119 C1124 1.363 . S
C1120 H1097 0.950 . S
C1120 C1119 1.397 . S
C1120 C1121 1.334 . S
C1121 H1098 0.950 . S
C1121 C1120 1.334 . S
C1121 C1122 1.287 . S
C1122 C1121 1.287 . S
C1122 C1123 1.524 . S
C1122 H1141 0.913 . S
C1123 H1099 0.950 . S
C1123 C1122 1.524 . S
C1123 C1124 1.415 . S
C1124 H1100 0.950 . S
C1124 C1119 1.363 . S
C1124 C1123 1.415 . S
C1125 H1101 0.951 . S
C1125 C1126 1.366 . S
C1125 C1127 1.388 . S
C1126 C1125 1.366 . S
C1126 C1130 1.385 . S
C1127 H1102 0.951 . S
C1127 C1125 1.388 . S
C1127 C1128 1.366 . S
C1128 C1127 1.366 . S
C1128 C1129 1.414 . S
C1128 C1131 1.499 . S
C1129 H1103 0.950 . S
C1129 C1128 1.414 . S
C1129 C1130 1.374 . S
C1130 H1104 0.950 . S
C1130 C1126 1.385 . S
C1130 C1129 1.374 . S
C1131 C1128 1.499 . S
C1131 C1132 1.373 . S
C1131 C1133 1.389 . S
C1132 H1105 0.950 . S
C1132 C1118 1.377 . S
C1132 C1131 1.373 . S
C1133 C1117 1.377 . S
C1133 C1131 1.389 . S
C1133 C1134 1.524 . S
C1134 C1133 1.524 . S
C1134 C1135 1.397 . S
C1134 C1139 1.363 . S
C1135 H1106 0.950 . S
C1135 C1134 1.397 . S
C1135 C1136 1.334 . S
C1136 H1107 0.950 . S
C1136 C1135 1.334 . S
C1136 C1137 1.287 . S
C1137 C1136 1.287 . S
C1137 C1138 1.524 . S
C1137 H1140 0.999 . S
C1138 H1108 0.950 . S
C1138 C1137 1.524 . S
C1138 C1139 1.415 . S
C1139 H1109 0.950 . S
C1139 C1134 1.363 . S
C1139 C1138 1.415 . S
H1140 C1137 0.999 . S
H1141 C1122 0.913 . S
H1142 C1160 0.951 . S
H1143 C1162 0.951 . S
H1144 C1164 0.950 . S
H1145 C1165 0.950 . S
H1146 C1167 0.950 . S
H1147 C1170 0.950 . S
H1148 C1171 0.950 . S
H1149 C1173 0.950 . S
H1150 C1174 0.950 . S
H1151 C1175 0.951 . S
H1152 C1177 0.951 . S
H1153 C1179 0.950 . S
H1154 C1180 0.950 . S
H1155 C1182 0.950 . S
H1156 C1185 0.950 . S
H1157 C1186 0.950 . S
H1158 C1188 0.950 . S
H1159 C1189 0.950 . S
C1160 H1142 0.951 . S
C1160 C1161 1.366 . S
C1160 C1162 1.388 . S
C1161 C1160 1.366 . S
C1161 C1165 1.385 . S
C1162 H1143 0.951 . S
C1162 C1160 1.388 . S
C1162 C1163 1.366 . S
C1163 C1162 1.366 . S
C1163 C1164 1.414 . S
C1163 C1166 1.499 . S
C1164 H1144 0.950 . S
C1164 C1163 1.414 . S
C1164 C1165 1.374 . S
C1165 H1145 0.950 . S
C1165 C1161 1.385 . S
C1165 C1164 1.374 . S
C1166 C1163 1.499 . S
C1166 C1167 1.373 . S
C1166 C1168 1.389 . S
C1167 H1146 0.950 . S
C1167 C1166 1.373 . S
C1167 C1183 1.377 . S
C1168 C1166 1.389 . S
C1168 C1169 1.524 . S
C1168 C1182 1.377 . S
C1169 C1168 1.524 . S
C1169 C1170 1.397 . S
C1169 C1174 1.363 . S
C1170 H1147 0.950 . S
C1170 C1169 1.397 . S
C1170 C1171 1.334 . S
C1171 H1148 0.950 . S
C1171 C1170 1.334 . S
C1171 C1172 1.287 . S
C1172 C1171 1.287 . S
C1172 C1173 1.524 . S
C1172 H1191 0.913 . S
C1173 H1149 0.950 . S
C1173 C1172 1.524 . S
C1173 C1174 1.415 . S
C1174 H1150 0.950 . S
C1174 C1169 1.363 . S
C1174 C1173 1.415 . S
C1175 H1151 0.951 . S
C1175 C1176 1.366 . S
C1175 C1177 1.388 . S
C1176 C1175 1.366 . S
C1176 C1180 1.385 . S
C1177 H1152 0.951 . S
C1177 C1175 1.388 . S
C1177 C1178 1.366 . S
C1178 C1177 1.366 . S
C1178 C1179 1.414 . S
C1178 C1181 1.499 . S
C1179 H1153 0.950 . S
C1179 C1178 1.414 . S
C1179 C1180 1.374 . S
C1180 H1154 0.950 . S
C1180 C1176 1.385 . S
C1180 C1179 1.374 . S
C1181 C1178 1.499 . S
C1181 C1182 1.373 . S
C1181 C1183 1.389 . S
C1182 H1155 0.950 . S
C1182 C1168 1.377 . S
C1182 C1181 1.373 . S
C1183 C1167 1.377 . S
C1183 C1181 1.389 . S
C1183 C1184 1.524 . S
C1184 C1183 1.524 . S
C1184 C1185 1.397 . S
C1184 C1189 1.363 . S
C1185 H1156 0.950 . S
C1185 C1184 1.397 . S
C1185 C1186 1.334 . S
C1186 H1157 0.950 . S
C1186 C1185 1.334 . S
C1186 C1187 1.287 . S
C1187 C1186 1.287 . S
C1187 C1188 1.524 . S
C1187 H1190 0.999 . S
C1188 H1158 0.950 . S
C1188 C1187 1.524 . S
C1188 C1189 1.415 . S
C1189 H1159 0.950 . S
C1189 C1184 1.363 . S
C1189 C1188 1.415 . S
H1190 C1187 0.999 . S
H1191 C1172 0.913 . S
H1192 C1210 0.951 . S
H1193 C1212 0.951 . S
H1194 C1214 0.950 . S
H1195 C1215 0.950 . S
H1196 C1217 0.950 . S
H1197 C1220 0.950 . S
H1198 C1221 0.950 . S
H1199 C1223 0.950 . S
H1200 C1224 0.950 . S
H1201 C1225 0.951 . S
H1202 C1227 0.951 . S
H1203 C1229 0.950 . S
H1204 C1230 0.950 . S
H1205 C1232 0.950 . S
H1206 C1235 0.950 . S
H1207 C1236 0.950 . S
H1208 C1238 0.950 . S
H1209 C1239 0.950 . S
C1210 H1192 0.951 . S
C1210 C1211 1.366 . S
C1210 C1212 1.388 . S
C1211 C1210 1.366 . S
C1211 C1215 1.385 . S
C1212 H1193 0.951 . S
C1212 C1210 1.388 . S
C1212 C1213 1.366 . S
C1213 C1212 1.366 . S
C1213 C1214 1.414 . S
C1213 C1216 1.499 . S
C1214 H1194 0.950 . S
C1214 C1213 1.414 . S
C1214 C1215 1.374 . S
C1215 H1195 0.950 . S
C1215 C1211 1.385 . S
C1215 C1214 1.374 . S
C1216 C1213 1.499 . S
C1216 C1217 1.373 . S
C1216 C1218 1.389 . S
C1217 H1196 0.950 . S
C1217 C1216 1.373 . S
C1217 C1233 1.377 . S
C1218 C1216 1.389 . S
C1218 C1219 1.524 . S
C1218 C1232 1.377 . S
C1219 C1218 1.524 . S
C1219 C1220 1.397 . S
C1219 C1224 1.363 . S
C1220 H1197 0.950 . S
C1220 C1219 1.397 . S
C1220 C1221 1.334 . S
C1221 H1198 0.950 . S
C1221 C1220 1.334 . S
C1221 C1222 1.287 . S
C1222 C1221 1.287 . S
C1222 C1223 1.524 . S
C1222 H1241 0.913 . S
C1223 H1199 0.950 . S
C1223 C1222 1.524 . S
C1223 C1224 1.415 . S
C1224 H1200 0.950 . S
C1224 C1219 1.363 . S
C1224 C1223 1.415 . S
C1225 H1201 0.951 . S
C1225 C1226 1.366 . S
C1225 C1227 1.388 . S
C1226 C1225 1.366 . S
C1226 C1230 1.385 . S
C1227 H1202 0.951 . S
C1227 C1225 1.388 . S
C1227 C1228 1.366 . S
C1228 C1227 1.366 . S
C1228 C1229 1.414 . S
C1228 C1231 1.499 . S
C1229 H1203 0.950 . S
C1229 C1228 1.414 . S
C1229 C1230 1.374 . S
C1230 H1204 0.950 . S
C1230 C1226 1.385 . S
C1230 C1229 1.374 . S
C1231 C1228 1.499 . S
C1231 C1232 1.373 . S
C1231 C1233 1.389 . S
C1232 H1205 0.950 . S
C1232 C1218 1.377 . S
C1232 C1231 1.373 . S
C1233 C1217 1.377 . S
C1233 C1231 1.389 . S
C1233 C1234 1.524 . S
C1234 C1233 1.524 . S
C1234 C1235 1.397 . S
C1234 C1239 1.363 . S
C1235 H1206 0.950 . S
C1235 C1234 1.397 . S
C1235 C1236 1.334 . S
C1236 H1207 0.950 . S
C1236 C1235 1.334 . S
C1236 C1237 1.287 . S
C1237 C1236 1.287 . S
C1237 C1238 1.524 . S
C1237 H1240 0.999 . S
C1238 H1208 0.950 . S
C1238 C1237 1.524 . S
C1238 C1239 1.415 . S
C1239 H1209 0.950 . S
C1239 C1234 1.363 . S
C1239 C1238 1.415 . S
H1240 C1237 0.999 . S
H1241 C1222 0.913 . S
H1242 C1260 0.951 . S
H1243 C1262 0.951 . S
H1244 C1264 0.950 . S
H1245 C1265 0.950 . S
H1246 C1267 0.950 . S
H1247 C1270 0.950 . S
H1248 C1271 0.950 . S
H1249 C1273 0.950 . S
H1250 C1274 0.950 . S
H1251 C1275 0.951 . S
H1252 C1277 0.951 . S
H1253 C1279 0.950 . S
H1254 C1280 0.950 . S
H1255 C1282 0.950 . S
H1256 C1285 0.950 . S
H1257 C1286 0.950 . S
H1258 C1288 0.950 . S
H1259 C1289 0.950 . S
C1260 H1242 0.951 . S
C1260 C1261 1.366 . S
C1260 C1262 1.388 . S
C1261 C1260 1.366 . S
C1261 C1265 1.385 . S
C1262 H1243 0.951 . S
C1262 C1260 1.388 . S
C1262 C1263 1.366 . S
C1263 C1262 1.366 . S
C1263 C1264 1.414 . S
C1263 C1266 1.499 . S
C1264 H1244 0.950 . S
C1264 C1263 1.414 . S
C1264 C1265 1.374 . S
C1265 H1245 0.950 . S
C1265 C1261 1.385 . S
C1265 C1264 1.374 . S
C1266 C1263 1.499 . S
C1266 C1267 1.373 . S
C1266 C1268 1.389 . S
C1267 H1246 0.950 . S
C1267 C1266 1.373 . S
C1267 C1283 1.377 . S
C1268 C1266 1.389 . S
C1268 C1269 1.524 . S
C1268 C1282 1.377 . S
C1269 C1268 1.524 . S
C1269 C1270 1.397 . S
C1269 C1274 1.363 . S
C1270 H1247 0.950 . S
C1270 C1269 1.397 . S
C1270 C1271 1.334 . S
C1271 H1248 0.950 . S
C1271 C1270 1.334 . S
C1271 C1272 1.287 . S
C1272 C1271 1.287 . S
C1272 C1273 1.524 . S
C1272 H1291 0.913 . S
C1273 H1249 0.950 . S
C1273 C1272 1.524 . S
C1273 C1274 1.415 . S
C1274 H1250 0.950 . S
C1274 C1269 1.363 . S
C1274 C1273 1.415 . S
C1275 H1251 0.951 . S
C1275 C1276 1.366 . S
C1275 C1277 1.388 . S
C1276 C1275 1.366 . S
C1276 C1280 1.385 . S
C1277 H1252 0.951 . S
C1277 C1275 1.388 . S
C1277 C1278 1.366 . S
C1278 C1277 1.366 . S
C1278 C1279 1.414 . S
C1278 C1281 1.499 . S
C1279 H1253 0.950 . S
C1279 C1278 1.414 . S
C1279 C1280 1.374 . S
C1280 H1254 0.950 . S
C1280 C1276 1.385 . S
C1280 C1279 1.374 . S
C1281 C1278 1.499 . S
C1281 C1282 1.373 . S
C1281 C1283 1.389 . S
C1282 H1255 0.950 . S
C1282 C1268 1.377 . S
C1282 C1281 1.373 . S
C1283 C1267 1.377 . S
C1283 C1281 1.389 . S
C1283 C1284 1.524 . S
C1284 C1283 1.524 . S
C1284 C1285 1.397 . S
C1284 C1289 1.363 . S
C1285 H1256 0.950 . S
C1285 C1284 1.397 . S
C1285 C1286 1.334 . S
C1286 H1257 0.950 . S
C1286 C1285 1.334 . S
C1286 C1287 1.287 . S
C1287 C1286 1.287 . S
C1287 C1288 1.524 . S
C1287 H1290 0.999 . S
C1288 H1258 0.950 . S
C1288 C1287 1.524 . S
C1288 C1289 1.415 . S
C1289 H1259 0.950 . S
C1289 C1284 1.363 . S
C1289 C1288 1.415 . S
H1290 C1287 0.999 . S
H1291 C1272 0.913 . S
H1292 C1310 0.951 . S
H1293 C1312 0.951 . S
H1294 C1314 0.950 . S
H1295 C1315 0.950 . S
H1296 C1317 0.950 . S
H1297 C1320 0.950 . S
H1298 C1321 0.950 . S
H1299 C1323 0.950 . S
H1300 C1324 0.950 . S
H1301 C1325 0.951 . S
H1302 C1327 0.951 . S
H1303 C1329 0.950 . S
H1304 C1330 0.950 . S
H1305 C1332 0.950 . S
H1306 C1335 0.950 . S
H1307 C1336 0.950 . S
H1308 C1338 0.950 . S
H1309 C1339 0.950 . S
C1310 H1292 0.951 . S
C1310 C1311 1.366 . S
C1310 C1312 1.388 . S
C1311 C1310 1.366 . S
C1311 C1315 1.385 . S
C1312 H1293 0.951 . S
C1312 C1310 1.388 . S
C1312 C1313 1.366 . S
C1313 C1312 1.366 . S
C1313 C1314 1.414 . S
C1313 C1316 1.499 . S
C1314 H1294 0.950 . S
C1314 C1313 1.414 . S
C1314 C1315 1.374 . S
C1315 H1295 0.950 . S
C1315 C1311 1.385 . S
C1315 C1314 1.374 . S
C1316 C1313 1.499 . S
C1316 C1317 1.373 . S
C1316 C1318 1.389 . S
C1317 H1296 0.950 . S
C1317 C1316 1.373 . S
C1317 C1333 1.377 . S
C1318 C1316 1.389 . S
C1318 C1319 1.524 . S
C1318 C1332 1.377 . S
C1319 C1318 1.524 . S
C1319 C1320 1.397 . S
C1319 C1324 1.363 . S
C1320 H1297 0.950 . S
C1320 C1319 1.397 . S
C1320 C1321 1.334 . S
C1321 H1298 0.950 . S
C1321 C1320 1.334 . S
C1321 C1322 1.287 . S
C1322 C1321 1.287 . S
C1322 C1323 1.524 . S
C1322 H1341 0.913 . S
C1323 H1299 0.950 . S
C1323 C1322 1.524 . S
C1323 C1324 1.415 . S
C1324 H1300 0.950 . S
C1324 C1319 1.363 . S
C1324 C1323 1.415 . S
C1325 H1301 0.951 . S
C1325 C1326 1.366 . S
C1325 C1327 1.388 . S
C1326 C1325 1.366 . S
C1326 C1330 1.385 . S
C1327 H1302 0.951 . S
C1327 C1325 1.388 . S
C1327 C1328 1.366 . S
C1328 C1327 1.366 . S
C1328 C1329 1.414 . S
C1328 C1331 1.499 . S
C1329 H1303 0.950 . S
C1329 C1328 1.414 . S
C1329 C1330 1.374 . S
C1330 H1304 0.950 . S
C1330 C1326 1.385 . S
C1330 C1329 1.374 . S
C1331 C1328 1.499 . S
C1331 C1332 1.373 . S
C1331 C1333 1.389 . S
C1332 H1305 0.950 . S
C1332 C1318 1.377 . S
C1332 C1331 1.373 . S
C1333 C1317 1.377 . S
C1333 C1331 1.389 . S
C1333 C1334 1.524 . S
C1334 C1333 1.524 . S
C1334 C1335 1.397 . S
C1334 C1339 1.363 . S
C1335 H1306 0.950 . S
C1335 C1334 1.397 . S
C1335 C1336 1.334 . S
C1336 H1307 0.950 . S
C1336 C1335 1.334 . S
C1336 C1337 1.287 . S
C1337 C1336 1.287 . S
C1337 C1338 1.524 . S
C1337 H1340 0.999 . S
C1338 H1308 0.950 . S
C1338 C1337 1.524 . S
C1338 C1339 1.415 . S
C1339 H1309 0.950 . S
C1339 C1334 1.363 . S
C1339 C1338 1.415 . S
H1340 C1337 0.999 . S
H1341 C1322 0.913 . S
H1342 C1360 0.951 1_554 S
H1343 C1362 0.951 . S
H1344 C1364 0.950 . S
H1345 C1365 0.950 . S
H1346 C1367 0.950 . S
H1347 C1370 0.950 . S
H1348 C1371 0.950 . S
H1349 C1373 0.950 . S
H1350 C1374 0.950 . S
H1351 C1375 0.951 . S
H1352 C1377 0.951 . S
H1353 C1379 0.950 . S
H1354 C1380 0.950 . S
H1355 C1382 0.950 . S
H1356 C1385 0.950 . S
H1357 C1386 0.950 . S
H1358 C1388 0.950 . S
H1359 C1389 0.950 . S
C1360 H1342 0.951 1_556 S
C1360 C1361 1.366 . S
C1360 C1362 1.388 . S
C1361 C1360 1.366 . S
C1361 C1365 1.385 . S
C1362 H1343 0.951 . S
C1362 C1360 1.388 . S
C1362 C1363 1.366 . S
C1363 C1362 1.366 . S
C1363 C1364 1.414 . S
C1363 C1366 1.499 . S
C1364 H1344 0.950 . S
C1364 C1363 1.414 . S
C1364 C1365 1.374 . S
C1365 H1345 0.950 . S
C1365 C1361 1.385 . S
C1365 C1364 1.374 . S
C1366 C1363 1.499 . S
C1366 C1367 1.373 . S
C1366 C1368 1.389 . S
C1367 H1346 0.950 . S
C1367 C1366 1.373 . S
C1367 C1383 1.377 . S
C1368 C1366 1.389 . S
C1368 C1369 1.524 . S
C1368 C1382 1.377 . S
C1369 C1368 1.524 . S
C1369 C1370 1.397 . S
C1369 C1374 1.363 . S
C1370 H1347 0.950 . S
C1370 C1369 1.397 . S
C1370 C1371 1.334 1_556 S
C1371 H1348 0.950 . S
C1371 C1370 1.334 1_554 S
C1371 C1372 1.287 . S
C1372 C1371 1.287 . S
C1372 C1373 1.524 . S
C1372 H1391 0.913 . S
C1373 H1349 0.950 . S
C1373 C1372 1.524 . S
C1373 C1374 1.415 1_554 S
C1374 H1350 0.950 . S
C1374 C1369 1.363 . S
C1374 C1373 1.415 1_556 S
C1375 H1351 0.951 . S
C1375 C1376 1.366 . S
C1375 C1377 1.388 . S
C1376 C1375 1.366 . S
C1376 C1380 1.385 . S
C1377 H1352 0.951 . S
C1377 C1375 1.388 . S
C1377 C1378 1.366 . S
C1378 C1377 1.366 . S
C1378 C1379 1.414 . S
C1378 C1381 1.499 . S
C1379 H1353 0.950 . S
C1379 C1378 1.414 . S
C1379 C1380 1.374 . S
C1380 H1354 0.950 . S
C1380 C1376 1.385 . S
C1380 C1379 1.374 . S
C1381 C1378 1.499 . S
C1381 C1382 1.373 . S
C1381 C1383 1.389 . S
C1382 H1355 0.950 . S
C1382 C1368 1.377 . S
C1382 C1381 1.373 . S
C1383 C1367 1.377 . S
C1383 C1381 1.389 . S
C1383 C1384 1.524 . S
C1384 C1383 1.524 . S
C1384 C1385 1.397 . S
C1384 C1389 1.363 . S
C1385 H1356 0.950 . S
C1385 C1384 1.397 . S
C1385 C1386 1.334 . S
C1386 H1357 0.950 . S
C1386 C1385 1.334 . S
C1386 C1387 1.287 . S
C1387 C1386 1.287 . S
C1387 C1388 1.524 . S
C1387 H1390 0.999 . S
C1388 H1358 0.950 . S
C1388 C1387 1.524 . S
C1388 C1389 1.415 . S
C1389 H1359 0.950 . S
C1389 C1384 1.363 . S
C1389 C1388 1.415 . S
H1390 C1387 0.999 . S
H1391 C1372 0.913 . S
C211 C7 1.312 . S
C226 N93 1.322 . S
C261 C37 1.226 . S
C276 N106 1.233 . S
C311 C54 1.210 . S
C326 N115 1.213 . S
C376 N132 1.339 . S
C361 C87 1.325 . S
C426 N145 1.280 . S
C411 C30 1.280 . S
C461 C51 1.334 . S
C476 N154 1.353 . S
C511 C84 1.259 . S
C526 N167 1.262 . S
C561 C10 1.191 . S
C576 N184 1.192 . S
C611 C59 1.336 . S
C626 N180 1.353 . S
C676 N141 1.204 . S
C661 C74 1.199 . S
C726 N158 1.253 . S
C711 C18 1.249 . S
C761 C32 1.324 . S
C776 N171 1.330 . S
C826 N102 1.337 . S
C811 C73 1.322 . S
C861 C15 1.330 . S
C876 N119 1.349 . S
C926 N128 1.292 . S
C911 C43 1.283 . S
C976 N89 1.196 . S
C961 C62 1.190 . S
C1026 N168 1.361 . S
C1011 C21 1.361 . S
C1076 N181 1.337 . S
C1061 C29 1.331 . S
C1111 C52 1.301 . S
C1126 N142 1.301 . S
C1176 N155 1.350 . S
C1161 C81 1.348 . S
C1226 N116 1.322 . S
C1211 C40 1.324 . S
C1261 C65 1.362 . S
C1276 N129 1.359 . S
C1326 N90 1.305 . S
C1311 C76 1.305 . S
C1376 N103 1.345 . S
C1361 C8 1.347 . S
