# Generated by pormake.
# Topology zzz, (3,6)-cn, num edge types: 1
# Building blocks:
#     Node 0, Type 0, BuildingBlock: PAMTOO_clean_linker_0, # of connection points: 3
#     Node 1, Type 0, BuildingBlock: PAMTOO_clean_linker_0, # of connection points: 3
#     Node 2, Type 0, BuildingBlock: PAMTOO_clean_linker_0, # of connection points: 3
#     Node 3, Type 0, BuildingBlock: PAMTOO_clean_linker_0, # of connection points: 3
#     Node 4, Type 0, BuildingBlock: PAMTOO_clean_linker_0, # of connection points: 3
#     Node 5, Type 0, BuildingBlock: PAMTOO_clean_linker_0, # of connection points: 3
#     Node 6, Type 0, BuildingBlock: PAMTOO_clean_linker_0, # of connection points: 3
#     Node 7, Type 0, BuildingBlock: PAMTOO_clean_linker_0, # of connection points: 3
#     Node 8, Type 1, BuildingBlock: BETFEN_clean_sbu_0, # of connection points: 6
#     Node 9, Type 1, BuildingBlock: BETFEN_clean_sbu_0, # of connection points: 6
#     Node 10, Type 1, BuildingBlock: BETFEN_clean_sbu_0, # of connection points: 6
#     Node 11, Type 1, BuildingBlock: BETFEN_clean_sbu_0, # of connection points: 6
#     Edge 12, Type (0, 1), BuildingBlock: ZUJKAS_clean_linker_0, # of connection points: 2
#     Edge 13, Type (0, 1), BuildingBlock: ZUJKAS_clean_linker_0, # of connection points: 2
#     Edge 14, Type (0, 1), BuildingBlock: ZUJKAS_clean_linker_0, # of connection points: 2
#     Edge 15, Type (0, 1), BuildingBlock: ZUJKAS_clean_linker_0, # of connection points: 2
#     Edge 16, Type (0, 1), BuildingBlock: ZUJKAS_clean_linker_0, # of connection points: 2
#     Edge 17, Type (0, 1), BuildingBlock: ZUJKAS_clean_linker_0, # of connection points: 2
#     Edge 18, Type (0, 1), BuildingBlock: ZUJKAS_clean_linker_0, # of connection points: 2
#     Edge 19, Type (0, 1), BuildingBlock: ZUJKAS_clean_linker_0, # of connection points: 2
#     Edge 20, Type (0, 1), BuildingBlock: ZUJKAS_clean_linker_0, # of connection points: 2
#     Edge 21, Type (0, 1), BuildingBlock: ZUJKAS_clean_linker_0, # of connection points: 2
#     Edge 22, Type (0, 1), BuildingBlock: ZUJKAS_clean_linker_0, # of connection points: 2
#     Edge 23, Type (0, 1), BuildingBlock: ZUJKAS_clean_linker_0, # of connection points: 2
#     Edge 24, Type (0, 1), BuildingBlock: ZUJKAS_clean_linker_0, # of connection points: 2
#     Edge 25, Type (0, 1), BuildingBlock: ZUJKAS_clean_linker_0, # of connection points: 2
#     Edge 26, Type (0, 1), BuildingBlock: ZUJKAS_clean_linker_0, # of connection points: 2
#     Edge 27, Type (0, 1), BuildingBlock: ZUJKAS_clean_linker_0, # of connection points: 2
#     Edge 28, Type (0, 1), BuildingBlock: ZUJKAS_clean_linker_0, # of connection points: 2
#     Edge 29, Type (0, 1), BuildingBlock: ZUJKAS_clean_linker_0, # of connection points: 2
#     Edge 30, Type (0, 1), BuildingBlock: ZUJKAS_clean_linker_0, # of connection points: 2
#     Edge 31, Type (0, 1), BuildingBlock: ZUJKAS_clean_linker_0, # of connection points: 2
#     Edge 32, Type (0, 1), BuildingBlock: ZUJKAS_clean_linker_0, # of connection points: 2
#     Edge 33, Type (0, 1), BuildingBlock: ZUJKAS_clean_linker_0, # of connection points: 2
#     Edge 34, Type (0, 1), BuildingBlock: ZUJKAS_clean_linker_0, # of connection points: 2
#     Edge 35, Type (0, 1), BuildingBlock: ZUJKAS_clean_linker_0, # of connection points: 2
# Relax obj value: 0.229
# Max RMSD: 0.176
# Mean RMSD: 0.158
data_MOF--net-zzz--node1-BETFEN_clean_sbu_0--node2-PAMTOO_clean_linker_0--edge1-ZUJKAS_clean_linker_0
_symmetry_space_group_name_H-M    P1
_symmetry_Int_Tables_number       1
_symmetry_cell_setting            triclinic
loop_
_symmetry_equiv_pos_as_xyz
'x, y, z'
_cell_length_a     67.087332
_cell_length_b     67.21313
_cell_length_c     17.282586
_cell_angle_alpha  89.918421
_cell_angle_beta   89.963289
_cell_angle_gamma 90.006353
loop_
_atom_site_label
_atom_site_type_symbol
_atom_site_fract_x
_atom_site_fract_y
_atom_site_fract_z
_atom_type_partial_charge
H0 H 0.80144 0.52121 0.22917 0.0
H1 H 0.73941 0.52877 0.17543 0.0
H2 H 0.759 0.53084 0.4124 0.0
H3 H 0.70814 0.5194 0.38936 0.0
C4 C 0.71428 0.51819 0.32983 0.0
O5 O 0.72793 0.53335 0.31862 0.0
H6 H 0.72151 0.50328 0.32619 0.0
C7 C 0.78625 0.52373 0.24835 0.0
C8 C 0.78228 0.52577 0.32769 0.0
C9 C 0.77096 0.52475 0.19319 0.0
C10 C 0.75133 0.52792 0.21755 0.0
C11 C 0.74701 0.53009 0.2964 0.0
C12 C 0.76247 0.52916 0.35155 0.0
H13 H 1.00865 0.79712 0.25074 0.0
H14 H 1.01872 0.73571 0.19235 0.0
H15 H 1.01882 0.75403 0.43064 0.0
H16 H 0.99301 0.71534 0.33707 0.0
C17 C 1.0083 0.70892 0.34098 0.0
O18 O 0.02273 0.72354 0.33416 0.0
H19 H 1.00946 0.70213 0.39946 0.0
C20 C 1.01088 0.78179 0.2684 0.0
C21 C 1.01303 0.77747 0.34739 0.0
C22 C 1.01301 0.76692 0.21184 0.0
C23 C 1.01691 0.74734 0.23514 0.0
C24 C 1.0186 0.74257 0.3137 0.0
C25 C 1.01693 0.75768 0.37002 0.0
H26 H 0.75071 0.03804 0.28495 0.0
H27 H 0.80931 0.02083 0.20971 0.0
H28 H 0.78688 1.00045 0.4292 0.0
H29 H 0.84136 0.99789 0.40282 0.0
C30 C 0.83514 1.00767 0.35701 0.0
O31 O 0.81737 0.99952 0.33141 0.0
H32 H 0.83252 0.02251 0.38396 0.0
C33 C 0.76488 0.03088 0.29668 0.0
C34 C 0.76702 0.01979 0.36494 0.0
C35 C 0.77993 0.03137 0.24019 0.0
C36 C 0.79768 0.02093 0.25327 0.0
C37 C 0.8004 1.01017 0.32189 0.0
C38 C 0.78499 1.00938 0.37751 0.0
H39 H 0.49895 0.74106 0.26698 0.0
H40 H 0.51449 0.79912 0.18127 0.0
H41 H 0.53866 0.77847 0.39711 0.0
H42 H 0.54093 0.83067 0.37109 0.0
C43 C 0.53098 0.82557 0.3238 0.0
O44 O 0.53828 0.80776 0.29533 0.0
H45 H 0.51584 0.82352 0.3492 0.0
C46 C 0.50624 0.7553 0.27525 0.0
C47 C 0.51839 0.75804 0.34049 0.0
C48 C 0.50459 0.76995 0.21753 0.0
C49 C 0.51527 0.78775 0.22567 0.0
C50 C 0.52733 0.7909 0.29065 0.0
C51 C 0.52897 0.77605 0.3479 0.0
H52 H 0.24095 0.54167 0.13988 0.0
H53 H 0.30352 0.54097 0.19419 0.0
H54 H 0.28142 0.50802 0.99847 0.0
H55 H 0.3268 0.49094 0.06028 0.0
C56 C 0.32117 0.50008 0.10911 0.0
O57 O 0.31344 0.51759 0.07953 0.0
H58 H 0.30934 0.4911 0.13806 0.0
C59 C 0.25603 0.53695 0.12647 0.0
C60 C 0.25917 0.52415 0.06386 0.0
C61 C 0.27186 0.54332 0.17326 0.0
C62 C 0.29119 0.5365 0.15766 0.0
C63 C 0.29467 0.5239 0.09441 0.0
C64 C 0.27869 0.51789 0.04683 0.0
H65 H 1.01498 0.23394 0.1755 0.0
H66 H 0.02369 0.29499 0.24034 0.0
H67 H 0.02531 0.27833 0.99995 0.0
H68 H 0.99861 0.31577 0.09861 0.0
C69 C 1.01374 0.32242 0.09204 0.0
O70 O 0.0285 0.30816 0.09973 0.0
H71 H 1.01441 0.32862 0.03246 0.0
C72 C 1.01768 0.24928 0.15898 0.0
C73 C 1.01977 0.25415 0.0804 0.0
C74 C 1.01908 0.26383 0.21686 0.0
C75 C 0.02252 0.28365 0.19607 0.0
C76 C 0.02471 0.28892 0.11811 0.0
C77 C 0.0235 0.27417 0.06012 0.0
H78 H 0.30588 1.01698 0.15546 0.0
H79 H 0.24525 0.02604 0.22663 0.0
H80 H 0.26049 0.02807 0.98462 0.0
H81 H 0.22313 1.00163 0.09255 0.0
C82 C 0.21679 1.01662 0.08016 0.0
O83 O 0.23118 0.0313 0.08747 0.0
H84 H 0.21155 1.01654 0.01917 0.0
C85 C 0.29044 0.01986 0.14065 0.0
C86 C 0.28508 0.0221 0.06266 0.0
C87 C 0.27625 0.02138 0.2 0.0
C88 C 0.2563 0.02493 0.18115 0.0
C89 C 0.25055 0.02733 0.10379 0.0
C90 C 0.26497 0.0261 0.04434 0.0
H91 H 0.55064 0.29698 0.11216 0.0
H92 H 0.54247 0.23686 0.19235 0.0
H93 H 0.5124 0.25716 0.98694 0.0
H94 H 0.49042 0.21607 0.06967 0.0
C95 C 0.50119 0.22058 0.11516 0.0
O96 O 0.51874 0.22648 0.07983 0.0
H97 H 0.49424 0.23318 0.14729 0.0
C98 C 0.54443 0.28221 0.10447 0.0
C99 C 0.53152 0.27883 0.04225 0.0
C100 C 0.54843 0.26732 0.15937 0.0
C101 C 0.53958 0.24855 0.1506 0.0
C102 C 0.52673 0.24484 0.08831 0.0
C103 C 0.52248 0.26004 0.03456 0.0
Pr104 Pr 0.03445 1.01219 0.76796 0.0
Pr105 Pr 1.00959 0.02361 0.62178 0.0
C106 C 0.04923 0.9922 0.88879 0.0
C107 C 0.04703 0.97074 0.90446 0.0
C108 C 0.06391 0.95842 0.90341 0.0
C109 C 0.06179 0.93777 0.89885 0.0
C110 C 0.04274 0.9291 0.89569 0.0
C111 C 0.02588 0.9414 0.90145 0.0
C112 C 0.02798 0.962 0.90553 0.0
C113 C 0.05685 0.02405 0.63999 0.0
C114 C 1.0176 0.97615 0.64616 0.0
C115 C 0.99997 0.04295 0.49259 0.0
C116 C 0.99175 0.0632 0.49108 0.0
C117 C 0.9808 0.07002 0.55523 0.0
C118 C 0.97837 0.09037 0.56814 0.0
C119 C 0.98697 0.10423 0.51742 0.0
C120 C 0.99652 0.09734 0.44995 0.0
C121 C 0.99897 0.07696 0.43706 0.0
C122 C 0.98286 1.01914 0.74604 0.0
C123 C 0.02295 0.05895 0.75145 0.0
O124 O 0.03305 1.00306 0.894 0.0
O125 O 0.05993 0.99643 0.82769 0.0
O126 O 0.04181 1.01268 0.63795 0.0
O127 O 0.06069 0.02979 0.71031 0.0
O128 O 1.01227 0.98972 0.59468 0.0
O129 O 0.0243 0.98117 0.71564 0.0
O130 O 1.0183 0.04225 0.51859 0.0
O131 O 0.98846 0.02901 0.52164 0.0
O132 O 1.00151 1.01697 0.74845 0.0
O133 O 0.9773 0.02308 0.67585 0.0
O134 O 0.02794 0.04512 0.80221 0.0
O135 O 1.01805 0.05436 0.67951 0.0
H136 H 0.07873 0.96482 0.90193 0.0
H137 H 0.07506 0.92862 0.89616 0.0
H138 H 1.01099 0.93521 0.89855 0.0
H139 H 1.01463 0.97105 0.90508 0.0
H140 H 0.97547 0.05971 0.59878 0.0
H141 H 0.97104 0.09519 0.62074 0.0
H142 H 1.00295 0.10772 0.40894 0.0
H143 H 1.00771 0.07203 0.38798 0.0
Pr144 Pr 0.52877 0.02964 0.76377 0.0
Pr145 Pr 0.5179 1.00725 0.62656 0.0
C146 C 0.5481 0.04342 0.88862 0.0
C147 C 0.5697 0.04516 0.90303 0.0
C148 C 0.57817 0.06385 0.91815 0.0
C149 C 0.59889 0.06614 0.92009 0.0
C150 C 0.61148 0.04975 0.90692 0.0
C151 C 0.60292 0.03093 0.89486 0.0
C152 C 0.58229 0.02866 0.89257 0.0
C153 C 0.51801 0.05449 0.64143 0.0
C154 C 0.56474 1.01533 0.63939 0.0
C155 C 0.49737 0.99224 0.50769 0.0
C156 C 0.47615 0.98681 0.50998 0.0
C157 C 0.46796 0.97887 0.5784 0.0
C158 C 0.44736 0.97843 0.58935 0.0
C159 C 0.43459 0.98611 0.53247 0.0
C160 C 0.44275 0.99285 0.46204 0.0
C161 C 0.46338 0.99323 0.45098 0.0
C162 C 0.52778 0.98268 0.75127 0.0
C163 C 0.4816 0.02219 0.74777 0.0
O164 O 0.54089 0.02536 0.88468 0.0
O165 O 0.54105 0.05515 0.83493 0.0
O166 O 0.52925 0.03944 0.63496 0.0
O167 O 0.51185 0.05689 0.71211 0.0
O168 O 0.55073 1.012 0.58773 0.0
O169 O 0.55996 1.01964 0.7117 0.0
O170 O 0.50076 1.0113 0.51488 0.0
O171 O 0.50934 0.98134 0.54975 0.0
O172 O 0.51671 0.99785 0.75534 0.0
O173 O 0.5343 0.97993 0.68141 0.0
O174 O 0.49545 0.02584 0.79979 0.0
O175 O 0.48664 1.0173 0.67649 0.0
H176 H 0.56876 0.0768 0.92565 0.0
H177 H 0.60503 0.08085 0.92925 0.0
H178 H 0.61218 1.01792 0.88623 0.0
H179 H 0.57627 1.01406 0.8802 0.0
H180 H 0.47748 0.9742 0.62567 0.0
H181 H 0.44153 0.9733 0.64433 0.0
H182 H 0.43321 0.99851 0.41654 0.0
H183 H 0.46938 0.99963 0.3983 0.0
Pr184 Pr 0.50964 0.5253 0.76878 0.0
Pr185 Pr 0.53264 0.51361 0.63376 0.0
C186 C 0.49371 0.54515 0.88852 0.0
C187 C 0.48883 0.56647 0.8949 0.0
C188 C 0.46955 0.57245 0.91618 0.0
C189 C 0.46403 0.59251 0.91125 0.0
C190 C 0.47765 0.60679 0.88396 0.0
C191 C 0.49707 0.6008 0.86459 0.0
C192 C 0.50262 0.58088 0.87029 0.0
C193 C 0.48543 0.51505 0.64358 0.0
C194 C 0.52546 0.56053 0.64633 0.0
C195 C 0.5483 0.49429 0.51196 0.0
C196 C 0.5541 0.47326 0.50254 0.0
C197 C 0.57368 0.46829 0.48134 0.0
C198 C 0.57988 0.44839 0.48144 0.0
C199 C 0.56662 0.43321 0.50352 0.0
C200 C 0.54691 0.4382 0.5227 0.0
C201 C 0.5407 0.45798 0.52202 0.0
C202 C 0.55675 0.5235 0.75992 0.0
C203 C 0.51708 0.47827 0.75744 0.0
O204 O 0.51266 0.5406 0.88474 0.0
O205 O 0.48291 0.53523 0.83903 0.0
O206 O 0.50075 0.52596 0.63889 0.0
O207 O 0.48256 0.50875 0.71371 0.0
O208 O 0.52778 0.5464 0.59451 0.0
O209 O 0.52154 0.55592 0.71899 0.0
O210 O 0.52923 0.49794 0.51889 0.0
O211 O 0.55915 0.50456 0.56028 0.0
O212 O 0.54134 0.51271 0.7636 0.0
O213 O 0.55994 0.52977 0.68992 0.0
O214 O 0.51384 0.49246 0.80837 0.0
O215 O 0.52182 0.48278 0.68529 0.0
H216 H 0.45862 0.56156 0.93457 0.0
H217 H 0.44899 0.59677 0.92692 0.0
H218 H 0.50803 0.61155 0.84523 0.0
H219 H 0.51761 0.57675 0.85369 0.0
H220 H 0.5843 0.47983 0.4665 0.0
H221 H 0.59514 0.44492 0.466 0.0
H222 H 0.53623 0.42677 0.53814 0.0
H223 H 0.52548 0.4613 0.53851 0.0
Pr224 Pr 1.01296 0.50563 0.77908 0.0
Pr225 Pr 0.02687 0.52867 0.63143 0.0
C226 C 0.99078 0.49179 0.89576 0.0
C227 C 0.9694 0.48697 0.89199 0.0
C228 C 0.96151 0.47776 0.82555 0.0
C229 C 0.94095 0.47694 0.81377 0.0
C230 C 0.92794 0.48554 0.86766 0.0
C231 C 0.93578 0.49395 0.93568 0.0
C232 C 0.95636 0.49465 0.94775 0.0
C233 C 0.02331 0.4817 0.65353 0.0
C234 C 0.97866 0.52316 0.65154 0.0
C235 C 0.0469 0.53596 0.50085 0.0
C236 C 0.06771 0.54293 0.49207 0.0
C237 C 0.07182 0.562 0.46272 0.0
C238 C 0.09128 0.56959 0.46456 0.0
C239 C 0.10689 0.55825 0.49639 0.0
C240 C 0.10284 0.53897 0.52331 0.0
C241 C 0.08354 0.53138 0.52105 0.0
C242 C 0.02442 0.55627 0.75335 0.0
C243 C 0.0601 0.51487 0.76783 0.0
O244 O 0.99491 0.51071 0.88803 0.0
O245 O 1.00269 0.48031 0.8558 0.0
O246 O 1.01321 0.49758 0.6494 0.0
O247 O 0.02845 0.47783 0.72447 0.0
O248 O 0.99282 0.52865 0.60271 0.0
O249 O 0.9828 0.51535 0.71998 0.0
O250 O 0.04468 0.51798 0.52909 0.0
O251 O 0.03425 0.54883 0.5299 0.0
O252 O 0.02065 0.53792 0.75723 0.0
O253 O 0.02907 0.56108 0.68291 0.0
O254 O 0.04555 0.51191 0.81802 0.0
O255 O 0.05645 0.51837 0.69378 0.0
H256 H 0.97124 0.47211 0.78061 0.0
H257 H 0.93529 0.47054 0.76064 0.0
H258 H 0.926 0.50046 0.97863 0.0
H259 H 0.96211 0.50204 0.99873 0.0
H260 H 0.05991 0.57124 0.44038 0.0
H261 H 0.09403 0.58447 0.44293 0.0
H262 H 0.11463 0.52968 0.54633 0.0
H263 H 0.08102 0.51661 0.54417 0.0
H264 H 0.21327 0.04114 0.21077 0.0
H265 H 0.18513 0.04338 0.30038 0.0
H266 H 0.15205 1.00184 0.16048 0.0
H267 H 0.18041 0.9991 0.07175 0.0
H268 H 0.14597 0.05499 0.28019 0.0
H269 H 0.14898 0.97595 0.37187 0.0
H270 H 0.16875 0.98756 0.31729 0.0
H271 H 0.14653 0.97912 0.26921 0.0
C272 C 0.20006 0.03245 0.19889 0.0
C273 C 0.19911 0.01989 0.13376 0.0
C274 C 0.18391 0.0338 0.25024 0.0
C275 C 0.16654 0.02253 0.23812 0.0
C276 C 0.16541 1.01037 0.17222 0.0
H277 H 0.05561 1.00647 0.49708 0.0
H278 H 0.0814 1.00726 0.39631 0.0
C279 C 0.18155 1.00895 0.12111 0.0
C280 C 0.14968 0.02338 0.29447 0.0
H281 H 0.12113 0.99465 0.41482 0.0
C282 C 0.14059 0.04181 0.30979 0.0
C283 C 0.1426 1.00619 0.33331 0.0
C284 C 0.15232 0.98612 0.32279 0.0
C285 C 0.12449 0.04344 0.36178 0.0
C286 C 0.11741 0.02623 0.40039 0.0
C287 C 0.12645 1.00782 0.38489 0.0
C288 C 0.10108 0.02702 0.45892 0.0
C289 C 0.11496 0.06352 0.37399 0.0
C290 C 0.10347 0.03792 0.52758 0.0
C291 C 0.08878 0.03745 0.58524 0.0
C292 C 0.0714 0.02601 0.57564 0.0
C293 C 0.0688 1.01546 0.50615 0.0
C294 C 0.08356 1.01586 0.4486 0.0
H295 H 0.11841 0.07392 0.32579 0.0
H296 H 0.09853 0.06215 0.3795 0.0
H297 H 0.12079 0.07012 0.42826 0.0
H298 H 0.11698 0.04635 0.53764 0.0
H299 H 0.09127 0.04569 0.63819 0.0
H300 H 0.49008 0.21629 0.26735 0.0
H301 H 0.49382 0.18698 0.35077 0.0
H302 H 0.52338 0.15581 0.16547 0.0
H303 H 0.51961 0.18515 0.08168 0.0
H304 H 0.47857 0.14785 0.31844 0.0
H305 H 0.56094 0.148 0.35448 0.0
H306 H 0.54728 0.16968 0.32271 0.0
H307 H 0.5519 0.1496 0.25672 0.0
C308 C 0.49759 0.20327 0.24477 0.0
C309 C 0.50481 0.20307 0.16839 0.0
C310 C 0.49967 0.18652 0.29236 0.0
C311 C 0.50908 0.16928 0.26471 0.0
C312 C 0.51638 0.16906 0.18851 0.0
H313 H 0.5336 0.05513 0.49446 0.0
H314 H 0.53087 0.082 0.39837 0.0
C315 C 0.51421 0.18579 0.14071 0.0
C316 C 0.51044 0.1513 0.31472 0.0
H317 H 0.54334 0.12103 0.40947 0.0
C318 C 0.49273 0.14197 0.33833 0.0
C319 C 0.52893 0.14353 0.34002 0.0
C320 C 0.54839 0.15324 0.31783 0.0
C321 C 0.49298 0.12512 0.38661 0.0
C322 C 0.51144 0.11763 0.41364 0.0
C323 C 0.52919 0.12675 0.38882 0.0
C324 C 0.5126 0.10098 0.47048 0.0
C325 C 0.47343 0.11536 0.40737 0.0
C326 C 0.50336 0.10272 0.54306 0.0
C327 C 0.50482 0.08742 0.59765 0.0
C328 C 0.51576 0.07009 0.5813 0.0
C329 C 0.52502 0.06829 0.50861 0.0
C330 C 0.52351 0.08364 0.4538 0.0
H331 H 0.46171 0.11873 0.36388 0.0
H332 H 0.47505 0.09896 0.41203 0.0
H333 H 0.46826 0.12113 0.46404 0.0
H334 H 0.49525 0.1161 0.55813 0.0
H335 H 0.49761 0.08932 0.65325 0.0
H336 H 0.32523 0.4882 0.26043 0.0
H337 H 0.3542 0.49221 0.34537 0.0
H338 H 0.38482 0.52457 0.16544 0.0
H339 H 0.35577 0.52056 0.08014 0.0
H340 H 0.39354 0.47822 0.3109 0.0
H341 H 0.392 0.55996 0.36027 0.0
H342 H 0.37055 0.54634 0.32588 0.0
H343 H 0.3907 0.55199 0.2611 0.0
C344 C 0.33803 0.49641 0.23943 0.0
C345 C 0.33822 0.50422 0.16395 0.0
C346 C 0.35458 0.49864 0.28788 0.0
C347 C 0.37161 0.50884 0.26207 0.0
C348 C 0.37173 0.51693 0.18707 0.0
H349 H 0.48538 0.53188 0.49862 0.0
H350 H 0.4588 0.53003 0.40095 0.0
C351 C 0.35518 0.51462 0.1384 0.0
C352 C 0.38956 0.50999 0.31234 0.0
H353 H 0.41921 0.54223 0.41296 0.0
C354 C 0.39917 0.49222 0.33318 0.0
C355 C 0.39701 0.52828 0.34071 0.0
C356 C 0.38701 0.54776 0.32152 0.0
C357 C 0.41594 0.49221 0.38183 0.0
C358 C 0.42309 0.51043 0.41203 0.0
C359 C 0.41374 0.52827 0.38987 0.0
C360 C 0.43954 0.51117 0.46977 0.0
C361 C 0.42597 0.47264 0.3998 0.0
C362 C 0.43752 0.5013 0.541 0.0
C363 C 0.45264 0.50228 0.59647 0.0
C364 C 0.47007 0.51332 0.58234 0.0
C365 C 0.47215 0.52319 0.51099 0.0
C366 C 0.45696 0.52219 0.45531 0.0
H367 H 0.42281 0.46134 0.35459 0.0
H368 H 0.44237 0.47446 0.40489 0.0
H369 H 0.4202 0.46684 0.45563 0.0
H370 H 0.42407 0.49306 0.5543 0.0
H371 H 0.45053 0.4946 0.651 0.0
H372 H 0.03561 0.35679 0.07738 0.0
H373 H 0.03871 0.3843 0.16986 0.0
H374 H 1.00171 0.35235 0.33211 0.0
H375 H 0.99831 0.32502 0.23891 0.0
H376 H 0.99001 0.39107 0.31658 0.0
H377 H 0.07157 0.3879 0.36604 0.0
H378 H 0.06488 0.39023 0.26589 0.0
H379 H 0.05809 0.36815 0.31858 0.0
C380 C 0.02825 0.35564 0.13301 0.0
C381 C 1.01657 0.33888 0.15077 0.0
C382 C 0.03012 0.3713 0.18605 0.0
C383 C 1.0206 0.37039 0.25848 0.0
C384 C 1.0092 0.35345 0.27672 0.0
H385 H 0.04002 0.44481 0.66088 0.0
H386 H 0.03944 0.41867 0.5627 0.0
C387 C 1.0073 0.33782 0.2236 0.0
C388 C 0.02187 0.38734 0.31406 0.0
H389 H 0.05455 0.41594 0.4174 0.0
C390 C 1.00413 0.39649 0.33866 0.0
C391 C 0.04026 0.39434 0.34362 0.0
C392 C 0.05978 0.38455 0.32286 0.0
C393 C 1.00427 0.41243 0.39143 0.0
C394 C 0.0227 0.41977 0.41947 0.0
C395 C 0.04043 0.41053 0.39526 0.0
C396 C 0.02383 0.43628 0.47712 0.0
C397 C 0.9846 0.42087 0.4183 0.0
C398 C 1.01569 0.45515 0.46139 0.0
C399 C 1.01592 0.47016 0.51782 0.0
C400 C 0.02446 0.46663 0.59087 0.0
C401 C 0.03325 0.448 0.60534 0.0
C402 C 0.03295 0.43302 0.54915 0.0
H403 H 0.97207 0.41046 0.40721 0.0
H404 H 0.98498 0.42432 0.4811 0.0
H405 H 0.98153 0.43487 0.38638 0.0
H406 H 1.00899 0.45824 0.40567 0.0
H407 H 1.00915 0.4844 0.50473 0.0
H408 H 0.8623 0.0374 0.33055 0.0
H409 H 0.88823 0.03917 0.23093 0.0
H410 H 0.86864 0.98285 0.13902 0.0
H411 H 0.84301 0.9808 0.24015 0.0
H412 H 0.90895 0.98456 0.14884 0.0
H413 H 0.88128 0.05297 0.00542 0.0
H414 H 0.886 0.05623 0.10677 0.0
H415 H 0.86668 0.03948 0.0757 0.0
C416 C 0.86336 0.02553 0.28842 0.0
C417 C 0.85023 1.00924 0.29182 0.0
C418 C 0.87817 0.02657 0.23132 0.0
C419 C 0.88017 1.01137 0.1761 0.0
C420 C 0.8673 0.99488 0.18035 0.0
H421 H 0.94252 0.01977 0.73969 0.0
H422 H 0.91873 1.01721 0.846 0.0
C423 C 0.85256 0.99378 0.23779 0.0
C424 C 0.89587 1.01248 0.11485 0.0
H425 H 0.91302 0.04127 0.96578 0.0
C426 C 0.90982 0.99694 0.1087 0.0
C427 C 0.89695 0.02854 0.06185 0.0
C428 C 0.88182 0.04516 0.06207 0.0
C429 C 0.92479 0.99705 0.05141 0.0
C430 C 0.92614 1.01335 0.99958 0.0
C431 C 0.91217 0.02886 0.00581 0.0
C432 C 0.94109 1.01417 0.93544 0.0
C433 C 0.93861 0.97941 0.04559 0.0
C434 C 0.96175 1.01332 0.94973 0.0
C435 C 0.97549 1.01461 0.88842 0.0
C436 C 0.9688 1.01701 0.81189 0.0
C437 C 0.94818 1.01791 0.79795 0.0
C438 C 0.93452 1.01648 0.85883 0.0
H439 H 0.93243 0.96613 0.07552 0.0
H440 H 0.94155 0.9755 0.98424 0.0
H441 H 0.95304 0.98316 0.07334 0.0
H442 H 0.96727 1.01199 0.00835 0.0
H443 H 0.99129 1.01403 0.90098 0.0
H444 H 0.55241 0.82819 0.18594 0.0
H445 H 0.55189 0.85523 0.09074 0.0
H446 H 0.50849 0.88659 0.2283 0.0
H447 H 0.50883 0.85951 0.32364 0.0
H448 H 0.51786 0.87097 0.00609 0.0
H449 H 0.55407 0.92761 0.19311 0.0
H450 H 0.55519 0.90128 0.21381 0.0
H451 H 0.53294 0.91511 0.23487 0.0
C452 C 0.54258 0.84072 0.19562 0.0
C453 C 0.53031 0.84153 0.26173 0.0
C454 C 0.54237 0.8562 0.14124 0.0
C455 C 0.53027 0.87299 0.15268 0.0
C456 C 0.51809 0.87387 0.21865 0.0
H457 H 0.51009 0.98278 0.89418 0.0
H458 H 0.51066 0.95616 0.99151 0.0
C459 C 0.51818 0.85835 0.27274 0.0
C460 C 0.53026 0.8895 0.09529 0.0
H461 H 0.54182 0.93869 0.07209 0.0
C462 C 0.52317 0.88576 0.02034 0.0
C463 C 0.53708 0.90882 0.11418 0.0
C464 C 0.54541 0.91351 0.19313 0.0
C465 C 0.52244 0.90088 0.96408 0.0
C466 C 0.52944 0.92018 0.98267 0.0
C467 C 0.53648 0.92392 0.05779 0.0
C468 C 0.52968 0.93662 0.92479 0.0
C469 C 0.51371 0.89614 0.88578 0.0
C470 C 0.54059 0.93474 0.85579 0.0
C471 C 0.54025 0.94989 0.80017 0.0
C472 C 0.52912 0.96732 0.81263 0.0
C473 C 0.51873 0.96949 0.88281 0.0
C474 C 0.51905 0.95429 0.93843 0.0
H475 H 0.50406 0.88271 0.88788 0.0
H476 H 0.50478 0.90881 0.86333 0.0
H477 H 0.52599 0.89318 0.84433 0.0
H478 H 0.54931 0.92149 0.84473 0.0
H479 H 0.54855 0.94785 0.74698 0.0
H480 H 0.6793 0.53915 0.34074 0.0
H481 H 0.65184 0.54075 0.24702 0.0
H482 H 0.68501 0.50309 0.09139 0.0
H483 H 0.71222 0.50109 0.18593 0.0
H484 H 0.6501 0.55432 0.09924 0.0
H485 H 0.63233 0.47381 0.10467 0.0
H486 H 0.64854 0.48529 0.17491 0.0
H487 H 0.65786 0.47885 0.08056 0.0
C488 C 0.68062 0.53114 0.28664 0.0
C489 C 0.69766 0.51967 0.2711 0.0
C490 C 0.66498 0.5321 0.23308 0.0
C491 C 0.66612 0.52167 0.16277 0.0
C492 C 0.6835 0.51079 0.14605 0.0
H493 H 0.59358 0.54058 0.75258 0.0
H494 H 0.61945 0.54077 0.85215 0.0
C495 C 0.69909 0.50977 0.19978 0.0
C496 C 0.64924 0.52235 0.10679 0.0
H497 H 0.61669 0.49303 0.00619 0.0
C498 C 0.64274 0.54092 0.07915 0.0
C499 C 0.63936 0.50491 0.08147 0.0
C500 C 0.64472 0.4846 0.11247 0.0
C501 C 0.62698 0.54249 0.02577 0.0
C502 C 0.61769 0.52498 0.99791 0.0
C503 C 0.6239 0.50645 0.02686 0.0
C504 C 0.60165 0.52549 0.93822 0.0
C505 C 0.62026 0.56293 1.00078 0.0
C506 C 0.58309 0.51647 0.95252 0.0
C507 C 0.56832 0.51615 0.8952 0.0
C508 C 0.57185 0.52477 0.82231 0.0
C509 C 0.59035 0.53393 0.80831 0.0
C510 C 0.60513 0.53416 0.86545 0.0
H511 H 0.62443 0.57444 0.04395 0.0
H512 H 0.62762 0.56683 0.94528 0.0
H513 H 0.60388 0.56344 0.99201 0.0
H514 H 0.58006 0.5096 0.00802 0.0
H515 H 0.55423 0.50895 0.90764 0.0
H516 H 0.03359 0.67681 0.3438 0.0
H517 H 0.03702 0.65014 0.24767 0.0
H518 H 0.99306 0.67885 0.10379 0.0
H519 H 0.9895 0.70541 0.20033 0.0
H520 H 0.98615 0.6381 0.12208 0.0
H521 H 0.06467 0.65224 0.037 0.0
H522 H 0.06092 0.649 0.13916 0.0
H523 H 0.05008 0.67006 0.09073 0.0
C524 C 0.02476 0.67743 0.2914 0.0
C525 C 1.01114 0.69304 0.2798 0.0
C526 C 0.02678 0.66225 0.23634 0.0
C527 C 1.01538 0.66249 0.16809 0.0
C528 C 1.00199 0.67828 0.15597 0.0
H529 H 0.0317 0.59591 0.74605 0.0
H530 H 0.02927 0.62055 0.84928 0.0
C531 C 0.99998 0.69346 0.211 0.0
C532 C 1.01706 0.64612 0.11014 0.0
H533 H 0.04962 0.62309 0.987 0.0
C534 C 1.00004 0.63479 0.09261 0.0
C535 C 0.03513 0.64188 0.07114 0.0
C536 C 0.05372 0.65402 0.08475 0.0
C537 C 1.00059 0.61939 0.03743 0.0
C538 C 1.01874 0.61496 0.99925 0.0
C539 C 0.03575 0.62631 0.01676 0.0
C540 C 1.02014 0.59954 0.93733 0.0
C541 C 0.98159 0.60838 0.01884 0.0
C542 C 1.01598 0.57935 0.95222 0.0
C543 C 1.01733 0.56513 0.89281 0.0
C544 C 0.02293 0.57086 0.81759 0.0
C545 C 0.02727 0.591 0.80326 0.0
C546 C 0.02594 0.60513 0.86236 0.0
H547 H 0.9682 0.61646 0.03992 0.0
H548 H 0.98012 0.60604 0.95551 0.0
H549 H 0.98192 0.59357 0.04726 0.0
H550 H 1.01183 0.57456 0.00986 0.0
H551 H 1.01404 0.54971 0.90573 0.0
H552 H 0.03889 0.23471 0.29284 0.0
H553 H 0.0289 0.21882 0.41337 0.0
H554 H 0.98349 0.26348 0.4468 0.0
H555 H 0.99327 0.27927 0.324 0.0
H556 H 0.02137 0.22728 0.57212 0.0
H557 H 0.95133 0.21304 0.40634 0.0
H558 H 0.9725 0.22406 0.35855 0.0
H559 H 0.95862 0.23812 0.42861 0.0
C560 C 0.02712 0.24144 0.32693 0.0
C561 C 1.01651 0.25787 0.29857 0.0
C562 C 0.02152 0.23247 0.39618 0.0
C563 C 1.00517 0.23973 0.43827 0.0
C564 C 0.99594 0.25747 0.4145 0.0
H565 H 0.95699 0.12739 0.57805 0.0
H566 H 0.95793 0.16334 0.60245 0.0
C567 C 1.00158 0.26651 0.3447 0.0
C568 C 0.99598 0.22624 0.49592 0.0
H569 H 0.96203 0.18862 0.49146 0.0
C570 C 1.00793 0.21922 0.55681 0.0
C571 C 0.97814 0.216 0.47755 0.0
C572 C 0.96432 0.22308 0.41432 0.0
C573 C 1.00419 0.20066 0.59114 0.0
C574 C 0.98831 0.18889 0.5629 0.0
C575 C 0.97448 0.19746 0.51192 0.0
C576 C 0.98873 0.16686 0.56758 0.0
C577 C 1.01837 0.19317 0.65224 0.0
C578 C 1.00577 0.15684 0.54102 0.0
C579 C 1.00524 0.13647 0.52682 0.0
C580 C 0.98757 0.12564 0.53793 0.0
C581 C 0.97078 0.1354 0.56847 0.0
C582 C 0.97133 0.15589 0.58285 0.0
H583 H 0.0212 0.20503 0.69561 0.0
H584 H 1.01259 0.1798 0.68245 0.0
H585 H 0.03289 0.18948 0.62499 0.0
H586 H 1.01924 0.16493 0.52673 0.0
H587 H 1.01859 0.12928 0.50539 0.0
H588 H 0.30681 0.04039 0.27046 0.0
H589 H 0.32237 0.0316 0.39294 0.0
H590 H 0.27579 0.98876 0.43716 0.0
H591 H 0.26036 0.99723 0.3123 0.0
H592 H 0.31276 0.02801 0.55198 0.0
H593 H 0.32525 0.95407 0.41271 0.0
H594 H 0.31532 0.97446 0.35706 0.0
H595 H 0.30026 0.96267 0.42988 0.0
C596 C 0.29968 0.02936 0.30694 0.0
C597 C 0.28272 1.01912 0.28131 0.0
C598 C 0.30845 0.02448 0.37733 0.0
C599 C 0.30044 1.00926 0.42354 0.0
C600 C 0.28237 1.00033 0.40175 0.0
H601 H 0.40904 0.9595 0.60161 0.0
H602 H 0.37286 0.96296 0.61779 0.0
C603 C 0.27354 1.00523 0.33075 0.0
C604 C 0.31324 1.00094 0.48534 0.0
H605 H 0.34923 0.9654 0.4985 0.0
C606 C 0.32031 1.01394 0.54263 0.0
C607 C 0.3228 0.98236 0.47463 0.0
C608 C 0.31563 0.96751 0.41537 0.0
C609 C 0.33838 1.01023 0.58072 0.0
C610 C 0.34957 0.99319 0.56028 0.0
C611 C 0.34082 0.97867 0.51302 0.0
C612 C 0.37154 0.99259 0.56882 0.0
C613 C 0.34608 0.0255 0.63708 0.0
C614 C 0.38284 1.00816 0.53689 0.0
C615 C 0.40333 1.00616 0.52709 0.0
C616 C 0.41302 0.98848 0.54844 0.0
C617 C 0.40193 0.97327 0.58426 0.0
C618 C 0.38131 0.97526 0.59393 0.0
H619 H 0.33402 0.02989 0.67773 0.0
H620 H 0.35898 0.01999 0.67093 0.0
H621 H 0.35062 0.03908 0.60492 0.0
H622 H 0.37567 0.02149 0.51521 0.0
H623 H 0.41155 1.01835 0.50118 0.0
H624 H 0.58332 0.28799 0.16596 0.0
H625 H 0.59478 0.30721 0.27584 0.0
H626 H 0.55176 0.27773 0.42234 0.0
H627 H 0.53938 0.25927 0.31054 0.0
H628 H 0.54396 0.31455 0.41736 0.0
H629 H 0.62425 0.31107 0.47159 0.0
H630 H 0.62103 0.3137 0.36939 0.0
H631 H 0.61157 0.2918 0.41792 0.0
C632 C 0.57678 0.28508 0.2222 0.0
C633 C 0.56007 0.27262 0.22927 0.0
C634 C 0.58358 0.29589 0.28565 0.0
C635 C 0.57411 0.29407 0.35782 0.0
C636 C 0.55927 0.27947 0.36722 0.0
H637 H 0.55967 0.40551 0.61621 0.0
H638 H 0.56479 0.36949 0.6071 0.0
C639 C 0.55224 0.26884 0.30326 0.0
C640 C 0.57587 0.31068 0.4141 0.0
H641 H 0.60927 0.34526 0.47822 0.0
C642 C 0.55825 0.32084 0.43343 0.0
C643 C 0.59445 0.319 0.43541 0.0
C644 C 0.61382 0.30811 0.42302 0.0
C645 C 0.55875 0.33998 0.46511 0.0
C646 C 0.57739 0.34913 0.47892 0.0
C647 C 0.59499 0.33829 0.46661 0.0
C648 C 0.57866 0.37073 0.49416 0.0
C649 C 0.53931 0.35095 0.47677 0.0
C650 C 0.58576 0.38337 0.43557 0.0
C651 C 0.58292 0.40391 0.44068 0.0
C652 C 0.57285 0.41208 0.50438 0.0
C653 C 0.56713 0.39952 0.56576 0.0
C654 C 0.57013 0.379 0.56086 0.0
H655 H 0.52633 0.34259 0.45361 0.0
H656 H 0.5368 0.35337 0.53952 0.0
H657 H 0.53982 0.36574 0.44809 0.0
H658 H 0.59232 0.37724 0.38349 0.0
H659 H 0.58745 0.41322 0.39257 0.0
H660 H 0.25072 0.57763 0.1749 0.0
H661 H 0.23196 0.59011 0.28425 0.0
H662 H 0.26348 0.54987 0.43601 0.0
H663 H 0.28164 0.53655 0.32453 0.0
H664 H 0.22713 0.54092 0.43713 0.0
H665 H 0.22719 0.62159 0.47357 0.0
H666 H 0.22465 0.61729 0.37203 0.0
H667 H 0.24696 0.60915 0.42158 0.0
C668 C 0.25427 0.57207 0.23214 0.0
C669 C 0.26721 0.55583 0.24122 0.0
C670 C 0.24369 0.57942 0.29526 0.0
C671 C 0.24614 0.57092 0.36897 0.0
C672 C 0.26125 0.55664 0.37975 0.0
H673 H 0.13302 0.55612 0.61744 0.0
H674 H 0.16886 0.5631 0.61415 0.0
C675 C 0.27169 0.54907 0.31609 0.0
C676 C 0.2296 0.5728 0.42578 0.0
H677 H 0.19306 0.6055 0.47815 0.0
C678 C 0.22012 0.55513 0.4491 0.0
C679 C 0.22035 0.59125 0.44226 0.0
C680 C 0.23054 0.61083 0.42657 0.0
C681 C 0.2007 0.55527 0.47881 0.0
C682 C 0.19057 0.57361 0.4862 0.0
C683 C 0.20077 0.59142 0.47108 0.0
C684 C 0.1687 0.57405 0.49644 0.0
C685 C 0.1905 0.53563 0.49475 0.0
C686 C 0.15665 0.57889 0.43273 0.0
C687 C 0.13622 0.57491 0.43433 0.0
C688 C 0.12757 0.56596 0.49968 0.0
C689 C 0.13941 0.56264 0.56571 0.0
C690 C 0.15982 0.56673 0.56416 0.0
H691 H 0.19988 0.52268 0.47842 0.0
H692 H 0.18705 0.53444 0.55739 0.0
H693 H 0.17623 0.53472 0.46244 0.0
H694 H 0.16328 0.58448 0.37979 0.0
H695 H 0.12749 0.57759 0.38266 0.0
H696 H 0.98729 0.79186 0.13771 0.0
H697 H 0.99321 0.80869 0.01567 0.0
H698 H 0.0445 0.77138 0.97428 0.0
H699 H 0.03914 0.75511 0.09913 0.0
H700 H 0.0556 0.80736 0.98019 0.0
H701 H 0.99121 0.80856 0.78767 0.0
H702 H 0.98159 0.81278 0.88273 0.0
H703 H 0.99395 0.78953 0.86101 0.0
C704 C 0.99949 0.78684 0.10157 0.0
C705 C 1.01305 0.77256 0.12886 0.0
C706 C 1.00267 0.79622 0.03071 0.0
C707 C 1.01931 0.79131 0.98509 0.0
C708 C 0.03154 0.7754 0.00823 0.0
H709 H 0.06371 0.90457 0.79831 0.0
H710 H 0.06021 0.86838 0.78436 0.0
C711 C 0.02844 0.7661 0.07969 0.0
C712 C 0.02649 0.80605 0.9274 0.0
H713 H 1.00708 0.8424 0.81233 0.0
C714 C 0.04535 0.81451 0.94045 0.0
C715 C 1.01342 0.81527 0.87408 0.0
C716 C 0.99402 0.80582 0.85014 0.0
C717 C 0.05005 0.83348 0.91222 0.0
C718 C 0.03554 0.84406 0.86965 0.0
C719 C 1.01799 0.83439 0.84663 0.0
C720 C 0.03611 0.86598 0.867 0.0
C721 C 0.06944 0.84304 0.93631 0.0
C722 C 0.02352 0.87651 0.9171 0.0
C723 C 0.02561 0.89698 0.92593 0.0
C724 C 0.04033 0.90737 0.88458 0.0
C725 C 0.05253 0.89688 0.8323 0.0
C726 C 0.05041 0.87629 0.82347 0.0
H727 H 0.07907 0.83273 0.96991 0.0
H728 H 0.07778 0.84797 0.88426 0.0
H729 H 0.06639 0.85638 0.97225 0.0
H730 H 1.01256 0.86873 0.95195 0.0
H731 H 1.01609 0.90457 0.96705 0.0
H732 H 0.78631 1.0154 0.09699 0.0
H733 H 0.76775 0.02407 0.98034 0.0
H734 H 0.74327 0.07527 0.09717 0.0
H735 H 0.76261 0.06731 0.21157 0.0
H736 H 0.73042 1.01934 1.00048 0.0
H737 H 0.73822 0.09458 0.88252 0.0
H738 H 0.75761 0.08336 0.94049 0.0
H739 H 0.73736 0.09676 0.9856 0.0
C740 C 0.77792 0.02917 0.09612 0.0
C741 C 0.77541 0.0404 0.16395 0.0
C742 C 0.76725 0.03409 0.02935 0.0
C743 C 0.75385 0.05017 0.02996 0.0
C744 C 0.75361 0.06294 0.09424 0.0
H745 H 0.63494 0.07244 0.00199 0.0
H746 H 0.67136 0.07352 0.00565 0.0
C747 C 0.76448 0.0582 0.16041 0.0
C748 C 0.73647 0.05028 0.9769 0.0
H749 H 0.70306 0.08226 0.89486 0.0
C750 C 0.72479 0.03293 0.97462 0.0
C751 C 0.72902 0.06795 0.94308 0.0
C752 C 0.7414 0.08661 0.93749 0.0
C753 C 0.70514 0.03331 0.94772 0.0
C754 C 0.69704 0.05149 0.92111 0.0
C755 C 0.70925 0.06841 0.91641 0.0
C756 C 0.67538 0.05362 0.90854 0.0
C757 C 0.69267 1.01465 0.95463 0.0
C758 C 0.66565 0.04249 0.85146 0.0
C759 C 0.64488 0.04162 0.85006 0.0
C760 C 0.63346 0.05213 0.90472 0.0
C761 C 0.64328 0.06425 0.95882 0.0
C762 C 0.66408 0.06494 0.96079 0.0
H763 H 0.70044 1.00267 0.98706 0.0
H764 H 0.67835 1.0179 0.98435 0.0
H765 H 0.68919 1.00895 0.89597 0.0
H766 H 0.67412 0.03382 0.81015 0.0
H767 H 0.63775 0.03231 0.80738 0.0
H768 H 0.51588 0.77703 0.06749 0.0
H769 H 0.50286 0.76017 0.95316 0.0
H770 H 0.45635 0.73389 0.09264 0.0
H771 H 0.4684 0.75175 0.20491 0.0
H772 H 0.50733 0.72318 0.95301 0.0
H773 H 0.42796 0.7333 0.89485 0.0
H774 H 0.4418 0.7512 0.95124 0.0
H775 H 0.43018 0.72996 0.9971 0.0
C776 C 0.50222 0.76854 0.07278 0.0
C777 C 0.49346 0.76525 0.1456 0.0
C778 C 0.49481 0.75883 0.00729 0.0
C779 C 0.47868 0.74555 0.01387 0.0
C780 C 0.46856 0.74423 0.08489 0.0
H781 H 0.45833 0.62926 0.99157 0.0
H782 H 0.45531 0.66549 0.99313 0.0
C783 C 0.47573 0.75419 0.14982 0.0
C784 C 0.47581 0.7295 0.95584 0.0
H785 H 0.43991 0.69765 0.89093 0.0
C786 C 0.49262 0.71806 0.93646 0.0
C787 C 0.45669 0.72273 0.93341 0.0
C788 C 0.43823 0.73516 0.94472 0.0
C789 C 0.49067 0.69901 0.90476 0.0
C790 C 0.47137 0.69129 0.8913 0.0
C791 C 0.45467 0.70351 0.90252 0.0
C792 C 0.46846 0.6697 0.87989 0.0
C793 C 0.50919 0.68653 0.89359 0.0
C794 C 0.47601 0.66009 0.8142 0.0
C795 C 0.47799 0.6394 0.81361 0.0
C796 C 0.47218 0.62807 0.87835 0.0
C797 C 0.46291 0.63762 0.94095 0.0
C798 C 0.46112 0.6583 0.94176 0.0
H799 H 0.5229 0.69424 0.9136 0.0
H800 H 0.5078 0.67226 0.92563 0.0
H801 H 0.51104 0.68299 0.83135 0.0
H802 H 0.48147 0.66864 0.76552 0.0
H803 H 0.48484 0.63234 0.76394 0.0
H804 H 0.7545 0.49796 0.09273 0.0
H805 H 0.76939 0.48675 0.9703 0.0
H806 H 0.81397 0.53279 0.98887 0.0
H807 H 0.79894 0.54419 0.10917 0.0
H808 H 0.80468 0.52256 0.8327 0.0
H809 H 0.82051 0.45593 0.01662 0.0
H810 H 0.79514 0.4625 0.99516 0.0
H811 H 0.80964 0.47789 0.05875 0.0
C812 C 0.76698 0.50613 0.06873 0.0
C813 C 0.77592 0.52163 0.1108 0.0
C814 C 0.77552 0.49967 0.99913 0.0
C815 C 0.79306 0.50864 0.97158 0.0
C816 C 0.80047 0.52559 0.00913 0.0
H817 H 0.90424 0.51803 0.88045 0.0
H818 H 0.86818 0.51962 0.86826 0.0
C819 C 0.79199 0.53202 0.0782 0.0
C820 C 0.80631 0.49858 0.91541 0.0
H821 H 0.84371 0.46438 0.92295 0.0
C822 C 0.8128 0.50935 0.8504 0.0
C823 C 0.81667 0.48108 0.93732 0.0
C824 C 0.81025 0.4686 0.00571 0.0
C825 C 0.83086 0.50467 0.81368 0.0
C826 C 0.84275 0.48914 0.84396 0.0
C827 C 0.83474 0.47653 0.90072 0.0
C828 C 0.86466 0.48883 0.83345 0.0
C829 C 0.83777 0.51737 0.74689 0.0
C830 C 0.87483 0.47098 0.81831 0.0
C831 C 0.89556 0.46998 0.82665 0.0
C832 C 0.90633 0.48676 0.85139 0.0
C833 C 0.89624 0.50479 0.86275 0.0
C834 C 0.87564 0.50581 0.85406 0.0
H835 H 0.82501 0.52124 0.7088 0.0
H836 H 0.84402 0.53151 0.76944 0.0
H837 H 0.84936 0.50974 0.71195 0.0
H838 H 0.86664 0.45764 0.80336 0.0
H839 H 0.90304 0.45591 0.81725 0.0
H840 H 0.04561 0.24519 0.96152 0.0
H841 H 0.04609 0.21465 0.88314 0.0
H842 H 0.99185 0.19512 0.9937 0.0
H843 H 0.99106 0.2256 0.06991 0.0
H844 H 0.05003 0.17765 0.93929 0.0
H845 H 0.97987 0.18045 0.77342 0.0
H846 H 0.99023 0.2021 0.82017 0.0
H847 H 0.97533 0.18463 0.87435 0.0
C848 C 0.03347 0.23466 0.96712 0.0
C849 C 1.01832 0.23782 0.02205 0.0
C850 C 0.03382 0.21712 0.92277 0.0
C851 C 1.01891 0.20254 0.93178 0.0
C852 C 1.00332 0.2062 0.98408 0.0
H853 H 0.02887 0.07485 0.89613 0.0
H854 H 0.02857 0.10992 0.93351 0.0
C855 C 1.00297 0.22362 0.02825 0.0
C856 C 1.0206 0.18265 0.89349 0.0
H857 H 0.99395 0.14778 0.79305 0.0
C858 C 0.03785 0.17126 0.90642 0.0
C859 C 1.0049 0.17424 0.84948 0.0
C860 C 0.98664 0.18609 0.82781 0.0
C861 C 0.03945 0.15152 0.87992 0.0
C862 C 0.02315 0.14262 0.84092 0.0
C863 C 1.0063 0.15433 0.82452 0.0
C864 C 0.02318 0.12116 0.81792 0.0
C865 C 0.05867 0.14044 0.89392 0.0
C866 C 1.01957 0.11557 0.74086 0.0
C867 C 1.01955 0.09544 0.71941 0.0
C868 C 0.02302 0.08035 0.77459 0.0
C869 C 0.02636 0.08599 0.85187 0.0
C870 C 0.02632 0.10611 0.87329 0.0
H871 H 0.07143 0.15085 0.90062 0.0
H872 H 0.05738 0.13173 0.94827 0.0
H873 H 0.06204 0.13004 0.84582 0.0
H874 H 1.01696 0.1268 0.69703 0.0
H875 H 1.0169 0.09175 0.65932 0.0
H876 H 0.29484 0.04885 0.94812 0.0
H877 H 0.3256 0.04928 0.8704 0.0
H878 H 0.34293 0.99303 0.97005 0.0
H879 H 0.31225 0.99238 0.04578 0.0
H880 H 0.36247 0.05112 0.9307 0.0
H881 H 0.35848 0.98394 0.74822 0.0
H882 H 0.33682 0.9944 0.79484 0.0
H883 H 0.35331 0.97812 0.84749 0.0
C884 C 0.3049 0.03628 0.95118 0.0
C885 C 0.30111 0.02058 0.00302 0.0
C886 C 0.32256 0.03659 0.90726 0.0
C887 C 0.33663 0.02111 0.91367 0.0
C888 C 0.33226 1.00496 0.96244 0.0
H889 H 0.46493 0.02648 0.89205 0.0
H890 H 0.42952 0.0271 0.92596 0.0
C891 C 0.31472 1.00466 0.00623 0.0
C892 C 0.3568 0.02275 0.87727 0.0
H893 H 0.39148 0.99667 0.77337 0.0
C894 C 0.36868 0.03932 0.8954 0.0
C895 C 0.36499 1.00754 0.83027 0.0
C896 C 0.35265 0.99011 0.80337 0.0
C897 C 0.38868 0.04064 0.87116 0.0
C898 C 0.39729 0.02475 0.82897 0.0
C899 C 0.38512 1.00866 0.80732 0.0
C900 C 0.41893 0.02441 0.80809 0.0
C901 C 0.40035 0.05913 0.89104 0.0
C902 C 0.42495 0.02213 0.73075 0.0
C903 C 0.44524 0.02161 0.71125 0.0
C904 C 0.46005 0.02323 0.76872 0.0
C905 C 0.45399 0.0254 0.84618 0.0
C906 C 0.43369 0.02585 0.86563 0.0
H907 H 0.39034 0.07208 0.90039 0.0
H908 H 0.40872 0.05656 0.9455 0.0
H909 H 0.41116 0.06295 0.84469 0.0
H910 H 0.41392 0.0209 0.68528 0.0
H911 H 0.44929 0.02 0.65093 0.0
H912 H 0.49573 0.29694 0.01374 0.0
H913 H 0.49079 0.32973 0.95363 0.0
H914 H 0.55325 0.33198 0.89491 0.0
H915 H 0.55822 0.29953 0.95621 0.0
H916 H 0.54177 0.36413 0.97679 0.0
H917 H 0.48891 0.35214 0.73464 0.0
H918 H 0.48057 0.3423 0.82577 0.0
H919 H 0.50232 0.33198 0.78015 0.0
C920 C 0.5082 0.30415 0.98542 0.0
C921 C 0.52732 0.29568 0.98907 0.0
C922 C 0.5054 0.32292 0.95121 0.0
C923 C 0.52164 0.33337 0.91942 0.0
C924 C 0.54049 0.32427 0.91902 0.0
H925 H 0.52446 0.44536 0.6689 0.0
H926 H 0.52469 0.41053 0.70885 0.0
C927 C 0.5433 0.30567 0.95356 0.0
C928 C 0.51969 0.35453 0.89452 0.0
H929 H 0.49548 0.38576 0.76957 0.0
C930 C 0.53166 0.36883 0.93133 0.0
C931 C 0.5066 0.3607 0.83492 0.0
C932 C 0.49399 0.34598 0.79098 0.0
C933 C 0.53093 0.38902 0.91046 0.0
C934 C 0.51751 0.39529 0.85219 0.0
C935 C 0.5056 0.38101 0.81489 0.0
C936 C 0.51623 0.4165 0.82738 0.0
C937 C 0.54496 0.40337 0.94975 0.0
C938 C 0.51107 0.43154 0.88019 0.0
C939 C 0.51107 0.45158 0.85749 0.0
C940 C 0.51608 0.45699 0.78123 0.0
C941 C 0.52064 0.44182 0.72803 0.0
C942 C 0.5207 0.42182 0.75078 0.0
H943 H 0.55762 0.39555 0.97791 0.0
H944 H 0.55104 0.41434 0.90781 0.0
H945 H 0.53673 0.41163 0.99522 0.0
H946 H 0.50717 0.42779 0.93926 0.0
H947 H 0.50733 0.46281 0.89993 0.0
H948 H 0.22785 0.50322 0.11936 0.0
H949 H 0.19521 0.49889 0.05868 0.0
H950 H 0.21716 0.52684 0.85062 0.0
H951 H 0.25007 0.531 0.91146 0.0
H952 H 0.17313 0.53199 0.01214 0.0
H953 H 0.18411 0.47975 0.76677 0.0
H954 H 0.20162 0.48165 0.84582 0.0
H955 H 0.20121 0.50031 0.77141 0.0
C956 C 0.22587 0.50784 0.05976 0.0
C957 C 0.24147 0.51732 0.01982 0.0
C958 C 0.20721 0.50547 0.02529 0.0
C959 C 0.20369 0.5125 0.95004 0.0
C960 C 0.21958 0.521 0.90827 0.0
H961 H 0.09342 0.52592 0.687 0.0
H962 H 0.12808 0.52541 0.73005 0.0
C963 C 0.23838 0.52333 0.94287 0.0
C964 C 0.18292 0.5129 0.91971 0.0
H965 H 0.15244 0.49509 0.77729 0.0
C966 C 0.1686 0.52386 0.96091 0.0
C967 C 0.17706 0.5025 0.85237 0.0
C968 C 0.19172 0.49024 0.80661 0.0
C969 C 0.14863 0.52474 0.93679 0.0
C970 C 0.1426 0.51395 0.8705 0.0
C971 C 0.15699 0.50323 0.82845 0.0
C972 C 0.12147 0.51372 0.84392 0.0
C973 C 0.13428 0.53761 0.98175 0.0
C974 C 0.10613 0.50707 0.89306 0.0
C975 C 0.08621 0.50745 0.86869 0.0
C976 C 0.08121 0.51424 0.79416 0.0
C977 C 0.09667 0.52052 0.7446 0.0
C978 C 0.11655 0.52024 0.76915 0.0
H979 H 0.14222 0.54918 0.01573 0.0
H980 H 0.12348 0.54508 0.94268 0.0
H981 H 0.12583 0.52817 0.02303 0.0
H982 H 0.10956 0.50154 0.9504 0.0
H983 H 0.07475 0.50234 0.90816 0.0
H984 H 0.04248 0.79009 0.44534 0.0
H985 H 0.04392 0.82205 0.51467 0.0
H986 H 0.98401 0.83533 0.4411 0.0
H987 H 0.98267 0.80367 0.37093 0.0
H988 H 0.03712 0.86014 0.42818 0.0
H989 H 0.98656 0.85049 0.68031 0.0
H990 H 0.9995 0.82992 0.6355 0.0
H991 H 0.97798 0.84049 0.5896 0.0
C992 C 0.02942 0.79957 0.44614 0.0
C993 C 1.01239 0.79431 0.4034 0.0
C994 C 0.03029 0.81787 0.48525 0.0
C995 C 1.01402 0.83106 0.48355 0.0
C996 C 0.99665 0.82533 0.44418 0.0
H997 H 1.00566 0.95934 0.50867 0.0
H998 H 1.00543 0.92409 0.47347 0.0
C999 C 0.99588 0.80722 0.40418 0.0
C1000 C 1.01579 0.85164 0.51515 0.0
H1001 H 0.99626 0.88355 0.6494 0.0
C1002 C 0.02831 0.86522 0.47695 0.0
C1003 C 1.00446 0.85824 0.57922 0.0
C1004 C 0.99144 0.84406 0.62422 0.0
C1005 C 0.02927 0.88533 0.49929 0.0
C1006 C 1.01719 0.89221 0.56099 0.0
C1007 C 1.00528 0.87842 0.60131 0.0
C1008 C 1.01663 0.91366 0.58369 0.0
C1009 C 0.04329 0.89906 0.45663 0.0
C1010 C 0.02246 0.91962 0.65815 0.0
C1011 C 0.02262 0.93983 0.6785 0.0
C1012 C 1.01669 0.95459 0.62523 0.0
C1013 C 1.0104 0.9485 0.55124 0.0
C1014 C 1.01036 0.9283 0.53082 0.0
H1015 H 0.05519 0.89067 0.42611 0.0
H1016 H 0.03478 0.90759 0.41269 0.0
H1017 H 0.05037 0.90982 0.49683 0.0
H1018 H 0.02725 0.90865 0.70014 0.0
H1019 H 0.02763 0.94388 0.73581 0.0
H1020 H 0.74878 0.98588 0.41866 0.0
H1021 H 0.7152 0.98348 0.47533 0.0
H1022 H 0.71136 0.04746 0.48178 0.0
H1023 H 0.74472 0.04991 0.42522 0.0
H1024 H 0.69533 0.9997 0.61194 0.0
H1025 H 0.66516 0.03009 0.33716 0.0
H1026 H 0.69037 0.02095 0.34584 0.0
H1027 H 0.68401 0.04524 0.38152 0.0
C1028 C 0.74102 0.9994 0.43452 0.0
C1029 C 0.74937 1.01808 0.41714 0.0
C1030 C 0.72176 0.99803 0.46632 0.0
C1031 C 0.71056 1.0153 0.48112 0.0
C1032 C 0.71953 0.03393 0.46942 0.0
H1033 H 0.59687 0.03074 0.7165 0.0
H1034 H 0.63193 0.03008 0.67722 0.0
C1035 C 0.73867 0.03531 0.43764 0.0
C1036 C 0.68908 1.01402 0.50326 0.0
H1037 H 0.64233 0.02657 0.44099 0.0
C1038 C 0.68372 1.0055 0.57451 0.0
C1039 C 0.67387 0.0213 0.45391 0.0
C1040 C 0.67854 0.02976 0.375 0.0
C1041 C 0.66364 1.00453 0.59853 0.0
C1042 C 0.64849 1.01251 0.55035 0.0
C1043 C 0.65386 0.02057 0.47828 0.0
C1044 C 0.62702 1.01288 0.57372 0.0
C1045 C 0.65886 0.99473 0.67491 0.0
C1046 C 0.6123 1.0043 0.52639 0.0
C1047 C 0.5921 1.0051 0.54745 0.0
C1048 C 0.58615 1.01441 0.61663 0.0
C1049 C 0.6009 0.02312 0.66358 0.0
C1050 C 0.62102 0.02258 0.64176 0.0
H1051 H 0.67088 0.98438 0.6932 0.0
H1052 H 0.65739 1.00634 0.72012 0.0
H1053 H 0.64462 0.98635 0.67188 0.0
H1054 H 0.61646 0.99691 0.47309 0.0
H1055 H 0.58117 0.99829 0.50978 0.0
H1056 H 0.48926 0.73414 0.40028 0.0
H1057 H 0.49342 0.7027 0.46865 0.0
H1058 H 0.55702 0.71197 0.47561 0.0
H1059 H 0.55296 0.74325 0.40387 0.0
H1060 H 0.54936 0.67613 0.4243 0.0
H1061 H 0.50477 0.68727 0.68682 0.0
H1062 H 0.48902 0.69137 0.60466 0.0
H1063 H 0.51013 0.70745 0.62159 0.0
C1064 C 0.50413 0.72966 0.41736 0.0
C1065 C 0.52079 0.74119 0.39611 0.0
C1066 C 0.50648 0.71171 0.45723 0.0
C1067 C 0.52553 0.70492 0.4782 0.0
C1068 C 0.54215 0.71687 0.46038 0.0
H1069 H 0.53263 0.59266 0.73939 0.0
H1070 H 0.53445 0.62773 0.70232 0.0
C1071 C 0.5398 0.73486 0.42001 0.0
C1072 C 0.52805 0.68456 0.5116 0.0
H1073 H 0.50892 0.65257 0.64656 0.0
C1074 C 0.54073 0.67109 0.47367 0.0
C1075 C 0.51715 0.67791 0.57697 0.0
C1076 C 0.50469 0.69188 0.62514 0.0
C1077 C 0.54212 0.65107 0.49689 0.0
C1078 C 0.52992 0.64401 0.55809 0.0
C1079 C 0.51796 0.65771 0.59846 0.0
C1080 C 0.52914 0.62251 0.58044 0.0
C1081 C 0.55684 0.6378 0.45574 0.0
C1082 C 0.52528 0.60773 0.52482 0.0
C1083 C 0.52447 0.5876 0.54586 0.0
C1084 C 0.527 0.5818 0.62339 0.0
C1085 C 0.5305 0.59661 0.67925 0.0
C1086 C 0.53158 0.61671 0.65803 0.0
H1087 H 0.56948 0.64655 0.43176 0.0
H1088 H 0.56294 0.62621 0.49498 0.0
H1089 H 0.5493 0.63037 0.40649 0.0
H1090 H 0.52263 0.61175 0.46504 0.0
H1091 H 0.52145 0.57662 0.50158 0.0
H1092 H 0.79165 0.55093 0.44803 0.0
H1093 H 0.82276 0.55139 0.52336 0.0
H1094 H 0.84258 0.49851 0.40513 0.0
H1095 H 0.8115 0.49765 0.33201 0.0
H1096 H 0.85279 0.49789 0.55823 0.0
H1097 H 0.87469 0.56981 0.42346 0.0
H1098 H 0.85162 0.5701 0.47629 0.0
H1099 H 0.85371 0.55547 0.3897 0.0
C1100 C 0.80247 0.53917 0.43955 0.0
C1101 C 0.79924 0.52442 0.38328 0.0
C1102 C 0.82035 0.53958 0.48189 0.0
C1103 C 0.83528 0.52527 0.46852 0.0
C1104 C 0.83143 0.50983 0.41608 0.0
H1105 H 0.96306 0.53017 0.5071 0.0
H1106 H 0.92788 0.53114 0.46984 0.0
C1107 C 0.81366 0.5094 0.37404 0.0
C1108 C 0.85538 0.52673 0.50503 0.0
H1109 H 0.89768 0.55513 0.50868 0.0
C1110 C 0.86256 0.51048 0.548 0.0
C1111 C 0.86825 0.54304 0.49081 0.0
C1112 C 0.86182 0.56055 0.44206 0.0
C1113 C 0.88226 0.50993 0.57596 0.0
C1114 C 0.89515 0.52624 0.56162 0.0
C1115 C 0.88784 0.54265 0.5199 0.0
C1116 C 0.91654 0.52617 0.58562 0.0
C1117 C 0.88926 0.4915 0.61786 0.0
C1118 C 0.92201 0.52344 0.66335 0.0
C1119 C 0.94214 0.52265 0.68465 0.0
C1120 C 0.95732 0.52496 0.62892 0.0
C1121 C 0.95181 0.52835 0.55153 0.0
C1122 C 0.93166 0.52891 0.53016 0.0
H1123 H 0.87923 0.47862 0.60766 0.0
H1124 H 0.90459 0.48736 0.59975 0.0
H1125 H 0.88944 0.49448 0.68088 0.0
H1126 H 0.91073 0.52192 0.70774 0.0
H1127 H 0.94578 0.52026 0.745 0.0
loop_
_geom_bond_atom_site_label_1
_geom_bond_atom_site_label_2
_geom_bond_distance
_geom_bond_site_symmetry_2
_ccdc_geom_bond_type
H0 C7 0.929 . S
H1 C10 0.930 . S
H2 C12 0.929 . S
H3 C4 0.969 . S
C4 H3 0.969 . S
C4 O5 1.550 . S
C4 H6 0.973 . S
O5 C4 1.550 . S
O5 C11 1.412 . S
H6 C4 0.973 . S
C7 H0 0.929 . S
C7 C8 1.400 . S
C7 C9 1.364 . S
C8 C7 1.400 . S
C8 C12 1.377 . S
C9 C7 1.364 . S
C9 C10 1.374 . S
C10 H1 0.930 . S
C10 C9 1.374 . S
C10 C11 1.383 . S
C11 O5 1.412 . S
C11 C10 1.383 . S
C11 C12 1.394 . S
C12 H2 0.929 . S
C12 C8 1.377 . S
C12 C11 1.394 . S
H13 C20 0.928 . S
H14 C23 0.933 . S
H15 C25 0.928 . S
H16 C17 0.969 . S
C17 H16 0.969 . S
C17 O18 1.550 1_455 S
C17 H19 0.973 1_455 S
O18 C17 1.550 1_655 S
O18 C24 1.414 1_655 S
H19 C17 0.973 1_655 S
C20 H13 0.928 . S
C20 C21 1.400 . S
C20 C22 1.364 . S
C21 C20 1.400 . S
C21 C25 1.377 . S
C22 C20 1.364 . S
C22 C23 1.374 . S
C23 H14 0.933 . S
C23 C22 1.374 . S
C23 C24 1.382 1_655 S
C24 O18 1.414 1_455 S
C24 C23 1.382 1_455 S
C24 C25 1.394 1_455 S
C25 H15 0.928 . S
C25 C21 1.377 . S
C25 C24 1.394 1_655 S
H26 C33 0.928 . S
H27 C36 0.932 . S
H28 C38 0.928 . S
H29 C30 0.969 . S
C30 H29 0.969 . S
C30 O31 1.550 1_545 S
C30 H32 0.973 1_545 S
O31 C30 1.550 1_565 S
O31 C37 1.411 1_565 S
H32 C30 0.973 1_565 S
C33 H26 0.928 . S
C33 C34 1.400 . S
C33 C35 1.364 . S
C34 C33 1.400 . S
C34 C38 1.377 . S
C35 C33 1.364 . S
C35 C36 1.374 . S
C36 H27 0.932 . S
C36 C35 1.374 . S
C36 C37 1.382 1_565 S
C37 O31 1.411 1_545 S
C37 C36 1.382 1_545 S
C37 C38 1.394 1_545 S
C38 H28 0.928 . S
C38 C34 1.377 . S
C38 C37 1.394 1_565 S
H39 C46 0.929 . S
H40 C49 0.930 . S
H41 C51 0.929 . S
H42 C43 0.969 . S
C43 H42 0.969 . S
C43 O44 1.550 . S
C43 H45 0.973 . S
O44 C43 1.550 . S
O44 C50 1.412 . S
H45 C43 0.973 . S
C46 H39 0.929 . S
C46 C47 1.400 . S
C46 C48 1.364 . S
C47 C46 1.400 . S
C47 C51 1.377 . S
C48 C46 1.364 . S
C48 C49 1.374 . S
C49 H40 0.930 . S
C49 C48 1.374 . S
C49 C50 1.383 . S
C50 O44 1.412 . S
C50 C49 1.383 . S
C50 C51 1.394 . S
C51 H41 0.929 . S
C51 C47 1.377 . S
C51 C50 1.394 . S
H52 C59 0.929 . S
H53 C62 0.930 . S
H54 C64 0.929 . S
H55 C56 0.969 . S
C56 H55 0.969 . S
C56 O57 1.550 . S
C56 H58 0.973 . S
O57 C56 1.550 . S
O57 C63 1.412 . S
H58 C56 0.973 . S
C59 H52 0.929 . S
C59 C60 1.400 1_554 S
C59 C61 1.364 . S
C60 C59 1.400 1_556 S
C60 C64 1.377 . S
C61 C59 1.364 . S
C61 C62 1.374 . S
C62 H53 0.930 . S
C62 C61 1.374 . S
C62 C63 1.383 . S
C63 O57 1.412 . S
C63 C62 1.383 . S
C63 C64 1.394 1_554 S
C64 H54 0.929 . S
C64 C60 1.377 . S
C64 C63 1.394 1_556 S
H65 C72 0.928 . S
H66 C75 0.930 1_655 S
H67 C77 0.928 . S
H68 C69 0.969 . S
C69 H68 0.969 . S
C69 O70 1.550 1_455 S
C69 H71 0.973 1_455 S
O70 C69 1.550 1_655 S
O70 C76 1.412 1_655 S
H71 C69 0.973 1_655 S
C72 H65 0.928 . S
C72 C73 1.400 1_554 S
C72 C74 1.364 . S
C73 C72 1.400 1_556 S
C73 C77 1.377 . S
C74 C72 1.364 . S
C74 C75 1.374 . S
C75 H66 0.930 1_455 S
C75 C74 1.374 . S
C75 C76 1.384 . S
C76 O70 1.412 1_455 S
C76 C75 1.384 . S
C76 C77 1.396 1_554 S
C77 H67 0.928 . S
C77 C73 1.377 . S
C77 C76 1.396 1_556 S
H78 C85 0.928 . S
H79 C88 0.930 . S
H80 C90 0.928 . S
H81 C82 0.969 . S
C82 H81 0.969 . S
C82 O83 1.550 1_545 S
C82 H84 0.973 1_545 S
O83 C82 1.550 1_565 S
O83 C89 1.412 1_565 S
H84 C82 0.973 1_565 S
C85 H78 0.928 . S
C85 C86 1.401 1_554 S
C85 C87 1.364 . S
C86 C85 1.401 1_556 S
C86 C90 1.378 . S
C87 C85 1.364 . S
C87 C88 1.374 . S
C88 H79 0.930 . S
C88 C87 1.374 . S
C88 C89 1.384 . S
C89 O83 1.412 1_545 S
C89 C88 1.384 . S
C89 C90 1.396 1_554 S
C90 H80 0.928 . S
C90 C86 1.378 . S
C90 C89 1.396 1_556 S
H91 C98 0.929 . S
H92 C101 0.930 . S
H93 C103 0.929 . S
H94 C95 0.969 . S
C95 H94 0.969 . S
C95 O96 1.550 . S
C95 H97 0.973 . S
O96 C95 1.550 . S
O96 C102 1.412 . S
H97 C95 0.973 . S
C98 H91 0.929 . S
C98 C99 1.400 1_554 S
C98 C100 1.364 . S
C99 C98 1.400 1_556 S
C99 C103 1.377 . S
C100 C98 1.364 . S
C100 C101 1.374 . S
C101 H92 0.930 . S
C101 C100 1.374 . S
C101 C102 1.383 . S
C102 O96 1.412 . S
C102 C101 1.383 . S
C102 C103 1.394 1_554 S
C103 H93 0.929 . S
C103 C99 1.377 . S
C103 C102 1.394 1_556 S
Pr104 C106 2.880 . S
Pr104 O124 2.566 . S
Pr104 O125 2.490 . S
Pr104 O126 2.695 1_565 S
Pr104 O127 2.512 . S
Pr104 O129 2.437 . S
Pr104 O132 2.436 1_455 S
Pr104 O134 2.438 1_565 S
Pr105 C115 2.880 . S
Pr105 O126 2.436 1_655 S
Pr105 O128 2.438 1_545 S
Pr105 O130 2.561 . S
Pr105 O131 2.490 . S
Pr105 O132 2.695 1_545 S
Pr105 O133 2.512 . S
Pr105 O135 2.437 . S
C106 Pr104 2.880 . S
C106 C107 1.491 . S
C106 O124 1.263 . S
C106 O125 1.225 . S
C107 C106 1.491 . S
C107 C108 1.392 . S
C107 C112 1.356 . S
C108 C107 1.392 . S
C108 C109 1.368 . S
C108 H136 0.929 . S
C109 C108 1.368 . S
C109 C110 1.386 . S
C109 H137 0.929 . S
C110 C109 1.386 . S
C110 C111 1.373 . S
C111 C110 1.373 . S
C111 C112 1.409 . S
C111 H138 0.931 1_455 S
C112 C107 1.356 . S
C112 C111 1.409 . S
C112 H139 0.930 1_455 S
C113 O126 1.255 1_565 S
C113 O127 1.275 . S
C114 O128 1.267 . S
C114 O129 1.278 1_655 S
C115 Pr105 2.880 . S
C115 C116 1.491 . S
C115 O130 1.250 . S
C115 O131 1.225 . S
C116 C115 1.491 . S
C116 C117 1.392 . S
C116 C121 1.356 . S
C117 C116 1.392 . S
C117 C118 1.368 . S
C117 H140 0.929 . S
C118 C117 1.368 . S
C118 C119 1.386 . S
C118 H141 0.929 . S
C119 C118 1.386 . S
C119 C120 1.373 . S
C120 C119 1.373 . S
C120 C121 1.409 . S
C120 H142 0.931 1_655 S
C121 C116 1.356 . S
C121 C120 1.409 . S
C121 H143 0.930 1_655 S
C122 O132 1.270 1_545 S
C122 O133 1.248 . S
C123 O134 1.267 . S
C123 O135 1.278 1_455 S
O124 Pr104 2.566 . S
O124 C106 1.263 . S
O125 Pr104 2.490 . S
O125 C106 1.225 . S
O126 Pr104 2.695 1_545 S
O126 Pr105 2.436 1_455 S
O126 C113 1.255 1_545 S
O127 Pr104 2.512 . S
O127 C113 1.275 . S
O128 Pr105 2.438 1_565 S
O128 C114 1.267 . S
O129 Pr104 2.437 . S
O129 C114 1.278 1_455 S
O130 Pr105 2.561 . S
O130 C115 1.250 . S
O131 Pr105 2.490 . S
O131 C115 1.225 . S
O132 Pr104 2.436 1_655 S
O132 Pr105 2.695 1_565 S
O132 C122 1.270 1_565 S
O133 Pr105 2.512 . S
O133 C122 1.248 . S
O134 Pr104 2.438 1_545 S
O134 C123 1.267 . S
O135 Pr105 2.437 . S
O135 C123 1.278 1_655 S
H136 C108 0.929 . S
H137 C109 0.929 . S
H138 C111 0.931 1_655 S
H139 C112 0.930 1_655 S
H140 C117 0.929 . S
H141 C118 0.929 . S
H142 C120 0.931 1_455 S
H143 C121 0.930 1_455 S
Pr144 C146 2.880 . S
Pr144 O164 2.568 . S
Pr144 O165 2.490 . S
Pr144 O166 2.695 . S
Pr144 O167 2.512 . S
Pr144 O169 2.437 . S
Pr144 O172 2.436 1_545 S
Pr144 O174 2.438 . S
Pr145 C155 2.880 . S
Pr145 O166 2.436 1_565 S
Pr145 O168 2.438 . S
Pr145 O170 2.564 1_565 S
Pr145 O171 2.490 . S
Pr145 O172 2.695 . S
Pr145 O173 2.512 . S
Pr145 O175 2.437 . S
C146 Pr144 2.880 . S
C146 C147 1.491 . S
C146 O164 1.267 . S
C146 O165 1.225 . S
C147 C146 1.491 . S
C147 C148 1.392 . S
C147 C152 1.356 . S
C148 C147 1.392 . S
C148 C149 1.368 . S
C148 H176 0.929 . S
C149 C148 1.368 . S
C149 C150 1.386 . S
C149 H177 0.929 . S
C150 C149 1.386 . S
C150 C151 1.373 . S
C151 C150 1.373 . S
C151 C152 1.409 . S
C151 H178 0.931 1_545 S
C152 C147 1.356 . S
C152 C151 1.409 . S
C152 H179 0.930 1_545 S
C153 O166 1.270 . S
C153 O167 1.248 . S
C154 O168 1.267 . S
C154 O169 1.278 1_565 S
C155 Pr145 2.880 . S
C155 C156 1.491 . S
C155 O170 1.259 1_565 S
C155 O171 1.225 . S
C156 C155 1.491 . S
C156 C157 1.392 . S
C156 C161 1.356 . S
C157 C156 1.392 . S
C157 C158 1.368 . S
C157 H180 0.929 . S
C158 C157 1.368 . S
C158 C159 1.386 . S
C158 H181 0.929 . S
C159 C158 1.386 . S
C159 C160 1.373 . S
C160 C159 1.373 . S
C160 C161 1.409 . S
C160 H182 0.931 1_565 S
C161 C156 1.356 . S
C161 C160 1.409 . S
C161 H183 0.930 1_565 S
C162 O172 1.270 . S
C162 O173 1.248 . S
C163 O174 1.267 . S
C163 O175 1.278 1_545 S
O164 Pr144 2.568 . S
O164 C146 1.267 . S
O165 Pr144 2.490 . S
O165 C146 1.225 . S
O166 Pr144 2.695 . S
O166 Pr145 2.436 1_545 S
O166 C153 1.270 . S
O167 Pr144 2.512 . S
O167 C153 1.248 . S
O168 Pr145 2.438 . S
O168 C154 1.267 . S
O169 Pr144 2.437 . S
O169 C154 1.278 1_545 S
O170 Pr145 2.564 1_545 S
O170 C155 1.259 1_545 S
O171 Pr145 2.490 . S
O171 C155 1.225 . S
O172 Pr144 2.436 1_565 S
O172 Pr145 2.695 . S
O172 C162 1.270 . S
O173 Pr145 2.512 . S
O173 C162 1.248 . S
O174 Pr144 2.438 . S
O174 C163 1.267 . S
O175 Pr145 2.437 . S
O175 C163 1.278 1_565 S
H176 C148 0.929 . S
H177 C149 0.929 . S
H178 C151 0.931 1_565 S
H179 C152 0.930 1_565 S
H180 C157 0.929 . S
H181 C158 0.929 . S
H182 C160 0.931 1_545 S
H183 C161 0.930 1_545 S
Pr184 C186 2.880 . S
Pr184 O204 2.562 . S
Pr184 O205 2.490 . S
Pr184 O206 2.695 . S
Pr184 O207 2.512 . S
Pr184 O209 2.437 . S
Pr184 O212 2.436 . S
Pr184 O214 2.438 . S
Pr185 C195 2.880 . S
Pr185 O206 2.436 . S
Pr185 O208 2.438 . S
Pr185 O210 2.562 . S
Pr185 O211 2.490 . S
Pr185 O212 2.695 . S
Pr185 O213 2.512 . S
Pr185 O215 2.437 . S
C186 Pr184 2.880 . S
C186 C187 1.491 . S
C186 O204 1.254 . S
C186 O205 1.225 . S
C187 C186 1.491 . S
C187 C188 1.392 . S
C187 C192 1.356 . S
C188 C187 1.392 . S
C188 C189 1.368 . S
C188 H216 0.929 . S
C189 C188 1.368 . S
C189 C190 1.386 . S
C189 H217 0.929 . S
C190 C189 1.386 . S
C190 C191 1.373 . S
C191 C190 1.373 . S
C191 C192 1.409 . S
C191 H218 0.931 . S
C192 C187 1.356 . S
C192 C191 1.409 . S
C192 H219 0.930 . S
C193 O206 1.270 . S
C193 O207 1.248 . S
C194 O208 1.267 . S
C194 O209 1.278 . S
C195 Pr185 2.880 . S
C195 C196 1.491 . S
C195 O210 1.254 . S
C195 O211 1.225 . S
C196 C195 1.491 . S
C196 C197 1.392 . S
C196 C201 1.356 . S
C197 C196 1.392 . S
C197 C198 1.368 . S
C197 H220 0.929 . S
C198 C197 1.368 . S
C198 C199 1.386 . S
C198 H221 0.929 . S
C199 C198 1.386 . S
C199 C200 1.373 . S
C200 C199 1.373 . S
C200 C201 1.409 . S
C200 H222 0.931 . S
C201 C196 1.356 . S
C201 C200 1.409 . S
C201 H223 0.930 . S
C202 O212 1.270 . S
C202 O213 1.248 . S
C203 O214 1.267 . S
C203 O215 1.278 . S
O204 Pr184 2.562 . S
O204 C186 1.254 . S
O205 Pr184 2.490 . S
O205 C186 1.225 . S
O206 Pr184 2.695 . S
O206 Pr185 2.436 . S
O206 C193 1.270 . S
O207 Pr184 2.512 . S
O207 C193 1.248 . S
O208 Pr185 2.438 . S
O208 C194 1.267 . S
O209 Pr184 2.437 . S
O209 C194 1.278 . S
O210 Pr185 2.562 . S
O210 C195 1.254 . S
O211 Pr185 2.490 . S
O211 C195 1.225 . S
O212 Pr184 2.436 . S
O212 Pr185 2.695 . S
O212 C202 1.270 . S
O213 Pr185 2.512 . S
O213 C202 1.248 . S
O214 Pr184 2.438 . S
O214 C203 1.267 . S
O215 Pr185 2.437 . S
O215 C203 1.278 . S
H216 C188 0.929 . S
H217 C189 0.929 . S
H218 C191 0.931 . S
H219 C192 0.930 . S
H220 C197 0.929 . S
H221 C198 0.929 . S
H222 C200 0.931 . S
H223 C201 0.930 . S
Pr224 C226 2.880 . S
Pr224 O244 2.562 . S
Pr224 O245 2.490 . S
Pr224 O246 2.695 1_655 S
Pr224 O247 2.512 . S
Pr224 O249 2.437 . S
Pr224 O252 2.436 . S
Pr224 O254 2.438 1_655 S
Pr225 C235 2.880 . S
Pr225 O246 2.436 . S
Pr225 O248 2.438 1_455 S
Pr225 O250 2.562 . S
Pr225 O251 2.490 . S
Pr225 O252 2.695 1_455 S
Pr225 O253 2.512 . S
Pr225 O255 2.437 . S
C226 Pr224 2.880 . S
C226 C227 1.491 . S
C226 O244 1.254 . S
C226 O245 1.225 . S
C227 C226 1.491 . S
C227 C228 1.392 . S
C227 C232 1.356 . S
C228 C227 1.392 . S
C228 C229 1.368 . S
C228 H256 0.929 . S
C229 C228 1.368 . S
C229 C230 1.386 . S
C229 H257 0.929 . S
C230 C229 1.386 . S
C230 C231 1.373 . S
C231 C230 1.373 . S
C231 C232 1.409 . S
C231 H258 0.931 . S
C232 C227 1.356 . S
C232 C231 1.409 . S
C232 H259 0.930 . S
C233 O246 1.255 1_655 S
C233 O247 1.276 . S
C234 O248 1.267 . S
C234 O249 1.278 . S
C235 Pr225 2.880 . S
C235 C236 1.491 . S
C235 O250 1.254 . S
C235 O251 1.225 . S
C236 C235 1.491 . S
C236 C237 1.392 . S
C236 C241 1.356 . S
C237 C236 1.392 . S
C237 C238 1.368 . S
C237 H260 0.929 . S
C238 C237 1.368 . S
C238 C239 1.386 . S
C238 H261 0.929 . S
C239 C238 1.386 . S
C239 C240 1.373 . S
C240 C239 1.373 . S
C240 C241 1.409 . S
C240 H262 0.931 . S
C241 C236 1.356 . S
C241 C240 1.409 . S
C241 H263 0.930 . S
C242 O252 1.270 1_455 S
C242 O253 1.248 . S
C243 O254 1.267 . S
C243 O255 1.278 . S
O244 Pr224 2.562 . S
O244 C226 1.254 . S
O245 Pr224 2.490 . S
O245 C226 1.225 . S
O246 Pr224 2.695 1_455 S
O246 Pr225 2.436 . S
O246 C233 1.255 1_455 S
O247 Pr224 2.512 . S
O247 C233 1.276 . S
O248 Pr225 2.438 1_655 S
O248 C234 1.267 . S
O249 Pr224 2.437 . S
O249 C234 1.278 . S
O250 Pr225 2.562 . S
O250 C235 1.254 . S
O251 Pr225 2.490 . S
O251 C235 1.225 . S
O252 Pr224 2.436 . S
O252 Pr225 2.695 1_655 S
O252 C242 1.270 1_655 S
O253 Pr225 2.512 . S
O253 C242 1.248 . S
O254 Pr224 2.438 1_455 S
O254 C243 1.267 . S
O255 Pr225 2.437 . S
O255 C243 1.278 . S
H256 C228 0.929 . S
H257 C229 0.929 . S
H258 C231 0.931 . S
H259 C232 0.930 . S
H260 C237 0.929 . S
H261 C238 0.929 . S
H262 C240 0.931 . S
H263 C241 0.930 . S
H264 C272 0.929 . S
H265 C274 0.930 . S
H266 C276 0.930 . S
H267 C279 0.929 . S
H268 C282 0.930 . S
H269 C284 0.960 . S
H270 C284 0.960 . S
H271 C284 0.960 . S
C272 H264 0.929 . S
C272 C273 1.396 . S
C272 C274 1.384 . S
C273 C272 1.396 . S
C273 C279 1.372 1_545 S
C274 H265 0.930 . S
C274 C272 1.384 . S
C274 C275 1.372 . S
C275 C274 1.372 . S
C275 C276 1.400 1_545 S
C275 C280 1.490 . S
C276 H266 0.930 . S
C276 C275 1.400 1_565 S
C276 C279 1.386 . S
H277 C293 0.930 . S
H278 C294 0.931 . S
C279 H267 0.929 . S
C279 C273 1.372 1_565 S
C279 C276 1.386 . S
C280 C275 1.490 . S
C280 C282 1.395 . S
C280 C283 1.403 1_545 S
H281 C287 0.930 . S
C282 H268 0.930 . S
C282 C280 1.395 . S
C282 C285 1.403 . S
C283 C280 1.403 1_565 S
C283 C284 1.524 . S
C283 C287 1.400 . S
C284 H269 0.960 . S
C284 H270 0.960 . S
C284 H271 0.960 . S
C284 C283 1.524 . S
C285 C282 1.403 . S
C285 C286 1.392 . S
C285 C289 1.495 . S
C286 C285 1.392 . S
C286 C287 1.385 1_545 S
C286 C288 1.478 . S
C287 H281 0.930 . S
C287 C283 1.400 . S
C287 C286 1.385 1_565 S
C288 C286 1.478 . S
C288 C290 1.381 . S
C288 C294 1.383 1_545 S
C289 C285 1.495 . S
C289 H295 0.959 . S
C289 H296 0.961 . S
C289 H297 0.960 . S
C290 C288 1.381 . S
C290 C291 1.394 . S
C290 H298 0.930 . S
C291 C290 1.394 . S
C291 C292 1.383 . S
C291 H299 0.929 . S
C292 C291 1.383 . S
C292 C293 1.377 1_545 S
C293 H277 0.930 . S
C293 C292 1.377 1_565 S
C293 C294 1.379 . S
C294 H278 0.931 . S
C294 C288 1.383 1_565 S
C294 C293 1.379 . S
H295 C289 0.959 . S
H296 C289 0.961 . S
H297 C289 0.960 . S
H298 C290 0.930 . S
H299 C291 0.929 . S
H300 C308 0.929 . S
H301 C310 0.930 . S
H302 C312 0.930 . S
H303 C315 0.929 . S
H304 C318 0.930 . S
H305 C320 0.960 . S
H306 C320 0.960 . S
H307 C320 0.960 . S
C308 H300 0.929 . S
C308 C309 1.377 . S
C308 C310 1.384 . S
C309 C308 1.377 . S
C309 C315 1.390 . S
C310 H301 0.930 . S
C310 C308 1.384 . S
C310 C311 1.372 . S
C311 C310 1.372 . S
C311 C312 1.400 . S
C311 C316 1.490 . S
C312 H302 0.930 . S
C312 C311 1.400 . S
C312 C315 1.386 . S
H313 C329 0.930 . S
H314 C330 0.931 . S
C315 H303 0.929 . S
C315 C309 1.390 . S
C315 C312 1.386 . S
C316 C311 1.490 . S
C316 C318 1.395 . S
C316 C319 1.403 . S
H317 C323 0.930 . S
C318 H304 0.930 . S
C318 C316 1.395 . S
C318 C321 1.403 . S
C319 C316 1.403 . S
C319 C320 1.524 . S
C319 C323 1.400 . S
C320 H305 0.960 . S
C320 H306 0.960 . S
C320 H307 0.960 . S
C320 C319 1.524 . S
C321 C318 1.403 . S
C321 C322 1.392 . S
C321 C325 1.495 . S
C322 C321 1.392 . S
C322 C323 1.385 . S
C322 C324 1.478 . S
C323 H317 0.930 . S
C323 C319 1.400 . S
C323 C322 1.385 . S
C324 C322 1.478 . S
C324 C326 1.381 . S
C324 C330 1.383 . S
C325 C321 1.495 . S
C325 H331 0.959 . S
C325 H332 0.961 . S
C325 H333 0.960 . S
C326 C324 1.381 . S
C326 C327 1.394 . S
C326 H334 0.930 . S
C327 C326 1.394 . S
C327 C328 1.383 . S
C327 H335 0.929 . S
C328 C327 1.383 . S
C328 C329 1.377 . S
C329 H313 0.930 . S
C329 C328 1.377 . S
C329 C330 1.379 . S
C330 H314 0.931 . S
C330 C324 1.383 . S
C330 C329 1.379 . S
H331 C325 0.959 . S
H332 C325 0.961 . S
H333 C325 0.960 . S
H334 C326 0.930 . S
H335 C327 0.929 . S
H336 C344 0.929 . S
H337 C346 0.930 . S
H338 C348 0.930 . S
H339 C351 0.929 . S
H340 C354 0.930 . S
H341 C356 0.960 . S
H342 C356 0.960 . S
H343 C356 0.960 . S
C344 H336 0.929 . S
C344 C345 1.377 . S
C344 C346 1.384 . S
C345 C344 1.377 . S
C345 C351 1.390 . S
C346 H337 0.930 . S
C346 C344 1.384 . S
C346 C347 1.372 . S
C347 C346 1.372 . S
C347 C348 1.400 . S
C347 C352 1.490 . S
C348 H338 0.930 . S
C348 C347 1.400 . S
C348 C351 1.386 . S
H349 C365 0.930 . S
H350 C366 0.931 . S
C351 H339 0.929 . S
C351 C345 1.390 . S
C351 C348 1.386 . S
C352 C347 1.490 . S
C352 C354 1.395 . S
C352 C355 1.403 . S
H353 C359 0.930 . S
C354 H340 0.930 . S
C354 C352 1.395 . S
C354 C357 1.403 . S
C355 C352 1.403 . S
C355 C356 1.524 . S
C355 C359 1.400 . S
C356 H341 0.960 . S
C356 H342 0.960 . S
C356 H343 0.960 . S
C356 C355 1.524 . S
C357 C354 1.403 . S
C357 C358 1.392 . S
C357 C361 1.495 . S
C358 C357 1.392 . S
C358 C359 1.385 . S
C358 C360 1.478 . S
C359 H353 0.930 . S
C359 C355 1.400 . S
C359 C358 1.385 . S
C360 C358 1.478 . S
C360 C362 1.381 . S
C360 C366 1.383 . S
C361 C357 1.495 . S
C361 H367 0.959 . S
C361 H368 0.961 . S
C361 H369 0.960 . S
C362 C360 1.381 . S
C362 C363 1.394 . S
C362 H370 0.930 . S
C363 C362 1.394 . S
C363 C364 1.383 . S
C363 H371 0.929 . S
C364 C363 1.383 . S
C364 C365 1.377 . S
C365 H349 0.930 . S
C365 C364 1.377 . S
C365 C366 1.379 . S
C366 H350 0.931 . S
C366 C360 1.383 . S
C366 C365 1.379 . S
H367 C361 0.959 . S
H368 C361 0.961 . S
H369 C361 0.960 . S
H370 C362 0.930 . S
H371 C363 0.929 . S
H372 C380 0.929 . S
H373 C382 0.930 . S
H374 C384 0.930 . S
H375 C387 0.929 . S
H376 C390 0.930 . S
H377 C392 0.960 . S
H378 C392 0.960 . S
H379 C392 0.960 . S
C380 H372 0.929 . S
C380 C381 1.388 . S
C380 C382 1.384 . S
C381 C380 1.388 . S
C381 C387 1.383 1_455 S
C382 H373 0.930 . S
C382 C380 1.384 . S
C382 C383 1.372 . S
C383 C382 1.372 . S
C383 C384 1.400 1_455 S
C383 C388 1.492 . S
C384 H374 0.930 . S
C384 C383 1.400 1_655 S
C384 C387 1.386 . S
H385 C401 0.930 . S
H386 C402 0.931 . S
C387 H375 0.929 . S
C387 C381 1.383 1_655 S
C387 C384 1.386 . S
C388 C383 1.492 . S
C388 C390 1.364 1_455 S
C388 C391 1.433 . S
H389 C395 0.930 . S
C390 H376 0.930 . S
C390 C388 1.364 1_655 S
C390 C393 1.403 . S
C391 C388 1.433 . S
C391 C392 1.524 . S
C391 C395 1.400 . S
C392 H377 0.960 . S
C392 H378 0.960 . S
C392 H379 0.960 . S
C392 C391 1.524 . S
C393 C390 1.403 . S
C393 C394 1.392 . S
C393 C397 1.495 . S
C394 C393 1.392 . S
C394 C395 1.385 1_655 S
C394 C396 1.478 . S
C395 H389 0.930 . S
C395 C391 1.400 . S
C395 C394 1.385 1_455 S
C396 C394 1.478 . S
C396 C398 1.381 1_655 S
C396 C402 1.383 . S
C397 C393 1.495 . S
C397 H403 0.959 . S
C397 H404 0.961 . S
C397 H405 0.960 . S
C398 C396 1.381 1_455 S
C398 C399 1.394 . S
C398 H406 0.930 . S
C399 C398 1.394 . S
C399 C400 1.382 . S
C399 H407 0.929 . S
C400 C399 1.382 . S
C400 C401 1.378 1_455 S
C401 H385 0.930 . S
C401 C400 1.378 1_655 S
C401 C402 1.379 . S
C402 H386 0.931 . S
C402 C396 1.383 . S
C402 C401 1.379 . S
H403 C397 0.959 . S
H404 C397 0.961 . S
H405 C397 0.960 . S
H406 C398 0.930 . S
H407 C399 0.929 . S
H408 C416 0.929 . S
H409 C418 0.930 . S
H410 C420 0.930 . S
H411 C423 0.929 . S
H412 C426 0.930 . S
H413 C428 0.960 1_556 S
H414 C428 0.960 . S
H415 C428 0.960 . S
C416 H408 0.929 . S
C416 C417 1.376 1_545 S
C416 C418 1.384 . S
C417 C416 1.376 1_565 S
C417 C423 1.391 . S
C418 H409 0.930 . S
C418 C416 1.384 . S
C418 C419 1.373 . S
C419 C418 1.373 . S
C419 C420 1.399 1_545 S
C419 C424 1.490 1_545 S
C420 H410 0.930 . S
C420 C419 1.399 1_565 S
C420 C423 1.386 . S
H421 C437 0.930 . S
H422 C438 0.931 . S
C423 H411 0.929 . S
C423 C417 1.391 . S
C423 C420 1.386 . S
C424 C419 1.490 1_565 S
C424 C426 1.401 . S
C424 C427 1.397 1_565 S
H425 C431 0.930 . S
C426 H412 0.930 . S
C426 C424 1.401 . S
C426 C429 1.403 . S
C427 C424 1.397 1_545 S
C427 C428 1.524 . S
C427 C431 1.400 1_554 S
C428 H413 0.960 1_554 S
C428 H414 0.960 . S
C428 H415 0.960 . S
C428 C427 1.524 . S
C429 C426 1.403 . S
C429 C430 1.392 . S
C429 C433 1.495 . S
C430 C429 1.392 . S
C430 C431 1.385 1_564 S
C430 C432 1.478 1_554 S
C431 H425 0.930 . S
C431 C427 1.400 1_556 S
C431 C430 1.385 1_546 S
C432 C430 1.478 1_556 S
C432 C434 1.381 1_565 S
C432 C438 1.383 . S
C433 C429 1.495 . S
C433 H439 0.959 . S
C433 H440 0.961 . S
C433 H441 0.960 . S
C434 C432 1.381 1_545 S
C434 C435 1.394 . S
C434 H442 0.930 1_556 S
C435 C434 1.394 . S
C435 C436 1.383 1_545 S
C435 H443 0.929 . S
C436 C435 1.383 1_565 S
C436 C437 1.377 . S
C437 H421 0.930 . S
C437 C436 1.377 . S
C437 C438 1.379 . S
C438 H422 0.931 . S
C438 C432 1.383 . S
C438 C437 1.379 . S
H439 C433 0.959 . S
H440 C433 0.961 . S
H441 C433 0.960 . S
H442 C434 0.930 1_554 S
H443 C435 0.929 . S
H444 C452 0.929 . S
H445 C454 0.930 . S
H446 C456 0.930 . S
H447 C459 0.929 . S
H448 C462 0.930 . S
H449 C464 0.960 . S
H450 C464 0.960 . S
H451 C464 0.960 . S
C452 H444 0.929 . S
C452 C453 1.377 . S
C452 C454 1.384 . S
C453 C452 1.377 . S
C453 C459 1.390 . S
C454 H445 0.930 . S
C454 C452 1.384 . S
C454 C455 1.372 . S
C455 C454 1.372 . S
C455 C456 1.400 . S
C455 C460 1.490 . S
C456 H446 0.930 . S
C456 C455 1.400 . S
C456 C459 1.386 . S
H457 C473 0.930 . S
H458 C474 0.931 . S
C459 H447 0.929 . S
C459 C453 1.390 . S
C459 C456 1.386 . S
C460 C455 1.490 . S
C460 C462 1.395 . S
C460 C463 1.403 . S
H461 C467 0.930 . S
C462 H448 0.930 . S
C462 C460 1.395 . S
C462 C465 1.403 1_554 S
C463 C460 1.403 . S
C463 C464 1.524 . S
C463 C467 1.400 . S
C464 H449 0.960 . S
C464 H450 0.960 . S
C464 H451 0.960 . S
C464 C463 1.524 . S
C465 C462 1.403 1_556 S
C465 C466 1.392 . S
C465 C469 1.495 . S
C466 C465 1.392 . S
C466 C467 1.385 1_556 S
C466 C468 1.478 . S
C467 H461 0.930 . S
C467 C463 1.400 . S
C467 C466 1.385 1_554 S
C468 C466 1.478 . S
C468 C470 1.381 . S
C468 C474 1.383 . S
C469 C465 1.495 . S
C469 H475 0.959 . S
C469 H476 0.961 . S
C469 H477 0.960 . S
C470 C468 1.381 . S
C470 C471 1.394 . S
C470 H478 0.930 . S
C471 C470 1.394 . S
C471 C472 1.383 . S
C471 H479 0.929 . S
C472 C471 1.383 . S
C472 C473 1.377 . S
C473 H457 0.930 . S
C473 C472 1.377 . S
C473 C474 1.379 . S
C474 H458 0.931 . S
C474 C468 1.383 . S
C474 C473 1.379 . S
H475 C469 0.959 . S
H476 C469 0.961 . S
H477 C469 0.960 . S
H478 C470 0.930 . S
H479 C471 0.929 . S
H480 C488 0.929 . S
H481 C490 0.930 . S
H482 C492 0.930 . S
H483 C495 0.929 . S
H484 C498 0.930 . S
H485 C500 0.960 1_556 S
H486 C500 0.960 . S
H487 C500 0.960 . S
C488 H480 0.929 . S
C488 C489 1.377 . S
C488 C490 1.384 . S
C489 C488 1.377 . S
C489 C495 1.390 . S
C490 H481 0.930 . S
C490 C488 1.384 . S
C490 C491 1.372 . S
C491 C490 1.372 . S
C491 C492 1.400 . S
C491 C496 1.490 . S
C492 H482 0.930 . S
C492 C491 1.400 . S
C492 C495 1.386 . S
H493 C509 0.930 . S
H494 C510 0.931 . S
C495 H483 0.929 . S
C495 C489 1.390 . S
C495 C492 1.386 . S
C496 C491 1.490 . S
C496 C498 1.395 . S
C496 C499 1.403 . S
H497 C503 0.930 . S
C498 H484 0.930 . S
C498 C496 1.395 . S
C498 C501 1.403 . S
C499 C496 1.403 . S
C499 C500 1.524 . S
C499 C503 1.400 1_554 S
C500 H485 0.960 1_554 S
C500 H486 0.960 . S
C500 H487 0.960 . S
C500 C499 1.524 . S
C501 C498 1.403 . S
C501 C502 1.392 . S
C501 C505 1.495 . S
C502 C501 1.392 . S
C502 C503 1.385 1_554 S
C502 C504 1.478 1_554 S
C503 H497 0.930 . S
C503 C499 1.400 1_556 S
C503 C502 1.385 1_556 S
C504 C502 1.478 1_556 S
C504 C506 1.381 . S
C504 C510 1.383 . S
C505 C501 1.495 . S
C505 H511 0.959 . S
C505 H512 0.961 . S
C505 H513 0.960 . S
C506 C504 1.381 . S
C506 C507 1.394 . S
C506 H514 0.930 1_556 S
C507 C506 1.394 . S
C507 C508 1.383 . S
C507 H515 0.929 . S
C508 C507 1.383 . S
C508 C509 1.377 . S
C509 H493 0.930 . S
C509 C508 1.377 . S
C509 C510 1.379 . S
C510 H494 0.931 . S
C510 C504 1.383 . S
C510 C509 1.379 . S
H511 C505 0.959 . S
H512 C505 0.961 . S
H513 C505 0.960 . S
H514 C506 0.930 1_554 S
H515 C507 0.929 . S
H516 C524 0.929 . S
H517 C526 0.930 . S
H518 C528 0.930 . S
H519 C531 0.929 . S
H520 C534 0.930 . S
H521 C536 0.960 1_556 S
H522 C536 0.960 . S
H523 C536 0.960 . S
C524 H516 0.929 . S
C524 C525 1.375 1_455 S
C524 C526 1.384 . S
C525 C524 1.375 1_655 S
C525 C531 1.392 . S
C526 H517 0.930 . S
C526 C524 1.384 . S
C526 C527 1.370 1_455 S
C527 C526 1.370 1_655 S
C527 C528 1.402 . S
C527 C532 1.489 . S
C528 H518 0.930 . S
C528 C527 1.402 . S
C528 C531 1.386 . S
H529 C545 0.930 . S
H530 C546 0.931 . S
C531 H519 0.929 . S
C531 C525 1.392 . S
C531 C528 1.386 . S
C532 C527 1.489 . S
C532 C534 1.435 . S
C532 C535 1.366 1_655 S
H533 C539 0.930 . S
C534 H520 0.930 . S
C534 C532 1.435 . S
C534 C537 1.403 . S
C535 C532 1.366 1_455 S
C535 C536 1.524 . S
C535 C539 1.400 1_554 S
C536 H521 0.960 1_554 S
C536 H522 0.960 . S
C536 H523 0.960 . S
C536 C535 1.524 . S
C537 C534 1.403 . S
C537 C538 1.392 . S
C537 C541 1.495 . S
C538 C537 1.392 . S
C538 C539 1.385 1_654 S
C538 C540 1.478 1_554 S
C539 H533 0.930 . S
C539 C535 1.400 1_556 S
C539 C538 1.385 1_456 S
C540 C538 1.478 1_556 S
C540 C542 1.381 1_655 S
C540 C546 1.383 . S
C541 C537 1.495 . S
C541 H547 0.959 . S
C541 H548 0.961 . S
C541 H549 0.960 . S
C542 C540 1.381 1_455 S
C542 C543 1.394 . S
C542 H550 0.930 1_556 S
C543 C542 1.394 . S
C543 C544 1.383 1_455 S
C543 H551 0.929 . S
C544 C543 1.383 1_655 S
C544 C545 1.377 . S
C545 H529 0.930 . S
C545 C544 1.377 . S
C545 C546 1.379 . S
C546 H530 0.931 . S
C546 C540 1.383 . S
C546 C545 1.379 . S
H547 C541 0.959 . S
H548 C541 0.961 . S
H549 C541 0.960 . S
H550 C542 0.930 1_554 S
H551 C543 0.929 . S
H552 C560 0.929 . S
H553 C562 0.930 . S
H554 C564 0.930 . S
H555 C567 0.929 . S
H556 C570 0.930 . S
H557 C572 0.960 . S
H558 C572 0.960 1_455 S
H559 C572 0.960 . S
C560 H552 0.929 . S
C560 C561 1.377 . S
C560 C562 1.384 . S
C561 C560 1.377 . S
C561 C567 1.390 1_455 S
C562 H553 0.930 . S
C562 C560 1.384 . S
C562 C563 1.372 1_455 S
C563 C562 1.372 1_655 S
C563 C564 1.400 . S
C563 C568 1.490 . S
C564 H554 0.930 . S
C564 C563 1.400 . S
C564 C567 1.386 . S
H565 C581 0.930 . S
H566 C582 0.931 . S
C567 H555 0.929 . S
C567 C561 1.390 1_655 S
C567 C564 1.386 . S
C568 C563 1.490 . S
C568 C570 1.395 . S
C568 C571 1.403 . S
H569 C575 0.930 . S
C570 H556 0.930 . S
C570 C568 1.395 . S
C570 C573 1.403 . S
C571 C568 1.403 . S
C571 C572 1.524 . S
C571 C575 1.400 . S
C572 H557 0.960 . S
C572 H558 0.960 1_655 S
C572 H559 0.960 . S
C572 C571 1.524 . S
C573 C570 1.403 . S
C573 C574 1.392 . S
C573 C577 1.495 . S
C574 C573 1.392 . S
C574 C575 1.385 . S
C574 C576 1.478 . S
C575 H569 0.930 . S
C575 C571 1.400 . S
C575 C574 1.385 . S
C576 C574 1.478 . S
C576 C578 1.381 . S
C576 C582 1.383 . S
C577 C573 1.495 . S
C577 H583 0.959 . S
C577 H584 0.961 . S
C577 H585 0.960 . S
C578 C576 1.381 . S
C578 C579 1.394 . S
C578 H586 0.930 1_655 S
C579 C578 1.394 . S
C579 C580 1.383 . S
C579 H587 0.944 . S
C580 C579 1.383 . S
C580 C581 1.377 . S
C581 H565 0.930 . S
C581 C580 1.377 . S
C581 C582 1.379 . S
C582 H566 0.931 . S
C582 C576 1.383 . S
C582 C581 1.379 . S
H583 C577 0.959 . S
H584 C577 0.961 . S
H585 C577 0.960 . S
H586 C578 0.930 1_455 S
H587 C579 0.944 . S
H588 C596 0.929 . S
H589 C598 0.930 . S
H590 C600 0.930 . S
H591 C603 0.929 . S
H592 C606 0.930 . S
H593 C608 0.960 . S
H594 C608 0.976 . S
H595 C608 0.949 1_565 S
C596 H588 0.929 . S
C596 C597 1.377 . S
C596 C598 1.384 . S
C597 C596 1.377 . S
C597 C603 1.390 1_545 S
C598 H589 0.930 . S
C598 C596 1.384 . S
C598 C599 1.372 1_545 S
C599 C598 1.372 1_565 S
C599 C600 1.400 . S
C599 C604 1.490 . S
C600 H590 0.930 . S
C600 C599 1.400 . S
C600 C603 1.386 . S
H601 C617 0.930 . S
H602 C618 0.931 . S
C603 H591 0.929 . S
C603 C597 1.390 1_565 S
C603 C600 1.386 . S
C604 C599 1.490 . S
C604 C606 1.395 . S
C604 C607 1.403 . S
H605 C611 0.930 . S
C606 H592 0.930 . S
C606 C604 1.395 . S
C606 C609 1.403 . S
C607 C604 1.403 . S
C607 C608 1.519 1_565 S
C607 C611 1.400 . S
C608 H593 0.960 . S
C608 H594 0.976 . S
C608 H595 0.949 1_545 S
C608 C607 1.519 1_545 S
C609 C606 1.403 . S
C609 C610 1.392 . S
C609 C613 1.495 . S
C610 C609 1.392 . S
C610 C611 1.385 . S
C610 C612 1.478 . S
C611 H605 0.930 . S
C611 C607 1.400 . S
C611 C610 1.385 . S
C612 C610 1.478 . S
C612 C614 1.381 . S
C612 C618 1.383 . S
C613 C609 1.495 . S
C613 H619 0.959 . S
C613 H620 0.961 . S
C613 H621 0.960 . S
C614 C612 1.381 . S
C614 C615 1.394 . S
C614 H622 0.930 1_565 S
C615 C614 1.394 . S
C615 C616 1.383 . S
C615 H623 0.929 . S
C616 C615 1.383 . S
C616 C617 1.377 . S
C617 H601 0.930 . S
C617 C616 1.377 . S
C617 C618 1.379 . S
C618 H602 0.931 . S
C618 C612 1.383 . S
C618 C617 1.379 . S
H619 C613 0.959 . S
H620 C613 0.961 . S
H621 C613 0.960 . S
H622 C614 0.930 1_545 S
H623 C615 0.929 . S
H624 C632 0.929 . S
H625 C634 0.930 . S
H626 C636 0.930 . S
H627 C639 0.929 . S
H628 C642 0.930 . S
H629 C644 0.960 . S
H630 C644 0.960 . S
H631 C644 0.960 . S
C632 H624 0.929 . S
C632 C633 1.377 . S
C632 C634 1.384 . S
C633 C632 1.377 . S
C633 C639 1.390 . S
C634 H625 0.930 . S
C634 C632 1.384 . S
C634 C635 1.372 . S
C635 C634 1.372 . S
C635 C636 1.400 . S
C635 C640 1.490 . S
C636 H626 0.930 . S
C636 C635 1.400 . S
C636 C639 1.386 . S
H637 C653 0.930 . S
H638 C654 0.931 . S
C639 H627 0.929 . S
C639 C633 1.390 . S
C639 C636 1.386 . S
C640 C635 1.490 . S
C640 C642 1.395 . S
C640 C643 1.403 . S
H641 C647 0.930 . S
C642 H628 0.930 . S
C642 C640 1.395 . S
C642 C645 1.403 . S
C643 C640 1.403 . S
C643 C644 1.524 . S
C643 C647 1.400 . S
C644 H629 0.960 . S
C644 H630 0.960 . S
C644 H631 0.960 . S
C644 C643 1.524 . S
C645 C642 1.403 . S
C645 C646 1.392 . S
C645 C649 1.495 . S
C646 C645 1.392 . S
C646 C647 1.385 . S
C646 C648 1.478 . S
C647 H641 0.930 . S
C647 C643 1.400 . S
C647 C646 1.385 . S
C648 C646 1.478 . S
C648 C650 1.381 . S
C648 C654 1.383 . S
C649 C645 1.495 . S
C649 H655 0.959 . S
C649 H656 0.961 . S
C649 H657 0.960 . S
C650 C648 1.381 . S
C650 C651 1.394 . S
C650 H658 0.930 . S
C651 C650 1.394 . S
C651 C652 1.383 . S
C651 H659 0.929 . S
C652 C651 1.383 . S
C652 C653 1.377 . S
C653 H637 0.930 . S
C653 C652 1.377 . S
C653 C654 1.379 . S
C654 H638 0.931 . S
C654 C648 1.383 . S
C654 C653 1.379 . S
H655 C649 0.959 . S
H656 C649 0.961 . S
H657 C649 0.960 . S
H658 C650 0.930 . S
H659 C651 0.929 . S
H660 C668 0.929 . S
H661 C670 0.930 . S
H662 C672 0.930 . S
H663 C675 0.929 . S
H664 C678 0.930 . S
H665 C680 0.960 . S
H666 C680 0.960 . S
H667 C680 0.960 . S
C668 H660 0.929 . S
C668 C669 1.377 . S
C668 C670 1.384 . S
C669 C668 1.377 . S
C669 C675 1.390 . S
C670 H661 0.930 . S
C670 C668 1.384 . S
C670 C671 1.372 . S
C671 C670 1.372 . S
C671 C672 1.400 . S
C671 C676 1.490 . S
C672 H662 0.930 . S
C672 C671 1.400 . S
C672 C675 1.386 . S
H673 C689 0.930 . S
H674 C690 0.931 . S
C675 H663 0.929 . S
C675 C669 1.390 . S
C675 C672 1.386 . S
C676 C671 1.490 . S
C676 C678 1.395 . S
C676 C679 1.403 . S
H677 C683 0.930 . S
C678 H664 0.930 . S
C678 C676 1.395 . S
C678 C681 1.403 . S
C679 C676 1.403 . S
C679 C680 1.524 . S
C679 C683 1.400 . S
C680 H665 0.960 . S
C680 H666 0.960 . S
C680 H667 0.960 . S
C680 C679 1.524 . S
C681 C678 1.403 . S
C681 C682 1.392 . S
C681 C685 1.495 . S
C682 C681 1.392 . S
C682 C683 1.385 . S
C682 C684 1.478 . S
C683 H677 0.930 . S
C683 C679 1.400 . S
C683 C682 1.385 . S
C684 C682 1.478 . S
C684 C686 1.381 . S
C684 C690 1.383 . S
C685 C681 1.495 . S
C685 H691 0.959 . S
C685 H692 0.961 . S
C685 H693 0.960 . S
C686 C684 1.381 . S
C686 C687 1.394 . S
C686 H694 0.930 . S
C687 C686 1.394 . S
C687 C688 1.383 . S
C687 H695 0.929 . S
C688 C687 1.383 . S
C688 C689 1.377 . S
C689 H673 0.930 . S
C689 C688 1.377 . S
C689 C690 1.379 . S
C690 H674 0.931 . S
C690 C684 1.383 . S
C690 C689 1.379 . S
H691 C685 0.959 . S
H692 C685 0.961 . S
H693 C685 0.960 . S
H694 C686 0.930 . S
H695 C687 0.929 . S
H696 C704 0.929 . S
H697 C706 0.930 . S
H698 C708 0.930 . S
H699 C711 0.929 . S
H700 C714 0.930 . S
H701 C716 0.960 1_556 S
H702 C716 0.960 . S
H703 C716 0.960 . S
C704 H696 0.929 . S
C704 C705 1.377 . S
C704 C706 1.384 . S
C705 C704 1.377 . S
C705 C711 1.390 1_655 S
C706 H697 0.930 . S
C706 C704 1.384 . S
C706 C707 1.372 1_655 S
C707 C706 1.372 1_455 S
C707 C708 1.400 . S
C707 C712 1.490 . S
C708 H698 0.930 . S
C708 C707 1.400 . S
C708 C711 1.386 . S
H709 C725 0.930 . S
H710 C726 0.931 . S
C711 H699 0.929 . S
C711 C705 1.390 1_455 S
C711 C708 1.386 . S
C712 C707 1.490 . S
C712 C714 1.395 . S
C712 C715 1.403 . S
H713 C719 0.930 . S
C714 H700 0.930 . S
C714 C712 1.395 . S
C714 C717 1.403 . S
C715 C712 1.403 . S
C715 C716 1.524 . S
C715 C719 1.400 . S
C716 H701 0.960 1_554 S
C716 H702 0.960 . S
C716 H703 0.960 . S
C716 C715 1.524 . S
C717 C714 1.403 . S
C717 C718 1.392 . S
C717 C721 1.495 . S
C718 C717 1.392 . S
C718 C719 1.385 . S
C718 C720 1.478 . S
C719 H713 0.930 . S
C719 C715 1.400 . S
C719 C718 1.385 . S
C720 C718 1.478 . S
C720 C722 1.381 . S
C720 C726 1.383 . S
C721 C717 1.495 . S
C721 H727 0.959 . S
C721 H728 0.961 . S
C721 H729 0.960 1_455 S
C722 C720 1.381 . S
C722 C723 1.394 . S
C722 H730 0.930 1_455 S
C723 C722 1.394 . S
C723 C724 1.383 1_554 S
C723 H731 0.929 1_454 S
C724 C723 1.383 1_556 S
C724 C725 1.377 . S
C725 H709 0.930 . S
C725 C724 1.377 . S
C725 C726 1.379 1_556 S
C726 H710 0.931 . S
C726 C720 1.383 . S
C726 C725 1.379 1_554 S
H727 C721 0.959 . S
H728 C721 0.961 . S
H729 C721 0.960 1_655 S
H730 C722 0.930 1_655 S
H731 C723 0.929 1_656 S
H732 C740 0.929 . S
H733 C742 0.930 . S
H734 C744 0.930 . S
H735 C747 0.929 . S
H736 C750 0.930 . S
H737 C752 0.960 . S
H738 C752 0.960 . S
H739 C752 0.960 . S
C740 H732 0.929 . S
C740 C741 1.377 . S
C740 C742 1.384 . S
C741 C740 1.377 . S
C741 C747 1.390 1_565 S
C742 H733 0.930 . S
C742 C740 1.384 . S
C742 C743 1.372 1_565 S
C743 C742 1.372 1_545 S
C743 C744 1.400 . S
C743 C748 1.490 . S
C744 H734 0.930 . S
C744 C743 1.400 . S
C744 C747 1.386 . S
H745 C761 0.930 . S
H746 C762 0.931 . S
C747 H735 0.929 . S
C747 C741 1.390 1_545 S
C747 C744 1.386 . S
C748 C743 1.490 . S
C748 C750 1.395 1_545 S
C748 C751 1.403 . S
H749 C755 0.930 . S
C750 H736 0.930 . S
C750 C748 1.395 1_565 S
C750 C753 1.403 . S
C751 C748 1.403 . S
C751 C752 1.524 . S
C751 C755 1.400 . S
C752 H737 0.960 . S
C752 H738 0.960 . S
C752 H739 0.960 . S
C752 C751 1.524 . S
C753 C750 1.403 . S
C753 C754 1.392 1_565 S
C753 C757 1.495 . S
C754 C753 1.392 1_545 S
C754 C755 1.385 . S
C754 C756 1.478 . S
C755 H749 0.930 . S
C755 C751 1.400 . S
C755 C754 1.385 . S
C756 C754 1.478 . S
C756 C758 1.388 . S
C756 C762 1.383 . S
C757 C753 1.495 . S
C757 H763 0.959 . S
C757 H764 0.961 . S
C757 H765 0.960 . S
C758 C756 1.388 . S
C758 C759 1.390 1_554 S
C758 H766 0.928 1_544 S
C759 C758 1.390 1_556 S
C759 C760 1.383 . S
C759 H767 0.929 . S
C760 C759 1.383 . S
C760 C761 1.377 1_556 S
C761 H745 0.930 . S
C761 C760 1.377 1_554 S
C761 C762 1.379 . S
C762 H746 0.931 . S
C762 C756 1.383 . S
C762 C761 1.379 . S
H763 C757 0.959 . S
H764 C757 0.961 . S
H765 C757 0.960 . S
H766 C758 0.928 1_566 S
H767 C759 0.929 . S
H768 C776 0.929 . S
H769 C778 0.930 . S
H770 C780 0.930 . S
H771 C783 0.929 . S
H772 C786 0.930 . S
H773 C788 0.960 . S
H774 C788 0.960 . S
H775 C788 0.960 . S
C776 H768 0.929 . S
C776 C777 1.377 . S
C776 C778 1.384 . S
C777 C776 1.377 . S
C777 C783 1.390 . S
C778 H769 0.930 . S
C778 C776 1.384 . S
C778 C779 1.372 . S
C779 C778 1.372 . S
C779 C780 1.400 . S
C779 C784 1.490 . S
C780 H770 0.930 . S
C780 C779 1.400 . S
C780 C783 1.386 . S
H781 C797 0.930 . S
H782 C798 0.931 . S
C783 H771 0.929 . S
C783 C777 1.390 . S
C783 C780 1.386 . S
C784 C779 1.490 . S
C784 C786 1.395 . S
C784 C787 1.403 . S
H785 C791 0.930 . S
C786 H772 0.930 . S
C786 C784 1.395 . S
C786 C789 1.403 . S
C787 C784 1.403 . S
C787 C788 1.524 . S
C787 C791 1.400 . S
C788 H773 0.960 . S
C788 H774 0.960 . S
C788 H775 0.960 . S
C788 C787 1.524 . S
C789 C786 1.403 . S
C789 C790 1.392 . S
C789 C793 1.495 . S
C790 C789 1.392 . S
C790 C791 1.385 . S
C790 C792 1.478 . S
C791 H785 0.930 . S
C791 C787 1.400 . S
C791 C790 1.385 . S
C792 C790 1.478 . S
C792 C794 1.381 1_554 S
C792 C798 1.383 . S
C793 C789 1.495 . S
C793 H799 0.959 . S
C793 H800 0.961 . S
C793 H801 0.960 . S
C794 C792 1.381 1_556 S
C794 C795 1.394 . S
C794 H802 0.930 . S
C795 C794 1.394 . S
C795 C796 1.383 . S
C795 H803 0.929 . S
C796 C795 1.383 . S
C796 C797 1.377 1_556 S
C797 H781 0.930 . S
C797 C796 1.377 1_554 S
C797 C798 1.379 . S
C798 H782 0.931 . S
C798 C792 1.383 . S
C798 C797 1.379 . S
H799 C793 0.959 . S
H800 C793 0.961 . S
H801 C793 0.960 . S
H802 C794 0.930 . S
H803 C795 0.929 . S
H804 C812 0.929 . S
H805 C814 0.930 . S
H806 C816 0.930 . S
H807 C819 0.929 . S
H808 C822 0.930 . S
H809 C824 0.960 . S
H810 C824 0.960 . S
H811 C824 0.960 . S
C812 H804 0.929 . S
C812 C813 1.377 . S
C812 C814 1.384 . S
C813 C812 1.377 . S
C813 C819 1.390 . S
C814 H805 0.930 . S
C814 C812 1.384 . S
C814 C815 1.372 . S
C815 C814 1.372 . S
C815 C816 1.400 . S
C815 C820 1.490 . S
C816 H806 0.930 . S
C816 C815 1.400 . S
C816 C819 1.386 . S
H817 C833 0.930 . S
H818 C834 0.931 1_556 S
C819 H807 0.929 . S
C819 C813 1.390 . S
C819 C816 1.386 . S
C820 C815 1.490 . S
C820 C822 1.395 . S
C820 C823 1.403 . S
H821 C827 0.930 . S
C822 H808 0.930 . S
C822 C820 1.395 . S
C822 C825 1.403 . S
C823 C820 1.403 . S
C823 C824 1.524 . S
C823 C827 1.400 . S
C824 H809 0.960 . S
C824 H810 0.960 . S
C824 H811 0.960 . S
C824 C823 1.524 . S
C825 C822 1.403 . S
C825 C826 1.392 . S
C825 C829 1.495 . S
C826 C825 1.392 . S
C826 C827 1.385 . S
C826 C828 1.478 . S
C827 H821 0.930 . S
C827 C823 1.400 . S
C827 C826 1.385 . S
C828 C826 1.478 . S
C828 C830 1.381 . S
C828 C834 1.384 . S
C829 C825 1.495 . S
C829 H835 0.959 . S
C829 H836 0.961 1_554 S
C829 H837 0.960 . S
C830 C828 1.381 . S
C830 C831 1.394 . S
C830 H838 0.930 . S
C831 C830 1.394 . S
C831 C832 1.383 1_554 S
C831 H839 0.929 . S
C832 C831 1.383 1_556 S
C832 C833 1.377 . S
C833 H817 0.930 . S
C833 C832 1.377 . S
C833 C834 1.378 1_556 S
C834 H818 0.931 1_554 S
C834 C828 1.384 . S
C834 C833 1.378 1_554 S
H835 C829 0.959 . S
H836 C829 0.961 1_556 S
H837 C829 0.960 . S
H838 C830 0.930 . S
H839 C831 0.929 . S
H840 C848 0.929 . S
H841 C850 0.930 . S
H842 C852 0.930 . S
H843 C855 0.929 . S
H844 C858 0.930 . S
H845 C860 0.960 . S
H846 C860 0.960 . S
H847 C860 0.960 . S
C848 H840 0.929 . S
C848 C849 1.377 . S
C848 C850 1.384 . S
C849 C848 1.377 . S
C849 C855 1.390 1_455 S
C850 H841 0.930 . S
C850 C848 1.384 . S
C850 C851 1.372 . S
C851 C850 1.372 . S
C851 C852 1.400 1_455 S
C851 C856 1.490 . S
C852 H842 0.930 . S
C852 C851 1.400 1_655 S
C852 C855 1.386 . S
H853 C869 0.957 . S
H854 C870 0.942 . S
C855 H843 0.929 . S
C855 C849 1.390 1_655 S
C855 C852 1.386 . S
C856 C851 1.490 . S
C856 C858 1.395 . S
C856 C859 1.403 1_455 S
H857 C863 0.930 . S
C858 H844 0.930 . S
C858 C856 1.395 . S
C858 C861 1.403 . S
C859 C856 1.403 1_655 S
C859 C860 1.524 . S
C859 C863 1.400 . S
C860 H845 0.960 . S
C860 H846 0.960 . S
C860 H847 0.960 . S
C860 C859 1.524 . S
C861 C858 1.403 . S
C861 C862 1.392 . S
C861 C865 1.495 . S
C862 C861 1.392 . S
C862 C863 1.385 1_455 S
C862 C864 1.478 . S
C863 H857 0.930 . S
C863 C859 1.400 . S
C863 C862 1.385 1_655 S
C864 C862 1.478 . S
C864 C866 1.381 . S
C864 C870 1.371 1_455 S
C865 C861 1.495 . S
C865 H871 0.959 . S
C865 H872 0.961 . S
C865 H873 0.960 . S
C866 C864 1.381 . S
C866 C867 1.394 . S
C866 H874 0.930 . S
C867 C866 1.394 . S
C867 C868 1.383 . S
C867 H875 0.929 . S
C868 C867 1.383 . S
C868 C869 1.352 1_455 S
C869 H853 0.957 . S
C869 C868 1.352 1_655 S
C869 C870 1.379 . S
C870 H854 0.942 . S
C870 C864 1.371 1_655 S
C870 C869 1.379 . S
H871 C865 0.959 . S
H872 C865 0.961 . S
H873 C865 0.960 . S
H874 C866 0.930 . S
H875 C867 0.929 . S
H876 C884 0.929 . S
H877 C886 0.930 . S
H878 C888 0.930 . S
H879 C891 0.929 . S
H880 C894 0.930 . S
H881 C896 0.960 . S
H882 C896 0.960 . S
H883 C896 0.960 . S
C884 H876 0.929 . S
C884 C885 1.377 . S
C884 C886 1.384 . S
C885 C884 1.377 . S
C885 C891 1.390 1_545 S
C886 H877 0.930 . S
C886 C884 1.384 . S
C886 C887 1.372 . S
C887 C886 1.372 . S
C887 C888 1.400 1_545 S
C887 C892 1.490 . S
C888 H878 0.930 . S
C888 C887 1.400 1_565 S
C888 C891 1.386 . S
H889 C905 0.930 . S
H890 C906 0.931 . S
C891 H879 0.929 . S
C891 C885 1.390 1_565 S
C891 C888 1.386 . S
C892 C887 1.490 . S
C892 C894 1.395 . S
C892 C895 1.403 1_545 S
H893 C899 0.930 . S
C894 H880 0.930 . S
C894 C892 1.395 . S
C894 C897 1.403 . S
C895 C892 1.403 1_565 S
C895 C896 1.524 . S
C895 C899 1.400 . S
C896 H881 0.960 . S
C896 H882 0.960 . S
C896 H883 0.960 . S
C896 C895 1.524 . S
C897 C894 1.403 . S
C897 C898 1.392 . S
C897 C901 1.495 . S
C898 C897 1.392 . S
C898 C899 1.385 1_545 S
C898 C900 1.478 . S
C899 H893 0.930 . S
C899 C895 1.400 . S
C899 C898 1.385 1_565 S
C900 C898 1.478 . S
C900 C902 1.381 . S
C900 C906 1.383 1_545 S
C901 C897 1.495 . S
C901 H907 0.959 . S
C901 H908 0.961 . S
C901 H909 0.960 . S
C902 C900 1.381 . S
C902 C903 1.394 . S
C902 H910 0.930 . S
C903 C902 1.394 . S
C903 C904 1.383 . S
C903 H911 0.929 . S
C904 C903 1.383 . S
C904 C905 1.377 1_545 S
C905 H889 0.930 . S
C905 C904 1.377 1_565 S
C905 C906 1.379 . S
C906 H890 0.931 . S
C906 C900 1.383 1_565 S
C906 C905 1.379 . S
H907 C901 0.959 . S
H908 C901 0.961 . S
H909 C901 0.960 . S
H910 C902 0.930 . S
H911 C903 0.929 . S
H912 C920 0.929 1_554 S
H913 C922 0.930 . S
H914 C924 0.930 . S
H915 C927 0.929 . S
H916 C930 0.930 . S
H917 C932 0.960 . S
H918 C932 0.960 . S
H919 C932 0.960 . S
C920 H912 0.929 1_556 S
C920 C921 1.377 . S
C920 C922 1.384 . S
C921 C920 1.377 . S
C921 C927 1.390 . S
C922 H913 0.930 . S
C922 C920 1.384 . S
C922 C923 1.372 . S
C923 C922 1.372 . S
C923 C924 1.400 . S
C923 C928 1.490 . S
C924 H914 0.930 . S
C924 C923 1.400 . S
C924 C927 1.386 . S
H925 C941 0.930 . S
H926 C942 0.931 . S
C927 H915 0.929 . S
C927 C921 1.390 . S
C927 C924 1.386 . S
C928 C923 1.490 . S
C928 C930 1.395 . S
C928 C931 1.403 . S
H929 C935 0.930 . S
C930 H916 0.930 . S
C930 C928 1.395 . S
C930 C933 1.403 . S
C931 C928 1.403 . S
C931 C932 1.524 . S
C931 C935 1.400 . S
C932 H917 0.960 . S
C932 H918 0.960 . S
C932 H919 0.960 . S
C932 C931 1.524 . S
C933 C930 1.403 . S
C933 C934 1.392 . S
C933 C937 1.495 . S
C934 C933 1.392 . S
C934 C935 1.385 . S
C934 C936 1.478 . S
C935 H929 0.930 . S
C935 C931 1.400 . S
C935 C934 1.385 . S
C936 C934 1.478 . S
C936 C938 1.381 . S
C936 C942 1.383 . S
C937 C933 1.495 . S
C937 H943 0.959 . S
C937 H944 0.961 . S
C937 H945 0.960 . S
C938 C936 1.381 . S
C938 C939 1.394 . S
C938 H946 0.930 . S
C939 C938 1.394 . S
C939 C940 1.383 . S
C939 H947 0.929 . S
C940 C939 1.383 . S
C940 C941 1.377 . S
C941 H925 0.930 . S
C941 C940 1.377 . S
C941 C942 1.379 . S
C942 H926 0.931 . S
C942 C936 1.383 . S
C942 C941 1.379 . S
H943 C937 0.959 . S
H944 C937 0.961 . S
H945 C937 0.960 . S
H946 C938 0.930 . S
H947 C939 0.929 . S
H948 C956 0.929 . S
H949 C958 0.930 . S
H950 C960 0.930 . S
H951 C963 0.929 . S
H952 C966 0.930 . S
H953 C968 0.960 . S
H954 C968 0.960 . S
H955 C968 0.960 . S
C956 H948 0.929 . S
C956 C957 1.377 . S
C956 C958 1.384 . S
C957 C956 1.377 . S
C957 C963 1.390 . S
C958 H949 0.930 . S
C958 C956 1.384 . S
C958 C959 1.372 . S
C959 C958 1.372 . S
C959 C960 1.400 . S
C959 C964 1.490 . S
C960 H950 0.930 . S
C960 C959 1.400 . S
C960 C963 1.386 . S
H961 C977 0.930 . S
H962 C978 0.931 . S
C963 H951 0.929 . S
C963 C957 1.390 . S
C963 C960 1.386 . S
C964 C959 1.490 . S
C964 C966 1.395 . S
C964 C967 1.403 . S
H965 C971 0.930 . S
C966 H952 0.930 . S
C966 C964 1.395 . S
C966 C969 1.403 . S
C967 C964 1.403 . S
C967 C968 1.524 . S
C967 C971 1.400 . S
C968 H953 0.960 . S
C968 H954 0.960 . S
C968 H955 0.960 . S
C968 C967 1.524 . S
C969 C966 1.403 . S
C969 C970 1.392 . S
C969 C973 1.495 . S
C970 C969 1.392 . S
C970 C971 1.385 . S
C970 C972 1.478 . S
C971 H965 0.930 . S
C971 C967 1.400 . S
C971 C970 1.385 . S
C972 C970 1.478 . S
C972 C974 1.381 . S
C972 C978 1.383 . S
C973 C969 1.495 . S
C973 H979 0.959 1_556 S
C973 H980 0.961 . S
C973 H981 0.960 . S
C974 C972 1.381 . S
C974 C975 1.394 . S
C974 H982 0.930 . S
C975 C974 1.394 . S
C975 C976 1.383 . S
C975 H983 0.929 . S
C976 C975 1.383 . S
C976 C977 1.377 . S
C977 H961 0.930 . S
C977 C976 1.377 . S
C977 C978 1.379 . S
C978 H962 0.931 . S
C978 C972 1.383 . S
C978 C977 1.379 . S
H979 C973 0.959 1_554 S
H980 C973 0.961 . S
H981 C973 0.960 . S
H982 C974 0.930 . S
H983 C975 0.929 . S
H984 C992 0.929 . S
H985 C994 0.930 . S
H986 C996 0.930 . S
H987 C999 0.929 . S
H988 C1002 0.930 . S
H989 C1004 0.960 . S
H990 C1004 0.960 . S
H991 C1004 0.960 . S
C992 H984 0.929 . S
C992 C993 1.377 1_455 S
C992 C994 1.384 . S
C993 C992 1.377 1_655 S
C993 C999 1.390 . S
C994 H985 0.930 . S
C994 C992 1.384 . S
C994 C995 1.372 1_455 S
C995 C994 1.372 1_655 S
C995 C996 1.400 . S
C995 C1000 1.490 . S
C996 H986 0.930 . S
C996 C995 1.400 . S
C996 C999 1.386 . S
H997 C1013 0.930 . S
H998 C1014 0.931 . S
C999 H987 0.929 . S
C999 C993 1.390 . S
C999 C996 1.386 . S
C1000 C995 1.490 . S
C1000 C1002 1.395 1_655 S
C1000 C1003 1.403 . S
H1001 C1007 0.930 . S
C1002 H988 0.930 . S
C1002 C1000 1.395 1_455 S
C1002 C1005 1.403 . S
C1003 C1000 1.403 . S
C1003 C1004 1.524 . S
C1003 C1007 1.400 . S
C1004 H989 0.960 . S
C1004 H990 0.960 . S
C1004 H991 0.960 . S
C1004 C1003 1.524 . S
C1005 C1002 1.403 . S
C1005 C1006 1.392 1_455 S
C1005 C1009 1.495 . S
C1006 C1005 1.392 1_655 S
C1006 C1007 1.385 . S
C1006 C1008 1.478 . S
C1007 H1001 0.930 . S
C1007 C1003 1.400 . S
C1007 C1006 1.385 . S
C1008 C1006 1.478 . S
C1008 C1010 1.381 1_655 S
C1008 C1014 1.383 . S
C1009 C1005 1.495 . S
C1009 H1015 0.959 . S
C1009 H1016 0.961 . S
C1009 H1017 0.960 . S
C1010 C1008 1.381 1_455 S
C1010 C1011 1.394 . S
C1010 H1018 0.930 . S
C1011 C1010 1.394 . S
C1011 C1012 1.383 1_455 S
C1011 H1019 0.929 . S
C1012 C1011 1.383 1_655 S
C1012 C1013 1.377 . S
C1013 H997 0.930 . S
C1013 C1012 1.377 . S
C1013 C1014 1.379 . S
C1014 H998 0.931 . S
C1014 C1008 1.383 . S
C1014 C1013 1.379 . S
H1015 C1009 0.959 . S
H1016 C1009 0.961 . S
H1017 C1009 0.960 . S
H1018 C1010 0.930 . S
H1019 C1011 0.929 . S
H1020 C1028 0.929 . S
H1021 C1030 0.930 . S
H1022 C1032 0.930 . S
H1023 C1035 0.929 . S
H1024 C1038 0.930 . S
H1025 C1040 0.960 . S
H1026 C1040 0.960 1_565 S
H1027 C1040 0.960 . S
C1028 H1020 0.929 . S
C1028 C1029 1.377 . S
C1028 C1030 1.384 . S
C1029 C1028 1.377 . S
C1029 C1035 1.390 1_565 S
C1030 H1021 0.930 . S
C1030 C1028 1.384 . S
C1030 C1031 1.372 . S
C1031 C1030 1.372 . S
C1031 C1032 1.400 1_565 S
C1031 C1036 1.490 . S
C1032 H1022 0.930 . S
C1032 C1031 1.400 1_545 S
C1032 C1035 1.386 . S
H1033 C1049 0.930 . S
H1034 C1050 0.931 . S
C1035 H1023 0.929 . S
C1035 C1029 1.390 1_545 S
C1035 C1032 1.386 . S
C1036 C1031 1.490 . S
C1036 C1038 1.395 . S
C1036 C1039 1.403 . S
H1037 C1043 0.930 1_545 S
C1038 H1024 0.930 . S
C1038 C1036 1.395 . S
C1038 C1041 1.403 . S
C1039 C1036 1.403 . S
C1039 C1040 1.524 1_565 S
C1039 C1043 1.400 . S
C1040 H1025 0.960 . S
C1040 H1026 0.960 1_545 S
C1040 H1027 0.960 . S
C1040 C1039 1.524 1_545 S
C1041 C1038 1.403 . S
C1041 C1042 1.392 . S
C1041 C1045 1.495 . S
C1042 C1041 1.392 . S
C1042 C1043 1.385 . S
C1042 C1044 1.478 . S
C1043 H1037 0.930 1_565 S
C1043 C1039 1.400 . S
C1043 C1042 1.385 . S
C1044 C1042 1.478 . S
C1044 C1046 1.381 . S
C1044 C1050 1.383 1_565 S
C1045 C1041 1.495 . S
C1045 H1051 0.959 . S
C1045 H1052 0.961 . S
C1045 H1053 0.960 . S
C1046 C1044 1.381 . S
C1046 C1047 1.394 . S
C1046 H1054 0.930 . S
C1047 C1046 1.394 . S
C1047 C1048 1.383 . S
C1047 H1055 0.929 . S
C1048 C1047 1.383 . S
C1048 C1049 1.377 1_565 S
C1049 H1033 0.930 . S
C1049 C1048 1.377 1_545 S
C1049 C1050 1.379 . S
C1050 H1034 0.931 . S
C1050 C1044 1.383 1_545 S
C1050 C1049 1.379 . S
H1051 C1045 0.959 . S
H1052 C1045 0.961 . S
H1053 C1045 0.960 . S
H1054 C1046 0.930 . S
H1055 C1047 0.929 . S
H1056 C1064 0.929 . S
H1057 C1066 0.930 . S
H1058 C1068 0.930 . S
H1059 C1071 0.929 . S
H1060 C1074 0.930 . S
H1061 C1076 0.960 . S
H1062 C1076 0.960 . S
H1063 C1076 0.960 . S
C1064 H1056 0.929 . S
C1064 C1065 1.377 . S
C1064 C1066 1.384 . S
C1065 C1064 1.377 . S
C1065 C1071 1.390 . S
C1066 H1057 0.930 . S
C1066 C1064 1.384 . S
C1066 C1067 1.372 . S
C1067 C1066 1.372 . S
C1067 C1068 1.400 . S
C1067 C1072 1.490 . S
C1068 H1058 0.930 . S
C1068 C1067 1.400 . S
C1068 C1071 1.386 . S
H1069 C1085 0.930 . S
H1070 C1086 0.931 . S
C1071 H1059 0.929 . S
C1071 C1065 1.390 . S
C1071 C1068 1.386 . S
C1072 C1067 1.490 . S
C1072 C1074 1.395 . S
C1072 C1075 1.403 . S
H1073 C1079 0.930 . S
C1074 H1060 0.930 . S
C1074 C1072 1.395 . S
C1074 C1077 1.403 . S
C1075 C1072 1.403 . S
C1075 C1076 1.524 . S
C1075 C1079 1.400 . S
C1076 H1061 0.960 . S
C1076 H1062 0.960 . S
C1076 H1063 0.960 . S
C1076 C1075 1.524 . S
C1077 C1074 1.403 . S
C1077 C1078 1.392 . S
C1077 C1081 1.495 . S
C1078 C1077 1.392 . S
C1078 C1079 1.385 . S
C1078 C1080 1.478 . S
C1079 H1073 0.930 . S
C1079 C1075 1.400 . S
C1079 C1078 1.385 . S
C1080 C1078 1.478 . S
C1080 C1082 1.381 . S
C1080 C1086 1.383 . S
C1081 C1077 1.495 . S
C1081 H1087 0.959 . S
C1081 H1088 0.961 . S
C1081 H1089 0.960 . S
C1082 C1080 1.381 . S
C1082 C1083 1.394 . S
C1082 H1090 0.930 . S
C1083 C1082 1.394 . S
C1083 C1084 1.383 . S
C1083 H1091 0.929 . S
C1084 C1083 1.383 . S
C1084 C1085 1.377 . S
C1085 H1069 0.930 . S
C1085 C1084 1.377 . S
C1085 C1086 1.379 . S
C1086 H1070 0.931 . S
C1086 C1080 1.383 . S
C1086 C1085 1.379 . S
H1087 C1081 0.959 . S
H1088 C1081 0.961 . S
H1089 C1081 0.960 . S
H1090 C1082 0.930 . S
H1091 C1083 0.929 . S
H1092 C1100 0.929 . S
H1093 C1102 0.930 . S
H1094 C1104 0.930 . S
H1095 C1107 0.929 . S
H1096 C1110 0.930 . S
H1097 C1112 0.960 . S
H1098 C1112 0.960 . S
H1099 C1112 0.960 . S
C1100 H1092 0.929 . S
C1100 C1101 1.377 . S
C1100 C1102 1.384 . S
C1101 C1100 1.377 . S
C1101 C1107 1.390 . S
C1102 H1093 0.930 . S
C1102 C1100 1.384 . S
C1102 C1103 1.372 . S
C1103 C1102 1.372 . S
C1103 C1104 1.400 . S
C1103 C1108 1.490 . S
C1104 H1094 0.930 . S
C1104 C1103 1.400 . S
C1104 C1107 1.386 . S
H1105 C1121 0.930 . S
H1106 C1122 0.931 . S
C1107 H1095 0.929 . S
C1107 C1101 1.390 . S
C1107 C1104 1.386 . S
C1108 C1103 1.490 . S
C1108 C1110 1.395 . S
C1108 C1111 1.403 . S
H1109 C1115 0.930 . S
C1110 H1096 0.930 . S
C1110 C1108 1.395 . S
C1110 C1113 1.403 . S
C1111 C1108 1.403 . S
C1111 C1112 1.524 . S
C1111 C1115 1.400 . S
C1112 H1097 0.960 . S
C1112 H1098 0.960 . S
C1112 H1099 0.960 . S
C1112 C1111 1.524 . S
C1113 C1110 1.403 . S
C1113 C1114 1.392 . S
C1113 C1117 1.495 . S
C1114 C1113 1.392 . S
C1114 C1115 1.385 . S
C1114 C1116 1.478 . S
C1115 H1109 0.930 . S
C1115 C1111 1.400 . S
C1115 C1114 1.385 . S
C1116 C1114 1.478 . S
C1116 C1118 1.381 . S
C1116 C1122 1.383 . S
C1117 C1113 1.495 . S
C1117 H1123 0.959 . S
C1117 H1124 0.961 . S
C1117 H1125 0.960 . S
C1118 C1116 1.381 . S
C1118 C1119 1.394 . S
C1118 H1126 0.930 . S
C1119 C1118 1.394 . S
C1119 C1120 1.383 . S
C1119 H1127 0.929 . S
C1120 C1119 1.383 . S
C1120 C1121 1.377 . S
C1121 H1105 0.930 . S
C1121 C1120 1.377 . S
C1121 C1122 1.379 . S
C1122 H1106 0.931 . S
C1122 C1116 1.383 . S
C1122 C1121 1.379 . S
H1123 C1117 0.959 . S
H1124 C1117 0.961 . S
H1125 C1117 0.960 . S
H1126 C1118 0.930 . S
H1127 C1119 0.929 . S
C273 C82 1.603 . S
C292 C113 1.805 1_545 S
C328 C153 1.816 . S
C309 C95 1.596 . S
C364 C193 1.816 . S
C345 C56 1.596 . S
C400 C233 1.800 1_455 S
C381 C69 1.613 . S
C436 C122 1.816 1_565 S
C417 C30 1.606 1_565 S
C453 C43 1.610 . S
C472 C162 1.795 . S
C489 C4 1.606 . S
C508 C202 1.816 . S
C525 C17 1.604 1_655 S
C544 C242 1.816 1_655 S
C580 C119 0.347 . S
C561 C74 0.401 . S
C616 C159 0.356 . S
C597 C87 0.404 . S
C652 C199 0.326 . S
C633 C100 0.386 . S
C669 C61 0.375 . S
C688 C239 0.286 . S
C705 C22 0.411 . S
C724 C110 0.328 . S
C760 C150 0.281 . S
C741 C35 0.410 . S
C796 C190 0.261 . S
C777 C48 0.401 . S
C813 C9 0.371 . S
C832 C230 0.380 . S
C849 C73 1.874 . S
C868 C123 2.054 . S
C885 C86 1.872 . S
C904 C163 2.053 . S
C940 C203 2.030 . S
C921 C99 1.861 . S
C976 C243 2.032 . S
C957 C60 1.861 . S
C993 C21 1.874 . S
C1012 C114 2.031 . S
C1048 C154 2.047 . S
C1029 C34 1.861 . S
C1084 C194 2.049 . S
C1065 C47 1.864 . S
C1101 C8 1.868 . S
C1120 C234 2.039 . S
