# Generated by pormake.
# Topology anh, (6,3)-cn, num edge types: 1
# Building blocks:
#     Node 0, Type 0, BuildingBlock: BETDEL_clean_sbu_0, # of connection points: 6
#     Node 1, Type 0, BuildingBlock: BETDEL_clean_sbu_0, # of connection points: 6
#     Node 2, Type 0, BuildingBlock: BETDEL_clean_sbu_0, # of connection points: 6
#     Node 3, Type 1, BuildingBlock: MIDCAF_clean_linker_0, # of connection points: 3
#     Node 4, Type 1, BuildingBlock: MIDCAF_clean_linker_0, # of connection points: 3
#     Node 5, Type 1, BuildingBlock: MIDCAF_clean_linker_0, # of connection points: 3
#     Node 6, Type 1, BuildingBlock: MIDCAF_clean_linker_0, # of connection points: 3
#     Node 7, Type 1, BuildingBlock: MIDCAF_clean_linker_0, # of connection points: 3
#     Node 8, Type 1, BuildingBlock: MIDCAF_clean_linker_0, # of connection points: 3
#     Edge 9, Type (0, 1), BuildingBlock: XIVTED_clean_linker_0, # of connection points: 2
#     Edge 10, Type (0, 1), BuildingBlock: XIVTED_clean_linker_0, # of connection points: 2
#     Edge 11, Type (0, 1), BuildingBlock: XIVTED_clean_linker_0, # of connection points: 2
#     Edge 12, Type (0, 1), BuildingBlock: XIVTED_clean_linker_0, # of connection points: 2
#     Edge 13, Type (0, 1), BuildingBlock: XIVTED_clean_linker_0, # of connection points: 2
#     Edge 14, Type (0, 1), BuildingBlock: XIVTED_clean_linker_0, # of connection points: 2
#     Edge 15, Type (0, 1), BuildingBlock: XIVTED_clean_linker_0, # of connection points: 2
#     Edge 16, Type (0, 1), BuildingBlock: XIVTED_clean_linker_0, # of connection points: 2
#     Edge 17, Type (0, 1), BuildingBlock: XIVTED_clean_linker_0, # of connection points: 2
#     Edge 18, Type (0, 1), BuildingBlock: XIVTED_clean_linker_0, # of connection points: 2
#     Edge 19, Type (0, 1), BuildingBlock: XIVTED_clean_linker_0, # of connection points: 2
#     Edge 20, Type (0, 1), BuildingBlock: XIVTED_clean_linker_0, # of connection points: 2
#     Edge 21, Type (0, 1), BuildingBlock: XIVTED_clean_linker_0, # of connection points: 2
#     Edge 22, Type (0, 1), BuildingBlock: XIVTED_clean_linker_0, # of connection points: 2
#     Edge 23, Type (0, 1), BuildingBlock: XIVTED_clean_linker_0, # of connection points: 2
#     Edge 24, Type (0, 1), BuildingBlock: XIVTED_clean_linker_0, # of connection points: 2
#     Edge 25, Type (0, 1), BuildingBlock: XIVTED_clean_linker_0, # of connection points: 2
#     Edge 26, Type (0, 1), BuildingBlock: XIVTED_clean_linker_0, # of connection points: 2
# Relax obj value: 0.141
# Max RMSD: 0.166
# Mean RMSD: 0.133
data_MOF--net-anh--node1-BETDEL_clean_sbu_0--node2-MIDCAF_clean_linker_0--edge1-XIVTED_clean_linker_0
_symmetry_space_group_name_H-M    P1
_symmetry_Int_Tables_number       1
_symmetry_cell_setting            triclinic
loop_
_symmetry_equiv_pos_as_xyz
'x, y, z'
_cell_length_a     35.905542
_cell_length_b     35.805723
_cell_length_c     65.246051
_cell_angle_alpha  89.747595
_cell_angle_beta   90.111815
_cell_angle_gamma 120.06425
loop_
_atom_site_label
_atom_site_type_symbol
_atom_site_fract_x
_atom_site_fract_y
_atom_site_fract_z
_atom_type_partial_charge
Dy0 Dy 0.03848 0.48894 0.16076 0.0
C1 C 0.93314 0.56577 0.1805 0.0
C2 C 0.09727 0.46367 0.15393 0.0
Dy3 Dy 0.98411 0.53692 0.16461 0.0
O4 O 0.09415 0.48171 0.17053 0.0
O5 O 0.0679 0.45909 0.14077 0.0
O6 O 0.01269 0.45888 0.19158 0.0
O7 O 0.02189 0.52032 0.18469 0.0
C8 C 1.00739 0.49036 0.19776 0.0
C9 C 0.99531 0.52397 0.12498 0.0
O10 O 0.05111 0.59282 0.169 0.0
O11 O 0.08886 0.55931 0.15767 0.0
O12 O 0.96335 0.58641 0.16698 0.0
O13 O 0.93146 0.52979 0.18556 0.0
O14 O 0.97347 0.54207 0.13076 0.0
O15 O 1.00892 0.51439 0.14073 0.0
O16 O 0.97262 0.43392 0.15363 0.0
O17 O 0.93405 0.46606 0.16571 0.0
C18 C 0.08747 0.59417 0.16352 0.0
C19 C 0.93595 0.43192 0.15906 0.0
Dy20 Dy 0.50466 0.0408 0.49021 0.0
C21 C 0.68364 0.14632 0.5151 0.0
C22 C 0.42156 0.98397 0.48011 0.0
Dy23 Dy 0.60664 0.09361 0.49679 0.0
O24 O 0.43813 0.98842 0.49824 0.0
O25 O 0.4504 0.0109 0.46732 0.0
O26 O 0.49787 0.06506 0.52092 0.0
O27 O 0.54977 0.05496 0.51525 0.0
C28 C 0.53355 0.06903 0.52799 0.0
C29 C 0.58692 0.08293 0.45657 0.0
O30 O 0.59413 0.02603 0.50141 0.0
O31 O 0.52353 0.98939 0.48889 0.0
O32 O 0.67763 0.11901 0.50058 0.0
O33 O 0.64733 0.14383 0.51984 0.0
O34 O 0.62622 0.10281 0.46342 0.0
O35 O 0.56196 0.07098 0.47172 0.0
O36 O 0.51708 0.10748 0.48347 0.0
O37 O 0.5872 0.14468 0.49645 0.0
C38 C 0.55904 0.99002 0.49545 0.0
C39 C 0.55189 0.14368 0.48938 0.0
Dy40 Dy 0.58857 0.58774 0.82387 0.0
C41 C 0.51557 0.4094 0.84294 0.0
C42 C 0.61678 0.67059 0.81173 0.0
Dy43 Dy 0.54066 0.49097 0.82951 0.0
O44 O 0.61719 0.65833 0.83041 0.0
O45 O 0.6013 0.63759 0.79953 0.0
O46 O 0.61923 0.59501 0.85468 0.0
O47 O 0.55589 0.5446 0.84959 0.0
C48 C 0.58649 0.56065 0.86222 0.0
C49 C 0.54265 0.51726 0.79092 0.0
O50 O 0.4871 0.50272 0.83787 0.0
O51 O 0.51845 0.57099 0.82333 0.0
O52 O 0.50083 0.41877 0.82671 0.0
O53 O 0.54344 0.44467 0.85199 0.0
O54 O 0.51056 0.48255 0.79858 0.0
O55 O 0.57335 0.53391 0.80354 0.0
O56 O 0.64495 0.57817 0.81844 0.0
O57 O 0.61007 0.50684 0.8294 0.0
C58 C 0.48443 0.53636 0.83121 0.0
C59 C 0.64559 0.54265 0.82373 0.0
C60 C 0.38936 0.86648 0.20568 0.0
C61 C 0.36961 0.8674 0.18724 0.0
C62 C 0.38825 0.90598 0.17573 0.0
C63 C 0.42592 0.94281 0.18261 0.0
H64 H 0.5524 0.0899 0.17207 0.0
H65 H 0.6165 0.15224 0.15709 0.0
H66 H 0.69674 0.1351 0.20111 0.0
H67 H 0.63342 0.07384 0.21589 0.0
H68 H 0.58244 0.08606 0.26176 0.0
H69 H 0.58946 0.09401 0.29865 0.0
H70 H 0.47183 0.97221 0.30644 0.0
H71 H 0.46414 0.96436 0.26922 0.0
H72 H 0.43995 0.90134 0.22719 0.0
H73 H 0.37569 0.83745 0.21498 0.0
H74 H 0.37377 0.90758 0.16142 0.0
H75 H 0.43944 0.97219 0.17358 0.0
N76 N 0.51485 0.01119 0.19805 0.0
N77 N 0.55198 0.04845 0.22772 0.0
N78 N 0.48528 0.98555 0.23085 0.0
C79 C 0.55008 0.04487 0.207 0.0
C80 C 0.5197 0.01939 0.23977 0.0
C81 C 0.4824 0.98105 0.21011 0.0
C82 C 0.58794 0.07701 0.19511 0.0
C83 C 0.58391 0.09897 0.17812 0.0
C84 C 0.62055 0.13486 0.16972 0.0
C85 C 0.66186 0.1488 0.17793 0.0
C86 C 0.6657 0.12517 0.19422 0.0
C87 C 0.6293 0.09006 0.20276 0.0
C88 C 0.52287 0.02436 0.26241 0.0
C89 C 0.5579 0.06085 0.27122 0.0
C90 C 0.56208 0.06537 0.29245 0.0
C91 C 0.53147 0.03351 0.30552 0.0
C92 C 0.49584 0.99743 0.29679 0.0
C93 C 0.4916 0.99286 0.27545 0.0
C94 C 0.44485 0.94196 0.20137 0.0
C95 C 0.42615 0.90326 0.21272 0.0
C96 C 0.51962 0.41246 0.53205 0.0
C97 C 0.54181 0.41537 0.51388 0.0
C98 C 0.5648 0.45585 0.50403 0.0
C99 C 0.56582 0.4926 0.51237 0.0
H100 H 0.59207 0.64161 0.50766 0.0
H101 H 0.59429 0.7076 0.49484 0.0
H102 H 0.50343 0.69425 0.54157 0.0
H103 H 0.50178 0.62954 0.55437 0.0
H104 H 0.52955 0.60636 0.59975 0.0
H105 H 0.53192 0.60603 0.63718 0.0
H106 H 0.58094 0.51794 0.63544 0.0
H107 H 0.57822 0.51777 0.59803 0.0
H108 H 0.50462 0.44553 0.55485 0.0
H109 H 0.50199 0.38201 0.54016 0.0
H110 H 0.58214 0.4591 0.48996 0.0
H111 H 0.58429 0.52346 0.50471 0.0
N112 N 0.54893 0.56161 0.53133 0.0
N113 N 0.55043 0.59399 0.56291 0.0
N114 N 0.55058 0.52888 0.56245 0.0
C115 C 0.5493 0.59452 0.5421 0.0
C116 C 0.55167 0.5617 0.57319 0.0
C117 C 0.54897 0.52823 0.54163 0.0
C118 C 0.54672 0.6304 0.53199 0.0
C119 C 0.57207 0.65249 0.51487 0.0
C120 C 0.57361 0.69042 0.50769 0.0
C121 C 0.54903 0.70621 0.5172 0.0
C122 C 0.52245 0.68289 0.53376 0.0
C123 C 0.52161 0.64581 0.54114 0.0
C124 C 0.55359 0.56199 0.59589 0.0
C125 C 0.54096 0.58701 0.60733 0.0
C126 C 0.54215 0.58673 0.62875 0.0
C127 C 0.55671 0.56206 0.63917 0.0
C128 C 0.56994 0.53756 0.62777 0.0
C129 C 0.56807 0.53724 0.60636 0.0
C130 C 0.54479 0.48965 0.53098 0.0
C131 C 0.52138 0.44904 0.54054 0.0
C132 C 0.91224 0.50502 0.86453 0.0
C133 C 0.91736 0.53233 0.84793 0.0
C134 C 0.95904 0.55819 0.83972 0.0
C135 C 0.99466 0.55695 0.84815 0.0
H136 H 0.13324 0.56501 0.84128 0.0
H137 H 0.19811 0.56555 0.82846 0.0
H138 H 0.19943 0.49692 0.88277 0.0
H139 H 0.13577 0.49606 0.89527 0.0
H140 H 0.09973 0.50785 0.93609 0.0
H141 H 0.09056 0.49908 0.97316 0.0
H142 H 0.99029 0.5322 0.97 0.0
H143 H 0.9984 0.5395 0.93307 0.0
H144 H 0.94215 0.48351 0.88617 0.0
H145 H 0.88094 0.48507 0.87147 0.0
H146 H 0.96409 0.57949 0.82688 0.0
H147 H 0.02645 0.57781 0.84189 0.0
N148 N 0.06095 0.53404 0.86709 0.0
N149 N 0.08784 0.52906 0.89936 0.0
N150 N 0.02324 0.52948 0.89738 0.0
C151 C 0.09193 0.53204 0.8786 0.0
C152 C 0.05394 0.52811 0.90888 0.0
C153 C 0.02615 0.53238 0.87661 0.0
C154 C 0.12921 0.53065 0.86934 0.0
C155 C 0.14725 0.54969 0.85029 0.0
C156 C 0.18457 0.55027 0.84305 0.0
C157 C 0.20398 0.53108 0.85454 0.0
C158 C 0.18522 0.51146 0.87333 0.0
C159 C 0.14866 0.51132 0.88059 0.0
C160 C 0.04962 0.52413 0.93153 0.0
C161 C 0.07573 0.51327 0.94331 0.0
C162 C 0.0706 0.50839 0.96461 0.0
C163 C 0.03941 0.51451 0.97463 0.0
C164 C 0.01391 0.52613 0.96282 0.0
C165 C 0.01877 0.53064 0.94158 0.0
C166 C 0.98928 0.53052 0.8652 0.0
C167 C 0.94755 0.5043 0.87305 0.0
C168 C 0.11602 0.71894 0.42972 0.0
C169 C 0.13763 0.72467 0.44843 0.0
C170 C 0.12174 0.69006 0.46244 0.0
C171 C 0.0855 0.65044 0.45769 0.0
H172 H 1.00754 0.51453 0.4758 0.0
H173 H 0.97012 0.45405 0.50003 0.0
H174 H 0.85154 0.41143 0.4669 0.0
H175 H 0.88875 0.47057 0.44246 0.0
H176 H 0.91967 0.47954 0.39007 0.0
H177 H 0.9066 0.46338 0.35362 0.0
H178 H 1.00298 0.59478 0.33907 0.0
H179 H 0.0153 0.61127 0.37525 0.0
H180 H 0.06446 0.67609 0.41027 0.0
H181 H 0.12685 0.74512 0.41874 0.0
H182 H 0.13792 0.69317 0.47689 0.0
H183 H 0.07455 0.62425 0.46867 0.0
N184 N 1.00728 0.57034 0.44735 0.0
N185 N 0.96025 0.52433 0.42202 0.0
N186 N 0.01409 0.59427 0.41332 0.0
C187 C 0.97334 0.53155 0.44189 0.0
C188 C 0.98066 0.55552 0.4076 0.0
C189 C 0.02752 0.60207 0.4331 0.0
C190 C 0.95098 0.49705 0.45726 0.0
C191 C 0.97342 0.49235 0.47384 0.0
C192 C 0.9522 0.45788 0.48762 0.0
C193 C 0.90809 0.42858 0.48531 0.0
C194 C 0.88554 0.43397 0.46906 0.0
C195 C 0.90686 0.4676 0.45504 0.0
C196 C 0.96891 0.54661 0.38565 0.0
C197 C 0.93762 0.50518 0.3791 0.0
C198 C 0.93024 0.49581 0.3582 0.0
C199 C 0.95393 0.52768 0.34341 0.0
C200 C 0.98375 0.56956 0.35 0.0
C201 C 0.99109 0.57892 0.37084 0.0
C202 C 0.06458 0.64449 0.43875 0.0
C203 C 0.08005 0.67932 0.42491 0.0
C204 C 0.60627 0.20916 0.79767 0.0
C205 C 0.57848 0.18657 0.81398 0.0
C206 C 0.56533 0.14284 0.817 0.0
C207 C 0.57971 0.122 0.80377 0.0
H208 H 0.61541 0.02422 0.80038 0.0
H209 H 0.62001 0.9602 0.80881 0.0
H210 H 0.67338 0.96494 0.74891 0.0
H211 H 0.66804 0.02807 0.74031 0.0
H212 H 0.6568 0.07963 0.70592 0.0
H213 H 0.64989 0.08867 0.6696 0.0
H214 H 0.60772 0.17993 0.6826 0.0
H215 H 0.61356 0.17005 0.71925 0.0
H216 H 0.64041 0.2062 0.7715 0.0
H217 H 0.61642 0.24279 0.7949 0.0
H218 H 0.54374 0.12483 0.82945 0.0
H219 H 0.56877 0.0881 0.8062 0.0
N220 N 0.6243 0.0886 0.77776 0.0
N221 N 0.63991 0.0805 0.74376 0.0
N222 N 0.62344 0.13411 0.75191 0.0
C223 C 0.63541 0.068 0.76369 0.0
C224 C 0.63387 0.11334 0.73769 0.0
C225 C 0.61873 0.12199 0.77195 0.0
C226 C 0.64093 0.03109 0.7696 0.0
C227 C 0.62841 0.01179 0.78906 0.0
C228 C 0.63122 0.9752 0.79393 0.0
C229 C 0.64673 0.95729 0.77945 0.0
C230 C 0.66048 0.97742 0.76026 0.0
C231 C 0.65756 0.0138 0.75537 0.0
C232 C 0.63521 0.12367 0.71559 0.0
C233 C 0.6465 0.10204 0.70114 0.0
C234 C 0.6429 0.10753 0.68021 0.0
C235 C 0.62807 0.13491 0.67315 0.0
C236 C 0.61868 0.15815 0.68755 0.0
C237 C 0.62228 0.15264 0.70857 0.0
C238 C 0.60637 0.14436 0.78704 0.0
C239 C 0.61974 0.18817 0.78422 0.0
C240 C 0.67469 0.56942 0.13033 0.0
C241 C 0.66947 0.55951 0.15136 0.0
C242 C 0.62759 0.5351 0.15933 0.0
C243 C 0.59176 0.51982 0.14638 0.0
H244 H 0.45509 0.46308 0.14427 0.0
H245 H 0.3835 0.44601 0.1555 0.0
H246 H 0.34474 0.44017 0.09225 0.0
H247 H 0.41504 0.45518 0.08113 0.0
H248 H 0.47811 0.43504 0.04857 0.0
H249 H 0.4885 0.43766 0.01167 0.0
H250 H 0.61574 0.54883 0.01878 0.0
H251 H 0.60602 0.54459 0.05577 0.0
H252 H 0.64457 0.56141 0.10122 0.0
H253 H 0.70646 0.58752 0.1236 0.0
H254 H 0.62258 0.5271 0.17549 0.0
H255 H 0.55994 0.50024 0.15287 0.0
N256 N 0.51916 0.49267 0.11799 0.0
N257 N 0.49294 0.47381 0.08443 0.0
N258 N 0.56699 0.50779 0.09057 0.0
C259 C 0.48538 0.47518 0.10471 0.0
C260 C 0.53354 0.48989 0.07726 0.0
C261 C 0.56012 0.50904 0.11097 0.0
C262 C 0.44103 0.46089 0.11181 0.0
C263 C 0.43105 0.45756 0.13279 0.0
C264 C 0.39003 0.44798 0.13922 0.0
C265 C 0.35826 0.44203 0.12481 0.0
C266 C 0.36793 0.44382 0.10384 0.0
C267 C 0.40863 0.45284 0.09744 0.0
C268 C 0.54113 0.48979 0.05504 0.0
C269 C 0.50844 0.45977 0.04223 0.0
C270 C 0.51434 0.46148 0.02105 0.0
C271 C 0.55277 0.49381 0.01211 0.0
C272 C 0.58593 0.5231 0.02504 0.0
C273 C 0.58029 0.52087 0.04629 0.0
C274 C 0.59725 0.52822 0.12519 0.0
C275 C 0.63909 0.55392 0.11742 0.0
H276 H 0.11031 0.42574 0.12026 0.0
H277 H 0.34318 0.48111 0.15727 0.0
H278 H 0.16212 0.47811 0.17981 0.0
H279 H 0.27804 0.39355 0.10722 0.0
H280 H 0.27671 0.48001 0.16561 0.0
H281 H 0.17127 0.41385 0.11455 0.0
C282 C 0.13431 0.43437 0.13216 0.0
C283 C 0.13147 0.45314 0.15045 0.0
C284 C 0.27681 0.46067 0.15292 0.0
C285 C 0.20097 0.44004 0.14406 0.0
C286 C 0.31479 0.46098 0.14822 0.0
C287 C 0.31654 0.43757 0.13141 0.0
C288 C 0.24028 0.43729 0.14058 0.0
C289 C 0.27861 0.41289 0.12005 0.0
C290 C 0.16896 0.42752 0.12894 0.0
C291 C 0.16325 0.46373 0.16543 0.0
N292 N 0.24217 0.41378 0.12469 0.0
N293 N 0.19685 0.4574 0.16183 0.0
H294 H 0.70043 0.20717 0.54414 0.0
H295 H 0.83887 0.40835 0.50933 0.0
H296 H 0.76216 0.17035 0.49827 0.0
H297 H 0.9242 0.36254 0.49117 0.0
H298 H 0.79144 0.33873 0.52528 0.0
H299 H 0.76463 0.27875 0.54562 0.0
C300 C 0.72792 0.21393 0.53469 0.0
C301 C 0.72569 0.1834 0.52062 0.0
C302 C 0.82129 0.34411 0.51859 0.0
C303 C 0.79822 0.26553 0.52154 0.0
C304 C 0.84817 0.38386 0.50934 0.0
C305 C 0.88521 0.39086 0.49896 0.0
C306 C 0.83118 0.31084 0.51709 0.0
C307 C 0.89587 0.35819 0.49915 0.0
C308 C 0.76432 0.25497 0.53534 0.0
C309 C 0.76237 0.19337 0.50904 0.0
N310 N 0.86836 0.3191 0.50762 0.0
N311 N 0.7969 0.23401 0.50942 0.0
H312 H 0.6102 0.6997 0.77389 0.0
H313 H 0.66948 0.93341 0.8153 0.0
H314 H 0.64738 0.74106 0.8363 0.0
H315 H 0.6245 0.88885 0.75393 0.0
H316 H 0.66714 0.86523 0.8226 0.0
H317 H 0.62188 0.77147 0.76537 0.0
C318 C 0.62125 0.72409 0.78573 0.0
C319 C 0.62765 0.71459 0.80582 0.0
C320 C 0.658 0.87048 0.8075 0.0
C321 C 0.64073 0.79637 0.79632 0.0
C322 C 0.65909 0.90929 0.80337 0.0
C323 C 0.64709 0.91684 0.78399 0.0
C324 C 0.64469 0.83892 0.79215 0.0
C325 C 0.63455 0.88468 0.76901 0.0
C326 C 0.62778 0.76496 0.7809 0.0
C327 C 0.64193 0.74716 0.82062 0.0
N328 N 0.63351 0.8471 0.77343 0.0
N329 N 0.64777 0.78658 0.8156 0.0
H330 H 0.86167 0.51898 0.20402 0.0
H331 H 0.74684 0.63538 0.15179 0.0
H332 H 0.92678 0.63485 0.16741 0.0
H333 H 0.68007 0.509 0.17972 0.0
H334 H 0.81424 0.64633 0.16648 0.0
H335 H 0.79751 0.52629 0.20448 0.0
C336 C 0.86278 0.54657 0.19651 0.0
C337 C 0.89912 0.57589 0.18529 0.0
C338 C 0.7847 0.61655 0.16974 0.0
C339 C 0.82588 0.58414 0.18552 0.0
C340 C 0.74624 0.61025 0.16133 0.0
C341 C 0.70793 0.5708 0.16413 0.0
C342 C 0.78491 0.58309 0.18095 0.0
C343 C 0.70883 0.53981 0.17705 0.0
C344 C 0.82611 0.55065 0.19671 0.0
C345 C 0.8991 0.61121 0.17598 0.0
N346 N 0.74686 0.54628 0.18465 0.0
N347 N 0.8627 0.61395 0.17599 0.0
H348 H 0.38581 0.95973 0.44195 0.0
H349 H 0.16296 0.76718 0.48522 0.0
H350 H 0.35757 0.93198 0.50628 0.0
H351 H 0.20284 0.77685 0.42209 0.0
H352 H 0.23005 0.83365 0.49266 0.0
H353 H 0.31414 0.89914 0.43377 0.0
C354 C 0.36431 0.94114 0.45432 0.0
C355 C 0.37749 0.95052 0.47479 0.0
C356 C 0.22399 0.82129 0.47716 0.0
C357 C 0.29596 0.88153 0.46564 0.0
C358 C 0.18579 0.7832 0.47292 0.0
C359 C 0.17727 0.76616 0.45302 0.0
C360 C 0.25389 0.84266 0.46138 0.0
C361 C 0.20773 0.78895 0.43761 0.0
C362 C 0.32357 0.90654 0.44967 0.0
C363 C 0.34861 0.92556 0.49029 0.0
N364 N 0.24474 0.82592 0.44213 0.0
N365 N 0.30923 0.8921 0.4854 0.0
H366 H 0.45843 0.33249 0.82558 0.0
H367 H 0.49429 0.16146 0.8214 0.0
H368 H 0.56327 0.39012 0.86876 0.0
H369 H 0.62375 0.26202 0.83482 0.0
H370 H 0.46707 0.20645 0.83582 0.0
H371 H 0.46422 0.26743 0.82541 0.0
C372 C 0.48171 0.33081 0.83555 0.0
C373 C 0.51079 0.36676 0.84698 0.0
C374 C 0.50137 0.21841 0.83582 0.0
C375 C 0.51787 0.2927 0.84685 0.0
C376 C 0.51684 0.19261 0.82784 0.0
C377 C 0.56129 0.20857 0.82666 0.0
C378 C 0.53074 0.26026 0.84263 0.0
C379 C 0.58926 0.249 0.83518 0.0
C380 C 0.48489 0.29353 0.83556 0.0
C381 C 0.54044 0.36311 0.85961 0.0
N382 N 0.57354 0.27368 0.84263 0.0
N383 N 0.54403 0.32715 0.85877 0.0
H384 H 0.4902 0.9085 0.49018 0.0
H385 H 0.62157 0.78455 0.50944 0.0
H386 H 0.62621 0.97529 0.50363 0.0
H387 H 0.48314 0.72269 0.51082 0.0
H388 H 0.62533 0.85396 0.50264 0.0
H389 H 0.48865 0.83986 0.49328 0.0
C390 C 0.51988 0.90889 0.4937 0.0
C391 C 0.55841 0.94806 0.49672 0.0
C392 C 0.59415 0.82512 0.50431 0.0
C393 C 0.55674 0.86884 0.50025 0.0
C394 C 0.59197 0.78544 0.508 0.0
C395 C 0.55197 0.7477 0.51077 0.0
C396 C 0.55603 0.82706 0.50312 0.0
C397 C 0.51468 0.75095 0.50899 0.0
C398 C 0.51889 0.86949 0.49552 0.0
C399 C 0.5957 0.94605 0.50127 0.0
N400 N 0.51763 0.78979 0.50531 0.0
N401 N 0.59395 0.90718 0.50288 0.0
H402 H 0.72863 0.61134 0.81943 0.0
H403 H 0.83616 0.46482 0.84079 0.0
H404 H 0.6576 0.47343 0.82881 0.0
H405 H 0.91062 0.6037 0.83744 0.0
H406 H 0.77147 0.46786 0.83258 0.0
H407 H 0.79607 0.60969 0.82241 0.0
C408 C 0.7271 0.58068 0.82192 0.0
C409 C 0.68713 0.54249 0.82394 0.0
C410 C 0.8019 0.49777 0.8335 0.0
C411 C 0.76438 0.54042 0.82739 0.0
C412 C 0.83899 0.49605 0.83821 0.0
C413 C 0.87902 0.53408 0.84006 0.0
C414 C 0.80438 0.53787 0.8306 0.0
C415 C 0.88056 0.57352 0.83614 0.0
C416 C 0.76568 0.5798 0.82368 0.0
C417 C 0.68741 0.50379 0.82724 0.0
N418 N 0.84377 0.57443 0.83179 0.0
N419 N 0.72521 0.50383 0.8289 0.0
H420 H 0.10029 0.6762 0.16917 0.0
H421 H 0.35425 0.78467 0.18484 0.0
H422 H 0.16957 0.60764 0.16098 0.0
H423 H 0.29289 0.8604 0.17508 0.0
H424 H 0.28605 0.7192 0.17736 0.0
H425 H 0.16925 0.74363 0.17269 0.0
C426 C 0.12989 0.67524 0.16804 0.0
C427 C 0.12888 0.63594 0.1648 0.0
C428 C 0.28745 0.75011 0.17667 0.0
C429 C 0.20806 0.71316 0.16899 0.0
C430 C 0.32641 0.78751 0.18097 0.0
C431 C 0.32929 0.82808 0.1806 0.0
C432 C 0.25063 0.75297 0.17226 0.0
C433 C 0.29217 0.82981 0.1754 0.0
C434 C 0.16928 0.71383 0.16999 0.0
C435 C 0.16848 0.63696 0.16342 0.0
N436 N 0.25427 0.79278 0.17166 0.0
N437 N 0.20624 0.67472 0.16568 0.0
H438 H 0.61988 0.22633 0.49297 0.0
H439 H 0.47351 0.33319 0.5095 0.0
H440 H 0.48177 0.15528 0.48611 0.0
H441 H 0.61094 0.40827 0.50106 0.0
H442 H 0.4757 0.26784 0.50084 0.0
H443 H 0.61735 0.29306 0.49588 0.0
C444 C 0.58898 0.2247 0.49192 0.0
C445 C 0.55094 0.18486 0.48933 0.0
C446 C 0.50535 0.29862 0.50066 0.0
C447 C 0.54784 0.2616 0.4929 0.0
C448 C 0.50414 0.33597 0.50565 0.0
C449 C 0.54214 0.37635 0.50609 0.0
C450 C 0.54496 0.30133 0.49635 0.0
C451 C 0.58083 0.37795 0.5008 0.0
C452 C 0.58761 0.26295 0.49355 0.0
C453 C 0.51196 0.18509 0.48804 0.0
N454 N 0.58132 0.34099 0.4964 0.0
N455 N 0.51138 0.2227 0.49004 0.0
H456 H 0.40727 0.4696 0.84456 0.0
H457 H 0.27772 0.59824 0.83736 0.0
H458 H 0.46541 0.60056 0.82214 0.0
H459 H 0.22196 0.46526 0.85622 0.0
H460 H 0.34574 0.59986 0.83013 0.0
H461 H 0.33892 0.4679 0.84795 0.0
C462 C 0.40578 0.49811 0.84033 0.0
C463 C 0.44249 0.53535 0.83311 0.0
C464 C 0.3185 0.57027 0.83573 0.0
C465 C 0.36348 0.53357 0.83699 0.0
C466 C 0.27953 0.56923 0.83971 0.0
C467 C 0.24403 0.53168 0.84763 0.0
C468 C 0.32202 0.53346 0.83964 0.0
C469 C 0.24855 0.4952 0.85052 0.0
C470 C 0.36651 0.49706 0.84224 0.0
C471 C 0.43811 0.57113 0.82782 0.0
N472 N 0.28668 0.49712 0.84666 0.0
N473 N 0.39944 0.56941 0.82993 0.0
H474 H 0.9254 0.35084 0.15361 0.0
H475 H 0.66897 0.22738 0.16939 0.0
H476 H 0.85314 0.41577 0.16369 0.0
H477 H 0.74365 0.16339 0.17085 0.0
H478 H 0.73486 0.29579 0.16222 0.0
H479 H 0.85816 0.28141 0.15523 0.0
C480 C 0.89546 0.35063 0.15599 0.0
C481 C 0.89519 0.38943 0.15862 0.0
C482 C 0.7368 0.26672 0.16395 0.0
C483 C 0.81782 0.30976 0.16046 0.0
C484 C 0.69906 0.22752 0.16785 0.0
C485 C 0.70065 0.18946 0.17085 0.0
C486 C 0.77656 0.26803 0.16288 0.0
C487 C 0.74087 0.19194 0.16893 0.0
C488 C 0.85703 0.31089 0.15697 0.0
C489 C 0.85518 0.38685 0.1617 0.0
N490 N 0.77712 0.23045 0.16516 0.0
N491 N 0.81828 0.34784 0.16257 0.0
H492 H 0.94247 0.51461 0.0937 0.0
H493 H 0.10076 0.53631 0.00492 0.0
H494 H 0.05945 0.51362 0.10748 0.0
H495 H 0.9637 0.47956 -0.00387 0.0
H496 H 0.0893 0.53154 0.04212 0.0
H497 H 0.95235 0.50594 0.05747 0.0
C498 C 0.97015 0.51223 0.08904 0.0
C499 C 1.00022 0.51483 0.1035 0.0
C500 C 0.06181 0.51979 0.03198 0.0
C501 C 0.01221 0.50565 0.06195 0.0
C502 C 0.06825 0.52239 0.01074 0.0
C503 C 0.03321 0.50898 -0.00274 0.0
C504 C 0.02016 0.50415 0.03976 0.0
C505 C 0.99189 0.49153 0.0058 0.0
C506 C 0.97572 0.50714 0.06837 0.0
C507 C 0.03549 0.51151 0.09671 0.0
N508 N 0.98662 0.49012 0.02643 0.0
N509 N 0.04094 0.50771 0.07628 0.0
H510 H 0.50661 0.044 0.43835 0.0
H511 H 0.60627 0.06052 0.32659 0.0
H512 H 0.64188 0.10112 0.42505 0.0
H513 H 0.47136 0.01573 0.33593 0.0
H514 H 0.61797 0.07102 0.3633 0.0
H515 H 0.49091 0.02919 0.40155 0.0
C516 C 0.53286 0.05326 0.42772 0.0
C517 C 0.57551 0.07364 0.43472 0.0
C518 C 0.58572 0.05892 0.35741 0.0
C519 C 0.5581 0.05699 0.39286 0.0
C520 C 0.57906 0.05309 0.33638 0.0
C521 C 0.53787 0.03777 0.3281 0.0
C522 C 0.55097 0.04932 0.37047 0.0
C523 C 0.50366 0.02756 0.34167 0.0
C524 C 0.52398 0.04492 0.40676 0.0
C525 C 0.60849 0.08533 0.42033 0.0
N526 N 0.51099 0.03371 0.36221 0.0
N527 N 0.5991 0.0768 0.40017 0.0
H528 H 0.47654 0.49354 0.76431 0.0
H529 H 0.62189 0.57207 0.66459 0.0
H530 H 0.61496 0.56807 0.76807 0.0
H531 H 0.49186 0.5488 0.66532 0.0
H532 H 0.61993 0.56618 0.70212 0.0
H533 H 0.48099 0.50904 0.72756 0.0
C534 C 0.50788 0.51338 0.75737 0.0
C535 C 0.54545 0.5294 0.76913 0.0
C536 C 0.592 0.56276 0.69406 0.0
C537 C 0.55085 0.54676 0.72712 0.0
C538 C 0.59301 0.56584 0.67268 0.0
C539 C 0.55693 0.56081 0.66189 0.0
C540 C 0.55436 0.55373 0.70464 0.0
C541 C 0.52042 0.55313 0.67308 0.0
C542 C 0.51039 0.52231 0.73644 0.0
C543 C 0.58526 0.55511 0.75947 0.0
N544 N 0.51989 0.54934 0.69383 0.0
N545 N 0.58698 0.56257 0.73892 0.0
H546 H 0.6046 0.07345 0.54546 0.0
H547 H 0.55952 0.13654 0.65548 0.0
H548 H 0.503 0.10168 0.55693 0.0
H549 H 0.67575 0.13506 0.64026 0.0
H550 H 0.54009 0.12778 0.61925 0.0
H551 H 0.63252 0.09848 0.57989 0.0
C552 C 0.58842 0.08532 0.5552 0.0
C553 C 0.55153 0.0856 0.54841 0.0
C554 C 0.5701 0.1299 0.62381 0.0
C555 C 0.58278 0.11362 0.58791 0.0
C556 C 0.58142 0.13524 0.6445 0.0
C557 C 0.61914 0.13606 0.65099 0.0
C558 C 0.59649 0.12496 0.60951 0.0
C559 C 0.64589 0.13362 0.63603 0.0
C560 C 0.60435 0.09961 0.57485 0.0
C561 C 0.5315 0.10088 0.56166 0.0
N562 N 0.63381 0.12767 0.61603 0.0
N563 N 0.54719 0.11397 0.58088 0.0
H564 H 0.65051 0.5877 0.89068 0.0
H565 H 0.49034 0.47908 0.98374 0.0
H566 H 0.51428 0.50167 0.88242 0.0
H567 H 0.62551 0.51983 0.98855 0.0
H568 H 0.49879 0.49037 0.94687 0.0
H569 H 0.64277 0.56702 0.92697 0.0
C570 C 0.61904 0.56432 0.89652 0.0
C571 C 0.5829 0.54658 0.88369 0.0
C572 C 0.52651 0.49647 0.95599 0.0
C573 C 0.57377 0.52316 0.92498 0.0
C574 C 0.52171 0.48976 0.97709 0.0
C575 C 0.55726 0.49843 0.98943 0.0
C576 C 0.56727 0.51268 0.94709 0.0
C577 C 0.5973 0.51341 0.97979 0.0
C578 C 0.61468 0.55243 0.91716 0.0
C579 C 0.54289 0.51623 0.89188 0.0
N580 N 0.6013 0.52043 0.95921 0.0
N581 N 0.5393 0.50581 0.91209 0.0
H582 H 1.00014 0.55676 0.2137 0.0
H583 H 0.94604 0.45463 0.32589 0.0
H584 H 0.97782 0.42942 0.22798 0.0
H585 H 0.95494 0.57623 0.31044 0.0
H586 H 0.95058 0.44172 0.28958 0.0
H587 H 0.97768 0.56199 0.24842 0.0
C588 C 0.99009 0.52974 0.22412 0.0
C589 C 0.99103 0.49271 0.21809 0.0
C590 C 0.95105 0.47102 0.2941 0.0
C591 C 0.9658 0.49857 0.25784 0.0
C592 C 0.9481 0.47828 0.31486 0.0
C593 C 0.95054 0.51682 0.32129 0.0
C594 C 0.95681 0.50263 0.27963 0.0
C595 C 0.95385 0.54649 0.30623 0.0
C596 C 0.97729 0.53272 0.24393 0.0
C597 C 0.9778 0.45865 0.23212 0.0
N598 N 0.95735 0.53899 0.28613 0.0
N599 N 0.96608 0.46254 0.25143 0.0
loop_
_geom_bond_atom_site_label_1
_geom_bond_atom_site_label_2
_geom_bond_distance
_geom_bond_site_symmetry_2
_ccdc_geom_bond_type
Dy0 O4 2.398 . S
Dy0 O5 2.491 . S
Dy0 O6 2.403 . S
Dy0 O7 2.664 . S
Dy0 O11 2.326 . S
Dy0 O15 2.310 . S
Dy0 O16 2.351 1_455 S
C1 O12 1.185 . S
C1 O13 1.355 . S
C2 O4 1.185 . S
C2 O5 1.355 . S
Dy3 O7 2.303 1_655 S
Dy3 O10 2.342 1_655 S
Dy3 O12 2.409 . S
Dy3 O13 2.501 . S
Dy3 O14 2.401 1_655 S
Dy3 O15 2.654 1_655 S
Dy3 O17 2.327 . S
O4 Dy0 2.398 . S
O4 C2 1.185 . S
O5 Dy0 2.491 . S
O5 C2 1.355 . S
O6 Dy0 2.403 . S
O6 C8 1.254 . S
O7 Dy0 2.664 . S
O7 Dy3 2.303 1_455 S
O7 C8 1.268 . S
C8 O6 1.254 . S
C8 O7 1.268 . S
C9 O14 1.254 . S
C9 O15 1.268 . S
O10 Dy3 2.342 1_455 S
O10 C18 1.249 . S
O11 Dy0 2.326 . S
O11 C18 1.267 . S
O12 C1 1.185 . S
O12 Dy3 2.409 . S
O13 C1 1.355 . S
O13 Dy3 2.501 . S
O14 Dy3 2.401 1_455 S
O14 C9 1.254 . S
O15 Dy0 2.310 . S
O15 Dy3 2.654 1_455 S
O15 C9 1.268 . S
O16 Dy0 2.351 1_655 S
O16 C19 1.249 . S
O17 Dy3 2.327 . S
O17 C19 1.267 . S
C18 O10 1.249 . S
C18 O11 1.267 . S
C19 O16 1.249 . S
C19 O17 1.267 . S
Dy20 O24 2.398 1_545 S
Dy20 O25 2.491 1_545 S
Dy20 O26 2.403 . S
Dy20 O27 2.664 . S
Dy20 O31 2.326 1_545 S
Dy20 O35 2.310 . S
Dy20 O36 2.351 . S
C21 O32 1.185 . S
C21 O33 1.355 . S
C22 O24 1.185 . S
C22 O25 1.355 . S
Dy23 O27 2.310 . S
Dy23 O30 2.351 1_545 S
Dy23 O32 2.398 . S
Dy23 O33 2.491 . S
Dy23 O34 2.403 . S
Dy23 O35 2.664 . S
Dy23 O37 2.326 . S
O24 Dy20 2.398 1_565 S
O24 C22 1.185 . S
O25 Dy20 2.491 1_565 S
O25 C22 1.355 . S
O26 Dy20 2.403 . S
O26 C28 1.254 . S
O27 Dy20 2.664 . S
O27 Dy23 2.310 . S
O27 C28 1.268 . S
C28 O26 1.254 . S
C28 O27 1.268 . S
C29 O34 1.254 . S
C29 O35 1.268 . S
O30 Dy23 2.351 1_565 S
O30 C38 1.249 . S
O31 Dy20 2.326 1_565 S
O31 C38 1.267 . S
O32 C21 1.185 . S
O32 Dy23 2.398 . S
O33 C21 1.355 . S
O33 Dy23 2.491 . S
O34 Dy23 2.403 . S
O34 C29 1.254 . S
O35 Dy20 2.310 . S
O35 Dy23 2.664 . S
O35 C29 1.268 . S
O36 Dy20 2.351 . S
O36 C39 1.249 . S
O37 Dy23 2.326 . S
O37 C39 1.267 . S
C38 O30 1.249 . S
C38 O31 1.267 . S
C39 O36 1.249 . S
C39 O37 1.267 . S
Dy40 O44 2.398 . S
Dy40 O45 2.491 . S
Dy40 O46 2.403 . S
Dy40 O47 2.664 . S
Dy40 O51 2.326 . S
Dy40 O55 2.310 . S
Dy40 O56 2.351 . S
C41 O52 1.185 . S
C41 O53 1.355 . S
C42 O44 1.185 . S
C42 O45 1.355 . S
Dy43 O47 2.310 . S
Dy43 O50 2.351 . S
Dy43 O52 2.398 . S
Dy43 O53 2.491 . S
Dy43 O54 2.403 . S
Dy43 O55 2.664 . S
Dy43 O57 2.326 . S
O44 Dy40 2.398 . S
O44 C42 1.185 . S
O45 Dy40 2.491 . S
O45 C42 1.355 . S
O46 Dy40 2.403 . S
O46 C48 1.254 . S
O47 Dy40 2.664 . S
O47 Dy43 2.310 . S
O47 C48 1.268 . S
C48 O46 1.254 . S
C48 O47 1.268 . S
C49 O54 1.254 . S
C49 O55 1.268 . S
O50 Dy43 2.351 . S
O50 C58 1.249 . S
O51 Dy40 2.326 . S
O51 C58 1.267 . S
O52 C41 1.185 . S
O52 Dy43 2.398 . S
O53 C41 1.355 . S
O53 Dy43 2.491 . S
O54 Dy43 2.403 . S
O54 C49 1.254 . S
O55 Dy40 2.310 . S
O55 Dy43 2.664 . S
O55 C49 1.268 . S
O56 Dy40 2.351 . S
O56 C59 1.249 . S
O57 Dy43 2.326 . S
O57 C59 1.267 . S
C58 O50 1.249 . S
C58 O51 1.267 . S
C59 O56 1.249 . S
C59 O57 1.267 . S
C60 C61 1.384 . S
C60 H73 0.947 . S
C60 C95 1.382 . S
C61 C60 1.384 . S
C61 C62 1.378 . S
C62 C61 1.378 . S
C62 C63 1.378 . S
C62 H74 0.952 . S
C63 C62 1.378 . S
C63 H75 0.950 . S
C63 C94 1.383 . S
H64 C83 0.947 . S
H65 C84 0.946 . S
H66 C86 0.953 . S
H67 C87 0.945 . S
H68 C89 0.952 . S
H69 C90 0.949 . S
H70 C92 0.950 . S
H71 C93 0.948 . S
H72 C95 0.951 . S
H73 C60 0.947 . S
H74 C62 0.952 . S
H75 C63 0.950 . S
N76 C79 1.382 . S
N76 C81 1.363 1_545 S
N77 C79 1.371 . S
N77 C80 1.372 . S
N78 C80 1.361 1_565 S
N78 C81 1.377 . S
C79 N76 1.382 . S
C79 N77 1.371 . S
C79 C82 1.480 . S
C80 N77 1.372 . S
C80 N78 1.361 1_545 S
C80 C88 1.457 . S
C81 N76 1.363 1_565 S
C81 N78 1.377 . S
C81 C94 1.479 . S
C82 C79 1.480 . S
C82 C83 1.383 . S
C82 C87 1.385 . S
C83 H64 0.947 . S
C83 C82 1.383 . S
C83 C84 1.388 . S
C84 H65 0.946 . S
C84 C83 1.388 . S
C84 C85 1.384 . S
C85 C84 1.384 . S
C85 C86 1.377 . S
C86 H66 0.953 . S
C86 C85 1.377 . S
C86 C87 1.369 . S
C87 H67 0.945 . S
C87 C82 1.385 . S
C87 C86 1.369 . S
C88 C80 1.457 . S
C88 C89 1.372 . S
C88 C93 1.364 1_545 S
C89 H68 0.952 . S
C89 C88 1.372 . S
C89 C90 1.389 . S
C90 H69 0.949 . S
C90 C89 1.389 . S
C90 C91 1.387 . S
C91 C90 1.387 . S
C91 C92 1.372 1_545 S
C92 H70 0.950 . S
C92 C91 1.372 1_565 S
C92 C93 1.379 . S
C93 H71 0.948 . S
C93 C88 1.364 1_565 S
C93 C92 1.379 . S
C94 C63 1.383 . S
C94 C81 1.479 . S
C94 C95 1.398 . S
C95 C60 1.382 . S
C95 H72 0.951 . S
C95 C94 1.398 . S
C96 C97 1.384 . S
C96 H109 0.947 . S
C96 C131 1.382 . S
C97 C96 1.384 . S
C97 C98 1.378 . S
C98 C97 1.378 . S
C98 C99 1.378 . S
C98 H110 0.952 . S
C99 C98 1.378 . S
C99 H111 0.950 . S
C99 C130 1.383 . S
H100 C119 0.947 . S
H101 C120 0.946 . S
H102 C122 0.953 . S
H103 C123 0.945 . S
H104 C125 0.952 . S
H105 C126 0.949 . S
H106 C128 0.950 . S
H107 C129 0.948 . S
H108 C131 0.951 . S
H109 C96 0.947 . S
H110 C98 0.952 . S
H111 C99 0.950 . S
N112 C115 1.382 . S
N112 C117 1.363 . S
N113 C115 1.371 . S
N113 C116 1.372 . S
N114 C116 1.361 . S
N114 C117 1.377 . S
C115 N112 1.382 . S
C115 N113 1.371 . S
C115 C118 1.480 . S
C116 N113 1.372 . S
C116 N114 1.361 . S
C116 C124 1.457 . S
C117 N112 1.363 . S
C117 N114 1.377 . S
C117 C130 1.479 . S
C118 C115 1.480 . S
C118 C119 1.383 . S
C118 C123 1.385 . S
C119 H100 0.947 . S
C119 C118 1.383 . S
C119 C120 1.388 . S
C120 H101 0.946 . S
C120 C119 1.388 . S
C120 C121 1.384 . S
C121 C120 1.384 . S
C121 C122 1.377 . S
C122 H102 0.953 . S
C122 C121 1.377 . S
C122 C123 1.369 . S
C123 H103 0.945 . S
C123 C118 1.385 . S
C123 C122 1.369 . S
C124 C116 1.457 . S
C124 C125 1.372 . S
C124 C129 1.364 . S
C125 H104 0.952 . S
C125 C124 1.372 . S
C125 C126 1.389 . S
C126 H105 0.949 . S
C126 C125 1.389 . S
C126 C127 1.387 . S
C127 C126 1.387 . S
C127 C128 1.372 . S
C128 H106 0.950 . S
C128 C127 1.372 . S
C128 C129 1.379 . S
C129 H107 0.948 . S
C129 C124 1.364 . S
C129 C128 1.379 . S
C130 C99 1.383 . S
C130 C117 1.479 . S
C130 C131 1.398 . S
C131 C96 1.382 . S
C131 H108 0.951 . S
C131 C130 1.398 . S
C132 C133 1.384 . S
C132 H145 0.947 . S
C132 C167 1.382 . S
C133 C132 1.384 . S
C133 C134 1.378 . S
C134 C133 1.378 . S
C134 C135 1.378 . S
C134 H146 0.952 . S
C135 C134 1.378 . S
C135 H147 0.950 1_655 S
C135 C166 1.383 . S
H136 C155 0.947 . S
H137 C156 0.946 . S
H138 C158 0.953 . S
H139 C159 0.945 . S
H140 C161 0.952 . S
H141 C162 0.949 . S
H142 C164 0.950 1_655 S
H143 C165 0.948 1_655 S
H144 C167 0.951 . S
H145 C132 0.947 . S
H146 C134 0.952 . S
H147 C135 0.950 1_455 S
N148 C151 1.382 . S
N148 C153 1.363 . S
N149 C151 1.371 . S
N149 C152 1.372 . S
N150 C152 1.361 . S
N150 C153 1.377 . S
C151 N148 1.382 . S
C151 N149 1.371 . S
C151 C154 1.480 . S
C152 N149 1.372 . S
C152 N150 1.361 . S
C152 C160 1.457 . S
C153 N148 1.363 . S
C153 N150 1.377 . S
C153 C166 1.479 1_455 S
C154 C151 1.480 . S
C154 C155 1.383 . S
C154 C159 1.385 . S
C155 H136 0.947 . S
C155 C154 1.383 . S
C155 C156 1.388 . S
C156 H137 0.946 . S
C156 C155 1.388 . S
C156 C157 1.384 . S
C157 C156 1.384 . S
C157 C158 1.377 . S
C158 H138 0.953 . S
C158 C157 1.377 . S
C158 C159 1.369 . S
C159 H139 0.945 . S
C159 C154 1.385 . S
C159 C158 1.369 . S
C160 C152 1.457 . S
C160 C161 1.372 . S
C160 C165 1.364 . S
C161 H140 0.952 . S
C161 C160 1.372 . S
C161 C162 1.389 . S
C162 H141 0.949 . S
C162 C161 1.389 . S
C162 C163 1.387 . S
C163 C162 1.387 . S
C163 C164 1.372 . S
C164 H142 0.950 1_455 S
C164 C163 1.372 . S
C164 C165 1.379 . S
C165 H143 0.948 1_455 S
C165 C160 1.364 . S
C165 C164 1.379 . S
C166 C135 1.383 . S
C166 C153 1.479 1_655 S
C166 C167 1.398 . S
C167 C132 1.382 . S
C167 H144 0.951 . S
C167 C166 1.398 . S
C168 C169 1.384 . S
C168 H181 0.947 . S
C168 C203 1.382 . S
C169 C168 1.384 . S
C169 C170 1.378 . S
C170 C169 1.378 . S
C170 C171 1.378 . S
C170 H182 0.952 . S
C171 C170 1.378 . S
C171 H183 0.950 . S
C171 C202 1.383 . S
H172 C191 0.947 . S
H173 C192 0.946 . S
H174 C194 0.953 . S
H175 C195 0.945 . S
H176 C197 0.952 . S
H177 C198 0.949 . S
H178 C200 0.950 . S
H179 C201 0.948 . S
H180 C203 0.951 . S
H181 C168 0.947 . S
H182 C170 0.952 . S
H183 C171 0.950 . S
N184 C187 1.382 1_455 S
N184 C189 1.363 . S
N185 C187 1.371 . S
N185 C188 1.372 1_655 S
N186 C188 1.361 . S
N186 C189 1.377 . S
C187 N184 1.382 1_655 S
C187 N185 1.371 . S
C187 C190 1.480 . S
C188 N185 1.372 1_455 S
C188 N186 1.361 . S
C188 C196 1.457 . S
C189 N184 1.363 . S
C189 N186 1.377 . S
C189 C202 1.479 . S
C190 C187 1.480 . S
C190 C191 1.383 . S
C190 C195 1.385 . S
C191 H172 0.947 . S
C191 C190 1.383 . S
C191 C192 1.388 . S
C192 H173 0.946 . S
C192 C191 1.388 . S
C192 C193 1.384 . S
C193 C192 1.384 . S
C193 C194 1.377 . S
C194 H174 0.953 . S
C194 C193 1.377 . S
C194 C195 1.369 . S
C195 H175 0.945 . S
C195 C190 1.385 . S
C195 C194 1.369 . S
C196 C188 1.457 . S
C196 C197 1.372 1_455 S
C196 C201 1.364 . S
C197 H176 0.952 . S
C197 C196 1.372 1_655 S
C197 C198 1.389 . S
C198 H177 0.949 . S
C198 C197 1.389 . S
C198 C199 1.387 1_655 S
C199 C198 1.387 1_455 S
C199 C200 1.372 . S
C200 H178 0.950 . S
C200 C199 1.372 . S
C200 C201 1.379 . S
C201 H179 0.948 . S
C201 C196 1.364 . S
C201 C200 1.379 . S
C202 C171 1.383 . S
C202 C189 1.479 . S
C202 C203 1.398 . S
C203 C168 1.382 . S
C203 H180 0.951 . S
C203 C202 1.398 . S
C204 C205 1.384 . S
C204 H217 0.947 . S
C204 C239 1.382 . S
C205 C204 1.384 . S
C205 C206 1.378 . S
C206 C205 1.378 . S
C206 C207 1.378 . S
C206 H218 0.952 . S
C207 C206 1.378 . S
C207 H219 0.950 . S
C207 C238 1.383 . S
H208 C227 0.947 1_545 S
H209 C228 0.946 . S
H210 C230 0.953 . S
H211 C231 0.945 . S
H212 C233 0.946 1_565 S
H213 C234 0.949 1_565 S
H214 C236 0.950 . S
H215 C237 0.948 . S
H216 C239 0.951 . S
H217 C204 0.947 . S
H218 C206 0.952 . S
H219 C207 0.950 . S
N220 C223 1.382 . S
N220 C225 1.363 . S
N221 C223 1.371 . S
N221 C224 1.372 . S
N222 C224 1.361 . S
N222 C225 1.377 . S
C223 N220 1.382 . S
C223 N221 1.371 . S
C223 C226 1.480 1_545 S
C224 N221 1.372 . S
C224 N222 1.361 . S
C224 C232 1.457 . S
C225 N220 1.363 . S
C225 N222 1.377 . S
C225 C238 1.479 . S
C226 C223 1.480 1_565 S
C226 C227 1.383 . S
C226 C231 1.385 . S
C227 H208 0.947 1_565 S
C227 C226 1.383 . S
C227 C228 1.388 . S
C228 H209 0.946 . S
C228 C227 1.388 . S
C228 C229 1.384 . S
C229 C228 1.384 . S
C229 C230 1.377 . S
C230 H210 0.953 . S
C230 C229 1.377 . S
C230 C231 1.369 . S
C231 H211 0.945 . S
C231 C226 1.385 . S
C231 C230 1.369 . S
C232 C224 1.457 . S
C232 C233 1.372 . S
C232 C237 1.364 . S
C233 H212 0.946 1_545 S
C233 C232 1.372 . S
C233 C234 1.389 . S
C234 H213 0.949 1_545 S
C234 C233 1.389 . S
C234 C235 1.387 . S
C235 C234 1.387 . S
C235 C236 1.372 . S
C236 H214 0.950 . S
C236 C235 1.372 . S
C236 C237 1.379 . S
C237 H215 0.948 . S
C237 C232 1.364 . S
C237 C236 1.379 . S
C238 C207 1.383 . S
C238 C225 1.479 . S
C238 C239 1.398 . S
C239 C204 1.382 . S
C239 H216 0.951 . S
C239 C238 1.398 . S
C240 C241 1.384 . S
C240 H253 0.947 . S
C240 C275 1.382 . S
C241 C240 1.384 . S
C241 C242 1.378 . S
C242 C241 1.378 . S
C242 C243 1.378 . S
C242 H254 0.952 . S
C243 C242 1.378 . S
C243 H255 0.950 . S
C243 C274 1.383 . S
H244 C263 0.947 . S
H245 C264 0.946 . S
H246 C266 0.953 . S
H247 C267 0.945 . S
H248 C269 0.952 . S
H249 C270 0.949 . S
H250 C272 0.950 . S
H251 C273 0.948 . S
H252 C275 0.951 . S
H253 C240 0.947 . S
H254 C242 0.952 . S
H255 C243 0.950 . S
N256 C259 1.382 . S
N256 C261 1.363 . S
N257 C259 1.371 . S
N257 C260 1.372 . S
N258 C260 1.361 . S
N258 C261 1.377 . S
C259 N256 1.382 . S
C259 N257 1.371 . S
C259 C262 1.480 . S
C260 N257 1.372 . S
C260 N258 1.361 . S
C260 C268 1.457 . S
C261 N256 1.363 . S
C261 N258 1.377 . S
C261 C274 1.479 . S
C262 C259 1.480 . S
C262 C263 1.383 . S
C262 C267 1.385 . S
C263 H244 0.947 . S
C263 C262 1.383 . S
C263 C264 1.388 . S
C264 H245 0.946 . S
C264 C263 1.388 . S
C264 C265 1.384 . S
C265 C264 1.384 . S
C265 C266 1.377 . S
C266 H246 0.953 . S
C266 C265 1.377 . S
C266 C267 1.369 . S
C267 H247 0.945 . S
C267 C262 1.385 . S
C267 C266 1.369 . S
C268 C260 1.457 . S
C268 C269 1.372 . S
C268 C273 1.364 . S
C269 H248 0.952 . S
C269 C268 1.372 . S
C269 C270 1.389 . S
C270 H249 0.949 . S
C270 C269 1.389 . S
C270 C271 1.387 . S
C271 C270 1.387 . S
C271 C272 1.372 . S
C272 H250 0.950 . S
C272 C271 1.372 . S
C272 C273 1.379 . S
C273 H251 0.948 . S
C273 C268 1.364 . S
C273 C272 1.379 . S
C274 C243 1.383 . S
C274 C261 1.479 . S
C274 C275 1.398 . S
C275 C240 1.382 . S
C275 H252 0.951 . S
C275 C274 1.398 . S
H276 C282 0.930 . S
H277 C286 0.930 . S
H278 C291 0.929 . S
H279 C289 0.929 . S
H280 C284 0.929 . S
H281 C290 0.929 . S
C282 H276 0.930 . S
C282 C283 1.367 . S
C282 C290 1.378 . S
C283 C282 1.367 . S
C283 C291 1.433 . S
C284 H280 0.929 . S
C284 C286 1.378 . S
C284 C288 1.350 . S
C285 C288 1.463 . S
C285 C290 1.350 . S
C285 N293 1.427 . S
C286 H277 0.930 . S
C286 C284 1.378 . S
C286 C287 1.367 . S
C287 C286 1.367 . S
C287 C289 1.433 . S
C288 C284 1.350 . S
C288 C285 1.463 . S
C288 N292 1.427 . S
C289 H279 0.929 . S
C289 C287 1.433 . S
C289 N292 1.384 . S
C290 H281 0.929 . S
C290 C282 1.378 . S
C290 C285 1.350 . S
C291 H278 0.929 . S
C291 C283 1.433 . S
C291 N293 1.384 . S
N292 C288 1.427 . S
N292 C289 1.384 . S
N293 C285 1.427 . S
N293 C291 1.384 . S
H294 C300 0.930 . S
H295 C304 0.930 . S
H296 C309 0.929 . S
H297 C307 0.929 . S
H298 C302 0.929 . S
H299 C308 0.929 . S
C300 H294 0.930 . S
C300 C301 1.367 . S
C300 C308 1.378 . S
C301 C300 1.367 . S
C301 C309 1.433 . S
C302 H298 0.929 . S
C302 C304 1.378 . S
C302 C306 1.350 . S
C303 C306 1.463 . S
C303 C308 1.350 . S
C303 N311 1.427 . S
C304 H295 0.930 . S
C304 C302 1.378 . S
C304 C305 1.367 . S
C305 C304 1.367 . S
C305 C307 1.433 . S
C306 C302 1.350 . S
C306 C303 1.463 . S
C306 N310 1.427 . S
C307 H297 0.929 . S
C307 C305 1.433 . S
C307 N310 1.384 . S
C308 H299 0.929 . S
C308 C300 1.378 . S
C308 C303 1.350 . S
C309 H296 0.929 . S
C309 C301 1.433 . S
C309 N311 1.384 . S
N310 C306 1.427 . S
N310 C307 1.384 . S
N311 C303 1.427 . S
N311 C309 1.384 . S
H312 C318 0.930 . S
H313 C322 0.930 . S
H314 C327 0.929 . S
H315 C325 0.929 . S
H316 C320 0.929 . S
H317 C326 0.929 . S
C318 H312 0.930 . S
C318 C319 1.367 . S
C318 C326 1.378 . S
C319 C318 1.367 . S
C319 C327 1.433 . S
C320 H316 0.929 . S
C320 C322 1.378 . S
C320 C324 1.350 . S
C321 C324 1.463 . S
C321 C326 1.350 . S
C321 N329 1.427 . S
C322 H313 0.930 . S
C322 C320 1.378 . S
C322 C323 1.367 . S
C323 C322 1.367 . S
C323 C325 1.433 . S
C324 C320 1.350 . S
C324 C321 1.463 . S
C324 N328 1.427 . S
C325 H315 0.929 . S
C325 C323 1.433 . S
C325 N328 1.384 . S
C326 H317 0.929 . S
C326 C318 1.378 . S
C326 C321 1.350 . S
C327 H314 0.929 . S
C327 C319 1.433 . S
C327 N329 1.384 . S
N328 C324 1.427 . S
N328 C325 1.384 . S
N329 C321 1.427 . S
N329 C327 1.384 . S
H330 C336 0.930 . S
H331 C340 0.930 . S
H332 C345 0.929 . S
H333 C343 0.929 . S
H334 C338 0.929 . S
H335 C344 0.929 . S
C336 H330 0.930 . S
C336 C337 1.367 . S
C336 C344 1.378 . S
C337 C336 1.367 . S
C337 C345 1.433 . S
C338 H334 0.929 . S
C338 C340 1.378 . S
C338 C342 1.350 . S
C339 C342 1.463 . S
C339 C344 1.350 . S
C339 N347 1.427 . S
C340 H331 0.930 . S
C340 C338 1.378 . S
C340 C341 1.367 . S
C341 C340 1.367 . S
C341 C343 1.433 . S
C342 C338 1.350 . S
C342 C339 1.463 . S
C342 N346 1.427 . S
C343 H333 0.929 . S
C343 C341 1.433 . S
C343 N346 1.384 . S
C344 H335 0.929 . S
C344 C336 1.378 . S
C344 C339 1.350 . S
C345 H332 0.929 . S
C345 C337 1.433 . S
C345 N347 1.384 . S
N346 C342 1.427 . S
N346 C343 1.384 . S
N347 C339 1.427 . S
N347 C345 1.384 . S
H348 C354 0.930 . S
H349 C358 0.930 . S
H350 C363 0.929 . S
H351 C361 0.929 . S
H352 C356 0.929 . S
H353 C362 0.929 . S
C354 H348 0.930 . S
C354 C355 1.367 . S
C354 C362 1.378 . S
C355 C354 1.367 . S
C355 C363 1.433 . S
C356 H352 0.929 . S
C356 C358 1.378 . S
C356 C360 1.350 . S
C357 C360 1.463 . S
C357 C362 1.350 . S
C357 N365 1.427 . S
C358 H349 0.930 . S
C358 C356 1.378 . S
C358 C359 1.367 . S
C359 C358 1.367 . S
C359 C361 1.433 . S
C360 C356 1.350 . S
C360 C357 1.463 . S
C360 N364 1.427 . S
C361 H351 0.929 . S
C361 C359 1.433 . S
C361 N364 1.384 . S
C362 H353 0.929 . S
C362 C354 1.378 . S
C362 C357 1.350 . S
C363 H350 0.929 . S
C363 C355 1.433 . S
C363 N365 1.384 . S
N364 C360 1.427 . S
N364 C361 1.384 . S
N365 C357 1.427 . S
N365 C363 1.384 . S
H366 C372 0.930 . S
H367 C376 0.930 . S
H368 C381 0.929 . S
H369 C379 0.929 . S
H370 C374 0.929 . S
H371 C380 0.929 . S
C372 H366 0.930 . S
C372 C373 1.367 . S
C372 C380 1.378 . S
C373 C372 1.367 . S
C373 C381 1.433 . S
C374 H370 0.929 . S
C374 C376 1.378 . S
C374 C378 1.350 . S
C375 C378 1.463 . S
C375 C380 1.350 . S
C375 N383 1.427 . S
C376 H367 0.930 . S
C376 C374 1.378 . S
C376 C377 1.367 . S
C377 C376 1.367 . S
C377 C379 1.433 . S
C378 C374 1.350 . S
C378 C375 1.463 . S
C378 N382 1.427 . S
C379 H369 0.929 . S
C379 C377 1.433 . S
C379 N382 1.384 . S
C380 H371 0.929 . S
C380 C372 1.378 . S
C380 C375 1.350 . S
C381 H368 0.929 . S
C381 C373 1.433 . S
C381 N383 1.384 . S
N382 C378 1.427 . S
N382 C379 1.384 . S
N383 C375 1.427 . S
N383 C381 1.384 . S
H384 C390 0.930 . S
H385 C394 0.930 . S
H386 C399 0.929 . S
H387 C397 0.929 . S
H388 C392 0.929 . S
H389 C398 0.929 . S
C390 H384 0.930 . S
C390 C391 1.367 . S
C390 C398 1.378 . S
C391 C390 1.367 . S
C391 C399 1.433 . S
C392 H388 0.929 . S
C392 C394 1.378 . S
C392 C396 1.350 . S
C393 C396 1.463 . S
C393 C398 1.350 . S
C393 N401 1.427 . S
C394 H385 0.930 . S
C394 C392 1.378 . S
C394 C395 1.367 . S
C395 C394 1.367 . S
C395 C397 1.433 . S
C396 C392 1.350 . S
C396 C393 1.463 . S
C396 N400 1.427 . S
C397 H387 0.929 . S
C397 C395 1.433 . S
C397 N400 1.384 . S
C398 H389 0.929 . S
C398 C390 1.378 . S
C398 C393 1.350 . S
C399 H386 0.929 . S
C399 C391 1.433 . S
C399 N401 1.384 . S
N400 C396 1.427 . S
N400 C397 1.384 . S
N401 C393 1.427 . S
N401 C399 1.384 . S
H402 C408 0.930 . S
H403 C412 0.930 . S
H404 C417 0.929 . S
H405 C415 0.929 . S
H406 C410 0.929 . S
H407 C416 0.929 . S
C408 H402 0.930 . S
C408 C409 1.367 . S
C408 C416 1.378 . S
C409 C408 1.367 . S
C409 C417 1.433 . S
C410 H406 0.929 . S
C410 C412 1.378 . S
C410 C414 1.350 . S
C411 C414 1.463 . S
C411 C416 1.350 . S
C411 N419 1.427 . S
C412 H403 0.930 . S
C412 C410 1.378 . S
C412 C413 1.367 . S
C413 C412 1.367 . S
C413 C415 1.433 . S
C414 C410 1.350 . S
C414 C411 1.463 . S
C414 N418 1.427 . S
C415 H405 0.929 . S
C415 C413 1.433 . S
C415 N418 1.384 . S
C416 H407 0.929 . S
C416 C408 1.378 . S
C416 C411 1.350 . S
C417 H404 0.929 . S
C417 C409 1.433 . S
C417 N419 1.384 . S
N418 C414 1.427 . S
N418 C415 1.384 . S
N419 C411 1.427 . S
N419 C417 1.384 . S
H420 C426 0.930 . S
H421 C430 0.930 . S
H422 C435 0.929 . S
H423 C433 0.929 . S
H424 C428 0.929 . S
H425 C434 0.929 . S
C426 H420 0.930 . S
C426 C427 1.367 . S
C426 C434 1.378 . S
C427 C426 1.367 . S
C427 C435 1.433 . S
C428 H424 0.929 . S
C428 C430 1.378 . S
C428 C432 1.350 . S
C429 C432 1.463 . S
C429 C434 1.350 . S
C429 N437 1.427 . S
C430 H421 0.930 . S
C430 C428 1.378 . S
C430 C431 1.367 . S
C431 C430 1.367 . S
C431 C433 1.433 . S
C432 C428 1.350 . S
C432 C429 1.463 . S
C432 N436 1.427 . S
C433 H423 0.929 . S
C433 C431 1.433 . S
C433 N436 1.384 . S
C434 H425 0.929 . S
C434 C426 1.378 . S
C434 C429 1.350 . S
C435 H422 0.929 . S
C435 C427 1.433 . S
C435 N437 1.384 . S
N436 C432 1.427 . S
N436 C433 1.384 . S
N437 C429 1.427 . S
N437 C435 1.384 . S
H438 C444 0.930 . S
H439 C448 0.930 . S
H440 C453 0.929 . S
H441 C451 0.929 . S
H442 C446 0.929 . S
H443 C452 0.929 . S
C444 H438 0.930 . S
C444 C445 1.367 . S
C444 C452 1.378 . S
C445 C444 1.367 . S
C445 C453 1.433 . S
C446 H442 0.929 . S
C446 C448 1.378 . S
C446 C450 1.350 . S
C447 C450 1.463 . S
C447 C452 1.350 . S
C447 N455 1.427 . S
C448 H439 0.930 . S
C448 C446 1.378 . S
C448 C449 1.367 . S
C449 C448 1.367 . S
C449 C451 1.433 . S
C450 C446 1.350 . S
C450 C447 1.463 . S
C450 N454 1.427 . S
C451 H441 0.929 . S
C451 C449 1.433 . S
C451 N454 1.384 . S
C452 H443 0.929 . S
C452 C444 1.378 . S
C452 C447 1.350 . S
C453 H440 0.929 . S
C453 C445 1.433 . S
C453 N455 1.384 . S
N454 C450 1.427 . S
N454 C451 1.384 . S
N455 C447 1.427 . S
N455 C453 1.384 . S
H456 C462 0.930 . S
H457 C466 0.930 . S
H458 C471 0.929 . S
H459 C469 0.929 . S
H460 C464 0.929 . S
H461 C470 0.929 . S
C462 H456 0.930 . S
C462 C463 1.367 . S
C462 C470 1.378 . S
C463 C462 1.367 . S
C463 C471 1.433 . S
C464 H460 0.929 . S
C464 C466 1.378 . S
C464 C468 1.350 . S
C465 C468 1.463 . S
C465 C470 1.350 . S
C465 N473 1.427 . S
C466 H457 0.930 . S
C466 C464 1.378 . S
C466 C467 1.367 . S
C467 C466 1.367 . S
C467 C469 1.433 . S
C468 C464 1.350 . S
C468 C465 1.463 . S
C468 N472 1.427 . S
C469 H459 0.929 . S
C469 C467 1.433 . S
C469 N472 1.384 . S
C470 H461 0.929 . S
C470 C462 1.378 . S
C470 C465 1.350 . S
C471 H458 0.929 . S
C471 C463 1.433 . S
C471 N473 1.384 . S
N472 C468 1.427 . S
N472 C469 1.384 . S
N473 C465 1.427 . S
N473 C471 1.384 . S
H474 C480 0.930 . S
H475 C484 0.930 . S
H476 C489 0.929 . S
H477 C487 0.929 . S
H478 C482 0.929 . S
H479 C488 0.929 . S
C480 H474 0.930 . S
C480 C481 1.367 . S
C480 C488 1.378 . S
C481 C480 1.367 . S
C481 C489 1.433 . S
C482 H478 0.929 . S
C482 C484 1.378 . S
C482 C486 1.350 . S
C483 C486 1.463 . S
C483 C488 1.350 . S
C483 N491 1.427 . S
C484 H475 0.930 . S
C484 C482 1.378 . S
C484 C485 1.367 . S
C485 C484 1.367 . S
C485 C487 1.433 . S
C486 C482 1.350 . S
C486 C483 1.463 . S
C486 N490 1.427 . S
C487 H477 0.929 . S
C487 C485 1.433 . S
C487 N490 1.384 . S
C488 H479 0.929 . S
C488 C480 1.378 . S
C488 C483 1.350 . S
C489 H476 0.929 . S
C489 C481 1.433 . S
C489 N491 1.384 . S
N490 C486 1.427 . S
N490 C487 1.384 . S
N491 C483 1.427 . S
N491 C489 1.384 . S
H492 C498 0.930 1_655 S
H493 C502 0.930 . S
H494 C507 0.929 . S
H495 C505 0.929 1_655 S
H496 C500 0.929 . S
H497 C506 0.929 1_655 S
C498 H492 0.930 1_455 S
C498 C499 1.367 . S
C498 C506 1.378 . S
C499 C498 1.367 . S
C499 C507 1.433 . S
C500 H496 0.929 . S
C500 C502 1.378 . S
C500 C504 1.350 . S
C501 C504 1.463 . S
C501 C506 1.350 . S
C501 N509 1.427 . S
C502 H493 0.930 . S
C502 C500 1.378 . S
C502 C503 1.366 1_554 S
C503 C502 1.366 1_556 S
C503 C505 1.433 1_556 S
C504 C500 1.350 . S
C504 C501 1.463 . S
C504 N508 1.427 . S
C505 H495 0.929 1_455 S
C505 C503 1.433 1_554 S
C505 N508 1.384 . S
C506 H497 0.929 1_455 S
C506 C498 1.378 . S
C506 C501 1.350 . S
C507 H494 0.929 . S
C507 C499 1.433 . S
C507 N509 1.384 . S
N508 C504 1.427 . S
N508 C505 1.384 . S
N509 C501 1.427 . S
N509 C507 1.384 . S
H510 C516 0.930 . S
H511 C520 0.930 . S
H512 C525 0.929 . S
H513 C523 0.929 . S
H514 C518 0.929 . S
H515 C524 0.929 . S
C516 H510 0.930 . S
C516 C517 1.367 1_565 S
C516 C524 1.378 . S
C517 C516 1.367 1_545 S
C517 C525 1.433 . S
C518 H514 0.929 . S
C518 C520 1.378 . S
C518 C522 1.350 . S
C519 C522 1.463 . S
C519 C524 1.350 1_545 S
C519 N527 1.427 . S
C520 H511 0.930 . S
C520 C518 1.378 . S
C520 C521 1.367 . S
C521 C520 1.367 . S
C521 C523 1.433 1_545 S
C522 C518 1.350 . S
C522 C519 1.463 . S
C522 N526 1.427 1_545 S
C523 H513 0.929 . S
C523 C521 1.433 1_565 S
C523 N526 1.384 . S
C524 H515 0.929 . S
C524 C516 1.378 . S
C524 C519 1.350 1_565 S
C525 H512 0.929 . S
C525 C517 1.433 . S
C525 N527 1.384 . S
N526 C522 1.427 1_565 S
N526 C523 1.384 . S
N527 C519 1.427 . S
N527 C525 1.384 . S
H528 C534 0.930 . S
H529 C538 0.930 . S
H530 C543 0.929 . S
H531 C541 0.929 . S
H532 C536 0.929 . S
H533 C542 0.929 . S
C534 H528 0.930 . S
C534 C535 1.367 . S
C534 C542 1.378 . S
C535 C534 1.367 . S
C535 C543 1.433 . S
C536 H532 0.929 . S
C536 C538 1.378 . S
C536 C540 1.350 . S
C537 C540 1.463 . S
C537 C542 1.350 . S
C537 N545 1.427 . S
C538 H529 0.930 . S
C538 C536 1.378 . S
C538 C539 1.367 . S
C539 C538 1.367 . S
C539 C541 1.433 . S
C540 C536 1.350 . S
C540 C537 1.463 . S
C540 N544 1.427 . S
C541 H531 0.929 . S
C541 C539 1.433 . S
C541 N544 1.384 . S
C542 H533 0.929 . S
C542 C534 1.378 . S
C542 C537 1.350 . S
C543 H530 0.929 . S
C543 C535 1.433 . S
C543 N545 1.384 . S
N544 C540 1.427 . S
N544 C541 1.384 . S
N545 C537 1.427 . S
N545 C543 1.384 . S
H546 C552 0.930 1_565 S
H547 C556 0.930 . S
H548 C561 0.929 . S
H549 C559 0.929 1_565 S
H550 C554 0.929 . S
H551 C560 0.929 1_565 S
C552 H546 0.930 1_545 S
C552 C553 1.367 . S
C552 C560 1.378 . S
C553 C552 1.367 . S
C553 C561 1.433 . S
C554 H550 0.929 . S
C554 C556 1.378 . S
C554 C558 1.350 . S
C555 C558 1.463 . S
C555 C560 1.350 . S
C555 N563 1.427 . S
C556 H547 0.930 . S
C556 C554 1.378 . S
C556 C557 1.367 . S
C557 C556 1.367 . S
C557 C559 1.433 . S
C558 C554 1.350 . S
C558 C555 1.463 . S
C558 N562 1.427 . S
C559 H549 0.929 1_545 S
C559 C557 1.433 . S
C559 N562 1.384 . S
C560 H551 0.929 1_545 S
C560 C552 1.378 . S
C560 C555 1.350 . S
C561 H548 0.929 . S
C561 C553 1.433 . S
C561 N563 1.384 . S
N562 C558 1.427 . S
N562 C559 1.384 . S
N563 C555 1.427 . S
N563 C561 1.384 . S
H564 C570 0.930 . S
H565 C574 0.927 . S
H566 C579 0.929 . S
H567 C577 0.929 . S
H568 C572 0.929 . S
H569 C578 0.929 . S
C570 H564 0.930 . S
C570 C571 1.367 . S
C570 C578 1.378 . S
C571 C570 1.367 . S
C571 C579 1.433 . S
C572 H568 0.929 . S
C572 C574 1.378 . S
C572 C576 1.350 . S
C573 C576 1.463 . S
C573 C578 1.350 . S
C573 N581 1.427 . S
C574 H565 0.927 . S
C574 C572 1.378 . S
C574 C575 1.367 1_556 S
C575 C574 1.367 1_554 S
C575 C577 1.433 1_554 S
C576 C572 1.350 . S
C576 C573 1.463 . S
C576 N580 1.427 . S
C577 H567 0.929 . S
C577 C575 1.433 1_556 S
C577 N580 1.384 . S
C578 H569 0.929 . S
C578 C570 1.378 . S
C578 C573 1.350 . S
C579 H566 0.929 . S
C579 C571 1.433 . S
C579 N581 1.384 . S
N580 C576 1.427 . S
N580 C577 1.384 . S
N581 C573 1.427 . S
N581 C579 1.384 . S
H582 C588 0.930 . S
H583 C592 0.930 . S
H584 C597 0.929 . S
H585 C595 0.929 . S
H586 C590 0.929 . S
H587 C596 0.929 . S
C588 H582 0.930 . S
C588 C589 1.367 . S
C588 C596 1.378 . S
C589 C588 1.367 . S
C589 C597 1.433 . S
C590 H586 0.929 . S
C590 C592 1.378 . S
C590 C594 1.350 . S
C591 C594 1.463 . S
C591 C596 1.350 . S
C591 N599 1.427 . S
C592 H583 0.930 . S
C592 C590 1.378 . S
C592 C593 1.367 . S
C593 C592 1.367 . S
C593 C595 1.433 . S
C594 C590 1.350 . S
C594 C591 1.463 . S
C594 N598 1.427 . S
C595 H585 0.929 . S
C595 C593 1.433 . S
C595 N598 1.384 . S
C596 H587 0.929 . S
C596 C588 1.378 . S
C596 C591 1.350 . S
C597 H584 0.929 . S
C597 C589 1.433 . S
C597 N599 1.384 . S
N598 C594 1.427 . S
N598 C595 1.384 . S
N599 C591 1.427 . S
N599 C597 1.384 . S
C283 C2 1.089 . S
C287 C265 1.081 . S
C301 C21 1.035 . S
C305 C193 1.009 . S
C319 C42 1.096 . S
C323 C229 1.080 . S
C337 C1 1.036 . S
C341 C241 1.025 . S
C359 C169 1.091 . S
C355 C22 1.091 . S
C377 C205 1.035 . S
C373 C41 1.030 . S
C391 C38 1.906 . S
C395 C121 1.856 . S
C409 C59 1.968 . S
C413 C133 1.932 . S
C427 C18 1.906 . S
C431 C61 1.876 . S
C449 C97 1.933 . S
C445 C39 1.968 . S
C467 C157 1.856 . S
C463 C58 1.905 . S
C481 C19 1.973 . S
C485 C85 1.909 . S
C503 C163 1.569 . S
C499 C9 1.504 . S
C517 C29 1.513 . S
C521 C91 1.569 . S
C535 C49 1.502 . S
C539 C127 1.564 . S
C557 C235 1.385 . S
C553 C28 1.360 . S
C575 C271 1.388 . S
C571 C48 1.363 . S
C589 C8 1.363 . S
C593 C199 1.381 . S
