# Generated by pormake.
# Topology ptr, (4,4)-cn, num edge types: 1
# Building blocks:
#     Node 0, Type 0, BuildingBlock: GALJAG_clean_sbu_0, # of connection points: 4
#     Node 1, Type 0, BuildingBlock: GALJAG_clean_sbu_0, # of connection points: 4
#     Node 2, Type 0, BuildingBlock: GALJAG_clean_sbu_0, # of connection points: 4
#     Node 3, Type 0, BuildingBlock: GALJAG_clean_sbu_0, # of connection points: 4
#     Node 4, Type 0, BuildingBlock: GALJAG_clean_sbu_0, # of connection points: 4
#     Node 5, Type 0, BuildingBlock: GALJAG_clean_sbu_0, # of connection points: 4
#     Node 6, Type 0, BuildingBlock: GALJAG_clean_sbu_0, # of connection points: 4
#     Node 7, Type 0, BuildingBlock: GALJAG_clean_sbu_0, # of connection points: 4
#     Node 8, Type 0, BuildingBlock: GALJAG_clean_sbu_0, # of connection points: 4
#     Node 9, Type 0, BuildingBlock: GALJAG_clean_sbu_0, # of connection points: 4
#     Node 10, Type 0, BuildingBlock: GALJAG_clean_sbu_0, # of connection points: 4
#     Node 11, Type 0, BuildingBlock: GALJAG_clean_sbu_0, # of connection points: 4
#     Node 12, Type 0, BuildingBlock: GALJAG_clean_sbu_0, # of connection points: 4
#     Node 13, Type 0, BuildingBlock: GALJAG_clean_sbu_0, # of connection points: 4
#     Node 14, Type 0, BuildingBlock: GALJAG_clean_sbu_0, # of connection points: 4
#     Node 15, Type 0, BuildingBlock: GALJAG_clean_sbu_0, # of connection points: 4
#     Node 16, Type 0, BuildingBlock: GALJAG_clean_sbu_0, # of connection points: 4
#     Node 17, Type 0, BuildingBlock: GALJAG_clean_sbu_0, # of connection points: 4
#     Node 18, Type 1, BuildingBlock: KUFVIS_clean_linker_0, # of connection points: 4
#     Node 19, Type 1, BuildingBlock: KUFVIS_clean_linker_0, # of connection points: 4
#     Node 20, Type 1, BuildingBlock: KUFVIS_clean_linker_0, # of connection points: 4
#     Node 21, Type 1, BuildingBlock: KUFVIS_clean_linker_0, # of connection points: 4
#     Node 22, Type 1, BuildingBlock: KUFVIS_clean_linker_0, # of connection points: 4
#     Node 23, Type 1, BuildingBlock: KUFVIS_clean_linker_0, # of connection points: 4
#     Node 24, Type 1, BuildingBlock: KUFVIS_clean_linker_0, # of connection points: 4
#     Node 25, Type 1, BuildingBlock: KUFVIS_clean_linker_0, # of connection points: 4
#     Node 26, Type 1, BuildingBlock: KUFVIS_clean_linker_0, # of connection points: 4
#     Node 27, Type 1, BuildingBlock: KUFVIS_clean_linker_0, # of connection points: 4
#     Node 28, Type 1, BuildingBlock: KUFVIS_clean_linker_0, # of connection points: 4
#     Node 29, Type 1, BuildingBlock: KUFVIS_clean_linker_0, # of connection points: 4
#     Node 30, Type 1, BuildingBlock: KUFVIS_clean_linker_0, # of connection points: 4
#     Node 31, Type 1, BuildingBlock: KUFVIS_clean_linker_0, # of connection points: 4
#     Node 32, Type 1, BuildingBlock: KUFVIS_clean_linker_0, # of connection points: 4
#     Node 33, Type 1, BuildingBlock: KUFVIS_clean_linker_0, # of connection points: 4
#     Node 34, Type 1, BuildingBlock: KUFVIS_clean_linker_0, # of connection points: 4
#     Node 35, Type 1, BuildingBlock: KUFVIS_clean_linker_0, # of connection points: 4
#     Edge 36, Type (0, 1), BuildingBlock: OJICUG_clean_linker_0, # of connection points: 2
#     Edge 37, Type (0, 1), BuildingBlock: OJICUG_clean_linker_0, # of connection points: 2
#     Edge 38, Type (0, 1), BuildingBlock: OJICUG_clean_linker_0, # of connection points: 2
#     Edge 39, Type (0, 1), BuildingBlock: OJICUG_clean_linker_0, # of connection points: 2
#     Edge 40, Type (0, 1), BuildingBlock: OJICUG_clean_linker_0, # of connection points: 2
#     Edge 41, Type (0, 1), BuildingBlock: OJICUG_clean_linker_0, # of connection points: 2
#     Edge 42, Type (0, 1), BuildingBlock: OJICUG_clean_linker_0, # of connection points: 2
#     Edge 43, Type (0, 1), BuildingBlock: OJICUG_clean_linker_0, # of connection points: 2
#     Edge 44, Type (0, 1), BuildingBlock: OJICUG_clean_linker_0, # of connection points: 2
#     Edge 45, Type (0, 1), BuildingBlock: OJICUG_clean_linker_0, # of connection points: 2
#     Edge 46, Type (0, 1), BuildingBlock: OJICUG_clean_linker_0, # of connection points: 2
#     Edge 47, Type (0, 1), BuildingBlock: OJICUG_clean_linker_0, # of connection points: 2
#     Edge 48, Type (0, 1), BuildingBlock: OJICUG_clean_linker_0, # of connection points: 2
#     Edge 49, Type (0, 1), BuildingBlock: OJICUG_clean_linker_0, # of connection points: 2
#     Edge 50, Type (0, 1), BuildingBlock: OJICUG_clean_linker_0, # of connection points: 2
#     Edge 51, Type (0, 1), BuildingBlock: OJICUG_clean_linker_0, # of connection points: 2
#     Edge 52, Type (0, 1), BuildingBlock: OJICUG_clean_linker_0, # of connection points: 2
#     Edge 53, Type (0, 1), BuildingBlock: OJICUG_clean_linker_0, # of connection points: 2
#     Edge 54, Type (0, 1), BuildingBlock: OJICUG_clean_linker_0, # of connection points: 2
#     Edge 55, Type (0, 1), BuildingBlock: OJICUG_clean_linker_0, # of connection points: 2
#     Edge 56, Type (0, 1), BuildingBlock: OJICUG_clean_linker_0, # of connection points: 2
#     Edge 57, Type (0, 1), BuildingBlock: OJICUG_clean_linker_0, # of connection points: 2
#     Edge 58, Type (0, 1), BuildingBlock: OJICUG_clean_linker_0, # of connection points: 2
#     Edge 59, Type (0, 1), BuildingBlock: OJICUG_clean_linker_0, # of connection points: 2
#     Edge 60, Type (0, 1), BuildingBlock: OJICUG_clean_linker_0, # of connection points: 2
#     Edge 61, Type (0, 1), BuildingBlock: OJICUG_clean_linker_0, # of connection points: 2
#     Edge 62, Type (0, 1), BuildingBlock: OJICUG_clean_linker_0, # of connection points: 2
#     Edge 63, Type (0, 1), BuildingBlock: OJICUG_clean_linker_0, # of connection points: 2
#     Edge 64, Type (0, 1), BuildingBlock: OJICUG_clean_linker_0, # of connection points: 2
#     Edge 65, Type (0, 1), BuildingBlock: OJICUG_clean_linker_0, # of connection points: 2
#     Edge 66, Type (0, 1), BuildingBlock: OJICUG_clean_linker_0, # of connection points: 2
#     Edge 67, Type (0, 1), BuildingBlock: OJICUG_clean_linker_0, # of connection points: 2
#     Edge 68, Type (0, 1), BuildingBlock: OJICUG_clean_linker_0, # of connection points: 2
#     Edge 69, Type (0, 1), BuildingBlock: OJICUG_clean_linker_0, # of connection points: 2
#     Edge 70, Type (0, 1), BuildingBlock: OJICUG_clean_linker_0, # of connection points: 2
#     Edge 71, Type (0, 1), BuildingBlock: OJICUG_clean_linker_0, # of connection points: 2
#     Edge 72, Type (0, 1), BuildingBlock: OJICUG_clean_linker_0, # of connection points: 2
#     Edge 73, Type (0, 1), BuildingBlock: OJICUG_clean_linker_0, # of connection points: 2
#     Edge 74, Type (0, 1), BuildingBlock: OJICUG_clean_linker_0, # of connection points: 2
#     Edge 75, Type (0, 1), BuildingBlock: OJICUG_clean_linker_0, # of connection points: 2
#     Edge 76, Type (0, 1), BuildingBlock: OJICUG_clean_linker_0, # of connection points: 2
#     Edge 77, Type (0, 1), BuildingBlock: OJICUG_clean_linker_0, # of connection points: 2
#     Edge 78, Type (0, 1), BuildingBlock: OJICUG_clean_linker_0, # of connection points: 2
#     Edge 79, Type (0, 1), BuildingBlock: OJICUG_clean_linker_0, # of connection points: 2
#     Edge 80, Type (0, 1), BuildingBlock: OJICUG_clean_linker_0, # of connection points: 2
#     Edge 81, Type (0, 1), BuildingBlock: OJICUG_clean_linker_0, # of connection points: 2
#     Edge 82, Type (0, 1), BuildingBlock: OJICUG_clean_linker_0, # of connection points: 2
#     Edge 83, Type (0, 1), BuildingBlock: OJICUG_clean_linker_0, # of connection points: 2
#     Edge 84, Type (0, 1), BuildingBlock: OJICUG_clean_linker_0, # of connection points: 2
#     Edge 85, Type (0, 1), BuildingBlock: OJICUG_clean_linker_0, # of connection points: 2
#     Edge 86, Type (0, 1), BuildingBlock: OJICUG_clean_linker_0, # of connection points: 2
#     Edge 87, Type (0, 1), BuildingBlock: OJICUG_clean_linker_0, # of connection points: 2
#     Edge 88, Type (0, 1), BuildingBlock: OJICUG_clean_linker_0, # of connection points: 2
#     Edge 89, Type (0, 1), BuildingBlock: OJICUG_clean_linker_0, # of connection points: 2
#     Edge 90, Type (0, 1), BuildingBlock: OJICUG_clean_linker_0, # of connection points: 2
#     Edge 91, Type (0, 1), BuildingBlock: OJICUG_clean_linker_0, # of connection points: 2
#     Edge 92, Type (0, 1), BuildingBlock: OJICUG_clean_linker_0, # of connection points: 2
#     Edge 93, Type (0, 1), BuildingBlock: OJICUG_clean_linker_0, # of connection points: 2
#     Edge 94, Type (0, 1), BuildingBlock: OJICUG_clean_linker_0, # of connection points: 2
#     Edge 95, Type (0, 1), BuildingBlock: OJICUG_clean_linker_0, # of connection points: 2
#     Edge 96, Type (0, 1), BuildingBlock: OJICUG_clean_linker_0, # of connection points: 2
#     Edge 97, Type (0, 1), BuildingBlock: OJICUG_clean_linker_0, # of connection points: 2
#     Edge 98, Type (0, 1), BuildingBlock: OJICUG_clean_linker_0, # of connection points: 2
#     Edge 99, Type (0, 1), BuildingBlock: OJICUG_clean_linker_0, # of connection points: 2
#     Edge 100, Type (0, 1), BuildingBlock: OJICUG_clean_linker_0, # of connection points: 2
#     Edge 101, Type (0, 1), BuildingBlock: OJICUG_clean_linker_0, # of connection points: 2
#     Edge 102, Type (0, 1), BuildingBlock: OJICUG_clean_linker_0, # of connection points: 2
#     Edge 103, Type (0, 1), BuildingBlock: OJICUG_clean_linker_0, # of connection points: 2
#     Edge 104, Type (0, 1), BuildingBlock: OJICUG_clean_linker_0, # of connection points: 2
#     Edge 105, Type (0, 1), BuildingBlock: OJICUG_clean_linker_0, # of connection points: 2
#     Edge 106, Type (0, 1), BuildingBlock: OJICUG_clean_linker_0, # of connection points: 2
#     Edge 107, Type (0, 1), BuildingBlock: OJICUG_clean_linker_0, # of connection points: 2
# Relax obj value: 0.068
# Max RMSD: 0.101
# Mean RMSD: 0.096
data_MOF--net-ptr--node1-GALJAG_clean_sbu_0--node2-KUFVIS_clean_linker_0--edge1-OJICUG_clean_linker_0
_symmetry_space_group_name_H-M    P1
_symmetry_Int_Tables_number       1
_symmetry_cell_setting            triclinic
loop_
_symmetry_equiv_pos_as_xyz
'x, y, z'
_cell_length_a     55.903044
_cell_length_b     56.003618
_cell_length_c     38.781125
_cell_angle_alpha  90.255253
_cell_angle_beta   90.242645
_cell_angle_gamma 120.09317
loop_
_atom_site_label
_atom_site_type_symbol
_atom_site_fract_x
_atom_site_fract_y
_atom_site_fract_z
_atom_type_partial_charge
In0 In 0.03955 0.39366 -0.00318 0.0
O1 O 1.01962 0.40951 0.03564 0.0
O2 O 0.06119 0.41993 0.04425 0.0
C3 C 0.99031 0.34853 0.97982 0.0
C4 C 0.07604 0.37607 0.00826 0.0
C5 C 0.05255 0.42876 0.94351 0.0
O6 O 1.00155 0.35125 0.00896 0.0
O7 O 1.00365 0.36849 0.95977 0.0
O8 O 0.0581 0.40947 0.94354 0.0
O9 O 0.04085 0.4304 0.97042 0.0
C10 C 0.04103 0.42222 0.05417 0.0
O11 O 0.08333 0.39974 -0.00346 0.0
O12 O 0.05037 0.3611 0.01277 0.0
In13 In 0.67247 0.66008 0.00532 0.0
O14 O 0.67058 0.64315 0.05974 0.0
O15 O 0.63329 0.63689 0.03698 0.0
C16 C 0.7229 0.66908 0.98726 0.0
C17 C 0.68128 0.7114 0.0186 0.0
C18 C 0.64319 0.62921 0.95029 0.0
O19 O 0.70717 0.64931 0.00657 0.0
O20 O 0.71301 0.68371 0.97704 0.0
O21 O 0.64933 0.65404 0.95438 0.0
O22 O 0.65206 0.62008 0.97372 0.0
C23 C 0.64481 0.63305 0.06262 0.0
O24 O 0.66025 0.69367 0.00208 0.0
O25 O 0.6972 0.703 0.02883 0.0
In26 In 0.39531 0.02073 0.00109 0.0
O27 O 0.38036 0.05199 0.00727 0.0
O28 O 0.41488 0.06293 0.97516 0.0
C29 C 0.42128 0.02064 0.06036 0.0
C30 C 0.42076 1.01484 0.94551 0.0
C31 C 0.34199 0.97903 0.00665 0.0
O32 O 0.4169 0.03997 0.0528 0.0
O33 O 0.41199 1.00128 0.03867 0.0
O34 O 0.36173 0.97479 0.00088 0.0
O35 O 0.34905 1.00418 0.00862 0.0
C36 C 0.39831 0.06974 0.98756 0.0
O37 O 0.39517 1.00672 0.9454 0.0
O38 O 0.4332 0.02598 0.97332 0.0
In39 In 0.02918 0.65354 -0.00063 0.0
O40 O 0.04328 0.62771 0.96869 0.0
O41 O 1.0235 0.64579 0.94145 0.0
C42 C 0.07804 0.70162 0.0065 0.0
C43 C 0.98251 0.65639 -0.00826 0.0
C44 C 1.02075 0.62636 0.05947 0.0
O45 O 0.07577 0.67827 0.01098 0.0
O46 O 0.05598 0.70064 -0.00307 0.0
O47 O 0.0303 0.65203 0.05789 0.0
O48 O 1.01432 0.61406 0.03075 0.0
C49 C 0.03384 0.63035 0.94033 0.0
O50 O 0.98238 0.6338 -0.00805 0.0
O51 O 1.00597 0.67736 -0.00303 0.0
In52 In 0.39213 0.38708 0.00305 0.0
O53 O 0.39459 0.40316 0.9481 0.0
O54 O 0.43165 0.40993 0.97218 0.0
C55 C 0.3424 0.38076 0.01931 0.0
C56 C 0.38285 0.33549 -0.0097 0.0
C57 C 0.42144 0.41726 0.05839 0.0
O58 O 0.36001 0.40133 0.00255 0.0
O59 O 0.35002 0.36391 0.02791 0.0
O60 O 0.41363 0.39194 0.05503 0.0
O61 O 0.41409 0.42714 0.03419 0.0
C62 C 0.42043 0.41338 0.94596 0.0
O63 O 0.4037 0.35306 0.00725 0.0
O64 O 0.36722 0.34412 0.9796 0.0
In65 In 0.67112 0.02636 0.0038 0.0
O66 O 0.66998 0.04248 0.05792 0.0
O67 O 0.63184 1.01497 0.03346 0.0
C68 C 0.72228 0.06835 -0.01079 0.0
C69 C 0.67586 0.98191 0.02047 0.0
C70 C 0.64409 0.02602 0.94557 0.0
O71 O 0.7051 0.07208 0.00602 0.0
O72 O 0.71348 0.04376 0.97959 0.0
O73 O 0.65159 1.00853 0.95105 0.0
O74 O 0.65071 0.04389 0.96905 0.0
C75 C 0.64393 0.02958 0.05957 0.0
O76 O 0.65381 0.97944 0.0081 0.0
O77 O 0.69503 1.00649 0.02467 0.0
In78 In 0.69902 0.72344 0.33858 0.0
O79 O 0.70463 0.73052 0.39678 0.0
O80 O 0.68547 0.74937 0.36992 0.0
C81 C 0.6514 0.67426 0.3313 0.0
C82 C 0.74687 0.7223 0.34504 0.0
C83 C 0.70304 0.74993 0.27888 0.0
O84 O 0.65173 0.69693 0.33318 0.0
O85 O 0.6748 0.67637 0.33496 0.0
O86 O 0.71214 0.76254 0.30711 0.0
O87 O 0.69356 0.72429 0.28037 0.0
C88 C 0.6948 0.7464 0.39817 0.0
O89 O 0.74643 0.74455 0.34277 0.0
O90 O 0.72343 0.70086 0.34247 0.0
In91 In 0.33393 0.98907 0.32935 0.0
O92 O 0.33545 0.97605 0.38492 0.0
O93 O 0.29676 0.95694 0.35849 0.0
C94 C 0.38734 1.00141 0.32314 0.0
C95 C 0.33088 0.0349 0.34433 0.0
C96 C 0.30744 0.96246 0.27024 0.0
O97 O 0.36791 0.97731 0.32911 0.0
O98 O 0.37987 0.01916 0.32101 0.0
O99 O 0.31666 0.95245 0.29192 0.0
O100 O 0.31209 0.98633 0.27776 0.0
C101 C 0.30985 0.95875 0.38585 0.0
O102 O 0.34894 0.03534 0.32451 0.0
O103 O 0.31403 1.01132 0.35577 0.0
In104 In 0.06035 0.35821 0.34059 0.0
O105 O 0.07117 0.40368 0.34102 0.0
O106 O 0.03567 0.3745 0.31289 0.0
C107 C 0.09015 0.35865 0.39619 0.0
C108 C 0.08824 0.35785 0.28401 0.0
C109 C 1.00987 0.31634 0.35781 0.0
O110 O 0.08201 0.37585 0.39254 0.0
O111 O 0.08307 0.34122 0.37206 0.0
O112 O 1.02614 0.31268 0.33895 0.0
O113 O 1.01927 0.34084 0.36824 0.0
C114 C 0.05084 0.3993 0.3222 0.0
O115 O 0.06327 0.33995 0.28906 0.0
O116 O 0.09908 0.37594 0.3074 0.0
In117 In 0.69769 0.98947 0.34061 0.0
O118 O 0.71699 0.99031 0.28808 0.0
O119 O 0.6855 0.95182 0.30684 0.0
C120 C 0.74124 0.03912 0.35903 0.0
C121 C 0.6541 0.99517 0.32214 0.0
C122 C 0.69218 0.95983 0.39781 0.0
O123 O 0.74438 0.01936 0.34913 0.0
O124 O 0.71647 0.03361 0.35999 0.0
O125 O 0.67981 0.97332 0.39427 0.0
O126 O 0.70755 0.96187 0.37305 0.0
C127 C 0.70248 0.96459 0.28325 0.0
O128 O 0.65093 0.97321 0.33531 0.0
O129 O 0.67892 1.01372 0.31802 0.0
In130 In 0.06188 0.7238 0.32863 0.0
O131 O 0.06172 0.73744 0.27276 0.0
O132 O 0.10038 0.75068 0.29722 0.0
C133 C 1.01108 0.71469 0.34541 0.0
C134 C 0.05663 0.67368 0.31683 0.0
C135 C 0.08969 0.75272 0.38542 0.0
O136 O 1.02771 0.73543 0.32802 0.0
O137 O 1.02021 0.69907 0.35414 0.0
O138 O 0.08306 0.72786 0.38051 0.0
O139 O 0.08208 0.76292 0.36187 0.0
C140 C 0.08773 0.75108 0.27052 0.0
O141 O 0.07898 0.69392 0.32766 0.0
O142 O 0.03755 0.67899 0.31129 0.0
In143 In 0.33745 0.35566 0.33616 0.0
O144 O 0.32558 0.30991 0.33448 0.0
O145 O 0.36292 0.33856 0.35985 0.0
C146 C 0.30675 0.35386 0.28108 0.0
C147 C 0.31028 0.35615 0.39347 0.0
C148 C 0.38731 0.39884 0.31922 0.0
O149 O 0.3167 0.3381 0.28385 0.0
O150 O 0.31285 0.37084 0.30556 0.0
O151 O 0.37011 0.40192 0.33687 0.0
O152 O 0.37905 0.37437 0.30964 0.0
C153 C 0.34701 0.31392 0.3505 0.0
O154 O 0.33586 0.37232 0.38965 0.0
O155 O 0.29868 0.33938 0.36891 0.0
In156 In 0.36706 0.0575 0.66937 0.0
O157 O 0.41401 0.07537 0.67634 0.0
O158 O 0.38718 0.03285 0.6863 0.0
C159 C 0.37195 0.08544 0.61069 0.0
C160 C 0.36264 0.08221 0.72726 0.0
C161 C 0.32174 1.00852 0.65279 0.0
O162 O 0.35801 0.08525 0.63617 0.0
O163 O 0.38353 0.07121 0.61442 0.0
O164 O 0.3458 1.01203 0.6546 0.0
O165 O 0.32023 0.02977 0.65964 0.0
C166 C 0.4117 0.05267 0.68528 0.0
O167 O 0.34961 0.05632 0.72346 0.0
O168 O 0.37798 0.09521 0.70241 0.0
In169 In 1.00778 0.32154 0.67715 0.0
O170 O 1.01313 0.36412 0.664 0.0
O171 O 0.99653 0.34691 0.7127 0.0
C172 C 0.98026 0.29349 0.61959 0.0
C173 C 0.98476 0.28631 0.73012 0.0
C174 C 0.06182 0.33781 0.66748 0.0
O175 O 0.97168 0.30591 0.63856 0.0
O176 O 1.00297 0.29598 0.629 0.0
O177 O 0.04451 0.31397 0.67786 0.0
O178 O 0.05205 0.35361 0.66339 0.0
C179 C 1.00382 0.36686 0.69241 0.0
O180 O 1.00939 0.30619 0.73132 0.0
O181 O 0.97215 0.2842 0.70224 0.0
In182 In 0.72505 0.68627 0.66592 0.0
O183 O 0.73691 0.73188 0.67099 0.0
O184 O 0.70046 0.70462 0.64292 0.0
C185 C 0.75414 0.68469 0.72077 0.0
C186 C 0.7535 0.68757 0.60898 0.0
C187 C 0.67463 0.64447 0.68319 0.0
O188 O 0.74806 0.70339 0.71685 0.0
O189 O 0.74519 0.66656 0.69731 0.0
O190 O 0.69059 0.64068 0.66385 0.0
O191 O 0.6843 0.66893 0.6938 0.0
C192 C 0.71605 0.72874 0.65435 0.0
O193 O 0.72767 0.67188 0.6112 0.0
O194 O 0.76463 0.70273 0.63501 0.0
In195 In 0.36711 0.322 0.66834 0.0
O196 O 0.38634 0.31917 0.61741 0.0
O197 O 0.34865 0.28444 0.6328 0.0
C198 C 0.41548 0.36925 0.68042 0.0
C199 C 0.32414 0.33071 0.65668 0.0
C200 C 0.36486 0.29557 0.72736 0.0
O201 O 0.3929 0.36865 0.67508 0.0
O202 O 0.41392 0.34597 0.67866 0.0
O203 O 0.36578 0.31855 0.72714 0.0
O204 O 0.36398 0.2855 0.69801 0.0
C205 C 0.36759 0.29475 0.61081 0.0
O206 O 0.32129 0.31032 0.67374 0.0
O207 O 0.34832 0.34642 0.64609 0.0
In208 In 0.72864 0.05613 0.67161 0.0
O209 O 0.72739 0.0717 0.61753 0.0
O210 O 0.76481 0.09293 0.64646 0.0
C211 C 0.67451 0.04043 0.67872 0.0
C212 C 0.73217 1.01065 0.65594 0.0
C213 C 0.75552 0.08401 0.72972 0.0
O214 O 0.69224 0.06411 0.66832 0.0
O215 O 0.68398 0.02458 0.68453 0.0
O216 O 0.76369 0.07072 0.71174 0.0
O217 O 0.73342 0.08234 0.71918 0.0
C218 C 0.75222 0.09114 0.61866 0.0
O219 O 0.72066 1.01229 0.68304 0.0
O220 O 0.74189 0.03177 0.63724 0.0
In221 In 1.00608 0.6909 0.6674 0.0
O222 O 0.99356 0.6449 0.66429 0.0
O223 O 0.03084 0.67267 0.6904 0.0
C224 C 0.97737 0.693 0.61214 0.0
C225 C 0.97796 0.69035 0.72434 0.0
C226 C 0.0568 0.73278 0.65122 0.0
O227 O 0.98395 0.67461 0.61548 0.0
O228 O 0.98558 0.71047 0.63634 0.0
O229 O 0.04071 0.73635 0.67058 0.0
O230 O 0.04708 0.7085 0.63986 0.0
C231 C 1.01471 0.64825 0.68044 0.0
O232 O 1.00373 0.70611 0.72168 0.0
O233 O 0.96666 0.6747 0.69873 0.0
H234 H 0.28249 0.36247 0.1311 0.0
H235 H 0.22313 0.37365 0.07472 0.0
H236 H 0.2106 0.35099 0.1831 0.0
H237 H 0.18299 0.36619 0.18416 0.0
H238 H 0.11268 0.35645 0.12871 0.0
H239 H 0.17966 0.35958 0.07234 0.0
C240 C 0.26295 0.36224 0.13056 0.0
C241 C 0.24777 0.35711 0.1607 0.0
C242 C 0.25364 0.36746 0.09966 0.0
C243 C 0.22908 0.36852 0.09887 0.0
C244 C 0.2127 0.36277 0.12893 0.0
C245 C 0.2225 0.35672 0.15969 0.0
C246 C 0.18536 0.36227 0.12839 0.0
C247 C 0.17269 0.36321 0.15961 0.0
C248 C 0.14612 0.35995 0.15989 0.0
C249 C 0.1327 0.35772 0.12866 0.0
C250 C 0.14518 0.35842 0.09727 0.0
C251 C 0.17119 0.36025 0.09705 0.0
H252 H 0.6957 0.93818 0.12995 0.0
H253 H 0.68233 0.86777 0.07099 0.0
H254 H 0.70785 0.87706 0.17859 0.0
H255 H 0.68881 0.83372 0.17967 0.0
H256 H 0.69609 0.77189 0.12421 0.0
H257 H 0.6949 0.83665 0.06788 0.0
C258 C 0.69586 0.9189 0.12849 0.0
C259 C 0.70144 0.90842 0.15799 0.0
C260 C 0.68976 0.90464 0.09714 0.0
C261 C 0.6882 0.87879 0.09531 0.0
C262 C 0.69422 0.86769 0.12481 0.0
C263 C 0.70158 0.88351 0.15576 0.0
C264 C 0.69314 0.84012 0.12395 0.0
C265 C 0.69169 0.8263 0.15519 0.0
C266 C 0.69337 0.80214 0.15555 0.0
C267 C 0.69471 0.79054 0.12432 0.0
C268 C 0.69431 0.80242 0.09296 0.0
C269 C 0.69397 0.82737 0.09255 0.0
H270 H 0.28074 0.93688 0.11564 0.0
H271 H 0.21804 0.86891 0.05758 0.0
H272 H 0.21954 0.86678 0.16953 0.0
H273 H 0.1758 0.84118 0.16585 0.0
H274 H 0.11964 0.76463 0.11709 0.0
H275 H 0.18989 0.82415 0.06084 0.0
C276 C 0.26205 0.91679 0.1151 0.0
C277 C 0.25045 0.90361 0.14602 0.0
C278 C 0.25091 0.90396 0.08343 0.0
C279 C 0.22675 0.87786 0.08248 0.0
C280 C 0.21406 0.86405 0.11355 0.0
C281 C 0.22718 0.87701 0.14516 0.0
C282 C 0.18736 0.83658 0.11361 0.0
C283 C 0.17068 0.82784 0.14354 0.0
C284 C 0.1467 0.8018 0.14528 0.0
C285 C 0.13814 0.78483 0.11608 0.0
C286 C 0.15329 0.79319 0.08559 0.0
C287 C 0.17807 0.81874 0.08437 0.0
H288 H 0.37583 0.11202 0.87965 0.0
H289 H 0.38939 0.18311 0.93757 0.0
H290 H 0.35693 0.16948 0.83298 0.0
H291 H 0.37953 0.21393 0.83027 0.0
H292 H 0.36835 0.27434 0.88396 0.0
H293 H 0.37156 0.21108 0.94157 0.0
C294 C 0.37455 0.1307 0.88135 0.0
C295 C 0.36617 0.13956 0.85261 0.0
C296 C 0.38234 0.146 0.91202 0.0
C297 C 0.38221 0.17106 0.91403 0.0
C298 C 0.37366 0.18058 0.88525 0.0
C299 C 0.36489 0.16388 0.85505 0.0
C300 C 0.37411 0.20777 0.88572 0.0
C301 C 0.37583 0.22138 0.85426 0.0
C302 C 0.37327 0.24506 0.85319 0.0
C303 C 0.37065 0.25623 0.88419 0.0
C304 C 0.37111 0.24472 0.91587 0.0
C305 C 0.37244 0.2203 0.91682 0.0
H306 H 0.77952 0.11695 0.88046 0.0
H307 H 0.84912 0.17683 0.93963 0.0
H308 H 0.84971 0.17964 0.82778 0.0
H309 H 0.8943 0.19538 0.83628 0.0
H310 H 0.95314 0.27444 0.87777 0.0
H311 H 0.87785 0.22427 0.93223 0.0
C312 C 0.79996 0.1352 0.88137 0.0
C313 C 0.81355 0.14693 0.85071 0.0
C314 C 0.81256 0.14595 0.91327 0.0
C315 C 0.83934 0.16913 0.91473 0.0
C316 C 0.85353 0.18165 0.88389 0.0
C317 C 0.84004 0.17026 0.85196 0.0
C318 C 0.88218 0.20637 0.88431 0.0
C319 C 0.90015 0.21081 0.8564 0.0
C320 C 0.92548 0.23547 0.85342 0.0
C321 C 0.9339 0.255 0.88001 0.0
C322 C 0.91715 0.25085 0.90862 0.0
C323 C 0.89122 0.22661 0.91083 0.0
H324 H 0.77981 0.68145 0.87232 0.0
H325 H 0.84297 0.6786 0.93134 0.0
H326 H 0.84198 0.6734 0.81929 0.0
H327 H 0.8852 0.68973 0.82293 0.0
H328 H 0.94422 0.67676 0.87706 0.0
H329 H 0.87172 0.66351 0.92986 0.0
C330 C 0.79853 0.68013 0.87314 0.0
C331 C 0.81061 0.67882 0.84243 0.0
C332 C 0.80977 0.67928 0.90495 0.0
C333 C 0.83411 0.67783 0.90627 0.0
C334 C 0.84696 0.67631 0.87544 0.0
C335 C 0.83401 0.67575 0.84358 0.0
C336 C 0.87399 0.67625 0.87617 0.0
C337 C 0.89079 0.68333 0.84637 0.0
C338 C 0.9157 0.68296 0.84629 0.0
C339 C 0.92495 0.67705 0.87677 0.0
C340 C 0.90936 0.67074 0.90685 0.0
C341 C 0.88371 0.66963 0.90648 0.0
H342 H 0.95303 0.69955 0.46024 0.0
H343 H 0.89068 0.7043 0.40177 0.0
H344 H 0.8901 0.70581 0.51399 0.0
H345 H 0.84725 0.69048 0.51008 0.0
H346 H 0.7884 0.70423 0.45701 0.0
H347 H 0.86076 0.71781 0.40353 0.0
C348 C 0.93429 0.70084 0.45963 0.0
C349 C 0.92181 0.70117 0.49048 0.0
C350 C 0.92348 0.70273 0.42795 0.0
C351 C 0.89912 0.70419 0.42682 0.0
C352 C 0.88578 0.70465 0.45774 0.0
C353 C 0.89836 0.70421 0.48955 0.0
C354 C 0.85867 0.70471 0.45711 0.0
C355 C 0.84178 0.69723 0.48687 0.0
C356 C 0.81685 0.69756 0.48719 0.0
C357 C 0.8077 0.70399 0.45704 0.0
C358 C 0.82323 0.71062 0.42691 0.0
C359 C 0.84888 0.7116 0.42698 0.0
H360 H 0.36552 0.26939 0.45676 0.0
H361 H 0.36102 0.20272 0.39688 0.0
H362 H 0.35894 0.19961 0.50881 0.0
H363 H 0.37949 0.17637 0.50329 0.0
H364 H 0.35567 0.09841 0.45673 0.0
H365 H 0.34362 0.15723 0.40043 0.0
C366 C 0.36447 0.2495 0.45564 0.0
C367 C 0.3638 0.23628 0.48617 0.0
C368 C 0.36267 0.23714 0.42366 0.0
C369 C 0.36132 0.21138 0.42197 0.0
C370 C 0.36097 0.19754 0.45269 0.0
C371 C 0.36094 0.20998 0.48467 0.0
C372 C 0.36088 0.17054 0.45221 0.0
C373 C 0.37021 0.16251 0.48157 0.0
C374 C 0.36759 0.13635 0.48383 0.0
C375 C 0.35785 0.11874 0.45526 0.0
C376 C 0.34997 0.12656 0.42501 0.0
C377 C 0.35106 0.15221 0.4235 0.0
H378 H 0.95538 0.26447 0.46825 0.0
H379 H 0.8848 0.20685 0.40876 0.0
H380 H 0.88689 0.19897 0.51993 0.0
H381 H 0.84262 0.18288 0.51492 0.0
H382 H 0.78028 0.10834 0.4673 0.0
H383 H 0.85434 0.1605 0.41181 0.0
C384 C 0.93506 0.24607 0.4671 0.0
C385 C 0.92215 0.23297 0.49752 0.0
C386 C 0.92184 0.23655 0.43523 0.0
C387 C 0.89509 0.21334 0.43357 0.0
C388 C 0.88162 0.19939 0.46416 0.0
C389 C 0.89586 0.20941 0.49599 0.0
C390 C 0.85278 0.17491 0.46364 0.0
C391 C 0.83585 0.1689 0.49306 0.0
C392 C 0.81008 0.14464 0.49507 0.0
C393 C 0.80001 0.12738 0.46615 0.0
C394 C 0.81545 0.13351 0.43593 0.0
C395 C 0.84212 0.15684 0.43481 0.0
H396 H 0.04573 0.44893 0.20624 0.0
H397 H 0.03636 0.50741 0.26752 0.0
H398 H 0.04597 0.51659 0.15631 0.0
H399 H 1.025 0.53907 0.15998 0.0
H400 H 1.02797 0.60562 0.21732 0.0
H401 H 0.05031 0.55187 0.26771 0.0
C402 C 0.04466 0.46773 0.20793 0.0
C403 C 0.04529 0.48151 0.17789 0.0
C404 C 0.04194 0.47733 0.24011 0.0
C405 C 0.03961 0.50115 0.24239 0.0
C406 C 0.04057 0.5159 0.21222 0.0
C407 C 0.04395 0.50578 0.18007 0.0
C408 C 0.0374 0.54116 0.21385 0.0
C409 C 0.02932 0.55017 0.18408 0.0
C410 C 1.02734 0.57419 0.18469 0.0
C411 C 0.03072 0.58777 0.21608 0.0
C412 C 0.03881 0.57971 0.2458 0.0
C413 C 0.04284 0.5569 0.24468 0.0
H414 H 0.44658 0.44646 0.20989 0.0
H415 H 0.5094 0.51228 0.27012 0.0
H416 H 0.50982 0.51633 0.15803 0.0
H417 H 0.55289 0.54288 0.1624 0.0
H418 H 0.61147 0.61556 0.21627 0.0
H419 H 0.53913 0.55617 0.26923 0.0
C420 C 0.46543 0.46641 0.21105 0.0
C421 C 0.47801 0.47966 0.18057 0.0
C422 C 0.47634 0.47847 0.24305 0.0
C423 C 0.50085 0.50418 0.24489 0.0
C424 C 0.5142 0.51846 0.2143 0.0
C425 C 0.50154 0.50606 0.18218 0.0
C426 C 0.54138 0.54553 0.21543 0.0
C427 C 0.5583 0.55508 0.18576 0.0
C428 C 0.58312 0.58047 0.18562 0.0
C429 C 0.59225 0.59593 0.21604 0.0
C430 C 0.57671 0.58679 0.24617 0.0
C431 C 0.5511 0.56205 0.24582 0.0
H432 H 0.44841 0.02182 0.2148 0.0
H433 H 0.51232 1.01818 0.27137 0.0
H434 H 0.5098 1.01415 0.15935 0.0
H435 H 0.55321 0.03174 0.1615 0.0
H436 H 0.61283 1.01713 0.2109 0.0
H437 H 0.54214 1.00421 0.2679 0.0
C438 C 0.46732 0.02083 0.21491 0.0
C439 C 0.47881 0.01947 0.18374 0.0
C440 C 0.47888 0.01944 0.24627 0.0
C441 C 0.50334 1.01812 0.24663 0.0
C442 C 0.51591 1.01721 0.21525 0.0
C443 C 0.50234 1.01663 0.18397 0.0
C444 C 0.54301 1.01726 0.21459 0.0
C445 C 0.55917 0.02481 0.18416 0.0
C446 C 0.58393 0.02423 0.18245 0.0
C447 C 0.59369 1.01764 0.2119 0.0
C448 C 0.57901 1.01122 0.2427 0.0
C449 C 0.55343 1.01028 0.24399 0.0
H450 H 0.61587 0.02248 0.79082 0.0
H451 H 0.551 0.02425 0.73399 0.0
H452 H 0.55448 0.03078 0.84574 0.0
H453 H 0.51028 1.01091 0.84261 0.0
H454 H 0.45277 0.02941 0.79432 0.0
H455 H 0.52349 0.04173 0.73779 0.0
C456 C 0.59689 0.02332 0.79066 0.0
C457 C 0.58567 0.02532 0.82181 0.0
C458 C 0.58484 0.02363 0.75917 0.0
C459 C 0.56041 0.02503 0.75868 0.0
C460 C 0.54826 0.0268 0.78996 0.0
C461 C 0.56202 0.02799 0.82133 0.0
C462 C 0.52136 0.02702 0.79043 0.0
C463 C 0.50476 0.01879 0.82044 0.0
C464 C 0.48038 0.02011 0.82232 0.0
C465 C 0.47152 0.02817 0.79326 0.0
C466 C 0.48658 0.03513 0.76274 0.0
C467 C 0.51174 0.0352 0.76137 0.0
H468 H 1.02814 0.60175 0.78524 0.0
H469 H 0.03192 0.53806 0.72814 0.0
H470 H 1.02818 0.5357 0.83983 0.0
H471 H 0.05645 0.51943 0.83403 0.0
H472 H 0.03617 0.44022 0.79404 0.0
H473 H 1.01381 0.49102 0.73578 0.0
C474 C 0.02841 0.58251 0.78512 0.0
C475 C 0.02862 0.57029 0.81626 0.0
C476 C 0.02882 0.57066 0.75354 0.0
C477 C 0.0306 0.54646 0.75278 0.0
C478 C 0.03144 0.53385 0.78406 0.0
C479 C 0.02946 0.5457 0.81555 0.0
C480 C 0.03457 0.5087 0.78479 0.0
C481 C 0.04711 0.50402 0.81381 0.0
C482 C 0.04721 0.47921 0.81778 0.0
C483 C 0.03668 0.45972 0.79112 0.0
C484 C 1.0252 0.46409 0.76138 0.0
C485 C 1.02395 0.48849 0.75815 0.0
H486 H 0.61767 0.60016 0.7979 0.0
H487 H 0.5557 0.53265 0.73878 0.0
H488 H 0.55672 0.52918 0.85073 0.0
H489 H 0.51307 0.50304 0.84615 0.0
H490 H 0.45649 0.42825 0.79428 0.0
H491 H 0.52843 0.48792 0.74083 0.0
C492 C 0.59928 0.57985 0.79706 0.0
C493 C 0.58748 0.56642 0.82779 0.0
C494 C 0.58828 0.56739 0.7652 0.0
C495 C 0.56443 0.54117 0.76382 0.0
C496 C 0.55184 0.52686 0.79461 0.0
C497 C 0.56456 0.5396 0.82652 0.0
C498 C 0.52524 0.49938 0.79389 0.0
C499 C 0.50812 0.49022 0.82336 0.0
C500 C 0.48375 0.46449 0.82388 0.0
C501 C 0.4754 0.44815 0.79415 0.0
C502 C 0.49117 0.45691 0.76419 0.0
C503 C 0.51625 0.48217 0.76407 0.0
H504 H 0.70055 0.77518 0.55241 0.0
H505 H 0.70171 0.84093 0.6104 0.0
H506 H 0.70639 0.84418 0.49862 0.0
H507 H 0.68367 0.86582 0.50315 0.0
H508 H 0.70465 0.94333 0.54901 0.0
H509 H 0.72005 0.88689 0.60576 0.0
C510 C 0.7017 0.79511 0.55279 0.0
C511 C 0.70284 0.80813 0.52183 0.0
C512 C 0.70208 0.80718 0.58448 0.0
C513 C 0.7024 0.83244 0.58557 0.0
C514 C 0.7029 0.84597 0.55451 0.0
C515 C 0.70403 0.83375 0.52282 0.0
C516 C 0.70212 0.87251 0.55447 0.0
C517 C 0.69233 0.87981 0.52489 0.0
C518 C 0.69381 0.90547 0.52246 0.0
C519 C 0.70316 0.9233 0.55081 0.0
C520 C 0.7121 0.91646 0.58094 0.0
C521 C 0.71185 0.89122 0.58283 0.0
H522 H 0.11336 0.77944 0.53995 0.0
H523 H 0.17947 0.84378 0.59868 0.0
H524 H 0.1772 0.84829 0.48697 0.0
H525 H 0.22138 0.86963 0.4913 0.0
H526 H 0.28116 0.94489 0.53984 0.0
H527 H 0.20877 0.88897 0.59568 0.0
C528 C 0.13264 0.79901 0.54072 0.0
C529 C 0.14477 0.81214 0.50997 0.0
C530 C 0.14471 0.8107 0.57253 0.0
C531 C 0.16989 0.83583 0.5738 0.0
C532 C 0.18271 0.84977 0.5429 0.0
C533 C 0.169 0.83796 0.51116 0.0
C534 C 0.21052 0.87587 0.54309 0.0
C535 C 0.22735 0.88329 0.51339 0.0
C536 C 0.25234 0.90841 0.51155 0.0
C537 C 0.26189 0.92536 0.54077 0.0
C538 C 0.24665 0.91791 0.57122 0.0
C539 C 0.2207 0.89363 0.57228 0.0
H540 H 0.11919 0.35885 0.54959 0.0
H541 H 0.18148 0.3521 0.60532 0.0
H542 H 0.17872 0.34882 0.49318 0.0
H543 H 0.22022 0.35974 0.49384 0.0
H544 H 0.2805 0.34779 0.54575 0.0
H545 H 0.21217 0.34023 0.60328 0.0
C546 C 0.13766 0.35711 0.54939 0.0
C547 C 0.14869 0.35533 0.51797 0.0
C548 C 0.14911 0.35523 0.58061 0.0
C549 C 0.1728 0.35255 0.5806 0.0
C550 C 0.18494 0.351 0.54914 0.0
C551 C 0.17161 0.35138 0.51795 0.0
C552 C 0.2114 0.34958 0.54853 0.0
C553 C 0.22654 0.35437 0.51747 0.0
C554 C 0.25105 0.35329 0.51629 0.0
C555 C 0.26149 0.34855 0.54649 0.0
C556 C 0.24778 0.34451 0.57774 0.0
C557 C 0.22251 0.34429 0.57877 0.0
C558 C 0.06488 0.44734 0.1082 0.0
C559 C 0.04277 0.43876 0.08479 0.0
H560 H 0.08303 0.46784 0.15609 0.0
C561 C 1.02264 0.44626 0.09089 0.0
H562 H 0.08076 0.44196 0.10408 0.0
C563 C 1.02431 0.46159 0.12032 0.0
C564 C 0.04589 0.46926 0.14429 0.0
H565 H 1.00551 0.44009 0.07309 0.0
H566 H 1.00816 0.46651 0.12506 0.0
C567 C 0.06629 0.46224 0.13783 0.0
C568 C 0.64292 0.6174 0.12354 0.0
C569 C 0.62916 0.61812 0.09352 0.0
H570 H 0.63909 0.60459 0.17623 0.0
C571 C 0.60014 0.60485 0.09339 0.0
H572 H 0.66526 0.62733 0.12433 0.0
C573 C 0.58518 0.59171 0.12292 0.0
C574 C 0.59894 0.59174 0.15332 0.0
H575 H 0.58895 0.60494 0.07057 0.0
H576 H 0.56289 0.58237 0.12232 0.0
C577 C 0.62795 0.60443 0.15322 0.0
C578 C 0.44413 1.00047 0.09588 0.0
C579 C 0.43663 0.02079 0.09149 0.0
H580 H 0.46368 0.9843 0.12846 0.0
C581 C 0.44415 0.04129 0.11689 0.0
H582 H 0.43873 0.98449 0.07657 0.0
C583 C 0.45837 0.04112 0.14649 0.0
C584 C 0.46556 0.02061 0.15111 0.0
H585 H 0.43878 0.05727 0.1141 0.0
H586 H 0.46366 0.05699 0.16594 0.0
C587 C 0.4586 1.00046 0.12536 0.0
C588 C 0.42124 1.00042 0.88444 0.0
C589 C 0.43558 1.0131 0.91503 0.0
H590 H 0.42415 0.99181 0.83129 0.0
C591 C 0.46453 0.02534 0.91588 0.0
H592 H 0.39892 0.99054 0.88315 0.0
C593 C 0.47901 0.02627 0.88618 0.0
C594 C 0.46482 1.01489 0.85504 0.0
H595 H 0.47614 0.03515 0.9392 0.0
H596 H 0.50139 0.03714 0.88722 0.0
C597 C 0.43572 1.00121 0.85477 0.0
C598 C 0.04557 0.46389 0.91276 0.0
C599 C 0.05635 0.44599 0.913 0.0
H600 H 0.03427 0.4885 0.8824 0.0
C601 C 0.06826 0.44278 0.88283 0.0
H602 H 0.0364 0.46692 0.9357 0.0
C603 C 0.06747 0.45556 0.8523 0.0
C604 C 0.0545 0.47157 0.8513 0.0
H605 H 0.07704 0.42938 0.88237 0.0
H606 H 0.07577 0.45178 0.82906 0.0
C607 C 0.04458 0.4765 0.88221 0.0
C608 C 0.61913 0.62406 0.89403 0.0
C609 C 0.62725 0.61233 0.92019 0.0
H610 H 0.59976 0.61847 0.84467 0.0
C611 C 0.62043 0.58457 0.91696 0.0
H612 H 0.62386 0.64529 0.89589 0.0
C613 C 0.60649 0.5691 0.88756 0.0
C614 C 0.59932 0.58124 0.86085 0.0
H615 H 0.62631 0.57493 0.93685 0.0
H616 H 0.60221 0.54804 0.88516 0.0
C617 C 0.60535 0.6087 0.86471 0.0
C618 C 0.04771 0.60094 0.90666 0.0
C619 C 0.03265 0.61478 0.90899 0.0
H620 H 0.05847 0.57614 0.87533 0.0
C621 C 1.01518 0.61261 0.8816 0.0
H622 H 0.06117 0.60211 0.9276 0.0
C623 C 1.01305 0.59721 0.85224 0.0
C624 C 0.02875 0.58403 0.84923 0.0
H625 H 1.00288 0.62259 0.88296 0.0
H626 H 0.99915 0.59578 0.83175 0.0
C627 C 0.0459 0.58581 0.87695 0.0
C628 C 0.42309 0.42812 0.88458 0.0
C629 C 0.43647 0.42807 0.91527 0.0
H630 H 0.42768 0.44005 0.8315 0.0
C631 C 0.4655 0.44177 0.91632 0.0
H632 H 0.40075 0.41785 0.88312 0.0
C633 C 0.48087 0.45462 0.88696 0.0
C634 C 0.46751 0.45382 0.8559 0.0
H635 H 0.47638 0.44221 0.93971 0.0
H636 H 0.50319 0.46428 0.88822 0.0
C637 C 0.43848 0.44078 0.85509 0.0
C638 C 0.61947 0.04468 0.91044 0.0
C639 C 0.62844 0.02544 0.91447 0.0
H640 H 0.59878 0.05971 0.87797 0.0
C641 C 0.62218 1.00553 0.88861 0.0
H642 H 0.62391 0.06021 0.93006 0.0
C643 C 0.60772 1.00517 0.859 0.0
C644 C 0.59917 0.02471 0.85459 0.0
H645 H 0.62862 0.99031 0.8911 0.0
H646 H 0.60331 0.98964 0.83939 0.0
C647 C 0.6049 0.04428 0.8808 0.0
C648 C 0.59956 1.01597 0.08982 0.0
C649 C 0.62863 0.03068 0.08991 0.0
H650 H 0.56261 1.00264 0.11905 0.0
C651 C 0.64281 0.04559 0.11957 0.0
H652 H 0.58806 1.00443 0.06722 0.0
C653 C 0.62821 0.04471 0.14916 0.0
C654 C 0.59916 0.02893 0.14962 0.0
H655 H 0.66519 0.05732 0.12027 0.0
H656 H 0.63969 0.0558 0.17201 0.0
C657 C 0.58496 1.01515 0.11937 0.0
C658 C 0.03666 0.62848 0.11971 0.0
C659 C 1.02038 0.61254 0.09186 0.0
H660 H 0.05269 0.62899 0.16961 0.0
C661 C 1.00575 0.58362 0.09456 0.0
H662 H 0.04858 0.65077 0.11814 0.0
C663 C 1.00745 0.57089 0.1248 0.0
C664 C 1.02417 0.58691 0.15257 0.0
H665 H 0.99312 0.57087 0.07328 0.0
H666 H 0.9957 0.54861 0.12637 0.0
C667 C 0.03884 0.61586 0.1494 0.0
C668 C 0.4451 0.42186 0.11477 0.0
C669 C 0.4377 0.43399 0.08837 0.0
H670 H 0.46423 0.42711 0.16422 0.0
C671 C 0.44561 0.46208 0.09117 0.0
H672 H 0.43956 0.40037 0.11321 0.0
C673 C 0.45984 0.47748 0.12046 0.0
C674 C 0.46625 0.46497 0.14744 0.0
H675 H 0.44031 0.47203 0.07106 0.0
H676 H 0.46488 0.4988 0.1226 0.0
C677 C 0.45923 0.43718 0.14395 0.0
C678 C 0.71384 0.76387 0.45689 0.0
C679 C 0.69667 0.76234 0.42948 0.0
H680 H 0.73035 0.78062 0.50663 0.0
C681 C 0.6828 0.77741 0.43156 0.0
H682 H 0.72528 0.75299 0.45571 0.0
C683 C 0.68545 0.7931 0.46107 0.0
C684 C 0.70223 0.79417 0.48884 0.0
H685 H 0.66965 0.77681 0.41057 0.0
H686 H 0.67378 0.80374 0.46254 0.0
C687 C 0.71679 0.77979 0.48605 0.0
C688 C 0.31053 0.94582 0.44747 0.0
C689 C 0.29565 0.94327 0.4171 0.0
H690 H 0.30856 0.93601 0.50105 0.0
C691 C 0.26669 0.92694 0.41726 0.0
H692 H 0.33289 0.95807 0.44799 0.0
C693 C 0.25275 0.91457 0.4476 0.0
C694 C 0.26748 0.91812 0.47846 0.0
H695 H 0.25465 0.92453 0.39419 0.0
H696 H 0.23036 0.90334 0.44717 0.0
C697 C 0.29657 0.93327 0.47784 0.0
C698 C 0.11335 0.37813 0.453 0.0
C699 C 0.10641 0.35864 0.4264 0.0
H700 H 0.1326 0.39266 0.50238 0.0
C701 C 0.11485 0.33889 0.42916 0.0
H702 H 0.10733 0.39372 0.45153 0.0
C703 C 0.12935 0.33825 0.45836 0.0
C704 C 0.1356 0.35729 0.48541 0.0
H705 H 0.10988 0.32363 0.409 0.0
H706 H 0.13488 0.32232 0.46024 0.0
C707 C 0.12777 0.37747 0.48215 0.0
C708 C 0.08998 0.33806 0.22688 0.0
C709 C 0.10348 0.35784 0.25301 0.0
H710 H 0.09304 0.32307 0.17723 0.0
C711 C 0.13154 0.37778 0.24901 0.0
H712 H 0.06842 0.32235 0.22931 0.0
C713 C 0.14568 0.37819 0.21913 0.0
C714 C 0.13196 0.35875 0.19267 0.0
H715 H 0.14249 0.39327 0.26879 0.0
H716 H 0.16711 0.39413 0.21635 0.0
C717 C 0.10405 0.33853 0.19703 0.0
C718 C 0.68402 0.74751 0.22001 0.0
C719 C 0.70091 0.76355 0.2475 0.0
H720 H 0.66728 0.74706 0.17028 0.0
C721 C 0.71418 0.79246 0.2455 0.0
H722 H 0.67306 0.72518 0.22113 0.0
C723 C 0.71112 0.8051 0.21607 0.0
C724 C 0.69452 0.78902 0.18829 0.0
H725 H 0.72712 0.8053 0.26653 0.0
H726 H 0.7223 0.82741 0.21472 0.0
C727 C 0.68067 0.76008 0.1909 0.0
C728 C 0.28449 0.96002 0.21377 0.0
C729 C 0.29202 0.94711 0.23904 0.0
H730 H 0.26514 0.95617 0.16467 0.0
C731 C 0.28459 0.9193 0.23434 0.0
H732 H 0.28978 0.98136 0.21677 0.0
C733 C 0.27026 0.90479 0.20466 0.0
C734 C 0.26335 0.91793 0.179 0.0
H735 H 0.29 0.90876 0.25351 0.0
H736 H 0.26531 0.88358 0.20132 0.0
C737 C 0.2704 0.9456 0.18399 0.0
C738 C 0.68946 0.92136 0.25026 0.0
C739 C 0.7046 0.95033 0.25232 0.0
H740 H 0.67692 0.88542 0.21887 0.0
C741 C 0.72094 0.96533 0.22427 0.0
H742 H 0.67683 0.90923 0.2716 0.0
C743 C 0.72105 0.95164 0.19409 0.0
C744 C 0.70497 0.92271 0.19152 0.0
H745 H 0.73298 0.98765 0.22526 0.0
H746 H 0.73318 0.96371 0.17241 0.0
C747 C 0.68972 0.90768 0.22021 0.0
C748 C 0.08796 0.76382 0.20855 0.0
C749 C 0.10249 0.76586 0.23906 0.0
H750 H 0.09054 0.77407 0.155 0.0
C751 C 0.13152 0.78157 0.23911 0.0
H752 H 0.06557 0.752 0.20779 0.0
C753 C 0.14579 0.79424 0.209 0.0
C754 C 0.13135 0.79137 0.17811 0.0
H755 H 0.14331 0.78362 0.26229 0.0
H756 H 0.16819 0.80535 0.20959 0.0
C757 C 0.10225 0.77642 0.17834 0.0
C758 C 0.27705 0.36923 0.25124 0.0
C759 C 0.28948 0.35275 0.25151 0.0
H760 H 0.25361 0.38313 0.22231 0.0
C761 C 0.28568 0.33563 0.22301 0.0
H762 H 0.27944 0.38246 0.27301 0.0
C763 C 0.27085 0.33598 0.19413 0.0
C764 C 0.25938 0.3533 0.19328 0.0
H765 H 0.2948 0.32253 0.22261 0.0
H766 H 0.26895 0.32322 0.17202 0.0
C767 C 0.26203 0.36942 0.22243 0.0
C768 C 0.30912 0.37376 0.45246 0.0
C769 C 0.29497 0.35682 0.42405 0.0
H770 H 0.30618 0.38623 0.50382 0.0
C771 C 0.266 0.34036 0.42517 0.0
H772 H 0.33141 0.38681 0.45222 0.0
C773 C 0.25154 0.34023 0.45457 0.0
C774 C 0.26581 0.35637 0.48347 0.0
H775 H 0.25451 0.32726 0.40352 0.0
H776 H 0.22932 0.3267 0.45521 0.0
C777 C 0.29469 0.37345 0.48193 0.0
C778 C 0.67546 0.94443 0.45791 0.0
C779 C 0.68955 0.94333 0.42861 0.0
H780 H 0.66519 0.93266 0.51068 0.0
C781 C 0.70212 0.927 0.42928 0.0
H782 H 0.66538 0.95666 0.45798 0.0
C783 C 0.70183 0.91316 0.45922 0.0
C784 C 0.68911 0.91548 0.48918 0.0
H785 H 0.71292 0.92557 0.40695 0.0
H786 H 0.71292 0.90189 0.45945 0.0
C787 C 0.67531 0.93068 0.48799 0.0
C788 C 0.11316 0.79662 0.42009 0.0
C789 C 0.10493 0.76852 0.41642 0.0
H790 H 0.13248 0.83267 0.45266 0.0
C791 C 0.11112 0.75544 0.44287 0.0
H792 H 0.10875 0.80726 0.39998 0.0
C793 C 0.12462 0.76992 0.47278 0.0
C794 C 0.13231 0.79783 0.47689 0.0
H795 H 0.10522 0.73387 0.4407 0.0
H796 H 0.1289 0.7592 0.49291 0.0
C797 C 0.12686 0.81121 0.45005 0.0
C798 C 0.37416 0.12548 0.75925 0.0
C799 C 0.3608 0.0965 0.75838 0.0
H800 H 0.38599 0.16175 0.78965 0.0
C801 C 0.34666 0.08165 0.78774 0.0
H802 H 0.38506 0.1375 0.73691 0.0
C803 C 0.34709 0.09559 0.81797 0.0
C804 C 0.36153 0.12463 0.8193 0.0
H805 H 0.336 0.0593 0.78771 0.0
H806 H 0.33676 0.08368 0.84062 0.0
C807 C 0.37445 0.13939 0.78935 0.0
C808 C 0.94186 0.25077 0.759 0.0
C809 C 0.97057 0.26891 0.76019 0.0
H810 H 0.90505 0.22594 0.78759 0.0
C811 C 0.98489 0.27218 0.79125 0.0
H812 H 0.93026 0.24768 0.73533 0.0
C813 C 0.97045 0.25922 0.8212 0.0
C814 C 0.94139 0.24306 0.82072 0.0
H815 H 1.00708 0.28574 0.79281 0.0
H816 H 0.98192 0.26304 0.84513 0.0
C817 C 0.92739 0.23805 0.78897 0.0
C818 C 0.77713 0.66312 0.7537 0.0
C819 C 0.77024 0.68399 0.75064 0.0
H820 H 0.79569 0.64521 0.78523 0.0
C821 C 0.77853 0.7041 0.7767 0.0
H822 H 0.77113 0.64743 0.73384 0.0
C823 C 0.79256 0.70284 0.8058 0.0
C824 C 0.79866 0.68149 0.8095 0.0
H825 H 0.77375 0.72055 0.77494 0.0
H826 H 0.79825 0.71836 0.82583 0.0
C827 C 0.79134 0.66193 0.78289 0.0
C828 C 0.75635 0.67375 0.54827 0.0
C829 C 0.76964 0.68841 0.57847 0.0
H830 H 0.76095 0.6648 0.49573 0.0
C831 C 0.79866 0.7044 0.57919 0.0
H832 H 0.73403 0.66112 0.54704 0.0
C833 C 0.81405 0.70635 0.54997 0.0
C834 C 0.80073 0.69252 0.51935 0.0
H835 H 0.80949 0.71581 0.6022 0.0
H836 H 0.83632 0.71955 0.55095 0.0
C837 C 0.77174 0.67586 0.51894 0.0
C838 C 0.38578 0.0974 0.54894 0.0
C839 C 0.37359 0.10055 0.5789 0.0
H840 H 0.39392 0.10673 0.49522 0.0
C841 C 0.36176 0.11753 0.57802 0.0
H842 H 0.39519 0.08455 0.54896 0.0
C843 C 0.36111 0.13023 0.54748 0.0
C844 C 0.37219 0.12616 0.51706 0.0
H845 H 0.35232 0.12047 0.60077 0.0
H846 H 0.35077 0.14221 0.54736 0.0
C847 C 0.38502 0.11004 0.51823 0.0
C848 C 0.97767 0.26775 0.56574 0.0
C849 C 0.96477 0.27672 0.58933 0.0
H850 H 0.97403 0.24655 0.51816 0.0
C851 C 0.93699 0.26922 0.58393 0.0
H852 H 0.99901 0.2731 0.56938 0.0
C853 C 0.92256 0.25354 0.55497 0.0
C854 C 0.93582 0.24548 0.53077 0.0
H855 H 0.9265 0.27565 0.60191 0.0
H856 H 0.90141 0.24868 0.55074 0.0
C857 C 0.96338 0.25247 0.53658 0.0
C858 C 0.34735 0.25135 0.57553 0.0
C859 C 0.36755 0.27933 0.57983 0.0
H860 H 0.33045 0.21564 0.54251 0.0
C861 C 0.38742 0.29247 0.55409 0.0
H862 H 0.33185 0.24066 0.59508 0.0
C863 C 0.38658 0.27815 0.52414 0.0
C864 C 0.36598 0.25037 0.51943 0.0
H865 H 0.40331 0.31394 0.5568 0.0
H866 H 0.40189 0.2889 0.5044 0.0
C867 C 0.34664 0.23696 0.54563 0.0
C868 C 0.75171 0.10699 0.55858 0.0
C869 C 0.76645 0.10859 0.5887 0.0
H870 H 0.75388 0.11825 0.50557 0.0
C871 C 0.79537 0.12533 0.58905 0.0
H872 H 0.72937 0.09452 0.55775 0.0
C873 C 0.80947 0.13853 0.5591 0.0
C874 C 0.7949 0.13549 0.52822 0.0
H875 H 0.8073 0.12705 0.61198 0.0
H876 H 0.83185 0.14967 0.55971 0.0
C877 C 0.76578 0.12049 0.5287 0.0
C878 C 0.95419 0.67505 0.55503 0.0
C879 C 0.96154 0.69418 0.58215 0.0
H880 H 0.93544 0.66207 0.50516 0.0
C881 C 0.95396 0.71462 0.58007 0.0
H882 H 0.95951 0.65894 0.55598 0.0
C883 C 0.94001 0.71636 0.55092 0.0
C884 C 0.93359 0.69779 0.52328 0.0
H885 H 0.95922 0.72957 0.60071 0.0
H886 H 0.93514 0.73277 0.54946 0.0
C887 C 0.94041 0.67685 0.52595 0.0
C888 C 0.97567 0.70523 0.78468 0.0
C889 C 0.96209 0.69004 0.75488 0.0
H890 H 0.97157 0.71523 0.83693 0.0
C891 C 0.93307 0.67412 0.7546 0.0
H892 H 0.998 0.71781 0.78556 0.0
C893 C 0.91796 0.67282 0.78384 0.0
C894 C 0.93156 0.68723 0.81406 0.0
H895 H 0.92202 0.66231 0.73192 0.0
H896 H 0.89568 0.6597 0.78322 0.0
C897 C 0.96056 0.70375 0.81404 0.0
C898 C 0.3806 0.29885 0.78816 0.0
C899 C 0.36693 0.28252 0.75923 0.0
H900 H 0.39501 0.30024 0.83949 0.0
C901 C 0.35662 0.25394 0.76048 0.0
H902 H 0.38934 0.32103 0.78752 0.0
C903 C 0.3591 0.24175 0.7907 0.0
C904 C 0.37253 0.25803 0.81998 0.0
H905 H 0.34617 0.24095 0.73832 0.0
H906 H 0.3499 0.21953 0.79131 0.0
C907 C 0.38376 0.28683 0.81796 0.0
C908 C 0.7585 0.11146 0.78206 0.0
C909 C 0.77097 0.10109 0.75985 0.0
H910 H 0.76245 0.13442 0.82816 0.0
C911 C 0.79839 0.1077 0.76631 0.0
H912 H 0.73746 0.10685 0.77758 0.0
C913 C 0.81288 0.12397 0.79492 0.0
C914 C 0.80001 0.13352 0.81771 0.0
H915 H 0.80859 0.1002 0.74939 0.0
H916 H 0.83373 0.12821 0.79997 0.0
C917 C 0.77281 0.12734 0.81085 0.0
C918 C 0.12426 0.38821 0.02486 0.0
C919 C 0.09599 0.3684 0.02199 0.0
H920 H 0.16262 0.40009 0.05097 0.0
C921 C 0.0862 0.34265 0.0378 0.0
H922 H 0.13243 0.4082 0.01284 0.0
C923 C 0.1035 0.33804 0.05941 0.0
C924 C 0.1309 0.35902 0.06539 0.0
H925 H 0.0646 0.32687 0.03582 0.0
H926 H 0.09479 0.31902 0.07389 0.0
C927 C 0.14162 0.38352 0.04646 0.0
C928 C 0.66411 0.74434 0.03015 0.0
C929 C 0.68616 0.73912 0.02793 0.0
H930 H 0.64984 0.77013 0.0523 0.0
C931 C 0.71261 0.7596 0.0389 0.0
H932 H 0.64354 0.72894 0.02169 0.0
C933 C 0.71633 0.78345 0.05539 0.0
C934 C 0.69359 0.787 0.06165 0.0
H935 H 0.73007 0.75629 0.03702 0.0
H936 H 0.7363 0.79749 0.06685 0.0
C937 C 0.66778 0.76811 0.04715 0.0
C938 C 0.29395 0.96346 0.02655 0.0
C939 C 0.31398 0.95678 0.01624 0.0
H940 H 0.25701 0.95094 0.0555 0.0
C941 C 0.30848 0.92956 0.0205 0.0
H942 H 0.29746 0.98418 0.02337 0.0
C943 C 0.285 0.91039 0.03849 0.0
C944 C 0.26677 0.91821 0.05237 0.0
H945 H 0.32345 0.92375 0.01264 0.0
H946 H 0.28274 0.89052 0.04473 0.0
C947 C 0.27058 0.94434 0.04457 0.0
C948 C 0.37474 0.09771 0.98257 0.0
C949 C 0.39785 0.09471 0.97614 0.0
H950 H 0.35201 0.11757 0.96739 0.0
C951 C 0.41885 0.11387 0.95471 0.0
H952 H 0.35825 0.0833 -0.00094 0.0
C953 C 0.41547 0.13374 0.93718 0.0
C954 C 0.39102 0.13478 0.94075 0.0
H955 H 0.43701 0.11224 0.94947 0.0
H956 H 0.4307 0.14648 0.91824 0.0
C957 C 0.37129 0.11755 0.96482 0.0
C958 C 0.95912 0.29712 0.98168 0.0
C959 C 0.96549 0.32287 0.96805 0.0
H960 H 0.9378 0.2532 0.97326 0.0
C961 C 0.95042 0.32366 0.93947 0.0
H962 H 0.97049 0.29596 0.00368 0.0
C963 C 0.93132 0.29929 0.92276 0.0
C964 C 0.92723 0.2737 0.934 0.0
H965 H 0.95475 0.34321 0.92861 0.0
H966 H 0.92179 0.30062 0.899 0.0
C967 C 0.94023 0.27264 0.96453 0.0
C968 C 0.76848 0.69932 0.96019 0.0
C969 C 0.7498 0.67376 0.97476 0.0
H970 H 0.80347 0.72142 0.92747 0.0
C971 C 0.75557 0.65207 0.97303 0.0
H972 H 0.76473 0.71649 0.96155 0.0
C973 C 0.77793 0.65499 0.95352 0.0
C974 C 0.79481 0.67969 0.93597 0.0
H975 H 0.74152 0.63219 0.98416 0.0
H976 H 0.78035 0.63717 0.9494 0.0
C977 C 0.79086 0.70229 0.94109 0.0
C978 C 0.96104 0.68475 0.97636 0.0
C979 C 0.95867 0.65865 0.97933 0.0
H980 H 0.9462 0.70886 0.95114 0.0
C981 C 0.93552 0.63559 0.96462 0.0
H982 H 0.97858 0.70289 0.98751 0.0
C983 C 0.91693 0.63907 0.94395 0.0
C984 C 0.92107 0.66557 0.93813 0.0
H985 H 0.93312 0.61521 0.96648 0.0
H986 H 0.90088 0.62146 0.92999 0.0
C987 C 0.94241 0.68818 0.95581 0.0
C988 C 0.39998 0.30238 0.97957 0.0
C989 C 0.378 0.30779 0.98082 0.0
H990 H 0.41459 0.27661 0.9582 0.0
C991 C 0.35182 0.28757 0.96869 0.0
H992 H 0.42035 0.31756 -0.0111 0.0
C993 C 0.34839 0.26386 0.95211 0.0
C994 C 0.37117 0.26015 0.94691 0.0
H995 H 0.33442 0.291 0.96977 0.0
H996 H 0.3287 0.25004 0.93985 0.0
C997 C 0.3966 0.27874 0.96249 0.0
C998 C 0.75487 0.11821 0.9762 0.0
C999 C 0.7497 0.091 0.97877 0.0
H1000 H 0.78022 0.158 0.95344 0.0
C1001 C 0.76978 0.08486 0.96714 0.0
H1002 H 0.73973 0.12349 0.98504 0.0
C1003 C 0.79322 0.10477 0.95005 0.0
C1004 C 0.7968 0.13104 0.94396 0.0
H1005 H 0.76647 0.06413 0.96915 0.0
H1006 H 0.807 0.09874 0.93837 0.0
C1007 C 0.7782 0.13808 0.95859 0.0
C1008 C 0.65557 0.93315 0.04115 0.0
C1009 C 0.67878 0.95834 0.03184 0.0
H1010 H 0.64095 0.89536 0.06921 0.0
C1011 C 0.7053 0.96208 0.03728 0.0
H1012 H 0.63489 0.92975 0.03721 0.0
C1013 C 0.70867 0.94218 0.05463 0.0
C1014 C 0.68561 0.9183 0.06715 0.0
H1015 H 0.72355 0.98118 0.03005 0.0
H1016 H 0.72939 0.94667 0.06122 0.0
C1017 C 0.65898 0.91333 0.05904 0.0
C1018 C 0.12415 0.72699 0.03618 0.0
C1019 C 0.10274 0.72768 0.01786 0.0
H1020 H 0.15792 0.74816 0.07188 0.0
C1021 C 0.10294 0.75284 0.01564 0.0
H1022 H 0.1246 0.70794 0.03835 0.0
C1023 C 0.12231 0.77596 0.03446 0.0
C1024 C 0.14181 0.77429 0.05566 0.0
H1025 H 0.08678 0.75408 0.00166 0.0
H1026 H 0.12033 0.79423 0.03509 0.0
C1027 C 0.14342 0.75007 0.05512 0.0
C1028 C 0.31316 0.40041 0.03902 0.0
C1029 C 0.31581 0.37737 0.03087 0.0
H1030 H 0.29023 0.41519 0.06758 0.0
C1031 C 0.29409 0.35085 0.03856 0.0
H1032 H 0.32971 0.42107 0.03336 0.0
C1033 C 0.27135 0.34752 0.05714 0.0
C1034 C 0.27016 0.37066 0.06875 0.0
H1035 H 0.29555 0.33276 0.03226 0.0
H1036 H 0.25606 0.32701 0.06545 0.0
C1037 C 0.2905 0.39708 0.05823 0.0
C1038 C 0.77052 0.69558 0.35851 0.0
C1039 C 0.77159 0.72116 0.35655 0.0
H1040 H 0.78727 0.67247 0.38195 0.0
C1041 C 0.79435 0.74455 0.37131 0.0
H1042 H 0.7533 0.6772 0.34731 0.0
C1043 C 0.81386 0.74178 0.39108 0.0
C1044 C 0.81109 0.71569 0.39587 0.0
H1045 H 0.79573 0.76453 0.37029 0.0
H1046 H 0.82951 0.75952 0.40525 0.0
C1047 C 0.79012 0.69288 0.37803 0.0
C1048 C 0.3549 0.0864 0.351 0.0
C1049 C 0.33186 0.06026 0.35744 0.0
H1050 H 0.3784 0.12878 0.36738 0.0
C1051 C 0.3117 0.05821 0.38067 0.0
H1052 H 0.37075 0.08864 0.33317 0.0
C1053 C 0.31597 0.08123 0.39982 0.0
C1054 C 0.34038 0.10669 0.39598 0.0
H1055 H 0.29364 0.03841 0.38602 0.0
H1056 H 0.30143 0.07855 0.41992 0.0
C1057 C 0.35918 0.10947 0.37027 0.0
C1058 C 0.97725 0.2662 0.36919 0.0
C1059 C 0.98285 0.29364 0.3693 0.0
H1060 H 0.95218 0.22562 0.39001 0.0
C1061 C 0.96366 0.29974 0.38416 0.0
H1062 H 0.99168 0.26094 0.35779 0.0
C1063 C 0.94077 0.27942 0.40165 0.0
C1064 C 0.93685 0.25275 0.40486 0.0
H1065 H 0.9673 0.32065 0.38424 0.0
H1066 H 0.92774 0.28526 0.41569 0.0
C1067 C 0.95446 0.24589 0.38716 0.0
C1068 C 1.02116 0.41448 0.29254 0.0
C1069 C 0.04629 0.42145 0.30901 0.0
H1070 H 0.99981 0.42761 0.2585 0.0
C1071 C 0.06782 0.4491 0.30885 0.0
H1072 H 1.0041 0.3934 0.29252 0.0
C1073 C 0.06523 0.46876 0.28943 0.0
C1074 C 0.04098 0.46102 0.27038 0.0
H1075 H 0.0874 0.45504 0.32138 0.0
H1076 H 0.08299 0.48927 0.28681 0.0
C1077 C 1.01853 0.4341 0.27344 0.0
C1078 C 0.62853 0.62413 0.31598 0.0
C1079 C 0.62707 0.64841 0.31872 0.0
H1080 H 0.61261 0.58471 0.29111 0.0
C1081 C 0.60444 0.64899 0.30362 0.0
H1082 H 0.64566 0.62301 0.32737 0.0
C1083 C 0.58546 0.62695 0.28292 0.0
C1084 C 0.58863 0.6039 0.2775 0.0
H1085 H 0.60277 0.66742 0.30519 0.0
H1086 H 0.56988 0.629 0.26869 0.0
C1087 C 0.60948 0.60208 0.29549 0.0
C1088 C 0.43536 0.03462 0.3041 0.0
C1089 C 0.41553 1.00768 0.31371 0.0
H1090 H 0.47234 0.05974 0.27562 0.0
C1091 C 0.42145 0.98627 0.30893 0.0
H1092 H 0.43153 0.0516 0.30777 0.0
C1093 C 0.44513 0.99112 0.29095 0.0
C1094 C 0.46312 1.01739 0.27762 0.0
H1095 H 0.40665 0.96534 0.31629 0.0
H1096 H 0.4477 0.97375 0.28419 0.0
C1097 C 0.45894 0.03941 0.28611 0.0
C1098 C 0.60569 0.97581 0.2995 0.0
C1099 C 0.631 0.99866 0.30991 0.0
H1100 H 0.5684 0.96201 0.26982 0.0
C1101 C 0.63544 0.02536 0.30468 0.0
H1102 H 0.60181 0.95501 0.30325 0.0
C1103 C 0.6161 0.02926 0.28652 0.0
C1104 C 0.59215 1.00656 0.27295 0.0
H1105 H 0.65465 0.04331 0.31276 0.0
H1106 H 0.62111 0.05009 0.28023 0.0
C1107 C 0.58645 0.97976 0.28076 0.0
C1108 C 1.02646 0.62329 0.30632 0.0
C1109 C 0.05318 0.64636 0.30855 0.0
H1110 H 1.00109 0.5825 0.286 0.0
C1111 C 0.07583 0.64366 0.2985 0.0
H1112 H 1.00867 0.62471 0.31436 0.0
C1113 C 0.07143 0.61933 0.28228 0.0
C1114 C 0.04439 0.59744 0.27649 0.0
H1115 H 0.09666 0.66113 0.30012 0.0
H1116 H 0.08884 0.61885 0.27089 0.0
C1117 C 1.02213 0.59894 0.29069 0.0
C1118 C 0.41893 0.44901 0.3065 0.0
C1119 C 0.41431 0.42196 0.30837 0.0
H1120 H 0.4436 0.48919 0.28438 0.0
C1121 C 0.43465 0.41644 0.29612 0.0
H1122 H 0.4036 0.45382 0.31593 0.0
C1123 C 0.45778 0.43679 0.27905 0.0
C1124 C 0.46078 0.46291 0.27358 0.0
H1125 H 0.43181 0.39586 0.2977 0.0
H1126 H 0.47178 0.43126 0.26694 0.0
C1127 C 0.44199 0.46936 0.28894 0.0
C1128 C 0.33083 0.26409 0.36227 0.0
C1129 C 0.35247 0.29157 0.36001 0.0
H1130 H 0.31753 0.2242 0.38403 0.0
C1131 C 0.37913 0.29822 0.37077 0.0
H1132 H 0.31011 0.2584 0.35393 0.0
C1133 C 0.38347 0.27853 0.38701 0.0
C1134 C 0.36116 0.25197 0.39316 0.0
H1135 H 0.39629 0.31915 0.36882 0.0
H1136 H 0.40362 0.28491 0.39818 0.0
C1137 C 0.33513 0.2444 0.37898 0.0
C1138 C 0.78915 0.06881 0.38327 0.0
C1139 C 0.76417 0.06606 0.37102 0.0
H1140 H 0.82594 0.09341 0.4135 0.0
C1141 C 0.75987 0.08864 0.37384 0.0
H1142 H 0.79297 0.05171 0.38137 0.0
C1143 C 0.77893 0.11254 0.39137 0.0
C1144 C 0.80255 0.11427 0.40661 0.0
H1145 H 0.74095 0.08722 0.3643 0.0
H1146 H 0.77398 0.12871 0.39572 0.0
C1147 C 0.80816 0.09275 0.40125 0.0
C1148 C 0.9649 0.68399 0.37085 0.0
C1149 C 0.98413 0.70999 0.35783 0.0
H1150 H 0.92936 0.66107 0.40252 0.0
C1151 C 0.97886 0.73193 0.36126 0.0
H1152 H 0.96826 0.66662 0.36823 0.0
C1153 C 0.95639 0.72865 0.38087 0.0
C1154 C 0.93889 0.70334 0.39684 0.0
H1155 H 0.99335 0.75218 0.35139 0.0
H1156 H 0.9543 0.74651 0.38628 0.0
C1157 C 0.94243 0.68068 0.3901 0.0
C1158 C 0.43203 0.0231 0.69881 0.0
C1159 C 0.43522 0.04958 0.69684 0.0
H1160 H 0.44721 0.99805 0.72034 0.0
C1161 C 0.45951 0.07224 0.71004 0.0
H1162 H 0.41362 1.00529 0.6886 0.0
C1163 C 0.47878 0.06801 0.72826 0.0
C1164 C 0.47421 0.04118 0.7328 0.0
H1165 H 0.46245 0.09286 0.70888 0.0
H1166 H 0.49585 0.08533 0.74139 0.0
C1167 C 0.45143 0.01897 0.7165 0.0
C1168 C 1.02396 0.41822 0.69011 0.0
C1169 C 1.00412 0.39239 0.7031 0.0
H1170 H 0.04606 0.46214 0.69859 0.0
C1171 C 0.987 0.39141 0.73008 0.0
H1172 H 0.03744 0.41953 0.66933 0.0
C1173 C 0.99141 0.41569 0.74603 0.0
C1174 C 1.01332 0.44139 0.7357 0.0
H1175 H 0.97138 0.37179 0.74038 0.0
H1176 H 0.97954 0.41422 0.76875 0.0
C1177 C 0.02871 0.44262 0.70656 0.0
C1178 C 0.6289 0.62865 0.71007 0.0
C1179 C 0.64779 0.62203 0.69542 0.0
H1180 H 0.59388 0.61547 0.74286 0.0
C1181 C 0.64236 0.59469 0.69699 0.0
H1182 H 0.6324 0.64949 0.70882 0.0
C1183 C 0.62014 0.57513 0.71649 0.0
C1184 C 0.60308 0.58274 0.73419 0.0
H1185 H 0.65659 0.58907 0.68579 0.0
H1186 H 0.61798 0.55501 0.7205 0.0
C1187 C 0.60666 0.60913 0.72916 0.0
C1188 C 0.68435 0.74558 0.63624 0.0
C1189 C 0.71092 0.75157 0.64647 0.0
H1190 H 0.66029 0.75999 0.61003 0.0
C1191 C 0.73283 0.77896 0.64502 0.0
H1192 H 0.667 0.72471 0.63762 0.0
C1193 C 0.7289 0.79924 0.62928 0.0
C1194 C 0.70297 0.79234 0.61533 0.0
H1195 H 0.75349 0.78414 0.65298 0.0
H1196 H 0.74675 0.81934 0.6245 0.0
C1197 C 0.68036 0.76589 0.62109 0.0
C1198 C 0.27453 0.98172 0.62584 0.0
C1199 C 0.29813 0.9824 0.63978 0.0
H1200 H 0.23879 0.95975 0.59306 0.0
C1201 C 0.30069 0.95876 0.6371 0.0
H1202 H 0.27206 0.99968 0.6275 0.0
C1203 C 0.28142 0.93586 0.61808 0.0
C1204 C 0.25933 0.93622 0.60135 0.0
H1205 H 0.31855 0.95861 0.64779 0.0
H1206 H 0.28516 0.91886 0.61386 0.0
C1207 C 0.25534 0.95882 0.60645 0.0
C1208 C 0.09694 0.32455 0.65096 0.0
C1209 C 0.08952 0.345 0.65465 0.0
H1210 H 0.12278 0.31221 0.62466 0.0
C1211 C 0.1067 0.37116 0.64042 0.0
H1212 H 0.08417 0.30422 0.66177 0.0
C1213 C 0.12881 0.37572 0.61944 0.0
C1214 C 0.13422 0.35425 0.61248 0.0
H1215 H 0.10169 0.38743 0.64305 0.0
H1216 H 0.14007 0.39519 0.60604 0.0
C1217 C 0.11918 0.32916 0.62997 0.0
C1218 C 0.30634 0.36119 0.63736 0.0
C1219 C 0.30095 0.33466 0.6461 0.0
H1220 H 0.29248 0.38511 0.60989 0.0
C1221 C 0.27458 0.31191 0.63921 0.0
H1222 H 0.32644 0.37908 0.64255 0.0
C1223 C 0.25511 0.31539 0.62023 0.0
C1224 C 0.26168 0.34171 0.60864 0.0
H1225 H 0.26997 0.29122 0.64556 0.0
H1226 H 0.23611 0.29733 0.61185 0.0
C1227 C 0.28681 0.36469 0.61903 0.0
C1228 C 0.71001 0.95904 0.65412 0.0
C1229 C 0.73162 0.98517 0.64442 0.0
H1230 H 0.68701 0.91579 0.64138 0.0
C1231 C 0.75048 0.98682 0.61944 0.0
H1232 H 0.69516 0.95721 0.6733 0.0
C1233 C 0.74623 0.96315 0.60198 0.0
C1234 C 0.72282 0.93745 0.6088 0.0
H1235 H 0.76745 1.00667 0.61167 0.0
H1236 H 0.75964 0.96535 0.58064 0.0
C1237 C 0.7055 0.93529 0.63617 0.0
C1238 C 0.08957 0.78276 0.63904 0.0
C1239 C 0.08397 0.75534 0.64005 0.0
H1240 H 0.11459 0.82281 0.61676 0.0
C1241 C 0.10321 0.74892 0.62604 0.0
H1242 H 0.07509 0.78823 0.64977 0.0
C1243 C 0.12604 0.7688 0.60807 0.0
C1244 C 0.12984 0.79531 0.60346 0.0
H1245 H 0.09957 0.72802 0.62688 0.0
H1246 H 0.13907 0.76263 0.59466 0.0
C1247 C 0.11234 0.80263 0.62058 0.0
C1248 C 0.0462 0.63137 0.69969 0.0
C1249 C 1.01959 0.62541 0.68957 0.0
H1250 H 0.07031 0.6173 0.72653 0.0
C1251 C 0.9975 0.59819 0.69238 0.0
H1252 H 0.06368 0.65209 0.69739 0.0
C1253 C 1.00139 0.57819 0.70901 0.0
C1254 C 1.02748 0.5851 0.72249 0.0
H1255 H 0.97679 0.59302 0.68465 0.0
H1256 H 0.9835 0.55832 0.71463 0.0
C1257 C 0.05013 0.61133 0.71577 0.0
C1258 C 0.44109 0.41991 0.69293 0.0
C1259 C 0.44032 0.39443 0.6933 0.0
H1260 H 0.45917 0.46062 0.71471 0.0
C1261 C 0.46127 0.39247 0.71099 0.0
H1262 H 0.4253 0.42208 0.6794 0.0
C1263 C 0.48067 0.41461 0.73115 0.0
C1264 C 0.47968 0.43913 0.73337 0.0
H1265 H 0.46118 0.3731 0.71178 0.0
H1266 H 0.49478 0.4117 0.74745 0.0
C1267 C 0.46066 0.4421 0.71278 0.0
C1268 C 0.62818 1.00713 0.70251 0.0
C1269 C 0.64632 0.03342 0.68927 0.0
H1270 H 0.59317 0.98306 0.7346 0.0
C1271 C 0.63907 0.05407 0.69171 0.0
H1272 H 0.63305 0.99072 0.70072 0.0
C1273 C 0.61598 0.04951 0.71087 0.0
C1274 C 0.59989 0.02427 0.72766 0.0
H1275 H 0.65256 0.07449 0.68158 0.0
H1276 H 0.61253 0.06663 0.71564 0.0
C1277 C 0.60516 1.00261 0.72158 0.0
loop_
_geom_bond_atom_site_label_1
_geom_bond_atom_site_label_2
_geom_bond_distance
_geom_bond_site_symmetry_2
_ccdc_geom_bond_type
In0 O1 2.294 1_455 S
In0 O2 2.326 . S
In0 O6 2.266 1_455 S
In0 O7 2.326 1_454 S
In0 O8 2.266 1_554 S
In0 O9 2.326 1_454 S
In0 O11 2.294 . S
In0 O12 2.326 . S
O1 In0 2.294 1_655 S
O1 C10 1.240 1_655 S
O2 In0 2.326 . S
O2 C10 1.252 . S
C3 O6 1.252 1_556 S
C3 O7 1.260 . S
C4 O11 1.240 . S
C4 O12 1.252 . S
C5 O8 1.252 . S
C5 O9 1.260 1_455 S
O6 In0 2.266 1_655 S
O6 C3 1.252 1_554 S
O7 In0 2.326 1_656 S
O7 C3 1.260 . S
O8 In0 2.266 1_556 S
O8 C5 1.252 . S
O9 In0 2.326 1_656 S
O9 C5 1.260 1_655 S
C10 O1 1.240 1_455 S
C10 O2 1.252 . S
O11 In0 2.294 . S
O11 C4 1.240 . S
O12 In0 2.326 . S
O12 C4 1.252 . S
In13 O14 2.294 . S
In13 O15 2.326 . S
In13 O19 2.266 . S
In13 O20 2.326 1_554 S
In13 O21 2.266 1_554 S
In13 O22 2.326 1_554 S
In13 O24 2.294 . S
In13 O25 2.326 . S
O14 In13 2.294 . S
O14 C23 1.240 . S
O15 In13 2.326 . S
O15 C23 1.252 . S
C16 O19 1.252 1_556 S
C16 O20 1.260 . S
C17 O24 1.240 . S
C17 O25 1.252 . S
C18 O21 1.252 . S
C18 O22 1.260 . S
O19 In13 2.266 . S
O19 C16 1.252 1_554 S
O20 In13 2.326 1_556 S
O20 C16 1.260 . S
O21 In13 2.266 1_556 S
O21 C18 1.252 . S
O22 In13 2.326 1_556 S
O22 C18 1.260 . S
C23 O14 1.240 . S
C23 O15 1.252 . S
O24 In13 2.294 . S
O24 C17 1.240 . S
O25 In13 2.326 . S
O25 C17 1.252 . S
In26 O27 2.294 . S
In26 O28 2.326 1_554 S
In26 O32 2.266 . S
In26 O33 2.326 1_545 S
In26 O34 2.266 1_545 S
In26 O35 2.326 1_545 S
In26 O37 2.294 1_544 S
In26 O38 2.326 1_554 S
O27 In26 2.294 . S
O27 C36 1.240 1_554 S
O28 In26 2.326 1_556 S
O28 C36 1.252 . S
C29 O32 1.252 . S
C29 O33 1.260 1_545 S
C30 O37 1.240 1_545 S
C30 O38 1.252 . S
C31 O34 1.252 . S
C31 O35 1.260 . S
O32 In26 2.266 . S
O32 C29 1.252 . S
O33 In26 2.326 1_565 S
O33 C29 1.260 1_565 S
O34 In26 2.266 1_565 S
O34 C31 1.252 . S
O35 In26 2.326 1_565 S
O35 C31 1.260 . S
C36 O27 1.240 1_556 S
C36 O28 1.252 . S
O37 In26 2.294 1_566 S
O37 C30 1.240 1_565 S
O38 In26 2.326 1_556 S
O38 C30 1.252 . S
In39 O40 2.294 1_554 S
In39 O41 2.326 1_454 S
In39 O45 2.266 . S
In39 O46 2.326 . S
In39 O47 2.266 1_455 S
In39 O48 2.326 . S
In39 O50 2.294 1_455 S
In39 O51 2.326 1_454 S
O40 In39 2.294 1_556 S
O40 C49 1.240 . S
O41 In39 2.326 1_656 S
O41 C49 1.252 1_655 S
C42 O45 1.252 . S
C42 O46 1.260 . S
C43 O50 1.240 1_556 S
C43 O51 1.252 . S
C44 O47 1.252 1_455 S
C44 O48 1.260 . S
O45 In39 2.266 . S
O45 C42 1.252 . S
O46 In39 2.326 . S
O46 C42 1.260 . S
O47 In39 2.266 1_655 S
O47 C44 1.252 1_655 S
O48 In39 2.326 . S
O48 C44 1.260 . S
C49 O40 1.240 . S
C49 O41 1.252 1_455 S
O50 In39 2.294 1_655 S
O50 C43 1.240 1_554 S
O51 In39 2.326 1_656 S
O51 C43 1.252 . S
In52 O53 2.294 1_554 S
In52 O54 2.326 1_554 S
In52 O58 2.266 . S
In52 O59 2.326 . S
In52 O60 2.266 . S
In52 O61 2.326 . S
In52 O63 2.294 . S
In52 O64 2.326 1_554 S
O53 In52 2.294 1_556 S
O53 C62 1.240 . S
O54 In52 2.326 1_556 S
O54 C62 1.252 . S
C55 O58 1.252 . S
C55 O59 1.260 . S
C56 O63 1.240 1_556 S
C56 O64 1.252 . S
C57 O60 1.252 . S
C57 O61 1.260 . S
O58 In52 2.266 . S
O58 C55 1.252 . S
O59 In52 2.326 . S
O59 C55 1.260 . S
O60 In52 2.266 . S
O60 C57 1.252 . S
O61 In52 2.326 . S
O61 C57 1.260 . S
C62 O53 1.240 . S
C62 O54 1.252 . S
O63 In52 2.294 . S
O63 C56 1.240 1_554 S
O64 In52 2.326 1_556 S
O64 C56 1.252 . S
In65 O66 2.294 . S
In65 O67 2.326 1_545 S
In65 O71 2.266 . S
In65 O72 2.326 1_554 S
In65 O73 2.266 1_544 S
In65 O74 2.326 1_554 S
In65 O76 2.294 1_545 S
In65 O77 2.326 1_545 S
O66 In65 2.294 . S
O66 C75 1.240 . S
O67 In65 2.326 1_565 S
O67 C75 1.252 1_565 S
C68 O71 1.252 1_556 S
C68 O72 1.260 . S
C69 O76 1.240 . S
C69 O77 1.252 . S
C70 O73 1.252 1_545 S
C70 O74 1.260 . S
O71 In65 2.266 . S
O71 C68 1.252 1_554 S
O72 In65 2.326 1_556 S
O72 C68 1.260 . S
O73 In65 2.266 1_566 S
O73 C70 1.252 1_565 S
O74 In65 2.326 1_556 S
O74 C70 1.260 . S
C75 O66 1.240 . S
C75 O67 1.252 1_545 S
O76 In65 2.294 1_565 S
O76 C69 1.240 . S
O77 In65 2.326 1_565 S
O77 C69 1.252 . S
In78 O79 2.294 . S
In78 O80 2.326 . S
In78 O84 2.266 . S
In78 O85 2.326 . S
In78 O86 2.266 . S
In78 O87 2.326 . S
In78 O89 2.294 . S
In78 O90 2.326 . S
O79 In78 2.294 . S
O79 C88 1.240 . S
O80 In78 2.326 . S
O80 C88 1.252 . S
C81 O84 1.252 . S
C81 O85 1.260 . S
C82 O89 1.240 . S
C82 O90 1.252 . S
C83 O86 1.252 . S
C83 O87 1.260 . S
O84 In78 2.266 . S
O84 C81 1.252 . S
O85 In78 2.326 . S
O85 C81 1.260 . S
O86 In78 2.266 . S
O86 C83 1.252 . S
O87 In78 2.326 . S
O87 C83 1.260 . S
C88 O79 1.240 . S
C88 O80 1.252 . S
O89 In78 2.294 . S
O89 C82 1.240 . S
O90 In78 2.326 . S
O90 C82 1.252 . S
In91 O92 2.294 . S
In91 O93 2.326 . S
In91 O97 2.266 . S
In91 O98 2.326 1_565 S
In91 O99 2.266 . S
In91 O100 2.326 . S
In91 O102 2.294 1_565 S
In91 O103 2.326 1_565 S
O92 In91 2.294 . S
O92 C101 1.240 . S
O93 In91 2.326 . S
O93 C101 1.252 . S
C94 O97 1.252 . S
C94 O98 1.260 1_565 S
C95 O102 1.240 . S
C95 O103 1.252 . S
C96 O99 1.252 . S
C96 O100 1.260 . S
O97 In91 2.266 . S
O97 C94 1.252 . S
O98 In91 2.326 1_545 S
O98 C94 1.260 1_545 S
O99 In91 2.266 . S
O99 C96 1.252 . S
O100 In91 2.326 . S
O100 C96 1.260 . S
C101 O92 1.240 . S
C101 O93 1.252 . S
O102 In91 2.294 1_545 S
O102 C95 1.240 . S
O103 In91 2.326 1_545 S
O103 C95 1.252 . S
In104 O105 2.294 . S
In104 O106 2.326 . S
In104 O110 2.266 . S
In104 O111 2.326 . S
In104 O112 2.266 1_455 S
In104 O113 2.326 1_455 S
In104 O115 2.294 . S
In104 O116 2.326 . S
O105 In104 2.294 . S
O105 C114 1.240 . S
O106 In104 2.326 . S
O106 C114 1.252 . S
C107 O110 1.252 . S
C107 O111 1.260 . S
C108 O115 1.240 . S
C108 O116 1.252 . S
C109 O112 1.252 . S
C109 O113 1.260 . S
O110 In104 2.266 . S
O110 C107 1.252 . S
O111 In104 2.326 . S
O111 C107 1.260 . S
O112 In104 2.266 1_655 S
O112 C109 1.252 . S
O113 In104 2.326 1_655 S
O113 C109 1.260 . S
C114 O105 1.240 . S
C114 O106 1.252 . S
O115 In104 2.294 . S
O115 C108 1.240 . S
O116 In104 2.326 . S
O116 C108 1.252 . S
In117 O118 2.294 . S
In117 O119 2.326 . S
In117 O123 2.266 1_565 S
In117 O124 2.326 1_565 S
In117 O125 2.266 . S
In117 O126 2.326 . S
In117 O128 2.294 . S
In117 O129 2.326 1_565 S
O118 In117 2.294 . S
O118 C127 1.240 . S
O119 In117 2.326 . S
O119 C127 1.252 . S
C120 O123 1.252 . S
C120 O124 1.260 . S
C121 O128 1.240 . S
C121 O129 1.252 1_565 S
C122 O125 1.252 . S
C122 O126 1.260 . S
O123 In117 2.266 1_545 S
O123 C120 1.252 . S
O124 In117 2.326 1_545 S
O124 C120 1.260 . S
O125 In117 2.266 . S
O125 C122 1.252 . S
O126 In117 2.326 . S
O126 C122 1.260 . S
C127 O118 1.240 . S
C127 O119 1.252 . S
O128 In117 2.294 . S
O128 C121 1.240 . S
O129 In117 2.326 1_545 S
O129 C121 1.252 1_545 S
In130 O131 2.294 . S
In130 O132 2.326 . S
In130 O136 2.266 1_455 S
In130 O137 2.326 1_455 S
In130 O138 2.266 . S
In130 O139 2.326 . S
In130 O141 2.294 . S
In130 O142 2.326 . S
O131 In130 2.294 . S
O131 C140 1.240 . S
O132 In130 2.326 . S
O132 C140 1.252 . S
C133 O136 1.252 . S
C133 O137 1.260 . S
C134 O141 1.240 . S
C134 O142 1.252 . S
C135 O138 1.252 . S
C135 O139 1.260 . S
O136 In130 2.266 1_655 S
O136 C133 1.252 . S
O137 In130 2.326 1_655 S
O137 C133 1.260 . S
O138 In130 2.266 . S
O138 C135 1.252 . S
O139 In130 2.326 . S
O139 C135 1.260 . S
C140 O131 1.240 . S
C140 O132 1.252 . S
O141 In130 2.294 . S
O141 C134 1.240 . S
O142 In130 2.326 . S
O142 C134 1.252 . S
In143 O144 2.294 . S
In143 O145 2.326 . S
In143 O149 2.266 . S
In143 O150 2.326 . S
In143 O151 2.266 . S
In143 O152 2.326 . S
In143 O154 2.294 . S
In143 O155 2.326 . S
O144 In143 2.294 . S
O144 C153 1.240 . S
O145 In143 2.326 . S
O145 C153 1.252 . S
C146 O149 1.252 . S
C146 O150 1.260 . S
C147 O154 1.240 . S
C147 O155 1.252 . S
C148 O151 1.252 . S
C148 O152 1.260 . S
O149 In143 2.266 . S
O149 C146 1.252 . S
O150 In143 2.326 . S
O150 C146 1.260 . S
O151 In143 2.266 . S
O151 C148 1.252 . S
O152 In143 2.326 . S
O152 C148 1.260 . S
C153 O144 1.240 . S
C153 O145 1.252 . S
O154 In143 2.294 . S
O154 C147 1.240 . S
O155 In143 2.326 . S
O155 C147 1.252 . S
In156 O157 2.294 . S
In156 O158 2.326 . S
In156 O162 2.266 . S
In156 O163 2.326 . S
In156 O164 2.266 1_545 S
In156 O165 2.326 1_545 S
In156 O167 2.294 . S
In156 O168 2.326 . S
O157 In156 2.294 . S
O157 C166 1.240 . S
O158 In156 2.326 . S
O158 C166 1.252 . S
C159 O162 1.252 . S
C159 O163 1.260 . S
C160 O167 1.240 . S
C160 O168 1.252 . S
C161 O164 1.252 . S
C161 O165 1.260 . S
O162 In156 2.266 . S
O162 C159 1.252 . S
O163 In156 2.326 . S
O163 C159 1.260 . S
O164 In156 2.266 1_565 S
O164 C161 1.252 . S
O165 In156 2.326 1_565 S
O165 C161 1.260 . S
C166 O157 1.240 . S
C166 O158 1.252 . S
O167 In156 2.294 . S
O167 C160 1.240 . S
O168 In156 2.326 . S
O168 C160 1.252 . S
In169 O170 2.294 . S
In169 O171 2.326 1_655 S
In169 O175 2.266 . S
In169 O176 2.326 . S
In169 O177 2.266 1_655 S
In169 O178 2.326 1_655 S
In169 O180 2.294 . S
In169 O181 2.326 . S
O170 In169 2.294 . S
O170 C179 1.240 . S
O171 In169 2.326 1_455 S
O171 C179 1.252 1_455 S
C172 O175 1.252 . S
C172 O176 1.260 . S
C173 O180 1.240 . S
C173 O181 1.252 . S
C174 O177 1.252 . S
C174 O178 1.260 . S
O175 In169 2.266 . S
O175 C172 1.252 . S
O176 In169 2.326 . S
O176 C172 1.260 . S
O177 In169 2.266 1_455 S
O177 C174 1.252 . S
O178 In169 2.326 1_455 S
O178 C174 1.260 . S
C179 O170 1.240 . S
C179 O171 1.252 1_655 S
O180 In169 2.294 . S
O180 C173 1.240 . S
O181 In169 2.326 . S
O181 C173 1.252 . S
In182 O183 2.294 . S
In182 O184 2.326 . S
In182 O188 2.266 . S
In182 O189 2.326 . S
In182 O190 2.266 . S
In182 O191 2.326 . S
In182 O193 2.294 . S
In182 O194 2.326 . S
O183 In182 2.294 . S
O183 C192 1.240 . S
O184 In182 2.326 . S
O184 C192 1.252 . S
C185 O188 1.252 . S
C185 O189 1.260 . S
C186 O193 1.240 . S
C186 O194 1.252 . S
C187 O190 1.252 . S
C187 O191 1.260 . S
O188 In182 2.266 . S
O188 C185 1.252 . S
O189 In182 2.326 . S
O189 C185 1.260 . S
O190 In182 2.266 . S
O190 C187 1.252 . S
O191 In182 2.326 . S
O191 C187 1.260 . S
C192 O183 1.240 . S
C192 O184 1.252 . S
O193 In182 2.294 . S
O193 C186 1.240 . S
O194 In182 2.326 . S
O194 C186 1.252 . S
In195 O196 2.294 . S
In195 O197 2.326 . S
In195 O201 2.266 . S
In195 O202 2.326 . S
In195 O203 2.266 . S
In195 O204 2.326 . S
In195 O206 2.294 . S
In195 O207 2.326 . S
O196 In195 2.294 . S
O196 C205 1.240 . S
O197 In195 2.326 . S
O197 C205 1.252 . S
C198 O201 1.252 . S
C198 O202 1.260 . S
C199 O206 1.240 . S
C199 O207 1.252 . S
C200 O203 1.252 . S
C200 O204 1.260 . S
O201 In195 2.266 . S
O201 C198 1.252 . S
O202 In195 2.326 . S
O202 C198 1.260 . S
O203 In195 2.266 . S
O203 C200 1.252 . S
O204 In195 2.326 . S
O204 C200 1.260 . S
C205 O196 1.240 . S
C205 O197 1.252 . S
O206 In195 2.294 . S
O206 C199 1.240 . S
O207 In195 2.326 . S
O207 C199 1.252 . S
In208 O209 2.294 . S
In208 O210 2.326 . S
In208 O214 2.266 . S
In208 O215 2.326 . S
In208 O216 2.266 . S
In208 O217 2.326 . S
In208 O219 2.294 1_545 S
In208 O220 2.326 1_545 S
O209 In208 2.294 . S
O209 C218 1.240 . S
O210 In208 2.326 . S
O210 C218 1.252 . S
C211 O214 1.252 . S
C211 O215 1.260 . S
C212 O219 1.240 . S
C212 O220 1.252 . S
C213 O216 1.252 . S
C213 O217 1.260 . S
O214 In208 2.266 . S
O214 C211 1.252 . S
O215 In208 2.326 . S
O215 C211 1.260 . S
O216 In208 2.266 . S
O216 C213 1.252 . S
O217 In208 2.326 . S
O217 C213 1.260 . S
C218 O209 1.240 . S
C218 O210 1.252 . S
O219 In208 2.294 1_565 S
O219 C212 1.240 . S
O220 In208 2.326 1_565 S
O220 C212 1.252 . S
In221 O222 2.294 . S
In221 O223 2.326 1_655 S
In221 O227 2.266 . S
In221 O228 2.326 . S
In221 O229 2.266 1_655 S
In221 O230 2.326 1_655 S
In221 O232 2.294 . S
In221 O233 2.326 . S
O222 In221 2.294 . S
O222 C231 1.240 . S
O223 In221 2.326 1_455 S
O223 C231 1.252 1_455 S
C224 O227 1.252 . S
C224 O228 1.260 . S
C225 O232 1.240 . S
C225 O233 1.252 . S
C226 O229 1.252 . S
C226 O230 1.260 . S
O227 In221 2.266 . S
O227 C224 1.252 . S
O228 In221 2.326 . S
O228 C224 1.260 . S
O229 In221 2.266 1_455 S
O229 C226 1.252 . S
O230 In221 2.326 1_455 S
O230 C226 1.260 . S
C231 O222 1.240 . S
C231 O223 1.252 1_655 S
O232 In221 2.294 . S
O232 C225 1.240 . S
O233 In221 2.326 . S
O233 C225 1.252 . S
H234 C240 0.930 . S
H235 C243 0.931 . S
H236 C245 0.931 . S
H237 C247 0.930 . S
H238 C249 0.930 . S
H239 C251 0.931 . S
C240 H234 0.930 . S
C240 C241 1.380 . S
C240 C242 1.394 . S
C241 C240 1.380 . S
C241 C245 1.382 . S
C242 C240 1.394 . S
C242 C243 1.400 . S
C243 H235 0.931 . S
C243 C242 1.400 . S
C243 C244 1.375 . S
C244 C243 1.375 . S
C244 C245 1.415 . S
C244 C246 1.501 . S
C245 H236 0.931 . S
C245 C241 1.382 . S
C245 C244 1.415 . S
C246 C244 1.501 . S
C246 C247 1.384 . S
C246 C251 1.408 . S
C247 H237 0.930 . S
C247 C246 1.384 . S
C247 C248 1.389 . S
C248 C247 1.389 . S
C248 C249 1.405 . S
C249 H238 0.930 . S
C249 C248 1.405 . S
C249 C250 1.364 . S
C250 C249 1.364 . S
C250 C251 1.400 . S
C251 H239 0.931 . S
C251 C246 1.408 . S
C251 C250 1.400 . S
H252 C258 0.930 . S
H253 C261 0.931 . S
H254 C263 0.931 . S
H255 C265 0.930 . S
H256 C267 0.930 . S
H257 C269 0.931 . S
C258 H252 0.930 . S
C258 C259 1.380 . S
C258 C260 1.394 . S
C259 C258 1.380 . S
C259 C263 1.382 . S
C260 C258 1.394 . S
C260 C261 1.400 . S
C261 H253 0.931 . S
C261 C260 1.400 . S
C261 C262 1.375 . S
C262 C261 1.375 . S
C262 C263 1.415 . S
C262 C264 1.501 . S
C263 H254 0.931 . S
C263 C259 1.382 . S
C263 C262 1.415 . S
C264 C262 1.501 . S
C264 C265 1.384 . S
C264 C269 1.408 . S
C265 H255 0.930 . S
C265 C264 1.384 . S
C265 C266 1.389 . S
C266 C265 1.389 . S
C266 C267 1.405 . S
C267 H256 0.930 . S
C267 C266 1.405 . S
C267 C268 1.364 . S
C268 C267 1.364 . S
C268 C269 1.400 . S
C269 H257 0.931 . S
C269 C264 1.408 . S
C269 C268 1.400 . S
H270 C276 0.930 . S
H271 C279 0.931 . S
H272 C281 0.931 . S
H273 C283 0.930 . S
H274 C285 0.930 . S
H275 C287 0.931 . S
C276 H270 0.930 . S
C276 C277 1.380 . S
C276 C278 1.394 . S
C277 C276 1.380 . S
C277 C281 1.382 . S
C278 C276 1.394 . S
C278 C279 1.400 . S
C279 H271 0.931 . S
C279 C278 1.400 . S
C279 C280 1.375 . S
C280 C279 1.375 . S
C280 C281 1.415 . S
C280 C282 1.501 . S
C281 H272 0.931 . S
C281 C277 1.382 . S
C281 C280 1.415 . S
C282 C280 1.501 . S
C282 C283 1.384 . S
C282 C287 1.408 . S
C283 H273 0.930 . S
C283 C282 1.384 . S
C283 C284 1.389 . S
C284 C283 1.389 . S
C284 C285 1.405 . S
C285 H274 0.930 . S
C285 C284 1.405 . S
C285 C286 1.364 . S
C286 C285 1.364 . S
C286 C287 1.400 . S
C287 H275 0.931 . S
C287 C282 1.408 . S
C287 C286 1.400 . S
H288 C294 0.930 . S
H289 C297 0.931 . S
H290 C299 0.931 . S
H291 C301 0.930 . S
H292 C303 0.930 . S
H293 C305 0.931 . S
C294 H288 0.930 . S
C294 C295 1.380 . S
C294 C296 1.394 . S
C295 C294 1.380 . S
C295 C299 1.382 . S
C296 C294 1.394 . S
C296 C297 1.400 . S
C297 H289 0.931 . S
C297 C296 1.400 . S
C297 C298 1.375 . S
C298 C297 1.375 . S
C298 C299 1.415 . S
C298 C300 1.501 . S
C299 H290 0.931 . S
C299 C295 1.382 . S
C299 C298 1.415 . S
C300 C298 1.501 . S
C300 C301 1.384 . S
C300 C305 1.408 . S
C301 H291 0.930 . S
C301 C300 1.384 . S
C301 C302 1.389 . S
C302 C301 1.389 . S
C302 C303 1.405 . S
C303 H292 0.930 . S
C303 C302 1.405 . S
C303 C304 1.364 . S
C304 C303 1.364 . S
C304 C305 1.400 . S
C305 H293 0.931 . S
C305 C300 1.408 . S
C305 C304 1.400 . S
H306 C312 0.930 . S
H307 C315 0.931 . S
H308 C317 0.931 . S
H309 C319 0.930 . S
H310 C321 0.930 . S
H311 C323 0.931 . S
C312 H306 0.930 . S
C312 C313 1.380 . S
C312 C314 1.394 . S
C313 C312 1.380 . S
C313 C317 1.382 . S
C314 C312 1.394 . S
C314 C315 1.400 . S
C315 H307 0.931 . S
C315 C314 1.400 . S
C315 C316 1.375 . S
C316 C315 1.375 . S
C316 C317 1.415 . S
C316 C318 1.501 . S
C317 H308 0.931 . S
C317 C313 1.382 . S
C317 C316 1.415 . S
C318 C316 1.501 . S
C318 C319 1.384 . S
C318 C323 1.408 . S
C319 H309 0.930 . S
C319 C318 1.384 . S
C319 C320 1.389 . S
C320 C319 1.389 . S
C320 C321 1.405 . S
C321 H310 0.930 . S
C321 C320 1.405 . S
C321 C322 1.364 . S
C322 C321 1.364 . S
C322 C323 1.400 . S
C323 H311 0.931 . S
C323 C318 1.408 . S
C323 C322 1.400 . S
H324 C330 0.930 . S
H325 C333 0.931 . S
H326 C335 0.931 . S
H327 C337 0.930 . S
H328 C339 0.930 . S
H329 C341 0.931 . S
C330 H324 0.930 . S
C330 C331 1.380 . S
C330 C332 1.394 . S
C331 C330 1.380 . S
C331 C335 1.382 . S
C332 C330 1.394 . S
C332 C333 1.400 . S
C333 H325 0.931 . S
C333 C332 1.400 . S
C333 C334 1.375 . S
C334 C333 1.375 . S
C334 C335 1.415 . S
C334 C336 1.501 . S
C335 H326 0.931 . S
C335 C331 1.382 . S
C335 C334 1.415 . S
C336 C334 1.501 . S
C336 C337 1.384 . S
C336 C341 1.408 . S
C337 H327 0.930 . S
C337 C336 1.384 . S
C337 C338 1.389 . S
C338 C337 1.389 . S
C338 C339 1.405 . S
C339 H328 0.930 . S
C339 C338 1.405 . S
C339 C340 1.364 . S
C340 C339 1.364 . S
C340 C341 1.400 . S
C341 H329 0.931 . S
C341 C336 1.408 . S
C341 C340 1.400 . S
H342 C348 0.930 . S
H343 C351 0.931 . S
H344 C353 0.931 . S
H345 C355 0.930 . S
H346 C357 0.930 . S
H347 C359 0.931 . S
C348 H342 0.930 . S
C348 C349 1.380 . S
C348 C350 1.394 . S
C349 C348 1.380 . S
C349 C353 1.382 . S
C350 C348 1.394 . S
C350 C351 1.400 . S
C351 H343 0.931 . S
C351 C350 1.400 . S
C351 C352 1.375 . S
C352 C351 1.375 . S
C352 C353 1.415 . S
C352 C354 1.501 . S
C353 H344 0.931 . S
C353 C349 1.382 . S
C353 C352 1.415 . S
C354 C352 1.501 . S
C354 C355 1.384 . S
C354 C359 1.408 . S
C355 H345 0.930 . S
C355 C354 1.384 . S
C355 C356 1.389 . S
C356 C355 1.389 . S
C356 C357 1.405 . S
C357 H346 0.930 . S
C357 C356 1.405 . S
C357 C358 1.364 . S
C358 C357 1.364 . S
C358 C359 1.400 . S
C359 H347 0.931 . S
C359 C354 1.408 . S
C359 C358 1.400 . S
H360 C366 0.930 . S
H361 C369 0.931 . S
H362 C371 0.931 . S
H363 C373 0.930 . S
H364 C375 0.930 . S
H365 C377 0.931 . S
C366 H360 0.930 . S
C366 C367 1.380 . S
C366 C368 1.394 . S
C367 C366 1.380 . S
C367 C371 1.382 . S
C368 C366 1.394 . S
C368 C369 1.400 . S
C369 H361 0.931 . S
C369 C368 1.400 . S
C369 C370 1.375 . S
C370 C369 1.375 . S
C370 C371 1.415 . S
C370 C372 1.501 . S
C371 H362 0.931 . S
C371 C367 1.382 . S
C371 C370 1.415 . S
C372 C370 1.501 . S
C372 C373 1.384 . S
C372 C377 1.408 . S
C373 H363 0.930 . S
C373 C372 1.384 . S
C373 C374 1.389 . S
C374 C373 1.389 . S
C374 C375 1.405 . S
C375 H364 0.930 . S
C375 C374 1.405 . S
C375 C376 1.364 . S
C376 C375 1.364 . S
C376 C377 1.400 . S
C377 H365 0.931 . S
C377 C372 1.408 . S
C377 C376 1.400 . S
H378 C384 0.930 . S
H379 C387 0.931 . S
H380 C389 0.931 . S
H381 C391 0.930 . S
H382 C393 0.930 . S
H383 C395 0.931 . S
C384 H378 0.930 . S
C384 C385 1.380 . S
C384 C386 1.394 . S
C385 C384 1.380 . S
C385 C389 1.382 . S
C386 C384 1.394 . S
C386 C387 1.400 . S
C387 H379 0.931 . S
C387 C386 1.400 . S
C387 C388 1.375 . S
C388 C387 1.375 . S
C388 C389 1.415 . S
C388 C390 1.501 . S
C389 H380 0.931 . S
C389 C385 1.382 . S
C389 C388 1.415 . S
C390 C388 1.501 . S
C390 C391 1.384 . S
C390 C395 1.408 . S
C391 H381 0.930 . S
C391 C390 1.384 . S
C391 C392 1.389 . S
C392 C391 1.389 . S
C392 C393 1.405 . S
C393 H382 0.930 . S
C393 C392 1.405 . S
C393 C394 1.364 . S
C394 C393 1.364 . S
C394 C395 1.400 . S
C395 H383 0.931 . S
C395 C390 1.408 . S
C395 C394 1.400 . S
H396 C402 0.930 . S
H397 C405 0.931 . S
H398 C407 0.931 . S
H399 C409 0.930 . S
H400 C411 0.930 . S
H401 C413 0.931 . S
C402 H396 0.930 . S
C402 C403 1.380 . S
C402 C404 1.394 . S
C403 C402 1.380 . S
C403 C407 1.382 . S
C404 C402 1.394 . S
C404 C405 1.400 . S
C405 H397 0.931 . S
C405 C404 1.400 . S
C405 C406 1.375 . S
C406 C405 1.375 . S
C406 C407 1.415 . S
C406 C408 1.501 . S
C407 H398 0.931 . S
C407 C403 1.382 . S
C407 C406 1.415 . S
C408 C406 1.501 . S
C408 C409 1.384 . S
C408 C413 1.408 . S
C409 H399 0.930 . S
C409 C408 1.384 . S
C409 C410 1.389 . S
C410 C409 1.389 . S
C410 C411 1.405 . S
C411 H400 0.930 . S
C411 C410 1.405 . S
C411 C412 1.364 . S
C412 C411 1.364 . S
C412 C413 1.400 . S
C413 H401 0.931 . S
C413 C408 1.408 . S
C413 C412 1.400 . S
H414 C420 0.930 . S
H415 C423 0.931 . S
H416 C425 0.931 . S
H417 C427 0.930 . S
H418 C429 0.930 . S
H419 C431 0.931 . S
C420 H414 0.930 . S
C420 C421 1.380 . S
C420 C422 1.394 . S
C421 C420 1.380 . S
C421 C425 1.382 . S
C422 C420 1.394 . S
C422 C423 1.400 . S
C423 H415 0.931 . S
C423 C422 1.400 . S
C423 C424 1.375 . S
C424 C423 1.375 . S
C424 C425 1.415 . S
C424 C426 1.501 . S
C425 H416 0.931 . S
C425 C421 1.382 . S
C425 C424 1.415 . S
C426 C424 1.501 . S
C426 C427 1.384 . S
C426 C431 1.408 . S
C427 H417 0.930 . S
C427 C426 1.384 . S
C427 C428 1.389 . S
C428 C427 1.389 . S
C428 C429 1.405 . S
C429 H418 0.930 . S
C429 C428 1.405 . S
C429 C430 1.364 . S
C430 C429 1.364 . S
C430 C431 1.400 . S
C431 H419 0.931 . S
C431 C426 1.408 . S
C431 C430 1.400 . S
H432 C438 0.949 . S
H433 C441 0.931 . S
H434 C443 0.931 . S
H435 C445 0.930 . S
H436 C447 0.930 . S
H437 C449 0.919 1_545 S
C438 H432 0.949 . S
C438 C439 1.376 . S
C438 C440 1.380 1_545 S
C439 C438 1.376 . S
C439 C443 1.382 . S
C440 C438 1.380 1_565 S
C440 C441 1.400 . S
C441 H433 0.931 . S
C441 C440 1.400 . S
C441 C442 1.375 . S
C442 C441 1.375 . S
C442 C443 1.415 1_565 S
C442 C444 1.501 . S
C443 H434 0.931 . S
C443 C439 1.382 . S
C443 C442 1.415 1_545 S
C444 C442 1.501 . S
C444 C445 1.384 . S
C444 C449 1.399 . S
C445 H435 0.930 . S
C445 C444 1.384 . S
C445 C446 1.389 . S
C446 C445 1.389 . S
C446 C447 1.405 . S
C447 H436 0.930 . S
C447 C446 1.405 . S
C447 C448 1.374 . S
C448 C447 1.374 . S
C448 C449 1.406 . S
C449 H437 0.919 1_565 S
C449 C444 1.399 . S
C449 C448 1.406 . S
H450 C456 0.930 . S
H451 C459 0.931 . S
H452 C461 0.931 . S
H453 C463 0.930 . S
H454 C465 0.930 . S
H455 C467 0.931 . S
C456 H450 0.930 . S
C456 C457 1.380 . S
C456 C458 1.394 . S
C457 C456 1.380 . S
C457 C461 1.382 . S
C458 C456 1.394 . S
C458 C459 1.400 . S
C459 H451 0.931 . S
C459 C458 1.400 . S
C459 C460 1.375 . S
C460 C459 1.375 . S
C460 C461 1.415 . S
C460 C462 1.501 . S
C461 H452 0.931 . S
C461 C457 1.382 . S
C461 C460 1.415 . S
C462 C460 1.501 . S
C462 C463 1.384 . S
C462 C467 1.408 . S
C463 H453 0.930 . S
C463 C462 1.384 . S
C463 C464 1.389 . S
C464 C463 1.389 . S
C464 C465 1.405 . S
C465 H454 0.930 . S
C465 C464 1.405 . S
C465 C466 1.364 . S
C466 C465 1.364 . S
C466 C467 1.400 . S
C467 H455 0.931 . S
C467 C462 1.408 . S
C467 C466 1.400 . S
H468 C474 0.955 . S
H469 C477 0.931 . S
H470 C479 0.934 1_655 S
H471 C481 0.930 . S
H472 C483 0.930 . S
H473 C485 0.931 . S
C474 H468 0.955 . S
C474 C475 1.377 . S
C474 C476 1.381 1_655 S
C475 C474 1.377 . S
C475 C479 1.358 1_655 S
C476 C474 1.381 1_455 S
C476 C477 1.400 . S
C477 H469 0.931 . S
C477 C476 1.400 . S
C477 C478 1.375 . S
C478 C477 1.375 . S
C478 C479 1.419 . S
C478 C480 1.501 . S
C479 H470 0.934 1_455 S
C479 C475 1.358 1_455 S
C479 C478 1.419 . S
C480 C478 1.501 . S
C480 C481 1.384 . S
C480 C485 1.408 1_455 S
C481 H471 0.930 . S
C481 C480 1.384 . S
C481 C482 1.389 . S
C482 C481 1.389 . S
C482 C483 1.405 . S
C483 H472 0.930 . S
C483 C482 1.405 . S
C483 C484 1.364 1_455 S
C484 C483 1.364 1_655 S
C484 C485 1.400 . S
C485 H473 0.931 . S
C485 C480 1.408 1_655 S
C485 C484 1.400 . S
H486 C492 0.930 . S
H487 C495 0.931 . S
H488 C497 0.931 . S
H489 C499 0.930 . S
H490 C501 0.930 . S
H491 C503 0.931 . S
C492 H486 0.930 . S
C492 C493 1.380 . S
C492 C494 1.394 . S
C493 C492 1.380 . S
C493 C497 1.382 . S
C494 C492 1.394 . S
C494 C495 1.400 . S
C495 H487 0.931 . S
C495 C494 1.400 . S
C495 C496 1.375 . S
C496 C495 1.375 . S
C496 C497 1.415 . S
C496 C498 1.501 . S
C497 H488 0.931 . S
C497 C493 1.382 . S
C497 C496 1.415 . S
C498 C496 1.501 . S
C498 C499 1.384 . S
C498 C503 1.408 . S
C499 H489 0.930 . S
C499 C498 1.384 . S
C499 C500 1.389 . S
C500 C499 1.389 . S
C500 C501 1.405 . S
C501 H490 0.930 . S
C501 C500 1.405 . S
C501 C502 1.364 . S
C502 C501 1.364 . S
C502 C503 1.400 . S
C503 H491 0.931 . S
C503 C498 1.408 . S
C503 C502 1.400 . S
H504 C510 0.930 . S
H505 C513 0.931 . S
H506 C515 0.931 . S
H507 C517 0.930 . S
H508 C519 0.930 . S
H509 C521 0.931 . S
C510 H504 0.930 . S
C510 C511 1.380 . S
C510 C512 1.394 . S
C511 C510 1.380 . S
C511 C515 1.382 . S
C512 C510 1.394 . S
C512 C513 1.400 . S
C513 H505 0.931 . S
C513 C512 1.400 . S
C513 C514 1.375 . S
C514 C513 1.375 . S
C514 C515 1.415 . S
C514 C516 1.501 . S
C515 H506 0.931 . S
C515 C511 1.382 . S
C515 C514 1.415 . S
C516 C514 1.501 . S
C516 C517 1.384 . S
C516 C521 1.408 . S
C517 H507 0.930 . S
C517 C516 1.384 . S
C517 C518 1.389 . S
C518 C517 1.389 . S
C518 C519 1.405 . S
C519 H508 0.930 . S
C519 C518 1.405 . S
C519 C520 1.364 . S
C520 C519 1.364 . S
C520 C521 1.400 . S
C521 H509 0.931 . S
C521 C516 1.408 . S
C521 C520 1.400 . S
H522 C528 0.930 . S
H523 C531 0.931 . S
H524 C533 0.931 . S
H525 C535 0.930 . S
H526 C537 0.930 . S
H527 C539 0.931 . S
C528 H522 0.930 . S
C528 C529 1.380 . S
C528 C530 1.394 . S
C529 C528 1.380 . S
C529 C533 1.382 . S
C530 C528 1.394 . S
C530 C531 1.400 . S
C531 H523 0.931 . S
C531 C530 1.400 . S
C531 C532 1.375 . S
C532 C531 1.375 . S
C532 C533 1.415 . S
C532 C534 1.501 . S
C533 H524 0.931 . S
C533 C529 1.382 . S
C533 C532 1.415 . S
C534 C532 1.501 . S
C534 C535 1.384 . S
C534 C539 1.408 . S
C535 H525 0.930 . S
C535 C534 1.384 . S
C535 C536 1.389 . S
C536 C535 1.389 . S
C536 C537 1.405 . S
C537 H526 0.930 . S
C537 C536 1.405 . S
C537 C538 1.364 . S
C538 C537 1.364 . S
C538 C539 1.400 . S
C539 H527 0.931 . S
C539 C534 1.408 . S
C539 C538 1.400 . S
H540 C546 0.930 . S
H541 C549 0.931 . S
H542 C551 0.931 . S
H543 C553 0.930 . S
H544 C555 0.930 . S
H545 C557 0.931 . S
C546 H540 0.930 . S
C546 C547 1.380 . S
C546 C548 1.394 . S
C547 C546 1.380 . S
C547 C551 1.382 . S
C548 C546 1.394 . S
C548 C549 1.400 . S
C549 H541 0.931 . S
C549 C548 1.400 . S
C549 C550 1.375 . S
C550 C549 1.375 . S
C550 C551 1.415 . S
C550 C552 1.501 . S
C551 H542 0.931 . S
C551 C547 1.382 . S
C551 C550 1.415 . S
C552 C550 1.501 . S
C552 C553 1.384 . S
C552 C557 1.408 . S
C553 H543 0.930 . S
C553 C552 1.384 . S
C553 C554 1.389 . S
C554 C553 1.389 . S
C554 C555 1.405 . S
C555 H544 0.930 . S
C555 C554 1.405 . S
C555 C556 1.364 . S
C556 C555 1.364 . S
C556 C557 1.400 . S
C557 H545 0.931 . S
C557 C552 1.408 . S
C557 C556 1.400 . S
C558 C559 1.387 . S
C558 H562 0.950 . S
C558 C567 1.390 . S
C559 C558 1.387 . S
C559 C561 1.387 1_455 S
H560 C567 0.950 . S
C561 C559 1.387 1_655 S
C561 C563 1.390 . S
C561 H565 0.950 . S
H562 C558 0.950 . S
C563 C561 1.390 . S
C563 C564 1.387 1_655 S
C563 H566 0.950 . S
C564 C563 1.387 1_455 S
C564 C567 1.387 . S
H565 C561 0.950 . S
H566 C563 0.950 . S
C567 C558 1.390 . S
C567 H560 0.950 . S
C567 C564 1.387 . S
C568 C569 1.387 . S
C568 H572 0.950 . S
C568 C577 1.390 . S
C569 C568 1.387 . S
C569 C571 1.387 . S
H570 C577 0.950 . S
C571 C569 1.387 . S
C571 C573 1.390 . S
C571 H575 0.950 . S
H572 C568 0.950 . S
C573 C571 1.390 . S
C573 C574 1.387 . S
C573 H576 0.950 . S
C574 C573 1.387 . S
C574 C577 1.387 . S
H575 C571 0.950 . S
H576 C573 0.950 . S
C577 C568 1.390 . S
C577 H570 0.950 . S
C577 C574 1.387 . S
C578 C579 1.387 1_565 S
C578 H582 0.950 . S
C578 C587 1.390 . S
C579 C578 1.387 1_545 S
C579 C581 1.387 . S
H580 C587 0.950 . S
C581 C579 1.387 . S
C581 C583 1.390 . S
C581 H585 0.950 . S
H582 C578 0.950 . S
C583 C581 1.390 . S
C583 C584 1.387 . S
C583 H586 0.950 . S
C584 C583 1.387 . S
C584 C587 1.387 1_545 S
H585 C581 0.950 . S
H586 C583 0.950 . S
C587 C578 1.390 . S
C587 H580 0.950 . S
C587 C584 1.387 1_565 S
C588 C589 1.387 1_565 S
C588 H592 0.950 . S
C588 C597 1.390 . S
C589 C588 1.387 1_545 S
C589 C591 1.387 . S
H590 C597 0.950 . S
C591 C589 1.387 . S
C591 C593 1.390 . S
C591 H595 0.950 . S
H592 C588 0.950 . S
C593 C591 1.390 . S
C593 C594 1.387 . S
C593 H596 0.950 . S
C594 C593 1.387 . S
C594 C597 1.387 1_545 S
H595 C591 0.950 . S
H596 C593 0.950 . S
C597 C588 1.390 . S
C597 H590 0.950 . S
C597 C594 1.387 1_565 S
C598 C599 1.387 1_655 S
C598 H602 0.950 . S
C598 C607 1.390 . S
C599 C598 1.387 1_455 S
C599 C601 1.387 . S
H600 C607 0.950 . S
C601 C599 1.387 . S
C601 C603 1.390 . S
C601 H605 0.950 . S
H602 C598 0.950 . S
C603 C601 1.390 . S
C603 C604 1.387 . S
C603 H606 0.950 . S
C604 C603 1.387 . S
C604 C607 1.387 1_455 S
H605 C601 0.950 . S
H606 C603 0.950 . S
C607 C598 1.390 . S
C607 H600 0.950 . S
C607 C604 1.387 1_655 S
C608 C609 1.387 . S
C608 H612 0.950 . S
C608 C617 1.390 . S
C609 C608 1.387 . S
C609 C611 1.387 . S
H610 C617 0.950 . S
C611 C609 1.387 . S
C611 C613 1.390 . S
C611 H615 0.950 . S
H612 C608 0.950 . S
C613 C611 1.390 . S
C613 C614 1.387 . S
C613 H616 0.950 . S
C614 C613 1.387 . S
C614 C617 1.387 . S
H615 C611 0.950 . S
H616 C613 0.950 . S
C617 C608 1.390 . S
C617 H610 0.950 . S
C617 C614 1.387 . S
C618 C619 1.387 . S
C618 H622 0.950 . S
C618 C627 1.390 . S
C619 C618 1.387 . S
C619 C621 1.387 1_455 S
H620 C627 0.950 . S
C621 C619 1.387 1_655 S
C621 C623 1.390 . S
C621 H625 0.950 . S
H622 C618 0.950 . S
C623 C621 1.390 . S
C623 C624 1.408 . S
C623 H626 0.950 . S
C624 C623 1.408 . S
C624 C627 1.377 1_655 S
H625 C621 0.950 . S
H626 C623 0.950 . S
C627 C618 1.390 . S
C627 H620 0.950 . S
C627 C624 1.377 1_455 S
C628 C629 1.387 . S
C628 H632 0.950 . S
C628 C637 1.390 . S
C629 C628 1.387 . S
C629 C631 1.387 . S
H630 C637 0.950 . S
C631 C629 1.387 . S
C631 C633 1.390 . S
C631 H635 0.950 . S
H632 C628 0.950 . S
C633 C631 1.390 . S
C633 C634 1.387 . S
C633 H636 0.950 . S
C634 C633 1.387 . S
C634 C637 1.387 . S
H635 C631 0.950 . S
H636 C633 0.950 . S
C637 C628 1.390 . S
C637 H630 0.950 . S
C637 C634 1.387 . S
C638 C639 1.387 . S
C638 H642 0.950 . S
C638 C647 1.390 . S
C639 C638 1.387 . S
C639 C641 1.387 1_545 S
H640 C647 0.950 . S
C641 C639 1.387 1_565 S
C641 C643 1.390 . S
C641 H645 0.950 . S
H642 C638 0.950 . S
C643 C641 1.390 . S
C643 C644 1.387 1_565 S
C643 H646 0.950 . S
C644 C643 1.387 1_545 S
C644 C647 1.387 . S
H645 C641 0.950 . S
H646 C643 0.950 . S
C647 C638 1.390 . S
C647 H640 0.950 . S
C647 C644 1.387 . S
C648 C649 1.387 1_565 S
C648 H652 0.950 . S
C648 C657 1.390 . S
C649 C648 1.387 1_545 S
C649 C651 1.387 . S
H650 C657 0.950 . S
C651 C649 1.387 . S
C651 C653 1.390 . S
C651 H655 0.950 . S
H652 C648 0.950 . S
C653 C651 1.390 . S
C653 C654 1.376 1_545 S
C653 H656 0.950 . S
C654 C653 1.376 1_565 S
C654 C657 1.406 . S
H655 C651 0.950 . S
H656 C653 0.950 . S
C657 C648 1.390 . S
C657 H650 0.950 . S
C657 C654 1.406 . S
C658 C659 1.387 . S
C658 H662 0.950 . S
C658 C667 1.390 . S
C659 C658 1.387 . S
C659 C661 1.387 . S
H660 C667 0.950 . S
C661 C659 1.387 . S
C661 C663 1.390 . S
C661 H665 0.950 . S
H662 C658 0.950 . S
C663 C661 1.390 . S
C663 C664 1.387 . S
C663 H666 0.950 . S
C664 C663 1.387 . S
C664 C667 1.387 . S
H665 C661 0.950 . S
H666 C663 0.950 . S
C667 C658 1.390 . S
C667 H660 0.950 . S
C667 C664 1.387 . S
C668 C669 1.387 . S
C668 H672 0.950 . S
C668 C677 1.390 . S
C669 C668 1.387 . S
C669 C671 1.387 . S
H670 C677 0.950 . S
C671 C669 1.387 . S
C671 C673 1.390 . S
C671 H675 0.950 . S
H672 C668 0.950 . S
C673 C671 1.390 . S
C673 C674 1.387 . S
C673 H676 0.950 . S
C674 C673 1.387 . S
C674 C677 1.387 . S
H675 C671 0.950 . S
H676 C673 0.950 . S
C677 C668 1.390 . S
C677 H670 0.950 . S
C677 C674 1.387 . S
C678 C679 1.387 . S
C678 H682 0.950 . S
C678 C687 1.390 . S
C679 C678 1.387 . S
C679 C681 1.387 . S
H680 C687 0.950 . S
C681 C679 1.387 . S
C681 C683 1.390 . S
C681 H685 0.950 . S
H682 C678 0.950 . S
C683 C681 1.390 . S
C683 C684 1.387 . S
C683 H686 0.950 . S
C684 C683 1.387 . S
C684 C687 1.387 . S
H685 C681 0.950 . S
H686 C683 0.950 . S
C687 C678 1.390 . S
C687 H680 0.950 . S
C687 C684 1.387 . S
C688 C689 1.387 . S
C688 H692 0.950 . S
C688 C697 1.390 . S
C689 C688 1.387 . S
C689 C691 1.387 . S
H690 C697 0.950 . S
C691 C689 1.387 . S
C691 C693 1.390 . S
C691 H695 0.950 . S
H692 C688 0.950 . S
C693 C691 1.390 . S
C693 C694 1.387 . S
C693 H696 0.950 . S
C694 C693 1.387 . S
C694 C697 1.387 . S
H695 C691 0.950 . S
H696 C693 0.950 . S
C697 C688 1.390 . S
C697 H690 0.950 . S
C697 C694 1.387 . S
C698 C699 1.387 . S
C698 H702 0.950 . S
C698 C707 1.390 . S
C699 C698 1.387 . S
C699 C701 1.387 . S
H700 C707 0.950 . S
C701 C699 1.387 . S
C701 C703 1.390 . S
C701 H705 0.950 . S
H702 C698 0.950 . S
C703 C701 1.390 . S
C703 C704 1.387 . S
C703 H706 0.950 . S
C704 C703 1.387 . S
C704 C707 1.387 . S
H705 C701 0.950 . S
H706 C703 0.950 . S
C707 C698 1.390 . S
C707 H700 0.950 . S
C707 C704 1.387 . S
C708 C709 1.387 . S
C708 H712 0.950 . S
C708 C717 1.390 . S
C709 C708 1.387 . S
C709 C711 1.387 . S
H710 C717 0.950 . S
C711 C709 1.387 . S
C711 C713 1.390 . S
C711 H715 0.950 . S
H712 C708 0.950 . S
C713 C711 1.390 . S
C713 C714 1.387 . S
C713 H716 0.950 . S
C714 C713 1.387 . S
C714 C717 1.387 . S
H715 C711 0.950 . S
H716 C713 0.950 . S
C717 C708 1.390 . S
C717 H710 0.950 . S
C717 C714 1.387 . S
C718 C719 1.387 . S
C718 H722 0.950 . S
C718 C727 1.390 . S
C719 C718 1.387 . S
C719 C721 1.387 . S
H720 C727 0.950 . S
C721 C719 1.387 . S
C721 C723 1.390 . S
C721 H725 0.950 . S
H722 C718 0.950 . S
C723 C721 1.390 . S
C723 C724 1.387 . S
C723 H726 0.950 . S
C724 C723 1.387 . S
C724 C727 1.387 . S
H725 C721 0.950 . S
H726 C723 0.950 . S
C727 C718 1.390 . S
C727 H720 0.950 . S
C727 C724 1.387 . S
C728 C729 1.387 . S
C728 H732 0.950 . S
C728 C737 1.390 . S
C729 C728 1.387 . S
C729 C731 1.387 . S
H730 C737 0.950 . S
C731 C729 1.387 . S
C731 C733 1.390 . S
C731 H735 0.950 . S
H732 C728 0.950 . S
C733 C731 1.390 . S
C733 C734 1.387 . S
C733 H736 0.950 . S
C734 C733 1.387 . S
C734 C737 1.387 . S
H735 C731 0.950 . S
H736 C733 0.950 . S
C737 C728 1.390 . S
C737 H730 0.950 . S
C737 C734 1.387 . S
C738 C739 1.387 . S
C738 H742 0.950 . S
C738 C747 1.390 . S
C739 C738 1.387 . S
C739 C741 1.387 . S
H740 C747 0.950 . S
C741 C739 1.387 . S
C741 C743 1.390 . S
C741 H745 0.950 . S
H742 C738 0.950 . S
C743 C741 1.390 . S
C743 C744 1.387 . S
C743 H746 0.950 . S
C744 C743 1.387 . S
C744 C747 1.387 . S
H745 C741 0.950 . S
H746 C743 0.950 . S
C747 C738 1.390 . S
C747 H740 0.950 . S
C747 C744 1.387 . S
C748 C749 1.387 . S
C748 H752 0.950 . S
C748 C757 1.390 . S
C749 C748 1.387 . S
C749 C751 1.387 . S
H750 C757 0.950 . S
C751 C749 1.387 . S
C751 C753 1.390 . S
C751 H755 0.950 . S
H752 C748 0.950 . S
C753 C751 1.390 . S
C753 C754 1.387 . S
C753 H756 0.950 . S
C754 C753 1.387 . S
C754 C757 1.387 . S
H755 C751 0.950 . S
H756 C753 0.950 . S
C757 C748 1.390 . S
C757 H750 0.950 . S
C757 C754 1.387 . S
C758 C759 1.387 . S
C758 H762 0.950 . S
C758 C767 1.390 . S
C759 C758 1.387 . S
C759 C761 1.387 . S
H760 C767 0.950 . S
C761 C759 1.387 . S
C761 C763 1.390 . S
C761 H765 0.950 . S
H762 C758 0.950 . S
C763 C761 1.390 . S
C763 C764 1.387 . S
C763 H766 0.950 . S
C764 C763 1.387 . S
C764 C767 1.387 . S
H765 C761 0.950 . S
H766 C763 0.950 . S
C767 C758 1.390 . S
C767 H760 0.950 . S
C767 C764 1.387 . S
C768 C769 1.387 . S
C768 H772 0.950 . S
C768 C777 1.390 . S
C769 C768 1.387 . S
C769 C771 1.387 . S
H770 C777 0.950 . S
C771 C769 1.387 . S
C771 C773 1.390 . S
C771 H775 0.950 . S
H772 C768 0.950 . S
C773 C771 1.390 . S
C773 C774 1.387 . S
C773 H776 0.950 . S
C774 C773 1.387 . S
C774 C777 1.387 . S
H775 C771 0.950 . S
H776 C773 0.950 . S
C777 C768 1.390 . S
C777 H770 0.950 . S
C777 C774 1.387 . S
C778 C779 1.387 . S
C778 H782 0.950 . S
C778 C787 1.390 . S
C779 C778 1.387 . S
C779 C781 1.387 . S
H780 C787 0.950 . S
C781 C779 1.387 . S
C781 C783 1.390 . S
C781 H785 0.950 . S
H782 C778 0.950 . S
C783 C781 1.390 . S
C783 C784 1.387 . S
C783 H786 0.950 . S
C784 C783 1.387 . S
C784 C787 1.387 . S
H785 C781 0.950 . S
H786 C783 0.950 . S
C787 C778 1.390 . S
C787 H780 0.950 . S
C787 C784 1.387 . S
C788 C789 1.387 . S
C788 H792 0.950 . S
C788 C797 1.390 . S
C789 C788 1.387 . S
C789 C791 1.387 . S
H790 C797 0.950 . S
C791 C789 1.387 . S
C791 C793 1.390 . S
C791 H795 0.950 . S
H792 C788 0.950 . S
C793 C791 1.390 . S
C793 C794 1.387 . S
C793 H796 0.950 . S
C794 C793 1.387 . S
C794 C797 1.387 . S
H795 C791 0.950 . S
H796 C793 0.950 . S
C797 C788 1.390 . S
C797 H790 0.950 . S
C797 C794 1.387 . S
C798 C799 1.387 . S
C798 H802 0.950 . S
C798 C807 1.390 . S
C799 C798 1.387 . S
C799 C801 1.387 . S
H800 C807 0.950 . S
C801 C799 1.387 . S
C801 C803 1.390 . S
C801 H805 0.950 . S
H802 C798 0.950 . S
C803 C801 1.390 . S
C803 C804 1.387 . S
C803 H806 0.950 . S
C804 C803 1.387 . S
C804 C807 1.387 . S
H805 C801 0.950 . S
H806 C803 0.950 . S
C807 C798 1.390 . S
C807 H800 0.950 . S
C807 C804 1.387 . S
C808 C809 1.387 . S
C808 H812 0.950 . S
C808 C817 1.390 . S
C809 C808 1.387 . S
C809 C811 1.387 . S
H810 C817 0.950 . S
C811 C809 1.387 . S
C811 C813 1.390 . S
C811 H815 0.950 . S
H812 C808 0.950 . S
C813 C811 1.390 . S
C813 C814 1.387 . S
C813 H816 0.950 . S
C814 C813 1.387 . S
C814 C817 1.387 . S
H815 C811 0.950 . S
H816 C813 0.950 . S
C817 C808 1.390 . S
C817 H810 0.950 . S
C817 C814 1.387 . S
C818 C819 1.387 . S
C818 H822 0.950 . S
C818 C827 1.390 . S
C819 C818 1.387 . S
C819 C821 1.387 . S
H820 C827 0.950 . S
C821 C819 1.387 . S
C821 C823 1.390 . S
C821 H825 0.950 . S
H822 C818 0.950 . S
C823 C821 1.390 . S
C823 C824 1.387 . S
C823 H826 0.950 . S
C824 C823 1.387 . S
C824 C827 1.387 . S
H825 C821 0.950 . S
H826 C823 0.950 . S
C827 C818 1.390 . S
C827 H820 0.950 . S
C827 C824 1.387 . S
C828 C829 1.387 . S
C828 H832 0.950 . S
C828 C837 1.390 . S
C829 C828 1.387 . S
C829 C831 1.387 . S
H830 C837 0.950 . S
C831 C829 1.387 . S
C831 C833 1.390 . S
C831 H835 0.950 . S
H832 C828 0.950 . S
C833 C831 1.390 . S
C833 C834 1.387 . S
C833 H836 0.950 . S
C834 C833 1.387 . S
C834 C837 1.387 . S
H835 C831 0.950 . S
H836 C833 0.950 . S
C837 C828 1.390 . S
C837 H830 0.950 . S
C837 C834 1.387 . S
C838 C839 1.387 . S
C838 H842 0.950 . S
C838 C847 1.390 . S
C839 C838 1.387 . S
C839 C841 1.387 . S
H840 C847 0.950 . S
C841 C839 1.387 . S
C841 C843 1.390 . S
C841 H845 0.950 . S
H842 C838 0.950 . S
C843 C841 1.390 . S
C843 C844 1.387 . S
C843 H846 0.950 . S
C844 C843 1.387 . S
C844 C847 1.387 . S
H845 C841 0.950 . S
H846 C843 0.950 . S
C847 C838 1.390 . S
C847 H840 0.950 . S
C847 C844 1.387 . S
C848 C849 1.387 . S
C848 H852 0.950 . S
C848 C857 1.390 . S
C849 C848 1.387 . S
C849 C851 1.387 . S
H850 C857 0.950 . S
C851 C849 1.387 . S
C851 C853 1.390 . S
C851 H855 0.950 . S
H852 C848 0.950 . S
C853 C851 1.390 . S
C853 C854 1.387 . S
C853 H856 0.950 . S
C854 C853 1.387 . S
C854 C857 1.387 . S
H855 C851 0.950 . S
H856 C853 0.950 . S
C857 C848 1.390 . S
C857 H850 0.950 . S
C857 C854 1.387 . S
C858 C859 1.387 . S
C858 H862 0.950 . S
C858 C867 1.390 . S
C859 C858 1.387 . S
C859 C861 1.387 . S
H860 C867 0.950 . S
C861 C859 1.387 . S
C861 C863 1.390 . S
C861 H865 0.950 . S
H862 C858 0.950 . S
C863 C861 1.390 . S
C863 C864 1.387 . S
C863 H866 0.950 . S
C864 C863 1.387 . S
C864 C867 1.387 . S
H865 C861 0.950 . S
H866 C863 0.950 . S
C867 C858 1.390 . S
C867 H860 0.950 . S
C867 C864 1.387 . S
C868 C869 1.387 . S
C868 H872 0.950 . S
C868 C877 1.390 . S
C869 C868 1.387 . S
C869 C871 1.387 . S
H870 C877 0.950 . S
C871 C869 1.387 . S
C871 C873 1.390 . S
C871 H875 0.950 . S
H872 C868 0.950 . S
C873 C871 1.390 . S
C873 C874 1.387 . S
C873 H876 0.950 . S
C874 C873 1.387 . S
C874 C877 1.387 . S
H875 C871 0.950 . S
H876 C873 0.950 . S
C877 C868 1.390 . S
C877 H870 0.950 . S
C877 C874 1.387 . S
C878 C879 1.387 . S
C878 H882 0.950 . S
C878 C887 1.390 . S
C879 C878 1.387 . S
C879 C881 1.387 . S
H880 C887 0.950 . S
C881 C879 1.387 . S
C881 C883 1.390 . S
C881 H885 0.950 . S
H882 C878 0.950 . S
C883 C881 1.390 . S
C883 C884 1.387 . S
C883 H886 0.950 . S
C884 C883 1.387 . S
C884 C887 1.387 . S
H885 C881 0.950 . S
H886 C883 0.950 . S
C887 C878 1.390 . S
C887 H880 0.950 . S
C887 C884 1.387 . S
C888 C889 1.387 . S
C888 H892 0.950 . S
C888 C897 1.390 . S
C889 C888 1.387 . S
C889 C891 1.387 . S
H890 C897 0.950 . S
C891 C889 1.387 . S
C891 C893 1.390 . S
C891 H895 0.950 . S
H892 C888 0.950 . S
C893 C891 1.390 . S
C893 C894 1.387 . S
C893 H896 0.950 . S
C894 C893 1.387 . S
C894 C897 1.387 . S
H895 C891 0.950 . S
H896 C893 0.950 . S
C897 C888 1.390 . S
C897 H890 0.950 . S
C897 C894 1.387 . S
C898 C899 1.387 . S
C898 H902 0.950 . S
C898 C907 1.390 . S
C899 C898 1.387 . S
C899 C901 1.387 . S
H900 C907 0.950 . S
C901 C899 1.387 . S
C901 C903 1.390 . S
C901 H905 0.950 . S
H902 C898 0.950 . S
C903 C901 1.390 . S
C903 C904 1.387 . S
C903 H906 0.950 . S
C904 C903 1.387 . S
C904 C907 1.387 . S
H905 C901 0.950 . S
H906 C903 0.950 . S
C907 C898 1.390 . S
C907 H900 0.950 . S
C907 C904 1.387 . S
C908 C909 1.387 . S
C908 H912 0.950 . S
C908 C917 1.390 . S
C909 C908 1.387 . S
C909 C911 1.387 . S
H910 C917 0.950 . S
C911 C909 1.387 . S
C911 C913 1.390 . S
C911 H915 0.950 . S
H912 C908 0.950 . S
C913 C911 1.390 . S
C913 C914 1.387 . S
C913 H916 0.950 . S
C914 C913 1.387 . S
C914 C917 1.387 . S
H915 C911 0.950 . S
H916 C913 0.950 . S
C917 C908 1.390 . S
C917 H910 0.950 . S
C917 C914 1.387 . S
C918 C919 1.387 . S
C918 H922 0.950 . S
C918 C927 1.390 . S
C919 C918 1.387 . S
C919 C921 1.387 . S
H920 C927 0.950 . S
C921 C919 1.387 . S
C921 C923 1.390 . S
C921 H925 0.950 . S
H922 C918 0.950 . S
C923 C921 1.390 . S
C923 C924 1.387 . S
C923 H926 0.950 . S
C924 C923 1.387 . S
C924 C927 1.387 . S
H925 C921 0.950 . S
H926 C923 0.950 . S
C927 C918 1.390 . S
C927 H920 0.950 . S
C927 C924 1.387 . S
C928 C929 1.387 . S
C928 H932 0.950 . S
C928 C937 1.390 . S
C929 C928 1.387 . S
C929 C931 1.387 . S
H930 C937 0.950 . S
C931 C929 1.387 . S
C931 C933 1.390 . S
C931 H935 0.950 . S
H932 C928 0.950 . S
C933 C931 1.390 . S
C933 C934 1.387 . S
C933 H936 0.950 . S
C934 C933 1.387 . S
C934 C937 1.387 . S
H935 C931 0.950 . S
H936 C933 0.950 . S
C937 C928 1.390 . S
C937 H930 0.950 . S
C937 C934 1.387 . S
C938 C939 1.387 . S
C938 H942 0.950 . S
C938 C947 1.390 . S
C939 C938 1.387 . S
C939 C941 1.387 . S
H940 C947 0.950 . S
C941 C939 1.387 . S
C941 C943 1.390 . S
C941 H945 0.950 . S
H942 C938 0.950 . S
C943 C941 1.390 . S
C943 C944 1.387 . S
C943 H946 0.950 . S
C944 C943 1.387 . S
C944 C947 1.387 . S
H945 C941 0.950 . S
H946 C943 0.950 . S
C947 C938 1.390 . S
C947 H940 0.950 . S
C947 C944 1.387 . S
C948 C949 1.387 . S
C948 H952 0.950 1_556 S
C948 C957 1.390 . S
C949 C948 1.387 . S
C949 C951 1.387 . S
H950 C957 0.950 . S
C951 C949 1.387 . S
C951 C953 1.390 . S
C951 H955 0.950 . S
H952 C948 0.950 1_554 S
C953 C951 1.390 . S
C953 C954 1.387 . S
C953 H956 0.950 . S
C954 C953 1.387 . S
C954 C957 1.387 . S
H955 C951 0.950 . S
H956 C953 0.950 . S
C957 C948 1.390 . S
C957 H950 0.950 . S
C957 C954 1.387 . S
C958 C959 1.387 . S
C958 H962 0.950 1_556 S
C958 C967 1.390 . S
C959 C958 1.387 . S
C959 C961 1.387 . S
H960 C967 0.950 . S
C961 C959 1.387 . S
C961 C963 1.390 . S
C961 H965 0.950 . S
H962 C958 0.950 1_554 S
C963 C961 1.390 . S
C963 C964 1.387 . S
C963 H966 0.950 . S
C964 C963 1.387 . S
C964 C967 1.387 . S
H965 C961 0.950 . S
H966 C963 0.950 . S
C967 C958 1.390 . S
C967 H960 0.950 . S
C967 C964 1.387 . S
C968 C969 1.387 . S
C968 H972 0.950 . S
C968 C977 1.390 . S
C969 C968 1.387 . S
C969 C971 1.387 . S
H970 C977 0.950 . S
C971 C969 1.387 . S
C971 C973 1.390 . S
C971 H975 0.950 . S
H972 C968 0.950 . S
C973 C971 1.390 . S
C973 C974 1.387 . S
C973 H976 0.950 . S
C974 C973 1.387 . S
C974 C977 1.387 . S
H975 C971 0.950 . S
H976 C973 0.950 . S
C977 C968 1.390 . S
C977 H970 0.950 . S
C977 C974 1.387 . S
C978 C979 1.387 . S
C978 H982 0.950 . S
C978 C987 1.390 . S
C979 C978 1.387 . S
C979 C981 1.387 . S
H980 C987 0.950 . S
C981 C979 1.387 . S
C981 C983 1.390 . S
C981 H985 0.950 . S
H982 C978 0.950 . S
C983 C981 1.390 . S
C983 C984 1.387 . S
C983 H986 0.950 . S
C984 C983 1.387 . S
C984 C987 1.387 . S
H985 C981 0.950 . S
H986 C983 0.950 . S
C987 C978 1.390 . S
C987 H980 0.950 . S
C987 C984 1.387 . S
C988 C989 1.387 . S
C988 H992 0.950 . S
C988 C997 1.390 . S
C989 C988 1.387 . S
C989 C991 1.387 . S
H990 C997 0.950 . S
C991 C989 1.387 . S
C991 C993 1.390 . S
C991 H995 0.950 1_556 S
H992 C988 0.950 . S
C993 C991 1.390 . S
C993 C994 1.387 . S
C993 H996 0.950 . S
C994 C993 1.387 . S
C994 C997 1.387 . S
H995 C991 0.950 1_554 S
H996 C993 0.950 . S
C997 C988 1.390 . S
C997 H990 0.950 . S
C997 C994 1.387 . S
C998 C999 1.387 . S
C998 H1002 0.950 1_556 S
C998 C1007 1.390 . S
C999 C998 1.387 . S
C999 C1001 1.387 . S
H1000 C1007 0.950 . S
C1001 C999 1.387 . S
C1001 C1003 1.390 . S
C1001 H1005 0.950 . S
H1002 C998 0.950 1_554 S
C1003 C1001 1.390 . S
C1003 C1004 1.387 . S
C1003 H1006 0.950 . S
C1004 C1003 1.387 . S
C1004 C1007 1.387 . S
H1005 C1001 0.950 . S
H1006 C1003 0.950 . S
C1007 C998 1.390 . S
C1007 H1000 0.950 . S
C1007 C1004 1.387 . S
C1008 C1009 1.387 . S
C1008 H1012 0.950 . S
C1008 C1017 1.390 . S
C1009 C1008 1.387 . S
C1009 C1011 1.387 . S
H1010 C1017 0.950 . S
C1011 C1009 1.387 . S
C1011 C1013 1.390 . S
C1011 H1015 0.950 . S
H1012 C1008 0.950 . S
C1013 C1011 1.390 . S
C1013 C1014 1.387 . S
C1013 H1016 0.950 . S
C1014 C1013 1.387 . S
C1014 C1017 1.387 . S
H1015 C1011 0.950 . S
H1016 C1013 0.950 . S
C1017 C1008 1.390 . S
C1017 H1010 0.950 . S
C1017 C1014 1.387 . S
C1018 C1019 1.387 . S
C1018 H1022 0.950 . S
C1018 C1027 1.390 . S
C1019 C1018 1.387 . S
C1019 C1021 1.387 . S
H1020 C1027 0.950 . S
C1021 C1019 1.387 . S
C1021 C1023 1.390 . S
C1021 H1025 0.950 . S
H1022 C1018 0.950 . S
C1023 C1021 1.390 . S
C1023 C1024 1.387 . S
C1023 H1026 0.950 . S
C1024 C1023 1.387 . S
C1024 C1027 1.387 . S
H1025 C1021 0.950 . S
H1026 C1023 0.950 . S
C1027 C1018 1.390 . S
C1027 H1020 0.950 . S
C1027 C1024 1.387 . S
C1028 C1029 1.387 . S
C1028 H1032 0.950 . S
C1028 C1037 1.390 . S
C1029 C1028 1.387 . S
C1029 C1031 1.387 . S
H1030 C1037 0.950 . S
C1031 C1029 1.387 . S
C1031 C1033 1.390 . S
C1031 H1035 0.950 . S
H1032 C1028 0.950 . S
C1033 C1031 1.390 . S
C1033 C1034 1.387 . S
C1033 H1036 0.950 . S
C1034 C1033 1.387 . S
C1034 C1037 1.387 . S
H1035 C1031 0.950 . S
H1036 C1033 0.950 . S
C1037 C1028 1.390 . S
C1037 H1030 0.950 . S
C1037 C1034 1.387 . S
C1038 C1039 1.387 . S
C1038 H1042 0.950 . S
C1038 C1047 1.390 . S
C1039 C1038 1.387 . S
C1039 C1041 1.387 . S
H1040 C1047 0.950 . S
C1041 C1039 1.387 . S
C1041 C1043 1.390 . S
C1041 H1045 0.950 . S
H1042 C1038 0.950 . S
C1043 C1041 1.390 . S
C1043 C1044 1.387 . S
C1043 H1046 0.950 . S
C1044 C1043 1.387 . S
C1044 C1047 1.387 . S
H1045 C1041 0.950 . S
H1046 C1043 0.950 . S
C1047 C1038 1.390 . S
C1047 H1040 0.950 . S
C1047 C1044 1.387 . S
C1048 C1049 1.387 . S
C1048 H1052 0.950 . S
C1048 C1057 1.390 . S
C1049 C1048 1.387 . S
C1049 C1051 1.387 . S
H1050 C1057 0.950 . S
C1051 C1049 1.387 . S
C1051 C1053 1.390 . S
C1051 H1055 0.950 . S
H1052 C1048 0.950 . S
C1053 C1051 1.390 . S
C1053 C1054 1.387 . S
C1053 H1056 0.950 . S
C1054 C1053 1.387 . S
C1054 C1057 1.387 . S
H1055 C1051 0.950 . S
H1056 C1053 0.950 . S
C1057 C1048 1.390 . S
C1057 H1050 0.950 . S
C1057 C1054 1.387 . S
C1058 C1059 1.387 . S
C1058 H1062 0.950 . S
C1058 C1067 1.390 . S
C1059 C1058 1.387 . S
C1059 C1061 1.387 . S
H1060 C1067 0.950 . S
C1061 C1059 1.387 . S
C1061 C1063 1.390 . S
C1061 H1065 0.950 . S
H1062 C1058 0.950 . S
C1063 C1061 1.390 . S
C1063 C1064 1.387 . S
C1063 H1066 0.950 . S
C1064 C1063 1.387 . S
C1064 C1067 1.387 . S
H1065 C1061 0.950 . S
H1066 C1063 0.950 . S
C1067 C1058 1.390 . S
C1067 H1060 0.950 . S
C1067 C1064 1.387 . S
C1068 C1069 1.401 . S
C1068 H1072 0.948 1_455 S
C1068 C1077 1.379 . S
C1069 C1068 1.401 . S
C1069 C1071 1.387 . S
H1070 C1077 0.950 1_655 S
C1071 C1069 1.387 . S
C1071 C1073 1.390 . S
C1071 H1075 0.950 . S
H1072 C1068 0.948 1_655 S
C1073 C1071 1.390 . S
C1073 C1074 1.387 . S
C1073 H1076 0.950 . S
C1074 C1073 1.387 . S
C1074 C1077 1.387 . S
H1075 C1071 0.950 . S
H1076 C1073 0.950 . S
C1077 C1068 1.379 . S
C1077 H1070 0.950 1_455 S
C1077 C1074 1.387 . S
C1078 C1079 1.387 . S
C1078 H1082 0.950 . S
C1078 C1087 1.390 . S
C1079 C1078 1.387 . S
C1079 C1081 1.387 . S
H1080 C1087 0.950 . S
C1081 C1079 1.387 . S
C1081 C1083 1.390 . S
C1081 H1085 0.950 . S
H1082 C1078 0.950 . S
C1083 C1081 1.390 . S
C1083 C1084 1.387 . S
C1083 H1086 0.950 . S
C1084 C1083 1.387 . S
C1084 C1087 1.387 . S
H1085 C1081 0.950 . S
H1086 C1083 0.950 . S
C1087 C1078 1.390 . S
C1087 H1080 0.950 . S
C1087 C1084 1.387 . S
C1088 C1089 1.387 1_545 S
C1088 H1092 0.950 . S
C1088 C1097 1.390 . S
C1089 C1088 1.387 1_565 S
C1089 C1091 1.387 . S
H1090 C1097 0.950 . S
C1091 C1089 1.387 . S
C1091 C1093 1.390 . S
C1091 H1095 0.950 . S
H1092 C1088 0.950 . S
C1093 C1091 1.390 . S
C1093 C1094 1.387 . S
C1093 H1096 0.950 . S
C1094 C1093 1.387 . S
C1094 C1097 1.387 1_565 S
H1095 C1091 0.950 . S
H1096 C1093 0.950 . S
C1097 C1088 1.390 . S
C1097 H1090 0.950 . S
C1097 C1094 1.387 1_545 S
C1098 C1099 1.387 . S
C1098 H1102 0.950 . S
C1098 C1107 1.390 . S
C1099 C1098 1.387 . S
C1099 C1101 1.387 1_565 S
H1100 C1107 0.950 . S
C1101 C1099 1.387 1_545 S
C1101 C1103 1.390 . S
C1101 H1105 0.950 . S
H1102 C1098 0.950 . S
C1103 C1101 1.390 . S
C1103 C1104 1.386 1_545 S
C1103 H1106 0.950 . S
C1104 C1103 1.386 1_565 S
C1104 C1107 1.391 . S
H1105 C1101 0.950 . S
H1106 C1103 0.950 . S
C1107 C1098 1.390 . S
C1107 H1100 0.950 . S
C1107 C1104 1.391 . S
C1108 C1109 1.387 1_655 S
C1108 H1112 0.950 . S
C1108 C1117 1.390 . S
C1109 C1108 1.387 1_455 S
C1109 C1111 1.387 . S
H1110 C1117 0.950 . S
C1111 C1109 1.387 . S
C1111 C1113 1.390 . S
C1111 H1115 0.950 . S
H1112 C1108 0.950 . S
C1113 C1111 1.390 . S
C1113 C1114 1.387 . S
C1113 H1116 0.950 . S
C1114 C1113 1.387 . S
C1114 C1117 1.387 1_455 S
H1115 C1111 0.950 . S
H1116 C1113 0.950 . S
C1117 C1108 1.390 . S
C1117 H1110 0.950 . S
C1117 C1114 1.387 1_655 S
C1118 C1119 1.387 . S
C1118 H1122 0.950 . S
C1118 C1127 1.390 . S
C1119 C1118 1.387 . S
C1119 C1121 1.387 . S
H1120 C1127 0.950 . S
C1121 C1119 1.387 . S
C1121 C1123 1.390 . S
C1121 H1125 0.950 . S
H1122 C1118 0.950 . S
C1123 C1121 1.390 . S
C1123 C1124 1.387 . S
C1123 H1126 0.950 . S
C1124 C1123 1.387 . S
C1124 C1127 1.387 . S
H1125 C1121 0.950 . S
H1126 C1123 0.950 . S
C1127 C1118 1.390 . S
C1127 H1120 0.950 . S
C1127 C1124 1.387 . S
C1128 C1129 1.387 . S
C1128 H1132 0.950 . S
C1128 C1137 1.390 . S
C1129 C1128 1.387 . S
C1129 C1131 1.387 . S
H1130 C1137 0.950 . S
C1131 C1129 1.387 . S
C1131 C1133 1.390 . S
C1131 H1135 0.950 . S
H1132 C1128 0.950 . S
C1133 C1131 1.390 . S
C1133 C1134 1.387 . S
C1133 H1136 0.950 . S
C1134 C1133 1.387 . S
C1134 C1137 1.387 . S
H1135 C1131 0.950 . S
H1136 C1133 0.950 . S
C1137 C1128 1.390 . S
C1137 H1130 0.950 . S
C1137 C1134 1.387 . S
C1138 C1139 1.387 . S
C1138 H1142 0.950 . S
C1138 C1147 1.390 . S
C1139 C1138 1.387 . S
C1139 C1141 1.387 . S
H1140 C1147 0.950 . S
C1141 C1139 1.387 . S
C1141 C1143 1.390 . S
C1141 H1145 0.950 . S
H1142 C1138 0.950 . S
C1143 C1141 1.390 . S
C1143 C1144 1.387 . S
C1143 H1146 0.950 . S
C1144 C1143 1.387 . S
C1144 C1147 1.387 . S
H1145 C1141 0.950 . S
H1146 C1143 0.950 . S
C1147 C1138 1.390 . S
C1147 H1140 0.950 . S
C1147 C1144 1.387 . S
C1148 C1149 1.387 . S
C1148 H1152 0.950 . S
C1148 C1157 1.390 . S
C1149 C1148 1.387 . S
C1149 C1151 1.387 . S
H1150 C1157 0.950 . S
C1151 C1149 1.387 . S
C1151 C1153 1.390 . S
C1151 H1155 0.950 . S
H1152 C1148 0.950 . S
C1153 C1151 1.390 . S
C1153 C1154 1.387 . S
C1153 H1156 0.950 . S
C1154 C1153 1.387 . S
C1154 C1157 1.387 . S
H1155 C1151 0.950 . S
H1156 C1153 0.950 . S
C1157 C1148 1.390 . S
C1157 H1150 0.950 . S
C1157 C1154 1.387 . S
C1158 C1159 1.387 1_565 S
C1158 H1162 0.950 . S
C1158 C1167 1.390 . S
C1159 C1158 1.387 1_545 S
C1159 C1161 1.387 . S
H1160 C1167 0.950 . S
C1161 C1159 1.387 . S
C1161 C1163 1.390 . S
C1161 H1165 0.950 . S
H1162 C1158 0.950 . S
C1163 C1161 1.390 . S
C1163 C1164 1.387 . S
C1163 H1166 0.950 . S
C1164 C1163 1.387 . S
C1164 C1167 1.387 1_545 S
H1165 C1161 0.950 . S
H1166 C1163 0.950 . S
C1167 C1158 1.390 . S
C1167 H1160 0.950 . S
C1167 C1164 1.387 1_565 S
C1168 C1169 1.387 . S
C1168 H1172 0.950 . S
C1168 C1177 1.390 . S
C1169 C1168 1.387 . S
C1169 C1171 1.387 . S
H1170 C1177 0.950 . S
C1171 C1169 1.387 . S
C1171 C1173 1.390 . S
C1171 H1175 0.950 . S
H1172 C1168 0.950 . S
C1173 C1171 1.390 . S
C1173 C1174 1.387 . S
C1173 H1176 0.950 . S
C1174 C1173 1.387 . S
C1174 C1177 1.387 . S
H1175 C1171 0.950 . S
H1176 C1173 0.950 . S
C1177 C1168 1.390 . S
C1177 H1170 0.950 . S
C1177 C1174 1.387 . S
C1178 C1179 1.387 . S
C1178 H1182 0.950 . S
C1178 C1187 1.390 . S
C1179 C1178 1.387 . S
C1179 C1181 1.387 . S
H1180 C1187 0.950 . S
C1181 C1179 1.387 . S
C1181 C1183 1.390 . S
C1181 H1185 0.950 . S
H1182 C1178 0.950 . S
C1183 C1181 1.390 . S
C1183 C1184 1.387 . S
C1183 H1186 0.950 . S
C1184 C1183 1.387 . S
C1184 C1187 1.387 . S
H1185 C1181 0.950 . S
H1186 C1183 0.950 . S
C1187 C1178 1.390 . S
C1187 H1180 0.950 . S
C1187 C1184 1.387 . S
C1188 C1189 1.387 . S
C1188 H1192 0.950 . S
C1188 C1197 1.390 . S
C1189 C1188 1.387 . S
C1189 C1191 1.387 . S
H1190 C1197 0.950 . S
C1191 C1189 1.387 . S
C1191 C1193 1.390 . S
C1191 H1195 0.950 . S
H1192 C1188 0.950 . S
C1193 C1191 1.390 . S
C1193 C1194 1.387 . S
C1193 H1196 0.950 . S
C1194 C1193 1.387 . S
C1194 C1197 1.387 . S
H1195 C1191 0.950 . S
H1196 C1193 0.950 . S
C1197 C1188 1.390 . S
C1197 H1190 0.950 . S
C1197 C1194 1.387 . S
C1198 C1199 1.387 . S
C1198 H1202 0.950 . S
C1198 C1207 1.390 . S
C1199 C1198 1.387 . S
C1199 C1201 1.387 . S
H1200 C1207 0.950 . S
C1201 C1199 1.387 . S
C1201 C1203 1.390 . S
C1201 H1205 0.950 . S
H1202 C1198 0.950 . S
C1203 C1201 1.390 . S
C1203 C1204 1.387 . S
C1203 H1206 0.950 . S
C1204 C1203 1.387 . S
C1204 C1207 1.387 . S
H1205 C1201 0.950 . S
H1206 C1203 0.950 . S
C1207 C1198 1.390 . S
C1207 H1200 0.950 . S
C1207 C1204 1.387 . S
C1208 C1209 1.387 . S
C1208 H1212 0.950 . S
C1208 C1217 1.390 . S
C1209 C1208 1.387 . S
C1209 C1211 1.387 . S
H1210 C1217 0.950 . S
C1211 C1209 1.387 . S
C1211 C1213 1.390 . S
C1211 H1215 0.950 . S
H1212 C1208 0.950 . S
C1213 C1211 1.390 . S
C1213 C1214 1.387 . S
C1213 H1216 0.950 . S
C1214 C1213 1.387 . S
C1214 C1217 1.387 . S
H1215 C1211 0.950 . S
H1216 C1213 0.950 . S
C1217 C1208 1.390 . S
C1217 H1210 0.950 . S
C1217 C1214 1.387 . S
C1218 C1219 1.387 . S
C1218 H1222 0.950 . S
C1218 C1227 1.390 . S
C1219 C1218 1.387 . S
C1219 C1221 1.387 . S
H1220 C1227 0.950 . S
C1221 C1219 1.387 . S
C1221 C1223 1.390 . S
C1221 H1225 0.950 . S
H1222 C1218 0.950 . S
C1223 C1221 1.390 . S
C1223 C1224 1.387 . S
C1223 H1226 0.950 . S
C1224 C1223 1.387 . S
C1224 C1227 1.387 . S
H1225 C1221 0.950 . S
H1226 C1223 0.950 . S
C1227 C1218 1.390 . S
C1227 H1220 0.950 . S
C1227 C1224 1.387 . S
C1228 C1229 1.387 . S
C1228 H1232 0.950 . S
C1228 C1237 1.390 . S
C1229 C1228 1.387 . S
C1229 C1231 1.387 . S
H1230 C1237 0.950 . S
C1231 C1229 1.387 . S
C1231 C1233 1.390 . S
C1231 H1235 0.950 . S
H1232 C1228 0.950 . S
C1233 C1231 1.390 . S
C1233 C1234 1.387 . S
C1233 H1236 0.950 . S
C1234 C1233 1.387 . S
C1234 C1237 1.387 . S
H1235 C1231 0.950 . S
H1236 C1233 0.950 . S
C1237 C1228 1.390 . S
C1237 H1230 0.950 . S
C1237 C1234 1.387 . S
C1238 C1239 1.387 . S
C1238 H1242 0.950 . S
C1238 C1247 1.390 . S
C1239 C1238 1.387 . S
C1239 C1241 1.387 . S
H1240 C1247 0.950 . S
C1241 C1239 1.387 . S
C1241 C1243 1.390 . S
C1241 H1245 0.950 . S
H1242 C1238 0.950 . S
C1243 C1241 1.390 . S
C1243 C1244 1.387 . S
C1243 H1246 0.950 . S
C1244 C1243 1.387 . S
C1244 C1247 1.387 . S
H1245 C1241 0.950 . S
H1246 C1243 0.950 . S
C1247 C1238 1.390 . S
C1247 H1240 0.950 . S
C1247 C1244 1.387 . S
C1248 C1249 1.387 . S
C1248 H1252 0.949 . S
C1248 C1257 1.375 1_655 S
C1249 C1248 1.387 . S
C1249 C1251 1.387 . S
H1250 C1257 0.964 . S
C1251 C1249 1.387 . S
C1251 C1253 1.390 . S
C1251 H1255 0.950 . S
H1252 C1248 0.949 . S
C1253 C1251 1.390 . S
C1253 C1254 1.389 . S
C1253 H1256 0.950 . S
C1254 C1253 1.389 . S
C1254 C1257 1.389 1_655 S
H1255 C1251 0.950 . S
H1256 C1253 0.950 . S
C1257 C1248 1.375 1_455 S
C1257 H1250 0.964 . S
C1257 C1254 1.389 1_455 S
C1258 C1259 1.387 . S
C1258 H1262 0.950 . S
C1258 C1267 1.390 . S
C1259 C1258 1.387 . S
C1259 C1261 1.387 . S
H1260 C1267 0.950 . S
C1261 C1259 1.387 . S
C1261 C1263 1.390 . S
C1261 H1265 0.950 . S
H1262 C1258 0.950 . S
C1263 C1261 1.390 . S
C1263 C1264 1.387 . S
C1263 H1266 0.950 . S
C1264 C1263 1.387 . S
C1264 C1267 1.387 . S
H1265 C1261 0.950 . S
H1266 C1263 0.950 . S
C1267 C1258 1.390 . S
C1267 H1260 0.950 . S
C1267 C1264 1.387 . S
C1268 C1269 1.387 1_565 S
C1268 H1272 0.950 . S
C1268 C1277 1.390 . S
C1269 C1268 1.387 1_545 S
C1269 C1271 1.387 . S
H1270 C1277 0.950 . S
C1271 C1269 1.387 . S
C1271 C1273 1.390 . S
C1271 H1275 0.950 . S
H1272 C1268 0.950 . S
C1273 C1271 1.390 . S
C1273 C1274 1.387 . S
C1273 H1276 0.950 . S
C1274 C1273 1.387 . S
C1274 C1277 1.387 1_545 S
H1275 C1271 0.950 . S
H1276 C1273 0.950 . S
C1277 C1268 1.390 . S
C1277 H1270 0.950 . S
C1277 C1274 1.387 1_565 S
C559 C10 1.623 . S
C564 C403 1.599 . S
C569 C23 1.616 . S
C574 C428 1.600 . S
C584 C439 1.599 . S
C579 C29 1.622 . S
C589 C30 1.622 . S
C594 C464 1.604 . S
C599 C5 1.626 . S
C604 C482 1.615 . S
C609 C18 1.618 . S
C614 C493 1.598 . S
C619 C49 1.611 . S
C624 C475 1.593 . S
C634 C500 1.591 . S
C629 C62 1.606 . S
C644 C457 1.592 . S
C639 C70 1.606 . S
C649 C75 1.609 . S
C654 C446 1.587 . S
C664 C410 1.601 . S
C659 C44 1.613 . S
C669 C57 1.606 . S
C674 C421 1.593 . S
C679 C88 1.623 . S
C684 C511 1.598 . S
C689 C101 1.616 . S
C694 C536 1.599 . S
C704 C547 1.598 . S
C699 C107 1.619 . S
C709 C108 1.621 . S
C714 C248 1.604 . S
C719 C83 1.626 . S
C724 C266 1.612 . S
C729 C96 1.618 . S
C734 C277 1.598 . S
C739 C127 1.611 . S
C744 C259 1.594 . S
C749 C140 1.606 . S
C754 C284 1.591 . S
C764 C241 1.593 . S
C759 C146 1.607 . S
C774 C554 1.596 . S
C769 C147 1.610 . S
C784 C518 1.602 . S
C779 C122 1.614 . S
C794 C529 1.592 . S
C789 C135 1.606 . S
C799 C160 1.624 . S
C804 C295 1.600 . S
C809 C173 1.617 . S
C814 C320 1.600 . S
C819 C185 1.620 . S
C824 C331 1.599 . S
C829 C186 1.621 . S
C834 C356 1.604 . S
C844 C374 1.613 . S
C839 C159 1.626 . S
C854 C385 1.598 . S
C849 C172 1.619 . S
C864 C367 1.593 . S
C859 C205 1.610 . S
C874 C392 1.590 . S
C869 C218 1.605 . S
C879 C224 1.608 . S
C884 C349 1.594 . S
C894 C338 1.596 . S
C889 C225 1.610 . S
C899 C200 1.613 . S
C904 C302 1.601 . S
C914 C313 1.592 . S
C909 C213 1.606 . S
C924 C250 1.430 . S
C919 C4 1.511 . S
C929 C17 1.503 . S
C934 C268 1.424 . S
C944 C278 1.441 . S
C939 C31 1.513 . S
C954 C296 1.437 . S
C949 C36 1.508 . S
C964 C322 1.436 . S
C959 C3 1.519 . S
C974 C332 1.441 . S
C969 C16 1.513 . S
C979 C43 1.514 . S
C984 C340 1.430 . S
C989 C56 1.508 . S
C994 C304 1.426 . S
C999 C68 1.514 . S
C1004 C314 1.438 . S
C1009 C69 1.510 . S
C1014 C260 1.435 . S
C1024 C286 1.436 . S
C1019 C42 1.519 . S
C1029 C55 1.514 . S
C1034 C242 1.439 . S
C1044 C358 1.434 . S
C1039 C82 1.511 . S
C1049 C95 1.505 . S
C1054 C376 1.428 . S
C1059 C109 1.514 . S
C1064 C386 1.439 . S
C1074 C404 1.436 . S
C1069 C114 1.506 . S
C1079 C81 1.519 . S
C1084 C430 1.437 . S
C1089 C94 1.513 . S
C1094 C440 1.443 . S
C1099 C121 1.514 . S
C1104 C448 1.442 . S
C1109 C134 1.507 . S
C1114 C412 1.425 . S
C1124 C422 1.438 . S
C1119 C148 1.514 . S
C1129 C153 1.509 . S
C1134 C368 1.434 . S
C1139 C120 1.519 . S
C1144 C394 1.436 . S
C1154 C350 1.435 . S
C1149 C133 1.514 . S
C1164 C466 1.434 . S
C1159 C166 1.511 . S
C1169 C179 1.505 . S
C1174 C484 1.429 . S
C1179 C187 1.514 . S
C1184 C494 1.441 . S
C1194 C512 1.436 . S
C1189 C192 1.507 . S
C1204 C538 1.433 . S
C1199 C161 1.518 . S
C1209 C174 1.513 . S
C1214 C548 1.437 . S
C1219 C199 1.514 . S
C1224 C556 1.430 . S
C1229 C212 1.507 . S
C1234 C520 1.426 . S
C1244 C530 1.438 . S
C1239 C226 1.514 . S
C1254 C476 1.432 1_655 S
C1249 C231 1.506 . S
C1264 C502 1.435 . S
C1259 C198 1.519 . S
C1269 C211 1.514 . S
C1274 C458 1.435 . S
