# Generated by pormake.
# Topology llk, (3,12)-cn, num edge types: 1
# Building blocks:
#     Node 0, Type 0, BuildingBlock: ESEHIV_clean_linker_0, # of connection points: 3
#     Node 1, Type 0, BuildingBlock: ESEHIV_clean_linker_0, # of connection points: 3
#     Node 2, Type 0, BuildingBlock: ESEHIV_clean_linker_0, # of connection points: 3
#     Node 3, Type 0, BuildingBlock: ESEHIV_clean_linker_0, # of connection points: 3
#     Node 4, Type 0, BuildingBlock: ESEHIV_clean_linker_0, # of connection points: 3
#     Node 5, Type 0, BuildingBlock: ESEHIV_clean_linker_0, # of connection points: 3
#     Node 6, Type 0, BuildingBlock: ESEHIV_clean_linker_0, # of connection points: 3
#     Node 7, Type 0, BuildingBlock: ESEHIV_clean_linker_0, # of connection points: 3
#     Node 8, Type 0, BuildingBlock: ESEHIV_clean_linker_0, # of connection points: 3
#     Node 9, Type 0, BuildingBlock: ESEHIV_clean_linker_0, # of connection points: 3
#     Node 10, Type 0, BuildingBlock: ESEHIV_clean_linker_0, # of connection points: 3
#     Node 11, Type 0, BuildingBlock: ESEHIV_clean_linker_0, # of connection points: 3
#     Node 12, Type 0, BuildingBlock: ESEHIV_clean_linker_0, # of connection points: 3
#     Node 13, Type 0, BuildingBlock: ESEHIV_clean_linker_0, # of connection points: 3
#     Node 14, Type 0, BuildingBlock: ESEHIV_clean_linker_0, # of connection points: 3
#     Node 15, Type 0, BuildingBlock: ESEHIV_clean_linker_0, # of connection points: 3
#     Node 16, Type 0, BuildingBlock: ESEHIV_clean_linker_0, # of connection points: 3
#     Node 17, Type 0, BuildingBlock: ESEHIV_clean_linker_0, # of connection points: 3
#     Node 18, Type 0, BuildingBlock: ESEHIV_clean_linker_0, # of connection points: 3
#     Node 19, Type 0, BuildingBlock: ESEHIV_clean_linker_0, # of connection points: 3
#     Node 20, Type 0, BuildingBlock: ESEHIV_clean_linker_0, # of connection points: 3
#     Node 21, Type 0, BuildingBlock: ESEHIV_clean_linker_0, # of connection points: 3
#     Node 22, Type 0, BuildingBlock: ESEHIV_clean_linker_0, # of connection points: 3
#     Node 23, Type 0, BuildingBlock: ESEHIV_clean_linker_0, # of connection points: 3
#     Node 24, Type 1, BuildingBlock: QEWDON_clean_sbu_0, # of connection points: 12
#     Node 25, Type 1, BuildingBlock: QEWDON_clean_sbu_0, # of connection points: 12
#     Node 26, Type 1, BuildingBlock: QEWDON_clean_sbu_0, # of connection points: 12
#     Node 27, Type 1, BuildingBlock: QEWDON_clean_sbu_0, # of connection points: 12
#     Node 28, Type 1, BuildingBlock: QEWDON_clean_sbu_0, # of connection points: 12
#     Node 29, Type 1, BuildingBlock: QEWDON_clean_sbu_0, # of connection points: 12
#     Edge 30, Type (0, 1), BuildingBlock: UVAHIK_clean_linker_0, # of connection points: 2
#     Edge 31, Type (0, 1), BuildingBlock: UVAHIK_clean_linker_0, # of connection points: 2
#     Edge 32, Type (0, 1), BuildingBlock: UVAHIK_clean_linker_0, # of connection points: 2
#     Edge 33, Type (0, 1), BuildingBlock: UVAHIK_clean_linker_0, # of connection points: 2
#     Edge 34, Type (0, 1), BuildingBlock: UVAHIK_clean_linker_0, # of connection points: 2
#     Edge 35, Type (0, 1), BuildingBlock: UVAHIK_clean_linker_0, # of connection points: 2
#     Edge 36, Type (0, 1), BuildingBlock: UVAHIK_clean_linker_0, # of connection points: 2
#     Edge 37, Type (0, 1), BuildingBlock: UVAHIK_clean_linker_0, # of connection points: 2
#     Edge 38, Type (0, 1), BuildingBlock: UVAHIK_clean_linker_0, # of connection points: 2
#     Edge 39, Type (0, 1), BuildingBlock: UVAHIK_clean_linker_0, # of connection points: 2
#     Edge 40, Type (0, 1), BuildingBlock: UVAHIK_clean_linker_0, # of connection points: 2
#     Edge 41, Type (0, 1), BuildingBlock: UVAHIK_clean_linker_0, # of connection points: 2
#     Edge 42, Type (0, 1), BuildingBlock: UVAHIK_clean_linker_0, # of connection points: 2
#     Edge 43, Type (0, 1), BuildingBlock: UVAHIK_clean_linker_0, # of connection points: 2
#     Edge 44, Type (0, 1), BuildingBlock: UVAHIK_clean_linker_0, # of connection points: 2
#     Edge 45, Type (0, 1), BuildingBlock: UVAHIK_clean_linker_0, # of connection points: 2
#     Edge 46, Type (0, 1), BuildingBlock: UVAHIK_clean_linker_0, # of connection points: 2
#     Edge 47, Type (0, 1), BuildingBlock: UVAHIK_clean_linker_0, # of connection points: 2
#     Edge 48, Type (0, 1), BuildingBlock: UVAHIK_clean_linker_0, # of connection points: 2
#     Edge 49, Type (0, 1), BuildingBlock: UVAHIK_clean_linker_0, # of connection points: 2
#     Edge 50, Type (0, 1), BuildingBlock: UVAHIK_clean_linker_0, # of connection points: 2
#     Edge 51, Type (0, 1), BuildingBlock: UVAHIK_clean_linker_0, # of connection points: 2
#     Edge 52, Type (0, 1), BuildingBlock: UVAHIK_clean_linker_0, # of connection points: 2
#     Edge 53, Type (0, 1), BuildingBlock: UVAHIK_clean_linker_0, # of connection points: 2
#     Edge 54, Type (0, 1), BuildingBlock: UVAHIK_clean_linker_0, # of connection points: 2
#     Edge 55, Type (0, 1), BuildingBlock: UVAHIK_clean_linker_0, # of connection points: 2
#     Edge 56, Type (0, 1), BuildingBlock: UVAHIK_clean_linker_0, # of connection points: 2
#     Edge 57, Type (0, 1), BuildingBlock: UVAHIK_clean_linker_0, # of connection points: 2
#     Edge 58, Type (0, 1), BuildingBlock: UVAHIK_clean_linker_0, # of connection points: 2
#     Edge 59, Type (0, 1), BuildingBlock: UVAHIK_clean_linker_0, # of connection points: 2
#     Edge 60, Type (0, 1), BuildingBlock: UVAHIK_clean_linker_0, # of connection points: 2
#     Edge 61, Type (0, 1), BuildingBlock: UVAHIK_clean_linker_0, # of connection points: 2
#     Edge 62, Type (0, 1), BuildingBlock: UVAHIK_clean_linker_0, # of connection points: 2
#     Edge 63, Type (0, 1), BuildingBlock: UVAHIK_clean_linker_0, # of connection points: 2
#     Edge 64, Type (0, 1), BuildingBlock: UVAHIK_clean_linker_0, # of connection points: 2
#     Edge 65, Type (0, 1), BuildingBlock: UVAHIK_clean_linker_0, # of connection points: 2
#     Edge 66, Type (0, 1), BuildingBlock: UVAHIK_clean_linker_0, # of connection points: 2
#     Edge 67, Type (0, 1), BuildingBlock: UVAHIK_clean_linker_0, # of connection points: 2
#     Edge 68, Type (0, 1), BuildingBlock: UVAHIK_clean_linker_0, # of connection points: 2
#     Edge 69, Type (0, 1), BuildingBlock: UVAHIK_clean_linker_0, # of connection points: 2
#     Edge 70, Type (0, 1), BuildingBlock: UVAHIK_clean_linker_0, # of connection points: 2
#     Edge 71, Type (0, 1), BuildingBlock: UVAHIK_clean_linker_0, # of connection points: 2
#     Edge 72, Type (0, 1), BuildingBlock: UVAHIK_clean_linker_0, # of connection points: 2
#     Edge 73, Type (0, 1), BuildingBlock: UVAHIK_clean_linker_0, # of connection points: 2
#     Edge 74, Type (0, 1), BuildingBlock: UVAHIK_clean_linker_0, # of connection points: 2
#     Edge 75, Type (0, 1), BuildingBlock: UVAHIK_clean_linker_0, # of connection points: 2
#     Edge 76, Type (0, 1), BuildingBlock: UVAHIK_clean_linker_0, # of connection points: 2
#     Edge 77, Type (0, 1), BuildingBlock: UVAHIK_clean_linker_0, # of connection points: 2
#     Edge 78, Type (0, 1), BuildingBlock: UVAHIK_clean_linker_0, # of connection points: 2
#     Edge 79, Type (0, 1), BuildingBlock: UVAHIK_clean_linker_0, # of connection points: 2
#     Edge 80, Type (0, 1), BuildingBlock: UVAHIK_clean_linker_0, # of connection points: 2
#     Edge 81, Type (0, 1), BuildingBlock: UVAHIK_clean_linker_0, # of connection points: 2
#     Edge 82, Type (0, 1), BuildingBlock: UVAHIK_clean_linker_0, # of connection points: 2
#     Edge 83, Type (0, 1), BuildingBlock: UVAHIK_clean_linker_0, # of connection points: 2
#     Edge 84, Type (0, 1), BuildingBlock: UVAHIK_clean_linker_0, # of connection points: 2
#     Edge 85, Type (0, 1), BuildingBlock: UVAHIK_clean_linker_0, # of connection points: 2
#     Edge 86, Type (0, 1), BuildingBlock: UVAHIK_clean_linker_0, # of connection points: 2
#     Edge 87, Type (0, 1), BuildingBlock: UVAHIK_clean_linker_0, # of connection points: 2
#     Edge 88, Type (0, 1), BuildingBlock: UVAHIK_clean_linker_0, # of connection points: 2
#     Edge 89, Type (0, 1), BuildingBlock: UVAHIK_clean_linker_0, # of connection points: 2
#     Edge 90, Type (0, 1), BuildingBlock: UVAHIK_clean_linker_0, # of connection points: 2
#     Edge 91, Type (0, 1), BuildingBlock: UVAHIK_clean_linker_0, # of connection points: 2
#     Edge 92, Type (0, 1), BuildingBlock: UVAHIK_clean_linker_0, # of connection points: 2
#     Edge 93, Type (0, 1), BuildingBlock: UVAHIK_clean_linker_0, # of connection points: 2
#     Edge 94, Type (0, 1), BuildingBlock: UVAHIK_clean_linker_0, # of connection points: 2
#     Edge 95, Type (0, 1), BuildingBlock: UVAHIK_clean_linker_0, # of connection points: 2
#     Edge 96, Type (0, 1), BuildingBlock: UVAHIK_clean_linker_0, # of connection points: 2
#     Edge 97, Type (0, 1), BuildingBlock: UVAHIK_clean_linker_0, # of connection points: 2
#     Edge 98, Type (0, 1), BuildingBlock: UVAHIK_clean_linker_0, # of connection points: 2
#     Edge 99, Type (0, 1), BuildingBlock: UVAHIK_clean_linker_0, # of connection points: 2
#     Edge 100, Type (0, 1), BuildingBlock: UVAHIK_clean_linker_0, # of connection points: 2
#     Edge 101, Type (0, 1), BuildingBlock: UVAHIK_clean_linker_0, # of connection points: 2
# Relax obj value: 0.129
# Max RMSD: 0.164
# Mean RMSD: 0.148
data_MOF--net-llk--node1-QEWDON_clean_sbu_0--node2-ESEHIV_clean_linker_0--edge1-UVAHIK_clean_linker_0
_symmetry_space_group_name_H-M    P1
_symmetry_Int_Tables_number       1
_symmetry_cell_setting            triclinic
loop_
_symmetry_equiv_pos_as_xyz
'x, y, z'
_cell_length_a     56.034198
_cell_length_b     57.855708
_cell_length_c     56.903393
_cell_angle_alpha  89.992143
_cell_angle_beta   90.15519
_cell_angle_gamma 89.634194
loop_
_atom_site_label
_atom_site_type_symbol
_atom_site_fract_x
_atom_site_fract_y
_atom_site_fract_z
_atom_type_partial_charge
H0 H 0.04001 0.26363 0.30854 0.0
H1 H 0.0333 0.31484 0.25429 0.0
H2 H 0.0324 0.2425 0.23636 0.0
C3 C 0.03834 0.2681 0.2901 0.0
C4 C 0.03698 0.25035 0.27337 0.0
C5 C 0.03698 0.29137 0.28351 0.0
C6 C 0.03397 0.29688 0.25972 0.0
C7 C 0.03218 0.27948 0.24266 0.0
C8 C 0.0336 0.25603 0.24946 0.0
H9 H 0.71682 0.05045 0.21609 0.0
H10 H 0.76062 0.03482 0.27609 0.0
H11 H 0.79296 0.05907 0.21217 0.0
C12 C 0.73425 0.04931 0.22435 0.0
C13 C 0.75457 0.05539 0.21145 0.0
C14 C 0.73619 0.04183 0.24764 0.0
C15 C 0.75882 0.04055 0.25801 0.0
C16 C 0.77924 0.047 0.24547 0.0
C17 C 0.7772 0.05433 0.22202 0.0
H18 H 0.03091 0.7767 0.29891 0.0
H19 H 0.02587 0.71487 0.25776 0.0
H20 H 0.01356 0.78132 0.22537 0.0
C21 C 0.02787 0.76825 0.28215 0.0
C22 C 0.022 0.78166 0.26248 0.0
C23 C 0.02922 0.74418 0.28066 0.0
C24 C 0.02554 0.73357 0.25885 0.0
C25 C 0.02039 0.74668 0.2386 0.0
C26 C 0.01804 0.77092 0.24061 0.0
H27 H 0.23638 0.98756 0.2836 0.0
H28 H 0.29942 0.99646 0.24216 0.0
H29 H 0.23073 0.99244 0.20821 0.0
C30 C 0.24487 0.98866 0.26652 0.0
C31 C 0.23078 0.98907 0.2461 0.0
C32 C 0.26954 0.99164 0.2652 0.0
C33 C 0.28026 0.99407 0.24322 0.0
C34 C 0.26648 0.99397 0.22261 0.0
C35 C 0.24158 0.99158 0.22399 0.0
H36 H 0.9753 0.77812 0.71353 0.0
H37 H 0.99011 0.71848 0.7563 0.0
H38 H 0.00324 0.78671 0.78341 0.0
C39 C 0.98106 0.77057 0.73005 0.0
C40 C 0.9891 0.78511 0.74805 0.0
C41 C 0.98172 0.74649 0.73262 0.0
C42 C 0.98937 0.73708 0.75409 0.0
C43 C -0.00327 0.7514 0.77264 0.0
C44 C -0.00319 0.77555 0.76951 0.0
H45 H 0.26948 0.00632 0.73509 0.0
H46 H 0.30934 0.98638 0.79623 0.0
H47 H 0.23298 0.99456 0.80064 0.0
C48 C 0.26999 0.00183 0.7536 0.0
C49 C 0.24871 0.00091 0.7665 0.0
C50 C 0.2918 0.99629 0.76418 0.0
C51 C 0.29231 0.99005 0.78784 0.0
C52 C 0.27132 0.98961 0.80117 0.0
C53 C 0.2493 0.99495 0.79049 0.0
H54 H 0.00572 0.31489 0.757 0.0
H55 H -0.00095 0.26393 0.70263 0.0
H56 H 0.00531 0.24259 0.77494 0.0
C57 C 0.00484 0.29695 0.75156 0.0
C58 C 0.0061 0.27951 0.76863 0.0
C59 C 0.0021 0.29153 0.72773 0.0
C60 C 0.00044 0.26831 0.72111 0.0
C61 C 0.00133 0.25052 0.73787 0.0
C62 C 0.00441 0.25614 0.76182 0.0
H63 H 0.72741 0.04869 0.77359 0.0
H64 H 0.79066 0.04486 0.7315 0.0
H65 H 0.79665 0.04833 0.80694 0.0
C66 C 0.74673 0.04823 0.77233 0.0
C67 C 0.7607 0.0492 0.79282 0.0
C68 C 0.75746 0.04666 0.75024 0.0
C69 C 0.78231 0.04626 0.74863 0.0
C70 C 0.79653 0.04671 0.76893 0.0
C71 C 0.78575 0.04797 0.79119 0.0
H72 H 0.22514 0.30869 0.01471 0.0
H73 H 0.28146 0.25854 0.0201 0.0
H74 H 0.20867 0.23594 0.01266 0.0
C75 C 0.23093 0.29076 0.01527 0.0
C76 C 0.21402 0.27304 0.01378 0.0
C77 C 0.25515 0.28558 0.01776 0.0
C78 C 0.26256 0.26255 0.01864 0.0
C79 C 0.24606 0.24457 0.01663 0.0
C80 C 0.22156 0.24973 0.01425 0.0
H81 H 0.27754 0.77848 0.01062 0.0
H82 H 0.22506 0.72868 0.03017 0.0
H83 H 0.20431 0.79993 0.02048 0.0
C84 C 0.25917 0.77443 0.01485 0.0
C85 C 0.24179 0.79204 0.01516 0.0
C86 C 0.25321 0.75173 0.02065 0.0
C87 C 0.22971 0.7465 0.02651 0.0
C88 C 0.21186 0.7636 0.02628 0.0
C89 C 0.21794 0.78657 0.02071 0.0
H90 H 0.75492 0.25407 0.99289 0.0
H91 H 0.80998 0.30337 0.00659 0.0
H92 H 0.82866 0.23213 0.99365 0.0
C93 C 0.77373 0.25806 0.99475 0.0
C94 C 0.79087 0.24038 0.9927 0.0
C95 C 0.78053 0.28065 0.0001 0.0
C96 C 0.80468 0.28571 0.00298 0.0
C97 C 0.82217 0.26847 0.00037 0.0
C98 C 0.81528 0.24561 0.99538 0.0
H99 H 0.7351 0.77886 0.99506 0.0
H100 H 0.78494 0.72386 0.98259 0.0
H101 H 0.80986 0.79417 0.98777 0.0
C102 C 0.75336 0.77301 0.99251 0.0
C103 C 0.77182 0.7892 0.99192 0.0
C104 C 0.75795 0.74957 0.98895 0.0
C105 C 0.78135 0.74217 0.98488 0.0
C106 C 0.80027 0.758 0.98464 0.0
C107 C 0.79548 0.78174 0.98815 0.0
H108 H 0.53634 0.76623 0.79514 0.0
H109 H 0.53248 0.81533 0.73871 0.0
H110 H 0.52639 0.74264 0.72392 0.0
C111 C 0.5349 0.76994 0.77651 0.0
C112 C 0.53192 0.75167 0.76052 0.0
C113 C 0.53473 0.79294 0.76886 0.0
C114 C 0.53221 0.79758 0.74486 0.0
C115 C 0.52925 0.77967 0.72859 0.0
C116 C 0.52885 0.75657 0.7364 0.0
H117 H 0.24672 0.54158 0.73235 0.0
H118 H 0.29292 0.54132 0.79255 0.0
H119 H 0.32297 0.54177 0.72277 0.0
C120 C 0.2646 0.54178 0.73975 0.0
C121 C 0.28436 0.54181 0.72473 0.0
C122 C 0.26756 0.54134 0.76411 0.0
C123 C 0.29061 0.54142 0.77362 0.0
C124 C 0.31071 0.54184 0.75891 0.0
C125 C 0.3076 0.5416 0.73428 0.0
H126 H 0.47319 0.21934 0.74084 0.0
H127 H 0.47455 0.26842 0.79721 0.0
H128 H 0.48976 0.29048 0.72636 0.0
C129 C 0.47538 0.23698 0.74692 0.0
C130 C 0.48121 0.25426 0.73075 0.0
C131 C 0.4733 0.24186 0.77086 0.0
C132 C 0.47584 0.26466 0.77858 0.0
C133 C 0.48152 0.28246 0.76274 0.0
C134 C 0.48481 0.27709 0.7387 0.0
H135 H 0.71366 0.50002 0.8083 0.0
H136 H 0.77617 0.50072 0.76519 0.0
H137 H 0.70643 0.50364 0.73287 0.0
C138 C 0.72167 0.50073 0.79097 0.0
C139 C 0.70707 0.50157 0.77096 0.0
C140 C 0.74644 0.50029 0.78891 0.0
C141 C 0.75686 0.50087 0.76668 0.0
C142 C 0.7427 0.50237 0.74638 0.0
C143 C 0.71756 0.50268 0.74844 0.0
H144 H 0.49677 0.26265 0.21652 0.0
H145 H 0.50292 0.21645 0.27519 0.0
H146 H 0.50327 0.29003 0.28678 0.0
C147 C 0.49816 0.25991 0.23534 0.0
C148 C 0.49936 0.27906 0.25045 0.0
C149 C 0.49987 0.23735 0.24409 0.0
C150 C 0.50205 0.23393 0.26829 0.0
C151 C 0.50321 0.25263 0.28383 0.0
C152 C 0.5022 0.27543 0.27492 0.0
H153 H 0.74201 0.49447 0.22135 0.0
H154 H 0.78274 0.51482 0.28159 0.0
H155 H 0.70771 0.50059 0.28891 0.0
C156 C 0.74294 0.49805 0.24004 0.0
C157 C 0.72221 0.49674 0.25381 0.0
C158 C 0.76464 0.50487 0.24991 0.0
C159 C 0.76574 0.51012 0.27383 0.0
C160 C 0.74547 0.50837 0.2881 0.0
C161 C 0.72351 0.50179 0.27805 0.0
H162 H 0.55039 0.81787 0.27218 0.0
H163 H 0.54567 0.76444 0.22008 0.0
H164 H 0.53979 0.74719 0.29343 0.0
C165 C 0.54906 0.7997 0.26768 0.0
C166 C 0.54616 0.78334 0.28567 0.0
C167 C 0.54845 0.79315 0.24401 0.0
C168 C 0.54589 0.76975 0.23837 0.0
C169 C 0.54283 0.75312 0.25597 0.0
C170 C 0.54262 0.75992 0.27976 0.0
H171 H 0.24769 0.5361 0.25089 0.0
H172 H 0.30842 0.54634 0.20664 0.0
H173 H 0.31688 0.54775 0.28201 0.0
C174 C 0.26664 0.53936 0.24901 0.0
C175 C 0.2809 0.54212 0.26909 0.0
C176 C 0.27645 0.54108 0.22657 0.0
C177 C 0.30073 0.54552 0.22412 0.0
C178 C 0.31551 0.54769 0.2439 0.0
C179 C 0.30559 0.54614 0.26662 0.0
H180 H 0.76468 0.8148 0.49014 0.0
H181 H 0.81366 0.75837 0.47954 0.0
H182 H 0.7399 0.7446 0.49487 0.0
C183 C 0.7682 0.79638 0.48884 0.0
C184 C 0.74946 0.78079 0.49238 0.0
C185 C 0.79143 0.78849 0.48433 0.0
C186 C 0.79575 0.76468 0.48308 0.0
C187 C 0.77747 0.74875 0.48701 0.0
C188 C 0.75412 0.75679 0.49164 0.0
H189 H 0.80424 0.26979 0.47567 0.0
H190 H 0.75591 0.21524 0.49277 0.0
H191 H 0.73268 0.28613 0.49821 0.0
C192 C 0.78646 0.26427 0.48052 0.0
C193 C 0.76893 0.28086 0.48601 0.0
C194 C 0.78199 0.24067 0.48319 0.0
C195 C 0.75949 0.23355 0.49078 0.0
C196 C 0.74157 0.24975 0.49599 0.0
C197 C 0.74629 0.27352 0.49367 0.0
H198 H 0.21713 0.75944 0.53931 0.0
H199 H 0.26574 0.81523 0.52705 0.0
H200 H 0.28994 0.74474 0.52024 0.0
C201 C 0.2349 0.76552 0.53516 0.0
C202 C 0.25286 0.74935 0.53007 0.0
C203 C 0.23914 0.78929 0.53374 0.0
C204 C 0.26221 0.79687 0.52842 0.0
C205 C 0.28074 0.78102 0.52403 0.0
C206 C 0.27599 0.75709 0.52449 0.0
H207 H 0.22001 0.27208 0.53392 0.0
H208 H 0.27034 0.21737 0.52124 0.0
H209 H 0.29211 0.28814 0.51374 0.0
C210 C 0.23801 0.26641 0.52986 0.0
C211 C 0.25557 0.28294 0.52491 0.0
C212 C 0.24303 0.24274 0.52827 0.0
C213 C 0.26604 0.23566 0.52189 0.0
C214 C 0.28373 0.25179 0.51635 0.0
C215 C 0.27854 0.27556 0.51802 0.0
Zn216 Zn 0.96181 0.99366 0.45484 0.0
Zn217 Zn 0.96621 0.04904 0.46593 0.0
O218 O 0.98534 0.01984 0.46071 0.0
H219 H 0.00223 0.01862 0.45766 0.0
C220 C 0.95672 0.9694 0.51808 0.0
O221 O 0.95287 0.99006 0.50918 0.0
Zn222 Zn 0.06438 0.04474 0.54336 0.0
Zn223 Zn 0.05721 0.98931 0.55244 0.0
O224 O 0.03967 0.0197 0.54591 0.0
H225 H 0.04617 0.00444 0.5486 0.0
Zn226 Zn 0.98139 0.99683 0.55299 0.0
O227 O 0.98648 0.02392 0.53155 0.0
Zn228 Zn 0.98408 0.05172 0.55192 0.0
H229 H -0.00517 0.02294 0.51676 0.0
Zn230 Zn 0.04368 0.9938 0.4638 0.0
O231 O 0.04194 0.02324 0.48215 0.0
H232 H 0.03292 0.02467 0.49652 0.0
Zn233 Zn 0.04748 0.04865 0.45928 0.0
C234 C 0.07123 0.96923 0.49876 0.0
O235 O 0.07734 0.99054 0.50388 0.0
O236 O 0.92878 0.00667 0.44637 0.0
O237 O 0.93287 0.04427 0.45312 0.0
O238 O 0.09129 0.99537 0.56381 0.0
O239 O 0.09573 0.03301 0.55758 0.0
O240 O 0.96734 0.00579 0.58523 0.0
O241 O 0.96744 0.04419 0.58289 0.0
C242 C 0.00182 0.07569 0.4427 0.0
O243 O 0.05698 0.99859 0.43056 0.0
O244 O 0.06225 0.03666 0.42868 0.0
O245 O 0.0418 0.96401 0.57351 0.0
C246 C 0.92054 0.02723 0.44589 0.0
O247 O 0.97139 0.96705 0.43183 0.0
C248 C 0.03242 0.0743 0.56792 0.0
O249 O 0.96878 0.96745 0.53693 0.0
C250 C 0.10365 0.01369 0.56524 0.0
O251 O 0.05645 0.96572 0.4822 0.0
C252 C 0.96202 0.07475 0.51184 0.0
O253 O 0.97951 0.07526 0.44631 0.0
O254 O 0.01457 0.06083 0.45338 0.0
C255 C 0.9627 0.02558 0.59401 0.0
O256 O 0.05449 0.07184 0.56368 0.0
O257 O 0.0181 0.06093 0.55729 0.0
C258 C 0.07204 0.07163 0.49741 0.0
O259 O 0.96669 0.07662 0.53369 0.0
O260 O 0.9681 0.0565 0.50086 0.0
C261 C 0.0639 0.01651 0.41955 0.0
O262 O 0.0674 0.07298 0.47549 0.0
O263 O 0.06521 0.05391 0.50876 0.0
C264 C 0.02594 0.9685 0.5888 0.0
O265 O 0.01719 0.98956 0.59021 0.0
C266 C -0.00804 0.96472 0.42273 0.0
O267 O 0.00901 0.97895 0.42893 0.0
Zn268 Zn 0.47606 0.06399 0.03121 0.0
Zn269 Zn 0.47586 0.06307 0.97465 0.0
O270 O 0.48198 0.04347 0.00295 0.0
H271 H 0.49187 0.02973 0.0033 0.0
C272 C 0.53551 0.07097 0.06392 0.0
O273 O 0.51979 0.06773 0.04713 0.0
Zn274 Zn 0.54702 0.97764 0.9716 0.0
Zn275 Zn 0.55473 0.98035 0.02789 0.0
O276 O 0.54318 0.99809 -0.00048 0.0
H277 H 0.53343 0.01191 0.00016 0.0
Zn278 Zn 0.56709 0.05951 0.02547 0.0
O279 O 0.54177 0.06665 0.00094 0.0
Zn280 Zn 0.56058 0.06189 0.9718 0.0
H281 H 0.52942 0.07821 0.00292 0.0
Zn282 Zn 0.46239 0.97441 0.0319 0.0
O283 O 0.48459 0.97478 0.00415 0.0
H284 H 0.50084 0.98011 0.00514 0.0
Zn285 Zn 0.46278 0.97885 0.97696 0.0
C286 C 0.49828 0.95525 0.0633 0.0
O287 O 0.51022 0.95452 0.04349 0.0
O288 O 0.45575 0.09239 0.02291 0.0
O289 O 0.45571 0.09141 0.9839 0.0
O290 O 0.57357 0.95114 0.01859 0.0
O291 O 0.56762 0.94945 0.97996 0.0
O292 O 0.60005 0.07114 0.01479 0.0
O293 O 0.59423 0.0751 0.97632 0.0
C294 C 0.45086 0.02408 0.95489 0.0
O295 O 0.4285 0.96358 0.02318 0.0
O296 O 0.42976 0.96527 0.98414 0.0
O297 O 0.57355 0.00041 0.05113 0.0
C298 C 0.44883 0.10046 0.00322 0.0
O299 O 0.46294 0.04798 0.06072 0.0
C300 C 0.57056 0.0161 0.94931 0.0
O301 O 0.55747 0.06754 0.05959 0.0
C302 C 0.57729 0.94161 -0.00126 0.0
O303 O 0.47715 0.96339 0.06332 0.0
C304 C 0.52025 0.07856 0.94543 0.0
O305 O 0.45479 0.04548 0.95195 0.0
O306 O 0.46276 0.01303 0.97025 0.0
C307 C 0.60749 0.07711 0.99454 0.0
O308 O 0.56613 0.9947 0.94709 0.0
O309 O 0.56003 0.0276 0.96526 0.0
C310 C 0.49987 0.96174 0.94671 0.0
O311 O 0.54298 0.07786 0.94527 0.0
O312 O 0.50936 0.06932 0.96257 0.0
C313 C 0.41869 0.96063 0.00319 0.0
O314 O 0.47731 0.96274 0.94903 0.0
O315 O 0.51283 0.971 0.9624 0.0
C316 C 0.58956 0.01272 0.04166 0.0
O317 O 0.59161 0.01258 0.01866 0.0
C318 C 0.45149 0.0293 0.05805 0.0
O319 O 0.45063 0.01978 0.03711 0.0
Zn320 Zn 0.97525 0.49028 0.96605 0.0
Zn321 Zn 0.96462 0.54598 0.97196 0.0
O322 O 0.99063 0.52206 0.96798 0.0
H323 H 0.98515 0.50631 0.96693 0.0
C324 C 0.9651 0.45714 0.0245 0.0
O325 O 0.95272 0.47517 0.01729 0.0
Zn326 Zn 0.05808 0.54914 0.03788 0.0
Zn327 Zn 0.05379 0.49277 0.04615 0.0
O328 O 0.03492 0.5227 0.04133 0.0
H329 H 0.04218 0.50766 0.04344 0.0
Zn330 Zn 0.98668 0.49291 0.05376 0.0
O331 O 0.98309 0.52067 0.03227 0.0
Zn332 Zn 0.98025 0.54777 0.05436 0.0
H333 H 0.99014 0.521 0.0168 0.0
Zn334 Zn 0.0432 0.49628 0.95488 0.0
O335 O 0.04137 0.52398 0.97652 0.0
H336 H 0.03412 0.52332 0.99188 0.0
Zn337 Zn 0.04214 0.55161 0.95498 0.0
C338 C 0.06749 0.46165 0.98398 0.0
O339 O 0.07918 0.48017 0.99062 0.0
O340 O 0.93882 0.4937 0.96276 0.0
O341 O 0.93261 0.5318 0.96395 0.0
O342 O 0.08942 0.49996 0.05108 0.0
O343 O 0.09134 0.53823 0.04675 0.0
O344 O 0.9709 0.49909 0.08571 0.0
O345 O 0.96648 0.53737 0.08555 0.0
C346 C -0.00755 0.57667 0.94492 0.0
O347 O 0.06039 0.50458 0.92421 0.0
O348 O 0.05816 0.54305 0.92407 0.0
O349 O 0.04056 0.4659 0.06735 0.0
C350 C 0.92492 0.51119 0.96144 0.0
O351 O 0.98976 0.46437 0.94437 0.0
C352 C 0.02648 0.57686 0.06415 0.0
O353 O 0.98144 0.46006 0.03973 0.0
C354 C 0.10122 0.51874 0.05121 0.0
O355 O 0.05063 0.46383 0.96913 0.0
C356 C 0.95566 0.57236 0.01815 0.0
O357 O 0.97095 0.57321 0.95091 0.0
O358 O 0.00799 0.56206 0.95179 0.0
C359 C 0.96378 0.51774 0.09544 0.0
O360 O 0.04839 0.5758 0.05867 0.0
O361 O 0.01324 0.56052 0.05709 0.0
C362 C 0.0646 0.57664 0.99225 0.0
O363 O 0.95919 0.57227 0.04019 0.0
O364 O 0.96484 0.55623 0.00587 0.0
C365 C 0.06477 0.52401 0.91464 0.0
O366 O 0.06084 0.57705 0.97025 0.0
O367 O 0.05693 0.55959 0.00408 0.0
C368 C 0.03815 0.44541 0.05955 0.0
O369 O 0.04254 0.44134 0.03727 0.0
C370 C -0.00489 0.44436 0.95216 0.0
O371 O -0.00673 0.44033 0.97479 0.0
Zn372 Zn 0.48236 0.47403 0.98324 0.0
Zn373 Zn 0.48291 0.47737 0.04041 0.0
O374 O 0.49325 0.49389 0.01066 0.0
H375 H 0.491 0.51023 0.008 0.0
C376 C 0.52521 0.44575 0.94131 0.0
O377 O 0.51006 0.44314 0.95867 0.0
Zn378 Zn 0.54601 0.5561 0.04571 0.0
Zn379 Zn 0.53985 0.54484 0.99064 0.0
O380 O 0.52701 0.53682 0.02362 0.0
H381 H 0.52177 0.52187 0.02882 0.0
Zn382 Zn 0.55605 0.46783 0.97847 0.0
O383 O 0.53471 0.46557 0.00761 0.0
Zn384 Zn 0.55722 0.46961 0.03502 0.0
H385 H 0.52044 0.4563 0.00819 0.0
Zn386 Zn 0.47991 0.57038 0.98404 0.0
O387 O 0.5015 0.57516 0.01286 0.0
H388 H 0.51525 0.58511 0.01372 0.0
Zn389 Zn 0.47954 0.56692 0.03957 0.0
C390 C 0.50818 0.59237 0.94477 0.0
O391 O 0.52505 0.59467 0.96065 0.0
O392 O 0.45563 0.45235 0.99343 0.0
O393 O 0.45584 0.45567 0.03248 0.0
O394 O 0.56155 0.57338 0.99015 0.0
O395 O 0.56564 0.57973 0.02844 0.0
O396 O 0.59057 0.4587 0.98682 0.0
O397 O 0.59023 0.4587 0.02593 0.0
C398 C 0.47118 0.52234 0.06324 0.0
O399 O 0.44486 0.57683 0.99241 0.0
O400 O 0.44611 0.57784 0.03145 0.0
O401 O 0.54874 0.52081 0.96441 0.0
C402 C 0.44716 0.44736 0.01353 0.0
O403 O 0.47754 0.48781 0.94945 0.0
C404 C 0.57032 0.51337 0.06088 0.0
O405 O 0.54492 0.45582 0.94529 0.0
C406 C 0.57018 0.58492 0.00716 0.0
O407 O 0.48877 0.58264 0.95048 0.0
C408 C 0.52518 0.44782 0.06868 0.0
O409 O 0.47124 0.5004 0.06436 0.0
O410 O 0.4784 0.53243 0.04474 0.0
C411 C 0.60097 0.45531 0.00648 0.0
O412 O 0.56831 0.53512 0.06341 0.0
O413 O 0.55835 0.50319 0.04493 0.0
C414 C 0.50949 0.58333 0.08 0.0
O415 O 0.54668 0.44984 0.062 0.0
O416 O 0.50887 0.45912 0.05791 0.0
C417 C 0.43474 0.58025 0.01213 0.0
O418 O 0.48929 0.58259 0.06974 0.0
O419 O 0.5279 0.57393 0.0709 0.0
C420 C 0.53857 0.52253 0.94445 0.0
O421 O 0.52077 0.53723 0.94206 0.0
C422 C 0.47128 0.50867 0.94576 0.0
O423 O 0.46935 0.5228 0.96375 0.0
Zn424 Zn 0.96338 0.49371 0.47597 0.0
Zn425 Zn 0.96391 0.54832 0.47442 0.0
O426 O 0.98547 0.5211 0.47557 0.0
H427 H 0.00101 0.52103 0.48296 0.0
C428 C 0.92402 0.46981 0.52436 0.0
O429 O 0.91899 0.49181 0.52116 0.0
Zn430 Zn 0.05837 0.55613 0.53969 0.0
Zn431 Zn 0.06377 0.50137 0.53725 0.0
O432 O 0.03978 0.52743 0.535 0.0
H433 H 0.02506 0.52667 0.52617 0.0
Zn434 Zn 0.96087 0.49006 0.55418 0.0
O435 O 0.97065 0.51815 0.53566 0.0
Zn436 Zn 0.97017 0.54567 0.55712 0.0
H437 H 0.98004 0.51707 0.52151 0.0
Zn438 Zn 0.0645 0.49599 0.46133 0.0
O439 O 0.05733 0.5242 0.48118 0.0
H440 H 0.06391 0.52553 0.49679 0.0
Zn441 Zn 0.05196 0.55029 0.45854 0.0
C442 C 0.10048 0.47413 0.49095 0.0
O443 O 0.10516 0.49595 0.49526 0.0
O444 O 0.92932 0.50198 0.46452 0.0
O445 O 0.93129 0.54019 0.46018 0.0
O446 O 0.09637 0.51164 0.55054 0.0
O447 O 0.09078 0.54946 0.55551 0.0
O448 O 0.94569 0.49969 0.58532 0.0
O449 O 0.95322 0.53735 0.58832 0.0
C450 C 0.0033 0.57325 0.45237 0.0
O451 O 0.07973 0.50572 0.43016 0.0
O452 O 0.0693 0.5428 0.42754 0.0
O453 O 0.05028 0.47096 0.55048 0.0
C454 C 0.91987 0.52117 0.45833 0.0
O455 O 0.97839 0.4637 0.46273 0.0
C456 C 0.01524 0.57489 0.56315 0.0
O457 O 0.94195 0.46432 0.53697 0.0
C458 C 0.10377 0.53127 0.55755 0.0
O459 O 0.08301 0.46923 0.47757 0.0
C460 C 0.94676 0.57064 0.52014 0.0
O461 O 0.98099 0.57357 0.45682 0.0
O462 O 0.01581 0.55562 0.45791 0.0
C463 C 0.9438 0.5188 0.59628 0.0
O464 O 0.0372 0.57812 0.55816 0.0
O465 O 0.00522 0.55596 0.5576 0.0
C466 C 0.07371 0.58145 0.49225 0.0
O467 O 0.94875 0.57006 0.54234 0.0
O468 O 0.96011 0.55739 0.50813 0.0
C469 C 0.08024 0.52504 0.41944 0.0
O470 O 0.06933 0.57836 0.47057 0.0
O471 O 0.06361 0.56803 0.5068 0.0
C472 C 0.03 0.47157 0.5604 0.0
O473 O 0.01808 0.49118 0.56109 0.0
C474 C -1e-05 0.46404 0.45596 0.0
O475 O 0.0124 0.48305 0.45855 0.0
Zn476 Zn 0.47119 0.99561 0.47098 0.0
Zn477 Zn 0.46513 0.05135 0.47903 0.0
O478 O 0.48906 0.02518 0.47828 0.0
H479 H 0.5042 0.02535 0.4864 0.0
C480 C 0.45496 0.95697 0.52616 0.0
O481 O 0.4539 0.97375 0.51064 0.0
Zn482 Zn 0.56067 0.0531 0.5333 0.0
Zn483 Zn 0.55607 0.99755 0.54304 0.0
O484 O 0.53758 0.02657 0.5339 0.0
H485 H 0.52303 0.02644 0.5248 0.0
Zn486 Zn 0.48221 0.99153 0.55577 0.0
O487 O 0.47877 0.02104 0.53619 0.0
Zn488 Zn 0.48059 0.04828 0.55838 0.0
H489 H 0.48027 0.00615 0.54373 0.0
Zn490 Zn 0.5482 0.99378 0.45749 0.0
O491 O 0.5507 0.02339 0.47701 0.0
H492 H 0.54987 0.0084 0.46962 0.0
Zn493 Zn 0.54534 0.05014 0.45461 0.0
C494 C 0.57496 0.95884 0.48748 0.0
O495 O 0.57593 0.97559 0.50304 0.0
O496 O 0.43646 0.00256 0.46143 0.0
O497 O 0.43362 0.04087 0.46502 0.0
O498 O 0.59006 0.00541 0.55379 0.0
O499 O 0.59276 0.04318 0.54691 0.0
O500 O 0.47849 -0.00102 0.59102 0.0
O501 O 0.4748 0.03739 0.5916 0.0
C502 C 0.4987 0.07869 0.45357 0.0
O503 O 0.55229 0.00118 0.42233 0.0
O504 O 0.55214 0.03974 0.42137 0.0
O505 O 0.54036 0.97112 0.56264 0.0
C506 C 0.42468 0.02138 0.45935 0.0
O507 O 0.4876 0.96929 0.45146 0.0
C508 C 0.52716 0.07925 0.56153 0.0
O509 O 0.46598 0.96033 0.54544 0.0
C510 C 0.60174 0.02423 0.55445 0.0
O511 O 0.56422 0.96241 0.46808 0.0
C512 C 0.45114 0.07354 0.52721 0.0
O513 O 0.47727 0.07867 0.46071 0.0
O514 O 0.51137 0.06079 0.45757 0.0
C515 C 0.47496 0.01786 0.60208 0.0
O516 O 0.54827 0.07904 0.55342 0.0
O517 O 0.51337 0.0628 0.5555 0.0
C518 C 0.57023 0.07906 0.48585 0.0
O519 O 0.45547 0.07146 0.549 0.0
O520 O 0.46193 0.05997 0.51317 0.0
C521 C 0.554 0.02017 0.41111 0.0
O522 O 0.56584 0.07694 0.46404 0.0
O523 O 0.56291 0.06316 0.49945 0.0
C524 C 0.53358 0.95194 0.55405 0.0
O525 O 0.53466 0.9488 0.53121 0.0
C526 C 0.50005 0.95273 0.45983 0.0
O527 O 0.50423 0.95196 0.48254 0.0
C528 C 0.20642 0.22855 0.54933 0.0
C529 C 0.22398 0.2254 0.53194 0.0
C530 C 0.18818 0.2124 0.55208 0.0
C531 C 0.17337 0.15207 0.54023 0.0
H532 H 0.10766 0.17272 0.53402 0.0
C533 C 0.09842 0.08668 0.52935 0.0
C534 C 0.08471 0.0907 0.50911 0.0
C535 C 0.11256 0.10414 0.5388 0.0
C536 C 0.12591 0.16675 0.53607 0.0
H537 H 0.23573 0.20301 0.50353 0.0
H538 H 0.20449 0.17466 0.50888 0.0
H539 H 0.13954 0.20125 0.53803 0.0
H540 H 0.07395 0.11654 0.4835 0.0
H541 H 0.0989 0.14699 0.49973 0.0
H542 H 0.16012 0.11771 0.53708 0.0
C543 C 0.205 0.18948 0.52051 0.0
C544 C 0.14407 0.18302 0.53851 0.0
C545 C 0.22295 0.20571 0.51752 0.0
C546 C 0.08447 0.11289 0.49909 0.0
C547 C 0.09853 0.1304 0.50854 0.0
C548 C 0.15526 0.13584 0.538 0.0
C549 C 0.18745 0.1927 0.53774 0.0
C550 C 0.168 0.17577 0.53975 0.0
C551 C 0.11324 0.12599 0.52809 0.0
C552 C 0.13145 0.14304 0.53509 0.0
H553 H 0.20682 0.24342 0.56088 0.0
H554 H 0.17477 0.21519 0.56548 0.0
H555 H 0.19172 0.14611 0.54133 0.0
H556 H 0.09924 0.06977 0.53716 0.0
H557 H 0.12368 0.10029 0.55392 0.0
C558 C 0.81698 0.22458 0.46094 0.0
C559 C 0.80162 0.22371 0.48042 0.0
C560 C 0.83673 0.20973 0.45961 0.0
C561 C 0.87804 0.17929 0.49785 0.0
H562 H 0.8913 0.13805 0.44568 0.0
C563 C 0.92841 0.08889 0.48716 0.0
C564 C 0.94925 0.09356 0.49989 0.0
C565 C 0.91391 0.10698 0.47918 0.0
C566 C 0.88792 0.14967 0.46024 0.0
H567 H 0.79461 0.2066 0.51357 0.0
H568 H 0.82908 0.18081 0.51129 0.0
H569 H 0.85758 0.16529 0.44321 0.0
H570 H 0.97208 0.12043 0.51358 0.0
H571 H 0.94677 0.15223 0.49962 0.0
H572 H 0.90756 0.16339 0.51533 0.0
C573 C 0.82583 0.19289 0.49706 0.0
C574 C 0.86875 0.16524 0.45878 0.0
C575 C 0.80602 0.20747 0.49825 0.0
C576 C 0.95606 0.11652 0.50368 0.0
C577 C 0.9416 0.13463 0.49573 0.0
C578 C 0.89724 0.16399 0.49921 0.0
C579 C 0.84154 0.19413 0.47794 0.0
C580 C 0.86331 0.17967 0.47789 0.0
C581 C 0.91995 0.13001 0.48415 0.0
C582 C 0.90205 0.14862 0.48068 0.0
H583 H 0.81387 0.23693 0.44694 0.0
H584 H 0.84864 0.21094 0.44471 0.0
H585 H 0.87429 0.19045 0.5127 0.0
H586 H 0.9223 0.07133 0.48511 0.0
H587 H 0.89711 0.10285 0.47076 0.0
C588 C 0.83329 0.80013 0.49378 0.0
C589 C 0.81148 0.80501 0.48252 0.0
C590 C 0.85169 0.8162 0.49361 0.0
C591 C 0.87345 0.86971 0.46551 0.0
H592 H 0.90251 0.87952 0.52659 0.0
C593 C 0.92632 0.95153 0.49153 0.0
C594 C 0.94492 0.94896 0.50795 0.0
C595 C 0.9128 0.93244 0.48474 0.0
C596 C 0.89499 0.87674 0.50927 0.0
H597 H 0.79225 0.83023 0.46143 0.0
H598 H 0.82427 0.85871 0.46173 0.0
H599 H 0.87343 0.84909 0.5217 0.0
H600 H 0.96547 0.92418 0.52839 0.0
H601 H 0.94229 0.89085 0.51614 0.0
H602 H 0.89482 0.89787 0.45331 0.0
C603 C 0.82717 0.84227 0.47042 0.0
C604 C 0.87825 0.85929 0.50649 0.0
C605 C 0.80874 0.8261 0.47051 0.0
C606 C 0.95093 0.92676 0.51606 0.0
C607 C 0.9376 0.90768 0.5091 0.0
C608 C 0.89031 0.88724 0.4683 0.0
C609 C 0.84866 0.83763 0.48237 0.0
C610 C 0.86721 0.85562 0.48464 0.0
C611 C 0.91782 0.91044 0.4941 0.0
C612 C 0.90117 0.89098 0.49027 0.0
H613 H 0.83593 0.78417 0.50342 0.0
H614 H 0.86816 0.81202 0.50271 0.0
H615 H 0.86534 0.86716 0.44842 0.0
H616 H 0.92138 0.96844 0.48485 0.0
H617 H 0.89764 0.93516 0.4732 0.0
C618 C 0.22212 0.82754 0.54688 0.0
C619 C 0.21904 0.80601 0.53586 0.0
C620 C 0.20357 0.84381 0.54712 0.0
C621 C 0.14967 0.859 0.51335 0.0
H622 H 0.13763 0.90159 0.56466 0.0
C623 C 0.07619 0.92682 0.50528 0.0
C624 C 0.08363 0.9495 0.50992 0.0
C625 C 0.08992 0.90805 0.5128 0.0
C626 C 0.14082 0.88977 0.55023 0.0
H627 H 0.19378 0.7846 0.51685 0.0
H628 H 0.16133 0.8124 0.51822 0.0
H629 H 0.16741 0.87078 0.56946 0.0
H630 H 0.11042 0.97029 0.52743 0.0
H631 H 0.13449 0.93746 0.54045 0.0
H632 H 0.12352 0.87804 0.49397 0.0
C633 C 0.1782 0.81695 0.52627 0.0
C634 C 0.1579 0.87222 0.55293 0.0
C635 C 0.19675 0.80084 0.5258 0.0
C636 C 0.10421 0.95302 0.5236 0.0
C637 C 0.11797 0.9342 0.53113 0.0
C638 C 0.1326 0.87638 0.51072 0.0
C639 C 0.18153 0.83881 0.53644 0.0
C640 C 0.16262 0.85675 0.53442 0.0
C641 C 0.11138 0.91158 0.52506 0.0
C642 C 0.1281 0.89206 0.52904 0.0
H643 H 0.23897 0.83195 0.55504 0.0
H644 H 0.20678 0.86056 0.55495 0.0
H645 H 0.15324 0.84778 0.49852 0.0
H646 H 0.06022 0.92356 0.49506 0.0
H647 H 0.0842 0.89076 0.50827 0.0
C648 C 0.48484 0.21563 0.2089 0.0
C649 C 0.50071 0.21731 0.22798 0.0
C650 C 0.48643 0.19698 0.19336 0.0
C651 C 0.53018 0.15597 0.17075 0.0
H652 H 0.47557 0.12208 0.14733 0.0
C653 C 0.54394 0.08245 0.10538 0.0
C654 C 0.52826 0.08204 0.08613 0.0
C655 C 0.53859 0.09579 0.12512 0.0
C656 C 0.49098 0.13148 0.15359 0.0
H657 H 0.53054 0.20083 0.24585 0.0
H658 H 0.53319 0.16829 0.21885 0.0
H659 H 0.4698 0.15239 0.17679 0.0
H660 H 0.49405 0.0942 0.0729 0.0
H661 H 0.48514 0.11816 0.10691 0.0
H662 H 0.55134 0.136 0.14716 0.0
C663 C 0.51957 0.18136 0.21589 0.0
C664 C 0.48765 0.14879 0.17045 0.0
C665 C 0.51792 0.19988 0.23143 0.0
C666 C 0.50651 0.09419 0.0875 0.0
C667 C 0.50133 0.10785 0.10708 0.0
C668 C 0.53349 0.13891 0.15381 0.0
C669 C 0.50404 0.17986 0.19657 0.0
C670 C 0.50725 0.16118 0.17913 0.0
C671 C 0.51766 0.10935 0.12583 0.0
C672 C 0.51396 0.12645 0.14496 0.0
H673 H 0.47129 0.22876 0.20597 0.0
H674 H 0.47435 0.19629 0.17848 0.0
H675 H 0.54555 0.16555 0.17685 0.0
H676 H 0.56067 0.07298 0.10493 0.0
H677 H 0.55124 0.09602 0.13954 0.0
C678 C 0.79335 0.48746 0.22142 0.0
C679 C 0.78635 0.50627 0.23537 0.0
C680 C 0.8143 0.48847 0.20828 0.0
C681 C 0.87088 0.52141 0.20242 0.0
H682 H 0.87219 0.49183 0.1413 0.0
C683 C 0.94071 0.53623 0.12822 0.0
C684 C 0.94909 0.51615 0.11691 0.0
C685 C 0.92319 0.53474 0.1456 0.0
C686 C 0.87212 0.49997 0.15845 0.0
H687 H 0.79528 0.54099 0.24635 0.0
H688 H 0.83143 0.54321 0.22268 0.0
H689 H 0.83603 0.49035 0.16474 0.0
H690 H 0.94695 0.47866 0.11626 0.0
H691 H 0.9162 0.47624 0.14625 0.0
H692 H 0.90687 0.53181 0.19534 0.0
C693 C 0.82124 0.52737 0.22239 0.0
C694 C 0.85144 0.49906 0.17195 0.0
C695 C 0.80047 0.52621 0.23582 0.0
C696 C 0.94082 0.49449 0.12447 0.0
C697 C 0.92314 0.49306 0.14157 0.0
C698 C 0.89148 0.52264 0.18868 0.0
C699 C 0.82848 0.50848 0.20852 0.0
C700 C 0.85056 0.50966 0.19417 0.0
C701 C 0.91366 0.51319 0.1517 0.0
C702 C 0.89227 0.51178 0.16667 0.0
H703 H 0.78286 0.4718 0.22107 0.0
H704 H 0.81952 0.4734 0.1982 0.0
H705 H 0.87098 0.52948 0.21958 0.0
H706 H 0.94683 0.55317 0.1229 0.0
H707 H 0.9161 0.5505 0.15322 0.0
C708 C 0.53134 0.80918 0.20685 0.0
C709 C 0.54791 0.81098 0.22531 0.0
C710 C 0.5288 0.82695 0.19053 0.0
C711 C 0.55712 0.87832 0.16538 0.0
H712 H 0.49157 0.89438 0.15014 0.0
C713 C 0.49618 0.94628 0.10619 0.0
C714 C 0.5082 0.94434 0.08466 0.0
C715 C 0.50379 0.93351 0.12564 0.0
C716 C 0.50999 0.89045 0.15445 0.0
H717 H 0.57558 0.83239 0.24053 0.0
H718 H 0.57086 0.86378 0.21199 0.0
H719 H 0.49969 0.86464 0.17915 0.0
H720 H 0.53859 0.92873 0.06702 0.0
H721 H 0.55146 0.90595 0.10077 0.0
H722 H 0.56734 0.90427 0.14054 0.0
C723 C 0.55994 0.8485 0.21021 0.0
C724 C 0.51463 0.87313 0.17083 0.0
C725 C 0.5625 0.83064 0.22661 0.0
C726 C 0.52885 0.93048 0.08335 0.0
C727 C 0.53635 0.91755 0.10276 0.0
C728 C 0.55246 0.89574 0.14891 0.0
C729 C 0.54267 0.847 0.19234 0.0
C730 C 0.5382 0.86655 0.17612 0.0
C731 C 0.52344 0.91838 0.12389 0.0
C732 C 0.52882 0.90175 0.14304 0.0
H733 H 0.51963 0.79441 0.20549 0.0
H734 H 0.51563 0.82516 0.17669 0.0
H735 H 0.57546 0.87358 0.16916 0.0
H736 H 0.48043 0.95711 0.10784 0.0
H737 H 0.4938 0.93492 0.14185 0.0
C738 C 0.24839 0.51685 0.20348 0.0
C739 C 0.2615 0.53728 0.20564 0.0
C740 C 0.2344 0.513 0.1836 0.0
C741 C 0.22292 0.53424 0.12271 0.0
H742 H 0.16216 0.50409 0.1325 0.0
C743 C 0.13886 0.53887 0.06292 0.0
C744 C 0.12593 0.51826 0.06031 0.0
C745 C 0.15955 0.53927 0.07664 0.0
C746 C 0.17925 0.51221 0.12945 0.0
H747 H 0.27049 0.56974 0.1891 0.0
H748 H 0.2451 0.56363 0.15473 0.0
H749 H 0.18909 0.50925 0.16549 0.0
H750 H 0.1261 0.48142 0.06782 0.0
H751 H 0.16196 0.48233 0.09199 0.0
H752 H 0.21203 0.53828 0.08671 0.0
C753 C 0.24615 0.55019 0.16794 0.0
C754 C 0.19475 0.51513 0.14834 0.0
C755 C 0.26051 0.55382 0.18766 0.0
C756 C 0.1354 0.49767 0.06973 0.0
C757 C 0.15592 0.49814 0.08359 0.0
C758 C 0.20715 0.53165 0.10383 0.0
C759 C 0.23286 0.52975 0.1657 0.0
C760 C 0.21678 0.52619 0.14525 0.0
C761 C 0.1675 0.51911 0.088 0.0
C762 C 0.18522 0.52058 0.10711 0.0
H763 H 0.24924 0.50372 0.21704 0.0
H764 H 0.22486 0.49684 0.18227 0.0
H765 H 0.23989 0.54254 0.11963 0.0
H766 H 0.13218 0.55499 0.05568 0.0
H767 H 0.16825 0.55565 0.07984 0.0
C768 C 0.5197 0.83094 0.78355 0.0
C769 C 0.53553 0.81217 0.78601 0.0
C770 C 0.5192 0.84849 0.80026 0.0
C771 C 0.55221 0.87631 0.84814 0.0
H772 H 0.48864 0.89299 0.86918 0.0
C773 C 0.53051 0.93566 0.9285 0.0
C774 C 0.50997 0.94952 0.92636 0.0
C775 C 0.53684 0.92042 0.9104 0.0
C776 C 0.50652 0.88883 0.86326 0.0
H777 H 0.5638 0.79744 0.8075 0.0
H778 H 0.5627 0.82825 0.83707 0.0
H779 H 0.49355 0.86307 0.83974 0.0
H780 H 0.4813 0.96016 0.90306 0.0
H781 H 0.49275 0.93436 0.87128 0.0
H782 H 0.56508 0.9023 0.87186 0.0
C783 C 0.55082 0.82931 0.82205 0.0
C784 C 0.50931 0.87162 0.84645 0.0
C785 C 0.55128 0.81162 0.8053 0.0
C786 C 0.49703 0.94937 0.90524 0.0
C787 C 0.50351 0.93449 0.88713 0.0
C788 C 0.5494 0.89373 0.86502 0.0
C789 C 0.53446 0.84768 0.81986 0.0
C790 C 0.53212 0.86538 0.83847 0.0
C791 C 0.52278 0.91908 0.88993 0.0
C792 C 0.52645 0.90039 0.87246 0.0
H793 H 0.50717 0.83174 0.76905 0.0
H794 H 0.50658 0.86259 0.79802 0.0
H795 H 0.57 0.87176 0.84225 0.0
H796 H 0.54063 0.9354 0.94471 0.0
H797 H 0.5518 0.90875 0.91305 0.0
C798 C 0.22775 0.55642 0.77673 0.0
C799 C 0.24637 0.5403 0.77943 0.0
C800 C 0.20707 0.55464 0.79021 0.0
C801 C 0.18292 0.52573 0.84351 0.0
H802 H 0.1219 0.543 0.81601 0.0
C803 C 0.0944 0.50481 0.88829 0.0
C804 C 0.08086 0.52456 0.89408 0.0
C805 C 0.11297 0.50624 0.87211 0.0
C806 C 0.13887 0.53817 0.82383 0.0
H807 H 0.25811 0.50962 0.79798 0.0
H808 H 0.2217 0.50588 0.82098 0.0
H809 H 0.15828 0.54638 0.79268 0.0
H810 H 0.07496 0.56082 0.886 0.0
H811 H 0.10722 0.56306 0.85714 0.0
H812 H 0.16325 0.51684 0.87437 0.0
C813 C 0.22322 0.52038 0.80907 0.0
C814 C 0.15974 0.54025 0.8106 0.0
C815 C 0.24408 0.52243 0.79588 0.0
C816 C 0.08514 0.54534 0.882 0.0
C817 C 0.10353 0.54664 0.86549 0.0
C818 C 0.16204 0.52325 0.85651 0.0
C819 C 0.20439 0.53644 0.80639 0.0
C820 C 0.18208 0.53413 0.82032 0.0
C821 C 0.11808 0.52729 0.86109 0.0
C822 C 0.13988 0.52949 0.8468 0.0
H823 H 0.22924 0.57042 0.76418 0.0
H824 H 0.19325 0.56762 0.78799 0.0
H825 H 0.19975 0.52134 0.85183 0.0
H826 H 0.0916 0.48852 0.8972 0.0
H827 H 0.12387 0.49106 0.86879 0.0
C828 C 0.48508 0.20289 0.78557 0.0
C829 C 0.47069 0.22271 0.78786 0.0
C830 C 0.48366 0.18504 0.80187 0.0
C831 C 0.46719 0.17376 0.86297 0.0
H832 H 0.47948 0.11041 0.84389 0.0
C833 C 0.48508 0.10079 0.92998 0.0
C834 C 0.5074 0.09033 0.92619 0.0
C835 C 0.4745 0.11441 0.9125 0.0
C836 C 0.47578 0.12799 0.84944 0.0
H837 H 0.44329 0.23932 0.80881 0.0
H838 H 0.44061 0.20781 0.83745 0.0
H839 H 0.47131 0.13977 0.81411 0.0
H840 H 0.53561 0.08478 0.90077 0.0
H841 H 0.51702 0.10822 0.87012 0.0
H842 H 0.47225 0.16193 0.8983 0.0
C843 C 0.45313 0.20624 0.82307 0.0
C844 C 0.47124 0.14482 0.83244 0.0
C845 C 0.45465 0.22424 0.80673 0.0
C846 C 0.51841 0.09272 0.9042 0.0
C847 C 0.5077 0.10598 0.88662 0.0
C848 C 0.47146 0.15684 0.88 0.0
C849 C 0.46774 0.18649 0.82085 0.0
C850 C 0.46787 0.16806 0.83896 0.0
C851 C 0.48592 0.11738 0.8908 0.0
C852 C 0.47666 0.13401 0.87329 0.0
H853 H 0.498 0.20146 0.77151 0.0
H854 H 0.49567 0.17043 0.79997 0.0
H855 H 0.46485 0.19151 0.8686 0.0
H856 H 0.47639 0.09941 0.94678 0.0
H857 H 0.4577 0.12306 0.91611 0.0
C858 C 0.77724 0.48074 0.81351 0.0
C859 C 0.76147 0.49931 0.81007 0.0
C860 C 0.79164 0.47988 0.8335 0.0
C861 C 0.80067 0.50709 0.89241 0.0
H862 H 0.86485 0.4831 0.88407 0.0
C863 C 0.88503 0.52651 0.94863 0.0
C864 C 0.90018 0.50756 0.95325 0.0
C865 C 0.8641 0.5235 0.93562 0.0
C866 C 0.84685 0.48953 0.88673 0.0
H867 H 0.74813 0.53153 0.82434 0.0
H868 H 0.7742 0.5308 0.85877 0.0
H869 H 0.83706 0.48224 0.85135 0.0
H870 H 0.90383 0.47024 0.95022 0.0
H871 H 0.8676 0.46524 0.92717 0.0
H872 H 0.81146 0.51569 0.92759 0.0
C873 C 0.77494 0.51642 0.84662 0.0
C874 C 0.83084 0.48897 0.86801 0.0
C875 C 0.76017 0.517 0.82684 0.0
C876 C 0.89279 0.48528 0.94667 0.0
C877 C 0.87205 0.48235 0.93349 0.0
C878 C 0.81693 0.50806 0.91106 0.0
C879 C 0.79094 0.49788 0.85016 0.0
C880 C 0.80755 0.49777 0.87055 0.0
C881 C 0.85817 0.50156 0.92699 0.0
C882 C 0.84011 0.49926 0.9083 0.0
H883 H 0.77824 0.46682 0.8008 0.0
H884 H 0.80331 0.46507 0.83586 0.0
H885 H 0.78278 0.51371 0.89513 0.0
H886 H 0.89008 0.54386 0.95367 0.0
H887 H 0.8536 0.53856 0.93076 0.0
C888 C 0.73527 0.71705 0.97086 0.0
C889 C 0.73809 0.73296 0.98923 0.0
C890 C 0.71579 0.70214 0.9706 0.0
C891 C 0.65586 0.69426 -0.00308 0.0
H892 H 0.66478 0.63068 0.97703 0.0
C893 C 0.59214 0.62011 0.02012 0.0
C894 C 0.58649 0.60424 0.0023 0.0
C895 C 0.60886 0.6374 0.01615 0.0
C896 C 0.66197 0.64848 0.9823 0.0
H897 H 0.72334 0.74552 0.02202 0.0
H898 H 0.68972 0.71903 0.02203 0.0
H899 H 0.69818 0.65737 0.97522 0.0
H900 H 0.59333 0.59449 0.96608 0.0
H901 H 0.62295 0.62459 0.95933 0.0
H902 H 0.61983 0.68494 0.00489 0.0
C903 C 0.70205 0.71847 0.00742 0.0
C904 C 0.68107 0.66379 0.98125 0.0
C905 C 0.72137 0.73352 0.00753 0.0
C906 C 0.59737 0.60643 0.98018 0.0
C907 C 0.61435 0.62356 0.97632 0.0
C908 C 0.63684 0.67887 -0.00178 0.0
C909 C 0.69893 0.70272 0.98886 0.0
C910 C 0.67831 0.68679 0.9888 0.0
C911 C 0.62043 0.63899 0.99438 0.0
C912 C 0.63983 0.65581 0.99114 0.0
H913 H 0.74783 0.71652 0.95642 0.0
H914 H 0.71375 0.69043 0.9559 0.0
H915 H 0.65298 0.71198 0.0024 0.0
H916 H 0.58393 0.61897 0.03729 0.0
H917 H 0.61338 0.64901 0.0304 0.0
C918 C 0.27446 0.71834 0.03911 0.0
C919 C 0.27118 0.73305 0.01976 0.0
C920 C 0.29029 0.69969 0.03776 0.0
C921 C 0.34066 0.6768 0.00229 0.0
H922 H 0.32645 0.61979 0.03523 0.0
C923 C 0.39969 0.59736 0.99111 0.0
C924 C 0.41045 0.59037 0.01234 0.0
C925 C 0.37949 0.61152 0.99129 0.0
C926 C 0.33051 0.63562 0.02592 0.0
H927 H 0.28145 0.73993 0.98382 0.0
H928 H 0.30855 0.70691 0.98104 0.0
H929 H 0.29807 0.65205 0.03672 0.0
H930 H 0.40691 0.59067 0.05034 0.0
H931 H 0.37132 0.61532 0.05053 0.0
H932 H 0.37288 0.66017 0.99121 0.0
C933 C 0.29954 0.71006 -0.00246 0.0
C934 C 0.31443 0.65416 0.02691 0.0
C935 C 0.28401 0.72895 -0.00094 0.0
C936 C 0.3992 0.59597 0.03369 0.0
C937 C 0.3788 0.60999 0.03383 0.0
C938 C 0.35646 0.65817 0.00099 0.0
C939 C 0.30285 0.69515 0.01687 0.0
C940 C 0.31945 0.67508 0.01528 0.0
C941 C 0.36949 0.61869 0.01266 0.0
C942 C 0.35161 0.6375 0.01291 0.0
H943 H 0.26475 0.72131 0.05528 0.0
H944 H 0.29276 0.68894 0.05316 0.0
H945 H 0.34543 0.69273 0.99354 0.0
H946 H 0.40769 0.59314 0.97433 0.0
H947 H 0.37236 0.61782 0.97475 0.0
C948 C 0.27395 0.32075 0.00085 0.0
C949 C 0.27298 0.30411 0.01873 0.0
C950 C 0.29205 0.3372 0.00081 0.0
C951 C 0.35211 0.34754 0.02583 0.0
H952 H 0.34103 0.41002 0.00341 0.0
C953 C 0.42078 0.4205 0.03576 0.0
C954 C 0.42643 0.43191 0.01474 0.0
C955 C 0.40136 0.40557 0.03665 0.0
C956 C 0.34429 0.39259 0.00965 0.0
H957 H 0.28928 0.29188 0.05098 0.0
H958 H 0.32035 0.32117 0.05155 0.0
H959 H 0.3079 0.38282 0.00473 0.0
H960 H 0.41587 0.43722 0.97837 0.0
H961 H 0.38168 0.41134 0.98014 0.0
H962 H 0.3884 0.3576 0.03122 0.0
C963 C 0.30773 0.32115 0.03711 0.0
C964 C 0.32542 0.37698 0.0103 0.0
C965 C 0.28988 0.30451 0.03693 0.0
C966 C 0.41204 0.4285 0.99477 0.0
C967 C 0.39241 0.41387 -0.00421 0.0
C968 C 0.37084 0.36324 0.02552 0.0
C969 C 0.30927 0.33746 0.01885 0.0
C970 C 0.32914 0.35425 0.01837 0.0
C971 C 0.38708 0.40215 0.01667 0.0
C972 C 0.36707 0.38583 0.01739 0.0
H973 H 0.2612 0.32053 0.98651 0.0
H974 H 0.29291 0.34927 0.98629 0.0
H975 H 0.35577 0.33003 0.0316 0.0
H976 H 0.43156 0.42282 0.05141 0.0
H977 H 0.39742 0.39674 0.05297 0.0
C978 C 0.74609 0.3032 0.98418 0.0
C979 C 0.76252 0.29918 0.00235 0.0
C980 C 0.72987 0.3215 0.98571 0.0
C981 C 0.71885 0.37663 0.01758 0.0
H982 H 0.65604 0.37017 0.9897 0.0
C983 C 0.63585 0.43797 0.02801 0.0
C984 C 0.62455 0.44374 0.00664 0.0
C985 C 0.65523 0.42264 0.02828 0.0
C986 C 0.67359 0.37219 -0.00256 0.0
H987 H 0.77466 0.31047 0.0366 0.0
H988 H 0.74562 0.34194 0.03983 0.0
H989 H 0.68339 0.33737 0.98967 0.0
H990 H 0.62616 0.43962 0.96871 0.0
H991 H 0.65966 0.41266 0.9694 0.0
H992 H 0.70829 0.41141 0.02604 0.0
C993 C 0.7457 0.33151 0.02403 0.0
C994 C 0.68932 0.35347 -0.00266 0.0
C995 C 0.7622 0.31342 0.0223 0.0
C996 C 0.63425 0.43539 0.98549 0.0
C997 C 0.65337 0.41991 0.98583 0.0
C998 C 0.70286 0.39527 0.01806 0.0
C999 C 0.72946 0.33591 0.00566 0.0
C1000 C 0.71231 0.35554 0.00705 0.0
C1001 C 0.66339 0.41279 0.00725 0.0
C1002 C 0.6803 0.39324 0.00762 0.0
H1003 H 0.74624 0.29256 0.96851 0.0
H1004 H 0.718 0.32461 0.97099 0.0
H1005 H 0.73649 0.37895 0.02499 0.0
H1006 H 0.62891 0.44423 0.0446 0.0
H1007 H 0.6628 0.41733 0.04499 0.0
C1008 C 0.96555 0.70978 0.71507 0.0
C1009 C 0.97683 0.73125 0.71219 0.0
C1010 C 0.96387 0.69432 0.69626 0.0
C1011 C -0.00333 0.68067 0.64265 0.0
H1012 H 0.94462 0.63873 0.62935 0.0
C1013 C 0.00677 0.61653 0.56871 0.0
C1014 C 0.00188 0.59355 0.57471 0.0
C1015 C -0.00194 0.63456 0.58248 0.0
C1016 C 0.95926 0.65036 0.63291 0.0
H1017 H -0.00578 0.75364 0.68689 0.0
H1018 H 0.9904 0.72722 0.65412 0.0
H1019 H 0.93984 0.66848 0.65975 0.0
H1020 H 0.98302 0.57123 0.59872 0.0
H1021 H 0.96818 0.60283 0.62338 0.0
H1022 H 0.01642 0.66245 0.61661 0.0
C1023 C 0.98328 0.72212 0.67101 0.0
C1024 C 0.95655 0.66732 0.65029 0.0
C1025 C 0.98517 0.73741 0.68979 0.0
C1026 C 0.98674 0.58888 0.59368 0.0
C1027 C 0.97829 0.60697 0.60776 0.0
C1028 C -0.00064 0.66385 0.62543 0.0
C1029 C 0.97337 0.70011 0.67422 0.0
C1030 C 0.97528 0.68264 0.65528 0.0
C1031 C 0.98478 0.62991 0.60284 0.0
C1032 C 0.98074 0.64851 0.62031 0.0
H1033 H 0.95859 0.70466 0.73202 0.0
H1034 H 0.95619 0.67745 0.69927 0.0
H1035 H 0.0117 0.69173 0.64653 0.0
H1036 H 0.01819 0.6205 0.55393 0.0
H1037 H 0.00282 0.6521 0.57789 0.0
C1038 C 0.31994 0.01754 0.73822 0.0
C1039 C 0.31424 0.99749 0.75081 0.0
C1040 C 0.34174 0.01913 0.72658 0.0
C1041 C 0.38741 0.98441 0.69867 0.0
H1042 H 0.42608 0.03954 0.70422 0.0
C1043 C 0.46721 0.99541 0.63874 0.0
C1044 C 0.46691 0.01663 0.62671 0.0
C1045 C 0.45406 0.99271 0.65933 0.0
C1046 C 0.4155 0.02404 0.7025 0.0
H1047 H 0.32634 0.96324 0.76087 0.0
H1048 H 0.3644 0.96583 0.74002 0.0
H1049 H 0.39049 0.03539 0.72856 0.0
H1050 H 0.45491 0.05235 0.62825 0.0
H1051 H 0.43158 0.04751 0.66365 0.0
H1052 H 0.41133 0.97354 0.67174 0.0
C1053 C 0.35213 0.98037 0.73941 0.0
C1054 C 0.39517 0.02169 0.7164 0.0
C1055 C 0.33047 0.97891 0.75132 0.0
C1056 C 0.45534 0.03571 0.63698 0.0
C1057 C 0.44201 0.03294 0.65742 0.0
C1058 C 0.40754 0.98686 0.68459 0.0
C1059 C 0.35801 0.00057 0.72713 0.0
C1060 C 0.38072 0.00208 0.71422 0.0
C1061 C 0.44026 0.01112 0.66814 0.0
C1062 C 0.42153 0.00694 0.68597 0.0
H1063 H 0.30772 0.03213 0.73774 0.0
H1064 H 0.34578 0.03476 0.71693 0.0
H1065 H 0.37641 0.96921 0.69656 0.0
H1066 H 0.47634 0.98048 0.6315 0.0
H1067 H 0.4536 0.97585 0.66758 0.0
C1068 C 0.98574 0.30838 0.69031 0.0
C1069 C 0.0013 0.31002 0.70968 0.0
C1070 C 0.98555 0.32542 0.67295 0.0
C1071 C 0.00061 0.38594 0.66236 0.0
H1072 H 0.00576 0.36785 0.59689 0.0
C1073 C 0.00162 0.4534 0.58859 0.0
C1074 C 0.02137 0.45131 0.57355 0.0
C1075 C -0.00456 0.43523 0.60346 0.0
C1076 C 0.00418 0.3731 0.6151 0.0
H1077 H 0.02893 0.33082 0.7259 0.0
H1078 H 0.02816 0.36081 0.69583 0.0
H1079 H 0.00267 0.33812 0.62733 0.0
H1080 H 0.04909 0.42803 0.56107 0.0
H1081 H 0.03821 0.39628 0.587 0.0
H1082 H 0.00271 0.42085 0.65028 0.0
C1083 C 0.01605 0.34637 0.69421 0.0
C1084 C 0.00228 0.35615 0.63245 0.0
C1085 C 0.01643 0.32923 0.71145 0.0
C1086 C 0.03389 0.43021 0.5726 0.0
C1087 C 0.02758 0.41198 0.58733 0.0
C1088 C 0.00227 0.40287 0.64502 0.0
C1089 C 0.0007 0.34455 0.67477 0.0
C1090 C 0.00089 0.36244 0.65626 0.0
C1091 C 0.00874 0.41457 0.60335 0.0
C1092 C 0.00444 0.3966 0.62127 0.0
H1093 H 0.97359 0.294 0.68861 0.0
H1094 H 0.9734 0.32376 0.65821 0.0
H1095 H -0.00065 0.39121 0.68059 0.0
H1096 H -0.0085 0.46939 0.58961 0.0
H1097 H 0.98065 0.43753 0.61548 0.0
C1098 C 0.74549 0.06019 0.71024 0.0
C1099 C 0.74283 0.04451 0.72882 0.0
C1100 C 0.73217 0.05763 0.68964 0.0
C1101 C 0.67888 0.02719 0.666 0.0
H1102 H 0.70577 0.04445 0.60575 0.0
C1103 C 0.63188 0.0049 0.5803 0.0
C1104 C 0.62439 0.02469 0.56788 0.0
C1105 C 0.64954 0.00647 0.59751 0.0
C1106 C 0.69816 0.03956 0.6225 0.0
H1107 H 0.72482 0.01366 0.74056 0.0
H1108 H 0.70229 0.00844 0.7043 0.0
H1109 H 0.72965 0.04878 0.64153 0.0
H1110 H 0.6314 0.06112 0.56204 0.0
H1111 H 0.66273 0.06364 0.59195 0.0
H1112 H 0.6477 0.01737 0.64678 0.0
C1113 C 0.71389 0.02327 0.70576 0.0
C1114 C 0.71167 0.0422 0.64302 0.0
C1115 C 0.72684 0.02614 0.72651 0.0
C1116 C 0.63663 0.04558 0.57141 0.0
C1117 C 0.65457 0.04706 0.58847 0.0
C1118 C 0.66565 0.02413 0.64549 0.0
C1119 C 0.71629 0.03904 0.68705 0.0
C1120 C 0.70216 0.03611 0.66507 0.0
C1121 C 0.66034 0.02774 0.60233 0.0
C1122 C 0.67514 0.03032 0.62362 0.0
H1123 H 0.75774 0.07453 0.71177 0.0
H1124 H 0.73418 0.07038 0.67587 0.0
H1125 H 0.67065 0.02286 0.6826 0.0
H1126 H 0.62304 0.98847 0.57792 0.0
H1127 H 0.65395 0.99131 0.60786 0.0
C1128 C 0.0235 0.32943 0.30013 0.0
C1129 C 0.03831 0.30978 0.30162 0.0
C1130 C 0.02386 0.34612 0.31782 0.0
C1131 C 0.03509 0.35268 0.38014 0.0
H1132 H 0.03521 0.41828 0.36604 0.0
C1133 C 0.03118 0.4471 0.42971 0.0
C1134 C 0.00998 0.44444 0.44255 0.0
C1135 C 0.03886 0.42977 0.41439 0.0
C1136 C 0.0355 0.40002 0.37027 0.0
H1137 H 0.06581 0.29276 0.32246 0.0
H1138 H 0.06582 0.32166 0.35369 0.0
H1139 H 0.0407 0.3903 0.33433 0.0
H1140 H 0.98113 0.42096 0.45072 0.0
H1141 H -0.00529 0.3906 0.42411 0.0
H1142 H 0.02905 0.36243 0.41599 0.0
C1143 C 0.05394 0.324 0.33882 0.0
C1144 C 0.03842 0.38406 0.35213 0.0
C1145 C 0.05381 0.30745 0.32099 0.0
C1146 C -0.00256 0.42356 0.44092 0.0
C1147 C 0.00528 0.40613 0.42581 0.0
C1148 C 0.03187 0.36866 0.39826 0.0
C1149 C 0.03885 0.34339 0.33744 0.0
C1150 C 0.0379 0.36027 0.35687 0.0
C1151 C 0.02566 0.40937 0.41192 0.0
C1152 C 0.03173 0.39245 0.39341 0.0
H1153 H 0.01109 0.33161 0.28566 0.0
H1154 H 0.01183 0.36081 0.31652 0.0
H1155 H 0.03448 0.3344 0.3842 0.0
H1156 H 0.04132 0.46296 0.43068 0.0
H1157 H 0.05476 0.43255 0.404 0.0
C1158 C 0.71244 0.04409 0.2847 0.0
C1159 C 0.71448 0.03648 0.26137 0.0
C1160 C 0.69134 0.04083 0.29709 0.0
C1161 C 0.63499 0.00831 0.29829 0.0
H1162 H 0.61587 0.05965 0.33789 0.0
C1163 C 0.57367 -0.00029 0.37782 0.0
C1164 C 0.56199 0.01951 0.38647 0.0
C1165 C 0.58685 0.00083 0.35712 0.0
C1166 C 0.62048 0.04531 0.32651 0.0
H1167 H 0.69639 0.01839 0.23312 0.0
H1168 H 0.65914 0.01334 0.25461 0.0
H1169 H 0.65077 0.06322 0.31334 0.0
H1170 H 0.55203 0.05496 0.37865 0.0
H1171 H 0.57424 0.05664 0.34194 0.0
H1172 H 0.60446 0.99046 0.31148 0.0
C1173 C 0.67397 0.0217 0.26332 0.0
C1174 C 0.64086 0.04721 0.31278 0.0
C1175 C 0.6952 0.02482 0.25095 0.0
C1176 C 0.56131 0.03958 0.37263 0.0
C1177 C 0.57414 0.04057 0.35169 0.0
C1178 C 0.61438 0.00646 0.31194 0.0
C1179 C 0.67168 0.03012 0.28635 0.0
C1180 C 0.64875 0.02852 0.29908 0.0
C1181 C 0.58826 0.02166 0.34451 0.0
C1182 C 0.60726 0.02475 0.32669 0.0
H1183 H 0.72688 0.05325 0.29321 0.0
H1184 H 0.69032 0.04702 0.31502 0.0
H1185 H 0.64062 0.99362 0.28784 0.0
H1186 H 0.57438 0.9839 0.38801 0.0
H1187 H 0.59749 0.98592 0.35221 0.0
C1188 C 0.04696 0.70985 0.3016 0.0
C1189 C 0.03289 0.73005 0.30214 0.0
C1190 C 0.04847 0.69551 0.3213 0.0
C1191 C 0.0128 0.68052 0.37265 0.0
H1192 H 0.06878 0.64541 0.39175 0.0
C1193 C 0.00515 0.61563 0.44661 0.0
C1194 C 0.01409 0.59356 0.44134 0.0
C1195 C 0.01214 0.63467 0.4334 0.0
C1196 C 0.05304 0.65514 0.38658 0.0
H1197 H 0.01005 0.75143 0.32409 0.0
H1198 H 0.01335 0.7269 0.35856 0.0
H1199 H 0.07219 0.67473 0.36088 0.0
H1200 H 0.03799 0.57404 0.41903 0.0
H1201 H 0.05004 0.60728 0.39552 0.0
H1202 H -0.00659 0.66067 0.39756 0.0
C1203 C 0.02289 0.72192 0.3428 0.0
C1204 C 0.05497 0.67185 0.36894 0.0
C1205 C 0.02124 0.73613 0.3231 0.0
C1206 C 0.03125 0.59098 0.42364 0.0
C1207 C 0.03807 0.61002 0.41019 0.0
C1208 C 0.01088 0.66392 0.39019 0.0
C1209 C 0.036 0.70116 0.34193 0.0
C1210 C 0.03479 0.68457 0.36169 0.0
C1211 C 0.02784 0.63189 0.41438 0.0
C1212 C 0.0309 0.65091 0.39725 0.0
H1213 H 0.05644 0.70489 0.2858 0.0
H1214 H 0.05859 0.67955 0.32004 0.0
H1215 H -0.00322 0.68959 0.36709 0.0
H1216 H -0.00794 0.61804 0.46039 0.0
H1217 H 0.00437 0.65141 0.43738 0.0
C1218 C 0.28294 0.97846 0.30504 0.0
C1219 C 0.28372 0.99476 0.28682 0.0
C1220 C 0.29595 0.98203 0.3257 0.0
C1221 C 0.34572 0.01731 0.34956 0.0
H1222 H 0.3211 0.99708 0.40977 0.0
C1223 C 0.39345 0.04053 0.43466 0.0
C1224 C 0.40173 0.02076 0.44658 0.0
C1225 C 0.37541 0.03869 0.41782 0.0
C1226 C 0.32804 0.00288 0.39304 0.0
H1227 H 0.29793 0.02775 0.27589 0.0
H1228 H 0.31987 0.0345 0.31212 0.0
H1229 H 0.29755 0.99082 0.37407 0.0
H1230 H 0.39586 0.98412 0.45214 0.0
H1231 H 0.36397 0.98109 0.42299 0.0
H1232 H 0.37597 0.02969 0.36862 0.0
C1233 C 0.31006 0.01853 0.31034 0.0
C1234 C 0.31474 -0.00088 0.37258 0.0
C1235 C 0.29744 0.01475 0.2896 0.0
C1236 C 0.38999 -0.00039 0.44307 0.0
C1237 C 0.37169 0.99787 0.42647 0.0
C1238 C 0.35873 0.02143 0.37 0.0
C1239 C 0.30961 0.00218 0.32864 0.0
C1240 C 0.32349 0.0062 0.35055 0.0
C1241 C 0.36507 0.01717 0.41298 0.0
C1242 C 0.35006 0.0142 0.39187 0.0
H1243 H 0.27245 0.9629 0.30318 0.0
H1244 H 0.29548 0.96888 0.33923 0.0
H1245 H 0.35337 0.02248 0.33294 0.0
H1246 H 0.40208 0.05708 0.43699 0.0
H1247 H 0.37038 0.05384 0.40772 0.0
C1248 C 0.01927 0.21145 0.28172 0.0
C1249 C 0.03903 0.22627 0.28216 0.0
C1250 C 0.01868 0.19196 0.29646 0.0
C1251 C 0.04015 0.17653 0.35448 0.0
H1252 H 0.01825 0.11436 0.34157 0.0
C1253 C 0.00197 0.1149 0.42469 0.0
C1254 C 0.0116 0.09245 0.42568 0.0
C1255 C 0.00824 0.12999 0.40657 0.0
C1256 C 0.02458 0.13163 0.34535 0.0
H1257 H 0.07431 0.23145 0.29675 0.0
H1258 H 0.07332 0.19756 0.32227 0.0
H1259 H 0.02359 0.1418 0.30896 0.0
H1260 H 0.03505 0.06803 0.40832 0.0
H1261 H 0.04579 0.09441 0.37619 0.0
H1262 H 0.04021 0.1668 0.39083 0.0
C1263 C 0.05825 0.20097 0.31078 0.0
C1264 C 0.02747 0.14732 0.32675 0.0
C1265 C 0.05891 0.22022 0.29601 0.0
C1266 C 0.02787 0.08543 0.4083 0.0
C1267 C 0.03373 0.10038 0.38978 0.0
C1268 C 0.0368 0.16106 0.37302 0.0
C1269 C 0.03775 0.1872 0.31193 0.0
C1270 C 0.03532 0.16994 0.33115 0.0
C1271 C 0.02379 0.12275 0.38867 0.0
C1272 C 0.02892 0.13848 0.36869 0.0
H1273 H 0.00358 0.21594 0.27149 0.0
H1274 H 0.00262 0.18166 0.29703 0.0
H1275 H 0.04593 0.19393 0.35846 0.0
H1276 H 0.98915 0.12063 0.43771 0.0
H1277 H 0.00023 0.14707 0.40608 0.0
C1278 C 0.81108 0.06805 0.2666 0.0
C1279 C 0.80207 0.04707 0.2582 0.0
C1280 C 0.827 0.06819 0.28556 0.0
C1281 C 0.8632 0.03036 0.32503 0.0
H1282 H 0.83988 0.07145 0.37391 0.0
C1283 C 0.88767 0.01336 0.42003 0.0
C1284 C 0.89935 0.03189 0.43105 0.0
C1285 C 0.87426 0.01708 0.39971 0.0
C1286 C 0.84663 0.06 0.36038 0.0
H1287 H 0.80384 0.00985 0.26123 0.0
H1288 H 0.8318 0.00991 0.29401 0.0
H1289 H 0.82441 0.07521 0.33389 0.0
H1290 H 0.90294 0.06927 0.43152 0.0
H1291 H 0.87923 0.07567 0.39612 0.0
H1292 H 0.88489 0.01474 0.35167 0.0
C1293 C 0.82685 0.0263 0.28613 0.0
C1294 C 0.83802 0.06228 0.33742 0.0
C1295 C 0.81091 0.0262 0.2673 0.0
C1296 C 0.89448 0.05455 0.42328 0.0
C1297 C 0.88096 0.05826 0.40293 0.0
C1298 C 0.87164 0.02798 0.34797 0.0
C1299 C 0.83405 0.04731 0.29626 0.0
C1300 C 0.84591 0.04721 0.31958 0.0
C1301 C 0.87205 0.03938 0.39021 0.0
C1302 C 0.8631 0.04247 0.36594 0.0
H1303 H 0.80417 0.08433 0.25996 0.0
H1304 H 0.83258 0.08462 0.29276 0.0
H1305 H 0.86987 0.01872 0.31164 0.0
H1306 H 0.89065 0.99573 0.42581 0.0
H1307 H 0.86692 0.00231 0.39056 0.0
C1308 C 0.03929 0.81995 0.27147 0.0
C1309 C 0.01905 0.80671 0.26634 0.0
C1310 C 0.03708 0.84065 0.28398 0.0
C1311 C -0.00664 0.88278 0.30946 0.0
H1312 H 0.03934 0.88475 0.3605 0.0
C1313 C 0.97679 0.93496 0.3944 0.0
C1314 C -0.00398 0.94741 0.40391 0.0
C1315 C 0.98035 0.91962 0.37573 0.0
C1316 C 0.02655 0.88469 0.3462 0.0
H1317 H 0.98063 0.80511 0.26894 0.0
H1318 H 0.9766 0.84126 0.29071 0.0
H1319 H 0.0442 0.85646 0.32926 0.0
H1320 H 0.03412 0.95306 0.40155 0.0
H1321 H 0.04035 0.92627 0.36894 0.0
H1322 H 0.97535 0.91065 0.32692 0.0
C1323 C -0.00582 0.83603 0.28482 0.0
C1324 C 0.02938 0.86851 0.32816 0.0
C1325 C -0.00359 0.81538 0.27218 0.0
C1326 C 0.01894 0.94382 0.39457 0.0
C1327 C 0.02252 0.92839 0.37595 0.0
C1328 C 0.99048 0.89892 0.32757 0.0
C1329 C 0.01461 0.84831 0.29188 0.0
C1330 C 0.0127 0.86717 0.30966 0.0
C1331 C 0.00322 0.91624 0.36618 0.0
C1332 C 0.0069 0.89989 0.3463 0.0
H1333 H 0.05696 0.81332 0.26753 0.0
H1334 H 0.05314 0.84991 0.28867 0.0
H1335 H 0.98032 0.88241 0.29538 0.0
H1336 H 0.95889 0.93727 0.40118 0.0
H1337 H 0.96517 0.91024 0.3689 0.0
C1338 C 0.19265 0.96983 0.25564 0.0
C1339 C 0.20477 0.98994 0.2492 0.0
C1340 C 0.1709 0.9714 0.26748 0.0
C1341 C 0.12562 0.01302 0.29195 0.0
H1342 H 0.13084 0.97262 0.34611 0.0
C1343 C 0.08353 0.03234 0.3832 0.0
C1344 C 0.07456 0.01346 0.39593 0.0
C1345 C 0.09496 0.02884 0.36161 0.0
C1346 C 0.12878 0.9838 0.33095 0.0
H1347 H 0.20322 0.02726 0.2482 0.0
H1348 H 0.16556 0.03018 0.26926 0.0
H1349 H 0.15718 0.96678 0.31304 0.0
H1350 H 0.06965 0.97625 0.39533 0.0
H1351 H 0.08915 0.9703 0.35782 0.0
H1352 H 0.0978 0.03067 0.31078 0.0
C1353 C 0.17229 0.01315 0.26483 0.0
C1354 C 0.14384 0.98036 0.31182 0.0
C1355 C 0.19386 0.01154 0.25268 0.0
C1356 C 0.07644 0.9912 0.38615 0.0
C1357 C 0.08774 0.98774 0.36465 0.0
C1358 C 0.11057 0.01655 0.31126 0.0
C1359 C 0.16129 0.99314 0.2736 0.0
C1360 C 0.14271 0.99507 0.29217 0.0
C1361 C 0.0976 0.00641 0.35237 0.0
C1362 C 0.11221 0.00211 0.33107 0.0
H1363 H 0.20098 0.95303 0.25334 0.0
H1364 H 0.16257 0.95561 0.27344 0.0
H1365 H 0.12416 0.02459 0.27705 0.0
H1366 H 0.08225 0.04973 0.39015 0.0
H1367 H 0.10253 0.04356 0.35261 0.0
C1368 C 0.01476 0.81784 0.73642 0.0
C1369 C -0.00797 0.80979 0.74234 0.0
C1370 C 0.01726 0.83829 0.72359 0.0
C1371 C 0.98173 0.87446 0.68213 0.0
H1372 H 0.03983 0.91044 0.68074 0.0
C1373 C -0.00112 0.95319 0.62015 0.0
C1374 C 0.01985 0.95105 0.60679 0.0
C1375 C -0.00592 0.93756 0.6383 0.0
C1376 C 0.02349 0.90053 0.681 0.0
H1377 H 0.95421 0.81726 0.74107 0.0
H1378 H 0.9585 0.85384 0.7201 0.0
H1379 H 0.03387 0.88236 0.71212 0.0
H1380 H 0.05218 0.9308 0.60193 0.0
H1381 H 0.04405 0.90391 0.63399 0.0
H1382 H 0.97135 0.89316 0.65112 0.0
C1383 C 0.97445 0.84408 0.7245 0.0
C1384 C 0.02009 0.88434 0.69891 0.0
C1385 C 0.97195 0.82338 0.73693 0.0
C1386 C 0.0358 0.93285 0.6118 0.0
C1387 C 0.03128 0.91757 0.63025 0.0
C1388 C 0.98496 0.89102 0.66452 0.0
C1389 C -0.00295 0.85127 0.71666 0.0
C1390 C -0.00061 0.87065 0.69945 0.0
C1391 C 0.01047 0.91987 0.64375 0.0
C1392 C 0.00609 0.90382 0.66352 0.0
H1393 H 0.03043 0.80731 0.73991 0.0
H1394 H 0.03496 0.84292 0.71773 0.0
H1395 H 0.96577 0.86405 0.68151 0.0
H1396 H 0.9863 0.96703 0.61664 0.0
H1397 H 0.97789 0.93964 0.64847 0.0
C1398 C 0.22165 0.02711 0.74441 0.0
C1399 C 0.2263 0.00505 0.75361 0.0
C1400 C 0.206 0.02986 0.72546 0.0
C1401 C 0.16318 -0.0012 0.68639 0.0
H1402 H 0.19095 0.03782 0.63831 0.0
C1403 C 0.13228 0.99233 0.59108 0.0
C1404 C 0.12462 0.01337 0.58113 0.0
C1405 C 0.14615 0.99216 0.61147 0.0
C1406 C 0.18294 0.02697 0.6516 0.0
H1407 H 0.21736 0.96883 0.75156 0.0
H1408 H 0.19014 0.97342 0.71837 0.0
H1409 H 0.20839 0.03704 0.67759 0.0
H1410 H 0.12807 0.05069 0.58313 0.0
H1411 H 0.15264 0.0503 0.61855 0.0
H1412 H 0.1381 0.98833 0.66011 0.0
C1413 C 0.19811 0.98874 0.72588 0.0
C1414 C 0.19274 0.02666 0.67421 0.0
C1415 C 0.2136 0.98606 0.74499 0.0
C1416 C 0.13352 0.03416 0.5904 0.0
C1417 C 0.14752 0.03397 0.61078 0.0
C1418 C 0.15352 -0.00103 0.66375 0.0
C1419 C 0.19508 0.0105 0.71515 0.0
C1420 C 0.1831 0.01244 0.69186 0.0
C1421 C 0.15288 0.01301 0.62216 0.0
C1422 C 0.16345 0.01288 0.64606 0.0
H1423 H 0.23155 0.04192 0.75067 0.0
H1424 H 0.20359 0.04694 0.71801 0.0
H1425 H 0.15509 0.9879 0.69959 0.0
H1426 H 0.12607 0.97597 0.58419 0.0
H1427 H 0.15062 0.97573 0.61954 0.0
C1428 C 0.0186 0.21072 0.73256 0.0
C1429 C -0.00031 0.22639 0.7292 0.0
C1430 C 0.02004 0.19053 0.71895 0.0
C1431 C 0.98673 0.155 0.67426 0.0
H1432 H 0.05017 0.14433 0.64948 0.0
C1433 C 0.00691 0.08611 0.60214 0.0
C1434 C 0.0247 0.09141 0.58572 0.0
C1435 C 0.00257 0.10076 0.62132 0.0
C1436 C 0.03226 0.1472 0.65601 0.0
H1437 H 0.96652 0.23245 0.71054 0.0
H1438 H 0.96906 0.19774 0.68675 0.0
H1439 H 0.0446 0.17149 0.68147 0.0
H1440 H 0.05149 0.11645 0.57606 0.0
H1441 H 0.04338 0.14245 0.60876 0.0
H1442 H 0.97427 0.13163 0.64781 0.0
C1443 C 0.98275 0.20059 0.69987 0.0
C1444 C 0.02912 0.1625 0.67478 0.0
C1445 C 0.98129 0.2206 0.71348 0.0
C1446 C 0.03757 0.11197 0.58842 0.0
C1447 C 0.03311 0.12672 0.60738 0.0
C1448 C 0.98985 0.13983 0.6553 0.0
C1449 C 0.00263 0.18571 0.70169 0.0
C1450 C 0.00625 0.16697 0.68393 0.0
C1451 C 0.01596 0.12107 0.62445 0.0
C1452 C 0.01262 0.13608 0.64559 0.0
H1453 H 0.03309 0.21485 0.74445 0.0
H1454 H 0.03536 0.17924 0.72123 0.0
H1455 H 0.96889 0.15767 0.68102 0.0
H1456 H -0.00259 0.07 0.60101 0.0
H1457 H 0.98943 0.09562 0.63419 0.0
C1458 C 0.83453 0.06407 0.75606 0.0
C1459 C 0.82254 0.04512 0.76571 0.0
C1460 C 0.85612 0.06085 0.74426 0.0
C1461 C 0.88158 0.01595 0.7076 0.0
H1462 H 0.93247 0.06008 0.69832 0.0
C1463 C 0.94625 0.00656 0.63002 0.0
C1464 C 0.95152 0.02689 0.61757 0.0
C1465 C 0.93512 0.0076 0.65192 0.0
C1466 C 0.91832 0.04763 0.70064 0.0
H1467 H 0.8243 0.00837 0.77243 0.0
H1468 H 0.86239 0.00268 0.75218 0.0
H1469 H 0.90613 0.06394 0.73231 0.0
H1470 H 0.94966 0.06435 0.61876 0.0
H1471 H 0.92952 0.06615 0.65661 0.0
H1472 H 0.89277 0.0003 0.6755 0.0
C1473 C 0.85509 0.02001 0.75357 0.0
C1474 C 0.90335 0.04977 0.72019 0.0
C1475 C 0.83351 0.02328 0.76544 0.0
C1476 C 0.94579 0.04834 0.6278 0.0
C1477 C 0.93445 0.04937 0.64966 0.0
C1478 C 0.89642 0.01389 0.68806 0.0
C1479 C 0.86591 0.03855 0.74173 0.0
C1480 C 0.88449 0.03422 0.72362 0.0
C1481 C 0.92871 0.029 0.66186 0.0
C1482 C 0.91467 0.02997 0.68404 0.0
H1483 H 0.82608 0.08096 0.75571 0.0
H1484 H 0.86385 0.07547 0.73523 0.0
H1485 H 0.86694 0.00396 0.70937 0.0
H1486 H 0.95042 0.98973 0.62276 0.0
H1487 H 0.93134 0.99157 0.66096 0.0
C1488 C 0.29098 0.0187 0.19697 0.0
C1489 C 0.27886 0.99782 0.20021 0.0
C1490 C 0.30857 0.02046 0.17985 0.0
C1491 C 0.33563 0.99534 0.12742 0.0
H1492 H 0.3945 0.01688 0.15582 0.0
C1493 C 0.42268 0.00054 0.07413 0.0
C1494 C 0.43548 0.02115 0.07683 0.0
C1495 C 0.40453 0.99484 0.08983 0.0
C1496 C 0.3782 0.01101 0.14753 0.0
H1497 H 0.27413 0.96297 0.18733 0.0
H1498 H 0.30491 0.96617 0.1568 0.0
H1499 H 0.35858 0.01411 0.17954 0.0
H1500 H 0.44031 0.05132 0.09896 0.0
H1501 H 0.40851 0.04172 0.12599 0.0
H1502 H 0.35505 0.99297 0.09517 0.0
C1503 C 0.30074 0.98111 0.16753 0.0
C1504 C 0.35764 0.00943 0.16112 0.0
C1505 C 0.2831 0.97932 0.18482 0.0
C1506 C 0.43078 0.03528 0.09636 0.0
C1507 C 0.41255 0.0297 0.11195 0.0
C1508 C 0.3562 0.99719 0.11368 0.0
C1509 C 0.31434 0.00136 0.16571 0.0
C1510 C 0.33609 0.00197 0.15111 0.0
C1511 C 0.39878 0.00972 0.10852 0.0
C1512 C 0.37763 0.00541 0.12352 0.0
H1513 H 0.28803 0.03309 0.20882 0.0
H1514 H 0.31857 0.03638 0.1785 0.0
H1515 H 0.31921 0.98947 0.11936 0.0
H1516 H 0.42612 0.98919 0.05945 0.0
H1517 H 0.39464 0.97905 0.08699 0.0
C1518 C 0.00703 0.29499 0.21011 0.0
C1519 C 0.02934 0.28695 0.21795 0.0
C1520 C 0.00522 0.30866 0.18986 0.0
C1521 C 0.00959 0.35218 0.1605 0.0
H1522 H 0.05164 0.34743 0.10674 0.0
C1523 C 0.02932 0.42995 0.0999 0.0
C1524 C 0.03279 0.42598 0.07577 0.0
C1525 C 0.0263 0.41145 0.11546 0.0
C1526 C 0.03952 0.34892 0.12146 0.0
H1527 H 0.06716 0.28629 0.21063 0.0
H1528 H 0.06419 0.31006 0.17524 0.0
H1529 H 0.05084 0.3163 0.13562 0.0
H1530 H 0.03495 0.39933 0.04901 0.0
H1531 H 0.02944 0.36713 0.0761 0.0
H1532 H -0.00175 0.38476 0.14637 0.0
C1533 C 0.04792 0.3055 0.18431 0.0
C1534 C 0.03926 0.33113 0.13819 0.0
C1535 C 0.04968 0.29175 0.20453 0.0
C1536 C 0.03244 0.40306 0.0675 0.0
C1537 C 0.02945 0.38455 0.08307 0.0
C1538 C 0.00985 0.36994 0.14379 0.0
C1539 C 0.02578 0.31485 0.17718 0.0
C1540 C 0.02451 0.33264 0.15812 0.0
C1541 C 0.02666 0.38846 0.10732 0.0
C1542 C 0.02507 0.36873 0.12421 0.0
H1543 H 0.99118 0.29192 0.22049 0.0
H1544 H 0.98783 0.31519 0.18472 0.0
H1545 H -0.00178 0.35419 0.17573 0.0
H1546 H 0.02949 0.44736 0.1069 0.0
H1547 H 0.02447 0.41517 0.13402 0.0
C1548 C 0.73592 0.07922 0.18025 0.0
C1549 C 0.75116 0.06083 0.18644 0.0
C1550 C 0.72347 0.07872 0.15899 0.0
C1551 C 0.69511 0.03334 0.12825 0.0
H1552 H 0.67224 0.08011 0.08467 0.0
C1553 C 0.60582 0.02407 0.08091 0.0
C1554 C 0.60765 0.02434 0.05629 0.0
C1555 C 0.62458 0.0321 0.09479 0.0
C1556 C 0.67856 0.06696 0.09678 0.0
H1557 H 0.76781 0.02917 0.17444 0.0
H1558 H 0.74613 0.02831 0.13711 0.0
H1559 H 0.70717 0.08809 0.10968 0.0
H1560 H 0.62999 0.03436 0.02693 0.0
H1561 H 0.66262 0.04862 0.05133 0.0
H1562 H 0.66618 0.01253 0.11618 0.0
C1563 C 0.74373 0.04303 0.14866 0.0
C1564 C 0.6985 0.07146 0.11091 0.0
C1565 C 0.75631 0.04363 0.16985 0.0
C1566 C 0.62799 0.034 0.04585 0.0
C1567 C 0.64666 0.04221 0.05976 0.0
C1568 C 0.67504 0.02904 0.11453 0.0
C1569 C 0.72603 0.05971 0.14386 0.0
C1570 C 0.70693 0.05462 0.12673 0.0
C1571 C 0.64536 0.04071 0.08429 0.0
C1572 C 0.6665 0.04584 0.09881 0.0
H1573 H 0.73156 0.0925 0.19299 0.0
H1574 H 0.70988 0.09175 0.15573 0.0
H1575 H 0.70089 0.02026 0.14069 0.0
H1576 H 0.5903 0.01688 0.08947 0.0
H1577 H 0.62317 0.03094 0.11374 0.0
C1578 C -0.00231 0.73873 0.20098 0.0
C1579 C 0.01725 0.73425 0.21592 0.0
C1580 C -0.00699 0.72411 0.1818 0.0
C1581 C -0.00072 0.66429 0.16529 0.0
H1582 H 0.00268 0.68166 0.09961 0.0
C1583 C -0.0033 0.59586 0.09131 0.0
C1584 C 0.01736 0.59707 0.07744 0.0
C1585 C 0.99027 0.61444 0.10591 0.0
C1586 C 0.00126 0.67664 0.11789 0.0
H1587 H 0.04828 0.7122 0.22126 0.0
H1588 H 0.03975 0.68663 0.18839 0.0
H1589 H 0.00431 0.71168 0.13011 0.0
H1590 H 0.04663 0.61915 0.06698 0.0
H1591 H 0.03513 0.65146 0.09171 0.0
H1592 H -0.00273 0.62927 0.15334 0.0
C1593 C 0.0279 0.70115 0.19165 0.0
C1594 C 0.00212 0.69379 0.13526 0.0
C1595 C 0.03275 0.71581 0.21044 0.0
C1596 C 0.03061 0.61763 0.07743 0.0
C1597 C 0.02393 0.63626 0.09152 0.0
C1598 C -0.00195 0.64722 0.14798 0.0
C1599 C 0.0077 0.70478 0.17754 0.0
C1600 C 0.00201 0.68763 0.15909 0.0
C1601 C 0.00408 0.6347 0.10638 0.0
C1602 C -9e-05 0.65312 0.12412 0.0
H1603 H 0.98542 0.75276 0.20478 0.0
H1604 H 0.97741 0.72729 0.17096 0.0
H1605 H -0.00085 0.65917 0.18361 0.0
H1606 H 0.98617 0.58024 0.09169 0.0
H1607 H 0.97488 0.61278 0.11725 0.0
C1608 C 0.28363 0.96408 0.83381 0.0
C1609 C 0.27411 0.98542 0.82653 0.0
C1610 C 0.29782 0.96275 0.85398 0.0
C1611 C 0.32336 0.99625 0.90391 0.0
H1612 H 0.38324 0.97068 0.88126 0.0
C1613 C 0.41145 0.00516 0.9559 0.0
C1614 C 0.43076 0.01322 0.94268 0.0
C1615 C 0.3908 0.99733 0.94477 0.0
C1616 C 0.36664 0.97777 0.88789 0.0
H1617 H 0.26921 0.02132 0.83593 0.0
H1618 H 0.2937 0.01906 0.87133 0.0
H1619 H 0.3467 0.96427 0.85904 0.0
H1620 H 0.44379 0.02005 0.90765 0.0
H1621 H 0.4076 0.00624 0.88791 0.0
H1622 H 0.34368 0.01067 0.93221 0.0
C1623 C 0.29031 0.00331 0.86162 0.0
C1624 C 0.34561 0.97385 0.87536 0.0
C1625 C 0.27608 0.00461 0.84143 0.0
C1626 C 0.42924 0.01338 0.91811 0.0
C1627 C 0.4086 0.00543 0.90691 0.0
C1628 C 0.34442 3e-05 0.91657 0.0
C1629 C 0.30271 0.98276 0.86708 0.0
C1630 C 0.32381 0.98349 0.88291 0.0
C1631 C 0.38903 0.99764 0.92016 0.0
C1632 C 0.36636 0.99132 0.90834 0.0
H1633 H 0.28253 0.94912 0.8224 0.0
H1634 H 0.30676 0.94657 0.85804 0.0
H1635 H 0.30686 0.00391 0.91013 0.0
H1636 H 0.41194 0.00587 0.97492 0.0
H1637 H 0.37604 0.99143 0.95543 0.0
C1638 C 0.03079 0.29582 0.80085 0.0
C1639 C 0.00885 0.28685 0.79335 0.0
C1640 C 0.03213 0.30938 0.82116 0.0
C1641 C 0.02526 0.35277 0.85012 0.0
H1642 H 0.98607 0.34568 0.90564 0.0
C1643 C 0.00222 0.42924 0.91137 0.0
C1644 C 0.00089 0.42521 0.93569 0.0
C1645 C 0.00567 0.41089 0.89569 0.0
C1646 C -0.00264 0.34782 0.89039 0.0
H1647 H 0.9713 0.28424 0.8014 0.0
H1648 H 0.9735 0.30787 0.83698 0.0
H1649 H 0.98792 0.31457 0.87666 0.0
H1650 H 0.00286 0.39869 0.96262 0.0
H1651 H 0.00908 0.36674 0.93525 0.0
H1652 H 0.03462 0.38601 0.86371 0.0
C1653 C 0.98981 0.30414 0.82753 0.0
C1654 C -0.00177 0.33006 0.87365 0.0
C1655 C 0.98852 0.29049 0.80722 0.0
C1656 C 0.00373 0.40244 0.94399 0.0
C1657 C 0.00713 0.38407 0.92829 0.0
C1658 C 0.02433 0.37051 0.86679 0.0
C1659 C 0.01147 0.31452 0.83423 0.0
C1660 C 0.01201 0.33239 0.85317 0.0
C1661 C 0.00787 0.38803 0.90391 0.0
C1662 C 0.01014 0.36842 0.887 0.0
H1663 H 0.0466 0.29358 0.79015 0.0
H1664 H 0.04918 0.31673 0.82601 0.0
H1665 H 0.03579 0.3554 0.83443 0.0
H1666 H 7e-05 0.44653 0.90435 0.0
H1667 H 0.00588 0.41459 0.87703 0.0
C1668 C 0.74618 0.03235 0.83047 0.0
C1669 C 0.7483 0.05148 0.81552 0.0
C1670 C 0.72931 0.03257 0.84859 0.0
C1671 C 0.67112 0.05935 0.86053 0.0
H1672 H 0.67633 0.02709 0.92003 0.0
C1673 C 0.58957 0.02488 0.9108 0.0
C1674 C 0.58977 0.02635 0.93536 0.0
C1675 C 0.60958 0.03159 0.8979 0.0
C1676 C 0.67465 0.03644 0.90361 0.0
H1677 H 0.73598 0.08629 0.80845 0.0
H1678 H 0.70708 0.08706 0.84051 0.0
H1679 H 0.71193 0.03265 0.89604 0.0
H1680 H 0.61112 0.03463 0.96588 0.0
H1681 H 0.64584 0.04721 0.94343 0.0
H1682 H 0.63384 0.06291 0.8679 0.0
C1683 C 0.71796 0.07171 0.83807 0.0
C1684 C 0.69501 0.03942 0.88978 0.0
C1685 C 0.73465 0.0714 0.81992 0.0
C1686 C 0.6102 0.03453 0.94687 0.0
C1687 C 0.63022 0.0412 0.93404 0.0
C1688 C 0.65079 0.0563 0.87429 0.0
C1689 C 0.71435 0.05195 0.85196 0.0
C1690 C 0.69342 0.05065 0.86793 0.0
C1691 C 0.63027 0.03948 0.90941 0.0
C1692 C 0.65223 0.04451 0.89581 0.0
H1693 H 0.7563 0.01669 0.82709 0.0
H1694 H 0.72689 0.017 0.85886 0.0
H1695 H 0.66914 0.06779 0.84364 0.0
H1696 H 0.57418 0.01801 0.90166 0.0
H1697 H 0.60919 0.02967 0.87897 0.0
C1698 C 0.02114 0.72258 0.79507 0.0
C1699 C 0.00403 0.74046 0.79508 0.0
C1700 C 0.02418 0.70847 0.8148 0.0
C1701 C 0.98733 0.68527 0.86096 0.0
H1702 H 0.04593 0.65878 0.88583 0.0
C1703 C 0.98259 0.61675 0.93253 0.0
C1704 C -0.00158 0.59787 0.93166 0.0
C1705 C 0.98632 0.6363 0.91881 0.0
C1706 C 0.02941 0.66583 0.87892 0.0
H1707 H 0.97785 0.75865 0.81608 0.0
H1708 H 0.98304 0.73387 0.85069 0.0
H1709 H 0.04772 0.69029 0.8571 0.0
H1710 H 0.03112 0.58495 0.91615 0.0
H1711 H 0.03708 0.61882 0.89091 0.0
H1712 H 0.96886 0.66034 0.88137 0.0
C1713 C -0.00592 0.73077 0.83539 0.0
C1714 C 0.03046 0.684 0.86261 0.0
C1715 C 0.99123 0.74506 0.81572 0.0
C1716 C 0.01862 0.59927 0.91718 0.0
C1717 C 0.02207 0.61875 0.90283 0.0
C1718 C 0.98628 0.667 0.87688 0.0
C1719 C 0.00996 0.71182 0.83481 0.0
C1720 C 0.00939 0.69391 0.85351 0.0
C1721 C 0.00558 0.63731 0.90309 0.0
C1722 C 0.00726 0.65703 0.88621 0.0
H1723 H 0.03121 0.71873 0.7793 0.0
H1724 H 0.03645 0.69397 0.81376 0.0
H1725 H 0.97079 0.69208 0.85378 0.0
H1726 H 0.96694 0.61634 0.9436 0.0
H1727 H 0.97367 0.65045 0.92024 0.0
C1728 C 0.18085 0.28946 0.99025 0.0
C1729 C 0.1888 0.28007 0.01161 0.0
C1730 C 0.16081 0.30394 0.9896 0.0
C1731 C 0.13093 0.34517 0.02891 0.0
H1732 H 0.09261 0.35681 0.97332 0.0
C1733 C 0.09644 0.43582 0.0051 0.0
C1734 C 0.07535 0.43842 0.99194 0.0
C1735 C 0.10522 0.41383 0.01068 0.0
C1736 C 0.10276 0.35367 0.98923 0.0
H1737 H 0.18147 0.27712 0.04875 0.0
H1738 H 0.14582 0.3018 0.04762 0.0
H1739 H 0.1151 0.32087 0.97662 0.0
H1740 H 0.0461 0.41996 0.97561 0.0
H1741 H 0.06114 0.38156 0.9858 0.0
H1742 H 0.11865 0.37797 0.04151 0.0
C1743 C 0.15519 0.29828 0.03138 0.0
C1744 C 0.11592 0.33312 0.99099 0.0
C1745 C 0.17532 0.28381 0.032 0.0
C1746 C 0.06258 0.41854 0.9855 0.0
C1747 C 0.07127 0.39651 0.99127 0.0
C1748 C 0.11762 0.36563 0.02724 0.0
C1749 C 0.14838 0.30942 0.01036 0.0
C1750 C 0.13083 0.32894 0.01048 0.0
C1751 C 0.09302 0.39385 0.00345 0.0
C1752 C 0.10401 0.37054 0.00701 0.0
H1753 H 0.19137 0.28725 0.97445 0.0
H1754 H 0.15639 0.31234 0.97314 0.0
H1755 H 0.14232 0.34274 0.04412 0.0
H1756 H 0.10669 0.45075 0.01041 0.0
H1757 H 0.12216 0.41257 0.0198 0.0
C1758 C 0.17088 0.75703 0.01069 0.0
C1759 C 0.18695 0.7559 0.0296 0.0
C1760 C 0.15136 0.74205 0.00978 0.0
C1761 C 0.11965 0.69473 0.04243 0.0
H1762 H 0.12081 0.66537 0.98123 0.0
C1763 C 0.06579 0.61169 0.01772 0.0
C1764 C 0.0776 0.59594 0.00297 0.0
C1765 C 0.07635 0.63291 0.02333 0.0
C1766 C 0.12034 0.67328 -0.00152 0.0
H1767 H 0.19375 0.74048 0.06363 0.0
H1768 H 0.16001 0.71435 0.06209 0.0
H1769 H 0.14124 0.7017 0.98689 0.0
H1770 H 0.10966 0.58944 0.98294 0.0
H1771 H 0.12852 0.62596 0.99327 0.0
H1772 H 0.0996 0.66541 0.05413 0.0
C1773 C 0.16216 0.72666 0.04793 0.0
C1774 C 0.13169 0.69444 0.00164 0.0
C1775 C 0.18154 0.74168 0.04886 0.0
C1776 C 0.10041 0.60123 0.99464 0.0
C1777 C 0.11101 0.62227 0.00029 0.0
C1778 C 0.10825 0.67344 0.03925 0.0
C1779 C 0.1477 0.72563 0.02771 0.0
C1780 C 0.13199 0.70525 0.02377 0.0
C1781 C 0.0988 0.63871 0.01405 0.0
C1782 C 0.10905 0.66218 0.01737 0.0
H1783 H 0.17472 0.76775 0.99557 0.0
H1784 H 0.14019 0.74216 0.99422 0.0
H1785 H 0.11932 0.70266 0.05967 0.0
H1786 H 0.04778 0.60826 0.02358 0.0
H1787 H 0.0664 0.64525 0.0338 0.0
C1788 C 0.2663 0.21189 0.03647 0.0
C1789 C 0.25596 0.22092 0.01592 0.0
C1790 C 0.28473 0.19557 0.03507 0.0
C1791 C 0.3202 0.15771 0.99535 0.0
H1792 H 0.37322 0.18018 0.03271 0.0
C1793 C 0.41636 0.12278 0.98246 0.0
C1794 C 0.42926 0.11788 0.00315 0.0
C1795 C 0.39496 0.13541 0.9834 0.0
C1796 C 0.35859 0.17344 0.02235 0.0
H1797 H 0.25517 0.21872 0.97801 0.0
H1798 H 0.28712 0.18985 0.97548 0.0
H1799 H 0.33414 0.19812 0.03669 0.0
H1800 H 0.43039 0.12368 0.04083 0.0
H1801 H 0.39332 0.14538 0.04246 0.0
H1802 H 0.34478 0.13295 0.98105 0.0
C1803 C 0.28099 0.19522 0.99268 0.0
C1804 C 0.3361 0.18368 0.02472 0.0
C1805 C 0.26251 0.21157 0.9941 0.0
C1806 C 0.42099 0.12709 0.02452 0.0
C1807 C 0.39965 0.13963 0.02546 0.0
C1808 C 0.34274 0.14731 0.9931 0.0
C1809 C 0.29322 0.18812 0.01308 0.0
C1810 C 0.31661 0.17593 0.01131 0.0
C1811 C 0.38602 0.14347 0.00502 0.0
C1812 C 0.36223 0.15505 0.0066 0.0
H1813 H 0.26183 0.21918 0.05344 0.0
H1814 H 0.29351 0.19008 0.05113 0.0
H1815 H 0.30554 0.15138 0.98477 0.0
H1816 H 0.42218 0.11598 0.96568 0.0
H1817 H 0.38518 0.13847 0.96725 0.0
C1818 C 0.85524 0.28602 0.02305 0.0
C1819 C 0.84736 0.27564 0.00218 0.0
C1820 C 0.87541 0.30005 0.02309 0.0
C1821 C 0.90609 0.3385 0.98202 0.0
H1822 H 0.9431 0.35256 0.03778 0.0
C1823 C 0.93799 0.43018 0.00293 0.0
C1824 C 0.95843 0.43355 0.01683 0.0
C1825 C 0.93012 0.40789 -0.00226 0.0
C1826 C 0.93336 0.34873 0.02181 0.0
H1827 H 0.85517 0.27026 0.96539 0.0
H1828 H 0.89101 0.29432 0.96548 0.0
H1829 H 0.92104 0.3166 0.03573 0.0
H1830 H 0.98763 0.41612 0.03477 0.0
H1831 H 0.97418 0.37719 0.0253 0.0
H1832 H 0.91836 0.37066 0.96812 0.0
C1833 C 0.88142 0.29192 0.98178 0.0
C1834 C 0.92043 0.32816 0.02076 0.0
C1835 C 0.86116 0.27783 0.98178 0.0
C1836 C 0.9716 0.41412 0.02431 0.0
C1837 C 0.96382 0.39178 0.01895 0.0
C1838 C 0.91921 0.35897 0.98298 0.0
C1839 C 0.88813 0.30408 0.0022 0.0
C1840 C 0.90587 0.32319 0.00125 0.0
C1841 C 0.94261 0.38835 0.00612 0.0
C1842 C 0.93227 0.3648 0.00326 0.0
H1843 H 0.84462 0.28485 0.03889 0.0
H1844 H 0.87974 0.30923 0.0391 0.0
H1845 H 0.89502 0.33543 0.96673 0.0
H1846 H 0.9275 0.44476 -0.00325 0.0
H1847 H 0.91357 0.40607 0.98808 0.0
C1848 C 0.75967 0.82587 0.97301 0.0
C1849 C 0.76468 0.81369 0.99377 0.0
C1850 C 0.74282 0.84382 0.97302 0.0
C1851 C 0.70314 0.88003 0.01079 0.0
H1852 H 0.65615 0.86695 0.96247 0.0
C1853 C 0.60706 0.91492 0.01761 0.0
C1854 C 0.59654 0.92395 -0.00293 0.0
C1855 C 0.62833 0.90222 0.01652 0.0
C1856 C 0.66916 0.8711 0.97589 0.0
H1857 H 0.758 0.812 0.03113 0.0
H1858 H 0.72907 0.84363 0.03138 0.0
H1859 H 0.69466 0.84733 0.96168 0.0
H1860 H 0.59956 0.92552 0.95909 0.0
H1861 H 0.63668 0.9035 0.95721 0.0
H1862 H 0.67749 0.90362 0.02517 0.0
C1863 C 0.73801 0.83949 0.01505 0.0
C1864 C 0.69135 0.85993 0.97538 0.0
C1865 C 0.75478 0.82149 0.015 0.0
C1866 C 0.60706 0.91875 0.97527 0.0
C1867 C 0.62844 0.90614 0.97419 0.0
C1868 C 0.68096 0.8913 0.01125 0.0
C1869 C 0.73077 0.84986 0.99382 0.0
C1870 C 0.70852 0.86405 0.99296 0.0
C1871 C 0.63971 0.89829 0.99487 0.0
C1872 C 0.66355 0.88673 0.99399 0.0
H1873 H 0.76675 0.81986 0.95638 0.0
H1874 H 0.73794 0.8518 0.95645 0.0
H1875 H 0.716 0.88369 0.02451 0.0
H1876 H 0.59938 0.91843 0.0347 0.0
H1877 H 0.63613 0.89589 0.03274 0.0
C1878 C 0.82964 0.73347 0.96322 0.0
C1879 C 0.82474 0.74861 0.98191 0.0
C1880 C 0.84925 0.71849 0.96421 0.0
C1881 C 0.88247 0.688 0.01006 0.0
H1882 H 0.91468 0.65946 0.95713 0.0
C1883 C 0.91864 0.59585 0.01692 0.0
C1884 C 0.94143 0.59127 0.00791 0.0
C1885 C 0.90689 0.61654 0.01158 0.0
C1886 C 0.90601 0.66736 0.97213 0.0
H1887 H 0.83769 0.76169 0.01515 0.0
H1888 H 0.87246 0.73587 0.01671 0.0
H1889 H 0.89295 0.69589 0.95163 0.0
H1890 H 0.97006 0.60461 0.98658 0.0
H1891 H 0.94942 0.64097 0.97693 0.0
H1892 H 0.89532 0.65956 0.03054 0.0
C1893 C 0.86086 0.73522 0.00148 0.0
C1894 C 0.89346 0.68818 0.96897 0.0
C1895 C 0.84117 0.75025 0.00047 0.0
C1896 C 0.95206 0.60742 0.9929 0.0
C1897 C 0.94035 0.62829 0.98763 0.0
C1898 C 0.89496 0.66727 0.01319 0.0
C1899 C 0.86438 0.71831 0.98396 0.0
C1900 C 0.88108 0.69849 0.9878 0.0
C1901 C 0.91789 0.63333 -0.00254 0.0
C1902 C 0.90633 0.65636 0.99416 0.0
H1903 H 0.81716 0.73189 0.94874 0.0
H1904 H 0.85125 0.70572 0.95043 0.0
H1905 H 0.87296 0.69518 0.02493 0.0
H1906 H 0.91029 0.58377 0.02886 0.0
H1907 H 0.88941 0.61966 0.01907 0.0
C1908 C 0.24823 0.83275 0.02828 0.0
C1909 C 0.24958 0.816 0.0105 0.0
C1910 C 0.26113 0.85333 0.02635 0.0
C1911 C 0.29656 0.89003 0.98577 0.0
H1912 H 0.33708 0.89884 0.04028 0.0
C1913 C 0.38608 0.93944 0.98188 0.0
C1914 C 0.39453 0.95031 0.00233 0.0
C1915 C 0.3647 0.92702 0.98224 0.0
C1916 C 0.32562 0.89713 0.02504 0.0
H1917 H 0.26392 0.80815 0.97611 0.0
H1918 H 0.28609 0.84417 0.9725 0.0
H1919 H 0.30501 0.87096 0.04186 0.0
H1920 H 0.38612 0.95833 0.03863 0.0
H1921 H 0.34861 0.9375 0.03903 0.0
H1922 H 0.31743 0.91603 0.96881 0.0
C1923 C 0.27515 0.84154 0.98793 0.0
C1924 C 0.30717 0.88105 0.02598 0.0
C1925 C 0.26249 0.82092 0.98999 0.0
C1926 C 0.38036 0.94978 0.02267 0.0
C1927 C 0.35887 0.93767 0.02294 0.0
C1928 C 0.31491 0.90635 0.98488 0.0
C1929 C 0.2754 0.85757 0.00649 0.0
C1930 C 0.29269 0.87698 0.00624 0.0
C1931 C 0.3511 0.92545 0.00298 0.0
C1932 C 0.33001 0.90982 0.00438 0.0
H1933 H 0.2386 0.82922 0.04436 0.0
H1934 H 0.26081 0.86545 0.04085 0.0
H1935 H 0.28559 0.88738 0.97031 0.0
H1936 H 0.39653 0.9396 0.96589 0.0
H1937 H 0.35946 0.91776 0.96654 0.0
C1938 C 0.76808 0.21151 0.9694 0.0
C1939 C 0.78227 0.21655 0.9891 0.0
C1940 C 0.75439 0.19141 0.96875 0.0
C1941 C 0.72226 0.15526 0.00971 0.0
H1942 H 0.70802 0.11796 0.9549 0.0
C1943 C 0.64635 0.08921 0.01251 0.0
C1944 C 0.63153 0.08766 0.9926 0.0
C1945 C 0.66808 0.10083 0.0115 0.0
C1946 C 0.71163 0.12833 0.97033 0.0
H1947 H 0.79427 0.2042 0.02302 0.0
H1948 H 0.77024 0.16892 0.02198 0.0
H1949 H 0.74119 0.14517 0.95379 0.0
H1950 H 0.62847 0.09656 0.95569 0.0
H1951 H 0.66592 0.1177 0.95412 0.0
H1952 H 0.69214 0.13963 0.02593 0.0
C1953 C 0.76979 0.18046 0.007 0.0
C1954 C 0.73076 0.1438 0.96971 0.0
C1955 C 0.78374 0.20046 0.0075 0.0
C1956 C 0.63939 0.09745 0.97139 0.0
C1957 C 0.66103 0.10943 0.97046 0.0
C1958 C 0.70302 0.14004 0.01025 0.0
C1959 C 0.75434 0.17615 0.98797 0.0
C1960 C 0.7361 0.15764 0.98932 0.0
C1961 C 0.67546 0.11169 0.99065 0.0
C1962 C 0.6972 0.12654 0.99047 0.0
H1963 H 0.76644 0.22387 0.95517 0.0
H1964 H 0.74253 0.18872 0.95395 0.0
H1965 H 0.72559 0.16601 0.02495 0.0
H1966 H 0.64093 0.08192 0.02915 0.0
H1967 H 0.67889 0.10164 0.02729 0.0
C1968 C 0.51004 0.71498 0.76899 0.0
C1969 C 0.53114 0.72787 0.77007 0.0
C1970 C 0.50734 0.69527 0.78308 0.0
C1971 C 0.54035 0.65425 0.82252 0.0
H1972 H 0.48148 0.65451 0.85816 0.0
C1973 C 0.5325 0.61316 0.9145 0.0
C1974 C 0.51099 0.60258 0.92098 0.0
C1975 C 0.53457 0.6244 0.89283 0.0
C1976 C 0.49786 0.65385 0.84812 0.0
H1977 H 0.56642 0.72969 0.78546 0.0
H1978 H 0.56194 0.69538 0.80977 0.0
H1979 H 0.48585 0.68067 0.82494 0.0
H1980 H 0.47505 0.59474 0.90925 0.0
H1981 H 0.47869 0.6144 0.87147 0.0
H1982 H 0.55264 0.62798 0.84626 0.0
C1983 C 0.54745 0.70019 0.79809 0.0
C1984 C 0.50036 0.66885 0.82898 0.0
C1985 C 0.55005 0.71989 0.78418 0.0
C1986 C 0.49184 0.60284 0.90492 0.0
C1987 C 0.49388 0.61421 0.88328 0.0
C1988 C 0.53787 0.63929 0.84168 0.0
C1989 C 0.52577 0.68806 0.79837 0.0
C1990 C 0.52185 0.66964 0.81628 0.0
C1991 C 0.51517 0.62542 0.8771 0.0
C1992 C 0.51681 0.63928 0.85507 0.0
H1993 H 0.4951 0.72098 0.75846 0.0
H1994 H 0.4905 0.68618 0.78267 0.0
H1995 H 0.557 0.65412 0.8129 0.0
H1996 H 0.54764 0.61322 0.92638 0.0
H1997 H 0.55116 0.63304 0.88879 0.0
C1998 C 0.34962 0.52356 0.77069 0.0
C1999 C 0.33455 0.54301 0.77012 0.0
C2000 C 0.36926 0.52286 0.78607 0.0
C2001 C 0.38696 0.54844 0.84284 0.0
H2002 H 0.44632 0.51513 0.83298 0.0
C2003 C 0.45404 0.5385 0.91843 0.0
C2004 C 0.4629 0.516 0.92209 0.0
C2005 C 0.44272 0.54441 0.8973 0.0
C2006 C 0.4298 0.52445 0.83603 0.0
H2007 H 0.32882 0.57745 0.7838 0.0
H2008 H 0.36341 0.57668 0.80994 0.0
H2009 H 0.41861 0.52078 0.8001 0.0
H2010 H 0.46844 0.48257 0.90562 0.0
H2011 H 0.44832 0.49273 0.86899 0.0
H2012 H 0.39759 0.55161 0.87874 0.0
C2013 C 0.35993 0.5617 0.79907 0.0
C2014 C 0.41391 0.52768 0.81717 0.0
C2015 C 0.34028 0.5623 0.78391 0.0
C2016 C 0.46161 0.50001 0.9035 0.0
C2017 C 0.45019 0.5059 0.88238 0.0
C2018 C 0.40276 0.54524 0.86159 0.0
C2019 C 0.37412 0.54163 0.8011 0.0
C2020 C 0.39215 0.53954 0.8204 0.0
C2021 C 0.43987 0.52794 0.87931 0.0
C2022 C 0.42429 0.53299 0.85856 0.0
H2023 H 0.34532 0.50836 0.76044 0.0
H2024 H 0.37967 0.50707 0.78721 0.0
H2025 H 0.37017 0.55718 0.84624 0.0
H2026 H 0.45497 0.55135 0.93224 0.0
H2027 H 0.43553 0.56173 0.89535 0.0
C2028 C 0.50654 0.31775 0.7701 0.0
C2029 C 0.48475 0.30611 0.77239 0.0
C2030 C 0.51122 0.33751 0.78367 0.0
C2031 C 0.48236 0.38103 0.82365 0.0
H2032 H 0.54387 0.38068 0.85498 0.0
C2033 C 0.49831 0.42449 0.9135 0.0
C2034 C 0.52033 0.43516 0.91799 0.0
C2035 C 0.49435 0.41265 0.89242 0.0
C2036 C 0.52674 0.38132 0.84613 0.0
H2037 H 0.45027 0.30675 0.78945 0.0
H2038 H 0.45826 0.34089 0.81297 0.0
H2039 H 0.53628 0.35343 0.8232 0.0
H2040 H 0.55512 0.4426 0.90324 0.0
H2041 H 0.54823 0.42177 0.86647 0.0
H2042 H 0.47254 0.40832 0.84726 0.0
C2043 C 0.47181 0.33511 0.80073 0.0
C2044 C 0.52239 0.36569 0.82781 0.0
C2045 C 0.46721 0.31543 0.7873 0.0
C2046 C 0.53801 0.43441 0.90046 0.0
C2047 C 0.53411 0.42239 0.87941 0.0
C2048 C 0.48667 0.39654 0.84204 0.0
C2049 C 0.49412 0.34607 0.79967 0.0
C2050 C 0.49993 0.36494 0.81669 0.0
C2051 C 0.51234 0.41106 0.87527 0.0
C2052 C 0.50873 0.39653 0.85389 0.0
H2053 H 0.52045 0.3108 0.75891 0.0
H2054 H 0.52848 0.34566 0.78215 0.0
H2055 H 0.46501 0.38132 0.81522 0.0
H2056 H 0.48424 0.42481 0.92652 0.0
H2057 H 0.47746 0.40398 0.88994 0.0
C2058 C 0.66941 0.52104 0.78263 0.0
C2059 C 0.68106 0.50086 0.77505 0.0
C2060 C 0.64839 0.51969 0.79579 0.0
C2061 C 0.6213 0.47953 0.83795 0.0
H2062 H 0.57304 0.52759 0.8421 0.0
C2063 C 0.5726 0.50232 0.92419 0.0
C2064 C 0.54951 0.51194 0.92323 0.0
C2065 C 0.58473 0.49649 0.90352 0.0
C2066 C 0.58607 0.51373 0.84105 0.0
H2067 H 0.67924 0.46357 0.77392 0.0
H2068 H 0.64206 0.46112 0.7962 0.0
H2069 H 0.59965 0.52643 0.80837 0.0
H2070 H 0.52026 0.52098 0.89987 0.0
H2071 H 0.54123 0.51042 0.86389 0.0
H2072 H 0.6079 0.46698 0.87075 0.0
C2073 C 0.64924 0.47801 0.79228 0.0
C2074 C 0.60155 0.51324 0.82177 0.0
C2075 C 0.67027 0.4794 0.77911 0.0
C2076 C 0.53818 0.51393 0.90123 0.0
C2077 C 0.55027 0.50801 0.88056 0.0
C2078 C 0.6058 0.47999 0.85721 0.0
C2079 C 0.63868 0.49808 0.8018 0.0
C2080 C 0.61978 0.4965 0.82023 0.0
C2081 C 0.57404 0.50002 0.88136 0.0
C2082 C 0.58836 0.49745 0.85935 0.0
H2083 H 0.67777 0.53772 0.7803 0.0
H2084 H 0.64099 0.53552 0.80293 0.0
H2085 H 0.63525 0.46649 0.83759 0.0
H2086 H 0.58185 0.50046 0.94083 0.0
H2087 H 0.60302 0.4905 0.90492 0.0
C2088 C 0.51897 0.31578 0.23754 0.0
C2089 C 0.49828 0.30236 0.2395 0.0
C2090 C 0.51981 0.33434 0.22164 0.0
C2091 C 0.49013 0.35383 0.16627 0.0
H2092 H 0.52953 0.40804 0.17436 0.0
C2093 C 0.49676 0.4256 0.09471 0.0
C2094 C 0.51993 0.43341 0.08977 0.0
C2095 C 0.49251 0.41135 0.11427 0.0
C2096 C 0.51851 0.39294 0.17177 0.0
H2097 H 0.46192 0.29852 0.22739 0.0
H2098 H 0.46289 0.33137 0.20053 0.0
H2099 H 0.52477 0.381 0.20694 0.0
H2100 H 0.55665 0.4328 0.10203 0.0
H2101 H 0.54922 0.40832 0.13593 0.0
H2102 H 0.48399 0.36572 0.13107 0.0
C2103 C 0.47875 0.32736 0.21068 0.0
C2104 C 0.51581 0.37737 0.19048 0.0
C2105 C 0.47801 0.30875 0.22639 0.0
C2106 C 0.53858 0.42703 0.10515 0.0
C2107 C 0.53429 0.4131 0.12478 0.0
C2108 C 0.49271 0.36946 0.14764 0.0
C2109 C 0.49994 0.3399 0.20736 0.0
C2110 C 0.50175 0.35743 0.18797 0.0
C2111 C 0.51125 0.40489 0.12956 0.0
C2112 C 0.50715 0.38911 0.15001 0.0
H2113 H 0.535 0.3109 0.24706 0.0
H2114 H 0.53652 0.34339 0.21955 0.0
H2115 H 0.47956 0.33849 0.16333 0.0
H2116 H 0.48199 0.43018 0.08326 0.0
H2117 H 0.4745 0.40548 0.1175 0.0
C2118 C 0.68137 0.50834 0.24044 0.0
C2119 C 0.69944 0.49148 0.24171 0.0
C2120 C 0.66335 0.50665 0.22341 0.0
C2121 C 0.63647 0.46888 0.17732 0.0
H2122 H 0.63368 0.52595 0.14168 0.0
C2123 C 0.57544 0.48734 0.09533 0.0
C2124 C 0.58571 0.5009 0.07761 0.0
C2125 C 0.58835 0.48217 0.11585 0.0
C2126 C 0.63434 0.50983 0.15136 0.0
H2127 H 0.71176 0.45872 0.2278 0.0
H2128 H 0.68023 0.45558 0.19833 0.0
H2129 H 0.65495 0.52493 0.17892 0.0
H2130 H 0.61765 0.51859 0.06661 0.0
H2131 H 0.64042 0.50912 0.10199 0.0
H2132 H 0.61607 0.45379 0.14923 0.0
C2133 C 0.67985 0.47009 0.21034 0.0
C2134 C 0.64621 0.50934 0.17294 0.0
C2135 C 0.69793 0.47188 0.22721 0.0
C2136 C 0.60953 0.50778 0.0799 0.0
C2137 C 0.6224 0.50264 0.10029 0.0
C2138 C 0.62432 0.46943 0.15571 0.0
C2139 C 0.66305 0.48801 0.20748 0.0
C2140 C 0.64774 0.48881 0.18606 0.0
C2141 C 0.61158 0.49076 0.11896 0.0
C2142 C 0.62359 0.48982 0.14229 0.0
H2143 H 0.68227 0.52371 0.25127 0.0
H2144 H 0.65045 0.52059 0.22185 0.0
H2145 H 0.6373 0.45281 0.18705 0.0
H2146 H 0.5568 0.48261 0.09434 0.0
H2147 H 0.57951 0.47306 0.12996 0.0
C2148 C 0.55852 0.71555 0.24134 0.0
C2149 C 0.53891 0.72905 0.24831 0.0
C2150 C 0.55522 0.69607 0.22715 0.0
C2151 C 0.50952 0.65691 0.20068 0.0
H2152 H 0.55423 0.65545 0.14882 0.0
C2153 C 0.49241 0.60696 0.11334 0.0
C2154 C 0.51217 0.59646 0.10235 0.0
C2155 C 0.49547 0.62065 0.13347 0.0
C2156 C 0.54177 0.65529 0.16333 0.0
H2157 H 0.50052 0.73255 0.24673 0.0
H2158 H 0.49459 0.69848 0.22202 0.0
H2159 H 0.56017 0.68262 0.18074 0.0
H2160 H 0.55054 0.59138 0.10468 0.0
H2161 H 0.55575 0.61491 0.13964 0.0
H2162 H 0.49085 0.6298 0.18277 0.0
C2163 C 0.5125 0.70255 0.22779 0.0
C2164 C 0.54522 0.67089 0.18175 0.0
C2165 C 0.51584 0.722 0.24206 0.0
C2166 C 0.5349 0.59933 0.11247 0.0
C2167 C 0.53794 0.61299 0.1325 0.0
C2168 C 0.50605 0.64125 0.18217 0.0
C2169 C 0.53224 0.68988 0.21936 0.0
C2170 C 0.52914 0.672 0.20067 0.0
C2171 C 0.51836 0.62418 0.14305 0.0
C2172 C 0.52211 0.6403 0.16321 0.0
H2173 H 0.5765 0.72098 0.24554 0.0
H2174 H 0.5708 0.68651 0.22135 0.0
H2175 H 0.49685 0.65717 0.21501 0.0
H2176 H 0.47462 0.60499 0.10616 0.0
H2177 H 0.47999 0.62907 0.14105 0.0
C2178 C 0.35421 0.52915 0.2351 0.0
C2179 C 0.34133 0.5496 0.23936 0.0
C2180 C 0.37414 0.52936 0.22036 0.0
C2181 C 0.41773 0.56326 0.18709 0.0
H2182 H 0.39846 0.52476 0.13459 0.0
C2183 C 0.47371 0.5328 0.10542 0.0
C2184 C 0.46216 0.53528 0.08362 0.0
C2185 C 0.46223 0.53946 0.12616 0.0
C2186 C 0.40401 0.53564 0.14908 0.0
H2187 H 0.34033 0.58652 0.23353 0.0
H2188 H 0.37582 0.58706 0.20847 0.0
H2189 H 0.37488 0.52487 0.17057 0.0
H2190 H 0.43021 0.54745 0.06606 0.0
H2191 H 0.40981 0.55869 0.10246 0.0
H2192 H 0.4473 0.57356 0.16542 0.0
C2193 C 0.3705 0.5709 0.21646 0.0
C2194 C 0.39072 0.53549 0.16976 0.0
C2195 C 0.35034 0.57064 0.23096 0.0
C2196 C 0.43959 0.54582 0.08265 0.0
C2197 C 0.42791 0.55206 0.10344 0.0
C2198 C 0.43145 0.56298 0.16646 0.0
C2199 C 0.38163 0.55008 0.20987 0.0
C2200 C 0.39733 0.54934 0.18894 0.0
C2201 C 0.4388 0.54815 0.1254 0.0
C2202 C 0.42447 0.54936 0.1472 0.0
H2203 H 0.34728 0.51267 0.24091 0.0
H2204 H 0.38247 0.51308 0.21558 0.0
H2205 H 0.42306 0.5742 0.2016 0.0
H2206 H 0.49102 0.52441 0.1065 0.0
H2207 H 0.47089 0.5361 0.14287 0.0
C2208 C 0.76846 0.48499 0.71559 0.0
C2209 C 0.75538 0.50414 0.7237 0.0
C2210 C 0.78698 0.48784 0.69944 0.0
C2211 C 0.83055 0.53218 0.6822 0.0
H2212 H 0.84984 0.486 0.63663 0.0
C2213 C 0.91377 0.54036 0.62088 0.0
C2214 C 0.9263 0.51981 0.61584 0.0
C2215 C 0.89288 0.53983 0.63446 0.0
C2216 C 0.84485 0.49896 0.64947 0.0
H2217 H 0.75058 0.54111 0.72057 0.0
H2218 H 0.78256 0.54616 0.69174 0.0
H2219 H 0.81141 0.48255 0.65617 0.0
H2220 H 0.92795 0.48299 0.62298 0.0
H2221 H 0.89206 0.48221 0.6469 0.0
H2222 H 0.86415 0.5485 0.67551 0.0
C2223 C 0.77869 0.52892 0.69802 0.0
C2224 C 0.82272 0.49702 0.66062 0.0
C2225 C 0.76007 0.52601 0.71417 0.0
C2226 C 0.91862 0.49912 0.62631 0.0
C2227 C 0.89785 0.49861 0.63981 0.0
C2228 C 0.85269 0.53417 0.67097 0.0
C2229 C 0.793 0.50999 0.69117 0.0
C2230 C 0.81539 0.51341 0.6774 0.0
C2231 C 0.88416 0.51877 0.64326 0.0
C2232 C 0.8603 0.51736 0.65475 0.0
H2233 H 0.76557 0.46805 0.72317 0.0
H2234 H 0.79768 0.47287 0.69481 0.0
H2235 H 0.82572 0.54496 0.69528 0.0
H2236 H 0.91907 0.55656 0.61298 0.0
H2237 H 0.88283 0.5557 0.63685 0.0
C2238 C 0.50492 0.7953 0.69562 0.0
C2239 C 0.5268 0.78632 0.70367 0.0
C2240 C 0.50403 0.80945 0.67566 0.0
C2241 C 0.54278 0.8514 0.64746 0.0
H2242 H 0.49225 0.85707 0.60108 0.0
C2243 C 0.53024 0.93479 0.59438 0.0
C2244 C 0.52792 0.93233 0.5699 0.0
C2245 C 0.52813 0.91566 0.6092 0.0
C2246 C 0.50653 0.85563 0.61387 0.0
H2247 H 0.56462 0.78393 0.69669 0.0
H2248 H 0.56312 0.80823 0.66151 0.0
H2249 H 0.49317 0.82365 0.62765 0.0
H2250 H 0.52004 0.90799 0.54197 0.0
H2251 H 0.51623 0.87455 0.56797 0.0
H2252 H 0.55604 0.88334 0.63405 0.0
C2253 C 0.54664 0.80445 0.6706 0.0
C2254 C 0.50701 0.83655 0.62911 0.0
C2255 C 0.54748 0.79024 0.69048 0.0
C2256 C 0.52208 0.91048 0.56073 0.0
C2257 C 0.51982 0.89132 0.57562 0.0
C2258 C 0.54216 0.87048 0.63246 0.0
C2259 C 0.5251 0.8151 0.66362 0.0
C2260 C 0.52516 0.83425 0.64611 0.0
C2261 C 0.52349 0.89359 0.59996 0.0
C2262 C 0.52396 0.87295 0.6156 0.0
H2263 H 0.48886 0.79298 0.7059 0.0
H2264 H 0.48719 0.81747 0.67087 0.0
H2265 H 0.55678 0.85042 0.6606 0.0
H2266 H 0.53451 0.95138 0.6021 0.0
H2267 H 0.53058 0.91806 0.62793 0.0
C2268 C 0.27795 0.52083 0.68713 0.0
C2269 C 0.27939 0.54189 0.69923 0.0
C2270 C 0.26473 0.5193 0.66625 0.0
C2271 C 0.22987 0.55382 0.62187 0.0
H2272 H 0.18643 0.50209 0.62561 0.0
C2273 C 0.13632 0.55359 0.57794 0.0
C2274 C 0.12766 0.53261 0.56891 0.0
C2275 C 0.1582 0.55432 0.58992 0.0
C2276 C 0.19862 0.51645 0.62396 0.0
H2277 H 0.26962 0.57808 0.69848 0.0
H2278 H 0.24679 0.57562 0.6621 0.0
H2279 H 0.22036 0.50385 0.65211 0.0
H2280 H 0.13593 0.49613 0.56451 0.0
H2281 H 0.17391 0.49748 0.58519 0.0
H2282 H 0.20741 0.56677 0.59419 0.0
C2283 C 0.25599 0.56028 0.66831 0.0
C2284 C 0.21822 0.51742 0.63916 0.0
C2285 C 0.26919 0.56177 0.68914 0.0
C2286 C 0.14183 0.51257 0.57144 0.0
C2287 C 0.16363 0.51331 0.5834 0.0
C2288 C 0.21017 0.55287 0.60667 0.0
C2289 C 0.25257 0.5388 0.65723 0.0
C2290 C 0.2339 0.53632 0.63864 0.0
C2291 C 0.17194 0.53409 0.59316 0.0
C2292 C 0.19406 0.53435 0.60781 0.0
H2293 H 0.28528 0.5052 0.69484 0.0
H2294 H 0.26284 0.50256 0.65796 0.0
H2295 H 0.2417 0.56851 0.62078 0.0
H2296 H 0.12599 0.56939 0.57621 0.0
H2297 H 0.16394 0.5706 0.59735 0.0
C2298 C 0.46554 0.23741 0.69369 0.0
C2299 C 0.4849 0.24675 0.70616 0.0
C2300 C 0.46936 0.22205 0.67505 0.0
C2301 C 0.51464 0.17909 0.65794 0.0
H2302 H 0.47474 0.16995 0.60295 0.0
C2303 C 0.53831 0.11226 0.58735 0.0
C2304 C 0.52022 0.09825 0.57788 0.0
C2305 C 0.53287 0.13076 0.60212 0.0
C2306 C 0.48583 0.17215 0.6184 0.0
H2307 H 0.52336 0.24868 0.70794 0.0
H2308 H 0.5302 0.22246 0.67487 0.0
H2309 H 0.4684 0.20394 0.62798 0.0
H2310 H 0.48209 0.09277 0.57703 0.0
H2311 H 0.47237 0.12567 0.60272 0.0
H2312 H 0.532 0.14741 0.64856 0.0
C2313 C 0.512 0.22669 0.67968 0.0
C2314 C 0.4823 0.19168 0.63267 0.0
C2315 C 0.50814 0.24209 0.69832 0.0
C2316 C 0.4964 0.10324 0.58382 0.0
C2317 C 0.49087 0.12213 0.59848 0.0
C2318 C 0.51816 0.15969 0.64373 0.0
C2319 C 0.49268 0.21557 0.6686 0.0
C2320 C 0.49681 0.1955 0.65255 0.0
C2321 C 0.50913 0.13605 0.60786 0.0
C2322 C 0.50396 0.15602 0.62367 0.0
H2323 H 0.44746 0.24036 0.69976 0.0
H2324 H 0.45405 0.21384 0.66704 0.0
H2325 H 0.52566 0.18098 0.67347 0.0
H2326 H 0.55692 0.109 0.58336 0.0
H2327 H 0.54738 0.1412 0.60878 0.0
C2328 C 0.74917 0.49306 0.32882 0.0
C2329 C 0.74884 0.51212 0.31359 0.0
C2330 C 0.76104 0.49441 0.35049 0.0
C2331 C 0.79359 0.53422 0.39132 0.0
H2332 H 0.83834 0.48301 0.39524 0.0
C2333 C 0.88584 0.54082 0.43704 0.0
C2334 C 0.89559 0.52096 0.44773 0.0
C2335 C 0.86395 0.53979 0.42512 0.0
C2336 C 0.82575 0.49727 0.39484 0.0
H2337 H 0.75853 0.54803 0.30974 0.0
H2338 H 0.77893 0.55059 0.34748 0.0
H2339 H 0.80521 0.48112 0.36786 0.0
H2340 H 0.88915 0.48476 0.45538 0.0
H2341 H 0.85096 0.48315 0.43518 0.0
H2342 H 0.81476 0.55066 0.41786 0.0
C2343 C 0.77008 0.5346 0.34299 0.0
C2344 C 0.80661 0.49615 0.37911 0.0
C2345 C 0.75831 0.5332 0.32136 0.0
C2346 C 0.88237 0.50037 0.44716 0.0
C2347 C 0.86046 0.49939 0.43542 0.0
C2348 C 0.81276 0.53533 0.40715 0.0
C2349 C 0.77274 0.51487 0.35723 0.0
C2350 C 0.79054 0.51479 0.37676 0.0
C2351 C 0.85122 0.51892 0.42373 0.0
C2352 C 0.82938 0.51704 0.40877 0.0
H2353 H 0.74227 0.47654 0.32307 0.0
H2354 H 0.7624 0.47901 0.36124 0.0
H2355 H 0.78143 0.54881 0.39011 0.0
H2356 H 0.89549 0.55698 0.43718 0.0
H2357 H 0.85753 0.55514 0.41617 0.0
C2358 C 0.52391 0.78988 0.32322 0.0
C2359 C 0.54501 0.79198 0.31018 0.0
C2360 C 0.52029 0.80348 0.34331 0.0
C2361 C 0.54982 0.84421 0.38528 0.0
H2362 H 0.48832 0.87525 0.38378 0.0
C2363 C 0.52071 0.91446 0.4533 0.0
C2364 C 0.5078 0.93347 0.4443 0.0
C2365 C 0.52623 0.8955 0.43891 0.0
C2366 C 0.50562 0.86681 0.38442 0.0
H2367 H 0.57953 0.80847 0.30877 0.0
H2368 H 0.57339 0.832 0.34377 0.0
H2369 H 0.49622 0.84358 0.35676 0.0
H2370 H 0.49154 0.94779 0.41281 0.0
H2371 H 0.50131 0.91499 0.38784 0.0
H2372 H 0.55943 0.86815 0.41245 0.0
C2373 C 0.55961 0.81993 0.33872 0.0
C2374 C 0.51003 0.84836 0.36916 0.0
C2375 C 0.56315 0.80646 0.31863 0.0
C2376 C 0.50129 0.93339 0.42042 0.0
C2377 C 0.50674 0.91447 0.40611 0.0
C2378 C 0.54536 0.86267 0.40065 0.0
C2379 C 0.53774 0.81934 0.35076 0.0
C2380 C 0.5323 0.83703 0.3691 0.0
C2381 C 0.51889 0.89509 0.41524 0.0
C2382 C 0.52335 0.87449 0.40008 0.0
H2383 H 0.50956 0.77903 0.31694 0.0
H2384 H 0.50338 0.80233 0.35239 0.0
H2385 H 0.56712 0.83577 0.38582 0.0
H2386 H 0.52614 0.91401 0.47158 0.0
H2387 H 0.53564 0.88088 0.44651 0.0
C2388 C 0.25975 0.51947 0.29951 0.0
C2389 C 0.26877 0.54081 0.29204 0.0
C2390 C 0.24116 0.51857 0.31583 0.0
C2391 C 0.18973 0.5541 0.3334 0.0
H2392 H 0.17964 0.5054 0.37899 0.0
C2393 C 0.10646 0.54977 0.39414 0.0
C2394 C 0.09788 0.52776 0.40019 0.0
C2395 C 0.12718 0.55204 0.3806 0.0
C2396 C 0.18203 0.51896 0.3661 0.0
H2397 H 0.26646 0.57785 0.29655 0.0
H2398 H 0.23433 0.57638 0.3256 0.0
H2399 H 0.21811 0.50844 0.35934 0.0
H2400 H 0.10324 0.49094 0.39494 0.0
H2401 H 0.13881 0.49493 0.3709 0.0
H2402 H 0.15355 0.56442 0.3399 0.0
C2403 C 0.24144 0.56031 0.31872 0.0
C2404 C 0.20418 0.52077 0.35495 0.0
C2405 C 0.26013 0.56117 0.30245 0.0
C2406 C 0.10943 0.50817 0.39082 0.0
C2407 C 0.13004 0.51044 0.37726 0.0
C2408 C 0.16756 0.55226 0.34453 0.0
C2409 C 0.23103 0.53905 0.32481 0.0
C2410 C 0.20827 0.53827 0.33832 0.0
C2411 C 0.13971 0.53236 0.37271 0.0
C2412 C 0.16334 0.53453 0.36087 0.0
H2413 H 0.26575 0.50359 0.29125 0.0
H2414 H 0.23352 0.50191 0.31995 0.0
H2415 H 0.19205 0.56751 0.32035 0.0
H2416 H 0.09814 0.56524 0.40114 0.0
H2417 H 0.13407 0.5692 0.37745 0.0
C2418 C 0.48517 0.23822 0.3207 0.0
C2419 C 0.50533 0.2468 0.30911 0.0
C2420 C 0.48765 0.22407 0.34053 0.0
C2421 C 0.53201 0.18346 0.36674 0.0
H2422 H 0.48224 0.17607 0.41313 0.0
C2423 C 0.51963 0.09848 0.42015 0.0
C2424 C 0.50782 0.09968 0.44183 0.0
C2425 C 0.523 0.1186 0.4067 0.0
C2426 C 0.49666 0.17797 0.40068 0.0
H2427 H 0.54385 0.24831 0.30982 0.0
H2428 H 0.54831 0.2246 0.34522 0.0
H2429 H 0.48109 0.209 0.38692 0.0
H2430 H 0.49212 0.12288 0.46738 0.0
H2431 H 0.49926 0.15787 0.44493 0.0
H2432 H 0.54784 0.15262 0.3809 0.0
C2433 C 0.53051 0.22835 0.33877 0.0
C2434 C 0.49575 0.19683 0.38527 0.0
C2435 C 0.52798 0.24241 0.3188 0.0
C2436 C 0.50113 0.12145 0.45061 0.0
C2437 C 0.50494 0.14151 0.43751 0.0
C2438 C 0.53308 0.16469 0.38238 0.0
C2439 C 0.51043 0.2181 0.34931 0.0
C2440 C 0.51311 0.19964 0.36771 0.0
C2441 C 0.51495 0.14037 0.41487 0.0
C2442 C 0.51518 0.1614 0.39935 0.0
H2443 H 0.46757 0.24073 0.31315 0.0
H2444 H 0.47171 0.21643 0.34779 0.0
H2445 H 0.54562 0.18472 0.35335 0.0
H2446 H 0.52471 0.08188 0.41285 0.0
H2447 H 0.53067 0.11682 0.38936 0.0
C2448 C 0.72174 0.80345 0.51772 0.0
C2449 C 0.72546 0.79058 0.49713 0.0
C2450 C 0.70195 0.81815 0.51979 0.0
C2451 C 0.64418 0.83611 0.49186 0.0
H2452 H 0.66153 0.89619 0.5165 0.0
C2453 C 0.58874 0.9195 0.47415 0.0
C2454 C 0.588 0.93672 0.4916 0.0
C2455 C 0.60283 0.89961 0.47713 0.0
C2456 C 0.65613 0.87945 0.50995 0.0
H2457 H 0.71103 0.7822 0.46295 0.0
H2458 H 0.67635 0.80796 0.46638 0.0
H2459 H 0.6902 0.86464 0.51798 0.0
H2460 H 0.60052 0.94583 0.52647 0.0
H2461 H 0.62481 0.9111 0.53178 0.0
H2462 H 0.61019 0.85125 0.48337 0.0
C2463 C 0.68846 0.80646 0.48117 0.0
C2464 C 0.67265 0.86124 0.51081 0.0
C2465 C 0.70826 0.7916 0.47919 0.0
C2466 C 0.60088 0.93307 0.51253 0.0
C2467 C 0.61494 0.91318 0.51552 0.0
C2468 C 0.62759 0.85438 0.491 0.0
C2469 C 0.68555 0.8206 0.50115 0.0
C2470 C 0.66703 0.83934 0.50163 0.0
C2471 C 0.61653 0.89639 0.49766 0.0
C2472 C 0.63343 0.87637 0.49985 0.0
H2473 H 0.73493 0.80313 0.53169 0.0
H2474 H 0.70005 0.82836 0.53564 0.0
H2475 H 0.63911 0.81945 0.48483 0.0
H2476 H 0.57895 0.92164 0.45784 0.0
H2477 H 0.60368 0.88721 0.46291 0.0
C2478 C 0.69842 0.24186 0.48901 0.0
C2479 C 0.71828 0.24098 0.50402 0.0
C2480 C 0.67852 0.22802 0.49348 0.0
C2481 C 0.66566 0.17244 0.5222 0.0
H2482 H 0.60115 0.1855 0.50116 0.0
C2483 C 0.59431 0.10061 0.5163 0.0
C2484 C 0.5828 0.09992 0.49435 0.0
C2485 C 0.60774 0.12 0.52282 0.0
C2486 C 0.61908 0.18161 0.50721 0.0
H2487 H 0.73244 0.22656 0.53628 0.0
H2488 H 0.6974 0.20309 0.54466 0.0
H2489 H 0.63011 0.2168 0.50336 0.0
H2490 H 0.57523 0.11952 0.46262 0.0
H2491 H 0.59844 0.15295 0.47386 0.0
H2492 H 0.65487 0.13715 0.52529 0.0
C2493 C 0.69729 0.2139 0.52912 0.0
C2494 C 0.63569 0.19954 0.50841 0.0
C2495 C 0.71722 0.22754 0.52452 0.0
C2496 C 0.58408 0.11935 0.47958 0.0
C2497 C 0.5972 0.1387 0.48614 0.0
C2498 C 0.64904 0.15455 0.52107 0.0
C2499 C 0.67814 0.21314 0.51311 0.0
C2500 C 0.6594 0.19507 0.51528 0.0
C2501 C 0.60956 0.13915 0.50762 0.0
C2502 C 0.62576 0.15878 0.51287 0.0
H2503 H 0.69904 0.25184 0.47292 0.0
H2504 H 0.66423 0.22779 0.48064 0.0
H2505 H 0.68381 0.16818 0.52724 0.0
H2506 H 0.59359 0.08595 0.52808 0.0
H2507 H 0.61697 0.1199 0.53957 0.0
C2508 C 0.7897 0.71364 0.50935 0.0
C2509 C 0.78437 0.72404 0.48767 0.0
C2510 C 0.80389 0.69361 0.51034 0.0
C2511 C 0.85099 0.66465 0.47522 0.0
H2512 H 0.84801 0.61871 0.52461 0.0
C2513 C 0.93191 0.60684 0.50099 0.0
C2514 C 0.92746 0.58456 0.50952 0.0
C2515 C 0.91287 0.62177 0.49548 0.0
C2516 C 0.849 0.63116 0.51045 0.0
H2517 H 0.78853 0.72117 0.45003 0.0
H2518 H 0.81227 0.68562 0.45155 0.0
H2519 H 0.81588 0.64695 0.52051 0.0
H2520 H 0.90002 0.55997 0.51835 0.0
H2521 H 0.86676 0.58559 0.508 0.0
H2522 H 0.88401 0.64877 0.46505 0.0
C2523 C 0.80603 0.69309 0.46788 0.0
C2524 C 0.83064 0.6476 0.50829 0.0
C2525 C 0.79203 0.71319 0.46693 0.0
C2526 C 0.90381 0.57706 0.51157 0.0
C2527 C 0.88479 0.59187 0.50594 0.0
C2528 C 0.86929 0.64818 0.47732 0.0
C2529 C 0.81304 0.68357 0.48963 0.0
C2530 C 0.83148 0.66476 0.4908 0.0
C2531 C 0.88901 0.61467 0.49845 0.0
C2532 C 0.86873 0.63134 0.49514 0.0
H2533 H 0.78458 0.72206 0.52559 0.0
H2534 H 0.80902 0.68701 0.52744 0.0
H2535 H 0.85257 0.67777 0.46175 0.0
H2536 H 0.95005 0.61309 0.49971 0.0
H2537 H 0.9169 0.63924 0.49003 0.0
C2538 C 0.32229 0.7912 0.53604 0.0
C2539 C 0.3046 0.79046 0.51857 0.0
C2540 C 0.34202 0.80581 0.53357 0.0
C2541 C 0.35698 0.86052 0.50369 0.0
H2542 H 0.41994 0.84986 0.53006 0.0
C2543 C 0.42856 0.93173 0.50138 0.0
C2544 C 0.44175 0.93508 0.52215 0.0
C2545 C 0.41446 0.91202 0.49846 0.0
C2546 C 0.40239 0.85317 0.52272 0.0
H2547 H 0.29415 0.80324 0.48432 0.0
H2548 H 0.32892 0.82804 0.47949 0.0
H2549 H 0.39115 0.81831 0.5289 0.0
H2550 H 0.45117 0.91975 0.55574 0.0
H2551 H 0.42636 0.88564 0.55081 0.0
H2552 H 0.36787 0.89541 0.498 0.0
C2553 C 0.32747 0.8178 0.49536 0.0
C2554 C 0.38588 0.83505 0.52203 0.0
C2555 C 0.30773 0.80334 0.49792 0.0
C2556 C 0.44118 0.9178 0.53954 0.0
C2557 C 0.42705 0.89811 0.53664 0.0
C2558 C 0.37344 0.87858 0.50438 0.0
C2559 C 0.34438 0.81999 0.51357 0.0
C2560 C 0.36285 0.83854 0.5127 0.0
C2561 C 0.41313 0.89514 0.51624 0.0
C2562 C 0.39631 0.87527 0.51412 0.0
H2563 H 0.31997 0.78179 0.55232 0.0
H2564 H 0.35452 0.80712 0.54804 0.0
H2565 H 0.3393 0.86412 0.49685 0.0
H2566 H 0.42873 0.94455 0.48751 0.0
H2567 H 0.40437 0.91015 0.48232 0.0
C2568 C 0.23516 0.3163 0.54424 0.0
C2569 C 0.24851 0.30764 0.52527 0.0
C2570 C 0.22302 0.33735 0.54236 0.0
C2571 C 0.19486 0.37211 0.49632 0.0
H2572 H 0.18018 0.41388 0.54767 0.0
C2573 C 0.11375 0.43273 0.49191 0.0
C2574 C 0.11721 0.45578 0.49885 0.0
C2575 C 0.13103 0.4159 0.49679 0.0
C2576 C 0.18423 0.40248 0.53311 0.0
H2577 H 0.26128 0.31503 0.49022 0.0
H2578 H 0.24044 0.35221 0.48703 0.0
H2579 H 0.21119 0.38435 0.55271 0.0
H2580 H 0.14092 0.47895 0.51756 0.0
H2581 H 0.17115 0.44953 0.52595 0.0
H2582 H 0.16804 0.39015 0.47669 0.0
C2583 C 0.239 0.34247 0.50322 0.0
C2584 C 0.2019 0.38549 0.53603 0.0
C2585 C 0.25119 0.32136 0.50513 0.0
C2586 C 0.13777 0.46137 0.51183 0.0
C2587 C 0.15508 0.4445 0.51673 0.0
C2588 C 0.17723 0.38903 0.49342 0.0
C2589 C 0.22397 0.35021 0.52144 0.0
C2590 C 0.20724 0.36995 0.51773 0.0
C2591 C 0.15217 0.4217 0.50873 0.0
C2592 C 0.17146 0.4042 0.51187 0.0
H2593 H 0.2329 0.30604 0.56001 0.0
H2594 H 0.21156 0.34268 0.55669 0.0
H2595 H 0.1982 0.36023 0.48198 0.0
H2596 H 0.09801 0.42778 0.48207 0.0
H2597 H 0.12799 0.39837 0.49088 0.0
C2598 C 0.32759 0.24672 0.52303 0.0
C2599 C 0.30735 0.2428 0.50909 0.0
C2600 C 0.34788 0.23266 0.52049 0.0
C2601 C 0.37431 0.18403 0.48495 0.0
H2602 H 0.39348 0.16159 0.54637 0.0
C2603 C 0.44026 0.10654 0.50055 0.0
C2604 C 0.43458 0.09193 0.51938 0.0
C2605 C 0.42691 0.12675 0.49646 0.0
C2606 C 0.38826 0.16758 0.52905 0.0
H2607 H 0.29312 0.22296 0.48007 0.0
H2608 H 0.32814 0.19839 0.47574 0.0
H2609 H 0.3685 0.19581 0.54341 0.0
H2610 H 0.40997 0.08627 0.54804 0.0
H2611 H 0.38627 0.12091 0.54057 0.0
H2612 H 0.39321 0.15482 0.47079 0.0
C2613 C 0.32873 0.21223 0.48854 0.0
C2614 C 0.37427 0.18753 0.52732 0.0
C2615 C 0.30857 0.22627 0.49105 0.0
C2616 C 0.41471 0.09724 0.53336 0.0
C2617 C 0.40132 0.11724 0.52924 0.0
C2618 C 0.38832 0.16394 0.48671 0.0
C2619 C 0.34817 0.21443 0.50403 0.0
C2620 C 0.36657 0.19574 0.50529 0.0
C2621 C 0.4077 0.13264 0.51124 0.0
C2622 C 0.39485 0.15512 0.50884 0.0
H2623 H 0.32703 0.25932 0.5371 0.0
H2624 H 0.36277 0.23517 0.53238 0.0
H2625 H 0.36896 0.19 0.46767 0.0
H2626 H 0.45594 0.10327 0.49007 0.0
H2627 H 0.43237 0.1383 0.48253 0.0
C2628 C 0.7891 0.31451 0.46723 0.0
C2629 C 0.77598 0.30551 0.48612 0.0
C2630 C 0.80152 0.33523 0.46962 0.0
C2631 C 0.8309 0.36787 0.51628 0.0
H2632 H 0.84403 0.41186 0.4666 0.0
C2633 C 0.91136 0.42844 0.52168 0.0
C2634 C 0.9073 0.4518 0.51608 0.0
C2635 C 0.89424 0.41177 0.51639 0.0
C2636 C 0.84043 0.3998 0.4807 0.0
H2637 H 0.76398 0.31203 0.52166 0.0
H2638 H 0.78529 0.34858 0.52573 0.0
H2639 H 0.81323 0.38259 0.46086 0.0
H2640 H 0.88254 0.47577 0.4995 0.0
H2641 H 0.85267 0.44662 0.49022 0.0
H2642 H 0.85802 0.38494 0.53613 0.0
C2643 C 0.78631 0.33938 0.50919 0.0
C2644 C 0.82288 0.38298 0.47737 0.0
C2645 C 0.77383 0.31864 0.50676 0.0
C2646 C 0.88622 0.45793 0.50408 0.0
C2647 C 0.8691 0.44121 0.49871 0.0
C2648 C 0.84846 0.38458 0.51956 0.0
C2649 C 0.8011 0.3474 0.49099 0.0
C2650 C 0.81803 0.36671 0.49508 0.0
C2651 C 0.87267 0.41803 0.50533 0.0
C2652 C 0.85362 0.4006 0.50174 0.0
H2653 H 0.79101 0.30471 0.45111 0.0
H2654 H 0.81276 0.34082 0.45528 0.0
H2655 H 0.82794 0.3554 0.53015 0.0
H2656 H 0.92748 0.42307 0.53076 0.0
H2657 H 0.89775 0.39397 0.52128 0.0
C2658 C 0.24084 0.71584 0.50565 0.0
C2659 C 0.2454 0.72493 0.52806 0.0
C2660 C 0.22508 0.69734 0.50289 0.0
C2661 C 0.19024 0.65166 0.53271 0.0
H2662 H 0.1408 0.67015 0.48868 0.0
C2663 C 0.10078 0.60087 0.52212 0.0
C2664 C 0.09221 0.5986 0.49898 0.0
C2665 C 0.12008 0.61557 0.52711 0.0
C2666 C 0.15454 0.66441 0.50079 0.0
H2667 H 0.23869 0.72077 0.56524 0.0
H2668 H 0.21181 0.68791 0.56052 0.0
H2669 H 0.17593 0.69399 0.49339 0.0
H2670 H 0.09705 0.61049 0.46309 0.0
H2671 H 0.13032 0.63526 0.47155 0.0
H2672 H 0.16889 0.62178 0.53981 0.0
C2673 C 0.22029 0.69506 0.54509 0.0
C2674 C 0.17476 0.67815 0.50346 0.0
C2675 C 0.23584 0.71374 0.54782 0.0
C2676 C 0.10299 0.61175 0.48117 0.0
C2677 C 0.12214 0.62621 0.48608 0.0
C2678 C 0.17006 0.63763 0.52977 0.0
C2679 C 0.21376 0.68749 0.52252 0.0
C2680 C 0.19294 0.6719 0.5193 0.0
C2681 C 0.13111 0.62835 0.50905 0.0
C2682 C 0.152 0.64375 0.5136 0.0
H2683 H 0.24757 0.72446 0.49014 0.0
H2684 H 0.22057 0.69169 0.48529 0.0
H2685 H 0.2039 0.6465 0.54518 0.0
H2686 H 0.09285 0.59109 0.53626 0.0
H2687 H 0.12631 0.61695 0.54508 0.0
loop_
_geom_bond_atom_site_label_1
_geom_bond_atom_site_label_2
_geom_bond_distance
_geom_bond_site_symmetry_2
_ccdc_geom_bond_type
H0 C3 0.931 . S
H1 C6 0.928 . S
H2 C8 0.930 . S
C3 H0 0.931 . S
C3 C4 1.413 . S
C3 C5 1.360 . S
C4 C3 1.413 . S
C4 C8 1.429 . S
C5 C3 1.360 . S
C5 C6 1.372 . S
C6 H1 0.928 . S
C6 C5 1.372 . S
C6 C7 1.404 . S
C7 C6 1.404 . S
C7 C8 1.391 . S
C8 H2 0.930 . S
C8 C4 1.429 . S
C8 C7 1.391 . S
H9 C12 0.931 . S
H10 C15 0.928 . S
H11 C17 0.930 . S
C12 H9 0.931 . S
C12 C13 1.413 . S
C12 C14 1.360 . S
C13 C12 1.413 . S
C13 C17 1.429 . S
C14 C12 1.360 . S
C14 C15 1.372 . S
C15 H10 0.928 . S
C15 C14 1.372 . S
C15 C16 1.404 . S
C16 C15 1.404 . S
C16 C17 1.391 . S
C17 H11 0.930 . S
C17 C13 1.429 . S
C17 C16 1.391 . S
H18 C21 0.931 . S
H19 C24 0.928 . S
H20 C26 0.930 . S
C21 H18 0.931 . S
C21 C22 1.413 . S
C21 C23 1.360 . S
C22 C21 1.413 . S
C22 C26 1.429 . S
C23 C21 1.360 . S
C23 C24 1.372 . S
C24 H19 0.928 . S
C24 C23 1.372 . S
C24 C25 1.404 . S
C25 C24 1.404 . S
C25 C26 1.391 . S
C26 H20 0.930 . S
C26 C22 1.429 . S
C26 C25 1.391 . S
H27 C30 0.931 . S
H28 C33 0.928 . S
H29 C35 0.930 . S
C30 H27 0.931 . S
C30 C31 1.413 . S
C30 C32 1.360 . S
C31 C30 1.413 . S
C31 C35 1.429 . S
C32 C30 1.360 . S
C32 C33 1.372 . S
C33 H28 0.928 . S
C33 C32 1.372 . S
C33 C34 1.404 . S
C34 C33 1.404 . S
C34 C35 1.391 . S
C35 H29 0.930 . S
C35 C31 1.429 . S
C35 C34 1.391 . S
H36 C39 0.931 1_655 S
H37 C42 0.933 . S
H38 C44 0.930 . S
C39 H36 0.931 1_455 S
C39 C40 1.413 . S
C39 C41 1.360 1_455 S
C40 C39 1.413 . S
C40 C44 1.429 . S
C41 C39 1.360 1_655 S
C41 C42 1.371 . S
C42 H37 0.933 . S
C42 C41 1.371 . S
C42 C43 1.403 1_655 S
C43 C42 1.403 1_455 S
C43 C44 1.390 . S
C44 H38 0.930 . S
C44 C40 1.429 . S
C44 C43 1.390 . S
H45 C48 0.931 . S
H46 C51 0.928 . S
H47 C53 0.930 . S
C48 H45 0.931 . S
C48 C49 1.413 . S
C48 C50 1.360 . S
C49 C48 1.413 . S
C49 C53 1.429 . S
C50 C48 1.360 . S
C50 C51 1.372 . S
C51 H46 0.928 . S
C51 C50 1.372 . S
C51 C52 1.404 . S
C52 C51 1.404 . S
C52 C53 1.391 . S
C53 H47 0.930 . S
C53 C49 1.429 . S
C53 C52 1.391 . S
H54 C57 0.931 . S
H55 C60 0.928 . S
H56 C62 0.930 . S
C57 H54 0.931 . S
C57 C58 1.413 . S
C57 C59 1.360 . S
C58 C57 1.413 . S
C58 C62 1.429 . S
C59 C57 1.360 . S
C59 C60 1.372 . S
C60 H55 0.928 . S
C60 C59 1.372 . S
C60 C61 1.404 . S
C61 C60 1.404 . S
C61 C62 1.391 . S
C62 H56 0.930 . S
C62 C58 1.429 . S
C62 C61 1.391 . S
H63 C66 0.931 . S
H64 C69 0.928 . S
H65 C71 0.930 . S
C66 H63 0.931 . S
C66 C67 1.413 . S
C66 C68 1.360 . S
C67 C66 1.413 . S
C67 C71 1.429 . S
C68 C66 1.360 . S
C68 C69 1.372 . S
C69 H64 0.928 . S
C69 C68 1.372 . S
C69 C70 1.404 . S
C70 C69 1.404 . S
C70 C71 1.391 . S
C71 H65 0.930 . S
C71 C67 1.429 . S
C71 C70 1.391 . S
H72 C75 0.931 . S
H73 C78 0.928 . S
H74 C80 0.930 . S
C75 H72 0.931 . S
C75 C76 1.413 . S
C75 C77 1.360 . S
C76 C75 1.413 . S
C76 C80 1.429 . S
C77 C75 1.360 . S
C77 C78 1.372 . S
C78 H73 0.928 . S
C78 C77 1.372 . S
C78 C79 1.404 . S
C79 C78 1.404 . S
C79 C80 1.391 . S
C80 H74 0.930 . S
C80 C76 1.429 . S
C80 C79 1.391 . S
H81 C84 0.931 . S
H82 C87 0.928 . S
H83 C89 0.930 . S
C84 H81 0.931 . S
C84 C85 1.413 . S
C84 C86 1.360 . S
C85 C84 1.413 . S
C85 C89 1.429 . S
C86 C84 1.360 . S
C86 C87 1.372 . S
C87 H82 0.928 . S
C87 C86 1.372 . S
C87 C88 1.404 . S
C88 C87 1.404 . S
C88 C89 1.391 . S
C89 H83 0.930 . S
C89 C85 1.429 . S
C89 C88 1.391 . S
H90 C93 0.931 . S
H91 C96 0.928 . S
H92 C98 0.930 . S
C93 H90 0.931 . S
C93 C94 1.413 . S
C93 C95 1.360 . S
C94 C93 1.413 . S
C94 C98 1.429 . S
C95 C93 1.360 . S
C95 C96 1.372 . S
C96 H91 0.928 . S
C96 C95 1.372 . S
C96 C97 1.404 . S
C97 C96 1.404 . S
C97 C98 1.391 . S
C98 H92 0.930 . S
C98 C94 1.429 . S
C98 C97 1.391 . S
H99 C102 0.931 . S
H100 C105 0.928 . S
H101 C107 0.930 . S
C102 H99 0.931 . S
C102 C103 1.413 . S
C102 C104 1.360 . S
C103 C102 1.413 . S
C103 C107 1.429 . S
C104 C102 1.360 . S
C104 C105 1.372 . S
C105 H100 0.928 . S
C105 C104 1.372 . S
C105 C106 1.404 . S
C106 C105 1.404 . S
C106 C107 1.391 . S
C107 H101 0.930 . S
C107 C103 1.429 . S
C107 C106 1.391 . S
H108 C111 0.931 . S
H109 C114 0.928 . S
H110 C116 0.930 . S
C111 H108 0.931 . S
C111 C112 1.413 . S
C111 C113 1.360 . S
C112 C111 1.413 . S
C112 C116 1.429 . S
C113 C111 1.360 . S
C113 C114 1.372 . S
C114 H109 0.928 . S
C114 C113 1.372 . S
C114 C115 1.404 . S
C115 C114 1.404 . S
C115 C116 1.391 . S
C116 H110 0.930 . S
C116 C112 1.429 . S
C116 C115 1.391 . S
H117 C120 0.931 . S
H118 C123 0.928 . S
H119 C125 0.930 . S
C120 H117 0.931 . S
C120 C121 1.413 . S
C120 C122 1.360 . S
C121 C120 1.413 . S
C121 C125 1.429 . S
C122 C120 1.360 . S
C122 C123 1.372 . S
C123 H118 0.928 . S
C123 C122 1.372 . S
C123 C124 1.404 . S
C124 C123 1.404 . S
C124 C125 1.391 . S
C125 H119 0.930 . S
C125 C121 1.429 . S
C125 C124 1.391 . S
H126 C129 0.931 . S
H127 C132 0.928 . S
H128 C134 0.930 . S
C129 H126 0.931 . S
C129 C130 1.413 . S
C129 C131 1.360 . S
C130 C129 1.413 . S
C130 C134 1.429 . S
C131 C129 1.360 . S
C131 C132 1.372 . S
C132 H127 0.928 . S
C132 C131 1.372 . S
C132 C133 1.404 . S
C133 C132 1.404 . S
C133 C134 1.391 . S
C134 H128 0.930 . S
C134 C130 1.429 . S
C134 C133 1.391 . S
H135 C138 0.931 . S
H136 C141 0.928 . S
H137 C143 0.930 . S
C138 H135 0.931 . S
C138 C139 1.413 . S
C138 C140 1.360 . S
C139 C138 1.413 . S
C139 C143 1.429 . S
C140 C138 1.360 . S
C140 C141 1.372 . S
C141 H136 0.928 . S
C141 C140 1.372 . S
C141 C142 1.404 . S
C142 C141 1.404 . S
C142 C143 1.391 . S
C143 H137 0.930 . S
C143 C139 1.429 . S
C143 C142 1.391 . S
H144 C147 0.931 . S
H145 C150 0.928 . S
H146 C152 0.930 . S
C147 H144 0.931 . S
C147 C148 1.413 . S
C147 C149 1.360 . S
C148 C147 1.413 . S
C148 C152 1.429 . S
C149 C147 1.360 . S
C149 C150 1.372 . S
C150 H145 0.928 . S
C150 C149 1.372 . S
C150 C151 1.404 . S
C151 C150 1.404 . S
C151 C152 1.391 . S
C152 H146 0.930 . S
C152 C148 1.429 . S
C152 C151 1.391 . S
H153 C156 0.931 . S
H154 C159 0.928 . S
H155 C161 0.930 . S
C156 H153 0.931 . S
C156 C157 1.413 . S
C156 C158 1.360 . S
C157 C156 1.413 . S
C157 C161 1.429 . S
C158 C156 1.360 . S
C158 C159 1.372 . S
C159 H154 0.928 . S
C159 C158 1.372 . S
C159 C160 1.404 . S
C160 C159 1.404 . S
C160 C161 1.391 . S
C161 H155 0.930 . S
C161 C157 1.429 . S
C161 C160 1.391 . S
H162 C165 0.931 . S
H163 C168 0.928 . S
H164 C170 0.930 . S
C165 H162 0.931 . S
C165 C166 1.413 . S
C165 C167 1.360 . S
C166 C165 1.413 . S
C166 C170 1.429 . S
C167 C165 1.360 . S
C167 C168 1.372 . S
C168 H163 0.928 . S
C168 C167 1.372 . S
C168 C169 1.404 . S
C169 C168 1.404 . S
C169 C170 1.391 . S
C170 H164 0.930 . S
C170 C166 1.429 . S
C170 C169 1.391 . S
H171 C174 0.931 . S
H172 C177 0.928 . S
H173 C179 0.930 . S
C174 H171 0.931 . S
C174 C175 1.413 . S
C174 C176 1.360 . S
C175 C174 1.413 . S
C175 C179 1.429 . S
C176 C174 1.360 . S
C176 C177 1.372 . S
C177 H172 0.928 . S
C177 C176 1.372 . S
C177 C178 1.404 . S
C178 C177 1.404 . S
C178 C179 1.391 . S
C179 H173 0.930 . S
C179 C175 1.429 . S
C179 C178 1.391 . S
H180 C183 0.931 . S
H181 C186 0.928 . S
H182 C188 0.930 . S
C183 H180 0.931 . S
C183 C184 1.413 . S
C183 C185 1.360 . S
C184 C183 1.413 . S
C184 C188 1.429 . S
C185 C183 1.360 . S
C185 C186 1.372 . S
C186 H181 0.928 . S
C186 C185 1.372 . S
C186 C187 1.404 . S
C187 C186 1.404 . S
C187 C188 1.391 . S
C188 H182 0.930 . S
C188 C184 1.429 . S
C188 C187 1.391 . S
H189 C192 0.931 . S
H190 C195 0.928 . S
H191 C197 0.930 . S
C192 H189 0.931 . S
C192 C193 1.413 . S
C192 C194 1.360 . S
C193 C192 1.413 . S
C193 C197 1.429 . S
C194 C192 1.360 . S
C194 C195 1.372 . S
C195 H190 0.928 . S
C195 C194 1.372 . S
C195 C196 1.404 . S
C196 C195 1.404 . S
C196 C197 1.391 . S
C197 H191 0.930 . S
C197 C193 1.429 . S
C197 C196 1.391 . S
H198 C201 0.931 . S
H199 C204 0.928 . S
H200 C206 0.930 . S
C201 H198 0.931 . S
C201 C202 1.413 . S
C201 C203 1.360 . S
C202 C201 1.413 . S
C202 C206 1.429 . S
C203 C201 1.360 . S
C203 C204 1.372 . S
C204 H199 0.928 . S
C204 C203 1.372 . S
C204 C205 1.404 . S
C205 C204 1.404 . S
C205 C206 1.391 . S
C206 H200 0.930 . S
C206 C202 1.429 . S
C206 C205 1.391 . S
H207 C210 0.931 . S
H208 C213 0.928 . S
H209 C215 0.930 . S
C210 H207 0.931 . S
C210 C211 1.413 . S
C210 C212 1.360 . S
C211 C210 1.413 . S
C211 C215 1.429 . S
C212 C210 1.360 . S
C212 C213 1.372 . S
C213 H208 0.928 . S
C213 C212 1.372 . S
C213 C214 1.404 . S
C214 C213 1.404 . S
C214 C215 1.391 . S
C215 H209 0.930 . S
C215 C211 1.429 . S
C215 C214 1.391 . S
Zn216 O218 1.933 1_665 S
Zn216 O236 1.985 1_565 S
Zn216 O247 1.951 1_655 S
Zn217 O218 1.911 1_655 S
Zn217 O237 1.970 . S
Zn217 O253 1.945 1_655 S
Zn217 O260 1.981 . S
O218 Zn216 1.933 1_445 S
O218 Zn217 1.911 1_455 S
O218 H219 0.841 . S
H219 O218 0.841 . S
C220 O221 1.246 . S
C220 O249 1.276 . S
O221 C220 1.246 . S
Zn222 O224 1.911 . S
Zn222 O239 1.970 . S
Zn222 O256 1.945 . S
Zn222 O263 1.981 . S
Zn223 O224 1.933 1_565 S
Zn223 O238 1.985 . S
Zn223 O245 1.955 . S
O224 Zn222 1.911 . S
O224 Zn223 1.933 1_545 S
O224 H225 0.841 . S
H225 O224 0.841 . S
Zn226 O227 1.933 1_565 S
Zn226 O240 1.985 1_565 S
Zn226 O249 1.955 . S
O227 Zn226 1.933 1_545 S
O227 Zn228 1.911 . S
O227 H229 0.841 . S
Zn228 O227 1.911 . S
Zn228 O241 1.970 . S
Zn228 O257 1.981 1_655 S
Zn228 O259 1.945 . S
H229 O227 0.841 . S
Zn230 O231 1.933 1_565 S
Zn230 O243 1.985 . S
Zn230 O251 1.955 . S
O231 Zn230 1.933 1_545 S
O231 H232 0.841 . S
O231 Zn233 1.911 . S
H232 O231 0.841 . S
Zn233 O231 1.911 . S
Zn233 O244 1.970 . S
Zn233 O254 1.981 . S
Zn233 O262 1.945 . S
C234 O235 1.246 . S
C234 O251 1.276 . S
O235 C234 1.246 . S
O236 Zn216 1.985 1_545 S
O236 C246 1.245 . S
O237 Zn217 1.970 . S
O237 C246 1.263 . S
O238 Zn223 1.985 . S
O238 C250 1.245 1_565 S
O239 Zn222 1.970 . S
O239 C250 1.263 . S
O240 Zn226 1.985 1_545 S
O240 C255 1.245 . S
O241 Zn228 1.970 . S
O241 C255 1.263 . S
C242 O253 1.262 . S
C242 O254 1.245 . S
O243 Zn230 1.985 . S
O243 C261 1.245 1_565 S
O244 Zn233 1.970 . S
O244 C261 1.263 . S
O245 Zn223 1.955 . S
O245 C264 1.276 . S
C246 O236 1.245 . S
C246 O237 1.263 . S
O247 Zn216 1.951 1_455 S
O247 C266 1.289 . S
C248 O256 1.262 . S
C248 O257 1.245 . S
O249 C220 1.276 . S
O249 Zn226 1.955 . S
C250 O238 1.245 1_545 S
C250 O239 1.263 . S
O251 Zn230 1.955 . S
O251 C234 1.276 . S
C252 O259 1.262 . S
C252 O260 1.245 . S
O253 Zn217 1.945 1_455 S
O253 C242 1.262 . S
O254 Zn233 1.981 . S
O254 C242 1.245 . S
C255 O240 1.245 . S
C255 O241 1.263 . S
O256 Zn222 1.945 . S
O256 C248 1.262 . S
O257 Zn228 1.981 1_455 S
O257 C248 1.245 . S
C258 O262 1.262 . S
C258 O263 1.245 . S
O259 Zn228 1.945 . S
O259 C252 1.262 . S
O260 Zn217 1.981 . S
O260 C252 1.245 . S
C261 O243 1.245 1_545 S
C261 O244 1.263 . S
O262 Zn233 1.945 . S
O262 C258 1.262 . S
O263 Zn222 1.981 . S
O263 C258 1.245 . S
C264 O245 1.276 . S
C264 O265 1.246 . S
O265 C264 1.246 . S
C266 O247 1.289 . S
C266 O267 1.246 . S
O267 C266 1.246 . S
Zn268 O270 1.933 . S
Zn268 O288 1.985 . S
Zn268 O299 1.955 . S
Zn269 O270 1.911 1_556 S
Zn269 O289 1.970 . S
Zn269 O305 1.945 . S
Zn269 O312 1.981 . S
O270 Zn268 1.933 . S
O270 Zn269 1.911 1_554 S
O270 H271 0.841 . S
H271 O270 0.841 . S
C272 O273 1.246 . S
C272 O301 1.276 . S
O273 C272 1.246 . S
Zn274 O276 1.898 1_566 S
Zn274 O291 1.970 . S
Zn274 O308 1.945 . S
Zn274 O315 1.981 . S
Zn275 O276 1.924 1_565 S
Zn275 O290 1.985 . S
Zn275 O297 1.943 1_565 S
O276 Zn274 1.898 1_544 S
O276 Zn275 1.924 1_545 S
O276 H277 0.871 . S
H277 O276 0.871 . S
Zn278 O279 1.933 . S
Zn278 O292 1.985 . S
Zn278 O301 1.955 . S
O279 Zn278 1.933 . S
O279 Zn280 1.911 1_554 S
O279 H281 0.841 . S
Zn280 O279 1.911 1_556 S
Zn280 O293 1.970 . S
Zn280 O309 1.981 . S
Zn280 O311 1.945 . S
H281 O279 0.841 . S
Zn282 O283 1.933 . S
Zn282 O295 1.985 . S
Zn282 O303 1.955 . S
O283 Zn282 1.933 . S
O283 H284 0.841 . S
O283 Zn285 1.911 1_554 S
H284 O283 0.841 . S
Zn285 O283 1.911 1_556 S
Zn285 O296 1.970 . S
Zn285 O306 1.981 1_565 S
Zn285 O314 1.945 . S
C286 O287 1.246 . S
C286 O303 1.276 . S
O287 C286 1.246 . S
O288 Zn268 1.985 . S
O288 C298 1.245 . S
O289 Zn269 1.970 . S
O289 C298 1.263 1_556 S
O290 Zn275 1.985 . S
O290 C302 1.245 . S
O291 Zn274 1.970 . S
O291 C302 1.263 1_556 S
O292 Zn278 1.985 . S
O292 C307 1.245 . S
O293 Zn280 1.970 . S
O293 C307 1.263 1_556 S
C294 O305 1.262 . S
C294 O306 1.245 . S
O295 Zn282 1.985 . S
O295 C313 1.245 . S
O296 Zn285 1.970 . S
O296 C313 1.263 1_556 S
O297 Zn275 1.943 1_545 S
O297 C316 1.316 . S
C298 O288 1.245 . S
C298 O289 1.263 1_554 S
O299 Zn268 1.955 . S
O299 C318 1.276 . S
C300 O308 1.262 1_545 S
C300 O309 1.245 . S
O301 C272 1.276 . S
O301 Zn278 1.955 . S
C302 O290 1.245 . S
C302 O291 1.263 1_554 S
O303 Zn282 1.955 . S
O303 C286 1.276 . S
C304 O311 1.262 . S
C304 O312 1.245 . S
O305 Zn269 1.945 . S
O305 C294 1.262 . S
O306 Zn285 1.981 1_545 S
O306 C294 1.245 . S
C307 O292 1.245 . S
C307 O293 1.263 1_554 S
O308 Zn274 1.945 . S
O308 C300 1.262 1_565 S
O309 Zn280 1.981 . S
O309 C300 1.245 . S
C310 O314 1.262 . S
C310 O315 1.245 . S
O311 Zn280 1.945 . S
O311 C304 1.262 . S
O312 Zn269 1.981 . S
O312 C304 1.245 . S
C313 O295 1.245 . S
C313 O296 1.263 1_554 S
O314 Zn285 1.945 . S
O314 C310 1.262 . S
O315 Zn274 1.981 . S
O315 C310 1.245 . S
C316 O297 1.316 . S
C316 O317 1.246 . S
O317 C316 1.246 . S
C318 O299 1.276 . S
C318 O319 1.246 . S
O319 C318 1.246 . S
Zn320 O322 1.933 1_655 S
Zn320 O340 1.985 . S
Zn320 O351 1.955 1_655 S
Zn321 O322 1.911 1_655 S
Zn321 O341 1.970 . S
Zn321 O357 1.945 . S
Zn321 O364 1.981 . S
O322 Zn320 1.933 1_455 S
O322 Zn321 1.911 1_455 S
O322 H323 0.841 . S
H323 O322 0.841 . S
C324 O325 1.246 1_554 S
C324 O353 1.276 . S
O325 C324 1.246 1_556 S
Zn326 O328 1.911 . S
Zn326 O343 1.970 . S
Zn326 O360 1.945 . S
Zn326 O367 1.981 . S
Zn327 O328 1.933 . S
Zn327 O342 1.985 . S
Zn327 O349 1.955 . S
O328 Zn326 1.911 . S
O328 Zn327 1.933 . S
O328 H329 0.841 . S
H329 O328 0.841 . S
Zn330 O331 1.933 . S
Zn330 O344 1.985 . S
Zn330 O353 1.955 . S
O331 Zn330 1.933 . S
O331 Zn332 1.911 . S
O331 H333 0.841 . S
Zn332 O331 1.911 . S
Zn332 O345 1.970 . S
Zn332 O361 1.981 1_655 S
Zn332 O363 1.945 . S
H333 O331 0.841 . S
Zn334 O335 1.933 . S
Zn334 O347 1.985 . S
Zn334 O355 1.955 . S
O335 Zn334 1.933 . S
O335 H336 0.841 1_556 S
O335 Zn337 1.911 . S
H336 O335 0.841 1_554 S
Zn337 O335 1.911 . S
Zn337 O348 1.970 . S
Zn337 O358 1.981 . S
Zn337 O366 1.945 . S
C338 O339 1.246 . S
C338 O355 1.276 1_554 S
O339 C338 1.246 . S
O340 Zn320 1.985 . S
O340 C350 1.245 . S
O341 Zn321 1.970 . S
O341 C350 1.263 . S
O342 Zn327 1.985 . S
O342 C354 1.245 . S
O343 Zn326 1.970 . S
O343 C354 1.263 . S
O344 Zn330 1.985 . S
O344 C359 1.245 . S
O345 Zn332 1.970 . S
O345 C359 1.263 . S
C346 O357 1.262 1_455 S
C346 O358 1.245 . S
O347 Zn334 1.985 . S
O347 C365 1.245 . S
O348 Zn337 1.970 . S
O348 C365 1.263 . S
O349 Zn327 1.955 . S
O349 C368 1.276 . S
C350 O340 1.245 . S
C350 O341 1.263 . S
O351 Zn320 1.955 1_455 S
O351 C370 1.276 . S
C352 O360 1.262 . S
C352 O361 1.245 . S
O353 C324 1.276 . S
O353 Zn330 1.955 . S
C354 O342 1.245 . S
C354 O343 1.263 . S
O355 Zn334 1.955 . S
O355 C338 1.276 1_556 S
C356 O363 1.262 . S
C356 O364 1.245 1_554 S
O357 Zn321 1.945 . S
O357 C346 1.262 1_655 S
O358 Zn337 1.981 . S
O358 C346 1.245 . S
C359 O344 1.245 . S
C359 O345 1.263 . S
O360 Zn326 1.945 . S
O360 C352 1.262 . S
O361 Zn332 1.981 1_455 S
O361 C352 1.245 . S
C362 O366 1.262 1_554 S
C362 O367 1.245 . S
O363 Zn332 1.945 . S
O363 C356 1.262 . S
O364 Zn321 1.981 . S
O364 C356 1.245 1_556 S
C365 O347 1.245 . S
C365 O348 1.263 . S
O366 Zn337 1.945 . S
O366 C362 1.262 1_556 S
O367 Zn326 1.981 . S
O367 C362 1.245 . S
C368 O349 1.276 . S
C368 O369 1.246 . S
O369 C368 1.246 . S
C370 O351 1.276 . S
C370 O371 1.246 . S
O371 C370 1.246 . S
Zn372 O374 1.933 1_556 S
Zn372 O392 1.985 . S
Zn372 O403 1.955 . S
Zn373 O374 1.911 . S
Zn373 O393 1.970 . S
Zn373 O409 1.945 . S
Zn373 O416 1.981 . S
O374 Zn372 1.933 1_554 S
O374 Zn373 1.911 . S
O374 H375 0.841 . S
H375 O374 0.841 . S
C376 O377 1.246 . S
C376 O405 1.276 . S
O377 C376 1.246 . S
Zn378 O380 1.911 . S
Zn378 O395 1.970 . S
Zn378 O412 1.945 . S
Zn378 O419 1.981 . S
Zn379 O380 1.933 1_556 S
Zn379 O394 1.985 . S
Zn379 O401 1.955 . S
O380 Zn378 1.911 . S
O380 Zn379 1.933 1_554 S
O380 H381 0.841 . S
H381 O380 0.841 . S
Zn382 O383 1.933 1_556 S
Zn382 O396 1.985 . S
Zn382 O405 1.955 . S
O383 Zn382 1.933 1_554 S
O383 Zn384 1.911 . S
O383 H385 0.841 . S
Zn384 O383 1.911 . S
Zn384 O397 1.970 . S
Zn384 O413 1.981 . S
Zn384 O415 1.945 . S
H385 O383 0.841 . S
Zn386 O387 1.933 1_556 S
Zn386 O399 1.985 . S
Zn386 O407 1.955 . S
O387 Zn386 1.933 1_554 S
O387 H388 0.841 . S
O387 Zn389 1.911 . S
H388 O387 0.841 . S
Zn389 O387 1.911 . S
Zn389 O400 1.970 . S
Zn389 O410 1.981 . S
Zn389 O418 1.945 . S
C390 O391 1.246 . S
C390 O407 1.276 . S
O391 C390 1.246 . S
O392 Zn372 1.985 . S
O392 C402 1.245 1_556 S
O393 Zn373 1.970 . S
O393 C402 1.263 . S
O394 Zn379 1.985 . S
O394 C406 1.245 1_556 S
O395 Zn378 1.970 . S
O395 C406 1.263 . S
O396 Zn382 1.985 . S
O396 C411 1.245 1_556 S
O397 Zn384 1.970 . S
O397 C411 1.263 . S
C398 O409 1.262 . S
C398 O410 1.245 . S
O399 Zn386 1.985 . S
O399 C417 1.245 1_556 S
O400 Zn389 1.970 . S
O400 C417 1.263 . S
O401 Zn379 1.955 . S
O401 C420 1.276 . S
C402 O392 1.245 1_554 S
C402 O393 1.263 . S
O403 Zn372 1.955 . S
O403 C422 1.276 . S
C404 O412 1.262 . S
C404 O413 1.245 . S
O405 C376 1.276 . S
O405 Zn382 1.955 . S
C406 O394 1.245 1_554 S
C406 O395 1.263 . S
O407 Zn386 1.955 . S
O407 C390 1.276 . S
C408 O415 1.262 . S
C408 O416 1.245 . S
O409 Zn373 1.945 . S
O409 C398 1.262 . S
O410 Zn389 1.981 . S
O410 C398 1.245 . S
C411 O396 1.245 1_554 S
C411 O397 1.263 . S
O412 Zn378 1.945 . S
O412 C404 1.262 . S
O413 Zn384 1.981 . S
O413 C404 1.245 . S
C414 O418 1.262 . S
C414 O419 1.245 . S
O415 Zn384 1.945 . S
O415 C408 1.262 . S
O416 Zn373 1.981 . S
O416 C408 1.245 . S
C417 O399 1.245 1_554 S
C417 O400 1.263 . S
O418 Zn389 1.945 . S
O418 C414 1.262 . S
O419 Zn378 1.981 . S
O419 C414 1.245 . S
C420 O401 1.276 . S
C420 O421 1.246 . S
O421 C420 1.246 . S
C422 O403 1.276 . S
C422 O423 1.246 . S
O423 C422 1.246 . S
Zn424 O426 1.933 1_655 S
Zn424 O444 1.985 . S
Zn424 O455 1.955 1_655 S
Zn425 O426 1.911 1_655 S
Zn425 O445 1.970 . S
Zn425 O461 1.945 . S
Zn425 O468 1.981 . S
O426 Zn424 1.933 1_455 S
O426 Zn425 1.911 1_455 S
O426 H427 0.841 . S
H427 O426 0.841 . S
C428 O429 1.246 . S
C428 O457 1.276 . S
O429 C428 1.246 . S
Zn430 O432 1.911 . S
Zn430 O447 1.970 . S
Zn430 O464 1.945 . S
Zn430 O471 1.981 . S
Zn431 O432 1.933 . S
Zn431 O446 1.985 . S
Zn431 O453 1.955 . S
O432 Zn430 1.911 . S
O432 Zn431 1.933 . S
O432 H433 0.841 . S
H433 O432 0.841 . S
Zn434 O435 1.933 . S
Zn434 O448 1.985 . S
Zn434 O457 1.955 . S
O435 Zn434 1.933 . S
O435 Zn436 1.911 . S
O435 H437 0.841 . S
Zn436 O435 1.911 . S
Zn436 O449 1.970 . S
Zn436 O465 1.981 1_655 S
Zn436 O467 1.945 . S
H437 O435 0.841 . S
Zn438 O439 1.933 . S
Zn438 O451 1.985 . S
Zn438 O459 1.955 . S
O439 Zn438 1.933 . S
O439 H440 0.841 . S
O439 Zn441 1.911 . S
H440 O439 0.841 . S
Zn441 O439 1.911 . S
Zn441 O452 1.970 . S
Zn441 O462 1.981 . S
Zn441 O470 1.945 . S
C442 O443 1.246 . S
C442 O459 1.276 . S
O443 C442 1.246 . S
O444 Zn424 1.985 . S
O444 C454 1.245 . S
O445 Zn425 1.970 . S
O445 C454 1.263 . S
O446 Zn431 1.985 . S
O446 C458 1.245 . S
O447 Zn430 1.970 . S
O447 C458 1.263 . S
O448 Zn434 1.985 . S
O448 C463 1.245 . S
O449 Zn436 1.970 . S
O449 C463 1.263 . S
C450 O461 1.262 1_455 S
C450 O462 1.245 . S
O451 Zn438 1.985 . S
O451 C469 1.245 . S
O452 Zn441 1.970 . S
O452 C469 1.263 . S
O453 Zn431 1.955 . S
O453 C472 1.276 . S
C454 O444 1.245 . S
C454 O445 1.263 . S
O455 Zn424 1.955 1_455 S
O455 C474 1.276 . S
C456 O464 1.262 . S
C456 O465 1.245 . S
O457 C428 1.276 . S
O457 Zn434 1.955 . S
C458 O446 1.245 . S
C458 O447 1.263 . S
O459 Zn438 1.955 . S
O459 C442 1.276 . S
C460 O467 1.262 . S
C460 O468 1.245 . S
O461 Zn425 1.945 . S
O461 C450 1.262 1_655 S
O462 Zn441 1.981 . S
O462 C450 1.245 . S
C463 O448 1.245 . S
C463 O449 1.263 . S
O464 Zn430 1.945 . S
O464 C456 1.262 . S
O465 Zn436 1.981 1_455 S
O465 C456 1.245 . S
C466 O470 1.262 . S
C466 O471 1.245 . S
O467 Zn436 1.945 . S
O467 C460 1.262 . S
O468 Zn425 1.981 . S
O468 C460 1.245 . S
C469 O451 1.245 . S
C469 O452 1.263 . S
O470 Zn441 1.945 . S
O470 C466 1.262 . S
O471 Zn430 1.981 . S
O471 C466 1.245 . S
C472 O453 1.276 . S
C472 O473 1.246 . S
O473 C472 1.246 . S
C474 O455 1.276 . S
C474 O475 1.246 . S
O475 C474 1.246 . S
Zn476 O478 1.933 1_565 S
Zn476 O496 1.994 . S
Zn476 O507 1.955 . S
Zn477 O478 1.911 . S
Zn477 O497 1.970 . S
Zn477 O513 1.945 . S
Zn477 O520 1.981 . S
O478 Zn476 1.933 1_545 S
O478 Zn477 1.911 . S
O478 H479 0.841 . S
H479 O478 0.841 . S
C480 O481 1.246 . S
C480 O509 1.276 . S
O481 C480 1.246 . S
Zn482 O484 1.911 . S
Zn482 O499 1.970 . S
Zn482 O516 1.945 . S
Zn482 O523 1.981 . S
Zn483 O484 1.933 1_565 S
Zn483 O498 1.985 1_565 S
Zn483 O505 1.955 . S
O484 Zn482 1.911 . S
O484 Zn483 1.933 1_545 S
O484 H485 0.841 . S
H485 O484 0.841 . S
Zn486 O487 1.933 1_565 S
Zn486 O500 1.995 . S
Zn486 O509 1.955 . S
O487 Zn486 1.933 1_545 S
O487 Zn488 1.911 . S
O487 H489 0.841 . S
Zn488 O487 1.911 . S
Zn488 O501 1.970 . S
Zn488 O517 1.981 . S
Zn488 O519 1.945 . S
H489 O487 0.841 . S
Zn490 O491 1.933 1_565 S
Zn490 O503 1.985 1_565 S
Zn490 O511 1.955 . S
O491 Zn490 1.933 1_545 S
O491 H492 0.841 . S
O491 Zn493 1.911 . S
H492 O491 0.841 . S
Zn493 O491 1.911 . S
Zn493 O504 1.970 . S
Zn493 O514 1.981 . S
Zn493 O522 1.945 . S
C494 O495 1.246 . S
C494 O511 1.276 . S
O495 C494 1.246 . S
O496 Zn476 1.994 . S
O496 C506 1.202 1_565 S
O497 Zn477 1.970 . S
O497 C506 1.263 . S
O498 Zn483 1.985 1_545 S
O498 C510 1.245 . S
O499 Zn482 1.970 . S
O499 C510 1.263 . S
O500 Zn486 1.995 . S
O500 C515 1.200 1_565 S
O501 Zn488 1.970 . S
O501 C515 1.263 . S
C502 O513 1.262 . S
C502 O514 1.245 . S
O503 Zn490 1.985 1_545 S
O503 C521 1.245 . S
O504 Zn493 1.970 . S
O504 C521 1.263 . S
O505 Zn483 1.955 . S
O505 C524 1.276 . S
C506 O496 1.202 1_545 S
C506 O497 1.263 . S
O507 Zn476 1.955 . S
O507 C526 1.276 . S
C508 O516 1.262 . S
C508 O517 1.245 . S
O509 C480 1.276 . S
O509 Zn486 1.955 . S
C510 O498 1.245 . S
C510 O499 1.263 . S
O511 Zn490 1.955 . S
O511 C494 1.276 . S
C512 O519 1.262 . S
C512 O520 1.245 . S
O513 Zn477 1.945 . S
O513 C502 1.262 . S
O514 Zn493 1.981 . S
O514 C502 1.245 . S
C515 O500 1.200 1_545 S
C515 O501 1.263 . S
O516 Zn482 1.945 . S
O516 C508 1.262 . S
O517 Zn488 1.981 . S
O517 C508 1.245 . S
C518 O522 1.262 . S
C518 O523 1.245 . S
O519 Zn488 1.945 . S
O519 C512 1.262 . S
O520 Zn477 1.981 . S
O520 C512 1.245 . S
C521 O503 1.245 . S
C521 O504 1.263 . S
O522 Zn493 1.945 . S
O522 C518 1.262 . S
O523 Zn482 1.981 . S
O523 C518 1.245 . S
C524 O505 1.276 . S
C524 O525 1.246 . S
O525 C524 1.246 . S
C526 O507 1.276 . S
C526 O527 1.246 . S
O527 C526 1.246 . S
C528 C529 1.349 . S
C528 C530 1.327 . S
C528 H553 0.950 . S
C529 C528 1.349 . S
C529 C545 1.349 . S
C530 C528 1.327 . S
C530 C549 1.429 . S
C530 H554 0.950 . S
C531 C548 1.574 . S
C531 C550 1.368 . S
C531 H555 0.949 . S
H532 C536 0.949 . S
C533 C534 1.349 . S
C533 C535 1.327 . S
C533 H556 0.950 . S
C534 C533 1.349 . S
C534 C546 1.349 . S
C535 C533 1.327 . S
C535 C551 1.429 . S
C535 H557 0.950 . S
C536 H532 0.949 . S
C536 C544 1.574 . S
C536 C552 1.368 . S
H537 C545 0.950 . S
H538 C543 0.950 . S
H539 C544 0.949 . S
H540 C546 0.950 . S
H541 C547 0.950 . S
H542 C548 0.949 . S
C543 H538 0.950 . S
C543 C545 1.327 . S
C543 C549 1.429 . S
C544 C536 1.574 . S
C544 H539 0.949 . S
C544 C550 1.368 . S
C545 C529 1.349 . S
C545 H537 0.950 . S
C545 C543 1.327 . S
C546 C534 1.349 . S
C546 H540 0.950 . S
C546 C547 1.327 . S
C547 H541 0.950 . S
C547 C546 1.327 . S
C547 C551 1.429 . S
C548 C531 1.574 . S
C548 H542 0.949 . S
C548 C552 1.368 . S
C549 C530 1.429 . S
C549 C543 1.429 . S
C549 C550 1.523 . S
C550 C531 1.368 . S
C550 C544 1.368 . S
C550 C549 1.523 . S
C551 C535 1.429 . S
C551 C547 1.429 . S
C551 C552 1.523 . S
C552 C536 1.368 . S
C552 C548 1.368 . S
C552 C551 1.523 . S
H553 C528 0.950 . S
H554 C530 0.950 . S
H555 C531 0.949 . S
H556 C533 0.950 . S
H557 C535 0.950 . S
C558 C559 1.349 . S
C558 C560 1.327 . S
C558 H583 0.950 . S
C559 C558 1.349 . S
C559 C575 1.349 . S
C560 C558 1.327 . S
C560 C579 1.429 . S
C560 H584 0.950 . S
C561 C578 1.574 . S
C561 C580 1.368 . S
C561 H585 0.949 . S
H562 C566 0.949 . S
C563 C564 1.349 . S
C563 C565 1.327 . S
C563 H586 0.950 . S
C564 C563 1.349 . S
C564 C576 1.349 . S
C565 C563 1.327 . S
C565 C581 1.429 . S
C565 H587 0.950 . S
C566 H562 0.949 . S
C566 C574 1.574 . S
C566 C582 1.368 . S
H567 C575 0.950 . S
H568 C573 0.950 . S
H569 C574 0.949 . S
H570 C576 0.950 . S
H571 C577 0.950 . S
H572 C578 0.949 . S
C573 H568 0.950 . S
C573 C575 1.327 . S
C573 C579 1.429 . S
C574 C566 1.574 . S
C574 H569 0.949 . S
C574 C580 1.368 . S
C575 C559 1.349 . S
C575 H567 0.950 . S
C575 C573 1.327 . S
C576 C564 1.349 . S
C576 H570 0.950 . S
C576 C577 1.327 . S
C577 H571 0.950 . S
C577 C576 1.327 . S
C577 C581 1.429 . S
C578 C561 1.574 . S
C578 H572 0.949 . S
C578 C582 1.368 . S
C579 C560 1.429 . S
C579 C573 1.429 . S
C579 C580 1.523 . S
C580 C561 1.368 . S
C580 C574 1.368 . S
C580 C579 1.523 . S
C581 C565 1.429 . S
C581 C577 1.429 . S
C581 C582 1.523 . S
C582 C566 1.368 . S
C582 C578 1.368 . S
C582 C581 1.523 . S
H583 C558 0.950 . S
H584 C560 0.950 . S
H585 C561 0.949 . S
H586 C563 0.950 . S
H587 C565 0.950 . S
C588 C589 1.349 . S
C588 C590 1.327 . S
C588 H613 0.950 . S
C589 C588 1.349 . S
C589 C605 1.349 . S
C590 C588 1.327 . S
C590 C609 1.429 . S
C590 H614 0.950 . S
C591 C608 1.574 . S
C591 C610 1.368 . S
C591 H615 0.949 . S
H592 C596 0.949 . S
C593 C594 1.349 . S
C593 C595 1.327 . S
C593 H616 0.950 . S
C594 C593 1.349 . S
C594 C606 1.349 . S
C595 C593 1.327 . S
C595 C611 1.429 . S
C595 H617 0.950 . S
C596 H592 0.949 . S
C596 C604 1.574 . S
C596 C612 1.368 . S
H597 C605 0.950 . S
H598 C603 0.950 . S
H599 C604 0.949 . S
H600 C606 0.950 . S
H601 C607 0.950 . S
H602 C608 0.949 . S
C603 H598 0.950 . S
C603 C605 1.327 . S
C603 C609 1.429 . S
C604 C596 1.574 . S
C604 H599 0.949 . S
C604 C610 1.368 . S
C605 C589 1.349 . S
C605 H597 0.950 . S
C605 C603 1.327 . S
C606 C594 1.349 . S
C606 H600 0.950 . S
C606 C607 1.327 . S
C607 H601 0.950 . S
C607 C606 1.327 . S
C607 C611 1.429 . S
C608 C591 1.574 . S
C608 H602 0.949 . S
C608 C612 1.368 . S
C609 C590 1.429 . S
C609 C603 1.429 . S
C609 C610 1.523 . S
C610 C591 1.368 . S
C610 C604 1.368 . S
C610 C609 1.523 . S
C611 C595 1.429 . S
C611 C607 1.429 . S
C611 C612 1.523 . S
C612 C596 1.368 . S
C612 C608 1.368 . S
C612 C611 1.523 . S
H613 C588 0.950 . S
H614 C590 0.950 . S
H615 C591 0.949 . S
H616 C593 0.950 . S
H617 C595 0.950 . S
C618 C619 1.349 . S
C618 C620 1.327 . S
C618 H643 0.950 . S
C619 C618 1.349 . S
C619 C635 1.349 . S
C620 C618 1.327 . S
C620 C639 1.429 . S
C620 H644 0.950 . S
C621 C638 1.574 . S
C621 C640 1.368 . S
C621 H645 0.949 . S
H622 C626 0.949 . S
C623 C624 1.349 . S
C623 C625 1.327 . S
C623 H646 0.950 . S
C624 C623 1.349 . S
C624 C636 1.349 . S
C625 C623 1.327 . S
C625 C641 1.429 . S
C625 H647 0.950 . S
C626 H622 0.949 . S
C626 C634 1.574 . S
C626 C642 1.368 . S
H627 C635 0.950 . S
H628 C633 0.950 . S
H629 C634 0.949 . S
H630 C636 0.950 . S
H631 C637 0.950 . S
H632 C638 0.949 . S
C633 H628 0.950 . S
C633 C635 1.327 . S
C633 C639 1.429 . S
C634 C626 1.574 . S
C634 H629 0.949 . S
C634 C640 1.368 . S
C635 C619 1.349 . S
C635 H627 0.950 . S
C635 C633 1.327 . S
C636 C624 1.349 . S
C636 H630 0.950 . S
C636 C637 1.327 . S
C637 H631 0.950 . S
C637 C636 1.327 . S
C637 C641 1.429 . S
C638 C621 1.574 . S
C638 H632 0.949 . S
C638 C642 1.368 . S
C639 C620 1.429 . S
C639 C633 1.429 . S
C639 C640 1.523 . S
C640 C621 1.368 . S
C640 C634 1.368 . S
C640 C639 1.523 . S
C641 C625 1.429 . S
C641 C637 1.429 . S
C641 C642 1.523 . S
C642 C626 1.368 . S
C642 C638 1.368 . S
C642 C641 1.523 . S
H643 C618 0.950 . S
H644 C620 0.950 . S
H645 C621 0.949 . S
H646 C623 0.950 . S
H647 C625 0.950 . S
C648 C649 1.349 . S
C648 C650 1.327 . S
C648 H673 0.950 . S
C649 C648 1.349 . S
C649 C665 1.349 . S
C650 C648 1.327 . S
C650 C669 1.429 . S
C650 H674 0.950 . S
C651 C668 1.574 . S
C651 C670 1.368 . S
C651 H675 0.949 . S
H652 C656 0.949 . S
C653 C654 1.349 . S
C653 C655 1.327 . S
C653 H676 0.950 . S
C654 C653 1.349 . S
C654 C666 1.349 . S
C655 C653 1.327 . S
C655 C671 1.429 . S
C655 H677 0.950 . S
C656 H652 0.949 . S
C656 C664 1.574 . S
C656 C672 1.368 . S
H657 C665 0.950 . S
H658 C663 0.950 . S
H659 C664 0.949 . S
H660 C666 0.950 . S
H661 C667 0.950 . S
H662 C668 0.949 . S
C663 H658 0.950 . S
C663 C665 1.327 . S
C663 C669 1.429 . S
C664 C656 1.574 . S
C664 H659 0.949 . S
C664 C670 1.368 . S
C665 C649 1.349 . S
C665 H657 0.950 . S
C665 C663 1.327 . S
C666 C654 1.349 . S
C666 H660 0.950 . S
C666 C667 1.327 . S
C667 H661 0.950 . S
C667 C666 1.327 . S
C667 C671 1.429 . S
C668 C651 1.574 . S
C668 H662 0.949 . S
C668 C672 1.368 . S
C669 C650 1.429 . S
C669 C663 1.429 . S
C669 C670 1.523 . S
C670 C651 1.368 . S
C670 C664 1.368 . S
C670 C669 1.523 . S
C671 C655 1.429 . S
C671 C667 1.429 . S
C671 C672 1.523 . S
C672 C656 1.368 . S
C672 C668 1.368 . S
C672 C671 1.523 . S
H673 C648 0.950 . S
H674 C650 0.950 . S
H675 C651 0.949 . S
H676 C653 0.950 . S
H677 C655 0.950 . S
C678 C679 1.349 . S
C678 C680 1.327 . S
C678 H703 0.950 . S
C679 C678 1.349 . S
C679 C695 1.349 . S
C680 C678 1.327 . S
C680 C699 1.429 . S
C680 H704 0.950 . S
C681 C698 1.574 . S
C681 C700 1.368 . S
C681 H705 0.949 . S
H682 C686 0.949 . S
C683 C684 1.349 . S
C683 C685 1.327 . S
C683 H706 0.950 . S
C684 C683 1.349 . S
C684 C696 1.349 . S
C685 C683 1.327 . S
C685 C701 1.429 . S
C685 H707 0.950 . S
C686 H682 0.949 . S
C686 C694 1.574 . S
C686 C702 1.368 . S
H687 C695 0.950 . S
H688 C693 0.950 . S
H689 C694 0.949 . S
H690 C696 0.950 . S
H691 C697 0.950 . S
H692 C698 0.949 . S
C693 H688 0.950 . S
C693 C695 1.327 . S
C693 C699 1.429 . S
C694 C686 1.574 . S
C694 H689 0.949 . S
C694 C700 1.368 . S
C695 C679 1.349 . S
C695 H687 0.950 . S
C695 C693 1.327 . S
C696 C684 1.349 . S
C696 H690 0.950 . S
C696 C697 1.327 . S
C697 H691 0.950 . S
C697 C696 1.327 . S
C697 C701 1.429 . S
C698 C681 1.574 . S
C698 H692 0.949 . S
C698 C702 1.368 . S
C699 C680 1.429 . S
C699 C693 1.429 . S
C699 C700 1.523 . S
C700 C681 1.368 . S
C700 C694 1.368 . S
C700 C699 1.523 . S
C701 C685 1.429 . S
C701 C697 1.429 . S
C701 C702 1.523 . S
C702 C686 1.368 . S
C702 C698 1.368 . S
C702 C701 1.523 . S
H703 C678 0.950 . S
H704 C680 0.950 . S
H705 C681 0.949 . S
H706 C683 0.950 . S
H707 C685 0.950 . S
C708 C709 1.349 . S
C708 C710 1.327 . S
C708 H733 0.950 . S
C709 C708 1.349 . S
C709 C725 1.349 . S
C710 C708 1.327 . S
C710 C729 1.429 . S
C710 H734 0.950 . S
C711 C728 1.574 . S
C711 C730 1.368 . S
C711 H735 0.949 . S
H712 C716 0.949 . S
C713 C714 1.349 . S
C713 C715 1.327 . S
C713 H736 0.950 . S
C714 C713 1.349 . S
C714 C726 1.349 . S
C715 C713 1.327 . S
C715 C731 1.429 . S
C715 H737 0.950 . S
C716 H712 0.949 . S
C716 C724 1.574 . S
C716 C732 1.368 . S
H717 C725 0.950 . S
H718 C723 0.950 . S
H719 C724 0.949 . S
H720 C726 0.950 . S
H721 C727 0.950 . S
H722 C728 0.949 . S
C723 H718 0.950 . S
C723 C725 1.327 . S
C723 C729 1.429 . S
C724 C716 1.574 . S
C724 H719 0.949 . S
C724 C730 1.368 . S
C725 C709 1.349 . S
C725 H717 0.950 . S
C725 C723 1.327 . S
C726 C714 1.349 . S
C726 H720 0.950 . S
C726 C727 1.327 . S
C727 H721 0.950 . S
C727 C726 1.327 . S
C727 C731 1.429 . S
C728 C711 1.574 . S
C728 H722 0.949 . S
C728 C732 1.368 . S
C729 C710 1.429 . S
C729 C723 1.429 . S
C729 C730 1.523 . S
C730 C711 1.368 . S
C730 C724 1.368 . S
C730 C729 1.523 . S
C731 C715 1.429 . S
C731 C727 1.429 . S
C731 C732 1.523 . S
C732 C716 1.368 . S
C732 C728 1.368 . S
C732 C731 1.523 . S
H733 C708 0.950 . S
H734 C710 0.950 . S
H735 C711 0.949 . S
H736 C713 0.950 . S
H737 C715 0.950 . S
C738 C739 1.349 . S
C738 C740 1.327 . S
C738 H763 0.950 . S
C739 C738 1.349 . S
C739 C755 1.349 . S
C740 C738 1.327 . S
C740 C759 1.429 . S
C740 H764 0.950 . S
C741 C758 1.574 . S
C741 C760 1.368 . S
C741 H765 0.949 . S
H742 C746 0.949 . S
C743 C744 1.349 . S
C743 C745 1.327 . S
C743 H766 0.950 . S
C744 C743 1.349 . S
C744 C756 1.349 . S
C745 C743 1.327 . S
C745 C761 1.429 . S
C745 H767 0.950 . S
C746 H742 0.949 . S
C746 C754 1.574 . S
C746 C762 1.368 . S
H747 C755 0.950 . S
H748 C753 0.950 . S
H749 C754 0.949 . S
H750 C756 0.950 . S
H751 C757 0.950 . S
H752 C758 0.949 . S
C753 H748 0.950 . S
C753 C755 1.327 . S
C753 C759 1.429 . S
C754 C746 1.574 . S
C754 H749 0.949 . S
C754 C760 1.368 . S
C755 C739 1.349 . S
C755 H747 0.950 . S
C755 C753 1.327 . S
C756 C744 1.349 . S
C756 H750 0.950 . S
C756 C757 1.327 . S
C757 H751 0.950 . S
C757 C756 1.327 . S
C757 C761 1.429 . S
C758 C741 1.574 . S
C758 H752 0.949 . S
C758 C762 1.368 . S
C759 C740 1.429 . S
C759 C753 1.429 . S
C759 C760 1.523 . S
C760 C741 1.368 . S
C760 C754 1.368 . S
C760 C759 1.523 . S
C761 C745 1.429 . S
C761 C757 1.429 . S
C761 C762 1.523 . S
C762 C746 1.368 . S
C762 C758 1.368 . S
C762 C761 1.523 . S
H763 C738 0.950 . S
H764 C740 0.950 . S
H765 C741 0.949 . S
H766 C743 0.950 . S
H767 C745 0.950 . S
C768 C769 1.349 . S
C768 C770 1.327 . S
C768 H793 0.950 . S
C769 C768 1.349 . S
C769 C785 1.349 . S
C770 C768 1.327 . S
C770 C789 1.429 . S
C770 H794 0.950 . S
C771 C788 1.574 . S
C771 C790 1.368 . S
C771 H795 0.949 . S
H772 C776 0.949 . S
C773 C774 1.349 . S
C773 C775 1.327 . S
C773 H796 0.950 . S
C774 C773 1.349 . S
C774 C786 1.349 . S
C775 C773 1.327 . S
C775 C791 1.429 . S
C775 H797 0.950 . S
C776 H772 0.949 . S
C776 C784 1.574 . S
C776 C792 1.368 . S
H777 C785 0.950 . S
H778 C783 0.950 . S
H779 C784 0.949 . S
H780 C786 0.950 . S
H781 C787 0.950 . S
H782 C788 0.949 . S
C783 H778 0.950 . S
C783 C785 1.327 . S
C783 C789 1.429 . S
C784 C776 1.574 . S
C784 H779 0.949 . S
C784 C790 1.368 . S
C785 C769 1.349 . S
C785 H777 0.950 . S
C785 C783 1.327 . S
C786 C774 1.349 . S
C786 H780 0.950 . S
C786 C787 1.327 . S
C787 H781 0.950 . S
C787 C786 1.327 . S
C787 C791 1.429 . S
C788 C771 1.574 . S
C788 H782 0.949 . S
C788 C792 1.368 . S
C789 C770 1.429 . S
C789 C783 1.429 . S
C789 C790 1.523 . S
C790 C771 1.368 . S
C790 C784 1.368 . S
C790 C789 1.523 . S
C791 C775 1.429 . S
C791 C787 1.429 . S
C791 C792 1.523 . S
C792 C776 1.368 . S
C792 C788 1.368 . S
C792 C791 1.523 . S
H793 C768 0.950 . S
H794 C770 0.950 . S
H795 C771 0.949 . S
H796 C773 0.950 . S
H797 C775 0.950 . S
C798 C799 1.349 . S
C798 C800 1.327 . S
C798 H823 0.950 . S
C799 C798 1.349 . S
C799 C815 1.349 . S
C800 C798 1.327 . S
C800 C819 1.429 . S
C800 H824 0.950 . S
C801 C818 1.574 . S
C801 C820 1.368 . S
C801 H825 0.949 . S
H802 C806 0.949 . S
C803 C804 1.349 . S
C803 C805 1.327 . S
C803 H826 0.950 . S
C804 C803 1.349 . S
C804 C816 1.349 . S
C805 C803 1.327 . S
C805 C821 1.429 . S
C805 H827 0.950 . S
C806 H802 0.949 . S
C806 C814 1.574 . S
C806 C822 1.368 . S
H807 C815 0.950 . S
H808 C813 0.950 . S
H809 C814 0.949 . S
H810 C816 0.950 . S
H811 C817 0.950 . S
H812 C818 0.949 . S
C813 H808 0.950 . S
C813 C815 1.327 . S
C813 C819 1.429 . S
C814 C806 1.574 . S
C814 H809 0.949 . S
C814 C820 1.368 . S
C815 C799 1.349 . S
C815 H807 0.950 . S
C815 C813 1.327 . S
C816 C804 1.349 . S
C816 H810 0.950 . S
C816 C817 1.327 . S
C817 H811 0.950 . S
C817 C816 1.327 . S
C817 C821 1.429 . S
C818 C801 1.574 . S
C818 H812 0.949 . S
C818 C822 1.368 . S
C819 C800 1.429 . S
C819 C813 1.429 . S
C819 C820 1.523 . S
C820 C801 1.368 . S
C820 C814 1.368 . S
C820 C819 1.523 . S
C821 C805 1.429 . S
C821 C817 1.429 . S
C821 C822 1.523 . S
C822 C806 1.368 . S
C822 C818 1.368 . S
C822 C821 1.523 . S
H823 C798 0.950 . S
H824 C800 0.950 . S
H825 C801 0.949 . S
H826 C803 0.950 . S
H827 C805 0.950 . S
C828 C829 1.349 . S
C828 C830 1.327 . S
C828 H853 0.950 . S
C829 C828 1.349 . S
C829 C845 1.349 . S
C830 C828 1.327 . S
C830 C849 1.429 . S
C830 H854 0.950 . S
C831 C848 1.574 . S
C831 C850 1.368 . S
C831 H855 0.949 . S
H832 C836 0.949 . S
C833 C834 1.349 . S
C833 C835 1.327 . S
C833 H856 0.950 . S
C834 C833 1.349 . S
C834 C846 1.349 . S
C835 C833 1.327 . S
C835 C851 1.429 . S
C835 H857 0.950 . S
C836 H832 0.949 . S
C836 C844 1.574 . S
C836 C852 1.368 . S
H837 C845 0.950 . S
H838 C843 0.950 . S
H839 C844 0.949 . S
H840 C846 0.950 . S
H841 C847 0.950 . S
H842 C848 0.949 . S
C843 H838 0.950 . S
C843 C845 1.327 . S
C843 C849 1.429 . S
C844 C836 1.574 . S
C844 H839 0.949 . S
C844 C850 1.368 . S
C845 C829 1.349 . S
C845 H837 0.950 . S
C845 C843 1.327 . S
C846 C834 1.349 . S
C846 H840 0.950 . S
C846 C847 1.327 . S
C847 H841 0.950 . S
C847 C846 1.327 . S
C847 C851 1.429 . S
C848 C831 1.574 . S
C848 H842 0.949 . S
C848 C852 1.368 . S
C849 C830 1.429 . S
C849 C843 1.429 . S
C849 C850 1.523 . S
C850 C831 1.368 . S
C850 C844 1.368 . S
C850 C849 1.523 . S
C851 C835 1.429 . S
C851 C847 1.429 . S
C851 C852 1.523 . S
C852 C836 1.368 . S
C852 C848 1.368 . S
C852 C851 1.523 . S
H853 C828 0.950 . S
H854 C830 0.950 . S
H855 C831 0.949 . S
H856 C833 0.950 . S
H857 C835 0.950 . S
C858 C859 1.349 . S
C858 C860 1.327 . S
C858 H883 0.950 . S
C859 C858 1.349 . S
C859 C875 1.349 . S
C860 C858 1.327 . S
C860 C879 1.429 . S
C860 H884 0.950 . S
C861 C878 1.574 . S
C861 C880 1.368 . S
C861 H885 0.949 . S
H862 C866 0.949 . S
C863 C864 1.349 . S
C863 C865 1.327 . S
C863 H886 0.950 . S
C864 C863 1.349 . S
C864 C876 1.349 . S
C865 C863 1.327 . S
C865 C881 1.429 . S
C865 H887 0.950 . S
C866 H862 0.949 . S
C866 C874 1.574 . S
C866 C882 1.368 . S
H867 C875 0.950 . S
H868 C873 0.950 . S
H869 C874 0.949 . S
H870 C876 0.950 . S
H871 C877 0.950 . S
H872 C878 0.949 . S
C873 H868 0.950 . S
C873 C875 1.327 . S
C873 C879 1.429 . S
C874 C866 1.574 . S
C874 H869 0.949 . S
C874 C880 1.368 . S
C875 C859 1.349 . S
C875 H867 0.950 . S
C875 C873 1.327 . S
C876 C864 1.349 . S
C876 H870 0.950 . S
C876 C877 1.327 . S
C877 H871 0.950 . S
C877 C876 1.327 . S
C877 C881 1.429 . S
C878 C861 1.574 . S
C878 H872 0.949 . S
C878 C882 1.368 . S
C879 C860 1.429 . S
C879 C873 1.429 . S
C879 C880 1.523 . S
C880 C861 1.368 . S
C880 C874 1.368 . S
C880 C879 1.523 . S
C881 C865 1.429 . S
C881 C877 1.429 . S
C881 C882 1.523 . S
C882 C866 1.368 . S
C882 C878 1.368 . S
C882 C881 1.523 . S
H883 C858 0.950 . S
H884 C860 0.950 . S
H885 C861 0.949 . S
H886 C863 0.950 . S
H887 C865 0.950 . S
C888 C889 1.349 1_556 S
C888 C890 1.327 . S
C888 H913 0.950 . S
C889 C888 1.349 1_554 S
C889 C905 1.349 . S
C890 C888 1.327 . S
C890 C909 1.429 1_556 S
C890 H914 0.950 . S
C891 C908 1.574 . S
C891 C910 1.368 . S
C891 H915 0.949 . S
H892 C896 0.949 . S
C893 C894 1.349 . S
C893 C895 1.327 . S
C893 H916 0.950 . S
C894 C893 1.349 . S
C894 C906 1.349 1_554 S
C895 C893 1.327 . S
C895 C911 1.429 . S
C895 H917 0.950 . S
C896 H892 0.949 . S
C896 C904 1.574 . S
C896 C912 1.368 1_556 S
H897 C905 0.950 . S
H898 C903 0.950 . S
H899 C904 0.949 . S
H900 C906 0.950 . S
H901 C907 0.950 . S
H902 C908 0.949 . S
C903 H898 0.950 . S
C903 C905 1.327 . S
C903 C909 1.429 . S
C904 C896 1.574 . S
C904 H899 0.949 . S
C904 C910 1.368 1_556 S
C905 C889 1.349 . S
C905 H897 0.950 . S
C905 C903 1.327 . S
C906 C894 1.349 1_556 S
C906 H900 0.950 . S
C906 C907 1.327 . S
C907 H901 0.950 . S
C907 C906 1.327 . S
C907 C911 1.429 1_556 S
C908 C891 1.574 . S
C908 H902 0.949 . S
C908 C912 1.368 . S
C909 C890 1.429 1_554 S
C909 C903 1.429 . S
C909 C910 1.523 . S
C910 C891 1.368 . S
C910 C904 1.368 1_554 S
C910 C909 1.523 . S
C911 C895 1.429 . S
C911 C907 1.429 1_554 S
C911 C912 1.523 . S
C912 C896 1.368 1_554 S
C912 C908 1.368 . S
C912 C911 1.523 . S
H913 C888 0.950 . S
H914 C890 0.950 . S
H915 C891 0.949 . S
H916 C893 0.950 . S
H917 C895 0.950 . S
C918 C919 1.349 . S
C918 C920 1.327 . S
C918 H943 0.950 . S
C919 C918 1.349 . S
C919 C935 1.317 1_554 S
C920 C918 1.327 . S
C920 C939 1.429 . S
C920 H944 0.950 . S
C921 C938 1.574 . S
C921 C940 1.368 1_556 S
C921 H945 0.949 . S
H922 C926 0.949 . S
C923 C924 1.349 1_556 S
C923 C925 1.327 . S
C923 H946 0.950 . S
C924 C923 1.349 1_554 S
C924 C936 1.349 . S
C925 C923 1.327 . S
C925 C941 1.429 1_556 S
C925 H947 0.950 . S
C926 H922 0.949 . S
C926 C934 1.574 . S
C926 C942 1.368 . S
H927 C935 0.981 . S
H928 C933 0.950 . S
H929 C934 0.949 . S
H930 C936 0.950 . S
H931 C937 0.950 . S
H932 C938 0.949 . S
C933 H928 0.950 . S
C933 C935 1.329 . S
C933 C939 1.429 1_556 S
C934 C926 1.574 . S
C934 H929 0.949 . S
C934 C940 1.368 . S
C935 C919 1.317 1_556 S
C935 H927 0.981 . S
C935 C933 1.329 . S
C936 C924 1.349 . S
C936 H930 0.950 . S
C936 C937 1.327 . S
C937 H931 0.950 . S
C937 C936 1.327 . S
C937 C941 1.429 . S
C938 C921 1.574 . S
C938 H932 0.949 . S
C938 C942 1.368 1_556 S
C939 C920 1.429 . S
C939 C933 1.429 1_554 S
C939 C940 1.523 . S
C940 C921 1.368 1_554 S
C940 C934 1.368 . S
C940 C939 1.523 . S
C941 C925 1.429 1_554 S
C941 C937 1.429 . S
C941 C942 1.523 . S
C942 C926 1.368 . S
C942 C938 1.368 1_554 S
C942 C941 1.523 . S
H943 C918 0.950 . S
H944 C920 0.950 . S
H945 C921 0.949 . S
H946 C923 0.950 . S
H947 C925 0.950 . S
C948 C949 1.349 . S
C948 C950 1.327 . S
C948 H973 0.950 1_554 S
C949 C948 1.349 . S
C949 C965 1.349 . S
C950 C948 1.327 . S
C950 C969 1.429 . S
C950 H974 0.950 1_554 S
C951 C968 1.574 . S
C951 C970 1.368 . S
C951 H975 0.949 . S
H952 C956 0.949 . S
C953 C954 1.349 . S
C953 C955 1.327 . S
C953 H976 0.950 . S
C954 C953 1.349 . S
C954 C966 1.349 1_554 S
C955 C953 1.327 . S
C955 C971 1.429 . S
C955 H977 0.950 . S
C956 H952 0.949 . S
C956 C964 1.574 . S
C956 C972 1.368 1_556 S
H957 C965 0.950 . S
H958 C963 0.950 . S
H959 C964 0.949 . S
H960 C966 0.950 . S
H961 C967 0.950 . S
H962 C968 0.949 . S
C963 H958 0.950 . S
C963 C965 1.327 . S
C963 C969 1.429 . S
C964 C956 1.574 . S
C964 H959 0.949 . S
C964 C970 1.368 1_556 S
C965 C949 1.349 . S
C965 H957 0.950 . S
C965 C963 1.327 . S
C966 C954 1.349 1_556 S
C966 H960 0.950 . S
C966 C967 1.327 . S
C967 H961 0.950 . S
C967 C966 1.327 . S
C967 C971 1.429 1_556 S
C968 C951 1.574 . S
C968 H962 0.949 . S
C968 C972 1.368 . S
C969 C950 1.429 . S
C969 C963 1.429 . S
C969 C970 1.523 . S
C970 C951 1.368 . S
C970 C964 1.368 1_554 S
C970 C969 1.523 . S
C971 C955 1.429 . S
C971 C967 1.429 1_554 S
C971 C972 1.523 . S
C972 C956 1.368 1_554 S
C972 C968 1.368 . S
C972 C971 1.523 . S
H973 C948 0.950 1_556 S
H974 C950 0.950 1_556 S
H975 C951 0.949 . S
H976 C953 0.950 . S
H977 C955 0.950 . S
C978 C979 1.349 1_556 S
C978 C980 1.327 . S
C978 H1003 0.950 . S
C979 C978 1.349 1_554 S
C979 C995 1.349 . S
C980 C978 1.327 . S
C980 C999 1.429 1_556 S
C980 H1004 0.950 . S
C981 C998 1.574 . S
C981 C1000 1.368 . S
C981 H1005 0.949 . S
H982 C986 0.949 . S
C983 C984 1.349 . S
C983 C985 1.327 . S
C983 H1006 0.950 . S
C984 C983 1.349 . S
C984 C996 1.349 1_554 S
C985 C983 1.327 . S
C985 C1001 1.429 . S
C985 H1007 0.950 . S
C986 H982 0.949 . S
C986 C994 1.574 . S
C986 C1002 1.368 1_556 S
H987 C995 0.950 . S
H988 C993 0.950 . S
H989 C994 0.949 . S
H990 C996 0.950 . S
H991 C997 0.950 . S
H992 C998 0.949 . S
C993 H988 0.950 . S
C993 C995 1.327 . S
C993 C999 1.429 . S
C994 C986 1.574 . S
C994 H989 0.949 . S
C994 C1000 1.368 1_556 S
C995 C979 1.349 . S
C995 H987 0.950 . S
C995 C993 1.327 . S
C996 C984 1.349 1_556 S
C996 H990 0.950 . S
C996 C997 1.327 . S
C997 H991 0.950 . S
C997 C996 1.327 . S
C997 C1001 1.429 1_556 S
C998 C981 1.574 . S
C998 H992 0.949 . S
C998 C1002 1.368 . S
C999 C980 1.429 1_554 S
C999 C993 1.429 . S
C999 C1000 1.523 . S
C1000 C981 1.368 . S
C1000 C994 1.368 1_554 S
C1000 C999 1.523 . S
C1001 C985 1.429 . S
C1001 C997 1.429 1_554 S
C1001 C1002 1.523 . S
C1002 C986 1.368 1_554 S
C1002 C998 1.368 . S
C1002 C1001 1.523 . S
H1003 C978 0.950 . S
H1004 C980 0.950 . S
H1005 C981 0.949 . S
H1006 C983 0.950 . S
H1007 C985 0.950 . S
C1008 C1009 1.321 1_655 S
C1008 C1010 1.327 . S
C1008 H1033 0.950 . S
C1009 C1008 1.321 1_455 S
C1009 C1025 1.380 . S
C1010 C1008 1.327 . S
C1010 C1029 1.429 1_655 S
C1010 H1034 0.950 . S
C1011 C1028 1.574 . S
C1011 C1030 1.368 . S
C1011 H1035 0.949 . S
H1012 C1016 0.949 . S
C1013 C1014 1.349 . S
C1013 C1015 1.327 . S
C1013 H1036 0.950 . S
C1014 C1013 1.349 . S
C1014 C1026 1.349 1_455 S
C1015 C1013 1.327 . S
C1015 C1031 1.429 . S
C1015 H1037 0.950 . S
C1016 H1012 0.949 . S
C1016 C1024 1.574 . S
C1016 C1032 1.368 1_655 S
H1017 C1025 0.950 . S
H1018 C1023 0.950 . S
H1019 C1024 0.949 . S
H1020 C1026 0.950 . S
H1021 C1027 0.950 . S
H1022 C1028 0.949 . S
C1023 H1018 0.950 . S
C1023 C1025 1.327 . S
C1023 C1029 1.429 . S
C1024 C1016 1.574 . S
C1024 H1019 0.949 . S
C1024 C1030 1.368 1_655 S
C1025 C1009 1.380 . S
C1025 H1017 0.950 . S
C1025 C1023 1.327 . S
C1026 C1014 1.349 1_655 S
C1026 H1020 0.950 . S
C1026 C1027 1.327 . S
C1027 H1021 0.950 . S
C1027 C1026 1.327 . S
C1027 C1031 1.429 1_655 S
C1028 C1011 1.574 . S
C1028 H1022 0.949 . S
C1028 C1032 1.368 . S
C1029 C1010 1.429 1_455 S
C1029 C1023 1.429 . S
C1029 C1030 1.523 . S
C1030 C1011 1.368 . S
C1030 C1024 1.368 1_455 S
C1030 C1029 1.523 . S
C1031 C1015 1.429 . S
C1031 C1027 1.429 1_455 S
C1031 C1032 1.523 . S
C1032 C1016 1.368 1_455 S
C1032 C1028 1.368 . S
C1032 C1031 1.523 . S
H1033 C1008 0.950 . S
H1034 C1010 0.950 . S
H1035 C1011 0.949 . S
H1036 C1013 0.950 . S
H1037 C1015 0.950 . S
C1038 C1039 1.349 . S
C1038 C1040 1.327 . S
C1038 H1063 0.950 . S
C1039 C1038 1.349 . S
C1039 C1055 1.349 1_545 S
C1040 C1038 1.327 . S
C1040 C1059 1.429 . S
C1040 H1064 0.950 . S
C1041 C1058 1.574 . S
C1041 C1060 1.368 1_565 S
C1041 H1065 0.949 . S
H1042 C1046 0.949 . S
C1043 C1044 1.349 . S
C1043 C1045 1.328 . S
C1043 H1066 0.950 1_545 S
C1044 C1043 1.349 . S
C1044 C1056 1.349 . S
C1045 C1043 1.328 . S
C1045 C1061 1.433 . S
C1045 H1067 0.944 1_545 S
C1046 H1042 0.949 . S
C1046 C1054 1.574 . S
C1046 C1062 1.368 . S
H1047 C1055 0.950 . S
H1048 C1053 0.950 . S
H1049 C1054 0.949 . S
H1050 C1056 0.950 . S
H1051 C1057 0.950 . S
H1052 C1058 0.949 . S
C1053 H1048 0.950 . S
C1053 C1055 1.327 . S
C1053 C1059 1.429 1_565 S
C1054 C1046 1.574 . S
C1054 H1049 0.949 . S
C1054 C1060 1.368 . S
C1055 C1039 1.349 1_565 S
C1055 H1047 0.950 . S
C1055 C1053 1.327 . S
C1056 C1044 1.349 . S
C1056 H1050 0.950 . S
C1056 C1057 1.327 . S
C1057 H1051 0.950 . S
C1057 C1056 1.327 . S
C1057 C1061 1.429 . S
C1058 C1041 1.574 . S
C1058 H1052 0.949 . S
C1058 C1062 1.368 1_565 S
C1059 C1040 1.429 . S
C1059 C1053 1.429 1_545 S
C1059 C1060 1.523 . S
C1060 C1041 1.368 1_545 S
C1060 C1054 1.368 . S
C1060 C1059 1.523 . S
C1061 C1045 1.433 . S
C1061 C1057 1.429 . S
C1061 C1062 1.523 . S
C1062 C1046 1.368 . S
C1062 C1058 1.368 1_545 S
C1062 C1061 1.523 . S
H1063 C1038 0.950 . S
H1064 C1040 0.950 . S
H1065 C1041 0.949 . S
H1066 C1043 0.950 1_565 S
H1067 C1045 0.944 1_565 S
C1068 C1069 1.349 . S
C1068 C1070 1.327 . S
C1068 H1093 0.950 1_455 S
C1069 C1068 1.349 . S
C1069 C1085 1.349 . S
C1070 C1068 1.327 . S
C1070 C1089 1.429 . S
C1070 H1094 0.950 1_455 S
C1071 C1088 1.574 . S
C1071 C1090 1.368 . S
C1071 H1095 0.949 . S
H1072 C1076 0.949 1_655 S
C1073 C1074 1.349 . S
C1073 C1075 1.327 . S
C1073 H1096 0.950 . S
C1074 C1073 1.349 . S
C1074 C1086 1.367 . S
C1075 C1073 1.327 . S
C1075 C1091 1.429 . S
C1075 H1097 0.950 . S
C1076 H1072 0.949 1_455 S
C1076 C1084 1.574 . S
C1076 C1092 1.368 . S
H1077 C1085 0.950 . S
H1078 C1083 0.950 . S
H1079 C1084 0.949 1_655 S
H1080 C1086 0.931 1_655 S
H1081 C1087 0.950 1_655 S
H1082 C1088 0.949 . S
C1083 H1078 0.950 . S
C1083 C1085 1.327 . S
C1083 C1089 1.429 . S
C1084 C1076 1.574 . S
C1084 H1079 0.949 1_455 S
C1084 C1090 1.368 . S
C1085 C1069 1.349 . S
C1085 H1077 0.950 . S
C1085 C1083 1.327 . S
C1086 C1074 1.367 . S
C1086 H1080 0.931 1_455 S
C1086 C1087 1.328 . S
C1087 H1081 0.950 1_455 S
C1087 C1086 1.328 . S
C1087 C1091 1.429 . S
C1088 C1071 1.574 . S
C1088 H1082 0.949 . S
C1088 C1092 1.368 . S
C1089 C1070 1.429 . S
C1089 C1083 1.429 . S
C1089 C1090 1.523 . S
C1090 C1071 1.368 . S
C1090 C1084 1.368 . S
C1090 C1089 1.523 . S
C1091 C1075 1.429 . S
C1091 C1087 1.429 . S
C1091 C1092 1.523 . S
C1092 C1076 1.368 . S
C1092 C1088 1.368 . S
C1092 C1091 1.523 . S
H1093 C1068 0.950 1_655 S
H1094 C1070 0.950 1_655 S
H1095 C1071 0.949 . S
H1096 C1073 0.950 . S
H1097 C1075 0.950 . S
C1098 C1099 1.349 . S
C1098 C1100 1.327 . S
C1098 H1123 0.950 . S
C1099 C1098 1.349 . S
C1099 C1115 1.349 . S
C1100 C1098 1.327 . S
C1100 C1119 1.429 . S
C1100 H1124 0.950 . S
C1101 C1118 1.574 . S
C1101 C1120 1.368 . S
C1101 H1125 0.961 . S
H1102 C1106 0.949 . S
C1103 C1104 1.349 . S
C1103 C1105 1.327 . S
C1103 H1126 0.950 1_545 S
C1104 C1103 1.349 . S
C1104 C1116 1.349 . S
C1105 C1103 1.327 . S
C1105 C1121 1.429 . S
C1105 H1127 0.950 1_545 S
C1106 H1102 0.949 . S
C1106 C1114 1.574 . S
C1106 C1122 1.368 . S
H1107 C1115 0.950 . S
H1108 C1113 0.950 . S
H1109 C1114 0.949 . S
H1110 C1116 0.950 . S
H1111 C1117 0.950 . S
H1112 C1118 0.949 1_565 S
C1113 H1108 0.950 . S
C1113 C1115 1.327 . S
C1113 C1119 1.429 . S
C1114 C1106 1.574 . S
C1114 H1109 0.949 . S
C1114 C1120 1.368 . S
C1115 C1099 1.349 . S
C1115 H1107 0.950 . S
C1115 C1113 1.327 . S
C1116 C1104 1.349 . S
C1116 H1110 0.950 . S
C1116 C1117 1.327 . S
C1117 H1111 0.950 . S
C1117 C1116 1.327 . S
C1117 C1121 1.429 . S
C1118 C1101 1.574 . S
C1118 H1112 0.949 1_545 S
C1118 C1122 1.368 . S
C1119 C1100 1.429 . S
C1119 C1113 1.429 . S
C1119 C1120 1.523 . S
C1120 C1101 1.368 . S
C1120 C1114 1.368 . S
C1120 C1119 1.523 . S
C1121 C1105 1.429 . S
C1121 C1117 1.429 . S
C1121 C1122 1.523 . S
C1122 C1106 1.368 . S
C1122 C1118 1.368 . S
C1122 C1121 1.523 . S
H1123 C1098 0.950 . S
H1124 C1100 0.950 . S
H1125 C1101 0.961 . S
H1126 C1103 0.950 1_565 S
H1127 C1105 0.950 1_565 S
C1128 C1129 1.349 . S
C1128 C1130 1.327 . S
C1128 H1153 0.950 . S
C1129 C1128 1.349 . S
C1129 C1145 1.349 . S
C1130 C1128 1.327 . S
C1130 C1149 1.429 . S
C1130 H1154 0.950 . S
C1131 C1148 1.574 . S
C1131 C1150 1.368 . S
C1131 H1155 0.949 . S
H1132 C1136 0.949 . S
C1133 C1134 1.349 . S
C1133 C1135 1.327 . S
C1133 H1156 0.950 . S
C1134 C1133 1.349 . S
C1134 C1146 1.349 . S
C1135 C1133 1.327 . S
C1135 C1151 1.429 . S
C1135 H1157 0.950 . S
C1136 H1132 0.949 . S
C1136 C1144 1.574 . S
C1136 C1152 1.368 . S
H1137 C1145 0.950 . S
H1138 C1143 0.950 . S
H1139 C1144 0.949 . S
H1140 C1146 0.950 . S
H1141 C1147 0.950 . S
H1142 C1148 0.949 . S
C1143 H1138 0.950 . S
C1143 C1145 1.327 . S
C1143 C1149 1.429 . S
C1144 C1136 1.574 . S
C1144 H1139 0.949 . S
C1144 C1150 1.368 . S
C1145 C1129 1.349 . S
C1145 H1137 0.950 . S
C1145 C1143 1.327 . S
C1146 C1134 1.349 . S
C1146 H1140 0.950 . S
C1146 C1147 1.327 . S
C1147 H1141 0.950 . S
C1147 C1146 1.327 . S
C1147 C1151 1.429 . S
C1148 C1131 1.574 . S
C1148 H1142 0.949 . S
C1148 C1152 1.368 . S
C1149 C1130 1.429 . S
C1149 C1143 1.429 . S
C1149 C1150 1.523 . S
C1150 C1131 1.368 . S
C1150 C1144 1.368 . S
C1150 C1149 1.523 . S
C1151 C1135 1.429 . S
C1151 C1147 1.429 . S
C1151 C1152 1.523 . S
C1152 C1136 1.368 . S
C1152 C1148 1.368 . S
C1152 C1151 1.523 . S
H1153 C1128 0.950 . S
H1154 C1130 0.950 . S
H1155 C1131 0.949 . S
H1156 C1133 0.950 . S
H1157 C1135 0.950 . S
C1158 C1159 1.349 . S
C1158 C1160 1.327 . S
C1158 H1183 0.950 . S
C1159 C1158 1.349 . S
C1159 C1175 1.349 . S
C1160 C1158 1.327 . S
C1160 C1179 1.429 . S
C1160 H1184 0.950 . S
C1161 C1178 1.574 . S
C1161 C1180 1.368 . S
C1161 H1185 0.949 . S
H1162 C1166 0.949 . S
C1163 C1164 1.349 . S
C1163 C1165 1.327 . S
C1163 H1186 0.950 1_545 S
C1164 C1163 1.349 . S
C1164 C1176 1.349 . S
C1165 C1163 1.327 . S
C1165 C1181 1.429 . S
C1165 H1187 0.950 1_545 S
C1166 H1162 0.949 . S
C1166 C1174 1.574 . S
C1166 C1182 1.368 . S
H1167 C1175 0.950 . S
H1168 C1173 0.950 . S
H1169 C1174 0.949 . S
H1170 C1176 0.950 . S
H1171 C1177 0.950 . S
H1172 C1178 0.921 1_565 S
C1173 H1168 0.950 . S
C1173 C1175 1.327 . S
C1173 C1179 1.429 . S
C1174 C1166 1.574 . S
C1174 H1169 0.949 . S
C1174 C1180 1.368 . S
C1175 C1159 1.349 . S
C1175 H1167 0.950 . S
C1175 C1173 1.327 . S
C1176 C1164 1.349 . S
C1176 H1170 0.950 . S
C1176 C1177 1.327 . S
C1177 H1171 0.950 . S
C1177 C1176 1.327 . S
C1177 C1181 1.429 . S
C1178 C1161 1.574 . S
C1178 H1172 0.921 1_545 S
C1178 C1182 1.368 . S
C1179 C1160 1.429 . S
C1179 C1173 1.429 . S
C1179 C1180 1.523 . S
C1180 C1161 1.368 . S
C1180 C1174 1.368 . S
C1180 C1179 1.523 . S
C1181 C1165 1.429 . S
C1181 C1177 1.429 . S
C1181 C1182 1.523 . S
C1182 C1166 1.368 . S
C1182 C1178 1.368 . S
C1182 C1181 1.523 . S
H1183 C1158 0.950 . S
H1184 C1160 0.950 . S
H1185 C1161 0.949 . S
H1186 C1163 0.950 1_565 S
H1187 C1165 0.950 1_565 S
C1188 C1189 1.349 . S
C1188 C1190 1.327 . S
C1188 H1213 0.950 . S
C1189 C1188 1.349 . S
C1189 C1205 1.349 . S
C1190 C1188 1.327 . S
C1190 C1209 1.429 . S
C1190 H1214 0.950 . S
C1191 C1208 1.574 . S
C1191 C1210 1.368 . S
C1191 H1215 0.949 1_455 S
H1192 C1196 0.949 . S
C1193 C1194 1.349 . S
C1193 C1195 1.327 . S
C1193 H1216 0.976 . S
C1194 C1193 1.349 . S
C1194 C1206 1.349 . S
C1195 C1193 1.327 . S
C1195 C1211 1.429 . S
C1195 H1217 0.942 1_455 S
C1196 H1192 0.949 . S
C1196 C1204 1.574 . S
C1196 C1212 1.368 . S
H1197 C1205 0.950 1_655 S
H1198 C1203 0.950 1_655 S
H1199 C1204 0.949 . S
H1200 C1206 0.950 . S
H1201 C1207 0.950 . S
H1202 C1208 0.924 1_655 S
C1203 H1198 0.950 1_455 S
C1203 C1205 1.327 . S
C1203 C1209 1.429 . S
C1204 C1196 1.574 . S
C1204 H1199 0.949 . S
C1204 C1210 1.368 . S
C1205 C1189 1.349 . S
C1205 H1197 0.950 1_455 S
C1205 C1203 1.327 . S
C1206 C1194 1.349 . S
C1206 H1200 0.950 . S
C1206 C1207 1.327 . S
C1207 H1201 0.950 . S
C1207 C1206 1.327 . S
C1207 C1211 1.429 . S
C1208 C1191 1.574 . S
C1208 H1202 0.924 1_455 S
C1208 C1212 1.368 . S
C1209 C1190 1.429 . S
C1209 C1203 1.429 . S
C1209 C1210 1.523 . S
C1210 C1191 1.368 . S
C1210 C1204 1.368 . S
C1210 C1209 1.523 . S
C1211 C1195 1.429 . S
C1211 C1207 1.429 . S
C1211 C1212 1.523 . S
C1212 C1196 1.368 . S
C1212 C1208 1.368 . S
C1212 C1211 1.523 . S
H1213 C1188 0.950 . S
H1214 C1190 0.950 . S
H1215 C1191 0.949 1_655 S
H1216 C1193 0.976 . S
H1217 C1195 0.942 1_655 S
C1218 C1219 1.349 1_565 S
C1218 C1220 1.327 . S
C1218 H1243 0.950 . S
C1219 C1218 1.349 1_545 S
C1219 C1235 1.349 . S
C1220 C1218 1.327 . S
C1220 C1239 1.429 1_565 S
C1220 H1244 0.950 . S
C1221 C1238 1.574 . S
C1221 C1240 1.368 . S
C1221 H1245 0.949 . S
H1222 C1226 0.949 . S
C1223 C1224 1.349 . S
C1223 C1225 1.327 . S
C1223 H1246 0.950 . S
C1224 C1223 1.349 . S
C1224 C1236 1.349 1_545 S
C1225 C1223 1.327 . S
C1225 C1241 1.429 . S
C1225 H1247 0.950 . S
C1226 H1222 0.949 . S
C1226 C1234 1.574 . S
C1226 C1242 1.368 1_565 S
H1227 C1235 0.950 . S
H1228 C1233 0.950 . S
H1229 C1234 0.949 . S
H1230 C1236 0.950 . S
H1231 C1237 0.950 . S
H1232 C1238 0.949 . S
C1233 H1228 0.950 . S
C1233 C1235 1.327 . S
C1233 C1239 1.429 . S
C1234 C1226 1.574 . S
C1234 H1229 0.949 . S
C1234 C1240 1.368 1_565 S
C1235 C1219 1.349 . S
C1235 H1227 0.950 . S
C1235 C1233 1.327 . S
C1236 C1224 1.349 1_565 S
C1236 H1230 0.950 . S
C1236 C1237 1.327 . S
C1237 H1231 0.950 . S
C1237 C1236 1.327 . S
C1237 C1241 1.429 1_565 S
C1238 C1221 1.574 . S
C1238 H1232 0.949 . S
C1238 C1242 1.368 . S
C1239 C1220 1.429 1_545 S
C1239 C1233 1.429 . S
C1239 C1240 1.523 . S
C1240 C1221 1.368 . S
C1240 C1234 1.368 1_545 S
C1240 C1239 1.523 . S
C1241 C1225 1.429 . S
C1241 C1237 1.429 1_545 S
C1241 C1242 1.523 . S
C1242 C1226 1.368 1_545 S
C1242 C1238 1.368 . S
C1242 C1241 1.523 . S
H1243 C1218 0.950 . S
H1244 C1220 0.950 . S
H1245 C1221 0.949 . S
H1246 C1223 0.950 . S
H1247 C1225 0.950 . S
C1248 C1249 1.349 . S
C1248 C1250 1.327 . S
C1248 H1273 0.950 . S
C1249 C1248 1.349 . S
C1249 C1265 1.349 . S
C1250 C1248 1.327 . S
C1250 C1269 1.429 . S
C1250 H1274 0.950 . S
C1251 C1268 1.574 . S
C1251 C1270 1.368 . S
C1251 H1275 0.949 . S
H1252 C1256 0.949 . S
C1253 C1254 1.349 . S
C1253 C1255 1.327 . S
C1253 H1276 0.950 . S
C1254 C1253 1.349 . S
C1254 C1266 1.349 . S
C1255 C1253 1.327 . S
C1255 C1271 1.429 . S
C1255 H1277 0.950 . S
C1256 H1252 0.949 . S
C1256 C1264 1.574 . S
C1256 C1272 1.368 . S
H1257 C1265 0.950 . S
H1258 C1263 0.950 . S
H1259 C1264 0.949 . S
H1260 C1266 0.950 . S
H1261 C1267 0.950 . S
H1262 C1268 0.949 . S
C1263 H1258 0.950 . S
C1263 C1265 1.327 . S
C1263 C1269 1.429 . S
C1264 C1256 1.574 . S
C1264 H1259 0.949 . S
C1264 C1270 1.368 . S
C1265 C1249 1.349 . S
C1265 H1257 0.950 . S
C1265 C1263 1.327 . S
C1266 C1254 1.349 . S
C1266 H1260 0.950 . S
C1266 C1267 1.327 . S
C1267 H1261 0.950 . S
C1267 C1266 1.327 . S
C1267 C1271 1.429 . S
C1268 C1251 1.574 . S
C1268 H1262 0.949 . S
C1268 C1272 1.368 . S
C1269 C1250 1.429 . S
C1269 C1263 1.429 . S
C1269 C1270 1.523 . S
C1270 C1251 1.368 . S
C1270 C1264 1.368 . S
C1270 C1269 1.523 . S
C1271 C1255 1.429 . S
C1271 C1267 1.429 . S
C1271 C1272 1.523 . S
C1272 C1256 1.368 . S
C1272 C1268 1.368 . S
C1272 C1271 1.523 . S
H1273 C1248 0.950 . S
H1274 C1250 0.950 . S
H1275 C1251 0.949 . S
H1276 C1253 0.950 . S
H1277 C1255 0.950 . S
C1278 C1279 1.349 . S
C1278 C1280 1.327 . S
C1278 H1303 0.950 . S
C1279 C1278 1.349 . S
C1279 C1295 1.349 . S
C1280 C1278 1.327 . S
C1280 C1299 1.429 . S
C1280 H1304 0.950 . S
C1281 C1298 1.574 . S
C1281 C1300 1.368 . S
C1281 H1305 0.949 . S
H1282 C1286 0.949 . S
C1283 C1284 1.349 . S
C1283 C1285 1.327 . S
C1283 H1306 0.950 1_545 S
C1284 C1283 1.349 . S
C1284 C1296 1.349 . S
C1285 C1283 1.327 . S
C1285 C1301 1.429 . S
C1285 H1307 0.950 1_545 S
C1286 H1282 0.949 . S
C1286 C1294 1.574 . S
C1286 C1302 1.368 . S
H1287 C1295 0.950 . S
H1288 C1293 0.950 . S
H1289 C1294 0.949 . S
H1290 C1296 0.950 . S
H1291 C1297 0.950 . S
H1292 C1298 0.949 1_565 S
C1293 H1288 0.950 . S
C1293 C1295 1.327 . S
C1293 C1299 1.429 . S
C1294 C1286 1.574 . S
C1294 H1289 0.949 . S
C1294 C1300 1.368 . S
C1295 C1279 1.349 . S
C1295 H1287 0.950 . S
C1295 C1293 1.327 . S
C1296 C1284 1.349 . S
C1296 H1290 0.950 . S
C1296 C1297 1.327 . S
C1297 H1291 0.950 . S
C1297 C1296 1.327 . S
C1297 C1301 1.429 . S
C1298 C1281 1.574 . S
C1298 H1292 0.949 1_545 S
C1298 C1302 1.368 . S
C1299 C1280 1.429 . S
C1299 C1293 1.429 . S
C1299 C1300 1.523 . S
C1300 C1281 1.368 . S
C1300 C1294 1.368 . S
C1300 C1299 1.523 . S
C1301 C1285 1.429 . S
C1301 C1297 1.429 . S
C1301 C1302 1.523 . S
C1302 C1286 1.368 . S
C1302 C1298 1.368 . S
C1302 C1301 1.523 . S
H1303 C1278 0.950 . S
H1304 C1280 0.950 . S
H1305 C1281 0.949 . S
H1306 C1283 0.950 1_565 S
H1307 C1285 0.950 1_565 S
C1308 C1309 1.349 . S
C1308 C1310 1.327 . S
C1308 H1333 0.950 . S
C1309 C1308 1.349 . S
C1309 C1325 1.349 . S
C1310 C1308 1.327 . S
C1310 C1329 1.429 . S
C1310 H1334 0.950 . S
C1311 C1328 1.574 . S
C1311 C1330 1.368 . S
C1311 H1335 0.949 . S
H1312 C1316 0.949 . S
C1313 C1314 1.349 . S
C1313 C1315 1.327 . S
C1313 H1336 0.950 . S
C1314 C1313 1.349 . S
C1314 C1326 1.349 . S
C1315 C1313 1.327 . S
C1315 C1331 1.429 . S
C1315 H1337 0.950 . S
C1316 H1312 0.949 . S
C1316 C1324 1.574 . S
C1316 C1332 1.368 . S
H1317 C1325 0.958 . S
H1318 C1323 0.966 . S
H1319 C1324 0.949 . S
H1320 C1326 0.950 . S
H1321 C1327 0.950 . S
H1322 C1328 0.949 . S
C1323 H1318 0.966 . S
C1323 C1325 1.327 . S
C1323 C1329 1.429 . S
C1324 C1316 1.574 . S
C1324 H1319 0.949 . S
C1324 C1330 1.368 . S
C1325 C1309 1.349 . S
C1325 H1317 0.958 . S
C1325 C1323 1.327 . S
C1326 C1314 1.349 . S
C1326 H1320 0.950 . S
C1326 C1327 1.327 . S
C1327 H1321 0.950 . S
C1327 C1326 1.327 . S
C1327 C1331 1.429 . S
C1328 C1311 1.574 . S
C1328 H1322 0.949 . S
C1328 C1332 1.368 . S
C1329 C1310 1.429 . S
C1329 C1323 1.429 . S
C1329 C1330 1.523 . S
C1330 C1311 1.368 . S
C1330 C1324 1.368 . S
C1330 C1329 1.523 . S
C1331 C1315 1.429 . S
C1331 C1327 1.429 . S
C1331 C1332 1.523 . S
C1332 C1316 1.368 . S
C1332 C1328 1.368 . S
C1332 C1331 1.523 . S
H1333 C1308 0.950 . S
H1334 C1310 0.950 . S
H1335 C1311 0.949 . S
H1336 C1313 0.950 . S
H1337 C1315 0.950 . S
C1338 C1339 1.349 1_565 S
C1338 C1340 1.327 . S
C1338 H1363 0.950 . S
C1339 C1338 1.349 1_545 S
C1339 C1355 1.349 . S
C1340 C1338 1.327 . S
C1340 C1359 1.429 1_565 S
C1340 H1364 0.950 . S
C1341 C1358 1.574 . S
C1341 C1360 1.368 . S
C1341 H1365 0.949 . S
H1342 C1346 0.949 . S
C1343 C1344 1.349 . S
C1343 C1345 1.327 . S
C1343 H1366 0.950 . S
C1344 C1343 1.349 . S
C1344 C1356 1.349 1_545 S
C1345 C1343 1.327 . S
C1345 C1361 1.429 . S
C1345 H1367 0.950 . S
C1346 H1342 0.949 . S
C1346 C1354 1.574 . S
C1346 C1362 1.368 1_565 S
H1347 C1355 0.950 . S
H1348 C1353 0.950 . S
H1349 C1354 0.949 . S
H1350 C1356 0.950 . S
H1351 C1357 0.950 . S
H1352 C1358 0.949 . S
C1353 H1348 0.950 . S
C1353 C1355 1.327 . S
C1353 C1359 1.429 . S
C1354 C1346 1.574 . S
C1354 H1349 0.949 . S
C1354 C1360 1.368 1_565 S
C1355 C1339 1.349 . S
C1355 H1347 0.950 . S
C1355 C1353 1.327 . S
C1356 C1344 1.349 1_565 S
C1356 H1350 0.950 . S
C1356 C1357 1.327 . S
C1357 H1351 0.950 . S
C1357 C1356 1.327 . S
C1357 C1361 1.429 1_565 S
C1358 C1341 1.574 . S
C1358 H1352 0.949 . S
C1358 C1362 1.368 . S
C1359 C1340 1.429 1_545 S
C1359 C1353 1.429 . S
C1359 C1360 1.523 . S
C1360 C1341 1.368 . S
C1360 C1354 1.368 1_545 S
C1360 C1359 1.523 . S
C1361 C1345 1.429 . S
C1361 C1357 1.429 1_545 S
C1361 C1362 1.523 . S
C1362 C1346 1.368 1_545 S
C1362 C1358 1.368 . S
C1362 C1361 1.523 . S
H1363 C1338 0.950 . S
H1364 C1340 0.950 . S
H1365 C1341 0.949 . S
H1366 C1343 0.950 . S
H1367 C1345 0.950 . S
C1368 C1369 1.349 . S
C1368 C1370 1.327 . S
C1368 H1393 0.950 . S
C1369 C1368 1.349 . S
C1369 C1385 1.349 1_455 S
C1370 C1368 1.327 . S
C1370 C1389 1.429 . S
C1370 H1394 0.950 . S
C1371 C1388 1.574 . S
C1371 C1390 1.368 1_655 S
C1371 H1395 0.949 . S
H1372 C1376 0.949 . S
C1373 C1374 1.349 1_655 S
C1373 C1375 1.327 . S
C1373 H1396 0.950 . S
C1374 C1373 1.349 1_455 S
C1374 C1386 1.349 . S
C1375 C1373 1.327 . S
C1375 C1391 1.429 1_655 S
C1375 H1397 0.950 . S
C1376 H1372 0.949 . S
C1376 C1384 1.574 . S
C1376 C1392 1.368 . S
H1377 C1385 0.950 . S
H1378 C1383 0.950 . S
H1379 C1384 0.949 . S
H1380 C1386 0.950 . S
H1381 C1387 0.950 . S
H1382 C1388 0.949 . S
C1383 H1378 0.950 . S
C1383 C1385 1.327 . S
C1383 C1389 1.429 1_655 S
C1384 C1376 1.574 . S
C1384 H1379 0.949 . S
C1384 C1390 1.368 . S
C1385 C1369 1.349 1_655 S
C1385 H1377 0.950 . S
C1385 C1383 1.327 . S
C1386 C1374 1.349 . S
C1386 H1380 0.950 . S
C1386 C1387 1.327 . S
C1387 H1381 0.950 . S
C1387 C1386 1.327 . S
C1387 C1391 1.429 . S
C1388 C1371 1.574 . S
C1388 H1382 0.949 . S
C1388 C1392 1.368 1_655 S
C1389 C1370 1.429 . S
C1389 C1383 1.429 1_455 S
C1389 C1390 1.523 . S
C1390 C1371 1.368 1_455 S
C1390 C1384 1.368 . S
C1390 C1389 1.523 . S
C1391 C1375 1.429 1_455 S
C1391 C1387 1.429 . S
C1391 C1392 1.523 . S
C1392 C1376 1.368 . S
C1392 C1388 1.368 1_455 S
C1392 C1391 1.523 . S
H1393 C1368 0.950 . S
H1394 C1370 0.950 . S
H1395 C1371 0.949 . S
H1396 C1373 0.950 . S
H1397 C1375 0.950 . S
C1398 C1399 1.349 . S
C1398 C1400 1.327 . S
C1398 H1423 0.950 . S
C1399 C1398 1.349 . S
C1399 C1415 1.349 1_545 S
C1400 C1398 1.327 . S
C1400 C1419 1.429 . S
C1400 H1424 0.950 . S
C1401 C1418 1.574 . S
C1401 C1420 1.368 1_565 S
C1401 H1425 0.949 . S
H1402 C1406 0.949 . S
C1403 C1404 1.342 1_565 S
C1403 C1405 1.328 . S
C1403 H1426 0.956 . S
C1404 C1403 1.342 1_545 S
C1404 C1416 1.349 . S
C1405 C1403 1.328 . S
C1405 C1421 1.429 1_565 S
C1405 H1427 0.950 . S
C1406 H1402 0.949 . S
C1406 C1414 1.574 . S
C1406 C1422 1.368 . S
H1407 C1415 0.950 . S
H1408 C1413 0.950 . S
H1409 C1414 0.949 . S
H1410 C1416 0.950 . S
H1411 C1417 0.950 . S
H1412 C1418 0.949 . S
C1413 H1408 0.950 . S
C1413 C1415 1.327 . S
C1413 C1419 1.429 1_565 S
C1414 C1406 1.574 . S
C1414 H1409 0.949 . S
C1414 C1420 1.368 . S
C1415 C1399 1.349 1_565 S
C1415 H1407 0.950 . S
C1415 C1413 1.327 . S
C1416 C1404 1.349 . S
C1416 H1410 0.950 . S
C1416 C1417 1.327 . S
C1417 H1411 0.950 . S
C1417 C1416 1.327 . S
C1417 C1421 1.429 . S
C1418 C1401 1.574 . S
C1418 H1412 0.949 . S
C1418 C1422 1.368 1_565 S
C1419 C1400 1.429 . S
C1419 C1413 1.429 1_545 S
C1419 C1420 1.523 . S
C1420 C1401 1.368 1_545 S
C1420 C1414 1.368 . S
C1420 C1419 1.523 . S
C1421 C1405 1.429 1_545 S
C1421 C1417 1.429 . S
C1421 C1422 1.523 . S
C1422 C1406 1.368 . S
C1422 C1418 1.368 1_545 S
C1422 C1421 1.523 . S
H1423 C1398 0.950 . S
H1424 C1400 0.950 . S
H1425 C1401 0.949 . S
H1426 C1403 0.956 . S
H1427 C1405 0.950 . S
C1428 C1429 1.349 . S
C1428 C1430 1.327 . S
C1428 H1453 0.950 . S
C1429 C1428 1.349 . S
C1429 C1445 1.349 . S
C1430 C1428 1.327 . S
C1430 C1449 1.429 . S
C1430 H1454 0.950 . S
C1431 C1448 1.574 . S
C1431 C1450 1.368 1_655 S
C1431 H1455 0.949 . S
H1432 C1436 0.949 . S
C1433 C1434 1.349 1_655 S
C1433 C1435 1.327 . S
C1433 H1456 0.950 . S
C1434 C1433 1.349 1_455 S
C1434 C1446 1.349 . S
C1435 C1433 1.327 . S
C1435 C1451 1.429 1_655 S
C1435 H1457 0.950 . S
C1436 H1432 0.949 . S
C1436 C1444 1.574 . S
C1436 C1452 1.368 . S
H1437 C1445 0.950 1_655 S
H1438 C1443 0.918 1_655 S
H1439 C1444 0.949 . S
H1440 C1446 0.950 . S
H1441 C1447 0.950 . S
H1442 C1448 0.949 . S
C1443 H1438 0.918 1_455 S
C1443 C1445 1.329 . S
C1443 C1449 1.457 . S
C1444 C1436 1.574 . S
C1444 H1439 0.949 . S
C1444 C1450 1.368 . S
C1445 C1429 1.349 . S
C1445 H1437 0.950 1_455 S
C1445 C1443 1.329 . S
C1446 C1434 1.349 . S
C1446 H1440 0.950 . S
C1446 C1447 1.327 . S
C1447 H1441 0.950 . S
C1447 C1446 1.327 . S
C1447 C1451 1.429 . S
C1448 C1431 1.574 . S
C1448 H1442 0.949 . S
C1448 C1452 1.368 1_655 S
C1449 C1430 1.429 . S
C1449 C1443 1.457 . S
C1449 C1450 1.523 . S
C1450 C1431 1.368 1_455 S
C1450 C1444 1.368 . S
C1450 C1449 1.523 . S
C1451 C1435 1.429 1_455 S
C1451 C1447 1.429 . S
C1451 C1452 1.523 . S
C1452 C1436 1.368 . S
C1452 C1448 1.368 1_455 S
C1452 C1451 1.523 . S
H1453 C1428 0.950 . S
H1454 C1430 0.950 . S
H1455 C1431 0.949 . S
H1456 C1433 0.950 . S
H1457 C1435 0.950 . S
C1458 C1459 1.349 . S
C1458 C1460 1.327 . S
C1458 H1483 0.950 . S
C1459 C1458 1.349 . S
C1459 C1475 1.349 . S
C1460 C1458 1.327 . S
C1460 C1479 1.429 . S
C1460 H1484 0.950 . S
C1461 C1478 1.574 . S
C1461 C1480 1.368 . S
C1461 H1485 0.949 1_545 S
H1462 C1466 0.949 . S
C1463 C1464 1.349 . S
C1463 C1465 1.327 . S
C1463 H1486 0.950 1_545 S
C1464 C1463 1.349 . S
C1464 C1476 1.349 . S
C1465 C1463 1.327 . S
C1465 C1481 1.429 . S
C1465 H1487 0.950 1_545 S
C1466 H1462 0.949 . S
C1466 C1474 1.574 . S
C1466 C1482 1.368 . S
H1467 C1475 0.950 . S
H1468 C1473 0.950 . S
H1469 C1474 0.949 . S
H1470 C1476 0.950 . S
H1471 C1477 0.950 . S
H1472 C1478 0.949 1_565 S
C1473 H1468 0.950 . S
C1473 C1475 1.327 . S
C1473 C1479 1.429 . S
C1474 C1466 1.574 . S
C1474 H1469 0.949 . S
C1474 C1480 1.368 . S
C1475 C1459 1.349 . S
C1475 H1467 0.950 . S
C1475 C1473 1.327 . S
C1476 C1464 1.349 . S
C1476 H1470 0.950 . S
C1476 C1477 1.327 . S
C1477 H1471 0.950 . S
C1477 C1476 1.327 . S
C1477 C1481 1.429 . S
C1478 C1461 1.574 . S
C1478 H1472 0.949 1_545 S
C1478 C1482 1.368 . S
C1479 C1460 1.429 . S
C1479 C1473 1.429 . S
C1479 C1480 1.523 . S
C1480 C1461 1.368 . S
C1480 C1474 1.368 . S
C1480 C1479 1.523 . S
C1481 C1465 1.429 . S
C1481 C1477 1.429 . S
C1481 C1482 1.523 . S
C1482 C1466 1.368 . S
C1482 C1478 1.368 . S
C1482 C1481 1.523 . S
H1483 C1458 0.950 . S
H1484 C1460 0.950 . S
H1485 C1461 0.949 1_565 S
H1486 C1463 0.950 1_565 S
H1487 C1465 0.950 1_565 S
C1488 C1489 1.349 . S
C1488 C1490 1.327 . S
C1488 H1513 0.950 . S
C1489 C1488 1.349 . S
C1489 C1505 1.349 1_545 S
C1490 C1488 1.327 . S
C1490 C1509 1.429 . S
C1490 H1514 0.950 . S
C1491 C1508 1.574 . S
C1491 C1510 1.368 1_565 S
C1491 H1515 0.949 . S
H1492 C1496 0.949 . S
C1493 C1494 1.349 1_565 S
C1493 C1495 1.327 . S
C1493 H1516 0.950 . S
C1494 C1493 1.349 1_545 S
C1494 C1506 1.349 . S
C1495 C1493 1.327 . S
C1495 C1511 1.429 1_565 S
C1495 H1517 0.950 . S
C1496 H1492 0.949 . S
C1496 C1504 1.574 . S
C1496 C1512 1.368 . S
H1497 C1505 0.950 . S
H1498 C1503 0.950 . S
H1499 C1504 0.949 . S
H1500 C1506 0.950 . S
H1501 C1507 0.950 . S
H1502 C1508 0.949 . S
C1503 H1498 0.950 . S
C1503 C1505 1.327 . S
C1503 C1509 1.429 1_565 S
C1504 C1496 1.574 . S
C1504 H1499 0.949 . S
C1504 C1510 1.368 . S
C1505 C1489 1.349 1_565 S
C1505 H1497 0.950 . S
C1505 C1503 1.327 . S
C1506 C1494 1.349 . S
C1506 H1500 0.950 . S
C1506 C1507 1.327 . S
C1507 H1501 0.950 . S
C1507 C1506 1.327 . S
C1507 C1511 1.429 . S
C1508 C1491 1.574 . S
C1508 H1502 0.949 . S
C1508 C1512 1.368 1_565 S
C1509 C1490 1.429 . S
C1509 C1503 1.429 1_545 S
C1509 C1510 1.523 . S
C1510 C1491 1.368 1_545 S
C1510 C1504 1.368 . S
C1510 C1509 1.523 . S
C1511 C1495 1.429 1_545 S
C1511 C1507 1.429 . S
C1511 C1512 1.523 . S
C1512 C1496 1.368 . S
C1512 C1508 1.368 1_545 S
C1512 C1511 1.523 . S
H1513 C1488 0.950 . S
H1514 C1490 0.950 . S
H1515 C1491 0.949 . S
H1516 C1493 0.950 . S
H1517 C1495 0.950 . S
C1518 C1519 1.349 . S
C1518 C1520 1.327 . S
C1518 H1543 0.950 . S
C1519 C1518 1.349 . S
C1519 C1535 1.349 . S
C1520 C1518 1.327 . S
C1520 C1539 1.429 . S
C1520 H1544 0.950 . S
C1521 C1538 1.574 . S
C1521 C1540 1.368 . S
C1521 H1545 0.949 . S
H1522 C1526 0.949 . S
C1523 C1524 1.349 . S
C1523 C1525 1.327 . S
C1523 H1546 0.950 . S
C1524 C1523 1.349 . S
C1524 C1536 1.349 . S
C1525 C1523 1.327 . S
C1525 C1541 1.429 . S
C1525 H1547 0.950 . S
C1526 H1522 0.949 . S
C1526 C1534 1.574 . S
C1526 C1542 1.368 . S
H1527 C1535 0.950 . S
H1528 C1533 0.950 . S
H1529 C1534 0.949 . S
H1530 C1536 0.950 . S
H1531 C1537 0.950 . S
H1532 C1538 0.949 . S
C1533 H1528 0.950 . S
C1533 C1535 1.327 . S
C1533 C1539 1.429 . S
C1534 C1526 1.574 . S
C1534 H1529 0.949 . S
C1534 C1540 1.368 . S
C1535 C1519 1.349 . S
C1535 H1527 0.950 . S
C1535 C1533 1.327 . S
C1536 C1524 1.349 . S
C1536 H1530 0.950 . S
C1536 C1537 1.327 . S
C1537 H1531 0.950 . S
C1537 C1536 1.327 . S
C1537 C1541 1.429 . S
C1538 C1521 1.574 . S
C1538 H1532 0.949 . S
C1538 C1542 1.368 . S
C1539 C1520 1.429 . S
C1539 C1533 1.429 . S
C1539 C1540 1.523 . S
C1540 C1521 1.368 . S
C1540 C1534 1.368 . S
C1540 C1539 1.523 . S
C1541 C1525 1.429 . S
C1541 C1537 1.429 . S
C1541 C1542 1.523 . S
C1542 C1526 1.368 . S
C1542 C1538 1.368 . S
C1542 C1541 1.523 . S
H1543 C1518 0.950 . S
H1544 C1520 0.950 . S
H1545 C1521 0.949 . S
H1546 C1523 0.950 . S
H1547 C1525 0.950 . S
C1548 C1549 1.349 . S
C1548 C1550 1.327 . S
C1548 H1573 0.950 . S
C1549 C1548 1.349 . S
C1549 C1565 1.349 . S
C1550 C1548 1.327 . S
C1550 C1569 1.429 . S
C1550 H1574 0.950 . S
C1551 C1568 1.574 . S
C1551 C1570 1.368 . S
C1551 H1575 0.949 . S
H1552 C1556 0.949 . S
C1553 C1554 1.349 . S
C1553 C1555 1.327 . S
C1553 H1576 0.950 1_545 S
C1554 C1553 1.349 . S
C1554 C1566 1.349 . S
C1555 C1553 1.327 . S
C1555 C1571 1.429 . S
C1555 H1577 0.950 1_545 S
C1556 H1552 0.949 . S
C1556 C1564 1.574 . S
C1556 C1572 1.368 . S
H1557 C1565 0.950 . S
H1558 C1563 0.950 . S
H1559 C1564 0.949 . S
H1560 C1566 0.950 . S
H1561 C1567 0.950 . S
H1562 C1568 0.938 1_565 S
C1563 H1558 0.950 . S
C1563 C1565 1.327 . S
C1563 C1569 1.429 . S
C1564 C1556 1.574 . S
C1564 H1559 0.949 . S
C1564 C1570 1.368 . S
C1565 C1549 1.349 . S
C1565 H1557 0.950 . S
C1565 C1563 1.327 . S
C1566 C1554 1.349 . S
C1566 H1560 0.950 . S
C1566 C1567 1.327 . S
C1567 H1561 0.950 . S
C1567 C1566 1.327 . S
C1567 C1571 1.429 . S
C1568 C1551 1.574 . S
C1568 H1562 0.938 1_545 S
C1568 C1572 1.368 . S
C1569 C1550 1.429 . S
C1569 C1563 1.429 . S
C1569 C1570 1.523 . S
C1570 C1551 1.368 . S
C1570 C1564 1.368 . S
C1570 C1569 1.523 . S
C1571 C1555 1.429 . S
C1571 C1567 1.429 . S
C1571 C1572 1.523 . S
C1572 C1556 1.368 . S
C1572 C1568 1.368 . S
C1572 C1571 1.523 . S
H1573 C1548 0.950 . S
H1574 C1550 0.950 . S
H1575 C1551 0.949 . S
H1576 C1553 0.950 1_565 S
H1577 C1555 0.950 1_565 S
C1578 C1579 1.349 . S
C1578 C1580 1.327 . S
C1578 H1603 0.950 . S
C1579 C1578 1.349 . S
C1579 C1595 1.349 . S
C1580 C1578 1.327 . S
C1580 C1599 1.429 . S
C1580 H1604 0.950 . S
C1581 C1598 1.574 . S
C1581 C1600 1.368 . S
C1581 H1605 0.949 . S
H1582 C1586 0.949 . S
C1583 C1584 1.349 . S
C1583 C1585 1.327 . S
C1583 H1606 0.950 . S
C1584 C1583 1.349 . S
C1584 C1596 1.349 . S
C1585 C1583 1.327 . S
C1585 C1601 1.429 . S
C1585 H1607 0.950 . S
C1586 H1582 0.949 . S
C1586 C1594 1.574 . S
C1586 C1602 1.368 . S
H1587 C1595 0.950 . S
H1588 C1593 0.950 . S
H1589 C1594 0.949 . S
H1590 C1596 0.950 . S
H1591 C1597 0.950 . S
H1592 C1598 0.949 . S
C1593 H1588 0.950 . S
C1593 C1595 1.327 . S
C1593 C1599 1.429 . S
C1594 C1586 1.574 . S
C1594 H1589 0.949 . S
C1594 C1600 1.368 . S
C1595 C1579 1.349 . S
C1595 H1587 0.950 . S
C1595 C1593 1.327 . S
C1596 C1584 1.349 . S
C1596 H1590 0.950 . S
C1596 C1597 1.327 . S
C1597 H1591 0.950 . S
C1597 C1596 1.327 . S
C1597 C1601 1.429 . S
C1598 C1581 1.574 . S
C1598 H1592 0.949 . S
C1598 C1602 1.368 . S
C1599 C1580 1.429 . S
C1599 C1593 1.429 . S
C1599 C1600 1.523 . S
C1600 C1581 1.368 . S
C1600 C1594 1.368 . S
C1600 C1599 1.523 . S
C1601 C1585 1.429 . S
C1601 C1597 1.429 . S
C1601 C1602 1.523 . S
C1602 C1586 1.368 . S
C1602 C1598 1.368 . S
C1602 C1601 1.523 . S
H1603 C1578 0.950 . S
H1604 C1580 0.950 . S
H1605 C1581 0.949 . S
H1606 C1583 0.950 . S
H1607 C1585 0.950 . S
C1608 C1609 1.349 1_565 S
C1608 C1610 1.327 . S
C1608 H1633 0.950 . S
C1609 C1608 1.349 1_545 S
C1609 C1625 1.349 . S
C1610 C1608 1.327 . S
C1610 C1629 1.429 1_565 S
C1610 H1634 0.950 . S
C1611 C1628 1.574 . S
C1611 C1630 1.368 . S
C1611 H1635 0.949 . S
H1612 C1616 0.949 . S
C1613 C1614 1.349 . S
C1613 C1615 1.327 . S
C1613 H1636 0.950 . S
C1614 C1613 1.349 . S
C1614 C1626 1.349 1_545 S
C1615 C1613 1.327 . S
C1615 C1631 1.429 . S
C1615 H1637 0.950 . S
C1616 H1612 0.949 . S
C1616 C1624 1.574 . S
C1616 C1632 1.368 1_565 S
H1617 C1625 0.950 . S
H1618 C1623 0.950 . S
H1619 C1624 0.949 . S
H1620 C1626 0.950 . S
H1621 C1627 0.950 . S
H1622 C1628 0.949 . S
C1623 H1618 0.950 . S
C1623 C1625 1.327 . S
C1623 C1629 1.429 . S
C1624 C1616 1.574 . S
C1624 H1619 0.949 . S
C1624 C1630 1.368 1_565 S
C1625 C1609 1.349 . S
C1625 H1617 0.950 . S
C1625 C1623 1.327 . S
C1626 C1614 1.349 1_565 S
C1626 H1620 0.950 . S
C1626 C1627 1.327 . S
C1627 H1621 0.950 . S
C1627 C1626 1.327 . S
C1627 C1631 1.429 1_565 S
C1628 C1611 1.574 . S
C1628 H1622 0.949 . S
C1628 C1632 1.368 . S
C1629 C1610 1.429 1_545 S
C1629 C1623 1.429 . S
C1629 C1630 1.523 . S
C1630 C1611 1.368 . S
C1630 C1624 1.368 1_545 S
C1630 C1629 1.523 . S
C1631 C1615 1.429 . S
C1631 C1627 1.429 1_545 S
C1631 C1632 1.523 . S
C1632 C1616 1.368 1_545 S
C1632 C1628 1.368 . S
C1632 C1631 1.523 . S
H1633 C1608 0.950 . S
H1634 C1610 0.950 . S
H1635 C1611 0.949 . S
H1636 C1613 0.950 . S
H1637 C1615 0.950 . S
C1638 C1639 1.349 . S
C1638 C1640 1.327 . S
C1638 H1663 0.950 . S
C1639 C1638 1.349 . S
C1639 C1655 1.349 . S
C1640 C1638 1.327 . S
C1640 C1659 1.429 . S
C1640 H1664 0.950 . S
C1641 C1658 1.574 . S
C1641 C1660 1.368 . S
C1641 H1665 0.949 . S
H1642 C1646 0.949 . S
C1643 C1644 1.349 . S
C1643 C1645 1.327 . S
C1643 H1666 0.950 . S
C1644 C1643 1.349 . S
C1644 C1656 1.349 . S
C1645 C1643 1.327 . S
C1645 C1661 1.429 . S
C1645 H1667 0.950 . S
C1646 H1642 0.949 . S
C1646 C1654 1.574 . S
C1646 C1662 1.368 . S
H1647 C1655 0.950 . S
H1648 C1653 0.950 . S
H1649 C1654 0.949 . S
H1650 C1656 0.950 . S
H1651 C1657 0.950 . S
H1652 C1658 0.949 . S
C1653 H1648 0.950 . S
C1653 C1655 1.327 . S
C1653 C1659 1.429 . S
C1654 C1646 1.574 . S
C1654 H1649 0.949 . S
C1654 C1660 1.368 . S
C1655 C1639 1.349 . S
C1655 H1647 0.950 . S
C1655 C1653 1.327 . S
C1656 C1644 1.349 . S
C1656 H1650 0.950 . S
C1656 C1657 1.327 . S
C1657 H1651 0.950 . S
C1657 C1656 1.327 . S
C1657 C1661 1.429 . S
C1658 C1641 1.574 . S
C1658 H1652 0.949 . S
C1658 C1662 1.368 . S
C1659 C1640 1.429 . S
C1659 C1653 1.429 . S
C1659 C1660 1.523 . S
C1660 C1641 1.368 . S
C1660 C1654 1.368 . S
C1660 C1659 1.523 . S
C1661 C1645 1.429 . S
C1661 C1657 1.429 . S
C1661 C1662 1.523 . S
C1662 C1646 1.368 . S
C1662 C1658 1.368 . S
C1662 C1661 1.523 . S
H1663 C1638 0.950 . S
H1664 C1640 0.950 . S
H1665 C1641 0.949 . S
H1666 C1643 0.950 . S
H1667 C1645 0.950 . S
C1668 C1669 1.349 . S
C1668 C1670 1.327 . S
C1668 H1693 0.950 . S
C1669 C1668 1.349 . S
C1669 C1685 1.349 . S
C1670 C1668 1.327 . S
C1670 C1689 1.429 . S
C1670 H1694 0.950 . S
C1671 C1688 1.574 . S
C1671 C1690 1.368 . S
C1671 H1695 0.949 . S
H1672 C1676 0.945 1_565 S
C1673 C1674 1.349 . S
C1673 C1675 1.327 . S
C1673 H1696 0.950 . S
C1674 C1673 1.349 . S
C1674 C1686 1.349 . S
C1675 C1673 1.327 . S
C1675 C1691 1.429 . S
C1675 H1697 0.950 . S
C1676 H1672 0.945 1_545 S
C1676 C1684 1.574 . S
C1676 C1692 1.368 . S
H1677 C1685 0.950 . S
H1678 C1683 0.950 . S
H1679 C1684 0.949 . S
H1680 C1686 0.950 1_565 S
H1681 C1687 0.950 1_565 S
H1682 C1688 0.949 . S
C1683 H1678 0.950 . S
C1683 C1685 1.327 . S
C1683 C1689 1.429 . S
C1684 C1676 1.574 . S
C1684 H1679 0.949 . S
C1684 C1690 1.368 . S
C1685 C1669 1.349 . S
C1685 H1677 0.950 . S
C1685 C1683 1.327 . S
C1686 C1674 1.349 . S
C1686 H1680 0.950 1_545 S
C1686 C1687 1.327 . S
C1687 H1681 0.950 1_545 S
C1687 C1686 1.327 . S
C1687 C1691 1.429 . S
C1688 C1671 1.574 . S
C1688 H1682 0.949 . S
C1688 C1692 1.368 . S
C1689 C1670 1.429 . S
C1689 C1683 1.429 . S
C1689 C1690 1.523 . S
C1690 C1671 1.368 . S
C1690 C1684 1.368 . S
C1690 C1689 1.523 . S
C1691 C1675 1.429 . S
C1691 C1687 1.429 . S
C1691 C1692 1.523 . S
C1692 C1676 1.368 . S
C1692 C1688 1.368 . S
C1692 C1691 1.523 . S
H1693 C1668 0.950 . S
H1694 C1670 0.950 . S
H1695 C1671 0.949 . S
H1696 C1673 0.950 . S
H1697 C1675 0.950 . S
C1698 C1699 1.349 . S
C1698 C1700 1.327 . S
C1698 H1723 0.950 . S
C1699 C1698 1.349 . S
C1699 C1715 1.349 1_455 S
C1700 C1698 1.327 . S
C1700 C1719 1.429 . S
C1700 H1724 0.950 . S
C1701 C1718 1.574 . S
C1701 C1720 1.368 1_655 S
C1701 H1725 0.949 . S
H1702 C1706 0.949 . S
C1703 C1704 1.352 . S
C1703 C1705 1.327 1_455 S
C1703 H1726 0.947 1_455 S
C1704 C1703 1.352 . S
C1704 C1716 1.349 . S
C1705 C1703 1.327 1_655 S
C1705 C1721 1.429 1_655 S
C1705 H1727 0.950 . S
C1706 H1702 0.949 . S
C1706 C1714 1.574 . S
C1706 C1722 1.368 . S
H1707 C1715 0.950 . S
H1708 C1713 0.950 . S
H1709 C1714 0.949 . S
H1710 C1716 0.950 . S
H1711 C1717 0.950 . S
H1712 C1718 0.949 . S
C1713 H1708 0.950 . S
C1713 C1715 1.327 . S
C1713 C1719 1.429 1_655 S
C1714 C1706 1.574 . S
C1714 H1709 0.949 . S
C1714 C1720 1.368 . S
C1715 C1699 1.349 1_655 S
C1715 H1707 0.950 . S
C1715 C1713 1.327 . S
C1716 C1704 1.349 . S
C1716 H1710 0.950 . S
C1716 C1717 1.327 . S
C1717 H1711 0.950 . S
C1717 C1716 1.327 . S
C1717 C1721 1.429 . S
C1718 C1701 1.574 . S
C1718 H1712 0.949 . S
C1718 C1722 1.368 1_655 S
C1719 C1700 1.429 . S
C1719 C1713 1.429 1_455 S
C1719 C1720 1.523 . S
C1720 C1701 1.368 1_455 S
C1720 C1714 1.368 . S
C1720 C1719 1.523 . S
C1721 C1705 1.429 1_455 S
C1721 C1717 1.429 . S
C1721 C1722 1.523 . S
C1722 C1706 1.368 . S
C1722 C1718 1.368 1_455 S
C1722 C1721 1.523 . S
H1723 C1698 0.950 . S
H1724 C1700 0.950 . S
H1725 C1701 0.949 . S
H1726 C1703 0.947 1_655 S
H1727 C1705 0.950 . S
C1728 C1729 1.349 . S
C1728 C1730 1.327 . S
C1728 H1753 0.950 1_554 S
C1729 C1728 1.349 . S
C1729 C1745 1.349 . S
C1730 C1728 1.327 . S
C1730 C1749 1.429 . S
C1730 H1754 0.950 1_554 S
C1731 C1748 1.574 . S
C1731 C1750 1.368 . S
C1731 H1755 0.949 . S
H1732 C1736 0.943 1_556 S
C1733 C1734 1.349 . S
C1733 C1735 1.327 . S
C1733 H1756 0.950 . S
C1734 C1733 1.349 . S
C1734 C1746 1.378 . S
C1735 C1733 1.327 . S
C1735 C1751 1.429 . S
C1735 H1757 0.950 . S
C1736 H1732 0.943 1_554 S
C1736 C1744 1.574 . S
C1736 C1752 1.375 . S
H1737 C1745 0.950 . S
H1738 C1743 0.950 . S
H1739 C1744 0.933 1_556 S
H1740 C1746 0.921 1_556 S
H1741 C1747 0.928 1_556 S
H1742 C1748 0.949 . S
C1743 H1738 0.950 . S
C1743 C1745 1.327 . S
C1743 C1749 1.429 . S
C1744 C1736 1.574 . S
C1744 H1739 0.933 1_554 S
C1744 C1750 1.386 . S
C1745 C1729 1.349 . S
C1745 H1737 0.950 . S
C1745 C1743 1.327 . S
C1746 C1734 1.378 . S
C1746 H1740 0.921 1_554 S
C1746 C1747 1.327 . S
C1747 H1741 0.928 1_554 S
C1747 C1746 1.327 . S
C1747 C1751 1.450 . S
C1748 C1731 1.574 . S
C1748 H1742 0.949 . S
C1748 C1752 1.368 . S
C1749 C1730 1.429 . S
C1749 C1743 1.429 . S
C1749 C1750 1.523 . S
C1750 C1731 1.368 . S
C1750 C1744 1.386 . S
C1750 C1749 1.523 . S
C1751 C1735 1.429 . S
C1751 C1747 1.450 . S
C1751 C1752 1.523 . S
C1752 C1736 1.375 . S
C1752 C1748 1.368 . S
C1752 C1751 1.523 . S
H1753 C1728 0.950 1_556 S
H1754 C1730 0.950 1_556 S
H1755 C1731 0.949 . S
H1756 C1733 0.950 . S
H1757 C1735 0.950 . S
C1758 C1759 1.349 1_556 S
C1758 C1760 1.327 . S
C1758 H1783 0.950 . S
C1759 C1758 1.349 1_554 S
C1759 C1775 1.349 . S
C1760 C1758 1.327 . S
C1760 C1779 1.429 1_556 S
C1760 H1784 0.950 . S
C1761 C1778 1.574 . S
C1761 C1780 1.368 . S
C1761 H1785 0.949 . S
H1762 C1766 0.949 . S
C1763 C1764 1.349 . S
C1763 C1765 1.327 . S
C1763 H1786 0.950 . S
C1764 C1763 1.349 . S
C1764 C1776 1.349 1_554 S
C1765 C1763 1.327 . S
C1765 C1781 1.429 . S
C1765 H1787 0.950 . S
C1766 H1762 0.949 . S
C1766 C1774 1.574 . S
C1766 C1782 1.368 1_556 S
H1767 C1775 0.950 . S
H1768 C1773 0.950 . S
H1769 C1774 0.949 . S
H1770 C1776 0.950 . S
H1771 C1777 0.950 . S
H1772 C1778 0.949 . S
C1773 H1768 0.950 . S
C1773 C1775 1.327 . S
C1773 C1779 1.429 . S
C1774 C1766 1.574 . S
C1774 H1769 0.949 . S
C1774 C1780 1.368 1_556 S
C1775 C1759 1.349 . S
C1775 H1767 0.950 . S
C1775 C1773 1.327 . S
C1776 C1764 1.349 1_556 S
C1776 H1770 0.950 . S
C1776 C1777 1.327 . S
C1777 H1771 0.950 . S
C1777 C1776 1.327 . S
C1777 C1781 1.429 1_556 S
C1778 C1761 1.574 . S
C1778 H1772 0.949 . S
C1778 C1782 1.368 . S
C1779 C1760 1.429 1_554 S
C1779 C1773 1.429 . S
C1779 C1780 1.523 . S
C1780 C1761 1.368 . S
C1780 C1774 1.368 1_554 S
C1780 C1779 1.523 . S
C1781 C1765 1.429 . S
C1781 C1777 1.429 1_554 S
C1781 C1782 1.523 . S
C1782 C1766 1.368 1_554 S
C1782 C1778 1.368 . S
C1782 C1781 1.523 . S
H1783 C1758 0.950 . S
H1784 C1760 0.950 . S
H1785 C1761 0.949 . S
H1786 C1763 0.950 . S
H1787 C1765 0.950 . S
C1788 C1789 1.349 . S
C1788 C1790 1.327 . S
C1788 H1813 0.950 . S
C1789 C1788 1.349 . S
C1789 C1805 1.349 1_554 S
C1790 C1788 1.327 . S
C1790 C1809 1.429 . S
C1790 H1814 0.950 . S
C1791 C1808 1.574 . S
C1791 C1810 1.368 1_556 S
C1791 H1815 0.949 . S
H1792 C1796 0.949 . S
C1793 C1794 1.349 1_556 S
C1793 C1795 1.327 . S
C1793 H1816 0.950 . S
C1794 C1793 1.349 1_554 S
C1794 C1806 1.349 . S
C1795 C1793 1.327 . S
C1795 C1811 1.429 1_556 S
C1795 H1817 0.950 . S
C1796 H1792 0.949 . S
C1796 C1804 1.574 . S
C1796 C1812 1.368 . S
H1797 C1805 0.950 . S
H1798 C1803 0.950 . S
H1799 C1804 0.949 . S
H1800 C1806 0.950 . S
H1801 C1807 0.950 . S
H1802 C1808 0.949 . S
C1803 H1798 0.950 . S
C1803 C1805 1.327 . S
C1803 C1809 1.429 1_556 S
C1804 C1796 1.574 . S
C1804 H1799 0.949 . S
C1804 C1810 1.368 . S
C1805 C1789 1.349 1_556 S
C1805 H1797 0.950 . S
C1805 C1803 1.327 . S
C1806 C1794 1.349 . S
C1806 H1800 0.950 . S
C1806 C1807 1.327 . S
C1807 H1801 0.950 . S
C1807 C1806 1.327 . S
C1807 C1811 1.429 . S
C1808 C1791 1.574 . S
C1808 H1802 0.949 . S
C1808 C1812 1.368 1_556 S
C1809 C1790 1.429 . S
C1809 C1803 1.429 1_554 S
C1809 C1810 1.523 . S
C1810 C1791 1.368 1_554 S
C1810 C1804 1.368 . S
C1810 C1809 1.523 . S
C1811 C1795 1.429 1_554 S
C1811 C1807 1.429 . S
C1811 C1812 1.523 . S
C1812 C1796 1.368 . S
C1812 C1808 1.368 1_554 S
C1812 C1811 1.523 . S
H1813 C1788 0.950 . S
H1814 C1790 0.950 . S
H1815 C1791 0.949 . S
H1816 C1793 0.950 . S
H1817 C1795 0.950 . S
C1818 C1819 1.349 . S
C1818 C1820 1.327 . S
C1818 H1843 0.950 . S
C1819 C1818 1.349 . S
C1819 C1835 1.349 1_554 S
C1820 C1818 1.327 . S
C1820 C1839 1.429 . S
C1820 H1844 0.950 . S
C1821 C1838 1.574 . S
C1821 C1840 1.368 1_556 S
C1821 H1845 0.949 . S
H1822 C1826 0.949 . S
C1823 C1824 1.349 1_556 S
C1823 C1825 1.327 . S
C1823 H1846 0.950 . S
C1824 C1823 1.349 1_554 S
C1824 C1836 1.349 . S
C1825 C1823 1.327 . S
C1825 C1841 1.429 1_556 S
C1825 H1847 0.950 . S
C1826 H1822 0.949 . S
C1826 C1834 1.574 . S
C1826 C1842 1.368 . S
H1827 C1835 0.950 . S
H1828 C1833 0.950 . S
H1829 C1834 0.949 . S
H1830 C1836 0.950 . S
H1831 C1837 0.950 . S
H1832 C1838 0.949 . S
C1833 H1828 0.950 . S
C1833 C1835 1.327 . S
C1833 C1839 1.429 1_556 S
C1834 C1826 1.574 . S
C1834 H1829 0.949 . S
C1834 C1840 1.368 . S
C1835 C1819 1.349 1_556 S
C1835 H1827 0.950 . S
C1835 C1833 1.327 . S
C1836 C1824 1.349 . S
C1836 H1830 0.950 . S
C1836 C1837 1.327 . S
C1837 H1831 0.950 . S
C1837 C1836 1.327 . S
C1837 C1841 1.429 . S
C1838 C1821 1.574 . S
C1838 H1832 0.949 . S
C1838 C1842 1.368 1_556 S
C1839 C1820 1.429 . S
C1839 C1833 1.429 1_554 S
C1839 C1840 1.523 . S
C1840 C1821 1.368 1_554 S
C1840 C1834 1.368 . S
C1840 C1839 1.523 . S
C1841 C1825 1.429 1_554 S
C1841 C1837 1.429 . S
C1841 C1842 1.523 . S
C1842 C1826 1.368 . S
C1842 C1838 1.368 1_554 S
C1842 C1841 1.523 . S
H1843 C1818 0.950 . S
H1844 C1820 0.950 . S
H1845 C1821 0.949 . S
H1846 C1823 0.950 . S
H1847 C1825 0.950 . S
C1848 C1849 1.349 1_556 S
C1848 C1850 1.327 . S
C1848 H1873 0.950 . S
C1849 C1848 1.349 1_554 S
C1849 C1865 1.349 . S
C1850 C1848 1.327 . S
C1850 C1869 1.429 1_556 S
C1850 H1874 0.950 . S
C1851 C1868 1.574 . S
C1851 C1870 1.368 . S
C1851 H1875 0.949 . S
H1852 C1856 0.949 . S
C1853 C1854 1.349 . S
C1853 C1855 1.327 . S
C1853 H1876 0.950 . S
C1854 C1853 1.349 . S
C1854 C1866 1.349 1_554 S
C1855 C1853 1.327 . S
C1855 C1871 1.429 . S
C1855 H1877 0.950 . S
C1856 H1852 0.949 . S
C1856 C1864 1.574 . S
C1856 C1872 1.368 1_556 S
H1857 C1865 0.950 . S
H1858 C1863 0.950 . S
H1859 C1864 0.949 . S
H1860 C1866 0.950 . S
H1861 C1867 0.950 . S
H1862 C1868 0.949 . S
C1863 H1858 0.950 . S
C1863 C1865 1.327 . S
C1863 C1869 1.429 . S
C1864 C1856 1.574 . S
C1864 H1859 0.949 . S
C1864 C1870 1.368 1_556 S
C1865 C1849 1.349 . S
C1865 H1857 0.950 . S
C1865 C1863 1.327 . S
C1866 C1854 1.349 1_556 S
C1866 H1860 0.950 . S
C1866 C1867 1.327 . S
C1867 H1861 0.950 . S
C1867 C1866 1.327 . S
C1867 C1871 1.429 1_556 S
C1868 C1851 1.574 . S
C1868 H1862 0.949 . S
C1868 C1872 1.368 . S
C1869 C1850 1.429 1_554 S
C1869 C1863 1.429 . S
C1869 C1870 1.523 . S
C1870 C1851 1.368 . S
C1870 C1864 1.368 1_554 S
C1870 C1869 1.523 . S
C1871 C1855 1.429 . S
C1871 C1867 1.429 1_554 S
C1871 C1872 1.523 . S
C1872 C1856 1.368 1_554 S
C1872 C1868 1.368 . S
C1872 C1871 1.523 . S
H1873 C1848 0.950 . S
H1874 C1850 0.950 . S
H1875 C1851 0.949 . S
H1876 C1853 0.950 . S
H1877 C1855 0.950 . S
C1878 C1879 1.349 1_556 S
C1878 C1880 1.327 . S
C1878 H1903 0.950 . S
C1879 C1878 1.349 1_554 S
C1879 C1895 1.349 . S
C1880 C1878 1.327 . S
C1880 C1899 1.429 1_556 S
C1880 H1904 0.950 . S
C1881 C1898 1.574 . S
C1881 C1900 1.368 . S
C1881 H1905 0.949 . S
H1882 C1886 0.949 . S
C1883 C1884 1.349 . S
C1883 C1885 1.327 . S
C1883 H1906 0.950 . S
C1884 C1883 1.349 . S
C1884 C1896 1.349 1_554 S
C1885 C1883 1.327 . S
C1885 C1901 1.429 . S
C1885 H1907 0.950 . S
C1886 H1882 0.949 . S
C1886 C1894 1.574 . S
C1886 C1902 1.368 1_556 S
H1887 C1895 0.950 . S
H1888 C1893 0.950 . S
H1889 C1894 0.949 . S
H1890 C1896 0.950 . S
H1891 C1897 0.950 . S
H1892 C1898 0.949 . S
C1893 H1888 0.950 . S
C1893 C1895 1.327 . S
C1893 C1899 1.429 . S
C1894 C1886 1.574 . S
C1894 H1889 0.949 . S
C1894 C1900 1.368 1_556 S
C1895 C1879 1.349 . S
C1895 H1887 0.950 . S
C1895 C1893 1.327 . S
C1896 C1884 1.349 1_556 S
C1896 H1890 0.950 . S
C1896 C1897 1.327 . S
C1897 H1891 0.950 . S
C1897 C1896 1.327 . S
C1897 C1901 1.429 1_556 S
C1898 C1881 1.574 . S
C1898 H1892 0.949 . S
C1898 C1902 1.368 . S
C1899 C1880 1.429 1_554 S
C1899 C1893 1.429 . S
C1899 C1900 1.523 . S
C1900 C1881 1.368 . S
C1900 C1894 1.368 1_554 S
C1900 C1899 1.523 . S
C1901 C1885 1.429 . S
C1901 C1897 1.429 1_554 S
C1901 C1902 1.523 . S
C1902 C1886 1.368 1_554 S
C1902 C1898 1.368 . S
C1902 C1901 1.523 . S
H1903 C1878 0.950 . S
H1904 C1880 0.950 . S
H1905 C1881 0.949 . S
H1906 C1883 0.950 . S
H1907 C1885 0.950 . S
C1908 C1909 1.349 . S
C1908 C1910 1.327 . S
C1908 H1933 0.950 . S
C1909 C1908 1.349 . S
C1909 C1925 1.349 . S
C1910 C1908 1.327 . S
C1910 C1929 1.429 . S
C1910 H1934 0.950 . S
C1911 C1928 1.573 . S
C1911 C1930 1.371 1_556 S
C1911 H1935 0.947 . S
H1912 C1916 0.949 . S
C1913 C1914 1.349 1_556 S
C1913 C1915 1.327 . S
C1913 H1936 0.950 . S
C1914 C1913 1.349 1_554 S
C1914 C1926 1.349 . S
C1915 C1913 1.327 . S
C1915 C1931 1.429 1_556 S
C1915 H1937 0.950 . S
C1916 H1912 0.949 . S
C1916 C1924 1.574 . S
C1916 C1932 1.368 . S
H1917 C1925 0.950 1_556 S
H1918 C1923 0.950 1_556 S
H1919 C1924 0.949 . S
H1920 C1926 0.950 . S
H1921 C1927 0.950 . S
H1922 C1928 0.969 . S
C1923 H1918 0.950 1_554 S
C1923 C1925 1.327 . S
C1923 C1929 1.429 . S
C1924 C1916 1.574 . S
C1924 H1919 0.949 . S
C1924 C1930 1.368 . S
C1925 C1909 1.349 . S
C1925 H1917 0.950 1_554 S
C1925 C1923 1.327 . S
C1926 C1914 1.349 . S
C1926 H1920 0.950 . S
C1926 C1927 1.327 . S
C1927 H1921 0.950 . S
C1927 C1926 1.327 . S
C1927 C1931 1.429 . S
C1928 C1911 1.573 . S
C1928 H1922 0.969 . S
C1928 C1932 1.349 1_556 S
C1929 C1910 1.429 . S
C1929 C1923 1.429 . S
C1929 C1930 1.523 . S
C1930 C1911 1.371 1_554 S
C1930 C1924 1.368 . S
C1930 C1929 1.523 . S
C1931 C1915 1.429 1_554 S
C1931 C1927 1.429 . S
C1931 C1932 1.523 . S
C1932 C1916 1.368 . S
C1932 C1928 1.349 1_554 S
C1932 C1931 1.523 . S
H1933 C1908 0.950 . S
H1934 C1910 0.950 . S
H1935 C1911 0.947 . S
H1936 C1913 0.950 . S
H1937 C1915 0.950 . S
C1938 C1939 1.349 1_556 S
C1938 C1940 1.327 . S
C1938 H1963 0.950 . S
C1939 C1938 1.349 1_554 S
C1939 C1955 1.349 . S
C1940 C1938 1.327 . S
C1940 C1959 1.429 1_556 S
C1940 H1964 0.950 . S
C1941 C1958 1.574 . S
C1941 C1960 1.368 . S
C1941 H1965 0.949 . S
H1942 C1946 0.949 . S
C1943 C1944 1.349 . S
C1943 C1945 1.327 . S
C1943 H1966 0.950 . S
C1944 C1943 1.349 . S
C1944 C1956 1.349 1_554 S
C1945 C1943 1.327 . S
C1945 C1961 1.429 . S
C1945 H1967 0.950 . S
C1946 H1942 0.949 . S
C1946 C1954 1.574 . S
C1946 C1962 1.368 1_556 S
H1947 C1955 0.950 . S
H1948 C1953 0.950 . S
H1949 C1954 0.949 . S
H1950 C1956 0.950 . S
H1951 C1957 0.950 . S
H1952 C1958 0.949 . S
C1953 H1948 0.950 . S
C1953 C1955 1.327 . S
C1953 C1959 1.429 . S
C1954 C1946 1.574 . S
C1954 H1949 0.949 . S
C1954 C1960 1.368 1_556 S
C1955 C1939 1.349 . S
C1955 H1947 0.950 . S
C1955 C1953 1.327 . S
C1956 C1944 1.349 1_556 S
C1956 H1950 0.950 . S
C1956 C1957 1.327 . S
C1957 H1951 0.950 . S
C1957 C1956 1.327 . S
C1957 C1961 1.429 1_556 S
C1958 C1941 1.574 . S
C1958 H1952 0.949 . S
C1958 C1962 1.368 . S
C1959 C1940 1.429 1_554 S
C1959 C1953 1.429 . S
C1959 C1960 1.523 . S
C1960 C1941 1.368 . S
C1960 C1954 1.368 1_554 S
C1960 C1959 1.523 . S
C1961 C1945 1.429 . S
C1961 C1957 1.429 1_554 S
C1961 C1962 1.523 . S
C1962 C1946 1.368 1_554 S
C1962 C1958 1.368 . S
C1962 C1961 1.523 . S
H1963 C1938 0.950 . S
H1964 C1940 0.950 . S
H1965 C1941 0.949 . S
H1966 C1943 0.950 . S
H1967 C1945 0.950 . S
C1968 C1969 1.349 . S
C1968 C1970 1.327 . S
C1968 H1993 0.950 . S
C1969 C1968 1.349 . S
C1969 C1985 1.349 . S
C1970 C1968 1.327 . S
C1970 C1989 1.429 . S
C1970 H1994 0.950 . S
C1971 C1988 1.574 . S
C1971 C1990 1.368 . S
C1971 H1995 0.949 . S
H1972 C1976 0.949 . S
C1973 C1974 1.349 . S
C1973 C1975 1.327 . S
C1973 H1996 0.950 . S
C1974 C1973 1.349 . S
C1974 C1986 1.349 . S
C1975 C1973 1.327 . S
C1975 C1991 1.429 . S
C1975 H1997 0.950 . S
C1976 H1972 0.949 . S
C1976 C1984 1.574 . S
C1976 C1992 1.368 . S
H1977 C1985 0.950 . S
H1978 C1983 0.950 . S
H1979 C1984 0.949 . S
H1980 C1986 0.950 . S
H1981 C1987 0.950 . S
H1982 C1988 0.949 . S
C1983 H1978 0.950 . S
C1983 C1985 1.327 . S
C1983 C1989 1.429 . S
C1984 C1976 1.574 . S
C1984 H1979 0.949 . S
C1984 C1990 1.368 . S
C1985 C1969 1.349 . S
C1985 H1977 0.950 . S
C1985 C1983 1.327 . S
C1986 C1974 1.349 . S
C1986 H1980 0.950 . S
C1986 C1987 1.327 . S
C1987 H1981 0.950 . S
C1987 C1986 1.327 . S
C1987 C1991 1.429 . S
C1988 C1971 1.574 . S
C1988 H1982 0.949 . S
C1988 C1992 1.368 . S
C1989 C1970 1.429 . S
C1989 C1983 1.429 . S
C1989 C1990 1.523 . S
C1990 C1971 1.368 . S
C1990 C1984 1.368 . S
C1990 C1989 1.523 . S
C1991 C1975 1.429 . S
C1991 C1987 1.429 . S
C1991 C1992 1.523 . S
C1992 C1976 1.368 . S
C1992 C1988 1.368 . S
C1992 C1991 1.523 . S
H1993 C1968 0.950 . S
H1994 C1970 0.950 . S
H1995 C1971 0.949 . S
H1996 C1973 0.950 . S
H1997 C1975 0.950 . S
C1998 C1999 1.349 . S
C1998 C2000 1.327 . S
C1998 H2023 0.950 . S
C1999 C1998 1.349 . S
C1999 C2015 1.349 . S
C2000 C1998 1.327 . S
C2000 C2019 1.429 . S
C2000 H2024 0.950 . S
C2001 C2018 1.574 . S
C2001 C2020 1.368 . S
C2001 H2025 0.949 . S
H2002 C2006 0.949 . S
C2003 C2004 1.349 . S
C2003 C2005 1.327 . S
C2003 H2026 0.950 . S
C2004 C2003 1.349 . S
C2004 C2016 1.349 . S
C2005 C2003 1.327 . S
C2005 C2021 1.429 . S
C2005 H2027 0.950 . S
C2006 H2002 0.949 . S
C2006 C2014 1.574 . S
C2006 C2022 1.368 . S
H2007 C2015 0.950 . S
H2008 C2013 0.950 . S
H2009 C2014 0.949 . S
H2010 C2016 0.950 . S
H2011 C2017 0.950 . S
H2012 C2018 0.949 . S
C2013 H2008 0.950 . S
C2013 C2015 1.327 . S
C2013 C2019 1.429 . S
C2014 C2006 1.574 . S
C2014 H2009 0.949 . S
C2014 C2020 1.368 . S
C2015 C1999 1.349 . S
C2015 H2007 0.950 . S
C2015 C2013 1.327 . S
C2016 C2004 1.349 . S
C2016 H2010 0.950 . S
C2016 C2017 1.327 . S
C2017 H2011 0.950 . S
C2017 C2016 1.327 . S
C2017 C2021 1.429 . S
C2018 C2001 1.574 . S
C2018 H2012 0.949 . S
C2018 C2022 1.368 . S
C2019 C2000 1.429 . S
C2019 C2013 1.429 . S
C2019 C2020 1.523 . S
C2020 C2001 1.368 . S
C2020 C2014 1.368 . S
C2020 C2019 1.523 . S
C2021 C2005 1.429 . S
C2021 C2017 1.429 . S
C2021 C2022 1.523 . S
C2022 C2006 1.368 . S
C2022 C2018 1.368 . S
C2022 C2021 1.523 . S
H2023 C1998 0.950 . S
H2024 C2000 0.950 . S
H2025 C2001 0.949 . S
H2026 C2003 0.950 . S
H2027 C2005 0.950 . S
C2028 C2029 1.349 . S
C2028 C2030 1.327 . S
C2028 H2053 0.950 . S
C2029 C2028 1.349 . S
C2029 C2045 1.349 . S
C2030 C2028 1.327 . S
C2030 C2049 1.429 . S
C2030 H2054 0.950 . S
C2031 C2048 1.574 . S
C2031 C2050 1.368 . S
C2031 H2055 0.949 . S
H2032 C2036 0.949 . S
C2033 C2034 1.349 . S
C2033 C2035 1.327 . S
C2033 H2056 0.950 . S
C2034 C2033 1.349 . S
C2034 C2046 1.349 . S
C2035 C2033 1.327 . S
C2035 C2051 1.429 . S
C2035 H2057 0.950 . S
C2036 H2032 0.949 . S
C2036 C2044 1.574 . S
C2036 C2052 1.368 . S
H2037 C2045 0.950 . S
H2038 C2043 0.950 . S
H2039 C2044 0.949 . S
H2040 C2046 0.950 . S
H2041 C2047 0.950 . S
H2042 C2048 0.949 . S
C2043 H2038 0.950 . S
C2043 C2045 1.327 . S
C2043 C2049 1.429 . S
C2044 C2036 1.574 . S
C2044 H2039 0.949 . S
C2044 C2050 1.368 . S
C2045 C2029 1.349 . S
C2045 H2037 0.950 . S
C2045 C2043 1.327 . S
C2046 C2034 1.349 . S
C2046 H2040 0.950 . S
C2046 C2047 1.327 . S
C2047 H2041 0.950 . S
C2047 C2046 1.327 . S
C2047 C2051 1.429 . S
C2048 C2031 1.574 . S
C2048 H2042 0.949 . S
C2048 C2052 1.368 . S
C2049 C2030 1.429 . S
C2049 C2043 1.429 . S
C2049 C2050 1.523 . S
C2050 C2031 1.368 . S
C2050 C2044 1.368 . S
C2050 C2049 1.523 . S
C2051 C2035 1.429 . S
C2051 C2047 1.429 . S
C2051 C2052 1.523 . S
C2052 C2036 1.368 . S
C2052 C2048 1.368 . S
C2052 C2051 1.523 . S
H2053 C2028 0.950 . S
H2054 C2030 0.950 . S
H2055 C2031 0.949 . S
H2056 C2033 0.950 . S
H2057 C2035 0.950 . S
C2058 C2059 1.349 . S
C2058 C2060 1.327 . S
C2058 H2083 0.950 . S
C2059 C2058 1.349 . S
C2059 C2075 1.349 . S
C2060 C2058 1.327 . S
C2060 C2079 1.429 . S
C2060 H2084 0.950 . S
C2061 C2078 1.574 . S
C2061 C2080 1.368 . S
C2061 H2085 0.949 . S
H2062 C2066 0.949 . S
C2063 C2064 1.349 . S
C2063 C2065 1.327 . S
C2063 H2086 0.950 . S
C2064 C2063 1.349 . S
C2064 C2076 1.349 . S
C2065 C2063 1.327 . S
C2065 C2081 1.429 . S
C2065 H2087 0.950 . S
C2066 H2062 0.949 . S
C2066 C2074 1.574 . S
C2066 C2082 1.368 . S
H2067 C2075 0.950 . S
H2068 C2073 0.950 . S
H2069 C2074 0.949 . S
H2070 C2076 0.950 . S
H2071 C2077 0.950 . S
H2072 C2078 0.949 . S
C2073 H2068 0.950 . S
C2073 C2075 1.327 . S
C2073 C2079 1.429 . S
C2074 C2066 1.574 . S
C2074 H2069 0.949 . S
C2074 C2080 1.368 . S
C2075 C2059 1.349 . S
C2075 H2067 0.950 . S
C2075 C2073 1.327 . S
C2076 C2064 1.349 . S
C2076 H2070 0.950 . S
C2076 C2077 1.327 . S
C2077 H2071 0.950 . S
C2077 C2076 1.327 . S
C2077 C2081 1.429 . S
C2078 C2061 1.574 . S
C2078 H2072 0.949 . S
C2078 C2082 1.368 . S
C2079 C2060 1.429 . S
C2079 C2073 1.429 . S
C2079 C2080 1.523 . S
C2080 C2061 1.368 . S
C2080 C2074 1.368 . S
C2080 C2079 1.523 . S
C2081 C2065 1.429 . S
C2081 C2077 1.429 . S
C2081 C2082 1.523 . S
C2082 C2066 1.368 . S
C2082 C2078 1.368 . S
C2082 C2081 1.523 . S
H2083 C2058 0.950 . S
H2084 C2060 0.950 . S
H2085 C2061 0.949 . S
H2086 C2063 0.950 . S
H2087 C2065 0.950 . S
C2088 C2089 1.349 . S
C2088 C2090 1.327 . S
C2088 H2113 0.950 . S
C2089 C2088 1.349 . S
C2089 C2105 1.349 . S
C2090 C2088 1.327 . S
C2090 C2109 1.429 . S
C2090 H2114 0.950 . S
C2091 C2108 1.574 . S
C2091 C2110 1.368 . S
C2091 H2115 0.949 . S
H2092 C2096 0.949 . S
C2093 C2094 1.349 . S
C2093 C2095 1.327 . S
C2093 H2116 0.950 . S
C2094 C2093 1.349 . S
C2094 C2106 1.349 . S
C2095 C2093 1.327 . S
C2095 C2111 1.429 . S
C2095 H2117 0.950 . S
C2096 H2092 0.949 . S
C2096 C2104 1.574 . S
C2096 C2112 1.368 . S
H2097 C2105 0.950 . S
H2098 C2103 0.950 . S
H2099 C2104 0.949 . S
H2100 C2106 0.950 . S
H2101 C2107 0.950 . S
H2102 C2108 0.949 . S
C2103 H2098 0.950 . S
C2103 C2105 1.327 . S
C2103 C2109 1.429 . S
C2104 C2096 1.574 . S
C2104 H2099 0.949 . S
C2104 C2110 1.368 . S
C2105 C2089 1.349 . S
C2105 H2097 0.950 . S
C2105 C2103 1.327 . S
C2106 C2094 1.349 . S
C2106 H2100 0.950 . S
C2106 C2107 1.327 . S
C2107 H2101 0.950 . S
C2107 C2106 1.327 . S
C2107 C2111 1.429 . S
C2108 C2091 1.574 . S
C2108 H2102 0.949 . S
C2108 C2112 1.368 . S
C2109 C2090 1.429 . S
C2109 C2103 1.429 . S
C2109 C2110 1.523 . S
C2110 C2091 1.368 . S
C2110 C2104 1.368 . S
C2110 C2109 1.523 . S
C2111 C2095 1.429 . S
C2111 C2107 1.429 . S
C2111 C2112 1.523 . S
C2112 C2096 1.368 . S
C2112 C2108 1.368 . S
C2112 C2111 1.523 . S
H2113 C2088 0.950 . S
H2114 C2090 0.950 . S
H2115 C2091 0.949 . S
H2116 C2093 0.950 . S
H2117 C2095 0.950 . S
C2118 C2119 1.349 . S
C2118 C2120 1.327 . S
C2118 H2143 0.950 . S
C2119 C2118 1.349 . S
C2119 C2135 1.349 . S
C2120 C2118 1.327 . S
C2120 C2139 1.429 . S
C2120 H2144 0.950 . S
C2121 C2138 1.574 . S
C2121 C2140 1.368 . S
C2121 H2145 0.949 . S
H2122 C2126 0.949 . S
C2123 C2124 1.349 . S
C2123 C2125 1.327 . S
C2123 H2146 0.950 . S
C2124 C2123 1.349 . S
C2124 C2136 1.349 . S
C2125 C2123 1.327 . S
C2125 C2141 1.429 . S
C2125 H2147 0.950 . S
C2126 H2122 0.949 . S
C2126 C2134 1.574 . S
C2126 C2142 1.368 . S
H2127 C2135 0.950 . S
H2128 C2133 0.950 . S
H2129 C2134 0.949 . S
H2130 C2136 0.950 . S
H2131 C2137 0.950 . S
H2132 C2138 0.949 . S
C2133 H2128 0.950 . S
C2133 C2135 1.327 . S
C2133 C2139 1.429 . S
C2134 C2126 1.574 . S
C2134 H2129 0.949 . S
C2134 C2140 1.368 . S
C2135 C2119 1.349 . S
C2135 H2127 0.950 . S
C2135 C2133 1.327 . S
C2136 C2124 1.349 . S
C2136 H2130 0.950 . S
C2136 C2137 1.327 . S
C2137 H2131 0.950 . S
C2137 C2136 1.327 . S
C2137 C2141 1.429 . S
C2138 C2121 1.574 . S
C2138 H2132 0.949 . S
C2138 C2142 1.368 . S
C2139 C2120 1.429 . S
C2139 C2133 1.429 . S
C2139 C2140 1.523 . S
C2140 C2121 1.368 . S
C2140 C2134 1.368 . S
C2140 C2139 1.523 . S
C2141 C2125 1.429 . S
C2141 C2137 1.429 . S
C2141 C2142 1.523 . S
C2142 C2126 1.368 . S
C2142 C2138 1.368 . S
C2142 C2141 1.523 . S
H2143 C2118 0.950 . S
H2144 C2120 0.950 . S
H2145 C2121 0.949 . S
H2146 C2123 0.950 . S
H2147 C2125 0.950 . S
C2148 C2149 1.349 . S
C2148 C2150 1.327 . S
C2148 H2173 0.950 . S
C2149 C2148 1.349 . S
C2149 C2165 1.349 . S
C2150 C2148 1.327 . S
C2150 C2169 1.429 . S
C2150 H2174 0.950 . S
C2151 C2168 1.574 . S
C2151 C2170 1.368 . S
C2151 H2175 0.949 . S
H2152 C2156 0.949 . S
C2153 C2154 1.349 . S
C2153 C2155 1.327 . S
C2153 H2176 0.950 . S
C2154 C2153 1.349 . S
C2154 C2166 1.349 . S
C2155 C2153 1.327 . S
C2155 C2171 1.429 . S
C2155 H2177 0.950 . S
C2156 H2152 0.949 . S
C2156 C2164 1.574 . S
C2156 C2172 1.368 . S
H2157 C2165 0.950 . S
H2158 C2163 0.950 . S
H2159 C2164 0.949 . S
H2160 C2166 0.950 . S
H2161 C2167 0.950 . S
H2162 C2168 0.949 . S
C2163 H2158 0.950 . S
C2163 C2165 1.327 . S
C2163 C2169 1.429 . S
C2164 C2156 1.574 . S
C2164 H2159 0.949 . S
C2164 C2170 1.368 . S
C2165 C2149 1.349 . S
C2165 H2157 0.950 . S
C2165 C2163 1.327 . S
C2166 C2154 1.349 . S
C2166 H2160 0.950 . S
C2166 C2167 1.327 . S
C2167 H2161 0.950 . S
C2167 C2166 1.327 . S
C2167 C2171 1.429 . S
C2168 C2151 1.574 . S
C2168 H2162 0.949 . S
C2168 C2172 1.368 . S
C2169 C2150 1.429 . S
C2169 C2163 1.429 . S
C2169 C2170 1.523 . S
C2170 C2151 1.368 . S
C2170 C2164 1.368 . S
C2170 C2169 1.523 . S
C2171 C2155 1.429 . S
C2171 C2167 1.429 . S
C2171 C2172 1.523 . S
C2172 C2156 1.368 . S
C2172 C2168 1.368 . S
C2172 C2171 1.523 . S
H2173 C2148 0.950 . S
H2174 C2150 0.950 . S
H2175 C2151 0.949 . S
H2176 C2153 0.950 . S
H2177 C2155 0.950 . S
C2178 C2179 1.349 . S
C2178 C2180 1.327 . S
C2178 H2203 0.950 . S
C2179 C2178 1.349 . S
C2179 C2195 1.349 . S
C2180 C2178 1.327 . S
C2180 C2199 1.429 . S
C2180 H2204 0.950 . S
C2181 C2198 1.574 . S
C2181 C2200 1.368 . S
C2181 H2205 0.949 . S
H2182 C2186 0.949 . S
C2183 C2184 1.349 . S
C2183 C2185 1.327 . S
C2183 H2206 0.950 . S
C2184 C2183 1.349 . S
C2184 C2196 1.349 . S
C2185 C2183 1.327 . S
C2185 C2201 1.429 . S
C2185 H2207 0.950 . S
C2186 H2182 0.949 . S
C2186 C2194 1.574 . S
C2186 C2202 1.368 . S
H2187 C2195 0.950 . S
H2188 C2193 0.950 . S
H2189 C2194 0.949 . S
H2190 C2196 0.950 . S
H2191 C2197 0.950 . S
H2192 C2198 0.949 . S
C2193 H2188 0.950 . S
C2193 C2195 1.327 . S
C2193 C2199 1.429 . S
C2194 C2186 1.574 . S
C2194 H2189 0.949 . S
C2194 C2200 1.368 . S
C2195 C2179 1.349 . S
C2195 H2187 0.950 . S
C2195 C2193 1.327 . S
C2196 C2184 1.349 . S
C2196 H2190 0.950 . S
C2196 C2197 1.327 . S
C2197 H2191 0.950 . S
C2197 C2196 1.327 . S
C2197 C2201 1.429 . S
C2198 C2181 1.574 . S
C2198 H2192 0.949 . S
C2198 C2202 1.368 . S
C2199 C2180 1.429 . S
C2199 C2193 1.429 . S
C2199 C2200 1.523 . S
C2200 C2181 1.368 . S
C2200 C2194 1.368 . S
C2200 C2199 1.523 . S
C2201 C2185 1.429 . S
C2201 C2197 1.429 . S
C2201 C2202 1.523 . S
C2202 C2186 1.368 . S
C2202 C2198 1.368 . S
C2202 C2201 1.523 . S
H2203 C2178 0.950 . S
H2204 C2180 0.950 . S
H2205 C2181 0.949 . S
H2206 C2183 0.950 . S
H2207 C2185 0.950 . S
C2208 C2209 1.349 . S
C2208 C2210 1.327 . S
C2208 H2233 0.950 . S
C2209 C2208 1.349 . S
C2209 C2225 1.349 . S
C2210 C2208 1.327 . S
C2210 C2229 1.429 . S
C2210 H2234 0.950 . S
C2211 C2228 1.574 . S
C2211 C2230 1.368 . S
C2211 H2235 0.949 . S
H2212 C2216 0.949 . S
C2213 C2214 1.349 . S
C2213 C2215 1.327 . S
C2213 H2236 0.950 . S
C2214 C2213 1.349 . S
C2214 C2226 1.349 . S
C2215 C2213 1.327 . S
C2215 C2231 1.429 . S
C2215 H2237 0.950 . S
C2216 H2212 0.949 . S
C2216 C2224 1.574 . S
C2216 C2232 1.368 . S
H2217 C2225 0.950 . S
H2218 C2223 0.950 . S
H2219 C2224 0.949 . S
H2220 C2226 0.950 . S
H2221 C2227 0.950 . S
H2222 C2228 0.949 . S
C2223 H2218 0.950 . S
C2223 C2225 1.327 . S
C2223 C2229 1.429 . S
C2224 C2216 1.574 . S
C2224 H2219 0.949 . S
C2224 C2230 1.368 . S
C2225 C2209 1.349 . S
C2225 H2217 0.950 . S
C2225 C2223 1.327 . S
C2226 C2214 1.349 . S
C2226 H2220 0.950 . S
C2226 C2227 1.327 . S
C2227 H2221 0.950 . S
C2227 C2226 1.327 . S
C2227 C2231 1.429 . S
C2228 C2211 1.574 . S
C2228 H2222 0.949 . S
C2228 C2232 1.368 . S
C2229 C2210 1.429 . S
C2229 C2223 1.429 . S
C2229 C2230 1.523 . S
C2230 C2211 1.368 . S
C2230 C2224 1.368 . S
C2230 C2229 1.523 . S
C2231 C2215 1.429 . S
C2231 C2227 1.429 . S
C2231 C2232 1.523 . S
C2232 C2216 1.368 . S
C2232 C2228 1.368 . S
C2232 C2231 1.523 . S
H2233 C2208 0.950 . S
H2234 C2210 0.950 . S
H2235 C2211 0.949 . S
H2236 C2213 0.950 . S
H2237 C2215 0.950 . S
C2238 C2239 1.349 . S
C2238 C2240 1.327 . S
C2238 H2263 0.950 . S
C2239 C2238 1.349 . S
C2239 C2255 1.349 . S
C2240 C2238 1.327 . S
C2240 C2259 1.429 . S
C2240 H2264 0.950 . S
C2241 C2258 1.574 . S
C2241 C2260 1.368 . S
C2241 H2265 0.949 . S
H2242 C2246 0.949 . S
C2243 C2244 1.349 . S
C2243 C2245 1.327 . S
C2243 H2266 0.950 . S
C2244 C2243 1.349 . S
C2244 C2256 1.349 . S
C2245 C2243 1.327 . S
C2245 C2261 1.429 . S
C2245 H2267 0.950 . S
C2246 H2242 0.949 . S
C2246 C2254 1.574 . S
C2246 C2262 1.368 . S
H2247 C2255 0.950 . S
H2248 C2253 0.950 . S
H2249 C2254 0.949 . S
H2250 C2256 0.950 . S
H2251 C2257 0.950 . S
H2252 C2258 0.949 . S
C2253 H2248 0.950 . S
C2253 C2255 1.327 . S
C2253 C2259 1.429 . S
C2254 C2246 1.574 . S
C2254 H2249 0.949 . S
C2254 C2260 1.368 . S
C2255 C2239 1.349 . S
C2255 H2247 0.950 . S
C2255 C2253 1.327 . S
C2256 C2244 1.349 . S
C2256 H2250 0.950 . S
C2256 C2257 1.327 . S
C2257 H2251 0.950 . S
C2257 C2256 1.327 . S
C2257 C2261 1.429 . S
C2258 C2241 1.574 . S
C2258 H2252 0.949 . S
C2258 C2262 1.368 . S
C2259 C2240 1.429 . S
C2259 C2253 1.429 . S
C2259 C2260 1.523 . S
C2260 C2241 1.368 . S
C2260 C2254 1.368 . S
C2260 C2259 1.523 . S
C2261 C2245 1.429 . S
C2261 C2257 1.429 . S
C2261 C2262 1.523 . S
C2262 C2246 1.368 . S
C2262 C2258 1.368 . S
C2262 C2261 1.523 . S
H2263 C2238 0.950 . S
H2264 C2240 0.950 . S
H2265 C2241 0.949 . S
H2266 C2243 0.950 . S
H2267 C2245 0.950 . S
C2268 C2269 1.349 . S
C2268 C2270 1.327 . S
C2268 H2293 0.950 . S
C2269 C2268 1.349 . S
C2269 C2285 1.349 . S
C2270 C2268 1.327 . S
C2270 C2289 1.429 . S
C2270 H2294 0.950 . S
C2271 C2288 1.574 . S
C2271 C2290 1.368 . S
C2271 H2295 0.949 . S
H2272 C2276 0.949 . S
C2273 C2274 1.349 . S
C2273 C2275 1.327 . S
C2273 H2296 0.950 . S
C2274 C2273 1.349 . S
C2274 C2286 1.349 . S
C2275 C2273 1.327 . S
C2275 C2291 1.429 . S
C2275 H2297 0.950 . S
C2276 H2272 0.949 . S
C2276 C2284 1.574 . S
C2276 C2292 1.368 . S
H2277 C2285 0.950 . S
H2278 C2283 0.950 . S
H2279 C2284 0.949 . S
H2280 C2286 0.950 . S
H2281 C2287 0.950 . S
H2282 C2288 0.949 . S
C2283 H2278 0.950 . S
C2283 C2285 1.327 . S
C2283 C2289 1.429 . S
C2284 C2276 1.574 . S
C2284 H2279 0.949 . S
C2284 C2290 1.368 . S
C2285 C2269 1.349 . S
C2285 H2277 0.950 . S
C2285 C2283 1.327 . S
C2286 C2274 1.349 . S
C2286 H2280 0.950 . S
C2286 C2287 1.327 . S
C2287 H2281 0.950 . S
C2287 C2286 1.327 . S
C2287 C2291 1.429 . S
C2288 C2271 1.574 . S
C2288 H2282 0.949 . S
C2288 C2292 1.368 . S
C2289 C2270 1.429 . S
C2289 C2283 1.429 . S
C2289 C2290 1.523 . S
C2290 C2271 1.368 . S
C2290 C2284 1.368 . S
C2290 C2289 1.523 . S
C2291 C2275 1.429 . S
C2291 C2287 1.429 . S
C2291 C2292 1.523 . S
C2292 C2276 1.368 . S
C2292 C2288 1.368 . S
C2292 C2291 1.523 . S
H2293 C2268 0.950 . S
H2294 C2270 0.950 . S
H2295 C2271 0.949 . S
H2296 C2273 0.950 . S
H2297 C2275 0.950 . S
C2298 C2299 1.349 . S
C2298 C2300 1.327 . S
C2298 H2323 0.950 . S
C2299 C2298 1.349 . S
C2299 C2315 1.349 . S
C2300 C2298 1.327 . S
C2300 C2319 1.429 . S
C2300 H2324 0.950 . S
C2301 C2318 1.574 . S
C2301 C2320 1.368 . S
C2301 H2325 0.949 . S
H2302 C2306 0.949 . S
C2303 C2304 1.349 . S
C2303 C2305 1.327 . S
C2303 H2326 0.950 . S
C2304 C2303 1.349 . S
C2304 C2316 1.349 . S
C2305 C2303 1.327 . S
C2305 C2321 1.429 . S
C2305 H2327 0.950 . S
C2306 H2302 0.949 . S
C2306 C2314 1.574 . S
C2306 C2322 1.368 . S
H2307 C2315 0.950 . S
H2308 C2313 0.950 . S
H2309 C2314 0.949 . S
H2310 C2316 0.950 . S
H2311 C2317 0.950 . S
H2312 C2318 0.949 . S
C2313 H2308 0.950 . S
C2313 C2315 1.327 . S
C2313 C2319 1.429 . S
C2314 C2306 1.574 . S
C2314 H2309 0.949 . S
C2314 C2320 1.368 . S
C2315 C2299 1.349 . S
C2315 H2307 0.950 . S
C2315 C2313 1.327 . S
C2316 C2304 1.349 . S
C2316 H2310 0.950 . S
C2316 C2317 1.327 . S
C2317 H2311 0.950 . S
C2317 C2316 1.327 . S
C2317 C2321 1.429 . S
C2318 C2301 1.574 . S
C2318 H2312 0.949 . S
C2318 C2322 1.368 . S
C2319 C2300 1.429 . S
C2319 C2313 1.429 . S
C2319 C2320 1.523 . S
C2320 C2301 1.368 . S
C2320 C2314 1.368 . S
C2320 C2319 1.523 . S
C2321 C2305 1.429 . S
C2321 C2317 1.429 . S
C2321 C2322 1.523 . S
C2322 C2306 1.368 . S
C2322 C2318 1.368 . S
C2322 C2321 1.523 . S
H2323 C2298 0.950 . S
H2324 C2300 0.950 . S
H2325 C2301 0.949 . S
H2326 C2303 0.950 . S
H2327 C2305 0.950 . S
C2328 C2329 1.349 . S
C2328 C2330 1.327 . S
C2328 H2353 0.950 . S
C2329 C2328 1.349 . S
C2329 C2345 1.349 . S
C2330 C2328 1.327 . S
C2330 C2349 1.429 . S
C2330 H2354 0.950 . S
C2331 C2348 1.574 . S
C2331 C2350 1.368 . S
C2331 H2355 0.949 . S
H2332 C2336 0.949 . S
C2333 C2334 1.349 . S
C2333 C2335 1.327 . S
C2333 H2356 0.950 . S
C2334 C2333 1.349 . S
C2334 C2346 1.349 . S
C2335 C2333 1.327 . S
C2335 C2351 1.429 . S
C2335 H2357 0.950 . S
C2336 H2332 0.949 . S
C2336 C2344 1.574 . S
C2336 C2352 1.368 . S
H2337 C2345 0.950 . S
H2338 C2343 0.950 . S
H2339 C2344 0.949 . S
H2340 C2346 0.950 . S
H2341 C2347 0.950 . S
H2342 C2348 0.949 . S
C2343 H2338 0.950 . S
C2343 C2345 1.327 . S
C2343 C2349 1.429 . S
C2344 C2336 1.574 . S
C2344 H2339 0.949 . S
C2344 C2350 1.368 . S
C2345 C2329 1.349 . S
C2345 H2337 0.950 . S
C2345 C2343 1.327 . S
C2346 C2334 1.349 . S
C2346 H2340 0.950 . S
C2346 C2347 1.327 . S
C2347 H2341 0.950 . S
C2347 C2346 1.327 . S
C2347 C2351 1.429 . S
C2348 C2331 1.574 . S
C2348 H2342 0.949 . S
C2348 C2352 1.368 . S
C2349 C2330 1.429 . S
C2349 C2343 1.429 . S
C2349 C2350 1.523 . S
C2350 C2331 1.368 . S
C2350 C2344 1.368 . S
C2350 C2349 1.523 . S
C2351 C2335 1.429 . S
C2351 C2347 1.429 . S
C2351 C2352 1.523 . S
C2352 C2336 1.368 . S
C2352 C2348 1.368 . S
C2352 C2351 1.523 . S
H2353 C2328 0.950 . S
H2354 C2330 0.950 . S
H2355 C2331 0.949 . S
H2356 C2333 0.950 . S
H2357 C2335 0.950 . S
C2358 C2359 1.349 . S
C2358 C2360 1.327 . S
C2358 H2383 0.950 . S
C2359 C2358 1.349 . S
C2359 C2375 1.349 . S
C2360 C2358 1.327 . S
C2360 C2379 1.429 . S
C2360 H2384 0.950 . S
C2361 C2378 1.574 . S
C2361 C2380 1.368 . S
C2361 H2385 0.949 . S
H2362 C2366 0.949 . S
C2363 C2364 1.349 . S
C2363 C2365 1.327 . S
C2363 H2386 0.950 . S
C2364 C2363 1.349 . S
C2364 C2376 1.349 . S
C2365 C2363 1.327 . S
C2365 C2381 1.429 . S
C2365 H2387 0.950 . S
C2366 H2362 0.949 . S
C2366 C2374 1.574 . S
C2366 C2382 1.368 . S
H2367 C2375 0.950 . S
H2368 C2373 0.950 . S
H2369 C2374 0.949 . S
H2370 C2376 0.950 . S
H2371 C2377 0.950 . S
H2372 C2378 0.949 . S
C2373 H2368 0.950 . S
C2373 C2375 1.327 . S
C2373 C2379 1.429 . S
C2374 C2366 1.574 . S
C2374 H2369 0.949 . S
C2374 C2380 1.368 . S
C2375 C2359 1.349 . S
C2375 H2367 0.950 . S
C2375 C2373 1.327 . S
C2376 C2364 1.349 . S
C2376 H2370 0.950 . S
C2376 C2377 1.327 . S
C2377 H2371 0.950 . S
C2377 C2376 1.327 . S
C2377 C2381 1.429 . S
C2378 C2361 1.574 . S
C2378 H2372 0.949 . S
C2378 C2382 1.368 . S
C2379 C2360 1.429 . S
C2379 C2373 1.429 . S
C2379 C2380 1.523 . S
C2380 C2361 1.368 . S
C2380 C2374 1.368 . S
C2380 C2379 1.523 . S
C2381 C2365 1.429 . S
C2381 C2377 1.429 . S
C2381 C2382 1.523 . S
C2382 C2366 1.368 . S
C2382 C2378 1.368 . S
C2382 C2381 1.523 . S
H2383 C2358 0.950 . S
H2384 C2360 0.950 . S
H2385 C2361 0.949 . S
H2386 C2363 0.950 . S
H2387 C2365 0.950 . S
C2388 C2389 1.349 . S
C2388 C2390 1.327 . S
C2388 H2413 0.950 . S
C2389 C2388 1.349 . S
C2389 C2405 1.349 . S
C2390 C2388 1.327 . S
C2390 C2409 1.429 . S
C2390 H2414 0.950 . S
C2391 C2408 1.574 . S
C2391 C2410 1.368 . S
C2391 H2415 0.949 . S
H2392 C2396 0.949 . S
C2393 C2394 1.349 . S
C2393 C2395 1.327 . S
C2393 H2416 0.950 . S
C2394 C2393 1.349 . S
C2394 C2406 1.349 . S
C2395 C2393 1.327 . S
C2395 C2411 1.429 . S
C2395 H2417 0.950 . S
C2396 H2392 0.949 . S
C2396 C2404 1.574 . S
C2396 C2412 1.368 . S
H2397 C2405 0.950 . S
H2398 C2403 0.950 . S
H2399 C2404 0.949 . S
H2400 C2406 0.950 . S
H2401 C2407 0.950 . S
H2402 C2408 0.949 . S
C2403 H2398 0.950 . S
C2403 C2405 1.327 . S
C2403 C2409 1.429 . S
C2404 C2396 1.574 . S
C2404 H2399 0.949 . S
C2404 C2410 1.368 . S
C2405 C2389 1.349 . S
C2405 H2397 0.950 . S
C2405 C2403 1.327 . S
C2406 C2394 1.349 . S
C2406 H2400 0.950 . S
C2406 C2407 1.327 . S
C2407 H2401 0.950 . S
C2407 C2406 1.327 . S
C2407 C2411 1.429 . S
C2408 C2391 1.574 . S
C2408 H2402 0.949 . S
C2408 C2412 1.368 . S
C2409 C2390 1.429 . S
C2409 C2403 1.429 . S
C2409 C2410 1.523 . S
C2410 C2391 1.368 . S
C2410 C2404 1.368 . S
C2410 C2409 1.523 . S
C2411 C2395 1.429 . S
C2411 C2407 1.429 . S
C2411 C2412 1.523 . S
C2412 C2396 1.368 . S
C2412 C2408 1.368 . S
C2412 C2411 1.523 . S
H2413 C2388 0.950 . S
H2414 C2390 0.950 . S
H2415 C2391 0.949 . S
H2416 C2393 0.950 . S
H2417 C2395 0.950 . S
C2418 C2419 1.349 . S
C2418 C2420 1.327 . S
C2418 H2443 0.950 . S
C2419 C2418 1.349 . S
C2419 C2435 1.349 . S
C2420 C2418 1.327 . S
C2420 C2439 1.429 . S
C2420 H2444 0.950 . S
C2421 C2438 1.574 . S
C2421 C2440 1.368 . S
C2421 H2445 0.949 . S
H2422 C2426 0.949 . S
C2423 C2424 1.349 . S
C2423 C2425 1.327 . S
C2423 H2446 0.950 . S
C2424 C2423 1.349 . S
C2424 C2436 1.349 . S
C2425 C2423 1.327 . S
C2425 C2441 1.429 . S
C2425 H2447 0.950 . S
C2426 H2422 0.949 . S
C2426 C2434 1.574 . S
C2426 C2442 1.368 . S
H2427 C2435 0.950 . S
H2428 C2433 0.950 . S
H2429 C2434 0.949 . S
H2430 C2436 0.950 . S
H2431 C2437 0.950 . S
H2432 C2438 0.949 . S
C2433 H2428 0.950 . S
C2433 C2435 1.327 . S
C2433 C2439 1.429 . S
C2434 C2426 1.574 . S
C2434 H2429 0.949 . S
C2434 C2440 1.368 . S
C2435 C2419 1.349 . S
C2435 H2427 0.950 . S
C2435 C2433 1.327 . S
C2436 C2424 1.349 . S
C2436 H2430 0.950 . S
C2436 C2437 1.327 . S
C2437 H2431 0.950 . S
C2437 C2436 1.327 . S
C2437 C2441 1.429 . S
C2438 C2421 1.574 . S
C2438 H2432 0.949 . S
C2438 C2442 1.368 . S
C2439 C2420 1.429 . S
C2439 C2433 1.429 . S
C2439 C2440 1.523 . S
C2440 C2421 1.368 . S
C2440 C2434 1.368 . S
C2440 C2439 1.523 . S
C2441 C2425 1.429 . S
C2441 C2437 1.429 . S
C2441 C2442 1.523 . S
C2442 C2426 1.368 . S
C2442 C2438 1.368 . S
C2442 C2441 1.523 . S
H2443 C2418 0.950 . S
H2444 C2420 0.950 . S
H2445 C2421 0.949 . S
H2446 C2423 0.950 . S
H2447 C2425 0.950 . S
C2448 C2449 1.349 . S
C2448 C2450 1.327 . S
C2448 H2473 0.950 . S
C2449 C2448 1.349 . S
C2449 C2465 1.349 . S
C2450 C2448 1.327 . S
C2450 C2469 1.429 . S
C2450 H2474 0.950 . S
C2451 C2468 1.574 . S
C2451 C2470 1.368 . S
C2451 H2475 0.949 . S
H2452 C2456 0.949 . S
C2453 C2454 1.349 . S
C2453 C2455 1.327 . S
C2453 H2476 0.950 . S
C2454 C2453 1.349 . S
C2454 C2466 1.349 . S
C2455 C2453 1.327 . S
C2455 C2471 1.429 . S
C2455 H2477 0.950 . S
C2456 H2452 0.949 . S
C2456 C2464 1.574 . S
C2456 C2472 1.368 . S
H2457 C2465 0.950 . S
H2458 C2463 0.950 . S
H2459 C2464 0.949 . S
H2460 C2466 0.950 . S
H2461 C2467 0.950 . S
H2462 C2468 0.949 . S
C2463 H2458 0.950 . S
C2463 C2465 1.327 . S
C2463 C2469 1.429 . S
C2464 C2456 1.574 . S
C2464 H2459 0.949 . S
C2464 C2470 1.368 . S
C2465 C2449 1.349 . S
C2465 H2457 0.950 . S
C2465 C2463 1.327 . S
C2466 C2454 1.349 . S
C2466 H2460 0.950 . S
C2466 C2467 1.327 . S
C2467 H2461 0.950 . S
C2467 C2466 1.327 . S
C2467 C2471 1.429 . S
C2468 C2451 1.574 . S
C2468 H2462 0.949 . S
C2468 C2472 1.368 . S
C2469 C2450 1.429 . S
C2469 C2463 1.429 . S
C2469 C2470 1.523 . S
C2470 C2451 1.368 . S
C2470 C2464 1.368 . S
C2470 C2469 1.523 . S
C2471 C2455 1.429 . S
C2471 C2467 1.429 . S
C2471 C2472 1.523 . S
C2472 C2456 1.368 . S
C2472 C2468 1.368 . S
C2472 C2471 1.523 . S
H2473 C2448 0.950 . S
H2474 C2450 0.950 . S
H2475 C2451 0.949 . S
H2476 C2453 0.950 . S
H2477 C2455 0.950 . S
C2478 C2479 1.349 . S
C2478 C2480 1.327 . S
C2478 H2503 0.950 . S
C2479 C2478 1.349 . S
C2479 C2495 1.349 . S
C2480 C2478 1.327 . S
C2480 C2499 1.429 . S
C2480 H2504 0.950 . S
C2481 C2498 1.574 . S
C2481 C2500 1.368 . S
C2481 H2505 0.949 . S
H2482 C2486 0.949 . S
C2483 C2484 1.349 . S
C2483 C2485 1.327 . S
C2483 H2506 0.950 . S
C2484 C2483 1.349 . S
C2484 C2496 1.349 . S
C2485 C2483 1.327 . S
C2485 C2501 1.429 . S
C2485 H2507 0.950 . S
C2486 H2482 0.949 . S
C2486 C2494 1.574 . S
C2486 C2502 1.368 . S
H2487 C2495 0.950 . S
H2488 C2493 0.950 . S
H2489 C2494 0.949 . S
H2490 C2496 0.950 . S
H2491 C2497 0.950 . S
H2492 C2498 0.949 . S
C2493 H2488 0.950 . S
C2493 C2495 1.327 . S
C2493 C2499 1.429 . S
C2494 C2486 1.574 . S
C2494 H2489 0.949 . S
C2494 C2500 1.368 . S
C2495 C2479 1.349 . S
C2495 H2487 0.950 . S
C2495 C2493 1.327 . S
C2496 C2484 1.349 . S
C2496 H2490 0.950 . S
C2496 C2497 1.327 . S
C2497 H2491 0.950 . S
C2497 C2496 1.327 . S
C2497 C2501 1.429 . S
C2498 C2481 1.574 . S
C2498 H2492 0.949 . S
C2498 C2502 1.368 . S
C2499 C2480 1.429 . S
C2499 C2493 1.429 . S
C2499 C2500 1.523 . S
C2500 C2481 1.368 . S
C2500 C2494 1.368 . S
C2500 C2499 1.523 . S
C2501 C2485 1.429 . S
C2501 C2497 1.429 . S
C2501 C2502 1.523 . S
C2502 C2486 1.368 . S
C2502 C2498 1.368 . S
C2502 C2501 1.523 . S
H2503 C2478 0.950 . S
H2504 C2480 0.950 . S
H2505 C2481 0.949 . S
H2506 C2483 0.950 . S
H2507 C2485 0.950 . S
C2508 C2509 1.349 . S
C2508 C2510 1.327 . S
C2508 H2533 0.950 . S
C2509 C2508 1.349 . S
C2509 C2525 1.349 . S
C2510 C2508 1.327 . S
C2510 C2529 1.429 . S
C2510 H2534 0.950 . S
C2511 C2528 1.574 . S
C2511 C2530 1.368 . S
C2511 H2535 0.949 . S
H2512 C2516 0.949 . S
C2513 C2514 1.349 . S
C2513 C2515 1.327 . S
C2513 H2536 0.950 . S
C2514 C2513 1.349 . S
C2514 C2526 1.349 . S
C2515 C2513 1.327 . S
C2515 C2531 1.429 . S
C2515 H2537 0.950 . S
C2516 H2512 0.949 . S
C2516 C2524 1.574 . S
C2516 C2532 1.368 . S
H2517 C2525 0.950 . S
H2518 C2523 0.950 . S
H2519 C2524 0.949 . S
H2520 C2526 0.950 . S
H2521 C2527 0.950 . S
H2522 C2528 0.949 . S
C2523 H2518 0.950 . S
C2523 C2525 1.327 . S
C2523 C2529 1.429 . S
C2524 C2516 1.574 . S
C2524 H2519 0.949 . S
C2524 C2530 1.368 . S
C2525 C2509 1.349 . S
C2525 H2517 0.950 . S
C2525 C2523 1.327 . S
C2526 C2514 1.349 . S
C2526 H2520 0.950 . S
C2526 C2527 1.327 . S
C2527 H2521 0.950 . S
C2527 C2526 1.327 . S
C2527 C2531 1.429 . S
C2528 C2511 1.574 . S
C2528 H2522 0.949 . S
C2528 C2532 1.368 . S
C2529 C2510 1.429 . S
C2529 C2523 1.429 . S
C2529 C2530 1.523 . S
C2530 C2511 1.368 . S
C2530 C2524 1.368 . S
C2530 C2529 1.523 . S
C2531 C2515 1.429 . S
C2531 C2527 1.429 . S
C2531 C2532 1.523 . S
C2532 C2516 1.368 . S
C2532 C2528 1.368 . S
C2532 C2531 1.523 . S
H2533 C2508 0.950 . S
H2534 C2510 0.950 . S
H2535 C2511 0.949 . S
H2536 C2513 0.950 . S
H2537 C2515 0.950 . S
C2538 C2539 1.349 . S
C2538 C2540 1.327 . S
C2538 H2563 0.950 . S
C2539 C2538 1.349 . S
C2539 C2555 1.349 . S
C2540 C2538 1.327 . S
C2540 C2559 1.429 . S
C2540 H2564 0.950 . S
C2541 C2558 1.574 . S
C2541 C2560 1.368 . S
C2541 H2565 0.949 . S
H2542 C2546 0.949 . S
C2543 C2544 1.349 . S
C2543 C2545 1.327 . S
C2543 H2566 0.950 . S
C2544 C2543 1.349 . S
C2544 C2556 1.349 . S
C2545 C2543 1.327 . S
C2545 C2561 1.429 . S
C2545 H2567 0.950 . S
C2546 H2542 0.949 . S
C2546 C2554 1.574 . S
C2546 C2562 1.368 . S
H2547 C2555 0.950 . S
H2548 C2553 0.950 . S
H2549 C2554 0.949 . S
H2550 C2556 0.950 . S
H2551 C2557 0.950 . S
H2552 C2558 0.949 . S
C2553 H2548 0.950 . S
C2553 C2555 1.327 . S
C2553 C2559 1.429 . S
C2554 C2546 1.574 . S
C2554 H2549 0.949 . S
C2554 C2560 1.368 . S
C2555 C2539 1.349 . S
C2555 H2547 0.950 . S
C2555 C2553 1.327 . S
C2556 C2544 1.349 . S
C2556 H2550 0.950 . S
C2556 C2557 1.327 . S
C2557 H2551 0.950 . S
C2557 C2556 1.327 . S
C2557 C2561 1.429 . S
C2558 C2541 1.574 . S
C2558 H2552 0.949 . S
C2558 C2562 1.368 . S
C2559 C2540 1.429 . S
C2559 C2553 1.429 . S
C2559 C2560 1.523 . S
C2560 C2541 1.368 . S
C2560 C2554 1.368 . S
C2560 C2559 1.523 . S
C2561 C2545 1.429 . S
C2561 C2557 1.429 . S
C2561 C2562 1.523 . S
C2562 C2546 1.368 . S
C2562 C2558 1.368 . S
C2562 C2561 1.523 . S
H2563 C2538 0.950 . S
H2564 C2540 0.950 . S
H2565 C2541 0.949 . S
H2566 C2543 0.950 . S
H2567 C2545 0.950 . S
C2568 C2569 1.349 . S
C2568 C2570 1.327 . S
C2568 H2593 0.950 . S
C2569 C2568 1.349 . S
C2569 C2585 1.349 . S
C2570 C2568 1.327 . S
C2570 C2589 1.429 . S
C2570 H2594 0.950 . S
C2571 C2588 1.574 . S
C2571 C2590 1.368 . S
C2571 H2595 0.949 . S
H2572 C2576 0.949 . S
C2573 C2574 1.349 . S
C2573 C2575 1.327 . S
C2573 H2596 0.950 . S
C2574 C2573 1.349 . S
C2574 C2586 1.349 . S
C2575 C2573 1.327 . S
C2575 C2591 1.429 . S
C2575 H2597 0.950 . S
C2576 H2572 0.949 . S
C2576 C2584 1.574 . S
C2576 C2592 1.368 . S
H2577 C2585 0.950 . S
H2578 C2583 0.950 . S
H2579 C2584 0.949 . S
H2580 C2586 0.950 . S
H2581 C2587 0.950 . S
H2582 C2588 0.949 . S
C2583 H2578 0.950 . S
C2583 C2585 1.327 . S
C2583 C2589 1.429 . S
C2584 C2576 1.574 . S
C2584 H2579 0.949 . S
C2584 C2590 1.368 . S
C2585 C2569 1.349 . S
C2585 H2577 0.950 . S
C2585 C2583 1.327 . S
C2586 C2574 1.349 . S
C2586 H2580 0.950 . S
C2586 C2587 1.327 . S
C2587 H2581 0.950 . S
C2587 C2586 1.327 . S
C2587 C2591 1.429 . S
C2588 C2571 1.574 . S
C2588 H2582 0.949 . S
C2588 C2592 1.368 . S
C2589 C2570 1.429 . S
C2589 C2583 1.429 . S
C2589 C2590 1.523 . S
C2590 C2571 1.368 . S
C2590 C2584 1.368 . S
C2590 C2589 1.523 . S
C2591 C2575 1.429 . S
C2591 C2587 1.429 . S
C2591 C2592 1.523 . S
C2592 C2576 1.368 . S
C2592 C2588 1.368 . S
C2592 C2591 1.523 . S
H2593 C2568 0.950 . S
H2594 C2570 0.950 . S
H2595 C2571 0.949 . S
H2596 C2573 0.950 . S
H2597 C2575 0.950 . S
C2598 C2599 1.349 . S
C2598 C2600 1.327 . S
C2598 H2623 0.950 . S
C2599 C2598 1.349 . S
C2599 C2615 1.349 . S
C2600 C2598 1.327 . S
C2600 C2619 1.429 . S
C2600 H2624 0.950 . S
C2601 C2618 1.574 . S
C2601 C2620 1.368 . S
C2601 H2625 0.949 . S
H2602 C2606 0.949 . S
C2603 C2604 1.349 . S
C2603 C2605 1.327 . S
C2603 H2626 0.950 . S
C2604 C2603 1.349 . S
C2604 C2616 1.349 . S
C2605 C2603 1.327 . S
C2605 C2621 1.429 . S
C2605 H2627 0.950 . S
C2606 H2602 0.949 . S
C2606 C2614 1.574 . S
C2606 C2622 1.368 . S
H2607 C2615 0.950 . S
H2608 C2613 0.950 . S
H2609 C2614 0.949 . S
H2610 C2616 0.950 . S
H2611 C2617 0.950 . S
H2612 C2618 0.949 . S
C2613 H2608 0.950 . S
C2613 C2615 1.327 . S
C2613 C2619 1.429 . S
C2614 C2606 1.574 . S
C2614 H2609 0.949 . S
C2614 C2620 1.368 . S
C2615 C2599 1.349 . S
C2615 H2607 0.950 . S
C2615 C2613 1.327 . S
C2616 C2604 1.349 . S
C2616 H2610 0.950 . S
C2616 C2617 1.327 . S
C2617 H2611 0.950 . S
C2617 C2616 1.327 . S
C2617 C2621 1.429 . S
C2618 C2601 1.574 . S
C2618 H2612 0.949 . S
C2618 C2622 1.368 . S
C2619 C2600 1.429 . S
C2619 C2613 1.429 . S
C2619 C2620 1.523 . S
C2620 C2601 1.368 . S
C2620 C2614 1.368 . S
C2620 C2619 1.523 . S
C2621 C2605 1.429 . S
C2621 C2617 1.429 . S
C2621 C2622 1.523 . S
C2622 C2606 1.368 . S
C2622 C2618 1.368 . S
C2622 C2621 1.523 . S
H2623 C2598 0.950 . S
H2624 C2600 0.950 . S
H2625 C2601 0.949 . S
H2626 C2603 0.950 . S
H2627 C2605 0.950 . S
C2628 C2629 1.349 . S
C2628 C2630 1.327 . S
C2628 H2653 0.950 . S
C2629 C2628 1.349 . S
C2629 C2645 1.349 . S
C2630 C2628 1.327 . S
C2630 C2649 1.429 . S
C2630 H2654 0.950 . S
C2631 C2648 1.574 . S
C2631 C2650 1.368 . S
C2631 H2655 0.949 . S
H2632 C2636 0.949 . S
C2633 C2634 1.349 . S
C2633 C2635 1.327 . S
C2633 H2656 0.950 . S
C2634 C2633 1.349 . S
C2634 C2646 1.349 . S
C2635 C2633 1.327 . S
C2635 C2651 1.429 . S
C2635 H2657 0.950 . S
C2636 H2632 0.949 . S
C2636 C2644 1.574 . S
C2636 C2652 1.368 . S
H2637 C2645 0.950 . S
H2638 C2643 0.950 . S
H2639 C2644 0.949 . S
H2640 C2646 0.950 . S
H2641 C2647 0.950 . S
H2642 C2648 0.949 . S
C2643 H2638 0.950 . S
C2643 C2645 1.327 . S
C2643 C2649 1.429 . S
C2644 C2636 1.574 . S
C2644 H2639 0.949 . S
C2644 C2650 1.368 . S
C2645 C2629 1.349 . S
C2645 H2637 0.950 . S
C2645 C2643 1.327 . S
C2646 C2634 1.349 . S
C2646 H2640 0.950 . S
C2646 C2647 1.327 . S
C2647 H2641 0.950 . S
C2647 C2646 1.327 . S
C2647 C2651 1.429 . S
C2648 C2631 1.574 . S
C2648 H2642 0.949 . S
C2648 C2652 1.368 . S
C2649 C2630 1.429 . S
C2649 C2643 1.429 . S
C2649 C2650 1.523 . S
C2650 C2631 1.368 . S
C2650 C2644 1.368 . S
C2650 C2649 1.523 . S
C2651 C2635 1.429 . S
C2651 C2647 1.429 . S
C2651 C2652 1.523 . S
C2652 C2636 1.368 . S
C2652 C2648 1.368 . S
C2652 C2651 1.523 . S
H2653 C2628 0.950 . S
H2654 C2630 0.950 . S
H2655 C2631 0.949 . S
H2656 C2633 0.950 . S
H2657 C2635 0.950 . S
C2658 C2659 1.349 . S
C2658 C2660 1.327 . S
C2658 H2683 0.950 . S
C2659 C2658 1.349 . S
C2659 C2675 1.349 . S
C2660 C2658 1.327 . S
C2660 C2679 1.429 . S
C2660 H2684 0.950 . S
C2661 C2678 1.574 . S
C2661 C2680 1.368 . S
C2661 H2685 0.949 . S
H2662 C2666 0.949 . S
C2663 C2664 1.349 . S
C2663 C2665 1.327 . S
C2663 H2686 0.950 . S
C2664 C2663 1.349 . S
C2664 C2676 1.349 . S
C2665 C2663 1.327 . S
C2665 C2681 1.429 . S
C2665 H2687 0.950 . S
C2666 H2662 0.949 . S
C2666 C2674 1.574 . S
C2666 C2682 1.368 . S
H2667 C2675 0.950 . S
H2668 C2673 0.950 . S
H2669 C2674 0.949 . S
H2670 C2676 0.950 . S
H2671 C2677 0.950 . S
H2672 C2678 0.949 . S
C2673 H2668 0.950 . S
C2673 C2675 1.327 . S
C2673 C2679 1.429 . S
C2674 C2666 1.574 . S
C2674 H2669 0.949 . S
C2674 C2680 1.368 . S
C2675 C2659 1.349 . S
C2675 H2667 0.950 . S
C2675 C2673 1.327 . S
C2676 C2664 1.349 . S
C2676 H2670 0.950 . S
C2676 C2677 1.327 . S
C2677 H2671 0.950 . S
C2677 C2676 1.327 . S
C2677 C2681 1.429 . S
C2678 C2661 1.574 . S
C2678 H2672 0.949 . S
C2678 C2682 1.368 . S
C2679 C2660 1.429 . S
C2679 C2673 1.429 . S
C2679 C2680 1.523 . S
C2680 C2661 1.368 . S
C2680 C2674 1.368 . S
C2680 C2679 1.523 . S
C2681 C2665 1.429 . S
C2681 C2677 1.429 . S
C2681 C2682 1.523 . S
C2682 C2666 1.368 . S
C2682 C2678 1.368 . S
C2682 C2681 1.523 . S
H2683 C2658 0.950 . S
H2684 C2660 0.950 . S
H2685 C2661 0.949 . S
H2686 C2663 0.950 . S
H2687 C2665 0.950 . S
C534 C258 0.967 . S
C529 C212 0.996 . S
C559 C194 1.030 . S
C564 C252 0.991 . S
C594 C220 1.124 . S
C589 C185 1.182 . S
C619 C203 1.205 . S
C624 C234 1.137 . S
C654 C272 1.562 . S
C649 C149 1.657 . S
C684 C359 1.067 . S
C679 C158 1.089 . S
C709 C167 1.700 . S
C714 C286 1.618 . S
C744 C354 0.712 . S
C739 C176 0.708 . S
C769 C113 1.713 . S
C774 C310 1.628 . S
C804 C365 1.124 . S
C799 C122 1.150 . S
C829 C131 1.644 . S
C834 C304 1.570 . S
C859 C140 0.758 . S
C864 C350 0.758 . S
C894 C406 0.760 . S
C889 C104 0.761 . S
C919 C86 1.198 . S
C924 C417 1.178 . S
C949 C77 0.840 . S
C954 C402 0.835 . S
C984 C411 1.244 . S
C979 C95 1.266 . S
C1009 C41 1.137 1_455 S
C1014 C456 1.093 . S
C1039 C50 0.230 . S
C1044 C515 0.338 . S
C1069 C59 1.297 . S
C1074 C472 1.219 . S
C1099 C68 0.683 . S
C1104 C510 0.691 . S
C1134 C474 1.254 . S
C1129 C5 1.328 . S
C1164 C521 0.312 . S
C1159 C14 0.188 . S
C1189 C23 1.126 . S
C1194 C450 1.077 . S
C1224 C506 0.650 . S
C1219 C32 0.636 . S
C1254 C242 1.517 . S
C1249 C4 1.540 . S
C1279 C16 1.256 . S
C1284 C246 1.282 . S
C1309 C22 1.585 . S
C1314 C266 1.541 . S
C1339 C31 0.967 . S
C1344 C261 0.978 . S
C1369 C40 1.600 . S
C1374 C264 1.564 . S
C1404 C250 1.255 . S
C1399 C49 1.236 . S
C1429 C61 1.507 . S
C1434 C248 1.485 . S
C1464 C255 0.942 . S
C1459 C70 0.926 . S
C1494 C318 1.516 . S
C1489 C34 1.544 . S
C1519 C7 1.871 . S
C1524 C368 1.825 . S
C1554 C316 1.224 . S
C1549 C13 1.251 . S
C1584 C352 1.721 . S
C1579 C25 1.759 . S
C1609 C52 1.160 . S
C1614 C294 1.147 . S
C1644 C370 1.800 . S
C1639 C58 1.858 . S
C1674 C300 1.475 . S
C1669 C67 1.498 . S
C1704 C346 1.737 . S
C1699 C43 1.772 . S
C1734 C338 1.486 . S
C1729 C76 1.496 . S
C1759 C88 1.269 . S
C1764 C362 1.283 . S
C1794 C298 1.178 . S
C1789 C79 1.151 . S
C1824 C324 1.328 . S
C1819 C97 1.323 . S
C1849 C103 1.122 . S
C1854 C302 1.141 . S
C1879 C106 1.411 . S
C1884 C356 1.419 . S
C1914 C313 1.453 . S
C1909 C85 1.415 . S
C1944 C307 1.502 . S
C1939 C94 1.459 . S
C1974 C390 1.901 . S
C1969 C112 1.927 . S
C2004 C422 1.472 . S
C1999 C124 1.464 . S
C2029 C133 1.893 . S
C2034 C376 1.883 . S
C2064 C420 1.157 . S
C2059 C139 1.177 . S
C2094 C408 1.869 . S
C2089 C148 1.886 . S
C2119 C157 1.402 . S
C2124 C404 1.409 . S
C2149 C169 1.916 . S
C2154 C414 1.925 . S
C2184 C398 1.088 . S
C2179 C178 1.093 . S
C2214 C463 1.375 . S
C2209 C142 1.341 . S
C2239 C115 1.547 . S
C2244 C524 1.541 . S
C2274 C458 1.086 . S
C2269 C121 1.059 . S
C2304 C508 1.520 . S
C2299 C130 1.507 . S
C2334 C454 1.023 . S
C2329 C160 0.998 . S
C2359 C166 1.493 . S
C2364 C526 1.489 . S
C2394 C469 1.344 . S
C2389 C175 1.321 . S
C2424 C502 1.408 . S
C2419 C151 1.413 . S
C2454 C494 1.633 . S
C2449 C184 1.668 . S
C2479 C196 1.747 . S
C2484 C518 1.702 . S
C2514 C460 1.396 . S
C2509 C187 1.410 . S
C2539 C205 1.826 . S
C2544 C480 1.772 . S
C2574 C442 1.457 . S
C2569 C211 1.490 . S
C2604 C512 1.537 . S
C2599 C214 1.551 . S
C2634 C428 1.410 . S
C2629 C193 1.451 . S
C2659 C202 1.395 . S
C2664 C466 1.366 . S
