# Generated by pormake.
# Topology ptr, (4,4)-cn, num edge types: 1
# Building blocks:
#     Node 0, Type 0, BuildingBlock: TATPOV_clean_sbu_0, # of connection points: 4
#     Node 1, Type 0, BuildingBlock: TATPOV_clean_sbu_0, # of connection points: 4
#     Node 2, Type 0, BuildingBlock: TATPOV_clean_sbu_0, # of connection points: 4
#     Node 3, Type 0, BuildingBlock: TATPOV_clean_sbu_0, # of connection points: 4
#     Node 4, Type 0, BuildingBlock: TATPOV_clean_sbu_0, # of connection points: 4
#     Node 5, Type 0, BuildingBlock: TATPOV_clean_sbu_0, # of connection points: 4
#     Node 6, Type 0, BuildingBlock: TATPOV_clean_sbu_0, # of connection points: 4
#     Node 7, Type 0, BuildingBlock: TATPOV_clean_sbu_0, # of connection points: 4
#     Node 8, Type 0, BuildingBlock: TATPOV_clean_sbu_0, # of connection points: 4
#     Node 9, Type 0, BuildingBlock: TATPOV_clean_sbu_0, # of connection points: 4
#     Node 10, Type 0, BuildingBlock: TATPOV_clean_sbu_0, # of connection points: 4
#     Node 11, Type 0, BuildingBlock: TATPOV_clean_sbu_0, # of connection points: 4
#     Node 12, Type 0, BuildingBlock: TATPOV_clean_sbu_0, # of connection points: 4
#     Node 13, Type 0, BuildingBlock: TATPOV_clean_sbu_0, # of connection points: 4
#     Node 14, Type 0, BuildingBlock: TATPOV_clean_sbu_0, # of connection points: 4
#     Node 15, Type 0, BuildingBlock: TATPOV_clean_sbu_0, # of connection points: 4
#     Node 16, Type 0, BuildingBlock: TATPOV_clean_sbu_0, # of connection points: 4
#     Node 17, Type 0, BuildingBlock: TATPOV_clean_sbu_0, # of connection points: 4
#     Node 18, Type 1, BuildingBlock: GIZVER_clean_linker_0, # of connection points: 4
#     Node 19, Type 1, BuildingBlock: GIZVER_clean_linker_0, # of connection points: 4
#     Node 20, Type 1, BuildingBlock: GIZVER_clean_linker_0, # of connection points: 4
#     Node 21, Type 1, BuildingBlock: GIZVER_clean_linker_0, # of connection points: 4
#     Node 22, Type 1, BuildingBlock: GIZVER_clean_linker_0, # of connection points: 4
#     Node 23, Type 1, BuildingBlock: GIZVER_clean_linker_0, # of connection points: 4
#     Node 24, Type 1, BuildingBlock: GIZVER_clean_linker_0, # of connection points: 4
#     Node 25, Type 1, BuildingBlock: GIZVER_clean_linker_0, # of connection points: 4
#     Node 26, Type 1, BuildingBlock: GIZVER_clean_linker_0, # of connection points: 4
#     Node 27, Type 1, BuildingBlock: GIZVER_clean_linker_0, # of connection points: 4
#     Node 28, Type 1, BuildingBlock: GIZVER_clean_linker_0, # of connection points: 4
#     Node 29, Type 1, BuildingBlock: GIZVER_clean_linker_0, # of connection points: 4
#     Node 30, Type 1, BuildingBlock: GIZVER_clean_linker_0, # of connection points: 4
#     Node 31, Type 1, BuildingBlock: GIZVER_clean_linker_0, # of connection points: 4
#     Node 32, Type 1, BuildingBlock: GIZVER_clean_linker_0, # of connection points: 4
#     Node 33, Type 1, BuildingBlock: GIZVER_clean_linker_0, # of connection points: 4
#     Node 34, Type 1, BuildingBlock: GIZVER_clean_linker_0, # of connection points: 4
#     Node 35, Type 1, BuildingBlock: GIZVER_clean_linker_0, # of connection points: 4
#     Edge 36, Type (0, 1), None
#     Edge 37, Type (0, 1), None
#     Edge 38, Type (0, 1), None
#     Edge 39, Type (0, 1), None
#     Edge 40, Type (0, 1), None
#     Edge 41, Type (0, 1), None
#     Edge 42, Type (0, 1), None
#     Edge 43, Type (0, 1), None
#     Edge 44, Type (0, 1), None
#     Edge 45, Type (0, 1), None
#     Edge 46, Type (0, 1), None
#     Edge 47, Type (0, 1), None
#     Edge 48, Type (0, 1), None
#     Edge 49, Type (0, 1), None
#     Edge 50, Type (0, 1), None
#     Edge 51, Type (0, 1), None
#     Edge 52, Type (0, 1), None
#     Edge 53, Type (0, 1), None
#     Edge 54, Type (0, 1), None
#     Edge 55, Type (0, 1), None
#     Edge 56, Type (0, 1), None
#     Edge 57, Type (0, 1), None
#     Edge 58, Type (0, 1), None
#     Edge 59, Type (0, 1), None
#     Edge 60, Type (0, 1), None
#     Edge 61, Type (0, 1), None
#     Edge 62, Type (0, 1), None
#     Edge 63, Type (0, 1), None
#     Edge 64, Type (0, 1), None
#     Edge 65, Type (0, 1), None
#     Edge 66, Type (0, 1), None
#     Edge 67, Type (0, 1), None
#     Edge 68, Type (0, 1), None
#     Edge 69, Type (0, 1), None
#     Edge 70, Type (0, 1), None
#     Edge 71, Type (0, 1), None
#     Edge 72, Type (0, 1), None
#     Edge 73, Type (0, 1), None
#     Edge 74, Type (0, 1), None
#     Edge 75, Type (0, 1), None
#     Edge 76, Type (0, 1), None
#     Edge 77, Type (0, 1), None
#     Edge 78, Type (0, 1), None
#     Edge 79, Type (0, 1), None
#     Edge 80, Type (0, 1), None
#     Edge 81, Type (0, 1), None
#     Edge 82, Type (0, 1), None
#     Edge 83, Type (0, 1), None
#     Edge 84, Type (0, 1), None
#     Edge 85, Type (0, 1), None
#     Edge 86, Type (0, 1), None
#     Edge 87, Type (0, 1), None
#     Edge 88, Type (0, 1), None
#     Edge 89, Type (0, 1), None
#     Edge 90, Type (0, 1), None
#     Edge 91, Type (0, 1), None
#     Edge 92, Type (0, 1), None
#     Edge 93, Type (0, 1), None
#     Edge 94, Type (0, 1), None
#     Edge 95, Type (0, 1), None
#     Edge 96, Type (0, 1), None
#     Edge 97, Type (0, 1), None
#     Edge 98, Type (0, 1), None
#     Edge 99, Type (0, 1), None
#     Edge 100, Type (0, 1), None
#     Edge 101, Type (0, 1), None
#     Edge 102, Type (0, 1), None
#     Edge 103, Type (0, 1), None
#     Edge 104, Type (0, 1), None
#     Edge 105, Type (0, 1), None
#     Edge 106, Type (0, 1), None
#     Edge 107, Type (0, 1), None
# Relax obj value: 0.070
# Max RMSD: 0.195
# Mean RMSD: 0.117
data_MOF--net-ptr--node1-TATPOV_clean_sbu_0--node2-GIZVER_clean_linker_0--edge1-none
_symmetry_space_group_name_H-M    P1
_symmetry_Int_Tables_number       1
_symmetry_cell_setting            triclinic
loop_
_symmetry_equiv_pos_as_xyz
'x, y, z'
_cell_length_a     37.493449
_cell_length_b     38.755646
_cell_length_c     21.855421
_cell_angle_alpha  88.864323
_cell_angle_beta   92.392843
_cell_angle_gamma 121.43266
loop_
_atom_site_label
_atom_site_type_symbol
_atom_site_fract_x
_atom_site_fract_y
_atom_site_fract_z
_atom_type_partial_charge
Zn0 Zn 0.90697 0.33791 0.97121 0.0
Zn1 Zn 0.98495 0.34488 0.99234 0.0
O2 O 0.94506 0.28754 0.96565 0.0
O3 O 0.88111 0.27643 0.95752 0.0
O4 O 0.03289 0.34108 0.03108 0.0
O5 O 0.90894 0.3605 0.0572 0.0
O6 O 0.96846 0.36236 0.06661 0.0
C7 C 0.90611 0.26373 0.95496 0.0
C8 C 0.97577 0.38772 0.88268 0.0
O9 O -7e-05 0.38063 0.91631 0.0
O10 O 0.93812 0.37397 0.89694 0.0
C11 C 0.06305 0.33761 0.01479 0.0
O12 O 0.07082 0.33918 0.95642 0.0
C13 C 0.94117 0.36793 0.089 0.0
Zn14 Zn 0.68995 0.59288 0.04207 0.0
Zn15 Zn 0.65968 0.64262 0.03217 0.0
O16 O 0.71944 0.6763 0.0051 0.0
O17 O 0.74901 0.64092 0.02625 0.0
O18 O 0.64269 0.68164 0.05278 0.0
O19 O 0.66673 0.56861 0.12494 0.0
O20 O 0.64379 0.61013 0.11121 0.0
C21 C 0.75121 0.67268 0.00505 0.0
C22 C 0.62838 0.58077 0.93949 0.0
O23 O 0.62639 0.61028 0.95921 0.0
O24 O 0.65113 0.56942 0.96669 0.0
C25 C 0.66078 0.71878 0.03867 0.0
O26 O 0.68874 0.73302 -0.00386 0.0
C27 C 0.64602 0.58349 0.14315 0.0
Zn28 Zn 0.39139 0.9785 0.02802 0.0
Zn29 Zn 0.3485 0.0268 0.00365 0.0
O30 O 0.30232 0.97312 0.034 0.0
O31 O 0.33354 0.93982 0.06318 0.0
O32 O 0.31796 0.0549 0.97604 0.0
O33 O 0.39328 0.97613 0.93752 0.0
O34 O 0.37419 0.02114 0.92274 0.0
C35 C 0.30118 0.94258 0.05853 0.0
C36 C 0.40891 0.04346 0.09795 0.0
O37 O 0.38279 0.05372 0.08283 0.0
O38 O 0.42556 0.03746 0.05378 0.0
C39 C 0.28822 0.03246 0.9385 0.0
O40 O 0.28191 -0.0033 0.92535 0.0
C41 C 0.38758 -0.00068 0.90215 0.0
Zn42 Zn 0.06468 0.59555 0.00356 0.0
Zn43 Zn -0.0029 0.60502 0.99115 0.0
O44 O 0.04483 0.65767 0.02403 0.0
O45 O 0.1022 0.65526 0.02374 0.0
O46 O 0.9536 0.6185 0.96602 0.0
O47 O 0.05657 0.57395 0.91834 0.0
O48 O 0.00368 0.58355 0.91078 0.0
C49 C 0.08391 0.6741 0.03474 0.0
C50 C -0.003 0.55194 0.0911 0.0
O51 O 0.9775 0.56637 0.06212 0.0
O52 O 0.03206 0.55895 0.07375 0.0
C53 C 0.94692 0.64443 0.98914 0.0
O54 O 0.96393 0.66017 0.04302 0.0
C55 C 0.02658 0.57244 0.88728 0.0
Zn56 Zn 0.40801 0.4339 0.01524 0.0
Zn57 Zn 0.38307 0.35392 0.0128 0.0
O58 O 0.32725 0.34964 0.0262 0.0
O59 O 0.34622 0.4136 0.03352 0.0
O60 O 0.36711 0.29691 0.98791 0.0
O61 O 0.43393 0.44717 0.93139 0.0
O62 O 0.41511 0.38317 0.93651 0.0
C63 C 0.31808 0.37631 0.03606 0.0
C64 C 0.44281 0.40859 0.11608 0.0
O65 O 0.41871 0.37294 0.09421 0.0
O66 O 0.44557 0.43898 0.08871 0.0
C67 C 0.3319 0.26402 0.99201 0.0
O68 O 0.30335 0.26297 0.02617 0.0
C69 C 0.43298 0.41693 0.90875 0.0
Zn70 Zn 0.62309 0.05718 0.02074 0.0
Zn71 Zn 0.59039 0.97628 0.00923 0.0
O72 O 0.65135 0.00807 0.98467 0.0
O73 O 0.68349 0.07154 0.01388 0.0
O74 O 0.58092 0.92186 0.03596 0.0
O75 O 0.59636 0.05297 0.10242 0.0
O76 O 0.56924 -0.01171 0.08432 0.0
C77 C 0.68449 0.04281 0.98914 0.0
C78 C 0.56439 0.01002 0.91108 0.0
O79 O 0.55743 0.97663 0.93416 0.0
O80 O 0.58914 0.04352 0.93808 0.0
C81 C 0.60659 0.91093 0.02476 0.0
O82 O 0.63201 0.92829 0.97943 0.0
C83 C 0.57221 0.01639 0.11691 0.0
Zn84 Zn 0.58669 0.68503 0.34222 0.0
Zn85 Zn 0.66992 0.71145 0.36307 0.0
O86 O 0.63937 0.65338 0.33391 0.0
O87 O 0.57117 0.6261 0.32996 0.0
O88 O 0.72477 0.71905 0.39396 0.0
O89 O 0.58514 0.70643 0.42689 0.0
O90 O 0.65065 0.72337 0.44117 0.0
C91 C 0.60282 0.62295 0.32401 0.0
C92 C 0.64931 0.74527 0.25398 0.0
O93 O 0.67834 0.74763 0.28948 0.0
O94 O 0.6111 0.72188 0.26648 0.0
C95 C 0.74074 0.70015 0.3722 0.0
O96 O 0.72726 0.68283 0.3182 0.0
C97 C 0.61793 0.72066 0.46109 0.0
Zn98 Zn 0.22201 0.87212 0.27516 0.0
Zn99 Zn 0.23676 0.95735 0.29248 0.0
O100 O 0.29344 0.97011 0.26709 0.0
O101 O 0.28237 0.90948 0.24512 0.0
O102 O 0.24571 0.00903 0.32622 0.0
O103 O 0.21818 0.86409 0.36566 0.0
O104 O 0.21785 0.92096 0.37058 0.0
C105 C 0.30611 0.94785 0.24723 0.0
C106 C 0.18621 0.90505 0.20107 0.0
O107 O 0.2021 0.94227 0.21171 0.0
O108 O 0.17616 0.88312 0.24818 0.0
C109 C 0.27765 0.04369 0.31665 0.0
O110 O 0.30215 0.04812 0.27208 0.0
C111 C 0.21368 0.88905 0.39603 0.0
Zn112 Zn 0.02497 0.23087 0.3247 0.0
Zn113 Zn 0.0206 0.29677 0.33185 0.0
O114 O 0.96535 0.24915 0.35969 0.0
O115 O 0.96211 0.19271 0.33737 0.0
O116 O 0.00672 0.34001 0.31836 0.0
O117 O 0.05249 0.24466 0.24273 0.0
O118 O 0.0467 0.29808 0.24882 0.0
C119 C 0.94544 0.21076 0.35941 0.0
C120 C 0.07177 0.28783 0.42865 0.0
O121 O 0.05982 0.31091 0.40638 0.0
O122 O 0.06161 0.25486 0.40226 0.0
C123 C 0.97492 0.3275 0.28217 0.0
O124 O 0.95528 0.28972 0.26347 0.0
C125 C 0.05834 0.27744 0.22014 0.0
Zn126 Zn 0.64303 0.89498 0.36981 0.0
Zn127 Zn 0.59133 0.91841 0.35262 0.0
O128 O 0.64314 0.97068 0.37894 0.0
O129 O 0.68983 0.95258 0.3865 0.0
O130 O 0.54866 0.93414 0.32974 0.0
O131 O 0.63652 0.87287 0.2879 0.0
O132 O 0.59912 0.90029 0.26627 0.0
C133 C 0.68051 0.97952 0.38951 0.0
C134 C 0.58447 0.86126 0.46002 0.0
O135 O 0.57174 0.88229 0.43162 0.0
O136 O 0.61424 0.85901 0.43975 0.0
C137 C 0.55814 0.97083 0.32711 0.0
O138 O 0.59406 -0.00081 0.35133 0.0
C139 C 0.61793 0.88291 0.24864 0.0
Zn140 Zn 0.05262 0.73934 0.34346 0.0
Zn141 Zn 0.02692 0.65998 0.34143 0.0
O142 O 0.97375 0.66031 0.35644 0.0
O143 O -0.00749 0.72428 0.35616 0.0
O144 O 0.00694 0.60099 0.32552 0.0
O145 O 0.07946 0.75152 0.26275 0.0
O146 O 0.05941 0.68694 0.26334 0.0
C147 C 0.96448 0.68731 0.36186 0.0
C148 C 0.08752 0.71282 0.44276 0.0
O149 O 0.06381 0.67732 0.4208 0.0
O150 O 0.08864 0.74299 0.41724 0.0
C151 C 0.97301 0.57903 0.29458 0.0
O152 O 0.949 0.59363 0.28057 0.0
C153 C 0.07841 0.72173 0.23835 0.0
Zn154 Zn 0.32767 0.41232 0.34607 0.0
Zn155 Zn 0.30596 0.33216 0.34439 0.0
O156 O 0.36616 0.36739 0.32029 0.0
O157 O 0.38957 0.43161 0.33695 0.0
O158 O 0.30376 0.28111 0.37269 0.0
O159 O 0.30337 0.40719 0.43043 0.0
O160 O 0.28635 0.34399 0.4209 0.0
C161 C 0.39585 0.4041 0.32053 0.0
C162 C 0.26984 0.35601 0.24278 0.0
O163 O 0.26955 0.32623 0.26929 0.0
O164 O 0.29092 0.39141 0.26579 0.0
C165 C 0.32839 0.27023 0.35529 0.0
O166 O 0.34961 0.28631 0.30568 0.0
C167 C 0.28587 0.37144 0.45071 0.0
Zn168 Zn 0.21003 0.01686 0.61506 0.0
Zn169 Zn 0.28718 0.02492 0.64727 0.0
O170 O 0.25322 0.96724 0.61666 0.0
O171 O 0.19055 0.95767 0.59515 0.0
O172 O 0.33705 0.02928 0.69396 0.0
O173 O 0.20366 0.03586 0.69998 0.0
O174 O 0.26245 0.03732 0.71632 0.0
C175 C 0.21542 0.94463 0.5978 0.0
C176 C 0.28242 0.0702 0.53707 0.0
O177 O 0.30507 0.06302 0.57388 0.0
O178 O 0.24386 0.05546 0.5462 0.0
C179 C 0.35852 0.01416 0.6796 0.0
O180 O 0.35206 -0.00268 0.62546 0.0
C181 C 0.23355 0.04146 0.73594 0.0
Zn182 Zn 0.96835 0.19929 0.68002 0.0
Zn183 Zn 0.95957 0.26354 0.66558 0.0
O184 O 0.0189 0.28419 0.64085 0.0
O185 O 0.0309 0.23585 0.66615 0.0
O186 O 0.95759 0.31297 0.68469 0.0
O187 O 0.94226 0.18011 0.76246 0.0
O188 O 0.93654 0.23307 0.74565 0.0
C189 C 0.04313 0.2704 0.64303 0.0
C190 C 0.91621 0.19992 0.57312 0.0
O191 O 0.92345 0.23417 0.59088 0.0
O192 O 0.93052 0.18114 0.60333 0.0
C193 C 0.98425 0.3496 0.67234 0.0
O194 O 0.01335 0.35791 0.63323 0.0
C195 C 0.93015 0.20325 0.77913 0.0
Zn196 Zn 0.74854 0.63919 0.70418 0.0
Zn197 Zn 0.72084 0.68862 0.68946 0.0
O198 O 0.6692 0.63783 0.72088 0.0
O199 O 0.69002 0.59421 0.72397 0.0
O200 O 0.69761 0.72297 0.6575 0.0
O201 O 0.76873 0.64267 0.62063 0.0
O202 O 0.74336 0.68217 0.60701 0.0
C203 C 0.66182 0.6023 0.73127 0.0
C204 C 0.78557 0.70469 0.79275 0.0
O205 O 0.76158 0.71499 0.76567 0.0
O206 O 0.7871 0.67497 0.77311 0.0
C207 C 0.66852 0.72728 0.67666 0.0
O208 O 0.65354 0.7133 0.73086 0.0
C209 C 0.76058 0.66416 0.58561 0.0
Zn210 Zn 0.40761 0.27094 0.69214 0.0
Zn211 Zn 0.34337 0.28457 0.67817 0.0
O212 O 0.39218 0.33437 0.7138 0.0
O213 O 0.44845 0.33068 0.7079 0.0
O214 O 0.30145 0.3009 0.66366 0.0
O215 O 0.39422 0.24918 0.60466 0.0
O216 O 0.34863 0.2684 0.59241 0.0
C217 C 0.43128 0.35016 0.72143 0.0
C218 C 0.33931 0.23011 0.77898 0.0
O219 O 0.31991 0.24194 0.74388 0.0
O220 O 0.37616 0.23917 0.768 0.0
C221 C 0.31228 0.33709 0.65018 0.0
O222 O 0.35214 0.36536 0.65168 0.0
C223 C 0.36914 0.25415 0.57034 0.0
Zn224 Zn 0.69854 0.08694 0.67998 0.0
Zn225 Zn 0.66005 0.00404 0.67547 0.0
O226 O 0.61086 0.00988 0.69047 0.0
O227 O 0.64003 0.07554 0.70272 0.0
O228 O 0.632 0.94512 0.65088 0.0
O229 O 0.72033 0.09519 0.59293 0.0
O230 O 0.69055 0.02911 0.59737 0.0
C231 C 0.6079 0.04005 0.70343 0.0
C232 C 0.72481 0.05142 0.77823 0.0
O233 O 0.69611 0.01744 0.75573 0.0
O234 O 0.73377 0.08426 0.75169 0.0
C235 C 0.61491 0.90961 0.67307 0.0
O236 O 0.61398 0.90439 0.73267 0.0
C237 C 0.7117 0.0622 0.56874 0.0
Zn238 Zn 0.98644 0.72646 0.67048 0.0
Zn239 Zn 0.96133 0.64694 0.677 0.0
O240 O 0.02118 0.67833 0.64943 0.0
O241 O 0.04741 0.74326 0.66414 0.0
O242 O 0.95454 0.59333 0.70131 0.0
O243 O 0.96191 0.72631 0.75048 0.0
O244 O 0.94766 0.66366 0.75672 0.0
C245 C 0.05192 0.71459 0.64806 0.0
C246 C 0.92657 0.67091 0.57328 0.0
O247 O 0.92366 0.64115 0.6035 0.0
O248 O 0.95064 0.70697 0.59191 0.0
C249 C 0.97347 0.57744 0.67875 0.0
O250 O -0.00917 0.59015 0.62553 0.0
C251 C 0.94786 0.69363 0.77999 0.0
H252 H 0.11928 0.26821 0.17478 0.0
H253 H 0.12911 0.32659 0.00133 0.0
H254 H 0.04127 0.31663 0.13237 0.0
H255 H 0.15424 0.25892 0.08751 0.0
H256 H 0.16151 0.28674 0.01826 0.0
H257 H 0.19183 0.3098 0.18852 0.0
H258 H 0.32109 0.39142 0.15297 0.0
H259 H 0.23386 0.33017 0.00287 0.0
C260 C 0.11022 0.28478 0.14394 0.0
C261 C 0.07889 0.29199 0.16072 0.0
C262 C 0.1299 0.29873 0.08759 0.0
C263 C 0.11574 0.31778 0.04609 0.0
C264 C 0.0831 0.32369 0.06116 0.0
C265 C 0.06624 0.31217 0.11972 0.0
C266 C 0.16237 0.28901 0.06902 0.0
C267 C 0.20654 0.31962 0.09225 0.0
C268 C 0.21599 0.32599 0.15582 0.0
C269 C 0.25716 0.3524 0.17744 0.0
C270 C 0.28901 0.3724 0.13573 0.0
C271 C 0.28118 0.36404 0.07301 0.0
C272 C 0.23984 0.33767 0.05118 0.0
H273 H 0.68758 0.82304 0.21488 0.0
H274 H 0.6829 0.79754 0.02228 0.0
H275 H 0.63701 0.70181 0.15564 0.0
H276 H 0.72681 0.87901 0.12901 0.0
H277 H 0.70867 0.86533 0.05117 0.0
H278 H 0.67441 0.86954 0.20667 0.0
H279 H 0.58369 0.8986 0.14462 0.0
H280 H 0.6552 0.87838 0.01499 0.0
C281 C 0.67783 0.80199 0.17738 0.0
C282 C 0.65898 0.76089 0.19107 0.0
C283 C 0.68355 0.81522 0.11576 0.0
C284 C 0.67589 0.78736 0.06921 0.0
C285 C 0.66047 0.74663 0.08345 0.0
C286 C 0.6498 0.73338 0.14394 0.0
C287 C 0.69882 0.85885 0.09944 0.0
C288 C 0.66546 0.86883 0.10984 0.0
C289 C 0.65575 0.87159 0.16967 0.0
C290 C 0.62461 0.87965 0.18297 0.0
C291 C 0.60543 0.8892 0.13443 0.0
C292 C 0.61741 0.89023 0.07341 0.0
C293 C 0.64605 0.87813 0.06146 0.0
H294 H 0.1594 0.77629 0.22041 0.0
H295 H 0.16227 0.74221 0.03504 0.0
H296 H 0.04922 0.67769 0.13578 0.0
H297 H 0.22702 0.79953 0.16665 0.0
H298 H 0.22546 0.7933 0.08538 0.0
H299 H 0.16584 0.83109 0.1723 0.0
H300 H 0.24851 0.95423 0.12244 0.0
H301 H 0.27147 0.86272 0.06302 0.0
C302 C 0.1434 0.7581 0.17999 0.0
C303 C 0.10117 0.72785 0.18242 0.0
C304 C 0.1651 0.76532 0.12568 0.0
C305 C 0.14519 0.73882 0.07576 0.0
C306 C 0.10351 0.70703 0.07949 0.0
C307 C 0.0814 0.70242 0.13231 0.0
C308 C 0.21031 0.79917 0.12318 0.0
C309 C 0.21632 0.84095 0.11553 0.0
C310 C 0.19236 0.85274 0.1471 0.0
C311 C 0.20436 0.89349 0.15194 0.0
C312 C 0.23838 0.92253 0.11867 0.0
C313 C 0.26233 0.9113 0.08604 0.0
C314 C 0.25161 0.87082 0.08555 0.0
H315 H 0.27357 0.15752 0.80673 0.0
H316 H 0.26805 0.18434 -0.00453 0.0
H317 H 0.36624 0.27199 0.8825 0.0
H318 H 0.22001 0.11696 0.95838 0.0
H319 H 0.2031 0.12254 0.88325 0.0
H320 H 0.2106 0.0892 0.79476 0.0
H321 H 0.26187 0.01349 0.82351 0.0
H322 H 0.26699 0.08775 0.97065 0.0
C323 C 0.28701 0.17707 0.84638 0.0
C324 C 0.32291 0.21502 0.83971 0.0
C325 C 0.26813 0.16479 0.90336 0.0
C326 C 0.284 0.19263 0.95257 0.0
C327 C 0.31946 0.23166 0.94564 0.0
C328 C 0.33962 0.24179 0.88952 0.0
C329 C 0.22939 0.12323 0.90989 0.0
C330 C 0.23607 0.09062 0.88643 0.0
C331 C 0.22488 0.07695 0.82508 0.0
C332 C 0.23545 0.05008 0.80189 0.0
C333 C 0.25411 0.03464 0.84132 0.0
C334 C 0.26565 0.04792 0.9018 0.0
C335 C 0.25723 0.07651 0.92418 0.0
H336 H 0.88115 0.13217 0.8401 0.0
H337 H 0.85306 0.18429 0.9899 0.0
H338 H 0.9332 0.26035 0.84854 0.0
H339 H 0.85155 0.0932 0.93354 0.0
H340 H 0.84074 0.11483 -0.00377 0.0
H341 H 0.80472 0.08944 0.8278 0.0
H342 H 0.67535 0.02252 0.87216 0.0
H343 H 0.76913 0.08604 0.01438 0.0
C344 C 0.88411 0.15825 0.86263 0.0
C345 C 0.90887 0.19681 0.83721 0.0
C346 C 0.86281 0.1532 0.91692 0.0
C347 C 0.86773 0.18753 0.94674 0.0
C348 C 0.89369 0.22617 0.92223 0.0
C349 C 0.91318 0.23031 0.86717 0.0
C350 C 0.83808 0.11175 0.94548 0.0
C351 C 0.79252 0.08903 0.92409 0.0
C352 C 0.78101 0.07845 0.86179 0.0
C353 C 0.7387 0.05415 0.84307 0.0
C354 C 0.70809 0.0398 0.88705 0.0
C355 C 0.71874 0.05202 0.94848 0.0
C356 C 0.76094 0.07671 0.96689 0.0
H357 H 0.92332 0.7397 0.8344 0.0
H358 H 0.91591 0.69296 0.01687 0.0
H359 H 0.94781 0.64471 0.86704 0.0
H360 H 0.90844 0.75112 -0.00049 0.0
H361 H 0.92204 0.77633 0.9272 0.0
H362 H 0.86647 0.74505 0.836 0.0
H363 H 0.73968 0.68862 0.88995 0.0
H364 H 0.83586 0.70839 0.02372 0.0
C365 C 0.92409 0.71798 0.86542 0.0
C366 C 0.9351 0.69122 0.84354 0.0
C367 C 0.9149 0.7174 0.92724 0.0
C368 C 0.92021 0.69173 0.9684 0.0
C369 C 0.93261 0.66563 0.94705 0.0
C370 C 0.93777 0.66427 0.88407 0.0
C371 C 0.90251 0.74634 0.94919 0.0
C372 C 0.85704 0.73116 0.93281 0.0
C373 C 0.84409 0.7332 0.87187 0.0
C374 C 0.80175 0.71781 0.85616 0.0
C375 C 0.77268 0.70244 0.90252 0.0
C376 C 0.78464 0.69845 0.96288 0.0
C377 C 0.82676 0.7125 0.97769 0.0
H378 H 0.78811 0.62286 0.5265 0.0
H379 H 0.78479 0.66461 0.34449 0.0
H380 H 0.74495 0.70455 0.49598 0.0
H381 H 0.79435 0.58944 0.43139 0.0
H382 H 0.80629 0.61636 0.36031 0.0
H383 H 0.84715 0.62724 0.5264 0.0
H384 H 0.97475 0.69948 0.4791 0.0
H385 H 0.87896 0.65233 0.336 0.0
C386 C 0.78407 0.64294 0.49612 0.0
C387 C 0.76896 0.66619 0.51944 0.0
C388 C 0.79252 0.64417 0.43386 0.0
C389 C 0.7811 0.66568 0.39321 0.0
C390 C 0.76264 0.68653 0.41499 0.0
C391 C 0.75881 0.68836 0.47857 0.0
C392 C 0.81092 0.62019 0.41088 0.0
C393 C 0.85697 0.64033 0.42906 0.0
C394 C 0.8696 0.64257 0.49141 0.0
C395 C 0.91181 0.66538 0.5092 0.0
C396 C 0.94182 0.68328 0.46492 0.0
C397 C 0.93042 0.67733 0.40273 0.0
C398 C 0.88787 0.65651 0.38431 0.0
H399 H 0.35137 0.14204 0.5087 0.0
H400 H 0.34144 0.12265 0.31348 0.0
H401 H 0.24965 0.03263 0.43159 0.0
H402 H 0.41353 0.18407 0.42891 0.0
H403 H 0.39597 0.18592 0.3521 0.0
H404 H 0.39609 0.2112 0.51389 0.0
H405 H 0.33359 0.27657 0.47886 0.0
H406 H 0.35406 0.218 0.33058 0.0
C407 C 0.33469 0.12408 0.46859 0.0
C408 C 0.29786 0.08678 0.47611 0.0
C409 C 0.3493 0.13829 0.40942 0.0
C410 C 0.32897 0.11282 0.35862 0.0
C411 C 0.29351 0.07418 0.36628 0.0
C412 C 0.27698 0.06241 0.42479 0.0
C413 C 0.38643 0.18042 0.40055 0.0
C414 C 0.37568 0.21084 0.42037 0.0
C415 C 0.38063 0.22162 0.48233 0.0
C416 C 0.36442 0.24415 0.50428 0.0
C417 C 0.34481 0.25779 0.46259 0.0
C418 C 0.34219 0.24965 0.39942 0.0
C419 C 0.35705 0.22549 0.37879 0.0
H420 H 0.79058 0.0997 0.532 0.0
H421 H 0.76325 0.02498 0.37232 0.0
H422 H 0.66422 0.01513 0.47698 0.0
H423 H 0.83658 0.06496 0.47871 0.0
H424 H 0.83322 0.06883 0.39805 0.0
H425 H 0.85754 0.12444 0.54547 0.0
H426 H 0.94239 0.23903 0.46795 0.0
H427 H 0.87644 0.13357 0.35221 0.0
C428 C 0.76901 0.07911 0.49756 0.0
C429 C 0.72617 0.06047 0.50793 0.0
C430 C 0.78308 0.06732 0.44738 0.0
C431 C 0.75325 0.03662 0.40827 0.0
C432 C 0.71056 0.0182 0.4185 0.0
C433 C 0.69719 0.03121 0.46685 0.0
C434 C 0.82858 0.08013 0.44163 0.0
C435 C 0.85869 0.12507 0.4469 0.0
C436 C 0.86938 0.14306 0.50498 0.0
C437 C 0.89781 0.18436 0.51209 0.0
C438 C 0.91756 0.20776 0.46086 0.0
C439 C 0.91179 0.18927 0.40348 0.0
C440 C 0.88097 0.14813 0.39609 0.0
H441 H 0.01006 0.49718 0.14804 0.0
H442 H 0.97834 0.5131 0.32719 0.0
H443 H 0.96542 0.57715 0.17368 0.0
H444 H 0.03448 0.48 0.25323 0.0
H445 H -0.00027 0.46656 0.3147 0.0
H446 H 0.95615 0.43447 0.14935 0.0
H447 H 0.93737 0.31718 0.17235 0.0
H448 H -0.00326 0.40316 0.31875 0.0
C449 C -0.00481 0.50814 0.17685 0.0
C450 C 0.9842 0.53512 0.15253 0.0
C451 C -0.0115 0.49625 0.23843 0.0
C452 C 0.97809 0.51773 0.27814 0.0
C453 C 0.97061 0.54755 0.25489 0.0
C454 C 0.97029 0.55352 0.19153 0.0
C455 C 0.00116 0.46739 0.26389 0.0
C456 C 0.97681 0.42407 0.23948 0.0
C457 C 0.95821 0.41332 0.17954 0.0
C458 C 0.94475 0.37503 0.15544 0.0
C459 C 0.94662 0.34622 0.19237 0.0
C460 C 0.9655 0.35611 0.25102 0.0
C461 C 0.98042 0.39493 0.27437 0.0
H462 H 0.60001 0.50704 0.19028 0.0
H463 H 0.55559 0.54018 0.34481 0.0
H464 H 0.64213 0.63151 0.22327 0.0
H465 H 0.56717 0.45923 0.2739 0.0
H466 H 0.55186 0.47346 0.34045 0.0
H467 H 0.5222 0.45041 0.17061 0.0
H468 H 0.39118 0.38203 0.20618 0.0
H469 H 0.4798 0.45069 0.35142 0.0
C470 C 0.5998 0.52989 0.2178 0.0
C471 C 0.6237 0.57066 0.2008 0.0
C472 C 0.57469 0.51846 0.26945 0.0
C473 C 0.57422 0.5485 0.30448 0.0
C474 C 0.59943 0.58943 0.28851 0.0
C475 C 0.6235 0.59995 0.23653 0.0
C476 C 0.55124 0.47478 0.28953 0.0
C477 C 0.50646 0.45168 0.26468 0.0
C478 C 0.49719 0.43973 0.20247 0.0
C479 C 0.45548 0.41404 0.18156 0.0
C480 C 0.42346 0.40058 0.22287 0.0
C481 C 0.43189 0.41464 0.28335 0.0
C482 C 0.47334 0.44032 0.3043 0.0
H483 H 0.4895 0.98075 0.11697 0.0
H484 H 0.47564 0.94385 0.30545 0.0
H485 H 0.59813 0.01807 0.23299 0.0
H486 H 0.42288 0.92319 0.15574 0.0
H487 H 0.41611 0.9146 0.23617 0.0
H488 H 0.45021 0.0074 0.1347 0.0
H489 H 0.34297 0.01395 0.17529 0.0
H490 H 0.35946 0.92124 0.25705 0.0
C491 C 0.50309 0.98362 0.16274 0.0
C492 C 0.54666 0.00479 0.17101 0.0
C493 C 0.47702 0.96377 0.21194 0.0
C494 C 0.4953 0.96223 0.2687 0.0
C495 C 0.53897 0.98176 0.27643 0.0
C496 C 0.56451 0.00471 0.22832 0.0
C497 C 0.43009 0.93871 0.20083 0.0
C498 C 0.40923 0.96337 0.1998 0.0
C499 C 0.42269 -0.00305 0.16088 0.0
C500 C 0.39892 0.01522 0.15069 0.0
C501 C 0.36233 0.00103 0.18357 0.0
C502 C 0.348 0.96698 0.22176 0.0
C503 C 0.37144 0.94836 0.22942 0.0
H504 H 0.4325 0.97208 0.85412 0.0
H505 H 0.41449 -0.00928 0.66431 0.0
H506 H 0.35852 0.02338 0.80312 0.0
H507 H 0.43921 0.93231 0.76226 0.0
H508 H 0.4517 0.95791 0.69047 0.0
H509 H 0.48683 0.96667 0.85739 0.0
H510 H 0.61497 0.05157 0.82208 0.0
H511 H 0.52399 0.00559 0.67255 0.0
C512 C 0.4209 0.98408 0.81913 0.0
C513 C 0.39663 -2e-05 0.83631 0.0
C514 C 0.42903 0.98205 0.75766 0.0
C515 C 0.41021 -0.00588 0.71208 0.0
C516 C 0.38416 0.0085 0.72778 0.0
C517 C 0.37882 0.01278 0.79029 0.0
C518 C 0.45368 0.96274 0.74081 0.0
C519 C 0.49907 -0.01269 0.76317 0.0
C520 C 0.51003 -0.01333 0.82557 0.0
C521 C 0.55141 0.01132 0.8471 0.0
C522 C 0.5825 0.0348 0.80569 0.0
C523 C 0.57323 0.03138 0.7426 0.0
C524 C 0.53128 0.00857 0.72138 0.0
H525 H 0.01543 0.46383 0.83624 0.0
H526 H 0.01946 0.43023 0.6501 0.0
H527 H 0.96203 0.33972 0.78965 0.0
H528 H 0.076 0.50985 0.73875 0.0
H529 H 0.04619 0.49895 0.66895 0.0
H530 H 0.05555 0.53098 0.83088 0.0
H531 H 0.98275 0.58606 0.80061 0.0
H532 H -0.00068 0.52453 0.65257 0.0
C533 C 0.00756 0.4415 0.8013 0.0
C534 C 0.98699 0.40082 0.81892 0.0
C535 C 0.0184 0.45264 0.73957 0.0
C536 C 0.00957 0.42215 0.6968 0.0
C537 C -0.01088 0.38137 0.71432 0.0
C538 C 0.97722 0.37106 0.77517 0.0
C539 C 0.04352 0.49665 0.71957 0.0
C540 C 0.02638 0.52195 0.74083 0.0
C541 C 0.03534 0.53666 0.80108 0.0
C542 C 0.01823 0.55826 0.82335 0.0
C543 C -0.00573 0.56768 0.7837 0.0
C544 C -0.01126 0.55728 0.72138 0.0
C545 C 0.00382 0.53322 0.70039 0.0
H546 H 0.51476 0.46451 0.88885 0.0
H547 H 0.51388 0.406 0.72241 0.0
H548 H 0.39928 0.37135 0.80967 0.0
H549 H 0.57725 0.45002 0.8439 0.0
H550 H 0.57868 0.45502 0.76293 0.0
H551 H 0.58325 0.50333 0.9096 0.0
H552 H 0.64624 0.62291 0.83663 0.0
H553 H 0.6066 0.52113 0.71777 0.0
C554 C 0.49823 0.44474 0.85048 0.0
C555 C 0.4546 0.42023 0.85227 0.0
C556 C 0.52008 0.44051 0.80274 0.0
C557 C 0.4975 0.41121 0.75737 0.0
C558 C 0.45409 0.3865 0.75943 0.0
C559 C 0.43274 0.39185 0.80599 0.0
C560 C 0.56723 0.46193 0.80438 0.0
C561 C 0.58747 0.50685 0.81143 0.0
C562 C 0.59223 0.52297 0.86991 0.0
C563 C 0.61176 0.5645 0.87852 0.0
C564 C 0.62741 0.59053 0.82841 0.0
C565 C 0.62757 0.5752 0.7709 0.0
C566 C 0.60597 0.53315 0.76181 0.0
H567 H 0.55149 0.78729 0.51076 0.0
H568 H 0.58862 0.82995 0.69695 0.0
H569 H 0.60039 0.91166 0.5515 0.0
H570 H 0.55397 0.75835 0.6773 0.0
H571 H 0.52577 0.73892 0.60601 0.0
H572 H 0.56534 0.73911 0.51255 0.0
H573 H 0.66803 0.72267 0.55402 0.0
H574 H 0.61477 0.75374 0.69807 0.0
C575 C 0.56324 0.81112 0.54446 0.0
C576 C 0.57501 0.85007 0.52464 0.0
C577 C 0.56829 0.80345 0.60651 0.0
C578 C 0.58416 0.83544 0.64924 0.0
C579 C 0.59533 0.87465 0.63007 0.0
C580 C 0.59001 0.88132 0.56767 0.0
C581 C 0.55693 0.76132 0.62675 0.0
C582 C 0.58841 0.75069 0.60686 0.0
C583 C 0.58852 0.74064 0.54529 0.0
C584 C 0.61798 0.7318 0.52565 0.0
C585 C 0.64641 0.73117 0.56884 0.0
C586 C 0.64459 0.73748 0.6315 0.0
C587 C 0.61618 0.74835 0.65002 0.0
H588 H 0.20756 0.82755 0.46498 0.0
H589 H 0.20277 0.87261 0.64074 0.0
H590 H 0.20918 0.93875 0.47725 0.0
H591 H 0.22389 0.80302 0.56569 0.0
H592 H 0.20802 0.81325 0.63578 0.0
H593 H 0.16797 0.76191 0.48182 0.0
H594 H 0.04452 0.68027 0.54162 0.0
H595 H 0.1346 0.77391 0.6631 0.0
C596 C 0.20504 0.8492 0.49192 0.0
C597 C 0.20693 0.88272 0.46278 0.0
C598 C 0.20173 0.84427 0.55579 0.0
C599 C 0.20263 0.87466 0.5912 0.0
C600 C 0.20505 0.90853 0.56266 0.0
C601 C 0.20599 0.91182 0.49864 0.0
C602 C 0.20015 0.80797 0.58587 0.0
C603 C 0.15751 0.77032 0.57564 0.0
C604 C 0.14606 0.75073 0.5183 0.0
C605 C 0.10507 0.71893 0.50568 0.0
C606 C 0.07671 0.70366 0.55262 0.0
C607 C 0.08687 0.72365 0.6093 0.0
C608 C 0.12723 0.75724 0.62054 0.0
H609 H 0.20619 0.32343 0.47576 0.0
H610 H 0.22891 0.2957 0.6589 0.0
H611 H 0.32966 0.38758 0.55509 0.0
H612 H 0.16456 0.25064 0.53418 0.0
H613 H 0.16275 0.25426 0.6148 0.0
H614 H 0.13758 0.2826 0.46293 0.0
H615 H 0.04169 0.29805 0.53057 0.0
H616 H 0.11727 0.27335 0.65594 0.0
C617 C 0.22625 0.33123 0.51644 0.0
C618 C 0.26867 0.36083 0.51179 0.0
C619 C 0.2112 0.30851 0.57039 0.0
C620 C 0.23948 0.31535 0.61923 0.0
C621 C 0.28231 0.34316 0.61351 0.0
C622 C 0.29636 0.36787 0.56145 0.0
C623 C 0.16779 0.27141 0.57134 0.0
C624 C 0.13456 0.28177 0.56134 0.0
C625 C 0.12327 0.28713 0.50155 0.0
C626 C 0.09096 0.29457 0.49058 0.0
C627 C 0.06924 0.29612 0.54006 0.0
C628 C 0.07737 0.28671 0.59969 0.0
C629 C 0.11126 0.28127 0.61043 0.0
loop_
_geom_bond_atom_site_label_1
_geom_bond_atom_site_label_2
_geom_bond_distance
_geom_bond_site_symmetry_2
_ccdc_geom_bond_type
Zn0 O3 2.031 1_554 S
Zn0 O5 2.049 . S
Zn0 O10 2.067 1_554 S
Zn1 O2 1.962 1_455 S
Zn1 O4 1.986 . S
Zn1 O6 1.996 1_455 S
Zn1 O9 1.943 1_554 S
O2 Zn1 1.962 1_655 S
O2 C7 1.254 1_554 S
O3 Zn0 2.031 1_556 S
O3 C7 1.269 . S
O4 Zn1 1.986 . S
O4 C11 1.262 . S
O5 Zn0 2.049 . S
O5 C13 1.260 . S
O6 Zn1 1.996 1_655 S
O6 C13 1.257 . S
C7 O2 1.254 1_556 S
C7 O3 1.269 . S
C8 O9 1.249 . S
C8 O10 1.270 1_455 S
O9 Zn1 1.943 1_556 S
O9 C8 1.249 . S
O10 Zn0 2.067 1_556 S
O10 C8 1.270 1_655 S
C11 O4 1.262 . S
C11 O12 1.232 1_554 S
O12 C11 1.232 1_556 S
C13 O5 1.260 . S
C13 O6 1.257 . S
Zn14 O17 2.031 1_554 S
Zn14 O19 2.049 . S
Zn14 O24 2.067 1_554 S
Zn15 O16 1.962 . S
Zn15 O18 1.986 . S
Zn15 O20 1.996 . S
Zn15 O23 1.943 1_554 S
O16 Zn15 1.962 . S
O16 C21 1.254 1_554 S
O17 Zn14 2.031 1_556 S
O17 C21 1.269 . S
O18 Zn15 1.986 . S
O18 C25 1.262 . S
O19 Zn14 2.049 . S
O19 C27 1.260 . S
O20 Zn15 1.996 . S
O20 C27 1.257 . S
C21 O16 1.254 1_556 S
C21 O17 1.269 . S
C22 O23 1.249 . S
C22 O24 1.270 . S
O23 Zn15 1.943 1_556 S
O23 C22 1.249 . S
O24 Zn14 2.067 1_556 S
O24 C22 1.270 . S
C25 O18 1.262 . S
C25 O26 1.232 1_554 S
O26 C25 1.232 1_556 S
C27 O19 1.260 . S
C27 O20 1.257 . S
Zn28 O31 2.031 . S
Zn28 O33 2.049 1_554 S
Zn28 O38 2.067 . S
Zn29 O30 1.962 1_546 S
Zn29 O32 1.986 . S
Zn29 O34 1.996 1_545 S
Zn29 O37 1.943 1_556 S
O30 Zn29 1.962 1_564 S
O30 C35 1.254 . S
O31 Zn28 2.031 . S
O31 C35 1.269 . S
O32 Zn29 1.986 . S
O32 C39 1.262 . S
O33 Zn28 2.049 1_556 S
O33 C41 1.260 . S
O34 Zn29 1.996 1_565 S
O34 C41 1.257 . S
C35 O30 1.254 . S
C35 O31 1.269 . S
C36 O37 1.249 . S
C36 O38 1.270 1_545 S
O37 Zn29 1.943 1_554 S
O37 C36 1.249 . S
O38 Zn28 2.067 . S
O38 C36 1.270 1_565 S
C39 O32 1.262 . S
C39 O40 1.232 1_556 S
O40 C39 1.232 1_554 S
C41 O33 1.260 . S
C41 O34 1.257 . S
Zn42 O45 2.031 . S
Zn42 O47 2.049 1_554 S
Zn42 O52 2.067 . S
Zn43 O44 1.962 1_656 S
Zn43 O46 1.986 . S
Zn43 O48 1.996 1_655 S
Zn43 O51 1.943 1_556 S
O44 Zn43 1.962 1_454 S
O44 C49 1.254 . S
O45 Zn42 2.031 . S
O45 C49 1.269 . S
O46 Zn43 1.986 . S
O46 C53 1.262 . S
O47 Zn42 2.049 1_556 S
O47 C55 1.260 . S
O48 Zn43 1.996 1_455 S
O48 C55 1.257 . S
C49 O44 1.254 . S
C49 O45 1.269 . S
C50 O51 1.249 . S
C50 O52 1.270 1_655 S
O51 Zn43 1.943 1_554 S
O51 C50 1.249 . S
O52 Zn42 2.067 . S
O52 C50 1.270 1_455 S
C53 O46 1.262 . S
C53 O54 1.232 1_556 S
O54 C53 1.232 1_554 S
C55 O47 1.260 . S
C55 O48 1.257 . S
Zn56 O59 2.031 . S
Zn56 O61 2.049 1_554 S
Zn56 O66 2.067 . S
Zn57 O58 1.962 . S
Zn57 O60 1.986 1_554 S
Zn57 O62 1.996 1_554 S
Zn57 O65 1.943 . S
O58 Zn57 1.962 . S
O58 C63 1.254 . S
O59 Zn56 2.031 . S
O59 C63 1.269 . S
O60 Zn57 1.986 1_556 S
O60 C67 1.262 . S
O61 Zn56 2.049 1_556 S
O61 C69 1.260 . S
O62 Zn57 1.996 1_556 S
O62 C69 1.257 . S
C63 O58 1.254 . S
C63 O59 1.269 . S
C64 O65 1.249 . S
C64 O66 1.270 . S
O65 Zn57 1.943 . S
O65 C64 1.249 . S
O66 Zn56 2.067 . S
O66 C64 1.270 . S
C67 O60 1.262 . S
C67 O68 1.232 1_556 S
O68 C67 1.232 1_554 S
C69 O61 1.260 . S
C69 O62 1.257 . S
Zn70 O73 2.031 1_554 S
Zn70 O75 2.049 . S
Zn70 O80 2.067 1_554 S
Zn71 O72 1.962 1_565 S
Zn71 O74 1.986 . S
Zn71 O76 1.996 1_565 S
Zn71 O79 1.943 1_554 S
O72 Zn71 1.962 1_545 S
O72 C77 1.254 1_554 S
O73 Zn70 2.031 1_556 S
O73 C77 1.269 . S
O74 Zn71 1.986 . S
O74 C81 1.262 . S
O75 Zn70 2.049 . S
O75 C83 1.260 . S
O76 Zn71 1.996 1_545 S
O76 C83 1.257 . S
C77 O72 1.254 1_556 S
C77 O73 1.269 . S
C78 O79 1.249 . S
C78 O80 1.270 1_565 S
O79 Zn71 1.943 1_556 S
O79 C78 1.249 . S
O80 Zn70 2.067 1_556 S
O80 C78 1.270 1_545 S
C81 O74 1.262 . S
C81 O82 1.232 1_554 S
O82 C81 1.232 1_556 S
C83 O75 1.260 . S
C83 O76 1.257 . S
Zn84 O87 2.031 . S
Zn84 O89 2.049 . S
Zn84 O94 2.067 . S
Zn85 O86 1.962 . S
Zn85 O88 1.986 . S
Zn85 O90 1.996 . S
Zn85 O93 1.943 . S
O86 Zn85 1.962 . S
O86 C91 1.254 . S
O87 Zn84 2.031 . S
O87 C91 1.269 . S
O88 Zn85 1.986 . S
O88 C95 1.262 . S
O89 Zn84 2.049 . S
O89 C97 1.260 . S
O90 Zn85 1.996 . S
O90 C97 1.257 . S
C91 O86 1.254 . S
C91 O87 1.269 . S
C92 O93 1.249 . S
C92 O94 1.270 . S
O93 Zn85 1.943 . S
O93 C92 1.249 . S
O94 Zn84 2.067 . S
O94 C92 1.270 . S
C95 O88 1.262 . S
C95 O96 1.232 . S
O96 C95 1.232 . S
C97 O89 1.260 . S
C97 O90 1.257 . S
Zn98 O101 2.031 . S
Zn98 O103 2.049 . S
Zn98 O108 2.067 . S
Zn99 O100 1.962 1_565 S
Zn99 O102 1.986 1_565 S
Zn99 O104 1.996 . S
Zn99 O107 1.943 . S
O100 Zn99 1.962 1_545 S
O100 C105 1.254 1_545 S
O101 Zn98 2.031 . S
O101 C105 1.269 . S
O102 Zn99 1.986 1_545 S
O102 C109 1.262 . S
O103 Zn98 2.049 . S
O103 C111 1.260 . S
O104 Zn99 1.996 . S
O104 C111 1.257 . S
C105 O100 1.254 1_565 S
C105 O101 1.269 . S
C106 O107 1.249 . S
C106 O108 1.270 . S
O107 Zn99 1.943 . S
O107 C106 1.249 . S
O108 Zn98 2.067 . S
O108 C106 1.270 . S
C109 O102 1.262 . S
C109 O110 1.232 . S
O110 C109 1.232 . S
C111 O103 1.260 . S
C111 O104 1.257 . S
Zn112 O115 2.031 1_455 S
Zn112 O117 2.049 . S
Zn112 O122 2.067 . S
Zn113 O114 1.962 1_455 S
Zn113 O116 1.986 . S
Zn113 O118 1.996 . S
Zn113 O121 1.943 . S
O114 Zn113 1.962 1_655 S
O114 C119 1.254 . S
O115 Zn112 2.031 1_655 S
O115 C119 1.269 . S
O116 Zn113 1.986 . S
O116 C123 1.262 . S
O117 Zn112 2.049 . S
O117 C125 1.260 . S
O118 Zn113 1.996 . S
O118 C125 1.257 . S
C119 O114 1.254 . S
C119 O115 1.269 . S
C120 O121 1.249 . S
C120 O122 1.270 . S
O121 Zn113 1.943 . S
O121 C120 1.249 . S
O122 Zn112 2.067 . S
O122 C120 1.270 . S
C123 O116 1.262 . S
C123 O124 1.232 1_455 S
O124 C123 1.232 1_655 S
C125 O117 1.260 . S
C125 O118 1.257 . S
Zn126 O129 2.031 1_565 S
Zn126 O131 2.049 . S
Zn126 O136 2.067 . S
Zn127 O128 1.962 1_565 S
Zn127 O130 1.986 . S
Zn127 O132 1.996 . S
Zn127 O135 1.943 . S
O128 Zn127 1.962 1_545 S
O128 C133 1.254 . S
O129 Zn126 2.031 1_545 S
O129 C133 1.269 . S
O130 Zn127 1.986 . S
O130 C137 1.262 . S
O131 Zn126 2.049 . S
O131 C139 1.260 . S
O132 Zn127 1.996 . S
O132 C139 1.257 . S
C133 O128 1.254 . S
C133 O129 1.269 . S
C134 O135 1.249 . S
C134 O136 1.270 . S
O135 Zn127 1.943 . S
O135 C134 1.249 . S
O136 Zn126 2.067 . S
O136 C134 1.270 . S
C137 O130 1.262 . S
C137 O138 1.232 1_565 S
O138 C137 1.232 1_545 S
C139 O131 1.260 . S
C139 O132 1.257 . S
Zn140 O143 2.031 1_455 S
Zn140 O145 2.049 . S
Zn140 O150 2.067 . S
Zn141 O142 1.962 1_455 S
Zn141 O144 1.986 . S
Zn141 O146 1.996 . S
Zn141 O149 1.943 . S
O142 Zn141 1.962 1_655 S
O142 C147 1.254 . S
O143 Zn140 2.031 1_655 S
O143 C147 1.269 . S
O144 Zn141 1.986 . S
O144 C151 1.262 . S
O145 Zn140 2.049 . S
O145 C153 1.260 . S
O146 Zn141 1.996 . S
O146 C153 1.257 . S
C147 O142 1.254 . S
C147 O143 1.269 . S
C148 O149 1.249 . S
C148 O150 1.270 . S
O149 Zn141 1.943 . S
O149 C148 1.249 . S
O150 Zn140 2.067 . S
O150 C148 1.270 . S
C151 O144 1.262 . S
C151 O152 1.232 1_455 S
O152 C151 1.232 1_655 S
C153 O145 1.260 . S
C153 O146 1.257 . S
Zn154 O157 2.031 . S
Zn154 O159 2.049 . S
Zn154 O164 2.067 . S
Zn155 O156 1.962 . S
Zn155 O158 1.986 . S
Zn155 O160 1.996 . S
Zn155 O163 1.943 . S
O156 Zn155 1.962 . S
O156 C161 1.254 . S
O157 Zn154 2.031 . S
O157 C161 1.269 . S
O158 Zn155 1.986 . S
O158 C165 1.262 . S
O159 Zn154 2.049 . S
O159 C167 1.260 . S
O160 Zn155 1.996 . S
O160 C167 1.257 . S
C161 O156 1.254 . S
C161 O157 1.269 . S
C162 O163 1.249 . S
C162 O164 1.270 . S
O163 Zn155 1.943 . S
O163 C162 1.249 . S
O164 Zn154 2.067 . S
O164 C162 1.270 . S
C165 O158 1.262 . S
C165 O166 1.232 . S
O166 C165 1.232 . S
C167 O159 1.260 . S
C167 O160 1.257 . S
Zn168 O171 2.031 1_545 S
Zn168 O173 2.049 . S
Zn168 O178 2.067 . S
Zn169 O170 1.962 1_545 S
Zn169 O172 1.986 . S
Zn169 O174 1.996 . S
Zn169 O177 1.943 . S
O170 Zn169 1.962 1_565 S
O170 C175 1.254 . S
O171 Zn168 2.031 1_565 S
O171 C175 1.269 . S
O172 Zn169 1.986 . S
O172 C179 1.262 . S
O173 Zn168 2.049 . S
O173 C181 1.260 . S
O174 Zn169 1.996 . S
O174 C181 1.257 . S
C175 O170 1.254 . S
C175 O171 1.269 . S
C176 O177 1.249 . S
C176 O178 1.270 . S
O177 Zn169 1.943 . S
O177 C176 1.249 . S
O178 Zn168 2.067 . S
O178 C176 1.270 . S
C179 O172 1.262 . S
C179 O180 1.232 1_545 S
O180 C179 1.232 1_565 S
C181 O173 1.260 . S
C181 O174 1.257 . S
Zn182 O185 2.031 1_655 S
Zn182 O187 2.049 . S
Zn182 O192 2.067 . S
Zn183 O184 1.962 1_655 S
Zn183 O186 1.986 . S
Zn183 O188 1.996 . S
Zn183 O191 1.943 . S
O184 Zn183 1.962 1_455 S
O184 C189 1.254 . S
O185 Zn182 2.031 1_455 S
O185 C189 1.269 . S
O186 Zn183 1.986 . S
O186 C193 1.262 . S
O187 Zn182 2.049 . S
O187 C195 1.260 . S
O188 Zn183 1.996 . S
O188 C195 1.257 . S
C189 O184 1.254 . S
C189 O185 1.269 . S
C190 O191 1.249 . S
C190 O192 1.270 . S
O191 Zn183 1.943 . S
O191 C190 1.249 . S
O192 Zn182 2.067 . S
O192 C190 1.270 . S
C193 O186 1.262 . S
C193 O194 1.232 1_655 S
O194 C193 1.232 1_455 S
C195 O187 1.260 . S
C195 O188 1.257 . S
Zn196 O199 2.031 . S
Zn196 O201 2.049 . S
Zn196 O206 2.067 . S
Zn197 O198 1.962 . S
Zn197 O200 1.986 . S
Zn197 O202 1.996 . S
Zn197 O205 1.943 . S
O198 Zn197 1.962 . S
O198 C203 1.254 . S
O199 Zn196 2.031 . S
O199 C203 1.269 . S
O200 Zn197 1.986 . S
O200 C207 1.262 . S
O201 Zn196 2.049 . S
O201 C209 1.260 . S
O202 Zn197 1.996 . S
O202 C209 1.257 . S
C203 O198 1.254 . S
C203 O199 1.269 . S
C204 O205 1.249 . S
C204 O206 1.270 . S
O205 Zn197 1.943 . S
O205 C204 1.249 . S
O206 Zn196 2.067 . S
O206 C204 1.270 . S
C207 O200 1.262 . S
C207 O208 1.232 . S
O208 C207 1.232 . S
C209 O201 1.260 . S
C209 O202 1.257 . S
Zn210 O213 2.031 . S
Zn210 O215 2.049 . S
Zn210 O220 2.067 . S
Zn211 O212 1.962 . S
Zn211 O214 1.986 . S
Zn211 O216 1.996 . S
Zn211 O219 1.943 . S
O212 Zn211 1.962 . S
O212 C217 1.254 . S
O213 Zn210 2.031 . S
O213 C217 1.269 . S
O214 Zn211 1.986 . S
O214 C221 1.262 . S
O215 Zn210 2.049 . S
O215 C223 1.260 . S
O216 Zn211 1.996 . S
O216 C223 1.257 . S
C217 O212 1.254 . S
C217 O213 1.269 . S
C218 O219 1.249 . S
C218 O220 1.270 . S
O219 Zn211 1.943 . S
O219 C218 1.249 . S
O220 Zn210 2.067 . S
O220 C218 1.270 . S
C221 O214 1.262 . S
C221 O222 1.232 . S
O222 C221 1.232 . S
C223 O215 1.260 . S
C223 O216 1.257 . S
Zn224 O227 2.031 . S
Zn224 O229 2.049 . S
Zn224 O234 2.067 . S
Zn225 O226 1.962 1_545 S
Zn225 O228 1.986 1_545 S
Zn225 O230 1.996 . S
Zn225 O233 1.943 . S
O226 Zn225 1.962 1_565 S
O226 C231 1.254 1_565 S
O227 Zn224 2.031 . S
O227 C231 1.269 . S
O228 Zn225 1.986 1_565 S
O228 C235 1.262 . S
O229 Zn224 2.049 . S
O229 C237 1.260 . S
O230 Zn225 1.996 . S
O230 C237 1.257 . S
C231 O226 1.254 1_545 S
C231 O227 1.269 . S
C232 O233 1.249 . S
C232 O234 1.270 . S
O233 Zn225 1.943 . S
O233 C232 1.249 . S
O234 Zn224 2.067 . S
O234 C232 1.270 . S
C235 O228 1.262 . S
C235 O236 1.232 . S
O236 C235 1.232 . S
C237 O229 1.260 . S
C237 O230 1.257 . S
Zn238 O241 2.031 1_655 S
Zn238 O243 2.049 . S
Zn238 O248 2.067 . S
Zn239 O240 1.962 1_655 S
Zn239 O242 1.986 . S
Zn239 O244 1.996 . S
Zn239 O247 1.943 . S
O240 Zn239 1.962 1_455 S
O240 C245 1.254 . S
O241 Zn238 2.031 1_455 S
O241 C245 1.269 . S
O242 Zn239 1.986 . S
O242 C249 1.262 . S
O243 Zn238 2.049 . S
O243 C251 1.260 . S
O244 Zn239 1.996 . S
O244 C251 1.257 . S
C245 O240 1.254 . S
C245 O241 1.269 . S
C246 O247 1.249 . S
C246 O248 1.270 . S
O247 Zn239 1.943 . S
O247 C246 1.249 . S
O248 Zn238 2.067 . S
O248 C246 1.270 . S
C249 O242 1.262 . S
C249 O250 1.232 1_655 S
O250 C249 1.232 1_455 S
C251 O243 1.260 . S
C251 O244 1.257 . S
H252 C260 0.930 . S
H253 C263 0.930 . S
H254 C265 0.930 . S
H255 C266 0.970 . S
H256 C266 0.970 . S
H257 C268 0.930 . S
H258 C270 0.930 . S
H259 C272 0.930 . S
C260 H252 0.930 . S
C260 C261 1.382 . S
C260 C262 1.426 . S
C261 C260 1.382 . S
C261 C265 1.389 . S
C262 C260 1.426 . S
C262 C263 1.375 . S
C262 C266 1.532 . S
C263 H253 0.930 . S
C263 C262 1.375 . S
C263 C264 1.416 . S
C264 C263 1.416 . S
C264 C265 1.371 . S
C265 H254 0.930 . S
C265 C261 1.389 . S
C265 C264 1.371 . S
C266 H255 0.970 . S
C266 H256 0.970 . S
C266 C262 1.532 . S
C266 C267 1.499 . S
C267 C266 1.499 . S
C267 C268 1.370 . S
C267 C272 1.415 . S
C268 H257 0.930 . S
C268 C267 1.370 . S
C268 C269 1.407 . S
C269 C268 1.407 . S
C269 C270 1.365 . S
C270 H258 0.930 . S
C270 C269 1.365 . S
C270 C271 1.393 . S
C271 C270 1.393 . S
C271 C272 1.387 . S
C272 H259 0.930 . S
C272 C267 1.415 . S
C272 C271 1.387 . S
H273 C281 0.930 . S
H274 C284 0.930 . S
H275 C286 0.930 . S
H276 C287 0.970 . S
H277 C287 0.970 . S
H278 C289 0.930 . S
H279 C291 0.930 . S
H280 C293 0.930 . S
C281 H273 0.930 . S
C281 C282 1.382 . S
C281 C283 1.426 . S
C282 C281 1.382 . S
C282 C286 1.389 . S
C283 C281 1.426 . S
C283 C284 1.375 . S
C283 C287 1.532 . S
C284 H274 0.930 . S
C284 C283 1.375 . S
C284 C285 1.416 . S
C285 C284 1.416 . S
C285 C286 1.371 . S
C286 H275 0.930 . S
C286 C282 1.389 . S
C286 C285 1.371 . S
C287 H276 0.970 . S
C287 H277 0.970 . S
C287 C283 1.532 . S
C287 C288 1.499 . S
C288 C287 1.499 . S
C288 C289 1.370 . S
C288 C293 1.415 . S
C289 H278 0.930 . S
C289 C288 1.370 . S
C289 C290 1.407 . S
C290 C289 1.407 . S
C290 C291 1.365 . S
C291 H279 0.930 . S
C291 C290 1.365 . S
C291 C292 1.393 . S
C292 C291 1.393 . S
C292 C293 1.387 . S
C293 H280 0.930 . S
C293 C288 1.415 . S
C293 C292 1.387 . S
H294 C302 0.930 . S
H295 C305 0.930 . S
H296 C307 0.930 . S
H297 C308 0.970 . S
H298 C308 0.970 . S
H299 C310 0.930 . S
H300 C312 0.930 . S
H301 C314 0.930 . S
C302 H294 0.930 . S
C302 C303 1.382 . S
C302 C304 1.426 . S
C303 C302 1.382 . S
C303 C307 1.389 . S
C304 C302 1.426 . S
C304 C305 1.375 . S
C304 C308 1.532 . S
C305 H295 0.930 . S
C305 C304 1.375 . S
C305 C306 1.416 . S
C306 C305 1.416 . S
C306 C307 1.371 . S
C307 H296 0.930 . S
C307 C303 1.389 . S
C307 C306 1.371 . S
C308 H297 0.970 . S
C308 H298 0.970 . S
C308 C304 1.532 . S
C308 C309 1.499 . S
C309 C308 1.499 . S
C309 C310 1.370 . S
C309 C314 1.415 . S
C310 H299 0.930 . S
C310 C309 1.370 . S
C310 C311 1.407 . S
C311 C310 1.407 . S
C311 C312 1.365 . S
C312 H300 0.930 . S
C312 C311 1.365 . S
C312 C313 1.393 . S
C313 C312 1.393 . S
C313 C314 1.387 . S
C314 H301 0.930 . S
C314 C309 1.415 . S
C314 C313 1.387 . S
H315 C323 0.930 . S
H316 C326 0.930 . S
H317 C328 0.930 . S
H318 C329 0.970 . S
H319 C329 0.970 . S
H320 C331 0.930 . S
H321 C333 0.930 . S
H322 C335 0.930 . S
C323 H315 0.930 . S
C323 C324 1.382 . S
C323 C325 1.426 . S
C324 C323 1.382 . S
C324 C328 1.389 . S
C325 C323 1.426 . S
C325 C326 1.375 . S
C325 C329 1.532 . S
C326 H316 0.930 . S
C326 C325 1.375 . S
C326 C327 1.416 . S
C327 C326 1.416 . S
C327 C328 1.371 . S
C328 H317 0.930 . S
C328 C324 1.389 . S
C328 C327 1.371 . S
C329 H318 0.970 . S
C329 H319 0.970 . S
C329 C325 1.532 . S
C329 C330 1.499 . S
C330 C329 1.499 . S
C330 C331 1.370 . S
C330 C335 1.415 . S
C331 H320 0.930 . S
C331 C330 1.370 . S
C331 C332 1.407 . S
C332 C331 1.407 . S
C332 C333 1.365 . S
C333 H321 0.930 . S
C333 C332 1.365 . S
C333 C334 1.393 . S
C334 C333 1.393 . S
C334 C335 1.387 . S
C335 H322 0.930 . S
C335 C330 1.415 . S
C335 C334 1.387 . S
H336 C344 0.930 . S
H337 C347 0.930 . S
H338 C349 0.930 . S
H339 C350 0.970 . S
H340 C350 0.970 . S
H341 C352 0.930 . S
H342 C354 0.930 . S
H343 C356 0.930 . S
C344 H336 0.930 . S
C344 C345 1.382 . S
C344 C346 1.426 . S
C345 C344 1.382 . S
C345 C349 1.389 . S
C346 C344 1.426 . S
C346 C347 1.375 . S
C346 C350 1.532 . S
C347 H337 0.930 . S
C347 C346 1.375 . S
C347 C348 1.416 . S
C348 C347 1.416 . S
C348 C349 1.371 . S
C349 H338 0.930 . S
C349 C345 1.389 . S
C349 C348 1.371 . S
C350 H339 0.970 . S
C350 H340 0.970 . S
C350 C346 1.532 . S
C350 C351 1.499 . S
C351 C350 1.499 . S
C351 C352 1.370 . S
C351 C356 1.415 . S
C352 H341 0.930 . S
C352 C351 1.370 . S
C352 C353 1.407 . S
C353 C352 1.407 . S
C353 C354 1.365 . S
C354 H342 0.930 . S
C354 C353 1.365 . S
C354 C355 1.393 . S
C355 C354 1.393 . S
C355 C356 1.387 . S
C356 H343 0.930 . S
C356 C351 1.415 . S
C356 C355 1.387 . S
H357 C365 0.930 . S
H358 C368 0.930 . S
H359 C370 0.930 . S
H360 C371 0.970 . S
H361 C371 0.970 . S
H362 C373 0.930 . S
H363 C375 0.930 . S
H364 C377 0.930 . S
C365 H357 0.930 . S
C365 C366 1.382 . S
C365 C367 1.426 . S
C366 C365 1.382 . S
C366 C370 1.389 . S
C367 C365 1.426 . S
C367 C368 1.375 . S
C367 C371 1.532 . S
C368 H358 0.930 . S
C368 C367 1.375 . S
C368 C369 1.416 . S
C369 C368 1.416 . S
C369 C370 1.371 . S
C370 H359 0.930 . S
C370 C366 1.389 . S
C370 C369 1.371 . S
C371 H360 0.970 . S
C371 H361 0.970 . S
C371 C367 1.532 . S
C371 C372 1.499 . S
C372 C371 1.499 . S
C372 C373 1.370 . S
C372 C377 1.415 . S
C373 H362 0.930 . S
C373 C372 1.370 . S
C373 C374 1.407 . S
C374 C373 1.407 . S
C374 C375 1.365 . S
C375 H363 0.930 . S
C375 C374 1.365 . S
C375 C376 1.393 . S
C376 C375 1.393 . S
C376 C377 1.387 . S
C377 H364 0.930 . S
C377 C372 1.415 . S
C377 C376 1.387 . S
H378 C386 0.930 . S
H379 C389 0.930 . S
H380 C391 0.930 . S
H381 C392 0.970 . S
H382 C392 0.970 . S
H383 C394 0.930 . S
H384 C396 0.930 . S
H385 C398 0.930 . S
C386 H378 0.930 . S
C386 C387 1.382 . S
C386 C388 1.426 . S
C387 C386 1.382 . S
C387 C391 1.389 . S
C388 C386 1.426 . S
C388 C389 1.375 . S
C388 C392 1.532 . S
C389 H379 0.930 . S
C389 C388 1.375 . S
C389 C390 1.416 . S
C390 C389 1.416 . S
C390 C391 1.371 . S
C391 H380 0.930 . S
C391 C387 1.389 . S
C391 C390 1.371 . S
C392 H381 0.970 . S
C392 H382 0.970 . S
C392 C388 1.532 . S
C392 C393 1.499 . S
C393 C392 1.499 . S
C393 C394 1.370 . S
C393 C398 1.415 . S
C394 H383 0.930 . S
C394 C393 1.370 . S
C394 C395 1.407 . S
C395 C394 1.407 . S
C395 C396 1.365 . S
C396 H384 0.930 . S
C396 C395 1.365 . S
C396 C397 1.393 . S
C397 C396 1.393 . S
C397 C398 1.387 . S
C398 H385 0.930 . S
C398 C393 1.415 . S
C398 C397 1.387 . S
H399 C407 0.930 . S
H400 C410 0.930 . S
H401 C412 0.930 . S
H402 C413 0.970 . S
H403 C413 0.970 . S
H404 C415 0.930 . S
H405 C417 0.930 . S
H406 C419 0.930 . S
C407 H399 0.930 . S
C407 C408 1.382 . S
C407 C409 1.426 . S
C408 C407 1.382 . S
C408 C412 1.389 . S
C409 C407 1.426 . S
C409 C410 1.375 . S
C409 C413 1.532 . S
C410 H400 0.930 . S
C410 C409 1.375 . S
C410 C411 1.416 . S
C411 C410 1.416 . S
C411 C412 1.371 . S
C412 H401 0.930 . S
C412 C408 1.389 . S
C412 C411 1.371 . S
C413 H402 0.970 . S
C413 H403 0.970 . S
C413 C409 1.532 . S
C413 C414 1.499 . S
C414 C413 1.499 . S
C414 C415 1.370 . S
C414 C419 1.415 . S
C415 H404 0.930 . S
C415 C414 1.370 . S
C415 C416 1.407 . S
C416 C415 1.407 . S
C416 C417 1.365 . S
C417 H405 0.930 . S
C417 C416 1.365 . S
C417 C418 1.393 . S
C418 C417 1.393 . S
C418 C419 1.387 . S
C419 H406 0.930 . S
C419 C414 1.415 . S
C419 C418 1.387 . S
H420 C428 0.930 . S
H421 C431 0.930 . S
H422 C433 0.930 . S
H423 C434 0.970 . S
H424 C434 0.970 . S
H425 C436 0.930 . S
H426 C438 0.930 . S
H427 C440 0.930 . S
C428 H420 0.930 . S
C428 C429 1.382 . S
C428 C430 1.426 . S
C429 C428 1.382 . S
C429 C433 1.389 . S
C430 C428 1.426 . S
C430 C431 1.375 . S
C430 C434 1.532 . S
C431 H421 0.930 . S
C431 C430 1.375 . S
C431 C432 1.416 . S
C432 C431 1.416 . S
C432 C433 1.371 . S
C433 H422 0.930 . S
C433 C429 1.389 . S
C433 C432 1.371 . S
C434 H423 0.970 . S
C434 H424 0.970 . S
C434 C430 1.532 . S
C434 C435 1.499 . S
C435 C434 1.499 . S
C435 C436 1.370 . S
C435 C440 1.415 . S
C436 H425 0.930 . S
C436 C435 1.370 . S
C436 C437 1.407 . S
C437 C436 1.407 . S
C437 C438 1.365 . S
C438 H426 0.930 . S
C438 C437 1.365 . S
C438 C439 1.393 . S
C439 C438 1.393 . S
C439 C440 1.387 . S
C440 H427 0.930 . S
C440 C435 1.415 . S
C440 C439 1.387 . S
H441 C449 0.930 . S
H442 C452 0.930 . S
H443 C454 0.930 . S
H444 C455 0.970 . S
H445 C455 0.970 . S
H446 C457 0.930 . S
H447 C459 0.930 . S
H448 C461 0.930 . S
C449 H441 0.930 . S
C449 C450 1.382 . S
C449 C451 1.426 . S
C450 C449 1.382 . S
C450 C454 1.389 1_455 S
C451 C449 1.426 . S
C451 C452 1.375 . S
C451 C455 1.532 . S
C452 H442 0.930 . S
C452 C451 1.375 . S
C452 C453 1.416 . S
C453 C452 1.416 . S
C453 C454 1.371 1_455 S
C454 H443 0.930 . S
C454 C450 1.389 1_655 S
C454 C453 1.371 1_655 S
C455 H444 0.970 . S
C455 H445 0.970 . S
C455 C451 1.532 . S
C455 C456 1.499 . S
C456 C455 1.499 . S
C456 C457 1.370 . S
C456 C461 1.415 . S
C457 H446 0.930 . S
C457 C456 1.370 . S
C457 C458 1.407 . S
C458 C457 1.407 . S
C458 C459 1.365 1_455 S
C459 H447 0.930 . S
C459 C458 1.365 1_655 S
C459 C460 1.393 1_655 S
C460 C459 1.393 1_455 S
C460 C461 1.387 . S
C461 H448 0.930 . S
C461 C456 1.415 . S
C461 C460 1.387 . S
H462 C470 0.930 . S
H463 C473 0.930 . S
H464 C475 0.930 . S
H465 C476 0.970 . S
H466 C476 0.970 . S
H467 C478 0.930 . S
H468 C480 0.930 . S
H469 C482 0.930 . S
C470 H462 0.930 . S
C470 C471 1.382 . S
C470 C472 1.426 . S
C471 C470 1.382 . S
C471 C475 1.389 . S
C472 C470 1.426 . S
C472 C473 1.375 . S
C472 C476 1.532 . S
C473 H463 0.930 . S
C473 C472 1.375 . S
C473 C474 1.416 . S
C474 C473 1.416 . S
C474 C475 1.371 . S
C475 H464 0.930 . S
C475 C471 1.389 . S
C475 C474 1.371 . S
C476 H465 0.970 . S
C476 H466 0.970 . S
C476 C472 1.532 . S
C476 C477 1.499 . S
C477 C476 1.499 . S
C477 C478 1.370 . S
C477 C482 1.415 . S
C478 H467 0.930 . S
C478 C477 1.370 . S
C478 C479 1.407 . S
C479 C478 1.407 . S
C479 C480 1.365 . S
C480 H468 0.930 . S
C480 C479 1.365 . S
C480 C481 1.393 . S
C481 C480 1.393 . S
C481 C482 1.387 . S
C482 H469 0.930 . S
C482 C477 1.415 . S
C482 C481 1.387 . S
H483 C491 0.930 . S
H484 C494 0.930 . S
H485 C496 0.930 . S
H486 C497 0.970 . S
H487 C497 0.970 . S
H488 C499 0.930 . S
H489 C501 0.930 . S
H490 C503 0.930 . S
C491 H483 0.930 . S
C491 C492 1.382 . S
C491 C493 1.426 . S
C492 C491 1.382 . S
C492 C496 1.389 1_565 S
C493 C491 1.426 . S
C493 C494 1.375 . S
C493 C497 1.532 . S
C494 H484 0.930 . S
C494 C493 1.375 . S
C494 C495 1.416 . S
C495 C494 1.416 . S
C495 C496 1.371 1_565 S
C496 H485 0.930 . S
C496 C492 1.389 1_545 S
C496 C495 1.371 1_545 S
C497 H486 0.970 . S
C497 H487 0.970 . S
C497 C493 1.532 . S
C497 C498 1.499 . S
C498 C497 1.499 . S
C498 C499 1.370 . S
C498 C503 1.415 . S
C499 H488 0.930 . S
C499 C498 1.370 . S
C499 C500 1.403 . S
C500 C499 1.403 . S
C500 C501 1.366 1_565 S
C501 H489 0.930 . S
C501 C500 1.366 1_545 S
C501 C502 1.393 1_545 S
C502 C501 1.393 1_565 S
C502 C503 1.387 . S
C503 H490 0.930 . S
C503 C498 1.415 . S
C503 C502 1.387 . S
H504 C512 0.930 . S
H505 C515 0.930 . S
H506 C517 0.930 . S
H507 C518 0.970 . S
H508 C518 0.970 . S
H509 C520 0.930 . S
H510 C522 0.930 . S
H511 C524 0.930 . S
C512 H504 0.930 . S
C512 C513 1.382 . S
C512 C514 1.426 . S
C513 C512 1.382 . S
C513 C517 1.389 1_565 S
C514 C512 1.426 . S
C514 C515 1.375 . S
C514 C518 1.532 . S
C515 H505 0.930 . S
C515 C514 1.375 . S
C515 C516 1.416 . S
C516 C515 1.416 . S
C516 C517 1.371 1_565 S
C517 H506 0.930 . S
C517 C513 1.389 1_545 S
C517 C516 1.371 1_545 S
C518 H507 0.970 . S
C518 H508 0.970 . S
C518 C514 1.532 . S
C518 C519 1.499 . S
C519 C518 1.499 . S
C519 C520 1.370 . S
C519 C524 1.415 . S
C520 H509 0.930 . S
C520 C519 1.370 . S
C520 C521 1.407 . S
C521 C520 1.407 . S
C521 C522 1.365 1_565 S
C522 H510 0.930 . S
C522 C521 1.365 1_545 S
C522 C523 1.393 1_545 S
C523 C522 1.393 1_565 S
C523 C524 1.387 . S
C524 H511 0.930 . S
C524 C519 1.415 . S
C524 C523 1.387 . S
H525 C533 0.930 . S
H526 C536 0.930 . S
H527 C538 0.930 . S
H528 C539 0.970 . S
H529 C539 0.970 . S
H530 C541 0.930 . S
H531 C543 0.930 . S
H532 C545 0.930 . S
C533 H525 0.930 . S
C533 C534 1.382 . S
C533 C535 1.426 . S
C534 C533 1.382 . S
C534 C538 1.389 1_455 S
C535 C533 1.426 . S
C535 C536 1.375 . S
C535 C539 1.532 . S
C536 H526 0.930 . S
C536 C535 1.375 . S
C536 C537 1.416 . S
C537 C536 1.416 . S
C537 C538 1.371 1_455 S
C538 H527 0.930 . S
C538 C534 1.389 1_655 S
C538 C537 1.371 1_655 S
C539 H528 0.970 . S
C539 H529 0.970 . S
C539 C535 1.532 . S
C539 C540 1.499 . S
C540 C539 1.499 . S
C540 C541 1.370 . S
C540 C545 1.415 . S
C541 H530 0.930 . S
C541 C540 1.370 . S
C541 C542 1.407 . S
C542 C541 1.407 . S
C542 C543 1.365 1_455 S
C543 H531 0.930 . S
C543 C542 1.365 1_655 S
C543 C544 1.393 1_655 S
C544 C543 1.393 1_455 S
C544 C545 1.387 . S
C545 H532 0.930 . S
C545 C540 1.415 . S
C545 C544 1.387 . S
H546 C554 0.930 . S
H547 C557 0.930 . S
H548 C559 0.930 . S
H549 C560 0.970 . S
H550 C560 0.970 . S
H551 C562 0.930 . S
H552 C564 0.930 . S
H553 C566 0.930 . S
C554 H546 0.930 . S
C554 C555 1.382 . S
C554 C556 1.426 . S
C555 C554 1.382 . S
C555 C559 1.389 . S
C556 C554 1.426 . S
C556 C557 1.375 . S
C556 C560 1.532 . S
C557 H547 0.930 . S
C557 C556 1.375 . S
C557 C558 1.416 . S
C558 C557 1.416 . S
C558 C559 1.371 . S
C559 H548 0.930 . S
C559 C555 1.389 . S
C559 C558 1.371 . S
C560 H549 0.970 . S
C560 H550 0.970 . S
C560 C556 1.532 . S
C560 C561 1.499 . S
C561 C560 1.499 . S
C561 C562 1.370 . S
C561 C566 1.415 . S
C562 H551 0.930 . S
C562 C561 1.370 . S
C562 C563 1.407 . S
C563 C562 1.407 . S
C563 C564 1.365 . S
C564 H552 0.930 . S
C564 C563 1.365 . S
C564 C565 1.393 . S
C565 C564 1.393 . S
C565 C566 1.387 . S
C566 H553 0.930 . S
C566 C561 1.415 . S
C566 C565 1.387 . S
H567 C575 0.930 . S
H568 C578 0.930 . S
H569 C580 0.930 . S
H570 C581 0.970 . S
H571 C581 0.970 . S
H572 C583 0.930 . S
H573 C585 0.930 . S
H574 C587 0.930 . S
C575 H567 0.930 . S
C575 C576 1.382 . S
C575 C577 1.426 . S
C576 C575 1.382 . S
C576 C580 1.389 . S
C577 C575 1.426 . S
C577 C578 1.375 . S
C577 C581 1.532 . S
C578 H568 0.930 . S
C578 C577 1.375 . S
C578 C579 1.416 . S
C579 C578 1.416 . S
C579 C580 1.371 . S
C580 H569 0.930 . S
C580 C576 1.389 . S
C580 C579 1.371 . S
C581 H570 0.970 . S
C581 H571 0.970 . S
C581 C577 1.532 . S
C581 C582 1.499 . S
C582 C581 1.499 . S
C582 C583 1.370 . S
C582 C587 1.415 . S
C583 H572 0.930 . S
C583 C582 1.370 . S
C583 C584 1.407 . S
C584 C583 1.407 . S
C584 C585 1.365 . S
C585 H573 0.930 . S
C585 C584 1.365 . S
C585 C586 1.393 . S
C586 C585 1.393 . S
C586 C587 1.387 . S
C587 H574 0.930 . S
C587 C582 1.415 . S
C587 C586 1.387 . S
H588 C596 0.930 . S
H589 C599 0.930 . S
H590 C601 0.930 . S
H591 C602 0.970 . S
H592 C602 0.970 . S
H593 C604 0.930 . S
H594 C606 0.930 . S
H595 C608 0.930 . S
C596 H588 0.930 . S
C596 C597 1.382 . S
C596 C598 1.426 . S
C597 C596 1.382 . S
C597 C601 1.389 . S
C598 C596 1.426 . S
C598 C599 1.375 . S
C598 C602 1.532 . S
C599 H589 0.930 . S
C599 C598 1.375 . S
C599 C600 1.416 . S
C600 C599 1.416 . S
C600 C601 1.371 . S
C601 H590 0.930 . S
C601 C597 1.389 . S
C601 C600 1.371 . S
C602 H591 0.970 . S
C602 H592 0.970 . S
C602 C598 1.532 . S
C602 C603 1.499 . S
C603 C602 1.499 . S
C603 C604 1.370 . S
C603 C608 1.415 . S
C604 H593 0.930 . S
C604 C603 1.370 . S
C604 C605 1.407 . S
C605 C604 1.407 . S
C605 C606 1.365 . S
C606 H594 0.930 . S
C606 C605 1.365 . S
C606 C607 1.393 . S
C607 C606 1.393 . S
C607 C608 1.387 . S
C608 H595 0.930 . S
C608 C603 1.415 . S
C608 C607 1.387 . S
H609 C617 0.930 . S
H610 C620 0.930 . S
H611 C622 0.930 . S
H612 C623 0.970 . S
H613 C623 0.970 . S
H614 C625 0.930 . S
H615 C627 0.930 . S
H616 C629 0.930 . S
C617 H609 0.930 . S
C617 C618 1.382 . S
C617 C619 1.426 . S
C618 C617 1.382 . S
C618 C622 1.389 . S
C619 C617 1.426 . S
C619 C620 1.375 . S
C619 C623 1.532 . S
C620 H610 0.930 . S
C620 C619 1.375 . S
C620 C621 1.416 . S
C621 C620 1.416 . S
C621 C622 1.371 . S
C622 H611 0.930 . S
C622 C618 1.389 . S
C622 C621 1.371 . S
C623 H612 0.970 . S
C623 H613 0.970 . S
C623 C619 1.532 . S
C623 C624 1.499 . S
C624 C623 1.499 . S
C624 C625 1.370 . S
C624 C629 1.415 . S
C625 H614 0.930 . S
C625 C624 1.370 . S
C625 C626 1.407 . S
C626 C625 1.407 . S
C626 C627 1.365 . S
C627 H615 0.930 . S
C627 C626 1.365 . S
C627 C628 1.393 . S
C628 C627 1.393 . S
C628 C629 1.387 . S
C629 H616 0.930 . S
C629 C624 1.415 . S
C629 C628 1.387 . S
C13 C458 1.706 1_655 S
C27 C471 1.504 . S
C500 C36 1.541 1_565 S
C41 C513 1.515 . S
C8 C534 1.707 . S
C22 C563 1.488 . S
C55 C542 1.611 . S
C555 C69 1.762 . S
C521 C78 1.553 . S
C83 C492 1.788 1_545 S
C450 C50 1.644 1_455 S
C64 C479 1.503 . S
C97 C584 1.605 . S
C111 C597 1.526 . S
C626 C120 1.577 . S
C125 C261 1.540 . S
C92 C282 1.888 . S
C106 C311 1.532 . S
C139 C290 1.565 . S
C153 C303 1.770 . S
C269 C162 1.636 . S
C618 C167 1.682 . S
C576 C134 1.659 . S
C605 C148 1.565 . S
C181 C332 1.600 . S
C195 C345 1.540 . S
C204 C374 1.580 . S
C209 C387 1.548 . S
C408 C176 1.902 . S
C437 C190 1.528 . S
C416 C223 1.577 . S
C429 C237 1.739 . S
C246 C395 1.639 . S
C366 C251 1.687 . S
C218 C324 1.655 . S
C353 C232 1.563 . S
C264 C11 1.406 . S
C25 C285 1.359 . S
C313 C35 1.290 . S
C334 C39 1.267 . S
C348 C7 1.535 . S
C376 C21 1.277 . S
C53 C369 1.281 . S
C67 C327 1.210 . S
C77 C355 1.544 . S
C81 C292 1.514 . S
C306 C49 1.363 . S
C63 C271 1.591 . S
C390 C95 1.344 . S
C109 C411 1.359 . S
C119 C439 1.287 . S
C460 C123 1.208 . S
C91 C474 1.454 . S
C105 C502 1.208 . S
C137 C495 1.206 . S
C151 C453 1.169 . S
C481 C161 1.471 . S
C165 C418 1.483 . S
C133 C432 1.323 . S
C397 C147 1.581 . S
C516 C179 1.256 1_565 S
C193 C537 1.179 1_655 S
C203 C565 1.256 . S
C586 C207 1.235 . S
C600 C175 1.487 . S
C189 C628 1.295 . S
C221 C621 1.224 . S
C235 C579 1.225 . S
C607 C245 1.507 . S
C544 C249 1.263 1_455 S
C558 C217 1.300 . S
C231 C523 1.424 1_545 S
