# Generated by pormake.
# Topology ana-f, (3,3)-cn, num edge types: 1
# Building blocks:
#     Node 0, Type 0, BuildingBlock: WUSLED_clean_sbu_0, # of connection points: 3
#     Node 1, Type 0, BuildingBlock: WUSLED_clean_sbu_0, # of connection points: 3
#     Node 2, Type 0, BuildingBlock: WUSLED_clean_sbu_0, # of connection points: 3
#     Node 3, Type 0, BuildingBlock: WUSLED_clean_sbu_0, # of connection points: 3
#     Node 4, Type 0, BuildingBlock: WUSLED_clean_sbu_0, # of connection points: 3
#     Node 5, Type 0, BuildingBlock: WUSLED_clean_sbu_0, # of connection points: 3
#     Node 6, Type 0, BuildingBlock: WUSLED_clean_sbu_0, # of connection points: 3
#     Node 7, Type 0, BuildingBlock: WUSLED_clean_sbu_0, # of connection points: 3
#     Node 8, Type 0, BuildingBlock: WUSLED_clean_sbu_0, # of connection points: 3
#     Node 9, Type 0, BuildingBlock: WUSLED_clean_sbu_0, # of connection points: 3
#     Node 10, Type 0, BuildingBlock: WUSLED_clean_sbu_0, # of connection points: 3
#     Node 11, Type 0, BuildingBlock: WUSLED_clean_sbu_0, # of connection points: 3
#     Node 12, Type 0, BuildingBlock: WUSLED_clean_sbu_0, # of connection points: 3
#     Node 13, Type 0, BuildingBlock: WUSLED_clean_sbu_0, # of connection points: 3
#     Node 14, Type 0, BuildingBlock: WUSLED_clean_sbu_0, # of connection points: 3
#     Node 15, Type 0, BuildingBlock: WUSLED_clean_sbu_0, # of connection points: 3
#     Node 16, Type 0, BuildingBlock: WUSLED_clean_sbu_0, # of connection points: 3
#     Node 17, Type 0, BuildingBlock: WUSLED_clean_sbu_0, # of connection points: 3
#     Node 18, Type 0, BuildingBlock: WUSLED_clean_sbu_0, # of connection points: 3
#     Node 19, Type 0, BuildingBlock: WUSLED_clean_sbu_0, # of connection points: 3
#     Node 20, Type 0, BuildingBlock: WUSLED_clean_sbu_0, # of connection points: 3
#     Node 21, Type 0, BuildingBlock: WUSLED_clean_sbu_0, # of connection points: 3
#     Node 22, Type 0, BuildingBlock: WUSLED_clean_sbu_0, # of connection points: 3
#     Node 23, Type 0, BuildingBlock: WUSLED_clean_sbu_0, # of connection points: 3
#     Node 24, Type 0, BuildingBlock: WUSLED_clean_sbu_0, # of connection points: 3
#     Node 25, Type 0, BuildingBlock: WUSLED_clean_sbu_0, # of connection points: 3
#     Node 26, Type 0, BuildingBlock: WUSLED_clean_sbu_0, # of connection points: 3
#     Node 27, Type 0, BuildingBlock: WUSLED_clean_sbu_0, # of connection points: 3
#     Node 28, Type 0, BuildingBlock: WUSLED_clean_sbu_0, # of connection points: 3
#     Node 29, Type 0, BuildingBlock: WUSLED_clean_sbu_0, # of connection points: 3
#     Node 30, Type 0, BuildingBlock: WUSLED_clean_sbu_0, # of connection points: 3
#     Node 31, Type 0, BuildingBlock: WUSLED_clean_sbu_0, # of connection points: 3
#     Node 32, Type 0, BuildingBlock: WUSLED_clean_sbu_0, # of connection points: 3
#     Node 33, Type 0, BuildingBlock: WUSLED_clean_sbu_0, # of connection points: 3
#     Node 34, Type 0, BuildingBlock: WUSLED_clean_sbu_0, # of connection points: 3
#     Node 35, Type 0, BuildingBlock: WUSLED_clean_sbu_0, # of connection points: 3
#     Node 36, Type 0, BuildingBlock: WUSLED_clean_sbu_0, # of connection points: 3
#     Node 37, Type 0, BuildingBlock: WUSLED_clean_sbu_0, # of connection points: 3
#     Node 38, Type 0, BuildingBlock: WUSLED_clean_sbu_0, # of connection points: 3
#     Node 39, Type 0, BuildingBlock: WUSLED_clean_sbu_0, # of connection points: 3
#     Node 40, Type 0, BuildingBlock: WUSLED_clean_sbu_0, # of connection points: 3
#     Node 41, Type 0, BuildingBlock: WUSLED_clean_sbu_0, # of connection points: 3
#     Node 42, Type 0, BuildingBlock: WUSLED_clean_sbu_0, # of connection points: 3
#     Node 43, Type 0, BuildingBlock: WUSLED_clean_sbu_0, # of connection points: 3
#     Node 44, Type 0, BuildingBlock: WUSLED_clean_sbu_0, # of connection points: 3
#     Node 45, Type 0, BuildingBlock: WUSLED_clean_sbu_0, # of connection points: 3
#     Node 46, Type 0, BuildingBlock: WUSLED_clean_sbu_0, # of connection points: 3
#     Node 47, Type 0, BuildingBlock: WUSLED_clean_sbu_0, # of connection points: 3
#     Node 48, Type 0, BuildingBlock: WUSLED_clean_sbu_0, # of connection points: 3
#     Node 49, Type 0, BuildingBlock: WUSLED_clean_sbu_0, # of connection points: 3
#     Node 50, Type 0, BuildingBlock: WUSLED_clean_sbu_0, # of connection points: 3
#     Node 51, Type 0, BuildingBlock: WUSLED_clean_sbu_0, # of connection points: 3
#     Node 52, Type 0, BuildingBlock: WUSLED_clean_sbu_0, # of connection points: 3
#     Node 53, Type 0, BuildingBlock: WUSLED_clean_sbu_0, # of connection points: 3
#     Node 54, Type 0, BuildingBlock: WUSLED_clean_sbu_0, # of connection points: 3
#     Node 55, Type 0, BuildingBlock: WUSLED_clean_sbu_0, # of connection points: 3
#     Node 56, Type 0, BuildingBlock: WUSLED_clean_sbu_0, # of connection points: 3
#     Node 57, Type 0, BuildingBlock: WUSLED_clean_sbu_0, # of connection points: 3
#     Node 58, Type 0, BuildingBlock: WUSLED_clean_sbu_0, # of connection points: 3
#     Node 59, Type 0, BuildingBlock: WUSLED_clean_sbu_0, # of connection points: 3
#     Node 60, Type 0, BuildingBlock: WUSLED_clean_sbu_0, # of connection points: 3
#     Node 61, Type 0, BuildingBlock: WUSLED_clean_sbu_0, # of connection points: 3
#     Node 62, Type 0, BuildingBlock: WUSLED_clean_sbu_0, # of connection points: 3
#     Node 63, Type 0, BuildingBlock: WUSLED_clean_sbu_0, # of connection points: 3
#     Node 64, Type 0, BuildingBlock: WUSLED_clean_sbu_0, # of connection points: 3
#     Node 65, Type 0, BuildingBlock: WUSLED_clean_sbu_0, # of connection points: 3
#     Node 66, Type 0, BuildingBlock: WUSLED_clean_sbu_0, # of connection points: 3
#     Node 67, Type 0, BuildingBlock: WUSLED_clean_sbu_0, # of connection points: 3
#     Node 68, Type 0, BuildingBlock: WUSLED_clean_sbu_0, # of connection points: 3
#     Node 69, Type 0, BuildingBlock: WUSLED_clean_sbu_0, # of connection points: 3
#     Node 70, Type 0, BuildingBlock: WUSLED_clean_sbu_0, # of connection points: 3
#     Node 71, Type 0, BuildingBlock: WUSLED_clean_sbu_0, # of connection points: 3
#     Node 72, Type 0, BuildingBlock: WUSLED_clean_sbu_0, # of connection points: 3
#     Node 73, Type 0, BuildingBlock: WUSLED_clean_sbu_0, # of connection points: 3
#     Node 74, Type 0, BuildingBlock: WUSLED_clean_sbu_0, # of connection points: 3
#     Node 75, Type 0, BuildingBlock: WUSLED_clean_sbu_0, # of connection points: 3
#     Node 76, Type 0, BuildingBlock: WUSLED_clean_sbu_0, # of connection points: 3
#     Node 77, Type 0, BuildingBlock: WUSLED_clean_sbu_0, # of connection points: 3
#     Node 78, Type 0, BuildingBlock: WUSLED_clean_sbu_0, # of connection points: 3
#     Node 79, Type 0, BuildingBlock: WUSLED_clean_sbu_0, # of connection points: 3
#     Node 80, Type 0, BuildingBlock: WUSLED_clean_sbu_0, # of connection points: 3
#     Node 81, Type 0, BuildingBlock: WUSLED_clean_sbu_0, # of connection points: 3
#     Node 82, Type 0, BuildingBlock: WUSLED_clean_sbu_0, # of connection points: 3
#     Node 83, Type 0, BuildingBlock: WUSLED_clean_sbu_0, # of connection points: 3
#     Node 84, Type 0, BuildingBlock: WUSLED_clean_sbu_0, # of connection points: 3
#     Node 85, Type 0, BuildingBlock: WUSLED_clean_sbu_0, # of connection points: 3
#     Node 86, Type 0, BuildingBlock: WUSLED_clean_sbu_0, # of connection points: 3
#     Node 87, Type 0, BuildingBlock: WUSLED_clean_sbu_0, # of connection points: 3
#     Node 88, Type 0, BuildingBlock: WUSLED_clean_sbu_0, # of connection points: 3
#     Node 89, Type 0, BuildingBlock: WUSLED_clean_sbu_0, # of connection points: 3
#     Node 90, Type 0, BuildingBlock: WUSLED_clean_sbu_0, # of connection points: 3
#     Node 91, Type 0, BuildingBlock: WUSLED_clean_sbu_0, # of connection points: 3
#     Node 92, Type 0, BuildingBlock: WUSLED_clean_sbu_0, # of connection points: 3
#     Node 93, Type 0, BuildingBlock: WUSLED_clean_sbu_0, # of connection points: 3
#     Node 94, Type 0, BuildingBlock: WUSLED_clean_sbu_0, # of connection points: 3
#     Node 95, Type 0, BuildingBlock: WUSLED_clean_sbu_0, # of connection points: 3
#     Node 96, Type 1, BuildingBlock: BETDIP_clean_linker_0, # of connection points: 3
#     Node 97, Type 1, BuildingBlock: BETDIP_clean_linker_0, # of connection points: 3
#     Node 98, Type 1, BuildingBlock: BETDIP_clean_linker_0, # of connection points: 3
#     Node 99, Type 1, BuildingBlock: BETDIP_clean_linker_0, # of connection points: 3
#     Node 100, Type 1, BuildingBlock: BETDIP_clean_linker_0, # of connection points: 3
#     Node 101, Type 1, BuildingBlock: BETDIP_clean_linker_0, # of connection points: 3
#     Node 102, Type 1, BuildingBlock: BETDIP_clean_linker_0, # of connection points: 3
#     Node 103, Type 1, BuildingBlock: BETDIP_clean_linker_0, # of connection points: 3
#     Node 104, Type 1, BuildingBlock: BETDIP_clean_linker_0, # of connection points: 3
#     Node 105, Type 1, BuildingBlock: BETDIP_clean_linker_0, # of connection points: 3
#     Node 106, Type 1, BuildingBlock: BETDIP_clean_linker_0, # of connection points: 3
#     Node 107, Type 1, BuildingBlock: BETDIP_clean_linker_0, # of connection points: 3
#     Node 108, Type 1, BuildingBlock: BETDIP_clean_linker_0, # of connection points: 3
#     Node 109, Type 1, BuildingBlock: BETDIP_clean_linker_0, # of connection points: 3
#     Node 110, Type 1, BuildingBlock: BETDIP_clean_linker_0, # of connection points: 3
#     Node 111, Type 1, BuildingBlock: BETDIP_clean_linker_0, # of connection points: 3
#     Node 112, Type 1, BuildingBlock: BETDIP_clean_linker_0, # of connection points: 3
#     Node 113, Type 1, BuildingBlock: BETDIP_clean_linker_0, # of connection points: 3
#     Node 114, Type 1, BuildingBlock: BETDIP_clean_linker_0, # of connection points: 3
#     Node 115, Type 1, BuildingBlock: BETDIP_clean_linker_0, # of connection points: 3
#     Node 116, Type 1, BuildingBlock: BETDIP_clean_linker_0, # of connection points: 3
#     Node 117, Type 1, BuildingBlock: BETDIP_clean_linker_0, # of connection points: 3
#     Node 118, Type 1, BuildingBlock: BETDIP_clean_linker_0, # of connection points: 3
#     Node 119, Type 1, BuildingBlock: BETDIP_clean_linker_0, # of connection points: 3
#     Node 120, Type 1, BuildingBlock: BETDIP_clean_linker_0, # of connection points: 3
#     Node 121, Type 1, BuildingBlock: BETDIP_clean_linker_0, # of connection points: 3
#     Node 122, Type 1, BuildingBlock: BETDIP_clean_linker_0, # of connection points: 3
#     Node 123, Type 1, BuildingBlock: BETDIP_clean_linker_0, # of connection points: 3
#     Node 124, Type 1, BuildingBlock: BETDIP_clean_linker_0, # of connection points: 3
#     Node 125, Type 1, BuildingBlock: BETDIP_clean_linker_0, # of connection points: 3
#     Node 126, Type 1, BuildingBlock: BETDIP_clean_linker_0, # of connection points: 3
#     Node 127, Type 1, BuildingBlock: BETDIP_clean_linker_0, # of connection points: 3
#     Node 128, Type 1, BuildingBlock: BETDIP_clean_linker_0, # of connection points: 3
#     Node 129, Type 1, BuildingBlock: BETDIP_clean_linker_0, # of connection points: 3
#     Node 130, Type 1, BuildingBlock: BETDIP_clean_linker_0, # of connection points: 3
#     Node 131, Type 1, BuildingBlock: BETDIP_clean_linker_0, # of connection points: 3
#     Node 132, Type 1, BuildingBlock: BETDIP_clean_linker_0, # of connection points: 3
#     Node 133, Type 1, BuildingBlock: BETDIP_clean_linker_0, # of connection points: 3
#     Node 134, Type 1, BuildingBlock: BETDIP_clean_linker_0, # of connection points: 3
#     Node 135, Type 1, BuildingBlock: BETDIP_clean_linker_0, # of connection points: 3
#     Node 136, Type 1, BuildingBlock: BETDIP_clean_linker_0, # of connection points: 3
#     Node 137, Type 1, BuildingBlock: BETDIP_clean_linker_0, # of connection points: 3
#     Node 138, Type 1, BuildingBlock: BETDIP_clean_linker_0, # of connection points: 3
#     Node 139, Type 1, BuildingBlock: BETDIP_clean_linker_0, # of connection points: 3
#     Node 140, Type 1, BuildingBlock: BETDIP_clean_linker_0, # of connection points: 3
#     Node 141, Type 1, BuildingBlock: BETDIP_clean_linker_0, # of connection points: 3
#     Node 142, Type 1, BuildingBlock: BETDIP_clean_linker_0, # of connection points: 3
#     Node 143, Type 1, BuildingBlock: BETDIP_clean_linker_0, # of connection points: 3
#     Node 144, Type 1, BuildingBlock: BETDIP_clean_linker_0, # of connection points: 3
#     Node 145, Type 1, BuildingBlock: BETDIP_clean_linker_0, # of connection points: 3
#     Node 146, Type 1, BuildingBlock: BETDIP_clean_linker_0, # of connection points: 3
#     Node 147, Type 1, BuildingBlock: BETDIP_clean_linker_0, # of connection points: 3
#     Node 148, Type 1, BuildingBlock: BETDIP_clean_linker_0, # of connection points: 3
#     Node 149, Type 1, BuildingBlock: BETDIP_clean_linker_0, # of connection points: 3
#     Node 150, Type 1, BuildingBlock: BETDIP_clean_linker_0, # of connection points: 3
#     Node 151, Type 1, BuildingBlock: BETDIP_clean_linker_0, # of connection points: 3
#     Node 152, Type 1, BuildingBlock: BETDIP_clean_linker_0, # of connection points: 3
#     Node 153, Type 1, BuildingBlock: BETDIP_clean_linker_0, # of connection points: 3
#     Node 154, Type 1, BuildingBlock: BETDIP_clean_linker_0, # of connection points: 3
#     Node 155, Type 1, BuildingBlock: BETDIP_clean_linker_0, # of connection points: 3
#     Node 156, Type 1, BuildingBlock: BETDIP_clean_linker_0, # of connection points: 3
#     Node 157, Type 1, BuildingBlock: BETDIP_clean_linker_0, # of connection points: 3
#     Node 158, Type 1, BuildingBlock: BETDIP_clean_linker_0, # of connection points: 3
#     Node 159, Type 1, BuildingBlock: BETDIP_clean_linker_0, # of connection points: 3
#     Node 160, Type 1, BuildingBlock: BETDIP_clean_linker_0, # of connection points: 3
#     Node 161, Type 1, BuildingBlock: BETDIP_clean_linker_0, # of connection points: 3
#     Node 162, Type 1, BuildingBlock: BETDIP_clean_linker_0, # of connection points: 3
#     Node 163, Type 1, BuildingBlock: BETDIP_clean_linker_0, # of connection points: 3
#     Node 164, Type 1, BuildingBlock: BETDIP_clean_linker_0, # of connection points: 3
#     Node 165, Type 1, BuildingBlock: BETDIP_clean_linker_0, # of connection points: 3
#     Node 166, Type 1, BuildingBlock: BETDIP_clean_linker_0, # of connection points: 3
#     Node 167, Type 1, BuildingBlock: BETDIP_clean_linker_0, # of connection points: 3
#     Node 168, Type 1, BuildingBlock: BETDIP_clean_linker_0, # of connection points: 3
#     Node 169, Type 1, BuildingBlock: BETDIP_clean_linker_0, # of connection points: 3
#     Node 170, Type 1, BuildingBlock: BETDIP_clean_linker_0, # of connection points: 3
#     Node 171, Type 1, BuildingBlock: BETDIP_clean_linker_0, # of connection points: 3
#     Node 172, Type 1, BuildingBlock: BETDIP_clean_linker_0, # of connection points: 3
#     Node 173, Type 1, BuildingBlock: BETDIP_clean_linker_0, # of connection points: 3
#     Node 174, Type 1, BuildingBlock: BETDIP_clean_linker_0, # of connection points: 3
#     Node 175, Type 1, BuildingBlock: BETDIP_clean_linker_0, # of connection points: 3
#     Node 176, Type 1, BuildingBlock: BETDIP_clean_linker_0, # of connection points: 3
#     Node 177, Type 1, BuildingBlock: BETDIP_clean_linker_0, # of connection points: 3
#     Node 178, Type 1, BuildingBlock: BETDIP_clean_linker_0, # of connection points: 3
#     Node 179, Type 1, BuildingBlock: BETDIP_clean_linker_0, # of connection points: 3
#     Node 180, Type 1, BuildingBlock: BETDIP_clean_linker_0, # of connection points: 3
#     Node 181, Type 1, BuildingBlock: BETDIP_clean_linker_0, # of connection points: 3
#     Node 182, Type 1, BuildingBlock: BETDIP_clean_linker_0, # of connection points: 3
#     Node 183, Type 1, BuildingBlock: BETDIP_clean_linker_0, # of connection points: 3
#     Node 184, Type 1, BuildingBlock: BETDIP_clean_linker_0, # of connection points: 3
#     Node 185, Type 1, BuildingBlock: BETDIP_clean_linker_0, # of connection points: 3
#     Node 186, Type 1, BuildingBlock: BETDIP_clean_linker_0, # of connection points: 3
#     Node 187, Type 1, BuildingBlock: BETDIP_clean_linker_0, # of connection points: 3
#     Node 188, Type 1, BuildingBlock: BETDIP_clean_linker_0, # of connection points: 3
#     Node 189, Type 1, BuildingBlock: BETDIP_clean_linker_0, # of connection points: 3
#     Node 190, Type 1, BuildingBlock: BETDIP_clean_linker_0, # of connection points: 3
#     Node 191, Type 1, BuildingBlock: BETDIP_clean_linker_0, # of connection points: 3
#     Edge 192, Type (0, 1), BuildingBlock: XIVTED_clean_linker_0, # of connection points: 2
#     Edge 193, Type (0, 1), BuildingBlock: XIVTED_clean_linker_0, # of connection points: 2
#     Edge 194, Type (0, 1), BuildingBlock: XIVTED_clean_linker_0, # of connection points: 2
#     Edge 195, Type (0, 1), BuildingBlock: XIVTED_clean_linker_0, # of connection points: 2
#     Edge 196, Type (0, 1), BuildingBlock: XIVTED_clean_linker_0, # of connection points: 2
#     Edge 197, Type (0, 1), BuildingBlock: XIVTED_clean_linker_0, # of connection points: 2
#     Edge 198, Type (0, 1), BuildingBlock: XIVTED_clean_linker_0, # of connection points: 2
#     Edge 199, Type (0, 1), BuildingBlock: XIVTED_clean_linker_0, # of connection points: 2
#     Edge 200, Type (0, 1), BuildingBlock: XIVTED_clean_linker_0, # of connection points: 2
#     Edge 201, Type (0, 1), BuildingBlock: XIVTED_clean_linker_0, # of connection points: 2
#     Edge 202, Type (0, 1), BuildingBlock: XIVTED_clean_linker_0, # of connection points: 2
#     Edge 203, Type (0, 1), BuildingBlock: XIVTED_clean_linker_0, # of connection points: 2
#     Edge 204, Type (0, 1), BuildingBlock: XIVTED_clean_linker_0, # of connection points: 2
#     Edge 205, Type (0, 1), BuildingBlock: XIVTED_clean_linker_0, # of connection points: 2
#     Edge 206, Type (0, 1), BuildingBlock: XIVTED_clean_linker_0, # of connection points: 2
#     Edge 207, Type (0, 1), BuildingBlock: XIVTED_clean_linker_0, # of connection points: 2
#     Edge 208, Type (0, 1), BuildingBlock: XIVTED_clean_linker_0, # of connection points: 2
#     Edge 209, Type (0, 1), BuildingBlock: XIVTED_clean_linker_0, # of connection points: 2
#     Edge 210, Type (0, 1), BuildingBlock: XIVTED_clean_linker_0, # of connection points: 2
#     Edge 211, Type (0, 1), BuildingBlock: XIVTED_clean_linker_0, # of connection points: 2
#     Edge 212, Type (0, 1), BuildingBlock: XIVTED_clean_linker_0, # of connection points: 2
#     Edge 213, Type (0, 1), BuildingBlock: XIVTED_clean_linker_0, # of connection points: 2
#     Edge 214, Type (0, 1), BuildingBlock: XIVTED_clean_linker_0, # of connection points: 2
#     Edge 215, Type (0, 1), BuildingBlock: XIVTED_clean_linker_0, # of connection points: 2
#     Edge 216, Type (0, 1), BuildingBlock: XIVTED_clean_linker_0, # of connection points: 2
#     Edge 217, Type (0, 1), BuildingBlock: XIVTED_clean_linker_0, # of connection points: 2
#     Edge 218, Type (0, 1), BuildingBlock: XIVTED_clean_linker_0, # of connection points: 2
#     Edge 219, Type (0, 1), BuildingBlock: XIVTED_clean_linker_0, # of connection points: 2
#     Edge 220, Type (0, 1), BuildingBlock: XIVTED_clean_linker_0, # of connection points: 2
#     Edge 221, Type (0, 1), BuildingBlock: XIVTED_clean_linker_0, # of connection points: 2
#     Edge 222, Type (0, 1), BuildingBlock: XIVTED_clean_linker_0, # of connection points: 2
#     Edge 223, Type (0, 1), BuildingBlock: XIVTED_clean_linker_0, # of connection points: 2
#     Edge 224, Type (0, 1), BuildingBlock: XIVTED_clean_linker_0, # of connection points: 2
#     Edge 225, Type (0, 1), BuildingBlock: XIVTED_clean_linker_0, # of connection points: 2
#     Edge 226, Type (0, 1), BuildingBlock: XIVTED_clean_linker_0, # of connection points: 2
#     Edge 227, Type (0, 1), BuildingBlock: XIVTED_clean_linker_0, # of connection points: 2
#     Edge 228, Type (0, 1), BuildingBlock: XIVTED_clean_linker_0, # of connection points: 2
#     Edge 229, Type (0, 1), BuildingBlock: XIVTED_clean_linker_0, # of connection points: 2
#     Edge 230, Type (0, 1), BuildingBlock: XIVTED_clean_linker_0, # of connection points: 2
#     Edge 231, Type (0, 1), BuildingBlock: XIVTED_clean_linker_0, # of connection points: 2
#     Edge 232, Type (0, 1), BuildingBlock: XIVTED_clean_linker_0, # of connection points: 2
#     Edge 233, Type (0, 1), BuildingBlock: XIVTED_clean_linker_0, # of connection points: 2
#     Edge 234, Type (0, 1), BuildingBlock: XIVTED_clean_linker_0, # of connection points: 2
#     Edge 235, Type (0, 1), BuildingBlock: XIVTED_clean_linker_0, # of connection points: 2
#     Edge 236, Type (0, 1), BuildingBlock: XIVTED_clean_linker_0, # of connection points: 2
#     Edge 237, Type (0, 1), BuildingBlock: XIVTED_clean_linker_0, # of connection points: 2
#     Edge 238, Type (0, 1), BuildingBlock: XIVTED_clean_linker_0, # of connection points: 2
#     Edge 239, Type (0, 1), BuildingBlock: XIVTED_clean_linker_0, # of connection points: 2
#     Edge 240, Type (0, 1), BuildingBlock: XIVTED_clean_linker_0, # of connection points: 2
#     Edge 241, Type (0, 1), BuildingBlock: XIVTED_clean_linker_0, # of connection points: 2
#     Edge 242, Type (0, 1), BuildingBlock: XIVTED_clean_linker_0, # of connection points: 2
#     Edge 243, Type (0, 1), BuildingBlock: XIVTED_clean_linker_0, # of connection points: 2
#     Edge 244, Type (0, 1), BuildingBlock: XIVTED_clean_linker_0, # of connection points: 2
#     Edge 245, Type (0, 1), BuildingBlock: XIVTED_clean_linker_0, # of connection points: 2
#     Edge 246, Type (0, 1), BuildingBlock: XIVTED_clean_linker_0, # of connection points: 2
#     Edge 247, Type (0, 1), BuildingBlock: XIVTED_clean_linker_0, # of connection points: 2
#     Edge 248, Type (0, 1), BuildingBlock: XIVTED_clean_linker_0, # of connection points: 2
#     Edge 249, Type (0, 1), BuildingBlock: XIVTED_clean_linker_0, # of connection points: 2
#     Edge 250, Type (0, 1), BuildingBlock: XIVTED_clean_linker_0, # of connection points: 2
#     Edge 251, Type (0, 1), BuildingBlock: XIVTED_clean_linker_0, # of connection points: 2
#     Edge 252, Type (0, 1), BuildingBlock: XIVTED_clean_linker_0, # of connection points: 2
#     Edge 253, Type (0, 1), BuildingBlock: XIVTED_clean_linker_0, # of connection points: 2
#     Edge 254, Type (0, 1), BuildingBlock: XIVTED_clean_linker_0, # of connection points: 2
#     Edge 255, Type (0, 1), BuildingBlock: XIVTED_clean_linker_0, # of connection points: 2
#     Edge 256, Type (0, 1), BuildingBlock: XIVTED_clean_linker_0, # of connection points: 2
#     Edge 257, Type (0, 1), BuildingBlock: XIVTED_clean_linker_0, # of connection points: 2
#     Edge 258, Type (0, 1), BuildingBlock: XIVTED_clean_linker_0, # of connection points: 2
#     Edge 259, Type (0, 1), BuildingBlock: XIVTED_clean_linker_0, # of connection points: 2
#     Edge 260, Type (0, 1), BuildingBlock: XIVTED_clean_linker_0, # of connection points: 2
#     Edge 261, Type (0, 1), BuildingBlock: XIVTED_clean_linker_0, # of connection points: 2
#     Edge 262, Type (0, 1), BuildingBlock: XIVTED_clean_linker_0, # of connection points: 2
#     Edge 263, Type (0, 1), BuildingBlock: XIVTED_clean_linker_0, # of connection points: 2
#     Edge 264, Type (0, 1), BuildingBlock: XIVTED_clean_linker_0, # of connection points: 2
#     Edge 265, Type (0, 1), BuildingBlock: XIVTED_clean_linker_0, # of connection points: 2
#     Edge 266, Type (0, 1), BuildingBlock: XIVTED_clean_linker_0, # of connection points: 2
#     Edge 267, Type (0, 1), BuildingBlock: XIVTED_clean_linker_0, # of connection points: 2
#     Edge 268, Type (0, 1), BuildingBlock: XIVTED_clean_linker_0, # of connection points: 2
#     Edge 269, Type (0, 1), BuildingBlock: XIVTED_clean_linker_0, # of connection points: 2
#     Edge 270, Type (0, 1), BuildingBlock: XIVTED_clean_linker_0, # of connection points: 2
#     Edge 271, Type (0, 1), BuildingBlock: XIVTED_clean_linker_0, # of connection points: 2
#     Edge 272, Type (0, 1), BuildingBlock: XIVTED_clean_linker_0, # of connection points: 2
#     Edge 273, Type (0, 1), BuildingBlock: XIVTED_clean_linker_0, # of connection points: 2
#     Edge 274, Type (0, 1), BuildingBlock: XIVTED_clean_linker_0, # of connection points: 2
#     Edge 275, Type (0, 1), BuildingBlock: XIVTED_clean_linker_0, # of connection points: 2
#     Edge 276, Type (0, 1), BuildingBlock: XIVTED_clean_linker_0, # of connection points: 2
#     Edge 277, Type (0, 1), BuildingBlock: XIVTED_clean_linker_0, # of connection points: 2
#     Edge 278, Type (0, 1), BuildingBlock: XIVTED_clean_linker_0, # of connection points: 2
#     Edge 279, Type (0, 1), BuildingBlock: XIVTED_clean_linker_0, # of connection points: 2
#     Edge 280, Type (0, 1), BuildingBlock: XIVTED_clean_linker_0, # of connection points: 2
#     Edge 281, Type (0, 1), BuildingBlock: XIVTED_clean_linker_0, # of connection points: 2
#     Edge 282, Type (0, 1), BuildingBlock: XIVTED_clean_linker_0, # of connection points: 2
#     Edge 283, Type (0, 1), BuildingBlock: XIVTED_clean_linker_0, # of connection points: 2
#     Edge 284, Type (0, 1), BuildingBlock: XIVTED_clean_linker_0, # of connection points: 2
#     Edge 285, Type (0, 1), BuildingBlock: XIVTED_clean_linker_0, # of connection points: 2
#     Edge 286, Type (0, 1), BuildingBlock: XIVTED_clean_linker_0, # of connection points: 2
#     Edge 287, Type (0, 1), BuildingBlock: XIVTED_clean_linker_0, # of connection points: 2
#     Edge 288, Type (0, 1), BuildingBlock: XIVTED_clean_linker_0, # of connection points: 2
#     Edge 289, Type (0, 1), BuildingBlock: XIVTED_clean_linker_0, # of connection points: 2
#     Edge 290, Type (0, 1), BuildingBlock: XIVTED_clean_linker_0, # of connection points: 2
#     Edge 291, Type (0, 1), BuildingBlock: XIVTED_clean_linker_0, # of connection points: 2
#     Edge 292, Type (0, 1), BuildingBlock: XIVTED_clean_linker_0, # of connection points: 2
#     Edge 293, Type (0, 1), BuildingBlock: XIVTED_clean_linker_0, # of connection points: 2
#     Edge 294, Type (0, 1), BuildingBlock: XIVTED_clean_linker_0, # of connection points: 2
#     Edge 295, Type (0, 1), BuildingBlock: XIVTED_clean_linker_0, # of connection points: 2
#     Edge 296, Type (0, 1), BuildingBlock: XIVTED_clean_linker_0, # of connection points: 2
#     Edge 297, Type (0, 1), BuildingBlock: XIVTED_clean_linker_0, # of connection points: 2
#     Edge 298, Type (0, 1), BuildingBlock: XIVTED_clean_linker_0, # of connection points: 2
#     Edge 299, Type (0, 1), BuildingBlock: XIVTED_clean_linker_0, # of connection points: 2
#     Edge 300, Type (0, 1), BuildingBlock: XIVTED_clean_linker_0, # of connection points: 2
#     Edge 301, Type (0, 1), BuildingBlock: XIVTED_clean_linker_0, # of connection points: 2
#     Edge 302, Type (0, 1), BuildingBlock: XIVTED_clean_linker_0, # of connection points: 2
#     Edge 303, Type (0, 1), BuildingBlock: XIVTED_clean_linker_0, # of connection points: 2
#     Edge 304, Type (0, 1), BuildingBlock: XIVTED_clean_linker_0, # of connection points: 2
#     Edge 305, Type (0, 1), BuildingBlock: XIVTED_clean_linker_0, # of connection points: 2
#     Edge 306, Type (0, 1), BuildingBlock: XIVTED_clean_linker_0, # of connection points: 2
#     Edge 307, Type (0, 1), BuildingBlock: XIVTED_clean_linker_0, # of connection points: 2
#     Edge 308, Type (0, 1), BuildingBlock: XIVTED_clean_linker_0, # of connection points: 2
#     Edge 309, Type (0, 1), BuildingBlock: XIVTED_clean_linker_0, # of connection points: 2
#     Edge 310, Type (0, 1), BuildingBlock: XIVTED_clean_linker_0, # of connection points: 2
#     Edge 311, Type (0, 1), BuildingBlock: XIVTED_clean_linker_0, # of connection points: 2
#     Edge 312, Type (0, 1), BuildingBlock: XIVTED_clean_linker_0, # of connection points: 2
#     Edge 313, Type (0, 1), BuildingBlock: XIVTED_clean_linker_0, # of connection points: 2
#     Edge 314, Type (0, 1), BuildingBlock: XIVTED_clean_linker_0, # of connection points: 2
#     Edge 315, Type (0, 1), BuildingBlock: XIVTED_clean_linker_0, # of connection points: 2
#     Edge 316, Type (0, 1), BuildingBlock: XIVTED_clean_linker_0, # of connection points: 2
#     Edge 317, Type (0, 1), BuildingBlock: XIVTED_clean_linker_0, # of connection points: 2
#     Edge 318, Type (0, 1), BuildingBlock: XIVTED_clean_linker_0, # of connection points: 2
#     Edge 319, Type (0, 1), BuildingBlock: XIVTED_clean_linker_0, # of connection points: 2
#     Edge 320, Type (0, 1), BuildingBlock: XIVTED_clean_linker_0, # of connection points: 2
#     Edge 321, Type (0, 1), BuildingBlock: XIVTED_clean_linker_0, # of connection points: 2
#     Edge 322, Type (0, 1), BuildingBlock: XIVTED_clean_linker_0, # of connection points: 2
#     Edge 323, Type (0, 1), BuildingBlock: XIVTED_clean_linker_0, # of connection points: 2
#     Edge 324, Type (0, 1), BuildingBlock: XIVTED_clean_linker_0, # of connection points: 2
#     Edge 325, Type (0, 1), BuildingBlock: XIVTED_clean_linker_0, # of connection points: 2
#     Edge 326, Type (0, 1), BuildingBlock: XIVTED_clean_linker_0, # of connection points: 2
#     Edge 327, Type (0, 1), BuildingBlock: XIVTED_clean_linker_0, # of connection points: 2
#     Edge 328, Type (0, 1), BuildingBlock: XIVTED_clean_linker_0, # of connection points: 2
#     Edge 329, Type (0, 1), BuildingBlock: XIVTED_clean_linker_0, # of connection points: 2
#     Edge 330, Type (0, 1), BuildingBlock: XIVTED_clean_linker_0, # of connection points: 2
#     Edge 331, Type (0, 1), BuildingBlock: XIVTED_clean_linker_0, # of connection points: 2
#     Edge 332, Type (0, 1), BuildingBlock: XIVTED_clean_linker_0, # of connection points: 2
#     Edge 333, Type (0, 1), BuildingBlock: XIVTED_clean_linker_0, # of connection points: 2
#     Edge 334, Type (0, 1), BuildingBlock: XIVTED_clean_linker_0, # of connection points: 2
#     Edge 335, Type (0, 1), BuildingBlock: XIVTED_clean_linker_0, # of connection points: 2
#     Edge 336, Type (0, 1), BuildingBlock: XIVTED_clean_linker_0, # of connection points: 2
#     Edge 337, Type (0, 1), BuildingBlock: XIVTED_clean_linker_0, # of connection points: 2
#     Edge 338, Type (0, 1), BuildingBlock: XIVTED_clean_linker_0, # of connection points: 2
#     Edge 339, Type (0, 1), BuildingBlock: XIVTED_clean_linker_0, # of connection points: 2
#     Edge 340, Type (0, 1), BuildingBlock: XIVTED_clean_linker_0, # of connection points: 2
#     Edge 341, Type (0, 1), BuildingBlock: XIVTED_clean_linker_0, # of connection points: 2
#     Edge 342, Type (0, 1), BuildingBlock: XIVTED_clean_linker_0, # of connection points: 2
#     Edge 343, Type (0, 1), BuildingBlock: XIVTED_clean_linker_0, # of connection points: 2
#     Edge 344, Type (0, 1), BuildingBlock: XIVTED_clean_linker_0, # of connection points: 2
#     Edge 345, Type (0, 1), BuildingBlock: XIVTED_clean_linker_0, # of connection points: 2
#     Edge 346, Type (0, 1), BuildingBlock: XIVTED_clean_linker_0, # of connection points: 2
#     Edge 347, Type (0, 1), BuildingBlock: XIVTED_clean_linker_0, # of connection points: 2
#     Edge 348, Type (0, 1), BuildingBlock: XIVTED_clean_linker_0, # of connection points: 2
#     Edge 349, Type (0, 1), BuildingBlock: XIVTED_clean_linker_0, # of connection points: 2
#     Edge 350, Type (0, 1), BuildingBlock: XIVTED_clean_linker_0, # of connection points: 2
#     Edge 351, Type (0, 1), BuildingBlock: XIVTED_clean_linker_0, # of connection points: 2
#     Edge 352, Type (0, 1), BuildingBlock: XIVTED_clean_linker_0, # of connection points: 2
#     Edge 353, Type (0, 1), BuildingBlock: XIVTED_clean_linker_0, # of connection points: 2
#     Edge 354, Type (0, 1), BuildingBlock: XIVTED_clean_linker_0, # of connection points: 2
#     Edge 355, Type (0, 1), BuildingBlock: XIVTED_clean_linker_0, # of connection points: 2
#     Edge 356, Type (0, 1), BuildingBlock: XIVTED_clean_linker_0, # of connection points: 2
#     Edge 357, Type (0, 1), BuildingBlock: XIVTED_clean_linker_0, # of connection points: 2
#     Edge 358, Type (0, 1), BuildingBlock: XIVTED_clean_linker_0, # of connection points: 2
#     Edge 359, Type (0, 1), BuildingBlock: XIVTED_clean_linker_0, # of connection points: 2
#     Edge 360, Type (0, 1), BuildingBlock: XIVTED_clean_linker_0, # of connection points: 2
#     Edge 361, Type (0, 1), BuildingBlock: XIVTED_clean_linker_0, # of connection points: 2
#     Edge 362, Type (0, 1), BuildingBlock: XIVTED_clean_linker_0, # of connection points: 2
#     Edge 363, Type (0, 1), BuildingBlock: XIVTED_clean_linker_0, # of connection points: 2
#     Edge 364, Type (0, 1), BuildingBlock: XIVTED_clean_linker_0, # of connection points: 2
#     Edge 365, Type (0, 1), BuildingBlock: XIVTED_clean_linker_0, # of connection points: 2
#     Edge 366, Type (0, 1), BuildingBlock: XIVTED_clean_linker_0, # of connection points: 2
#     Edge 367, Type (0, 1), BuildingBlock: XIVTED_clean_linker_0, # of connection points: 2
#     Edge 368, Type (0, 1), BuildingBlock: XIVTED_clean_linker_0, # of connection points: 2
#     Edge 369, Type (0, 1), BuildingBlock: XIVTED_clean_linker_0, # of connection points: 2
#     Edge 370, Type (0, 1), BuildingBlock: XIVTED_clean_linker_0, # of connection points: 2
#     Edge 371, Type (0, 1), BuildingBlock: XIVTED_clean_linker_0, # of connection points: 2
#     Edge 372, Type (0, 1), BuildingBlock: XIVTED_clean_linker_0, # of connection points: 2
#     Edge 373, Type (0, 1), BuildingBlock: XIVTED_clean_linker_0, # of connection points: 2
#     Edge 374, Type (0, 1), BuildingBlock: XIVTED_clean_linker_0, # of connection points: 2
#     Edge 375, Type (0, 1), BuildingBlock: XIVTED_clean_linker_0, # of connection points: 2
#     Edge 376, Type (0, 1), BuildingBlock: XIVTED_clean_linker_0, # of connection points: 2
#     Edge 377, Type (0, 1), BuildingBlock: XIVTED_clean_linker_0, # of connection points: 2
#     Edge 378, Type (0, 1), BuildingBlock: XIVTED_clean_linker_0, # of connection points: 2
#     Edge 379, Type (0, 1), BuildingBlock: XIVTED_clean_linker_0, # of connection points: 2
#     Edge 380, Type (0, 1), BuildingBlock: XIVTED_clean_linker_0, # of connection points: 2
#     Edge 381, Type (0, 1), BuildingBlock: XIVTED_clean_linker_0, # of connection points: 2
#     Edge 382, Type (0, 1), BuildingBlock: XIVTED_clean_linker_0, # of connection points: 2
#     Edge 383, Type (0, 1), BuildingBlock: XIVTED_clean_linker_0, # of connection points: 2
#     Edge 384, Type (0, 1), BuildingBlock: XIVTED_clean_linker_0, # of connection points: 2
#     Edge 385, Type (0, 1), BuildingBlock: XIVTED_clean_linker_0, # of connection points: 2
#     Edge 386, Type (0, 1), BuildingBlock: XIVTED_clean_linker_0, # of connection points: 2
#     Edge 387, Type (0, 1), BuildingBlock: XIVTED_clean_linker_0, # of connection points: 2
#     Edge 388, Type (0, 1), BuildingBlock: XIVTED_clean_linker_0, # of connection points: 2
#     Edge 389, Type (0, 1), BuildingBlock: XIVTED_clean_linker_0, # of connection points: 2
#     Edge 390, Type (0, 1), BuildingBlock: XIVTED_clean_linker_0, # of connection points: 2
#     Edge 391, Type (0, 1), BuildingBlock: XIVTED_clean_linker_0, # of connection points: 2
#     Edge 392, Type (0, 1), BuildingBlock: XIVTED_clean_linker_0, # of connection points: 2
#     Edge 393, Type (0, 1), BuildingBlock: XIVTED_clean_linker_0, # of connection points: 2
#     Edge 394, Type (0, 1), BuildingBlock: XIVTED_clean_linker_0, # of connection points: 2
#     Edge 395, Type (0, 1), BuildingBlock: XIVTED_clean_linker_0, # of connection points: 2
#     Edge 396, Type (0, 1), BuildingBlock: XIVTED_clean_linker_0, # of connection points: 2
#     Edge 397, Type (0, 1), BuildingBlock: XIVTED_clean_linker_0, # of connection points: 2
#     Edge 398, Type (0, 1), BuildingBlock: XIVTED_clean_linker_0, # of connection points: 2
#     Edge 399, Type (0, 1), BuildingBlock: XIVTED_clean_linker_0, # of connection points: 2
#     Edge 400, Type (0, 1), BuildingBlock: XIVTED_clean_linker_0, # of connection points: 2
#     Edge 401, Type (0, 1), BuildingBlock: XIVTED_clean_linker_0, # of connection points: 2
#     Edge 402, Type (0, 1), BuildingBlock: XIVTED_clean_linker_0, # of connection points: 2
#     Edge 403, Type (0, 1), BuildingBlock: XIVTED_clean_linker_0, # of connection points: 2
#     Edge 404, Type (0, 1), BuildingBlock: XIVTED_clean_linker_0, # of connection points: 2
#     Edge 405, Type (0, 1), BuildingBlock: XIVTED_clean_linker_0, # of connection points: 2
#     Edge 406, Type (0, 1), BuildingBlock: XIVTED_clean_linker_0, # of connection points: 2
#     Edge 407, Type (0, 1), BuildingBlock: XIVTED_clean_linker_0, # of connection points: 2
#     Edge 408, Type (0, 1), BuildingBlock: XIVTED_clean_linker_0, # of connection points: 2
#     Edge 409, Type (0, 1), BuildingBlock: XIVTED_clean_linker_0, # of connection points: 2
#     Edge 410, Type (0, 1), BuildingBlock: XIVTED_clean_linker_0, # of connection points: 2
#     Edge 411, Type (0, 1), BuildingBlock: XIVTED_clean_linker_0, # of connection points: 2
#     Edge 412, Type (0, 1), BuildingBlock: XIVTED_clean_linker_0, # of connection points: 2
#     Edge 413, Type (0, 1), BuildingBlock: XIVTED_clean_linker_0, # of connection points: 2
#     Edge 414, Type (0, 1), BuildingBlock: XIVTED_clean_linker_0, # of connection points: 2
#     Edge 415, Type (0, 1), BuildingBlock: XIVTED_clean_linker_0, # of connection points: 2
#     Edge 416, Type (0, 1), BuildingBlock: XIVTED_clean_linker_0, # of connection points: 2
#     Edge 417, Type (0, 1), BuildingBlock: XIVTED_clean_linker_0, # of connection points: 2
#     Edge 418, Type (0, 1), BuildingBlock: XIVTED_clean_linker_0, # of connection points: 2
#     Edge 419, Type (0, 1), BuildingBlock: XIVTED_clean_linker_0, # of connection points: 2
#     Edge 420, Type (0, 1), BuildingBlock: XIVTED_clean_linker_0, # of connection points: 2
#     Edge 421, Type (0, 1), BuildingBlock: XIVTED_clean_linker_0, # of connection points: 2
#     Edge 422, Type (0, 1), BuildingBlock: XIVTED_clean_linker_0, # of connection points: 2
#     Edge 423, Type (0, 1), BuildingBlock: XIVTED_clean_linker_0, # of connection points: 2
#     Edge 424, Type (0, 1), BuildingBlock: XIVTED_clean_linker_0, # of connection points: 2
#     Edge 425, Type (0, 1), BuildingBlock: XIVTED_clean_linker_0, # of connection points: 2
#     Edge 426, Type (0, 1), BuildingBlock: XIVTED_clean_linker_0, # of connection points: 2
#     Edge 427, Type (0, 1), BuildingBlock: XIVTED_clean_linker_0, # of connection points: 2
#     Edge 428, Type (0, 1), BuildingBlock: XIVTED_clean_linker_0, # of connection points: 2
#     Edge 429, Type (0, 1), BuildingBlock: XIVTED_clean_linker_0, # of connection points: 2
#     Edge 430, Type (0, 1), BuildingBlock: XIVTED_clean_linker_0, # of connection points: 2
#     Edge 431, Type (0, 1), BuildingBlock: XIVTED_clean_linker_0, # of connection points: 2
#     Edge 432, Type (0, 1), BuildingBlock: XIVTED_clean_linker_0, # of connection points: 2
#     Edge 433, Type (0, 1), BuildingBlock: XIVTED_clean_linker_0, # of connection points: 2
#     Edge 434, Type (0, 1), BuildingBlock: XIVTED_clean_linker_0, # of connection points: 2
#     Edge 435, Type (0, 1), BuildingBlock: XIVTED_clean_linker_0, # of connection points: 2
#     Edge 436, Type (0, 1), BuildingBlock: XIVTED_clean_linker_0, # of connection points: 2
#     Edge 437, Type (0, 1), BuildingBlock: XIVTED_clean_linker_0, # of connection points: 2
#     Edge 438, Type (0, 1), BuildingBlock: XIVTED_clean_linker_0, # of connection points: 2
#     Edge 439, Type (0, 1), BuildingBlock: XIVTED_clean_linker_0, # of connection points: 2
#     Edge 440, Type (0, 1), BuildingBlock: XIVTED_clean_linker_0, # of connection points: 2
#     Edge 441, Type (0, 1), BuildingBlock: XIVTED_clean_linker_0, # of connection points: 2
#     Edge 442, Type (0, 1), BuildingBlock: XIVTED_clean_linker_0, # of connection points: 2
#     Edge 443, Type (0, 1), BuildingBlock: XIVTED_clean_linker_0, # of connection points: 2
#     Edge 444, Type (0, 1), BuildingBlock: XIVTED_clean_linker_0, # of connection points: 2
#     Edge 445, Type (0, 1), BuildingBlock: XIVTED_clean_linker_0, # of connection points: 2
#     Edge 446, Type (0, 1), BuildingBlock: XIVTED_clean_linker_0, # of connection points: 2
#     Edge 447, Type (0, 1), BuildingBlock: XIVTED_clean_linker_0, # of connection points: 2
#     Edge 448, Type (0, 1), BuildingBlock: XIVTED_clean_linker_0, # of connection points: 2
#     Edge 449, Type (0, 1), BuildingBlock: XIVTED_clean_linker_0, # of connection points: 2
#     Edge 450, Type (0, 1), BuildingBlock: XIVTED_clean_linker_0, # of connection points: 2
#     Edge 451, Type (0, 1), BuildingBlock: XIVTED_clean_linker_0, # of connection points: 2
#     Edge 452, Type (0, 1), BuildingBlock: XIVTED_clean_linker_0, # of connection points: 2
#     Edge 453, Type (0, 1), BuildingBlock: XIVTED_clean_linker_0, # of connection points: 2
#     Edge 454, Type (0, 1), BuildingBlock: XIVTED_clean_linker_0, # of connection points: 2
#     Edge 455, Type (0, 1), BuildingBlock: XIVTED_clean_linker_0, # of connection points: 2
#     Edge 456, Type (0, 1), BuildingBlock: XIVTED_clean_linker_0, # of connection points: 2
#     Edge 457, Type (0, 1), BuildingBlock: XIVTED_clean_linker_0, # of connection points: 2
#     Edge 458, Type (0, 1), BuildingBlock: XIVTED_clean_linker_0, # of connection points: 2
#     Edge 459, Type (0, 1), BuildingBlock: XIVTED_clean_linker_0, # of connection points: 2
#     Edge 460, Type (0, 1), BuildingBlock: XIVTED_clean_linker_0, # of connection points: 2
#     Edge 461, Type (0, 1), BuildingBlock: XIVTED_clean_linker_0, # of connection points: 2
#     Edge 462, Type (0, 1), BuildingBlock: XIVTED_clean_linker_0, # of connection points: 2
#     Edge 463, Type (0, 1), BuildingBlock: XIVTED_clean_linker_0, # of connection points: 2
#     Edge 464, Type (0, 1), BuildingBlock: XIVTED_clean_linker_0, # of connection points: 2
#     Edge 465, Type (0, 1), BuildingBlock: XIVTED_clean_linker_0, # of connection points: 2
#     Edge 466, Type (0, 1), BuildingBlock: XIVTED_clean_linker_0, # of connection points: 2
#     Edge 467, Type (0, 1), BuildingBlock: XIVTED_clean_linker_0, # of connection points: 2
#     Edge 468, Type (0, 1), BuildingBlock: XIVTED_clean_linker_0, # of connection points: 2
#     Edge 469, Type (0, 1), BuildingBlock: XIVTED_clean_linker_0, # of connection points: 2
#     Edge 470, Type (0, 1), BuildingBlock: XIVTED_clean_linker_0, # of connection points: 2
#     Edge 471, Type (0, 1), BuildingBlock: XIVTED_clean_linker_0, # of connection points: 2
#     Edge 472, Type (0, 1), BuildingBlock: XIVTED_clean_linker_0, # of connection points: 2
#     Edge 473, Type (0, 1), BuildingBlock: XIVTED_clean_linker_0, # of connection points: 2
#     Edge 474, Type (0, 1), BuildingBlock: XIVTED_clean_linker_0, # of connection points: 2
#     Edge 475, Type (0, 1), BuildingBlock: XIVTED_clean_linker_0, # of connection points: 2
#     Edge 476, Type (0, 1), BuildingBlock: XIVTED_clean_linker_0, # of connection points: 2
#     Edge 477, Type (0, 1), BuildingBlock: XIVTED_clean_linker_0, # of connection points: 2
#     Edge 478, Type (0, 1), BuildingBlock: XIVTED_clean_linker_0, # of connection points: 2
#     Edge 479, Type (0, 1), BuildingBlock: XIVTED_clean_linker_0, # of connection points: 2
# Relax obj value: 0.034
# Max RMSD: 0.055
# Mean RMSD: 0.030
data_MOF--net-ana-f--node1-WUSLED_clean_sbu_0--node2-BETDIP_clean_linker_0--edge1-XIVTED_clean_linker_0
_symmetry_space_group_name_H-M    P1
_symmetry_Int_Tables_number       1
_symmetry_cell_setting            triclinic
loop_
_symmetry_equiv_pos_as_xyz
'x, y, z'
_cell_length_a     187.35937
_cell_length_b     187.41056
_cell_length_c     187.47376
_cell_angle_alpha  90.023069
_cell_angle_beta   90.005439
_cell_angle_gamma 89.983239
loop_
_atom_site_label
_atom_site_type_symbol
_atom_site_fract_x
_atom_site_fract_y
_atom_site_fract_z
_atom_type_partial_charge
C0 C 0.07217 0.1449 0.43327 0.0
C1 C 0.07931 0.14619 0.4314 0.0
C2 C 0.08335 0.13855 0.44107 0.0
C3 C 0.08484 0.14303 0.43524 0.0
C4 C 0.0762 0.1374 0.44305 0.0
C5 C 0.07064 0.14054 0.43914 0.0
U6 U 0.06667 0.1588 0.42001 0.0
O7 O 0.06028 0.15825 0.41022 0.0
O8 O 0.057 0.16543 0.41891 0.0
C9 C 0.0554 0.16266 0.41266 0.0
C10 C 0.06641 0.14814 0.42904 0.0
C11 C 0.04791 0.16053 0.41156 0.0
C12 C 0.03895 0.15157 0.40875 0.0
C13 C 0.04593 0.15335 0.41072 0.0
C14 C 0.03577 0.1641 0.4088 0.0
C15 C 0.03383 0.15695 0.4076 0.0
C16 C 0.04274 0.16587 0.41073 0.0
C17 C 0.08125 0.17141 0.41338 0.0
C18 C 0.08162 0.17735 0.40186 0.0
C19 C 0.08929 0.18139 0.41146 0.0
C20 C 0.08646 0.17613 0.41593 0.0
C21 C 0.08699 0.18197 0.40434 0.0
C22 C 0.07874 0.17214 0.40636 0.0
C23 C 0.07873 0.1656 0.41802 0.0
O24 O 0.06469 0.15469 0.43085 0.0
O25 O 0.06706 0.14728 0.4221 0.0
O26 O 0.0771 0.1596 0.41477 0.0
O27 O 0.07412 0.16741 0.42298 0.0
H28 H 0.0806 0.14963 0.42693 0.0
H29 H 0.09029 0.14412 0.43367 0.0
H30 H 0.07491 0.13398 0.44752 0.0
H31 H 0.06516 0.13952 0.44067 0.0
H32 H 0.03765 0.14602 0.40784 0.0
H33 H 0.04983 0.14912 0.41136 0.0
H34 H 0.03192 0.16836 0.4081 0.0
H35 H 0.04415 0.17144 0.41138 0.0
H36 H 0.0797 0.17773 0.39643 0.0
H37 H 0.09347 0.18482 0.4135 0.0
H38 H 0.08846 0.17565 0.42133 0.0
H39 H 0.07466 0.1686 0.4043 0.0
C40 C 0.11316 0.8214 0.68616 0.0
C41 C 0.10844 0.82452 0.69108 0.0
C42 C 0.11779 0.83259 0.69516 0.0
C43 C 0.11074 0.83002 0.69556 0.0
C44 C 0.12258 0.82925 0.69043 0.0
C45 C 0.12028 0.8237 0.68599 0.0
U46 U 0.10034 0.8167 0.67132 0.0
O47 O 0.10209 0.81143 0.66096 0.0
O48 O 0.09446 0.80694 0.66864 0.0
C49 C 0.0979 0.80605 0.66259 0.0
C50 C 0.11061 0.8162 0.6808 0.0
C51 C 0.10083 0.79886 0.66126 0.0
C52 C 0.10433 0.78971 0.65277 0.0
C53 C 0.10197 0.79664 0.65422 0.0
C54 C 0.10452 0.78714 0.66544 0.0
C55 C 0.10553 0.78486 0.65836 0.0
C56 C 0.10222 0.7941 0.66688 0.0
C57 C 0.08642 0.83103 0.66645 0.0
C58 C 0.08098 0.83433 0.65513 0.0
C59 C 0.0751 0.83736 0.66623 0.0
C60 C 0.08062 0.83411 0.67004 0.0
C61 C 0.07529 0.83766 0.65874 0.0
C62 C 0.08649 0.83104 0.65895 0.0
C63 C 0.09247 0.82827 0.67066 0.0
O64 O 0.10424 0.81343 0.68189 0.0
O65 O 0.11166 0.81808 0.67413 0.0
O66 O 0.0986 0.82757 0.6673 0.0
O67 O 0.09105 0.82293 0.67497 0.0
H68 H 0.10291 0.82287 0.69136 0.0
H69 H 0.10695 0.83236 0.69923 0.0
H70 H 0.12802 0.83112 0.68992 0.0
H71 H 0.12401 0.82139 0.68223 0.0
H72 H 0.105 0.78808 0.64727 0.0
H73 H 0.10092 0.80022 0.64981 0.0
H74 H 0.10549 0.78355 0.66985 0.0
H75 H 0.10144 0.7957 0.67238 0.0
H76 H 0.08133 0.83451 0.64937 0.0
H77 H 0.07074 0.83974 0.66918 0.0
H78 H 0.08044 0.83414 0.67582 0.0
H79 H 0.09088 0.82867 0.65603 0.0
C80 C 0.43976 0.8637 0.93626 0.0
C81 C 0.43665 0.8588 0.94101 0.0
C82 C 0.42877 0.86806 0.94565 0.0
C83 C 0.43125 0.86097 0.94567 0.0
C84 C 0.43212 0.87302 0.94111 0.0
C85 C 0.43757 0.87086 0.93649 0.0
U86 U 0.44389 0.85203 0.92032 0.0
O87 O 0.44921 0.85448 0.91013 0.0
O88 O 0.45343 0.84604 0.91709 0.0
C89 C 0.45442 0.84994 0.91134 0.0
C90 C 0.44485 0.86135 0.9307 0.0
C91 C 0.46169 0.85269 0.9102 0.0
C92 C 0.47332 0.85633 0.91466 0.0
C93 C 0.46632 0.85407 0.91593 0.0
C94 C 0.47108 0.85606 0.90193 0.0
C95 C 0.47579 0.85731 0.90764 0.0
C96 C 0.46411 0.85375 0.90321 0.0
C97 C 0.42913 0.83942 0.91392 0.0
C98 C 0.42756 0.83468 0.90195 0.0
C99 C 0.42149 0.82915 0.91193 0.0
C100 C 0.42458 0.83411 0.91656 0.0
C101 C 0.42286 0.82944 0.90456 0.0
C102 C 0.4307 0.83961 0.9066 0.0
C103 C 0.43198 0.84482 0.91886 0.0
O104 O 0.44727 0.85478 0.93122 0.0
O105 O 0.44306 0.8631 0.92415 0.0
O106 O 0.43296 0.85123 0.91619 0.0
O107 O 0.43723 0.84271 0.92301 0.0
H108 H 0.43823 0.85324 0.941 0.0
H109 H 0.4289 0.85704 0.94919 0.0
H110 H 0.43032 0.87851 0.94089 0.0
H111 H 0.43988 0.87474 0.93289 0.0
H112 H 0.47681 0.85732 0.91916 0.0
H113 H 0.46455 0.85335 0.92139 0.0
H114 H 0.47284 0.85669 0.89647 0.0
H115 H 0.46062 0.8527 0.89872 0.0
H116 H 0.42878 0.83498 0.89631 0.0
H117 H 0.41784 0.82523 0.9141 0.0
H118 H 0.42331 0.83388 0.9222 0.0
H119 H 0.43426 0.84362 0.90445 0.0
C120 C 0.39567 0.18969 0.18185 0.0
C121 C 0.3965 0.18261 0.17958 0.0
C122 C 0.38922 0.17846 0.18948 0.0
C123 C 0.39328 0.17705 0.18334 0.0
C124 C 0.38852 0.18555 0.19185 0.0
C125 C 0.3917 0.19114 0.18803 0.0
U126 U 0.40946 0.1954 0.16849 0.0
O127 O 0.40884 0.20238 0.15912 0.0
O128 O 0.41634 0.2049 0.16777 0.0
C129 C 0.41344 0.20698 0.16173 0.0
C130 C 0.399 0.19551 0.17777 0.0
C131 C 0.41125 0.2145 0.16138 0.0
C132 C 0.4024 0.22383 0.16304 0.0
C133 C 0.40454 0.21672 0.16385 0.0
C134 C 0.41374 0.22658 0.15747 0.0
C135 C 0.40696 0.22883 0.15978 0.0
C136 C 0.41586 0.21948 0.15825 0.0
C137 C 0.42161 0.18066 0.16101 0.0
C138 C 0.42657 0.17874 0.14917 0.0
C139 C 0.43237 0.17357 0.1595 0.0
C140 C 0.42719 0.1766 0.16392 0.0
C141 C 0.43204 0.1745 0.15206 0.0
C142 C 0.42141 0.18182 0.15361 0.0
C143 C 0.41589 0.18327 0.16576 0.0
O144 O 0.40564 0.19695 0.17951 0.0
O145 O 0.39798 0.19518 0.17084 0.0
O146 O 0.40991 0.18525 0.16266 0.0
O147 O 0.41788 0.18756 0.17094 0.0
H148 H 0.39962 0.18137 0.17488 0.0
H149 H 0.39402 0.17163 0.18146 0.0
H150 H 0.38541 0.18678 0.19656 0.0
H151 H 0.39105 0.19658 0.18988 0.0
H152 H 0.39718 0.22541 0.16495 0.0
H153 H 0.40092 0.21293 0.1663 0.0
H154 H 0.41735 0.23026 0.15485 0.0
H155 H 0.42105 0.21784 0.1563 0.0
H156 H 0.42622 0.1796 0.14347 0.0
H157 H 0.43648 0.17027 0.16187 0.0
H158 H 0.42743 0.17562 0.16961 0.0
H159 H 0.4172 0.18497 0.15121 0.0
C160 C 0.07073 0.86455 0.07596 0.0
C161 C 0.07567 0.86004 0.07257 0.0
C162 C 0.08166 0.87032 0.06737 0.0
C163 C 0.08106 0.8629 0.06828 0.0
C164 C 0.07662 0.87481 0.07065 0.0
C165 C 0.07119 0.87194 0.07489 0.0
U166 U 0.06611 0.85158 0.0907 0.0
O167 O 0.06047 0.85327 0.10086 0.0
O168 O 0.05641 0.84546 0.09312 0.0
C169 C 0.05526 0.84891 0.09912 0.0
C170 C 0.06549 0.86169 0.08107 0.0
C171 C 0.04798 0.85167 0.10024 0.0
C172 C 0.03644 0.85557 0.09576 0.0
C173 C 0.04341 0.85322 0.0945 0.0
C174 C 0.03857 0.85504 0.1085 0.0
C175 C 0.03394 0.85648 0.10278 0.0
C176 C 0.04552 0.85263 0.10724 0.0
C177 C 0.08057 0.83856 0.09688 0.0
C178 C 0.08198 0.8334 0.1087 0.0
C179 C 0.08786 0.82798 0.09854 0.0
C180 C 0.08493 0.83318 0.09407 0.0
C181 C 0.08652 0.82811 0.10592 0.0
C182 C 0.079 0.83856 0.10421 0.0
C183 C 0.07795 0.84426 0.09214 0.0
O184 O 0.06323 0.85515 0.07989 0.0
O185 O 0.06703 0.86291 0.0878 0.0
O186 O 0.07689 0.85051 0.09515 0.0
O187 O 0.07287 0.84244 0.08766 0.0
H188 H 0.0755 0.85432 0.0734 0.0
H189 H 0.08492 0.85932 0.0659 0.0
H190 H 0.07693 0.88054 0.07001 0.0
H191 H 0.06745 0.87551 0.07749 0.0
H192 H 0.03301 0.85671 0.09125 0.0
H193 H 0.04521 0.85257 0.08905 0.0
H194 H 0.03678 0.85561 0.11396 0.0
H195 H 0.04895 0.85146 0.11174 0.0
H196 H 0.0808 0.83359 0.11435 0.0
H197 H 0.09139 0.82401 0.09625 0.0
H198 H 0.0862 0.83308 0.08843 0.0
H199 H 0.07558 0.84262 0.1065 0.0
C200 C 0.39333 0.82224 0.32768 0.0
C201 C 0.39362 0.82932 0.33011 0.0
C202 C 0.38694 0.83329 0.31972 0.0
C203 C 0.39042 0.83478 0.32619 0.0
C204 C 0.38676 0.82621 0.31722 0.0
C205 C 0.38992 0.82072 0.3212 0.0
U206 U 0.40671 0.81718 0.34166 0.0
O207 O 0.40611 0.81013 0.35097 0.0
O208 O 0.41414 0.80812 0.34267 0.0
C209 C 0.4111 0.80583 0.34856 0.0
C210 C 0.39674 0.81655 0.33187 0.0
C211 C 0.40938 0.79819 0.34883 0.0
C212 C 0.40102 0.78839 0.34735 0.0
C213 C 0.40275 0.7956 0.34649 0.0
C214 C 0.41262 0.78626 0.35267 0.0
C215 C 0.40591 0.78365 0.35052 0.0
C216 C 0.41432 0.79346 0.35184 0.0
C217 C 0.41738 0.83267 0.34975 0.0
C218 C 0.42787 0.83146 0.35728 0.0
C219 C 0.42175 0.84283 0.35645 0.0
C220 C 0.41683 0.83985 0.35173 0.0
C221 C 0.42734 0.83869 0.35928 0.0
C222 C 0.4229 0.82846 0.35258 0.0
C223 C 0.41211 0.82973 0.34475 0.0
O224 O 0.40353 0.81548 0.33046 0.0
O225 O 0.39536 0.81673 0.33875 0.0
O226 O 0.40623 0.82726 0.34767 0.0
O227 O 0.41462 0.8256 0.33966 0.0
H228 H 0.39632 0.83062 0.33505 0.0
H229 H 0.39077 0.84019 0.32819 0.0
H230 H 0.38411 0.82492 0.31225 0.0
H231 H 0.3897 0.81529 0.31922 0.0
H232 H 0.39585 0.78653 0.34556 0.0
H233 H 0.39888 0.79918 0.34413 0.0
H234 H 0.41647 0.78278 0.35521 0.0
H235 H 0.41945 0.79538 0.3537 0.0
H236 H 0.43209 0.82813 0.35941 0.0
H237 H 0.42126 0.84843 0.35778 0.0
H238 H 0.4126 0.84316 0.34959 0.0
H239 H 0.42337 0.82288 0.35114 0.0
C240 C 0.4393 0.14473 0.57767 0.0
C241 C 0.43221 0.14533 0.58 0.0
C242 C 0.42818 0.13815 0.56997 0.0
C243 C 0.42671 0.14204 0.57621 0.0
C244 C 0.43527 0.13771 0.56754 0.0
C245 C 0.4408 0.14095 0.57139 0.0
U246 U 0.44477 0.15867 0.59096 0.0
O247 O 0.45148 0.15815 0.60053 0.0
O248 O 0.45429 0.16552 0.59186 0.0
C249 C 0.45619 0.16269 0.59799 0.0
C250 C 0.44505 0.1481 0.58181 0.0
C251 C 0.46368 0.16046 0.59857 0.0
C252 C 0.47297 0.15148 0.59746 0.0
C253 C 0.46588 0.15362 0.59646 0.0
C254 C 0.47573 0.16305 0.60252 0.0
C255 C 0.47796 0.15616 0.60055 0.0
C256 C 0.46865 0.16517 0.60154 0.0
C257 C 0.42991 0.17091 0.59794 0.0
C258 C 0.42895 0.1766 0.60956 0.0
C259 C 0.42192 0.18098 0.59963 0.0
C260 C 0.42493 0.17578 0.59521 0.0
C261 C 0.4238 0.18136 0.60688 0.0
C262 C 0.43201 0.17144 0.60512 0.0
C263 C 0.43258 0.16516 0.59329 0.0
O264 O 0.44655 0.15472 0.58002 0.0
O265 O 0.44461 0.14717 0.58875 0.0
O266 O 0.43447 0.15921 0.59651 0.0
O267 O 0.43702 0.1671 0.58823 0.0
H268 H 0.43092 0.14832 0.58478 0.0
H269 H 0.42129 0.14259 0.57814 0.0
H270 H 0.43654 0.13474 0.56274 0.0
H271 H 0.44624 0.14048 0.56949 0.0
H272 H 0.47454 0.14616 0.59581 0.0
H273 H 0.46211 0.14991 0.59412 0.0
H274 H 0.47941 0.16676 0.60499 0.0
H275 H 0.46703 0.17046 0.60323 0.0
H276 H 0.43055 0.17682 0.6151 0.0
H277 H 0.41792 0.18452 0.59743 0.0
H278 H 0.42324 0.17545 0.58969 0.0
H279 H 0.4359 0.16778 0.60733 0.0
C280 C 0.11373 0.18943 0.82581 0.0
C281 C 0.11018 0.18285 0.82583 0.0
C282 C 0.11823 0.17833 0.81669 0.0
C283 C 0.11241 0.17735 0.82133 0.0
C284 C 0.12176 0.18496 0.81666 0.0
C285 C 0.11952 0.19048 0.8212 0.0
U286 U 0.1012 0.19501 0.84029 0.0
O287 O 0.10292 0.20072 0.85042 0.0
O288 O 0.09538 0.20495 0.84249 0.0
C289 C 0.09878 0.20606 0.84853 0.0
C290 C 0.11143 0.19505 0.83076 0.0
C291 C 0.10176 0.21326 0.84962 0.0
C292 C 0.10562 0.2248 0.84511 0.0
C293 C 0.10314 0.21787 0.84387 0.0
C294 C 0.10558 0.22253 0.85783 0.0
C295 C 0.10683 0.22722 0.85211 0.0
C296 C 0.10305 0.21563 0.85659 0.0
C297 C 0.08732 0.18074 0.84574 0.0
C298 C 0.0823 0.17646 0.85692 0.0
C299 C 0.07565 0.17508 0.84594 0.0
C300 C 0.08114 0.17843 0.84219 0.0
C301 C 0.07624 0.17388 0.85332 0.0
C302 C 0.08779 0.17985 0.85317 0.0
C303 C 0.09337 0.18347 0.84149 0.0
O304 O 0.10504 0.19766 0.82952 0.0
O305 O 0.11251 0.19356 0.83753 0.0
O306 O 0.09948 0.18434 0.84482 0.0
O307 O 0.09191 0.18862 0.83696 0.0
H308 H 0.10572 0.18193 0.8294 0.0
H309 H 0.10965 0.17228 0.82162 0.0
H310 H 0.12622 0.18591 0.81312 0.0
H311 H 0.12232 0.19553 0.82113 0.0
H312 H 0.1066 0.22827 0.8406 0.0
H313 H 0.10224 0.21616 0.83842 0.0
H314 H 0.10639 0.22426 0.86329 0.0
H315 H 0.10201 0.21217 0.8611 0.0
H316 H 0.08296 0.17557 0.86259 0.0
H317 H 0.071 0.17327 0.84301 0.0
H318 H 0.08065 0.17905 0.83646 0.0
H319 H 0.09249 0.18157 0.85607 0.0
C320 C 0.4346 0.07097 0.14747 0.0
C321 C 0.43424 0.07776 0.15059 0.0
C322 C 0.44359 0.08203 0.14265 0.0
C323 C 0.43868 0.08323 0.14821 0.0
C324 C 0.44392 0.0752 0.13952 0.0
C325 C 0.43946 0.0697 0.14193 0.0
U326 U 0.41976 0.06584 0.15973 0.0
O327 O 0.40999 0.05953 0.15819 0.0
O328 O 0.41779 0.05634 0.16634 0.0
C329 C 0.41187 0.05473 0.16294 0.0
C330 C 0.42977 0.06533 0.14999 0.0
C331 C 0.41116 0.04725 0.16073 0.0
C332 C 0.41309 0.03765 0.15222 0.0
C333 C 0.41401 0.04479 0.15425 0.0
C334 C 0.40658 0.0354 0.16317 0.0
C335 C 0.40935 0.03288 0.15666 0.0
C336 C 0.40748 0.04251 0.16517 0.0
C337 C 0.41278 0.0807 0.17197 0.0
C338 C 0.40091 0.08218 0.177 0.0
C339 C 0.41097 0.08836 0.18227 0.0
C340 C 0.41551 0.08529 0.17721 0.0
C341 C 0.40361 0.08692 0.18215 0.0
C342 C 0.40546 0.07907 0.17197 0.0
C343 C 0.41762 0.07794 0.16643 0.0
O344 O 0.43081 0.06334 0.15663 0.0
O345 O 0.42301 0.0664 0.14847 0.0
O346 O 0.4147 0.07639 0.16024 0.0
O347 O 0.42232 0.07318 0.16855 0.0
H348 H 0.43048 0.07884 0.15484 0.0
H349 H 0.43816 0.08845 0.15064 0.0
H350 H 0.44767 0.0741 0.13527 0.0
H351 H 0.43979 0.06449 0.13946 0.0
H352 H 0.41534 0.03586 0.14721 0.0
H353 H 0.4169 0.04838 0.15077 0.0
H354 H 0.40359 0.0319 0.16666 0.0
H355 H 0.40524 0.04434 0.17018 0.0
H356 H 0.39527 0.08093 0.17682 0.0
H357 H 0.4132 0.09205 0.18612 0.0
H358 H 0.42113 0.08662 0.1773 0.0
H359 H 0.40324 0.07548 0.16802 0.0
C360 C 0.18852 0.1827 0.39543 0.0
C361 C 0.18142 0.18099 0.3971 0.0
C362 C 0.17719 0.19044 0.38928 0.0
C363 C 0.17582 0.1848 0.39402 0.0
C364 C 0.18431 0.1923 0.3878 0.0
C365 C 0.18995 0.18843 0.39083 0.0
U366 U 0.19438 0.16898 0.40875 0.0
O367 O 0.20066 0.15915 0.40749 0.0
O368 O 0.20423 0.16747 0.41494 0.0
C369 C 0.20576 0.1614 0.41175 0.0
C370 C 0.19434 0.17835 0.39837 0.0
C371 C 0.21308 0.16055 0.409 0.0
C372 C 0.2245 0.16539 0.40516 0.0
C373 C 0.21752 0.16643 0.40762 0.0
C374 C 0.22262 0.1526 0.40527 0.0
C375 C 0.22711 0.15845 0.40395 0.0
C376 C 0.21568 0.15364 0.40779 0.0
C377 C 0.18005 0.16218 0.42167 0.0
C378 C 0.17934 0.1505 0.42725 0.0
C379 C 0.17232 0.16032 0.43189 0.0
C380 C 0.17517 0.16482 0.42667 0.0
C381 C 0.17427 0.15308 0.43215 0.0
C382 C 0.18223 0.15502 0.42207 0.0
C383 C 0.18253 0.1669 0.4159 0.0
O384 O 0.19628 0.17994 0.40492 0.0
O385 O 0.19358 0.17145 0.39733 0.0
O386 O 0.18394 0.16378 0.40978 0.0
O387 O 0.18728 0.17174 0.41771 0.0
H388 H 0.18022 0.17663 0.4007 0.0
H389 H 0.17039 0.18332 0.39535 0.0
H390 H 0.18551 0.19663 0.38416 0.0
H391 H 0.1954 0.18982 0.38952 0.0
H392 H 0.22782 0.17 0.40413 0.0
H393 H 0.21562 0.17183 0.40847 0.0
H394 H 0.22451 0.14719 0.40449 0.0
H395 H 0.21235 0.14903 0.40884 0.0
H396 H 0.181 0.14496 0.42738 0.0
H397 H 0.16837 0.16245 0.43554 0.0
H398 H 0.17342 0.17033 0.42645 0.0
H399 H 0.18606 0.15288 0.4183 0.0
C400 C 0.07696 0.93909 0.64506 0.0
C401 C 0.07827 0.93197 0.64694 0.0
C402 C 0.06879 0.92801 0.63902 0.0
C403 C 0.07424 0.92648 0.64394 0.0
C404 C 0.06732 0.93517 0.6373 0.0
C405 C 0.07142 0.94068 0.64028 0.0
U406 U 0.09124 0.94445 0.65802 0.0
O407 O 0.10114 0.95058 0.65656 0.0
O408 O 0.09312 0.95415 0.66434 0.0
C409 C 0.09912 0.95561 0.66101 0.0
C410 C 0.08156 0.94476 0.64792 0.0
C411 C 0.10009 0.96299 0.65847 0.0
C412 C 0.0955 0.97476 0.65549 0.0
C413 C 0.09432 0.9677 0.65763 0.0
C414 C 0.1082 0.97243 0.65484 0.0
C415 C 0.10246 0.9772 0.65409 0.0
C416 C 0.10703 0.96541 0.65703 0.0
C417 C 0.09817 0.92997 0.67065 0.0
C418 C 0.11006 0.92875 0.67571 0.0
C419 C 0.10002 0.92278 0.68127 0.0
C420 C 0.09547 0.92561 0.67608 0.0
C421 C 0.10738 0.92423 0.68107 0.0
C422 C 0.10548 0.93163 0.67057 0.0
C423 C 0.09332 0.93251 0.665 0.0
O424 O 0.08021 0.94666 0.65454 0.0
O425 O 0.0884 0.94382 0.64667 0.0
O426 O 0.09626 0.9339 0.65879 0.0
O427 O 0.08857 0.93729 0.66696 0.0
H428 H 0.08249 0.93065 0.65067 0.0
H429 H 0.07541 0.92103 0.64546 0.0
H430 H 0.06316 0.93649 0.63352 0.0
H431 H 0.07034 0.94616 0.63878 0.0
H432 H 0.09096 0.9783 0.6549 0.0
H433 H 0.0889 0.96596 0.65867 0.0
H434 H 0.11363 0.97417 0.65389 0.0
H435 H 0.11156 0.96187 0.65767 0.0
H436 H 0.11569 0.93002 0.67548 0.0
H437 H 0.09782 0.91926 0.68528 0.0
H438 H 0.08984 0.92426 0.67624 0.0
H439 H 0.10769 0.93506 0.66647 0.0
C440 C 0.32083 0.82647 0.89484 0.0
C441 C 0.32579 0.82289 0.89918 0.0
C442 C 0.33164 0.81799 0.88867 0.0
C443 C 0.33111 0.81865 0.89612 0.0
C444 C 0.32659 0.82147 0.88434 0.0
C445 C 0.32122 0.82565 0.88741 0.0
U446 U 0.31645 0.84099 0.90814 0.0
O447 O 0.31048 0.85101 0.90695 0.0
O448 O 0.30696 0.84301 0.91475 0.0
C449 C 0.30555 0.84909 0.91155 0.0
C450 C 0.31561 0.83147 0.89793 0.0
C451 C 0.29813 0.85006 0.90924 0.0
C452 C 0.28868 0.84872 0.90046 0.0
C453 C 0.29578 0.84765 0.90255 0.0
C454 C 0.28624 0.8545 0.91177 0.0
C455 C 0.28384 0.85215 0.90506 0.0
C456 C 0.29332 0.85346 0.91383 0.0
C457 C 0.33119 0.84731 0.92071 0.0
C458 C 0.33241 0.85908 0.92603 0.0
C459 C 0.33858 0.84898 0.93122 0.0
C460 C 0.33569 0.84452 0.92598 0.0
C461 C 0.33706 0.85632 0.93123 0.0
C462 C 0.32946 0.85461 0.92084 0.0
C463 C 0.32853 0.84259 0.91501 0.0
O464 O 0.31361 0.83018 0.90454 0.0
O465 O 0.31697 0.83825 0.89674 0.0
O466 O 0.32716 0.84567 0.90886 0.0
O467 O 0.32366 0.83792 0.91693 0.0
H468 H 0.32567 0.82351 0.90492 0.0
H469 H 0.33498 0.81611 0.89958 0.0
H470 H 0.32685 0.82102 0.87859 0.0
H471 H 0.31747 0.8284 0.88397 0.0
H472 H 0.28697 0.8468 0.89529 0.0
H473 H 0.29943 0.84497 0.89895 0.0
H474 H 0.28267 0.85725 0.91539 0.0
H475 H 0.29506 0.85535 0.91901 0.0
H476 H 0.33109 0.86471 0.92596 0.0
H477 H 0.3422 0.84672 0.93512 0.0
H478 H 0.33708 0.83891 0.92598 0.0
H479 H 0.32592 0.85688 0.91687 0.0
C480 C 0.43683 0.94013 0.36187 0.0
C481 C 0.44104 0.93651 0.35682 0.0
C482 C 0.44609 0.92903 0.36617 0.0
C483 C 0.44565 0.93106 0.35896 0.0
C484 C 0.4421 0.93287 0.37125 0.0
C485 C 0.43752 0.93837 0.36911 0.0
U486 U 0.42099 0.94438 0.35017 0.0
O487 O 0.41069 0.94949 0.35268 0.0
O488 O 0.41766 0.95402 0.34441 0.0
C489 C 0.41186 0.95483 0.34829 0.0
C490 C 0.43125 0.94523 0.35962 0.0
C491 C 0.41062 0.96201 0.35121 0.0
C492 C 0.41495 0.97355 0.35526 0.0
C493 C 0.4163 0.9666 0.35289 0.0
C494 C 0.40223 0.97132 0.35455 0.0
C495 C 0.4079 0.976 0.35605 0.0
C496 C 0.40359 0.9644 0.35213 0.0
C497 C 0.41495 0.92987 0.33711 0.0
C498 C 0.40307 0.92852 0.33208 0.0
C499 C 0.41306 0.92216 0.32688 0.0
C500 C 0.41762 0.9252 0.33193 0.0
C501 C 0.40571 0.9237 0.32697 0.0
C502 C 0.40766 0.93162 0.33709 0.0
C503 C 0.41979 0.93265 0.34263 0.0
O504 O 0.43182 0.94783 0.35312 0.0
O505 O 0.4247 0.94331 0.36125 0.0
O506 O 0.41702 0.93342 0.34903 0.0
O507 O 0.42387 0.93802 0.34071 0.0
H508 H 0.44062 0.93773 0.35119 0.0
H509 H 0.44875 0.92833 0.35492 0.0
H510 H 0.44223 0.93141 0.37683 0.0
H511 H 0.43431 0.94106 0.37309 0.0
H512 H 0.41943 0.97701 0.35645 0.0
H513 H 0.42178 0.96485 0.35228 0.0
H514 H 0.39675 0.97308 0.35504 0.0
H515 H 0.39913 0.96094 0.35086 0.0
H516 H 0.39745 0.92987 0.33222 0.0
H517 H 0.41524 0.9184 0.32306 0.0
H518 H 0.42324 0.9238 0.33186 0.0
H519 H 0.40549 0.93527 0.34101 0.0
C520 C 0.3217 0.18354 0.61474 0.0
C521 C 0.32885 0.18183 0.61334 0.0
C522 C 0.3328 0.19136 0.6212 0.0
C523 C 0.33434 0.18568 0.61656 0.0
C524 C 0.32563 0.19323 0.62243 0.0
C525 C 0.3201 0.1893 0.61924 0.0
U526 U 0.31672 0.16929 0.60172 0.0
O527 O 0.31037 0.15951 0.6029 0.0
O528 O 0.30735 0.16749 0.59486 0.0
C529 C 0.3056 0.16156 0.59818 0.0
C530 C 0.31601 0.17913 0.61162 0.0
C531 C 0.2981 0.16075 0.60043 0.0
C532 C 0.28639 0.1656 0.60324 0.0
C533 C 0.29347 0.16662 0.60107 0.0
C534 C 0.28853 0.15289 0.60422 0.0
C535 C 0.28386 0.15872 0.60488 0.0
C536 C 0.29556 0.15389 0.602 0.0
C537 C 0.33225 0.16184 0.59061 0.0
C538 C 0.3313 0.15416 0.58019 0.0
C539 C 0.34252 0.15507 0.58657 0.0
C540 C 0.33942 0.15987 0.59134 0.0
C541 C 0.3385 0.15215 0.58095 0.0
C542 C 0.32818 0.15894 0.58501 0.0
C543 C 0.32917 0.16682 0.59582 0.0
O544 O 0.31458 0.18042 0.60488 0.0
O545 O 0.31659 0.17229 0.61304 0.0
O546 O 0.32717 0.16395 0.60188 0.0
O547 O 0.32461 0.17155 0.59334 0.0
H548 H 0.33019 0.17743 0.60983 0.0
H549 H 0.33981 0.1842 0.61541 0.0
H550 H 0.3243 0.19758 0.62599 0.0
H551 H 0.3146 0.1907 0.62036 0.0
H552 H 0.28292 0.1702 0.60375 0.0
H553 H 0.2953 0.17197 0.59993 0.0
H554 H 0.28671 0.14752 0.60534 0.0
H555 H 0.29904 0.1493 0.60151 0.0
H556 H 0.32807 0.15196 0.57593 0.0
H557 H 0.3481 0.15372 0.58723 0.0
H558 H 0.34264 0.16206 0.59562 0.0
H559 H 0.32261 0.16036 0.5844 0.0
C560 C 0.07784 0.07091 0.86494 0.0
C561 C 0.07993 0.07801 0.86381 0.0
C562 C 0.07027 0.08219 0.87142 0.0
C563 C 0.0762 0.08359 0.86704 0.0
C564 C 0.0681 0.07507 0.87244 0.0
C565 C 0.07189 0.06947 0.86924 0.0
U566 U 0.09109 0.06521 0.85106 0.0
O567 O 0.10047 0.05822 0.85157 0.0
O568 O 0.09175 0.05572 0.84415 0.0
C569 C 0.09781 0.05362 0.847 0.0
C570 C 0.08189 0.06509 0.86159 0.0
C571 C 0.09814 0.04611 0.84919 0.0
C572 C 0.09662 0.03683 0.85811 0.0
C573 C 0.09581 0.04394 0.85597 0.0
C574 C 0.1019 0.03398 0.84666 0.0
C575 C 0.09974 0.03179 0.8535 0.0
C576 C 0.10112 0.04108 0.84454 0.0
C577 C 0.09851 0.07995 0.83891 0.0
C578 C 0.11032 0.08157 0.83377 0.0
C579 C 0.10008 0.08728 0.82834 0.0
C580 C 0.09565 0.08428 0.83353 0.0
C581 C 0.10748 0.08606 0.82848 0.0
C582 C 0.10588 0.07851 0.83892 0.0
C583 C 0.09379 0.07735 0.84465 0.0
O584 O 0.08011 0.06366 0.85496 0.0
O585 O 0.08883 0.06543 0.86255 0.0
O586 O 0.09693 0.07535 0.8506 0.0
O587 O 0.08859 0.07307 0.84267 0.0
H588 H 0.08446 0.07924 0.86044 0.0
H589 H 0.07792 0.08901 0.86605 0.0
H590 H 0.06356 0.07384 0.87579 0.0
H591 H 0.07019 0.06401 0.87013 0.0
H592 H 0.09482 0.03529 0.86338 0.0
H593 H 0.09346 0.04776 0.85962 0.0
H594 H 0.10441 0.03026 0.84302 0.0
H595 H 0.10297 0.04268 0.8393 0.0
H596 H 0.116 0.08048 0.83397 0.0
H597 H 0.09774 0.09078 0.82438 0.0
H598 H 0.08999 0.08547 0.83343 0.0
H599 H 0.10823 0.07514 0.84298 0.0
C600 C 0.19046 0.82479 0.11397 0.0
C601 C 0.18753 0.81969 0.1093 0.0
C602 C 0.17942 0.81559 0.11858 0.0
C603 C 0.18211 0.81513 0.11159 0.0
C604 C 0.18259 0.82045 0.12335 0.0
C605 C 0.18806 0.82499 0.12106 0.0
U606 U 0.19442 0.84024 0.10167 0.0
O607 O 0.19975 0.85052 0.10343 0.0
O608 O 0.20389 0.84311 0.09533 0.0
C609 C 0.20485 0.84912 0.09881 0.0
C610 C 0.19555 0.83025 0.11139 0.0
C611 C 0.21222 0.85066 0.10109 0.0
C612 C 0.22113 0.85285 0.11027 0.0
C613 C 0.21421 0.85079 0.10831 0.0
C614 C 0.22417 0.85442 0.09781 0.0
C615 C 0.22615 0.85481 0.10504 0.0
C616 C 0.21728 0.85238 0.09587 0.0
C617 C 0.17949 0.84615 0.0891 0.0
C618 C 0.17803 0.85795 0.08393 0.0
C619 C 0.17167 0.84787 0.07891 0.0
C620 C 0.17478 0.84339 0.08399 0.0
C621 C 0.17318 0.85522 0.07889 0.0
C622 C 0.18119 0.85345 0.08896 0.0
C623 C 0.18238 0.84139 0.09464 0.0
O624 O 0.1979 0.82948 0.10482 0.0
O625 O 0.19381 0.83688 0.11291 0.0
O626 O 0.18347 0.84431 0.10092 0.0
O627 O 0.18758 0.83714 0.09262 0.0
H628 H 0.18927 0.81935 0.1038 0.0
H629 H 0.1799 0.81135 0.10782 0.0
H630 H 0.18062 0.821 0.12875 0.0
H631 H 0.19023 0.82885 0.12477 0.0
H632 H 0.22246 0.85313 0.11588 0.0
H633 H 0.2104 0.84945 0.11244 0.0
H634 H 0.22795 0.85574 0.09364 0.0
H635 H 0.21585 0.85228 0.09026 0.0
H636 H 0.17936 0.86358 0.08399 0.0
H637 H 0.1679 0.84563 0.07515 0.0
H638 H 0.1734 0.83777 0.08401 0.0
H639 H 0.18488 0.85569 0.09282 0.0
C640 C 0.14438 0.43261 0.07155 0.0
C641 C 0.14501 0.43037 0.07867 0.0
C642 C 0.13796 0.44054 0.08262 0.0
C643 C 0.1418 0.43427 0.08414 0.0
C644 C 0.13744 0.44285 0.0755 0.0
C645 C 0.14061 0.43889 0.07 0.0
U646 U 0.15885 0.41989 0.06591 0.0
O647 O 0.1587 0.41035 0.05912 0.0
O648 O 0.1656 0.4194 0.05629 0.0
C649 C 0.16304 0.41315 0.05437 0.0
C650 C 0.14782 0.4285 0.06582 0.0
C651 C 0.16076 0.41253 0.04691 0.0
C652 C 0.15162 0.41322 0.03773 0.0
C653 C 0.15376 0.41421 0.04481 0.0
C654 C 0.1635 0.40904 0.03475 0.0
C655 C 0.15647 0.41059 0.03262 0.0
C656 C 0.16561 0.41 0.04183 0.0
C657 C 0.17196 0.41379 0.08057 0.0
C658 C 0.17684 0.40305 0.08603 0.0
C659 C 0.18436 0.41342 0.08443 0.0
C660 C 0.17866 0.41708 0.08132 0.0
C661 C 0.18349 0.4064 0.08693 0.0
C662 C 0.17113 0.4067 0.08291 0.0
C663 C 0.16576 0.41794 0.07793 0.0
O664 O 0.1543 0.43059 0.06412 0.0
O665 O 0.14725 0.42152 0.0664 0.0
O666 O 0.16003 0.4143 0.07614 0.0
O667 O 0.16717 0.4232 0.0735 0.0
H668 H 0.148 0.42561 0.08 0.0
H669 H 0.14241 0.43243 0.08958 0.0
H670 H 0.13451 0.44765 0.07418 0.0
H671 H 0.14012 0.44072 0.06454 0.0
H672 H 0.1462 0.41454 0.03623 0.0
H673 H 0.14994 0.4162 0.04867 0.0
H674 H 0.16733 0.40692 0.03098 0.0
H675 H 0.17103 0.40866 0.04336 0.0
H676 H 0.17595 0.39769 0.08799 0.0
H677 H 0.18944 0.41613 0.08497 0.0
H678 H 0.17946 0.42255 0.07964 0.0
H679 H 0.16603 0.40403 0.08251 0.0
C680 C 0.64908 0.07538 0.93928 0.0
C681 C 0.65239 0.07543 0.93258 0.0
C682 C 0.64459 0.06587 0.92852 0.0
C683 C 0.65017 0.07074 0.92725 0.0
C684 C 0.64134 0.06578 0.9353 0.0
C685 C 0.64358 0.07051 0.94064 0.0
U686 U 0.66043 0.09116 0.94396 0.0
O687 O 0.65791 0.1012 0.94953 0.0
O688 O 0.66638 0.09418 0.95359 0.0
C689 C 0.66245 0.09988 0.95471 0.0
C690 C 0.65121 0.08066 0.94467 0.0
C691 C 0.6597 0.10087 0.962 0.0
C692 C 0.65643 0.09623 0.97366 0.0
C693 C 0.65868 0.09507 0.96664 0.0
C694 C 0.65595 0.10896 0.97142 0.0
C695 C 0.65509 0.10319 0.97614 0.0
C696 C 0.65826 0.1078 0.96443 0.0
C697 C 0.673 0.09796 0.9293 0.0
C698 C 0.67722 0.11001 0.92699 0.0
C699 C 0.68378 0.09987 0.92237 0.0
C700 C 0.67882 0.09525 0.92547 0.0
C701 C 0.68297 0.1073 0.92299 0.0
C702 C 0.67229 0.10538 0.93015 0.0
C703 C 0.66761 0.09297 0.9321 0.0
O704 O 0.65782 0.0801 0.94694 0.0
O705 O 0.6494 0.08725 0.94312 0.0
O706 O 0.66117 0.09558 0.93315 0.0
O707 O 0.66975 0.0887 0.93723 0.0
H708 H 0.65662 0.07921 0.93142 0.0
H709 H 0.6527 0.07107 0.92207 0.0
H710 H 0.63707 0.06207 0.93647 0.0
H711 H 0.64096 0.07043 0.94579 0.0
H712 H 0.65573 0.09169 0.97716 0.0
H713 H 0.6597 0.08966 0.96488 0.0
H714 H 0.65504 0.11438 0.97318 0.0
H715 H 0.65902 0.11234 0.96093 0.0
H716 H 0.6765 0.11571 0.92762 0.0
H717 H 0.6881 0.09763 0.91926 0.0
H718 H 0.67946 0.08955 0.92475 0.0
H719 H 0.66788 0.10761 0.93314 0.0
C720 C 0.1857 0.39727 0.18907 0.0
C721 C 0.18627 0.40111 0.18268 0.0
C722 C 0.19559 0.39307 0.17854 0.0
C723 C 0.19117 0.39905 0.17748 0.0
C724 C 0.19503 0.38925 0.18497 0.0
C725 C 0.19012 0.39134 0.19021 0.0
U726 U 0.16931 0.40794 0.19322 0.0
O727 O 0.15938 0.40516 0.19885 0.0
O728 O 0.16595 0.41413 0.20258 0.0
C729 C 0.16044 0.40997 0.20384 0.0
C730 C 0.18024 0.39927 0.19432 0.0
C731 C 0.15953 0.40745 0.21124 0.0
C732 C 0.1516 0.40332 0.22061 0.0
C733 C 0.15271 0.40545 0.21356 0.0
C734 C 0.16415 0.40511 0.22313 0.0
C735 C 0.15729 0.40319 0.22549 0.0
C736 C 0.16528 0.40719 0.21605 0.0
C737 C 0.16192 0.41946 0.17801 0.0
C738 C 0.15424 0.4299 0.1789 0.0
C739 C 0.15481 0.4232 0.16786 0.0
C740 C 0.15971 0.41851 0.17094 0.0
C741 C 0.15204 0.42896 0.17179 0.0
C742 C 0.15911 0.42516 0.18201 0.0
C743 C 0.16718 0.41447 0.18103 0.0
O744 O 0.18044 0.40597 0.19641 0.0
O745 O 0.17376 0.39708 0.19274 0.0
O746 O 0.16479 0.40802 0.18238 0.0
O747 O 0.17137 0.41699 0.18607 0.0
H748 H 0.18283 0.40565 0.18167 0.0
H749 H 0.19135 0.40203 0.17253 0.0
H750 H 0.19839 0.38465 0.18596 0.0
H751 H 0.18972 0.3883 0.1951 0.0
H752 H 0.14624 0.40195 0.22229 0.0
H753 H 0.14821 0.40563 0.20993 0.0
H754 H 0.16865 0.40499 0.22676 0.0
H755 H 0.17061 0.40866 0.21438 0.0
H756 H 0.15215 0.43425 0.18207 0.0
H757 H 0.15329 0.42239 0.16234 0.0
H758 H 0.16182 0.41416 0.16777 0.0
H759 H 0.1607 0.42596 0.1875 0.0
C760 C 0.86542 0.93233 0.43942 0.0
C761 C 0.86486 0.9301 0.43229 0.0
C762 C 0.87184 0.94033 0.42842 0.0
C763 C 0.86806 0.93404 0.42686 0.0
C764 C 0.8723 0.94262 0.43556 0.0
C765 C 0.86912 0.93863 0.44102 0.0
U766 U 0.85206 0.91831 0.4444 0.0
O767 O 0.85269 0.90898 0.45142 0.0
O768 O 0.84466 0.91727 0.45348 0.0
C769 C 0.84774 0.9114 0.45577 0.0
C770 C 0.86202 0.9281 0.44508 0.0
C771 C 0.84963 0.91125 0.46337 0.0
C772 C 0.85808 0.91341 0.47297 0.0
C773 C 0.85613 0.91408 0.46579 0.0
C774 C 0.84695 0.90728 0.47539 0.0
C775 C 0.85354 0.90993 0.47783 0.0
C776 C 0.84503 0.90793 0.46822 0.0
C777 C 0.84147 0.91035 0.42873 0.0
C778 C 0.83104 0.90268 0.42965 0.0
C779 C 0.8372 0.90392 0.41835 0.0
C780 C 0.84206 0.90859 0.4215 0.0
C781 C 0.83163 0.90091 0.42237 0.0
C782 C 0.83595 0.90735 0.43281 0.0
C783 C 0.84669 0.9153 0.43182 0.0
O784 O 0.85523 0.9295 0.44615 0.0
O785 O 0.86341 0.92123 0.44484 0.0
O786 O 0.85255 0.91236 0.43429 0.0
O787 O 0.84412 0.92033 0.436 0.0
H788 H 0.86194 0.9253 0.43093 0.0
H789 H 0.8675 0.93221 0.42141 0.0
H790 H 0.87518 0.94744 0.43692 0.0
H791 H 0.86957 0.94044 0.44649 0.0
H792 H 0.86315 0.91558 0.4747 0.0
H793 H 0.85974 0.9167 0.46211 0.0
H794 H 0.84337 0.9045 0.47897 0.0
H795 H 0.84 0.90569 0.46642 0.0
H796 H 0.82683 0.90042 0.43289 0.0
H797 H 0.83773 0.90276 0.41271 0.0
H798 H 0.84628 0.91086 0.41827 0.0
H799 H 0.83544 0.90862 0.43843 0.0
C800 C 0.82457 0.11249 0.19112 0.0
C801 C 0.81978 0.1077 0.18788 0.0
C802 C 0.81551 0.11707 0.17995 0.0
C803 C 0.8153 0.10998 0.18238 0.0
C804 C 0.82003 0.12194 0.18344 0.0
C805 C 0.8245 0.11968 0.18898 0.0
U806 U 0.84075 0.10113 0.19492 0.0
O807 O 0.85063 0.10322 0.20085 0.0
O808 O 0.84371 0.0943 0.204 0.0
C809 C 0.84938 0.09814 0.20552 0.0
C810 C 0.83 0.10997 0.19628 0.0
C811 C 0.85022 0.10015 0.21305 0.0
C812 C 0.84812 0.10823 0.22296 0.0
C813 C 0.84702 0.10632 0.21582 0.0
C814 C 0.85549 0.09774 0.22462 0.0
C815 C 0.85239 0.10397 0.22743 0.0
C816 C 0.85441 0.09585 0.21749 0.0
C817 C 0.84807 0.09036 0.17915 0.0
C818 C 0.85649 0.08052 0.17992 0.0
C819 C 0.8544 0.08638 0.16859 0.0
C820 C 0.84951 0.09095 0.17185 0.0
C821 C 0.85794 0.0811 0.17258 0.0
C822 C 0.85162 0.08515 0.18319 0.0
C823 C 0.84289 0.09528 0.18239 0.0
O824 O 0.82965 0.10321 0.19813 0.0
O825 O 0.83656 0.11211 0.19499 0.0
O826 O 0.84543 0.10157 0.18417 0.0
O827 O 0.8386 0.09255 0.18721 0.0
H828 H 0.81964 0.10214 0.18941 0.0
H829 H 0.81177 0.10612 0.17991 0.0
H830 H 0.82037 0.12744 0.18168 0.0
H831 H 0.82811 0.12348 0.19141 0.0
H832 H 0.8456 0.11302 0.22499 0.0
H833 H 0.84373 0.10968 0.21246 0.0
H834 H 0.85889 0.09439 0.22788 0.0
H835 H 0.85693 0.09107 0.21542 0.0
H836 H 0.85918 0.07654 0.18314 0.0
H837 H 0.85531 0.0869 0.16291 0.0
H838 H 0.84682 0.09495 0.16865 0.0
H839 H 0.85062 0.08465 0.18886 0.0
C840 C 0.36809 0.57917 0.57149 0.0
C841 C 0.36765 0.58153 0.57859 0.0
C842 C 0.37472 0.57138 0.58253 0.0
C843 C 0.37096 0.5777 0.58404 0.0
C844 C 0.3751 0.56898 0.57543 0.0
C845 C 0.37183 0.57287 0.56994 0.0
U846 U 0.35287 0.59106 0.56633 0.0
O847 O 0.35225 0.60075 0.55979 0.0
O848 O 0.34584 0.59137 0.55692 0.0
C849 C 0.34796 0.59781 0.55509 0.0
C850 C 0.36437 0.58313 0.56581 0.0
C851 C 0.35005 0.59872 0.5476 0.0
C852 C 0.35888 0.59812 0.53813 0.0
C853 C 0.35691 0.59688 0.54523 0.0
C854 C 0.34711 0.60292 0.53571 0.0
C855 C 0.35402 0.60119 0.53331 0.0
C856 C 0.34516 0.6017 0.5428 0.0
C857 C 0.34013 0.59595 0.58162 0.0
C858 C 0.33035 0.6044 0.58057 0.0
C859 C 0.33246 0.59827 0.59176 0.0
C860 C 0.33824 0.59469 0.58872 0.0
C861 C 0.32844 0.60318 0.58773 0.0
C862 C 0.33615 0.60079 0.57752 0.0
C863 C 0.34636 0.59224 0.57866 0.0
O864 O 0.358 0.58069 0.56419 0.0
O865 O 0.36456 0.59012 0.56644 0.0
O866 O 0.3517 0.59634 0.57672 0.0
O867 O 0.34497 0.58713 0.57407 0.0
H868 H 0.36468 0.5863 0.57993 0.0
H869 H 0.37045 0.57961 0.58947 0.0
H870 H 0.37796 0.56413 0.57412 0.0
H871 H 0.37217 0.57094 0.56451 0.0
H872 H 0.36421 0.59666 0.53643 0.0
H873 H 0.36074 0.59455 0.54887 0.0
H874 H 0.34327 0.60537 0.53217 0.0
H875 H 0.33985 0.60317 0.54456 0.0
H876 H 0.32734 0.6081 0.57731 0.0
H877 H 0.33124 0.5973 0.59732 0.0
H878 H 0.34128 0.59099 0.59195 0.0
H879 H 0.33756 0.60181 0.57201 0.0
C880 C 0.18614 0.6128 0.31955 0.0
C881 C 0.19257 0.6092 0.32098 0.0
C882 C 0.19545 0.61771 0.33038 0.0
C883 C 0.19716 0.61162 0.32634 0.0
C884 C 0.1892 0.62151 0.32871 0.0
C885 C 0.18461 0.6191 0.32334 0.0
U886 U 0.17086 0.60021 0.31528 0.0
O887 O 0.16094 0.60174 0.30922 0.0
O888 O 0.1686 0.59351 0.3059 0.0
C889 C 0.16268 0.59695 0.3044 0.0
C890 C 0.18092 0.60989 0.31436 0.0
C891 C 0.16184 0.59915 0.29692 0.0
C892 C 0.16313 0.60787 0.28742 0.0
C893 C 0.16418 0.60585 0.29453 0.0
C894 C 0.15753 0.59646 0.28502 0.0
C895 C 0.15977 0.6032 0.28259 0.0
C896 C 0.15856 0.59447 0.29212 0.0
C897 C 0.164 0.5882 0.33031 0.0
C898 C 0.15204 0.58346 0.33197 0.0
C899 C 0.16209 0.57781 0.33781 0.0
C900 C 0.16669 0.58281 0.33474 0.0
C901 C 0.1547 0.57815 0.33654 0.0
C902 C 0.15665 0.58842 0.32884 0.0
C903 C 0.16892 0.59365 0.32748 0.0
O904 O 0.18184 0.6032 0.31242 0.0
O905 O 0.17418 0.61146 0.3156 0.0
O906 O 0.16608 0.59989 0.32597 0.0
O907 O 0.1735 0.59144 0.32266 0.0
H908 H 0.194 0.60441 0.31808 0.0
H909 H 0.20201 0.60866 0.32739 0.0
H910 H 0.18768 0.6262 0.33174 0.0
H911 H 0.17976 0.62206 0.32231 0.0
H912 H 0.16497 0.61306 0.28569 0.0
H913 H 0.16678 0.60952 0.29816 0.0
H914 H 0.15485 0.59277 0.28147 0.0
H915 H 0.15672 0.58928 0.29389 0.0
H916 H 0.14637 0.5838 0.33085 0.0
H917 H 0.16429 0.57382 0.34137 0.0
H918 H 0.17234 0.58255 0.33593 0.0
H919 H 0.15444 0.59249 0.32538 0.0
C920 C 0.32588 0.3983 0.8211 0.0
C921 C 0.32567 0.402 0.82759 0.0
C922 C 0.31666 0.39381 0.83211 0.0
C923 C 0.3211 0.39979 0.83304 0.0
C924 C 0.31691 0.39009 0.82559 0.0
C925 C 0.32148 0.39233 0.82012 0.0
U926 U 0.34118 0.41002 0.81581 0.0
O927 O 0.35083 0.40806 0.80944 0.0
O928 O 0.34328 0.41644 0.80621 0.0
C929 C 0.34907 0.41282 0.80459 0.0
C930 C 0.33084 0.4006 0.81549 0.0
C931 C 0.34967 0.41053 0.79712 0.0
C932 C 0.34806 0.40174 0.78773 0.0
C933 C 0.34721 0.40383 0.79485 0.0
C934 C 0.35368 0.41308 0.78509 0.0
C935 C 0.35132 0.40634 0.78277 0.0
C936 C 0.35286 0.41514 0.7922 0.0
C937 C 0.34869 0.42232 0.83034 0.0
C938 C 0.36077 0.42678 0.83198 0.0
C939 C 0.35079 0.43307 0.83727 0.0
C940 C 0.34609 0.42804 0.8344 0.0
C941 C 0.35819 0.43243 0.83618 0.0
C942 C 0.35606 0.42178 0.82904 0.0
C943 C 0.34364 0.41687 0.82776 0.0
O944 O 0.33003 0.40724 0.81338 0.0
O945 O 0.33755 0.39888 0.81662 0.0
O946 O 0.34633 0.41055 0.82631 0.0
O947 O 0.33894 0.41903 0.82302 0.0
H948 H 0.32908 0.40658 0.82847 0.0
H949 H 0.32115 0.4027 0.83803 0.0
H950 H 0.31353 0.38548 0.82471 0.0
H951 H 0.3216 0.38939 0.81514 0.0
H952 H 0.34612 0.39654 0.78609 0.0
H953 H 0.34468 0.40021 0.79858 0.0
H954 H 0.35631 0.41671 0.78144 0.0
H955 H 0.3548 0.42033 0.79387 0.0
H956 H 0.36644 0.42619 0.831 0.0
H957 H 0.34865 0.43731 0.84056 0.0
H958 H 0.34043 0.42855 0.83546 0.0
H959 H 0.3582 0.41745 0.82587 0.0
C960 C 0.9398 0.86192 0.57337 0.0
C961 C 0.9332 0.8584 0.57331 0.0
C962 C 0.92881 0.86651 0.56416 0.0
C963 C 0.92777 0.86067 0.56876 0.0
C964 C 0.93546 0.87001 0.56422 0.0
C965 C 0.94092 0.86772 0.5688 0.0
U966 U 0.94474 0.85008 0.58862 0.0
O967 O 0.95431 0.8437 0.59102 0.0
O968 O 0.95072 0.85197 0.59852 0.0
C969 C 0.95567 0.84726 0.59691 0.0
C970 C 0.94535 0.85961 0.57841 0.0
C971 C 0.96309 0.8496 0.59784 0.0
C972 C 0.97259 0.85829 0.5963 0.0
C973 C 0.96552 0.85615 0.59515 0.0
C974 C 0.97486 0.8473 0.60272 0.0
C975 C 0.97734 0.85388 0.6001 0.0
C976 C 0.9678 0.84519 0.6016 0.0
C977 C 0.92985 0.83774 0.59539 0.0
C978 C 0.92838 0.83278 0.60728 0.0
C979 C 0.92193 0.82767 0.59731 0.0
C980 C 0.92508 0.83263 0.59273 0.0
C981 C 0.92345 0.82777 0.60466 0.0
C982 C 0.93158 0.83771 0.60269 0.0
C983 C 0.93269 0.84321 0.59052 0.0
O984 O 0.94405 0.86125 0.5851 0.0
O985 O 0.9475 0.85298 0.57759 0.0
O986 O 0.93765 0.84105 0.58605 0.0
O987 O 0.93405 0.84948 0.59336 0.0
H988 H 0.93222 0.85395 0.57686 0.0
H989 H 0.92268 0.85794 0.56897 0.0
H990 H 0.93645 0.8745 0.56072 0.0
H991 H 0.94599 0.87051 0.5688 0.0
H992 H 0.97436 0.86336 0.59416 0.0
H993 H 0.96194 0.85961 0.5922 0.0
H994 H 0.97833 0.84383 0.60576 0.0
H995 H 0.96601 0.84013 0.60373 0.0
H996 H 0.92971 0.83293 0.6129 0.0
H997 H 0.91809 0.82393 0.59514 0.0
H998 H 0.92368 0.83258 0.58713 0.0
H999 H 0.93531 0.84156 0.60485 0.0
C1000 C 0.89496 0.19113 0.32477 0.0
C1001 C 0.8994 0.18655 0.32083 0.0
C1002 C 0.88901 0.18065 0.31575 0.0
C1003 C 0.89645 0.18139 0.31633 0.0
C1004 C 0.88458 0.18536 0.31955 0.0
C1005 C 0.88753 0.19058 0.324 0.0
U1006 U 0.90793 0.19454 0.33983 0.0
O1007 O 0.91447 0.20382 0.34274 0.0
O1008 O 0.90639 0.19981 0.35022 0.0
C1009 C 0.911 0.20488 0.34874 0.0
C1010 C 0.89794 0.19603 0.33016 0.0
C1011 C 0.90853 0.21223 0.3501 0.0
C1012 C 0.90497 0.22399 0.34594 0.0
C1013 C 0.90706 0.21697 0.34449 0.0
C1014 C 0.90561 0.22155 0.35862 0.0
C1015 C 0.90425 0.22636 0.35303 0.0
C1016 C 0.90775 0.21456 0.35716 0.0
C1017 C 0.9203 0.17921 0.34526 0.0
C1018 C 0.92574 0.17732 0.35688 0.0
C1019 C 0.93042 0.17121 0.34649 0.0
C1020 C 0.92528 0.17451 0.34223 0.0
C1021 C 0.93066 0.1725 0.35388 0.0
C1022 C 0.92063 0.18068 0.3526 0.0
C1023 C 0.91471 0.18233 0.34071 0.0
O1024 O 0.89659 0.19423 0.3368 0.0
O1025 O 0.90458 0.1981 0.32916 0.0
O1026 O 0.91676 0.18753 0.33648 0.0
O1027 O 0.90854 0.18354 0.34381 0.0
H1028 H 0.90515 0.18679 0.3214 0.0
H1029 H 0.9 0.17777 0.31355 0.0
H1030 H 0.87882 0.18493 0.31917 0.0
H1031 H 0.88401 0.19403 0.32701 0.0
H1032 H 0.90388 0.22756 0.34153 0.0
H1033 H 0.90756 0.21528 0.33898 0.0
H1034 H 0.90517 0.22324 0.36413 0.0
H1035 H 0.90887 0.21098 0.36156 0.0
H1036 H 0.92585 0.17848 0.36254 0.0
H1037 H 0.93409 0.16747 0.34404 0.0
H1038 H 0.92511 0.17332 0.33658 0.0
H1039 H 0.91689 0.18434 0.35504 0.0
C1040 C 0.57139 0.14525 0.07666 0.0
C1041 C 0.57852 0.14654 0.07852 0.0
C1042 C 0.58255 0.13919 0.06863 0.0
C1043 C 0.58405 0.14351 0.07457 0.0
C1044 C 0.5754 0.13807 0.06663 0.0
C1045 C 0.56984 0.14106 0.07066 0.0
U1046 U 0.56602 0.1585 0.09059 0.0
O1047 O 0.55643 0.16507 0.0922 0.0
O1048 O 0.55972 0.15739 0.10043 0.0
C1049 C 0.55479 0.16186 0.09822 0.0
C1050 C 0.56565 0.14825 0.08108 0.0
C1051 C 0.54737 0.15937 0.09904 0.0
C1052 C 0.53576 0.15618 0.09417 0.0
C1053 C 0.5428 0.15845 0.09316 0.0
C1054 C 0.53778 0.1556 0.10692 0.0
C1055 C 0.53318 0.15472 0.10107 0.0
C1056 C 0.54479 0.15792 0.10591 0.0
C1057 C 0.58112 0.17083 0.09719 0.0
C1058 C 0.58352 0.17595 0.10887 0.0
C1059 C 0.58862 0.18134 0.09829 0.0
C1060 C 0.58531 0.17617 0.09406 0.0
C1061 C 0.58786 0.18122 0.10575 0.0
C1062 C 0.58015 0.17081 0.10463 0.0
C1063 C 0.57818 0.16514 0.09261 0.0
O1064 O 0.56639 0.14709 0.08796 0.0
O1065 O 0.56389 0.15488 0.0796 0.0
O1066 O 0.57348 0.16716 0.08782 0.0
O1067 O 0.57652 0.1591 0.09577 0.0
H1068 H 0.57983 0.14984 0.08308 0.0
H1069 H 0.58951 0.14457 0.07615 0.0
H1070 H 0.57412 0.13476 0.06207 0.0
H1071 H 0.56436 0.14004 0.06913 0.0
H1072 H 0.53234 0.1555 0.08956 0.0
H1073 H 0.54466 0.15948 0.08779 0.0
H1074 H 0.53593 0.15461 0.1123 0.0
H1075 H 0.54821 0.15862 0.11053 0.0
H1076 H 0.58277 0.17577 0.1146 0.0
H1077 H 0.592 0.18527 0.09574 0.0
H1078 H 0.58615 0.17627 0.08835 0.0
H1079 H 0.57691 0.16676 0.10717 0.0
C1080 C 0.61393 0.82064 0.82489 0.0
C1081 C 0.60948 0.82584 0.82182 0.0
C1082 C 0.61971 0.83124 0.81591 0.0
C1083 C 0.61234 0.83106 0.81733 0.0
C1084 C 0.62412 0.82594 0.81888 0.0
C1085 C 0.62124 0.82068 0.82331 0.0
U1086 U 0.60128 0.81648 0.84007 0.0
O1087 O 0.59507 0.80692 0.84278 0.0
O1088 O 0.60318 0.81093 0.85025 0.0
C1089 C 0.59869 0.80577 0.84868 0.0
C1090 C 0.61113 0.81556 0.83018 0.0
C1091 C 0.60138 0.79846 0.84977 0.0
C1092 C 0.60492 0.78683 0.84523 0.0
C1093 C 0.60269 0.79385 0.844 0.0
C1094 C 0.60479 0.78902 0.85796 0.0
C1095 C 0.60596 0.78433 0.85222 0.0
C1096 C 0.6025 0.79601 0.85674 0.0
C1097 C 0.58853 0.83115 0.84633 0.0
C1098 C 0.58353 0.83271 0.8582 0.0
C1099 C 0.57796 0.83846 0.84805 0.0
C1100 C 0.58311 0.83548 0.84354 0.0
C1101 C 0.57818 0.83719 0.85544 0.0
C1102 C 0.58864 0.82968 0.85368 0.0
C1103 C 0.59412 0.82842 0.84152 0.0
O1104 O 0.61254 0.81721 0.83684 0.0
O1105 O 0.60451 0.8134 0.82921 0.0
O1106 O 0.59216 0.82332 0.83713 0.0
O1107 O 0.60042 0.82732 0.84442 0.0
H1108 H 0.60383 0.82598 0.82304 0.0
H1109 H 0.60882 0.83513 0.81521 0.0
H1110 H 0.6298 0.82593 0.81784 0.0
H1111 H 0.62476 0.81674 0.82567 0.0
H1112 H 0.60586 0.78337 0.8407 0.0
H1113 H 0.60193 0.79564 0.83856 0.0
H1114 H 0.60547 0.78722 0.86341 0.0
H1115 H 0.60151 0.79948 0.86126 0.0
H1116 H 0.58378 0.83159 0.86386 0.0
H1117 H 0.57395 0.84195 0.84577 0.0
H1118 H 0.58294 0.83668 0.83789 0.0
H1119 H 0.59273 0.82629 0.85595 0.0
C1120 C 0.93974 0.14836 0.93686 0.0
C1121 C 0.93333 0.15222 0.93709 0.0
C1122 C 0.92872 0.14428 0.94627 0.0
C1123 C 0.92789 0.15021 0.94174 0.0
C1124 C 0.93519 0.14045 0.94606 0.0
C1125 C 0.94066 0.14248 0.94139 0.0
U1126 U 0.94493 0.15961 0.9212 0.0
O1127 O 0.95474 0.16537 0.91837 0.0
O1128 O 0.95061 0.15702 0.91124 0.0
C1129 C 0.95588 0.16143 0.91268 0.0
C1130 C 0.94525 0.15032 0.93165 0.0
C1131 C 0.96316 0.15854 0.91174 0.0
C1132 C 0.97523 0.15643 0.91606 0.0
C1133 C 0.96823 0.15873 0.91727 0.0
C1134 C 0.97214 0.1535 0.90386 0.0
C1135 C 0.97727 0.15384 0.90932 0.0
C1136 C 0.96517 0.15585 0.90505 0.0
C1137 C 0.93058 0.17256 0.91436 0.0
C1138 C 0.92899 0.17726 0.90237 0.0
C1139 C 0.92321 0.18304 0.91239 0.0
C1140 C 0.92622 0.17803 0.91701 0.0
C1141 C 0.92447 0.18264 0.905 0.0
C1142 C 0.93205 0.17228 0.90702 0.0
C1143 C 0.93324 0.16708 0.91931 0.0
O1144 O 0.94371 0.14859 0.92503 0.0
O1145 O 0.94773 0.15686 0.93227 0.0
O1146 O 0.93839 0.16908 0.92363 0.0
O1147 O 0.9342 0.16067 0.91662 0.0
H1148 H 0.9325 0.15673 0.93357 0.0
H1149 H 0.92294 0.1532 0.94164 0.0
H1150 H 0.93602 0.13588 0.94951 0.0
H1151 H 0.94557 0.13942 0.94125 0.0
H1152 H 0.97905 0.15669 0.92039 0.0
H1153 H 0.96683 0.16075 0.9225 0.0
H1154 H 0.97357 0.15161 0.89858 0.0
H1155 H 0.96137 0.15569 0.9007 0.0
H1156 H 0.93011 0.17686 0.89672 0.0
H1157 H 0.91969 0.18708 0.91457 0.0
H1158 H 0.92502 0.17834 0.92266 0.0
H1159 H 0.93545 0.16813 0.90485 0.0
C1160 C 0.61497 0.18909 0.68281 0.0
C1161 C 0.61391 0.18199 0.68069 0.0
C1162 C 0.62102 0.17781 0.6907 0.0
C1163 C 0.61694 0.17641 0.68457 0.0
C1164 C 0.62189 0.18491 0.69296 0.0
C1165 C 0.61891 0.19053 0.68901 0.0
U1166 U 0.60213 0.19435 0.66854 0.0
O1167 O 0.59537 0.20379 0.66672 0.0
O1168 O 0.60345 0.20071 0.65879 0.0
C1169 C 0.59876 0.20552 0.66081 0.0
C1170 C 0.61198 0.19488 0.67845 0.0
C1171 C 0.60105 0.21301 0.66002 0.0
C1172 C 0.60334 0.22487 0.66478 0.0
C1173 C 0.60125 0.21777 0.66581 0.0
C1174 C 0.60515 0.22251 0.65221 0.0
C1175 C 0.60532 0.22731 0.65797 0.0
C1176 C 0.60301 0.21545 0.65322 0.0
C1177 C 0.59091 0.17874 0.66122 0.0
C1178 C 0.5802 0.17931 0.65391 0.0
C1179 C 0.58692 0.16829 0.6547 0.0
C1180 C 0.59178 0.17157 0.65928 0.0
C1181 C 0.58107 0.17211 0.65196 0.0
C1182 C 0.58511 0.18262 0.65848 0.0
C1183 C 0.59614 0.18194 0.66611 0.0
O1184 O 0.61344 0.19437 0.67161 0.0
O1185 O 0.60525 0.19641 0.6797 0.0
O1186 O 0.59367 0.18655 0.67079 0.0
O1187 O 0.6022 0.18391 0.66319 0.0
H1188 H 0.61081 0.18075 0.67597 0.0
H1189 H 0.61607 0.17098 0.68277 0.0
H1190 H 0.62501 0.18612 0.69767 0.0
H1191 H 0.61974 0.19598 0.69074 0.0
H1192 H 0.60347 0.22844 0.66933 0.0
H1193 H 0.5998 0.21603 0.67112 0.0
H1194 H 0.60654 0.22425 0.64688 0.0
H1195 H 0.60286 0.21189 0.64867 0.0
H1196 H 0.57577 0.1824 0.65185 0.0
H1197 H 0.58768 0.16271 0.6534 0.0
H1198 H 0.59621 0.16849 0.66136 0.0
H1199 H 0.58437 0.18818 0.65989 0.0
C1200 C 0.57065 0.86184 0.43494 0.0
C1201 C 0.57743 0.8587 0.4346 0.0
C1202 C 0.58163 0.86646 0.44414 0.0
C1203 C 0.58286 0.86099 0.43914 0.0
C1204 C 0.57481 0.86961 0.44445 0.0
C1205 C 0.56935 0.8673 0.43988 0.0
U1206 U 0.56543 0.8499 0.41979 0.0
O1207 O 0.55585 0.84342 0.41775 0.0
O1208 O 0.55909 0.85171 0.41011 0.0
C1209 C 0.55422 0.84699 0.41194 0.0
C1210 C 0.56503 0.85943 0.43003 0.0
C1211 C 0.54675 0.84932 0.41134 0.0
C1212 C 0.53752 0.85839 0.41231 0.0
C1213 C 0.54463 0.85626 0.4132 0.0
C1214 C 0.53457 0.8466 0.40788 0.0
C1215 C 0.53242 0.85358 0.40961 0.0
C1216 C 0.54167 0.8445 0.40873 0.0
C1217 C 0.5802 0.83768 0.41247 0.0
C1218 C 0.58244 0.83332 0.40045 0.0
C1219 C 0.58725 0.82695 0.41061 0.0
C1220 C 0.58414 0.83194 0.4152 0.0
C1221 C 0.58653 0.82766 0.40318 0.0
C1222 C 0.57927 0.83827 0.40505 0.0
C1223 C 0.57746 0.84315 0.41743 0.0
O1224 O 0.56612 0.86108 0.42331 0.0
O1225 O 0.56302 0.85277 0.43092 0.0
O1226 O 0.57272 0.84096 0.4221 0.0
O1227 O 0.57596 0.84942 0.41467 0.0
H1228 H 0.57854 0.85451 0.43078 0.0
H1229 H 0.58808 0.85854 0.43865 0.0
H1230 H 0.57367 0.8738 0.44826 0.0
H1231 H 0.56414 0.86978 0.44019 0.0
H1232 H 0.53601 0.86377 0.41376 0.0
H1233 H 0.54847 0.86005 0.41528 0.0
H1234 H 0.5308 0.8428 0.4057 0.0
H1235 H 0.54321 0.83913 0.40726 0.0
H1236 H 0.58174 0.83396 0.39475 0.0
H1237 H 0.59044 0.8227 0.41288 0.0
H1238 H 0.58494 0.83139 0.4209 0.0
H1239 H 0.57621 0.84263 0.40279 0.0
C1240 C 0.89694 0.81992 0.18487 0.0
C1241 C 0.90137 0.82478 0.18848 0.0
C1242 C 0.89098 0.83056 0.19371 0.0
C1243 C 0.89842 0.83002 0.19289 0.0
C1244 C 0.88657 0.82558 0.19024 0.0
C1245 C 0.88953 0.82029 0.18589 0.0
U1246 U 0.90933 0.81638 0.16938 0.0
O1247 O 0.9161 0.80723 0.16652 0.0
O1248 O 0.90756 0.81069 0.15927 0.0
C1249 C 0.91242 0.80584 0.16071 0.0
C1250 C 0.89989 0.81489 0.17958 0.0
C1251 C 0.91015 0.7984 0.15969 0.0
C1252 C 0.9064 0.78688 0.16433 0.0
C1253 C 0.90854 0.79394 0.16549 0.0
C1254 C 0.90732 0.78871 0.15157 0.0
C1255 C 0.90575 0.7842 0.15735 0.0
C1256 C 0.90952 0.79573 0.15273 0.0
C1257 C 0.92044 0.83213 0.16262 0.0
C1258 C 0.93046 0.83133 0.15441 0.0
C1259 C 0.92454 0.84267 0.15634 0.0
C1260 C 0.91988 0.83943 0.16115 0.0
C1261 C 0.92988 0.83866 0.15291 0.0
C1262 C 0.92574 0.82808 0.15921 0.0
C1263 C 0.91535 0.82889 0.16762 0.0
O1264 O 0.89814 0.8163 0.17294 0.0
O1265 O 0.90665 0.81316 0.18035 0.0
O1266 O 0.9179 0.82398 0.17194 0.0
O1267 O 0.90913 0.8272 0.16486 0.0
H1268 H 0.9071 0.82469 0.18772 0.0
H1269 H 0.90194 0.83384 0.19541 0.0
H1270 H 0.88082 0.82585 0.19081 0.0
H1271 H 0.88601 0.81661 0.18313 0.0
H1272 H 0.90515 0.78355 0.16888 0.0
H1273 H 0.90892 0.79591 0.17091 0.0
H1274 H 0.90695 0.78677 0.14613 0.0
H1275 H 0.91073 0.79909 0.14819 0.0
H1276 H 0.93449 0.82811 0.15181 0.0
H1277 H 0.92403 0.84835 0.15538 0.0
H1278 H 0.91582 0.84264 0.16374 0.0
H1279 H 0.92622 0.82241 0.16023 0.0
C1280 C 0.57405 0.9413 0.86236 0.0
C1281 C 0.56926 0.9382 0.85748 0.0
C1282 C 0.56479 0.93022 0.8667 0.0
C1283 C 0.56467 0.93274 0.85964 0.0
C1284 C 0.5693 0.93359 0.87166 0.0
C1285 C 0.57387 0.93909 0.86951 0.0
U1286 U 0.59042 0.94479 0.8512 0.0
O1287 O 0.59381 0.95386 0.8446 0.0
O1288 O 0.60047 0.95037 0.8536 0.0
C1289 C 0.5994 0.9552 0.84863 0.0
C1290 C 0.57964 0.94634 0.85996 0.0
C1291 C 0.60035 0.96266 0.85091 0.0
C1292 C 0.59557 0.97426 0.85422 0.0
C1293 C 0.59449 0.96717 0.85214 0.0
C1294 C 0.60837 0.97236 0.85399 0.0
C1295 C 0.60253 0.97692 0.85517 0.0
C1296 C 0.60728 0.9653 0.85187 0.0
C1297 C 0.59734 0.92893 0.84026 0.0
C1298 C 0.60571 0.92952 0.83038 0.0
C1299 C 0.6033 0.9182 0.83614 0.0
C1300 C 0.59855 0.92158 0.84078 0.0
C1301 C 0.60691 0.92213 0.83087 0.0
C1302 C 0.60098 0.93291 0.83507 0.0
C1303 C 0.59223 0.93228 0.84518 0.0
O1304 O 0.58613 0.94482 0.86213 0.0
O1305 O 0.57939 0.9483 0.85322 0.0
O1306 O 0.58813 0.93729 0.84248 0.0
O1307 O 0.59477 0.93389 0.85151 0.0
H1308 H 0.5692 0.93981 0.85193 0.0
H1309 H 0.56115 0.93038 0.85571 0.0
H1310 H 0.56957 0.93175 0.87713 0.0
H1311 H 0.57748 0.9414 0.87339 0.0
H1312 H 0.59098 0.97764 0.85515 0.0
H1313 H 0.58908 0.96522 0.8515 0.0
H1314 H 0.61378 0.97427 0.8546 0.0
H1315 H 0.61187 0.96189 0.85094 0.0
H1316 H 0.60847 0.93269 0.82641 0.0
H1317 H 0.60403 0.91249 0.83659 0.0
H1318 H 0.59578 0.91843 0.84476 0.0
H1319 H 0.60016 0.93861 0.83462 0.0
C1320 C 0.82063 0.82741 0.6148 0.0
C1321 C 0.82774 0.82961 0.61403 0.0
C1322 C 0.83176 0.81959 0.62123 0.0
C1323 C 0.83324 0.82576 0.61723 0.0
C1324 C 0.82463 0.81731 0.62189 0.0
C1325 C 0.8191 0.82122 0.61871 0.0
U1326 U 0.81567 0.84126 0.60136 0.0
O1327 O 0.80664 0.84234 0.5939 0.0
O1328 O 0.80873 0.85067 0.60187 0.0
C1329 C 0.80441 0.84828 0.59689 0.0
C1330 C 0.81491 0.83157 0.6114 0.0
C1331 C 0.79677 0.84862 0.59863 0.0
C1332 C 0.7869 0.8466 0.60679 0.0
C1333 C 0.79411 0.84575 0.605 0.0
C1334 C 0.78494 0.85303 0.59575 0.0
C1335 C 0.78225 0.85032 0.6022 0.0
C1336 C 0.79214 0.8522 0.59399 0.0
C1337 C 0.83156 0.84888 0.5908 0.0
C1338 C 0.83082 0.85675 0.58052 0.0
C1339 C 0.84219 0.85479 0.58638 0.0
C1340 C 0.8389 0.85022 0.59124 0.0
C1341 C 0.8382 0.85812 0.58097 0.0
C1342 C 0.82752 0.85218 0.58543 0.0
C1343 C 0.82832 0.84405 0.59604 0.0
O1344 O 0.81514 0.83846 0.61272 0.0
O1345 O 0.81381 0.83012 0.60463 0.0
O1346 O 0.82409 0.83907 0.59349 0.0
O1347 O 0.82584 0.8471 0.60184 0.0
H1348 H 0.82904 0.83432 0.61094 0.0
H1349 H 0.83868 0.82758 0.61651 0.0
H1350 H 0.82334 0.81258 0.62494 0.0
H1351 H 0.81363 0.81942 0.61931 0.0
H1352 H 0.78498 0.84437 0.61176 0.0
H1353 H 0.79762 0.84295 0.60864 0.0
H1354 H 0.78154 0.856 0.59214 0.0
H1355 H 0.79412 0.85448 0.58906 0.0
H1356 H 0.8276 0.85927 0.57644 0.0
H1357 H 0.84789 0.85563 0.5868 0.0
H1358 H 0.8421 0.8477 0.59535 0.0
H1359 H 0.82183 0.85122 0.58504 0.0
C1360 C 0.93472 0.07049 0.36529 0.0
C1361 C 0.93841 0.07523 0.3608 0.0
C1362 C 0.94352 0.08123 0.37111 0.0
C1363 C 0.9428 0.08051 0.36368 0.0
C1364 C 0.93993 0.0764 0.37559 0.0
C1365 C 0.93559 0.07106 0.3727 0.0
U1366 U 0.92036 0.06625 0.35183 0.0
O1367 O 0.91793 0.05667 0.34555 0.0
O1368 O 0.90998 0.06086 0.35309 0.0
C1369 C 0.9118 0.05561 0.34881 0.0
C1370 C 0.92952 0.06538 0.36235 0.0
C1371 C 0.91056 0.04835 0.35157 0.0
C1372 C 0.91496 0.03696 0.35595 0.0
C1373 C 0.91626 0.04393 0.35362 0.0
C1374 C 0.90225 0.03883 0.35446 0.0
C1375 C 0.90795 0.03432 0.35635 0.0
C1376 C 0.90356 0.04577 0.35206 0.0
C1377 C 0.91573 0.08115 0.33843 0.0
C1378 C 0.90452 0.08444 0.33276 0.0
C1379 C 0.91574 0.08825 0.32759 0.0
C1380 C 0.91944 0.08475 0.33303 0.0
C1381 C 0.90823 0.08828 0.32748 0.0
C1382 C 0.90824 0.08089 0.33818 0.0
C1383 C 0.9198 0.07813 0.34445 0.0
O1384 O 0.92281 0.06719 0.36327 0.0
O1385 O 0.93087 0.06296 0.3559 0.0
O1386 O 0.92418 0.07287 0.34289 0.0
O1387 O 0.91628 0.07715 0.35044 0.0
H1388 H 0.93774 0.07497 0.35506 0.0
H1389 H 0.9454 0.08422 0.3601 0.0
H1390 H 0.94041 0.07681 0.38134 0.0
H1391 H 0.93275 0.06749 0.37625 0.0
H1392 H 0.91945 0.03364 0.35745 0.0
H1393 H 0.92171 0.04583 0.35336 0.0
H1394 H 0.8968 0.03693 0.35465 0.0
H1395 H 0.89909 0.04911 0.35052 0.0
H1396 H 0.89874 0.08439 0.33287 0.0
H1397 H 0.91877 0.09103 0.32354 0.0
H1398 H 0.92522 0.08499 0.3331 0.0
H1399 H 0.90525 0.07813 0.34227 0.0
C1400 C 0.691 0.18472 0.1145 0.0
C1401 C 0.68616 0.18826 0.11 0.0
C1402 C 0.68026 0.19356 0.12028 0.0
C1403 C 0.68087 0.19267 0.11286 0.0
C1404 C 0.6852 0.19013 0.12477 0.0
C1405 C 0.69054 0.18577 0.12189 0.0
U1406 U 0.69489 0.16939 0.10202 0.0
O1407 O 0.70415 0.16669 0.09535 0.0
O1408 O 0.70066 0.15931 0.10376 0.0
C1409 C 0.70555 0.16085 0.09898 0.0
C1410 C 0.69613 0.17949 0.11161 0.0
C1411 C 0.71299 0.15985 0.10131 0.0
C1412 C 0.72457 0.16453 0.10484 0.0
C1413 C 0.7175 0.16567 0.10274 0.0
C1414 C 0.72268 0.15176 0.10425 0.0
C1415 C 0.72724 0.15756 0.10562 0.0
C1416 C 0.71564 0.1529 0.10209 0.0
C1417 C 0.67926 0.16274 0.09056 0.0
C1418 C 0.67987 0.1554 0.07987 0.0
C1419 C 0.66891 0.15598 0.08671 0.0
C1420 C 0.67215 0.16067 0.0915 0.0
C1421 C 0.67273 0.15329 0.08084 0.0
C1422 C 0.68314 0.16006 0.08472 0.0
C1423 C 0.68248 0.16765 0.09578 0.0
O1424 O 0.69473 0.17281 0.11325 0.0
O1425 O 0.69801 0.18034 0.1049 0.0
O1426 O 0.68741 0.17203 0.09337 0.0
O1427 O 0.68409 0.16479 0.10197 0.0
H1428 H 0.68632 0.18747 0.10428 0.0
H1429 H 0.67708 0.19516 0.10928 0.0
H1430 H 0.68488 0.19075 0.1305 0.0
H1431 H 0.6942 0.18306 0.12546 0.0
H1432 H 0.72794 0.1691 0.10593 0.0
H1433 H 0.71555 0.17109 0.10223 0.0
H1434 H 0.7246 0.14632 0.10472 0.0
H1435 H 0.71225 0.14834 0.10101 0.0
H1436 H 0.68296 0.15337 0.07542 0.0
H1437 H 0.66338 0.15455 0.08754 0.0
H1438 H 0.66908 0.16269 0.09597 0.0
H1439 H 0.68866 0.16155 0.08392 0.0
C1440 C 0.57599 0.06997 0.6455 0.0
C1441 C 0.57865 0.07696 0.64564 0.0
C1442 C 0.56838 0.08115 0.6389 0.0
C1443 C 0.57491 0.08248 0.64235 0.0
C1444 C 0.56564 0.07416 0.63888 0.0
C1445 C 0.56944 0.0686 0.64214 0.0
U1446 U 0.58972 0.06473 0.65903 0.0
O1447 O 0.5906 0.05561 0.66641 0.0
O1448 O 0.59901 0.05762 0.6585 0.0
C1449 C 0.59651 0.05329 0.66342 0.0
C1450 C 0.58003 0.0642 0.64897 0.0
C1451 C 0.5967 0.04568 0.66155 0.0
C1452 C 0.59456 0.03604 0.65315 0.0
C1453 C 0.59374 0.0432 0.65514 0.0
C1454 C 0.60108 0.03377 0.66408 0.0
C1455 C 0.59832 0.03126 0.65756 0.0
C1456 C 0.60029 0.04091 0.66604 0.0
C1457 C 0.59782 0.08039 0.6696 0.0
C1458 C 0.60492 0.07975 0.68044 0.0
C1459 C 0.60478 0.09061 0.67343 0.0
C1460 C 0.60012 0.08742 0.66858 0.0
C1461 C 0.60723 0.08682 0.67943 0.0
C1462 C 0.60027 0.07654 0.67554 0.0
C1463 C 0.59285 0.07729 0.66438 0.0
O1464 O 0.58693 0.06425 0.64766 0.0
O1465 O 0.57853 0.06318 0.65574 0.0
O1466 O 0.58777 0.07318 0.66694 0.0
O1467 O 0.5958 0.07476 0.65855 0.0
H1468 H 0.58364 0.07816 0.6483 0.0
H1469 H 0.57709 0.08783 0.64257 0.0
H1470 H 0.56062 0.07299 0.63627 0.0
H1471 H 0.56728 0.06324 0.64202 0.0
H1472 H 0.59229 0.03426 0.64814 0.0
H1473 H 0.59094 0.04682 0.65161 0.0
H1474 H 0.60409 0.03026 0.66755 0.0
H1475 H 0.60263 0.04276 0.67099 0.0
H1476 H 0.60675 0.07668 0.68498 0.0
H1477 H 0.60636 0.09609 0.67255 0.0
H1478 H 0.59827 0.09048 0.66403 0.0
H1479 H 0.59858 0.07108 0.67639 0.0
C1480 C 0.68989 0.82485 0.3993 0.0
C1481 C 0.68326 0.82496 0.40275 0.0
C1482 C 0.67884 0.81564 0.39485 0.0
C1483 C 0.67779 0.82041 0.40055 0.0
C1484 C 0.68554 0.81551 0.39143 0.0
C1485 C 0.69103 0.82008 0.39365 0.0
U1486 U 0.69516 0.84025 0.41088 0.0
O1487 O 0.70496 0.84288 0.41675 0.0
O1488 O 0.70094 0.8502 0.40851 0.0
C1489 C 0.70616 0.84865 0.41293 0.0
C1490 C 0.69545 0.82994 0.40144 0.0
C1491 C 0.71344 0.84952 0.41008 0.0
C1492 C 0.7249 0.84469 0.40638 0.0
C1493 C 0.71791 0.84364 0.40879 0.0
C1494 C 0.72296 0.85747 0.40633 0.0
C1495 C 0.72751 0.85162 0.40516 0.0
C1496 C 0.716 0.85643 0.40879 0.0
C1497 C 0.68072 0.84714 0.42376 0.0
C1498 C 0.67826 0.85912 0.42809 0.0
C1499 C 0.67392 0.84887 0.43466 0.0
C1500 C 0.67704 0.84433 0.42963 0.0
C1501 C 0.67439 0.85632 0.43387 0.0
C1502 C 0.68143 0.85458 0.42309 0.0
C1503 C 0.68341 0.84221 0.41824 0.0
O1504 O 0.69404 0.83661 0.39979 0.0
O1505 O 0.69781 0.82918 0.408 0.0
O1506 O 0.68848 0.8378 0.42025 0.0
O1507 O 0.68446 0.84493 0.41186 0.0
H1508 H 0.68227 0.82865 0.40709 0.0
H1509 H 0.67268 0.82077 0.40322 0.0
H1510 H 0.68654 0.81187 0.38706 0.0
H1511 H 0.69612 0.81995 0.39091 0.0
H1512 H 0.72826 0.84007 0.40546 0.0
H1513 H 0.71603 0.83825 0.4097 0.0
H1514 H 0.72484 0.86287 0.40551 0.0
H1515 H 0.71264 0.86103 0.40976 0.0
H1516 H 0.67876 0.86484 0.42739 0.0
H1517 H 0.67091 0.84655 0.439 0.0
H1518 H 0.67641 0.83862 0.43023 0.0
H1519 H 0.68429 0.85688 0.41864 0.0
C1520 C 0.93715 0.94139 0.14914 0.0
C1521 C 0.94168 0.93791 0.15399 0.0
C1522 C 0.94617 0.93021 0.14453 0.0
C1523 C 0.94616 0.93241 0.1517 0.0
C1524 C 0.94187 0.93392 0.13962 0.0
C1525 C 0.93741 0.93947 0.14191 0.0
U1526 U 0.92136 0.94548 0.16094 0.0
O1527 O 0.91851 0.95486 0.1674 0.0
O1528 O 0.9113 0.95115 0.15892 0.0
C1529 C 0.9127 0.95613 0.16368 0.0
C1530 C 0.93172 0.94656 0.15162 0.0
C1531 C 0.91177 0.96354 0.16129 0.0
C1532 C 0.91317 0.97289 0.15243 0.0
C1533 C 0.91421 0.96582 0.15459 0.0
C1534 C 0.90737 0.97547 0.16369 0.0
C1535 C 0.90973 0.9778 0.15696 0.0
C1536 C 0.90837 0.96841 0.16582 0.0
C1537 C 0.91483 0.93022 0.17295 0.0
C1538 C 0.90287 0.92806 0.17748 0.0
C1539 C 0.91303 0.92237 0.18309 0.0
C1540 C 0.91759 0.92572 0.17824 0.0
C1541 C 0.90561 0.92342 0.1827 0.0
C1542 C 0.90744 0.93147 0.17267 0.0
C1543 C 0.91973 0.93329 0.16762 0.0
O1544 O 0.92511 0.94501 0.14982 0.0
O1545 O 0.93231 0.94876 0.15826 0.0
O1546 O 0.924 0.93835 0.16992 0.0
O1547 O 0.91698 0.93463 0.16131 0.0
H1548 H 0.94163 0.93926 0.15961 0.0
H1549 H 0.94952 0.92977 0.1556 0.0
H1550 H 0.94168 0.93234 0.13407 0.0
H1551 H 0.93397 0.94207 0.13806 0.0
H1552 H 0.91511 0.97454 0.14724 0.0
H1553 H 0.9169 0.96214 0.15104 0.0
H1554 H 0.90462 0.97909 0.16727 0.0
H1555 H 0.90646 0.96673 0.17102 0.0
H1556 H 0.89718 0.92903 0.1771 0.0
H1557 H 0.9153 0.91876 0.187 0.0
H1558 H 0.92327 0.92469 0.17854 0.0
H1559 H 0.90519 0.93497 0.16867 0.0
C1560 C 0.82135 0.18397 0.8934 0.0
C1561 C 0.82836 0.18146 0.89418 0.0
C1562 C 0.83281 0.19138 0.8871 0.0
C1563 C 0.83403 0.18511 0.89103 0.0
C1564 C 0.82579 0.19396 0.88643 0.0
C1565 C 0.82009 0.19025 0.88955 0.0
U1566 U 0.81544 0.17086 0.90728 0.0
O1567 O 0.80599 0.17039 0.91427 0.0
O1568 O 0.80828 0.16161 0.90685 0.0
C1569 C 0.80376 0.16436 0.91145 0.0
C1570 C 0.81543 0.18005 0.89675 0.0
C1571 C 0.79623 0.16415 0.90931 0.0
C1572 C 0.78692 0.16582 0.90044 0.0
C1573 C 0.79405 0.16653 0.90256 0.0
C1574 C 0.78407 0.16054 0.9119 0.0
C1575 C 0.78186 0.16274 0.90507 0.0
C1576 C 0.79119 0.16123 0.91398 0.0
C1577 C 0.83031 0.1633 0.91932 0.0
C1578 C 0.83355 0.15156 0.92384 0.0
C1579 C 0.83652 0.16213 0.93066 0.0
C1580 C 0.83337 0.16639 0.92542 0.0
C1581 C 0.83675 0.15467 0.92986 0.0
C1582 C 0.83035 0.15583 0.91862 0.0
C1583 C 0.82761 0.16797 0.91357 0.0
O1584 O 0.81558 0.1731 0.89578 0.0
O1585 O 0.81405 0.18187 0.90338 0.0
O1586 O 0.82344 0.17326 0.91555 0.0
O1587 O 0.82547 0.16483 0.90767 0.0
H1588 H 0.82946 0.17668 0.89723 0.0
H1589 H 0.83939 0.18306 0.89176 0.0
H1590 H 0.82471 0.19877 0.88343 0.0
H1591 H 0.81471 0.19228 0.88894 0.0
H1592 H 0.78537 0.16764 0.89519 0.0
H1593 H 0.79788 0.16883 0.89889 0.0
H1594 H 0.78034 0.15807 0.91555 0.0
H1595 H 0.7928 0.15935 0.91921 0.0
H1596 H 0.83359 0.14582 0.92312 0.0
H1597 H 0.83902 0.16469 0.93519 0.0
H1598 H 0.83347 0.17214 0.92606 0.0
H1599 H 0.82804 0.15326 0.91399 0.0
C1600 C 0.86438 0.5774 0.93818 0.0
C1601 C 0.86274 0.57916 0.9311 0.0
C1602 C 0.87036 0.56957 0.92683 0.0
C1603 C 0.86572 0.5753 0.92548 0.0
C1604 C 0.87182 0.56765 0.93393 0.0
C1605 C 0.86887 0.57158 0.93958 0.0
U1606 U 0.85152 0.59155 0.94409 0.0
O1607 O 0.84527 0.59315 0.95389 0.0
O1608 O 0.85308 0.60123 0.95054 0.0
C1609 C 0.84867 0.59906 0.95555 0.0
C1610 C 0.86156 0.58181 0.94402 0.0
C1611 C 0.85133 0.59973 0.96293 0.0
C1612 C 0.8543 0.59467 0.9745 0.0
C1613 C 0.85201 0.59379 0.96745 0.0
C1614 C 0.85542 0.6074 0.97255 0.0
C1615 C 0.85601 0.60149 0.97713 0.0
C1616 C 0.85308 0.60652 0.96553 0.0
C1617 C 0.83888 0.59894 0.92974 0.0
C1618 C 0.83408 0.6109 0.9282 0.0
C1619 C 0.82819 0.60081 0.92265 0.0
C1620 C 0.83331 0.59623 0.92556 0.0
C1621 C 0.8286 0.60821 0.92384 0.0
C1622 C 0.83916 0.6063 0.93116 0.0
C1623 C 0.84451 0.59404 0.93224 0.0
O1624 O 0.86285 0.58867 0.94334 0.0
O1625 O 0.85494 0.58044 0.94589 0.0
O1626 O 0.84253 0.58918 0.93689 0.0
O1627 O 0.85073 0.59693 0.93373 0.0
H1628 H 0.85922 0.5836 0.92991 0.0
H1629 H 0.86441 0.57682 0.92006 0.0
H1630 H 0.87539 0.56326 0.93511 0.0
H1631 H 0.87018 0.57014 0.94502 0.0
H1632 H 0.85476 0.59002 0.9779 0.0
H1633 H 0.85074 0.58847 0.96557 0.0
H1634 H 0.8566 0.61273 0.97444 0.0
H1635 H 0.85256 0.61118 0.96214 0.0
H1636 H 0.83448 0.61657 0.92926 0.0
H1637 H 0.82408 0.59859 0.91925 0.0
H1638 H 0.833 0.59057 0.92439 0.0
H1639 H 0.84337 0.60852 0.93443 0.0
C1640 C 0.36638 0.93344 0.07132 0.0
C1641 C 0.36553 0.93117 0.0784 0.0
C1642 C 0.37271 0.94112 0.0826 0.0
C1643 C 0.36868 0.93495 0.08397 0.0
C1644 C 0.37347 0.94347 0.0755 0.0
C1645 C 0.37034 0.93962 0.0699 0.0
U1646 U 0.35283 0.91979 0.06606 0.0
O1647 O 0.34548 0.91894 0.05692 0.0
O1648 O 0.35331 0.91047 0.059 0.0
C1649 C 0.34844 0.913 0.05463 0.0
C1650 C 0.363 0.92937 0.06553 0.0
C1651 C 0.35035 0.91279 0.04704 0.0
C1652 C 0.35894 0.91451 0.03748 0.0
C1653 C 0.357 0.91529 0.04465 0.0
C1654 C 0.34752 0.90897 0.035 0.0
C1655 C 0.35426 0.91126 0.0326 0.0
C1656 C 0.3456 0.90972 0.04216 0.0
C1657 C 0.34197 0.91199 0.08164 0.0
C1658 C 0.33092 0.90522 0.08093 0.0
C1659 C 0.33793 0.90507 0.0918 0.0
C1660 C 0.34292 0.9096 0.08866 0.0
C1661 C 0.33186 0.90284 0.08799 0.0
C1662 C 0.33597 0.90973 0.07776 0.0
C1663 C 0.34732 0.91684 0.07858 0.0
O1664 O 0.36424 0.92246 0.06571 0.0
O1665 O 0.35625 0.93091 0.06439 0.0
O1666 O 0.34489 0.92195 0.07442 0.0
O1667 O 0.35313 0.91378 0.07613 0.0
H1668 H 0.3624 0.92646 0.07962 0.0
H1669 H 0.36787 0.93309 0.08938 0.0
H1670 H 0.37655 0.9482 0.07429 0.0
H1671 H 0.37101 0.94147 0.06446 0.0
H1672 H 0.36413 0.91641 0.03578 0.0
H1673 H 0.36072 0.91771 0.04835 0.0
H1674 H 0.34382 0.90637 0.0314 0.0
H1675 H 0.34046 0.90774 0.04393 0.0
H1676 H 0.32633 0.90355 0.07785 0.0
H1677 H 0.33875 0.90343 0.09728 0.0
H1678 H 0.34752 0.91129 0.09173 0.0
H1679 H 0.33517 0.91148 0.07232 0.0
C1680 C 0.82401 0.61157 0.81909 0.0
C1681 C 0.81971 0.60674 0.82287 0.0
C1682 C 0.81553 0.61629 0.83063 0.0
C1683 C 0.81548 0.60908 0.82854 0.0
C1684 C 0.81962 0.62117 0.82665 0.0
C1685 C 0.82381 0.61883 0.82093 0.0
U1686 U 0.83912 0.59923 0.8142 0.0
O1687 O 0.84151 0.59302 0.80452 0.0
O1688 O 0.84915 0.60103 0.80839 0.0
C1689 C 0.84746 0.59652 0.80329 0.0
C1690 C 0.82918 0.60904 0.81369 0.0
C1691 C 0.84838 0.59912 0.79596 0.0
C1692 C 0.84705 0.60827 0.78688 0.0
C1693 C 0.84603 0.60592 0.79389 0.0
C1694 C 0.85269 0.59701 0.78393 0.0
C1695 C 0.8504 0.60384 0.78182 0.0
C1696 C 0.85169 0.59468 0.79094 0.0
C1697 C 0.84551 0.58644 0.82883 0.0
C1698 C 0.85734 0.5813 0.83023 0.0
C1699 C 0.84731 0.57627 0.83665 0.0
C1700 C 0.84279 0.58132 0.83355 0.0
C1701 C 0.85466 0.57629 0.83513 0.0
C1702 C 0.8528 0.58631 0.82708 0.0
C1703 C 0.84073 0.59204 0.82609 0.0
O1704 O 0.8359 0.61049 0.81514 0.0
O1705 O 0.82823 0.60252 0.81128 0.0
O1706 O 0.83628 0.59009 0.82104 0.0
O1707 O 0.84369 0.5983 0.82493 0.0
H1708 H 0.81975 0.6011 0.8216 0.0
H1709 H 0.81229 0.6052 0.83139 0.0
H1710 H 0.81984 0.62675 0.82815 0.0
H1711 H 0.8271 0.62265 0.81811 0.0
H1712 H 0.84517 0.61353 0.78539 0.0
H1713 H 0.84341 0.6094 0.79769 0.0
H1714 H 0.85537 0.5935 0.7802 0.0
H1715 H 0.85355 0.58942 0.79245 0.0
H1716 H 0.86297 0.58138 0.8289 0.0
H1717 H 0.84509 0.57253 0.84046 0.0
H1718 H 0.83718 0.58134 0.83496 0.0
H1719 H 0.85501 0.59017 0.82339 0.0
C1720 C 0.1477 0.07562 0.56992 0.0
C1721 C 0.152 0.07258 0.57526 0.0
C1722 C 0.14161 0.06683 0.5805 0.0
C1723 C 0.14899 0.06819 0.58047 0.0
C1724 C 0.13735 0.06973 0.57505 0.0
C1725 C 0.14038 0.07407 0.56979 0.0
U1726 U 0.16001 0.09118 0.56648 0.0
O1727 O 0.1668 0.0941 0.55738 0.0
O1728 O 0.15817 0.10128 0.56078 0.0
C1729 C 0.16304 0.09986 0.55594 0.0
C1730 C 0.15064 0.08092 0.56491 0.0
C1731 C 0.16072 0.10075 0.54849 0.0
C1732 C 0.15717 0.09587 0.53701 0.0
C1733 C 0.15933 0.09485 0.54408 0.0
C1734 C 0.15759 0.10868 0.53874 0.0
C1735 C 0.15627 0.10279 0.53427 0.0
C1736 C 0.15981 0.10766 0.54578 0.0
C1737 C 0.17105 0.09788 0.58234 0.0
C1738 C 0.18097 0.10623 0.58167 0.0
C1739 C 0.17525 0.10386 0.59302 0.0
C1740 C 0.17059 0.0991 0.58969 0.0
C1741 C 0.18049 0.10748 0.58905 0.0
C1742 C 0.17625 0.10149 0.57833 0.0
C1743 C 0.16598 0.09291 0.57902 0.0
O1744 O 0.14885 0.08755 0.56634 0.0
O1745 O 0.15742 0.08019 0.56324 0.0
O1746 O 0.16857 0.08864 0.5741 0.0
O1747 O 0.15976 0.09568 0.57731 0.0
H1748 H 0.15765 0.07379 0.57554 0.0
H1749 H 0.15239 0.06612 0.58466 0.0
H1750 H 0.13166 0.06874 0.57492 0.0
H1751 H 0.13697 0.07639 0.56574 0.0
H1752 H 0.15612 0.09124 0.53372 0.0
H1753 H 0.15992 0.08946 0.54609 0.0
H1754 H 0.15701 0.11407 0.53675 0.0
H1755 H 0.16084 0.11227 0.5491 0.0
H1756 H 0.18491 0.10898 0.57847 0.0
H1757 H 0.17482 0.10462 0.59873 0.0
H1758 H 0.16661 0.09636 0.59287 0.0
H1759 H 0.17665 0.10065 0.57262 0.0
C1760 C 0.18382 0.89519 0.82079 0.0
C1761 C 0.1816 0.89593 0.82789 0.0
C1762 C 0.19158 0.88867 0.83189 0.0
C1763 C 0.18542 0.89268 0.83338 0.0
C1764 C 0.19388 0.88804 0.82477 0.0
C1765 C 0.19 0.89127 0.81925 0.0
U1766 U 0.16998 0.90868 0.81581 0.0
O1767 O 0.16897 0.91612 0.80676 0.0
O1768 O 0.1606 0.90818 0.80883 0.0
C1769 C 0.16306 0.91311 0.80448 0.0
C1770 C 0.17967 0.89863 0.81508 0.0
C1771 C 0.16286 0.91125 0.79687 0.0
C1772 C 0.16455 0.90271 0.78727 0.0
C1773 C 0.1653 0.90459 0.79445 0.0
C1774 C 0.15916 0.9142 0.78483 0.0
C1775 C 0.1614 0.90747 0.78239 0.0
C1776 C 0.15987 0.91606 0.79201 0.0
C1777 C 0.16222 0.91919 0.83168 0.0
C1778 C 0.15456 0.92965 0.83101 0.0
C1779 C 0.15599 0.92336 0.84222 0.0
C1780 C 0.16059 0.91853 0.83893 0.0
C1781 C 0.15291 0.92898 0.83831 0.0
C1782 C 0.15916 0.92477 0.82771 0.0
C1783 C 0.16709 0.91398 0.82844 0.0
O1784 O 0.17278 0.89731 0.81528 0.0
O1785 O 0.18114 0.9054 0.81403 0.0
O1786 O 0.17209 0.91655 0.82425 0.0
O1787 O 0.16407 0.90818 0.82593 0.0
H1788 H 0.17689 0.89902 0.8292 0.0
H1789 H 0.18359 0.89338 0.83882 0.0
H1790 H 0.19861 0.88498 0.82347 0.0
H1791 H 0.19181 0.89069 0.81379 0.0
H1792 H 0.16641 0.89751 0.78554 0.0
H1793 H 0.16765 0.90081 0.79814 0.0
H1794 H 0.15664 0.91796 0.78123 0.0
H1795 H 0.15794 0.92122 0.7938 0.0
H1796 H 0.15224 0.9339 0.82786 0.0
H1797 H 0.15493 0.92277 0.84787 0.0
H1798 H 0.16291 0.91427 0.84207 0.0
H1799 H 0.16034 0.92533 0.82208 0.0
C1800 C 0.64642 0.43479 0.4391 0.0
C1801 C 0.64687 0.43234 0.43204 0.0
C1802 C 0.63982 0.44244 0.42796 0.0
C1803 C 0.64357 0.43609 0.42654 0.0
C1804 C 0.63952 0.44499 0.43501 0.0
C1805 C 0.64277 0.44117 0.44055 0.0
U1806 U 0.66028 0.42142 0.44462 0.0
O1807 O 0.66725 0.42061 0.45405 0.0
O1808 O 0.65974 0.41198 0.45151 0.0
C1809 C 0.66441 0.41453 0.45608 0.0
C1810 C 0.64982 0.4307 0.44487 0.0
C1811 C 0.66234 0.41405 0.46362 0.0
C1812 C 0.6537 0.41566 0.47315 0.0
C1813 C 0.65573 0.41663 0.46603 0.0
C1814 C 0.66493 0.40969 0.47552 0.0
C1815 C 0.65826 0.41212 0.47797 0.0
C1816 C 0.66694 0.41065 0.46842 0.0
C1817 C 0.67227 0.41404 0.42969 0.0
C1818 C 0.67717 0.40221 0.42753 0.0
C1819 C 0.68302 0.4126 0.42257 0.0
C1820 C 0.67786 0.417 0.42568 0.0
C1821 C 0.68266 0.40515 0.42335 0.0
C1822 C 0.67204 0.40661 0.4307 0.0
C1823 C 0.66658 0.41877 0.4324 0.0
O1824 O 0.6488 0.42377 0.44456 0.0
O1825 O 0.65648 0.43244 0.44625 0.0
O1826 O 0.66862 0.42392 0.43671 0.0
O1827 O 0.66062 0.41567 0.43442 0.0
H1828 H 0.64975 0.42748 0.43079 0.0
H1829 H 0.644 0.43407 0.42114 0.0
H1830 H 0.63666 0.44986 0.43624 0.0
H1831 H 0.64242 0.44316 0.44596 0.0
H1832 H 0.64856 0.41766 0.47488 0.0
H1833 H 0.65212 0.41929 0.46238 0.0
H1834 H 0.66852 0.40686 0.47905 0.0
H1835 H 0.67205 0.4086 0.46663 0.0
H1836 H 0.67679 0.39649 0.42828 0.0
H1837 H 0.68714 0.41502 0.41931 0.0
H1838 H 0.67814 0.42271 0.42481 0.0
H1839 H 0.66782 0.40418 0.43381 0.0
C1840 C 0.82472 0.3989 0.68994 0.0
C1841 C 0.82467 0.40244 0.68336 0.0
C1842 C 0.81514 0.39469 0.67912 0.0
C1843 C 0.81993 0.40036 0.678 0.0
C1844 C 0.81518 0.39118 0.68576 0.0
C1845 C 0.81994 0.39328 0.69114 0.0
U1846 U 0.84096 0.40957 0.69447 0.0
O1847 O 0.84413 0.41578 0.7039 0.0
O1848 O 0.8508 0.40684 0.70028 0.0
C1849 C 0.84964 0.41164 0.70526 0.0
C1850 C 0.83001 0.40092 0.69536 0.0
C1851 C 0.85043 0.40912 0.71266 0.0
C1852 C 0.84552 0.40623 0.72432 0.0
C1853 C 0.84454 0.40844 0.71726 0.0
C1854 C 0.85824 0.40519 0.72222 0.0
C1855 C 0.85239 0.40459 0.72688 0.0
C1856 C 0.85726 0.40745 0.71519 0.0
C1857 C 0.84849 0.42088 0.67907 0.0
C1858 C 0.85681 0.4308 0.67989 0.0
C1859 C 0.85474 0.42499 0.66852 0.0
C1860 C 0.84992 0.42035 0.67176 0.0
C1861 C 0.85823 0.43029 0.67254 0.0
C1862 C 0.85199 0.4261 0.68315 0.0
C1863 C 0.84326 0.41596 0.68223 0.0
O1864 O 0.83653 0.39872 0.694 0.0
O1865 O 0.82975 0.40763 0.69741 0.0
O1866 O 0.83909 0.41859 0.68722 0.0
O1867 O 0.84566 0.40954 0.68371 0.0
H1868 H 0.82838 0.40674 0.68231 0.0
H1869 H 0.82017 0.40309 0.67292 0.0
H1870 H 0.81153 0.38682 0.6868 0.0
H1871 H 0.81993 0.39047 0.69619 0.0
H1872 H 0.84091 0.40575 0.72777 0.0
H1873 H 0.8392 0.40965 0.71541 0.0
H1874 H 0.8636 0.40405 0.72405 0.0
H1875 H 0.86187 0.40795 0.71173 0.0
H1876 H 0.85945 0.4348 0.68312 0.0
H1877 H 0.85563 0.42453 0.66283 0.0
H1878 H 0.84725 0.41636 0.66854 0.0
H1879 H 0.85099 0.42657 0.68882 0.0
C1880 C 0.68407 0.61397 0.18924 0.0
C1881 C 0.68234 0.61235 0.18214 0.0
C1882 C 0.69183 0.62014 0.17796 0.0
C1883 C 0.68616 0.61544 0.17656 0.0
C1884 C 0.69371 0.62158 0.18508 0.0
C1885 C 0.68981 0.61854 0.1907 0.0
U1886 U 0.6704 0.60057 0.19493 0.0
O1887 O 0.66883 0.59426 0.20469 0.0
O1888 O 0.6605 0.60172 0.20113 0.0
C1889 C 0.66273 0.5974 0.20619 0.0
C1890 C 0.67971 0.611 0.19504 0.0
C1891 C 0.66174 0.60001 0.21355 0.0
C1892 C 0.66633 0.60312 0.22529 0.0
C1893 C 0.66751 0.60089 0.21826 0.0
C1894 C 0.65363 0.60378 0.22293 0.0
C1895 C 0.65937 0.60457 0.2277 0.0
C1896 C 0.65481 0.6015 0.21594 0.0
C1897 C 0.66381 0.58774 0.18041 0.0
C1898 C 0.65214 0.58217 0.1794 0.0
C1899 C 0.66211 0.57756 0.17258 0.0
C1900 C 0.66655 0.58275 0.17556 0.0
C1901 C 0.65483 0.5773 0.17437 0.0
C1902 C 0.6566 0.58733 0.18243 0.0
C1903 C 0.66847 0.59351 0.183 0.0
O1904 O 0.67281 0.61201 0.19427 0.0
O1905 O 0.68132 0.60444 0.19695 0.0
O1906 O 0.67328 0.59168 0.18777 0.0
O1907 O 0.66531 0.59961 0.18443 0.0
H1908 H 0.67797 0.60878 0.18092 0.0
H1909 H 0.68467 0.61414 0.17113 0.0
H1910 H 0.69805 0.6252 0.18629 0.0
H1911 H 0.69122 0.61982 0.19615 0.0
H1912 H 0.67085 0.60374 0.22883 0.0
H1913 H 0.67293 0.59981 0.21654 0.0
H1914 H 0.6482 0.60476 0.22466 0.0
H1915 H 0.65028 0.60082 0.21241 0.0
H1916 H 0.64657 0.58205 0.18093 0.0
H1917 H 0.66432 0.57392 0.16866 0.0
H1918 H 0.6721 0.58298 0.17394 0.0
H1919 H 0.65439 0.59108 0.18623 0.0
C1920 C 0.57218 0.64479 0.93345 0.0
C1921 C 0.57929 0.64608 0.93151 0.0
C1922 C 0.58343 0.63834 0.94106 0.0
C1923 C 0.58486 0.64286 0.93525 0.0
C1924 C 0.5763 0.63719 0.94311 0.0
C1925 C 0.5707 0.64037 0.93931 0.0
U1926 U 0.56644 0.65877 0.92034 0.0
O1927 O 0.55977 0.65827 0.91075 0.0
O1928 O 0.55677 0.66543 0.91955 0.0
C1929 C 0.55493 0.66263 0.91338 0.0
C1930 C 0.56637 0.64807 0.92934 0.0
C1931 C 0.54741 0.66043 0.91262 0.0
C1932 C 0.53843 0.65164 0.90936 0.0
C1933 C 0.54552 0.65337 0.91091 0.0
C1934 C 0.53497 0.66389 0.91155 0.0
C1935 C 0.53309 0.65692 0.9095 0.0
C1936 C 0.54206 0.66563 0.91306 0.0
C1937 C 0.58096 0.6714 0.91346 0.0
C1938 C 0.58144 0.67732 0.90194 0.0
C1939 C 0.58887 0.6815 0.91166 0.0
C1940 C 0.58605 0.67621 0.91609 0.0
C1941 C 0.58669 0.68203 0.9045 0.0
C1942 C 0.57856 0.67208 0.90639 0.0
C1943 C 0.57847 0.66555 0.91808 0.0
O1944 O 0.56472 0.65463 0.93121 0.0
O1945 O 0.56688 0.64725 0.92239 0.0
O1946 O 0.57673 0.65959 0.91482 0.0
O1947 O 0.57399 0.66734 0.92317 0.0
H1948 H 0.58054 0.64955 0.92706 0.0
H1949 H 0.5903 0.64395 0.93363 0.0
H1950 H 0.57505 0.63372 0.94756 0.0
H1951 H 0.56524 0.63935 0.9409 0.0
H1952 H 0.53719 0.64623 0.90775 0.0
H1953 H 0.54954 0.64923 0.91056 0.0
H1954 H 0.53097 0.66806 0.91185 0.0
H1955 H 0.54339 0.6711 0.91438 0.0
H1956 H 0.5796 0.67766 0.89647 0.0
H1957 H 0.59296 0.685 0.91376 0.0
H1958 H 0.58796 0.67578 0.92152 0.0
H1959 H 0.57458 0.66846 0.90427 0.0
C1960 C 0.61342 0.31981 0.18588 0.0
C1961 C 0.60873 0.32321 0.19064 0.0
C1962 C 0.61823 0.33117 0.19455 0.0
C1963 C 0.61112 0.32879 0.19496 0.0
C1964 C 0.623 0.32754 0.19002 0.0
C1965 C 0.62061 0.32191 0.18573 0.0
U1966 U 0.60005 0.31548 0.17159 0.0
O1967 O 0.60112 0.31065 0.16097 0.0
O1968 O 0.59402 0.30575 0.16892 0.0
C1969 C 0.59696 0.30523 0.16257 0.0
C1970 C 0.61073 0.31465 0.18056 0.0
C1971 C 0.59957 0.2981 0.16056 0.0
C1972 C 0.60917 0.28969 0.15819 0.0
C1973 C 0.60686 0.29638 0.16061 0.0
C1974 C 0.59689 0.28632 0.15591 0.0
C1975 C 0.60421 0.28462 0.15571 0.0
C1976 C 0.59461 0.29299 0.1583 0.0
C1977 C 0.58624 0.33009 0.1676 0.0
C1978 C 0.58036 0.33292 0.15639 0.0
C1979 C 0.57553 0.33739 0.16751 0.0
C1980 C 0.58099 0.33396 0.17125 0.0
C1981 C 0.57524 0.33706 0.16001 0.0
C1982 C 0.58579 0.32945 0.16014 0.0
C1983 C 0.59232 0.32715 0.17162 0.0
O1984 O 0.60442 0.31185 0.18186 0.0
O1985 O 0.61151 0.31665 0.17388 0.0
O1986 O 0.59834 0.32651 0.16808 0.0
O1987 O 0.59094 0.32167 0.17576 0.0
H1988 H 0.60314 0.32174 0.19088 0.0
H1989 H 0.60734 0.33137 0.19849 0.0
H1990 H 0.62849 0.32926 0.18952 0.0
H1991 H 0.62431 0.31938 0.18208 0.0
H1992 H 0.61484 0.28857 0.15807 0.0
H1993 H 0.61078 0.30024 0.16238 0.0
H1994 H 0.59292 0.28249 0.15418 0.0
H1995 H 0.58895 0.29421 0.15827 0.0
H1996 H 0.58034 0.33259 0.15062 0.0
H1997 H 0.5716 0.3404 0.17049 0.0
H1998 H 0.58122 0.33448 0.17701 0.0
H1999 H 0.58976 0.32644 0.1572 0.0
C2000 C 0.9401 0.36347 0.43499 0.0
C2001 C 0.93764 0.35877 0.44029 0.0
C2002 C 0.92933 0.36778 0.44465 0.0
C2003 C 0.93233 0.36091 0.44507 0.0
C2004 C 0.93206 0.37259 0.43958 0.0
C2005 C 0.93741 0.37047 0.43483 0.0
U2006 U 0.94358 0.35224 0.41856 0.0
O2007 O 0.94912 0.35473 0.40851 0.0
O2008 O 0.95273 0.34576 0.41514 0.0
C2009 C 0.95402 0.34982 0.40957 0.0
C2010 C 0.94507 0.36103 0.42934 0.0
C2011 C 0.96145 0.3522 0.40864 0.0
C2012 C 0.97306 0.35542 0.41344 0.0
C2013 C 0.96598 0.35332 0.4145 0.0
C2014 C 0.97111 0.35547 0.40066 0.0
C2015 C 0.97571 0.3565 0.4065 0.0
C2016 C 0.96406 0.35332 0.40173 0.0
C2017 C 0.92794 0.34105 0.41161 0.0
C2018 C 0.92876 0.33114 0.40327 0.0
C2019 C 0.91735 0.33682 0.40548 0.0
C2020 C 0.9206 0.3415 0.41028 0.0
C2021 C 0.92138 0.33157 0.40194 0.0
C2022 C 0.93202 0.33587 0.40804 0.0
C2023 C 0.93117 0.34603 0.41674 0.0
O2024 O 0.94705 0.3543 0.42958 0.0
O2025 O 0.94348 0.36317 0.42285 0.0
O2026 O 0.93266 0.35239 0.41422 0.0
O2027 O 0.93621 0.34341 0.42086 0.0
H2028 H 0.93965 0.35337 0.44064 0.0
H2029 H 0.93047 0.35712 0.44901 0.0
H2030 H 0.92985 0.37791 0.43906 0.0
H2031 H 0.93924 0.37422 0.43083 0.0
H2032 H 0.97646 0.35625 0.41804 0.0
H2033 H 0.96406 0.35256 0.4199 0.0
H2034 H 0.97302 0.35618 0.39525 0.0
H2035 H 0.96064 0.35248 0.39714 0.0
H2036 H 0.93201 0.32719 0.40057 0.0
H2037 H 0.91164 0.33722 0.40465 0.0
H2038 H 0.91736 0.34546 0.41299 0.0
H2039 H 0.93772 0.33548 0.40896 0.0
C2040 C 0.89717 0.68968 0.68396 0.0
C2041 C 0.90057 0.68302 0.68395 0.0
C2042 C 0.89277 0.67889 0.69347 0.0
C2043 C 0.89841 0.67768 0.68866 0.0
C2044 C 0.88935 0.68558 0.69345 0.0
C2045 C 0.89155 0.69095 0.68873 0.0
U2046 U 0.90831 0.69416 0.66807 0.0
O2047 O 0.90619 0.70037 0.65836 0.0
O2048 O 0.91506 0.7034 0.66541 0.0
C2049 C 0.91121 0.70506 0.65979 0.0
C2050 C 0.89943 0.69515 0.67883 0.0
C2051 C 0.90914 0.7126 0.6592 0.0
C2052 C 0.90059 0.72223 0.66081 0.0
C2053 C 0.90251 0.71506 0.66168 0.0
C2054 C 0.91196 0.72455 0.65512 0.0
C2055 C 0.90529 0.72705 0.65749 0.0
C2056 C 0.91386 0.7174 0.65595 0.0
C2057 C 0.91926 0.67854 0.6605 0.0
C2058 C 0.92937 0.67932 0.6524 0.0
C2059 C 0.92336 0.66801 0.65419 0.0
C2060 C 0.91866 0.67126 0.65896 0.0
C2061 C 0.92879 0.67199 0.65087 0.0
C2062 C 0.92462 0.68259 0.65716 0.0
C2063 C 0.91428 0.68173 0.66565 0.0
O2064 O 0.9062 0.69697 0.67927 0.0
O2065 O 0.89733 0.694 0.67224 0.0
O2066 O 0.90801 0.68353 0.66308 0.0
O2067 O 0.91696 0.68649 0.67005 0.0
H2068 H 0.90488 0.68192 0.68025 0.0
H2069 H 0.90106 0.67255 0.68841 0.0
H2070 H 0.88501 0.68667 0.69711 0.0
H2071 H 0.88885 0.69606 0.68878 0.0
H2072 H 0.89544 0.724 0.66276 0.0
H2073 H 0.89881 0.71143 0.66424 0.0
H2074 H 0.91567 0.7281 0.65246 0.0
H2075 H 0.91899 0.71558 0.654 0.0
H2076 H 0.93347 0.68253 0.64989 0.0
H2077 H 0.92283 0.66234 0.65322 0.0
H2078 H 0.91456 0.66806 0.6615 0.0
H2079 H 0.92514 0.68824 0.65825 0.0
C2080 C 0.57274 0.36715 0.5772 0.0
C2081 C 0.57986 0.36595 0.57918 0.0
C2082 C 0.58397 0.37342 0.56941 0.0
C2083 C 0.58541 0.36907 0.57535 0.0
C2084 C 0.57684 0.3745 0.56733 0.0
C2085 C 0.57125 0.37141 0.57123 0.0
U2086 U 0.5671 0.35352 0.59071 0.0
O2087 O 0.5603 0.35422 0.60021 0.0
O2088 O 0.55755 0.34672 0.59162 0.0
C2089 C 0.55557 0.3497 0.59766 0.0
C2090 C 0.56694 0.36393 0.58138 0.0
C2091 C 0.54799 0.35177 0.59826 0.0
C2092 C 0.53876 0.36015 0.60195 0.0
C2093 C 0.54594 0.35861 0.6006 0.0
C2094 C 0.53552 0.34818 0.59832 0.0
C2095 C 0.53348 0.35491 0.60096 0.0
C2096 C 0.5427 0.34663 0.59702 0.0
C2097 C 0.5818 0.34128 0.59804 0.0
C2098 C 0.58293 0.33595 0.60981 0.0
C2099 C 0.58938 0.33091 0.5998 0.0
C2100 C 0.58646 0.3361 0.59531 0.0
C2101 C 0.58774 0.33085 0.60712 0.0
C2102 C 0.57996 0.3411 0.6053 0.0
C2103 C 0.57922 0.34699 0.59328 0.0
O2104 O 0.5654 0.35729 0.57971 0.0
O2105 O 0.5674 0.36498 0.5883 0.0
O2106 O 0.57734 0.353 0.59637 0.0
O2107 O 0.57482 0.345 0.58819 0.0
H2108 H 0.58111 0.3626 0.58373 0.0
H2109 H 0.59085 0.36802 0.577 0.0
H2110 H 0.57558 0.37783 0.56278 0.0
H2111 H 0.56578 0.37236 0.56961 0.0
H2112 H 0.5374 0.36536 0.60404 0.0
H2113 H 0.54989 0.3627 0.60161 0.0
H2114 H 0.53159 0.34406 0.59738 0.0
H2115 H 0.54414 0.34132 0.59522 0.0
H2116 H 0.58151 0.33598 0.61541 0.0
H2117 H 0.59313 0.3271 0.59759 0.0
H2118 H 0.58796 0.33616 0.58973 0.0
H2119 H 0.57632 0.345 0.60753 0.0
C2120 C 0.89729 0.32141 0.82678 0.0
C2121 C 0.90038 0.32821 0.82705 0.0
C2122 C 0.89252 0.33228 0.81755 0.0
C2123 C 0.89801 0.3336 0.8225 0.0
C2124 C 0.8894 0.32545 0.81732 0.0
C2125 C 0.89179 0.32004 0.8219 0.0
U2126 U 0.91018 0.31619 0.84108 0.0
O2127 O 0.90901 0.31002 0.85098 0.0
O2128 O 0.91666 0.30654 0.84279 0.0
C2129 C 0.91353 0.30506 0.84889 0.0
C2130 C 0.8999 0.31581 0.83161 0.0
C2131 C 0.91115 0.29765 0.84977 0.0
C2132 C 0.90223 0.28832 0.84853 0.0
C2133 C 0.90437 0.29541 0.84751 0.0
C2134 C 0.91366 0.28568 0.85398 0.0
C2135 C 0.90687 0.28338 0.85177 0.0
C2136 C 0.91578 0.29275 0.85299 0.0
C2137 C 0.92337 0.33088 0.84699 0.0
C2138 C 0.92779 0.33671 0.85774 0.0
C2139 C 0.93574 0.33479 0.84774 0.0
C2140 C 0.9302 0.33154 0.84396 0.0
C2141 C 0.93457 0.33752 0.85463 0.0
C2142 C 0.92225 0.33345 0.85396 0.0
C2143 C 0.91737 0.3281 0.84265 0.0
O2144 O 0.90642 0.31359 0.83027 0.0
O2145 O 0.89878 0.31708 0.83842 0.0
O2146 O 0.91135 0.32677 0.84601 0.0
O2147 O 0.91898 0.32325 0.83784 0.0
H2148 H 0.90462 0.32937 0.83081 0.0
H2149 H 0.90043 0.33883 0.82293 0.0
H2150 H 0.88519 0.32426 0.81355 0.0
H2151 H 0.88936 0.3148 0.82163 0.0
H2152 H 0.89699 0.2867 0.84672 0.0
H2153 H 0.90075 0.29913 0.84498 0.0
H2154 H 0.91732 0.28204 0.85659 0.0
H2155 H 0.92102 0.2944 0.85478 0.0
H2156 H 0.92668 0.33885 0.86299 0.0
H2157 H 0.94092 0.33525 0.84522 0.0
H2158 H 0.93122 0.32968 0.83858 0.0
H2159 H 0.91704 0.33312 0.85643 0.0
C2160 C 0.9391 0.64367 0.07916 0.0
C2161 C 0.93201 0.64425 0.08147 0.0
C2162 C 0.928 0.6372 0.07134 0.0
C2163 C 0.92652 0.64102 0.07762 0.0
C2164 C 0.93511 0.63673 0.06896 0.0
C2165 C 0.94063 0.63992 0.07287 0.0
U2166 U 0.94415 0.65732 0.09282 0.0
O2167 O 0.95099 0.65691 0.10229 0.0
O2168 O 0.95333 0.66464 0.09379 0.0
C2169 C 0.95545 0.66172 0.09981 0.0
C2170 C 0.94482 0.64711 0.0833 0.0
C2171 C 0.96309 0.65996 0.10037 0.0
C2172 C 0.97263 0.65132 0.10203 0.0
C2173 C 0.96547 0.65285 0.10057 0.0
C2174 C 0.97519 0.66397 0.10271 0.0
C2175 C 0.97755 0.65686 0.10328 0.0
C2176 C 0.96803 0.6655 0.1013 0.0
C2177 C 0.92864 0.66823 0.10051 0.0
C2178 C 0.92984 0.67874 0.10803 0.0
C2179 C 0.91846 0.67264 0.10717 0.0
C2180 C 0.92145 0.66771 0.10246 0.0
C2181 C 0.92261 0.67821 0.11001 0.0
C2182 C 0.93285 0.67375 0.10334 0.0
C2183 C 0.93161 0.66288 0.09561 0.0
O2184 O 0.94596 0.65385 0.08173 0.0
O2185 O 0.94456 0.6459 0.09021 0.0
O2186 O 0.93398 0.65703 0.09865 0.0
O2187 O 0.93584 0.66529 0.09056 0.0
H2188 H 0.9307 0.64721 0.08626 0.0
H2189 H 0.92109 0.6416 0.07952 0.0
H2190 H 0.9364 0.63381 0.06414 0.0
H2191 H 0.94608 0.63947 0.07099 0.0
H2192 H 0.97424 0.64579 0.10248 0.0
H2193 H 0.96176 0.64848 0.09984 0.0
H2194 H 0.97885 0.66837 0.10349 0.0
H2195 H 0.9663 0.67101 0.10113 0.0
H2196 H 0.93318 0.68295 0.11017 0.0
H2197 H 0.91286 0.67216 0.10849 0.0
H2198 H 0.91813 0.66348 0.10033 0.0
H2199 H 0.93844 0.6742 0.10193 0.0
C2200 C 0.61442 0.68867 0.32739 0.0
C2201 C 0.6135 0.68153 0.32944 0.0
C2202 C 0.62087 0.6776 0.31952 0.0
C2203 C 0.61673 0.67606 0.32557 0.0
C2204 C 0.6216 0.68474 0.31732 0.0
C2205 C 0.61842 0.69025 0.32126 0.0
U2206 U 0.60102 0.69409 0.34123 0.0
O2207 O 0.60214 0.70046 0.35102 0.0
O2208 O 0.59449 0.70373 0.34276 0.0
C2209 C 0.59769 0.70539 0.34878 0.0
C2210 C 0.61129 0.69439 0.33175 0.0
C2211 C 0.60022 0.7128 0.34957 0.0
C2212 C 0.60378 0.72426 0.34463 0.0
C2213 C 0.60145 0.71723 0.34365 0.0
C2214 C 0.60382 0.72246 0.35742 0.0
C2215 C 0.60501 0.72694 0.35153 0.0
C2216 C 0.60143 0.71548 0.35645 0.0
C2217 C 0.58871 0.67922 0.34815 0.0
C2218 C 0.58358 0.67752 0.35995 0.0
C2219 C 0.57835 0.67159 0.34973 0.0
C2220 C 0.58346 0.67472 0.3453 0.0
C2221 C 0.57843 0.67286 0.35712 0.0
C2222 C 0.58866 0.6807 0.3555 0.0
C2223 C 0.59435 0.68199 0.34343 0.0
O2224 O 0.60465 0.69607 0.33022 0.0
O2225 O 0.61244 0.69374 0.33864 0.0
O2226 O 0.60044 0.68365 0.34648 0.0
O2227 O 0.59231 0.68664 0.33859 0.0
H2228 H 0.61036 0.68019 0.3341 0.0
H2229 H 0.61598 0.6706 0.32731 0.0
H2230 H 0.62476 0.68606 0.31267 0.0
H2231 H 0.61915 0.69573 0.31959 0.0
H2232 H 0.60471 0.72757 0.33998 0.0
H2233 H 0.6006 0.71528 0.33827 0.0
H2234 H 0.60463 0.7244 0.36281 0.0
H2235 H 0.6005 0.71216 0.36109 0.0
H2236 H 0.58372 0.67865 0.36561 0.0
H2237 H 0.57449 0.66797 0.3474 0.0
H2238 H 0.58341 0.6735 0.33965 0.0
H2239 H 0.59262 0.68421 0.35784 0.0
C2240 C 0.93638 0.57119 0.64834 0.0
C2241 C 0.93641 0.5778 0.65184 0.0
C2242 C 0.94576 0.58209 0.64391 0.0
C2243 C 0.94105 0.58319 0.64965 0.0
C2244 C 0.94577 0.57541 0.64047 0.0
C2245 C 0.94111 0.57 0.64267 0.0
U2246 U 0.92072 0.56616 0.65972 0.0
O2247 O 0.91075 0.56048 0.65721 0.0
O2248 O 0.91789 0.55641 0.66556 0.0
C2249 C 0.91217 0.55526 0.66166 0.0
C2250 C 0.93118 0.56572 0.65044 0.0
C2251 C 0.91121 0.54798 0.65884 0.0
C2252 C 0.90317 0.53874 0.65459 0.0
C2253 C 0.90433 0.5457 0.65697 0.0
C2254 C 0.91578 0.53619 0.65586 0.0
C2255 C 0.90886 0.53388 0.65407 0.0
C2256 C 0.91695 0.54319 0.65819 0.0
C2257 C 0.91375 0.58065 0.67246 0.0
C2258 C 0.9017 0.58303 0.67665 0.0
C2259 C 0.91184 0.58746 0.68333 0.0
C2260 C 0.91646 0.58438 0.67836 0.0
C2261 C 0.90441 0.58693 0.68246 0.0
C2262 C 0.90633 0.57989 0.67171 0.0
C2263 C 0.91876 0.57794 0.66703 0.0
O2264 O 0.93182 0.56338 0.65703 0.0
O2265 O 0.92456 0.56721 0.64869 0.0
O2266 O 0.91614 0.5769 0.66061 0.0
O2267 O 0.9231 0.57283 0.66911 0.0
H2268 H 0.93275 0.57883 0.6562 0.0
H2269 H 0.94078 0.5883 0.65234 0.0
H2270 H 0.94937 0.57437 0.63607 0.0
H2271 H 0.94113 0.56492 0.6399 0.0
H2272 H 0.89777 0.5371 0.65334 0.0
H2273 H 0.89983 0.5493 0.65746 0.0
H2274 H 0.92029 0.53259 0.65544 0.0
H2275 H 0.92233 0.54482 0.65955 0.0
H2276 H 0.89599 0.58247 0.67589 0.0
H2277 H 0.91409 0.5905 0.6877 0.0
H2278 H 0.92217 0.58504 0.67903 0.0
H2279 H 0.90409 0.57699 0.66724 0.0
C2280 C 0.6886 0.68319 0.8958 0.0
C2281 C 0.6815 0.68156 0.89751 0.0
C2282 C 0.67733 0.69112 0.8898 0.0
C2283 C 0.67592 0.68546 0.89452 0.0
C2284 C 0.68446 0.69289 0.88826 0.0
C2285 C 0.69007 0.68892 0.89122 0.0
U2286 U 0.69438 0.66921 0.90889 0.0
O2287 O 0.7007 0.65942 0.90749 0.0
O2288 O 0.70418 0.66761 0.91514 0.0
C2289 C 0.70575 0.6616 0.91185 0.0
C2290 C 0.6944 0.67876 0.89868 0.0
C2291 C 0.7131 0.66083 0.90916 0.0
C2292 C 0.72442 0.66582 0.90524 0.0
C2293 C 0.71741 0.66678 0.90764 0.0
C2294 C 0.72283 0.653 0.90572 0.0
C2295 C 0.7272 0.65892 0.90426 0.0
C2296 C 0.71586 0.65395 0.90817 0.0
C2297 C 0.68001 0.6622 0.92164 0.0
C2298 C 0.67935 0.65045 0.92709 0.0
C2299 C 0.67226 0.66017 0.93182 0.0
C2300 C 0.67509 0.66475 0.92666 0.0
C2301 C 0.67427 0.65295 0.93201 0.0
C2302 C 0.68223 0.65505 0.92196 0.0
C2303 C 0.6825 0.667 0.91595 0.0
O2304 O 0.69632 0.68023 0.90526 0.0
O2305 O 0.69362 0.67189 0.89751 0.0
O2306 O 0.68394 0.66398 0.90979 0.0
O2307 O 0.68722 0.67183 0.91785 0.0
H2308 H 0.68027 0.67719 0.9011 0.0
H2309 H 0.67048 0.68405 0.8959 0.0
H2310 H 0.68568 0.69722 0.88463 0.0
H2311 H 0.69552 0.69025 0.88986 0.0
H2312 H 0.72764 0.67048 0.90409 0.0
H2313 H 0.71538 0.67215 0.90831 0.0
H2314 H 0.72485 0.64762 0.9051 0.0
H2315 H 0.71263 0.6493 0.90933 0.0
H2316 H 0.68105 0.64492 0.92716 0.0
H2317 H 0.6683 0.66224 0.93549 0.0
H2318 H 0.67332 0.67025 0.92649 0.0
H2319 H 0.68608 0.65298 0.91818 0.0
C2320 C 0.57864 0.43878 0.14446 0.0
C2321 C 0.58038 0.43163 0.14579 0.0
C2322 C 0.57069 0.42772 0.13809 0.0
C2323 C 0.57646 0.42615 0.14262 0.0
C2324 C 0.56886 0.4349 0.13687 0.0
C2325 C 0.57284 0.4404 0.14002 0.0
U2326 U 0.59227 0.44418 0.15812 0.0
O2327 O 0.60175 0.45101 0.15743 0.0
O2328 O 0.59322 0.45365 0.16502 0.0
C2329 C 0.59925 0.45565 0.16207 0.0
C2330 C 0.5829 0.44449 0.14774 0.0
C2331 C 0.59965 0.46316 0.15988 0.0
C2332 C 0.59805 0.47251 0.15106 0.0
C2333 C 0.5973 0.46538 0.15313 0.0
C2334 C 0.60335 0.47527 0.16253 0.0
C2335 C 0.60112 0.47753 0.15573 0.0
C2336 C 0.60263 0.46815 0.16458 0.0
C2337 C 0.59958 0.42949 0.17032 0.0
C2338 C 0.61139 0.42817 0.17556 0.0
C2339 C 0.60122 0.42234 0.18101 0.0
C2340 C 0.59677 0.42518 0.17575 0.0
C2341 C 0.6086 0.42371 0.18091 0.0
C2342 C 0.60692 0.43107 0.17033 0.0
C2343 C 0.59483 0.43204 0.16459 0.0
O2344 O 0.58126 0.44598 0.15439 0.0
O2345 O 0.58982 0.44395 0.14667 0.0
O2346 O 0.59792 0.43393 0.15859 0.0
O2347 O 0.5897 0.43641 0.16657 0.0
H2348 H 0.5848 0.43027 0.14927 0.0
H2349 H 0.57791 0.42068 0.14377 0.0
H2350 H 0.56445 0.43626 0.1334 0.0
H2351 H 0.57141 0.4459 0.13896 0.0
H2352 H 0.59621 0.4741 0.14582 0.0
H2353 H 0.59495 0.46158 0.14945 0.0
H2354 H 0.60583 0.47897 0.16621 0.0
H2355 H 0.60449 0.46651 0.1698 0.0
H2356 H 0.61705 0.42936 0.17539 0.0
H2357 H 0.59893 0.41887 0.18501 0.0
H2358 H 0.59113 0.4239 0.17583 0.0
H2359 H 0.60923 0.43443 0.16625 0.0
C2360 C 0.82014 0.32542 0.39679 0.0
C2361 C 0.8255 0.32236 0.40104 0.0
C2362 C 0.83086 0.31688 0.39056 0.0
C2363 C 0.83078 0.31809 0.39797 0.0
C2364 C 0.82542 0.31985 0.38634 0.0
C2365 C 0.82009 0.32407 0.38943 0.0
U2366 U 0.81577 0.34004 0.40998 0.0
O2367 O 0.80974 0.35001 0.40875 0.0
O2368 O 0.80628 0.34204 0.41662 0.0
C2369 C 0.80482 0.34808 0.41337 0.0
C2370 C 0.81491 0.33042 0.39986 0.0
C2371 C 0.79739 0.34894 0.41102 0.0
C2372 C 0.78811 0.34786 0.40203 0.0
C2373 C 0.79518 0.34679 0.4042 0.0
C2374 C 0.78539 0.3531 0.41354 0.0
C2375 C 0.78314 0.35105 0.40668 0.0
C2376 C 0.79245 0.35206 0.41568 0.0
C2377 C 0.83067 0.34653 0.42235 0.0
C2378 C 0.83238 0.35838 0.42737 0.0
C2379 C 0.83802 0.34815 0.4329 0.0
C2380 C 0.83498 0.34369 0.42776 0.0
C2381 C 0.83684 0.35555 0.43269 0.0
C2382 C 0.82929 0.35391 0.42226 0.0
C2383 C 0.82791 0.34178 0.41672 0.0
O2384 O 0.81299 0.32918 0.4065 0.0
O2385 O 0.81623 0.33719 0.3986 0.0
O2386 O 0.82645 0.3448 0.41057 0.0
O2387 O 0.82307 0.33711 0.41874 0.0
H2388 H 0.82571 0.32341 0.40672 0.0
H2389 H 0.83496 0.31596 0.40135 0.0
H2390 H 0.82533 0.31898 0.38062 0.0
H2391 H 0.81603 0.32642 0.38605 0.0
H2392 H 0.78651 0.34616 0.39674 0.0
H2393 H 0.79892 0.34432 0.40054 0.0
H2394 H 0.78172 0.35565 0.41721 0.0
H2395 H 0.79408 0.35376 0.42096 0.0
H2396 H 0.83133 0.36406 0.42712 0.0
H2397 H 0.84149 0.34582 0.4369 0.0
H2398 H 0.83611 0.33802 0.42792 0.0
H2399 H 0.82592 0.35624 0.41819 0.0
C2400 C 0.93493 0.43942 0.8631 0.0
C2401 C 0.93549 0.43294 0.8594 0.0
C2402 C 0.94473 0.4289 0.86758 0.0
C2403 C 0.94034 0.42775 0.8616 0.0
C2404 C 0.94414 0.4354 0.87131 0.0
C2405 C 0.93928 0.44063 0.86907 0.0
U2406 U 0.91888 0.44363 0.85197 0.0
O2407 O 0.90909 0.4497 0.85416 0.0
O2408 O 0.91607 0.45287 0.84529 0.0
C2409 C 0.91044 0.45444 0.84916 0.0
C2410 C 0.92964 0.44474 0.86084 0.0
C2411 C 0.90976 0.46196 0.85128 0.0
C2412 C 0.91149 0.47159 0.85979 0.0
C2413 C 0.91239 0.46443 0.85784 0.0
C2414 C 0.90547 0.47386 0.84858 0.0
C2415 C 0.908 0.47638 0.85517 0.0
C2416 C 0.90633 0.46672 0.84666 0.0
C2417 C 0.9114 0.42817 0.84084 0.0
C2418 C 0.90306 0.42926 0.83096 0.0
C2419 C 0.90508 0.41775 0.83649 0.0
C2420 C 0.90994 0.42086 0.8412 0.0
C2421 C 0.90159 0.42191 0.83131 0.0
C2422 C 0.9079 0.43238 0.83572 0.0
C2423 C 0.91658 0.43124 0.84586 0.0
O2424 O 0.93003 0.4466 0.85409 0.0
O2425 O 0.92308 0.44342 0.86294 0.0
O2426 O 0.91403 0.43294 0.85216 0.0
O2427 O 0.92096 0.43607 0.84325 0.0
H2428 H 0.93211 0.43188 0.85483 0.0
H2429 H 0.94055 0.42275 0.8587 0.0
H2430 H 0.94746 0.43646 0.87592 0.0
H2431 H 0.93889 0.44559 0.87201 0.0
H2432 H 0.91356 0.47339 0.86487 0.0
H2433 H 0.9151 0.46084 0.86147 0.0
H2434 H 0.90268 0.47739 0.84494 0.0
H2435 H 0.90427 0.46489 0.84158 0.0
H2436 H 0.90041 0.43261 0.82706 0.0
H2437 H 0.90416 0.41206 0.83683 0.0
H2438 H 0.9126 0.41753 0.84511 0.0
H2439 H 0.90892 0.43806 0.8354 0.0
C2440 C 0.82106 0.68673 0.11175 0.0
C2441 C 0.8249 0.69063 0.10663 0.0
C2442 C 0.83216 0.69602 0.11596 0.0
C2443 C 0.83035 0.69526 0.10872 0.0
C2444 C 0.82811 0.69233 0.12109 0.0
C2445 C 0.82261 0.68774 0.119 0.0
U2446 U 0.8168 0.67064 0.1004 0.0
O2447 O 0.81166 0.66044 0.10315 0.0
O2448 O 0.80716 0.66721 0.0947 0.0
C2449 C 0.80632 0.66153 0.09872 0.0
C2450 C 0.81595 0.68114 0.1096 0.0
C2451 C 0.79913 0.66041 0.10169 0.0
C2452 C 0.78759 0.66491 0.10556 0.0
C2453 C 0.79453 0.66615 0.10311 0.0
C2454 C 0.78986 0.65218 0.10545 0.0
C2455 C 0.78517 0.6579 0.1067 0.0
C2456 C 0.79677 0.65342 0.10294 0.0
C2457 C 0.8313 0.66418 0.08757 0.0
C2458 C 0.83239 0.65218 0.08276 0.0
C2459 C 0.83916 0.66187 0.07753 0.0
C2460 C 0.83615 0.66662 0.08244 0.0
C2461 C 0.83739 0.65458 0.07771 0.0
C2462 C 0.82934 0.65695 0.08763 0.0
C2463 C 0.82855 0.6692 0.09294 0.0
O2464 O 0.81339 0.68156 0.10308 0.0
O2465 O 0.81784 0.67462 0.11139 0.0
O2466 O 0.82775 0.66661 0.09941 0.0
O2467 O 0.82321 0.67325 0.09089 0.0
H2468 H 0.82385 0.68995 0.10098 0.0
H2469 H 0.83326 0.69812 0.10463 0.0
H2470 H 0.8294 0.69272 0.12671 0.0
H2471 H 0.81974 0.68476 0.12304 0.0
H2472 H 0.78412 0.66942 0.10656 0.0
H2473 H 0.79627 0.6716 0.10225 0.0
H2474 H 0.78812 0.64672 0.10621 0.0
H2475 H 0.80024 0.64892 0.10188 0.0
H2476 H 0.83087 0.64661 0.08297 0.0
H2477 H 0.84305 0.66387 0.07376 0.0
H2478 H 0.83772 0.67218 0.08231 0.0
H2479 H 0.82554 0.65496 0.09151 0.0
C2480 C 0.57568 0.57073 0.36531 0.0
C2481 C 0.57205 0.57569 0.36102 0.0
C2482 C 0.56699 0.58133 0.37156 0.0
C2483 C 0.56772 0.58091 0.36411 0.0
C2484 C 0.57052 0.57628 0.37584 0.0
C2485 C 0.5748 0.57101 0.37274 0.0
U2486 U 0.59066 0.56692 0.35237 0.0
O2487 O 0.60062 0.56086 0.35358 0.0
O2488 O 0.59289 0.55777 0.34533 0.0
C2489 C 0.59885 0.55618 0.34867 0.0
C2490 C 0.58078 0.56561 0.36217 0.0
C2491 C 0.59973 0.54864 0.35065 0.0
C2492 C 0.59856 0.53892 0.35914 0.0
C2493 C 0.59743 0.54607 0.3573 0.0
C2494 C 0.60414 0.53684 0.34766 0.0
C2495 C 0.60195 0.53423 0.35434 0.0
C2496 C 0.60305 0.54399 0.34584 0.0
C2497 C 0.59739 0.58254 0.34109 0.0
C2498 C 0.60519 0.5815 0.33077 0.0
C2499 C 0.60385 0.59288 0.33676 0.0
C2500 C 0.5991 0.58979 0.34159 0.0
C2501 C 0.60696 0.58877 0.33131 0.0
C2502 C 0.60047 0.57839 0.33566 0.0
C2503 C 0.59252 0.57943 0.34639 0.0
O2504 O 0.57973 0.56393 0.35544 0.0
O2505 O 0.58751 0.56685 0.36369 0.0
O2506 O 0.59551 0.5776 0.35246 0.0
O2507 O 0.58793 0.57468 0.34401 0.0
H2508 H 0.57271 0.57567 0.35528 0.0
H2509 H 0.56515 0.58479 0.36068 0.0
H2510 H 0.57003 0.57645 0.3816 0.0
H2511 H 0.57758 0.56725 0.37615 0.0
H2512 H 0.59674 0.53704 0.36429 0.0
H2513 H 0.59482 0.54959 0.36106 0.0
H2514 H 0.60684 0.5334 0.34388 0.0
H2515 H 0.60486 0.5459 0.3407 0.0
H2516 H 0.60754 0.57819 0.32665 0.0
H2517 H 0.60502 0.59852 0.33725 0.0
H2518 H 0.59678 0.59307 0.34575 0.0
H2519 H 0.59925 0.57275 0.33522 0.0
C2520 C 0.68976 0.32596 0.61466 0.0
C2521 C 0.68479 0.32229 0.61043 0.0
C2522 C 0.67876 0.31792 0.62107 0.0
C2523 C 0.67937 0.31826 0.6136 0.0
C2524 C 0.68381 0.32153 0.62529 0.0
C2525 C 0.68928 0.3255 0.62211 0.0
U2526 U 0.6947 0.33923 0.60034 0.0
O2527 O 0.70067 0.34931 0.60082 0.0
O2528 O 0.70443 0.34062 0.59391 0.0
C2529 C 0.70576 0.34696 0.5966 0.0
C2530 C 0.69513 0.33069 0.61139 0.0
C2531 C 0.7131 0.34808 0.59913 0.0
C2532 C 0.72214 0.34752 0.6084 0.0
C2533 C 0.71513 0.3463 0.60611 0.0
C2534 C 0.72513 0.35219 0.59673 0.0
C2535 C 0.72722 0.35048 0.60373 0.0
C2536 C 0.71813 0.351 0.59446 0.0
C2537 C 0.6801 0.34413 0.58676 0.0
C2538 C 0.67687 0.35529 0.58095 0.0
C2539 C 0.67379 0.34402 0.57543 0.0
C2540 C 0.677 0.34037 0.58108 0.0
C2541 C 0.67353 0.35152 0.57537 0.0
C2542 C 0.68013 0.35163 0.58658 0.0
C2543 C 0.68283 0.34013 0.59297 0.0
O2544 O 0.6974 0.32882 0.60501 0.0
O2545 O 0.69373 0.33754 0.61192 0.0
O2546 O 0.68404 0.34384 0.59881 0.0
O2547 O 0.68778 0.33534 0.59165 0.0
H2548 H 0.68498 0.32265 0.60466 0.0
H2549 H 0.6755 0.31564 0.6102 0.0
H2550 H 0.68349 0.32133 0.63106 0.0
H2551 H 0.69303 0.32833 0.62547 0.0
H2552 H 0.7236 0.34608 0.6138 0.0
H2553 H 0.71131 0.34398 0.60978 0.0
H2554 H 0.72888 0.35456 0.59303 0.0
H2555 H 0.71664 0.35241 0.58905 0.0
H2556 H 0.67671 0.36106 0.58113 0.0
H2557 H 0.67139 0.34095 0.57116 0.0
H2558 H 0.67693 0.33459 0.58109 0.0
H2559 H 0.68249 0.35469 0.59087 0.0
C2560 C 0.64615 0.93604 0.56995 0.0
C2561 C 0.64942 0.94273 0.57093 0.0
C2562 C 0.64136 0.94545 0.58076 0.0
C2563 C 0.64707 0.94736 0.57627 0.0
C2564 C 0.63786 0.93893 0.57954 0.0
C2565 C 0.64021 0.93429 0.57418 0.0
U2566 U 0.65952 0.92149 0.56552 0.0
O2567 O 0.65837 0.91125 0.55991 0.0
O2568 O 0.66585 0.91932 0.55587 0.0
C2569 C 0.66274 0.91314 0.55476 0.0
C2570 C 0.64908 0.93079 0.56479 0.0
C2571 C 0.66015 0.91194 0.54745 0.0
C2572 C 0.65093 0.91274 0.53837 0.0
C2573 C 0.65325 0.91397 0.54537 0.0
C2574 C 0.66242 0.90754 0.53549 0.0
C2575 C 0.6555 0.90952 0.53336 0.0
C2576 C 0.66472 0.90874 0.54248 0.0
C2577 C 0.67291 0.91651 0.58028 0.0
C2578 C 0.67853 0.90519 0.58327 0.0
C2579 C 0.68389 0.91629 0.58717 0.0
C2580 C 0.67842 0.9201 0.58384 0.0
C2581 C 0.68393 0.90878 0.58707 0.0
C2582 C 0.67308 0.90902 0.5799 0.0
C2583 C 0.66689 0.92068 0.57739 0.0
O2584 O 0.65554 0.93208 0.56237 0.0
O2585 O 0.64809 0.92403 0.56642 0.0
O2586 O 0.66087 0.91722 0.57634 0.0
O2587 O 0.66845 0.92517 0.57223 0.0
H2588 H 0.65393 0.94432 0.56768 0.0
H2589 H 0.64979 0.95241 0.57697 0.0
H2590 H 0.63347 0.93726 0.58291 0.0
H2591 H 0.6375 0.92923 0.57351 0.0
H2592 H 0.64559 0.91438 0.53687 0.0
H2593 H 0.64967 0.9165 0.54914 0.0
H2594 H 0.66604 0.90497 0.53179 0.0
H2595 H 0.67006 0.90714 0.54401 0.0
H2596 H 0.67835 0.89942 0.58313 0.0
H2597 H 0.68803 0.91923 0.58992 0.0
H2598 H 0.67841 0.92588 0.58417 0.0
H2599 H 0.6689 0.90611 0.57715 0.0
C2600 C 0.14658 0.57635 0.43853 0.0
C2601 C 0.15012 0.57625 0.43194 0.0
C2602 C 0.14197 0.56713 0.42757 0.0
C2603 C 0.14784 0.57169 0.42652 0.0
C2604 C 0.1384 0.56728 0.43418 0.0
C2605 C 0.14071 0.57186 0.43963 0.0
U2606 U 0.15948 0.59055 0.44389 0.0
O2607 O 0.15835 0.60058 0.44984 0.0
O2608 O 0.16577 0.59232 0.45366 0.0
C2609 C 0.16272 0.59851 0.45493 0.0
C2610 C 0.14909 0.5812 0.44415 0.0
C2611 C 0.1604 0.59981 0.46232 0.0
C2612 C 0.15126 0.60269 0.47107 0.0
C2613 C 0.15318 0.60067 0.46414 0.0
C2614 C 0.16372 0.60268 0.47451 0.0
C2615 C 0.15653 0.60387 0.47629 0.0
C2616 C 0.16563 0.6007 0.46759 0.0
C2617 C 0.17295 0.59629 0.42943 0.0
C2618 C 0.17744 0.607 0.4236 0.0
C2619 C 0.18544 0.59714 0.42596 0.0
C2620 C 0.17983 0.59333 0.42907 0.0
C2621 C 0.18428 0.60397 0.42308 0.0
C2622 C 0.17183 0.60319 0.42671 0.0
C2623 C 0.1669 0.59194 0.43209 0.0
O2624 O 0.15554 0.57982 0.44653 0.0
O2625 O 0.14807 0.58801 0.4428 0.0
O2626 O 0.16085 0.5953 0.43326 0.0
O2627 O 0.1684 0.58718 0.43703 0.0
H2628 H 0.15464 0.57972 0.43099 0.0
H2629 H 0.15062 0.57183 0.42146 0.0
H2630 H 0.13389 0.56381 0.43516 0.0
H2631 H 0.13792 0.57188 0.44469 0.0
H2632 H 0.14567 0.60359 0.47227 0.0
H2633 H 0.14904 0.59999 0.46017 0.0
H2634 H 0.1679 0.60341 0.47843 0.0
H2635 H 0.17123 0.60003 0.4663 0.0
H2636 H 0.17633 0.6122 0.42133 0.0
H2637 H 0.19067 0.59468 0.42572 0.0
H2638 H 0.18086 0.588 0.43105 0.0
H2639 H 0.16658 0.60561 0.42681 0.0
C2640 C 0.68223 0.89308 0.68812 0.0
C2641 C 0.68012 0.89401 0.681 0.0
C2642 C 0.68991 0.88648 0.67699 0.0
C2643 C 0.6839 0.89071 0.6755 0.0
C2644 C 0.69208 0.88564 0.68413 0.0
C2645 C 0.68824 0.8889 0.68966 0.0
U2646 U 0.67008 0.90801 0.69369 0.0
O2647 O 0.66039 0.90829 0.70024 0.0
O2648 O 0.66969 0.91474 0.70334 0.0
C2649 C 0.66328 0.91248 0.70507 0.0
C2650 C 0.67824 0.89665 0.69387 0.0
C2651 C 0.6622 0.91037 0.71256 0.0
C2652 C 0.65935 0.90146 0.72155 0.0
C2653 C 0.66121 0.90321 0.71453 0.0
C2654 C 0.65982 0.91397 0.72477 0.0
C2655 C 0.65848 0.90684 0.72672 0.0
C2656 C 0.66164 0.91571 0.71776 0.0
C2657 C 0.66451 0.92123 0.67895 0.0
C2658 C 0.65379 0.92641 0.67374 0.0
C2659 C 0.66447 0.93357 0.67487 0.0
C2660 C 0.66802 0.92779 0.67797 0.0
C2661 C 0.65734 0.93292 0.67262 0.0
C2662 C 0.65733 0.92063 0.67685 0.0
C2663 C 0.66851 0.91496 0.68163 0.0
O2664 O 0.68057 0.90304 0.69559 0.0
O2665 O 0.67125 0.89636 0.69324 0.0
O2666 O 0.66472 0.90931 0.68335 0.0
O2667 O 0.67373 0.91624 0.68614 0.0
H2668 H 0.67556 0.89731 0.67968 0.0
H2669 H 0.68218 0.89158 0.67005 0.0
H2670 H 0.6967 0.88241 0.68543 0.0
H2671 H 0.68997 0.88818 0.69513 0.0
H2672 H 0.65832 0.89593 0.72284 0.0
H2673 H 0.66164 0.89898 0.71061 0.0
H2674 H 0.65935 0.91823 0.72864 0.0
H2675 H 0.66242 0.92126 0.71635 0.0
H2676 H 0.64833 0.92568 0.67196 0.0
H2677 H 0.66735 0.93853 0.67416 0.0
H2678 H 0.67357 0.92841 0.67947 0.0
H2679 H 0.65448 0.91564 0.67743 0.0
C2680 C 0.36364 0.43494 0.94032 0.0
C2681 C 0.35882 0.43934 0.93663 0.0
C2682 C 0.36842 0.4438 0.9291 0.0
C2683 C 0.36119 0.44375 0.93112 0.0
C2684 C 0.37329 0.4396 0.93299 0.0
C2685 C 0.37091 0.43522 0.93855 0.0
U2686 U 0.35077 0.42016 0.94466 0.0
O2687 O 0.3523 0.40975 0.94991 0.0
O2688 O 0.3446 0.41747 0.95425 0.0
C2689 C 0.34799 0.41139 0.9552 0.0
C2690 C 0.36106 0.42958 0.94549 0.0
C2691 C 0.35081 0.41009 0.96242 0.0
C2692 C 0.35506 0.41436 0.97391 0.0
C2693 C 0.35268 0.41574 0.96698 0.0
C2694 C 0.35394 0.40166 0.97176 0.0
C2695 C 0.35568 0.40731 0.97639 0.0
C2696 C 0.35151 0.40305 0.96485 0.0
C2697 C 0.33741 0.4157 0.9297 0.0
C2698 C 0.32898 0.40584 0.9299 0.0
C2699 C 0.3291 0.41406 0.91992 0.0
C2700 C 0.33464 0.41787 0.92312 0.0
C2701 C 0.3262 0.408 0.92326 0.0
C2702 C 0.33454 0.40968 0.93311 0.0
C2703 C 0.34336 0.41974 0.93279 0.0
O2704 O 0.35465 0.43067 0.94815 0.0
O2705 O 0.36215 0.42291 0.94359 0.0
O2706 O 0.34931 0.41616 0.93374 0.0
O2707 O 0.34175 0.42394 0.93816 0.0
H2708 H 0.35317 0.43923 0.93784 0.0
H2709 H 0.35732 0.44702 0.92834 0.0
H2710 H 0.37888 0.43945 0.93154 0.0
H2711 H 0.37472 0.43184 0.94129 0.0
H2712 H 0.35644 0.41881 0.97734 0.0
H2713 H 0.35226 0.42123 0.9652 0.0
H2714 H 0.3543 0.39618 0.97353 0.0
H2715 H 0.35009 0.39862 0.96142 0.0
H2716 H 0.32683 0.40122 0.93262 0.0
H2717 H 0.3272 0.4158 0.91475 0.0
H2718 H 0.33682 0.42249 0.92041 0.0
H2719 H 0.33663 0.40794 0.93821 0.0
C2720 C 0.32781 0.6149 0.68854 0.0
C2721 C 0.32983 0.61357 0.68147 0.0
C2722 C 0.32041 0.6214 0.67718 0.0
C2723 C 0.32619 0.6168 0.67584 0.0
C2724 C 0.31829 0.62263 0.68428 0.0
C2725 C 0.322 0.61942 0.68993 0.0
U2726 U 0.34083 0.60087 0.69432 0.0
O2727 O 0.35021 0.60125 0.70133 0.0
O2728 O 0.34138 0.59395 0.70381 0.0
C2729 C 0.34748 0.5967 0.70592 0.0
C2730 C 0.33178 0.61154 0.69441 0.0
C2731 C 0.34786 0.59886 0.71344 0.0
C2732 C 0.34667 0.60778 0.72277 0.0
C2733 C 0.34582 0.60572 0.71564 0.0
C2734 C 0.3514 0.59607 0.72557 0.0
C2735 C 0.34953 0.603 0.7278 0.0
C2736 C 0.35058 0.59403 0.71846 0.0
C2737 C 0.34802 0.5886 0.67956 0.0
C2738 C 0.35963 0.58289 0.67852 0.0
C2739 C 0.34961 0.57844 0.67166 0.0
C2740 C 0.34523 0.58368 0.67466 0.0
C2741 C 0.35689 0.57807 0.67346 0.0
C2742 C 0.35523 0.58809 0.68157 0.0
C2743 C 0.34341 0.59441 0.68218 0.0
O2744 O 0.3299 0.60495 0.69587 0.0
O2745 O 0.33874 0.6124 0.69409 0.0
O2746 O 0.34666 0.60029 0.68419 0.0
O2747 O 0.33819 0.59251 0.68647 0.0
H2748 H 0.33425 0.61003 0.68029 0.0
H2749 H 0.32786 0.61565 0.67043 0.0
H2750 H 0.31387 0.62615 0.68545 0.0
H2751 H 0.32035 0.62047 0.69537 0.0
H2752 H 0.3451 0.61312 0.72433 0.0
H2753 H 0.34368 0.6095 0.71183 0.0
H2754 H 0.35369 0.59229 0.72929 0.0
H2755 H 0.35219 0.58872 0.71684 0.0
H2756 H 0.3652 0.58268 0.68006 0.0
H2757 H 0.34736 0.57486 0.66772 0.0
H2758 H 0.33969 0.58399 0.67303 0.0
H2759 H 0.3575 0.59178 0.68539 0.0
C2760 C 0.8633 0.07391 0.07059 0.0
C2761 C 0.85874 0.06854 0.07317 0.0
C2762 C 0.86784 0.06462 0.08158 0.0
C2763 C 0.86099 0.06395 0.07859 0.0
C2764 C 0.87253 0.06975 0.07874 0.0
C2765 C 0.87029 0.07433 0.07329 0.0
U2766 U 0.85187 0.0901 0.06663 0.0
O2767 O 0.85401 0.09992 0.06061 0.0
O2768 O 0.84514 0.09294 0.05743 0.0
C2769 C 0.84906 0.09854 0.05583 0.0
C2770 C 0.86073 0.07934 0.06544 0.0
C2771 C 0.85108 0.09936 0.04824 0.0
C2772 C 0.85947 0.10314 0.03908 0.0
C2773 C 0.85792 0.1017 0.04623 0.0
C2774 C 0.84746 0.09971 0.03579 0.0
C2775 C 0.85422 0.10229 0.03378 0.0
C2776 C 0.8459 0.0983 0.04294 0.0
C2777 C 0.84095 0.0977 0.08216 0.0
C2778 C 0.83093 0.1059 0.08122 0.0
C2779 C 0.83703 0.1044 0.09252 0.0
C2780 C 0.84164 0.09946 0.08939 0.0
C2781 C 0.83161 0.10767 0.08849 0.0
C2782 C 0.83559 0.10098 0.07807 0.0
C2783 C 0.8459 0.09245 0.07906 0.0
O2784 O 0.85396 0.07895 0.06361 0.0
O2785 O 0.86285 0.08591 0.06669 0.0
O2786 O 0.85221 0.09494 0.07732 0.0
O2787 O 0.84321 0.08808 0.07427 0.0
H2788 H 0.85335 0.06799 0.07115 0.0
H2789 H 0.8573 0.05995 0.08054 0.0
H2790 H 0.87782 0.07046 0.08094 0.0
H2791 H 0.87394 0.07837 0.07136 0.0
H2792 H 0.86471 0.10519 0.03774 0.0
H2793 H 0.86203 0.10261 0.05019 0.0
H2794 H 0.84332 0.09888 0.03184 0.0
H2795 H 0.84058 0.09653 0.04434 0.0
H2796 H 0.82684 0.10836 0.07797 0.0
H2797 H 0.83763 0.10556 0.09815 0.0
H2798 H 0.84575 0.09698 0.09263 0.0
H2799 H 0.83501 0.09973 0.07246 0.0
C2800 C 0.68434 0.11334 0.82067 0.0
C2801 C 0.68459 0.10985 0.82728 0.0
C2802 C 0.69401 0.11784 0.83129 0.0
C2803 C 0.68937 0.11207 0.83253 0.0
C2804 C 0.69377 0.12131 0.82463 0.0
C2805 C 0.68897 0.11907 0.81935 0.0
U2806 U 0.66818 0.10239 0.81649 0.0
O2807 O 0.65827 0.1049 0.8107 0.0
O2808 O 0.66502 0.09597 0.80721 0.0
C2809 C 0.65945 0.10002 0.80581 0.0
C2810 C 0.679 0.11118 0.81536 0.0
C2811 C 0.65858 0.10237 0.79836 0.0
C2812 C 0.65065 0.10608 0.78881 0.0
C2813 C 0.65172 0.10407 0.7959 0.0
C2814 C 0.66331 0.10475 0.78652 0.0
C2815 C 0.65642 0.10639 0.78402 0.0
C2816 C 0.66439 0.10279 0.79364 0.0
C2817 C 0.66087 0.09112 0.83193 0.0
C2818 C 0.65247 0.08128 0.83095 0.0
C2819 C 0.65478 0.08671 0.84245 0.0
C2820 C 0.65958 0.09143 0.83928 0.0
C2821 C 0.65119 0.08157 0.83834 0.0
C2822 C 0.65726 0.08605 0.82776 0.0
C2823 C 0.66605 0.09612 0.82881 0.0
O2824 O 0.67932 0.10444 0.81341 0.0
O2825 O 0.67247 0.11331 0.81677 0.0
O2826 O 0.66354 0.10248 0.82727 0.0
O2827 O 0.67027 0.09351 0.82385 0.0
H2828 H 0.68099 0.10547 0.82841 0.0
H2829 H 0.6893 0.10937 0.83763 0.0
H2830 H 0.6973 0.12574 0.8235 0.0
H2831 H 0.68882 0.12184 0.81429 0.0
H2832 H 0.64527 0.10723 0.78702 0.0
H2833 H 0.64717 0.10377 0.79945 0.0
H2834 H 0.66787 0.10501 0.78298 0.0
H2835 H 0.66974 0.10155 0.79543 0.0
H2836 H 0.64975 0.07741 0.82763 0.0
H2837 H 0.65399 0.087 0.84817 0.0
H2838 H 0.66233 0.0953 0.84258 0.0
H2839 H 0.65816 0.08577 0.82206 0.0
C2840 C 0.82643 0.89788 0.32086 0.0
C2841 C 0.82674 0.90101 0.32764 0.0
C2842 C 0.81715 0.8933 0.33179 0.0
C2843 C 0.82217 0.89874 0.33305 0.0
C2844 C 0.81685 0.89017 0.32496 0.0
C2845 C 0.82146 0.89245 0.31953 0.0
U2846 U 0.84148 0.90994 0.31584 0.0
O2847 O 0.85136 0.90821 0.30978 0.0
O2848 O 0.84369 0.91636 0.30626 0.0
C2849 C 0.8496 0.91287 0.30483 0.0
C2850 C 0.8314 0.90026 0.3153 0.0
C2851 C 0.85043 0.9105 0.29741 0.0
C2852 C 0.84938 0.9015 0.28813 0.0
C2853 C 0.84835 0.90364 0.29521 0.0
C2854 C 0.85443 0.91308 0.28538 0.0
C2855 C 0.85244 0.9062 0.28314 0.0
C2856 C 0.85344 0.9152 0.29245 0.0
C2857 C 0.84817 0.92244 0.33063 0.0
C2858 C 0.86001 0.92753 0.33219 0.0
C2859 C 0.84986 0.93279 0.33823 0.0
C2860 C 0.84538 0.92769 0.33516 0.0
C2861 C 0.85724 0.9327 0.33686 0.0
C2862 C 0.85551 0.92245 0.32906 0.0
C2863 C 0.84338 0.91686 0.32785 0.0
O2864 O 0.83046 0.90688 0.31317 0.0
O2865 O 0.83813 0.89872 0.31654 0.0
O2866 O 0.84631 0.91064 0.32648 0.0
O2867 O 0.8388 0.91892 0.32295 0.0
H2868 H 0.83059 0.90518 0.32877 0.0
H2869 H 0.82267 0.90117 0.33827 0.0
H2870 H 0.81302 0.88599 0.32381 0.0
H2871 H 0.82115 0.88998 0.31432 0.0
H2872 H 0.84773 0.89619 0.28655 0.0
H2873 H 0.84597 0.89995 0.29897 0.0
H2874 H 0.85689 0.91679 0.28169 0.0
H2875 H 0.85508 0.9205 0.29406 0.0
H2876 H 0.86566 0.92737 0.33098 0.0
H2877 H 0.84758 0.93666 0.34187 0.0
H2878 H 0.83974 0.92776 0.33643 0.0
H2879 H 0.85778 0.91849 0.32553 0.0
C2880 C 0.44049 0.3624 0.07595 0.0
C2881 C 0.43378 0.35913 0.07628 0.0
C2882 C 0.42938 0.36688 0.06685 0.0
C2883 C 0.42828 0.36135 0.0718 0.0
C2884 C 0.43612 0.3702 0.06657 0.0
C2885 C 0.44165 0.36796 0.07109 0.0
U2886 U 0.44578 0.34968 0.09025 0.0
O2887 O 0.45537 0.34316 0.09204 0.0
O2888 O 0.4519 0.35085 0.10018 0.0
C2889 C 0.45683 0.34629 0.09814 0.0
C2890 C 0.44619 0.35991 0.08074 0.0
C2891 C 0.46425 0.34861 0.09908 0.0
C2892 C 0.47374 0.35731 0.09755 0.0
C2893 C 0.46665 0.35521 0.09648 0.0
C2894 C 0.47608 0.34619 0.10372 0.0
C2895 C 0.47854 0.35281 0.10119 0.0
C2896 C 0.46901 0.34412 0.10268 0.0
C2897 C 0.43073 0.33676 0.09596 0.0
C2898 C 0.42664 0.33183 0.10725 0.0
C2899 C 0.42405 0.32565 0.0962 0.0
C2900 C 0.42768 0.33093 0.0924 0.0
C2901 C 0.42333 0.32613 0.10365 0.0
C2902 C 0.4303 0.3371 0.10344 0.0
C2903 C 0.43376 0.34266 0.09169 0.0
O2904 O 0.44498 0.36108 0.08754 0.0
O2905 O 0.44844 0.3534 0.07943 0.0
O2906 O 0.43867 0.34089 0.08701 0.0
O2907 O 0.43515 0.34865 0.09507 0.0
H2908 H 0.43278 0.35485 0.08004 0.0
H2909 H 0.42313 0.35877 0.07227 0.0
H2910 H 0.43714 0.37446 0.0628 0.0
H2911 H 0.44681 0.37054 0.07077 0.0
H2912 H 0.47549 0.36241 0.09548 0.0
H2913 H 0.46304 0.35873 0.09365 0.0
H2914 H 0.4796 0.34265 0.10664 0.0
H2915 H 0.46723 0.33901 0.10472 0.0
H2916 H 0.42614 0.3324 0.11297 0.0
H2917 H 0.42168 0.32127 0.09327 0.0
H2918 H 0.42794 0.33055 0.08663 0.0
H2919 H 0.4326 0.34154 0.10634 0.0
C2920 C 0.39674 0.68994 0.82396 0.0
C2921 C 0.40016 0.68329 0.82406 0.0
C2922 C 0.39238 0.67899 0.81461 0.0
C2923 C 0.39801 0.67787 0.81945 0.0
C2924 C 0.38895 0.68568 0.81451 0.0
C2925 C 0.39113 0.69113 0.81916 0.0
U2926 U 0.40837 0.69475 0.83936 0.0
O2927 O 0.41492 0.70418 0.84181 0.0
O2928 O 0.40649 0.70079 0.84923 0.0
C2929 C 0.41132 0.70563 0.84765 0.0
C2930 C 0.39899 0.69548 0.82902 0.0
C2931 C 0.40915 0.71311 0.84854 0.0
C2932 C 0.40051 0.72271 0.84729 0.0
C2933 C 0.40248 0.71558 0.84619 0.0
C2934 C 0.41192 0.72496 0.85296 0.0
C2935 C 0.40522 0.72748 0.8507 0.0
C2936 C 0.41386 0.71785 0.85189 0.0
C2937 C 0.42051 0.67965 0.8462 0.0
C2938 C 0.42458 0.67624 0.85804 0.0
C2939 C 0.43171 0.67326 0.84768 0.0
C2940 C 0.42666 0.67652 0.84328 0.0
C2941 C 0.43067 0.673 0.8551 0.0
C2942 C 0.41955 0.67956 0.85364 0.0
C2943 C 0.41505 0.6826 0.84135 0.0
O2944 O 0.39723 0.69421 0.83569 0.0
O2945 O 0.40565 0.69757 0.8283 0.0
O2946 O 0.41727 0.68749 0.83683 0.0
O2947 O 0.40878 0.68406 0.84414 0.0
H2948 H 0.40446 0.68226 0.82779 0.0
H2949 H 0.40066 0.67275 0.81978 0.0
H2950 H 0.38462 0.68672 0.81082 0.0
H2951 H 0.38843 0.69623 0.81902 0.0
H2952 H 0.39535 0.72451 0.84543 0.0
H2953 H 0.39879 0.712 0.84355 0.0
H2954 H 0.41563 0.72845 0.85569 0.0
H2955 H 0.41902 0.71602 0.85374 0.0
H2956 H 0.42368 0.67617 0.86375 0.0
H2957 H 0.4363 0.67073 0.84525 0.0
H2958 H 0.42749 0.67648 0.83756 0.0
H2959 H 0.41488 0.68195 0.85605 0.0
C2960 C 0.07131 0.64508 0.57695 0.0
C2961 C 0.07835 0.64563 0.57947 0.0
C2962 C 0.08263 0.63866 0.5694 0.0
C2963 C 0.08394 0.64241 0.57576 0.0
C2964 C 0.07559 0.6382 0.56682 0.0
C2965 C 0.06997 0.64137 0.5706 0.0
U2966 U 0.06551 0.65933 0.58979 0.0
O2967 O 0.05604 0.66628 0.59017 0.0
O2968 O 0.05843 0.65909 0.59911 0.0
C2969 C 0.05387 0.66361 0.59628 0.0
C2970 C 0.06547 0.64856 0.58088 0.0
C2971 C 0.04634 0.66145 0.59661 0.0
C2972 C 0.03704 0.6525 0.59539 0.0
C2973 C 0.04417 0.65458 0.59458 0.0
C2974 C 0.03417 0.66422 0.60005 0.0
C2975 C 0.03197 0.65728 0.5982 0.0
C2976 C 0.04129 0.66627 0.59927 0.0
C2977 C 0.08025 0.67162 0.59697 0.0
C2978 C 0.08106 0.67753 0.60849 0.0
C2979 C 0.0882 0.68173 0.59857 0.0
C2980 C 0.08526 0.67645 0.59421 0.0
C2981 C 0.08623 0.68225 0.60579 0.0
C2982 C 0.07807 0.67228 0.60411 0.0
C2983 C 0.07766 0.66577 0.59239 0.0
O2984 O 0.06571 0.64777 0.58784 0.0
O2985 O 0.06405 0.65513 0.5789 0.0
O2986 O 0.07342 0.66762 0.58713 0.0
O2987 O 0.07561 0.65993 0.59569 0.0
H2988 H 0.07952 0.64857 0.58431 0.0
H2989 H 0.08932 0.64299 0.5778 0.0
H2990 H 0.07444 0.63533 0.56194 0.0
H2991 H 0.06458 0.64094 0.56855 0.0
H2992 H 0.0355 0.64715 0.59384 0.0
H2993 H 0.04801 0.6508 0.59248 0.0
H2994 H 0.03042 0.668 0.60231 0.0
H2995 H 0.04288 0.6716 0.60088 0.0
H2996 H 0.07938 0.67785 0.61401 0.0
H2997 H 0.09223 0.68524 0.59636 0.0
H2998 H 0.08701 0.67602 0.58872 0.0
H2999 H 0.07415 0.66866 0.60634 0.0
C3000 C 0.1151 0.32239 0.32792 0.0
C3001 C 0.11357 0.3295 0.32971 0.0
C3002 C 0.12115 0.33366 0.32004 0.0
C3003 C 0.1166 0.33508 0.32583 0.0
C3004 C 0.1225 0.32653 0.31812 0.0
C3005 C 0.11952 0.32092 0.32207 0.0
U3006 U 0.10187 0.31674 0.34178 0.0
O3007 O 0.09547 0.30703 0.34332 0.0
O3008 O 0.1031 0.31039 0.35157 0.0
C3009 C 0.09871 0.30539 0.34933 0.0
C3010 C 0.11215 0.3166 0.3323 0.0
C3011 C 0.10131 0.298 0.35012 0.0
C3012 C 0.10415 0.2863 0.34525 0.0
C3013 C 0.1019 0.29335 0.34426 0.0
C3014 C 0.1054 0.2885 0.35793 0.0
C3015 C 0.10591 0.2838 0.3521 0.0
C3016 C 0.1031 0.29551 0.35694 0.0
C3017 C 0.08923 0.33137 0.34862 0.0
C3018 C 0.08406 0.33309 0.3604 0.0
C3019 C 0.07862 0.33869 0.35009 0.0
C3020 C 0.08383 0.33565 0.34571 0.0
C3021 C 0.07875 0.33754 0.3575 0.0
C3022 C 0.08923 0.33 0.356 0.0
C3023 C 0.09495 0.32871 0.34393 0.0
O3024 O 0.11328 0.31733 0.33918 0.0
O3025 O 0.10555 0.31476 0.33078 0.0
O3026 O 0.09304 0.32402 0.33908 0.0
O3027 O 0.10106 0.32718 0.34702 0.0
H3028 H 0.11011 0.33074 0.33417 0.0
H3029 H 0.11536 0.34052 0.32735 0.0
H3030 H 0.12599 0.3253 0.31368 0.0
H3031 H 0.12072 0.31546 0.32061 0.0
H3032 H 0.10455 0.28281 0.34066 0.0
H3033 H 0.10059 0.29513 0.33892 0.0
H3034 H 0.10663 0.2867 0.36328 0.0
H3035 H 0.10265 0.29899 0.36154 0.0
H3036 H 0.08424 0.33206 0.36608 0.0
H3037 H 0.07466 0.34215 0.34771 0.0
H3038 H 0.08374 0.33678 0.34004 0.0
H3039 H 0.0933 0.32666 0.35838 0.0
C3040 C 0.43981 0.64675 0.43633 0.0
C3041 C 0.43465 0.65112 0.43956 0.0
C3042 C 0.42904 0.64072 0.44494 0.0
C3043 C 0.42934 0.64814 0.44386 0.0
C3044 C 0.4343 0.63638 0.44182 0.0
C3045 C 0.43966 0.63937 0.43756 0.0
U3046 U 0.44413 0.65991 0.42169 0.0
O3047 O 0.45369 0.66635 0.41944 0.0
O3048 O 0.44986 0.65856 0.41156 0.0
C3049 C 0.4549 0.6631 0.41334 0.0
C3050 C 0.44501 0.64973 0.43124 0.0
C3051 C 0.46227 0.66068 0.4122 0.0
C3052 C 0.47158 0.65169 0.4131 0.0
C3053 C 0.46455 0.65389 0.41439 0.0
C3054 C 0.47411 0.66308 0.40753 0.0
C3055 C 0.47644 0.65627 0.40966 0.0
C3056 C 0.46709 0.66526 0.40879 0.0
C3057 C 0.42934 0.67259 0.41565 0.0
C3058 C 0.42849 0.67823 0.40401 0.0
C3059 C 0.42123 0.68252 0.41381 0.0
C3060 C 0.42424 0.67738 0.41829 0.0
C3061 C 0.42323 0.68293 0.40659 0.0
C3062 C 0.43155 0.67313 0.40851 0.0
C3063 C 0.43208 0.66691 0.42033 0.0
O3064 O 0.44351 0.64852 0.4245 0.0
O3065 O 0.44711 0.65632 0.43246 0.0
O3066 O 0.43711 0.66881 0.42484 0.0
O3067 O 0.43334 0.66074 0.41723 0.0
H3068 H 0.43459 0.65682 0.4386 0.0
H3069 H 0.4253 0.65161 0.4461 0.0
H3070 H 0.43422 0.63065 0.44259 0.0
H3071 H 0.44357 0.63591 0.43509 0.0
H3072 H 0.47324 0.64644 0.41487 0.0
H3073 H 0.4609 0.6503 0.41707 0.0
H3074 H 0.47767 0.6667 0.40478 0.0
H3075 H 0.46541 0.67051 0.40705 0.0
H3076 H 0.4302 0.67847 0.39849 0.0
H3077 H 0.41714 0.68602 0.41593 0.0
H3078 H 0.42248 0.67704 0.42378 0.0
H3079 H 0.43554 0.66952 0.40638 0.0
C3080 C 0.11324 0.69003 0.1861 0.0
C3081 C 0.10976 0.6834 0.18606 0.0
C3082 C 0.11739 0.67919 0.19568 0.0
C3083 C 0.1118 0.67805 0.1908 0.0
C3084 C 0.12089 0.68584 0.19571 0.0
C3085 C 0.11881 0.69123 0.19095 0.0
U3086 U 0.10255 0.69442 0.16992 0.0
O3087 O 0.09575 0.70357 0.16709 0.0
O3088 O 0.10483 0.70064 0.16027 0.0
C3089 C 0.09973 0.70529 0.16158 0.0
C3090 C 0.11111 0.6955 0.18092 0.0
C3091 C 0.10176 0.71285 0.16106 0.0
C3092 C 0.11022 0.7225 0.16291 0.0
C3093 C 0.1083 0.71533 0.16374 0.0
C3094 C 0.099 0.72479 0.15689 0.0
C3095 C 0.1056 0.7273 0.15944 0.0
C3096 C 0.09711 0.71763 0.15769 0.0
C3097 C 0.09198 0.67864 0.16212 0.0
C3098 C 0.08198 0.67927 0.15389 0.0
C3099 C 0.08804 0.66802 0.15587 0.0
C3100 C 0.09267 0.67135 0.16066 0.0
C3101 C 0.08261 0.67192 0.15247 0.0
C3102 C 0.08666 0.68262 0.15866 0.0
C3103 C 0.09682 0.6819 0.16737 0.0
O3104 O 0.11342 0.69437 0.17439 0.0
O3105 O 0.10433 0.69728 0.18116 0.0
O3106 O 0.09397 0.68663 0.1717 0.0
O3107 O 0.10311 0.6838 0.16493 0.0
H3108 H 0.1055 0.68235 0.1823 0.0
H3109 H 0.1091 0.67295 0.19052 0.0
H3110 H 0.12519 0.68689 0.19942 0.0
H3111 H 0.12156 0.69631 0.19103 0.0
H3112 H 0.11531 0.72429 0.165 0.0
H3113 H 0.11194 0.71172 0.16641 0.0
H3114 H 0.09537 0.72832 0.15412 0.0
H3115 H 0.09205 0.71579 0.15558 0.0
H3116 H 0.07789 0.68243 0.1513 0.0
H3117 H 0.0886 0.66234 0.15498 0.0
H3118 H 0.09674 0.6682 0.16329 0.0
H3119 H 0.08608 0.68828 0.15969 0.0
C3120 C 0.07112 0.3639 0.93403 0.0
C3121 C 0.07817 0.36286 0.93172 0.0
C3122 C 0.08256 0.37031 0.9414 0.0
C3123 C 0.08383 0.36606 0.93535 0.0
C3124 C 0.07551 0.37121 0.9438 0.0
C3125 C 0.06982 0.36805 0.94012 0.0
U3126 U 0.06505 0.35022 0.92072 0.0
O3127 O 0.05548 0.34341 0.92014 0.0
O3128 O 0.0579 0.35092 0.91148 0.0
C3129 C 0.0533 0.34636 0.91416 0.0
C3130 C 0.0652 0.36063 0.93005 0.0
C3131 C 0.04581 0.34865 0.91399 0.0
C3132 C 0.03662 0.35757 0.91606 0.0
C3133 C 0.04371 0.35529 0.91673 0.0
C3134 C 0.03365 0.34649 0.91009 0.0
C3135 C 0.03153 0.35322 0.91267 0.0
C3136 C 0.04073 0.34424 0.91074 0.0
C3137 C 0.07971 0.33807 0.91293 0.0
C3138 C 0.08198 0.33338 0.90103 0.0
C3139 C 0.08668 0.32723 0.91137 0.0
C3140 C 0.08358 0.33235 0.91582 0.0
C3141 C 0.08604 0.32777 0.90392 0.0
C3142 C 0.07882 0.33847 0.90549 0.0
C3143 C 0.07711 0.34376 0.91772 0.0
O3144 O 0.0654 0.36168 0.92312 0.0
O3145 O 0.06375 0.35399 0.93178 0.0
O3146 O 0.0729 0.34174 0.92296 0.0
O3147 O 0.07508 0.34975 0.91469 0.0
H3148 H 0.07929 0.3596 0.92708 0.0
H3149 H 0.08921 0.36516 0.93345 0.0
H3150 H 0.07438 0.37447 0.94844 0.0
H3151 H 0.06441 0.36887 0.94199 0.0
H3152 H 0.03514 0.36274 0.91818 0.0
H3153 H 0.04757 0.35876 0.91929 0.0
H3154 H 0.02989 0.34305 0.90736 0.0
H3155 H 0.04227 0.3391 0.90857 0.0
H3156 H 0.08133 0.33389 0.89531 0.0
H3157 H 0.08984 0.32302 0.91376 0.0
H3158 H 0.08437 0.33195 0.92154 0.0
H3159 H 0.07583 0.34279 0.90309 0.0
C3160 C 0.39681 0.32062 0.68564 0.0
C3161 C 0.4003 0.32724 0.68561 0.0
C3162 C 0.3927 0.33145 0.69525 0.0
C3163 C 0.39828 0.33258 0.69036 0.0
C3164 C 0.38919 0.3248 0.69526 0.0
C3165 C 0.39125 0.31941 0.69049 0.0
U3166 U 0.40742 0.31631 0.6694 0.0
O3167 O 0.41426 0.30721 0.66649 0.0
O3168 O 0.40512 0.3101 0.65973 0.0
C3169 C 0.41027 0.3055 0.66098 0.0
C3170 C 0.39891 0.31516 0.68042 0.0
C3171 C 0.40831 0.29793 0.66042 0.0
C3172 C 0.40007 0.28813 0.66244 0.0
C3173 C 0.40189 0.29532 0.66327 0.0
C3174 C 0.41113 0.28607 0.65605 0.0
C3175 C 0.40466 0.28343 0.65881 0.0
C3176 C 0.41292 0.29326 0.65685 0.0
C3177 C 0.41797 0.33205 0.66162 0.0
C3178 C 0.42773 0.33124 0.65312 0.0
C3179 C 0.4222 0.34267 0.65557 0.0
C3180 C 0.41756 0.3394 0.66038 0.0
C3181 C 0.42737 0.33864 0.65192 0.0
C3182 C 0.42304 0.32796 0.65791 0.0
C3183 C 0.41314 0.32883 0.66688 0.0
O3184 O 0.39657 0.31631 0.67391 0.0
O3185 O 0.4057 0.31339 0.68062 0.0
O3186 O 0.41599 0.3241 0.6712 0.0
O3187 O 0.40684 0.32694 0.66446 0.0
H3188 H 0.40456 0.32829 0.68184 0.0
H3189 H 0.40099 0.33768 0.69009 0.0
H3190 H 0.38489 0.32376 0.69897 0.0
H3191 H 0.38848 0.31434 0.69056 0.0
H3192 H 0.39509 0.28623 0.66469 0.0
H3193 H 0.39829 0.29885 0.66609 0.0
H3194 H 0.41474 0.28262 0.65315 0.0
H3195 H 0.41789 0.29519 0.65461 0.0
H3196 H 0.43162 0.32799 0.65033 0.0
H3197 H 0.42185 0.3484 0.65486 0.0
H3198 H 0.41368 0.34264 0.66321 0.0
H3199 H 0.4234 0.32225 0.65877 0.0
C3200 C 0.07448 0.44105 0.36312 0.0
C3201 C 0.07087 0.43608 0.35881 0.0
C3202 C 0.06616 0.43017 0.36936 0.0
C3203 C 0.06671 0.43073 0.36191 0.0
C3204 C 0.06967 0.43522 0.37366 0.0
C3205 C 0.07378 0.44063 0.37055 0.0
U3206 U 0.08886 0.44548 0.3497 0.0
O3207 O 0.09073 0.45494 0.343 0.0
O3208 O 0.09883 0.45154 0.35077 0.0
C3209 C 0.09682 0.45643 0.34616 0.0
C3210 C 0.0794 0.44631 0.35997 0.0
C3211 C 0.09769 0.46387 0.34846 0.0
C3212 C 0.09647 0.47325 0.35734 0.0
C3213 C 0.09544 0.46615 0.35523 0.0
C3214 C 0.10189 0.47584 0.34589 0.0
C3215 C 0.09972 0.47816 0.35269 0.0
C3216 C 0.10089 0.46876 0.34381 0.0
C3217 C 0.09521 0.43054 0.33734 0.0
C3218 C 0.10685 0.42974 0.33167 0.0
C3219 C 0.09712 0.42229 0.32753 0.0
C3220 C 0.09262 0.42534 0.33264 0.0
C3221 C 0.10431 0.42438 0.32707 0.0
C3222 C 0.10232 0.43283 0.33673 0.0
C3223 C 0.09051 0.43331 0.34299 0.0
O3224 O 0.0862 0.44504 0.36113 0.0
O3225 O 0.07805 0.44825 0.35335 0.0
O3226 O 0.08583 0.43814 0.34101 0.0
O3227 O 0.09364 0.43481 0.34909 0.0
H3228 H 0.07141 0.43621 0.35306 0.0
H3229 H 0.06416 0.42685 0.35847 0.0
H3230 H 0.06931 0.43494 0.37942 0.0
H3231 H 0.07655 0.44439 0.37397 0.0
H3232 H 0.09468 0.47489 0.36258 0.0
H3233 H 0.09291 0.46245 0.35888 0.0
H3234 H 0.10449 0.47947 0.34222 0.0
H3235 H 0.10266 0.46708 0.33857 0.0
H3236 H 0.11235 0.4315 0.33139 0.0
H3237 H 0.09503 0.41813 0.32411 0.0
H3238 H 0.08714 0.42352 0.33303 0.0
H3239 H 0.10442 0.4369 0.34026 0.0
C3240 C 0.31888 0.32451 0.11249 0.0
C3241 C 0.32361 0.32044 0.10832 0.0
C3242 C 0.32951 0.31607 0.11904 0.0
C3243 C 0.32884 0.31623 0.11157 0.0
C3244 C 0.32468 0.32004 0.1232 0.0
C3245 C 0.3194 0.32419 0.11995 0.0
U3246 U 0.31474 0.33893 0.09894 0.0
O3247 O 0.30536 0.34078 0.0921 0.0
O3248 O 0.30861 0.34888 0.09992 0.0
C3249 C 0.30379 0.34684 0.09525 0.0
C3250 C 0.31373 0.32946 0.10917 0.0
C3251 C 0.29633 0.34764 0.0975 0.0
C3252 C 0.28684 0.34587 0.10615 0.0
C3253 C 0.29393 0.34486 0.10403 0.0
C3254 C 0.28447 0.3523 0.09519 0.0
C3255 C 0.28204 0.34962 0.10177 0.0
C3256 C 0.29156 0.35133 0.09309 0.0
C3257 C 0.32991 0.34536 0.08683 0.0
C3258 C 0.33195 0.35716 0.08182 0.0
C3259 C 0.33748 0.34681 0.0764 0.0
C3260 C 0.33426 0.34242 0.0815 0.0
C3261 C 0.33645 0.35424 0.07658 0.0
C3262 C 0.32867 0.35276 0.08688 0.0
C3263 C 0.32701 0.34067 0.09244 0.0
O3264 O 0.31498 0.33626 0.11036 0.0
O3265 O 0.31195 0.32811 0.10251 0.0
O3266 O 0.32224 0.33596 0.09037 0.0
O3267 O 0.32539 0.34377 0.09852 0.0
H3268 H 0.32339 0.32064 0.10255 0.0
H3269 H 0.33254 0.31331 0.10822 0.0
H3270 H 0.32505 0.31999 0.12896 0.0
H3271 H 0.31582 0.3273 0.12326 0.0
H3272 H 0.28511 0.34367 0.11121 0.0
H3273 H 0.29755 0.34196 0.10748 0.0
H3274 H 0.28094 0.3553 0.09174 0.0
H3275 H 0.29333 0.35351 0.08804 0.0
H3276 H 0.33101 0.36286 0.08205 0.0
H3277 H 0.34097 0.34441 0.07247 0.0
H3278 H 0.33529 0.33673 0.08136 0.0
H3279 H 0.32529 0.35517 0.0909 0.0
C3280 C 0.43584 0.57068 0.86232 0.0
C3281 C 0.43622 0.5771 0.85851 0.0
C3282 C 0.44563 0.58136 0.86639 0.0
C3283 C 0.44106 0.58238 0.86052 0.0
C3284 C 0.44526 0.57488 0.87017 0.0
C3285 C 0.4404 0.56957 0.86814 0.0
U3286 U 0.41942 0.56638 0.85179 0.0
O3287 O 0.41607 0.55697 0.84565 0.0
O3288 O 0.40953 0.56072 0.85464 0.0
C3289 C 0.41059 0.5557 0.84985 0.0
C3290 C 0.43042 0.56536 0.86038 0.0
C3291 C 0.4098 0.54833 0.85244 0.0
C3292 C 0.4148 0.53688 0.85593 0.0
C3293 C 0.41574 0.54393 0.85366 0.0
C3294 C 0.40198 0.53861 0.85595 0.0
C3295 C 0.4079 0.53414 0.85708 0.0
C3296 C 0.40293 0.54563 0.85363 0.0
C3297 C 0.41209 0.5818 0.84037 0.0
C3298 C 0.40395 0.5811 0.83028 0.0
C3299 C 0.40583 0.59238 0.83632 0.0
C3300 C 0.41059 0.5891 0.841 0.0
C3301 C 0.40246 0.58844 0.83089 0.0
C3302 C 0.4087 0.5778 0.83501 0.0
C3303 C 0.41728 0.5786 0.8453 0.0
O3304 O 0.42394 0.56688 0.86261 0.0
O3305 O 0.43058 0.56325 0.85369 0.0
O3306 O 0.42138 0.57352 0.8427 0.0
O3307 O 0.41489 0.57721 0.85174 0.0
H3308 H 0.43267 0.57809 0.85405 0.0
H3309 H 0.44109 0.58736 0.85757 0.0
H3310 H 0.44872 0.57392 0.8747 0.0
H3311 H 0.44014 0.56465 0.87116 0.0
H3312 H 0.41946 0.53358 0.85683 0.0
H3313 H 0.42111 0.54592 0.85283 0.0
H3314 H 0.3966 0.53663 0.85671 0.0
H3315 H 0.39828 0.54894 0.85272 0.0
H3316 H 0.4014 0.57792 0.82619 0.0
H3317 H 0.40489 0.59806 0.83686 0.0
H3318 H 0.41317 0.59227 0.84508 0.0
H3319 H 0.40975 0.57214 0.83447 0.0
C3320 C 0.18906 0.6842 0.61631 0.0
C3321 C 0.18199 0.68218 0.61492 0.0
C3322 C 0.17764 0.69192 0.6223 0.0
C3323 C 0.17634 0.68598 0.61791 0.0
C3324 C 0.18473 0.69404 0.62356 0.0
C3325 C 0.19041 0.69017 0.6206 0.0
U3326 U 0.19499 0.67082 0.6027 0.0
O3327 O 0.20466 0.66981 0.59613 0.0
O3328 O 0.20168 0.66123 0.60352 0.0
C3329 C 0.20656 0.66377 0.59916 0.0
C3330 C 0.19495 0.68003 0.61322 0.0
C3331 C 0.21407 0.66315 0.60158 0.0
C3332 C 0.22324 0.65656 0.60802 0.0
C3333 C 0.2161 0.65752 0.60611 0.0
C3334 C 0.22653 0.66682 0.6009 0.0
C3335 C 0.22855 0.66115 0.60538 0.0
C3336 C 0.21937 0.6678 0.59901 0.0
C3337 C 0.18028 0.66398 0.59009 0.0
C3338 C 0.17878 0.65236 0.5845 0.0
C3339 C 0.17256 0.66266 0.57976 0.0
C3340 C 0.17565 0.66694 0.58502 0.0
C3341 C 0.17399 0.6553 0.57952 0.0
C3342 C 0.18192 0.65667 0.58972 0.0
C3343 C 0.18296 0.66853 0.59591 0.0
O3344 O 0.19443 0.6731 0.61418 0.0
O3345 O 0.1967 0.68177 0.60665 0.0
O3346 O 0.18749 0.67356 0.59407 0.0
O3347 O 0.18471 0.66527 0.60187 0.0
H3348 H 0.18083 0.67763 0.61154 0.0
H3349 H 0.17093 0.6843 0.61674 0.0
H3350 H 0.18588 0.6986 0.62692 0.0
H3351 H 0.19585 0.69182 0.62169 0.0
H3352 H 0.22462 0.65207 0.61137 0.0
H3353 H 0.21218 0.65377 0.60808 0.0
H3354 H 0.23048 0.67048 0.59882 0.0
H3355 H 0.21802 0.67214 0.59544 0.0
H3356 H 0.18004 0.64672 0.58439 0.0
H3357 H 0.16884 0.66506 0.57606 0.0
H3358 H 0.1743 0.67256 0.58522 0.0
H3359 H 0.18552 0.65426 0.59355 0.0
C3360 C 0.07566 0.57004 0.14583 0.0
C3361 C 0.07247 0.5752 0.15024 0.0
C3362 C 0.0667 0.58062 0.13995 0.0
C3363 C 0.068 0.5804 0.14734 0.0
C3364 C 0.06977 0.57535 0.13557 0.0
C3365 C 0.07419 0.57009 0.1385 0.0
U3366 U 0.0911 0.56646 0.15827 0.0
O3367 O 0.09402 0.55724 0.1649 0.0
O3368 O 0.10129 0.5609 0.15646 0.0
C3369 C 0.09986 0.55595 0.16121 0.0
C3370 C 0.081 0.56502 0.14869 0.0
C3371 C 0.10094 0.54853 0.15882 0.0
C3372 C 0.0964 0.53679 0.15566 0.0
C3373 C 0.09518 0.54386 0.15776 0.0
C3374 C 0.10913 0.53904 0.15549 0.0
C3375 C 0.10339 0.53431 0.15453 0.0
C3376 C 0.10791 0.54608 0.15764 0.0
C3377 C 0.09732 0.5822 0.16982 0.0
C3378 C 0.10564 0.58148 0.17975 0.0
C3379 C 0.10273 0.59296 0.17455 0.0
C3380 C 0.09817 0.58962 0.16971 0.0
C3381 C 0.10653 0.58894 0.17962 0.0
C3382 C 0.10109 0.57813 0.17485 0.0
C3383 C 0.09253 0.57888 0.16457 0.0
O3384 O 0.08764 0.56657 0.14705 0.0
O3385 O 0.0802 0.56314 0.15541 0.0
O3386 O 0.0883 0.57383 0.16696 0.0
O3387 O 0.09546 0.57735 0.15839 0.0
H3388 H 0.07361 0.57534 0.15591 0.0
H3389 H 0.06581 0.58445 0.15083 0.0
H3390 H 0.06883 0.57536 0.12987 0.0
H3391 H 0.07663 0.56619 0.135 0.0
H3392 H 0.09187 0.53329 0.15489 0.0
H3393 H 0.08974 0.54564 0.15857 0.0
H3394 H 0.11458 0.53726 0.15473 0.0
H3395 H 0.11243 0.5496 0.15844 0.0
H3396 H 0.10853 0.57824 0.18356 0.0
H3397 H 0.10321 0.59872 0.17438 0.0
H3398 H 0.09529 0.59284 0.16586 0.0
H3399 H 0.10053 0.57238 0.17498 0.0
C3400 C 0.19084 0.32503 0.89934 0.0
C3401 C 0.18411 0.32564 0.90254 0.0
C3402 C 0.17944 0.31634 0.89477 0.0
C3403 C 0.17846 0.32135 0.90028 0.0
C3404 C 0.18621 0.31576 0.89156 0.0
C3405 C 0.19188 0.32007 0.89384 0.0
U3406 U 0.19661 0.33972 0.91149 0.0
O3407 O 0.20627 0.3414 0.91795 0.0
O3408 O 0.20317 0.34929 0.90985 0.0
C3409 C 0.20802 0.34726 0.91451 0.0
C3410 C 0.19667 0.32968 0.90176 0.0
C3411 C 0.21547 0.3477 0.91212 0.0
C3412 C 0.22469 0.34589 0.90319 0.0
C3413 C 0.21759 0.34516 0.9054 0.0
C3414 C 0.22761 0.35155 0.91444 0.0
C3415 C 0.22978 0.34912 0.90767 0.0
C3416 C 0.22053 0.35085 0.91663 0.0
C3417 C 0.1819 0.34706 0.92384 0.0
C3418 C 0.17994 0.359 0.92854 0.0
C3419 C 0.17438 0.34883 0.93425 0.0
C3420 C 0.17756 0.34429 0.92927 0.0
C3421 C 0.17542 0.35625 0.93386 0.0
C3422 C 0.18318 0.35445 0.92359 0.0
C3423 C 0.18463 0.34219 0.9183 0.0
O3424 O 0.19579 0.33647 0.90024 0.0
O3425 O 0.19873 0.3286 0.90838 0.0
O3426 O 0.1893 0.3374 0.92041 0.0
O3427 O 0.18621 0.34508 0.91211 0.0
H3428 H 0.1832 0.32948 0.90676 0.0
H3429 H 0.1733 0.32206 0.90277 0.0
H3430 H 0.18714 0.31192 0.88734 0.0
H3431 H 0.19705 0.31955 0.89132 0.0
H3432 H 0.22621 0.3439 0.89798 0.0
H3433 H 0.21376 0.34267 0.90187 0.0
H3434 H 0.23136 0.35415 0.91798 0.0
H3435 H 0.21897 0.35285 0.92183 0.0
H3436 H 0.18091 0.36469 0.92815 0.0
H3437 H 0.17086 0.34656 0.93823 0.0
H3438 H 0.17649 0.33862 0.92955 0.0
H3439 H 0.18655 0.35672 0.91948 0.0
C3440 C 0.43723 0.44041 0.64806 0.0
C3441 C 0.44223 0.43768 0.65295 0.0
C3442 C 0.44679 0.42947 0.64396 0.0
C3443 C 0.44697 0.4323 0.65091 0.0
C3444 C 0.44204 0.43246 0.63898 0.0
C3445 C 0.43733 0.43788 0.64101 0.0
U3446 U 0.42072 0.44415 0.65908 0.0
O3447 O 0.41721 0.45344 0.6653 0.0
O3448 O 0.41067 0.4496 0.65635 0.0
C3449 C 0.41167 0.45462 0.66115 0.0
C3450 C 0.43157 0.44544 0.65035 0.0
C3451 C 0.41071 0.462 0.65861 0.0
C3452 C 0.4154 0.47371 0.6556 0.0
C3453 C 0.41652 0.46666 0.65777 0.0
C3454 C 0.40268 0.47148 0.65488 0.0
C3455 C 0.40846 0.47621 0.65417 0.0
C3456 C 0.4038 0.46445 0.6571 0.0
C3457 C 0.41382 0.42859 0.67052 0.0
C3458 C 0.40527 0.42934 0.68026 0.0
C3459 C 0.40801 0.41789 0.6749 0.0
C3460 C 0.41277 0.42121 0.67023 0.0
C3461 C 0.40421 0.42192 0.67997 0.0
C3462 C 0.41002 0.43267 0.67554 0.0
C3463 C 0.41892 0.43186 0.66554 0.0
O3464 O 0.4251 0.44381 0.64819 0.0
O3465 O 0.43177 0.44758 0.65703 0.0
O3466 O 0.42294 0.43701 0.66811 0.0
O3467 O 0.41644 0.43322 0.65913 0.0
H3468 H 0.44237 0.43955 0.65842 0.0
H3469 H 0.45067 0.43023 0.65484 0.0
H3470 H 0.4417 0.43038 0.6336 0.0
H3471 H 0.43356 0.43992 0.63712 0.0
H3472 H 0.41996 0.47721 0.65502 0.0
H3473 H 0.42191 0.46487 0.65883 0.0
H3474 H 0.39727 0.47326 0.65389 0.0
H3475 H 0.39925 0.46094 0.65772 0.0
H3476 H 0.40239 0.43259 0.68407 0.0
H3477 H 0.4074 0.41215 0.67461 0.0
H3478 H 0.41566 0.41798 0.6664 0.0
H3479 H 0.41074 0.4384 0.67581 0.0
C3480 C 0.32156 0.68391 0.39525 0.0
C3481 C 0.32866 0.68183 0.39637 0.0
C3482 C 0.33283 0.69169 0.38906 0.0
C3483 C 0.33424 0.68566 0.39328 0.0
C3484 C 0.32572 0.6939 0.38811 0.0
C3485 C 0.32011 0.69 0.39116 0.0
U3486 U 0.31619 0.66967 0.40813 0.0
O3487 O 0.30677 0.66808 0.41497 0.0
O3488 O 0.30958 0.66008 0.40688 0.0
C3489 C 0.30484 0.66224 0.41158 0.0
C3490 C 0.31576 0.6796 0.3983 0.0
C3491 C 0.29731 0.66165 0.4093 0.0
C3492 C 0.2853 0.66647 0.40803 0.0
C3493 C 0.29243 0.66731 0.41011 0.0
C3494 C 0.28782 0.65437 0.40428 0.0
C3495 C 0.28293 0.66 0.40508 0.0
C3496 C 0.29491 0.65518 0.4064 0.0
C3497 C 0.33168 0.66192 0.41921 0.0
C3498 C 0.33082 0.65437 0.42972 0.0
C3499 C 0.34203 0.65535 0.42335 0.0
C3500 C 0.33887 0.66003 0.41851 0.0
C3501 C 0.33805 0.65247 0.42902 0.0
C3502 C 0.32764 0.65904 0.42482 0.0
C3503 C 0.32859 0.66691 0.41402 0.0
O3504 O 0.31616 0.67276 0.39683 0.0
O3505 O 0.31433 0.68088 0.40505 0.0
O3506 O 0.32413 0.67172 0.41652 0.0
O3507 O 0.3265 0.66406 0.40797 0.0
H3508 H 0.32989 0.67718 0.39958 0.0
H3509 H 0.33967 0.6839 0.39422 0.0
H3510 H 0.3245 0.69854 0.38488 0.0
H3511 H 0.31465 0.6917 0.39027 0.0
H3512 H 0.28166 0.67091 0.40868 0.0
H3513 H 0.29411 0.67236 0.41235 0.0
H3514 H 0.28613 0.64927 0.40213 0.0
H3515 H 0.29853 0.65071 0.40579 0.0
H3516 H 0.32761 0.65219 0.434 0.0
H3517 H 0.34764 0.65409 0.42273 0.0
H3518 H 0.34207 0.66222 0.41422 0.0
H3519 H 0.32205 0.66041 0.42543 0.0
C3520 C 0.36332 0.0767 0.43903 0.0
C3521 C 0.36178 0.07839 0.43191 0.0
C3522 C 0.36918 0.06854 0.42786 0.0
C3523 C 0.36471 0.07437 0.42638 0.0
C3524 C 0.37052 0.06669 0.435 0.0
C3525 C 0.36763 0.07078 0.44056 0.0
U3526 U 0.35066 0.09116 0.44464 0.0
O3527 O 0.34446 0.09307 0.45442 0.0
O3528 O 0.35237 0.10097 0.45085 0.0
C3529 C 0.34795 0.09899 0.45592 0.0
C3530 C 0.36057 0.08128 0.44477 0.0
C3531 C 0.35064 0.09979 0.46326 0.0
C3532 C 0.35373 0.09495 0.4749 0.0
C3533 C 0.3514 0.09393 0.46788 0.0
C3534 C 0.35475 0.10765 0.47272 0.0
C3535 C 0.35541 0.10182 0.4774 0.0
C3536 C 0.35236 0.10664 0.46574 0.0
C3537 C 0.33806 0.09834 0.43016 0.0
C3538 C 0.33348 0.11031 0.42813 0.0
C3539 C 0.32721 0.1001 0.42329 0.0
C3540 C 0.3323 0.09555 0.42628 0.0
C3541 C 0.32781 0.10753 0.42407 0.0
C3542 C 0.33854 0.10576 0.43118 0.0
C3543 C 0.34365 0.09344 0.43276 0.0
O3544 O 0.36195 0.0881 0.44393 0.0
O3545 O 0.35394 0.08004 0.4467 0.0
O3546 O 0.34162 0.08871 0.43752 0.0
O3547 O 0.34991 0.09629 0.43415 0.0
H3548 H 0.3584 0.08291 0.43062 0.0
H3549 H 0.3635 0.07585 0.42092 0.0
H3550 H 0.37395 0.06222 0.43628 0.0
H3551 H 0.36885 0.06939 0.44604 0.0
H3552 H 0.35426 0.09035 0.47836 0.0
H3553 H 0.35015 0.08858 0.46609 0.0
H3554 H 0.35591 0.11302 0.47452 0.0
H3555 H 0.35179 0.11123 0.46228 0.0
H3556 H 0.33403 0.11602 0.42888 0.0
H3557 H 0.32295 0.0978 0.42012 0.0
H3558 H 0.33184 0.08985 0.42542 0.0
H3559 H 0.3429 0.10805 0.43421 0.0
C3560 C 0.86149 0.43554 0.57079 0.0
C3561 C 0.85824 0.43524 0.57751 0.0
C3562 C 0.86598 0.44473 0.58183 0.0
C3563 C 0.86046 0.43977 0.58298 0.0
C3564 C 0.86923 0.44503 0.57507 0.0
C3565 C 0.86699 0.44046 0.56958 0.0
U3566 U 0.84966 0.42036 0.56554 0.0
O3567 O 0.8433 0.41821 0.55591 0.0
O3568 O 0.85155 0.41061 0.55933 0.0
C3569 C 0.84689 0.41238 0.55438 0.0
C3570 C 0.85918 0.4306 0.56517 0.0
C3571 C 0.84933 0.41173 0.54696 0.0
C3572 C 0.85848 0.41277 0.53783 0.0
C3573 C 0.85626 0.41369 0.5449 0.0
C3574 C 0.84681 0.40809 0.53479 0.0
C3575 C 0.85378 0.40994 0.5327 0.0
C3576 C 0.84462 0.40897 0.54185 0.0
C3577 C 0.83727 0.41327 0.58032 0.0
C3578 C 0.83294 0.40131 0.58293 0.0
C3579 C 0.82644 0.41162 0.58725 0.0
C3580 C 0.83144 0.41612 0.58405 0.0
C3581 C 0.8272 0.40417 0.58683 0.0
C3582 C 0.83792 0.40582 0.57967 0.0
C3583 C 0.84277 0.41816 0.57752 0.0
O3584 O 0.86083 0.42389 0.56633 0.0
O3585 O 0.85254 0.43147 0.56305 0.0
O3586 O 0.84063 0.42277 0.57269 0.0
O3587 O 0.84905 0.41536 0.57611 0.0
H3588 H 0.85401 0.43143 0.57856 0.0
H3589 H 0.85793 0.43929 0.58815 0.0
H3590 H 0.87347 0.44881 0.574 0.0
H3591 H 0.86956 0.44075 0.56441 0.0
H3592 H 0.86386 0.41431 0.53637 0.0
H3593 H 0.85996 0.41587 0.54877 0.0
H3594 H 0.84309 0.40582 0.531 0.0
H3595 H 0.83925 0.40743 0.54335 0.0
H3596 H 0.83363 0.39559 0.58246 0.0
H3597 H 0.82213 0.41398 0.59029 0.0
H3598 H 0.83085 0.42184 0.58464 0.0
H3599 H 0.84234 0.40347 0.57678 0.0
C3600 C 0.32466 0.11215 0.31919 0.0
C3601 C 0.32041 0.10715 0.32283 0.0
C3602 C 0.31547 0.11657 0.33031 0.0
C3603 C 0.31584 0.10935 0.32829 0.0
C3604 C 0.31949 0.1216 0.32644 0.0
C3605 C 0.32402 0.1194 0.32093 0.0
U3606 U 0.34089 0.1009 0.31523 0.0
O3607 O 0.34424 0.09469 0.30586 0.0
O3608 O 0.35095 0.10349 0.30973 0.0
C3609 C 0.34983 0.09876 0.30468 0.0
C3610 C 0.3302 0.10983 0.31407 0.0
C3611 C 0.35073 0.10138 0.29733 0.0
C3612 C 0.34585 0.10506 0.28589 0.0
C3613 C 0.34483 0.10276 0.29292 0.0
C3614 C 0.35865 0.10484 0.28769 0.0
C3615 C 0.35278 0.10611 0.2832 0.0
C3616 C 0.35763 0.10248 0.29468 0.0
C3617 C 0.3478 0.08926 0.33062 0.0
C3618 C 0.35554 0.07886 0.32992 0.0
C3619 C 0.35438 0.08534 0.34105 0.0
C3620 C 0.34963 0.09007 0.33782 0.0
C3621 C 0.35738 0.07967 0.33715 0.0
C3622 C 0.35081 0.08364 0.32667 0.0
C3623 C 0.34271 0.09433 0.32744 0.0
O3624 O 0.33672 0.11187 0.31568 0.0
O3625 O 0.32986 0.10317 0.31189 0.0
O3626 O 0.33858 0.09186 0.32233 0.0
O3627 O 0.34526 0.10072 0.32612 0.0
H3628 H 0.32076 0.10151 0.32162 0.0
H3629 H 0.31271 0.10535 0.33104 0.0
H3630 H 0.3194 0.12719 0.32788 0.0
H3631 H 0.32725 0.12335 0.31822 0.0
H3632 H 0.34122 0.10607 0.28258 0.0
H3633 H 0.33944 0.10201 0.29488 0.0
H3634 H 0.36405 0.10553 0.28574 0.0
H3635 H 0.36225 0.10146 0.29801 0.0
H3636 H 0.35781 0.07457 0.32678 0.0
H3637 H 0.35561 0.08604 0.34666 0.0
H3638 H 0.34735 0.09436 0.34096 0.0
H3639 H 0.34951 0.08295 0.32108 0.0
C3640 C 0.64715 0.57632 0.07172 0.0
C3641 C 0.64894 0.57778 0.07883 0.0
C3642 C 0.64081 0.56852 0.08289 0.0
C3643 C 0.64578 0.57394 0.08436 0.0
C3644 C 0.63921 0.56688 0.07574 0.0
C3645 C 0.64234 0.57079 0.07018 0.0
U3646 U 0.66037 0.59029 0.06624 0.0
O3647 O 0.66674 0.59196 0.05653 0.0
O3648 O 0.65906 0.60013 0.05999 0.0
C3649 C 0.66346 0.59797 0.05497 0.0
C3650 C 0.65012 0.58077 0.066 0.0
C3651 C 0.66083 0.59879 0.0476 0.0
C3652 C 0.65737 0.59387 0.0361 0.0
C3653 C 0.65968 0.59288 0.04313 0.0
C3654 C 0.65716 0.60666 0.03799 0.0
C3655 C 0.65609 0.60078 0.03346 0.0
C3656 C 0.65952 0.60567 0.04498 0.0
C3657 C 0.67301 0.59709 0.08082 0.0
C3658 C 0.67845 0.60883 0.08183 0.0
C3659 C 0.68321 0.5989 0.0886 0.0
C3660 C 0.67805 0.59441 0.08564 0.0
C3661 C 0.68339 0.60618 0.08682 0.0
C3662 C 0.67332 0.60431 0.07882 0.0
C3663 C 0.66731 0.59235 0.07821 0.0
O3664 O 0.64897 0.58764 0.06683 0.0
O3665 O 0.65673 0.57929 0.06416 0.0
O3666 O 0.66924 0.58756 0.07346 0.0
O3667 O 0.66118 0.59542 0.07672 0.0
H3668 H 0.65269 0.58199 0.08012 0.0
H3669 H 0.6472 0.57524 0.08981 0.0
H3670 H 0.6354 0.56273 0.07446 0.0
H3671 H 0.64091 0.56959 0.06471 0.0
H3672 H 0.65653 0.58924 0.03275 0.0
H3673 H 0.6606 0.5875 0.04503 0.0
H3674 H 0.65631 0.61205 0.03608 0.0
H3675 H 0.66039 0.6103 0.04834 0.0
H3676 H 0.67851 0.6144 0.0803 0.0
H3677 H 0.6869 0.59672 0.09249 0.0
H3678 H 0.67789 0.58885 0.08725 0.0
H3679 H 0.66952 0.60649 0.07505 0.0
C3680 C 0.68621 0.39889 0.32035 0.0
C3681 C 0.68622 0.40238 0.32696 0.0
C3682 C 0.6957 0.39457 0.3312 0.0
C3683 C 0.69091 0.40024 0.33233 0.0
C3684 C 0.6957 0.39111 0.32453 0.0
C3685 C 0.69099 0.39326 0.31914 0.0
U3686 U 0.6701 0.40974 0.31582 0.0
O3687 O 0.66701 0.416 0.3064 0.0
O3688 O 0.66024 0.40713 0.30999 0.0
C3689 C 0.66146 0.41193 0.30503 0.0
C3690 C 0.68096 0.40097 0.31491 0.0
C3691 C 0.66069 0.40941 0.29763 0.0
C3692 C 0.66571 0.40603 0.28615 0.0
C3693 C 0.66665 0.40826 0.29322 0.0
C3694 C 0.6529 0.40592 0.28789 0.0
C3695 C 0.65882 0.40485 0.28341 0.0
C3696 C 0.65383 0.4082 0.29492 0.0
C3697 C 0.66264 0.42112 0.3312 0.0
C3698 C 0.6548 0.43144 0.33047 0.0
C3699 C 0.65598 0.42498 0.34161 0.0
C3700 C 0.66078 0.42029 0.33839 0.0
C3701 C 0.65295 0.43063 0.3377 0.0
C3702 C 0.65959 0.42669 0.32723 0.0
C3703 C 0.66784 0.41614 0.32806 0.0
O3704 O 0.67441 0.39883 0.31626 0.0
O3705 O 0.68129 0.40768 0.31289 0.0
O3706 O 0.67207 0.41872 0.3231 0.0
O3707 O 0.66539 0.40974 0.32657 0.0
H3708 H 0.68251 0.40668 0.32802 0.0
H3709 H 0.69064 0.40293 0.33744 0.0
H3710 H 0.69934 0.38674 0.32348 0.0
H3711 H 0.69102 0.39049 0.31406 0.0
H3712 H 0.67038 0.40518 0.28285 0.0
H3713 H 0.67201 0.40911 0.29522 0.0
H3714 H 0.64752 0.40513 0.28591 0.0
H3715 H 0.64918 0.40906 0.29824 0.0
H3716 H 0.65251 0.43571 0.32732 0.0
H3717 H 0.65476 0.42427 0.34721 0.0
H3718 H 0.6631 0.41603 0.34154 0.0
H3719 H 0.66091 0.4274 0.32165 0.0
C3720 C 0.14908 0.93677 0.93973 0.0
C3721 C 0.15267 0.93695 0.93317 0.0
C3722 C 0.14464 0.94623 0.9289 0.0
C3723 C 0.15048 0.94163 0.92782 0.0
C3724 C 0.14111 0.9461 0.93554 0.0
C3725 C 0.14332 0.94139 0.94091 0.0
U3726 U 0.16044 0.92102 0.94439 0.0
O3727 O 0.16631 0.91792 0.95404 0.0
O3728 O 0.15793 0.9109 0.9498 0.0
C3729 C 0.16242 0.91217 0.95504 0.0
C3730 C 0.15115 0.93146 0.94511 0.0
C3731 C 0.15962 0.91102 0.9623 0.0
C3732 C 0.15648 0.91535 0.97413 0.0
C3733 C 0.15875 0.91669 0.96714 0.0
C3734 C 0.15571 0.90272 0.97145 0.0
C3735 C 0.15499 0.90834 0.97637 0.0
C3736 C 0.15803 0.90406 0.9645 0.0
C3737 C 0.17312 0.91448 0.92971 0.0
C3738 C 0.17792 0.90252 0.9282 0.0
C3739 C 0.18326 0.91246 0.9219 0.0
C3740 C 0.17833 0.91709 0.92503 0.0
C3741 C 0.18304 0.90511 0.92337 0.0
C3742 C 0.17302 0.90717 0.93138 0.0
C3743 C 0.16771 0.91941 0.93255 0.0
O3744 O 0.14939 0.92487 0.94348 0.0
O3745 O 0.15773 0.93203 0.94748 0.0
O3746 O 0.16981 0.92359 0.93777 0.0
O3747 O 0.1613 0.91673 0.93353 0.0
H3748 H 0.15709 0.93336 0.93215 0.0
H3749 H 0.15324 0.94147 0.92275 0.0
H3750 H 0.13664 0.94961 0.93657 0.0
H3751 H 0.14047 0.94129 0.94594 0.0
H3752 H 0.1559 0.91979 0.97777 0.0
H3753 H 0.15989 0.92213 0.96556 0.0
H3754 H 0.15468 0.89726 0.97304 0.0
H3755 H 0.15869 0.89961 0.96085 0.0
H3756 H 0.17767 0.89689 0.92949 0.0
H3757 H 0.18709 0.91461 0.91814 0.0
H3758 H 0.17849 0.92271 0.92368 0.0
H3759 H 0.16908 0.90504 0.93503 0.0
C3760 C 0.32831 0.89357 0.18887 0.0
C3761 C 0.3306 0.89385 0.18174 0.0
C3762 C 0.32024 0.88699 0.17799 0.0
C3763 C 0.32663 0.89056 0.17638 0.0
C3764 C 0.31791 0.88676 0.18512 0.0
C3765 C 0.32194 0.89001 0.19053 0.0
U3766 U 0.34051 0.90863 0.19384 0.0
O3767 O 0.34105 0.91565 0.20325 0.0
O3768 O 0.35029 0.90908 0.20027 0.0
C3769 C 0.34746 0.9134 0.20502 0.0
C3770 C 0.33241 0.89726 0.19446 0.0
C3771 C 0.34836 0.91122 0.21248 0.0
C3772 C 0.34743 0.90235 0.22189 0.0
C3773 C 0.34625 0.90442 0.21482 0.0
C3774 C 0.35274 0.91388 0.22437 0.0
C3775 C 0.35072 0.90705 0.22674 0.0
C3776 C 0.35157 0.91593 0.2173 0.0
C3777 C 0.34537 0.92127 0.17843 0.0
C3778 C 0.35375 0.93112 0.17936 0.0
C3779 C 0.34776 0.92872 0.16815 0.0
C3780 C 0.34419 0.923 0.17127 0.0
C3781 C 0.3526 0.93286 0.17214 0.0
C3782 C 0.35015 0.92537 0.18249 0.0
C3783 C 0.34163 0.91511 0.18148 0.0
O3784 O 0.33939 0.89696 0.19373 0.0
O3785 O 0.33009 0.90367 0.1961 0.0
O3786 O 0.3366 0.91658 0.18614 0.0
O3787 O 0.34569 0.90972 0.18338 0.0
H3788 H 0.33543 0.89668 0.18031 0.0
H3789 H 0.3285 0.89096 0.17092 0.0
H3790 H 0.313 0.88405 0.18652 0.0
H3791 H 0.32005 0.88979 0.19599 0.0
H3792 H 0.34575 0.89709 0.22357 0.0
H3793 H 0.34373 0.90072 0.21116 0.0
H3794 H 0.35537 0.91759 0.22793 0.0
H3795 H 0.35326 0.92119 0.21557 0.0
H3796 H 0.3574 0.93423 0.18259 0.0
H3797 H 0.34685 0.92981 0.16255 0.0
H3798 H 0.34054 0.91986 0.16806 0.0
H3799 H 0.35111 0.92409 0.18804 0.0
C3800 C 0.18633 0.11237 0.6898 0.0
C3801 C 0.1863 0.10904 0.6831 0.0
C3802 C 0.19597 0.11673 0.6791 0.0
C3803 C 0.19107 0.11119 0.67781 0.0
C3804 C 0.19603 0.12002 0.68586 0.0
C3805 C 0.19123 0.11784 0.69117 0.0
U3806 U 0.16991 0.10185 0.69397 0.0
O3807 O 0.16659 0.09548 0.70323 0.0
O3808 O 0.16008 0.1046 0.69978 0.0
C3809 C 0.16114 0.09967 0.70466 0.0
C3810 C 0.18099 0.11031 0.69514 0.0
C3811 C 0.16036 0.10206 0.71211 0.0
C3812 C 0.15259 0.10616 0.72164 0.0
C3813 C 0.15357 0.10399 0.71458 0.0
C3814 C 0.16522 0.10449 0.72389 0.0
C3815 C 0.1584 0.1064 0.72638 0.0
C3816 C 0.1662 0.10237 0.7168 0.0
C3817 C 0.16222 0.09101 0.67834 0.0
C3818 C 0.15407 0.08093 0.67891 0.0
C3819 C 0.15559 0.0874 0.66783 0.0
C3820 C 0.16048 0.09194 0.67114 0.0
C3821 C 0.15236 0.08182 0.67166 0.0
C3822 C 0.15894 0.08552 0.68224 0.0
C3823 C 0.16754 0.09579 0.68158 0.0
O3824 O 0.17451 0.11265 0.69381 0.0
O3825 O 0.18113 0.10354 0.69701 0.0
O3826 O 0.17169 0.09299 0.6865 0.0
O3827 O 0.16525 0.10222 0.6832 0.0
H3828 H 0.18249 0.10485 0.68192 0.0
H3829 H 0.19076 0.10863 0.67264 0.0
H3830 H 0.19976 0.12427 0.68703 0.0
H3831 H 0.1913 0.12049 0.69631 0.0
H3832 H 0.14726 0.10752 0.72341 0.0
H3833 H 0.149 0.10377 0.71105 0.0
H3834 H 0.1698 0.10469 0.72742 0.0
H3835 H 0.17151 0.10096 0.71501 0.0
H3836 H 0.15162 0.07671 0.68201 0.0
H3837 H 0.15447 0.08817 0.66221 0.0
H3838 H 0.16296 0.09614 0.66805 0.0
H3839 H 0.16017 0.08474 0.68783 0.0
H3840 H 0.13549 0.22416 0.36902 0.0
H3841 H 0.11293 0.22217 0.37292 0.0
H3842 H 0.12715 0.20543 0.37936 0.0
H3843 H 0.11272 0.22873 0.36231 0.0
C3844 C 0.11673 0.23271 0.3636 0.0
C3845 C 0.13102 0.22112 0.37107 0.0
C3846 C 0.13217 0.21439 0.37417 0.0
C3847 C 0.12409 0.22387 0.37039 0.0
C3848 C 0.11828 0.21999 0.37316 0.0
C3849 C 0.11936 0.2133 0.37633 0.0
C3850 C 0.1263 0.21052 0.37675 0.0
N3851 N 0.12313 0.23062 0.36709 0.0
H3852 H 0.03549 0.88556 0.61885 0.0
H3853 H 0.03631 0.86379 0.62624 0.0
H3854 H 0.0522 0.87881 0.63305 0.0
H3855 H 0.03111 0.86191 0.61524 0.0
C3856 C 0.02718 0.86618 0.61519 0.0
C3857 C 0.03805 0.88142 0.62197 0.0
C3858 C 0.04424 0.88298 0.62589 0.0
C3859 C 0.03528 0.87446 0.62187 0.0
C3860 C 0.03857 0.8691 0.62601 0.0
C3861 C 0.04462 0.87068 0.63013 0.0
C3862 C 0.04746 0.87759 0.62995 0.0
N3863 N 0.02905 0.87306 0.61777 0.0
H3864 H 0.37502 0.78585 0.86944 0.0
H3865 H 0.39745 0.78912 0.87326 0.0
H3866 H 0.38231 0.80513 0.87955 0.0
H3867 H 0.39843 0.78208 0.86345 0.0
C3868 C 0.39431 0.77809 0.86428 0.0
C3869 C 0.37934 0.78916 0.87142 0.0
C3870 C 0.37783 0.79583 0.87448 0.0
C3871 C 0.3864 0.78679 0.87072 0.0
C3872 C 0.39199 0.79101 0.87347 0.0
C3873 C 0.39055 0.79766 0.8766 0.0
C3874 C 0.38347 0.80007 0.87699 0.0
N3875 N 0.3877 0.78007 0.86743 0.0
H3876 H 0.47538 0.12419 0.12082 0.0
H3877 H 0.47143 0.14684 0.12115 0.0
H3878 H 0.45684 0.13254 0.13146 0.0
H3879 H 0.47815 0.1464 0.11086 0.0
C3880 C 0.48231 0.14267 0.11243 0.0
C3881 C 0.47203 0.12867 0.1223 0.0
C3882 C 0.46585 0.12754 0.12637 0.0
C3883 C 0.47405 0.13559 0.12029 0.0
C3884 C 0.46984 0.14145 0.12244 0.0
C3885 C 0.46358 0.14035 0.1264 0.0
C3886 C 0.46162 0.13339 0.12831 0.0
N3887 N 0.48055 0.13652 0.11649 0.0
H3888 H 0.13579 0.78479 0.1387 0.0
H3889 H 0.11314 0.7887 0.13768 0.0
H3890 H 0.12769 0.80334 0.12786 0.0
H3891 H 0.11308 0.78206 0.14775 0.0
C3892 C 0.11702 0.77796 0.14664 0.0
C3893 C 0.13135 0.78812 0.13708 0.0
C3894 C 0.13259 0.7943 0.13302 0.0
C3895 C 0.12437 0.78612 0.13893 0.0
C3896 C 0.11857 0.7903 0.13657 0.0
C3897 C 0.11977 0.79655 0.13265 0.0
C3898 C 0.12678 0.79853 0.13095 0.0
N3899 N 0.12335 0.77969 0.14284 0.0
H3900 H 0.47627 0.88521 0.38707 0.0
H3901 H 0.47072 0.86292 0.38812 0.0
H3902 H 0.4567 0.8777 0.37773 0.0
H3903 H 0.47812 0.86297 0.39756 0.0
C3904 C 0.48232 0.86668 0.3961 0.0
C3905 C 0.47256 0.88092 0.38596 0.0
C3906 C 0.46629 0.8823 0.38209 0.0
C3907 C 0.47417 0.87398 0.38828 0.0
C3908 C 0.46947 0.86834 0.38661 0.0
C3909 C 0.46312 0.86969 0.38288 0.0
C3910 C 0.46157 0.87667 0.38068 0.0
N3911 N 0.48071 0.87283 0.39196 0.0
H3912 H 0.37502 0.22401 0.64187 0.0
H3913 H 0.39748 0.22171 0.63751 0.0
H3914 H 0.38294 0.20513 0.63143 0.0
H3915 H 0.39827 0.22847 0.64761 0.0
C3916 C 0.39409 0.2324 0.64675 0.0
C3917 C 0.37942 0.22091 0.63974 0.0
C3918 C 0.37813 0.21419 0.63666 0.0
C3919 C 0.3864 0.22357 0.64028 0.0
C3920 C 0.3921 0.21961 0.63739 0.0
C3921 C 0.39088 0.21292 0.63427 0.0
C3922 C 0.38391 0.21023 0.634 0.0
N3923 N 0.38751 0.23029 0.64362 0.0
H3924 H 0.03662 0.12432 0.89132 0.0
H3925 H 0.03758 0.14644 0.88515 0.0
H3926 H 0.0537 0.13184 0.87797 0.0
H3927 H 0.03182 0.14767 0.89609 0.0
C3928 C 0.02794 0.14339 0.89561 0.0
C3929 C 0.03927 0.12862 0.88851 0.0
C3930 C 0.04558 0.12727 0.88469 0.0
C3931 C 0.03646 0.13555 0.88889 0.0
C3932 C 0.03986 0.14113 0.88517 0.0
C3933 C 0.04604 0.1398 0.88114 0.0
C3934 C 0.04889 0.13288 0.88102 0.0
N3935 N 0.03005 0.13668 0.89277 0.0
H3936 H 0.36949 0.13697 0.22372 0.0
H3937 H 0.37276 0.11434 0.22149 0.0
H3938 H 0.37901 0.12848 0.20462 0.0
H3939 H 0.3623 0.11441 0.22836 0.0
C3940 C 0.3639 0.11831 0.23235 0.0
C3941 C 0.37132 0.13247 0.22059 0.0
C3942 C 0.37422 0.13357 0.21376 0.0
C3943 C 0.37058 0.12554 0.22333 0.0
C3944 C 0.37306 0.11969 0.21933 0.0
C3945 C 0.37605 0.12072 0.21254 0.0
C3946 C 0.37653 0.12766 0.20978 0.0
N3947 N 0.36751 0.12462 0.2302 0.0
H3948 H 0.1252 0.11892 0.47468 0.0
H3949 H 0.14778 0.12262 0.47262 0.0
H3950 H 0.13365 0.12856 0.45562 0.0
H3951 H 0.14781 0.11205 0.4794 0.0
C3952 C 0.1439 0.11362 0.48339 0.0
C3953 C 0.12969 0.12084 0.47158 0.0
C3954 C 0.12858 0.1237 0.46474 0.0
C3955 C 0.13661 0.12023 0.47437 0.0
C3956 C 0.14244 0.12282 0.47041 0.0
C3957 C 0.1414 0.12577 0.46362 0.0
C3958 C 0.13448 0.12612 0.4608 0.0
N3959 N 0.13755 0.11717 0.48124 0.0
H3960 H 0.13955 0.87588 0.72567 0.0
H3961 H 0.13879 0.89849 0.72154 0.0
H3962 H 0.12877 0.88391 0.70705 0.0
H3963 H 0.14887 0.89851 0.72815 0.0
C3964 C 0.14774 0.89462 0.73229 0.0
C3965 C 0.13798 0.8803 0.72229 0.0
C3966 C 0.13389 0.87904 0.71613 0.0
C3967 C 0.13992 0.88727 0.72422 0.0
C3968 C 0.13761 0.89305 0.71999 0.0
C3969 C 0.13365 0.89184 0.71376 0.0
C3970 C 0.13188 0.88484 0.71184 0.0
N3971 N 0.14385 0.88832 0.73062 0.0
H3972 H 0.38508 0.88858 0.97625 0.0
H3973 H 0.3625 0.88776 0.97189 0.0
H3974 H 0.37723 0.87747 0.95775 0.0
H3975 H 0.36244 0.89799 0.9783 0.0
C3976 C 0.36629 0.89694 0.9825 0.0
C3977 C 0.38069 0.88694 0.97286 0.0
C3978 C 0.38201 0.88274 0.96679 0.0
C3979 C 0.3737 0.88892 0.97468 0.0
C3980 C 0.36796 0.88655 0.97043 0.0
C3981 C 0.36924 0.88248 0.96428 0.0
C3982 C 0.37626 0.88066 0.96248 0.0
N3983 N 0.3726 0.89299 0.98099 0.0
H3984 H 0.36874 0.87553 0.28515 0.0
H3985 H 0.37377 0.89782 0.28764 0.0
H3986 H 0.37931 0.88297 0.30413 0.0
H3987 H 0.36344 0.89886 0.28114 0.0
C3988 C 0.36425 0.8948 0.27708 0.0
C3989 C 0.37099 0.87983 0.28829 0.0
C3990 C 0.37398 0.87841 0.29502 0.0
C3991 C 0.37067 0.88684 0.28568 0.0
C3992 C 0.37372 0.89242 0.28969 0.0
C3993 C 0.37677 0.89106 0.29639 0.0
C3994 C 0.37681 0.88406 0.29903 0.0
N3995 N 0.36735 0.88814 0.27898 0.0
H3996 H 0.38597 0.11854 0.53635 0.0
H3997 H 0.36342 0.12154 0.53968 0.0
H3998 H 0.3783 0.12764 0.55598 0.0
H3999 H 0.36311 0.11148 0.53248 0.0
C4000 C 0.36696 0.11299 0.52842 0.0
C4001 C 0.3816 0.12028 0.53972 0.0
C4002 C 0.38299 0.12306 0.54653 0.0
C4003 C 0.37456 0.11952 0.53728 0.0
C4004 C 0.36886 0.12187 0.5416 0.0
C4005 C 0.37019 0.12474 0.54839 0.0
C4006 C 0.37725 0.12526 0.55081 0.0
N4007 N 0.37336 0.11653 0.53042 0.0
H4008 H 0.13899 0.13582 0.78471 0.0
H4009 H 0.13806 0.11313 0.78834 0.0
H4010 H 0.12808 0.12752 0.80311 0.0
H4011 H 0.14821 0.11329 0.78152 0.0
C4012 C 0.14683 0.1172 0.77747 0.0
C4013 C 0.13738 0.13133 0.78799 0.0
C4014 C 0.13333 0.1325 0.79418 0.0
C4015 C 0.13921 0.12439 0.78588 0.0
C4016 C 0.1369 0.11854 0.79001 0.0
C4017 C 0.13296 0.11966 0.79628 0.0
C4018 C 0.13122 0.12664 0.79832 0.0
N4019 N 0.143 0.12346 0.77938 0.0
H4020 H 0.12488 0.88871 0.03475 0.0
H4021 H 0.14742 0.8856 0.03796 0.0
H4022 H 0.13256 0.87939 0.05426 0.0
H4023 H 0.14786 0.89561 0.03077 0.0
C4024 C 0.14387 0.8943 0.02677 0.0
C4025 C 0.12926 0.88695 0.03809 0.0
C4026 C 0.12789 0.88407 0.04486 0.0
C4027 C 0.13629 0.88775 0.03566 0.0
C4028 C 0.14198 0.88529 0.03991 0.0
C4029 C 0.14067 0.88231 0.04665 0.0
C4030 C 0.13362 0.88183 0.04913 0.0
N4031 N 0.13745 0.89083 0.02883 0.0
H4032 H 0.22696 0.37179 0.13554 0.0
H4033 H 0.22352 0.3754 0.1131 0.0
H4034 H 0.2114 0.38713 0.12856 0.0
H4035 H 0.22865 0.36453 0.11202 0.0
C4036 C 0.23277 0.36465 0.1161 0.0
C4037 C 0.22413 0.37448 0.13128 0.0
C4038 C 0.219 0.37969 0.1329 0.0
C4039 C 0.22578 0.37283 0.12417 0.0
C4040 C 0.22218 0.37642 0.11861 0.0
C4041 C 0.21702 0.38163 0.12018 0.0
C4042 C 0.21548 0.38322 0.12732 0.0
N4043 N 0.23139 0.3679 0.12281 0.0
H4044 H 0.72569 0.14078 0.87334 0.0
H4045 H 0.72136 0.13958 0.89589 0.0
H4046 H 0.70764 0.12886 0.88104 0.0
H4047 H 0.72758 0.14994 0.89608 0.0
C4048 C 0.73181 0.14897 0.89224 0.0
C4049 C 0.72237 0.13896 0.87772 0.0
C4050 C 0.71646 0.13457 0.87636 0.0
C4051 C 0.72414 0.1409 0.88473 0.0
C4052 C 0.71996 0.13834 0.89043 0.0
C4053 C 0.71395 0.13408 0.88911 0.0
C4054 C 0.71224 0.13223 0.88207 0.0
N4055 N 0.73036 0.1451 0.88588 0.0
H4056 H 0.11933 0.47465 0.12476 0.0
H4057 H 0.12257 0.4715 0.14729 0.0
H4058 H 0.12785 0.45481 0.13253 0.0
H4059 H 0.11269 0.479 0.14762 0.0
C4060 C 0.1143 0.48298 0.14374 0.0
C4061 C 0.12102 0.47128 0.12915 0.0
C4062 C 0.12352 0.46434 0.12782 0.0
C4063 C 0.12046 0.47383 0.13617 0.0
C4064 C 0.12275 0.46951 0.14188 0.0
C4065 C 0.12536 0.4626 0.1406 0.0
C4066 C 0.12567 0.46007 0.13357 0.0
N4067 N 0.11773 0.48082 0.13733 0.0
H4068 H 0.78479 0.87227 0.37406 0.0
H4069 H 0.78965 0.87168 0.39653 0.0
H4070 H 0.80415 0.88173 0.38193 0.0
H4071 H 0.78221 0.86201 0.39622 0.0
C4072 C 0.77807 0.86375 0.39256 0.0
C4073 C 0.78837 0.87346 0.37845 0.0
C4074 C 0.7947 0.87724 0.37718 0.0
C4075 C 0.78653 0.87134 0.38539 0.0
C4076 C 0.79108 0.87308 0.39112 0.0
C4077 C 0.7975 0.87674 0.38988 0.0
C4078 C 0.79925 0.8788 0.3829 0.0
N4079 N 0.77988 0.86784 0.38644 0.0
H4080 H 0.88883 0.03428 0.12542 0.0
H4081 H 0.88866 0.03956 0.1478 0.0
H4082 H 0.87849 0.05343 0.13271 0.0
H4083 H 0.8983 0.03243 0.1481 0.0
C4084 C 0.89707 0.02822 0.14432 0.0
C4085 C 0.8874 0.03789 0.1297 0.0
C4086 C 0.88341 0.04406 0.12822 0.0
C4087 C 0.88942 0.03626 0.13672 0.0
C4088 C 0.88735 0.04083 0.14233 0.0
C4089 C 0.88348 0.04709 0.14089 0.0
C4090 C 0.88155 0.04865 0.13383 0.0
N4091 N 0.89321 0.0298 0.13798 0.0
H4092 H 0.28761 0.64206 0.63474 0.0
H4093 H 0.2883 0.63557 0.61268 0.0
H4094 H 0.30379 0.62749 0.62744 0.0
H4095 H 0.28261 0.64621 0.61112 0.0
C4096 C 0.27893 0.64631 0.61559 0.0
C4097 C 0.29009 0.63902 0.63049 0.0
C4098 C 0.29613 0.63481 0.63191 0.0
C4099 C 0.28732 0.63949 0.62355 0.0
C4100 C 0.29051 0.63551 0.61802 0.0
C4101 C 0.29641 0.63112 0.61943 0.0
C4102 C 0.2992 0.63085 0.62636 0.0
N4103 N 0.28114 0.64374 0.62238 0.0
H4104 H 0.12049 0.53493 0.38518 0.0
H4105 H 0.1225 0.53872 0.36259 0.0
H4106 H 0.13234 0.55302 0.3775 0.0
H4107 H 0.11226 0.5323 0.36217 0.0
C4108 C 0.11318 0.52818 0.36613 0.0
C4109 C 0.1224 0.53818 0.3808 0.0
C4110 C 0.12661 0.54421 0.38218 0.0
C4111 C 0.12078 0.53619 0.37376 0.0
C4112 C 0.12348 0.54028 0.36806 0.0
C4113 C 0.12757 0.54642 0.36939 0.0
C4114 C 0.12909 0.54834 0.37646 0.0
N4115 N 0.11677 0.52986 0.3726 0.0
H4116 H 0.38918 0.4752 0.88643 0.0
H4117 H 0.38951 0.47175 0.86372 0.0
H4118 H 0.37991 0.45619 0.87747 0.0
H4119 H 0.39963 0.47877 0.86465 0.0
C4120 C 0.39772 0.48282 0.86833 0.0
C4121 C 0.38801 0.47185 0.88187 0.0
C4122 C 0.3843 0.4654 0.8828 0.0
C4123 C 0.39005 0.47412 0.87503 0.0
C4124 C 0.38824 0.46993 0.86905 0.0
C4125 C 0.38463 0.46343 0.86993 0.0
C4126 C 0.38276 0.46118 0.8768 0.0
N4127 N 0.39351 0.48083 0.87431 0.0
H4128 H 0.87415 0.78619 0.64034 0.0
H4129 H 0.89656 0.78826 0.63569 0.0
H4130 H 0.88209 0.80499 0.62982 0.0
H4131 H 0.89737 0.78159 0.64588 0.0
C4132 C 0.89319 0.77766 0.64502 0.0
C4133 C 0.87854 0.78924 0.63815 0.0
C4134 C 0.87728 0.79598 0.63511 0.0
C4135 C 0.8855 0.78651 0.63859 0.0
C4136 C 0.8912 0.79042 0.63564 0.0
C4137 C 0.89001 0.79712 0.63253 0.0
C4138 C 0.88306 0.79988 0.63236 0.0
N4139 N 0.8866 0.77977 0.64191 0.0
H4140 H 0.97654 0.12523 0.38729 0.0
H4141 H 0.97273 0.14742 0.38268 0.0
H4142 H 0.95649 0.1319 0.37828 0.0
H4143 H 0.98463 0.14766 0.3817 0.0
C4144 C 0.98649 0.14417 0.38593 0.0
C4145 C 0.97306 0.12942 0.38533 0.0
C4146 C 0.96616 0.12773 0.3829 0.0
C4147 C 0.97553 0.13648 0.38518 0.0
C4148 C 0.971 0.14191 0.38264 0.0
C4149 C 0.96411 0.1403 0.38017 0.0
C4150 C 0.96172 0.13321 0.38038 0.0
N4151 N 0.98254 0.13794 0.38772 0.0
H4152 H 0.63678 0.22714 0.13655 0.0
H4153 H 0.61444 0.2235 0.13272 0.0
H4154 H 0.6296 0.20684 0.12856 0.0
H4155 H 0.61494 0.23541 0.13016 0.0
C4156 C 0.61816 0.23738 0.13456 0.0
C4157 C 0.6325 0.22363 0.13488 0.0
C4158 C 0.63403 0.21662 0.13269 0.0
C4159 C 0.62548 0.2262 0.13479 0.0
C4160 C 0.61991 0.22165 0.13261 0.0
C4161 C 0.62135 0.21464 0.1304 0.0
C4162 C 0.62842 0.21216 0.1305 0.0
N4163 N 0.62414 0.23336 0.13693 0.0
H4164 H 0.53377 0.88668 0.88598 0.0
H4165 H 0.53744 0.86399 0.88572 0.0
H4166 H 0.55274 0.87813 0.87625 0.0
H4167 H 0.53043 0.86454 0.89582 0.0
C4168 C 0.52637 0.86835 0.89418 0.0
C4169 C 0.53715 0.88217 0.88464 0.0
C4170 C 0.54354 0.88325 0.88089 0.0
C4171 C 0.53496 0.87527 0.88654 0.0
C4172 C 0.53918 0.86937 0.88454 0.0
C4173 C 0.54563 0.87039 0.88088 0.0
C4174 C 0.54779 0.87734 0.87914 0.0
N4175 N 0.52832 0.87443 0.8901 0.0
H4176 H 0.87583 0.22457 0.86881 0.0
H4177 H 0.8982 0.22193 0.87338 0.0
H4178 H 0.88335 0.20555 0.87925 0.0
H4179 H 0.89911 0.22866 0.86322 0.0
C4180 C 0.89503 0.23268 0.86412 0.0
C4181 C 0.88015 0.2214 0.87098 0.0
C4182 C 0.87873 0.21469 0.87399 0.0
C4183 C 0.88717 0.22397 0.87053 0.0
C4184 C 0.89279 0.21991 0.87344 0.0
C4185 C 0.89144 0.21322 0.87652 0.0
C4186 C 0.88442 0.21064 0.87672 0.0
N4187 N 0.88841 0.2307 0.86725 0.0
H4188 H 0.5355 0.12417 0.61959 0.0
H4189 H 0.53932 0.1466 0.62287 0.0
H4190 H 0.55514 0.13128 0.62912 0.0
H4191 H 0.53237 0.14736 0.61294 0.0
C4192 C 0.5282 0.14348 0.61403 0.0
C4193 C 0.53892 0.12844 0.62145 0.0
C4194 C 0.54565 0.12687 0.62436 0.0
C4195 C 0.53667 0.13555 0.62069 0.0
C4196 C 0.54108 0.14111 0.6232 0.0
C4197 C 0.54778 0.1396 0.62616 0.0
C4198 C 0.55003 0.13248 0.62668 0.0
N4199 N 0.52995 0.13694 0.61746 0.0
H4200 H 0.63684 0.78413 0.37214 0.0
H4201 H 0.61419 0.78806 0.37246 0.0
H4202 H 0.62848 0.80256 0.38297 0.0
H4203 H 0.61466 0.78143 0.36211 0.0
C4204 C 0.61837 0.77726 0.36367 0.0
C4205 C 0.63236 0.78745 0.37365 0.0
C4206 C 0.63349 0.7936 0.37778 0.0
C4207 C 0.62544 0.78546 0.37161 0.0
C4208 C 0.61958 0.78964 0.37379 0.0
C4209 C 0.62067 0.79586 0.37783 0.0
C4210 C 0.62763 0.79781 0.37977 0.0
N4211 N 0.62452 0.77899 0.36776 0.0
H4212 H 0.97656 0.88659 0.12385 0.0
H4213 H 0.97169 0.86415 0.1229 0.0
H4214 H 0.95713 0.8786 0.13308 0.0
H4215 H 0.97895 0.86473 0.11304 0.0
C4216 C 0.98315 0.86827 0.1149 0.0
C4217 C 0.97295 0.88221 0.12495 0.0
C4218 C 0.9666 0.88344 0.12873 0.0
C4219 C 0.97479 0.8753 0.12272 0.0
C4220 C 0.97024 0.86954 0.12437 0.0
C4221 C 0.96382 0.87072 0.12805 0.0
C4222 C 0.96204 0.87768 0.13017 0.0
N4223 N 0.98142 0.87428 0.11919 0.0
H4224 H 0.63824 0.87503 0.78388 0.0
H4225 H 0.63566 0.89736 0.78866 0.0
H4226 H 0.63043 0.8816 0.80441 0.0
H4227 H 0.6342 0.89813 0.77682 0.0
C4228 C 0.63807 0.89439 0.77468 0.0
C4229 C 0.63675 0.87923 0.78757 0.0
C4230 C 0.63443 0.87749 0.79447 0.0
C4231 C 0.63711 0.88637 0.78537 0.0
C4232 C 0.63519 0.89182 0.79019 0.0
C4233 C 0.63279 0.89015 0.79709 0.0
C4234 C 0.63248 0.88297 0.79918 0.0
N4235 N 0.63952 0.8879 0.77834 0.0
H4236 H 0.88546 0.88888 0.53375 0.0
H4237 H 0.86317 0.88824 0.53946 0.0
H4238 H 0.8787 0.8779 0.55271 0.0
H4239 H 0.8624 0.89775 0.53231 0.0
C4240 C 0.86625 0.89679 0.52809 0.0
C4241 C 0.88125 0.88728 0.53739 0.0
C4242 C 0.88291 0.88314 0.5434 0.0
C4243 C 0.87417 0.88922 0.53593 0.0
C4244 C 0.86869 0.88697 0.54057 0.0
C4245 C 0.87031 0.88298 0.54669 0.0
C4246 C 0.87742 0.88108 0.54804 0.0
N4247 N 0.87273 0.89314 0.52958 0.0
H4248 H 0.87043 0.13591 0.28485 0.0
H4249 H 0.87721 0.11414 0.28774 0.0
H4250 H 0.88317 0.13015 0.30301 0.0
H4251 H 0.86717 0.11182 0.28138 0.0
C4252 C 0.86709 0.11605 0.27743 0.0
C4253 C 0.87322 0.1319 0.28794 0.0
C4254 C 0.87676 0.13384 0.29424 0.0
C4255 C 0.87311 0.12476 0.28568 0.0
C4256 C 0.8769 0.11958 0.28962 0.0
C4257 C 0.88063 0.12151 0.29583 0.0
C4258 C 0.8804 0.12862 0.29817 0.0
N4259 N 0.86941 0.12303 0.27929 0.0
H4260 H 0.62519 0.12078 0.03528 0.0
H4261 H 0.64771 0.12414 0.03839 0.0
H4262 H 0.63292 0.12964 0.05499 0.0
H4263 H 0.64816 0.11433 0.0309 0.0
C4264 C 0.64416 0.11576 0.02696 0.0
C4265 C 0.62957 0.12254 0.03862 0.0
C4266 C 0.62821 0.12515 0.04551 0.0
C4267 C 0.63659 0.12197 0.03609 0.0
C4268 C 0.64229 0.12434 0.04038 0.0
C4269 C 0.641 0.12705 0.04724 0.0
C4270 C 0.63396 0.12738 0.04976 0.0
N4271 N 0.63773 0.11914 0.02915 0.0
H4272 H 0.63909 0.13525 0.72448 0.0
H4273 H 0.6361 0.11269 0.7213 0.0
H4274 H 0.63043 0.12741 0.70472 0.0
H4275 H 0.64563 0.11225 0.72903 0.0
C4276 C 0.64422 0.11633 0.7329 0.0
C4277 C 0.63741 0.13086 0.72112 0.0
C4278 C 0.63479 0.13219 0.71423 0.0
C4279 C 0.63809 0.12385 0.72365 0.0
C4280 C 0.63583 0.11811 0.71933 0.0
C4281 C 0.63314 0.11937 0.71246 0.0
C4282 C 0.63268 0.12641 0.70995 0.0
N4283 N 0.6409 0.12275 0.7306 0.0
H4284 H 0.62363 0.88795 0.47668 0.0
H4285 H 0.64627 0.88728 0.47266 0.0
H4286 H 0.63181 0.87677 0.45838 0.0
H4287 H 0.64602 0.89765 0.47896 0.0
C4288 C 0.64228 0.89638 0.4832 0.0
C4289 C 0.62809 0.88632 0.47337 0.0
C4290 C 0.62689 0.88211 0.46729 0.0
C4291 C 0.63504 0.88832 0.47531 0.0
C4292 C 0.64085 0.88599 0.47113 0.0
C4293 C 0.6397 0.88191 0.46496 0.0
C4294 C 0.63271 0.88001 0.46309 0.0
N4295 N 0.63605 0.89234 0.48167 0.0
H4296 H 0.87128 0.87395 0.22525 0.0
H4297 H 0.87483 0.89644 0.2222 0.0
H4298 H 0.88143 0.88153 0.20611 0.0
H4299 H 0.86468 0.89711 0.22893 0.0
C4300 C 0.8657 0.8931 0.23299 0.0
C4301 C 0.87323 0.87832 0.222 0.0
C4302 C 0.87636 0.87691 0.21533 0.0
C4303 C 0.87243 0.88535 0.22441 0.0
C4304 C 0.87513 0.89101 0.22027 0.0
C4305 C 0.87835 0.88967 0.21363 0.0
C4306 C 0.87883 0.88262 0.21116 0.0
N4307 N 0.86906 0.88657 0.2311 0.0
H4308 H 0.88454 0.12425 0.97719 0.0
H4309 H 0.86238 0.12535 0.97108 0.0
H4310 H 0.8784 0.13473 0.95773 0.0
H4311 H 0.86044 0.12447 0.98255 0.0
C4312 C 0.86468 0.12129 0.98486 0.0
C4313 C 0.88044 0.12586 0.97344 0.0
C4314 C 0.88232 0.12961 0.96724 0.0
C4315 C 0.87325 0.12449 0.97503 0.0
C4316 C 0.86793 0.12661 0.97014 0.0
C4317 C 0.86976 0.13028 0.96387 0.0
C4318 C 0.87696 0.13177 0.96249 0.0
N4319 N 0.87154 0.1211 0.98161 0.0
H4320 H 0.78509 0.6383 0.87344 0.0
H4321 H 0.78863 0.6386 0.89612 0.0
H4322 H 0.80395 0.62865 0.88233 0.0
H4323 H 0.78189 0.64893 0.89517 0.0
C4324 C 0.77777 0.64711 0.89152 0.0
C4325 C 0.78844 0.63706 0.87799 0.0
C4326 C 0.79481 0.63322 0.87702 0.0
C4327 C 0.78624 0.63917 0.88482 0.0
C4328 C 0.7904 0.63727 0.89079 0.0
C4329 C 0.79681 0.63351 0.8899 0.0
C4330 C 0.79901 0.63159 0.88301 0.0
N4331 N 0.77963 0.6428 0.88556 0.0
H4332 H 0.28523 0.87151 0.13546 0.0
H4333 H 0.28856 0.87591 0.11316 0.0
H4334 H 0.3057 0.8788 0.12804 0.0
H4335 H 0.27675 0.87845 0.11369 0.0
C4336 C 0.27469 0.8742 0.11704 0.0
C4337 C 0.28871 0.8732 0.13116 0.0
C4338 C 0.29585 0.87498 0.13258 0.0
C4339 C 0.28598 0.87364 0.1242 0.0
C4340 C 0.29051 0.87577 0.11859 0.0
C4341 C 0.29766 0.87757 0.11993 0.0
C4342 C 0.30027 0.87716 0.12693 0.0
N4343 N 0.27872 0.87178 0.12299 0.0
H4344 H 0.89054 0.53575 0.88506 0.0
H4345 H 0.88636 0.53775 0.86255 0.0
H4346 H 0.87986 0.55437 0.87686 0.0
H4347 H 0.89673 0.53126 0.86201 0.0
C4348 C 0.89579 0.5273 0.86614 0.0
C4349 C 0.88839 0.53877 0.88062 0.0
C4350 C 0.8852 0.54546 0.88181 0.0
C4351 C 0.88904 0.53605 0.87367 0.0
C4352 C 0.88615 0.5399 0.86791 0.0
C4353 C 0.88292 0.54656 0.86903 0.0
C4354 C 0.88252 0.54931 0.87597 0.0
N4355 N 0.89249 0.52936 0.87265 0.0
H4356 H 0.2273 0.13838 0.63629 0.0
H4357 H 0.22193 0.13836 0.61393 0.0
H4358 H 0.20844 0.12757 0.62898 0.0
H4359 H 0.22902 0.14823 0.61379 0.0
C4360 C 0.23326 0.14682 0.61748 0.0
C4361 C 0.22371 0.1369 0.632 0.0
C4362 C 0.21767 0.13274 0.63346 0.0
C4363 C 0.22528 0.13902 0.625 0.0
C4364 C 0.22072 0.13693 0.61939 0.0
C4365 C 0.21457 0.13288 0.62082 0.0
C4366 C 0.21311 0.1308 0.62785 0.0
N4367 N 0.23169 0.14287 0.62376 0.0
H4368 H 0.1227 0.9766 0.88553 0.0
H4369 H 0.12305 0.97096 0.86323 0.0
H4370 H 0.13409 0.95796 0.8785 0.0
H4371 H 0.11314 0.9777 0.86281 0.0
C4372 C 0.11415 0.98199 0.86657 0.0
C4373 C 0.12434 0.97302 0.88129 0.0
C4374 C 0.12866 0.96711 0.88284 0.0
C4375 C 0.12221 0.97444 0.87426 0.0
C4376 C 0.12448 0.96988 0.86872 0.0
C4377 C 0.12868 0.96386 0.87024 0.0
C4378 C 0.13076 0.96255 0.87731 0.0
N4379 N 0.11808 0.98066 0.87292 0.0
H4380 H 0.72719 0.37342 0.37404 0.0
H4381 H 0.72285 0.3746 0.39659 0.0
H4382 H 0.70897 0.38509 0.38172 0.0
H4383 H 0.72925 0.36437 0.3968 0.0
C4384 C 0.73345 0.36536 0.39294 0.0
C4385 C 0.72385 0.37519 0.37841 0.0
C4386 C 0.71787 0.37949 0.37705 0.0
C4387 C 0.72566 0.3733 0.38542 0.0
C4388 C 0.72144 0.37581 0.39113 0.0
C4389 C 0.71536 0.37998 0.3898 0.0
C4390 C 0.71362 0.38179 0.38276 0.0
N4391 N 0.73193 0.36919 0.38658 0.0
H4392 H 0.88795 0.47654 0.6242 0.0
H4393 H 0.8882 0.47156 0.64664 0.0
H4394 H 0.87809 0.4573 0.63184 0.0
H4395 H 0.89786 0.47893 0.64658 0.0
C4396 C 0.8963 0.48308 0.64285 0.0
C4397 C 0.88665 0.47295 0.62855 0.0
C4398 C 0.88278 0.46669 0.6272 0.0
C4399 C 0.88871 0.47473 0.63552 0.0
C4400 C 0.88684 0.47018 0.64121 0.0
C4401 C 0.88309 0.46382 0.63989 0.0
C4402 C 0.88108 0.46214 0.63288 0.0
N4403 N 0.89231 0.48132 0.63665 0.0
H4404 H 0.6191 0.53623 0.12485 0.0
H4405 H 0.62311 0.53843 0.14736 0.0
H4406 H 0.62983 0.55486 0.13295 0.0
H4407 H 0.61252 0.5322 0.14781 0.0
C4408 C 0.61351 0.52813 0.14379 0.0
C4409 C 0.62123 0.53928 0.12927 0.0
C4410 C 0.62448 0.54593 0.12805 0.0
C4411 C 0.6205 0.53664 0.13624 0.0
C4412 C 0.62338 0.54053 0.14199 0.0
C4413 C 0.62668 0.54714 0.14083 0.0
C4414 C 0.62714 0.54982 0.13387 0.0
N4415 N 0.61697 0.53001 0.13731 0.0
H4416 H 0.63548 0.72469 0.87018 0.0
H4417 H 0.6129 0.72277 0.87397 0.0
H4418 H 0.62696 0.7057 0.87989 0.0
H4419 H 0.61279 0.72961 0.86353 0.0
C4420 C 0.61682 0.73353 0.86494 0.0
C4421 C 0.63098 0.72162 0.87212 0.0
C4422 C 0.63206 0.71478 0.875 0.0
C4423 C 0.62407 0.72445 0.87153 0.0
C4424 C 0.61822 0.72053 0.87415 0.0
C4425 C 0.61924 0.71373 0.87711 0.0
C4426 C 0.62615 0.71088 0.87744 0.0
N4427 N 0.62318 0.73131 0.86843 0.0
H4428 H 0.53696 0.38525 0.11886 0.0
H4429 H 0.53737 0.36372 0.1269 0.0
H4430 H 0.55362 0.37859 0.13316 0.0
H4431 H 0.53215 0.36161 0.11592 0.0
C4432 C 0.52829 0.36594 0.11578 0.0
C4433 C 0.53946 0.38116 0.12209 0.0
C4434 C 0.54569 0.38271 0.12594 0.0
C4435 C 0.53656 0.37426 0.1222 0.0
C4436 C 0.53976 0.36896 0.12649 0.0
C4437 C 0.54586 0.37053 0.13054 0.0
C4438 C 0.54884 0.37738 0.13013 0.0
N4439 N 0.53029 0.37285 0.11817 0.0
H4440 H 0.8742 0.28473 0.37117 0.0
H4441 H 0.89665 0.28934 0.37278 0.0
H4442 H 0.88121 0.30513 0.37896 0.0
H4443 H 0.89701 0.28149 0.36329 0.0
C4444 C 0.89331 0.2774 0.36506 0.0
C4445 C 0.87848 0.2884 0.37249 0.0
C4446 C 0.87687 0.29525 0.37505 0.0
C4447 C 0.88558 0.2863 0.37144 0.0
C4448 C 0.89115 0.291 0.3733 0.0
C4449 C 0.88961 0.29784 0.37598 0.0
C4450 C 0.88246 0.29993 0.37674 0.0
N4451 N 0.88696 0.27935 0.36872 0.0
H4452 H 0.97652 0.62486 0.621 0.0
H4453 H 0.97091 0.64717 0.62103 0.0
H4454 H 0.95761 0.63201 0.63183 0.0
H4455 H 0.978 0.64757 0.6114 0.0
C4456 C 0.98222 0.64377 0.6125 0.0
C4457 C 0.97291 0.62912 0.62249 0.0
C4458 C 0.96689 0.62761 0.62668 0.0
C4459 C 0.97439 0.63614 0.62035 0.0
C4460 C 0.96978 0.6417 0.62246 0.0
C4461 C 0.96365 0.64022 0.62651 0.0
C4462 C 0.96227 0.63317 0.62861 0.0
N4463 N 0.98074 0.63743 0.61639 0.0
H4464 H 0.6354 0.28619 0.6408 0.0
H4465 H 0.6129 0.28964 0.63766 0.0
H4466 H 0.62794 0.30572 0.63132 0.0
H4467 H 0.61231 0.28242 0.64761 0.0
C4468 C 0.61628 0.27839 0.64631 0.0
C4469 C 0.63106 0.28957 0.63902 0.0
C4470 C 0.63252 0.2963 0.63608 0.0
C4471 C 0.624 0.28722 0.63984 0.0
C4472 C 0.61836 0.29152 0.63735 0.0
C4473 C 0.61975 0.29823 0.63432 0.0
C4474 C 0.62683 0.30062 0.63381 0.0
N4475 N 0.62276 0.2804 0.64293 0.0
H4476 H 0.97638 0.38674 0.8905 0.0
H4477 H 0.97326 0.36422 0.88708 0.0
H4478 H 0.96096 0.37942 0.87517 0.0
H4479 H 0.97792 0.36349 0.89829 0.0
C4480 C 0.98215 0.36745 0.89803 0.0
C4481 C 0.97362 0.38242 0.88783 0.0
C4482 C 0.96848 0.38393 0.8826 0.0
C4483 C 0.97534 0.37534 0.88956 0.0
C4484 C 0.97184 0.36971 0.886 0.0
C4485 C 0.96669 0.37116 0.88075 0.0
C4486 C 0.96505 0.37827 0.8791 0.0
N4487 N 0.98092 0.37407 0.89454 0.0
H4488 H 0.8755 0.7268 0.13676 0.0
H4489 H 0.89783 0.72158 0.13852 0.0
H4490 H 0.88344 0.70699 0.12831 0.0
H4491 H 0.89706 0.72908 0.1482 0.0
C4492 C 0.89364 0.73329 0.14614 0.0
C4493 C 0.87985 0.72309 0.13589 0.0
C4494 C 0.87863 0.71667 0.13224 0.0
C4495 C 0.88672 0.72486 0.1383 0.0
C4496 C 0.89245 0.72018 0.13693 0.0
C4497 C 0.89127 0.7137 0.13338 0.0
C4498 C 0.88435 0.71197 0.13111 0.0
N4499 N 0.88774 0.73156 0.14171 0.0
H4500 H 0.53427 0.6244 0.39081 0.0
H4501 H 0.53765 0.64682 0.38713 0.0
H4502 H 0.55367 0.63167 0.38091 0.0
H4503 H 0.53086 0.64766 0.39719 0.0
C4504 C 0.52674 0.6437 0.39619 0.0
C4505 C 0.5376 0.62871 0.38887 0.0
C4506 C 0.5443 0.6272 0.38587 0.0
C4507 C 0.53526 0.63578 0.38959 0.0
C4508 C 0.53952 0.64136 0.3869 0.0
C4509 C 0.54619 0.63992 0.38381 0.0
C4510 C 0.54858 0.63283 0.38342 0.0
N4511 N 0.52855 0.63712 0.39288 0.0
H4512 H 0.87101 0.6365 0.72546 0.0
H4513 H 0.87245 0.61395 0.72116 0.0
H4514 H 0.88263 0.62892 0.70718 0.0
H4515 H 0.86212 0.61371 0.72749 0.0
C4516 C 0.86319 0.61751 0.73174 0.0
C4517 C 0.87281 0.63214 0.72211 0.0
C4518 C 0.87704 0.63354 0.71609 0.0
C4519 C 0.87102 0.6251 0.72394 0.0
C4520 C 0.87357 0.61942 0.71971 0.0
C4521 C 0.87768 0.62078 0.71361 0.0
C4522 C 0.87938 0.62785 0.71184 0.0
N4523 N 0.86699 0.6239 0.73025 0.0
H4524 H 0.62538 0.61806 0.97412 0.0
H4525 H 0.64796 0.62177 0.97211 0.0
H4526 H 0.63381 0.62805 0.95524 0.0
H4527 H 0.64805 0.61118 0.97877 0.0
C4528 C 0.64408 0.61261 0.98275 0.0
C4529 C 0.62986 0.62003 0.97105 0.0
C4530 C 0.62875 0.62303 0.96427 0.0
C4531 C 0.63679 0.61936 0.97382 0.0
C4532 C 0.64262 0.62202 0.96991 0.0
C4533 C 0.64157 0.6251 0.96317 0.0
C4534 C 0.63465 0.62551 0.96037 0.0
N4535 N 0.63772 0.61616 0.98063 0.0
H4536 H 0.63943 0.37441 0.22508 0.0
H4537 H 0.63932 0.39708 0.22131 0.0
H4538 H 0.63011 0.3829 0.20589 0.0
H4539 H 0.6493 0.39655 0.22849 0.0
C4540 C 0.64754 0.39279 0.23254 0.0
C4541 C 0.63819 0.3789 0.22166 0.0
C4542 C 0.63454 0.3778 0.21521 0.0
C4543 C 0.64008 0.38581 0.22384 0.0
C4544 C 0.63817 0.39169 0.21957 0.0
C4545 C 0.63463 0.39064 0.21306 0.0
C4546 C 0.63291 0.38369 0.21089 0.0
N4547 N 0.64351 0.38668 0.23055 0.0
H4548 H 0.88613 0.38822 0.47619 0.0
H4549 H 0.86352 0.3872 0.47213 0.0
H4550 H 0.87818 0.37741 0.45756 0.0
H4551 H 0.86352 0.39744 0.47865 0.0
C4552 C 0.86736 0.39626 0.48283 0.0
C4553 C 0.88172 0.3866 0.47283 0.0
C4554 C 0.88301 0.38256 0.46664 0.0
C4555 C 0.87473 0.38844 0.47479 0.0
C4556 C 0.86896 0.38608 0.47057 0.0
C4557 C 0.8702 0.38216 0.46431 0.0
C4558 C 0.87723 0.38048 0.46237 0.0
N4559 N 0.87366 0.39234 0.48121 0.0
H4560 H 0.87148 0.37441 0.78472 0.0
H4561 H 0.87117 0.39688 0.78967 0.0
H4562 H 0.88108 0.38208 0.80407 0.0
H4563 H 0.86163 0.39682 0.78211 0.0
C4564 C 0.86329 0.39309 0.778 0.0
C4565 C 0.87272 0.37877 0.78831 0.0
C4566 C 0.8765 0.37743 0.79463 0.0
C4567 C 0.87069 0.38574 0.78649 0.0
C4568 C 0.8725 0.39144 0.79107 0.0
C4569 C 0.87616 0.39013 0.79748 0.0
C4570 C 0.87813 0.38312 0.79919 0.0
N4571 N 0.86722 0.38687 0.77984 0.0
H4572 H 0.88641 0.61826 0.03673 0.0
H4573 H 0.8639 0.62246 0.03855 0.0
H4574 H 0.87807 0.62864 0.05544 0.0
H4575 H 0.86358 0.61192 0.0319 0.0
C4576 C 0.86766 0.61318 0.02797 0.0
C4577 C 0.88195 0.62036 0.03975 0.0
C4578 C 0.88308 0.62341 0.0465 0.0
C4579 C 0.87503 0.6198 0.03694 0.0
C4580 C 0.86923 0.62262 0.04078 0.0
C4581 C 0.87029 0.62576 0.04749 0.0
C4582 C 0.87721 0.62606 0.05033 0.0
N4583 N 0.87409 0.61655 0.03015 0.0
H4584 H 0.64078 0.63536 0.28605 0.0
H4585 H 0.63776 0.61286 0.28961 0.0
H4586 H 0.63176 0.62792 0.30578 0.0
H4587 H 0.64764 0.61237 0.28224 0.0
C4588 C 0.64623 0.61628 0.2782 0.0
C4589 C 0.63905 0.63103 0.28946 0.0
C4590 C 0.63631 0.63249 0.29627 0.0
C4591 C 0.63979 0.62396 0.28709 0.0
C4592 C 0.63745 0.61832 0.29147 0.0
C4593 C 0.63462 0.61972 0.29826 0.0
C4594 C 0.63412 0.6268 0.30062 0.0
N4595 N 0.64275 0.62272 0.28022 0.0
H4596 H 0.62658 0.39253 0.53567 0.0
H4597 H 0.64829 0.38495 0.53642 0.0
H4598 H 0.63318 0.37802 0.55217 0.0
H4599 H 0.65027 0.39604 0.53142 0.0
C4600 C 0.64601 0.3962 0.52749 0.0
C4601 C 0.63069 0.38932 0.53819 0.0
C4602 C 0.62907 0.38532 0.54431 0.0
C4603 C 0.63765 0.38941 0.53544 0.0
C4604 C 0.64297 0.38518 0.53868 0.0
C4605 C 0.64136 0.38098 0.54466 0.0
C4606 C 0.63443 0.38116 0.54748 0.0
N4607 N 0.63911 0.39361 0.5293 0.0
H4608 H 0.7239 0.86802 0.63422 0.0
H4609 H 0.7229 0.87604 0.6127 0.0
H4610 H 0.70695 0.88215 0.62794 0.0
H4611 H 0.72858 0.86546 0.61039 0.0
C4612 C 0.73239 0.8652 0.61475 0.0
C4613 C 0.72127 0.87122 0.63018 0.0
C4614 C 0.71503 0.87501 0.63188 0.0
C4615 C 0.72403 0.87136 0.62322 0.0
C4616 C 0.72066 0.8756 0.618 0.0
C4617 C 0.71454 0.87958 0.6197 0.0
C4618 C 0.71172 0.87916 0.62662 0.0
N4619 N 0.73033 0.86741 0.62171 0.0
H4620 H 0.22593 0.63944 0.37369 0.0
H4621 H 0.22323 0.63619 0.39628 0.0
H4622 H 0.2102 0.62464 0.38143 0.0
H4623 H 0.22872 0.64702 0.39701 0.0
C4624 C 0.23268 0.64664 0.3928 0.0
C4625 C 0.22317 0.6369 0.37808 0.0
C4626 C 0.21783 0.63182 0.3767 0.0
C4627 C 0.22511 0.63859 0.38511 0.0
C4628 C 0.22164 0.63515 0.39083 0.0
C4629 C 0.21631 0.63005 0.38951 0.0
C4630 C 0.21443 0.62846 0.38245 0.0
N4631 N 0.23092 0.64334 0.3862 0.0
H4632 H 0.62115 0.97603 0.62489 0.0
H4633 H 0.62535 0.9729 0.64727 0.0
H4634 H 0.63636 0.96025 0.63169 0.0
H4635 H 0.61438 0.97788 0.64848 0.0
C4636 C 0.61442 0.982 0.64441 0.0
C4637 C 0.62392 0.97322 0.62912 0.0
C4638 C 0.62897 0.96795 0.62743 0.0
C4639 C 0.62249 0.97499 0.63625 0.0
C4640 C 0.62619 0.97144 0.64175 0.0
C4641 C 0.63126 0.96616 0.64013 0.0
C4642 C 0.63259 0.96445 0.63296 0.0
N4643 N 0.61764 0.98066 0.63767 0.0
H4644 H 0.28567 0.37075 0.87447 0.0
H4645 H 0.28827 0.37403 0.89707 0.0
H4646 H 0.30074 0.3862 0.88227 0.0
H4647 H 0.28344 0.36289 0.89767 0.0
C4648 C 0.27935 0.36318 0.89357 0.0
C4649 C 0.28832 0.3734 0.87887 0.0
C4650 C 0.29344 0.37869 0.87751 0.0
C4651 C 0.28644 0.37161 0.88589 0.0
C4652 C 0.28979 0.37516 0.89162 0.0
C4653 C 0.2949 0.38047 0.89033 0.0
C4654 C 0.29669 0.38219 0.88327 0.0
N4655 N 0.28083 0.36663 0.88698 0.0
H4656 H 0.392 0.53609 0.62426 0.0
H4657 H 0.38755 0.53814 0.6467 0.0
H4658 H 0.38243 0.55531 0.63245 0.0
H4659 H 0.39778 0.53107 0.64718 0.0
C4660 C 0.39646 0.52717 0.64309 0.0
C4661 C 0.38998 0.53921 0.62869 0.0
C4662 C 0.38728 0.54611 0.62751 0.0
C4663 C 0.3903 0.53638 0.63561 0.0
C4664 C 0.38757 0.54037 0.64137 0.0
C4665 C 0.38479 0.54723 0.64026 0.0
C4666 C 0.38474 0.55008 0.63334 0.0
N4667 N 0.39324 0.52946 0.63661 0.0
H4668 H 0.78488 0.137 0.13618 0.0
H4669 H 0.7896 0.13767 0.11371 0.0
H4670 H 0.80439 0.12793 0.12822 0.0
H4671 H 0.78209 0.14734 0.11412 0.0
C4672 C 0.77798 0.1455 0.11776 0.0
C4673 C 0.78847 0.13589 0.13179 0.0
C4674 C 0.79489 0.13223 0.13304 0.0
C4675 C 0.78656 0.13798 0.12487 0.0
C4676 C 0.7911 0.13631 0.11911 0.0
C4677 C 0.79759 0.13274 0.12031 0.0
C4678 C 0.79944 0.13076 0.12728 0.0
N4679 N 0.77985 0.14138 0.12384 0.0
H4680 H 0.62284 0.03415 0.88609 0.0
H4681 H 0.62184 0.0395 0.86375 0.0
H4682 H 0.63214 0.05368 0.87851 0.0
H4683 H 0.61243 0.0318 0.8639 0.0
C4684 C 0.61421 0.02766 0.86755 0.0
C4685 C 0.62394 0.03783 0.88177 0.0
C4686 C 0.62773 0.04414 0.88311 0.0
C4687 C 0.62171 0.03613 0.87483 0.0
C4688 C 0.62333 0.04081 0.86917 0.0
C4689 C 0.627 0.04721 0.87049 0.0
C4690 C 0.62919 0.04881 0.87747 0.0
N4691 N 0.61825 0.02948 0.8737 0.0
H4692 H 0.89072 0.9748 0.3869 0.0
H4693 H 0.88732 0.97259 0.3643 0.0
H4694 H 0.88174 0.95544 0.3784 0.0
H4695 H 0.89779 0.97955 0.36443 0.0
C4696 C 0.89608 0.98354 0.36827 0.0
C4697 C 0.88894 0.97163 0.3824 0.0
C4698 C 0.88628 0.96471 0.38349 0.0
C4699 C 0.88954 0.97443 0.37549 0.0
C4700 C 0.88712 0.97038 0.36964 0.0
C4701 C 0.88435 0.9635 0.37066 0.0
C4702 C 0.88403 0.96069 0.37758 0.0
N4703 N 0.89244 0.98137 0.37456 0.0
H4704 H 0.37323 0.28565 0.14055 0.0
H4705 H 0.39537 0.28809 0.13488 0.0
H4706 H 0.37988 0.30327 0.12748 0.0
H4707 H 0.39693 0.2824 0.14559 0.0
C4708 C 0.39282 0.27832 0.14532 0.0
C4709 C 0.37742 0.2886 0.13787 0.0
C4710 C 0.37574 0.29479 0.13401 0.0
C4711 C 0.38452 0.28629 0.13845 0.0
C4712 C 0.38994 0.29004 0.13482 0.0
C4713 C 0.38828 0.29612 0.13076 0.0
C4714 C 0.3812 0.29853 0.13052 0.0
N4715 N 0.386 0.28001 0.14244 0.0
H4716 H 0.4773 0.62511 0.88646 0.0
H4717 H 0.47128 0.64727 0.88515 0.0
H4718 H 0.45791 0.63124 0.8758 0.0
H4719 H 0.48295 0.64896 0.88537 0.0
C4720 C 0.4851 0.64495 0.88894 0.0
C4721 C 0.47357 0.62921 0.8848 0.0
C4722 C 0.46738 0.62733 0.88102 0.0
C4723 C 0.47518 0.63641 0.8861 0.0
C4724 C 0.47031 0.64172 0.88392 0.0
C4725 C 0.46406 0.63989 0.88023 0.0
C4726 C 0.46266 0.63269 0.87878 0.0
N4727 N 0.48176 0.63816 0.88948 0.0
H4728 H 0.13496 0.72546 0.63994 0.0
H4729 H 0.1125 0.72332 0.63562 0.0
H4730 H 0.12682 0.70625 0.63033 0.0
H4731 H 0.11206 0.73034 0.64589 0.0
C4732 C 0.11614 0.73425 0.64459 0.0
C4733 C 0.13053 0.72233 0.63793 0.0
C4734 C 0.13173 0.71545 0.63519 0.0
C4735 C 0.1236 0.72512 0.6383 0.0
C4736 C 0.11784 0.72112 0.6356 0.0
C4737 C 0.11898 0.71428 0.63278 0.0
C4738 C 0.12591 0.71146 0.63267 0.0
N4739 N 0.12259 0.73202 0.64128 0.0
H4740 H 0.0348 0.387 0.38944 0.0
H4741 H 0.0382 0.36441 0.38706 0.0
H4742 H 0.05459 0.37915 0.38082 0.0
H4743 H 0.03072 0.36425 0.39691 0.0
C4744 C 0.02673 0.36812 0.39527 0.0
C4745 C 0.03821 0.38259 0.38789 0.0
C4746 C 0.04505 0.38392 0.38514 0.0
C4747 C 0.03579 0.37558 0.38883 0.0
C4748 C 0.04013 0.36984 0.38665 0.0
C4749 C 0.04694 0.3711 0.3838 0.0
C4750 C 0.0494 0.37814 0.38317 0.0
N4751 N 0.02886 0.37447 0.39172 0.0
H4752 H 0.37532 0.72529 0.37002 0.0
H4753 H 0.39765 0.72303 0.37498 0.0
H4754 H 0.38293 0.7066 0.38099 0.0
H4755 H 0.39873 0.72964 0.36482 0.0
C4756 C 0.39449 0.73356 0.36542 0.0
C4757 C 0.37965 0.72222 0.37232 0.0
C4758 C 0.37827 0.71557 0.37548 0.0
C4759 C 0.38664 0.72486 0.3719 0.0
C4760 C 0.39227 0.72095 0.37501 0.0
C4761 C 0.39095 0.71432 0.37821 0.0
C4762 C 0.38397 0.71165 0.37836 0.0
N4763 N 0.38784 0.73151 0.36844 0.0
H4764 H 0.03519 0.62485 0.12165 0.0
H4765 H 0.04017 0.64713 0.12426 0.0
H4766 H 0.05584 0.63122 0.12935 0.0
H4767 H 0.02832 0.64789 0.12607 0.0
C4768 C 0.02612 0.64426 0.12212 0.0
C4769 C 0.03893 0.62901 0.12312 0.0
C4770 C 0.04584 0.6272 0.12539 0.0
C4771 C 0.03678 0.63617 0.1228 0.0
C4772 C 0.04166 0.64157 0.1247 0.0
C4773 C 0.04856 0.63984 0.12706 0.0
C4774 C 0.05061 0.63264 0.12733 0.0
N4775 N 0.02973 0.63778 0.12049 0.0
H4776 H 0.13704 0.28495 0.87283 0.0
H4777 H 0.11436 0.28874 0.87333 0.0
H4778 H 0.12867 0.30356 0.88336 0.0
H4779 H 0.11485 0.28206 0.86298 0.0
C4780 C 0.11857 0.27791 0.86457 0.0
C4781 C 0.13255 0.28828 0.87433 0.0
C4782 C 0.13369 0.29452 0.87831 0.0
C4783 C 0.12562 0.2862 0.8724 0.0
C4784 C 0.11976 0.29039 0.87457 0.0
C4785 C 0.12084 0.2967 0.87846 0.0
C4786 C 0.12781 0.29873 0.88028 0.0
N4787 N 0.12471 0.27967 0.86866 0.0
H4788 H 0.47709 0.38483 0.62414 0.0
H4789 H 0.47049 0.36281 0.62337 0.0
H4790 H 0.45705 0.37842 0.6333 0.0
H4791 H 0.48204 0.36073 0.62295 0.0
C4792 C 0.48448 0.36509 0.62003 0.0
C4793 C 0.47319 0.38072 0.6253 0.0
C4794 C 0.46687 0.38248 0.62892 0.0
C4795 C 0.47468 0.37361 0.62346 0.0
C4796 C 0.4696 0.36827 0.625 0.0
C4797 C 0.46322 0.36998 0.62853 0.0
C4798 C 0.46192 0.37709 0.63047 0.0
N4799 N 0.48134 0.372 0.62018 0.0
H4800 H 0.14011 0.37531 0.28563 0.0
H4801 H 0.13572 0.3978 0.28735 0.0
H4802 H 0.12972 0.38369 0.30433 0.0
H4803 H 0.14611 0.39823 0.28057 0.0
C4804 C 0.14497 0.39405 0.27671 0.0
C4805 C 0.13798 0.37978 0.28863 0.0
C4806 C 0.13496 0.37866 0.29539 0.0
C4807 C 0.13848 0.38668 0.28578 0.0
C4808 C 0.13562 0.39248 0.2896 0.0
C4809 C 0.13252 0.39143 0.29633 0.0
C4810 C 0.13228 0.38453 0.29921 0.0
N4811 N 0.14171 0.3876 0.27898 0.0
H4812 H 0.38693 0.38645 0.03399 0.0
H4813 H 0.36423 0.38529 0.03749 0.0
H4814 H 0.37865 0.37586 0.05258 0.0
H4815 H 0.36457 0.3957 0.0308 0.0
C4816 C 0.36831 0.39412 0.02667 0.0
C4817 C 0.38244 0.38485 0.03728 0.0
C4818 C 0.38362 0.38098 0.04357 0.0
C4819 C 0.37549 0.38654 0.03509 0.0
C4820 C 0.36964 0.38424 0.03923 0.0
C4821 C 0.37077 0.38045 0.04559 0.0
C4822 C 0.37776 0.37888 0.04773 0.0
N4823 N 0.37452 0.39017 0.0285 0.0
H4824 H 0.37178 0.63548 0.78344 0.0
H4825 H 0.37244 0.61314 0.78889 0.0
H4826 H 0.38282 0.62853 0.80229 0.0
H4827 H 0.36285 0.6125 0.78177 0.0
C4828 C 0.36385 0.61638 0.77758 0.0
C4829 C 0.3734 0.63124 0.78702 0.0
C4830 C 0.37754 0.63283 0.79305 0.0
C4831 C 0.37147 0.62417 0.78548 0.0
C4832 C 0.37373 0.61864 0.79006 0.0
C4833 C 0.37773 0.6202 0.7962 0.0
C4834 C 0.37963 0.6273 0.79762 0.0
N4835 N 0.36755 0.62281 0.77913 0.0
H4836 H 0.12538 0.62233 0.53489 0.0
H4837 H 0.14767 0.62714 0.53771 0.0
H4838 H 0.13292 0.63112 0.55473 0.0
H4839 H 0.14703 0.62893 0.52583 0.0
C4840 C 0.1437 0.62454 0.52404 0.0
C4841 C 0.12969 0.62429 0.5382 0.0
C4842 C 0.12831 0.62657 0.54521 0.0
C4843 C 0.13662 0.62461 0.53539 0.0
C4844 C 0.14225 0.6271 0.5397 0.0
C4845 C 0.14095 0.62939 0.54671 0.0
C4846 C 0.13398 0.6291 0.54942 0.0
N4847 N 0.13779 0.62232 0.52825 0.0
H4848 H 0.13815 0.63565 0.22688 0.0
H4849 H 0.13709 0.61338 0.22119 0.0
H4850 H 0.1272 0.62912 0.20783 0.0
H4851 H 0.14639 0.61237 0.22858 0.0
C4852 C 0.14554 0.61633 0.23272 0.0
C4853 C 0.13649 0.63148 0.22324 0.0
C4854 C 0.13246 0.63322 0.21718 0.0
C4855 C 0.13826 0.62436 0.22473 0.0
C4856 C 0.13594 0.61892 0.22007 0.0
C4857 C 0.13204 0.62062 0.21389 0.0
C4858 C 0.13031 0.62778 0.21252 0.0
N4859 N 0.14207 0.62288 0.23112 0.0
H4860 H 0.12463 0.39095 0.97449 0.0
H4861 H 0.14721 0.38738 0.9722 0.0
H4862 H 0.13285 0.38035 0.95584 0.0
H4863 H 0.14749 0.39791 0.97851 0.0
C4864 C 0.1435 0.39683 0.98257 0.0
C4865 C 0.12908 0.3889 0.97142 0.0
C4866 C 0.12788 0.38563 0.96478 0.0
C4867 C 0.13604 0.38975 0.97404 0.0
C4868 C 0.14184 0.38699 0.97012 0.0
C4869 C 0.14071 0.38367 0.96351 0.0
C4870 C 0.13374 0.38307 0.96086 0.0
N4871 N 0.13707 0.39327 0.98069 0.0
H4872 H 0.37196 0.37495 0.72646 0.0
H4873 H 0.37308 0.39726 0.72097 0.0
H4874 H 0.383 0.38161 0.70751 0.0
H4875 H 0.36364 0.39817 0.72825 0.0
C4876 C 0.36453 0.39422 0.73239 0.0
C4877 C 0.37364 0.37914 0.72285 0.0
C4878 C 0.37769 0.37745 0.71679 0.0
C4879 C 0.37188 0.38625 0.72439 0.0
C4880 C 0.37422 0.39173 0.71979 0.0
C4881 C 0.37815 0.39007 0.71362 0.0
C4882 C 0.37987 0.38292 0.7122 0.0
N4883 N 0.36805 0.3877 0.73078 0.0
H4884 H 0.38507 0.62094 0.47588 0.0
H4885 H 0.36267 0.62341 0.47131 0.0
H4886 H 0.37829 0.62958 0.45575 0.0
H4887 H 0.36176 0.61404 0.47884 0.0
C4888 C 0.36568 0.61518 0.48295 0.0
C4889 C 0.38083 0.62252 0.47227 0.0
C4890 C 0.38252 0.62527 0.46551 0.0
C4891 C 0.3737 0.6216 0.47433 0.0
C4892 C 0.3682 0.62381 0.4697 0.0
C4893 C 0.36982 0.62664 0.46295 0.0
C4894 C 0.37699 0.62726 0.46088 0.0
N4895 N 0.37222 0.61856 0.48112 0.0
H4896 H 0.28463 0.13762 0.37327 0.0
H4897 H 0.28859 0.1382 0.39589 0.0
H4898 H 0.30351 0.12783 0.38197 0.0
H4899 H 0.28197 0.1486 0.3949 0.0
C4900 C 0.27776 0.14678 0.39136 0.0
C4901 C 0.28803 0.13638 0.37778 0.0
C4902 C 0.29434 0.13245 0.37676 0.0
C4903 C 0.28599 0.13862 0.38462 0.0
C4904 C 0.29023 0.13676 0.39054 0.0
C4905 C 0.29658 0.13291 0.38959 0.0
C4906 C 0.29862 0.13084 0.38269 0.0
N4907 N 0.27944 0.14237 0.38542 0.0
H4908 H 0.78318 0.37278 0.63682 0.0
H4909 H 0.78742 0.37381 0.61425 0.0
H4910 H 0.80149 0.38421 0.62901 0.0
H4911 H 0.78107 0.3635 0.61421 0.0
C4912 C 0.77683 0.36464 0.61799 0.0
C4913 C 0.78652 0.3745 0.63243 0.0
C4914 C 0.79257 0.37873 0.63375 0.0
C4915 C 0.78466 0.3726 0.62543 0.0
C4916 C 0.78888 0.37503 0.6197 0.0
C4917 C 0.79501 0.37915 0.62098 0.0
C4918 C 0.79681 0.38096 0.62801 0.0
N4919 N 0.77833 0.36856 0.62431 0.0
H4920 H 0.38885 0.03496 0.38592 0.0
H4921 H 0.38644 0.03801 0.36328 0.0
H4922 H 0.38043 0.0547 0.37777 0.0
H4923 H 0.39644 0.03065 0.36338 0.0
C4924 C 0.39474 0.02666 0.36721 0.0
C4925 C 0.38728 0.03829 0.38146 0.0
C4926 C 0.38466 0.04521 0.38269 0.0
C4927 C 0.38813 0.03573 0.37448 0.0
C4928 C 0.38602 0.04002 0.36868 0.0
C4929 C 0.38331 0.0469 0.36983 0.0
C4930 C 0.3827 0.04945 0.37684 0.0
N4931 N 0.391 0.02878 0.37346 0.0
H4932 H 0.72572 0.64009 0.13635 0.0
H4933 H 0.72361 0.63665 0.11374 0.0
H4934 H 0.70683 0.63013 0.12786 0.0
H4935 H 0.7302 0.64731 0.11381 0.0
C4936 C 0.73423 0.64582 0.11771 0.0
C4937 C 0.72264 0.63816 0.13185 0.0
C4938 C 0.71587 0.63513 0.13296 0.0
C4939 C 0.72538 0.63892 0.12493 0.0
C4940 C 0.72144 0.63632 0.11908 0.0
C4941 C 0.71471 0.63321 0.12012 0.0
C4942 C 0.71195 0.6327 0.12705 0.0
N4943 N 0.73218 0.64215 0.12401 0.0
H4944 H 0.62012 0.4758 0.3855 0.0
H4945 H 0.62335 0.47221 0.36303 0.0
H4946 H 0.62928 0.45608 0.37812 0.0
H4947 H 0.61394 0.4797 0.36217 0.0
C4948 C 0.61499 0.48367 0.36625 0.0
C4949 C 0.6219 0.47239 0.38118 0.0
C4950 C 0.62468 0.46559 0.38266 0.0
C4951 C 0.6212 0.47475 0.37411 0.0
C4952 C 0.62361 0.47037 0.36849 0.0
C4953 C 0.62645 0.46358 0.36991 0.0
C4954 C 0.62691 0.46124 0.37699 0.0
N4955 N 0.61816 0.4816 0.37283 0.0
H4956 H 0.22474 0.86924 0.87429 0.0
H4957 H 0.22254 0.87384 0.89669 0.0
H4958 H 0.20592 0.87983 0.88214 0.0
H4959 H 0.22906 0.86349 0.89745 0.0
C4960 C 0.23306 0.8644 0.89337 0.0
C4961 C 0.22167 0.87143 0.87867 0.0
C4962 C 0.21495 0.8745 0.87738 0.0
C4963 C 0.22435 0.87096 0.88564 0.0
C4964 C 0.22042 0.87392 0.89133 0.0
C4965 C 0.21373 0.87706 0.8901 0.0
C4966 C 0.21102 0.87727 0.88313 0.0
N4967 N 0.23106 0.8676 0.88679 0.0
H4968 H 0.39141 0.97445 0.12551 0.0
H4969 H 0.38462 0.97329 0.14745 0.0
H4970 H 0.37711 0.95784 0.13234 0.0
H4971 H 0.3955 0.97871 0.14916 0.0
C4972 C 0.39547 0.98262 0.14488 0.0
C4973 C 0.38836 0.97185 0.12968 0.0
C4974 C 0.38431 0.96574 0.12811 0.0
C4975 C 0.38867 0.97451 0.13667 0.0
C4976 C 0.38467 0.97115 0.14209 0.0
C4977 C 0.38043 0.96519 0.14052 0.0
C4978 C 0.38033 0.96249 0.13354 0.0
N4979 N 0.39282 0.98071 0.13804 0.0
H4980 H 0.12189 0.03525 0.62387 0.0
H4981 H 0.12337 0.03962 0.64636 0.0
H4982 H 0.13027 0.05531 0.63115 0.0
H4983 H 0.11387 0.03191 0.64668 0.0
C4984 C 0.11545 0.02786 0.64284 0.0
C4985 C 0.12328 0.03883 0.62819 0.0
C4986 C 0.12609 0.0456 0.62668 0.0
C4987 C 0.12207 0.03671 0.63525 0.0
C4988 C 0.12402 0.0413 0.64088 0.0
C4989 C 0.12695 0.04805 0.63945 0.0
C4990 C 0.12787 0.05018 0.63232 0.0
N4991 N 0.11912 0.02984 0.63651 0.0
H4992 H 0.02627 0.16416 0.39742 0.0
H4993 H 0.99349 0.13674 0.39656 0.0
H4994 H 0.02507 0.14563 0.41104 0.0
H4995 H 0.99508 0.15543 0.38324 0.0
H4996 H 1.00492 0.13988 0.40209 0.0
H4997 H 0.01469 0.1611 0.39242 0.0
C4998 C 0.02353 0.15948 0.39943 0.0
C4999 C 0.02665 0.15517 0.4047 0.0
C5000 C 1.00277 0.14329 0.39796 0.0
C5001 C 0.01338 0.15154 0.39886 0.0
C5002 C 0.99625 0.1415 0.3948 0.0
C5003 C 0.99336 0.14584 0.38942 0.0
C5004 C 0.0064 0.14946 0.39572 0.0
C5005 C 0.99714 0.15194 0.38736 0.0
C5006 C 0.01693 0.1577 0.39652 0.0
C5007 C 0.02291 0.14908 0.40694 0.0
N5008 N 1.00346 0.15357 0.3905 0.0
N5009 N 0.01647 0.14744 0.40401 0.0
H5010 H 0.10005 0.77272 0.6643 0.0
H5011 H 0.12435 0.74603 0.64144 0.0
H5012 H 0.11548 0.77993 0.64881 0.0
H5013 H 0.10544 0.73947 0.6528 0.0
H5014 H 0.12211 0.75837 0.64512 0.0
H5015 H 0.10297 0.76037 0.66126 0.0
C5016 C 0.10411 0.7717 0.66031 0.0
C5017 C 0.10752 0.77735 0.65679 0.0
C5018 C 0.11847 0.75423 0.64681 0.0
C5019 C 0.11085 0.76324 0.65325 0.0
C5020 C 0.11975 0.74718 0.64473 0.0
C5021 C 0.11506 0.74174 0.64683 0.0
C5022 C 0.11249 0.75581 0.65106 0.0
C5023 C 0.10917 0.74353 0.65107 0.0
C5024 C 0.10573 0.76465 0.65854 0.0
C5025 C 0.11267 0.77572 0.65159 0.0
N5026 N 0.10806 0.75041 0.65306 0.0
N5027 N 0.11418 0.76881 0.64998 0.0
H5028 H 0.48791 0.85214 0.91396 0.0
H5029 H 0.51443 0.87605 0.89049 0.0
H5030 H 0.48076 0.86719 0.89808 0.0
H5031 H 0.52138 0.85813 0.90314 0.0
H5032 H 0.50213 0.87376 0.8942 0.0
H5033 H 0.50028 0.85521 0.91111 0.0
C5034 C 0.48895 0.85614 0.90992 0.0
C5035 C 0.4833 0.8594 0.90623 0.0
C5036 C 0.50635 0.87034 0.89618 0.0
C5037 C 0.49743 0.86289 0.9029 0.0
C5038 C 0.51337 0.87166 0.89408 0.0
C5039 C 0.51892 0.86726 0.89652 0.0
C5040 C 0.50487 0.86461 0.90078 0.0
C5041 C 0.51724 0.86163 0.90114 0.0
C5042 C 0.496 0.85785 0.90826 0.0
C5043 C 0.48495 0.86449 0.90099 0.0
N5044 N 0.51036 0.86046 0.90313 0.0
N5045 N 0.49186 0.86608 0.89948 0.0
H5046 H 0.41471 0.24113 0.16144 0.0
H5047 H 0.38412 0.26646 0.14561 0.0
H5048 H 0.39386 0.23355 0.15524 0.0
H5049 H 0.40519 0.2738 0.15127 0.0
H5050 H 0.38729 0.25452 0.14982 0.0
H5051 H 0.41104 0.25327 0.15847 0.0
C5052 C 0.40935 0.24202 0.15946 0.0
C5053 C 0.40461 0.2363 0.15854 0.0
C5054 C 0.39121 0.25875 0.15017 0.0
C5055 C 0.40034 0.25021 0.15515 0.0
C5056 C 0.3894 0.26557 0.14777 0.0
C5057 C 0.39442 0.27111 0.14808 0.0
C5058 C 0.39809 0.25747 0.15289 0.0
C5059 C 0.40118 0.26966 0.15093 0.0
C5060 C 0.40725 0.24896 0.15779 0.0
C5061 C 0.39768 0.2378 0.15608 0.0
N5062 N 0.40283 0.26297 0.1532 0.0
N5063 N 0.39578 0.2446 0.15443 0.0
H5064 H 0.02919 0.86637 0.11244 0.0
H5065 H 0.98786 0.85811 0.10571 0.0
H5066 H 0.02171 0.85172 0.09633 0.0
H5067 H 0.99536 0.87526 0.1191 0.0
H5068 H 1.00022 0.85554 0.10232 0.0
H5069 H 0.01682 0.86956 0.1151 0.0
C5070 C 0.02494 0.86383 0.10946 0.0
C5071 C 0.02648 0.85875 0.10417 0.0
C5072 C 0.99916 0.85989 0.10597 0.0
C5073 C 0.0123 0.86238 0.10718 0.0
C5074 C 0.99211 0.86135 0.10791 0.0
C5075 C 0.9906 0.8669 0.11268 0.0
C5076 C 1.00473 0.86398 0.10888 0.0
C5077 C 0.99629 0.87094 0.11539 0.0
C5078 C 0.01788 0.86568 0.11095 0.0
C5079 C 0.02076 0.8557 0.10041 0.0
N5080 N 1.00311 0.86937 0.11348 0.0
N5081 N 0.01393 0.85753 0.10202 0.0
H5082 H 0.4142 0.77172 0.34877 0.0
H5083 H 0.38533 0.74508 0.36565 0.0
H5084 H 0.39319 0.77835 0.35547 0.0
H5085 H 0.40645 0.73865 0.35911 0.0
H5086 H 0.38784 0.75717 0.3614 0.0
H5087 H 0.4112 0.75944 0.35194 0.0
C5088 C 0.40895 0.77059 0.3509 0.0
C5089 C 0.40396 0.77609 0.35189 0.0
C5090 C 0.39192 0.75311 0.36087 0.0
C5091 C 0.40046 0.76202 0.35552 0.0
C5092 C 0.39049 0.74621 0.3633 0.0
C5093 C 0.39571 0.74087 0.36274 0.0
C5094 C 0.39862 0.75468 0.35788 0.0
C5095 C 0.40229 0.74262 0.35964 0.0
C5096 C 0.40723 0.76357 0.35269 0.0
C5097 C 0.39718 0.77428 0.35455 0.0
N5098 N 0.40357 0.74938 0.35735 0.0
N5099 N 0.39565 0.76742 0.35632 0.0
H5100 H 0.48264 0.1433 0.60576 0.0
H5101 H 0.52366 0.15534 0.60719 0.0
H5102 H 0.49029 0.16377 0.5985 0.0
H5103 H 0.51609 0.13521 0.61537 0.0
H5104 H 0.51152 0.15821 0.60337 0.0
H5105 H 0.49492 0.13988 0.60862 0.0
C5106 C 0.48691 0.14705 0.6047 0.0
C5107 C 0.48543 0.15385 0.60192 0.0
C5108 C 0.5125 0.15316 0.60598 0.0
C5109 C 0.49948 0.15 0.60525 0.0
C5110 C 0.51943 0.15152 0.60816 0.0
C5111 C 0.52086 0.14505 0.6116 0.0
C5112 C 0.50695 0.14828 0.60727 0.0
C5113 C 0.51521 0.14027 0.61273 0.0
C5114 C 0.49391 0.14511 0.60637 0.0
C5115 C 0.49116 0.15851 0.60074 0.0
N5116 N 0.50849 0.14199 0.61058 0.0
N5117 N 0.49792 0.15651 0.60242 0.0
H5118 H 0.11707 0.23189 0.86144 0.0
H5119 H 0.10815 0.27322 0.85568 0.0
H5120 H 0.1018 0.23949 0.84598 0.0
H5121 H 0.12593 0.26574 0.86824 0.0
H5122 H 0.10563 0.26088 0.85216 0.0
H5123 H 0.1203 0.24425 0.86413 0.0
C5124 C 0.11441 0.23617 0.85861 0.0
C5125 C 0.10915 0.23467 0.85349 0.0
C5126 C 0.11011 0.26194 0.85565 0.0
C5127 C 0.1128 0.24882 0.85655 0.0
C5128 C 0.11154 0.26897 0.85766 0.0
C5129 C 0.11725 0.27049 0.86224 0.0
C5130 C 0.11438 0.25638 0.8583 0.0
C5131 C 0.12148 0.26481 0.86468 0.0
C5132 C 0.11627 0.24322 0.86012 0.0
C5133 C 0.10593 0.24041 0.84992 0.0
N5134 N 0.11993 0.258 0.86271 0.0
N5135 N 0.10777 0.24723 0.85155 0.0
H5136 H 0.40574 0.02769 0.14344 0.0
H5137 H 0.40104 0.98751 0.15727 0.0
H5138 H 0.41026 0.02089 0.16497 0.0
H5139 H 0.39619 0.99416 0.13579 0.0
H5140 H 0.40517 0.9996 0.15995 0.0
H5141 H 0.40304 0.01531 0.14026 0.0
C5142 C 0.40624 0.02358 0.14748 0.0
C5143 C 0.40818 0.02534 0.1545 0.0
C5144 C 0.40324 0.99842 0.15464 0.0
C5145 C 0.40502 0.01118 0.15091 0.0
C5146 C 0.40089 0.99152 0.15311 0.0
C5147 C 0.39826 0.98985 0.14632 0.0
C5148 C 0.40294 1.0037 0.14933 0.0
C5149 C 0.39817 0.99523 0.14111 0.0
C5150 C 0.40466 0.01653 0.14567 0.0
C5151 C 0.40867 0.01981 0.15953 0.0
N5152 N 0.40045 1.00192 0.14273 0.0
N5153 N 0.40707 0.013 0.15764 0.0
H5154 H 0.23177 0.14924 0.39362 0.0
H5155 H 0.27316 0.15597 0.40155 0.0
H5156 H 0.23935 0.16493 0.40867 0.0
H5157 H 0.2655 0.14272 0.38436 0.0
H5158 H 0.26082 0.15938 0.40424 0.0
H5159 H 0.2441 0.14681 0.39014 0.0
C5160 C 0.23604 0.15218 0.39618 0.0
C5161 C 0.23454 0.15727 0.40147 0.0
C5162 C 0.26184 0.15576 0.39985 0.0
C5163 C 0.24867 0.15452 0.39751 0.0
C5164 C 0.26887 0.15382 0.39832 0.0
C5165 C 0.27034 0.14907 0.39274 0.0
C5166 C 0.25623 0.15288 0.39579 0.0
C5167 C 0.26461 0.14641 0.38872 0.0
C5168 C 0.24307 0.15081 0.39417 0.0
C5169 C 0.24027 0.161 0.40454 0.0
N5170 N 0.25781 0.14832 0.39035 0.0
N5171 N 0.24708 0.15951 0.40255 0.0
H5172 H 0.09661 0.98929 0.65988 0.0
H5173 H 0.11885 0.01595 0.63495 0.0
H5174 H 0.11138 0.98224 0.64368 0.0
H5175 H 0.1071 0.02279 0.65353 0.0
H5176 H 0.11526 1.00364 0.63736 0.0
H5177 H 0.0994 1.00168 0.65685 0.0
C5178 C 0.10039 0.99035 0.65563 0.0
C5179 C 0.10379 0.98473 0.65204 0.0
C5180 C 0.11345 0.00783 0.6409 0.0
C5181 C 0.10705 0.99888 0.64858 0.0
C5182 C 0.11549 0.01486 0.63953 0.0
C5183 C 0.11326 0.02038 0.64406 0.0
C5184 C 0.10913 0.00632 0.64684 0.0
C5185 C 0.10893 0.01867 0.64991 0.0
C5186 C 0.10202 0.99742 0.65394 0.0
C5187 C 0.1087 0.98642 0.64664 0.0
N5188 N 0.107 0.01178 0.65114 0.0
N5189 N 0.11019 0.99334 0.64508 0.0
H5190 H 0.27873 0.85664 0.89208 0.0
H5191 H 0.23807 0.85807 0.90531 0.0
H5192 H 0.27179 0.85042 0.91312 0.0
H5193 H 0.24487 0.86551 0.88463 0.0
H5194 H 0.25035 0.85454 0.90794 0.0
H5195 H 0.2663 0.85916 0.88889 0.0
C5196 C 0.27458 0.85574 0.89601 0.0
C5197 C 0.2763 0.85336 0.90289 0.0
C5198 C 0.24917 0.85693 0.90282 0.0
C5199 C 0.26209 0.85628 0.8993 0.0
C5200 C 0.24217 0.85893 0.90131 0.0
C5201 C 0.24047 0.86209 0.89476 0.0
C5202 C 0.25454 0.8581 0.89772 0.0
C5203 C 0.24595 0.8631 0.88976 0.0
C5204 C 0.2675 0.85722 0.8942 0.0
C5205 C 0.27073 0.85236 0.90779 0.0
N5206 N 0.25276 0.86112 0.89135 0.0
N5207 N 0.26389 0.85384 0.90591 0.0
H5208 H 0.41439 0.98813 0.35117 0.0
H5209 H 0.39078 0.01474 0.37486 0.0
H5210 H 0.39804 0.98093 0.36569 0.0
H5211 H 0.40353 0.02153 0.35695 0.0
H5212 H 0.39432 1.00238 0.37252 0.0
H5213 H 0.4115 1.00047 0.35425 0.0
C5214 C 0.41024 0.98915 0.35507 0.0
C5215 C 0.40644 0.98349 0.35817 0.0
C5216 C 0.39636 0.00658 0.36911 0.0
C5217 C 0.40306 0.99762 0.36168 0.0
C5218 C 0.39435 0.01363 0.37046 0.0
C5219 C 0.39688 0.01915 0.36608 0.0
C5220 C 0.40096 1.00505 0.36339 0.0
C5221 C 0.40147 0.01741 0.36044 0.0
C5222 C 0.40856 0.99619 0.35678 0.0
C5223 C 0.40105 0.98513 0.36311 0.0
N5224 N 0.40337 0.01052 0.35926 0.0
N5225 N 0.39952 0.99204 0.36471 0.0
H5226 H 0.27916 0.15038 0.61586 0.0
H5227 H 0.23778 0.15515 0.60651 0.0
H5228 H 0.27159 0.1644 0.59926 0.0
H5229 H 0.24551 0.14379 0.62497 0.0
H5230 H 0.25008 0.15865 0.60371 0.0
H5231 H 0.26682 0.14793 0.61925 0.0
C5232 C 0.27489 0.15295 0.61293 0.0
C5233 C 0.27639 0.15757 0.60724 0.0
C5234 C 0.24908 0.15543 0.6084 0.0
C5235 C 0.26224 0.15479 0.61109 0.0
C5236 C 0.24207 0.15343 0.60999 0.0
C5237 C 0.24064 0.14918 0.61596 0.0
C5238 C 0.25469 0.1531 0.6128 0.0
C5239 C 0.24636 0.14707 0.62031 0.0
C5240 C 0.26784 0.15157 0.61489 0.0
C5241 C 0.27066 0.16083 0.6037 0.0
N5242 N 0.25314 0.14903 0.61861 0.0
N5243 N 0.26382 0.15934 0.60565 0.0
H5244 H 0.10467 0.02721 0.86649 0.0
H5245 H 0.10682 0.98613 0.8548 0.0
H5246 H 0.09782 0.0194 0.84593 0.0
H5247 H 0.11512 0.9942 0.87469 0.0
H5248 H 0.10259 0.99813 0.85185 0.0
H5249 H 0.10753 0.01499 0.87002 0.0
C5250 C 0.10368 0.02291 0.86275 0.0
C5251 C 0.10103 0.02434 0.85589 0.0
C5252 C 0.10531 0.99728 0.85687 0.0
C5253 C 0.10439 0.01034 0.85987 0.0
C5254 C 0.10771 0.99043 0.85856 0.0
C5255 C 0.11134 0.98919 0.86497 0.0
C5256 C 0.10654 1.00292 0.86165 0.0
C5257 C 0.11237 0.99493 0.86967 0.0
C5258 C 0.10537 0.01594 0.86475 0.0
C5259 C 0.09996 0.01856 0.85123 0.0
N5260 N 0.11 1.00155 0.8679 0.0
N5261 N 0.10167 0.01183 0.8533 0.0
H5262 H 0.2351 0.85002 0.11569 0.0
H5263 H 0.26579 0.87837 0.1065 0.0
H5264 H 0.23353 0.86589 0.09907 0.0
H5265 H 0.26731 0.86349 0.12397 0.0
H5266 H 0.25397 0.87367 0.10366 0.0
H5267 H 0.24689 0.85472 0.11884 0.0
C5268 C 0.23722 0.8545 0.11272 0.0
C5269 C 0.23333 0.85753 0.10707 0.0
C5270 C 0.25686 0.87142 0.10813 0.0
C5271 C 0.24683 0.8629 0.11062 0.0
C5272 C 0.26361 0.87411 0.10974 0.0
C5273 C 0.26751 0.87132 0.11547 0.0
C5274 C 0.25399 0.86588 0.11227 0.0
C5275 C 0.26447 0.8658 0.11951 0.0
C5276 C 0.24396 0.85716 0.1145 0.0
C5277 C 0.23638 0.86329 0.10337 0.0
N5278 N 0.25788 0.86325 0.11783 0.0
N5279 N 0.24293 0.86577 0.10521 0.0
H5280 H 0.16383 0.41352 0.02035 0.0
H5281 H 0.13505 0.39525 0.99453 0.0
H5282 H 0.14395 0.40464 0.02784 0.0
H5283 H 0.15509 0.404 0.98734 0.0
H5284 H 0.13787 0.39914 0.00668 0.0
H5285 H 0.16039 0.41059 0.00814 0.0
C5286 C 0.15874 0.41095 0.01942 0.0
C5287 C 0.1542 0.40928 0.02514 0.0
C5288 C 0.14164 0.40024 1.00244 0.0
C5289 C 0.15019 0.40593 0.01114 0.0
C5290 C 0.14003 0.39802 0.9955 0.0
C5291 C 0.14486 0.3993 0.98994 0.0
C5292 C 0.14813 0.40375 1.00381 0.0
C5293 C 0.15123 0.4029 0.9915 0.0
C5294 C 0.15676 0.4093 0.01244 0.0
C5295 C 0.1476 0.40607 0.0236 0.0
N5296 N 0.15269 0.40498 0.99828 0.0
N5297 N 0.14581 0.40446 0.01675 0.0
H5298 H 0.66083 0.0972 0.98815 0.0
H5299 H 0.636 0.11907 0.0152 0.0
H5300 H 0.64476 0.1122 0.98128 0.0
H5301 H 0.65493 0.10768 0.02167 0.0
H5302 H 0.6383 0.11561 1.00282 0.0
H5303 H 0.65784 0.09989 1.00056 0.0
C5304 C 0.65662 0.10101 0.98925 0.0
C5305 C 0.65305 0.1045 0.98367 0.0
C5306 C 0.64195 0.11385 0.00695 0.0
C5307 C 0.64964 0.10765 0.99786 0.0
C5308 C 0.64063 0.11582 0.01402 0.0
C5309 C 0.6453 0.11365 0.01945 0.0
C5310 C 0.64795 0.10967 0.00532 0.0
C5311 C 0.65122 0.10946 0.01762 0.0
C5312 C 0.65495 0.10258 0.99634 0.0
C5313 C 0.6477 0.10945 0.98542 0.0
N5314 N 0.65238 0.10759 0.01071 0.0
N5315 N 0.64616 0.11088 0.99236 0.0
H5316 H 0.14919 0.39223 0.23079 0.0
H5317 H 0.15262 0.40506 0.27132 0.0
H5318 H 0.16238 0.40989 0.23743 0.0
H5319 H 0.14243 0.38538 0.26512 0.0
H5320 H 0.15613 0.40701 0.25889 0.0
H5321 H 0.14652 0.38969 0.2433 0.0
C5322 C 0.15153 0.39557 0.23488 0.0
C5323 C 0.15599 0.4013 0.23307 0.0
C5324 C 0.15316 0.40225 0.26025 0.0
C5325 C 0.15297 0.39842 0.2474 0.0
C5326 C 0.15115 0.40114 0.26733 0.0
C5327 C 0.14724 0.39507 0.26923 0.0
C5328 C 0.15118 0.39725 0.25502 0.0
C5329 C 0.14546 0.39014 0.26389 0.0
C5330 C 0.15003 0.39409 0.24203 0.0
C5331 C 0.15896 0.40539 0.2386 0.0
N5332 N 0.14741 0.39136 0.25701 0.0
N5333 N 0.15735 0.4039 0.24551 0.0
H5334 H 0.86669 0.9059 0.4828 0.0
H5335 H 0.85418 0.90341 0.52361 0.0
H5336 H 0.84546 0.91123 0.48998 0.0
H5337 H 0.87463 0.89602 0.51604 0.0
H5338 H 0.85124 0.90727 0.51148 0.0
H5339 H 0.87007 0.90331 0.49512 0.0
C5340 C 0.86276 0.90661 0.48698 0.0
C5341 C 0.85577 0.90877 0.48535 0.0
C5342 C 0.85638 0.90483 0.51247 0.0
C5343 C 0.85958 0.90572 0.49947 0.0
C5344 C 0.85806 0.90263 0.51939 0.0
C5345 C 0.86464 0.89937 0.52081 0.0
C5346 C 0.86132 0.90376 0.50694 0.0
C5347 C 0.86948 0.89849 0.51518 0.0
C5348 C 0.86468 0.90507 0.49401 0.0
C5349 C 0.85088 0.90949 0.49098 0.0
N5350 N 0.86772 0.90066 0.50848 0.0
N5351 N 0.85287 0.90795 0.49778 0.0
H5352 H 0.85531 0.11731 0.23273 0.0
H5353 H 0.86221 0.10335 0.27255 0.0
H5354 H 0.8527 0.09538 0.23926 0.0
H5355 H 0.86573 0.12511 0.26593 0.0
H5356 H 0.85799 0.10051 0.26053 0.0
H5357 H 0.85832 0.12047 0.24503 0.0
C5358 C 0.8553 0.11317 0.23676 0.0
C5359 C 0.85379 0.10606 0.23495 0.0
C5360 C 0.85966 0.10591 0.2617 0.0
C5361 C 0.85731 0.10963 0.24903 0.0
C5362 C 0.86206 0.10753 0.26856 0.0
C5363 C 0.86433 0.11446 0.27022 0.0
C5364 C 0.85953 0.11126 0.25645 0.0
C5365 C 0.86404 0.11969 0.26487 0.0
C5366 C 0.85706 0.11497 0.24378 0.0
C5367 C 0.85394 0.10091 0.24039 0.0
N5368 N 0.8617 0.11798 0.25822 0.0
N5369 N 0.85568 0.1028 0.24717 0.0
H5370 H 0.36667 0.60676 0.52845 0.0
H5371 H 0.35387 0.60836 0.48768 0.0
H5372 H 0.34618 0.59923 0.52111 0.0
H5373 H 0.37411 0.61657 0.49494 0.0
H5374 H 0.3512 0.60451 0.49986 0.0
H5375 H 0.36979 0.60982 0.51616 0.0
C5376 C 0.36285 0.60569 0.52425 0.0
C5377 C 0.35614 0.60276 0.52583 0.0
C5378 C 0.35624 0.60714 0.4988 0.0
C5379 C 0.35965 0.60633 0.51175 0.0
C5380 C 0.35776 0.60933 0.49185 0.0
C5381 C 0.3642 0.61279 0.49032 0.0
C5382 C 0.36121 0.60842 0.50426 0.0
C5383 C 0.36907 0.61393 0.49589 0.0
C5384 C 0.36462 0.60748 0.51723 0.0
C5385 C 0.35137 0.60157 0.52017 0.0
N5386 N 0.36746 0.61175 0.50263 0.0
N5387 N 0.35321 0.60337 0.51339 0.0
H5388 H 0.16143 0.59519 0.27046 0.0
H5389 H 0.1449 0.62492 0.24463 0.0
H5390 H 0.15499 0.61611 0.27762 0.0
H5391 H 0.1521 0.60429 0.23738 0.0
H5392 H 0.14894 0.62197 0.25667 0.0
H5393 H 0.15842 0.59858 0.25825 0.0
C5394 C 0.15938 0.6005 0.26946 0.0
C5395 C 0.15842 0.60536 0.27509 0.0
C5396 C 0.14966 0.6181 0.25244 0.0
C5397 C 0.15499 0.6093 0.26109 0.0
C5398 C 0.14736 0.61978 0.24556 0.0
C5399 C 0.14816 0.61482 0.24001 0.0
C5400 C 0.15277 0.6114 0.25378 0.0
C5401 C 0.15138 0.60825 0.24153 0.0
C5402 C 0.1577 0.60245 0.26248 0.0
C5403 C 0.15587 0.61221 0.27345 0.0
N5404 N 0.15355 0.60672 0.24828 0.0
N5405 N 0.1542 0.61396 0.26661 0.0
H5406 H 0.35583 0.39333 0.77778 0.0
H5407 H 0.3578 0.40617 0.73704 0.0
H5408 H 0.34947 0.41428 0.77064 0.0
H5409 H 0.36537 0.38568 0.74433 0.0
H5410 H 0.35389 0.4089 0.7492 0.0
H5411 H 0.35844 0.39005 0.76542 0.0
C5412 C 0.35491 0.39722 0.77361 0.0
C5413 C 0.35247 0.4041 0.77526 0.0
C5414 C 0.35639 0.4038 0.74814 0.0
C5415 C 0.35552 0.40042 0.7611 0.0
C5416 C 0.35861 0.40224 0.74121 0.0
C5417 C 0.36193 0.39571 0.73969 0.0
C5418 C 0.3575 0.39879 0.75361 0.0
C5419 C 0.36285 0.3908 0.74526 0.0
C5420 C 0.35644 0.39536 0.76655 0.0
C5421 C 0.35145 0.40894 0.76963 0.0
N5422 N 0.36066 0.39244 0.75198 0.0
N5423 N 0.353 0.40702 0.76282 0.0
H5424 H 0.98226 0.86714 0.60399 0.0
H5425 H 0.0225 0.85374 0.60954 0.0
H5426 H 0.98947 0.84575 0.59941 0.0
H5427 H 0.01554 0.87517 0.61426 0.0
H5428 H 0.01053 0.85095 0.60516 0.0
H5429 H 0.99452 0.87046 0.60703 0.0
C5430 C 0.98643 0.86316 0.60355 0.0
C5431 C 0.98482 0.85614 0.60149 0.0
C5432 C 0.01161 0.85628 0.60712 0.0
C5433 C 0.99885 0.85988 0.60505 0.0
C5434 C 0.01844 0.85787 0.60962 0.0
C5435 C 0.02 0.86468 0.61228 0.0
C5436 C 0.00627 0.86154 0.60731 0.0
C5437 C 0.01457 0.86984 0.61227 0.0
C5438 C 0.99342 0.86505 0.60533 0.0
C5439 C 0.99044 0.85119 0.60109 0.0
N5440 N 0.00793 0.86816 0.60985 0.0
N5441 N 0.99718 0.85315 0.60288 0.0
H5442 H 0.89462 0.23125 0.36289 0.0
H5443 H 0.90385 0.27241 0.35649 0.0
H5444 H 0.90937 0.23854 0.34679 0.0
H5445 H 0.88601 0.26533 0.36919 0.0
H5446 H 0.90634 0.25999 0.35329 0.0
H5447 H 0.89176 0.24368 0.36571 0.0
C5448 C 0.89726 0.23547 0.35995 0.0
C5449 C 0.90225 0.23386 0.3546 0.0
C5450 C 0.90187 0.26115 0.35675 0.0
C5451 C 0.899 0.24809 0.3578 0.0
C5452 C 0.90045 0.26823 0.35859 0.0
C5453 C 0.89472 0.26989 0.36309 0.0
C5454 C 0.89754 0.25568 0.35951 0.0
C5455 C 0.89048 0.26429 0.36568 0.0
C5456 C 0.8956 0.24256 0.36154 0.0
C5457 C 0.90544 0.23954 0.35091 0.0
N5458 N 0.892 0.25743 0.36387 0.0
N5459 N 0.9038 0.24639 0.35261 0.0
H5460 H 0.52832 0.14407 0.10978 0.0
H5461 H 0.48708 0.15332 0.10385 0.0
H5462 H 0.521 0.16012 0.09499 0.0
H5463 H 0.49444 0.1352 0.11598 0.0
H5464 H 0.49945 0.15594 0.10053 0.0
H5465 H 0.51593 0.14078 0.11214 0.0
C5466 C 0.5241 0.1469 0.10703 0.0
C5467 C 0.52569 0.1524 0.10221 0.0
C5468 C 0.49836 0.15137 0.10388 0.0
C5469 C 0.51148 0.14866 0.10488 0.0
C5470 C 0.49131 0.14988 0.10578 0.0
C5471 C 0.48975 0.14405 0.11019 0.0
C5472 C 0.50389 0.14702 0.10647 0.0
C5473 C 0.4954 0.13975 0.11256 0.0
C5474 C 0.51702 0.14499 0.10835 0.0
C5475 C 0.52001 0.15581 0.09871 0.0
N5476 N 0.50223 0.14135 0.1107 0.0
N5477 N 0.51316 0.15392 0.10015 0.0
H5478 H 0.60058 0.7723 0.84594 0.0
H5479 H 0.62493 0.7453 0.86838 0.0
H5480 H 0.61596 0.77923 0.8616 0.0
H5481 H 0.60625 0.7388 0.8566 0.0
H5482 H 0.62267 0.75769 0.86489 0.0
H5483 H 0.6036 0.7599 0.84865 0.0
C5484 C 0.60464 0.77121 0.8499 0.0
C5485 C 0.60801 0.7768 0.85357 0.0
C5486 C 0.61907 0.75355 0.86305 0.0
C5487 C 0.61146 0.76263 0.85673 0.0
C5488 C 0.62038 0.74648 0.86503 0.0
C5489 C 0.61576 0.74104 0.86277 0.0
C5490 C 0.61315 0.75516 0.85875 0.0
C5491 C 0.60993 0.74286 0.85846 0.0
C5492 C 0.60633 0.76413 0.85148 0.0
C5493 C 0.61318 0.77508 0.85871 0.0
N5494 N 0.60879 0.74977 0.85658 0.0
N5495 N 0.61475 0.76814 0.86014 0.0
H5496 H 0.98221 0.14217 0.902 0.0
H5497 H 0.02289 0.15506 0.90251 0.0
H5498 H 0.98944 0.16089 0.91328 0.0
H5499 H 0.01627 0.13453 0.89448 0.0
H5500 H 0.01062 0.15736 0.90639 0.0
H5501 H 0.99462 0.13932 0.89906 0.0
C5502 C 0.98642 0.14567 0.90387 0.0
C5503 C 0.98479 0.15179 0.90787 0.0
C5504 C 0.01186 0.15233 0.90382 0.0
C5505 C 0.99899 0.14856 0.90453 0.0
C5506 C 0.01885 0.15103 0.9016 0.0
C5507 C 0.02058 0.14461 0.89818 0.0
C5508 C 0.00654 0.1472 0.90254 0.0
C5509 C 0.01516 0.13956 0.89711 0.0
C5510 C 0.99349 0.14402 0.90221 0.0
C5511 C 0.99045 0.15609 0.91023 0.0
N5512 N 0.00837 0.14098 0.89925 0.0
N5513 N 0.99729 0.15442 0.90848 0.0
H5514 H 0.61648 0.23238 0.65001 0.0
H5515 H 0.60512 0.27333 0.65402 0.0
H5516 H 0.59896 0.23942 0.66319 0.0
H5517 H 0.62441 0.26647 0.6435 0.0
H5518 H 0.6027 0.26094 0.65738 0.0
H5519 H 0.61943 0.24483 0.64751 0.0
C5520 C 0.61325 0.23655 0.65238 0.0
C5521 C 0.60744 0.23486 0.65679 0.0
C5522 C 0.60748 0.26214 0.65437 0.0
C5523 C 0.61079 0.24913 0.65395 0.0
C5524 C 0.60885 0.26921 0.65244 0.0
C5525 C 0.61496 0.27092 0.64849 0.0
C5526 C 0.61224 0.25674 0.65226 0.0
C5527 C 0.61964 0.26539 0.64657 0.0
C5528 C 0.61496 0.24366 0.65098 0.0
C5529 C 0.60351 0.24048 0.6598 0.0
N5530 N 0.61816 0.25854 0.64845 0.0
N5531 N 0.60523 0.24737 0.65829 0.0
H5532 H 0.52017 0.84616 0.41254 0.0
H5533 H 0.49441 0.8748 0.39405 0.0
H5534 H 0.52758 0.86614 0.40385 0.0
H5535 H 0.48694 0.85532 0.40377 0.0
H5536 H 0.50654 0.87193 0.39792 0.0
H5537 H 0.50792 0.84962 0.40971 0.0
C5538 C 0.51921 0.85128 0.41004 0.0
C5539 C 0.52492 0.85585 0.40839 0.0
C5540 C 0.50225 0.8683 0.39924 0.0
C5541 C 0.51089 0.85986 0.40515 0.0
C5542 C 0.49532 0.86993 0.39703 0.0
C5543 C 0.48968 0.86527 0.39858 0.0
C5544 C 0.50354 0.86195 0.40301 0.0
C5545 C 0.49116 0.85905 0.40246 0.0
C5546 C 0.51221 0.85327 0.40846 0.0
C5547 C 0.52335 0.86247 0.40526 0.0
N5548 N 0.49795 0.85755 0.40452 0.0
N5549 N 0.51649 0.86426 0.4037 0.0
H5550 H 0.8961 0.77931 0.14755 0.0
H5551 H 0.90365 0.73806 0.15547 0.0
H5552 H 0.91027 0.77208 0.16419 0.0
H5553 H 0.88695 0.74549 0.14148 0.0
H5554 H 0.90633 0.75047 0.15863 0.0
H5555 H 0.89285 0.76692 0.1451 0.0
C5556 C 0.89853 0.7751 0.15068 0.0
C5557 C 0.90349 0.77672 0.15606 0.0
C5558 C 0.90205 0.74938 0.1549 0.0
C5559 C 0.89978 0.76252 0.1533 0.0
C5560 C 0.90053 0.74231 0.15309 0.0
C5561 C 0.89508 0.74076 0.14822 0.0
C5562 C 0.89813 0.75493 0.15175 0.0
C5563 C 0.8912 0.74644 0.14527 0.0
C5564 C 0.89665 0.76804 0.14931 0.0
C5565 C 0.90639 0.77107 0.16003 0.0
N5566 N 0.89282 0.75328 0.14706 0.0
N5567 N 0.90453 0.76422 0.15854 0.0
H5568 H 0.59595 0.98894 0.85004 0.0
H5569 H 0.61826 0.01562 0.87488 0.0
H5570 H 0.61187 0.98203 0.86516 0.0
H5571 H 0.60551 0.02268 0.85706 0.0
H5572 H 0.61502 1.0033 0.87216 0.0
H5573 H 0.59839 1.00135 0.85335 0.0
C5574 C 0.59991 0.99004 0.8541 0.0
C5575 C 0.60373 0.98445 0.85731 0.0
C5576 C 0.61291 0.00754 0.86885 0.0
C5577 C 0.60658 0.99862 0.86109 0.0
C5578 C 0.61475 0.01458 0.87041 0.0
C5579 C 0.61214 0.02017 0.86617 0.0
C5580 C 0.60842 0.00607 0.86303 0.0
C5581 C 0.60763 0.0185 0.86045 0.0
C5582 C 0.60134 0.99711 0.85595 0.0
C5583 C 0.60886 0.98618 0.86249 0.0
N5584 N 0.6059 0.0116 0.85904 0.0
N5585 N 0.61013 0.9931 0.86422 0.0
H5586 H 0.77035 0.84968 0.59369 0.0
H5587 H 0.74371 0.86374 0.62405 0.0
H5588 H 0.77691 0.854 0.61534 0.0
H5589 H 0.7375 0.86027 0.60216 0.0
H5590 H 0.75571 0.85943 0.6212 0.0
H5591 H 0.75811 0.85276 0.59692 0.0
C5592 C 0.76922 0.85127 0.59913 0.0
C5593 C 0.77469 0.85162 0.60423 0.0
C5594 C 0.75172 0.85958 0.61702 0.0
C5595 C 0.76065 0.85514 0.60799 0.0
C5596 C 0.74486 0.86203 0.61865 0.0
C5597 C 0.73962 0.86237 0.61331 0.0
C5598 C 0.75333 0.85745 0.61001 0.0
C5599 C 0.74141 0.8601 0.60642 0.0
C5600 C 0.76222 0.85301 0.60098 0.0
C5601 C 0.77286 0.85359 0.61123 0.0
N5602 N 0.74812 0.85776 0.60496 0.0
N5603 N 0.76601 0.85532 0.61289 0.0
H5604 H 0.91497 0.0223 0.35197 0.0
H5605 H 0.89173 0.99547 0.3757 0.0
H5606 H 0.89779 0.0293 0.3656 0.0
H5607 H 0.9048 0.98873 0.358 0.0
H5608 H 0.89489 0.0079 0.37313 0.0
H5609 H 0.91237 0.00995 0.35524 0.0
C5610 C 0.91069 0.02124 0.3557 0.0
C5611 C 0.90658 0.02683 0.35851 0.0
C5612 C 0.89708 1.00369 0.36982 0.0
C5613 C 0.90355 0.0127 0.36225 0.0
C5614 C 0.8953 0.9966 0.3713 0.0
C5615 C 0.89802 0.99108 0.36704 0.0
C5616 C 0.90166 1.00524 0.3641 0.0
C5617 C 0.90259 0.99285 0.36139 0.0
C5618 C 0.90918 0.01418 0.35753 0.0
C5619 C 0.90104 0.02514 0.36326 0.0
N5620 N 0.90428 0.99977 0.36009 0.0
N5621 N 0.89969 0.01822 0.36499 0.0
H5622 H 0.73929 0.16429 0.10076 0.0
H5623 H 0.76593 0.14127 0.12501 0.0
H5624 H 0.73231 0.14793 0.11537 0.0
H5625 H 0.77299 0.15445 0.10751 0.0
H5626 H 0.75359 0.14459 0.12238 0.0
H5627 H 0.75168 0.16174 0.10404 0.0
C5628 C 0.74036 0.1602 0.1047 0.0
C5629 C 0.73476 0.15629 0.10777 0.0
C5630 C 0.75784 0.14678 0.11912 0.0
C5631 C 0.74892 0.15332 0.11152 0.0
C5632 C 0.76489 0.1449 0.12063 0.0
C5633 C 0.77048 0.1476 0.11645 0.0
C5634 C 0.75637 0.15141 0.11342 0.0
C5635 C 0.76881 0.15225 0.11085 0.0
C5636 C 0.74743 0.15872 0.10653 0.0
C5637 C 0.73647 0.151 0.1128 0.0
N5638 N 0.7619 0.15402 0.10949 0.0
N5639 N 0.74339 0.14968 0.11451 0.0
H5640 H 0.60201 0.02649 0.64423 0.0
H5641 H 0.60825 0.98612 0.65683 0.0
H5642 H 0.5979 0.01903 0.66561 0.0
H5643 H 0.61333 0.99384 0.63577 0.0
H5644 H 0.60351 0.99792 0.65987 0.0
H5645 H 0.60515 0.01433 0.64073 0.0
C5646 C 0.60167 0.02228 0.64817 0.0
C5647 C 0.59971 0.0238 0.65524 0.0
C5648 C 0.60563 0.99703 0.65457 0.0
C5649 C 0.60341 0.00986 0.65128 0.0
C5650 C 0.60832 0.9903 0.65284 0.0
C5651 C 0.6112 0.98902 0.64606 0.0
C5652 C 0.60582 1.00252 0.64948 0.0
C5653 C 0.61117 0.9946 0.64107 0.0
C5654 C 0.60352 0.01534 0.64618 0.0
C5655 C 0.59948 0.01813 0.66013 0.0
N5656 N 0.60855 1.00112 0.64289 0.0
N5657 N 0.60134 0.01143 0.65807 0.0
H5658 H 0.73962 0.84515 0.41019 0.0
H5659 H 0.76599 0.86762 0.38517 0.0
H5660 H 0.73244 0.86079 0.3949 0.0
H5661 H 0.77318 0.85497 0.40299 0.0
H5662 H 0.75369 0.86421 0.38785 0.0
H5663 H 0.75197 0.84765 0.40676 0.0
C5664 C 0.74064 0.84906 0.40606 0.0
C5665 C 0.735 0.85279 0.40285 0.0
C5666 C 0.75796 0.86216 0.39116 0.0
C5667 C 0.74911 0.85572 0.39893 0.0
C5668 C 0.76499 0.86409 0.38963 0.0
C5669 C 0.7706 0.86157 0.39388 0.0
C5670 C 0.75654 0.85764 0.39698 0.0
C5671 C 0.76899 0.85703 0.39959 0.0
C5672 C 0.74769 0.85052 0.40414 0.0
C5673 C 0.73664 0.85786 0.39758 0.0
N5674 N 0.7621 0.85521 0.40098 0.0
N5675 N 0.74354 0.85917 0.39579 0.0
H5676 H 0.90518 0.98266 0.14393 0.0
H5677 H 0.9041 0.02366 0.15609 0.0
H5678 H 0.91146 0.99 0.16482 0.0
H5679 H 0.89558 0.01612 0.13609 0.0
H5680 H 0.90777 0.01146 0.15898 0.0
H5681 H 0.90262 0.995 0.14052 0.0
C5682 C 0.90609 0.98687 0.14778 0.0
C5683 C 0.9085 0.98529 0.15469 0.0
C5684 C 0.90511 0.01247 0.15395 0.0
C5685 C 0.90553 0.99942 0.15084 0.0
C5686 C 0.90303 0.01943 0.1523 0.0
C5687 C 0.89952 0.02088 0.14587 0.0
C5688 C 0.90368 0.00692 0.14911 0.0
C5689 C 0.89826 0.01523 0.14112 0.0
C5690 C 0.90458 0.99391 0.14584 0.0
C5691 C 0.9095 0.99096 0.15948 0.0
N5692 N 0.90033 0.00849 0.14285 0.0
N5693 N 0.90801 0.99776 0.15747 0.0
H5694 H 0.77715 0.15791 0.89209 0.0
H5695 H 0.73612 0.15618 0.90401 0.0
H5696 H 0.76953 0.16477 0.91271 0.0
H5697 H 0.74395 0.14794 0.884 0.0
H5698 H 0.74819 0.16026 0.9069 0.0
H5699 H 0.76488 0.1552 0.88861 0.0
C5700 C 0.77289 0.15893 0.89586 0.0
C5701 C 0.77439 0.16155 0.90272 0.0
C5702 C 0.74727 0.15759 0.90186 0.0
C5703 C 0.76032 0.15837 0.89879 0.0
C5704 C 0.74038 0.15527 0.90021 0.0
C5705 C 0.73905 0.15171 0.89378 0.0
C5706 C 0.75286 0.15632 0.89704 0.0
C5707 C 0.74474 0.15065 0.88903 0.0
C5708 C 0.76589 0.15733 0.89388 0.0
C5709 C 0.76865 0.16267 0.9074 0.0
N5710 N 0.75141 0.15293 0.89077 0.0
N5711 N 0.76188 0.16105 0.90536 0.0
H5712 H 0.85012 0.59554 0.9891 0.0
H5713 H 0.87597 0.61614 0.01622 0.0
H5714 H 0.86684 0.60984 0.98232 0.0
H5715 H 0.8567 0.60535 0.0227 0.0
H5716 H 0.87353 0.61277 1.00384 0.0
H5717 H 0.85334 0.59788 1.00152 0.0
C5718 C 0.85452 0.59911 0.99022 0.0
C5719 C 0.85819 0.60252 0.98467 0.0
C5720 C 0.86985 0.61112 0.00797 0.0
C5721 C 0.86188 0.60527 0.99887 0.0
C5722 C 0.87124 0.61303 0.01504 0.0
C5723 C 0.86651 0.61102 0.02047 0.0
C5724 C 0.8637 0.60714 0.00635 0.0
C5725 C 0.86047 0.607 0.01865 0.0
C5726 C 0.85632 0.60049 0.99732 0.0
C5727 C 0.8638 0.60717 0.98644 0.0
N5728 N 0.85923 0.60519 0.01174 0.0
N5729 N 0.86547 0.60841 0.99339 0.0
H5730 H 0.36721 0.90653 0.0277 0.0
H5731 H 0.35461 0.90424 0.98691 0.0
H5732 H 0.34632 0.91295 0.0204 0.0
H5733 H 0.37468 0.89593 0.99454 0.0
H5734 H 0.35189 0.90842 0.99898 0.0
H5735 H 0.37048 0.90366 0.01541 0.0
C5736 C 0.36334 0.90742 0.0235 0.0
C5737 C 0.35647 0.90997 0.02509 0.0
C5738 C 0.3569 0.90571 0.99802 0.0
C5739 C 0.36016 0.9066 0.01101 0.0
C5740 C 0.35845 0.90333 0.99114 0.0
C5741 C 0.36485 0.89972 0.98975 0.0
C5742 C 0.3618 0.90447 1.00356 0.0
C5743 C 0.36966 0.89867 0.99539 0.0
C5744 C 0.36519 0.90573 0.01649 0.0
C5745 C 0.35164 0.91091 0.01944 0.0
N5746 N 0.36803 0.90102 1.00205 0.0
N5747 N 0.35357 0.90921 0.01266 0.0
H5748 H 0.85505 0.61696 0.77728 0.0
H5749 H 0.85616 0.60565 0.73605 0.0
H5750 H 0.84851 0.59632 0.76943 0.0
H5751 H 0.86452 0.62558 0.74397 0.0
H5752 H 0.85242 0.60255 0.74817 0.0
H5753 H 0.8576 0.62065 0.76502 0.0
C5754 C 0.85408 0.61323 0.77297 0.0
C5755 C 0.8516 0.6063 0.77439 0.0
C5756 C 0.85505 0.60761 0.74726 0.0
C5757 C 0.85456 0.61047 0.76036 0.0
C5758 C 0.85717 0.60938 0.74035 0.0
C5759 C 0.86066 0.61585 0.73902 0.0
C5760 C 0.85643 0.61236 0.7529 0.0
C5761 C 0.86185 0.62052 0.74476 0.0
C5762 C 0.85558 0.61532 0.76598 0.0
C5763 C 0.85052 0.60167 0.7686 0.0
N5764 N 0.85975 0.61867 0.75146 0.0
N5765 N 0.85202 0.60383 0.76185 0.0
H5766 H 0.16127 0.09601 0.52234 0.0
H5767 H 0.13621 0.11759 0.49527 0.0
H5768 H 0.14628 0.11214 0.52909 0.0
H5769 H 0.15455 0.10536 0.48862 0.0
H5770 H 0.13889 0.11458 0.5077 0.0
H5771 H 0.15789 0.09826 0.50994 0.0
C5772 C 0.15722 0.09998 0.52121 0.0
C5773 C 0.15407 0.10391 0.52675 0.0
C5774 C 0.14231 0.11254 0.50352 0.0
C5775 C 0.1502 0.10654 0.51258 0.0
C5776 C 0.14078 0.11424 0.49642 0.0
C5777 C 0.14518 0.11171 0.49093 0.0
C5778 C 0.14826 0.10826 0.5051 0.0
C5779 C 0.15104 0.10741 0.49272 0.0
C5780 C 0.15533 0.10129 0.51413 0.0
C5781 C 0.14891 0.10905 0.52498 0.0
N5782 N 0.15241 0.10581 0.49965 0.0
N5783 N 0.14713 0.11021 0.51805 0.0
H5784 H 0.1634 0.91546 0.7703 0.0
H5785 H 0.14649 0.88613 0.74423 0.0
H5786 H 0.15653 0.89464 0.77732 0.0
H5787 H 0.15478 0.90634 0.737 0.0
H5788 H 0.15041 0.889 0.75634 0.0
H5789 H 0.16056 0.9121 0.75802 0.0
C5790 C 0.1613 0.91017 0.76925 0.0
C5791 C 0.16017 0.90533 0.77485 0.0
C5792 C 0.15141 0.89279 0.7521 0.0
C5793 C 0.15692 0.90144 0.7608 0.0
C5794 C 0.14916 0.89116 0.74518 0.0
C5795 C 0.1503 0.89603 0.73962 0.0
C5796 C 0.15478 0.89936 0.75346 0.0
C5797 C 0.1538 0.90246 0.74116 0.0
C5798 C 0.15971 0.90824 0.76224 0.0
C5799 C 0.15755 0.89852 0.77317 0.0
N5800 N 0.15588 0.90395 0.74794 0.0
N5801 N 0.15596 0.89679 0.76631 0.0
H5802 H 0.64509 0.40789 0.4828 0.0
H5803 H 0.65843 0.402 0.52295 0.0
H5804 H 0.6663 0.41304 0.49017 0.0
H5805 H 0.63702 0.39734 0.51589 0.0
H5806 H 0.6612 0.40664 0.51108 0.0
H5807 H 0.64178 0.40469 0.495 0.0
C5808 C 0.64903 0.40844 0.48699 0.0
C5809 C 0.656 0.4107 0.48544 0.0
C5810 C 0.65589 0.40464 0.51212 0.0
C5811 C 0.65227 0.40694 0.49941 0.0
C5812 C 0.65431 0.40199 0.51889 0.0
C5813 C 0.64751 0.39927 0.52039 0.0
C5814 C 0.65063 0.40454 0.50678 0.0
C5815 C 0.64234 0.39938 0.51496 0.0
C5816 C 0.64714 0.40656 0.49396 0.0
C5817 C 0.6609 0.41121 0.49109 0.0
N5818 N 0.64402 0.40194 0.50838 0.0
N5819 N 0.65895 0.40931 0.4978 0.0
H5820 H 0.86089 0.39383 0.73194 0.0
H5821 H 0.85494 0.40384 0.77302 0.0
H5822 H 0.84649 0.41038 0.73895 0.0
H5823 H 0.86694 0.3855 0.76597 0.0
H5824 H 0.85179 0.40638 0.76059 0.0
H5825 H 0.86321 0.39074 0.74439 0.0
C5826 C 0.85821 0.39682 0.73611 0.0
C5827 C 0.85352 0.4024 0.73441 0.0
C5828 C 0.85508 0.40178 0.76176 0.0
C5829 C 0.85613 0.39888 0.74868 0.0
C5830 C 0.85688 0.40033 0.76885 0.0
C5831 C 0.8612 0.39446 0.77051 0.0
C5832 C 0.85767 0.39734 0.7563 0.0
C5833 C 0.86359 0.39008 0.76493 0.0
C5834 C 0.85951 0.39503 0.74321 0.0
C5835 C 0.85011 0.40601 0.74002 0.0
N5836 N 0.86182 0.39163 0.75807 0.0
N5837 N 0.85153 0.40422 0.74691 0.0
H5838 H 0.66516 0.59889 0.23985 0.0
H5839 H 0.6431 0.62426 0.26628 0.0
H5840 H 0.65048 0.61509 0.23262 0.0
H5841 H 0.65441 0.60544 0.2732 0.0
H5842 H 0.64674 0.62176 0.25399 0.0
H5843 H 0.66236 0.60207 0.2522 0.0
C5844 C 0.6614 0.60317 0.24087 0.0
C5845 C 0.65803 0.60671 0.2352 0.0
C5846 C 0.64844 0.61818 0.2582 0.0
C5847 C 0.65475 0.61034 0.24931 0.0
C5848 C 0.64638 0.61962 0.26521 0.0
C5849 C 0.64846 0.61503 0.27075 0.0
C5850 C 0.65265 0.61215 0.25672 0.0
C5851 C 0.65268 0.60909 0.26907 0.0
C5852 C 0.65976 0.60494 0.24791 0.0
C5853 C 0.65313 0.61216 0.23683 0.0
N5854 N 0.65465 0.60782 0.26221 0.0
N5855 N 0.65164 0.6138 0.24373 0.0
H5856 H 0.52432 0.6653 0.90138 0.0
H5857 H 0.49313 0.63631 0.89782 0.0
H5858 H 0.52506 0.6448 0.91186 0.0
H5859 H 0.49259 0.65722 0.88823 0.0
H5860 H 0.50464 0.63928 0.90331 0.0
H5861 H 0.51248 0.66246 0.89691 0.0
C5862 C 0.52196 0.66023 0.90283 0.0
C5863 C 0.52571 0.6553 0.90704 0.0
C5864 C 0.50199 0.64322 0.90002 0.0
C5865 C 0.51213 0.65193 0.90177 0.0
C5866 C 0.49542 0.64153 0.89688 0.0
C5867 C 0.49194 0.64653 0.89254 0.0
C5868 C 0.50506 0.64996 0.89879 0.0
C5869 C 0.49513 0.65321 0.89152 0.0
C5870 C 0.5152 0.65858 0.90022 0.0
C5871 C 0.52241 0.64874 0.90857 0.0
N5872 N 0.50151 0.65472 0.8946 0.0
N5873 N 0.51581 0.64723 0.90593 0.0
H5874 H 0.61494 0.27575 0.16046 0.0
H5875 H 0.60758 0.24623 0.13041 0.0
H5876 H 0.59898 0.27771 0.14397 0.0
H5877 H 0.62462 0.24445 0.14577 0.0
H5878 H 0.60433 0.25777 0.1355 0.0
H5879 H 0.61863 0.26431 0.15531 0.0
C5880 C 0.61223 0.2738 0.15575 0.0
C5881 C 0.6066 0.27769 0.15268 0.0
C5882 C 0.6088 0.25488 0.13776 0.0
C5883 C 0.61076 0.26458 0.14679 0.0
C5884 C 0.61064 0.24829 0.13486 0.0
C5885 C 0.61637 0.2444 0.13767 0.0
C5886 C 0.61269 0.25761 0.14356 0.0
C5887 C 0.62017 0.24729 0.14344 0.0
C5888 C 0.61432 0.26725 0.15283 0.0
C5889 C 0.60325 0.27485 0.14661 0.0
N5890 N 0.61825 0.25373 0.14621 0.0
N5891 N 0.60537 0.26849 0.14389 0.0
H5892 H 0.98764 0.35105 0.41294 0.0
H5893 H 0.0149 0.37592 0.39139 0.0
H5894 H 0.98097 0.36661 0.39734 0.0
H5895 H 0.02142 0.35744 0.40346 0.0
H5896 H 1.00246 0.37339 0.39447 0.0
H5897 H 1.00009 0.35418 0.41055 0.0
C5898 C 0.9888 0.35517 0.40906 0.0
C5899 C 0.98326 0.35856 0.40532 0.0
C5900 C 0.00661 0.3699 0.39646 0.0
C5901 C 0.99749 0.36214 0.40253 0.0
C5902 C 0.01371 0.37134 0.39471 0.0
C5903 C 0.01918 0.36686 0.39718 0.0
C5904 C 1.00498 0.36396 0.40073 0.0
C5905 C 0.01735 0.36101 0.40145 0.0
C5906 C 0.9959 0.35692 0.40766 0.0
C5907 C 0.98507 0.3638 0.40029 0.0
N5908 N 0.0104 0.35972 0.4031 0.0
N5909 N 0.99203 0.36543 0.39904 0.0
H5910 H 0.91353 0.73896 0.65941 0.0
H5911 H 0.8842 0.76603 0.64408 0.0
H5912 H 0.89242 0.73239 0.65298 0.0
H5913 H 0.90516 0.77241 0.65115 0.0
H5914 H 0.88688 0.75375 0.64767 0.0
H5915 H 0.91036 0.75131 0.65679 0.0
C5916 C 0.90822 0.74012 0.65745 0.0
C5917 C 0.90325 0.73462 0.65637 0.0
C5918 C 0.89088 0.75784 0.64846 0.0
C5919 C 0.89955 0.74879 0.65338 0.0
C5920 C 0.88936 0.76485 0.64641 0.0
C5921 C 0.89449 0.77022 0.64731 0.0
C5922 C 0.89759 0.75621 0.65141 0.0
C5923 C 0.90107 0.7684 0.65036 0.0
C5924 C 0.9064 0.74718 0.65598 0.0
C5925 C 0.8964 0.73646 0.65393 0.0
N5926 N 0.90244 0.76155 0.65228 0.0
N5927 N 0.89477 0.74338 0.65248 0.0
H5928 H 0.52425 0.34574 0.60762 0.0
H5929 H 0.49307 0.37453 0.61265 0.0
H5930 H 0.52557 0.36723 0.5994 0.0
H5931 H 0.49176 0.35265 0.61969 0.0
H5932 H 0.50482 0.372 0.60748 0.0
H5933 H 0.51217 0.34817 0.61168 0.0
C5934 C 0.52198 0.35095 0.60658 0.0
C5935 C 0.52596 0.35628 0.60313 0.0
C5936 C 0.50195 0.36775 0.61013 0.0
C5937 C 0.51209 0.35915 0.60794 0.0
C5938 C 0.49525 0.36919 0.61309 0.0
C5939 C 0.49147 0.36378 0.61663 0.0
C5940 C 0.50487 0.36087 0.61074 0.0
C5941 C 0.49452 0.35697 0.61702 0.0
C5942 C 0.51507 0.35235 0.60896 0.0
C5943 C 0.52274 0.36298 0.6021 0.0
N5944 N 0.50105 0.35571 0.61413 0.0
N5945 N 0.51601 0.36423 0.60452 0.0
H5946 H 0.89393 0.27836 0.8565 0.0
H5947 H 0.90697 0.23764 0.85772 0.0
H5948 H 0.91477 0.27126 0.84974 0.0
H5949 H 0.88633 0.24452 0.86525 0.0
H5950 H 0.90962 0.24989 0.85415 0.0
H5951 H 0.89069 0.26595 0.85903 0.0
C5952 C 0.8978 0.27419 0.85548 0.0
C5953 C 0.90465 0.27586 0.85295 0.0
C5954 C 0.9045 0.24874 0.85656 0.0
C5955 C 0.90101 0.26167 0.8559 0.0
C5956 C 0.90299 0.24174 0.8586 0.0
C5957 C 0.89644 0.24008 0.86179 0.0
C5958 C 0.89942 0.25413 0.85774 0.0
C5959 C 0.89145 0.24558 0.8628 0.0
C5960 C 0.89596 0.26711 0.85697 0.0
C5961 C 0.90947 0.27024 0.8518 0.0
N5962 N 0.89306 0.25237 0.8608 0.0
N5963 N 0.90757 0.26341 0.8533 0.0
H5964 H 0.98548 0.66389 0.11334 0.0
H5965 H 0.01845 0.63675 0.11202 0.0
H5966 H 0.9865 0.64608 0.09875 0.0
H5967 H 0.01788 0.65574 0.12501 0.0
H5968 H 0.00677 0.63995 0.10707 0.0
H5969 H 0.9974 0.66095 0.11756 0.0
C5970 C 0.98824 0.65941 0.11094 0.0
C5971 C 0.98496 0.65525 0.10564 0.0
C5972 C 0.00921 0.64342 0.111 0.0
C5973 C 0.99863 0.65175 0.1106 0.0
C5974 C 0.01587 0.64159 0.11383 0.0
C5975 C 0.01911 0.64599 0.11895 0.0
C5976 C 0.00578 0.64968 0.11332 0.0
C5977 C 0.01554 0.6522 0.12108 0.0
C5978 C 0.99504 0.6577 0.11341 0.0
C5979 C 0.98877 0.6494 0.10289 0.0
N5980 N 0.00907 0.65385 0.11828 0.0
N5981 N 0.99539 0.64781 0.10542 0.0
H5982 H 0.6001 0.7391 0.34505 0.0
H5983 H 0.6258 0.7651 0.36721 0.0
H5984 H 0.61544 0.73174 0.36055 0.0
H5985 H 0.60778 0.77255 0.35497 0.0
H5986 H 0.62296 0.75287 0.36372 0.0
H5987 H 0.60376 0.75141 0.34747 0.0
C5988 C 0.60428 0.74007 0.34891 0.0
C5989 C 0.60744 0.7344 0.35264 0.0
C5990 C 0.61964 0.75717 0.36177 0.0
C5991 C 0.61163 0.74845 0.35546 0.0
C5992 C 0.62127 0.76417 0.36375 0.0
C5993 C 0.617 0.76984 0.36138 0.0
C5994 C 0.61371 0.75585 0.35737 0.0
C5995 C 0.61119 0.76831 0.35692 0.0
C5996 C 0.60634 0.7471 0.35033 0.0
C5997 C 0.61279 0.73597 0.35763 0.0
N5998 N 0.60971 0.76146 0.35506 0.0
N5999 N 0.61471 0.74284 0.3589 0.0
H6000 H 0.90035 0.52905 0.64321 0.0
H6001 H 0.90479 0.48786 0.65357 0.0
H6002 H 0.91427 0.52165 0.65998 0.0
H6003 H 0.89306 0.49516 0.63516 0.0
H6004 H 0.90836 0.5002 0.65602 0.0
H6005 H 0.89763 0.51666 0.64018 0.0
C6006 C 0.90284 0.52481 0.64625 0.0
C6007 C 0.90752 0.52639 0.65188 0.0
C6008 C 0.90503 0.4991 0.65143 0.0
C6009 C 0.90444 0.51218 0.64843 0.0
C6010 C 0.903 0.49207 0.65003 0.0
C6011 C 0.89864 0.4905 0.64417 0.0
C6012 C 0.90264 0.50461 0.64694 0.0
C6013 C 0.89644 0.49613 0.63975 0.0
C6014 C 0.90131 0.51774 0.6445 0.0
C6015 C 0.91068 0.52068 0.65557 0.0
N6016 N 0.89844 0.50294 0.64125 0.0
N6017 N 0.90904 0.51383 0.65381 0.0
H6018 H 0.73924 0.66583 0.90885 0.0
H6019 H 0.7657 0.64296 0.88425 0.0
H6020 H 0.73216 0.64952 0.89423 0.0
H6021 H 0.77286 0.65619 0.90167 0.0
H6022 H 0.75338 0.64635 0.8869 0.0
H6023 H 0.75159 0.66346 0.9053 0.0
C6024 C 0.74028 0.6618 0.90484 0.0
C6025 C 0.73467 0.65784 0.90186 0.0
C6026 C 0.75764 0.64854 0.89013 0.0
C6027 C 0.74878 0.65507 0.8978 0.0
C6028 C 0.76468 0.64662 0.88861 0.0
C6029 C 0.77029 0.6493 0.89277 0.0
C6030 C 0.75621 0.65319 0.89583 0.0
C6031 C 0.76866 0.654 0.89835 0.0
C6032 C 0.74733 0.66042 0.90285 0.0
C6033 C 0.73634 0.65263 0.89673 0.0
N6034 N 0.76177 0.6558 0.89973 0.0
N6035 N 0.74323 0.65139 0.89488 0.0
H6036 H 0.60589 0.48252 0.14282 0.0
H6037 H 0.60672 0.52332 0.15557 0.0
H6038 H 0.59886 0.48967 0.16355 0.0
H6039 H 0.61481 0.51623 0.13522 0.0
H6040 H 0.60304 0.51109 0.15822 0.0
H6041 H 0.60834 0.49491 0.13954 0.0
C6042 C 0.60479 0.4867 0.14665 0.0
C6043 C 0.6022 0.48505 0.15349 0.0
C6044 C 0.6056 0.5122 0.15316 0.0
C6045 C 0.60508 0.49923 0.14979 0.0
C6046 C 0.60769 0.51918 0.15165 0.0
C6047 C 0.61108 0.52077 0.14519 0.0
C6048 C 0.60692 0.50676 0.14818 0.0
C6049 C 0.61222 0.51523 0.14028 0.0
C6050 C 0.60624 0.49377 0.14479 0.0
C6051 C 0.60096 0.49068 0.15826 0.0
N6052 N 0.61016 0.50846 0.14189 0.0
N6053 N 0.60242 0.49751 0.15633 0.0
H6054 H 0.77084 0.34901 0.41431 0.0
H6055 H 0.74553 0.36641 0.38462 0.0
H6056 H 0.77844 0.35619 0.39381 0.0
H6057 H 0.73788 0.35826 0.40473 0.0
H6058 H 0.75755 0.36233 0.38767 0.0
H6059 H 0.75867 0.35199 0.41071 0.0
C6060 C 0.76994 0.35121 0.40904 0.0
C6061 C 0.77567 0.35239 0.40437 0.0
C6062 C 0.75324 0.3614 0.3914 0.0
C6063 C 0.76174 0.3558 0.40019 0.0
C6064 C 0.74637 0.36373 0.38966 0.0
C6065 C 0.74072 0.36268 0.39445 0.0
C6066 C 0.75445 0.35802 0.39799 0.0
C6067 C 0.74211 0.35918 0.4009 0.0
C6068 C 0.76299 0.35288 0.40698 0.0
C6069 C 0.77418 0.35515 0.39757 0.0
N6070 N 0.74885 0.357 0.4025 0.0
N6071 N 0.76737 0.3568 0.3957 0.0
H6072 H 0.9038 0.48173 0.86815 0.0
H6073 H 0.9022 0.52215 0.85429 0.0
H6074 H 0.90964 0.48828 0.84687 0.0
H6075 H 0.89473 0.51562 0.87504 0.0
H6076 H 0.90578 0.50985 0.85183 0.0
H6077 H 0.90134 0.49421 0.87116 0.0
C6078 C 0.90463 0.4858 0.86413 0.0
C6079 C 0.90689 0.48395 0.85723 0.0
C6080 C 0.90338 0.5111 0.85694 0.0
C6081 C 0.90403 0.49822 0.86063 0.0
C6082 C 0.90134 0.51812 0.85834 0.0
C6083 C 0.89815 0.51989 0.86486 0.0
C6084 C 0.90221 0.5058 0.8621 0.0
C6085 C 0.89716 0.51448 0.86994 0.0
C6086 C 0.90319 0.49291 0.86584 0.0
C6087 C 0.9078 0.48944 0.85222 0.0
N6088 N 0.89917 0.50766 0.86844 0.0
N6089 N 0.90636 0.49631 0.85401 0.0
H6090 H 0.78034 0.64853 0.11684 0.0
H6091 H 0.73921 0.65433 0.10716 0.0
H6092 H 0.77298 0.66407 0.10155 0.0
H6093 H 0.74621 0.64221 0.12543 0.0
H6094 H 0.75161 0.65771 0.10482 0.0
H6095 H 0.76792 0.64587 0.1199 0.0
C6096 C 0.7761 0.65139 0.11414 0.0
C6097 C 0.77769 0.65652 0.10892 0.0
C6098 C 0.75044 0.65435 0.10936 0.0
C6099 C 0.76348 0.6535 0.11237 0.0
C6100 C 0.74337 0.65241 0.11069 0.0
C6101 C 0.7417 0.64801 0.11649 0.0
C6102 C 0.75589 0.65179 0.11383 0.0
C6103 C 0.74727 0.64564 0.1209 0.0
C6104 C 0.76902 0.64989 0.1159 0.0
C6105 C 0.772 0.66013 0.10564 0.0
N6106 N 0.75413 0.64753 0.11946 0.0
N6107 N 0.76515 0.65851 0.10738 0.0
H6108 H 0.60028 0.52233 0.34602 0.0
H6109 H 0.61617 0.49536 0.37513 0.0
H6110 H 0.60675 0.5289 0.36711 0.0
H6111 H 0.60878 0.48889 0.35432 0.0
H6112 H 0.61257 0.50764 0.37244 0.0
H6113 H 0.60317 0.51001 0.34909 0.0
C6114 C 0.60232 0.52118 0.3513 0.0
C6115 C 0.60331 0.52667 0.3563 0.0
C6116 C 0.61171 0.50353 0.36847 0.0
C6117 C 0.60661 0.51254 0.35988 0.0
C6118 C 0.61377 0.49652 0.37 0.0
C6119 C 0.61277 0.49112 0.36492 0.0
C6120 C 0.60866 0.50513 0.36181 0.0
C6121 C 0.60964 0.49292 0.35837 0.0
C6122 C 0.60394 0.51414 0.35307 0.0
C6123 C 0.60585 0.52484 0.36311 0.0
N6124 N 0.60771 0.49977 0.357 0.0
N6125 N 0.60745 0.51793 0.36469 0.0
H6126 H 0.73966 0.34804 0.59645 0.0
H6127 H 0.76461 0.36615 0.62605 0.0
H6128 H 0.7317 0.35616 0.61647 0.0
H6129 H 0.77249 0.3573 0.60633 0.0
H6130 H 0.75257 0.36218 0.62288 0.0
H6131 H 0.75177 0.35105 0.60018 0.0
C6132 C 0.74046 0.35046 0.60163 0.0
C6133 C 0.73464 0.3519 0.60613 0.0
C6134 C 0.75694 0.36107 0.61926 0.0
C6135 C 0.74853 0.35533 0.61047 0.0
C6136 C 0.76381 0.36334 0.62107 0.0
C6137 C 0.76954 0.36206 0.61642 0.0
C6138 C 0.7558 0.35752 0.61275 0.0
C6139 C 0.76821 0.35839 0.61004 0.0
C6140 C 0.74738 0.35215 0.60378 0.0
C6141 C 0.73602 0.35492 0.61285 0.0
N6142 N 0.76147 0.35628 0.60838 0.0
N6143 N 0.74282 0.35658 0.6148 0.0
H6144 H 0.64258 0.90431 0.52882 0.0
H6145 H 0.65386 0.90384 0.48757 0.0
H6146 H 0.66295 0.91163 0.52097 0.0
H6147 H 0.6343 0.8946 0.49544 0.0
H6148 H 0.65683 0.90759 0.49971 0.0
H6149 H 0.63898 0.90161 0.51655 0.0
C6150 C 0.64627 0.90541 0.52451 0.0
C6151 C 0.65309 0.90817 0.52593 0.0
C6152 C 0.65188 0.90476 0.49879 0.0
C6153 C 0.64903 0.90504 0.51189 0.0
C6154 C 0.65018 0.90263 0.49186 0.0
C6155 C 0.64385 0.89889 0.49051 0.0
C6156 C 0.6472 0.90314 0.50442 0.0
C6157 C 0.63925 0.89746 0.49625 0.0
C6158 C 0.64423 0.90383 0.51751 0.0
C6159 C 0.65768 0.90941 0.52014 0.0
N6160 N 0.64103 0.89958 0.50296 0.0
N6161 N 0.65558 0.90783 0.51339 0.0
H6162 H 0.16349 0.61417 0.4839 0.0
H6163 H 0.13651 0.61371 0.51706 0.0
H6164 H 0.14517 0.60023 0.48492 0.0
H6165 H 0.15452 0.62791 0.51516 0.0
H6166 H 0.13957 0.6085 0.50545 0.0
H6167 H 0.16033 0.61899 0.49553 0.0
C6168 C 0.15883 0.61206 0.4866 0.0
C6169 C 0.15462 0.60674 0.48344 0.0
C6170 C 0.14285 0.61276 0.50757 0.0
C6171 C 0.15089 0.61236 0.49677 0.0
C6172 C 0.1411 0.61573 0.5142 0.0
C6173 C 0.14528 0.62126 0.51705 0.0
C6174 C 0.14881 0.61533 0.50381 0.0
C6175 C 0.15117 0.62367 0.51313 0.0
C6176 C 0.157 0.61487 0.49324 0.0
C6177 C 0.14855 0.60436 0.48714 0.0
N6178 N 0.15276 0.62069 0.50673 0.0
N6179 N 0.14686 0.60718 0.49362 0.0
H6180 H 0.64881 0.91433 0.73468 0.0
H6181 H 0.64792 0.88648 0.76707 0.0
H6182 H 0.66185 0.89535 0.73526 0.0
H6183 H 0.63575 0.90602 0.76647 0.0
H6184 H 0.65315 0.88954 0.75548 0.0
H6185 H 0.64412 0.91135 0.74641 0.0
C6186 C 0.65076 0.90957 0.73731 0.0
C6187 C 0.65577 0.90511 0.73397 0.0
C6188 C 0.64934 0.89316 0.75789 0.0
C6189 C 0.65029 0.90157 0.74742 0.0
C6190 C 0.64635 0.89141 0.7645 0.0
C6191 C 0.64138 0.89601 0.7677 0.0
C6192 C 0.64734 0.89954 0.75448 0.0
C6193 C 0.63955 0.90233 0.76416 0.0
C6194 C 0.64803 0.90784 0.744 0.0
C6195 C 0.65794 0.89891 0.73759 0.0
N6196 N 0.64252 0.9039 0.75774 0.0
N6197 N 0.65519 0.89732 0.74412 0.0
H6198 H 0.35124 0.41394 0.98862 0.0
H6199 H 0.37558 0.39021 0.01452 0.0
H6200 H 0.36524 0.39727 0.98109 0.0
H6201 H 0.35798 0.40308 0.02192 0.0
H6202 H 0.37285 0.39377 1.00226 0.0
H6203 H 0.35468 0.41109 1.00089 0.0
C6204 C 0.35509 0.40972 0.98955 0.0
C6205 C 0.35795 0.40582 0.98383 0.0
C6206 C 0.36959 0.39583 0.00657 0.0
C6207 C 0.36187 0.40251 0.99785 0.0
C6208 C 0.37116 0.39382 0.01357 0.0
C6209 C 0.36698 0.39637 0.01923 0.0
C6210 C 0.36384 0.40045 0.00523 0.0
C6211 C 0.36132 0.401 0.01769 0.0
C6212 C 0.35701 0.40807 0.99655 0.0
C6213 C 0.36284 0.40036 0.98535 0.0
N6214 N 0.35991 0.4029 0.01084 0.0
N6215 N 0.36466 0.39887 0.99221 0.0
H6216 H 0.34712 0.5954 0.74008 0.0
H6217 H 0.36493 0.62474 0.76555 0.0
H6218 H 0.35496 0.61572 0.73259 0.0
H6219 H 0.35677 0.60458 0.77307 0.0
H6220 H 0.36083 0.62177 0.75353 0.0
H6221 H 0.35012 0.59889 0.75227 0.0
C6222 C 0.34946 0.6006 0.741 0.0
C6223 C 0.35082 0.60526 0.73529 0.0
C6224 C 0.3599 0.61801 0.75781 0.0
C6225 C 0.35426 0.60931 0.74926 0.0
C6226 C 0.36225 0.6197 0.76468 0.0
C6227 C 0.3612 0.61488 0.7703 0.0
C6228 C 0.35651 0.61144 0.75655 0.0
C6229 C 0.35769 0.60843 0.76886 0.0
C6230 C 0.35115 0.60261 0.74797 0.0
C6231 C 0.35376 0.61198 0.73683 0.0
N6232 N 0.35549 0.60688 0.76213 0.0
N6233 N 0.35542 0.61378 0.74365 0.0
H6234 H 0.84519 0.10921 0.02463 0.0
H6235 H 0.8739 0.11343 0.99328 0.0
H6236 H 0.86649 0.1005 0.02586 0.0
H6237 H 0.85233 0.12141 0.99228 0.0
H6238 H 0.8713 0.10829 1.00502 0.0
H6239 H 0.84767 0.11326 0.01256 0.0
C6240 C 0.85037 0.10807 0.02234 0.0
C6241 C 0.85563 0.10448 0.02629 0.0
C6242 C 0.86713 0.11114 1.00222 0.0
C6243 C 0.85857 0.10926 0.01244 0.0
C6244 C 0.86862 0.11407 0.99552 0.0
C6245 C 0.86332 0.11787 0.99183 0.0
C6246 C 0.86032 0.11202 0.00523 0.0
C6247 C 0.85656 0.11854 0.99497 0.0
C6248 C 0.8518 0.11044 0.01544 0.0
C6249 C 0.8623 0.10331 0.02306 0.0
N6250 N 0.85526 0.11567 1.00148 0.0
N6251 N 0.86358 0.10571 0.01633 0.0
H6252 H 0.66201 0.09989 0.77219 0.0
H6253 H 0.64115 0.12486 0.74446 0.0
H6254 H 0.64798 0.11701 0.77855 0.0
H6255 H 0.65198 0.10545 0.73845 0.0
H6256 H 0.64454 0.12275 0.75688 0.0
H6257 H 0.65942 0.10259 0.75969 0.0
C6258 C 0.65844 0.10426 0.77095 0.0
C6259 C 0.65519 0.10822 0.77642 0.0
C6260 C 0.64619 0.11896 0.75285 0.0
C6261 C 0.65215 0.11131 0.76213 0.0
C6262 C 0.64427 0.12016 0.74575 0.0
C6263 C 0.64629 0.1153 0.74043 0.0
C6264 C 0.65019 0.11287 0.75462 0.0
C6265 C 0.65031 0.10931 0.74241 0.0
C6266 C 0.65692 0.10577 0.76382 0.0
C6267 C 0.65054 0.11377 0.77451 0.0
N6268 N 0.65213 0.10826 0.74934 0.0
N6269 N 0.64915 0.11515 0.76752 0.0
H6270 H 0.85006 0.91389 0.27096 0.0
H6271 H 0.86698 0.88453 0.24489 0.0
H6272 H 0.85767 0.89341 0.27823 0.0
H6273 H 0.859 0.90493 0.23785 0.0
H6274 H 0.8632 0.88741 0.25706 0.0
H6275 H 0.85287 0.91045 0.25873 0.0
C6276 C 0.85233 0.90866 0.26998 0.0
C6277 C 0.85368 0.90395 0.27564 0.0
C6278 C 0.86225 0.89125 0.25285 0.0
C6279 C 0.85689 0.89995 0.26161 0.0
C6280 C 0.86441 0.8896 0.2459 0.0
C6281 C 0.8633 0.89452 0.24037 0.0
C6282 C 0.85899 0.89785 0.25426 0.0
C6283 C 0.85995 0.90101 0.24198 0.0
C6284 C 0.85391 0.90668 0.26298 0.0
C6285 C 0.8565 0.89719 0.27403 0.0
N6286 N 0.85793 0.9025 0.24877 0.0
N6287 N 0.85805 0.89541 0.26717 0.0
H6288 H 0.49061 0.34466 0.10008 0.0
H6289 H 0.51681 0.3751 0.11472 0.0
H6290 H 0.48359 0.36597 0.10525 0.0
H6291 H 0.52335 0.35344 0.11048 0.0
H6292 H 0.5048 0.37217 0.11048 0.0
H6293 H 0.50281 0.34808 0.10306 0.0
C6294 C 0.49164 0.35006 0.10184 0.0
C6295 C 0.48605 0.35501 0.10248 0.0
C6296 C 0.50887 0.36807 0.11045 0.0
C6297 C 0.50005 0.359 0.10587 0.0
C6298 C 0.51573 0.36974 0.11286 0.0
C6299 C 0.52106 0.36448 0.11297 0.0
C6300 C 0.50735 0.3611 0.10813 0.0
C6301 C 0.51937 0.35763 0.1105 0.0
C6302 C 0.49862 0.35203 0.10352 0.0
C6303 C 0.48773 0.36199 0.10464 0.0
N6304 N 0.51266 0.35613 0.1082 0.0
N6305 N 0.49457 0.36376 0.10631 0.0
H6306 H 0.39234 0.73269 0.85537 0.0
H6307 H 0.40623 0.77306 0.85788 0.0
H6308 H 0.41344 0.73945 0.8491 0.0
H6309 H 0.38541 0.76638 0.86505 0.0
H6310 H 0.40868 0.76085 0.85399 0.0
H6311 H 0.38936 0.74509 0.85821 0.0
C6312 C 0.39632 0.73679 0.85452 0.0
C6313 C 0.40317 0.73502 0.85203 0.0
C6314 C 0.40356 0.76204 0.8564 0.0
C6315 C 0.39982 0.74921 0.85534 0.0
C6316 C 0.40217 0.76901 0.85861 0.0
C6317 C 0.39563 0.77072 0.8618 0.0
C6318 C 0.39837 0.75673 0.85738 0.0
C6319 C 0.39053 0.76529 0.86263 0.0
C6320 C 0.39463 0.74386 0.85619 0.0
C6321 C 0.40814 0.74055 0.85111 0.0
N6322 N 0.39202 0.75853 0.86045 0.0
N6323 N 0.40637 0.74738 0.85278 0.0
H6324 H 0.01965 0.6648 0.59571 0.0
H6325 H 0.99433 0.63552 0.61377 0.0
H6326 H 0.02724 0.64458 0.60369 0.0
H6327 H 0.98665 0.65546 0.60522 0.0
H6328 H 0.00634 0.63851 0.60966 0.0
H6329 H 0.00746 0.66127 0.59869 0.0
C6330 C 0.01875 0.65961 0.59808 0.0
C6331 C 0.02449 0.655 0.59948 0.0
C6332 C 1.00203 0.64223 0.60865 0.0
C6333 C 0.01053 0.6509 0.6029 0.0
C6334 C 0.99516 0.64052 0.611 0.0
C6335 C 0.9895 0.64527 0.60984 0.0
C6336 C 1.00324 0.64874 0.60515 0.0
C6337 C 0.99089 0.65166 0.60622 0.0
C6338 C 0.01179 0.65758 0.59976 0.0
C6339 C 0.02298 0.64829 0.60245 0.0
N6340 N 0.99762 0.65323 0.60402 0.0
N6341 N 0.01616 0.64646 0.6041 0.0
H6342 H 0.11683 0.27874 0.36041 0.0
H6343 H 0.1058 0.23782 0.35564 0.0
H6344 H 0.0999 0.27173 0.34646 0.0
H6345 H 0.12488 0.24457 0.3666 0.0
H6346 H 0.10348 0.25023 0.35229 0.0
H6347 H 0.11982 0.26627 0.36283 0.0
C6348 C 0.11375 0.27457 0.35785 0.0
C6349 C 0.10809 0.27627 0.35325 0.0
C6350 C 0.1082 0.249 0.3554 0.0
C6351 C 0.11148 0.26199 0.356 0.0
C6352 C 0.10951 0.24193 0.35731 0.0
C6353 C 0.11552 0.24018 0.3614 0.0
C6354 C 0.11291 0.25438 0.35764 0.0
C6355 C 0.12018 0.24568 0.36344 0.0
C6356 C 0.11548 0.26746 0.35921 0.0
C6357 C 0.10434 0.27066 0.35 0.0
N6358 N 0.11875 0.25254 0.36157 0.0
N6359 N 0.10607 0.26377 0.35148 0.0
H6360 H 0.48118 0.64328 0.40478 0.0
H6361 H 0.52208 0.65567 0.40276 0.0
H6362 H 0.48869 0.66407 0.41123 0.0
H6363 H 0.5147 0.63528 0.39507 0.0
H6364 H 0.50992 0.65853 0.40652 0.0
H6365 H 0.49347 0.6399 0.4019 0.0
C6366 C 0.48542 0.64711 0.40565 0.0
C6367 C 0.4839 0.65399 0.40821 0.0
C6368 C 0.51095 0.65342 0.40403 0.0
C6369 C 0.49796 0.65017 0.40486 0.0
C6370 C 0.51789 0.65179 0.40189 0.0
C6371 C 0.51938 0.64525 0.3986 0.0
C6372 C 0.50544 0.64846 0.40287 0.0
C6373 C 0.51377 0.64039 0.39759 0.0
C6374 C 0.49243 0.64519 0.40396 0.0
C6375 C 0.4896 0.65876 0.40916 0.0
N6376 N 0.50703 0.64211 0.3997 0.0
N6377 N 0.49636 0.65676 0.40747 0.0
H6378 H 0.1186 0.73252 0.1552 0.0
H6379 H 0.10528 0.77313 0.15355 0.0
H6380 H 0.09737 0.73929 0.16101 0.0
H6381 H 0.12564 0.76609 0.14545 0.0
H6382 H 0.10269 0.7609 0.15732 0.0
H6383 H 0.12171 0.74494 0.15267 0.0
C6384 C 0.11462 0.73663 0.15602 0.0
C6385 C 0.1077 0.73486 0.15829 0.0
C6386 C 0.10774 0.76203 0.15474 0.0
C6387 C 0.1112 0.74908 0.15533 0.0
C6388 C 0.10922 0.76901 0.1526 0.0
C6389 C 0.11566 0.77061 0.14917 0.0
C6390 C 0.11276 0.75661 0.15344 0.0
C6391 C 0.12059 0.76508 0.14806 0.0
C6392 C 0.11638 0.74371 0.15452 0.0
C6393 C 0.10273 0.7404 0.15917 0.0
N6394 N 0.11903 0.75832 0.15018 0.0
N6395 N 0.10457 0.74724 0.15768 0.0
H6396 H 0.02708 0.36657 0.90864 0.0
H6397 H 0.98608 0.35516 0.90458 0.0
H6398 H 0.01904 0.34566 0.91398 0.0
H6399 H 0.99427 0.37576 0.8984 0.0
H6400 H 0.99794 0.35192 0.909 0.0
H6401 H 0.01492 0.37039 0.90589 0.0
C6402 C 0.02275 0.3628 0.90932 0.0
C6403 C 0.0241 0.35577 0.91151 0.0
C6404 C 0.99714 0.35717 0.90672 0.0
C6405 C 0.01016 0.36009 0.90828 0.0
C6406 C 0.99037 0.35902 0.9042 0.0
C6407 C 0.98921 0.36571 0.9011 0.0
C6408 C 1.00279 0.36206 0.90611 0.0
C6409 C 0.99494 0.37052 0.90073 0.0
C6410 C 0.01581 0.36498 0.90771 0.0
C6411 C 0.01827 0.3511 0.91221 0.0
N6412 N 1.00149 0.36859 0.90318 0.0
N6413 N 0.01157 0.35334 0.91057 0.0
H6414 H 0.39165 0.27788 0.65501 0.0
H6415 H 0.40608 0.23768 0.65281 0.0
H6416 H 0.41323 0.27166 0.66011 0.0
H6417 H 0.38501 0.24396 0.64597 0.0
H6418 H 0.40847 0.25 0.65636 0.0
H6419 H 0.38876 0.26537 0.6526 0.0
C6420 C 0.39576 0.27388 0.6557 0.0
C6421 C 0.40271 0.27582 0.65773 0.0
C6422 C 0.40332 0.2487 0.6541 0.0
C6423 C 0.39946 0.26152 0.65491 0.0
C6424 C 0.40195 0.24167 0.65208 0.0
C6425 C 0.39536 0.23982 0.64908 0.0
C6426 C 0.39804 0.25393 0.65311 0.0
C6427 C 0.39018 0.24517 0.64826 0.0
C6428 C 0.39412 0.26674 0.65427 0.0
C6429 C 0.40784 0.27042 0.65845 0.0
N6430 N 0.39164 0.252 0.65025 0.0
N6431 N 0.40612 0.26352 0.65703 0.0
H6432 H 0.09776 0.49035 0.34486 0.0
H6433 H 0.11416 0.51623 0.37465 0.0
H6434 H 0.1046 0.48307 0.3656 0.0
H6435 H 0.10648 0.52349 0.35421 0.0
H6436 H 0.11032 0.50412 0.37164 0.0
H6437 H 0.10056 0.50258 0.34837 0.0
C6438 C 0.09985 0.49132 0.35016 0.0
C6439 C 0.10099 0.48567 0.35493 0.0
C6440 C 0.10944 0.50836 0.36782 0.0
C6441 C 0.10418 0.49968 0.359 0.0
C6442 C 0.11164 0.51528 0.36954 0.0
C6443 C 0.11065 0.52086 0.36465 0.0
C6444 C 0.10626 0.50702 0.36117 0.0
C6445 C 0.10734 0.51933 0.35812 0.0
C6446 C 0.10142 0.49832 0.35217 0.0
C6447 C 0.10359 0.48727 0.36177 0.0
N6448 N 0.1053 0.51255 0.35655 0.0
N6449 N 0.10514 0.49412 0.36358 0.0
H6450 H 0.26982 0.34882 0.09375 0.0
H6451 H 0.24458 0.36376 0.1248 0.0
H6452 H 0.27723 0.35346 0.11505 0.0
H6453 H 0.23711 0.35871 0.10363 0.0
H6454 H 0.25642 0.35937 0.12155 0.0
H6455 H 0.25768 0.35181 0.09745 0.0
C6456 C 0.26889 0.35046 0.09921 0.0
C6457 C 0.27456 0.35093 0.10408 0.0
C6458 C 0.25219 0.35918 0.11762 0.0
C6459 C 0.26066 0.35434 0.10838 0.0
C6460 C 0.24542 0.36169 0.11948 0.0
C6461 C 0.23987 0.36162 0.11445 0.0
C6462 C 0.25342 0.35661 0.11068 0.0
C6463 C 0.24126 0.35886 0.10765 0.0
C6464 C 0.26195 0.35214 0.10133 0.0
C6465 C 0.27302 0.35297 0.11112 0.0
N6466 N 0.24791 0.3565 0.10595 0.0
N6467 N 0.26622 0.35464 0.11305 0.0
H6468 H 0.39876 0.52895 0.86723 0.0
H6469 H 0.4066 0.48799 0.85814 0.0
H6470 H 0.41459 0.52218 0.85195 0.0
H6471 H 0.39331 0.49477 0.87565 0.0
H6472 H 0.40956 0.50048 0.85572 0.0
H6473 H 0.39661 0.51646 0.87033 0.0
C6474 C 0.40179 0.52483 0.86453 0.0
C6475 C 0.40684 0.52661 0.8593 0.0
C6476 C 0.40603 0.49924 0.86012 0.0
C6477 C 0.40442 0.5123 0.86283 0.0
C6478 C 0.40434 0.49212 0.86149 0.0
C6479 C 0.39971 0.49036 0.86709 0.0
C6480 C 0.40301 0.50465 0.86435 0.0
C6481 C 0.39691 0.49589 0.87128 0.0
C6482 C 0.40059 0.5177 0.86633 0.0
C6483 C 0.41069 0.52106 0.85605 0.0
N6484 N 0.39857 0.50279 0.8698 0.0
N6485 N 0.40936 0.51415 0.85783 0.0
H6486 H 0.24007 0.66203 0.5964 0.0
H6487 H 0.26795 0.64742 0.62531 0.0
H6488 H 0.23445 0.65715 0.61818 0.0
H6489 H 0.27337 0.65165 0.60335 0.0
H6490 H 0.25584 0.6517 0.62302 0.0
H6491 H 0.25248 0.65909 0.59908 0.0
C6492 C 0.24145 0.66042 0.60177 0.0
C6493 C 0.23619 0.65981 0.60707 0.0
C6494 C 0.25968 0.65172 0.6187 0.0
C6495 C 0.2504 0.65634 0.61015 0.0
C6496 C 0.26661 0.64928 0.62001 0.0
C6497 C 0.27166 0.64916 0.61449 0.0
C6498 C 0.2578 0.65406 0.61183 0.0
C6499 C 0.26962 0.65165 0.60774 0.0
C6500 C 0.24854 0.65869 0.60329 0.0
C6501 C 0.2383 0.65759 0.61391 0.0
N6502 N 0.26284 0.65397 0.60659 0.0
N6503 N 0.24523 0.65592 0.61524 0.0
H6504 H 0.1126 0.52918 0.14438 0.0
H6505 H 0.10623 0.48823 0.15451 0.0
H6506 H 0.09727 0.52227 0.16009 0.0
H6507 H 0.11815 0.49487 0.13599 0.0
H6508 H 0.10325 0.50072 0.15692 0.0
H6509 H 0.11509 0.51669 0.14149 0.0
C6510 C 0.10976 0.52503 0.14722 0.0
C6511 C 0.10473 0.52677 0.1525 0.0
C6512 C 0.10649 0.49945 0.15231 0.0
C6513 C 0.10755 0.51246 0.14922 0.0
C6514 C 0.1082 0.49233 0.15095 0.0
C6515 C 0.11242 0.49053 0.14505 0.0
C6516 C 0.10909 0.50482 0.14778 0.0
C6517 C 0.11486 0.49603 0.14059 0.0
C6518 C 0.11116 0.5179 0.14555 0.0
C6519 C 0.10114 0.52117 0.15595 0.0
N6520 N 0.11318 0.50294 0.14207 0.0
N6521 N 0.10265 0.51428 0.15428 0.0
H6522 H 0.24207 0.34722 0.91538 0.0
H6523 H 0.26749 0.36296 0.88487 0.0
H6524 H 0.23455 0.35347 0.89454 0.0
H6525 H 0.27492 0.35678 0.90576 0.0
H6526 H 0.25555 0.35872 0.88799 0.0
H6527 H 0.25427 0.34992 0.91165 0.0
C6528 C 0.24299 0.34915 0.91001 0.0
C6529 C 0.23727 0.35017 0.90528 0.0
C6530 C 0.2598 0.35825 0.89188 0.0
C6531 C 0.25124 0.35325 0.90096 0.0
C6532 C 0.26662 0.36066 0.8901 0.0
C6533 C 0.27219 0.36024 0.89509 0.0
C6534 C 0.25853 0.35541 0.8987 0.0
C6535 C 0.27075 0.35721 0.90177 0.0
C6536 C 0.24996 0.35066 0.90787 0.0
C6537 C 0.2388 0.35256 0.89835 0.0
N6538 N 0.26406 0.35495 0.9034 0.0
N6539 N 0.24563 0.35406 0.89641 0.0
H6540 H 0.41439 0.48819 0.66006 0.0
H6541 H 0.39329 0.51546 0.63478 0.0
H6542 H 0.39965 0.48143 0.64371 0.0
H6543 H 0.40426 0.52179 0.654 0.0
H6544 H 0.39659 0.50303 0.63715 0.0
H6545 H 0.41184 0.50062 0.65703 0.0
C6546 C 0.41066 0.48932 0.65578 0.0
C6547 C 0.40721 0.48377 0.65214 0.0
C6548 C 0.39829 0.50714 0.64084 0.0
C6549 C 0.40423 0.49798 0.64868 0.0
C6550 C 0.39642 0.51424 0.63948 0.0
C6551 C 0.39852 0.51964 0.64422 0.0
C6552 C 0.40231 0.50547 0.64694 0.0
C6553 C 0.40255 0.51776 0.65023 0.0
C6554 C 0.40917 0.49642 0.65409 0.0
C6555 C 0.40237 0.48555 0.64671 0.0
N6556 N 0.40432 0.51083 0.65142 0.0
N6557 N 0.40102 0.4925 0.64514 0.0
H6558 H 0.27084 0.66394 0.41235 0.0
H6559 H 0.24434 0.64617 0.38389 0.0
H6560 H 0.2778 0.65375 0.39292 0.0
H6561 H 0.23755 0.65343 0.40465 0.0
H6562 H 0.25643 0.6502 0.38656 0.0
H6563 H 0.25844 0.66147 0.40904 0.0
C6564 C 0.26975 0.66126 0.40735 0.0
C6565 C 0.27536 0.659 0.40293 0.0
C6566 C 0.2523 0.65095 0.39052 0.0
C6567 C 0.2612 0.65612 0.39913 0.0
C6568 C 0.24538 0.64866 0.389 0.0
C6569 C 0.23995 0.64945 0.39408 0.0
C6570 C 0.2538 0.65406 0.39718 0.0
C6571 C 0.24161 0.65272 0.4006 0.0
C6572 C 0.26268 0.65981 0.40549 0.0
C6573 C 0.27365 0.65548 0.39654 0.0
N6574 N 0.2484 0.65489 0.40198 0.0
N6575 N 0.26673 0.65414 0.39485 0.0
H6576 H 0.36623 0.11032 0.48235 0.0
H6577 H 0.35604 0.10494 0.52341 0.0
H6578 H 0.34967 0.09603 0.48952 0.0
H6579 H 0.37475 0.11638 0.51643 0.0
H6580 H 0.35352 0.10174 0.511 0.0
H6581 H 0.36937 0.11273 0.49478 0.0
C6582 C 0.36326 0.10768 0.48654 0.0
C6583 C 0.35767 0.10299 0.4849 0.0
C6584 C 0.3582 0.10492 0.51218 0.0
C6585 C 0.36122 0.10573 0.49914 0.0
C6586 C 0.35963 0.10675 0.51925 0.0
C6587 C 0.3656 0.11092 0.52093 0.0
C6588 C 0.36275 0.10733 0.50674 0.0
C6589 C 0.37008 0.11315 0.51537 0.0
C6590 C 0.36507 0.10904 0.49364 0.0
C6591 C 0.35406 0.09965 0.49054 0.0
N6592 N 0.36855 0.11135 0.50851 0.0
N6593 N 0.35586 0.10112 0.49741 0.0
H6594 H 0.8464 0.41268 0.52039 0.0
H6595 H 0.87561 0.39469 0.4949 0.0
H6596 H 0.8665 0.40441 0.528 0.0
H6597 H 0.8558 0.40366 0.48736 0.0
H6598 H 0.87265 0.39864 0.50699 0.0
H6599 H 0.85001 0.40987 0.50819 0.0
C6600 C 0.85158 0.41028 0.51949 0.0
C6601 C 0.85614 0.40873 0.52523 0.0
C6602 C 0.86896 0.39978 0.50269 0.0
C6603 C 0.86032 0.40551 0.51126 0.0
C6604 C 0.87065 0.39752 0.49579 0.0
C6605 C 0.86592 0.39884 0.49014 0.0
C6606 C 0.86249 0.40336 0.50394 0.0
C6607 C 0.85958 0.40253 0.49158 0.0
C6608 C 0.85365 0.40869 0.51252 0.0
C6609 C 0.86284 0.40573 0.52373 0.0
N6610 N 0.85803 0.40464 0.49834 0.0
N6611 N 0.86471 0.40417 0.5169 0.0
H6612 H 0.34609 0.10106 0.27124 0.0
H6613 H 0.36783 0.12602 0.24422 0.0
H6614 H 0.36205 0.11619 0.27807 0.0
H6615 H 0.35557 0.10772 0.23757 0.0
H6616 H 0.36474 0.12342 0.25664 0.0
H6617 H 0.34841 0.10441 0.25884 0.0
C6618 C 0.35004 0.10514 0.27013 0.0
C6619 C 0.3539 0.10833 0.27569 0.0
C6620 C 0.36271 0.11998 0.25246 0.0
C6621 C 0.35661 0.11217 0.26152 0.0
C6622 C 0.36446 0.12148 0.24537 0.0
C6623 C 0.36194 0.11706 0.23988 0.0
C6624 C 0.35839 0.11407 0.25405 0.0
C6625 C 0.35761 0.11124 0.24167 0.0
C6626 C 0.35139 0.10701 0.26305 0.0
C6627 C 0.35901 0.11353 0.27394 0.0
N6628 N 0.35596 0.10991 0.2486 0.0
N6629 N 0.36022 0.11528 0.26701 0.0
H6630 H 0.6614 0.5944 0.02144 0.0
H6631 H 0.63612 0.61605 0.99461 0.0
H6632 H 0.64572 0.60976 0.0284 0.0
H6633 H 0.65479 0.60437 0.98789 0.0
H6634 H 0.63864 0.61269 0.00698 0.0
H6635 H 0.65807 0.59682 0.00905 0.0
C6636 C 0.6572 0.59823 0.02036 0.0
C6637 C 0.65385 0.6019 0.02595 0.0
C6638 C 0.64217 0.61085 1.0028 0.0
C6639 C 0.65004 0.60474 0.0118 0.0
C6640 C 0.64073 0.61274 0.99574 0.0
C6641 C 0.64527 0.61048 0.99024 0.0
C6642 C 0.64818 0.60662 1.00435 0.0
C6643 C 0.65117 0.60623 0.99199 0.0
C6644 C 0.65534 0.59964 0.01329 0.0
C6645 C 0.6485 0.60687 0.02424 0.0
N6646 N 0.65246 0.60443 0.9989 0.0
N6647 N 0.64676 0.60814 0.01732 0.0
H6648 H 0.66545 0.41006 0.27147 0.0
H6649 H 0.64354 0.3852 0.24445 0.0
H6650 H 0.64976 0.39463 0.27821 0.0
H6651 H 0.65619 0.4032 0.2377 0.0
H6652 H 0.64675 0.38776 0.25683 0.0
H6653 H 0.66317 0.40675 0.25905 0.0
C6654 C 0.66158 0.40593 0.27034 0.0
C6655 C 0.65777 0.40264 0.27588 0.0
C6656 C 0.64884 0.39114 0.25264 0.0
C6657 C 0.65509 0.39885 0.26168 0.0
C6658 C 0.64703 0.38967 0.24557 0.0
C6659 C 0.64961 0.39402 0.24005 0.0
C6660 C 0.65329 0.39697 0.2542 0.0
C6661 C 0.65409 0.39974 0.24181 0.0
C6662 C 0.66024 0.40407 0.26325 0.0
C6663 C 0.65275 0.39737 0.2741 0.0
N6664 N 0.65579 0.40106 0.24874 0.0
N6665 N 0.65155 0.39564 0.26716 0.0
H6666 H 0.16083 0.91384 0.98857 0.0
H6667 H 0.13572 0.89141 0.01489 0.0
H6668 H 0.1445 0.89937 0.98123 0.0
H6669 H 0.15469 0.90249 0.02176 0.0
H6670 H 0.13808 0.89524 1.00264 0.0
H6671 H 0.1578 0.9108 1.00089 0.0
C6672 C 0.15656 0.91008 0.98956 0.0
C6673 C 0.15292 0.90684 0.98387 0.0
C6674 C 0.14172 0.89685 0.00683 0.0
C6675 C 0.14947 0.90328 0.99795 0.0
C6676 C 0.14037 0.89468 0.01383 0.0
C6677 C 0.14504 0.89664 0.01934 0.0
C6678 C 0.14775 0.90105 0.00535 0.0
C6679 C 0.15098 0.90086 0.01765 0.0
C6680 C 0.15487 0.90831 0.99659 0.0
C6681 C 0.14749 0.90193 0.98546 0.0
N6682 N 0.15217 0.90293 0.01081 0.0
N6683 N 0.14593 0.9003 0.99235 0.0
H6684 H 0.35572 0.89414 0.23156 0.0
H6685 H 0.3579 0.90684 0.27233 0.0
H6686 H 0.34908 0.91492 0.23896 0.0
H6687 H 0.36513 0.88621 0.26513 0.0
H6688 H 0.35413 0.90964 0.26017 0.0
H6689 H 0.3586 0.89084 0.24386 0.0
C6690 C 0.3548 0.89799 0.23578 0.0
C6691 C 0.35218 0.90483 0.23421 0.0
C6692 C 0.35652 0.90449 0.26123 0.0
C6693 C 0.35555 0.90112 0.2483 0.0
C6694 C 0.35867 0.9029 0.26817 0.0
C6695 C 0.36183 0.89631 0.26972 0.0
C6696 C 0.35755 0.89945 0.25578 0.0
C6697 C 0.36271 0.89137 0.26416 0.0
C6698 C 0.3565 0.89611 0.24279 0.0
C6699 C 0.35119 0.90962 0.23989 0.0
N6700 N 0.36059 0.89305 0.25742 0.0
N6701 N 0.35289 0.90768 0.24666 0.0
H6702 H 0.15037 0.11748 0.73152 0.0
H6703 H 0.15493 0.10629 0.77244 0.0
H6704 H 0.16381 0.10011 0.73843 0.0
H6705 H 0.14387 0.12527 0.76558 0.0
H6706 H 0.15832 0.10393 0.76003 0.0
H6707 H 0.14797 0.12043 0.74398 0.0
C6708 C 0.15282 0.11429 0.73567 0.0
C6709 C 0.15726 0.10852 0.73393 0.0
C6710 C 0.15519 0.10863 0.76125 0.0
C6711 C 0.15455 0.11187 0.74823 0.0
C6712 C 0.15325 0.10997 0.76832 0.0
C6713 C 0.14912 0.11596 0.77003 0.0
C6714 C 0.15291 0.11331 0.75584 0.0
C6715 C 0.14706 0.12058 0.7645 0.0
C6716 C 0.15148 0.116 0.74278 0.0
C6717 C 0.16039 0.10463 0.73953 0.0
N6718 N 0.14895 0.11913 0.75765 0.0
N6719 N 0.15893 0.10635 0.74642 0.0
H6720 H 0.08537 0.13757 0.45557 0.0
H6721 H 0.12428 0.1204 0.45123 0.0
H6722 H 0.09491 0.13172 0.43545 0.0
H6723 H 0.11635 0.12857 0.47123 0.0
H6724 H 0.11275 0.12291 0.44576 0.0
H6725 H 0.09587 0.13274 0.46176 0.0
C6726 C 0.08963 0.13519 0.45247 0.0
C6727 C 0.08932 0.13512 0.44499 0.0
C6728 C 0.11349 0.12412 0.45136 0.0
C6729 C 0.1013 0.12962 0.452 0.0
C6730 C 0.12008 0.12269 0.45448 0.0
C6731 C 0.1213 0.12437 0.46167 0.0
C6732 C 0.10805 0.12728 0.45543 0.0
C6733 C 0.11563 0.12719 0.46567 0.0
C6734 C 0.09563 0.13247 0.456 0.0
C6735 C 0.09499 0.132 0.44122 0.0
N6736 N 0.10926 0.12863 0.46248 0.0
N6737 N 0.10075 0.12942 0.44476 0.0
H6738 H 0.10987 0.84457 0.6978 0.0
H6739 H 0.1417 0.86659 0.71586 0.0
H6740 H 0.13069 0.83546 0.70171 0.0
H6741 H 0.12058 0.87491 0.71198 0.0
H6742 H 0.13768 0.85486 0.71159 0.0
H6743 H 0.11359 0.8554 0.70386 0.0
C6744 C 0.1152 0.84479 0.70003 0.0
C6745 C 0.11996 0.83905 0.69924 0.0
C6746 C 0.13393 0.85925 0.71172 0.0
C6747 C 0.12434 0.85161 0.70609 0.0
C6748 C 0.1362 0.86592 0.71419 0.0
C6749 C 0.13149 0.87175 0.71418 0.0
C6750 C 0.12688 0.85841 0.70927 0.0
C6751 C 0.12444 0.8706 0.71194 0.0
C6752 C 0.11735 0.85103 0.70345 0.0
C6753 C 0.12686 0.83977 0.7021 0.0
N6754 N 0.12237 0.86409 0.70954 0.0
N6755 N 0.12886 0.84595 0.70537 0.0
H6756 H 0.42614 0.88068 0.95281 0.0
H6757 H 0.38623 0.86936 0.96301 0.0
H6758 H 0.41671 0.86019 0.94808 0.0
H6759 H 0.39441 0.89061 0.96636 0.0
H6760 H 0.39794 0.86562 0.95879 0.0
H6761 H 0.41511 0.88416 0.9589 0.0
C6762 C 0.42178 0.8769 0.95307 0.0
C6763 C 0.42238 0.87012 0.9499 0.0
C6764 C 0.39722 0.8711 0.96047 0.0
C6765 C 0.40977 0.87406 0.95692 0.0
C6766 C 0.39052 0.87324 0.96287 0.0
C6767 C 0.38932 0.88034 0.96493 0.0
C6768 C 0.4028 0.87608 0.96011 0.0
C6769 C 0.39511 0.8851 0.9648 0.0
C6770 C 0.4155 0.87888 0.95658 0.0
C6771 C 0.41658 0.86542 0.95051 0.0
N6772 N 0.40159 0.8829 0.96235 0.0
N6773 N 0.41053 0.86749 0.95391 0.0
H6774 H 0.38162 0.16741 0.18383 0.0
H6775 H 0.37922 0.14566 0.22042 0.0
H6776 H 0.38895 0.1759 0.20392 0.0
H6777 H 0.37116 0.13805 0.20024 0.0
H6778 H 0.38183 0.15721 0.21485 0.0
H6779 H 0.37687 0.15703 0.19006 0.0
C6780 C 0.38221 0.16709 0.18957 0.0
C6781 C 0.38576 0.17248 0.19335 0.0
C6782 C 0.37942 0.15303 0.21166 0.0
C6783 C 0.38031 0.16059 0.20056 0.0
C6784 C 0.3779 0.14645 0.21485 0.0
C6785 C 0.37505 0.14086 0.21076 0.0
C6786 C 0.37808 0.154 0.20435 0.0
C6787 C 0.37349 0.14217 0.20356 0.0
C6788 C 0.37947 0.16118 0.19313 0.0
C6789 C 0.38625 0.17186 0.2008 0.0
N6790 N 0.37507 0.14857 0.20058 0.0
N6791 N 0.38362 0.16598 0.20416 0.0
H6792 H 0.09021 0.88145 0.07133 0.0
H6793 H 0.11658 0.87796 0.0379 0.0
H6794 H 0.08718 0.86604 0.0545 0.0
H6795 H 0.12242 0.88795 0.05779 0.0
H6796 H 0.10472 0.8754 0.04283 0.0
H6797 H 0.10096 0.88573 0.0653 0.0
C6798 C 0.09175 0.87904 0.06631 0.0
C6799 C 0.08781 0.87336 0.06342 0.0
C6800 C 0.10858 0.8782 0.04609 0.0
C6801 C 0.10013 0.87821 0.05653 0.0
C6802 C 0.11532 0.8797 0.04327 0.0
C6803 C 0.12048 0.88313 0.04747 0.0
C6804 C 0.10698 0.88022 0.05313 0.0
C6805 C 0.11861 0.88523 0.05441 0.0
C6806 C 0.09791 0.88145 0.0629 0.0
C6807 C 0.09011 0.87038 0.05694 0.0
N6808 N 0.11202 0.88373 0.05702 0.0
N6809 N 0.09613 0.87283 0.05371 0.0
H6810 H 0.37854 0.84403 0.32484 0.0
H6811 H 0.37846 0.86614 0.28834 0.0
H6812 H 0.38772 0.836 0.30532 0.0
H6813 H 0.37032 0.874 0.30837 0.0
H6814 H 0.38044 0.85444 0.2939 0.0
H6815 H 0.37411 0.8544 0.31838 0.0
C6816 C 0.3796 0.84444 0.31918 0.0
C6817 C 0.38359 0.83919 0.31563 0.0
C6818 C 0.37815 0.85871 0.29705 0.0
C6819 C 0.37852 0.85109 0.30817 0.0
C6820 C 0.37698 0.86536 0.29387 0.0
C6821 C 0.37431 0.87106 0.29793 0.0
C6822 C 0.3766 0.85776 0.30433 0.0
C6823 C 0.37251 0.86978 0.30508 0.0
C6824 C 0.37704 0.85036 0.31548 0.0
C6825 C 0.38467 0.83993 0.30826 0.0
N6826 N 0.37374 0.8633 0.30806 0.0
N6827 N 0.38222 0.84582 0.30478 0.0
H6828 H 0.4176 0.12994 0.57559 0.0
H6829 H 0.39475 0.12846 0.53963 0.0
H6830 H 0.4253 0.13829 0.55559 0.0
H6831 H 0.38802 0.11945 0.55969 0.0
H6832 H 0.40647 0.13103 0.54489 0.0
H6833 H 0.40722 0.12507 0.56945 0.0
C6834 C 0.41711 0.13072 0.56988 0.0
C6835 C 0.42227 0.1346 0.5661 0.0
C6836 C 0.40245 0.12842 0.54811 0.0
C6837 C 0.41036 0.12904 0.559 0.0
C6838 C 0.39578 0.12692 0.5451 0.0
C6839 C 0.39038 0.12383 0.54926 0.0
C6840 C 0.40371 0.1268 0.55532 0.0
C6841 C 0.39198 0.12197 0.55633 0.0
C6842 C 0.41119 0.12791 0.56636 0.0
C6843 C 0.42144 0.13534 0.55869 0.0
N6844 N 0.39847 0.12354 0.55915 0.0
N6845 N 0.41554 0.13266 0.55539 0.0
H6846 H 0.13198 0.17426 0.81348 0.0
H6847 H 0.11989 0.13698 0.79729 0.0
H6848 H 0.11 0.16868 0.8094 0.0
H6849 H 0.1416 0.14447 0.79586 0.0
H6850 H 0.11624 0.14868 0.80171 0.0
H6851 H 0.13575 0.16361 0.8069 0.0
C6852 C 0.12795 0.17086 0.81112 0.0
C6853 C 0.12066 0.17233 0.81209 0.0
C6854 C 0.1218 0.14781 0.80038 0.0
C6855 C 0.12493 0.16009 0.80466 0.0
C6856 C 0.12388 0.14112 0.79789 0.0
C6857 C 0.13105 0.13977 0.79627 0.0
C6858 C 0.12694 0.15317 0.80137 0.0
C6859 C 0.13601 0.14533 0.79705 0.0
C6860 C 0.13011 0.16477 0.80739 0.0
C6861 C 0.11568 0.16769 0.80895 0.0
N6862 N 0.13387 0.15177 0.79963 0.0
N6863 N 0.1179 0.16175 0.80545 0.0
H6864 H 0.44722 0.08549 0.12885 0.0
H6865 H 0.46275 0.12343 0.13991 0.0
H6866 H 0.45043 0.09216 0.15066 0.0
H6867 H 0.46436 0.11529 0.11846 0.0
H6868 H 0.45841 0.11182 0.14389 0.0
H6869 H 0.45378 0.09607 0.12483 0.0
C6870 C 0.44938 0.08912 0.13279 0.0
C6871 C 0.44818 0.08798 0.1401 0.0
C6872 C 0.45977 0.11252 0.13832 0.0
C6873 C 0.45559 0.10012 0.13553 0.0
C6874 C 0.46221 0.11916 0.13605 0.0
C6875 C 0.46385 0.12031 0.12885 0.0
C6876 C 0.45885 0.107 0.13333 0.0
C6877 C 0.46316 0.11459 0.12406 0.0
C6878 C 0.4531 0.09517 0.13049 0.0
C6879 C 0.45107 0.0929 0.14497 0.0
N6880 N 0.46062 0.10819 0.12638 0.0
N6881 N 0.45457 0.09877 0.14259 0.0
H6882 H 0.16565 0.18448 0.38279 0.0
H6883 H 0.14441 0.22117 0.37862 0.0
H6884 H 0.17501 0.20488 0.38788 0.0
H6885 H 0.13651 0.20074 0.37153 0.0
H6886 H 0.15598 0.21562 0.38123 0.0
H6887 H 0.15523 0.19057 0.37795 0.0
C6888 C 0.1655 0.19026 0.38287 0.0
C6889 C 0.17115 0.19419 0.38581 0.0
C6890 C 0.15174 0.21237 0.37903 0.0
C6891 C 0.15921 0.20123 0.38028 0.0
C6892 C 0.14515 0.21554 0.37751 0.0
C6893 C 0.13946 0.21138 0.37495 0.0
C6894 C 0.15263 0.205 0.37799 0.0
C6895 C 0.1407 0.20411 0.37364 0.0
C6896 C 0.15957 0.19375 0.38008 0.0
C6897 C 0.17075 0.20166 0.38566 0.0
N6898 N 0.14711 0.20115 0.37523 0.0
N6899 N 0.16484 0.20496 0.38301 0.0
H6900 H 0.05428 0.92662 0.63712 0.0
H6901 H 0.05806 0.88642 0.62323 0.0
H6902 H 0.07427 0.91589 0.63317 0.0
H6903 H 0.03779 0.89587 0.62864 0.0
H6904 H 0.06382 0.89793 0.62507 0.0
H6905 H 0.04792 0.91616 0.63241 0.0
C6906 C 0.05732 0.9221 0.63518 0.0
C6907 C 0.06481 0.92207 0.63562 0.0
C6908 C 0.0581 0.89754 0.62579 0.0
C6909 C 0.0576 0.91014 0.63024 0.0
C6910 C 0.05482 0.89097 0.62474 0.0
C6911 C 0.04747 0.89019 0.62588 0.0
C6912 C 0.05403 0.9034 0.62809 0.0
C6913 C 0.04348 0.89626 0.62773 0.0
C6914 C 0.0537 0.91614 0.63252 0.0
C6915 C 0.06849 0.91608 0.63305 0.0
N6916 N 0.04683 0.90261 0.62888 0.0
N6917 N 0.06486 0.91036 0.63052 0.0
H6918 H 0.34015 0.82221 0.87761 0.0
H6919 H 0.36648 0.78864 0.8802 0.0
H6920 H 0.33705 0.80492 0.89247 0.0
H6921 H 0.37234 0.8088 0.87081 0.0
H6922 H 0.35456 0.79347 0.88278 0.0
H6923 H 0.35085 0.81624 0.8731 0.0
C6924 C 0.34166 0.8171 0.87985 0.0
C6925 C 0.33773 0.81407 0.88545 0.0
C6926 C 0.35844 0.7968 0.88009 0.0
C6927 C 0.34999 0.80724 0.88035 0.0
C6928 C 0.36521 0.79404 0.87858 0.0
C6929 C 0.37039 0.79835 0.87534 0.0
C6930 C 0.35684 0.80389 0.87826 0.0
C6931 C 0.36851 0.80533 0.87339 0.0
C6932 C 0.34779 0.81373 0.87731 0.0
C6933 C 0.33998 0.80748 0.88821 0.0
N6934 N 0.36189 0.80789 0.8749 0.0
N6935 N 0.34598 0.80429 0.88564 0.0
H6936 H 0.45411 0.92683 0.37835 0.0
H6937 H 0.46181 0.88592 0.36876 0.0
H6938 H 0.44742 0.91644 0.3589 0.0
H6939 H 0.46698 0.89513 0.3892 0.0
H6940 H 0.45784 0.89758 0.36462 0.0
H6941 H 0.46001 0.91576 0.38203 0.0
C6942 C 0.4539 0.92225 0.37484 0.0
C6943 C 0.45024 0.92259 0.3683 0.0
C6944 C 0.45987 0.89709 0.37 0.0
C6945 C 0.45704 0.90993 0.37246 0.0
C6946 C 0.46212 0.89042 0.37237 0.0
C6947 C 0.46462 0.88954 0.37937 0.0
C6948 C 0.46009 0.90295 0.37466 0.0
C6949 C 0.46507 0.89558 0.38377 0.0
C6950 C 0.4573 0.91594 0.37693 0.0
C6951 C 0.45026 0.9165 0.36393 0.0
N6952 N 0.46275 0.90204 0.38137 0.0
N6953 N 0.45356 0.91044 0.36611 0.0
H6954 H 0.33486 0.20583 0.62257 0.0
H6955 H 0.37364 0.20071 0.63979 0.0
H6956 H 0.34421 0.18552 0.62803 0.0
H6957 H 0.36598 0.22099 0.63205 0.0
H6958 H 0.36202 0.19546 0.63723 0.0
H6959 H 0.34536 0.21184 0.62765 0.0
C6960 C 0.33908 0.20265 0.62492 0.0
C6961 C 0.33872 0.19517 0.62481 0.0
C6962 C 0.36284 0.20107 0.63613 0.0
C6963 C 0.35069 0.20197 0.63059 0.0
C6964 C 0.36948 0.20407 0.63759 0.0
C6965 C 0.3708 0.21127 0.63603 0.0
C6966 C 0.35746 0.20528 0.63305 0.0
C6967 C 0.36518 0.21541 0.63332 0.0
C6968 C 0.34507 0.20607 0.62778 0.0
C6969 C 0.34433 0.19129 0.62789 0.0
N6970 N 0.35876 0.21233 0.63183 0.0
N6971 N 0.35009 0.19473 0.63062 0.0
H6972 H 0.07601 0.09367 0.87829 0.0
H6973 H 0.0389 0.11452 0.88185 0.0
H6974 H 0.05579 0.08439 0.87235 0.0
H6975 H 0.05949 0.12358 0.88672 0.0
H6976 H 0.04466 0.10291 0.87985 0.0
H6977 H 0.06975 0.10412 0.88284 0.0
C6978 C 0.07023 0.09383 0.87797 0.0
C6979 C 0.06642 0.0882 0.87485 0.0
C6980 C 0.0479 0.10743 0.88143 0.0
C6981 C 0.05919 0.10018 0.88006 0.0
C6982 C 0.04462 0.11403 0.88261 0.0
C6983 C 0.04875 0.12002 0.88437 0.0
C6984 C 0.05536 0.10683 0.88205 0.0
C6985 C 0.05613 0.11912 0.88525 0.0
C6986 C 0.06666 0.09979 0.88059 0.0
C6987 C 0.05894 0.08862 0.87471 0.0
N6988 N 0.05919 0.11267 0.88403 0.0
N6989 N 0.05556 0.09456 0.8772 0.0
H6990 H 0.1765 0.80908 0.13147 0.0
H6991 H 0.13686 0.79829 0.11974 0.0
H6992 H 0.16757 0.81273 0.11055 0.0
H6993 H 0.14491 0.79488 0.14102 0.0
H6994 H 0.14855 0.80264 0.11611 0.0
H6995 H 0.16543 0.80304 0.13495 0.0
C6996 C 0.17224 0.80859 0.1276 0.0
C6997 C 0.17299 0.81143 0.1207 0.0
C6998 C 0.1478 0.80092 0.12158 0.0
C6999 C 0.16033 0.80449 0.12463 0.0
C7000 C 0.14111 0.79845 0.12365 0.0
C7001 C 0.13989 0.79631 0.13071 0.0
C7002 C 0.15335 0.8013 0.1266 0.0
C7003 C 0.14563 0.79649 0.13552 0.0
C7004 C 0.16593 0.80511 0.12958 0.0
C7005 C 0.16731 0.81055 0.11589 0.0
N7006 N 0.15211 0.79901 0.1334 0.0
N7007 N 0.16124 0.8072 0.11796 0.0
H7008 H 0.13819 0.45502 0.08499 0.0
H7009 H 0.11916 0.45133 0.12304 0.0
H7010 H 0.13008 0.43531 0.09368 0.0
H7011 H 0.12918 0.47077 0.1159 0.0
H7012 H 0.12155 0.44594 0.11144 0.0
H7013 H 0.13344 0.46139 0.0954 0.0
C7014 C 0.13533 0.45205 0.08904 0.0
C7015 C 0.13459 0.44461 0.08852 0.0
C7016 C 0.12319 0.45141 0.11237 0.0
C7017 C 0.12918 0.45185 0.10042 0.0
C7018 C 0.12182 0.45448 0.11899 0.0
C7019 C 0.12407 0.46147 0.12046 0.0
C7020 C 0.12687 0.45533 0.10715 0.0
C7021 C 0.12737 0.46536 0.11498 0.0
C7022 C 0.13266 0.45568 0.09499 0.0
C7023 C 0.13088 0.44103 0.09393 0.0
N7024 N 0.12876 0.46221 0.10859 0.0
N7025 N 0.12835 0.44467 0.09966 0.0
H7026 H 0.63077 0.06217 0.92517 0.0
H7027 H 0.64133 0.04737 0.88697 0.0
H7028 H 0.65256 0.05886 0.91845 0.0
H7029 H 0.62016 0.04489 0.89561 0.0
H7030 H 0.64552 0.05141 0.89862 0.0
H7031 H 0.62669 0.05557 0.91467 0.0
C7032 C 0.63471 0.05997 0.92156 0.0
C7033 C 0.64203 0.06117 0.92266 0.0
C7034 C 0.63997 0.04992 0.89801 0.0
C7035 C 0.63738 0.05372 0.91057 0.0
C7036 C 0.63758 0.04764 0.89136 0.0
C7037 C 0.63039 0.04585 0.89034 0.0
C7038 C 0.63511 0.05054 0.90368 0.0
C7039 C 0.62575 0.04622 0.8962 0.0
C7040 C 0.63237 0.05622 0.91555 0.0
C7041 C 0.64687 0.05823 0.91774 0.0
N7042 N 0.62817 0.04862 0.90262 0.0
N7043 N 0.64445 0.05472 0.91188 0.0
H7044 H 0.1984 0.37943 0.17391 0.0
H7045 H 0.21826 0.39291 0.13888 0.0
H7046 H 0.204 0.40142 0.16998 0.0
H7047 H 0.21555 0.37062 0.14384 0.0
H7048 H 0.21384 0.396 0.15073 0.0
H7049 H 0.20547 0.37592 0.16351 0.0
C7050 C 0.20121 0.38351 0.17094 0.0
C7051 C 0.20052 0.39075 0.17277 0.0
C7052 C 0.21428 0.39042 0.14928 0.0
C7053 C 0.20853 0.38677 0.1608 0.0
C7054 C 0.21678 0.38866 0.14251 0.0
C7055 C 0.2172 0.38151 0.14037 0.0
C7056 C 0.21207 0.38498 0.15394 0.0
C7057 C 0.21531 0.3762 0.1453 0.0
C7058 C 0.20521 0.3815 0.16497 0.0
C7059 C 0.20424 0.3958 0.16868 0.0
N7060 N 0.21273 0.37805 0.15183 0.0
N7061 N 0.20801 0.39372 0.16286 0.0
H7062 H 0.87165 0.95483 0.42617 0.0
H7063 H 0.89013 0.95137 0.38784 0.0
H7064 H 0.87971 0.93517 0.4173 0.0
H7065 H 0.88094 0.97099 0.39562 0.0
H7066 H 0.88773 0.9458 0.39934 0.0
H7067 H 0.87635 0.96126 0.41579 0.0
C7068 C 0.87449 0.95188 0.42209 0.0
C7069 C 0.87522 0.94444 0.42256 0.0
C7070 C 0.88628 0.95134 0.39858 0.0
C7071 C 0.88057 0.95174 0.41068 0.0
C7072 C 0.88764 0.95452 0.392 0.0
C7073 C 0.88565 0.96162 0.39075 0.0
C7074 C 0.88285 0.95527 0.40396 0.0
C7075 C 0.88256 0.96549 0.39637 0.0
C7076 C 0.87714 0.95555 0.41616 0.0
C7077 C 0.87891 0.94089 0.4171 0.0
N7078 N 0.88118 0.96224 0.40272 0.0
N7079 N 0.8814 0.94456 0.41138 0.0
H7080 H 0.80842 0.12971 0.17727 0.0
H7081 H 0.79975 0.11907 0.13683 0.0
H7082 H 0.8135 0.10937 0.16773 0.0
H7083 H 0.79449 0.13964 0.14571 0.0
H7084 H 0.80398 0.11522 0.1485 0.0
H7085 H 0.80257 0.13329 0.16613 0.0
C7086 C 0.80829 0.12599 0.17286 0.0
C7087 C 0.81147 0.11922 0.17346 0.0
C7088 C 0.80187 0.12057 0.14793 0.0
C7089 C 0.80475 0.12327 0.16072 0.0
C7090 C 0.79948 0.12277 0.14126 0.0
C7091 C 0.79685 0.12971 0.14029 0.0
C7092 C 0.80168 0.12534 0.15371 0.0
C7093 C 0.79648 0.13425 0.14624 0.0
C7094 C 0.80492 0.12802 0.16651 0.0
C7095 C 0.81104 0.11459 0.16758 0.0
N7096 N 0.79894 0.132 0.1527 0.0
N7097 N 0.80779 0.11671 0.16147 0.0
H7098 H 0.38267 0.57654 0.59359 0.0
H7099 H 0.38272 0.53972 0.61513 0.0
H7100 H 0.37425 0.55693 0.58497 0.0
H7101 H 0.39094 0.55959 0.62335 0.0
H7102 H 0.38086 0.54546 0.60352 0.0
H7103 H 0.38695 0.57001 0.604 0.0
C7104 C 0.38176 0.57084 0.59388 0.0
C7105 C 0.37803 0.56729 0.58845 0.0
C7106 C 0.38313 0.54854 0.60785 0.0
C7107 C 0.3829 0.55975 0.60038 0.0
C7108 C 0.38424 0.54525 0.61446 0.0
C7109 C 0.38691 0.54921 0.62023 0.0
C7110 C 0.38473 0.55582 0.60702 0.0
C7111 C 0.38873 0.55638 0.61908 0.0
C7112 C 0.38422 0.5671 0.59982 0.0
C7113 C 0.37711 0.55987 0.58904 0.0
N7114 N 0.38756 0.55946 0.61264 0.0
N7115 N 0.37946 0.55636 0.59494 0.0
H7116 H 0.20177 0.60898 0.34023 0.0
H7117 H 0.21511 0.6408 0.36544 0.0
H7118 H 0.19918 0.63123 0.33485 0.0
H7119 H 0.21583 0.61851 0.37114 0.0
H7120 H 0.2106 0.63747 0.35361 0.0
H7121 H 0.20828 0.61244 0.35092 0.0
C7122 C 0.20266 0.6146 0.34123 0.0
C7123 C 0.1999 0.61982 0.33662 0.0
C7124 C 0.21179 0.63331 0.35743 0.0
C7125 C 0.20726 0.62384 0.34899 0.0
C7126 C 0.2144 0.63521 0.36416 0.0
C7127 C 0.21577 0.62993 0.36929 0.0
C7128 C 0.21059 0.62608 0.35582 0.0
C7129 C 0.21472 0.62276 0.36738 0.0
C7130 C 0.20633 0.61658 0.34739 0.0
C7131 C 0.20112 0.62702 0.3383 0.0
N7132 N 0.21217 0.62106 0.36083 0.0
N7133 N 0.20468 0.62883 0.34437 0.0
H7134 H 0.30857 0.4021 0.841 0.0
H7135 H 0.29688 0.36978 0.8664 0.0
H7136 H 0.314 0.38013 0.83673 0.0
H7137 H 0.29471 0.39204 0.87185 0.0
H7138 H 0.30149 0.37326 0.85464 0.0
H7139 H 0.30184 0.39828 0.85146 0.0
C7140 C 0.30833 0.39646 0.84226 0.0
C7141 C 0.31195 0.39144 0.83803 0.0
C7142 C 0.29994 0.37738 0.85839 0.0
C7143 C 0.30419 0.38701 0.85001 0.0
C7144 C 0.29728 0.37539 0.86508 0.0
C7145 C 0.29549 0.38063 0.87012 0.0
C7146 C 0.30076 0.38465 0.85674 0.0
C7147 C 0.29614 0.38783 0.86816 0.0
C7148 C 0.30446 0.39428 0.84822 0.0
C7149 C 0.3113 0.38419 0.83982 0.0
N7150 N 0.29875 0.38962 0.86165 0.0
N7151 N 0.30755 0.38219 0.84572 0.0
H7152 H 0.91927 0.85839 0.55663 0.0
H7153 H 0.89498 0.89137 0.54439 0.0
H7154 H 0.92475 0.8803 0.56114 0.0
H7155 H 0.88759 0.86964 0.54586 0.0
H7156 H 0.90691 0.88741 0.54822 0.0
H7157 H 0.90864 0.86248 0.55033 0.0
C7158 C 0.91826 0.86407 0.55628 0.0
C7159 C 0.92286 0.869 0.55954 0.0
C7160 C 0.90269 0.88351 0.54763 0.0
C7161 C 0.9107 0.87373 0.55225 0.0
C7162 C 0.89591 0.88575 0.54541 0.0
C7163 C 0.89031 0.88082 0.54488 0.0
C7164 C 0.90385 0.87627 0.54921 0.0
C7165 C 0.89176 0.87361 0.54629 0.0
C7166 C 0.9122 0.8664 0.55265 0.0
C7167 C 0.92136 0.87631 0.55872 0.0
N7168 N 0.89837 0.87156 0.54841 0.0
N7169 N 0.91537 0.87845 0.55521 0.0
H7170 H 0.89272 0.17585 0.30241 0.0
H7171 H 0.8728 0.13893 0.30724 0.0
H7172 H 0.87841 0.17157 0.31992 0.0
H7173 H 0.88126 0.14565 0.28695 0.0
H7174 H 0.87462 0.15099 0.31188 0.0
H7175 H 0.88851 0.16497 0.2965 0.0
C7176 C 0.88864 0.17265 0.30497 0.0
C7177 C 0.88593 0.17459 0.31168 0.0
C7178 C 0.87598 0.14987 0.30638 0.0
C7179 C 0.88113 0.16214 0.30498 0.0
C7180 C 0.87496 0.143 0.30374 0.0
C7181 C 0.87691 0.14133 0.29672 0.0
C7182 C 0.87912 0.15509 0.30201 0.0
C7183 C 0.87967 0.14676 0.29239 0.0
C7184 C 0.88621 0.16647 0.30158 0.0
C7185 C 0.88061 0.1703 0.31473 0.0
N7186 N 0.8808 0.15339 0.29514 0.0
N7187 N 0.87845 0.16423 0.31141 0.0
H7188 H 0.58481 0.13877 0.05414 0.0
H7189 H 0.62346 0.12109 0.05863 0.0
H7190 H 0.59386 0.13195 0.07416 0.0
H7191 H 0.61622 0.13043 0.03889 0.0
H7192 H 0.61176 0.12333 0.06386 0.0
H7193 H 0.5954 0.13411 0.04795 0.0
C7194 C 0.58898 0.13621 0.05721 0.0
C7195 C 0.58852 0.13582 0.06467 0.0
C7196 C 0.61269 0.12485 0.05836 0.0
C7197 C 0.60059 0.1305 0.05767 0.0
C7198 C 0.61938 0.12358 0.05538 0.0
C7199 C 0.62084 0.12568 0.04835 0.0
C7200 C 0.60741 0.12828 0.05431 0.0
C7201 C 0.61531 0.12875 0.04434 0.0
C7202 C 0.59503 0.13358 0.05369 0.0
C7203 C 0.59407 0.13247 0.06841 0.0
N7204 N 0.60885 0.13004 0.0474 0.0
N7205 N 0.59988 0.12998 0.06488 0.0
H7206 H 0.61484 0.83711 0.80341 0.0
H7207 H 0.6396 0.87131 0.80658 0.0
H7208 H 0.63157 0.8391 0.81909 0.0
H7209 H 0.62734 0.86669 0.78768 0.0
H7210 H 0.63691 0.85938 0.81111 0.0
H7211 H 0.6194 0.84779 0.7974 0.0
C7212 C 0.6195 0.83977 0.80555 0.0
C7213 C 0.62281 0.83724 0.81177 0.0
C7214 C 0.63488 0.86092 0.80593 0.0
C7215 C 0.62804 0.84945 0.80496 0.0
C7216 C 0.63641 0.86773 0.80335 0.0
C7217 C 0.63366 0.86997 0.79677 0.0
C7218 C 0.63046 0.85636 0.80195 0.0
C7219 C 0.62958 0.86513 0.79277 0.0
C7220 C 0.62213 0.84583 0.8021 0.0
C7221 C 0.62889 0.84083 0.81428 0.0
N7222 N 0.62801 0.85858 0.79547 0.0
N7223 N 0.63125 0.8468 0.81092 0.0
H7224 H 0.91967 0.15276 0.95402 0.0
H7225 H 0.89401 0.12085 0.96624 0.0
H7226 H 0.92407 0.13066 0.9492 0.0
H7227 H 0.88756 0.14288 0.96478 0.0
H7228 H 0.90609 0.12428 0.96238 0.0
H7229 H 0.90894 0.1491 0.9604 0.0
C7230 C 0.9184 0.14713 0.95433 0.0
C7231 C 0.92273 0.14202 0.95095 0.0
C7232 C 0.90204 0.12836 0.96298 0.0
C7233 C 0.91045 0.13779 0.95834 0.0
C7234 C 0.89518 0.12641 0.96521 0.0
C7235 C 0.88981 0.13159 0.96575 0.0
C7236 C 0.90351 0.13554 0.96139 0.0
C7237 C 0.89156 0.13872 0.96434 0.0
C7238 C 0.91228 0.14504 0.958 0.0
C7239 C 0.9209 0.13479 0.95172 0.0
N7240 N 0.89825 0.14049 0.96221 0.0
N7241 N 0.91486 0.13288 0.95528 0.0
H7242 H 0.62875 0.16689 0.68507 0.0
H7243 H 0.62951 0.14408 0.72104 0.0
H7244 H 0.6209 0.17503 0.7051 0.0
H7245 H 0.63848 0.13709 0.70103 0.0
H7246 H 0.62726 0.15585 0.71576 0.0
H7247 H 0.63323 0.15634 0.6912 0.0
C7248 C 0.628 0.16645 0.69078 0.0
C7249 C 0.62438 0.17179 0.69458 0.0
C7250 C 0.62978 0.15176 0.71255 0.0
C7251 C 0.62948 0.15969 0.70167 0.0
C7252 C 0.6311 0.14506 0.71557 0.0
C7253 C 0.6341 0.13957 0.71143 0.0
C7254 C 0.63148 0.15296 0.70535 0.0
C7255 C 0.63602 0.14111 0.70437 0.0
C7256 C 0.63058 0.16044 0.6943 0.0
C7257 C 0.62367 0.17103 0.70199 0.0
N7258 N 0.63463 0.14763 0.70154 0.0
N7259 N 0.62612 0.16504 0.70529 0.0
H7260 H 0.58511 0.88019 0.44806 0.0
H7261 H 0.62255 0.86857 0.46447 0.0
H7262 H 0.59161 0.85828 0.45099 0.0
H7263 H 0.6148 0.8902 0.46553 0.0
H7264 H 0.61096 0.86473 0.45994 0.0
H7265 H 0.59556 0.88404 0.45491 0.0
C7266 C 0.58867 0.87618 0.45022 0.0
C7267 C 0.58752 0.8689 0.44886 0.0
C7268 C 0.61174 0.87031 0.46122 0.0
C7269 C 0.59953 0.87328 0.45662 0.0
C7270 C 0.61837 0.8725 0.46378 0.0
C7271 C 0.61963 0.87971 0.46531 0.0
C7272 C 0.60634 0.87539 0.46007 0.0
C7273 C 0.61402 0.88459 0.46442 0.0
C7274 C 0.59465 0.87839 0.45411 0.0
C7275 C 0.59236 0.86396 0.45176 0.0
N7276 N 0.60763 0.88235 0.46176 0.0
N7277 N 0.59817 0.86624 0.45543 0.0
H7278 H 0.89501 0.83587 0.20675 0.0
H7279 H 0.87258 0.87153 0.20236 0.0
H7280 H 0.87993 0.83917 0.18968 0.0
H7281 H 0.88232 0.86555 0.22231 0.0
H7282 H 0.87525 0.85967 0.19762 0.0
H7283 H 0.89053 0.84668 0.2126 0.0
C7284 C 0.89072 0.83884 0.20427 0.0
C7285 C 0.88785 0.83664 0.19771 0.0
C7286 C 0.87674 0.86091 0.20307 0.0
C7287 C 0.88274 0.84901 0.20433 0.0
C7288 C 0.87523 0.86768 0.20576 0.0
C7289 C 0.87726 0.86951 0.21272 0.0
C7290 C 0.88042 0.85596 0.20733 0.0
C7291 C 0.88065 0.86432 0.21693 0.0
C7292 C 0.88814 0.84498 0.20762 0.0
C7293 C 0.88226 0.84065 0.19476 0.0
N7294 N 0.88221 0.8578 0.21413 0.0
N7295 N 0.87995 0.84668 0.19804 0.0
H7296 H 0.55759 0.9274 0.87924 0.0
H7297 H 0.54853 0.88724 0.86783 0.0
H7298 H 0.56275 0.91813 0.85879 0.0
H7299 H 0.54354 0.89574 0.88862 0.0
H7300 H 0.55295 0.89891 0.86423 0.0
H7301 H 0.55168 0.91623 0.88261 0.0
C7302 C 0.55746 0.92304 0.87545 0.0
C7303 C 0.56068 0.92373 0.86871 0.0
C7304 C 0.55087 0.89826 0.86958 0.0
C7305 C 0.55391 0.91095 0.87253 0.0
C7306 C 0.54837 0.89157 0.87164 0.0
C7307 C 0.54575 0.89049 0.87856 0.0
C7308 C 0.55079 0.90393 0.87447 0.0
C7309 C 0.54552 0.89635 0.88324 0.0
C7310 C 0.55406 0.91668 0.87737 0.0
C7311 C 0.56026 0.91792 0.86399 0.0
N7312 N 0.54807 0.90282 0.88112 0.0
N7313 N 0.55698 0.91179 0.866 0.0
H7314 H 0.8341 0.8051 0.62142 0.0
H7315 H 0.873 0.80946 0.6385 0.0
H7316 H 0.84298 0.82504 0.62875 0.0
H7317 H 0.86498 0.7894 0.63058 0.0
H7318 H 0.86137 0.81486 0.63631 0.0
H7319 H 0.84466 0.79888 0.62606 0.0
C7320 C 0.83823 0.80815 0.62409 0.0
C7321 C 0.83771 0.81561 0.62462 0.0
C7322 C 0.86211 0.80926 0.63509 0.0
C7323 C 0.84979 0.80855 0.62989 0.0
C7324 C 0.86876 0.80618 0.63634 0.0
C7325 C 0.86998 0.799 0.63463 0.0
C7326 C 0.85662 0.80516 0.63206 0.0
C7327 C 0.86426 0.79496 0.63196 0.0
C7328 C 0.84426 0.80461 0.6267 0.0
C7329 C 0.84322 0.8193 0.6281 0.0
N7330 N 0.85784 0.79812 0.63068 0.0
N7331 N 0.84903 0.81575 0.63055 0.0
H7332 H 0.93958 0.09012 0.382 0.0
H7333 H 0.97317 0.11613 0.37746 0.0
H7334 H 0.95665 0.08628 0.36703 0.0
H7335 H 0.95341 0.12235 0.38749 0.0
H7336 H 0.9683 0.10412 0.37562 0.0
H7337 H 0.94574 0.10088 0.38606 0.0
C7338 C 0.94468 0.09148 0.37965 0.0
C7339 C 0.94759 0.08732 0.37413 0.0
C7340 C 0.96507 0.1081 0.37829 0.0
C7341 C 0.95463 0.09966 0.37872 0.0
C7342 C 0.96786 0.11492 0.37939 0.0
C7343 C 0.96366 0.12024 0.38259 0.0
C7344 C 0.95806 0.10657 0.38048 0.0
C7345 C 0.95679 0.11842 0.38493 0.0
C7346 C 0.94817 0.09765 0.38194 0.0
C7347 C 0.95418 0.08938 0.37123 0.0
N7348 N 0.95419 0.11175 0.3838 0.0
N7349 N 0.95747 0.09542 0.37354 0.0
H7350 H 0.67156 0.18983 0.13139 0.0
H7351 H 0.64551 0.22339 0.12671 0.0
H7352 H 0.67508 0.20656 0.11598 0.0
H7353 H 0.63947 0.20393 0.1374 0.0
H7354 H 0.65743 0.2184 0.12465 0.0
H7355 H 0.66086 0.19607 0.13552 0.0
C7356 C 0.67015 0.19488 0.12895 0.0
C7357 C 0.67419 0.19767 0.12331 0.0
C7358 C 0.65351 0.21525 0.12751 0.0
C7359 C 0.66193 0.2048 0.12797 0.0
C7360 C 0.64674 0.21811 0.12873 0.0
C7361 C 0.6415 0.21404 0.13219 0.0
C7362 C 0.65507 0.20829 0.12982 0.0
C7363 C 0.64334 0.20721 0.13464 0.0
C7364 C 0.66401 0.19841 0.13128 0.0
C7365 C 0.67206 0.20418 0.12029 0.0
N7366 N 0.64997 0.20454 0.13338 0.0
N7367 N 0.66606 0.20752 0.12264 0.0
H7368 H 0.5739 0.09133 0.63011 0.0
H7369 H 0.53851 0.11522 0.6297 0.0
H7370 H 0.55412 0.08454 0.63972 0.0
H7371 H 0.55869 0.12159 0.62066 0.0
H7372 H 0.54353 0.10336 0.63214 0.0
H7373 H 0.56787 0.10184 0.62539 0.0
C7374 C 0.56826 0.09205 0.6312 0.0
C7375 C 0.56453 0.08711 0.63539 0.0
C7376 C 0.54683 0.10733 0.62956 0.0
C7377 C 0.55755 0.09916 0.63 0.0
C7378 C 0.54395 0.11408 0.62813 0.0
C7379 C 0.54822 0.11941 0.62506 0.0
C7380 C 0.55401 0.10593 0.62787 0.0
C7381 C 0.55525 0.11767 0.62316 0.0
C7382 C 0.56481 0.09804 0.62848 0.0
C7383 C 0.5572 0.08823 0.63651 0.0
N7384 N 0.55793 0.11112 0.62464 0.0
N7385 N 0.55396 0.09419 0.6339 0.0
H7386 H 0.66896 0.80857 0.40297 0.0
H7387 H 0.64572 0.79486 0.36983 0.0
H7388 H 0.67504 0.81225 0.38107 0.0
H7389 H 0.63769 0.79691 0.39128 0.0
H7390 H 0.65741 0.79918 0.37395 0.0
H7391 H 0.65839 0.80221 0.39883 0.0
C7392 C 0.66808 0.80803 0.39729 0.0
C7393 C 0.67285 0.81106 0.39237 0.0
C7394 C 0.6531 0.79863 0.37775 0.0
C7395 C 0.66077 0.80369 0.38758 0.0
C7396 C 0.64646 0.79614 0.37541 0.0
C7397 C 0.64074 0.79561 0.38022 0.0
C7398 C 0.65402 0.8005 0.38496 0.0
C7399 C 0.64194 0.79735 0.38739 0.0
C7400 C 0.66206 0.80437 0.39493 0.0
C7401 C 0.67153 0.81 0.38506 0.0
N7402 N 0.64844 0.79973 0.38954 0.0
N7403 N 0.66558 0.80645 0.38289 0.0
H7404 H 0.95359 0.92779 0.13203 0.0
H7405 H 0.96187 0.88708 0.14197 0.0
H7406 H 0.94782 0.91775 0.15194 0.0
H7407 H 0.96703 0.8962 0.1215 0.0
H7408 H 0.95771 0.89872 0.14601 0.0
H7409 H 0.95942 0.91669 0.12831 0.0
C7410 C 0.95357 0.92328 0.13563 0.0
C7411 C 0.9502 0.92373 0.14232 0.0
C7412 C 0.95978 0.89821 0.14064 0.0
C7413 C 0.9569 0.91103 0.13811 0.0
C7414 C 0.96213 0.89156 0.13833 0.0
C7415 C 0.96471 0.89066 0.13136 0.0
C7416 C 0.95996 0.90405 0.13595 0.0
C7417 C 0.96508 0.89667 0.12691 0.0
C7418 C 0.95692 0.91695 0.13352 0.0
C7419 C 0.95043 0.91772 0.14679 0.0
N7420 N 0.96266 0.90311 0.12926 0.0
N7421 N 0.95368 0.91164 0.14459 0.0
H7422 H 0.84379 0.1856 0.87949 0.0
H7423 H 0.86657 0.22166 0.87831 0.0
H7424 H 0.83576 0.20575 0.8872 0.0
H7425 H 0.87413 0.20124 0.87083 0.0
H7426 H 0.85477 0.21638 0.88037 0.0
H7427 H 0.85445 0.19163 0.87512 0.0
C7428 C 0.84427 0.19131 0.88024 0.0
C7429 C 0.83893 0.19516 0.88379 0.0
C7430 C 0.85899 0.21308 0.87821 0.0
C7431 C 0.85115 0.20214 0.87879 0.0
C7432 C 0.86571 0.2161 0.877 0.0
C7433 C 0.87135 0.21186 0.87448 0.0
C7434 C 0.85792 0.20577 0.87687 0.0
C7435 C 0.86996 0.20467 0.87291 0.0
C7436 C 0.85035 0.19476 0.87772 0.0
C7437 C 0.83976 0.20258 0.88449 0.0
N7438 N 0.86342 0.20185 0.87417 0.0
N7439 N 0.8458 0.20582 0.88208 0.0
H7440 H 0.8769 0.57544 0.91527 0.0
H7441 H 0.88084 0.53869 0.89408 0.0
H7442 H 0.87158 0.5551 0.92462 0.0
H7443 H 0.88788 0.5591 0.88611 0.0
H7444 H 0.87827 0.54427 0.90564 0.0
H7445 H 0.88167 0.5693 0.90486 0.0
C7446 C 0.87675 0.56967 0.91513 0.0
C7447 C 0.87376 0.56578 0.92077 0.0
C7448 C 0.88045 0.5475 0.90138 0.0
C7449 C 0.87923 0.55867 0.90884 0.0
C7450 C 0.88195 0.54432 0.8948 0.0
C7451 C 0.88448 0.54846 0.8891 0.0
C7452 C 0.8815 0.55488 0.90225 0.0
C7453 C 0.88579 0.55574 0.89031 0.0
C7454 C 0.87951 0.56615 0.90919 0.0
C7455 C 0.87384 0.5583 0.92037 0.0
N7456 N 0.88423 0.55871 0.89672 0.0
N7457 N 0.87645 0.55498 0.91446 0.0
H7458 H 0.38001 0.9356 0.0939 0.0
H7459 H 0.38194 0.97253 0.11533 0.0
H7460 H 0.37288 0.9556 0.08503 0.0
H7461 H 0.38635 0.95186 0.12441 0.0
H7462 H 0.38039 0.96686 0.10359 0.0
H7463 H 0.38416 0.9419 0.10449 0.0
C7464 C 0.37935 0.94134 0.09418 0.0
C7465 C 0.37599 0.94507 0.08863 0.0
C7466 C 0.38177 0.96358 0.10815 0.0
C7467 C 0.38074 0.95235 0.10076 0.0
C7468 C 0.38268 0.96682 0.11482 0.0
C7469 C 0.38419 0.96263 0.12084 0.0
C7470 C 0.38241 0.95613 0.10752 0.0
C7471 C 0.38508 0.95526 0.11992 0.0
C7472 C 0.38173 0.94494 0.10022 0.0
C7473 C 0.37542 0.95252 0.0892 0.0
N7474 N 0.38414 0.95225 0.11341 0.0
N7475 N 0.3777 0.95592 0.0952 0.0
H7476 H 0.8144 0.60906 0.84325 0.0
H7477 H 0.79461 0.64052 0.86428 0.0
H7478 H 0.80815 0.6288 0.83316 0.0
H7479 H 0.80004 0.62011 0.87344 0.0
H7480 H 0.79901 0.6363 0.85269 0.0
H7481 H 0.80866 0.61297 0.85419 0.0
C7482 C 0.81173 0.61419 0.84329 0.0
C7483 C 0.81174 0.61858 0.83723 0.0
C7484 C 0.79921 0.63275 0.85724 0.0
C7485 C 0.80526 0.6232 0.84989 0.0
C7486 C 0.79667 0.63514 0.86384 0.0
C7487 C 0.79704 0.63069 0.86985 0.0
C7488 C 0.80211 0.62585 0.85666 0.0
C7489 C 0.79979 0.62378 0.86899 0.0
C7490 C 0.80849 0.61645 0.84958 0.0
C7491 C 0.80835 0.62526 0.83771 0.0
N7492 N 0.80224 0.62159 0.86254 0.0
N7493 N 0.80526 0.62738 0.84393 0.0
H7494 H 0.12966 0.07041 0.58803 0.0
H7495 H 0.13317 0.03841 0.6161 0.0
H7496 H 0.14617 0.05441 0.58679 0.0
H7497 H 0.122 0.05807 0.62041 0.0
H7498 H 0.1362 0.04291 0.60418 0.0
H7499 H 0.12499 0.06457 0.59872 0.0
C7500 C 0.13223 0.0656 0.58994 0.0
C7501 C 0.13833 0.0629 0.58654 0.0
C7502 C 0.13304 0.04621 0.60772 0.0
C7503 C 0.13305 0.05624 0.59879 0.0
C7504 C 0.13128 0.04363 0.61449 0.0
C7505 C 0.12738 0.04791 0.61923 0.0
C7506 C 0.1308 0.05306 0.60567 0.0
C7507 C 0.12509 0.05465 0.61692 0.0
C7508 C 0.1296 0.0623 0.59607 0.0
C7509 C 0.14151 0.0567 0.5893 0.0
N7510 N 0.12684 0.05702 0.61031 0.0
N7511 N 0.13884 0.05358 0.59529 0.0
H7512 H 0.20606 0.88842 0.83428 0.0
H7513 H 0.2015 0.87112 0.87301 0.0
H7514 H 0.18608 0.88107 0.84301 0.0
H7515 H 0.22161 0.87907 0.86515 0.0
H7516 H 0.19616 0.87336 0.86137 0.0
H7517 H 0.21224 0.8837 0.84482 0.0
C7518 C 0.20299 0.88573 0.83836 0.0
C7519 C 0.19554 0.88522 0.83782 0.0
C7520 C 0.20176 0.87457 0.86214 0.0
C7521 C 0.20254 0.87985 0.84987 0.0
C7522 C 0.2048 0.8733 0.8688 0.0
C7523 C 0.21198 0.875 0.87007 0.0
C7524 C 0.2059 0.87763 0.85669 0.0
C7525 C 0.21605 0.87769 0.86439 0.0
C7526 C 0.20651 0.88307 0.84439 0.0
C7527 C 0.19181 0.88171 0.84328 0.0
N7528 N 0.21293 0.87901 0.85796 0.0
N7529 N 0.19534 0.8792 0.84908 0.0
H7530 H 0.63141 0.43682 0.41751 0.0
H7531 H 0.63013 0.47259 0.39435 0.0
H7532 H 0.64013 0.45679 0.42491 0.0
H7533 H 0.62096 0.45251 0.38783 0.0
H7534 H 0.63272 0.46742 0.4061 0.0
H7535 H 0.62652 0.44292 0.40712 0.0
C7536 C 0.63227 0.44251 0.41695 0.0
C7537 C 0.63626 0.44629 0.42203 0.0
C7538 C 0.63007 0.46418 0.40212 0.0
C7539 C 0.63067 0.45334 0.41012 0.0
C7540 C 0.62856 0.46714 0.39544 0.0
C7541 C 0.62542 0.46294 0.39009 0.0
C7542 C 0.62841 0.45698 0.40345 0.0
C7543 C 0.62352 0.4559 0.39176 0.0
C7544 C 0.62945 0.446 0.41103 0.0
C7545 C 0.63709 0.45368 0.42111 0.0
N7546 N 0.6251 0.45313 0.39825 0.0
N7547 N 0.63439 0.45696 0.41522 0.0
H7548 H 0.80775 0.40304 0.66967 0.0
H7549 H 0.79402 0.37041 0.64571 0.0
H7550 H 0.81163 0.381 0.67511 0.0
H7551 H 0.79549 0.39217 0.6384 0.0
H7552 H 0.79836 0.37424 0.65749 0.0
H7553 H 0.80112 0.39915 0.65918 0.0
C7554 C 0.80719 0.39737 0.66868 0.0
C7555 C 0.81036 0.39234 0.67323 0.0
C7556 C 0.79767 0.37817 0.65332 0.0
C7557 C 0.8027 0.38784 0.66123 0.0
C7558 C 0.79516 0.376 0.64663 0.0
C7559 C 0.79447 0.38098 0.64108 0.0
C7560 C 0.79941 0.38538 0.65446 0.0
C7561 C 0.79605 0.38815 0.64252 0.0
C7562 C 0.80338 0.39515 0.66269 0.0
C7563 C 0.80928 0.38507 0.67176 0.0
N7564 N 0.79846 0.39013 0.64905 0.0
N7565 N 0.80559 0.38303 0.66585 0.0
H7566 H 0.68592 0.62674 0.16646 0.0
H7567 H 0.7226 0.63049 0.14515 0.0
H7568 H 0.70628 0.62141 0.17576 0.0
H7569 H 0.70223 0.63786 0.13732 0.0
H7570 H 0.71704 0.62792 0.15671 0.0
H7571 H 0.69204 0.63152 0.15603 0.0
C7572 C 0.6917 0.6266 0.1663 0.0
C7573 C 0.6956 0.6236 0.17193 0.0
C7574 C 0.71381 0.63017 0.15248 0.0
C7575 C 0.70268 0.62906 0.15999 0.0
C7576 C 0.71699 0.63167 0.1459 0.0
C7577 C 0.71285 0.63431 0.14024 0.0
C7578 C 0.70645 0.6313 0.15339 0.0
C7579 C 0.70559 0.63569 0.14149 0.0
C7580 C 0.6952 0.62935 0.16036 0.0
C7581 C 0.70308 0.62367 0.17152 0.0
N7582 N 0.70263 0.63412 0.1479 0.0
N7583 N 0.70639 0.62628 0.1656 0.0
H7584 H 0.58556 0.63718 0.95553 0.0
H7585 H 0.62441 0.62001 0.95071 0.0
H7586 H 0.59494 0.63158 0.93527 0.0
H7587 H 0.61656 0.6278 0.97089 0.0
H7588 H 0.61286 0.62265 0.94533 0.0
H7589 H 0.59609 0.63225 0.96158 0.0
C7590 C 0.5898 0.63484 0.95236 0.0
C7591 C 0.58943 0.63486 0.94488 0.0
C7592 C 0.61363 0.62374 0.95095 0.0
C7593 C 0.60145 0.62924 0.95175 0.0
C7594 C 0.62023 0.62225 0.95402 0.0
C7595 C 0.62147 0.62378 0.96124 0.0
C7596 C 0.60821 0.62683 0.9551 0.0
C7597 C 0.61582 0.62654 0.96531 0.0
C7598 C 0.59581 0.63206 0.95581 0.0
C7599 C 0.59507 0.63179 0.94104 0.0
N7600 N 0.60944 0.62805 0.96216 0.0
N7601 N 0.60085 0.62914 0.94451 0.0
H7602 H 0.61059 0.34345 0.1964 0.0
H7603 H 0.64206 0.36517 0.21548 0.0
H7604 H 0.63103 0.33401 0.2013 0.0
H7605 H 0.6215 0.37398 0.21002 0.0
H7606 H 0.63803 0.35348 0.21111 0.0
H7607 H 0.61438 0.35442 0.20216 0.0
C7608 C 0.61585 0.34364 0.19878 0.0
C7609 C 0.62047 0.33776 0.19839 0.0
C7610 C 0.6344 0.35798 0.21089 0.0
C7611 C 0.62495 0.35045 0.2049 0.0
C7612 C 0.63669 0.36463 0.21341 0.0
C7613 C 0.63213 0.37057 0.21303 0.0
C7614 C 0.62751 0.35728 0.20801 0.0
C7615 C 0.62523 0.36958 0.21029 0.0
C7616 C 0.61804 0.34995 0.20203 0.0
C7617 C 0.62731 0.33843 0.20142 0.0
N7618 N 0.62315 0.36309 0.20787 0.0
N7619 N 0.62934 0.34467 0.20453 0.0
H7620 H 0.91797 0.35932 0.44818 0.0
H7621 H 0.89526 0.39065 0.46627 0.0
H7622 H 0.92616 0.38067 0.45106 0.0
H7623 H 0.88742 0.36935 0.46246 0.0
H7624 H 0.90704 0.38693 0.46189 0.0
H7625 H 0.90722 0.36271 0.4546 0.0
C7626 C 0.91757 0.3647 0.45026 0.0
C7627 C 0.92301 0.36971 0.44906 0.0
C7628 C 0.90275 0.38306 0.46206 0.0
C7629 C 0.91055 0.37369 0.45631 0.0
C7630 C 0.89604 0.38518 0.46459 0.0
C7631 C 0.89034 0.38032 0.46464 0.0
C7632 C 0.90374 0.37604 0.4596 0.0
C7633 C 0.89163 0.3733 0.46238 0.0
C7634 C 0.91138 0.36665 0.45388 0.0
C7635 C 0.92208 0.37665 0.45177 0.0
N7636 N 0.89817 0.37139 0.45992 0.0
N7637 N 0.91595 0.37845 0.45523 0.0
H7638 H 0.90113 0.66956 0.70096 0.0
H7639 H 0.86858 0.64541 0.71454 0.0
H7640 H 0.87908 0.6749 0.69699 0.0
H7641 H 0.89046 0.63836 0.71339 0.0
H7642 H 0.87233 0.65722 0.71022 0.0
H7643 H 0.89726 0.65911 0.70767 0.0
C7644 C 0.89547 0.66855 0.70152 0.0
C7645 C 0.89042 0.67305 0.6983 0.0
C7646 C 0.8763 0.6531 0.71098 0.0
C7647 C 0.88595 0.66109 0.70604 0.0
C7648 C 0.87418 0.64639 0.71347 0.0
C7649 C 0.87922 0.64091 0.71424 0.0
C7650 C 0.88352 0.65432 0.70934 0.0
C7651 C 0.8864 0.64242 0.71277 0.0
C7652 C 0.89326 0.66259 0.70538 0.0
C7653 C 0.88315 0.67157 0.69938 0.0
N7654 N 0.88833 0.64897 0.71037 0.0
N7655 N 0.88113 0.66568 0.7031 0.0
H7656 H 0.59555 0.38026 0.57495 0.0
H7657 H 0.61618 0.38311 0.53769 0.0
H7658 H 0.58604 0.37417 0.5549 0.0
H7659 H 0.62558 0.38751 0.55821 0.0
H7660 H 0.60453 0.38153 0.54352 0.0
H7661 H 0.60601 0.3846 0.56857 0.0
C7662 C 0.59566 0.37986 0.56919 0.0
C7663 C 0.58997 0.37675 0.56546 0.0
C7664 C 0.60913 0.38292 0.54673 0.0
C7665 C 0.60196 0.38172 0.55808 0.0
C7666 C 0.61575 0.38386 0.5434 0.0
C7667 C 0.62184 0.38535 0.5475 0.0
C7668 C 0.60862 0.38352 0.55419 0.0
C7669 C 0.62103 0.38625 0.55488 0.0
C7670 C 0.60163 0.38236 0.56554 0.0
C7671 C 0.59033 0.37652 0.55798 0.0
N7672 N 0.61457 0.38527 0.55799 0.0
N7673 N 0.59627 0.3789 0.55453 0.0
H7674 H 0.87875 0.33567 0.81363 0.0
H7675 H 0.89004 0.3733 0.79768 0.0
H7676 H 0.90063 0.34222 0.81058 0.0
H7677 H 0.8686 0.36517 0.79588 0.0
H7678 H 0.89399 0.36169 0.80207 0.0
H7679 H 0.87484 0.34607 0.80675 0.0
C7680 C 0.88274 0.33923 0.81143 0.0
C7681 C 0.89003 0.33812 0.81278 0.0
C7682 C 0.88843 0.36239 0.80065 0.0
C7683 C 0.88558 0.35007 0.80499 0.0
C7684 C 0.88618 0.36902 0.79816 0.0
C7685 C 0.87899 0.37017 0.79647 0.0
C7686 C 0.88343 0.35689 0.80158 0.0
C7687 C 0.8742 0.36446 0.79713 0.0
C7688 C 0.88049 0.34518 0.80753 0.0
C7689 C 0.89494 0.34295 0.80983 0.0
N7690 N 0.87648 0.35807 0.79973 0.0
N7691 N 0.89262 0.34873 0.80615 0.0
H7692 H 0.91702 0.6293 0.07671 0.0
H7693 H 0.8954 0.6279 0.03994 0.0
H7694 H 0.92548 0.63738 0.0569 0.0
H7695 H 0.88727 0.62037 0.0601 0.0
H7696 H 0.90699 0.63014 0.04561 0.0
H7697 H 0.90663 0.62478 0.07032 0.0
C7698 C 0.91669 0.6301 0.07099 0.0
C7699 C 0.92207 0.6338 0.06734 0.0
C7700 C 0.90269 0.62793 0.04877 0.0
C7701 C 0.91016 0.62863 0.05996 0.0
C7702 C 0.89609 0.62662 0.04553 0.0
C7703 C 0.89035 0.62403 0.04958 0.0
C7704 C 0.90354 0.62662 0.05611 0.0
C7705 C 0.89152 0.62249 0.05681 0.0
C7706 C 0.91077 0.62749 0.06734 0.0
C7707 C 0.92145 0.63455 0.05991 0.0
N7708 N 0.89795 0.62386 0.05985 0.0
N7709 N 0.91555 0.63206 0.05647 0.0
H7710 H 0.6289 0.66695 0.32523 0.0
H7711 H 0.63083 0.64418 0.2893 0.0
H7712 H 0.62106 0.67488 0.3051 0.0
H7713 H 0.64002 0.63764 0.30935 0.0
H7714 H 0.6282 0.65592 0.29451 0.0
H7715 H 0.63391 0.65663 0.31912 0.0
C7716 C 0.62826 0.66652 0.3195 0.0
C7717 C 0.62449 0.67172 0.31567 0.0
C7718 C 0.63086 0.65194 0.29773 0.0
C7719 C 0.6302 0.65988 0.3086 0.0
C7720 C 0.6324 0.64526 0.29475 0.0
C7721 C 0.63555 0.63991 0.29894 0.0
C7722 C 0.63251 0.65324 0.30494 0.0
C7723 C 0.63745 0.64157 0.30598 0.0
C7724 C 0.63115 0.66063 0.316 0.0
C7725 C 0.62393 0.67097 0.30824 0.0
N7726 N 0.63584 0.64805 0.30877 0.0
N7727 N 0.62668 0.66509 0.30495 0.0
H7728 H 0.95305 0.59187 0.652 0.0
H7729 H 0.966 0.61534 0.61874 0.0
H7730 H 0.94907 0.58589 0.63012 0.0
H7731 H 0.9642 0.62326 0.64026 0.0
H7732 H 0.96208 0.60354 0.62291 0.0
H7733 H 0.95943 0.60241 0.64783 0.0
C7734 C 0.95354 0.59275 0.64632 0.0
C7735 C 0.95041 0.58803 0.64141 0.0
C7736 C 0.96261 0.60785 0.62672 0.0
C7737 C 0.95779 0.60008 0.63659 0.0
C7738 C 0.96488 0.61455 0.62435 0.0
C7739 C 0.96535 0.62027 0.62916 0.0
C7740 C 0.9609 0.60686 0.63395 0.0
C7741 C 0.96382 0.619 0.63637 0.0
C7742 C 0.95721 0.59876 0.64394 0.0
C7743 C 0.9514 0.58936 0.6341 0.0
N7744 N 0.96164 0.61245 0.63854 0.0
N7745 N 0.95495 0.5953 0.63191 0.0
H7746 H 0.67545 0.7056 0.88841 0.0
H7747 H 0.63629 0.70121 0.87183 0.0
H7748 H 0.66551 0.68542 0.88353 0.0
H7749 H 0.64435 0.72127 0.87974 0.0
H7750 H 0.64781 0.69571 0.87437 0.0
H7751 H 0.66492 0.71177 0.8836 0.0
C7752 C 0.67109 0.70248 0.88625 0.0
C7753 C 0.6713 0.695 0.88644 0.0
C7754 C 0.64709 0.70133 0.87551 0.0
C7755 C 0.6593 0.70198 0.88095 0.0
C7756 C 0.64051 0.70447 0.87407 0.0
C7757 C 0.63932 0.71168 0.87568 0.0
C7758 C 0.65256 0.70541 0.8786 0.0
C7759 C 0.64503 0.71569 0.87842 0.0
C7760 C 0.66508 0.70599 0.88355 0.0
C7761 C 0.66551 0.6912 0.88361 0.0
N7762 N 0.65139 0.71248 0.87987 0.0
N7763 N 0.65974 0.69473 0.88101 0.0
H7764 H 0.55614 0.42619 0.13685 0.0
H7765 H 0.55956 0.38595 0.12319 0.0
H7766 H 0.57602 0.4158 0.13165 0.0
H7767 H 0.53939 0.3957 0.1284 0.0
H7768 H 0.56542 0.39746 0.12471 0.0
H7769 H 0.54967 0.41574 0.13232 0.0
C7770 C 0.55914 0.42175 0.13467 0.0
C7771 C 0.56663 0.42181 0.13472 0.0
C7772 C 0.5597 0.39714 0.12545 0.0
C7773 C 0.55929 0.40986 0.12957 0.0
C7774 C 0.55636 0.39056 0.12458 0.0
C7775 C 0.549 0.38988 0.12575 0.0
C7776 C 0.55568 0.40309 0.1276 0.0
C7777 C 0.54508 0.39602 0.12745 0.0
C7778 C 0.55545 0.41578 0.13211 0.0
C7779 C 0.57025 0.41592 0.13185 0.0
N7780 N 0.54848 0.40237 0.12843 0.0
N7781 N 0.56655 0.41018 0.12945 0.0
H7782 H 0.83844 0.32045 0.37863 0.0
H7783 H 0.86627 0.28819 0.38221 0.0
H7784 H 0.83701 0.30435 0.39502 0.0
H7785 H 0.87055 0.30759 0.37061 0.0
H7786 H 0.85435 0.29278 0.38519 0.0
H7787 H 0.84903 0.31448 0.37388 0.0
C7788 C 0.84029 0.31559 0.38116 0.0
C7789 C 0.83687 0.31291 0.38725 0.0
C7790 C 0.85788 0.29599 0.38194 0.0
C7791 C 0.84901 0.30609 0.38188 0.0
C7792 C 0.86465 0.29336 0.3802 0.0
C7793 C 0.86939 0.29755 0.37621 0.0
C7794 C 0.85585 0.30282 0.37959 0.0
C7795 C 0.86706 0.30423 0.37377 0.0
C7796 C 0.84637 0.31222 0.37848 0.0
C7797 C 0.83955 0.30665 0.39037 0.0
N7798 N 0.86047 0.30667 0.37552 0.0
N7799 N 0.84548 0.30346 0.38766 0.0
H7800 H 0.95332 0.42044 0.85935 0.0
H7801 H 0.96508 0.39499 0.89158 0.0
H7802 H 0.94746 0.42436 0.88126 0.0
H7803 H 0.96748 0.38973 0.86931 0.0
H7804 H 0.96049 0.40678 0.88815 0.0
H7805 H 0.96037 0.4102 0.86318 0.0
C7806 C 0.95354 0.41916 0.86498 0.0
C7807 C 0.9497 0.4232 0.86998 0.0
C7808 C 0.9621 0.40307 0.88403 0.0
C7809 C 0.95781 0.41147 0.87442 0.0
C7810 C 0.96475 0.39637 0.88598 0.0
C7811 C 0.96658 0.39137 0.88071 0.0
C7812 C 0.96133 0.40478 0.87676 0.0
C7813 C 0.96602 0.3934 0.87353 0.0
C7814 C 0.95759 0.41332 0.86717 0.0
C7815 C 0.95033 0.4214 0.87722 0.0
N7816 N 0.96341 0.39992 0.87177 0.0
N7817 N 0.95425 0.41561 0.87922 0.0
H7818 H 0.8341 0.70458 0.12781 0.0
H7819 H 0.87534 0.71153 0.11904 0.0
H7820 H 0.845 0.69682 0.10905 0.0
H7821 H 0.86563 0.71762 0.139 0.0
H7822 H 0.86377 0.7074 0.11479 0.0
H7823 H 0.84514 0.71052 0.13155 0.0
C7824 C 0.83879 0.70414 0.12446 0.0
C7825 C 0.8386 0.70017 0.1181 0.0
C7826 C 0.86414 0.70966 0.12009 0.0
C7827 C 0.85121 0.70701 0.12232 0.0
C7828 C 0.87075 0.712 0.12253 0.0
C7829 C 0.87146 0.71482 0.12943 0.0
C7830 C 0.85815 0.7101 0.12458 0.0
C7831 C 0.86531 0.71547 0.13365 0.0
C7832 C 0.84507 0.70756 0.12659 0.0
C7833 C 0.84482 0.6999 0.11393 0.0
N7834 N 0.85891 0.71306 0.13119 0.0
N7835 N 0.85086 0.70323 0.11613 0.0
H7836 H 0.57098 0.58974 0.3828 0.0
H7837 H 0.53723 0.61584 0.37998 0.0
H7838 H 0.55389 0.58663 0.36769 0.0
H7839 H 0.55721 0.62172 0.38976 0.0
H7840 H 0.54216 0.60397 0.37739 0.0
H7841 H 0.56484 0.60031 0.38737 0.0
C7842 C 0.56588 0.59122 0.38052 0.0
C7843 C 0.56296 0.58732 0.37483 0.0
C7844 C 0.54543 0.60784 0.38017 0.0
C7845 C 0.55593 0.59945 0.38 0.0
C7846 C 0.54261 0.61458 0.38168 0.0
C7847 C 0.54685 0.61976 0.38504 0.0
C7848 C 0.55251 0.60626 0.38211 0.0
C7849 C 0.55381 0.61789 0.3871 0.0
C7850 C 0.56241 0.59728 0.38309 0.0
C7851 C 0.55637 0.58954 0.37203 0.0
N7852 N 0.55642 0.6113 0.38558 0.0
N7853 N 0.55308 0.59547 0.37462 0.0
H7854 H 0.67022 0.32255 0.63196 0.0
H7855 H 0.64375 0.28904 0.63017 0.0
H7856 H 0.67329 0.30477 0.61766 0.0
H7857 H 0.63815 0.30928 0.63958 0.0
H7858 H 0.65563 0.29377 0.62739 0.0
H7859 H 0.6595 0.31677 0.63664 0.0
C7860 C 0.6687 0.31738 0.62988 0.0
C7861 C 0.67263 0.31415 0.62438 0.0
C7862 C 0.65182 0.29715 0.63012 0.0
C7863 C 0.66034 0.30753 0.62968 0.0
C7864 C 0.64507 0.29444 0.63175 0.0
C7865 C 0.63996 0.2988 0.63506 0.0
C7866 C 0.65349 0.30425 0.63189 0.0
C7867 C 0.64191 0.30578 0.63694 0.0
C7868 C 0.66255 0.3141 0.63251 0.0
C7869 C 0.67036 0.30748 0.62183 0.0
N7870 N 0.64851 0.30829 0.63531 0.0
N7871 N 0.66435 0.3044 0.62448 0.0
H7872 H 0.65034 0.95254 0.58982 0.0
H7873 H 0.6195 0.96507 0.61662 0.0
H7874 H 0.62797 0.94859 0.58599 0.0
H7875 H 0.64203 0.96632 0.6212 0.0
H7876 H 0.62234 0.96057 0.60465 0.0
H7877 H 0.64721 0.95916 0.60055 0.0
C7878 C 0.64476 0.95315 0.59117 0.0
C7879 C 0.63942 0.94998 0.58698 0.0
C7880 C 0.62665 0.96189 0.60826 0.0
C7881 C 0.63579 0.95747 0.5994 0.0
C7882 C 0.62504 0.96449 0.61507 0.0
C7883 C 0.63054 0.966 0.61992 0.0
C7884 C 0.63382 0.96084 0.6063 0.0
C7885 C 0.63762 0.96512 0.61765 0.0
C7886 C 0.64297 0.9569 0.59734 0.0
C7887 C 0.63227 0.95086 0.5891 0.0
N7888 N 0.63905 0.96257 0.61103 0.0
N7889 N 0.63067 0.9545 0.59518 0.0
H7890 H 0.15029 0.5593 0.41849 0.0
H7891 H 0.11794 0.54616 0.39383 0.0
H7892 H 0.12826 0.56405 0.42325 0.0
H7893 H 0.13997 0.5468 0.3872 0.0
H7894 H 0.12153 0.55065 0.40564 0.0
H7895 H 0.14646 0.5526 0.40802 0.0
C7896 C 0.14464 0.55892 0.41734 0.0
C7897 C 0.1396 0.56236 0.42169 0.0
C7898 C 0.12557 0.54974 0.40161 0.0
C7899 C 0.13517 0.55461 0.40972 0.0
C7900 C 0.12354 0.54716 0.3949 0.0
C7901 C 0.12867 0.54619 0.38954 0.0
C7902 C 0.1328 0.55127 0.40295 0.0
C7903 C 0.13584 0.54757 0.39117 0.0
C7904 C 0.14246 0.55507 0.41137 0.0
C7905 C 0.13233 0.5615 0.42004 0.0
N7906 N 0.13769 0.55006 0.39771 0.0
N7907 N 0.13033 0.55776 0.41414 0.0
H7908 H 0.68445 0.87932 0.66556 0.0
H7909 H 0.72168 0.87726 0.64475 0.0
H7910 H 0.70443 0.88596 0.67488 0.0
H7911 H 0.7012 0.8724 0.63545 0.0
H7912 H 0.71588 0.87866 0.65642 0.0
H7913 H 0.69089 0.87499 0.65512 0.0
C7914 C 0.69021 0.87983 0.66541 0.0
C7915 C 0.6939 0.88309 0.67105 0.0
C7916 C 0.71267 0.87719 0.65184 0.0
C7917 C 0.70134 0.87815 0.65907 0.0
C7918 C 0.71599 0.87636 0.6452 0.0
C7919 C 0.71189 0.8748 0.63913 0.0
C7920 C 0.70523 0.87642 0.65239 0.0
C7921 C 0.70453 0.87371 0.63999 0.0
C7922 C 0.69389 0.87734 0.65946 0.0
C7923 C 0.70138 0.88348 0.67064 0.0
N7924 N 0.70144 0.8746 0.64647 0.0
N7925 N 0.70485 0.88112 0.66471 0.0
H7926 H 0.3809 0.45134 0.9269 0.0
H7927 H 0.37115 0.46027 0.88627 0.0
H7928 H 0.36129 0.44523 0.91646 0.0
H7929 H 0.3916 0.46535 0.89556 0.0
H7930 H 0.36719 0.45565 0.89773 0.0
H7931 H 0.38472 0.45727 0.91588 0.0
C7932 C 0.37739 0.45125 0.92231 0.0
C7933 C 0.37074 0.44778 0.92263 0.0
C7934 C 0.37255 0.45778 0.8973 0.0
C7935 C 0.37506 0.4546 0.91004 0.0
C7936 C 0.37482 0.4604 0.89074 0.0
C7937 C 0.38175 0.46311 0.88993 0.0
C7938 C 0.37723 0.45784 0.90315 0.0
C7939 C 0.38621 0.46331 0.89595 0.0
C7940 C 0.37956 0.45467 0.91604 0.0
C7941 C 0.36639 0.44793 0.91654 0.0
N7942 N 0.38389 0.46065 0.90231 0.0
N7943 N 0.36863 0.45125 0.91052 0.0
H7944 H 0.32636 0.62786 0.66558 0.0
H7945 H 0.28936 0.63257 0.64473 0.0
H7946 H 0.30596 0.6228 0.67497 0.0
H7947 H 0.31014 0.63614 0.6355 0.0
H7948 H 0.29506 0.63053 0.65636 0.0
H7949 H 0.32025 0.63242 0.65505 0.0
C7950 C 0.32058 0.62773 0.66542 0.0
C7951 C 0.31666 0.62485 0.67111 0.0
C7952 C 0.29836 0.63183 0.6518 0.0
C7953 C 0.3096 0.63008 0.65904 0.0
C7954 C 0.29511 0.63303 0.64519 0.0
C7955 C 0.2993 0.63444 0.63915 0.0
C7956 C 0.30584 0.63208 0.65236 0.0
C7957 C 0.30672 0.63495 0.64 0.0
C7958 C 0.31709 0.63036 0.65942 0.0
C7959 C 0.30918 0.62497 0.67069 0.0
N7960 N 0.30975 0.63372 0.64646 0.0
N7961 N 0.30588 0.62746 0.66472 0.0
H7962 H 0.8595 0.06115 0.09304 0.0
H7963 H 0.89125 0.0439 0.11583 0.0
H7964 H 0.88086 0.05853 0.0848 0.0
H7965 H 0.87011 0.04808 0.12392 0.0
H7966 H 0.88732 0.0479 0.10398 0.0
H7967 H 0.86306 0.05501 0.10389 0.0
C7968 C 0.86492 0.05919 0.09345 0.0
C7969 C 0.86989 0.06038 0.08797 0.0
C7970 C 0.88354 0.04789 0.10834 0.0
C7971 C 0.87406 0.05344 0.10054 0.0
C7972 C 0.88576 0.04557 0.11508 0.0
C7973 C 0.88101 0.04575 0.12087 0.0
C7974 C 0.87651 0.05034 0.1074 0.0
C7975 C 0.87398 0.04798 0.11963 0.0
C7976 C 0.86697 0.05573 0.0997 0.0
C7977 C 0.87688 0.05782 0.08892 0.0
N7978 N 0.87195 0.05023 0.11306 0.0
N7979 N 0.87877 0.05451 0.0951 0.0
H7980 H 0.7018 0.10973 0.84062 0.0
H7981 H 0.71473 0.14282 0.86439 0.0
H7982 H 0.69722 0.13163 0.83517 0.0
H7983 H 0.71405 0.12103 0.87172 0.0
H7984 H 0.71047 0.13884 0.85263 0.0
H7985 H 0.70848 0.11384 0.851 0.0
C7986 C 0.70222 0.11541 0.84159 0.0
C7987 C 0.69884 0.12034 0.83707 0.0
C7988 C 0.71132 0.13493 0.8568 0.0
C7989 C 0.70655 0.12509 0.84895 0.0
C7990 C 0.71378 0.1372 0.86348 0.0
C7991 C 0.71466 0.13225 0.86902 0.0
C7992 C 0.70983 0.12767 0.85567 0.0
C7993 C 0.71334 0.12502 0.8676 0.0
C7994 C 0.70606 0.11776 0.84751 0.0
C7995 C 0.69974 0.12764 0.8385 0.0
N7996 N 0.71097 0.12295 0.86108 0.0
N7997 N 0.70346 0.12981 0.84435 0.0
H7998 H 0.81315 0.87957 0.33516 0.0
H7999 H 0.79813 0.89074 0.37319 0.0
H8000 H 0.8104 0.90144 0.34188 0.0
H8001 H 0.79563 0.86947 0.36481 0.0
H8002 H 0.80242 0.89472 0.36156 0.0
H8003 H 0.80643 0.87567 0.34567 0.0
C8004 C 0.81105 0.88356 0.33878 0.0
C8005 C 0.81244 0.89084 0.33768 0.0
C8006 C 0.80087 0.8892 0.36222 0.0
C8007 C 0.80485 0.88641 0.34976 0.0
C8008 C 0.79845 0.88693 0.36886 0.0
C8009 C 0.79658 0.87977 0.36994 0.0
C8010 C 0.80155 0.88425 0.35663 0.0
C8011 C 0.79702 0.87504 0.36416 0.0
C8012 C 0.80724 0.88132 0.3448 0.0
C8013 C 0.80962 0.89576 0.34259 0.0
N8014 N 0.79955 0.87734 0.35775 0.0
N8015 N 0.80604 0.89345 0.34844 0.0
H8016 H 0.42542 0.38051 0.06302 0.0
H8017 H 0.38824 0.36768 0.04701 0.0
H8018 H 0.41974 0.35841 0.0599 0.0
H8019 H 0.39549 0.38943 0.04516 0.0
H8020 H 0.39993 0.36427 0.05161 0.0
H8021 H 0.41479 0.38403 0.05624 0.0
C8022 C 0.422 0.3764 0.06083 0.0
C8023 C 0.42342 0.36915 0.06213 0.0
C8024 C 0.39902 0.36978 0.05015 0.0
C8025 C 0.41122 0.37314 0.05447 0.0
C8026 C 0.39233 0.37173 0.04755 0.0
C8027 C 0.39091 0.37885 0.04576 0.0
C8028 C 0.40431 0.37501 0.05107 0.0
C8029 C 0.39641 0.38388 0.04648 0.0
C8030 C 0.41592 0.37842 0.05699 0.0
C8031 C 0.41877 0.36406 0.05919 0.0
N8032 N 0.40286 0.38188 0.04917 0.0
N8033 N 0.41286 0.36616 0.05557 0.0
H8034 H 0.37867 0.67505 0.81105 0.0
H8035 H 0.39101 0.63757 0.79555 0.0
H8036 H 0.4007 0.66936 0.80742 0.0
H8037 H 0.36922 0.64481 0.79426 0.0
H8038 H 0.39463 0.64944 0.7995 0.0
H8039 H 0.375 0.66439 0.80444 0.0
C8040 C 0.38274 0.67163 0.80877 0.0
C8041 C 0.39002 0.67305 0.80989 0.0
C8042 C 0.38906 0.64849 0.79828 0.0
C8043 C 0.38584 0.6608 0.80242 0.0
C8044 C 0.387 0.64171 0.79605 0.0
C8045 C 0.37981 0.64023 0.79464 0.0
C8046 C 0.38387 0.65382 0.79923 0.0
C8047 C 0.37482 0.64577 0.7953 0.0
C8048 C 0.38063 0.66553 0.80502 0.0
C8049 C 0.39504 0.66839 0.80685 0.0
N8050 N 0.37693 0.65231 0.79765 0.0
N8051 N 0.39286 0.66245 0.80333 0.0
H8052 H 0.09364 0.6308 0.57483 0.0
H8053 H 0.11605 0.63113 0.53859 0.0
H8054 H 0.08541 0.63911 0.55502 0.0
H8055 H 0.12378 0.62249 0.55847 0.0
H8056 H 0.1043 0.63282 0.54405 0.0
H8057 H 0.10422 0.62655 0.56854 0.0
C8058 C 0.09406 0.6317 0.56914 0.0
C8059 C 0.08868 0.63539 0.56546 0.0
C8060 C 0.10854 0.63048 0.54719 0.0
C8061 C 0.1008 0.63054 0.55819 0.0
C8062 C 0.11524 0.62947 0.54406 0.0
C8063 C 0.12093 0.62674 0.54811 0.0
C8064 C 0.10753 0.62875 0.55441 0.0
C8065 C 0.11959 0.62474 0.55519 0.0
C8066 C 0.10008 0.62925 0.56554 0.0
C8067 C 0.08942 0.63629 0.55806 0.0
N8068 N 0.11306 0.62584 0.55813 0.0
N8069 N 0.09542 0.63395 0.55468 0.0
H8070 H 0.12786 0.34521 0.32573 0.0
H8071 H 0.13071 0.36625 0.28881 0.0
H8072 H 0.12207 0.33579 0.30556 0.0
H8073 H 0.13784 0.37455 0.30907 0.0
H8074 H 0.12848 0.35468 0.29451 0.0
H8075 H 0.13241 0.35564 0.31946 0.0
C8076 C 0.12757 0.34534 0.31996 0.0
C8077 C 0.12451 0.33968 0.31616 0.0
C8078 C 0.1306 0.35902 0.29768 0.0
C8079 C 0.12971 0.35163 0.3089 0.0
C8080 C 0.13191 0.36561 0.29443 0.0
C8081 C 0.13438 0.3714 0.2985 0.0
C8082 C 0.13177 0.35823 0.30505 0.0
C8083 C 0.1358 0.37028 0.30576 0.0
C8084 C 0.1302 0.35129 0.31637 0.0
C8085 C 0.12439 0.34006 0.30868 0.0
N8086 N 0.13442 0.36386 0.3088 0.0
N8087 N 0.12688 0.34598 0.30529 0.0
H8088 H 0.4231 0.64513 0.45759 0.0
H8089 H 0.38872 0.62075 0.45317 0.0
H8090 H 0.42105 0.62911 0.44118 0.0
H8091 H 0.39327 0.63219 0.4726 0.0
H8092 H 0.40066 0.62365 0.44879 0.0
H8093 H 0.41231 0.64046 0.4633 0.0
C8094 C 0.4204 0.6406 0.45522 0.0
C8095 C 0.42295 0.63753 0.44888 0.0
C8096 C 0.3991 0.62546 0.45405 0.0
C8097 C 0.4106 0.63218 0.45536 0.0
C8098 C 0.39228 0.62382 0.45654 0.0
C8099 C 0.39002 0.62627 0.46323 0.0
C8100 C 0.40365 0.62969 0.45823 0.0
C8101 C 0.39484 0.63018 0.46741 0.0
C8102 C 0.41427 0.63791 0.4585 0.0
C8103 C 0.4193 0.63162 0.44609 0.0
N8104 N 0.40141 0.63186 0.4648 0.0
N8105 N 0.41327 0.62919 0.4493 0.0
H8106 H 0.10886 0.66994 0.20307 0.0
H8107 H 0.14099 0.64508 0.21633 0.0
H8108 H 0.131 0.67503 0.1993 0.0
H8109 H 0.11911 0.63823 0.2145 0.0
H8110 H 0.1374 0.65709 0.21242 0.0
H8111 H 0.11254 0.65934 0.20965 0.0
C8112 C 0.1145 0.66885 0.20366 0.0
C8113 C 0.11963 0.67332 0.20051 0.0
C8114 C 0.13338 0.65296 0.21295 0.0
C8115 C 0.12389 0.66119 0.2081 0.0
C8116 C 0.13542 0.64615 0.21521 0.0
C8117 C 0.13034 0.64067 0.21566 0.0
C8118 C 0.1262 0.6543 0.21123 0.0
C8119 C 0.1232 0.64229 0.21413 0.0
C8120 C 0.11661 0.6628 0.20743 0.0
C8121 C 0.12687 0.67173 0.20162 0.0
N8122 N 0.12135 0.64894 0.21195 0.0
N8123 N 0.12879 0.66575 0.20526 0.0
H8124 H 0.09369 0.37751 0.9354 0.0
H8125 H 0.11579 0.38106 0.97172 0.0
H8126 H 0.08528 0.371 0.9558 0.0
H8127 H 0.12334 0.38814 0.95117 0.0
H8128 H 0.10416 0.37834 0.96634 0.0
H8129 H 0.10419 0.38233 0.94137 0.0
C8130 C 0.09406 0.37711 0.94115 0.0
C8131 C 0.08865 0.37378 0.9451 0.0
C8132 C 0.10835 0.38055 0.96303 0.0
C8133 C 0.10068 0.3793 0.95201 0.0
C8134 C 0.11497 0.38214 0.96611 0.0
C8135 C 0.12056 0.38474 0.96186 0.0
C8136 C 0.10733 0.38159 0.95567 0.0
C8137 C 0.11922 0.38601 0.95461 0.0
C8138 C 0.10004 0.37989 0.94457 0.0
C8139 C 0.08933 0.37354 0.95256 0.0
N8140 N 0.11277 0.38437 0.95174 0.0
N8141 N 0.09529 0.37619 0.95578 0.0
H8142 H 0.40124 0.34069 0.70264 0.0
H8143 H 0.36915 0.3656 0.71592 0.0
H8144 H 0.37909 0.33563 0.69887 0.0
H8145 H 0.39103 0.37244 0.71405 0.0
H8146 H 0.37273 0.35359 0.71199 0.0
H8147 H 0.39757 0.35131 0.70921 0.0
C8148 C 0.3956 0.34179 0.70323 0.0
C8149 C 0.39047 0.33733 0.70008 0.0
C8150 C 0.37675 0.35771 0.71251 0.0
C8151 C 0.38622 0.34947 0.70766 0.0
C8152 C 0.37472 0.36453 0.71478 0.0
C8153 C 0.3798 0.37 0.71523 0.0
C8154 C 0.38392 0.35637 0.71078 0.0
C8155 C 0.38694 0.36838 0.71368 0.0
C8156 C 0.39351 0.34785 0.707 0.0
C8157 C 0.38323 0.33892 0.70119 0.0
N8158 N 0.38878 0.36172 0.7115 0.0
N8159 N 0.38131 0.34492 0.70483 0.0
H8160 H 0.05308 0.42472 0.36568 0.0
H8161 H 0.05793 0.38957 0.38894 0.0
H8162 H 0.07055 0.42165 0.38036 0.0
H8163 H 0.03808 0.395 0.37864 0.0
H8164 H 0.06259 0.40137 0.38594 0.0
H8165 H 0.0474 0.41394 0.37039 0.0
C8166 C 0.05569 0.4218 0.36993 0.0
C8167 C 0.06231 0.42406 0.37261 0.0
C8168 C 0.05719 0.40002 0.3844 0.0
C8169 C 0.05587 0.41172 0.378 0.0
C8170 C 0.05454 0.39328 0.38609 0.0
C8171 C 0.04763 0.39131 0.384 0.0
C8172 C 0.05294 0.4048 0.38049 0.0
C8173 C 0.04343 0.39633 0.38038 0.0
C8174 C 0.05244 0.41567 0.37263 0.0
C8175 C 0.06542 0.42012 0.37817 0.0
N8176 N 0.04618 0.40282 0.37866 0.0
N8177 N 0.06222 0.4141 0.38062 0.0
H8178 H 0.33438 0.30257 0.11608 0.0
H8179 H 0.37067 0.30803 0.13711 0.0
H8180 H 0.33841 0.32079 0.12957 0.0
H8181 H 0.36403 0.28745 0.1293 0.0
H8182 H 0.35876 0.31274 0.13454 0.0
H8183 H 0.34509 0.29681 0.12089 0.0
C8184 C 0.33749 0.30533 0.1201 0.0
C8185 C 0.33552 0.31218 0.12241 0.0
C8186 C 0.35986 0.30716 0.13347 0.0
C8187 C 0.34779 0.30566 0.12789 0.0
C8188 C 0.36665 0.30449 0.13493 0.0
C8189 C 0.3683 0.29736 0.13339 0.0
C8190 C 0.35473 0.30271 0.13031 0.0
C8191 C 0.36293 0.29297 0.13059 0.0
C8192 C 0.34358 0.30203 0.12287 0.0
C8193 C 0.3397 0.31549 0.12767 0.0
N8194 N 0.3564 0.29574 0.12903 0.0
N8195 N 0.34568 0.31223 0.13017 0.0
H8196 H 0.45364 0.59017 0.85793 0.0
H8197 H 0.46613 0.61572 0.88984 0.0
H8198 H 0.44872 0.5859 0.88001 0.0
H8199 H 0.46513 0.62201 0.86775 0.0
H8200 H 0.46214 0.60367 0.88643 0.0
H8201 H 0.46031 0.60073 0.86159 0.0
C8202 C 0.45399 0.59143 0.86356 0.0
C8203 C 0.4505 0.5872 0.86866 0.0
C8204 C 0.46288 0.60767 0.88233 0.0
C8205 C 0.45819 0.59928 0.8729 0.0
C8206 C 0.46518 0.61451 0.88427 0.0
C8207 C 0.46588 0.61983 0.87907 0.0
C8208 C 0.46137 0.60617 0.87514 0.0
C8209 C 0.46457 0.61805 0.87192 0.0
C8210 C 0.45782 0.59745 0.86564 0.0
C8211 C 0.45132 0.589 0.87589 0.0
N8212 N 0.46236 0.61138 0.87017 0.0
N8213 N 0.45502 0.59495 0.8778 0.0
H8214 H 0.17543 0.70641 0.62294 0.0
H8215 H 0.13597 0.70197 0.63875 0.0
H8216 H 0.16597 0.6863 0.62893 0.0
H8217 H 0.14409 0.72194 0.63068 0.0
H8218 H 0.14763 0.69655 0.63675 0.0
H8219 H 0.16471 0.71257 0.6273 0.0
C8220 C 0.17113 0.70331 0.62526 0.0
C8221 C 0.17154 0.69583 0.6255 0.0
C8222 C 0.1469 0.70213 0.63545 0.0
C8223 C 0.1593 0.70282 0.63045 0.0
C8224 C 0.14023 0.70523 0.63658 0.0
C8225 C 0.13903 0.71239 0.63478 0.0
C8226 C 0.15243 0.70621 0.63247 0.0
C8227 C 0.14479 0.7164 0.63214 0.0
C8228 C 0.16501 0.70682 0.62771 0.0
C8229 C 0.16582 0.69206 0.62852 0.0
N8230 N 0.15123 0.71323 0.63099 0.0
N8231 N 0.15993 0.69559 0.63084 0.0
H8232 H 0.05412 0.5865 0.14464 0.0
H8233 H 0.05794 0.62093 0.1203 0.0
H8234 H 0.0701 0.58855 0.1282 0.0
H8235 H 0.03888 0.61641 0.13236 0.0
H8236 H 0.06233 0.60892 0.12291 0.0
H8237 H 0.04826 0.59727 0.1401 0.0
C8238 C 0.05636 0.58918 0.14004 0.0
C8239 C 0.06263 0.58664 0.13681 0.0
C8240 C 0.05714 0.61051 0.12491 0.0
C8241 C 0.05599 0.59898 0.13162 0.0
C8242 C 0.05465 0.61736 0.12343 0.0
C8243 C 0.04807 0.61965 0.12614 0.0
C8244 C 0.05307 0.60595 0.12924 0.0
C8245 C 0.04398 0.61482 0.13014 0.0
C8246 C 0.053 0.59531 0.13743 0.0
C8247 C 0.06526 0.59029 0.13082 0.0
N8248 N 0.04659 0.60822 0.13166 0.0
N8249 N 0.06198 0.59631 0.12848 0.0
H8250 H 0.16928 0.30989 0.90304 0.0
H8251 H 0.14589 0.29555 0.87027 0.0
H8252 H 0.17565 0.3126 0.88108 0.0
H8253 H 0.13795 0.29823 0.89169 0.0
H8254 H 0.15763 0.29989 0.87424 0.0
H8255 H 0.15858 0.30366 0.89904 0.0
C8256 C 0.16844 0.30917 0.89737 0.0
C8257 C 0.17332 0.31188 0.89238 0.0
C8258 C 0.15332 0.29948 0.87807 0.0
C8259 C 0.16108 0.30467 0.88777 0.0
C8260 C 0.14665 0.29698 0.87581 0.0
C8261 C 0.14095 0.29661 0.88065 0.0
C8262 C 0.15428 0.30152 0.88522 0.0
C8263 C 0.14218 0.29854 0.88777 0.0
C8264 C 0.16233 0.30559 0.89509 0.0
C8265 C 0.17203 0.3106 0.88511 0.0
N8266 N 0.1487 0.30092 0.88983 0.0
N8267 N 0.166 0.30713 0.88301 0.0
H8268 H 0.44964 0.41785 0.65234 0.0
H8269 H 0.46784 0.39494 0.62123 0.0
H8270 H 0.45365 0.42632 0.63129 0.0
H8271 H 0.46254 0.38682 0.64209 0.0
H8272 H 0.46406 0.4069 0.62511 0.0
H8273 H 0.45578 0.40694 0.64899 0.0
C8274 C 0.45191 0.41748 0.64704 0.0
C8275 C 0.4511 0.42305 0.64209 0.0
C8276 C 0.46379 0.4025 0.62885 0.0
C8277 C 0.45803 0.41039 0.63815 0.0
C8278 C 0.46597 0.3957 0.62665 0.0
C8279 C 0.4654 0.38988 0.63132 0.0
C8280 C 0.46107 0.40346 0.63577 0.0
C8281 C 0.46294 0.39114 0.63827 0.0
C8282 C 0.45537 0.41119 0.64511 0.0
C8283 C 0.45405 0.42214 0.63525 0.0
N8284 N 0.46082 0.39777 0.64027 0.0
N8285 N 0.45734 0.41591 0.63347 0.0
H8286 H 0.34398 0.68597 0.3817 0.0
H8287 H 0.36598 0.72245 0.37959 0.0
H8288 H 0.33537 0.70615 0.38868 0.0
H8289 H 0.37387 0.70203 0.37248 0.0
H8290 H 0.35425 0.717 0.38173 0.0
H8291 H 0.35448 0.69213 0.37714 0.0
C8292 C 0.3443 0.69172 0.38225 0.0
C8293 C 0.33885 0.69555 0.38566 0.0
C8294 C 0.35853 0.71374 0.37963 0.0
C8295 C 0.35089 0.70267 0.38045 0.0
C8296 C 0.36521 0.71685 0.37837 0.0
C8297 C 0.37092 0.71265 0.37594 0.0
C8298 C 0.35759 0.70639 0.37843 0.0
C8299 C 0.36965 0.70542 0.37448 0.0
C8300 C 0.35029 0.69524 0.37962 0.0
C8301 C 0.33947 0.703 0.38609 0.0
N8302 N 0.36315 0.70252 0.3758 0.0
N8303 N 0.34543 0.70632 0.38359 0.0
H8304 H 0.36997 0.05403 0.42577 0.0
H8305 H 0.38851 0.05837 0.38752 0.0
H8306 H 0.37612 0.07412 0.4164 0.0
H8307 H 0.37894 0.03865 0.39451 0.0
H8308 H 0.38577 0.06369 0.39906 0.0
H8309 H 0.37488 0.04782 0.4153 0.0
C8310 C 0.37242 0.05711 0.42155 0.0
C8311 C 0.37257 0.06459 0.42189 0.0
C8312 C 0.3843 0.05818 0.39811 0.0
C8313 C 0.37819 0.05757 0.40998 0.0
C8314 C 0.38586 0.05515 0.39151 0.0
C8315 C 0.38384 0.0481 0.39002 0.0
C8316 C 0.38067 0.05416 0.40328 0.0
C8317 C 0.38057 0.04411 0.39545 0.0
C8318 C 0.37519 0.05358 0.41558 0.0
C8319 C 0.37578 0.06835 0.41628 0.0
N8320 N 0.37901 0.04722 0.40183 0.0
N8321 N 0.37844 0.06481 0.41056 0.0
H8322 H 0.85774 0.45158 0.59177 0.0
H8323 H 0.89067 0.46599 0.61489 0.0
H8324 H 0.87969 0.44855 0.58548 0.0
H8325 H 0.86933 0.46322 0.62301 0.0
H8326 H 0.88658 0.46178 0.60315 0.0
H8327 H 0.86178 0.45805 0.6023 0.0
C8328 C 0.86341 0.45229 0.59259 0.0
C8329 C 0.86838 0.4494 0.58778 0.0
C8330 C 0.88279 0.46215 0.60749 0.0
C8331 C 0.87305 0.4569 0.59983 0.0
C8332 C 0.88511 0.46459 0.61416 0.0
C8333 C 0.88033 0.46488 0.61991 0.0
C8334 C 0.87563 0.4601 0.60658 0.0
C8335 C 0.87319 0.46298 0.61872 0.0
C8336 C 0.86572 0.45601 0.5986 0.0
C8337 C 0.87567 0.45068 0.58903 0.0
N8338 N 0.87107 0.46066 0.61221 0.0
N8339 N 0.87779 0.45429 0.59497 0.0
H8340 H 0.30752 0.1288 0.33246 0.0
H8341 H 0.29918 0.11918 0.37324 0.0
H8342 H 0.31415 0.10937 0.34294 0.0
H8343 H 0.29422 0.13967 0.36398 0.0
H8344 H 0.30354 0.11512 0.36169 0.0
H8345 H 0.30159 0.13253 0.3435 0.0
C8346 C 0.30771 0.1253 0.33706 0.0
C8347 C 0.31136 0.11875 0.33675 0.0
C8348 C 0.30148 0.1205 0.36215 0.0
C8349 C 0.30453 0.12297 0.34937 0.0
C8350 C 0.29901 0.12283 0.36876 0.0
C8351 C 0.29643 0.12981 0.3696 0.0
C8352 C 0.30139 0.12517 0.3563 0.0
C8353 C 0.29618 0.13425 0.36356 0.0
C8354 C 0.3043 0.12743 0.34335 0.0
C8355 C 0.31133 0.11441 0.34285 0.0
N8356 N 0.29869 0.13187 0.35717 0.0
N8357 N 0.30801 0.11661 0.3489 0.0
H8358 H 0.63878 0.5541 0.08477 0.0
H8359 H 0.62174 0.55949 0.12359 0.0
H8360 H 0.6346 0.57451 0.09455 0.0
H8361 H 0.62906 0.53906 0.11591 0.0
H8362 H 0.6246 0.56474 0.11204 0.0
H8363 H 0.63354 0.54819 0.09524 0.0
C8364 C 0.63669 0.55733 0.08909 0.0
C8365 C 0.6372 0.5648 0.08885 0.0
C8366 C 0.62554 0.55909 0.11285 0.0
C8367 C 0.6312 0.55812 0.10077 0.0
C8368 C 0.62391 0.5561 0.11944 0.0
C8369 C 0.62527 0.54886 0.12074 0.0
C8370 C 0.62859 0.55483 0.10748 0.0
C8371 C 0.62795 0.54467 0.11513 0.0
C8372 C 0.63373 0.55396 0.09506 0.0
C8373 C 0.63443 0.56874 0.09458 0.0
N8374 N 0.6296 0.54774 0.10876 0.0
N8375 N 0.63158 0.56536 0.1003 0.0
H8376 H 0.69913 0.38084 0.33511 0.0
H8377 H 0.71536 0.39298 0.37236 0.0
H8378 H 0.70302 0.40282 0.34079 0.0
H8379 H 0.71618 0.37117 0.36512 0.0
H8380 H 0.71118 0.39664 0.36059 0.0
H8381 H 0.70579 0.37708 0.3457 0.0
C8382 C 0.70148 0.38487 0.33852 0.0
C8383 C 0.70042 0.39216 0.3371 0.0
C8384 C 0.71233 0.39106 0.36152 0.0
C8385 C 0.70795 0.3879 0.34929 0.0
C8386 C 0.71469 0.38897 0.36825 0.0
C8387 C 0.71605 0.38177 0.36971 0.0
C8388 C 0.71121 0.38588 0.35622 0.0
C8389 C 0.71519 0.37678 0.36419 0.0
C8390 C 0.70525 0.38272 0.34458 0.0
C8391 C 0.70354 0.39715 0.34175 0.0
N8392 N 0.71273 0.37892 0.3577 0.0
N8393 N 0.70709 0.39492 0.34766 0.0
H8394 H 0.13082 0.94931 0.925 0.0
H8395 H 0.14227 0.96491 0.88737 0.0
H8396 H 0.15269 0.9537 0.91923 0.0
H8397 H 0.12058 0.96585 0.89496 0.0
H8398 H 0.14616 0.96114 0.89922 0.0
H8399 H 0.12687 0.95577 0.91438 0.0
C8400 C 0.13479 0.95173 0.92158 0.0
C8401 C 0.14211 0.95087 0.92298 0.0
C8402 C 0.14056 0.96224 0.89834 0.0
C8403 C 0.13761 0.95816 0.91073 0.0
C8404 C 0.13834 0.96438 0.89158 0.0
C8405 C 0.1311 0.96564 0.89021 0.0
C8406 C 0.13548 0.96125 0.90376 0.0
C8407 C 0.12622 0.96493 0.89583 0.0
C8408 C 0.13253 0.95539 0.91549 0.0
C8409 C 0.147 0.95407 0.91829 0.0
N8410 N 0.12848 0.96268 0.90236 0.0
N8411 N 0.14467 0.95749 0.91235 0.0
H8412 H 0.30578 0.88783 0.1757 0.0
H8413 H 0.30861 0.86966 0.13719 0.0
H8414 H 0.32506 0.87875 0.16698 0.0
H8415 H 0.28968 0.88038 0.14473 0.0
H8416 H 0.31406 0.87127 0.1489 0.0
H8417 H 0.29919 0.8835 0.16526 0.0
C8418 C 0.3086 0.88483 0.17165 0.0
C8419 C 0.31599 0.88372 0.17216 0.0
C8420 C 0.30869 0.87321 0.14804 0.0
C8421 C 0.30851 0.8788 0.16021 0.0
C8422 C 0.30558 0.8723 0.14135 0.0
C8423 C 0.29872 0.87497 0.13996 0.0
C8424 C 0.30494 0.87687 0.1534 0.0
C8425 C 0.29498 0.87823 0.14557 0.0
C8426 C 0.30484 0.8824 0.16567 0.0
C8427 C 0.31939 0.87984 0.16673 0.0
N8428 N 0.29818 0.87918 0.15203 0.0
N8429 N 0.31563 0.87757 0.16097 0.0
H8430 H 0.19968 0.13049 0.67558 0.0
H8431 H 0.2151 0.11914 0.63779 0.0
H8432 H 0.20312 0.1086 0.66926 0.0
H8433 H 0.21651 0.1407 0.64568 0.0
H8434 H 0.21114 0.11519 0.64955 0.0
H8435 H 0.20635 0.13441 0.66506 0.0
C8436 C 0.20193 0.1265 0.67205 0.0
C8437 C 0.20074 0.1192 0.67326 0.0
C8438 C 0.21239 0.12078 0.64876 0.0
C8439 C 0.20827 0.12366 0.66116 0.0
C8440 C 0.21462 0.12303 0.64204 0.0
C8441 C 0.21607 0.13025 0.64078 0.0
C8442 C 0.21147 0.12581 0.65424 0.0
C8443 C 0.21545 0.13508 0.64647 0.0
C8444 C 0.20571 0.12875 0.66603 0.0
C8445 C 0.20375 0.11429 0.66846 0.0
N8446 N 0.21309 0.13278 0.65294 0.0
N8447 N 0.2073 0.1166 0.6626 0.0
H8448 H 0.09171 0.17944 0.39079 0.0
H8449 H 0.10934 0.21803 0.38583 0.0
H8450 H 0.09042 0.19601 0.40673 0.0
H8451 H 0.11587 0.19936 0.37408 0.0
H8452 H 0.10036 0.2108 0.39206 0.0
H8453 H 0.09853 0.18751 0.38315 0.0
C8454 C 0.09277 0.18482 0.39263 0.0
C8455 C 0.09053 0.18705 0.39942 0.0
C8456 C 0.10372 0.20831 0.38807 0.0
C8457 C 0.09838 0.19628 0.39072 0.0
C8458 C 0.10879 0.21244 0.38449 0.0
C8459 C 0.11336 0.20926 0.37949 0.0
C8460 C 0.10317 0.20099 0.38656 0.0
C8461 C 0.11249 0.20198 0.37796 0.0
C8462 C 0.09671 0.1894 0.38829 0.0
C8463 C 0.09213 0.19405 0.40157 0.0
N8464 N 0.10751 0.19809 0.3815 0.0
N8465 N 0.09598 0.19842 0.39724 0.0
H8466 H 0.06893 0.83454 0.64582 0.0
H8467 H 0.04868 0.8721 0.644 0.0
H8468 H 0.06932 0.85044 0.66249 0.0
H8469 H 0.04828 0.85687 0.62676 0.0
H8470 H 0.05536 0.86361 0.65123 0.0
H8471 H 0.06063 0.84206 0.63908 0.0
C8472 C 0.06726 0.83959 0.64808 0.0
C8473 C 0.06985 0.84185 0.65475 0.0
C8474 C 0.05379 0.86208 0.64588 0.0
C8475 C 0.06032 0.85045 0.64707 0.0
C8476 C 0.04999 0.86694 0.64175 0.0
C8477 C 0.04801 0.86521 0.63475 0.0
C8478 C 0.05569 0.85543 0.64299 0.0
C8479 C 0.04972 0.8584 0.63214 0.0
C8480 C 0.06249 0.84386 0.64424 0.0
C8481 C 0.06741 0.84841 0.65744 0.0
N8482 N 0.05353 0.85377 0.63624 0.0
N8483 N 0.06283 0.85247 0.65358 0.0
H8484 H 0.41643 0.83267 0.89187 0.0
H8485 H 0.4012 0.79324 0.88558 0.0
H8486 H 0.4207 0.81504 0.90603 0.0
H8487 H 0.393 0.81195 0.87498 0.0
H8488 H 0.40998 0.80074 0.89173 0.0
H8489 H 0.40944 0.8247 0.88426 0.0
C8490 C 0.41598 0.8271 0.89332 0.0
C8491 C 0.41912 0.82452 0.89961 0.0
C8492 C 0.40629 0.80319 0.88802 0.0
C8493 C 0.41108 0.81539 0.89096 0.0
C8494 C 0.40132 0.79891 0.88447 0.0
C8495 C 0.39635 0.802 0.8798 0.0
C8496 C 0.40632 0.81059 0.88684 0.0
C8497 C 0.39669 0.80938 0.87861 0.0
C8498 C 0.41195 0.82257 0.88901 0.0
C8499 C 0.41828 0.81726 0.90128 0.0
N8500 N 0.40157 0.81343 0.88212 0.0
N8501 N 0.41433 0.81295 0.89699 0.0
H8502 H 0.44656 0.1731 0.15353 0.0
H8503 H 0.44925 0.14215 0.12475 0.0
H8504 H 0.429 0.16703 0.13992 0.0
H8505 H 0.46787 0.15221 0.13377 0.0
H8506 H 0.44177 0.15141 0.13012 0.0
H8507 H 0.45454 0.16567 0.14631 0.0
C8508 C 0.4444 0.17024 0.14899 0.0
C8509 C 0.4371 0.17065 0.14734 0.0
C8510 C 0.4475 0.15166 0.13086 0.0
C8511 C 0.44618 0.16213 0.13909 0.0
C8512 C 0.45175 0.14637 0.12781 0.0
C8513 C 0.45916 0.14642 0.12885 0.0
C8514 C 0.45066 0.15697 0.1351 0.0
C8515 C 0.46217 0.15201 0.13282 0.0
C8516 C 0.44896 0.16604 0.14485 0.0
C8517 C 0.4346 0.16691 0.14136 0.0
N8518 N 0.45789 0.15702 0.13589 0.0
N8519 N 0.43911 0.16274 0.13751 0.0
H8520 H 0.08826 0.81367 0.10423 0.0
H8521 H 0.11779 0.81084 0.13439 0.0
H8522 H 0.09329 0.83102 0.11849 0.0
H8523 H 0.10827 0.79225 0.12476 0.0
H8524 H 0.10871 0.81831 0.12871 0.0
H8525 H 0.09542 0.80565 0.11168 0.0
C8526 C 0.09083 0.81577 0.10895 0.0
C8527 C 0.09021 0.82302 0.11072 0.0
C8528 C 0.10853 0.81259 0.12791 0.0
C8529 C 0.09843 0.81392 0.11924 0.0
C8530 C 0.11372 0.80834 0.13114 0.0
C8531 C 0.11377 0.80095 0.13001 0.0
C8532 C 0.10344 0.80943 0.12341 0.0
C8533 C 0.10838 0.79794 0.12577 0.0
C8534 C 0.09488 0.81119 0.11322 0.0
C8535 C 0.09359 0.82546 0.11695 0.0
N8536 N 0.10348 0.80221 0.12254 0.0
N8537 N 0.09762 0.82094 0.12093 0.0
H8538 H 0.42484 0.8479 0.37032 0.0
H8539 H 0.46615 0.85687 0.3765 0.0
H8540 H 0.44192 0.83706 0.3593 0.0
H8541 H 0.44871 0.86935 0.38486 0.0
H8542 H 0.45751 0.84816 0.37188 0.0
H8543 H 0.43366 0.85441 0.37733 0.0
C8544 C 0.43046 0.84687 0.3694 0.0
C8545 C 0.43265 0.84201 0.36413 0.0
C8546 C 0.45558 0.85276 0.3748 0.0
C8547 C 0.4428 0.84944 0.37218 0.0
C8548 C 0.46051 0.8577 0.37747 0.0
C8549 C 0.45812 0.86386 0.38099 0.0
C8550 C 0.44824 0.854 0.3757 0.0
C8551 C 0.45076 0.86471 0.38208 0.0
C8552 C 0.43549 0.85057 0.37342 0.0
C8553 C 0.43999 0.84076 0.3633 0.0
N8554 N 0.44609 0.85988 0.3794 0.0
N8555 N 0.44482 0.84452 0.36722 0.0
H8556 H 0.41833 0.17869 0.62012 0.0
H8557 H 0.40108 0.2175 0.62486 0.0
H8558 H 0.42068 0.19549 0.60456 0.0
H8559 H 0.39406 0.19886 0.63639 0.0
H8560 H 0.41007 0.21017 0.61878 0.0
H8561 H 0.41124 0.18674 0.62755 0.0
C8562 C 0.41744 0.18411 0.61832 0.0
C8563 C 0.42007 0.18641 0.6117 0.0
C8564 C 0.4066 0.2077 0.62268 0.0
C8565 C 0.41191 0.19563 0.62014 0.0
C8566 C 0.40151 0.21188 0.62618 0.0
C8567 C 0.3968 0.20875 0.63109 0.0
C8568 C 0.40702 0.20037 0.62417 0.0
C8569 C 0.39754 0.20146 0.63257 0.0
C8570 C 0.41335 0.18868 0.62253 0.0
C8571 C 0.41868 0.19347 0.60959 0.0
N8572 N 0.40254 0.19751 0.62912 0.0
N8573 N 0.41468 0.19783 0.61379 0.0
H8574 H 0.06953 0.16186 0.8485 0.0
H8575 H 0.04945 0.15346 0.88526 0.0
H8576 H 0.07072 0.17575 0.86684 0.0
H8577 H 0.05043 0.13908 0.86731 0.0
H8578 H 0.05605 0.16238 0.87827 0.0
H8579 H 0.0613 0.1542 0.85496 0.0
C8580 C 0.06798 0.16337 0.85386 0.0
C8581 C 0.07084 0.16948 0.85712 0.0
C8582 C 0.05478 0.15729 0.87586 0.0
C8583 C 0.06148 0.16059 0.86465 0.0
C8584 C 0.05099 0.15222 0.87983 0.0
C8585 C 0.04948 0.1455 0.87688 0.0
C8586 C 0.057 0.15562 0.86889 0.0
C8587 C 0.0516 0.14415 0.86983 0.0
C8588 C 0.06332 0.15894 0.85758 0.0
C8589 C 0.06872 0.17105 0.86414 0.0
N8590 N 0.05527 0.14914 0.8661 0.0
N8591 N 0.0642 0.16661 0.86769 0.0
H8592 H 0.40534 0.08928 0.19649 0.0
H8593 H 0.37372 0.11754 0.19852 0.0
H8594 H 0.39084 0.0933 0.17907 0.0
H8595 H 0.38512 0.11022 0.21711 0.0
H8596 H 0.37967 0.10837 0.1914 0.0
H8597 H 0.39781 0.0966 0.20426 0.0
C8598 C 0.40055 0.09166 0.19432 0.0
C8599 C 0.39874 0.09071 0.18712 0.0
C8600 C 0.38082 0.1087 0.19705 0.0
C8601 C 0.39012 0.09911 0.19596 0.0
C8602 C 0.37744 0.11395 0.20111 0.0
C8603 C 0.37897 0.11466 0.20839 0.0
C8604 C 0.38585 0.10419 0.20029 0.0
C8605 C 0.38377 0.10983 0.21151 0.0
C8606 C 0.39623 0.09581 0.19876 0.0
C8607 C 0.39242 0.09385 0.1846 0.0
N8608 N 0.38711 0.10485 0.20742 0.0
N8609 N 0.38838 0.09798 0.18899 0.0
H8610 H 0.1689 0.1398 0.42945 0.0
H8611 H 0.15167 0.13508 0.46825 0.0
H8612 H 0.17137 0.15525 0.44634 0.0
H8613 H 0.14477 0.12342 0.44964 0.0
H8614 H 0.16076 0.14105 0.46097 0.0
H8615 H 0.16193 0.13229 0.43751 0.0
C8616 C 0.16807 0.14156 0.43489 0.0
C8617 C 0.17068 0.14818 0.43722 0.0
C8618 C 0.1573 0.13713 0.4585 0.0
C8619 C 0.16265 0.13964 0.44645 0.0
C8620 C 0.15215 0.1337 0.46266 0.0
C8621 C 0.14744 0.1288 0.45951 0.0
C8622 C 0.15777 0.1356 0.45118 0.0
C8623 C 0.14825 0.12724 0.45224 0.0
C8624 C 0.16405 0.13729 0.43947 0.0
C8625 C 0.16937 0.15022 0.44431 0.0
N8626 N 0.1533 0.13064 0.44831 0.0
N8627 N 0.16542 0.14598 0.44867 0.0
H8628 H 0.12007 0.91765 0.67816 0.0
H8629 H 0.12602 0.90353 0.71802 0.0
H8630 H 0.10581 0.92263 0.69554 0.0
H8631 H 0.13525 0.89363 0.69942 0.0
H8632 H 0.12042 0.91252 0.7103 0.0
H8633 H 0.12752 0.9108 0.6864 0.0
C8634 C 0.11856 0.91739 0.68374 0.0
C8635 C 0.11229 0.92067 0.68616 0.0
C8636 C 0.12374 0.90842 0.70793 0.0
C8637 C 0.12076 0.91281 0.6956 0.0
C8638 C 0.12696 0.90334 0.71233 0.0
C8639 C 0.13105 0.89783 0.70933 0.0
C8640 C 0.12469 0.90802 0.7005 0.0
C8641 C 0.13208 0.89777 0.70192 0.0
C8642 C 0.12279 0.91345 0.68842 0.0
C8643 C 0.11056 0.9201 0.69343 0.0
N8644 N 0.1289 0.90277 0.69775 0.0
N8645 N 0.11476 0.91622 0.69789 0.0
H8646 H 0.34352 0.86909 0.92851 0.0
H8647 H 0.35757 0.87476 0.96844 0.0
H8648 H 0.33884 0.85446 0.94564 0.0
H8649 H 0.36755 0.88409 0.94994 0.0
H8650 H 0.34868 0.86912 0.96062 0.0
H8651 H 0.35035 0.87647 0.93684 0.0
C8652 C 0.34384 0.86749 0.93405 0.0
C8653 C 0.34065 0.86114 0.93638 0.0
C8654 C 0.35277 0.87247 0.9583 0.0
C8655 C 0.34847 0.86953 0.94592 0.0
C8656 C 0.3578 0.87572 0.96275 0.0
C8657 C 0.36329 0.87985 0.9598 0.0
C8658 C 0.35322 0.87345 0.95088 0.0
C8659 C 0.36341 0.88089 0.9524 0.0
C8660 C 0.34777 0.87167 0.93879 0.0
C8661 C 0.3413 0.85928 0.94361 0.0
N8662 N 0.35846 0.87769 0.94818 0.0
N8663 N 0.34516 0.86344 0.94813 0.0
H8664 H 0.40746 0.92119 0.31265 0.0
H8665 H 0.3748 0.89409 0.31049 0.0
H8666 H 0.39282 0.9176 0.33004 0.0
H8667 H 0.3864 0.9011 0.29191 0.0
H8668 H 0.38122 0.90287 0.31768 0.0
H8669 H 0.39976 0.91405 0.30487 0.0
C8670 C 0.40261 0.91893 0.31482 0.0
C8671 C 0.4008 0.91996 0.32201 0.0
C8672 C 0.38232 0.90255 0.31202 0.0
C8673 C 0.39197 0.91178 0.31316 0.0
C8674 C 0.37868 0.89752 0.30793 0.0
C8675 C 0.38011 0.89685 0.30062 0.0
C8676 C 0.38752 0.90688 0.30881 0.0
C8677 C 0.38513 0.90148 0.29753 0.0
C8678 C 0.39819 0.91489 0.31037 0.0
C8679 C 0.3944 0.91699 0.32452 0.0
N8680 N 0.38872 0.90625 0.30166 0.0
N8681 N 0.39026 0.91297 0.32012 0.0
H8682 H 0.33746 0.15181 0.56633 0.0
H8683 H 0.36803 0.12227 0.56256 0.0
H8684 H 0.34732 0.14097 0.58407 0.0
H8685 H 0.35902 0.13343 0.54457 0.0
H8686 H 0.3593 0.128 0.57034 0.0
H8687 H 0.3441 0.14409 0.55812 0.0
C8688 C 0.34094 0.14775 0.5685 0.0
C8689 C 0.34191 0.14709 0.57589 0.0
C8690 C 0.35918 0.12916 0.56469 0.0
C8691 C 0.34955 0.13829 0.56655 0.0
C8692 C 0.36417 0.1259 0.56025 0.0
C8693 C 0.3643 0.12745 0.55293 0.0
C8694 C 0.3543 0.13407 0.56181 0.0
C8695 C 0.3591 0.13209 0.55019 0.0
C8696 C 0.34476 0.14337 0.56381 0.0
C8697 C 0.34652 0.14176 0.57841 0.0
N8698 N 0.35435 0.13531 0.55464 0.0
N8699 N 0.3502 0.1376 0.57375 0.0
H8700 H 0.11996 0.09299 0.83146 0.0
H8701 H 0.12544 0.10795 0.79184 0.0
H8702 H 0.10579 0.08789 0.81405 0.0
H8703 H 0.13451 0.1177 0.8106 0.0
H8704 H 0.12 0.09874 0.79942 0.0
H8705 H 0.12715 0.10021 0.82333 0.0
C8706 C 0.11843 0.0933 0.8259 0.0
C8707 C 0.11224 0.08987 0.82343 0.0
C8708 C 0.12325 0.10286 0.80186 0.0
C8709 C 0.12042 0.09817 0.81412 0.0
C8710 C 0.12638 0.10807 0.79754 0.0
C8711 C 0.13038 0.11359 0.80062 0.0
C8712 C 0.12421 0.10315 0.80929 0.0
C8713 C 0.1314 0.11356 0.80803 0.0
C8714 C 0.1225 0.09746 0.82128 0.0
C8715 C 0.11046 0.09053 0.81618 0.0
N8716 N 0.12832 0.10843 0.81212 0.0
N8717 N 0.11452 0.09462 0.81178 0.0
H8718 H 0.16699 0.86813 0.08177 0.0
H8719 H 0.15136 0.87333 0.04236 0.0
H8720 H 0.17077 0.85328 0.06459 0.0
H8721 H 0.14328 0.88438 0.06085 0.0
H8722 H 0.16022 0.86739 0.04994 0.0
H8723 H 0.16 0.87556 0.07364 0.0
C8724 C 0.16643 0.86648 0.07626 0.0
C8725 C 0.16943 0.86005 0.07386 0.0
C8726 C 0.15655 0.87117 0.05232 0.0
C8727 C 0.1614 0.86851 0.06455 0.0
C8728 C 0.15153 0.87459 0.04799 0.0
C8729 C 0.14656 0.87931 0.051 0.0
C8730 C 0.15662 0.87253 0.05969 0.0
C8731 C 0.14697 0.88071 0.05835 0.0
C8732 C 0.1624 0.8707 0.07164 0.0
C8733 C 0.16847 0.85814 0.06668 0.0
N8734 N 0.15189 0.87731 0.06244 0.0
N8735 N 0.16452 0.86235 0.06228 0.0
H8736 H 0.18766 0.39232 0.08621 0.0
H8737 H 0.21457 0.39595 0.11911 0.0
H8738 H 0.19257 0.41218 0.0968 0.0
H8739 H 0.2107 0.37605 0.1082 0.0
H8740 H 0.20719 0.40208 0.11032 0.0
H8741 H 0.19663 0.38634 0.09359 0.0
C8742 C 0.19064 0.39543 0.09006 0.0
C8743 C 0.18933 0.40277 0.0909 0.0
C8744 C 0.20798 0.39639 0.1098 0.0
C8745 C 0.19963 0.39596 0.09934 0.0
C8746 C 0.21218 0.39288 0.11483 0.0
C8747 C 0.21318 0.38547 0.11442 0.0
C8748 C 0.20469 0.39246 0.10433 0.0
C8749 C 0.21007 0.38177 0.1087 0.0
C8750 C 0.19579 0.39202 0.09425 0.0
C8751 C 0.19344 0.40654 0.0959 0.0
N8752 N 0.20589 0.3853 0.10391 0.0
N8753 N 0.19835 0.40309 0.09995 0.0
H8754 H 0.69757 0.10664 0.92202 0.0
H8755 H 0.69949 0.13487 0.89046 0.0
H8756 H 0.67943 0.11898 0.91502 0.0
H8757 H 0.71829 0.12695 0.9011 0.0
H8758 H 0.69207 0.1292 0.89957 0.0
H8759 H 0.70533 0.11406 0.91456 0.0
C8760 C 0.69523 0.11095 0.91895 0.0
C8761 C 0.68784 0.11218 0.9191 0.0
C8762 C 0.69782 0.12876 0.89997 0.0
C8763 C 0.69666 0.12066 0.91056 0.0
C8764 C 0.70205 0.13197 0.89477 0.0
C8765 C 0.7095 0.13133 0.89503 0.0
C8766 C 0.70106 0.12477 0.90542 0.0
C8767 C 0.71256 0.12758 0.90074 0.0
C8768 C 0.69966 0.1152 0.91473 0.0
C8769 C 0.6851 0.11787 0.91509 0.0
N8770 N 0.70832 0.12436 0.90567 0.0
N8771 N 0.6895 0.12185 0.91092 0.0
H8772 H 0.14059 0.42586 0.16329 0.0
H8773 H 0.13414 0.46638 0.15171 0.0
H8774 H 0.15205 0.44359 0.17247 0.0
H8775 H 0.12277 0.44843 0.14285 0.0
H8776 H 0.13973 0.45837 0.1604 0.0
H8777 H 0.13309 0.43424 0.15674 0.0
C8778 C 0.14151 0.43152 0.16395 0.0
C8779 C 0.147 0.43403 0.16837 0.0
C8780 C 0.13596 0.4562 0.1566 0.0
C8781 C 0.13843 0.44368 0.16087 0.0
C8782 C 0.13273 0.46078 0.15167 0.0
C8783 C 0.12805 0.45805 0.1465 0.0
C8784 C 0.13449 0.44885 0.15634 0.0
C8785 C 0.12645 0.45074 0.14666 0.0
C8786 C 0.13721 0.43632 0.16023 0.0
C8787 C 0.14786 0.44143 0.16913 0.0
N8788 N 0.12971 0.44639 0.15145 0.0
N8789 N 0.14367 0.446 0.16535 0.0
H8790 H 0.81703 0.90062 0.42392 0.0
H8791 H 0.81184 0.87456 0.39068 0.0
H8792 H 0.83432 0.8902 0.41283 0.0
H8793 H 0.7942 0.88349 0.40244 0.0
H8794 H 0.82007 0.87928 0.3996 0.0
H8795 H 0.80851 0.89348 0.41705 0.0
C8796 C 0.81904 0.89676 0.42012 0.0
C8797 C 0.8264 0.89608 0.41887 0.0
C8798 C 0.8144 0.88016 0.4003 0.0
C8799 C 0.81669 0.88795 0.41095 0.0
C8800 C 0.80971 0.87746 0.3952 0.0
C8801 C 0.80235 0.8787 0.3958 0.0
C8802 C 0.81173 0.88421 0.40602 0.0
C8803 C 0.79984 0.88242 0.4018 0.0
C8804 C 0.81417 0.8927 0.41617 0.0
C8805 C 0.82869 0.89102 0.41385 0.0
N8806 N 0.80454 0.88514 0.40663 0.0
N8807 N 0.82386 0.8872 0.41004 0.0
H8808 H 0.86819 0.08437 0.16272 0.0
H8809 H 0.87708 0.04362 0.15359 0.0
H8810 H 0.8592 0.06659 0.17425 0.0
H8811 H 0.88454 0.0616 0.14134 0.0
H8812 H 0.87194 0.0519 0.16233 0.0
H8813 H 0.87557 0.07608 0.15593 0.0
C8814 C 0.86779 0.07871 0.16384 0.0
C8815 C 0.86299 0.07616 0.16899 0.0
C8816 C 0.87477 0.05403 0.15777 0.0
C8817 C 0.87146 0.06661 0.16123 0.0
C8818 C 0.87774 0.04931 0.15281 0.0
C8819 C 0.88117 0.05194 0.1467 0.0
C8820 C 0.87526 0.06142 0.1566 0.0
C8821 C 0.88183 0.05935 0.14591 0.0
C8822 C 0.87203 0.07398 0.15998 0.0
C8823 C 0.86282 0.06879 0.17033 0.0
N8824 N 0.87886 0.06383 0.15077 0.0
N8825 N 0.86694 0.06426 0.16641 0.0
H8826 H 0.32484 0.61733 0.5862 0.0
H8827 H 0.29899 0.61685 0.61977 0.0
H8828 H 0.31843 0.59808 0.59708 0.0
H8829 H 0.30137 0.63536 0.60634 0.0
H8830 H 0.30569 0.60981 0.6111 0.0
H8831 H 0.31585 0.62397 0.59296 0.0
C8832 C 0.32148 0.61448 0.58992 0.0
C8833 C 0.32248 0.60715 0.59115 0.0
C8834 C 0.30469 0.61539 0.60999 0.0
C8835 C 0.31225 0.61473 0.59897 0.0
C8836 C 0.30088 0.61941 0.61495 0.0
C8837 C 0.29969 0.62669 0.61378 0.0
C8838 C 0.30743 0.6187 0.60385 0.0
C8839 C 0.30218 0.62975 0.60742 0.0
C8840 C 0.31636 0.61828 0.5938 0.0
C8841 C 0.31798 0.60375 0.59608 0.0
N8842 N 0.30604 0.62576 0.60273 0.0
N8843 N 0.31313 0.60758 0.59986 0.0
H8844 H 0.14224 0.58146 0.34335 0.0
H8845 H 0.13533 0.54188 0.35787 0.0
H8846 H 0.15601 0.56368 0.33841 0.0
H8847 H 0.12654 0.56081 0.36758 0.0
H8848 H 0.14123 0.5494 0.34891 0.0
H8849 H 0.13472 0.5735 0.35043 0.0
C8850 C 0.14362 0.57586 0.34367 0.0
C8851 C 0.14978 0.57323 0.34032 0.0
C8852 C 0.13796 0.55189 0.35296 0.0
C8853 C 0.14122 0.56411 0.34845 0.0
C8854 C 0.13456 0.54761 0.35804 0.0
C8855 C 0.13049 0.55075 0.36348 0.0
C8856 C 0.1372 0.55934 0.3533 0.0
C8857 C 0.1297 0.5582 0.3635 0.0
C8858 C 0.13935 0.57133 0.34775 0.0
C8859 C 0.15136 0.56593 0.34098 0.0
N8860 N 0.13304 0.56224 0.35851 0.0
N8861 N 0.14712 0.56162 0.34499 0.0
H8862 H 0.35723 0.44699 0.83733 0.0
H8863 H 0.38669 0.4492 0.86767 0.0
H8864 H 0.37044 0.42913 0.84339 0.0
H8865 H 0.37718 0.46788 0.8582 0.0
H8866 H 0.38127 0.44185 0.85835 0.0
H8867 H 0.36483 0.45486 0.84448 0.0
C8868 C 0.36177 0.44474 0.84012 0.0
C8869 C 0.36318 0.43739 0.83981 0.0
C8870 C 0.38045 0.44757 0.85824 0.0
C8871 C 0.37187 0.44634 0.84802 0.0
C8872 C 0.38353 0.45175 0.86356 0.0
C8873 C 0.38234 0.45914 0.86371 0.0
C8874 C 0.37603 0.45077 0.8531 0.0
C8875 C 0.37824 0.4622 0.85825 0.0
C8876 C 0.36612 0.44923 0.84417 0.0
C8877 C 0.36918 0.43477 0.84345 0.0
N8878 N 0.37514 0.45799 0.85321 0.0
N8879 N 0.37325 0.43922 0.84748 0.0
H8880 H 0.9174 0.83104 0.61753 0.0
H8881 H 0.90025 0.79232 0.62326 0.0
H8882 H 0.92061 0.8135 0.60295 0.0
H8883 H 0.89319 0.81124 0.63431 0.0
H8884 H 0.90931 0.79946 0.6171 0.0
H8885 H 0.91013 0.82327 0.62507 0.0
C8886 C 0.91666 0.82552 0.61597 0.0
C8887 C 0.91958 0.82292 0.60958 0.0
C8888 C 0.90581 0.80204 0.62091 0.0
C8889 C 0.91121 0.81402 0.61815 0.0
C8890 C 0.90068 0.79796 0.62446 0.0
C8891 C 0.89594 0.80121 0.62926 0.0
C8892 C 0.90625 0.8094 0.62223 0.0
C8893 C 0.89668 0.80855 0.63057 0.0
C8894 C 0.91247 0.82111 0.62024 0.0
C8895 C 0.91837 0.81574 0.60778 0.0
N8896 N 0.90172 0.8124 0.62707 0.0
N8897 N 0.91426 0.81155 0.61204 0.0
H8898 H 0.92815 0.16602 0.36671 0.0
H8899 H 0.96784 0.15064 0.37056 0.0
H8900 H 0.94488 0.17005 0.35142 0.0
H8901 H 0.94989 0.14271 0.38259 0.0
H8902 H 0.95994 0.15924 0.36471 0.0
H8903 H 0.93651 0.15891 0.37378 0.0
C8904 C 0.93361 0.16548 0.36488 0.0
C8905 C 0.93581 0.1686 0.35845 0.0
C8906 C 0.95774 0.15565 0.36866 0.0
C8907 C 0.9454 0.16044 0.36648 0.0
C8908 C 0.96226 0.15077 0.37204 0.0
C8909 C 0.95951 0.14593 0.37704 0.0
C8910 C 0.95044 0.15571 0.37034 0.0
C8911 C 0.95221 0.14629 0.3787 0.0
C8912 C 0.93836 0.16138 0.36889 0.0
C8913 C 0.94293 0.16766 0.3563 0.0
N8914 N 0.94792 0.15108 0.37534 0.0
N8915 N 0.94747 0.16365 0.3603 0.0
H8916 H 0.59529 0.17854 0.11804 0.0
H8917 H 0.61059 0.21831 0.12121 0.0
H8918 H 0.58964 0.19559 0.10364 0.0
H8919 H 0.61896 0.20045 0.1331 0.0
H8920 H 0.60164 0.21043 0.11592 0.0
H8921 H 0.60272 0.18688 0.12479 0.0
C8922 C 0.59554 0.18406 0.11635 0.0
C8923 C 0.59187 0.18636 0.11024 0.0
C8924 C 0.60541 0.20824 0.11972 0.0
C8925 C 0.60042 0.19592 0.1179 0.0
C8926 C 0.61049 0.21275 0.12278 0.0
C8927 C 0.61555 0.21002 0.12758 0.0
C8928 C 0.60537 0.20096 0.12148 0.0
C8929 C 0.61521 0.20275 0.12935 0.0
C8930 C 0.59982 0.18881 0.12018 0.0
C8931 C 0.59245 0.19356 0.10826 0.0
N8932 N 0.61023 0.19847 0.12628 0.0
N8933 N 0.59667 0.19808 0.11207 0.0
H8934 H 0.5811 0.84401 0.86799 0.0
H8935 H 0.5413 0.85867 0.87333 0.0
H8936 H 0.56371 0.83885 0.85381 0.0
H8937 H 0.55991 0.86832 0.88283 0.0
H8938 H 0.54898 0.84949 0.86798 0.0
H8939 H 0.57288 0.85104 0.87529 0.0
C8940 C 0.57553 0.84427 0.86648 0.0
C8941 C 0.57309 0.84088 0.86026 0.0
C8942 C 0.55136 0.85357 0.87131 0.0
C8943 C 0.56367 0.84896 0.86856 0.0
C8944 C 0.54699 0.85877 0.87439 0.0
C8945 C 0.55 0.86427 0.87847 0.0
C8946 C 0.55878 0.85385 0.87238 0.0
C8947 C 0.5574 0.8642 0.87965 0.0
C8948 C 0.57085 0.84832 0.87062 0.0
C8949 C 0.56583 0.84146 0.85851 0.0
N8950 N 0.56154 0.8591 0.87659 0.0
N8951 N 0.56137 0.84545 0.86262 0.0
H8952 H 0.92248 0.19709 0.90638 0.0
H8953 H 0.89425 0.19905 0.87464 0.0
H8954 H 0.9178 0.17937 0.89244 0.0
H8955 H 0.90182 0.21769 0.8858 0.0
H8956 H 0.90314 0.19183 0.88089 0.0
H8957 H 0.91525 0.20484 0.89874 0.0
C8958 C 0.91997 0.19485 0.90168 0.0
C8959 C 0.92071 0.18757 0.90006 0.0
C8960 C 0.90291 0.19751 0.88193 0.0
C8961 C 0.91242 0.19639 0.89131 0.0
C8962 C 0.89782 0.20162 0.87838 0.0
C8963 C 0.89728 0.20896 0.87975 0.0
C8964 C 0.90744 0.20074 0.88695 0.0
C8965 C 0.90209 0.21205 0.88458 0.0
C8966 C 0.91587 0.19927 0.89731 0.0
C8967 C 0.91741 0.18496 0.89387 0.0
N8968 N 0.90693 0.20791 0.88807 0.0
N8969 N 0.91335 0.18934 0.88976 0.0
H8970 H 0.56642 0.17286 0.65219 0.0
H8971 H 0.56205 0.14132 0.62379 0.0
H8972 H 0.58393 0.16306 0.64089 0.0
H8973 H 0.54421 0.151 0.63467 0.0
H8974 H 0.56998 0.15011 0.6292 0.0
H8975 H 0.55804 0.16585 0.645 0.0
C8976 C 0.5685 0.16931 0.64813 0.0
C8977 C 0.57589 0.16848 0.64719 0.0
C8978 C 0.56433 0.15036 0.63037 0.0
C8979 C 0.56635 0.1604 0.63901 0.0
C8980 C 0.5598 0.14533 0.6273 0.0
C8981 C 0.55248 0.14538 0.62885 0.0
C8982 C 0.56153 0.15548 0.63508 0.0
C8983 C 0.54983 0.15077 0.63333 0.0
C8984 C 0.56372 0.16528 0.64406 0.0
C8985 C 0.57828 0.16376 0.64189 0.0
N8986 N 0.55437 0.15557 0.63636 0.0
N8987 N 0.57354 0.15987 0.63805 0.0
H8988 H 0.5943 0.83113 0.39134 0.0
H8989 H 0.60856 0.7914 0.38467 0.0
H8990 H 0.58776 0.81309 0.40403 0.0
H8991 H 0.61901 0.81029 0.37673 0.0
H8992 H 0.59925 0.79895 0.38996 0.0
H8993 H 0.6017 0.82319 0.3841 0.0
C8994 C 0.59433 0.82548 0.39253 0.0
C8995 C 0.59044 0.82277 0.39833 0.0
C8996 C 0.60354 0.80143 0.387 0.0
C8997 C 0.59895 0.81366 0.3901 0.0
C8998 C 0.60882 0.79713 0.38395 0.0
C8999 C 0.61457 0.80024 0.38031 0.0
C9000 C 0.604 0.80888 0.38634 0.0
C9001 C 0.6147 0.80769 0.37957 0.0
C9002 C 0.59859 0.82096 0.38843 0.0
C9003 C 0.59075 0.81541 0.39968 0.0
N9004 N 0.60951 0.81176 0.38258 0.0
N9005 N 0.59496 0.81111 0.39561 0.0
H9006 H 0.92665 0.84833 0.14249 0.0
H9007 H 0.96741 0.85801 0.13436 0.0
H9008 H 0.94443 0.8371 0.15187 0.0
H9009 H 0.94938 0.86992 0.12644 0.0
H9010 H 0.95918 0.84909 0.13927 0.0
H9011 H 0.93497 0.85511 0.13513 0.0
C9012 C 0.93231 0.84727 0.14298 0.0
C9013 C 0.93486 0.84222 0.14788 0.0
C9014 C 0.95703 0.85361 0.13638 0.0
C9015 C 0.94444 0.84997 0.13945 0.0
C9016 C 0.96172 0.85867 0.13354 0.0
C9017 C 0.95905 0.86474 0.13007 0.0
C9018 C 0.94962 0.85464 0.13572 0.0
C9019 C 0.95164 0.86537 0.12919 0.0
C9020 C 0.93706 0.85113 0.13875 0.0
C9021 C 0.94224 0.84095 0.14817 0.0
N9022 N 0.94719 0.86042 0.13204 0.0
N9023 N 0.94678 0.84486 0.14407 0.0
H9024 H 0.60798 0.92396 0.81639 0.0
H9025 H 0.63517 0.89137 0.81147 0.0
H9026 H 0.61686 0.91184 0.83382 0.0
H9027 H 0.62451 0.90181 0.79394 0.0
H9028 H 0.62977 0.89992 0.81968 0.0
H9029 H 0.61528 0.91704 0.80805 0.0
C9030 C 0.61153 0.91991 0.81847 0.0
C9031 C 0.61176 0.91842 0.82581 0.0
C9032 C 0.62865 0.90038 0.81403 0.0
C9033 C 0.62008 0.91045 0.8163 0.0
C9034 C 0.63172 0.89549 0.80934 0.0
C9035 C 0.63023 0.89582 0.80201 0.0
C9036 C 0.62403 0.90566 0.81138 0.0
C9037 C 0.62583 0.90136 0.79954 0.0
C9038 C 0.61567 0.91593 0.81371 0.0
C9039 C 0.61642 0.91307 0.8282 0.0
N9040 N 0.62284 0.90603 0.80422 0.0
N9041 N 0.62037 0.90926 0.82346 0.0
H9042 H 0.83634 0.85888 0.56643 0.0
H9043 H 0.87022 0.88418 0.56117 0.0
H9044 H 0.84833 0.86825 0.58372 0.0
H9045 H 0.8576 0.87637 0.54358 0.0
H9046 H 0.86157 0.87914 0.56948 0.0
H9047 H 0.8433 0.866 0.55796 0.0
C9048 C 0.84037 0.8625 0.56845 0.0
C9049 C 0.84182 0.8629 0.57579 0.0
C9050 C 0.86064 0.87857 0.56381 0.0
C9051 C 0.84984 0.871 0.56613 0.0
C9052 C 0.86559 0.88143 0.55907 0.0
C9053 C 0.86465 0.88063 0.55169 0.0
C9054 C 0.85472 0.87478 0.56117 0.0
C9055 C 0.85851 0.87711 0.54924 0.0
C9056 C 0.84436 0.86654 0.56361 0.0
C9057 C 0.84713 0.86765 0.5781 0.0
N9058 N 0.85381 0.87424 0.55398 0.0
N9059 N 0.85097 0.87146 0.57329 0.0
H9060 H 0.89573 0.08512 0.32035 0.0
H9061 H 0.89408 0.12324 0.30112 0.0
H9062 H 0.91171 0.10157 0.32255 0.0
H9063 H 0.87714 0.10773 0.29955 0.0
H9064 H 0.90095 0.11487 0.30829 0.0
H9065 H 0.88914 0.09286 0.31212 0.0
C9066 C 0.89786 0.09034 0.3191 0.0
C9067 C 0.9043 0.09268 0.32216 0.0
C9068 C 0.89574 0.11327 0.30638 0.0
C9069 C 0.89681 0.10153 0.31271 0.0
C9070 C 0.89179 0.11807 0.30231 0.0
C9071 C 0.88498 0.11622 0.29982 0.0
C9072 C 0.89287 0.10654 0.30801 0.0
C9073 C 0.88237 0.10937 0.30137 0.0
C9074 C 0.89411 0.09474 0.31438 0.0
C9075 C 0.90685 0.09947 0.32026 0.0
N9076 N 0.8863 0.10478 0.30541 0.0
N9077 N 0.90309 0.10364 0.31569 0.0
H9078 H 0.66417 0.1419 0.08389 0.0
H9079 H 0.65214 0.13578 0.04342 0.0
H9080 H 0.67319 0.15351 0.06619 0.0
H9081 H 0.64324 0.12455 0.06142 0.0
H9082 H 0.66091 0.14132 0.05139 0.0
H9083 H 0.65743 0.13457 0.07551 0.0
C9084 C 0.66474 0.14289 0.07823 0.0
C9085 C 0.66918 0.14838 0.07574 0.0
C9086 C 0.65708 0.13759 0.05358 0.0
C9087 C 0.66147 0.14 0.06608 0.0
C9088 C 0.6521 0.13439 0.04903 0.0
C9089 C 0.6469 0.12976 0.05178 0.0
C9090 C 0.65684 0.13613 0.06093 0.0
C9091 C 0.64707 0.12819 0.0591 0.0
C9092 C 0.66091 0.13869 0.07344 0.0
C9093 C 0.66983 0.14933 0.06833 0.0
N9094 N 0.65191 0.13141 0.06342 0.0
N9095 N 0.66596 0.14523 0.06376 0.0
H9096 H 0.60669 0.08641 0.69407 0.0
H9097 H 0.63601 0.11708 0.69837 0.0
H9098 H 0.61875 0.09533 0.67662 0.0
H9099 H 0.62437 0.10823 0.71613 0.0
H9100 H 0.63062 0.10818 0.69054 0.0
H9101 H 0.61398 0.09332 0.70244 0.0
C9102 C 0.61093 0.08974 0.69201 0.0
C9103 C 0.61205 0.09036 0.68463 0.0
C9104 C 0.62928 0.10813 0.69616 0.0
C9105 C 0.62036 0.09833 0.69416 0.0
C9106 C 0.63235 0.11322 0.70063 0.0
C9107 C 0.63057 0.11344 0.70789 0.0
C9108 C 0.62434 0.10323 0.69896 0.0
C9109 C 0.62589 0.10824 0.71056 0.0
C9110 C 0.61507 0.09371 0.69679 0.0
C9111 C 0.6176 0.0948 0.68225 0.0
N9112 N 0.62286 0.10339 0.70608 0.0
N9113 N 0.6215 0.09864 0.68699 0.0
H9114 H 0.67347 0.85556 0.44847 0.0
H9115 H 0.64123 0.88306 0.45056 0.0
H9116 H 0.66616 0.86786 0.43044 0.0
H9117 H 0.65179 0.87493 0.4693 0.0
H9118 H 0.65054 0.87774 0.44313 0.0
H9119 H 0.66582 0.86274 0.45628 0.0
C9120 C 0.67029 0.85981 0.44617 0.0
C9121 C 0.67042 0.86109 0.43879 0.0
C9122 C 0.65089 0.87718 0.44887 0.0
C9123 C 0.66165 0.86929 0.44767 0.0
C9124 C 0.64556 0.8802 0.4531 0.0
C9125 C 0.64574 0.87939 0.46053 0.0
C9126 C 0.65638 0.87322 0.45209 0.0
C9127 C 0.65149 0.87569 0.46358 0.0
C9128 C 0.66596 0.86392 0.45062 0.0
C9129 C 0.66626 0.86671 0.4361 0.0
N9130 N 0.65654 0.87265 0.45934 0.0
N9131 N 0.66199 0.87055 0.44052 0.0
H9132 H 0.89327 0.91646 0.17916 0.0
H9133 H 0.88702 0.90047 0.21827 0.0
H9134 H 0.90695 0.92109 0.19708 0.0
H9135 H 0.87691 0.89219 0.19933 0.0
H9136 H 0.893 0.90951 0.21097 0.0
H9137 H 0.88586 0.90902 0.18689 0.0
C9138 C 0.89466 0.91599 0.18474 0.0
C9139 C 0.90076 0.91937 0.18747 0.0
C9140 C 0.88943 0.90575 0.20842 0.0
C9141 C 0.89234 0.91081 0.19634 0.0
C9142 C 0.88599 0.90062 0.21259 0.0
C9143 C 0.8815 0.89555 0.20938 0.0
C9144 C 0.88834 0.90584 0.20101 0.0
C9145 C 0.8804 0.89594 0.20199 0.0
C9146 C 0.89046 0.9117 0.18914 0.0
C9147 C 0.90235 0.9185 0.19474 0.0
N9148 N 0.88381 0.90098 0.19805 0.0
N9149 N 0.89818 0.91429 0.19892 0.0
H9150 H 0.83653 0.15551 0.94448 0.0
H9151 H 0.86953 0.12909 0.94934 0.0
H9152 H 0.84607 0.14379 0.92711 0.0
H9153 H 0.85736 0.13733 0.96705 0.0
H9154 H 0.86083 0.13427 0.94112 0.0
H9155 H 0.84394 0.14879 0.95288 0.0
C9156 C 0.84016 0.15149 0.94244 0.0
C9157 C 0.84071 0.15022 0.93508 0.0
C9158 C 0.86002 0.1349 0.9468 0.0
C9159 C 0.84921 0.14253 0.94465 0.0
C9160 C 0.86499 0.13196 0.95149 0.0
C9161 C 0.86418 0.13282 0.95888 0.0
C9162 C 0.85422 0.1388 0.94951 0.0
C9163 C 0.85817 0.13652 0.96139 0.0
C9164 C 0.84436 0.14764 0.94724 0.0
C9165 C 0.84543 0.1449 0.93274 0.0
N9166 N 0.85345 0.13944 0.95672 0.0
N9167 N 0.84955 0.14131 0.9375 0.0
H9168 H 0.83181 0.62059 0.91683 0.0
H9169 H 0.79225 0.62635 0.90176 0.0
H9170 H 0.81409 0.60693 0.92225 0.0
H9171 H 0.81111 0.63524 0.89205 0.0
H9172 H 0.79972 0.62112 0.91115 0.0
H9173 H 0.82378 0.62791 0.90962 0.0
C9174 C 0.8262 0.6192 0.9166 0.0
C9175 C 0.82362 0.61311 0.92011 0.0
C9176 C 0.80221 0.62429 0.90701 0.0
C9177 C 0.81442 0.62143 0.91181 0.0
C9178 C 0.79795 0.62731 0.90169 0.0
C9179 C 0.80109 0.63118 0.89611 0.0
C9180 C 0.80964 0.62522 0.90678 0.0
C9181 C 0.8085 0.63222 0.89623 0.0
C9182 C 0.82164 0.62335 0.91244 0.0
C9183 C 0.81631 0.61152 0.91955 0.0
N9184 N 0.81253 0.62923 0.90145 0.0
N9185 N 0.81197 0.61564 0.91545 0.0
H9186 H 0.31725 0.90394 0.08756 0.0
H9187 H 0.31157 0.87393 0.11737 0.0
H9188 H 0.33423 0.89118 0.09646 0.0
H9189 H 0.29454 0.88718 0.10933 0.0
H9190 H 0.31967 0.87926 0.10867 0.0
H9191 H 0.30858 0.89691 0.09435 0.0
C9192 C 0.31914 0.8996 0.09086 0.0
C9193 C 0.32648 0.8982 0.0915 0.0
C9194 C 0.31415 0.88097 0.10876 0.0
C9195 C 0.31661 0.89018 0.09934 0.0
C9196 C 0.30953 0.87794 0.11374 0.0
C9197 C 0.30239 0.88018 0.11413 0.0
C9198 C 0.31163 0.88631 0.10414 0.0
C9199 C 0.29999 0.88529 0.1092 0.0
C9200 C 0.3142 0.89561 0.09477 0.0
C9201 C 0.32864 0.89254 0.09591 0.0
N9202 N 0.30463 0.88824 0.10446 0.0
N9203 N 0.32374 0.88878 0.09969 0.0
H9204 H 0.85287 0.56202 0.83791 0.0
H9205 H 0.88486 0.56061 0.86579 0.0
H9206 H 0.86749 0.57948 0.84128 0.0
H9207 H 0.87369 0.54176 0.85875 0.0
H9208 H 0.87866 0.56756 0.85666 0.0
H9209 H 0.86048 0.55441 0.84534 0.0
C9210 C 0.85771 0.56423 0.84017 0.0
C9211 C 0.85954 0.5714 0.839 0.0
C9212 C 0.87761 0.56189 0.85705 0.0
C9213 C 0.86824 0.56275 0.84752 0.0
C9214 C 0.88113 0.55794 0.86227 0.0
C9215 C 0.87974 0.55062 0.86304 0.0
C9216 C 0.87258 0.55853 0.85261 0.0
C9217 C 0.87492 0.54739 0.85831 0.0
C9218 C 0.86206 0.55988 0.84438 0.0
C9219 C 0.8659 0.57398 0.842 0.0
N9220 N 0.87144 0.55139 0.85335 0.0
N9221 N 0.86998 0.56968 0.84618 0.0
H9222 H 0.17725 0.11752 0.59912 0.0
H9223 H 0.21802 0.12669 0.60799 0.0
H9224 H 0.19499 0.10882 0.58729 0.0
H9225 H 0.20005 0.13374 0.62053 0.0
H9226 H 0.20971 0.12154 0.59927 0.0
H9227 H 0.18555 0.12484 0.60596 0.0
C9228 C 0.18291 0.11717 0.59795 0.0
C9229 C 0.18544 0.11247 0.5927 0.0
C9230 C 0.20759 0.12428 0.60389 0.0
C9231 C 0.19501 0.12088 0.6005 0.0
C9232 C 0.21233 0.12725 0.60884 0.0
C9233 C 0.20971 0.13057 0.61502 0.0
C9234 C 0.2002 0.12466 0.60514 0.0
C9235 C 0.20229 0.13112 0.61589 0.0
C9236 C 0.18765 0.12137 0.60184 0.0
C9237 C 0.19281 0.11236 0.59129 0.0
N9238 N 0.19781 0.12815 0.61104 0.0
N9239 N 0.19734 0.11645 0.59523 0.0
H9240 H 0.14235 0.92612 0.84795 0.0
H9241 H 0.13487 0.96713 0.85737 0.0
H9242 H 0.15254 0.94359 0.83696 0.0
H9243 H 0.12785 0.94935 0.87016 0.0
H9244 H 0.1398 0.9587 0.84863 0.0
H9245 H 0.13544 0.93468 0.8549 0.0
C9246 C 0.14312 0.93177 0.84699 0.0
C9247 C 0.14812 0.93414 0.84195 0.0
C9248 C 0.13712 0.95666 0.85332 0.0
C9249 C 0.14017 0.944 0.84988 0.0
C9250 C 0.13428 0.96146 0.85828 0.0
C9251 C 0.13102 0.95892 0.86452 0.0
C9252 C 0.13664 0.94928 0.8546 0.0
C9253 C 0.13043 0.95152 0.86547 0.0
C9254 C 0.13915 0.93665 0.85094 0.0
C9255 C 0.14875 0.94152 0.84079 0.0
N9256 N 0.13324 0.94697 0.86059 0.0
N9257 N 0.14487 0.9462 0.84478 0.0
H9258 H 0.67958 0.39314 0.41568 0.0
H9259 H 0.71956 0.38714 0.40183 0.0
H9260 H 0.69719 0.40657 0.422 0.0
H9261 H 0.70091 0.37894 0.39114 0.0
H9262 H 0.7118 0.39254 0.41091 0.0
H9263 H 0.68775 0.3861 0.40835 0.0
C9264 C 0.68519 0.39455 0.41561 0.0
C9265 C 0.6877 0.40047 0.41943 0.0
C9266 C 0.70942 0.38951 0.40661 0.0
C9267 C 0.69707 0.39247 0.41101 0.0
C9268 C 0.71384 0.3864 0.40146 0.0
C9269 C 0.71085 0.38265 0.39572 0.0
C9270 C 0.70198 0.38876 0.40603 0.0
C9271 C 0.70341 0.38186 0.39545 0.0
C9272 C 0.68984 0.39056 0.41139 0.0
C9273 C 0.69501 0.40209 0.41907 0.0
N9274 N 0.69923 0.38491 0.40052 0.0
N9275 N 0.69945 0.39812 0.41491 0.0
H9276 H 0.85931 0.4448 0.67436 0.0
H9277 H 0.88479 0.4494 0.64054 0.0
H9278 H 0.86838 0.42728 0.66249 0.0
H9279 H 0.87652 0.46721 0.65254 0.0
H9280 H 0.87989 0.44126 0.64943 0.0
H9281 H 0.86661 0.45311 0.66739 0.0
C9282 C 0.86291 0.4427 0.67037 0.0
C9283 C 0.86317 0.43534 0.66894 0.0
C9284 C 0.87919 0.44695 0.65018 0.0
C9285 C 0.87147 0.44481 0.6609 0.0
C9286 C 0.88199 0.45159 0.6451 0.0
C9287 C 0.88099 0.45897 0.64577 0.0
C9288 C 0.87529 0.44969 0.65596 0.0
C9289 C 0.8774 0.46154 0.65183 0.0
C9290 C 0.86705 0.44744 0.66636 0.0
C9291 C 0.8679 0.43292 0.66367 0.0
N9292 N 0.8746 0.4569 0.65665 0.0
N9293 N 0.87181 0.43764 0.65981 0.0
H9294 H 0.65695 0.56311 0.17141 0.0
H9295 H 0.62463 0.56118 0.14404 0.0
H9296 H 0.64174 0.58018 0.16863 0.0
H9297 H 0.63598 0.54244 0.15106 0.0
H9298 H 0.63081 0.5682 0.15314 0.0
H9299 H 0.64937 0.55536 0.16409 0.0
C9300 C 0.65199 0.5652 0.1693 0.0
C9301 C 0.64998 0.5723 0.1706 0.0
C9302 C 0.6319 0.56253 0.15275 0.0
C9303 C 0.64132 0.5635 0.16221 0.0
C9304 C 0.62839 0.55854 0.14755 0.0
C9305 C 0.62983 0.55124 0.1468 0.0
C9306 C 0.63698 0.55923 0.15716 0.0
C9307 C 0.63471 0.54805 0.1515 0.0
C9308 C 0.64765 0.56077 0.16516 0.0
C9309 C 0.64347 0.57473 0.16781 0.0
N9310 N 0.63818 0.55209 0.15644 0.0
N9311 N 0.63941 0.57036 0.16368 0.0
H9312 H 0.59162 0.67961 0.89099 0.0
H9313 H 0.60915 0.71832 0.88662 0.0
H9314 H 0.58992 0.69611 0.90696 0.0
H9315 H 0.61571 0.69983 0.87458 0.0
H9316 H 0.60012 0.711 0.89266 0.0
H9317 H 0.59848 0.68777 0.88348 0.0
C9318 C 0.59259 0.68499 0.89287 0.0
C9319 C 0.59023 0.68717 0.89963 0.0
C9320 C 0.60349 0.70858 0.88865 0.0
C9321 C 0.59812 0.69651 0.89108 0.0
C9322 C 0.6086 0.71275 0.88517 0.0
C9323 C 0.6132 0.70965 0.88015 0.0
C9324 C 0.60294 0.70128 0.88701 0.0
C9325 C 0.61231 0.7024 0.87849 0.0
C9326 C 0.59655 0.68962 0.8886 0.0
C9327 C 0.59172 0.69418 0.90182 0.0
N9328 N 0.6073 0.69845 0.88193 0.0
N9329 N 0.59559 0.6986 0.89757 0.0
H9330 H 0.56789 0.33357 0.14773 0.0
H9331 H 0.55036 0.37237 0.14424 0.0
H9332 H 0.57062 0.35058 0.16303 0.0
H9333 H 0.5488 0.35641 0.12773 0.0
H9334 H 0.55672 0.36386 0.15173 0.0
H9335 H 0.55995 0.3413 0.14081 0.0
C9336 C 0.56681 0.33891 0.14965 0.0
C9337 C 0.56996 0.34142 0.15599 0.0
C9338 C 0.55497 0.36219 0.14648 0.0
C9339 C 0.56082 0.35026 0.14811 0.0
C9340 C 0.55135 0.36706 0.1422 0.0
C9341 C 0.54914 0.36513 0.13531 0.0
C9342 C 0.55642 0.35531 0.14388 0.0
C9343 C 0.55042 0.35812 0.133 0.0
C9344 C 0.56225 0.34331 0.14571 0.0
C9345 C 0.56826 0.34835 0.15826 0.0
N9346 N 0.55405 0.35347 0.13725 0.0
N9347 N 0.56385 0.35252 0.15431 0.0
H9348 H 0.92332 0.31709 0.40087 0.0
H9349 H 0.89086 0.31218 0.37357 0.0
H9350 H 0.91129 0.3345 0.3918 0.0
H9351 H 0.90145 0.29459 0.38397 0.0
H9352 H 0.89947 0.32037 0.3789 0.0
H9353 H 0.91656 0.30873 0.39344 0.0
C9354 C 0.91932 0.31916 0.39725 0.0
C9355 C 0.91781 0.3265 0.39701 0.0
C9356 C 0.89996 0.31471 0.37998 0.0
C9357 C 0.91002 0.31697 0.38854 0.0
C9358 C 0.89503 0.31004 0.37694 0.0
C9359 C 0.89538 0.3027 0.37839 0.0
C9360 C 0.90527 0.31205 0.38454 0.0
C9361 C 0.90099 0.3002 0.38269 0.0
C9362 C 0.91544 0.31439 0.39303 0.0
C9363 C 0.91254 0.32888 0.39225 0.0
N9364 N 0.90567 0.30488 0.38568 0.0
N9365 N 0.90881 0.32413 0.38824 0.0
H9366 H 0.92585 0.66213 0.64053 0.0
H9367 H 0.96688 0.65313 0.63266 0.0
H9368 H 0.94335 0.67363 0.65011 0.0
H9369 H 0.94914 0.64033 0.62551 0.0
H9370 H 0.95841 0.66186 0.63754 0.0
H9371 H 0.93437 0.65526 0.63349 0.0
C9372 C 0.93149 0.66322 0.64113 0.0
C9373 C 0.93389 0.66839 0.64599 0.0
C9374 C 0.95638 0.65717 0.63484 0.0
C9375 C 0.94371 0.66054 0.63792 0.0
C9376 C 0.9612 0.65222 0.63202 0.0
C9377 C 0.95869 0.64597 0.62875 0.0
C9378 C 0.94901 0.65587 0.63433 0.0
C9379 C 0.95129 0.64502 0.62809 0.0
C9380 C 0.93636 0.65932 0.63709 0.0
C9381 C 0.94126 0.6697 0.64642 0.0
N9382 N 0.94672 0.64989 0.6309 0.0
N9383 N 0.94592 0.66575 0.64249 0.0
H9384 H 0.59378 0.3336 0.62011 0.0
H9385 H 0.60906 0.29403 0.6253 0.0
H9386 H 0.59003 0.31652 0.60513 0.0
H9387 H 0.61727 0.31246 0.63637 0.0
H9388 H 0.60029 0.30169 0.61933 0.0
H9389 H 0.60063 0.32537 0.62757 0.0
C9390 C 0.59431 0.32809 0.61844 0.0
C9391 C 0.59136 0.32575 0.61197 0.0
C9392 C 0.60397 0.30404 0.62312 0.0
C9393 C 0.59924 0.31632 0.62045 0.0
C9394 C 0.60893 0.29967 0.62656 0.0
C9395 C 0.61391 0.30263 0.6313 0.0
C9396 C 0.60396 0.31141 0.62448 0.0
C9397 C 0.61357 0.30998 0.63269 0.0
C9398 C 0.59826 0.32341 0.62268 0.0
C9399 C 0.59229 0.31857 0.61003 0.0
N9400 N 0.6087 0.31412 0.62928 0.0
N9401 N 0.59617 0.31411 0.61425 0.0
H9402 H 0.94386 0.3472 0.84886 0.0
H9403 H 0.96064 0.35904 0.88633 0.0
H9404 H 0.93815 0.33735 0.86888 0.0
H9405 H 0.96428 0.37 0.86643 0.0
H9406 H 0.95358 0.35006 0.87992 0.0
H9407 H 0.95256 0.35457 0.8551 0.0
C9408 C 0.9445 0.34651 0.85456 0.0
C9409 C 0.94024 0.34165 0.85835 0.0
C9410 C 0.95596 0.35441 0.87696 0.0
C9411 C 0.95014 0.35021 0.86557 0.0
C9412 C 0.96003 0.3595 0.8806 0.0
C9413 C 0.96298 0.36531 0.87691 0.0
C9414 C 0.9549 0.35512 0.86957 0.0
C9415 C 0.96199 0.36568 0.8695 0.0
C9416 C 0.94944 0.35077 0.85814 0.0
C9417 C 0.94125 0.3411 0.86576 0.0
N9418 N 0.95801 0.36068 0.86609 0.0
N9419 N 0.94607 0.34535 0.86914 0.0
H9420 H 0.91349 0.67565 0.1211 0.0
H9421 H 0.90408 0.71685 0.12706 0.0
H9422 H 0.92417 0.69279 0.11006 0.0
H9423 H 0.89189 0.69935 0.13567 0.0
H9424 H 0.91292 0.7083 0.12256 0.0
H9425 H 0.90696 0.68442 0.12816 0.0
C9426 C 0.91448 0.68127 0.12018 0.0
C9427 C 0.9193 0.68349 0.1149 0.0
C9428 C 0.90836 0.70634 0.12552 0.0
C9429 C 0.91184 0.69359 0.12299 0.0
C9430 C 0.90335 0.71122 0.12813 0.0
C9431 C 0.89722 0.70878 0.13167 0.0
C9432 C 0.90724 0.69899 0.1265 0.0
C9433 C 0.8965 0.70143 0.13287 0.0
C9434 C 0.91077 0.68628 0.12424 0.0
C9435 C 0.9205 0.69084 0.11407 0.0
N9436 N 0.90141 0.6968 0.13025 0.0
N9437 N 0.91673 0.69564 0.11801 0.0
H9438 H 0.5814 0.66622 0.36976 0.0
H9439 H 0.54192 0.65066 0.37488 0.0
H9440 H 0.56407 0.67062 0.35525 0.0
H9441 H 0.56047 0.64231 0.38566 0.0
H9442 H 0.54951 0.65955 0.36902 0.0
H9443 H 0.57331 0.65901 0.37702 0.0
C9444 C 0.57586 0.66575 0.36816 0.0
C9445 C 0.57341 0.669 0.36187 0.0
C9446 C 0.55191 0.65581 0.37271 0.0
C9447 C 0.56414 0.6607 0.37012 0.0
C9448 C 0.54758 0.65077 0.37609 0.0
C9449 C 0.55059 0.64572 0.38073 0.0
C9450 C 0.55929 0.65583 0.37403 0.0
C9451 C 0.55795 0.64605 0.38205 0.0
C9452 C 0.57126 0.66159 0.37227 0.0
C9453 C 0.5662 0.66814 0.36001 0.0
N9454 N 0.56205 0.651 0.37871 0.0
N9455 N 0.56182 0.66406 0.3641 0.0
H9456 H 0.90502 0.58779 0.69707 0.0
H9457 H 0.8768 0.61942 0.69916 0.0
H9458 H 0.8928 0.59504 0.67896 0.0
H9459 H 0.88494 0.60883 0.71788 0.0
H9460 H 0.88246 0.61034 0.6917 0.0
H9461 H 0.89763 0.59524 0.70486 0.0
C9462 C 0.90075 0.59091 0.69474 0.0
C9463 C 0.89954 0.59082 0.68735 0.0
C9464 C 0.88295 0.60995 0.69744 0.0
C9465 C 0.89109 0.59938 0.69621 0.0
C9466 C 0.87974 0.61514 0.70169 0.0
C9467 C 0.88044 0.61488 0.70913 0.0
C9468 C 0.887 0.60451 0.70064 0.0
C9469 C 0.88425 0.60919 0.71216 0.0
C9470 C 0.89651 0.59514 0.69919 0.0
C9471 C 0.89389 0.59491 0.68463 0.0
N9472 N 0.88747 0.60427 0.70789 0.0
N9473 N 0.88993 0.59908 0.68905 0.0
H9474 H 0.66898 0.63966 0.92917 0.0
H9475 H 0.65182 0.63437 0.96792 0.0
H9476 H 0.67134 0.65494 0.94622 0.0
H9477 H 0.64495 0.62293 0.94917 0.0
H9478 H 0.66088 0.64048 0.9607 0.0
H9479 H 0.66207 0.632 0.93715 0.0
C9480 C 0.66814 0.64135 0.93463 0.0
C9481 C 0.6707 0.64797 0.93702 0.0
C9482 C 0.65743 0.63658 0.95819 0.0
C9483 C 0.66275 0.63926 0.94616 0.0
C9484 C 0.6523 0.63307 0.96231 0.0
C9485 C 0.64761 0.62819 0.95911 0.0
C9486 C 0.6579 0.63514 0.95085 0.0
C9487 C 0.64841 0.62672 0.95182 0.0
C9488 C 0.66415 0.637 0.93916 0.0
C9489 C 0.66938 0.64993 0.94413 0.0
N9490 N 0.65344 0.6302 0.94793 0.0
N9491 N 0.66547 0.64561 0.94845 0.0
H9492 H 0.60677 0.4222 0.19535 0.0
H9493 H 0.637 0.3928 0.19888 0.0
H9494 H 0.62126 0.41699 0.17824 0.0
H9495 H 0.62671 0.40219 0.21718 0.0
H9496 H 0.63157 0.40193 0.19129 0.0
H9497 H 0.61416 0.41519 0.20354 0.0
C9498 C 0.61154 0.41962 0.19333 0.0
C9499 C 0.61339 0.42014 0.1861 0.0
C9500 C 0.63058 0.40207 0.19698 0.0
C9501 C 0.62183 0.41209 0.19541 0.0
C9502 C 0.63367 0.39686 0.2013 0.0
C9503 C 0.63227 0.39675 0.20864 0.0
C9504 C 0.62594 0.40712 0.20001 0.0
C9505 C 0.62794 0.40212 0.21154 0.0
C9506 C 0.61577 0.41566 0.19801 0.0
C9507 C 0.61966 0.41676 0.18378 0.0
N9508 N 0.62483 0.40704 0.20719 0.0
N9509 N 0.62361 0.41281 0.1884 0.0
H9510 H 0.83847 0.35396 0.44715 0.0
H9511 H 0.86837 0.38381 0.44999 0.0
H9512 H 0.8439 0.36796 0.42971 0.0
H9513 H 0.85861 0.37438 0.46855 0.0
H9514 H 0.85931 0.37815 0.44249 0.0
H9515 H 0.8457 0.36137 0.45515 0.0
C9516 C 0.84115 0.35862 0.44502 0.0
C9517 C 0.84062 0.36033 0.43775 0.0
C9518 C 0.85908 0.37738 0.44821 0.0
C9519 C 0.8489 0.36879 0.44684 0.0
C9520 C 0.86425 0.3806 0.45248 0.0
C9521 C 0.86423 0.37952 0.45988 0.0
C9522 C 0.85392 0.37295 0.45134 0.0
C9523 C 0.85878 0.37535 0.46286 0.0
C9524 C 0.84523 0.36287 0.44959 0.0
C9525 C 0.84413 0.36647 0.43528 0.0
N9526 N 0.85389 0.37213 0.45857 0.0
N9527 N 0.84819 0.37043 0.4398 0.0
H9528 H 0.90043 0.42403 0.81685 0.0
H9529 H 0.87417 0.39084 0.81185 0.0
H9530 H 0.89132 0.41195 0.8342 0.0
H9531 H 0.88297 0.40266 0.7942 0.0
H9532 H 0.8792 0.39959 0.82008 0.0
H9533 H 0.89293 0.41736 0.80847 0.0
C9534 C 0.89678 0.42005 0.81891 0.0
C9535 C 0.89657 0.41848 0.82623 0.0
C9536 C 0.87998 0.40034 0.81441 0.0
C9537 C 0.88803 0.41079 0.81667 0.0
C9538 C 0.87711 0.39534 0.80971 0.0
C9539 C 0.87823 0.396 0.80235 0.0
C9540 C 0.88408 0.40601 0.81174 0.0
C9541 C 0.88199 0.40197 0.79984 0.0
C9542 C 0.89252 0.41622 0.81412 0.0
C9543 C 0.89177 0.41324 0.82859 0.0
N9544 N 0.88487 0.40671 0.80454 0.0
N9545 N 0.88774 0.40955 0.82383 0.0
H9546 H 0.84301 0.64155 0.0811 0.0
H9547 H 0.86012 0.635 0.0425 0.0
H9548 H 0.84024 0.65602 0.06342 0.0
H9549 H 0.8669 0.62403 0.06156 0.0
H9550 H 0.85107 0.64134 0.04953 0.0
H9551 H 0.85002 0.63369 0.07341 0.0
C9552 C 0.84379 0.64302 0.07557 0.0
C9553 C 0.84108 0.64947 0.07291 0.0
C9554 C 0.8545 0.6375 0.05216 0.0
C9555 C 0.84915 0.64053 0.06409 0.0
C9556 C 0.85962 0.63385 0.04815 0.0
C9557 C 0.86428 0.62903 0.05148 0.0
C9558 C 0.85401 0.63627 0.05953 0.0
C9559 C 0.86346 0.62777 0.05881 0.0
C9560 C 0.84783 0.63856 0.0712 0.0
C9561 C 0.84232 0.65114 0.06571 0.0
N9562 N 0.85845 0.63139 0.0626 0.0
N9563 N 0.84629 0.64671 0.06156 0.0
H9564 H 0.60754 0.58726 0.31674 0.0
H9565 H 0.63714 0.61773 0.31245 0.0
H9566 H 0.61788 0.59795 0.33431 0.0
H9567 H 0.62586 0.60854 0.29462 0.0
H9568 H 0.63132 0.60922 0.32038 0.0
H9569 H 0.61533 0.59372 0.30843 0.0
C9570 C 0.61151 0.5909 0.31885 0.0
C9571 C 0.61201 0.59214 0.32622 0.0
C9572 C 0.63015 0.609 0.31473 0.0
C9573 C 0.62089 0.59955 0.31677 0.0
C9574 C 0.63347 0.61387 0.3102 0.0
C9575 C 0.63191 0.6139 0.30289 0.0
C9576 C 0.62518 0.60413 0.31194 0.0
C9577 C 0.62721 0.60869 0.30023 0.0
C9578 C 0.61592 0.5946 0.31411 0.0
C9579 C 0.61721 0.59693 0.32866 0.0
N9580 N 0.62394 0.60407 0.30477 0.0
N9581 N 0.62142 0.60048 0.32396 0.0
H9582 H 0.66079 0.34763 0.56937 0.0
H9583 H 0.65527 0.38419 0.54806 0.0
H9584 H 0.6767 0.3643 0.56875 0.0
H9585 H 0.63983 0.36714 0.5489 0.0
H9586 H 0.66371 0.37666 0.55467 0.0
H9587 H 0.6536 0.35434 0.56092 0.0
C9588 C 0.66284 0.35266 0.56738 0.0
C9589 C 0.66938 0.35539 0.56981 0.0
C9590 C 0.65849 0.37456 0.55336 0.0
C9591 C 0.66103 0.36323 0.5602 0.0
C9592 C 0.6537 0.37883 0.54956 0.0
C9593 C 0.64681 0.37631 0.54802 0.0
C9594 C 0.65639 0.36772 0.5556 0.0
C9595 C 0.64503 0.36935 0.55011 0.0
C9596 C 0.65868 0.35653 0.56259 0.0
C9597 C 0.67164 0.36202 0.56713 0.0
N9598 N 0.64976 0.36532 0.55382 0.0
N9599 N 0.66745 0.36573 0.5625 0.0
H9600 H 0.69082 0.89624 0.58356 0.0
H9601 H 0.71007 0.89329 0.62158 0.0
H9602 H 0.68922 0.91201 0.60028 0.0
H9603 H 0.71112 0.87663 0.60573 0.0
H9604 H 0.70335 0.90067 0.61325 0.0
H9605 H 0.69904 0.88936 0.59105 0.0
C9606 C 0.69221 0.89827 0.58879 0.0
C9607 C 0.6893 0.90472 0.59128 0.0
C9608 C 0.70507 0.89542 0.61156 0.0
C9609 C 0.69875 0.89691 0.59985 0.0
C9610 C 0.70889 0.89119 0.61632 0.0
C9611 C 0.71107 0.8843 0.61437 0.0
C9612 C 0.70336 0.89274 0.60477 0.0
C9613 C 0.70953 0.88192 0.60744 0.0
C9614 C 0.69693 0.89436 0.59305 0.0
C9615 C 0.69138 0.90713 0.59807 0.0
N9616 N 0.70571 0.88611 0.6029 0.0
N9617 N 0.69594 0.90322 0.60211 0.0
H9618 H 0.19396 0.59817 0.41381 0.0
H9619 H 0.21043 0.63569 0.40169 0.0
H9620 H 0.18767 0.61827 0.42315 0.0
H9621 H 0.21399 0.61575 0.39076 0.0
H9622 H 0.20345 0.62929 0.41075 0.0
H9623 H 0.20273 0.60443 0.40655 0.0
C9624 C 0.19449 0.60389 0.41442 0.0
C9625 C 0.19004 0.6077 0.41909 0.0
C9626 C 0.20581 0.62632 0.4064 0.0
C9627 C 0.20002 0.61494 0.41065 0.0
C9628 C 0.20982 0.62996 0.40126 0.0
C9629 C 0.21271 0.62624 0.39544 0.0
C9630 C 0.20475 0.61892 0.40572 0.0
C9631 C 0.21175 0.61883 0.3951 0.0
C9632 C 0.19947 0.60748 0.41022 0.0
C9633 C 0.19091 0.61513 0.41954 0.0
N9634 N 0.20783 0.61542 0.40015 0.0
N9635 N 0.19577 0.61852 0.41535 0.0
H9636 H 0.6631 0.94175 0.6625 0.0
H9637 H 0.62598 0.96041 0.65252 0.0
H9638 H 0.64341 0.93751 0.67369 0.0
H9639 H 0.64553 0.96323 0.6407 0.0
H9640 H 0.63249 0.95315 0.66125 0.0
H9641 H 0.65698 0.95077 0.65543 0.0
C9642 C 0.65751 0.94278 0.66355 0.0
C9643 C 0.65377 0.93882 0.66869 0.0
C9644 C 0.63536 0.9554 0.65677 0.0
C9645 C 0.64667 0.9491 0.66048 0.0
C9646 C 0.63166 0.95958 0.65182 0.0
C9647 C 0.63521 0.96236 0.64584 0.0
C9648 C 0.64267 0.95403 0.65574 0.0
C9649 C 0.64256 0.96108 0.64516 0.0
C9650 C 0.654 0.9479 0.65946 0.0
C9651 C 0.64649 0.94034 0.66971 0.0
N9652 N 0.64603 0.95699 0.65002 0.0
N9653 N 0.64317 0.94533 0.66561 0.0
H9654 H 0.3147 0.41317 0.91587 0.0
H9655 H 0.30146 0.37491 0.90217 0.0
H9656 H 0.3246 0.39342 0.92239 0.0
H9657 H 0.29627 0.39485 0.89194 0.0
H9658 H 0.30822 0.38152 0.91127 0.0
H9659 H 0.30616 0.40639 0.90875 0.0
C9660 C 0.31507 0.4074 0.91582 0.0
C9661 C 0.32046 0.40387 0.91964 0.0
C9662 C 0.30555 0.38444 0.90706 0.0
C9663 C 0.31063 0.39606 0.91154 0.0
C9664 C 0.30167 0.38068 0.90191 0.0
C9665 C 0.29838 0.38435 0.89628 0.0
C9666 C 0.30605 0.39191 0.90661 0.0
C9667 C 0.29882 0.39182 0.89615 0.0
C9668 C 0.31017 0.40354 0.91177 0.0
C9669 C 0.32053 0.39637 0.91954 0.0
N9670 N 0.3026 0.39535 0.90122 0.0
N9671 N 0.31573 0.39271 0.91549 0.0
H9672 H 0.3545 0.56393 0.67045 0.0
H9673 H 0.38738 0.56113 0.64375 0.0
H9674 H 0.37009 0.58066 0.66783 0.0
H9675 H 0.37502 0.54283 0.65018 0.0
H9676 H 0.38123 0.56831 0.65275 0.0
H9677 H 0.36199 0.55601 0.66324 0.0
C9678 C 0.35952 0.56592 0.66839 0.0
C9679 C 0.36166 0.57298 0.66971 0.0
C9680 C 0.37991 0.5627 0.65226 0.0
C9681 C 0.37024 0.56397 0.66144 0.0
C9682 C 0.3834 0.55862 0.64711 0.0
C9683 C 0.38167 0.5514 0.64621 0.0
C9684 C 0.37456 0.55957 0.65647 0.0
C9685 C 0.37652 0.54838 0.65073 0.0
C9686 C 0.36381 0.56139 0.66431 0.0
C9687 C 0.36826 0.57525 0.66699 0.0
N9688 N 0.37308 0.5525 0.65561 0.0
N9689 N 0.37227 0.57079 0.66292 0.0
H9690 H 0.8348 0.11837 0.09788 0.0
H9691 H 0.79401 0.1262 0.10771 0.0
H9692 H 0.81705 0.10852 0.08703 0.0
H9693 H 0.81202 0.13451 0.11939 0.0
H9694 H 0.80225 0.12125 0.09882 0.0
H9695 H 0.82645 0.12578 0.10458 0.0
C9696 C 0.82914 0.11779 0.09688 0.0
C9697 C 0.82661 0.11274 0.09196 0.0
C9698 C 0.80439 0.12423 0.10329 0.0
C9699 C 0.81699 0.12123 0.09961 0.0
C9700 C 0.79969 0.1271 0.10832 0.0
C9701 C 0.80235 0.13069 0.11433 0.0
C9702 C 0.81179 0.12499 0.10426 0.0
C9703 C 0.80975 0.13167 0.1149 0.0
C9704 C 0.82436 0.12204 0.10069 0.0
C9705 C 0.81922 0.11234 0.09077 0.0
N9706 N 0.81421 0.12878 0.10997 0.0
N9707 N 0.81466 0.11647 0.09463 0.0
H9708 H 0.65001 0.06713 0.83607 0.0
H9709 H 0.62502 0.06161 0.87011 0.0
H9710 H 0.6412 0.08431 0.84862 0.0
H9711 H 0.63335 0.04414 0.85766 0.0
H9712 H 0.62969 0.06998 0.86131 0.0
H9713 H 0.64278 0.05864 0.84289 0.0
C9714 C 0.64647 0.06913 0.84019 0.0
C9715 C 0.64628 0.07643 0.84185 0.0
C9716 C 0.63044 0.06432 0.86044 0.0
C9717 C 0.63805 0.06675 0.8497 0.0
C9718 C 0.62778 0.05954 0.86547 0.0
C9719 C 0.62888 0.05219 0.86464 0.0
C9720 C 0.63431 0.06174 0.85456 0.0
C9721 C 0.63239 0.04978 0.85849 0.0
C9722 C 0.64238 0.06427 0.8441 0.0
C9723 C 0.64163 0.07871 0.84726 0.0
N9724 N 0.63507 0.05455 0.85372 0.0
N9725 N 0.63776 0.07389 0.85102 0.0
H9726 H 0.85537 0.94705 0.33912 0.0
H9727 H 0.88695 0.94953 0.36742 0.0
H9728 H 0.86999 0.92976 0.34334 0.0
H9729 H 0.87514 0.96791 0.36021 0.0
H9730 H 0.88111 0.94232 0.35825 0.0
H9731 H 0.86278 0.95492 0.34644 0.0
C9732 C 0.86017 0.94493 0.34155 0.0
C9733 C 0.86204 0.93773 0.34065 0.0
C9734 C 0.87985 0.94795 0.35861 0.0
C9735 C 0.87054 0.94669 0.34906 0.0
C9736 C 0.88317 0.95205 0.36386 0.0
C9737 C 0.88148 0.95931 0.3646 0.0
C9738 C 0.87473 0.95109 0.35413 0.0
C9739 C 0.8766 0.96234 0.3598 0.0
C9740 C 0.86441 0.94943 0.3457 0.0
C9741 C 0.86836 0.93528 0.34385 0.0
N9742 N 0.87332 0.9582 0.35482 0.0
N9743 N 0.87234 0.93973 0.34797 0.0
H9744 H 0.42551 0.32005 0.11687 0.0
H9745 H 0.38737 0.30077 0.11702 0.0
H9746 H 0.41051 0.32062 0.0994 0.0
H9747 H 0.40186 0.29993 0.13489 0.0
H9748 H 0.39621 0.30751 0.1103 0.0
H9749 H 0.41733 0.3122 0.1234 0.0
C9750 C 0.42051 0.31851 0.1144 0.0
C9751 C 0.41871 0.321 0.10756 0.0
C9752 C 0.39749 0.30585 0.11568 0.0
C9753 C 0.40935 0.31201 0.11499 0.0
C9754 C 0.39242 0.30203 0.11954 0.0
C9755 C 0.39385 0.29987 0.12656 0.0
C9756 C 0.40406 0.30757 0.11886 0.0
C9757 C 0.40055 0.3015 0.12949 0.0
C9758 C 0.41587 0.31401 0.11812 0.0
C9759 C 0.4122 0.31877 0.1046 0.0
N9760 N 0.4054 0.3053 0.12564 0.0
N9761 N 0.40777 0.31444 0.10833 0.0
H9762 H 0.4453 0.67322 0.8547 0.0
H9763 H 0.44949 0.64017 0.88115 0.0
H9764 H 0.4276 0.66363 0.86585 0.0
H9765 H 0.4674 0.65225 0.87322 0.0
H9766 H 0.44138 0.64889 0.8758 0.0
H9767 H 0.45352 0.66578 0.86161 0.0
C9768 C 0.44315 0.66957 0.85863 0.0
C9769 C 0.43576 0.66901 0.85968 0.0
C9770 C 0.44708 0.64967 0.87528 0.0
C9771 C 0.44512 0.66048 0.86759 0.0
C9772 C 0.4517 0.64469 0.87831 0.0
C9773 C 0.45911 0.64547 0.87758 0.0
C9774 C 0.44989 0.65546 0.87142 0.0
C9775 C 0.46172 0.65147 0.87393 0.0
C9776 C 0.44784 0.66535 0.8626 0.0
C9777 C 0.43326 0.66426 0.86491 0.0
N9778 N 0.45711 0.65619 0.87092 0.0
N9779 N 0.43793 0.66013 0.86861 0.0
H9780 H 0.09151 0.67985 0.61917 0.0
H9781 H 0.10891 0.71868 0.62314 0.0
H9782 H 0.08938 0.69632 0.60323 0.0
H9783 H 0.11559 0.70034 0.63533 0.0
H9784 H 0.09993 0.71126 0.61717 0.0
H9785 H 0.09852 0.68805 0.62651 0.0
C9786 C 0.09243 0.68523 0.61726 0.0
C9787 C 0.08989 0.6874 0.61056 0.0
C9788 C 0.10332 0.70888 0.6212 0.0
C9789 C 0.09795 0.69679 0.61891 0.0
C9790 C 0.10841 0.71312 0.62463 0.0
C9791 C 0.11302 0.71009 0.62969 0.0
C9792 C 0.1028 0.7016 0.62289 0.0
C9793 C 0.11218 0.70285 0.6314 0.0
C9794 C 0.09647 0.68989 0.62143 0.0
C9795 C 0.09131 0.69441 0.60832 0.0
N9796 N 0.10719 0.69885 0.62799 0.0
N9797 N 0.09527 0.69885 0.61248 0.0
H9798 H 0.06434 0.33932 0.35564 0.0
H9799 H 0.06111 0.36861 0.38622 0.0
H9800 H 0.08156 0.34452 0.37 0.0
H9801 H 0.04287 0.36015 0.37504 0.0
H9802 H 0.06863 0.35955 0.38058 0.0
H9803 H 0.05628 0.34664 0.36286 0.0
C9804 C 0.06641 0.34197 0.36034 0.0
C9805 C 0.07364 0.34134 0.3622 0.0
C9806 C 0.06297 0.35961 0.37942 0.0
C9807 C 0.06447 0.34975 0.37047 0.0
C9808 C 0.05869 0.3648 0.38262 0.0
C9809 C 0.05137 0.36514 0.38106 0.0
C9810 C 0.05993 0.3548 0.37454 0.0
C9811 C 0.04848 0.36004 0.37641 0.0
C9812 C 0.0618 0.34612 0.36448 0.0
C9813 C 0.07602 0.34482 0.36839 0.0
N9814 N 0.05278 0.35513 0.37325 0.0
N9815 N 0.07147 0.34893 0.37226 0.0
H9816 H 0.41806 0.68019 0.39324 0.0
H9817 H 0.40089 0.71896 0.38787 0.0
H9818 H 0.41992 0.69702 0.40884 0.0
H9819 H 0.39416 0.70025 0.37628 0.0
H9820 H 0.4097 0.71165 0.39426 0.0
H9821 H 0.41112 0.68819 0.38562 0.0
C9822 C 0.41709 0.68561 0.39502 0.0
C9823 C 0.41954 0.68794 0.4017 0.0
C9824 C 0.40633 0.70917 0.39028 0.0
C9825 C 0.41156 0.6971 0.39303 0.0
C9826 C 0.40135 0.71334 0.3866 0.0
C9827 C 0.39678 0.71018 0.38158 0.0
C9828 C 0.40678 0.70182 0.38885 0.0
C9829 C 0.39754 0.70286 0.38017 0.0
C9830 C 0.41309 0.69015 0.39069 0.0
C9831 C 0.41805 0.69499 0.40376 0.0
N9832 N 0.40243 0.69893 0.3838 0.0
N9833 N 0.41414 0.69932 0.39945 0.0
H9834 H 0.06808 0.67356 0.15174 0.0
H9835 H 0.06295 0.64098 0.12461 0.0
H9836 H 0.0855 0.66183 0.14229 0.0
H9837 H 0.04551 0.6515 0.13536 0.0
H9838 H 0.07121 0.64956 0.1299 0.0
H9839 H 0.05968 0.6666 0.14458 0.0
C9840 C 0.07014 0.66959 0.14809 0.0
C9841 C 0.0775 0.66823 0.14766 0.0
C9842 C 0.06557 0.65003 0.13106 0.0
C9843 C 0.06791 0.66018 0.13951 0.0
C9844 C 0.06085 0.64512 0.12806 0.0
C9845 C 0.05353 0.64547 0.1296 0.0
C9846 C 0.06296 0.65535 0.13566 0.0
C9847 C 0.0511 0.65104 0.13399 0.0
C9848 C 0.06534 0.66558 0.14403 0.0
C9849 C 0.07986 0.66297 0.14288 0.0
N9850 N 0.05581 0.65572 0.13691 0.0
N9851 N 0.07509 0.65912 0.13903 0.0
H9852 H 0.08733 0.31322 0.90508 0.0
H9853 H 0.11902 0.31105 0.87698 0.0
H9854 H 0.09393 0.33105 0.89212 0.0
H9855 H 0.10893 0.29231 0.8857 0.0
H9856 H 0.10966 0.31843 0.8823 0.0
H9857 H 0.09498 0.30538 0.89793 0.0
C9858 C 0.09035 0.31547 0.90069 0.0
C9859 C 0.09002 0.3228 0.89921 0.0
C9860 C 0.10943 0.3127 0.88299 0.0
C9861 C 0.0988 0.31389 0.89105 0.0
C9862 C 0.11478 0.3085 0.87997 0.0
C9863 C 0.11475 0.30108 0.88094 0.0
C9864 C 0.10407 0.30947 0.88711 0.0
C9865 C 0.10912 0.29801 0.88481 0.0
C9866 C 0.09468 0.31099 0.8966 0.0
C9867 C 0.09398 0.32543 0.89342 0.0
N9868 N 0.10405 0.30223 0.88784 0.0
N9869 N 0.09827 0.32099 0.88961 0.0
H9870 H 0.42465 0.34914 0.64213 0.0
H9871 H 0.46591 0.35687 0.63444 0.0
H9872 H 0.4418 0.33642 0.65075 0.0
H9873 H 0.44867 0.37032 0.62722 0.0
H9874 H 0.45714 0.34831 0.63897 0.0
H9875 H 0.43334 0.35597 0.63526 0.0
C9876 C 0.43025 0.34776 0.64255 0.0
C9877 C 0.43251 0.34226 0.64709 0.0
C9878 C 0.45528 0.35311 0.63633 0.0
C9879 C 0.44251 0.35005 0.63921 0.0
C9880 C 0.46028 0.35797 0.6337 0.0
C9881 C 0.45801 0.36435 0.63052 0.0
C9882 C 0.44796 0.35464 0.63576 0.0
C9883 C 0.45065 0.36553 0.62976 0.0
C9884 C 0.43521 0.35165 0.6386 0.0
C9885 C 0.43982 0.34061 0.6473 0.0
N9886 N 0.4459 0.36075 0.63241 0.0
N9887 N 0.44457 0.34454 0.64348 0.0
H9888 H 0.11773 0.41937 0.32986 0.0
H9889 H 0.12294 0.40134 0.29149 0.0
H9890 H 0.10207 0.42081 0.31305 0.0
H9891 H 0.13464 0.39505 0.31027 0.0
H9892 H 0.11665 0.41036 0.2986 0.0
H9893 H 0.12537 0.41233 0.32198 0.0
C9894 C 0.11594 0.41829 0.32447 0.0
C9895 C 0.10924 0.42065 0.32212 0.0
C9896 C 0.12064 0.40705 0.30114 0.0
C9897 C 0.11793 0.41255 0.31309 0.0
C9898 C 0.12426 0.40194 0.29708 0.0
C9899 C 0.12927 0.39743 0.30032 0.0
C9900 C 0.12211 0.40768 0.30846 0.0
C9901 C 0.13075 0.39838 0.3076 0.0
C9902 C 0.12029 0.41423 0.32 0.0
C9903 C 0.10716 0.41902 0.3151 0.0
N9904 N 0.12717 0.40339 0.31143 0.0
N9905 N 0.11149 0.41505 0.31084 0.0
H9906 H 0.33838 0.35258 0.06216 0.0
H9907 H 0.36865 0.38214 0.05987 0.0
H9908 H 0.34366 0.36653 0.0797 0.0
H9909 H 0.35925 0.37265 0.04115 0.0
H9910 H 0.35942 0.37655 0.06721 0.0
H9911 H 0.34589 0.35985 0.05431 0.0
C9912 C 0.34109 0.3572 0.06434 0.0
C9913 C 0.34042 0.35894 0.0716 0.0
C9914 C 0.35931 0.37575 0.06149 0.0
C9915 C 0.34904 0.36724 0.06267 0.0
C9916 C 0.36458 0.37893 0.05731 0.0
C9917 C 0.36471 0.37782 0.04992 0.0
C9918 C 0.3542 0.37132 0.05826 0.0
C9919 C 0.35931 0.37365 0.04684 0.0
C9920 C 0.34534 0.36136 0.05986 0.0
C9921 C 0.34399 0.36502 0.07413 0.0
N9922 N 0.35432 0.37047 0.05104 0.0
N9923 N 0.3482 0.3689 0.0697 0.0
H9924 H 0.39218 0.59836 0.83388 0.0
H9925 H 0.38412 0.60741 0.79292 0.0
H9926 H 0.40165 0.58684 0.81634 0.0
H9927 H 0.37681 0.62004 0.81071 0.0
H9928 H 0.38915 0.59873 0.80134 0.0
H9929 H 0.38513 0.60527 0.8254 0.0
C9930 C 0.39276 0.59727 0.82824 0.0
C9931 C 0.39759 0.59209 0.82581 0.0
C9932 C 0.38638 0.60337 0.80339 0.0
C9933 C 0.3895 0.59997 0.81604 0.0
C9934 C 0.38348 0.6083 0.7986 0.0
C9935 C 0.38011 0.61449 0.80114 0.0
C9936 C 0.38587 0.60464 0.81077 0.0
C9937 C 0.37947 0.6154 0.80853 0.0
C9938 C 0.38871 0.6012 0.82339 0.0
C9939 C 0.39799 0.59078 0.81844 0.0
N9940 N 0.38235 0.61056 0.81308 0.0
N9941 N 0.39405 0.59475 0.81381 0.0
H9942 H 0.16773 0.64235 0.582 0.0
H9943 H 0.15115 0.63908 0.54276 0.0
H9944 H 0.17145 0.65776 0.56531 0.0
H9945 H 0.14398 0.62664 0.56073 0.0
H9946 H 0.16009 0.64475 0.55041 0.0
H9947 H 0.16052 0.63531 0.57371 0.0
C9948 C 0.16712 0.6442 0.57656 0.0
C9949 C 0.17017 0.65067 0.57435 0.0
C9950 C 0.15659 0.64075 0.55267 0.0
C9951 C 0.16186 0.64268 0.56486 0.0
C9952 C 0.15152 0.63748 0.54829 0.0
C9953 C 0.14679 0.63242 0.55113 0.0
C9954 C 0.15696 0.63891 0.55992 0.0
C9955 C 0.14746 0.63059 0.55836 0.0
C9956 C 0.16295 0.64021 0.57185 0.0
C9957 C 0.16912 0.65285 0.56726 0.0
N9958 N 0.15243 0.63384 0.56251 0.0
N9959 N 0.16503 0.64888 0.56278 0.0
H9960 H 0.10801 0.58656 0.19402 0.0
H9961 H 0.1332 0.62059 0.19941 0.0
H9962 H 0.11604 0.59964 0.17687 0.0
H9963 H 0.1253 0.60796 0.21693 0.0
H9964 H 0.12795 0.61211 0.19106 0.0
H9965 H 0.11528 0.59343 0.20246 0.0
C9966 C 0.11137 0.59082 0.19202 0.0
C9967 C 0.11135 0.59259 0.18474 0.0
C9968 C 0.1274 0.61114 0.19672 0.0
C9969 C 0.11963 0.60049 0.19435 0.0
C9970 C 0.13038 0.61599 0.20149 0.0
C9971 C 0.12961 0.61502 0.20887 0.0
C9972 C 0.12354 0.60526 0.19933 0.0
C9973 C 0.12602 0.6089 0.21128 0.0
C9974 C 0.11549 0.59475 0.19684 0.0
C9975 C 0.11577 0.59818 0.18245 0.0
N9976 N 0.12304 0.60429 0.20652 0.0
N9977 N 0.11969 0.60195 0.18724 0.0
H9978 H 0.17321 0.35491 0.94827 0.0
H9979 H 0.14361 0.3854 0.94935 0.0
H9980 H 0.16839 0.36855 0.93037 0.0
H9981 H 0.15145 0.37497 0.96829 0.0
H9982 H 0.15289 0.37946 0.94238 0.0
H9983 H 0.16552 0.36233 0.9558 0.0
C9984 C 0.17057 0.3595 0.94594 0.0
C9985 C 0.17141 0.36109 0.93868 0.0
C9986 C 0.15264 0.37852 0.94807 0.0
C9987 C 0.1626 0.36958 0.94724 0.0
C9988 C 0.14732 0.38189 0.95204 0.0
C9989 C 0.14674 0.38063 0.95939 0.0
C9990 C 0.15736 0.37378 0.95145 0.0
C9991 C 0.15174 0.37609 0.96264 0.0
C9992 C 0.16621 0.36374 0.95025 0.0
C9993 C 0.16794 0.36715 0.93595 0.0
N9994 N 0.15679 0.37276 0.95863 0.0
N9995 N 0.16363 0.37112 0.94022 0.0
H9996 H 0.40259 0.42414 0.69438 0.0
H9997 H 0.37712 0.39024 0.69912 0.0
H9998 H 0.39456 0.41139 0.67698 0.0
H9999 H 0.3849 0.40268 0.71685 0.0
H10000 H 0.38247 0.3988 0.69091 0.0
H10001 H 0.39517 0.41725 0.70265 0.0
C10002 C 0.3992 0.41996 0.69229 0.0
C10003 C 0.39926 0.41828 0.68498 0.0
C10004 C 0.38297 0.39971 0.69659 0.0
C10005 C 0.39081 0.41035 0.69441 0.0
C10006 C 0.37993 0.39482 0.70128 0.0
C10007 C 0.38064 0.39572 0.70867 0.0
C10008 C 0.38683 0.40554 0.6993 0.0
C10009 C 0.38423 0.4018 0.71119 0.0
C10010 C 0.39499 0.41601 0.69701 0.0
C10011 C 0.39479 0.41277 0.68258 0.0
N10012 N 0.38726 0.40644 0.7065 0.0
N10013 N 0.39079 0.40899 0.68728 0.0
H10014 H 0.3368 0.65239 0.44362 0.0
H10015 H 0.36848 0.62424 0.44864 0.0
H10016 H 0.34734 0.64154 0.42627 0.0
H10017 H 0.3582 0.63495 0.46622 0.0
H10018 H 0.35986 0.62961 0.44049 0.0
H10019 H 0.34359 0.64512 0.4521 0.0
C10020 C 0.34046 0.64841 0.44159 0.0
C10021 C 0.34156 0.64763 0.43423 0.0
C10022 C 0.35944 0.63075 0.44613 0.0
C10023 C 0.3494 0.63935 0.44388 0.0
C10024 C 0.36437 0.6277 0.45078 0.0
C10025 C 0.3641 0.62921 0.4581 0.0
C10026 C 0.3542 0.6354 0.4488 0.0
C10027 C 0.35859 0.63363 0.46062 0.0
C10028 C 0.34437 0.64429 0.44643 0.0
C10029 C 0.34642 0.64242 0.4319 0.0
N10030 N 0.3539 0.63664 0.45596 0.0
N10031 N 0.35019 0.63853 0.4367 0.0
H10032 H 0.31324 0.1065 0.42299 0.0
H10033 H 0.31091 0.13463 0.39144 0.0
H10034 H 0.33107 0.11945 0.41634 0.0
H10035 H 0.29223 0.1259 0.40162 0.0
H10036 H 0.31833 0.12944 0.40083 0.0
H10037 H 0.30535 0.11377 0.41553 0.0
C10038 C 0.31548 0.11092 0.42 0.0
C10039 C 0.32282 0.11235 0.42025 0.0
C10040 C 0.3126 0.12874 0.40108 0.0
C10041 C 0.31385 0.12066 0.41168 0.0
C10042 C 0.30838 0.13168 0.39572 0.0
C10043 C 0.30097 0.13065 0.39575 0.0
C10044 C 0.30941 0.12461 0.40646 0.0
C10045 C 0.29792 0.12683 0.40142 0.0
C10046 C 0.31097 0.11508 0.41578 0.0
C10047 C 0.32543 0.11818 0.41634 0.0
N10048 N 0.30217 0.12386 0.40651 0.0
N10049 N 0.32097 0.12206 0.41215 0.0
H10050 H 0.83064 0.39263 0.59506 0.0
H10051 H 0.79072 0.38599 0.6088 0.0
H10052 H 0.8126 0.405 0.58785 0.0
H10053 H 0.80949 0.3783 0.61966 0.0
H10054 H 0.79839 0.39127 0.59959 0.0
H10055 H 0.82264 0.38558 0.60257 0.0
C10056 C 0.82498 0.39379 0.59498 0.0
C10057 C 0.82229 0.39943 0.59086 0.0
C10058 C 0.80082 0.38838 0.60396 0.0
C10059 C 0.81311 0.39143 0.59949 0.0
C10060 C 0.79645 0.38533 0.60918 0.0
C10061 C 0.79949 0.38176 0.61501 0.0
C10062 C 0.80827 0.38777 0.60455 0.0
C10063 C 0.80694 0.3811 0.61529 0.0
C10064 C 0.82043 0.3898 0.5993 0.0
C10065 C 0.81491 0.40075 0.59102 0.0
N10066 N 0.81108 0.38409 0.61015 0.0
N10067 N 0.81058 0.3968 0.59529 0.0
H10068 H 0.35758 0.06504 0.33617 0.0
H10069 H 0.38618 0.061 0.36758 0.0
H10070 H 0.36833 0.0827 0.34631 0.0
H10071 H 0.37483 0.04316 0.35849 0.0
H10072 H 0.38086 0.06881 0.35864 0.0
H10073 H 0.36498 0.05676 0.34308 0.0
C10074 C 0.36157 0.06718 0.33978 0.0
C10075 C 0.36228 0.07457 0.34073 0.0
C10076 C 0.37957 0.06318 0.35854 0.0
C10077 C 0.37072 0.06515 0.34868 0.0
C10078 C 0.3826 0.05872 0.36365 0.0
C10079 C 0.38087 0.05144 0.36383 0.0
C10080 C 0.37472 0.06036 0.35357 0.0
C10081 C 0.37631 0.04875 0.35854 0.0
C10082 C 0.36576 0.06245 0.34374 0.0
C10083 C 0.3675 0.07704 0.34551 0.0
N10084 N 0.37331 0.05322 0.35367 0.0
N10085 N 0.37147 0.07235 0.34933 0.0
H10086 H 0.68056 0.61931 0.09251 0.0
H10087 H 0.7194 0.62415 0.10966 0.0
H10088 H 0.69762 0.60411 0.08965 0.0
H10089 H 0.70068 0.63542 0.11688 0.0
H10090 H 0.71214 0.61826 0.10049 0.0
H10091 H 0.68857 0.62677 0.09961 0.0
C10092 C 0.68603 0.6176 0.09328 0.0
C10093 C 0.68842 0.61106 0.09052 0.0
C10094 C 0.70965 0.62207 0.10404 0.0
C10095 C 0.69759 0.61953 0.0987 0.0
C10096 C 0.71379 0.62547 0.10923 0.0
C10097 C 0.71061 0.63023 0.11405 0.0
C10098 C 0.7023 0.62353 0.10364 0.0
C10099 C 0.70331 0.63171 0.11332 0.0
C10100 C 0.69058 0.62183 0.09738 0.0
C10101 C 0.69554 0.60906 0.09176 0.0
N10102 N 0.69939 0.62835 0.10823 0.0
N10103 N 0.69987 0.61327 0.09579 0.0
H10104 H 0.65265 0.44524 0.33665 0.0
H10105 H 0.624 0.44935 0.36801 0.0
H10106 H 0.64207 0.42758 0.34692 0.0
H10107 H 0.63502 0.46722 0.35859 0.0
H10108 H 0.62953 0.44146 0.35926 0.0
H10109 H 0.64521 0.45351 0.34352 0.0
C10110 C 0.6487 0.4431 0.34028 0.0
C10111 C 0.64803 0.43571 0.34127 0.0
C10112 C 0.63071 0.44711 0.35906 0.0
C10113 C 0.63956 0.44513 0.3492 0.0
C10114 C 0.62756 0.45161 0.36406 0.0
C10115 C 0.62912 0.45893 0.36408 0.0
C10116 C 0.6355 0.44992 0.35403 0.0
C10117 C 0.63367 0.46161 0.35876 0.0
C10118 C 0.64448 0.44783 0.34423 0.0
C10119 C 0.64286 0.43323 0.34609 0.0
N10120 N 0.63677 0.45709 0.35399 0.0
N10121 N 0.63886 0.43793 0.34989 0.0
H10122 H 0.17968 0.89232 0.91719 0.0
H10123 H 0.21852 0.88625 0.90041 0.0
H10124 H 0.19737 0.90663 0.92072 0.0
H10125 H 0.19957 0.87539 0.89316 0.0
H10126 H 0.21135 0.89243 0.90944 0.0
H10127 H 0.18744 0.88472 0.90997 0.0
C10128 C 0.18523 0.89381 0.91653 0.0
C10129 C 0.18787 0.90014 0.91953 0.0
C10130 C 0.20878 0.88866 0.90591 0.0
C10131 C 0.19677 0.8915 0.91121 0.0
C10132 C 0.21287 0.8851 0.90079 0.0
C10133 C 0.20962 0.88035 0.89601 0.0
C10134 C 0.2014 0.88739 0.90628 0.0
C10135 C 0.20227 0.87908 0.89669 0.0
C10136 C 0.18964 0.88949 0.91237 0.0
C10137 C 0.19509 0.90185 0.91843 0.0
N10138 N 0.1984 0.8826 0.90171 0.0
N10139 N 0.19928 0.89756 0.91433 0.0
H10140 H 0.36669 0.93668 0.17378 0.0
H10141 H 0.36627 0.96209 0.13985 0.0
H10142 H 0.34749 0.9426 0.16251 0.0
H10143 H 0.38455 0.96037 0.1537 0.0
H10144 H 0.35924 0.95525 0.14842 0.0
H10145 H 0.37328 0.94566 0.16696 0.0
C10146 C 0.36383 0.93993 0.16995 0.0
C10147 C 0.35653 0.9388 0.16865 0.0
C10148 C 0.36477 0.95642 0.14964 0.0
C10149 C 0.36407 0.949 0.16075 0.0
C10150 C 0.36878 0.9603 0.14474 0.0
C10151 C 0.376 0.96173 0.14606 0.0
C10152 C 0.36802 0.95384 0.15588 0.0
C10153 C 0.37899 0.95937 0.15251 0.0
C10154 C 0.36761 0.94504 0.16604 0.0
C10155 C 0.35314 0.94315 0.16358 0.0
N10156 N 0.37501 0.95544 0.15715 0.0
N10157 N 0.35694 0.94799 0.15978 0.0
H10158 H 0.14173 0.08509 0.66219 0.0
H10159 H 0.13458 0.04443 0.65141 0.0
H10160 H 0.15176 0.06723 0.67269 0.0
H10161 H 0.12501 0.06247 0.64077 0.0
H10162 H 0.13976 0.05256 0.66022 0.0
H10163 H 0.13451 0.07679 0.65522 0.0
C10164 C 0.14239 0.07941 0.66305 0.0
C10165 C 0.14741 0.07685 0.66797 0.0
C10166 C 0.13647 0.05473 0.656 0.0
C10167 C 0.13915 0.06729 0.66001 0.0
C10168 C 0.13347 0.05009 0.65099 0.0
C10169 C 0.12941 0.05279 0.6453 0.0
C10170 C 0.1354 0.06212 0.65531 0.0
C10171 C 0.12821 0.06017 0.64499 0.0
C10172 C 0.13824 0.07467 0.65909 0.0
C10173 C 0.14794 0.06944 0.66897 0.0
N10174 N 0.13124 0.06458 0.64989 0.0
N10175 N 0.14391 0.06491 0.66497 0.0
loop_
_geom_bond_atom_site_label_1
_geom_bond_atom_site_label_2
_geom_bond_distance
_geom_bond_site_symmetry_2
_ccdc_geom_bond_type
C0 C1 1.264 . S
C0 C5 1.479 . S
C0 C10 1.465 . S
C1 C0 1.264 . S
C1 C3 1.339 . S
C1 H28 0.931 . S
C2 C3 1.395 . S
C2 C4 1.320 . S
C3 C1 1.339 . S
C3 C2 1.395 . S
C3 H29 0.929 . S
C4 C2 1.320 . S
C4 C5 1.405 . S
C4 H30 0.930 . S
C5 C0 1.479 . S
C5 C4 1.405 . S
C5 H31 0.931 . S
U6 O7 2.454 . S
U6 O8 2.458 . S
U6 C9 2.984 . S
U6 C10 2.847 . S
U6 C23 2.882 . S
U6 O24 2.441 . S
U6 O25 2.420 . S
U6 O26 2.455 . S
U6 O27 2.449 . S
O7 U6 2.454 . S
O7 C9 1.353 . S
O8 U6 2.458 . S
O8 C9 1.286 . S
C9 U6 2.984 . S
C9 O7 1.353 . S
C9 O8 1.286 . S
C9 C11 1.363 . S
C10 C0 1.465 . S
C10 U6 2.847 . S
C10 O24 1.249 . S
C10 O25 1.202 . S
C11 C9 1.363 . S
C11 C13 1.408 . S
C11 C16 1.342 . S
C12 C13 1.310 . S
C12 C15 1.461 . S
C12 H32 0.932 . S
C13 C11 1.408 . S
C13 C12 1.310 . S
C13 H33 0.930 . S
C14 C15 1.474 . S
C14 C16 1.285 . S
C14 H34 0.929 . S
C15 C12 1.461 . S
C15 C14 1.474 . S
C16 C11 1.342 . S
C16 C14 1.285 . S
C16 H35 0.930 . S
C17 C20 1.424 . S
C17 C22 1.245 . S
C17 C23 1.428 . S
C18 C21 1.260 . S
C18 C22 1.477 . S
C18 H36 0.932 . S
C19 C20 1.384 . S
C19 C21 1.479 . S
C19 H37 0.929 . S
C20 C17 1.424 . S
C20 C19 1.384 . S
C20 H38 0.928 . S
C21 C18 1.260 . S
C21 C19 1.479 . S
C22 C17 1.245 . S
C22 C18 1.477 . S
C22 H39 0.932 . S
C23 U6 2.882 . S
C23 C17 1.428 . S
C23 O26 1.301 . S
C23 O27 1.282 . S
O24 U6 2.441 . S
O24 C10 1.249 . S
O25 U6 2.420 . S
O25 C10 1.202 . S
O26 U6 2.455 . S
O26 C23 1.301 . S
O27 U6 2.449 . S
O27 C23 1.282 . S
H28 C1 0.931 . S
H29 C3 0.929 . S
H30 C4 0.930 . S
H31 C5 0.931 . S
H32 C12 0.932 . S
H33 C13 0.930 . S
H34 C14 0.929 . S
H35 C16 0.930 . S
H36 C18 0.932 . S
H37 C19 0.929 . S
H38 C20 0.928 . S
H39 C22 0.932 . S
C40 C41 1.264 . S
C40 C45 1.479 . S
C40 C50 1.465 . S
C41 C40 1.264 . S
C41 C43 1.339 . S
C41 H68 0.931 . S
C42 C43 1.395 . S
C42 C44 1.320 . S
C43 C41 1.339 . S
C43 C42 1.395 . S
C43 H69 0.929 . S
C44 C42 1.320 . S
C44 C45 1.405 . S
C44 H70 0.930 . S
C45 C40 1.479 . S
C45 C44 1.405 . S
C45 H71 0.931 . S
U46 O47 2.454 . S
U46 O48 2.458 . S
U46 C49 2.984 . S
U46 C50 2.847 . S
U46 C63 2.882 . S
U46 O64 2.441 . S
U46 O65 2.420 . S
U46 O66 2.455 . S
U46 O67 2.449 . S
O47 U46 2.454 . S
O47 C49 1.353 . S
O48 U46 2.458 . S
O48 C49 1.286 . S
C49 U46 2.984 . S
C49 O47 1.353 . S
C49 O48 1.286 . S
C49 C51 1.363 . S
C50 C40 1.465 . S
C50 U46 2.847 . S
C50 O64 1.249 . S
C50 O65 1.202 . S
C51 C49 1.363 . S
C51 C53 1.408 . S
C51 C56 1.342 . S
C52 C53 1.310 . S
C52 C55 1.461 . S
C52 H72 0.932 . S
C53 C51 1.408 . S
C53 C52 1.310 . S
C53 H73 0.930 . S
C54 C55 1.474 . S
C54 C56 1.285 . S
C54 H74 0.929 . S
C55 C52 1.461 . S
C55 C54 1.474 . S
C56 C51 1.342 . S
C56 C54 1.285 . S
C56 H75 0.930 . S
C57 C60 1.424 . S
C57 C62 1.245 . S
C57 C63 1.428 . S
C58 C61 1.260 . S
C58 C62 1.477 . S
C58 H76 0.932 . S
C59 C60 1.384 . S
C59 C61 1.479 . S
C59 H77 0.929 . S
C60 C57 1.424 . S
C60 C59 1.384 . S
C60 H78 0.928 . S
C61 C58 1.260 . S
C61 C59 1.479 . S
C62 C57 1.245 . S
C62 C58 1.477 . S
C62 H79 0.932 . S
C63 U46 2.882 . S
C63 C57 1.428 . S
C63 O66 1.301 . S
C63 O67 1.282 . S
O64 U46 2.441 . S
O64 C50 1.249 . S
O65 U46 2.420 . S
O65 C50 1.202 . S
O66 U46 2.455 . S
O66 C63 1.301 . S
O67 U46 2.449 . S
O67 C63 1.282 . S
H68 C41 0.931 . S
H69 C43 0.929 . S
H70 C44 0.930 . S
H71 C45 0.931 . S
H72 C52 0.932 . S
H73 C53 0.930 . S
H74 C54 0.929 . S
H75 C56 0.930 . S
H76 C58 0.932 . S
H77 C59 0.929 . S
H78 C60 0.928 . S
H79 C62 0.932 . S
C80 C81 1.264 . S
C80 C85 1.479 . S
C80 C90 1.465 . S
C81 C80 1.264 . S
C81 C83 1.339 . S
C81 H108 0.931 . S
C82 C83 1.395 . S
C82 C84 1.320 . S
C83 C81 1.339 . S
C83 C82 1.395 . S
C83 H109 0.929 . S
C84 C82 1.320 . S
C84 C85 1.405 . S
C84 H110 0.930 . S
C85 C80 1.479 . S
C85 C84 1.405 . S
C85 H111 0.931 . S
U86 O87 2.454 . S
U86 O88 2.458 . S
U86 C89 2.984 . S
U86 C90 2.847 . S
U86 C103 2.882 . S
U86 O104 2.441 . S
U86 O105 2.420 . S
U86 O106 2.455 . S
U86 O107 2.449 . S
O87 U86 2.454 . S
O87 C89 1.353 . S
O88 U86 2.458 . S
O88 C89 1.286 . S
C89 U86 2.984 . S
C89 O87 1.353 . S
C89 O88 1.286 . S
C89 C91 1.363 . S
C90 C80 1.465 . S
C90 U86 2.847 . S
C90 O104 1.249 . S
C90 O105 1.202 . S
C91 C89 1.363 . S
C91 C93 1.408 . S
C91 C96 1.342 . S
C92 C93 1.310 . S
C92 C95 1.461 . S
C92 H112 0.932 . S
C93 C91 1.408 . S
C93 C92 1.310 . S
C93 H113 0.930 . S
C94 C95 1.474 . S
C94 C96 1.285 . S
C94 H114 0.929 . S
C95 C92 1.461 . S
C95 C94 1.474 . S
C96 C91 1.342 . S
C96 C94 1.285 . S
C96 H115 0.930 . S
C97 C100 1.424 . S
C97 C102 1.245 . S
C97 C103 1.428 . S
C98 C101 1.260 . S
C98 C102 1.477 . S
C98 H116 0.932 . S
C99 C100 1.384 . S
C99 C101 1.479 . S
C99 H117 0.929 . S
C100 C97 1.424 . S
C100 C99 1.384 . S
C100 H118 0.928 . S
C101 C98 1.260 . S
C101 C99 1.479 . S
C102 C97 1.245 . S
C102 C98 1.477 . S
C102 H119 0.932 . S
C103 U86 2.882 . S
C103 C97 1.428 . S
C103 O106 1.301 . S
C103 O107 1.282 . S
O104 U86 2.441 . S
O104 C90 1.249 . S
O105 U86 2.420 . S
O105 C90 1.202 . S
O106 U86 2.455 . S
O106 C103 1.301 . S
O107 U86 2.449 . S
O107 C103 1.282 . S
H108 C81 0.931 . S
H109 C83 0.929 . S
H110 C84 0.930 . S
H111 C85 0.931 . S
H112 C92 0.932 . S
H113 C93 0.930 . S
H114 C94 0.929 . S
H115 C96 0.930 . S
H116 C98 0.932 . S
H117 C99 0.929 . S
H118 C100 0.928 . S
H119 C102 0.932 . S
C120 C121 1.264 . S
C120 C125 1.479 . S
C120 C130 1.465 . S
C121 C120 1.264 . S
C121 C123 1.339 . S
C121 H148 0.931 . S
C122 C123 1.395 . S
C122 C124 1.320 . S
C123 C121 1.339 . S
C123 C122 1.395 . S
C123 H149 0.929 . S
C124 C122 1.320 . S
C124 C125 1.405 . S
C124 H150 0.930 . S
C125 C120 1.479 . S
C125 C124 1.405 . S
C125 H151 0.931 . S
U126 O127 2.454 . S
U126 O128 2.458 . S
U126 C129 2.984 . S
U126 C130 2.847 . S
U126 C143 2.882 . S
U126 O144 2.441 . S
U126 O145 2.420 . S
U126 O146 2.455 . S
U126 O147 2.449 . S
O127 U126 2.454 . S
O127 C129 1.353 . S
O128 U126 2.458 . S
O128 C129 1.286 . S
C129 U126 2.984 . S
C129 O127 1.353 . S
C129 O128 1.286 . S
C129 C131 1.363 . S
C130 C120 1.465 . S
C130 U126 2.847 . S
C130 O144 1.249 . S
C130 O145 1.202 . S
C131 C129 1.363 . S
C131 C133 1.408 . S
C131 C136 1.342 . S
C132 C133 1.310 . S
C132 C135 1.461 . S
C132 H152 0.932 . S
C133 C131 1.408 . S
C133 C132 1.310 . S
C133 H153 0.930 . S
C134 C135 1.474 . S
C134 C136 1.285 . S
C134 H154 0.929 . S
C135 C132 1.461 . S
C135 C134 1.474 . S
C136 C131 1.342 . S
C136 C134 1.285 . S
C136 H155 0.930 . S
C137 C140 1.424 . S
C137 C142 1.245 . S
C137 C143 1.428 . S
C138 C141 1.260 . S
C138 C142 1.477 . S
C138 H156 0.932 . S
C139 C140 1.384 . S
C139 C141 1.479 . S
C139 H157 0.929 . S
C140 C137 1.424 . S
C140 C139 1.384 . S
C140 H158 0.928 . S
C141 C138 1.260 . S
C141 C139 1.479 . S
C142 C137 1.245 . S
C142 C138 1.477 . S
C142 H159 0.932 . S
C143 U126 2.882 . S
C143 C137 1.428 . S
C143 O146 1.301 . S
C143 O147 1.282 . S
O144 U126 2.441 . S
O144 C130 1.249 . S
O145 U126 2.420 . S
O145 C130 1.202 . S
O146 U126 2.455 . S
O146 C143 1.301 . S
O147 U126 2.449 . S
O147 C143 1.282 . S
H148 C121 0.931 . S
H149 C123 0.929 . S
H150 C124 0.930 . S
H151 C125 0.931 . S
H152 C132 0.932 . S
H153 C133 0.930 . S
H154 C134 0.929 . S
H155 C136 0.930 . S
H156 C138 0.932 . S
H157 C139 0.929 . S
H158 C140 0.928 . S
H159 C142 0.932 . S
C160 C161 1.264 . S
C160 C165 1.479 . S
C160 C170 1.465 . S
C161 C160 1.264 . S
C161 C163 1.339 . S
C161 H188 0.931 . S
C162 C163 1.395 . S
C162 C164 1.320 . S
C163 C161 1.339 . S
C163 C162 1.395 . S
C163 H189 0.929 . S
C164 C162 1.320 . S
C164 C165 1.405 . S
C164 H190 0.930 . S
C165 C160 1.479 . S
C165 C164 1.405 . S
C165 H191 0.931 . S
U166 O167 2.454 . S
U166 O168 2.458 . S
U166 C169 2.984 . S
U166 C170 2.847 . S
U166 C183 2.882 . S
U166 O184 2.441 . S
U166 O185 2.420 . S
U166 O186 2.455 . S
U166 O187 2.449 . S
O167 U166 2.454 . S
O167 C169 1.353 . S
O168 U166 2.458 . S
O168 C169 1.286 . S
C169 U166 2.984 . S
C169 O167 1.353 . S
C169 O168 1.286 . S
C169 C171 1.363 . S
C170 C160 1.465 . S
C170 U166 2.847 . S
C170 O184 1.249 . S
C170 O185 1.202 . S
C171 C169 1.363 . S
C171 C173 1.408 . S
C171 C176 1.342 . S
C172 C173 1.310 . S
C172 C175 1.461 . S
C172 H192 0.932 . S
C173 C171 1.408 . S
C173 C172 1.310 . S
C173 H193 0.930 . S
C174 C175 1.474 . S
C174 C176 1.285 . S
C174 H194 0.929 . S
C175 C172 1.461 . S
C175 C174 1.474 . S
C176 C171 1.342 . S
C176 C174 1.285 . S
C176 H195 0.930 . S
C177 C180 1.424 . S
C177 C182 1.245 . S
C177 C183 1.428 . S
C178 C181 1.260 . S
C178 C182 1.477 . S
C178 H196 0.932 . S
C179 C180 1.384 . S
C179 C181 1.479 . S
C179 H197 0.929 . S
C180 C177 1.424 . S
C180 C179 1.384 . S
C180 H198 0.928 . S
C181 C178 1.260 . S
C181 C179 1.479 . S
C182 C177 1.245 . S
C182 C178 1.477 . S
C182 H199 0.932 . S
C183 U166 2.882 . S
C183 C177 1.428 . S
C183 O186 1.301 . S
C183 O187 1.282 . S
O184 U166 2.441 . S
O184 C170 1.249 . S
O185 U166 2.420 . S
O185 C170 1.202 . S
O186 U166 2.455 . S
O186 C183 1.301 . S
O187 U166 2.449 . S
O187 C183 1.282 . S
H188 C161 0.931 . S
H189 C163 0.929 . S
H190 C164 0.930 . S
H191 C165 0.931 . S
H192 C172 0.932 . S
H193 C173 0.930 . S
H194 C174 0.929 . S
H195 C176 0.930 . S
H196 C178 0.932 . S
H197 C179 0.929 . S
H198 C180 0.928 . S
H199 C182 0.932 . S
C200 C201 1.264 . S
C200 C205 1.479 . S
C200 C210 1.465 . S
C201 C200 1.264 . S
C201 C203 1.339 . S
C201 H228 0.931 . S
C202 C203 1.395 . S
C202 C204 1.320 . S
C203 C201 1.339 . S
C203 C202 1.395 . S
C203 H229 0.929 . S
C204 C202 1.320 . S
C204 C205 1.405 . S
C204 H230 0.930 . S
C205 C200 1.479 . S
C205 C204 1.405 . S
C205 H231 0.931 . S
U206 O207 2.454 . S
U206 O208 2.458 . S
U206 C209 2.984 . S
U206 C210 2.847 . S
U206 C223 2.882 . S
U206 O224 2.441 . S
U206 O225 2.420 . S
U206 O226 2.455 . S
U206 O227 2.449 . S
O207 U206 2.454 . S
O207 C209 1.353 . S
O208 U206 2.458 . S
O208 C209 1.286 . S
C209 U206 2.984 . S
C209 O207 1.353 . S
C209 O208 1.286 . S
C209 C211 1.363 . S
C210 C200 1.465 . S
C210 U206 2.847 . S
C210 O224 1.249 . S
C210 O225 1.202 . S
C211 C209 1.363 . S
C211 C213 1.408 . S
C211 C216 1.342 . S
C212 C213 1.310 . S
C212 C215 1.461 . S
C212 H232 0.932 . S
C213 C211 1.408 . S
C213 C212 1.310 . S
C213 H233 0.930 . S
C214 C215 1.474 . S
C214 C216 1.285 . S
C214 H234 0.929 . S
C215 C212 1.461 . S
C215 C214 1.474 . S
C216 C211 1.342 . S
C216 C214 1.285 . S
C216 H235 0.930 . S
C217 C220 1.424 . S
C217 C222 1.245 . S
C217 C223 1.428 . S
C218 C221 1.260 . S
C218 C222 1.477 . S
C218 H236 0.932 . S
C219 C220 1.384 . S
C219 C221 1.479 . S
C219 H237 0.929 . S
C220 C217 1.424 . S
C220 C219 1.384 . S
C220 H238 0.928 . S
C221 C218 1.260 . S
C221 C219 1.479 . S
C222 C217 1.245 . S
C222 C218 1.477 . S
C222 H239 0.932 . S
C223 U206 2.882 . S
C223 C217 1.428 . S
C223 O226 1.301 . S
C223 O227 1.282 . S
O224 U206 2.441 . S
O224 C210 1.249 . S
O225 U206 2.420 . S
O225 C210 1.202 . S
O226 U206 2.455 . S
O226 C223 1.301 . S
O227 U206 2.449 . S
O227 C223 1.282 . S
H228 C201 0.931 . S
H229 C203 0.929 . S
H230 C204 0.930 . S
H231 C205 0.931 . S
H232 C212 0.932 . S
H233 C213 0.930 . S
H234 C214 0.929 . S
H235 C216 0.930 . S
H236 C218 0.932 . S
H237 C219 0.929 . S
H238 C220 0.928 . S
H239 C222 0.932 . S
C240 C241 1.264 . S
C240 C245 1.479 . S
C240 C250 1.465 . S
C241 C240 1.264 . S
C241 C243 1.339 . S
C241 H268 0.931 . S
C242 C243 1.395 . S
C242 C244 1.320 . S
C243 C241 1.339 . S
C243 C242 1.395 . S
C243 H269 0.929 . S
C244 C242 1.320 . S
C244 C245 1.405 . S
C244 H270 0.930 . S
C245 C240 1.479 . S
C245 C244 1.405 . S
C245 H271 0.931 . S
U246 O247 2.454 . S
U246 O248 2.458 . S
U246 C249 2.984 . S
U246 C250 2.847 . S
U246 C263 2.882 . S
U246 O264 2.441 . S
U246 O265 2.420 . S
U246 O266 2.455 . S
U246 O267 2.449 . S
O247 U246 2.454 . S
O247 C249 1.353 . S
O248 U246 2.458 . S
O248 C249 1.286 . S
C249 U246 2.984 . S
C249 O247 1.353 . S
C249 O248 1.286 . S
C249 C251 1.363 . S
C250 C240 1.465 . S
C250 U246 2.847 . S
C250 O264 1.249 . S
C250 O265 1.202 . S
C251 C249 1.363 . S
C251 C253 1.408 . S
C251 C256 1.342 . S
C252 C253 1.310 . S
C252 C255 1.461 . S
C252 H272 0.932 . S
C253 C251 1.408 . S
C253 C252 1.310 . S
C253 H273 0.930 . S
C254 C255 1.474 . S
C254 C256 1.285 . S
C254 H274 0.929 . S
C255 C252 1.461 . S
C255 C254 1.474 . S
C256 C251 1.342 . S
C256 C254 1.285 . S
C256 H275 0.930 . S
C257 C260 1.424 . S
C257 C262 1.245 . S
C257 C263 1.428 . S
C258 C261 1.260 . S
C258 C262 1.477 . S
C258 H276 0.932 . S
C259 C260 1.384 . S
C259 C261 1.479 . S
C259 H277 0.929 . S
C260 C257 1.424 . S
C260 C259 1.384 . S
C260 H278 0.928 . S
C261 C258 1.260 . S
C261 C259 1.479 . S
C262 C257 1.245 . S
C262 C258 1.477 . S
C262 H279 0.932 . S
C263 U246 2.882 . S
C263 C257 1.428 . S
C263 O266 1.301 . S
C263 O267 1.282 . S
O264 U246 2.441 . S
O264 C250 1.249 . S
O265 U246 2.420 . S
O265 C250 1.202 . S
O266 U246 2.455 . S
O266 C263 1.301 . S
O267 U246 2.449 . S
O267 C263 1.282 . S
H268 C241 0.931 . S
H269 C243 0.929 . S
H270 C244 0.930 . S
H271 C245 0.931 . S
H272 C252 0.932 . S
H273 C253 0.930 . S
H274 C254 0.929 . S
H275 C256 0.930 . S
H276 C258 0.932 . S
H277 C259 0.929 . S
H278 C260 0.928 . S
H279 C262 0.932 . S
C280 C281 1.264 . S
C280 C285 1.479 . S
C280 C290 1.465 . S
C281 C280 1.264 . S
C281 C283 1.339 . S
C281 H308 0.931 . S
C282 C283 1.395 . S
C282 C284 1.320 . S
C283 C281 1.339 . S
C283 C282 1.395 . S
C283 H309 0.929 . S
C284 C282 1.320 . S
C284 C285 1.405 . S
C284 H310 0.930 . S
C285 C280 1.479 . S
C285 C284 1.405 . S
C285 H311 0.931 . S
U286 O287 2.454 . S
U286 O288 2.458 . S
U286 C289 2.984 . S
U286 C290 2.847 . S
U286 C303 2.882 . S
U286 O304 2.441 . S
U286 O305 2.420 . S
U286 O306 2.455 . S
U286 O307 2.449 . S
O287 U286 2.454 . S
O287 C289 1.353 . S
O288 U286 2.458 . S
O288 C289 1.286 . S
C289 U286 2.984 . S
C289 O287 1.353 . S
C289 O288 1.286 . S
C289 C291 1.363 . S
C290 C280 1.465 . S
C290 U286 2.847 . S
C290 O304 1.249 . S
C290 O305 1.202 . S
C291 C289 1.363 . S
C291 C293 1.408 . S
C291 C296 1.342 . S
C292 C293 1.310 . S
C292 C295 1.461 . S
C292 H312 0.932 . S
C293 C291 1.408 . S
C293 C292 1.310 . S
C293 H313 0.930 . S
C294 C295 1.474 . S
C294 C296 1.285 . S
C294 H314 0.929 . S
C295 C292 1.461 . S
C295 C294 1.474 . S
C296 C291 1.342 . S
C296 C294 1.285 . S
C296 H315 0.930 . S
C297 C300 1.424 . S
C297 C302 1.245 . S
C297 C303 1.428 . S
C298 C301 1.260 . S
C298 C302 1.477 . S
C298 H316 0.932 . S
C299 C300 1.384 . S
C299 C301 1.479 . S
C299 H317 0.929 . S
C300 C297 1.424 . S
C300 C299 1.384 . S
C300 H318 0.928 . S
C301 C298 1.260 . S
C301 C299 1.479 . S
C302 C297 1.245 . S
C302 C298 1.477 . S
C302 H319 0.932 . S
C303 U286 2.882 . S
C303 C297 1.428 . S
C303 O306 1.301 . S
C303 O307 1.282 . S
O304 U286 2.441 . S
O304 C290 1.249 . S
O305 U286 2.420 . S
O305 C290 1.202 . S
O306 U286 2.455 . S
O306 C303 1.301 . S
O307 U286 2.449 . S
O307 C303 1.282 . S
H308 C281 0.931 . S
H309 C283 0.929 . S
H310 C284 0.930 . S
H311 C285 0.931 . S
H312 C292 0.932 . S
H313 C293 0.930 . S
H314 C294 0.929 . S
H315 C296 0.930 . S
H316 C298 0.932 . S
H317 C299 0.929 . S
H318 C300 0.928 . S
H319 C302 0.932 . S
C320 C321 1.264 . S
C320 C325 1.479 . S
C320 C330 1.465 . S
C321 C320 1.264 . S
C321 C323 1.339 . S
C321 H348 0.931 . S
C322 C323 1.395 . S
C322 C324 1.320 . S
C323 C321 1.339 . S
C323 C322 1.395 . S
C323 H349 0.929 . S
C324 C322 1.320 . S
C324 C325 1.405 . S
C324 H350 0.930 . S
C325 C320 1.479 . S
C325 C324 1.405 . S
C325 H351 0.931 . S
U326 O327 2.454 . S
U326 O328 2.458 . S
U326 C329 2.984 . S
U326 C330 2.847 . S
U326 C343 2.882 . S
U326 O344 2.441 . S
U326 O345 2.420 . S
U326 O346 2.455 . S
U326 O347 2.449 . S
O327 U326 2.454 . S
O327 C329 1.353 . S
O328 U326 2.458 . S
O328 C329 1.286 . S
C329 U326 2.984 . S
C329 O327 1.353 . S
C329 O328 1.286 . S
C329 C331 1.363 . S
C330 C320 1.465 . S
C330 U326 2.847 . S
C330 O344 1.249 . S
C330 O345 1.202 . S
C331 C329 1.363 . S
C331 C333 1.408 . S
C331 C336 1.342 . S
C332 C333 1.310 . S
C332 C335 1.461 . S
C332 H352 0.932 . S
C333 C331 1.408 . S
C333 C332 1.310 . S
C333 H353 0.930 . S
C334 C335 1.474 . S
C334 C336 1.285 . S
C334 H354 0.929 . S
C335 C332 1.461 . S
C335 C334 1.474 . S
C336 C331 1.342 . S
C336 C334 1.285 . S
C336 H355 0.930 . S
C337 C340 1.424 . S
C337 C342 1.245 . S
C337 C343 1.428 . S
C338 C341 1.260 . S
C338 C342 1.477 . S
C338 H356 0.932 . S
C339 C340 1.384 . S
C339 C341 1.479 . S
C339 H357 0.929 . S
C340 C337 1.424 . S
C340 C339 1.384 . S
C340 H358 0.928 . S
C341 C338 1.260 . S
C341 C339 1.479 . S
C342 C337 1.245 . S
C342 C338 1.477 . S
C342 H359 0.932 . S
C343 U326 2.882 . S
C343 C337 1.428 . S
C343 O346 1.301 . S
C343 O347 1.282 . S
O344 U326 2.441 . S
O344 C330 1.249 . S
O345 U326 2.420 . S
O345 C330 1.202 . S
O346 U326 2.455 . S
O346 C343 1.301 . S
O347 U326 2.449 . S
O347 C343 1.282 . S
H348 C321 0.931 . S
H349 C323 0.929 . S
H350 C324 0.930 . S
H351 C325 0.931 . S
H352 C332 0.932 . S
H353 C333 0.930 . S
H354 C334 0.929 . S
H355 C336 0.930 . S
H356 C338 0.932 . S
H357 C339 0.929 . S
H358 C340 0.928 . S
H359 C342 0.932 . S
C360 C361 1.264 . S
C360 C365 1.479 . S
C360 C370 1.465 . S
C361 C360 1.264 . S
C361 C363 1.339 . S
C361 H388 0.931 . S
C362 C363 1.395 . S
C362 C364 1.320 . S
C363 C361 1.339 . S
C363 C362 1.395 . S
C363 H389 0.929 . S
C364 C362 1.320 . S
C364 C365 1.405 . S
C364 H390 0.930 . S
C365 C360 1.479 . S
C365 C364 1.405 . S
C365 H391 0.931 . S
U366 O367 2.454 . S
U366 O368 2.458 . S
U366 C369 2.984 . S
U366 C370 2.847 . S
U366 C383 2.882 . S
U366 O384 2.441 . S
U366 O385 2.420 . S
U366 O386 2.455 . S
U366 O387 2.449 . S
O367 U366 2.454 . S
O367 C369 1.353 . S
O368 U366 2.458 . S
O368 C369 1.286 . S
C369 U366 2.984 . S
C369 O367 1.353 . S
C369 O368 1.286 . S
C369 C371 1.363 . S
C370 C360 1.465 . S
C370 U366 2.847 . S
C370 O384 1.249 . S
C370 O385 1.202 . S
C371 C369 1.363 . S
C371 C373 1.408 . S
C371 C376 1.342 . S
C372 C373 1.310 . S
C372 C375 1.461 . S
C372 H392 0.932 . S
C373 C371 1.408 . S
C373 C372 1.310 . S
C373 H393 0.930 . S
C374 C375 1.474 . S
C374 C376 1.285 . S
C374 H394 0.929 . S
C375 C372 1.461 . S
C375 C374 1.474 . S
C376 C371 1.342 . S
C376 C374 1.285 . S
C376 H395 0.930 . S
C377 C380 1.424 . S
C377 C382 1.245 . S
C377 C383 1.428 . S
C378 C381 1.260 . S
C378 C382 1.477 . S
C378 H396 0.932 . S
C379 C380 1.384 . S
C379 C381 1.479 . S
C379 H397 0.929 . S
C380 C377 1.424 . S
C380 C379 1.384 . S
C380 H398 0.928 . S
C381 C378 1.260 . S
C381 C379 1.479 . S
C382 C377 1.245 . S
C382 C378 1.477 . S
C382 H399 0.932 . S
C383 U366 2.882 . S
C383 C377 1.428 . S
C383 O386 1.301 . S
C383 O387 1.282 . S
O384 U366 2.441 . S
O384 C370 1.249 . S
O385 U366 2.420 . S
O385 C370 1.202 . S
O386 U366 2.455 . S
O386 C383 1.301 . S
O387 U366 2.449 . S
O387 C383 1.282 . S
H388 C361 0.931 . S
H389 C363 0.929 . S
H390 C364 0.930 . S
H391 C365 0.931 . S
H392 C372 0.932 . S
H393 C373 0.930 . S
H394 C374 0.929 . S
H395 C376 0.930 . S
H396 C378 0.932 . S
H397 C379 0.929 . S
H398 C380 0.928 . S
H399 C382 0.932 . S
C400 C401 1.264 . S
C400 C405 1.479 . S
C400 C410 1.465 . S
C401 C400 1.264 . S
C401 C403 1.339 . S
C401 H428 0.931 . S
C402 C403 1.395 . S
C402 C404 1.320 . S
C403 C401 1.339 . S
C403 C402 1.395 . S
C403 H429 0.929 . S
C404 C402 1.320 . S
C404 C405 1.405 . S
C404 H430 0.930 . S
C405 C400 1.479 . S
C405 C404 1.405 . S
C405 H431 0.931 . S
U406 O407 2.454 . S
U406 O408 2.458 . S
U406 C409 2.984 . S
U406 C410 2.847 . S
U406 C423 2.882 . S
U406 O424 2.441 . S
U406 O425 2.420 . S
U406 O426 2.455 . S
U406 O427 2.449 . S
O407 U406 2.454 . S
O407 C409 1.353 . S
O408 U406 2.458 . S
O408 C409 1.286 . S
C409 U406 2.984 . S
C409 O407 1.353 . S
C409 O408 1.286 . S
C409 C411 1.363 . S
C410 C400 1.465 . S
C410 U406 2.847 . S
C410 O424 1.249 . S
C410 O425 1.202 . S
C411 C409 1.363 . S
C411 C413 1.408 . S
C411 C416 1.342 . S
C412 C413 1.310 . S
C412 C415 1.461 . S
C412 H432 0.932 . S
C413 C411 1.408 . S
C413 C412 1.310 . S
C413 H433 0.930 . S
C414 C415 1.474 . S
C414 C416 1.285 . S
C414 H434 0.929 . S
C415 C412 1.461 . S
C415 C414 1.474 . S
C416 C411 1.342 . S
C416 C414 1.285 . S
C416 H435 0.930 . S
C417 C420 1.424 . S
C417 C422 1.245 . S
C417 C423 1.428 . S
C418 C421 1.260 . S
C418 C422 1.477 . S
C418 H436 0.932 . S
C419 C420 1.384 . S
C419 C421 1.479 . S
C419 H437 0.929 . S
C420 C417 1.424 . S
C420 C419 1.384 . S
C420 H438 0.928 . S
C421 C418 1.260 . S
C421 C419 1.479 . S
C422 C417 1.245 . S
C422 C418 1.477 . S
C422 H439 0.932 . S
C423 U406 2.882 . S
C423 C417 1.428 . S
C423 O426 1.301 . S
C423 O427 1.282 . S
O424 U406 2.441 . S
O424 C410 1.249 . S
O425 U406 2.420 . S
O425 C410 1.202 . S
O426 U406 2.455 . S
O426 C423 1.301 . S
O427 U406 2.449 . S
O427 C423 1.282 . S
H428 C401 0.931 . S
H429 C403 0.929 . S
H430 C404 0.930 . S
H431 C405 0.931 . S
H432 C412 0.932 . S
H433 C413 0.930 . S
H434 C414 0.929 . S
H435 C416 0.930 . S
H436 C418 0.932 . S
H437 C419 0.929 . S
H438 C420 0.928 . S
H439 C422 0.932 . S
C440 C441 1.264 . S
C440 C445 1.479 . S
C440 C450 1.465 . S
C441 C440 1.264 . S
C441 C443 1.339 . S
C441 H468 0.931 . S
C442 C443 1.395 . S
C442 C444 1.320 . S
C443 C441 1.339 . S
C443 C442 1.395 . S
C443 H469 0.929 . S
C444 C442 1.320 . S
C444 C445 1.405 . S
C444 H470 0.930 . S
C445 C440 1.479 . S
C445 C444 1.405 . S
C445 H471 0.931 . S
U446 O447 2.454 . S
U446 O448 2.458 . S
U446 C449 2.984 . S
U446 C450 2.847 . S
U446 C463 2.882 . S
U446 O464 2.441 . S
U446 O465 2.420 . S
U446 O466 2.455 . S
U446 O467 2.449 . S
O447 U446 2.454 . S
O447 C449 1.353 . S
O448 U446 2.458 . S
O448 C449 1.286 . S
C449 U446 2.984 . S
C449 O447 1.353 . S
C449 O448 1.286 . S
C449 C451 1.363 . S
C450 C440 1.465 . S
C450 U446 2.847 . S
C450 O464 1.249 . S
C450 O465 1.202 . S
C451 C449 1.363 . S
C451 C453 1.408 . S
C451 C456 1.342 . S
C452 C453 1.310 . S
C452 C455 1.461 . S
C452 H472 0.932 . S
C453 C451 1.408 . S
C453 C452 1.310 . S
C453 H473 0.930 . S
C454 C455 1.474 . S
C454 C456 1.285 . S
C454 H474 0.929 . S
C455 C452 1.461 . S
C455 C454 1.474 . S
C456 C451 1.342 . S
C456 C454 1.285 . S
C456 H475 0.930 . S
C457 C460 1.424 . S
C457 C462 1.245 . S
C457 C463 1.428 . S
C458 C461 1.260 . S
C458 C462 1.477 . S
C458 H476 0.932 . S
C459 C460 1.384 . S
C459 C461 1.479 . S
C459 H477 0.929 . S
C460 C457 1.424 . S
C460 C459 1.384 . S
C460 H478 0.928 . S
C461 C458 1.260 . S
C461 C459 1.479 . S
C462 C457 1.245 . S
C462 C458 1.477 . S
C462 H479 0.932 . S
C463 U446 2.882 . S
C463 C457 1.428 . S
C463 O466 1.301 . S
C463 O467 1.282 . S
O464 U446 2.441 . S
O464 C450 1.249 . S
O465 U446 2.420 . S
O465 C450 1.202 . S
O466 U446 2.455 . S
O466 C463 1.301 . S
O467 U446 2.449 . S
O467 C463 1.282 . S
H468 C441 0.931 . S
H469 C443 0.929 . S
H470 C444 0.930 . S
H471 C445 0.931 . S
H472 C452 0.932 . S
H473 C453 0.930 . S
H474 C454 0.929 . S
H475 C456 0.930 . S
H476 C458 0.932 . S
H477 C459 0.929 . S
H478 C460 0.928 . S
H479 C462 0.932 . S
C480 C481 1.264 . S
C480 C485 1.479 . S
C480 C490 1.465 . S
C481 C480 1.264 . S
C481 C483 1.339 . S
C481 H508 0.931 . S
C482 C483 1.395 . S
C482 C484 1.320 . S
C483 C481 1.339 . S
C483 C482 1.395 . S
C483 H509 0.929 . S
C484 C482 1.320 . S
C484 C485 1.405 . S
C484 H510 0.930 . S
C485 C480 1.479 . S
C485 C484 1.405 . S
C485 H511 0.931 . S
U486 O487 2.454 . S
U486 O488 2.458 . S
U486 C489 2.984 . S
U486 C490 2.847 . S
U486 C503 2.882 . S
U486 O504 2.441 . S
U486 O505 2.420 . S
U486 O506 2.455 . S
U486 O507 2.449 . S
O487 U486 2.454 . S
O487 C489 1.353 . S
O488 U486 2.458 . S
O488 C489 1.286 . S
C489 U486 2.984 . S
C489 O487 1.353 . S
C489 O488 1.286 . S
C489 C491 1.363 . S
C490 C480 1.465 . S
C490 U486 2.847 . S
C490 O504 1.249 . S
C490 O505 1.202 . S
C491 C489 1.363 . S
C491 C493 1.408 . S
C491 C496 1.342 . S
C492 C493 1.310 . S
C492 C495 1.461 . S
C492 H512 0.932 . S
C493 C491 1.408 . S
C493 C492 1.310 . S
C493 H513 0.930 . S
C494 C495 1.474 . S
C494 C496 1.285 . S
C494 H514 0.929 . S
C495 C492 1.461 . S
C495 C494 1.474 . S
C496 C491 1.342 . S
C496 C494 1.285 . S
C496 H515 0.930 . S
C497 C500 1.424 . S
C497 C502 1.245 . S
C497 C503 1.428 . S
C498 C501 1.260 . S
C498 C502 1.477 . S
C498 H516 0.932 . S
C499 C500 1.384 . S
C499 C501 1.479 . S
C499 H517 0.929 . S
C500 C497 1.424 . S
C500 C499 1.384 . S
C500 H518 0.928 . S
C501 C498 1.260 . S
C501 C499 1.479 . S
C502 C497 1.245 . S
C502 C498 1.477 . S
C502 H519 0.932 . S
C503 U486 2.882 . S
C503 C497 1.428 . S
C503 O506 1.301 . S
C503 O507 1.282 . S
O504 U486 2.441 . S
O504 C490 1.249 . S
O505 U486 2.420 . S
O505 C490 1.202 . S
O506 U486 2.455 . S
O506 C503 1.301 . S
O507 U486 2.449 . S
O507 C503 1.282 . S
H508 C481 0.931 . S
H509 C483 0.929 . S
H510 C484 0.930 . S
H511 C485 0.931 . S
H512 C492 0.932 . S
H513 C493 0.930 . S
H514 C494 0.929 . S
H515 C496 0.930 . S
H516 C498 0.932 . S
H517 C499 0.929 . S
H518 C500 0.928 . S
H519 C502 0.932 . S
C520 C521 1.264 . S
C520 C525 1.479 . S
C520 C530 1.465 . S
C521 C520 1.264 . S
C521 C523 1.339 . S
C521 H548 0.931 . S
C522 C523 1.395 . S
C522 C524 1.320 . S
C523 C521 1.339 . S
C523 C522 1.395 . S
C523 H549 0.929 . S
C524 C522 1.320 . S
C524 C525 1.405 . S
C524 H550 0.930 . S
C525 C520 1.479 . S
C525 C524 1.405 . S
C525 H551 0.931 . S
U526 O527 2.454 . S
U526 O528 2.458 . S
U526 C529 2.984 . S
U526 C530 2.847 . S
U526 C543 2.882 . S
U526 O544 2.441 . S
U526 O545 2.420 . S
U526 O546 2.455 . S
U526 O547 2.449 . S
O527 U526 2.454 . S
O527 C529 1.353 . S
O528 U526 2.458 . S
O528 C529 1.286 . S
C529 U526 2.984 . S
C529 O527 1.353 . S
C529 O528 1.286 . S
C529 C531 1.363 . S
C530 C520 1.465 . S
C530 U526 2.847 . S
C530 O544 1.249 . S
C530 O545 1.202 . S
C531 C529 1.363 . S
C531 C533 1.408 . S
C531 C536 1.342 . S
C532 C533 1.310 . S
C532 C535 1.461 . S
C532 H552 0.932 . S
C533 C531 1.408 . S
C533 C532 1.310 . S
C533 H553 0.930 . S
C534 C535 1.474 . S
C534 C536 1.285 . S
C534 H554 0.929 . S
C535 C532 1.461 . S
C535 C534 1.474 . S
C536 C531 1.342 . S
C536 C534 1.285 . S
C536 H555 0.930 . S
C537 C540 1.424 . S
C537 C542 1.245 . S
C537 C543 1.428 . S
C538 C541 1.260 . S
C538 C542 1.477 . S
C538 H556 0.932 . S
C539 C540 1.384 . S
C539 C541 1.479 . S
C539 H557 0.929 . S
C540 C537 1.424 . S
C540 C539 1.384 . S
C540 H558 0.928 . S
C541 C538 1.260 . S
C541 C539 1.479 . S
C542 C537 1.245 . S
C542 C538 1.477 . S
C542 H559 0.932 . S
C543 U526 2.882 . S
C543 C537 1.428 . S
C543 O546 1.301 . S
C543 O547 1.282 . S
O544 U526 2.441 . S
O544 C530 1.249 . S
O545 U526 2.420 . S
O545 C530 1.202 . S
O546 U526 2.455 . S
O546 C543 1.301 . S
O547 U526 2.449 . S
O547 C543 1.282 . S
H548 C521 0.931 . S
H549 C523 0.929 . S
H550 C524 0.930 . S
H551 C525 0.931 . S
H552 C532 0.932 . S
H553 C533 0.930 . S
H554 C534 0.929 . S
H555 C536 0.930 . S
H556 C538 0.932 . S
H557 C539 0.929 . S
H558 C540 0.928 . S
H559 C542 0.932 . S
C560 C561 1.264 . S
C560 C565 1.479 . S
C560 C570 1.465 . S
C561 C560 1.264 . S
C561 C563 1.339 . S
C561 H588 0.931 . S
C562 C563 1.395 . S
C562 C564 1.320 . S
C563 C561 1.339 . S
C563 C562 1.395 . S
C563 H589 0.929 . S
C564 C562 1.320 . S
C564 C565 1.405 . S
C564 H590 0.930 . S
C565 C560 1.479 . S
C565 C564 1.405 . S
C565 H591 0.931 . S
U566 O567 2.454 . S
U566 O568 2.458 . S
U566 C569 2.984 . S
U566 C570 2.847 . S
U566 C583 2.882 . S
U566 O584 2.441 . S
U566 O585 2.420 . S
U566 O586 2.455 . S
U566 O587 2.449 . S
O567 U566 2.454 . S
O567 C569 1.353 . S
O568 U566 2.458 . S
O568 C569 1.286 . S
C569 U566 2.984 . S
C569 O567 1.353 . S
C569 O568 1.286 . S
C569 C571 1.363 . S
C570 C560 1.465 . S
C570 U566 2.847 . S
C570 O584 1.249 . S
C570 O585 1.202 . S
C571 C569 1.363 . S
C571 C573 1.408 . S
C571 C576 1.342 . S
C572 C573 1.310 . S
C572 C575 1.461 . S
C572 H592 0.932 . S
C573 C571 1.408 . S
C573 C572 1.310 . S
C573 H593 0.930 . S
C574 C575 1.474 . S
C574 C576 1.285 . S
C574 H594 0.929 . S
C575 C572 1.461 . S
C575 C574 1.474 . S
C576 C571 1.342 . S
C576 C574 1.285 . S
C576 H595 0.930 . S
C577 C580 1.424 . S
C577 C582 1.245 . S
C577 C583 1.428 . S
C578 C581 1.260 . S
C578 C582 1.477 . S
C578 H596 0.932 . S
C579 C580 1.384 . S
C579 C581 1.479 . S
C579 H597 0.929 . S
C580 C577 1.424 . S
C580 C579 1.384 . S
C580 H598 0.928 . S
C581 C578 1.260 . S
C581 C579 1.479 . S
C582 C577 1.245 . S
C582 C578 1.477 . S
C582 H599 0.932 . S
C583 U566 2.882 . S
C583 C577 1.428 . S
C583 O586 1.301 . S
C583 O587 1.282 . S
O584 U566 2.441 . S
O584 C570 1.249 . S
O585 U566 2.420 . S
O585 C570 1.202 . S
O586 U566 2.455 . S
O586 C583 1.301 . S
O587 U566 2.449 . S
O587 C583 1.282 . S
H588 C561 0.931 . S
H589 C563 0.929 . S
H590 C564 0.930 . S
H591 C565 0.931 . S
H592 C572 0.932 . S
H593 C573 0.930 . S
H594 C574 0.929 . S
H595 C576 0.930 . S
H596 C578 0.932 . S
H597 C579 0.929 . S
H598 C580 0.928 . S
H599 C582 0.932 . S
C600 C601 1.264 . S
C600 C605 1.479 . S
C600 C610 1.465 . S
C601 C600 1.264 . S
C601 C603 1.339 . S
C601 H628 0.931 . S
C602 C603 1.395 . S
C602 C604 1.320 . S
C603 C601 1.339 . S
C603 C602 1.395 . S
C603 H629 0.929 . S
C604 C602 1.320 . S
C604 C605 1.405 . S
C604 H630 0.930 . S
C605 C600 1.479 . S
C605 C604 1.405 . S
C605 H631 0.931 . S
U606 O607 2.454 . S
U606 O608 2.458 . S
U606 C609 2.984 . S
U606 C610 2.847 . S
U606 C623 2.882 . S
U606 O624 2.441 . S
U606 O625 2.420 . S
U606 O626 2.455 . S
U606 O627 2.449 . S
O607 U606 2.454 . S
O607 C609 1.353 . S
O608 U606 2.458 . S
O608 C609 1.286 . S
C609 U606 2.984 . S
C609 O607 1.353 . S
C609 O608 1.286 . S
C609 C611 1.363 . S
C610 C600 1.465 . S
C610 U606 2.847 . S
C610 O624 1.249 . S
C610 O625 1.202 . S
C611 C609 1.363 . S
C611 C613 1.408 . S
C611 C616 1.342 . S
C612 C613 1.310 . S
C612 C615 1.461 . S
C612 H632 0.932 . S
C613 C611 1.408 . S
C613 C612 1.310 . S
C613 H633 0.930 . S
C614 C615 1.474 . S
C614 C616 1.285 . S
C614 H634 0.929 . S
C615 C612 1.461 . S
C615 C614 1.474 . S
C616 C611 1.342 . S
C616 C614 1.285 . S
C616 H635 0.930 . S
C617 C620 1.424 . S
C617 C622 1.245 . S
C617 C623 1.428 . S
C618 C621 1.260 . S
C618 C622 1.477 . S
C618 H636 0.932 . S
C619 C620 1.384 . S
C619 C621 1.479 . S
C619 H637 0.929 . S
C620 C617 1.424 . S
C620 C619 1.384 . S
C620 H638 0.928 . S
C621 C618 1.260 . S
C621 C619 1.479 . S
C622 C617 1.245 . S
C622 C618 1.477 . S
C622 H639 0.932 . S
C623 U606 2.882 . S
C623 C617 1.428 . S
C623 O626 1.301 . S
C623 O627 1.282 . S
O624 U606 2.441 . S
O624 C610 1.249 . S
O625 U606 2.420 . S
O625 C610 1.202 . S
O626 U606 2.455 . S
O626 C623 1.301 . S
O627 U606 2.449 . S
O627 C623 1.282 . S
H628 C601 0.931 . S
H629 C603 0.929 . S
H630 C604 0.930 . S
H631 C605 0.931 . S
H632 C612 0.932 . S
H633 C613 0.930 . S
H634 C614 0.929 . S
H635 C616 0.930 . S
H636 C618 0.932 . S
H637 C619 0.929 . S
H638 C620 0.928 . S
H639 C622 0.932 . S
C640 C641 1.264 . S
C640 C645 1.479 . S
C640 C650 1.465 . S
C641 C640 1.264 . S
C641 C643 1.339 . S
C641 H668 0.931 . S
C642 C643 1.395 . S
C642 C644 1.320 . S
C643 C641 1.339 . S
C643 C642 1.395 . S
C643 H669 0.929 . S
C644 C642 1.320 . S
C644 C645 1.405 . S
C644 H670 0.930 . S
C645 C640 1.479 . S
C645 C644 1.405 . S
C645 H671 0.931 . S
U646 O647 2.454 . S
U646 O648 2.458 . S
U646 C649 2.984 . S
U646 C650 2.847 . S
U646 C663 2.882 . S
U646 O664 2.441 . S
U646 O665 2.420 . S
U646 O666 2.455 . S
U646 O667 2.449 . S
O647 U646 2.454 . S
O647 C649 1.353 . S
O648 U646 2.458 . S
O648 C649 1.286 . S
C649 U646 2.984 . S
C649 O647 1.353 . S
C649 O648 1.286 . S
C649 C651 1.363 . S
C650 C640 1.465 . S
C650 U646 2.847 . S
C650 O664 1.249 . S
C650 O665 1.202 . S
C651 C649 1.363 . S
C651 C653 1.408 . S
C651 C656 1.342 . S
C652 C653 1.310 . S
C652 C655 1.461 . S
C652 H672 0.932 . S
C653 C651 1.408 . S
C653 C652 1.310 . S
C653 H673 0.930 . S
C654 C655 1.474 . S
C654 C656 1.285 . S
C654 H674 0.929 . S
C655 C652 1.461 . S
C655 C654 1.474 . S
C656 C651 1.342 . S
C656 C654 1.285 . S
C656 H675 0.930 . S
C657 C660 1.424 . S
C657 C662 1.245 . S
C657 C663 1.428 . S
C658 C661 1.260 . S
C658 C662 1.477 . S
C658 H676 0.932 . S
C659 C660 1.384 . S
C659 C661 1.479 . S
C659 H677 0.929 . S
C660 C657 1.424 . S
C660 C659 1.384 . S
C660 H678 0.928 . S
C661 C658 1.260 . S
C661 C659 1.479 . S
C662 C657 1.245 . S
C662 C658 1.477 . S
C662 H679 0.932 . S
C663 U646 2.882 . S
C663 C657 1.428 . S
C663 O666 1.301 . S
C663 O667 1.282 . S
O664 U646 2.441 . S
O664 C650 1.249 . S
O665 U646 2.420 . S
O665 C650 1.202 . S
O666 U646 2.455 . S
O666 C663 1.301 . S
O667 U646 2.449 . S
O667 C663 1.282 . S
H668 C641 0.931 . S
H669 C643 0.929 . S
H670 C644 0.930 . S
H671 C645 0.931 . S
H672 C652 0.932 . S
H673 C653 0.930 . S
H674 C654 0.929 . S
H675 C656 0.930 . S
H676 C658 0.932 . S
H677 C659 0.929 . S
H678 C660 0.928 . S
H679 C662 0.932 . S
C680 C681 1.264 . S
C680 C685 1.479 . S
C680 C690 1.465 . S
C681 C680 1.264 . S
C681 C683 1.339 . S
C681 H708 0.931 . S
C682 C683 1.395 . S
C682 C684 1.320 . S
C683 C681 1.339 . S
C683 C682 1.395 . S
C683 H709 0.929 . S
C684 C682 1.320 . S
C684 C685 1.405 . S
C684 H710 0.930 . S
C685 C680 1.479 . S
C685 C684 1.405 . S
C685 H711 0.931 . S
U686 O687 2.454 . S
U686 O688 2.458 . S
U686 C689 2.984 . S
U686 C690 2.847 . S
U686 C703 2.882 . S
U686 O704 2.441 . S
U686 O705 2.420 . S
U686 O706 2.455 . S
U686 O707 2.449 . S
O687 U686 2.454 . S
O687 C689 1.353 . S
O688 U686 2.458 . S
O688 C689 1.286 . S
C689 U686 2.984 . S
C689 O687 1.353 . S
C689 O688 1.286 . S
C689 C691 1.363 . S
C690 C680 1.465 . S
C690 U686 2.847 . S
C690 O704 1.249 . S
C690 O705 1.202 . S
C691 C689 1.363 . S
C691 C693 1.408 . S
C691 C696 1.342 . S
C692 C693 1.310 . S
C692 C695 1.461 . S
C692 H712 0.932 . S
C693 C691 1.408 . S
C693 C692 1.310 . S
C693 H713 0.930 . S
C694 C695 1.474 . S
C694 C696 1.285 . S
C694 H714 0.929 . S
C695 C692 1.461 . S
C695 C694 1.474 . S
C696 C691 1.342 . S
C696 C694 1.285 . S
C696 H715 0.930 . S
C697 C700 1.424 . S
C697 C702 1.245 . S
C697 C703 1.428 . S
C698 C701 1.260 . S
C698 C702 1.477 . S
C698 H716 0.932 . S
C699 C700 1.384 . S
C699 C701 1.479 . S
C699 H717 0.929 . S
C700 C697 1.424 . S
C700 C699 1.384 . S
C700 H718 0.928 . S
C701 C698 1.260 . S
C701 C699 1.479 . S
C702 C697 1.245 . S
C702 C698 1.477 . S
C702 H719 0.932 . S
C703 U686 2.882 . S
C703 C697 1.428 . S
C703 O706 1.301 . S
C703 O707 1.282 . S
O704 U686 2.441 . S
O704 C690 1.249 . S
O705 U686 2.420 . S
O705 C690 1.202 . S
O706 U686 2.455 . S
O706 C703 1.301 . S
O707 U686 2.449 . S
O707 C703 1.282 . S
H708 C681 0.931 . S
H709 C683 0.929 . S
H710 C684 0.930 . S
H711 C685 0.931 . S
H712 C692 0.932 . S
H713 C693 0.930 . S
H714 C694 0.929 . S
H715 C696 0.930 . S
H716 C698 0.932 . S
H717 C699 0.929 . S
H718 C700 0.928 . S
H719 C702 0.932 . S
C720 C721 1.264 . S
C720 C725 1.479 . S
C720 C730 1.465 . S
C721 C720 1.264 . S
C721 C723 1.339 . S
C721 H748 0.931 . S
C722 C723 1.395 . S
C722 C724 1.320 . S
C723 C721 1.339 . S
C723 C722 1.395 . S
C723 H749 0.929 . S
C724 C722 1.320 . S
C724 C725 1.405 . S
C724 H750 0.930 . S
C725 C720 1.479 . S
C725 C724 1.405 . S
C725 H751 0.931 . S
U726 O727 2.454 . S
U726 O728 2.458 . S
U726 C729 2.984 . S
U726 C730 2.847 . S
U726 C743 2.882 . S
U726 O744 2.441 . S
U726 O745 2.420 . S
U726 O746 2.455 . S
U726 O747 2.449 . S
O727 U726 2.454 . S
O727 C729 1.353 . S
O728 U726 2.458 . S
O728 C729 1.286 . S
C729 U726 2.984 . S
C729 O727 1.353 . S
C729 O728 1.286 . S
C729 C731 1.363 . S
C730 C720 1.465 . S
C730 U726 2.847 . S
C730 O744 1.249 . S
C730 O745 1.202 . S
C731 C729 1.363 . S
C731 C733 1.408 . S
C731 C736 1.342 . S
C732 C733 1.310 . S
C732 C735 1.461 . S
C732 H752 0.932 . S
C733 C731 1.408 . S
C733 C732 1.310 . S
C733 H753 0.930 . S
C734 C735 1.474 . S
C734 C736 1.285 . S
C734 H754 0.929 . S
C735 C732 1.461 . S
C735 C734 1.474 . S
C736 C731 1.342 . S
C736 C734 1.285 . S
C736 H755 0.930 . S
C737 C740 1.424 . S
C737 C742 1.245 . S
C737 C743 1.428 . S
C738 C741 1.260 . S
C738 C742 1.477 . S
C738 H756 0.932 . S
C739 C740 1.384 . S
C739 C741 1.479 . S
C739 H757 0.929 . S
C740 C737 1.424 . S
C740 C739 1.384 . S
C740 H758 0.928 . S
C741 C738 1.260 . S
C741 C739 1.479 . S
C742 C737 1.245 . S
C742 C738 1.477 . S
C742 H759 0.932 . S
C743 U726 2.882 . S
C743 C737 1.428 . S
C743 O746 1.301 . S
C743 O747 1.282 . S
O744 U726 2.441 . S
O744 C730 1.249 . S
O745 U726 2.420 . S
O745 C730 1.202 . S
O746 U726 2.455 . S
O746 C743 1.301 . S
O747 U726 2.449 . S
O747 C743 1.282 . S
H748 C721 0.931 . S
H749 C723 0.929 . S
H750 C724 0.930 . S
H751 C725 0.931 . S
H752 C732 0.932 . S
H753 C733 0.930 . S
H754 C734 0.929 . S
H755 C736 0.930 . S
H756 C738 0.932 . S
H757 C739 0.929 . S
H758 C740 0.928 . S
H759 C742 0.932 . S
C760 C761 1.264 . S
C760 C765 1.479 . S
C760 C770 1.465 . S
C761 C760 1.264 . S
C761 C763 1.339 . S
C761 H788 0.931 . S
C762 C763 1.395 . S
C762 C764 1.320 . S
C763 C761 1.339 . S
C763 C762 1.395 . S
C763 H789 0.929 . S
C764 C762 1.320 . S
C764 C765 1.405 . S
C764 H790 0.930 . S
C765 C760 1.479 . S
C765 C764 1.405 . S
C765 H791 0.931 . S
U766 O767 2.454 . S
U766 O768 2.458 . S
U766 C769 2.984 . S
U766 C770 2.847 . S
U766 C783 2.882 . S
U766 O784 2.441 . S
U766 O785 2.420 . S
U766 O786 2.455 . S
U766 O787 2.449 . S
O767 U766 2.454 . S
O767 C769 1.353 . S
O768 U766 2.458 . S
O768 C769 1.286 . S
C769 U766 2.984 . S
C769 O767 1.353 . S
C769 O768 1.286 . S
C769 C771 1.363 . S
C770 C760 1.465 . S
C770 U766 2.847 . S
C770 O784 1.249 . S
C770 O785 1.202 . S
C771 C769 1.363 . S
C771 C773 1.408 . S
C771 C776 1.342 . S
C772 C773 1.310 . S
C772 C775 1.461 . S
C772 H792 0.932 . S
C773 C771 1.408 . S
C773 C772 1.310 . S
C773 H793 0.930 . S
C774 C775 1.474 . S
C774 C776 1.285 . S
C774 H794 0.929 . S
C775 C772 1.461 . S
C775 C774 1.474 . S
C776 C771 1.342 . S
C776 C774 1.285 . S
C776 H795 0.930 . S
C777 C780 1.424 . S
C777 C782 1.245 . S
C777 C783 1.428 . S
C778 C781 1.260 . S
C778 C782 1.477 . S
C778 H796 0.932 . S
C779 C780 1.384 . S
C779 C781 1.479 . S
C779 H797 0.929 . S
C780 C777 1.424 . S
C780 C779 1.384 . S
C780 H798 0.928 . S
C781 C778 1.260 . S
C781 C779 1.479 . S
C782 C777 1.245 . S
C782 C778 1.477 . S
C782 H799 0.932 . S
C783 U766 2.882 . S
C783 C777 1.428 . S
C783 O786 1.301 . S
C783 O787 1.282 . S
O784 U766 2.441 . S
O784 C770 1.249 . S
O785 U766 2.420 . S
O785 C770 1.202 . S
O786 U766 2.455 . S
O786 C783 1.301 . S
O787 U766 2.449 . S
O787 C783 1.282 . S
H788 C761 0.931 . S
H789 C763 0.929 . S
H790 C764 0.930 . S
H791 C765 0.931 . S
H792 C772 0.932 . S
H793 C773 0.930 . S
H794 C774 0.929 . S
H795 C776 0.930 . S
H796 C778 0.932 . S
H797 C779 0.929 . S
H798 C780 0.928 . S
H799 C782 0.932 . S
C800 C801 1.264 . S
C800 C805 1.479 . S
C800 C810 1.465 . S
C801 C800 1.264 . S
C801 C803 1.339 . S
C801 H828 0.931 . S
C802 C803 1.395 . S
C802 C804 1.320 . S
C803 C801 1.339 . S
C803 C802 1.395 . S
C803 H829 0.929 . S
C804 C802 1.320 . S
C804 C805 1.405 . S
C804 H830 0.930 . S
C805 C800 1.479 . S
C805 C804 1.405 . S
C805 H831 0.931 . S
U806 O807 2.454 . S
U806 O808 2.458 . S
U806 C809 2.984 . S
U806 C810 2.847 . S
U806 C823 2.882 . S
U806 O824 2.441 . S
U806 O825 2.420 . S
U806 O826 2.455 . S
U806 O827 2.449 . S
O807 U806 2.454 . S
O807 C809 1.353 . S
O808 U806 2.458 . S
O808 C809 1.286 . S
C809 U806 2.984 . S
C809 O807 1.353 . S
C809 O808 1.286 . S
C809 C811 1.363 . S
C810 C800 1.465 . S
C810 U806 2.847 . S
C810 O824 1.249 . S
C810 O825 1.202 . S
C811 C809 1.363 . S
C811 C813 1.408 . S
C811 C816 1.342 . S
C812 C813 1.310 . S
C812 C815 1.461 . S
C812 H832 0.932 . S
C813 C811 1.408 . S
C813 C812 1.310 . S
C813 H833 0.930 . S
C814 C815 1.474 . S
C814 C816 1.285 . S
C814 H834 0.929 . S
C815 C812 1.461 . S
C815 C814 1.474 . S
C816 C811 1.342 . S
C816 C814 1.285 . S
C816 H835 0.930 . S
C817 C820 1.424 . S
C817 C822 1.245 . S
C817 C823 1.428 . S
C818 C821 1.260 . S
C818 C822 1.477 . S
C818 H836 0.932 . S
C819 C820 1.384 . S
C819 C821 1.479 . S
C819 H837 0.929 . S
C820 C817 1.424 . S
C820 C819 1.384 . S
C820 H838 0.928 . S
C821 C818 1.260 . S
C821 C819 1.479 . S
C822 C817 1.245 . S
C822 C818 1.477 . S
C822 H839 0.932 . S
C823 U806 2.882 . S
C823 C817 1.428 . S
C823 O826 1.301 . S
C823 O827 1.282 . S
O824 U806 2.441 . S
O824 C810 1.249 . S
O825 U806 2.420 . S
O825 C810 1.202 . S
O826 U806 2.455 . S
O826 C823 1.301 . S
O827 U806 2.449 . S
O827 C823 1.282 . S
H828 C801 0.931 . S
H829 C803 0.929 . S
H830 C804 0.930 . S
H831 C805 0.931 . S
H832 C812 0.932 . S
H833 C813 0.930 . S
H834 C814 0.929 . S
H835 C816 0.930 . S
H836 C818 0.932 . S
H837 C819 0.929 . S
H838 C820 0.928 . S
H839 C822 0.932 . S
C840 C841 1.264 . S
C840 C845 1.479 . S
C840 C850 1.465 . S
C841 C840 1.264 . S
C841 C843 1.339 . S
C841 H868 0.931 . S
C842 C843 1.395 . S
C842 C844 1.320 . S
C843 C841 1.339 . S
C843 C842 1.395 . S
C843 H869 0.929 . S
C844 C842 1.320 . S
C844 C845 1.405 . S
C844 H870 0.930 . S
C845 C840 1.479 . S
C845 C844 1.405 . S
C845 H871 0.931 . S
U846 O847 2.454 . S
U846 O848 2.458 . S
U846 C849 2.984 . S
U846 C850 2.847 . S
U846 C863 2.882 . S
U846 O864 2.441 . S
U846 O865 2.420 . S
U846 O866 2.455 . S
U846 O867 2.449 . S
O847 U846 2.454 . S
O847 C849 1.353 . S
O848 U846 2.458 . S
O848 C849 1.286 . S
C849 U846 2.984 . S
C849 O847 1.353 . S
C849 O848 1.286 . S
C849 C851 1.363 . S
C850 C840 1.465 . S
C850 U846 2.847 . S
C850 O864 1.249 . S
C850 O865 1.202 . S
C851 C849 1.363 . S
C851 C853 1.408 . S
C851 C856 1.342 . S
C852 C853 1.310 . S
C852 C855 1.461 . S
C852 H872 0.932 . S
C853 C851 1.408 . S
C853 C852 1.310 . S
C853 H873 0.930 . S
C854 C855 1.474 . S
C854 C856 1.285 . S
C854 H874 0.929 . S
C855 C852 1.461 . S
C855 C854 1.474 . S
C856 C851 1.342 . S
C856 C854 1.285 . S
C856 H875 0.930 . S
C857 C860 1.424 . S
C857 C862 1.245 . S
C857 C863 1.428 . S
C858 C861 1.260 . S
C858 C862 1.477 . S
C858 H876 0.932 . S
C859 C860 1.384 . S
C859 C861 1.479 . S
C859 H877 0.929 . S
C860 C857 1.424 . S
C860 C859 1.384 . S
C860 H878 0.928 . S
C861 C858 1.260 . S
C861 C859 1.479 . S
C862 C857 1.245 . S
C862 C858 1.477 . S
C862 H879 0.932 . S
C863 U846 2.882 . S
C863 C857 1.428 . S
C863 O866 1.301 . S
C863 O867 1.282 . S
O864 U846 2.441 . S
O864 C850 1.249 . S
O865 U846 2.420 . S
O865 C850 1.202 . S
O866 U846 2.455 . S
O866 C863 1.301 . S
O867 U846 2.449 . S
O867 C863 1.282 . S
H868 C841 0.931 . S
H869 C843 0.929 . S
H870 C844 0.930 . S
H871 C845 0.931 . S
H872 C852 0.932 . S
H873 C853 0.930 . S
H874 C854 0.929 . S
H875 C856 0.930 . S
H876 C858 0.932 . S
H877 C859 0.929 . S
H878 C860 0.928 . S
H879 C862 0.932 . S
C880 C881 1.264 . S
C880 C885 1.479 . S
C880 C890 1.465 . S
C881 C880 1.264 . S
C881 C883 1.339 . S
C881 H908 0.931 . S
C882 C883 1.395 . S
C882 C884 1.320 . S
C883 C881 1.339 . S
C883 C882 1.395 . S
C883 H909 0.929 . S
C884 C882 1.320 . S
C884 C885 1.405 . S
C884 H910 0.930 . S
C885 C880 1.479 . S
C885 C884 1.405 . S
C885 H911 0.931 . S
U886 O887 2.454 . S
U886 O888 2.458 . S
U886 C889 2.984 . S
U886 C890 2.847 . S
U886 C903 2.882 . S
U886 O904 2.441 . S
U886 O905 2.420 . S
U886 O906 2.455 . S
U886 O907 2.449 . S
O887 U886 2.454 . S
O887 C889 1.353 . S
O888 U886 2.458 . S
O888 C889 1.286 . S
C889 U886 2.984 . S
C889 O887 1.353 . S
C889 O888 1.286 . S
C889 C891 1.363 . S
C890 C880 1.465 . S
C890 U886 2.847 . S
C890 O904 1.249 . S
C890 O905 1.202 . S
C891 C889 1.363 . S
C891 C893 1.408 . S
C891 C896 1.342 . S
C892 C893 1.310 . S
C892 C895 1.461 . S
C892 H912 0.932 . S
C893 C891 1.408 . S
C893 C892 1.310 . S
C893 H913 0.930 . S
C894 C895 1.474 . S
C894 C896 1.285 . S
C894 H914 0.929 . S
C895 C892 1.461 . S
C895 C894 1.474 . S
C896 C891 1.342 . S
C896 C894 1.285 . S
C896 H915 0.930 . S
C897 C900 1.424 . S
C897 C902 1.245 . S
C897 C903 1.428 . S
C898 C901 1.260 . S
C898 C902 1.477 . S
C898 H916 0.932 . S
C899 C900 1.384 . S
C899 C901 1.479 . S
C899 H917 0.929 . S
C900 C897 1.424 . S
C900 C899 1.384 . S
C900 H918 0.928 . S
C901 C898 1.260 . S
C901 C899 1.479 . S
C902 C897 1.245 . S
C902 C898 1.477 . S
C902 H919 0.932 . S
C903 U886 2.882 . S
C903 C897 1.428 . S
C903 O906 1.301 . S
C903 O907 1.282 . S
O904 U886 2.441 . S
O904 C890 1.249 . S
O905 U886 2.420 . S
O905 C890 1.202 . S
O906 U886 2.455 . S
O906 C903 1.301 . S
O907 U886 2.449 . S
O907 C903 1.282 . S
H908 C881 0.931 . S
H909 C883 0.929 . S
H910 C884 0.930 . S
H911 C885 0.931 . S
H912 C892 0.932 . S
H913 C893 0.930 . S
H914 C894 0.929 . S
H915 C896 0.930 . S
H916 C898 0.932 . S
H917 C899 0.929 . S
H918 C900 0.928 . S
H919 C902 0.932 . S
C920 C921 1.264 . S
C920 C925 1.479 . S
C920 C930 1.465 . S
C921 C920 1.264 . S
C921 C923 1.339 . S
C921 H948 0.931 . S
C922 C923 1.395 . S
C922 C924 1.320 . S
C923 C921 1.339 . S
C923 C922 1.395 . S
C923 H949 0.929 . S
C924 C922 1.320 . S
C924 C925 1.405 . S
C924 H950 0.930 . S
C925 C920 1.479 . S
C925 C924 1.405 . S
C925 H951 0.931 . S
U926 O927 2.454 . S
U926 O928 2.458 . S
U926 C929 2.984 . S
U926 C930 2.847 . S
U926 C943 2.882 . S
U926 O944 2.441 . S
U926 O945 2.420 . S
U926 O946 2.455 . S
U926 O947 2.449 . S
O927 U926 2.454 . S
O927 C929 1.353 . S
O928 U926 2.458 . S
O928 C929 1.286 . S
C929 U926 2.984 . S
C929 O927 1.353 . S
C929 O928 1.286 . S
C929 C931 1.363 . S
C930 C920 1.465 . S
C930 U926 2.847 . S
C930 O944 1.249 . S
C930 O945 1.202 . S
C931 C929 1.363 . S
C931 C933 1.408 . S
C931 C936 1.342 . S
C932 C933 1.310 . S
C932 C935 1.461 . S
C932 H952 0.932 . S
C933 C931 1.408 . S
C933 C932 1.310 . S
C933 H953 0.930 . S
C934 C935 1.474 . S
C934 C936 1.285 . S
C934 H954 0.929 . S
C935 C932 1.461 . S
C935 C934 1.474 . S
C936 C931 1.342 . S
C936 C934 1.285 . S
C936 H955 0.930 . S
C937 C940 1.424 . S
C937 C942 1.245 . S
C937 C943 1.428 . S
C938 C941 1.260 . S
C938 C942 1.477 . S
C938 H956 0.932 . S
C939 C940 1.384 . S
C939 C941 1.479 . S
C939 H957 0.929 . S
C940 C937 1.424 . S
C940 C939 1.384 . S
C940 H958 0.928 . S
C941 C938 1.260 . S
C941 C939 1.479 . S
C942 C937 1.245 . S
C942 C938 1.477 . S
C942 H959 0.932 . S
C943 U926 2.882 . S
C943 C937 1.428 . S
C943 O946 1.301 . S
C943 O947 1.282 . S
O944 U926 2.441 . S
O944 C930 1.249 . S
O945 U926 2.420 . S
O945 C930 1.202 . S
O946 U926 2.455 . S
O946 C943 1.301 . S
O947 U926 2.449 . S
O947 C943 1.282 . S
H948 C921 0.931 . S
H949 C923 0.929 . S
H950 C924 0.930 . S
H951 C925 0.931 . S
H952 C932 0.932 . S
H953 C933 0.930 . S
H954 C934 0.929 . S
H955 C936 0.930 . S
H956 C938 0.932 . S
H957 C939 0.929 . S
H958 C940 0.928 . S
H959 C942 0.932 . S
C960 C961 1.264 . S
C960 C965 1.479 . S
C960 C970 1.465 . S
C961 C960 1.264 . S
C961 C963 1.339 . S
C961 H988 0.931 . S
C962 C963 1.395 . S
C962 C964 1.320 . S
C963 C961 1.339 . S
C963 C962 1.395 . S
C963 H989 0.929 . S
C964 C962 1.320 . S
C964 C965 1.405 . S
C964 H990 0.930 . S
C965 C960 1.479 . S
C965 C964 1.405 . S
C965 H991 0.931 . S
U966 O967 2.454 . S
U966 O968 2.458 . S
U966 C969 2.984 . S
U966 C970 2.847 . S
U966 C983 2.882 . S
U966 O984 2.441 . S
U966 O985 2.420 . S
U966 O986 2.455 . S
U966 O987 2.449 . S
O967 U966 2.454 . S
O967 C969 1.353 . S
O968 U966 2.458 . S
O968 C969 1.286 . S
C969 U966 2.984 . S
C969 O967 1.353 . S
C969 O968 1.286 . S
C969 C971 1.363 . S
C970 C960 1.465 . S
C970 U966 2.847 . S
C970 O984 1.249 . S
C970 O985 1.202 . S
C971 C969 1.363 . S
C971 C973 1.408 . S
C971 C976 1.342 . S
C972 C973 1.310 . S
C972 C975 1.461 . S
C972 H992 0.932 . S
C973 C971 1.408 . S
C973 C972 1.310 . S
C973 H993 0.930 . S
C974 C975 1.474 . S
C974 C976 1.285 . S
C974 H994 0.929 . S
C975 C972 1.461 . S
C975 C974 1.474 . S
C976 C971 1.342 . S
C976 C974 1.285 . S
C976 H995 0.930 . S
C977 C980 1.424 . S
C977 C982 1.245 . S
C977 C983 1.428 . S
C978 C981 1.260 . S
C978 C982 1.477 . S
C978 H996 0.932 . S
C979 C980 1.384 . S
C979 C981 1.479 . S
C979 H997 0.929 . S
C980 C977 1.424 . S
C980 C979 1.384 . S
C980 H998 0.928 . S
C981 C978 1.260 . S
C981 C979 1.479 . S
C982 C977 1.245 . S
C982 C978 1.477 . S
C982 H999 0.932 . S
C983 U966 2.882 . S
C983 C977 1.428 . S
C983 O986 1.301 . S
C983 O987 1.282 . S
O984 U966 2.441 . S
O984 C970 1.249 . S
O985 U966 2.420 . S
O985 C970 1.202 . S
O986 U966 2.455 . S
O986 C983 1.301 . S
O987 U966 2.449 . S
O987 C983 1.282 . S
H988 C961 0.931 . S
H989 C963 0.929 . S
H990 C964 0.930 . S
H991 C965 0.931 . S
H992 C972 0.932 . S
H993 C973 0.930 . S
H994 C974 0.929 . S
H995 C976 0.930 . S
H996 C978 0.932 . S
H997 C979 0.929 . S
H998 C980 0.928 . S
H999 C982 0.932 . S
C1000 C1001 1.264 . S
C1000 C1005 1.479 . S
C1000 C1010 1.465 . S
C1001 C1000 1.264 . S
C1001 C1003 1.339 . S
C1001 H1028 0.931 . S
C1002 C1003 1.395 . S
C1002 C1004 1.320 . S
C1003 C1001 1.339 . S
C1003 C1002 1.395 . S
C1003 H1029 0.929 . S
C1004 C1002 1.320 . S
C1004 C1005 1.405 . S
C1004 H1030 0.930 . S
C1005 C1000 1.479 . S
C1005 C1004 1.405 . S
C1005 H1031 0.931 . S
U1006 O1007 2.454 . S
U1006 O1008 2.458 . S
U1006 C1009 2.984 . S
U1006 C1010 2.847 . S
U1006 C1023 2.882 . S
U1006 O1024 2.441 . S
U1006 O1025 2.420 . S
U1006 O1026 2.455 . S
U1006 O1027 2.449 . S
O1007 U1006 2.454 . S
O1007 C1009 1.353 . S
O1008 U1006 2.458 . S
O1008 C1009 1.286 . S
C1009 U1006 2.984 . S
C1009 O1007 1.353 . S
C1009 O1008 1.286 . S
C1009 C1011 1.363 . S
C1010 C1000 1.465 . S
C1010 U1006 2.847 . S
C1010 O1024 1.249 . S
C1010 O1025 1.202 . S
C1011 C1009 1.363 . S
C1011 C1013 1.408 . S
C1011 C1016 1.342 . S
C1012 C1013 1.310 . S
C1012 C1015 1.461 . S
C1012 H1032 0.932 . S
C1013 C1011 1.408 . S
C1013 C1012 1.310 . S
C1013 H1033 0.930 . S
C1014 C1015 1.474 . S
C1014 C1016 1.285 . S
C1014 H1034 0.929 . S
C1015 C1012 1.461 . S
C1015 C1014 1.474 . S
C1016 C1011 1.342 . S
C1016 C1014 1.285 . S
C1016 H1035 0.930 . S
C1017 C1020 1.424 . S
C1017 C1022 1.245 . S
C1017 C1023 1.428 . S
C1018 C1021 1.260 . S
C1018 C1022 1.477 . S
C1018 H1036 0.932 . S
C1019 C1020 1.384 . S
C1019 C1021 1.479 . S
C1019 H1037 0.929 . S
C1020 C1017 1.424 . S
C1020 C1019 1.384 . S
C1020 H1038 0.928 . S
C1021 C1018 1.260 . S
C1021 C1019 1.479 . S
C1022 C1017 1.245 . S
C1022 C1018 1.477 . S
C1022 H1039 0.932 . S
C1023 U1006 2.882 . S
C1023 C1017 1.428 . S
C1023 O1026 1.301 . S
C1023 O1027 1.282 . S
O1024 U1006 2.441 . S
O1024 C1010 1.249 . S
O1025 U1006 2.420 . S
O1025 C1010 1.202 . S
O1026 U1006 2.455 . S
O1026 C1023 1.301 . S
O1027 U1006 2.449 . S
O1027 C1023 1.282 . S
H1028 C1001 0.931 . S
H1029 C1003 0.929 . S
H1030 C1004 0.930 . S
H1031 C1005 0.931 . S
H1032 C1012 0.932 . S
H1033 C1013 0.930 . S
H1034 C1014 0.929 . S
H1035 C1016 0.930 . S
H1036 C1018 0.932 . S
H1037 C1019 0.929 . S
H1038 C1020 0.928 . S
H1039 C1022 0.932 . S
C1040 C1041 1.264 . S
C1040 C1045 1.479 . S
C1040 C1050 1.465 . S
C1041 C1040 1.264 . S
C1041 C1043 1.339 . S
C1041 H1068 0.931 . S
C1042 C1043 1.395 . S
C1042 C1044 1.320 . S
C1043 C1041 1.339 . S
C1043 C1042 1.395 . S
C1043 H1069 0.929 . S
C1044 C1042 1.320 . S
C1044 C1045 1.405 . S
C1044 H1070 0.930 . S
C1045 C1040 1.479 . S
C1045 C1044 1.405 . S
C1045 H1071 0.931 . S
U1046 O1047 2.454 . S
U1046 O1048 2.458 . S
U1046 C1049 2.984 . S
U1046 C1050 2.847 . S
U1046 C1063 2.882 . S
U1046 O1064 2.441 . S
U1046 O1065 2.420 . S
U1046 O1066 2.455 . S
U1046 O1067 2.449 . S
O1047 U1046 2.454 . S
O1047 C1049 1.353 . S
O1048 U1046 2.458 . S
O1048 C1049 1.286 . S
C1049 U1046 2.984 . S
C1049 O1047 1.353 . S
C1049 O1048 1.286 . S
C1049 C1051 1.363 . S
C1050 C1040 1.465 . S
C1050 U1046 2.847 . S
C1050 O1064 1.249 . S
C1050 O1065 1.202 . S
C1051 C1049 1.363 . S
C1051 C1053 1.408 . S
C1051 C1056 1.342 . S
C1052 C1053 1.310 . S
C1052 C1055 1.461 . S
C1052 H1072 0.932 . S
C1053 C1051 1.408 . S
C1053 C1052 1.310 . S
C1053 H1073 0.930 . S
C1054 C1055 1.474 . S
C1054 C1056 1.285 . S
C1054 H1074 0.929 . S
C1055 C1052 1.461 . S
C1055 C1054 1.474 . S
C1056 C1051 1.342 . S
C1056 C1054 1.285 . S
C1056 H1075 0.930 . S
C1057 C1060 1.424 . S
C1057 C1062 1.245 . S
C1057 C1063 1.428 . S
C1058 C1061 1.260 . S
C1058 C1062 1.477 . S
C1058 H1076 0.932 . S
C1059 C1060 1.384 . S
C1059 C1061 1.479 . S
C1059 H1077 0.929 . S
C1060 C1057 1.424 . S
C1060 C1059 1.384 . S
C1060 H1078 0.928 . S
C1061 C1058 1.260 . S
C1061 C1059 1.479 . S
C1062 C1057 1.245 . S
C1062 C1058 1.477 . S
C1062 H1079 0.932 . S
C1063 U1046 2.882 . S
C1063 C1057 1.428 . S
C1063 O1066 1.301 . S
C1063 O1067 1.282 . S
O1064 U1046 2.441 . S
O1064 C1050 1.249 . S
O1065 U1046 2.420 . S
O1065 C1050 1.202 . S
O1066 U1046 2.455 . S
O1066 C1063 1.301 . S
O1067 U1046 2.449 . S
O1067 C1063 1.282 . S
H1068 C1041 0.931 . S
H1069 C1043 0.929 . S
H1070 C1044 0.930 . S
H1071 C1045 0.931 . S
H1072 C1052 0.932 . S
H1073 C1053 0.930 . S
H1074 C1054 0.929 . S
H1075 C1056 0.930 . S
H1076 C1058 0.932 . S
H1077 C1059 0.929 . S
H1078 C1060 0.928 . S
H1079 C1062 0.932 . S
C1080 C1081 1.264 . S
C1080 C1085 1.479 . S
C1080 C1090 1.465 . S
C1081 C1080 1.264 . S
C1081 C1083 1.339 . S
C1081 H1108 0.931 . S
C1082 C1083 1.395 . S
C1082 C1084 1.320 . S
C1083 C1081 1.339 . S
C1083 C1082 1.395 . S
C1083 H1109 0.929 . S
C1084 C1082 1.320 . S
C1084 C1085 1.405 . S
C1084 H1110 0.930 . S
C1085 C1080 1.479 . S
C1085 C1084 1.405 . S
C1085 H1111 0.931 . S
U1086 O1087 2.454 . S
U1086 O1088 2.458 . S
U1086 C1089 2.984 . S
U1086 C1090 2.847 . S
U1086 C1103 2.882 . S
U1086 O1104 2.441 . S
U1086 O1105 2.420 . S
U1086 O1106 2.455 . S
U1086 O1107 2.449 . S
O1087 U1086 2.454 . S
O1087 C1089 1.353 . S
O1088 U1086 2.458 . S
O1088 C1089 1.286 . S
C1089 U1086 2.984 . S
C1089 O1087 1.353 . S
C1089 O1088 1.286 . S
C1089 C1091 1.363 . S
C1090 C1080 1.465 . S
C1090 U1086 2.847 . S
C1090 O1104 1.249 . S
C1090 O1105 1.202 . S
C1091 C1089 1.363 . S
C1091 C1093 1.408 . S
C1091 C1096 1.342 . S
C1092 C1093 1.310 . S
C1092 C1095 1.461 . S
C1092 H1112 0.932 . S
C1093 C1091 1.408 . S
C1093 C1092 1.310 . S
C1093 H1113 0.930 . S
C1094 C1095 1.474 . S
C1094 C1096 1.285 . S
C1094 H1114 0.929 . S
C1095 C1092 1.461 . S
C1095 C1094 1.474 . S
C1096 C1091 1.342 . S
C1096 C1094 1.285 . S
C1096 H1115 0.930 . S
C1097 C1100 1.424 . S
C1097 C1102 1.245 . S
C1097 C1103 1.428 . S
C1098 C1101 1.260 . S
C1098 C1102 1.477 . S
C1098 H1116 0.932 . S
C1099 C1100 1.384 . S
C1099 C1101 1.479 . S
C1099 H1117 0.929 . S
C1100 C1097 1.424 . S
C1100 C1099 1.384 . S
C1100 H1118 0.928 . S
C1101 C1098 1.260 . S
C1101 C1099 1.479 . S
C1102 C1097 1.245 . S
C1102 C1098 1.477 . S
C1102 H1119 0.932 . S
C1103 U1086 2.882 . S
C1103 C1097 1.428 . S
C1103 O1106 1.301 . S
C1103 O1107 1.282 . S
O1104 U1086 2.441 . S
O1104 C1090 1.249 . S
O1105 U1086 2.420 . S
O1105 C1090 1.202 . S
O1106 U1086 2.455 . S
O1106 C1103 1.301 . S
O1107 U1086 2.449 . S
O1107 C1103 1.282 . S
H1108 C1081 0.931 . S
H1109 C1083 0.929 . S
H1110 C1084 0.930 . S
H1111 C1085 0.931 . S
H1112 C1092 0.932 . S
H1113 C1093 0.930 . S
H1114 C1094 0.929 . S
H1115 C1096 0.930 . S
H1116 C1098 0.932 . S
H1117 C1099 0.929 . S
H1118 C1100 0.928 . S
H1119 C1102 0.932 . S
C1120 C1121 1.264 . S
C1120 C1125 1.479 . S
C1120 C1130 1.465 . S
C1121 C1120 1.264 . S
C1121 C1123 1.339 . S
C1121 H1148 0.931 . S
C1122 C1123 1.395 . S
C1122 C1124 1.320 . S
C1123 C1121 1.339 . S
C1123 C1122 1.395 . S
C1123 H1149 0.929 . S
C1124 C1122 1.320 . S
C1124 C1125 1.405 . S
C1124 H1150 0.930 . S
C1125 C1120 1.479 . S
C1125 C1124 1.405 . S
C1125 H1151 0.931 . S
U1126 O1127 2.454 . S
U1126 O1128 2.458 . S
U1126 C1129 2.984 . S
U1126 C1130 2.847 . S
U1126 C1143 2.882 . S
U1126 O1144 2.441 . S
U1126 O1145 2.420 . S
U1126 O1146 2.455 . S
U1126 O1147 2.449 . S
O1127 U1126 2.454 . S
O1127 C1129 1.353 . S
O1128 U1126 2.458 . S
O1128 C1129 1.286 . S
C1129 U1126 2.984 . S
C1129 O1127 1.353 . S
C1129 O1128 1.286 . S
C1129 C1131 1.363 . S
C1130 C1120 1.465 . S
C1130 U1126 2.847 . S
C1130 O1144 1.249 . S
C1130 O1145 1.202 . S
C1131 C1129 1.363 . S
C1131 C1133 1.408 . S
C1131 C1136 1.342 . S
C1132 C1133 1.310 . S
C1132 C1135 1.461 . S
C1132 H1152 0.932 . S
C1133 C1131 1.408 . S
C1133 C1132 1.310 . S
C1133 H1153 0.930 . S
C1134 C1135 1.474 . S
C1134 C1136 1.285 . S
C1134 H1154 0.929 . S
C1135 C1132 1.461 . S
C1135 C1134 1.474 . S
C1136 C1131 1.342 . S
C1136 C1134 1.285 . S
C1136 H1155 0.930 . S
C1137 C1140 1.424 . S
C1137 C1142 1.245 . S
C1137 C1143 1.428 . S
C1138 C1141 1.260 . S
C1138 C1142 1.477 . S
C1138 H1156 0.932 . S
C1139 C1140 1.384 . S
C1139 C1141 1.479 . S
C1139 H1157 0.929 . S
C1140 C1137 1.424 . S
C1140 C1139 1.384 . S
C1140 H1158 0.928 . S
C1141 C1138 1.260 . S
C1141 C1139 1.479 . S
C1142 C1137 1.245 . S
C1142 C1138 1.477 . S
C1142 H1159 0.932 . S
C1143 U1126 2.882 . S
C1143 C1137 1.428 . S
C1143 O1146 1.301 . S
C1143 O1147 1.282 . S
O1144 U1126 2.441 . S
O1144 C1130 1.249 . S
O1145 U1126 2.420 . S
O1145 C1130 1.202 . S
O1146 U1126 2.455 . S
O1146 C1143 1.301 . S
O1147 U1126 2.449 . S
O1147 C1143 1.282 . S
H1148 C1121 0.931 . S
H1149 C1123 0.929 . S
H1150 C1124 0.930 . S
H1151 C1125 0.931 . S
H1152 C1132 0.932 . S
H1153 C1133 0.930 . S
H1154 C1134 0.929 . S
H1155 C1136 0.930 . S
H1156 C1138 0.932 . S
H1157 C1139 0.929 . S
H1158 C1140 0.928 . S
H1159 C1142 0.932 . S
C1160 C1161 1.264 . S
C1160 C1165 1.479 . S
C1160 C1170 1.465 . S
C1161 C1160 1.264 . S
C1161 C1163 1.339 . S
C1161 H1188 0.931 . S
C1162 C1163 1.395 . S
C1162 C1164 1.320 . S
C1163 C1161 1.339 . S
C1163 C1162 1.395 . S
C1163 H1189 0.929 . S
C1164 C1162 1.320 . S
C1164 C1165 1.405 . S
C1164 H1190 0.930 . S
C1165 C1160 1.479 . S
C1165 C1164 1.405 . S
C1165 H1191 0.931 . S
U1166 O1167 2.454 . S
U1166 O1168 2.458 . S
U1166 C1169 2.984 . S
U1166 C1170 2.847 . S
U1166 C1183 2.882 . S
U1166 O1184 2.441 . S
U1166 O1185 2.420 . S
U1166 O1186 2.455 . S
U1166 O1187 2.449 . S
O1167 U1166 2.454 . S
O1167 C1169 1.353 . S
O1168 U1166 2.458 . S
O1168 C1169 1.286 . S
C1169 U1166 2.984 . S
C1169 O1167 1.353 . S
C1169 O1168 1.286 . S
C1169 C1171 1.363 . S
C1170 C1160 1.465 . S
C1170 U1166 2.847 . S
C1170 O1184 1.249 . S
C1170 O1185 1.202 . S
C1171 C1169 1.363 . S
C1171 C1173 1.408 . S
C1171 C1176 1.342 . S
C1172 C1173 1.310 . S
C1172 C1175 1.461 . S
C1172 H1192 0.932 . S
C1173 C1171 1.408 . S
C1173 C1172 1.310 . S
C1173 H1193 0.930 . S
C1174 C1175 1.474 . S
C1174 C1176 1.285 . S
C1174 H1194 0.929 . S
C1175 C1172 1.461 . S
C1175 C1174 1.474 . S
C1176 C1171 1.342 . S
C1176 C1174 1.285 . S
C1176 H1195 0.930 . S
C1177 C1180 1.424 . S
C1177 C1182 1.245 . S
C1177 C1183 1.428 . S
C1178 C1181 1.260 . S
C1178 C1182 1.477 . S
C1178 H1196 0.932 . S
C1179 C1180 1.384 . S
C1179 C1181 1.479 . S
C1179 H1197 0.929 . S
C1180 C1177 1.424 . S
C1180 C1179 1.384 . S
C1180 H1198 0.928 . S
C1181 C1178 1.260 . S
C1181 C1179 1.479 . S
C1182 C1177 1.245 . S
C1182 C1178 1.477 . S
C1182 H1199 0.932 . S
C1183 U1166 2.882 . S
C1183 C1177 1.428 . S
C1183 O1186 1.301 . S
C1183 O1187 1.282 . S
O1184 U1166 2.441 . S
O1184 C1170 1.249 . S
O1185 U1166 2.420 . S
O1185 C1170 1.202 . S
O1186 U1166 2.455 . S
O1186 C1183 1.301 . S
O1187 U1166 2.449 . S
O1187 C1183 1.282 . S
H1188 C1161 0.931 . S
H1189 C1163 0.929 . S
H1190 C1164 0.930 . S
H1191 C1165 0.931 . S
H1192 C1172 0.932 . S
H1193 C1173 0.930 . S
H1194 C1174 0.929 . S
H1195 C1176 0.930 . S
H1196 C1178 0.932 . S
H1197 C1179 0.929 . S
H1198 C1180 0.928 . S
H1199 C1182 0.932 . S
C1200 C1201 1.264 . S
C1200 C1205 1.479 . S
C1200 C1210 1.465 . S
C1201 C1200 1.264 . S
C1201 C1203 1.339 . S
C1201 H1228 0.931 . S
C1202 C1203 1.395 . S
C1202 C1204 1.320 . S
C1203 C1201 1.339 . S
C1203 C1202 1.395 . S
C1203 H1229 0.929 . S
C1204 C1202 1.320 . S
C1204 C1205 1.405 . S
C1204 H1230 0.930 . S
C1205 C1200 1.479 . S
C1205 C1204 1.405 . S
C1205 H1231 0.931 . S
U1206 O1207 2.454 . S
U1206 O1208 2.458 . S
U1206 C1209 2.984 . S
U1206 C1210 2.847 . S
U1206 C1223 2.882 . S
U1206 O1224 2.441 . S
U1206 O1225 2.420 . S
U1206 O1226 2.455 . S
U1206 O1227 2.449 . S
O1207 U1206 2.454 . S
O1207 C1209 1.353 . S
O1208 U1206 2.458 . S
O1208 C1209 1.286 . S
C1209 U1206 2.984 . S
C1209 O1207 1.353 . S
C1209 O1208 1.286 . S
C1209 C1211 1.363 . S
C1210 C1200 1.465 . S
C1210 U1206 2.847 . S
C1210 O1224 1.249 . S
C1210 O1225 1.202 . S
C1211 C1209 1.363 . S
C1211 C1213 1.408 . S
C1211 C1216 1.342 . S
C1212 C1213 1.310 . S
C1212 C1215 1.461 . S
C1212 H1232 0.932 . S
C1213 C1211 1.408 . S
C1213 C1212 1.310 . S
C1213 H1233 0.930 . S
C1214 C1215 1.474 . S
C1214 C1216 1.285 . S
C1214 H1234 0.929 . S
C1215 C1212 1.461 . S
C1215 C1214 1.474 . S
C1216 C1211 1.342 . S
C1216 C1214 1.285 . S
C1216 H1235 0.930 . S
C1217 C1220 1.424 . S
C1217 C1222 1.245 . S
C1217 C1223 1.428 . S
C1218 C1221 1.260 . S
C1218 C1222 1.477 . S
C1218 H1236 0.932 . S
C1219 C1220 1.384 . S
C1219 C1221 1.479 . S
C1219 H1237 0.929 . S
C1220 C1217 1.424 . S
C1220 C1219 1.384 . S
C1220 H1238 0.928 . S
C1221 C1218 1.260 . S
C1221 C1219 1.479 . S
C1222 C1217 1.245 . S
C1222 C1218 1.477 . S
C1222 H1239 0.932 . S
C1223 U1206 2.882 . S
C1223 C1217 1.428 . S
C1223 O1226 1.301 . S
C1223 O1227 1.282 . S
O1224 U1206 2.441 . S
O1224 C1210 1.249 . S
O1225 U1206 2.420 . S
O1225 C1210 1.202 . S
O1226 U1206 2.455 . S
O1226 C1223 1.301 . S
O1227 U1206 2.449 . S
O1227 C1223 1.282 . S
H1228 C1201 0.931 . S
H1229 C1203 0.929 . S
H1230 C1204 0.930 . S
H1231 C1205 0.931 . S
H1232 C1212 0.932 . S
H1233 C1213 0.930 . S
H1234 C1214 0.929 . S
H1235 C1216 0.930 . S
H1236 C1218 0.932 . S
H1237 C1219 0.929 . S
H1238 C1220 0.928 . S
H1239 C1222 0.932 . S
C1240 C1241 1.264 . S
C1240 C1245 1.479 . S
C1240 C1250 1.465 . S
C1241 C1240 1.264 . S
C1241 C1243 1.339 . S
C1241 H1268 0.931 . S
C1242 C1243 1.395 . S
C1242 C1244 1.320 . S
C1243 C1241 1.339 . S
C1243 C1242 1.395 . S
C1243 H1269 0.929 . S
C1244 C1242 1.320 . S
C1244 C1245 1.405 . S
C1244 H1270 0.930 . S
C1245 C1240 1.479 . S
C1245 C1244 1.405 . S
C1245 H1271 0.931 . S
U1246 O1247 2.454 . S
U1246 O1248 2.458 . S
U1246 C1249 2.984 . S
U1246 C1250 2.847 . S
U1246 C1263 2.882 . S
U1246 O1264 2.441 . S
U1246 O1265 2.420 . S
U1246 O1266 2.455 . S
U1246 O1267 2.449 . S
O1247 U1246 2.454 . S
O1247 C1249 1.353 . S
O1248 U1246 2.458 . S
O1248 C1249 1.286 . S
C1249 U1246 2.984 . S
C1249 O1247 1.353 . S
C1249 O1248 1.286 . S
C1249 C1251 1.363 . S
C1250 C1240 1.465 . S
C1250 U1246 2.847 . S
C1250 O1264 1.249 . S
C1250 O1265 1.202 . S
C1251 C1249 1.363 . S
C1251 C1253 1.408 . S
C1251 C1256 1.342 . S
C1252 C1253 1.310 . S
C1252 C1255 1.461 . S
C1252 H1272 0.932 . S
C1253 C1251 1.408 . S
C1253 C1252 1.310 . S
C1253 H1273 0.930 . S
C1254 C1255 1.474 . S
C1254 C1256 1.285 . S
C1254 H1274 0.929 . S
C1255 C1252 1.461 . S
C1255 C1254 1.474 . S
C1256 C1251 1.342 . S
C1256 C1254 1.285 . S
C1256 H1275 0.930 . S
C1257 C1260 1.424 . S
C1257 C1262 1.245 . S
C1257 C1263 1.428 . S
C1258 C1261 1.260 . S
C1258 C1262 1.477 . S
C1258 H1276 0.932 . S
C1259 C1260 1.384 . S
C1259 C1261 1.479 . S
C1259 H1277 0.929 . S
C1260 C1257 1.424 . S
C1260 C1259 1.384 . S
C1260 H1278 0.928 . S
C1261 C1258 1.260 . S
C1261 C1259 1.479 . S
C1262 C1257 1.245 . S
C1262 C1258 1.477 . S
C1262 H1279 0.932 . S
C1263 U1246 2.882 . S
C1263 C1257 1.428 . S
C1263 O1266 1.301 . S
C1263 O1267 1.282 . S
O1264 U1246 2.441 . S
O1264 C1250 1.249 . S
O1265 U1246 2.420 . S
O1265 C1250 1.202 . S
O1266 U1246 2.455 . S
O1266 C1263 1.301 . S
O1267 U1246 2.449 . S
O1267 C1263 1.282 . S
H1268 C1241 0.931 . S
H1269 C1243 0.929 . S
H1270 C1244 0.930 . S
H1271 C1245 0.931 . S
H1272 C1252 0.932 . S
H1273 C1253 0.930 . S
H1274 C1254 0.929 . S
H1275 C1256 0.930 . S
H1276 C1258 0.932 . S
H1277 C1259 0.929 . S
H1278 C1260 0.928 . S
H1279 C1262 0.932 . S
C1280 C1281 1.264 . S
C1280 C1285 1.479 . S
C1280 C1290 1.465 . S
C1281 C1280 1.264 . S
C1281 C1283 1.339 . S
C1281 H1308 0.931 . S
C1282 C1283 1.395 . S
C1282 C1284 1.320 . S
C1283 C1281 1.339 . S
C1283 C1282 1.395 . S
C1283 H1309 0.929 . S
C1284 C1282 1.320 . S
C1284 C1285 1.405 . S
C1284 H1310 0.930 . S
C1285 C1280 1.479 . S
C1285 C1284 1.405 . S
C1285 H1311 0.931 . S
U1286 O1287 2.454 . S
U1286 O1288 2.458 . S
U1286 C1289 2.984 . S
U1286 C1290 2.847 . S
U1286 C1303 2.882 . S
U1286 O1304 2.441 . S
U1286 O1305 2.420 . S
U1286 O1306 2.455 . S
U1286 O1307 2.449 . S
O1287 U1286 2.454 . S
O1287 C1289 1.353 . S
O1288 U1286 2.458 . S
O1288 C1289 1.286 . S
C1289 U1286 2.984 . S
C1289 O1287 1.353 . S
C1289 O1288 1.286 . S
C1289 C1291 1.363 . S
C1290 C1280 1.465 . S
C1290 U1286 2.847 . S
C1290 O1304 1.249 . S
C1290 O1305 1.202 . S
C1291 C1289 1.363 . S
C1291 C1293 1.408 . S
C1291 C1296 1.342 . S
C1292 C1293 1.310 . S
C1292 C1295 1.461 . S
C1292 H1312 0.932 . S
C1293 C1291 1.408 . S
C1293 C1292 1.310 . S
C1293 H1313 0.930 . S
C1294 C1295 1.474 . S
C1294 C1296 1.285 . S
C1294 H1314 0.929 . S
C1295 C1292 1.461 . S
C1295 C1294 1.474 . S
C1296 C1291 1.342 . S
C1296 C1294 1.285 . S
C1296 H1315 0.930 . S
C1297 C1300 1.424 . S
C1297 C1302 1.245 . S
C1297 C1303 1.428 . S
C1298 C1301 1.260 . S
C1298 C1302 1.477 . S
C1298 H1316 0.932 . S
C1299 C1300 1.384 . S
C1299 C1301 1.479 . S
C1299 H1317 0.929 . S
C1300 C1297 1.424 . S
C1300 C1299 1.384 . S
C1300 H1318 0.928 . S
C1301 C1298 1.260 . S
C1301 C1299 1.479 . S
C1302 C1297 1.245 . S
C1302 C1298 1.477 . S
C1302 H1319 0.932 . S
C1303 U1286 2.882 . S
C1303 C1297 1.428 . S
C1303 O1306 1.301 . S
C1303 O1307 1.282 . S
O1304 U1286 2.441 . S
O1304 C1290 1.249 . S
O1305 U1286 2.420 . S
O1305 C1290 1.202 . S
O1306 U1286 2.455 . S
O1306 C1303 1.301 . S
O1307 U1286 2.449 . S
O1307 C1303 1.282 . S
H1308 C1281 0.931 . S
H1309 C1283 0.929 . S
H1310 C1284 0.930 . S
H1311 C1285 0.931 . S
H1312 C1292 0.932 . S
H1313 C1293 0.930 . S
H1314 C1294 0.929 . S
H1315 C1296 0.930 . S
H1316 C1298 0.932 . S
H1317 C1299 0.929 . S
H1318 C1300 0.928 . S
H1319 C1302 0.932 . S
C1320 C1321 1.264 . S
C1320 C1325 1.479 . S
C1320 C1330 1.465 . S
C1321 C1320 1.264 . S
C1321 C1323 1.339 . S
C1321 H1348 0.931 . S
C1322 C1323 1.395 . S
C1322 C1324 1.320 . S
C1323 C1321 1.339 . S
C1323 C1322 1.395 . S
C1323 H1349 0.929 . S
C1324 C1322 1.320 . S
C1324 C1325 1.405 . S
C1324 H1350 0.930 . S
C1325 C1320 1.479 . S
C1325 C1324 1.405 . S
C1325 H1351 0.931 . S
U1326 O1327 2.454 . S
U1326 O1328 2.458 . S
U1326 C1329 2.984 . S
U1326 C1330 2.847 . S
U1326 C1343 2.882 . S
U1326 O1344 2.441 . S
U1326 O1345 2.420 . S
U1326 O1346 2.455 . S
U1326 O1347 2.449 . S
O1327 U1326 2.454 . S
O1327 C1329 1.353 . S
O1328 U1326 2.458 . S
O1328 C1329 1.286 . S
C1329 U1326 2.984 . S
C1329 O1327 1.353 . S
C1329 O1328 1.286 . S
C1329 C1331 1.363 . S
C1330 C1320 1.465 . S
C1330 U1326 2.847 . S
C1330 O1344 1.249 . S
C1330 O1345 1.202 . S
C1331 C1329 1.363 . S
C1331 C1333 1.408 . S
C1331 C1336 1.342 . S
C1332 C1333 1.310 . S
C1332 C1335 1.461 . S
C1332 H1352 0.932 . S
C1333 C1331 1.408 . S
C1333 C1332 1.310 . S
C1333 H1353 0.930 . S
C1334 C1335 1.474 . S
C1334 C1336 1.285 . S
C1334 H1354 0.929 . S
C1335 C1332 1.461 . S
C1335 C1334 1.474 . S
C1336 C1331 1.342 . S
C1336 C1334 1.285 . S
C1336 H1355 0.930 . S
C1337 C1340 1.424 . S
C1337 C1342 1.245 . S
C1337 C1343 1.428 . S
C1338 C1341 1.260 . S
C1338 C1342 1.477 . S
C1338 H1356 0.932 . S
C1339 C1340 1.384 . S
C1339 C1341 1.479 . S
C1339 H1357 0.929 . S
C1340 C1337 1.424 . S
C1340 C1339 1.384 . S
C1340 H1358 0.928 . S
C1341 C1338 1.260 . S
C1341 C1339 1.479 . S
C1342 C1337 1.245 . S
C1342 C1338 1.477 . S
C1342 H1359 0.932 . S
C1343 U1326 2.882 . S
C1343 C1337 1.428 . S
C1343 O1346 1.301 . S
C1343 O1347 1.282 . S
O1344 U1326 2.441 . S
O1344 C1330 1.249 . S
O1345 U1326 2.420 . S
O1345 C1330 1.202 . S
O1346 U1326 2.455 . S
O1346 C1343 1.301 . S
O1347 U1326 2.449 . S
O1347 C1343 1.282 . S
H1348 C1321 0.931 . S
H1349 C1323 0.929 . S
H1350 C1324 0.930 . S
H1351 C1325 0.931 . S
H1352 C1332 0.932 . S
H1353 C1333 0.930 . S
H1354 C1334 0.929 . S
H1355 C1336 0.930 . S
H1356 C1338 0.932 . S
H1357 C1339 0.929 . S
H1358 C1340 0.928 . S
H1359 C1342 0.932 . S
C1360 C1361 1.264 . S
C1360 C1365 1.479 . S
C1360 C1370 1.465 . S
C1361 C1360 1.264 . S
C1361 C1363 1.339 . S
C1361 H1388 0.931 . S
C1362 C1363 1.395 . S
C1362 C1364 1.320 . S
C1363 C1361 1.339 . S
C1363 C1362 1.395 . S
C1363 H1389 0.929 . S
C1364 C1362 1.320 . S
C1364 C1365 1.405 . S
C1364 H1390 0.930 . S
C1365 C1360 1.479 . S
C1365 C1364 1.405 . S
C1365 H1391 0.931 . S
U1366 O1367 2.454 . S
U1366 O1368 2.458 . S
U1366 C1369 2.984 . S
U1366 C1370 2.847 . S
U1366 C1383 2.882 . S
U1366 O1384 2.441 . S
U1366 O1385 2.420 . S
U1366 O1386 2.455 . S
U1366 O1387 2.449 . S
O1367 U1366 2.454 . S
O1367 C1369 1.353 . S
O1368 U1366 2.458 . S
O1368 C1369 1.286 . S
C1369 U1366 2.984 . S
C1369 O1367 1.353 . S
C1369 O1368 1.286 . S
C1369 C1371 1.363 . S
C1370 C1360 1.465 . S
C1370 U1366 2.847 . S
C1370 O1384 1.249 . S
C1370 O1385 1.202 . S
C1371 C1369 1.363 . S
C1371 C1373 1.408 . S
C1371 C1376 1.342 . S
C1372 C1373 1.310 . S
C1372 C1375 1.461 . S
C1372 H1392 0.932 . S
C1373 C1371 1.408 . S
C1373 C1372 1.310 . S
C1373 H1393 0.930 . S
C1374 C1375 1.474 . S
C1374 C1376 1.285 . S
C1374 H1394 0.929 . S
C1375 C1372 1.461 . S
C1375 C1374 1.474 . S
C1376 C1371 1.342 . S
C1376 C1374 1.285 . S
C1376 H1395 0.930 . S
C1377 C1380 1.424 . S
C1377 C1382 1.245 . S
C1377 C1383 1.428 . S
C1378 C1381 1.260 . S
C1378 C1382 1.477 . S
C1378 H1396 0.932 . S
C1379 C1380 1.384 . S
C1379 C1381 1.479 . S
C1379 H1397 0.929 . S
C1380 C1377 1.424 . S
C1380 C1379 1.384 . S
C1380 H1398 0.928 . S
C1381 C1378 1.260 . S
C1381 C1379 1.479 . S
C1382 C1377 1.245 . S
C1382 C1378 1.477 . S
C1382 H1399 0.932 . S
C1383 U1366 2.882 . S
C1383 C1377 1.428 . S
C1383 O1386 1.301 . S
C1383 O1387 1.282 . S
O1384 U1366 2.441 . S
O1384 C1370 1.249 . S
O1385 U1366 2.420 . S
O1385 C1370 1.202 . S
O1386 U1366 2.455 . S
O1386 C1383 1.301 . S
O1387 U1366 2.449 . S
O1387 C1383 1.282 . S
H1388 C1361 0.931 . S
H1389 C1363 0.929 . S
H1390 C1364 0.930 . S
H1391 C1365 0.931 . S
H1392 C1372 0.932 . S
H1393 C1373 0.930 . S
H1394 C1374 0.929 . S
H1395 C1376 0.930 . S
H1396 C1378 0.932 . S
H1397 C1379 0.929 . S
H1398 C1380 0.928 . S
H1399 C1382 0.932 . S
C1400 C1401 1.264 . S
C1400 C1405 1.479 . S
C1400 C1410 1.465 . S
C1401 C1400 1.264 . S
C1401 C1403 1.339 . S
C1401 H1428 0.931 . S
C1402 C1403 1.395 . S
C1402 C1404 1.320 . S
C1403 C1401 1.339 . S
C1403 C1402 1.395 . S
C1403 H1429 0.929 . S
C1404 C1402 1.320 . S
C1404 C1405 1.405 . S
C1404 H1430 0.930 . S
C1405 C1400 1.479 . S
C1405 C1404 1.405 . S
C1405 H1431 0.931 . S
U1406 O1407 2.454 . S
U1406 O1408 2.458 . S
U1406 C1409 2.984 . S
U1406 C1410 2.847 . S
U1406 C1423 2.882 . S
U1406 O1424 2.441 . S
U1406 O1425 2.420 . S
U1406 O1426 2.455 . S
U1406 O1427 2.449 . S
O1407 U1406 2.454 . S
O1407 C1409 1.353 . S
O1408 U1406 2.458 . S
O1408 C1409 1.286 . S
C1409 U1406 2.984 . S
C1409 O1407 1.353 . S
C1409 O1408 1.286 . S
C1409 C1411 1.363 . S
C1410 C1400 1.465 . S
C1410 U1406 2.847 . S
C1410 O1424 1.249 . S
C1410 O1425 1.202 . S
C1411 C1409 1.363 . S
C1411 C1413 1.408 . S
C1411 C1416 1.342 . S
C1412 C1413 1.310 . S
C1412 C1415 1.461 . S
C1412 H1432 0.932 . S
C1413 C1411 1.408 . S
C1413 C1412 1.310 . S
C1413 H1433 0.930 . S
C1414 C1415 1.474 . S
C1414 C1416 1.285 . S
C1414 H1434 0.929 . S
C1415 C1412 1.461 . S
C1415 C1414 1.474 . S
C1416 C1411 1.342 . S
C1416 C1414 1.285 . S
C1416 H1435 0.930 . S
C1417 C1420 1.424 . S
C1417 C1422 1.245 . S
C1417 C1423 1.428 . S
C1418 C1421 1.260 . S
C1418 C1422 1.477 . S
C1418 H1436 0.932 . S
C1419 C1420 1.384 . S
C1419 C1421 1.479 . S
C1419 H1437 0.929 . S
C1420 C1417 1.424 . S
C1420 C1419 1.384 . S
C1420 H1438 0.928 . S
C1421 C1418 1.260 . S
C1421 C1419 1.479 . S
C1422 C1417 1.245 . S
C1422 C1418 1.477 . S
C1422 H1439 0.932 . S
C1423 U1406 2.882 . S
C1423 C1417 1.428 . S
C1423 O1426 1.301 . S
C1423 O1427 1.282 . S
O1424 U1406 2.441 . S
O1424 C1410 1.249 . S
O1425 U1406 2.420 . S
O1425 C1410 1.202 . S
O1426 U1406 2.455 . S
O1426 C1423 1.301 . S
O1427 U1406 2.449 . S
O1427 C1423 1.282 . S
H1428 C1401 0.931 . S
H1429 C1403 0.929 . S
H1430 C1404 0.930 . S
H1431 C1405 0.931 . S
H1432 C1412 0.932 . S
H1433 C1413 0.930 . S
H1434 C1414 0.929 . S
H1435 C1416 0.930 . S
H1436 C1418 0.932 . S
H1437 C1419 0.929 . S
H1438 C1420 0.928 . S
H1439 C1422 0.932 . S
C1440 C1441 1.264 . S
C1440 C1445 1.479 . S
C1440 C1450 1.465 . S
C1441 C1440 1.264 . S
C1441 C1443 1.339 . S
C1441 H1468 0.931 . S
C1442 C1443 1.395 . S
C1442 C1444 1.320 . S
C1443 C1441 1.339 . S
C1443 C1442 1.395 . S
C1443 H1469 0.929 . S
C1444 C1442 1.320 . S
C1444 C1445 1.405 . S
C1444 H1470 0.930 . S
C1445 C1440 1.479 . S
C1445 C1444 1.405 . S
C1445 H1471 0.931 . S
U1446 O1447 2.454 . S
U1446 O1448 2.458 . S
U1446 C1449 2.984 . S
U1446 C1450 2.847 . S
U1446 C1463 2.882 . S
U1446 O1464 2.441 . S
U1446 O1465 2.420 . S
U1446 O1466 2.455 . S
U1446 O1467 2.449 . S
O1447 U1446 2.454 . S
O1447 C1449 1.353 . S
O1448 U1446 2.458 . S
O1448 C1449 1.286 . S
C1449 U1446 2.984 . S
C1449 O1447 1.353 . S
C1449 O1448 1.286 . S
C1449 C1451 1.363 . S
C1450 C1440 1.465 . S
C1450 U1446 2.847 . S
C1450 O1464 1.249 . S
C1450 O1465 1.202 . S
C1451 C1449 1.363 . S
C1451 C1453 1.408 . S
C1451 C1456 1.342 . S
C1452 C1453 1.310 . S
C1452 C1455 1.461 . S
C1452 H1472 0.932 . S
C1453 C1451 1.408 . S
C1453 C1452 1.310 . S
C1453 H1473 0.930 . S
C1454 C1455 1.474 . S
C1454 C1456 1.285 . S
C1454 H1474 0.929 . S
C1455 C1452 1.461 . S
C1455 C1454 1.474 . S
C1456 C1451 1.342 . S
C1456 C1454 1.285 . S
C1456 H1475 0.930 . S
C1457 C1460 1.424 . S
C1457 C1462 1.245 . S
C1457 C1463 1.428 . S
C1458 C1461 1.260 . S
C1458 C1462 1.477 . S
C1458 H1476 0.932 . S
C1459 C1460 1.384 . S
C1459 C1461 1.479 . S
C1459 H1477 0.929 . S
C1460 C1457 1.424 . S
C1460 C1459 1.384 . S
C1460 H1478 0.928 . S
C1461 C1458 1.260 . S
C1461 C1459 1.479 . S
C1462 C1457 1.245 . S
C1462 C1458 1.477 . S
C1462 H1479 0.932 . S
C1463 U1446 2.882 . S
C1463 C1457 1.428 . S
C1463 O1466 1.301 . S
C1463 O1467 1.282 . S
O1464 U1446 2.441 . S
O1464 C1450 1.249 . S
O1465 U1446 2.420 . S
O1465 C1450 1.202 . S
O1466 U1446 2.455 . S
O1466 C1463 1.301 . S
O1467 U1446 2.449 . S
O1467 C1463 1.282 . S
H1468 C1441 0.931 . S
H1469 C1443 0.929 . S
H1470 C1444 0.930 . S
H1471 C1445 0.931 . S
H1472 C1452 0.932 . S
H1473 C1453 0.930 . S
H1474 C1454 0.929 . S
H1475 C1456 0.930 . S
H1476 C1458 0.932 . S
H1477 C1459 0.929 . S
H1478 C1460 0.928 . S
H1479 C1462 0.932 . S
C1480 C1481 1.264 . S
C1480 C1485 1.479 . S
C1480 C1490 1.465 . S
C1481 C1480 1.264 . S
C1481 C1483 1.339 . S
C1481 H1508 0.931 . S
C1482 C1483 1.395 . S
C1482 C1484 1.320 . S
C1483 C1481 1.339 . S
C1483 C1482 1.395 . S
C1483 H1509 0.929 . S
C1484 C1482 1.320 . S
C1484 C1485 1.405 . S
C1484 H1510 0.930 . S
C1485 C1480 1.479 . S
C1485 C1484 1.405 . S
C1485 H1511 0.931 . S
U1486 O1487 2.454 . S
U1486 O1488 2.458 . S
U1486 C1489 2.984 . S
U1486 C1490 2.847 . S
U1486 C1503 2.882 . S
U1486 O1504 2.441 . S
U1486 O1505 2.420 . S
U1486 O1506 2.455 . S
U1486 O1507 2.449 . S
O1487 U1486 2.454 . S
O1487 C1489 1.353 . S
O1488 U1486 2.458 . S
O1488 C1489 1.286 . S
C1489 U1486 2.984 . S
C1489 O1487 1.353 . S
C1489 O1488 1.286 . S
C1489 C1491 1.363 . S
C1490 C1480 1.465 . S
C1490 U1486 2.847 . S
C1490 O1504 1.249 . S
C1490 O1505 1.202 . S
C1491 C1489 1.363 . S
C1491 C1493 1.408 . S
C1491 C1496 1.342 . S
C1492 C1493 1.310 . S
C1492 C1495 1.461 . S
C1492 H1512 0.932 . S
C1493 C1491 1.408 . S
C1493 C1492 1.310 . S
C1493 H1513 0.930 . S
C1494 C1495 1.474 . S
C1494 C1496 1.285 . S
C1494 H1514 0.929 . S
C1495 C1492 1.461 . S
C1495 C1494 1.474 . S
C1496 C1491 1.342 . S
C1496 C1494 1.285 . S
C1496 H1515 0.930 . S
C1497 C1500 1.424 . S
C1497 C1502 1.245 . S
C1497 C1503 1.428 . S
C1498 C1501 1.260 . S
C1498 C1502 1.477 . S
C1498 H1516 0.932 . S
C1499 C1500 1.384 . S
C1499 C1501 1.479 . S
C1499 H1517 0.929 . S
C1500 C1497 1.424 . S
C1500 C1499 1.384 . S
C1500 H1518 0.928 . S
C1501 C1498 1.260 . S
C1501 C1499 1.479 . S
C1502 C1497 1.245 . S
C1502 C1498 1.477 . S
C1502 H1519 0.932 . S
C1503 U1486 2.882 . S
C1503 C1497 1.428 . S
C1503 O1506 1.301 . S
C1503 O1507 1.282 . S
O1504 U1486 2.441 . S
O1504 C1490 1.249 . S
O1505 U1486 2.420 . S
O1505 C1490 1.202 . S
O1506 U1486 2.455 . S
O1506 C1503 1.301 . S
O1507 U1486 2.449 . S
O1507 C1503 1.282 . S
H1508 C1481 0.931 . S
H1509 C1483 0.929 . S
H1510 C1484 0.930 . S
H1511 C1485 0.931 . S
H1512 C1492 0.932 . S
H1513 C1493 0.930 . S
H1514 C1494 0.929 . S
H1515 C1496 0.930 . S
H1516 C1498 0.932 . S
H1517 C1499 0.929 . S
H1518 C1500 0.928 . S
H1519 C1502 0.932 . S
C1520 C1521 1.264 . S
C1520 C1525 1.479 . S
C1520 C1530 1.465 . S
C1521 C1520 1.264 . S
C1521 C1523 1.339 . S
C1521 H1548 0.931 . S
C1522 C1523 1.395 . S
C1522 C1524 1.320 . S
C1523 C1521 1.339 . S
C1523 C1522 1.395 . S
C1523 H1549 0.929 . S
C1524 C1522 1.320 . S
C1524 C1525 1.405 . S
C1524 H1550 0.930 . S
C1525 C1520 1.479 . S
C1525 C1524 1.405 . S
C1525 H1551 0.931 . S
U1526 O1527 2.454 . S
U1526 O1528 2.458 . S
U1526 C1529 2.984 . S
U1526 C1530 2.847 . S
U1526 C1543 2.882 . S
U1526 O1544 2.441 . S
U1526 O1545 2.420 . S
U1526 O1546 2.455 . S
U1526 O1547 2.449 . S
O1527 U1526 2.454 . S
O1527 C1529 1.353 . S
O1528 U1526 2.458 . S
O1528 C1529 1.286 . S
C1529 U1526 2.984 . S
C1529 O1527 1.353 . S
C1529 O1528 1.286 . S
C1529 C1531 1.363 . S
C1530 C1520 1.465 . S
C1530 U1526 2.847 . S
C1530 O1544 1.249 . S
C1530 O1545 1.202 . S
C1531 C1529 1.363 . S
C1531 C1533 1.408 . S
C1531 C1536 1.342 . S
C1532 C1533 1.310 . S
C1532 C1535 1.461 . S
C1532 H1552 0.932 . S
C1533 C1531 1.408 . S
C1533 C1532 1.310 . S
C1533 H1553 0.930 . S
C1534 C1535 1.474 . S
C1534 C1536 1.285 . S
C1534 H1554 0.929 . S
C1535 C1532 1.461 . S
C1535 C1534 1.474 . S
C1536 C1531 1.342 . S
C1536 C1534 1.285 . S
C1536 H1555 0.930 . S
C1537 C1540 1.424 . S
C1537 C1542 1.245 . S
C1537 C1543 1.428 . S
C1538 C1541 1.260 . S
C1538 C1542 1.477 . S
C1538 H1556 0.932 . S
C1539 C1540 1.384 . S
C1539 C1541 1.479 . S
C1539 H1557 0.929 . S
C1540 C1537 1.424 . S
C1540 C1539 1.384 . S
C1540 H1558 0.928 . S
C1541 C1538 1.260 . S
C1541 C1539 1.479 . S
C1542 C1537 1.245 . S
C1542 C1538 1.477 . S
C1542 H1559 0.932 . S
C1543 U1526 2.882 . S
C1543 C1537 1.428 . S
C1543 O1546 1.301 . S
C1543 O1547 1.282 . S
O1544 U1526 2.441 . S
O1544 C1530 1.249 . S
O1545 U1526 2.420 . S
O1545 C1530 1.202 . S
O1546 U1526 2.455 . S
O1546 C1543 1.301 . S
O1547 U1526 2.449 . S
O1547 C1543 1.282 . S
H1548 C1521 0.931 . S
H1549 C1523 0.929 . S
H1550 C1524 0.930 . S
H1551 C1525 0.931 . S
H1552 C1532 0.932 . S
H1553 C1533 0.930 . S
H1554 C1534 0.929 . S
H1555 C1536 0.930 . S
H1556 C1538 0.932 . S
H1557 C1539 0.929 . S
H1558 C1540 0.928 . S
H1559 C1542 0.932 . S
C1560 C1561 1.264 . S
C1560 C1565 1.479 . S
C1560 C1570 1.465 . S
C1561 C1560 1.264 . S
C1561 C1563 1.339 . S
C1561 H1588 0.931 . S
C1562 C1563 1.395 . S
C1562 C1564 1.320 . S
C1563 C1561 1.339 . S
C1563 C1562 1.395 . S
C1563 H1589 0.929 . S
C1564 C1562 1.320 . S
C1564 C1565 1.405 . S
C1564 H1590 0.930 . S
C1565 C1560 1.479 . S
C1565 C1564 1.405 . S
C1565 H1591 0.931 . S
U1566 O1567 2.454 . S
U1566 O1568 2.458 . S
U1566 C1569 2.984 . S
U1566 C1570 2.847 . S
U1566 C1583 2.882 . S
U1566 O1584 2.441 . S
U1566 O1585 2.420 . S
U1566 O1586 2.455 . S
U1566 O1587 2.449 . S
O1567 U1566 2.454 . S
O1567 C1569 1.353 . S
O1568 U1566 2.458 . S
O1568 C1569 1.286 . S
C1569 U1566 2.984 . S
C1569 O1567 1.353 . S
C1569 O1568 1.286 . S
C1569 C1571 1.363 . S
C1570 C1560 1.465 . S
C1570 U1566 2.847 . S
C1570 O1584 1.249 . S
C1570 O1585 1.202 . S
C1571 C1569 1.363 . S
C1571 C1573 1.408 . S
C1571 C1576 1.342 . S
C1572 C1573 1.310 . S
C1572 C1575 1.461 . S
C1572 H1592 0.932 . S
C1573 C1571 1.408 . S
C1573 C1572 1.310 . S
C1573 H1593 0.930 . S
C1574 C1575 1.474 . S
C1574 C1576 1.285 . S
C1574 H1594 0.929 . S
C1575 C1572 1.461 . S
C1575 C1574 1.474 . S
C1576 C1571 1.342 . S
C1576 C1574 1.285 . S
C1576 H1595 0.930 . S
C1577 C1580 1.424 . S
C1577 C1582 1.245 . S
C1577 C1583 1.428 . S
C1578 C1581 1.260 . S
C1578 C1582 1.477 . S
C1578 H1596 0.932 . S
C1579 C1580 1.384 . S
C1579 C1581 1.479 . S
C1579 H1597 0.929 . S
C1580 C1577 1.424 . S
C1580 C1579 1.384 . S
C1580 H1598 0.928 . S
C1581 C1578 1.260 . S
C1581 C1579 1.479 . S
C1582 C1577 1.245 . S
C1582 C1578 1.477 . S
C1582 H1599 0.932 . S
C1583 U1566 2.882 . S
C1583 C1577 1.428 . S
C1583 O1586 1.301 . S
C1583 O1587 1.282 . S
O1584 U1566 2.441 . S
O1584 C1570 1.249 . S
O1585 U1566 2.420 . S
O1585 C1570 1.202 . S
O1586 U1566 2.455 . S
O1586 C1583 1.301 . S
O1587 U1566 2.449 . S
O1587 C1583 1.282 . S
H1588 C1561 0.931 . S
H1589 C1563 0.929 . S
H1590 C1564 0.930 . S
H1591 C1565 0.931 . S
H1592 C1572 0.932 . S
H1593 C1573 0.930 . S
H1594 C1574 0.929 . S
H1595 C1576 0.930 . S
H1596 C1578 0.932 . S
H1597 C1579 0.929 . S
H1598 C1580 0.928 . S
H1599 C1582 0.932 . S
C1600 C1601 1.264 . S
C1600 C1605 1.479 . S
C1600 C1610 1.465 . S
C1601 C1600 1.264 . S
C1601 C1603 1.339 . S
C1601 H1628 0.931 . S
C1602 C1603 1.395 . S
C1602 C1604 1.320 . S
C1603 C1601 1.339 . S
C1603 C1602 1.395 . S
C1603 H1629 0.929 . S
C1604 C1602 1.320 . S
C1604 C1605 1.405 . S
C1604 H1630 0.930 . S
C1605 C1600 1.479 . S
C1605 C1604 1.405 . S
C1605 H1631 0.931 . S
U1606 O1607 2.454 . S
U1606 O1608 2.458 . S
U1606 C1609 2.984 . S
U1606 C1610 2.847 . S
U1606 C1623 2.882 . S
U1606 O1624 2.441 . S
U1606 O1625 2.420 . S
U1606 O1626 2.455 . S
U1606 O1627 2.449 . S
O1607 U1606 2.454 . S
O1607 C1609 1.353 . S
O1608 U1606 2.458 . S
O1608 C1609 1.286 . S
C1609 U1606 2.984 . S
C1609 O1607 1.353 . S
C1609 O1608 1.286 . S
C1609 C1611 1.363 . S
C1610 C1600 1.465 . S
C1610 U1606 2.847 . S
C1610 O1624 1.249 . S
C1610 O1625 1.202 . S
C1611 C1609 1.363 . S
C1611 C1613 1.408 . S
C1611 C1616 1.342 . S
C1612 C1613 1.310 . S
C1612 C1615 1.461 . S
C1612 H1632 0.932 . S
C1613 C1611 1.408 . S
C1613 C1612 1.310 . S
C1613 H1633 0.930 . S
C1614 C1615 1.474 . S
C1614 C1616 1.285 . S
C1614 H1634 0.929 . S
C1615 C1612 1.461 . S
C1615 C1614 1.474 . S
C1616 C1611 1.342 . S
C1616 C1614 1.285 . S
C1616 H1635 0.930 . S
C1617 C1620 1.424 . S
C1617 C1622 1.245 . S
C1617 C1623 1.428 . S
C1618 C1621 1.260 . S
C1618 C1622 1.477 . S
C1618 H1636 0.932 . S
C1619 C1620 1.384 . S
C1619 C1621 1.479 . S
C1619 H1637 0.929 . S
C1620 C1617 1.424 . S
C1620 C1619 1.384 . S
C1620 H1638 0.928 . S
C1621 C1618 1.260 . S
C1621 C1619 1.479 . S
C1622 C1617 1.245 . S
C1622 C1618 1.477 . S
C1622 H1639 0.932 . S
C1623 U1606 2.882 . S
C1623 C1617 1.428 . S
C1623 O1626 1.301 . S
C1623 O1627 1.282 . S
O1624 U1606 2.441 . S
O1624 C1610 1.249 . S
O1625 U1606 2.420 . S
O1625 C1610 1.202 . S
O1626 U1606 2.455 . S
O1626 C1623 1.301 . S
O1627 U1606 2.449 . S
O1627 C1623 1.282 . S
H1628 C1601 0.931 . S
H1629 C1603 0.929 . S
H1630 C1604 0.930 . S
H1631 C1605 0.931 . S
H1632 C1612 0.932 . S
H1633 C1613 0.930 . S
H1634 C1614 0.929 . S
H1635 C1616 0.930 . S
H1636 C1618 0.932 . S
H1637 C1619 0.929 . S
H1638 C1620 0.928 . S
H1639 C1622 0.932 . S
C1640 C1641 1.264 . S
C1640 C1645 1.479 . S
C1640 C1650 1.465 . S
C1641 C1640 1.264 . S
C1641 C1643 1.339 . S
C1641 H1668 0.931 . S
C1642 C1643 1.395 . S
C1642 C1644 1.320 . S
C1643 C1641 1.339 . S
C1643 C1642 1.395 . S
C1643 H1669 0.929 . S
C1644 C1642 1.320 . S
C1644 C1645 1.405 . S
C1644 H1670 0.930 . S
C1645 C1640 1.479 . S
C1645 C1644 1.405 . S
C1645 H1671 0.931 . S
U1646 O1647 2.454 . S
U1646 O1648 2.458 . S
U1646 C1649 2.984 . S
U1646 C1650 2.847 . S
U1646 C1663 2.882 . S
U1646 O1664 2.441 . S
U1646 O1665 2.420 . S
U1646 O1666 2.455 . S
U1646 O1667 2.449 . S
O1647 U1646 2.454 . S
O1647 C1649 1.353 . S
O1648 U1646 2.458 . S
O1648 C1649 1.286 . S
C1649 U1646 2.984 . S
C1649 O1647 1.353 . S
C1649 O1648 1.286 . S
C1649 C1651 1.363 . S
C1650 C1640 1.465 . S
C1650 U1646 2.847 . S
C1650 O1664 1.249 . S
C1650 O1665 1.202 . S
C1651 C1649 1.363 . S
C1651 C1653 1.408 . S
C1651 C1656 1.342 . S
C1652 C1653 1.310 . S
C1652 C1655 1.461 . S
C1652 H1672 0.932 . S
C1653 C1651 1.408 . S
C1653 C1652 1.310 . S
C1653 H1673 0.930 . S
C1654 C1655 1.474 . S
C1654 C1656 1.285 . S
C1654 H1674 0.929 . S
C1655 C1652 1.461 . S
C1655 C1654 1.474 . S
C1656 C1651 1.342 . S
C1656 C1654 1.285 . S
C1656 H1675 0.930 . S
C1657 C1660 1.424 . S
C1657 C1662 1.245 . S
C1657 C1663 1.428 . S
C1658 C1661 1.260 . S
C1658 C1662 1.477 . S
C1658 H1676 0.932 . S
C1659 C1660 1.384 . S
C1659 C1661 1.479 . S
C1659 H1677 0.929 . S
C1660 C1657 1.424 . S
C1660 C1659 1.384 . S
C1660 H1678 0.928 . S
C1661 C1658 1.260 . S
C1661 C1659 1.479 . S
C1662 C1657 1.245 . S
C1662 C1658 1.477 . S
C1662 H1679 0.932 . S
C1663 U1646 2.882 . S
C1663 C1657 1.428 . S
C1663 O1666 1.301 . S
C1663 O1667 1.282 . S
O1664 U1646 2.441 . S
O1664 C1650 1.249 . S
O1665 U1646 2.420 . S
O1665 C1650 1.202 . S
O1666 U1646 2.455 . S
O1666 C1663 1.301 . S
O1667 U1646 2.449 . S
O1667 C1663 1.282 . S
H1668 C1641 0.931 . S
H1669 C1643 0.929 . S
H1670 C1644 0.930 . S
H1671 C1645 0.931 . S
H1672 C1652 0.932 . S
H1673 C1653 0.930 . S
H1674 C1654 0.929 . S
H1675 C1656 0.930 . S
H1676 C1658 0.932 . S
H1677 C1659 0.929 . S
H1678 C1660 0.928 . S
H1679 C1662 0.932 . S
C1680 C1681 1.264 . S
C1680 C1685 1.479 . S
C1680 C1690 1.465 . S
C1681 C1680 1.264 . S
C1681 C1683 1.339 . S
C1681 H1708 0.931 . S
C1682 C1683 1.395 . S
C1682 C1684 1.320 . S
C1683 C1681 1.339 . S
C1683 C1682 1.395 . S
C1683 H1709 0.929 . S
C1684 C1682 1.320 . S
C1684 C1685 1.405 . S
C1684 H1710 0.930 . S
C1685 C1680 1.479 . S
C1685 C1684 1.405 . S
C1685 H1711 0.931 . S
U1686 O1687 2.454 . S
U1686 O1688 2.458 . S
U1686 C1689 2.984 . S
U1686 C1690 2.847 . S
U1686 C1703 2.882 . S
U1686 O1704 2.441 . S
U1686 O1705 2.420 . S
U1686 O1706 2.455 . S
U1686 O1707 2.449 . S
O1687 U1686 2.454 . S
O1687 C1689 1.353 . S
O1688 U1686 2.458 . S
O1688 C1689 1.286 . S
C1689 U1686 2.984 . S
C1689 O1687 1.353 . S
C1689 O1688 1.286 . S
C1689 C1691 1.363 . S
C1690 C1680 1.465 . S
C1690 U1686 2.847 . S
C1690 O1704 1.249 . S
C1690 O1705 1.202 . S
C1691 C1689 1.363 . S
C1691 C1693 1.408 . S
C1691 C1696 1.342 . S
C1692 C1693 1.310 . S
C1692 C1695 1.461 . S
C1692 H1712 0.932 . S
C1693 C1691 1.408 . S
C1693 C1692 1.310 . S
C1693 H1713 0.930 . S
C1694 C1695 1.474 . S
C1694 C1696 1.285 . S
C1694 H1714 0.929 . S
C1695 C1692 1.461 . S
C1695 C1694 1.474 . S
C1696 C1691 1.342 . S
C1696 C1694 1.285 . S
C1696 H1715 0.930 . S
C1697 C1700 1.424 . S
C1697 C1702 1.245 . S
C1697 C1703 1.428 . S
C1698 C1701 1.260 . S
C1698 C1702 1.477 . S
C1698 H1716 0.932 . S
C1699 C1700 1.384 . S
C1699 C1701 1.479 . S
C1699 H1717 0.929 . S
C1700 C1697 1.424 . S
C1700 C1699 1.384 . S
C1700 H1718 0.928 . S
C1701 C1698 1.260 . S
C1701 C1699 1.479 . S
C1702 C1697 1.245 . S
C1702 C1698 1.477 . S
C1702 H1719 0.932 . S
C1703 U1686 2.882 . S
C1703 C1697 1.428 . S
C1703 O1706 1.301 . S
C1703 O1707 1.282 . S
O1704 U1686 2.441 . S
O1704 C1690 1.249 . S
O1705 U1686 2.420 . S
O1705 C1690 1.202 . S
O1706 U1686 2.455 . S
O1706 C1703 1.301 . S
O1707 U1686 2.449 . S
O1707 C1703 1.282 . S
H1708 C1681 0.931 . S
H1709 C1683 0.929 . S
H1710 C1684 0.930 . S
H1711 C1685 0.931 . S
H1712 C1692 0.932 . S
H1713 C1693 0.930 . S
H1714 C1694 0.929 . S
H1715 C1696 0.930 . S
H1716 C1698 0.932 . S
H1717 C1699 0.929 . S
H1718 C1700 0.928 . S
H1719 C1702 0.932 . S
C1720 C1721 1.264 . S
C1720 C1725 1.479 . S
C1720 C1730 1.465 . S
C1721 C1720 1.264 . S
C1721 C1723 1.339 . S
C1721 H1748 0.931 . S
C1722 C1723 1.395 . S
C1722 C1724 1.320 . S
C1723 C1721 1.339 . S
C1723 C1722 1.395 . S
C1723 H1749 0.929 . S
C1724 C1722 1.320 . S
C1724 C1725 1.405 . S
C1724 H1750 0.930 . S
C1725 C1720 1.479 . S
C1725 C1724 1.405 . S
C1725 H1751 0.931 . S
U1726 O1727 2.454 . S
U1726 O1728 2.458 . S
U1726 C1729 2.984 . S
U1726 C1730 2.847 . S
U1726 C1743 2.882 . S
U1726 O1744 2.441 . S
U1726 O1745 2.420 . S
U1726 O1746 2.455 . S
U1726 O1747 2.449 . S
O1727 U1726 2.454 . S
O1727 C1729 1.353 . S
O1728 U1726 2.458 . S
O1728 C1729 1.286 . S
C1729 U1726 2.984 . S
C1729 O1727 1.353 . S
C1729 O1728 1.286 . S
C1729 C1731 1.363 . S
C1730 C1720 1.465 . S
C1730 U1726 2.847 . S
C1730 O1744 1.249 . S
C1730 O1745 1.202 . S
C1731 C1729 1.363 . S
C1731 C1733 1.408 . S
C1731 C1736 1.342 . S
C1732 C1733 1.310 . S
C1732 C1735 1.461 . S
C1732 H1752 0.932 . S
C1733 C1731 1.408 . S
C1733 C1732 1.310 . S
C1733 H1753 0.930 . S
C1734 C1735 1.474 . S
C1734 C1736 1.285 . S
C1734 H1754 0.929 . S
C1735 C1732 1.461 . S
C1735 C1734 1.474 . S
C1736 C1731 1.342 . S
C1736 C1734 1.285 . S
C1736 H1755 0.930 . S
C1737 C1740 1.424 . S
C1737 C1742 1.245 . S
C1737 C1743 1.428 . S
C1738 C1741 1.260 . S
C1738 C1742 1.477 . S
C1738 H1756 0.932 . S
C1739 C1740 1.384 . S
C1739 C1741 1.479 . S
C1739 H1757 0.929 . S
C1740 C1737 1.424 . S
C1740 C1739 1.384 . S
C1740 H1758 0.928 . S
C1741 C1738 1.260 . S
C1741 C1739 1.479 . S
C1742 C1737 1.245 . S
C1742 C1738 1.477 . S
C1742 H1759 0.932 . S
C1743 U1726 2.882 . S
C1743 C1737 1.428 . S
C1743 O1746 1.301 . S
C1743 O1747 1.282 . S
O1744 U1726 2.441 . S
O1744 C1730 1.249 . S
O1745 U1726 2.420 . S
O1745 C1730 1.202 . S
O1746 U1726 2.455 . S
O1746 C1743 1.301 . S
O1747 U1726 2.449 . S
O1747 C1743 1.282 . S
H1748 C1721 0.931 . S
H1749 C1723 0.929 . S
H1750 C1724 0.930 . S
H1751 C1725 0.931 . S
H1752 C1732 0.932 . S
H1753 C1733 0.930 . S
H1754 C1734 0.929 . S
H1755 C1736 0.930 . S
H1756 C1738 0.932 . S
H1757 C1739 0.929 . S
H1758 C1740 0.928 . S
H1759 C1742 0.932 . S
C1760 C1761 1.264 . S
C1760 C1765 1.479 . S
C1760 C1770 1.465 . S
C1761 C1760 1.264 . S
C1761 C1763 1.339 . S
C1761 H1788 0.931 . S
C1762 C1763 1.395 . S
C1762 C1764 1.320 . S
C1763 C1761 1.339 . S
C1763 C1762 1.395 . S
C1763 H1789 0.929 . S
C1764 C1762 1.320 . S
C1764 C1765 1.405 . S
C1764 H1790 0.930 . S
C1765 C1760 1.479 . S
C1765 C1764 1.405 . S
C1765 H1791 0.931 . S
U1766 O1767 2.454 . S
U1766 O1768 2.458 . S
U1766 C1769 2.984 . S
U1766 C1770 2.847 . S
U1766 C1783 2.882 . S
U1766 O1784 2.441 . S
U1766 O1785 2.420 . S
U1766 O1786 2.455 . S
U1766 O1787 2.449 . S
O1767 U1766 2.454 . S
O1767 C1769 1.353 . S
O1768 U1766 2.458 . S
O1768 C1769 1.286 . S
C1769 U1766 2.984 . S
C1769 O1767 1.353 . S
C1769 O1768 1.286 . S
C1769 C1771 1.363 . S
C1770 C1760 1.465 . S
C1770 U1766 2.847 . S
C1770 O1784 1.249 . S
C1770 O1785 1.202 . S
C1771 C1769 1.363 . S
C1771 C1773 1.408 . S
C1771 C1776 1.342 . S
C1772 C1773 1.310 . S
C1772 C1775 1.461 . S
C1772 H1792 0.932 . S
C1773 C1771 1.408 . S
C1773 C1772 1.310 . S
C1773 H1793 0.930 . S
C1774 C1775 1.474 . S
C1774 C1776 1.285 . S
C1774 H1794 0.929 . S
C1775 C1772 1.461 . S
C1775 C1774 1.474 . S
C1776 C1771 1.342 . S
C1776 C1774 1.285 . S
C1776 H1795 0.930 . S
C1777 C1780 1.424 . S
C1777 C1782 1.245 . S
C1777 C1783 1.428 . S
C1778 C1781 1.260 . S
C1778 C1782 1.477 . S
C1778 H1796 0.932 . S
C1779 C1780 1.384 . S
C1779 C1781 1.479 . S
C1779 H1797 0.929 . S
C1780 C1777 1.424 . S
C1780 C1779 1.384 . S
C1780 H1798 0.928 . S
C1781 C1778 1.260 . S
C1781 C1779 1.479 . S
C1782 C1777 1.245 . S
C1782 C1778 1.477 . S
C1782 H1799 0.932 . S
C1783 U1766 2.882 . S
C1783 C1777 1.428 . S
C1783 O1786 1.301 . S
C1783 O1787 1.282 . S
O1784 U1766 2.441 . S
O1784 C1770 1.249 . S
O1785 U1766 2.420 . S
O1785 C1770 1.202 . S
O1786 U1766 2.455 . S
O1786 C1783 1.301 . S
O1787 U1766 2.449 . S
O1787 C1783 1.282 . S
H1788 C1761 0.931 . S
H1789 C1763 0.929 . S
H1790 C1764 0.930 . S
H1791 C1765 0.931 . S
H1792 C1772 0.932 . S
H1793 C1773 0.930 . S
H1794 C1774 0.929 . S
H1795 C1776 0.930 . S
H1796 C1778 0.932 . S
H1797 C1779 0.929 . S
H1798 C1780 0.928 . S
H1799 C1782 0.932 . S
C1800 C1801 1.264 . S
C1800 C1805 1.479 . S
C1800 C1810 1.465 . S
C1801 C1800 1.264 . S
C1801 C1803 1.339 . S
C1801 H1828 0.931 . S
C1802 C1803 1.395 . S
C1802 C1804 1.320 . S
C1803 C1801 1.339 . S
C1803 C1802 1.395 . S
C1803 H1829 0.929 . S
C1804 C1802 1.320 . S
C1804 C1805 1.405 . S
C1804 H1830 0.930 . S
C1805 C1800 1.479 . S
C1805 C1804 1.405 . S
C1805 H1831 0.931 . S
U1806 O1807 2.454 . S
U1806 O1808 2.458 . S
U1806 C1809 2.984 . S
U1806 C1810 2.847 . S
U1806 C1823 2.882 . S
U1806 O1824 2.441 . S
U1806 O1825 2.420 . S
U1806 O1826 2.455 . S
U1806 O1827 2.449 . S
O1807 U1806 2.454 . S
O1807 C1809 1.353 . S
O1808 U1806 2.458 . S
O1808 C1809 1.286 . S
C1809 U1806 2.984 . S
C1809 O1807 1.353 . S
C1809 O1808 1.286 . S
C1809 C1811 1.363 . S
C1810 C1800 1.465 . S
C1810 U1806 2.847 . S
C1810 O1824 1.249 . S
C1810 O1825 1.202 . S
C1811 C1809 1.363 . S
C1811 C1813 1.408 . S
C1811 C1816 1.342 . S
C1812 C1813 1.310 . S
C1812 C1815 1.461 . S
C1812 H1832 0.932 . S
C1813 C1811 1.408 . S
C1813 C1812 1.310 . S
C1813 H1833 0.930 . S
C1814 C1815 1.474 . S
C1814 C1816 1.285 . S
C1814 H1834 0.929 . S
C1815 C1812 1.461 . S
C1815 C1814 1.474 . S
C1816 C1811 1.342 . S
C1816 C1814 1.285 . S
C1816 H1835 0.930 . S
C1817 C1820 1.424 . S
C1817 C1822 1.245 . S
C1817 C1823 1.428 . S
C1818 C1821 1.260 . S
C1818 C1822 1.477 . S
C1818 H1836 0.932 . S
C1819 C1820 1.384 . S
C1819 C1821 1.479 . S
C1819 H1837 0.929 . S
C1820 C1817 1.424 . S
C1820 C1819 1.384 . S
C1820 H1838 0.928 . S
C1821 C1818 1.260 . S
C1821 C1819 1.479 . S
C1822 C1817 1.245 . S
C1822 C1818 1.477 . S
C1822 H1839 0.932 . S
C1823 U1806 2.882 . S
C1823 C1817 1.428 . S
C1823 O1826 1.301 . S
C1823 O1827 1.282 . S
O1824 U1806 2.441 . S
O1824 C1810 1.249 . S
O1825 U1806 2.420 . S
O1825 C1810 1.202 . S
O1826 U1806 2.455 . S
O1826 C1823 1.301 . S
O1827 U1806 2.449 . S
O1827 C1823 1.282 . S
H1828 C1801 0.931 . S
H1829 C1803 0.929 . S
H1830 C1804 0.930 . S
H1831 C1805 0.931 . S
H1832 C1812 0.932 . S
H1833 C1813 0.930 . S
H1834 C1814 0.929 . S
H1835 C1816 0.930 . S
H1836 C1818 0.932 . S
H1837 C1819 0.929 . S
H1838 C1820 0.928 . S
H1839 C1822 0.932 . S
C1840 C1841 1.264 . S
C1840 C1845 1.479 . S
C1840 C1850 1.465 . S
C1841 C1840 1.264 . S
C1841 C1843 1.339 . S
C1841 H1868 0.931 . S
C1842 C1843 1.395 . S
C1842 C1844 1.320 . S
C1843 C1841 1.339 . S
C1843 C1842 1.395 . S
C1843 H1869 0.929 . S
C1844 C1842 1.320 . S
C1844 C1845 1.405 . S
C1844 H1870 0.930 . S
C1845 C1840 1.479 . S
C1845 C1844 1.405 . S
C1845 H1871 0.931 . S
U1846 O1847 2.454 . S
U1846 O1848 2.458 . S
U1846 C1849 2.984 . S
U1846 C1850 2.847 . S
U1846 C1863 2.882 . S
U1846 O1864 2.441 . S
U1846 O1865 2.420 . S
U1846 O1866 2.455 . S
U1846 O1867 2.449 . S
O1847 U1846 2.454 . S
O1847 C1849 1.353 . S
O1848 U1846 2.458 . S
O1848 C1849 1.286 . S
C1849 U1846 2.984 . S
C1849 O1847 1.353 . S
C1849 O1848 1.286 . S
C1849 C1851 1.363 . S
C1850 C1840 1.465 . S
C1850 U1846 2.847 . S
C1850 O1864 1.249 . S
C1850 O1865 1.202 . S
C1851 C1849 1.363 . S
C1851 C1853 1.408 . S
C1851 C1856 1.342 . S
C1852 C1853 1.310 . S
C1852 C1855 1.461 . S
C1852 H1872 0.932 . S
C1853 C1851 1.408 . S
C1853 C1852 1.310 . S
C1853 H1873 0.930 . S
C1854 C1855 1.474 . S
C1854 C1856 1.285 . S
C1854 H1874 0.929 . S
C1855 C1852 1.461 . S
C1855 C1854 1.474 . S
C1856 C1851 1.342 . S
C1856 C1854 1.285 . S
C1856 H1875 0.930 . S
C1857 C1860 1.424 . S
C1857 C1862 1.245 . S
C1857 C1863 1.428 . S
C1858 C1861 1.260 . S
C1858 C1862 1.477 . S
C1858 H1876 0.932 . S
C1859 C1860 1.384 . S
C1859 C1861 1.479 . S
C1859 H1877 0.929 . S
C1860 C1857 1.424 . S
C1860 C1859 1.384 . S
C1860 H1878 0.928 . S
C1861 C1858 1.260 . S
C1861 C1859 1.479 . S
C1862 C1857 1.245 . S
C1862 C1858 1.477 . S
C1862 H1879 0.932 . S
C1863 U1846 2.882 . S
C1863 C1857 1.428 . S
C1863 O1866 1.301 . S
C1863 O1867 1.282 . S
O1864 U1846 2.441 . S
O1864 C1850 1.249 . S
O1865 U1846 2.420 . S
O1865 C1850 1.202 . S
O1866 U1846 2.455 . S
O1866 C1863 1.301 . S
O1867 U1846 2.449 . S
O1867 C1863 1.282 . S
H1868 C1841 0.931 . S
H1869 C1843 0.929 . S
H1870 C1844 0.930 . S
H1871 C1845 0.931 . S
H1872 C1852 0.932 . S
H1873 C1853 0.930 . S
H1874 C1854 0.929 . S
H1875 C1856 0.930 . S
H1876 C1858 0.932 . S
H1877 C1859 0.929 . S
H1878 C1860 0.928 . S
H1879 C1862 0.932 . S
C1880 C1881 1.264 . S
C1880 C1885 1.479 . S
C1880 C1890 1.465 . S
C1881 C1880 1.264 . S
C1881 C1883 1.339 . S
C1881 H1908 0.931 . S
C1882 C1883 1.395 . S
C1882 C1884 1.320 . S
C1883 C1881 1.339 . S
C1883 C1882 1.395 . S
C1883 H1909 0.929 . S
C1884 C1882 1.320 . S
C1884 C1885 1.405 . S
C1884 H1910 0.930 . S
C1885 C1880 1.479 . S
C1885 C1884 1.405 . S
C1885 H1911 0.931 . S
U1886 O1887 2.454 . S
U1886 O1888 2.458 . S
U1886 C1889 2.984 . S
U1886 C1890 2.847 . S
U1886 C1903 2.882 . S
U1886 O1904 2.441 . S
U1886 O1905 2.420 . S
U1886 O1906 2.455 . S
U1886 O1907 2.449 . S
O1887 U1886 2.454 . S
O1887 C1889 1.353 . S
O1888 U1886 2.458 . S
O1888 C1889 1.286 . S
C1889 U1886 2.984 . S
C1889 O1887 1.353 . S
C1889 O1888 1.286 . S
C1889 C1891 1.363 . S
C1890 C1880 1.465 . S
C1890 U1886 2.847 . S
C1890 O1904 1.249 . S
C1890 O1905 1.202 . S
C1891 C1889 1.363 . S
C1891 C1893 1.408 . S
C1891 C1896 1.342 . S
C1892 C1893 1.310 . S
C1892 C1895 1.461 . S
C1892 H1912 0.932 . S
C1893 C1891 1.408 . S
C1893 C1892 1.310 . S
C1893 H1913 0.930 . S
C1894 C1895 1.474 . S
C1894 C1896 1.285 . S
C1894 H1914 0.929 . S
C1895 C1892 1.461 . S
C1895 C1894 1.474 . S
C1896 C1891 1.342 . S
C1896 C1894 1.285 . S
C1896 H1915 0.930 . S
C1897 C1900 1.424 . S
C1897 C1902 1.245 . S
C1897 C1903 1.428 . S
C1898 C1901 1.260 . S
C1898 C1902 1.477 . S
C1898 H1916 0.932 . S
C1899 C1900 1.384 . S
C1899 C1901 1.479 . S
C1899 H1917 0.929 . S
C1900 C1897 1.424 . S
C1900 C1899 1.384 . S
C1900 H1918 0.928 . S
C1901 C1898 1.260 . S
C1901 C1899 1.479 . S
C1902 C1897 1.245 . S
C1902 C1898 1.477 . S
C1902 H1919 0.932 . S
C1903 U1886 2.882 . S
C1903 C1897 1.428 . S
C1903 O1906 1.301 . S
C1903 O1907 1.282 . S
O1904 U1886 2.441 . S
O1904 C1890 1.249 . S
O1905 U1886 2.420 . S
O1905 C1890 1.202 . S
O1906 U1886 2.455 . S
O1906 C1903 1.301 . S
O1907 U1886 2.449 . S
O1907 C1903 1.282 . S
H1908 C1881 0.931 . S
H1909 C1883 0.929 . S
H1910 C1884 0.930 . S
H1911 C1885 0.931 . S
H1912 C1892 0.932 . S
H1913 C1893 0.930 . S
H1914 C1894 0.929 . S
H1915 C1896 0.930 . S
H1916 C1898 0.932 . S
H1917 C1899 0.929 . S
H1918 C1900 0.928 . S
H1919 C1902 0.932 . S
C1920 C1921 1.264 . S
C1920 C1925 1.479 . S
C1920 C1930 1.465 . S
C1921 C1920 1.264 . S
C1921 C1923 1.339 . S
C1921 H1948 0.931 . S
C1922 C1923 1.395 . S
C1922 C1924 1.320 . S
C1923 C1921 1.339 . S
C1923 C1922 1.395 . S
C1923 H1949 0.929 . S
C1924 C1922 1.320 . S
C1924 C1925 1.405 . S
C1924 H1950 0.930 . S
C1925 C1920 1.479 . S
C1925 C1924 1.405 . S
C1925 H1951 0.931 . S
U1926 O1927 2.454 . S
U1926 O1928 2.458 . S
U1926 C1929 2.984 . S
U1926 C1930 2.847 . S
U1926 C1943 2.882 . S
U1926 O1944 2.441 . S
U1926 O1945 2.420 . S
U1926 O1946 2.455 . S
U1926 O1947 2.449 . S
O1927 U1926 2.454 . S
O1927 C1929 1.353 . S
O1928 U1926 2.458 . S
O1928 C1929 1.286 . S
C1929 U1926 2.984 . S
C1929 O1927 1.353 . S
C1929 O1928 1.286 . S
C1929 C1931 1.363 . S
C1930 C1920 1.465 . S
C1930 U1926 2.847 . S
C1930 O1944 1.249 . S
C1930 O1945 1.202 . S
C1931 C1929 1.363 . S
C1931 C1933 1.408 . S
C1931 C1936 1.342 . S
C1932 C1933 1.310 . S
C1932 C1935 1.461 . S
C1932 H1952 0.932 . S
C1933 C1931 1.408 . S
C1933 C1932 1.310 . S
C1933 H1953 0.930 . S
C1934 C1935 1.474 . S
C1934 C1936 1.285 . S
C1934 H1954 0.929 . S
C1935 C1932 1.461 . S
C1935 C1934 1.474 . S
C1936 C1931 1.342 . S
C1936 C1934 1.285 . S
C1936 H1955 0.930 . S
C1937 C1940 1.424 . S
C1937 C1942 1.245 . S
C1937 C1943 1.428 . S
C1938 C1941 1.260 . S
C1938 C1942 1.477 . S
C1938 H1956 0.932 . S
C1939 C1940 1.384 . S
C1939 C1941 1.479 . S
C1939 H1957 0.929 . S
C1940 C1937 1.424 . S
C1940 C1939 1.384 . S
C1940 H1958 0.928 . S
C1941 C1938 1.260 . S
C1941 C1939 1.479 . S
C1942 C1937 1.245 . S
C1942 C1938 1.477 . S
C1942 H1959 0.932 . S
C1943 U1926 2.882 . S
C1943 C1937 1.428 . S
C1943 O1946 1.301 . S
C1943 O1947 1.282 . S
O1944 U1926 2.441 . S
O1944 C1930 1.249 . S
O1945 U1926 2.420 . S
O1945 C1930 1.202 . S
O1946 U1926 2.455 . S
O1946 C1943 1.301 . S
O1947 U1926 2.449 . S
O1947 C1943 1.282 . S
H1948 C1921 0.931 . S
H1949 C1923 0.929 . S
H1950 C1924 0.930 . S
H1951 C1925 0.931 . S
H1952 C1932 0.932 . S
H1953 C1933 0.930 . S
H1954 C1934 0.929 . S
H1955 C1936 0.930 . S
H1956 C1938 0.932 . S
H1957 C1939 0.929 . S
H1958 C1940 0.928 . S
H1959 C1942 0.932 . S
C1960 C1961 1.264 . S
C1960 C1965 1.479 . S
C1960 C1970 1.465 . S
C1961 C1960 1.264 . S
C1961 C1963 1.339 . S
C1961 H1988 0.931 . S
C1962 C1963 1.395 . S
C1962 C1964 1.320 . S
C1963 C1961 1.339 . S
C1963 C1962 1.395 . S
C1963 H1989 0.929 . S
C1964 C1962 1.320 . S
C1964 C1965 1.405 . S
C1964 H1990 0.930 . S
C1965 C1960 1.479 . S
C1965 C1964 1.405 . S
C1965 H1991 0.931 . S
U1966 O1967 2.454 . S
U1966 O1968 2.458 . S
U1966 C1969 2.984 . S
U1966 C1970 2.847 . S
U1966 C1983 2.882 . S
U1966 O1984 2.441 . S
U1966 O1985 2.420 . S
U1966 O1986 2.455 . S
U1966 O1987 2.449 . S
O1967 U1966 2.454 . S
O1967 C1969 1.353 . S
O1968 U1966 2.458 . S
O1968 C1969 1.286 . S
C1969 U1966 2.984 . S
C1969 O1967 1.353 . S
C1969 O1968 1.286 . S
C1969 C1971 1.363 . S
C1970 C1960 1.465 . S
C1970 U1966 2.847 . S
C1970 O1984 1.249 . S
C1970 O1985 1.202 . S
C1971 C1969 1.363 . S
C1971 C1973 1.408 . S
C1971 C1976 1.342 . S
C1972 C1973 1.310 . S
C1972 C1975 1.461 . S
C1972 H1992 0.932 . S
C1973 C1971 1.408 . S
C1973 C1972 1.310 . S
C1973 H1993 0.930 . S
C1974 C1975 1.474 . S
C1974 C1976 1.285 . S
C1974 H1994 0.929 . S
C1975 C1972 1.461 . S
C1975 C1974 1.474 . S
C1976 C1971 1.342 . S
C1976 C1974 1.285 . S
C1976 H1995 0.930 . S
C1977 C1980 1.424 . S
C1977 C1982 1.245 . S
C1977 C1983 1.428 . S
C1978 C1981 1.260 . S
C1978 C1982 1.477 . S
C1978 H1996 0.932 . S
C1979 C1980 1.384 . S
C1979 C1981 1.479 . S
C1979 H1997 0.929 . S
C1980 C1977 1.424 . S
C1980 C1979 1.384 . S
C1980 H1998 0.928 . S
C1981 C1978 1.260 . S
C1981 C1979 1.479 . S
C1982 C1977 1.245 . S
C1982 C1978 1.477 . S
C1982 H1999 0.932 . S
C1983 U1966 2.882 . S
C1983 C1977 1.428 . S
C1983 O1986 1.301 . S
C1983 O1987 1.282 . S
O1984 U1966 2.441 . S
O1984 C1970 1.249 . S
O1985 U1966 2.420 . S
O1985 C1970 1.202 . S
O1986 U1966 2.455 . S
O1986 C1983 1.301 . S
O1987 U1966 2.449 . S
O1987 C1983 1.282 . S
H1988 C1961 0.931 . S
H1989 C1963 0.929 . S
H1990 C1964 0.930 . S
H1991 C1965 0.931 . S
H1992 C1972 0.932 . S
H1993 C1973 0.930 . S
H1994 C1974 0.929 . S
H1995 C1976 0.930 . S
H1996 C1978 0.932 . S
H1997 C1979 0.929 . S
H1998 C1980 0.928 . S
H1999 C1982 0.932 . S
C2000 C2001 1.264 . S
C2000 C2005 1.479 . S
C2000 C2010 1.465 . S
C2001 C2000 1.264 . S
C2001 C2003 1.339 . S
C2001 H2028 0.931 . S
C2002 C2003 1.395 . S
C2002 C2004 1.320 . S
C2003 C2001 1.339 . S
C2003 C2002 1.395 . S
C2003 H2029 0.929 . S
C2004 C2002 1.320 . S
C2004 C2005 1.405 . S
C2004 H2030 0.930 . S
C2005 C2000 1.479 . S
C2005 C2004 1.405 . S
C2005 H2031 0.931 . S
U2006 O2007 2.454 . S
U2006 O2008 2.458 . S
U2006 C2009 2.984 . S
U2006 C2010 2.847 . S
U2006 C2023 2.882 . S
U2006 O2024 2.441 . S
U2006 O2025 2.420 . S
U2006 O2026 2.455 . S
U2006 O2027 2.449 . S
O2007 U2006 2.454 . S
O2007 C2009 1.353 . S
O2008 U2006 2.458 . S
O2008 C2009 1.286 . S
C2009 U2006 2.984 . S
C2009 O2007 1.353 . S
C2009 O2008 1.286 . S
C2009 C2011 1.363 . S
C2010 C2000 1.465 . S
C2010 U2006 2.847 . S
C2010 O2024 1.249 . S
C2010 O2025 1.202 . S
C2011 C2009 1.363 . S
C2011 C2013 1.408 . S
C2011 C2016 1.342 . S
C2012 C2013 1.310 . S
C2012 C2015 1.461 . S
C2012 H2032 0.932 . S
C2013 C2011 1.408 . S
C2013 C2012 1.310 . S
C2013 H2033 0.930 . S
C2014 C2015 1.474 . S
C2014 C2016 1.285 . S
C2014 H2034 0.929 . S
C2015 C2012 1.461 . S
C2015 C2014 1.474 . S
C2016 C2011 1.342 . S
C2016 C2014 1.285 . S
C2016 H2035 0.930 . S
C2017 C2020 1.424 . S
C2017 C2022 1.245 . S
C2017 C2023 1.428 . S
C2018 C2021 1.260 . S
C2018 C2022 1.477 . S
C2018 H2036 0.932 . S
C2019 C2020 1.384 . S
C2019 C2021 1.479 . S
C2019 H2037 0.929 . S
C2020 C2017 1.424 . S
C2020 C2019 1.384 . S
C2020 H2038 0.928 . S
C2021 C2018 1.260 . S
C2021 C2019 1.479 . S
C2022 C2017 1.245 . S
C2022 C2018 1.477 . S
C2022 H2039 0.932 . S
C2023 U2006 2.882 . S
C2023 C2017 1.428 . S
C2023 O2026 1.301 . S
C2023 O2027 1.282 . S
O2024 U2006 2.441 . S
O2024 C2010 1.249 . S
O2025 U2006 2.420 . S
O2025 C2010 1.202 . S
O2026 U2006 2.455 . S
O2026 C2023 1.301 . S
O2027 U2006 2.449 . S
O2027 C2023 1.282 . S
H2028 C2001 0.931 . S
H2029 C2003 0.929 . S
H2030 C2004 0.930 . S
H2031 C2005 0.931 . S
H2032 C2012 0.932 . S
H2033 C2013 0.930 . S
H2034 C2014 0.929 . S
H2035 C2016 0.930 . S
H2036 C2018 0.932 . S
H2037 C2019 0.929 . S
H2038 C2020 0.928 . S
H2039 C2022 0.932 . S
C2040 C2041 1.264 . S
C2040 C2045 1.479 . S
C2040 C2050 1.465 . S
C2041 C2040 1.264 . S
C2041 C2043 1.339 . S
C2041 H2068 0.931 . S
C2042 C2043 1.395 . S
C2042 C2044 1.320 . S
C2043 C2041 1.339 . S
C2043 C2042 1.395 . S
C2043 H2069 0.929 . S
C2044 C2042 1.320 . S
C2044 C2045 1.405 . S
C2044 H2070 0.930 . S
C2045 C2040 1.479 . S
C2045 C2044 1.405 . S
C2045 H2071 0.931 . S
U2046 O2047 2.454 . S
U2046 O2048 2.458 . S
U2046 C2049 2.984 . S
U2046 C2050 2.847 . S
U2046 C2063 2.882 . S
U2046 O2064 2.441 . S
U2046 O2065 2.420 . S
U2046 O2066 2.455 . S
U2046 O2067 2.449 . S
O2047 U2046 2.454 . S
O2047 C2049 1.353 . S
O2048 U2046 2.458 . S
O2048 C2049 1.286 . S
C2049 U2046 2.984 . S
C2049 O2047 1.353 . S
C2049 O2048 1.286 . S
C2049 C2051 1.363 . S
C2050 C2040 1.465 . S
C2050 U2046 2.847 . S
C2050 O2064 1.249 . S
C2050 O2065 1.202 . S
C2051 C2049 1.363 . S
C2051 C2053 1.408 . S
C2051 C2056 1.342 . S
C2052 C2053 1.310 . S
C2052 C2055 1.461 . S
C2052 H2072 0.932 . S
C2053 C2051 1.408 . S
C2053 C2052 1.310 . S
C2053 H2073 0.930 . S
C2054 C2055 1.474 . S
C2054 C2056 1.285 . S
C2054 H2074 0.929 . S
C2055 C2052 1.461 . S
C2055 C2054 1.474 . S
C2056 C2051 1.342 . S
C2056 C2054 1.285 . S
C2056 H2075 0.930 . S
C2057 C2060 1.424 . S
C2057 C2062 1.245 . S
C2057 C2063 1.428 . S
C2058 C2061 1.260 . S
C2058 C2062 1.477 . S
C2058 H2076 0.932 . S
C2059 C2060 1.384 . S
C2059 C2061 1.479 . S
C2059 H2077 0.929 . S
C2060 C2057 1.424 . S
C2060 C2059 1.384 . S
C2060 H2078 0.928 . S
C2061 C2058 1.260 . S
C2061 C2059 1.479 . S
C2062 C2057 1.245 . S
C2062 C2058 1.477 . S
C2062 H2079 0.932 . S
C2063 U2046 2.882 . S
C2063 C2057 1.428 . S
C2063 O2066 1.301 . S
C2063 O2067 1.282 . S
O2064 U2046 2.441 . S
O2064 C2050 1.249 . S
O2065 U2046 2.420 . S
O2065 C2050 1.202 . S
O2066 U2046 2.455 . S
O2066 C2063 1.301 . S
O2067 U2046 2.449 . S
O2067 C2063 1.282 . S
H2068 C2041 0.931 . S
H2069 C2043 0.929 . S
H2070 C2044 0.930 . S
H2071 C2045 0.931 . S
H2072 C2052 0.932 . S
H2073 C2053 0.930 . S
H2074 C2054 0.929 . S
H2075 C2056 0.930 . S
H2076 C2058 0.932 . S
H2077 C2059 0.929 . S
H2078 C2060 0.928 . S
H2079 C2062 0.932 . S
C2080 C2081 1.264 . S
C2080 C2085 1.479 . S
C2080 C2090 1.465 . S
C2081 C2080 1.264 . S
C2081 C2083 1.339 . S
C2081 H2108 0.931 . S
C2082 C2083 1.395 . S
C2082 C2084 1.320 . S
C2083 C2081 1.339 . S
C2083 C2082 1.395 . S
C2083 H2109 0.929 . S
C2084 C2082 1.320 . S
C2084 C2085 1.405 . S
C2084 H2110 0.930 . S
C2085 C2080 1.479 . S
C2085 C2084 1.405 . S
C2085 H2111 0.931 . S
U2086 O2087 2.454 . S
U2086 O2088 2.458 . S
U2086 C2089 2.984 . S
U2086 C2090 2.847 . S
U2086 C2103 2.882 . S
U2086 O2104 2.441 . S
U2086 O2105 2.420 . S
U2086 O2106 2.455 . S
U2086 O2107 2.449 . S
O2087 U2086 2.454 . S
O2087 C2089 1.353 . S
O2088 U2086 2.458 . S
O2088 C2089 1.286 . S
C2089 U2086 2.984 . S
C2089 O2087 1.353 . S
C2089 O2088 1.286 . S
C2089 C2091 1.363 . S
C2090 C2080 1.465 . S
C2090 U2086 2.847 . S
C2090 O2104 1.249 . S
C2090 O2105 1.202 . S
C2091 C2089 1.363 . S
C2091 C2093 1.408 . S
C2091 C2096 1.342 . S
C2092 C2093 1.310 . S
C2092 C2095 1.461 . S
C2092 H2112 0.932 . S
C2093 C2091 1.408 . S
C2093 C2092 1.310 . S
C2093 H2113 0.930 . S
C2094 C2095 1.474 . S
C2094 C2096 1.285 . S
C2094 H2114 0.929 . S
C2095 C2092 1.461 . S
C2095 C2094 1.474 . S
C2096 C2091 1.342 . S
C2096 C2094 1.285 . S
C2096 H2115 0.930 . S
C2097 C2100 1.424 . S
C2097 C2102 1.245 . S
C2097 C2103 1.428 . S
C2098 C2101 1.260 . S
C2098 C2102 1.477 . S
C2098 H2116 0.932 . S
C2099 C2100 1.384 . S
C2099 C2101 1.479 . S
C2099 H2117 0.929 . S
C2100 C2097 1.424 . S
C2100 C2099 1.384 . S
C2100 H2118 0.928 . S
C2101 C2098 1.260 . S
C2101 C2099 1.479 . S
C2102 C2097 1.245 . S
C2102 C2098 1.477 . S
C2102 H2119 0.932 . S
C2103 U2086 2.882 . S
C2103 C2097 1.428 . S
C2103 O2106 1.301 . S
C2103 O2107 1.282 . S
O2104 U2086 2.441 . S
O2104 C2090 1.249 . S
O2105 U2086 2.420 . S
O2105 C2090 1.202 . S
O2106 U2086 2.455 . S
O2106 C2103 1.301 . S
O2107 U2086 2.449 . S
O2107 C2103 1.282 . S
H2108 C2081 0.931 . S
H2109 C2083 0.929 . S
H2110 C2084 0.930 . S
H2111 C2085 0.931 . S
H2112 C2092 0.932 . S
H2113 C2093 0.930 . S
H2114 C2094 0.929 . S
H2115 C2096 0.930 . S
H2116 C2098 0.932 . S
H2117 C2099 0.929 . S
H2118 C2100 0.928 . S
H2119 C2102 0.932 . S
C2120 C2121 1.264 . S
C2120 C2125 1.479 . S
C2120 C2130 1.465 . S
C2121 C2120 1.264 . S
C2121 C2123 1.339 . S
C2121 H2148 0.931 . S
C2122 C2123 1.395 . S
C2122 C2124 1.320 . S
C2123 C2121 1.339 . S
C2123 C2122 1.395 . S
C2123 H2149 0.929 . S
C2124 C2122 1.320 . S
C2124 C2125 1.405 . S
C2124 H2150 0.930 . S
C2125 C2120 1.479 . S
C2125 C2124 1.405 . S
C2125 H2151 0.931 . S
U2126 O2127 2.454 . S
U2126 O2128 2.458 . S
U2126 C2129 2.984 . S
U2126 C2130 2.847 . S
U2126 C2143 2.882 . S
U2126 O2144 2.441 . S
U2126 O2145 2.420 . S
U2126 O2146 2.455 . S
U2126 O2147 2.449 . S
O2127 U2126 2.454 . S
O2127 C2129 1.353 . S
O2128 U2126 2.458 . S
O2128 C2129 1.286 . S
C2129 U2126 2.984 . S
C2129 O2127 1.353 . S
C2129 O2128 1.286 . S
C2129 C2131 1.363 . S
C2130 C2120 1.465 . S
C2130 U2126 2.847 . S
C2130 O2144 1.249 . S
C2130 O2145 1.202 . S
C2131 C2129 1.363 . S
C2131 C2133 1.408 . S
C2131 C2136 1.342 . S
C2132 C2133 1.310 . S
C2132 C2135 1.461 . S
C2132 H2152 0.932 . S
C2133 C2131 1.408 . S
C2133 C2132 1.310 . S
C2133 H2153 0.930 . S
C2134 C2135 1.474 . S
C2134 C2136 1.285 . S
C2134 H2154 0.929 . S
C2135 C2132 1.461 . S
C2135 C2134 1.474 . S
C2136 C2131 1.342 . S
C2136 C2134 1.285 . S
C2136 H2155 0.930 . S
C2137 C2140 1.424 . S
C2137 C2142 1.245 . S
C2137 C2143 1.428 . S
C2138 C2141 1.260 . S
C2138 C2142 1.477 . S
C2138 H2156 0.932 . S
C2139 C2140 1.384 . S
C2139 C2141 1.479 . S
C2139 H2157 0.929 . S
C2140 C2137 1.424 . S
C2140 C2139 1.384 . S
C2140 H2158 0.928 . S
C2141 C2138 1.260 . S
C2141 C2139 1.479 . S
C2142 C2137 1.245 . S
C2142 C2138 1.477 . S
C2142 H2159 0.932 . S
C2143 U2126 2.882 . S
C2143 C2137 1.428 . S
C2143 O2146 1.301 . S
C2143 O2147 1.282 . S
O2144 U2126 2.441 . S
O2144 C2130 1.249 . S
O2145 U2126 2.420 . S
O2145 C2130 1.202 . S
O2146 U2126 2.455 . S
O2146 C2143 1.301 . S
O2147 U2126 2.449 . S
O2147 C2143 1.282 . S
H2148 C2121 0.931 . S
H2149 C2123 0.929 . S
H2150 C2124 0.930 . S
H2151 C2125 0.931 . S
H2152 C2132 0.932 . S
H2153 C2133 0.930 . S
H2154 C2134 0.929 . S
H2155 C2136 0.930 . S
H2156 C2138 0.932 . S
H2157 C2139 0.929 . S
H2158 C2140 0.928 . S
H2159 C2142 0.932 . S
C2160 C2161 1.264 . S
C2160 C2165 1.479 . S
C2160 C2170 1.465 . S
C2161 C2160 1.264 . S
C2161 C2163 1.339 . S
C2161 H2188 0.931 . S
C2162 C2163 1.395 . S
C2162 C2164 1.320 . S
C2163 C2161 1.339 . S
C2163 C2162 1.395 . S
C2163 H2189 0.929 . S
C2164 C2162 1.320 . S
C2164 C2165 1.405 . S
C2164 H2190 0.930 . S
C2165 C2160 1.479 . S
C2165 C2164 1.405 . S
C2165 H2191 0.931 . S
U2166 O2167 2.454 . S
U2166 O2168 2.458 . S
U2166 C2169 2.984 . S
U2166 C2170 2.847 . S
U2166 C2183 2.882 . S
U2166 O2184 2.441 . S
U2166 O2185 2.420 . S
U2166 O2186 2.455 . S
U2166 O2187 2.449 . S
O2167 U2166 2.454 . S
O2167 C2169 1.353 . S
O2168 U2166 2.458 . S
O2168 C2169 1.286 . S
C2169 U2166 2.984 . S
C2169 O2167 1.353 . S
C2169 O2168 1.286 . S
C2169 C2171 1.363 . S
C2170 C2160 1.465 . S
C2170 U2166 2.847 . S
C2170 O2184 1.249 . S
C2170 O2185 1.202 . S
C2171 C2169 1.363 . S
C2171 C2173 1.408 . S
C2171 C2176 1.342 . S
C2172 C2173 1.310 . S
C2172 C2175 1.461 . S
C2172 H2192 0.932 . S
C2173 C2171 1.408 . S
C2173 C2172 1.310 . S
C2173 H2193 0.930 . S
C2174 C2175 1.474 . S
C2174 C2176 1.285 . S
C2174 H2194 0.929 . S
C2175 C2172 1.461 . S
C2175 C2174 1.474 . S
C2176 C2171 1.342 . S
C2176 C2174 1.285 . S
C2176 H2195 0.930 . S
C2177 C2180 1.424 . S
C2177 C2182 1.245 . S
C2177 C2183 1.428 . S
C2178 C2181 1.260 . S
C2178 C2182 1.477 . S
C2178 H2196 0.932 . S
C2179 C2180 1.384 . S
C2179 C2181 1.479 . S
C2179 H2197 0.929 . S
C2180 C2177 1.424 . S
C2180 C2179 1.384 . S
C2180 H2198 0.928 . S
C2181 C2178 1.260 . S
C2181 C2179 1.479 . S
C2182 C2177 1.245 . S
C2182 C2178 1.477 . S
C2182 H2199 0.932 . S
C2183 U2166 2.882 . S
C2183 C2177 1.428 . S
C2183 O2186 1.301 . S
C2183 O2187 1.282 . S
O2184 U2166 2.441 . S
O2184 C2170 1.249 . S
O2185 U2166 2.420 . S
O2185 C2170 1.202 . S
O2186 U2166 2.455 . S
O2186 C2183 1.301 . S
O2187 U2166 2.449 . S
O2187 C2183 1.282 . S
H2188 C2161 0.931 . S
H2189 C2163 0.929 . S
H2190 C2164 0.930 . S
H2191 C2165 0.931 . S
H2192 C2172 0.932 . S
H2193 C2173 0.930 . S
H2194 C2174 0.929 . S
H2195 C2176 0.930 . S
H2196 C2178 0.932 . S
H2197 C2179 0.929 . S
H2198 C2180 0.928 . S
H2199 C2182 0.932 . S
C2200 C2201 1.264 . S
C2200 C2205 1.479 . S
C2200 C2210 1.465 . S
C2201 C2200 1.264 . S
C2201 C2203 1.339 . S
C2201 H2228 0.931 . S
C2202 C2203 1.395 . S
C2202 C2204 1.320 . S
C2203 C2201 1.339 . S
C2203 C2202 1.395 . S
C2203 H2229 0.929 . S
C2204 C2202 1.320 . S
C2204 C2205 1.405 . S
C2204 H2230 0.930 . S
C2205 C2200 1.479 . S
C2205 C2204 1.405 . S
C2205 H2231 0.931 . S
U2206 O2207 2.454 . S
U2206 O2208 2.458 . S
U2206 C2209 2.984 . S
U2206 C2210 2.847 . S
U2206 C2223 2.882 . S
U2206 O2224 2.441 . S
U2206 O2225 2.420 . S
U2206 O2226 2.455 . S
U2206 O2227 2.449 . S
O2207 U2206 2.454 . S
O2207 C2209 1.353 . S
O2208 U2206 2.458 . S
O2208 C2209 1.286 . S
C2209 U2206 2.984 . S
C2209 O2207 1.353 . S
C2209 O2208 1.286 . S
C2209 C2211 1.363 . S
C2210 C2200 1.465 . S
C2210 U2206 2.847 . S
C2210 O2224 1.249 . S
C2210 O2225 1.202 . S
C2211 C2209 1.363 . S
C2211 C2213 1.408 . S
C2211 C2216 1.342 . S
C2212 C2213 1.310 . S
C2212 C2215 1.461 . S
C2212 H2232 0.932 . S
C2213 C2211 1.408 . S
C2213 C2212 1.310 . S
C2213 H2233 0.930 . S
C2214 C2215 1.474 . S
C2214 C2216 1.285 . S
C2214 H2234 0.929 . S
C2215 C2212 1.461 . S
C2215 C2214 1.474 . S
C2216 C2211 1.342 . S
C2216 C2214 1.285 . S
C2216 H2235 0.930 . S
C2217 C2220 1.424 . S
C2217 C2222 1.245 . S
C2217 C2223 1.428 . S
C2218 C2221 1.260 . S
C2218 C2222 1.477 . S
C2218 H2236 0.932 . S
C2219 C2220 1.384 . S
C2219 C2221 1.479 . S
C2219 H2237 0.929 . S
C2220 C2217 1.424 . S
C2220 C2219 1.384 . S
C2220 H2238 0.928 . S
C2221 C2218 1.260 . S
C2221 C2219 1.479 . S
C2222 C2217 1.245 . S
C2222 C2218 1.477 . S
C2222 H2239 0.932 . S
C2223 U2206 2.882 . S
C2223 C2217 1.428 . S
C2223 O2226 1.301 . S
C2223 O2227 1.282 . S
O2224 U2206 2.441 . S
O2224 C2210 1.249 . S
O2225 U2206 2.420 . S
O2225 C2210 1.202 . S
O2226 U2206 2.455 . S
O2226 C2223 1.301 . S
O2227 U2206 2.449 . S
O2227 C2223 1.282 . S
H2228 C2201 0.931 . S
H2229 C2203 0.929 . S
H2230 C2204 0.930 . S
H2231 C2205 0.931 . S
H2232 C2212 0.932 . S
H2233 C2213 0.930 . S
H2234 C2214 0.929 . S
H2235 C2216 0.930 . S
H2236 C2218 0.932 . S
H2237 C2219 0.929 . S
H2238 C2220 0.928 . S
H2239 C2222 0.932 . S
C2240 C2241 1.264 . S
C2240 C2245 1.479 . S
C2240 C2250 1.465 . S
C2241 C2240 1.264 . S
C2241 C2243 1.339 . S
C2241 H2268 0.931 . S
C2242 C2243 1.395 . S
C2242 C2244 1.320 . S
C2243 C2241 1.339 . S
C2243 C2242 1.395 . S
C2243 H2269 0.929 . S
C2244 C2242 1.320 . S
C2244 C2245 1.405 . S
C2244 H2270 0.930 . S
C2245 C2240 1.479 . S
C2245 C2244 1.405 . S
C2245 H2271 0.931 . S
U2246 O2247 2.454 . S
U2246 O2248 2.458 . S
U2246 C2249 2.984 . S
U2246 C2250 2.847 . S
U2246 C2263 2.882 . S
U2246 O2264 2.441 . S
U2246 O2265 2.420 . S
U2246 O2266 2.455 . S
U2246 O2267 2.449 . S
O2247 U2246 2.454 . S
O2247 C2249 1.353 . S
O2248 U2246 2.458 . S
O2248 C2249 1.286 . S
C2249 U2246 2.984 . S
C2249 O2247 1.353 . S
C2249 O2248 1.286 . S
C2249 C2251 1.363 . S
C2250 C2240 1.465 . S
C2250 U2246 2.847 . S
C2250 O2264 1.249 . S
C2250 O2265 1.202 . S
C2251 C2249 1.363 . S
C2251 C2253 1.408 . S
C2251 C2256 1.342 . S
C2252 C2253 1.310 . S
C2252 C2255 1.461 . S
C2252 H2272 0.932 . S
C2253 C2251 1.408 . S
C2253 C2252 1.310 . S
C2253 H2273 0.930 . S
C2254 C2255 1.474 . S
C2254 C2256 1.285 . S
C2254 H2274 0.929 . S
C2255 C2252 1.461 . S
C2255 C2254 1.474 . S
C2256 C2251 1.342 . S
C2256 C2254 1.285 . S
C2256 H2275 0.930 . S
C2257 C2260 1.424 . S
C2257 C2262 1.245 . S
C2257 C2263 1.428 . S
C2258 C2261 1.260 . S
C2258 C2262 1.477 . S
C2258 H2276 0.932 . S
C2259 C2260 1.384 . S
C2259 C2261 1.479 . S
C2259 H2277 0.929 . S
C2260 C2257 1.424 . S
C2260 C2259 1.384 . S
C2260 H2278 0.928 . S
C2261 C2258 1.260 . S
C2261 C2259 1.479 . S
C2262 C2257 1.245 . S
C2262 C2258 1.477 . S
C2262 H2279 0.932 . S
C2263 U2246 2.882 . S
C2263 C2257 1.428 . S
C2263 O2266 1.301 . S
C2263 O2267 1.282 . S
O2264 U2246 2.441 . S
O2264 C2250 1.249 . S
O2265 U2246 2.420 . S
O2265 C2250 1.202 . S
O2266 U2246 2.455 . S
O2266 C2263 1.301 . S
O2267 U2246 2.449 . S
O2267 C2263 1.282 . S
H2268 C2241 0.931 . S
H2269 C2243 0.929 . S
H2270 C2244 0.930 . S
H2271 C2245 0.931 . S
H2272 C2252 0.932 . S
H2273 C2253 0.930 . S
H2274 C2254 0.929 . S
H2275 C2256 0.930 . S
H2276 C2258 0.932 . S
H2277 C2259 0.929 . S
H2278 C2260 0.928 . S
H2279 C2262 0.932 . S
C2280 C2281 1.264 . S
C2280 C2285 1.479 . S
C2280 C2290 1.465 . S
C2281 C2280 1.264 . S
C2281 C2283 1.339 . S
C2281 H2308 0.931 . S
C2282 C2283 1.395 . S
C2282 C2284 1.320 . S
C2283 C2281 1.339 . S
C2283 C2282 1.395 . S
C2283 H2309 0.929 . S
C2284 C2282 1.320 . S
C2284 C2285 1.405 . S
C2284 H2310 0.930 . S
C2285 C2280 1.479 . S
C2285 C2284 1.405 . S
C2285 H2311 0.931 . S
U2286 O2287 2.454 . S
U2286 O2288 2.458 . S
U2286 C2289 2.984 . S
U2286 C2290 2.847 . S
U2286 C2303 2.882 . S
U2286 O2304 2.441 . S
U2286 O2305 2.420 . S
U2286 O2306 2.455 . S
U2286 O2307 2.449 . S
O2287 U2286 2.454 . S
O2287 C2289 1.353 . S
O2288 U2286 2.458 . S
O2288 C2289 1.286 . S
C2289 U2286 2.984 . S
C2289 O2287 1.353 . S
C2289 O2288 1.286 . S
C2289 C2291 1.363 . S
C2290 C2280 1.465 . S
C2290 U2286 2.847 . S
C2290 O2304 1.249 . S
C2290 O2305 1.202 . S
C2291 C2289 1.363 . S
C2291 C2293 1.408 . S
C2291 C2296 1.342 . S
C2292 C2293 1.310 . S
C2292 C2295 1.461 . S
C2292 H2312 0.932 . S
C2293 C2291 1.408 . S
C2293 C2292 1.310 . S
C2293 H2313 0.930 . S
C2294 C2295 1.474 . S
C2294 C2296 1.285 . S
C2294 H2314 0.929 . S
C2295 C2292 1.461 . S
C2295 C2294 1.474 . S
C2296 C2291 1.342 . S
C2296 C2294 1.285 . S
C2296 H2315 0.930 . S
C2297 C2300 1.424 . S
C2297 C2302 1.245 . S
C2297 C2303 1.428 . S
C2298 C2301 1.260 . S
C2298 C2302 1.477 . S
C2298 H2316 0.932 . S
C2299 C2300 1.384 . S
C2299 C2301 1.479 . S
C2299 H2317 0.929 . S
C2300 C2297 1.424 . S
C2300 C2299 1.384 . S
C2300 H2318 0.928 . S
C2301 C2298 1.260 . S
C2301 C2299 1.479 . S
C2302 C2297 1.245 . S
C2302 C2298 1.477 . S
C2302 H2319 0.932 . S
C2303 U2286 2.882 . S
C2303 C2297 1.428 . S
C2303 O2306 1.301 . S
C2303 O2307 1.282 . S
O2304 U2286 2.441 . S
O2304 C2290 1.249 . S
O2305 U2286 2.420 . S
O2305 C2290 1.202 . S
O2306 U2286 2.455 . S
O2306 C2303 1.301 . S
O2307 U2286 2.449 . S
O2307 C2303 1.282 . S
H2308 C2281 0.931 . S
H2309 C2283 0.929 . S
H2310 C2284 0.930 . S
H2311 C2285 0.931 . S
H2312 C2292 0.932 . S
H2313 C2293 0.930 . S
H2314 C2294 0.929 . S
H2315 C2296 0.930 . S
H2316 C2298 0.932 . S
H2317 C2299 0.929 . S
H2318 C2300 0.928 . S
H2319 C2302 0.932 . S
C2320 C2321 1.264 . S
C2320 C2325 1.479 . S
C2320 C2330 1.465 . S
C2321 C2320 1.264 . S
C2321 C2323 1.339 . S
C2321 H2348 0.931 . S
C2322 C2323 1.395 . S
C2322 C2324 1.320 . S
C2323 C2321 1.339 . S
C2323 C2322 1.395 . S
C2323 H2349 0.929 . S
C2324 C2322 1.320 . S
C2324 C2325 1.405 . S
C2324 H2350 0.930 . S
C2325 C2320 1.479 . S
C2325 C2324 1.405 . S
C2325 H2351 0.931 . S
U2326 O2327 2.454 . S
U2326 O2328 2.458 . S
U2326 C2329 2.984 . S
U2326 C2330 2.847 . S
U2326 C2343 2.882 . S
U2326 O2344 2.441 . S
U2326 O2345 2.420 . S
U2326 O2346 2.455 . S
U2326 O2347 2.449 . S
O2327 U2326 2.454 . S
O2327 C2329 1.353 . S
O2328 U2326 2.458 . S
O2328 C2329 1.286 . S
C2329 U2326 2.984 . S
C2329 O2327 1.353 . S
C2329 O2328 1.286 . S
C2329 C2331 1.363 . S
C2330 C2320 1.465 . S
C2330 U2326 2.847 . S
C2330 O2344 1.249 . S
C2330 O2345 1.202 . S
C2331 C2329 1.363 . S
C2331 C2333 1.408 . S
C2331 C2336 1.342 . S
C2332 C2333 1.310 . S
C2332 C2335 1.461 . S
C2332 H2352 0.932 . S
C2333 C2331 1.408 . S
C2333 C2332 1.310 . S
C2333 H2353 0.930 . S
C2334 C2335 1.474 . S
C2334 C2336 1.285 . S
C2334 H2354 0.929 . S
C2335 C2332 1.461 . S
C2335 C2334 1.474 . S
C2336 C2331 1.342 . S
C2336 C2334 1.285 . S
C2336 H2355 0.930 . S
C2337 C2340 1.424 . S
C2337 C2342 1.245 . S
C2337 C2343 1.428 . S
C2338 C2341 1.260 . S
C2338 C2342 1.477 . S
C2338 H2356 0.932 . S
C2339 C2340 1.384 . S
C2339 C2341 1.479 . S
C2339 H2357 0.929 . S
C2340 C2337 1.424 . S
C2340 C2339 1.384 . S
C2340 H2358 0.928 . S
C2341 C2338 1.260 . S
C2341 C2339 1.479 . S
C2342 C2337 1.245 . S
C2342 C2338 1.477 . S
C2342 H2359 0.932 . S
C2343 U2326 2.882 . S
C2343 C2337 1.428 . S
C2343 O2346 1.301 . S
C2343 O2347 1.282 . S
O2344 U2326 2.441 . S
O2344 C2330 1.249 . S
O2345 U2326 2.420 . S
O2345 C2330 1.202 . S
O2346 U2326 2.455 . S
O2346 C2343 1.301 . S
O2347 U2326 2.449 . S
O2347 C2343 1.282 . S
H2348 C2321 0.931 . S
H2349 C2323 0.929 . S
H2350 C2324 0.930 . S
H2351 C2325 0.931 . S
H2352 C2332 0.932 . S
H2353 C2333 0.930 . S
H2354 C2334 0.929 . S
H2355 C2336 0.930 . S
H2356 C2338 0.932 . S
H2357 C2339 0.929 . S
H2358 C2340 0.928 . S
H2359 C2342 0.932 . S
C2360 C2361 1.264 . S
C2360 C2365 1.479 . S
C2360 C2370 1.465 . S
C2361 C2360 1.264 . S
C2361 C2363 1.339 . S
C2361 H2388 0.931 . S
C2362 C2363 1.395 . S
C2362 C2364 1.320 . S
C2363 C2361 1.339 . S
C2363 C2362 1.395 . S
C2363 H2389 0.929 . S
C2364 C2362 1.320 . S
C2364 C2365 1.405 . S
C2364 H2390 0.930 . S
C2365 C2360 1.479 . S
C2365 C2364 1.405 . S
C2365 H2391 0.931 . S
U2366 O2367 2.454 . S
U2366 O2368 2.458 . S
U2366 C2369 2.984 . S
U2366 C2370 2.847 . S
U2366 C2383 2.882 . S
U2366 O2384 2.441 . S
U2366 O2385 2.420 . S
U2366 O2386 2.455 . S
U2366 O2387 2.449 . S
O2367 U2366 2.454 . S
O2367 C2369 1.353 . S
O2368 U2366 2.458 . S
O2368 C2369 1.286 . S
C2369 U2366 2.984 . S
C2369 O2367 1.353 . S
C2369 O2368 1.286 . S
C2369 C2371 1.363 . S
C2370 C2360 1.465 . S
C2370 U2366 2.847 . S
C2370 O2384 1.249 . S
C2370 O2385 1.202 . S
C2371 C2369 1.363 . S
C2371 C2373 1.408 . S
C2371 C2376 1.342 . S
C2372 C2373 1.310 . S
C2372 C2375 1.461 . S
C2372 H2392 0.932 . S
C2373 C2371 1.408 . S
C2373 C2372 1.310 . S
C2373 H2393 0.930 . S
C2374 C2375 1.474 . S
C2374 C2376 1.285 . S
C2374 H2394 0.929 . S
C2375 C2372 1.461 . S
C2375 C2374 1.474 . S
C2376 C2371 1.342 . S
C2376 C2374 1.285 . S
C2376 H2395 0.930 . S
C2377 C2380 1.424 . S
C2377 C2382 1.245 . S
C2377 C2383 1.428 . S
C2378 C2381 1.260 . S
C2378 C2382 1.477 . S
C2378 H2396 0.932 . S
C2379 C2380 1.384 . S
C2379 C2381 1.479 . S
C2379 H2397 0.929 . S
C2380 C2377 1.424 . S
C2380 C2379 1.384 . S
C2380 H2398 0.928 . S
C2381 C2378 1.260 . S
C2381 C2379 1.479 . S
C2382 C2377 1.245 . S
C2382 C2378 1.477 . S
C2382 H2399 0.932 . S
C2383 U2366 2.882 . S
C2383 C2377 1.428 . S
C2383 O2386 1.301 . S
C2383 O2387 1.282 . S
O2384 U2366 2.441 . S
O2384 C2370 1.249 . S
O2385 U2366 2.420 . S
O2385 C2370 1.202 . S
O2386 U2366 2.455 . S
O2386 C2383 1.301 . S
O2387 U2366 2.449 . S
O2387 C2383 1.282 . S
H2388 C2361 0.931 . S
H2389 C2363 0.929 . S
H2390 C2364 0.930 . S
H2391 C2365 0.931 . S
H2392 C2372 0.932 . S
H2393 C2373 0.930 . S
H2394 C2374 0.929 . S
H2395 C2376 0.930 . S
H2396 C2378 0.932 . S
H2397 C2379 0.929 . S
H2398 C2380 0.928 . S
H2399 C2382 0.932 . S
C2400 C2401 1.264 . S
C2400 C2405 1.479 . S
C2400 C2410 1.465 . S
C2401 C2400 1.264 . S
C2401 C2403 1.339 . S
C2401 H2428 0.931 . S
C2402 C2403 1.395 . S
C2402 C2404 1.320 . S
C2403 C2401 1.339 . S
C2403 C2402 1.395 . S
C2403 H2429 0.929 . S
C2404 C2402 1.320 . S
C2404 C2405 1.405 . S
C2404 H2430 0.930 . S
C2405 C2400 1.479 . S
C2405 C2404 1.405 . S
C2405 H2431 0.931 . S
U2406 O2407 2.454 . S
U2406 O2408 2.458 . S
U2406 C2409 2.984 . S
U2406 C2410 2.847 . S
U2406 C2423 2.882 . S
U2406 O2424 2.441 . S
U2406 O2425 2.420 . S
U2406 O2426 2.455 . S
U2406 O2427 2.449 . S
O2407 U2406 2.454 . S
O2407 C2409 1.353 . S
O2408 U2406 2.458 . S
O2408 C2409 1.286 . S
C2409 U2406 2.984 . S
C2409 O2407 1.353 . S
C2409 O2408 1.286 . S
C2409 C2411 1.363 . S
C2410 C2400 1.465 . S
C2410 U2406 2.847 . S
C2410 O2424 1.249 . S
C2410 O2425 1.202 . S
C2411 C2409 1.363 . S
C2411 C2413 1.408 . S
C2411 C2416 1.342 . S
C2412 C2413 1.310 . S
C2412 C2415 1.461 . S
C2412 H2432 0.932 . S
C2413 C2411 1.408 . S
C2413 C2412 1.310 . S
C2413 H2433 0.930 . S
C2414 C2415 1.474 . S
C2414 C2416 1.285 . S
C2414 H2434 0.929 . S
C2415 C2412 1.461 . S
C2415 C2414 1.474 . S
C2416 C2411 1.342 . S
C2416 C2414 1.285 . S
C2416 H2435 0.930 . S
C2417 C2420 1.424 . S
C2417 C2422 1.245 . S
C2417 C2423 1.428 . S
C2418 C2421 1.260 . S
C2418 C2422 1.477 . S
C2418 H2436 0.932 . S
C2419 C2420 1.384 . S
C2419 C2421 1.479 . S
C2419 H2437 0.929 . S
C2420 C2417 1.424 . S
C2420 C2419 1.384 . S
C2420 H2438 0.928 . S
C2421 C2418 1.260 . S
C2421 C2419 1.479 . S
C2422 C2417 1.245 . S
C2422 C2418 1.477 . S
C2422 H2439 0.932 . S
C2423 U2406 2.882 . S
C2423 C2417 1.428 . S
C2423 O2426 1.301 . S
C2423 O2427 1.282 . S
O2424 U2406 2.441 . S
O2424 C2410 1.249 . S
O2425 U2406 2.420 . S
O2425 C2410 1.202 . S
O2426 U2406 2.455 . S
O2426 C2423 1.301 . S
O2427 U2406 2.449 . S
O2427 C2423 1.282 . S
H2428 C2401 0.931 . S
H2429 C2403 0.929 . S
H2430 C2404 0.930 . S
H2431 C2405 0.931 . S
H2432 C2412 0.932 . S
H2433 C2413 0.930 . S
H2434 C2414 0.929 . S
H2435 C2416 0.930 . S
H2436 C2418 0.932 . S
H2437 C2419 0.929 . S
H2438 C2420 0.928 . S
H2439 C2422 0.932 . S
C2440 C2441 1.264 . S
C2440 C2445 1.479 . S
C2440 C2450 1.465 . S
C2441 C2440 1.264 . S
C2441 C2443 1.339 . S
C2441 H2468 0.931 . S
C2442 C2443 1.395 . S
C2442 C2444 1.320 . S
C2443 C2441 1.339 . S
C2443 C2442 1.395 . S
C2443 H2469 0.929 . S
C2444 C2442 1.320 . S
C2444 C2445 1.405 . S
C2444 H2470 0.930 . S
C2445 C2440 1.479 . S
C2445 C2444 1.405 . S
C2445 H2471 0.931 . S
U2446 O2447 2.454 . S
U2446 O2448 2.458 . S
U2446 C2449 2.984 . S
U2446 C2450 2.847 . S
U2446 C2463 2.882 . S
U2446 O2464 2.441 . S
U2446 O2465 2.420 . S
U2446 O2466 2.455 . S
U2446 O2467 2.449 . S
O2447 U2446 2.454 . S
O2447 C2449 1.353 . S
O2448 U2446 2.458 . S
O2448 C2449 1.286 . S
C2449 U2446 2.984 . S
C2449 O2447 1.353 . S
C2449 O2448 1.286 . S
C2449 C2451 1.363 . S
C2450 C2440 1.465 . S
C2450 U2446 2.847 . S
C2450 O2464 1.249 . S
C2450 O2465 1.202 . S
C2451 C2449 1.363 . S
C2451 C2453 1.408 . S
C2451 C2456 1.342 . S
C2452 C2453 1.310 . S
C2452 C2455 1.461 . S
C2452 H2472 0.932 . S
C2453 C2451 1.408 . S
C2453 C2452 1.310 . S
C2453 H2473 0.930 . S
C2454 C2455 1.474 . S
C2454 C2456 1.285 . S
C2454 H2474 0.929 . S
C2455 C2452 1.461 . S
C2455 C2454 1.474 . S
C2456 C2451 1.342 . S
C2456 C2454 1.285 . S
C2456 H2475 0.930 . S
C2457 C2460 1.424 . S
C2457 C2462 1.245 . S
C2457 C2463 1.428 . S
C2458 C2461 1.260 . S
C2458 C2462 1.477 . S
C2458 H2476 0.932 . S
C2459 C2460 1.384 . S
C2459 C2461 1.479 . S
C2459 H2477 0.929 . S
C2460 C2457 1.424 . S
C2460 C2459 1.384 . S
C2460 H2478 0.928 . S
C2461 C2458 1.260 . S
C2461 C2459 1.479 . S
C2462 C2457 1.245 . S
C2462 C2458 1.477 . S
C2462 H2479 0.932 . S
C2463 U2446 2.882 . S
C2463 C2457 1.428 . S
C2463 O2466 1.301 . S
C2463 O2467 1.282 . S
O2464 U2446 2.441 . S
O2464 C2450 1.249 . S
O2465 U2446 2.420 . S
O2465 C2450 1.202 . S
O2466 U2446 2.455 . S
O2466 C2463 1.301 . S
O2467 U2446 2.449 . S
O2467 C2463 1.282 . S
H2468 C2441 0.931 . S
H2469 C2443 0.929 . S
H2470 C2444 0.930 . S
H2471 C2445 0.931 . S
H2472 C2452 0.932 . S
H2473 C2453 0.930 . S
H2474 C2454 0.929 . S
H2475 C2456 0.930 . S
H2476 C2458 0.932 . S
H2477 C2459 0.929 . S
H2478 C2460 0.928 . S
H2479 C2462 0.932 . S
C2480 C2481 1.264 . S
C2480 C2485 1.479 . S
C2480 C2490 1.465 . S
C2481 C2480 1.264 . S
C2481 C2483 1.339 . S
C2481 H2508 0.931 . S
C2482 C2483 1.395 . S
C2482 C2484 1.320 . S
C2483 C2481 1.339 . S
C2483 C2482 1.395 . S
C2483 H2509 0.929 . S
C2484 C2482 1.320 . S
C2484 C2485 1.405 . S
C2484 H2510 0.930 . S
C2485 C2480 1.479 . S
C2485 C2484 1.405 . S
C2485 H2511 0.931 . S
U2486 O2487 2.454 . S
U2486 O2488 2.458 . S
U2486 C2489 2.984 . S
U2486 C2490 2.847 . S
U2486 C2503 2.882 . S
U2486 O2504 2.441 . S
U2486 O2505 2.420 . S
U2486 O2506 2.455 . S
U2486 O2507 2.449 . S
O2487 U2486 2.454 . S
O2487 C2489 1.353 . S
O2488 U2486 2.458 . S
O2488 C2489 1.286 . S
C2489 U2486 2.984 . S
C2489 O2487 1.353 . S
C2489 O2488 1.286 . S
C2489 C2491 1.363 . S
C2490 C2480 1.465 . S
C2490 U2486 2.847 . S
C2490 O2504 1.249 . S
C2490 O2505 1.202 . S
C2491 C2489 1.363 . S
C2491 C2493 1.408 . S
C2491 C2496 1.342 . S
C2492 C2493 1.310 . S
C2492 C2495 1.461 . S
C2492 H2512 0.932 . S
C2493 C2491 1.408 . S
C2493 C2492 1.310 . S
C2493 H2513 0.930 . S
C2494 C2495 1.474 . S
C2494 C2496 1.285 . S
C2494 H2514 0.929 . S
C2495 C2492 1.461 . S
C2495 C2494 1.474 . S
C2496 C2491 1.342 . S
C2496 C2494 1.285 . S
C2496 H2515 0.930 . S
C2497 C2500 1.424 . S
C2497 C2502 1.245 . S
C2497 C2503 1.428 . S
C2498 C2501 1.260 . S
C2498 C2502 1.477 . S
C2498 H2516 0.932 . S
C2499 C2500 1.384 . S
C2499 C2501 1.479 . S
C2499 H2517 0.929 . S
C2500 C2497 1.424 . S
C2500 C2499 1.384 . S
C2500 H2518 0.928 . S
C2501 C2498 1.260 . S
C2501 C2499 1.479 . S
C2502 C2497 1.245 . S
C2502 C2498 1.477 . S
C2502 H2519 0.932 . S
C2503 U2486 2.882 . S
C2503 C2497 1.428 . S
C2503 O2506 1.301 . S
C2503 O2507 1.282 . S
O2504 U2486 2.441 . S
O2504 C2490 1.249 . S
O2505 U2486 2.420 . S
O2505 C2490 1.202 . S
O2506 U2486 2.455 . S
O2506 C2503 1.301 . S
O2507 U2486 2.449 . S
O2507 C2503 1.282 . S
H2508 C2481 0.931 . S
H2509 C2483 0.929 . S
H2510 C2484 0.930 . S
H2511 C2485 0.931 . S
H2512 C2492 0.932 . S
H2513 C2493 0.930 . S
H2514 C2494 0.929 . S
H2515 C2496 0.930 . S
H2516 C2498 0.932 . S
H2517 C2499 0.929 . S
H2518 C2500 0.928 . S
H2519 C2502 0.932 . S
C2520 C2521 1.264 . S
C2520 C2525 1.479 . S
C2520 C2530 1.465 . S
C2521 C2520 1.264 . S
C2521 C2523 1.339 . S
C2521 H2548 0.931 . S
C2522 C2523 1.395 . S
C2522 C2524 1.320 . S
C2523 C2521 1.339 . S
C2523 C2522 1.395 . S
C2523 H2549 0.929 . S
C2524 C2522 1.320 . S
C2524 C2525 1.405 . S
C2524 H2550 0.930 . S
C2525 C2520 1.479 . S
C2525 C2524 1.405 . S
C2525 H2551 0.931 . S
U2526 O2527 2.454 . S
U2526 O2528 2.458 . S
U2526 C2529 2.984 . S
U2526 C2530 2.847 . S
U2526 C2543 2.882 . S
U2526 O2544 2.441 . S
U2526 O2545 2.420 . S
U2526 O2546 2.455 . S
U2526 O2547 2.449 . S
O2527 U2526 2.454 . S
O2527 C2529 1.353 . S
O2528 U2526 2.458 . S
O2528 C2529 1.286 . S
C2529 U2526 2.984 . S
C2529 O2527 1.353 . S
C2529 O2528 1.286 . S
C2529 C2531 1.363 . S
C2530 C2520 1.465 . S
C2530 U2526 2.847 . S
C2530 O2544 1.249 . S
C2530 O2545 1.202 . S
C2531 C2529 1.363 . S
C2531 C2533 1.408 . S
C2531 C2536 1.342 . S
C2532 C2533 1.310 . S
C2532 C2535 1.461 . S
C2532 H2552 0.932 . S
C2533 C2531 1.408 . S
C2533 C2532 1.310 . S
C2533 H2553 0.930 . S
C2534 C2535 1.474 . S
C2534 C2536 1.285 . S
C2534 H2554 0.929 . S
C2535 C2532 1.461 . S
C2535 C2534 1.474 . S
C2536 C2531 1.342 . S
C2536 C2534 1.285 . S
C2536 H2555 0.930 . S
C2537 C2540 1.424 . S
C2537 C2542 1.245 . S
C2537 C2543 1.428 . S
C2538 C2541 1.260 . S
C2538 C2542 1.477 . S
C2538 H2556 0.932 . S
C2539 C2540 1.384 . S
C2539 C2541 1.479 . S
C2539 H2557 0.929 . S
C2540 C2537 1.424 . S
C2540 C2539 1.384 . S
C2540 H2558 0.928 . S
C2541 C2538 1.260 . S
C2541 C2539 1.479 . S
C2542 C2537 1.245 . S
C2542 C2538 1.477 . S
C2542 H2559 0.932 . S
C2543 U2526 2.882 . S
C2543 C2537 1.428 . S
C2543 O2546 1.301 . S
C2543 O2547 1.282 . S
O2544 U2526 2.441 . S
O2544 C2530 1.249 . S
O2545 U2526 2.420 . S
O2545 C2530 1.202 . S
O2546 U2526 2.455 . S
O2546 C2543 1.301 . S
O2547 U2526 2.449 . S
O2547 C2543 1.282 . S
H2548 C2521 0.931 . S
H2549 C2523 0.929 . S
H2550 C2524 0.930 . S
H2551 C2525 0.931 . S
H2552 C2532 0.932 . S
H2553 C2533 0.930 . S
H2554 C2534 0.929 . S
H2555 C2536 0.930 . S
H2556 C2538 0.932 . S
H2557 C2539 0.929 . S
H2558 C2540 0.928 . S
H2559 C2542 0.932 . S
C2560 C2561 1.264 . S
C2560 C2565 1.479 . S
C2560 C2570 1.465 . S
C2561 C2560 1.264 . S
C2561 C2563 1.339 . S
C2561 H2588 0.931 . S
C2562 C2563 1.395 . S
C2562 C2564 1.320 . S
C2563 C2561 1.339 . S
C2563 C2562 1.395 . S
C2563 H2589 0.929 . S
C2564 C2562 1.320 . S
C2564 C2565 1.405 . S
C2564 H2590 0.930 . S
C2565 C2560 1.479 . S
C2565 C2564 1.405 . S
C2565 H2591 0.931 . S
U2566 O2567 2.454 . S
U2566 O2568 2.458 . S
U2566 C2569 2.984 . S
U2566 C2570 2.847 . S
U2566 C2583 2.882 . S
U2566 O2584 2.441 . S
U2566 O2585 2.420 . S
U2566 O2586 2.455 . S
U2566 O2587 2.449 . S
O2567 U2566 2.454 . S
O2567 C2569 1.353 . S
O2568 U2566 2.458 . S
O2568 C2569 1.286 . S
C2569 U2566 2.984 . S
C2569 O2567 1.353 . S
C2569 O2568 1.286 . S
C2569 C2571 1.363 . S
C2570 C2560 1.465 . S
C2570 U2566 2.847 . S
C2570 O2584 1.249 . S
C2570 O2585 1.202 . S
C2571 C2569 1.363 . S
C2571 C2573 1.408 . S
C2571 C2576 1.342 . S
C2572 C2573 1.310 . S
C2572 C2575 1.461 . S
C2572 H2592 0.932 . S
C2573 C2571 1.408 . S
C2573 C2572 1.310 . S
C2573 H2593 0.930 . S
C2574 C2575 1.474 . S
C2574 C2576 1.285 . S
C2574 H2594 0.929 . S
C2575 C2572 1.461 . S
C2575 C2574 1.474 . S
C2576 C2571 1.342 . S
C2576 C2574 1.285 . S
C2576 H2595 0.930 . S
C2577 C2580 1.424 . S
C2577 C2582 1.245 . S
C2577 C2583 1.428 . S
C2578 C2581 1.260 . S
C2578 C2582 1.477 . S
C2578 H2596 0.932 . S
C2579 C2580 1.384 . S
C2579 C2581 1.479 . S
C2579 H2597 0.929 . S
C2580 C2577 1.424 . S
C2580 C2579 1.384 . S
C2580 H2598 0.928 . S
C2581 C2578 1.260 . S
C2581 C2579 1.479 . S
C2582 C2577 1.245 . S
C2582 C2578 1.477 . S
C2582 H2599 0.932 . S
C2583 U2566 2.882 . S
C2583 C2577 1.428 . S
C2583 O2586 1.301 . S
C2583 O2587 1.282 . S
O2584 U2566 2.441 . S
O2584 C2570 1.249 . S
O2585 U2566 2.420 . S
O2585 C2570 1.202 . S
O2586 U2566 2.455 . S
O2586 C2583 1.301 . S
O2587 U2566 2.449 . S
O2587 C2583 1.282 . S
H2588 C2561 0.931 . S
H2589 C2563 0.929 . S
H2590 C2564 0.930 . S
H2591 C2565 0.931 . S
H2592 C2572 0.932 . S
H2593 C2573 0.930 . S
H2594 C2574 0.929 . S
H2595 C2576 0.930 . S
H2596 C2578 0.932 . S
H2597 C2579 0.929 . S
H2598 C2580 0.928 . S
H2599 C2582 0.932 . S
C2600 C2601 1.264 . S
C2600 C2605 1.479 . S
C2600 C2610 1.465 . S
C2601 C2600 1.264 . S
C2601 C2603 1.339 . S
C2601 H2628 0.931 . S
C2602 C2603 1.395 . S
C2602 C2604 1.320 . S
C2603 C2601 1.339 . S
C2603 C2602 1.395 . S
C2603 H2629 0.929 . S
C2604 C2602 1.320 . S
C2604 C2605 1.405 . S
C2604 H2630 0.930 . S
C2605 C2600 1.479 . S
C2605 C2604 1.405 . S
C2605 H2631 0.931 . S
U2606 O2607 2.454 . S
U2606 O2608 2.458 . S
U2606 C2609 2.984 . S
U2606 C2610 2.847 . S
U2606 C2623 2.882 . S
U2606 O2624 2.441 . S
U2606 O2625 2.420 . S
U2606 O2626 2.455 . S
U2606 O2627 2.449 . S
O2607 U2606 2.454 . S
O2607 C2609 1.353 . S
O2608 U2606 2.458 . S
O2608 C2609 1.286 . S
C2609 U2606 2.984 . S
C2609 O2607 1.353 . S
C2609 O2608 1.286 . S
C2609 C2611 1.363 . S
C2610 C2600 1.465 . S
C2610 U2606 2.847 . S
C2610 O2624 1.249 . S
C2610 O2625 1.202 . S
C2611 C2609 1.363 . S
C2611 C2613 1.408 . S
C2611 C2616 1.342 . S
C2612 C2613 1.310 . S
C2612 C2615 1.461 . S
C2612 H2632 0.932 . S
C2613 C2611 1.408 . S
C2613 C2612 1.310 . S
C2613 H2633 0.930 . S
C2614 C2615 1.474 . S
C2614 C2616 1.285 . S
C2614 H2634 0.929 . S
C2615 C2612 1.461 . S
C2615 C2614 1.474 . S
C2616 C2611 1.342 . S
C2616 C2614 1.285 . S
C2616 H2635 0.930 . S
C2617 C2620 1.424 . S
C2617 C2622 1.245 . S
C2617 C2623 1.428 . S
C2618 C2621 1.260 . S
C2618 C2622 1.477 . S
C2618 H2636 0.932 . S
C2619 C2620 1.384 . S
C2619 C2621 1.479 . S
C2619 H2637 0.929 . S
C2620 C2617 1.424 . S
C2620 C2619 1.384 . S
C2620 H2638 0.928 . S
C2621 C2618 1.260 . S
C2621 C2619 1.479 . S
C2622 C2617 1.245 . S
C2622 C2618 1.477 . S
C2622 H2639 0.932 . S
C2623 U2606 2.882 . S
C2623 C2617 1.428 . S
C2623 O2626 1.301 . S
C2623 O2627 1.282 . S
O2624 U2606 2.441 . S
O2624 C2610 1.249 . S
O2625 U2606 2.420 . S
O2625 C2610 1.202 . S
O2626 U2606 2.455 . S
O2626 C2623 1.301 . S
O2627 U2606 2.449 . S
O2627 C2623 1.282 . S
H2628 C2601 0.931 . S
H2629 C2603 0.929 . S
H2630 C2604 0.930 . S
H2631 C2605 0.931 . S
H2632 C2612 0.932 . S
H2633 C2613 0.930 . S
H2634 C2614 0.929 . S
H2635 C2616 0.930 . S
H2636 C2618 0.932 . S
H2637 C2619 0.929 . S
H2638 C2620 0.928 . S
H2639 C2622 0.932 . S
C2640 C2641 1.264 . S
C2640 C2645 1.479 . S
C2640 C2650 1.465 . S
C2641 C2640 1.264 . S
C2641 C2643 1.339 . S
C2641 H2668 0.931 . S
C2642 C2643 1.395 . S
C2642 C2644 1.320 . S
C2643 C2641 1.339 . S
C2643 C2642 1.395 . S
C2643 H2669 0.929 . S
C2644 C2642 1.320 . S
C2644 C2645 1.405 . S
C2644 H2670 0.930 . S
C2645 C2640 1.479 . S
C2645 C2644 1.405 . S
C2645 H2671 0.931 . S
U2646 O2647 2.454 . S
U2646 O2648 2.458 . S
U2646 C2649 2.984 . S
U2646 C2650 2.847 . S
U2646 C2663 2.882 . S
U2646 O2664 2.441 . S
U2646 O2665 2.420 . S
U2646 O2666 2.455 . S
U2646 O2667 2.449 . S
O2647 U2646 2.454 . S
O2647 C2649 1.353 . S
O2648 U2646 2.458 . S
O2648 C2649 1.286 . S
C2649 U2646 2.984 . S
C2649 O2647 1.353 . S
C2649 O2648 1.286 . S
C2649 C2651 1.363 . S
C2650 C2640 1.465 . S
C2650 U2646 2.847 . S
C2650 O2664 1.249 . S
C2650 O2665 1.202 . S
C2651 C2649 1.363 . S
C2651 C2653 1.408 . S
C2651 C2656 1.342 . S
C2652 C2653 1.310 . S
C2652 C2655 1.461 . S
C2652 H2672 0.932 . S
C2653 C2651 1.408 . S
C2653 C2652 1.310 . S
C2653 H2673 0.930 . S
C2654 C2655 1.474 . S
C2654 C2656 1.285 . S
C2654 H2674 0.929 . S
C2655 C2652 1.461 . S
C2655 C2654 1.474 . S
C2656 C2651 1.342 . S
C2656 C2654 1.285 . S
C2656 H2675 0.930 . S
C2657 C2660 1.424 . S
C2657 C2662 1.245 . S
C2657 C2663 1.428 . S
C2658 C2661 1.260 . S
C2658 C2662 1.477 . S
C2658 H2676 0.932 . S
C2659 C2660 1.384 . S
C2659 C2661 1.479 . S
C2659 H2677 0.929 . S
C2660 C2657 1.424 . S
C2660 C2659 1.384 . S
C2660 H2678 0.928 . S
C2661 C2658 1.260 . S
C2661 C2659 1.479 . S
C2662 C2657 1.245 . S
C2662 C2658 1.477 . S
C2662 H2679 0.932 . S
C2663 U2646 2.882 . S
C2663 C2657 1.428 . S
C2663 O2666 1.301 . S
C2663 O2667 1.282 . S
O2664 U2646 2.441 . S
O2664 C2650 1.249 . S
O2665 U2646 2.420 . S
O2665 C2650 1.202 . S
O2666 U2646 2.455 . S
O2666 C2663 1.301 . S
O2667 U2646 2.449 . S
O2667 C2663 1.282 . S
H2668 C2641 0.931 . S
H2669 C2643 0.929 . S
H2670 C2644 0.930 . S
H2671 C2645 0.931 . S
H2672 C2652 0.932 . S
H2673 C2653 0.930 . S
H2674 C2654 0.929 . S
H2675 C2656 0.930 . S
H2676 C2658 0.932 . S
H2677 C2659 0.929 . S
H2678 C2660 0.928 . S
H2679 C2662 0.932 . S
C2680 C2681 1.264 . S
C2680 C2685 1.479 . S
C2680 C2690 1.465 . S
C2681 C2680 1.264 . S
C2681 C2683 1.339 . S
C2681 H2708 0.931 . S
C2682 C2683 1.395 . S
C2682 C2684 1.320 . S
C2683 C2681 1.339 . S
C2683 C2682 1.395 . S
C2683 H2709 0.929 . S
C2684 C2682 1.320 . S
C2684 C2685 1.405 . S
C2684 H2710 0.930 . S
C2685 C2680 1.479 . S
C2685 C2684 1.405 . S
C2685 H2711 0.931 . S
U2686 O2687 2.454 . S
U2686 O2688 2.458 . S
U2686 C2689 2.984 . S
U2686 C2690 2.847 . S
U2686 C2703 2.882 . S
U2686 O2704 2.441 . S
U2686 O2705 2.420 . S
U2686 O2706 2.455 . S
U2686 O2707 2.449 . S
O2687 U2686 2.454 . S
O2687 C2689 1.353 . S
O2688 U2686 2.458 . S
O2688 C2689 1.286 . S
C2689 U2686 2.984 . S
C2689 O2687 1.353 . S
C2689 O2688 1.286 . S
C2689 C2691 1.363 . S
C2690 C2680 1.465 . S
C2690 U2686 2.847 . S
C2690 O2704 1.249 . S
C2690 O2705 1.202 . S
C2691 C2689 1.363 . S
C2691 C2693 1.408 . S
C2691 C2696 1.342 . S
C2692 C2693 1.310 . S
C2692 C2695 1.461 . S
C2692 H2712 0.932 . S
C2693 C2691 1.408 . S
C2693 C2692 1.310 . S
C2693 H2713 0.930 . S
C2694 C2695 1.474 . S
C2694 C2696 1.285 . S
C2694 H2714 0.929 . S
C2695 C2692 1.461 . S
C2695 C2694 1.474 . S
C2696 C2691 1.342 . S
C2696 C2694 1.285 . S
C2696 H2715 0.930 . S
C2697 C2700 1.424 . S
C2697 C2702 1.245 . S
C2697 C2703 1.428 . S
C2698 C2701 1.260 . S
C2698 C2702 1.477 . S
C2698 H2716 0.932 . S
C2699 C2700 1.384 . S
C2699 C2701 1.479 . S
C2699 H2717 0.929 . S
C2700 C2697 1.424 . S
C2700 C2699 1.384 . S
C2700 H2718 0.928 . S
C2701 C2698 1.260 . S
C2701 C2699 1.479 . S
C2702 C2697 1.245 . S
C2702 C2698 1.477 . S
C2702 H2719 0.932 . S
C2703 U2686 2.882 . S
C2703 C2697 1.428 . S
C2703 O2706 1.301 . S
C2703 O2707 1.282 . S
O2704 U2686 2.441 . S
O2704 C2690 1.249 . S
O2705 U2686 2.420 . S
O2705 C2690 1.202 . S
O2706 U2686 2.455 . S
O2706 C2703 1.301 . S
O2707 U2686 2.449 . S
O2707 C2703 1.282 . S
H2708 C2681 0.931 . S
H2709 C2683 0.929 . S
H2710 C2684 0.930 . S
H2711 C2685 0.931 . S
H2712 C2692 0.932 . S
H2713 C2693 0.930 . S
H2714 C2694 0.929 . S
H2715 C2696 0.930 . S
H2716 C2698 0.932 . S
H2717 C2699 0.929 . S
H2718 C2700 0.928 . S
H2719 C2702 0.932 . S
C2720 C2721 1.264 . S
C2720 C2725 1.479 . S
C2720 C2730 1.465 . S
C2721 C2720 1.264 . S
C2721 C2723 1.339 . S
C2721 H2748 0.931 . S
C2722 C2723 1.395 . S
C2722 C2724 1.320 . S
C2723 C2721 1.339 . S
C2723 C2722 1.395 . S
C2723 H2749 0.929 . S
C2724 C2722 1.320 . S
C2724 C2725 1.405 . S
C2724 H2750 0.930 . S
C2725 C2720 1.479 . S
C2725 C2724 1.405 . S
C2725 H2751 0.931 . S
U2726 O2727 2.454 . S
U2726 O2728 2.458 . S
U2726 C2729 2.984 . S
U2726 C2730 2.847 . S
U2726 C2743 2.882 . S
U2726 O2744 2.441 . S
U2726 O2745 2.420 . S
U2726 O2746 2.455 . S
U2726 O2747 2.449 . S
O2727 U2726 2.454 . S
O2727 C2729 1.353 . S
O2728 U2726 2.458 . S
O2728 C2729 1.286 . S
C2729 U2726 2.984 . S
C2729 O2727 1.353 . S
C2729 O2728 1.286 . S
C2729 C2731 1.363 . S
C2730 C2720 1.465 . S
C2730 U2726 2.847 . S
C2730 O2744 1.249 . S
C2730 O2745 1.202 . S
C2731 C2729 1.363 . S
C2731 C2733 1.408 . S
C2731 C2736 1.342 . S
C2732 C2733 1.310 . S
C2732 C2735 1.461 . S
C2732 H2752 0.932 . S
C2733 C2731 1.408 . S
C2733 C2732 1.310 . S
C2733 H2753 0.930 . S
C2734 C2735 1.474 . S
C2734 C2736 1.285 . S
C2734 H2754 0.929 . S
C2735 C2732 1.461 . S
C2735 C2734 1.474 . S
C2736 C2731 1.342 . S
C2736 C2734 1.285 . S
C2736 H2755 0.930 . S
C2737 C2740 1.424 . S
C2737 C2742 1.245 . S
C2737 C2743 1.428 . S
C2738 C2741 1.260 . S
C2738 C2742 1.477 . S
C2738 H2756 0.932 . S
C2739 C2740 1.384 . S
C2739 C2741 1.479 . S
C2739 H2757 0.929 . S
C2740 C2737 1.424 . S
C2740 C2739 1.384 . S
C2740 H2758 0.928 . S
C2741 C2738 1.260 . S
C2741 C2739 1.479 . S
C2742 C2737 1.245 . S
C2742 C2738 1.477 . S
C2742 H2759 0.932 . S
C2743 U2726 2.882 . S
C2743 C2737 1.428 . S
C2743 O2746 1.301 . S
C2743 O2747 1.282 . S
O2744 U2726 2.441 . S
O2744 C2730 1.249 . S
O2745 U2726 2.420 . S
O2745 C2730 1.202 . S
O2746 U2726 2.455 . S
O2746 C2743 1.301 . S
O2747 U2726 2.449 . S
O2747 C2743 1.282 . S
H2748 C2721 0.931 . S
H2749 C2723 0.929 . S
H2750 C2724 0.930 . S
H2751 C2725 0.931 . S
H2752 C2732 0.932 . S
H2753 C2733 0.930 . S
H2754 C2734 0.929 . S
H2755 C2736 0.930 . S
H2756 C2738 0.932 . S
H2757 C2739 0.929 . S
H2758 C2740 0.928 . S
H2759 C2742 0.932 . S
C2760 C2761 1.264 . S
C2760 C2765 1.479 . S
C2760 C2770 1.465 . S
C2761 C2760 1.264 . S
C2761 C2763 1.339 . S
C2761 H2788 0.931 . S
C2762 C2763 1.395 . S
C2762 C2764 1.320 . S
C2763 C2761 1.339 . S
C2763 C2762 1.395 . S
C2763 H2789 0.929 . S
C2764 C2762 1.320 . S
C2764 C2765 1.405 . S
C2764 H2790 0.930 . S
C2765 C2760 1.479 . S
C2765 C2764 1.405 . S
C2765 H2791 0.931 . S
U2766 O2767 2.454 . S
U2766 O2768 2.458 . S
U2766 C2769 2.984 . S
U2766 C2770 2.847 . S
U2766 C2783 2.882 . S
U2766 O2784 2.441 . S
U2766 O2785 2.420 . S
U2766 O2786 2.455 . S
U2766 O2787 2.449 . S
O2767 U2766 2.454 . S
O2767 C2769 1.353 . S
O2768 U2766 2.458 . S
O2768 C2769 1.286 . S
C2769 U2766 2.984 . S
C2769 O2767 1.353 . S
C2769 O2768 1.286 . S
C2769 C2771 1.363 . S
C2770 C2760 1.465 . S
C2770 U2766 2.847 . S
C2770 O2784 1.249 . S
C2770 O2785 1.202 . S
C2771 C2769 1.363 . S
C2771 C2773 1.408 . S
C2771 C2776 1.342 . S
C2772 C2773 1.310 . S
C2772 C2775 1.461 . S
C2772 H2792 0.932 . S
C2773 C2771 1.408 . S
C2773 C2772 1.310 . S
C2773 H2793 0.930 . S
C2774 C2775 1.474 . S
C2774 C2776 1.285 . S
C2774 H2794 0.929 . S
C2775 C2772 1.461 . S
C2775 C2774 1.474 . S
C2776 C2771 1.342 . S
C2776 C2774 1.285 . S
C2776 H2795 0.930 . S
C2777 C2780 1.424 . S
C2777 C2782 1.245 . S
C2777 C2783 1.428 . S
C2778 C2781 1.260 . S
C2778 C2782 1.477 . S
C2778 H2796 0.932 . S
C2779 C2780 1.384 . S
C2779 C2781 1.479 . S
C2779 H2797 0.929 . S
C2780 C2777 1.424 . S
C2780 C2779 1.384 . S
C2780 H2798 0.928 . S
C2781 C2778 1.260 . S
C2781 C2779 1.479 . S
C2782 C2777 1.245 . S
C2782 C2778 1.477 . S
C2782 H2799 0.932 . S
C2783 U2766 2.882 . S
C2783 C2777 1.428 . S
C2783 O2786 1.301 . S
C2783 O2787 1.282 . S
O2784 U2766 2.441 . S
O2784 C2770 1.249 . S
O2785 U2766 2.420 . S
O2785 C2770 1.202 . S
O2786 U2766 2.455 . S
O2786 C2783 1.301 . S
O2787 U2766 2.449 . S
O2787 C2783 1.282 . S
H2788 C2761 0.931 . S
H2789 C2763 0.929 . S
H2790 C2764 0.930 . S
H2791 C2765 0.931 . S
H2792 C2772 0.932 . S
H2793 C2773 0.930 . S
H2794 C2774 0.929 . S
H2795 C2776 0.930 . S
H2796 C2778 0.932 . S
H2797 C2779 0.929 . S
H2798 C2780 0.928 . S
H2799 C2782 0.932 . S
C2800 C2801 1.264 . S
C2800 C2805 1.479 . S
C2800 C2810 1.465 . S
C2801 C2800 1.264 . S
C2801 C2803 1.339 . S
C2801 H2828 0.931 . S
C2802 C2803 1.395 . S
C2802 C2804 1.320 . S
C2803 C2801 1.339 . S
C2803 C2802 1.395 . S
C2803 H2829 0.929 . S
C2804 C2802 1.320 . S
C2804 C2805 1.405 . S
C2804 H2830 0.930 . S
C2805 C2800 1.479 . S
C2805 C2804 1.405 . S
C2805 H2831 0.931 . S
U2806 O2807 2.454 . S
U2806 O2808 2.458 . S
U2806 C2809 2.984 . S
U2806 C2810 2.847 . S
U2806 C2823 2.882 . S
U2806 O2824 2.441 . S
U2806 O2825 2.420 . S
U2806 O2826 2.455 . S
U2806 O2827 2.449 . S
O2807 U2806 2.454 . S
O2807 C2809 1.353 . S
O2808 U2806 2.458 . S
O2808 C2809 1.286 . S
C2809 U2806 2.984 . S
C2809 O2807 1.353 . S
C2809 O2808 1.286 . S
C2809 C2811 1.363 . S
C2810 C2800 1.465 . S
C2810 U2806 2.847 . S
C2810 O2824 1.249 . S
C2810 O2825 1.202 . S
C2811 C2809 1.363 . S
C2811 C2813 1.408 . S
C2811 C2816 1.342 . S
C2812 C2813 1.310 . S
C2812 C2815 1.461 . S
C2812 H2832 0.932 . S
C2813 C2811 1.408 . S
C2813 C2812 1.310 . S
C2813 H2833 0.930 . S
C2814 C2815 1.474 . S
C2814 C2816 1.285 . S
C2814 H2834 0.929 . S
C2815 C2812 1.461 . S
C2815 C2814 1.474 . S
C2816 C2811 1.342 . S
C2816 C2814 1.285 . S
C2816 H2835 0.930 . S
C2817 C2820 1.424 . S
C2817 C2822 1.245 . S
C2817 C2823 1.428 . S
C2818 C2821 1.260 . S
C2818 C2822 1.477 . S
C2818 H2836 0.932 . S
C2819 C2820 1.384 . S
C2819 C2821 1.479 . S
C2819 H2837 0.929 . S
C2820 C2817 1.424 . S
C2820 C2819 1.384 . S
C2820 H2838 0.928 . S
C2821 C2818 1.260 . S
C2821 C2819 1.479 . S
C2822 C2817 1.245 . S
C2822 C2818 1.477 . S
C2822 H2839 0.932 . S
C2823 U2806 2.882 . S
C2823 C2817 1.428 . S
C2823 O2826 1.301 . S
C2823 O2827 1.282 . S
O2824 U2806 2.441 . S
O2824 C2810 1.249 . S
O2825 U2806 2.420 . S
O2825 C2810 1.202 . S
O2826 U2806 2.455 . S
O2826 C2823 1.301 . S
O2827 U2806 2.449 . S
O2827 C2823 1.282 . S
H2828 C2801 0.931 . S
H2829 C2803 0.929 . S
H2830 C2804 0.930 . S
H2831 C2805 0.931 . S
H2832 C2812 0.932 . S
H2833 C2813 0.930 . S
H2834 C2814 0.929 . S
H2835 C2816 0.930 . S
H2836 C2818 0.932 . S
H2837 C2819 0.929 . S
H2838 C2820 0.928 . S
H2839 C2822 0.932 . S
C2840 C2841 1.264 . S
C2840 C2845 1.479 . S
C2840 C2850 1.465 . S
C2841 C2840 1.264 . S
C2841 C2843 1.339 . S
C2841 H2868 0.931 . S
C2842 C2843 1.395 . S
C2842 C2844 1.320 . S
C2843 C2841 1.339 . S
C2843 C2842 1.395 . S
C2843 H2869 0.929 . S
C2844 C2842 1.320 . S
C2844 C2845 1.405 . S
C2844 H2870 0.930 . S
C2845 C2840 1.479 . S
C2845 C2844 1.405 . S
C2845 H2871 0.931 . S
U2846 O2847 2.454 . S
U2846 O2848 2.458 . S
U2846 C2849 2.984 . S
U2846 C2850 2.847 . S
U2846 C2863 2.882 . S
U2846 O2864 2.441 . S
U2846 O2865 2.420 . S
U2846 O2866 2.455 . S
U2846 O2867 2.449 . S
O2847 U2846 2.454 . S
O2847 C2849 1.353 . S
O2848 U2846 2.458 . S
O2848 C2849 1.286 . S
C2849 U2846 2.984 . S
C2849 O2847 1.353 . S
C2849 O2848 1.286 . S
C2849 C2851 1.363 . S
C2850 C2840 1.465 . S
C2850 U2846 2.847 . S
C2850 O2864 1.249 . S
C2850 O2865 1.202 . S
C2851 C2849 1.363 . S
C2851 C2853 1.408 . S
C2851 C2856 1.342 . S
C2852 C2853 1.310 . S
C2852 C2855 1.461 . S
C2852 H2872 0.932 . S
C2853 C2851 1.408 . S
C2853 C2852 1.310 . S
C2853 H2873 0.930 . S
C2854 C2855 1.474 . S
C2854 C2856 1.285 . S
C2854 H2874 0.929 . S
C2855 C2852 1.461 . S
C2855 C2854 1.474 . S
C2856 C2851 1.342 . S
C2856 C2854 1.285 . S
C2856 H2875 0.930 . S
C2857 C2860 1.424 . S
C2857 C2862 1.245 . S
C2857 C2863 1.428 . S
C2858 C2861 1.260 . S
C2858 C2862 1.477 . S
C2858 H2876 0.932 . S
C2859 C2860 1.384 . S
C2859 C2861 1.479 . S
C2859 H2877 0.929 . S
C2860 C2857 1.424 . S
C2860 C2859 1.384 . S
C2860 H2878 0.928 . S
C2861 C2858 1.260 . S
C2861 C2859 1.479 . S
C2862 C2857 1.245 . S
C2862 C2858 1.477 . S
C2862 H2879 0.932 . S
C2863 U2846 2.882 . S
C2863 C2857 1.428 . S
C2863 O2866 1.301 . S
C2863 O2867 1.282 . S
O2864 U2846 2.441 . S
O2864 C2850 1.249 . S
O2865 U2846 2.420 . S
O2865 C2850 1.202 . S
O2866 U2846 2.455 . S
O2866 C2863 1.301 . S
O2867 U2846 2.449 . S
O2867 C2863 1.282 . S
H2868 C2841 0.931 . S
H2869 C2843 0.929 . S
H2870 C2844 0.930 . S
H2871 C2845 0.931 . S
H2872 C2852 0.932 . S
H2873 C2853 0.930 . S
H2874 C2854 0.929 . S
H2875 C2856 0.930 . S
H2876 C2858 0.932 . S
H2877 C2859 0.929 . S
H2878 C2860 0.928 . S
H2879 C2862 0.932 . S
C2880 C2881 1.264 . S
C2880 C2885 1.479 . S
C2880 C2890 1.465 . S
C2881 C2880 1.264 . S
C2881 C2883 1.339 . S
C2881 H2908 0.931 . S
C2882 C2883 1.395 . S
C2882 C2884 1.320 . S
C2883 C2881 1.339 . S
C2883 C2882 1.395 . S
C2883 H2909 0.929 . S
C2884 C2882 1.320 . S
C2884 C2885 1.405 . S
C2884 H2910 0.930 . S
C2885 C2880 1.479 . S
C2885 C2884 1.405 . S
C2885 H2911 0.931 . S
U2886 O2887 2.454 . S
U2886 O2888 2.458 . S
U2886 C2889 2.984 . S
U2886 C2890 2.847 . S
U2886 C2903 2.882 . S
U2886 O2904 2.441 . S
U2886 O2905 2.420 . S
U2886 O2906 2.455 . S
U2886 O2907 2.449 . S
O2887 U2886 2.454 . S
O2887 C2889 1.353 . S
O2888 U2886 2.458 . S
O2888 C2889 1.286 . S
C2889 U2886 2.984 . S
C2889 O2887 1.353 . S
C2889 O2888 1.286 . S
C2889 C2891 1.363 . S
C2890 C2880 1.465 . S
C2890 U2886 2.847 . S
C2890 O2904 1.249 . S
C2890 O2905 1.202 . S
C2891 C2889 1.363 . S
C2891 C2893 1.408 . S
C2891 C2896 1.342 . S
C2892 C2893 1.310 . S
C2892 C2895 1.461 . S
C2892 H2912 0.932 . S
C2893 C2891 1.408 . S
C2893 C2892 1.310 . S
C2893 H2913 0.930 . S
C2894 C2895 1.474 . S
C2894 C2896 1.285 . S
C2894 H2914 0.929 . S
C2895 C2892 1.461 . S
C2895 C2894 1.474 . S
C2896 C2891 1.342 . S
C2896 C2894 1.285 . S
C2896 H2915 0.930 . S
C2897 C2900 1.424 . S
C2897 C2902 1.245 . S
C2897 C2903 1.428 . S
C2898 C2901 1.260 . S
C2898 C2902 1.477 . S
C2898 H2916 0.932 . S
C2899 C2900 1.384 . S
C2899 C2901 1.479 . S
C2899 H2917 0.929 . S
C2900 C2897 1.424 . S
C2900 C2899 1.384 . S
C2900 H2918 0.928 . S
C2901 C2898 1.260 . S
C2901 C2899 1.479 . S
C2902 C2897 1.245 . S
C2902 C2898 1.477 . S
C2902 H2919 0.932 . S
C2903 U2886 2.882 . S
C2903 C2897 1.428 . S
C2903 O2906 1.301 . S
C2903 O2907 1.282 . S
O2904 U2886 2.441 . S
O2904 C2890 1.249 . S
O2905 U2886 2.420 . S
O2905 C2890 1.202 . S
O2906 U2886 2.455 . S
O2906 C2903 1.301 . S
O2907 U2886 2.449 . S
O2907 C2903 1.282 . S
H2908 C2881 0.931 . S
H2909 C2883 0.929 . S
H2910 C2884 0.930 . S
H2911 C2885 0.931 . S
H2912 C2892 0.932 . S
H2913 C2893 0.930 . S
H2914 C2894 0.929 . S
H2915 C2896 0.930 . S
H2916 C2898 0.932 . S
H2917 C2899 0.929 . S
H2918 C2900 0.928 . S
H2919 C2902 0.932 . S
C2920 C2921 1.264 . S
C2920 C2925 1.479 . S
C2920 C2930 1.465 . S
C2921 C2920 1.264 . S
C2921 C2923 1.339 . S
C2921 H2948 0.931 . S
C2922 C2923 1.395 . S
C2922 C2924 1.320 . S
C2923 C2921 1.339 . S
C2923 C2922 1.395 . S
C2923 H2949 0.929 . S
C2924 C2922 1.320 . S
C2924 C2925 1.405 . S
C2924 H2950 0.930 . S
C2925 C2920 1.479 . S
C2925 C2924 1.405 . S
C2925 H2951 0.931 . S
U2926 O2927 2.454 . S
U2926 O2928 2.458 . S
U2926 C2929 2.984 . S
U2926 C2930 2.847 . S
U2926 C2943 2.882 . S
U2926 O2944 2.441 . S
U2926 O2945 2.420 . S
U2926 O2946 2.455 . S
U2926 O2947 2.449 . S
O2927 U2926 2.454 . S
O2927 C2929 1.353 . S
O2928 U2926 2.458 . S
O2928 C2929 1.286 . S
C2929 U2926 2.984 . S
C2929 O2927 1.353 . S
C2929 O2928 1.286 . S
C2929 C2931 1.363 . S
C2930 C2920 1.465 . S
C2930 U2926 2.847 . S
C2930 O2944 1.249 . S
C2930 O2945 1.202 . S
C2931 C2929 1.363 . S
C2931 C2933 1.408 . S
C2931 C2936 1.342 . S
C2932 C2933 1.310 . S
C2932 C2935 1.461 . S
C2932 H2952 0.932 . S
C2933 C2931 1.408 . S
C2933 C2932 1.310 . S
C2933 H2953 0.930 . S
C2934 C2935 1.474 . S
C2934 C2936 1.285 . S
C2934 H2954 0.929 . S
C2935 C2932 1.461 . S
C2935 C2934 1.474 . S
C2936 C2931 1.342 . S
C2936 C2934 1.285 . S
C2936 H2955 0.930 . S
C2937 C2940 1.424 . S
C2937 C2942 1.245 . S
C2937 C2943 1.428 . S
C2938 C2941 1.260 . S
C2938 C2942 1.477 . S
C2938 H2956 0.932 . S
C2939 C2940 1.384 . S
C2939 C2941 1.479 . S
C2939 H2957 0.929 . S
C2940 C2937 1.424 . S
C2940 C2939 1.384 . S
C2940 H2958 0.928 . S
C2941 C2938 1.260 . S
C2941 C2939 1.479 . S
C2942 C2937 1.245 . S
C2942 C2938 1.477 . S
C2942 H2959 0.932 . S
C2943 U2926 2.882 . S
C2943 C2937 1.428 . S
C2943 O2946 1.301 . S
C2943 O2947 1.282 . S
O2944 U2926 2.441 . S
O2944 C2930 1.249 . S
O2945 U2926 2.420 . S
O2945 C2930 1.202 . S
O2946 U2926 2.455 . S
O2946 C2943 1.301 . S
O2947 U2926 2.449 . S
O2947 C2943 1.282 . S
H2948 C2921 0.931 . S
H2949 C2923 0.929 . S
H2950 C2924 0.930 . S
H2951 C2925 0.931 . S
H2952 C2932 0.932 . S
H2953 C2933 0.930 . S
H2954 C2934 0.929 . S
H2955 C2936 0.930 . S
H2956 C2938 0.932 . S
H2957 C2939 0.929 . S
H2958 C2940 0.928 . S
H2959 C2942 0.932 . S
C2960 C2961 1.264 . S
C2960 C2965 1.479 . S
C2960 C2970 1.465 . S
C2961 C2960 1.264 . S
C2961 C2963 1.339 . S
C2961 H2988 0.931 . S
C2962 C2963 1.395 . S
C2962 C2964 1.320 . S
C2963 C2961 1.339 . S
C2963 C2962 1.395 . S
C2963 H2989 0.929 . S
C2964 C2962 1.320 . S
C2964 C2965 1.405 . S
C2964 H2990 0.930 . S
C2965 C2960 1.479 . S
C2965 C2964 1.405 . S
C2965 H2991 0.931 . S
U2966 O2967 2.454 . S
U2966 O2968 2.458 . S
U2966 C2969 2.984 . S
U2966 C2970 2.847 . S
U2966 C2983 2.882 . S
U2966 O2984 2.441 . S
U2966 O2985 2.420 . S
U2966 O2986 2.455 . S
U2966 O2987 2.449 . S
O2967 U2966 2.454 . S
O2967 C2969 1.353 . S
O2968 U2966 2.458 . S
O2968 C2969 1.286 . S
C2969 U2966 2.984 . S
C2969 O2967 1.353 . S
C2969 O2968 1.286 . S
C2969 C2971 1.363 . S
C2970 C2960 1.465 . S
C2970 U2966 2.847 . S
C2970 O2984 1.249 . S
C2970 O2985 1.202 . S
C2971 C2969 1.363 . S
C2971 C2973 1.408 . S
C2971 C2976 1.342 . S
C2972 C2973 1.310 . S
C2972 C2975 1.461 . S
C2972 H2992 0.932 . S
C2973 C2971 1.408 . S
C2973 C2972 1.310 . S
C2973 H2993 0.930 . S
C2974 C2975 1.474 . S
C2974 C2976 1.285 . S
C2974 H2994 0.929 . S
C2975 C2972 1.461 . S
C2975 C2974 1.474 . S
C2976 C2971 1.342 . S
C2976 C2974 1.285 . S
C2976 H2995 0.930 . S
C2977 C2980 1.424 . S
C2977 C2982 1.245 . S
C2977 C2983 1.428 . S
C2978 C2981 1.260 . S
C2978 C2982 1.477 . S
C2978 H2996 0.932 . S
C2979 C2980 1.384 . S
C2979 C2981 1.479 . S
C2979 H2997 0.929 . S
C2980 C2977 1.424 . S
C2980 C2979 1.384 . S
C2980 H2998 0.928 . S
C2981 C2978 1.260 . S
C2981 C2979 1.479 . S
C2982 C2977 1.245 . S
C2982 C2978 1.477 . S
C2982 H2999 0.932 . S
C2983 U2966 2.882 . S
C2983 C2977 1.428 . S
C2983 O2986 1.301 . S
C2983 O2987 1.282 . S
O2984 U2966 2.441 . S
O2984 C2970 1.249 . S
O2985 U2966 2.420 . S
O2985 C2970 1.202 . S
O2986 U2966 2.455 . S
O2986 C2983 1.301 . S
O2987 U2966 2.449 . S
O2987 C2983 1.282 . S
H2988 C2961 0.931 . S
H2989 C2963 0.929 . S
H2990 C2964 0.930 . S
H2991 C2965 0.931 . S
H2992 C2972 0.932 . S
H2993 C2973 0.930 . S
H2994 C2974 0.929 . S
H2995 C2976 0.930 . S
H2996 C2978 0.932 . S
H2997 C2979 0.929 . S
H2998 C2980 0.928 . S
H2999 C2982 0.932 . S
C3000 C3001 1.264 . S
C3000 C3005 1.479 . S
C3000 C3010 1.465 . S
C3001 C3000 1.264 . S
C3001 C3003 1.339 . S
C3001 H3028 0.931 . S
C3002 C3003 1.395 . S
C3002 C3004 1.320 . S
C3003 C3001 1.339 . S
C3003 C3002 1.395 . S
C3003 H3029 0.929 . S
C3004 C3002 1.320 . S
C3004 C3005 1.405 . S
C3004 H3030 0.930 . S
C3005 C3000 1.479 . S
C3005 C3004 1.405 . S
C3005 H3031 0.931 . S
U3006 O3007 2.454 . S
U3006 O3008 2.458 . S
U3006 C3009 2.984 . S
U3006 C3010 2.847 . S
U3006 C3023 2.882 . S
U3006 O3024 2.441 . S
U3006 O3025 2.420 . S
U3006 O3026 2.455 . S
U3006 O3027 2.449 . S
O3007 U3006 2.454 . S
O3007 C3009 1.353 . S
O3008 U3006 2.458 . S
O3008 C3009 1.286 . S
C3009 U3006 2.984 . S
C3009 O3007 1.353 . S
C3009 O3008 1.286 . S
C3009 C3011 1.363 . S
C3010 C3000 1.465 . S
C3010 U3006 2.847 . S
C3010 O3024 1.249 . S
C3010 O3025 1.202 . S
C3011 C3009 1.363 . S
C3011 C3013 1.408 . S
C3011 C3016 1.342 . S
C3012 C3013 1.310 . S
C3012 C3015 1.461 . S
C3012 H3032 0.932 . S
C3013 C3011 1.408 . S
C3013 C3012 1.310 . S
C3013 H3033 0.930 . S
C3014 C3015 1.474 . S
C3014 C3016 1.285 . S
C3014 H3034 0.929 . S
C3015 C3012 1.461 . S
C3015 C3014 1.474 . S
C3016 C3011 1.342 . S
C3016 C3014 1.285 . S
C3016 H3035 0.930 . S
C3017 C3020 1.424 . S
C3017 C3022 1.245 . S
C3017 C3023 1.428 . S
C3018 C3021 1.260 . S
C3018 C3022 1.477 . S
C3018 H3036 0.932 . S
C3019 C3020 1.384 . S
C3019 C3021 1.479 . S
C3019 H3037 0.929 . S
C3020 C3017 1.424 . S
C3020 C3019 1.384 . S
C3020 H3038 0.928 . S
C3021 C3018 1.260 . S
C3021 C3019 1.479 . S
C3022 C3017 1.245 . S
C3022 C3018 1.477 . S
C3022 H3039 0.932 . S
C3023 U3006 2.882 . S
C3023 C3017 1.428 . S
C3023 O3026 1.301 . S
C3023 O3027 1.282 . S
O3024 U3006 2.441 . S
O3024 C3010 1.249 . S
O3025 U3006 2.420 . S
O3025 C3010 1.202 . S
O3026 U3006 2.455 . S
O3026 C3023 1.301 . S
O3027 U3006 2.449 . S
O3027 C3023 1.282 . S
H3028 C3001 0.931 . S
H3029 C3003 0.929 . S
H3030 C3004 0.930 . S
H3031 C3005 0.931 . S
H3032 C3012 0.932 . S
H3033 C3013 0.930 . S
H3034 C3014 0.929 . S
H3035 C3016 0.930 . S
H3036 C3018 0.932 . S
H3037 C3019 0.929 . S
H3038 C3020 0.928 . S
H3039 C3022 0.932 . S
C3040 C3041 1.264 . S
C3040 C3045 1.479 . S
C3040 C3050 1.465 . S
C3041 C3040 1.264 . S
C3041 C3043 1.339 . S
C3041 H3068 0.931 . S
C3042 C3043 1.395 . S
C3042 C3044 1.320 . S
C3043 C3041 1.339 . S
C3043 C3042 1.395 . S
C3043 H3069 0.929 . S
C3044 C3042 1.320 . S
C3044 C3045 1.405 . S
C3044 H3070 0.930 . S
C3045 C3040 1.479 . S
C3045 C3044 1.405 . S
C3045 H3071 0.931 . S
U3046 O3047 2.454 . S
U3046 O3048 2.458 . S
U3046 C3049 2.984 . S
U3046 C3050 2.847 . S
U3046 C3063 2.882 . S
U3046 O3064 2.441 . S
U3046 O3065 2.420 . S
U3046 O3066 2.455 . S
U3046 O3067 2.449 . S
O3047 U3046 2.454 . S
O3047 C3049 1.353 . S
O3048 U3046 2.458 . S
O3048 C3049 1.286 . S
C3049 U3046 2.984 . S
C3049 O3047 1.353 . S
C3049 O3048 1.286 . S
C3049 C3051 1.363 . S
C3050 C3040 1.465 . S
C3050 U3046 2.847 . S
C3050 O3064 1.249 . S
C3050 O3065 1.202 . S
C3051 C3049 1.363 . S
C3051 C3053 1.408 . S
C3051 C3056 1.342 . S
C3052 C3053 1.310 . S
C3052 C3055 1.461 . S
C3052 H3072 0.932 . S
C3053 C3051 1.408 . S
C3053 C3052 1.310 . S
C3053 H3073 0.930 . S
C3054 C3055 1.474 . S
C3054 C3056 1.285 . S
C3054 H3074 0.929 . S
C3055 C3052 1.461 . S
C3055 C3054 1.474 . S
C3056 C3051 1.342 . S
C3056 C3054 1.285 . S
C3056 H3075 0.930 . S
C3057 C3060 1.424 . S
C3057 C3062 1.245 . S
C3057 C3063 1.428 . S
C3058 C3061 1.260 . S
C3058 C3062 1.477 . S
C3058 H3076 0.932 . S
C3059 C3060 1.384 . S
C3059 C3061 1.479 . S
C3059 H3077 0.929 . S
C3060 C3057 1.424 . S
C3060 C3059 1.384 . S
C3060 H3078 0.928 . S
C3061 C3058 1.260 . S
C3061 C3059 1.479 . S
C3062 C3057 1.245 . S
C3062 C3058 1.477 . S
C3062 H3079 0.932 . S
C3063 U3046 2.882 . S
C3063 C3057 1.428 . S
C3063 O3066 1.301 . S
C3063 O3067 1.282 . S
O3064 U3046 2.441 . S
O3064 C3050 1.249 . S
O3065 U3046 2.420 . S
O3065 C3050 1.202 . S
O3066 U3046 2.455 . S
O3066 C3063 1.301 . S
O3067 U3046 2.449 . S
O3067 C3063 1.282 . S
H3068 C3041 0.931 . S
H3069 C3043 0.929 . S
H3070 C3044 0.930 . S
H3071 C3045 0.931 . S
H3072 C3052 0.932 . S
H3073 C3053 0.930 . S
H3074 C3054 0.929 . S
H3075 C3056 0.930 . S
H3076 C3058 0.932 . S
H3077 C3059 0.929 . S
H3078 C3060 0.928 . S
H3079 C3062 0.932 . S
C3080 C3081 1.264 . S
C3080 C3085 1.479 . S
C3080 C3090 1.465 . S
C3081 C3080 1.264 . S
C3081 C3083 1.339 . S
C3081 H3108 0.931 . S
C3082 C3083 1.395 . S
C3082 C3084 1.320 . S
C3083 C3081 1.339 . S
C3083 C3082 1.395 . S
C3083 H3109 0.929 . S
C3084 C3082 1.320 . S
C3084 C3085 1.405 . S
C3084 H3110 0.930 . S
C3085 C3080 1.479 . S
C3085 C3084 1.405 . S
C3085 H3111 0.931 . S
U3086 O3087 2.454 . S
U3086 O3088 2.458 . S
U3086 C3089 2.984 . S
U3086 C3090 2.847 . S
U3086 C3103 2.882 . S
U3086 O3104 2.441 . S
U3086 O3105 2.420 . S
U3086 O3106 2.455 . S
U3086 O3107 2.449 . S
O3087 U3086 2.454 . S
O3087 C3089 1.353 . S
O3088 U3086 2.458 . S
O3088 C3089 1.286 . S
C3089 U3086 2.984 . S
C3089 O3087 1.353 . S
C3089 O3088 1.286 . S
C3089 C3091 1.363 . S
C3090 C3080 1.465 . S
C3090 U3086 2.847 . S
C3090 O3104 1.249 . S
C3090 O3105 1.202 . S
C3091 C3089 1.363 . S
C3091 C3093 1.408 . S
C3091 C3096 1.342 . S
C3092 C3093 1.310 . S
C3092 C3095 1.461 . S
C3092 H3112 0.932 . S
C3093 C3091 1.408 . S
C3093 C3092 1.310 . S
C3093 H3113 0.930 . S
C3094 C3095 1.474 . S
C3094 C3096 1.285 . S
C3094 H3114 0.929 . S
C3095 C3092 1.461 . S
C3095 C3094 1.474 . S
C3096 C3091 1.342 . S
C3096 C3094 1.285 . S
C3096 H3115 0.930 . S
C3097 C3100 1.424 . S
C3097 C3102 1.245 . S
C3097 C3103 1.428 . S
C3098 C3101 1.260 . S
C3098 C3102 1.477 . S
C3098 H3116 0.932 . S
C3099 C3100 1.384 . S
C3099 C3101 1.479 . S
C3099 H3117 0.929 . S
C3100 C3097 1.424 . S
C3100 C3099 1.384 . S
C3100 H3118 0.928 . S
C3101 C3098 1.260 . S
C3101 C3099 1.479 . S
C3102 C3097 1.245 . S
C3102 C3098 1.477 . S
C3102 H3119 0.932 . S
C3103 U3086 2.882 . S
C3103 C3097 1.428 . S
C3103 O3106 1.301 . S
C3103 O3107 1.282 . S
O3104 U3086 2.441 . S
O3104 C3090 1.249 . S
O3105 U3086 2.420 . S
O3105 C3090 1.202 . S
O3106 U3086 2.455 . S
O3106 C3103 1.301 . S
O3107 U3086 2.449 . S
O3107 C3103 1.282 . S
H3108 C3081 0.931 . S
H3109 C3083 0.929 . S
H3110 C3084 0.930 . S
H3111 C3085 0.931 . S
H3112 C3092 0.932 . S
H3113 C3093 0.930 . S
H3114 C3094 0.929 . S
H3115 C3096 0.930 . S
H3116 C3098 0.932 . S
H3117 C3099 0.929 . S
H3118 C3100 0.928 . S
H3119 C3102 0.932 . S
C3120 C3121 1.264 . S
C3120 C3125 1.479 . S
C3120 C3130 1.465 . S
C3121 C3120 1.264 . S
C3121 C3123 1.339 . S
C3121 H3148 0.931 . S
C3122 C3123 1.395 . S
C3122 C3124 1.320 . S
C3123 C3121 1.339 . S
C3123 C3122 1.395 . S
C3123 H3149 0.929 . S
C3124 C3122 1.320 . S
C3124 C3125 1.405 . S
C3124 H3150 0.930 . S
C3125 C3120 1.479 . S
C3125 C3124 1.405 . S
C3125 H3151 0.931 . S
U3126 O3127 2.454 . S
U3126 O3128 2.458 . S
U3126 C3129 2.984 . S
U3126 C3130 2.847 . S
U3126 C3143 2.882 . S
U3126 O3144 2.441 . S
U3126 O3145 2.420 . S
U3126 O3146 2.455 . S
U3126 O3147 2.449 . S
O3127 U3126 2.454 . S
O3127 C3129 1.353 . S
O3128 U3126 2.458 . S
O3128 C3129 1.286 . S
C3129 U3126 2.984 . S
C3129 O3127 1.353 . S
C3129 O3128 1.286 . S
C3129 C3131 1.363 . S
C3130 C3120 1.465 . S
C3130 U3126 2.847 . S
C3130 O3144 1.249 . S
C3130 O3145 1.202 . S
C3131 C3129 1.363 . S
C3131 C3133 1.408 . S
C3131 C3136 1.342 . S
C3132 C3133 1.310 . S
C3132 C3135 1.461 . S
C3132 H3152 0.932 . S
C3133 C3131 1.408 . S
C3133 C3132 1.310 . S
C3133 H3153 0.930 . S
C3134 C3135 1.474 . S
C3134 C3136 1.285 . S
C3134 H3154 0.929 . S
C3135 C3132 1.461 . S
C3135 C3134 1.474 . S
C3136 C3131 1.342 . S
C3136 C3134 1.285 . S
C3136 H3155 0.930 . S
C3137 C3140 1.424 . S
C3137 C3142 1.245 . S
C3137 C3143 1.428 . S
C3138 C3141 1.260 . S
C3138 C3142 1.477 . S
C3138 H3156 0.932 . S
C3139 C3140 1.384 . S
C3139 C3141 1.479 . S
C3139 H3157 0.929 . S
C3140 C3137 1.424 . S
C3140 C3139 1.384 . S
C3140 H3158 0.928 . S
C3141 C3138 1.260 . S
C3141 C3139 1.479 . S
C3142 C3137 1.245 . S
C3142 C3138 1.477 . S
C3142 H3159 0.932 . S
C3143 U3126 2.882 . S
C3143 C3137 1.428 . S
C3143 O3146 1.301 . S
C3143 O3147 1.282 . S
O3144 U3126 2.441 . S
O3144 C3130 1.249 . S
O3145 U3126 2.420 . S
O3145 C3130 1.202 . S
O3146 U3126 2.455 . S
O3146 C3143 1.301 . S
O3147 U3126 2.449 . S
O3147 C3143 1.282 . S
H3148 C3121 0.931 . S
H3149 C3123 0.929 . S
H3150 C3124 0.930 . S
H3151 C3125 0.931 . S
H3152 C3132 0.932 . S
H3153 C3133 0.930 . S
H3154 C3134 0.929 . S
H3155 C3136 0.930 . S
H3156 C3138 0.932 . S
H3157 C3139 0.929 . S
H3158 C3140 0.928 . S
H3159 C3142 0.932 . S
C3160 C3161 1.264 . S
C3160 C3165 1.479 . S
C3160 C3170 1.465 . S
C3161 C3160 1.264 . S
C3161 C3163 1.339 . S
C3161 H3188 0.931 . S
C3162 C3163 1.395 . S
C3162 C3164 1.320 . S
C3163 C3161 1.339 . S
C3163 C3162 1.395 . S
C3163 H3189 0.929 . S
C3164 C3162 1.320 . S
C3164 C3165 1.405 . S
C3164 H3190 0.930 . S
C3165 C3160 1.479 . S
C3165 C3164 1.405 . S
C3165 H3191 0.931 . S
U3166 O3167 2.454 . S
U3166 O3168 2.458 . S
U3166 C3169 2.984 . S
U3166 C3170 2.847 . S
U3166 C3183 2.882 . S
U3166 O3184 2.441 . S
U3166 O3185 2.420 . S
U3166 O3186 2.455 . S
U3166 O3187 2.449 . S
O3167 U3166 2.454 . S
O3167 C3169 1.353 . S
O3168 U3166 2.458 . S
O3168 C3169 1.286 . S
C3169 U3166 2.984 . S
C3169 O3167 1.353 . S
C3169 O3168 1.286 . S
C3169 C3171 1.363 . S
C3170 C3160 1.465 . S
C3170 U3166 2.847 . S
C3170 O3184 1.249 . S
C3170 O3185 1.202 . S
C3171 C3169 1.363 . S
C3171 C3173 1.408 . S
C3171 C3176 1.342 . S
C3172 C3173 1.310 . S
C3172 C3175 1.461 . S
C3172 H3192 0.932 . S
C3173 C3171 1.408 . S
C3173 C3172 1.310 . S
C3173 H3193 0.930 . S
C3174 C3175 1.474 . S
C3174 C3176 1.285 . S
C3174 H3194 0.929 . S
C3175 C3172 1.461 . S
C3175 C3174 1.474 . S
C3176 C3171 1.342 . S
C3176 C3174 1.285 . S
C3176 H3195 0.930 . S
C3177 C3180 1.424 . S
C3177 C3182 1.245 . S
C3177 C3183 1.428 . S
C3178 C3181 1.260 . S
C3178 C3182 1.477 . S
C3178 H3196 0.932 . S
C3179 C3180 1.384 . S
C3179 C3181 1.479 . S
C3179 H3197 0.929 . S
C3180 C3177 1.424 . S
C3180 C3179 1.384 . S
C3180 H3198 0.928 . S
C3181 C3178 1.260 . S
C3181 C3179 1.479 . S
C3182 C3177 1.245 . S
C3182 C3178 1.477 . S
C3182 H3199 0.932 . S
C3183 U3166 2.882 . S
C3183 C3177 1.428 . S
C3183 O3186 1.301 . S
C3183 O3187 1.282 . S
O3184 U3166 2.441 . S
O3184 C3170 1.249 . S
O3185 U3166 2.420 . S
O3185 C3170 1.202 . S
O3186 U3166 2.455 . S
O3186 C3183 1.301 . S
O3187 U3166 2.449 . S
O3187 C3183 1.282 . S
H3188 C3161 0.931 . S
H3189 C3163 0.929 . S
H3190 C3164 0.930 . S
H3191 C3165 0.931 . S
H3192 C3172 0.932 . S
H3193 C3173 0.930 . S
H3194 C3174 0.929 . S
H3195 C3176 0.930 . S
H3196 C3178 0.932 . S
H3197 C3179 0.929 . S
H3198 C3180 0.928 . S
H3199 C3182 0.932 . S
C3200 C3201 1.264 . S
C3200 C3205 1.479 . S
C3200 C3210 1.465 . S
C3201 C3200 1.264 . S
C3201 C3203 1.339 . S
C3201 H3228 0.931 . S
C3202 C3203 1.395 . S
C3202 C3204 1.320 . S
C3203 C3201 1.339 . S
C3203 C3202 1.395 . S
C3203 H3229 0.929 . S
C3204 C3202 1.320 . S
C3204 C3205 1.405 . S
C3204 H3230 0.930 . S
C3205 C3200 1.479 . S
C3205 C3204 1.405 . S
C3205 H3231 0.931 . S
U3206 O3207 2.454 . S
U3206 O3208 2.458 . S
U3206 C3209 2.984 . S
U3206 C3210 2.847 . S
U3206 C3223 2.882 . S
U3206 O3224 2.441 . S
U3206 O3225 2.420 . S
U3206 O3226 2.455 . S
U3206 O3227 2.449 . S
O3207 U3206 2.454 . S
O3207 C3209 1.353 . S
O3208 U3206 2.458 . S
O3208 C3209 1.286 . S
C3209 U3206 2.984 . S
C3209 O3207 1.353 . S
C3209 O3208 1.286 . S
C3209 C3211 1.363 . S
C3210 C3200 1.465 . S
C3210 U3206 2.847 . S
C3210 O3224 1.249 . S
C3210 O3225 1.202 . S
C3211 C3209 1.363 . S
C3211 C3213 1.408 . S
C3211 C3216 1.342 . S
C3212 C3213 1.310 . S
C3212 C3215 1.461 . S
C3212 H3232 0.932 . S
C3213 C3211 1.408 . S
C3213 C3212 1.310 . S
C3213 H3233 0.930 . S
C3214 C3215 1.474 . S
C3214 C3216 1.285 . S
C3214 H3234 0.929 . S
C3215 C3212 1.461 . S
C3215 C3214 1.474 . S
C3216 C3211 1.342 . S
C3216 C3214 1.285 . S
C3216 H3235 0.930 . S
C3217 C3220 1.424 . S
C3217 C3222 1.245 . S
C3217 C3223 1.428 . S
C3218 C3221 1.260 . S
C3218 C3222 1.477 . S
C3218 H3236 0.932 . S
C3219 C3220 1.384 . S
C3219 C3221 1.479 . S
C3219 H3237 0.929 . S
C3220 C3217 1.424 . S
C3220 C3219 1.384 . S
C3220 H3238 0.928 . S
C3221 C3218 1.260 . S
C3221 C3219 1.479 . S
C3222 C3217 1.245 . S
C3222 C3218 1.477 . S
C3222 H3239 0.932 . S
C3223 U3206 2.882 . S
C3223 C3217 1.428 . S
C3223 O3226 1.301 . S
C3223 O3227 1.282 . S
O3224 U3206 2.441 . S
O3224 C3210 1.249 . S
O3225 U3206 2.420 . S
O3225 C3210 1.202 . S
O3226 U3206 2.455 . S
O3226 C3223 1.301 . S
O3227 U3206 2.449 . S
O3227 C3223 1.282 . S
H3228 C3201 0.931 . S
H3229 C3203 0.929 . S
H3230 C3204 0.930 . S
H3231 C3205 0.931 . S
H3232 C3212 0.932 . S
H3233 C3213 0.930 . S
H3234 C3214 0.929 . S
H3235 C3216 0.930 . S
H3236 C3218 0.932 . S
H3237 C3219 0.929 . S
H3238 C3220 0.928 . S
H3239 C3222 0.932 . S
C3240 C3241 1.264 . S
C3240 C3245 1.479 . S
C3240 C3250 1.465 . S
C3241 C3240 1.264 . S
C3241 C3243 1.339 . S
C3241 H3268 0.931 . S
C3242 C3243 1.395 . S
C3242 C3244 1.320 . S
C3243 C3241 1.339 . S
C3243 C3242 1.395 . S
C3243 H3269 0.929 . S
C3244 C3242 1.320 . S
C3244 C3245 1.405 . S
C3244 H3270 0.930 . S
C3245 C3240 1.479 . S
C3245 C3244 1.405 . S
C3245 H3271 0.931 . S
U3246 O3247 2.454 . S
U3246 O3248 2.458 . S
U3246 C3249 2.984 . S
U3246 C3250 2.847 . S
U3246 C3263 2.882 . S
U3246 O3264 2.441 . S
U3246 O3265 2.420 . S
U3246 O3266 2.455 . S
U3246 O3267 2.449 . S
O3247 U3246 2.454 . S
O3247 C3249 1.353 . S
O3248 U3246 2.458 . S
O3248 C3249 1.286 . S
C3249 U3246 2.984 . S
C3249 O3247 1.353 . S
C3249 O3248 1.286 . S
C3249 C3251 1.363 . S
C3250 C3240 1.465 . S
C3250 U3246 2.847 . S
C3250 O3264 1.249 . S
C3250 O3265 1.202 . S
C3251 C3249 1.363 . S
C3251 C3253 1.408 . S
C3251 C3256 1.342 . S
C3252 C3253 1.310 . S
C3252 C3255 1.461 . S
C3252 H3272 0.932 . S
C3253 C3251 1.408 . S
C3253 C3252 1.310 . S
C3253 H3273 0.930 . S
C3254 C3255 1.474 . S
C3254 C3256 1.285 . S
C3254 H3274 0.929 . S
C3255 C3252 1.461 . S
C3255 C3254 1.474 . S
C3256 C3251 1.342 . S
C3256 C3254 1.285 . S
C3256 H3275 0.930 . S
C3257 C3260 1.424 . S
C3257 C3262 1.245 . S
C3257 C3263 1.428 . S
C3258 C3261 1.260 . S
C3258 C3262 1.477 . S
C3258 H3276 0.932 . S
C3259 C3260 1.384 . S
C3259 C3261 1.479 . S
C3259 H3277 0.929 . S
C3260 C3257 1.424 . S
C3260 C3259 1.384 . S
C3260 H3278 0.928 . S
C3261 C3258 1.260 . S
C3261 C3259 1.479 . S
C3262 C3257 1.245 . S
C3262 C3258 1.477 . S
C3262 H3279 0.932 . S
C3263 U3246 2.882 . S
C3263 C3257 1.428 . S
C3263 O3266 1.301 . S
C3263 O3267 1.282 . S
O3264 U3246 2.441 . S
O3264 C3250 1.249 . S
O3265 U3246 2.420 . S
O3265 C3250 1.202 . S
O3266 U3246 2.455 . S
O3266 C3263 1.301 . S
O3267 U3246 2.449 . S
O3267 C3263 1.282 . S
H3268 C3241 0.931 . S
H3269 C3243 0.929 . S
H3270 C3244 0.930 . S
H3271 C3245 0.931 . S
H3272 C3252 0.932 . S
H3273 C3253 0.930 . S
H3274 C3254 0.929 . S
H3275 C3256 0.930 . S
H3276 C3258 0.932 . S
H3277 C3259 0.929 . S
H3278 C3260 0.928 . S
H3279 C3262 0.932 . S
C3280 C3281 1.264 . S
C3280 C3285 1.479 . S
C3280 C3290 1.465 . S
C3281 C3280 1.264 . S
C3281 C3283 1.339 . S
C3281 H3308 0.931 . S
C3282 C3283 1.395 . S
C3282 C3284 1.320 . S
C3283 C3281 1.339 . S
C3283 C3282 1.395 . S
C3283 H3309 0.929 . S
C3284 C3282 1.320 . S
C3284 C3285 1.405 . S
C3284 H3310 0.930 . S
C3285 C3280 1.479 . S
C3285 C3284 1.405 . S
C3285 H3311 0.931 . S
U3286 O3287 2.454 . S
U3286 O3288 2.458 . S
U3286 C3289 2.984 . S
U3286 C3290 2.847 . S
U3286 C3303 2.882 . S
U3286 O3304 2.441 . S
U3286 O3305 2.420 . S
U3286 O3306 2.455 . S
U3286 O3307 2.449 . S
O3287 U3286 2.454 . S
O3287 C3289 1.353 . S
O3288 U3286 2.458 . S
O3288 C3289 1.286 . S
C3289 U3286 2.984 . S
C3289 O3287 1.353 . S
C3289 O3288 1.286 . S
C3289 C3291 1.363 . S
C3290 C3280 1.465 . S
C3290 U3286 2.847 . S
C3290 O3304 1.249 . S
C3290 O3305 1.202 . S
C3291 C3289 1.363 . S
C3291 C3293 1.408 . S
C3291 C3296 1.342 . S
C3292 C3293 1.310 . S
C3292 C3295 1.461 . S
C3292 H3312 0.932 . S
C3293 C3291 1.408 . S
C3293 C3292 1.310 . S
C3293 H3313 0.930 . S
C3294 C3295 1.474 . S
C3294 C3296 1.285 . S
C3294 H3314 0.929 . S
C3295 C3292 1.461 . S
C3295 C3294 1.474 . S
C3296 C3291 1.342 . S
C3296 C3294 1.285 . S
C3296 H3315 0.930 . S
C3297 C3300 1.424 . S
C3297 C3302 1.245 . S
C3297 C3303 1.428 . S
C3298 C3301 1.260 . S
C3298 C3302 1.477 . S
C3298 H3316 0.932 . S
C3299 C3300 1.384 . S
C3299 C3301 1.479 . S
C3299 H3317 0.929 . S
C3300 C3297 1.424 . S
C3300 C3299 1.384 . S
C3300 H3318 0.928 . S
C3301 C3298 1.260 . S
C3301 C3299 1.479 . S
C3302 C3297 1.245 . S
C3302 C3298 1.477 . S
C3302 H3319 0.932 . S
C3303 U3286 2.882 . S
C3303 C3297 1.428 . S
C3303 O3306 1.301 . S
C3303 O3307 1.282 . S
O3304 U3286 2.441 . S
O3304 C3290 1.249 . S
O3305 U3286 2.420 . S
O3305 C3290 1.202 . S
O3306 U3286 2.455 . S
O3306 C3303 1.301 . S
O3307 U3286 2.449 . S
O3307 C3303 1.282 . S
H3308 C3281 0.931 . S
H3309 C3283 0.929 . S
H3310 C3284 0.930 . S
H3311 C3285 0.931 . S
H3312 C3292 0.932 . S
H3313 C3293 0.930 . S
H3314 C3294 0.929 . S
H3315 C3296 0.930 . S
H3316 C3298 0.932 . S
H3317 C3299 0.929 . S
H3318 C3300 0.928 . S
H3319 C3302 0.932 . S
C3320 C3321 1.264 . S
C3320 C3325 1.479 . S
C3320 C3330 1.465 . S
C3321 C3320 1.264 . S
C3321 C3323 1.339 . S
C3321 H3348 0.931 . S
C3322 C3323 1.395 . S
C3322 C3324 1.320 . S
C3323 C3321 1.339 . S
C3323 C3322 1.395 . S
C3323 H3349 0.929 . S
C3324 C3322 1.320 . S
C3324 C3325 1.405 . S
C3324 H3350 0.930 . S
C3325 C3320 1.479 . S
C3325 C3324 1.405 . S
C3325 H3351 0.931 . S
U3326 O3327 2.454 . S
U3326 O3328 2.458 . S
U3326 C3329 2.984 . S
U3326 C3330 2.847 . S
U3326 C3343 2.882 . S
U3326 O3344 2.441 . S
U3326 O3345 2.420 . S
U3326 O3346 2.455 . S
U3326 O3347 2.449 . S
O3327 U3326 2.454 . S
O3327 C3329 1.353 . S
O3328 U3326 2.458 . S
O3328 C3329 1.286 . S
C3329 U3326 2.984 . S
C3329 O3327 1.353 . S
C3329 O3328 1.286 . S
C3329 C3331 1.363 . S
C3330 C3320 1.465 . S
C3330 U3326 2.847 . S
C3330 O3344 1.249 . S
C3330 O3345 1.202 . S
C3331 C3329 1.363 . S
C3331 C3333 1.408 . S
C3331 C3336 1.342 . S
C3332 C3333 1.310 . S
C3332 C3335 1.461 . S
C3332 H3352 0.932 . S
C3333 C3331 1.408 . S
C3333 C3332 1.310 . S
C3333 H3353 0.930 . S
C3334 C3335 1.474 . S
C3334 C3336 1.285 . S
C3334 H3354 0.929 . S
C3335 C3332 1.461 . S
C3335 C3334 1.474 . S
C3336 C3331 1.342 . S
C3336 C3334 1.285 . S
C3336 H3355 0.930 . S
C3337 C3340 1.424 . S
C3337 C3342 1.245 . S
C3337 C3343 1.428 . S
C3338 C3341 1.260 . S
C3338 C3342 1.477 . S
C3338 H3356 0.932 . S
C3339 C3340 1.384 . S
C3339 C3341 1.479 . S
C3339 H3357 0.929 . S
C3340 C3337 1.424 . S
C3340 C3339 1.384 . S
C3340 H3358 0.928 . S
C3341 C3338 1.260 . S
C3341 C3339 1.479 . S
C3342 C3337 1.245 . S
C3342 C3338 1.477 . S
C3342 H3359 0.932 . S
C3343 U3326 2.882 . S
C3343 C3337 1.428 . S
C3343 O3346 1.301 . S
C3343 O3347 1.282 . S
O3344 U3326 2.441 . S
O3344 C3330 1.249 . S
O3345 U3326 2.420 . S
O3345 C3330 1.202 . S
O3346 U3326 2.455 . S
O3346 C3343 1.301 . S
O3347 U3326 2.449 . S
O3347 C3343 1.282 . S
H3348 C3321 0.931 . S
H3349 C3323 0.929 . S
H3350 C3324 0.930 . S
H3351 C3325 0.931 . S
H3352 C3332 0.932 . S
H3353 C3333 0.930 . S
H3354 C3334 0.929 . S
H3355 C3336 0.930 . S
H3356 C3338 0.932 . S
H3357 C3339 0.929 . S
H3358 C3340 0.928 . S
H3359 C3342 0.932 . S
C3360 C3361 1.264 . S
C3360 C3365 1.479 . S
C3360 C3370 1.465 . S
C3361 C3360 1.264 . S
C3361 C3363 1.339 . S
C3361 H3388 0.931 . S
C3362 C3363 1.395 . S
C3362 C3364 1.320 . S
C3363 C3361 1.339 . S
C3363 C3362 1.395 . S
C3363 H3389 0.929 . S
C3364 C3362 1.320 . S
C3364 C3365 1.405 . S
C3364 H3390 0.930 . S
C3365 C3360 1.479 . S
C3365 C3364 1.405 . S
C3365 H3391 0.931 . S
U3366 O3367 2.454 . S
U3366 O3368 2.458 . S
U3366 C3369 2.984 . S
U3366 C3370 2.847 . S
U3366 C3383 2.882 . S
U3366 O3384 2.441 . S
U3366 O3385 2.420 . S
U3366 O3386 2.455 . S
U3366 O3387 2.449 . S
O3367 U3366 2.454 . S
O3367 C3369 1.353 . S
O3368 U3366 2.458 . S
O3368 C3369 1.286 . S
C3369 U3366 2.984 . S
C3369 O3367 1.353 . S
C3369 O3368 1.286 . S
C3369 C3371 1.363 . S
C3370 C3360 1.465 . S
C3370 U3366 2.847 . S
C3370 O3384 1.249 . S
C3370 O3385 1.202 . S
C3371 C3369 1.363 . S
C3371 C3373 1.408 . S
C3371 C3376 1.342 . S
C3372 C3373 1.310 . S
C3372 C3375 1.461 . S
C3372 H3392 0.932 . S
C3373 C3371 1.408 . S
C3373 C3372 1.310 . S
C3373 H3393 0.930 . S
C3374 C3375 1.474 . S
C3374 C3376 1.285 . S
C3374 H3394 0.929 . S
C3375 C3372 1.461 . S
C3375 C3374 1.474 . S
C3376 C3371 1.342 . S
C3376 C3374 1.285 . S
C3376 H3395 0.930 . S
C3377 C3380 1.424 . S
C3377 C3382 1.245 . S
C3377 C3383 1.428 . S
C3378 C3381 1.260 . S
C3378 C3382 1.477 . S
C3378 H3396 0.932 . S
C3379 C3380 1.384 . S
C3379 C3381 1.479 . S
C3379 H3397 0.929 . S
C3380 C3377 1.424 . S
C3380 C3379 1.384 . S
C3380 H3398 0.928 . S
C3381 C3378 1.260 . S
C3381 C3379 1.479 . S
C3382 C3377 1.245 . S
C3382 C3378 1.477 . S
C3382 H3399 0.932 . S
C3383 U3366 2.882 . S
C3383 C3377 1.428 . S
C3383 O3386 1.301 . S
C3383 O3387 1.282 . S
O3384 U3366 2.441 . S
O3384 C3370 1.249 . S
O3385 U3366 2.420 . S
O3385 C3370 1.202 . S
O3386 U3366 2.455 . S
O3386 C3383 1.301 . S
O3387 U3366 2.449 . S
O3387 C3383 1.282 . S
H3388 C3361 0.931 . S
H3389 C3363 0.929 . S
H3390 C3364 0.930 . S
H3391 C3365 0.931 . S
H3392 C3372 0.932 . S
H3393 C3373 0.930 . S
H3394 C3374 0.929 . S
H3395 C3376 0.930 . S
H3396 C3378 0.932 . S
H3397 C3379 0.929 . S
H3398 C3380 0.928 . S
H3399 C3382 0.932 . S
C3400 C3401 1.264 . S
C3400 C3405 1.479 . S
C3400 C3410 1.465 . S
C3401 C3400 1.264 . S
C3401 C3403 1.339 . S
C3401 H3428 0.931 . S
C3402 C3403 1.395 . S
C3402 C3404 1.320 . S
C3403 C3401 1.339 . S
C3403 C3402 1.395 . S
C3403 H3429 0.929 . S
C3404 C3402 1.320 . S
C3404 C3405 1.405 . S
C3404 H3430 0.930 . S
C3405 C3400 1.479 . S
C3405 C3404 1.405 . S
C3405 H3431 0.931 . S
U3406 O3407 2.454 . S
U3406 O3408 2.458 . S
U3406 C3409 2.984 . S
U3406 C3410 2.847 . S
U3406 C3423 2.882 . S
U3406 O3424 2.441 . S
U3406 O3425 2.420 . S
U3406 O3426 2.455 . S
U3406 O3427 2.449 . S
O3407 U3406 2.454 . S
O3407 C3409 1.353 . S
O3408 U3406 2.458 . S
O3408 C3409 1.286 . S
C3409 U3406 2.984 . S
C3409 O3407 1.353 . S
C3409 O3408 1.286 . S
C3409 C3411 1.363 . S
C3410 C3400 1.465 . S
C3410 U3406 2.847 . S
C3410 O3424 1.249 . S
C3410 O3425 1.202 . S
C3411 C3409 1.363 . S
C3411 C3413 1.408 . S
C3411 C3416 1.342 . S
C3412 C3413 1.310 . S
C3412 C3415 1.461 . S
C3412 H3432 0.932 . S
C3413 C3411 1.408 . S
C3413 C3412 1.310 . S
C3413 H3433 0.930 . S
C3414 C3415 1.474 . S
C3414 C3416 1.285 . S
C3414 H3434 0.929 . S
C3415 C3412 1.461 . S
C3415 C3414 1.474 . S
C3416 C3411 1.342 . S
C3416 C3414 1.285 . S
C3416 H3435 0.930 . S
C3417 C3420 1.424 . S
C3417 C3422 1.245 . S
C3417 C3423 1.428 . S
C3418 C3421 1.260 . S
C3418 C3422 1.477 . S
C3418 H3436 0.932 . S
C3419 C3420 1.384 . S
C3419 C3421 1.479 . S
C3419 H3437 0.929 . S
C3420 C3417 1.424 . S
C3420 C3419 1.384 . S
C3420 H3438 0.928 . S
C3421 C3418 1.260 . S
C3421 C3419 1.479 . S
C3422 C3417 1.245 . S
C3422 C3418 1.477 . S
C3422 H3439 0.932 . S
C3423 U3406 2.882 . S
C3423 C3417 1.428 . S
C3423 O3426 1.301 . S
C3423 O3427 1.282 . S
O3424 U3406 2.441 . S
O3424 C3410 1.249 . S
O3425 U3406 2.420 . S
O3425 C3410 1.202 . S
O3426 U3406 2.455 . S
O3426 C3423 1.301 . S
O3427 U3406 2.449 . S
O3427 C3423 1.282 . S
H3428 C3401 0.931 . S
H3429 C3403 0.929 . S
H3430 C3404 0.930 . S
H3431 C3405 0.931 . S
H3432 C3412 0.932 . S
H3433 C3413 0.930 . S
H3434 C3414 0.929 . S
H3435 C3416 0.930 . S
H3436 C3418 0.932 . S
H3437 C3419 0.929 . S
H3438 C3420 0.928 . S
H3439 C3422 0.932 . S
C3440 C3441 1.264 . S
C3440 C3445 1.479 . S
C3440 C3450 1.465 . S
C3441 C3440 1.264 . S
C3441 C3443 1.339 . S
C3441 H3468 0.931 . S
C3442 C3443 1.395 . S
C3442 C3444 1.320 . S
C3443 C3441 1.339 . S
C3443 C3442 1.395 . S
C3443 H3469 0.929 . S
C3444 C3442 1.320 . S
C3444 C3445 1.405 . S
C3444 H3470 0.930 . S
C3445 C3440 1.479 . S
C3445 C3444 1.405 . S
C3445 H3471 0.931 . S
U3446 O3447 2.454 . S
U3446 O3448 2.458 . S
U3446 C3449 2.984 . S
U3446 C3450 2.847 . S
U3446 C3463 2.882 . S
U3446 O3464 2.441 . S
U3446 O3465 2.420 . S
U3446 O3466 2.455 . S
U3446 O3467 2.449 . S
O3447 U3446 2.454 . S
O3447 C3449 1.353 . S
O3448 U3446 2.458 . S
O3448 C3449 1.286 . S
C3449 U3446 2.984 . S
C3449 O3447 1.353 . S
C3449 O3448 1.286 . S
C3449 C3451 1.363 . S
C3450 C3440 1.465 . S
C3450 U3446 2.847 . S
C3450 O3464 1.249 . S
C3450 O3465 1.202 . S
C3451 C3449 1.363 . S
C3451 C3453 1.408 . S
C3451 C3456 1.342 . S
C3452 C3453 1.310 . S
C3452 C3455 1.461 . S
C3452 H3472 0.932 . S
C3453 C3451 1.408 . S
C3453 C3452 1.310 . S
C3453 H3473 0.930 . S
C3454 C3455 1.474 . S
C3454 C3456 1.285 . S
C3454 H3474 0.929 . S
C3455 C3452 1.461 . S
C3455 C3454 1.474 . S
C3456 C3451 1.342 . S
C3456 C3454 1.285 . S
C3456 H3475 0.930 . S
C3457 C3460 1.424 . S
C3457 C3462 1.245 . S
C3457 C3463 1.428 . S
C3458 C3461 1.260 . S
C3458 C3462 1.477 . S
C3458 H3476 0.932 . S
C3459 C3460 1.384 . S
C3459 C3461 1.479 . S
C3459 H3477 0.929 . S
C3460 C3457 1.424 . S
C3460 C3459 1.384 . S
C3460 H3478 0.928 . S
C3461 C3458 1.260 . S
C3461 C3459 1.479 . S
C3462 C3457 1.245 . S
C3462 C3458 1.477 . S
C3462 H3479 0.932 . S
C3463 U3446 2.882 . S
C3463 C3457 1.428 . S
C3463 O3466 1.301 . S
C3463 O3467 1.282 . S
O3464 U3446 2.441 . S
O3464 C3450 1.249 . S
O3465 U3446 2.420 . S
O3465 C3450 1.202 . S
O3466 U3446 2.455 . S
O3466 C3463 1.301 . S
O3467 U3446 2.449 . S
O3467 C3463 1.282 . S
H3468 C3441 0.931 . S
H3469 C3443 0.929 . S
H3470 C3444 0.930 . S
H3471 C3445 0.931 . S
H3472 C3452 0.932 . S
H3473 C3453 0.930 . S
H3474 C3454 0.929 . S
H3475 C3456 0.930 . S
H3476 C3458 0.932 . S
H3477 C3459 0.929 . S
H3478 C3460 0.928 . S
H3479 C3462 0.932 . S
C3480 C3481 1.264 . S
C3480 C3485 1.479 . S
C3480 C3490 1.465 . S
C3481 C3480 1.264 . S
C3481 C3483 1.339 . S
C3481 H3508 0.931 . S
C3482 C3483 1.395 . S
C3482 C3484 1.320 . S
C3483 C3481 1.339 . S
C3483 C3482 1.395 . S
C3483 H3509 0.929 . S
C3484 C3482 1.320 . S
C3484 C3485 1.405 . S
C3484 H3510 0.930 . S
C3485 C3480 1.479 . S
C3485 C3484 1.405 . S
C3485 H3511 0.931 . S
U3486 O3487 2.454 . S
U3486 O3488 2.458 . S
U3486 C3489 2.984 . S
U3486 C3490 2.847 . S
U3486 C3503 2.882 . S
U3486 O3504 2.441 . S
U3486 O3505 2.420 . S
U3486 O3506 2.455 . S
U3486 O3507 2.449 . S
O3487 U3486 2.454 . S
O3487 C3489 1.353 . S
O3488 U3486 2.458 . S
O3488 C3489 1.286 . S
C3489 U3486 2.984 . S
C3489 O3487 1.353 . S
C3489 O3488 1.286 . S
C3489 C3491 1.363 . S
C3490 C3480 1.465 . S
C3490 U3486 2.847 . S
C3490 O3504 1.249 . S
C3490 O3505 1.202 . S
C3491 C3489 1.363 . S
C3491 C3493 1.408 . S
C3491 C3496 1.342 . S
C3492 C3493 1.310 . S
C3492 C3495 1.461 . S
C3492 H3512 0.932 . S
C3493 C3491 1.408 . S
C3493 C3492 1.310 . S
C3493 H3513 0.930 . S
C3494 C3495 1.474 . S
C3494 C3496 1.285 . S
C3494 H3514 0.929 . S
C3495 C3492 1.461 . S
C3495 C3494 1.474 . S
C3496 C3491 1.342 . S
C3496 C3494 1.285 . S
C3496 H3515 0.930 . S
C3497 C3500 1.424 . S
C3497 C3502 1.245 . S
C3497 C3503 1.428 . S
C3498 C3501 1.260 . S
C3498 C3502 1.477 . S
C3498 H3516 0.932 . S
C3499 C3500 1.384 . S
C3499 C3501 1.479 . S
C3499 H3517 0.929 . S
C3500 C3497 1.424 . S
C3500 C3499 1.384 . S
C3500 H3518 0.928 . S
C3501 C3498 1.260 . S
C3501 C3499 1.479 . S
C3502 C3497 1.245 . S
C3502 C3498 1.477 . S
C3502 H3519 0.932 . S
C3503 U3486 2.882 . S
C3503 C3497 1.428 . S
C3503 O3506 1.301 . S
C3503 O3507 1.282 . S
O3504 U3486 2.441 . S
O3504 C3490 1.249 . S
O3505 U3486 2.420 . S
O3505 C3490 1.202 . S
O3506 U3486 2.455 . S
O3506 C3503 1.301 . S
O3507 U3486 2.449 . S
O3507 C3503 1.282 . S
H3508 C3481 0.931 . S
H3509 C3483 0.929 . S
H3510 C3484 0.930 . S
H3511 C3485 0.931 . S
H3512 C3492 0.932 . S
H3513 C3493 0.930 . S
H3514 C3494 0.929 . S
H3515 C3496 0.930 . S
H3516 C3498 0.932 . S
H3517 C3499 0.929 . S
H3518 C3500 0.928 . S
H3519 C3502 0.932 . S
C3520 C3521 1.264 . S
C3520 C3525 1.479 . S
C3520 C3530 1.465 . S
C3521 C3520 1.264 . S
C3521 C3523 1.339 . S
C3521 H3548 0.931 . S
C3522 C3523 1.395 . S
C3522 C3524 1.320 . S
C3523 C3521 1.339 . S
C3523 C3522 1.395 . S
C3523 H3549 0.929 . S
C3524 C3522 1.320 . S
C3524 C3525 1.405 . S
C3524 H3550 0.930 . S
C3525 C3520 1.479 . S
C3525 C3524 1.405 . S
C3525 H3551 0.931 . S
U3526 O3527 2.454 . S
U3526 O3528 2.458 . S
U3526 C3529 2.984 . S
U3526 C3530 2.847 . S
U3526 C3543 2.882 . S
U3526 O3544 2.441 . S
U3526 O3545 2.420 . S
U3526 O3546 2.455 . S
U3526 O3547 2.449 . S
O3527 U3526 2.454 . S
O3527 C3529 1.353 . S
O3528 U3526 2.458 . S
O3528 C3529 1.286 . S
C3529 U3526 2.984 . S
C3529 O3527 1.353 . S
C3529 O3528 1.286 . S
C3529 C3531 1.363 . S
C3530 C3520 1.465 . S
C3530 U3526 2.847 . S
C3530 O3544 1.249 . S
C3530 O3545 1.202 . S
C3531 C3529 1.363 . S
C3531 C3533 1.408 . S
C3531 C3536 1.342 . S
C3532 C3533 1.310 . S
C3532 C3535 1.461 . S
C3532 H3552 0.932 . S
C3533 C3531 1.408 . S
C3533 C3532 1.310 . S
C3533 H3553 0.930 . S
C3534 C3535 1.474 . S
C3534 C3536 1.285 . S
C3534 H3554 0.929 . S
C3535 C3532 1.461 . S
C3535 C3534 1.474 . S
C3536 C3531 1.342 . S
C3536 C3534 1.285 . S
C3536 H3555 0.930 . S
C3537 C3540 1.424 . S
C3537 C3542 1.245 . S
C3537 C3543 1.428 . S
C3538 C3541 1.260 . S
C3538 C3542 1.477 . S
C3538 H3556 0.932 . S
C3539 C3540 1.384 . S
C3539 C3541 1.479 . S
C3539 H3557 0.929 . S
C3540 C3537 1.424 . S
C3540 C3539 1.384 . S
C3540 H3558 0.928 . S
C3541 C3538 1.260 . S
C3541 C3539 1.479 . S
C3542 C3537 1.245 . S
C3542 C3538 1.477 . S
C3542 H3559 0.932 . S
C3543 U3526 2.882 . S
C3543 C3537 1.428 . S
C3543 O3546 1.301 . S
C3543 O3547 1.282 . S
O3544 U3526 2.441 . S
O3544 C3530 1.249 . S
O3545 U3526 2.420 . S
O3545 C3530 1.202 . S
O3546 U3526 2.455 . S
O3546 C3543 1.301 . S
O3547 U3526 2.449 . S
O3547 C3543 1.282 . S
H3548 C3521 0.931 . S
H3549 C3523 0.929 . S
H3550 C3524 0.930 . S
H3551 C3525 0.931 . S
H3552 C3532 0.932 . S
H3553 C3533 0.930 . S
H3554 C3534 0.929 . S
H3555 C3536 0.930 . S
H3556 C3538 0.932 . S
H3557 C3539 0.929 . S
H3558 C3540 0.928 . S
H3559 C3542 0.932 . S
C3560 C3561 1.264 . S
C3560 C3565 1.479 . S
C3560 C3570 1.465 . S
C3561 C3560 1.264 . S
C3561 C3563 1.339 . S
C3561 H3588 0.931 . S
C3562 C3563 1.395 . S
C3562 C3564 1.320 . S
C3563 C3561 1.339 . S
C3563 C3562 1.395 . S
C3563 H3589 0.929 . S
C3564 C3562 1.320 . S
C3564 C3565 1.405 . S
C3564 H3590 0.930 . S
C3565 C3560 1.479 . S
C3565 C3564 1.405 . S
C3565 H3591 0.931 . S
U3566 O3567 2.454 . S
U3566 O3568 2.458 . S
U3566 C3569 2.984 . S
U3566 C3570 2.847 . S
U3566 C3583 2.882 . S
U3566 O3584 2.441 . S
U3566 O3585 2.420 . S
U3566 O3586 2.455 . S
U3566 O3587 2.449 . S
O3567 U3566 2.454 . S
O3567 C3569 1.353 . S
O3568 U3566 2.458 . S
O3568 C3569 1.286 . S
C3569 U3566 2.984 . S
C3569 O3567 1.353 . S
C3569 O3568 1.286 . S
C3569 C3571 1.363 . S
C3570 C3560 1.465 . S
C3570 U3566 2.847 . S
C3570 O3584 1.249 . S
C3570 O3585 1.202 . S
C3571 C3569 1.363 . S
C3571 C3573 1.408 . S
C3571 C3576 1.342 . S
C3572 C3573 1.310 . S
C3572 C3575 1.461 . S
C3572 H3592 0.932 . S
C3573 C3571 1.408 . S
C3573 C3572 1.310 . S
C3573 H3593 0.930 . S
C3574 C3575 1.474 . S
C3574 C3576 1.285 . S
C3574 H3594 0.929 . S
C3575 C3572 1.461 . S
C3575 C3574 1.474 . S
C3576 C3571 1.342 . S
C3576 C3574 1.285 . S
C3576 H3595 0.930 . S
C3577 C3580 1.424 . S
C3577 C3582 1.245 . S
C3577 C3583 1.428 . S
C3578 C3581 1.260 . S
C3578 C3582 1.477 . S
C3578 H3596 0.932 . S
C3579 C3580 1.384 . S
C3579 C3581 1.479 . S
C3579 H3597 0.929 . S
C3580 C3577 1.424 . S
C3580 C3579 1.384 . S
C3580 H3598 0.928 . S
C3581 C3578 1.260 . S
C3581 C3579 1.479 . S
C3582 C3577 1.245 . S
C3582 C3578 1.477 . S
C3582 H3599 0.932 . S
C3583 U3566 2.882 . S
C3583 C3577 1.428 . S
C3583 O3586 1.301 . S
C3583 O3587 1.282 . S
O3584 U3566 2.441 . S
O3584 C3570 1.249 . S
O3585 U3566 2.420 . S
O3585 C3570 1.202 . S
O3586 U3566 2.455 . S
O3586 C3583 1.301 . S
O3587 U3566 2.449 . S
O3587 C3583 1.282 . S
H3588 C3561 0.931 . S
H3589 C3563 0.929 . S
H3590 C3564 0.930 . S
H3591 C3565 0.931 . S
H3592 C3572 0.932 . S
H3593 C3573 0.930 . S
H3594 C3574 0.929 . S
H3595 C3576 0.930 . S
H3596 C3578 0.932 . S
H3597 C3579 0.929 . S
H3598 C3580 0.928 . S
H3599 C3582 0.932 . S
C3600 C3601 1.264 . S
C3600 C3605 1.479 . S
C3600 C3610 1.465 . S
C3601 C3600 1.264 . S
C3601 C3603 1.339 . S
C3601 H3628 0.931 . S
C3602 C3603 1.395 . S
C3602 C3604 1.320 . S
C3603 C3601 1.339 . S
C3603 C3602 1.395 . S
C3603 H3629 0.929 . S
C3604 C3602 1.320 . S
C3604 C3605 1.405 . S
C3604 H3630 0.930 . S
C3605 C3600 1.479 . S
C3605 C3604 1.405 . S
C3605 H3631 0.931 . S
U3606 O3607 2.454 . S
U3606 O3608 2.458 . S
U3606 C3609 2.984 . S
U3606 C3610 2.847 . S
U3606 C3623 2.882 . S
U3606 O3624 2.441 . S
U3606 O3625 2.420 . S
U3606 O3626 2.455 . S
U3606 O3627 2.449 . S
O3607 U3606 2.454 . S
O3607 C3609 1.353 . S
O3608 U3606 2.458 . S
O3608 C3609 1.286 . S
C3609 U3606 2.984 . S
C3609 O3607 1.353 . S
C3609 O3608 1.286 . S
C3609 C3611 1.363 . S
C3610 C3600 1.465 . S
C3610 U3606 2.847 . S
C3610 O3624 1.249 . S
C3610 O3625 1.202 . S
C3611 C3609 1.363 . S
C3611 C3613 1.408 . S
C3611 C3616 1.342 . S
C3612 C3613 1.310 . S
C3612 C3615 1.461 . S
C3612 H3632 0.932 . S
C3613 C3611 1.408 . S
C3613 C3612 1.310 . S
C3613 H3633 0.930 . S
C3614 C3615 1.474 . S
C3614 C3616 1.285 . S
C3614 H3634 0.929 . S
C3615 C3612 1.461 . S
C3615 C3614 1.474 . S
C3616 C3611 1.342 . S
C3616 C3614 1.285 . S
C3616 H3635 0.930 . S
C3617 C3620 1.424 . S
C3617 C3622 1.245 . S
C3617 C3623 1.428 . S
C3618 C3621 1.260 . S
C3618 C3622 1.477 . S
C3618 H3636 0.932 . S
C3619 C3620 1.384 . S
C3619 C3621 1.479 . S
C3619 H3637 0.929 . S
C3620 C3617 1.424 . S
C3620 C3619 1.384 . S
C3620 H3638 0.928 . S
C3621 C3618 1.260 . S
C3621 C3619 1.479 . S
C3622 C3617 1.245 . S
C3622 C3618 1.477 . S
C3622 H3639 0.932 . S
C3623 U3606 2.882 . S
C3623 C3617 1.428 . S
C3623 O3626 1.301 . S
C3623 O3627 1.282 . S
O3624 U3606 2.441 . S
O3624 C3610 1.249 . S
O3625 U3606 2.420 . S
O3625 C3610 1.202 . S
O3626 U3606 2.455 . S
O3626 C3623 1.301 . S
O3627 U3606 2.449 . S
O3627 C3623 1.282 . S
H3628 C3601 0.931 . S
H3629 C3603 0.929 . S
H3630 C3604 0.930 . S
H3631 C3605 0.931 . S
H3632 C3612 0.932 . S
H3633 C3613 0.930 . S
H3634 C3614 0.929 . S
H3635 C3616 0.930 . S
H3636 C3618 0.932 . S
H3637 C3619 0.929 . S
H3638 C3620 0.928 . S
H3639 C3622 0.932 . S
C3640 C3641 1.264 . S
C3640 C3645 1.479 . S
C3640 C3650 1.465 . S
C3641 C3640 1.264 . S
C3641 C3643 1.339 . S
C3641 H3668 0.931 . S
C3642 C3643 1.395 . S
C3642 C3644 1.320 . S
C3643 C3641 1.339 . S
C3643 C3642 1.395 . S
C3643 H3669 0.929 . S
C3644 C3642 1.320 . S
C3644 C3645 1.405 . S
C3644 H3670 0.930 . S
C3645 C3640 1.479 . S
C3645 C3644 1.405 . S
C3645 H3671 0.931 . S
U3646 O3647 2.454 . S
U3646 O3648 2.458 . S
U3646 C3649 2.984 . S
U3646 C3650 2.847 . S
U3646 C3663 2.882 . S
U3646 O3664 2.441 . S
U3646 O3665 2.420 . S
U3646 O3666 2.455 . S
U3646 O3667 2.449 . S
O3647 U3646 2.454 . S
O3647 C3649 1.353 . S
O3648 U3646 2.458 . S
O3648 C3649 1.286 . S
C3649 U3646 2.984 . S
C3649 O3647 1.353 . S
C3649 O3648 1.286 . S
C3649 C3651 1.363 . S
C3650 C3640 1.465 . S
C3650 U3646 2.847 . S
C3650 O3664 1.249 . S
C3650 O3665 1.202 . S
C3651 C3649 1.363 . S
C3651 C3653 1.408 . S
C3651 C3656 1.342 . S
C3652 C3653 1.310 . S
C3652 C3655 1.461 . S
C3652 H3672 0.932 . S
C3653 C3651 1.408 . S
C3653 C3652 1.310 . S
C3653 H3673 0.930 . S
C3654 C3655 1.474 . S
C3654 C3656 1.285 . S
C3654 H3674 0.929 . S
C3655 C3652 1.461 . S
C3655 C3654 1.474 . S
C3656 C3651 1.342 . S
C3656 C3654 1.285 . S
C3656 H3675 0.930 . S
C3657 C3660 1.424 . S
C3657 C3662 1.245 . S
C3657 C3663 1.428 . S
C3658 C3661 1.260 . S
C3658 C3662 1.477 . S
C3658 H3676 0.932 . S
C3659 C3660 1.384 . S
C3659 C3661 1.479 . S
C3659 H3677 0.929 . S
C3660 C3657 1.424 . S
C3660 C3659 1.384 . S
C3660 H3678 0.928 . S
C3661 C3658 1.260 . S
C3661 C3659 1.479 . S
C3662 C3657 1.245 . S
C3662 C3658 1.477 . S
C3662 H3679 0.932 . S
C3663 U3646 2.882 . S
C3663 C3657 1.428 . S
C3663 O3666 1.301 . S
C3663 O3667 1.282 . S
O3664 U3646 2.441 . S
O3664 C3650 1.249 . S
O3665 U3646 2.420 . S
O3665 C3650 1.202 . S
O3666 U3646 2.455 . S
O3666 C3663 1.301 . S
O3667 U3646 2.449 . S
O3667 C3663 1.282 . S
H3668 C3641 0.931 . S
H3669 C3643 0.929 . S
H3670 C3644 0.930 . S
H3671 C3645 0.931 . S
H3672 C3652 0.932 . S
H3673 C3653 0.930 . S
H3674 C3654 0.929 . S
H3675 C3656 0.930 . S
H3676 C3658 0.932 . S
H3677 C3659 0.929 . S
H3678 C3660 0.928 . S
H3679 C3662 0.932 . S
C3680 C3681 1.264 . S
C3680 C3685 1.479 . S
C3680 C3690 1.465 . S
C3681 C3680 1.264 . S
C3681 C3683 1.339 . S
C3681 H3708 0.931 . S
C3682 C3683 1.395 . S
C3682 C3684 1.320 . S
C3683 C3681 1.339 . S
C3683 C3682 1.395 . S
C3683 H3709 0.929 . S
C3684 C3682 1.320 . S
C3684 C3685 1.405 . S
C3684 H3710 0.930 . S
C3685 C3680 1.479 . S
C3685 C3684 1.405 . S
C3685 H3711 0.931 . S
U3686 O3687 2.454 . S
U3686 O3688 2.458 . S
U3686 C3689 2.984 . S
U3686 C3690 2.847 . S
U3686 C3703 2.882 . S
U3686 O3704 2.441 . S
U3686 O3705 2.420 . S
U3686 O3706 2.455 . S
U3686 O3707 2.449 . S
O3687 U3686 2.454 . S
O3687 C3689 1.353 . S
O3688 U3686 2.458 . S
O3688 C3689 1.286 . S
C3689 U3686 2.984 . S
C3689 O3687 1.353 . S
C3689 O3688 1.286 . S
C3689 C3691 1.363 . S
C3690 C3680 1.465 . S
C3690 U3686 2.847 . S
C3690 O3704 1.249 . S
C3690 O3705 1.202 . S
C3691 C3689 1.363 . S
C3691 C3693 1.408 . S
C3691 C3696 1.342 . S
C3692 C3693 1.310 . S
C3692 C3695 1.461 . S
C3692 H3712 0.932 . S
C3693 C3691 1.408 . S
C3693 C3692 1.310 . S
C3693 H3713 0.930 . S
C3694 C3695 1.474 . S
C3694 C3696 1.285 . S
C3694 H3714 0.929 . S
C3695 C3692 1.461 . S
C3695 C3694 1.474 . S
C3696 C3691 1.342 . S
C3696 C3694 1.285 . S
C3696 H3715 0.930 . S
C3697 C3700 1.424 . S
C3697 C3702 1.245 . S
C3697 C3703 1.428 . S
C3698 C3701 1.260 . S
C3698 C3702 1.477 . S
C3698 H3716 0.932 . S
C3699 C3700 1.384 . S
C3699 C3701 1.479 . S
C3699 H3717 0.929 . S
C3700 C3697 1.424 . S
C3700 C3699 1.384 . S
C3700 H3718 0.928 . S
C3701 C3698 1.260 . S
C3701 C3699 1.479 . S
C3702 C3697 1.245 . S
C3702 C3698 1.477 . S
C3702 H3719 0.932 . S
C3703 U3686 2.882 . S
C3703 C3697 1.428 . S
C3703 O3706 1.301 . S
C3703 O3707 1.282 . S
O3704 U3686 2.441 . S
O3704 C3690 1.249 . S
O3705 U3686 2.420 . S
O3705 C3690 1.202 . S
O3706 U3686 2.455 . S
O3706 C3703 1.301 . S
O3707 U3686 2.449 . S
O3707 C3703 1.282 . S
H3708 C3681 0.931 . S
H3709 C3683 0.929 . S
H3710 C3684 0.930 . S
H3711 C3685 0.931 . S
H3712 C3692 0.932 . S
H3713 C3693 0.930 . S
H3714 C3694 0.929 . S
H3715 C3696 0.930 . S
H3716 C3698 0.932 . S
H3717 C3699 0.929 . S
H3718 C3700 0.928 . S
H3719 C3702 0.932 . S
C3720 C3721 1.264 . S
C3720 C3725 1.479 . S
C3720 C3730 1.465 . S
C3721 C3720 1.264 . S
C3721 C3723 1.339 . S
C3721 H3748 0.931 . S
C3722 C3723 1.395 . S
C3722 C3724 1.320 . S
C3723 C3721 1.339 . S
C3723 C3722 1.395 . S
C3723 H3749 0.929 . S
C3724 C3722 1.320 . S
C3724 C3725 1.405 . S
C3724 H3750 0.930 . S
C3725 C3720 1.479 . S
C3725 C3724 1.405 . S
C3725 H3751 0.931 . S
U3726 O3727 2.454 . S
U3726 O3728 2.458 . S
U3726 C3729 2.984 . S
U3726 C3730 2.847 . S
U3726 C3743 2.882 . S
U3726 O3744 2.441 . S
U3726 O3745 2.420 . S
U3726 O3746 2.455 . S
U3726 O3747 2.449 . S
O3727 U3726 2.454 . S
O3727 C3729 1.353 . S
O3728 U3726 2.458 . S
O3728 C3729 1.286 . S
C3729 U3726 2.984 . S
C3729 O3727 1.353 . S
C3729 O3728 1.286 . S
C3729 C3731 1.363 . S
C3730 C3720 1.465 . S
C3730 U3726 2.847 . S
C3730 O3744 1.249 . S
C3730 O3745 1.202 . S
C3731 C3729 1.363 . S
C3731 C3733 1.408 . S
C3731 C3736 1.342 . S
C3732 C3733 1.310 . S
C3732 C3735 1.461 . S
C3732 H3752 0.932 . S
C3733 C3731 1.408 . S
C3733 C3732 1.310 . S
C3733 H3753 0.930 . S
C3734 C3735 1.474 . S
C3734 C3736 1.285 . S
C3734 H3754 0.929 . S
C3735 C3732 1.461 . S
C3735 C3734 1.474 . S
C3736 C3731 1.342 . S
C3736 C3734 1.285 . S
C3736 H3755 0.930 . S
C3737 C3740 1.424 . S
C3737 C3742 1.245 . S
C3737 C3743 1.428 . S
C3738 C3741 1.260 . S
C3738 C3742 1.477 . S
C3738 H3756 0.932 . S
C3739 C3740 1.384 . S
C3739 C3741 1.479 . S
C3739 H3757 0.929 . S
C3740 C3737 1.424 . S
C3740 C3739 1.384 . S
C3740 H3758 0.928 . S
C3741 C3738 1.260 . S
C3741 C3739 1.479 . S
C3742 C3737 1.245 . S
C3742 C3738 1.477 . S
C3742 H3759 0.932 . S
C3743 U3726 2.882 . S
C3743 C3737 1.428 . S
C3743 O3746 1.301 . S
C3743 O3747 1.282 . S
O3744 U3726 2.441 . S
O3744 C3730 1.249 . S
O3745 U3726 2.420 . S
O3745 C3730 1.202 . S
O3746 U3726 2.455 . S
O3746 C3743 1.301 . S
O3747 U3726 2.449 . S
O3747 C3743 1.282 . S
H3748 C3721 0.931 . S
H3749 C3723 0.929 . S
H3750 C3724 0.930 . S
H3751 C3725 0.931 . S
H3752 C3732 0.932 . S
H3753 C3733 0.930 . S
H3754 C3734 0.929 . S
H3755 C3736 0.930 . S
H3756 C3738 0.932 . S
H3757 C3739 0.929 . S
H3758 C3740 0.928 . S
H3759 C3742 0.932 . S
C3760 C3761 1.264 . S
C3760 C3765 1.479 . S
C3760 C3770 1.465 . S
C3761 C3760 1.264 . S
C3761 C3763 1.339 . S
C3761 H3788 0.931 . S
C3762 C3763 1.395 . S
C3762 C3764 1.320 . S
C3763 C3761 1.339 . S
C3763 C3762 1.395 . S
C3763 H3789 0.929 . S
C3764 C3762 1.320 . S
C3764 C3765 1.405 . S
C3764 H3790 0.930 . S
C3765 C3760 1.479 . S
C3765 C3764 1.405 . S
C3765 H3791 0.931 . S
U3766 O3767 2.454 . S
U3766 O3768 2.458 . S
U3766 C3769 2.984 . S
U3766 C3770 2.847 . S
U3766 C3783 2.882 . S
U3766 O3784 2.441 . S
U3766 O3785 2.420 . S
U3766 O3786 2.455 . S
U3766 O3787 2.449 . S
O3767 U3766 2.454 . S
O3767 C3769 1.353 . S
O3768 U3766 2.458 . S
O3768 C3769 1.286 . S
C3769 U3766 2.984 . S
C3769 O3767 1.353 . S
C3769 O3768 1.286 . S
C3769 C3771 1.363 . S
C3770 C3760 1.465 . S
C3770 U3766 2.847 . S
C3770 O3784 1.249 . S
C3770 O3785 1.202 . S
C3771 C3769 1.363 . S
C3771 C3773 1.408 . S
C3771 C3776 1.342 . S
C3772 C3773 1.310 . S
C3772 C3775 1.461 . S
C3772 H3792 0.932 . S
C3773 C3771 1.408 . S
C3773 C3772 1.310 . S
C3773 H3793 0.930 . S
C3774 C3775 1.474 . S
C3774 C3776 1.285 . S
C3774 H3794 0.929 . S
C3775 C3772 1.461 . S
C3775 C3774 1.474 . S
C3776 C3771 1.342 . S
C3776 C3774 1.285 . S
C3776 H3795 0.930 . S
C3777 C3780 1.424 . S
C3777 C3782 1.245 . S
C3777 C3783 1.428 . S
C3778 C3781 1.260 . S
C3778 C3782 1.477 . S
C3778 H3796 0.932 . S
C3779 C3780 1.384 . S
C3779 C3781 1.479 . S
C3779 H3797 0.929 . S
C3780 C3777 1.424 . S
C3780 C3779 1.384 . S
C3780 H3798 0.928 . S
C3781 C3778 1.260 . S
C3781 C3779 1.479 . S
C3782 C3777 1.245 . S
C3782 C3778 1.477 . S
C3782 H3799 0.932 . S
C3783 U3766 2.882 . S
C3783 C3777 1.428 . S
C3783 O3786 1.301 . S
C3783 O3787 1.282 . S
O3784 U3766 2.441 . S
O3784 C3770 1.249 . S
O3785 U3766 2.420 . S
O3785 C3770 1.202 . S
O3786 U3766 2.455 . S
O3786 C3783 1.301 . S
O3787 U3766 2.449 . S
O3787 C3783 1.282 . S
H3788 C3761 0.931 . S
H3789 C3763 0.929 . S
H3790 C3764 0.930 . S
H3791 C3765 0.931 . S
H3792 C3772 0.932 . S
H3793 C3773 0.930 . S
H3794 C3774 0.929 . S
H3795 C3776 0.930 . S
H3796 C3778 0.932 . S
H3797 C3779 0.929 . S
H3798 C3780 0.928 . S
H3799 C3782 0.932 . S
C3800 C3801 1.264 . S
C3800 C3805 1.479 . S
C3800 C3810 1.465 . S
C3801 C3800 1.264 . S
C3801 C3803 1.339 . S
C3801 H3828 0.931 . S
C3802 C3803 1.395 . S
C3802 C3804 1.320 . S
C3803 C3801 1.339 . S
C3803 C3802 1.395 . S
C3803 H3829 0.929 . S
C3804 C3802 1.320 . S
C3804 C3805 1.405 . S
C3804 H3830 0.930 . S
C3805 C3800 1.479 . S
C3805 C3804 1.405 . S
C3805 H3831 0.931 . S
U3806 O3807 2.454 . S
U3806 O3808 2.458 . S
U3806 C3809 2.984 . S
U3806 C3810 2.847 . S
U3806 C3823 2.882 . S
U3806 O3824 2.441 . S
U3806 O3825 2.420 . S
U3806 O3826 2.455 . S
U3806 O3827 2.449 . S
O3807 U3806 2.454 . S
O3807 C3809 1.353 . S
O3808 U3806 2.458 . S
O3808 C3809 1.286 . S
C3809 U3806 2.984 . S
C3809 O3807 1.353 . S
C3809 O3808 1.286 . S
C3809 C3811 1.363 . S
C3810 C3800 1.465 . S
C3810 U3806 2.847 . S
C3810 O3824 1.249 . S
C3810 O3825 1.202 . S
C3811 C3809 1.363 . S
C3811 C3813 1.408 . S
C3811 C3816 1.342 . S
C3812 C3813 1.310 . S
C3812 C3815 1.461 . S
C3812 H3832 0.932 . S
C3813 C3811 1.408 . S
C3813 C3812 1.310 . S
C3813 H3833 0.930 . S
C3814 C3815 1.474 . S
C3814 C3816 1.285 . S
C3814 H3834 0.929 . S
C3815 C3812 1.461 . S
C3815 C3814 1.474 . S
C3816 C3811 1.342 . S
C3816 C3814 1.285 . S
C3816 H3835 0.930 . S
C3817 C3820 1.424 . S
C3817 C3822 1.245 . S
C3817 C3823 1.428 . S
C3818 C3821 1.260 . S
C3818 C3822 1.477 . S
C3818 H3836 0.932 . S
C3819 C3820 1.384 . S
C3819 C3821 1.479 . S
C3819 H3837 0.929 . S
C3820 C3817 1.424 . S
C3820 C3819 1.384 . S
C3820 H3838 0.928 . S
C3821 C3818 1.260 . S
C3821 C3819 1.479 . S
C3822 C3817 1.245 . S
C3822 C3818 1.477 . S
C3822 H3839 0.932 . S
C3823 U3806 2.882 . S
C3823 C3817 1.428 . S
C3823 O3826 1.301 . S
C3823 O3827 1.282 . S
O3824 U3806 2.441 . S
O3824 C3810 1.249 . S
O3825 U3806 2.420 . S
O3825 C3810 1.202 . S
O3826 U3806 2.455 . S
O3826 C3823 1.301 . S
O3827 U3806 2.449 . S
O3827 C3823 1.282 . S
H3828 C3801 0.931 . S
H3829 C3803 0.929 . S
H3830 C3804 0.930 . S
H3831 C3805 0.931 . S
H3832 C3812 0.932 . S
H3833 C3813 0.930 . S
H3834 C3814 0.929 . S
H3835 C3816 0.930 . S
H3836 C3818 0.932 . S
H3837 C3819 0.929 . S
H3838 C3820 0.928 . S
H3839 C3822 0.932 . S
H3840 C3845 0.930 . S
H3841 C3848 0.930 . S
H3842 C3850 0.930 . S
H3843 C3844 1.016 . S
C3844 H3843 1.016 . S
C3844 N3851 1.286 . S
C3845 H3840 0.930 . S
C3845 C3846 1.397 . S
C3845 C3847 1.361 . S
C3846 C3845 1.397 . S
C3846 C3850 1.390 . S
C3847 C3845 1.361 . S
C3847 C3848 1.393 . S
C3847 N3851 1.413 . S
C3848 H3841 0.930 . S
C3848 C3847 1.393 . S
C3848 C3849 1.399 . S
C3849 C3848 1.399 . S
C3849 C3850 1.381 . S
C3850 H3842 0.930 . S
C3850 C3846 1.390 . S
C3850 C3849 1.381 . S
N3851 C3844 1.286 . S
N3851 C3847 1.413 . S
H3852 C3857 0.930 . S
H3853 C3860 0.930 . S
H3854 C3862 0.930 . S
H3855 C3856 1.016 . S
C3856 H3855 1.016 . S
C3856 N3863 1.286 . S
C3857 H3852 0.930 . S
C3857 C3858 1.397 . S
C3857 C3859 1.361 . S
C3858 C3857 1.397 . S
C3858 C3862 1.390 . S
C3859 C3857 1.361 . S
C3859 C3860 1.393 . S
C3859 N3863 1.413 . S
C3860 H3853 0.930 . S
C3860 C3859 1.393 . S
C3860 C3861 1.399 . S
C3861 C3860 1.399 . S
C3861 C3862 1.381 . S
C3862 H3854 0.930 . S
C3862 C3858 1.390 . S
C3862 C3861 1.381 . S
N3863 C3856 1.286 . S
N3863 C3859 1.413 . S
H3864 C3869 0.930 . S
H3865 C3872 0.930 . S
H3866 C3874 0.930 . S
H3867 C3868 1.016 . S
C3868 H3867 1.016 . S
C3868 N3875 1.286 . S
C3869 H3864 0.930 . S
C3869 C3870 1.397 . S
C3869 C3871 1.361 . S
C3870 C3869 1.397 . S
C3870 C3874 1.390 . S
C3871 C3869 1.361 . S
C3871 C3872 1.393 . S
C3871 N3875 1.413 . S
C3872 H3865 0.930 . S
C3872 C3871 1.393 . S
C3872 C3873 1.399 . S
C3873 C3872 1.399 . S
C3873 C3874 1.381 . S
C3874 H3866 0.930 . S
C3874 C3870 1.390 . S
C3874 C3873 1.381 . S
N3875 C3868 1.286 . S
N3875 C3871 1.413 . S
H3876 C3881 0.930 . S
H3877 C3884 0.930 . S
H3878 C3886 0.930 . S
H3879 C3880 1.016 . S
C3880 H3879 1.016 . S
C3880 N3887 1.286 . S
C3881 H3876 0.930 . S
C3881 C3882 1.397 . S
C3881 C3883 1.361 . S
C3882 C3881 1.397 . S
C3882 C3886 1.390 . S
C3883 C3881 1.361 . S
C3883 C3884 1.393 . S
C3883 N3887 1.413 . S
C3884 H3877 0.930 . S
C3884 C3883 1.393 . S
C3884 C3885 1.399 . S
C3885 C3884 1.399 . S
C3885 C3886 1.381 . S
C3886 H3878 0.930 . S
C3886 C3882 1.390 . S
C3886 C3885 1.381 . S
N3887 C3880 1.286 . S
N3887 C3883 1.413 . S
H3888 C3893 0.930 . S
H3889 C3896 0.930 . S
H3890 C3898 0.930 . S
H3891 C3892 1.016 . S
C3892 H3891 1.016 . S
C3892 N3899 1.286 . S
C3893 H3888 0.930 . S
C3893 C3894 1.397 . S
C3893 C3895 1.361 . S
C3894 C3893 1.397 . S
C3894 C3898 1.390 . S
C3895 C3893 1.361 . S
C3895 C3896 1.393 . S
C3895 N3899 1.413 . S
C3896 H3889 0.930 . S
C3896 C3895 1.393 . S
C3896 C3897 1.399 . S
C3897 C3896 1.399 . S
C3897 C3898 1.381 . S
C3898 H3890 0.930 . S
C3898 C3894 1.390 . S
C3898 C3897 1.381 . S
N3899 C3892 1.286 . S
N3899 C3895 1.413 . S
H3900 C3905 0.930 . S
H3901 C3908 0.930 . S
H3902 C3910 0.930 . S
H3903 C3904 1.016 . S
C3904 H3903 1.016 . S
C3904 N3911 1.286 . S
C3905 H3900 0.930 . S
C3905 C3906 1.397 . S
C3905 C3907 1.361 . S
C3906 C3905 1.397 . S
C3906 C3910 1.390 . S
C3907 C3905 1.361 . S
C3907 C3908 1.393 . S
C3907 N3911 1.413 . S
C3908 H3901 0.930 . S
C3908 C3907 1.393 . S
C3908 C3909 1.399 . S
C3909 C3908 1.399 . S
C3909 C3910 1.381 . S
C3910 H3902 0.930 . S
C3910 C3906 1.390 . S
C3910 C3909 1.381 . S
N3911 C3904 1.286 . S
N3911 C3907 1.413 . S
H3912 C3917 0.930 . S
H3913 C3920 0.930 . S
H3914 C3922 0.930 . S
H3915 C3916 1.016 . S
C3916 H3915 1.016 . S
C3916 N3923 1.286 . S
C3917 H3912 0.930 . S
C3917 C3918 1.397 . S
C3917 C3919 1.361 . S
C3918 C3917 1.397 . S
C3918 C3922 1.390 . S
C3919 C3917 1.361 . S
C3919 C3920 1.393 . S
C3919 N3923 1.413 . S
C3920 H3913 0.930 . S
C3920 C3919 1.393 . S
C3920 C3921 1.399 . S
C3921 C3920 1.399 . S
C3921 C3922 1.381 . S
C3922 H3914 0.930 . S
C3922 C3918 1.390 . S
C3922 C3921 1.381 . S
N3923 C3916 1.286 . S
N3923 C3919 1.413 . S
H3924 C3929 0.930 . S
H3925 C3932 0.930 . S
H3926 C3934 0.930 . S
H3927 C3928 1.016 . S
C3928 H3927 1.016 . S
C3928 N3935 1.286 . S
C3929 H3924 0.930 . S
C3929 C3930 1.397 . S
C3929 C3931 1.361 . S
C3930 C3929 1.397 . S
C3930 C3934 1.390 . S
C3931 C3929 1.361 . S
C3931 C3932 1.393 . S
C3931 N3935 1.413 . S
C3932 H3925 0.930 . S
C3932 C3931 1.393 . S
C3932 C3933 1.399 . S
C3933 C3932 1.399 . S
C3933 C3934 1.381 . S
C3934 H3926 0.930 . S
C3934 C3930 1.390 . S
C3934 C3933 1.381 . S
N3935 C3928 1.286 . S
N3935 C3931 1.413 . S
H3936 C3941 0.930 . S
H3937 C3944 0.930 . S
H3938 C3946 0.930 . S
H3939 C3940 1.016 . S
C3940 H3939 1.016 . S
C3940 N3947 1.286 . S
C3941 H3936 0.930 . S
C3941 C3942 1.397 . S
C3941 C3943 1.361 . S
C3942 C3941 1.397 . S
C3942 C3946 1.390 . S
C3943 C3941 1.361 . S
C3943 C3944 1.393 . S
C3943 N3947 1.413 . S
C3944 H3937 0.930 . S
C3944 C3943 1.393 . S
C3944 C3945 1.399 . S
C3945 C3944 1.399 . S
C3945 C3946 1.381 . S
C3946 H3938 0.930 . S
C3946 C3942 1.390 . S
C3946 C3945 1.381 . S
N3947 C3940 1.286 . S
N3947 C3943 1.413 . S
H3948 C3953 0.930 . S
H3949 C3956 0.930 . S
H3950 C3958 0.930 . S
H3951 C3952 1.016 . S
C3952 H3951 1.016 . S
C3952 N3959 1.286 . S
C3953 H3948 0.930 . S
C3953 C3954 1.397 . S
C3953 C3955 1.361 . S
C3954 C3953 1.397 . S
C3954 C3958 1.390 . S
C3955 C3953 1.361 . S
C3955 C3956 1.393 . S
C3955 N3959 1.413 . S
C3956 H3949 0.930 . S
C3956 C3955 1.393 . S
C3956 C3957 1.399 . S
C3957 C3956 1.399 . S
C3957 C3958 1.381 . S
C3958 H3950 0.930 . S
C3958 C3954 1.390 . S
C3958 C3957 1.381 . S
N3959 C3952 1.286 . S
N3959 C3955 1.413 . S
H3960 C3965 0.930 . S
H3961 C3968 0.930 . S
H3962 C3970 0.930 . S
H3963 C3964 1.016 . S
C3964 H3963 1.016 . S
C3964 N3971 1.286 . S
C3965 H3960 0.930 . S
C3965 C3966 1.397 . S
C3965 C3967 1.361 . S
C3966 C3965 1.397 . S
C3966 C3970 1.390 . S
C3967 C3965 1.361 . S
C3967 C3968 1.393 . S
C3967 N3971 1.413 . S
C3968 H3961 0.930 . S
C3968 C3967 1.393 . S
C3968 C3969 1.399 . S
C3969 C3968 1.399 . S
C3969 C3970 1.381 . S
C3970 H3962 0.930 . S
C3970 C3966 1.390 . S
C3970 C3969 1.381 . S
N3971 C3964 1.286 . S
N3971 C3967 1.413 . S
H3972 C3977 0.930 . S
H3973 C3980 0.930 . S
H3974 C3982 0.930 . S
H3975 C3976 1.016 . S
C3976 H3975 1.016 . S
C3976 N3983 1.286 . S
C3977 H3972 0.930 . S
C3977 C3978 1.397 . S
C3977 C3979 1.361 . S
C3978 C3977 1.397 . S
C3978 C3982 1.390 . S
C3979 C3977 1.361 . S
C3979 C3980 1.393 . S
C3979 N3983 1.413 . S
C3980 H3973 0.930 . S
C3980 C3979 1.393 . S
C3980 C3981 1.399 . S
C3981 C3980 1.399 . S
C3981 C3982 1.381 . S
C3982 H3974 0.930 . S
C3982 C3978 1.390 . S
C3982 C3981 1.381 . S
N3983 C3976 1.286 . S
N3983 C3979 1.413 . S
H3984 C3989 0.930 . S
H3985 C3992 0.930 . S
H3986 C3994 0.930 . S
H3987 C3988 1.016 . S
C3988 H3987 1.016 . S
C3988 N3995 1.286 . S
C3989 H3984 0.930 . S
C3989 C3990 1.397 . S
C3989 C3991 1.361 . S
C3990 C3989 1.397 . S
C3990 C3994 1.390 . S
C3991 C3989 1.361 . S
C3991 C3992 1.393 . S
C3991 N3995 1.413 . S
C3992 H3985 0.930 . S
C3992 C3991 1.393 . S
C3992 C3993 1.399 . S
C3993 C3992 1.399 . S
C3993 C3994 1.381 . S
C3994 H3986 0.930 . S
C3994 C3990 1.390 . S
C3994 C3993 1.381 . S
N3995 C3988 1.286 . S
N3995 C3991 1.413 . S
H3996 C4001 0.930 . S
H3997 C4004 0.930 . S
H3998 C4006 0.930 . S
H3999 C4000 1.016 . S
C4000 H3999 1.016 . S
C4000 N4007 1.286 . S
C4001 H3996 0.930 . S
C4001 C4002 1.397 . S
C4001 C4003 1.361 . S
C4002 C4001 1.397 . S
C4002 C4006 1.390 . S
C4003 C4001 1.361 . S
C4003 C4004 1.393 . S
C4003 N4007 1.413 . S
C4004 H3997 0.930 . S
C4004 C4003 1.393 . S
C4004 C4005 1.399 . S
C4005 C4004 1.399 . S
C4005 C4006 1.381 . S
C4006 H3998 0.930 . S
C4006 C4002 1.390 . S
C4006 C4005 1.381 . S
N4007 C4000 1.286 . S
N4007 C4003 1.413 . S
H4008 C4013 0.930 . S
H4009 C4016 0.930 . S
H4010 C4018 0.930 . S
H4011 C4012 1.016 . S
C4012 H4011 1.016 . S
C4012 N4019 1.286 . S
C4013 H4008 0.930 . S
C4013 C4014 1.397 . S
C4013 C4015 1.361 . S
C4014 C4013 1.397 . S
C4014 C4018 1.390 . S
C4015 C4013 1.361 . S
C4015 C4016 1.393 . S
C4015 N4019 1.413 . S
C4016 H4009 0.930 . S
C4016 C4015 1.393 . S
C4016 C4017 1.399 . S
C4017 C4016 1.399 . S
C4017 C4018 1.381 . S
C4018 H4010 0.930 . S
C4018 C4014 1.390 . S
C4018 C4017 1.381 . S
N4019 C4012 1.286 . S
N4019 C4015 1.413 . S
H4020 C4025 0.930 . S
H4021 C4028 0.930 . S
H4022 C4030 0.930 . S
H4023 C4024 1.016 . S
C4024 H4023 1.016 . S
C4024 N4031 1.286 . S
C4025 H4020 0.930 . S
C4025 C4026 1.397 . S
C4025 C4027 1.361 . S
C4026 C4025 1.397 . S
C4026 C4030 1.390 . S
C4027 C4025 1.361 . S
C4027 C4028 1.393 . S
C4027 N4031 1.413 . S
C4028 H4021 0.930 . S
C4028 C4027 1.393 . S
C4028 C4029 1.399 . S
C4029 C4028 1.399 . S
C4029 C4030 1.381 . S
C4030 H4022 0.930 . S
C4030 C4026 1.390 . S
C4030 C4029 1.381 . S
N4031 C4024 1.286 . S
N4031 C4027 1.413 . S
H4032 C4037 0.930 . S
H4033 C4040 0.930 . S
H4034 C4042 0.930 . S
H4035 C4036 1.016 . S
C4036 H4035 1.016 . S
C4036 N4043 1.286 . S
C4037 H4032 0.930 . S
C4037 C4038 1.397 . S
C4037 C4039 1.361 . S
C4038 C4037 1.397 . S
C4038 C4042 1.390 . S
C4039 C4037 1.361 . S
C4039 C4040 1.393 . S
C4039 N4043 1.413 . S
C4040 H4033 0.930 . S
C4040 C4039 1.393 . S
C4040 C4041 1.399 . S
C4041 C4040 1.399 . S
C4041 C4042 1.381 . S
C4042 H4034 0.930 . S
C4042 C4038 1.390 . S
C4042 C4041 1.381 . S
N4043 C4036 1.286 . S
N4043 C4039 1.413 . S
H4044 C4049 0.930 . S
H4045 C4052 0.930 . S
H4046 C4054 0.930 . S
H4047 C4048 1.016 . S
C4048 H4047 1.016 . S
C4048 N4055 1.286 . S
C4049 H4044 0.930 . S
C4049 C4050 1.397 . S
C4049 C4051 1.361 . S
C4050 C4049 1.397 . S
C4050 C4054 1.390 . S
C4051 C4049 1.361 . S
C4051 C4052 1.393 . S
C4051 N4055 1.413 . S
C4052 H4045 0.930 . S
C4052 C4051 1.393 . S
C4052 C4053 1.399 . S
C4053 C4052 1.399 . S
C4053 C4054 1.381 . S
C4054 H4046 0.930 . S
C4054 C4050 1.390 . S
C4054 C4053 1.381 . S
N4055 C4048 1.286 . S
N4055 C4051 1.413 . S
H4056 C4061 0.930 . S
H4057 C4064 0.930 . S
H4058 C4066 0.930 . S
H4059 C4060 1.016 . S
C4060 H4059 1.016 . S
C4060 N4067 1.286 . S
C4061 H4056 0.930 . S
C4061 C4062 1.397 . S
C4061 C4063 1.361 . S
C4062 C4061 1.397 . S
C4062 C4066 1.390 . S
C4063 C4061 1.361 . S
C4063 C4064 1.393 . S
C4063 N4067 1.413 . S
C4064 H4057 0.930 . S
C4064 C4063 1.393 . S
C4064 C4065 1.399 . S
C4065 C4064 1.399 . S
C4065 C4066 1.381 . S
C4066 H4058 0.930 . S
C4066 C4062 1.390 . S
C4066 C4065 1.381 . S
N4067 C4060 1.286 . S
N4067 C4063 1.413 . S
H4068 C4073 0.930 . S
H4069 C4076 0.930 . S
H4070 C4078 0.930 . S
H4071 C4072 1.016 . S
C4072 H4071 1.016 . S
C4072 N4079 1.286 . S
C4073 H4068 0.930 . S
C4073 C4074 1.397 . S
C4073 C4075 1.361 . S
C4074 C4073 1.397 . S
C4074 C4078 1.390 . S
C4075 C4073 1.361 . S
C4075 C4076 1.393 . S
C4075 N4079 1.413 . S
C4076 H4069 0.930 . S
C4076 C4075 1.393 . S
C4076 C4077 1.399 . S
C4077 C4076 1.399 . S
C4077 C4078 1.381 . S
C4078 H4070 0.930 . S
C4078 C4074 1.390 . S
C4078 C4077 1.381 . S
N4079 C4072 1.286 . S
N4079 C4075 1.413 . S
H4080 C4085 0.930 . S
H4081 C4088 0.930 . S
H4082 C4090 0.930 . S
H4083 C4084 1.016 . S
C4084 H4083 1.016 . S
C4084 N4091 1.286 . S
C4085 H4080 0.930 . S
C4085 C4086 1.397 . S
C4085 C4087 1.361 . S
C4086 C4085 1.397 . S
C4086 C4090 1.390 . S
C4087 C4085 1.361 . S
C4087 C4088 1.393 . S
C4087 N4091 1.413 . S
C4088 H4081 0.930 . S
C4088 C4087 1.393 . S
C4088 C4089 1.399 . S
C4089 C4088 1.399 . S
C4089 C4090 1.381 . S
C4090 H4082 0.930 . S
C4090 C4086 1.390 . S
C4090 C4089 1.381 . S
N4091 C4084 1.286 . S
N4091 C4087 1.413 . S
H4092 C4097 0.930 . S
H4093 C4100 0.930 . S
H4094 C4102 0.930 . S
H4095 C4096 1.016 . S
C4096 H4095 1.016 . S
C4096 N4103 1.286 . S
C4097 H4092 0.930 . S
C4097 C4098 1.397 . S
C4097 C4099 1.361 . S
C4098 C4097 1.397 . S
C4098 C4102 1.390 . S
C4099 C4097 1.361 . S
C4099 C4100 1.393 . S
C4099 N4103 1.413 . S
C4100 H4093 0.930 . S
C4100 C4099 1.393 . S
C4100 C4101 1.399 . S
C4101 C4100 1.399 . S
C4101 C4102 1.381 . S
C4102 H4094 0.930 . S
C4102 C4098 1.390 . S
C4102 C4101 1.381 . S
N4103 C4096 1.286 . S
N4103 C4099 1.413 . S
H4104 C4109 0.930 . S
H4105 C4112 0.930 . S
H4106 C4114 0.930 . S
H4107 C4108 1.016 . S
C4108 H4107 1.016 . S
C4108 N4115 1.286 . S
C4109 H4104 0.930 . S
C4109 C4110 1.397 . S
C4109 C4111 1.361 . S
C4110 C4109 1.397 . S
C4110 C4114 1.390 . S
C4111 C4109 1.361 . S
C4111 C4112 1.393 . S
C4111 N4115 1.413 . S
C4112 H4105 0.930 . S
C4112 C4111 1.393 . S
C4112 C4113 1.399 . S
C4113 C4112 1.399 . S
C4113 C4114 1.381 . S
C4114 H4106 0.930 . S
C4114 C4110 1.390 . S
C4114 C4113 1.381 . S
N4115 C4108 1.286 . S
N4115 C4111 1.413 . S
H4116 C4121 0.930 . S
H4117 C4124 0.930 . S
H4118 C4126 0.930 . S
H4119 C4120 1.016 . S
C4120 H4119 1.016 . S
C4120 N4127 1.286 . S
C4121 H4116 0.930 . S
C4121 C4122 1.397 . S
C4121 C4123 1.361 . S
C4122 C4121 1.397 . S
C4122 C4126 1.390 . S
C4123 C4121 1.361 . S
C4123 C4124 1.393 . S
C4123 N4127 1.413 . S
C4124 H4117 0.930 . S
C4124 C4123 1.393 . S
C4124 C4125 1.399 . S
C4125 C4124 1.399 . S
C4125 C4126 1.381 . S
C4126 H4118 0.930 . S
C4126 C4122 1.390 . S
C4126 C4125 1.381 . S
N4127 C4120 1.286 . S
N4127 C4123 1.413 . S
H4128 C4133 0.930 . S
H4129 C4136 0.930 . S
H4130 C4138 0.930 . S
H4131 C4132 1.016 . S
C4132 H4131 1.016 . S
C4132 N4139 1.286 . S
C4133 H4128 0.930 . S
C4133 C4134 1.397 . S
C4133 C4135 1.361 . S
C4134 C4133 1.397 . S
C4134 C4138 1.390 . S
C4135 C4133 1.361 . S
C4135 C4136 1.393 . S
C4135 N4139 1.413 . S
C4136 H4129 0.930 . S
C4136 C4135 1.393 . S
C4136 C4137 1.399 . S
C4137 C4136 1.399 . S
C4137 C4138 1.381 . S
C4138 H4130 0.930 . S
C4138 C4134 1.390 . S
C4138 C4137 1.381 . S
N4139 C4132 1.286 . S
N4139 C4135 1.413 . S
H4140 C4145 0.930 . S
H4141 C4148 0.930 . S
H4142 C4150 0.930 . S
H4143 C4144 1.016 . S
C4144 H4143 1.016 . S
C4144 N4151 1.286 . S
C4145 H4140 0.930 . S
C4145 C4146 1.397 . S
C4145 C4147 1.361 . S
C4146 C4145 1.397 . S
C4146 C4150 1.390 . S
C4147 C4145 1.361 . S
C4147 C4148 1.393 . S
C4147 N4151 1.413 . S
C4148 H4141 0.930 . S
C4148 C4147 1.393 . S
C4148 C4149 1.399 . S
C4149 C4148 1.399 . S
C4149 C4150 1.381 . S
C4150 H4142 0.930 . S
C4150 C4146 1.390 . S
C4150 C4149 1.381 . S
N4151 C4144 1.286 . S
N4151 C4147 1.413 . S
H4152 C4157 0.930 . S
H4153 C4160 0.930 . S
H4154 C4162 0.930 . S
H4155 C4156 1.016 . S
C4156 H4155 1.016 . S
C4156 N4163 1.286 . S
C4157 H4152 0.930 . S
C4157 C4158 1.397 . S
C4157 C4159 1.361 . S
C4158 C4157 1.397 . S
C4158 C4162 1.390 . S
C4159 C4157 1.361 . S
C4159 C4160 1.393 . S
C4159 N4163 1.413 . S
C4160 H4153 0.930 . S
C4160 C4159 1.393 . S
C4160 C4161 1.399 . S
C4161 C4160 1.399 . S
C4161 C4162 1.381 . S
C4162 H4154 0.930 . S
C4162 C4158 1.390 . S
C4162 C4161 1.381 . S
N4163 C4156 1.286 . S
N4163 C4159 1.413 . S
H4164 C4169 0.930 . S
H4165 C4172 0.930 . S
H4166 C4174 0.930 . S
H4167 C4168 1.016 . S
C4168 H4167 1.016 . S
C4168 N4175 1.286 . S
C4169 H4164 0.930 . S
C4169 C4170 1.397 . S
C4169 C4171 1.361 . S
C4170 C4169 1.397 . S
C4170 C4174 1.390 . S
C4171 C4169 1.361 . S
C4171 C4172 1.393 . S
C4171 N4175 1.413 . S
C4172 H4165 0.930 . S
C4172 C4171 1.393 . S
C4172 C4173 1.399 . S
C4173 C4172 1.399 . S
C4173 C4174 1.381 . S
C4174 H4166 0.930 . S
C4174 C4170 1.390 . S
C4174 C4173 1.381 . S
N4175 C4168 1.286 . S
N4175 C4171 1.413 . S
H4176 C4181 0.930 . S
H4177 C4184 0.930 . S
H4178 C4186 0.930 . S
H4179 C4180 1.016 . S
C4180 H4179 1.016 . S
C4180 N4187 1.286 . S
C4181 H4176 0.930 . S
C4181 C4182 1.397 . S
C4181 C4183 1.361 . S
C4182 C4181 1.397 . S
C4182 C4186 1.390 . S
C4183 C4181 1.361 . S
C4183 C4184 1.393 . S
C4183 N4187 1.413 . S
C4184 H4177 0.930 . S
C4184 C4183 1.393 . S
C4184 C4185 1.399 . S
C4185 C4184 1.399 . S
C4185 C4186 1.381 . S
C4186 H4178 0.930 . S
C4186 C4182 1.390 . S
C4186 C4185 1.381 . S
N4187 C4180 1.286 . S
N4187 C4183 1.413 . S
H4188 C4193 0.930 . S
H4189 C4196 0.930 . S
H4190 C4198 0.930 . S
H4191 C4192 1.016 . S
C4192 H4191 1.016 . S
C4192 N4199 1.286 . S
C4193 H4188 0.930 . S
C4193 C4194 1.397 . S
C4193 C4195 1.361 . S
C4194 C4193 1.397 . S
C4194 C4198 1.390 . S
C4195 C4193 1.361 . S
C4195 C4196 1.393 . S
C4195 N4199 1.413 . S
C4196 H4189 0.930 . S
C4196 C4195 1.393 . S
C4196 C4197 1.399 . S
C4197 C4196 1.399 . S
C4197 C4198 1.381 . S
C4198 H4190 0.930 . S
C4198 C4194 1.390 . S
C4198 C4197 1.381 . S
N4199 C4192 1.286 . S
N4199 C4195 1.413 . S
H4200 C4205 0.930 . S
H4201 C4208 0.930 . S
H4202 C4210 0.930 . S
H4203 C4204 1.016 . S
C4204 H4203 1.016 . S
C4204 N4211 1.286 . S
C4205 H4200 0.930 . S
C4205 C4206 1.397 . S
C4205 C4207 1.361 . S
C4206 C4205 1.397 . S
C4206 C4210 1.390 . S
C4207 C4205 1.361 . S
C4207 C4208 1.393 . S
C4207 N4211 1.413 . S
C4208 H4201 0.930 . S
C4208 C4207 1.393 . S
C4208 C4209 1.399 . S
C4209 C4208 1.399 . S
C4209 C4210 1.381 . S
C4210 H4202 0.930 . S
C4210 C4206 1.390 . S
C4210 C4209 1.381 . S
N4211 C4204 1.286 . S
N4211 C4207 1.413 . S
H4212 C4217 0.930 . S
H4213 C4220 0.930 . S
H4214 C4222 0.930 . S
H4215 C4216 1.016 . S
C4216 H4215 1.016 . S
C4216 N4223 1.286 . S
C4217 H4212 0.930 . S
C4217 C4218 1.397 . S
C4217 C4219 1.361 . S
C4218 C4217 1.397 . S
C4218 C4222 1.390 . S
C4219 C4217 1.361 . S
C4219 C4220 1.393 . S
C4219 N4223 1.413 . S
C4220 H4213 0.930 . S
C4220 C4219 1.393 . S
C4220 C4221 1.399 . S
C4221 C4220 1.399 . S
C4221 C4222 1.381 . S
C4222 H4214 0.930 . S
C4222 C4218 1.390 . S
C4222 C4221 1.381 . S
N4223 C4216 1.286 . S
N4223 C4219 1.413 . S
H4224 C4229 0.930 . S
H4225 C4232 0.930 . S
H4226 C4234 0.930 . S
H4227 C4228 1.016 . S
C4228 H4227 1.016 . S
C4228 N4235 1.286 . S
C4229 H4224 0.930 . S
C4229 C4230 1.397 . S
C4229 C4231 1.361 . S
C4230 C4229 1.397 . S
C4230 C4234 1.390 . S
C4231 C4229 1.361 . S
C4231 C4232 1.393 . S
C4231 N4235 1.413 . S
C4232 H4225 0.930 . S
C4232 C4231 1.393 . S
C4232 C4233 1.399 . S
C4233 C4232 1.399 . S
C4233 C4234 1.381 . S
C4234 H4226 0.930 . S
C4234 C4230 1.390 . S
C4234 C4233 1.381 . S
N4235 C4228 1.286 . S
N4235 C4231 1.413 . S
H4236 C4241 0.930 . S
H4237 C4244 0.930 . S
H4238 C4246 0.930 . S
H4239 C4240 1.016 . S
C4240 H4239 1.016 . S
C4240 N4247 1.286 . S
C4241 H4236 0.930 . S
C4241 C4242 1.397 . S
C4241 C4243 1.361 . S
C4242 C4241 1.397 . S
C4242 C4246 1.390 . S
C4243 C4241 1.361 . S
C4243 C4244 1.393 . S
C4243 N4247 1.413 . S
C4244 H4237 0.930 . S
C4244 C4243 1.393 . S
C4244 C4245 1.399 . S
C4245 C4244 1.399 . S
C4245 C4246 1.381 . S
C4246 H4238 0.930 . S
C4246 C4242 1.390 . S
C4246 C4245 1.381 . S
N4247 C4240 1.286 . S
N4247 C4243 1.413 . S
H4248 C4253 0.930 . S
H4249 C4256 0.930 . S
H4250 C4258 0.930 . S
H4251 C4252 1.016 . S
C4252 H4251 1.016 . S
C4252 N4259 1.286 . S
C4253 H4248 0.930 . S
C4253 C4254 1.397 . S
C4253 C4255 1.361 . S
C4254 C4253 1.397 . S
C4254 C4258 1.390 . S
C4255 C4253 1.361 . S
C4255 C4256 1.393 . S
C4255 N4259 1.413 . S
C4256 H4249 0.930 . S
C4256 C4255 1.393 . S
C4256 C4257 1.399 . S
C4257 C4256 1.399 . S
C4257 C4258 1.381 . S
C4258 H4250 0.930 . S
C4258 C4254 1.390 . S
C4258 C4257 1.381 . S
N4259 C4252 1.286 . S
N4259 C4255 1.413 . S
H4260 C4265 0.930 . S
H4261 C4268 0.930 . S
H4262 C4270 0.930 . S
H4263 C4264 1.016 . S
C4264 H4263 1.016 . S
C4264 N4271 1.286 . S
C4265 H4260 0.930 . S
C4265 C4266 1.397 . S
C4265 C4267 1.361 . S
C4266 C4265 1.397 . S
C4266 C4270 1.390 . S
C4267 C4265 1.361 . S
C4267 C4268 1.393 . S
C4267 N4271 1.413 . S
C4268 H4261 0.930 . S
C4268 C4267 1.393 . S
C4268 C4269 1.399 . S
C4269 C4268 1.399 . S
C4269 C4270 1.381 . S
C4270 H4262 0.930 . S
C4270 C4266 1.390 . S
C4270 C4269 1.381 . S
N4271 C4264 1.286 . S
N4271 C4267 1.413 . S
H4272 C4277 0.930 . S
H4273 C4280 0.930 . S
H4274 C4282 0.930 . S
H4275 C4276 1.016 . S
C4276 H4275 1.016 . S
C4276 N4283 1.286 . S
C4277 H4272 0.930 . S
C4277 C4278 1.397 . S
C4277 C4279 1.361 . S
C4278 C4277 1.397 . S
C4278 C4282 1.390 . S
C4279 C4277 1.361 . S
C4279 C4280 1.393 . S
C4279 N4283 1.413 . S
C4280 H4273 0.930 . S
C4280 C4279 1.393 . S
C4280 C4281 1.399 . S
C4281 C4280 1.399 . S
C4281 C4282 1.381 . S
C4282 H4274 0.930 . S
C4282 C4278 1.390 . S
C4282 C4281 1.381 . S
N4283 C4276 1.286 . S
N4283 C4279 1.413 . S
H4284 C4289 0.930 . S
H4285 C4292 0.930 . S
H4286 C4294 0.930 . S
H4287 C4288 1.016 . S
C4288 H4287 1.016 . S
C4288 N4295 1.286 . S
C4289 H4284 0.930 . S
C4289 C4290 1.397 . S
C4289 C4291 1.361 . S
C4290 C4289 1.397 . S
C4290 C4294 1.390 . S
C4291 C4289 1.361 . S
C4291 C4292 1.393 . S
C4291 N4295 1.413 . S
C4292 H4285 0.930 . S
C4292 C4291 1.393 . S
C4292 C4293 1.399 . S
C4293 C4292 1.399 . S
C4293 C4294 1.381 . S
C4294 H4286 0.930 . S
C4294 C4290 1.390 . S
C4294 C4293 1.381 . S
N4295 C4288 1.286 . S
N4295 C4291 1.413 . S
H4296 C4301 0.930 . S
H4297 C4304 0.930 . S
H4298 C4306 0.930 . S
H4299 C4300 1.016 . S
C4300 H4299 1.016 . S
C4300 N4307 1.286 . S
C4301 H4296 0.930 . S
C4301 C4302 1.397 . S
C4301 C4303 1.361 . S
C4302 C4301 1.397 . S
C4302 C4306 1.390 . S
C4303 C4301 1.361 . S
C4303 C4304 1.393 . S
C4303 N4307 1.413 . S
C4304 H4297 0.930 . S
C4304 C4303 1.393 . S
C4304 C4305 1.399 . S
C4305 C4304 1.399 . S
C4305 C4306 1.381 . S
C4306 H4298 0.930 . S
C4306 C4302 1.390 . S
C4306 C4305 1.381 . S
N4307 C4300 1.286 . S
N4307 C4303 1.413 . S
H4308 C4313 0.930 . S
H4309 C4316 0.930 . S
H4310 C4318 0.930 . S
H4311 C4312 1.016 . S
C4312 H4311 1.016 . S
C4312 N4319 1.286 . S
C4313 H4308 0.930 . S
C4313 C4314 1.397 . S
C4313 C4315 1.361 . S
C4314 C4313 1.397 . S
C4314 C4318 1.390 . S
C4315 C4313 1.361 . S
C4315 C4316 1.393 . S
C4315 N4319 1.413 . S
C4316 H4309 0.930 . S
C4316 C4315 1.393 . S
C4316 C4317 1.399 . S
C4317 C4316 1.399 . S
C4317 C4318 1.381 . S
C4318 H4310 0.930 . S
C4318 C4314 1.390 . S
C4318 C4317 1.381 . S
N4319 C4312 1.286 . S
N4319 C4315 1.413 . S
H4320 C4325 0.930 . S
H4321 C4328 0.930 . S
H4322 C4330 0.930 . S
H4323 C4324 1.016 . S
C4324 H4323 1.016 . S
C4324 N4331 1.286 . S
C4325 H4320 0.930 . S
C4325 C4326 1.397 . S
C4325 C4327 1.361 . S
C4326 C4325 1.397 . S
C4326 C4330 1.390 . S
C4327 C4325 1.361 . S
C4327 C4328 1.393 . S
C4327 N4331 1.413 . S
C4328 H4321 0.930 . S
C4328 C4327 1.393 . S
C4328 C4329 1.399 . S
C4329 C4328 1.399 . S
C4329 C4330 1.381 . S
C4330 H4322 0.930 . S
C4330 C4326 1.390 . S
C4330 C4329 1.381 . S
N4331 C4324 1.286 . S
N4331 C4327 1.413 . S
H4332 C4337 0.930 . S
H4333 C4340 0.930 . S
H4334 C4342 0.930 . S
H4335 C4336 1.016 . S
C4336 H4335 1.016 . S
C4336 N4343 1.286 . S
C4337 H4332 0.930 . S
C4337 C4338 1.397 . S
C4337 C4339 1.361 . S
C4338 C4337 1.397 . S
C4338 C4342 1.390 . S
C4339 C4337 1.361 . S
C4339 C4340 1.393 . S
C4339 N4343 1.413 . S
C4340 H4333 0.930 . S
C4340 C4339 1.393 . S
C4340 C4341 1.399 . S
C4341 C4340 1.399 . S
C4341 C4342 1.381 . S
C4342 H4334 0.930 . S
C4342 C4338 1.390 . S
C4342 C4341 1.381 . S
N4343 C4336 1.286 . S
N4343 C4339 1.413 . S
H4344 C4349 0.930 . S
H4345 C4352 0.930 . S
H4346 C4354 0.930 . S
H4347 C4348 1.016 . S
C4348 H4347 1.016 . S
C4348 N4355 1.286 . S
C4349 H4344 0.930 . S
C4349 C4350 1.397 . S
C4349 C4351 1.361 . S
C4350 C4349 1.397 . S
C4350 C4354 1.390 . S
C4351 C4349 1.361 . S
C4351 C4352 1.393 . S
C4351 N4355 1.413 . S
C4352 H4345 0.930 . S
C4352 C4351 1.393 . S
C4352 C4353 1.399 . S
C4353 C4352 1.399 . S
C4353 C4354 1.381 . S
C4354 H4346 0.930 . S
C4354 C4350 1.390 . S
C4354 C4353 1.381 . S
N4355 C4348 1.286 . S
N4355 C4351 1.413 . S
H4356 C4361 0.930 . S
H4357 C4364 0.930 . S
H4358 C4366 0.930 . S
H4359 C4360 1.016 . S
C4360 H4359 1.016 . S
C4360 N4367 1.286 . S
C4361 H4356 0.930 . S
C4361 C4362 1.397 . S
C4361 C4363 1.361 . S
C4362 C4361 1.397 . S
C4362 C4366 1.390 . S
C4363 C4361 1.361 . S
C4363 C4364 1.393 . S
C4363 N4367 1.413 . S
C4364 H4357 0.930 . S
C4364 C4363 1.393 . S
C4364 C4365 1.399 . S
C4365 C4364 1.399 . S
C4365 C4366 1.381 . S
C4366 H4358 0.930 . S
C4366 C4362 1.390 . S
C4366 C4365 1.381 . S
N4367 C4360 1.286 . S
N4367 C4363 1.413 . S
H4368 C4373 0.930 . S
H4369 C4376 0.930 . S
H4370 C4378 0.930 . S
H4371 C4372 1.016 . S
C4372 H4371 1.016 . S
C4372 N4379 1.286 . S
C4373 H4368 0.930 . S
C4373 C4374 1.397 . S
C4373 C4375 1.361 . S
C4374 C4373 1.397 . S
C4374 C4378 1.390 . S
C4375 C4373 1.361 . S
C4375 C4376 1.393 . S
C4375 N4379 1.413 . S
C4376 H4369 0.930 . S
C4376 C4375 1.393 . S
C4376 C4377 1.399 . S
C4377 C4376 1.399 . S
C4377 C4378 1.381 . S
C4378 H4370 0.930 . S
C4378 C4374 1.390 . S
C4378 C4377 1.381 . S
N4379 C4372 1.286 . S
N4379 C4375 1.413 . S
H4380 C4385 0.930 . S
H4381 C4388 0.930 . S
H4382 C4390 0.930 . S
H4383 C4384 1.016 . S
C4384 H4383 1.016 . S
C4384 N4391 1.286 . S
C4385 H4380 0.930 . S
C4385 C4386 1.397 . S
C4385 C4387 1.361 . S
C4386 C4385 1.397 . S
C4386 C4390 1.390 . S
C4387 C4385 1.361 . S
C4387 C4388 1.393 . S
C4387 N4391 1.413 . S
C4388 H4381 0.930 . S
C4388 C4387 1.393 . S
C4388 C4389 1.399 . S
C4389 C4388 1.399 . S
C4389 C4390 1.381 . S
C4390 H4382 0.930 . S
C4390 C4386 1.390 . S
C4390 C4389 1.381 . S
N4391 C4384 1.286 . S
N4391 C4387 1.413 . S
H4392 C4397 0.930 . S
H4393 C4400 0.930 . S
H4394 C4402 0.930 . S
H4395 C4396 1.016 . S
C4396 H4395 1.016 . S
C4396 N4403 1.286 . S
C4397 H4392 0.930 . S
C4397 C4398 1.397 . S
C4397 C4399 1.361 . S
C4398 C4397 1.397 . S
C4398 C4402 1.390 . S
C4399 C4397 1.361 . S
C4399 C4400 1.393 . S
C4399 N4403 1.413 . S
C4400 H4393 0.930 . S
C4400 C4399 1.393 . S
C4400 C4401 1.399 . S
C4401 C4400 1.399 . S
C4401 C4402 1.381 . S
C4402 H4394 0.930 . S
C4402 C4398 1.390 . S
C4402 C4401 1.381 . S
N4403 C4396 1.286 . S
N4403 C4399 1.413 . S
H4404 C4409 0.930 . S
H4405 C4412 0.930 . S
H4406 C4414 0.930 . S
H4407 C4408 1.016 . S
C4408 H4407 1.016 . S
C4408 N4415 1.286 . S
C4409 H4404 0.930 . S
C4409 C4410 1.397 . S
C4409 C4411 1.361 . S
C4410 C4409 1.397 . S
C4410 C4414 1.390 . S
C4411 C4409 1.361 . S
C4411 C4412 1.393 . S
C4411 N4415 1.413 . S
C4412 H4405 0.930 . S
C4412 C4411 1.393 . S
C4412 C4413 1.399 . S
C4413 C4412 1.399 . S
C4413 C4414 1.381 . S
C4414 H4406 0.930 . S
C4414 C4410 1.390 . S
C4414 C4413 1.381 . S
N4415 C4408 1.286 . S
N4415 C4411 1.413 . S
H4416 C4421 0.930 . S
H4417 C4424 0.930 . S
H4418 C4426 0.930 . S
H4419 C4420 1.016 . S
C4420 H4419 1.016 . S
C4420 N4427 1.286 . S
C4421 H4416 0.930 . S
C4421 C4422 1.397 . S
C4421 C4423 1.361 . S
C4422 C4421 1.397 . S
C4422 C4426 1.390 . S
C4423 C4421 1.361 . S
C4423 C4424 1.393 . S
C4423 N4427 1.413 . S
C4424 H4417 0.930 . S
C4424 C4423 1.393 . S
C4424 C4425 1.399 . S
C4425 C4424 1.399 . S
C4425 C4426 1.381 . S
C4426 H4418 0.930 . S
C4426 C4422 1.390 . S
C4426 C4425 1.381 . S
N4427 C4420 1.286 . S
N4427 C4423 1.413 . S
H4428 C4433 0.930 . S
H4429 C4436 0.930 . S
H4430 C4438 0.930 . S
H4431 C4432 1.016 . S
C4432 H4431 1.016 . S
C4432 N4439 1.286 . S
C4433 H4428 0.930 . S
C4433 C4434 1.397 . S
C4433 C4435 1.361 . S
C4434 C4433 1.397 . S
C4434 C4438 1.390 . S
C4435 C4433 1.361 . S
C4435 C4436 1.393 . S
C4435 N4439 1.413 . S
C4436 H4429 0.930 . S
C4436 C4435 1.393 . S
C4436 C4437 1.399 . S
C4437 C4436 1.399 . S
C4437 C4438 1.381 . S
C4438 H4430 0.930 . S
C4438 C4434 1.390 . S
C4438 C4437 1.381 . S
N4439 C4432 1.286 . S
N4439 C4435 1.413 . S
H4440 C4445 0.930 . S
H4441 C4448 0.930 . S
H4442 C4450 0.930 . S
H4443 C4444 1.016 . S
C4444 H4443 1.016 . S
C4444 N4451 1.286 . S
C4445 H4440 0.930 . S
C4445 C4446 1.397 . S
C4445 C4447 1.361 . S
C4446 C4445 1.397 . S
C4446 C4450 1.390 . S
C4447 C4445 1.361 . S
C4447 C4448 1.393 . S
C4447 N4451 1.413 . S
C4448 H4441 0.930 . S
C4448 C4447 1.393 . S
C4448 C4449 1.399 . S
C4449 C4448 1.399 . S
C4449 C4450 1.381 . S
C4450 H4442 0.930 . S
C4450 C4446 1.390 . S
C4450 C4449 1.381 . S
N4451 C4444 1.286 . S
N4451 C4447 1.413 . S
H4452 C4457 0.930 . S
H4453 C4460 0.930 . S
H4454 C4462 0.930 . S
H4455 C4456 1.016 . S
C4456 H4455 1.016 . S
C4456 N4463 1.286 . S
C4457 H4452 0.930 . S
C4457 C4458 1.397 . S
C4457 C4459 1.361 . S
C4458 C4457 1.397 . S
C4458 C4462 1.390 . S
C4459 C4457 1.361 . S
C4459 C4460 1.393 . S
C4459 N4463 1.413 . S
C4460 H4453 0.930 . S
C4460 C4459 1.393 . S
C4460 C4461 1.399 . S
C4461 C4460 1.399 . S
C4461 C4462 1.381 . S
C4462 H4454 0.930 . S
C4462 C4458 1.390 . S
C4462 C4461 1.381 . S
N4463 C4456 1.286 . S
N4463 C4459 1.413 . S
H4464 C4469 0.930 . S
H4465 C4472 0.930 . S
H4466 C4474 0.930 . S
H4467 C4468 1.016 . S
C4468 H4467 1.016 . S
C4468 N4475 1.286 . S
C4469 H4464 0.930 . S
C4469 C4470 1.397 . S
C4469 C4471 1.361 . S
C4470 C4469 1.397 . S
C4470 C4474 1.390 . S
C4471 C4469 1.361 . S
C4471 C4472 1.393 . S
C4471 N4475 1.413 . S
C4472 H4465 0.930 . S
C4472 C4471 1.393 . S
C4472 C4473 1.399 . S
C4473 C4472 1.399 . S
C4473 C4474 1.381 . S
C4474 H4466 0.930 . S
C4474 C4470 1.390 . S
C4474 C4473 1.381 . S
N4475 C4468 1.286 . S
N4475 C4471 1.413 . S
H4476 C4481 0.930 . S
H4477 C4484 0.930 . S
H4478 C4486 0.930 . S
H4479 C4480 1.016 . S
C4480 H4479 1.016 . S
C4480 N4487 1.286 . S
C4481 H4476 0.930 . S
C4481 C4482 1.397 . S
C4481 C4483 1.361 . S
C4482 C4481 1.397 . S
C4482 C4486 1.390 . S
C4483 C4481 1.361 . S
C4483 C4484 1.393 . S
C4483 N4487 1.413 . S
C4484 H4477 0.930 . S
C4484 C4483 1.393 . S
C4484 C4485 1.399 . S
C4485 C4484 1.399 . S
C4485 C4486 1.381 . S
C4486 H4478 0.930 . S
C4486 C4482 1.390 . S
C4486 C4485 1.381 . S
N4487 C4480 1.286 . S
N4487 C4483 1.413 . S
H4488 C4493 0.930 . S
H4489 C4496 0.930 . S
H4490 C4498 0.930 . S
H4491 C4492 1.016 . S
C4492 H4491 1.016 . S
C4492 N4499 1.286 . S
C4493 H4488 0.930 . S
C4493 C4494 1.397 . S
C4493 C4495 1.361 . S
C4494 C4493 1.397 . S
C4494 C4498 1.390 . S
C4495 C4493 1.361 . S
C4495 C4496 1.393 . S
C4495 N4499 1.413 . S
C4496 H4489 0.930 . S
C4496 C4495 1.393 . S
C4496 C4497 1.399 . S
C4497 C4496 1.399 . S
C4497 C4498 1.381 . S
C4498 H4490 0.930 . S
C4498 C4494 1.390 . S
C4498 C4497 1.381 . S
N4499 C4492 1.286 . S
N4499 C4495 1.413 . S
H4500 C4505 0.930 . S
H4501 C4508 0.930 . S
H4502 C4510 0.930 . S
H4503 C4504 1.016 . S
C4504 H4503 1.016 . S
C4504 N4511 1.286 . S
C4505 H4500 0.930 . S
C4505 C4506 1.397 . S
C4505 C4507 1.361 . S
C4506 C4505 1.397 . S
C4506 C4510 1.390 . S
C4507 C4505 1.361 . S
C4507 C4508 1.393 . S
C4507 N4511 1.413 . S
C4508 H4501 0.930 . S
C4508 C4507 1.393 . S
C4508 C4509 1.399 . S
C4509 C4508 1.399 . S
C4509 C4510 1.381 . S
C4510 H4502 0.930 . S
C4510 C4506 1.390 . S
C4510 C4509 1.381 . S
N4511 C4504 1.286 . S
N4511 C4507 1.413 . S
H4512 C4517 0.930 . S
H4513 C4520 0.930 . S
H4514 C4522 0.930 . S
H4515 C4516 1.016 . S
C4516 H4515 1.016 . S
C4516 N4523 1.286 . S
C4517 H4512 0.930 . S
C4517 C4518 1.397 . S
C4517 C4519 1.361 . S
C4518 C4517 1.397 . S
C4518 C4522 1.390 . S
C4519 C4517 1.361 . S
C4519 C4520 1.393 . S
C4519 N4523 1.413 . S
C4520 H4513 0.930 . S
C4520 C4519 1.393 . S
C4520 C4521 1.399 . S
C4521 C4520 1.399 . S
C4521 C4522 1.381 . S
C4522 H4514 0.930 . S
C4522 C4518 1.390 . S
C4522 C4521 1.381 . S
N4523 C4516 1.286 . S
N4523 C4519 1.413 . S
H4524 C4529 0.930 . S
H4525 C4532 0.930 . S
H4526 C4534 0.930 . S
H4527 C4528 1.016 . S
C4528 H4527 1.016 . S
C4528 N4535 1.286 . S
C4529 H4524 0.930 . S
C4529 C4530 1.397 . S
C4529 C4531 1.361 . S
C4530 C4529 1.397 . S
C4530 C4534 1.390 . S
C4531 C4529 1.361 . S
C4531 C4532 1.393 . S
C4531 N4535 1.413 . S
C4532 H4525 0.930 . S
C4532 C4531 1.393 . S
C4532 C4533 1.399 . S
C4533 C4532 1.399 . S
C4533 C4534 1.381 . S
C4534 H4526 0.930 . S
C4534 C4530 1.390 . S
C4534 C4533 1.381 . S
N4535 C4528 1.286 . S
N4535 C4531 1.413 . S
H4536 C4541 0.930 . S
H4537 C4544 0.930 . S
H4538 C4546 0.930 . S
H4539 C4540 1.016 . S
C4540 H4539 1.016 . S
C4540 N4547 1.286 . S
C4541 H4536 0.930 . S
C4541 C4542 1.397 . S
C4541 C4543 1.361 . S
C4542 C4541 1.397 . S
C4542 C4546 1.390 . S
C4543 C4541 1.361 . S
C4543 C4544 1.393 . S
C4543 N4547 1.413 . S
C4544 H4537 0.930 . S
C4544 C4543 1.393 . S
C4544 C4545 1.399 . S
C4545 C4544 1.399 . S
C4545 C4546 1.381 . S
C4546 H4538 0.930 . S
C4546 C4542 1.390 . S
C4546 C4545 1.381 . S
N4547 C4540 1.286 . S
N4547 C4543 1.413 . S
H4548 C4553 0.930 . S
H4549 C4556 0.930 . S
H4550 C4558 0.930 . S
H4551 C4552 1.016 . S
C4552 H4551 1.016 . S
C4552 N4559 1.286 . S
C4553 H4548 0.930 . S
C4553 C4554 1.397 . S
C4553 C4555 1.361 . S
C4554 C4553 1.397 . S
C4554 C4558 1.390 . S
C4555 C4553 1.361 . S
C4555 C4556 1.393 . S
C4555 N4559 1.413 . S
C4556 H4549 0.930 . S
C4556 C4555 1.393 . S
C4556 C4557 1.399 . S
C4557 C4556 1.399 . S
C4557 C4558 1.381 . S
C4558 H4550 0.930 . S
C4558 C4554 1.390 . S
C4558 C4557 1.381 . S
N4559 C4552 1.286 . S
N4559 C4555 1.413 . S
H4560 C4565 0.930 . S
H4561 C4568 0.930 . S
H4562 C4570 0.930 . S
H4563 C4564 1.016 . S
C4564 H4563 1.016 . S
C4564 N4571 1.286 . S
C4565 H4560 0.930 . S
C4565 C4566 1.397 . S
C4565 C4567 1.361 . S
C4566 C4565 1.397 . S
C4566 C4570 1.390 . S
C4567 C4565 1.361 . S
C4567 C4568 1.393 . S
C4567 N4571 1.413 . S
C4568 H4561 0.930 . S
C4568 C4567 1.393 . S
C4568 C4569 1.399 . S
C4569 C4568 1.399 . S
C4569 C4570 1.381 . S
C4570 H4562 0.930 . S
C4570 C4566 1.390 . S
C4570 C4569 1.381 . S
N4571 C4564 1.286 . S
N4571 C4567 1.413 . S
H4572 C4577 0.930 . S
H4573 C4580 0.930 . S
H4574 C4582 0.930 . S
H4575 C4576 1.016 . S
C4576 H4575 1.016 . S
C4576 N4583 1.286 . S
C4577 H4572 0.930 . S
C4577 C4578 1.397 . S
C4577 C4579 1.361 . S
C4578 C4577 1.397 . S
C4578 C4582 1.390 . S
C4579 C4577 1.361 . S
C4579 C4580 1.393 . S
C4579 N4583 1.413 . S
C4580 H4573 0.930 . S
C4580 C4579 1.393 . S
C4580 C4581 1.399 . S
C4581 C4580 1.399 . S
C4581 C4582 1.381 . S
C4582 H4574 0.930 . S
C4582 C4578 1.390 . S
C4582 C4581 1.381 . S
N4583 C4576 1.286 . S
N4583 C4579 1.413 . S
H4584 C4589 0.930 . S
H4585 C4592 0.930 . S
H4586 C4594 0.930 . S
H4587 C4588 1.016 . S
C4588 H4587 1.016 . S
C4588 N4595 1.286 . S
C4589 H4584 0.930 . S
C4589 C4590 1.397 . S
C4589 C4591 1.361 . S
C4590 C4589 1.397 . S
C4590 C4594 1.390 . S
C4591 C4589 1.361 . S
C4591 C4592 1.393 . S
C4591 N4595 1.413 . S
C4592 H4585 0.930 . S
C4592 C4591 1.393 . S
C4592 C4593 1.399 . S
C4593 C4592 1.399 . S
C4593 C4594 1.381 . S
C4594 H4586 0.930 . S
C4594 C4590 1.390 . S
C4594 C4593 1.381 . S
N4595 C4588 1.286 . S
N4595 C4591 1.413 . S
H4596 C4601 0.930 . S
H4597 C4604 0.930 . S
H4598 C4606 0.930 . S
H4599 C4600 1.016 . S
C4600 H4599 1.016 . S
C4600 N4607 1.286 . S
C4601 H4596 0.930 . S
C4601 C4602 1.397 . S
C4601 C4603 1.361 . S
C4602 C4601 1.397 . S
C4602 C4606 1.390 . S
C4603 C4601 1.361 . S
C4603 C4604 1.393 . S
C4603 N4607 1.413 . S
C4604 H4597 0.930 . S
C4604 C4603 1.393 . S
C4604 C4605 1.399 . S
C4605 C4604 1.399 . S
C4605 C4606 1.381 . S
C4606 H4598 0.930 . S
C4606 C4602 1.390 . S
C4606 C4605 1.381 . S
N4607 C4600 1.286 . S
N4607 C4603 1.413 . S
H4608 C4613 0.930 . S
H4609 C4616 0.930 . S
H4610 C4618 0.930 . S
H4611 C4612 1.016 . S
C4612 H4611 1.016 . S
C4612 N4619 1.286 . S
C4613 H4608 0.930 . S
C4613 C4614 1.397 . S
C4613 C4615 1.361 . S
C4614 C4613 1.397 . S
C4614 C4618 1.390 . S
C4615 C4613 1.361 . S
C4615 C4616 1.393 . S
C4615 N4619 1.413 . S
C4616 H4609 0.930 . S
C4616 C4615 1.393 . S
C4616 C4617 1.399 . S
C4617 C4616 1.399 . S
C4617 C4618 1.381 . S
C4618 H4610 0.930 . S
C4618 C4614 1.390 . S
C4618 C4617 1.381 . S
N4619 C4612 1.286 . S
N4619 C4615 1.413 . S
H4620 C4625 0.930 . S
H4621 C4628 0.930 . S
H4622 C4630 0.930 . S
H4623 C4624 1.016 . S
C4624 H4623 1.016 . S
C4624 N4631 1.286 . S
C4625 H4620 0.930 . S
C4625 C4626 1.397 . S
C4625 C4627 1.361 . S
C4626 C4625 1.397 . S
C4626 C4630 1.390 . S
C4627 C4625 1.361 . S
C4627 C4628 1.393 . S
C4627 N4631 1.413 . S
C4628 H4621 0.930 . S
C4628 C4627 1.393 . S
C4628 C4629 1.399 . S
C4629 C4628 1.399 . S
C4629 C4630 1.381 . S
C4630 H4622 0.930 . S
C4630 C4626 1.390 . S
C4630 C4629 1.381 . S
N4631 C4624 1.286 . S
N4631 C4627 1.413 . S
H4632 C4637 0.930 . S
H4633 C4640 0.930 . S
H4634 C4642 0.930 . S
H4635 C4636 1.016 . S
C4636 H4635 1.016 . S
C4636 N4643 1.286 . S
C4637 H4632 0.930 . S
C4637 C4638 1.397 . S
C4637 C4639 1.361 . S
C4638 C4637 1.397 . S
C4638 C4642 1.390 . S
C4639 C4637 1.361 . S
C4639 C4640 1.393 . S
C4639 N4643 1.413 . S
C4640 H4633 0.930 . S
C4640 C4639 1.393 . S
C4640 C4641 1.399 . S
C4641 C4640 1.399 . S
C4641 C4642 1.381 . S
C4642 H4634 0.930 . S
C4642 C4638 1.390 . S
C4642 C4641 1.381 . S
N4643 C4636 1.286 . S
N4643 C4639 1.413 . S
H4644 C4649 0.930 . S
H4645 C4652 0.930 . S
H4646 C4654 0.930 . S
H4647 C4648 1.016 . S
C4648 H4647 1.016 . S
C4648 N4655 1.286 . S
C4649 H4644 0.930 . S
C4649 C4650 1.397 . S
C4649 C4651 1.361 . S
C4650 C4649 1.397 . S
C4650 C4654 1.390 . S
C4651 C4649 1.361 . S
C4651 C4652 1.393 . S
C4651 N4655 1.413 . S
C4652 H4645 0.930 . S
C4652 C4651 1.393 . S
C4652 C4653 1.399 . S
C4653 C4652 1.399 . S
C4653 C4654 1.381 . S
C4654 H4646 0.930 . S
C4654 C4650 1.390 . S
C4654 C4653 1.381 . S
N4655 C4648 1.286 . S
N4655 C4651 1.413 . S
H4656 C4661 0.930 . S
H4657 C4664 0.930 . S
H4658 C4666 0.930 . S
H4659 C4660 1.016 . S
C4660 H4659 1.016 . S
C4660 N4667 1.286 . S
C4661 H4656 0.930 . S
C4661 C4662 1.397 . S
C4661 C4663 1.361 . S
C4662 C4661 1.397 . S
C4662 C4666 1.390 . S
C4663 C4661 1.361 . S
C4663 C4664 1.393 . S
C4663 N4667 1.413 . S
C4664 H4657 0.930 . S
C4664 C4663 1.393 . S
C4664 C4665 1.399 . S
C4665 C4664 1.399 . S
C4665 C4666 1.381 . S
C4666 H4658 0.930 . S
C4666 C4662 1.390 . S
C4666 C4665 1.381 . S
N4667 C4660 1.286 . S
N4667 C4663 1.413 . S
H4668 C4673 0.930 . S
H4669 C4676 0.930 . S
H4670 C4678 0.930 . S
H4671 C4672 1.016 . S
C4672 H4671 1.016 . S
C4672 N4679 1.286 . S
C4673 H4668 0.930 . S
C4673 C4674 1.397 . S
C4673 C4675 1.361 . S
C4674 C4673 1.397 . S
C4674 C4678 1.390 . S
C4675 C4673 1.361 . S
C4675 C4676 1.393 . S
C4675 N4679 1.413 . S
C4676 H4669 0.930 . S
C4676 C4675 1.393 . S
C4676 C4677 1.399 . S
C4677 C4676 1.399 . S
C4677 C4678 1.381 . S
C4678 H4670 0.930 . S
C4678 C4674 1.390 . S
C4678 C4677 1.381 . S
N4679 C4672 1.286 . S
N4679 C4675 1.413 . S
H4680 C4685 0.930 . S
H4681 C4688 0.930 . S
H4682 C4690 0.930 . S
H4683 C4684 1.016 . S
C4684 H4683 1.016 . S
C4684 N4691 1.286 . S
C4685 H4680 0.930 . S
C4685 C4686 1.397 . S
C4685 C4687 1.361 . S
C4686 C4685 1.397 . S
C4686 C4690 1.390 . S
C4687 C4685 1.361 . S
C4687 C4688 1.393 . S
C4687 N4691 1.413 . S
C4688 H4681 0.930 . S
C4688 C4687 1.393 . S
C4688 C4689 1.399 . S
C4689 C4688 1.399 . S
C4689 C4690 1.381 . S
C4690 H4682 0.930 . S
C4690 C4686 1.390 . S
C4690 C4689 1.381 . S
N4691 C4684 1.286 . S
N4691 C4687 1.413 . S
H4692 C4697 0.930 . S
H4693 C4700 0.930 . S
H4694 C4702 0.930 . S
H4695 C4696 1.016 . S
C4696 H4695 1.016 . S
C4696 N4703 1.286 . S
C4697 H4692 0.930 . S
C4697 C4698 1.397 . S
C4697 C4699 1.361 . S
C4698 C4697 1.397 . S
C4698 C4702 1.390 . S
C4699 C4697 1.361 . S
C4699 C4700 1.393 . S
C4699 N4703 1.413 . S
C4700 H4693 0.930 . S
C4700 C4699 1.393 . S
C4700 C4701 1.399 . S
C4701 C4700 1.399 . S
C4701 C4702 1.381 . S
C4702 H4694 0.930 . S
C4702 C4698 1.390 . S
C4702 C4701 1.381 . S
N4703 C4696 1.286 . S
N4703 C4699 1.413 . S
H4704 C4709 0.930 . S
H4705 C4712 0.930 . S
H4706 C4714 0.930 . S
H4707 C4708 1.016 . S
C4708 H4707 1.016 . S
C4708 N4715 1.286 . S
C4709 H4704 0.930 . S
C4709 C4710 1.397 . S
C4709 C4711 1.361 . S
C4710 C4709 1.397 . S
C4710 C4714 1.390 . S
C4711 C4709 1.361 . S
C4711 C4712 1.393 . S
C4711 N4715 1.413 . S
C4712 H4705 0.930 . S
C4712 C4711 1.393 . S
C4712 C4713 1.399 . S
C4713 C4712 1.399 . S
C4713 C4714 1.381 . S
C4714 H4706 0.930 . S
C4714 C4710 1.390 . S
C4714 C4713 1.381 . S
N4715 C4708 1.286 . S
N4715 C4711 1.413 . S
H4716 C4721 0.930 . S
H4717 C4724 0.930 . S
H4718 C4726 0.930 . S
H4719 C4720 1.016 . S
C4720 H4719 1.016 . S
C4720 N4727 1.286 . S
C4721 H4716 0.930 . S
C4721 C4722 1.397 . S
C4721 C4723 1.361 . S
C4722 C4721 1.397 . S
C4722 C4726 1.390 . S
C4723 C4721 1.361 . S
C4723 C4724 1.393 . S
C4723 N4727 1.413 . S
C4724 H4717 0.930 . S
C4724 C4723 1.393 . S
C4724 C4725 1.399 . S
C4725 C4724 1.399 . S
C4725 C4726 1.381 . S
C4726 H4718 0.930 . S
C4726 C4722 1.390 . S
C4726 C4725 1.381 . S
N4727 C4720 1.286 . S
N4727 C4723 1.413 . S
H4728 C4733 0.930 . S
H4729 C4736 0.930 . S
H4730 C4738 0.930 . S
H4731 C4732 1.016 . S
C4732 H4731 1.016 . S
C4732 N4739 1.286 . S
C4733 H4728 0.930 . S
C4733 C4734 1.397 . S
C4733 C4735 1.361 . S
C4734 C4733 1.397 . S
C4734 C4738 1.390 . S
C4735 C4733 1.361 . S
C4735 C4736 1.393 . S
C4735 N4739 1.413 . S
C4736 H4729 0.930 . S
C4736 C4735 1.393 . S
C4736 C4737 1.399 . S
C4737 C4736 1.399 . S
C4737 C4738 1.381 . S
C4738 H4730 0.930 . S
C4738 C4734 1.390 . S
C4738 C4737 1.381 . S
N4739 C4732 1.286 . S
N4739 C4735 1.413 . S
H4740 C4745 0.930 . S
H4741 C4748 0.930 . S
H4742 C4750 0.930 . S
H4743 C4744 1.016 . S
C4744 H4743 1.016 . S
C4744 N4751 1.286 . S
C4745 H4740 0.930 . S
C4745 C4746 1.397 . S
C4745 C4747 1.361 . S
C4746 C4745 1.397 . S
C4746 C4750 1.390 . S
C4747 C4745 1.361 . S
C4747 C4748 1.393 . S
C4747 N4751 1.413 . S
C4748 H4741 0.930 . S
C4748 C4747 1.393 . S
C4748 C4749 1.399 . S
C4749 C4748 1.399 . S
C4749 C4750 1.381 . S
C4750 H4742 0.930 . S
C4750 C4746 1.390 . S
C4750 C4749 1.381 . S
N4751 C4744 1.286 . S
N4751 C4747 1.413 . S
H4752 C4757 0.930 . S
H4753 C4760 0.930 . S
H4754 C4762 0.930 . S
H4755 C4756 1.016 . S
C4756 H4755 1.016 . S
C4756 N4763 1.286 . S
C4757 H4752 0.930 . S
C4757 C4758 1.397 . S
C4757 C4759 1.361 . S
C4758 C4757 1.397 . S
C4758 C4762 1.390 . S
C4759 C4757 1.361 . S
C4759 C4760 1.393 . S
C4759 N4763 1.413 . S
C4760 H4753 0.930 . S
C4760 C4759 1.393 . S
C4760 C4761 1.399 . S
C4761 C4760 1.399 . S
C4761 C4762 1.381 . S
C4762 H4754 0.930 . S
C4762 C4758 1.390 . S
C4762 C4761 1.381 . S
N4763 C4756 1.286 . S
N4763 C4759 1.413 . S
H4764 C4769 0.930 . S
H4765 C4772 0.930 . S
H4766 C4774 0.930 . S
H4767 C4768 1.016 . S
C4768 H4767 1.016 . S
C4768 N4775 1.286 . S
C4769 H4764 0.930 . S
C4769 C4770 1.397 . S
C4769 C4771 1.361 . S
C4770 C4769 1.397 . S
C4770 C4774 1.390 . S
C4771 C4769 1.361 . S
C4771 C4772 1.393 . S
C4771 N4775 1.413 . S
C4772 H4765 0.930 . S
C4772 C4771 1.393 . S
C4772 C4773 1.399 . S
C4773 C4772 1.399 . S
C4773 C4774 1.381 . S
C4774 H4766 0.930 . S
C4774 C4770 1.390 . S
C4774 C4773 1.381 . S
N4775 C4768 1.286 . S
N4775 C4771 1.413 . S
H4776 C4781 0.930 . S
H4777 C4784 0.930 . S
H4778 C4786 0.930 . S
H4779 C4780 1.016 . S
C4780 H4779 1.016 . S
C4780 N4787 1.286 . S
C4781 H4776 0.930 . S
C4781 C4782 1.397 . S
C4781 C4783 1.361 . S
C4782 C4781 1.397 . S
C4782 C4786 1.390 . S
C4783 C4781 1.361 . S
C4783 C4784 1.393 . S
C4783 N4787 1.413 . S
C4784 H4777 0.930 . S
C4784 C4783 1.393 . S
C4784 C4785 1.399 . S
C4785 C4784 1.399 . S
C4785 C4786 1.381 . S
C4786 H4778 0.930 . S
C4786 C4782 1.390 . S
C4786 C4785 1.381 . S
N4787 C4780 1.286 . S
N4787 C4783 1.413 . S
H4788 C4793 0.930 . S
H4789 C4796 0.930 . S
H4790 C4798 0.930 . S
H4791 C4792 1.016 . S
C4792 H4791 1.016 . S
C4792 N4799 1.286 . S
C4793 H4788 0.930 . S
C4793 C4794 1.397 . S
C4793 C4795 1.361 . S
C4794 C4793 1.397 . S
C4794 C4798 1.390 . S
C4795 C4793 1.361 . S
C4795 C4796 1.393 . S
C4795 N4799 1.413 . S
C4796 H4789 0.930 . S
C4796 C4795 1.393 . S
C4796 C4797 1.399 . S
C4797 C4796 1.399 . S
C4797 C4798 1.381 . S
C4798 H4790 0.930 . S
C4798 C4794 1.390 . S
C4798 C4797 1.381 . S
N4799 C4792 1.286 . S
N4799 C4795 1.413 . S
H4800 C4805 0.930 . S
H4801 C4808 0.930 . S
H4802 C4810 0.930 . S
H4803 C4804 1.016 . S
C4804 H4803 1.016 . S
C4804 N4811 1.286 . S
C4805 H4800 0.930 . S
C4805 C4806 1.397 . S
C4805 C4807 1.361 . S
C4806 C4805 1.397 . S
C4806 C4810 1.390 . S
C4807 C4805 1.361 . S
C4807 C4808 1.393 . S
C4807 N4811 1.413 . S
C4808 H4801 0.930 . S
C4808 C4807 1.393 . S
C4808 C4809 1.399 . S
C4809 C4808 1.399 . S
C4809 C4810 1.381 . S
C4810 H4802 0.930 . S
C4810 C4806 1.390 . S
C4810 C4809 1.381 . S
N4811 C4804 1.286 . S
N4811 C4807 1.413 . S
H4812 C4817 0.930 . S
H4813 C4820 0.930 . S
H4814 C4822 0.930 . S
H4815 C4816 1.016 . S
C4816 H4815 1.016 . S
C4816 N4823 1.286 . S
C4817 H4812 0.930 . S
C4817 C4818 1.397 . S
C4817 C4819 1.361 . S
C4818 C4817 1.397 . S
C4818 C4822 1.390 . S
C4819 C4817 1.361 . S
C4819 C4820 1.393 . S
C4819 N4823 1.413 . S
C4820 H4813 0.930 . S
C4820 C4819 1.393 . S
C4820 C4821 1.399 . S
C4821 C4820 1.399 . S
C4821 C4822 1.381 . S
C4822 H4814 0.930 . S
C4822 C4818 1.390 . S
C4822 C4821 1.381 . S
N4823 C4816 1.286 . S
N4823 C4819 1.413 . S
H4824 C4829 0.930 . S
H4825 C4832 0.930 . S
H4826 C4834 0.930 . S
H4827 C4828 1.016 . S
C4828 H4827 1.016 . S
C4828 N4835 1.286 . S
C4829 H4824 0.930 . S
C4829 C4830 1.397 . S
C4829 C4831 1.361 . S
C4830 C4829 1.397 . S
C4830 C4834 1.390 . S
C4831 C4829 1.361 . S
C4831 C4832 1.393 . S
C4831 N4835 1.413 . S
C4832 H4825 0.930 . S
C4832 C4831 1.393 . S
C4832 C4833 1.399 . S
C4833 C4832 1.399 . S
C4833 C4834 1.381 . S
C4834 H4826 0.930 . S
C4834 C4830 1.390 . S
C4834 C4833 1.381 . S
N4835 C4828 1.286 . S
N4835 C4831 1.413 . S
H4836 C4841 0.930 . S
H4837 C4844 0.930 . S
H4838 C4846 0.930 . S
H4839 C4840 1.016 . S
C4840 H4839 1.016 . S
C4840 N4847 1.286 . S
C4841 H4836 0.930 . S
C4841 C4842 1.397 . S
C4841 C4843 1.361 . S
C4842 C4841 1.397 . S
C4842 C4846 1.390 . S
C4843 C4841 1.361 . S
C4843 C4844 1.393 . S
C4843 N4847 1.413 . S
C4844 H4837 0.930 . S
C4844 C4843 1.393 . S
C4844 C4845 1.399 . S
C4845 C4844 1.399 . S
C4845 C4846 1.381 . S
C4846 H4838 0.930 . S
C4846 C4842 1.390 . S
C4846 C4845 1.381 . S
N4847 C4840 1.286 . S
N4847 C4843 1.413 . S
H4848 C4853 0.930 . S
H4849 C4856 0.930 . S
H4850 C4858 0.930 . S
H4851 C4852 1.016 . S
C4852 H4851 1.016 . S
C4852 N4859 1.286 . S
C4853 H4848 0.930 . S
C4853 C4854 1.397 . S
C4853 C4855 1.361 . S
C4854 C4853 1.397 . S
C4854 C4858 1.390 . S
C4855 C4853 1.361 . S
C4855 C4856 1.393 . S
C4855 N4859 1.413 . S
C4856 H4849 0.930 . S
C4856 C4855 1.393 . S
C4856 C4857 1.399 . S
C4857 C4856 1.399 . S
C4857 C4858 1.381 . S
C4858 H4850 0.930 . S
C4858 C4854 1.390 . S
C4858 C4857 1.381 . S
N4859 C4852 1.286 . S
N4859 C4855 1.413 . S
H4860 C4865 0.930 . S
H4861 C4868 0.930 . S
H4862 C4870 0.930 . S
H4863 C4864 1.016 . S
C4864 H4863 1.016 . S
C4864 N4871 1.286 . S
C4865 H4860 0.930 . S
C4865 C4866 1.397 . S
C4865 C4867 1.361 . S
C4866 C4865 1.397 . S
C4866 C4870 1.390 . S
C4867 C4865 1.361 . S
C4867 C4868 1.393 . S
C4867 N4871 1.413 . S
C4868 H4861 0.930 . S
C4868 C4867 1.393 . S
C4868 C4869 1.399 . S
C4869 C4868 1.399 . S
C4869 C4870 1.381 . S
C4870 H4862 0.930 . S
C4870 C4866 1.390 . S
C4870 C4869 1.381 . S
N4871 C4864 1.286 . S
N4871 C4867 1.413 . S
H4872 C4877 0.930 . S
H4873 C4880 0.930 . S
H4874 C4882 0.930 . S
H4875 C4876 1.016 . S
C4876 H4875 1.016 . S
C4876 N4883 1.286 . S
C4877 H4872 0.930 . S
C4877 C4878 1.397 . S
C4877 C4879 1.361 . S
C4878 C4877 1.397 . S
C4878 C4882 1.390 . S
C4879 C4877 1.361 . S
C4879 C4880 1.393 . S
C4879 N4883 1.413 . S
C4880 H4873 0.930 . S
C4880 C4879 1.393 . S
C4880 C4881 1.399 . S
C4881 C4880 1.399 . S
C4881 C4882 1.381 . S
C4882 H4874 0.930 . S
C4882 C4878 1.390 . S
C4882 C4881 1.381 . S
N4883 C4876 1.286 . S
N4883 C4879 1.413 . S
H4884 C4889 0.930 . S
H4885 C4892 0.930 . S
H4886 C4894 0.930 . S
H4887 C4888 1.016 . S
C4888 H4887 1.016 . S
C4888 N4895 1.286 . S
C4889 H4884 0.930 . S
C4889 C4890 1.397 . S
C4889 C4891 1.361 . S
C4890 C4889 1.397 . S
C4890 C4894 1.390 . S
C4891 C4889 1.361 . S
C4891 C4892 1.393 . S
C4891 N4895 1.413 . S
C4892 H4885 0.930 . S
C4892 C4891 1.393 . S
C4892 C4893 1.399 . S
C4893 C4892 1.399 . S
C4893 C4894 1.381 . S
C4894 H4886 0.930 . S
C4894 C4890 1.390 . S
C4894 C4893 1.381 . S
N4895 C4888 1.286 . S
N4895 C4891 1.413 . S
H4896 C4901 0.930 . S
H4897 C4904 0.930 . S
H4898 C4906 0.930 . S
H4899 C4900 1.016 . S
C4900 H4899 1.016 . S
C4900 N4907 1.286 . S
C4901 H4896 0.930 . S
C4901 C4902 1.397 . S
C4901 C4903 1.361 . S
C4902 C4901 1.397 . S
C4902 C4906 1.390 . S
C4903 C4901 1.361 . S
C4903 C4904 1.393 . S
C4903 N4907 1.413 . S
C4904 H4897 0.930 . S
C4904 C4903 1.393 . S
C4904 C4905 1.399 . S
C4905 C4904 1.399 . S
C4905 C4906 1.381 . S
C4906 H4898 0.930 . S
C4906 C4902 1.390 . S
C4906 C4905 1.381 . S
N4907 C4900 1.286 . S
N4907 C4903 1.413 . S
H4908 C4913 0.930 . S
H4909 C4916 0.930 . S
H4910 C4918 0.930 . S
H4911 C4912 1.016 . S
C4912 H4911 1.016 . S
C4912 N4919 1.286 . S
C4913 H4908 0.930 . S
C4913 C4914 1.397 . S
C4913 C4915 1.361 . S
C4914 C4913 1.397 . S
C4914 C4918 1.390 . S
C4915 C4913 1.361 . S
C4915 C4916 1.393 . S
C4915 N4919 1.413 . S
C4916 H4909 0.930 . S
C4916 C4915 1.393 . S
C4916 C4917 1.399 . S
C4917 C4916 1.399 . S
C4917 C4918 1.381 . S
C4918 H4910 0.930 . S
C4918 C4914 1.390 . S
C4918 C4917 1.381 . S
N4919 C4912 1.286 . S
N4919 C4915 1.413 . S
H4920 C4925 0.930 . S
H4921 C4928 0.930 . S
H4922 C4930 0.930 . S
H4923 C4924 1.016 . S
C4924 H4923 1.016 . S
C4924 N4931 1.286 . S
C4925 H4920 0.930 . S
C4925 C4926 1.397 . S
C4925 C4927 1.361 . S
C4926 C4925 1.397 . S
C4926 C4930 1.390 . S
C4927 C4925 1.361 . S
C4927 C4928 1.393 . S
C4927 N4931 1.413 . S
C4928 H4921 0.930 . S
C4928 C4927 1.393 . S
C4928 C4929 1.399 . S
C4929 C4928 1.399 . S
C4929 C4930 1.381 . S
C4930 H4922 0.930 . S
C4930 C4926 1.390 . S
C4930 C4929 1.381 . S
N4931 C4924 1.286 . S
N4931 C4927 1.413 . S
H4932 C4937 0.930 . S
H4933 C4940 0.930 . S
H4934 C4942 0.930 . S
H4935 C4936 1.016 . S
C4936 H4935 1.016 . S
C4936 N4943 1.286 . S
C4937 H4932 0.930 . S
C4937 C4938 1.397 . S
C4937 C4939 1.361 . S
C4938 C4937 1.397 . S
C4938 C4942 1.390 . S
C4939 C4937 1.361 . S
C4939 C4940 1.393 . S
C4939 N4943 1.413 . S
C4940 H4933 0.930 . S
C4940 C4939 1.393 . S
C4940 C4941 1.399 . S
C4941 C4940 1.399 . S
C4941 C4942 1.381 . S
C4942 H4934 0.930 . S
C4942 C4938 1.390 . S
C4942 C4941 1.381 . S
N4943 C4936 1.286 . S
N4943 C4939 1.413 . S
H4944 C4949 0.930 . S
H4945 C4952 0.930 . S
H4946 C4954 0.930 . S
H4947 C4948 1.016 . S
C4948 H4947 1.016 . S
C4948 N4955 1.286 . S
C4949 H4944 0.930 . S
C4949 C4950 1.397 . S
C4949 C4951 1.361 . S
C4950 C4949 1.397 . S
C4950 C4954 1.390 . S
C4951 C4949 1.361 . S
C4951 C4952 1.393 . S
C4951 N4955 1.413 . S
C4952 H4945 0.930 . S
C4952 C4951 1.393 . S
C4952 C4953 1.399 . S
C4953 C4952 1.399 . S
C4953 C4954 1.381 . S
C4954 H4946 0.930 . S
C4954 C4950 1.390 . S
C4954 C4953 1.381 . S
N4955 C4948 1.286 . S
N4955 C4951 1.413 . S
H4956 C4961 0.930 . S
H4957 C4964 0.930 . S
H4958 C4966 0.930 . S
H4959 C4960 1.016 . S
C4960 H4959 1.016 . S
C4960 N4967 1.286 . S
C4961 H4956 0.930 . S
C4961 C4962 1.397 . S
C4961 C4963 1.361 . S
C4962 C4961 1.397 . S
C4962 C4966 1.390 . S
C4963 C4961 1.361 . S
C4963 C4964 1.393 . S
C4963 N4967 1.413 . S
C4964 H4957 0.930 . S
C4964 C4963 1.393 . S
C4964 C4965 1.399 . S
C4965 C4964 1.399 . S
C4965 C4966 1.381 . S
C4966 H4958 0.930 . S
C4966 C4962 1.390 . S
C4966 C4965 1.381 . S
N4967 C4960 1.286 . S
N4967 C4963 1.413 . S
H4968 C4973 0.930 . S
H4969 C4976 0.930 . S
H4970 C4978 0.930 . S
H4971 C4972 1.016 . S
C4972 H4971 1.016 . S
C4972 N4979 1.286 . S
C4973 H4968 0.930 . S
C4973 C4974 1.397 . S
C4973 C4975 1.361 . S
C4974 C4973 1.397 . S
C4974 C4978 1.390 . S
C4975 C4973 1.361 . S
C4975 C4976 1.393 . S
C4975 N4979 1.413 . S
C4976 H4969 0.930 . S
C4976 C4975 1.393 . S
C4976 C4977 1.399 . S
C4977 C4976 1.399 . S
C4977 C4978 1.381 . S
C4978 H4970 0.930 . S
C4978 C4974 1.390 . S
C4978 C4977 1.381 . S
N4979 C4972 1.286 . S
N4979 C4975 1.413 . S
H4980 C4985 0.930 . S
H4981 C4988 0.930 . S
H4982 C4990 0.930 . S
H4983 C4984 1.016 . S
C4984 H4983 1.016 . S
C4984 N4991 1.286 . S
C4985 H4980 0.930 . S
C4985 C4986 1.397 . S
C4985 C4987 1.361 . S
C4986 C4985 1.397 . S
C4986 C4990 1.390 . S
C4987 C4985 1.361 . S
C4987 C4988 1.393 . S
C4987 N4991 1.413 . S
C4988 H4981 0.930 . S
C4988 C4987 1.393 . S
C4988 C4989 1.399 . S
C4989 C4988 1.399 . S
C4989 C4990 1.381 . S
C4990 H4982 0.930 . S
C4990 C4986 1.390 . S
C4990 C4989 1.381 . S
N4991 C4984 1.286 . S
N4991 C4987 1.413 . S
H4992 C4998 0.930 . S
H4993 C5002 0.930 . S
H4994 C5007 0.929 . S
H4995 C5005 0.929 . S
H4996 C5000 0.929 . S
H4997 C5006 0.929 . S
C4998 H4992 0.930 . S
C4998 C4999 1.367 . S
C4998 C5006 1.378 . S
C4999 C4998 1.367 . S
C4999 C5007 1.433 . S
C5000 H4996 0.929 . S
C5000 C5002 1.378 . S
C5000 C5004 1.283 1_655 S
C5001 C5004 1.570 . S
C5001 C5006 1.350 . S
C5001 N5009 1.427 . S
C5002 H4993 0.930 . S
C5002 C5000 1.378 . S
C5002 C5003 1.367 . S
C5003 C5002 1.367 . S
C5003 C5005 1.433 . S
C5004 C5000 1.283 1_455 S
C5004 C5001 1.570 . S
C5004 N5008 1.402 1_455 S
C5005 H4995 0.929 . S
C5005 C5003 1.433 . S
C5005 N5008 1.384 . S
C5006 H4997 0.929 . S
C5006 C4998 1.378 . S
C5006 C5001 1.350 . S
C5007 H4994 0.929 . S
C5007 C4999 1.433 . S
C5007 N5009 1.384 . S
N5008 C5004 1.402 1_655 S
N5008 C5005 1.384 . S
N5009 C5001 1.427 . S
N5009 C5007 1.384 . S
H5010 C5016 0.930 . S
H5011 C5020 0.930 . S
H5012 C5025 0.929 . S
H5013 C5023 0.929 . S
H5014 C5018 0.929 . S
H5015 C5024 0.929 . S
C5016 H5010 0.930 . S
C5016 C5017 1.367 . S
C5016 C5024 1.378 . S
C5017 C5016 1.367 . S
C5017 C5025 1.433 . S
C5018 H5014 0.929 . S
C5018 C5020 1.378 . S
C5018 C5022 1.350 . S
C5019 C5022 1.463 . S
C5019 C5024 1.350 . S
C5019 N5027 1.427 . S
C5020 H5011 0.930 . S
C5020 C5018 1.378 . S
C5020 C5021 1.367 . S
C5021 C5020 1.367 . S
C5021 C5023 1.433 . S
C5022 C5018 1.350 . S
C5022 C5019 1.463 . S
C5022 N5026 1.427 . S
C5023 H5013 0.929 . S
C5023 C5021 1.433 . S
C5023 N5026 1.384 . S
C5024 H5015 0.929 . S
C5024 C5016 1.378 . S
C5024 C5019 1.350 . S
C5025 H5012 0.929 . S
C5025 C5017 1.433 . S
C5025 N5027 1.384 . S
N5026 C5022 1.427 . S
N5026 C5023 1.384 . S
N5027 C5019 1.427 . S
N5027 C5025 1.384 . S
H5028 C5034 0.930 . S
H5029 C5038 0.930 . S
H5030 C5043 0.929 . S
H5031 C5041 0.929 . S
H5032 C5036 0.929 . S
H5033 C5042 0.929 . S
C5034 H5028 0.930 . S
C5034 C5035 1.367 . S
C5034 C5042 1.378 . S
C5035 C5034 1.367 . S
C5035 C5043 1.433 . S
C5036 H5032 0.929 . S
C5036 C5038 1.378 . S
C5036 C5040 1.350 . S
C5037 C5040 1.463 . S
C5037 C5042 1.350 . S
C5037 N5045 1.427 . S
C5038 H5029 0.930 . S
C5038 C5036 1.378 . S
C5038 C5039 1.367 . S
C5039 C5038 1.367 . S
C5039 C5041 1.433 . S
C5040 C5036 1.350 . S
C5040 C5037 1.463 . S
C5040 N5044 1.427 . S
C5041 H5031 0.929 . S
C5041 C5039 1.433 . S
C5041 N5044 1.384 . S
C5042 H5033 0.929 . S
C5042 C5034 1.378 . S
C5042 C5037 1.350 . S
C5043 H5030 0.929 . S
C5043 C5035 1.433 . S
C5043 N5045 1.384 . S
N5044 C5040 1.427 . S
N5044 C5041 1.384 . S
N5045 C5037 1.427 . S
N5045 C5043 1.384 . S
H5046 C5052 0.930 . S
H5047 C5056 0.930 . S
H5048 C5061 0.929 . S
H5049 C5059 0.929 . S
H5050 C5054 0.929 . S
H5051 C5060 0.929 . S
C5052 H5046 0.930 . S
C5052 C5053 1.367 . S
C5052 C5060 1.378 . S
C5053 C5052 1.367 . S
C5053 C5061 1.433 . S
C5054 H5050 0.929 . S
C5054 C5056 1.378 . S
C5054 C5058 1.350 . S
C5055 C5058 1.463 . S
C5055 C5060 1.350 . S
C5055 N5063 1.427 . S
C5056 H5047 0.930 . S
C5056 C5054 1.378 . S
C5056 C5057 1.367 . S
C5057 C5056 1.367 . S
C5057 C5059 1.433 . S
C5058 C5054 1.350 . S
C5058 C5055 1.463 . S
C5058 N5062 1.427 . S
C5059 H5049 0.929 . S
C5059 C5057 1.433 . S
C5059 N5062 1.384 . S
C5060 H5051 0.929 . S
C5060 C5052 1.378 . S
C5060 C5055 1.350 . S
C5061 H5048 0.929 . S
C5061 C5053 1.433 . S
C5061 N5063 1.384 . S
N5062 C5058 1.427 . S
N5062 C5059 1.384 . S
N5063 C5055 1.427 . S
N5063 C5061 1.384 . S
H5064 C5070 0.930 . S
H5065 C5074 0.930 . S
H5066 C5079 0.929 . S
H5067 C5077 0.929 . S
H5068 C5072 0.929 . S
H5069 C5078 0.929 . S
C5070 H5064 0.930 . S
C5070 C5071 1.367 . S
C5070 C5078 1.378 . S
C5071 C5070 1.367 . S
C5071 C5079 1.433 . S
C5072 H5068 0.929 . S
C5072 C5074 1.378 . S
C5072 C5076 1.273 1_655 S
C5073 C5076 1.566 . S
C5073 C5078 1.350 . S
C5073 N5081 1.427 . S
C5074 H5065 0.930 . S
C5074 C5072 1.378 . S
C5074 C5075 1.367 . S
C5075 C5074 1.367 . S
C5075 C5077 1.433 . S
C5076 C5072 1.273 1_455 S
C5076 C5073 1.566 . S
C5076 N5080 1.411 1_455 S
C5077 H5067 0.929 . S
C5077 C5075 1.433 . S
C5077 N5080 1.447 . S
C5078 H5069 0.929 . S
C5078 C5070 1.378 . S
C5078 C5073 1.350 . S
C5079 H5066 0.929 . S
C5079 C5071 1.433 . S
C5079 N5081 1.384 . S
N5080 C5076 1.411 1_655 S
N5080 C5077 1.447 . S
N5081 C5073 1.427 . S
N5081 C5079 1.384 . S
H5082 C5088 0.930 . S
H5083 C5092 0.930 . S
H5084 C5097 0.929 . S
H5085 C5095 0.929 . S
H5086 C5090 0.929 . S
H5087 C5096 0.929 . S
C5088 H5082 0.930 . S
C5088 C5089 1.367 . S
C5088 C5096 1.378 . S
C5089 C5088 1.367 . S
C5089 C5097 1.433 . S
C5090 H5086 0.929 . S
C5090 C5092 1.378 . S
C5090 C5094 1.350 . S
C5091 C5094 1.463 . S
C5091 C5096 1.350 . S
C5091 N5099 1.427 . S
C5092 H5083 0.930 . S
C5092 C5090 1.378 . S
C5092 C5093 1.367 . S
C5093 C5092 1.367 . S
C5093 C5095 1.433 . S
C5094 C5090 1.350 . S
C5094 C5091 1.463 . S
C5094 N5098 1.427 . S
C5095 H5085 0.929 . S
C5095 C5093 1.433 . S
C5095 N5098 1.384 . S
C5096 H5087 0.929 . S
C5096 C5088 1.378 . S
C5096 C5091 1.350 . S
C5097 H5084 0.929 . S
C5097 C5089 1.433 . S
C5097 N5099 1.384 . S
N5098 C5094 1.427 . S
N5098 C5095 1.384 . S
N5099 C5091 1.427 . S
N5099 C5097 1.384 . S
H5100 C5106 0.930 . S
H5101 C5110 0.930 . S
H5102 C5115 0.929 . S
H5103 C5113 0.929 . S
H5104 C5108 0.929 . S
H5105 C5114 0.929 . S
C5106 H5100 0.930 . S
C5106 C5107 1.367 . S
C5106 C5114 1.378 . S
C5107 C5106 1.367 . S
C5107 C5115 1.433 . S
C5108 H5104 0.929 . S
C5108 C5110 1.378 . S
C5108 C5112 1.350 . S
C5109 C5112 1.463 . S
C5109 C5114 1.350 . S
C5109 N5117 1.427 . S
C5110 H5101 0.930 . S
C5110 C5108 1.378 . S
C5110 C5111 1.367 . S
C5111 C5110 1.367 . S
C5111 C5113 1.433 . S
C5112 C5108 1.350 . S
C5112 C5109 1.463 . S
C5112 N5116 1.427 . S
C5113 H5103 0.929 . S
C5113 C5111 1.433 . S
C5113 N5116 1.384 . S
C5114 H5105 0.929 . S
C5114 C5106 1.378 . S
C5114 C5109 1.350 . S
C5115 H5102 0.929 . S
C5115 C5107 1.433 . S
C5115 N5117 1.384 . S
N5116 C5112 1.427 . S
N5116 C5113 1.384 . S
N5117 C5109 1.427 . S
N5117 C5115 1.384 . S
H5118 C5124 0.930 . S
H5119 C5128 0.930 . S
H5120 C5133 0.929 . S
H5121 C5131 0.929 . S
H5122 C5126 0.929 . S
H5123 C5132 0.929 . S
C5124 H5118 0.930 . S
C5124 C5125 1.367 . S
C5124 C5132 1.378 . S
C5125 C5124 1.367 . S
C5125 C5133 1.433 . S
C5126 H5122 0.929 . S
C5126 C5128 1.378 . S
C5126 C5130 1.350 . S
C5127 C5130 1.463 . S
C5127 C5132 1.350 . S
C5127 N5135 1.427 . S
C5128 H5119 0.930 . S
C5128 C5126 1.378 . S
C5128 C5129 1.367 . S
C5129 C5128 1.367 . S
C5129 C5131 1.433 . S
C5130 C5126 1.350 . S
C5130 C5127 1.463 . S
C5130 N5134 1.427 . S
C5131 H5121 0.929 . S
C5131 C5129 1.433 . S
C5131 N5134 1.384 . S
C5132 H5123 0.929 . S
C5132 C5124 1.378 . S
C5132 C5127 1.350 . S
C5133 H5120 0.929 . S
C5133 C5125 1.433 . S
C5133 N5135 1.384 . S
N5134 C5130 1.427 . S
N5134 C5131 1.384 . S
N5135 C5127 1.427 . S
N5135 C5133 1.384 . S
H5136 C5142 0.930 . S
H5137 C5146 0.930 . S
H5138 C5151 0.929 . S
H5139 C5149 0.929 . S
H5140 C5144 0.929 . S
H5141 C5150 0.929 . S
C5142 H5136 0.930 . S
C5142 C5143 1.367 . S
C5142 C5150 1.378 . S
C5143 C5142 1.367 . S
C5143 C5151 1.433 . S
C5144 H5140 0.929 . S
C5144 C5146 1.378 . S
C5144 C5148 1.291 1_565 S
C5145 C5148 1.573 . S
C5145 C5150 1.350 . S
C5145 N5153 1.427 . S
C5146 H5137 0.930 . S
C5146 C5144 1.378 . S
C5146 C5147 1.367 . S
C5147 C5146 1.367 . S
C5147 C5149 1.433 . S
C5148 C5144 1.291 1_545 S
C5148 C5145 1.573 . S
C5148 N5152 1.391 1_545 S
C5149 H5139 0.929 . S
C5149 C5147 1.433 . S
C5149 N5152 1.384 . S
C5150 H5141 0.929 . S
C5150 C5142 1.378 . S
C5150 C5145 1.350 . S
C5151 H5138 0.929 . S
C5151 C5143 1.433 . S
C5151 N5153 1.384 . S
N5152 C5148 1.391 1_565 S
N5152 C5149 1.384 . S
N5153 C5145 1.427 . S
N5153 C5151 1.384 . S
H5154 C5160 0.930 . S
H5155 C5164 0.930 . S
H5156 C5169 0.929 . S
H5157 C5167 0.929 . S
H5158 C5162 0.929 . S
H5159 C5168 0.929 . S
C5160 H5154 0.930 . S
C5160 C5161 1.367 . S
C5160 C5168 1.378 . S
C5161 C5160 1.367 . S
C5161 C5169 1.433 . S
C5162 H5158 0.929 . S
C5162 C5164 1.378 . S
C5162 C5166 1.350 . S
C5163 C5166 1.463 . S
C5163 C5168 1.350 . S
C5163 N5171 1.427 . S
C5164 H5155 0.930 . S
C5164 C5162 1.378 . S
C5164 C5165 1.367 . S
C5165 C5164 1.367 . S
C5165 C5167 1.433 . S
C5166 C5162 1.350 . S
C5166 C5163 1.463 . S
C5166 N5170 1.427 . S
C5167 H5157 0.929 . S
C5167 C5165 1.433 . S
C5167 N5170 1.384 . S
C5168 H5159 0.929 . S
C5168 C5160 1.378 . S
C5168 C5163 1.350 . S
C5169 H5156 0.929 . S
C5169 C5161 1.433 . S
C5169 N5171 1.384 . S
N5170 C5166 1.427 . S
N5170 C5167 1.384 . S
N5171 C5163 1.427 . S
N5171 C5169 1.384 . S
H5172 C5178 0.930 . S
H5173 C5182 0.930 . S
H5174 C5187 0.929 . S
H5175 C5185 0.929 . S
H5176 C5180 0.906 1_565 S
H5177 C5186 0.929 . S
C5178 H5172 0.930 . S
C5178 C5179 1.367 . S
C5178 C5186 1.378 . S
C5179 C5178 1.367 . S
C5179 C5187 1.433 . S
C5180 H5176 0.906 1_545 S
C5180 C5182 1.406 . S
C5180 C5184 1.335 1_545 S
C5181 C5184 1.586 . S
C5181 C5186 1.350 . S
C5181 N5189 1.427 . S
C5182 H5173 0.930 . S
C5182 C5180 1.406 . S
C5182 C5183 1.367 . S
C5183 C5182 1.367 . S
C5183 C5185 1.433 . S
C5184 C5180 1.335 1_565 S
C5184 C5181 1.586 . S
C5184 N5188 1.331 1_565 S
C5185 H5175 0.929 . S
C5185 C5183 1.433 . S
C5185 N5188 1.384 . S
C5186 H5177 0.929 . S
C5186 C5178 1.378 . S
C5186 C5181 1.350 . S
C5187 H5174 0.929 . S
C5187 C5179 1.433 . S
C5187 N5189 1.384 . S
N5188 C5184 1.331 1_545 S
N5188 C5185 1.384 . S
N5189 C5181 1.427 . S
N5189 C5187 1.384 . S
H5190 C5196 0.930 . S
H5191 C5200 0.930 . S
H5192 C5205 0.929 . S
H5193 C5203 0.929 . S
H5194 C5198 0.929 . S
H5195 C5204 0.929 . S
C5196 H5190 0.930 . S
C5196 C5197 1.367 . S
C5196 C5204 1.378 . S
C5197 C5196 1.367 . S
C5197 C5205 1.433 . S
C5198 H5194 0.929 . S
C5198 C5200 1.378 . S
C5198 C5202 1.350 . S
C5199 C5202 1.463 . S
C5199 C5204 1.350 . S
C5199 N5207 1.427 . S
C5200 H5191 0.930 . S
C5200 C5198 1.378 . S
C5200 C5201 1.367 . S
C5201 C5200 1.367 . S
C5201 C5203 1.433 . S
C5202 C5198 1.350 . S
C5202 C5199 1.463 . S
C5202 N5206 1.427 . S
C5203 H5193 0.929 . S
C5203 C5201 1.433 . S
C5203 N5206 1.384 . S
C5204 H5195 0.929 . S
C5204 C5196 1.378 . S
C5204 C5199 1.350 . S
C5205 H5192 0.929 . S
C5205 C5197 1.433 . S
C5205 N5207 1.384 . S
N5206 C5202 1.427 . S
N5206 C5203 1.384 . S
N5207 C5199 1.427 . S
N5207 C5205 1.384 . S
H5208 C5214 0.930 . S
H5209 C5218 0.930 . S
H5210 C5223 0.929 . S
H5211 C5221 0.929 . S
H5212 C5216 0.930 1_565 S
H5213 C5222 0.929 . S
C5214 H5208 0.930 . S
C5214 C5215 1.367 . S
C5214 C5222 1.378 . S
C5215 C5214 1.367 . S
C5215 C5223 1.433 . S
C5216 H5212 0.930 1_545 S
C5216 C5218 1.376 . S
C5216 C5220 1.339 1_545 S
C5217 C5220 1.587 . S
C5217 C5222 1.350 . S
C5217 N5225 1.427 . S
C5218 H5209 0.930 . S
C5218 C5216 1.376 . S
C5218 C5219 1.367 . S
C5219 C5218 1.367 . S
C5219 C5221 1.433 . S
C5220 C5216 1.339 1_565 S
C5220 C5217 1.587 . S
C5220 N5224 1.327 1_565 S
C5221 H5211 0.929 . S
C5221 C5219 1.433 . S
C5221 N5224 1.384 . S
C5222 H5213 0.929 . S
C5222 C5214 1.378 . S
C5222 C5217 1.350 . S
C5223 H5210 0.929 . S
C5223 C5215 1.433 . S
C5223 N5225 1.384 . S
N5224 C5220 1.327 1_545 S
N5224 C5221 1.384 . S
N5225 C5217 1.427 . S
N5225 C5223 1.384 . S
H5226 C5232 0.930 . S
H5227 C5236 0.930 . S
H5228 C5241 0.929 . S
H5229 C5239 0.929 . S
H5230 C5234 0.929 . S
H5231 C5240 0.929 . S
C5232 H5226 0.930 . S
C5232 C5233 1.367 . S
C5232 C5240 1.378 . S
C5233 C5232 1.367 . S
C5233 C5241 1.433 . S
C5234 H5230 0.929 . S
C5234 C5236 1.378 . S
C5234 C5238 1.350 . S
C5235 C5238 1.463 . S
C5235 C5240 1.350 . S
C5235 N5243 1.427 . S
C5236 H5227 0.930 . S
C5236 C5234 1.378 . S
C5236 C5237 1.367 . S
C5237 C5236 1.367 . S
C5237 C5239 1.433 . S
C5238 C5234 1.350 . S
C5238 C5235 1.463 . S
C5238 N5242 1.427 . S
C5239 H5229 0.929 . S
C5239 C5237 1.433 . S
C5239 N5242 1.384 . S
C5240 H5231 0.929 . S
C5240 C5232 1.378 . S
C5240 C5235 1.350 . S
C5241 H5228 0.929 . S
C5241 C5233 1.433 . S
C5241 N5243 1.384 . S
N5242 C5238 1.427 . S
N5242 C5239 1.384 . S
N5243 C5235 1.427 . S
N5243 C5241 1.384 . S
H5244 C5250 0.930 . S
H5245 C5254 0.930 . S
H5246 C5259 0.929 . S
H5247 C5257 0.929 . S
H5248 C5252 0.929 . S
H5249 C5258 0.929 . S
C5250 H5244 0.930 . S
C5250 C5251 1.367 . S
C5250 C5258 1.378 . S
C5251 C5250 1.367 . S
C5251 C5259 1.433 . S
C5252 H5248 0.929 . S
C5252 C5254 1.378 . S
C5252 C5256 1.279 1_565 S
C5253 C5256 1.568 . S
C5253 C5258 1.350 . S
C5253 N5261 1.427 . S
C5254 H5245 0.930 . S
C5254 C5252 1.378 . S
C5254 C5255 1.367 . S
C5255 C5254 1.367 . S
C5255 C5257 1.433 . S
C5256 C5252 1.279 1_545 S
C5256 C5253 1.568 . S
C5256 N5260 1.391 1_545 S
C5257 H5247 0.929 . S
C5257 C5255 1.433 . S
C5257 N5260 1.540 . S
C5258 H5249 0.929 . S
C5258 C5250 1.378 . S
C5258 C5253 1.350 . S
C5259 H5246 0.929 . S
C5259 C5251 1.433 . S
C5259 N5261 1.384 . S
N5260 C5256 1.391 1_565 S
N5260 C5257 1.540 . S
N5261 C5253 1.427 . S
N5261 C5259 1.384 . S
H5262 C5268 0.930 . S
H5263 C5272 0.930 . S
H5264 C5277 0.929 . S
H5265 C5275 0.929 . S
H5266 C5270 0.929 . S
H5267 C5276 0.929 . S
C5268 H5262 0.930 . S
C5268 C5269 1.367 . S
C5268 C5276 1.378 . S
C5269 C5268 1.367 . S
C5269 C5277 1.433 . S
C5270 H5266 0.929 . S
C5270 C5272 1.378 . S
C5270 C5274 1.350 . S
C5271 C5274 1.463 . S
C5271 C5276 1.350 . S
C5271 N5279 1.427 . S
C5272 H5263 0.930 . S
C5272 C5270 1.378 . S
C5272 C5273 1.367 . S
C5273 C5272 1.367 . S
C5273 C5275 1.433 . S
C5274 C5270 1.350 . S
C5274 C5271 1.463 . S
C5274 N5278 1.427 . S
C5275 H5265 0.929 . S
C5275 C5273 1.433 . S
C5275 N5278 1.384 . S
C5276 H5267 0.929 . S
C5276 C5268 1.378 . S
C5276 C5271 1.350 . S
C5277 H5264 0.929 . S
C5277 C5269 1.433 . S
C5277 N5279 1.384 . S
N5278 C5274 1.427 . S
N5278 C5275 1.384 . S
N5279 C5271 1.427 . S
N5279 C5277 1.384 . S
H5280 C5286 0.930 . S
H5281 C5290 0.930 . S
H5282 C5295 0.929 . S
H5283 C5293 0.929 . S
H5284 C5288 0.918 1_554 S
H5285 C5294 0.929 . S
C5286 H5280 0.930 . S
C5286 C5287 1.367 . S
C5286 C5294 1.378 . S
C5287 C5286 1.367 . S
C5287 C5295 1.433 . S
C5288 H5284 0.918 1_556 S
C5288 C5290 1.391 . S
C5288 C5292 1.337 1_556 S
C5289 C5292 1.586 . S
C5289 C5294 1.350 . S
C5289 N5297 1.427 . S
C5290 H5281 0.930 . S
C5290 C5288 1.391 . S
C5290 C5291 1.367 . S
C5291 C5290 1.367 . S
C5291 C5293 1.433 . S
C5292 C5288 1.337 1_554 S
C5292 C5289 1.586 . S
C5292 N5296 1.329 1_554 S
C5293 H5283 0.929 . S
C5293 C5291 1.433 . S
C5293 N5296 1.384 . S
C5294 H5285 0.929 . S
C5294 C5286 1.378 . S
C5294 C5289 1.350 . S
C5295 H5282 0.929 . S
C5295 C5287 1.433 . S
C5295 N5297 1.384 . S
N5296 C5292 1.329 1_556 S
N5296 C5293 1.384 . S
N5297 C5289 1.427 . S
N5297 C5295 1.384 . S
H5298 C5304 0.930 . S
H5299 C5308 0.930 . S
H5300 C5313 0.929 . S
H5301 C5311 0.929 . S
H5302 C5306 0.929 1_556 S
H5303 C5312 0.929 . S
C5304 H5298 0.930 . S
C5304 C5305 1.367 . S
C5304 C5312 1.378 . S
C5305 C5304 1.367 . S
C5305 C5313 1.433 . S
C5306 H5302 0.929 1_554 S
C5306 C5308 1.378 . S
C5306 C5310 1.313 1_554 S
C5307 C5310 1.580 . S
C5307 C5312 1.350 . S
C5307 N5315 1.427 . S
C5308 H5299 0.930 . S
C5308 C5306 1.378 . S
C5308 C5309 1.367 . S
C5309 C5308 1.367 . S
C5309 C5311 1.433 . S
C5310 C5306 1.313 1_556 S
C5310 C5307 1.580 . S
C5310 N5314 1.361 1_556 S
C5311 H5301 0.929 . S
C5311 C5309 1.433 . S
C5311 N5314 1.384 . S
C5312 H5303 0.929 . S
C5312 C5304 1.378 . S
C5312 C5307 1.350 . S
C5313 H5300 0.929 . S
C5313 C5305 1.433 . S
C5313 N5315 1.384 . S
N5314 C5310 1.361 1_554 S
N5314 C5311 1.384 . S
N5315 C5307 1.427 . S
N5315 C5313 1.384 . S
H5316 C5322 0.930 . S
H5317 C5326 0.930 . S
H5318 C5331 0.929 . S
H5319 C5329 0.929 . S
H5320 C5324 0.929 . S
H5321 C5330 0.929 . S
C5322 H5316 0.930 . S
C5322 C5323 1.367 . S
C5322 C5330 1.378 . S
C5323 C5322 1.367 . S
C5323 C5331 1.433 . S
C5324 H5320 0.929 . S
C5324 C5326 1.378 . S
C5324 C5328 1.350 . S
C5325 C5328 1.463 . S
C5325 C5330 1.350 . S
C5325 N5333 1.427 . S
C5326 H5317 0.930 . S
C5326 C5324 1.378 . S
C5326 C5327 1.367 . S
C5327 C5326 1.367 . S
C5327 C5329 1.433 . S
C5328 C5324 1.350 . S
C5328 C5325 1.463 . S
C5328 N5332 1.427 . S
C5329 H5319 0.929 . S
C5329 C5327 1.433 . S
C5329 N5332 1.384 . S
C5330 H5321 0.929 . S
C5330 C5322 1.378 . S
C5330 C5325 1.350 . S
C5331 H5318 0.929 . S
C5331 C5323 1.433 . S
C5331 N5333 1.384 . S
N5332 C5328 1.427 . S
N5332 C5329 1.384 . S
N5333 C5325 1.427 . S
N5333 C5331 1.384 . S
H5334 C5340 0.930 . S
H5335 C5344 0.930 . S
H5336 C5349 0.929 . S
H5337 C5347 0.929 . S
H5338 C5342 0.929 . S
H5339 C5348 0.929 . S
C5340 H5334 0.930 . S
C5340 C5341 1.367 . S
C5340 C5348 1.378 . S
C5341 C5340 1.367 . S
C5341 C5349 1.433 . S
C5342 H5338 0.929 . S
C5342 C5344 1.378 . S
C5342 C5346 1.350 . S
C5343 C5346 1.463 . S
C5343 C5348 1.350 . S
C5343 N5351 1.427 . S
C5344 H5335 0.930 . S
C5344 C5342 1.378 . S
C5344 C5345 1.367 . S
C5345 C5344 1.367 . S
C5345 C5347 1.433 . S
C5346 C5342 1.350 . S
C5346 C5343 1.463 . S
C5346 N5350 1.427 . S
C5347 H5337 0.929 . S
C5347 C5345 1.433 . S
C5347 N5350 1.384 . S
C5348 H5339 0.929 . S
C5348 C5340 1.378 . S
C5348 C5343 1.350 . S
C5349 H5336 0.929 . S
C5349 C5341 1.433 . S
C5349 N5351 1.384 . S
N5350 C5346 1.427 . S
N5350 C5347 1.384 . S
N5351 C5343 1.427 . S
N5351 C5349 1.384 . S
H5352 C5358 0.930 . S
H5353 C5362 0.930 . S
H5354 C5367 0.929 . S
H5355 C5365 0.929 . S
H5356 C5360 0.929 . S
H5357 C5366 0.929 . S
C5358 H5352 0.930 . S
C5358 C5359 1.367 . S
C5358 C5366 1.378 . S
C5359 C5358 1.367 . S
C5359 C5367 1.433 . S
C5360 H5356 0.929 . S
C5360 C5362 1.378 . S
C5360 C5364 1.350 . S
C5361 C5364 1.463 . S
C5361 C5366 1.350 . S
C5361 N5369 1.427 . S
C5362 H5353 0.930 . S
C5362 C5360 1.378 . S
C5362 C5363 1.367 . S
C5363 C5362 1.367 . S
C5363 C5365 1.433 . S
C5364 C5360 1.350 . S
C5364 C5361 1.463 . S
C5364 N5368 1.427 . S
C5365 H5355 0.929 . S
C5365 C5363 1.433 . S
C5365 N5368 1.384 . S
C5366 H5357 0.929 . S
C5366 C5358 1.378 . S
C5366 C5361 1.350 . S
C5367 H5354 0.929 . S
C5367 C5359 1.433 . S
C5367 N5369 1.384 . S
N5368 C5364 1.427 . S
N5368 C5365 1.384 . S
N5369 C5361 1.427 . S
N5369 C5367 1.384 . S
H5370 C5376 0.930 . S
H5371 C5380 0.930 . S
H5372 C5385 0.929 . S
H5373 C5383 0.929 . S
H5374 C5378 0.929 . S
H5375 C5384 0.929 . S
C5376 H5370 0.930 . S
C5376 C5377 1.367 . S
C5376 C5384 1.378 . S
C5377 C5376 1.367 . S
C5377 C5385 1.433 . S
C5378 H5374 0.929 . S
C5378 C5380 1.378 . S
C5378 C5382 1.350 . S
C5379 C5382 1.463 . S
C5379 C5384 1.350 . S
C5379 N5387 1.427 . S
C5380 H5371 0.930 . S
C5380 C5378 1.378 . S
C5380 C5381 1.367 . S
C5381 C5380 1.367 . S
C5381 C5383 1.433 . S
C5382 C5378 1.350 . S
C5382 C5379 1.463 . S
C5382 N5386 1.427 . S
C5383 H5373 0.929 . S
C5383 C5381 1.433 . S
C5383 N5386 1.384 . S
C5384 H5375 0.929 . S
C5384 C5376 1.378 . S
C5384 C5379 1.350 . S
C5385 H5372 0.929 . S
C5385 C5377 1.433 . S
C5385 N5387 1.384 . S
N5386 C5382 1.427 . S
N5386 C5383 1.384 . S
N5387 C5379 1.427 . S
N5387 C5385 1.384 . S
H5388 C5394 0.930 . S
H5389 C5398 0.930 . S
H5390 C5403 0.929 . S
H5391 C5401 0.929 . S
H5392 C5396 0.929 . S
H5393 C5402 0.929 . S
C5394 H5388 0.930 . S
C5394 C5395 1.367 . S
C5394 C5402 1.378 . S
C5395 C5394 1.367 . S
C5395 C5403 1.433 . S
C5396 H5392 0.929 . S
C5396 C5398 1.378 . S
C5396 C5400 1.350 . S
C5397 C5400 1.463 . S
C5397 C5402 1.350 . S
C5397 N5405 1.427 . S
C5398 H5389 0.930 . S
C5398 C5396 1.378 . S
C5398 C5399 1.367 . S
C5399 C5398 1.367 . S
C5399 C5401 1.433 . S
C5400 C5396 1.350 . S
C5400 C5397 1.463 . S
C5400 N5404 1.427 . S
C5401 H5391 0.929 . S
C5401 C5399 1.433 . S
C5401 N5404 1.384 . S
C5402 H5393 0.929 . S
C5402 C5394 1.378 . S
C5402 C5397 1.350 . S
C5403 H5390 0.929 . S
C5403 C5395 1.433 . S
C5403 N5405 1.384 . S
N5404 C5400 1.427 . S
N5404 C5401 1.384 . S
N5405 C5397 1.427 . S
N5405 C5403 1.384 . S
H5406 C5412 0.930 . S
H5407 C5416 0.930 . S
H5408 C5421 0.929 . S
H5409 C5419 0.929 . S
H5410 C5414 0.929 . S
H5411 C5420 0.929 . S
C5412 H5406 0.930 . S
C5412 C5413 1.367 . S
C5412 C5420 1.378 . S
C5413 C5412 1.367 . S
C5413 C5421 1.433 . S
C5414 H5410 0.929 . S
C5414 C5416 1.378 . S
C5414 C5418 1.350 . S
C5415 C5418 1.463 . S
C5415 C5420 1.350 . S
C5415 N5423 1.427 . S
C5416 H5407 0.930 . S
C5416 C5414 1.378 . S
C5416 C5417 1.367 . S
C5417 C5416 1.367 . S
C5417 C5419 1.433 . S
C5418 C5414 1.350 . S
C5418 C5415 1.463 . S
C5418 N5422 1.427 . S
C5419 H5409 0.929 . S
C5419 C5417 1.433 . S
C5419 N5422 1.384 . S
C5420 H5411 0.929 . S
C5420 C5412 1.378 . S
C5420 C5415 1.350 . S
C5421 H5408 0.929 . S
C5421 C5413 1.433 . S
C5421 N5423 1.384 . S
N5422 C5418 1.427 . S
N5422 C5419 1.384 . S
N5423 C5415 1.427 . S
N5423 C5421 1.384 . S
H5424 C5430 0.930 . S
H5425 C5434 0.930 . S
H5426 C5439 0.929 . S
H5427 C5437 0.929 . S
H5428 C5432 0.929 . S
H5429 C5438 0.929 . S
C5430 H5424 0.930 . S
C5430 C5431 1.367 . S
C5430 C5438 1.378 . S
C5431 C5430 1.367 . S
C5431 C5439 1.433 . S
C5432 H5428 0.929 . S
C5432 C5434 1.378 . S
C5432 C5436 1.284 1_455 S
C5433 C5436 1.570 . S
C5433 C5438 1.350 . S
C5433 N5441 1.427 . S
C5434 H5425 0.930 . S
C5434 C5432 1.378 . S
C5434 C5435 1.367 . S
C5435 C5434 1.367 . S
C5435 C5437 1.433 . S
C5436 C5432 1.284 1_655 S
C5436 C5433 1.570 . S
C5436 N5440 1.400 1_655 S
C5437 H5427 0.929 . S
C5437 C5435 1.433 . S
C5437 N5440 1.384 . S
C5438 H5429 0.929 . S
C5438 C5430 1.378 . S
C5438 C5433 1.350 . S
C5439 H5426 0.929 . S
C5439 C5431 1.433 . S
C5439 N5441 1.384 . S
N5440 C5436 1.400 1_455 S
N5440 C5437 1.384 . S
N5441 C5433 1.427 . S
N5441 C5439 1.384 . S
H5442 C5448 0.930 . S
H5443 C5452 0.930 . S
H5444 C5457 0.929 . S
H5445 C5455 0.929 . S
H5446 C5450 0.929 . S
H5447 C5456 0.929 . S
C5448 H5442 0.930 . S
C5448 C5449 1.367 . S
C5448 C5456 1.378 . S
C5449 C5448 1.367 . S
C5449 C5457 1.433 . S
C5450 H5446 0.929 . S
C5450 C5452 1.378 . S
C5450 C5454 1.350 . S
C5451 C5454 1.463 . S
C5451 C5456 1.350 . S
C5451 N5459 1.427 . S
C5452 H5443 0.930 . S
C5452 C5450 1.378 . S
C5452 C5453 1.367 . S
C5453 C5452 1.367 . S
C5453 C5455 1.433 . S
C5454 C5450 1.350 . S
C5454 C5451 1.463 . S
C5454 N5458 1.427 . S
C5455 H5445 0.929 . S
C5455 C5453 1.433 . S
C5455 N5458 1.384 . S
C5456 H5447 0.929 . S
C5456 C5448 1.378 . S
C5456 C5451 1.350 . S
C5457 H5444 0.929 . S
C5457 C5449 1.433 . S
C5457 N5459 1.384 . S
N5458 C5454 1.427 . S
N5458 C5455 1.384 . S
N5459 C5451 1.427 . S
N5459 C5457 1.384 . S
H5460 C5466 0.930 . S
H5461 C5470 0.930 . S
H5462 C5475 0.929 . S
H5463 C5473 0.929 . S
H5464 C5468 0.929 . S
H5465 C5474 0.929 . S
C5466 H5460 0.930 . S
C5466 C5467 1.367 . S
C5466 C5474 1.378 . S
C5467 C5466 1.367 . S
C5467 C5475 1.433 . S
C5468 H5464 0.929 . S
C5468 C5470 1.378 . S
C5468 C5472 1.350 . S
C5469 C5472 1.463 . S
C5469 C5474 1.350 . S
C5469 N5477 1.427 . S
C5470 H5461 0.930 . S
C5470 C5468 1.378 . S
C5470 C5471 1.367 . S
C5471 C5470 1.367 . S
C5471 C5473 1.433 . S
C5472 C5468 1.350 . S
C5472 C5469 1.463 . S
C5472 N5476 1.427 . S
C5473 H5463 0.929 . S
C5473 C5471 1.433 . S
C5473 N5476 1.384 . S
C5474 H5465 0.929 . S
C5474 C5466 1.378 . S
C5474 C5469 1.350 . S
C5475 H5462 0.929 . S
C5475 C5467 1.433 . S
C5475 N5477 1.384 . S
N5476 C5472 1.427 . S
N5476 C5473 1.384 . S
N5477 C5469 1.427 . S
N5477 C5475 1.384 . S
H5478 C5484 0.930 . S
H5479 C5488 0.930 . S
H5480 C5493 0.929 . S
H5481 C5491 0.929 . S
H5482 C5486 0.929 . S
H5483 C5492 0.929 . S
C5484 H5478 0.930 . S
C5484 C5485 1.367 . S
C5484 C5492 1.378 . S
C5485 C5484 1.367 . S
C5485 C5493 1.433 . S
C5486 H5482 0.929 . S
C5486 C5488 1.378 . S
C5486 C5490 1.350 . S
C5487 C5490 1.463 . S
C5487 C5492 1.350 . S
C5487 N5495 1.427 . S
C5488 H5479 0.930 . S
C5488 C5486 1.378 . S
C5488 C5489 1.367 . S
C5489 C5488 1.367 . S
C5489 C5491 1.433 . S
C5490 C5486 1.350 . S
C5490 C5487 1.463 . S
C5490 N5494 1.427 . S
C5491 H5481 0.929 . S
C5491 C5489 1.433 . S
C5491 N5494 1.384 . S
C5492 H5483 0.929 . S
C5492 C5484 1.378 . S
C5492 C5487 1.350 . S
C5493 H5480 0.929 . S
C5493 C5485 1.433 . S
C5493 N5495 1.384 . S
N5494 C5490 1.427 . S
N5494 C5491 1.384 . S
N5495 C5487 1.427 . S
N5495 C5493 1.384 . S
H5496 C5502 0.930 . S
H5497 C5506 0.930 . S
H5498 C5511 0.929 . S
H5499 C5509 0.929 . S
H5500 C5504 0.929 . S
H5501 C5510 0.929 . S
C5502 H5496 0.930 . S
C5502 C5503 1.367 . S
C5502 C5510 1.378 . S
C5503 C5502 1.367 . S
C5503 C5511 1.433 . S
C5504 H5500 0.929 . S
C5504 C5506 1.378 . S
C5504 C5508 1.275 1_455 S
C5505 C5508 1.566 . S
C5505 C5510 1.350 . S
C5505 N5513 1.427 . S
C5506 H5497 0.930 . S
C5506 C5504 1.378 . S
C5506 C5507 1.367 . S
C5507 C5506 1.367 . S
C5507 C5509 1.433 . S
C5508 C5504 1.275 1_655 S
C5508 C5505 1.566 . S
C5508 N5512 1.407 1_655 S
C5509 H5499 0.929 . S
C5509 C5507 1.433 . S
C5509 N5512 1.467 . S
C5510 H5501 0.929 . S
C5510 C5502 1.378 . S
C5510 C5505 1.350 . S
C5511 H5498 0.929 . S
C5511 C5503 1.433 . S
C5511 N5513 1.384 . S
N5512 C5508 1.407 1_455 S
N5512 C5509 1.467 . S
N5513 C5505 1.427 . S
N5513 C5511 1.384 . S
H5514 C5520 0.930 . S
H5515 C5524 0.930 . S
H5516 C5529 0.929 . S
H5517 C5527 0.929 . S
H5518 C5522 0.929 . S
H5519 C5528 0.929 . S
C5520 H5514 0.930 . S
C5520 C5521 1.367 . S
C5520 C5528 1.378 . S
C5521 C5520 1.367 . S
C5521 C5529 1.433 . S
C5522 H5518 0.929 . S
C5522 C5524 1.378 . S
C5522 C5526 1.350 . S
C5523 C5526 1.463 . S
C5523 C5528 1.350 . S
C5523 N5531 1.427 . S
C5524 H5515 0.930 . S
C5524 C5522 1.378 . S
C5524 C5525 1.367 . S
C5525 C5524 1.367 . S
C5525 C5527 1.433 . S
C5526 C5522 1.350 . S
C5526 C5523 1.463 . S
C5526 N5530 1.427 . S
C5527 H5517 0.929 . S
C5527 C5525 1.433 . S
C5527 N5530 1.384 . S
C5528 H5519 0.929 . S
C5528 C5520 1.378 . S
C5528 C5523 1.350 . S
C5529 H5516 0.929 . S
C5529 C5521 1.433 . S
C5529 N5531 1.384 . S
N5530 C5526 1.427 . S
N5530 C5527 1.384 . S
N5531 C5523 1.427 . S
N5531 C5529 1.384 . S
H5532 C5538 0.930 . S
H5533 C5542 0.930 . S
H5534 C5547 0.929 . S
H5535 C5545 0.929 . S
H5536 C5540 0.929 . S
H5537 C5546 0.929 . S
C5538 H5532 0.930 . S
C5538 C5539 1.367 . S
C5538 C5546 1.378 . S
C5539 C5538 1.367 . S
C5539 C5547 1.433 . S
C5540 H5536 0.929 . S
C5540 C5542 1.378 . S
C5540 C5544 1.350 . S
C5541 C5544 1.463 . S
C5541 C5546 1.350 . S
C5541 N5549 1.427 . S
C5542 H5533 0.930 . S
C5542 C5540 1.378 . S
C5542 C5543 1.367 . S
C5543 C5542 1.367 . S
C5543 C5545 1.433 . S
C5544 C5540 1.350 . S
C5544 C5541 1.463 . S
C5544 N5548 1.427 . S
C5545 H5535 0.929 . S
C5545 C5543 1.433 . S
C5545 N5548 1.384 . S
C5546 H5537 0.929 . S
C5546 C5538 1.378 . S
C5546 C5541 1.350 . S
C5547 H5534 0.929 . S
C5547 C5539 1.433 . S
C5547 N5549 1.384 . S
N5548 C5544 1.427 . S
N5548 C5545 1.384 . S
N5549 C5541 1.427 . S
N5549 C5547 1.384 . S
H5550 C5556 0.930 . S
H5551 C5560 0.930 . S
H5552 C5565 0.929 . S
H5553 C5563 0.929 . S
H5554 C5558 0.929 . S
H5555 C5564 0.929 . S
C5556 H5550 0.930 . S
C5556 C5557 1.367 . S
C5556 C5564 1.378 . S
C5557 C5556 1.367 . S
C5557 C5565 1.433 . S
C5558 H5554 0.929 . S
C5558 C5560 1.378 . S
C5558 C5562 1.350 . S
C5559 C5562 1.463 . S
C5559 C5564 1.350 . S
C5559 N5567 1.427 . S
C5560 H5551 0.930 . S
C5560 C5558 1.378 . S
C5560 C5561 1.367 . S
C5561 C5560 1.367 . S
C5561 C5563 1.433 . S
C5562 C5558 1.350 . S
C5562 C5559 1.463 . S
C5562 N5566 1.427 . S
C5563 H5553 0.929 . S
C5563 C5561 1.433 . S
C5563 N5566 1.384 . S
C5564 H5555 0.929 . S
C5564 C5556 1.378 . S
C5564 C5559 1.350 . S
C5565 H5552 0.929 . S
C5565 C5557 1.433 . S
C5565 N5567 1.384 . S
N5566 C5562 1.427 . S
N5566 C5563 1.384 . S
N5567 C5559 1.427 . S
N5567 C5565 1.384 . S
H5568 C5574 0.930 . S
H5569 C5578 0.930 . S
H5570 C5583 0.929 . S
H5571 C5581 0.929 . S
H5572 C5576 0.917 1_565 S
H5573 C5582 0.929 . S
C5574 H5568 0.930 . S
C5574 C5575 1.367 . S
C5574 C5582 1.378 . S
C5575 C5574 1.367 . S
C5575 C5583 1.433 . S
C5576 H5572 0.917 1_545 S
C5576 C5578 1.378 . S
C5576 C5580 1.303 1_545 S
C5577 C5580 1.577 . S
C5577 C5582 1.350 . S
C5577 N5585 1.427 . S
C5578 H5569 0.930 . S
C5578 C5576 1.378 . S
C5578 C5579 1.367 . S
C5579 C5578 1.367 . S
C5579 C5581 1.433 . S
C5580 C5576 1.303 1_565 S
C5580 C5577 1.577 . S
C5580 N5584 1.374 1_565 S
C5581 H5571 0.929 . S
C5581 C5579 1.433 . S
C5581 N5584 1.384 . S
C5582 H5573 0.929 . S
C5582 C5574 1.378 . S
C5582 C5577 1.350 . S
C5583 H5570 0.929 . S
C5583 C5575 1.433 . S
C5583 N5585 1.384 . S
N5584 C5580 1.374 1_545 S
N5584 C5581 1.384 . S
N5585 C5577 1.427 . S
N5585 C5583 1.384 . S
H5586 C5592 0.930 . S
H5587 C5596 0.930 . S
H5588 C5601 0.929 . S
H5589 C5599 0.929 . S
H5590 C5594 0.929 . S
H5591 C5600 0.929 . S
C5592 H5586 0.930 . S
C5592 C5593 1.367 . S
C5592 C5600 1.378 . S
C5593 C5592 1.367 . S
C5593 C5601 1.433 . S
C5594 H5590 0.929 . S
C5594 C5596 1.378 . S
C5594 C5598 1.350 . S
C5595 C5598 1.463 . S
C5595 C5600 1.350 . S
C5595 N5603 1.427 . S
C5596 H5587 0.930 . S
C5596 C5594 1.378 . S
C5596 C5597 1.367 . S
C5597 C5596 1.367 . S
C5597 C5599 1.433 . S
C5598 C5594 1.350 . S
C5598 C5595 1.463 . S
C5598 N5602 1.427 . S
C5599 H5589 0.929 . S
C5599 C5597 1.433 . S
C5599 N5602 1.384 . S
C5600 H5591 0.929 . S
C5600 C5592 1.378 . S
C5600 C5595 1.350 . S
C5601 H5588 0.929 . S
C5601 C5593 1.433 . S
C5601 N5603 1.384 . S
N5602 C5598 1.427 . S
N5602 C5599 1.384 . S
N5603 C5595 1.427 . S
N5603 C5601 1.384 . S
H5604 C5610 0.930 . S
H5605 C5614 0.930 . S
H5606 C5619 0.929 . S
H5607 C5617 0.929 . S
H5608 C5612 0.856 1_545 S
H5609 C5618 0.929 . S
C5610 H5604 0.930 . S
C5610 C5611 1.367 . S
C5610 C5618 1.378 . S
C5611 C5610 1.367 . S
C5611 C5619 1.433 . S
C5612 H5608 0.856 1_565 S
C5612 C5614 1.478 . S
C5612 C5616 1.321 1_565 S
C5613 C5616 1.584 . S
C5613 C5618 1.350 . S
C5613 N5621 1.427 . S
C5614 H5605 0.930 . S
C5614 C5612 1.478 . S
C5614 C5615 1.367 . S
C5615 C5614 1.367 . S
C5615 C5617 1.433 . S
C5616 C5612 1.321 1_545 S
C5616 C5613 1.584 . S
C5616 N5620 1.341 1_545 S
C5617 H5607 0.929 . S
C5617 C5615 1.433 . S
C5617 N5620 1.384 . S
C5618 H5609 0.929 . S
C5618 C5610 1.378 . S
C5618 C5613 1.350 . S
C5619 H5606 0.929 . S
C5619 C5611 1.433 . S
C5619 N5621 1.384 . S
N5620 C5616 1.341 1_565 S
N5620 C5617 1.384 . S
N5621 C5613 1.427 . S
N5621 C5619 1.384 . S
H5622 C5628 0.930 . S
H5623 C5632 0.930 . S
H5624 C5637 0.929 . S
H5625 C5635 0.929 . S
H5626 C5630 0.929 . S
H5627 C5636 0.929 . S
C5628 H5622 0.930 . S
C5628 C5629 1.367 . S
C5628 C5636 1.378 . S
C5629 C5628 1.367 . S
C5629 C5637 1.433 . S
C5630 H5626 0.929 . S
C5630 C5632 1.378 . S
C5630 C5634 1.350 . S
C5631 C5634 1.463 . S
C5631 C5636 1.350 . S
C5631 N5639 1.427 . S
C5632 H5623 0.930 . S
C5632 C5630 1.378 . S
C5632 C5633 1.367 . S
C5633 C5632 1.367 . S
C5633 C5635 1.433 . S
C5634 C5630 1.350 . S
C5634 C5631 1.463 . S
C5634 N5638 1.427 . S
C5635 H5625 0.929 . S
C5635 C5633 1.433 . S
C5635 N5638 1.384 . S
C5636 H5627 0.929 . S
C5636 C5628 1.378 . S
C5636 C5631 1.350 . S
C5637 H5624 0.929 . S
C5637 C5629 1.433 . S
C5637 N5639 1.384 . S
N5638 C5634 1.427 . S
N5638 C5635 1.384 . S
N5639 C5631 1.427 . S
N5639 C5637 1.384 . S
H5640 C5646 0.930 . S
H5641 C5650 0.930 . S
H5642 C5655 0.929 . S
H5643 C5653 0.929 . S
H5644 C5648 0.976 . S
H5645 C5654 0.929 . S
C5646 H5640 0.930 . S
C5646 C5647 1.367 . S
C5646 C5654 1.378 . S
C5647 C5646 1.367 . S
C5647 C5655 1.433 . S
C5648 H5644 0.976 . S
C5648 C5650 1.378 . S
C5648 C5652 1.295 1_565 S
C5649 C5652 1.574 . S
C5649 C5654 1.350 . S
C5649 N5657 1.427 . S
C5650 H5641 0.930 . S
C5650 C5648 1.378 . S
C5650 C5651 1.367 . S
C5651 C5650 1.367 . S
C5651 C5653 1.433 . S
C5652 C5648 1.295 1_545 S
C5652 C5649 1.574 . S
C5652 N5656 1.385 1_545 S
C5653 H5643 0.929 . S
C5653 C5651 1.433 . S
C5653 N5656 1.384 . S
C5654 H5645 0.929 . S
C5654 C5646 1.378 . S
C5654 C5649 1.350 . S
C5655 H5642 0.929 . S
C5655 C5647 1.433 . S
C5655 N5657 1.384 . S
N5656 C5652 1.385 1_565 S
N5656 C5653 1.384 . S
N5657 C5649 1.427 . S
N5657 C5655 1.384 . S
H5658 C5664 0.930 . S
H5659 C5668 0.930 . S
H5660 C5673 0.929 . S
H5661 C5671 0.929 . S
H5662 C5666 0.929 . S
H5663 C5672 0.929 . S
C5664 H5658 0.930 . S
C5664 C5665 1.367 . S
C5664 C5672 1.378 . S
C5665 C5664 1.367 . S
C5665 C5673 1.433 . S
C5666 H5662 0.929 . S
C5666 C5668 1.378 . S
C5666 C5670 1.350 . S
C5667 C5670 1.463 . S
C5667 C5672 1.350 . S
C5667 N5675 1.427 . S
C5668 H5659 0.930 . S
C5668 C5666 1.378 . S
C5668 C5669 1.367 . S
C5669 C5668 1.367 . S
C5669 C5671 1.433 . S
C5670 C5666 1.350 . S
C5670 C5667 1.463 . S
C5670 N5674 1.427 . S
C5671 H5661 0.929 . S
C5671 C5669 1.433 . S
C5671 N5674 1.384 . S
C5672 H5663 0.929 . S
C5672 C5664 1.378 . S
C5672 C5667 1.350 . S
C5673 H5660 0.929 . S
C5673 C5665 1.433 . S
C5673 N5675 1.384 . S
N5674 C5670 1.427 . S
N5674 C5671 1.384 . S
N5675 C5667 1.427 . S
N5675 C5673 1.384 . S
H5676 C5682 0.930 . S
H5677 C5686 0.930 . S
H5678 C5691 0.929 . S
H5679 C5689 0.929 . S
H5680 C5684 0.929 . S
H5681 C5690 0.929 . S
C5682 H5676 0.930 . S
C5682 C5683 1.367 . S
C5682 C5690 1.378 . S
C5683 C5682 1.367 . S
C5683 C5691 1.433 . S
C5684 H5680 0.929 . S
C5684 C5686 1.378 . S
C5684 C5688 1.267 1_545 S
C5685 C5688 1.563 . S
C5685 C5690 1.350 . S
C5685 N5693 1.427 . S
C5686 H5677 0.930 . S
C5686 C5684 1.378 . S
C5686 C5687 1.367 . S
C5687 C5686 1.367 . S
C5687 C5689 1.433 . S
C5688 C5684 1.267 1_565 S
C5688 C5685 1.563 . S
C5688 N5692 1.424 . S
C5689 H5679 0.929 . S
C5689 C5687 1.433 . S
C5689 N5692 1.380 1_545 S
C5690 H5681 0.929 . S
C5690 C5682 1.378 . S
C5690 C5685 1.350 . S
C5691 H5678 0.929 . S
C5691 C5683 1.433 . S
C5691 N5693 1.384 . S
N5692 C5688 1.424 . S
N5692 C5689 1.380 1_565 S
N5693 C5685 1.427 . S
N5693 C5691 1.384 . S
H5694 C5700 0.930 . S
H5695 C5704 0.930 . S
H5696 C5709 0.929 . S
H5697 C5707 0.929 . S
H5698 C5702 0.929 . S
H5699 C5708 0.929 . S
C5700 H5694 0.930 . S
C5700 C5701 1.367 . S
C5700 C5708 1.378 . S
C5701 C5700 1.367 . S
C5701 C5709 1.433 . S
C5702 H5698 0.929 . S
C5702 C5704 1.378 . S
C5702 C5706 1.350 . S
C5703 C5706 1.463 . S
C5703 C5708 1.350 . S
C5703 N5711 1.427 . S
C5704 H5695 0.930 . S
C5704 C5702 1.378 . S
C5704 C5705 1.367 . S
C5705 C5704 1.367 . S
C5705 C5707 1.433 . S
C5706 C5702 1.350 . S
C5706 C5703 1.463 . S
C5706 N5710 1.427 . S
C5707 H5697 0.929 . S
C5707 C5705 1.433 . S
C5707 N5710 1.384 . S
C5708 H5699 0.929 . S
C5708 C5700 1.378 . S
C5708 C5703 1.350 . S
C5709 H5696 0.929 . S
C5709 C5701 1.433 . S
C5709 N5711 1.384 . S
N5710 C5706 1.427 . S
N5710 C5707 1.384 . S
N5711 C5703 1.427 . S
N5711 C5709 1.384 . S
H5712 C5718 0.930 . S
H5713 C5722 0.930 . S
H5714 C5727 0.929 . S
H5715 C5725 0.929 . S
H5716 C5720 0.929 1_556 S
H5717 C5726 0.929 . S
C5718 H5712 0.930 . S
C5718 C5719 1.367 . S
C5718 C5726 1.378 . S
C5719 C5718 1.367 . S
C5719 C5727 1.433 . S
C5720 H5716 0.929 1_554 S
C5720 C5722 1.378 . S
C5720 C5724 1.323 1_554 S
C5721 C5724 1.583 . S
C5721 C5726 1.350 . S
C5721 N5729 1.427 . S
C5722 H5713 0.930 . S
C5722 C5720 1.378 . S
C5722 C5723 1.367 . S
C5723 C5722 1.367 . S
C5723 C5725 1.433 . S
C5724 C5720 1.323 1_556 S
C5724 C5721 1.583 . S
C5724 N5728 1.349 1_556 S
C5725 H5715 0.929 . S
C5725 C5723 1.433 . S
C5725 N5728 1.384 . S
C5726 H5717 0.929 . S
C5726 C5718 1.378 . S
C5726 C5721 1.350 . S
C5727 H5714 0.929 . S
C5727 C5719 1.433 . S
C5727 N5729 1.384 . S
N5728 C5724 1.349 1_554 S
N5728 C5725 1.384 . S
N5729 C5721 1.427 . S
N5729 C5727 1.384 . S
H5730 C5736 0.930 . S
H5731 C5740 0.930 . S
H5732 C5745 0.929 . S
H5733 C5743 0.929 . S
H5734 C5738 0.929 . S
H5735 C5744 0.929 . S
C5736 H5730 0.930 . S
C5736 C5737 1.367 . S
C5736 C5744 1.378 . S
C5737 C5736 1.367 . S
C5737 C5745 1.433 . S
C5738 H5734 0.929 . S
C5738 C5740 1.378 . S
C5738 C5742 1.279 1_556 S
C5739 C5742 1.568 . S
C5739 C5744 1.350 . S
C5739 N5747 1.427 . S
C5740 H5731 0.930 . S
C5740 C5738 1.378 . S
C5740 C5741 1.367 . S
C5741 C5740 1.367 . S
C5741 C5743 1.433 . S
C5742 C5738 1.279 1_554 S
C5742 C5739 1.568 . S
C5742 N5746 1.393 1_554 S
C5743 H5733 0.929 . S
C5743 C5741 1.433 . S
C5743 N5746 1.532 . S
C5744 H5735 0.929 . S
C5744 C5736 1.378 . S
C5744 C5739 1.350 . S
C5745 H5732 0.929 . S
C5745 C5737 1.433 . S
C5745 N5747 1.384 . S
N5746 C5742 1.393 1_556 S
N5746 C5743 1.532 . S
N5747 C5739 1.427 . S
N5747 C5745 1.384 . S
H5748 C5754 0.930 . S
H5749 C5758 0.930 . S
H5750 C5763 0.929 . S
H5751 C5761 0.929 . S
H5752 C5756 0.929 . S
H5753 C5762 0.929 . S
C5754 H5748 0.930 . S
C5754 C5755 1.367 . S
C5754 C5762 1.378 . S
C5755 C5754 1.367 . S
C5755 C5763 1.433 . S
C5756 H5752 0.929 . S
C5756 C5758 1.378 . S
C5756 C5760 1.350 . S
C5757 C5760 1.463 . S
C5757 C5762 1.350 . S
C5757 N5765 1.427 . S
C5758 H5749 0.930 . S
C5758 C5756 1.378 . S
C5758 C5759 1.367 . S
C5759 C5758 1.367 . S
C5759 C5761 1.433 . S
C5760 C5756 1.350 . S
C5760 C5757 1.463 . S
C5760 N5764 1.427 . S
C5761 H5751 0.929 . S
C5761 C5759 1.433 . S
C5761 N5764 1.384 . S
C5762 H5753 0.929 . S
C5762 C5754 1.378 . S
C5762 C5757 1.350 . S
C5763 H5750 0.929 . S
C5763 C5755 1.433 . S
C5763 N5765 1.384 . S
N5764 C5760 1.427 . S
N5764 C5761 1.384 . S
N5765 C5757 1.427 . S
N5765 C5763 1.384 . S
H5766 C5772 0.930 . S
H5767 C5776 0.930 . S
H5768 C5781 0.929 . S
H5769 C5779 0.929 . S
H5770 C5774 0.929 . S
H5771 C5780 0.929 . S
C5772 H5766 0.930 . S
C5772 C5773 1.367 . S
C5772 C5780 1.378 . S
C5773 C5772 1.367 . S
C5773 C5781 1.433 . S
C5774 H5770 0.929 . S
C5774 C5776 1.378 . S
C5774 C5778 1.350 . S
C5775 C5778 1.463 . S
C5775 C5780 1.350 . S
C5775 N5783 1.427 . S
C5776 H5767 0.930 . S
C5776 C5774 1.378 . S
C5776 C5777 1.367 . S
C5777 C5776 1.367 . S
C5777 C5779 1.433 . S
C5778 C5774 1.350 . S
C5778 C5775 1.463 . S
C5778 N5782 1.427 . S
C5779 H5769 0.929 . S
C5779 C5777 1.433 . S
C5779 N5782 1.384 . S
C5780 H5771 0.929 . S
C5780 C5772 1.378 . S
C5780 C5775 1.350 . S
C5781 H5768 0.929 . S
C5781 C5773 1.433 . S
C5781 N5783 1.384 . S
N5782 C5778 1.427 . S
N5782 C5779 1.384 . S
N5783 C5775 1.427 . S
N5783 C5781 1.384 . S
H5784 C5790 0.930 . S
H5785 C5794 0.930 . S
H5786 C5799 0.929 . S
H5787 C5797 0.929 . S
H5788 C5792 0.929 . S
H5789 C5798 0.929 . S
C5790 H5784 0.930 . S
C5790 C5791 1.367 . S
C5790 C5798 1.378 . S
C5791 C5790 1.367 . S
C5791 C5799 1.433 . S
C5792 H5788 0.929 . S
C5792 C5794 1.378 . S
C5792 C5796 1.350 . S
C5793 C5796 1.463 . S
C5793 C5798 1.350 . S
C5793 N5801 1.427 . S
C5794 H5785 0.930 . S
C5794 C5792 1.378 . S
C5794 C5795 1.367 . S
C5795 C5794 1.367 . S
C5795 C5797 1.433 . S
C5796 C5792 1.350 . S
C5796 C5793 1.463 . S
C5796 N5800 1.427 . S
C5797 H5787 0.929 . S
C5797 C5795 1.433 . S
C5797 N5800 1.384 . S
C5798 H5789 0.929 . S
C5798 C5790 1.378 . S
C5798 C5793 1.350 . S
C5799 H5786 0.929 . S
C5799 C5791 1.433 . S
C5799 N5801 1.384 . S
N5800 C5796 1.427 . S
N5800 C5797 1.384 . S
N5801 C5793 1.427 . S
N5801 C5799 1.384 . S
H5802 C5808 0.930 . S
H5803 C5812 0.930 . S
H5804 C5817 0.929 . S
H5805 C5815 0.929 . S
H5806 C5810 0.929 . S
H5807 C5816 0.929 . S
C5808 H5802 0.930 . S
C5808 C5809 1.367 . S
C5808 C5816 1.378 . S
C5809 C5808 1.367 . S
C5809 C5817 1.433 . S
C5810 H5806 0.929 . S
C5810 C5812 1.378 . S
C5810 C5814 1.350 . S
C5811 C5814 1.463 . S
C5811 C5816 1.350 . S
C5811 N5819 1.427 . S
C5812 H5803 0.930 . S
C5812 C5810 1.378 . S
C5812 C5813 1.367 . S
C5813 C5812 1.367 . S
C5813 C5815 1.433 . S
C5814 C5810 1.350 . S
C5814 C5811 1.463 . S
C5814 N5818 1.427 . S
C5815 H5805 0.929 . S
C5815 C5813 1.433 . S
C5815 N5818 1.384 . S
C5816 H5807 0.929 . S
C5816 C5808 1.378 . S
C5816 C5811 1.350 . S
C5817 H5804 0.929 . S
C5817 C5809 1.433 . S
C5817 N5819 1.384 . S
N5818 C5814 1.427 . S
N5818 C5815 1.384 . S
N5819 C5811 1.427 . S
N5819 C5817 1.384 . S
H5820 C5826 0.930 . S
H5821 C5830 0.930 . S
H5822 C5835 0.929 . S
H5823 C5833 0.929 . S
H5824 C5828 0.929 . S
H5825 C5834 0.929 . S
C5826 H5820 0.930 . S
C5826 C5827 1.367 . S
C5826 C5834 1.378 . S
C5827 C5826 1.367 . S
C5827 C5835 1.433 . S
C5828 H5824 0.929 . S
C5828 C5830 1.378 . S
C5828 C5832 1.350 . S
C5829 C5832 1.463 . S
C5829 C5834 1.350 . S
C5829 N5837 1.427 . S
C5830 H5821 0.930 . S
C5830 C5828 1.378 . S
C5830 C5831 1.367 . S
C5831 C5830 1.367 . S
C5831 C5833 1.433 . S
C5832 C5828 1.350 . S
C5832 C5829 1.463 . S
C5832 N5836 1.427 . S
C5833 H5823 0.929 . S
C5833 C5831 1.433 . S
C5833 N5836 1.384 . S
C5834 H5825 0.929 . S
C5834 C5826 1.378 . S
C5834 C5829 1.350 . S
C5835 H5822 0.929 . S
C5835 C5827 1.433 . S
C5835 N5837 1.384 . S
N5836 C5832 1.427 . S
N5836 C5833 1.384 . S
N5837 C5829 1.427 . S
N5837 C5835 1.384 . S
H5838 C5844 0.930 . S
H5839 C5848 0.930 . S
H5840 C5853 0.929 . S
H5841 C5851 0.929 . S
H5842 C5846 0.929 . S
H5843 C5852 0.929 . S
C5844 H5838 0.930 . S
C5844 C5845 1.367 . S
C5844 C5852 1.378 . S
C5845 C5844 1.367 . S
C5845 C5853 1.433 . S
C5846 H5842 0.929 . S
C5846 C5848 1.378 . S
C5846 C5850 1.350 . S
C5847 C5850 1.463 . S
C5847 C5852 1.350 . S
C5847 N5855 1.427 . S
C5848 H5839 0.930 . S
C5848 C5846 1.378 . S
C5848 C5849 1.367 . S
C5849 C5848 1.367 . S
C5849 C5851 1.433 . S
C5850 C5846 1.350 . S
C5850 C5847 1.463 . S
C5850 N5854 1.427 . S
C5851 H5841 0.929 . S
C5851 C5849 1.433 . S
C5851 N5854 1.384 . S
C5852 H5843 0.929 . S
C5852 C5844 1.378 . S
C5852 C5847 1.350 . S
C5853 H5840 0.929 . S
C5853 C5845 1.433 . S
C5853 N5855 1.384 . S
N5854 C5850 1.427 . S
N5854 C5851 1.384 . S
N5855 C5847 1.427 . S
N5855 C5853 1.384 . S
H5856 C5862 0.930 . S
H5857 C5866 0.930 . S
H5858 C5871 0.929 . S
H5859 C5869 0.929 . S
H5860 C5864 0.929 . S
H5861 C5870 0.929 . S
C5862 H5856 0.930 . S
C5862 C5863 1.367 . S
C5862 C5870 1.378 . S
C5863 C5862 1.367 . S
C5863 C5871 1.433 . S
C5864 H5860 0.929 . S
C5864 C5866 1.378 . S
C5864 C5868 1.350 . S
C5865 C5868 1.463 . S
C5865 C5870 1.350 . S
C5865 N5873 1.427 . S
C5866 H5857 0.930 . S
C5866 C5864 1.378 . S
C5866 C5867 1.367 . S
C5867 C5866 1.367 . S
C5867 C5869 1.433 . S
C5868 C5864 1.350 . S
C5868 C5865 1.463 . S
C5868 N5872 1.427 . S
C5869 H5859 0.929 . S
C5869 C5867 1.433 . S
C5869 N5872 1.384 . S
C5870 H5861 0.929 . S
C5870 C5862 1.378 . S
C5870 C5865 1.350 . S
C5871 H5858 0.929 . S
C5871 C5863 1.433 . S
C5871 N5873 1.384 . S
N5872 C5868 1.427 . S
N5872 C5869 1.384 . S
N5873 C5865 1.427 . S
N5873 C5871 1.384 . S
H5874 C5880 0.930 . S
H5875 C5884 0.930 . S
H5876 C5889 0.929 . S
H5877 C5887 0.929 . S
H5878 C5882 0.929 . S
H5879 C5888 0.929 . S
C5880 H5874 0.930 . S
C5880 C5881 1.367 . S
C5880 C5888 1.378 . S
C5881 C5880 1.367 . S
C5881 C5889 1.433 . S
C5882 H5878 0.929 . S
C5882 C5884 1.378 . S
C5882 C5886 1.350 . S
C5883 C5886 1.463 . S
C5883 C5888 1.350 . S
C5883 N5891 1.427 . S
C5884 H5875 0.930 . S
C5884 C5882 1.378 . S
C5884 C5885 1.367 . S
C5885 C5884 1.367 . S
C5885 C5887 1.433 . S
C5886 C5882 1.350 . S
C5886 C5883 1.463 . S
C5886 N5890 1.427 . S
C5887 H5877 0.929 . S
C5887 C5885 1.433 . S
C5887 N5890 1.384 . S
C5888 H5879 0.929 . S
C5888 C5880 1.378 . S
C5888 C5883 1.350 . S
C5889 H5876 0.929 . S
C5889 C5881 1.433 . S
C5889 N5891 1.384 . S
N5890 C5886 1.427 . S
N5890 C5887 1.384 . S
N5891 C5883 1.427 . S
N5891 C5889 1.384 . S
H5892 C5898 0.930 . S
H5893 C5902 0.930 . S
H5894 C5907 0.929 . S
H5895 C5905 0.929 . S
H5896 C5900 0.861 1_655 S
H5897 C5906 0.929 . S
C5898 H5892 0.930 . S
C5898 C5899 1.367 . S
C5898 C5906 1.378 . S
C5899 C5898 1.367 . S
C5899 C5907 1.433 . S
C5900 H5896 0.861 1_455 S
C5900 C5902 1.470 . S
C5900 C5904 1.323 1_455 S
C5901 C5904 1.584 . S
C5901 C5906 1.350 . S
C5901 N5909 1.427 . S
C5902 H5893 0.930 . S
C5902 C5900 1.470 . S
C5902 C5903 1.367 . S
C5903 C5902 1.367 . S
C5903 C5905 1.433 . S
C5904 C5900 1.323 1_655 S
C5904 C5901 1.584 . S
C5904 N5908 1.340 1_655 S
C5905 H5895 0.929 . S
C5905 C5903 1.433 . S
C5905 N5908 1.384 . S
C5906 H5897 0.929 . S
C5906 C5898 1.378 . S
C5906 C5901 1.350 . S
C5907 H5894 0.929 . S
C5907 C5899 1.433 . S
C5907 N5909 1.384 . S
N5908 C5904 1.340 1_455 S
N5908 C5905 1.384 . S
N5909 C5901 1.427 . S
N5909 C5907 1.384 . S
H5910 C5916 0.930 . S
H5911 C5920 0.930 . S
H5912 C5925 0.929 . S
H5913 C5923 0.929 . S
H5914 C5918 0.929 . S
H5915 C5924 0.929 . S
C5916 H5910 0.930 . S
C5916 C5917 1.367 . S
C5916 C5924 1.378 . S
C5917 C5916 1.367 . S
C5917 C5925 1.433 . S
C5918 H5914 0.929 . S
C5918 C5920 1.378 . S
C5918 C5922 1.350 . S
C5919 C5922 1.463 . S
C5919 C5924 1.350 . S
C5919 N5927 1.427 . S
C5920 H5911 0.930 . S
C5920 C5918 1.378 . S
C5920 C5921 1.367 . S
C5921 C5920 1.367 . S
C5921 C5923 1.433 . S
C5922 C5918 1.350 . S
C5922 C5919 1.463 . S
C5922 N5926 1.427 . S
C5923 H5913 0.929 . S
C5923 C5921 1.433 . S
C5923 N5926 1.384 . S
C5924 H5915 0.929 . S
C5924 C5916 1.378 . S
C5924 C5919 1.350 . S
C5925 H5912 0.929 . S
C5925 C5917 1.433 . S
C5925 N5927 1.384 . S
N5926 C5922 1.427 . S
N5926 C5923 1.384 . S
N5927 C5919 1.427 . S
N5927 C5925 1.384 . S
H5928 C5934 0.930 . S
H5929 C5938 0.930 . S
H5930 C5943 0.929 . S
H5931 C5941 0.929 . S
H5932 C5936 0.929 . S
H5933 C5942 0.929 . S
C5934 H5928 0.930 . S
C5934 C5935 1.367 . S
C5934 C5942 1.378 . S
C5935 C5934 1.367 . S
C5935 C5943 1.433 . S
C5936 H5932 0.929 . S
C5936 C5938 1.378 . S
C5936 C5940 1.350 . S
C5937 C5940 1.463 . S
C5937 C5942 1.350 . S
C5937 N5945 1.427 . S
C5938 H5929 0.930 . S
C5938 C5936 1.378 . S
C5938 C5939 1.367 . S
C5939 C5938 1.367 . S
C5939 C5941 1.433 . S
C5940 C5936 1.350 . S
C5940 C5937 1.463 . S
C5940 N5944 1.427 . S
C5941 H5931 0.929 . S
C5941 C5939 1.433 . S
C5941 N5944 1.384 . S
C5942 H5933 0.929 . S
C5942 C5934 1.378 . S
C5942 C5937 1.350 . S
C5943 H5930 0.929 . S
C5943 C5935 1.433 . S
C5943 N5945 1.384 . S
N5944 C5940 1.427 . S
N5944 C5941 1.384 . S
N5945 C5937 1.427 . S
N5945 C5943 1.384 . S
H5946 C5952 0.930 . S
H5947 C5956 0.930 . S
H5948 C5961 0.929 . S
H5949 C5959 0.929 . S
H5950 C5954 0.929 . S
H5951 C5960 0.929 . S
C5952 H5946 0.930 . S
C5952 C5953 1.367 . S
C5952 C5960 1.378 . S
C5953 C5952 1.367 . S
C5953 C5961 1.433 . S
C5954 H5950 0.929 . S
C5954 C5956 1.378 . S
C5954 C5958 1.350 . S
C5955 C5958 1.463 . S
C5955 C5960 1.350 . S
C5955 N5963 1.427 . S
C5956 H5947 0.930 . S
C5956 C5954 1.378 . S
C5956 C5957 1.367 . S
C5957 C5956 1.367 . S
C5957 C5959 1.433 . S
C5958 C5954 1.350 . S
C5958 C5955 1.463 . S
C5958 N5962 1.427 . S
C5959 H5949 0.929 . S
C5959 C5957 1.433 . S
C5959 N5962 1.384 . S
C5960 H5951 0.929 . S
C5960 C5952 1.378 . S
C5960 C5955 1.350 . S
C5961 H5948 0.929 . S
C5961 C5953 1.433 . S
C5961 N5963 1.384 . S
N5962 C5958 1.427 . S
N5962 C5959 1.384 . S
N5963 C5955 1.427 . S
N5963 C5961 1.384 . S
H5964 C5970 0.930 . S
H5965 C5974 0.930 . S
H5966 C5979 0.929 . S
H5967 C5977 0.929 . S
H5968 C5972 0.929 . S
H5969 C5978 0.929 . S
C5970 H5964 0.930 . S
C5970 C5971 1.367 . S
C5970 C5978 1.378 . S
C5971 C5970 1.367 . S
C5971 C5979 1.433 . S
C5972 H5968 0.929 . S
C5972 C5974 1.378 . S
C5972 C5976 1.275 1_455 S
C5973 C5976 1.566 . S
C5973 C5978 1.350 . S
C5973 N5981 1.427 . S
C5974 H5965 0.930 . S
C5974 C5972 1.378 . S
C5974 C5975 1.367 . S
C5975 C5974 1.367 . S
C5975 C5977 1.433 . S
C5976 C5972 1.275 1_655 S
C5976 C5973 1.566 . S
C5976 N5980 1.407 1_655 S
C5977 H5967 0.929 . S
C5977 C5975 1.433 . S
C5977 N5980 1.472 . S
C5978 H5969 0.929 . S
C5978 C5970 1.378 . S
C5978 C5973 1.350 . S
C5979 H5966 0.929 . S
C5979 C5971 1.433 . S
C5979 N5981 1.384 . S
N5980 C5976 1.407 1_455 S
N5980 C5977 1.472 . S
N5981 C5973 1.427 . S
N5981 C5979 1.384 . S
H5982 C5988 0.930 . S
H5983 C5992 0.930 . S
H5984 C5997 0.929 . S
H5985 C5995 0.929 . S
H5986 C5990 0.929 . S
H5987 C5996 0.929 . S
C5988 H5982 0.930 . S
C5988 C5989 1.367 . S
C5988 C5996 1.378 . S
C5989 C5988 1.367 . S
C5989 C5997 1.433 . S
C5990 H5986 0.929 . S
C5990 C5992 1.378 . S
C5990 C5994 1.350 . S
C5991 C5994 1.463 . S
C5991 C5996 1.350 . S
C5991 N5999 1.427 . S
C5992 H5983 0.930 . S
C5992 C5990 1.378 . S
C5992 C5993 1.367 . S
C5993 C5992 1.367 . S
C5993 C5995 1.433 . S
C5994 C5990 1.350 . S
C5994 C5991 1.463 . S
C5994 N5998 1.427 . S
C5995 H5985 0.929 . S
C5995 C5993 1.433 . S
C5995 N5998 1.384 . S
C5996 H5987 0.929 . S
C5996 C5988 1.378 . S
C5996 C5991 1.350 . S
C5997 H5984 0.929 . S
C5997 C5989 1.433 . S
C5997 N5999 1.384 . S
N5998 C5994 1.427 . S
N5998 C5995 1.384 . S
N5999 C5991 1.427 . S
N5999 C5997 1.384 . S
H6000 C6006 0.930 . S
H6001 C6010 0.930 . S
H6002 C6015 0.929 . S
H6003 C6013 0.929 . S
H6004 C6008 0.929 . S
H6005 C6014 0.929 . S
C6006 H6000 0.930 . S
C6006 C6007 1.367 . S
C6006 C6014 1.378 . S
C6007 C6006 1.367 . S
C6007 C6015 1.433 . S
C6008 H6004 0.929 . S
C6008 C6010 1.378 . S
C6008 C6012 1.350 . S
C6009 C6012 1.463 . S
C6009 C6014 1.350 . S
C6009 N6017 1.427 . S
C6010 H6001 0.930 . S
C6010 C6008 1.378 . S
C6010 C6011 1.367 . S
C6011 C6010 1.367 . S
C6011 C6013 1.433 . S
C6012 C6008 1.350 . S
C6012 C6009 1.463 . S
C6012 N6016 1.427 . S
C6013 H6003 0.929 . S
C6013 C6011 1.433 . S
C6013 N6016 1.384 . S
C6014 H6005 0.929 . S
C6014 C6006 1.378 . S
C6014 C6009 1.350 . S
C6015 H6002 0.929 . S
C6015 C6007 1.433 . S
C6015 N6017 1.384 . S
N6016 C6012 1.427 . S
N6016 C6013 1.384 . S
N6017 C6009 1.427 . S
N6017 C6015 1.384 . S
H6018 C6024 0.930 . S
H6019 C6028 0.930 . S
H6020 C6033 0.929 . S
H6021 C6031 0.929 . S
H6022 C6026 0.929 . S
H6023 C6032 0.929 . S
C6024 H6018 0.930 . S
C6024 C6025 1.367 . S
C6024 C6032 1.378 . S
C6025 C6024 1.367 . S
C6025 C6033 1.433 . S
C6026 H6022 0.929 . S
C6026 C6028 1.378 . S
C6026 C6030 1.350 . S
C6027 C6030 1.463 . S
C6027 C6032 1.350 . S
C6027 N6035 1.427 . S
C6028 H6019 0.930 . S
C6028 C6026 1.378 . S
C6028 C6029 1.367 . S
C6029 C6028 1.367 . S
C6029 C6031 1.433 . S
C6030 C6026 1.350 . S
C6030 C6027 1.463 . S
C6030 N6034 1.427 . S
C6031 H6021 0.929 . S
C6031 C6029 1.433 . S
C6031 N6034 1.384 . S
C6032 H6023 0.929 . S
C6032 C6024 1.378 . S
C6032 C6027 1.350 . S
C6033 H6020 0.929 . S
C6033 C6025 1.433 . S
C6033 N6035 1.384 . S
N6034 C6030 1.427 . S
N6034 C6031 1.384 . S
N6035 C6027 1.427 . S
N6035 C6033 1.384 . S
H6036 C6042 0.930 . S
H6037 C6046 0.930 . S
H6038 C6051 0.929 . S
H6039 C6049 0.929 . S
H6040 C6044 0.929 . S
H6041 C6050 0.929 . S
C6042 H6036 0.930 . S
C6042 C6043 1.367 . S
C6042 C6050 1.378 . S
C6043 C6042 1.367 . S
C6043 C6051 1.433 . S
C6044 H6040 0.929 . S
C6044 C6046 1.378 . S
C6044 C6048 1.350 . S
C6045 C6048 1.463 . S
C6045 C6050 1.350 . S
C6045 N6053 1.427 . S
C6046 H6037 0.930 . S
C6046 C6044 1.378 . S
C6046 C6047 1.367 . S
C6047 C6046 1.367 . S
C6047 C6049 1.433 . S
C6048 C6044 1.350 . S
C6048 C6045 1.463 . S
C6048 N6052 1.427 . S
C6049 H6039 0.929 . S
C6049 C6047 1.433 . S
C6049 N6052 1.384 . S
C6050 H6041 0.929 . S
C6050 C6042 1.378 . S
C6050 C6045 1.350 . S
C6051 H6038 0.929 . S
C6051 C6043 1.433 . S
C6051 N6053 1.384 . S
N6052 C6048 1.427 . S
N6052 C6049 1.384 . S
N6053 C6045 1.427 . S
N6053 C6051 1.384 . S
H6054 C6060 0.930 . S
H6055 C6064 0.930 . S
H6056 C6069 0.929 . S
H6057 C6067 0.929 . S
H6058 C6062 0.929 . S
H6059 C6068 0.929 . S
C6060 H6054 0.930 . S
C6060 C6061 1.367 . S
C6060 C6068 1.378 . S
C6061 C6060 1.367 . S
C6061 C6069 1.433 . S
C6062 H6058 0.929 . S
C6062 C6064 1.378 . S
C6062 C6066 1.350 . S
C6063 C6066 1.463 . S
C6063 C6068 1.350 . S
C6063 N6071 1.427 . S
C6064 H6055 0.930 . S
C6064 C6062 1.378 . S
C6064 C6065 1.367 . S
C6065 C6064 1.367 . S
C6065 C6067 1.433 . S
C6066 C6062 1.350 . S
C6066 C6063 1.463 . S
C6066 N6070 1.427 . S
C6067 H6057 0.929 . S
C6067 C6065 1.433 . S
C6067 N6070 1.384 . S
C6068 H6059 0.929 . S
C6068 C6060 1.378 . S
C6068 C6063 1.350 . S
C6069 H6056 0.929 . S
C6069 C6061 1.433 . S
C6069 N6071 1.384 . S
N6070 C6066 1.427 . S
N6070 C6067 1.384 . S
N6071 C6063 1.427 . S
N6071 C6069 1.384 . S
H6072 C6078 0.930 . S
H6073 C6082 0.930 . S
H6074 C6087 0.929 . S
H6075 C6085 0.929 . S
H6076 C6080 0.929 . S
H6077 C6086 0.929 . S
C6078 H6072 0.930 . S
C6078 C6079 1.367 . S
C6078 C6086 1.378 . S
C6079 C6078 1.367 . S
C6079 C6087 1.433 . S
C6080 H6076 0.929 . S
C6080 C6082 1.378 . S
C6080 C6084 1.350 . S
C6081 C6084 1.463 . S
C6081 C6086 1.350 . S
C6081 N6089 1.427 . S
C6082 H6073 0.930 . S
C6082 C6080 1.378 . S
C6082 C6083 1.367 . S
C6083 C6082 1.367 . S
C6083 C6085 1.433 . S
C6084 C6080 1.350 . S
C6084 C6081 1.463 . S
C6084 N6088 1.427 . S
C6085 H6075 0.929 . S
C6085 C6083 1.433 . S
C6085 N6088 1.384 . S
C6086 H6077 0.929 . S
C6086 C6078 1.378 . S
C6086 C6081 1.350 . S
C6087 H6074 0.929 . S
C6087 C6079 1.433 . S
C6087 N6089 1.384 . S
N6088 C6084 1.427 . S
N6088 C6085 1.384 . S
N6089 C6081 1.427 . S
N6089 C6087 1.384 . S
H6090 C6096 0.930 . S
H6091 C6100 0.930 . S
H6092 C6105 0.929 . S
H6093 C6103 0.929 . S
H6094 C6098 0.929 . S
H6095 C6104 0.929 . S
C6096 H6090 0.930 . S
C6096 C6097 1.367 . S
C6096 C6104 1.378 . S
C6097 C6096 1.367 . S
C6097 C6105 1.433 . S
C6098 H6094 0.929 . S
C6098 C6100 1.378 . S
C6098 C6102 1.350 . S
C6099 C6102 1.463 . S
C6099 C6104 1.350 . S
C6099 N6107 1.427 . S
C6100 H6091 0.930 . S
C6100 C6098 1.378 . S
C6100 C6101 1.367 . S
C6101 C6100 1.367 . S
C6101 C6103 1.433 . S
C6102 C6098 1.350 . S
C6102 C6099 1.463 . S
C6102 N6106 1.427 . S
C6103 H6093 0.929 . S
C6103 C6101 1.433 . S
C6103 N6106 1.384 . S
C6104 H6095 0.929 . S
C6104 C6096 1.378 . S
C6104 C6099 1.350 . S
C6105 H6092 0.929 . S
C6105 C6097 1.433 . S
C6105 N6107 1.384 . S
N6106 C6102 1.427 . S
N6106 C6103 1.384 . S
N6107 C6099 1.427 . S
N6107 C6105 1.384 . S
H6108 C6114 0.930 . S
H6109 C6118 0.930 . S
H6110 C6123 0.929 . S
H6111 C6121 0.929 . S
H6112 C6116 0.929 . S
H6113 C6122 0.929 . S
C6114 H6108 0.930 . S
C6114 C6115 1.367 . S
C6114 C6122 1.378 . S
C6115 C6114 1.367 . S
C6115 C6123 1.433 . S
C6116 H6112 0.929 . S
C6116 C6118 1.378 . S
C6116 C6120 1.350 . S
C6117 C6120 1.463 . S
C6117 C6122 1.350 . S
C6117 N6125 1.427 . S
C6118 H6109 0.930 . S
C6118 C6116 1.378 . S
C6118 C6119 1.367 . S
C6119 C6118 1.367 . S
C6119 C6121 1.433 . S
C6120 C6116 1.350 . S
C6120 C6117 1.463 . S
C6120 N6124 1.427 . S
C6121 H6111 0.929 . S
C6121 C6119 1.433 . S
C6121 N6124 1.384 . S
C6122 H6113 0.929 . S
C6122 C6114 1.378 . S
C6122 C6117 1.350 . S
C6123 H6110 0.929 . S
C6123 C6115 1.433 . S
C6123 N6125 1.384 . S
N6124 C6120 1.427 . S
N6124 C6121 1.384 . S
N6125 C6117 1.427 . S
N6125 C6123 1.384 . S
H6126 C6132 0.930 . S
H6127 C6136 0.930 . S
H6128 C6141 0.929 . S
H6129 C6139 0.929 . S
H6130 C6134 0.929 . S
H6131 C6140 0.929 . S
C6132 H6126 0.930 . S
C6132 C6133 1.367 . S
C6132 C6140 1.378 . S
C6133 C6132 1.367 . S
C6133 C6141 1.433 . S
C6134 H6130 0.929 . S
C6134 C6136 1.378 . S
C6134 C6138 1.350 . S
C6135 C6138 1.463 . S
C6135 C6140 1.350 . S
C6135 N6143 1.427 . S
C6136 H6127 0.930 . S
C6136 C6134 1.378 . S
C6136 C6137 1.367 . S
C6137 C6136 1.367 . S
C6137 C6139 1.433 . S
C6138 C6134 1.350 . S
C6138 C6135 1.463 . S
C6138 N6142 1.427 . S
C6139 H6129 0.929 . S
C6139 C6137 1.433 . S
C6139 N6142 1.384 . S
C6140 H6131 0.929 . S
C6140 C6132 1.378 . S
C6140 C6135 1.350 . S
C6141 H6128 0.929 . S
C6141 C6133 1.433 . S
C6141 N6143 1.384 . S
N6142 C6138 1.427 . S
N6142 C6139 1.384 . S
N6143 C6135 1.427 . S
N6143 C6141 1.384 . S
H6144 C6150 0.930 . S
H6145 C6154 0.930 . S
H6146 C6159 0.929 . S
H6147 C6157 0.929 . S
H6148 C6152 0.929 . S
H6149 C6158 0.929 . S
C6150 H6144 0.930 . S
C6150 C6151 1.367 . S
C6150 C6158 1.378 . S
C6151 C6150 1.367 . S
C6151 C6159 1.433 . S
C6152 H6148 0.929 . S
C6152 C6154 1.378 . S
C6152 C6156 1.350 . S
C6153 C6156 1.463 . S
C6153 C6158 1.350 . S
C6153 N6161 1.427 . S
C6154 H6145 0.930 . S
C6154 C6152 1.378 . S
C6154 C6155 1.367 . S
C6155 C6154 1.367 . S
C6155 C6157 1.433 . S
C6156 C6152 1.350 . S
C6156 C6153 1.463 . S
C6156 N6160 1.427 . S
C6157 H6147 0.929 . S
C6157 C6155 1.433 . S
C6157 N6160 1.384 . S
C6158 H6149 0.929 . S
C6158 C6150 1.378 . S
C6158 C6153 1.350 . S
C6159 H6146 0.929 . S
C6159 C6151 1.433 . S
C6159 N6161 1.384 . S
N6160 C6156 1.427 . S
N6160 C6157 1.384 . S
N6161 C6153 1.427 . S
N6161 C6159 1.384 . S
H6162 C6168 0.930 . S
H6163 C6172 0.930 . S
H6164 C6177 0.929 . S
H6165 C6175 0.929 . S
H6166 C6170 0.929 . S
H6167 C6176 0.929 . S
C6168 H6162 0.930 . S
C6168 C6169 1.367 . S
C6168 C6176 1.378 . S
C6169 C6168 1.367 . S
C6169 C6177 1.433 . S
C6170 H6166 0.929 . S
C6170 C6172 1.378 . S
C6170 C6174 1.350 . S
C6171 C6174 1.463 . S
C6171 C6176 1.350 . S
C6171 N6179 1.427 . S
C6172 H6163 0.930 . S
C6172 C6170 1.378 . S
C6172 C6173 1.367 . S
C6173 C6172 1.367 . S
C6173 C6175 1.433 . S
C6174 C6170 1.350 . S
C6174 C6171 1.463 . S
C6174 N6178 1.427 . S
C6175 H6165 0.929 . S
C6175 C6173 1.433 . S
C6175 N6178 1.384 . S
C6176 H6167 0.929 . S
C6176 C6168 1.378 . S
C6176 C6171 1.350 . S
C6177 H6164 0.929 . S
C6177 C6169 1.433 . S
C6177 N6179 1.384 . S
N6178 C6174 1.427 . S
N6178 C6175 1.384 . S
N6179 C6171 1.427 . S
N6179 C6177 1.384 . S
H6180 C6186 0.930 . S
H6181 C6190 0.930 . S
H6182 C6195 0.929 . S
H6183 C6193 0.929 . S
H6184 C6188 0.929 . S
H6185 C6194 0.929 . S
C6186 H6180 0.930 . S
C6186 C6187 1.367 . S
C6186 C6194 1.378 . S
C6187 C6186 1.367 . S
C6187 C6195 1.433 . S
C6188 H6184 0.929 . S
C6188 C6190 1.378 . S
C6188 C6192 1.350 . S
C6189 C6192 1.463 . S
C6189 C6194 1.350 . S
C6189 N6197 1.427 . S
C6190 H6181 0.930 . S
C6190 C6188 1.378 . S
C6190 C6191 1.367 . S
C6191 C6190 1.367 . S
C6191 C6193 1.433 . S
C6192 C6188 1.350 . S
C6192 C6189 1.463 . S
C6192 N6196 1.427 . S
C6193 H6183 0.929 . S
C6193 C6191 1.433 . S
C6193 N6196 1.384 . S
C6194 H6185 0.929 . S
C6194 C6186 1.378 . S
C6194 C6189 1.350 . S
C6195 H6182 0.929 . S
C6195 C6187 1.433 . S
C6195 N6197 1.384 . S
N6196 C6192 1.427 . S
N6196 C6193 1.384 . S
N6197 C6189 1.427 . S
N6197 C6195 1.384 . S
H6198 C6204 0.930 . S
H6199 C6208 0.930 . S
H6200 C6213 0.929 . S
H6201 C6211 0.929 . S
H6202 C6206 0.904 1_556 S
H6203 C6212 0.929 . S
C6204 H6198 0.930 . S
C6204 C6205 1.367 . S
C6204 C6212 1.378 . S
C6205 C6204 1.367 . S
C6205 C6213 1.433 . S
C6206 H6202 0.904 1_554 S
C6206 C6208 1.408 . S
C6206 C6210 1.334 1_554 S
C6207 C6210 1.586 . S
C6207 C6212 1.350 . S
C6207 N6215 1.427 . S
C6208 H6199 0.930 . S
C6208 C6206 1.408 . S
C6208 C6209 1.367 . S
C6209 C6208 1.367 . S
C6209 C6211 1.433 . S
C6210 C6206 1.334 1_556 S
C6210 C6207 1.586 . S
C6210 N6214 1.331 1_556 S
C6211 H6201 0.929 . S
C6211 C6209 1.433 . S
C6211 N6214 1.384 . S
C6212 H6203 0.929 . S
C6212 C6204 1.378 . S
C6212 C6207 1.350 . S
C6213 H6200 0.929 . S
C6213 C6205 1.433 . S
C6213 N6215 1.384 . S
N6214 C6210 1.331 1_554 S
N6214 C6211 1.384 . S
N6215 C6207 1.427 . S
N6215 C6213 1.384 . S
H6216 C6222 0.930 . S
H6217 C6226 0.930 . S
H6218 C6231 0.929 . S
H6219 C6229 0.929 . S
H6220 C6224 0.929 . S
H6221 C6230 0.929 . S
C6222 H6216 0.930 . S
C6222 C6223 1.367 . S
C6222 C6230 1.378 . S
C6223 C6222 1.367 . S
C6223 C6231 1.433 . S
C6224 H6220 0.929 . S
C6224 C6226 1.378 . S
C6224 C6228 1.350 . S
C6225 C6228 1.463 . S
C6225 C6230 1.350 . S
C6225 N6233 1.427 . S
C6226 H6217 0.930 . S
C6226 C6224 1.378 . S
C6226 C6227 1.367 . S
C6227 C6226 1.367 . S
C6227 C6229 1.433 . S
C6228 C6224 1.350 . S
C6228 C6225 1.463 . S
C6228 N6232 1.427 . S
C6229 H6219 0.929 . S
C6229 C6227 1.433 . S
C6229 N6232 1.384 . S
C6230 H6221 0.929 . S
C6230 C6222 1.378 . S
C6230 C6225 1.350 . S
C6231 H6218 0.929 . S
C6231 C6223 1.433 . S
C6231 N6233 1.384 . S
N6232 C6228 1.427 . S
N6232 C6229 1.384 . S
N6233 C6225 1.427 . S
N6233 C6231 1.384 . S
H6234 C6240 0.930 . S
H6235 C6244 0.930 . S
H6236 C6249 0.929 . S
H6237 C6247 0.929 . S
H6238 C6242 0.929 . S
H6239 C6248 0.929 . S
C6240 H6234 0.930 . S
C6240 C6241 1.367 . S
C6240 C6248 1.378 . S
C6241 C6240 1.367 . S
C6241 C6249 1.433 . S
C6242 H6238 0.929 . S
C6242 C6244 1.378 . S
C6242 C6246 1.282 1_556 S
C6243 C6246 1.569 . S
C6243 C6248 1.350 . S
C6243 N6251 1.427 . S
C6244 H6235 0.930 . S
C6244 C6242 1.378 . S
C6244 C6245 1.367 . S
C6245 C6244 1.367 . S
C6245 C6247 1.433 . S
C6246 C6242 1.282 1_554 S
C6246 C6243 1.569 . S
C6246 N6250 1.403 1_554 S
C6247 H6237 0.929 . S
C6247 C6245 1.433 . S
C6247 N6250 1.384 . S
C6248 H6239 0.929 . S
C6248 C6240 1.378 . S
C6248 C6243 1.350 . S
C6249 H6236 0.929 . S
C6249 C6241 1.433 . S
C6249 N6251 1.384 . S
N6250 C6246 1.403 1_556 S
N6250 C6247 1.384 . S
N6251 C6243 1.427 . S
N6251 C6249 1.384 . S
H6252 C6258 0.930 . S
H6253 C6262 0.930 . S
H6254 C6267 0.929 . S
H6255 C6265 0.929 . S
H6256 C6260 0.929 . S
H6257 C6266 0.929 . S
C6258 H6252 0.930 . S
C6258 C6259 1.367 . S
C6258 C6266 1.378 . S
C6259 C6258 1.367 . S
C6259 C6267 1.433 . S
C6260 H6256 0.929 . S
C6260 C6262 1.378 . S
C6260 C6264 1.350 . S
C6261 C6264 1.463 . S
C6261 C6266 1.350 . S
C6261 N6269 1.427 . S
C6262 H6253 0.930 . S
C6262 C6260 1.378 . S
C6262 C6263 1.367 . S
C6263 C6262 1.367 . S
C6263 C6265 1.433 . S
C6264 C6260 1.350 . S
C6264 C6261 1.463 . S
C6264 N6268 1.427 . S
C6265 H6255 0.929 . S
C6265 C6263 1.433 . S
C6265 N6268 1.384 . S
C6266 H6257 0.929 . S
C6266 C6258 1.378 . S
C6266 C6261 1.350 . S
C6267 H6254 0.929 . S
C6267 C6259 1.433 . S
C6267 N6269 1.384 . S
N6268 C6264 1.427 . S
N6268 C6265 1.384 . S
N6269 C6261 1.427 . S
N6269 C6267 1.384 . S
H6270 C6276 0.930 . S
H6271 C6280 0.930 . S
H6272 C6285 0.929 . S
H6273 C6283 0.929 . S
H6274 C6278 0.929 . S
H6275 C6284 0.929 . S
C6276 H6270 0.930 . S
C6276 C6277 1.367 . S
C6276 C6284 1.378 . S
C6277 C6276 1.367 . S
C6277 C6285 1.433 . S
C6278 H6274 0.929 . S
C6278 C6280 1.378 . S
C6278 C6282 1.350 . S
C6279 C6282 1.463 . S
C6279 C6284 1.350 . S
C6279 N6287 1.427 . S
C6280 H6271 0.930 . S
C6280 C6278 1.378 . S
C6280 C6281 1.367 . S
C6281 C6280 1.367 . S
C6281 C6283 1.433 . S
C6282 C6278 1.350 . S
C6282 C6279 1.463 . S
C6282 N6286 1.427 . S
C6283 H6273 0.929 . S
C6283 C6281 1.433 . S
C6283 N6286 1.384 . S
C6284 H6275 0.929 . S
C6284 C6276 1.378 . S
C6284 C6279 1.350 . S
C6285 H6272 0.929 . S
C6285 C6277 1.433 . S
C6285 N6287 1.384 . S
N6286 C6282 1.427 . S
N6286 C6283 1.384 . S
N6287 C6279 1.427 . S
N6287 C6285 1.384 . S
H6288 C6294 0.930 . S
H6289 C6298 0.930 . S
H6290 C6303 0.929 . S
H6291 C6301 0.929 . S
H6292 C6296 0.929 . S
H6293 C6302 0.929 . S
C6294 H6288 0.930 . S
C6294 C6295 1.367 . S
C6294 C6302 1.378 . S
C6295 C6294 1.367 . S
C6295 C6303 1.433 . S
C6296 H6292 0.929 . S
C6296 C6298 1.378 . S
C6296 C6300 1.350 . S
C6297 C6300 1.463 . S
C6297 C6302 1.350 . S
C6297 N6305 1.427 . S
C6298 H6289 0.930 . S
C6298 C6296 1.378 . S
C6298 C6299 1.367 . S
C6299 C6298 1.367 . S
C6299 C6301 1.433 . S
C6300 C6296 1.350 . S
C6300 C6297 1.463 . S
C6300 N6304 1.427 . S
C6301 H6291 0.929 . S
C6301 C6299 1.433 . S
C6301 N6304 1.384 . S
C6302 H6293 0.929 . S
C6302 C6294 1.378 . S
C6302 C6297 1.350 . S
C6303 H6290 0.929 . S
C6303 C6295 1.433 . S
C6303 N6305 1.384 . S
N6304 C6300 1.427 . S
N6304 C6301 1.384 . S
N6305 C6297 1.427 . S
N6305 C6303 1.384 . S
H6306 C6312 0.930 . S
H6307 C6316 0.930 . S
H6308 C6321 0.929 . S
H6309 C6319 0.929 . S
H6310 C6314 0.929 . S
H6311 C6320 0.929 . S
C6312 H6306 0.930 . S
C6312 C6313 1.367 . S
C6312 C6320 1.378 . S
C6313 C6312 1.367 . S
C6313 C6321 1.433 . S
C6314 H6310 0.929 . S
C6314 C6316 1.378 . S
C6314 C6318 1.350 . S
C6315 C6318 1.463 . S
C6315 C6320 1.350 . S
C6315 N6323 1.427 . S
C6316 H6307 0.930 . S
C6316 C6314 1.378 . S
C6316 C6317 1.367 . S
C6317 C6316 1.367 . S
C6317 C6319 1.433 . S
C6318 C6314 1.350 . S
C6318 C6315 1.463 . S
C6318 N6322 1.427 . S
C6319 H6309 0.929 . S
C6319 C6317 1.433 . S
C6319 N6322 1.384 . S
C6320 H6311 0.929 . S
C6320 C6312 1.378 . S
C6320 C6315 1.350 . S
C6321 H6308 0.929 . S
C6321 C6313 1.433 . S
C6321 N6323 1.384 . S
N6322 C6318 1.427 . S
N6322 C6319 1.384 . S
N6323 C6315 1.427 . S
N6323 C6321 1.384 . S
H6324 C6330 0.930 . S
H6325 C6334 0.930 . S
H6326 C6339 0.929 . S
H6327 C6337 0.929 . S
H6328 C6332 0.937 . S
H6329 C6338 0.929 . S
C6330 H6324 0.930 . S
C6330 C6331 1.367 . S
C6330 C6338 1.378 . S
C6331 C6330 1.367 . S
C6331 C6339 1.433 . S
C6332 H6328 0.937 . S
C6332 C6334 1.369 1_455 S
C6332 C6336 1.344 . S
C6333 C6336 1.588 . S
C6333 C6338 1.350 . S
C6333 N6341 1.427 . S
C6334 H6325 0.930 . S
C6334 C6332 1.369 1_655 S
C6334 C6335 1.367 . S
C6335 C6334 1.367 . S
C6335 C6337 1.433 . S
C6336 C6332 1.344 . S
C6336 C6333 1.588 . S
C6336 N6340 1.321 1_455 S
C6337 H6327 0.929 . S
C6337 C6335 1.433 . S
C6337 N6340 1.384 . S
C6338 H6329 0.929 . S
C6338 C6330 1.378 . S
C6338 C6333 1.350 . S
C6339 H6326 0.929 . S
C6339 C6331 1.433 . S
C6339 N6341 1.384 . S
N6340 C6336 1.321 1_655 S
N6340 C6337 1.384 . S
N6341 C6333 1.427 . S
N6341 C6339 1.384 . S
H6342 C6348 0.930 . S
H6343 C6352 0.930 . S
H6344 C6357 0.929 . S
H6345 C6355 0.929 . S
H6346 C6350 0.929 . S
H6347 C6356 0.929 . S
C6348 H6342 0.930 . S
C6348 C6349 1.367 . S
C6348 C6356 1.378 . S
C6349 C6348 1.367 . S
C6349 C6357 1.433 . S
C6350 H6346 0.929 . S
C6350 C6352 1.378 . S
C6350 C6354 1.350 . S
C6351 C6354 1.463 . S
C6351 C6356 1.350 . S
C6351 N6359 1.427 . S
C6352 H6343 0.930 . S
C6352 C6350 1.378 . S
C6352 C6353 1.367 . S
C6353 C6352 1.367 . S
C6353 C6355 1.433 . S
C6354 C6350 1.350 . S
C6354 C6351 1.463 . S
C6354 N6358 1.427 . S
C6355 H6345 0.929 . S
C6355 C6353 1.433 . S
C6355 N6358 1.384 . S
C6356 H6347 0.929 . S
C6356 C6348 1.378 . S
C6356 C6351 1.350 . S
C6357 H6344 0.929 . S
C6357 C6349 1.433 . S
C6357 N6359 1.384 . S
N6358 C6354 1.427 . S
N6358 C6355 1.384 . S
N6359 C6351 1.427 . S
N6359 C6357 1.384 . S
H6360 C6366 0.930 . S
H6361 C6370 0.930 . S
H6362 C6375 0.929 . S
H6363 C6373 0.929 . S
H6364 C6368 0.929 . S
H6365 C6374 0.929 . S
C6366 H6360 0.930 . S
C6366 C6367 1.367 . S
C6366 C6374 1.378 . S
C6367 C6366 1.367 . S
C6367 C6375 1.433 . S
C6368 H6364 0.929 . S
C6368 C6370 1.378 . S
C6368 C6372 1.350 . S
C6369 C6372 1.463 . S
C6369 C6374 1.350 . S
C6369 N6377 1.427 . S
C6370 H6361 0.930 . S
C6370 C6368 1.378 . S
C6370 C6371 1.367 . S
C6371 C6370 1.367 . S
C6371 C6373 1.433 . S
C6372 C6368 1.350 . S
C6372 C6369 1.463 . S
C6372 N6376 1.427 . S
C6373 H6363 0.929 . S
C6373 C6371 1.433 . S
C6373 N6376 1.384 . S
C6374 H6365 0.929 . S
C6374 C6366 1.378 . S
C6374 C6369 1.350 . S
C6375 H6362 0.929 . S
C6375 C6367 1.433 . S
C6375 N6377 1.384 . S
N6376 C6372 1.427 . S
N6376 C6373 1.384 . S
N6377 C6369 1.427 . S
N6377 C6375 1.384 . S
H6378 C6384 0.930 . S
H6379 C6388 0.930 . S
H6380 C6393 0.929 . S
H6381 C6391 0.929 . S
H6382 C6386 0.929 . S
H6383 C6392 0.929 . S
C6384 H6378 0.930 . S
C6384 C6385 1.367 . S
C6384 C6392 1.378 . S
C6385 C6384 1.367 . S
C6385 C6393 1.433 . S
C6386 H6382 0.929 . S
C6386 C6388 1.378 . S
C6386 C6390 1.350 . S
C6387 C6390 1.463 . S
C6387 C6392 1.350 . S
C6387 N6395 1.427 . S
C6388 H6379 0.930 . S
C6388 C6386 1.378 . S
C6388 C6389 1.367 . S
C6389 C6388 1.367 . S
C6389 C6391 1.433 . S
C6390 C6386 1.350 . S
C6390 C6387 1.463 . S
C6390 N6394 1.427 . S
C6391 H6381 0.929 . S
C6391 C6389 1.433 . S
C6391 N6394 1.384 . S
C6392 H6383 0.929 . S
C6392 C6384 1.378 . S
C6392 C6387 1.350 . S
C6393 H6380 0.929 . S
C6393 C6385 1.433 . S
C6393 N6395 1.384 . S
N6394 C6390 1.427 . S
N6394 C6391 1.384 . S
N6395 C6387 1.427 . S
N6395 C6393 1.384 . S
H6396 C6402 0.930 . S
H6397 C6406 0.930 . S
H6398 C6411 0.929 . S
H6399 C6409 0.929 . S
H6400 C6404 0.929 . S
H6401 C6410 0.929 . S
C6402 H6396 0.930 . S
C6402 C6403 1.367 . S
C6402 C6410 1.378 . S
C6403 C6402 1.367 . S
C6403 C6411 1.433 . S
C6404 H6400 0.929 . S
C6404 C6406 1.378 . S
C6404 C6408 1.267 1_655 S
C6405 C6408 1.563 . S
C6405 C6410 1.350 . S
C6405 N6413 1.427 . S
C6406 H6397 0.930 . S
C6406 C6404 1.378 . S
C6406 C6407 1.367 . S
C6407 C6406 1.367 . S
C6407 C6409 1.433 . S
C6408 C6404 1.267 1_455 S
C6408 C6405 1.563 . S
C6408 N6412 1.424 . S
C6409 H6399 0.929 . S
C6409 C6407 1.433 . S
C6409 N6412 1.378 1_655 S
C6410 H6401 0.929 . S
C6410 C6402 1.378 . S
C6410 C6405 1.350 . S
C6411 H6398 0.929 . S
C6411 C6403 1.433 . S
C6411 N6413 1.384 . S
N6412 C6408 1.424 . S
N6412 C6409 1.378 1_455 S
N6413 C6405 1.427 . S
N6413 C6411 1.384 . S
H6414 C6420 0.930 . S
H6415 C6424 0.930 . S
H6416 C6429 0.929 . S
H6417 C6427 0.929 . S
H6418 C6422 0.929 . S
H6419 C6428 0.929 . S
C6420 H6414 0.930 . S
C6420 C6421 1.367 . S
C6420 C6428 1.378 . S
C6421 C6420 1.367 . S
C6421 C6429 1.433 . S
C6422 H6418 0.929 . S
C6422 C6424 1.378 . S
C6422 C6426 1.350 . S
C6423 C6426 1.463 . S
C6423 C6428 1.350 . S
C6423 N6431 1.427 . S
C6424 H6415 0.930 . S
C6424 C6422 1.378 . S
C6424 C6425 1.367 . S
C6425 C6424 1.367 . S
C6425 C6427 1.433 . S
C6426 C6422 1.350 . S
C6426 C6423 1.463 . S
C6426 N6430 1.427 . S
C6427 H6417 0.929 . S
C6427 C6425 1.433 . S
C6427 N6430 1.384 . S
C6428 H6419 0.929 . S
C6428 C6420 1.378 . S
C6428 C6423 1.350 . S
C6429 H6416 0.929 . S
C6429 C6421 1.433 . S
C6429 N6431 1.384 . S
N6430 C6426 1.427 . S
N6430 C6427 1.384 . S
N6431 C6423 1.427 . S
N6431 C6429 1.384 . S
H6432 C6438 0.930 . S
H6433 C6442 0.930 . S
H6434 C6447 0.929 . S
H6435 C6445 0.929 . S
H6436 C6440 0.929 . S
H6437 C6446 0.929 . S
C6438 H6432 0.930 . S
C6438 C6439 1.367 . S
C6438 C6446 1.378 . S
C6439 C6438 1.367 . S
C6439 C6447 1.433 . S
C6440 H6436 0.929 . S
C6440 C6442 1.378 . S
C6440 C6444 1.350 . S
C6441 C6444 1.463 . S
C6441 C6446 1.350 . S
C6441 N6449 1.427 . S
C6442 H6433 0.930 . S
C6442 C6440 1.378 . S
C6442 C6443 1.367 . S
C6443 C6442 1.367 . S
C6443 C6445 1.433 . S
C6444 C6440 1.350 . S
C6444 C6441 1.463 . S
C6444 N6448 1.427 . S
C6445 H6435 0.929 . S
C6445 C6443 1.433 . S
C6445 N6448 1.384 . S
C6446 H6437 0.929 . S
C6446 C6438 1.378 . S
C6446 C6441 1.350 . S
C6447 H6434 0.929 . S
C6447 C6439 1.433 . S
C6447 N6449 1.384 . S
N6448 C6444 1.427 . S
N6448 C6445 1.384 . S
N6449 C6441 1.427 . S
N6449 C6447 1.384 . S
H6450 C6456 0.930 . S
H6451 C6460 0.930 . S
H6452 C6465 0.929 . S
H6453 C6463 0.929 . S
H6454 C6458 0.929 . S
H6455 C6464 0.929 . S
C6456 H6450 0.930 . S
C6456 C6457 1.367 . S
C6456 C6464 1.378 . S
C6457 C6456 1.367 . S
C6457 C6465 1.433 . S
C6458 H6454 0.929 . S
C6458 C6460 1.378 . S
C6458 C6462 1.350 . S
C6459 C6462 1.463 . S
C6459 C6464 1.350 . S
C6459 N6467 1.427 . S
C6460 H6451 0.930 . S
C6460 C6458 1.378 . S
C6460 C6461 1.367 . S
C6461 C6460 1.367 . S
C6461 C6463 1.433 . S
C6462 C6458 1.350 . S
C6462 C6459 1.463 . S
C6462 N6466 1.427 . S
C6463 H6453 0.929 . S
C6463 C6461 1.433 . S
C6463 N6466 1.384 . S
C6464 H6455 0.929 . S
C6464 C6456 1.378 . S
C6464 C6459 1.350 . S
C6465 H6452 0.929 . S
C6465 C6457 1.433 . S
C6465 N6467 1.384 . S
N6466 C6462 1.427 . S
N6466 C6463 1.384 . S
N6467 C6459 1.427 . S
N6467 C6465 1.384 . S
H6468 C6474 0.930 . S
H6469 C6478 0.930 . S
H6470 C6483 0.929 . S
H6471 C6481 0.929 . S
H6472 C6476 0.929 . S
H6473 C6482 0.929 . S
C6474 H6468 0.930 . S
C6474 C6475 1.367 . S
C6474 C6482 1.378 . S
C6475 C6474 1.367 . S
C6475 C6483 1.433 . S
C6476 H6472 0.929 . S
C6476 C6478 1.378 . S
C6476 C6480 1.350 . S
C6477 C6480 1.463 . S
C6477 C6482 1.350 . S
C6477 N6485 1.427 . S
C6478 H6469 0.930 . S
C6478 C6476 1.378 . S
C6478 C6479 1.367 . S
C6479 C6478 1.367 . S
C6479 C6481 1.433 . S
C6480 C6476 1.350 . S
C6480 C6477 1.463 . S
C6480 N6484 1.427 . S
C6481 H6471 0.929 . S
C6481 C6479 1.433 . S
C6481 N6484 1.384 . S
C6482 H6473 0.929 . S
C6482 C6474 1.378 . S
C6482 C6477 1.350 . S
C6483 H6470 0.929 . S
C6483 C6475 1.433 . S
C6483 N6485 1.384 . S
N6484 C6480 1.427 . S
N6484 C6481 1.384 . S
N6485 C6477 1.427 . S
N6485 C6483 1.384 . S
H6486 C6492 0.930 . S
H6487 C6496 0.930 . S
H6488 C6501 0.929 . S
H6489 C6499 0.929 . S
H6490 C6494 0.929 . S
H6491 C6500 0.929 . S
C6492 H6486 0.930 . S
C6492 C6493 1.367 . S
C6492 C6500 1.378 . S
C6493 C6492 1.367 . S
C6493 C6501 1.433 . S
C6494 H6490 0.929 . S
C6494 C6496 1.378 . S
C6494 C6498 1.350 . S
C6495 C6498 1.463 . S
C6495 C6500 1.350 . S
C6495 N6503 1.427 . S
C6496 H6487 0.930 . S
C6496 C6494 1.378 . S
C6496 C6497 1.367 . S
C6497 C6496 1.367 . S
C6497 C6499 1.433 . S
C6498 C6494 1.350 . S
C6498 C6495 1.463 . S
C6498 N6502 1.427 . S
C6499 H6489 0.929 . S
C6499 C6497 1.433 . S
C6499 N6502 1.384 . S
C6500 H6491 0.929 . S
C6500 C6492 1.378 . S
C6500 C6495 1.350 . S
C6501 H6488 0.929 . S
C6501 C6493 1.433 . S
C6501 N6503 1.384 . S
N6502 C6498 1.427 . S
N6502 C6499 1.384 . S
N6503 C6495 1.427 . S
N6503 C6501 1.384 . S
H6504 C6510 0.930 . S
H6505 C6514 0.930 . S
H6506 C6519 0.929 . S
H6507 C6517 0.929 . S
H6508 C6512 0.929 . S
H6509 C6518 0.929 . S
C6510 H6504 0.930 . S
C6510 C6511 1.367 . S
C6510 C6518 1.378 . S
C6511 C6510 1.367 . S
C6511 C6519 1.433 . S
C6512 H6508 0.929 . S
C6512 C6514 1.378 . S
C6512 C6516 1.350 . S
C6513 C6516 1.463 . S
C6513 C6518 1.350 . S
C6513 N6521 1.427 . S
C6514 H6505 0.930 . S
C6514 C6512 1.378 . S
C6514 C6515 1.367 . S
C6515 C6514 1.367 . S
C6515 C6517 1.433 . S
C6516 C6512 1.350 . S
C6516 C6513 1.463 . S
C6516 N6520 1.427 . S
C6517 H6507 0.929 . S
C6517 C6515 1.433 . S
C6517 N6520 1.384 . S
C6518 H6509 0.929 . S
C6518 C6510 1.378 . S
C6518 C6513 1.350 . S
C6519 H6506 0.929 . S
C6519 C6511 1.433 . S
C6519 N6521 1.384 . S
N6520 C6516 1.427 . S
N6520 C6517 1.384 . S
N6521 C6513 1.427 . S
N6521 C6519 1.384 . S
H6522 C6528 0.930 . S
H6523 C6532 0.930 . S
H6524 C6537 0.929 . S
H6525 C6535 0.929 . S
H6526 C6530 0.929 . S
H6527 C6536 0.929 . S
C6528 H6522 0.930 . S
C6528 C6529 1.367 . S
C6528 C6536 1.378 . S
C6529 C6528 1.367 . S
C6529 C6537 1.433 . S
C6530 H6526 0.929 . S
C6530 C6532 1.378 . S
C6530 C6534 1.350 . S
C6531 C6534 1.463 . S
C6531 C6536 1.350 . S
C6531 N6539 1.427 . S
C6532 H6523 0.930 . S
C6532 C6530 1.378 . S
C6532 C6533 1.367 . S
C6533 C6532 1.367 . S
C6533 C6535 1.433 . S
C6534 C6530 1.350 . S
C6534 C6531 1.463 . S
C6534 N6538 1.427 . S
C6535 H6525 0.929 . S
C6535 C6533 1.433 . S
C6535 N6538 1.384 . S
C6536 H6527 0.929 . S
C6536 C6528 1.378 . S
C6536 C6531 1.350 . S
C6537 H6524 0.929 . S
C6537 C6529 1.433 . S
C6537 N6539 1.384 . S
N6538 C6534 1.427 . S
N6538 C6535 1.384 . S
N6539 C6531 1.427 . S
N6539 C6537 1.384 . S
H6540 C6546 0.930 . S
H6541 C6550 0.930 . S
H6542 C6555 0.929 . S
H6543 C6553 0.929 . S
H6544 C6548 0.929 . S
H6545 C6554 0.929 . S
C6546 H6540 0.930 . S
C6546 C6547 1.367 . S
C6546 C6554 1.378 . S
C6547 C6546 1.367 . S
C6547 C6555 1.433 . S
C6548 H6544 0.929 . S
C6548 C6550 1.378 . S
C6548 C6552 1.350 . S
C6549 C6552 1.463 . S
C6549 C6554 1.350 . S
C6549 N6557 1.427 . S
C6550 H6541 0.930 . S
C6550 C6548 1.378 . S
C6550 C6551 1.367 . S
C6551 C6550 1.367 . S
C6551 C6553 1.433 . S
C6552 C6548 1.350 . S
C6552 C6549 1.463 . S
C6552 N6556 1.427 . S
C6553 H6543 0.929 . S
C6553 C6551 1.433 . S
C6553 N6556 1.384 . S
C6554 H6545 0.929 . S
C6554 C6546 1.378 . S
C6554 C6549 1.350 . S
C6555 H6542 0.929 . S
C6555 C6547 1.433 . S
C6555 N6557 1.384 . S
N6556 C6552 1.427 . S
N6556 C6553 1.384 . S
N6557 C6549 1.427 . S
N6557 C6555 1.384 . S
H6558 C6564 0.930 . S
H6559 C6568 0.930 . S
H6560 C6573 0.929 . S
H6561 C6571 0.929 . S
H6562 C6566 0.929 . S
H6563 C6572 0.929 . S
C6564 H6558 0.930 . S
C6564 C6565 1.367 . S
C6564 C6572 1.378 . S
C6565 C6564 1.367 . S
C6565 C6573 1.433 . S
C6566 H6562 0.929 . S
C6566 C6568 1.378 . S
C6566 C6570 1.350 . S
C6567 C6570 1.463 . S
C6567 C6572 1.350 . S
C6567 N6575 1.427 . S
C6568 H6559 0.930 . S
C6568 C6566 1.378 . S
C6568 C6569 1.367 . S
C6569 C6568 1.367 . S
C6569 C6571 1.433 . S
C6570 C6566 1.350 . S
C6570 C6567 1.463 . S
C6570 N6574 1.427 . S
C6571 H6561 0.929 . S
C6571 C6569 1.433 . S
C6571 N6574 1.384 . S
C6572 H6563 0.929 . S
C6572 C6564 1.378 . S
C6572 C6567 1.350 . S
C6573 H6560 0.929 . S
C6573 C6565 1.433 . S
C6573 N6575 1.384 . S
N6574 C6570 1.427 . S
N6574 C6571 1.384 . S
N6575 C6567 1.427 . S
N6575 C6573 1.384 . S
H6576 C6582 0.930 . S
H6577 C6586 0.930 . S
H6578 C6591 0.929 . S
H6579 C6589 0.929 . S
H6580 C6584 0.929 . S
H6581 C6590 0.929 . S
C6582 H6576 0.930 . S
C6582 C6583 1.367 . S
C6582 C6590 1.378 . S
C6583 C6582 1.367 . S
C6583 C6591 1.433 . S
C6584 H6580 0.929 . S
C6584 C6586 1.378 . S
C6584 C6588 1.350 . S
C6585 C6588 1.463 . S
C6585 C6590 1.350 . S
C6585 N6593 1.427 . S
C6586 H6577 0.930 . S
C6586 C6584 1.378 . S
C6586 C6587 1.367 . S
C6587 C6586 1.367 . S
C6587 C6589 1.433 . S
C6588 C6584 1.350 . S
C6588 C6585 1.463 . S
C6588 N6592 1.427 . S
C6589 H6579 0.929 . S
C6589 C6587 1.433 . S
C6589 N6592 1.384 . S
C6590 H6581 0.929 . S
C6590 C6582 1.378 . S
C6590 C6585 1.350 . S
C6591 H6578 0.929 . S
C6591 C6583 1.433 . S
C6591 N6593 1.384 . S
N6592 C6588 1.427 . S
N6592 C6589 1.384 . S
N6593 C6585 1.427 . S
N6593 C6591 1.384 . S
H6594 C6600 0.930 . S
H6595 C6604 0.930 . S
H6596 C6609 0.929 . S
H6597 C6607 0.929 . S
H6598 C6602 0.929 . S
H6599 C6608 0.929 . S
C6600 H6594 0.930 . S
C6600 C6601 1.367 . S
C6600 C6608 1.378 . S
C6601 C6600 1.367 . S
C6601 C6609 1.433 . S
C6602 H6598 0.929 . S
C6602 C6604 1.378 . S
C6602 C6606 1.350 . S
C6603 C6606 1.463 . S
C6603 C6608 1.350 . S
C6603 N6611 1.427 . S
C6604 H6595 0.930 . S
C6604 C6602 1.378 . S
C6604 C6605 1.367 . S
C6605 C6604 1.367 . S
C6605 C6607 1.433 . S
C6606 C6602 1.350 . S
C6606 C6603 1.463 . S
C6606 N6610 1.427 . S
C6607 H6597 0.929 . S
C6607 C6605 1.433 . S
C6607 N6610 1.384 . S
C6608 H6599 0.929 . S
C6608 C6600 1.378 . S
C6608 C6603 1.350 . S
C6609 H6596 0.929 . S
C6609 C6601 1.433 . S
C6609 N6611 1.384 . S
N6610 C6606 1.427 . S
N6610 C6607 1.384 . S
N6611 C6603 1.427 . S
N6611 C6609 1.384 . S
H6612 C6618 0.930 . S
H6613 C6622 0.930 . S
H6614 C6627 0.929 . S
H6615 C6625 0.929 . S
H6616 C6620 0.929 . S
H6617 C6626 0.929 . S
C6618 H6612 0.930 . S
C6618 C6619 1.367 . S
C6618 C6626 1.378 . S
C6619 C6618 1.367 . S
C6619 C6627 1.433 . S
C6620 H6616 0.929 . S
C6620 C6622 1.378 . S
C6620 C6624 1.350 . S
C6621 C6624 1.463 . S
C6621 C6626 1.350 . S
C6621 N6629 1.427 . S
C6622 H6613 0.930 . S
C6622 C6620 1.378 . S
C6622 C6623 1.367 . S
C6623 C6622 1.367 . S
C6623 C6625 1.433 . S
C6624 C6620 1.350 . S
C6624 C6621 1.463 . S
C6624 N6628 1.427 . S
C6625 H6615 0.929 . S
C6625 C6623 1.433 . S
C6625 N6628 1.384 . S
C6626 H6617 0.929 . S
C6626 C6618 1.378 . S
C6626 C6621 1.350 . S
C6627 H6614 0.929 . S
C6627 C6619 1.433 . S
C6627 N6629 1.384 . S
N6628 C6624 1.427 . S
N6628 C6625 1.384 . S
N6629 C6621 1.427 . S
N6629 C6627 1.384 . S
H6630 C6636 0.930 . S
H6631 C6640 0.930 . S
H6632 C6645 0.929 . S
H6633 C6643 0.929 . S
H6634 C6638 0.856 1_554 S
H6635 C6644 0.929 . S
C6636 H6630 0.930 . S
C6636 C6637 1.367 . S
C6636 C6644 1.378 . S
C6637 C6636 1.367 . S
C6637 C6645 1.433 . S
C6638 H6634 0.856 1_556 S
C6638 C6640 1.378 . S
C6638 C6642 1.310 1_556 S
C6639 C6642 1.579 . S
C6639 C6644 1.350 . S
C6639 N6647 1.427 . S
C6640 H6631 0.930 . S
C6640 C6638 1.378 . S
C6640 C6641 1.367 . S
C6641 C6640 1.367 . S
C6641 C6643 1.433 . S
C6642 C6638 1.310 1_554 S
C6642 C6639 1.579 . S
C6642 N6646 1.366 1_554 S
C6643 H6633 0.929 . S
C6643 C6641 1.433 . S
C6643 N6646 1.384 . S
C6644 H6635 0.929 . S
C6644 C6636 1.378 . S
C6644 C6639 1.350 . S
C6645 H6632 0.929 . S
C6645 C6637 1.433 . S
C6645 N6647 1.384 . S
N6646 C6642 1.366 1_556 S
N6646 C6643 1.384 . S
N6647 C6639 1.427 . S
N6647 C6645 1.384 . S
H6648 C6654 0.930 . S
H6649 C6658 0.930 . S
H6650 C6663 0.929 . S
H6651 C6661 0.929 . S
H6652 C6656 0.929 . S
H6653 C6662 0.929 . S
C6654 H6648 0.930 . S
C6654 C6655 1.367 . S
C6654 C6662 1.378 . S
C6655 C6654 1.367 . S
C6655 C6663 1.433 . S
C6656 H6652 0.929 . S
C6656 C6658 1.378 . S
C6656 C6660 1.350 . S
C6657 C6660 1.463 . S
C6657 C6662 1.350 . S
C6657 N6665 1.427 . S
C6658 H6649 0.930 . S
C6658 C6656 1.378 . S
C6658 C6659 1.367 . S
C6659 C6658 1.367 . S
C6659 C6661 1.433 . S
C6660 C6656 1.350 . S
C6660 C6657 1.463 . S
C6660 N6664 1.427 . S
C6661 H6651 0.929 . S
C6661 C6659 1.433 . S
C6661 N6664 1.384 . S
C6662 H6653 0.929 . S
C6662 C6654 1.378 . S
C6662 C6657 1.350 . S
C6663 H6650 0.929 . S
C6663 C6655 1.433 . S
C6663 N6665 1.384 . S
N6664 C6660 1.427 . S
N6664 C6661 1.384 . S
N6665 C6657 1.427 . S
N6665 C6663 1.384 . S
H6666 C6672 0.930 . S
H6667 C6676 0.930 . S
H6668 C6681 0.929 . S
H6669 C6679 0.929 . S
H6670 C6674 0.923 . S
H6671 C6680 0.929 . S
C6672 H6666 0.930 . S
C6672 C6673 1.367 . S
C6672 C6680 1.378 . S
C6673 C6672 1.367 . S
C6673 C6681 1.433 . S
C6674 H6670 0.923 . S
C6674 C6676 1.385 1_556 S
C6674 C6678 1.342 . S
C6675 C6678 1.588 . S
C6675 C6680 1.350 . S
C6675 N6683 1.427 . S
C6676 H6667 0.930 . S
C6676 C6674 1.385 1_554 S
C6676 C6677 1.367 . S
C6677 C6676 1.367 . S
C6677 C6679 1.433 . S
C6678 C6674 1.342 . S
C6678 C6675 1.588 . S
C6678 N6682 1.323 1_556 S
C6679 H6669 0.929 . S
C6679 C6677 1.433 . S
C6679 N6682 1.384 . S
C6680 H6671 0.929 . S
C6680 C6672 1.378 . S
C6680 C6675 1.350 . S
C6681 H6668 0.929 . S
C6681 C6673 1.433 . S
C6681 N6683 1.384 . S
N6682 C6678 1.323 1_554 S
N6682 C6679 1.384 . S
N6683 C6675 1.427 . S
N6683 C6681 1.384 . S
H6684 C6690 0.930 . S
H6685 C6694 0.930 . S
H6686 C6699 0.929 . S
H6687 C6697 0.929 . S
H6688 C6692 0.929 . S
H6689 C6698 0.929 . S
C6690 H6684 0.930 . S
C6690 C6691 1.367 . S
C6690 C6698 1.378 . S
C6691 C6690 1.367 . S
C6691 C6699 1.433 . S
C6692 H6688 0.929 . S
C6692 C6694 1.378 . S
C6692 C6696 1.350 . S
C6693 C6696 1.463 . S
C6693 C6698 1.350 . S
C6693 N6701 1.427 . S
C6694 H6685 0.930 . S
C6694 C6692 1.378 . S
C6694 C6695 1.367 . S
C6695 C6694 1.367 . S
C6695 C6697 1.433 . S
C6696 C6692 1.350 . S
C6696 C6693 1.463 . S
C6696 N6700 1.427 . S
C6697 H6687 0.929 . S
C6697 C6695 1.433 . S
C6697 N6700 1.384 . S
C6698 H6689 0.929 . S
C6698 C6690 1.378 . S
C6698 C6693 1.350 . S
C6699 H6686 0.929 . S
C6699 C6691 1.433 . S
C6699 N6701 1.384 . S
N6700 C6696 1.427 . S
N6700 C6697 1.384 . S
N6701 C6693 1.427 . S
N6701 C6699 1.384 . S
H6702 C6708 0.930 . S
H6703 C6712 0.930 . S
H6704 C6717 0.929 . S
H6705 C6715 0.929 . S
H6706 C6710 0.929 . S
H6707 C6716 0.929 . S
C6708 H6702 0.930 . S
C6708 C6709 1.367 . S
C6708 C6716 1.378 . S
C6709 C6708 1.367 . S
C6709 C6717 1.433 . S
C6710 H6706 0.929 . S
C6710 C6712 1.378 . S
C6710 C6714 1.350 . S
C6711 C6714 1.463 . S
C6711 C6716 1.350 . S
C6711 N6719 1.427 . S
C6712 H6703 0.930 . S
C6712 C6710 1.378 . S
C6712 C6713 1.367 . S
C6713 C6712 1.367 . S
C6713 C6715 1.433 . S
C6714 C6710 1.350 . S
C6714 C6711 1.463 . S
C6714 N6718 1.427 . S
C6715 H6705 0.929 . S
C6715 C6713 1.433 . S
C6715 N6718 1.384 . S
C6716 H6707 0.929 . S
C6716 C6708 1.378 . S
C6716 C6711 1.350 . S
C6717 H6704 0.929 . S
C6717 C6709 1.433 . S
C6717 N6719 1.384 . S
N6718 C6714 1.427 . S
N6718 C6715 1.384 . S
N6719 C6711 1.427 . S
N6719 C6717 1.384 . S
H6720 C6726 0.930 . S
H6721 C6730 0.930 . S
H6722 C6735 0.929 . S
H6723 C6733 0.929 . S
H6724 C6728 0.929 . S
H6725 C6734 0.929 . S
C6726 H6720 0.930 . S
C6726 C6727 1.367 . S
C6726 C6734 1.378 . S
C6727 C6726 1.367 . S
C6727 C6735 1.433 . S
C6728 H6724 0.929 . S
C6728 C6730 1.378 . S
C6728 C6732 1.350 . S
C6729 C6732 1.463 . S
C6729 C6734 1.350 . S
C6729 N6737 1.427 . S
C6730 H6721 0.930 . S
C6730 C6728 1.378 . S
C6730 C6731 1.367 . S
C6731 C6730 1.367 . S
C6731 C6733 1.433 . S
C6732 C6728 1.350 . S
C6732 C6729 1.463 . S
C6732 N6736 1.427 . S
C6733 H6723 0.929 . S
C6733 C6731 1.433 . S
C6733 N6736 1.384 . S
C6734 H6725 0.929 . S
C6734 C6726 1.378 . S
C6734 C6729 1.350 . S
C6735 H6722 0.929 . S
C6735 C6727 1.433 . S
C6735 N6737 1.384 . S
N6736 C6732 1.427 . S
N6736 C6733 1.384 . S
N6737 C6729 1.427 . S
N6737 C6735 1.384 . S
H6738 C6744 0.930 . S
H6739 C6748 0.930 . S
H6740 C6753 0.929 . S
H6741 C6751 0.929 . S
H6742 C6746 0.929 . S
H6743 C6752 0.929 . S
C6744 H6738 0.930 . S
C6744 C6745 1.367 . S
C6744 C6752 1.378 . S
C6745 C6744 1.367 . S
C6745 C6753 1.433 . S
C6746 H6742 0.929 . S
C6746 C6748 1.378 . S
C6746 C6750 1.350 . S
C6747 C6750 1.463 . S
C6747 C6752 1.350 . S
C6747 N6755 1.427 . S
C6748 H6739 0.930 . S
C6748 C6746 1.378 . S
C6748 C6749 1.367 . S
C6749 C6748 1.367 . S
C6749 C6751 1.433 . S
C6750 C6746 1.350 . S
C6750 C6747 1.463 . S
C6750 N6754 1.427 . S
C6751 H6741 0.929 . S
C6751 C6749 1.433 . S
C6751 N6754 1.384 . S
C6752 H6743 0.929 . S
C6752 C6744 1.378 . S
C6752 C6747 1.350 . S
C6753 H6740 0.929 . S
C6753 C6745 1.433 . S
C6753 N6755 1.384 . S
N6754 C6750 1.427 . S
N6754 C6751 1.384 . S
N6755 C6747 1.427 . S
N6755 C6753 1.384 . S
H6756 C6762 0.930 . S
H6757 C6766 0.930 . S
H6758 C6771 0.929 . S
H6759 C6769 0.929 . S
H6760 C6764 0.929 . S
H6761 C6770 0.929 . S
C6762 H6756 0.930 . S
C6762 C6763 1.367 . S
C6762 C6770 1.378 . S
C6763 C6762 1.367 . S
C6763 C6771 1.433 . S
C6764 H6760 0.929 . S
C6764 C6766 1.378 . S
C6764 C6768 1.350 . S
C6765 C6768 1.463 . S
C6765 C6770 1.350 . S
C6765 N6773 1.427 . S
C6766 H6757 0.930 . S
C6766 C6764 1.378 . S
C6766 C6767 1.367 . S
C6767 C6766 1.367 . S
C6767 C6769 1.433 . S
C6768 C6764 1.350 . S
C6768 C6765 1.463 . S
C6768 N6772 1.427 . S
C6769 H6759 0.929 . S
C6769 C6767 1.433 . S
C6769 N6772 1.384 . S
C6770 H6761 0.929 . S
C6770 C6762 1.378 . S
C6770 C6765 1.350 . S
C6771 H6758 0.929 . S
C6771 C6763 1.433 . S
C6771 N6773 1.384 . S
N6772 C6768 1.427 . S
N6772 C6769 1.384 . S
N6773 C6765 1.427 . S
N6773 C6771 1.384 . S
H6774 C6780 0.930 . S
H6775 C6784 0.930 . S
H6776 C6789 0.929 . S
H6777 C6787 0.929 . S
H6778 C6782 0.929 . S
H6779 C6788 0.929 . S
C6780 H6774 0.930 . S
C6780 C6781 1.367 . S
C6780 C6788 1.378 . S
C6781 C6780 1.367 . S
C6781 C6789 1.433 . S
C6782 H6778 0.929 . S
C6782 C6784 1.378 . S
C6782 C6786 1.350 . S
C6783 C6786 1.463 . S
C6783 C6788 1.350 . S
C6783 N6791 1.427 . S
C6784 H6775 0.930 . S
C6784 C6782 1.378 . S
C6784 C6785 1.367 . S
C6785 C6784 1.367 . S
C6785 C6787 1.433 . S
C6786 C6782 1.350 . S
C6786 C6783 1.463 . S
C6786 N6790 1.427 . S
C6787 H6777 0.929 . S
C6787 C6785 1.433 . S
C6787 N6790 1.384 . S
C6788 H6779 0.929 . S
C6788 C6780 1.378 . S
C6788 C6783 1.350 . S
C6789 H6776 0.929 . S
C6789 C6781 1.433 . S
C6789 N6791 1.384 . S
N6790 C6786 1.427 . S
N6790 C6787 1.384 . S
N6791 C6783 1.427 . S
N6791 C6789 1.384 . S
H6792 C6798 0.930 . S
H6793 C6802 0.930 . S
H6794 C6807 0.929 . S
H6795 C6805 0.929 . S
H6796 C6800 0.929 . S
H6797 C6806 0.929 . S
C6798 H6792 0.930 . S
C6798 C6799 1.367 . S
C6798 C6806 1.378 . S
C6799 C6798 1.367 . S
C6799 C6807 1.433 . S
C6800 H6796 0.929 . S
C6800 C6802 1.378 . S
C6800 C6804 1.350 . S
C6801 C6804 1.463 . S
C6801 C6806 1.350 . S
C6801 N6809 1.427 . S
C6802 H6793 0.930 . S
C6802 C6800 1.378 . S
C6802 C6803 1.367 . S
C6803 C6802 1.367 . S
C6803 C6805 1.433 . S
C6804 C6800 1.350 . S
C6804 C6801 1.463 . S
C6804 N6808 1.427 . S
C6805 H6795 0.929 . S
C6805 C6803 1.433 . S
C6805 N6808 1.384 . S
C6806 H6797 0.929 . S
C6806 C6798 1.378 . S
C6806 C6801 1.350 . S
C6807 H6794 0.929 . S
C6807 C6799 1.433 . S
C6807 N6809 1.384 . S
N6808 C6804 1.427 . S
N6808 C6805 1.384 . S
N6809 C6801 1.427 . S
N6809 C6807 1.384 . S
H6810 C6816 0.930 . S
H6811 C6820 0.930 . S
H6812 C6825 0.929 . S
H6813 C6823 0.929 . S
H6814 C6818 0.929 . S
H6815 C6824 0.929 . S
C6816 H6810 0.930 . S
C6816 C6817 1.367 . S
C6816 C6824 1.378 . S
C6817 C6816 1.367 . S
C6817 C6825 1.433 . S
C6818 H6814 0.929 . S
C6818 C6820 1.378 . S
C6818 C6822 1.350 . S
C6819 C6822 1.463 . S
C6819 C6824 1.350 . S
C6819 N6827 1.427 . S
C6820 H6811 0.930 . S
C6820 C6818 1.378 . S
C6820 C6821 1.367 . S
C6821 C6820 1.367 . S
C6821 C6823 1.433 . S
C6822 C6818 1.350 . S
C6822 C6819 1.463 . S
C6822 N6826 1.427 . S
C6823 H6813 0.929 . S
C6823 C6821 1.433 . S
C6823 N6826 1.384 . S
C6824 H6815 0.929 . S
C6824 C6816 1.378 . S
C6824 C6819 1.350 . S
C6825 H6812 0.929 . S
C6825 C6817 1.433 . S
C6825 N6827 1.384 . S
N6826 C6822 1.427 . S
N6826 C6823 1.384 . S
N6827 C6819 1.427 . S
N6827 C6825 1.384 . S
H6828 C6834 0.930 . S
H6829 C6838 0.930 . S
H6830 C6843 0.929 . S
H6831 C6841 0.929 . S
H6832 C6836 0.929 . S
H6833 C6842 0.929 . S
C6834 H6828 0.930 . S
C6834 C6835 1.367 . S
C6834 C6842 1.378 . S
C6835 C6834 1.367 . S
C6835 C6843 1.433 . S
C6836 H6832 0.929 . S
C6836 C6838 1.378 . S
C6836 C6840 1.350 . S
C6837 C6840 1.463 . S
C6837 C6842 1.350 . S
C6837 N6845 1.427 . S
C6838 H6829 0.930 . S
C6838 C6836 1.378 . S
C6838 C6839 1.367 . S
C6839 C6838 1.367 . S
C6839 C6841 1.433 . S
C6840 C6836 1.350 . S
C6840 C6837 1.463 . S
C6840 N6844 1.427 . S
C6841 H6831 0.929 . S
C6841 C6839 1.433 . S
C6841 N6844 1.384 . S
C6842 H6833 0.929 . S
C6842 C6834 1.378 . S
C6842 C6837 1.350 . S
C6843 H6830 0.929 . S
C6843 C6835 1.433 . S
C6843 N6845 1.384 . S
N6844 C6840 1.427 . S
N6844 C6841 1.384 . S
N6845 C6837 1.427 . S
N6845 C6843 1.384 . S
H6846 C6852 0.930 . S
H6847 C6856 0.930 . S
H6848 C6861 0.929 . S
H6849 C6859 0.929 . S
H6850 C6854 0.929 . S
H6851 C6860 0.929 . S
C6852 H6846 0.930 . S
C6852 C6853 1.367 . S
C6852 C6860 1.378 . S
C6853 C6852 1.367 . S
C6853 C6861 1.433 . S
C6854 H6850 0.929 . S
C6854 C6856 1.378 . S
C6854 C6858 1.350 . S
C6855 C6858 1.463 . S
C6855 C6860 1.350 . S
C6855 N6863 1.427 . S
C6856 H6847 0.930 . S
C6856 C6854 1.378 . S
C6856 C6857 1.367 . S
C6857 C6856 1.367 . S
C6857 C6859 1.433 . S
C6858 C6854 1.350 . S
C6858 C6855 1.463 . S
C6858 N6862 1.427 . S
C6859 H6849 0.929 . S
C6859 C6857 1.433 . S
C6859 N6862 1.384 . S
C6860 H6851 0.929 . S
C6860 C6852 1.378 . S
C6860 C6855 1.350 . S
C6861 H6848 0.929 . S
C6861 C6853 1.433 . S
C6861 N6863 1.384 . S
N6862 C6858 1.427 . S
N6862 C6859 1.384 . S
N6863 C6855 1.427 . S
N6863 C6861 1.384 . S
H6864 C6870 0.930 . S
H6865 C6874 0.930 . S
H6866 C6879 0.929 . S
H6867 C6877 0.929 . S
H6868 C6872 0.929 . S
H6869 C6878 0.929 . S
C6870 H6864 0.930 . S
C6870 C6871 1.367 . S
C6870 C6878 1.378 . S
C6871 C6870 1.367 . S
C6871 C6879 1.433 . S
C6872 H6868 0.929 . S
C6872 C6874 1.378 . S
C6872 C6876 1.350 . S
C6873 C6876 1.463 . S
C6873 C6878 1.350 . S
C6873 N6881 1.427 . S
C6874 H6865 0.930 . S
C6874 C6872 1.378 . S
C6874 C6875 1.367 . S
C6875 C6874 1.367 . S
C6875 C6877 1.433 . S
C6876 C6872 1.350 . S
C6876 C6873 1.463 . S
C6876 N6880 1.427 . S
C6877 H6867 0.929 . S
C6877 C6875 1.433 . S
C6877 N6880 1.384 . S
C6878 H6869 0.929 . S
C6878 C6870 1.378 . S
C6878 C6873 1.350 . S
C6879 H6866 0.929 . S
C6879 C6871 1.433 . S
C6879 N6881 1.384 . S
N6880 C6876 1.427 . S
N6880 C6877 1.384 . S
N6881 C6873 1.427 . S
N6881 C6879 1.384 . S
H6882 C6888 0.930 . S
H6883 C6892 0.930 . S
H6884 C6897 0.929 . S
H6885 C6895 0.929 . S
H6886 C6890 0.929 . S
H6887 C6896 0.929 . S
C6888 H6882 0.930 . S
C6888 C6889 1.367 . S
C6888 C6896 1.378 . S
C6889 C6888 1.367 . S
C6889 C6897 1.433 . S
C6890 H6886 0.929 . S
C6890 C6892 1.378 . S
C6890 C6894 1.350 . S
C6891 C6894 1.463 . S
C6891 C6896 1.350 . S
C6891 N6899 1.427 . S
C6892 H6883 0.930 . S
C6892 C6890 1.378 . S
C6892 C6893 1.367 . S
C6893 C6892 1.367 . S
C6893 C6895 1.433 . S
C6894 C6890 1.350 . S
C6894 C6891 1.463 . S
C6894 N6898 1.427 . S
C6895 H6885 0.929 . S
C6895 C6893 1.433 . S
C6895 N6898 1.384 . S
C6896 H6887 0.929 . S
C6896 C6888 1.378 . S
C6896 C6891 1.350 . S
C6897 H6884 0.929 . S
C6897 C6889 1.433 . S
C6897 N6899 1.384 . S
N6898 C6894 1.427 . S
N6898 C6895 1.384 . S
N6899 C6891 1.427 . S
N6899 C6897 1.384 . S
H6900 C6906 0.930 . S
H6901 C6910 0.930 . S
H6902 C6915 0.929 . S
H6903 C6913 0.929 . S
H6904 C6908 0.929 . S
H6905 C6914 0.929 . S
C6906 H6900 0.930 . S
C6906 C6907 1.367 . S
C6906 C6914 1.378 . S
C6907 C6906 1.367 . S
C6907 C6915 1.433 . S
C6908 H6904 0.929 . S
C6908 C6910 1.378 . S
C6908 C6912 1.350 . S
C6909 C6912 1.463 . S
C6909 C6914 1.350 . S
C6909 N6917 1.427 . S
C6910 H6901 0.930 . S
C6910 C6908 1.378 . S
C6910 C6911 1.367 . S
C6911 C6910 1.367 . S
C6911 C6913 1.433 . S
C6912 C6908 1.350 . S
C6912 C6909 1.463 . S
C6912 N6916 1.427 . S
C6913 H6903 0.929 . S
C6913 C6911 1.433 . S
C6913 N6916 1.384 . S
C6914 H6905 0.929 . S
C6914 C6906 1.378 . S
C6914 C6909 1.350 . S
C6915 H6902 0.929 . S
C6915 C6907 1.433 . S
C6915 N6917 1.384 . S
N6916 C6912 1.427 . S
N6916 C6913 1.384 . S
N6917 C6909 1.427 . S
N6917 C6915 1.384 . S
H6918 C6924 0.930 . S
H6919 C6928 0.930 . S
H6920 C6933 0.929 . S
H6921 C6931 0.929 . S
H6922 C6926 0.929 . S
H6923 C6932 0.929 . S
C6924 H6918 0.930 . S
C6924 C6925 1.367 . S
C6924 C6932 1.378 . S
C6925 C6924 1.367 . S
C6925 C6933 1.433 . S
C6926 H6922 0.929 . S
C6926 C6928 1.378 . S
C6926 C6930 1.350 . S
C6927 C6930 1.463 . S
C6927 C6932 1.350 . S
C6927 N6935 1.427 . S
C6928 H6919 0.930 . S
C6928 C6926 1.378 . S
C6928 C6929 1.367 . S
C6929 C6928 1.367 . S
C6929 C6931 1.433 . S
C6930 C6926 1.350 . S
C6930 C6927 1.463 . S
C6930 N6934 1.427 . S
C6931 H6921 0.929 . S
C6931 C6929 1.433 . S
C6931 N6934 1.384 . S
C6932 H6923 0.929 . S
C6932 C6924 1.378 . S
C6932 C6927 1.350 . S
C6933 H6920 0.929 . S
C6933 C6925 1.433 . S
C6933 N6935 1.384 . S
N6934 C6930 1.427 . S
N6934 C6931 1.384 . S
N6935 C6927 1.427 . S
N6935 C6933 1.384 . S
H6936 C6942 0.930 . S
H6937 C6946 0.930 . S
H6938 C6951 0.929 . S
H6939 C6949 0.929 . S
H6940 C6944 0.929 . S
H6941 C6950 0.929 . S
C6942 H6936 0.930 . S
C6942 C6943 1.367 . S
C6942 C6950 1.378 . S
C6943 C6942 1.367 . S
C6943 C6951 1.433 . S
C6944 H6940 0.929 . S
C6944 C6946 1.378 . S
C6944 C6948 1.350 . S
C6945 C6948 1.463 . S
C6945 C6950 1.350 . S
C6945 N6953 1.427 . S
C6946 H6937 0.930 . S
C6946 C6944 1.378 . S
C6946 C6947 1.367 . S
C6947 C6946 1.367 . S
C6947 C6949 1.433 . S
C6948 C6944 1.350 . S
C6948 C6945 1.463 . S
C6948 N6952 1.427 . S
C6949 H6939 0.929 . S
C6949 C6947 1.433 . S
C6949 N6952 1.384 . S
C6950 H6941 0.929 . S
C6950 C6942 1.378 . S
C6950 C6945 1.350 . S
C6951 H6938 0.929 . S
C6951 C6943 1.433 . S
C6951 N6953 1.384 . S
N6952 C6948 1.427 . S
N6952 C6949 1.384 . S
N6953 C6945 1.427 . S
N6953 C6951 1.384 . S
H6954 C6960 0.930 . S
H6955 C6964 0.930 . S
H6956 C6969 0.929 . S
H6957 C6967 0.929 . S
H6958 C6962 0.929 . S
H6959 C6968 0.929 . S
C6960 H6954 0.930 . S
C6960 C6961 1.367 . S
C6960 C6968 1.378 . S
C6961 C6960 1.367 . S
C6961 C6969 1.433 . S
C6962 H6958 0.929 . S
C6962 C6964 1.378 . S
C6962 C6966 1.350 . S
C6963 C6966 1.463 . S
C6963 C6968 1.350 . S
C6963 N6971 1.427 . S
C6964 H6955 0.930 . S
C6964 C6962 1.378 . S
C6964 C6965 1.367 . S
C6965 C6964 1.367 . S
C6965 C6967 1.433 . S
C6966 C6962 1.350 . S
C6966 C6963 1.463 . S
C6966 N6970 1.427 . S
C6967 H6957 0.929 . S
C6967 C6965 1.433 . S
C6967 N6970 1.384 . S
C6968 H6959 0.929 . S
C6968 C6960 1.378 . S
C6968 C6963 1.350 . S
C6969 H6956 0.929 . S
C6969 C6961 1.433 . S
C6969 N6971 1.384 . S
N6970 C6966 1.427 . S
N6970 C6967 1.384 . S
N6971 C6963 1.427 . S
N6971 C6969 1.384 . S
H6972 C6978 0.930 . S
H6973 C6982 0.930 . S
H6974 C6987 0.929 . S
H6975 C6985 0.929 . S
H6976 C6980 0.929 . S
H6977 C6986 0.929 . S
C6978 H6972 0.930 . S
C6978 C6979 1.367 . S
C6978 C6986 1.378 . S
C6979 C6978 1.367 . S
C6979 C6987 1.433 . S
C6980 H6976 0.929 . S
C6980 C6982 1.378 . S
C6980 C6984 1.350 . S
C6981 C6984 1.463 . S
C6981 C6986 1.350 . S
C6981 N6989 1.427 . S
C6982 H6973 0.930 . S
C6982 C6980 1.378 . S
C6982 C6983 1.367 . S
C6983 C6982 1.367 . S
C6983 C6985 1.433 . S
C6984 C6980 1.350 . S
C6984 C6981 1.463 . S
C6984 N6988 1.427 . S
C6985 H6975 0.929 . S
C6985 C6983 1.433 . S
C6985 N6988 1.384 . S
C6986 H6977 0.929 . S
C6986 C6978 1.378 . S
C6986 C6981 1.350 . S
C6987 H6974 0.929 . S
C6987 C6979 1.433 . S
C6987 N6989 1.384 . S
N6988 C6984 1.427 . S
N6988 C6985 1.384 . S
N6989 C6981 1.427 . S
N6989 C6987 1.384 . S
H6990 C6996 0.930 . S
H6991 C7000 0.930 . S
H6992 C7005 0.929 . S
H6993 C7003 0.929 . S
H6994 C6998 0.929 . S
H6995 C7004 0.929 . S
C6996 H6990 0.930 . S
C6996 C6997 1.367 . S
C6996 C7004 1.378 . S
C6997 C6996 1.367 . S
C6997 C7005 1.433 . S
C6998 H6994 0.929 . S
C6998 C7000 1.378 . S
C6998 C7002 1.350 . S
C6999 C7002 1.463 . S
C6999 C7004 1.350 . S
C6999 N7007 1.427 . S
C7000 H6991 0.930 . S
C7000 C6998 1.378 . S
C7000 C7001 1.367 . S
C7001 C7000 1.367 . S
C7001 C7003 1.433 . S
C7002 C6998 1.350 . S
C7002 C6999 1.463 . S
C7002 N7006 1.427 . S
C7003 H6993 0.929 . S
C7003 C7001 1.433 . S
C7003 N7006 1.384 . S
C7004 H6995 0.929 . S
C7004 C6996 1.378 . S
C7004 C6999 1.350 . S
C7005 H6992 0.929 . S
C7005 C6997 1.433 . S
C7005 N7007 1.384 . S
N7006 C7002 1.427 . S
N7006 C7003 1.384 . S
N7007 C6999 1.427 . S
N7007 C7005 1.384 . S
H7008 C7014 0.930 . S
H7009 C7018 0.930 . S
H7010 C7023 0.929 . S
H7011 C7021 0.929 . S
H7012 C7016 0.929 . S
H7013 C7022 0.929 . S
C7014 H7008 0.930 . S
C7014 C7015 1.367 . S
C7014 C7022 1.378 . S
C7015 C7014 1.367 . S
C7015 C7023 1.433 . S
C7016 H7012 0.929 . S
C7016 C7018 1.378 . S
C7016 C7020 1.350 . S
C7017 C7020 1.463 . S
C7017 C7022 1.350 . S
C7017 N7025 1.427 . S
C7018 H7009 0.930 . S
C7018 C7016 1.378 . S
C7018 C7019 1.367 . S
C7019 C7018 1.367 . S
C7019 C7021 1.433 . S
C7020 C7016 1.350 . S
C7020 C7017 1.463 . S
C7020 N7024 1.427 . S
C7021 H7011 0.929 . S
C7021 C7019 1.433 . S
C7021 N7024 1.384 . S
C7022 H7013 0.929 . S
C7022 C7014 1.378 . S
C7022 C7017 1.350 . S
C7023 H7010 0.929 . S
C7023 C7015 1.433 . S
C7023 N7025 1.384 . S
N7024 C7020 1.427 . S
N7024 C7021 1.384 . S
N7025 C7017 1.427 . S
N7025 C7023 1.384 . S
H7026 C7032 0.930 . S
H7027 C7036 0.930 . S
H7028 C7041 0.929 . S
H7029 C7039 0.929 . S
H7030 C7034 0.929 . S
H7031 C7040 0.929 . S
C7032 H7026 0.930 . S
C7032 C7033 1.367 . S
C7032 C7040 1.378 . S
C7033 C7032 1.367 . S
C7033 C7041 1.433 . S
C7034 H7030 0.929 . S
C7034 C7036 1.378 . S
C7034 C7038 1.350 . S
C7035 C7038 1.463 . S
C7035 C7040 1.350 . S
C7035 N7043 1.427 . S
C7036 H7027 0.930 . S
C7036 C7034 1.378 . S
C7036 C7037 1.367 . S
C7037 C7036 1.367 . S
C7037 C7039 1.433 . S
C7038 C7034 1.350 . S
C7038 C7035 1.463 . S
C7038 N7042 1.427 . S
C7039 H7029 0.929 . S
C7039 C7037 1.433 . S
C7039 N7042 1.384 . S
C7040 H7031 0.929 . S
C7040 C7032 1.378 . S
C7040 C7035 1.350 . S
C7041 H7028 0.929 . S
C7041 C7033 1.433 . S
C7041 N7043 1.384 . S
N7042 C7038 1.427 . S
N7042 C7039 1.384 . S
N7043 C7035 1.427 . S
N7043 C7041 1.384 . S
H7044 C7050 0.930 . S
H7045 C7054 0.930 . S
H7046 C7059 0.929 . S
H7047 C7057 0.929 . S
H7048 C7052 0.929 . S
H7049 C7058 0.929 . S
C7050 H7044 0.930 . S
C7050 C7051 1.367 . S
C7050 C7058 1.378 . S
C7051 C7050 1.367 . S
C7051 C7059 1.433 . S
C7052 H7048 0.929 . S
C7052 C7054 1.378 . S
C7052 C7056 1.350 . S
C7053 C7056 1.463 . S
C7053 C7058 1.350 . S
C7053 N7061 1.427 . S
C7054 H7045 0.930 . S
C7054 C7052 1.378 . S
C7054 C7055 1.367 . S
C7055 C7054 1.367 . S
C7055 C7057 1.433 . S
C7056 C7052 1.350 . S
C7056 C7053 1.463 . S
C7056 N7060 1.427 . S
C7057 H7047 0.929 . S
C7057 C7055 1.433 . S
C7057 N7060 1.384 . S
C7058 H7049 0.929 . S
C7058 C7050 1.378 . S
C7058 C7053 1.350 . S
C7059 H7046 0.929 . S
C7059 C7051 1.433 . S
C7059 N7061 1.384 . S
N7060 C7056 1.427 . S
N7060 C7057 1.384 . S
N7061 C7053 1.427 . S
N7061 C7059 1.384 . S
H7062 C7068 0.930 . S
H7063 C7072 0.930 . S
H7064 C7077 0.929 . S
H7065 C7075 0.929 . S
H7066 C7070 0.929 . S
H7067 C7076 0.929 . S
C7068 H7062 0.930 . S
C7068 C7069 1.367 . S
C7068 C7076 1.378 . S
C7069 C7068 1.367 . S
C7069 C7077 1.433 . S
C7070 H7066 0.929 . S
C7070 C7072 1.378 . S
C7070 C7074 1.350 . S
C7071 C7074 1.463 . S
C7071 C7076 1.350 . S
C7071 N7079 1.427 . S
C7072 H7063 0.930 . S
C7072 C7070 1.378 . S
C7072 C7073 1.367 . S
C7073 C7072 1.367 . S
C7073 C7075 1.433 . S
C7074 C7070 1.350 . S
C7074 C7071 1.463 . S
C7074 N7078 1.427 . S
C7075 H7065 0.929 . S
C7075 C7073 1.433 . S
C7075 N7078 1.384 . S
C7076 H7067 0.929 . S
C7076 C7068 1.378 . S
C7076 C7071 1.350 . S
C7077 H7064 0.929 . S
C7077 C7069 1.433 . S
C7077 N7079 1.384 . S
N7078 C7074 1.427 . S
N7078 C7075 1.384 . S
N7079 C7071 1.427 . S
N7079 C7077 1.384 . S
H7080 C7086 0.930 . S
H7081 C7090 0.930 . S
H7082 C7095 0.929 . S
H7083 C7093 0.929 . S
H7084 C7088 0.929 . S
H7085 C7094 0.929 . S
C7086 H7080 0.930 . S
C7086 C7087 1.367 . S
C7086 C7094 1.378 . S
C7087 C7086 1.367 . S
C7087 C7095 1.433 . S
C7088 H7084 0.929 . S
C7088 C7090 1.378 . S
C7088 C7092 1.350 . S
C7089 C7092 1.463 . S
C7089 C7094 1.350 . S
C7089 N7097 1.427 . S
C7090 H7081 0.930 . S
C7090 C7088 1.378 . S
C7090 C7091 1.367 . S
C7091 C7090 1.367 . S
C7091 C7093 1.433 . S
C7092 C7088 1.350 . S
C7092 C7089 1.463 . S
C7092 N7096 1.427 . S
C7093 H7083 0.929 . S
C7093 C7091 1.433 . S
C7093 N7096 1.384 . S
C7094 H7085 0.929 . S
C7094 C7086 1.378 . S
C7094 C7089 1.350 . S
C7095 H7082 0.929 . S
C7095 C7087 1.433 . S
C7095 N7097 1.384 . S
N7096 C7092 1.427 . S
N7096 C7093 1.384 . S
N7097 C7089 1.427 . S
N7097 C7095 1.384 . S
H7098 C7104 0.930 . S
H7099 C7108 0.930 . S
H7100 C7113 0.929 . S
H7101 C7111 0.929 . S
H7102 C7106 0.929 . S
H7103 C7112 0.929 . S
C7104 H7098 0.930 . S
C7104 C7105 1.367 . S
C7104 C7112 1.378 . S
C7105 C7104 1.367 . S
C7105 C7113 1.433 . S
C7106 H7102 0.929 . S
C7106 C7108 1.378 . S
C7106 C7110 1.350 . S
C7107 C7110 1.463 . S
C7107 C7112 1.350 . S
C7107 N7115 1.427 . S
C7108 H7099 0.930 . S
C7108 C7106 1.378 . S
C7108 C7109 1.367 . S
C7109 C7108 1.367 . S
C7109 C7111 1.433 . S
C7110 C7106 1.350 . S
C7110 C7107 1.463 . S
C7110 N7114 1.427 . S
C7111 H7101 0.929 . S
C7111 C7109 1.433 . S
C7111 N7114 1.384 . S
C7112 H7103 0.929 . S
C7112 C7104 1.378 . S
C7112 C7107 1.350 . S
C7113 H7100 0.929 . S
C7113 C7105 1.433 . S
C7113 N7115 1.384 . S
N7114 C7110 1.427 . S
N7114 C7111 1.384 . S
N7115 C7107 1.427 . S
N7115 C7113 1.384 . S
H7116 C7122 0.930 . S
H7117 C7126 0.930 . S
H7118 C7131 0.929 . S
H7119 C7129 0.929 . S
H7120 C7124 0.929 . S
H7121 C7130 0.929 . S
C7122 H7116 0.930 . S
C7122 C7123 1.367 . S
C7122 C7130 1.378 . S
C7123 C7122 1.367 . S
C7123 C7131 1.433 . S
C7124 H7120 0.929 . S
C7124 C7126 1.378 . S
C7124 C7128 1.350 . S
C7125 C7128 1.463 . S
C7125 C7130 1.350 . S
C7125 N7133 1.427 . S
C7126 H7117 0.930 . S
C7126 C7124 1.378 . S
C7126 C7127 1.367 . S
C7127 C7126 1.367 . S
C7127 C7129 1.433 . S
C7128 C7124 1.350 . S
C7128 C7125 1.463 . S
C7128 N7132 1.427 . S
C7129 H7119 0.929 . S
C7129 C7127 1.433 . S
C7129 N7132 1.384 . S
C7130 H7121 0.929 . S
C7130 C7122 1.378 . S
C7130 C7125 1.350 . S
C7131 H7118 0.929 . S
C7131 C7123 1.433 . S
C7131 N7133 1.384 . S
N7132 C7128 1.427 . S
N7132 C7129 1.384 . S
N7133 C7125 1.427 . S
N7133 C7131 1.384 . S
H7134 C7140 0.930 . S
H7135 C7144 0.930 . S
H7136 C7149 0.929 . S
H7137 C7147 0.929 . S
H7138 C7142 0.929 . S
H7139 C7148 0.929 . S
C7140 H7134 0.930 . S
C7140 C7141 1.367 . S
C7140 C7148 1.378 . S
C7141 C7140 1.367 . S
C7141 C7149 1.433 . S
C7142 H7138 0.929 . S
C7142 C7144 1.378 . S
C7142 C7146 1.350 . S
C7143 C7146 1.463 . S
C7143 C7148 1.350 . S
C7143 N7151 1.427 . S
C7144 H7135 0.930 . S
C7144 C7142 1.378 . S
C7144 C7145 1.367 . S
C7145 C7144 1.367 . S
C7145 C7147 1.433 . S
C7146 C7142 1.350 . S
C7146 C7143 1.463 . S
C7146 N7150 1.427 . S
C7147 H7137 0.929 . S
C7147 C7145 1.433 . S
C7147 N7150 1.384 . S
C7148 H7139 0.929 . S
C7148 C7140 1.378 . S
C7148 C7143 1.350 . S
C7149 H7136 0.929 . S
C7149 C7141 1.433 . S
C7149 N7151 1.384 . S
N7150 C7146 1.427 . S
N7150 C7147 1.384 . S
N7151 C7143 1.427 . S
N7151 C7149 1.384 . S
H7152 C7158 0.930 . S
H7153 C7162 0.930 . S
H7154 C7167 0.929 . S
H7155 C7165 0.929 . S
H7156 C7160 0.929 . S
H7157 C7166 0.929 . S
C7158 H7152 0.930 . S
C7158 C7159 1.367 . S
C7158 C7166 1.378 . S
C7159 C7158 1.367 . S
C7159 C7167 1.433 . S
C7160 H7156 0.929 . S
C7160 C7162 1.378 . S
C7160 C7164 1.350 . S
C7161 C7164 1.463 . S
C7161 C7166 1.350 . S
C7161 N7169 1.427 . S
C7162 H7153 0.930 . S
C7162 C7160 1.378 . S
C7162 C7163 1.367 . S
C7163 C7162 1.367 . S
C7163 C7165 1.433 . S
C7164 C7160 1.350 . S
C7164 C7161 1.463 . S
C7164 N7168 1.427 . S
C7165 H7155 0.929 . S
C7165 C7163 1.433 . S
C7165 N7168 1.384 . S
C7166 H7157 0.929 . S
C7166 C7158 1.378 . S
C7166 C7161 1.350 . S
C7167 H7154 0.929 . S
C7167 C7159 1.433 . S
C7167 N7169 1.384 . S
N7168 C7164 1.427 . S
N7168 C7165 1.384 . S
N7169 C7161 1.427 . S
N7169 C7167 1.384 . S
H7170 C7176 0.930 . S
H7171 C7180 0.930 . S
H7172 C7185 0.929 . S
H7173 C7183 0.929 . S
H7174 C7178 0.929 . S
H7175 C7184 0.929 . S
C7176 H7170 0.930 . S
C7176 C7177 1.367 . S
C7176 C7184 1.378 . S
C7177 C7176 1.367 . S
C7177 C7185 1.433 . S
C7178 H7174 0.929 . S
C7178 C7180 1.378 . S
C7178 C7182 1.350 . S
C7179 C7182 1.463 . S
C7179 C7184 1.350 . S
C7179 N7187 1.427 . S
C7180 H7171 0.930 . S
C7180 C7178 1.378 . S
C7180 C7181 1.367 . S
C7181 C7180 1.367 . S
C7181 C7183 1.433 . S
C7182 C7178 1.350 . S
C7182 C7179 1.463 . S
C7182 N7186 1.427 . S
C7183 H7173 0.929 . S
C7183 C7181 1.433 . S
C7183 N7186 1.384 . S
C7184 H7175 0.929 . S
C7184 C7176 1.378 . S
C7184 C7179 1.350 . S
C7185 H7172 0.929 . S
C7185 C7177 1.433 . S
C7185 N7187 1.384 . S
N7186 C7182 1.427 . S
N7186 C7183 1.384 . S
N7187 C7179 1.427 . S
N7187 C7185 1.384 . S
H7188 C7194 0.930 . S
H7189 C7198 0.930 . S
H7190 C7203 0.929 . S
H7191 C7201 0.929 . S
H7192 C7196 0.929 . S
H7193 C7202 0.929 . S
C7194 H7188 0.930 . S
C7194 C7195 1.367 . S
C7194 C7202 1.378 . S
C7195 C7194 1.367 . S
C7195 C7203 1.433 . S
C7196 H7192 0.929 . S
C7196 C7198 1.378 . S
C7196 C7200 1.350 . S
C7197 C7200 1.463 . S
C7197 C7202 1.350 . S
C7197 N7205 1.427 . S
C7198 H7189 0.930 . S
C7198 C7196 1.378 . S
C7198 C7199 1.367 . S
C7199 C7198 1.367 . S
C7199 C7201 1.433 . S
C7200 C7196 1.350 . S
C7200 C7197 1.463 . S
C7200 N7204 1.427 . S
C7201 H7191 0.929 . S
C7201 C7199 1.433 . S
C7201 N7204 1.384 . S
C7202 H7193 0.929 . S
C7202 C7194 1.378 . S
C7202 C7197 1.350 . S
C7203 H7190 0.929 . S
C7203 C7195 1.433 . S
C7203 N7205 1.384 . S
N7204 C7200 1.427 . S
N7204 C7201 1.384 . S
N7205 C7197 1.427 . S
N7205 C7203 1.384 . S
H7206 C7212 0.930 . S
H7207 C7216 0.930 . S
H7208 C7221 0.929 . S
H7209 C7219 0.929 . S
H7210 C7214 0.929 . S
H7211 C7220 0.929 . S
C7212 H7206 0.930 . S
C7212 C7213 1.367 . S
C7212 C7220 1.378 . S
C7213 C7212 1.367 . S
C7213 C7221 1.433 . S
C7214 H7210 0.929 . S
C7214 C7216 1.378 . S
C7214 C7218 1.350 . S
C7215 C7218 1.463 . S
C7215 C7220 1.350 . S
C7215 N7223 1.427 . S
C7216 H7207 0.930 . S
C7216 C7214 1.378 . S
C7216 C7217 1.367 . S
C7217 C7216 1.367 . S
C7217 C7219 1.433 . S
C7218 C7214 1.350 . S
C7218 C7215 1.463 . S
C7218 N7222 1.427 . S
C7219 H7209 0.929 . S
C7219 C7217 1.433 . S
C7219 N7222 1.384 . S
C7220 H7211 0.929 . S
C7220 C7212 1.378 . S
C7220 C7215 1.350 . S
C7221 H7208 0.929 . S
C7221 C7213 1.433 . S
C7221 N7223 1.384 . S
N7222 C7218 1.427 . S
N7222 C7219 1.384 . S
N7223 C7215 1.427 . S
N7223 C7221 1.384 . S
H7224 C7230 0.930 . S
H7225 C7234 0.930 . S
H7226 C7239 0.929 . S
H7227 C7237 0.929 . S
H7228 C7232 0.929 . S
H7229 C7238 0.929 . S
C7230 H7224 0.930 . S
C7230 C7231 1.367 . S
C7230 C7238 1.378 . S
C7231 C7230 1.367 . S
C7231 C7239 1.433 . S
C7232 H7228 0.929 . S
C7232 C7234 1.378 . S
C7232 C7236 1.350 . S
C7233 C7236 1.463 . S
C7233 C7238 1.350 . S
C7233 N7241 1.427 . S
C7234 H7225 0.930 . S
C7234 C7232 1.378 . S
C7234 C7235 1.367 . S
C7235 C7234 1.367 . S
C7235 C7237 1.433 . S
C7236 C7232 1.350 . S
C7236 C7233 1.463 . S
C7236 N7240 1.427 . S
C7237 H7227 0.929 . S
C7237 C7235 1.433 . S
C7237 N7240 1.384 . S
C7238 H7229 0.929 . S
C7238 C7230 1.378 . S
C7238 C7233 1.350 . S
C7239 H7226 0.929 . S
C7239 C7231 1.433 . S
C7239 N7241 1.384 . S
N7240 C7236 1.427 . S
N7240 C7237 1.384 . S
N7241 C7233 1.427 . S
N7241 C7239 1.384 . S
H7242 C7248 0.930 . S
H7243 C7252 0.930 . S
H7244 C7257 0.929 . S
H7245 C7255 0.929 . S
H7246 C7250 0.929 . S
H7247 C7256 0.929 . S
C7248 H7242 0.930 . S
C7248 C7249 1.367 . S
C7248 C7256 1.378 . S
C7249 C7248 1.367 . S
C7249 C7257 1.433 . S
C7250 H7246 0.929 . S
C7250 C7252 1.378 . S
C7250 C7254 1.350 . S
C7251 C7254 1.463 . S
C7251 C7256 1.350 . S
C7251 N7259 1.427 . S
C7252 H7243 0.930 . S
C7252 C7250 1.378 . S
C7252 C7253 1.367 . S
C7253 C7252 1.367 . S
C7253 C7255 1.433 . S
C7254 C7250 1.350 . S
C7254 C7251 1.463 . S
C7254 N7258 1.427 . S
C7255 H7245 0.929 . S
C7255 C7253 1.433 . S
C7255 N7258 1.384 . S
C7256 H7247 0.929 . S
C7256 C7248 1.378 . S
C7256 C7251 1.350 . S
C7257 H7244 0.929 . S
C7257 C7249 1.433 . S
C7257 N7259 1.384 . S
N7258 C7254 1.427 . S
N7258 C7255 1.384 . S
N7259 C7251 1.427 . S
N7259 C7257 1.384 . S
H7260 C7266 0.930 . S
H7261 C7270 0.930 . S
H7262 C7275 0.929 . S
H7263 C7273 0.929 . S
H7264 C7268 0.929 . S
H7265 C7274 0.929 . S
C7266 H7260 0.930 . S
C7266 C7267 1.367 . S
C7266 C7274 1.378 . S
C7267 C7266 1.367 . S
C7267 C7275 1.433 . S
C7268 H7264 0.929 . S
C7268 C7270 1.378 . S
C7268 C7272 1.350 . S
C7269 C7272 1.463 . S
C7269 C7274 1.350 . S
C7269 N7277 1.427 . S
C7270 H7261 0.930 . S
C7270 C7268 1.378 . S
C7270 C7271 1.367 . S
C7271 C7270 1.367 . S
C7271 C7273 1.433 . S
C7272 C7268 1.350 . S
C7272 C7269 1.463 . S
C7272 N7276 1.427 . S
C7273 H7263 0.929 . S
C7273 C7271 1.433 . S
C7273 N7276 1.384 . S
C7274 H7265 0.929 . S
C7274 C7266 1.378 . S
C7274 C7269 1.350 . S
C7275 H7262 0.929 . S
C7275 C7267 1.433 . S
C7275 N7277 1.384 . S
N7276 C7272 1.427 . S
N7276 C7273 1.384 . S
N7277 C7269 1.427 . S
N7277 C7275 1.384 . S
H7278 C7284 0.930 . S
H7279 C7288 0.930 . S
H7280 C7293 0.929 . S
H7281 C7291 0.929 . S
H7282 C7286 0.929 . S
H7283 C7292 0.929 . S
C7284 H7278 0.930 . S
C7284 C7285 1.367 . S
C7284 C7292 1.378 . S
C7285 C7284 1.367 . S
C7285 C7293 1.433 . S
C7286 H7282 0.929 . S
C7286 C7288 1.378 . S
C7286 C7290 1.350 . S
C7287 C7290 1.463 . S
C7287 C7292 1.350 . S
C7287 N7295 1.427 . S
C7288 H7279 0.930 . S
C7288 C7286 1.378 . S
C7288 C7289 1.367 . S
C7289 C7288 1.367 . S
C7289 C7291 1.433 . S
C7290 C7286 1.350 . S
C7290 C7287 1.463 . S
C7290 N7294 1.427 . S
C7291 H7281 0.929 . S
C7291 C7289 1.433 . S
C7291 N7294 1.384 . S
C7292 H7283 0.929 . S
C7292 C7284 1.378 . S
C7292 C7287 1.350 . S
C7293 H7280 0.929 . S
C7293 C7285 1.433 . S
C7293 N7295 1.384 . S
N7294 C7290 1.427 . S
N7294 C7291 1.384 . S
N7295 C7287 1.427 . S
N7295 C7293 1.384 . S
H7296 C7302 0.930 . S
H7297 C7306 0.930 . S
H7298 C7311 0.929 . S
H7299 C7309 0.929 . S
H7300 C7304 0.929 . S
H7301 C7310 0.929 . S
C7302 H7296 0.930 . S
C7302 C7303 1.367 . S
C7302 C7310 1.378 . S
C7303 C7302 1.367 . S
C7303 C7311 1.433 . S
C7304 H7300 0.929 . S
C7304 C7306 1.378 . S
C7304 C7308 1.350 . S
C7305 C7308 1.463 . S
C7305 C7310 1.350 . S
C7305 N7313 1.427 . S
C7306 H7297 0.930 . S
C7306 C7304 1.378 . S
C7306 C7307 1.367 . S
C7307 C7306 1.367 . S
C7307 C7309 1.433 . S
C7308 C7304 1.350 . S
C7308 C7305 1.463 . S
C7308 N7312 1.427 . S
C7309 H7299 0.929 . S
C7309 C7307 1.433 . S
C7309 N7312 1.384 . S
C7310 H7301 0.929 . S
C7310 C7302 1.378 . S
C7310 C7305 1.350 . S
C7311 H7298 0.929 . S
C7311 C7303 1.433 . S
C7311 N7313 1.384 . S
N7312 C7308 1.427 . S
N7312 C7309 1.384 . S
N7313 C7305 1.427 . S
N7313 C7311 1.384 . S
H7314 C7320 0.930 . S
H7315 C7324 0.930 . S
H7316 C7329 0.929 . S
H7317 C7327 0.929 . S
H7318 C7322 0.929 . S
H7319 C7328 0.929 . S
C7320 H7314 0.930 . S
C7320 C7321 1.367 . S
C7320 C7328 1.378 . S
C7321 C7320 1.367 . S
C7321 C7329 1.433 . S
C7322 H7318 0.929 . S
C7322 C7324 1.378 . S
C7322 C7326 1.350 . S
C7323 C7326 1.463 . S
C7323 C7328 1.350 . S
C7323 N7331 1.427 . S
C7324 H7315 0.930 . S
C7324 C7322 1.378 . S
C7324 C7325 1.367 . S
C7325 C7324 1.367 . S
C7325 C7327 1.433 . S
C7326 C7322 1.350 . S
C7326 C7323 1.463 . S
C7326 N7330 1.427 . S
C7327 H7317 0.929 . S
C7327 C7325 1.433 . S
C7327 N7330 1.384 . S
C7328 H7319 0.929 . S
C7328 C7320 1.378 . S
C7328 C7323 1.350 . S
C7329 H7316 0.929 . S
C7329 C7321 1.433 . S
C7329 N7331 1.384 . S
N7330 C7326 1.427 . S
N7330 C7327 1.384 . S
N7331 C7323 1.427 . S
N7331 C7329 1.384 . S
H7332 C7338 0.930 . S
H7333 C7342 0.930 . S
H7334 C7347 0.929 . S
H7335 C7345 0.929 . S
H7336 C7340 0.929 . S
H7337 C7346 0.929 . S
C7338 H7332 0.930 . S
C7338 C7339 1.367 . S
C7338 C7346 1.378 . S
C7339 C7338 1.367 . S
C7339 C7347 1.433 . S
C7340 H7336 0.929 . S
C7340 C7342 1.378 . S
C7340 C7344 1.350 . S
C7341 C7344 1.463 . S
C7341 C7346 1.350 . S
C7341 N7349 1.427 . S
C7342 H7333 0.930 . S
C7342 C7340 1.378 . S
C7342 C7343 1.367 . S
C7343 C7342 1.367 . S
C7343 C7345 1.433 . S
C7344 C7340 1.350 . S
C7344 C7341 1.463 . S
C7344 N7348 1.427 . S
C7345 H7335 0.929 . S
C7345 C7343 1.433 . S
C7345 N7348 1.384 . S
C7346 H7337 0.929 . S
C7346 C7338 1.378 . S
C7346 C7341 1.350 . S
C7347 H7334 0.929 . S
C7347 C7339 1.433 . S
C7347 N7349 1.384 . S
N7348 C7344 1.427 . S
N7348 C7345 1.384 . S
N7349 C7341 1.427 . S
N7349 C7347 1.384 . S
H7350 C7356 0.930 . S
H7351 C7360 0.930 . S
H7352 C7365 0.929 . S
H7353 C7363 0.929 . S
H7354 C7358 0.929 . S
H7355 C7364 0.929 . S
C7356 H7350 0.930 . S
C7356 C7357 1.367 . S
C7356 C7364 1.378 . S
C7357 C7356 1.367 . S
C7357 C7365 1.433 . S
C7358 H7354 0.929 . S
C7358 C7360 1.378 . S
C7358 C7362 1.350 . S
C7359 C7362 1.463 . S
C7359 C7364 1.350 . S
C7359 N7367 1.427 . S
C7360 H7351 0.930 . S
C7360 C7358 1.378 . S
C7360 C7361 1.367 . S
C7361 C7360 1.367 . S
C7361 C7363 1.433 . S
C7362 C7358 1.350 . S
C7362 C7359 1.463 . S
C7362 N7366 1.427 . S
C7363 H7353 0.929 . S
C7363 C7361 1.433 . S
C7363 N7366 1.384 . S
C7364 H7355 0.929 . S
C7364 C7356 1.378 . S
C7364 C7359 1.350 . S
C7365 H7352 0.929 . S
C7365 C7357 1.433 . S
C7365 N7367 1.384 . S
N7366 C7362 1.427 . S
N7366 C7363 1.384 . S
N7367 C7359 1.427 . S
N7367 C7365 1.384 . S
H7368 C7374 0.930 . S
H7369 C7378 0.930 . S
H7370 C7383 0.929 . S
H7371 C7381 0.929 . S
H7372 C7376 0.929 . S
H7373 C7382 0.929 . S
C7374 H7368 0.930 . S
C7374 C7375 1.367 . S
C7374 C7382 1.378 . S
C7375 C7374 1.367 . S
C7375 C7383 1.433 . S
C7376 H7372 0.929 . S
C7376 C7378 1.378 . S
C7376 C7380 1.350 . S
C7377 C7380 1.463 . S
C7377 C7382 1.350 . S
C7377 N7385 1.427 . S
C7378 H7369 0.930 . S
C7378 C7376 1.378 . S
C7378 C7379 1.367 . S
C7379 C7378 1.367 . S
C7379 C7381 1.433 . S
C7380 C7376 1.350 . S
C7380 C7377 1.463 . S
C7380 N7384 1.427 . S
C7381 H7371 0.929 . S
C7381 C7379 1.433 . S
C7381 N7384 1.384 . S
C7382 H7373 0.929 . S
C7382 C7374 1.378 . S
C7382 C7377 1.350 . S
C7383 H7370 0.929 . S
C7383 C7375 1.433 . S
C7383 N7385 1.384 . S
N7384 C7380 1.427 . S
N7384 C7381 1.384 . S
N7385 C7377 1.427 . S
N7385 C7383 1.384 . S
H7386 C7392 0.930 . S
H7387 C7396 0.930 . S
H7388 C7401 0.929 . S
H7389 C7399 0.929 . S
H7390 C7394 0.929 . S
H7391 C7400 0.929 . S
C7392 H7386 0.930 . S
C7392 C7393 1.367 . S
C7392 C7400 1.378 . S
C7393 C7392 1.367 . S
C7393 C7401 1.433 . S
C7394 H7390 0.929 . S
C7394 C7396 1.378 . S
C7394 C7398 1.350 . S
C7395 C7398 1.463 . S
C7395 C7400 1.350 . S
C7395 N7403 1.427 . S
C7396 H7387 0.930 . S
C7396 C7394 1.378 . S
C7396 C7397 1.367 . S
C7397 C7396 1.367 . S
C7397 C7399 1.433 . S
C7398 C7394 1.350 . S
C7398 C7395 1.463 . S
C7398 N7402 1.427 . S
C7399 H7389 0.929 . S
C7399 C7397 1.433 . S
C7399 N7402 1.384 . S
C7400 H7391 0.929 . S
C7400 C7392 1.378 . S
C7400 C7395 1.350 . S
C7401 H7388 0.929 . S
C7401 C7393 1.433 . S
C7401 N7403 1.384 . S
N7402 C7398 1.427 . S
N7402 C7399 1.384 . S
N7403 C7395 1.427 . S
N7403 C7401 1.384 . S
H7404 C7410 0.930 . S
H7405 C7414 0.930 . S
H7406 C7419 0.929 . S
H7407 C7417 0.929 . S
H7408 C7412 0.929 . S
H7409 C7418 0.929 . S
C7410 H7404 0.930 . S
C7410 C7411 1.367 . S
C7410 C7418 1.378 . S
C7411 C7410 1.367 . S
C7411 C7419 1.433 . S
C7412 H7408 0.929 . S
C7412 C7414 1.378 . S
C7412 C7416 1.350 . S
C7413 C7416 1.463 . S
C7413 C7418 1.350 . S
C7413 N7421 1.427 . S
C7414 H7405 0.930 . S
C7414 C7412 1.378 . S
C7414 C7415 1.367 . S
C7415 C7414 1.367 . S
C7415 C7417 1.433 . S
C7416 C7412 1.350 . S
C7416 C7413 1.463 . S
C7416 N7420 1.427 . S
C7417 H7407 0.929 . S
C7417 C7415 1.433 . S
C7417 N7420 1.384 . S
C7418 H7409 0.929 . S
C7418 C7410 1.378 . S
C7418 C7413 1.350 . S
C7419 H7406 0.929 . S
C7419 C7411 1.433 . S
C7419 N7421 1.384 . S
N7420 C7416 1.427 . S
N7420 C7417 1.384 . S
N7421 C7413 1.427 . S
N7421 C7419 1.384 . S
H7422 C7428 0.930 . S
H7423 C7432 0.930 . S
H7424 C7437 0.929 . S
H7425 C7435 0.929 . S
H7426 C7430 0.929 . S
H7427 C7436 0.929 . S
C7428 H7422 0.930 . S
C7428 C7429 1.367 . S
C7428 C7436 1.378 . S
C7429 C7428 1.367 . S
C7429 C7437 1.433 . S
C7430 H7426 0.929 . S
C7430 C7432 1.378 . S
C7430 C7434 1.350 . S
C7431 C7434 1.463 . S
C7431 C7436 1.350 . S
C7431 N7439 1.427 . S
C7432 H7423 0.930 . S
C7432 C7430 1.378 . S
C7432 C7433 1.367 . S
C7433 C7432 1.367 . S
C7433 C7435 1.433 . S
C7434 C7430 1.350 . S
C7434 C7431 1.463 . S
C7434 N7438 1.427 . S
C7435 H7425 0.929 . S
C7435 C7433 1.433 . S
C7435 N7438 1.384 . S
C7436 H7427 0.929 . S
C7436 C7428 1.378 . S
C7436 C7431 1.350 . S
C7437 H7424 0.929 . S
C7437 C7429 1.433 . S
C7437 N7439 1.384 . S
N7438 C7434 1.427 . S
N7438 C7435 1.384 . S
N7439 C7431 1.427 . S
N7439 C7437 1.384 . S
H7440 C7446 0.930 . S
H7441 C7450 0.930 . S
H7442 C7455 0.929 . S
H7443 C7453 0.929 . S
H7444 C7448 0.929 . S
H7445 C7454 0.929 . S
C7446 H7440 0.930 . S
C7446 C7447 1.367 . S
C7446 C7454 1.378 . S
C7447 C7446 1.367 . S
C7447 C7455 1.433 . S
C7448 H7444 0.929 . S
C7448 C7450 1.378 . S
C7448 C7452 1.350 . S
C7449 C7452 1.463 . S
C7449 C7454 1.350 . S
C7449 N7457 1.427 . S
C7450 H7441 0.930 . S
C7450 C7448 1.378 . S
C7450 C7451 1.367 . S
C7451 C7450 1.367 . S
C7451 C7453 1.433 . S
C7452 C7448 1.350 . S
C7452 C7449 1.463 . S
C7452 N7456 1.427 . S
C7453 H7443 0.929 . S
C7453 C7451 1.433 . S
C7453 N7456 1.384 . S
C7454 H7445 0.929 . S
C7454 C7446 1.378 . S
C7454 C7449 1.350 . S
C7455 H7442 0.929 . S
C7455 C7447 1.433 . S
C7455 N7457 1.384 . S
N7456 C7452 1.427 . S
N7456 C7453 1.384 . S
N7457 C7449 1.427 . S
N7457 C7455 1.384 . S
H7458 C7464 0.930 . S
H7459 C7468 0.930 . S
H7460 C7473 0.929 . S
H7461 C7471 0.929 . S
H7462 C7466 0.929 . S
H7463 C7472 0.929 . S
C7464 H7458 0.930 . S
C7464 C7465 1.367 . S
C7464 C7472 1.378 . S
C7465 C7464 1.367 . S
C7465 C7473 1.433 . S
C7466 H7462 0.929 . S
C7466 C7468 1.378 . S
C7466 C7470 1.350 . S
C7467 C7470 1.463 . S
C7467 C7472 1.350 . S
C7467 N7475 1.427 . S
C7468 H7459 0.930 . S
C7468 C7466 1.378 . S
C7468 C7469 1.367 . S
C7469 C7468 1.367 . S
C7469 C7471 1.433 . S
C7470 C7466 1.350 . S
C7470 C7467 1.463 . S
C7470 N7474 1.427 . S
C7471 H7461 0.929 . S
C7471 C7469 1.433 . S
C7471 N7474 1.384 . S
C7472 H7463 0.929 . S
C7472 C7464 1.378 . S
C7472 C7467 1.350 . S
C7473 H7460 0.929 . S
C7473 C7465 1.433 . S
C7473 N7475 1.384 . S
N7474 C7470 1.427 . S
N7474 C7471 1.384 . S
N7475 C7467 1.427 . S
N7475 C7473 1.384 . S
H7476 C7482 0.930 . S
H7477 C7486 0.930 . S
H7478 C7491 0.929 . S
H7479 C7489 0.929 . S
H7480 C7484 0.929 . S
H7481 C7490 0.929 . S
C7482 H7476 0.930 . S
C7482 C7483 1.367 . S
C7482 C7490 1.378 . S
C7483 C7482 1.367 . S
C7483 C7491 1.433 . S
C7484 H7480 0.929 . S
C7484 C7486 1.378 . S
C7484 C7488 1.350 . S
C7485 C7488 1.463 . S
C7485 C7490 1.350 . S
C7485 N7493 1.427 . S
C7486 H7477 0.930 . S
C7486 C7484 1.378 . S
C7486 C7487 1.367 . S
C7487 C7486 1.367 . S
C7487 C7489 1.433 . S
C7488 C7484 1.350 . S
C7488 C7485 1.463 . S
C7488 N7492 1.427 . S
C7489 H7479 0.929 . S
C7489 C7487 1.433 . S
C7489 N7492 1.384 . S
C7490 H7481 0.929 . S
C7490 C7482 1.378 . S
C7490 C7485 1.350 . S
C7491 H7478 0.929 . S
C7491 C7483 1.433 . S
C7491 N7493 1.384 . S
N7492 C7488 1.427 . S
N7492 C7489 1.384 . S
N7493 C7485 1.427 . S
N7493 C7491 1.384 . S
H7494 C7500 0.930 . S
H7495 C7504 0.930 . S
H7496 C7509 0.929 . S
H7497 C7507 0.929 . S
H7498 C7502 0.929 . S
H7499 C7508 0.929 . S
C7500 H7494 0.930 . S
C7500 C7501 1.367 . S
C7500 C7508 1.378 . S
C7501 C7500 1.367 . S
C7501 C7509 1.433 . S
C7502 H7498 0.929 . S
C7502 C7504 1.378 . S
C7502 C7506 1.350 . S
C7503 C7506 1.463 . S
C7503 C7508 1.350 . S
C7503 N7511 1.427 . S
C7504 H7495 0.930 . S
C7504 C7502 1.378 . S
C7504 C7505 1.367 . S
C7505 C7504 1.367 . S
C7505 C7507 1.433 . S
C7506 C7502 1.350 . S
C7506 C7503 1.463 . S
C7506 N7510 1.427 . S
C7507 H7497 0.929 . S
C7507 C7505 1.433 . S
C7507 N7510 1.384 . S
C7508 H7499 0.929 . S
C7508 C7500 1.378 . S
C7508 C7503 1.350 . S
C7509 H7496 0.929 . S
C7509 C7501 1.433 . S
C7509 N7511 1.384 . S
N7510 C7506 1.427 . S
N7510 C7507 1.384 . S
N7511 C7503 1.427 . S
N7511 C7509 1.384 . S
H7512 C7518 0.930 . S
H7513 C7522 0.930 . S
H7514 C7527 0.929 . S
H7515 C7525 0.929 . S
H7516 C7520 0.929 . S
H7517 C7526 0.929 . S
C7518 H7512 0.930 . S
C7518 C7519 1.367 . S
C7518 C7526 1.378 . S
C7519 C7518 1.367 . S
C7519 C7527 1.433 . S
C7520 H7516 0.929 . S
C7520 C7522 1.378 . S
C7520 C7524 1.350 . S
C7521 C7524 1.463 . S
C7521 C7526 1.350 . S
C7521 N7529 1.427 . S
C7522 H7513 0.930 . S
C7522 C7520 1.378 . S
C7522 C7523 1.367 . S
C7523 C7522 1.367 . S
C7523 C7525 1.433 . S
C7524 C7520 1.350 . S
C7524 C7521 1.463 . S
C7524 N7528 1.427 . S
C7525 H7515 0.929 . S
C7525 C7523 1.433 . S
C7525 N7528 1.384 . S
C7526 H7517 0.929 . S
C7526 C7518 1.378 . S
C7526 C7521 1.350 . S
C7527 H7514 0.929 . S
C7527 C7519 1.433 . S
C7527 N7529 1.384 . S
N7528 C7524 1.427 . S
N7528 C7525 1.384 . S
N7529 C7521 1.427 . S
N7529 C7527 1.384 . S
H7530 C7536 0.930 . S
H7531 C7540 0.930 . S
H7532 C7545 0.929 . S
H7533 C7543 0.929 . S
H7534 C7538 0.929 . S
H7535 C7544 0.929 . S
C7536 H7530 0.930 . S
C7536 C7537 1.367 . S
C7536 C7544 1.378 . S
C7537 C7536 1.367 . S
C7537 C7545 1.433 . S
C7538 H7534 0.929 . S
C7538 C7540 1.378 . S
C7538 C7542 1.350 . S
C7539 C7542 1.463 . S
C7539 C7544 1.350 . S
C7539 N7547 1.427 . S
C7540 H7531 0.930 . S
C7540 C7538 1.378 . S
C7540 C7541 1.367 . S
C7541 C7540 1.367 . S
C7541 C7543 1.433 . S
C7542 C7538 1.350 . S
C7542 C7539 1.463 . S
C7542 N7546 1.427 . S
C7543 H7533 0.929 . S
C7543 C7541 1.433 . S
C7543 N7546 1.384 . S
C7544 H7535 0.929 . S
C7544 C7536 1.378 . S
C7544 C7539 1.350 . S
C7545 H7532 0.929 . S
C7545 C7537 1.433 . S
C7545 N7547 1.384 . S
N7546 C7542 1.427 . S
N7546 C7543 1.384 . S
N7547 C7539 1.427 . S
N7547 C7545 1.384 . S
H7548 C7554 0.930 . S
H7549 C7558 0.930 . S
H7550 C7563 0.929 . S
H7551 C7561 0.929 . S
H7552 C7556 0.929 . S
H7553 C7562 0.929 . S
C7554 H7548 0.930 . S
C7554 C7555 1.367 . S
C7554 C7562 1.378 . S
C7555 C7554 1.367 . S
C7555 C7563 1.433 . S
C7556 H7552 0.929 . S
C7556 C7558 1.378 . S
C7556 C7560 1.350 . S
C7557 C7560 1.463 . S
C7557 C7562 1.350 . S
C7557 N7565 1.427 . S
C7558 H7549 0.930 . S
C7558 C7556 1.378 . S
C7558 C7559 1.367 . S
C7559 C7558 1.367 . S
C7559 C7561 1.433 . S
C7560 C7556 1.350 . S
C7560 C7557 1.463 . S
C7560 N7564 1.427 . S
C7561 H7551 0.929 . S
C7561 C7559 1.433 . S
C7561 N7564 1.384 . S
C7562 H7553 0.929 . S
C7562 C7554 1.378 . S
C7562 C7557 1.350 . S
C7563 H7550 0.929 . S
C7563 C7555 1.433 . S
C7563 N7565 1.384 . S
N7564 C7560 1.427 . S
N7564 C7561 1.384 . S
N7565 C7557 1.427 . S
N7565 C7563 1.384 . S
H7566 C7572 0.930 . S
H7567 C7576 0.930 . S
H7568 C7581 0.929 . S
H7569 C7579 0.929 . S
H7570 C7574 0.929 . S
H7571 C7580 0.929 . S
C7572 H7566 0.930 . S
C7572 C7573 1.367 . S
C7572 C7580 1.378 . S
C7573 C7572 1.367 . S
C7573 C7581 1.433 . S
C7574 H7570 0.929 . S
C7574 C7576 1.378 . S
C7574 C7578 1.350 . S
C7575 C7578 1.463 . S
C7575 C7580 1.350 . S
C7575 N7583 1.427 . S
C7576 H7567 0.930 . S
C7576 C7574 1.378 . S
C7576 C7577 1.367 . S
C7577 C7576 1.367 . S
C7577 C7579 1.433 . S
C7578 C7574 1.350 . S
C7578 C7575 1.463 . S
C7578 N7582 1.427 . S
C7579 H7569 0.929 . S
C7579 C7577 1.433 . S
C7579 N7582 1.384 . S
C7580 H7571 0.929 . S
C7580 C7572 1.378 . S
C7580 C7575 1.350 . S
C7581 H7568 0.929 . S
C7581 C7573 1.433 . S
C7581 N7583 1.384 . S
N7582 C7578 1.427 . S
N7582 C7579 1.384 . S
N7583 C7575 1.427 . S
N7583 C7581 1.384 . S
H7584 C7590 0.930 . S
H7585 C7594 0.930 . S
H7586 C7599 0.929 . S
H7587 C7597 0.929 . S
H7588 C7592 0.929 . S
H7589 C7598 0.929 . S
C7590 H7584 0.930 . S
C7590 C7591 1.367 . S
C7590 C7598 1.378 . S
C7591 C7590 1.367 . S
C7591 C7599 1.433 . S
C7592 H7588 0.929 . S
C7592 C7594 1.378 . S
C7592 C7596 1.350 . S
C7593 C7596 1.463 . S
C7593 C7598 1.350 . S
C7593 N7601 1.427 . S
C7594 H7585 0.930 . S
C7594 C7592 1.378 . S
C7594 C7595 1.367 . S
C7595 C7594 1.367 . S
C7595 C7597 1.433 . S
C7596 C7592 1.350 . S
C7596 C7593 1.463 . S
C7596 N7600 1.427 . S
C7597 H7587 0.929 . S
C7597 C7595 1.433 . S
C7597 N7600 1.384 . S
C7598 H7589 0.929 . S
C7598 C7590 1.378 . S
C7598 C7593 1.350 . S
C7599 H7586 0.929 . S
C7599 C7591 1.433 . S
C7599 N7601 1.384 . S
N7600 C7596 1.427 . S
N7600 C7597 1.384 . S
N7601 C7593 1.427 . S
N7601 C7599 1.384 . S
H7602 C7608 0.930 . S
H7603 C7612 0.930 . S
H7604 C7617 0.929 . S
H7605 C7615 0.929 . S
H7606 C7610 0.929 . S
H7607 C7616 0.929 . S
C7608 H7602 0.930 . S
C7608 C7609 1.367 . S
C7608 C7616 1.378 . S
C7609 C7608 1.367 . S
C7609 C7617 1.433 . S
C7610 H7606 0.929 . S
C7610 C7612 1.378 . S
C7610 C7614 1.350 . S
C7611 C7614 1.463 . S
C7611 C7616 1.350 . S
C7611 N7619 1.427 . S
C7612 H7603 0.930 . S
C7612 C7610 1.378 . S
C7612 C7613 1.367 . S
C7613 C7612 1.367 . S
C7613 C7615 1.433 . S
C7614 C7610 1.350 . S
C7614 C7611 1.463 . S
C7614 N7618 1.427 . S
C7615 H7605 0.929 . S
C7615 C7613 1.433 . S
C7615 N7618 1.384 . S
C7616 H7607 0.929 . S
C7616 C7608 1.378 . S
C7616 C7611 1.350 . S
C7617 H7604 0.929 . S
C7617 C7609 1.433 . S
C7617 N7619 1.384 . S
N7618 C7614 1.427 . S
N7618 C7615 1.384 . S
N7619 C7611 1.427 . S
N7619 C7617 1.384 . S
H7620 C7626 0.930 . S
H7621 C7630 0.930 . S
H7622 C7635 0.929 . S
H7623 C7633 0.929 . S
H7624 C7628 0.929 . S
H7625 C7634 0.929 . S
C7626 H7620 0.930 . S
C7626 C7627 1.367 . S
C7626 C7634 1.378 . S
C7627 C7626 1.367 . S
C7627 C7635 1.433 . S
C7628 H7624 0.929 . S
C7628 C7630 1.378 . S
C7628 C7632 1.350 . S
C7629 C7632 1.463 . S
C7629 C7634 1.350 . S
C7629 N7637 1.427 . S
C7630 H7621 0.930 . S
C7630 C7628 1.378 . S
C7630 C7631 1.367 . S
C7631 C7630 1.367 . S
C7631 C7633 1.433 . S
C7632 C7628 1.350 . S
C7632 C7629 1.463 . S
C7632 N7636 1.427 . S
C7633 H7623 0.929 . S
C7633 C7631 1.433 . S
C7633 N7636 1.384 . S
C7634 H7625 0.929 . S
C7634 C7626 1.378 . S
C7634 C7629 1.350 . S
C7635 H7622 0.929 . S
C7635 C7627 1.433 . S
C7635 N7637 1.384 . S
N7636 C7632 1.427 . S
N7636 C7633 1.384 . S
N7637 C7629 1.427 . S
N7637 C7635 1.384 . S
H7638 C7644 0.930 . S
H7639 C7648 0.930 . S
H7640 C7653 0.929 . S
H7641 C7651 0.929 . S
H7642 C7646 0.929 . S
H7643 C7652 0.929 . S
C7644 H7638 0.930 . S
C7644 C7645 1.367 . S
C7644 C7652 1.378 . S
C7645 C7644 1.367 . S
C7645 C7653 1.433 . S
C7646 H7642 0.929 . S
C7646 C7648 1.378 . S
C7646 C7650 1.350 . S
C7647 C7650 1.463 . S
C7647 C7652 1.350 . S
C7647 N7655 1.427 . S
C7648 H7639 0.930 . S
C7648 C7646 1.378 . S
C7648 C7649 1.367 . S
C7649 C7648 1.367 . S
C7649 C7651 1.433 . S
C7650 C7646 1.350 . S
C7650 C7647 1.463 . S
C7650 N7654 1.427 . S
C7651 H7641 0.929 . S
C7651 C7649 1.433 . S
C7651 N7654 1.384 . S
C7652 H7643 0.929 . S
C7652 C7644 1.378 . S
C7652 C7647 1.350 . S
C7653 H7640 0.929 . S
C7653 C7645 1.433 . S
C7653 N7655 1.384 . S
N7654 C7650 1.427 . S
N7654 C7651 1.384 . S
N7655 C7647 1.427 . S
N7655 C7653 1.384 . S
H7656 C7662 0.930 . S
H7657 C7666 0.930 . S
H7658 C7671 0.929 . S
H7659 C7669 0.929 . S
H7660 C7664 0.929 . S
H7661 C7670 0.929 . S
C7662 H7656 0.930 . S
C7662 C7663 1.367 . S
C7662 C7670 1.378 . S
C7663 C7662 1.367 . S
C7663 C7671 1.433 . S
C7664 H7660 0.929 . S
C7664 C7666 1.378 . S
C7664 C7668 1.350 . S
C7665 C7668 1.463 . S
C7665 C7670 1.350 . S
C7665 N7673 1.427 . S
C7666 H7657 0.930 . S
C7666 C7664 1.378 . S
C7666 C7667 1.367 . S
C7667 C7666 1.367 . S
C7667 C7669 1.433 . S
C7668 C7664 1.350 . S
C7668 C7665 1.463 . S
C7668 N7672 1.427 . S
C7669 H7659 0.929 . S
C7669 C7667 1.433 . S
C7669 N7672 1.384 . S
C7670 H7661 0.929 . S
C7670 C7662 1.378 . S
C7670 C7665 1.350 . S
C7671 H7658 0.929 . S
C7671 C7663 1.433 . S
C7671 N7673 1.384 . S
N7672 C7668 1.427 . S
N7672 C7669 1.384 . S
N7673 C7665 1.427 . S
N7673 C7671 1.384 . S
H7674 C7680 0.930 . S
H7675 C7684 0.930 . S
H7676 C7689 0.929 . S
H7677 C7687 0.929 . S
H7678 C7682 0.929 . S
H7679 C7688 0.929 . S
C7680 H7674 0.930 . S
C7680 C7681 1.367 . S
C7680 C7688 1.378 . S
C7681 C7680 1.367 . S
C7681 C7689 1.433 . S
C7682 H7678 0.929 . S
C7682 C7684 1.378 . S
C7682 C7686 1.350 . S
C7683 C7686 1.463 . S
C7683 C7688 1.350 . S
C7683 N7691 1.427 . S
C7684 H7675 0.930 . S
C7684 C7682 1.378 . S
C7684 C7685 1.367 . S
C7685 C7684 1.367 . S
C7685 C7687 1.433 . S
C7686 C7682 1.350 . S
C7686 C7683 1.463 . S
C7686 N7690 1.427 . S
C7687 H7677 0.929 . S
C7687 C7685 1.433 . S
C7687 N7690 1.384 . S
C7688 H7679 0.929 . S
C7688 C7680 1.378 . S
C7688 C7683 1.350 . S
C7689 H7676 0.929 . S
C7689 C7681 1.433 . S
C7689 N7691 1.384 . S
N7690 C7686 1.427 . S
N7690 C7687 1.384 . S
N7691 C7683 1.427 . S
N7691 C7689 1.384 . S
H7692 C7698 0.930 . S
H7693 C7702 0.930 . S
H7694 C7707 0.929 . S
H7695 C7705 0.929 . S
H7696 C7700 0.929 . S
H7697 C7706 0.929 . S
C7698 H7692 0.930 . S
C7698 C7699 1.367 . S
C7698 C7706 1.378 . S
C7699 C7698 1.367 . S
C7699 C7707 1.433 . S
C7700 H7696 0.929 . S
C7700 C7702 1.378 . S
C7700 C7704 1.350 . S
C7701 C7704 1.463 . S
C7701 C7706 1.350 . S
C7701 N7709 1.427 . S
C7702 H7693 0.930 . S
C7702 C7700 1.378 . S
C7702 C7703 1.367 . S
C7703 C7702 1.367 . S
C7703 C7705 1.433 . S
C7704 C7700 1.350 . S
C7704 C7701 1.463 . S
C7704 N7708 1.427 . S
C7705 H7695 0.929 . S
C7705 C7703 1.433 . S
C7705 N7708 1.384 . S
C7706 H7697 0.929 . S
C7706 C7698 1.378 . S
C7706 C7701 1.350 . S
C7707 H7694 0.929 . S
C7707 C7699 1.433 . S
C7707 N7709 1.384 . S
N7708 C7704 1.427 . S
N7708 C7705 1.384 . S
N7709 C7701 1.427 . S
N7709 C7707 1.384 . S
H7710 C7716 0.930 . S
H7711 C7720 0.930 . S
H7712 C7725 0.929 . S
H7713 C7723 0.929 . S
H7714 C7718 0.929 . S
H7715 C7724 0.929 . S
C7716 H7710 0.930 . S
C7716 C7717 1.367 . S
C7716 C7724 1.378 . S
C7717 C7716 1.367 . S
C7717 C7725 1.433 . S
C7718 H7714 0.929 . S
C7718 C7720 1.378 . S
C7718 C7722 1.350 . S
C7719 C7722 1.463 . S
C7719 C7724 1.350 . S
C7719 N7727 1.427 . S
C7720 H7711 0.930 . S
C7720 C7718 1.378 . S
C7720 C7721 1.367 . S
C7721 C7720 1.367 . S
C7721 C7723 1.433 . S
C7722 C7718 1.350 . S
C7722 C7719 1.463 . S
C7722 N7726 1.427 . S
C7723 H7713 0.929 . S
C7723 C7721 1.433 . S
C7723 N7726 1.384 . S
C7724 H7715 0.929 . S
C7724 C7716 1.378 . S
C7724 C7719 1.350 . S
C7725 H7712 0.929 . S
C7725 C7717 1.433 . S
C7725 N7727 1.384 . S
N7726 C7722 1.427 . S
N7726 C7723 1.384 . S
N7727 C7719 1.427 . S
N7727 C7725 1.384 . S
H7728 C7734 0.930 . S
H7729 C7738 0.930 . S
H7730 C7743 0.929 . S
H7731 C7741 0.929 . S
H7732 C7736 0.929 . S
H7733 C7742 0.929 . S
C7734 H7728 0.930 . S
C7734 C7735 1.367 . S
C7734 C7742 1.378 . S
C7735 C7734 1.367 . S
C7735 C7743 1.433 . S
C7736 H7732 0.929 . S
C7736 C7738 1.378 . S
C7736 C7740 1.350 . S
C7737 C7740 1.463 . S
C7737 C7742 1.350 . S
C7737 N7745 1.427 . S
C7738 H7729 0.930 . S
C7738 C7736 1.378 . S
C7738 C7739 1.367 . S
C7739 C7738 1.367 . S
C7739 C7741 1.433 . S
C7740 C7736 1.350 . S
C7740 C7737 1.463 . S
C7740 N7744 1.427 . S
C7741 H7731 0.929 . S
C7741 C7739 1.433 . S
C7741 N7744 1.384 . S
C7742 H7733 0.929 . S
C7742 C7734 1.378 . S
C7742 C7737 1.350 . S
C7743 H7730 0.929 . S
C7743 C7735 1.433 . S
C7743 N7745 1.384 . S
N7744 C7740 1.427 . S
N7744 C7741 1.384 . S
N7745 C7737 1.427 . S
N7745 C7743 1.384 . S
H7746 C7752 0.930 . S
H7747 C7756 0.930 . S
H7748 C7761 0.929 . S
H7749 C7759 0.929 . S
H7750 C7754 0.929 . S
H7751 C7760 0.929 . S
C7752 H7746 0.930 . S
C7752 C7753 1.367 . S
C7752 C7760 1.378 . S
C7753 C7752 1.367 . S
C7753 C7761 1.433 . S
C7754 H7750 0.929 . S
C7754 C7756 1.378 . S
C7754 C7758 1.350 . S
C7755 C7758 1.463 . S
C7755 C7760 1.350 . S
C7755 N7763 1.427 . S
C7756 H7747 0.930 . S
C7756 C7754 1.378 . S
C7756 C7757 1.367 . S
C7757 C7756 1.367 . S
C7757 C7759 1.433 . S
C7758 C7754 1.350 . S
C7758 C7755 1.463 . S
C7758 N7762 1.427 . S
C7759 H7749 0.929 . S
C7759 C7757 1.433 . S
C7759 N7762 1.384 . S
C7760 H7751 0.929 . S
C7760 C7752 1.378 . S
C7760 C7755 1.350 . S
C7761 H7748 0.929 . S
C7761 C7753 1.433 . S
C7761 N7763 1.384 . S
N7762 C7758 1.427 . S
N7762 C7759 1.384 . S
N7763 C7755 1.427 . S
N7763 C7761 1.384 . S
H7764 C7770 0.930 . S
H7765 C7774 0.930 . S
H7766 C7779 0.929 . S
H7767 C7777 0.929 . S
H7768 C7772 0.929 . S
H7769 C7778 0.929 . S
C7770 H7764 0.930 . S
C7770 C7771 1.367 . S
C7770 C7778 1.378 . S
C7771 C7770 1.367 . S
C7771 C7779 1.433 . S
C7772 H7768 0.929 . S
C7772 C7774 1.378 . S
C7772 C7776 1.350 . S
C7773 C7776 1.463 . S
C7773 C7778 1.350 . S
C7773 N7781 1.427 . S
C7774 H7765 0.930 . S
C7774 C7772 1.378 . S
C7774 C7775 1.367 . S
C7775 C7774 1.367 . S
C7775 C7777 1.433 . S
C7776 C7772 1.350 . S
C7776 C7773 1.463 . S
C7776 N7780 1.427 . S
C7777 H7767 0.929 . S
C7777 C7775 1.433 . S
C7777 N7780 1.384 . S
C7778 H7769 0.929 . S
C7778 C7770 1.378 . S
C7778 C7773 1.350 . S
C7779 H7766 0.929 . S
C7779 C7771 1.433 . S
C7779 N7781 1.384 . S
N7780 C7776 1.427 . S
N7780 C7777 1.384 . S
N7781 C7773 1.427 . S
N7781 C7779 1.384 . S
H7782 C7788 0.930 . S
H7783 C7792 0.930 . S
H7784 C7797 0.929 . S
H7785 C7795 0.929 . S
H7786 C7790 0.929 . S
H7787 C7796 0.929 . S
C7788 H7782 0.930 . S
C7788 C7789 1.367 . S
C7788 C7796 1.378 . S
C7789 C7788 1.367 . S
C7789 C7797 1.433 . S
C7790 H7786 0.929 . S
C7790 C7792 1.378 . S
C7790 C7794 1.350 . S
C7791 C7794 1.463 . S
C7791 C7796 1.350 . S
C7791 N7799 1.427 . S
C7792 H7783 0.930 . S
C7792 C7790 1.378 . S
C7792 C7793 1.367 . S
C7793 C7792 1.367 . S
C7793 C7795 1.433 . S
C7794 C7790 1.350 . S
C7794 C7791 1.463 . S
C7794 N7798 1.427 . S
C7795 H7785 0.929 . S
C7795 C7793 1.433 . S
C7795 N7798 1.384 . S
C7796 H7787 0.929 . S
C7796 C7788 1.378 . S
C7796 C7791 1.350 . S
C7797 H7784 0.929 . S
C7797 C7789 1.433 . S
C7797 N7799 1.384 . S
N7798 C7794 1.427 . S
N7798 C7795 1.384 . S
N7799 C7791 1.427 . S
N7799 C7797 1.384 . S
H7800 C7806 0.930 . S
H7801 C7810 0.930 . S
H7802 C7815 0.929 . S
H7803 C7813 0.929 . S
H7804 C7808 0.929 . S
H7805 C7814 0.929 . S
C7806 H7800 0.930 . S
C7806 C7807 1.367 . S
C7806 C7814 1.378 . S
C7807 C7806 1.367 . S
C7807 C7815 1.433 . S
C7808 H7804 0.929 . S
C7808 C7810 1.378 . S
C7808 C7812 1.350 . S
C7809 C7812 1.463 . S
C7809 C7814 1.350 . S
C7809 N7817 1.427 . S
C7810 H7801 0.930 . S
C7810 C7808 1.378 . S
C7810 C7811 1.367 . S
C7811 C7810 1.367 . S
C7811 C7813 1.433 . S
C7812 C7808 1.350 . S
C7812 C7809 1.463 . S
C7812 N7816 1.427 . S
C7813 H7803 0.929 . S
C7813 C7811 1.433 . S
C7813 N7816 1.384 . S
C7814 H7805 0.929 . S
C7814 C7806 1.378 . S
C7814 C7809 1.350 . S
C7815 H7802 0.929 . S
C7815 C7807 1.433 . S
C7815 N7817 1.384 . S
N7816 C7812 1.427 . S
N7816 C7813 1.384 . S
N7817 C7809 1.427 . S
N7817 C7815 1.384 . S
H7818 C7824 0.930 . S
H7819 C7828 0.930 . S
H7820 C7833 0.929 . S
H7821 C7831 0.929 . S
H7822 C7826 0.929 . S
H7823 C7832 0.929 . S
C7824 H7818 0.930 . S
C7824 C7825 1.367 . S
C7824 C7832 1.378 . S
C7825 C7824 1.367 . S
C7825 C7833 1.433 . S
C7826 H7822 0.929 . S
C7826 C7828 1.378 . S
C7826 C7830 1.350 . S
C7827 C7830 1.463 . S
C7827 C7832 1.350 . S
C7827 N7835 1.427 . S
C7828 H7819 0.930 . S
C7828 C7826 1.378 . S
C7828 C7829 1.367 . S
C7829 C7828 1.367 . S
C7829 C7831 1.433 . S
C7830 C7826 1.350 . S
C7830 C7827 1.463 . S
C7830 N7834 1.427 . S
C7831 H7821 0.929 . S
C7831 C7829 1.433 . S
C7831 N7834 1.384 . S
C7832 H7823 0.929 . S
C7832 C7824 1.378 . S
C7832 C7827 1.350 . S
C7833 H7820 0.929 . S
C7833 C7825 1.433 . S
C7833 N7835 1.384 . S
N7834 C7830 1.427 . S
N7834 C7831 1.384 . S
N7835 C7827 1.427 . S
N7835 C7833 1.384 . S
H7836 C7842 0.930 . S
H7837 C7846 0.930 . S
H7838 C7851 0.929 . S
H7839 C7849 0.929 . S
H7840 C7844 0.929 . S
H7841 C7850 0.929 . S
C7842 H7836 0.930 . S
C7842 C7843 1.367 . S
C7842 C7850 1.378 . S
C7843 C7842 1.367 . S
C7843 C7851 1.433 . S
C7844 H7840 0.929 . S
C7844 C7846 1.378 . S
C7844 C7848 1.350 . S
C7845 C7848 1.463 . S
C7845 C7850 1.350 . S
C7845 N7853 1.427 . S
C7846 H7837 0.930 . S
C7846 C7844 1.378 . S
C7846 C7847 1.367 . S
C7847 C7846 1.367 . S
C7847 C7849 1.433 . S
C7848 C7844 1.350 . S
C7848 C7845 1.463 . S
C7848 N7852 1.427 . S
C7849 H7839 0.929 . S
C7849 C7847 1.433 . S
C7849 N7852 1.384 . S
C7850 H7841 0.929 . S
C7850 C7842 1.378 . S
C7850 C7845 1.350 . S
C7851 H7838 0.929 . S
C7851 C7843 1.433 . S
C7851 N7853 1.384 . S
N7852 C7848 1.427 . S
N7852 C7849 1.384 . S
N7853 C7845 1.427 . S
N7853 C7851 1.384 . S
H7854 C7860 0.930 . S
H7855 C7864 0.930 . S
H7856 C7869 0.929 . S
H7857 C7867 0.929 . S
H7858 C7862 0.929 . S
H7859 C7868 0.929 . S
C7860 H7854 0.930 . S
C7860 C7861 1.367 . S
C7860 C7868 1.378 . S
C7861 C7860 1.367 . S
C7861 C7869 1.433 . S
C7862 H7858 0.929 . S
C7862 C7864 1.378 . S
C7862 C7866 1.350 . S
C7863 C7866 1.463 . S
C7863 C7868 1.350 . S
C7863 N7871 1.427 . S
C7864 H7855 0.930 . S
C7864 C7862 1.378 . S
C7864 C7865 1.367 . S
C7865 C7864 1.367 . S
C7865 C7867 1.433 . S
C7866 C7862 1.350 . S
C7866 C7863 1.463 . S
C7866 N7870 1.427 . S
C7867 H7857 0.929 . S
C7867 C7865 1.433 . S
C7867 N7870 1.384 . S
C7868 H7859 0.929 . S
C7868 C7860 1.378 . S
C7868 C7863 1.350 . S
C7869 H7856 0.929 . S
C7869 C7861 1.433 . S
C7869 N7871 1.384 . S
N7870 C7866 1.427 . S
N7870 C7867 1.384 . S
N7871 C7863 1.427 . S
N7871 C7869 1.384 . S
H7872 C7878 0.930 . S
H7873 C7882 0.930 . S
H7874 C7887 0.929 . S
H7875 C7885 0.929 . S
H7876 C7880 0.929 . S
H7877 C7886 0.929 . S
C7878 H7872 0.930 . S
C7878 C7879 1.367 . S
C7878 C7886 1.378 . S
C7879 C7878 1.367 . S
C7879 C7887 1.433 . S
C7880 H7876 0.929 . S
C7880 C7882 1.378 . S
C7880 C7884 1.350 . S
C7881 C7884 1.463 . S
C7881 C7886 1.350 . S
C7881 N7889 1.427 . S
C7882 H7873 0.930 . S
C7882 C7880 1.378 . S
C7882 C7883 1.367 . S
C7883 C7882 1.367 . S
C7883 C7885 1.433 . S
C7884 C7880 1.350 . S
C7884 C7881 1.463 . S
C7884 N7888 1.427 . S
C7885 H7875 0.929 . S
C7885 C7883 1.433 . S
C7885 N7888 1.384 . S
C7886 H7877 0.929 . S
C7886 C7878 1.378 . S
C7886 C7881 1.350 . S
C7887 H7874 0.929 . S
C7887 C7879 1.433 . S
C7887 N7889 1.384 . S
N7888 C7884 1.427 . S
N7888 C7885 1.384 . S
N7889 C7881 1.427 . S
N7889 C7887 1.384 . S
H7890 C7896 0.930 . S
H7891 C7900 0.930 . S
H7892 C7905 0.929 . S
H7893 C7903 0.929 . S
H7894 C7898 0.929 . S
H7895 C7904 0.929 . S
C7896 H7890 0.930 . S
C7896 C7897 1.367 . S
C7896 C7904 1.378 . S
C7897 C7896 1.367 . S
C7897 C7905 1.433 . S
C7898 H7894 0.929 . S
C7898 C7900 1.378 . S
C7898 C7902 1.350 . S
C7899 C7902 1.463 . S
C7899 C7904 1.350 . S
C7899 N7907 1.427 . S
C7900 H7891 0.930 . S
C7900 C7898 1.378 . S
C7900 C7901 1.367 . S
C7901 C7900 1.367 . S
C7901 C7903 1.433 . S
C7902 C7898 1.350 . S
C7902 C7899 1.463 . S
C7902 N7906 1.427 . S
C7903 H7893 0.929 . S
C7903 C7901 1.433 . S
C7903 N7906 1.384 . S
C7904 H7895 0.929 . S
C7904 C7896 1.378 . S
C7904 C7899 1.350 . S
C7905 H7892 0.929 . S
C7905 C7897 1.433 . S
C7905 N7907 1.384 . S
N7906 C7902 1.427 . S
N7906 C7903 1.384 . S
N7907 C7899 1.427 . S
N7907 C7905 1.384 . S
H7908 C7914 0.930 . S
H7909 C7918 0.930 . S
H7910 C7923 0.929 . S
H7911 C7921 0.929 . S
H7912 C7916 0.929 . S
H7913 C7922 0.929 . S
C7914 H7908 0.930 . S
C7914 C7915 1.367 . S
C7914 C7922 1.378 . S
C7915 C7914 1.367 . S
C7915 C7923 1.433 . S
C7916 H7912 0.929 . S
C7916 C7918 1.378 . S
C7916 C7920 1.350 . S
C7917 C7920 1.463 . S
C7917 C7922 1.350 . S
C7917 N7925 1.427 . S
C7918 H7909 0.930 . S
C7918 C7916 1.378 . S
C7918 C7919 1.367 . S
C7919 C7918 1.367 . S
C7919 C7921 1.433 . S
C7920 C7916 1.350 . S
C7920 C7917 1.463 . S
C7920 N7924 1.427 . S
C7921 H7911 0.929 . S
C7921 C7919 1.433 . S
C7921 N7924 1.384 . S
C7922 H7913 0.929 . S
C7922 C7914 1.378 . S
C7922 C7917 1.350 . S
C7923 H7910 0.929 . S
C7923 C7915 1.433 . S
C7923 N7925 1.384 . S
N7924 C7920 1.427 . S
N7924 C7921 1.384 . S
N7925 C7917 1.427 . S
N7925 C7923 1.384 . S
H7926 C7932 0.930 . S
H7927 C7936 0.930 . S
H7928 C7941 0.929 . S
H7929 C7939 0.929 . S
H7930 C7934 0.929 . S
H7931 C7940 0.929 . S
C7932 H7926 0.930 . S
C7932 C7933 1.367 . S
C7932 C7940 1.378 . S
C7933 C7932 1.367 . S
C7933 C7941 1.433 . S
C7934 H7930 0.929 . S
C7934 C7936 1.378 . S
C7934 C7938 1.350 . S
C7935 C7938 1.463 . S
C7935 C7940 1.350 . S
C7935 N7943 1.427 . S
C7936 H7927 0.930 . S
C7936 C7934 1.378 . S
C7936 C7937 1.367 . S
C7937 C7936 1.367 . S
C7937 C7939 1.433 . S
C7938 C7934 1.350 . S
C7938 C7935 1.463 . S
C7938 N7942 1.427 . S
C7939 H7929 0.929 . S
C7939 C7937 1.433 . S
C7939 N7942 1.384 . S
C7940 H7931 0.929 . S
C7940 C7932 1.378 . S
C7940 C7935 1.350 . S
C7941 H7928 0.929 . S
C7941 C7933 1.433 . S
C7941 N7943 1.384 . S
N7942 C7938 1.427 . S
N7942 C7939 1.384 . S
N7943 C7935 1.427 . S
N7943 C7941 1.384 . S
H7944 C7950 0.930 . S
H7945 C7954 0.930 . S
H7946 C7959 0.929 . S
H7947 C7957 0.929 . S
H7948 C7952 0.929 . S
H7949 C7958 0.929 . S
C7950 H7944 0.930 . S
C7950 C7951 1.367 . S
C7950 C7958 1.378 . S
C7951 C7950 1.367 . S
C7951 C7959 1.433 . S
C7952 H7948 0.929 . S
C7952 C7954 1.378 . S
C7952 C7956 1.350 . S
C7953 C7956 1.463 . S
C7953 C7958 1.350 . S
C7953 N7961 1.427 . S
C7954 H7945 0.930 . S
C7954 C7952 1.378 . S
C7954 C7955 1.367 . S
C7955 C7954 1.367 . S
C7955 C7957 1.433 . S
C7956 C7952 1.350 . S
C7956 C7953 1.463 . S
C7956 N7960 1.427 . S
C7957 H7947 0.929 . S
C7957 C7955 1.433 . S
C7957 N7960 1.384 . S
C7958 H7949 0.929 . S
C7958 C7950 1.378 . S
C7958 C7953 1.350 . S
C7959 H7946 0.929 . S
C7959 C7951 1.433 . S
C7959 N7961 1.384 . S
N7960 C7956 1.427 . S
N7960 C7957 1.384 . S
N7961 C7953 1.427 . S
N7961 C7959 1.384 . S
H7962 C7968 0.930 . S
H7963 C7972 0.930 . S
H7964 C7977 0.929 . S
H7965 C7975 0.929 . S
H7966 C7970 0.929 . S
H7967 C7976 0.929 . S
C7968 H7962 0.930 . S
C7968 C7969 1.367 . S
C7968 C7976 1.378 . S
C7969 C7968 1.367 . S
C7969 C7977 1.433 . S
C7970 H7966 0.929 . S
C7970 C7972 1.378 . S
C7970 C7974 1.350 . S
C7971 C7974 1.463 . S
C7971 C7976 1.350 . S
C7971 N7979 1.427 . S
C7972 H7963 0.930 . S
C7972 C7970 1.378 . S
C7972 C7973 1.367 . S
C7973 C7972 1.367 . S
C7973 C7975 1.433 . S
C7974 C7970 1.350 . S
C7974 C7971 1.463 . S
C7974 N7978 1.427 . S
C7975 H7965 0.929 . S
C7975 C7973 1.433 . S
C7975 N7978 1.384 . S
C7976 H7967 0.929 . S
C7976 C7968 1.378 . S
C7976 C7971 1.350 . S
C7977 H7964 0.929 . S
C7977 C7969 1.433 . S
C7977 N7979 1.384 . S
N7978 C7974 1.427 . S
N7978 C7975 1.384 . S
N7979 C7971 1.427 . S
N7979 C7977 1.384 . S
H7980 C7986 0.930 . S
H7981 C7990 0.930 . S
H7982 C7995 0.929 . S
H7983 C7993 0.929 . S
H7984 C7988 0.929 . S
H7985 C7994 0.929 . S
C7986 H7980 0.930 . S
C7986 C7987 1.367 . S
C7986 C7994 1.378 . S
C7987 C7986 1.367 . S
C7987 C7995 1.433 . S
C7988 H7984 0.929 . S
C7988 C7990 1.378 . S
C7988 C7992 1.350 . S
C7989 C7992 1.463 . S
C7989 C7994 1.350 . S
C7989 N7997 1.427 . S
C7990 H7981 0.930 . S
C7990 C7988 1.378 . S
C7990 C7991 1.367 . S
C7991 C7990 1.367 . S
C7991 C7993 1.433 . S
C7992 C7988 1.350 . S
C7992 C7989 1.463 . S
C7992 N7996 1.427 . S
C7993 H7983 0.929 . S
C7993 C7991 1.433 . S
C7993 N7996 1.384 . S
C7994 H7985 0.929 . S
C7994 C7986 1.378 . S
C7994 C7989 1.350 . S
C7995 H7982 0.929 . S
C7995 C7987 1.433 . S
C7995 N7997 1.384 . S
N7996 C7992 1.427 . S
N7996 C7993 1.384 . S
N7997 C7989 1.427 . S
N7997 C7995 1.384 . S
H7998 C8004 0.930 . S
H7999 C8008 0.930 . S
H8000 C8013 0.929 . S
H8001 C8011 0.929 . S
H8002 C8006 0.929 . S
H8003 C8012 0.929 . S
C8004 H7998 0.930 . S
C8004 C8005 1.367 . S
C8004 C8012 1.378 . S
C8005 C8004 1.367 . S
C8005 C8013 1.433 . S
C8006 H8002 0.929 . S
C8006 C8008 1.378 . S
C8006 C8010 1.350 . S
C8007 C8010 1.463 . S
C8007 C8012 1.350 . S
C8007 N8015 1.427 . S
C8008 H7999 0.930 . S
C8008 C8006 1.378 . S
C8008 C8009 1.367 . S
C8009 C8008 1.367 . S
C8009 C8011 1.433 . S
C8010 C8006 1.350 . S
C8010 C8007 1.463 . S
C8010 N8014 1.427 . S
C8011 H8001 0.929 . S
C8011 C8009 1.433 . S
C8011 N8014 1.384 . S
C8012 H8003 0.929 . S
C8012 C8004 1.378 . S
C8012 C8007 1.350 . S
C8013 H8000 0.929 . S
C8013 C8005 1.433 . S
C8013 N8015 1.384 . S
N8014 C8010 1.427 . S
N8014 C8011 1.384 . S
N8015 C8007 1.427 . S
N8015 C8013 1.384 . S
H8016 C8022 0.930 . S
H8017 C8026 0.930 . S
H8018 C8031 0.929 . S
H8019 C8029 0.929 . S
H8020 C8024 0.929 . S
H8021 C8030 0.929 . S
C8022 H8016 0.930 . S
C8022 C8023 1.367 . S
C8022 C8030 1.378 . S
C8023 C8022 1.367 . S
C8023 C8031 1.433 . S
C8024 H8020 0.929 . S
C8024 C8026 1.378 . S
C8024 C8028 1.350 . S
C8025 C8028 1.463 . S
C8025 C8030 1.350 . S
C8025 N8033 1.427 . S
C8026 H8017 0.930 . S
C8026 C8024 1.378 . S
C8026 C8027 1.367 . S
C8027 C8026 1.367 . S
C8027 C8029 1.433 . S
C8028 C8024 1.350 . S
C8028 C8025 1.463 . S
C8028 N8032 1.427 . S
C8029 H8019 0.929 . S
C8029 C8027 1.433 . S
C8029 N8032 1.384 . S
C8030 H8021 0.929 . S
C8030 C8022 1.378 . S
C8030 C8025 1.350 . S
C8031 H8018 0.929 . S
C8031 C8023 1.433 . S
C8031 N8033 1.384 . S
N8032 C8028 1.427 . S
N8032 C8029 1.384 . S
N8033 C8025 1.427 . S
N8033 C8031 1.384 . S
H8034 C8040 0.930 . S
H8035 C8044 0.930 . S
H8036 C8049 0.929 . S
H8037 C8047 0.929 . S
H8038 C8042 0.929 . S
H8039 C8048 0.929 . S
C8040 H8034 0.930 . S
C8040 C8041 1.367 . S
C8040 C8048 1.378 . S
C8041 C8040 1.367 . S
C8041 C8049 1.433 . S
C8042 H8038 0.929 . S
C8042 C8044 1.378 . S
C8042 C8046 1.350 . S
C8043 C8046 1.463 . S
C8043 C8048 1.350 . S
C8043 N8051 1.427 . S
C8044 H8035 0.930 . S
C8044 C8042 1.378 . S
C8044 C8045 1.367 . S
C8045 C8044 1.367 . S
C8045 C8047 1.433 . S
C8046 C8042 1.350 . S
C8046 C8043 1.463 . S
C8046 N8050 1.427 . S
C8047 H8037 0.929 . S
C8047 C8045 1.433 . S
C8047 N8050 1.384 . S
C8048 H8039 0.929 . S
C8048 C8040 1.378 . S
C8048 C8043 1.350 . S
C8049 H8036 0.929 . S
C8049 C8041 1.433 . S
C8049 N8051 1.384 . S
N8050 C8046 1.427 . S
N8050 C8047 1.384 . S
N8051 C8043 1.427 . S
N8051 C8049 1.384 . S
H8052 C8058 0.930 . S
H8053 C8062 0.930 . S
H8054 C8067 0.929 . S
H8055 C8065 0.929 . S
H8056 C8060 0.929 . S
H8057 C8066 0.929 . S
C8058 H8052 0.930 . S
C8058 C8059 1.367 . S
C8058 C8066 1.378 . S
C8059 C8058 1.367 . S
C8059 C8067 1.433 . S
C8060 H8056 0.929 . S
C8060 C8062 1.378 . S
C8060 C8064 1.350 . S
C8061 C8064 1.463 . S
C8061 C8066 1.350 . S
C8061 N8069 1.427 . S
C8062 H8053 0.930 . S
C8062 C8060 1.378 . S
C8062 C8063 1.367 . S
C8063 C8062 1.367 . S
C8063 C8065 1.433 . S
C8064 C8060 1.350 . S
C8064 C8061 1.463 . S
C8064 N8068 1.427 . S
C8065 H8055 0.929 . S
C8065 C8063 1.433 . S
C8065 N8068 1.384 . S
C8066 H8057 0.929 . S
C8066 C8058 1.378 . S
C8066 C8061 1.350 . S
C8067 H8054 0.929 . S
C8067 C8059 1.433 . S
C8067 N8069 1.384 . S
N8068 C8064 1.427 . S
N8068 C8065 1.384 . S
N8069 C8061 1.427 . S
N8069 C8067 1.384 . S
H8070 C8076 0.930 . S
H8071 C8080 0.930 . S
H8072 C8085 0.929 . S
H8073 C8083 0.929 . S
H8074 C8078 0.929 . S
H8075 C8084 0.929 . S
C8076 H8070 0.930 . S
C8076 C8077 1.367 . S
C8076 C8084 1.378 . S
C8077 C8076 1.367 . S
C8077 C8085 1.433 . S
C8078 H8074 0.929 . S
C8078 C8080 1.378 . S
C8078 C8082 1.350 . S
C8079 C8082 1.463 . S
C8079 C8084 1.350 . S
C8079 N8087 1.427 . S
C8080 H8071 0.930 . S
C8080 C8078 1.378 . S
C8080 C8081 1.367 . S
C8081 C8080 1.367 . S
C8081 C8083 1.433 . S
C8082 C8078 1.350 . S
C8082 C8079 1.463 . S
C8082 N8086 1.427 . S
C8083 H8073 0.929 . S
C8083 C8081 1.433 . S
C8083 N8086 1.384 . S
C8084 H8075 0.929 . S
C8084 C8076 1.378 . S
C8084 C8079 1.350 . S
C8085 H8072 0.929 . S
C8085 C8077 1.433 . S
C8085 N8087 1.384 . S
N8086 C8082 1.427 . S
N8086 C8083 1.384 . S
N8087 C8079 1.427 . S
N8087 C8085 1.384 . S
H8088 C8094 0.930 . S
H8089 C8098 0.930 . S
H8090 C8103 0.929 . S
H8091 C8101 0.929 . S
H8092 C8096 0.929 . S
H8093 C8102 0.929 . S
C8094 H8088 0.930 . S
C8094 C8095 1.367 . S
C8094 C8102 1.378 . S
C8095 C8094 1.367 . S
C8095 C8103 1.433 . S
C8096 H8092 0.929 . S
C8096 C8098 1.378 . S
C8096 C8100 1.350 . S
C8097 C8100 1.463 . S
C8097 C8102 1.350 . S
C8097 N8105 1.427 . S
C8098 H8089 0.930 . S
C8098 C8096 1.378 . S
C8098 C8099 1.367 . S
C8099 C8098 1.367 . S
C8099 C8101 1.433 . S
C8100 C8096 1.350 . S
C8100 C8097 1.463 . S
C8100 N8104 1.427 . S
C8101 H8091 0.929 . S
C8101 C8099 1.433 . S
C8101 N8104 1.384 . S
C8102 H8093 0.929 . S
C8102 C8094 1.378 . S
C8102 C8097 1.350 . S
C8103 H8090 0.929 . S
C8103 C8095 1.433 . S
C8103 N8105 1.384 . S
N8104 C8100 1.427 . S
N8104 C8101 1.384 . S
N8105 C8097 1.427 . S
N8105 C8103 1.384 . S
H8106 C8112 0.930 . S
H8107 C8116 0.930 . S
H8108 C8121 0.929 . S
H8109 C8119 0.929 . S
H8110 C8114 0.929 . S
H8111 C8120 0.929 . S
C8112 H8106 0.930 . S
C8112 C8113 1.367 . S
C8112 C8120 1.378 . S
C8113 C8112 1.367 . S
C8113 C8121 1.433 . S
C8114 H8110 0.929 . S
C8114 C8116 1.378 . S
C8114 C8118 1.350 . S
C8115 C8118 1.463 . S
C8115 C8120 1.350 . S
C8115 N8123 1.427 . S
C8116 H8107 0.930 . S
C8116 C8114 1.378 . S
C8116 C8117 1.367 . S
C8117 C8116 1.367 . S
C8117 C8119 1.433 . S
C8118 C8114 1.350 . S
C8118 C8115 1.463 . S
C8118 N8122 1.427 . S
C8119 H8109 0.929 . S
C8119 C8117 1.433 . S
C8119 N8122 1.384 . S
C8120 H8111 0.929 . S
C8120 C8112 1.378 . S
C8120 C8115 1.350 . S
C8121 H8108 0.929 . S
C8121 C8113 1.433 . S
C8121 N8123 1.384 . S
N8122 C8118 1.427 . S
N8122 C8119 1.384 . S
N8123 C8115 1.427 . S
N8123 C8121 1.384 . S
H8124 C8130 0.930 . S
H8125 C8134 0.930 . S
H8126 C8139 0.929 . S
H8127 C8137 0.929 . S
H8128 C8132 0.929 . S
H8129 C8138 0.929 . S
C8130 H8124 0.930 . S
C8130 C8131 1.367 . S
C8130 C8138 1.378 . S
C8131 C8130 1.367 . S
C8131 C8139 1.433 . S
C8132 H8128 0.929 . S
C8132 C8134 1.378 . S
C8132 C8136 1.350 . S
C8133 C8136 1.463 . S
C8133 C8138 1.350 . S
C8133 N8141 1.427 . S
C8134 H8125 0.930 . S
C8134 C8132 1.378 . S
C8134 C8135 1.367 . S
C8135 C8134 1.367 . S
C8135 C8137 1.433 . S
C8136 C8132 1.350 . S
C8136 C8133 1.463 . S
C8136 N8140 1.427 . S
C8137 H8127 0.929 . S
C8137 C8135 1.433 . S
C8137 N8140 1.384 . S
C8138 H8129 0.929 . S
C8138 C8130 1.378 . S
C8138 C8133 1.350 . S
C8139 H8126 0.929 . S
C8139 C8131 1.433 . S
C8139 N8141 1.384 . S
N8140 C8136 1.427 . S
N8140 C8137 1.384 . S
N8141 C8133 1.427 . S
N8141 C8139 1.384 . S
H8142 C8148 0.930 . S
H8143 C8152 0.930 . S
H8144 C8157 0.929 . S
H8145 C8155 0.929 . S
H8146 C8150 0.929 . S
H8147 C8156 0.929 . S
C8148 H8142 0.930 . S
C8148 C8149 1.367 . S
C8148 C8156 1.378 . S
C8149 C8148 1.367 . S
C8149 C8157 1.433 . S
C8150 H8146 0.929 . S
C8150 C8152 1.378 . S
C8150 C8154 1.350 . S
C8151 C8154 1.463 . S
C8151 C8156 1.350 . S
C8151 N8159 1.427 . S
C8152 H8143 0.930 . S
C8152 C8150 1.378 . S
C8152 C8153 1.367 . S
C8153 C8152 1.367 . S
C8153 C8155 1.433 . S
C8154 C8150 1.350 . S
C8154 C8151 1.463 . S
C8154 N8158 1.427 . S
C8155 H8145 0.929 . S
C8155 C8153 1.433 . S
C8155 N8158 1.384 . S
C8156 H8147 0.929 . S
C8156 C8148 1.378 . S
C8156 C8151 1.350 . S
C8157 H8144 0.929 . S
C8157 C8149 1.433 . S
C8157 N8159 1.384 . S
N8158 C8154 1.427 . S
N8158 C8155 1.384 . S
N8159 C8151 1.427 . S
N8159 C8157 1.384 . S
H8160 C8166 0.930 . S
H8161 C8170 0.930 . S
H8162 C8175 0.929 . S
H8163 C8173 0.929 . S
H8164 C8168 0.929 . S
H8165 C8174 0.929 . S
C8166 H8160 0.930 . S
C8166 C8167 1.367 . S
C8166 C8174 1.378 . S
C8167 C8166 1.367 . S
C8167 C8175 1.433 . S
C8168 H8164 0.929 . S
C8168 C8170 1.378 . S
C8168 C8172 1.350 . S
C8169 C8172 1.463 . S
C8169 C8174 1.350 . S
C8169 N8177 1.427 . S
C8170 H8161 0.930 . S
C8170 C8168 1.378 . S
C8170 C8171 1.367 . S
C8171 C8170 1.367 . S
C8171 C8173 1.433 . S
C8172 C8168 1.350 . S
C8172 C8169 1.463 . S
C8172 N8176 1.427 . S
C8173 H8163 0.929 . S
C8173 C8171 1.433 . S
C8173 N8176 1.384 . S
C8174 H8165 0.929 . S
C8174 C8166 1.378 . S
C8174 C8169 1.350 . S
C8175 H8162 0.929 . S
C8175 C8167 1.433 . S
C8175 N8177 1.384 . S
N8176 C8172 1.427 . S
N8176 C8173 1.384 . S
N8177 C8169 1.427 . S
N8177 C8175 1.384 . S
H8178 C8184 0.930 . S
H8179 C8188 0.930 . S
H8180 C8193 0.929 . S
H8181 C8191 0.929 . S
H8182 C8186 0.929 . S
H8183 C8192 0.929 . S
C8184 H8178 0.930 . S
C8184 C8185 1.367 . S
C8184 C8192 1.378 . S
C8185 C8184 1.367 . S
C8185 C8193 1.433 . S
C8186 H8182 0.929 . S
C8186 C8188 1.378 . S
C8186 C8190 1.350 . S
C8187 C8190 1.463 . S
C8187 C8192 1.350 . S
C8187 N8195 1.427 . S
C8188 H8179 0.930 . S
C8188 C8186 1.378 . S
C8188 C8189 1.367 . S
C8189 C8188 1.367 . S
C8189 C8191 1.433 . S
C8190 C8186 1.350 . S
C8190 C8187 1.463 . S
C8190 N8194 1.427 . S
C8191 H8181 0.929 . S
C8191 C8189 1.433 . S
C8191 N8194 1.384 . S
C8192 H8183 0.929 . S
C8192 C8184 1.378 . S
C8192 C8187 1.350 . S
C8193 H8180 0.929 . S
C8193 C8185 1.433 . S
C8193 N8195 1.384 . S
N8194 C8190 1.427 . S
N8194 C8191 1.384 . S
N8195 C8187 1.427 . S
N8195 C8193 1.384 . S
H8196 C8202 0.930 . S
H8197 C8206 0.930 . S
H8198 C8211 0.929 . S
H8199 C8209 0.929 . S
H8200 C8204 0.929 . S
H8201 C8210 0.929 . S
C8202 H8196 0.930 . S
C8202 C8203 1.367 . S
C8202 C8210 1.378 . S
C8203 C8202 1.367 . S
C8203 C8211 1.433 . S
C8204 H8200 0.929 . S
C8204 C8206 1.378 . S
C8204 C8208 1.350 . S
C8205 C8208 1.463 . S
C8205 C8210 1.350 . S
C8205 N8213 1.427 . S
C8206 H8197 0.930 . S
C8206 C8204 1.378 . S
C8206 C8207 1.367 . S
C8207 C8206 1.367 . S
C8207 C8209 1.433 . S
C8208 C8204 1.350 . S
C8208 C8205 1.463 . S
C8208 N8212 1.427 . S
C8209 H8199 0.929 . S
C8209 C8207 1.433 . S
C8209 N8212 1.384 . S
C8210 H8201 0.929 . S
C8210 C8202 1.378 . S
C8210 C8205 1.350 . S
C8211 H8198 0.929 . S
C8211 C8203 1.433 . S
C8211 N8213 1.384 . S
N8212 C8208 1.427 . S
N8212 C8209 1.384 . S
N8213 C8205 1.427 . S
N8213 C8211 1.384 . S
H8214 C8220 0.930 . S
H8215 C8224 0.930 . S
H8216 C8229 0.929 . S
H8217 C8227 0.929 . S
H8218 C8222 0.929 . S
H8219 C8228 0.929 . S
C8220 H8214 0.930 . S
C8220 C8221 1.367 . S
C8220 C8228 1.378 . S
C8221 C8220 1.367 . S
C8221 C8229 1.433 . S
C8222 H8218 0.929 . S
C8222 C8224 1.378 . S
C8222 C8226 1.350 . S
C8223 C8226 1.463 . S
C8223 C8228 1.350 . S
C8223 N8231 1.427 . S
C8224 H8215 0.930 . S
C8224 C8222 1.378 . S
C8224 C8225 1.367 . S
C8225 C8224 1.367 . S
C8225 C8227 1.433 . S
C8226 C8222 1.350 . S
C8226 C8223 1.463 . S
C8226 N8230 1.427 . S
C8227 H8217 0.929 . S
C8227 C8225 1.433 . S
C8227 N8230 1.384 . S
C8228 H8219 0.929 . S
C8228 C8220 1.378 . S
C8228 C8223 1.350 . S
C8229 H8216 0.929 . S
C8229 C8221 1.433 . S
C8229 N8231 1.384 . S
N8230 C8226 1.427 . S
N8230 C8227 1.384 . S
N8231 C8223 1.427 . S
N8231 C8229 1.384 . S
H8232 C8238 0.930 . S
H8233 C8242 0.930 . S
H8234 C8247 0.929 . S
H8235 C8245 0.929 . S
H8236 C8240 0.929 . S
H8237 C8246 0.929 . S
C8238 H8232 0.930 . S
C8238 C8239 1.367 . S
C8238 C8246 1.378 . S
C8239 C8238 1.367 . S
C8239 C8247 1.433 . S
C8240 H8236 0.929 . S
C8240 C8242 1.378 . S
C8240 C8244 1.350 . S
C8241 C8244 1.463 . S
C8241 C8246 1.350 . S
C8241 N8249 1.427 . S
C8242 H8233 0.930 . S
C8242 C8240 1.378 . S
C8242 C8243 1.367 . S
C8243 C8242 1.367 . S
C8243 C8245 1.433 . S
C8244 C8240 1.350 . S
C8244 C8241 1.463 . S
C8244 N8248 1.427 . S
C8245 H8235 0.929 . S
C8245 C8243 1.433 . S
C8245 N8248 1.384 . S
C8246 H8237 0.929 . S
C8246 C8238 1.378 . S
C8246 C8241 1.350 . S
C8247 H8234 0.929 . S
C8247 C8239 1.433 . S
C8247 N8249 1.384 . S
N8248 C8244 1.427 . S
N8248 C8245 1.384 . S
N8249 C8241 1.427 . S
N8249 C8247 1.384 . S
H8250 C8256 0.930 . S
H8251 C8260 0.930 . S
H8252 C8265 0.929 . S
H8253 C8263 0.929 . S
H8254 C8258 0.929 . S
H8255 C8264 0.929 . S
C8256 H8250 0.930 . S
C8256 C8257 1.367 . S
C8256 C8264 1.378 . S
C8257 C8256 1.367 . S
C8257 C8265 1.433 . S
C8258 H8254 0.929 . S
C8258 C8260 1.378 . S
C8258 C8262 1.350 . S
C8259 C8262 1.463 . S
C8259 C8264 1.350 . S
C8259 N8267 1.427 . S
C8260 H8251 0.930 . S
C8260 C8258 1.378 . S
C8260 C8261 1.367 . S
C8261 C8260 1.367 . S
C8261 C8263 1.433 . S
C8262 C8258 1.350 . S
C8262 C8259 1.463 . S
C8262 N8266 1.427 . S
C8263 H8253 0.929 . S
C8263 C8261 1.433 . S
C8263 N8266 1.384 . S
C8264 H8255 0.929 . S
C8264 C8256 1.378 . S
C8264 C8259 1.350 . S
C8265 H8252 0.929 . S
C8265 C8257 1.433 . S
C8265 N8267 1.384 . S
N8266 C8262 1.427 . S
N8266 C8263 1.384 . S
N8267 C8259 1.427 . S
N8267 C8265 1.384 . S
H8268 C8274 0.930 . S
H8269 C8278 0.930 . S
H8270 C8283 0.929 . S
H8271 C8281 0.929 . S
H8272 C8276 0.929 . S
H8273 C8282 0.929 . S
C8274 H8268 0.930 . S
C8274 C8275 1.367 . S
C8274 C8282 1.378 . S
C8275 C8274 1.367 . S
C8275 C8283 1.433 . S
C8276 H8272 0.929 . S
C8276 C8278 1.378 . S
C8276 C8280 1.350 . S
C8277 C8280 1.463 . S
C8277 C8282 1.350 . S
C8277 N8285 1.427 . S
C8278 H8269 0.930 . S
C8278 C8276 1.378 . S
C8278 C8279 1.367 . S
C8279 C8278 1.367 . S
C8279 C8281 1.433 . S
C8280 C8276 1.350 . S
C8280 C8277 1.463 . S
C8280 N8284 1.427 . S
C8281 H8271 0.929 . S
C8281 C8279 1.433 . S
C8281 N8284 1.384 . S
C8282 H8273 0.929 . S
C8282 C8274 1.378 . S
C8282 C8277 1.350 . S
C8283 H8270 0.929 . S
C8283 C8275 1.433 . S
C8283 N8285 1.384 . S
N8284 C8280 1.427 . S
N8284 C8281 1.384 . S
N8285 C8277 1.427 . S
N8285 C8283 1.384 . S
H8286 C8292 0.930 . S
H8287 C8296 0.930 . S
H8288 C8301 0.929 . S
H8289 C8299 0.929 . S
H8290 C8294 0.929 . S
H8291 C8300 0.929 . S
C8292 H8286 0.930 . S
C8292 C8293 1.367 . S
C8292 C8300 1.378 . S
C8293 C8292 1.367 . S
C8293 C8301 1.433 . S
C8294 H8290 0.929 . S
C8294 C8296 1.378 . S
C8294 C8298 1.350 . S
C8295 C8298 1.463 . S
C8295 C8300 1.350 . S
C8295 N8303 1.427 . S
C8296 H8287 0.930 . S
C8296 C8294 1.378 . S
C8296 C8297 1.367 . S
C8297 C8296 1.367 . S
C8297 C8299 1.433 . S
C8298 C8294 1.350 . S
C8298 C8295 1.463 . S
C8298 N8302 1.427 . S
C8299 H8289 0.929 . S
C8299 C8297 1.433 . S
C8299 N8302 1.384 . S
C8300 H8291 0.929 . S
C8300 C8292 1.378 . S
C8300 C8295 1.350 . S
C8301 H8288 0.929 . S
C8301 C8293 1.433 . S
C8301 N8303 1.384 . S
N8302 C8298 1.427 . S
N8302 C8299 1.384 . S
N8303 C8295 1.427 . S
N8303 C8301 1.384 . S
H8304 C8310 0.930 . S
H8305 C8314 0.930 . S
H8306 C8319 0.929 . S
H8307 C8317 0.929 . S
H8308 C8312 0.929 . S
H8309 C8318 0.929 . S
C8310 H8304 0.930 . S
C8310 C8311 1.367 . S
C8310 C8318 1.378 . S
C8311 C8310 1.367 . S
C8311 C8319 1.433 . S
C8312 H8308 0.929 . S
C8312 C8314 1.378 . S
C8312 C8316 1.350 . S
C8313 C8316 1.463 . S
C8313 C8318 1.350 . S
C8313 N8321 1.427 . S
C8314 H8305 0.930 . S
C8314 C8312 1.378 . S
C8314 C8315 1.367 . S
C8315 C8314 1.367 . S
C8315 C8317 1.433 . S
C8316 C8312 1.350 . S
C8316 C8313 1.463 . S
C8316 N8320 1.427 . S
C8317 H8307 0.929 . S
C8317 C8315 1.433 . S
C8317 N8320 1.384 . S
C8318 H8309 0.929 . S
C8318 C8310 1.378 . S
C8318 C8313 1.350 . S
C8319 H8306 0.929 . S
C8319 C8311 1.433 . S
C8319 N8321 1.384 . S
N8320 C8316 1.427 . S
N8320 C8317 1.384 . S
N8321 C8313 1.427 . S
N8321 C8319 1.384 . S
H8322 C8328 0.930 . S
H8323 C8332 0.930 . S
H8324 C8337 0.929 . S
H8325 C8335 0.929 . S
H8326 C8330 0.929 . S
H8327 C8336 0.929 . S
C8328 H8322 0.930 . S
C8328 C8329 1.367 . S
C8328 C8336 1.378 . S
C8329 C8328 1.367 . S
C8329 C8337 1.433 . S
C8330 H8326 0.929 . S
C8330 C8332 1.378 . S
C8330 C8334 1.350 . S
C8331 C8334 1.463 . S
C8331 C8336 1.350 . S
C8331 N8339 1.427 . S
C8332 H8323 0.930 . S
C8332 C8330 1.378 . S
C8332 C8333 1.367 . S
C8333 C8332 1.367 . S
C8333 C8335 1.433 . S
C8334 C8330 1.350 . S
C8334 C8331 1.463 . S
C8334 N8338 1.427 . S
C8335 H8325 0.929 . S
C8335 C8333 1.433 . S
C8335 N8338 1.384 . S
C8336 H8327 0.929 . S
C8336 C8328 1.378 . S
C8336 C8331 1.350 . S
C8337 H8324 0.929 . S
C8337 C8329 1.433 . S
C8337 N8339 1.384 . S
N8338 C8334 1.427 . S
N8338 C8335 1.384 . S
N8339 C8331 1.427 . S
N8339 C8337 1.384 . S
H8340 C8346 0.930 . S
H8341 C8350 0.930 . S
H8342 C8355 0.929 . S
H8343 C8353 0.929 . S
H8344 C8348 0.929 . S
H8345 C8354 0.929 . S
C8346 H8340 0.930 . S
C8346 C8347 1.367 . S
C8346 C8354 1.378 . S
C8347 C8346 1.367 . S
C8347 C8355 1.433 . S
C8348 H8344 0.929 . S
C8348 C8350 1.378 . S
C8348 C8352 1.350 . S
C8349 C8352 1.463 . S
C8349 C8354 1.350 . S
C8349 N8357 1.427 . S
C8350 H8341 0.930 . S
C8350 C8348 1.378 . S
C8350 C8351 1.367 . S
C8351 C8350 1.367 . S
C8351 C8353 1.433 . S
C8352 C8348 1.350 . S
C8352 C8349 1.463 . S
C8352 N8356 1.427 . S
C8353 H8343 0.929 . S
C8353 C8351 1.433 . S
C8353 N8356 1.384 . S
C8354 H8345 0.929 . S
C8354 C8346 1.378 . S
C8354 C8349 1.350 . S
C8355 H8342 0.929 . S
C8355 C8347 1.433 . S
C8355 N8357 1.384 . S
N8356 C8352 1.427 . S
N8356 C8353 1.384 . S
N8357 C8349 1.427 . S
N8357 C8355 1.384 . S
H8358 C8364 0.930 . S
H8359 C8368 0.930 . S
H8360 C8373 0.929 . S
H8361 C8371 0.929 . S
H8362 C8366 0.929 . S
H8363 C8372 0.929 . S
C8364 H8358 0.930 . S
C8364 C8365 1.367 . S
C8364 C8372 1.378 . S
C8365 C8364 1.367 . S
C8365 C8373 1.433 . S
C8366 H8362 0.929 . S
C8366 C8368 1.378 . S
C8366 C8370 1.350 . S
C8367 C8370 1.463 . S
C8367 C8372 1.350 . S
C8367 N8375 1.427 . S
C8368 H8359 0.930 . S
C8368 C8366 1.378 . S
C8368 C8369 1.367 . S
C8369 C8368 1.367 . S
C8369 C8371 1.433 . S
C8370 C8366 1.350 . S
C8370 C8367 1.463 . S
C8370 N8374 1.427 . S
C8371 H8361 0.929 . S
C8371 C8369 1.433 . S
C8371 N8374 1.384 . S
C8372 H8363 0.929 . S
C8372 C8364 1.378 . S
C8372 C8367 1.350 . S
C8373 H8360 0.929 . S
C8373 C8365 1.433 . S
C8373 N8375 1.384 . S
N8374 C8370 1.427 . S
N8374 C8371 1.384 . S
N8375 C8367 1.427 . S
N8375 C8373 1.384 . S
H8376 C8382 0.930 . S
H8377 C8386 0.930 . S
H8378 C8391 0.929 . S
H8379 C8389 0.929 . S
H8380 C8384 0.929 . S
H8381 C8390 0.929 . S
C8382 H8376 0.930 . S
C8382 C8383 1.367 . S
C8382 C8390 1.378 . S
C8383 C8382 1.367 . S
C8383 C8391 1.433 . S
C8384 H8380 0.929 . S
C8384 C8386 1.378 . S
C8384 C8388 1.350 . S
C8385 C8388 1.463 . S
C8385 C8390 1.350 . S
C8385 N8393 1.427 . S
C8386 H8377 0.930 . S
C8386 C8384 1.378 . S
C8386 C8387 1.367 . S
C8387 C8386 1.367 . S
C8387 C8389 1.433 . S
C8388 C8384 1.350 . S
C8388 C8385 1.463 . S
C8388 N8392 1.427 . S
C8389 H8379 0.929 . S
C8389 C8387 1.433 . S
C8389 N8392 1.384 . S
C8390 H8381 0.929 . S
C8390 C8382 1.378 . S
C8390 C8385 1.350 . S
C8391 H8378 0.929 . S
C8391 C8383 1.433 . S
C8391 N8393 1.384 . S
N8392 C8388 1.427 . S
N8392 C8389 1.384 . S
N8393 C8385 1.427 . S
N8393 C8391 1.384 . S
H8394 C8400 0.930 . S
H8395 C8404 0.930 . S
H8396 C8409 0.929 . S
H8397 C8407 0.929 . S
H8398 C8402 0.929 . S
H8399 C8408 0.929 . S
C8400 H8394 0.930 . S
C8400 C8401 1.367 . S
C8400 C8408 1.378 . S
C8401 C8400 1.367 . S
C8401 C8409 1.433 . S
C8402 H8398 0.929 . S
C8402 C8404 1.378 . S
C8402 C8406 1.350 . S
C8403 C8406 1.463 . S
C8403 C8408 1.350 . S
C8403 N8411 1.427 . S
C8404 H8395 0.930 . S
C8404 C8402 1.378 . S
C8404 C8405 1.367 . S
C8405 C8404 1.367 . S
C8405 C8407 1.433 . S
C8406 C8402 1.350 . S
C8406 C8403 1.463 . S
C8406 N8410 1.427 . S
C8407 H8397 0.929 . S
C8407 C8405 1.433 . S
C8407 N8410 1.384 . S
C8408 H8399 0.929 . S
C8408 C8400 1.378 . S
C8408 C8403 1.350 . S
C8409 H8396 0.929 . S
C8409 C8401 1.433 . S
C8409 N8411 1.384 . S
N8410 C8406 1.427 . S
N8410 C8407 1.384 . S
N8411 C8403 1.427 . S
N8411 C8409 1.384 . S
H8412 C8418 0.930 . S
H8413 C8422 0.930 . S
H8414 C8427 0.929 . S
H8415 C8425 0.929 . S
H8416 C8420 0.929 . S
H8417 C8426 0.929 . S
C8418 H8412 0.930 . S
C8418 C8419 1.367 . S
C8418 C8426 1.378 . S
C8419 C8418 1.367 . S
C8419 C8427 1.433 . S
C8420 H8416 0.929 . S
C8420 C8422 1.378 . S
C8420 C8424 1.350 . S
C8421 C8424 1.463 . S
C8421 C8426 1.350 . S
C8421 N8429 1.427 . S
C8422 H8413 0.930 . S
C8422 C8420 1.378 . S
C8422 C8423 1.367 . S
C8423 C8422 1.367 . S
C8423 C8425 1.433 . S
C8424 C8420 1.350 . S
C8424 C8421 1.463 . S
C8424 N8428 1.427 . S
C8425 H8415 0.929 . S
C8425 C8423 1.433 . S
C8425 N8428 1.384 . S
C8426 H8417 0.929 . S
C8426 C8418 1.378 . S
C8426 C8421 1.350 . S
C8427 H8414 0.929 . S
C8427 C8419 1.433 . S
C8427 N8429 1.384 . S
N8428 C8424 1.427 . S
N8428 C8425 1.384 . S
N8429 C8421 1.427 . S
N8429 C8427 1.384 . S
H8430 C8436 0.930 . S
H8431 C8440 0.930 . S
H8432 C8445 0.929 . S
H8433 C8443 0.929 . S
H8434 C8438 0.929 . S
H8435 C8444 0.929 . S
C8436 H8430 0.930 . S
C8436 C8437 1.367 . S
C8436 C8444 1.378 . S
C8437 C8436 1.367 . S
C8437 C8445 1.433 . S
C8438 H8434 0.929 . S
C8438 C8440 1.378 . S
C8438 C8442 1.350 . S
C8439 C8442 1.463 . S
C8439 C8444 1.350 . S
C8439 N8447 1.427 . S
C8440 H8431 0.930 . S
C8440 C8438 1.378 . S
C8440 C8441 1.367 . S
C8441 C8440 1.367 . S
C8441 C8443 1.433 . S
C8442 C8438 1.350 . S
C8442 C8439 1.463 . S
C8442 N8446 1.427 . S
C8443 H8433 0.929 . S
C8443 C8441 1.433 . S
C8443 N8446 1.384 . S
C8444 H8435 0.929 . S
C8444 C8436 1.378 . S
C8444 C8439 1.350 . S
C8445 H8432 0.929 . S
C8445 C8437 1.433 . S
C8445 N8447 1.384 . S
N8446 C8442 1.427 . S
N8446 C8443 1.384 . S
N8447 C8439 1.427 . S
N8447 C8445 1.384 . S
H8448 C8454 0.930 . S
H8449 C8458 0.930 . S
H8450 C8463 0.929 . S
H8451 C8461 0.929 . S
H8452 C8456 0.929 . S
H8453 C8462 0.929 . S
C8454 H8448 0.930 . S
C8454 C8455 1.367 . S
C8454 C8462 1.378 . S
C8455 C8454 1.367 . S
C8455 C8463 1.433 . S
C8456 H8452 0.929 . S
C8456 C8458 1.378 . S
C8456 C8460 1.350 . S
C8457 C8460 1.463 . S
C8457 C8462 1.350 . S
C8457 N8465 1.427 . S
C8458 H8449 0.930 . S
C8458 C8456 1.378 . S
C8458 C8459 1.367 . S
C8459 C8458 1.367 . S
C8459 C8461 1.433 . S
C8460 C8456 1.350 . S
C8460 C8457 1.463 . S
C8460 N8464 1.427 . S
C8461 H8451 0.929 . S
C8461 C8459 1.433 . S
C8461 N8464 1.384 . S
C8462 H8453 0.929 . S
C8462 C8454 1.378 . S
C8462 C8457 1.350 . S
C8463 H8450 0.929 . S
C8463 C8455 1.433 . S
C8463 N8465 1.384 . S
N8464 C8460 1.427 . S
N8464 C8461 1.384 . S
N8465 C8457 1.427 . S
N8465 C8463 1.384 . S
H8466 C8472 0.930 . S
H8467 C8476 0.930 . S
H8468 C8481 0.929 . S
H8469 C8479 0.929 . S
H8470 C8474 0.929 . S
H8471 C8480 0.929 . S
C8472 H8466 0.930 . S
C8472 C8473 1.367 . S
C8472 C8480 1.378 . S
C8473 C8472 1.367 . S
C8473 C8481 1.433 . S
C8474 H8470 0.929 . S
C8474 C8476 1.378 . S
C8474 C8478 1.350 . S
C8475 C8478 1.463 . S
C8475 C8480 1.350 . S
C8475 N8483 1.427 . S
C8476 H8467 0.930 . S
C8476 C8474 1.378 . S
C8476 C8477 1.367 . S
C8477 C8476 1.367 . S
C8477 C8479 1.433 . S
C8478 C8474 1.350 . S
C8478 C8475 1.463 . S
C8478 N8482 1.427 . S
C8479 H8469 0.929 . S
C8479 C8477 1.433 . S
C8479 N8482 1.384 . S
C8480 H8471 0.929 . S
C8480 C8472 1.378 . S
C8480 C8475 1.350 . S
C8481 H8468 0.929 . S
C8481 C8473 1.433 . S
C8481 N8483 1.384 . S
N8482 C8478 1.427 . S
N8482 C8479 1.384 . S
N8483 C8475 1.427 . S
N8483 C8481 1.384 . S
H8484 C8490 0.930 . S
H8485 C8494 0.930 . S
H8486 C8499 0.929 . S
H8487 C8497 0.929 . S
H8488 C8492 0.929 . S
H8489 C8498 0.929 . S
C8490 H8484 0.930 . S
C8490 C8491 1.367 . S
C8490 C8498 1.378 . S
C8491 C8490 1.367 . S
C8491 C8499 1.433 . S
C8492 H8488 0.929 . S
C8492 C8494 1.378 . S
C8492 C8496 1.350 . S
C8493 C8496 1.463 . S
C8493 C8498 1.350 . S
C8493 N8501 1.427 . S
C8494 H8485 0.930 . S
C8494 C8492 1.378 . S
C8494 C8495 1.367 . S
C8495 C8494 1.367 . S
C8495 C8497 1.433 . S
C8496 C8492 1.350 . S
C8496 C8493 1.463 . S
C8496 N8500 1.427 . S
C8497 H8487 0.929 . S
C8497 C8495 1.433 . S
C8497 N8500 1.384 . S
C8498 H8489 0.929 . S
C8498 C8490 1.378 . S
C8498 C8493 1.350 . S
C8499 H8486 0.929 . S
C8499 C8491 1.433 . S
C8499 N8501 1.384 . S
N8500 C8496 1.427 . S
N8500 C8497 1.384 . S
N8501 C8493 1.427 . S
N8501 C8499 1.384 . S
H8502 C8508 0.930 . S
H8503 C8512 0.930 . S
H8504 C8517 0.929 . S
H8505 C8515 0.929 . S
H8506 C8510 0.929 . S
H8507 C8516 0.929 . S
C8508 H8502 0.930 . S
C8508 C8509 1.367 . S
C8508 C8516 1.378 . S
C8509 C8508 1.367 . S
C8509 C8517 1.433 . S
C8510 H8506 0.929 . S
C8510 C8512 1.378 . S
C8510 C8514 1.350 . S
C8511 C8514 1.463 . S
C8511 C8516 1.350 . S
C8511 N8519 1.427 . S
C8512 H8503 0.930 . S
C8512 C8510 1.378 . S
C8512 C8513 1.367 . S
C8513 C8512 1.367 . S
C8513 C8515 1.433 . S
C8514 C8510 1.350 . S
C8514 C8511 1.463 . S
C8514 N8518 1.427 . S
C8515 H8505 0.929 . S
C8515 C8513 1.433 . S
C8515 N8518 1.384 . S
C8516 H8507 0.929 . S
C8516 C8508 1.378 . S
C8516 C8511 1.350 . S
C8517 H8504 0.929 . S
C8517 C8509 1.433 . S
C8517 N8519 1.384 . S
N8518 C8514 1.427 . S
N8518 C8515 1.384 . S
N8519 C8511 1.427 . S
N8519 C8517 1.384 . S
H8520 C8526 0.930 . S
H8521 C8530 0.930 . S
H8522 C8535 0.929 . S
H8523 C8533 0.929 . S
H8524 C8528 0.929 . S
H8525 C8534 0.929 . S
C8526 H8520 0.930 . S
C8526 C8527 1.367 . S
C8526 C8534 1.378 . S
C8527 C8526 1.367 . S
C8527 C8535 1.433 . S
C8528 H8524 0.929 . S
C8528 C8530 1.378 . S
C8528 C8532 1.350 . S
C8529 C8532 1.463 . S
C8529 C8534 1.350 . S
C8529 N8537 1.427 . S
C8530 H8521 0.930 . S
C8530 C8528 1.378 . S
C8530 C8531 1.367 . S
C8531 C8530 1.367 . S
C8531 C8533 1.433 . S
C8532 C8528 1.350 . S
C8532 C8529 1.463 . S
C8532 N8536 1.427 . S
C8533 H8523 0.929 . S
C8533 C8531 1.433 . S
C8533 N8536 1.384 . S
C8534 H8525 0.929 . S
C8534 C8526 1.378 . S
C8534 C8529 1.350 . S
C8535 H8522 0.929 . S
C8535 C8527 1.433 . S
C8535 N8537 1.384 . S
N8536 C8532 1.427 . S
N8536 C8533 1.384 . S
N8537 C8529 1.427 . S
N8537 C8535 1.384 . S
H8538 C8544 0.930 . S
H8539 C8548 0.930 . S
H8540 C8553 0.929 . S
H8541 C8551 0.929 . S
H8542 C8546 0.929 . S
H8543 C8552 0.929 . S
C8544 H8538 0.930 . S
C8544 C8545 1.367 . S
C8544 C8552 1.378 . S
C8545 C8544 1.367 . S
C8545 C8553 1.433 . S
C8546 H8542 0.929 . S
C8546 C8548 1.378 . S
C8546 C8550 1.350 . S
C8547 C8550 1.463 . S
C8547 C8552 1.350 . S
C8547 N8555 1.427 . S
C8548 H8539 0.930 . S
C8548 C8546 1.378 . S
C8548 C8549 1.367 . S
C8549 C8548 1.367 . S
C8549 C8551 1.433 . S
C8550 C8546 1.350 . S
C8550 C8547 1.463 . S
C8550 N8554 1.427 . S
C8551 H8541 0.929 . S
C8551 C8549 1.433 . S
C8551 N8554 1.384 . S
C8552 H8543 0.929 . S
C8552 C8544 1.378 . S
C8552 C8547 1.350 . S
C8553 H8540 0.929 . S
C8553 C8545 1.433 . S
C8553 N8555 1.384 . S
N8554 C8550 1.427 . S
N8554 C8551 1.384 . S
N8555 C8547 1.427 . S
N8555 C8553 1.384 . S
H8556 C8562 0.930 . S
H8557 C8566 0.930 . S
H8558 C8571 0.929 . S
H8559 C8569 0.929 . S
H8560 C8564 0.929 . S
H8561 C8570 0.929 . S
C8562 H8556 0.930 . S
C8562 C8563 1.367 . S
C8562 C8570 1.378 . S
C8563 C8562 1.367 . S
C8563 C8571 1.433 . S
C8564 H8560 0.929 . S
C8564 C8566 1.378 . S
C8564 C8568 1.350 . S
C8565 C8568 1.463 . S
C8565 C8570 1.350 . S
C8565 N8573 1.427 . S
C8566 H8557 0.930 . S
C8566 C8564 1.378 . S
C8566 C8567 1.367 . S
C8567 C8566 1.367 . S
C8567 C8569 1.433 . S
C8568 C8564 1.350 . S
C8568 C8565 1.463 . S
C8568 N8572 1.427 . S
C8569 H8559 0.929 . S
C8569 C8567 1.433 . S
C8569 N8572 1.384 . S
C8570 H8561 0.929 . S
C8570 C8562 1.378 . S
C8570 C8565 1.350 . S
C8571 H8558 0.929 . S
C8571 C8563 1.433 . S
C8571 N8573 1.384 . S
N8572 C8568 1.427 . S
N8572 C8569 1.384 . S
N8573 C8565 1.427 . S
N8573 C8571 1.384 . S
H8574 C8580 0.930 . S
H8575 C8584 0.930 . S
H8576 C8589 0.929 . S
H8577 C8587 0.929 . S
H8578 C8582 0.929 . S
H8579 C8588 0.929 . S
C8580 H8574 0.930 . S
C8580 C8581 1.367 . S
C8580 C8588 1.378 . S
C8581 C8580 1.367 . S
C8581 C8589 1.433 . S
C8582 H8578 0.929 . S
C8582 C8584 1.378 . S
C8582 C8586 1.350 . S
C8583 C8586 1.463 . S
C8583 C8588 1.350 . S
C8583 N8591 1.427 . S
C8584 H8575 0.930 . S
C8584 C8582 1.378 . S
C8584 C8585 1.367 . S
C8585 C8584 1.367 . S
C8585 C8587 1.433 . S
C8586 C8582 1.350 . S
C8586 C8583 1.463 . S
C8586 N8590 1.427 . S
C8587 H8577 0.929 . S
C8587 C8585 1.433 . S
C8587 N8590 1.384 . S
C8588 H8579 0.929 . S
C8588 C8580 1.378 . S
C8588 C8583 1.350 . S
C8589 H8576 0.929 . S
C8589 C8581 1.433 . S
C8589 N8591 1.384 . S
N8590 C8586 1.427 . S
N8590 C8587 1.384 . S
N8591 C8583 1.427 . S
N8591 C8589 1.384 . S
H8592 C8598 0.930 . S
H8593 C8602 0.930 . S
H8594 C8607 0.929 . S
H8595 C8605 0.929 . S
H8596 C8600 0.929 . S
H8597 C8606 0.929 . S
C8598 H8592 0.930 . S
C8598 C8599 1.367 . S
C8598 C8606 1.378 . S
C8599 C8598 1.367 . S
C8599 C8607 1.433 . S
C8600 H8596 0.929 . S
C8600 C8602 1.378 . S
C8600 C8604 1.350 . S
C8601 C8604 1.463 . S
C8601 C8606 1.350 . S
C8601 N8609 1.427 . S
C8602 H8593 0.930 . S
C8602 C8600 1.378 . S
C8602 C8603 1.367 . S
C8603 C8602 1.367 . S
C8603 C8605 1.433 . S
C8604 C8600 1.350 . S
C8604 C8601 1.463 . S
C8604 N8608 1.427 . S
C8605 H8595 0.929 . S
C8605 C8603 1.433 . S
C8605 N8608 1.384 . S
C8606 H8597 0.929 . S
C8606 C8598 1.378 . S
C8606 C8601 1.350 . S
C8607 H8594 0.929 . S
C8607 C8599 1.433 . S
C8607 N8609 1.384 . S
N8608 C8604 1.427 . S
N8608 C8605 1.384 . S
N8609 C8601 1.427 . S
N8609 C8607 1.384 . S
H8610 C8616 0.930 . S
H8611 C8620 0.930 . S
H8612 C8625 0.929 . S
H8613 C8623 0.929 . S
H8614 C8618 0.929 . S
H8615 C8624 0.929 . S
C8616 H8610 0.930 . S
C8616 C8617 1.367 . S
C8616 C8624 1.378 . S
C8617 C8616 1.367 . S
C8617 C8625 1.433 . S
C8618 H8614 0.929 . S
C8618 C8620 1.378 . S
C8618 C8622 1.350 . S
C8619 C8622 1.463 . S
C8619 C8624 1.350 . S
C8619 N8627 1.427 . S
C8620 H8611 0.930 . S
C8620 C8618 1.378 . S
C8620 C8621 1.367 . S
C8621 C8620 1.367 . S
C8621 C8623 1.433 . S
C8622 C8618 1.350 . S
C8622 C8619 1.463 . S
C8622 N8626 1.427 . S
C8623 H8613 0.929 . S
C8623 C8621 1.433 . S
C8623 N8626 1.384 . S
C8624 H8615 0.929 . S
C8624 C8616 1.378 . S
C8624 C8619 1.350 . S
C8625 H8612 0.929 . S
C8625 C8617 1.433 . S
C8625 N8627 1.384 . S
N8626 C8622 1.427 . S
N8626 C8623 1.384 . S
N8627 C8619 1.427 . S
N8627 C8625 1.384 . S
H8628 C8634 0.930 . S
H8629 C8638 0.930 . S
H8630 C8643 0.929 . S
H8631 C8641 0.929 . S
H8632 C8636 0.929 . S
H8633 C8642 0.929 . S
C8634 H8628 0.930 . S
C8634 C8635 1.367 . S
C8634 C8642 1.378 . S
C8635 C8634 1.367 . S
C8635 C8643 1.433 . S
C8636 H8632 0.929 . S
C8636 C8638 1.378 . S
C8636 C8640 1.350 . S
C8637 C8640 1.463 . S
C8637 C8642 1.350 . S
C8637 N8645 1.427 . S
C8638 H8629 0.930 . S
C8638 C8636 1.378 . S
C8638 C8639 1.367 . S
C8639 C8638 1.367 . S
C8639 C8641 1.433 . S
C8640 C8636 1.350 . S
C8640 C8637 1.463 . S
C8640 N8644 1.427 . S
C8641 H8631 0.929 . S
C8641 C8639 1.433 . S
C8641 N8644 1.384 . S
C8642 H8633 0.929 . S
C8642 C8634 1.378 . S
C8642 C8637 1.350 . S
C8643 H8630 0.929 . S
C8643 C8635 1.433 . S
C8643 N8645 1.384 . S
N8644 C8640 1.427 . S
N8644 C8641 1.384 . S
N8645 C8637 1.427 . S
N8645 C8643 1.384 . S
H8646 C8652 0.930 . S
H8647 C8656 0.930 . S
H8648 C8661 0.929 . S
H8649 C8659 0.929 . S
H8650 C8654 0.929 . S
H8651 C8660 0.929 . S
C8652 H8646 0.930 . S
C8652 C8653 1.367 . S
C8652 C8660 1.378 . S
C8653 C8652 1.367 . S
C8653 C8661 1.433 . S
C8654 H8650 0.929 . S
C8654 C8656 1.378 . S
C8654 C8658 1.350 . S
C8655 C8658 1.463 . S
C8655 C8660 1.350 . S
C8655 N8663 1.427 . S
C8656 H8647 0.930 . S
C8656 C8654 1.378 . S
C8656 C8657 1.367 . S
C8657 C8656 1.367 . S
C8657 C8659 1.433 . S
C8658 C8654 1.350 . S
C8658 C8655 1.463 . S
C8658 N8662 1.427 . S
C8659 H8649 0.929 . S
C8659 C8657 1.433 . S
C8659 N8662 1.384 . S
C8660 H8651 0.929 . S
C8660 C8652 1.378 . S
C8660 C8655 1.350 . S
C8661 H8648 0.929 . S
C8661 C8653 1.433 . S
C8661 N8663 1.384 . S
N8662 C8658 1.427 . S
N8662 C8659 1.384 . S
N8663 C8655 1.427 . S
N8663 C8661 1.384 . S
H8664 C8670 0.930 . S
H8665 C8674 0.930 . S
H8666 C8679 0.929 . S
H8667 C8677 0.929 . S
H8668 C8672 0.929 . S
H8669 C8678 0.929 . S
C8670 H8664 0.930 . S
C8670 C8671 1.367 . S
C8670 C8678 1.378 . S
C8671 C8670 1.367 . S
C8671 C8679 1.433 . S
C8672 H8668 0.929 . S
C8672 C8674 1.378 . S
C8672 C8676 1.350 . S
C8673 C8676 1.463 . S
C8673 C8678 1.350 . S
C8673 N8681 1.427 . S
C8674 H8665 0.930 . S
C8674 C8672 1.378 . S
C8674 C8675 1.367 . S
C8675 C8674 1.367 . S
C8675 C8677 1.433 . S
C8676 C8672 1.350 . S
C8676 C8673 1.463 . S
C8676 N8680 1.427 . S
C8677 H8667 0.929 . S
C8677 C8675 1.433 . S
C8677 N8680 1.384 . S
C8678 H8669 0.929 . S
C8678 C8670 1.378 . S
C8678 C8673 1.350 . S
C8679 H8666 0.929 . S
C8679 C8671 1.433 . S
C8679 N8681 1.384 . S
N8680 C8676 1.427 . S
N8680 C8677 1.384 . S
N8681 C8673 1.427 . S
N8681 C8679 1.384 . S
H8682 C8688 0.930 . S
H8683 C8692 0.930 . S
H8684 C8697 0.929 . S
H8685 C8695 0.929 . S
H8686 C8690 0.929 . S
H8687 C8696 0.929 . S
C8688 H8682 0.930 . S
C8688 C8689 1.367 . S
C8688 C8696 1.378 . S
C8689 C8688 1.367 . S
C8689 C8697 1.433 . S
C8690 H8686 0.929 . S
C8690 C8692 1.378 . S
C8690 C8694 1.350 . S
C8691 C8694 1.463 . S
C8691 C8696 1.350 . S
C8691 N8699 1.427 . S
C8692 H8683 0.930 . S
C8692 C8690 1.378 . S
C8692 C8693 1.367 . S
C8693 C8692 1.367 . S
C8693 C8695 1.433 . S
C8694 C8690 1.350 . S
C8694 C8691 1.463 . S
C8694 N8698 1.427 . S
C8695 H8685 0.929 . S
C8695 C8693 1.433 . S
C8695 N8698 1.384 . S
C8696 H8687 0.929 . S
C8696 C8688 1.378 . S
C8696 C8691 1.350 . S
C8697 H8684 0.929 . S
C8697 C8689 1.433 . S
C8697 N8699 1.384 . S
N8698 C8694 1.427 . S
N8698 C8695 1.384 . S
N8699 C8691 1.427 . S
N8699 C8697 1.384 . S
H8700 C8706 0.930 . S
H8701 C8710 0.930 . S
H8702 C8715 0.929 . S
H8703 C8713 0.929 . S
H8704 C8708 0.929 . S
H8705 C8714 0.929 . S
C8706 H8700 0.930 . S
C8706 C8707 1.367 . S
C8706 C8714 1.378 . S
C8707 C8706 1.367 . S
C8707 C8715 1.433 . S
C8708 H8704 0.929 . S
C8708 C8710 1.378 . S
C8708 C8712 1.350 . S
C8709 C8712 1.463 . S
C8709 C8714 1.350 . S
C8709 N8717 1.427 . S
C8710 H8701 0.930 . S
C8710 C8708 1.378 . S
C8710 C8711 1.367 . S
C8711 C8710 1.367 . S
C8711 C8713 1.433 . S
C8712 C8708 1.350 . S
C8712 C8709 1.463 . S
C8712 N8716 1.427 . S
C8713 H8703 0.929 . S
C8713 C8711 1.433 . S
C8713 N8716 1.384 . S
C8714 H8705 0.929 . S
C8714 C8706 1.378 . S
C8714 C8709 1.350 . S
C8715 H8702 0.929 . S
C8715 C8707 1.433 . S
C8715 N8717 1.384 . S
N8716 C8712 1.427 . S
N8716 C8713 1.384 . S
N8717 C8709 1.427 . S
N8717 C8715 1.384 . S
H8718 C8724 0.930 . S
H8719 C8728 0.930 . S
H8720 C8733 0.929 . S
H8721 C8731 0.929 . S
H8722 C8726 0.929 . S
H8723 C8732 0.929 . S
C8724 H8718 0.930 . S
C8724 C8725 1.367 . S
C8724 C8732 1.378 . S
C8725 C8724 1.367 . S
C8725 C8733 1.433 . S
C8726 H8722 0.929 . S
C8726 C8728 1.378 . S
C8726 C8730 1.350 . S
C8727 C8730 1.463 . S
C8727 C8732 1.350 . S
C8727 N8735 1.427 . S
C8728 H8719 0.930 . S
C8728 C8726 1.378 . S
C8728 C8729 1.367 . S
C8729 C8728 1.367 . S
C8729 C8731 1.433 . S
C8730 C8726 1.350 . S
C8730 C8727 1.463 . S
C8730 N8734 1.427 . S
C8731 H8721 0.929 . S
C8731 C8729 1.433 . S
C8731 N8734 1.384 . S
C8732 H8723 0.929 . S
C8732 C8724 1.378 . S
C8732 C8727 1.350 . S
C8733 H8720 0.929 . S
C8733 C8725 1.433 . S
C8733 N8735 1.384 . S
N8734 C8730 1.427 . S
N8734 C8731 1.384 . S
N8735 C8727 1.427 . S
N8735 C8733 1.384 . S
H8736 C8742 0.930 . S
H8737 C8746 0.930 . S
H8738 C8751 0.929 . S
H8739 C8749 0.929 . S
H8740 C8744 0.929 . S
H8741 C8750 0.929 . S
C8742 H8736 0.930 . S
C8742 C8743 1.367 . S
C8742 C8750 1.378 . S
C8743 C8742 1.367 . S
C8743 C8751 1.433 . S
C8744 H8740 0.929 . S
C8744 C8746 1.378 . S
C8744 C8748 1.350 . S
C8745 C8748 1.463 . S
C8745 C8750 1.350 . S
C8745 N8753 1.427 . S
C8746 H8737 0.930 . S
C8746 C8744 1.378 . S
C8746 C8747 1.367 . S
C8747 C8746 1.367 . S
C8747 C8749 1.433 . S
C8748 C8744 1.350 . S
C8748 C8745 1.463 . S
C8748 N8752 1.427 . S
C8749 H8739 0.929 . S
C8749 C8747 1.433 . S
C8749 N8752 1.384 . S
C8750 H8741 0.929 . S
C8750 C8742 1.378 . S
C8750 C8745 1.350 . S
C8751 H8738 0.929 . S
C8751 C8743 1.433 . S
C8751 N8753 1.384 . S
N8752 C8748 1.427 . S
N8752 C8749 1.384 . S
N8753 C8745 1.427 . S
N8753 C8751 1.384 . S
H8754 C8760 0.930 . S
H8755 C8764 0.930 . S
H8756 C8769 0.929 . S
H8757 C8767 0.929 . S
H8758 C8762 0.929 . S
H8759 C8768 0.929 . S
C8760 H8754 0.930 . S
C8760 C8761 1.367 . S
C8760 C8768 1.378 . S
C8761 C8760 1.367 . S
C8761 C8769 1.433 . S
C8762 H8758 0.929 . S
C8762 C8764 1.378 . S
C8762 C8766 1.350 . S
C8763 C8766 1.463 . S
C8763 C8768 1.350 . S
C8763 N8771 1.427 . S
C8764 H8755 0.930 . S
C8764 C8762 1.378 . S
C8764 C8765 1.367 . S
C8765 C8764 1.367 . S
C8765 C8767 1.433 . S
C8766 C8762 1.350 . S
C8766 C8763 1.463 . S
C8766 N8770 1.427 . S
C8767 H8757 0.929 . S
C8767 C8765 1.433 . S
C8767 N8770 1.384 . S
C8768 H8759 0.929 . S
C8768 C8760 1.378 . S
C8768 C8763 1.350 . S
C8769 H8756 0.929 . S
C8769 C8761 1.433 . S
C8769 N8771 1.384 . S
N8770 C8766 1.427 . S
N8770 C8767 1.384 . S
N8771 C8763 1.427 . S
N8771 C8769 1.384 . S
H8772 C8778 0.930 . S
H8773 C8782 0.930 . S
H8774 C8787 0.929 . S
H8775 C8785 0.929 . S
H8776 C8780 0.929 . S
H8777 C8786 0.929 . S
C8778 H8772 0.930 . S
C8778 C8779 1.367 . S
C8778 C8786 1.378 . S
C8779 C8778 1.367 . S
C8779 C8787 1.433 . S
C8780 H8776 0.929 . S
C8780 C8782 1.378 . S
C8780 C8784 1.350 . S
C8781 C8784 1.463 . S
C8781 C8786 1.350 . S
C8781 N8789 1.427 . S
C8782 H8773 0.930 . S
C8782 C8780 1.378 . S
C8782 C8783 1.367 . S
C8783 C8782 1.367 . S
C8783 C8785 1.433 . S
C8784 C8780 1.350 . S
C8784 C8781 1.463 . S
C8784 N8788 1.427 . S
C8785 H8775 0.929 . S
C8785 C8783 1.433 . S
C8785 N8788 1.384 . S
C8786 H8777 0.929 . S
C8786 C8778 1.378 . S
C8786 C8781 1.350 . S
C8787 H8774 0.929 . S
C8787 C8779 1.433 . S
C8787 N8789 1.384 . S
N8788 C8784 1.427 . S
N8788 C8785 1.384 . S
N8789 C8781 1.427 . S
N8789 C8787 1.384 . S
H8790 C8796 0.930 . S
H8791 C8800 0.930 . S
H8792 C8805 0.929 . S
H8793 C8803 0.929 . S
H8794 C8798 0.929 . S
H8795 C8804 0.929 . S
C8796 H8790 0.930 . S
C8796 C8797 1.367 . S
C8796 C8804 1.378 . S
C8797 C8796 1.367 . S
C8797 C8805 1.433 . S
C8798 H8794 0.929 . S
C8798 C8800 1.378 . S
C8798 C8802 1.350 . S
C8799 C8802 1.463 . S
C8799 C8804 1.350 . S
C8799 N8807 1.427 . S
C8800 H8791 0.930 . S
C8800 C8798 1.378 . S
C8800 C8801 1.367 . S
C8801 C8800 1.367 . S
C8801 C8803 1.433 . S
C8802 C8798 1.350 . S
C8802 C8799 1.463 . S
C8802 N8806 1.427 . S
C8803 H8793 0.929 . S
C8803 C8801 1.433 . S
C8803 N8806 1.384 . S
C8804 H8795 0.929 . S
C8804 C8796 1.378 . S
C8804 C8799 1.350 . S
C8805 H8792 0.929 . S
C8805 C8797 1.433 . S
C8805 N8807 1.384 . S
N8806 C8802 1.427 . S
N8806 C8803 1.384 . S
N8807 C8799 1.427 . S
N8807 C8805 1.384 . S
H8808 C8814 0.930 . S
H8809 C8818 0.930 . S
H8810 C8823 0.929 . S
H8811 C8821 0.929 . S
H8812 C8816 0.929 . S
H8813 C8822 0.929 . S
C8814 H8808 0.930 . S
C8814 C8815 1.367 . S
C8814 C8822 1.378 . S
C8815 C8814 1.367 . S
C8815 C8823 1.433 . S
C8816 H8812 0.929 . S
C8816 C8818 1.378 . S
C8816 C8820 1.350 . S
C8817 C8820 1.463 . S
C8817 C8822 1.350 . S
C8817 N8825 1.427 . S
C8818 H8809 0.930 . S
C8818 C8816 1.378 . S
C8818 C8819 1.367 . S
C8819 C8818 1.367 . S
C8819 C8821 1.433 . S
C8820 C8816 1.350 . S
C8820 C8817 1.463 . S
C8820 N8824 1.427 . S
C8821 H8811 0.929 . S
C8821 C8819 1.433 . S
C8821 N8824 1.384 . S
C8822 H8813 0.929 . S
C8822 C8814 1.378 . S
C8822 C8817 1.350 . S
C8823 H8810 0.929 . S
C8823 C8815 1.433 . S
C8823 N8825 1.384 . S
N8824 C8820 1.427 . S
N8824 C8821 1.384 . S
N8825 C8817 1.427 . S
N8825 C8823 1.384 . S
H8826 C8832 0.930 . S
H8827 C8836 0.930 . S
H8828 C8841 0.929 . S
H8829 C8839 0.929 . S
H8830 C8834 0.929 . S
H8831 C8840 0.929 . S
C8832 H8826 0.930 . S
C8832 C8833 1.367 . S
C8832 C8840 1.378 . S
C8833 C8832 1.367 . S
C8833 C8841 1.433 . S
C8834 H8830 0.929 . S
C8834 C8836 1.378 . S
C8834 C8838 1.350 . S
C8835 C8838 1.463 . S
C8835 C8840 1.350 . S
C8835 N8843 1.427 . S
C8836 H8827 0.930 . S
C8836 C8834 1.378 . S
C8836 C8837 1.367 . S
C8837 C8836 1.367 . S
C8837 C8839 1.433 . S
C8838 C8834 1.350 . S
C8838 C8835 1.463 . S
C8838 N8842 1.427 . S
C8839 H8829 0.929 . S
C8839 C8837 1.433 . S
C8839 N8842 1.384 . S
C8840 H8831 0.929 . S
C8840 C8832 1.378 . S
C8840 C8835 1.350 . S
C8841 H8828 0.929 . S
C8841 C8833 1.433 . S
C8841 N8843 1.384 . S
N8842 C8838 1.427 . S
N8842 C8839 1.384 . S
N8843 C8835 1.427 . S
N8843 C8841 1.384 . S
H8844 C8850 0.930 . S
H8845 C8854 0.930 . S
H8846 C8859 0.929 . S
H8847 C8857 0.929 . S
H8848 C8852 0.929 . S
H8849 C8858 0.929 . S
C8850 H8844 0.930 . S
C8850 C8851 1.367 . S
C8850 C8858 1.378 . S
C8851 C8850 1.367 . S
C8851 C8859 1.433 . S
C8852 H8848 0.929 . S
C8852 C8854 1.378 . S
C8852 C8856 1.350 . S
C8853 C8856 1.463 . S
C8853 C8858 1.350 . S
C8853 N8861 1.427 . S
C8854 H8845 0.930 . S
C8854 C8852 1.378 . S
C8854 C8855 1.367 . S
C8855 C8854 1.367 . S
C8855 C8857 1.433 . S
C8856 C8852 1.350 . S
C8856 C8853 1.463 . S
C8856 N8860 1.427 . S
C8857 H8847 0.929 . S
C8857 C8855 1.433 . S
C8857 N8860 1.384 . S
C8858 H8849 0.929 . S
C8858 C8850 1.378 . S
C8858 C8853 1.350 . S
C8859 H8846 0.929 . S
C8859 C8851 1.433 . S
C8859 N8861 1.384 . S
N8860 C8856 1.427 . S
N8860 C8857 1.384 . S
N8861 C8853 1.427 . S
N8861 C8859 1.384 . S
H8862 C8868 0.930 . S
H8863 C8872 0.930 . S
H8864 C8877 0.929 . S
H8865 C8875 0.929 . S
H8866 C8870 0.929 . S
H8867 C8876 0.929 . S
C8868 H8862 0.930 . S
C8868 C8869 1.367 . S
C8868 C8876 1.378 . S
C8869 C8868 1.367 . S
C8869 C8877 1.433 . S
C8870 H8866 0.929 . S
C8870 C8872 1.378 . S
C8870 C8874 1.350 . S
C8871 C8874 1.463 . S
C8871 C8876 1.350 . S
C8871 N8879 1.427 . S
C8872 H8863 0.930 . S
C8872 C8870 1.378 . S
C8872 C8873 1.367 . S
C8873 C8872 1.367 . S
C8873 C8875 1.433 . S
C8874 C8870 1.350 . S
C8874 C8871 1.463 . S
C8874 N8878 1.427 . S
C8875 H8865 0.929 . S
C8875 C8873 1.433 . S
C8875 N8878 1.384 . S
C8876 H8867 0.929 . S
C8876 C8868 1.378 . S
C8876 C8871 1.350 . S
C8877 H8864 0.929 . S
C8877 C8869 1.433 . S
C8877 N8879 1.384 . S
N8878 C8874 1.427 . S
N8878 C8875 1.384 . S
N8879 C8871 1.427 . S
N8879 C8877 1.384 . S
H8880 C8886 0.930 . S
H8881 C8890 0.930 . S
H8882 C8895 0.929 . S
H8883 C8893 0.929 . S
H8884 C8888 0.929 . S
H8885 C8894 0.929 . S
C8886 H8880 0.930 . S
C8886 C8887 1.367 . S
C8886 C8894 1.378 . S
C8887 C8886 1.367 . S
C8887 C8895 1.433 . S
C8888 H8884 0.929 . S
C8888 C8890 1.378 . S
C8888 C8892 1.350 . S
C8889 C8892 1.463 . S
C8889 C8894 1.350 . S
C8889 N8897 1.427 . S
C8890 H8881 0.930 . S
C8890 C8888 1.378 . S
C8890 C8891 1.367 . S
C8891 C8890 1.367 . S
C8891 C8893 1.433 . S
C8892 C8888 1.350 . S
C8892 C8889 1.463 . S
C8892 N8896 1.427 . S
C8893 H8883 0.929 . S
C8893 C8891 1.433 . S
C8893 N8896 1.384 . S
C8894 H8885 0.929 . S
C8894 C8886 1.378 . S
C8894 C8889 1.350 . S
C8895 H8882 0.929 . S
C8895 C8887 1.433 . S
C8895 N8897 1.384 . S
N8896 C8892 1.427 . S
N8896 C8893 1.384 . S
N8897 C8889 1.427 . S
N8897 C8895 1.384 . S
H8898 C8904 0.930 . S
H8899 C8908 0.930 . S
H8900 C8913 0.929 . S
H8901 C8911 0.929 . S
H8902 C8906 0.929 . S
H8903 C8912 0.929 . S
C8904 H8898 0.930 . S
C8904 C8905 1.367 . S
C8904 C8912 1.378 . S
C8905 C8904 1.367 . S
C8905 C8913 1.433 . S
C8906 H8902 0.929 . S
C8906 C8908 1.378 . S
C8906 C8910 1.350 . S
C8907 C8910 1.463 . S
C8907 C8912 1.350 . S
C8907 N8915 1.427 . S
C8908 H8899 0.930 . S
C8908 C8906 1.378 . S
C8908 C8909 1.367 . S
C8909 C8908 1.367 . S
C8909 C8911 1.433 . S
C8910 C8906 1.350 . S
C8910 C8907 1.463 . S
C8910 N8914 1.427 . S
C8911 H8901 0.929 . S
C8911 C8909 1.433 . S
C8911 N8914 1.384 . S
C8912 H8903 0.929 . S
C8912 C8904 1.378 . S
C8912 C8907 1.350 . S
C8913 H8900 0.929 . S
C8913 C8905 1.433 . S
C8913 N8915 1.384 . S
N8914 C8910 1.427 . S
N8914 C8911 1.384 . S
N8915 C8907 1.427 . S
N8915 C8913 1.384 . S
H8916 C8922 0.930 . S
H8917 C8926 0.930 . S
H8918 C8931 0.929 . S
H8919 C8929 0.929 . S
H8920 C8924 0.929 . S
H8921 C8930 0.929 . S
C8922 H8916 0.930 . S
C8922 C8923 1.367 . S
C8922 C8930 1.378 . S
C8923 C8922 1.367 . S
C8923 C8931 1.433 . S
C8924 H8920 0.929 . S
C8924 C8926 1.378 . S
C8924 C8928 1.350 . S
C8925 C8928 1.463 . S
C8925 C8930 1.350 . S
C8925 N8933 1.427 . S
C8926 H8917 0.930 . S
C8926 C8924 1.378 . S
C8926 C8927 1.367 . S
C8927 C8926 1.367 . S
C8927 C8929 1.433 . S
C8928 C8924 1.350 . S
C8928 C8925 1.463 . S
C8928 N8932 1.427 . S
C8929 H8919 0.929 . S
C8929 C8927 1.433 . S
C8929 N8932 1.384 . S
C8930 H8921 0.929 . S
C8930 C8922 1.378 . S
C8930 C8925 1.350 . S
C8931 H8918 0.929 . S
C8931 C8923 1.433 . S
C8931 N8933 1.384 . S
N8932 C8928 1.427 . S
N8932 C8929 1.384 . S
N8933 C8925 1.427 . S
N8933 C8931 1.384 . S
H8934 C8940 0.930 . S
H8935 C8944 0.930 . S
H8936 C8949 0.929 . S
H8937 C8947 0.929 . S
H8938 C8942 0.929 . S
H8939 C8948 0.929 . S
C8940 H8934 0.930 . S
C8940 C8941 1.367 . S
C8940 C8948 1.378 . S
C8941 C8940 1.367 . S
C8941 C8949 1.433 . S
C8942 H8938 0.929 . S
C8942 C8944 1.378 . S
C8942 C8946 1.350 . S
C8943 C8946 1.463 . S
C8943 C8948 1.350 . S
C8943 N8951 1.427 . S
C8944 H8935 0.930 . S
C8944 C8942 1.378 . S
C8944 C8945 1.367 . S
C8945 C8944 1.367 . S
C8945 C8947 1.433 . S
C8946 C8942 1.350 . S
C8946 C8943 1.463 . S
C8946 N8950 1.427 . S
C8947 H8937 0.929 . S
C8947 C8945 1.433 . S
C8947 N8950 1.384 . S
C8948 H8939 0.929 . S
C8948 C8940 1.378 . S
C8948 C8943 1.350 . S
C8949 H8936 0.929 . S
C8949 C8941 1.433 . S
C8949 N8951 1.384 . S
N8950 C8946 1.427 . S
N8950 C8947 1.384 . S
N8951 C8943 1.427 . S
N8951 C8949 1.384 . S
H8952 C8958 0.930 . S
H8953 C8962 0.930 . S
H8954 C8967 0.929 . S
H8955 C8965 0.929 . S
H8956 C8960 0.929 . S
H8957 C8966 0.929 . S
C8958 H8952 0.930 . S
C8958 C8959 1.367 . S
C8958 C8966 1.378 . S
C8959 C8958 1.367 . S
C8959 C8967 1.433 . S
C8960 H8956 0.929 . S
C8960 C8962 1.378 . S
C8960 C8964 1.350 . S
C8961 C8964 1.463 . S
C8961 C8966 1.350 . S
C8961 N8969 1.427 . S
C8962 H8953 0.930 . S
C8962 C8960 1.378 . S
C8962 C8963 1.367 . S
C8963 C8962 1.367 . S
C8963 C8965 1.433 . S
C8964 C8960 1.350 . S
C8964 C8961 1.463 . S
C8964 N8968 1.427 . S
C8965 H8955 0.929 . S
C8965 C8963 1.433 . S
C8965 N8968 1.384 . S
C8966 H8957 0.929 . S
C8966 C8958 1.378 . S
C8966 C8961 1.350 . S
C8967 H8954 0.929 . S
C8967 C8959 1.433 . S
C8967 N8969 1.384 . S
N8968 C8964 1.427 . S
N8968 C8965 1.384 . S
N8969 C8961 1.427 . S
N8969 C8967 1.384 . S
H8970 C8976 0.930 . S
H8971 C8980 0.930 . S
H8972 C8985 0.929 . S
H8973 C8983 0.929 . S
H8974 C8978 0.929 . S
H8975 C8984 0.929 . S
C8976 H8970 0.930 . S
C8976 C8977 1.367 . S
C8976 C8984 1.378 . S
C8977 C8976 1.367 . S
C8977 C8985 1.433 . S
C8978 H8974 0.929 . S
C8978 C8980 1.378 . S
C8978 C8982 1.350 . S
C8979 C8982 1.463 . S
C8979 C8984 1.350 . S
C8979 N8987 1.427 . S
C8980 H8971 0.930 . S
C8980 C8978 1.378 . S
C8980 C8981 1.367 . S
C8981 C8980 1.367 . S
C8981 C8983 1.433 . S
C8982 C8978 1.350 . S
C8982 C8979 1.463 . S
C8982 N8986 1.427 . S
C8983 H8973 0.929 . S
C8983 C8981 1.433 . S
C8983 N8986 1.384 . S
C8984 H8975 0.929 . S
C8984 C8976 1.378 . S
C8984 C8979 1.350 . S
C8985 H8972 0.929 . S
C8985 C8977 1.433 . S
C8985 N8987 1.384 . S
N8986 C8982 1.427 . S
N8986 C8983 1.384 . S
N8987 C8979 1.427 . S
N8987 C8985 1.384 . S
H8988 C8994 0.930 . S
H8989 C8998 0.930 . S
H8990 C9003 0.929 . S
H8991 C9001 0.929 . S
H8992 C8996 0.929 . S
H8993 C9002 0.929 . S
C8994 H8988 0.930 . S
C8994 C8995 1.367 . S
C8994 C9002 1.378 . S
C8995 C8994 1.367 . S
C8995 C9003 1.433 . S
C8996 H8992 0.929 . S
C8996 C8998 1.378 . S
C8996 C9000 1.350 . S
C8997 C9000 1.463 . S
C8997 C9002 1.350 . S
C8997 N9005 1.427 . S
C8998 H8989 0.930 . S
C8998 C8996 1.378 . S
C8998 C8999 1.367 . S
C8999 C8998 1.367 . S
C8999 C9001 1.433 . S
C9000 C8996 1.350 . S
C9000 C8997 1.463 . S
C9000 N9004 1.427 . S
C9001 H8991 0.929 . S
C9001 C8999 1.433 . S
C9001 N9004 1.384 . S
C9002 H8993 0.929 . S
C9002 C8994 1.378 . S
C9002 C8997 1.350 . S
C9003 H8990 0.929 . S
C9003 C8995 1.433 . S
C9003 N9005 1.384 . S
N9004 C9000 1.427 . S
N9004 C9001 1.384 . S
N9005 C8997 1.427 . S
N9005 C9003 1.384 . S
H9006 C9012 0.930 . S
H9007 C9016 0.930 . S
H9008 C9021 0.929 . S
H9009 C9019 0.929 . S
H9010 C9014 0.929 . S
H9011 C9020 0.929 . S
C9012 H9006 0.930 . S
C9012 C9013 1.367 . S
C9012 C9020 1.378 . S
C9013 C9012 1.367 . S
C9013 C9021 1.433 . S
C9014 H9010 0.929 . S
C9014 C9016 1.378 . S
C9014 C9018 1.350 . S
C9015 C9018 1.463 . S
C9015 C9020 1.350 . S
C9015 N9023 1.427 . S
C9016 H9007 0.930 . S
C9016 C9014 1.378 . S
C9016 C9017 1.367 . S
C9017 C9016 1.367 . S
C9017 C9019 1.433 . S
C9018 C9014 1.350 . S
C9018 C9015 1.463 . S
C9018 N9022 1.427 . S
C9019 H9009 0.929 . S
C9019 C9017 1.433 . S
C9019 N9022 1.384 . S
C9020 H9011 0.929 . S
C9020 C9012 1.378 . S
C9020 C9015 1.350 . S
C9021 H9008 0.929 . S
C9021 C9013 1.433 . S
C9021 N9023 1.384 . S
N9022 C9018 1.427 . S
N9022 C9019 1.384 . S
N9023 C9015 1.427 . S
N9023 C9021 1.384 . S
H9024 C9030 0.930 . S
H9025 C9034 0.930 . S
H9026 C9039 0.929 . S
H9027 C9037 0.929 . S
H9028 C9032 0.929 . S
H9029 C9038 0.929 . S
C9030 H9024 0.930 . S
C9030 C9031 1.367 . S
C9030 C9038 1.378 . S
C9031 C9030 1.367 . S
C9031 C9039 1.433 . S
C9032 H9028 0.929 . S
C9032 C9034 1.378 . S
C9032 C9036 1.350 . S
C9033 C9036 1.463 . S
C9033 C9038 1.350 . S
C9033 N9041 1.427 . S
C9034 H9025 0.930 . S
C9034 C9032 1.378 . S
C9034 C9035 1.367 . S
C9035 C9034 1.367 . S
C9035 C9037 1.433 . S
C9036 C9032 1.350 . S
C9036 C9033 1.463 . S
C9036 N9040 1.427 . S
C9037 H9027 0.929 . S
C9037 C9035 1.433 . S
C9037 N9040 1.384 . S
C9038 H9029 0.929 . S
C9038 C9030 1.378 . S
C9038 C9033 1.350 . S
C9039 H9026 0.929 . S
C9039 C9031 1.433 . S
C9039 N9041 1.384 . S
N9040 C9036 1.427 . S
N9040 C9037 1.384 . S
N9041 C9033 1.427 . S
N9041 C9039 1.384 . S
H9042 C9048 0.930 . S
H9043 C9052 0.930 . S
H9044 C9057 0.929 . S
H9045 C9055 0.929 . S
H9046 C9050 0.929 . S
H9047 C9056 0.929 . S
C9048 H9042 0.930 . S
C9048 C9049 1.367 . S
C9048 C9056 1.378 . S
C9049 C9048 1.367 . S
C9049 C9057 1.433 . S
C9050 H9046 0.929 . S
C9050 C9052 1.378 . S
C9050 C9054 1.350 . S
C9051 C9054 1.463 . S
C9051 C9056 1.350 . S
C9051 N9059 1.427 . S
C9052 H9043 0.930 . S
C9052 C9050 1.378 . S
C9052 C9053 1.367 . S
C9053 C9052 1.367 . S
C9053 C9055 1.433 . S
C9054 C9050 1.350 . S
C9054 C9051 1.463 . S
C9054 N9058 1.427 . S
C9055 H9045 0.929 . S
C9055 C9053 1.433 . S
C9055 N9058 1.384 . S
C9056 H9047 0.929 . S
C9056 C9048 1.378 . S
C9056 C9051 1.350 . S
C9057 H9044 0.929 . S
C9057 C9049 1.433 . S
C9057 N9059 1.384 . S
N9058 C9054 1.427 . S
N9058 C9055 1.384 . S
N9059 C9051 1.427 . S
N9059 C9057 1.384 . S
H9060 C9066 0.930 . S
H9061 C9070 0.930 . S
H9062 C9075 0.929 . S
H9063 C9073 0.929 . S
H9064 C9068 0.929 . S
H9065 C9074 0.929 . S
C9066 H9060 0.930 . S
C9066 C9067 1.367 . S
C9066 C9074 1.378 . S
C9067 C9066 1.367 . S
C9067 C9075 1.433 . S
C9068 H9064 0.929 . S
C9068 C9070 1.378 . S
C9068 C9072 1.350 . S
C9069 C9072 1.463 . S
C9069 C9074 1.350 . S
C9069 N9077 1.427 . S
C9070 H9061 0.930 . S
C9070 C9068 1.378 . S
C9070 C9071 1.367 . S
C9071 C9070 1.367 . S
C9071 C9073 1.433 . S
C9072 C9068 1.350 . S
C9072 C9069 1.463 . S
C9072 N9076 1.427 . S
C9073 H9063 0.929 . S
C9073 C9071 1.433 . S
C9073 N9076 1.384 . S
C9074 H9065 0.929 . S
C9074 C9066 1.378 . S
C9074 C9069 1.350 . S
C9075 H9062 0.929 . S
C9075 C9067 1.433 . S
C9075 N9077 1.384 . S
N9076 C9072 1.427 . S
N9076 C9073 1.384 . S
N9077 C9069 1.427 . S
N9077 C9075 1.384 . S
H9078 C9084 0.930 . S
H9079 C9088 0.930 . S
H9080 C9093 0.929 . S
H9081 C9091 0.929 . S
H9082 C9086 0.929 . S
H9083 C9092 0.929 . S
C9084 H9078 0.930 . S
C9084 C9085 1.367 . S
C9084 C9092 1.378 . S
C9085 C9084 1.367 . S
C9085 C9093 1.433 . S
C9086 H9082 0.929 . S
C9086 C9088 1.378 . S
C9086 C9090 1.350 . S
C9087 C9090 1.463 . S
C9087 C9092 1.350 . S
C9087 N9095 1.427 . S
C9088 H9079 0.930 . S
C9088 C9086 1.378 . S
C9088 C9089 1.367 . S
C9089 C9088 1.367 . S
C9089 C9091 1.433 . S
C9090 C9086 1.350 . S
C9090 C9087 1.463 . S
C9090 N9094 1.427 . S
C9091 H9081 0.929 . S
C9091 C9089 1.433 . S
C9091 N9094 1.384 . S
C9092 H9083 0.929 . S
C9092 C9084 1.378 . S
C9092 C9087 1.350 . S
C9093 H9080 0.929 . S
C9093 C9085 1.433 . S
C9093 N9095 1.384 . S
N9094 C9090 1.427 . S
N9094 C9091 1.384 . S
N9095 C9087 1.427 . S
N9095 C9093 1.384 . S
H9096 C9102 0.930 . S
H9097 C9106 0.930 . S
H9098 C9111 0.929 . S
H9099 C9109 0.929 . S
H9100 C9104 0.929 . S
H9101 C9110 0.929 . S
C9102 H9096 0.930 . S
C9102 C9103 1.367 . S
C9102 C9110 1.378 . S
C9103 C9102 1.367 . S
C9103 C9111 1.433 . S
C9104 H9100 0.929 . S
C9104 C9106 1.378 . S
C9104 C9108 1.350 . S
C9105 C9108 1.463 . S
C9105 C9110 1.350 . S
C9105 N9113 1.427 . S
C9106 H9097 0.930 . S
C9106 C9104 1.378 . S
C9106 C9107 1.367 . S
C9107 C9106 1.367 . S
C9107 C9109 1.433 . S
C9108 C9104 1.350 . S
C9108 C9105 1.463 . S
C9108 N9112 1.427 . S
C9109 H9099 0.929 . S
C9109 C9107 1.433 . S
C9109 N9112 1.384 . S
C9110 H9101 0.929 . S
C9110 C9102 1.378 . S
C9110 C9105 1.350 . S
C9111 H9098 0.929 . S
C9111 C9103 1.433 . S
C9111 N9113 1.384 . S
N9112 C9108 1.427 . S
N9112 C9109 1.384 . S
N9113 C9105 1.427 . S
N9113 C9111 1.384 . S
H9114 C9120 0.930 . S
H9115 C9124 0.930 . S
H9116 C9129 0.929 . S
H9117 C9127 0.929 . S
H9118 C9122 0.929 . S
H9119 C9128 0.929 . S
C9120 H9114 0.930 . S
C9120 C9121 1.367 . S
C9120 C9128 1.378 . S
C9121 C9120 1.367 . S
C9121 C9129 1.433 . S
C9122 H9118 0.929 . S
C9122 C9124 1.378 . S
C9122 C9126 1.350 . S
C9123 C9126 1.463 . S
C9123 C9128 1.350 . S
C9123 N9131 1.427 . S
C9124 H9115 0.930 . S
C9124 C9122 1.378 . S
C9124 C9125 1.367 . S
C9125 C9124 1.367 . S
C9125 C9127 1.433 . S
C9126 C9122 1.350 . S
C9126 C9123 1.463 . S
C9126 N9130 1.427 . S
C9127 H9117 0.929 . S
C9127 C9125 1.433 . S
C9127 N9130 1.384 . S
C9128 H9119 0.929 . S
C9128 C9120 1.378 . S
C9128 C9123 1.350 . S
C9129 H9116 0.929 . S
C9129 C9121 1.433 . S
C9129 N9131 1.384 . S
N9130 C9126 1.427 . S
N9130 C9127 1.384 . S
N9131 C9123 1.427 . S
N9131 C9129 1.384 . S
H9132 C9138 0.930 . S
H9133 C9142 0.930 . S
H9134 C9147 0.929 . S
H9135 C9145 0.929 . S
H9136 C9140 0.929 . S
H9137 C9146 0.929 . S
C9138 H9132 0.930 . S
C9138 C9139 1.367 . S
C9138 C9146 1.378 . S
C9139 C9138 1.367 . S
C9139 C9147 1.433 . S
C9140 H9136 0.929 . S
C9140 C9142 1.378 . S
C9140 C9144 1.350 . S
C9141 C9144 1.463 . S
C9141 C9146 1.350 . S
C9141 N9149 1.427 . S
C9142 H9133 0.930 . S
C9142 C9140 1.378 . S
C9142 C9143 1.367 . S
C9143 C9142 1.367 . S
C9143 C9145 1.433 . S
C9144 C9140 1.350 . S
C9144 C9141 1.463 . S
C9144 N9148 1.427 . S
C9145 H9135 0.929 . S
C9145 C9143 1.433 . S
C9145 N9148 1.384 . S
C9146 H9137 0.929 . S
C9146 C9138 1.378 . S
C9146 C9141 1.350 . S
C9147 H9134 0.929 . S
C9147 C9139 1.433 . S
C9147 N9149 1.384 . S
N9148 C9144 1.427 . S
N9148 C9145 1.384 . S
N9149 C9141 1.427 . S
N9149 C9147 1.384 . S
H9150 C9156 0.930 . S
H9151 C9160 0.930 . S
H9152 C9165 0.929 . S
H9153 C9163 0.929 . S
H9154 C9158 0.929 . S
H9155 C9164 0.929 . S
C9156 H9150 0.930 . S
C9156 C9157 1.367 . S
C9156 C9164 1.378 . S
C9157 C9156 1.367 . S
C9157 C9165 1.433 . S
C9158 H9154 0.929 . S
C9158 C9160 1.378 . S
C9158 C9162 1.350 . S
C9159 C9162 1.463 . S
C9159 C9164 1.350 . S
C9159 N9167 1.427 . S
C9160 H9151 0.930 . S
C9160 C9158 1.378 . S
C9160 C9161 1.367 . S
C9161 C9160 1.367 . S
C9161 C9163 1.433 . S
C9162 C9158 1.350 . S
C9162 C9159 1.463 . S
C9162 N9166 1.427 . S
C9163 H9153 0.929 . S
C9163 C9161 1.433 . S
C9163 N9166 1.384 . S
C9164 H9155 0.929 . S
C9164 C9156 1.378 . S
C9164 C9159 1.350 . S
C9165 H9152 0.929 . S
C9165 C9157 1.433 . S
C9165 N9167 1.384 . S
N9166 C9162 1.427 . S
N9166 C9163 1.384 . S
N9167 C9159 1.427 . S
N9167 C9165 1.384 . S
H9168 C9174 0.930 . S
H9169 C9178 0.930 . S
H9170 C9183 0.929 . S
H9171 C9181 0.929 . S
H9172 C9176 0.929 . S
H9173 C9182 0.929 . S
C9174 H9168 0.930 . S
C9174 C9175 1.367 . S
C9174 C9182 1.378 . S
C9175 C9174 1.367 . S
C9175 C9183 1.433 . S
C9176 H9172 0.929 . S
C9176 C9178 1.378 . S
C9176 C9180 1.350 . S
C9177 C9180 1.463 . S
C9177 C9182 1.350 . S
C9177 N9185 1.427 . S
C9178 H9169 0.930 . S
C9178 C9176 1.378 . S
C9178 C9179 1.367 . S
C9179 C9178 1.367 . S
C9179 C9181 1.433 . S
C9180 C9176 1.350 . S
C9180 C9177 1.463 . S
C9180 N9184 1.427 . S
C9181 H9171 0.929 . S
C9181 C9179 1.433 . S
C9181 N9184 1.384 . S
C9182 H9173 0.929 . S
C9182 C9174 1.378 . S
C9182 C9177 1.350 . S
C9183 H9170 0.929 . S
C9183 C9175 1.433 . S
C9183 N9185 1.384 . S
N9184 C9180 1.427 . S
N9184 C9181 1.384 . S
N9185 C9177 1.427 . S
N9185 C9183 1.384 . S
H9186 C9192 0.930 . S
H9187 C9196 0.930 . S
H9188 C9201 0.929 . S
H9189 C9199 0.929 . S
H9190 C9194 0.929 . S
H9191 C9200 0.929 . S
C9192 H9186 0.930 . S
C9192 C9193 1.367 . S
C9192 C9200 1.378 . S
C9193 C9192 1.367 . S
C9193 C9201 1.433 . S
C9194 H9190 0.929 . S
C9194 C9196 1.378 . S
C9194 C9198 1.350 . S
C9195 C9198 1.463 . S
C9195 C9200 1.350 . S
C9195 N9203 1.427 . S
C9196 H9187 0.930 . S
C9196 C9194 1.378 . S
C9196 C9197 1.367 . S
C9197 C9196 1.367 . S
C9197 C9199 1.433 . S
C9198 C9194 1.350 . S
C9198 C9195 1.463 . S
C9198 N9202 1.427 . S
C9199 H9189 0.929 . S
C9199 C9197 1.433 . S
C9199 N9202 1.384 . S
C9200 H9191 0.929 . S
C9200 C9192 1.378 . S
C9200 C9195 1.350 . S
C9201 H9188 0.929 . S
C9201 C9193 1.433 . S
C9201 N9203 1.384 . S
N9202 C9198 1.427 . S
N9202 C9199 1.384 . S
N9203 C9195 1.427 . S
N9203 C9201 1.384 . S
H9204 C9210 0.930 . S
H9205 C9214 0.930 . S
H9206 C9219 0.929 . S
H9207 C9217 0.929 . S
H9208 C9212 0.929 . S
H9209 C9218 0.929 . S
C9210 H9204 0.930 . S
C9210 C9211 1.367 . S
C9210 C9218 1.378 . S
C9211 C9210 1.367 . S
C9211 C9219 1.433 . S
C9212 H9208 0.929 . S
C9212 C9214 1.378 . S
C9212 C9216 1.350 . S
C9213 C9216 1.463 . S
C9213 C9218 1.350 . S
C9213 N9221 1.427 . S
C9214 H9205 0.930 . S
C9214 C9212 1.378 . S
C9214 C9215 1.367 . S
C9215 C9214 1.367 . S
C9215 C9217 1.433 . S
C9216 C9212 1.350 . S
C9216 C9213 1.463 . S
C9216 N9220 1.427 . S
C9217 H9207 0.929 . S
C9217 C9215 1.433 . S
C9217 N9220 1.384 . S
C9218 H9209 0.929 . S
C9218 C9210 1.378 . S
C9218 C9213 1.350 . S
C9219 H9206 0.929 . S
C9219 C9211 1.433 . S
C9219 N9221 1.384 . S
N9220 C9216 1.427 . S
N9220 C9217 1.384 . S
N9221 C9213 1.427 . S
N9221 C9219 1.384 . S
H9222 C9228 0.930 . S
H9223 C9232 0.930 . S
H9224 C9237 0.929 . S
H9225 C9235 0.929 . S
H9226 C9230 0.929 . S
H9227 C9236 0.929 . S
C9228 H9222 0.930 . S
C9228 C9229 1.367 . S
C9228 C9236 1.378 . S
C9229 C9228 1.367 . S
C9229 C9237 1.433 . S
C9230 H9226 0.929 . S
C9230 C9232 1.378 . S
C9230 C9234 1.350 . S
C9231 C9234 1.463 . S
C9231 C9236 1.350 . S
C9231 N9239 1.427 . S
C9232 H9223 0.930 . S
C9232 C9230 1.378 . S
C9232 C9233 1.367 . S
C9233 C9232 1.367 . S
C9233 C9235 1.433 . S
C9234 C9230 1.350 . S
C9234 C9231 1.463 . S
C9234 N9238 1.427 . S
C9235 H9225 0.929 . S
C9235 C9233 1.433 . S
C9235 N9238 1.384 . S
C9236 H9227 0.929 . S
C9236 C9228 1.378 . S
C9236 C9231 1.350 . S
C9237 H9224 0.929 . S
C9237 C9229 1.433 . S
C9237 N9239 1.384 . S
N9238 C9234 1.427 . S
N9238 C9235 1.384 . S
N9239 C9231 1.427 . S
N9239 C9237 1.384 . S
H9240 C9246 0.930 . S
H9241 C9250 0.930 . S
H9242 C9255 0.929 . S
H9243 C9253 0.929 . S
H9244 C9248 0.929 . S
H9245 C9254 0.929 . S
C9246 H9240 0.930 . S
C9246 C9247 1.367 . S
C9246 C9254 1.378 . S
C9247 C9246 1.367 . S
C9247 C9255 1.433 . S
C9248 H9244 0.929 . S
C9248 C9250 1.378 . S
C9248 C9252 1.350 . S
C9249 C9252 1.463 . S
C9249 C9254 1.350 . S
C9249 N9257 1.427 . S
C9250 H9241 0.930 . S
C9250 C9248 1.378 . S
C9250 C9251 1.367 . S
C9251 C9250 1.367 . S
C9251 C9253 1.433 . S
C9252 C9248 1.350 . S
C9252 C9249 1.463 . S
C9252 N9256 1.427 . S
C9253 H9243 0.929 . S
C9253 C9251 1.433 . S
C9253 N9256 1.384 . S
C9254 H9245 0.929 . S
C9254 C9246 1.378 . S
C9254 C9249 1.350 . S
C9255 H9242 0.929 . S
C9255 C9247 1.433 . S
C9255 N9257 1.384 . S
N9256 C9252 1.427 . S
N9256 C9253 1.384 . S
N9257 C9249 1.427 . S
N9257 C9255 1.384 . S
H9258 C9264 0.930 . S
H9259 C9268 0.930 . S
H9260 C9273 0.929 . S
H9261 C9271 0.929 . S
H9262 C9266 0.929 . S
H9263 C9272 0.929 . S
C9264 H9258 0.930 . S
C9264 C9265 1.367 . S
C9264 C9272 1.378 . S
C9265 C9264 1.367 . S
C9265 C9273 1.433 . S
C9266 H9262 0.929 . S
C9266 C9268 1.378 . S
C9266 C9270 1.350 . S
C9267 C9270 1.463 . S
C9267 C9272 1.350 . S
C9267 N9275 1.427 . S
C9268 H9259 0.930 . S
C9268 C9266 1.378 . S
C9268 C9269 1.367 . S
C9269 C9268 1.367 . S
C9269 C9271 1.433 . S
C9270 C9266 1.350 . S
C9270 C9267 1.463 . S
C9270 N9274 1.427 . S
C9271 H9261 0.929 . S
C9271 C9269 1.433 . S
C9271 N9274 1.384 . S
C9272 H9263 0.929 . S
C9272 C9264 1.378 . S
C9272 C9267 1.350 . S
C9273 H9260 0.929 . S
C9273 C9265 1.433 . S
C9273 N9275 1.384 . S
N9274 C9270 1.427 . S
N9274 C9271 1.384 . S
N9275 C9267 1.427 . S
N9275 C9273 1.384 . S
H9276 C9282 0.930 . S
H9277 C9286 0.930 . S
H9278 C9291 0.929 . S
H9279 C9289 0.929 . S
H9280 C9284 0.929 . S
H9281 C9290 0.929 . S
C9282 H9276 0.930 . S
C9282 C9283 1.367 . S
C9282 C9290 1.378 . S
C9283 C9282 1.367 . S
C9283 C9291 1.433 . S
C9284 H9280 0.929 . S
C9284 C9286 1.378 . S
C9284 C9288 1.350 . S
C9285 C9288 1.463 . S
C9285 C9290 1.350 . S
C9285 N9293 1.427 . S
C9286 H9277 0.930 . S
C9286 C9284 1.378 . S
C9286 C9287 1.367 . S
C9287 C9286 1.367 . S
C9287 C9289 1.433 . S
C9288 C9284 1.350 . S
C9288 C9285 1.463 . S
C9288 N9292 1.427 . S
C9289 H9279 0.929 . S
C9289 C9287 1.433 . S
C9289 N9292 1.384 . S
C9290 H9281 0.929 . S
C9290 C9282 1.378 . S
C9290 C9285 1.350 . S
C9291 H9278 0.929 . S
C9291 C9283 1.433 . S
C9291 N9293 1.384 . S
N9292 C9288 1.427 . S
N9292 C9289 1.384 . S
N9293 C9285 1.427 . S
N9293 C9291 1.384 . S
H9294 C9300 0.930 . S
H9295 C9304 0.930 . S
H9296 C9309 0.929 . S
H9297 C9307 0.929 . S
H9298 C9302 0.929 . S
H9299 C9308 0.929 . S
C9300 H9294 0.930 . S
C9300 C9301 1.367 . S
C9300 C9308 1.378 . S
C9301 C9300 1.367 . S
C9301 C9309 1.433 . S
C9302 H9298 0.929 . S
C9302 C9304 1.378 . S
C9302 C9306 1.350 . S
C9303 C9306 1.463 . S
C9303 C9308 1.350 . S
C9303 N9311 1.427 . S
C9304 H9295 0.930 . S
C9304 C9302 1.378 . S
C9304 C9305 1.367 . S
C9305 C9304 1.367 . S
C9305 C9307 1.433 . S
C9306 C9302 1.350 . S
C9306 C9303 1.463 . S
C9306 N9310 1.427 . S
C9307 H9297 0.929 . S
C9307 C9305 1.433 . S
C9307 N9310 1.384 . S
C9308 H9299 0.929 . S
C9308 C9300 1.378 . S
C9308 C9303 1.350 . S
C9309 H9296 0.929 . S
C9309 C9301 1.433 . S
C9309 N9311 1.384 . S
N9310 C9306 1.427 . S
N9310 C9307 1.384 . S
N9311 C9303 1.427 . S
N9311 C9309 1.384 . S
H9312 C9318 0.930 . S
H9313 C9322 0.930 . S
H9314 C9327 0.929 . S
H9315 C9325 0.929 . S
H9316 C9320 0.929 . S
H9317 C9326 0.929 . S
C9318 H9312 0.930 . S
C9318 C9319 1.367 . S
C9318 C9326 1.378 . S
C9319 C9318 1.367 . S
C9319 C9327 1.433 . S
C9320 H9316 0.929 . S
C9320 C9322 1.378 . S
C9320 C9324 1.350 . S
C9321 C9324 1.463 . S
C9321 C9326 1.350 . S
C9321 N9329 1.427 . S
C9322 H9313 0.930 . S
C9322 C9320 1.378 . S
C9322 C9323 1.367 . S
C9323 C9322 1.367 . S
C9323 C9325 1.433 . S
C9324 C9320 1.350 . S
C9324 C9321 1.463 . S
C9324 N9328 1.427 . S
C9325 H9315 0.929 . S
C9325 C9323 1.433 . S
C9325 N9328 1.384 . S
C9326 H9317 0.929 . S
C9326 C9318 1.378 . S
C9326 C9321 1.350 . S
C9327 H9314 0.929 . S
C9327 C9319 1.433 . S
C9327 N9329 1.384 . S
N9328 C9324 1.427 . S
N9328 C9325 1.384 . S
N9329 C9321 1.427 . S
N9329 C9327 1.384 . S
H9330 C9336 0.930 . S
H9331 C9340 0.930 . S
H9332 C9345 0.929 . S
H9333 C9343 0.929 . S
H9334 C9338 0.929 . S
H9335 C9344 0.929 . S
C9336 H9330 0.930 . S
C9336 C9337 1.367 . S
C9336 C9344 1.378 . S
C9337 C9336 1.367 . S
C9337 C9345 1.433 . S
C9338 H9334 0.929 . S
C9338 C9340 1.378 . S
C9338 C9342 1.350 . S
C9339 C9342 1.463 . S
C9339 C9344 1.350 . S
C9339 N9347 1.427 . S
C9340 H9331 0.930 . S
C9340 C9338 1.378 . S
C9340 C9341 1.367 . S
C9341 C9340 1.367 . S
C9341 C9343 1.433 . S
C9342 C9338 1.350 . S
C9342 C9339 1.463 . S
C9342 N9346 1.427 . S
C9343 H9333 0.929 . S
C9343 C9341 1.433 . S
C9343 N9346 1.384 . S
C9344 H9335 0.929 . S
C9344 C9336 1.378 . S
C9344 C9339 1.350 . S
C9345 H9332 0.929 . S
C9345 C9337 1.433 . S
C9345 N9347 1.384 . S
N9346 C9342 1.427 . S
N9346 C9343 1.384 . S
N9347 C9339 1.427 . S
N9347 C9345 1.384 . S
H9348 C9354 0.930 . S
H9349 C9358 0.930 . S
H9350 C9363 0.929 . S
H9351 C9361 0.929 . S
H9352 C9356 0.929 . S
H9353 C9362 0.929 . S
C9354 H9348 0.930 . S
C9354 C9355 1.367 . S
C9354 C9362 1.378 . S
C9355 C9354 1.367 . S
C9355 C9363 1.433 . S
C9356 H9352 0.929 . S
C9356 C9358 1.378 . S
C9356 C9360 1.350 . S
C9357 C9360 1.463 . S
C9357 C9362 1.350 . S
C9357 N9365 1.427 . S
C9358 H9349 0.930 . S
C9358 C9356 1.378 . S
C9358 C9359 1.367 . S
C9359 C9358 1.367 . S
C9359 C9361 1.433 . S
C9360 C9356 1.350 . S
C9360 C9357 1.463 . S
C9360 N9364 1.427 . S
C9361 H9351 0.929 . S
C9361 C9359 1.433 . S
C9361 N9364 1.384 . S
C9362 H9353 0.929 . S
C9362 C9354 1.378 . S
C9362 C9357 1.350 . S
C9363 H9350 0.929 . S
C9363 C9355 1.433 . S
C9363 N9365 1.384 . S
N9364 C9360 1.427 . S
N9364 C9361 1.384 . S
N9365 C9357 1.427 . S
N9365 C9363 1.384 . S
H9366 C9372 0.930 . S
H9367 C9376 0.930 . S
H9368 C9381 0.929 . S
H9369 C9379 0.929 . S
H9370 C9374 0.929 . S
H9371 C9380 0.929 . S
C9372 H9366 0.930 . S
C9372 C9373 1.367 . S
C9372 C9380 1.378 . S
C9373 C9372 1.367 . S
C9373 C9381 1.433 . S
C9374 H9370 0.929 . S
C9374 C9376 1.378 . S
C9374 C9378 1.350 . S
C9375 C9378 1.463 . S
C9375 C9380 1.350 . S
C9375 N9383 1.427 . S
C9376 H9367 0.930 . S
C9376 C9374 1.378 . S
C9376 C9377 1.367 . S
C9377 C9376 1.367 . S
C9377 C9379 1.433 . S
C9378 C9374 1.350 . S
C9378 C9375 1.463 . S
C9378 N9382 1.427 . S
C9379 H9369 0.929 . S
C9379 C9377 1.433 . S
C9379 N9382 1.384 . S
C9380 H9371 0.929 . S
C9380 C9372 1.378 . S
C9380 C9375 1.350 . S
C9381 H9368 0.929 . S
C9381 C9373 1.433 . S
C9381 N9383 1.384 . S
N9382 C9378 1.427 . S
N9382 C9379 1.384 . S
N9383 C9375 1.427 . S
N9383 C9381 1.384 . S
H9384 C9390 0.930 . S
H9385 C9394 0.930 . S
H9386 C9399 0.929 . S
H9387 C9397 0.929 . S
H9388 C9392 0.929 . S
H9389 C9398 0.929 . S
C9390 H9384 0.930 . S
C9390 C9391 1.367 . S
C9390 C9398 1.378 . S
C9391 C9390 1.367 . S
C9391 C9399 1.433 . S
C9392 H9388 0.929 . S
C9392 C9394 1.378 . S
C9392 C9396 1.350 . S
C9393 C9396 1.463 . S
C9393 C9398 1.350 . S
C9393 N9401 1.427 . S
C9394 H9385 0.930 . S
C9394 C9392 1.378 . S
C9394 C9395 1.367 . S
C9395 C9394 1.367 . S
C9395 C9397 1.433 . S
C9396 C9392 1.350 . S
C9396 C9393 1.463 . S
C9396 N9400 1.427 . S
C9397 H9387 0.929 . S
C9397 C9395 1.433 . S
C9397 N9400 1.384 . S
C9398 H9389 0.929 . S
C9398 C9390 1.378 . S
C9398 C9393 1.350 . S
C9399 H9386 0.929 . S
C9399 C9391 1.433 . S
C9399 N9401 1.384 . S
N9400 C9396 1.427 . S
N9400 C9397 1.384 . S
N9401 C9393 1.427 . S
N9401 C9399 1.384 . S
H9402 C9408 0.930 . S
H9403 C9412 0.930 . S
H9404 C9417 0.929 . S
H9405 C9415 0.929 . S
H9406 C9410 0.929 . S
H9407 C9416 0.929 . S
C9408 H9402 0.930 . S
C9408 C9409 1.367 . S
C9408 C9416 1.378 . S
C9409 C9408 1.367 . S
C9409 C9417 1.433 . S
C9410 H9406 0.929 . S
C9410 C9412 1.378 . S
C9410 C9414 1.350 . S
C9411 C9414 1.463 . S
C9411 C9416 1.350 . S
C9411 N9419 1.427 . S
C9412 H9403 0.930 . S
C9412 C9410 1.378 . S
C9412 C9413 1.367 . S
C9413 C9412 1.367 . S
C9413 C9415 1.433 . S
C9414 C9410 1.350 . S
C9414 C9411 1.463 . S
C9414 N9418 1.427 . S
C9415 H9405 0.929 . S
C9415 C9413 1.433 . S
C9415 N9418 1.384 . S
C9416 H9407 0.929 . S
C9416 C9408 1.378 . S
C9416 C9411 1.350 . S
C9417 H9404 0.929 . S
C9417 C9409 1.433 . S
C9417 N9419 1.384 . S
N9418 C9414 1.427 . S
N9418 C9415 1.384 . S
N9419 C9411 1.427 . S
N9419 C9417 1.384 . S
H9420 C9426 0.930 . S
H9421 C9430 0.930 . S
H9422 C9435 0.929 . S
H9423 C9433 0.929 . S
H9424 C9428 0.929 . S
H9425 C9434 0.929 . S
C9426 H9420 0.930 . S
C9426 C9427 1.367 . S
C9426 C9434 1.378 . S
C9427 C9426 1.367 . S
C9427 C9435 1.433 . S
C9428 H9424 0.929 . S
C9428 C9430 1.378 . S
C9428 C9432 1.350 . S
C9429 C9432 1.463 . S
C9429 C9434 1.350 . S
C9429 N9437 1.427 . S
C9430 H9421 0.930 . S
C9430 C9428 1.378 . S
C9430 C9431 1.367 . S
C9431 C9430 1.367 . S
C9431 C9433 1.433 . S
C9432 C9428 1.350 . S
C9432 C9429 1.463 . S
C9432 N9436 1.427 . S
C9433 H9423 0.929 . S
C9433 C9431 1.433 . S
C9433 N9436 1.384 . S
C9434 H9425 0.929 . S
C9434 C9426 1.378 . S
C9434 C9429 1.350 . S
C9435 H9422 0.929 . S
C9435 C9427 1.433 . S
C9435 N9437 1.384 . S
N9436 C9432 1.427 . S
N9436 C9433 1.384 . S
N9437 C9429 1.427 . S
N9437 C9435 1.384 . S
H9438 C9444 0.930 . S
H9439 C9448 0.930 . S
H9440 C9453 0.929 . S
H9441 C9451 0.929 . S
H9442 C9446 0.929 . S
H9443 C9452 0.929 . S
C9444 H9438 0.930 . S
C9444 C9445 1.367 . S
C9444 C9452 1.378 . S
C9445 C9444 1.367 . S
C9445 C9453 1.433 . S
C9446 H9442 0.929 . S
C9446 C9448 1.378 . S
C9446 C9450 1.350 . S
C9447 C9450 1.463 . S
C9447 C9452 1.350 . S
C9447 N9455 1.427 . S
C9448 H9439 0.930 . S
C9448 C9446 1.378 . S
C9448 C9449 1.367 . S
C9449 C9448 1.367 . S
C9449 C9451 1.433 . S
C9450 C9446 1.350 . S
C9450 C9447 1.463 . S
C9450 N9454 1.427 . S
C9451 H9441 0.929 . S
C9451 C9449 1.433 . S
C9451 N9454 1.384 . S
C9452 H9443 0.929 . S
C9452 C9444 1.378 . S
C9452 C9447 1.350 . S
C9453 H9440 0.929 . S
C9453 C9445 1.433 . S
C9453 N9455 1.384 . S
N9454 C9450 1.427 . S
N9454 C9451 1.384 . S
N9455 C9447 1.427 . S
N9455 C9453 1.384 . S
H9456 C9462 0.930 . S
H9457 C9466 0.930 . S
H9458 C9471 0.929 . S
H9459 C9469 0.929 . S
H9460 C9464 0.929 . S
H9461 C9470 0.929 . S
C9462 H9456 0.930 . S
C9462 C9463 1.367 . S
C9462 C9470 1.378 . S
C9463 C9462 1.367 . S
C9463 C9471 1.433 . S
C9464 H9460 0.929 . S
C9464 C9466 1.378 . S
C9464 C9468 1.350 . S
C9465 C9468 1.463 . S
C9465 C9470 1.350 . S
C9465 N9473 1.427 . S
C9466 H9457 0.930 . S
C9466 C9464 1.378 . S
C9466 C9467 1.367 . S
C9467 C9466 1.367 . S
C9467 C9469 1.433 . S
C9468 C9464 1.350 . S
C9468 C9465 1.463 . S
C9468 N9472 1.427 . S
C9469 H9459 0.929 . S
C9469 C9467 1.433 . S
C9469 N9472 1.384 . S
C9470 H9461 0.929 . S
C9470 C9462 1.378 . S
C9470 C9465 1.350 . S
C9471 H9458 0.929 . S
C9471 C9463 1.433 . S
C9471 N9473 1.384 . S
N9472 C9468 1.427 . S
N9472 C9469 1.384 . S
N9473 C9465 1.427 . S
N9473 C9471 1.384 . S
H9474 C9480 0.930 . S
H9475 C9484 0.930 . S
H9476 C9489 0.929 . S
H9477 C9487 0.929 . S
H9478 C9482 0.929 . S
H9479 C9488 0.929 . S
C9480 H9474 0.930 . S
C9480 C9481 1.367 . S
C9480 C9488 1.378 . S
C9481 C9480 1.367 . S
C9481 C9489 1.433 . S
C9482 H9478 0.929 . S
C9482 C9484 1.378 . S
C9482 C9486 1.350 . S
C9483 C9486 1.463 . S
C9483 C9488 1.350 . S
C9483 N9491 1.427 . S
C9484 H9475 0.930 . S
C9484 C9482 1.378 . S
C9484 C9485 1.367 . S
C9485 C9484 1.367 . S
C9485 C9487 1.433 . S
C9486 C9482 1.350 . S
C9486 C9483 1.463 . S
C9486 N9490 1.427 . S
C9487 H9477 0.929 . S
C9487 C9485 1.433 . S
C9487 N9490 1.384 . S
C9488 H9479 0.929 . S
C9488 C9480 1.378 . S
C9488 C9483 1.350 . S
C9489 H9476 0.929 . S
C9489 C9481 1.433 . S
C9489 N9491 1.384 . S
N9490 C9486 1.427 . S
N9490 C9487 1.384 . S
N9491 C9483 1.427 . S
N9491 C9489 1.384 . S
H9492 C9498 0.930 . S
H9493 C9502 0.930 . S
H9494 C9507 0.929 . S
H9495 C9505 0.929 . S
H9496 C9500 0.929 . S
H9497 C9506 0.929 . S
C9498 H9492 0.930 . S
C9498 C9499 1.367 . S
C9498 C9506 1.378 . S
C9499 C9498 1.367 . S
C9499 C9507 1.433 . S
C9500 H9496 0.929 . S
C9500 C9502 1.378 . S
C9500 C9504 1.350 . S
C9501 C9504 1.463 . S
C9501 C9506 1.350 . S
C9501 N9509 1.427 . S
C9502 H9493 0.930 . S
C9502 C9500 1.378 . S
C9502 C9503 1.367 . S
C9503 C9502 1.367 . S
C9503 C9505 1.433 . S
C9504 C9500 1.350 . S
C9504 C9501 1.463 . S
C9504 N9508 1.427 . S
C9505 H9495 0.929 . S
C9505 C9503 1.433 . S
C9505 N9508 1.384 . S
C9506 H9497 0.929 . S
C9506 C9498 1.378 . S
C9506 C9501 1.350 . S
C9507 H9494 0.929 . S
C9507 C9499 1.433 . S
C9507 N9509 1.384 . S
N9508 C9504 1.427 . S
N9508 C9505 1.384 . S
N9509 C9501 1.427 . S
N9509 C9507 1.384 . S
H9510 C9516 0.930 . S
H9511 C9520 0.930 . S
H9512 C9525 0.929 . S
H9513 C9523 0.929 . S
H9514 C9518 0.929 . S
H9515 C9524 0.929 . S
C9516 H9510 0.930 . S
C9516 C9517 1.367 . S
C9516 C9524 1.378 . S
C9517 C9516 1.367 . S
C9517 C9525 1.433 . S
C9518 H9514 0.929 . S
C9518 C9520 1.378 . S
C9518 C9522 1.350 . S
C9519 C9522 1.463 . S
C9519 C9524 1.350 . S
C9519 N9527 1.427 . S
C9520 H9511 0.930 . S
C9520 C9518 1.378 . S
C9520 C9521 1.367 . S
C9521 C9520 1.367 . S
C9521 C9523 1.433 . S
C9522 C9518 1.350 . S
C9522 C9519 1.463 . S
C9522 N9526 1.427 . S
C9523 H9513 0.929 . S
C9523 C9521 1.433 . S
C9523 N9526 1.384 . S
C9524 H9515 0.929 . S
C9524 C9516 1.378 . S
C9524 C9519 1.350 . S
C9525 H9512 0.929 . S
C9525 C9517 1.433 . S
C9525 N9527 1.384 . S
N9526 C9522 1.427 . S
N9526 C9523 1.384 . S
N9527 C9519 1.427 . S
N9527 C9525 1.384 . S
H9528 C9534 0.930 . S
H9529 C9538 0.930 . S
H9530 C9543 0.929 . S
H9531 C9541 0.929 . S
H9532 C9536 0.929 . S
H9533 C9542 0.929 . S
C9534 H9528 0.930 . S
C9534 C9535 1.367 . S
C9534 C9542 1.378 . S
C9535 C9534 1.367 . S
C9535 C9543 1.433 . S
C9536 H9532 0.929 . S
C9536 C9538 1.378 . S
C9536 C9540 1.350 . S
C9537 C9540 1.463 . S
C9537 C9542 1.350 . S
C9537 N9545 1.427 . S
C9538 H9529 0.930 . S
C9538 C9536 1.378 . S
C9538 C9539 1.367 . S
C9539 C9538 1.367 . S
C9539 C9541 1.433 . S
C9540 C9536 1.350 . S
C9540 C9537 1.463 . S
C9540 N9544 1.427 . S
C9541 H9531 0.929 . S
C9541 C9539 1.433 . S
C9541 N9544 1.384 . S
C9542 H9533 0.929 . S
C9542 C9534 1.378 . S
C9542 C9537 1.350 . S
C9543 H9530 0.929 . S
C9543 C9535 1.433 . S
C9543 N9545 1.384 . S
N9544 C9540 1.427 . S
N9544 C9541 1.384 . S
N9545 C9537 1.427 . S
N9545 C9543 1.384 . S
H9546 C9552 0.930 . S
H9547 C9556 0.930 . S
H9548 C9561 0.929 . S
H9549 C9559 0.929 . S
H9550 C9554 0.929 . S
H9551 C9560 0.929 . S
C9552 H9546 0.930 . S
C9552 C9553 1.367 . S
C9552 C9560 1.378 . S
C9553 C9552 1.367 . S
C9553 C9561 1.433 . S
C9554 H9550 0.929 . S
C9554 C9556 1.378 . S
C9554 C9558 1.350 . S
C9555 C9558 1.463 . S
C9555 C9560 1.350 . S
C9555 N9563 1.427 . S
C9556 H9547 0.930 . S
C9556 C9554 1.378 . S
C9556 C9557 1.367 . S
C9557 C9556 1.367 . S
C9557 C9559 1.433 . S
C9558 C9554 1.350 . S
C9558 C9555 1.463 . S
C9558 N9562 1.427 . S
C9559 H9549 0.929 . S
C9559 C9557 1.433 . S
C9559 N9562 1.384 . S
C9560 H9551 0.929 . S
C9560 C9552 1.378 . S
C9560 C9555 1.350 . S
C9561 H9548 0.929 . S
C9561 C9553 1.433 . S
C9561 N9563 1.384 . S
N9562 C9558 1.427 . S
N9562 C9559 1.384 . S
N9563 C9555 1.427 . S
N9563 C9561 1.384 . S
H9564 C9570 0.930 . S
H9565 C9574 0.930 . S
H9566 C9579 0.929 . S
H9567 C9577 0.929 . S
H9568 C9572 0.929 . S
H9569 C9578 0.929 . S
C9570 H9564 0.930 . S
C9570 C9571 1.367 . S
C9570 C9578 1.378 . S
C9571 C9570 1.367 . S
C9571 C9579 1.433 . S
C9572 H9568 0.929 . S
C9572 C9574 1.378 . S
C9572 C9576 1.350 . S
C9573 C9576 1.463 . S
C9573 C9578 1.350 . S
C9573 N9581 1.427 . S
C9574 H9565 0.930 . S
C9574 C9572 1.378 . S
C9574 C9575 1.367 . S
C9575 C9574 1.367 . S
C9575 C9577 1.433 . S
C9576 C9572 1.350 . S
C9576 C9573 1.463 . S
C9576 N9580 1.427 . S
C9577 H9567 0.929 . S
C9577 C9575 1.433 . S
C9577 N9580 1.384 . S
C9578 H9569 0.929 . S
C9578 C9570 1.378 . S
C9578 C9573 1.350 . S
C9579 H9566 0.929 . S
C9579 C9571 1.433 . S
C9579 N9581 1.384 . S
N9580 C9576 1.427 . S
N9580 C9577 1.384 . S
N9581 C9573 1.427 . S
N9581 C9579 1.384 . S
H9582 C9588 0.930 . S
H9583 C9592 0.930 . S
H9584 C9597 0.929 . S
H9585 C9595 0.929 . S
H9586 C9590 0.929 . S
H9587 C9596 0.929 . S
C9588 H9582 0.930 . S
C9588 C9589 1.367 . S
C9588 C9596 1.378 . S
C9589 C9588 1.367 . S
C9589 C9597 1.433 . S
C9590 H9586 0.929 . S
C9590 C9592 1.378 . S
C9590 C9594 1.350 . S
C9591 C9594 1.463 . S
C9591 C9596 1.350 . S
C9591 N9599 1.427 . S
C9592 H9583 0.930 . S
C9592 C9590 1.378 . S
C9592 C9593 1.367 . S
C9593 C9592 1.367 . S
C9593 C9595 1.433 . S
C9594 C9590 1.350 . S
C9594 C9591 1.463 . S
C9594 N9598 1.427 . S
C9595 H9585 0.929 . S
C9595 C9593 1.433 . S
C9595 N9598 1.384 . S
C9596 H9587 0.929 . S
C9596 C9588 1.378 . S
C9596 C9591 1.350 . S
C9597 H9584 0.929 . S
C9597 C9589 1.433 . S
C9597 N9599 1.384 . S
N9598 C9594 1.427 . S
N9598 C9595 1.384 . S
N9599 C9591 1.427 . S
N9599 C9597 1.384 . S
H9600 C9606 0.930 . S
H9601 C9610 0.930 . S
H9602 C9615 0.929 . S
H9603 C9613 0.929 . S
H9604 C9608 0.929 . S
H9605 C9614 0.929 . S
C9606 H9600 0.930 . S
C9606 C9607 1.367 . S
C9606 C9614 1.378 . S
C9607 C9606 1.367 . S
C9607 C9615 1.433 . S
C9608 H9604 0.929 . S
C9608 C9610 1.378 . S
C9608 C9612 1.350 . S
C9609 C9612 1.463 . S
C9609 C9614 1.350 . S
C9609 N9617 1.427 . S
C9610 H9601 0.930 . S
C9610 C9608 1.378 . S
C9610 C9611 1.367 . S
C9611 C9610 1.367 . S
C9611 C9613 1.433 . S
C9612 C9608 1.350 . S
C9612 C9609 1.463 . S
C9612 N9616 1.427 . S
C9613 H9603 0.929 . S
C9613 C9611 1.433 . S
C9613 N9616 1.384 . S
C9614 H9605 0.929 . S
C9614 C9606 1.378 . S
C9614 C9609 1.350 . S
C9615 H9602 0.929 . S
C9615 C9607 1.433 . S
C9615 N9617 1.384 . S
N9616 C9612 1.427 . S
N9616 C9613 1.384 . S
N9617 C9609 1.427 . S
N9617 C9615 1.384 . S
H9618 C9624 0.930 . S
H9619 C9628 0.930 . S
H9620 C9633 0.929 . S
H9621 C9631 0.929 . S
H9622 C9626 0.929 . S
H9623 C9632 0.929 . S
C9624 H9618 0.930 . S
C9624 C9625 1.367 . S
C9624 C9632 1.378 . S
C9625 C9624 1.367 . S
C9625 C9633 1.433 . S
C9626 H9622 0.929 . S
C9626 C9628 1.378 . S
C9626 C9630 1.350 . S
C9627 C9630 1.463 . S
C9627 C9632 1.350 . S
C9627 N9635 1.427 . S
C9628 H9619 0.930 . S
C9628 C9626 1.378 . S
C9628 C9629 1.367 . S
C9629 C9628 1.367 . S
C9629 C9631 1.433 . S
C9630 C9626 1.350 . S
C9630 C9627 1.463 . S
C9630 N9634 1.427 . S
C9631 H9621 0.929 . S
C9631 C9629 1.433 . S
C9631 N9634 1.384 . S
C9632 H9623 0.929 . S
C9632 C9624 1.378 . S
C9632 C9627 1.350 . S
C9633 H9620 0.929 . S
C9633 C9625 1.433 . S
C9633 N9635 1.384 . S
N9634 C9630 1.427 . S
N9634 C9631 1.384 . S
N9635 C9627 1.427 . S
N9635 C9633 1.384 . S
H9636 C9642 0.930 . S
H9637 C9646 0.930 . S
H9638 C9651 0.929 . S
H9639 C9649 0.929 . S
H9640 C9644 0.929 . S
H9641 C9650 0.929 . S
C9642 H9636 0.930 . S
C9642 C9643 1.367 . S
C9642 C9650 1.378 . S
C9643 C9642 1.367 . S
C9643 C9651 1.433 . S
C9644 H9640 0.929 . S
C9644 C9646 1.378 . S
C9644 C9648 1.350 . S
C9645 C9648 1.463 . S
C9645 C9650 1.350 . S
C9645 N9653 1.427 . S
C9646 H9637 0.930 . S
C9646 C9644 1.378 . S
C9646 C9647 1.367 . S
C9647 C9646 1.367 . S
C9647 C9649 1.433 . S
C9648 C9644 1.350 . S
C9648 C9645 1.463 . S
C9648 N9652 1.427 . S
C9649 H9639 0.929 . S
C9649 C9647 1.433 . S
C9649 N9652 1.384 . S
C9650 H9641 0.929 . S
C9650 C9642 1.378 . S
C9650 C9645 1.350 . S
C9651 H9638 0.929 . S
C9651 C9643 1.433 . S
C9651 N9653 1.384 . S
N9652 C9648 1.427 . S
N9652 C9649 1.384 . S
N9653 C9645 1.427 . S
N9653 C9651 1.384 . S
H9654 C9660 0.930 . S
H9655 C9664 0.930 . S
H9656 C9669 0.929 . S
H9657 C9667 0.929 . S
H9658 C9662 0.929 . S
H9659 C9668 0.929 . S
C9660 H9654 0.930 . S
C9660 C9661 1.367 . S
C9660 C9668 1.378 . S
C9661 C9660 1.367 . S
C9661 C9669 1.433 . S
C9662 H9658 0.929 . S
C9662 C9664 1.378 . S
C9662 C9666 1.350 . S
C9663 C9666 1.463 . S
C9663 C9668 1.350 . S
C9663 N9671 1.427 . S
C9664 H9655 0.930 . S
C9664 C9662 1.378 . S
C9664 C9665 1.367 . S
C9665 C9664 1.367 . S
C9665 C9667 1.433 . S
C9666 C9662 1.350 . S
C9666 C9663 1.463 . S
C9666 N9670 1.427 . S
C9667 H9657 0.929 . S
C9667 C9665 1.433 . S
C9667 N9670 1.384 . S
C9668 H9659 0.929 . S
C9668 C9660 1.378 . S
C9668 C9663 1.350 . S
C9669 H9656 0.929 . S
C9669 C9661 1.433 . S
C9669 N9671 1.384 . S
N9670 C9666 1.427 . S
N9670 C9667 1.384 . S
N9671 C9663 1.427 . S
N9671 C9669 1.384 . S
H9672 C9678 0.930 . S
H9673 C9682 0.930 . S
H9674 C9687 0.929 . S
H9675 C9685 0.929 . S
H9676 C9680 0.929 . S
H9677 C9686 0.929 . S
C9678 H9672 0.930 . S
C9678 C9679 1.367 . S
C9678 C9686 1.378 . S
C9679 C9678 1.367 . S
C9679 C9687 1.433 . S
C9680 H9676 0.929 . S
C9680 C9682 1.378 . S
C9680 C9684 1.350 . S
C9681 C9684 1.463 . S
C9681 C9686 1.350 . S
C9681 N9689 1.427 . S
C9682 H9673 0.930 . S
C9682 C9680 1.378 . S
C9682 C9683 1.367 . S
C9683 C9682 1.367 . S
C9683 C9685 1.433 . S
C9684 C9680 1.350 . S
C9684 C9681 1.463 . S
C9684 N9688 1.427 . S
C9685 H9675 0.929 . S
C9685 C9683 1.433 . S
C9685 N9688 1.384 . S
C9686 H9677 0.929 . S
C9686 C9678 1.378 . S
C9686 C9681 1.350 . S
C9687 H9674 0.929 . S
C9687 C9679 1.433 . S
C9687 N9689 1.384 . S
N9688 C9684 1.427 . S
N9688 C9685 1.384 . S
N9689 C9681 1.427 . S
N9689 C9687 1.384 . S
H9690 C9696 0.930 . S
H9691 C9700 0.930 . S
H9692 C9705 0.929 . S
H9693 C9703 0.929 . S
H9694 C9698 0.929 . S
H9695 C9704 0.929 . S
C9696 H9690 0.930 . S
C9696 C9697 1.367 . S
C9696 C9704 1.378 . S
C9697 C9696 1.367 . S
C9697 C9705 1.433 . S
C9698 H9694 0.929 . S
C9698 C9700 1.378 . S
C9698 C9702 1.350 . S
C9699 C9702 1.463 . S
C9699 C9704 1.350 . S
C9699 N9707 1.427 . S
C9700 H9691 0.930 . S
C9700 C9698 1.378 . S
C9700 C9701 1.367 . S
C9701 C9700 1.367 . S
C9701 C9703 1.433 . S
C9702 C9698 1.350 . S
C9702 C9699 1.463 . S
C9702 N9706 1.427 . S
C9703 H9693 0.929 . S
C9703 C9701 1.433 . S
C9703 N9706 1.384 . S
C9704 H9695 0.929 . S
C9704 C9696 1.378 . S
C9704 C9699 1.350 . S
C9705 H9692 0.929 . S
C9705 C9697 1.433 . S
C9705 N9707 1.384 . S
N9706 C9702 1.427 . S
N9706 C9703 1.384 . S
N9707 C9699 1.427 . S
N9707 C9705 1.384 . S
H9708 C9714 0.930 . S
H9709 C9718 0.930 . S
H9710 C9723 0.929 . S
H9711 C9721 0.929 . S
H9712 C9716 0.929 . S
H9713 C9722 0.929 . S
C9714 H9708 0.930 . S
C9714 C9715 1.367 . S
C9714 C9722 1.378 . S
C9715 C9714 1.367 . S
C9715 C9723 1.433 . S
C9716 H9712 0.929 . S
C9716 C9718 1.378 . S
C9716 C9720 1.350 . S
C9717 C9720 1.463 . S
C9717 C9722 1.350 . S
C9717 N9725 1.427 . S
C9718 H9709 0.930 . S
C9718 C9716 1.378 . S
C9718 C9719 1.367 . S
C9719 C9718 1.367 . S
C9719 C9721 1.433 . S
C9720 C9716 1.350 . S
C9720 C9717 1.463 . S
C9720 N9724 1.427 . S
C9721 H9711 0.929 . S
C9721 C9719 1.433 . S
C9721 N9724 1.384 . S
C9722 H9713 0.929 . S
C9722 C9714 1.378 . S
C9722 C9717 1.350 . S
C9723 H9710 0.929 . S
C9723 C9715 1.433 . S
C9723 N9725 1.384 . S
N9724 C9720 1.427 . S
N9724 C9721 1.384 . S
N9725 C9717 1.427 . S
N9725 C9723 1.384 . S
H9726 C9732 0.930 . S
H9727 C9736 0.930 . S
H9728 C9741 0.929 . S
H9729 C9739 0.929 . S
H9730 C9734 0.929 . S
H9731 C9740 0.929 . S
C9732 H9726 0.930 . S
C9732 C9733 1.367 . S
C9732 C9740 1.378 . S
C9733 C9732 1.367 . S
C9733 C9741 1.433 . S
C9734 H9730 0.929 . S
C9734 C9736 1.378 . S
C9734 C9738 1.350 . S
C9735 C9738 1.463 . S
C9735 C9740 1.350 . S
C9735 N9743 1.427 . S
C9736 H9727 0.930 . S
C9736 C9734 1.378 . S
C9736 C9737 1.367 . S
C9737 C9736 1.367 . S
C9737 C9739 1.433 . S
C9738 C9734 1.350 . S
C9738 C9735 1.463 . S
C9738 N9742 1.427 . S
C9739 H9729 0.929 . S
C9739 C9737 1.433 . S
C9739 N9742 1.384 . S
C9740 H9731 0.929 . S
C9740 C9732 1.378 . S
C9740 C9735 1.350 . S
C9741 H9728 0.929 . S
C9741 C9733 1.433 . S
C9741 N9743 1.384 . S
N9742 C9738 1.427 . S
N9742 C9739 1.384 . S
N9743 C9735 1.427 . S
N9743 C9741 1.384 . S
H9744 C9750 0.930 . S
H9745 C9754 0.930 . S
H9746 C9759 0.929 . S
H9747 C9757 0.929 . S
H9748 C9752 0.929 . S
H9749 C9758 0.929 . S
C9750 H9744 0.930 . S
C9750 C9751 1.367 . S
C9750 C9758 1.378 . S
C9751 C9750 1.367 . S
C9751 C9759 1.433 . S
C9752 H9748 0.929 . S
C9752 C9754 1.378 . S
C9752 C9756 1.350 . S
C9753 C9756 1.463 . S
C9753 C9758 1.350 . S
C9753 N9761 1.427 . S
C9754 H9745 0.930 . S
C9754 C9752 1.378 . S
C9754 C9755 1.367 . S
C9755 C9754 1.367 . S
C9755 C9757 1.433 . S
C9756 C9752 1.350 . S
C9756 C9753 1.463 . S
C9756 N9760 1.427 . S
C9757 H9747 0.929 . S
C9757 C9755 1.433 . S
C9757 N9760 1.384 . S
C9758 H9749 0.929 . S
C9758 C9750 1.378 . S
C9758 C9753 1.350 . S
C9759 H9746 0.929 . S
C9759 C9751 1.433 . S
C9759 N9761 1.384 . S
N9760 C9756 1.427 . S
N9760 C9757 1.384 . S
N9761 C9753 1.427 . S
N9761 C9759 1.384 . S
H9762 C9768 0.930 . S
H9763 C9772 0.930 . S
H9764 C9777 0.929 . S
H9765 C9775 0.929 . S
H9766 C9770 0.929 . S
H9767 C9776 0.929 . S
C9768 H9762 0.930 . S
C9768 C9769 1.367 . S
C9768 C9776 1.378 . S
C9769 C9768 1.367 . S
C9769 C9777 1.433 . S
C9770 H9766 0.929 . S
C9770 C9772 1.378 . S
C9770 C9774 1.350 . S
C9771 C9774 1.463 . S
C9771 C9776 1.350 . S
C9771 N9779 1.427 . S
C9772 H9763 0.930 . S
C9772 C9770 1.378 . S
C9772 C9773 1.367 . S
C9773 C9772 1.367 . S
C9773 C9775 1.433 . S
C9774 C9770 1.350 . S
C9774 C9771 1.463 . S
C9774 N9778 1.427 . S
C9775 H9765 0.929 . S
C9775 C9773 1.433 . S
C9775 N9778 1.384 . S
C9776 H9767 0.929 . S
C9776 C9768 1.378 . S
C9776 C9771 1.350 . S
C9777 H9764 0.929 . S
C9777 C9769 1.433 . S
C9777 N9779 1.384 . S
N9778 C9774 1.427 . S
N9778 C9775 1.384 . S
N9779 C9771 1.427 . S
N9779 C9777 1.384 . S
H9780 C9786 0.930 . S
H9781 C9790 0.930 . S
H9782 C9795 0.929 . S
H9783 C9793 0.929 . S
H9784 C9788 0.929 . S
H9785 C9794 0.929 . S
C9786 H9780 0.930 . S
C9786 C9787 1.367 . S
C9786 C9794 1.378 . S
C9787 C9786 1.367 . S
C9787 C9795 1.433 . S
C9788 H9784 0.929 . S
C9788 C9790 1.378 . S
C9788 C9792 1.350 . S
C9789 C9792 1.463 . S
C9789 C9794 1.350 . S
C9789 N9797 1.427 . S
C9790 H9781 0.930 . S
C9790 C9788 1.378 . S
C9790 C9791 1.367 . S
C9791 C9790 1.367 . S
C9791 C9793 1.433 . S
C9792 C9788 1.350 . S
C9792 C9789 1.463 . S
C9792 N9796 1.427 . S
C9793 H9783 0.929 . S
C9793 C9791 1.433 . S
C9793 N9796 1.384 . S
C9794 H9785 0.929 . S
C9794 C9786 1.378 . S
C9794 C9789 1.350 . S
C9795 H9782 0.929 . S
C9795 C9787 1.433 . S
C9795 N9797 1.384 . S
N9796 C9792 1.427 . S
N9796 C9793 1.384 . S
N9797 C9789 1.427 . S
N9797 C9795 1.384 . S
H9798 C9804 0.930 . S
H9799 C9808 0.930 . S
H9800 C9813 0.929 . S
H9801 C9811 0.929 . S
H9802 C9806 0.929 . S
H9803 C9812 0.929 . S
C9804 H9798 0.930 . S
C9804 C9805 1.367 . S
C9804 C9812 1.378 . S
C9805 C9804 1.367 . S
C9805 C9813 1.433 . S
C9806 H9802 0.929 . S
C9806 C9808 1.378 . S
C9806 C9810 1.350 . S
C9807 C9810 1.463 . S
C9807 C9812 1.350 . S
C9807 N9815 1.427 . S
C9808 H9799 0.930 . S
C9808 C9806 1.378 . S
C9808 C9809 1.367 . S
C9809 C9808 1.367 . S
C9809 C9811 1.433 . S
C9810 C9806 1.350 . S
C9810 C9807 1.463 . S
C9810 N9814 1.427 . S
C9811 H9801 0.929 . S
C9811 C9809 1.433 . S
C9811 N9814 1.384 . S
C9812 H9803 0.929 . S
C9812 C9804 1.378 . S
C9812 C9807 1.350 . S
C9813 H9800 0.929 . S
C9813 C9805 1.433 . S
C9813 N9815 1.384 . S
N9814 C9810 1.427 . S
N9814 C9811 1.384 . S
N9815 C9807 1.427 . S
N9815 C9813 1.384 . S
H9816 C9822 0.930 . S
H9817 C9826 0.930 . S
H9818 C9831 0.929 . S
H9819 C9829 0.929 . S
H9820 C9824 0.929 . S
H9821 C9830 0.929 . S
C9822 H9816 0.930 . S
C9822 C9823 1.367 . S
C9822 C9830 1.378 . S
C9823 C9822 1.367 . S
C9823 C9831 1.433 . S
C9824 H9820 0.929 . S
C9824 C9826 1.378 . S
C9824 C9828 1.350 . S
C9825 C9828 1.463 . S
C9825 C9830 1.350 . S
C9825 N9833 1.427 . S
C9826 H9817 0.930 . S
C9826 C9824 1.378 . S
C9826 C9827 1.367 . S
C9827 C9826 1.367 . S
C9827 C9829 1.433 . S
C9828 C9824 1.350 . S
C9828 C9825 1.463 . S
C9828 N9832 1.427 . S
C9829 H9819 0.929 . S
C9829 C9827 1.433 . S
C9829 N9832 1.384 . S
C9830 H9821 0.929 . S
C9830 C9822 1.378 . S
C9830 C9825 1.350 . S
C9831 H9818 0.929 . S
C9831 C9823 1.433 . S
C9831 N9833 1.384 . S
N9832 C9828 1.427 . S
N9832 C9829 1.384 . S
N9833 C9825 1.427 . S
N9833 C9831 1.384 . S
H9834 C9840 0.930 . S
H9835 C9844 0.930 . S
H9836 C9849 0.929 . S
H9837 C9847 0.929 . S
H9838 C9842 0.929 . S
H9839 C9848 0.929 . S
C9840 H9834 0.930 . S
C9840 C9841 1.367 . S
C9840 C9848 1.378 . S
C9841 C9840 1.367 . S
C9841 C9849 1.433 . S
C9842 H9838 0.929 . S
C9842 C9844 1.378 . S
C9842 C9846 1.350 . S
C9843 C9846 1.463 . S
C9843 C9848 1.350 . S
C9843 N9851 1.427 . S
C9844 H9835 0.930 . S
C9844 C9842 1.378 . S
C9844 C9845 1.367 . S
C9845 C9844 1.367 . S
C9845 C9847 1.433 . S
C9846 C9842 1.350 . S
C9846 C9843 1.463 . S
C9846 N9850 1.427 . S
C9847 H9837 0.929 . S
C9847 C9845 1.433 . S
C9847 N9850 1.384 . S
C9848 H9839 0.929 . S
C9848 C9840 1.378 . S
C9848 C9843 1.350 . S
C9849 H9836 0.929 . S
C9849 C9841 1.433 . S
C9849 N9851 1.384 . S
N9850 C9846 1.427 . S
N9850 C9847 1.384 . S
N9851 C9843 1.427 . S
N9851 C9849 1.384 . S
H9852 C9858 0.930 . S
H9853 C9862 0.930 . S
H9854 C9867 0.929 . S
H9855 C9865 0.929 . S
H9856 C9860 0.929 . S
H9857 C9866 0.929 . S
C9858 H9852 0.930 . S
C9858 C9859 1.367 . S
C9858 C9866 1.378 . S
C9859 C9858 1.367 . S
C9859 C9867 1.433 . S
C9860 H9856 0.929 . S
C9860 C9862 1.378 . S
C9860 C9864 1.350 . S
C9861 C9864 1.463 . S
C9861 C9866 1.350 . S
C9861 N9869 1.427 . S
C9862 H9853 0.930 . S
C9862 C9860 1.378 . S
C9862 C9863 1.367 . S
C9863 C9862 1.367 . S
C9863 C9865 1.433 . S
C9864 C9860 1.350 . S
C9864 C9861 1.463 . S
C9864 N9868 1.427 . S
C9865 H9855 0.929 . S
C9865 C9863 1.433 . S
C9865 N9868 1.384 . S
C9866 H9857 0.929 . S
C9866 C9858 1.378 . S
C9866 C9861 1.350 . S
C9867 H9854 0.929 . S
C9867 C9859 1.433 . S
C9867 N9869 1.384 . S
N9868 C9864 1.427 . S
N9868 C9865 1.384 . S
N9869 C9861 1.427 . S
N9869 C9867 1.384 . S
H9870 C9876 0.930 . S
H9871 C9880 0.930 . S
H9872 C9885 0.929 . S
H9873 C9883 0.929 . S
H9874 C9878 0.929 . S
H9875 C9884 0.929 . S
C9876 H9870 0.930 . S
C9876 C9877 1.367 . S
C9876 C9884 1.378 . S
C9877 C9876 1.367 . S
C9877 C9885 1.433 . S
C9878 H9874 0.929 . S
C9878 C9880 1.378 . S
C9878 C9882 1.350 . S
C9879 C9882 1.463 . S
C9879 C9884 1.350 . S
C9879 N9887 1.427 . S
C9880 H9871 0.930 . S
C9880 C9878 1.378 . S
C9880 C9881 1.367 . S
C9881 C9880 1.367 . S
C9881 C9883 1.433 . S
C9882 C9878 1.350 . S
C9882 C9879 1.463 . S
C9882 N9886 1.427 . S
C9883 H9873 0.929 . S
C9883 C9881 1.433 . S
C9883 N9886 1.384 . S
C9884 H9875 0.929 . S
C9884 C9876 1.378 . S
C9884 C9879 1.350 . S
C9885 H9872 0.929 . S
C9885 C9877 1.433 . S
C9885 N9887 1.384 . S
N9886 C9882 1.427 . S
N9886 C9883 1.384 . S
N9887 C9879 1.427 . S
N9887 C9885 1.384 . S
H9888 C9894 0.930 . S
H9889 C9898 0.930 . S
H9890 C9903 0.929 . S
H9891 C9901 0.929 . S
H9892 C9896 0.929 . S
H9893 C9902 0.929 . S
C9894 H9888 0.930 . S
C9894 C9895 1.367 . S
C9894 C9902 1.378 . S
C9895 C9894 1.367 . S
C9895 C9903 1.433 . S
C9896 H9892 0.929 . S
C9896 C9898 1.378 . S
C9896 C9900 1.350 . S
C9897 C9900 1.463 . S
C9897 C9902 1.350 . S
C9897 N9905 1.427 . S
C9898 H9889 0.930 . S
C9898 C9896 1.378 . S
C9898 C9899 1.367 . S
C9899 C9898 1.367 . S
C9899 C9901 1.433 . S
C9900 C9896 1.350 . S
C9900 C9897 1.463 . S
C9900 N9904 1.427 . S
C9901 H9891 0.929 . S
C9901 C9899 1.433 . S
C9901 N9904 1.384 . S
C9902 H9893 0.929 . S
C9902 C9894 1.378 . S
C9902 C9897 1.350 . S
C9903 H9890 0.929 . S
C9903 C9895 1.433 . S
C9903 N9905 1.384 . S
N9904 C9900 1.427 . S
N9904 C9901 1.384 . S
N9905 C9897 1.427 . S
N9905 C9903 1.384 . S
H9906 C9912 0.930 . S
H9907 C9916 0.930 . S
H9908 C9921 0.929 . S
H9909 C9919 0.929 . S
H9910 C9914 0.929 . S
H9911 C9920 0.929 . S
C9912 H9906 0.930 . S
C9912 C9913 1.367 . S
C9912 C9920 1.378 . S
C9913 C9912 1.367 . S
C9913 C9921 1.433 . S
C9914 H9910 0.929 . S
C9914 C9916 1.378 . S
C9914 C9918 1.350 . S
C9915 C9918 1.463 . S
C9915 C9920 1.350 . S
C9915 N9923 1.427 . S
C9916 H9907 0.930 . S
C9916 C9914 1.378 . S
C9916 C9917 1.367 . S
C9917 C9916 1.367 . S
C9917 C9919 1.433 . S
C9918 C9914 1.350 . S
C9918 C9915 1.463 . S
C9918 N9922 1.427 . S
C9919 H9909 0.929 . S
C9919 C9917 1.433 . S
C9919 N9922 1.384 . S
C9920 H9911 0.929 . S
C9920 C9912 1.378 . S
C9920 C9915 1.350 . S
C9921 H9908 0.929 . S
C9921 C9913 1.433 . S
C9921 N9923 1.384 . S
N9922 C9918 1.427 . S
N9922 C9919 1.384 . S
N9923 C9915 1.427 . S
N9923 C9921 1.384 . S
H9924 C9930 0.930 . S
H9925 C9934 0.930 . S
H9926 C9939 0.929 . S
H9927 C9937 0.929 . S
H9928 C9932 0.929 . S
H9929 C9938 0.929 . S
C9930 H9924 0.930 . S
C9930 C9931 1.367 . S
C9930 C9938 1.378 . S
C9931 C9930 1.367 . S
C9931 C9939 1.433 . S
C9932 H9928 0.929 . S
C9932 C9934 1.378 . S
C9932 C9936 1.350 . S
C9933 C9936 1.463 . S
C9933 C9938 1.350 . S
C9933 N9941 1.427 . S
C9934 H9925 0.930 . S
C9934 C9932 1.378 . S
C9934 C9935 1.367 . S
C9935 C9934 1.367 . S
C9935 C9937 1.433 . S
C9936 C9932 1.350 . S
C9936 C9933 1.463 . S
C9936 N9940 1.427 . S
C9937 H9927 0.929 . S
C9937 C9935 1.433 . S
C9937 N9940 1.384 . S
C9938 H9929 0.929 . S
C9938 C9930 1.378 . S
C9938 C9933 1.350 . S
C9939 H9926 0.929 . S
C9939 C9931 1.433 . S
C9939 N9941 1.384 . S
N9940 C9936 1.427 . S
N9940 C9937 1.384 . S
N9941 C9933 1.427 . S
N9941 C9939 1.384 . S
H9942 C9948 0.930 . S
H9943 C9952 0.930 . S
H9944 C9957 0.929 . S
H9945 C9955 0.929 . S
H9946 C9950 0.929 . S
H9947 C9956 0.929 . S
C9948 H9942 0.930 . S
C9948 C9949 1.367 . S
C9948 C9956 1.378 . S
C9949 C9948 1.367 . S
C9949 C9957 1.433 . S
C9950 H9946 0.929 . S
C9950 C9952 1.378 . S
C9950 C9954 1.350 . S
C9951 C9954 1.463 . S
C9951 C9956 1.350 . S
C9951 N9959 1.427 . S
C9952 H9943 0.930 . S
C9952 C9950 1.378 . S
C9952 C9953 1.367 . S
C9953 C9952 1.367 . S
C9953 C9955 1.433 . S
C9954 C9950 1.350 . S
C9954 C9951 1.463 . S
C9954 N9958 1.427 . S
C9955 H9945 0.929 . S
C9955 C9953 1.433 . S
C9955 N9958 1.384 . S
C9956 H9947 0.929 . S
C9956 C9948 1.378 . S
C9956 C9951 1.350 . S
C9957 H9944 0.929 . S
C9957 C9949 1.433 . S
C9957 N9959 1.384 . S
N9958 C9954 1.427 . S
N9958 C9955 1.384 . S
N9959 C9951 1.427 . S
N9959 C9957 1.384 . S
H9960 C9966 0.930 . S
H9961 C9970 0.930 . S
H9962 C9975 0.929 . S
H9963 C9973 0.929 . S
H9964 C9968 0.929 . S
H9965 C9974 0.929 . S
C9966 H9960 0.930 . S
C9966 C9967 1.367 . S
C9966 C9974 1.378 . S
C9967 C9966 1.367 . S
C9967 C9975 1.433 . S
C9968 H9964 0.929 . S
C9968 C9970 1.378 . S
C9968 C9972 1.350 . S
C9969 C9972 1.463 . S
C9969 C9974 1.350 . S
C9969 N9977 1.427 . S
C9970 H9961 0.930 . S
C9970 C9968 1.378 . S
C9970 C9971 1.367 . S
C9971 C9970 1.367 . S
C9971 C9973 1.433 . S
C9972 C9968 1.350 . S
C9972 C9969 1.463 . S
C9972 N9976 1.427 . S
C9973 H9963 0.929 . S
C9973 C9971 1.433 . S
C9973 N9976 1.384 . S
C9974 H9965 0.929 . S
C9974 C9966 1.378 . S
C9974 C9969 1.350 . S
C9975 H9962 0.929 . S
C9975 C9967 1.433 . S
C9975 N9977 1.384 . S
N9976 C9972 1.427 . S
N9976 C9973 1.384 . S
N9977 C9969 1.427 . S
N9977 C9975 1.384 . S
H9978 C9984 0.930 . S
H9979 C9988 0.930 . S
H9980 C9993 0.929 . S
H9981 C9991 0.929 . S
H9982 C9986 0.929 . S
H9983 C9992 0.929 . S
C9984 H9978 0.930 . S
C9984 C9985 1.367 . S
C9984 C9992 1.378 . S
C9985 C9984 1.367 . S
C9985 C9993 1.433 . S
C9986 H9982 0.929 . S
C9986 C9988 1.378 . S
C9986 C9990 1.350 . S
C9987 C9990 1.463 . S
C9987 C9992 1.350 . S
C9987 N9995 1.427 . S
C9988 H9979 0.930 . S
C9988 C9986 1.378 . S
C9988 C9989 1.367 . S
C9989 C9988 1.367 . S
C9989 C9991 1.433 . S
C9990 C9986 1.350 . S
C9990 C9987 1.463 . S
C9990 N9994 1.427 . S
C9991 H9981 0.929 . S
C9991 C9989 1.433 . S
C9991 N9994 1.384 . S
C9992 H9983 0.929 . S
C9992 C9984 1.378 . S
C9992 C9987 1.350 . S
C9993 H9980 0.929 . S
C9993 C9985 1.433 . S
C9993 N9995 1.384 . S
N9994 C9990 1.427 . S
N9994 C9991 1.384 . S
N9995 C9987 1.427 . S
N9995 C9993 1.384 . S
H9996 C10002 0.930 . S
H9997 C10006 0.930 . S
H9998 C10011 0.929 . S
H9999 C10009 0.929 . S
H10000 C10004 0.929 . S
H10001 C10010 0.929 . S
C10002 H9996 0.930 . S
C10002 C10003 1.367 . S
C10002 C10010 1.378 . S
C10003 C10002 1.367 . S
C10003 C10011 1.433 . S
C10004 H10000 0.929 . S
C10004 C10006 1.378 . S
C10004 C10008 1.350 . S
C10005 C10008 1.463 . S
C10005 C10010 1.350 . S
C10005 N10013 1.427 . S
C10006 H9997 0.930 . S
C10006 C10004 1.378 . S
C10006 C10007 1.367 . S
C10007 C10006 1.367 . S
C10007 C10009 1.433 . S
C10008 C10004 1.350 . S
C10008 C10005 1.463 . S
C10008 N10012 1.427 . S
C10009 H9999 0.929 . S
C10009 C10007 1.433 . S
C10009 N10012 1.384 . S
C10010 H10001 0.929 . S
C10010 C10002 1.378 . S
C10010 C10005 1.350 . S
C10011 H9998 0.929 . S
C10011 C10003 1.433 . S
C10011 N10013 1.384 . S
N10012 C10008 1.427 . S
N10012 C10009 1.384 . S
N10013 C10005 1.427 . S
N10013 C10011 1.384 . S
H10014 C10020 0.930 . S
H10015 C10024 0.930 . S
H10016 C10029 0.929 . S
H10017 C10027 0.929 . S
H10018 C10022 0.929 . S
H10019 C10028 0.929 . S
C10020 H10014 0.930 . S
C10020 C10021 1.367 . S
C10020 C10028 1.378 . S
C10021 C10020 1.367 . S
C10021 C10029 1.433 . S
C10022 H10018 0.929 . S
C10022 C10024 1.378 . S
C10022 C10026 1.350 . S
C10023 C10026 1.463 . S
C10023 C10028 1.350 . S
C10023 N10031 1.427 . S
C10024 H10015 0.930 . S
C10024 C10022 1.378 . S
C10024 C10025 1.367 . S
C10025 C10024 1.367 . S
C10025 C10027 1.433 . S
C10026 C10022 1.350 . S
C10026 C10023 1.463 . S
C10026 N10030 1.427 . S
C10027 H10017 0.929 . S
C10027 C10025 1.433 . S
C10027 N10030 1.384 . S
C10028 H10019 0.929 . S
C10028 C10020 1.378 . S
C10028 C10023 1.350 . S
C10029 H10016 0.929 . S
C10029 C10021 1.433 . S
C10029 N10031 1.384 . S
N10030 C10026 1.427 . S
N10030 C10027 1.384 . S
N10031 C10023 1.427 . S
N10031 C10029 1.384 . S
H10032 C10038 0.930 . S
H10033 C10042 0.930 . S
H10034 C10047 0.929 . S
H10035 C10045 0.929 . S
H10036 C10040 0.929 . S
H10037 C10046 0.929 . S
C10038 H10032 0.930 . S
C10038 C10039 1.367 . S
C10038 C10046 1.378 . S
C10039 C10038 1.367 . S
C10039 C10047 1.433 . S
C10040 H10036 0.929 . S
C10040 C10042 1.378 . S
C10040 C10044 1.350 . S
C10041 C10044 1.463 . S
C10041 C10046 1.350 . S
C10041 N10049 1.427 . S
C10042 H10033 0.930 . S
C10042 C10040 1.378 . S
C10042 C10043 1.367 . S
C10043 C10042 1.367 . S
C10043 C10045 1.433 . S
C10044 C10040 1.350 . S
C10044 C10041 1.463 . S
C10044 N10048 1.427 . S
C10045 H10035 0.929 . S
C10045 C10043 1.433 . S
C10045 N10048 1.384 . S
C10046 H10037 0.929 . S
C10046 C10038 1.378 . S
C10046 C10041 1.350 . S
C10047 H10034 0.929 . S
C10047 C10039 1.433 . S
C10047 N10049 1.384 . S
N10048 C10044 1.427 . S
N10048 C10045 1.384 . S
N10049 C10041 1.427 . S
N10049 C10047 1.384 . S
H10050 C10056 0.930 . S
H10051 C10060 0.930 . S
H10052 C10065 0.929 . S
H10053 C10063 0.929 . S
H10054 C10058 0.929 . S
H10055 C10064 0.929 . S
C10056 H10050 0.930 . S
C10056 C10057 1.367 . S
C10056 C10064 1.378 . S
C10057 C10056 1.367 . S
C10057 C10065 1.433 . S
C10058 H10054 0.929 . S
C10058 C10060 1.378 . S
C10058 C10062 1.350 . S
C10059 C10062 1.463 . S
C10059 C10064 1.350 . S
C10059 N10067 1.427 . S
C10060 H10051 0.930 . S
C10060 C10058 1.378 . S
C10060 C10061 1.367 . S
C10061 C10060 1.367 . S
C10061 C10063 1.433 . S
C10062 C10058 1.350 . S
C10062 C10059 1.463 . S
C10062 N10066 1.427 . S
C10063 H10053 0.929 . S
C10063 C10061 1.433 . S
C10063 N10066 1.384 . S
C10064 H10055 0.929 . S
C10064 C10056 1.378 . S
C10064 C10059 1.350 . S
C10065 H10052 0.929 . S
C10065 C10057 1.433 . S
C10065 N10067 1.384 . S
N10066 C10062 1.427 . S
N10066 C10063 1.384 . S
N10067 C10059 1.427 . S
N10067 C10065 1.384 . S
H10068 C10074 0.930 . S
H10069 C10078 0.930 . S
H10070 C10083 0.929 . S
H10071 C10081 0.929 . S
H10072 C10076 0.929 . S
H10073 C10082 0.929 . S
C10074 H10068 0.930 . S
C10074 C10075 1.367 . S
C10074 C10082 1.378 . S
C10075 C10074 1.367 . S
C10075 C10083 1.433 . S
C10076 H10072 0.929 . S
C10076 C10078 1.378 . S
C10076 C10080 1.350 . S
C10077 C10080 1.463 . S
C10077 C10082 1.350 . S
C10077 N10085 1.427 . S
C10078 H10069 0.930 . S
C10078 C10076 1.378 . S
C10078 C10079 1.367 . S
C10079 C10078 1.367 . S
C10079 C10081 1.433 . S
C10080 C10076 1.350 . S
C10080 C10077 1.463 . S
C10080 N10084 1.427 . S
C10081 H10071 0.929 . S
C10081 C10079 1.433 . S
C10081 N10084 1.384 . S
C10082 H10073 0.929 . S
C10082 C10074 1.378 . S
C10082 C10077 1.350 . S
C10083 H10070 0.929 . S
C10083 C10075 1.433 . S
C10083 N10085 1.384 . S
N10084 C10080 1.427 . S
N10084 C10081 1.384 . S
N10085 C10077 1.427 . S
N10085 C10083 1.384 . S
H10086 C10092 0.930 . S
H10087 C10096 0.930 . S
H10088 C10101 0.929 . S
H10089 C10099 0.929 . S
H10090 C10094 0.929 . S
H10091 C10100 0.929 . S
C10092 H10086 0.930 . S
C10092 C10093 1.367 . S
C10092 C10100 1.378 . S
C10093 C10092 1.367 . S
C10093 C10101 1.433 . S
C10094 H10090 0.929 . S
C10094 C10096 1.378 . S
C10094 C10098 1.350 . S
C10095 C10098 1.463 . S
C10095 C10100 1.350 . S
C10095 N10103 1.427 . S
C10096 H10087 0.930 . S
C10096 C10094 1.378 . S
C10096 C10097 1.367 . S
C10097 C10096 1.367 . S
C10097 C10099 1.433 . S
C10098 C10094 1.350 . S
C10098 C10095 1.463 . S
C10098 N10102 1.427 . S
C10099 H10089 0.929 . S
C10099 C10097 1.433 . S
C10099 N10102 1.384 . S
C10100 H10091 0.929 . S
C10100 C10092 1.378 . S
C10100 C10095 1.350 . S
C10101 H10088 0.929 . S
C10101 C10093 1.433 . S
C10101 N10103 1.384 . S
N10102 C10098 1.427 . S
N10102 C10099 1.384 . S
N10103 C10095 1.427 . S
N10103 C10101 1.384 . S
H10104 C10110 0.930 . S
H10105 C10114 0.930 . S
H10106 C10119 0.929 . S
H10107 C10117 0.929 . S
H10108 C10112 0.929 . S
H10109 C10118 0.929 . S
C10110 H10104 0.930 . S
C10110 C10111 1.367 . S
C10110 C10118 1.378 . S
C10111 C10110 1.367 . S
C10111 C10119 1.433 . S
C10112 H10108 0.929 . S
C10112 C10114 1.378 . S
C10112 C10116 1.350 . S
C10113 C10116 1.463 . S
C10113 C10118 1.350 . S
C10113 N10121 1.427 . S
C10114 H10105 0.930 . S
C10114 C10112 1.378 . S
C10114 C10115 1.367 . S
C10115 C10114 1.367 . S
C10115 C10117 1.433 . S
C10116 C10112 1.350 . S
C10116 C10113 1.463 . S
C10116 N10120 1.427 . S
C10117 H10107 0.929 . S
C10117 C10115 1.433 . S
C10117 N10120 1.384 . S
C10118 H10109 0.929 . S
C10118 C10110 1.378 . S
C10118 C10113 1.350 . S
C10119 H10106 0.929 . S
C10119 C10111 1.433 . S
C10119 N10121 1.384 . S
N10120 C10116 1.427 . S
N10120 C10117 1.384 . S
N10121 C10113 1.427 . S
N10121 C10119 1.384 . S
H10122 C10128 0.930 . S
H10123 C10132 0.930 . S
H10124 C10137 0.929 . S
H10125 C10135 0.929 . S
H10126 C10130 0.929 . S
H10127 C10136 0.929 . S
C10128 H10122 0.930 . S
C10128 C10129 1.367 . S
C10128 C10136 1.378 . S
C10129 C10128 1.367 . S
C10129 C10137 1.433 . S
C10130 H10126 0.929 . S
C10130 C10132 1.378 . S
C10130 C10134 1.350 . S
C10131 C10134 1.463 . S
C10131 C10136 1.350 . S
C10131 N10139 1.427 . S
C10132 H10123 0.930 . S
C10132 C10130 1.378 . S
C10132 C10133 1.367 . S
C10133 C10132 1.367 . S
C10133 C10135 1.433 . S
C10134 C10130 1.350 . S
C10134 C10131 1.463 . S
C10134 N10138 1.427 . S
C10135 H10125 0.929 . S
C10135 C10133 1.433 . S
C10135 N10138 1.384 . S
C10136 H10127 0.929 . S
C10136 C10128 1.378 . S
C10136 C10131 1.350 . S
C10137 H10124 0.929 . S
C10137 C10129 1.433 . S
C10137 N10139 1.384 . S
N10138 C10134 1.427 . S
N10138 C10135 1.384 . S
N10139 C10131 1.427 . S
N10139 C10137 1.384 . S
H10140 C10146 0.930 . S
H10141 C10150 0.930 . S
H10142 C10155 0.929 . S
H10143 C10153 0.929 . S
H10144 C10148 0.929 . S
H10145 C10154 0.929 . S
C10146 H10140 0.930 . S
C10146 C10147 1.367 . S
C10146 C10154 1.378 . S
C10147 C10146 1.367 . S
C10147 C10155 1.433 . S
C10148 H10144 0.929 . S
C10148 C10150 1.378 . S
C10148 C10152 1.350 . S
C10149 C10152 1.463 . S
C10149 C10154 1.350 . S
C10149 N10157 1.427 . S
C10150 H10141 0.930 . S
C10150 C10148 1.378 . S
C10150 C10151 1.367 . S
C10151 C10150 1.367 . S
C10151 C10153 1.433 . S
C10152 C10148 1.350 . S
C10152 C10149 1.463 . S
C10152 N10156 1.427 . S
C10153 H10143 0.929 . S
C10153 C10151 1.433 . S
C10153 N10156 1.384 . S
C10154 H10145 0.929 . S
C10154 C10146 1.378 . S
C10154 C10149 1.350 . S
C10155 H10142 0.929 . S
C10155 C10147 1.433 . S
C10155 N10157 1.384 . S
N10156 C10152 1.427 . S
N10156 C10153 1.384 . S
N10157 C10149 1.427 . S
N10157 C10155 1.384 . S
H10158 C10164 0.930 . S
H10159 C10168 0.930 . S
H10160 C10173 0.929 . S
H10161 C10171 0.929 . S
H10162 C10166 0.929 . S
H10163 C10172 0.929 . S
C10164 H10158 0.930 . S
C10164 C10165 1.367 . S
C10164 C10172 1.378 . S
C10165 C10164 1.367 . S
C10165 C10173 1.433 . S
C10166 H10162 0.929 . S
C10166 C10168 1.378 . S
C10166 C10170 1.350 . S
C10167 C10170 1.463 . S
C10167 C10172 1.350 . S
C10167 N10175 1.427 . S
C10168 H10159 0.930 . S
C10168 C10166 1.378 . S
C10168 C10169 1.367 . S
C10169 C10168 1.367 . S
C10169 C10171 1.433 . S
C10170 C10166 1.350 . S
C10170 C10167 1.463 . S
C10170 N10174 1.427 . S
C10171 H10161 0.929 . S
C10171 C10169 1.433 . S
C10171 N10174 1.384 . S
C10172 H10163 0.929 . S
C10172 C10164 1.378 . S
C10172 C10167 1.350 . S
C10173 H10160 0.929 . S
C10173 C10165 1.433 . S
C10173 N10175 1.384 . S
N10174 C10170 1.427 . S
N10174 C10171 1.384 . S
N10175 C10167 1.427 . S
N10175 C10173 1.384 . S
C5003 C4144 1.531 . S
C4999 C15 1.551 . S
C5021 C4732 1.532 . S
C5017 C55 1.552 . S
C5039 C4168 1.521 . S
C5035 C95 1.554 . S
C5057 C4708 1.532 . S
C5053 C135 1.553 . S
C5075 C4216 1.529 . S
C5071 C175 1.550 . S
C5089 C215 1.555 . S
C5093 C4756 1.530 . S
C5111 C4192 1.521 . S
C5107 C255 1.552 . S
C5129 C4780 1.527 . S
C5125 C295 1.550 . S
C5147 C4972 1.520 . S
C5143 C335 1.552 . S
C5161 C375 1.550 . S
C5165 C4900 1.528 . S
C5183 C4984 1.524 . S
C5179 C415 1.555 . S
C5197 C455 1.550 . S
C5201 C4960 1.525 . S
C5219 C4924 1.524 . S
C5215 C495 1.556 . S
C5237 C4360 1.528 . S
C5233 C535 1.550 . S
C5255 C4372 1.521 . S
C5251 C575 1.551 . S
C5269 C615 1.554 . S
C5273 C4336 1.521 . S
C5287 C655 1.555 . S
C5291 C4864 1.530 . S
C5309 C4264 1.521 . S
C5305 C695 1.554 . S
C5327 C4804 1.520 . S
C5323 C735 1.553 . S
C5345 C4240 1.521 . S
C5341 C775 1.552 . S
C5359 C815 1.552 . S
C5363 C4252 1.521 . S
C5381 C4888 1.522 . S
C5377 C855 1.550 . S
C5399 C4852 1.530 . S
C5395 C895 1.555 . S
C5413 C935 1.550 . S
C5417 C4876 1.523 . S
C5431 C975 1.555 . S
C5435 C3856 1.530 . S
C5449 C1015 1.555 . S
C5453 C4444 1.539 . S
C5471 C3880 1.534 . S
C5467 C1055 1.554 . S
C5485 C1095 1.557 . S
C5489 C4420 1.532 . S
C5507 C3928 1.536 . S
C5503 C1135 1.554 . S
C5521 C1175 1.554 . S
C5525 C4468 1.537 . S
C5543 C3904 1.539 . S
C5539 C1215 1.558 . S
C5561 C4492 1.539 . S
C5557 C1255 1.555 . S
C5575 C1295 1.556 . S
C5579 C4684 1.530 . S
C5597 C4612 1.539 . S
C5593 C1335 1.558 . S
C5611 C1375 1.558 . S
C5615 C4696 1.532 . S
C5633 C4672 1.535 . S
C5629 C1415 1.558 . S
C5651 C4636 1.530 . S
C5647 C1455 1.556 . S
C5665 C1495 1.558 . S
C5669 C4072 1.533 . S
C5683 C1535 1.554 . S
C5687 C4084 1.532 . S
C5705 C4048 1.532 . S
C5701 C1575 1.554 . S
C5719 C1615 1.557 . S
C5723 C4576 1.532 . S
C5741 C3976 1.530 . S
C5737 C1655 1.555 . S
C5755 C1695 1.556 . S
C5759 C4516 1.530 . S
C5777 C3952 1.531 . S
C5773 C1735 1.557 . S
C5791 C1775 1.558 . S
C5795 C3964 1.537 . S
C5813 C4600 1.533 . S
C5809 C1815 1.554 . S
C5831 C4564 1.534 . S
C5827 C1855 1.554 . S
C5849 C4588 1.530 . S
C5845 C1895 1.556 . S
C5863 C1935 1.551 . S
C5867 C4720 1.531 . S
C5885 C4156 1.521 . S
C5881 C1975 1.554 . S
C5903 C4744 1.523 . S
C5899 C2015 1.555 . S
C5921 C4132 1.527 . S
C5917 C2055 1.556 . S
C5935 C2095 1.553 . S
C5939 C4792 1.532 . S
C5957 C4180 1.521 . S
C5953 C2135 1.551 . S
C5975 C4768 1.529 . S
C5971 C2175 1.551 . S
C5993 C4204 1.521 . S
C5989 C2215 1.554 . S
C6007 C2255 1.553 . S
C6011 C4396 1.520 . S
C6029 C4324 1.522 . S
C6025 C2295 1.555 . S
C6047 C4408 1.521 . S
C6043 C2335 1.551 . S
C6061 C2375 1.554 . S
C6065 C4384 1.532 . S
C6079 C2415 1.551 . S
C6083 C4348 1.522 . S
C6097 C2455 1.550 . S
C6101 C4936 1.528 . S
C6115 C2495 1.555 . S
C6119 C4948 1.529 . S
C6137 C4912 1.529 . S
C6133 C2535 1.555 . S
C6151 C2575 1.551 . S
C6155 C4288 1.522 . S
C6173 C4840 1.531 . S
C6169 C2615 1.552 . S
C6191 C4228 1.531 . S
C6187 C2655 1.551 . S
C6209 C4816 1.524 . S
C6205 C2695 1.555 . S
C6223 C2735 1.554 . S
C6227 C4828 1.532 . S
C6241 C2775 1.551 . S
C6245 C4312 1.531 . S
C6263 C4276 1.532 . S
C6259 C2815 1.552 . S
C6277 C2855 1.553 . S
C6281 C4300 1.532 . S
C6295 C2895 1.558 . S
C6299 C4432 1.537 . S
C6317 C3868 1.531 . S
C6313 C2935 1.554 . S
C6335 C4456 1.537 . S
C6331 C2975 1.558 . S
C6349 C3015 1.555 . S
C6353 C3844 1.539 . S
C6371 C4504 1.530 . S
C6367 C3055 1.556 . S
C6389 C3892 1.530 . S
C6385 C3095 1.554 . S
C6403 C3135 1.554 . S
C6407 C4480 1.532 . S
C6421 C3175 1.554 . S
C6425 C3916 1.530 . S
C6443 C4108 1.540 . S
C6439 C3215 1.556 . S
C6457 C3255 1.556 . S
C6461 C4036 1.539 . S
C6479 C4120 1.538 . S
C6475 C3295 1.555 . S
C6497 C4096 1.539 . S
C6493 C3335 1.556 . S
C6511 C3375 1.554 . S
C6515 C4060 1.533 . S
C6529 C3415 1.556 . S
C6533 C4648 1.539 . S
C6551 C4660 1.535 . S
C6547 C3455 1.558 . S
C6565 C3495 1.558 . S
C6569 C4624 1.535 . S
C6587 C4000 1.534 . S
C6583 C3535 1.554 . S
C6605 C4552 1.538 . S
C6601 C3575 1.558 . S
C6619 C3615 1.557 . S
C6623 C3940 1.530 . S
C6637 C3655 1.557 . S
C6641 C4528 1.531 . S
C6655 C3695 1.558 . S
C6659 C4540 1.534 . S
C6673 C3735 1.558 . S
C6677 C4024 1.535 . S
C6691 C3775 1.554 . S
C6695 C3988 1.532 . S
C6713 C4012 1.530 . S
C6709 C3815 1.556 . S
C6731 C3954 1.523 . S
C6727 C2 1.525 . S
C6749 C3966 1.528 . S
C6745 C42 1.518 . S
C6763 C82 1.522 . S
C6767 C3978 1.519 . S
C6781 C122 1.513 . S
C6785 C3942 1.520 . S
C6799 C162 1.513 . S
C6803 C4026 1.518 . S
C6821 C3990 1.519 . S
C6817 C202 1.513 . S
C6839 C4002 1.526 . S
C6835 C242 1.516 . S
C6853 C282 1.517 . S
C6857 C4014 1.517 . S
C6871 C322 1.516 . S
C6875 C3882 1.517 . S
C6889 C362 1.513 . S
C6893 C3846 1.520 . S
C6907 C402 1.527 . S
C6911 C3858 1.527 . S
C6929 C3870 1.518 . S
C6925 C442 1.513 . S
C6943 C482 1.524 . S
C6947 C3906 1.521 . S
C6961 C522 1.527 . S
C6965 C3918 1.528 . S
C6979 C562 1.516 . S
C6983 C3930 1.526 . S
C6997 C602 1.523 . S
C7001 C3894 1.521 . S
C7019 C4062 1.523 . S
C7015 C642 1.525 . S
C7033 C682 1.521 . S
C7037 C4686 1.519 . S
C7055 C4038 1.517 . S
C7051 C722 1.516 . S
C7073 C4698 1.523 . S
C7069 C762 1.525 . S
C7087 C802 1.524 . S
C7091 C4674 1.522 . S
C7105 C842 1.514 . S
C7109 C4662 1.523 . S
C7127 C4626 1.528 . S
C7123 C882 1.518 . S
C7145 C4650 1.531 . S
C7141 C922 1.526 . S
C7163 C4242 1.554 . S
C7159 C962 1.577 . S
C7181 C4254 1.553 . S
C7177 C1002 1.577 . S
C7199 C4266 1.548 . S
C7195 C1042 1.577 . S
C7213 C1082 1.577 . S
C7217 C4230 1.552 . S
C7231 C1122 1.576 . S
C7235 C4314 1.554 . S
C7253 C4278 1.551 . S
C7249 C1162 1.575 . S
C7267 C1202 1.576 . S
C7271 C4290 1.544 . S
C7289 C4302 1.552 . S
C7285 C1242 1.577 . S
C7303 C1282 1.577 . S
C7307 C4170 1.546 . S
C7325 C4134 1.552 . S
C7321 C1322 1.578 . S
C7339 C1362 1.575 . S
C7343 C4146 1.546 . S
C7361 C4158 1.547 . S
C7357 C1402 1.575 . S
C7379 C4194 1.552 . S
C7375 C1442 1.575 . S
C7393 C1482 1.577 . S
C7397 C4206 1.554 . S
C7415 C4218 1.545 . S
C7411 C1522 1.577 . S
C7433 C4182 1.548 . S
C7429 C1562 1.575 . S
C7451 C4350 1.547 . S
C7447 C1602 1.575 . S
C7469 C4974 1.547 . S
C7465 C1642 1.575 . S
C7487 C4326 1.554 . S
C7483 C1682 1.576 . S
C7501 C1722 1.575 . S
C7505 C4986 1.545 . S
C7519 C1762 1.577 . S
C7523 C4962 1.546 . S
C7541 C4950 1.550 . S
C7537 C1802 1.575 . S
C7559 C4914 1.554 . S
C7555 C1842 1.576 . S
C7577 C4938 1.552 . S
C7573 C1882 1.575 . S
C7591 C1922 1.527 . S
C7595 C4530 1.529 . S
C7613 C4542 1.528 . S
C7609 C1962 1.518 . S
C7627 C2002 1.517 . S
C7631 C4554 1.527 . S
C7649 C4518 1.529 . S
C7645 C2042 1.520 . S
C7663 C2082 1.513 . S
C7667 C4602 1.522 . S
C7681 C2122 1.521 . S
C7685 C4566 1.519 . S
C7699 C2162 1.513 . S
C7703 C4578 1.520 . S
C7717 C2202 1.516 . S
C7721 C4590 1.526 . S
C7735 C2242 1.526 . S
C7739 C4458 1.530 . S
C7757 C4422 1.522 . S
C7753 C2282 1.524 . S
C7775 C4434 1.526 . S
C7771 C2322 1.527 . S
C7789 C2362 1.514 . S
C7793 C4446 1.517 . S
C7807 C2402 1.524 . S
C7811 C4482 1.531 . S
C7825 C2442 1.524 . S
C7829 C4494 1.522 . S
C7843 C2482 1.513 . S
C7847 C4506 1.518 . S
C7861 C2522 1.513 . S
C7865 C4470 1.518 . S
C7883 C4638 1.528 . S
C7879 C2562 1.518 . S
C7901 C4110 1.530 . S
C7897 C2602 1.527 . S
C7919 C4614 1.519 . S
C7915 C2642 1.513 . S
C7937 C4122 1.520 . S
C7933 C2682 1.522 . S
C7955 C4098 1.520 . S
C7951 C2722 1.513 . S
C7973 C4086 1.528 . S
C7969 C2762 1.518 . S
C7987 C2802 1.521 . S
C7991 C4050 1.530 . S
C8009 C4074 1.517 . S
C8005 C2842 1.516 . S
C8023 C2882 1.575 . S
C8027 C4818 1.545 . S
C8041 C2922 1.576 . S
C8045 C4830 1.544 . S
C8063 C4842 1.547 . S
C8059 C2962 1.575 . S
C8077 C3002 1.575 . S
C8081 C4806 1.552 . S
C8099 C4890 1.553 . S
C8095 C3042 1.577 . S
C8113 C3082 1.577 . S
C8117 C4854 1.554 . S
C8131 C3122 1.576 . S
C8135 C4866 1.553 . S
C8153 C4878 1.554 . S
C8149 C3162 1.576 . S
C8171 C4746 1.553 . S
C8167 C3202 1.577 . S
C8189 C4710 1.553 . S
C8185 C3242 1.577 . S
C8207 C4722 1.554 . S
C8203 C3282 1.576 . S
C8225 C4734 1.550 . S
C8221 C3322 1.577 . S
C8239 C3362 1.577 . S
C8243 C4770 1.553 . S
C8261 C4782 1.554 . S
C8257 C3402 1.577 . S
C8275 C3442 1.576 . S
C8279 C4794 1.554 . S
C8293 C3482 1.575 . S
C8297 C4758 1.548 . S
C8311 C3522 1.577 . S
C8315 C4926 1.547 . S
C8329 C3562 1.577 . S
C8333 C4398 1.554 . S
C8347 C3602 1.577 . S
C8351 C4902 1.546 . S
C8369 C4410 1.546 . S
C8365 C3642 1.577 . S
C8383 C3682 1.576 . S
C8387 C4386 1.544 . S
C8401 C3722 1.576 . S
C8405 C4374 1.545 . S
C8419 C3762 1.577 . S
C8423 C4338 1.551 . S
C8441 C4362 1.545 . S
C8437 C3802 1.576 . S
C8455 C21 1.617 . S
C8459 C3849 1.631 . S
C8473 C61 1.627 . S
C8477 C3861 1.632 . S
C8491 C101 1.618 . S
C8495 C3873 1.631 . S
C8513 C3885 1.642 . S
C8509 C141 1.628 . S
C8531 C3897 1.642 . S
C8527 C181 1.624 . S
C8545 C221 1.617 . S
C8549 C3909 1.638 . S
C8563 C261 1.617 . S
C8567 C3921 1.631 . S
C8581 C301 1.619 . S
C8585 C3933 1.640 . S
C8603 C3945 1.641 . S
C8599 C341 1.630 . S
C8621 C3957 1.630 . S
C8617 C381 1.619 . S
C8635 C421 1.621 . S
C8639 C3969 1.629 . S
C8657 C3981 1.630 . S
C8653 C461 1.623 . S
C8671 C501 1.626 . S
C8675 C3993 1.642 . S
C8689 C541 1.630 . S
C8693 C4005 1.638 . S
C8707 C581 1.617 . S
C8711 C4017 1.631 . S
C8725 C621 1.618 . S
C8729 C4029 1.630 . S
C8743 C661 1.628 . S
C8747 C4041 1.633 . S
C8761 C701 1.629 . S
C8765 C4053 1.641 . S
C8783 C4065 1.635 . S
C8779 C741 1.616 . S
C8801 C4077 1.634 . S
C8797 C781 1.629 . S
C8819 C4089 1.635 . S
C8815 C821 1.616 . S
C8837 C4101 1.630 . S
C8833 C861 1.624 . S
C8851 C901 1.619 . S
C8855 C4113 1.630 . S
C8873 C4125 1.640 . S
C8869 C941 1.630 . S
C8887 C981 1.690 . S
C8891 C4137 1.645 . S
C8905 C1021 1.689 . S
C8909 C4149 1.645 . S
C8923 C1061 1.689 . S
C8927 C4161 1.645 . S
C8945 C4173 1.645 . S
C8941 C1101 1.690 . S
C8959 C1141 1.689 . S
C8963 C4185 1.653 . S
C8981 C4197 1.649 . S
C8977 C1181 1.690 . S
C8995 C1221 1.687 . S
C8999 C4209 1.648 . S
C9013 C1261 1.686 . S
C9017 C4221 1.652 . S
C9035 C4233 1.646 . S
C9031 C1301 1.690 . S
C9049 C1341 1.690 . S
C9053 C4245 1.647 . S
C9071 C4257 1.646 . S
C9067 C1381 1.690 . S
C9085 C1421 1.686 . S
C9089 C4269 1.654 . S
C9107 C4281 1.646 . S
C9103 C1461 1.690 . S
C9125 C4293 1.655 . S
C9121 C1501 1.688 . S
C9143 C4305 1.646 . S
C9139 C1541 1.688 . S
C9157 C1581 1.689 . S
C9161 C4317 1.653 . S
C9175 C1621 1.688 . S
C9179 C4329 1.646 . S
C9193 C1661 1.690 . S
C9197 C4341 1.646 . S
C9211 C1701 1.688 . S
C9215 C4353 1.655 . S
C9229 C1741 1.687 . S
C9233 C4365 1.649 . S
C9247 C1781 1.686 . S
C9251 C4377 1.654 . S
C9269 C4389 1.645 . S
C9265 C1821 1.689 . S
C9283 C1861 1.690 . S
C9287 C4401 1.647 . S
C9305 C4413 1.656 . S
C9301 C1901 1.687 . S
C9319 C1941 1.616 . S
C9323 C4425 1.633 . S
C9341 C4437 1.633 . S
C9337 C1981 1.628 . S
C9359 C4449 1.636 . S
C9355 C2021 1.630 . S
C9377 C4461 1.638 . S
C9373 C2061 1.618 . S
C9391 C2101 1.616 . S
C9395 C4473 1.634 . S
C9409 C2141 1.620 . S
C9413 C4485 1.641 . S
C9431 C4497 1.637 . S
C9427 C2181 1.617 . S
C9449 C4509 1.632 . S
C9445 C2221 1.617 . S
C9463 C2261 1.628 . S
C9467 C4521 1.642 . S
C9481 C2301 1.619 . S
C9485 C4533 1.630 . S
C9499 C2341 1.630 . S
C9503 C4545 1.639 . S
C9517 C2381 1.630 . S
C9521 C4557 1.640 . S
C9535 C2421 1.628 . S
C9539 C4569 1.633 . S
C9557 C4581 1.634 . S
C9553 C2461 1.616 . S
C9575 C4593 1.636 . S
C9571 C2501 1.630 . S
C9593 C4605 1.641 . S
C9589 C2541 1.621 . S
C9611 C4617 1.632 . S
C9607 C2581 1.627 . S
C9625 C2621 1.619 . S
C9629 C4629 1.639 . S
C9643 C2661 1.618 . S
C9647 C4641 1.639 . S
C9665 C4653 1.642 . S
C9661 C2701 1.625 . S
C9679 C2741 1.629 . S
C9683 C4665 1.641 . S
C9701 C4677 1.637 . S
C9697 C2781 1.617 . S
C9719 C4689 1.637 . S
C9715 C2821 1.630 . S
C9737 C4701 1.641 . S
C9733 C2861 1.629 . S
C9751 C2901 1.690 . S
C9755 C4713 1.645 . S
C9769 C2941 1.687 . S
C9773 C4725 1.656 . S
C9787 C2981 1.688 . S
C9791 C4737 1.645 . S
C9805 C3021 1.688 . S
C9809 C4749 1.654 . S
C9827 C4761 1.645 . S
C9823 C3061 1.689 . S
C9845 C4773 1.648 . S
C9841 C3101 1.690 . S
C9863 C4785 1.654 . S
C9859 C3141 1.688 . S
C9877 C3181 1.686 . S
C9881 C4797 1.650 . S
C9895 C3221 1.688 . S
C9899 C4809 1.646 . S
C9917 C4821 1.654 . S
C9913 C3261 1.688 . S
C9935 C4833 1.651 . S
C9931 C3301 1.686 . S
C9953 C4845 1.645 . S
C9949 C3341 1.689 . S
C9971 C4857 1.648 . S
C9967 C3381 1.690 . S
C9989 C4869 1.653 . S
C9985 C3421 1.689 . S
C10007 C4881 1.648 . S
C10003 C3461 1.690 . S
C10025 C4893 1.651 . S
C10021 C3501 1.689 . S
C10043 C4905 1.656 . S
C10039 C3541 1.687 . S
C10061 C4917 1.645 . S
C10057 C3581 1.688 . S
C10079 C4929 1.652 . S
C10075 C3621 1.689 . S
C10093 C3661 1.689 . S
C10097 C4941 1.645 . S
C10115 C4953 1.650 . S
C10111 C3701 1.690 . S
C10129 C3741 1.688 . S
C10133 C4965 1.646 . S
C10151 C4977 1.645 . S
C10147 C3781 1.689 . S
C10169 C4989 1.652 . S
C10165 C3821 1.686 . S
