# Generated by pormake.
# Topology pyr, (3,6)-cn, num edge types: 1
# Building blocks:
#     Node 0, Type 0, BuildingBlock: BELTOD_clean_linker_0, # of connection points: 3
#     Node 1, Type 0, BuildingBlock: BELTOD_clean_linker_0, # of connection points: 3
#     Node 2, Type 0, BuildingBlock: BELTOD_clean_linker_0, # of connection points: 3
#     Node 3, Type 0, BuildingBlock: BELTOD_clean_linker_0, # of connection points: 3
#     Node 4, Type 0, BuildingBlock: BELTOD_clean_linker_0, # of connection points: 3
#     Node 5, Type 0, BuildingBlock: BELTOD_clean_linker_0, # of connection points: 3
#     Node 6, Type 0, BuildingBlock: BELTOD_clean_linker_0, # of connection points: 3
#     Node 7, Type 0, BuildingBlock: BELTOD_clean_linker_0, # of connection points: 3
#     Node 8, Type 1, BuildingBlock: LEVNOQ01_clean_sbu_1, # of connection points: 6
#     Node 9, Type 1, BuildingBlock: LEVNOQ01_clean_sbu_1, # of connection points: 6
#     Node 10, Type 1, BuildingBlock: LEVNOQ01_clean_sbu_1, # of connection points: 6
#     Node 11, Type 1, BuildingBlock: LEVNOQ01_clean_sbu_1, # of connection points: 6
#     Edge 12, Type (0, 1), BuildingBlock: TEMPAE_clean_linker_10, # of connection points: 2
#     Edge 13, Type (0, 1), BuildingBlock: TEMPAE_clean_linker_10, # of connection points: 2
#     Edge 14, Type (0, 1), BuildingBlock: TEMPAE_clean_linker_10, # of connection points: 2
#     Edge 15, Type (0, 1), BuildingBlock: TEMPAE_clean_linker_10, # of connection points: 2
#     Edge 16, Type (0, 1), BuildingBlock: TEMPAE_clean_linker_10, # of connection points: 2
#     Edge 17, Type (0, 1), BuildingBlock: TEMPAE_clean_linker_10, # of connection points: 2
#     Edge 18, Type (0, 1), BuildingBlock: TEMPAE_clean_linker_10, # of connection points: 2
#     Edge 19, Type (0, 1), BuildingBlock: TEMPAE_clean_linker_10, # of connection points: 2
#     Edge 20, Type (0, 1), BuildingBlock: TEMPAE_clean_linker_10, # of connection points: 2
#     Edge 21, Type (0, 1), BuildingBlock: TEMPAE_clean_linker_10, # of connection points: 2
#     Edge 22, Type (0, 1), BuildingBlock: TEMPAE_clean_linker_10, # of connection points: 2
#     Edge 23, Type (0, 1), BuildingBlock: TEMPAE_clean_linker_10, # of connection points: 2
#     Edge 24, Type (0, 1), BuildingBlock: TEMPAE_clean_linker_10, # of connection points: 2
#     Edge 25, Type (0, 1), BuildingBlock: TEMPAE_clean_linker_10, # of connection points: 2
#     Edge 26, Type (0, 1), BuildingBlock: TEMPAE_clean_linker_10, # of connection points: 2
#     Edge 27, Type (0, 1), BuildingBlock: TEMPAE_clean_linker_10, # of connection points: 2
#     Edge 28, Type (0, 1), BuildingBlock: TEMPAE_clean_linker_10, # of connection points: 2
#     Edge 29, Type (0, 1), BuildingBlock: TEMPAE_clean_linker_10, # of connection points: 2
#     Edge 30, Type (0, 1), BuildingBlock: TEMPAE_clean_linker_10, # of connection points: 2
#     Edge 31, Type (0, 1), BuildingBlock: TEMPAE_clean_linker_10, # of connection points: 2
#     Edge 32, Type (0, 1), BuildingBlock: TEMPAE_clean_linker_10, # of connection points: 2
#     Edge 33, Type (0, 1), BuildingBlock: TEMPAE_clean_linker_10, # of connection points: 2
#     Edge 34, Type (0, 1), BuildingBlock: TEMPAE_clean_linker_10, # of connection points: 2
#     Edge 35, Type (0, 1), BuildingBlock: TEMPAE_clean_linker_10, # of connection points: 2
# Relax obj value: 0.036
# Max RMSD: 0.108
# Mean RMSD: 0.051
data_MOF--net-pry--node1-LEVNOQ01_clean_sbu_1--node2-BELTOD_clean_linker_0--edge1-TEMPAE_clean_linker_10
_symmetry_space_group_name_H-M    P1
_symmetry_Int_Tables_number       1
_symmetry_cell_setting            triclinic
loop_
_symmetry_equiv_pos_as_xyz
'x, y, z'
_cell_length_a     42.942514
_cell_length_b     41.626231
_cell_length_c     41.062284
_cell_angle_alpha  92.330158
_cell_angle_beta   91.640989
_cell_angle_gamma 94.219882
loop_
_atom_site_label
_atom_site_type_symbol
_atom_site_fract_x
_atom_site_fract_y
_atom_site_fract_z
_atom_type_partial_charge
P0 P 0.15989 0.16915 0.15086 0.0
H1 H 0.21818 0.19056 0.12163 0.0
H2 H 0.25923 0.16169 0.09609 0.0
H3 H 0.20261 0.07205 0.10148 0.0
H4 H 0.1614 0.10125 0.12724 0.0
H5 H 0.1178 0.21706 0.16935 0.0
H6 H 0.08638 0.25225 0.13852 0.0
H7 H 0.11219 0.20511 0.04858 0.0
H8 H 0.14418 0.16991 0.07998 0.0
H9 H 0.1837 0.132 0.20276 0.0
H10 H 0.09315 0.15028 0.16253 0.0
O11 O 0.18134 0.19713 0.17366 0.0
H12 H 0.15885 0.10502 0.24808 0.0
H13 H 0.06811 0.12359 0.20819 0.0
C14 C 0.18706 0.14794 0.12693 0.0
C15 C 0.21441 0.16474 0.11704 0.0
C16 C 0.23791 0.1482 0.10255 0.0
C17 C 0.23436 0.11453 0.09732 0.0
C18 C 0.20601 0.09798 0.10529 0.0
C19 C 0.18252 0.1146 0.12008 0.0
C20 C 0.13329 0.19092 0.127 0.0
C21 C 0.11626 0.21385 0.14302 0.0
C22 C 0.0981 0.23385 0.1253 0.0
C23 C 0.09657 0.23142 0.09101 0.0
C24 C 0.11298 0.20767 0.07494 0.0
C25 C 0.13117 0.18748 0.09285 0.0
C26 C 0.14037 0.14347 0.17948 0.0
C27 C 0.15843 0.12976 0.20342 0.0
C28 C 0.14421 0.11459 0.22943 0.0
C29 C 0.11156 0.11279 0.23203 0.0
C30 C 0.09332 0.12474 0.20689 0.0
C31 C 0.10765 0.14009 0.18082 0.0
P32 P 0.3926 0.90755 0.58478 0.0
H33 H 0.44357 0.95242 0.61215 0.0
H34 H 0.45636 0.97374 0.66765 0.0
H35 H 0.38072 0.91162 0.70329 0.0
H36 H 0.36703 0.89214 0.64772 0.0
H37 H 0.40933 0.8756 0.52412 0.0
H38 H 0.41937 0.81966 0.50946 0.0
H39 H 0.40556 0.79393 0.60895 0.0
H40 H 0.39507 0.84959 0.62361 0.0
H41 H 0.35204 0.95583 0.60796 0.0
H42 H 0.34201 0.86595 0.55107 0.0
O43 O 0.41012 0.93231 0.55884 0.0
H44 H 0.29603 0.96095 0.60183 0.0
H45 H 0.28615 0.87157 0.54377 0.0
C46 C 0.40441 0.92065 0.62588 0.0
C47 C 0.4298 0.94342 0.63198 0.0
C48 C 0.43715 0.95552 0.66378 0.0
C49 C 0.41936 0.94474 0.69003 0.0
C50 C 0.39445 0.9212 0.68369 0.0
C51 C 0.3869 0.90954 0.65193 0.0
C52 C 0.40223 0.867 0.57513 0.0
C53 C 0.40868 0.85803 0.54287 0.0
C54 C 0.41407 0.82613 0.53441 0.0
C55 C 0.41308 0.80289 0.55815 0.0
C56 C 0.40642 0.81171 0.59037 0.0
C57 C 0.40068 0.84354 0.59874 0.0
C58 C 0.35116 0.91036 0.58034 0.0
C59 C 0.33777 0.93713 0.59424 0.0
C60 C 0.30576 0.94012 0.59053 0.0
C61 C 0.28663 0.91669 0.57223 0.0
C62 C 0.30015 0.88977 0.55842 0.0
C63 C 0.3322 0.88668 0.56239 0.0
P64 P 0.66144 0.35219 0.83418 0.0
H65 H 0.72716 0.35086 0.85175 0.0
H66 H 0.76254 0.38582 0.88759 0.0
H67 H 0.68681 0.44395 0.9125 0.0
H68 H 0.65122 0.40906 0.87581 0.0
H69 H 0.62955 0.29143 0.81224 0.0
H70 H 0.59593 0.25158 0.83939 0.0
H71 H 0.60932 0.30815 0.9299 0.0
H72 H 0.6427 0.3483 0.90251 0.0
H73 H 0.67476 0.40694 0.79464 0.0
H74 H 0.59288 0.3502 0.82429 0.0
O75 O 0.68289 0.33334 0.8072 0.0
H76 H 0.64247 0.43296 0.75487 0.0
H77 H 0.56096 0.37584 0.78413 0.0
C78 C 0.68682 0.37772 0.86095 0.0
C79 C 0.71815 0.37123 0.86465 0.0
C80 C 0.73829 0.39117 0.885 0.0
C81 C 0.7272 0.41754 0.90227 0.0
C82 C 0.69567 0.42377 0.89913 0.0
C83 C 0.67552 0.40396 0.87831 0.0
C84 C 0.63907 0.32234 0.85555 0.0
C85 C 0.62547 0.29511 0.83799 0.0
C86 C 0.60602 0.27264 0.85336 0.0
C87 C 0.60009 0.27702 0.8866 0.0
C88 C 0.61375 0.30432 0.90424 0.0
C89 C 0.6329 0.32711 0.88866 0.0
C90 C 0.63632 0.37634 0.81191 0.0
C91 C 0.6498 0.40076 0.79325 0.0
C92 C 0.63145 0.41566 0.77077 0.0
C93 C 0.59957 0.40612 0.76686 0.0
C94 C 0.58558 0.38351 0.78723 0.0
C95 C 0.60392 0.3687 0.80986 0.0
P96 P 0.84965 0.63238 0.38134 0.0
H97 H 0.89237 0.68774 0.37006 0.0
H98 H 0.92527 0.72381 0.4075 0.0
H99 H 0.9048 0.66085 0.48622 0.0
H100 H 0.87293 0.62399 0.44856 0.0
H101 H 0.81807 0.58356 0.33735 0.0
H102 H 0.83497 0.55391 0.28922 0.0
H103 H 0.92869 0.598 0.30598 0.0
H104 H 0.91188 0.62664 0.35458 0.0
H105 H 0.79959 0.65167 0.42155 0.0
H106 H 0.84445 0.56443 0.39891 0.0
O107 O 0.82938 0.6597 0.36319 0.0
H108 H 0.76321 0.62186 0.45596 0.0
H109 H 0.80746 0.53423 0.4329 0.0
C110 C 0.87983 0.65357 0.40663 0.0
C111 C 0.89586 0.68106 0.39506 0.0
C112 C 0.91471 0.70149 0.41635 0.0
C113 C 0.91745 0.69475 0.44948 0.0
C114 C 0.90312 0.66616 0.46065 0.0
C115 C 0.88473 0.64535 0.43914 0.0
C116 C 0.8638 0.60698 0.34966 0.0
C117 C 0.84243 0.58617 0.33109 0.0
C118 C 0.85203 0.56945 0.3035 0.0
C119 C 0.88309 0.57373 0.2938 0.0
C120 C 0.90469 0.59382 0.31313 0.0
C121 C 0.89507 0.6104 0.34085 0.0
C122 C 0.82376 0.60993 0.40683 0.0
C123 C 0.80158 0.62609 0.42405 0.0
C124 C 0.78123 0.60919 0.44411 0.0
C125 C 0.78284 0.57587 0.44716 0.0
C126 C 0.80596 0.55994 0.43092 0.0
C127 C 0.82668 0.57704 0.41119 0.0
P128 P 0.8845 0.89446 0.90674 0.0
H129 H 0.85122 0.89975 0.96735 0.0
H130 H 0.79902 0.91562 0.97999 0.0
H131 H 0.77807 0.92295 0.87709 0.0
H132 H 0.82963 0.90587 0.8647 0.0
H133 H 0.94434 0.86873 0.92055 0.0
H134 H 0.95966 0.81495 0.93239 0.0
H135 H 0.86248 0.77918 0.92835 0.0
H136 H 0.84748 0.83302 0.91561 0.0
H137 H 0.88872 0.95221 0.86899 0.0
H138 H 0.89788 0.85049 0.85143 0.0
O139 O 0.90732 0.92154 0.92922 0.0
H140 H 0.90037 0.9617 0.81193 0.0
H141 H 0.90994 0.85994 0.79463 0.0
C142 C 0.84452 0.90192 0.91517 0.0
C143 C 0.8352 0.9044 0.94753 0.0
C144 C 0.80544 0.91383 0.95471 0.0
C145 C 0.78438 0.92115 0.9296 0.0
C146 C 0.7935 0.91744 0.89708 0.0
C147 C 0.82321 0.90782 0.88995 0.0
C148 C 0.89476 0.85499 0.91784 0.0
C149 C 0.92632 0.84935 0.92256 0.0
C150 C 0.93504 0.81857 0.92941 0.0
C151 C 0.91232 0.79266 0.93154 0.0
C152 C 0.88063 0.79846 0.92663 0.0
C153 C 0.87196 0.82932 0.91967 0.0
C154 C 0.89276 0.90075 0.86456 0.0
C155 C 0.89325 0.93195 0.85286 0.0
C156 C 0.89969 0.93731 0.82026 0.0
C157 C 0.90605 0.91153 0.79888 0.0
C158 C 0.90534 0.88025 0.81065 0.0
C159 C 0.89847 0.87486 0.84316 0.0
P160 P 0.66848 0.17284 0.36572 0.0
H161 H 0.68291 0.23228 0.40454 0.0
H162 H 0.65055 0.26626 0.43752 0.0
H163 H 0.57174 0.19646 0.42022 0.0
H164 H 0.60421 0.1624 0.38766 0.0
H165 H 0.72061 0.13792 0.34467 0.0
H166 H 0.75964 0.10917 0.37425 0.0
H167 H 0.71482 0.12947 0.46468 0.0
H168 H 0.67531 0.15771 0.43508 0.0
H169 H 0.62938 0.18644 0.31002 0.0
H170 H 0.65158 0.10283 0.36227 0.0
O171 O 0.6892 0.19883 0.34343 0.0
H172 H 0.59714 0.15198 0.2707 0.0
H173 H 0.61931 0.06814 0.32297 0.0
C174 C 0.64562 0.19544 0.39293 0.0
C175 C 0.65878 0.22413 0.40826 0.0
C176 C 0.64043 0.24328 0.42736 0.0
C177 C 0.60871 0.23389 0.43123 0.0
C178 C 0.59613 0.20418 0.41741 0.0
C179 C 0.61459 0.1849 0.39861 0.0
C180 C 0.69544 0.15025 0.38774 0.0
C181 C 0.719 0.13593 0.3708 0.0
C182 C 0.7411 0.11948 0.38758 0.0
C183 C 0.7399 0.11734 0.4215 0.0
C184 C 0.71595 0.131 0.43846 0.0
C185 C 0.69357 0.14718 0.42157 0.0
C186 C 0.64349 0.14707 0.33841 0.0
C187 C 0.62715 0.16065 0.31308 0.0
C188 C 0.60846 0.14097 0.29089 0.0
C189 C 0.60579 0.10733 0.29375 0.0
C190 C 0.62121 0.09394 0.32003 0.0
C191 C 0.63976 0.11373 0.34237 0.0
P192 P 0.39677 0.61742 0.11664 0.0
H193 H 0.36586 0.60247 0.05357 0.0
H194 H 0.31167 0.58621 0.03717 0.0
H195 H 0.28813 0.58073 0.13859 0.0
H196 H 0.34191 0.59796 0.15472 0.0
H197 H 0.45077 0.65959 0.10043 0.0
H198 H 0.45772 0.71775 0.09338 0.0
H199 H 0.35898 0.72525 0.1063 0.0
H200 H 0.35221 0.66717 0.11345 0.0
H201 H 0.41582 0.56514 0.15579 0.0
H202 H 0.39053 0.66282 0.17237 0.0
O203 O 0.42257 0.59691 0.09636 0.0
H204 H 0.42081 0.5594 0.21483 0.0
H205 H 0.3955 0.6571 0.23114 0.0
C206 C 0.35798 0.60109 0.10524 0.0
C207 C 0.34907 0.5973 0.0722 0.0
C208 C 0.31812 0.58792 0.0629 0.0
C209 C 0.29558 0.58219 0.0866 0.0
C210 C 0.30484 0.58535 0.11976 0.0
C211 C 0.33575 0.59491 0.129 0.0
C212 C 0.40093 0.65906 0.10673 0.0
C213 C 0.43056 0.67368 0.10111 0.0
C214 C 0.43449 0.70687 0.09719 0.0
C215 C 0.40885 0.72595 0.09936 0.0
C216 C 0.37914 0.71113 0.10477 0.0
C217 C 0.37521 0.67791 0.10842 0.0
C218 C 0.40361 0.6146 0.15969 0.0
C219 C 0.41188 0.58548 0.17207 0.0
C220 C 0.41458 0.58221 0.20568 0.0
C221 C 0.4086 0.60792 0.22731 0.0
C222 C 0.40008 0.63697 0.21487 0.0
C223 C 0.39758 0.64028 0.18127 0.0
P224 P 0.13579 0.37389 0.63027 0.0
H225 H 0.15169 0.3272 0.58119 0.0
H226 H 0.12121 0.28305 0.55164 0.0
H227 H 0.03674 0.31556 0.59244 0.0
H228 H 0.06729 0.3607 0.62078 0.0
H229 H 0.19523 0.40766 0.64854 0.0
H230 H 0.23593 0.43437 0.61646 0.0
H231 H 0.17573 0.42134 0.53029 0.0
H232 H 0.13461 0.39491 0.56257 0.0
H233 H 0.0932 0.35492 0.68023 0.0
H234 H 0.13284 0.44392 0.6429 0.0
O235 O 0.15728 0.35091 0.65292 0.0
H236 H 0.07468 0.38488 0.72741 0.0
H237 H 0.11465 0.47377 0.69057 0.0
C238 C 0.11179 0.34676 0.60355 0.0
C239 C 0.1265 0.32535 0.58304 0.0
C240 C 0.10909 0.30009 0.5663 0.0
C241 C 0.0767 0.29552 0.57032 0.0
C242 C 0.06166 0.31852 0.5889 0.0
C243 C 0.07917 0.34411 0.60542 0.0
C244 C 0.16243 0.39862 0.60764 0.0
C245 C 0.19055 0.41106 0.62289 0.0
C246 C 0.21362 0.42637 0.6047 0.0
C247 C 0.20866 0.4295 0.57115 0.0
C248 C 0.17974 0.41905 0.55623 0.0
C249 C 0.1565 0.40384 0.57457 0.0
C250 C 0.11446 0.39717 0.65825 0.0
C251 C 0.09699 0.38097 0.68163 0.0
C252 C 0.08652 0.39799 0.70851 0.0
C253 C 0.09358 0.43134 0.71229 0.0
C254 C 0.10898 0.448 0.68776 0.0
C255 C 0.11938 0.43092 0.66069 0.0
O256 O 0.01675 -0.00245 0.59105 0.0
Mg257 Mg 0.0371 0.02518 0.55504 0.0
O258 O 0.97999 0.97604 0.55658 0.0
Mg259 Mg -0.00136 0.99453 0.50639 0.0
O260 O 0.00776 0.04822 0.52597 0.0
O261 O 0.03693 0.07198 0.56802 0.0
O262 O 0.01929 0.01845 0.45767 0.0
O263 O 0.94971 0.01196 0.49745 0.0
Mg264 Mg 0.98226 0.97064 0.45036 0.0
O265 O 0.98394 0.94021 0.48832 0.0
O266 O 0.02284 0.97711 0.42404 0.0
O267 O 0.94668 0.00311 0.44454 0.0
O268 O 0.96315 0.92667 0.4383 0.0
C269 C 0.07553 0.9854 0.52452 0.0
C270 C 0.99159 0.98022 0.58561 0.0
C271 C 0.01739 0.07371 0.54382 0.0
C272 C 0.02972 0.0064 0.43136 0.0
C273 C 0.93591 0.01522 0.47019 0.0
C274 C 0.97125 0.91863 0.46712 0.0
O275 O 0.0794 0.0136 0.53691 0.0
O276 O 0.04813 0.97381 0.5157 0.0
O277 O 0.45184 0.03708 0.05414 0.0
Mg278 Mg 0.49358 0.04813 0.02872 0.0
O279 O 0.44341 0.00922 0.00888 0.0
Mg280 Mg 0.49684 0.00262 0.00179 0.0
O281 O 0.50563 0.05696 0.98192 0.0
O282 O 0.48222 0.09121 0.0148 0.0
O283 O 0.55077 0.99398 0.99124 0.0
O284 O 0.48131 0.99122 0.94648 0.0
Mg285 Mg 0.50465 0.93065 0.98017 0.0
O286 O 0.48451 0.95144 0.01864 0.0
O287 O 0.55255 0.94109 0.9825 0.0
O288 O 0.48093 0.93849 0.93663 0.0
O289 O 0.48598 0.89811 0.01105 0.0
C290 C 0.53089 0.03313 0.07317 0.0
C291 C 0.43276 0.0217 0.03451 0.0
C292 C 0.49615 0.08556 0.98822 0.0
C293 C 0.56622 0.96904 0.98593 0.0
C294 C 0.47567 0.96627 0.92735 0.0
C295 C 0.47758 0.92254 0.0281 0.0
O296 O 0.53272 0.05892 0.05838 0.0
O297 O 0.51443 0.00901 0.05979 0.0
O298 O 0.50679 0.58212 0.53689 0.0
Mg299 Mg 0.48127 0.53988 0.54994 0.0
O300 O 0.47927 0.56297 0.49473 0.0
Mg301 Mg 0.49211 0.50866 0.49238 0.0
O302 O 0.50442 0.4997 0.54674 0.0
O303 O 0.49456 0.52612 0.59402 0.0
O304 O 0.50337 0.45466 0.48497 0.0
O305 O 0.54431 0.52333 0.48856 0.0
Mg306 Mg 0.51695 0.49141 0.41849 0.0
O307 O 0.48301 0.51479 0.43971 0.0
O308 O 0.50884 0.44352 0.43196 0.0
O309 O 0.5598 0.51413 0.43786 0.0
O310 O 0.4869 0.51249 0.38633 0.0
C311 C 0.42229 0.50698 0.51804 0.0
C312 C 0.49091 0.58729 0.51176 0.0
C313 C 0.50653 0.50283 0.57828 0.0
C314 C 0.50745 0.43476 0.46118 0.0
C315 C 0.56535 0.52379 0.46735 0.0
C316 C 0.47258 0.52215 0.41165 0.0
O317 O 0.43288 0.52872 0.53893 0.0
O318 O 0.44028 0.49368 0.49826 0.0
O319 O 0.04549 0.46753 0.05307 0.0
Mg320 Mg 0.02993 0.51537 0.05834 0.0
O321 O 0.0072 0.45379 0.01758 0.0
Mg322 Mg -0.00054 0.50662 0.00617 0.0
O323 O 0.98346 0.51898 0.06012 0.0
O324 O 0.01668 0.52333 0.104 0.0
O325 O 0.99165 0.55926 0.99379 0.0
O326 O 0.94451 0.49469 0.00786 0.0
Mg327 Mg 0.96835 0.49708 0.95581 0.0
O328 O 0.01485 0.49333 0.95203 0.0
O329 O 0.95297 0.54508 0.95858 0.0
O330 O 0.94174 0.45607 0.97107 0.0
O331 O 0.97962 0.48675 0.90999 0.0
C332 C 0.06918 0.54356 0.02126 0.0
C333 C 0.02955 0.44584 0.03586 0.0
C334 C 0.98893 0.52373 0.09132 0.0
C335 C 0.96944 0.56684 0.97508 0.0
C336 C 0.92945 0.46999 0.99456 0.0
C337 C 0.00793 0.48701 0.92129 0.0
O338 O 0.05555 0.55732 0.04389 0.0
O339 O 0.05464 0.51907 0.00681 0.0
C340 C 0.10996 0.11093 0.29269 0.0
C341 C 0.09714 0.10033 0.26197 0.0
C342 C 0.09806 0.09848 0.32142 0.0
C343 C 0.07277 0.07464 0.31951 0.0
C344 C 0.05893 0.06462 0.28861 0.0
C345 C 0.07121 0.07772 0.26017 0.0
C346 C 0.11335 0.11003 0.35378 0.0
C347 C 0.03177 0.03941 0.28555 0.0
C348 C 0.06695 0.01458 0.38673 0.0
C349 C 0.0438 0.02665 0.40614 0.0
C350 C 0.07688 0.03032 0.35886 0.0
C351 C 0.06269 0.05837 0.34961 0.0
C352 C 0.03949 0.0709 0.36935 0.0
C353 C 0.03062 0.05511 0.39771 0.0
C354 C 0.10208 0.01645 0.33887 0.0
C355 C 0.02332 0.10031 0.35995 0.0
H356 H 0.12957 0.12894 0.29424 0.0
H357 H 0.06116 0.06955 0.23649 0.0
H358 H 0.09556 0.11801 0.37078 0.0
H359 H 0.12462 0.08986 0.36505 0.0
H360 H 0.13134 0.13029 0.35127 0.0
H361 H 0.0228 0.03527 0.25996 0.0
H362 H 0.03902 0.01625 0.2946 0.0
H363 H 0.01244 0.04682 0.30087 0.0
H364 H 0.07687 0.99236 0.39306 0.0
H365 H 0.01214 0.064 0.41227 0.0
H366 H 0.1216 0.03503 0.33609 0.0
H367 H 0.09259 0.00907 0.31406 0.0
H368 H 0.11153 0.99519 0.35005 0.0
H369 H 0.04067 0.12129 0.35872 0.0
H370 H 0.00522 0.10653 0.37746 0.0
H371 H 0.01208 0.09613 0.33533 0.0
C372 C 0.458 0.96329 0.73531 0.0
C373 C 0.42686 0.9573 0.72405 0.0
C374 C 0.46527 0.97124 0.76833 0.0
C375 C 0.44087 0.9726 0.79071 0.0
C376 C 0.40942 0.96872 0.77917 0.0
C377 C 0.40281 0.96147 0.74595 0.0
C378 C 0.49914 0.97563 0.77963 0.0
C379 C 0.38273 0.96977 0.80226 0.0
C380 C 0.45882 0.94062 0.87334 0.0
C381 C 0.46453 0.96891 0.8931 0.0
C382 C 0.45088 0.94173 0.84023 0.0
C383 C 0.44817 0.97191 0.82625 0.0
C384 C 0.45291 0.00065 0.84606 0.0
C385 C 0.46115 -0.00116 0.87937 0.0
C386 C 0.44605 0.91043 0.82004 0.0
C387 C 0.45001 0.03321 0.83191 0.0
H388 H 0.47682 0.96013 0.71872 0.0
H389 H 0.37866 0.95796 0.73733 0.0
H390 H 0.5031 0.9966 0.79719 0.0
H391 H 0.50551 0.95394 0.79239 0.0
H392 H 0.51498 0.97919 0.75895 0.0
H393 H 0.35976 0.9699 0.78913 0.0
H394 H 0.38223 0.94832 0.81748 0.0
H395 H 0.38602 0.99142 0.81899 0.0
H396 H 0.46114 0.9173 0.88359 0.0
H397 H 0.46549 0.02079 0.89443 0.0
H398 H 0.46351 0.91 0.80065 0.0
H399 H 0.42255 0.90842 0.80787 0.0
H400 H 0.44829 0.88896 0.8349 0.0
H401 H 0.46858 0.03775 0.81406 0.0
H402 H 0.45207 0.05305 0.85096 0.0
H403 H 0.42725 0.03375 0.81854 0.0
C404 C 0.58634 0.39631 0.7087 0.0
C405 C 0.58292 0.41467 0.73745 0.0
C406 C 0.57371 0.40554 0.67914 0.0
C407 C 0.5574 0.43375 0.67874 0.0
C408 C 0.55285 0.4517 0.70811 0.0
C409 C 0.5659 0.44192 0.73737 0.0
C410 C 0.57914 0.38604 0.64827 0.0
C411 C 0.53525 0.48183 0.7084 0.0
C412 C 0.55315 0.48602 0.60666 0.0
C413 C 0.52188 0.47949 0.5969 0.0
C414 C 0.56599 0.46919 0.63189 0.0
C415 C 0.54667 0.44588 0.64753 0.0
C416 C 0.51581 0.43739 0.63566 0.0
C417 C 0.50365 0.45456 0.61032 0.0
C418 C 0.59921 0.47843 0.64366 0.0
C419 C 0.49475 0.4124 0.65157 0.0
H420 H 0.59977 0.37525 0.70929 0.0
H421 H 0.56356 0.4559 0.75991 0.0
H422 H 0.55724 0.38173 0.63325 0.0
H423 H 0.59636 0.39972 0.6335 0.0
H424 H 0.58827 0.36242 0.65345 0.0
H425 H 0.53192 0.4916 0.73354 0.0
H426 H 0.54824 0.50068 0.69473 0.0
H427 H 0.51199 0.47676 0.69604 0.0
H428 H 0.56685 0.5057 0.59611 0.0
H429 H 0.4793 0.45006 0.60256 0.0
H430 H 0.61178 0.45666 0.64835 0.0
H431 H 0.59904 0.49283 0.66699 0.0
H432 H 0.61236 0.49302 0.62581 0.0
H433 H 0.5073 0.39067 0.65653 0.0
H434 H 0.47349 0.40503 0.63623 0.0
H435 H 0.48735 0.42248 0.67531 0.0
C436 C 0.8733 0.56245 0.23408 0.0
C437 C 0.89236 0.55996 0.26207 0.0
C438 C 0.88366 0.55388 0.20311 0.0
C439 C 0.91376 0.54266 0.20021 0.0
C440 C 0.93237 0.53834 0.22851 0.0
C441 C 0.9214 0.54704 0.25916 0.0
C442 C 0.86326 0.5587 0.17342 0.0
C443 C 0.96462 0.5263 0.22631 0.0
C444 C 0.94401 0.50454 0.12336 0.0
C445 C 0.96377 0.53009 0.1131 0.0
C446 C 0.92573 0.5087 0.15077 0.0
C447 C 0.92751 0.5391 0.16777 0.0
C448 C 0.94566 0.56554 0.15569 0.0
C449 C 0.96388 0.56056 0.12856 0.0
C450 C 0.90667 0.48002 0.16302 0.0
C451 C 0.94792 0.59843 0.17291 0.0
H452 H 0.85094 0.57272 0.23618 0.0
H453 H 0.93596 0.54466 0.28081 0.0
H454 H 0.87411 0.57843 0.15919 0.0
H455 H 0.86123 0.53657 0.15727 0.0
H456 H 0.83944 0.56492 0.17997 0.0
H457 H 0.9749 0.52164 0.25065 0.0
H458 H 0.96383 0.50376 0.21085 0.0
H459 H 0.98037 0.5445 0.21467 0.0
H460 H 0.94454 0.48087 0.11143 0.0
H461 H 0.9796 0.58006 0.1205 0.0
H462 H 0.88324 0.48679 0.1702 0.0
H463 H 0.91853 0.47142 0.18503 0.0
H464 H 0.90378 0.45979 0.14443 0.0
H465 H 0.92434 0.60589 0.17858 0.0
H466 H 0.95989 0.61712 0.15814 0.0
H467 H 0.96123 0.59746 0.19638 0.0
C468 C 0.25709 0.07294 0.06051 0.0
C469 C 0.26107 0.09682 0.0857 0.0
C470 C 0.28265 0.05675 0.04927 0.0
C471 C 0.31274 0.0644 0.06384 0.0
C472 C 0.31667 0.08808 0.08969 0.0
C473 C 0.29086 0.10399 0.1002 0.0
C474 C 0.27758 0.03181 0.02156 0.0
C475 C 0.34828 0.09697 0.10602 0.0
C476 C 0.38101 0.01135 0.05974 0.0
C477 C 0.39947 0.02711 0.03689 0.0
C478 C 0.35134 0.02158 0.06686 0.0
C479 C 0.34061 0.04886 0.05158 0.0
C480 C 0.35879 0.06383 0.0274 0.0
C481 C 0.38791 0.05255 0.02016 0.0
C482 C 0.33239 0.00452 0.09224 0.0
C483 C 0.34866 0.09332 0.01096 0.0
H484 H 0.23411 0.06741 0.04917 0.0
H485 H 0.29396 0.12204 0.12005 0.0
H486 H 0.2911 0.03971 0.00031 0.0
H487 H 0.2863 0.00863 0.02886 0.0
H488 H 0.25257 0.0276 0.0138 0.0
H489 H 0.34722 0.1153 0.12632 0.0
H490 H 0.358 0.07524 0.11583 0.0
H491 H 0.36479 0.10666 0.0879 0.0
H492 H 0.39027 0.99189 0.07289 0.0
H493 H 0.40262 0.06503 0.00292 0.0
H494 H 0.30764 5e-05 0.08371 0.0
H495 H 0.33281 0.02 0.11491 0.0
H496 H 0.34164 0.98115 0.09818 0.0
H497 H 0.32442 0.08891 0.0009 0.0
H498 H 0.36421 0.10054 0.99093 0.0
H499 H 0.34888 0.1138 0.02917 0.0
C500 C 0.23032 0.8954 0.56637 0.0
C501 C 0.2531 0.92136 0.566 0.0
C502 C 0.19871 0.89976 0.55945 0.0
C503 C 0.18986 0.93077 0.55199 0.0
C504 C 0.21271 0.95709 0.55206 0.0
C505 C 0.24401 0.95201 0.55884 0.0
C506 C 0.17491 0.87124 0.55985 0.0
C507 C 0.20413 0.99074 0.54495 0.0
C508 C 0.11726 0.95104 0.50524 0.0
C509 C 0.10055 0.96415 0.5306 0.0
C510 C 0.14541 0.93703 0.5121 0.0
C511 C 0.15674 0.93656 0.54488 0.0
C512 C 0.13828 0.94723 0.57055 0.0
C513 C 0.11039 0.96095 0.56302 0.0
C514 C 0.16432 0.92527 0.48423 0.0
C515 C 0.14933 0.94714 0.6058 0.0
H516 H 0.23718 0.87173 0.57227 0.0
H517 H 0.26151 0.97206 0.55797 0.0
H518 H 0.15525 0.87693 0.57551 0.0
H519 H 0.16499 0.86571 0.53484 0.0
H520 H 0.18519 0.84939 0.5688 0.0
H521 H 0.2247 0.00862 0.54651 0.0
H522 H 0.19323 0.9909 0.52015 0.0
H523 H 0.18675 -0.00139 0.5625 0.0
H524 H 0.10944 0.95359 0.4802 0.0
H525 H 0.09707 0.97099 0.58253 0.0
H526 H 0.17347 0.90175 0.48958 0.0
H527 H 0.18471 0.94273 0.48105 0.0
H528 H 0.15038 0.92263 0.46094 0.0
H529 H 0.15856 0.92373 0.61139 0.0
H530 H 0.13036 0.95187 0.62281 0.0
H531 H 0.16864 0.96615 0.61044 0.0
C532 C 0.74755 0.43479 0.95781 0.0
C533 C 0.7491 0.43745 0.92404 0.0
C534 C 0.77338 0.44512 0.97825 0.0
C535 C 0.80101 0.45814 0.96424 0.0
C536 C 0.80109 0.46433 0.93054 0.0
C537 C 0.77506 0.45366 0.91077 0.0
C538 C 0.77223 0.43878 0.0141 0.0
C539 C 0.82991 0.47856 0.91457 0.0
C540 C 0.87736 0.49002 0.00521 0.0
C541 C 0.89555 0.46415 -0.00191 0.0
C542 C 0.84522 0.4876 -0.00268 0.0
C543 C 0.83139 0.45863 0.98232 0.0
C544 C 0.849 0.43127 0.97903 0.0
C545 C 0.88096 0.4344 0.98702 0.0
C546 C 0.82707 0.51706 0.00167 0.0
C547 C 0.83506 0.39973 0.96345 0.0
H548 H 0.72728 0.42212 0.96785 0.0
H549 H 0.77593 0.45568 0.88454 0.0
H550 H 0.78347 0.41619 0.01879 0.0
H551 H 0.78518 0.45856 0.02894 0.0
H552 H 0.74779 0.43596 0.02231 0.0
H553 H 0.82453 0.48656 0.88968 0.0
H554 H 0.84094 0.49942 0.9294 0.0
H555 H 0.84724 0.4601 0.91261 0.0
H556 H 0.88861 0.51308 0.0139 0.0
H557 H 0.89503 0.4143 0.98193 0.0
H558 H 0.8029 0.51043 0.00914 0.0
H559 H 0.82549 0.52909 0.97812 0.0
H560 H 0.83862 0.53467 0.02008 0.0
H561 H 0.8123 0.39259 0.97415 0.0
H562 H 0.85074 0.3799 0.96638 0.0
H563 H 0.83078 0.40262 0.93697 0.0
C564 C 0.73868 0.5344 0.44398 0.0
C565 C 0.75717 0.55764 0.46281 0.0
C566 C 0.70852 0.52467 0.45332 0.0
C567 C 0.69709 0.53828 0.48239 0.0
C568 C 0.71739 0.55802 0.50377 0.0
C569 C 0.74725 0.56795 0.49345 0.0
C570 C 0.68765 0.50328 0.42993 0.0
C571 C 0.70642 0.57156 0.53571 0.0
C572 C 0.61436 0.55816 0.46601 0.0
C573 C 0.59781 0.53136 0.47792 0.0
C574 C 0.64683 0.56217 0.47017 0.0
C575 C 0.6629 0.53818 0.48582 0.0
C576 C 0.64593 0.51214 0.49991 0.0
C577 C 0.6133 0.50907 0.49582 0.0
C578 C 0.66404 0.59074 0.4554 0.0
C579 C 0.66213 0.48621 0.51689 0.0
H580 H 0.74645 0.52647 0.42027 0.0
H581 H 0.76191 0.58562 0.50817 0.0
H582 H 0.67427 0.48439 0.44314 0.0
H583 H 0.67055 0.51801 0.41782 0.0
H584 H 0.70112 0.49143 0.41076 0.0
H585 H 0.72639 0.58037 0.55231 0.0
H586 H 0.69206 0.59209 0.53105 0.0
H587 H 0.6916 0.55312 0.54809 0.0
H588 H 0.602 0.57517 0.45218 0.0
H589 H 0.60014 0.48813 0.50471 0.0
H590 H 0.67731 0.58233 0.43429 0.0
H591 H 0.68107 0.6031 0.47342 0.0
H592 H 0.64792 0.60856 0.44688 0.0
H593 H 0.66918 0.46816 0.49843 0.0
H594 H 0.64641 0.47346 0.53397 0.0
H595 H 0.68354 0.4963 0.53054 0.0
C596 C 0.09484 0.27145 0.04695 0.0
C597 C 0.08026 0.25582 0.07274 0.0
C598 C 0.08337 0.29949 0.03466 0.0
C599 C 0.05694 0.3123 0.04871 0.0
C600 C 0.04033 0.29472 0.07232 0.0
C601 C 0.05213 0.26664 0.08395 0.0
C602 C 0.1013 0.31697 0.00881 0.0
C603 C 0.01176 0.30715 0.08762 0.0
C604 C 0.059 0.4032 0.06115 0.0
C605 C 0.03682 0.4116 0.03788 0.0
C606 C 0.06586 0.37109 0.06444 0.0
C607 C 0.05041 0.3465 0.04375 0.0
C608 C 0.02837 0.35474 0.01973 0.0
C609 C 0.02176 0.38723 0.01712 0.0
C610 C 0.08937 0.36344 0.09058 0.0
C611 C 0.01189 0.32933 0.9968 0.0
H612 H 0.11651 0.26323 0.03799 0.0
H613 H 0.04025 0.25417 0.10325 0.0
H614 H 0.08515 0.32649 0.99063 0.0
H615 H 0.11571 0.33781 0.02037 0.0
H616 H 0.11708 0.30107 0.99594 0.0
H617 H -0.00106 0.28853 0.10179 0.0
H618 H 0.01897 0.32816 0.10435 0.0
H619 H -0.00441 0.31545 0.06872 0.0
H620 H 0.07082 0.42176 0.07729 0.0
H621 H 0.00479 0.39352 -0.00115 0.0
H622 H 0.10869 0.35101 0.07946 0.0
H623 H 0.07807 0.34687 0.10796 0.0
H624 H 0.09951 0.38538 0.10448 0.0
H625 H 0.02918 0.31842 0.98103 0.0
H626 H 0.99388 0.33933 0.98097 0.0
H627 H 0.00056 0.30964 0.01072 0.0
C628 C 0.59247 0.23804 0.9304 0.0
C629 C 0.58067 0.25221 0.90279 0.0
C630 C 0.57613 0.21149 0.94351 0.0
C631 C 0.54732 0.19913 0.9286 0.0
C632 C 0.53451 0.21455 0.90182 0.0
C633 C 0.5515 0.24088 0.88904 0.0
C634 C 0.59035 0.19591 0.97241 0.0
C635 C 0.50337 0.20263 0.88605 0.0
C636 C 0.5254 0.11098 0.94265 0.0
C637 C 0.50509 0.11349 0.96852 0.0
C638 C 0.53834 0.13882 0.92837 0.0
C639 C 0.53103 0.1696 0.94065 0.0
C640 C 0.50939 0.17216 0.96564 0.0
C641 C 0.49634 0.14409 0.9789 0.0
C642 C 0.56097 0.13541 0.90121 0.0
C643 C 0.50149 0.20455 0.97984 0.0
H644 H 0.61513 0.24684 0.94086 0.0
H645 H 0.54231 0.25228 0.86791 0.0
H646 H 0.57283 0.19174 0.99141 0.0
H647 H 0.59813 0.17207 0.96448 0.0
H648 H 0.61079 0.21078 0.98348 0.0
H649 H 0.49585 0.21856 0.86671 0.0
H650 H 0.50488 0.17801 0.87511 0.0
H651 H 0.48512 0.20104 0.90462 0.0
H652 H 0.53217 0.08748 0.93447 0.0
H653 H 0.48044 0.14639 -0.00125 0.0
H654 H 0.58458 0.14553 0.90968 0.0
H655 H 0.55383 0.14934 0.88012 0.0
H656 H 0.56248 0.10987 0.89286 0.0
H657 H 0.5225 0.21684 0.99256 0.0
H658 H 0.48245 0.20232 -0.00244 0.0
H659 H 0.49438 0.22029 0.96023 0.0
C660 C 0.90839 0.74077 0.48631 0.0
C661 C 0.92972 0.72082 0.47245 0.0
C662 C 0.91789 0.77249 0.49673 0.0
C663 C 0.94947 0.78391 0.49348 0.0
C664 C 0.97186 0.76195 0.48491 0.0
C665 C 0.96156 0.73062 0.4736 0.0
C666 C 0.89321 0.79501 0.50568 0.0
C667 C 0.00597 0.77288 0.4828 0.0
C668 C 0.95796 0.86159 0.44967 0.0
C669 C 0.96663 0.88437 0.47496 0.0
C670 C 0.95282 0.82896 0.45561 0.0
C671 C 0.95655 0.81857 0.48782 0.0
C672 C 0.96583 0.84124 0.51356 0.0
C673 C 0.97069 0.87409 0.50682 0.0
C674 C 0.94305 0.80572 0.42718 0.0
C675 C 0.97002 0.83108 0.54816 0.0
H676 H 0.88371 0.73293 0.48526 0.0
H677 H 0.97797 0.71493 0.46296 0.0
H678 H 0.90191 0.81265 0.52539 0.0
H679 H 0.88712 0.80872 0.48404 0.0
H680 H 0.87158 0.78164 0.51361 0.0
H681 H 0.02088 0.75224 0.48417 0.0
H682 H 0.00991 0.78433 0.45918 0.0
H683 H 0.01332 0.79098 0.50265 0.0
H684 H 0.95508 0.86923 0.42491 0.0
H685 H 0.97735 0.89165 0.52648 0.0
H686 H 0.92037 0.79248 0.4319 0.0
H687 H 0.96061 0.78768 0.42402 0.0
H688 H 0.94059 0.81806 0.40386 0.0
H689 H 0.94682 0.82761 0.55922 0.0
H690 H 0.98437 0.84963 0.56336 0.0
H691 H 0.98113 0.80788 0.54894 0.0
C692 C 0.39971 0.74891 0.53078 0.0
C693 C 0.42071 0.76984 0.54959 0.0
C694 C 0.40743 0.71763 0.52181 0.0
C695 C 0.43704 0.70769 0.5314 0.0
C696 C 0.45817 0.72891 0.55057 0.0
C697 C 0.44961 0.75973 0.55963 0.0
C698 C 0.38392 0.69518 0.50247 0.0
C699 C 0.4899 0.71911 0.56143 0.0
C700 C 0.45504 0.62128 0.53992 0.0
C701 C 0.47377 0.61639 0.51307 0.0
C702 C 0.44097 0.65016 0.54495 0.0
C703 C 0.44597 0.6748 0.5226 0.0
C704 C 0.46311 0.6691 0.49414 0.0
C705 C 0.47683 0.63965 0.48958 0.0
C706 C 0.42264 0.65498 0.57541 0.0
C707 C 0.46842 0.6948 0.46961 0.0
H708 H 0.37725 0.75698 0.52334 0.0
H709 H 0.46568 0.7762 0.57416 0.0
H710 H 0.39424 0.68649 0.47958 0.0
H711 H 0.37759 0.67366 0.51665 0.0
H712 H 0.36224 0.70692 0.49627 0.0
H713 H 0.50371 0.73869 0.5758 0.0
H714 H 0.48718 0.69768 0.57659 0.0
H715 H 0.50333 0.71227 0.53985 0.0
H716 H 0.4523 0.60276 0.55769 0.0
H717 H 0.49101 0.63543 0.46863 0.0
H718 H 0.40061 0.66623 0.56976 0.0
H719 H 0.43661 0.6715 0.59304 0.0
H720 H 0.41689 0.63192 0.58739 0.0
H721 H 0.44582 0.70374 0.46172 0.0
H722 H 0.48037 0.68587 0.44776 0.0
H723 H 0.48292 0.71562 0.48111 0.0
C724 C 0.89677 0.93678 0.74538 0.0
C725 C 0.91452 0.91749 0.76474 0.0
C726 C 0.90584 0.94431 0.71381 0.0
C727 C 0.93356 0.93263 0.70155 0.0
C728 C 0.95105 0.91237 0.72069 0.0
C729 C 0.94121 0.90489 0.75197 0.0
C730 C 0.88649 0.96588 0.69413 0.0
C731 C 0.98114 0.90006 0.70888 0.0
C732 C 0.95422 0.94024 0.61214 0.0
C733 C 0.97509 0.96781 0.61421 0.0
C734 C 0.94005 0.92851 0.64033 0.0
C735 C 0.94664 0.94511 0.67092 0.0
C736 C 0.96697 0.97345 0.67276 0.0
C737 C 0.98098 0.98427 0.64454 0.0
C738 C 0.91856 0.89814 0.63756 0.0
C739 C 0.9744 0.99221 0.7047 0.0
H740 H 0.87594 0.94628 0.7551 0.0
H741 H 0.95516 0.89024 0.76702 0.0
H742 H 0.89999 0.98925 0.69096 0.0
H743 H 0.88102 0.95474 0.66943 0.0
H744 H 0.86427 0.9707 0.70595 0.0
H745 H 0.99042 0.88221 0.72529 0.0
H746 H 0.97759 0.88875 0.684 0.0
H747 H -0.00097 0.92057 0.70747 0.0
H748 H 0.9496 0.92747 0.58876 0.0
H749 H -0.00334 0.00596 0.64629 0.0
H750 H 0.89546 0.90285 0.6474 0.0
H751 H 0.92828 0.87934 0.65242 0.0
H752 H 0.91515 0.88854 0.61196 0.0
H753 H 0.95256 -0.00036 0.71559 0.0
H754 H 0.99025 0.01415 0.70175 0.0
H755 H 0.98561 0.97675 0.72228 0.0
C756 C 0.56117 0.09449 0.2536 0.0
C757 C 0.58963 0.08643 0.26744 0.0
C758 C 0.54902 0.07903 0.22449 0.0
C759 C 0.56595 0.05519 0.20881 0.0
C760 C 0.59316 0.04498 0.22427 0.0
C761 C 0.60467 0.06072 0.25347 0.0
C762 C 0.51971 0.09042 0.20903 0.0
C763 C 0.61195 0.01979 0.20834 0.0
C764 C 0.53052 0.0137 0.13036 0.0
C765 C 0.54343 0.03404 0.10709 0.0
C766 C 0.53824 0.01954 0.16378 0.0
C767 C 0.55916 0.0463 0.17378 0.0
C768 C 0.57331 0.06584 0.15012 0.0
C769 C 0.56548 0.05928 0.11718 0.0
C770 C 0.52293 -0.00189 0.18839 0.0
C771 C 0.5956 0.09477 0.15961 0.0
H772 H 0.54921 0.11401 0.26469 0.0
H773 H 0.62676 0.05447 0.26399 0.0
H774 H 0.52611 0.10609 0.18866 0.0
H775 H 0.50429 0.06972 0.19874 0.0
H776 H 0.50642 0.10446 0.22674 0.0
H777 H 0.62864 0.01014 0.22595 0.0
H778 H 0.59642 -0.0005 0.19735 0.0
H779 H 0.62548 0.03073 0.18843 0.0
H780 H 0.51327 0.99435 0.12269 0.0
H781 H 0.57569 0.07499 0.09926 0.0
H782 H 0.50625 0.01181 0.20249 0.0
H783 H 0.54066 0.99037 0.20602 0.0
H784 H 0.51004 0.97637 0.17662 0.0
H785 H 0.58323 0.11277 0.17398 0.0
H786 H 0.60551 0.10667 0.13808 0.0
H787 H 0.61516 0.08751 0.17522 0.0
C788 C 0.4387 0.5928 0.27592 0.0
C789 C 0.41152 0.60426 0.26278 0.0
C790 C 0.44112 0.58613 0.3089 0.0
C791 C 0.41553 0.59097 0.32924 0.0
C792 C 0.38868 0.60442 0.3165 0.0
C793 C 0.38699 0.61098 0.28323 0.0
C794 C 0.4706 0.57233 0.32139 0.0
C795 C 0.36162 0.61112 0.33779 0.0
C796 C 0.42125 0.52652 0.38748 0.0
C797 C 0.44574 0.54111 0.40712 0.0
C798 C 0.40654 0.54418 0.36415 0.0
C799 C 0.41589 0.57738 0.36203 0.0
C800 C 0.43489 0.59338 0.38735 0.0
C801 C 0.45041 0.57476 0.4095 0.0
C802 C 0.38654 0.52571 0.33783 0.0
C803 C 0.44313 0.62922 0.38762 0.0
H804 H 0.45786 0.58839 0.26009 0.0
H805 H 0.36607 0.62019 0.27294 0.0
H806 H 0.48156 0.588 0.34167 0.0
H807 H 0.46494 0.5481 0.33091 0.0
H808 H 0.48809 0.57006 0.30217 0.0
H809 H 0.34198 0.62054 0.32382 0.0
H810 H 0.35283 0.58895 0.3497 0.0
H811 H 0.36963 0.62906 0.35754 0.0
H812 H 0.41754 0.50041 0.3863 0.0
H813 H 0.46915 0.58609 0.42524 0.0
H814 H 0.40138 0.52 0.31696 0.0
H815 H 0.36759 0.53995 0.32874 0.0
H816 H 0.37601 0.50261 0.34667 0.0
H817 H 0.46442 0.63413 0.37339 0.0
H818 H 0.44818 0.63907 0.41292 0.0
H819 H 0.42398 0.64202 0.37651 0.0
C820 C 0.11003 0.44186 0.76984 0.0
C821 C 0.08926 0.44719 0.7441 0.0
C822 C 0.1037 0.45142 0.80186 0.0
C823 C 0.07583 0.46636 0.80794 0.0
C824 C 0.05589 0.47381 0.78157 0.0
C825 C 0.06286 0.46398 0.74974 0.0
C826 C 0.12547 0.44306 0.82923 0.0
C827 C 0.02599 0.48987 0.78722 0.0
C828 C 0.02831 0.44938 0.88141 0.0
C829 C 0.03186 0.47917 0.89848 0.0
C830 C 0.04478 0.44397 0.85314 0.0
C831 C 0.06469 0.46935 0.84157 0.0
C832 C 0.07036 0.49859 0.86034 0.0
C833 C 0.05376 0.50318 0.88891 0.0
C834 C 0.03857 0.41216 0.83417 0.0
C835 C 0.09175 0.52593 0.84886 0.0
H836 H 0.13043 0.42873 0.76505 0.0
H837 H 0.04692 0.46783 0.72955 0.0
H838 H 0.12882 0.46313 0.8479 0.0
H839 H 0.11509 0.42166 0.84138 0.0
H840 H 0.14865 0.43733 0.82021 0.0
H841 H 0.015 0.49718 0.76412 0.0
H842 H 0.0091 0.47296 0.7991 0.0
H843 H 0.03048 0.5115 0.80384 0.0
H844 H 0.01116 0.431 0.88909 0.0
H845 H 0.05605 0.52633 0.9022 0.0
H846 H 0.06076 0.40269 0.82634 0.0
H847 H 0.02425 0.41574 0.81187 0.0
H848 H 0.02586 0.39372 0.84865 0.0
H849 H 0.11358 0.51688 0.83945 0.0
H850 H 0.09786 0.54451 0.86866 0.0
H851 H 0.07998 0.53755 0.82853 0.0
C852 C 0.72654 0.92319 0.91818 0.0
C853 C 0.75336 0.93319 0.93738 0.0
C854 C 0.69712 0.93368 0.92589 0.0
C855 C 0.69428 0.95461 0.95359 0.0
C856 C 0.72137 0.9655 0.97251 0.0
C857 C 0.7505 0.95476 0.96417 0.0
C858 C 0.66886 0.92132 0.90508 0.0
C859 C 0.71939 0.98763 0.00231 0.0
C860 C 0.61642 0.99294 0.9633 0.0
C861 C 0.60062 0.97078 0.98298 0.0
C862 C 0.64742 0.9887 0.95421 0.0
C863 C 0.66267 0.96173 0.96506 0.0
C864 C 0.64718 0.94038 0.98626 0.0
C865 C 0.61659 0.94529 0.99503 0.0
C866 C 0.66327 0.01206 0.9317 0.0
C867 C 0.66223 0.91118 -0.0017 0.0
H868 H 0.72833 0.90636 0.89761 0.0
H869 H 0.77111 0.96324 0.97878 0.0
H870 H 0.65282 0.90594 0.91964 0.0
H871 H 0.65582 0.94177 0.89702 0.0
H872 H 0.67523 0.90696 0.88319 0.0
H873 H 0.74281 0.99591 0.01299 0.0
H874 H 0.70684 0.00902 0.99607 0.0
H875 H 0.70585 0.97488 0.02114 0.0
H876 H 0.60403 0.01232 0.95346 0.0
H877 H 0.60442 0.92802 0.01019 0.0
H878 H 0.66667 -0.00039 0.9078 0.0
H879 H 0.68674 0.02078 0.94184 0.0
H880 H 0.64945 0.03315 0.9276 0.0
H881 H 0.66597 0.89435 0.97735 0.0
H882 H 0.64771 0.898 0.01612 0.0
H883 H 0.68543 0.91841 0.00996 0.0
C884 C 0.76658 0.06928 0.43741 0.0
C885 C 0.76518 0.10272 0.43893 0.0
C886 C 0.79355 0.05541 0.44824 0.0
C887 C 0.81974 0.0757 0.45999 0.0
C888 C 0.81754 0.10942 0.46349 0.0
C889 C 0.79007 0.12257 0.45296 0.0
C890 C 0.79482 0.01928 0.44482 0.0
C891 C 0.845 0.13187 0.47563 0.0
C892 C 0.8892 0.03655 0.49607 0.0
C893 C 0.90713 0.03239 0.4684 0.0
C894 C 0.86081 0.05113 0.49399 0.0
C895 C 0.85053 0.06214 0.46366 0.0
C896 C 0.86918 0.05909 0.43597 0.0
C897 C 0.89713 0.04398 0.43863 0.0
C898 C 0.84138 0.05379 0.52391 0.0
C899 C 0.85931 0.07118 0.40332 0.0
H900 H 0.74712 0.05415 0.4264 0.0
H901 H 0.78877 0.14851 0.45376 0.0
H902 H 0.80998 0.01321 0.42436 0.0
H903 H 0.80515 0.0099 0.46727 0.0
H904 H 0.77131 0.00676 0.43989 0.0
H905 H 0.83792 0.1564 0.48211 0.0
H906 H 0.85668 0.12232 0.49724 0.0
H907 H 0.86244 0.1339 0.45624 0.0
H908 H 0.8969 0.02758 0.51914 0.0
H909 H 0.91115 0.04118 0.41729 0.0
H910 H 0.8196 0.0378 0.52035 0.0
H911 H 0.8344 0.07876 0.52776 0.0
H912 H 0.854 0.04686 0.54624 0.0
H913 H 0.83763 0.05724 0.39404 0.0
H914 H 0.87753 0.06898 0.38486 0.0
H915 H 0.85407 0.09685 0.40594 0.0
C916 C 0.25434 0.55336 0.04963 0.0
C917 C 0.26233 0.57428 0.07668 0.0
C918 C 0.22316 0.54718 0.03881 0.0
C919 C 0.1994 0.56197 0.05568 0.0
C920 C 0.20716 0.58245 0.08355 0.0
C921 C 0.23858 0.58852 0.09359 0.0
C922 C 0.21565 0.52511 0.00908 0.0
C923 C 0.18232 0.59803 0.10267 0.0
C924 C 0.1212 0.57183 0.01318 0.0
C925 C 0.10322 0.54544 0.02433 0.0
C926 C 0.15299 0.57698 0.0224 0.0
C927 C 0.16638 0.55588 0.04419 0.0
C928 C 0.14811 0.52914 0.05538 0.0
C929 C 0.11682 0.52399 0.04486 0.0
C930 C 0.17196 0.60552 0.00974 0.0
C931 C 0.16113 0.50686 0.07962 0.0
H932 H 0.27253 0.54183 0.03683 0.0
H933 H 0.2446 0.60499 0.11432 0.0
H934 H 0.19958 0.50438 0.01545 0.0
H935 H 0.20349 0.53826 0.99012 0.0
H936 H 0.23689 0.51569 -0.00143 0.0
H937 H 0.19228 0.61294 0.12405 0.0
H938 H 0.16921 0.61358 0.08675 0.0
H939 H 0.16526 0.57923 0.1114 0.0
H940 H 0.11023 0.58881 -0.00195 0.0
H941 H 0.10237 0.50421 0.05428 0.0
H942 H 0.19353 0.59755 -0.00133 0.0
H943 H 0.17927 0.62288 0.03023 0.0
H944 H 0.15867 0.61824 0.99126 0.0
H945 H 0.1814 0.49537 0.06937 0.0
H946 H 0.14349 0.48762 0.08643 0.0
H947 H 0.16965 0.52086 0.10211 0.0
C948 C 0.25681 0.41699 0.54397 0.0
C949 C 0.23536 0.43958 0.55167 0.0
C950 C 0.28611 0.42682 0.53232 0.0
C951 C 0.29381 0.46004 0.52834 0.0
C952 C 0.2711 0.4826 0.53359 0.0
C953 C 0.24202 0.47206 0.54555 0.0
C954 C 0.30975 0.40204 0.52768 0.0
C955 C 0.27849 0.51816 0.52931 0.0
C956 C 0.37647 0.49194 0.55036 0.0
C957 C 0.38949 0.49485 0.51969 0.0
C958 C 0.34552 0.47998 0.55336 0.0
C959 C 0.32687 0.47172 0.52485 0.0
C960 C 0.33986 0.47466 0.49371 0.0
C961 C 0.37139 0.48577 0.49148 0.0
C962 C 0.33288 0.47609 0.58709 0.0
C963 C 0.32041 0.46636 0.46293 0.0
H964 H 0.25139 0.39187 0.54914 0.0
H965 H 0.22526 0.48936 0.55189 0.0
H966 H 0.32369 0.40663 0.50582 0.0
H967 H 0.32616 0.40351 0.54916 0.0
H968 H 0.29841 0.37715 0.52529 0.0
H969 H 0.25708 0.53161 0.52912 0.0
H970 H 0.29422 0.5283 0.54969 0.0
H971 H 0.29084 0.52217 0.50629 0.0
H972 H 0.39077 0.49843 0.57217 0.0
H973 H 0.38169 0.48803 0.4678 0.0
H974 H 0.32332 0.45087 0.58978 0.0
H975 H 0.31348 0.4919 0.59079 0.0
H976 H 0.35102 0.48219 0.60664 0.0
H977 H 0.31124 0.44073 0.46254 0.0
H978 H 0.33392 0.47047 0.44061 0.0
H979 H 0.29995 0.48116 0.46234 0.0
C980 C 0.90672 0.73236 0.92205 0.0
C981 C 0.92172 0.75971 0.93848 0.0
C982 C 0.91532 0.70121 0.92832 0.0
C983 C 0.93957 0.69718 0.95158 0.0
C984 C 0.95501 0.72465 0.96806 0.0
C985 C 0.94589 0.75552 0.96137 0.0
C986 C 0.89839 0.67257 0.91005 0.0
C987 C 0.98108 0.7214 0.99289 0.0
C988 C 0.94079 0.61506 0.98912 0.0
C989 C 0.96358 0.60081 0.971 0.0
C990 C 0.93316 0.64667 0.98347 0.0
C991 C 0.94852 0.66418 0.95889 0.0
C992 C 0.97187 0.6498 0.9408 0.0
C993 C 0.97911 0.61821 0.94711 0.0
C994 C 0.90826 0.66113 0.00337 0.0
C995 C 0.98865 0.66745 0.91426 0.0
H996 H 0.88844 0.73531 0.90391 0.0
H997 H 0.95743 0.77641 0.97446 0.0
H998 H 0.91532 0.65848 0.89674 0.0
H999 H 0.88676 0.65635 0.92753 0.0
H1000 H 0.88048 0.67981 0.89229 0.0
H1001 H 0.99091 0.74513 0.00342 0.0
H1002 H 0.97238 0.7065 0.013 0.0
H1003 H 0.00016 0.70882 0.98147 0.0
H1004 H 0.92865 0.60127 0.00736 0.0
H1005 H -0.00351 0.60682 0.9329 0.0
H1006 H 0.88837 0.66648 0.98713 0.0
H1007 H 0.91766 0.68428 0.01547 0.0
H1008 H 0.89935 0.64482 0.02231 0.0
H1009 H 0.97174 0.67192 0.89431 0.0
H1010 H 0.0075 0.65367 0.90386 0.0
H1011 H -0.001 0.69128 0.92386 0.0
C1012 C 0.43116 0.77375 0.07113 0.0
C1013 C 0.41329 0.76127 0.09627 0.0
C1014 C 0.43652 0.80703 0.06819 0.0
C1015 C 0.42385 0.82847 0.09118 0.0
C1016 C 0.4055 0.81604 0.1165 0.0
C1017 C 0.40029 0.78247 0.11864 0.0
C1018 C 0.4561 0.81914 0.04055 0.0
C1019 C 0.39179 0.83808 0.14145 0.0
C1020 C 0.4742 0.9038 0.08338 0.0
C1021 C 0.45885 0.91579 0.05648 0.0
C1022 C 0.46033 0.87776 0.09969 0.0
C1023 C 0.4308 0.8637 0.08826 0.0
C1024 C 0.41292 0.88016 0.0657 0.0
C1025 C 0.42723 0.90651 0.0502 0.0
C1026 C 0.47971 0.86182 0.1247 0.0
C1027 C 0.3811 0.86656 0.05319 0.0
H1028 H 0.44086 0.75737 0.05359 0.0
H1029 H 0.38662 0.77277 0.13826 0.0
H1030 H 0.4429 0.83556 0.02572 0.0
H1031 H 0.47757 0.833 0.0505 0.0
H1032 H 0.46318 0.79922 0.0242 0.0
H1033 H 0.3787 0.8245 0.16009 0.0
H1034 H 0.41061 0.8541 0.15395 0.0
H1035 H 0.37574 0.85383 0.12924 0.0
H1036 H 0.49868 0.91127 0.08836 0.0
H1037 H 0.41535 0.91607 0.02945 0.0
H1038 H 0.49217 0.84253 0.11238 0.0
H1039 H 0.46486 0.85058 0.14342 0.0
H1040 H 0.49746 0.87939 0.13695 0.0
H1041 H 0.38397 0.8489 0.0327 0.0
H1042 H 0.3671 0.88586 0.04391 0.0
H1043 H 0.36799 0.85389 0.07234 0.0
C1044 C 0.07366 0.23589 0.56544 0.0
C1045 C 0.05984 0.26456 0.55932 0.0
C1046 C 0.05799 0.20595 0.55754 0.0
C1047 C 0.02749 0.20452 0.54318 0.0
C1048 C 0.01333 0.23332 0.53666 0.0
C1049 C 0.02971 0.26317 0.54495 0.0
C1050 C 0.07391 0.17586 0.56559 0.0
C1051 C 0.98073 0.23258 0.52182 0.0
C1052 C 0.01502 0.12035 0.50889 0.0
C1053 C 0.00642 0.10525 0.53737 0.0
C1054 C 0.01733 0.15411 0.50828 0.0
C1055 C 0.01072 0.17243 0.53678 0.0
C1056 C -0.00327 0.15685 0.56328 0.0
C1057 C 0.99512 0.12321 0.5634 0.0
C1058 C 0.03181 0.16985 0.47935 0.0
C1059 C 0.98856 0.17534 0.59385 0.0
H1060 H 0.09654 0.23682 0.57747 0.0
H1061 H 0.01895 0.28536 0.54036 0.0
H1062 H 0.06061 0.16252 0.58419 0.0
H1063 H 0.07457 0.15963 0.54356 0.0
H1064 H 0.09824 0.18137 0.57524 0.0
H1065 H 0.97441 0.2569 0.51508 0.0
H1066 H 0.9784 0.21615 0.49979 0.0
H1067 H 0.96367 0.22308 0.53948 0.0
H1068 H 0.02362 0.10619 0.48877 0.0
H1069 H 0.98814 0.11117 0.58527 0.0
H1070 H 0.05732 0.17464 0.48428 0.0
H1071 H 0.02194 0.19323 0.47497 0.0
H1072 H 0.02831 0.154 0.45691 0.0
H1073 H 0.00979 0.17983 0.60993 0.0
H1074 H 0.97056 0.16143 0.60756 0.0
H1075 H 0.97991 0.19899 0.58821 0.0
C1076 C 0.59547 0.27361 0.47515 0.0
C1077 C 0.58798 0.25722 0.44517 0.0
C1078 C 0.57892 0.29987 0.4854 0.0
C1079 C 0.55519 0.31036 0.4646 0.0
C1080 C 0.54633 0.29252 0.43527 0.0
C1081 C 0.56267 0.26593 0.4261 0.0
C1082 C 0.58847 0.31792 0.51715 0.0
C1083 C 0.52194 0.30348 0.41178 0.0
C1084 C 0.50384 0.37907 0.4831 0.0
C1085 C 0.5203 0.4039 0.46742 0.0
C1086 C 0.51577 0.34846 0.48426 0.0
C1087 C 0.54451 0.34321 0.46943 0.0
C1088 C 0.56188 0.36906 0.45546 0.0
C1089 C 0.54954 0.39903 0.45475 0.0
C1090 C 0.49707 0.32144 0.49983 0.0
C1091 C 0.59256 0.36473 0.43923 0.0
H1092 H 0.61501 0.26668 0.48992 0.0
H1093 H 0.55719 0.25347 0.4027 0.0
H1094 H 0.60204 0.34081 0.51213 0.0
H1095 H 0.56757 0.32422 0.53061 0.0
H1096 H 0.60317 0.30368 0.53297 0.0
H1097 H 0.51511 0.28488 0.3922 0.0
H1098 H 0.50074 0.30951 0.42479 0.0
H1099 H 0.53137 0.32563 0.4002 0.0
H1100 H 0.48127 0.38311 0.49303 0.0
H1101 H 0.56238 0.41863 0.44313 0.0
H1102 H 0.51232 0.3086 0.51638 0.0
H1103 H 0.48736 0.30361 0.48068 0.0
H1104 H 0.47742 0.33028 0.51382 0.0
H1105 H 0.60915 0.35417 0.4562 0.0
H1106 H 0.60371 0.38782 0.43102 0.0
H1107 H 0.58864 0.3478 0.41767 0.0
loop_
_geom_bond_atom_site_label_1
_geom_bond_atom_site_label_2
_geom_bond_distance
_geom_bond_site_symmetry_2
_ccdc_geom_bond_type
P0 O11 1.490 . S
P0 C14 1.812 . S
P0 C20 1.803 . S
P0 C26 1.819 . S
H1 C15 0.941 . S
H2 C16 0.939 . S
H3 C18 0.940 . S
H4 C19 0.940 . S
H5 C21 0.939 . S
H6 C22 0.942 . S
H7 C24 0.940 . S
H8 C25 0.939 . S
H9 C27 0.941 . S
H10 C31 0.939 . S
O11 P0 1.490 . S
H12 C28 0.939 . S
H13 C30 0.940 . S
C14 P0 1.812 . S
C14 C15 1.389 . S
C14 C19 1.391 . S
C15 H1 0.941 . S
C15 C14 1.389 . S
C15 C16 1.397 . S
C16 H2 0.939 . S
C16 C15 1.397 . S
C16 C17 1.378 . S
C17 C16 1.378 . S
C17 C18 1.378 . S
C18 H3 0.940 . S
C18 C17 1.378 . S
C18 C19 1.396 . S
C19 H4 0.940 . S
C19 C14 1.391 . S
C19 C18 1.396 . S
C20 P0 1.803 . S
C20 C21 1.378 . S
C20 C25 1.400 . S
C21 H5 0.939 . S
C21 C20 1.378 . S
C21 C22 1.361 . S
C22 H6 0.942 . S
C22 C21 1.361 . S
C22 C23 1.369 . S
C23 C22 1.369 . S
C23 C24 1.404 . S
C24 H7 0.940 . S
C24 C23 1.404 . S
C24 C25 1.389 . S
C25 H8 0.939 . S
C25 C20 1.400 . S
C25 C24 1.389 . S
C26 P0 1.819 . S
C26 C27 1.391 . S
C26 C31 1.391 . S
C27 H9 0.941 . S
C27 C26 1.391 . S
C27 C28 1.396 . S
C28 H12 0.939 . S
C28 C27 1.396 . S
C28 C29 1.397 . S
C29 C28 1.397 . S
C29 C30 1.385 . S
C30 H13 0.940 . S
C30 C29 1.385 . S
C30 C31 1.388 . S
C31 H10 0.939 . S
C31 C26 1.391 . S
C31 C30 1.388 . S
P32 O43 1.490 . S
P32 C46 1.812 . S
P32 C52 1.803 . S
P32 C58 1.819 . S
H33 C47 0.941 . S
H34 C48 0.939 . S
H35 C50 0.940 . S
H36 C51 0.940 . S
H37 C53 0.939 . S
H38 C54 0.942 . S
H39 C56 0.940 . S
H40 C57 0.939 . S
H41 C59 0.941 . S
H42 C63 0.939 . S
O43 P32 1.490 . S
H44 C60 0.939 . S
H45 C62 0.940 . S
C46 P32 1.812 . S
C46 C47 1.389 . S
C46 C51 1.391 . S
C47 H33 0.941 . S
C47 C46 1.389 . S
C47 C48 1.397 . S
C48 H34 0.939 . S
C48 C47 1.397 . S
C48 C49 1.378 . S
C49 C48 1.378 . S
C49 C50 1.378 . S
C50 H35 0.940 . S
C50 C49 1.378 . S
C50 C51 1.396 . S
C51 H36 0.940 . S
C51 C46 1.391 . S
C51 C50 1.396 . S
C52 P32 1.803 . S
C52 C53 1.378 . S
C52 C57 1.400 . S
C53 H37 0.939 . S
C53 C52 1.378 . S
C53 C54 1.361 . S
C54 H38 0.942 . S
C54 C53 1.361 . S
C54 C55 1.369 . S
C55 C54 1.369 . S
C55 C56 1.404 . S
C56 H39 0.940 . S
C56 C55 1.404 . S
C56 C57 1.389 . S
C57 H40 0.939 . S
C57 C52 1.400 . S
C57 C56 1.389 . S
C58 P32 1.819 . S
C58 C59 1.391 . S
C58 C63 1.391 . S
C59 H41 0.941 . S
C59 C58 1.391 . S
C59 C60 1.396 . S
C60 H44 0.939 . S
C60 C59 1.396 . S
C60 C61 1.397 . S
C61 C60 1.397 . S
C61 C62 1.385 . S
C62 H45 0.940 . S
C62 C61 1.385 . S
C62 C63 1.388 . S
C63 H42 0.939 . S
C63 C58 1.391 . S
C63 C62 1.388 . S
P64 O75 1.490 . S
P64 C78 1.812 . S
P64 C84 1.803 . S
P64 C90 1.819 . S
H65 C79 0.941 . S
H66 C80 0.939 . S
H67 C82 0.940 . S
H68 C83 0.940 . S
H69 C85 0.939 . S
H70 C86 0.942 . S
H71 C88 0.940 . S
H72 C89 0.939 . S
H73 C91 0.941 . S
H74 C95 0.939 . S
O75 P64 1.490 . S
H76 C92 0.939 . S
H77 C94 0.940 . S
C78 P64 1.812 . S
C78 C79 1.389 . S
C78 C83 1.391 . S
C79 H65 0.941 . S
C79 C78 1.389 . S
C79 C80 1.397 . S
C80 H66 0.939 . S
C80 C79 1.397 . S
C80 C81 1.378 . S
C81 C80 1.378 . S
C81 C82 1.378 . S
C82 H67 0.940 . S
C82 C81 1.378 . S
C82 C83 1.396 . S
C83 H68 0.940 . S
C83 C78 1.391 . S
C83 C82 1.396 . S
C84 P64 1.803 . S
C84 C85 1.378 . S
C84 C89 1.400 . S
C85 H69 0.939 . S
C85 C84 1.378 . S
C85 C86 1.361 . S
C86 H70 0.942 . S
C86 C85 1.361 . S
C86 C87 1.369 . S
C87 C86 1.369 . S
C87 C88 1.404 . S
C88 H71 0.940 . S
C88 C87 1.404 . S
C88 C89 1.389 . S
C89 H72 0.939 . S
C89 C84 1.400 . S
C89 C88 1.389 . S
C90 P64 1.819 . S
C90 C91 1.391 . S
C90 C95 1.391 . S
C91 H73 0.941 . S
C91 C90 1.391 . S
C91 C92 1.396 . S
C92 H76 0.939 . S
C92 C91 1.396 . S
C92 C93 1.397 . S
C93 C92 1.397 . S
C93 C94 1.385 . S
C94 H77 0.940 . S
C94 C93 1.385 . S
C94 C95 1.388 . S
C95 H74 0.939 . S
C95 C90 1.391 . S
C95 C94 1.388 . S
P96 O107 1.490 . S
P96 C110 1.812 . S
P96 C116 1.803 . S
P96 C122 1.819 . S
H97 C111 0.941 . S
H98 C112 0.939 . S
H99 C114 0.940 . S
H100 C115 0.940 . S
H101 C117 0.939 . S
H102 C118 0.942 . S
H103 C120 0.940 . S
H104 C121 0.939 . S
H105 C123 0.941 . S
H106 C127 0.939 . S
O107 P96 1.490 . S
H108 C124 0.939 . S
H109 C126 0.940 . S
C110 P96 1.812 . S
C110 C111 1.389 . S
C110 C115 1.391 . S
C111 H97 0.941 . S
C111 C110 1.389 . S
C111 C112 1.397 . S
C112 H98 0.939 . S
C112 C111 1.397 . S
C112 C113 1.378 . S
C113 C112 1.378 . S
C113 C114 1.378 . S
C114 H99 0.940 . S
C114 C113 1.378 . S
C114 C115 1.396 . S
C115 H100 0.940 . S
C115 C110 1.391 . S
C115 C114 1.396 . S
C116 P96 1.803 . S
C116 C117 1.378 . S
C116 C121 1.400 . S
C117 H101 0.939 . S
C117 C116 1.378 . S
C117 C118 1.361 . S
C118 H102 0.942 . S
C118 C117 1.361 . S
C118 C119 1.369 . S
C119 C118 1.369 . S
C119 C120 1.404 . S
C120 H103 0.940 . S
C120 C119 1.404 . S
C120 C121 1.389 . S
C121 H104 0.939 . S
C121 C116 1.400 . S
C121 C120 1.389 . S
C122 P96 1.819 . S
C122 C123 1.391 . S
C122 C127 1.391 . S
C123 H105 0.941 . S
C123 C122 1.391 . S
C123 C124 1.396 . S
C124 H108 0.939 . S
C124 C123 1.396 . S
C124 C125 1.397 . S
C125 C124 1.397 . S
C125 C126 1.385 . S
C126 H109 0.940 . S
C126 C125 1.385 . S
C126 C127 1.388 . S
C127 H106 0.939 . S
C127 C122 1.391 . S
C127 C126 1.388 . S
P128 O139 1.490 . S
P128 C142 1.812 . S
P128 C148 1.803 . S
P128 C154 1.819 . S
H129 C143 0.941 . S
H130 C144 0.939 . S
H131 C146 0.940 . S
H132 C147 0.940 . S
H133 C149 0.939 . S
H134 C150 0.942 . S
H135 C152 0.940 . S
H136 C153 0.939 . S
H137 C155 0.941 . S
H138 C159 0.939 . S
O139 P128 1.490 . S
H140 C156 0.939 . S
H141 C158 0.940 . S
C142 P128 1.812 . S
C142 C143 1.389 . S
C142 C147 1.391 . S
C143 H129 0.941 . S
C143 C142 1.389 . S
C143 C144 1.397 . S
C144 H130 0.939 . S
C144 C143 1.397 . S
C144 C145 1.378 . S
C145 C144 1.378 . S
C145 C146 1.378 . S
C146 H131 0.940 . S
C146 C145 1.378 . S
C146 C147 1.396 . S
C147 H132 0.940 . S
C147 C142 1.391 . S
C147 C146 1.396 . S
C148 P128 1.803 . S
C148 C149 1.378 . S
C148 C153 1.400 . S
C149 H133 0.939 . S
C149 C148 1.378 . S
C149 C150 1.361 . S
C150 H134 0.942 . S
C150 C149 1.361 . S
C150 C151 1.369 . S
C151 C150 1.369 . S
C151 C152 1.404 . S
C152 H135 0.940 . S
C152 C151 1.404 . S
C152 C153 1.389 . S
C153 H136 0.939 . S
C153 C148 1.400 . S
C153 C152 1.389 . S
C154 P128 1.819 . S
C154 C155 1.391 . S
C154 C159 1.391 . S
C155 H137 0.941 . S
C155 C154 1.391 . S
C155 C156 1.396 . S
C156 H140 0.939 . S
C156 C155 1.396 . S
C156 C157 1.397 . S
C157 C156 1.397 . S
C157 C158 1.385 . S
C158 H141 0.940 . S
C158 C157 1.385 . S
C158 C159 1.388 . S
C159 H138 0.939 . S
C159 C154 1.391 . S
C159 C158 1.388 . S
P160 O171 1.490 . S
P160 C174 1.812 . S
P160 C180 1.803 . S
P160 C186 1.819 . S
H161 C175 0.941 . S
H162 C176 0.939 . S
H163 C178 0.940 . S
H164 C179 0.940 . S
H165 C181 0.939 . S
H166 C182 0.942 . S
H167 C184 0.940 . S
H168 C185 0.939 . S
H169 C187 0.941 . S
H170 C191 0.939 . S
O171 P160 1.490 . S
H172 C188 0.939 . S
H173 C190 0.940 . S
C174 P160 1.812 . S
C174 C175 1.389 . S
C174 C179 1.391 . S
C175 H161 0.941 . S
C175 C174 1.389 . S
C175 C176 1.397 . S
C176 H162 0.939 . S
C176 C175 1.397 . S
C176 C177 1.378 . S
C177 C176 1.378 . S
C177 C178 1.378 . S
C178 H163 0.940 . S
C178 C177 1.378 . S
C178 C179 1.396 . S
C179 H164 0.940 . S
C179 C174 1.391 . S
C179 C178 1.396 . S
C180 P160 1.803 . S
C180 C181 1.378 . S
C180 C185 1.400 . S
C181 H165 0.939 . S
C181 C180 1.378 . S
C181 C182 1.361 . S
C182 H166 0.942 . S
C182 C181 1.361 . S
C182 C183 1.369 . S
C183 C182 1.369 . S
C183 C184 1.404 . S
C184 H167 0.940 . S
C184 C183 1.404 . S
C184 C185 1.389 . S
C185 H168 0.939 . S
C185 C180 1.400 . S
C185 C184 1.389 . S
C186 P160 1.819 . S
C186 C187 1.391 . S
C186 C191 1.391 . S
C187 H169 0.941 . S
C187 C186 1.391 . S
C187 C188 1.396 . S
C188 H172 0.939 . S
C188 C187 1.396 . S
C188 C189 1.397 . S
C189 C188 1.397 . S
C189 C190 1.385 . S
C190 H173 0.940 . S
C190 C189 1.385 . S
C190 C191 1.388 . S
C191 H170 0.939 . S
C191 C186 1.391 . S
C191 C190 1.388 . S
P192 O203 1.490 . S
P192 C206 1.812 . S
P192 C212 1.803 . S
P192 C218 1.819 . S
H193 C207 0.941 . S
H194 C208 0.939 . S
H195 C210 0.940 . S
H196 C211 0.940 . S
H197 C213 0.939 . S
H198 C214 0.942 . S
H199 C216 0.940 . S
H200 C217 0.939 . S
H201 C219 0.941 . S
H202 C223 0.939 . S
O203 P192 1.490 . S
H204 C220 0.939 . S
H205 C222 0.940 . S
C206 P192 1.812 . S
C206 C207 1.389 . S
C206 C211 1.391 . S
C207 H193 0.941 . S
C207 C206 1.389 . S
C207 C208 1.397 . S
C208 H194 0.939 . S
C208 C207 1.397 . S
C208 C209 1.378 . S
C209 C208 1.378 . S
C209 C210 1.378 . S
C210 H195 0.940 . S
C210 C209 1.378 . S
C210 C211 1.396 . S
C211 H196 0.940 . S
C211 C206 1.391 . S
C211 C210 1.396 . S
C212 P192 1.803 . S
C212 C213 1.378 . S
C212 C217 1.400 . S
C213 H197 0.939 . S
C213 C212 1.378 . S
C213 C214 1.361 . S
C214 H198 0.942 . S
C214 C213 1.361 . S
C214 C215 1.369 . S
C215 C214 1.369 . S
C215 C216 1.404 . S
C216 H199 0.940 . S
C216 C215 1.404 . S
C216 C217 1.389 . S
C217 H200 0.939 . S
C217 C212 1.400 . S
C217 C216 1.389 . S
C218 P192 1.819 . S
C218 C219 1.391 . S
C218 C223 1.391 . S
C219 H201 0.941 . S
C219 C218 1.391 . S
C219 C220 1.396 . S
C220 H204 0.939 . S
C220 C219 1.396 . S
C220 C221 1.397 . S
C221 C220 1.397 . S
C221 C222 1.385 . S
C222 H205 0.940 . S
C222 C221 1.385 . S
C222 C223 1.388 . S
C223 H202 0.939 . S
C223 C218 1.391 . S
C223 C222 1.388 . S
P224 O235 1.490 . S
P224 C238 1.812 . S
P224 C244 1.803 . S
P224 C250 1.819 . S
H225 C239 0.941 . S
H226 C240 0.939 . S
H227 C242 0.940 . S
H228 C243 0.940 . S
H229 C245 0.939 . S
H230 C246 0.942 . S
H231 C248 0.940 . S
H232 C249 0.939 . S
H233 C251 0.941 . S
H234 C255 0.939 . S
O235 P224 1.490 . S
H236 C252 0.939 . S
H237 C254 0.940 . S
C238 P224 1.812 . S
C238 C239 1.389 . S
C238 C243 1.391 . S
C239 H225 0.941 . S
C239 C238 1.389 . S
C239 C240 1.397 . S
C240 H226 0.939 . S
C240 C239 1.397 . S
C240 C241 1.378 . S
C241 C240 1.378 . S
C241 C242 1.378 . S
C242 H227 0.940 . S
C242 C241 1.378 . S
C242 C243 1.396 . S
C243 H228 0.940 . S
C243 C238 1.391 . S
C243 C242 1.396 . S
C244 P224 1.803 . S
C244 C245 1.378 . S
C244 C249 1.400 . S
C245 H229 0.939 . S
C245 C244 1.378 . S
C245 C246 1.361 . S
C246 H230 0.942 . S
C246 C245 1.361 . S
C246 C247 1.369 . S
C247 C246 1.369 . S
C247 C248 1.404 . S
C248 H231 0.940 . S
C248 C247 1.404 . S
C248 C249 1.389 . S
C249 H232 0.939 . S
C249 C244 1.400 . S
C249 C248 1.389 . S
C250 P224 1.819 . S
C250 C251 1.391 . S
C250 C255 1.391 . S
C251 H233 0.941 . S
C251 C250 1.391 . S
C251 C252 1.396 . S
C252 H236 0.939 . S
C252 C251 1.396 . S
C252 C253 1.397 . S
C253 C252 1.397 . S
C253 C254 1.385 . S
C254 H237 0.940 . S
C254 C253 1.385 . S
C254 C255 1.388 . S
C255 H234 0.939 . S
C255 C250 1.391 . S
C255 C254 1.388 . S
O256 Mg257 1.990 . S
O256 C270 1.253 1_445 S
Mg257 O256 1.990 . S
Mg257 O260 2.180 . S
Mg257 O261 2.117 . S
Mg257 O275 2.030 1_545 S
O258 Mg259 2.072 1_665 S
O258 C270 1.260 . S
Mg259 O258 2.072 1_445 S
Mg259 O260 2.099 . S
Mg259 O262 2.079 . S
Mg259 O263 2.072 1_455 S
Mg259 O265 2.099 1_445 S
Mg259 O276 2.079 1_545 S
O260 Mg257 2.180 . S
O260 Mg259 2.099 . S
O260 C271 1.279 . S
O261 Mg257 2.117 . S
O261 C271 1.250 . S
O262 Mg259 2.079 . S
O262 C272 1.264 . S
O263 Mg259 2.072 1_655 S
O263 C273 1.260 . S
Mg264 O265 2.180 . S
Mg264 O266 2.030 1_565 S
Mg264 O267 1.990 1_565 S
Mg264 O268 2.117 . S
O265 Mg259 2.099 1_665 S
O265 Mg264 2.180 . S
O265 C274 1.279 . S
O266 Mg264 2.030 1_545 S
O266 C272 1.248 1_655 S
O267 Mg264 1.990 1_545 S
O267 C273 1.253 . S
O268 Mg264 2.117 . S
O268 C274 1.250 . S
C269 O275 1.248 . S
C269 O276 1.264 . S
C270 O256 1.253 1_665 S
C270 O258 1.260 . S
C271 O260 1.279 . S
C271 O261 1.250 . S
C272 O262 1.264 . S
C272 O266 1.248 1_455 S
C273 O263 1.260 . S
C273 O267 1.253 . S
C274 O265 1.279 . S
C274 O268 1.250 . S
O275 Mg257 2.030 1_565 S
O275 C269 1.248 . S
O276 Mg259 2.079 1_565 S
O276 C269 1.264 . S
O277 Mg278 1.990 . S
O277 C291 1.253 . S
Mg278 O277 1.990 . S
Mg278 O281 2.180 . S
Mg278 O282 2.117 1_554 S
Mg278 O296 2.030 . S
O279 Mg280 2.072 . S
O279 C291 1.260 . S
Mg280 O279 2.072 . S
Mg280 O281 2.099 . S
Mg280 O283 2.079 1_554 S
Mg280 O284 2.072 1_554 S
Mg280 O286 2.099 1_545 S
Mg280 O297 2.079 . S
O281 Mg278 2.180 . S
O281 Mg280 2.099 . S
O281 C292 1.279 1_554 S
O282 Mg278 2.117 1_556 S
O282 C292 1.250 . S
O283 Mg280 2.079 1_556 S
O283 C293 1.264 1_545 S
O284 Mg280 2.072 1_556 S
O284 C294 1.260 1_545 S
Mg285 O286 2.180 1_556 S
Mg285 O287 2.030 . S
Mg285 O288 1.990 . S
Mg285 O289 2.117 1_556 S
O286 Mg280 2.099 1_565 S
O286 Mg285 2.180 1_554 S
O286 C295 1.279 . S
O287 Mg285 2.030 . S
O287 C293 1.248 . S
O288 Mg285 1.990 . S
O288 C294 1.253 . S
O289 Mg285 2.117 1_554 S
O289 C295 1.250 . S
C290 O296 1.248 . S
C290 O297 1.264 . S
C291 O277 1.253 . S
C291 O279 1.260 . S
C292 O281 1.279 1_556 S
C292 O282 1.250 . S
C293 O283 1.264 1_565 S
C293 O287 1.248 . S
C294 O284 1.260 1_565 S
C294 O288 1.253 . S
C295 O286 1.279 . S
C295 O289 1.250 . S
O296 Mg278 2.030 . S
O296 C290 1.248 . S
O297 Mg280 2.079 . S
O297 C290 1.264 . S
O298 Mg299 1.990 . S
O298 C312 1.253 . S
Mg299 O298 1.990 . S
Mg299 O302 2.180 . S
Mg299 O303 2.117 . S
Mg299 O317 2.030 . S
O300 Mg301 2.072 . S
O300 C312 1.260 . S
Mg301 O300 2.072 . S
Mg301 O302 2.099 . S
Mg301 O304 2.079 . S
Mg301 O305 2.072 . S
Mg301 O307 2.099 . S
Mg301 O318 2.079 . S
O302 Mg299 2.180 . S
O302 Mg301 2.099 . S
O302 C313 1.279 . S
O303 Mg299 2.117 . S
O303 C313 1.250 . S
O304 Mg301 2.079 . S
O304 C314 1.264 . S
O305 Mg301 2.072 . S
O305 C315 1.260 . S
Mg306 O307 2.180 . S
Mg306 O308 2.030 . S
Mg306 O309 1.990 . S
Mg306 O310 2.117 . S
O307 Mg301 2.099 . S
O307 Mg306 2.180 . S
O307 C316 1.279 . S
O308 Mg306 2.030 . S
O308 C314 1.248 . S
O309 Mg306 1.990 . S
O309 C315 1.253 . S
O310 Mg306 2.117 . S
O310 C316 1.250 . S
C311 O317 1.248 . S
C311 O318 1.264 . S
C312 O298 1.253 . S
C312 O300 1.260 . S
C313 O302 1.279 . S
C313 O303 1.250 . S
C314 O304 1.264 . S
C314 O308 1.248 . S
C315 O305 1.260 . S
C315 O309 1.253 . S
C316 O307 1.279 . S
C316 O310 1.250 . S
O317 Mg299 2.030 . S
O317 C311 1.248 . S
O318 Mg301 2.079 . S
O318 C311 1.264 . S
O319 Mg320 1.990 . S
O319 C333 1.253 . S
Mg320 O319 1.990 . S
Mg320 O323 2.180 1_455 S
Mg320 O324 2.117 1_455 S
Mg320 O338 2.030 . S
O321 Mg322 2.072 . S
O321 C333 1.260 . S
Mg322 O321 2.072 . S
Mg322 O323 2.099 1_455 S
Mg322 O325 2.079 1_454 S
Mg322 O326 2.072 1_455 S
Mg322 O328 2.099 1_554 S
Mg322 O339 2.079 . S
O323 Mg320 2.180 1_655 S
O323 Mg322 2.099 1_655 S
O323 C334 1.279 . S
O324 Mg320 2.117 1_655 S
O324 C334 1.250 . S
O325 Mg322 2.079 1_656 S
O325 C335 1.264 . S
O326 Mg322 2.072 1_655 S
O326 C336 1.260 1_554 S
Mg327 O328 2.180 1_655 S
Mg327 O329 2.030 . S
Mg327 O330 1.990 . S
Mg327 O331 2.117 . S
O328 Mg322 2.099 1_556 S
O328 Mg327 2.180 1_455 S
O328 C337 1.279 . S
O329 Mg327 2.030 . S
O329 C335 1.248 . S
O330 Mg327 1.990 . S
O330 C336 1.253 . S
O331 Mg327 2.117 . S
O331 C337 1.250 1_655 S
C332 O338 1.248 . S
C332 O339 1.264 . S
C333 O319 1.253 . S
C333 O321 1.260 . S
C334 O323 1.279 . S
C334 O324 1.250 . S
C335 O325 1.264 . S
C335 O329 1.248 . S
C336 O326 1.260 1_556 S
C336 O330 1.253 . S
C337 O328 1.279 . S
C337 O331 1.250 1_455 S
O338 Mg320 2.030 . S
O338 C332 1.248 . S
O339 Mg322 2.079 . S
O339 C332 1.264 . S
C340 C341 1.391 . S
C340 C342 1.394 . S
C340 H356 0.931 . S
C341 C340 1.391 . S
C341 C345 1.376 . S
C342 C340 1.394 . S
C342 C343 1.369 . S
C342 C346 1.531 . S
C343 C342 1.369 . S
C343 C344 1.410 . S
C343 C351 1.503 . S
C344 C343 1.410 . S
C344 C345 1.392 . S
C344 C347 1.511 . S
C345 C341 1.376 . S
C345 C344 1.392 . S
C345 H357 0.929 . S
C346 C342 1.531 . S
C346 H358 0.960 . S
C346 H359 0.962 . S
C346 H360 0.960 . S
C347 C344 1.511 . S
C347 H361 0.961 . S
C347 H362 0.961 . S
C347 H363 0.961 . S
C348 C349 1.370 . S
C348 C350 1.363 . S
C348 H364 0.931 . S
C349 C348 1.370 . S
C349 C353 1.408 . S
C350 C348 1.363 . S
C350 C351 1.370 . S
C350 C354 1.524 . S
C351 C343 1.503 . S
C351 C350 1.370 . S
C351 C352 1.403 . S
C352 C351 1.403 . S
C352 C353 1.404 . S
C352 C355 1.539 . S
C353 C349 1.408 . S
C353 C352 1.404 . S
C353 H365 0.930 . S
C354 C350 1.524 . S
C354 H366 0.956 . S
C354 H367 0.961 . S
C354 H368 0.961 . S
C355 C352 1.539 . S
C355 H369 0.958 . S
C355 H370 0.961 1_455 S
C355 H371 0.960 . S
H356 C340 0.931 . S
H357 C345 0.929 . S
H358 C346 0.960 . S
H359 C346 0.962 . S
H360 C346 0.960 . S
H361 C347 0.961 . S
H362 C347 0.961 . S
H363 C347 0.961 . S
H364 C348 0.931 . S
H365 C353 0.930 . S
H366 C354 0.956 . S
H367 C354 0.961 . S
H368 C354 0.961 . S
H369 C355 0.958 . S
H370 C355 0.961 1_655 S
H371 C355 0.960 . S
C372 C373 1.391 . S
C372 C374 1.394 . S
C372 H388 0.931 . S
C373 C372 1.391 . S
C373 C377 1.376 . S
C374 C372 1.394 . S
C374 C375 1.369 . S
C374 C378 1.531 . S
C375 C374 1.369 . S
C375 C376 1.410 . S
C375 C383 1.503 . S
C376 C375 1.410 . S
C376 C377 1.392 . S
C376 C379 1.511 . S
C377 C373 1.376 . S
C377 C376 1.392 . S
C377 H389 0.929 . S
C378 C374 1.531 . S
C378 H390 0.960 . S
C378 H391 0.962 . S
C378 H392 0.960 . S
C379 C376 1.511 . S
C379 H393 0.961 . S
C379 H394 0.961 . S
C379 H395 0.961 . S
C380 C381 1.370 . S
C380 C382 1.363 . S
C380 H396 0.931 . S
C381 C380 1.370 . S
C381 C385 1.408 1_565 S
C382 C380 1.363 . S
C382 C383 1.370 . S
C382 C386 1.524 . S
C383 C375 1.503 . S
C383 C382 1.370 . S
C383 C384 1.403 1_565 S
C384 C383 1.403 1_545 S
C384 C385 1.404 . S
C384 C387 1.539 . S
C385 C381 1.408 1_545 S
C385 C384 1.404 . S
C385 H397 0.930 . S
C386 C382 1.524 . S
C386 H398 0.956 . S
C386 H399 0.961 . S
C386 H400 0.961 . S
C387 C384 1.539 . S
C387 H401 0.958 . S
C387 H402 0.961 . S
C387 H403 0.960 . S
H388 C372 0.931 . S
H389 C377 0.929 . S
H390 C378 0.960 . S
H391 C378 0.962 . S
H392 C378 0.960 . S
H393 C379 0.961 . S
H394 C379 0.961 . S
H395 C379 0.961 . S
H396 C380 0.931 . S
H397 C385 0.930 . S
H398 C386 0.956 . S
H399 C386 0.961 . S
H400 C386 0.961 . S
H401 C387 0.958 . S
H402 C387 0.961 . S
H403 C387 0.960 . S
C404 C405 1.391 . S
C404 C406 1.394 . S
C404 H420 0.931 . S
C405 C404 1.391 . S
C405 C409 1.376 . S
C406 C404 1.394 . S
C406 C407 1.369 . S
C406 C410 1.531 . S
C407 C406 1.369 . S
C407 C408 1.410 . S
C407 C415 1.503 . S
C408 C407 1.410 . S
C408 C409 1.392 . S
C408 C411 1.511 . S
C409 C405 1.376 . S
C409 C408 1.392 . S
C409 H421 0.929 . S
C410 C406 1.531 . S
C410 H422 0.960 . S
C410 H423 0.962 . S
C410 H424 0.960 . S
C411 C408 1.511 . S
C411 H425 0.961 . S
C411 H426 0.961 . S
C411 H427 0.961 . S
C412 C413 1.370 . S
C412 C414 1.363 . S
C412 H428 0.931 . S
C413 C412 1.370 . S
C413 C417 1.408 . S
C414 C412 1.363 . S
C414 C415 1.370 . S
C414 C418 1.524 . S
C415 C407 1.503 . S
C415 C414 1.370 . S
C415 C416 1.403 . S
C416 C415 1.403 . S
C416 C417 1.404 . S
C416 C419 1.539 . S
C417 C413 1.408 . S
C417 C416 1.404 . S
C417 H429 0.930 . S
C418 C414 1.524 . S
C418 H430 0.956 . S
C418 H431 0.961 . S
C418 H432 0.961 . S
C419 C416 1.539 . S
C419 H433 0.958 . S
C419 H434 0.961 . S
C419 H435 0.960 . S
H420 C404 0.931 . S
H421 C409 0.929 . S
H422 C410 0.960 . S
H423 C410 0.962 . S
H424 C410 0.960 . S
H425 C411 0.961 . S
H426 C411 0.961 . S
H427 C411 0.961 . S
H428 C412 0.931 . S
H429 C417 0.930 . S
H430 C418 0.956 . S
H431 C418 0.961 . S
H432 C418 0.961 . S
H433 C419 0.958 . S
H434 C419 0.961 . S
H435 C419 0.960 . S
C436 C437 1.391 . S
C436 C438 1.394 . S
C436 H452 0.931 . S
C437 C436 1.391 . S
C437 C441 1.376 . S
C438 C436 1.394 . S
C438 C439 1.369 . S
C438 C442 1.531 . S
C439 C438 1.369 . S
C439 C440 1.410 . S
C439 C447 1.503 . S
C440 C439 1.410 . S
C440 C441 1.392 . S
C440 C443 1.511 . S
C441 C437 1.376 . S
C441 C440 1.392 . S
C441 H453 0.929 . S
C442 C438 1.531 . S
C442 H454 0.960 . S
C442 H455 0.962 . S
C442 H456 0.960 . S
C443 C440 1.511 . S
C443 H457 0.961 1_655 S
C443 H458 0.961 . S
C443 H459 0.961 1_655 S
C444 C445 1.370 . S
C444 C446 1.363 . S
C444 H460 0.931 . S
C445 C444 1.370 . S
C445 C449 1.408 . S
C446 C444 1.363 . S
C446 C447 1.370 . S
C446 C450 1.524 . S
C447 C439 1.503 . S
C447 C446 1.370 . S
C447 C448 1.403 . S
C448 C447 1.403 . S
C448 C449 1.404 . S
C448 C451 1.539 . S
C449 C445 1.408 . S
C449 C448 1.404 . S
C449 H461 0.930 . S
C450 C446 1.524 . S
C450 H462 0.956 . S
C450 H463 0.961 . S
C450 H464 0.961 . S
C451 C448 1.539 . S
C451 H465 0.958 . S
C451 H466 0.961 . S
C451 H467 0.960 . S
H452 C436 0.931 . S
H453 C441 0.929 . S
H454 C442 0.960 . S
H455 C442 0.962 . S
H456 C442 0.960 . S
H457 C443 0.961 1_455 S
H458 C443 0.961 . S
H459 C443 0.961 1_455 S
H460 C444 0.931 . S
H461 C449 0.930 . S
H462 C450 0.956 . S
H463 C450 0.961 . S
H464 C450 0.961 . S
H465 C451 0.958 . S
H466 C451 0.961 . S
H467 C451 0.960 . S
C468 C469 1.391 . S
C468 C470 1.394 . S
C468 H484 0.931 . S
C469 C468 1.391 . S
C469 C473 1.376 . S
C470 C468 1.394 . S
C470 C471 1.369 . S
C470 C474 1.531 . S
C471 C470 1.369 . S
C471 C472 1.410 . S
C471 C479 1.503 . S
C472 C471 1.410 . S
C472 C473 1.392 . S
C472 C475 1.511 . S
C473 C469 1.376 . S
C473 C472 1.392 . S
C473 H485 0.929 . S
C474 C470 1.531 . S
C474 H486 0.960 . S
C474 H487 0.962 . S
C474 H488 0.976 . S
C475 C472 1.511 . S
C475 H489 0.961 . S
C475 H490 0.961 . S
C475 H491 0.961 . S
C476 C477 1.370 . S
C476 C478 1.363 . S
C476 H492 0.931 . S
C477 C476 1.370 . S
C477 C481 1.408 . S
C478 C476 1.363 . S
C478 C479 1.370 . S
C478 C482 1.524 . S
C479 C471 1.503 . S
C479 C478 1.370 . S
C479 C480 1.403 . S
C480 C479 1.403 . S
C480 C481 1.404 . S
C480 C483 1.539 . S
C481 C477 1.408 . S
C481 C480 1.404 . S
C481 H493 0.930 . S
C482 C478 1.524 . S
C482 H494 0.956 . S
C482 H495 0.961 . S
C482 H496 0.961 . S
C483 C480 1.539 . S
C483 H497 0.958 . S
C483 H498 0.961 . S
C483 H499 0.960 . S
H484 C468 0.931 . S
H485 C473 0.929 . S
H486 C474 0.960 . S
H487 C474 0.962 . S
H488 C474 0.976 . S
H489 C475 0.961 . S
H490 C475 0.961 . S
H491 C475 0.961 . S
H492 C476 0.931 . S
H493 C481 0.930 . S
H494 C482 0.956 . S
H495 C482 0.961 . S
H496 C482 0.961 . S
H497 C483 0.958 . S
H498 C483 0.961 . S
H499 C483 0.960 . S
C500 C501 1.391 . S
C500 C502 1.394 . S
C500 H516 0.931 . S
C501 C500 1.391 . S
C501 C505 1.376 . S
C502 C500 1.394 . S
C502 C503 1.369 . S
C502 C506 1.531 . S
C503 C502 1.369 . S
C503 C504 1.410 . S
C503 C511 1.503 . S
C504 C503 1.410 . S
C504 C505 1.392 . S
C504 C507 1.508 . S
C505 C501 1.376 . S
C505 C504 1.392 . S
C505 H517 0.929 . S
C506 C502 1.531 . S
C506 H518 0.960 . S
C506 H519 0.962 . S
C506 H520 0.960 . S
C507 C504 1.508 . S
C507 H521 0.962 1_565 S
C507 H522 0.962 1_565 S
C507 H523 0.962 1_565 S
C508 C509 1.370 . S
C508 C510 1.363 . S
C508 H524 0.931 . S
C509 C508 1.370 . S
C509 C513 1.408 . S
C510 C508 1.363 . S
C510 C511 1.370 . S
C510 C514 1.524 . S
C511 C503 1.503 . S
C511 C510 1.370 . S
C511 C512 1.403 . S
C512 C511 1.403 . S
C512 C513 1.404 . S
C512 C515 1.539 . S
C513 C509 1.408 . S
C513 C512 1.404 . S
C513 H525 0.930 . S
C514 C510 1.524 . S
C514 H526 0.956 . S
C514 H527 0.961 . S
C514 H528 0.961 . S
C515 C512 1.539 . S
C515 H529 0.958 . S
C515 H530 0.961 . S
C515 H531 0.960 . S
H516 C500 0.931 . S
H517 C505 0.929 . S
H518 C506 0.960 . S
H519 C506 0.962 . S
H520 C506 0.960 . S
H521 C507 0.962 1_545 S
H522 C507 0.962 1_545 S
H523 C507 0.962 1_545 S
H524 C508 0.931 . S
H525 C513 0.930 . S
H526 C514 0.956 . S
H527 C514 0.961 . S
H528 C514 0.961 . S
H529 C515 0.958 . S
H530 C515 0.961 . S
H531 C515 0.960 . S
C532 C533 1.391 . S
C532 C534 1.394 . S
C532 H548 0.931 . S
C533 C532 1.391 . S
C533 C537 1.376 . S
C534 C532 1.394 . S
C534 C535 1.369 . S
C534 C538 1.531 . S
C535 C534 1.369 . S
C535 C536 1.410 . S
C535 C543 1.503 . S
C536 C535 1.410 . S
C536 C537 1.392 . S
C536 C539 1.511 . S
C537 C533 1.376 . S
C537 C536 1.392 . S
C537 H549 0.929 . S
C538 C534 1.531 . S
C538 H550 0.960 . S
C538 H551 0.962 1_556 S
C538 H552 0.960 1_556 S
C539 C536 1.511 . S
C539 H553 0.961 . S
C539 H554 0.961 . S
C539 H555 0.961 . S
C540 C541 1.370 . S
C540 C542 1.363 . S
C540 H556 0.931 . S
C541 C540 1.370 . S
C541 C545 1.408 . S
C542 C540 1.363 . S
C542 C543 1.370 . S
C542 C546 1.524 . S
C543 C535 1.503 . S
C543 C542 1.370 . S
C543 C544 1.403 . S
C544 C543 1.403 . S
C544 C545 1.404 . S
C544 C547 1.539 . S
C545 C541 1.408 . S
C545 C544 1.404 . S
C545 H557 0.930 . S
C546 C542 1.524 . S
C546 H558 0.956 . S
C546 H559 0.961 . S
C546 H560 0.961 . S
C547 C544 1.539 . S
C547 H561 0.958 . S
C547 H562 0.961 . S
C547 H563 0.960 . S
H548 C532 0.931 . S
H549 C537 0.929 . S
H550 C538 0.960 . S
H551 C538 0.962 1_554 S
H552 C538 0.960 1_554 S
H553 C539 0.961 . S
H554 C539 0.961 . S
H555 C539 0.961 . S
H556 C540 0.931 . S
H557 C545 0.930 . S
H558 C546 0.956 . S
H559 C546 0.961 . S
H560 C546 0.961 . S
H561 C547 0.958 . S
H562 C547 0.961 . S
H563 C547 0.960 . S
C564 C565 1.391 . S
C564 C566 1.394 . S
C564 H580 0.931 . S
C565 C564 1.391 . S
C565 C569 1.376 . S
C566 C564 1.394 . S
C566 C567 1.369 . S
C566 C570 1.531 . S
C567 C566 1.369 . S
C567 C568 1.410 . S
C567 C575 1.503 . S
C568 C567 1.410 . S
C568 C569 1.392 . S
C568 C571 1.511 . S
C569 C565 1.376 . S
C569 C568 1.392 . S
C569 H581 0.929 . S
C570 C566 1.531 . S
C570 H582 0.960 . S
C570 H583 0.962 . S
C570 H584 0.960 . S
C571 C568 1.511 . S
C571 H585 0.961 . S
C571 H586 0.961 . S
C571 H587 0.961 . S
C572 C573 1.370 . S
C572 C574 1.363 . S
C572 H588 0.931 . S
C573 C572 1.370 . S
C573 C577 1.408 . S
C574 C572 1.363 . S
C574 C575 1.370 . S
C574 C578 1.524 . S
C575 C567 1.503 . S
C575 C574 1.370 . S
C575 C576 1.403 . S
C576 C575 1.403 . S
C576 C577 1.404 . S
C576 C579 1.539 . S
C577 C573 1.408 . S
C577 C576 1.404 . S
C577 H589 0.930 . S
C578 C574 1.524 . S
C578 H590 0.956 . S
C578 H591 0.961 . S
C578 H592 0.961 . S
C579 C576 1.539 . S
C579 H593 0.958 . S
C579 H594 0.961 . S
C579 H595 0.960 . S
H580 C564 0.931 . S
H581 C569 0.929 . S
H582 C570 0.960 . S
H583 C570 0.962 . S
H584 C570 0.960 . S
H585 C571 0.961 . S
H586 C571 0.961 . S
H587 C571 0.961 . S
H588 C572 0.931 . S
H589 C577 0.930 . S
H590 C578 0.956 . S
H591 C578 0.961 . S
H592 C578 0.961 . S
H593 C579 0.958 . S
H594 C579 0.961 . S
H595 C579 0.960 . S
C596 C597 1.391 . S
C596 C598 1.394 . S
C596 H612 0.931 . S
C597 C596 1.391 . S
C597 C601 1.376 . S
C598 C596 1.394 . S
C598 C599 1.369 . S
C598 C602 1.531 . S
C599 C598 1.369 . S
C599 C600 1.410 . S
C599 C607 1.503 . S
C600 C599 1.410 . S
C600 C601 1.392 . S
C600 C603 1.511 . S
C601 C597 1.376 . S
C601 C600 1.392 . S
C601 H613 0.929 . S
C602 C598 1.531 . S
C602 H614 0.960 . S
C602 H615 0.962 . S
C602 H616 0.960 . S
C603 C600 1.511 . S
C603 H617 0.961 . S
C603 H618 0.961 . S
C603 H619 0.961 1_455 S
C604 C605 1.370 . S
C604 C606 1.363 . S
C604 H620 0.931 . S
C605 C604 1.370 . S
C605 C609 1.408 . S
C606 C604 1.363 . S
C606 C607 1.370 . S
C606 C610 1.524 . S
C607 C599 1.503 . S
C607 C606 1.370 . S
C607 C608 1.403 . S
C608 C607 1.403 . S
C608 C609 1.404 . S
C608 C611 1.551 . S
C609 C605 1.408 . S
C609 C608 1.404 . S
C609 H621 0.930 1_554 S
C610 C606 1.524 . S
C610 H622 0.956 . S
C610 H623 0.961 . S
C610 H624 0.961 . S
C611 C608 1.551 . S
C611 H625 0.940 1_554 S
C611 H626 0.968 1_554 S
C611 H627 0.973 . S
H612 C596 0.931 . S
H613 C601 0.929 . S
H614 C602 0.960 . S
H615 C602 0.962 . S
H616 C602 0.960 . S
H617 C603 0.961 . S
H618 C603 0.961 . S
H619 C603 0.961 1_655 S
H620 C604 0.931 . S
H621 C609 0.930 1_556 S
H622 C610 0.956 . S
H623 C610 0.961 . S
H624 C610 0.961 . S
H625 C611 0.940 1_556 S
H626 C611 0.968 1_556 S
H627 C611 0.973 . S
C628 C629 1.391 . S
C628 C630 1.394 . S
C628 H644 0.931 . S
C629 C628 1.391 . S
C629 C633 1.376 . S
C630 C628 1.394 . S
C630 C631 1.369 . S
C630 C634 1.531 . S
C631 C630 1.369 . S
C631 C632 1.410 . S
C631 C639 1.503 . S
C632 C631 1.410 . S
C632 C633 1.392 . S
C632 C635 1.511 . S
C633 C629 1.376 . S
C633 C632 1.392 . S
C633 H645 0.929 . S
C634 C630 1.531 . S
C634 H646 0.960 . S
C634 H647 0.962 . S
C634 H648 0.960 . S
C635 C632 1.511 . S
C635 H649 0.961 . S
C635 H650 0.961 . S
C635 H651 0.961 . S
C636 C637 1.370 . S
C636 C638 1.363 . S
C636 H652 0.931 . S
C637 C636 1.370 . S
C637 C641 1.408 . S
C638 C636 1.363 . S
C638 C639 1.370 . S
C638 C642 1.524 . S
C639 C631 1.503 . S
C639 C638 1.370 . S
C639 C640 1.403 . S
C640 C639 1.403 . S
C640 C641 1.404 . S
C640 C643 1.539 . S
C641 C637 1.408 . S
C641 C640 1.404 . S
C641 H653 0.930 1_556 S
C642 C638 1.524 . S
C642 H654 0.956 . S
C642 H655 0.961 . S
C642 H656 0.961 . S
C643 C640 1.539 . S
C643 H657 0.958 1_556 S
C643 H658 0.961 1_556 S
C643 H659 0.960 . S
H644 C628 0.931 . S
H645 C633 0.929 . S
H646 C634 0.960 . S
H647 C634 0.962 . S
H648 C634 0.960 . S
H649 C635 0.961 . S
H650 C635 0.961 . S
H651 C635 0.961 . S
H652 C636 0.931 . S
H653 C641 0.930 1_554 S
H654 C642 0.956 . S
H655 C642 0.961 . S
H656 C642 0.961 . S
H657 C643 0.958 1_554 S
H658 C643 0.961 1_554 S
H659 C643 0.960 . S
C660 C661 1.391 . S
C660 C662 1.394 . S
C660 H676 0.931 . S
C661 C660 1.391 . S
C661 C665 1.376 . S
C662 C660 1.394 . S
C662 C663 1.369 . S
C662 C666 1.531 . S
C663 C662 1.369 . S
C663 C664 1.410 . S
C663 C671 1.503 . S
C664 C663 1.410 . S
C664 C665 1.392 . S
C664 C667 1.511 1_655 S
C665 C661 1.376 . S
C665 C664 1.392 . S
C665 H677 0.929 . S
C666 C662 1.531 . S
C666 H678 0.960 . S
C666 H679 0.962 . S
C666 H680 0.960 . S
C667 C664 1.511 1_455 S
C667 H681 0.961 . S
C667 H682 0.961 . S
C667 H683 0.961 . S
C668 C669 1.370 . S
C668 C670 1.363 . S
C668 H684 0.931 . S
C669 C668 1.370 . S
C669 C673 1.408 . S
C670 C668 1.363 . S
C670 C671 1.370 . S
C670 C674 1.524 . S
C671 C663 1.503 . S
C671 C670 1.370 . S
C671 C672 1.403 . S
C672 C671 1.403 . S
C672 C673 1.404 . S
C672 C675 1.539 . S
C673 C669 1.408 . S
C673 C672 1.404 . S
C673 H685 0.930 . S
C674 C670 1.524 . S
C674 H686 0.956 . S
C674 H687 0.961 . S
C674 H688 0.961 . S
C675 C672 1.539 . S
C675 H689 0.958 . S
C675 H690 0.961 . S
C675 H691 0.960 . S
H676 C660 0.931 . S
H677 C665 0.929 . S
H678 C666 0.960 . S
H679 C666 0.962 . S
H680 C666 0.960 . S
H681 C667 0.961 . S
H682 C667 0.961 . S
H683 C667 0.961 . S
H684 C668 0.931 . S
H685 C673 0.930 . S
H686 C674 0.956 . S
H687 C674 0.961 . S
H688 C674 0.961 . S
H689 C675 0.958 . S
H690 C675 0.961 . S
H691 C675 0.960 . S
C692 C693 1.391 . S
C692 C694 1.394 . S
C692 H708 0.931 . S
C693 C692 1.391 . S
C693 C697 1.376 . S
C694 C692 1.394 . S
C694 C695 1.369 . S
C694 C698 1.531 . S
C695 C694 1.369 . S
C695 C696 1.410 . S
C695 C703 1.503 . S
C696 C695 1.410 . S
C696 C697 1.392 . S
C696 C699 1.511 . S
C697 C693 1.376 . S
C697 C696 1.392 . S
C697 H709 0.929 . S
C698 C694 1.531 . S
C698 H710 0.960 . S
C698 H711 0.962 . S
C698 H712 0.960 . S
C699 C696 1.511 . S
C699 H713 0.961 . S
C699 H714 0.961 . S
C699 H715 0.961 . S
C700 C701 1.370 . S
C700 C702 1.363 . S
C700 H716 0.931 . S
C701 C700 1.370 . S
C701 C705 1.408 . S
C702 C700 1.363 . S
C702 C703 1.370 . S
C702 C706 1.524 . S
C703 C695 1.503 . S
C703 C702 1.370 . S
C703 C704 1.403 . S
C704 C703 1.403 . S
C704 C705 1.404 . S
C704 C707 1.539 . S
C705 C701 1.408 . S
C705 C704 1.404 . S
C705 H717 0.930 . S
C706 C702 1.524 . S
C706 H718 0.956 . S
C706 H719 0.961 . S
C706 H720 0.961 . S
C707 C704 1.539 . S
C707 H721 0.958 . S
C707 H722 0.961 . S
C707 H723 0.960 . S
H708 C692 0.931 . S
H709 C697 0.929 . S
H710 C698 0.960 . S
H711 C698 0.962 . S
H712 C698 0.960 . S
H713 C699 0.961 . S
H714 C699 0.961 . S
H715 C699 0.961 . S
H716 C700 0.931 . S
H717 C705 0.930 . S
H718 C706 0.956 . S
H719 C706 0.961 . S
H720 C706 0.961 . S
H721 C707 0.958 . S
H722 C707 0.961 . S
H723 C707 0.960 . S
C724 C725 1.391 . S
C724 C726 1.394 . S
C724 H740 0.931 . S
C725 C724 1.391 . S
C725 C729 1.376 . S
C726 C724 1.394 . S
C726 C727 1.369 . S
C726 C730 1.531 . S
C727 C726 1.369 . S
C727 C728 1.410 . S
C727 C735 1.503 . S
C728 C727 1.410 . S
C728 C729 1.392 . S
C728 C731 1.511 . S
C729 C725 1.376 . S
C729 C728 1.392 . S
C729 H741 0.929 . S
C730 C726 1.531 . S
C730 H742 0.960 . S
C730 H743 0.962 . S
C730 H744 0.960 . S
C731 C728 1.511 . S
C731 H745 0.961 1_655 S
C731 H746 0.961 . S
C731 H747 0.961 1_655 S
C732 C733 1.370 . S
C732 C734 1.363 . S
C732 H748 0.931 . S
C733 C732 1.370 . S
C733 C737 1.408 . S
C734 C732 1.363 . S
C734 C735 1.370 . S
C734 C738 1.524 . S
C735 C727 1.503 . S
C735 C734 1.370 . S
C735 C736 1.403 . S
C736 C735 1.403 . S
C736 C737 1.404 . S
C736 C739 1.539 1_565 S
C737 C733 1.408 . S
C737 C736 1.404 . S
C737 H749 0.930 1_565 S
C738 C734 1.524 . S
C738 H750 0.956 . S
C738 H751 0.961 . S
C738 H752 0.961 . S
C739 C736 1.539 1_545 S
C739 H753 0.958 . S
C739 H754 0.961 1_655 S
C739 H755 0.941 1_545 S
H740 C724 0.931 . S
H741 C729 0.929 . S
H742 C730 0.960 . S
H743 C730 0.962 . S
H744 C730 0.960 . S
H745 C731 0.961 1_455 S
H746 C731 0.961 . S
H747 C731 0.961 1_455 S
H748 C732 0.931 . S
H749 C737 0.930 1_545 S
H750 C738 0.956 . S
H751 C738 0.961 . S
H752 C738 0.961 . S
H753 C739 0.958 . S
H754 C739 0.961 1_455 S
H755 C739 0.941 1_565 S
C756 C757 1.391 . S
C756 C758 1.394 . S
C756 H772 0.931 . S
C757 C756 1.391 . S
C757 C761 1.376 . S
C758 C756 1.394 . S
C758 C759 1.369 . S
C758 C762 1.531 . S
C759 C758 1.369 . S
C759 C760 1.410 . S
C759 C767 1.503 . S
C760 C759 1.410 . S
C760 C761 1.392 . S
C760 C763 1.511 . S
C761 C757 1.376 . S
C761 C760 1.392 . S
C761 H773 0.929 . S
C762 C758 1.531 . S
C762 H774 0.960 . S
C762 H775 0.962 . S
C762 H776 0.960 . S
C763 C760 1.511 . S
C763 H777 0.961 . S
C763 H778 0.961 . S
C763 H779 0.961 . S
C764 C765 1.370 . S
C764 C766 1.363 . S
C764 H780 0.931 . S
C765 C764 1.370 . S
C765 C769 1.408 . S
C766 C764 1.363 . S
C766 C767 1.370 . S
C766 C770 1.524 . S
C767 C759 1.503 . S
C767 C766 1.370 . S
C767 C768 1.403 . S
C768 C767 1.403 . S
C768 C769 1.404 . S
C768 C771 1.539 . S
C769 C765 1.408 . S
C769 C768 1.404 . S
C769 H781 0.930 . S
C770 C766 1.524 . S
C770 H782 0.956 . S
C770 H783 0.961 . S
C770 H784 0.977 . S
C771 C768 1.539 . S
C771 H785 0.958 . S
C771 H786 0.961 . S
C771 H787 0.960 . S
H772 C756 0.931 . S
H773 C761 0.929 . S
H774 C762 0.960 . S
H775 C762 0.962 . S
H776 C762 0.960 . S
H777 C763 0.961 . S
H778 C763 0.961 . S
H779 C763 0.961 . S
H780 C764 0.931 . S
H781 C769 0.930 . S
H782 C770 0.956 . S
H783 C770 0.961 . S
H784 C770 0.977 . S
H785 C771 0.958 . S
H786 C771 0.961 . S
H787 C771 0.960 . S
C788 C789 1.391 . S
C788 C790 1.394 . S
C788 H804 0.931 . S
C789 C788 1.391 . S
C789 C793 1.376 . S
C790 C788 1.394 . S
C790 C791 1.369 . S
C790 C794 1.531 . S
C791 C790 1.369 . S
C791 C792 1.410 . S
C791 C799 1.503 . S
C792 C791 1.410 . S
C792 C793 1.392 . S
C792 C795 1.511 . S
C793 C789 1.376 . S
C793 C792 1.392 . S
C793 H805 0.929 . S
C794 C790 1.531 . S
C794 H806 0.960 . S
C794 H807 0.962 . S
C794 H808 0.960 . S
C795 C792 1.511 . S
C795 H809 0.961 . S
C795 H810 0.961 . S
C795 H811 0.961 . S
C796 C797 1.370 . S
C796 C798 1.363 . S
C796 H812 0.931 . S
C797 C796 1.370 . S
C797 C801 1.408 . S
C798 C796 1.363 . S
C798 C799 1.370 . S
C798 C802 1.524 . S
C799 C791 1.503 . S
C799 C798 1.370 . S
C799 C800 1.403 . S
C800 C799 1.403 . S
C800 C801 1.404 . S
C800 C803 1.539 . S
C801 C797 1.408 . S
C801 C800 1.404 . S
C801 H813 0.930 . S
C802 C798 1.524 . S
C802 H814 0.956 . S
C802 H815 0.961 . S
C802 H816 0.961 . S
C803 C800 1.539 . S
C803 H817 0.958 . S
C803 H818 0.961 . S
C803 H819 0.960 . S
H804 C788 0.931 . S
H805 C793 0.929 . S
H806 C794 0.960 . S
H807 C794 0.962 . S
H808 C794 0.960 . S
H809 C795 0.961 . S
H810 C795 0.961 . S
H811 C795 0.961 . S
H812 C796 0.931 . S
H813 C801 0.930 . S
H814 C802 0.956 . S
H815 C802 0.961 . S
H816 C802 0.961 . S
H817 C803 0.958 . S
H818 C803 0.961 . S
H819 C803 0.960 . S
C820 C821 1.391 . S
C820 C822 1.394 . S
C820 H836 0.931 . S
C821 C820 1.391 . S
C821 C825 1.376 . S
C822 C820 1.394 . S
C822 C823 1.369 . S
C822 C826 1.531 . S
C823 C822 1.369 . S
C823 C824 1.410 . S
C823 C831 1.503 . S
C824 C823 1.410 . S
C824 C825 1.392 . S
C824 C827 1.511 . S
C825 C821 1.376 . S
C825 C824 1.392 . S
C825 H837 0.929 . S
C826 C822 1.531 . S
C826 H838 0.960 . S
C826 H839 0.962 . S
C826 H840 0.960 . S
C827 C824 1.511 . S
C827 H841 0.952 1_455 S
C827 H842 0.961 . S
C827 H843 0.961 . S
C828 C829 1.370 . S
C828 C830 1.363 . S
C828 H844 0.931 . S
C829 C828 1.370 . S
C829 C833 1.408 . S
C830 C828 1.363 . S
C830 C831 1.370 . S
C830 C834 1.524 . S
C831 C823 1.503 . S
C831 C830 1.370 . S
C831 C832 1.403 . S
C832 C831 1.403 . S
C832 C833 1.404 . S
C832 C835 1.539 . S
C833 C829 1.408 . S
C833 C832 1.404 . S
C833 H845 0.930 . S
C834 C830 1.524 . S
C834 H846 0.956 . S
C834 H847 0.961 . S
C834 H848 0.961 . S
C835 C832 1.539 . S
C835 H849 0.958 . S
C835 H850 0.961 . S
C835 H851 0.960 . S
H836 C820 0.931 . S
H837 C825 0.929 . S
H838 C826 0.960 . S
H839 C826 0.962 . S
H840 C826 0.960 . S
H841 C827 0.952 1_655 S
H842 C827 0.961 . S
H843 C827 0.961 . S
H844 C828 0.931 . S
H845 C833 0.930 . S
H846 C834 0.956 . S
H847 C834 0.961 . S
H848 C834 0.961 . S
H849 C835 0.958 . S
H850 C835 0.961 . S
H851 C835 0.960 . S
C852 C853 1.391 . S
C852 C854 1.394 . S
C852 H868 0.931 . S
C853 C852 1.391 . S
C853 C857 1.376 . S
C854 C852 1.394 . S
C854 C855 1.369 . S
C854 C858 1.531 . S
C855 C854 1.369 . S
C855 C856 1.410 . S
C855 C863 1.503 . S
C856 C855 1.410 . S
C856 C857 1.392 . S
C856 C859 1.511 1_556 S
C857 C853 1.376 . S
C857 C856 1.392 . S
C857 H869 0.929 . S
C858 C854 1.531 . S
C858 H870 0.960 . S
C858 H871 0.962 . S
C858 H872 0.960 . S
C859 C856 1.511 1_554 S
C859 H873 0.961 . S
C859 H874 0.964 . S
C859 H875 0.961 . S
C860 C861 1.370 . S
C860 C862 1.363 . S
C860 H876 0.931 1_565 S
C861 C860 1.370 . S
C861 C865 1.408 . S
C862 C860 1.363 . S
C862 C863 1.370 . S
C862 C866 1.524 1_565 S
C863 C855 1.503 . S
C863 C862 1.370 . S
C863 C864 1.403 . S
C864 C863 1.403 . S
C864 C865 1.404 . S
C864 C867 1.539 . S
C865 C861 1.408 . S
C865 C864 1.404 . S
C865 H877 0.930 . S
C866 C862 1.524 1_545 S
C866 H878 0.956 1_545 S
C866 H879 0.961 . S
C866 H880 0.961 . S
C867 C864 1.539 . S
C867 H881 0.958 . S
C867 H882 0.961 1_556 S
C867 H883 0.960 . S
H868 C852 0.931 . S
H869 C857 0.929 . S
H870 C858 0.960 . S
H871 C858 0.962 . S
H872 C858 0.960 . S
H873 C859 0.961 . S
H874 C859 0.964 . S
H875 C859 0.961 . S
H876 C860 0.931 1_545 S
H877 C865 0.930 . S
H878 C866 0.956 1_565 S
H879 C866 0.961 . S
H880 C866 0.961 . S
H881 C867 0.958 . S
H882 C867 0.961 1_554 S
H883 C867 0.960 . S
C884 C885 1.391 . S
C884 C886 1.394 . S
C884 H900 0.931 . S
C885 C884 1.391 . S
C885 C889 1.376 . S
C886 C884 1.394 . S
C886 C887 1.369 . S
C886 C890 1.531 . S
C887 C886 1.369 . S
C887 C888 1.410 . S
C887 C895 1.503 . S
C888 C887 1.410 . S
C888 C889 1.392 . S
C888 C891 1.511 . S
C889 C885 1.376 . S
C889 C888 1.392 . S
C889 H901 0.929 . S
C890 C886 1.531 . S
C890 H902 0.960 . S
C890 H903 0.962 . S
C890 H904 0.960 . S
C891 C888 1.511 . S
C891 H905 0.961 . S
C891 H906 0.961 . S
C891 H907 0.961 . S
C892 C893 1.370 . S
C892 C894 1.363 . S
C892 H908 0.931 . S
C893 C892 1.370 . S
C893 C897 1.408 . S
C894 C892 1.363 . S
C894 C895 1.370 . S
C894 C898 1.524 . S
C895 C887 1.503 . S
C895 C894 1.370 . S
C895 C896 1.403 . S
C896 C895 1.403 . S
C896 C897 1.404 . S
C896 C899 1.539 . S
C897 C893 1.408 . S
C897 C896 1.404 . S
C897 H909 0.930 . S
C898 C894 1.524 . S
C898 H910 0.956 . S
C898 H911 0.961 . S
C898 H912 0.961 . S
C899 C896 1.539 . S
C899 H913 0.958 . S
C899 H914 0.961 . S
C899 H915 0.960 . S
H900 C884 0.931 . S
H901 C889 0.929 . S
H902 C890 0.960 . S
H903 C890 0.962 . S
H904 C890 0.960 . S
H905 C891 0.961 . S
H906 C891 0.961 . S
H907 C891 0.961 . S
H908 C892 0.931 . S
H909 C897 0.930 . S
H910 C898 0.956 . S
H911 C898 0.961 . S
H912 C898 0.961 . S
H913 C899 0.958 . S
H914 C899 0.961 . S
H915 C899 0.960 . S
C916 C917 1.391 . S
C916 C918 1.394 . S
C916 H932 0.931 . S
C917 C916 1.391 . S
C917 C921 1.376 . S
C918 C916 1.394 . S
C918 C919 1.369 . S
C918 C922 1.531 . S
C919 C918 1.369 . S
C919 C920 1.410 . S
C919 C927 1.503 . S
C920 C919 1.410 . S
C920 C921 1.392 . S
C920 C923 1.511 . S
C921 C917 1.376 . S
C921 C920 1.392 . S
C921 H933 0.929 . S
C922 C918 1.531 . S
C922 H934 0.960 . S
C922 H935 0.962 . S
C922 H936 0.960 . S
C923 C920 1.511 . S
C923 H937 0.961 . S
C923 H938 0.961 . S
C923 H939 0.961 . S
C924 C925 1.370 . S
C924 C926 1.363 . S
C924 H940 0.931 . S
C925 C924 1.370 . S
C925 C929 1.408 . S
C926 C924 1.363 . S
C926 C927 1.370 . S
C926 C930 1.524 . S
C927 C919 1.503 . S
C927 C926 1.370 . S
C927 C928 1.403 . S
C928 C927 1.403 . S
C928 C929 1.404 . S
C928 C931 1.539 . S
C929 C925 1.408 . S
C929 C928 1.404 . S
C929 H941 0.930 . S
C930 C926 1.524 . S
C930 H942 0.956 . S
C930 H943 0.961 . S
C930 H944 0.961 . S
C931 C928 1.539 . S
C931 H945 0.958 . S
C931 H946 0.961 . S
C931 H947 0.960 . S
H932 C916 0.931 . S
H933 C921 0.929 . S
H934 C922 0.960 . S
H935 C922 0.962 . S
H936 C922 0.960 . S
H937 C923 0.961 . S
H938 C923 0.961 . S
H939 C923 0.961 . S
H940 C924 0.931 . S
H941 C929 0.930 . S
H942 C930 0.956 . S
H943 C930 0.961 . S
H944 C930 0.961 . S
H945 C931 0.958 . S
H946 C931 0.961 . S
H947 C931 0.960 . S
C948 C949 1.391 . S
C948 C950 1.394 . S
C948 H964 0.931 . S
C949 C948 1.391 . S
C949 C953 1.376 . S
C950 C948 1.394 . S
C950 C951 1.369 . S
C950 C954 1.531 . S
C951 C950 1.369 . S
C951 C952 1.410 . S
C951 C959 1.503 . S
C952 C951 1.410 . S
C952 C953 1.392 . S
C952 C955 1.511 . S
C953 C949 1.376 . S
C953 C952 1.392 . S
C953 H965 0.929 . S
C954 C950 1.531 . S
C954 H966 0.960 . S
C954 H967 0.962 . S
C954 H968 0.960 . S
C955 C952 1.511 . S
C955 H969 0.961 . S
C955 H970 0.961 . S
C955 H971 0.961 . S
C956 C957 1.370 . S
C956 C958 1.363 . S
C956 H972 0.931 . S
C957 C956 1.370 . S
C957 C961 1.408 . S
C958 C956 1.363 . S
C958 C959 1.370 . S
C958 C962 1.524 . S
C959 C951 1.503 . S
C959 C958 1.370 . S
C959 C960 1.403 . S
C960 C959 1.403 . S
C960 C961 1.404 . S
C960 C963 1.539 . S
C961 C957 1.408 . S
C961 C960 1.404 . S
C961 H973 0.930 . S
C962 C958 1.524 . S
C962 H974 0.956 . S
C962 H975 0.961 . S
C962 H976 0.961 . S
C963 C960 1.539 . S
C963 H977 0.958 . S
C963 H978 0.961 . S
C963 H979 0.960 . S
H964 C948 0.931 . S
H965 C953 0.929 . S
H966 C954 0.960 . S
H967 C954 0.962 . S
H968 C954 0.960 . S
H969 C955 0.961 . S
H970 C955 0.961 . S
H971 C955 0.961 . S
H972 C956 0.931 . S
H973 C961 0.930 . S
H974 C962 0.956 . S
H975 C962 0.961 . S
H976 C962 0.961 . S
H977 C963 0.958 . S
H978 C963 0.961 . S
H979 C963 0.960 . S
C980 C981 1.391 . S
C980 C982 1.394 . S
C980 H996 0.931 . S
C981 C980 1.391 . S
C981 C985 1.376 . S
C982 C980 1.394 . S
C982 C983 1.369 . S
C982 C986 1.531 . S
C983 C982 1.369 . S
C983 C984 1.410 . S
C983 C991 1.503 . S
C984 C983 1.410 . S
C984 C985 1.392 . S
C984 C987 1.511 . S
C985 C981 1.376 . S
C985 C984 1.392 . S
C985 H997 0.929 . S
C986 C982 1.531 . S
C986 H998 0.960 . S
C986 H999 0.962 . S
C986 H1000 0.960 . S
C987 C984 1.511 . S
C987 H1001 0.961 . S
C987 H1002 0.961 . S
C987 H1003 0.961 1_655 S
C988 C989 1.370 . S
C988 C990 1.363 . S
C988 H1004 0.931 1_556 S
C989 C988 1.370 . S
C989 C993 1.408 . S
C990 C988 1.363 . S
C990 C991 1.370 . S
C990 C994 1.525 . S
C991 C983 1.503 . S
C991 C990 1.370 . S
C991 C992 1.403 . S
C992 C991 1.403 . S
C992 C993 1.404 . S
C992 C995 1.539 . S
C993 C989 1.408 . S
C993 C992 1.404 . S
C993 H1005 0.930 . S
C994 C990 1.525 . S
C994 H1006 0.957 . S
C994 H1007 0.960 1_556 S
C994 H1008 0.960 1_556 S
C995 C992 1.539 . S
C995 H1009 0.958 . S
C995 H1010 0.961 1_655 S
C995 H1011 0.960 . S
H996 C980 0.931 . S
H997 C985 0.929 . S
H998 C986 0.960 . S
H999 C986 0.962 . S
H1000 C986 0.960 . S
H1001 C987 0.961 . S
H1002 C987 0.961 . S
H1003 C987 0.961 1_455 S
H1004 C988 0.931 1_554 S
H1005 C993 0.930 . S
H1006 C994 0.957 . S
H1007 C994 0.960 1_554 S
H1008 C994 0.960 1_554 S
H1009 C995 0.958 . S
H1010 C995 0.961 1_455 S
H1011 C995 0.960 . S
C1012 C1013 1.391 . S
C1012 C1014 1.394 . S
C1012 H1028 0.931 . S
C1013 C1012 1.391 . S
C1013 C1017 1.376 . S
C1014 C1012 1.394 . S
C1014 C1015 1.369 . S
C1014 C1018 1.531 . S
C1015 C1014 1.369 . S
C1015 C1016 1.410 . S
C1015 C1023 1.503 . S
C1016 C1015 1.410 . S
C1016 C1017 1.392 . S
C1016 C1019 1.511 . S
C1017 C1013 1.376 . S
C1017 C1016 1.392 . S
C1017 H1029 0.929 . S
C1018 C1014 1.531 . S
C1018 H1030 0.960 . S
C1018 H1031 0.962 . S
C1018 H1032 0.960 . S
C1019 C1016 1.511 . S
C1019 H1033 0.961 . S
C1019 H1034 0.961 . S
C1019 H1035 0.961 . S
C1020 C1021 1.370 . S
C1020 C1022 1.363 . S
C1020 H1036 0.931 . S
C1021 C1020 1.370 . S
C1021 C1025 1.408 . S
C1022 C1020 1.363 . S
C1022 C1023 1.370 . S
C1022 C1026 1.524 . S
C1023 C1015 1.503 . S
C1023 C1022 1.370 . S
C1023 C1024 1.403 . S
C1024 C1023 1.403 . S
C1024 C1025 1.404 . S
C1024 C1027 1.539 . S
C1025 C1021 1.408 . S
C1025 C1024 1.404 . S
C1025 H1037 0.930 . S
C1026 C1022 1.524 . S
C1026 H1038 0.956 . S
C1026 H1039 0.961 . S
C1026 H1040 0.961 . S
C1027 C1024 1.539 . S
C1027 H1041 0.982 . S
C1027 H1042 0.961 . S
C1027 H1043 0.960 . S
H1028 C1012 0.931 . S
H1029 C1017 0.929 . S
H1030 C1018 0.960 . S
H1031 C1018 0.962 . S
H1032 C1018 0.960 . S
H1033 C1019 0.961 . S
H1034 C1019 0.961 . S
H1035 C1019 0.961 . S
H1036 C1020 0.931 . S
H1037 C1025 0.930 . S
H1038 C1026 0.956 . S
H1039 C1026 0.961 . S
H1040 C1026 0.961 . S
H1041 C1027 0.982 . S
H1042 C1027 0.961 . S
H1043 C1027 0.960 . S
C1044 C1045 1.391 . S
C1044 C1046 1.394 . S
C1044 H1060 0.931 . S
C1045 C1044 1.391 . S
C1045 C1049 1.376 . S
C1046 C1044 1.394 . S
C1046 C1047 1.369 . S
C1046 C1050 1.531 . S
C1047 C1046 1.369 . S
C1047 C1048 1.410 . S
C1047 C1055 1.503 . S
C1048 C1047 1.410 . S
C1048 C1049 1.392 . S
C1048 C1051 1.511 1_455 S
C1049 C1045 1.376 . S
C1049 C1048 1.392 . S
C1049 H1061 0.929 . S
C1050 C1046 1.531 . S
C1050 H1062 0.960 . S
C1050 H1063 0.962 . S
C1050 H1064 0.960 . S
C1051 C1048 1.511 1_655 S
C1051 H1065 0.961 . S
C1051 H1066 0.961 . S
C1051 H1067 0.961 . S
C1052 C1053 1.370 . S
C1052 C1054 1.363 . S
C1052 H1068 0.931 . S
C1053 C1052 1.370 . S
C1053 C1057 1.408 . S
C1054 C1052 1.363 . S
C1054 C1055 1.370 . S
C1054 C1058 1.524 . S
C1055 C1047 1.503 . S
C1055 C1054 1.370 . S
C1055 C1056 1.403 . S
C1056 C1055 1.403 . S
C1056 C1057 1.404 . S
C1056 C1059 1.539 . S
C1057 C1053 1.408 . S
C1057 C1056 1.404 . S
C1057 H1069 0.930 . S
C1058 C1054 1.524 . S
C1058 H1070 0.956 . S
C1058 H1071 0.961 . S
C1058 H1072 0.961 . S
C1059 C1056 1.539 . S
C1059 H1073 0.958 . S
C1059 H1074 0.961 1_455 S
C1059 H1075 0.960 . S
H1060 C1044 0.931 . S
H1061 C1049 0.929 . S
H1062 C1050 0.960 . S
H1063 C1050 0.962 . S
H1064 C1050 0.960 . S
H1065 C1051 0.961 . S
H1066 C1051 0.961 . S
H1067 C1051 0.961 . S
H1068 C1052 0.931 . S
H1069 C1057 0.930 . S
H1070 C1058 0.956 . S
H1071 C1058 0.961 . S
H1072 C1058 0.961 . S
H1073 C1059 0.958 . S
H1074 C1059 0.961 1_655 S
H1075 C1059 0.960 . S
C1076 C1077 1.391 . S
C1076 C1078 1.394 . S
C1076 H1092 0.931 . S
C1077 C1076 1.391 . S
C1077 C1081 1.376 . S
C1078 C1076 1.394 . S
C1078 C1079 1.369 . S
C1078 C1082 1.531 . S
C1079 C1078 1.369 . S
C1079 C1080 1.410 . S
C1079 C1087 1.503 . S
C1080 C1079 1.410 . S
C1080 C1081 1.392 . S
C1080 C1083 1.511 . S
C1081 C1077 1.376 . S
C1081 C1080 1.392 . S
C1081 H1093 0.929 . S
C1082 C1078 1.531 . S
C1082 H1094 0.960 . S
C1082 H1095 0.962 . S
C1082 H1096 0.960 . S
C1083 C1080 1.511 . S
C1083 H1097 0.961 . S
C1083 H1098 0.961 . S
C1083 H1099 0.961 . S
C1084 C1085 1.370 . S
C1084 C1086 1.363 . S
C1084 H1100 0.931 . S
C1085 C1084 1.370 . S
C1085 C1089 1.408 . S
C1086 C1084 1.363 . S
C1086 C1087 1.370 . S
C1086 C1090 1.524 . S
C1087 C1079 1.503 . S
C1087 C1086 1.370 . S
C1087 C1088 1.403 . S
C1088 C1087 1.403 . S
C1088 C1089 1.404 . S
C1088 C1091 1.539 . S
C1089 C1085 1.408 . S
C1089 C1088 1.404 . S
C1089 H1101 0.930 . S
C1090 C1086 1.524 . S
C1090 H1102 0.956 . S
C1090 H1103 0.961 . S
C1090 H1104 0.961 . S
C1091 C1088 1.539 . S
C1091 H1105 0.958 . S
C1091 H1106 0.961 . S
C1091 H1107 0.960 . S
H1092 C1076 0.931 . S
H1093 C1081 0.929 . S
H1094 C1082 0.960 . S
H1095 C1082 0.962 . S
H1096 C1082 0.960 . S
H1097 C1083 0.961 . S
H1098 C1083 0.961 . S
H1099 C1083 0.961 . S
H1100 C1084 0.931 . S
H1101 C1089 0.930 . S
H1102 C1090 0.956 . S
H1103 C1090 0.961 . S
H1104 C1090 0.961 . S
H1105 C1091 0.958 . S
H1106 C1091 0.961 . S
H1107 C1091 0.960 . S
C341 C29 1.566 . S
C349 C272 1.597 . S
C373 C49 1.457 . S
C381 C294 1.416 . S
C413 C313 1.216 . S
C405 C93 1.417 . S
C437 C119 1.627 . S
C445 C334 1.425 . S
C477 C291 1.716 . S
C469 C17 1.702 . S
C509 C269 1.670 . S
C501 C61 1.739 . S
C541 C336 1.284 . S
C533 C81 1.266 . S
C573 C315 1.460 . S
C565 C125 1.454 . S
C597 C23 1.663 . S
C605 C333 1.652 . S
C637 C292 1.266 . S
C629 C87 1.539 . S
C661 C113 1.625 . S
C669 C274 1.523 . S
C693 C55 1.507 . S
C701 C312 1.495 . S
C733 C270 1.530 . S
C725 C157 1.591 . S
C757 C189 1.240 . S
C765 C290 1.285 . S
C789 C221 1.508 . S
C797 C316 1.289 . S
C821 C253 1.613 . S
C829 C337 1.396 . S
C853 C145 1.752 . S
C861 C293 1.712 . S
C893 C273 1.658 . S
C885 C183 1.628 . S
C925 C332 1.213 . S
C917 C209 1.283 . S
C957 C311 1.499 . S
C949 C247 1.478 . S
C981 C151 1.541 . S
C989 C335 1.500 . S
C1021 C295 1.235 . S
C1013 C215 1.481 . S
C1053 C271 1.327 . S
C1045 C241 1.413 . S
C1077 C177 1.372 . S
C1085 C314 1.425 . S
