# Generated by pormake.
# Topology apo, (3,6)-cn, num edge types: 1
# Building blocks:
#     Node 0, Type 0, BuildingBlock: BETDIP_clean_linker_0, # of connection points: 3
#     Node 1, Type 0, BuildingBlock: BETDIP_clean_linker_0, # of connection points: 3
#     Node 2, Type 0, BuildingBlock: BETDIP_clean_linker_0, # of connection points: 3
#     Node 3, Type 0, BuildingBlock: BETDIP_clean_linker_0, # of connection points: 3
#     Node 4, Type 0, BuildingBlock: BETDIP_clean_linker_0, # of connection points: 3
#     Node 5, Type 0, BuildingBlock: BETDIP_clean_linker_0, # of connection points: 3
#     Node 6, Type 0, BuildingBlock: BETDIP_clean_linker_0, # of connection points: 3
#     Node 7, Type 0, BuildingBlock: BETDIP_clean_linker_0, # of connection points: 3
#     Node 8, Type 1, BuildingBlock: KUMBUR_clean_sbu_1, # of connection points: 6
#     Node 9, Type 1, BuildingBlock: KUMBUR_clean_sbu_1, # of connection points: 6
#     Node 10, Type 1, BuildingBlock: KUMBUR_clean_sbu_1, # of connection points: 6
#     Node 11, Type 1, BuildingBlock: KUMBUR_clean_sbu_1, # of connection points: 6
#     Edge 12, Type (0, 1), None
#     Edge 13, Type (0, 1), None
#     Edge 14, Type (0, 1), None
#     Edge 15, Type (0, 1), None
#     Edge 16, Type (0, 1), None
#     Edge 17, Type (0, 1), None
#     Edge 18, Type (0, 1), None
#     Edge 19, Type (0, 1), None
#     Edge 20, Type (0, 1), None
#     Edge 21, Type (0, 1), None
#     Edge 22, Type (0, 1), None
#     Edge 23, Type (0, 1), None
#     Edge 24, Type (0, 1), None
#     Edge 25, Type (0, 1), None
#     Edge 26, Type (0, 1), None
#     Edge 27, Type (0, 1), None
#     Edge 28, Type (0, 1), None
#     Edge 29, Type (0, 1), None
#     Edge 30, Type (0, 1), None
#     Edge 31, Type (0, 1), None
#     Edge 32, Type (0, 1), None
#     Edge 33, Type (0, 1), None
#     Edge 34, Type (0, 1), None
#     Edge 35, Type (0, 1), None
# Relax obj value: 0.038
# Max RMSD: 0.265
# Mean RMSD: 0.199
data_MOF--net-apo--node1-KUMBUR_clean_sbu_1--node2-BETDIP_clean_linker_0--edge1-none
_symmetry_space_group_name_H-M    P1
_symmetry_Int_Tables_number       1
_symmetry_cell_setting            triclinic
loop_
_symmetry_equiv_pos_as_xyz
'x, y, z'
_cell_length_a     12.633217
_cell_length_b     17.915581
_cell_length_c     26.666691
_cell_angle_alpha  89.999378
_cell_angle_beta   89.999942
_cell_angle_gamma 89.699252
loop_
_atom_site_label
_atom_site_type_symbol
_atom_site_fract_x
_atom_site_fract_y
_atom_site_fract_z
_atom_type_partial_charge
H0 H 0.23737 0.34229 0.4672 0.0
H1 H 0.39522 0.35811 0.3246 0.0
H2 H 0.39071 0.54571 0.42423 0.0
H3 H 0.33813 0.24591 0.31399 0.0
C4 C 0.27207 0.23247 0.3381 0.0
C5 C 0.28472 0.37316 0.44047 0.0
C6 C 0.31997 0.44527 0.45276 0.0
C7 C 0.30609 0.34165 0.39321 0.0
C8 C 0.36941 0.38276 0.35915 0.0
C9 C 0.39809 0.45732 0.36906 0.0
C10 C 0.37136 0.48829 0.41595 0.0
N11 N 0.25315 0.27354 0.37969 0.0
H12 H 0.29668 0.16772 0.9672 0.0
H13 H 0.13883 0.15191 0.8246 0.0
H14 H 0.14333 0.9643 0.92423 0.0
H15 H 0.19592 0.26411 0.81399 0.0
C16 C 0.26198 0.27755 0.8381 0.0
C17 C 0.24933 0.13686 0.94047 0.0
C18 C 0.21407 0.06475 0.95276 0.0
C19 C 0.22796 0.16836 0.89321 0.0
C20 C 0.16463 0.12726 0.85915 0.0
C21 C 0.13596 0.0527 0.86906 0.0
C22 C 0.16269 0.02173 0.91595 0.0
N23 N 0.2809 0.23648 0.87969 0.0
H24 H 0.68592 0.20594 0.6049 0.0
H25 H 0.74775 0.13837 0.75695 0.0
H26 H 0.87426 0.01144 0.63283 0.0
H27 H 0.58841 0.19247 0.76443 0.0
C28 C 0.58356 0.23915 0.73856 0.0
C29 C 0.72495 0.16869 0.63126 0.0
C30 C 0.78346 0.10816 0.61357 0.0
C31 C 0.70808 0.17876 0.68216 0.0
C32 C 0.75774 0.13002 0.71711 0.0
C33 C 0.82077 0.06989 0.70016 0.0
C34 C 0.83159 0.05913 0.64766 0.0
N35 N 0.63949 0.23831 0.69614 0.0
H36 H 0.84813 0.30408 0.1049 0.0
H37 H 0.7863 0.37165 0.25695 0.0
H38 H 0.65978 0.49858 0.13283 0.0
H39 H 0.94564 0.31755 0.26443 0.0
C40 C 0.95049 0.27087 0.23856 0.0
C41 C 0.8091 0.34133 0.13126 0.0
C42 C 0.75058 0.40186 0.11357 0.0
C43 C 0.82597 0.33126 0.18216 0.0
C44 C 0.7763 0.38001 0.21711 0.0
C45 C 0.71327 0.44013 0.20016 0.0
C46 C 0.70245 0.45089 0.14766 0.0
N47 N 0.89455 0.27172 0.19614 0.0
H48 H 0.79853 0.64081 0.59796 0.0
H49 H 0.71506 0.63007 0.75442 0.0
H50 H 0.61753 0.45608 0.65582 0.0
H51 H 0.71123 0.75736 0.74013 0.0
C52 C 0.78811 0.7639 0.72246 0.0
C53 C 0.75962 0.61216 0.62854 0.0
C54 C 0.7047 0.54484 0.61978 0.0
C55 C 0.76311 0.64402 0.6767 0.0
C56 C 0.71295 0.60697 0.71689 0.0
C57 C 0.66076 0.53923 0.70901 0.0
C58 C 0.65894 0.50798 0.66102 0.0
N59 N 0.81798 0.71264 0.68417 0.0
H60 H 0.73552 0.86922 0.09796 0.0
H61 H 0.81899 0.87996 0.25442 0.0
H62 H 0.91653 0.05395 0.15582 0.0
H63 H 0.82281 0.75267 0.24013 0.0
C64 C 0.74593 0.74613 0.22246 0.0
C65 C 0.77443 0.89787 0.12854 0.0
C66 C 0.82936 0.96518 0.11978 0.0
C67 C 0.77094 0.86601 0.1767 0.0
C68 C 0.8211 0.90305 0.21689 0.0
C69 C 0.87329 0.97079 0.20901 0.0
C70 C 0.87511 1.00204 0.16102 0.0
N71 N 0.71607 0.79738 0.18417 0.0
H72 H 0.30379 0.78592 0.46553 0.0
H73 H 0.33156 0.90845 0.32658 0.0
H74 H 0.10056 0.97206 0.43485 0.0
H75 H 0.40371 0.81036 0.30166 0.0
C76 C 0.44087 0.7767 0.33029 0.0
C77 C 0.28035 0.83154 0.44119 0.0
C78 C 0.19471 0.8775 0.45449 0.0
C79 C 0.33223 0.84182 0.39517 0.0
C80 C 0.29567 0.89911 0.36239 0.0
C81 C 0.20978 0.94489 0.37531 0.0
C82 C 0.16382 0.93557 0.42276 0.0
N83 N 0.41384 0.79006 0.3812 0.0
H84 H 0.23026 0.7241 0.96553 0.0
H85 H 0.20249 0.60157 0.82658 0.0
H86 H 0.4335 0.53796 0.93485 0.0
H87 H 0.13033 0.69965 0.80166 0.0
C88 C 0.09317 0.73332 0.83029 0.0
C89 C 0.2537 0.67848 0.94119 0.0
C90 C 0.33935 0.63252 0.95449 0.0
C91 C 0.20182 0.6682 0.89517 0.0
C92 C 0.23839 0.61091 0.86239 0.0
C93 C 0.32428 0.56513 0.87531 0.0
C94 C 0.37024 0.57445 0.92276 0.0
N95 N 0.12021 0.71996 0.8812 0.0
Tb96 Tb 0.15314 0.06893 0.22487 0.0
C97 C 0.71406 0.08664 0.32451 0.0
N98 N 0.79003 0.14009 0.32145 0.0
C99 C 0.65902 0.22919 0.29444 0.0
C100 C 0.60763 0.10262 0.31232 0.0
C101 C 0.76267 0.21136 0.30872 0.0
C102 C 0.58137 0.17427 0.29557 0.0
C103 C 0.6634 0.96385 0.35365 0.0
C104 C 0.74205 0.01754 0.34429 0.0
C105 C 0.55848 0.97871 0.34003 0.0
C106 C 0.53021 0.04793 0.31967 0.0
Tb107 Tb 0.95678 0.10465 0.34677 0.0
N108 N 0.84402 0.00631 0.35922 0.0
C109 C 0.69068 0.89922 0.38002 0.0
C110 C 0.86918 0.94497 0.38738 0.0
C111 C 0.79325 0.89094 0.39824 0.0
H112 H 0.81945 0.25521 0.3113 0.0
H113 H 0.81381 0.84315 0.42114 0.0
H114 H 0.29396 0.91446 0.24151 0.0
H115 H 0.24054 0.31987 0.12231 0.0
H116 H 0.94661 0.93789 0.40312 0.0
H117 H 0.63202 0.85722 0.38867 0.0
H118 H 0.12705 0.23283 0.16921 0.0
H119 H 0.6383 0.28577 0.28396 0.0
H120 H 0.49843 0.9378 0.34711 0.0
H121 H 0.44782 0.05937 0.31123 0.0
H122 H 0.48081 0.87436 0.23121 0.0
H123 H 0.50083 0.18843 0.28526 0.0
H124 H 0.4332 0.29591 0.11581 0.0
N125 N 0.32355 0.02664 0.21981 0.0
C126 C 0.3944 0.07514 0.20003 0.0
C127 C 0.45764 0.93131 0.22314 0.0
C128 C 0.50088 0.0542 0.19234 0.0
C129 C 0.35262 0.95453 0.22968 0.0
C130 C 0.53233 0.98182 0.20519 0.0
N131 N 0.2537 0.16013 0.18941 0.0
C132 C 0.21102 0.22214 0.16732 0.0
C133 C 0.42654 0.19295 0.15823 0.0
C134 C 0.35807 0.14391 0.18375 0.0
C135 C 0.38366 0.25737 0.1364 0.0
C136 C 0.27494 0.27106 0.13997 0.0
H137 H 0.61331 0.96405 0.20018 0.0
H138 H 0.65383 0.09018 0.16474 0.0
H139 H 0.58836 0.21169 0.13435 0.0
O140 O 0.10753 0.08384 0.14911 0.0
O141 O 0.21929 0.15383 0.27448 0.0
O142 O 0.1164 0.16073 0.34876 0.0
O143 O 0.15782 0.97649 0.176 0.0
O144 O 0.01741 0.14912 0.22485 0.0
O145 O 1.00447 0.20081 0.30416 0.0
O146 O 0.98227 0.08495 0.42387 0.0
O147 O 0.89545 0.06164 0.27492 0.0
O148 O 0.03599 0.99074 0.25227 0.0
O149 O 0.88748 0.17732 0.39951 0.0
O150 O 0.05599 0.00578 0.34569 0.0
O151 O 0.20653 0.01534 0.29633 0.0
C152 C 0.20198 0.17711 0.32098 0.0
C153 C 0.20457 0.00767 0.09137 0.0
C154 C 0.24158 0.03104 1.00206 0.0
C155 C 0.3321 0.98582 1.00559 0.0
C156 C 0.29571 0.96221 0.09334 0.0
C157 C 0.35901 0.95192 0.05095 0.0
C158 C 0.17804 0.04226 0.04519 0.0
C159 C 0.99929 0.20627 0.25537 0.0
C160 C 0.13526 0.01637 0.13648 0.0
C161 C 0.57136 0.10498 0.17029 0.0
C162 C 0.53413 0.17419 0.15307 0.0
C163 C 0.93505 0.00542 0.24957 0.0
C164 C 0.83485 0.11615 0.47412 0.0
C165 C 0.77617 0.09161 0.55964 0.0
C166 C 0.67743 0.06888 0.54115 0.0
C167 C 0.73237 0.09937 0.45733 0.0
C168 C 0.85633 0.11311 0.52593 0.0
C169 C 0.65558 0.07322 0.49019 0.0
C170 C 0.15811 0.99685 0.3389 0.0
C171 C 0.91791 0.13783 0.43784 0.0
H172 H 0.38184 0.9765 0.97306 0.0
H173 H 0.31803 0.93369 0.12747 0.0
H174 H 0.42887 0.91681 0.05318 0.0
H175 H 0.1078 0.07695 0.04264 0.0
H176 H 0.61476 0.05278 0.56666 0.0
H177 H 0.71017 0.10841 0.41913 0.0
H178 H 0.93261 0.13088 0.54007 0.0
H179 H 0.57752 0.05939 0.47638 0.0
Tb180 Tb 0.38091 0.44109 0.72487 0.0
C181 C 0.81999 0.42337 0.82451 0.0
N182 N 0.74402 0.36992 0.82145 0.0
C183 C 0.87503 0.28082 0.79444 0.0
C184 C 0.92642 0.40739 0.81232 0.0
C185 C 0.77137 0.29865 0.80873 0.0
C186 C 0.95268 0.33574 0.79557 0.0
C187 C 0.87065 0.54616 0.85365 0.0
C188 C 0.79201 0.49247 0.84428 0.0
C189 C 0.97558 0.5313 0.84003 0.0
C190 C 1.00385 0.46208 0.81967 0.0
Tb191 Tb 0.57727 0.40537 0.84677 0.0
N192 N 0.69003 0.50371 0.85922 0.0
C193 C 0.84339 0.61079 0.88001 0.0
C194 C 0.66487 0.56504 0.88738 0.0
C195 C 0.74081 0.61907 0.89823 0.0
H196 H 0.71459 0.2548 0.81131 0.0
H197 H 0.72026 0.66686 0.92114 0.0
H198 H 0.24008 0.59556 0.74151 0.0
H199 H 0.29352 0.19015 0.62231 0.0
H200 H 0.58745 0.57213 0.90312 0.0
H201 H 0.90204 0.65278 0.88866 0.0
H202 H 0.40701 0.2772 0.66921 0.0
H203 H 0.89575 0.22424 0.78396 0.0
H204 H 0.03563 0.5722 0.84711 0.0
H205 H 0.08623 0.45063 0.81123 0.0
H206 H 0.05324 0.63565 0.73121 0.0
H207 H 0.03321 0.32158 0.78526 0.0
H208 H 0.10086 0.21411 0.61581 0.0
N209 N 0.2105 0.48338 0.71981 0.0
C210 C 0.13965 0.43488 0.70003 0.0
C211 C 0.07641 0.5787 0.72314 0.0
C212 C 0.03317 0.45582 0.69234 0.0
C213 C 0.18143 0.55549 0.72968 0.0
C214 C 1.00172 0.5282 0.7052 0.0
N215 N 0.28035 0.34989 0.68941 0.0
C216 C 0.32304 0.28788 0.66732 0.0
C217 C 0.10752 0.31707 0.65823 0.0
C218 C 0.17599 0.36611 0.68375 0.0
C219 C 0.1504 0.25265 0.6364 0.0
C220 C 0.25911 0.23897 0.63997 0.0
H221 H 0.92074 0.54597 0.70018 0.0
H222 H 0.88022 0.41983 0.66474 0.0
H223 H 0.9457 0.29833 0.63435 0.0
O224 O 0.42652 0.42618 0.64911 0.0
O225 O 0.31476 0.35619 0.77448 0.0
O226 O 0.41765 0.34928 0.84876 0.0
O227 O 0.37623 0.53353 0.676 0.0
O228 O 0.51664 0.3609 0.72485 0.0
O229 O 0.52958 0.30921 0.80416 0.0
O230 O 0.55178 0.42506 0.92387 0.0
O231 O 0.6386 0.44839 0.77492 0.0
O232 O 0.49806 0.51928 0.75227 0.0
O233 O 0.64657 0.33269 0.89951 0.0
O234 O 0.47807 0.50424 0.84569 0.0
O235 O 0.32752 0.49468 0.79633 0.0
C236 C 0.33207 0.33291 0.82098 0.0
C237 C 0.32948 0.50235 0.59137 0.0
C238 C 0.29247 0.47897 0.50206 0.0
C239 C 0.20194 0.52419 0.50559 0.0
C240 C 0.23833 0.5478 0.59334 0.0
C241 C 0.17503 0.55808 0.55095 0.0
C242 C 0.35601 0.46775 0.54519 0.0
C243 C 0.53476 0.30375 0.75537 0.0
C244 C 0.39879 0.49365 0.63648 0.0
C245 C 0.96269 0.40504 0.6703 0.0
C246 C 0.99993 0.33583 0.65307 0.0
C247 C 0.599 0.5046 0.74957 0.0
C248 C 0.6992 0.39387 0.97412 0.0
C249 C 0.75787 0.41842 0.05964 0.0
C250 C 0.85661 0.44114 0.04115 0.0
C251 C 0.80168 0.41065 0.95733 0.0
C252 C 0.67771 0.39691 1.02593 0.0
C253 C 0.87846 0.4368 0.9902 0.0
C254 C 0.37594 0.51317 0.8389 0.0
C255 C 0.61614 0.37219 0.93784 0.0
H256 H 0.15219 0.5335 0.47306 0.0
H257 H 0.21601 0.57632 0.62747 0.0
H258 H 0.10516 0.59319 0.55318 0.0
H259 H 0.42626 0.43307 0.54264 0.0
H260 H 0.91929 0.45724 0.06667 0.0
H261 H 0.82388 0.40161 0.91913 0.0
H262 H 0.60143 0.37914 0.04007 0.0
H263 H 0.95652 0.45063 0.97638 0.0
Tb264 Tb 0.0754 0.90965 0.72813 0.0
C265 C 0.63225 0.98916 0.85118 0.0
N266 N 0.73315 0.01508 0.85141 0.0
C267 C 0.67011 0.13681 0.87436 0.0
C268 C 0.54577 0.03715 0.861 0.0
C269 C 0.75324 0.08765 0.8636 0.0
C270 C 0.56575 0.11217 0.87165 0.0
C271 C 0.51432 0.88287 0.85244 0.0
C272 C 0.61669 0.91295 0.84649 0.0
C273 C 0.42732 0.93091 0.85937 0.0
C274 C 0.44305 0.00795 0.86319 0.0
Tb275 Tb 0.86362 0.92811 0.84051 0.0
N276 N 0.70325 0.86791 0.84175 0.0
C277 C 0.50273 0.80535 0.85276 0.0
C278 C 0.69272 0.79213 0.84605 0.0
C279 C 0.59221 0.75986 0.84924 0.0
H280 H 0.83352 0.10777 0.86532 0.0
H281 H 0.58328 0.69998 0.84952 0.0
H282 H 0.21604 0.74957 0.73498 0.0
H283 H 0.18364 0.19881 0.73483 0.0
H284 H 0.76234 0.75683 0.84522 0.0
H285 H 0.42535 0.78009 0.85656 0.0
H286 H 0.05829 0.09392 0.7292 0.0
H287 H 0.68683 0.19332 0.88567 0.0
H288 H 0.34791 0.90893 0.86298 0.0
H289 H 0.37583 0.04421 0.86964 0.0
H290 H 0.40464 0.7153 0.73597 0.0
H291 H 0.50164 0.15059 0.88013 0.0
H292 H 0.37644 0.17403 0.7392 0.0
N293 N 0.2439 0.86667 0.73935 0.0
C294 C 0.31776 0.92173 0.73867 0.0
C295 C 0.38121 0.77349 0.73726 0.0
C296 C 0.42668 0.90439 0.73649 0.0
C297 C 0.27405 0.79314 0.73858 0.0
C298 C 0.45773 0.82932 0.7356 0.0
N299 N 0.17834 0.0114 0.7368 0.0
C300 C 0.142 0.08279 0.73267 0.0
C301 C 0.35877 0.05411 0.73748 0.0
C302 C 0.28412 0.99607 0.7379 0.0
C303 C 0.32182 0.12783 0.73768 0.0
C304 C 0.21311 0.1421 0.7348 0.0
H305 H 0.54057 0.81395 0.73374 0.0
H306 H 0.58513 0.95 0.73296 0.0
H307 H 0.52583 0.0804 0.73457 0.0
O308 O 0.06646 0.96225 0.65748 0.0
O309 O 0.12044 0.95698 0.80342 0.0
O310 O 0.97206 0.01985 0.82888 0.0
O311 O 0.15227 0.85923 0.66727 0.0
O312 O 0.92093 0.95917 0.71453 0.0
O313 O 0.86173 0.02081 0.78472 0.0
O314 O 0.96218 0.92298 0.90442 0.0
O315 O 0.81671 0.85358 0.77953 0.0
O316 O 0.94793 0.82596 0.72002 0.0
O317 O 0.79422 0.91911 0.91195 0.0
O318 O 0.98725 0.83786 0.84495 0.0
O319 O 0.05139 0.80569 0.7658 0.0
C320 C 0.07399 0.0087 0.83155 0.0
C321 C 0.08847 0.88316 0.58689 0.0
C322 C 0.12901 0.862 0.49892 0.0
C323 C 0.0314 0.82578 0.49316 0.0
C324 C 0.99144 0.84651 0.58098 0.0
C325 C 0.96319 0.81787 0.53412 0.0
C326 C 0.15719 0.8906 0.54587 0.0
C327 C 0.87294 0.01584 0.73539 0.0
C328 C 0.12327 0.91048 0.63581 0.0
C329 C 0.50109 0.96227 0.73474 0.0
C330 C 0.46727 0.03678 0.73582 0.0
C331 C 0.85233 0.81724 0.73998 0.0
C332 C 0.88477 0.97308 0.97874 0.0
C333 C 0.84689 0.99466 0.0678 0.0
C334 C 0.85808 0.07196 0.05922 0.0
C335 C 0.90107 0.04963 0.97199 0.0
C336 C 0.85941 0.9457 1.02668 0.0
C337 C 0.88634 0.09885 1.01192 0.0
C338 C 0.04167 0.79399 0.81397 0.0
C339 C 0.88327 0.92173 0.93567 0.0
H340 H 1.00752 0.80463 0.45684 0.0
H341 H 0.93823 0.83983 0.61251 0.0
H342 H 0.8881 0.78988 0.52944 0.0
H343 H 0.23192 0.91942 0.55029 0.0
H344 H 0.84573 0.11206 0.08903 0.0
H345 H 0.92356 0.0714 0.93577 0.0
H346 H 0.85056 0.88606 0.03169 0.0
H347 H 0.89671 0.15819 1.0062 0.0
Tb348 Tb 0.45865 0.60037 0.22813 0.0
C349 C 0.9018 0.52085 0.35118 0.0
N350 N 0.80089 0.49494 0.35141 0.0
C351 C 0.86392 0.3732 0.37436 0.0
C352 C 0.98827 0.47285 0.361 0.0
C353 C 0.7808 0.42236 0.3636 0.0
C354 C 0.96829 0.39784 0.37165 0.0
C355 C 0.01973 0.62713 0.35244 0.0
C356 C 0.91736 0.59706 0.34649 0.0
C357 C 0.10673 0.57909 0.35937 0.0
C358 C 0.09099 0.50206 0.36319 0.0
Tb359 Tb 0.67043 0.58191 0.34051 0.0
N360 N 0.8308 0.6421 0.34175 0.0
C361 C 0.03132 0.70465 0.35276 0.0
C362 C 0.84134 0.71788 0.34605 0.0
C363 C 0.94184 0.75015 0.34924 0.0
H364 H 0.70052 0.40224 0.36533 0.0
H365 H 0.95079 0.81003 0.34952 0.0
H366 H 0.31801 0.76045 0.23498 0.0
H367 H 0.35042 0.31121 0.23483 0.0
H368 H 0.77172 0.75319 0.34522 0.0
H369 H 0.1087 0.72992 0.35656 0.0
H370 H 0.47576 0.4161 0.22921 0.0
H371 H 0.84721 0.31669 0.38567 0.0
H372 H 0.18614 0.60107 0.36298 0.0
H373 H 0.15821 0.4658 0.36964 0.0
H374 H 0.12941 0.79472 0.23597 0.0
H375 H 0.0324 0.35942 0.38013 0.0
H376 H 0.15761 0.33599 0.2392 0.0
N377 N 0.29014 0.64335 0.23935 0.0
C378 C 0.21628 0.58829 0.23866 0.0
C379 C 0.15284 0.73653 0.23726 0.0
C380 C 0.10737 0.60563 0.23648 0.0
C381 C 0.26 0.71688 0.23858 0.0
C382 C 0.07632 0.6807 0.2356 0.0
N383 N 0.35571 0.49862 0.2368 0.0
C384 C 0.39205 0.42723 0.23267 0.0
C385 C 0.17528 0.45591 0.23748 0.0
C386 C 0.24993 0.51394 0.2379 0.0
C387 C 0.21223 0.38219 0.23768 0.0
C388 C 0.32094 0.36792 0.2348 0.0
H389 H 0.99348 0.69607 0.23373 0.0
H390 H 0.94892 0.56002 0.23296 0.0
H391 H 1.00822 0.42962 0.23457 0.0
O392 O 0.46759 0.54777 0.15748 0.0
O393 O 0.41361 0.55304 0.30342 0.0
O394 O 0.56198 0.49017 0.32888 0.0
O395 O 0.38179 0.6508 0.16727 0.0
O396 O 0.61312 0.55085 0.21453 0.0
O397 O 0.67232 0.48921 0.28472 0.0
O398 O 0.57187 0.58703 0.40442 0.0
O399 O 0.71734 0.65644 0.27953 0.0
O400 O 0.58612 0.68406 0.22002 0.0
O401 O 0.73983 0.59091 0.41195 0.0
O402 O 0.54679 0.67216 0.34495 0.0
O403 O 0.48266 0.70433 0.2658 0.0
C404 C 0.46006 0.50132 0.33155 0.0
C405 C 0.44558 0.62686 0.08688 0.0
C406 C 0.40505 0.64802 0.99892 0.0
C407 C 0.50266 0.68424 0.99316 0.0
C408 C 0.54262 0.66351 0.08098 0.0
C409 C 0.57087 0.69215 0.03411 0.0
C410 C 0.37687 0.61942 0.04586 0.0
C411 C 0.66111 0.49418 0.23539 0.0
C412 C 0.41078 0.59954 0.13581 0.0
C413 C 0.03296 0.54775 0.23474 0.0
C414 C 0.06678 0.47324 0.23582 0.0
C415 C 0.68172 0.69279 0.23998 0.0
C416 C 0.64929 0.53694 0.47874 0.0
C417 C 0.68717 0.51536 0.5678 0.0
C418 C 0.67598 0.43806 0.55922 0.0
C419 C 0.63299 0.46039 0.47199 0.0
C420 C 0.67465 0.56432 0.52668 0.0
C421 C 0.64772 0.41117 0.51192 0.0
C422 C 0.49238 0.71603 0.31397 0.0
C423 C 0.65078 0.58828 0.43567 0.0
H424 H 0.52654 0.70538 0.95684 0.0
H425 H 0.59583 0.67019 0.1125 0.0
H426 H 0.64596 0.72014 1.02944 0.0
H427 H 0.30213 0.59061 0.05029 0.0
H428 H 0.68834 0.39796 0.58903 0.0
H429 H 0.61049 0.43862 0.43577 0.0
H430 H 0.68349 0.62396 0.53169 0.0
H431 H 0.63735 0.35183 0.50621 0.0
loop_
_geom_bond_atom_site_label_1
_geom_bond_atom_site_label_2
_geom_bond_distance
_geom_bond_site_symmetry_2
_ccdc_geom_bond_type
H0 C5 0.930 . S
H1 C8 0.930 . S
H2 C10 0.930 . S
H3 C4 1.016 . S
C4 H3 1.016 . S
C4 N11 1.286 . S
C5 H0 0.930 . S
C5 C6 1.397 . S
C5 C7 1.361 . S
C6 C5 1.397 . S
C6 C10 1.390 . S
C7 C5 1.361 . S
C7 C8 1.393 . S
C7 N11 1.413 . S
C8 H1 0.930 . S
C8 C7 1.393 . S
C8 C9 1.399 . S
C9 C8 1.399 . S
C9 C10 1.381 . S
C10 H2 0.930 . S
C10 C6 1.390 . S
C10 C9 1.381 . S
N11 C4 1.286 . S
N11 C7 1.413 . S
H12 C17 0.930 . S
H13 C20 0.930 . S
H14 C22 0.930 . S
H15 C16 1.016 . S
C16 H15 1.016 . S
C16 N23 1.286 . S
C17 H12 0.930 . S
C17 C18 1.397 . S
C17 C19 1.361 . S
C18 C17 1.397 . S
C18 C22 1.390 . S
C19 C17 1.361 . S
C19 C20 1.393 . S
C19 N23 1.413 . S
C20 H13 0.930 . S
C20 C19 1.393 . S
C20 C21 1.399 . S
C21 C20 1.399 . S
C21 C22 1.381 . S
C22 H14 0.930 . S
C22 C18 1.390 . S
C22 C21 1.381 . S
N23 C16 1.286 . S
N23 C19 1.413 . S
H24 C29 0.930 . S
H25 C32 0.930 . S
H26 C34 0.930 . S
H27 C28 1.016 . S
C28 H27 1.016 . S
C28 N35 1.286 . S
C29 H24 0.930 . S
C29 C30 1.397 . S
C29 C31 1.361 . S
C30 C29 1.397 . S
C30 C34 1.390 . S
C31 C29 1.361 . S
C31 C32 1.393 . S
C31 N35 1.413 . S
C32 H25 0.930 . S
C32 C31 1.393 . S
C32 C33 1.399 . S
C33 C32 1.399 . S
C33 C34 1.381 . S
C34 H26 0.930 . S
C34 C30 1.390 . S
C34 C33 1.381 . S
N35 C28 1.286 . S
N35 C31 1.413 . S
H36 C41 0.930 . S
H37 C44 0.930 . S
H38 C46 0.930 . S
H39 C40 1.016 . S
C40 H39 1.016 . S
C40 N47 1.286 . S
C41 H36 0.930 . S
C41 C42 1.397 . S
C41 C43 1.361 . S
C42 C41 1.397 . S
C42 C46 1.390 . S
C43 C41 1.361 . S
C43 C44 1.393 . S
C43 N47 1.413 . S
C44 H37 0.930 . S
C44 C43 1.393 . S
C44 C45 1.399 . S
C45 C44 1.399 . S
C45 C46 1.381 . S
C46 H38 0.930 . S
C46 C42 1.390 . S
C46 C45 1.381 . S
N47 C40 1.286 . S
N47 C43 1.413 . S
H48 C53 0.930 . S
H49 C56 0.930 . S
H50 C58 0.930 . S
H51 C52 1.016 . S
C52 H51 1.016 . S
C52 N59 1.286 . S
C53 H48 0.930 . S
C53 C54 1.397 . S
C53 C55 1.361 . S
C54 C53 1.397 . S
C54 C58 1.390 . S
C55 C53 1.361 . S
C55 C56 1.393 . S
C55 N59 1.413 . S
C56 H49 0.930 . S
C56 C55 1.393 . S
C56 C57 1.399 . S
C57 C56 1.399 . S
C57 C58 1.381 . S
C58 H50 0.930 . S
C58 C54 1.390 . S
C58 C57 1.381 . S
N59 C52 1.286 . S
N59 C55 1.413 . S
H60 C65 0.930 . S
H61 C68 0.930 . S
H62 C70 0.930 . S
H63 C64 1.016 . S
C64 H63 1.016 . S
C64 N71 1.286 . S
C65 H60 0.930 . S
C65 C66 1.397 . S
C65 C67 1.361 . S
C66 C65 1.397 . S
C66 C70 1.390 . S
C67 C65 1.361 . S
C67 C68 1.393 . S
C67 N71 1.413 . S
C68 H61 0.930 . S
C68 C67 1.393 . S
C68 C69 1.399 . S
C69 C68 1.399 . S
C69 C70 1.381 . S
C70 H62 0.930 . S
C70 C66 1.390 . S
C70 C69 1.381 . S
N71 C64 1.286 . S
N71 C67 1.413 . S
H72 C77 0.930 . S
H73 C80 0.930 . S
H74 C82 0.930 . S
H75 C76 1.016 . S
C76 H75 1.016 . S
C76 N83 1.286 . S
C77 H72 0.930 . S
C77 C78 1.397 . S
C77 C79 1.361 . S
C78 C77 1.397 . S
C78 C82 1.390 . S
C79 C77 1.361 . S
C79 C80 1.393 . S
C79 N83 1.413 . S
C80 H73 0.930 . S
C80 C79 1.393 . S
C80 C81 1.399 . S
C81 C80 1.399 . S
C81 C82 1.381 . S
C82 H74 0.930 . S
C82 C78 1.390 . S
C82 C81 1.381 . S
N83 C76 1.286 . S
N83 C79 1.413 . S
H84 C89 0.930 . S
H85 C92 0.930 . S
H86 C94 0.930 . S
H87 C88 1.016 . S
C88 H87 1.016 . S
C88 N95 1.286 . S
C89 H84 0.930 . S
C89 C90 1.397 . S
C89 C91 1.361 . S
C90 C89 1.397 . S
C90 C94 1.390 . S
C91 C89 1.361 . S
C91 C92 1.393 . S
C91 N95 1.413 . S
C92 H85 0.930 . S
C92 C91 1.393 . S
C92 C93 1.399 . S
C93 C92 1.399 . S
C93 C94 1.381 . S
C94 H86 0.930 . S
C94 C90 1.390 . S
C94 C93 1.381 . S
N95 C88 1.286 . S
N95 C91 1.413 . S
Tb96 N125 2.617 . S
Tb96 N131 2.572 . S
Tb96 O140 2.465 . S
Tb96 O141 2.387 . S
Tb96 O143 2.428 . S
Tb96 O144 2.308 1_455 S
Tb96 O148 2.349 1_445 S
Tb96 O151 2.393 1_545 S
Tb96 C160 2.802 . S
C97 N98 1.379 . S
C97 C100 1.416 . S
C97 C104 1.424 1_545 S
N98 C97 1.379 . S
N98 C101 1.334 . S
N98 Tb107 2.617 . S
C99 C101 1.390 . S
C99 C102 1.339 . S
C99 H119 0.930 . S
C100 C97 1.416 . S
C100 C102 1.416 . S
C100 C106 1.448 1_545 S
C101 N98 1.334 . S
C101 C99 1.390 . S
C101 H112 0.930 . S
C102 C99 1.339 . S
C102 C100 1.416 . S
C102 H123 0.930 . S
C103 C104 1.413 . S
C103 C105 1.427 . S
C103 C109 1.416 . S
C104 C97 1.424 1_565 S
C104 C103 1.413 . S
C104 N108 1.361 . S
C105 C103 1.427 . S
C105 C106 1.328 . S
C105 H120 0.929 . S
C106 C100 1.448 1_565 S
C106 C105 1.328 . S
C106 H121 0.930 . S
Tb107 N98 2.617 . S
Tb107 N108 2.572 1_545 S
Tb107 O142 2.349 1_655 S
Tb107 O145 2.393 . S
Tb107 O146 2.465 . S
Tb107 O147 2.387 . S
Tb107 O149 2.428 . S
Tb107 O150 2.308 1_645 S
Tb107 C171 2.802 . S
N108 C104 1.361 . S
N108 Tb107 2.572 1_565 S
N108 C110 1.340 . S
C109 C103 1.416 . S
C109 C111 1.332 . S
C109 H117 0.931 . S
C110 N108 1.340 . S
C110 C111 1.407 . S
C110 H116 0.930 . S
C111 C109 1.332 . S
C111 C110 1.407 . S
C111 H113 0.929 . S
H112 C101 0.930 . S
H113 C111 0.929 . S
H114 C129 0.930 1_565 S
H115 C136 0.929 . S
H116 C110 0.930 . S
H117 C109 0.931 . S
H118 C132 0.930 . S
H119 C99 0.930 . S
H120 C105 0.929 . S
H121 C106 0.930 . S
H122 C127 0.930 1_565 S
H123 C102 0.930 . S
H124 C135 0.931 . S
N125 Tb96 2.617 . S
N125 C126 1.379 . S
N125 C129 1.334 . S
C126 N125 1.379 . S
C126 C128 1.416 . S
C126 C134 1.424 . S
C127 H122 0.930 1_545 S
C127 C129 1.390 . S
C127 C130 1.339 . S
C128 C126 1.416 . S
C128 C130 1.416 . S
C128 C161 1.448 . S
C129 H114 0.930 1_545 S
C129 N125 1.334 . S
C129 C127 1.390 . S
C130 C127 1.339 . S
C130 C128 1.416 . S
C130 H137 0.930 . S
N131 Tb96 2.572 . S
N131 C132 1.340 . S
N131 C134 1.361 . S
C132 H118 0.930 . S
C132 N131 1.340 . S
C132 C136 1.407 . S
C133 C134 1.413 . S
C133 C135 1.416 . S
C133 C162 1.427 . S
C134 C126 1.424 . S
C134 N131 1.361 . S
C134 C133 1.413 . S
C135 H124 0.931 . S
C135 C133 1.416 . S
C135 C136 1.332 . S
C136 H115 0.929 . S
C136 C132 1.407 . S
C136 C135 1.332 . S
H137 C130 0.930 . S
H138 C161 0.930 . S
H139 C162 0.929 . S
O140 Tb96 2.465 . S
O140 C160 1.264 . S
O141 Tb96 2.387 . S
O141 C152 1.264 . S
O142 Tb107 2.349 1_455 S
O142 C152 1.243 . S
O143 Tb96 2.428 . S
O143 C160 1.256 . S
O144 Tb96 2.308 1_655 S
O144 C159 1.266 . S
O145 Tb107 2.393 . S
O145 C159 1.248 . S
O146 Tb107 2.465 . S
O146 C171 1.264 . S
O147 Tb107 2.387 . S
O147 C163 1.264 1_545 S
O148 Tb96 2.349 1_665 S
O148 C163 1.243 . S
O149 Tb107 2.428 . S
O149 C171 1.256 . S
O150 Tb107 2.308 1_465 S
O150 C170 1.266 . S
O151 Tb96 2.393 1_565 S
O151 C170 1.248 . S
C152 O141 1.264 . S
C152 O142 1.243 . S
C153 C156 1.399 1_545 S
C153 C158 1.383 . S
C153 C160 1.496 . S
C154 C155 1.399 1_545 S
C154 C158 1.389 1_556 S
C155 C154 1.399 1_565 S
C155 C157 1.387 . S
C155 H172 0.929 . S
C156 C153 1.399 1_565 S
C156 C157 1.382 1_554 S
C156 H173 0.929 . S
C157 C155 1.387 . S
C157 C156 1.382 1_556 S
C157 H174 0.932 . S
C158 C153 1.383 . S
C158 C154 1.389 1_554 S
C158 H175 0.931 . S
C159 O144 1.266 . S
C159 O145 1.248 . S
C160 Tb96 2.802 . S
C160 O140 1.264 . S
C160 O143 1.256 . S
C160 C153 1.496 . S
C161 C128 1.448 . S
C161 H138 0.930 . S
C161 C162 1.328 . S
C162 C133 1.427 . S
C162 H139 0.929 . S
C162 C161 1.328 . S
C163 O147 1.264 1_565 S
C163 O148 1.243 . S
C164 C167 1.399 . S
C164 C168 1.383 . S
C164 C171 1.496 . S
C165 C166 1.399 . S
C165 C168 1.389 . S
C166 C165 1.399 . S
C166 C169 1.380 . S
C166 H176 0.929 . S
C167 C164 1.399 . S
C167 C169 1.392 . S
C167 H177 0.929 . S
C168 C164 1.383 . S
C168 C165 1.389 . S
C168 H178 0.931 . S
C169 C166 1.380 . S
C169 C167 1.392 . S
C169 H179 0.929 . S
C170 O150 1.266 . S
C170 O151 1.248 . S
C171 Tb107 2.802 . S
C171 O146 1.264 . S
C171 O149 1.256 . S
C171 C164 1.496 . S
H172 C155 0.929 . S
H173 C156 0.929 . S
H174 C157 0.932 . S
H175 C158 0.931 . S
H176 C166 0.929 . S
H177 C167 0.929 . S
H178 C168 0.931 . S
H179 C169 0.929 . S
Tb180 N209 2.617 . S
Tb180 N215 2.572 . S
Tb180 O224 2.465 . S
Tb180 O225 2.387 . S
Tb180 O227 2.428 . S
Tb180 O228 2.308 . S
Tb180 O232 2.349 . S
Tb180 O235 2.393 . S
Tb180 C244 2.802 . S
C181 N182 1.379 . S
C181 C184 1.416 . S
C181 C188 1.424 . S
N182 C181 1.379 . S
N182 C185 1.334 . S
N182 Tb191 2.617 . S
C183 C185 1.390 . S
C183 C186 1.339 1_655 S
C183 H203 0.930 1_655 S
C184 C181 1.416 . S
C184 C186 1.416 1_655 S
C184 C190 1.448 1_655 S
C185 N182 1.334 . S
C185 C183 1.390 . S
C185 H196 0.930 . S
C186 C183 1.339 1_455 S
C186 C184 1.416 1_455 S
C186 H207 0.930 . S
C187 C188 1.413 . S
C187 C189 1.427 . S
C187 C193 1.416 . S
C188 C181 1.424 . S
C188 C187 1.413 . S
C188 N192 1.361 . S
C189 C187 1.427 . S
C189 C190 1.328 1_655 S
C189 H204 0.929 1_655 S
C190 C184 1.448 1_455 S
C190 C189 1.328 1_455 S
C190 H205 0.930 . S
Tb191 N182 2.617 . S
Tb191 N192 2.572 . S
Tb191 O226 2.349 . S
Tb191 O229 2.393 . S
Tb191 O230 2.465 . S
Tb191 O231 2.387 . S
Tb191 O233 2.428 . S
Tb191 O234 2.308 . S
Tb191 C255 2.802 . S
N192 C188 1.361 . S
N192 Tb191 2.572 . S
N192 C194 1.340 . S
C193 C187 1.416 . S
C193 C195 1.332 . S
C193 H201 0.931 . S
C194 N192 1.340 . S
C194 C195 1.407 . S
C194 H200 0.930 . S
C195 C193 1.332 . S
C195 C194 1.407 . S
C195 H197 0.929 . S
H196 C185 0.930 . S
H197 C195 0.929 . S
H198 C213 0.930 . S
H199 C220 0.929 . S
H200 C194 0.930 . S
H201 C193 0.931 . S
H202 C216 0.930 . S
H203 C183 0.930 1_455 S
H204 C189 0.929 1_455 S
H205 C190 0.930 . S
H206 C211 0.932 . S
H207 C186 0.930 . S
H208 C219 0.931 . S
N209 Tb180 2.617 . S
N209 C210 1.379 . S
N209 C213 1.334 . S
C210 N209 1.379 . S
C210 C212 1.416 . S
C210 C218 1.424 . S
C211 H206 0.932 . S
C211 C213 1.390 . S
C211 C214 1.339 1_455 S
C212 C210 1.416 . S
C212 C214 1.416 1_455 S
C212 C245 1.448 1_455 S
C213 H198 0.930 . S
C213 N209 1.334 . S
C213 C211 1.390 . S
C214 C211 1.339 1_655 S
C214 C212 1.416 1_655 S
C214 H221 0.930 . S
N215 Tb180 2.572 . S
N215 C216 1.340 . S
N215 C218 1.361 . S
C216 H202 0.930 . S
C216 N215 1.340 . S
C216 C220 1.407 . S
C217 C218 1.413 . S
C217 C219 1.416 . S
C217 C246 1.427 . S
C218 C210 1.424 . S
C218 N215 1.361 . S
C218 C217 1.413 . S
C219 H208 0.931 . S
C219 C217 1.416 . S
C219 C220 1.332 . S
C220 H199 0.929 . S
C220 C216 1.407 . S
C220 C219 1.332 . S
H221 C214 0.930 . S
H222 C245 0.930 . S
H223 C246 0.929 1_655 S
O224 Tb180 2.465 . S
O224 C244 1.264 . S
O225 Tb180 2.387 . S
O225 C236 1.264 . S
O226 Tb191 2.349 . S
O226 C236 1.243 . S
O227 Tb180 2.428 . S
O227 C244 1.256 . S
O228 Tb180 2.308 . S
O228 C243 1.266 . S
O229 Tb191 2.393 . S
O229 C243 1.248 . S
O230 Tb191 2.465 . S
O230 C255 1.264 . S
O231 Tb191 2.387 . S
O231 C247 1.264 . S
O232 Tb180 2.349 . S
O232 C247 1.243 . S
O233 Tb191 2.428 . S
O233 C255 1.256 . S
O234 Tb191 2.308 . S
O234 C254 1.266 . S
O235 Tb180 2.393 . S
O235 C254 1.248 . S
C236 O225 1.264 . S
C236 O226 1.243 . S
C237 C240 1.399 . S
C237 C242 1.383 . S
C237 C244 1.496 . S
C238 C239 1.399 . S
C238 C242 1.389 . S
C239 C238 1.399 . S
C239 C241 1.380 . S
C239 H256 0.929 . S
C240 C237 1.399 . S
C240 C241 1.392 . S
C240 H257 0.929 . S
C241 C239 1.380 . S
C241 C240 1.392 . S
C241 H258 0.929 . S
C242 C237 1.383 . S
C242 C238 1.389 . S
C242 H259 0.931 . S
C243 O228 1.266 . S
C243 O229 1.248 . S
C244 Tb180 2.802 . S
C244 O224 1.264 . S
C244 O227 1.256 . S
C244 C237 1.496 . S
C245 C212 1.448 1_655 S
C245 H222 0.930 . S
C245 C246 1.328 1_655 S
C246 C217 1.427 . S
C246 H223 0.929 1_455 S
C246 C245 1.328 1_455 S
C247 O231 1.264 . S
C247 O232 1.243 . S
C248 C251 1.399 . S
C248 C252 1.383 . S
C248 C255 1.496 . S
C249 C250 1.399 . S
C249 C252 1.389 1_554 S
C250 C249 1.399 . S
C250 C253 1.380 . S
C250 H260 0.929 . S
C251 C248 1.399 . S
C251 C253 1.392 1_556 S
C251 H261 0.929 . S
C252 C248 1.383 . S
C252 C249 1.389 1_556 S
C252 H262 0.931 . S
C253 C250 1.380 . S
C253 C251 1.392 1_554 S
C253 H263 0.929 . S
C254 O234 1.266 . S
C254 O235 1.248 . S
C255 Tb191 2.802 . S
C255 O230 1.264 . S
C255 O233 1.256 . S
C255 C248 1.496 . S
H256 C239 0.929 . S
H257 C240 0.929 . S
H258 C241 0.929 . S
H259 C242 0.931 . S
H260 C250 0.929 . S
H261 C251 0.929 . S
H262 C252 0.931 . S
H263 C253 0.929 . S
Tb264 N293 2.617 . S
Tb264 N299 2.572 1_565 S
Tb264 O308 2.465 . S
Tb264 O309 2.387 . S
Tb264 O311 2.428 . S
Tb264 O312 2.308 1_465 S
Tb264 O316 2.349 1_455 S
Tb264 O319 2.393 . S
Tb264 C328 2.802 . S
C265 N266 1.379 . S
C265 C268 1.416 . S
C265 C272 1.424 . S
N266 C265 1.379 . S
N266 C269 1.334 . S
N266 Tb275 2.617 . S
C267 C269 1.390 . S
C267 C270 1.339 . S
C267 H287 0.930 1_565 S
C268 C265 1.416 . S
C268 C270 1.416 . S
C268 C274 1.448 . S
C269 N266 1.334 . S
C269 C267 1.390 . S
C269 H280 0.930 1_565 S
C270 C267 1.339 . S
C270 C268 1.416 . S
C270 H291 0.930 . S
C271 C272 1.413 . S
C271 C273 1.427 . S
C271 C277 1.416 . S
C272 C265 1.424 . S
C272 C271 1.413 . S
C272 N276 1.361 . S
C273 C271 1.427 . S
C273 C274 1.328 . S
C273 H288 0.929 . S
C274 C268 1.448 . S
C274 C273 1.328 . S
C274 H289 0.930 . S
Tb275 N266 2.617 . S
Tb275 N276 2.572 . S
Tb275 O310 2.349 1_665 S
Tb275 O313 2.393 1_565 S
Tb275 O314 2.465 . S
Tb275 O315 2.387 . S
Tb275 O317 2.428 . S
Tb275 O318 2.308 1_655 S
Tb275 C339 2.802 . S
N276 C272 1.361 . S
N276 Tb275 2.572 . S
N276 C278 1.340 . S
C277 C271 1.416 . S
C277 C279 1.332 . S
C277 H285 0.931 . S
C278 N276 1.340 . S
C278 C279 1.407 . S
C278 H284 0.930 . S
C279 C277 1.332 . S
C279 C278 1.407 . S
C279 H281 0.929 . S
H280 C269 0.930 1_545 S
H281 C279 0.929 . S
H282 C297 0.930 . S
H283 C304 0.929 . S
H284 C278 0.930 . S
H285 C277 0.931 . S
H286 C300 0.930 . S
H287 C267 0.930 1_545 S
H288 C273 0.929 . S
H289 C274 0.930 . S
H290 C295 0.930 . S
H291 C270 0.930 . S
H292 C303 0.931 . S
N293 Tb264 2.617 . S
N293 C294 1.379 . S
N293 C297 1.334 . S
C294 N293 1.379 . S
C294 C296 1.416 . S
C294 C302 1.424 1_565 S
C295 H290 0.930 . S
C295 C297 1.390 . S
C295 C298 1.339 . S
C296 C294 1.416 . S
C296 C298 1.416 . S
C296 C329 1.448 1_565 S
C297 H282 0.930 . S
C297 N293 1.334 . S
C297 C295 1.390 . S
C298 C295 1.339 . S
C298 C296 1.416 . S
C298 H305 0.930 . S
N299 Tb264 2.572 1_545 S
N299 C300 1.340 . S
N299 C302 1.361 . S
C300 H286 0.930 . S
C300 N299 1.340 . S
C300 C304 1.407 . S
C301 C302 1.413 . S
C301 C303 1.416 . S
C301 C330 1.427 . S
C302 C294 1.424 1_545 S
C302 N299 1.361 . S
C302 C301 1.413 . S
C303 H292 0.931 . S
C303 C301 1.416 . S
C303 C304 1.332 . S
C304 H283 0.929 . S
C304 C300 1.407 . S
C304 C303 1.332 . S
H305 C298 0.930 . S
H306 C329 0.930 . S
H307 C330 0.929 . S
O308 Tb264 2.465 . S
O308 C328 1.264 . S
O309 Tb264 2.387 . S
O309 C320 1.264 1_565 S
O310 Tb275 2.349 1_445 S
O310 C320 1.243 . S
O311 Tb264 2.428 . S
O311 C328 1.256 . S
O312 Tb264 2.308 1_645 S
O312 C327 1.266 . S
O313 Tb275 2.393 1_545 S
O313 C327 1.248 . S
O314 Tb275 2.465 . S
O314 C339 1.264 . S
O315 Tb275 2.387 . S
O315 C331 1.264 . S
O316 Tb264 2.349 1_655 S
O316 C331 1.243 . S
O317 Tb275 2.428 . S
O317 C339 1.256 . S
O318 Tb275 2.308 1_455 S
O318 C338 1.266 . S
O319 Tb264 2.393 . S
O319 C338 1.248 . S
C320 O309 1.264 1_545 S
C320 O310 1.243 . S
C321 C324 1.399 . S
C321 C326 1.383 . S
C321 C328 1.496 . S
C322 C323 1.399 . S
C322 C326 1.389 . S
C323 C322 1.399 . S
C323 C325 1.380 . S
C323 H340 0.929 . S
C324 C321 1.399 . S
C324 C325 1.392 . S
C324 H341 0.929 . S
C325 C323 1.380 . S
C325 C324 1.392 . S
C325 H342 0.929 . S
C326 C321 1.383 . S
C326 C322 1.389 . S
C326 H343 0.931 . S
C327 O312 1.266 . S
C327 O313 1.248 . S
C328 Tb264 2.802 . S
C328 O308 1.264 . S
C328 O311 1.256 . S
C328 C321 1.496 . S
C329 C296 1.448 1_545 S
C329 H306 0.930 . S
C329 C330 1.328 . S
C330 C301 1.427 . S
C330 H307 0.929 . S
C330 C329 1.328 . S
C331 O315 1.264 . S
C331 O316 1.243 . S
C332 C335 1.399 1_565 S
C332 C336 1.383 . S
C332 C339 1.496 . S
C333 C334 1.399 1_565 S
C333 C336 1.389 1_554 S
C334 C333 1.399 1_545 S
C334 C337 1.387 . S
C334 H344 0.929 . S
C335 C332 1.399 1_545 S
C335 C337 1.382 1_556 S
C335 H345 0.929 . S
C336 C332 1.383 . S
C336 C333 1.389 1_556 S
C336 H346 0.931 . S
C337 C334 1.387 . S
C337 C335 1.382 1_554 S
C337 H347 0.932 . S
C338 O318 1.266 . S
C338 O319 1.248 . S
C339 Tb275 2.802 . S
C339 O314 1.264 . S
C339 O317 1.256 . S
C339 C332 1.496 . S
H340 C323 0.929 . S
H341 C324 0.929 . S
H342 C325 0.929 . S
H343 C326 0.931 . S
H344 C334 0.929 . S
H345 C335 0.929 . S
H346 C336 0.931 . S
H347 C337 0.932 . S
Tb348 N377 2.617 . S
Tb348 N383 2.572 . S
Tb348 O392 2.465 . S
Tb348 O393 2.387 . S
Tb348 O395 2.428 . S
Tb348 O396 2.308 . S
Tb348 O400 2.349 . S
Tb348 O403 2.393 . S
Tb348 C412 2.802 . S
C349 N350 1.379 . S
C349 C352 1.416 . S
C349 C356 1.424 . S
N350 C349 1.379 . S
N350 C353 1.334 . S
N350 Tb359 2.617 . S
C351 C353 1.390 . S
C351 C354 1.339 1_655 S
C351 H371 0.930 1_655 S
C352 C349 1.416 . S
C352 C354 1.416 1_655 S
C352 C358 1.448 1_655 S
C353 N350 1.334 . S
C353 C351 1.390 . S
C353 H364 0.930 . S
C354 C351 1.339 1_455 S
C354 C352 1.416 1_455 S
C354 H375 0.930 . S
C355 C356 1.413 . S
C355 C357 1.427 . S
C355 C361 1.416 . S
C356 C349 1.424 . S
C356 C355 1.413 . S
C356 N360 1.361 . S
C357 C355 1.427 . S
C357 C358 1.328 1_655 S
C357 H372 0.929 1_655 S
C358 C352 1.448 1_455 S
C358 C357 1.328 1_455 S
C358 H373 0.930 . S
Tb359 N350 2.617 . S
Tb359 N360 2.572 . S
Tb359 O394 2.349 . S
Tb359 O397 2.393 . S
Tb359 O398 2.465 . S
Tb359 O399 2.387 . S
Tb359 O401 2.428 . S
Tb359 O402 2.308 . S
Tb359 C423 2.802 . S
N360 C356 1.361 . S
N360 Tb359 2.572 . S
N360 C362 1.340 . S
C361 C355 1.416 . S
C361 C363 1.332 . S
C361 H369 0.931 . S
C362 N360 1.340 . S
C362 C363 1.407 . S
C362 H368 0.930 . S
C363 C361 1.332 . S
C363 C362 1.407 . S
C363 H365 0.929 . S
H364 C353 0.930 . S
H365 C363 0.929 . S
H366 C381 0.930 . S
H367 C388 0.929 . S
H368 C362 0.930 . S
H369 C361 0.931 . S
H370 C384 0.930 . S
H371 C351 0.930 1_455 S
H372 C357 0.929 1_455 S
H373 C358 0.930 . S
H374 C379 0.930 1_655 S
H375 C354 0.930 . S
H376 C387 0.931 . S
N377 Tb348 2.617 . S
N377 C378 1.379 . S
N377 C381 1.334 . S
C378 N377 1.379 . S
C378 C380 1.416 . S
C378 C386 1.424 . S
C379 H374 0.930 1_455 S
C379 C381 1.390 . S
C379 C382 1.339 1_455 S
C380 C378 1.416 . S
C380 C382 1.416 1_455 S
C380 C413 1.448 1_455 S
C381 H366 0.930 . S
C381 N377 1.334 . S
C381 C379 1.390 . S
C382 C379 1.339 1_655 S
C382 C380 1.416 1_655 S
C382 H389 0.930 . S
N383 Tb348 2.572 . S
N383 C384 1.340 . S
N383 C386 1.361 . S
C384 H370 0.930 . S
C384 N383 1.340 . S
C384 C388 1.407 . S
C385 C386 1.413 . S
C385 C387 1.416 . S
C385 C414 1.427 . S
C386 C378 1.424 . S
C386 N383 1.361 . S
C386 C385 1.413 . S
C387 H376 0.931 . S
C387 C385 1.416 . S
C387 C388 1.332 . S
C388 H367 0.929 . S
C388 C384 1.407 . S
C388 C387 1.332 . S
H389 C382 0.930 . S
H390 C413 0.930 . S
H391 C414 0.929 1_655 S
O392 Tb348 2.465 . S
O392 C412 1.264 . S
O393 Tb348 2.387 . S
O393 C404 1.264 . S
O394 Tb359 2.349 . S
O394 C404 1.243 . S
O395 Tb348 2.428 . S
O395 C412 1.256 . S
O396 Tb348 2.308 . S
O396 C411 1.266 . S
O397 Tb359 2.393 . S
O397 C411 1.248 . S
O398 Tb359 2.465 . S
O398 C423 1.264 . S
O399 Tb359 2.387 . S
O399 C415 1.264 . S
O400 Tb348 2.349 . S
O400 C415 1.243 . S
O401 Tb359 2.428 . S
O401 C423 1.256 . S
O402 Tb359 2.308 . S
O402 C422 1.266 . S
O403 Tb348 2.393 . S
O403 C422 1.248 . S
C404 O393 1.264 . S
C404 O394 1.243 . S
C405 C408 1.399 . S
C405 C410 1.383 . S
C405 C412 1.496 . S
C406 C407 1.399 . S
C406 C410 1.389 1_556 S
C407 C406 1.399 . S
C407 C409 1.380 . S
C407 H424 0.929 . S
C408 C405 1.399 . S
C408 C409 1.392 1_554 S
C408 H425 0.929 . S
C409 C407 1.380 . S
C409 C408 1.392 1_556 S
C409 H426 0.929 . S
C410 C405 1.383 . S
C410 C406 1.389 1_554 S
C410 H427 0.931 . S
C411 O396 1.266 . S
C411 O397 1.248 . S
C412 Tb348 2.802 . S
C412 O392 1.264 . S
C412 O395 1.256 . S
C412 C405 1.496 . S
C413 C380 1.448 1_655 S
C413 H390 0.930 . S
C413 C414 1.328 1_655 S
C414 C385 1.427 . S
C414 H391 0.929 1_455 S
C414 C413 1.328 1_455 S
C415 O399 1.264 . S
C415 O400 1.243 . S
C416 C419 1.399 . S
C416 C420 1.383 . S
C416 C423 1.496 . S
C417 C418 1.399 . S
C417 C420 1.389 . S
C418 C417 1.399 . S
C418 C421 1.380 . S
C418 H428 0.929 . S
C419 C416 1.399 . S
C419 C421 1.392 . S
C419 H429 0.929 . S
C420 C416 1.383 . S
C420 C417 1.389 . S
C420 H430 0.931 . S
C421 C418 1.380 . S
C421 C419 1.392 . S
C421 H431 0.929 . S
C422 O402 1.266 . S
C422 O403 1.248 . S
C423 Tb359 2.802 . S
C423 O398 1.264 . S
C423 O401 1.256 . S
C423 C416 1.496 . S
H424 C407 0.929 . S
H425 C408 0.929 . S
H426 C409 0.929 . S
H427 C410 0.931 . S
H428 C418 0.929 . S
H429 C419 0.929 . S
H430 C420 0.931 . S
H431 C421 0.929 . S
C81 C170 1.957 . S
C254 C93 1.957 . S
C247 C57 1.885 . S
C69 C163 1.885 . S
C327 C33 1.939 . S
C411 C45 1.939 . S
C9 C404 1.867 . S
C21 C320 1.867 . S
C154 C18 1.641 . S
C238 C6 1.641 . S
C249 C42 1.322 . S
C165 C30 1.322 . S
C333 C66 1.612 . S
C54 C417 1.612 . S
C406 C90 1.320 . S
C78 C322 1.320 . S
C152 C4 1.546 . S
C236 C16 1.546 . S
C28 C243 1.430 . S
C159 C40 1.430 . S
C331 C52 1.519 . S
C64 C415 1.519 . S
C76 C422 1.411 . S
C88 C338 1.411 . S
