# Generated by pormake.
# Topology zzz, (3,6)-cn, num edge types: 1
# Building blocks:
#     Node 0, Type 0, BuildingBlock: PAMTOO_clean_linker_0, # of connection points: 3
#     Node 1, Type 0, BuildingBlock: PAMTOO_clean_linker_0, # of connection points: 3
#     Node 2, Type 0, BuildingBlock: PAMTOO_clean_linker_0, # of connection points: 3
#     Node 3, Type 0, BuildingBlock: PAMTOO_clean_linker_0, # of connection points: 3
#     Node 4, Type 0, BuildingBlock: PAMTOO_clean_linker_0, # of connection points: 3
#     Node 5, Type 0, BuildingBlock: PAMTOO_clean_linker_0, # of connection points: 3
#     Node 6, Type 0, BuildingBlock: PAMTOO_clean_linker_0, # of connection points: 3
#     Node 7, Type 0, BuildingBlock: PAMTOO_clean_linker_0, # of connection points: 3
#     Node 8, Type 1, BuildingBlock: JUFBIX_clean_sbu_0, # of connection points: 6
#     Node 9, Type 1, BuildingBlock: JUFBIX_clean_sbu_0, # of connection points: 6
#     Node 10, Type 1, BuildingBlock: JUFBIX_clean_sbu_0, # of connection points: 6
#     Node 11, Type 1, BuildingBlock: JUFBIX_clean_sbu_0, # of connection points: 6
#     Edge 12, Type (0, 1), BuildingBlock: ZUJKAS_clean_linker_0, # of connection points: 2
#     Edge 13, Type (0, 1), BuildingBlock: ZUJKAS_clean_linker_0, # of connection points: 2
#     Edge 14, Type (0, 1), BuildingBlock: ZUJKAS_clean_linker_0, # of connection points: 2
#     Edge 15, Type (0, 1), BuildingBlock: ZUJKAS_clean_linker_0, # of connection points: 2
#     Edge 16, Type (0, 1), BuildingBlock: ZUJKAS_clean_linker_0, # of connection points: 2
#     Edge 17, Type (0, 1), BuildingBlock: ZUJKAS_clean_linker_0, # of connection points: 2
#     Edge 18, Type (0, 1), BuildingBlock: ZUJKAS_clean_linker_0, # of connection points: 2
#     Edge 19, Type (0, 1), BuildingBlock: ZUJKAS_clean_linker_0, # of connection points: 2
#     Edge 20, Type (0, 1), BuildingBlock: ZUJKAS_clean_linker_0, # of connection points: 2
#     Edge 21, Type (0, 1), BuildingBlock: ZUJKAS_clean_linker_0, # of connection points: 2
#     Edge 22, Type (0, 1), BuildingBlock: ZUJKAS_clean_linker_0, # of connection points: 2
#     Edge 23, Type (0, 1), BuildingBlock: ZUJKAS_clean_linker_0, # of connection points: 2
#     Edge 24, Type (0, 1), BuildingBlock: ZUJKAS_clean_linker_0, # of connection points: 2
#     Edge 25, Type (0, 1), BuildingBlock: ZUJKAS_clean_linker_0, # of connection points: 2
#     Edge 26, Type (0, 1), BuildingBlock: ZUJKAS_clean_linker_0, # of connection points: 2
#     Edge 27, Type (0, 1), BuildingBlock: ZUJKAS_clean_linker_0, # of connection points: 2
#     Edge 28, Type (0, 1), BuildingBlock: ZUJKAS_clean_linker_0, # of connection points: 2
#     Edge 29, Type (0, 1), BuildingBlock: ZUJKAS_clean_linker_0, # of connection points: 2
#     Edge 30, Type (0, 1), BuildingBlock: ZUJKAS_clean_linker_0, # of connection points: 2
#     Edge 31, Type (0, 1), BuildingBlock: ZUJKAS_clean_linker_0, # of connection points: 2
#     Edge 32, Type (0, 1), BuildingBlock: ZUJKAS_clean_linker_0, # of connection points: 2
#     Edge 33, Type (0, 1), BuildingBlock: ZUJKAS_clean_linker_0, # of connection points: 2
#     Edge 34, Type (0, 1), BuildingBlock: ZUJKAS_clean_linker_0, # of connection points: 2
#     Edge 35, Type (0, 1), BuildingBlock: ZUJKAS_clean_linker_0, # of connection points: 2
# Relax obj value: 0.127
# Max RMSD: 0.180
# Mean RMSD: 0.085
data_MOF--net-zzz--node1-JUFBIX_clean_sbu_0--node2-PAMTOO_clean_linker_0--edge1-ZUJKAS_clean_linker_0
_symmetry_space_group_name_H-M    P1
_symmetry_Int_Tables_number       1
_symmetry_cell_setting            triclinic
loop_
_symmetry_equiv_pos_as_xyz
'x, y, z'
_cell_length_a     66.397821
_cell_length_b     66.032706
_cell_length_c     22.438195
_cell_angle_alpha  83.287859
_cell_angle_beta   89.744889
_cell_angle_gamma 91.31927
loop_
_atom_site_label
_atom_site_type_symbol
_atom_site_fract_x
_atom_site_fract_y
_atom_site_fract_z
_atom_type_partial_charge
H0 H 0.83862 0.51381 0.27909 0.0
H1 H 0.78516 0.50972 0.17315 0.0
H2 H 0.78032 0.51706 0.36102 0.0
H3 H 0.74183 0.49474 0.31549 0.0
C4 C 0.74773 0.49683 0.26868 0.0
O5 O 0.76007 0.51408 0.261 0.0
H6 H 0.75629 0.48293 0.2621 0.0
C7 C 0.82232 0.51387 0.27536 0.0
C8 C 0.81064 0.51569 0.32631 0.0
C9 C 0.81335 0.51166 0.2201 0.0
C10 C 0.79229 0.51133 0.21575 0.0
C11 C 0.78035 0.51346 0.26639 0.0
C12 C 0.78953 0.51553 0.32192 0.0
H13 H 0.00965 0.81318 0.26167 0.0
H14 H 1.00094 0.75967 0.17196 0.0
H15 H 0.98607 0.75762 0.35941 0.0
H16 H 0.99449 0.71138 0.32249 0.0
C17 C 0.99989 0.72039 0.28031 0.0
O18 O 0.98718 0.73655 0.26655 0.0
H19 H 0.01549 0.72587 0.28906 0.0
C20 C 1.00559 0.7971 0.26363 0.0
C21 C 0.9982 0.7866 0.31758 0.0
C22 C 1.00665 0.78762 0.21106 0.0
C23 C 1.00038 0.76716 0.21239 0.0
C24 C 0.99324 0.75629 0.26601 0.0
C25 C 0.99191 0.76605 0.31841 0.0
H26 H 0.70072 1.00147 0.19317 0.0
H27 H 0.75312 1.0005 0.08045 0.0
H28 H 0.75936 0.99462 0.27276 0.0
H29 H 0.79601 0.01716 0.20571 0.0
C30 C 0.79167 0.01293 0.16089 0.0
O31 O 0.77881 0.99606 0.16892 0.0
H32 H 0.78402 0.02621 0.13628 0.0
C33 C 0.71692 1.0004 0.18835 0.0
C34 C 0.72892 0.9982 0.23971 0.0
C35 C 0.72542 1.00109 0.13095 0.0
C36 C 0.74636 0.99993 0.12467 0.0
C37 C 0.75864 0.99762 0.1757 0.0
C38 C 0.74989 0.99654 0.23341 0.0
H39 H 0.51622 0.68208 0.23518 0.0
H40 H 0.51497 0.73504 0.10335 0.0
H41 H 0.52985 0.74135 0.28692 0.0
H42 H 0.50881 0.77824 0.22908 0.0
C43 C 0.50966 0.77418 0.18243 0.0
O44 O 0.52522 0.76087 0.17837 0.0
H45 H 0.49494 0.76683 0.17276 0.0
C46 C 0.51764 0.69845 0.22314 0.0
C47 C 0.52294 0.71065 0.26771 0.0
C48 C 0.51455 0.70691 0.16367 0.0
C49 C 0.51729 0.72808 0.14888 0.0
C50 C 0.52278 0.7405 0.19322 0.0
C51 C 0.5257 0.73175 0.25273 0.0
H52 H 0.18465 0.50913 0.28297 0.0
H53 H 0.24037 0.50463 0.37963 0.0
H54 H 0.23961 0.49791 0.19094 0.0
H55 H 0.26958 0.52908 0.27974 0.0
C56 C 0.27656 0.51403 0.27669 0.0
O57 O 0.2625 0.49823 0.28695 0.0
H58 H 0.28259 0.5144 0.23027 0.0
C59 C 0.20083 0.50709 0.28323 0.0
C60 C 0.2108 0.50383 0.23017 0.0
C61 C 0.21132 0.5073 0.33703 0.0
C62 C 0.23216 0.50452 0.33805 0.0
C63 C 0.2424 0.50122 0.28531 0.0
C64 C 0.23168 0.50062 0.23145 0.0
H65 H 0.03364 0.19792 0.28177 0.0
H66 H 0.02316 0.24982 0.37586 0.0
H67 H 0.03362 0.25807 0.18496 0.0
H68 H 0.04826 0.297 0.24501 0.0
C69 C 0.04308 0.28956 0.28962 0.0
O70 O 0.02679 0.27678 0.2811 0.0
H71 H 0.05592 0.28079 0.31037 0.0
C72 C 0.03259 0.21429 0.28183 0.0
C73 C 0.03447 0.22694 0.22742 0.0
C74 C 0.02843 0.2223 0.33559 0.0
C75 C 0.02634 0.24342 0.33469 0.0
C76 C 0.02854 0.25639 0.28075 0.0
C77 C 0.03229 0.2481 0.22677 0.0
H78 H 0.32036 0.01846 0.35774 0.0
H79 H 0.26713 0.00881 0.4684 0.0
H80 H 0.262 0.01731 0.27582 0.0
H81 H 0.22496 0.03409 0.33459 0.0
C82 C 0.23023 0.02888 0.38067 0.0
O83 O 0.24186 0.01185 0.37878 0.0
H84 H 0.23928 0.04174 0.39581 0.0
C85 C 0.30408 0.01724 0.36207 0.0
C86 C 0.29234 0.01853 0.31018 0.0
C87 C 0.29524 0.01359 0.41923 0.0
C88 C 0.27421 0.01148 0.42449 0.0
C89 C 0.26218 0.01317 0.37291 0.0
C90 C 0.27128 0.0163 0.31559 0.0
H91 H 0.50209 0.32997 0.3317 0.0
H92 H 0.50458 0.27458 0.4529 0.0
H93 H 0.4999 0.27193 0.26246 0.0
H94 H 0.47865 0.23521 0.33319 0.0
C95 C 0.48438 0.23865 0.37748 0.0
O96 O 0.50198 0.25022 0.36887 0.0
H97 H 0.47249 0.24726 0.39824 0.0
C98 C 0.50197 0.31342 0.3394 0.0
C99 C 0.50091 0.3022 0.29037 0.0
C100 C 0.50324 0.30367 0.39803 0.0
C101 C 0.50353 0.28231 0.40772 0.0
C102 C 0.50204 0.27083 0.35895 0.0
C103 C 0.5008 0.28079 0.3001 0.0
Co104 Co 0.01741 0.01264 0.81509 0.0
C105 C 0.9761 1.00251 0.82625 0.0
Co106 Co 1.00445 0.99857 0.73819 0.0
C107 C 0.03223 0.04572 0.87882 0.0
C108 C 0.02572 0.01856 0.93804 0.0
N109 N 0.02665 0.02584 0.8794 0.0
N110 N 0.03438 0.05126 0.93466 0.0
C111 C 0.03048 0.03405 0.97196 0.0
H112 H 0.03384 0.05615 0.83812 0.0
H113 H 0.02062 1.00331 0.95529 0.0
C114 C 0.0458 0.00871 0.72721 0.0
N115 N 0.99526 0.98549 0.67371 0.0
C116 C 0.989 0.96583 0.6738 0.0
C117 C 0.99698 0.99273 0.61522 0.0
N118 N 0.98717 0.96033 0.6177 0.0
C119 C 0.99204 0.97744 0.58089 0.0
C120 C 1.00223 0.04024 0.72285 0.0
O121 O 0.04353 0.01512 0.77817 0.0
O122 O 0.03067 1.00097 0.70266 0.0
O123 O 0.998 0.0245 0.69733 0.0
O124 O 0.01045 0.03814 0.774 0.0
O125 O 0.97822 0.99633 0.77489 0.0
H126 H 1.00275 0.00779 0.59846 0.0
H127 H 0.98673 0.95553 0.71449 0.0
O128 O 0.99133 0.01 0.85096 0.0
O129 O 0.02412 0.9867 0.85554 0.0
O130 O 0.01114 0.97301 0.77958 0.0
C131 C 0.01963 0.97093 0.8304 0.0
H132 H 0.02973 0.03296 0.02041 0.0
H133 H 0.99327 0.97865 0.53254 0.0
Co134 Co 0.50379 0.01074 0.81506 0.0
C135 C 0.51407 0.96959 0.82555 0.0
Co136 Co 0.51722 1.0009 0.73251 0.0
C137 C 0.4716 0.02234 0.89128 0.0
C138 C 0.49864 0.01564 0.94032 0.0
N139 N 0.49112 0.01757 0.88428 0.0
N140 N 0.46653 0.02309 0.94941 0.0
C141 C 0.48364 0.01905 0.98026 0.0
H142 H 0.46108 0.02451 0.85454 0.0
H143 H 0.51374 0.01087 0.95192 0.0
C144 C 0.50688 0.04204 0.72202 0.0
N145 N 0.52988 0.99397 0.66308 0.0
C146 C 0.54966 0.99047 0.65466 0.0
C147 C 0.5217 0.99399 0.60817 0.0
N148 N 0.55421 0.98868 0.59671 0.0
C149 C 0.53652 0.9907 0.56755 0.0
C150 C 0.47603 0.99616 0.73554 0.0
O151 O 0.5011 0.03789 0.7764 0.0
O152 O 0.51429 0.02801 0.69489 0.0
O153 O 0.49138 0.99357 0.70351 0.0
O154 O 0.47843 1.00331 0.78513 0.0
O155 O 0.52001 0.97374 0.77132 0.0
H156 H 0.50612 0.99708 0.59757 0.0
H157 H 0.56075 0.99026 0.68982 0.0
O158 O 0.50659 0.98363 0.85245 0.0
O159 O 0.52957 0.018 0.84436 0.0
O160 O 0.54256 0.00845 0.7625 0.0
C161 C 0.54493 0.01553 0.81223 0.0
H162 H 0.485 0.01741 0.02862 0.0
H163 H 0.5344 0.99037 0.5199 0.0
Co164 Co 0.52828 0.50583 0.78249 0.0
C165 C 0.50689 0.47712 0.85858 0.0
Co166 Co 0.49551 0.50596 0.76411 0.0
C167 C 0.56594 0.50501 0.84853 0.0
C168 C 0.57042 0.50689 0.75351 0.0
N169 N 0.55591 0.50593 0.79597 0.0
N170 N 0.58618 0.50526 0.84052 0.0
C171 C 0.58897 0.50648 0.7806 0.0
H172 H 0.55849 0.50386 0.89182 0.0
H173 H 0.56768 0.50783 0.70579 0.0
C174 C 0.517 0.53471 0.68818 0.0
N175 N 0.46789 0.50583 0.75057 0.0
C176 C 0.45787 0.50624 0.69808 0.0
C177 C 0.45335 0.50529 0.79287 0.0
N178 N 0.43764 0.50606 0.70597 0.0
C179 C 0.43482 0.50544 0.76574 0.0
C180 C 0.5077 0.53309 0.84299 0.0
O181 O 0.53186 0.52726 0.71815 0.0
O182 O 0.49944 0.52711 0.69974 0.0
O183 O 0.49261 0.5262 0.81648 0.0
O184 O 0.525 0.5258 0.83606 0.0
O185 O 0.49192 0.48463 0.82921 0.0
H186 H 0.45608 0.50477 0.84051 0.0
H187 H 0.46534 0.50692 0.6549 0.0
O188 O 0.52442 0.48461 0.84618 0.0
O189 O 0.5312 0.48567 0.72892 0.0
O190 O 0.4987 0.48591 0.71169 0.0
C191 C 0.5159 0.47864 0.70347 0.0
H192 H 0.60338 0.5073 0.75767 0.0
H193 H 0.42039 0.50481 0.78855 0.0
Co194 Co 0.01141 0.52389 0.77965 0.0
C195 C 0.04022 0.50268 0.84955 0.0
Co196 Co 0.01187 0.49102 0.76829 0.0
C197 C 0.00993 0.55964 0.84311 0.0
C198 C 0.00976 0.56735 0.74781 0.0
N199 N 0.01052 0.55135 0.7908 0.0
N200 N 0.00881 0.58022 0.83455 0.0
C201 C 0.00872 0.58506 0.77443 0.0
H202 H 0.01039 0.55067 0.88662 0.0
H203 H 0.00971 0.56618 0.70012 0.0
C204 C 0.98304 0.51219 0.69843 0.0
N205 N 0.01273 0.46358 0.757 0.0
C206 C 0.01354 0.45538 0.70458 0.0
C207 C 0.01307 0.4475 0.79983 0.0
N208 N 0.01437 0.43479 0.71291 0.0
C209 C 0.01405 0.42983 0.77298 0.0
C210 C 0.98512 0.49959 0.85566 0.0
O211 O 0.99013 0.52738 0.72232 0.0
O212 O 0.99083 0.49483 0.71136 0.0
O213 O 0.99208 0.48507 0.82983 0.0
O214 O 0.99191 0.51764 0.84105 0.0
O215 O 0.0331 0.48749 0.82571 0.0
H216 H 0.01284 0.44857 0.84757 0.0
H217 H 0.01341 0.46441 0.66112 0.0
O218 O 0.0325 0.52007 0.83651 0.0
O219 O 0.03118 0.52984 0.71805 0.0
O220 O 0.03149 0.49726 0.70718 0.0
C221 C 0.03834 0.5153 0.69272 0.0
H222 H 0.00753 0.60027 0.75107 0.0
H223 H 0.01492 0.41455 0.79612 0.0
H224 H 0.22685 0.03455 0.49956 0.0
H225 H 0.19689 0.02923 0.56469 0.0
H226 H 0.16352 0.00705 0.42011 0.0
H227 H 0.19349 0.01226 0.35516 0.0
H228 H 0.15975 0.04801 0.54333 0.0
H229 H 0.15046 0.96385 0.56203 0.0
H230 H 0.17359 0.97701 0.53627 0.0
H231 H 0.15265 0.97585 0.48616 0.0
C232 C 0.21314 0.02835 0.48203 0.0
C233 C 0.21235 0.02403 0.4222 0.0
C234 C 0.19606 0.02534 0.51916 0.0
C235 C 0.17797 0.01763 0.49748 0.0
C236 C 0.17736 0.01273 0.43819 0.0
H237 H 0.05463 0.99807 0.61613 0.0
H238 H 0.08711 1.0005 0.56408 0.0
C239 C 0.19443 0.01579 0.40102 0.0
C240 C 0.15943 0.01583 0.53554 0.0
H241 H 0.12281 0.98212 0.59509 0.0
C242 C 0.15176 0.03358 0.55519 0.0
C243 C 0.149 0.99701 0.55087 0.0
C244 C 0.15691 0.9773 0.53326 0.0
C245 C 0.13361 0.03314 0.58798 0.0
C246 C 0.12302 0.01434 0.60267 0.0
C247 C 0.13088 0.99654 0.58383 0.0
C248 C 0.10336 0.01291 0.63542 0.0
C249 C 0.12557 0.05294 0.6046 0.0
C250 C 0.10164 0.0189 0.69331 0.0
C251 C 0.08298 0.01762 0.72327 0.0
C252 C 0.0657 0.01015 0.69612 0.0
C253 C 0.06758 1.00393 0.63847 0.0
C254 C 0.08618 1.00527 0.60859 0.0
H255 H 0.13269 0.06637 0.57737 0.0
H256 H 0.109 0.05353 0.59853 0.0
H257 H 0.12887 0.05417 0.65249 0.0
H258 H 0.11475 0.02444 0.71553 0.0
H259 H 0.08212 0.02241 0.76774 0.0
H260 H 0.4985 0.20288 0.34464 0.0
H261 H 0.50326 0.17049 0.40837 0.0
H262 H 0.48436 0.19834 0.56328 0.0
H263 H 0.47952 0.23069 0.49954 0.0
H264 H 0.5278 0.16156 0.51219 0.0
H265 H 0.44634 0.14777 0.56436 0.0
H266 H 0.45524 0.16617 0.50355 0.0
H267 H 0.45652 0.17208 0.57958 0.0
C268 C 0.49537 0.20201 0.3923 0.0
C269 C 0.48823 0.21907 0.41709 0.0
C270 C 0.49812 0.18357 0.42864 0.0
C271 C 0.49377 0.18189 0.49036 0.0
C272 C 0.48736 0.19916 0.51556 0.0
H273 H 0.49309 0.07632 0.76622 0.0
H274 H 0.49074 0.11076 0.71279 0.0
C275 C 0.48467 0.21762 0.47925 0.0
C276 C 0.49584 0.16201 0.52811 0.0
H277 H 0.4689 0.12409 0.6121 0.0
C278 C 0.51494 0.15336 0.53409 0.0
C279 C 0.47905 0.1514 0.55692 0.0
C280 C 0.45808 0.15968 0.5506 0.0
C281 C 0.51772 0.13439 0.56822 0.0
C282 C 0.50086 0.12356 0.59601 0.0
C283 C 0.48181 0.13238 0.59081 0.0
C284 C 0.50254 0.10275 0.62881 0.0
C285 C 0.53875 0.12628 0.57481 0.0
C286 C 0.50964 0.08672 0.59918 0.0
C287 C 0.51105 0.06708 0.62953 0.0
C288 C 0.50519 0.06295 0.69018 0.0
C289 C 0.49779 0.07897 0.71962 0.0
C290 C 0.49643 0.09867 0.68914 0.0
H291 H 0.55034 0.13873 0.56693 0.0
H292 H 0.54101 0.11798 0.62015 0.0
H293 H 0.54118 0.11553 0.54111 0.0
H294 H 0.51395 0.08935 0.55225 0.0
H295 H 0.51666 0.05511 0.60524 0.0
H296 H 0.31386 0.49791 0.26283 0.0
H297 H 0.34155 0.49458 0.33531 0.0
H298 H 0.30457 0.52043 0.46436 0.0
H299 H 0.27684 0.52355 0.39214 0.0
H300 H 0.36116 0.52566 0.38752 0.0
H301 H 0.32583 0.46958 0.5624 0.0
H302 H 0.3159 0.47434 0.48743 0.0
H303 H 0.31079 0.49152 0.54193 0.0
C304 C 0.31166 0.50275 0.30685 0.0
C305 C 0.29333 0.51117 0.32186 0.0
C306 C 0.32745 0.50086 0.34815 0.0
C307 C 0.3251 0.50709 0.4055 0.0
C308 C 0.30665 0.51519 0.42082 0.0
H309 H 0.39961 0.51985 0.71339 0.0
H310 H 0.3731 0.51957 0.63858 0.0
C311 C 0.29087 0.51709 0.37951 0.0
C312 C 0.34221 0.50594 0.44831 0.0
H313 H 0.35599 0.48637 0.58958 0.0
C314 C 0.36011 0.51692 0.43151 0.0
C315 C 0.34082 0.49454 0.50571 0.0
C316 C 0.32238 0.48166 0.52536 0.0
C317 C 0.37642 0.51733 0.47119 0.0
C318 C 0.37492 0.50617 0.52892 0.0
C319 C 0.35712 0.49496 0.54539 0.0
C320 C 0.39137 0.50641 0.57368 0.0
C321 C 0.39485 0.53026 0.45169 0.0
C322 C 0.41051 0.49899 0.56235 0.0
C323 C 0.42577 0.49907 0.60531 0.0
C324 C 0.42215 0.50641 0.66072 0.0
C325 C 0.40292 0.51381 0.67174 0.0
C326 C 0.38773 0.51375 0.62883 0.0
H327 H 0.39175 0.54156 0.41232 0.0
H328 H 0.40051 0.53853 0.48882 0.0
H329 H 0.40695 0.52026 0.43888 0.0
H330 H 0.41357 0.49287 0.5206 0.0
H331 H 0.44025 0.49297 0.59559 0.0
H332 H 0.0495 0.3311 0.27109 0.0
H333 H 0.04356 0.35622 0.34119 0.0
H334 H 0.0187 0.30863 0.47041 0.0
H335 H 0.02503 0.28346 0.40101 0.0
H336 H 0.00881 0.36788 0.3961 0.0
H337 H 0.06242 0.33393 0.56628 0.0
H338 H 0.06145 0.32678 0.49113 0.0
H339 H 0.04328 0.31629 0.54671 0.0
C340 C 0.04258 0.32605 0.31424 0.0
C341 C 0.03753 0.30532 0.33032 0.0
C342 C 0.03923 0.3404 0.35429 0.0
C343 C 0.03096 0.33429 0.41146 0.0
C344 C 0.02545 0.31367 0.42703 0.0
H345 H 1.00294 0.39475 0.72357 0.0
H346 H 1.00652 0.37104 0.64866 0.0
C347 C 0.02887 0.29931 0.38709 0.0
C348 C 0.02837 0.34941 0.45505 0.0
H349 H 0.04198 0.36021 0.59487 0.0
C350 C 0.01613 0.36627 0.43947 0.0
C351 C 0.03799 0.34735 0.51158 0.0
C352 C 0.05218 0.33023 0.52984 0.0
C353 C 0.01286 0.38081 0.47939 0.0
C354 C 0.02233 0.37862 0.53611 0.0
C355 C 0.03466 0.36184 0.55151 0.0
C356 C 0.01959 0.39343 0.58052 0.0
C357 C 0.99893 0.39814 0.4611 0.0
C358 C 0.02584 0.41394 0.56738 0.0
C359 C 0.0239 0.42757 0.61037 0.0
C360 C 0.01579 0.42095 0.66763 0.0
C361 C 0.00949 0.40038 0.6804 0.0
C362 C 0.01143 0.38679 0.63744 0.0
H363 H 0.98906 0.39488 0.42333 0.0
H364 H 0.9893 0.40127 0.49942 0.0
H365 H 0.00803 0.41214 0.44628 0.0
H366 H 0.0326 0.41933 0.52425 0.0
H367 H 0.02923 0.44317 0.59915 0.0
H368 H 0.83154 0.01657 0.19108 0.0
H369 H 0.86131 0.0121 0.12947 0.0
H370 H 0.823 0.99519 0.98772 0.0
H371 H 0.79312 1.00008 0.04902 0.0
H372 H 0.87506 0.97863 0.08036 0.0
H373 H 0.85778 0.04076 0.90014 0.0
H374 H 0.84465 0.03756 0.9713 0.0
H375 H 0.83831 0.02146 0.91453 0.0
C376 C 0.82949 0.01177 0.14693 0.0
C377 C 0.81004 0.00856 0.12489 0.0
C378 C 0.8465 0.00923 0.11171 0.0
C379 C 0.84443 1.00359 0.05354 0.0
C380 C 0.825 0.99994 0.03193 0.0
H381 H 0.93921 0.99053 0.78478 0.0
H382 H 0.90664 0.98904 0.83785 0.0
C383 C 0.80796 1.00254 0.06712 0.0
C384 C 0.86269 1.00167 0.0159 0.0
H385 H 0.8867 0.02165 0.88626 0.0
C386 C 0.87755 0.98799 0.03783 0.0
C387 C 0.86595 0.01383 0.9602 0.0
C388 C 0.85094 0.02937 0.93522 0.0
C389 C 0.89561 0.98629 0.00602 0.0
C390 C 0.89907 0.99878 0.95111 0.0
C391 C 0.88401 0.01206 0.92829 0.0
C392 C 0.91874 0.99926 0.91887 0.0
C393 C 0.91086 0.9711 0.03152 0.0
C394 C 0.93628 1.00573 0.94645 0.0
C395 C 0.95481 0.00667 0.91633 0.0
C396 C 0.95627 1.0012 0.85769 0.0
C397 C 0.93865 0.99477 0.82993 0.0
C398 C 0.92003 0.99394 0.86016 0.0
H399 H 0.9038 0.95891 0.06376 0.0
H400 H 0.91842 0.96392 0.99533 0.0
H401 H 0.92254 0.97911 0.05586 0.0
H402 H 0.93562 0.0103 0.99123 0.0
H403 H 0.96801 0.01176 0.93913 0.0
H404 H 0.49822 0.78071 0.06474 0.0
H405 H 0.50162 0.8123 0.99547 0.0
H406 H 0.53211 0.84165 0.13274 0.0
H407 H 0.52887 0.81004 0.20172 0.0
H408 H 0.48529 0.84923 0.0132 0.0
H409 H 0.56815 0.85767 0.98588 0.0
H410 H 0.55586 0.83395 0.016 0.0
H411 H 0.56004 0.85393 0.06291 0.0
C412 C 0.50581 0.79389 0.07973 0.0
C413 C 0.51302 0.79311 0.13869 0.0
C414 C 0.50776 0.81189 0.04024 0.0
C415 C 0.51725 0.82932 0.05871 0.0
C416 C 0.52503 0.82833 0.11709 0.0
H417 H 0.50057 0.95588 0.93845 0.0
H418 H 0.50176 0.92137 0.99054 0.0
C419 C 0.52305 0.81034 0.15661 0.0
C420 C 0.51765 0.84894 0.01867 0.0
H421 H 0.54896 0.88722 0.95393 0.0
C422 C 0.49923 0.85742 0.99977 0.0
C423 C 0.53584 0.85955 1.00056 0.0
C424 C 0.55611 0.85074 0.01685 0.0
C425 C 0.49846 0.87653 0.96517 0.0
C426 C 0.51659 0.88759 0.94955 0.0
C427 C 0.53507 0.8788 0.96645 0.0
C428 C 0.51652 0.90863 0.91781 0.0
C429 C 0.47822 0.8848 0.94578 0.0
C430 C 0.52488 0.91306 0.86002 0.0
C431 C 0.52423 0.93287 0.82986 0.0
C432 C 0.51537 0.94863 0.8573 0.0
C433 C 0.50742 0.94414 0.91574 0.0
C434 C 0.50801 0.92438 0.9456 0.0
H435 H 0.46644 0.87251 0.94764 0.0
H436 H 0.47354 0.89592 0.97631 0.0
H437 H 0.479 0.8928 0.89943 0.0
H438 H 0.53163 0.90112 0.83793 0.0
H439 H 0.53056 0.93582 0.78504 0.0
H440 H 0.74737 0.48787 0.15264 0.0
H441 H 0.71925 0.49036 0.08156 0.0
H442 H 0.68164 0.51339 0.21445 0.0
H443 H 0.70981 0.51106 0.28529 0.0
H444 H 0.68149 0.4703 0.09739 0.0
H445 H 0.6733 0.55437 0.06526 0.0
H446 H 0.69548 0.54238 0.09793 0.0
H447 H 0.67293 0.54311 0.14212 0.0
C448 C 0.73309 0.49352 0.1664 0.0
C449 C 0.73061 0.49899 0.22457 0.0
C450 C 0.71707 0.49495 0.1259 0.0
C451 C 0.69837 0.50219 0.1425 0.0
C452 C 0.696 0.50804 0.2003 0.0
H453 H 0.58357 0.51667 0.95306 0.0
H454 H 0.61016 0.51529 0.02876 0.0
C455 C 0.71202 0.50658 0.24085 0.0
C456 C 0.68115 0.50276 0.10017 0.0
H457 H 0.64825 0.5347 0.02183 0.0
C458 C 0.67426 0.48439 0.08075 0.0
C459 C 0.67162 0.52113 0.07884 0.0
C460 C 0.67877 0.54141 0.0966 0.0
C461 C 0.65805 0.48385 0.04088 0.0
C462 C 0.64869 0.50225 0.01881 0.0
C463 C 0.65541 0.5206 0.03879 0.0
C464 C 0.6324 0.50282 0.97337 0.0
C465 C 0.6509 0.46351 0.02345 0.0
C466 C 0.63608 0.49645 0.91692 0.0
C467 C 0.62091 0.4971 0.87379 0.0
C468 C 0.60168 0.5043 0.88583 0.0
C469 C 0.59806 0.51078 0.94243 0.0
C470 C 0.6133 0.51014 0.98564 0.0
H471 H 0.65549 0.4507 0.05681 0.0
H472 H 0.63425 0.46287 0.01901 0.0
H473 H 0.65769 0.46121 0.97954 0.0
H474 H 0.65078 0.49109 0.90596 0.0
H475 H 0.62426 0.49179 0.83111 0.0
H476 H 0.96863 0.69728 0.24303 0.0
H477 H 0.96921 0.67333 0.16694 0.0
H478 H 0.0318 0.68899 0.13024 0.0
H479 H 0.03125 0.7129 0.20606 0.0
H480 H 0.97978 0.6801 0.04158 0.0
H481 H 0.03061 0.62597 0.17122 0.0
H482 H 0.01735 0.64538 0.20489 0.0
H483 H 0.03968 0.65201 0.16071 0.0
C484 C 0.98244 0.69565 0.21833 0.0
C485 C 0.99992 0.70679 0.23063 0.0
C486 C 0.98277 0.682 0.17502 0.0
C487 C 1.00064 0.67912 0.14364 0.0
C488 C 0.01795 0.69068 0.15469 0.0
H489 H 0.01896 0.62064 0.82191 0.0
H490 H 0.01604 0.64432 0.89705 0.0
C491 C 0.0176 0.7044 0.19775 0.0
C492 C 1.00124 0.66394 0.09969 0.0
H493 H 0.0236 0.61992 0.07111 0.0
C494 C 0.98931 0.66691 0.04806 0.0
C495 C 0.01347 0.64658 0.10864 0.0
C496 C 0.02589 0.64211 0.16457 0.0
C497 C 0.98966 0.65324 0.00444 0.0
C498 C 1.00242 0.63626 0.01241 0.0
C499 C 0.01397 0.63303 0.06477 0.0
C500 C 1.00411 0.62177 0.96669 0.0
C501 C 0.9762 0.65699 0.95047 0.0
C502 C 0.99885 0.60105 0.98114 0.0
C503 C 1.00046 0.5874 0.93807 0.0
C504 C 0.00751 0.59416 0.87965 0.0
C505 C 0.01308 0.6149 0.86583 0.0
C506 C 0.01143 0.62851 0.90884 0.0
H507 H 0.96376 0.66733 0.95847 0.0
H508 H 0.98523 0.66424 0.91169 0.0
H509 H 0.96961 0.64244 0.93826 0.0
H510 H 0.99325 0.59548 0.02561 0.0
H511 H 0.99584 0.57165 0.9504 0.0
H512 H 0.05156 0.19018 0.37641 0.0
H513 H 0.0434 0.16312 0.45692 0.0
H514 H 0.99087 0.19544 0.50301 0.0
H515 H 0.99855 0.22231 0.42039 0.0
H516 H 0.03799 0.16097 0.57734 0.0
H517 H 0.96669 0.14126 0.46554 0.0
H518 H 0.98533 0.15884 0.42909 0.0
H519 H 0.96882 0.16683 0.48509 0.0
C520 C 0.03832 0.1916 0.40391 0.0
C521 C 0.02547 0.20814 0.39141 0.0
C522 C 0.03374 0.17619 0.45012 0.0
C523 C 0.01627 0.17704 0.48501 0.0
C524 C 1.00417 0.19428 0.47563 0.0
H525 H 1.00095 0.07572 0.77347 0.0
H526 H 1.00113 0.1104 0.72167 0.0
C527 C 0.0087 0.20972 0.42896 0.0
C528 C 0.01039 0.15915 0.52817 0.0
H529 H 0.97571 0.12 0.55194 0.0
C530 C 0.02424 0.15213 0.57244 0.0
C531 C 0.99256 0.14755 0.52095 0.0
C532 C 0.97753 0.15384 0.47237 0.0
C533 C 0.02119 0.13341 0.60813 0.0
C534 C 1.00344 0.12169 0.60051 0.0
C535 C 0.98922 0.12909 0.55783 0.0
C536 C 1.0003 0.10092 0.63256 0.0
C537 C 0.03756 0.12586 0.65109 0.0
C538 C 0.99845 0.08411 0.59976 0.0
C539 C 0.99791 0.06426 0.62928 0.0
C540 C 0.99938 0.06094 0.69204 0.0
C541 C 1.00006 0.07782 0.72494 0.0
C542 C 1.0003 0.09765 0.69544 0.0
H543 H 0.05207 0.13433 0.64109 0.0
H544 H 0.03298 0.12803 0.69749 0.0
H545 H 0.04011 0.10937 0.64947 0.0
H546 H 0.99831 0.08632 0.55115 0.0
H547 H 0.99738 0.05155 0.60281 0.0
H548 H 0.29556 0.9823 0.51055 0.0
H549 H 0.32204 0.97559 0.58609 0.0
H550 H 0.35188 0.03254 0.51948 0.0
H551 H 0.32543 0.03941 0.44536 0.0
H552 H 0.36139 0.97074 0.55689 0.0
H553 H 0.35648 0.03342 0.69837 0.0
H554 H 0.33612 0.0269 0.65047 0.0
H555 H 0.3568 0.04315 0.62038 0.0
C556 C 0.30743 0.99366 0.51363 0.0
C557 C 0.30852 0.01135 0.47227 0.0
C558 C 0.32259 0.98976 0.55638 0.0
C559 C 0.33884 1.00365 0.55876 0.0
C560 C 0.3393 0.02181 0.51942 0.0
H561 H 0.46387 0.99108 0.62167 0.0
H562 H 0.42922 0.98944 0.58563 0.0
C563 C 0.32426 0.02566 0.47679 0.0
C564 C 0.35657 0.99838 0.59689 0.0
H565 H 0.38939 0.01859 0.69159 0.0
C566 C 0.36732 0.98096 0.5874 0.0
C567 C 0.36416 0.01153 0.6373 0.0
C568 C 0.35264 0.02967 0.65271 0.0
C569 C 0.38611 0.97705 0.61429 0.0
C570 C 0.39451 0.9912 0.6505 0.0
C571 C 0.38313 0.00789 0.66305 0.0
C572 C 0.41544 0.98974 0.67325 0.0
C573 C 0.39683 0.95797 0.60294 0.0
C574 C 0.41927 0.9906 0.73434 0.0
C575 C 0.43902 0.99188 0.7548 0.0
C576 C 0.45538 0.99228 0.71457 0.0
C577 C 0.45159 0.99062 0.65378 0.0
C578 C 0.43178 0.98955 0.63322 0.0
H579 H 0.38596 0.94576 0.59323 0.0
H580 H 0.40685 0.96143 0.56315 0.0
H581 H 0.40614 0.95212 0.64191 0.0
H582 H 0.40693 0.99083 0.76601 0.0
H583 H 0.44145 0.99306 0.802 0.0
H584 H 0.47654 0.33147 0.42581 0.0
H585 H 0.48197 0.35781 0.49257 0.0
H586 H 0.53889 0.33164 0.54688 0.0
H587 H 0.53343 0.30509 0.47975 0.0
H588 H 0.49199 0.35629 0.62158 0.0
H589 H 0.55173 0.39135 0.4641 0.0
H590 H 0.53368 0.37272 0.44251 0.0
H591 H 0.55369 0.36484 0.49275 0.0
C592 C 0.48995 0.33105 0.45322 0.0
C593 C 0.50461 0.31638 0.4478 0.0
C594 C 0.49305 0.34607 0.49119 0.0
C595 C 0.51094 0.34678 0.52387 0.0
C596 C 0.52507 0.33139 0.5215 0.0
H597 H 0.54865 0.45455 0.69533 0.0
H598 H 0.5493 0.42151 0.65572 0.0
C599 C 0.52188 0.31619 0.48371 0.0
C600 C 0.51527 0.36473 0.55572 0.0
H601 H 0.54157 0.41012 0.54103 0.0
C602 C 0.50304 0.36794 0.60466 0.0
C603 C 0.52971 0.37985 0.53338 0.0
C604 C 0.54295 0.37721 0.48012 0.0
C605 C 0.50446 0.38619 0.63085 0.0
C606 C 0.51812 0.40177 0.60636 0.0
C607 C 0.53103 0.39818 0.5593 0.0
C608 C 0.51828 0.42231 0.62666 0.0
C609 C 0.49114 0.38872 0.68401 0.0
C610 C 0.5009 0.43403 0.621 0.0
C611 C 0.50047 0.45287 0.64331 0.0
C612 C 0.5175 0.46042 0.67134 0.0
C613 C 0.53528 0.44916 0.67397 0.0
C614 C 0.53566 0.43024 0.65168 0.0
H615 H 0.4863 0.37373 0.70812 0.0
H616 H 0.49897 0.39775 0.7161 0.0
H617 H 0.4774 0.3969 0.66809 0.0
H618 H 0.4875 0.42842 0.60028 0.0
H619 H 0.48659 0.46122 0.64015 0.0
H620 H 0.2077 0.54157 0.39233 0.0
H621 H 0.18189 0.54738 0.46719 0.0
H622 H 0.16197 0.48447 0.47417 0.0
H623 H 0.18771 0.47873 0.40019 0.0
H624 H 0.14155 0.54284 0.44357 0.0
H625 H 0.16036 0.49308 0.65008 0.0
H626 H 0.17861 0.5004 0.59105 0.0
H627 H 0.16107 0.47949 0.58547 0.0
C628 C 0.19828 0.52888 0.41192 0.0
C629 C 0.19975 0.50965 0.39171 0.0
C630 C 0.18351 0.53221 0.45417 0.0
C631 C 0.17018 0.51629 0.47681 0.0
C632 C 0.17239 0.49683 0.45858 0.0
H633 H 0.05567 0.48787 0.6279 0.0
H634 H 0.08819 0.49132 0.57625 0.0
C635 C 0.18706 0.49355 0.41634 0.0
C636 C 0.15227 0.52035 0.51277 0.0
H637 H 0.12514 0.50125 0.63697 0.0
C638 C 0.13813 0.53413 0.48659 0.0
C639 C 0.14786 0.50896 0.5688 0.0
C640 C 0.1629 0.49482 0.60074 0.0
C641 C 0.11912 0.53578 0.51304 0.0
C642 C 0.1143 0.52345 0.56717 0.0
C643 C 0.12884 0.51052 0.59502 0.0
C644 C 0.09381 0.52249 0.59353 0.0
C645 C 0.10392 0.54979 0.48137 0.0
C646 C 0.086 0.53909 0.61902 0.0
C647 C 0.0673 0.53722 0.64844 0.0
C648 C 0.05624 0.51865 0.65307 0.0
C649 C 0.0638 0.50237 0.62524 0.0
C650 C 0.08242 0.50427 0.59592 0.0
H651 H 0.10907 0.55617 0.43568 0.0
H652 H 0.08929 0.54155 0.47769 0.0
H653 H 0.1013 0.56267 0.5079 0.0
H654 H 0.09468 0.55322 0.61804 0.0
H655 H 0.06196 0.54999 0.6698 0.0
H656 H 0.98593 0.79279 0.1061 0.0
H657 H 0.99167 0.8201 0.02342 0.0
H658 H 0.04614 0.83864 0.10825 0.0
H659 H 0.04053 0.81135 0.19047 0.0
H660 H 0.99207 0.86013 0.05293 0.0
H661 H 0.06175 0.84569 0.92912 0.0
H662 H 0.04751 0.82564 0.97364 0.0
H663 H 0.06439 0.8421 0.00928 0.0
C664 C 0.99954 0.80217 0.10569 0.0
C665 C 0.01277 0.80008 0.15455 0.0
C666 C 1.00275 0.8178 0.0587 0.0
C667 C 0.01937 0.83131 0.05963 0.0
C668 C 0.03342 0.82818 0.10608 0.0
H669 H 0.02987 0.95995 0.94764 0.0
H670 H 0.03104 0.92526 1.00001 0.0
C671 C 0.03015 0.81268 0.15317 0.0
C672 C 0.02024 0.85057 0.01867 0.0
H673 H 0.05053 0.88026 0.91872 0.0
C674 C 1.00471 0.86441 0.02294 0.0
C675 C 0.03679 0.85613 0.97984 0.0
C676 C 0.05348 0.84154 0.97214 0.0
C677 C 1.00561 0.88392 0.99088 0.0
C678 C 0.02252 0.88977 0.95398 0.0
C679 C 0.03774 0.87575 0.94788 0.0
C680 C 0.02434 0.91044 0.92114 0.0
C681 C 0.98856 0.89828 0.99708 0.0
C682 C 0.02069 0.91341 0.85938 0.0
C683 C 0.0199 0.93313 0.82948 0.0
C684 C 0.02289 0.95021 0.86088 0.0
C685 C 0.02752 0.94712 0.92227 0.0
C686 C 0.02816 0.92736 0.95223 0.0
H687 H 0.97513 0.89033 0.01937 0.0
H688 H 0.99365 0.9104 0.02434 0.0
H689 H 0.9841 0.90579 0.95236 0.0
H690 H 0.01769 0.90049 0.83481 0.0
H691 H 0.01641 0.93499 0.78206 0.0
H692 H 0.69387 0.97613 0.11186 0.0
H693 H 0.6675 0.98224 0.03697 0.0
H694 H 0.69943 0.03661 0.9586 0.0
H695 H 0.72598 0.03053 0.03446 0.0
H696 H 0.65946 0.04311 0.98853 0.0
H697 H 0.66372 0.97737 0.85807 0.0
H698 H 0.66372 0.96941 0.93729 0.0
H699 H 0.68431 0.98498 0.90355 0.0
C700 C 0.6955 0.9891 0.07769 0.0
C701 C 0.71189 1.00287 0.07864 0.0
C702 C 0.68049 0.99253 0.03476 0.0
C703 C 0.68161 0.00976 0.99184 0.0
C704 C 0.6984 0.02314 0.99111 0.0
H705 H 0.57964 0.01807 0.74629 0.0
H706 H 0.61409 0.02064 0.78254 0.0
C707 C 0.71357 0.01961 0.03404 0.0
C708 C 0.66408 0.01467 0.95271 0.0
H709 H 0.63123 0.9931 0.86088 0.0
C710 C 0.65347 0.03242 0.95952 0.0
C711 C 0.65643 1.00085 0.91438 0.0
C712 C 0.66777 0.9822 0.90237 0.0
C713 C 0.63474 0.03603 0.93202 0.0
C714 C 0.62629 0.02132 0.89781 0.0
C715 C 0.63755 1.00426 0.88784 0.0
C716 C 0.60541 0.02257 0.87472 0.0
C717 C 0.62405 0.05539 0.94074 0.0
C718 C 0.58903 0.02309 0.91437 0.0
C719 C 0.56925 0.02176 0.8937 0.0
C720 C 0.56555 0.01955 0.83319 0.0
C721 C 0.58198 0.01965 0.79329 0.0
C722 C 0.60169 0.02114 0.81387 0.0
H723 H 0.63493 0.06772 0.94957 0.0
H724 H 0.61496 0.06081 0.90087 0.0
H725 H 0.61382 0.05247 0.98019 0.0
H726 H 0.59152 0.02367 0.96181 0.0
H727 H 0.55693 0.02157 0.92557 0.0
H728 H 0.48862 0.67401 0.17726 0.0
H729 H 0.48566 0.647 0.11305 0.0
H730 H 0.52322 0.68213 0.97945 0.0
H731 H 0.52789 0.70853 0.04663 0.0
H732 H 0.47246 0.64107 0.01133 0.0
H733 H 0.55534 0.63234 0.00324 0.0
H734 H 0.54369 0.64935 0.0494 0.0
H735 H 0.54739 0.65685 0.9702 0.0
C736 C 0.49641 0.67598 0.13439 0.0
C737 C 0.50913 0.69309 0.11813 0.0
C738 C 0.49451 0.66057 0.09729 0.0
C739 C 0.50483 0.66211 0.04221 0.0
C740 C 0.51581 0.68018 0.02285 0.0
H741 H 0.48271 0.56453 0.81504 0.0
H742 H 0.4817 0.59645 0.85965 0.0
C743 C 0.51817 0.69545 0.06086 0.0
C744 C 0.50482 0.64419 0.00773 0.0
H745 H 0.53571 0.61073 0.9495 0.0
C746 C 0.48631 0.63444 0.9978 0.0
C747 C 0.5229 0.63528 0.99099 0.0
C748 C 0.54345 0.64385 0.00449 0.0
C749 C 0.48535 0.61582 0.97343 0.0
C750 C 0.5034 0.60722 0.95513 0.0
C751 C 0.52187 0.61727 0.96345 0.0
C752 C 0.50364 0.58763 0.92849 0.0
C753 C 0.46506 0.60518 0.97053 0.0
C754 C 0.51688 0.57222 0.95061 0.0
C755 C 0.51803 0.55424 0.9236 0.0
C756 C 0.50559 0.55115 0.875 0.0
C757 C 0.49212 0.56636 0.8535 0.0
C758 C 0.49144 0.58458 0.87922 0.0
H759 H 0.4544 0.60994 0.00427 0.0
H760 H 0.45845 0.60935 0.92558 0.0
H761 H 0.46633 0.58834 0.97836 0.0
H762 H 0.52652 0.57419 0.98844 0.0
H763 H 0.52865 0.54279 0.94056 0.0
H764 H 0.84286 0.53789 0.17441 0.0
H765 H 0.86994 0.53087 0.10614 0.0
H766 H 0.84163 0.47281 0.08384 0.0
H767 H 0.81424 0.47993 0.15222 0.0
H768 H 0.89351 0.49438 0.13968 0.0
H769 H 0.86088 0.49791 0.91021 0.0
H770 H 0.84997 0.51138 0.96765 0.0
H771 H 0.84711 0.48419 0.97224 0.0
C772 C 0.84211 0.52391 0.15346 0.0
C773 C 0.82657 0.50943 0.16834 0.0
C774 C 0.85758 0.51989 0.11474 0.0
C775 C 0.85777 0.50132 0.09023 0.0
C776 C 0.8416 0.48732 0.10192 0.0
H777 H 0.95951 0.46626 0.8732 0.0
H778 H 0.92848 0.46285 0.93384 0.0
C779 C 0.82598 0.49141 0.14067 0.0
C780 C 0.8761 0.49595 0.05855 0.0
H781 H 0.89565 0.49209 0.91958 0.0
C782 C 0.89395 0.49362 0.09165 0.0
C783 C 0.87651 0.49473 0.99616 0.0
C784 C 0.85766 0.49724 0.95904 0.0
C785 C 0.91242 0.491 0.06353 0.0
C786 C 0.91305 0.49097 1.00064 0.0
C787 C 0.89505 0.49216 0.96787 0.0
C788 C 0.93241 0.49203 0.96761 0.0
C789 C 0.9312 0.4888 0.10108 0.0
C790 C 0.94487 0.50949 0.96712 0.0
C791 C 0.96246 0.51152 0.9326 0.0
C792 C 0.96795 0.4961 0.89793 0.0
C793 C 0.95575 0.47831 0.89988 0.0
C794 C 0.938 0.47638 0.93413 0.0
H795 H 0.9276 0.48335 0.14874 0.0
H796 H 0.94172 0.47805 0.08351 0.0
H797 H 0.93903 0.50389 0.09962 0.0
H798 H 0.94066 0.52184 0.99213 0.0
H799 H 0.9715 0.52542 0.93193 0.0
H800 H 0.06723 0.20622 0.19917 0.0
H801 H 0.06845 0.181 0.12771 0.0
H802 H 0.00939 0.19834 0.06414 0.0
H803 H 0.00819 0.22367 0.13603 0.0
H804 H 0.01184 0.15752 0.10846 0.0
H805 H 0.07417 0.17878 0.94685 0.0
H806 H 0.08132 0.18005 0.02342 0.0
H807 H 0.06262 0.19698 0.98979 0.0
C808 C 0.05493 0.20528 0.16794 0.0
C809 C 0.03773 0.21704 0.1724 0.0
C810 C 0.05562 0.19085 0.12713 0.0
C811 C 0.03907 0.18784 0.09017 0.0
C812 C 0.0224 0.20052 0.09184 0.0
H813 H 0.02693 0.08738 0.86662 0.0
H814 H 0.02847 0.12145 0.89904 0.0
C815 C 0.02178 0.21511 0.13247 0.0
C816 C 0.03797 0.16945 0.05766 0.0
H817 H 0.06337 0.14344 0.95882 0.0
C818 C 0.02292 0.15462 0.075 0.0
C819 C 0.05243 0.16561 0.01406 0.0
C820 C 0.06845 0.18128 0.99195 0.0
C821 C 0.02243 0.13576 0.05186 0.0
C822 C 0.03745 0.13153 0.0105 0.0
C823 C 0.05201 0.14664 0.99107 0.0
C824 C 0.03844 0.11119 0.98881 0.0
C825 C 1.00606 0.12027 0.07259 0.0
C826 C 0.04406 0.09419 0.0281 0.0
C827 C 0.04342 0.07468 0.00963 0.0
C828 C 0.03703 0.07168 0.95147 0.0
C829 C 0.03211 0.08895 0.91151 0.0
C830 C 0.03287 0.1085 0.93001 0.0
H831 H 0.99349 0.12722 0.09526 0.0
H832 H 0.99994 0.113 0.03408 0.0
H833 H 0.01248 0.10812 0.10484 0.0
H834 H 0.0486 0.09599 0.07353 0.0
H835 H 0.04769 0.0619 0.04132 0.0
H836 H 0.29563 0.9915 0.22781 0.0
H837 H 0.32148 0.99274 0.14845 0.0
H838 H 0.34006 0.05302 0.18508 0.0
H839 H 0.31435 0.05177 0.26413 0.0
H840 H 0.34164 0.04584 0.05736 0.0
H841 H 0.3805 0.98814 0.21471 0.0
H842 H 0.35513 0.9819 0.19426 0.0
H843 H 0.35972 1.00256 0.23814 0.0
C844 C 0.30469 1.00531 0.21703 0.0
C845 C 0.30298 0.0216 0.25159 0.0
C846 C 0.31956 1.00594 0.17221 0.0
C847 C 0.33285 0.02288 0.16146 0.0
C848 C 0.32997 0.03983 0.19256 0.0
H849 H 0.45714 0.03541 0.05715 0.0
H850 H 0.42377 0.03547 0.10345 0.0
C851 C 0.31524 0.03915 0.23749 0.0
C852 C 0.3513 0.02206 0.12419 0.0
H853 H 0.39761 1.00049 0.12572 0.0
C854 C 0.3538 0.03576 0.07176 0.0
C855 C 0.36727 0.00914 0.14376 0.0
C856 C 0.36572 0.99467 0.20097 0.0
C857 C 0.37195 0.03696 0.03861 0.0
C858 C 0.38794 0.02412 0.05851 0.0
C859 C 0.38531 0.01028 0.1105 0.0
C860 C 0.40791 0.02535 0.02791 0.0
C861 C 0.37416 0.05241 0.98377 0.0
C862 C 0.4101 0.01975 0.96984 0.0
C863 C 0.42923 0.01955 0.9433 0.0
C864 C 0.4466 0.0249 0.97444 0.0
C865 C 0.44421 0.03094 0.03211 0.0
C866 C 0.42512 0.03108 0.05859 0.0
H867 H 0.36191 0.06365 0.9807 0.0
H868 H 0.38888 0.06073 0.98405 0.0
H869 H 0.3737 0.04439 0.94298 0.0
H870 H 0.39708 0.01494 0.94572 0.0
H871 H 0.43041 0.0145 0.8993 0.0
H872 H 0.53231 0.32081 0.22771 0.0
H873 H 0.53038 0.34795 0.14368 0.0
H874 H 0.46606 0.33793 0.13617 0.0
H875 H 0.46802 0.31084 0.22093 0.0
H876 H 0.51488 0.35189 0.02511 0.0
H877 H 0.47248 0.39705 0.17624 0.0
H878 H 0.48516 0.37396 0.20359 0.0
H879 H 0.46151 0.37263 0.16551 0.0
C880 C 0.5179 0.32393 0.20651 0.0
C881 C 0.50035 0.31366 0.22993 0.0
C882 C 0.51677 0.3395 0.15888 0.0
C883 C 0.49803 0.3452 0.13442 0.0
C884 C 0.48063 0.33395 0.15499 0.0
H885 H 0.47188 0.45594 0.89297 0.0
H886 H 0.46843 0.42337 0.95741 0.0
C887 C 0.48177 0.31832 0.20271 0.0
C888 C 0.49673 0.36405 0.0916 0.0
H889 H 0.48013 0.41299 0.07933 0.0
C890 C 0.50714 0.3652 0.0367 0.0
C891 C 0.48669 0.38144 0.10697 0.0
C892 C 0.47594 0.38139 0.16642 0.0
C893 C 0.50794 0.38332 0.997 0.0
C894 C 0.49836 0.40084 0.01313 0.0
C895 C 0.48747 0.39954 0.06718 0.0
C896 C 0.50029 0.42088 0.97578 0.0
C897 C 0.51907 0.38358 0.93813 0.0
C898 C 0.51925 0.43058 0.96635 0.0
C899 C 0.52126 0.4492 0.93 0.0
C900 C 0.50433 0.45857 0.90237 0.0
C901 C 0.48523 0.44915 0.91352 0.0
C902 C 0.48323 0.43051 0.95015 0.0
H903 H 0.52077 0.36795 0.92538 0.0
H904 H 0.51115 0.39293 0.9015 0.0
H905 H 0.53436 0.39038 0.94236 0.0
H906 H 0.53255 0.42364 0.98681 0.0
H907 H 0.53619 0.45603 0.92258 0.0
H908 H 0.18716 0.53372 0.17833 0.0
H909 H 0.16123 0.53064 0.10263 0.0
H910 H 0.18023 0.46968 0.08381 0.0
H911 H 0.20628 0.47273 0.16026 0.0
H912 H 0.1616 0.52066 0.98133 0.0
H913 H 0.12039 0.46269 0.13983 0.0
H914 H 0.14067 0.47844 0.16385 0.0
H915 H 0.14611 0.4575 0.12252 0.0
C916 C 0.18612 0.51986 0.15691 0.0
C917 C 0.19867 0.50345 0.17504 0.0
C918 C 0.17129 0.51809 0.11382 0.0
C919 C 0.16857 0.49981 0.08839 0.0
C920 C 0.18191 0.48382 0.10355 0.0
H921 H 0.06307 0.46878 0.87765 0.0
H922 H 0.09501 0.46672 0.93219 0.0
C923 C 0.19691 0.48564 0.1466 0.0
C924 C 0.15082 0.4973 0.04966 0.0
H925 H 0.10442 0.47377 0.04914 0.0
C926 C 0.14919 0.51025 0.99577 0.0
C927 C 0.13462 0.48371 0.06865 0.0
C928 C 0.13534 0.46985 0.12702 0.0
C929 C 0.13166 0.51024 0.96089 0.0
C930 C 0.11514 0.49727 0.98116 0.0
C931 C 0.11705 0.48377 0.03387 0.0
C932 C 0.09544 0.49824 0.94983 0.0
C933 C 0.13098 0.52421 0.90273 0.0
C934 C 0.08475 0.51645 0.94331 0.0
C935 C 0.06651 0.51768 0.91239 0.0
C936 C 0.05846 0.50065 0.88763 0.0
C937 C 0.06883 0.48219 0.89612 0.0
C938 C 0.08713 0.48099 0.9271 0.0
H939 H 0.14636 0.52831 0.8849 0.0
H940 H 0.12231 0.51705 0.86817 0.0
H941 H 0.12352 0.53852 0.9107 0.0
H942 H 0.0906 0.52981 0.96185 0.0
H943 H 0.0589 0.53211 0.90705 0.0
H944 H 0.0258 0.81268 0.35883 0.0
H945 H 0.02021 0.8371 0.42989 0.0
H946 H 0.96081 0.81091 0.46929 0.0
H947 H 0.96601 0.78697 0.39505 0.0
H948 H 0.95826 0.85009 0.44662 0.0
H949 H 0.02056 0.83689 0.60569 0.0
H950 H 0.03079 0.84056 0.53119 0.0
H951 H 0.01412 0.81898 0.55352 0.0
C952 C 0.01164 0.81186 0.38332 0.0
C953 C 0.99627 0.79799 0.3708 0.0
C954 C 0.00855 0.82572 0.42469 0.0
C955 C 0.99017 0.82579 0.45588 0.0
C956 C 0.97517 0.81115 0.44607 0.0
H957 H 0.98774 0.92377 0.6896 0.0
H958 H 0.9847 0.88979 0.65823 0.0
C959 C 0.97821 0.79733 0.40403 0.0
C960 C 0.98603 0.84266 0.49271 0.0
H961 H 0.00827 0.87177 0.59132 0.0
C962 C 0.969 0.85455 0.47926 0.0
C963 C 0.99967 0.84839 0.5365 0.0
C964 C 0.01715 0.83534 0.55797 0.0
C965 C 0.966 0.87265 0.50509 0.0
C966 C 0.98082 0.87952 0.54384 0.0
C967 C 0.99708 0.86688 0.5606 0.0
C968 C 0.98053 0.90025 0.56416 0.0
C969 C 0.94702 0.88425 0.49002 0.0
C970 C 0.97905 0.91763 0.52206 0.0
C971 C 0.98036 0.93719 0.53999 0.0
C972 C 0.98377 0.94001 0.60044 0.0
C973 C 0.98497 0.92251 0.64275 0.0
C974 C 0.98336 0.90291 0.62479 0.0
H975 H 0.93438 0.87371 0.48119 0.0
H976 H 0.94246 0.89311 0.52676 0.0
H977 H 0.94957 0.89491 0.44853 0.0
H978 H 0.97744 0.91614 0.47477 0.0
H979 H 0.97906 0.95005 0.50584 0.0
H980 H 0.72538 0.96564 0.32644 0.0
H981 H 0.69983 0.96117 0.40699 0.0
H982 H 0.68242 0.0236 0.36231 0.0
H983 H 0.70793 0.02807 0.28257 0.0
H984 H 0.68013 0.00986 0.48776 0.0
H985 H 0.64123 0.95715 0.34689 0.0
H986 H 0.66634 0.95062 0.3703 0.0
H987 H 0.66239 0.97324 0.31947 0.0
C988 C 0.71665 0.97859 0.33566 0.0
C989 C 0.71862 0.99722 0.29866 0.0
C990 C 0.70191 0.97598 0.3811 0.0
C991 C 0.68896 0.99195 0.38987 0.0
C992 C 0.69219 0.01106 0.35634 0.0
H993 H 0.56547 0.99983 0.48053 0.0
H994 H 0.59902 0.99878 0.43707 0.0
C995 C 0.70682 0.01364 0.31098 0.0
C996 C 0.67055 0.98837 0.428 0.0
H997 H 0.62397 0.96506 0.43213 0.0
C998 C 0.66795 0.99982 0.47632 0.0
C999 C 0.65453 0.97552 0.41224 0.0
C1000 C 0.65607 0.96351 0.35919 0.0
C1001 C 0.64964 0.99909 0.50848 0.0
C1002 C 0.63356 0.98646 0.4921 0.0
C1003 C 0.63635 0.97464 0.4448 0.0
C1004 C 0.61317 0.98659 0.51978 0.0
C1005 C 0.64728 0.01256 0.55783 0.0
C1006 C 0.60984 0.9798 0.58074 0.0
C1007 C 0.5905 0.98021 0.6059 0.0
C1008 C 0.57407 0.98739 0.57052 0.0
C1009 C 0.57753 0.99392 0.50924 0.0
C1010 C 0.59681 0.99345 0.48424 0.0
H1011 H 0.6598 0.02402 0.5578 0.0
H1012 H 0.6328 0.02066 0.55328 0.0
H1013 H 0.64712 1.00298 0.60189 0.0
H1014 H 0.62217 0.97407 0.60881 0.0
H1015 H 0.58844 0.97478 0.65295 0.0
H1016 H 0.49301 0.69715 0.3448 0.0
H1017 H 0.49551 0.67026 0.42876 0.0
H1018 H 0.56025 0.67227 0.40972 0.0
H1019 H 0.55761 0.69906 0.32455 0.0
H1020 H 0.54468 0.63479 0.40194 0.0
H1021 H 0.5118 0.66317 0.60207 0.0
H1022 H 0.49543 0.66731 0.53874 0.0
H1023 H 0.51974 0.68008 0.53666 0.0
C1024 C 0.5078 0.69254 0.3606 0.0
C1025 C 0.52514 0.7004 0.32928 0.0
C1026 C 0.50925 0.67713 0.40852 0.0
C1027 C 0.52809 0.66932 0.42611 0.0
C1028 C 0.54556 0.67816 0.39729 0.0
H1029 H 0.5524 0.55473 0.65249 0.0
H1030 H 0.55662 0.58746 0.58966 0.0
C1031 C 0.5441 0.6936 0.34918 0.0
C1032 C 0.52913 0.6501 0.46765 0.0
H1033 H 0.5117 0.62655 0.60232 0.0
C1034 C 0.53782 0.6331 0.44626 0.0
C1035 C 0.52005 0.64781 0.5253 0.0
C1036 C 0.51142 0.66564 0.55225 0.0
C1037 C 0.5369 0.61374 0.47975 0.0
C1038 C 0.52718 0.61134 0.53636 0.0
C1039 C 0.519 0.62841 0.55861 0.0
C1040 C 0.52481 0.59112 0.57245 0.0
C1041 C 0.54559 0.59583 0.4533 0.0
C1042 C 0.50552 0.58229 0.58344 0.0
C1043 C 0.50305 0.56355 0.61907 0.0
C1044 C 0.51982 0.55335 0.64492 0.0
C1045 C 0.53917 0.5621 0.633 0.0
C1046 C 0.54162 0.58081 0.59711 0.0
H1047 H 0.54918 0.5995 0.40478 0.0
H1048 H 0.55969 0.5913 0.4771 0.0
H1049 H 0.53491 0.58253 0.45914 0.0
H1050 H 0.49235 0.59001 0.56477 0.0
H1051 H 0.48793 0.55733 0.62759 0.0
H1052 H 0.82691 0.54981 0.36486 0.0
H1053 H 0.85409 0.55077 0.43852 0.0
H1054 H 0.84763 0.48568 0.48375 0.0
H1055 H 0.82038 0.48475 0.41038 0.0
H1056 H 0.85885 0.52962 0.57605 0.0
H1057 H 0.90578 0.50293 0.39545 0.0
H1058 H 0.88264 0.51632 0.3796 0.0
H1059 H 0.88179 0.49025 0.41266 0.0
C1060 C 0.83066 0.53591 0.39276 0.0
C1061 C 0.82137 0.51727 0.38307 0.0
C1062 C 0.84625 0.53644 0.43438 0.0
C1063 C 0.85288 0.51829 0.46626 0.0
C1064 C 0.84263 0.49985 0.45973 0.0
H1065 H 0.96299 0.48212 0.64719 0.0
H1066 H 0.93132 0.48454 0.59228 0.0
C1067 C 0.82698 0.49934 0.41833 0.0
C1068 C 0.87211 0.51817 0.49948 0.0
H1069 H 0.9217 0.50659 0.48707 0.0
C1070 C 0.87263 0.52465 0.55677 0.0
C1071 C 0.89001 0.5117 0.47392 0.0
C1072 C 0.89023 0.50498 0.41189 0.0
C1073 C 0.89061 0.52438 0.58989 0.0
C1074 C 0.90857 0.5179 0.56426 0.0
C1075 C 0.90797 0.51159 0.50667 0.0
C1076 C 0.92803 0.51684 0.59698 0.0
C1077 C 0.89007 0.53045 0.65263 0.0
C1078 C 0.93704 0.53431 0.61672 0.0
C1079 C 0.95521 0.53298 0.64833 0.0
C1080 C 0.96481 0.51417 0.66031 0.0
C1081 C 0.95604 0.49685 0.63881 0.0
C1082 C 0.93788 0.49819 0.60748 0.0
H1083 H 0.87448 0.52989 0.67108 0.0
H1084 H 0.89957 0.52035 0.68335 0.0
H1085 H 0.89603 0.54632 0.65178 0.0
H1086 H 0.93 0.54897 0.6078 0.0
H1087 H 0.96157 0.54663 0.66406 0.0
loop_
_geom_bond_atom_site_label_1
_geom_bond_atom_site_label_2
_geom_bond_distance
_geom_bond_site_symmetry_2
_ccdc_geom_bond_type
H0 C7 0.929 . S
H1 C10 0.930 . S
H2 C12 0.929 . S
H3 C4 0.969 . S
C4 H3 0.969 . S
C4 O5 1.550 . S
C4 H6 0.973 . S
O5 C4 1.550 . S
O5 C11 1.412 . S
H6 C4 0.973 . S
C7 H0 0.929 . S
C7 C8 1.400 . S
C7 C9 1.364 . S
C8 C7 1.400 . S
C8 C12 1.377 . S
C9 C7 1.364 . S
C9 C10 1.374 . S
C10 H1 0.930 . S
C10 C9 1.374 . S
C10 C11 1.383 . S
C11 O5 1.412 . S
C11 C10 1.383 . S
C11 C12 1.394 . S
C12 H2 0.929 . S
C12 C8 1.377 . S
C12 C11 1.394 . S
H13 C20 0.929 . S
H14 C23 0.930 . S
H15 C25 0.929 . S
H16 C17 0.969 . S
C17 H16 0.969 . S
C17 O18 1.550 . S
C17 H19 0.973 . S
O18 C17 1.550 . S
O18 C24 1.412 . S
H19 C17 0.973 . S
C20 H13 0.929 . S
C20 C21 1.400 . S
C20 C22 1.364 . S
C21 C20 1.400 . S
C21 C25 1.377 . S
C22 C20 1.364 . S
C22 C23 1.374 . S
C23 H14 0.930 . S
C23 C22 1.374 . S
C23 C24 1.383 . S
C24 O18 1.412 . S
C24 C23 1.383 . S
C24 C25 1.394 . S
C25 H15 0.929 . S
C25 C21 1.377 . S
C25 C24 1.394 . S
H26 C33 0.929 . S
H27 C36 0.925 1_556 S
H28 C38 0.930 1_565 S
H29 C30 0.969 . S
C30 H29 0.969 . S
C30 O31 1.550 1_545 S
C30 H32 0.973 1_544 S
O31 C30 1.550 1_565 S
O31 C37 1.405 1_565 S
H32 C30 0.973 1_566 S
C33 H26 0.929 . S
C33 C34 1.399 1_565 S
C33 C35 1.363 1_565 S
C34 C33 1.399 1_545 S
C34 C38 1.376 . S
C35 C33 1.363 1_545 S
C35 C36 1.374 1_545 S
C36 H27 0.925 1_554 S
C36 C35 1.374 1_565 S
C36 C37 1.379 1_565 S
C37 O31 1.405 1_545 S
C37 C36 1.379 1_545 S
C37 C38 1.398 . S
C38 H28 0.930 1_545 S
C38 C34 1.376 . S
C38 C37 1.398 . S
H39 C46 0.929 . S
H40 C49 0.930 . S
H41 C51 0.929 . S
H42 C43 0.969 . S
C43 H42 0.969 . S
C43 O44 1.550 . S
C43 H45 0.973 . S
O44 C43 1.550 . S
O44 C50 1.412 . S
H45 C43 0.973 . S
C46 H39 0.929 . S
C46 C47 1.400 . S
C46 C48 1.364 . S
C47 C46 1.400 . S
C47 C51 1.377 . S
C48 C46 1.364 . S
C48 C49 1.374 . S
C49 H40 0.930 . S
C49 C48 1.374 . S
C49 C50 1.383 . S
C50 O44 1.412 . S
C50 C49 1.383 . S
C50 C51 1.394 . S
C51 H41 0.929 . S
C51 C47 1.377 . S
C51 C50 1.394 . S
H52 C59 0.929 . S
H53 C62 0.930 . S
H54 C64 0.929 . S
H55 C56 0.969 . S
C56 H55 0.969 . S
C56 O57 1.550 . S
C56 H58 0.973 . S
O57 C56 1.550 . S
O57 C63 1.412 . S
H58 C56 0.973 . S
C59 H52 0.929 . S
C59 C60 1.400 . S
C59 C61 1.364 . S
C60 C59 1.400 . S
C60 C64 1.377 . S
C61 C59 1.364 . S
C61 C62 1.374 . S
C62 H53 0.930 . S
C62 C61 1.374 . S
C62 C63 1.383 . S
C63 O57 1.412 . S
C63 C62 1.383 . S
C63 C64 1.394 . S
C64 H54 0.929 . S
C64 C60 1.377 . S
C64 C63 1.394 . S
H65 C72 0.929 . S
H66 C75 0.930 . S
H67 C77 0.929 . S
H68 C69 0.969 . S
C69 H68 0.969 . S
C69 O70 1.550 . S
C69 H71 0.973 . S
O70 C69 1.550 . S
O70 C76 1.412 . S
H71 C69 0.973 . S
C72 H65 0.929 . S
C72 C73 1.400 . S
C72 C74 1.364 . S
C73 C72 1.400 . S
C73 C77 1.377 . S
C74 C72 1.364 . S
C74 C75 1.374 . S
C75 H66 0.930 . S
C75 C74 1.374 . S
C75 C76 1.383 . S
C76 O70 1.412 . S
C76 C75 1.383 . S
C76 C77 1.394 . S
C77 H67 0.929 . S
C77 C73 1.377 . S
C77 C76 1.394 . S
H78 C85 0.928 1_565 S
H79 C88 0.934 . S
H80 C90 0.927 1_565 S
H81 C82 0.969 . S
C82 H81 0.969 . S
C82 O83 1.550 1_545 S
C82 H84 0.973 1_545 S
O83 C82 1.550 1_565 S
O83 C89 1.403 1_565 S
H84 C82 0.973 1_565 S
C85 H78 0.928 1_545 S
C85 C86 1.401 . S
C85 C87 1.363 . S
C86 C85 1.401 . S
C86 C90 1.377 . S
C87 C85 1.363 . S
C87 C88 1.375 1_545 S
C88 H79 0.934 . S
C88 C87 1.375 1_565 S
C88 C89 1.385 1_565 S
C89 O83 1.403 1_545 S
C89 C88 1.385 1_545 S
C89 C90 1.391 . S
C90 H80 0.927 1_545 S
C90 C86 1.377 . S
C90 C89 1.391 . S
H91 C98 0.929 . S
H92 C101 0.930 . S
H93 C103 0.929 . S
H94 C95 0.969 . S
C95 H94 0.969 . S
C95 O96 1.550 . S
C95 H97 0.973 . S
O96 C95 1.550 . S
O96 C102 1.412 . S
H97 C95 0.973 . S
C98 H91 0.929 . S
C98 C99 1.400 . S
C98 C100 1.364 . S
C99 C98 1.400 . S
C99 C103 1.377 . S
C100 C98 1.364 . S
C100 C101 1.374 . S
C101 H92 0.930 . S
C101 C100 1.374 . S
C101 C102 1.383 . S
C102 O96 1.412 . S
C102 C101 1.383 . S
C102 C103 1.394 . S
C103 H93 0.929 . S
C103 C99 1.377 . S
C103 C102 1.394 . S
Co104 N109 2.057 . S
Co104 O121 2.021 . S
Co104 O124 2.062 . S
Co104 O128 2.117 1_455 S
Co104 O129 2.020 1_545 S
C105 O125 1.259 1_545 S
C105 O128 1.258 . S
Co106 N115 2.057 . S
Co106 O122 2.117 1_655 S
Co106 O123 2.016 1_665 S
Co106 O125 2.021 . S
Co106 O130 2.062 . S
C107 N109 1.316 . S
C107 N110 1.347 . S
C107 H112 0.931 . S
C108 N109 1.375 1_655 S
C108 C111 1.350 1_655 S
C108 H113 0.930 . S
N109 Co104 2.057 . S
N109 C107 1.316 . S
N109 C108 1.375 1_455 S
N110 C107 1.347 . S
N110 C111 1.373 . S
C111 C108 1.350 1_455 S
C111 N110 1.373 . S
C111 H132 0.931 1_455 S
H112 C107 0.931 . S
H113 C108 0.930 . S
C114 O121 1.259 1_565 S
C114 O122 1.258 . S
N115 Co106 2.057 . S
N115 C116 1.316 . S
N115 C117 1.375 1_655 S
C116 N115 1.316 . S
C116 N118 1.347 . S
C116 H127 0.931 . S
C117 N115 1.375 1_455 S
C117 C119 1.350 . S
C117 H126 0.930 . S
N118 C116 1.347 . S
N118 C119 1.373 1_655 S
C119 C117 1.350 . S
C119 N118 1.373 1_455 S
C119 H133 0.931 . S
C120 O123 1.269 . S
C120 O124 1.255 . S
O121 Co104 2.021 . S
O121 C114 1.259 1_545 S
O122 Co106 2.117 1_455 S
O122 C114 1.258 . S
O123 Co106 2.016 1_445 S
O123 C120 1.269 . S
O124 Co104 2.062 . S
O124 C120 1.255 . S
O125 C105 1.259 1_565 S
O125 Co106 2.021 . S
H126 C117 0.930 . S
H127 C116 0.931 . S
O128 Co104 2.117 1_655 S
O128 C105 1.258 . S
O129 Co104 2.020 1_565 S
O129 C131 1.256 . S
O130 Co106 2.062 . S
O130 C131 1.255 1_655 S
C131 O129 1.256 . S
C131 O130 1.255 1_455 S
H132 C111 0.931 1_655 S
H133 C119 0.931 . S
Co134 N139 2.057 1_545 S
Co134 O151 2.021 . S
Co134 O154 2.064 . S
Co134 O158 2.117 1_545 S
Co134 O159 2.020 . S
C135 O155 1.259 . S
C135 O158 1.258 . S
Co136 N145 2.057 1_565 S
Co136 O152 2.117 1_565 S
Co136 O153 2.020 . S
Co136 O155 2.021 . S
Co136 O160 2.062 . S
C137 N139 1.318 1_545 S
C137 N140 1.347 . S
C137 H142 0.931 . S
C138 N139 1.373 . S
C138 C141 1.350 . S
C138 H143 0.930 . S
N139 Co134 2.057 1_565 S
N139 C137 1.318 1_565 S
N139 C138 1.373 . S
N140 C137 1.347 . S
N140 C141 1.373 1_545 S
C141 C138 1.350 . S
C141 N140 1.373 1_565 S
C141 H162 0.931 1_556 S
H142 C137 0.931 . S
H143 C138 0.930 . S
C144 O151 1.259 . S
C144 O152 1.258 . S
N145 Co136 2.057 1_545 S
N145 C146 1.308 1_545 S
N145 C147 1.384 . S
C146 N145 1.308 1_565 S
C146 N148 1.347 . S
C146 H157 0.931 . S
C147 N145 1.384 . S
C147 C149 1.350 . S
C147 H156 0.930 . S
N148 C146 1.347 . S
N148 C149 1.373 1_565 S
C149 C147 1.350 . S
C149 N148 1.373 1_545 S
C149 H163 0.931 . S
C150 O153 1.256 . S
C150 O154 1.250 1_565 S
O151 Co134 2.021 . S
O151 C144 1.259 . S
O152 Co136 2.117 1_545 S
O152 C144 1.258 . S
O153 Co136 2.020 . S
O153 C150 1.256 . S
O154 Co134 2.064 . S
O154 C150 1.250 1_545 S
O155 C135 1.259 . S
O155 Co136 2.021 . S
H156 C147 0.930 . S
H157 C146 0.931 . S
O158 Co134 2.117 1_565 S
O158 C135 1.258 . S
O159 Co134 2.020 . S
O159 C161 1.256 . S
O160 Co136 2.062 . S
O160 C161 1.254 1_565 S
C161 O159 1.256 . S
C161 O160 1.254 1_545 S
H162 C141 0.931 1_554 S
H163 C149 0.931 . S
Co164 N169 2.057 . S
Co164 O181 2.021 . S
Co164 O184 2.062 . S
Co164 O188 2.117 . S
Co164 O189 2.020 . S
C165 O185 1.259 . S
C165 O188 1.258 . S
Co166 N175 2.057 . S
Co166 O182 2.117 . S
Co166 O183 2.020 . S
Co166 O185 2.021 . S
Co166 O190 2.062 . S
C167 N169 1.316 . S
C167 N170 1.347 . S
C167 H172 0.931 . S
C168 N169 1.375 . S
C168 C171 1.350 . S
C168 H173 0.930 . S
N169 Co164 2.057 . S
N169 C167 1.316 . S
N169 C168 1.375 . S
N170 C167 1.347 . S
N170 C171 1.373 . S
C171 C168 1.350 . S
C171 N170 1.373 . S
C171 H192 0.931 . S
H172 C167 0.931 . S
H173 C168 0.930 . S
C174 O181 1.259 . S
C174 O182 1.258 . S
N175 Co166 2.057 . S
N175 C176 1.316 . S
N175 C177 1.375 . S
C176 N175 1.316 . S
C176 N178 1.347 . S
C176 H187 0.931 . S
C177 N175 1.375 . S
C177 C179 1.350 . S
C177 H186 0.930 . S
N178 C176 1.347 . S
N178 C179 1.373 . S
C179 C177 1.350 . S
C179 N178 1.373 . S
C179 H193 0.931 . S
C180 O183 1.256 . S
C180 O184 1.255 . S
O181 Co164 2.021 . S
O181 C174 1.259 . S
O182 Co166 2.117 . S
O182 C174 1.258 . S
O183 Co166 2.020 . S
O183 C180 1.256 . S
O184 Co164 2.062 . S
O184 C180 1.255 . S
O185 C165 1.259 . S
O185 Co166 2.021 . S
H186 C177 0.930 . S
H187 C176 0.931 . S
O188 Co164 2.117 . S
O188 C165 1.258 . S
O189 Co164 2.020 . S
O189 C191 1.256 . S
O190 Co166 2.062 . S
O190 C191 1.255 . S
C191 O189 1.256 . S
C191 O190 1.255 . S
H192 C171 0.931 . S
H193 C179 0.931 . S
Co194 N199 2.057 . S
Co194 O211 2.021 1_455 S
Co194 O214 2.062 1_455 S
Co194 O218 2.117 . S
Co194 O219 2.020 . S
C195 O215 1.259 . S
C195 O218 1.258 . S
Co196 N205 2.057 . S
Co196 O212 2.117 1_455 S
Co196 O213 2.020 1_455 S
Co196 O215 2.021 . S
Co196 O220 2.062 . S
C197 N199 1.316 1_655 S
C197 N200 1.350 . S
C197 H202 0.931 . S
C198 N199 1.375 . S
C198 C201 1.350 . S
C198 H203 0.930 . S
N199 Co194 2.057 . S
N199 C197 1.316 1_455 S
N199 C198 1.375 . S
N200 C197 1.350 . S
N200 C201 1.360 1_655 S
C201 C198 1.350 . S
C201 N200 1.360 1_455 S
C201 H222 0.931 . S
H202 C197 0.931 . S
H203 C198 0.930 . S
C204 O211 1.259 . S
C204 O212 1.258 . S
N205 Co196 2.057 . S
N205 C206 1.316 . S
N205 C207 1.375 1_455 S
C206 N205 1.316 . S
C206 N208 1.347 . S
C206 H217 0.931 . S
C207 N205 1.375 1_655 S
C207 C209 1.350 . S
C207 H216 0.930 . S
N208 C206 1.347 . S
N208 C209 1.373 1_455 S
C209 C207 1.350 . S
C209 N208 1.373 1_655 S
C209 H223 0.931 . S
C210 O213 1.256 . S
C210 O214 1.255 . S
O211 Co194 2.021 1_655 S
O211 C204 1.259 . S
O212 Co196 2.117 1_655 S
O212 C204 1.258 . S
O213 Co196 2.020 1_655 S
O213 C210 1.256 . S
O214 Co194 2.062 1_655 S
O214 C210 1.255 . S
O215 C195 1.259 . S
O215 Co196 2.021 . S
H216 C207 0.930 . S
H217 C206 0.931 . S
O218 Co194 2.117 . S
O218 C195 1.258 . S
O219 Co194 2.020 . S
O219 C221 1.256 . S
O220 Co196 2.062 . S
O220 C221 1.255 . S
C221 O219 1.256 . S
C221 O220 1.255 . S
H222 C201 0.931 . S
H223 C209 0.931 . S
H224 C232 0.929 . S
H225 C234 0.930 . S
H226 C236 0.930 . S
H227 C239 0.929 . S
H228 C242 0.930 . S
H229 C244 0.960 . S
H230 C244 0.960 . S
H231 C244 0.960 . S
C232 H224 0.929 . S
C232 C233 1.389 . S
C232 C234 1.384 . S
C233 C232 1.389 . S
C233 C239 1.378 1_565 S
C234 H225 0.930 . S
C234 C232 1.384 . S
C234 C235 1.372 . S
C235 C234 1.372 . S
C235 C236 1.400 1_565 S
C235 C240 1.490 . S
C236 H226 0.930 . S
C236 C235 1.400 1_545 S
C236 C239 1.386 . S
H237 C253 0.930 . S
H238 C254 0.931 . S
C239 H227 0.929 . S
C239 C233 1.378 1_545 S
C239 C236 1.386 . S
C240 C235 1.490 . S
C240 C242 1.395 1_565 S
C240 C243 1.403 . S
H241 C247 0.930 . S
C242 H228 0.930 . S
C242 C240 1.395 1_545 S
C242 C245 1.403 . S
C243 C240 1.403 . S
C243 C244 1.524 . S
C243 C247 1.400 . S
C244 H229 0.960 . S
C244 H230 0.960 . S
C244 H231 0.960 . S
C244 C243 1.524 . S
C245 C242 1.403 . S
C245 C246 1.392 1_545 S
C245 C249 1.495 . S
C246 C245 1.392 1_565 S
C246 C247 1.385 . S
C246 C248 1.478 . S
C247 H241 0.930 . S
C247 C243 1.400 . S
C247 C246 1.385 . S
C248 C246 1.478 . S
C248 C250 1.381 . S
C248 C254 1.383 1_565 S
C249 C245 1.495 . S
C249 H255 0.959 . S
C249 H256 0.961 . S
C249 H257 0.960 . S
C250 C248 1.381 . S
C250 C251 1.394 . S
C250 H258 0.930 . S
C251 C250 1.394 . S
C251 C252 1.383 . S
C251 H259 0.929 . S
C252 C251 1.383 . S
C252 C253 1.377 1_565 S
C253 H237 0.930 . S
C253 C252 1.377 1_545 S
C253 C254 1.379 . S
C254 H238 0.931 . S
C254 C248 1.383 1_545 S
C254 C253 1.379 . S
H255 C249 0.959 . S
H256 C249 0.961 . S
H257 C249 0.960 . S
H258 C250 0.930 . S
H259 C251 0.929 . S
H260 C268 0.929 . S
H261 C270 0.930 . S
H262 C272 0.930 . S
H263 C275 0.929 . S
H264 C278 0.930 . S
H265 C280 0.960 . S
H266 C280 0.960 . S
H267 C280 0.960 . S
C268 H260 0.929 . S
C268 C269 1.377 . S
C268 C270 1.384 . S
C269 C268 1.377 . S
C269 C275 1.390 . S
C270 H261 0.930 . S
C270 C268 1.384 . S
C270 C271 1.372 . S
C271 C270 1.372 . S
C271 C272 1.400 . S
C271 C276 1.490 . S
C272 H262 0.930 . S
C272 C271 1.400 . S
C272 C275 1.386 . S
H273 C289 0.930 . S
H274 C290 0.931 . S
C275 H263 0.929 . S
C275 C269 1.390 . S
C275 C272 1.386 . S
C276 C271 1.490 . S
C276 C278 1.395 . S
C276 C279 1.403 . S
H277 C283 0.930 . S
C278 H264 0.930 . S
C278 C276 1.395 . S
C278 C281 1.403 . S
C279 C276 1.403 . S
C279 C280 1.524 . S
C279 C283 1.400 . S
C280 H265 0.960 . S
C280 H266 0.960 . S
C280 H267 0.960 . S
C280 C279 1.524 . S
C281 C278 1.403 . S
C281 C282 1.392 . S
C281 C285 1.495 . S
C282 C281 1.392 . S
C282 C283 1.385 . S
C282 C284 1.478 . S
C283 H277 0.930 . S
C283 C279 1.400 . S
C283 C282 1.385 . S
C284 C282 1.478 . S
C284 C286 1.381 . S
C284 C290 1.383 . S
C285 C281 1.495 . S
C285 H291 0.959 . S
C285 H292 0.961 . S
C285 H293 0.960 . S
C286 C284 1.381 . S
C286 C287 1.394 . S
C286 H294 0.930 . S
C287 C286 1.394 . S
C287 C288 1.383 . S
C287 H295 0.929 . S
C288 C287 1.383 . S
C288 C289 1.377 . S
C289 H273 0.930 . S
C289 C288 1.377 . S
C289 C290 1.379 . S
C290 H274 0.931 . S
C290 C284 1.383 . S
C290 C289 1.379 . S
H291 C285 0.959 . S
H292 C285 0.961 . S
H293 C285 0.960 . S
H294 C286 0.930 . S
H295 C287 0.929 . S
H296 C304 0.929 . S
H297 C306 0.930 . S
H298 C308 0.930 . S
H299 C311 0.929 . S
H300 C314 0.930 . S
H301 C316 0.960 . S
H302 C316 0.960 . S
H303 C316 0.960 . S
C304 H296 0.929 . S
C304 C305 1.377 . S
C304 C306 1.384 . S
C305 C304 1.377 . S
C305 C311 1.390 . S
C306 H297 0.930 . S
C306 C304 1.384 . S
C306 C307 1.372 . S
C307 C306 1.372 . S
C307 C308 1.400 . S
C307 C312 1.490 . S
C308 H298 0.930 . S
C308 C307 1.400 . S
C308 C311 1.386 . S
H309 C325 0.930 . S
H310 C326 0.931 . S
C311 H299 0.929 . S
C311 C305 1.390 . S
C311 C308 1.386 . S
C312 C307 1.490 . S
C312 C314 1.395 . S
C312 C315 1.403 . S
H313 C319 0.930 . S
C314 H300 0.930 . S
C314 C312 1.395 . S
C314 C317 1.403 . S
C315 C312 1.403 . S
C315 C316 1.524 . S
C315 C319 1.400 . S
C316 H301 0.960 . S
C316 H302 0.960 . S
C316 H303 0.960 . S
C316 C315 1.524 . S
C317 C314 1.403 . S
C317 C318 1.392 . S
C317 C321 1.495 . S
C318 C317 1.392 . S
C318 C319 1.385 . S
C318 C320 1.478 . S
C319 H313 0.930 . S
C319 C315 1.400 . S
C319 C318 1.385 . S
C320 C318 1.478 . S
C320 C322 1.381 . S
C320 C326 1.383 . S
C321 C317 1.495 . S
C321 H327 0.959 . S
C321 H328 0.961 . S
C321 H329 0.960 . S
C322 C320 1.381 . S
C322 C323 1.394 . S
C322 H330 0.930 . S
C323 C322 1.394 . S
C323 C324 1.383 . S
C323 H331 0.929 . S
C324 C323 1.383 . S
C324 C325 1.377 . S
C325 H309 0.930 . S
C325 C324 1.377 . S
C325 C326 1.379 . S
C326 H310 0.931 . S
C326 C320 1.383 . S
C326 C325 1.379 . S
H327 C321 0.959 . S
H328 C321 0.961 . S
H329 C321 0.960 . S
H330 C322 0.930 . S
H331 C323 0.929 . S
H332 C340 0.929 . S
H333 C342 0.930 . S
H334 C344 0.930 . S
H335 C347 0.929 . S
H336 C350 0.930 . S
H337 C352 0.960 . S
H338 C352 0.960 . S
H339 C352 0.960 . S
C340 H332 0.929 . S
C340 C341 1.377 . S
C340 C342 1.384 . S
C341 C340 1.377 . S
C341 C347 1.390 . S
C342 H333 0.930 . S
C342 C340 1.384 . S
C342 C343 1.372 . S
C343 C342 1.372 . S
C343 C344 1.400 . S
C343 C348 1.490 . S
C344 H334 0.930 . S
C344 C343 1.400 . S
C344 C347 1.386 . S
H345 C361 0.930 1_655 S
H346 C362 0.931 1_655 S
C347 H335 0.929 . S
C347 C341 1.390 . S
C347 C344 1.386 . S
C348 C343 1.490 . S
C348 C350 1.395 . S
C348 C351 1.403 . S
H349 C355 0.930 . S
C350 H336 0.930 . S
C350 C348 1.395 . S
C350 C353 1.403 . S
C351 C348 1.403 . S
C351 C352 1.524 . S
C351 C355 1.400 . S
C352 H337 0.960 . S
C352 H338 0.960 . S
C352 H339 0.960 . S
C352 C351 1.524 . S
C353 C350 1.403 . S
C353 C354 1.392 . S
C353 C357 1.495 . S
C354 C353 1.392 . S
C354 C355 1.385 . S
C354 C356 1.478 . S
C355 H349 0.930 . S
C355 C351 1.400 . S
C355 C354 1.385 . S
C356 C354 1.478 . S
C356 C358 1.381 . S
C356 C362 1.383 . S
C357 C353 1.495 . S
C357 H363 0.959 . S
C357 H364 0.961 . S
C357 H365 0.960 . S
C358 C356 1.381 . S
C358 C359 1.394 . S
C358 H366 0.930 . S
C359 C358 1.394 . S
C359 C360 1.383 . S
C359 H367 0.929 . S
C360 C359 1.383 . S
C360 C361 1.377 . S
C361 H345 0.930 1_455 S
C361 C360 1.377 . S
C361 C362 1.379 . S
C362 H346 0.931 1_455 S
C362 C356 1.383 . S
C362 C361 1.379 . S
H363 C357 0.959 . S
H364 C357 0.961 . S
H365 C357 0.960 . S
H366 C358 0.930 . S
H367 C359 0.929 . S
H368 C376 0.930 . S
H369 C378 0.930 . S
H370 C380 0.930 . S
H371 C383 0.931 . S
H372 C386 0.930 1_554 S
H373 C388 0.960 . S
H374 C388 0.965 . S
H375 C388 0.960 . S
C376 H368 0.930 . S
C376 C377 1.405 . S
C376 C378 1.382 1_554 S
C377 C376 1.405 . S
C377 C383 1.365 1_545 S
C378 H369 0.930 . S
C378 C376 1.382 1_556 S
C378 C379 1.372 . S
C379 C378 1.372 . S
C379 C380 1.400 1_545 S
C379 C384 1.490 . S
C380 H370 0.930 . S
C380 C379 1.400 1_565 S
C380 C383 1.380 1_556 S
H381 C397 0.930 . S
H382 C398 0.931 . S
C383 H371 0.931 . S
C383 C377 1.365 1_565 S
C383 C380 1.380 1_554 S
C384 C379 1.490 . S
C384 C386 1.395 . S
C384 C387 1.403 1_545 S
H385 C391 0.930 . S
C386 H372 0.930 1_556 S
C386 C384 1.395 . S
C386 C389 1.403 . S
C387 C384 1.403 1_565 S
C387 C388 1.524 . S
C387 C391 1.400 . S
C388 H373 0.960 . S
C388 H374 0.965 . S
C388 H375 0.960 . S
C388 C387 1.524 . S
C389 C386 1.403 . S
C389 C390 1.392 . S
C389 C393 1.495 . S
C390 C389 1.392 . S
C390 C391 1.385 1_545 S
C390 C392 1.478 . S
C391 H385 0.930 . S
C391 C387 1.400 . S
C391 C390 1.385 1_565 S
C392 C390 1.478 . S
C392 C394 1.381 . S
C392 C398 1.383 1_545 S
C393 C389 1.495 . S
C393 H399 0.959 1_556 S
C393 H400 0.961 1_556 S
C393 H401 0.960 . S
C394 C392 1.381 . S
C394 C395 1.394 . S
C394 H402 0.930 . S
C395 C394 1.394 . S
C395 C396 1.383 . S
C395 H403 0.929 . S
C396 C395 1.383 . S
C396 C397 1.377 1_545 S
C397 H381 0.930 . S
C397 C396 1.377 1_565 S
C397 C398 1.379 . S
C398 H382 0.931 . S
C398 C392 1.383 1_565 S
C398 C397 1.379 . S
H399 C393 0.959 1_554 S
H400 C393 0.961 1_554 S
H401 C393 0.960 . S
H402 C394 0.930 . S
H403 C395 0.929 . S
H404 C412 0.929 . S
H405 C414 0.930 . S
H406 C416 0.930 . S
H407 C419 0.929 . S
H408 C422 0.930 1_554 S
H409 C424 0.960 . S
H410 C424 0.960 . S
H411 C424 0.960 . S
C412 H404 0.929 . S
C412 C413 1.377 . S
C412 C414 1.384 1_554 S
C413 C412 1.377 . S
C413 C419 1.390 . S
C414 H405 0.930 . S
C414 C412 1.384 1_556 S
C414 C415 1.372 . S
C415 C414 1.372 . S
C415 C416 1.400 1_556 S
C415 C420 1.490 . S
C416 H406 0.930 . S
C416 C415 1.400 1_554 S
C416 C419 1.386 . S
H417 C433 0.930 . S
H418 C434 0.931 . S
C419 H407 0.929 . S
C419 C413 1.390 . S
C419 C416 1.386 . S
C420 C415 1.490 . S
C420 C422 1.395 . S
C420 C423 1.403 . S
H421 C427 0.930 . S
C422 H408 0.930 1_556 S
C422 C420 1.395 . S
C422 C425 1.403 . S
C423 C420 1.403 . S
C423 C424 1.524 . S
C423 C427 1.400 . S
C424 H409 0.960 . S
C424 H410 0.960 . S
C424 H411 0.960 . S
C424 C423 1.524 . S
C425 C422 1.403 . S
C425 C426 1.392 . S
C425 C429 1.495 . S
C426 C425 1.392 . S
C426 C427 1.385 . S
C426 C428 1.478 . S
C427 H421 0.930 . S
C427 C423 1.400 . S
C427 C426 1.385 . S
C428 C426 1.478 . S
C428 C430 1.381 . S
C428 C434 1.383 . S
C429 C425 1.495 . S
C429 H435 0.959 1_556 S
C429 H436 0.961 . S
C429 H437 0.960 . S
C430 C428 1.381 . S
C430 C431 1.394 . S
C430 H438 0.930 . S
C431 C430 1.394 . S
C431 C432 1.383 . S
C431 H439 0.929 . S
C432 C431 1.383 . S
C432 C433 1.377 . S
C433 H417 0.930 . S
C433 C432 1.377 . S
C433 C434 1.379 . S
C434 H418 0.931 . S
C434 C428 1.383 . S
C434 C433 1.379 . S
H435 C429 0.959 1_554 S
H436 C429 0.961 . S
H437 C429 0.960 . S
H438 C430 0.930 . S
H439 C431 0.929 . S
H440 C448 0.929 . S
H441 C450 0.930 1_556 S
H442 C452 0.930 . S
H443 C455 0.929 . S
H444 C458 0.930 . S
H445 C460 0.960 . S
H446 C460 0.960 . S
H447 C460 0.960 . S
C448 H440 0.929 . S
C448 C449 1.377 . S
C448 C450 1.384 . S
C449 C448 1.377 . S
C449 C455 1.390 . S
C450 H441 0.930 1_554 S
C450 C448 1.384 . S
C450 C451 1.372 . S
C451 C450 1.372 . S
C451 C452 1.400 . S
C451 C456 1.490 . S
C452 H442 0.930 . S
C452 C451 1.400 . S
C452 C455 1.386 . S
H453 C469 0.930 . S
H454 C470 0.931 . S
C455 H443 0.929 . S
C455 C449 1.390 . S
C455 C452 1.386 . S
C456 C451 1.490 . S
C456 C458 1.395 1_554 S
C456 C459 1.403 . S
H457 C463 0.930 . S
C458 H444 0.930 . S
C458 C456 1.395 1_556 S
C458 C461 1.403 . S
C459 C456 1.403 . S
C459 C460 1.524 . S
C459 C463 1.400 1_554 S
C460 H445 0.960 . S
C460 H446 0.960 . S
C460 H447 0.960 . S
C460 C459 1.524 . S
C461 C458 1.403 . S
C461 C462 1.392 . S
C461 C465 1.495 . S
C462 C461 1.392 . S
C462 C463 1.385 . S
C462 C464 1.478 . S
C463 H457 0.930 . S
C463 C459 1.400 1_556 S
C463 C462 1.385 . S
C464 C462 1.478 . S
C464 C466 1.381 . S
C464 C470 1.383 . S
C465 C461 1.495 . S
C465 H471 0.959 . S
C465 H472 0.961 . S
C465 H473 0.960 . S
C466 C464 1.381 . S
C466 C467 1.394 . S
C466 H474 0.930 . S
C467 C466 1.394 . S
C467 C468 1.383 . S
C467 H475 0.929 . S
C468 C467 1.383 . S
C468 C469 1.377 . S
C469 H453 0.930 . S
C469 C468 1.377 . S
C469 C470 1.379 . S
C470 H454 0.931 . S
C470 C464 1.383 . S
C470 C469 1.379 . S
H471 C465 0.959 . S
H472 C465 0.961 . S
H473 C465 0.960 . S
H474 C466 0.930 . S
H475 C467 0.929 . S
H476 C484 0.929 . S
H477 C486 0.930 . S
H478 C488 0.930 . S
H479 C491 0.929 . S
H480 C494 0.930 . S
H481 C496 0.960 . S
H482 C496 0.960 . S
H483 C496 0.960 . S
C484 H476 0.929 . S
C484 C485 1.377 . S
C484 C486 1.384 1_554 S
C485 C484 1.377 . S
C485 C491 1.390 . S
C486 H477 0.930 . S
C486 C484 1.384 1_556 S
C486 C487 1.372 1_556 S
C487 C486 1.372 1_554 S
C487 C488 1.400 . S
C487 C492 1.490 1_554 S
C488 H478 0.930 . S
C488 C487 1.400 . S
C488 C491 1.386 . S
H489 C505 0.930 . S
H490 C506 0.945 . S
C491 H479 0.929 . S
C491 C485 1.390 . S
C491 C488 1.386 . S
C492 C487 1.490 1_556 S
C492 C494 1.395 . S
C492 C495 1.403 1_556 S
H493 C499 0.930 . S
C494 H480 0.930 . S
C494 C492 1.395 . S
C494 C497 1.403 . S
C495 C492 1.403 1_554 S
C495 C496 1.524 . S
C495 C499 1.400 1_554 S
C496 H481 0.960 . S
C496 H482 0.960 . S
C496 H483 0.960 . S
C496 C495 1.524 . S
C497 C494 1.403 . S
C497 C498 1.392 . S
C497 C501 1.495 . S
C498 C497 1.392 . S
C498 C499 1.385 . S
C498 C500 1.478 . S
C499 H493 0.930 . S
C499 C495 1.400 1_556 S
C499 C498 1.385 . S
C500 C498 1.478 . S
C500 C502 1.381 . S
C500 C506 1.363 1_655 S
C501 C497 1.495 . S
C501 H507 0.959 . S
C501 H508 0.961 . S
C501 H509 0.960 . S
C502 C500 1.381 . S
C502 C503 1.394 . S
C502 H510 0.930 . S
C503 C502 1.394 . S
C503 C504 1.383 . S
C503 H511 0.929 . S
C504 C503 1.383 . S
C504 C505 1.377 1_655 S
C505 H489 0.930 . S
C505 C504 1.377 1_455 S
C505 C506 1.385 . S
C506 H490 0.945 . S
C506 C500 1.363 1_455 S
C506 C505 1.385 . S
H507 C501 0.959 . S
H508 C501 0.961 . S
H509 C501 0.960 . S
H510 C502 0.930 . S
H511 C503 0.929 . S
H512 C520 0.929 . S
H513 C522 0.930 . S
H514 C524 0.930 . S
H515 C527 0.929 . S
H516 C530 0.930 . S
H517 C532 0.960 1_655 S
H518 C532 0.960 . S
H519 C532 0.960 . S
C520 H512 0.929 . S
C520 C521 1.377 . S
C520 C522 1.384 . S
C521 C520 1.377 . S
C521 C527 1.390 . S
C522 H513 0.930 . S
C522 C520 1.384 . S
C522 C523 1.372 . S
C523 C522 1.372 . S
C523 C524 1.400 . S
C523 C528 1.490 . S
C524 H514 0.930 . S
C524 C523 1.400 . S
C524 C527 1.386 . S
H525 C541 0.930 . S
H526 C542 0.931 . S
C527 H515 0.929 . S
C527 C521 1.390 . S
C527 C524 1.386 . S
C528 C523 1.490 . S
C528 C530 1.395 . S
C528 C531 1.403 . S
H529 C535 0.930 . S
C530 H516 0.930 . S
C530 C528 1.395 . S
C530 C533 1.403 . S
C531 C528 1.403 . S
C531 C532 1.524 . S
C531 C535 1.400 . S
C532 H517 0.960 1_455 S
C532 H518 0.960 . S
C532 H519 0.960 . S
C532 C531 1.524 . S
C533 C530 1.403 . S
C533 C534 1.392 . S
C533 C537 1.495 . S
C534 C533 1.392 . S
C534 C535 1.385 . S
C534 C536 1.478 . S
C535 H529 0.930 . S
C535 C531 1.400 . S
C535 C534 1.385 . S
C536 C534 1.478 . S
C536 C538 1.381 . S
C536 C542 1.383 . S
C537 C533 1.495 . S
C537 H543 0.959 . S
C537 H544 0.961 . S
C537 H545 0.960 . S
C538 C536 1.381 . S
C538 C539 1.394 . S
C538 H546 0.930 . S
C539 C538 1.394 . S
C539 C540 1.383 . S
C539 H547 0.929 . S
C540 C539 1.383 . S
C540 C541 1.377 . S
C541 H525 0.930 . S
C541 C540 1.377 . S
C541 C542 1.379 . S
C542 H526 0.931 . S
C542 C536 1.383 . S
C542 C541 1.379 . S
H543 C537 0.959 . S
H544 C537 0.961 . S
H545 C537 0.960 . S
H546 C538 0.930 . S
H547 C539 0.929 . S
H548 C556 0.929 . S
H549 C558 0.930 . S
H550 C560 0.930 . S
H551 C563 0.929 . S
H552 C566 0.930 . S
H553 C568 0.960 . S
H554 C568 0.960 . S
H555 C568 0.960 . S
C556 H548 0.929 . S
C556 C557 1.370 1_565 S
C556 C558 1.384 . S
C557 C556 1.370 1_545 S
C557 C563 1.397 . S
C558 H549 0.930 . S
C558 C556 1.384 . S
C558 C559 1.372 . S
C559 C558 1.372 . S
C559 C560 1.400 1_565 S
C559 C564 1.490 . S
C560 H550 0.930 . S
C560 C559 1.400 1_545 S
C560 C563 1.386 . S
H561 C577 0.930 . S
H562 C578 0.931 . S
C563 H551 0.929 . S
C563 C557 1.397 . S
C563 C560 1.386 . S
C564 C559 1.490 . S
C564 C566 1.395 . S
C564 C567 1.403 1_565 S
H565 C571 0.930 . S
C566 H552 0.930 . S
C566 C564 1.395 . S
C566 C569 1.403 . S
C567 C564 1.403 1_545 S
C567 C568 1.524 . S
C567 C571 1.400 . S
C568 H553 0.960 . S
C568 H554 0.960 . S
C568 H555 0.960 . S
C568 C567 1.524 . S
C569 C566 1.403 . S
C569 C570 1.392 . S
C569 C573 1.495 . S
C570 C569 1.392 . S
C570 C571 1.385 1_565 S
C570 C572 1.478 . S
C571 H565 0.930 . S
C571 C567 1.400 . S
C571 C570 1.385 1_545 S
C572 C570 1.478 . S
C572 C574 1.381 . S
C572 C578 1.383 1_565 S
C573 C569 1.495 . S
C573 H579 0.959 . S
C573 H580 0.961 . S
C573 H581 0.960 . S
C574 C572 1.381 . S
C574 C575 1.394 . S
C574 H582 0.930 . S
C575 C574 1.394 . S
C575 C576 1.383 . S
C575 H583 0.929 . S
C576 C575 1.383 . S
C576 C577 1.377 1_565 S
C577 H561 0.930 . S
C577 C576 1.377 1_545 S
C577 C578 1.379 . S
C578 H562 0.931 . S
C578 C572 1.383 1_545 S
C578 C577 1.379 . S
H579 C573 0.959 . S
H580 C573 0.961 . S
H581 C573 0.960 . S
H582 C574 0.930 . S
H583 C575 0.929 . S
H584 C592 0.929 . S
H585 C594 0.930 . S
H586 C596 0.930 . S
H587 C599 0.929 . S
H588 C602 0.930 . S
H589 C604 0.960 . S
H590 C604 0.960 . S
H591 C604 0.960 . S
C592 H584 0.929 . S
C592 C593 1.377 . S
C592 C594 1.384 . S
C593 C592 1.377 . S
C593 C599 1.390 . S
C594 H585 0.930 . S
C594 C592 1.384 . S
C594 C595 1.372 . S
C595 C594 1.372 . S
C595 C596 1.400 . S
C595 C600 1.490 . S
C596 H586 0.930 . S
C596 C595 1.400 . S
C596 C599 1.386 . S
H597 C613 0.930 . S
H598 C614 0.931 . S
C599 H587 0.929 . S
C599 C593 1.390 . S
C599 C596 1.386 . S
C600 C595 1.490 . S
C600 C602 1.395 . S
C600 C603 1.403 . S
H601 C607 0.930 . S
C602 H588 0.930 . S
C602 C600 1.395 . S
C602 C605 1.403 . S
C603 C600 1.403 . S
C603 C604 1.524 . S
C603 C607 1.400 . S
C604 H589 0.960 . S
C604 H590 0.960 . S
C604 H591 0.960 . S
C604 C603 1.524 . S
C605 C602 1.403 . S
C605 C606 1.392 . S
C605 C609 1.495 . S
C606 C605 1.392 . S
C606 C607 1.385 . S
C606 C608 1.478 . S
C607 H601 0.930 . S
C607 C603 1.400 . S
C607 C606 1.385 . S
C608 C606 1.478 . S
C608 C610 1.381 . S
C608 C614 1.383 . S
C609 C605 1.495 . S
C609 H615 0.959 . S
C609 H616 0.961 . S
C609 H617 0.960 . S
C610 C608 1.381 . S
C610 C611 1.394 . S
C610 H618 0.930 . S
C611 C610 1.394 . S
C611 C612 1.383 . S
C611 H619 0.929 . S
C612 C611 1.383 . S
C612 C613 1.377 . S
C613 H597 0.930 . S
C613 C612 1.377 . S
C613 C614 1.379 . S
C614 H598 0.931 . S
C614 C608 1.383 . S
C614 C613 1.379 . S
H615 C609 0.959 . S
H616 C609 0.961 . S
H617 C609 0.960 . S
H618 C610 0.930 . S
H619 C611 0.929 . S
H620 C628 0.929 . S
H621 C630 0.930 . S
H622 C632 0.930 . S
H623 C635 0.929 . S
H624 C638 0.930 . S
H625 C640 0.960 . S
H626 C640 0.960 . S
H627 C640 0.960 . S
C628 H620 0.929 . S
C628 C629 1.377 . S
C628 C630 1.384 . S
C629 C628 1.377 . S
C629 C635 1.390 . S
C630 H621 0.930 . S
C630 C628 1.384 . S
C630 C631 1.372 . S
C631 C630 1.372 . S
C631 C632 1.400 . S
C631 C636 1.490 . S
C632 H622 0.930 . S
C632 C631 1.400 . S
C632 C635 1.386 . S
H633 C649 0.930 . S
H634 C650 0.931 . S
C635 H623 0.929 . S
C635 C629 1.390 . S
C635 C632 1.386 . S
C636 C631 1.490 . S
C636 C638 1.395 . S
C636 C639 1.403 . S
H637 C643 0.930 . S
C638 H624 0.930 . S
C638 C636 1.395 . S
C638 C641 1.403 . S
C639 C636 1.403 . S
C639 C640 1.524 . S
C639 C643 1.400 . S
C640 H625 0.960 . S
C640 H626 0.960 . S
C640 H627 0.960 . S
C640 C639 1.524 . S
C641 C638 1.403 . S
C641 C642 1.392 . S
C641 C645 1.495 . S
C642 C641 1.392 . S
C642 C643 1.385 . S
C642 C644 1.478 . S
C643 H637 0.930 . S
C643 C639 1.400 . S
C643 C642 1.385 . S
C644 C642 1.478 . S
C644 C646 1.381 . S
C644 C650 1.383 . S
C645 C641 1.495 . S
C645 H651 0.959 . S
C645 H652 0.961 . S
C645 H653 0.960 . S
C646 C644 1.381 . S
C646 C647 1.394 . S
C646 H654 0.930 . S
C647 C646 1.394 . S
C647 C648 1.383 . S
C647 H655 0.929 . S
C648 C647 1.383 . S
C648 C649 1.377 . S
C649 H633 0.930 . S
C649 C648 1.377 . S
C649 C650 1.379 . S
C650 H634 0.931 . S
C650 C644 1.383 . S
C650 C649 1.379 . S
H651 C645 0.959 . S
H652 C645 0.961 . S
H653 C645 0.960 . S
H654 C646 0.930 . S
H655 C647 0.929 . S
H656 C664 0.929 . S
H657 C666 0.930 1_556 S
H658 C668 0.930 . S
H659 C671 0.929 . S
H660 C674 0.919 1_554 S
H661 C676 0.960 1_455 S
H662 C676 0.960 . S
H663 C676 0.951 1_455 S
C664 H656 0.929 . S
C664 C665 1.377 . S
C664 C666 1.384 . S
C665 C664 1.377 . S
C665 C671 1.390 . S
C666 H657 0.930 1_554 S
C666 C664 1.384 . S
C666 C667 1.372 . S
C667 C666 1.372 . S
C667 C668 1.400 . S
C667 C672 1.490 1_554 S
C668 H658 0.930 . S
C668 C667 1.400 . S
C668 C671 1.386 . S
H669 C685 0.930 . S
H670 C686 0.931 . S
C671 H659 0.929 . S
C671 C665 1.390 . S
C671 C668 1.386 . S
C672 C667 1.490 1_556 S
C672 C674 1.401 . S
C672 C675 1.403 . S
H673 C679 0.907 1_455 S
C674 H660 0.919 1_556 S
C674 C672 1.401 . S
C674 C677 1.409 . S
C675 C672 1.403 . S
C675 C676 1.524 . S
C675 C679 1.400 . S
C676 H661 0.960 1_655 S
C676 H662 0.960 . S
C676 H663 0.951 1_655 S
C676 C675 1.524 . S
C677 C674 1.409 . S
C677 C678 1.392 . S
C677 C681 1.495 . S
C678 C677 1.392 . S
C678 C679 1.385 . S
C678 C680 1.478 . S
C679 H673 0.907 1_655 S
C679 C675 1.400 . S
C679 C678 1.385 . S
C680 C678 1.478 . S
C680 C682 1.381 . S
C680 C686 1.383 1_655 S
C681 C677 1.495 . S
C681 H687 0.959 1_556 S
C681 H688 0.961 1_556 S
C681 H689 0.960 . S
C682 C680 1.381 . S
C682 C683 1.394 . S
C682 H690 0.930 . S
C683 C682 1.394 . S
C683 C684 1.383 1_655 S
C683 H691 0.929 . S
C684 C683 1.383 1_455 S
C684 C685 1.377 . S
C685 H669 0.930 . S
C685 C684 1.377 . S
C685 C686 1.379 . S
C686 H670 0.931 . S
C686 C680 1.383 1_455 S
C686 C685 1.379 . S
H687 C681 0.959 1_554 S
H688 C681 0.961 1_554 S
H689 C681 0.960 . S
H690 C682 0.930 . S
H691 C683 0.929 . S
H692 C700 0.929 . S
H693 C702 0.930 . S
H694 C704 0.930 . S
H695 C707 0.929 . S
H696 C710 0.930 1_554 S
H697 C712 0.960 . S
H698 C712 0.960 1_565 S
H699 C712 0.960 . S
C700 H692 0.929 . S
C700 C701 1.389 . S
C700 C702 1.384 . S
C701 C700 1.389 . S
C701 C707 1.378 1_564 S
C702 H693 0.930 . S
C702 C700 1.384 . S
C702 C703 1.361 1_564 S
C703 C702 1.361 1_546 S
C703 C704 1.411 . S
C703 C708 1.490 . S
C704 H694 0.930 . S
C704 C703 1.411 . S
C704 C707 1.386 . S
H705 C721 0.930 . S
H706 C722 0.931 . S
C707 H695 0.929 . S
C707 C701 1.378 1_546 S
C707 C704 1.386 . S
C708 C703 1.490 . S
C708 C710 1.395 1_545 S
C708 C711 1.403 . S
H709 C715 0.930 . S
C710 H696 0.930 1_556 S
C710 C708 1.395 1_565 S
C710 C713 1.406 . S
C711 C708 1.403 . S
C711 C712 1.524 . S
C711 C715 1.400 . S
C712 H697 0.960 . S
C712 H698 0.960 1_545 S
C712 H699 0.960 . S
C712 C711 1.524 . S
C713 C710 1.406 . S
C713 C714 1.391 1_565 S
C713 C717 1.497 1_556 S
C714 C713 1.391 1_545 S
C714 C715 1.385 . S
C714 C716 1.478 . S
C715 H709 0.930 . S
C715 C711 1.400 . S
C715 C714 1.385 . S
C716 C714 1.478 . S
C716 C718 1.381 1_545 S
C716 C722 1.383 . S
C717 C713 1.497 1_554 S
C717 H723 0.959 . S
C717 H724 0.961 1_565 S
C717 H725 0.960 . S
C718 C716 1.381 1_565 S
C718 C719 1.394 . S
C718 H726 0.930 . S
C719 C718 1.394 . S
C719 C720 1.383 1_565 S
C719 H727 0.929 . S
C720 C719 1.383 1_545 S
C720 C721 1.377 . S
C721 H705 0.930 . S
C721 C720 1.377 . S
C721 C722 1.379 . S
C722 H706 0.931 . S
C722 C716 1.383 . S
C722 C721 1.379 . S
H723 C717 0.959 . S
H724 C717 0.961 1_545 S
H725 C717 0.960 . S
H726 C718 0.930 . S
H727 C719 0.929 . S
H728 C736 0.929 . S
H729 C738 0.930 . S
H730 C740 0.930 . S
H731 C743 0.929 1_556 S
H732 C746 0.930 1_554 S
H733 C748 0.960 . S
H734 C748 0.960 . S
H735 C748 0.960 . S
C736 H728 0.929 . S
C736 C737 1.377 . S
C736 C738 1.384 . S
C737 C736 1.377 . S
C737 C743 1.390 . S
C738 H729 0.930 . S
C738 C736 1.384 . S
C738 C739 1.372 . S
C739 C738 1.372 . S
C739 C740 1.400 1_554 S
C739 C744 1.490 1_554 S
C740 H730 0.930 . S
C740 C739 1.400 1_556 S
C740 C743 1.386 1_556 S
H741 C757 0.930 . S
H742 C758 0.931 . S
C743 H731 0.929 1_554 S
C743 C737 1.390 . S
C743 C740 1.386 1_554 S
C744 C739 1.490 1_556 S
C744 C746 1.395 . S
C744 C747 1.403 . S
H745 C751 0.930 . S
C746 H732 0.930 1_556 S
C746 C744 1.395 . S
C746 C749 1.403 . S
C747 C744 1.403 . S
C747 C748 1.524 . S
C747 C751 1.400 . S
C748 H733 0.960 . S
C748 H734 0.960 . S
C748 H735 0.960 . S
C748 C747 1.524 . S
C749 C746 1.403 . S
C749 C750 1.392 . S
C749 C753 1.495 . S
C750 C749 1.392 . S
C750 C751 1.385 . S
C750 C752 1.478 . S
C751 H745 0.930 . S
C751 C747 1.400 . S
C751 C750 1.385 . S
C752 C750 1.478 . S
C752 C754 1.381 . S
C752 C758 1.383 . S
C753 C749 1.495 . S
C753 H759 0.959 1_556 S
C753 H760 0.961 . S
C753 H761 0.960 1_556 S
C754 C752 1.381 . S
C754 C755 1.394 . S
C754 H762 0.930 . S
C755 C754 1.394 . S
C755 C756 1.383 . S
C755 H763 0.929 . S
C756 C755 1.383 . S
C756 C757 1.377 . S
C757 H741 0.930 . S
C757 C756 1.377 . S
C757 C758 1.379 . S
C758 H742 0.931 . S
C758 C752 1.383 . S
C758 C757 1.379 . S
H759 C753 0.959 1_554 S
H760 C753 0.961 . S
H761 C753 0.960 1_554 S
H762 C754 0.930 . S
H763 C755 0.929 . S
H764 C772 0.929 . S
H765 C774 0.930 . S
H766 C776 0.930 . S
H767 C779 0.929 . S
H768 C782 0.930 . S
H769 C784 0.960 . S
H770 C784 0.960 . S
H771 C784 0.960 . S
C772 H764 0.929 . S
C772 C773 1.377 . S
C772 C774 1.384 . S
C773 C772 1.377 . S
C773 C779 1.390 . S
C774 H765 0.930 . S
C774 C772 1.384 . S
C774 C775 1.372 . S
C775 C774 1.372 . S
C775 C776 1.400 . S
C775 C780 1.490 . S
C776 H766 0.930 . S
C776 C775 1.400 . S
C776 C779 1.386 . S
H777 C793 0.930 . S
H778 C794 0.931 . S
C779 H767 0.929 . S
C779 C773 1.390 . S
C779 C776 1.386 . S
C780 C775 1.490 . S
C780 C782 1.395 . S
C780 C783 1.403 1_554 S
H781 C787 0.930 . S
C782 H768 0.930 . S
C782 C780 1.395 . S
C782 C785 1.403 . S
C783 C780 1.403 1_556 S
C783 C784 1.524 . S
C783 C787 1.400 . S
C784 H769 0.960 . S
C784 H770 0.960 . S
C784 H771 0.960 . S
C784 C783 1.524 . S
C785 C782 1.403 . S
C785 C786 1.392 1_554 S
C785 C789 1.495 . S
C786 C785 1.392 1_556 S
C786 C787 1.385 . S
C786 C788 1.478 . S
C787 H781 0.930 . S
C787 C783 1.400 . S
C787 C786 1.385 . S
C788 C786 1.478 . S
C788 C790 1.381 . S
C788 C794 1.383 . S
C789 C785 1.495 . S
C789 H795 0.959 . S
C789 H796 0.961 . S
C789 H797 0.960 . S
C790 C788 1.381 . S
C790 C791 1.394 . S
C790 H798 0.930 . S
C791 C790 1.394 . S
C791 C792 1.383 . S
C791 H799 0.929 . S
C792 C791 1.383 . S
C792 C793 1.377 . S
C793 H777 0.930 . S
C793 C792 1.377 . S
C793 C794 1.379 . S
C794 H778 0.931 . S
C794 C788 1.383 . S
C794 C793 1.379 . S
H795 C789 0.959 . S
H796 C789 0.961 . S
H797 C789 0.960 . S
H798 C790 0.930 . S
H799 C791 0.929 . S
H800 C808 0.929 . S
H801 C810 0.930 . S
H802 C812 0.930 . S
H803 C815 0.929 . S
H804 C818 0.930 . S
H805 C820 0.960 . S
H806 C820 0.960 . S
H807 C820 0.960 . S
C808 H800 0.929 . S
C808 C809 1.377 . S
C808 C810 1.384 . S
C809 C808 1.377 . S
C809 C815 1.390 . S
C810 H801 0.930 . S
C810 C808 1.384 . S
C810 C811 1.372 . S
C811 C810 1.372 . S
C811 C812 1.400 . S
C811 C816 1.490 . S
C812 H802 0.930 . S
C812 C811 1.400 . S
C812 C815 1.386 . S
H813 C829 0.930 . S
H814 C830 0.931 . S
C815 H803 0.929 . S
C815 C809 1.390 . S
C815 C812 1.386 . S
C816 C811 1.490 . S
C816 C818 1.395 . S
C816 C819 1.403 . S
H817 C823 0.930 . S
C818 H804 0.930 . S
C818 C816 1.395 . S
C818 C821 1.403 . S
C819 C816 1.403 . S
C819 C820 1.524 . S
C819 C823 1.400 . S
C820 H805 0.960 . S
C820 H806 0.960 . S
C820 H807 0.960 . S
C820 C819 1.524 . S
C821 C818 1.403 . S
C821 C822 1.392 . S
C821 C825 1.495 . S
C822 C821 1.392 . S
C822 C823 1.385 . S
C822 C824 1.478 . S
C823 H817 0.930 . S
C823 C819 1.400 . S
C823 C822 1.385 . S
C824 C822 1.478 . S
C824 C826 1.381 . S
C824 C830 1.383 . S
C825 C821 1.495 . S
C825 H831 0.959 . S
C825 H832 0.961 1_455 S
C825 H833 0.960 . S
C826 C824 1.381 . S
C826 C827 1.394 . S
C826 H834 0.930 . S
C827 C826 1.394 . S
C827 C828 1.376 1_554 S
C827 H835 0.929 . S
C828 C827 1.376 1_556 S
C828 C829 1.378 . S
C829 H813 0.930 . S
C829 C828 1.378 . S
C829 C830 1.379 1_556 S
C830 H814 0.931 . S
C830 C824 1.383 . S
C830 C829 1.379 1_554 S
H831 C825 0.959 . S
H832 C825 0.961 1_655 S
H833 C825 0.960 . S
H834 C826 0.930 . S
H835 C827 0.929 . S
H836 C844 0.929 . S
H837 C846 0.930 . S
H838 C848 0.930 . S
H839 C851 0.929 . S
H840 C854 0.930 . S
H841 C856 0.960 . S
H842 C856 0.960 . S
H843 C856 0.994 . S
C844 H836 0.929 . S
C844 C845 1.368 1_565 S
C844 C846 1.384 . S
C845 C844 1.368 1_545 S
C845 C851 1.398 . S
C846 H837 0.930 . S
C846 C844 1.384 . S
C846 C847 1.372 1_565 S
C847 C846 1.372 1_545 S
C847 C848 1.400 . S
C847 C852 1.490 . S
C848 H838 0.930 . S
C848 C847 1.400 . S
C848 C851 1.386 . S
H849 C865 0.930 . S
H850 C866 0.931 . S
C851 H839 0.929 . S
C851 C845 1.398 . S
C851 C848 1.386 . S
C852 C847 1.490 . S
C852 C854 1.395 . S
C852 C855 1.403 1_545 S
H853 C859 0.931 1_565 S
C854 H840 0.930 . S
C854 C852 1.395 . S
C854 C857 1.403 . S
C855 C852 1.403 1_565 S
C855 C856 1.524 . S
C855 C859 1.400 1_565 S
C856 H841 0.960 . S
C856 H842 0.960 . S
C856 H843 0.994 . S
C856 C855 1.524 . S
C857 C854 1.403 . S
C857 C858 1.392 . S
C857 C861 1.495 . S
C858 C857 1.392 . S
C858 C859 1.384 . S
C858 C860 1.478 . S
C859 H853 0.931 1_545 S
C859 C855 1.400 1_545 S
C859 C858 1.384 . S
C860 C858 1.478 . S
C860 C862 1.381 1_545 S
C860 C866 1.383 . S
C861 C857 1.495 . S
C861 H867 0.959 . S
C861 H868 0.961 . S
C861 H869 0.960 . S
C862 C860 1.381 1_565 S
C862 C863 1.394 . S
C862 H870 0.930 . S
C863 C862 1.394 . S
C863 C864 1.383 1_565 S
C863 H871 0.929 1_554 S
C864 C863 1.383 1_545 S
C864 C865 1.377 . S
C865 H849 0.930 . S
C865 C864 1.377 . S
C865 C866 1.379 . S
C866 H850 0.931 . S
C866 C860 1.383 . S
C866 C865 1.379 . S
H867 C861 0.959 . S
H868 C861 0.961 . S
H869 C861 0.960 . S
H870 C862 0.930 . S
H871 C863 0.929 1_556 S
H872 C880 0.929 . S
H873 C882 0.930 . S
H874 C884 0.930 . S
H875 C887 0.929 . S
H876 C890 0.930 . S
H877 C892 0.960 . S
H878 C892 0.960 . S
H879 C892 0.960 . S
C880 H872 0.929 . S
C880 C881 1.377 . S
C880 C882 1.384 . S
C881 C880 1.377 . S
C881 C887 1.390 . S
C882 H873 0.930 . S
C882 C880 1.384 . S
C882 C883 1.372 . S
C883 C882 1.372 . S
C883 C884 1.400 . S
C883 C888 1.490 . S
C884 H874 0.930 . S
C884 C883 1.400 . S
C884 C887 1.386 . S
H885 C901 0.930 . S
H886 C902 0.931 . S
C887 H875 0.929 . S
C887 C881 1.390 . S
C887 C884 1.386 . S
C888 C883 1.490 . S
C888 C890 1.395 . S
C888 C891 1.403 . S
H889 C895 0.930 . S
C890 H876 0.930 . S
C890 C888 1.395 . S
C890 C893 1.403 . S
C891 C888 1.403 . S
C891 C892 1.524 . S
C891 C895 1.400 . S
C892 H877 0.960 . S
C892 H878 0.960 . S
C892 H879 0.960 . S
C892 C891 1.524 . S
C893 C890 1.403 . S
C893 C894 1.392 . S
C893 C897 1.495 . S
C894 C893 1.392 . S
C894 C895 1.385 . S
C894 C896 1.478 . S
C895 H889 0.930 . S
C895 C891 1.400 . S
C895 C894 1.385 . S
C896 C894 1.478 . S
C896 C898 1.381 . S
C896 C902 1.383 1_554 S
C897 C893 1.495 . S
C897 H903 0.959 . S
C897 H904 0.961 1_554 S
C897 H905 0.960 . S
C898 C896 1.381 . S
C898 C899 1.394 1_554 S
C898 H906 0.930 . S
C899 C898 1.394 1_556 S
C899 C900 1.383 . S
C899 H907 0.929 . S
C900 C899 1.383 . S
C900 C901 1.377 . S
C901 H885 0.930 . S
C901 C900 1.377 . S
C901 C902 1.379 . S
C902 H886 0.931 . S
C902 C896 1.383 1_556 S
C902 C901 1.379 . S
H903 C897 0.959 . S
H904 C897 0.961 1_556 S
H905 C897 0.960 . S
H906 C898 0.930 . S
H907 C899 0.929 . S
H908 C916 0.929 . S
H909 C918 0.930 . S
H910 C920 0.930 . S
H911 C923 0.929 . S
H912 C926 0.930 . S
H913 C928 0.960 . S
H914 C928 0.960 . S
H915 C928 0.960 . S
C916 H908 0.929 . S
C916 C917 1.377 . S
C916 C918 1.384 . S
C917 C916 1.377 . S
C917 C923 1.390 . S
C918 H909 0.930 . S
C918 C916 1.384 . S
C918 C919 1.372 . S
C919 C918 1.372 . S
C919 C920 1.400 . S
C919 C924 1.490 . S
C920 H910 0.930 . S
C920 C919 1.400 . S
C920 C923 1.386 . S
H921 C937 0.930 . S
H922 C938 0.931 . S
C923 H911 0.929 . S
C923 C917 1.390 . S
C923 C920 1.386 . S
C924 C919 1.490 . S
C924 C926 1.395 . S
C924 C927 1.403 . S
H925 C931 0.930 . S
C926 H912 0.930 . S
C926 C924 1.395 . S
C926 C929 1.403 . S
C927 C924 1.403 . S
C927 C928 1.524 . S
C927 C931 1.400 . S
C928 H913 0.960 . S
C928 H914 0.960 . S
C928 H915 0.960 . S
C928 C927 1.524 . S
C929 C926 1.403 . S
C929 C930 1.392 . S
C929 C933 1.495 . S
C930 C929 1.392 . S
C930 C931 1.385 . S
C930 C932 1.478 1_554 S
C931 H925 0.930 . S
C931 C927 1.400 . S
C931 C930 1.385 . S
C932 C930 1.478 1_556 S
C932 C934 1.381 1_556 S
C932 C938 1.383 . S
C933 C929 1.495 . S
C933 H939 0.959 . S
C933 H940 0.961 1_554 S
C933 H941 0.960 . S
C934 C932 1.381 1_554 S
C934 C935 1.394 1_554 S
C934 H942 0.930 . S
C935 C934 1.394 1_556 S
C935 C936 1.383 . S
C935 H943 0.929 . S
C936 C935 1.383 . S
C936 C937 1.377 . S
C937 H921 0.930 . S
C937 C936 1.377 . S
C937 C938 1.379 . S
C938 H922 0.931 . S
C938 C932 1.383 . S
C938 C937 1.379 . S
H939 C933 0.959 . S
H940 C933 0.961 1_556 S
H941 C933 0.960 . S
H942 C934 0.930 . S
H943 C935 0.929 . S
H944 C952 0.929 . S
H945 C954 0.930 . S
H946 C956 0.930 . S
H947 C959 0.929 . S
H948 C962 0.930 . S
H949 C964 0.953 1_455 S
H950 C964 0.971 . S
H951 C964 0.960 . S
C952 H944 0.929 . S
C952 C953 1.377 . S
C952 C954 1.384 . S
C953 C952 1.377 . S
C953 C959 1.390 . S
C954 H945 0.930 . S
C954 C952 1.384 . S
C954 C955 1.372 . S
C955 C954 1.372 . S
C955 C956 1.400 . S
C955 C960 1.490 . S
C956 H946 0.930 . S
C956 C955 1.400 . S
C956 C959 1.386 . S
H957 C973 0.930 . S
H958 C974 0.931 . S
C959 H947 0.929 . S
C959 C953 1.390 . S
C959 C956 1.386 . S
C960 C955 1.490 . S
C960 C962 1.395 . S
C960 C963 1.403 . S
H961 C967 0.930 . S
C962 H948 0.930 . S
C962 C960 1.395 . S
C962 C965 1.403 . S
C963 C960 1.403 . S
C963 C964 1.524 . S
C963 C967 1.400 . S
C964 H949 0.953 1_655 S
C964 H950 0.971 . S
C964 H951 0.960 . S
C964 C963 1.524 . S
C965 C962 1.403 . S
C965 C966 1.392 . S
C965 C969 1.495 . S
C966 C965 1.392 . S
C966 C967 1.385 . S
C966 C968 1.478 . S
C967 H961 0.930 . S
C967 C963 1.400 . S
C967 C966 1.385 . S
C968 C966 1.478 . S
C968 C970 1.381 . S
C968 C974 1.383 . S
C969 C965 1.495 . S
C969 H975 0.959 . S
C969 H976 0.961 . S
C969 H977 0.960 . S
C970 C968 1.381 . S
C970 C971 1.394 . S
C970 H978 0.930 . S
C971 C970 1.394 . S
C971 C972 1.383 . S
C971 H979 0.929 . S
C972 C971 1.383 . S
C972 C973 1.377 . S
C973 H957 0.930 . S
C973 C972 1.377 . S
C973 C974 1.379 . S
C974 H958 0.931 . S
C974 C968 1.383 . S
C974 C973 1.379 . S
H975 C969 0.959 . S
H976 C969 0.961 . S
H977 C969 0.960 . S
H978 C970 0.930 . S
H979 C971 0.929 . S
H980 C988 0.929 . S
H981 C990 0.930 . S
H982 C992 0.930 . S
H983 C995 0.929 . S
H984 C998 0.930 . S
H985 C1000 0.960 . S
H986 C1000 0.960 1_565 S
H987 C1000 0.960 . S
C988 H980 0.929 . S
C988 C989 1.408 . S
C988 C990 1.384 . S
C989 C988 1.408 . S
C989 C995 1.358 1_565 S
C990 H981 0.930 . S
C990 C988 1.384 . S
C990 C991 1.372 . S
C991 C990 1.372 . S
C991 C992 1.400 1_565 S
C991 C996 1.490 . S
C992 H982 0.930 . S
C992 C991 1.400 1_545 S
C992 C995 1.386 . S
H993 C1009 0.930 . S
H994 C1010 0.931 . S
C995 H983 0.929 . S
C995 C989 1.358 1_545 S
C995 C992 1.386 . S
C996 C991 1.490 . S
C996 C998 1.395 . S
C996 C999 1.403 1_565 S
H997 C1003 0.926 1_545 S
C998 H984 0.930 . S
C998 C996 1.395 . S
C998 C1001 1.403 . S
C999 C996 1.403 1_545 S
C999 C1000 1.524 . S
C999 C1003 1.400 1_545 S
C1000 H985 0.960 . S
C1000 H986 0.960 1_545 S
C1000 H987 0.960 . S
C1000 C999 1.524 . S
C1001 C998 1.403 . S
C1001 C1002 1.392 . S
C1001 C1005 1.495 . S
C1002 C1001 1.392 . S
C1002 C1003 1.389 . S
C1002 C1004 1.478 . S
C1003 H997 0.926 1_565 S
C1003 C999 1.400 1_565 S
C1003 C1002 1.389 . S
C1004 C1002 1.478 . S
C1004 C1006 1.381 . S
C1004 C1010 1.383 1_565 S
C1005 C1001 1.495 . S
C1005 H1011 0.959 . S
C1005 H1012 0.961 . S
C1005 H1013 0.960 . S
C1006 C1004 1.381 . S
C1006 C1007 1.394 . S
C1006 H1014 0.930 . S
C1007 C1006 1.394 . S
C1007 C1008 1.383 . S
C1007 H1015 0.929 . S
C1008 C1007 1.383 . S
C1008 C1009 1.377 1_565 S
C1009 H993 0.930 . S
C1009 C1008 1.377 1_545 S
C1009 C1010 1.379 . S
C1010 H994 0.931 . S
C1010 C1004 1.383 1_545 S
C1010 C1009 1.379 . S
H1011 C1005 0.959 . S
H1012 C1005 0.961 . S
H1013 C1005 0.960 . S
H1014 C1006 0.930 . S
H1015 C1007 0.929 . S
H1016 C1024 0.929 . S
H1017 C1026 0.930 . S
H1018 C1028 0.930 . S
H1019 C1031 0.929 . S
H1020 C1034 0.930 . S
H1021 C1036 0.960 . S
H1022 C1036 0.960 . S
H1023 C1036 0.960 . S
C1024 H1016 0.929 . S
C1024 C1025 1.377 . S
C1024 C1026 1.384 . S
C1025 C1024 1.377 . S
C1025 C1031 1.390 . S
C1026 H1017 0.930 . S
C1026 C1024 1.384 . S
C1026 C1027 1.372 . S
C1027 C1026 1.372 . S
C1027 C1028 1.400 . S
C1027 C1032 1.490 . S
C1028 H1018 0.930 . S
C1028 C1027 1.400 . S
C1028 C1031 1.386 . S
H1029 C1045 0.930 . S
H1030 C1046 0.931 . S
C1031 H1019 0.929 . S
C1031 C1025 1.390 . S
C1031 C1028 1.386 . S
C1032 C1027 1.490 . S
C1032 C1034 1.395 . S
C1032 C1035 1.403 . S
H1033 C1039 0.930 . S
C1034 H1020 0.930 . S
C1034 C1032 1.395 . S
C1034 C1037 1.403 . S
C1035 C1032 1.403 . S
C1035 C1036 1.524 . S
C1035 C1039 1.400 . S
C1036 H1021 0.960 . S
C1036 H1022 0.960 . S
C1036 H1023 0.960 . S
C1036 C1035 1.524 . S
C1037 C1034 1.403 . S
C1037 C1038 1.392 . S
C1037 C1041 1.495 . S
C1038 C1037 1.392 . S
C1038 C1039 1.385 . S
C1038 C1040 1.478 . S
C1039 H1033 0.930 . S
C1039 C1035 1.400 . S
C1039 C1038 1.385 . S
C1040 C1038 1.478 . S
C1040 C1042 1.381 . S
C1040 C1046 1.383 . S
C1041 C1037 1.495 . S
C1041 H1047 0.959 . S
C1041 H1048 0.961 . S
C1041 H1049 0.960 . S
C1042 C1040 1.381 . S
C1042 C1043 1.394 . S
C1042 H1050 0.930 . S
C1043 C1042 1.394 . S
C1043 C1044 1.383 . S
C1043 H1051 0.929 . S
C1044 C1043 1.383 . S
C1044 C1045 1.377 . S
C1045 H1029 0.930 . S
C1045 C1044 1.377 . S
C1045 C1046 1.379 . S
C1046 H1030 0.931 . S
C1046 C1040 1.383 . S
C1046 C1045 1.379 . S
H1047 C1041 0.959 . S
H1048 C1041 0.961 . S
H1049 C1041 0.960 . S
H1050 C1042 0.930 . S
H1051 C1043 0.929 . S
H1052 C1060 0.929 . S
H1053 C1062 0.930 . S
H1054 C1064 0.930 . S
H1055 C1067 0.929 . S
H1056 C1070 0.930 . S
H1057 C1072 0.960 . S
H1058 C1072 0.960 . S
H1059 C1072 0.960 . S
C1060 H1052 0.929 . S
C1060 C1061 1.377 . S
C1060 C1062 1.384 . S
C1061 C1060 1.377 . S
C1061 C1067 1.390 . S
C1062 H1053 0.930 . S
C1062 C1060 1.384 . S
C1062 C1063 1.372 . S
C1063 C1062 1.372 . S
C1063 C1064 1.400 . S
C1063 C1068 1.490 . S
C1064 H1054 0.930 . S
C1064 C1063 1.400 . S
C1064 C1067 1.386 . S
H1065 C1081 0.930 . S
H1066 C1082 0.931 . S
C1067 H1055 0.929 . S
C1067 C1061 1.390 . S
C1067 C1064 1.386 . S
C1068 C1063 1.490 . S
C1068 C1070 1.395 . S
C1068 C1071 1.403 . S
H1069 C1075 0.930 . S
C1070 H1056 0.930 . S
C1070 C1068 1.395 . S
C1070 C1073 1.403 . S
C1071 C1068 1.403 . S
C1071 C1072 1.524 . S
C1071 C1075 1.400 . S
C1072 H1057 0.960 . S
C1072 H1058 0.960 . S
C1072 H1059 0.960 . S
C1072 C1071 1.524 . S
C1073 C1070 1.403 . S
C1073 C1074 1.392 . S
C1073 C1077 1.495 . S
C1074 C1073 1.392 . S
C1074 C1075 1.385 . S
C1074 C1076 1.478 . S
C1075 H1069 0.930 . S
C1075 C1071 1.400 . S
C1075 C1074 1.385 . S
C1076 C1074 1.478 . S
C1076 C1078 1.381 . S
C1076 C1082 1.383 . S
C1077 C1073 1.495 . S
C1077 H1083 0.959 . S
C1077 H1084 0.961 . S
C1077 H1085 0.960 . S
C1078 C1076 1.381 . S
C1078 C1079 1.394 . S
C1078 H1086 0.930 . S
C1079 C1078 1.394 . S
C1079 C1080 1.383 . S
C1079 H1087 0.929 . S
C1080 C1079 1.383 . S
C1080 C1081 1.377 . S
C1081 H1065 0.930 . S
C1081 C1080 1.377 . S
C1081 C1082 1.379 . S
C1082 H1066 0.931 . S
C1082 C1076 1.383 . S
C1082 C1081 1.379 . S
H1083 C1077 0.959 . S
H1084 C1077 0.961 . S
H1085 C1077 0.960 . S
H1086 C1078 0.930 . S
H1087 C1079 0.929 . S
C233 C82 1.556 1_565 S
C252 C114 1.635 . S
C288 C144 1.804 . S
C269 C95 1.722 . S
C324 N178 1.339 . S
C305 C56 1.317 . S
C360 N208 1.348 . S
C341 C69 1.323 . S
C396 C105 1.634 . S
C377 C30 1.548 . S
C413 C43 1.682 . S
C432 C135 1.809 . S
C449 C4 1.305 . S
C468 N170 1.353 . S
C485 C17 1.289 . S
C504 N200 1.394 . S
C540 C120 0.152 . S
C521 C74 0.384 . S
C576 C150 0.498 . S
C557 C87 0.536 . S
C612 C191 0.714 . S
C593 C100 0.727 . S
C629 C61 0.374 . S
C648 C221 0.382 . S
C665 C22 0.435 . S
C684 C131 0.214 . S
C720 C161 0.485 . S
C701 C35 0.526 1_565 S
C756 C180 0.760 . S
C737 C48 0.733 . S
C773 C9 0.378 . S
C792 C210 0.348 . S
C809 C73 1.471 . S
C828 N110 1.448 . S
C845 C86 1.430 . S
C864 N140 1.435 1_554 S
C900 C165 1.641 . S
C881 C99 1.612 . S
C936 C195 1.584 . S
C917 C60 1.549 . S
C953 C21 1.466 . S
C972 N118 1.490 . S
C1008 N148 1.433 . S
C989 C34 1.433 1_565 S
C1044 C174 1.646 . S
C1025 C47 1.611 . S
C1061 C8 1.550 . S
C1080 C204 1.581 . S
