# Generated by pormake.
# Topology zzz, (3,6)-cn, num edge types: 1
# Building blocks:
#     Node 0, Type 0, BuildingBlock: KAKCAD_clean_linker_0, # of connection points: 3
#     Node 1, Type 0, BuildingBlock: KAKCAD_clean_linker_0, # of connection points: 3
#     Node 2, Type 0, BuildingBlock: KAKCAD_clean_linker_0, # of connection points: 3
#     Node 3, Type 0, BuildingBlock: KAKCAD_clean_linker_0, # of connection points: 3
#     Node 4, Type 0, BuildingBlock: KAKCAD_clean_linker_0, # of connection points: 3
#     Node 5, Type 0, BuildingBlock: KAKCAD_clean_linker_0, # of connection points: 3
#     Node 6, Type 0, BuildingBlock: KAKCAD_clean_linker_0, # of connection points: 3
#     Node 7, Type 0, BuildingBlock: KAKCAD_clean_linker_0, # of connection points: 3
#     Node 8, Type 1, BuildingBlock: INOVEN_clean_sbu_0, # of connection points: 6
#     Node 9, Type 1, BuildingBlock: INOVEN_clean_sbu_0, # of connection points: 6
#     Node 10, Type 1, BuildingBlock: INOVEN_clean_sbu_0, # of connection points: 6
#     Node 11, Type 1, BuildingBlock: INOVEN_clean_sbu_0, # of connection points: 6
#     Edge 12, Type (0, 1), BuildingBlock: KIFKEQ_clean_linker_1, # of connection points: 2
#     Edge 13, Type (0, 1), BuildingBlock: KIFKEQ_clean_linker_1, # of connection points: 2
#     Edge 14, Type (0, 1), BuildingBlock: KIFKEQ_clean_linker_1, # of connection points: 2
#     Edge 15, Type (0, 1), BuildingBlock: KIFKEQ_clean_linker_1, # of connection points: 2
#     Edge 16, Type (0, 1), BuildingBlock: KIFKEQ_clean_linker_1, # of connection points: 2
#     Edge 17, Type (0, 1), BuildingBlock: KIFKEQ_clean_linker_1, # of connection points: 2
#     Edge 18, Type (0, 1), BuildingBlock: KIFKEQ_clean_linker_1, # of connection points: 2
#     Edge 19, Type (0, 1), BuildingBlock: KIFKEQ_clean_linker_1, # of connection points: 2
#     Edge 20, Type (0, 1), BuildingBlock: KIFKEQ_clean_linker_1, # of connection points: 2
#     Edge 21, Type (0, 1), BuildingBlock: KIFKEQ_clean_linker_1, # of connection points: 2
#     Edge 22, Type (0, 1), BuildingBlock: KIFKEQ_clean_linker_1, # of connection points: 2
#     Edge 23, Type (0, 1), BuildingBlock: KIFKEQ_clean_linker_1, # of connection points: 2
#     Edge 24, Type (0, 1), BuildingBlock: KIFKEQ_clean_linker_1, # of connection points: 2
#     Edge 25, Type (0, 1), BuildingBlock: KIFKEQ_clean_linker_1, # of connection points: 2
#     Edge 26, Type (0, 1), BuildingBlock: KIFKEQ_clean_linker_1, # of connection points: 2
#     Edge 27, Type (0, 1), BuildingBlock: KIFKEQ_clean_linker_1, # of connection points: 2
#     Edge 28, Type (0, 1), BuildingBlock: KIFKEQ_clean_linker_1, # of connection points: 2
#     Edge 29, Type (0, 1), BuildingBlock: KIFKEQ_clean_linker_1, # of connection points: 2
#     Edge 30, Type (0, 1), BuildingBlock: KIFKEQ_clean_linker_1, # of connection points: 2
#     Edge 31, Type (0, 1), BuildingBlock: KIFKEQ_clean_linker_1, # of connection points: 2
#     Edge 32, Type (0, 1), BuildingBlock: KIFKEQ_clean_linker_1, # of connection points: 2
#     Edge 33, Type (0, 1), BuildingBlock: KIFKEQ_clean_linker_1, # of connection points: 2
#     Edge 34, Type (0, 1), BuildingBlock: KIFKEQ_clean_linker_1, # of connection points: 2
#     Edge 35, Type (0, 1), BuildingBlock: KIFKEQ_clean_linker_1, # of connection points: 2
# Relax obj value: 0.425
# Max RMSD: 0.269
# Mean RMSD: 0.251
data_MOF--net-zzz--node1-INOVEN_clean_sbu_0--node2-KAKCAD_clean_linker_0--edge1-KIFKEQ_clean_linker_1
_symmetry_space_group_name_H-M    P1
_symmetry_Int_Tables_number       1
_symmetry_cell_setting            triclinic
loop_
_symmetry_equiv_pos_as_xyz
'x, y, z'
_cell_length_a     60.469829
_cell_length_b     60.333288
_cell_length_c     18.482685
_cell_angle_alpha  90.035492
_cell_angle_beta   89.947436
_cell_angle_gamma 90.108402
loop_
_atom_site_label
_atom_site_type_symbol
_atom_site_fract_x
_atom_site_fract_y
_atom_site_fract_z
_atom_type_partial_charge
C0 C 0.76011 0.44262 0.04264 0.0
C1 C 0.77944 0.43069 0.05905 0.0
C2 C 0.74825 0.45328 0.0973 0.0
C3 C 0.75495 0.45153 0.16999 0.0
C4 C 0.77204 0.43666 0.18707 0.0
C5 C 0.78435 0.4266 0.13229 0.0
C6 C 0.74648 0.46738 0.22541 0.0
C7 C 0.72491 0.47569 0.22174 0.0
C8 C 0.71791 0.49322 0.26652 0.0
C9 C 0.73291 0.50225 0.3175 0.0
C10 C 0.75434 0.49319 0.32439 0.0
C11 C 0.76089 0.47613 0.27753 0.0
C12 C 0.77097 0.5012 0.37779 0.0
C13 C 0.77969 0.52275 0.37393 0.0
C14 C 0.78148 0.48566 0.42268 0.0
C15 C 0.80109 0.49096 0.45876 0.0
C16 C 0.81081 0.51206 0.45141 0.0
C17 C 0.69528 0.50229 0.25434 0.0
C18 C 0.69193 0.52495 0.24093 0.0
C19 C 0.67755 0.48759 0.24284 0.0
C20 C 0.65785 0.49487 0.21162 0.0
C21 C 0.65497 0.51726 0.19223 0.0
C22 C 0.67196 0.53238 0.21059 0.0
C23 C 0.7994 0.52815 0.41043 0.0
H24 H 0.75519 0.44535 0.98705 0.0
H25 H 0.73503 0.46431 0.08143 0.0
H26 H 0.77704 0.43406 0.24266 0.0
H27 H 0.79889 0.41735 0.14792 0.0
H28 H 0.71365 0.46899 0.18174 0.0
H29 H 0.77786 0.47041 0.27985 0.0
H30 H 0.72785 0.51581 0.35214 0.0
H31 H 0.77209 0.53498 0.33905 0.0
H32 H 0.77524 0.46884 0.42611 0.0
H33 H 0.80929 0.47795 0.48871 0.0
H34 H 0.70524 0.53671 0.24929 0.0
H35 H 0.67949 0.47004 0.25346 0.0
H36 H 0.80607 0.54471 0.40443 0.0
H37 H 0.67027 0.54986 0.19885 0.0
H38 H 0.64555 0.48248 0.19845 0.0
C39 C 0.09978 0.77634 0.08746 0.0
C40 C 0.11622 0.78841 0.12439 0.0
C41 C 0.08643 0.76124 0.12454 0.0
C42 C 0.08921 0.75805 0.19916 0.0
C43 C 0.10736 0.76793 0.23395 0.0
C44 C 0.12088 0.78287 0.1967 0.0
C45 C 0.07083 0.74859 0.24214 0.0
C46 C 0.06045 0.72884 0.22166 0.0
C47 C 0.04076 0.72196 0.2553 0.0
C48 C 0.03116 0.73534 0.30979 0.0
C49 C 0.0419 0.75502 0.33224 0.0
C50 C 0.06169 0.76127 0.29803 0.0
C51 C 0.03265 0.77046 0.38757 0.0
C52 C 0.01136 0.77945 0.38015 0.0
C53 C 0.0468 0.77948 0.44028 0.0
C54 C 0.04065 0.79815 0.48021 0.0
C55 C 0.01996 0.8083 0.46949 0.0
C56 C 0.03051 0.7011 0.22931 0.0
C57 C 0.01302 0.70176 0.17953 0.0
C58 C 0.04134 0.68089 0.24155 0.0
C59 C 0.0356 0.66194 0.20201 0.0
C60 C 0.01912 0.66283 0.14828 0.0
C61 C 1.00736 0.68282 0.13941 0.0
C62 C 1.00506 0.79814 0.42077 0.0
H63 H 0.09561 0.78017 0.03191 0.0
H64 H 0.07252 0.75386 0.09645 0.0
H65 H 0.11002 0.76545 0.29134 0.0
H66 H 0.13378 0.79145 0.2262 0.0
H67 H 0.06739 0.71907 0.17791 0.0
H68 H 0.06934 0.77698 0.31197 0.0
H69 H 0.01571 0.73037 0.33479 0.0
H70 H 1.00012 0.77296 0.33972 0.0
H71 H 0.06332 0.77289 0.44739 0.0
H72 H 0.05281 0.80535 0.51622 0.0
H73 H 1.00478 0.71729 0.16802 0.0
H74 H 0.05508 0.68007 0.27904 0.0
H75 H 0.98879 0.80506 0.41202 0.0
H76 H 0.99472 0.68429 0.09825 0.0
H77 H 0.04471 0.6468 0.21165 0.0
C78 C 0.74745 0.08839 0.04075 0.0
C79 C 0.72979 0.10179 0.064 0.0
C80 C 0.76008 0.07658 0.09076 0.0
C81 C 0.75573 0.07836 0.16534 0.0
C82 C 0.74019 0.09415 0.1887 0.0
C83 C 0.72719 0.10554 0.13868 0.0
C84 C 0.76464 0.06154 0.21663 0.0
C85 C 0.78551 0.05196 0.20596 0.0
C86 C 0.79209 0.03326 0.24558 0.0
C87 C 0.77779 0.02425 0.29831 0.0
C88 C 0.75727 0.03447 0.31226 0.0
C89 C 0.75091 0.05289 0.27108 0.0
C90 C 0.74109 0.02573 0.36548 0.0
C91 C 0.72931 1.00619 0.35069 0.0
C92 C 0.73389 0.03948 0.42214 0.0
C93 C 0.71455 0.03449 0.46054 0.0
C94 C 0.70179 0.01579 0.44244 0.0
C95 C 0.81337 0.0228 0.22602 0.0
C96 C 0.81372 1.00543 0.17554 0.0
C97 C 0.83331 0.0332 0.24489 0.0
C98 C 0.85314 0.02707 0.21125 0.0
C99 C 0.85339 1.0107 0.15681 0.0
C100 C 0.8335 0.99944 0.14124 0.0
C101 C 0.7098 1.00129 0.38867 0.0
H102 H 0.75048 0.0857 0.98367 0.0
H103 H 0.77198 0.06476 0.07024 0.0
H104 H 0.73695 0.09658 0.24579 0.0
H105 H 0.71393 0.11581 0.15914 0.0
H106 H 0.79646 0.05853 0.16469 0.0
H107 H 0.73446 0.05959 0.27897 0.0
H108 H 0.78257 1.00956 0.32808 0.0
H109 H 0.73431 0.99554 0.30641 0.0
H110 H 0.7425 0.05485 0.43366 0.0
H111 H 0.70884 0.04613 0.50107 0.0
H112 H 0.79842 0.99755 0.15896 0.0
H113 H 0.83335 0.04687 0.28295 0.0
H114 H 0.70049 0.98661 0.37393 0.0
H115 H 0.83287 0.98695 0.09921 0.0
H116 H 0.86813 0.03582 0.22595 0.0
C117 C 0.50152 0.73779 0.49067 0.0
C118 C 0.51334 0.71919 0.46545 0.0
C119 C 0.4975 0.75596 0.44505 0.0
C120 C 0.50526 0.7559 0.37346 0.0
C121 C 0.51827 0.73806 0.34979 0.0
C122 C 0.52233 0.71998 0.39518 0.0
C123 C 0.49539 0.77093 0.31889 0.0
C124 C 0.50122 0.79351 0.31205 0.0
C125 C 0.49137 0.80655 0.25731 0.0
C126 C 0.47576 0.79693 0.21052 0.0
C127 C 0.47051 0.77446 0.21597 0.0
C128 C 0.48019 0.76166 0.27034 0.0
C129 C 0.457 0.76349 0.16022 0.0
C130 C 0.43447 0.76839 0.1517 0.0
C131 C 0.46668 0.74692 0.11773 0.0
C132 C 0.45393 0.7348 0.06919 0.0
C133 C 0.43113 0.73885 0.06248 0.0
C134 C 0.49846 0.82954 0.24145 0.0
C135 C 0.48343 0.84703 0.25002 0.0
C136 C 0.51785 0.83316 0.20144 0.0
C137 C 0.52138 0.85342 0.16612 0.0
C138 C 0.50559 0.87055 0.17038 0.0
C139 C 0.48707 0.86739 0.21564 0.0
C140 C 0.42152 0.75596 0.10352 0.0
H141 H 0.49461 0.73795 0.54473 0.0
H142 H 0.48706 0.76933 0.46409 0.0
H143 H 0.52403 0.73742 0.2943 0.0
H144 H 0.53126 0.70597 0.37319 0.0
H145 H 0.51352 0.80069 0.34764 0.0
H146 H 0.4761 0.74417 0.27412 0.0
H147 H 0.46871 0.80665 0.1669 0.0
H148 H 0.42677 0.78116 0.18427 0.0
H149 H 0.48406 0.74297 0.12351 0.0
H150 H 0.46178 0.72146 0.03958 0.0
H151 H 0.4682 0.84449 0.27983 0.0
H152 H 0.52942 0.81973 0.19266 0.0
H153 H 0.40398 0.75936 0.09953 0.0
H154 H 0.4748 0.8803 0.22195 0.0
H155 H 0.53572 0.85498 0.13143 0.0
C156 C 0.24828 0.61264 0.26815 0.0
C157 C 0.23481 0.60353 0.32281 0.0
C158 C 0.26076 0.5988 0.22311 0.0
C159 C 0.25992 0.57576 0.23237 0.0
C160 C 0.24742 0.5667 0.28875 0.0
C161 C 0.23499 0.58043 0.3336 0.0
C162 C 0.27059 0.56078 0.18046 0.0
C163 C 0.29215 0.55353 0.19218 0.0
C164 C 0.30161 0.53714 0.14791 0.0
C165 C 0.28887 0.52778 0.09124 0.0
C166 C 0.26717 0.53559 0.07828 0.0
C167 C 0.25829 0.55202 0.12334 0.0
C168 C 0.25259 0.5268 0.02039 0.0
C169 C 0.24743 0.54034 0.96096 0.0
C170 C 0.23945 0.50805 0.03383 0.0
C171 C 0.22069 0.50372 0.9914 0.0
C172 C 0.21463 0.51809 0.93466 0.0
C173 C 0.32455 0.53003 0.16521 0.0
C174 C 0.341 0.54628 0.17403 0.0
C175 C 0.32911 0.50825 0.18729 0.0
C176 C 0.34909 0.50327 0.22261 0.0
C177 C 0.36488 0.52 0.23666 0.0
C178 C 0.3608 0.54139 0.20934 0.0
C179 C 0.22877 0.53596 0.91822 0.0
H180 H 0.24856 0.63035 0.25867 0.0
H181 H 0.27042 0.60598 0.17961 0.0
H182 H 0.24658 0.5489 0.29622 0.0
H183 H 0.22449 0.57273 0.37392 0.0
H184 H 0.30136 0.56022 0.2376 0.0
H185 H 0.24142 0.55759 0.11516 0.0
H186 H 0.2958 0.5149 0.0573 0.0
H187 H 0.25697 0.55523 0.95069 0.0
H188 H 0.24276 0.49765 0.08034 0.0
H189 H 0.21036 0.48964 1.00508 0.0
H190 H 0.33788 0.56325 0.15782 0.0
H191 H 0.31665 0.49544 0.18174 0.0
H192 H 0.2246 0.5475 0.87554 0.0
H193 H 0.3722 0.5549 0.21938 0.0
H194 H 0.35174 0.4865 0.24142 0.0
C195 C 0.02249 0.27001 0.39861 0.0
C196 C 0.03319 0.24988 0.4137 0.0
C197 C 0.02475 0.27994 0.33084 0.0
C198 C 0.03812 0.2702 0.27721 0.0
C199 C 0.05061 0.25141 0.295 0.0
C200 C 0.04808 0.24127 0.3622 0.0
C201 C 0.03741 0.27839 0.20151 0.0
C202 C 0.03548 0.301 0.18738 0.0
C203 C 0.03222 0.30887 0.11694 0.0
C204 C 0.03162 0.29375 0.05839 0.0
C205 C 0.03444 0.27079 0.07169 0.0
C206 C 0.03701 0.26346 0.14339 0.0
C207 C 0.03433 0.25354 0.01373 0.0
C208 C 0.01571 0.25004 0.96972 0.0
C209 C 0.05139 0.23774 0.01226 0.0
C210 C 0.04932 0.21823 0.97192 0.0
C211 C 0.03014 0.21388 0.9311 0.0
C212 C 0.02899 0.33311 0.11016 0.0
C213 C 1.0093 0.34215 0.13759 0.0
C214 C 0.04765 0.34687 0.10447 0.0
C215 C 0.04729 0.36843 0.13299 0.0
C216 C 0.02836 0.37654 0.16897 0.0
C217 C 1.00898 0.36356 0.16687 0.0
C218 C 0.01363 0.23042 0.92882 0.0
H219 H 0.01129 0.27737 0.43748 0.0
H220 H 0.01488 0.29446 0.31921 0.0
H221 H 0.06154 0.24385 0.25565 0.0
H222 H 0.05657 0.22574 0.37118 0.0
H223 H 0.03618 0.31273 0.23186 0.0
H224 H 0.03789 0.24581 0.154 0.0
H225 H 0.02916 0.29971 1.00374 0.0
H226 H 1.0022 0.26179 0.9703 0.0
H227 H 0.06588 0.23989 0.04598 0.0
H228 H 0.06233 0.20602 0.97644 0.0
H229 H 0.99483 0.33171 0.14426 0.0
H230 H 0.06316 0.3402 0.08487 0.0
H231 H 0.99878 0.22796 0.89715 0.0
H232 H 0.99406 0.36893 0.19402 0.0
H233 H 0.06238 0.37811 0.13142 0.0
C234 C 0.27614 0.90722 0.18557 0.0
C235 C 0.27935 0.91099 0.25995 0.0
C236 C 0.26129 0.92023 0.14637 0.0
C237 C 0.24924 0.93707 0.181 0.0
C238 C 0.25056 0.93906 0.25658 0.0
C239 C 0.26549 0.92617 0.29569 0.0
C240 C 0.23869 0.95495 0.13831 0.0
C241 C 0.21832 0.96389 0.15911 0.0
C242 C 0.21028 0.98351 0.1275 0.0
C243 C 0.22327 0.99445 0.07467 0.0
C244 C 0.24345 0.98506 0.0516 0.0
C245 C 0.25078 0.96529 0.08322 0.0
C246 C 0.25865 0.9961 0.99979 0.0
C247 C 0.26539 0.98464 0.93736 0.0
C248 C 0.27051 0.01502 0.02113 0.0
C249 C 0.28977 0.02131 0.98397 0.0
C250 C 0.29747 1.00886 0.92453 0.0
C251 C 0.18905 0.99272 0.15519 0.0
C252 C 0.17091 0.97848 0.16624 0.0
C253 C 0.18774 0.01457 0.18102 0.0
C254 C 0.16944 0.02144 0.22207 0.0
C255 C 0.15205 1.00659 0.2381 0.0
C256 C 0.15271 0.98529 0.20718 0.0
C257 C 0.2845 0.99101 0.89988 0.0
H258 H 0.28622 0.89531 0.15674 0.0
H259 H 0.26029 0.91812 0.08825 0.0
H260 H 0.24158 0.95198 0.28476 0.0
H261 H 0.26758 0.92966 0.35276 0.0
H262 H 0.20911 0.956 0.20243 0.0
H263 H 0.26689 0.95882 0.06835 0.0
H264 H 0.2177 1.00995 0.05153 0.0
H265 H 0.25674 0.96975 0.92061 0.0
H266 H 0.26589 0.02389 0.06981 0.0
H267 H 0.29921 0.03532 1.00383 0.0
H268 H 0.17136 0.96158 0.14647 0.0
H269 H 0.20147 0.02591 0.17351 0.0
H270 H 0.28994 0.98093 0.85479 0.0
H271 H 0.13985 0.97325 0.21837 0.0
H272 H 0.16934 0.03813 0.24366 0.0
C273 C 0.48634 0.30387 0.97396 0.0
C274 C 0.50485 0.31671 0.95419 0.0
C275 C 0.4891 0.2837 0.01117 0.0
C276 C 0.51041 0.27604 0.0285 0.0
C277 C 0.5288 0.28803 1.00277 0.0
C278 C 0.52606 0.30817 0.96674 0.0
C279 C 0.51392 0.25851 0.08424 0.0
C280 C 0.50345 0.23751 0.08234 0.0
C281 C 0.50753 0.22201 0.1381 0.0
C282 C 0.5216 0.22768 0.19547 0.0
C283 C 0.53148 0.24858 0.19906 0.0
C284 C 0.52766 0.26375 0.14315 0.0
C285 C 0.54405 0.25553 0.26411 0.0
C286 C 0.53584 0.25087 0.33368 0.0
C287 C 0.56277 0.26917 0.25718 0.0
C288 C 0.57157 0.27988 0.31752 0.0
C289 C 0.5619 0.27705 0.38617 0.0
C290 C 0.49707 0.19987 0.14186 0.0
C291 C 0.479 0.19688 0.18856 0.0
C292 C 0.50926 0.18126 0.12004 0.0
C293 C 0.50468 0.16033 0.14942 0.0
C294 C 0.48798 0.15767 0.20198 0.0
C295 C 0.47446 0.17601 0.21823 0.0
C296 C 0.54477 0.26145 0.39421 0.0
H297 H 0.46979 0.31011 0.96483 0.0
H298 H 0.47463 0.27496 0.03075 0.0
H299 H 0.54544 0.28248 0.01465 0.0
H300 H 0.5406 0.31758 0.95127 0.0
H301 H 0.49245 0.23326 0.03823 0.0
H302 H 0.53465 0.28027 0.1471 0.0
H303 H 0.52453 0.21579 0.2384 0.0
H304 H 0.52147 0.24037 0.34097 0.0
H305 H 0.56978 0.27264 0.20442 0.0
H306 H 0.58471 0.2918 0.30899 0.0
H307 H 0.46976 0.21109 0.20774 0.0
H308 H 0.52358 0.18324 0.08535 0.0
H309 H 0.53723 0.2586 0.44657 0.0
H310 H 0.46158 0.17478 0.25877 0.0
H311 H 0.51515 0.14653 0.13441 0.0
Gd312 Gd 0.02463 1.00222 0.78825 0.0
Gd313 Gd 0.9937 0.01541 0.6603 0.0
C314 C 1.00842 0.96504 0.66931 0.0
C315 C 0.03963 0.98602 0.90702 0.0
C316 C 0.05608 0.96865 0.91961 0.0
C317 C 0.06298 0.96355 0.98988 0.0
C318 C 0.06477 0.95683 0.86074 0.0
C319 C 0.08621 0.93389 0.94271 0.0
C320 C 0.0797 0.93959 0.87216 0.0
C321 C 0.07798 0.9463 1.00142 0.0
C322 C 0.04948 1.0089 0.66692 0.0
C323 C 0.01405 0.05381 0.76735 0.0
C324 C 0.97548 0.03675 0.55668 0.0
C325 C 0.97875 0.06045 0.54121 0.0
C326 C 0.96059 0.07489 0.54308 0.0
C327 C 1.00026 0.06933 0.53978 0.0
C328 C 0.98547 0.10654 0.54995 0.0
C329 C 1.00356 0.09212 0.54398 0.0
C330 C 0.96392 0.09779 0.54734 0.0
C331 C 0.97345 1.00027 0.78126 0.0
O332 O 0.01507 0.96926 0.73648 0.0
O333 O 1.00161 0.98086 0.62513 0.0
O334 O 0.04741 1.00427 0.87809 0.0
O335 O 0.02112 0.97923 0.87715 0.0
O336 O 0.05762 1.00323 0.72895 0.0
O337 O 0.02891 1.01062 0.67416 0.0
O338 O 1.0052 0.04865 0.70401 0.0
O339 O 0.02093 0.0385 0.81324 0.0
O340 O 0.96528 0.03281 0.61782 0.0
O341 O 0.99263 0.02383 0.5464 0.0
O342 O 0.96709 0.99548 0.7159 0.0
O343 O 0.98994 0.01312 0.77905 0.0
H344 H 0.05645 0.9726 0.03581 0.0
H345 H 0.05969 0.96071 0.80598 0.0
H346 H 0.08589 0.93048 0.82588 0.0
H347 H 0.08244 0.94211 0.05647 0.0
H348 H 0.94389 0.0684 0.54545 0.0
H349 H 0.01465 0.05866 0.53931 0.0
H350 H 0.02035 0.09843 0.54405 0.0
H351 H 0.94966 0.10855 0.55179 0.0
Gd352 Gd 0.50445 0.03205 0.73499 0.0
Gd353 Gd 0.49505 0.99622 0.63494 0.0
C354 C 0.54441 0.0125 0.63414 0.0
C355 C 0.52086 0.05841 0.8317 0.0
C356 C 0.54225 0.06964 0.84185 0.0
C357 C 0.54298 0.09098 0.87189 0.0
C358 C 0.56199 0.0594 0.82028 0.0
C359 C 0.58306 0.09159 0.85961 0.0
C360 C 0.58218 0.07029 0.82881 0.0
C361 C 0.56325 0.10185 0.88107 0.0
C362 C 0.48978 0.04643 0.60486 0.0
C363 C 0.45487 0.0159 0.73416 0.0
C364 C 0.47926 0.96931 0.5389 0.0
C365 C 0.45882 0.95647 0.52768 0.0
C366 C 0.46023 0.93391 0.51012 0.0
C367 C 0.43794 0.96645 0.53324 0.0
C368 C 0.42016 0.93168 0.49934 0.0
C369 C 0.41883 0.95421 0.51889 0.0
C370 C 0.4411 0.92159 0.49633 0.0
C371 C 0.50933 0.98204 0.76618 0.0
O372 O 0.53893 0.02293 0.69454 0.0
O373 O 0.52916 1.0029 0.59415 0.0
O374 O 0.50908 0.06531 0.77708 0.0
O375 O 0.52087 0.0368 0.83784 0.0
O376 O 0.48342 0.05439 0.66654 0.0
O377 O 0.50375 0.03118 0.61459 0.0
O378 O 0.46046 1.00522 0.67431 0.0
O379 O 0.47003 0.02569 0.77417 0.0
O380 O 0.49183 0.96288 0.59224 0.0
O381 O 0.47783 0.9909 0.53387 0.0
O382 O 0.51602 0.97409 0.70489 0.0
O383 O 0.49538 0.99719 0.75526 0.0
H384 H 0.52788 0.09918 0.88853 0.0
H385 H 0.56188 0.04287 0.79762 0.0
H386 H 0.59717 0.06173 0.81317 0.0
H387 H 0.56344 0.11826 0.90492 0.0
H388 H 0.47619 0.92586 0.50617 0.0
H389 H 0.43635 0.98381 0.5472 0.0
H390 H 0.40307 0.96269 0.5206 0.0
H391 H 0.44274 0.90423 0.48248 0.0
Gd392 Gd 0.48926 0.52728 0.78259 0.0
Gd393 Gd 0.52263 0.51432 0.67714 0.0
C394 C 0.51008 0.56507 0.68268 0.0
C395 C 0.46335 0.53738 0.88836 0.0
C396 C 0.44678 0.55482 0.90053 0.0
C397 C 0.43203 0.56122 0.84566 0.0
C398 C 0.44696 0.56648 0.96596 0.0
C399 C 0.41928 0.5921 0.91949 0.0
C400 C 0.43344 0.58497 0.97533 0.0
C401 C 0.4183 0.57961 0.85527 0.0
C402 C 0.47327 0.5248 0.64578 0.0
C403 C 0.50208 0.47546 0.77638 0.0
C404 C 0.54782 0.49616 0.58124 0.0
C405 C 0.5521 0.47293 0.56284 0.0
C406 C 0.57387 0.46612 0.54929 0.0
C407 C 0.53534 0.45697 0.56993 0.0
C408 C 0.56235 0.42755 0.55493 0.0
C409 C 0.54042 0.43447 0.56588 0.0
C410 C 0.57896 0.44359 0.54513 0.0
C411 C 0.53994 0.53152 0.80097 0.0
O412 O 0.50311 0.56067 0.74907 0.0
O413 O 0.51531 0.54878 0.63813 0.0
O414 O 0.45847 0.5223 0.83992 0.0
O415 O 0.48389 0.54427 0.8843 0.0
O416 O 0.46842 0.5403 0.69129 0.0
O417 O 0.48621 0.511 0.67461 0.0
O418 O 0.51452 0.48031 0.72002 0.0
O419 O 0.49146 0.49107 0.81222 0.0
O420 O 0.55457 0.50169 0.64577 0.0
O421 O 0.52819 0.50405 0.56594 0.0
O422 O 0.54639 0.53665 0.73633 0.0
O423 O 0.52416 0.51785 0.79723 0.0
H424 H 0.43162 0.55248 0.79445 0.0
H425 H 0.45829 0.56187 1.00874 0.0
H426 H 0.43507 0.59434 0.02501 0.0
H427 H 0.40743 0.58442 0.8115 0.0
H428 H 0.58706 0.47823 0.54486 0.0
H429 H 0.51844 0.46186 0.58108 0.0
H430 H 0.52719 0.42248 0.57205 0.0
H431 H 0.59601 0.43872 0.53672 0.0
Gd432 Gd 1.01048 0.5004 0.71543 0.0
Gd433 Gd 0.02046 0.53502 0.61298 0.0
C434 C 0.97101 0.51999 0.61704 0.0
C435 C 0.99339 0.4745 0.81227 0.0
C436 C 0.9707 0.46754 0.82912 0.0
C437 C 0.9666 0.44637 0.85738 0.0
C438 C 0.95289 0.48156 0.81355 0.0
C439 C 0.92698 0.45348 0.85511 0.0
C440 C 0.93127 0.47455 0.82571 0.0
C441 C 0.94488 0.43939 0.87059 0.0
C442 C 0.02462 0.48468 0.58572 0.0
C443 C 0.0605 0.51511 0.71401 0.0
C444 C 0.03554 0.56129 0.51388 0.0
C445 C 0.05348 0.57756 0.50823 0.0
C446 C 0.05278 0.5938 0.45422 0.0
C447 C 0.07151 0.57682 0.5557 0.0
C448 C 0.08932 0.60688 0.48979 0.0
C449 C 0.08934 0.59126 0.54638 0.0
C450 C 0.07051 0.60843 0.44521 0.0
C451 C 1.00726 0.55104 0.74348 0.0
O452 O 0.97645 0.51268 0.68185 0.0
O453 O 0.98665 0.52615 0.57175 0.0
O454 O 1.00107 0.46742 0.75051 0.0
O455 O 0.99813 0.49534 0.82422 0.0
O456 O 0.03117 0.47732 0.64792 0.0
O457 O 1.01095 0.50024 0.59461 0.0
O458 O 0.05508 0.52637 0.65497 0.0
O459 O 0.04521 0.50505 0.75273 0.0
O460 O 0.01942 0.56661 0.55746 0.0
O461 O 0.04152 0.54053 0.52 0.0
O462 O 1.00087 0.55874 0.68171 0.0
O463 O 0.02049 0.53518 0.73355 0.0
H464 H 0.98018 0.43527 0.8693 0.0
H465 H 0.95567 0.49797 0.79196 0.0
H466 H 0.9179 0.48569 0.81188 0.0
H467 H 0.94215 0.42317 0.89401 0.0
H468 H 0.03877 0.59482 0.41789 0.0
H469 H 0.07212 0.56462 0.5985 0.0
H470 H 0.1036 0.58935 0.5812 0.0
H471 H 0.0698 0.62048 0.40188 0.0
H472 H 0.15682 0.03077 0.36285 0.0
H473 H 0.1079 0.99467 0.23946 0.0
H474 H 0.13051 0.03502 0.46113 0.0
H475 H 0.08191 0.9979 0.33999 0.0
H476 H 0.03546 0.01748 0.52737 0.0
H477 H 0.05865 0.02086 0.4186 0.0
H478 H 0.1168 1.00947 0.54903 0.0
H479 H 0.09386 1.0066 0.65624 0.0
C480 C 0.14034 0.02407 0.35585 0.0
C481 C 0.13469 1.01214 0.29304 0.0
C482 C 0.12529 0.02622 0.41296 0.0
C483 C 0.10419 0.01639 0.40937 0.0
C484 C 0.098 1.00568 0.34486 0.0
C485 C 0.11304 1.00361 0.28741 0.0
C486 C 0.05319 0.01594 0.53247 0.0
C487 C 0.06282 1.01184 0.60029 0.0
C488 C 0.0665 0.01776 0.47025 0.0
C489 C 0.08968 0.01562 0.47491 0.0
C490 C 0.09913 1.01171 0.5432 0.0
C491 C 0.08591 1.00987 0.60482 0.0
H492 H 0.45088 0.13667 0.25601 0.0
H493 H 0.52218 0.13222 0.25226 0.0
H494 H 0.4495 0.10673 0.34479 0.0
H495 H 0.52074 0.10231 0.33998 0.0
H496 H 0.46132 0.08025 0.57866 0.0
H497 H 0.45941 0.10385 0.47201 0.0
H498 H 0.50984 0.06428 0.36856 0.0
H499 H 0.51189 0.04072 0.47634 0.0
C500 C 0.46625 0.12919 0.27337 0.0
C501 C 0.48664 0.13706 0.24689 0.0
C502 C 0.46546 0.11201 0.32436 0.0
C503 C 0.48502 0.10217 0.35012 0.0
C504 C 0.50531 0.10925 0.32085 0.0
C505 C 0.50612 0.12645 0.27012 0.0
C506 C 0.4718 0.0764 0.53277 0.0
C507 C 0.48688 0.05875 0.53613 0.0
C508 C 0.4706 0.08986 0.4713 0.0
C509 C 0.48453 0.08608 0.41157 0.0
C510 C 0.49905 0.06784 0.41387 0.0
C511 C 0.50014 0.05426 0.4754 0.0
H512 H 0.40658 0.53861 0.2295 0.0
H513 H 0.36745 0.49281 0.35633 0.0
H514 H 0.4353 0.53787 0.32199 0.0
H515 H 0.39683 0.49133 0.44661 0.0
H516 H 0.46376 0.48601 0.57362 0.0
H517 H 0.43985 0.4817 0.46662 0.0
H518 H 0.43209 0.5527 0.45582 0.0
H519 H 0.45525 0.55691 0.56316 0.0
C520 C 0.40412 0.52816 0.27642 0.0
C521 C 0.38431 0.51611 0.28553 0.0
C522 C 0.42072 0.52764 0.32918 0.0
C523 C 0.41824 0.51467 0.39175 0.0
C524 C 0.39926 0.50136 0.39867 0.0
C525 C 0.38244 0.50217 0.3465 0.0
C526 C 0.45713 0.50065 0.54764 0.0
C527 C 0.46127 0.52179 0.57666 0.0
C528 C 0.44341 0.49818 0.48677 0.0
C529 C 0.43415 0.51688 0.45283 0.0
C530 C 0.43913 0.53802 0.48035 0.0
C531 C 0.45232 0.54042 0.54195 0.0
H532 H 0.06367 0.39087 0.2502 0.0
H533 H 0.99588 0.40747 0.20019 0.0
H534 H 0.06446 0.41964 0.34152 0.0
H535 H 0.99625 0.43534 0.29562 0.0
H536 H 1.00648 0.49303 0.45207 0.0
H537 H 1.00895 0.46994 0.34318 0.0
H538 H 0.05037 0.4237 0.45904 0.0
H539 H 0.04844 0.44702 0.56592 0.0
C540 C 0.04898 0.40085 0.2575 0.0
C541 C 0.02964 0.39652 0.21737 0.0
C542 C 0.04933 0.41719 0.31127 0.0
C543 C 0.03029 0.42963 0.32754 0.0
C544 C 0.01128 0.42618 0.28493 0.0
C545 C 1.01099 0.40993 0.23051 0.0
C546 C 0.01632 0.47806 0.45368 0.0
C547 C 0.02724 0.47184 0.51765 0.0
C548 C 0.01762 0.46471 0.39144 0.0
C549 C 0.02987 0.44484 0.39178 0.0
C550 C 0.04111 0.43901 0.4557 0.0
C551 C 0.03988 0.45234 0.5175 0.0
H552 H 0.86891 0.9715 0.09867 0.0
H553 H 0.88371 0.04152 0.11078 0.0
H554 H 0.89983 0.96648 0.01508 0.0
H555 H 0.91467 0.03636 0.02888 0.0
H556 H 0.97831 0.0191 0.91503 0.0
H557 H 0.95135 0.0195 0.01382 0.0
H558 H 0.90808 0.97716 0.88916 0.0
H559 H 0.93509 0.97666 0.79092 0.0
C560 C 0.87877 0.98581 0.08402 0.0
C561 C 0.87365 1.00693 0.11181 0.0
C562 C 0.89654 0.9829 0.03614 0.0
C563 C 0.90977 1.00101 0.01517 0.0
C564 C 0.90511 0.02196 0.04472 0.0
C565 C 0.88729 0.0249 0.09208 0.0
C566 C 0.96318 1.0096 0.9093 0.0
C567 C 0.95872 0.998 0.84499 0.0
C568 C 0.94767 1.00994 0.96569 0.0
C569 C 0.92743 0.99853 0.95924 0.0
C570 C 0.92353 0.986 0.89628 0.0
C571 C 0.93898 0.98578 0.83978 0.0
H572 H 0.54302 0.89319 0.12588 0.0
H573 H 0.47186 0.89296 0.10313 0.0
H574 H 0.54553 0.92267 0.03568 0.0
H575 H 0.47445 0.92271 0.01518 0.0
H576 H 0.48456 0.98644 0.88963 0.0
H577 H 0.48485 0.96223 0.99602 0.0
H578 H 0.5386 0.92476 0.9029 0.0
H579 H 0.53827 0.9489 0.79693 0.0
C580 C 0.5279 0.89946 0.1023 0.0
C581 C 0.50724 0.89047 0.12215 0.0
C582 C 0.52935 0.91644 0.05068 0.0
C583 C 0.51019 0.92505 0.01808 0.0
C584 C 0.48953 0.91672 0.03994 0.0
C585 C 0.48807 0.89963 0.09087 0.0
C586 C 0.49665 0.97324 0.89252 0.0
C587 C 0.51129 0.96946 0.83474 0.0
C588 C 0.49674 0.9593 0.95322 0.0
C589 C 0.51166 0.94146 0.95783 0.0
C590 C 0.52701 0.93842 0.90148 0.0
C591 C 0.52676 0.95219 0.84055 0.0
H592 H 0.65272 0.55033 0.08915 0.0
H593 H 0.61258 0.49971 0.19044 0.0
H594 H 0.62318 0.55793 1.0049 0.0
H595 H 0.58412 0.50548 0.10074 0.0
H596 H 0.5304 0.52317 0.9436 0.0
H597 H 0.5559 0.52402 0.04613 0.0
H598 H 0.60876 0.54389 0.90183 0.0
H599 H 0.58298 0.54456 0.80199 0.0
C600 C 0.63759 0.54086 0.09427 0.0
C601 C 0.63551 0.52404 0.14669 0.0
C602 C 0.62066 0.54491 0.04432 0.0
C603 C 0.60125 0.53192 0.04365 0.0
C604 C 0.59864 0.51596 0.09862 0.0
C605 C 0.61534 0.51231 0.14978 0.0
C606 C 0.54742 0.52809 0.93452 0.0
C607 C 0.55467 0.53376 0.86475 0.0
C608 C 0.56219 0.52837 0.99319 0.0
C609 C 0.58471 0.53387 0.9832 0.0
C610 C 0.59163 0.54002 0.91315 0.0
C611 C 0.5768 0.54022 0.85516 0.0
H612 H 0.98009 0.64739 0.08911 0.0
H613 H 0.05047 0.63517 0.09055 0.0
H614 H 0.97533 0.61828 0.99846 0.0
H615 H 0.04567 0.60613 1.00087 0.0
H616 H 0.02977 0.54471 0.87066 0.0
H617 H 0.03096 0.5695 0.97554 0.0
H618 H 0.9839 0.61283 0.87159 0.0
H619 H 0.9825 0.58792 0.76784 0.0
C620 C 0.99455 0.63849 0.07045 0.0
C621 C 0.01567 0.64375 0.09755 0.0
C622 C 0.99181 0.62176 0.01841 0.0
C623 C 1.01012 0.6098 0.99207 0.0
C624 C 0.03113 0.61466 0.02061 0.0
C625 C 0.03386 0.63139 0.07239 0.0
C626 C 0.01945 0.55937 0.87084 0.0
C627 C 1.00616 0.56444 0.81078 0.0
C628 C 0.02023 0.57368 0.93069 0.0
C629 C 1.00766 0.59333 0.93201 0.0
C630 C 0.99366 0.59781 0.87304 0.0
C631 C 0.99295 0.58357 0.81324 0.0
H632 H 0.05807 0.22138 0.4964 0.0
H633 H 0.99141 0.24591 0.47013 0.0
H634 H 0.04373 0.18891 0.55754 0.0
H635 H 0.9773 0.21449 0.53701 0.0
H636 H 0.96388 0.14036 0.48284 0.0
H637 H 0.97358 0.1793 0.48395 0.0
H638 H 0.02502 0.16631 0.64091 0.0
H639 H 0.01589 0.12701 0.63661 0.0
C640 C 0.04043 0.22029 0.506 0.0
C641 C 0.02587 0.23572 0.47504 0.0
C642 C 0.03217 0.20175 0.54218 0.0
C643 C 1.00921 0.19862 0.54942 0.0
C644 C 0.99502 0.21599 0.52965 0.0
C645 C 1.00322 0.23427 0.49206 0.0
C646 C 0.97692 0.14589 0.51878 0.0
C647 C 0.98929 0.13062 0.55889 0.0
C648 C 0.9824 0.16833 0.5201 0.0
C649 C 1.00024 0.17604 0.5623 0.0
C650 C 0.01148 0.16093 0.6068 0.0
C651 C 1.00622 0.13841 0.60442 0.0
H652 H 0.32085 0.90844 0.20381 0.0
H653 H 0.28397 0.8961 0.40012 0.0
H654 H 0.35506 0.90525 0.26968 0.0
H655 H 0.31867 0.8927 0.46692 0.0
H656 H 0.37838 0.93436 0.55682 0.0
H657 H 0.34432 0.92082 0.50309 0.0
H658 H 0.38201 0.8865 0.33893 0.0
H659 H 0.416 0.90133 0.38965 0.0
C660 C 0.32 0.90409 0.26059 0.0
C661 C 0.29959 0.90282 0.2968 0.0
C662 C 0.33978 0.90226 0.29869 0.0
C663 C 0.33969 0.89906 0.37402 0.0
C664 C 0.31931 0.89566 0.40917 0.0
C665 C 0.29944 0.89755 0.37091 0.0
C666 C 0.37943 0.92381 0.50951 0.0
C667 C 0.39993 0.91948 0.4765 0.0
C668 C 0.35987 0.91569 0.47933 0.0
C669 C 0.36037 0.90283 0.41583 0.0
C670 C 0.381 0.89674 0.38696 0.0
C671 C 0.40056 0.90508 0.41663 0.0
H672 H 0.6019 0.29536 0.4253 0.0
H673 H 0.53213 0.29666 0.47629 0.0
H674 H 0.60684 0.3303 0.4903 0.0
H675 H 0.53708 0.33104 0.54092 0.0
H676 H 0.54751 0.39511 0.64613 0.0
H677 H 0.55239 0.35514 0.63298 0.0
H678 H 0.59406 0.36626 0.44629 0.0
H679 H 0.5893 0.40603 0.45979 0.0
C680 C 0.58777 0.30271 0.45212 0.0
C681 C 0.56655 0.29348 0.44407 0.0
C682 C 0.5906 0.32269 0.4893 0.0
C683 C 0.57227 0.33368 0.51927 0.0
C684 C 0.5516 0.32302 0.51877 0.0
C685 C 0.54876 0.30315 0.48154 0.0
C686 C 0.55792 0.38895 0.60283 0.0
C687 C 0.56769 0.40362 0.55307 0.0
C688 C 0.56082 0.36611 0.59563 0.0
C689 C 0.57349 0.35751 0.53837 0.0
C690 C 0.58447 0.3723 0.4917 0.0
C691 C 0.58162 0.39513 0.49904 0.0
H692 H 0.20918 0.63678 0.26746 0.0
H693 H 0.22229 0.60096 0.46511 0.0
H694 H 0.17444 0.64991 0.31767 0.0
H695 H 0.18696 0.61289 0.51347 0.0
H696 H 0.11974 0.62574 0.58229 0.0
H697 H 0.15751 0.63677 0.55172 0.0
H698 H 0.14313 0.62605 0.32528 0.0
H699 H 0.10595 0.6151 0.35548 0.0
C700 C 0.20508 0.63232 0.32261 0.0
C701 C 0.21813 0.61717 0.36139 0.0
C702 C 0.185 0.63969 0.35114 0.0
C703 C 0.17749 0.63178 0.4184 0.0
C704 C 0.19204 0.61921 0.4612 0.0
C705 C 0.21223 0.61208 0.43306 0.0
C706 C 0.12458 0.62624 0.52588 0.0
C707 C 0.10995 0.61907 0.47149 0.0
C708 C 0.14618 0.63264 0.50838 0.0
C709 C 0.15352 0.63198 0.43619 0.0
C710 C 0.13812 0.62704 0.38145 0.0
C711 C 0.11663 0.62065 0.39888 0.0
H712 H 0.12184 0.82776 0.19428 0.0
H713 H 0.12829 0.79743 0.9834 0.0
H714 H 0.12334 0.86399 0.13993 0.0
H715 H 0.12987 0.8342 0.92831 0.0
H716 H 0.08192 0.89354 0.87835 0.0
H717 H 0.09917 0.85903 0.91381 0.0
H718 H 0.13855 0.89404 0.07224 0.0
H719 H 0.12085 0.92879 0.03705 0.0
C720 C 0.12461 0.82875 0.13649 0.0
C721 C 0.12447 0.80958 0.0931 0.0
C722 C 0.12546 0.84972 0.10507 0.0
C723 C 0.1262 0.85206 0.02948 0.0
C724 C 0.12872 0.83293 0.98665 0.0
C725 C 0.12785 0.81187 0.01818 0.0
C726 C 0.09474 0.89402 0.91922 0.0
C727 C 0.09978 0.91383 0.9557 0.0
C728 C 0.10478 0.87418 0.93939 0.0
C729 C 0.12014 0.87367 0.99644 0.0
C730 C 0.1265 0.8938 0.02894 0.0
C731 C 0.11633 0.91368 1.00899 0.0
H732 H 0.71454 0.07823 0.94804 0.0
H733 H 0.70373 0.13945 0.06477 0.0
H734 H 0.68037 0.08347 0.88374 0.0
H735 H 0.66871 0.14432 1.00074 0.0
H736 H 0.61878 0.09399 0.7691 0.0
H737 H 0.65658 0.10414 0.80175 0.0
H738 H 0.63426 0.12255 0.01559 0.0
H739 H 0.59656 0.11257 0.98279 0.0
C740 C 0.70538 0.09331 0.95825 0.0
C741 C 0.71192 0.10826 0.01273 0.0
C742 C 0.68559 0.09628 0.92113 0.0
C743 C 0.67166 0.11417 0.93773 0.0
C744 C 0.67897 0.13017 0.98764 0.0
C745 C 0.69899 0.12732 0.02447 0.0
C746 C 0.62192 0.10064 0.82258 0.0
C747 C 0.60482 0.10208 0.87388 0.0
C748 C 0.64353 0.1065 0.84118 0.0
C749 C 0.64846 0.11384 0.91155 0.0
C750 C 0.63101 0.11714 0.96072 0.0
C751 C 0.60938 0.11134 0.94202 0.0
H752 H 0.39217 0.71895 0.10094 0.0
H753 H 0.43973 0.72308 0.92727 0.0
H754 H 0.3773 0.6849 0.04898 0.0
H755 H 0.42608 0.6886 0.87791 0.0
H756 H 0.40032 0.61091 0.03972 0.0
H757 H 0.39304 0.6499 0.05776 0.0
H758 H 0.40321 0.66176 0.82935 0.0
H759 H 0.41252 0.62302 0.8127 0.0
C760 C 0.39895 0.71299 0.05029 0.0
C761 C 0.41756 0.72324 0.01928 0.0
C762 C 0.39063 0.69329 0.02095 0.0
C763 C 0.40099 0.6834 0.96078 0.0
C764 C 0.41761 0.69543 0.92444 0.0
C765 C 0.4257 0.71519 0.95321 0.0
C766 C 0.4008 0.62178 0.99313 0.0
C767 C 0.40796 0.61393 0.92549 0.0
C768 C 0.39618 0.64423 1.00316 0.0
C769 C 0.39823 0.65929 0.94536 0.0
C770 C 0.40224 0.65081 0.87564 0.0
C771 C 0.40731 0.62842 0.86591 0.0
H772 H 0.78824 0.45645 0.94038 0.0
H773 H 0.81053 0.39706 0.04956 0.0
H774 H 0.82243 0.45791 0.87359 0.0
H775 H 0.84569 0.39966 0.9851 0.0
H776 H 0.90729 0.41251 0.8384 0.0
H777 H 0.86903 0.40225 0.86827 0.0
H778 H 0.85674 0.4693 0.93945 0.0
H779 H 0.89455 0.47934 0.91195 0.0
C780 C 0.79996 0.44317 0.9487 0.0
C781 C 0.79671 0.427 1.00265 0.0
C782 C 0.8198 0.44424 0.91068 0.0
C783 C 0.83696 0.42941 0.92622 0.0
C784 C 0.8328 0.41152 0.97284 0.0
C785 C 0.81273 0.41022 0.01041 0.0
C786 C 0.89637 0.42499 0.86066 0.0
C787 C 0.90391 0.44682 0.87205 0.0
C788 C 0.87451 0.41914 0.87722 0.0
C789 C 0.85984 0.43509 0.9046 0.0
C790 C 0.86747 0.4568 0.91622 0.0
C791 C 0.88919 0.46256 0.90046 0.0
H792 H 0.06153 0.18676 0.86836 0.0
H793 H 0.99152 0.18979 0.91472 0.0
H794 H 0.05724 0.14859 0.82752 0.0
H795 H 0.98725 0.15184 0.87077 0.0
H796 H 0.98831 0.08853 0.72227 0.0
H797 H 0.99123 0.12763 0.75718 0.0
H798 H 0.04755 0.11224 0.89107 0.0
H799 H 0.04411 0.07307 0.85854 0.0
C800 C 0.04519 0.17942 0.86982 0.0
C801 C 0.02695 0.19154 0.89621 0.0
C802 C 0.04275 0.15748 0.84608 0.0
C803 C 0.02196 0.14703 0.84672 0.0
C804 C 1.0035 0.1594 0.8694 0.0
C805 C 1.00597 0.18129 0.89424 0.0
C806 C 1.00128 0.09349 0.75932 0.0
C807 C 0.01598 0.07764 0.78767 0.0
C808 C 1.0029 0.11588 0.77947 0.0
C809 C 0.01976 0.12313 0.8263 0.0
C810 C 0.03455 0.10729 0.85413 0.0
C811 C 0.03251 0.08481 0.83579 0.0
H812 H 0.31031 1.00822 0.78149 0.0
H813 H 0.33582 0.01757 0.9974 0.0
H814 H 0.34776 1.01124 0.73272 0.0
H815 H 0.37314 0.02014 0.94933 0.0
H816 H 0.4366 0.04119 0.84135 0.0
H817 H 0.39847 0.04163 0.88311 0.0
H818 H 0.38169 0.99156 0.72498 0.0
H819 H 0.4198 0.99174 0.68149 0.0
C820 C 0.3239 1.01098 0.81855 0.0
C821 C 0.31997 0.01277 0.89339 0.0
C822 C 0.34543 0.01259 0.79064 0.0
C823 C 0.36366 0.01588 0.83687 0.0
C824 C 0.35961 0.01803 0.91161 0.0
C825 C 0.33811 0.01658 0.93937 0.0
C826 C 0.42479 0.03031 0.81525 0.0
C827 C 0.43137 0.01636 0.75819 0.0
C828 C 0.40286 0.03047 0.83955 0.0
C829 C 0.38684 0.01652 0.80801 0.0
C830 C 0.39339 1.00277 0.75016 0.0
C831 C 0.41534 1.00275 0.72542 0.0
H832 H 0.52191 0.35395 0.01443 0.0
H833 H 0.48256 0.33166 0.83393 0.0
H834 H 0.5195 0.39211 0.97076 0.0
H835 H 0.48053 0.37004 0.78892 0.0
H836 H 0.51106 0.43777 0.69889 0.0
H837 H 0.50982 0.39929 0.74066 0.0
H838 H 0.48864 0.4215 0.9515 0.0
H839 H 0.48955 0.45996 0.90958 0.0
C840 C 0.51273 0.35727 0.96531 0.0
C841 C 0.50246 0.33986 0.92746 0.0
C842 C 0.51126 0.37912 0.94051 0.0
C843 C 0.49983 0.38409 0.87644 0.0
C844 C 0.48952 0.36668 0.83835 0.0
C845 C 0.49059 0.34478 0.86416 0.0
C846 C 0.50604 0.43446 0.75403 0.0
C847 C 0.5005 0.452 0.80091 0.0
C848 C 0.50518 0.41239 0.77776 0.0
C849 C 0.49914 0.40736 0.84937 0.0
C850 C 0.49344 0.42487 0.89609 0.0
C851 C 0.4939 0.44689 0.87197 0.0
H852 H 0.20456 0.52339 0.78999 0.0
H853 H 0.17466 0.50848 0.99647 0.0
H854 H 0.16815 0.52178 0.73261 0.0
H855 H 0.13846 0.50732 0.94007 0.0
H856 H 0.07791 0.48764 0.81618 0.0
H857 H 0.11523 0.48693 0.86403 0.0
H858 H 0.13362 0.54045 0.72069 0.0
H859 H 0.0962 0.54053 0.67062 0.0
C860 C 0.19024 0.51976 0.82318 0.0
C861 C 0.19267 0.51584 0.89787 0.0
C862 C 0.16929 0.51894 0.79031 0.0
C863 C 0.15016 0.51434 0.83131 0.0
C864 C 0.15271 0.5104 0.90598 0.0
C865 C 0.17359 0.51105 0.93859 0.0
C866 C 0.08988 0.49925 0.79447 0.0
C867 C 0.08387 0.51429 0.73979 0.0
C868 C 0.11137 0.49894 0.82242 0.0
C869 C 0.12759 0.51384 0.79731 0.0
C870 C 0.12174 0.52857 0.74125 0.0
C871 C 0.10019 0.52872 0.71266 0.0
H872 H 0.99567 0.84316 0.41492 0.0
H873 H 0.03315 0.82381 0.6035 0.0
H874 H 0.99068 0.87984 0.46599 0.0
H875 H 0.02993 0.86104 0.65136 0.0
H876 H 1.00934 0.92663 0.7488 0.0
H877 H 1.00928 0.88857 0.70465 0.0
H878 H 1.00909 0.91279 0.48442 0.0
H879 H 1.00789 0.95065 0.52897 0.0
C880 C 1.00274 0.84656 0.46755 0.0
C881 C 0.015 0.83026 0.5044 0.0
C882 C 1.00025 0.86792 0.49641 0.0
C883 C 1.01021 0.87386 0.56261 0.0
C884 C 0.02182 0.85733 0.60059 0.0
C885 C 0.024 0.83588 0.57232 0.0
C886 C 1.00918 0.92379 0.69099 0.0
C887 C 1.00855 0.94174 0.64256 0.0
C888 C 1.00929 0.90188 0.66537 0.0
C889 C 1.00917 0.89727 0.59052 0.0
C890 C 1.00865 0.91537 0.54231 0.0
C891 C 1.00815 0.93723 0.56796 0.0
H892 H 0.68874 0.02105 0.58412 0.0
H893 H 0.66364 1.00448 0.37234 0.0
H894 H 0.65128 0.01915 0.63329 0.0
H895 H 0.62627 1.00309 0.42058 0.0
H896 H 0.56295 0.98466 0.53479 0.0
H897 H 0.60108 0.98358 0.49303 0.0
H898 H 0.61711 0.03834 0.63463 0.0
H899 H 0.57902 0.03886 0.678 0.0
C900 C 0.67523 0.01696 0.54807 0.0
C901 C 0.67927 0.01279 0.47432 0.0
C902 C 0.65368 0.016 0.57615 0.0
C903 C 0.63555 1.01103 0.53111 0.0
C904 C 0.63972 1.00655 0.45753 0.0
C905 C 0.66124 1.00734 0.42968 0.0
C906 C 0.57461 0.99645 0.55719 0.0
C907 C 0.56786 1.01185 0.60987 0.0
C908 C 0.59654 0.99592 0.5329 0.0
C909 C 0.61236 1.01095 0.55992 0.0
C910 C 0.6056 0.02625 0.61319 0.0
C911 C 0.58367 0.02663 0.638 0.0
H912 H 0.48118 0.70044 0.55118 0.0
H913 H 0.54812 0.68999 0.47697 0.0
H914 H 0.48151 0.66419 0.60934 0.0
H915 H 0.54829 0.65361 0.5344 0.0
H916 H 0.52827 0.58008 0.55638 0.0
H917 H 0.53018 0.61798 0.51177 0.0
H918 H 0.49778 0.64115 0.7058 0.0
H919 H 0.49569 0.60302 0.75049 0.0
C920 C 0.49616 0.69067 0.54845 0.0
C921 C 0.51459 0.69823 0.50875 0.0
C922 C 0.4963 0.66978 0.58173 0.0
C923 C 0.51483 0.65582 0.57598 0.0
C924 C 0.53356 0.66372 0.53875 0.0
C925 C 0.53347 0.68463 0.50579 0.0
C926 C 0.52161 0.59322 0.58985 0.0
C927 C 0.51181 0.58842 0.65711 0.0
C928 C 0.52286 0.61503 0.56441 0.0
C929 C 0.51422 0.63271 0.60521 0.0
C930 C 0.50448 0.62795 0.67269 0.0
C931 C 0.50338 0.60608 0.69849 0.0
H932 H 0.82924 0.49624 0.57773 0.0
H933 H 0.84435 0.53741 0.39294 0.0
H934 H 0.86739 0.49883 0.61713 0.0
H935 H 0.88216 0.54145 0.43545 0.0
H936 H 0.95411 0.52258 0.47985 0.0
H937 H 0.91545 0.52228 0.44308 0.0
H938 H 0.89558 0.51975 0.66775 0.0
H939 H 0.93426 0.51912 0.70382 0.0
C940 C 0.8406 0.50607 0.5457 0.0
C941 C 0.83351 0.51637 0.4814 0.0
C942 C 0.86258 0.50783 0.56903 0.0
C943 C 0.87821 0.52023 0.52946 0.0
C944 C 0.87089 0.53133 0.46683 0.0
C945 C 0.84894 0.52935 0.44302 0.0
C946 C 0.94147 0.52201 0.52137 0.0
C947 C 0.94735 0.52069 0.5948 0.0
C948 C 0.91918 0.522 0.50032 0.0
C949 C 0.90208 0.52098 0.55218 0.0
C950 C 0.90808 0.52008 0.62582 0.0
C951 C 0.93037 0.51981 0.64673 0.0
loop_
_geom_bond_atom_site_label_1
_geom_bond_atom_site_label_2
_geom_bond_distance
_geom_bond_site_symmetry_2
_ccdc_geom_bond_type
C0 C1 1.386 . S
C0 C2 1.397 . S
C0 H24 0.931 . S
C1 C0 1.386 . S
C1 C5 1.397 . S
C2 C0 1.397 . S
C2 C3 1.384 . S
C2 H25 0.930 . S
C3 C2 1.384 . S
C3 C4 1.377 . S
C3 C6 1.481 . S
C4 C3 1.377 . S
C4 C5 1.389 . S
C4 H26 0.929 . S
C5 C1 1.397 . S
C5 C4 1.389 . S
C5 H27 0.931 . S
C6 C3 1.481 . S
C6 C7 1.387 . S
C6 C11 1.390 . S
C7 C6 1.387 . S
C7 C8 1.401 . S
C7 H28 0.930 . S
C8 C7 1.401 . S
C8 C9 1.376 . S
C8 C17 1.511 . S
C9 C8 1.376 . S
C9 C10 1.392 . S
C9 H30 0.931 . S
C10 C9 1.392 . S
C10 C11 1.361 . S
C10 C12 1.500 . S
C11 C6 1.390 . S
C11 C10 1.361 . S
C11 H29 0.931 . S
C12 C10 1.500 . S
C12 C13 1.371 . S
C12 C14 1.365 . S
C13 C12 1.371 . S
C13 C23 1.386 . S
C13 H31 0.931 . S
C14 C12 1.365 . S
C14 C15 1.409 . S
C14 H32 0.929 . S
C15 C14 1.409 . S
C15 C16 1.380 . S
C15 H33 0.930 . S
C16 C15 1.380 . S
C16 C23 1.357 . S
C17 C8 1.511 . S
C17 C18 1.341 . S
C17 C19 1.371 . S
C18 C17 1.341 . S
C18 C22 1.394 . S
C18 H34 0.930 . S
C19 C17 1.371 . S
C19 C20 1.392 . S
C19 H35 0.931 . S
C20 C19 1.392 . S
C20 C21 1.331 . S
C20 H38 0.932 . S
C21 C20 1.331 . S
C21 C22 1.336 . S
C22 C18 1.394 . S
C22 C21 1.336 . S
C22 H37 0.929 . S
C23 C13 1.386 . S
C23 C16 1.357 . S
C23 H36 0.928 . S
H24 C0 0.931 . S
H25 C2 0.930 . S
H26 C4 0.929 . S
H27 C5 0.931 . S
H28 C7 0.930 . S
H29 C11 0.931 . S
H30 C9 0.931 . S
H31 C13 0.931 . S
H32 C14 0.929 . S
H33 C15 0.930 . S
H34 C18 0.930 . S
H35 C19 0.931 . S
H36 C23 0.928 . S
H37 C22 0.929 . S
H38 C20 0.932 . S
C39 C40 1.386 . S
C39 C41 1.397 . S
C39 H63 0.931 . S
C40 C39 1.386 . S
C40 C44 1.397 1_655 S
C41 C39 1.397 . S
C41 C42 1.384 . S
C41 H64 0.930 . S
C42 C41 1.384 . S
C42 C43 1.377 1_655 S
C42 C45 1.481 . S
C43 C42 1.377 1_455 S
C43 C44 1.389 . S
C43 H65 0.929 . S
C44 C40 1.397 1_455 S
C44 C43 1.389 . S
C44 H66 0.931 . S
C45 C42 1.481 . S
C45 C46 1.387 . S
C45 C50 1.390 . S
C46 C45 1.387 . S
C46 C47 1.401 . S
C46 H67 0.930 . S
C47 C46 1.401 . S
C47 C48 1.376 . S
C47 C56 1.511 . S
C48 C47 1.376 . S
C48 C49 1.392 . S
C48 H69 0.931 . S
C49 C48 1.392 . S
C49 C50 1.361 . S
C49 C51 1.500 . S
C50 C45 1.390 . S
C50 C49 1.361 . S
C50 H68 0.931 . S
C51 C49 1.500 . S
C51 C52 1.371 . S
C51 C53 1.365 1_655 S
C52 C51 1.371 . S
C52 C62 1.386 . S
C52 H70 0.931 . S
C53 C51 1.365 1_455 S
C53 C54 1.409 . S
C53 H71 0.929 . S
C54 C53 1.409 . S
C54 C55 1.380 1_455 S
C54 H72 0.930 . S
C55 C54 1.380 1_655 S
C55 C62 1.357 . S
C56 C47 1.511 . S
C56 C57 1.341 . S
C56 C58 1.371 1_655 S
C57 C56 1.341 . S
C57 C61 1.394 . S
C57 H73 0.930 . S
C58 C56 1.371 1_455 S
C58 C59 1.392 . S
C58 H74 0.931 . S
C59 C58 1.392 . S
C59 C60 1.331 1_455 S
C59 H77 0.932 . S
C60 C59 1.331 1_655 S
C60 C61 1.336 . S
C61 C57 1.394 . S
C61 C60 1.336 . S
C61 H76 0.929 . S
C62 C52 1.386 . S
C62 C55 1.357 . S
C62 H75 0.928 . S
H63 C39 0.931 . S
H64 C41 0.930 . S
H65 C43 0.929 . S
H66 C44 0.931 . S
H67 C46 0.930 . S
H68 C50 0.931 . S
H69 C48 0.931 . S
H70 C52 0.931 . S
H71 C53 0.929 . S
H72 C54 0.930 . S
H73 C57 0.930 . S
H74 C58 0.931 . S
H75 C62 0.928 . S
H76 C61 0.929 . S
H77 C59 0.932 . S
C78 C79 1.386 . S
C78 C80 1.397 . S
C78 H102 0.931 . S
C79 C78 1.386 . S
C79 C83 1.397 1_565 S
C80 C78 1.397 . S
C80 C81 1.384 . S
C80 H103 0.930 . S
C81 C80 1.384 . S
C81 C82 1.377 1_565 S
C81 C84 1.481 . S
C82 C81 1.377 1_545 S
C82 C83 1.389 . S
C82 H104 0.929 . S
C83 C79 1.397 1_545 S
C83 C82 1.389 . S
C83 H105 0.931 . S
C84 C81 1.481 . S
C84 C85 1.387 . S
C84 C89 1.390 . S
C85 C84 1.387 . S
C85 C86 1.401 . S
C85 H106 0.930 . S
C86 C85 1.401 . S
C86 C87 1.376 . S
C86 C95 1.511 . S
C87 C86 1.376 . S
C87 C88 1.392 . S
C87 H108 0.931 . S
C88 C87 1.392 . S
C88 C89 1.361 . S
C88 C90 1.500 . S
C89 C84 1.390 . S
C89 C88 1.361 . S
C89 H107 0.931 . S
C90 C88 1.500 . S
C90 C91 1.371 . S
C90 C92 1.365 1_565 S
C91 C90 1.371 . S
C91 C101 1.386 . S
C91 H109 0.931 . S
C92 C90 1.365 1_545 S
C92 C93 1.409 . S
C92 H110 0.929 . S
C93 C92 1.409 . S
C93 C94 1.380 1_545 S
C93 H111 0.930 . S
C94 C93 1.380 1_565 S
C94 C101 1.357 . S
C95 C86 1.511 . S
C95 C96 1.341 . S
C95 C97 1.371 1_565 S
C96 C95 1.341 . S
C96 C100 1.394 . S
C96 H112 0.930 . S
C97 C95 1.371 1_545 S
C97 C98 1.392 . S
C97 H113 0.931 . S
C98 C97 1.392 . S
C98 C99 1.331 1_545 S
C98 H116 0.932 . S
C99 C98 1.331 1_565 S
C99 C100 1.336 . S
C100 C96 1.394 . S
C100 C99 1.336 . S
C100 H115 0.929 . S
C101 C91 1.386 . S
C101 C94 1.357 . S
C101 H114 0.928 . S
H102 C78 0.931 . S
H103 C80 0.930 . S
H104 C82 0.929 . S
H105 C83 0.931 . S
H106 C85 0.930 . S
H107 C89 0.931 . S
H108 C87 0.931 . S
H109 C91 0.931 . S
H110 C92 0.929 . S
H111 C93 0.930 . S
H112 C96 0.930 . S
H113 C97 0.931 . S
H114 C101 0.928 . S
H115 C100 0.929 . S
H116 C98 0.932 . S
C117 C118 1.386 . S
C117 C119 1.397 . S
C117 H141 0.931 . S
C118 C117 1.386 . S
C118 C122 1.397 . S
C119 C117 1.397 . S
C119 C120 1.384 . S
C119 H142 0.930 . S
C120 C119 1.384 . S
C120 C121 1.377 . S
C120 C123 1.481 . S
C121 C120 1.377 . S
C121 C122 1.389 . S
C121 H143 0.929 . S
C122 C118 1.397 . S
C122 C121 1.389 . S
C122 H144 0.931 . S
C123 C120 1.481 . S
C123 C124 1.387 . S
C123 C128 1.390 . S
C124 C123 1.387 . S
C124 C125 1.401 . S
C124 H145 0.930 . S
C125 C124 1.401 . S
C125 C126 1.376 . S
C125 C134 1.511 . S
C126 C125 1.376 . S
C126 C127 1.392 . S
C126 H147 0.931 . S
C127 C126 1.392 . S
C127 C128 1.361 . S
C127 C129 1.500 . S
C128 C123 1.390 . S
C128 C127 1.361 . S
C128 H146 0.931 . S
C129 C127 1.500 . S
C129 C130 1.371 . S
C129 C131 1.365 . S
C130 C129 1.371 . S
C130 C140 1.386 . S
C130 H148 0.931 . S
C131 C129 1.365 . S
C131 C132 1.409 . S
C131 H149 0.929 . S
C132 C131 1.409 . S
C132 C133 1.380 . S
C132 H150 0.930 . S
C133 C132 1.380 . S
C133 C140 1.357 . S
C134 C125 1.511 . S
C134 C135 1.341 . S
C134 C136 1.371 . S
C135 C134 1.341 . S
C135 C139 1.394 . S
C135 H151 0.930 . S
C136 C134 1.371 . S
C136 C137 1.392 . S
C136 H152 0.931 . S
C137 C136 1.392 . S
C137 C138 1.331 . S
C137 H155 0.932 . S
C138 C137 1.331 . S
C138 C139 1.336 . S
C139 C135 1.394 . S
C139 C138 1.336 . S
C139 H154 0.929 . S
C140 C130 1.386 . S
C140 C133 1.357 . S
C140 H153 0.928 . S
H141 C117 0.931 . S
H142 C119 0.930 . S
H143 C121 0.929 . S
H144 C122 0.931 . S
H145 C124 0.930 . S
H146 C128 0.931 . S
H147 C126 0.931 . S
H148 C130 0.931 . S
H149 C131 0.929 . S
H150 C132 0.930 . S
H151 C135 0.930 . S
H152 C136 0.931 . S
H153 C140 0.928 . S
H154 C139 0.929 . S
H155 C137 0.932 . S
C156 C157 1.386 . S
C156 C158 1.397 . S
C156 H180 0.931 . S
C157 C156 1.386 . S
C157 C161 1.397 . S
C158 C156 1.397 . S
C158 C159 1.384 . S
C158 H181 0.930 . S
C159 C158 1.384 . S
C159 C160 1.377 . S
C159 C162 1.481 . S
C160 C159 1.377 . S
C160 C161 1.389 . S
C160 H182 0.929 . S
C161 C157 1.397 . S
C161 C160 1.389 . S
C161 H183 0.931 . S
C162 C159 1.481 . S
C162 C163 1.387 . S
C162 C167 1.390 . S
C163 C162 1.387 . S
C163 C164 1.401 . S
C163 H184 0.930 . S
C164 C163 1.401 . S
C164 C165 1.376 1_554 S
C164 C173 1.511 . S
C165 C164 1.376 1_556 S
C165 C166 1.392 . S
C165 H186 0.931 . S
C166 C165 1.392 . S
C166 C167 1.361 1_556 S
C166 C168 1.500 . S
C167 C162 1.390 . S
C167 C166 1.361 1_554 S
C167 H185 0.931 . S
C168 C166 1.500 . S
C168 C169 1.371 . S
C168 C170 1.365 . S
C169 C168 1.371 . S
C169 C179 1.386 . S
C169 H187 0.931 . S
C170 C168 1.365 . S
C170 C171 1.409 . S
C170 H188 0.929 . S
C171 C170 1.409 . S
C171 C172 1.380 . S
C171 H189 0.930 . S
C172 C171 1.380 . S
C172 C179 1.357 . S
C173 C164 1.511 . S
C173 C174 1.341 . S
C173 C175 1.371 . S
C174 C173 1.341 . S
C174 C178 1.394 . S
C174 H190 0.930 . S
C175 C173 1.371 . S
C175 C176 1.392 . S
C175 H191 0.931 1_554 S
C176 C175 1.392 . S
C176 C177 1.331 . S
C176 H194 0.932 . S
C177 C176 1.331 . S
C177 C178 1.336 . S
C178 C174 1.394 . S
C178 C177 1.336 . S
C178 H193 0.929 . S
C179 C169 1.386 . S
C179 C172 1.357 . S
C179 H192 0.928 . S
H180 C156 0.931 . S
H181 C158 0.930 . S
H182 C160 0.929 . S
H183 C161 0.931 . S
H184 C163 0.930 . S
H185 C167 0.931 . S
H186 C165 0.931 . S
H187 C169 0.931 . S
H188 C170 0.929 . S
H189 C171 0.930 . S
H190 C174 0.930 . S
H191 C175 0.931 1_556 S
H192 C179 0.928 . S
H193 C178 0.929 . S
H194 C176 0.932 . S
C195 C196 1.386 1_655 S
C195 C197 1.397 . S
C195 H219 0.931 . S
C196 C195 1.386 1_455 S
C196 C200 1.397 . S
C197 C195 1.397 . S
C197 C198 1.384 1_655 S
C197 H220 0.930 . S
C198 C197 1.384 1_455 S
C198 C199 1.377 . S
C198 C201 1.481 . S
C199 C198 1.377 . S
C199 C200 1.389 . S
C199 H221 0.929 . S
C200 C196 1.397 . S
C200 C199 1.389 . S
C200 H222 0.931 . S
C201 C198 1.481 . S
C201 C202 1.387 . S
C201 C206 1.390 . S
C202 C201 1.387 . S
C202 C203 1.401 . S
C202 H223 0.934 . S
C203 C202 1.401 . S
C203 C204 1.376 1_554 S
C203 C212 1.511 . S
C204 C203 1.376 1_556 S
C204 C205 1.392 . S
C204 H225 0.931 . S
C205 C204 1.392 . S
C205 C206 1.361 1_556 S
C205 C207 1.500 . S
C206 C201 1.390 . S
C206 C205 1.361 1_554 S
C206 H224 0.931 . S
C207 C205 1.500 . S
C207 C208 1.371 1_455 S
C207 C209 1.365 . S
C208 C207 1.371 1_655 S
C208 C218 1.386 . S
C208 H226 0.931 . S
C209 C207 1.365 . S
C209 C210 1.409 . S
C209 H227 0.929 . S
C210 C209 1.409 . S
C210 C211 1.380 . S
C210 H228 0.930 . S
C211 C210 1.380 . S
C211 C218 1.357 1_455 S
C212 C203 1.511 . S
C212 C213 1.341 1_455 S
C212 C214 1.371 . S
C213 C212 1.341 1_655 S
C213 C217 1.394 . S
C213 H229 0.930 . S
C214 C212 1.371 . S
C214 C215 1.392 . S
C214 H230 0.931 1_554 S
C215 C214 1.392 . S
C215 C216 1.331 . S
C215 H233 0.943 . S
C216 C215 1.331 . S
C216 C217 1.336 1_455 S
C217 C213 1.394 . S
C217 C216 1.336 1_655 S
C217 H232 0.929 . S
C218 C208 1.386 . S
C218 C211 1.357 1_655 S
C218 H231 0.928 . S
H219 C195 0.931 . S
H220 C197 0.930 . S
H221 C199 0.929 . S
H222 C200 0.931 . S
H223 C202 0.934 . S
H224 C206 0.931 . S
H225 C204 0.931 . S
H226 C208 0.931 . S
H227 C209 0.929 . S
H228 C210 0.930 . S
H229 C213 0.930 . S
H230 C214 0.931 1_556 S
H231 C218 0.928 . S
H232 C217 0.929 . S
H233 C215 0.943 . S
C234 C235 1.386 1_565 S
C234 C236 1.397 . S
C234 H258 0.931 . S
C235 C234 1.386 1_545 S
C235 C239 1.397 . S
C236 C234 1.397 . S
C236 C237 1.384 1_565 S
C236 H259 0.930 . S
C237 C236 1.384 1_545 S
C237 C238 1.377 . S
C237 C240 1.481 . S
C238 C237 1.377 . S
C238 C239 1.389 . S
C238 H260 0.929 . S
C239 C235 1.397 . S
C239 C238 1.389 . S
C239 H261 0.931 . S
C240 C237 1.481 . S
C240 C241 1.387 . S
C240 C245 1.390 . S
C241 C240 1.387 . S
C241 C242 1.401 . S
C241 H262 0.930 . S
C242 C241 1.401 . S
C242 C243 1.376 1_554 S
C242 C251 1.511 . S
C243 C242 1.376 1_556 S
C243 C244 1.392 . S
C243 H264 0.931 . S
C244 C243 1.392 . S
C244 C245 1.361 1_556 S
C244 C246 1.500 . S
C245 C240 1.390 . S
C245 C244 1.361 1_554 S
C245 H263 0.931 . S
C246 C244 1.500 . S
C246 C247 1.371 1_545 S
C246 C248 1.365 . S
C247 C246 1.371 1_565 S
C247 C257 1.386 . S
C247 H265 0.931 . S
C248 C246 1.365 . S
C248 C249 1.409 . S
C248 H266 0.929 . S
C249 C248 1.409 . S
C249 C250 1.380 . S
C249 H267 0.930 . S
C250 C249 1.380 . S
C250 C257 1.357 1_545 S
C251 C242 1.511 . S
C251 C252 1.350 . S
C251 C253 1.371 . S
C252 C251 1.350 . S
C252 C256 1.395 . S
C252 H268 0.921 1_545 S
C253 C251 1.371 . S
C253 C254 1.392 . S
C253 H269 0.931 1_554 S
C254 C253 1.392 . S
C254 C255 1.331 . S
C254 H272 0.932 . S
C255 C254 1.331 . S
C255 C256 1.336 . S
C256 C252 1.395 . S
C256 C255 1.336 . S
C256 H271 0.929 1_545 S
C257 C247 1.386 . S
C257 C250 1.357 1_565 S
C257 H270 0.928 . S
H258 C234 0.931 . S
H259 C236 0.930 . S
H260 C238 0.929 . S
H261 C239 0.931 . S
H262 C241 0.930 . S
H263 C245 0.931 . S
H264 C243 0.931 . S
H265 C247 0.931 . S
H266 C248 0.929 . S
H267 C249 0.930 . S
H268 C252 0.921 1_565 S
H269 C253 0.931 1_556 S
H270 C257 0.928 . S
H271 C256 0.929 1_565 S
H272 C254 0.932 . S
C273 C274 1.386 . S
C273 C275 1.397 . S
C273 H297 0.931 . S
C274 C273 1.386 . S
C274 C278 1.397 . S
C275 C273 1.397 . S
C275 C276 1.384 . S
C275 H298 0.930 . S
C276 C275 1.384 . S
C276 C277 1.377 . S
C276 C279 1.481 . S
C277 C276 1.377 . S
C277 C278 1.389 . S
C277 H299 0.929 . S
C278 C274 1.397 . S
C278 C277 1.389 . S
C278 H300 0.931 . S
C279 C276 1.481 . S
C279 C280 1.387 . S
C279 C284 1.390 1_556 S
C280 C279 1.387 . S
C280 C281 1.401 1_556 S
C280 H301 0.930 . S
C281 C280 1.401 1_554 S
C281 C282 1.376 . S
C281 C290 1.511 . S
C282 C281 1.376 . S
C282 C283 1.392 . S
C282 H303 0.931 . S
C283 C282 1.392 . S
C283 C284 1.361 . S
C283 C285 1.500 . S
C284 C279 1.390 1_554 S
C284 C283 1.361 . S
C284 H302 0.931 . S
C285 C283 1.500 . S
C285 C286 1.371 . S
C285 C287 1.365 . S
C286 C285 1.371 . S
C286 C296 1.386 . S
C286 H304 0.931 . S
C287 C285 1.365 . S
C287 C288 1.409 . S
C287 H305 0.929 . S
C288 C287 1.409 . S
C288 C289 1.380 . S
C288 H306 0.930 . S
C289 C288 1.380 . S
C289 C296 1.357 . S
C290 C281 1.511 . S
C290 C291 1.341 . S
C290 C292 1.371 . S
C291 C290 1.341 . S
C291 C295 1.394 . S
C291 H307 0.930 1_554 S
C292 C290 1.371 . S
C292 C293 1.392 . S
C292 H308 0.931 . S
C293 C292 1.392 . S
C293 C294 1.331 . S
C293 H311 0.932 . S
C294 C293 1.331 . S
C294 C295 1.336 . S
C295 C291 1.394 . S
C295 C294 1.336 . S
C295 H310 0.938 . S
C296 C286 1.386 . S
C296 C289 1.357 . S
C296 H309 0.928 . S
H297 C273 0.931 . S
H298 C275 0.930 . S
H299 C277 0.929 . S
H300 C278 0.931 . S
H301 C280 0.930 . S
H302 C284 0.931 . S
H303 C282 0.931 . S
H304 C286 0.931 . S
H305 C287 0.929 . S
H306 C288 0.930 . S
H307 C291 0.930 1_556 S
H308 C292 0.931 . S
H309 C296 0.928 . S
H310 C295 0.938 . S
H311 C293 0.932 . S
Gd312 C315 2.818 . S
Gd312 O332 2.377 . S
Gd312 O334 2.448 . S
Gd312 O335 2.506 . S
Gd312 O336 2.435 . S
Gd312 O337 2.717 1_565 S
Gd312 O339 2.395 1_565 S
Gd312 O343 2.327 1_455 S
Gd313 C324 2.818 . S
Gd313 O333 2.395 1_545 S
Gd313 O337 2.327 1_655 S
Gd313 O338 2.377 . S
Gd313 O340 2.448 . S
Gd313 O341 2.506 . S
Gd313 O342 2.435 . S
Gd313 O343 2.717 1_545 S
C314 O332 1.240 1_655 S
C314 O333 1.240 . S
C315 Gd312 2.818 . S
C315 C316 1.510 . S
C315 O334 1.249 . S
C315 O335 1.252 . S
C316 C315 1.510 . S
C316 C317 1.404 . S
C316 C318 1.352 . S
C317 C316 1.404 . S
C317 C321 1.389 . S
C317 H344 0.930 . S
C318 C316 1.352 . S
C318 C320 1.374 . S
C318 H345 0.931 1_455 S
C319 C320 1.359 . S
C319 C321 1.364 . S
C320 C318 1.374 . S
C320 C319 1.359 . S
C320 H346 0.931 1_455 S
C321 C317 1.389 . S
C321 C319 1.364 . S
C321 H347 0.931 . S
C322 O336 1.256 1_545 S
C322 O337 1.257 . S
C323 O338 1.240 1_455 S
C323 O339 1.240 . S
C324 Gd313 2.818 . S
C324 C325 1.510 . S
C324 O340 1.249 . S
C324 O341 1.252 . S
C325 C324 1.510 . S
C325 C326 1.404 . S
C325 C327 1.352 . S
C326 C325 1.404 . S
C326 C330 1.389 . S
C326 H348 0.930 . S
C327 C325 1.352 . S
C327 C329 1.374 . S
C327 H349 0.931 1_655 S
C328 C329 1.359 . S
C328 C330 1.364 . S
C329 C327 1.374 . S
C329 C328 1.359 . S
C329 H350 0.931 1_655 S
C330 C326 1.389 . S
C330 C328 1.364 . S
C330 H351 0.931 . S
C331 O342 1.256 . S
C331 O343 1.257 1_545 S
O332 Gd312 2.377 . S
O332 C314 1.240 1_455 S
O333 Gd313 2.395 1_565 S
O333 C314 1.240 . S
O334 Gd312 2.448 . S
O334 C315 1.249 . S
O335 Gd312 2.506 . S
O335 C315 1.252 . S
O336 Gd312 2.435 . S
O336 C322 1.256 1_565 S
O337 Gd312 2.717 1_545 S
O337 Gd313 2.327 1_455 S
O337 C322 1.257 . S
O338 Gd313 2.377 . S
O338 C323 1.240 1_655 S
O339 Gd312 2.395 1_545 S
O339 C323 1.240 . S
O340 Gd313 2.448 . S
O340 C324 1.249 . S
O341 Gd313 2.506 . S
O341 C324 1.252 . S
O342 Gd313 2.435 . S
O342 C331 1.256 . S
O343 Gd312 2.327 1_655 S
O343 Gd313 2.717 1_565 S
O343 C331 1.257 1_565 S
H344 C317 0.930 . S
H345 C318 0.931 1_655 S
H346 C320 0.931 1_655 S
H347 C321 0.931 . S
H348 C326 0.930 . S
H349 C327 0.931 1_455 S
H350 C329 0.931 1_455 S
H351 C330 0.931 . S
Gd352 C355 2.818 . S
Gd352 O372 2.377 . S
Gd352 O374 2.448 . S
Gd352 O375 2.506 . S
Gd352 O376 2.435 . S
Gd352 O377 2.717 . S
Gd352 O379 2.395 . S
Gd352 O383 2.327 1_545 S
Gd353 C364 2.818 . S
Gd353 O373 2.395 . S
Gd353 O377 2.327 1_565 S
Gd353 O378 2.377 . S
Gd353 O380 2.448 . S
Gd353 O381 2.504 . S
Gd353 O382 2.435 . S
Gd353 O383 2.717 . S
C354 O372 1.240 1_565 S
C354 O373 1.240 . S
C355 Gd352 2.818 . S
C355 C356 1.510 . S
C355 O374 1.249 . S
C355 O375 1.252 . S
C356 C355 1.510 . S
C356 C357 1.404 . S
C356 C358 1.352 . S
C357 C356 1.404 . S
C357 C361 1.389 . S
C357 H384 0.930 . S
C358 C356 1.352 . S
C358 C360 1.374 . S
C358 H385 0.931 1_545 S
C359 C360 1.359 . S
C359 C361 1.364 . S
C360 C358 1.374 . S
C360 C359 1.359 . S
C360 H386 0.931 1_545 S
C361 C357 1.389 . S
C361 C359 1.364 . S
C361 H387 0.931 . S
C362 O376 1.256 . S
C362 O377 1.257 . S
C363 O378 1.240 1_545 S
C363 O379 1.240 . S
C364 Gd353 2.818 . S
C364 C365 1.510 . S
C364 O380 1.249 . S
C364 O381 1.247 . S
C365 C364 1.510 . S
C365 C366 1.404 . S
C365 C367 1.352 . S
C366 C365 1.404 . S
C366 C370 1.389 . S
C366 H388 0.930 . S
C367 C365 1.352 . S
C367 C369 1.374 . S
C367 H389 0.931 1_565 S
C368 C369 1.359 . S
C368 C370 1.364 . S
C369 C367 1.374 . S
C369 C368 1.359 . S
C369 H390 0.931 1_565 S
C370 C366 1.389 . S
C370 C368 1.364 . S
C370 H391 0.931 . S
C371 O382 1.256 . S
C371 O383 1.257 . S
O372 Gd352 2.377 . S
O372 C354 1.240 1_545 S
O373 Gd353 2.395 . S
O373 C354 1.240 . S
O374 Gd352 2.448 . S
O374 C355 1.249 . S
O375 Gd352 2.506 . S
O375 C355 1.252 . S
O376 Gd352 2.435 . S
O376 C362 1.256 . S
O377 Gd352 2.717 . S
O377 Gd353 2.327 1_545 S
O377 C362 1.257 . S
O378 Gd353 2.377 . S
O378 C363 1.240 1_565 S
O379 Gd352 2.395 . S
O379 C363 1.240 . S
O380 Gd353 2.448 . S
O380 C364 1.249 . S
O381 Gd353 2.504 . S
O381 C364 1.247 . S
O382 Gd353 2.435 . S
O382 C371 1.256 . S
O383 Gd352 2.327 1_565 S
O383 Gd353 2.717 . S
O383 C371 1.257 . S
H384 C357 0.930 . S
H385 C358 0.931 1_565 S
H386 C360 0.931 1_565 S
H387 C361 0.931 . S
H388 C366 0.930 . S
H389 C367 0.931 1_545 S
H390 C369 0.931 1_545 S
H391 C370 0.931 . S
Gd392 C395 2.818 . S
Gd392 O412 2.377 . S
Gd392 O414 2.448 . S
Gd392 O415 2.506 . S
Gd392 O416 2.435 . S
Gd392 O417 2.717 . S
Gd392 O419 2.395 . S
Gd392 O423 2.327 . S
Gd393 C404 2.818 . S
Gd393 O413 2.395 . S
Gd393 O417 2.327 . S
Gd393 O418 2.377 . S
Gd393 O420 2.448 . S
Gd393 O421 2.506 . S
Gd393 O422 2.435 . S
Gd393 O423 2.717 . S
C394 O412 1.240 . S
C394 O413 1.240 . S
C395 Gd392 2.818 . S
C395 C396 1.510 . S
C395 O414 1.249 . S
C395 O415 1.252 . S
C396 C395 1.510 . S
C396 C397 1.404 . S
C396 C398 1.352 . S
C397 C396 1.404 . S
C397 C401 1.389 . S
C397 H424 0.930 . S
C398 C396 1.352 . S
C398 C400 1.374 . S
C398 H425 0.931 . S
C399 C400 1.359 . S
C399 C401 1.364 . S
C400 C398 1.374 . S
C400 C399 1.359 . S
C400 H426 0.931 . S
C401 C397 1.389 . S
C401 C399 1.364 . S
C401 H427 0.931 . S
C402 O416 1.256 . S
C402 O417 1.257 . S
C403 O418 1.240 . S
C403 O419 1.240 . S
C404 Gd393 2.818 . S
C404 C405 1.510 . S
C404 O420 1.249 . S
C404 O421 1.252 . S
C405 C404 1.510 . S
C405 C406 1.404 . S
C405 C407 1.352 . S
C406 C405 1.404 . S
C406 C410 1.389 . S
C406 H428 0.930 . S
C407 C405 1.352 . S
C407 C409 1.374 . S
C407 H429 0.931 . S
C408 C409 1.359 . S
C408 C410 1.364 . S
C409 C407 1.374 . S
C409 C408 1.359 . S
C409 H430 0.931 . S
C410 C406 1.389 . S
C410 C408 1.364 . S
C410 H431 0.931 . S
C411 O422 1.256 . S
C411 O423 1.257 . S
O412 Gd392 2.377 . S
O412 C394 1.240 . S
O413 Gd393 2.395 . S
O413 C394 1.240 . S
O414 Gd392 2.448 . S
O414 C395 1.249 . S
O415 Gd392 2.506 . S
O415 C395 1.252 . S
O416 Gd392 2.435 . S
O416 C402 1.256 . S
O417 Gd392 2.717 . S
O417 Gd393 2.327 . S
O417 C402 1.257 . S
O418 Gd393 2.377 . S
O418 C403 1.240 . S
O419 Gd392 2.395 . S
O419 C403 1.240 . S
O420 Gd393 2.448 . S
O420 C404 1.249 . S
O421 Gd393 2.506 . S
O421 C404 1.252 . S
O422 Gd393 2.435 . S
O422 C411 1.256 . S
O423 Gd392 2.327 . S
O423 Gd393 2.717 . S
O423 C411 1.257 . S
H424 C397 0.930 . S
H425 C398 0.931 . S
H426 C400 0.931 . S
H427 C401 0.931 . S
H428 C406 0.930 . S
H429 C407 0.931 . S
H430 C409 0.931 . S
H431 C410 0.931 . S
Gd432 C435 2.818 . S
Gd432 O452 2.377 . S
Gd432 O454 2.448 . S
Gd432 O455 2.506 . S
Gd432 O456 2.435 . S
Gd432 O457 2.717 1_655 S
Gd432 O459 2.395 1_655 S
Gd432 O463 2.327 . S
Gd433 C444 2.818 . S
Gd433 O453 2.395 1_455 S
Gd433 O457 2.327 . S
Gd433 O458 2.377 . S
Gd433 O460 2.448 . S
Gd433 O461 2.506 . S
Gd433 O462 2.435 . S
Gd433 O463 2.717 1_455 S
C434 O452 1.240 . S
C434 O453 1.240 . S
C435 Gd432 2.818 . S
C435 C436 1.510 . S
C435 O454 1.249 . S
C435 O455 1.252 . S
C436 C435 1.510 . S
C436 C437 1.404 . S
C436 C438 1.352 . S
C437 C436 1.404 . S
C437 C441 1.389 . S
C437 H464 0.930 . S
C438 C436 1.352 . S
C438 C440 1.374 . S
C438 H465 0.931 . S
C439 C440 1.359 . S
C439 C441 1.364 . S
C440 C438 1.374 . S
C440 C439 1.359 . S
C440 H466 0.931 . S
C441 C437 1.389 . S
C441 C439 1.364 . S
C441 H467 0.931 . S
C442 O456 1.279 . S
C442 O457 1.246 1_655 S
C443 O458 1.240 . S
C443 O459 1.240 . S
C444 Gd433 2.818 . S
C444 C445 1.510 . S
C444 O460 1.249 . S
C444 O461 1.252 . S
C445 C444 1.510 . S
C445 C446 1.404 . S
C445 C447 1.352 . S
C446 C445 1.404 . S
C446 C450 1.389 . S
C446 H468 0.930 . S
C447 C445 1.352 . S
C447 C449 1.374 . S
C447 H469 0.931 . S
C448 C449 1.359 . S
C448 C450 1.364 . S
C449 C447 1.374 . S
C449 C448 1.359 . S
C449 H470 0.931 . S
C450 C446 1.389 . S
C450 C448 1.364 . S
C450 H471 0.931 . S
C451 O462 1.256 . S
C451 O463 1.257 1_455 S
O452 Gd432 2.377 . S
O452 C434 1.240 . S
O453 Gd433 2.395 1_655 S
O453 C434 1.240 . S
O454 Gd432 2.448 . S
O454 C435 1.249 . S
O455 Gd432 2.506 . S
O455 C435 1.252 . S
O456 Gd432 2.435 . S
O456 C442 1.279 . S
O457 Gd432 2.717 1_455 S
O457 Gd433 2.327 . S
O457 C442 1.246 1_455 S
O458 Gd433 2.377 . S
O458 C443 1.240 . S
O459 Gd432 2.395 1_455 S
O459 C443 1.240 . S
O460 Gd433 2.448 . S
O460 C444 1.249 . S
O461 Gd433 2.506 . S
O461 C444 1.252 . S
O462 Gd433 2.435 . S
O462 C451 1.256 . S
O463 Gd432 2.327 . S
O463 Gd433 2.717 1_655 S
O463 C451 1.257 1_655 S
H464 C437 0.930 . S
H465 C438 0.931 . S
H466 C440 0.931 . S
H467 C441 0.931 . S
H468 C446 0.930 . S
H469 C447 0.931 . S
H470 C449 0.931 . S
H471 C450 0.931 . S
H472 C480 0.950 . S
H473 C485 0.950 . S
H474 C482 0.950 . S
H475 C484 0.950 . S
H476 C486 0.950 . S
H477 C488 0.950 . S
H478 C490 0.950 . S
H479 C491 0.950 . S
C480 H472 0.950 . S
C480 C481 1.386 . S
C480 C482 1.391 . S
C481 C480 1.386 . S
C481 C485 1.393 . S
C482 H474 0.950 . S
C482 C480 1.391 . S
C482 C483 1.400 . S
C483 C482 1.400 . S
C483 C484 1.398 . S
C483 C489 1.491 . S
C484 H475 0.950 . S
C484 C483 1.398 . S
C484 C485 1.391 . S
C485 H473 0.950 . S
C485 C481 1.393 . S
C485 C484 1.391 . S
C486 H476 0.950 . S
C486 C487 1.386 . S
C486 C488 1.391 . S
C487 C486 1.386 . S
C487 C491 1.393 . S
C488 H477 0.950 . S
C488 C486 1.391 . S
C488 C489 1.400 . S
C489 C483 1.491 . S
C489 C488 1.400 . S
C489 C490 1.398 . S
C490 H478 0.950 . S
C490 C489 1.398 . S
C490 C491 1.391 . S
C491 H479 0.950 . S
C491 C487 1.393 . S
C491 C490 1.391 . S
H492 C500 0.950 . S
H493 C505 0.950 . S
H494 C502 0.950 . S
H495 C504 0.950 . S
H496 C506 0.950 . S
H497 C508 0.950 . S
H498 C510 0.950 . S
H499 C511 0.950 . S
C500 H492 0.950 . S
C500 C501 1.386 . S
C500 C502 1.391 . S
C501 C500 1.386 . S
C501 C505 1.393 . S
C502 H494 0.950 . S
C502 C500 1.391 . S
C502 C503 1.400 . S
C503 C502 1.400 . S
C503 C504 1.398 . S
C503 C509 1.491 . S
C504 H495 0.950 . S
C504 C503 1.398 . S
C504 C505 1.391 . S
C505 H493 0.950 . S
C505 C501 1.393 . S
C505 C504 1.391 . S
C506 H496 0.950 . S
C506 C507 1.386 . S
C506 C508 1.391 . S
C507 C506 1.386 . S
C507 C511 1.393 . S
C508 H497 0.950 . S
C508 C506 1.391 . S
C508 C509 1.400 . S
C509 C503 1.491 . S
C509 C508 1.400 . S
C509 C510 1.398 . S
C510 H498 0.950 . S
C510 C509 1.398 . S
C510 C511 1.391 . S
C511 H499 0.950 . S
C511 C507 1.393 . S
C511 C510 1.391 . S
H512 C520 0.950 . S
H513 C525 0.950 . S
H514 C522 0.950 . S
H515 C524 0.950 . S
H516 C526 0.950 . S
H517 C528 0.950 . S
H518 C530 0.950 . S
H519 C531 0.950 . S
C520 H512 0.950 . S
C520 C521 1.386 . S
C520 C522 1.391 . S
C521 C520 1.386 . S
C521 C525 1.393 . S
C522 H514 0.950 . S
C522 C520 1.391 . S
C522 C523 1.400 . S
C523 C522 1.400 . S
C523 C524 1.398 . S
C523 C529 1.491 . S
C524 H515 0.950 . S
C524 C523 1.398 . S
C524 C525 1.391 . S
C525 H513 0.950 . S
C525 C521 1.393 . S
C525 C524 1.391 . S
C526 H516 0.950 . S
C526 C527 1.386 . S
C526 C528 1.391 . S
C527 C526 1.386 . S
C527 C531 1.393 . S
C528 H517 0.950 . S
C528 C526 1.391 . S
C528 C529 1.400 . S
C529 C523 1.491 . S
C529 C528 1.400 . S
C529 C530 1.398 . S
C530 H518 0.950 . S
C530 C529 1.398 . S
C530 C531 1.391 . S
C531 H519 0.950 . S
C531 C527 1.393 . S
C531 C530 1.391 . S
H532 C540 0.950 . S
H533 C545 0.950 . S
H534 C542 0.950 . S
H535 C544 0.950 . S
H536 C546 0.950 . S
H537 C548 0.950 . S
H538 C550 0.950 . S
H539 C551 0.950 . S
C540 H532 0.950 . S
C540 C541 1.386 . S
C540 C542 1.391 . S
C541 C540 1.386 . S
C541 C545 1.393 1_455 S
C542 H534 0.950 . S
C542 C540 1.391 . S
C542 C543 1.400 . S
C543 C542 1.400 . S
C543 C544 1.398 1_455 S
C543 C549 1.491 . S
C544 H535 0.950 . S
C544 C543 1.398 1_655 S
C544 C545 1.391 . S
C545 H533 0.950 . S
C545 C541 1.393 1_655 S
C545 C544 1.391 . S
C546 H536 0.950 . S
C546 C547 1.386 1_655 S
C546 C548 1.391 . S
C547 C546 1.386 1_455 S
C547 C551 1.393 . S
C548 H537 0.950 . S
C548 C546 1.391 . S
C548 C549 1.400 1_655 S
C549 C543 1.491 . S
C549 C548 1.400 1_455 S
C549 C550 1.398 . S
C550 H538 0.950 . S
C550 C549 1.398 . S
C550 C551 1.391 . S
C551 H539 0.950 . S
C551 C547 1.393 . S
C551 C550 1.391 . S
H552 C560 0.950 . S
H553 C565 0.950 . S
H554 C562 0.950 . S
H555 C564 0.950 . S
H556 C566 0.950 . S
H557 C568 0.950 . S
H558 C570 0.950 . S
H559 C571 0.950 . S
C560 H552 0.950 . S
C560 C561 1.386 . S
C560 C562 1.391 . S
C561 C560 1.386 . S
C561 C565 1.393 1_565 S
C562 H554 0.950 . S
C562 C560 1.391 . S
C562 C563 1.441 . S
C563 C562 1.441 . S
C563 C564 1.358 1_565 S
C563 C569 1.491 1_554 S
C564 H555 0.950 . S
C564 C563 1.358 1_545 S
C564 C565 1.391 . S
C565 H553 0.950 . S
C565 C561 1.393 1_545 S
C565 C564 1.391 . S
C566 H556 0.950 . S
C566 C567 1.375 1_545 S
C566 C568 1.391 . S
C567 C566 1.375 1_565 S
C567 C571 1.404 . S
C568 H557 0.950 . S
C568 C566 1.391 . S
C568 C569 1.362 1_545 S
C569 C563 1.491 1_556 S
C569 C568 1.362 1_565 S
C569 C570 1.438 . S
C570 H558 0.950 . S
C570 C569 1.438 . S
C570 C571 1.391 . S
C571 H559 0.950 . S
C571 C567 1.404 . S
C571 C570 1.391 . S
H572 C580 0.950 . S
H573 C585 0.950 . S
H574 C582 0.950 . S
H575 C584 0.950 . S
H576 C586 0.950 . S
H577 C588 0.950 1_554 S
H578 C590 0.950 . S
H579 C591 0.950 . S
C580 H572 0.950 . S
C580 C581 1.386 . S
C580 C582 1.391 . S
C581 C580 1.386 . S
C581 C585 1.393 . S
C582 H574 0.950 . S
C582 C580 1.391 . S
C582 C583 1.400 . S
C583 C582 1.400 . S
C583 C584 1.398 . S
C583 C589 1.491 1_554 S
C584 H575 0.950 . S
C584 C583 1.398 . S
C584 C585 1.391 . S
C585 H573 0.950 . S
C585 C581 1.393 . S
C585 C584 1.391 . S
C586 H576 0.950 . S
C586 C587 1.386 . S
C586 C588 1.391 . S
C587 C586 1.386 . S
C587 C591 1.393 . S
C588 H577 0.950 1_556 S
C588 C586 1.391 . S
C588 C589 1.400 . S
C589 C583 1.491 1_556 S
C589 C588 1.400 . S
C589 C590 1.398 . S
C590 H578 0.950 . S
C590 C589 1.398 . S
C590 C591 1.391 . S
C591 H579 0.950 . S
C591 C587 1.393 . S
C591 C590 1.391 . S
H592 C600 0.950 . S
H593 C605 0.950 . S
H594 C602 0.950 . S
H595 C604 0.950 . S
H596 C606 0.950 . S
H597 C608 0.950 1_554 S
H598 C610 0.950 . S
H599 C611 0.950 . S
C600 H592 0.950 . S
C600 C601 1.386 . S
C600 C602 1.391 . S
C601 C600 1.386 . S
C601 C605 1.393 . S
C602 H594 0.950 . S
C602 C600 1.391 . S
C602 C603 1.400 . S
C603 C602 1.400 . S
C603 C604 1.398 . S
C603 C609 1.491 1_554 S
C604 H595 0.950 . S
C604 C603 1.398 . S
C604 C605 1.391 . S
C605 H593 0.950 . S
C605 C601 1.393 . S
C605 C604 1.391 . S
C606 H596 0.950 . S
C606 C607 1.386 . S
C606 C608 1.391 . S
C607 C606 1.386 . S
C607 C611 1.393 . S
C608 H597 0.950 1_556 S
C608 C606 1.391 . S
C608 C609 1.400 . S
C609 C603 1.491 1_556 S
C609 C608 1.400 . S
C609 C610 1.398 . S
C610 H598 0.950 . S
C610 C609 1.398 . S
C610 C611 1.391 . S
C611 H599 0.950 . S
C611 C607 1.393 . S
C611 C610 1.391 . S
H612 C620 0.950 . S
H613 C625 0.950 . S
H614 C622 0.950 . S
H615 C624 0.950 . S
H616 C626 0.950 . S
H617 C628 0.950 . S
H618 C630 0.950 . S
H619 C631 0.950 . S
C620 H612 0.950 . S
C620 C621 1.386 . S
C620 C622 1.391 . S
C621 C620 1.386 . S
C621 C625 1.393 1_655 S
C622 H614 0.950 . S
C622 C620 1.391 . S
C622 C623 1.400 . S
C623 C622 1.400 . S
C623 C624 1.398 1_655 S
C623 C629 1.491 1_554 S
C624 H615 0.950 . S
C624 C623 1.398 1_455 S
C624 C625 1.391 . S
C625 H613 0.950 . S
C625 C621 1.393 1_455 S
C625 C624 1.391 . S
C626 H616 0.950 . S
C626 C627 1.386 1_455 S
C626 C628 1.391 . S
C627 C626 1.386 1_655 S
C627 C631 1.393 . S
C628 H617 0.950 . S
C628 C626 1.391 . S
C628 C629 1.400 1_455 S
C629 C623 1.491 1_556 S
C629 C628 1.400 1_655 S
C629 C630 1.398 . S
C630 H618 0.950 . S
C630 C629 1.398 . S
C630 C631 1.391 . S
C631 H619 0.950 . S
C631 C627 1.393 . S
C631 C630 1.391 . S
H632 C640 0.950 . S
H633 C645 0.950 . S
H634 C642 0.950 . S
H635 C644 0.950 . S
H636 C646 0.950 . S
H637 C648 0.950 . S
H638 C650 0.950 1_455 S
H639 C651 0.950 . S
C640 H632 0.950 . S
C640 C641 1.386 . S
C640 C642 1.391 . S
C641 C640 1.386 . S
C641 C645 1.393 1_455 S
C642 H634 0.950 . S
C642 C640 1.391 . S
C642 C643 1.400 1_455 S
C643 C642 1.400 1_655 S
C643 C644 1.398 . S
C643 C649 1.491 . S
C644 H635 0.950 . S
C644 C643 1.398 . S
C644 C645 1.391 . S
C645 H633 0.950 . S
C645 C641 1.393 1_655 S
C645 C644 1.391 . S
C646 H636 0.950 . S
C646 C647 1.386 . S
C646 C648 1.391 . S
C647 C646 1.386 . S
C647 C651 1.393 . S
C648 H637 0.950 . S
C648 C646 1.391 . S
C648 C649 1.400 . S
C649 C643 1.491 . S
C649 C648 1.400 . S
C649 C650 1.398 . S
C650 H638 0.950 1_655 S
C650 C649 1.398 . S
C650 C651 1.391 . S
C651 H639 0.950 . S
C651 C647 1.393 . S
C651 C650 1.391 . S
H652 C660 0.950 . S
H653 C665 0.950 . S
H654 C662 0.947 1_565 S
H655 C664 0.950 . S
H656 C666 0.950 . S
H657 C668 0.950 . S
H658 C670 0.950 . S
H659 C671 0.950 . S
C660 H652 0.950 . S
C660 C661 1.386 . S
C660 C662 1.402 . S
C661 C660 1.386 . S
C661 C665 1.393 . S
C662 H654 0.947 1_545 S
C662 C660 1.402 . S
C662 C663 1.393 1_545 S
C663 C662 1.393 1_565 S
C663 C664 1.398 . S
C663 C669 1.491 . S
C664 H655 0.950 . S
C664 C663 1.398 . S
C664 C665 1.391 1_565 S
C665 H653 0.950 . S
C665 C661 1.393 . S
C665 C664 1.391 1_545 S
C666 H656 0.950 . S
C666 C667 1.386 . S
C666 C668 1.391 . S
C667 C666 1.386 . S
C667 C671 1.393 . S
C668 H657 0.950 . S
C668 C666 1.391 . S
C668 C669 1.400 . S
C669 C663 1.491 . S
C669 C668 1.400 . S
C669 C670 1.398 . S
C670 H658 0.950 . S
C670 C669 1.398 . S
C670 C671 1.391 . S
C671 H659 0.950 . S
C671 C667 1.393 . S
C671 C670 1.391 . S
H672 C680 0.950 . S
H673 C685 0.950 . S
H674 C682 0.950 . S
H675 C684 0.950 . S
H676 C686 0.950 . S
H677 C688 0.950 . S
H678 C690 0.950 . S
H679 C691 0.950 . S
C680 H672 0.950 . S
C680 C681 1.386 . S
C680 C682 1.391 . S
C681 C680 1.386 . S
C681 C685 1.393 . S
C682 H674 0.950 . S
C682 C680 1.391 . S
C682 C683 1.400 . S
C683 C682 1.400 . S
C683 C684 1.398 . S
C683 C689 1.491 . S
C684 H675 0.950 . S
C684 C683 1.398 . S
C684 C685 1.391 . S
C685 H673 0.950 . S
C685 C681 1.393 . S
C685 C684 1.391 . S
C686 H676 0.950 . S
C686 C687 1.386 . S
C686 C688 1.391 . S
C687 C686 1.386 . S
C687 C691 1.393 . S
C688 H677 0.950 . S
C688 C686 1.391 . S
C688 C689 1.400 . S
C689 C683 1.491 . S
C689 C688 1.400 . S
C689 C690 1.398 . S
C690 H678 0.950 . S
C690 C689 1.398 . S
C690 C691 1.391 . S
C691 H679 0.950 . S
C691 C687 1.393 . S
C691 C690 1.391 . S
H692 C700 0.950 . S
H693 C705 0.950 . S
H694 C702 0.950 . S
H695 C704 0.950 . S
H696 C706 0.950 . S
H697 C708 0.950 . S
H698 C710 0.950 . S
H699 C711 0.950 . S
C700 H692 0.950 . S
C700 C701 1.386 . S
C700 C702 1.391 . S
C701 C700 1.386 . S
C701 C705 1.393 . S
C702 H694 0.950 . S
C702 C700 1.391 . S
C702 C703 1.400 . S
C703 C702 1.400 . S
C703 C704 1.398 . S
C703 C709 1.491 . S
C704 H695 0.950 . S
C704 C703 1.398 . S
C704 C705 1.391 . S
C705 H693 0.950 . S
C705 C701 1.393 . S
C705 C704 1.391 . S
C706 H696 0.950 . S
C706 C707 1.386 . S
C706 C708 1.391 . S
C707 C706 1.386 . S
C707 C711 1.393 . S
C708 H697 0.950 . S
C708 C706 1.391 . S
C708 C709 1.400 . S
C709 C703 1.491 . S
C709 C708 1.400 . S
C709 C710 1.398 . S
C710 H698 0.950 . S
C710 C709 1.398 . S
C710 C711 1.391 . S
C711 H699 0.950 . S
C711 C707 1.393 . S
C711 C710 1.391 . S
H712 C720 0.950 . S
H713 C725 0.950 . S
H714 C722 0.950 . S
H715 C724 0.950 . S
H716 C726 0.950 . S
H717 C728 0.949 1_654 S
H718 C730 0.950 1_554 S
H719 C731 0.950 . S
C720 H712 0.950 . S
C720 C721 1.386 1_455 S
C720 C722 1.391 . S
C721 C720 1.386 1_655 S
C721 C725 1.393 . S
C722 H714 0.950 . S
C722 C720 1.391 . S
C722 C723 1.400 . S
C723 C722 1.400 . S
C723 C724 1.398 1_455 S
C723 C729 1.491 . S
C724 H715 0.950 . S
C724 C723 1.398 1_655 S
C724 C725 1.391 . S
C725 H713 0.950 . S
C725 C721 1.393 . S
C725 C724 1.391 . S
C726 H716 0.950 . S
C726 C727 1.386 . S
C726 C728 1.391 . S
C727 C726 1.386 . S
C727 C731 1.393 . S
C728 H717 0.949 1_456 S
C728 C726 1.391 . S
C728 C729 1.400 1_556 S
C729 C723 1.491 . S
C729 C728 1.400 1_554 S
C729 C730 1.398 1_554 S
C730 H718 0.950 1_556 S
C730 C729 1.398 1_556 S
C730 C731 1.391 . S
C731 H719 0.950 . S
C731 C727 1.393 . S
C731 C730 1.391 . S
H732 C740 0.950 . S
H733 C745 0.950 . S
H734 C742 0.950 . S
H735 C744 0.948 1_566 S
H736 C746 0.950 . S
H737 C748 0.950 . S
H738 C750 0.950 . S
H739 C751 0.950 . S
C740 H732 0.950 . S
C740 C741 1.386 1_545 S
C740 C742 1.391 . S
C741 C740 1.386 1_565 S
C741 C745 1.393 . S
C742 H734 0.950 . S
C742 C740 1.391 . S
C742 C743 1.400 . S
C743 C742 1.400 . S
C743 C744 1.404 . S
C743 C749 1.491 . S
C744 H735 0.948 1_544 S
C744 C743 1.404 . S
C744 C745 1.387 1_545 S
C745 H733 0.950 . S
C745 C741 1.393 . S
C745 C744 1.387 1_565 S
C746 H736 0.950 . S
C746 C747 1.386 . S
C746 C748 1.391 . S
C747 C746 1.386 . S
C747 C751 1.393 1_556 S
C748 H737 0.950 . S
C748 C746 1.391 . S
C748 C749 1.400 1_556 S
C749 C743 1.491 . S
C749 C748 1.400 1_554 S
C749 C750 1.398 . S
C750 H738 0.950 . S
C750 C749 1.398 . S
C750 C751 1.391 . S
C751 H739 0.950 . S
C751 C747 1.393 1_554 S
C751 C750 1.391 . S
H752 C760 0.950 . S
H753 C765 0.950 . S
H754 C762 0.950 . S
H755 C764 0.950 . S
H756 C766 0.950 . S
H757 C768 0.950 . S
H758 C770 0.950 . S
H759 C771 0.950 . S
C760 H752 0.950 . S
C760 C761 1.386 . S
C760 C762 1.391 . S
C761 C760 1.386 . S
C761 C765 1.393 . S
C762 H754 0.950 . S
C762 C760 1.391 . S
C762 C763 1.400 . S
C763 C762 1.400 . S
C763 C764 1.398 . S
C763 C769 1.491 . S
C764 H755 0.950 . S
C764 C763 1.398 . S
C764 C765 1.391 . S
C765 H753 0.950 . S
C765 C761 1.393 . S
C765 C764 1.391 . S
C766 H756 0.950 . S
C766 C767 1.386 . S
C766 C768 1.391 1_556 S
C767 C766 1.386 . S
C767 C771 1.393 . S
C768 H757 0.950 . S
C768 C766 1.391 1_554 S
C768 C769 1.400 . S
C769 C763 1.491 . S
C769 C768 1.400 . S
C769 C770 1.398 1_554 S
C770 H758 0.950 . S
C770 C769 1.398 1_556 S
C770 C771 1.391 . S
C771 H759 0.950 . S
C771 C767 1.393 . S
C771 C770 1.391 . S
H772 C780 0.950 . S
H773 C785 0.950 . S
H774 C782 0.950 . S
H775 C784 0.950 1_556 S
H776 C786 0.950 . S
H777 C788 0.950 . S
H778 C790 0.950 . S
H779 C791 0.950 . S
C780 H772 0.950 . S
C780 C781 1.386 . S
C780 C782 1.391 . S
C781 C780 1.386 . S
C781 C785 1.393 . S
C782 H774 0.950 . S
C782 C780 1.391 . S
C782 C783 1.400 . S
C783 C782 1.400 . S
C783 C784 1.398 . S
C783 C789 1.491 . S
C784 H775 0.950 1_554 S
C784 C783 1.398 . S
C784 C785 1.391 . S
C785 H773 0.950 . S
C785 C781 1.393 . S
C785 C784 1.391 . S
C786 H776 0.950 . S
C786 C787 1.386 . S
C786 C788 1.391 . S
C787 C786 1.386 . S
C787 C791 1.393 1_556 S
C788 H777 0.950 . S
C788 C786 1.391 . S
C788 C789 1.400 1_556 S
C789 C783 1.491 . S
C789 C788 1.400 1_554 S
C789 C790 1.398 . S
C790 H778 0.950 . S
C790 C789 1.398 . S
C790 C791 1.391 . S
C791 H779 0.950 . S
C791 C787 1.393 1_554 S
C791 C790 1.391 . S
H792 C800 0.950 . S
H793 C805 0.950 . S
H794 C802 0.950 . S
H795 C804 0.950 . S
H796 C806 0.950 . S
H797 C808 0.950 . S
H798 C810 0.950 . S
H799 C811 0.950 . S
C800 H792 0.950 . S
C800 C801 1.386 . S
C800 C802 1.391 . S
C801 C800 1.386 . S
C801 C805 1.393 1_455 S
C802 H794 0.950 . S
C802 C800 1.391 . S
C802 C803 1.400 . S
C803 C802 1.400 . S
C803 C804 1.398 1_455 S
C803 C809 1.491 . S
C804 H795 0.950 . S
C804 C803 1.398 1_655 S
C804 C805 1.391 . S
C805 H793 0.950 . S
C805 C801 1.393 1_655 S
C805 C804 1.391 . S
C806 H796 0.950 . S
C806 C807 1.386 1_655 S
C806 C808 1.391 . S
C807 C806 1.386 1_455 S
C807 C811 1.393 . S
C808 H797 0.950 . S
C808 C806 1.391 . S
C808 C809 1.400 1_655 S
C809 C803 1.491 . S
C809 C808 1.400 1_455 S
C809 C810 1.398 . S
C810 H798 0.950 . S
C810 C809 1.398 . S
C810 C811 1.391 . S
C811 H799 0.950 . S
C811 C807 1.393 . S
C811 C810 1.391 . S
H812 C820 0.932 1_565 S
H813 C825 0.950 . S
H814 C822 0.950 1_565 S
H815 C824 0.950 . S
H816 C826 0.950 . S
H817 C828 0.950 . S
H818 C830 0.950 1_565 S
H819 C831 0.950 1_565 S
C820 H812 0.932 1_545 S
C820 C821 1.404 . S
C820 C822 1.393 . S
C821 C820 1.404 . S
C821 C825 1.393 . S
C822 H814 0.950 1_545 S
C822 C820 1.393 . S
C822 C823 1.400 . S
C823 C822 1.400 . S
C823 C824 1.398 . S
C823 C829 1.491 . S
C824 H815 0.950 . S
C824 C823 1.398 . S
C824 C825 1.391 . S
C825 H813 0.950 . S
C825 C821 1.393 . S
C825 C824 1.391 . S
C826 H816 0.950 . S
C826 C827 1.386 . S
C826 C828 1.391 . S
C827 C826 1.386 . S
C827 C831 1.393 . S
C828 H817 0.950 . S
C828 C826 1.391 . S
C828 C829 1.400 . S
C829 C823 1.491 . S
C829 C828 1.400 . S
C829 C830 1.398 . S
C830 H818 0.950 1_545 S
C830 C829 1.398 . S
C830 C831 1.391 . S
C831 H819 0.950 1_545 S
C831 C827 1.393 . S
C831 C830 1.391 . S
H832 C840 0.950 . S
H833 C845 0.950 . S
H834 C842 0.950 . S
H835 C844 0.950 . S
H836 C846 0.950 . S
H837 C848 0.950 . S
H838 C850 0.950 . S
H839 C851 0.950 . S
C840 H832 0.950 . S
C840 C841 1.386 . S
C840 C842 1.391 . S
C841 C840 1.386 . S
C841 C845 1.393 . S
C842 H834 0.950 . S
C842 C840 1.391 . S
C842 C843 1.400 . S
C843 C842 1.400 . S
C843 C844 1.398 . S
C843 C849 1.491 . S
C844 H835 0.950 . S
C844 C843 1.398 . S
C844 C845 1.391 . S
C845 H833 0.950 . S
C845 C841 1.393 . S
C845 C844 1.391 . S
C846 H836 0.950 . S
C846 C847 1.386 . S
C846 C848 1.391 . S
C847 C846 1.386 . S
C847 C851 1.393 . S
C848 H837 0.950 . S
C848 C846 1.391 . S
C848 C849 1.400 . S
C849 C843 1.491 . S
C849 C848 1.400 . S
C849 C850 1.398 . S
C850 H838 0.950 . S
C850 C849 1.398 . S
C850 C851 1.391 . S
C851 H839 0.950 . S
C851 C847 1.393 . S
C851 C850 1.391 . S
H852 C860 0.950 . S
H853 C865 0.950 . S
H854 C862 0.950 . S
H855 C864 0.950 . S
H856 C866 0.950 . S
H857 C868 0.950 . S
H858 C870 0.950 . S
H859 C871 0.950 . S
C860 H852 0.950 . S
C860 C861 1.386 . S
C860 C862 1.391 . S
C861 C860 1.386 . S
C861 C865 1.393 . S
C862 H854 0.950 . S
C862 C860 1.391 . S
C862 C863 1.400 . S
C863 C862 1.400 . S
C863 C864 1.398 . S
C863 C869 1.491 . S
C864 H855 0.950 . S
C864 C863 1.398 . S
C864 C865 1.391 . S
C865 H853 0.950 . S
C865 C861 1.393 . S
C865 C864 1.391 . S
C866 H856 0.950 . S
C866 C867 1.386 . S
C866 C868 1.391 . S
C867 C866 1.386 . S
C867 C871 1.393 . S
C868 H857 0.950 . S
C868 C866 1.391 . S
C868 C869 1.400 . S
C869 C863 1.491 . S
C869 C868 1.400 . S
C869 C870 1.398 . S
C870 H858 0.950 . S
C870 C869 1.398 . S
C870 C871 1.391 . S
C871 H859 0.950 . S
C871 C867 1.393 . S
C871 C870 1.391 . S
H872 C880 0.950 . S
H873 C885 0.950 . S
H874 C882 0.950 . S
H875 C884 0.950 . S
H876 C886 0.950 . S
H877 C888 0.950 . S
H878 C890 0.950 . S
H879 C891 0.950 . S
C880 H872 0.950 . S
C880 C881 1.386 . S
C880 C882 1.391 . S
C881 C880 1.386 . S
C881 C885 1.393 1_655 S
C882 H874 0.950 . S
C882 C880 1.391 . S
C882 C883 1.400 . S
C883 C882 1.400 . S
C883 C884 1.398 1_655 S
C883 C889 1.491 . S
C884 H875 0.950 . S
C884 C883 1.398 1_455 S
C884 C885 1.391 . S
C885 H873 0.950 . S
C885 C881 1.393 1_455 S
C885 C884 1.391 . S
C886 H876 0.950 . S
C886 C887 1.386 1_455 S
C886 C888 1.391 . S
C887 C886 1.386 1_655 S
C887 C891 1.393 . S
C888 H877 0.950 . S
C888 C886 1.391 . S
C888 C889 1.400 1_455 S
C889 C883 1.491 . S
C889 C888 1.400 1_655 S
C889 C890 1.398 . S
C890 H878 0.950 . S
C890 C889 1.398 . S
C890 C891 1.391 . S
C891 H879 0.950 . S
C891 C887 1.393 . S
C891 C890 1.391 . S
H892 C900 0.950 . S
H893 C905 0.950 . S
H894 C902 0.950 . S
H895 C904 0.950 . S
H896 C906 0.950 . S
H897 C908 0.950 . S
H898 C910 0.950 . S
H899 C911 0.950 . S
C900 H892 0.950 . S
C900 C901 1.386 1_545 S
C900 C902 1.391 . S
C901 C900 1.386 1_565 S
C901 C905 1.393 . S
C902 H894 0.950 . S
C902 C900 1.391 . S
C902 C903 1.400 1_545 S
C903 C902 1.400 1_565 S
C903 C904 1.398 . S
C903 C909 1.491 . S
C904 H895 0.950 . S
C904 C903 1.398 . S
C904 C905 1.391 . S
C905 H893 0.950 . S
C905 C901 1.393 . S
C905 C904 1.391 . S
C906 H896 0.950 . S
C906 C907 1.386 . S
C906 C908 1.391 . S
C907 C906 1.386 . S
C907 C911 1.393 1_565 S
C908 H897 0.950 . S
C908 C906 1.391 . S
C908 C909 1.400 . S
C909 C903 1.491 . S
C909 C908 1.400 . S
C909 C910 1.398 1_565 S
C910 H898 0.950 . S
C910 C909 1.398 1_545 S
C910 C911 1.391 . S
C911 H899 0.950 . S
C911 C907 1.393 1_545 S
C911 C910 1.391 . S
H912 C920 0.950 . S
H913 C925 0.950 . S
H914 C922 0.950 . S
H915 C924 0.950 . S
H916 C926 0.950 . S
H917 C928 0.950 . S
H918 C930 0.950 . S
H919 C931 0.950 . S
C920 H912 0.950 . S
C920 C921 1.386 . S
C920 C922 1.391 . S
C921 C920 1.386 . S
C921 C925 1.393 . S
C922 H914 0.950 . S
C922 C920 1.391 . S
C922 C923 1.400 . S
C923 C922 1.400 . S
C923 C924 1.398 . S
C923 C929 1.491 . S
C924 H915 0.950 . S
C924 C923 1.398 . S
C924 C925 1.391 . S
C925 H913 0.950 . S
C925 C921 1.393 . S
C925 C924 1.391 . S
C926 H916 0.950 . S
C926 C927 1.386 . S
C926 C928 1.391 . S
C927 C926 1.386 . S
C927 C931 1.393 . S
C928 H917 0.950 . S
C928 C926 1.391 . S
C928 C929 1.400 . S
C929 C923 1.491 . S
C929 C928 1.400 . S
C929 C930 1.398 . S
C930 H918 0.950 . S
C930 C929 1.398 . S
C930 C931 1.391 . S
C931 H919 0.950 . S
C931 C927 1.393 . S
C931 C930 1.391 . S
H932 C940 0.950 . S
H933 C945 0.950 . S
H934 C942 0.950 . S
H935 C944 0.950 . S
H936 C946 0.950 . S
H937 C948 0.950 . S
H938 C950 0.950 . S
H939 C951 0.950 . S
C940 H932 0.950 . S
C940 C941 1.386 . S
C940 C942 1.391 . S
C941 C940 1.386 . S
C941 C945 1.393 . S
C942 H934 0.950 . S
C942 C940 1.391 . S
C942 C943 1.400 . S
C943 C942 1.400 . S
C943 C944 1.398 . S
C943 C949 1.491 . S
C944 H935 0.950 . S
C944 C943 1.398 . S
C944 C945 1.391 . S
C945 H933 0.950 . S
C945 C941 1.393 . S
C945 C944 1.391 . S
C946 H936 0.950 . S
C946 C947 1.386 . S
C946 C948 1.391 . S
C947 C946 1.386 . S
C947 C951 1.393 . S
C948 H937 0.950 . S
C948 C946 1.391 . S
C948 C949 1.400 . S
C949 C943 1.491 . S
C949 C948 1.400 . S
C949 C950 1.398 . S
C950 H938 0.950 . S
C950 C949 1.398 . S
C950 C951 1.391 . S
C951 H939 0.950 . S
C951 C947 1.393 . S
C951 C950 1.391 . S
C481 C255 2.163 . S
C487 C322 2.331 . S
C507 C362 2.348 . S
C501 C294 2.144 . S
C527 C402 2.330 . S
C521 C177 2.150 . S
C547 C442 2.338 1_455 S
C541 C216 2.178 . S
C567 C331 2.333 1_565 S
C561 C99 2.148 . S
C581 C138 2.132 . S
C587 C371 2.345 . S
C601 C21 2.154 . S
C607 C411 2.336 . S
C621 C60 2.152 . S
C627 C451 2.337 1_655 S
C647 C328 0.434 . S
C641 C196 0.439 . S
C667 C368 0.507 . S
C661 C235 0.478 . S
C687 C408 0.476 . S
C681 C289 0.421 . S
C701 C157 0.463 . S
C707 C448 0.506 . S
C721 C40 0.461 . S
C727 C319 0.474 . S
C747 C359 0.432 . S
C741 C79 0.430 . S
C767 C399 0.479 . S
C761 C133 0.464 . S
C781 C1 0.406 . S
C787 C439 0.426 . S
C801 C211 2.783 . S
C807 C323 3.194 . S
C821 C250 2.794 . S
C827 C363 3.187 . S
C847 C403 3.200 . S
C841 C274 2.809 . S
C867 C443 3.187 . S
C861 C172 2.793 . S
C881 C55 2.807 . S
C887 C314 3.196 . S
C907 C354 3.187 . S
C901 C94 2.779 . S
C927 C394 3.192 . S
C921 C118 2.792 . S
C941 C16 2.781 . S
C947 C434 3.192 . S
