# Generated by pormake.
# Topology ctn, (3,4)-cn, num edge types: 1
# Building blocks:
#     Node 0, Type 0, BuildingBlock: BELTOD_clean_linker_0, # of connection points: 3
#     Node 1, Type 0, BuildingBlock: BELTOD_clean_linker_0, # of connection points: 3
#     Node 2, Type 0, BuildingBlock: BELTOD_clean_linker_0, # of connection points: 3
#     Node 3, Type 0, BuildingBlock: BELTOD_clean_linker_0, # of connection points: 3
#     Node 4, Type 0, BuildingBlock: BELTOD_clean_linker_0, # of connection points: 3
#     Node 5, Type 0, BuildingBlock: BELTOD_clean_linker_0, # of connection points: 3
#     Node 6, Type 0, BuildingBlock: BELTOD_clean_linker_0, # of connection points: 3
#     Node 7, Type 0, BuildingBlock: BELTOD_clean_linker_0, # of connection points: 3
#     Node 8, Type 0, BuildingBlock: BELTOD_clean_linker_0, # of connection points: 3
#     Node 9, Type 0, BuildingBlock: BELTOD_clean_linker_0, # of connection points: 3
#     Node 10, Type 0, BuildingBlock: BELTOD_clean_linker_0, # of connection points: 3
#     Node 11, Type 0, BuildingBlock: BELTOD_clean_linker_0, # of connection points: 3
#     Node 12, Type 0, BuildingBlock: BELTOD_clean_linker_0, # of connection points: 3
#     Node 13, Type 0, BuildingBlock: BELTOD_clean_linker_0, # of connection points: 3
#     Node 14, Type 0, BuildingBlock: BELTOD_clean_linker_0, # of connection points: 3
#     Node 15, Type 0, BuildingBlock: BELTOD_clean_linker_0, # of connection points: 3
#     Node 16, Type 1, BuildingBlock: NAHDIM_clean_sbu_0, # of connection points: 4
#     Node 17, Type 1, BuildingBlock: NAHDIM_clean_sbu_0, # of connection points: 4
#     Node 18, Type 1, BuildingBlock: NAHDIM_clean_sbu_0, # of connection points: 4
#     Node 19, Type 1, BuildingBlock: NAHDIM_clean_sbu_0, # of connection points: 4
#     Node 20, Type 1, BuildingBlock: NAHDIM_clean_sbu_0, # of connection points: 4
#     Node 21, Type 1, BuildingBlock: NAHDIM_clean_sbu_0, # of connection points: 4
#     Node 22, Type 1, BuildingBlock: NAHDIM_clean_sbu_0, # of connection points: 4
#     Node 23, Type 1, BuildingBlock: NAHDIM_clean_sbu_0, # of connection points: 4
#     Node 24, Type 1, BuildingBlock: NAHDIM_clean_sbu_0, # of connection points: 4
#     Node 25, Type 1, BuildingBlock: NAHDIM_clean_sbu_0, # of connection points: 4
#     Node 26, Type 1, BuildingBlock: NAHDIM_clean_sbu_0, # of connection points: 4
#     Node 27, Type 1, BuildingBlock: NAHDIM_clean_sbu_0, # of connection points: 4
#     Edge 28, Type (0, 1), BuildingBlock: AJUNOK_clean_linker_0, # of connection points: 2
#     Edge 29, Type (0, 1), BuildingBlock: AJUNOK_clean_linker_0, # of connection points: 2
#     Edge 30, Type (0, 1), BuildingBlock: AJUNOK_clean_linker_0, # of connection points: 2
#     Edge 31, Type (0, 1), BuildingBlock: AJUNOK_clean_linker_0, # of connection points: 2
#     Edge 32, Type (0, 1), BuildingBlock: AJUNOK_clean_linker_0, # of connection points: 2
#     Edge 33, Type (0, 1), BuildingBlock: AJUNOK_clean_linker_0, # of connection points: 2
#     Edge 34, Type (0, 1), BuildingBlock: AJUNOK_clean_linker_0, # of connection points: 2
#     Edge 35, Type (0, 1), BuildingBlock: AJUNOK_clean_linker_0, # of connection points: 2
#     Edge 36, Type (0, 1), BuildingBlock: AJUNOK_clean_linker_0, # of connection points: 2
#     Edge 37, Type (0, 1), BuildingBlock: AJUNOK_clean_linker_0, # of connection points: 2
#     Edge 38, Type (0, 1), BuildingBlock: AJUNOK_clean_linker_0, # of connection points: 2
#     Edge 39, Type (0, 1), BuildingBlock: AJUNOK_clean_linker_0, # of connection points: 2
#     Edge 40, Type (0, 1), BuildingBlock: AJUNOK_clean_linker_0, # of connection points: 2
#     Edge 41, Type (0, 1), BuildingBlock: AJUNOK_clean_linker_0, # of connection points: 2
#     Edge 42, Type (0, 1), BuildingBlock: AJUNOK_clean_linker_0, # of connection points: 2
#     Edge 43, Type (0, 1), BuildingBlock: AJUNOK_clean_linker_0, # of connection points: 2
#     Edge 44, Type (0, 1), BuildingBlock: AJUNOK_clean_linker_0, # of connection points: 2
#     Edge 45, Type (0, 1), BuildingBlock: AJUNOK_clean_linker_0, # of connection points: 2
#     Edge 46, Type (0, 1), BuildingBlock: AJUNOK_clean_linker_0, # of connection points: 2
#     Edge 47, Type (0, 1), BuildingBlock: AJUNOK_clean_linker_0, # of connection points: 2
#     Edge 48, Type (0, 1), BuildingBlock: AJUNOK_clean_linker_0, # of connection points: 2
#     Edge 49, Type (0, 1), BuildingBlock: AJUNOK_clean_linker_0, # of connection points: 2
#     Edge 50, Type (0, 1), BuildingBlock: AJUNOK_clean_linker_0, # of connection points: 2
#     Edge 51, Type (0, 1), BuildingBlock: AJUNOK_clean_linker_0, # of connection points: 2
#     Edge 52, Type (0, 1), BuildingBlock: AJUNOK_clean_linker_0, # of connection points: 2
#     Edge 53, Type (0, 1), BuildingBlock: AJUNOK_clean_linker_0, # of connection points: 2
#     Edge 54, Type (0, 1), BuildingBlock: AJUNOK_clean_linker_0, # of connection points: 2
#     Edge 55, Type (0, 1), BuildingBlock: AJUNOK_clean_linker_0, # of connection points: 2
#     Edge 56, Type (0, 1), BuildingBlock: AJUNOK_clean_linker_0, # of connection points: 2
#     Edge 57, Type (0, 1), BuildingBlock: AJUNOK_clean_linker_0, # of connection points: 2
#     Edge 58, Type (0, 1), BuildingBlock: AJUNOK_clean_linker_0, # of connection points: 2
#     Edge 59, Type (0, 1), BuildingBlock: AJUNOK_clean_linker_0, # of connection points: 2
#     Edge 60, Type (0, 1), BuildingBlock: AJUNOK_clean_linker_0, # of connection points: 2
#     Edge 61, Type (0, 1), BuildingBlock: AJUNOK_clean_linker_0, # of connection points: 2
#     Edge 62, Type (0, 1), BuildingBlock: AJUNOK_clean_linker_0, # of connection points: 2
#     Edge 63, Type (0, 1), BuildingBlock: AJUNOK_clean_linker_0, # of connection points: 2
#     Edge 64, Type (0, 1), BuildingBlock: AJUNOK_clean_linker_0, # of connection points: 2
#     Edge 65, Type (0, 1), BuildingBlock: AJUNOK_clean_linker_0, # of connection points: 2
#     Edge 66, Type (0, 1), BuildingBlock: AJUNOK_clean_linker_0, # of connection points: 2
#     Edge 67, Type (0, 1), BuildingBlock: AJUNOK_clean_linker_0, # of connection points: 2
#     Edge 68, Type (0, 1), BuildingBlock: AJUNOK_clean_linker_0, # of connection points: 2
#     Edge 69, Type (0, 1), BuildingBlock: AJUNOK_clean_linker_0, # of connection points: 2
#     Edge 70, Type (0, 1), BuildingBlock: AJUNOK_clean_linker_0, # of connection points: 2
#     Edge 71, Type (0, 1), BuildingBlock: AJUNOK_clean_linker_0, # of connection points: 2
#     Edge 72, Type (0, 1), BuildingBlock: AJUNOK_clean_linker_0, # of connection points: 2
#     Edge 73, Type (0, 1), BuildingBlock: AJUNOK_clean_linker_0, # of connection points: 2
#     Edge 74, Type (0, 1), BuildingBlock: AJUNOK_clean_linker_0, # of connection points: 2
#     Edge 75, Type (0, 1), BuildingBlock: AJUNOK_clean_linker_0, # of connection points: 2
# Relax obj value: 0.003
# Max RMSD: 0.034
# Mean RMSD: 0.021
data_MOF--net-ctn--node1-NAHDIM_clean_sbu_0--node2-BELTOD_clean_linker_0--edge1-AJUNOK_clean_linker_0
_symmetry_space_group_name_H-M    P1
_symmetry_Int_Tables_number       1
_symmetry_cell_setting            triclinic
loop_
_symmetry_equiv_pos_as_xyz
'x, y, z'
_cell_length_a     47.478674
_cell_length_b     48.132132
_cell_length_c     47.138985
_cell_angle_alpha  90.551285
_cell_angle_beta   90.15659
_cell_angle_gamma 93.278007
loop_
_atom_site_label
_atom_site_type_symbol
_atom_site_fract_x
_atom_site_fract_y
_atom_site_fract_z
_atom_type_partial_charge
P0 P 0.07214 0.07882 0.08734 0.0
H1 H 0.07273 0.06141 0.14624 0.0
H2 H 0.0358 0.04321 0.17824 0.0
H3 H 0.97498 0.0443 0.11001 0.0
H4 H 0.01203 0.06286 0.07812 0.0
H5 H 0.13035 0.07986 0.06816 0.0
H6 H 0.16029 0.04362 0.05093 0.0
H7 H 0.08984 0.98308 0.05646 0.0
H8 H 0.06004 0.01941 0.07411 0.0
H9 H 0.04143 0.12902 0.09024 0.0
H10 H 0.06943 0.07384 0.0248 0.0
O11 O 0.09314 0.10028 0.10709 0.0
H12 H 0.02174 0.15857 0.05412 0.0
H13 H 0.04947 0.10323 0.98854 0.0
C14 C 0.04497 0.06398 0.11004 0.0
C15 C 0.05147 0.05765 0.13815 0.0
C16 C 0.03042 0.04701 0.15633 0.0
C17 C 0.00255 0.04221 0.14655 0.0
C18 C 0.99625 0.04796 0.11811 0.0
C19 C 0.01738 0.05857 0.09992 0.0
C20 C 0.09323 0.05216 0.07304 0.0
C21 C 0.12136 0.05878 0.06572 0.0
C22 C 0.13839 0.0381 0.05574 0.0
C23 C 0.12751 0.01045 0.05281 0.0
C24 C 0.09895 0.00408 0.05917 0.0
C25 C 0.0819 0.02483 0.06915 0.0
C26 C 0.05698 0.09939 0.06019 0.0
C27 C 0.04315 0.12319 0.06809 0.0
C28 C 0.03172 0.13991 0.04747 0.0
C29 C 0.03384 0.13301 0.01855 0.0
C30 C 0.04759 0.10901 0.01069 0.0
C31 C 0.05897 0.09221 0.03139 0.0
P32 P 0.31465 0.68914 0.19762 0.0
H33 H 0.3404 0.72981 0.15909 0.0
H34 H 0.32097 0.76509 0.1288 0.0
H35 H 0.23839 0.74653 0.16439 0.0
H36 H 0.25774 0.71094 0.19413 0.0
H37 H 0.36737 0.67177 0.22149 0.0
H38 H 0.39565 0.68755 0.26236 0.0
H39 H 0.33456 0.7479 0.28251 0.0
H40 H 0.30696 0.73283 0.24044 0.0
H41 H 0.29397 0.63532 0.17437 0.0
H42 H 0.27417 0.68876 0.24471 0.0
O43 O 0.3359 0.67309 0.17543 0.0
H44 H 0.25621 0.60173 0.18869 0.0
H45 H 0.23606 0.6552 0.25888 0.0
C46 C 0.30047 0.71737 0.17845 0.0
C47 C 0.31814 0.73345 0.16049 0.0
C48 C 0.30704 0.75365 0.14328 0.0
C49 C 0.27806 0.75816 0.14385 0.0
C50 C 0.26066 0.74298 0.16297 0.0
C51 C 0.27179 0.72273 0.18014 0.0
C52 C 0.33527 0.70136 0.22777 0.0
C53 C 0.36009 0.6885 0.23458 0.0
C54 C 0.37604 0.69726 0.25826 0.0
C55 C 0.36709 0.71864 0.27605 0.0
C56 C 0.34202 0.73139 0.26922 0.0
C57 C 0.32623 0.72281 0.24525 0.0
C58 C 0.28721 0.66431 0.20877 0.0
C59 C 0.2817 0.63975 0.19303 0.0
C60 C 0.26015 0.62057 0.2012 0.0
C61 C 0.24355 0.62585 0.22504 0.0
C62 C 0.24873 0.65069 0.2405 0.0
C63 C 0.27055 0.66973 0.23251 0.0
P64 P 0.9853 0.49257 0.02013 0.0
H65 H 0.97387 0.47845 0.96106 0.0
H66 H 0.97402 0.43474 0.93405 0.0
H67 H 0.99223 0.39098 0.01095 0.0
H68 H 0.9911 0.43448 0.03792 0.0
H69 H 0.96931 0.54992 0.02404 0.0
H70 H 0.92367 0.57111 0.02322 0.0
H71 H 0.88123 0.48934 0.02022 0.0
H72 H 0.92704 0.46825 0.02062 0.0
H73 H 0.04159 0.48045 0.03819 0.0
H74 H 0.96244 0.49626 0.07824 0.0
O75 O 0.00702 0.51406 0.00175 0.0
H76 H 0.06365 0.47637 0.0848 0.0
H77 H 0.98464 0.49295 0.12501 0.0
C78 C 0.98286 0.45977 0.00136 0.0
C79 C 0.97755 0.45936 0.97212 0.0
C80 C 0.97772 0.43443 0.95673 0.0
C81 C 0.98313 0.40943 0.97038 0.0
C82 C 0.98755 0.4098 0.9999 0.0
C83 C 0.98723 0.43476 0.0153 0.0
C84 C 0.9515 0.50759 0.02163 0.0
C85 C 0.95018 0.53656 0.02319 0.0
C86 C 0.92412 0.54863 0.0229 0.0
C87 C 0.89894 0.53187 0.02116 0.0
C88 C 0.90033 0.50276 0.02088 0.0
C89 C 0.92646 0.4907 0.02118 0.0
C90 C 0.00058 0.48911 0.05479 0.0
C91 C 0.02904 0.48325 0.05705 0.0
C92 C 0.04163 0.48107 0.08366 0.0
C93 C 0.02599 0.48492 0.10851 0.0
C94 C 0.9972 0.49001 0.10618 0.0
C95 C 0.98456 0.49206 0.07948 0.0
P96 P 0.67387 0.83088 0.18326 0.0
H97 H 0.71324 0.8678 0.15268 0.0
H98 H 0.75302 0.89909 0.16775 0.0
H99 H 0.74163 0.87156 0.25409 0.0
H100 H 0.70161 0.84041 0.23892 0.0
H101 H 0.63982 0.7874 0.15445 0.0
H102 H 0.6515 0.74745 0.12512 0.0
H103 H 0.74015 0.7671 0.14056 0.0
H104 H 0.72833 0.80666 0.17035 0.0
H105 H 0.6303 0.86102 0.2113 0.0
H106 H 0.66726 0.78173 0.21988 0.0
O107 O 0.65597 0.84961 0.16052 0.0
H108 H 0.59619 0.84823 0.24845 0.0
H109 H 0.63283 0.76866 0.25688 0.0
C110 C 0.70421 0.85221 0.19474 0.0
C111 C 0.71932 0.86849 0.17485 0.0
C112 C 0.74209 0.88625 0.18345 0.0
C113 C 0.75013 0.88803 0.21214 0.0
C114 C 0.73548 0.87101 0.23194 0.0
C115 C 0.71271 0.85314 0.22327 0.0
C116 C 0.68317 0.80003 0.16445 0.0
C117 C 0.66175 0.78286 0.15184 0.0
C118 C 0.66844 0.76011 0.13506 0.0
C119 C 0.69672 0.75412 0.13062 0.0
C120 C 0.71815 0.77093 0.14398 0.0
C121 C 0.71141 0.79371 0.16083 0.0
C122 C 0.65073 0.82201 0.21235 0.0
C123 C 0.63104 0.84085 0.22118 0.0
C124 C 0.61154 0.83351 0.24231 0.0
C125 C 0.61152 0.80723 0.25503 0.0
C126 C 0.6323 0.78896 0.24723 0.0
C127 C 0.65182 0.79634 0.22602 0.0
P128 P 0.06059 0.94285 0.43521 0.0
H129 H 0.12179 0.95011 0.43883 0.0
H130 H 0.15386 0.98931 0.45305 0.0
H131 H 0.08244 0.03762 0.473 0.0
H132 H 0.05039 0.99842 0.45793 0.0
H133 H 0.03939 0.88518 0.43608 0.0
H134 H 0.02667 0.85305 0.47446 0.0
H135 H 0.04739 0.91809 0.53602 0.0
H136 H 0.05966 0.95036 0.49744 0.0
H137 H 0.05285 0.96901 0.38081 0.0
H138 H 0.00074 0.94388 0.45193 0.0
O139 O 0.07774 0.92455 0.41122 0.0
H140 H 0.011 0.98232 0.35497 0.0
H141 H 0.95882 0.95747 0.42628 0.0
C142 C 0.08378 0.97164 0.44671 0.0
C143 C 0.11302 0.96919 0.44607 0.0
C144 C 0.13132 0.99155 0.45438 0.0
C145 C 0.12068 0.0167 0.46372 0.0
C146 C 0.09127 0.01877 0.46519 0.0
C147 C 0.07295 0.99637 0.45673 0.0
C148 C 0.05109 0.9199 0.46395 0.0
C149 C 0.04134 0.89248 0.45784 0.0
C150 C 0.03419 0.87414 0.47976 0.0
C151 C 0.03663 0.88294 0.50821 0.0
C152 C 0.04551 0.91074 0.51427 0.0
C153 C 0.05267 0.92912 0.49226 0.0
C154 C 0.02981 0.95497 0.41798 0.0
C155 C 0.03241 0.96654 0.39091 0.0
C156 C 0.00853 0.97424 0.37625 0.0
C157 C 0.98162 0.97052 0.38847 0.0
C158 C 0.97923 0.95998 0.41613 0.0
C159 C 0.00319 0.95231 0.43082 0.0
P160 P 0.23488 0.75331 0.77622 0.0
H161 H 0.28011 0.78136 0.809 0.0
H162 H 0.2811 0.80694 0.85415 0.0
H163 H 0.19176 0.78755 0.86415 0.0
H164 H 0.19097 0.76163 0.81909 0.0
H165 H 0.25516 0.71667 0.73262 0.0
H166 H 0.27507 0.67091 0.734 0.0
H167 H 0.26141 0.66779 0.82445 0.0
H168 H 0.24114 0.71357 0.82291 0.0
H169 H 0.20614 0.79619 0.74675 0.0
H170 H 0.18744 0.71123 0.77184 0.0
O171 O 0.25706 0.77188 0.7554 0.0
H172 H 0.16005 0.79685 0.72355 0.0
H173 H 0.14095 0.71192 0.74907 0.0
C174 C 0.2354 0.77009 0.8105 0.0
C175 C 0.26077 0.7825 0.82098 0.0
C176 C 0.2613 0.79712 0.84672 0.0
C177 C 0.23649 0.79931 0.86257 0.0
C178 C 0.21124 0.78598 0.85249 0.0
C179 C 0.21073 0.77136 0.82665 0.0
C180 C 0.24726 0.71871 0.77772 0.0
C181 C 0.2564 0.70612 0.75274 0.0
C182 C 0.26787 0.68008 0.75357 0.0
C183 C 0.27033 0.66614 0.77943 0.0
C184 C 0.25993 0.67822 0.80428 0.0
C185 C 0.24847 0.70439 0.80343 0.0
C186 C 0.20041 0.75346 0.76035 0.0
C187 C 0.19208 0.77767 0.74724 0.0
C188 C 0.16569 0.77808 0.73417 0.0
C189 C 0.14709 0.7543 0.73413 0.0
C190 C 0.15514 0.73032 0.74818 0.0
C191 C 0.18162 0.72994 0.76126 0.0
P192 P 0.99363 0.50121 0.50364 0.0
H193 H 0.05155 0.49316 0.48672 0.0
H194 H 0.07615 0.49739 0.44136 0.0
H195 H 0.99996 0.52308 0.40162 0.0
H196 H 0.97529 0.51871 0.44727 0.0
H197 H 0.02893 0.52678 0.54867 0.0
H198 H 0.02883 0.57171 0.57322 0.0
H199 H 0.95899 0.59443 0.52102 0.0
H200 H 0.95976 0.5496 0.49594 0.0
H201 H 0.96689 0.46145 0.46286 0.0
H202 H 0.94306 0.50597 0.53811 0.0
O203 O 0.01105 0.4796 0.52383 0.0
H204 H 0.91979 0.43796 0.46065 0.0
H205 H 0.89626 0.48224 0.53628 0.0
C206 C 0.01142 0.50487 0.47012 0.0
C207 C 0.04005 0.49954 0.46824 0.0
C208 C 0.05414 0.50213 0.44237 0.0
C209 C 0.03984 0.51019 0.41793 0.0
C210 C 0.0113 0.51628 0.42003 0.0
C211 C 0.99724 0.51385 0.44604 0.0
C212 C 0.99404 0.53474 0.52085 0.0
C213 C 0.01364 0.54143 0.54244 0.0
C214 C 0.01351 0.56708 0.55652 0.0
C215 C 0.99387 0.58657 0.5491 0.0
C216 C 0.97461 0.58 0.52698 0.0
C217 C 0.97488 0.55434 0.51279 0.0
C218 C 0.95815 0.48628 0.50001 0.0
C219 C 0.95136 0.46667 0.47851 0.0
C220 C 0.92454 0.45308 0.4774 0.0
C221 C 0.90419 0.45866 0.49799 0.0
C222 C 0.91118 0.47816 0.51962 0.0
C223 C 0.93797 0.49172 0.52069 0.0
P224 P 0.82672 0.81898 0.82447 0.0
H225 H 0.86601 0.84713 0.78559 0.0
H226 H 0.89502 0.83036 0.74691 0.0
H227 H 0.85592 0.74774 0.7564 0.0
H228 H 0.82722 0.76457 0.79535 0.0
H229 H 0.79765 0.86097 0.85548 0.0
H230 H 0.75675 0.88762 0.84454 0.0
H231 H 0.7479 0.84528 0.76352 0.0
H232 H 0.78931 0.81895 0.77445 0.0
H233 H 0.85725 0.78806 0.8661 0.0
H234 H 0.77302 0.78607 0.83136 0.0
O235 O 0.8494 0.84004 0.84278 0.0
H236 H 0.8431 0.74968 0.89766 0.0
H237 H 0.75862 0.74799 0.86326 0.0
C238 C 0.84487 0.80701 0.79362 0.0
C239 C 0.86345 0.82548 0.7791 0.0
C240 C 0.87984 0.81592 0.75686 0.0
C241 C 0.87768 0.78773 0.74861 0.0
C242 C 0.85813 0.76952 0.76246 0.0
C243 C 0.84172 0.77913 0.7847 0.0
C244 C 0.79687 0.83856 0.81549 0.0
C245 C 0.78708 0.85762 0.83525 0.0
C246 C 0.76359 0.87266 0.82907 0.0
C247 C 0.74933 0.86875 0.80305 0.0
C248 C 0.75886 0.84915 0.78348 0.0
C249 C 0.78244 0.83408 0.78971 0.0
C250 C 0.81601 0.79036 0.84699 0.0
C251 C 0.83566 0.7795 0.86545 0.0
C252 C 0.82754 0.75767 0.88351 0.0
C253 C 0.79961 0.74628 0.88329 0.0
C254 C 0.78022 0.75652 0.86397 0.0
C255 C 0.78839 0.77839 0.84589 0.0
P256 P 0.31915 0.31545 0.31877 0.0
H257 H 0.37678 0.32826 0.29946 0.0
H258 H 0.40395 0.31121 0.25978 0.0
H259 H 0.33074 0.26163 0.23041 0.0
H260 H 0.30355 0.2786 0.27068 0.0
H261 H 0.2687 0.32581 0.35111 0.0
H262 H 0.22987 0.35601 0.34315 0.0
H263 H 0.26384 0.37752 0.26088 0.0
H264 H 0.3025 0.34672 0.26869 0.0
H265 H 0.34746 0.29084 0.36651 0.0
H266 H 0.27193 0.27331 0.31696 0.0
O267 O 0.34 0.33752 0.33799 0.0
H268 H 0.33441 0.25167 0.39737 0.0
H269 H 0.2585 0.23422 0.34816 0.0
C270 C 0.33815 0.30465 0.288 0.0
C271 C 0.36643 0.31388 0.28444 0.0
C272 C 0.38196 0.30418 0.26169 0.0
C273 C 0.36953 0.28493 0.24214 0.0
C274 C 0.34097 0.27611 0.24543 0.0
C275 C 0.3254 0.2859 0.26826 0.0
C276 C 0.28816 0.33356 0.31026 0.0
C277 C 0.26742 0.3364 0.33102 0.0
C278 C 0.2454 0.35388 0.3266 0.0
C279 C 0.24406 0.36929 0.30153 0.0
C280 C 0.26432 0.36572 0.28031 0.0
C281 C 0.28638 0.34813 0.28475 0.0
C282 C 0.31024 0.2854 0.34 0.0
C283 C 0.32801 0.27862 0.36234 0.0
C284 C 0.32051 0.2563 0.37999 0.0
C285 C 0.29513 0.24036 0.3755 0.0
C286 C 0.27807 0.24632 0.35218 0.0
C287 C 0.28564 0.26867 0.33447 0.0
P288 P 0.4952 0.00227 0.51979 0.0
H289 H 0.50948 0.98812 0.46157 0.0
H290 H 0.50732 0.94449 0.43481 0.0
H291 H 0.47118 0.9017 0.50743 0.0
H292 H 0.47461 0.94551 0.53465 0.0
H293 H 0.48092 0.05927 0.50817 0.0
H294 H 0.43604 0.08153 0.50479 0.0
H295 H 0.39151 0.0044 0.52768 0.0
H296 H 0.43659 0.98185 0.53059 0.0
H297 H 0.55112 0.994 0.54158 0.0
H298 H 0.46722 0.99754 0.57576 0.0
O299 O 0.51934 0.02333 0.5039 0.0
H300 H 0.56994 0.98869 0.58933 0.0
H301 H 0.48585 0.99137 0.62362 0.0
C302 C 0.49245 0.96999 0.50016 0.0
C303 C 0.50112 0.96939 0.4718 0.0
C304 C 0.49954 0.94444 0.45638 0.0
C305 C 0.48865 0.91968 0.46885 0.0
C306 C 0.47971 0.92042 0.49727 0.0
C307 C 0.48156 0.94542 0.51279 0.0
C308 C 0.46209 0.01878 0.51924 0.0
C309 C 0.46159 0.04705 0.51247 0.0
C310 C 0.43598 0.05979 0.51057 0.0
C311 C 0.41047 0.04455 0.51579 0.0
C312 C 0.41099 0.0165 0.52357 0.0
C313 C 0.43666 0.00363 0.5251 0.0
C314 C 0.50788 0.99659 0.55515 0.0
C315 C 0.53671 0.99336 0.55936 0.0
C316 C 0.5474 0.99 0.58664 0.0
C317 C 0.52932 0.98933 0.61022 0.0
C318 C 0.50027 0.99191 0.60585 0.0
C319 C 0.4896 0.99541 0.57848 0.0
P320 P 0.17378 0.32492 0.68635 0.0
H321 H 0.19486 0.37896 0.66552 0.0
H322 H 0.23387 0.41127 0.68029 0.0
H323 H 0.25631 0.35431 0.74568 0.0
H324 H 0.2168 0.32201 0.73102 0.0
H325 H 0.14663 0.29697 0.63775 0.0
H326 H 0.16165 0.26168 0.6043 0.0
H327 H 0.24043 0.25797 0.64964 0.0
H328 H 0.22527 0.29342 0.68327 0.0
H329 H 0.13789 0.34892 0.72858 0.0
H330 H 0.16949 0.2684 0.71049 0.0
O331 O 0.15078 0.34349 0.6689 0.0
H332 H 0.10846 0.32864 0.76646 0.0
H333 H 0.14052 0.24812 0.74874 0.0
C334 C 0.20277 0.34826 0.69741 0.0
C335 C 0.20802 0.37343 0.68314 0.0
C336 C 0.23028 0.39189 0.69158 0.0
C337 C 0.248 0.38525 0.7141 0.0
C338 C 0.243 0.3598 0.72813 0.0
C339 C 0.22045 0.34145 0.71987 0.0
C340 C 0.18517 0.29841 0.66248 0.0
C341 C 0.16721 0.28874 0.64045 0.0
C342 C 0.17578 0.26857 0.62138 0.0
C343 C 0.20238 0.25752 0.62416 0.0
C344 C 0.2199 0.26633 0.64697 0.0
C345 C 0.21134 0.2867 0.66603 0.0
C346 C 0.15544 0.3101 0.71643 0.0
C347 C 0.13872 0.32694 0.73299 0.0
C348 C 0.12201 0.31535 0.75467 0.0
C349 C 0.12182 0.2867 0.7602 0.0
C350 C 0.13973 0.27013 0.74447 0.0
C351 C 0.15642 0.28175 0.72271 0.0
P352 P 0.81698 0.18243 0.68946 0.0
H353 H 0.84457 0.21087 0.64189 0.0
H354 H 0.82979 0.24703 0.60983 0.0
H355 H 0.75278 0.25292 0.65752 0.0
H356 H 0.76791 0.217 0.68983 0.0
H357 H 0.86079 0.15639 0.72115 0.0
H358 H 0.892 0.17261 0.75993 0.0
H359 H 0.85138 0.25064 0.76235 0.0
H360 H 0.82042 0.2344 0.72311 0.0
H361 H 0.77137 0.15457 0.65747 0.0
H362 H 0.79453 0.16557 0.74559 0.0
O363 O 0.83577 0.16162 0.66936 0.0
H364 H 0.73035 0.12469 0.67106 0.0
H365 H 0.75326 0.13591 0.75933 0.0
C366 C 0.80707 0.21091 0.66782 0.0
C367 C 0.82461 0.22008 0.64557 0.0
C368 C 0.81614 0.24069 0.62727 0.0
C369 C 0.79009 0.25268 0.63113 0.0
C370 C 0.77307 0.24423 0.65419 0.0
C371 C 0.78159 0.22357 0.67251 0.0
C372 C 0.83872 0.19441 0.71893 0.0
C373 C 0.85856 0.17697 0.73006 0.0
C374 C 0.87617 0.18615 0.75242 0.0
C375 C 0.87399 0.21283 0.76429 0.0
C376 C 0.85359 0.23003 0.7535 0.0
C377 C 0.83593 0.22079 0.7311 0.0
C378 C 0.78592 0.1623 0.70048 0.0
C379 C 0.76739 0.15084 0.67977 0.0
C380 C 0.74385 0.13396 0.68756 0.0
C381 C 0.73843 0.12828 0.71628 0.0
C382 C 0.75694 0.14002 0.73705 0.0
C383 C 0.7805 0.15699 0.72921 0.0
P384 P 0.56795 0.57553 0.58144 0.0
H385 H 0.56725 0.56533 0.64225 0.0
H386 H 0.53004 0.5491 0.6749 0.0
H387 H 0.47154 0.53916 0.60472 0.0
H388 H 0.50884 0.5559 0.57215 0.0
H389 H 0.62817 0.56853 0.57406 0.0
H390 H 0.65483 0.52954 0.55766 0.0
H391 H 0.57691 0.48067 0.54311 0.0
H392 H 0.55023 0.52003 0.55917 0.0
H393 H 0.52688 0.61801 0.58177 0.0
H394 H 0.57855 0.57854 0.51989 0.0
O395 O 0.58997 0.59699 0.60008 0.0
H396 H 0.51029 0.64897 0.54523 0.0
H397 H 0.56171 0.60924 0.48315 0.0
C398 C 0.54057 0.5625 0.60494 0.0
C399 C 0.54639 0.55979 0.6339 0.0
C400 C 0.52517 0.55035 0.6525 0.0
C401 C 0.49779 0.54329 0.6424 0.0
C402 C 0.49227 0.5451 0.61317 0.0
C403 C 0.51356 0.55457 0.59456 0.0
C404 C 0.58725 0.54701 0.56824 0.0
C405 C 0.61678 0.54947 0.56732 0.0
C406 C 0.63201 0.52717 0.558 0.0
C407 C 0.61796 0.50207 0.54916 0.0
C408 C 0.58829 0.49986 0.54952 0.0
C409 C 0.57305 0.52224 0.55888 0.0
C410 C 0.55359 0.5957 0.55347 0.0
C411 C 0.53428 0.6157 0.56021 0.0
C412 C 0.52483 0.63338 0.53934 0.0
C413 C 0.53486 0.63164 0.5114 0.0
C414 C 0.55394 0.6113 0.5046 0.0
C415 C 0.56336 0.59357 0.52553 0.0
P416 P 0.56106 0.44185 0.93479 0.0
H417 H 0.62087 0.4451 0.94799 0.0
H418 H 0.65335 0.48259 0.96564 0.0
H419 H 0.58509 0.53807 0.96824 0.0
H420 H 0.5525 0.50033 0.95069 0.0
H421 H 0.53043 0.3881 0.9353 0.0
H422 H 0.51373 0.35734 0.97352 0.0
H423 H 0.5458 0.41795 0.03545 0.0
H424 H 0.56196 0.44886 0.99716 0.0
H425 H 0.55021 0.44338 0.87387 0.0
H426 H 0.50772 0.46557 0.95091 0.0
O427 O 0.57975 0.42161 0.91395 0.0
H428 H 0.50909 0.4552 0.84609 0.0
H429 H 0.46654 0.47798 0.92293 0.0
C430 C 0.58444 0.47012 0.94733 0.0
C431 C 0.61291 0.4654 0.95204 0.0
C432 C 0.63147 0.48683 0.96206 0.0
C433 C 0.62181 0.51336 0.96774 0.0
C434 C 0.59308 0.51786 0.96379 0.0
C435 C 0.5745 0.49636 0.95363 0.0
C436 C 0.54766 0.42056 0.9634 0.0
C437 C 0.53367 0.39483 0.95712 0.0
C438 C 0.52421 0.37728 0.97893 0.0
C439 C 0.52843 0.38528 0.00744 0.0
C440 C 0.5419 0.41142 0.01368 0.0
C441 C 0.55136 0.429 0.99179 0.0
C442 C 0.5319 0.45341 0.91445 0.0
C443 C 0.53215 0.45102 0.88481 0.0
C444 C 0.50867 0.45774 0.86895 0.0
C445 C 0.48474 0.4674 0.88245 0.0
C446 C 0.48485 0.47071 0.91209 0.0
C447 C 0.50828 0.46361 0.92802 0.0
P448 P 0.73083 0.25211 0.27119 0.0
H449 H 0.77434 0.28485 0.30218 0.0
H450 H 0.77415 0.31106 0.34692 0.0
H451 H 0.68677 0.28416 0.35948 0.0
H452 H 0.6872 0.2576 0.31485 0.0
H453 H 0.75377 0.21595 0.22864 0.0
H454 H 0.77542 0.17111 0.23115 0.0
H455 H 0.7604 0.16883 0.32141 0.0
H456 H 0.73837 0.21367 0.31874 0.0
H457 H 0.69906 0.29249 0.24129 0.0
H458 H 0.68582 0.2074 0.26825 0.0
O459 O 0.75173 0.27121 0.24958 0.0
H460 H 0.65209 0.29029 0.21959 0.0
H461 H 0.63888 0.20494 0.24618 0.0
C462 C 0.73066 0.26974 0.305 0.0
C463 C 0.75517 0.28451 0.31461 0.0
C464 C 0.75502 0.29951 0.3401 0.0
C465 C 0.73042 0.29972 0.35659 0.0
C466 C 0.70609 0.28417 0.34731 0.0
C467 C 0.70626 0.26917 0.32174 0.0
C468 C 0.74507 0.21837 0.27357 0.0
C469 C 0.75515 0.20581 0.24898 0.0
C470 C 0.76761 0.18029 0.25045 0.0
C471 C 0.77012 0.16684 0.27658 0.0
C472 C 0.7589 0.1789 0.30105 0.0
C473 C 0.74645 0.20453 0.29955 0.0
C474 C 0.69606 0.24996 0.25584 0.0
C475 C 0.68606 0.2733 0.24242 0.0
C476 C 0.65927 0.27202 0.23004 0.0
C477 C 0.64188 0.24745 0.23119 0.0
C478 C 0.65173 0.22423 0.24524 0.0
C479 C 0.67862 0.22553 0.25762 0.0
P480 P 0.499 0.00319 0.00241 0.0
H481 H 0.53503 0.04669 0.97537 0.0
H482 H 0.55638 0.05005 0.92833 0.0
H483 H 0.51271 0.97226 0.90393 0.0
H484 H 0.49211 0.96858 0.95134 0.0
H485 H 0.53362 0.02973 0.0476 0.0
H486 H 0.53164 0.07417 0.07277 0.0
H487 H 0.45892 0.09341 0.02294 0.0
H488 H 0.4615 0.04918 0.99724 0.0
H489 H 0.47389 0.96184 0.04094 0.0
H490 H 0.44828 0.00611 0.96694 0.0
O491 O 0.52185 0.98377 0.01897 0.0
H492 H 0.42721 0.9377 0.04316 0.0
H493 H 0.4015 0.98181 0.96896 0.0
C494 C 0.51134 0.00778 0.96661 0.0
C495 C 0.52955 0.03066 0.95973 0.0
C496 C 0.54168 0.03262 0.93277 0.0
C497 C 0.53587 0.01163 0.91228 0.0
C498 C 0.51749 0.9888 0.91925 0.0
C499 C 0.5055 0.9868 0.94625 0.0
C500 C 0.49752 0.03604 0.02076 0.0
C501 C 0.51726 0.04348 0.04204 0.0
C502 C 0.51606 0.06885 0.05649 0.0
C503 C 0.49517 0.0873 0.04979 0.0
C504 C 0.47551 0.07982 0.02829 0.0
C505 C 0.4768 0.05444 0.01377 0.0
C506 C 0.46466 0.98537 0.00349 0.0
C507 C 0.45828 0.96624 0.02506 0.0
C508 C 0.43163 0.95247 0.02633 0.0
C509 C 0.41077 0.95793 0.00626 0.0
C510 C 0.41709 0.97745 0.98488 0.0
C511 C 0.44384 0.99117 0.98359 0.0
C512 C 0.20775 0.92911 0.01914 0.0
O513 O 0.22473 0.9351 0.99782 0.0
O514 O 0.23568 0.86004 0.98878 0.0
Zn515 Zn 0.24376 0.88332 0.02413 0.0
O516 O 0.27923 0.90757 0.01841 0.0
C517 C 0.23764 0.83464 0.05982 0.0
O518 O 0.21748 0.82727 0.04167 0.0
O519 O 0.21152 0.90737 0.03344 0.0
C520 C 0.30227 0.89579 0.01505 0.0
O521 O 0.30182 0.86846 0.0152 0.0
C522 C 0.24328 0.86892 0.96452 0.0
O523 O 0.25554 0.89399 0.96262 0.0
O524 O 0.25113 0.85798 0.05677 0.0
C525 C 0.1642 0.45554 0.28661 0.0
O526 O 0.16577 0.47796 0.30277 0.0
O527 O 0.0997 0.49457 0.29356 0.0
Zn528 Zn 0.12608 0.4895 0.26048 0.0
O529 O 0.15595 0.52068 0.25817 0.0
C530 C 0.07998 0.47874 0.21936 0.0
O531 O 0.0661 0.467 0.24058 0.0
O532 O 0.14703 0.4546 0.26582 0.0
C533 C 0.15146 0.54527 0.25058 0.0
O534 O 0.12548 0.55176 0.24527 0.0
C535 C 0.10568 0.51146 0.31389 0.0
O536 O 0.1295 0.52672 0.3131 0.0
O537 O 0.10507 0.4886 0.22337 0.0
C538 C 0.7954 0.58993 0.00781 0.0
O539 O 0.77985 0.58658 0.98481 0.0
O540 O 0.76876 0.65971 0.98746 0.0
Zn541 Zn 0.75611 0.63137 0.01662 0.0
O542 O 0.72446 0.60593 0.00078 0.0
C543 C 0.72635 0.6715 0.04629 0.0
O544 O 0.71667 0.67418 0.02037 0.0
O545 O 0.78917 0.60845 0.0258 0.0
C546 C 0.70204 0.59827 0.0139 0.0
O547 O 0.69801 0.60791 0.03965 0.0
C548 C 0.76328 0.65794 0.96109 0.0
O549 O 0.74866 0.6359 0.95126 0.0
O550 O 0.74376 0.65293 0.05088 0.0
C551 C 0.82467 0.06135 0.27956 0.0
O552 O 0.81128 0.03951 0.29081 0.0
O553 O 0.88997 0.01527 0.2991 0.0
Zn554 Zn 0.86689 0.02195 0.26399 0.0
O555 O 0.83701 0.99087 0.25692 0.0
C556 C 0.91646 0.0125 0.23035 0.0
O557 O 0.92145 0.99538 0.25106 0.0
O558 O 0.84835 0.05845 0.2677 0.0
C559 C 0.84098 0.97009 0.24086 0.0
O560 O 0.86553 0.96841 0.22839 0.0
C561 C 0.88894 0.99239 0.31241 0.0
O562 O 0.87072 0.97235 0.30419 0.0
O563 O 0.89395 0.02561 0.23097 0.0
C564 C 0.30465 0.09808 0.50135 0.0
O565 O 0.29291 0.09949 0.4762 0.0
O566 O 0.2671 0.15513 0.4806 0.0
Zn567 Zn 0.25776 0.12963 0.5135 0.0
O568 O 0.22584 0.10139 0.50405 0.0
C569 C 0.23479 0.17656 0.53944 0.0
O570 O 0.22861 0.18027 0.51264 0.0
O571 O 0.29283 0.10928 0.52241 0.0
C572 C 0.20276 0.10744 0.49252 0.0
O573 O 0.19892 0.1335 0.48635 0.0
C574 C 0.26166 0.15213 0.4543 0.0
O575 O 0.24891 0.12886 0.44499 0.0
O576 O 0.24709 0.15475 0.54625 0.0
C577 C 0.32226 0.55919 0.78018 0.0
O578 O 0.30824 0.53733 0.79067 0.0
O579 O 0.38785 0.512 0.79831 0.0
Zn580 Zn 0.36425 0.51955 0.76357 0.0
O581 O 0.33417 0.48882 0.75561 0.0
C582 C 0.4138 0.5128 0.72822 0.0
O583 O 0.42088 0.496 0.74849 0.0
O584 O 0.34599 0.55609 0.76851 0.0
C585 C 0.33945 0.46647 0.74254 0.0
O586 O 0.36531 0.46299 0.73394 0.0
C587 C 0.39088 0.48764 0.80763 0.0
O588 O 0.37689 0.46644 0.79543 0.0
O589 O 0.39042 0.52433 0.72993 0.0
C590 C 0.68841 0.41258 0.51409 0.0
O591 O 0.6866 0.40132 0.48862 0.0
O592 O 0.72928 0.35883 0.48334 0.0
Zn593 Zn 0.73892 0.38059 0.51933 0.0
O594 O 0.77475 0.40434 0.51327 0.0
C595 C 0.75374 0.32947 0.5453 0.0
O596 O 0.75553 0.32184 0.51856 0.0
O597 O 0.7083 0.40613 0.53048 0.0
C598 C 0.79723 0.3936 0.50511 0.0
O599 O 0.7968 0.36663 0.50045 0.0
C600 C 0.73558 0.36853 0.45905 0.0
O601 O 0.74693 0.394 0.45737 0.0
O602 O 0.74622 0.35382 0.55109 0.0
C603 C 0.65656 0.94071 0.78466 0.0
O604 O 0.63765 0.94285 0.80474 0.0
O605 O 0.60593 0.99078 0.79548 0.0
Zn606 Zn 0.63002 0.98853 0.76031 0.0
O607 O 0.65504 0.02362 0.75596 0.0
C608 C 0.58196 0.99165 0.72187 0.0
O609 O 0.57155 0.00651 0.74244 0.0
O610 O 0.6565 0.95735 0.76389 0.0
C611 C 0.64919 0.04404 0.74052 0.0
O612 O 0.62488 0.04325 0.72711 0.0
C613 C 0.5972 0.01346 0.80522 0.0
O614 O 0.60372 0.03671 0.79179 0.0
O615 O 0.60607 0.98189 0.7251 0.0
C616 C 0.99493 0.21109 0.93529 0.0
O617 O 0.9698 0.22112 0.9365 0.0
O618 O 0.96761 0.23718 0.86641 0.0
Zn619 Zn 0.0014 0.25048 0.88993 0.0
O620 O 0.99231 0.28473 0.91257 0.0
C621 C 0.03865 0.24473 0.84219 0.0
O622 O 0.02245 0.22206 0.83776 0.0
O623 O 0.01219 0.22043 0.91665 0.0
C624 C 1.00012 0.30893 0.90404 0.0
O625 O 0.0141 0.3114 0.8801 0.0
C626 C 0.95938 0.25235 0.84644 0.0
O627 O 0.97286 0.27655 0.8422 0.0
O628 O 0.03399 0.25988 0.86371 0.0
C629 C 0.49725 0.71335 0.43106 0.0
O630 O 0.47008 0.71663 0.42846 0.0
O631 O 0.46509 0.74433 0.3711 0.0
Zn632 Zn 0.50084 0.75895 0.39142 0.0
O633 O 0.49451 0.79364 0.41482 0.0
C634 C 0.52431 0.77391 0.3367 0.0
O635 O 0.49748 0.77318 0.32985 0.0
O636 O 0.51445 0.72916 0.41717 0.0
C637 C 0.49416 0.81727 0.40299 0.0
O638 O 0.49781 0.81888 0.37544 0.0
C639 C 0.44461 0.75909 0.36483 0.0
O640 O 0.44536 0.78527 0.37298 0.0
O641 O 0.53112 0.76825 0.36204 0.0
C642 C 0.00633 0.80441 0.59797 0.0
O643 O 0.99117 0.81237 0.61953 0.0
O644 O 0.96858 0.76046 0.64786 0.0
Zn645 Zn 0.00214 0.74961 0.62484 0.0
O646 O 0.99373 0.71376 0.60313 0.0
C647 C 0.04273 0.76204 0.67 0.0
O648 O 0.02757 0.78372 0.67409 0.0
O649 O 0.01292 0.77922 0.59634 0.0
C650 C 0.99766 0.6903 0.61415 0.0
O651 O 0.00588 0.68946 0.64074 0.0
C652 C 0.9622 0.74823 0.67093 0.0
O653 O 0.9774 0.72782 0.67923 0.0
O654 O 0.03561 0.74479 0.65035 0.0
C655 C 0.49885 0.30627 0.09697 0.0
O656 O 0.48813 0.31384 0.12131 0.0
O657 O 0.4649 0.26126 0.14759 0.0
Zn658 Zn 0.49766 0.25152 0.12282 0.0
O659 O 0.49097 0.21463 0.10241 0.0
C660 C 0.53344 0.24462 0.17258 0.0
O661 O 0.50943 0.23827 0.18539 0.0
O662 O 0.50428 0.28095 0.09313 0.0
C663 C 0.49614 0.19159 0.1137 0.0
O664 O 0.50461 0.19145 0.14024 0.0
C665 C 0.44625 0.24392 0.15733 0.0
O666 O 0.44734 0.21746 0.15064 0.0
O667 O 0.53317 0.25081 0.14642 0.0
C668 C 0.24932 0.84387 0.88826 0.0
C669 C 0.23698 0.81663 0.88881 0.0
C670 C 0.25074 0.86065 0.9127 0.0
C671 C 0.24002 0.85086 0.93882 0.0
H672 H 0.25792 0.85235 0.8687 0.0
H673 H 0.26064 0.88141 0.91106 0.0
S674 S 0.20567 0.78076 0.95148 0.0
N675 N 0.21385 0.78044 0.91746 0.0
N676 N 0.21639 0.81192 0.96356 0.0
C677 C 0.22736 0.82364 0.9396 0.0
C678 C 0.22584 0.80658 0.91458 0.0
C679 C 0.08123 0.52688 0.38876 0.0
C680 C 0.05496 0.51197 0.39044 0.0
C681 C 0.097 0.52721 0.36368 0.0
C682 C 0.08729 0.51241 0.33931 0.0
H683 H 0.0898 0.53818 0.40712 0.0
H684 H 0.1173 0.53869 0.36371 0.0
S685 S 0.01928 0.47063 0.33259 0.0
N686 N 0.01952 0.48253 0.36557 0.0
N687 N 0.04905 0.48309 0.31831 0.0
C688 C 0.06068 0.4979 0.34053 0.0
C689 C 0.04454 0.49772 0.3661 0.0
C690 C 0.77606 0.69954 0.89362 0.0
C691 C 0.79063 0.72402 0.90345 0.0
C692 C 0.76745 0.67826 0.91237 0.0
C693 C 0.77293 0.68072 0.94171 0.0
H694 H 0.77154 0.69668 0.87121 0.0
H695 H 0.75641 0.65976 0.90371 0.0
S696 S 0.80913 0.74165 0.97822 0.0
N697 N 0.80922 0.75013 0.94438 0.0
N698 N 0.79329 0.71027 0.97967 0.0
C699 C 0.7873 0.70533 0.9518 0.0
C700 C 0.79609 0.72692 0.93267 0.0
C701 C 0.95543 0.00208 0.35728 0.0
C702 C 0.95625 0.97672 0.37171 0.0
C703 C 0.93301 0.00736 0.33909 0.0
C704 C 0.91057 0.98738 0.33437 0.0
H705 H 0.97254 0.01782 0.35972 0.0
H706 H 0.9338 0.027 0.32801 0.0
S707 S 0.90227 0.91794 0.36808 0.0
N708 N 0.9324 0.9317 0.38083 0.0
N709 N 0.89009 0.94158 0.34684 0.0
C710 C 0.9107 0.96225 0.34945 0.0
C711 C 0.93354 0.95694 0.36807 0.0
C712 C 0.22092 0.21137 0.61064 0.0
C713 C 0.21196 0.23753 0.60262 0.0
C714 C 0.22858 0.19179 0.59016 0.0
C715 C 0.22761 0.19775 0.56097 0.0
H716 H 0.22141 0.20581 0.63285 0.0
H717 H 0.23486 0.17171 0.59725 0.0
S718 S 0.20867 0.26475 0.52947 0.0
N719 N 0.20465 0.26925 0.56394 0.0
N720 N 0.219 0.2328 0.52546 0.0
C721 C 0.21956 0.22429 0.55287 0.0
C722 C 0.21174 0.24408 0.57368 0.0
C723 C 0.48004 0.5142 0.68306 0.0
C724 C 0.47513 0.53446 0.66262 0.0
C725 C 0.45978 0.50686 0.70364 0.0
C726 C 0.4338 0.51958 0.70473 0.0
H727 H 0.49983 0.50407 0.68329 0.0
H728 H 0.46482 0.49138 0.71909 0.0
S729 S 0.41063 0.5739 0.65571 0.0
N730 N 0.44244 0.5671 0.64452 0.0
N731 N 0.40418 0.55323 0.68296 0.0
C732 C 0.42841 0.53953 0.68398 0.0
C733 C 0.44909 0.54696 0.663 0.0
C734 C 0.78093 0.26587 0.58101 0.0
C735 C 0.78018 0.27268 0.61005 0.0
C736 C 0.77194 0.28421 0.56045 0.0
C737 C 0.76193 0.31025 0.568 0.0
H738 H 0.78839 0.24606 0.5741 0.0
H739 H 0.77309 0.27788 0.53839 0.0
S740 S 0.75603 0.3381 0.64142 0.0
N741 N 0.76884 0.3072 0.64551 0.0
N742 N 0.7518 0.34182 0.6069 0.0
C743 C 0.76092 0.31728 0.59708 0.0
C744 C 0.77003 0.29846 0.61806 0.0
C745 C 0.53331 0.00652 0.66046 0.0
C746 C 0.54108 0.98759 0.63936 0.0
C747 C 0.54602 0.00708 0.68735 0.0
C748 C 0.56712 0.98882 0.69416 0.0
H749 H 0.51797 0.02169 0.65587 0.0
H750 H 0.53987 0.02259 0.70258 0.0
S751 S 0.59248 0.93295 0.6475 0.0
N752 N 0.56919 0.94837 0.62793 0.0
N753 N 0.59348 0.94968 0.67827 0.0
C754 C 0.57428 0.96904 0.6736 0.0
C755 C 0.56119 0.96837 0.64628 0.0
C756 C 0.90888 0.2491 0.78366 0.0
C757 C 0.89404 0.2232 0.78675 0.0
C758 C 0.92952 0.2585 0.80335 0.0
C759 C 0.93616 0.2424 0.82701 0.0
H760 H 0.9051 0.26189 0.7654 0.0
H761 H 0.94072 0.27836 0.79961 0.0
S762 S 0.90134 0.17406 0.84611 0.0
N763 N 0.88588 0.1824 0.8162 0.0
N764 N 0.9248 0.19985 0.8532 0.0
C765 C 0.9208 0.21679 0.83081 0.0
C766 C 0.89976 0.20724 0.8107 0.0
C767 C 0.49775 0.86893 0.46451 0.0
C768 C 0.48762 0.89308 0.45242 0.0
C769 C 0.49906 0.84421 0.44864 0.0
C770 C 0.49054 0.84282 0.42003 0.0
H771 H 0.50555 0.86935 0.48614 0.0
H772 H 0.50767 0.82635 0.45861 0.0
S773 S 0.45886 0.89904 0.37957 0.0
N774 N 0.4661 0.91308 0.41103 0.0
N775 N 0.46929 0.86694 0.38102 0.0
C776 C 0.47939 0.86648 0.40801 0.0
C777 C 0.47775 0.89151 0.42424 0.0
C778 C 0.0997 0.28676 0.80839 0.0
C779 C 0.10201 0.27421 0.78151 0.0
C780 C 0.07961 0.27667 0.82805 0.0
C781 C 0.06097 0.25363 0.82161 0.0
H782 H 0.11337 0.30472 0.81419 0.0
H783 H 0.0785 0.28732 0.84833 0.0
S784 S 0.05827 0.21353 0.75381 0.0
N785 N 0.0839 0.23769 0.74928 0.0
N786 N 0.04638 0.21844 0.78625 0.0
C787 C 0.06342 0.24057 0.79492 0.0
C788 C 0.08388 0.25091 0.77489 0.0
C789 C 0.49707 0.65624 0.48632 0.0
C790 C 0.52584 0.6516 0.48977 0.0
C791 C 0.48809 0.67592 0.46704 0.0
C792 C 0.50753 0.69194 0.45053 0.0
H793 H 0.48134 0.64457 0.49868 0.0
H794 H 0.46568 0.67874 0.46534 0.0
S795 S 0.58547 0.68786 0.45196 0.0
N796 N 0.57383 0.66468 0.47537 0.0
N797 N 0.55711 0.70154 0.43898 0.0
C798 C 0.53643 0.6873 0.45364 0.0
C799 C 0.54553 0.66716 0.47325 0.0
C800 C 0.91275 0.75368 0.73372 0.0
C801 C 0.89738 0.77694 0.72727 0.0
C802 C 0.93319 0.74431 0.71511 0.0
C803 C 0.9391 0.75776 0.68921 0.0
H804 H 0.90956 0.74311 0.75374 0.0
H805 H 0.94479 0.72664 0.72142 0.0
S806 S 0.90286 0.81832 0.66135 0.0
N807 N 0.88806 0.81221 0.6925 0.0
N808 N 0.92657 0.79479 0.65745 0.0
C809 C 0.92321 0.78058 0.6821 0.0
C810 C 0.90239 0.79014 0.70115 0.0
C811 C 0.01147 0.86996 0.55331 0.0
C812 C 0.02999 0.86305 0.53145 0.0
C813 C 0.00415 0.85098 0.57485 0.0
C814 C 0.01512 0.8244 0.57539 0.0
H815 H 0.00213 0.88997 0.55345 0.0
H816 H 0.98947 0.85713 0.59097 0.0
S817 S 0.06655 0.79731 0.52421 0.0
N818 N 0.0606 0.82867 0.51256 0.0
N819 N 0.04683 0.7929 0.55277 0.0
C820 C 0.03423 0.81755 0.55394 0.0
C821 C 0.04165 0.83689 0.53205 0.0
C822 C 0.10226 0.77706 0.72304 0.0
C823 C 0.11964 0.75467 0.71895 0.0
C824 C 0.07719 0.77891 0.70757 0.0
C825 C 0.06854 0.75852 0.68724 0.0
H826 H 0.10818 0.79341 0.73823 0.0
H827 H 0.06476 0.79675 0.71134 0.0
S828 S 0.10662 0.69548 0.66876 0.0
N829 N 0.12652 0.71159 0.69329 0.0
N830 N 0.07932 0.71477 0.66438 0.0
C831 C 0.08553 0.73571 0.68333 0.0
C832 C 0.11106 0.73384 0.69916 0.0
C833 C 0.99425 0.61343 0.59482 0.0
C834 C 0.99333 0.61336 0.56499 0.0
C835 C 0.99505 0.63836 0.61045 0.0
C836 C 0.99488 0.66429 0.59691 0.0
H837 H 0.99444 0.59401 0.60623 0.0
H838 H 0.99601 0.63724 0.63336 0.0
S839 S 0.99296 0.67548 0.51905 0.0
N840 N 0.9926 0.64135 0.5224 0.0
N841 N 0.99365 0.68828 0.55169 0.0
C842 C 0.9935 0.66451 0.56703 0.0
C843 C 0.99282 0.63905 0.55111 0.0
C844 C 0.79931 0.90882 0.20661 0.0
C845 C 0.77348 0.90803 0.22117 0.0
C846 C 0.82112 0.92857 0.21355 0.0
C847 C 0.81791 0.94855 0.23517 0.0
H848 H 0.80263 0.8941 0.18958 0.0
H849 H 0.84048 0.92842 0.20146 0.0
S850 S 0.75426 0.95511 0.27988 0.0
N851 N 0.74585 0.92868 0.25831 0.0
N852 N 0.78681 0.96581 0.27153 0.0
C853 C 0.79225 0.94772 0.25019 0.0
C854 C 0.77009 0.92745 0.24318 0.0
C855 C 0.77175 0.11693 0.29111 0.0
C856 C 0.78483 0.14049 0.27821 0.0
C857 C 0.78491 0.09155 0.29172 0.0
C858 C 0.81175 0.08881 0.27963 0.0
H859 H 0.75092 0.11797 0.30026 0.0
H860 H 0.77374 0.0739 0.3015 0.0
S861 S 0.85582 0.14529 0.24539 0.0
N862 N 0.82668 0.16012 0.25462 0.0
N863 N 0.85147 0.11263 0.25562 0.0
C864 C 0.82533 0.11255 0.26732 0.0
C865 C 0.81186 0.1383 0.26664 0.0
C866 C 0.38099 0.9136 0.00959 0.0
C867 C 0.38273 0.94276 0.00753 0.0
C868 C 0.35489 0.89869 0.0116 0.0
C869 C 0.32943 0.91234 0.01187 0.0
H870 H 0.40001 0.90219 0.00957 0.0
H871 H 0.35479 0.87626 0.01326 0.0
S872 S 0.32264 0.98869 0.00717 0.0
N873 N 0.35696 0.98488 0.00597 0.0
N874 N 0.30776 0.95696 0.00967 0.0
C875 C 0.33089 0.94157 0.00963 0.0
C876 C 0.35755 0.95674 0.00744 0.0
C877 C 0.20578 0.39118 0.27419 0.0
C878 C 0.22293 0.39063 0.29852 0.0
C879 C 0.18629 0.4118 0.27081 0.0
C880 C 0.18353 0.43283 0.29147 0.0
H881 H 0.20744 0.37556 0.25768 0.0
H882 H 0.17371 0.41151 0.2516 0.0
S883 S 0.22413 0.44069 0.35889 0.0
N884 N 0.23625 0.41292 0.3434 0.0
N885 N 0.19971 0.45149 0.33729 0.0
C886 C 0.20054 0.43232 0.31599 0.0
C887 C 0.22021 0.41128 0.31944 0.0
C888 C 0.1637 0.03631 0.48942 0.0
C889 C 0.14044 0.04057 0.47176 0.0
C890 C 0.18348 0.05809 0.4962 0.0
C891 C 0.18083 0.0851 0.48564 0.0
H892 H 0.16667 0.01591 0.49807 0.0
H893 H 0.20105 0.05362 0.5098 0.0
S894 S 0.12398 0.10701 0.43787 0.0
N895 N 0.11611 0.07364 0.44335 0.0
N896 N 0.153 0.11475 0.45637 0.0
C897 C 0.15748 0.08971 0.46814 0.0
C898 C 0.13737 0.06744 0.46117 0.0
C899 C 0.71937 0.08615 0.74203 0.0
C900 C 0.71456 0.1087 0.72428 0.0
C901 C 0.69788 0.06583 0.74777 0.0
C902 C 0.67068 0.06725 0.736 0.0
H903 H 0.74018 0.08365 0.75079 0.0
H904 H 0.70294 0.0485 0.76097 0.0
S905 S 0.64656 0.12401 0.69063 0.0
N906 N 0.68017 0.13265 0.69684 0.0
N907 N 0.63971 0.09445 0.7074 0.0
C908 C 0.66532 0.09038 0.71911 0.0
C909 C 0.68727 0.11106 0.71328 0.0
C910 C 0.36456 0.0602 0.53459 0.0
C911 C 0.38335 0.05774 0.51183 0.0
C912 C 0.33921 0.07352 0.53118 0.0
C913 C 0.33157 0.08428 0.50474 0.0
H914 H 0.36972 0.05215 0.55523 0.0
H915 H 0.32539 0.07516 0.54929 0.0
S916 S 0.37361 0.08245 0.43845 0.0
N917 N 0.39275 0.0668 0.46211 0.0
N918 N 0.34507 0.09139 0.45541 0.0
C919 C 0.35017 0.08158 0.48177 0.0
C920 C 0.37607 0.06843 0.4854 0.0
C921 C 0.65676 0.47003 0.55738 0.0
C922 C 0.6345 0.47823 0.54021 0.0
C923 C 0.67355 0.4484 0.54904 0.0
C924 C 0.66892 0.43414 0.52305 0.0
H925 H 0.6613 0.48049 0.57747 0.0
H926 H 0.69059 0.44317 0.56298 0.0
S927 S 0.61294 0.44757 0.47046 0.0
N928 N 0.60845 0.4704 0.49618 0.0
N929 N 0.63983 0.42961 0.48041 0.0
C930 C 0.64637 0.44188 0.50585 0.0
C931 C 0.6292 0.4639 0.51446 0.0
C932 C 0.74023 0.34495 0.38218 0.0
C933 C 0.73015 0.31693 0.38287 0.0
C934 C 0.74121 0.36155 0.40676 0.0
C935 C 0.73228 0.35079 0.43313 0.0
H936 H 0.74749 0.35415 0.36243 0.0
H937 H 0.74945 0.38292 0.40505 0.0
S938 S 0.704 0.27844 0.44619 0.0
N939 N 0.71097 0.27902 0.4119 0.0
N940 N 0.71262 0.31013 0.45822 0.0
C941 C 0.72174 0.32281 0.43402 0.0
C942 C 0.72069 0.30593 0.40888 0.0
C943 C 0.56343 0.98891 0.87424 0.0
C944 C 0.55037 0.01254 0.88436 0.0
C945 C 0.5782 0.98937 0.84855 0.0
C946 C 0.5806 0.01353 0.8319 0.0
H947 H 0.56274 0.97 0.88656 0.0
H948 H 0.58817 0.97069 0.84196 0.0
S949 S 0.54839 0.08043 0.84803 0.0
N950 N 0.53939 0.0603 0.87508 0.0
N951 N 0.56742 0.06141 0.82692 0.0
C952 C 0.56719 0.03721 0.84155 0.0
C953 C 0.55206 0.03667 0.86774 0.0
C954 C 0.2779 0.19126 0.38595 0.0
C955 C 0.28611 0.21822 0.39574 0.0
C956 C 0.26985 0.17001 0.40498 0.0
C957 C 0.2697 0.17498 0.43447 0.0
H958 H 0.27811 0.18647 0.36345 0.0
H959 H 0.26405 0.14948 0.3965 0.0
S960 S 0.28669 0.24296 0.47051 0.0
N961 N 0.29167 0.24932 0.4365 0.0
N962 N 0.27683 0.20959 0.4723 0.0
C963 C 0.27727 0.20212 0.44441 0.0
C964 C 0.2854 0.22367 0.42505 0.0
C965 C 0.44701 0.45144 0.84822 0.0
C966 C 0.45943 0.47278 0.86542 0.0
C967 C 0.42411 0.45623 0.83049 0.0
C968 C 0.41305 0.4827 0.82893 0.0
H969 H 0.45527 0.43091 0.84826 0.0
H970 H 0.41567 0.43921 0.81724 0.0
S971 S 0.43759 0.54531 0.87072 0.0
N972 N 0.45857 0.52099 0.8808 0.0
N973 N 0.41572 0.53031 0.84712 0.0
C974 C 0.42495 0.5041 0.84656 0.0
C975 C 0.44806 0.49905 0.86493 0.0
C976 C 0.69139 0.73085 0.08319 0.0
C977 C 0.70375 0.73177 0.11034 0.0
C978 C 0.69849 0.71097 0.06297 0.0
C979 C 0.71821 0.69106 0.06903 0.0
H980 H 0.67655 0.74608 0.07724 0.0
H981 H 0.68863 0.71155 0.04225 0.0
S982 S 0.75525 0.68349 0.13783 0.0
N983 N 0.7356 0.71032 0.14286 0.0
N984 N 0.74917 0.67289 0.10484 0.0
C985 C 0.73027 0.69133 0.09641 0.0
C986 C 0.72305 0.71172 0.11701 0.0
C987 C 0.9551 0.04715 0.16839 0.0
C988 C 0.97989 0.03262 0.16641 0.0
C989 C 0.9344 0.04002 0.18861 0.0
C990 C 0.93766 0.01804 0.20766 0.0
H991 H 0.95207 0.06477 0.15481 0.0
H992 H 0.91604 0.05235 0.18974 0.0
S993 S 0.99746 0.9715 0.20891 0.0
N994 N 0.00558 0.99386 0.18347 0.0
N995 N 0.96687 0.98044 0.22163 0.0
C996 C 0.96192 0.00265 0.20512 0.0
C997 C 0.98298 0.00996 0.1845 0.0
C998 C 0.27901 0.80468 0.12039 0.0
C999 C 0.26605 0.77793 0.12372 0.0
C1000 C 0.26921 0.82305 0.1002 0.0
C1001 C 0.24612 0.81536 0.08237 0.0
H1002 H 0.29704 0.81142 0.13337 0.0
H1003 H 0.28021 0.84328 0.09829 0.0
S1004 S 0.20477 0.74744 0.08279 0.0
N1005 N 0.22894 0.74455 0.10765 0.0
N1006 N 0.21026 0.77905 0.06989 0.0
C1007 C 0.23265 0.78877 0.08587 0.0
C1008 C 0.24265 0.77009 0.10649 0.0
C1009 C 0.02755 0.46758 0.1585 0.0
C1010 C 0.03982 0.48395 0.13675 0.0
C1011 C 0.04063 0.46604 0.18514 0.0
C1012 C 0.06648 0.48083 0.19104 0.0
H1013 H 0.00788 0.45555 0.15478 0.0
H1014 H 0.03047 0.45295 0.20111 0.0
S1015 S 0.10607 0.52851 0.14179 0.0
N1016 N 0.07833 0.51654 0.12331 0.0
N1017 N 0.10312 0.51351 0.17306 0.0
C1018 C 0.07871 0.49766 0.16952 0.0
C1019 C 0.06534 0.49924 0.14248 0.0
C1020 C 0.39047 0.75708 0.30546 0.0
C1021 C 0.38462 0.7284 0.30081 0.0
C1022 C 0.409 0.76681 0.32701 0.0
C1023 C 0.42262 0.74825 0.34461 0.0
H1024 H 0.38149 0.77215 0.29167 0.0
H1025 H 0.41354 0.78905 0.3291 0.0
S1026 S 0.41163 0.67133 0.34378 0.0
N1027 N 0.39157 0.68165 0.31768 0.0
N1028 N 0.42707 0.69996 0.35763 0.0
C1029 C 0.41608 0.71958 0.341 0.0
C1030 C 0.39695 0.70967 0.31925 0.0
C1031 C 0.00297 0.38425 0.92905 0.0
C1032 C 0.98605 0.38352 0.9535 0.0
C1033 C 0.00711 0.3601 0.91319 0.0
C1034 C 0.99454 0.33413 0.9211 0.0
H1035 H 0.01361 0.4036 0.92239 0.0
H1036 H 0.02062 0.36185 0.89474 0.0
S1037 S 0.94675 0.32133 0.98246 0.0
N1038 N 0.95546 0.35501 0.98417 0.0
N1039 N 0.96343 0.30942 0.95458 0.0
C1040 C 0.97717 0.33315 0.94532 0.0
C1041 C 0.97292 0.35786 0.96146 0.0
C1042 C 0.59611 0.78819 0.30224 0.0
C1043 C 0.58912 0.79852 0.2755 0.0
C1044 C 0.57506 0.78029 0.32192 0.0
C1045 C 0.54623 0.78212 0.31543 0.0
H1046 H 0.61802 0.78658 0.30814 0.0
H1047 H 0.5815 0.77267 0.34235 0.0
S1048 S 0.51705 0.80653 0.24737 0.0
N1049 N 0.55157 0.8092 0.243 0.0
N1050 N 0.512 0.79448 0.27973 0.0
C1051 C 0.53905 0.79206 0.28847 0.0
C1052 C 0.56048 0.80023 0.26859 0.0
C1053 C 0.04018 0.16096 0.97429 0.0
C1054 C 0.02273 0.15151 0.99665 0.0
C1055 C 0.03085 0.17988 0.9544 0.0
C1056 C 0.00362 0.19004 0.95598 0.0
H1057 H 0.0615 0.15423 0.97257 0.0
H1058 H 0.04532 0.18686 0.93788 0.0
S1059 S 0.94897 0.16979 0.0094 0.0
N1060 N 0.97646 0.15226 0.0184 0.0
N1061 N 0.95881 0.18789 0.98118 0.0
C1062 C 0.98568 0.18008 0.97787 0.0
C1063 C 0.99526 0.16085 0.99816 0.0
C1064 C 0.40396 0.29222 0.20247 0.0
C1065 C 0.38687 0.27384 0.2189 0.0
C1066 C 0.42248 0.28231 0.18216 0.0
C1067 C 0.42474 0.25358 0.17745 0.0
H1068 H 0.40328 0.3145 0.2056 0.0
H1069 H 0.43545 0.2974 0.17038 0.0
S1070 S 0.38426 0.19674 0.21491 0.0
N1071 N 0.3731 0.22559 0.22911 0.0
N1072 N 0.40767 0.20682 0.19073 0.0
C1073 C 0.4072 0.23494 0.19329 0.0
C1074 C 0.38832 0.2451 0.21404 0.0
C1075 C 0.52804 0.33802 0.02892 0.0
C1076 C 0.52006 0.36567 0.03044 0.0
C1077 C 0.52092 0.31905 0.05042 0.0
C1078 C 0.50551 0.32693 0.0744 0.0
H1079 H 0.54028 0.33105 0.01112 0.0
H1080 H 0.52785 0.29809 0.04827 0.0
S1081 S 0.47812 0.39666 0.08763 0.0
N1082 N 0.49491 0.39982 0.05711 0.0
N1083 N 0.48163 0.36429 0.09777 0.0
C1084 C 0.4971 0.35452 0.07602 0.0
C1085 C 0.50438 0.37385 0.05403 0.0
C1086 C 0.61185 0.2547 0.1886 0.0
C1087 C 0.61395 0.24602 0.21687 0.0
C1088 C 0.5858 0.25398 0.17453 0.0
C1089 C 0.56069 0.24471 0.1882 0.0
H1090 H 0.63057 0.26195 0.17715 0.0
H1091 H 0.58544 0.26091 0.15275 0.0
S1092 S 0.55485 0.22021 0.2626 0.0
N1093 N 0.58884 0.22822 0.25831 0.0
N1094 N 0.53976 0.22671 0.23195 0.0
C1095 C 0.56252 0.23595 0.21657 0.0
C1096 C 0.58916 0.23659 0.23085 0.0
C1097 C 0.49578 0.11458 0.09528 0.0
C1098 C 0.49397 0.11411 0.06549 0.0
C1099 C 0.4959 0.13966 0.11064 0.0
C1100 C 0.49418 0.16532 0.09684 0.0
H1101 H 0.49716 0.09537 0.10686 0.0
H1102 H 0.49755 0.13886 0.13353 0.0
S1103 S 0.48966 0.17543 0.01893 0.0
N1104 N 0.49087 0.14145 0.02265 0.0
N1105 N 0.49068 0.18861 0.05141 0.0
C1106 C 0.49199 0.16511 0.067 0.0
C1107 C 0.49198 0.13952 0.05137 0.0
C1108 C 0.2662 0.43277 0.72955 0.0
C1109 C 0.27157 0.40507 0.72274 0.0
C1110 C 0.28822 0.4523 0.73653 0.0
C1111 C 0.31652 0.44498 0.73647 0.0
H1112 H 0.24477 0.4394 0.72941 0.0
H1113 H 0.28304 0.47345 0.74141 0.0
S1114 S 0.34159 0.37485 0.72049 0.0
N1115 N 0.30698 0.37107 0.71679 0.0
N1116 N 0.34853 0.40775 0.72959 0.0
C1117 C 0.32211 0.41722 0.72994 0.0
C1118 C 0.2996 0.39726 0.7232 0.0
C1119 C 0.27081 0.61589 0.7931 0.0
C1120 C 0.28432 0.63935 0.78043 0.0
C1121 C 0.28334 0.59016 0.79318 0.0
C1122 C 0.30998 0.58697 0.78079 0.0
H1123 H 0.25013 0.61729 0.8025 0.0
H1124 H 0.27187 0.5726 0.80281 0.0
S1125 S 0.35499 0.64297 0.7469 0.0
N1126 N 0.32634 0.65837 0.75667 0.0
N1127 N 0.34997 0.61024 0.75669 0.0
C1128 C 0.32399 0.6106 0.76869 0.0
C1129 C 0.31114 0.6367 0.76853 0.0
C1130 C 0.87518 0.41364 0.49582 0.0
C1131 C 0.87642 0.44284 0.49807 0.0
C1132 C 0.84945 0.39802 0.49769 0.0
C1133 C 0.8239 0.41095 0.5019 0.0
H1134 H 0.89435 0.4027 0.49335 0.0
H1135 H 0.84975 0.37556 0.49635 0.0
S1136 S 0.81555 0.48714 0.5065 0.0
N1137 N 0.84982 0.48427 0.50277 0.0
N1138 N 0.8014 0.455 0.50652 0.0
C1139 C 0.82478 0.44024 0.50339 0.0
C1140 C 0.85103 0.45614 0.50145 0.0
C1141 C 0.70327 0.88771 0.8169 0.0
C1142 C 0.72472 0.88537 0.79664 0.0
C1143 C 0.68092 0.90496 0.81241 0.0
C1144 C 0.67916 0.92075 0.78753 0.0
H1145 H 0.70394 0.87631 0.83658 0.0
H1146 H 0.66525 0.90634 0.82894 0.0
S1147 S 0.72976 0.92133 0.72746 0.0
N1148 N 0.74264 0.89978 0.75054 0.0
N1149 N 0.70057 0.93204 0.74183 0.0
C1150 C 0.70015 0.91801 0.76672 0.0
C1151 C 0.7229 0.90035 0.77133 0.0
C1152 C 0.6359 0.55079 0.00316 0.0
C1153 C 0.64176 0.53606 0.97818 0.0
C1154 C 0.65534 0.57109 0.01435 0.0
C1155 C 0.68129 0.57762 0.00083 0.0
H1156 H 0.61644 0.54609 0.01455 0.0
H1157 H 0.65005 0.58153 0.03391 0.0
S1158 S 0.70565 0.54614 0.93353 0.0
N1159 N 0.67451 0.53024 0.93938 0.0
N1160 N 0.71109 0.56829 0.96019 0.0
C1161 C 0.68699 0.5635 0.97532 0.0
C1162 C 0.66725 0.54274 0.96408 0.0
C1163 C 0.19271 0.61346 0.2351 0.0
C1164 C 0.22066 0.60547 0.23344 0.0
C1165 C 0.17049 0.59395 0.24109 0.0
C1166 C 0.1755 0.56582 0.24599 0.0
H1167 H 0.18791 0.63479 0.23099 0.0
H1168 H 0.14921 0.60095 0.24158 0.0
S1169 S 0.2456 0.53508 0.24596 0.0
N1170 N 0.25253 0.56817 0.23841 0.0
N1171 N 0.21106 0.53142 0.24996 0.0
C1172 C 0.20362 0.55785 0.24525 0.0
C1173 C 0.22612 0.57769 0.23886 0.0
C1174 C 0.8648 0.56658 0.03726 0.0
C1175 C 0.87149 0.54498 0.01859 0.0
C1176 C 0.83984 0.58051 0.03406 0.0
C1177 C 0.82071 0.57356 0.01187 0.0
H1178 H 0.87909 0.5729 0.0544 0.0
H1179 H 0.83586 0.59723 0.04879 0.0
S1180 S 0.82846 0.5182 0.95737 0.0
N1181 N 0.85702 0.51712 0.97728 0.0
N1182 N 0.81005 0.543 0.97126 0.0
C1183 C 0.82698 0.55162 0.99332 0.0
C1184 C 0.85235 0.5374 0.99669 0.0
C1185 C 0.16373 0.99264 0.01981 0.0
C1186 C 0.14627 0.98842 0.0436 0.0
C1187 C 0.18299 0.97305 0.01175 0.0
C1188 C 0.18573 0.94846 0.02725 0.0
H1189 H 0.16263 0.01138 0.0074 0.0
H1190 H 0.19614 0.97752 0.99344 0.0
S1191 S 0.1446 0.92751 0.09132 0.0
N1192 N 0.13273 0.95785 0.08257 0.0
N1193 N 0.16872 0.92084 0.06741 0.0
C1194 C 0.16796 0.94374 0.05085 0.0
C1195 C 0.14829 0.96374 0.059 0.0
loop_
_geom_bond_atom_site_label_1
_geom_bond_atom_site_label_2
_geom_bond_distance
_geom_bond_site_symmetry_2
_ccdc_geom_bond_type
P0 O11 1.490 . S
P0 C14 1.812 . S
P0 C20 1.803 . S
P0 C26 1.819 . S
H1 C15 0.941 . S
H2 C16 0.939 . S
H3 C18 0.940 . S
H4 C19 0.940 . S
H5 C21 0.939 . S
H6 C22 0.942 . S
H7 C24 0.940 . S
H8 C25 0.939 . S
H9 C27 0.941 . S
H10 C31 0.939 . S
O11 P0 1.490 . S
H12 C28 0.939 . S
H13 C30 0.940 . S
C14 P0 1.812 . S
C14 C15 1.389 . S
C14 C19 1.391 . S
C15 H1 0.941 . S
C15 C14 1.389 . S
C15 C16 1.397 . S
C16 H2 0.939 . S
C16 C15 1.397 . S
C16 C17 1.378 1_455 S
C17 C16 1.378 1_655 S
C17 C18 1.378 . S
C18 H3 0.940 . S
C18 C17 1.378 . S
C18 C19 1.396 1_655 S
C19 H4 0.940 . S
C19 C14 1.391 . S
C19 C18 1.396 1_455 S
C20 P0 1.803 . S
C20 C21 1.378 . S
C20 C25 1.400 . S
C21 H5 0.939 . S
C21 C20 1.378 . S
C21 C22 1.361 . S
C22 H6 0.942 . S
C22 C21 1.361 . S
C22 C23 1.369 1_545 S
C23 C22 1.369 1_565 S
C23 C24 1.404 . S
C24 H7 0.940 . S
C24 C23 1.404 . S
C24 C25 1.389 1_565 S
C25 H8 0.939 . S
C25 C20 1.400 . S
C25 C24 1.389 1_545 S
C26 P0 1.819 . S
C26 C27 1.391 . S
C26 C31 1.391 . S
C27 H9 0.941 . S
C27 C26 1.391 . S
C27 C28 1.396 . S
C28 H12 0.939 . S
C28 C27 1.396 . S
C28 C29 1.375 1_554 S
C29 C28 1.375 1_556 S
C29 C30 1.388 . S
C30 H13 0.940 . S
C30 C29 1.388 . S
C30 C31 1.388 1_556 S
C31 H10 0.939 . S
C31 C26 1.391 . S
C31 C30 1.388 1_554 S
P32 O43 1.490 . S
P32 C46 1.812 . S
P32 C52 1.803 . S
P32 C58 1.819 . S
H33 C47 0.941 . S
H34 C48 0.939 . S
H35 C50 0.940 . S
H36 C51 0.940 . S
H37 C53 0.939 . S
H38 C54 0.942 . S
H39 C56 0.940 . S
H40 C57 0.939 . S
H41 C59 0.941 . S
H42 C63 0.939 . S
O43 P32 1.490 . S
H44 C60 0.939 . S
H45 C62 0.940 . S
C46 P32 1.812 . S
C46 C47 1.389 . S
C46 C51 1.391 . S
C47 H33 0.941 . S
C47 C46 1.389 . S
C47 C48 1.397 . S
C48 H34 0.939 . S
C48 C47 1.397 . S
C48 C49 1.378 . S
C49 C48 1.378 . S
C49 C50 1.378 . S
C50 H35 0.940 . S
C50 C49 1.378 . S
C50 C51 1.396 . S
C51 H36 0.940 . S
C51 C46 1.391 . S
C51 C50 1.396 . S
C52 P32 1.803 . S
C52 C53 1.378 . S
C52 C57 1.400 . S
C53 H37 0.939 . S
C53 C52 1.378 . S
C53 C54 1.361 . S
C54 H38 0.942 . S
C54 C53 1.361 . S
C54 C55 1.369 . S
C55 C54 1.369 . S
C55 C56 1.404 . S
C56 H39 0.940 . S
C56 C55 1.404 . S
C56 C57 1.389 . S
C57 H40 0.939 . S
C57 C52 1.400 . S
C57 C56 1.389 . S
C58 P32 1.819 . S
C58 C59 1.391 . S
C58 C63 1.391 . S
C59 H41 0.941 . S
C59 C58 1.391 . S
C59 C60 1.396 . S
C60 H44 0.939 . S
C60 C59 1.396 . S
C60 C61 1.397 . S
C61 C60 1.397 . S
C61 C62 1.385 . S
C62 H45 0.940 . S
C62 C61 1.385 . S
C62 C63 1.388 . S
C63 H42 0.939 . S
C63 C58 1.391 . S
C63 C62 1.388 . S
P64 O75 1.490 1_654 S
P64 C78 1.812 . S
P64 C84 1.803 . S
P64 C90 1.819 1_655 S
H65 C79 0.941 . S
H66 C80 0.939 . S
H67 C82 0.940 . S
H68 C83 0.940 . S
H69 C85 0.939 . S
H70 C86 0.942 . S
H71 C88 0.940 . S
H72 C89 0.939 . S
H73 C91 0.941 . S
H74 C95 0.939 . S
O75 P64 1.490 1_456 S
H76 C92 0.939 . S
H77 C94 0.940 . S
C78 P64 1.812 . S
C78 C79 1.389 1_554 S
C78 C83 1.391 . S
C79 H65 0.941 . S
C79 C78 1.389 1_556 S
C79 C80 1.397 . S
C80 H66 0.939 . S
C80 C79 1.397 . S
C80 C81 1.378 . S
C81 C80 1.378 . S
C81 C82 1.378 1_556 S
C82 H67 0.940 . S
C82 C81 1.378 1_554 S
C82 C83 1.396 . S
C83 H68 0.940 . S
C83 C78 1.391 . S
C83 C82 1.396 . S
C84 P64 1.803 . S
C84 C85 1.378 . S
C84 C89 1.400 . S
C85 H69 0.939 . S
C85 C84 1.378 . S
C85 C86 1.361 . S
C86 H70 0.942 . S
C86 C85 1.361 . S
C86 C87 1.369 . S
C87 C86 1.369 . S
C87 C88 1.404 . S
C88 H71 0.940 . S
C88 C87 1.404 . S
C88 C89 1.389 . S
C89 H72 0.939 . S
C89 C84 1.400 . S
C89 C88 1.389 . S
C90 P64 1.819 1_455 S
C90 C91 1.391 . S
C90 C95 1.391 1_455 S
C91 H73 0.941 . S
C91 C90 1.391 . S
C91 C92 1.396 . S
C92 H76 0.939 . S
C92 C91 1.396 . S
C92 C93 1.397 . S
C93 C92 1.397 . S
C93 C94 1.385 1_455 S
C94 H77 0.940 . S
C94 C93 1.385 1_655 S
C94 C95 1.388 . S
C95 H74 0.939 . S
C95 C90 1.391 1_655 S
C95 C94 1.388 . S
P96 O107 1.490 . S
P96 C110 1.812 . S
P96 C116 1.803 . S
P96 C122 1.819 . S
H97 C111 0.941 . S
H98 C112 0.939 . S
H99 C114 0.940 . S
H100 C115 0.940 . S
H101 C117 0.939 . S
H102 C118 0.942 . S
H103 C120 0.940 . S
H104 C121 0.939 . S
H105 C123 0.941 . S
H106 C127 0.939 . S
O107 P96 1.490 . S
H108 C124 0.939 . S
H109 C126 0.940 . S
C110 P96 1.812 . S
C110 C111 1.389 . S
C110 C115 1.391 . S
C111 H97 0.941 . S
C111 C110 1.389 . S
C111 C112 1.397 . S
C112 H98 0.939 . S
C112 C111 1.397 . S
C112 C113 1.378 . S
C113 C112 1.378 . S
C113 C114 1.378 . S
C114 H99 0.940 . S
C114 C113 1.378 . S
C114 C115 1.396 . S
C115 H100 0.940 . S
C115 C110 1.391 . S
C115 C114 1.396 . S
C116 P96 1.803 . S
C116 C117 1.378 . S
C116 C121 1.400 . S
C117 H101 0.939 . S
C117 C116 1.378 . S
C117 C118 1.361 . S
C118 H102 0.942 . S
C118 C117 1.361 . S
C118 C119 1.369 . S
C119 C118 1.369 . S
C119 C120 1.404 . S
C120 H103 0.940 . S
C120 C119 1.404 . S
C120 C121 1.389 . S
C121 H104 0.939 . S
C121 C116 1.400 . S
C121 C120 1.389 . S
C122 P96 1.819 . S
C122 C123 1.391 . S
C122 C127 1.391 . S
C123 H105 0.941 . S
C123 C122 1.391 . S
C123 C124 1.396 . S
C124 H108 0.939 . S
C124 C123 1.396 . S
C124 C125 1.397 . S
C125 C124 1.397 . S
C125 C126 1.385 . S
C126 H109 0.940 . S
C126 C125 1.385 . S
C126 C127 1.388 . S
C127 H106 0.939 . S
C127 C122 1.391 . S
C127 C126 1.388 . S
P128 O139 1.490 . S
P128 C142 1.812 . S
P128 C148 1.803 . S
P128 C154 1.819 . S
H129 C143 0.941 . S
H130 C144 0.939 . S
H131 C146 0.940 . S
H132 C147 0.940 . S
H133 C149 0.939 . S
H134 C150 0.942 . S
H135 C152 0.940 . S
H136 C153 0.939 . S
H137 C155 0.941 . S
H138 C159 0.937 1_655 S
O139 P128 1.490 . S
H140 C156 0.939 . S
H141 C158 0.940 . S
C142 P128 1.812 . S
C142 C143 1.389 . S
C142 C147 1.391 1_565 S
C143 H129 0.941 . S
C143 C142 1.389 . S
C143 C144 1.397 1_565 S
C144 H130 0.939 . S
C144 C143 1.397 1_545 S
C144 C145 1.378 . S
C145 C144 1.378 . S
C145 C146 1.378 . S
C146 H131 0.940 . S
C146 C145 1.378 . S
C146 C147 1.396 . S
C147 H132 0.940 . S
C147 C142 1.391 1_545 S
C147 C146 1.396 . S
C148 P128 1.803 . S
C148 C149 1.378 . S
C148 C153 1.400 . S
C149 H133 0.939 . S
C149 C148 1.378 . S
C149 C150 1.361 . S
C150 H134 0.942 . S
C150 C149 1.361 . S
C150 C151 1.369 . S
C151 C150 1.369 . S
C151 C152 1.404 . S
C152 H135 0.940 . S
C152 C151 1.404 . S
C152 C153 1.389 . S
C153 H136 0.939 . S
C153 C148 1.400 . S
C153 C152 1.389 . S
C154 P128 1.819 . S
C154 C155 1.391 . S
C154 C159 1.391 . S
C155 H137 0.941 . S
C155 C154 1.391 . S
C155 C156 1.396 . S
C156 H140 0.939 . S
C156 C155 1.396 . S
C156 C157 1.397 1_455 S
C157 C156 1.397 1_655 S
C157 C158 1.385 . S
C158 H141 0.940 . S
C158 C157 1.385 . S
C158 C159 1.388 1_655 S
C159 H138 0.937 1_455 S
C159 C154 1.391 . S
C159 C158 1.388 1_455 S
P160 O171 1.490 . S
P160 C174 1.812 . S
P160 C180 1.803 . S
P160 C186 1.819 . S
H161 C175 0.941 . S
H162 C176 0.939 . S
H163 C178 0.940 . S
H164 C179 0.940 . S
H165 C181 0.939 . S
H166 C182 0.942 . S
H167 C184 0.940 . S
H168 C185 0.939 . S
H169 C187 0.941 . S
H170 C191 0.939 . S
O171 P160 1.490 . S
H172 C188 0.939 . S
H173 C190 0.940 . S
C174 P160 1.812 . S
C174 C175 1.389 . S
C174 C179 1.391 . S
C175 H161 0.941 . S
C175 C174 1.389 . S
C175 C176 1.397 . S
C176 H162 0.939 . S
C176 C175 1.397 . S
C176 C177 1.378 . S
C177 C176 1.378 . S
C177 C178 1.378 . S
C178 H163 0.940 . S
C178 C177 1.378 . S
C178 C179 1.396 . S
C179 H164 0.940 . S
C179 C174 1.391 . S
C179 C178 1.396 . S
C180 P160 1.803 . S
C180 C181 1.378 . S
C180 C185 1.400 . S
C181 H165 0.939 . S
C181 C180 1.378 . S
C181 C182 1.361 . S
C182 H166 0.942 . S
C182 C181 1.361 . S
C182 C183 1.369 . S
C183 C182 1.369 . S
C183 C184 1.404 . S
C184 H167 0.940 . S
C184 C183 1.404 . S
C184 C185 1.389 . S
C185 H168 0.939 . S
C185 C180 1.400 . S
C185 C184 1.389 . S
C186 P160 1.819 . S
C186 C187 1.391 . S
C186 C191 1.391 . S
C187 H169 0.941 . S
C187 C186 1.391 . S
C187 C188 1.396 . S
C188 H172 0.939 . S
C188 C187 1.396 . S
C188 C189 1.397 . S
C189 C188 1.397 . S
C189 C190 1.385 . S
C190 H173 0.940 . S
C190 C189 1.385 . S
C190 C191 1.388 . S
C191 H170 0.939 . S
C191 C186 1.391 . S
C191 C190 1.388 . S
P192 O203 1.490 1_655 S
P192 C206 1.805 1_655 S
P192 C212 1.803 . S
P192 C218 1.819 . S
H193 C207 0.941 . S
H194 C208 0.939 . S
H195 C210 0.940 . S
H196 C211 0.940 . S
H197 C213 0.939 . S
H198 C214 0.942 . S
H199 C216 0.940 . S
H200 C217 0.939 . S
H201 C219 0.941 . S
H202 C223 0.939 . S
O203 P192 1.490 1_455 S
H204 C220 0.939 . S
H205 C222 0.940 . S
C206 P192 1.805 1_455 S
C206 C207 1.410 . S
C206 C211 1.378 1_455 S
C207 H193 0.941 . S
C207 C206 1.410 . S
C207 C208 1.397 . S
C208 H194 0.939 . S
C208 C207 1.397 . S
C208 C209 1.378 . S
C209 C208 1.378 . S
C209 C210 1.378 1_455 S
C210 H195 0.940 . S
C210 C209 1.378 1_655 S
C210 C211 1.396 . S
C211 H196 0.940 . S
C211 C206 1.378 1_655 S
C211 C210 1.396 . S
C212 P192 1.803 . S
C212 C213 1.378 . S
C212 C217 1.400 . S
C213 H197 0.939 . S
C213 C212 1.378 . S
C213 C214 1.361 . S
C214 H198 0.942 . S
C214 C213 1.361 . S
C214 C215 1.369 . S
C215 C214 1.369 . S
C215 C216 1.404 . S
C216 H199 0.940 . S
C216 C215 1.404 . S
C216 C217 1.389 . S
C217 H200 0.939 . S
C217 C212 1.400 . S
C217 C216 1.389 . S
C218 P192 1.819 . S
C218 C219 1.391 . S
C218 C223 1.391 . S
C219 H201 0.941 . S
C219 C218 1.391 . S
C219 C220 1.396 . S
C220 H204 0.939 . S
C220 C219 1.396 . S
C220 C221 1.397 . S
C221 C220 1.397 . S
C221 C222 1.385 . S
C222 H205 0.940 . S
C222 C221 1.385 . S
C222 C223 1.388 . S
C223 H202 0.939 . S
C223 C218 1.391 . S
C223 C222 1.388 . S
P224 O235 1.490 . S
P224 C238 1.812 . S
P224 C244 1.803 . S
P224 C250 1.819 . S
H225 C239 0.941 . S
H226 C240 0.939 . S
H227 C242 0.940 . S
H228 C243 0.940 . S
H229 C245 0.939 . S
H230 C246 0.942 . S
H231 C248 0.940 . S
H232 C249 0.939 . S
H233 C251 0.941 . S
H234 C255 0.939 . S
O235 P224 1.490 . S
H236 C252 0.939 . S
H237 C254 0.940 . S
C238 P224 1.812 . S
C238 C239 1.389 . S
C238 C243 1.391 . S
C239 H225 0.941 . S
C239 C238 1.389 . S
C239 C240 1.397 . S
C240 H226 0.939 . S
C240 C239 1.397 . S
C240 C241 1.378 . S
C241 C240 1.378 . S
C241 C242 1.378 . S
C242 H227 0.940 . S
C242 C241 1.378 . S
C242 C243 1.396 . S
C243 H228 0.940 . S
C243 C238 1.391 . S
C243 C242 1.396 . S
C244 P224 1.803 . S
C244 C245 1.378 . S
C244 C249 1.400 . S
C245 H229 0.939 . S
C245 C244 1.378 . S
C245 C246 1.361 . S
C246 H230 0.942 . S
C246 C245 1.361 . S
C246 C247 1.369 . S
C247 C246 1.369 . S
C247 C248 1.404 . S
C248 H231 0.940 . S
C248 C247 1.404 . S
C248 C249 1.389 . S
C249 H232 0.939 . S
C249 C244 1.400 . S
C249 C248 1.389 . S
C250 P224 1.819 . S
C250 C251 1.391 . S
C250 C255 1.391 . S
C251 H233 0.941 . S
C251 C250 1.391 . S
C251 C252 1.396 . S
C252 H236 0.939 . S
C252 C251 1.396 . S
C252 C253 1.397 . S
C253 C252 1.397 . S
C253 C254 1.385 . S
C254 H237 0.940 . S
C254 C253 1.385 . S
C254 C255 1.388 . S
C255 H234 0.939 . S
C255 C250 1.391 . S
C255 C254 1.388 . S
P256 O267 1.490 . S
P256 C270 1.812 . S
P256 C276 1.803 . S
P256 C282 1.819 . S
H257 C271 0.941 . S
H258 C272 0.939 . S
H259 C274 0.940 . S
H260 C275 0.940 . S
H261 C277 0.939 . S
H262 C278 0.942 . S
H263 C280 0.940 . S
H264 C281 0.939 . S
H265 C283 0.941 . S
H266 C287 0.939 . S
O267 P256 1.490 . S
H268 C284 0.939 . S
H269 C286 0.940 . S
C270 P256 1.812 . S
C270 C271 1.389 . S
C270 C275 1.391 . S
C271 H257 0.941 . S
C271 C270 1.389 . S
C271 C272 1.397 . S
C272 H258 0.939 . S
C272 C271 1.397 . S
C272 C273 1.378 . S
C273 C272 1.378 . S
C273 C274 1.378 . S
C274 H259 0.940 . S
C274 C273 1.378 . S
C274 C275 1.396 . S
C275 H260 0.940 . S
C275 C270 1.391 . S
C275 C274 1.396 . S
C276 P256 1.803 . S
C276 C277 1.378 . S
C276 C281 1.400 . S
C277 H261 0.939 . S
C277 C276 1.378 . S
C277 C278 1.361 . S
C278 H262 0.942 . S
C278 C277 1.361 . S
C278 C279 1.369 . S
C279 C278 1.369 . S
C279 C280 1.404 . S
C280 H263 0.940 . S
C280 C279 1.404 . S
C280 C281 1.389 . S
C281 H264 0.939 . S
C281 C276 1.400 . S
C281 C280 1.389 . S
C282 P256 1.819 . S
C282 C283 1.391 . S
C282 C287 1.391 . S
C283 H265 0.941 . S
C283 C282 1.391 . S
C283 C284 1.396 . S
C284 H268 0.939 . S
C284 C283 1.396 . S
C284 C285 1.397 . S
C285 C284 1.397 . S
C285 C286 1.385 . S
C286 H269 0.940 . S
C286 C285 1.385 . S
C286 C287 1.388 . S
C287 H266 0.939 . S
C287 C282 1.391 . S
C287 C286 1.388 . S
P288 O299 1.490 1_565 S
P288 C302 1.812 . S
P288 C308 1.803 1_565 S
P288 C314 1.819 . S
H289 C303 0.941 . S
H290 C304 0.939 . S
H291 C306 0.940 . S
H292 C307 0.940 . S
H293 C309 0.939 . S
H294 C310 0.942 . S
H295 C312 0.940 . S
H296 C313 0.939 . S
H297 C315 0.941 . S
H298 C319 0.939 . S
O299 P288 1.490 1_545 S
H300 C316 0.939 . S
H301 C318 0.940 . S
C302 P288 1.812 . S
C302 C303 1.389 . S
C302 C307 1.391 . S
C303 H289 0.941 . S
C303 C302 1.389 . S
C303 C304 1.397 . S
C304 H290 0.939 . S
C304 C303 1.397 . S
C304 C305 1.378 . S
C305 C304 1.378 . S
C305 C306 1.378 . S
C306 H291 0.940 . S
C306 C305 1.378 . S
C306 C307 1.396 . S
C307 H292 0.940 . S
C307 C302 1.391 . S
C307 C306 1.396 . S
C308 P288 1.803 1_545 S
C308 C309 1.378 . S
C308 C313 1.400 1_545 S
C309 H293 0.939 . S
C309 C308 1.378 . S
C309 C310 1.361 . S
C310 H294 0.942 . S
C310 C309 1.361 . S
C310 C311 1.369 . S
C311 C310 1.369 . S
C311 C312 1.404 1_545 S
C312 H295 0.940 . S
C312 C311 1.404 1_565 S
C312 C313 1.389 . S
C313 H296 0.939 . S
C313 C308 1.400 1_565 S
C313 C312 1.389 . S
C314 P288 1.819 . S
C314 C315 1.391 . S
C314 C319 1.391 . S
C315 H297 0.941 . S
C315 C314 1.391 . S
C315 C316 1.396 . S
C316 H300 0.939 . S
C316 C315 1.396 . S
C316 C317 1.397 . S
C317 C316 1.397 . S
C317 C318 1.385 . S
C318 H301 0.940 . S
C318 C317 1.385 . S
C318 C319 1.388 . S
C319 H298 0.939 . S
C319 C314 1.391 . S
C319 C318 1.388 . S
P320 O331 1.490 . S
P320 C334 1.812 . S
P320 C340 1.803 . S
P320 C346 1.819 . S
H321 C335 0.941 . S
H322 C336 0.939 . S
H323 C338 0.940 . S
H324 C339 0.940 . S
H325 C341 0.939 . S
H326 C342 0.942 . S
H327 C344 0.940 . S
H328 C345 0.939 . S
H329 C347 0.941 . S
H330 C351 0.939 . S
O331 P320 1.490 . S
H332 C348 0.939 . S
H333 C350 0.940 . S
C334 P320 1.812 . S
C334 C335 1.389 . S
C334 C339 1.391 . S
C335 H321 0.941 . S
C335 C334 1.389 . S
C335 C336 1.397 . S
C336 H322 0.939 . S
C336 C335 1.397 . S
C336 C337 1.378 . S
C337 C336 1.378 . S
C337 C338 1.378 . S
C338 H323 0.940 . S
C338 C337 1.378 . S
C338 C339 1.396 . S
C339 H324 0.940 . S
C339 C334 1.391 . S
C339 C338 1.396 . S
C340 P320 1.803 . S
C340 C341 1.378 . S
C340 C345 1.400 . S
C341 H325 0.939 . S
C341 C340 1.378 . S
C341 C342 1.361 . S
C342 H326 0.942 . S
C342 C341 1.361 . S
C342 C343 1.369 . S
C343 C342 1.369 . S
C343 C344 1.404 . S
C344 H327 0.940 . S
C344 C343 1.404 . S
C344 C345 1.389 . S
C345 H328 0.939 . S
C345 C340 1.400 . S
C345 C344 1.389 . S
C346 P320 1.819 . S
C346 C347 1.391 . S
C346 C351 1.391 . S
C347 H329 0.941 . S
C347 C346 1.391 . S
C347 C348 1.396 . S
C348 H332 0.939 . S
C348 C347 1.396 . S
C348 C349 1.397 . S
C349 C348 1.397 . S
C349 C350 1.385 . S
C350 H333 0.940 . S
C350 C349 1.385 . S
C350 C351 1.388 . S
C351 H330 0.939 . S
C351 C346 1.391 . S
C351 C350 1.388 . S
P352 O363 1.490 . S
P352 C366 1.812 . S
P352 C372 1.803 . S
P352 C378 1.819 . S
H353 C367 0.941 . S
H354 C368 0.939 . S
H355 C370 0.940 . S
H356 C371 0.940 . S
H357 C373 0.939 . S
H358 C374 0.942 . S
H359 C376 0.940 . S
H360 C377 0.939 . S
H361 C379 0.941 . S
H362 C383 0.939 . S
O363 P352 1.490 . S
H364 C380 0.939 . S
H365 C382 0.940 . S
C366 P352 1.812 . S
C366 C367 1.389 . S
C366 C371 1.391 . S
C367 H353 0.941 . S
C367 C366 1.389 . S
C367 C368 1.397 . S
C368 H354 0.939 . S
C368 C367 1.397 . S
C368 C369 1.378 . S
C369 C368 1.378 . S
C369 C370 1.378 . S
C370 H355 0.940 . S
C370 C369 1.378 . S
C370 C371 1.396 . S
C371 H356 0.940 . S
C371 C366 1.391 . S
C371 C370 1.396 . S
C372 P352 1.803 . S
C372 C373 1.378 . S
C372 C377 1.400 . S
C373 H357 0.939 . S
C373 C372 1.378 . S
C373 C374 1.361 . S
C374 H358 0.942 . S
C374 C373 1.361 . S
C374 C375 1.369 . S
C375 C374 1.369 . S
C375 C376 1.404 . S
C376 H359 0.940 . S
C376 C375 1.404 . S
C376 C377 1.389 . S
C377 H360 0.939 . S
C377 C372 1.400 . S
C377 C376 1.389 . S
C378 P352 1.819 . S
C378 C379 1.391 . S
C378 C383 1.391 . S
C379 H361 0.941 . S
C379 C378 1.391 . S
C379 C380 1.396 . S
C380 H364 0.939 . S
C380 C379 1.396 . S
C380 C381 1.397 . S
C381 C380 1.397 . S
C381 C382 1.385 . S
C382 H365 0.940 . S
C382 C381 1.385 . S
C382 C383 1.388 . S
C383 H362 0.939 . S
C383 C378 1.391 . S
C383 C382 1.388 . S
P384 O395 1.490 . S
P384 C398 1.812 . S
P384 C404 1.803 . S
P384 C410 1.819 . S
H385 C399 0.941 . S
H386 C400 0.939 . S
H387 C402 0.940 . S
H388 C403 0.940 . S
H389 C405 0.939 . S
H390 C406 0.942 . S
H391 C408 0.940 . S
H392 C409 0.939 . S
H393 C411 0.941 . S
H394 C415 0.939 . S
O395 P384 1.490 . S
H396 C412 0.939 . S
H397 C414 0.940 . S
C398 P384 1.812 . S
C398 C399 1.389 . S
C398 C403 1.391 . S
C399 H385 0.941 . S
C399 C398 1.389 . S
C399 C400 1.397 . S
C400 H386 0.939 . S
C400 C399 1.397 . S
C400 C401 1.378 . S
C401 C400 1.378 . S
C401 C402 1.378 . S
C402 H387 0.940 . S
C402 C401 1.378 . S
C402 C403 1.396 . S
C403 H388 0.940 . S
C403 C398 1.391 . S
C403 C402 1.396 . S
C404 P384 1.803 . S
C404 C405 1.378 . S
C404 C409 1.400 . S
C405 H389 0.939 . S
C405 C404 1.378 . S
C405 C406 1.361 . S
C406 H390 0.942 . S
C406 C405 1.361 . S
C406 C407 1.369 . S
C407 C406 1.369 . S
C407 C408 1.404 . S
C408 H391 0.940 . S
C408 C407 1.404 . S
C408 C409 1.389 . S
C409 H392 0.939 . S
C409 C404 1.400 . S
C409 C408 1.389 . S
C410 P384 1.819 . S
C410 C411 1.391 . S
C410 C415 1.391 . S
C411 H393 0.941 . S
C411 C410 1.391 . S
C411 C412 1.396 . S
C412 H396 0.939 . S
C412 C411 1.396 . S
C412 C413 1.397 . S
C413 C412 1.397 . S
C413 C414 1.385 . S
C414 H397 0.940 . S
C414 C413 1.385 . S
C414 C415 1.388 . S
C415 H394 0.939 . S
C415 C410 1.391 . S
C415 C414 1.388 . S
P416 O427 1.490 . S
P416 C430 1.812 . S
P416 C436 1.803 . S
P416 C442 1.819 . S
H417 C431 0.941 . S
H418 C432 0.939 . S
H419 C434 0.940 . S
H420 C435 0.940 . S
H421 C437 0.939 . S
H422 C438 0.942 . S
H423 C440 0.940 . S
H424 C441 0.938 1_554 S
H425 C443 0.941 . S
H426 C447 0.939 . S
O427 P416 1.490 . S
H428 C444 0.939 . S
H429 C446 0.940 . S
C430 P416 1.812 . S
C430 C431 1.389 . S
C430 C435 1.391 . S
C431 H417 0.941 . S
C431 C430 1.389 . S
C431 C432 1.397 . S
C432 H418 0.939 . S
C432 C431 1.397 . S
C432 C433 1.378 . S
C433 C432 1.378 . S
C433 C434 1.378 . S
C434 H419 0.940 . S
C434 C433 1.378 . S
C434 C435 1.396 . S
C435 H420 0.940 . S
C435 C430 1.391 . S
C435 C434 1.396 . S
C436 P416 1.803 . S
C436 C437 1.378 . S
C436 C441 1.413 . S
C437 H421 0.939 . S
C437 C436 1.378 . S
C437 C438 1.361 . S
C438 H422 0.942 . S
C438 C437 1.361 . S
C438 C439 1.369 1_556 S
C439 C438 1.369 1_554 S
C439 C440 1.404 . S
C440 H423 0.940 . S
C440 C439 1.404 . S
C440 C441 1.378 1_554 S
C441 H424 0.938 1_556 S
C441 C436 1.413 . S
C441 C440 1.378 1_556 S
C442 P416 1.819 . S
C442 C443 1.391 . S
C442 C447 1.391 . S
C443 H425 0.941 . S
C443 C442 1.391 . S
C443 C444 1.396 . S
C444 H428 0.939 . S
C444 C443 1.396 . S
C444 C445 1.397 . S
C445 C444 1.397 . S
C445 C446 1.385 . S
C446 H429 0.940 . S
C446 C445 1.385 . S
C446 C447 1.388 . S
C447 H426 0.939 . S
C447 C442 1.391 . S
C447 C446 1.388 . S
P448 O459 1.490 . S
P448 C462 1.812 . S
P448 C468 1.803 . S
P448 C474 1.819 . S
H449 C463 0.941 . S
H450 C464 0.939 . S
H451 C466 0.940 . S
H452 C467 0.940 . S
H453 C469 0.939 . S
H454 C470 0.942 . S
H455 C472 0.940 . S
H456 C473 0.939 . S
H457 C475 0.941 . S
H458 C479 0.939 . S
O459 P448 1.490 . S
H460 C476 0.939 . S
H461 C478 0.940 . S
C462 P448 1.812 . S
C462 C463 1.389 . S
C462 C467 1.391 . S
C463 H449 0.941 . S
C463 C462 1.389 . S
C463 C464 1.397 . S
C464 H450 0.939 . S
C464 C463 1.397 . S
C464 C465 1.378 . S
C465 C464 1.378 . S
C465 C466 1.378 . S
C466 H451 0.940 . S
C466 C465 1.378 . S
C466 C467 1.396 . S
C467 H452 0.940 . S
C467 C462 1.391 . S
C467 C466 1.396 . S
C468 P448 1.803 . S
C468 C469 1.378 . S
C468 C473 1.400 . S
C469 H453 0.939 . S
C469 C468 1.378 . S
C469 C470 1.361 . S
C470 H454 0.942 . S
C470 C469 1.361 . S
C470 C471 1.369 . S
C471 C470 1.369 . S
C471 C472 1.404 . S
C472 H455 0.940 . S
C472 C471 1.404 . S
C472 C473 1.389 . S
C473 H456 0.939 . S
C473 C468 1.400 . S
C473 C472 1.389 . S
C474 P448 1.819 . S
C474 C475 1.391 . S
C474 C479 1.391 . S
C475 H457 0.941 . S
C475 C474 1.391 . S
C475 C476 1.396 . S
C476 H460 0.939 . S
C476 C475 1.396 . S
C476 C477 1.397 . S
C477 C476 1.397 . S
C477 C478 1.385 . S
C478 H461 0.940 . S
C478 C477 1.385 . S
C478 C479 1.388 . S
C479 H458 0.939 . S
C479 C474 1.391 . S
C479 C478 1.388 . S
P480 O491 1.490 1_556 S
P480 C494 1.812 . S
P480 C500 1.803 1_556 S
P480 C506 1.819 . S
H481 C495 0.941 . S
H482 C496 0.939 . S
H483 C498 0.940 . S
H484 C499 0.940 . S
H485 C501 0.939 . S
H486 C502 0.942 . S
H487 C504 0.940 1_556 S
H488 C505 0.939 . S
H489 C507 0.941 . S
H490 C511 0.939 1_554 S
O491 P480 1.490 1_554 S
H492 C508 0.939 . S
H493 C510 0.940 . S
C494 P480 1.812 . S
C494 C495 1.389 . S
C494 C499 1.391 . S
C495 H481 0.941 . S
C495 C494 1.389 . S
C495 C496 1.397 . S
C496 H482 0.939 . S
C496 C495 1.397 . S
C496 C497 1.378 . S
C497 C496 1.378 . S
C497 C498 1.378 . S
C498 H483 0.940 . S
C498 C497 1.378 . S
C498 C499 1.396 . S
C499 H484 0.940 . S
C499 C494 1.391 . S
C499 C498 1.396 . S
C500 P480 1.803 1_554 S
C500 C501 1.378 . S
C500 C505 1.400 1_554 S
C501 H485 0.939 . S
C501 C500 1.378 . S
C501 C502 1.361 . S
C502 H486 0.942 . S
C502 C501 1.361 . S
C502 C503 1.369 . S
C503 C502 1.369 . S
C503 C504 1.404 . S
C504 H487 0.940 1_554 S
C504 C503 1.404 . S
C504 C505 1.389 1_554 S
C505 H488 0.939 . S
C505 C500 1.400 1_556 S
C505 C504 1.389 1_556 S
C506 P480 1.819 . S
C506 C507 1.391 1_545 S
C506 C511 1.391 . S
C507 H489 0.941 . S
C507 C506 1.391 1_565 S
C507 C508 1.396 . S
C508 H492 0.939 . S
C508 C507 1.396 . S
C508 C509 1.397 . S
C509 C508 1.397 . S
C509 C510 1.385 1_565 S
C510 H493 0.940 . S
C510 C509 1.385 1_545 S
C510 C511 1.388 . S
C511 H490 0.939 1_556 S
C511 C506 1.391 . S
C511 C510 1.388 . S
C512 O513 1.160 1_554 S
C512 O519 1.185 . S
O513 C512 1.160 1_556 S
O514 Zn515 1.899 1_556 S
O514 C522 1.284 . S
Zn515 O514 1.899 1_554 S
Zn515 O516 2.032 . S
Zn515 O519 2.086 . S
Zn515 O524 1.977 . S
O516 Zn515 2.032 . S
O516 C520 1.278 . S
C517 O518 1.203 . S
C517 O524 1.267 . S
O518 C517 1.203 . S
O519 C512 1.185 . S
O519 Zn515 2.086 . S
C520 O516 1.278 . S
C520 O521 1.211 . S
O521 C520 1.211 . S
C522 O514 1.284 . S
C522 O523 1.273 . S
O523 C522 1.273 . S
O524 Zn515 1.977 . S
O524 C517 1.267 . S
C525 O526 1.160 . S
C525 O532 1.185 . S
O526 C525 1.160 . S
O527 Zn528 1.899 . S
O527 C535 1.284 . S
Zn528 O527 1.899 . S
Zn528 O529 2.032 . S
Zn528 O532 2.086 . S
Zn528 O537 1.977 . S
O529 Zn528 2.032 . S
O529 C533 1.278 . S
C530 O531 1.203 . S
C530 O537 1.267 . S
O531 C530 1.203 . S
O532 C525 1.185 . S
O532 Zn528 2.086 . S
C533 O529 1.278 . S
C533 O534 1.211 . S
O534 C533 1.211 . S
C535 O527 1.284 . S
C535 O536 1.273 . S
O536 C535 1.273 . S
O537 Zn528 1.977 . S
O537 C530 1.267 . S
C538 O539 1.160 1_554 S
C538 O545 1.185 . S
O539 C538 1.160 1_556 S
O540 Zn541 1.899 1_556 S
O540 C548 1.284 . S
Zn541 O540 1.899 1_554 S
Zn541 O542 2.032 1_554 S
Zn541 O545 2.086 . S
Zn541 O550 1.977 . S
O542 Zn541 2.032 1_556 S
O542 C546 1.278 . S
C543 O544 1.203 . S
C543 O550 1.267 . S
O544 C543 1.203 . S
O545 C538 1.185 . S
O545 Zn541 2.086 . S
C546 O542 1.278 . S
C546 O547 1.211 1_556 S
O547 C546 1.211 1_554 S
C548 O540 1.284 . S
C548 O549 1.273 . S
O549 C548 1.273 . S
O550 Zn541 1.977 . S
O550 C543 1.267 . S
C551 O552 1.160 . S
C551 O558 1.185 . S
O552 C551 1.160 . S
O553 Zn554 1.899 . S
O553 C561 1.284 . S
Zn554 O553 1.899 . S
Zn554 O555 2.032 1_545 S
Zn554 O558 2.086 . S
Zn554 O563 1.977 . S
O555 Zn554 2.032 1_565 S
O555 C559 1.278 . S
C556 O557 1.203 . S
C556 O563 1.267 . S
O557 C556 1.203 . S
O558 C551 1.185 . S
O558 Zn554 2.086 . S
C559 O555 1.278 . S
C559 O560 1.211 . S
O560 C559 1.211 . S
C561 O553 1.284 . S
C561 O562 1.273 1_545 S
O562 C561 1.273 1_565 S
O563 Zn554 1.977 . S
O563 C556 1.267 . S
C564 O565 1.160 . S
C564 O571 1.185 . S
O565 C564 1.160 . S
O566 Zn567 1.899 . S
O566 C574 1.284 . S
Zn567 O566 1.899 . S
Zn567 O568 2.032 . S
Zn567 O571 2.086 . S
Zn567 O576 1.977 . S
O568 Zn567 2.032 . S
O568 C572 1.278 . S
C569 O570 1.203 . S
C569 O576 1.267 . S
O570 C569 1.203 . S
O571 C564 1.185 . S
O571 Zn567 2.086 . S
C572 O568 1.278 . S
C572 O573 1.211 . S
O573 C572 1.211 . S
C574 O566 1.284 . S
C574 O575 1.273 . S
O575 C574 1.273 . S
O576 Zn567 1.977 . S
O576 C569 1.267 . S
C577 O578 1.160 . S
C577 O584 1.185 . S
O578 C577 1.160 . S
O579 Zn580 1.899 . S
O579 C587 1.284 . S
Zn580 O579 1.899 . S
Zn580 O581 2.032 . S
Zn580 O584 2.086 . S
Zn580 O589 1.977 . S
O581 Zn580 2.032 . S
O581 C585 1.278 . S
C582 O583 1.203 . S
C582 O589 1.267 . S
O583 C582 1.203 . S
O584 C577 1.185 . S
O584 Zn580 2.086 . S
C585 O581 1.278 . S
C585 O586 1.211 . S
O586 C585 1.211 . S
C587 O579 1.284 . S
C587 O588 1.273 . S
O588 C587 1.273 . S
O589 Zn580 1.977 . S
O589 C582 1.267 . S
C590 O591 1.160 . S
C590 O597 1.185 . S
O591 C590 1.160 . S
O592 Zn593 1.899 . S
O592 C600 1.284 . S
Zn593 O592 1.899 . S
Zn593 O594 2.032 . S
Zn593 O597 2.086 . S
Zn593 O602 1.977 . S
O594 Zn593 2.032 . S
O594 C598 1.278 . S
C595 O596 1.203 . S
C595 O602 1.267 . S
O596 C595 1.203 . S
O597 C590 1.185 . S
O597 Zn593 2.086 . S
C598 O594 1.278 . S
C598 O599 1.211 . S
O599 C598 1.211 . S
C600 O592 1.284 . S
C600 O601 1.273 . S
O601 C600 1.273 . S
O602 Zn593 1.977 . S
O602 C595 1.267 . S
C603 O604 1.160 . S
C603 O610 1.185 . S
O604 C603 1.160 . S
O605 Zn606 1.899 . S
O605 C613 1.284 1_565 S
Zn606 O605 1.899 . S
Zn606 O607 2.032 1_565 S
Zn606 O610 2.086 . S
Zn606 O615 1.977 . S
O607 Zn606 2.032 1_545 S
O607 C611 1.278 . S
C608 O609 1.203 1_565 S
C608 O615 1.267 . S
O609 C608 1.203 1_545 S
O610 C603 1.185 . S
O610 Zn606 2.086 . S
C611 O607 1.278 . S
C611 O612 1.211 . S
O612 C611 1.211 . S
C613 O605 1.284 1_545 S
C613 O614 1.273 . S
O614 C613 1.273 . S
O615 Zn606 1.977 . S
O615 C608 1.267 . S
C616 O617 1.160 1_455 S
C616 O623 1.185 . S
O617 C616 1.160 1_655 S
O618 Zn619 1.899 1_655 S
O618 C626 1.284 . S
Zn619 O618 1.899 1_455 S
Zn619 O620 2.030 1_455 S
Zn619 O623 2.086 . S
Zn619 O628 1.977 . S
O620 Zn619 2.030 1_655 S
O620 C624 1.277 1_655 S
C621 O622 1.203 . S
C621 O628 1.267 . S
O622 C621 1.203 . S
O623 C616 1.185 . S
O623 Zn619 2.086 . S
C624 O620 1.277 1_455 S
C624 O625 1.211 . S
O625 C624 1.211 . S
C626 O618 1.284 . S
C626 O627 1.273 . S
O627 C626 1.273 . S
O628 Zn619 1.977 . S
O628 C621 1.267 . S
C629 O630 1.160 . S
C629 O636 1.185 . S
O630 C629 1.160 . S
O631 Zn632 1.899 . S
O631 C639 1.284 . S
Zn632 O631 1.899 . S
Zn632 O633 2.032 . S
Zn632 O636 2.086 . S
Zn632 O641 1.977 . S
O633 Zn632 2.032 . S
O633 C637 1.278 . S
C634 O635 1.203 . S
C634 O641 1.267 . S
O635 C634 1.203 . S
O636 C629 1.185 . S
O636 Zn632 2.086 . S
C637 O633 1.278 . S
C637 O638 1.211 . S
O638 C637 1.211 . S
C639 O631 1.284 . S
C639 O640 1.273 . S
O640 C639 1.273 . S
O641 Zn632 1.977 . S
O641 C634 1.267 . S
C642 O643 1.160 1_455 S
C642 O649 1.185 . S
O643 C642 1.160 1_655 S
O644 Zn645 1.899 1_655 S
O644 C652 1.284 . S
Zn645 O644 1.899 1_455 S
Zn645 O646 2.032 1_455 S
Zn645 O649 2.086 . S
Zn645 O654 1.977 . S
O646 Zn645 2.032 1_655 S
O646 C650 1.278 . S
C647 O648 1.203 . S
C647 O654 1.267 . S
O648 C647 1.203 . S
O649 C642 1.185 . S
O649 Zn645 2.086 . S
C650 O646 1.278 . S
C650 O651 1.211 1_655 S
O651 C650 1.211 1_455 S
C652 O644 1.284 . S
C652 O653 1.273 . S
O653 C652 1.273 . S
O654 Zn645 1.977 . S
O654 C647 1.267 . S
C655 O656 1.160 . S
C655 O662 1.185 . S
O656 C655 1.160 . S
O657 Zn658 1.899 . S
O657 C665 1.284 . S
Zn658 O657 1.899 . S
Zn658 O659 2.032 . S
Zn658 O662 2.086 . S
Zn658 O667 1.977 . S
O659 Zn658 2.032 . S
O659 C663 1.278 . S
C660 O661 1.203 . S
C660 O667 1.267 . S
O661 C660 1.203 . S
O662 C655 1.185 . S
O662 Zn658 2.086 . S
C663 O659 1.278 . S
C663 O664 1.211 . S
O664 C663 1.211 . S
C665 O657 1.284 . S
C665 O666 1.273 . S
O666 C665 1.273 . S
O667 Zn658 1.977 . S
O667 C660 1.267 . S
C668 C669 1.369 . S
C668 C670 1.419 . S
C668 H672 0.930 . S
C669 C668 1.369 . S
C669 C678 1.429 . S
C670 C668 1.419 . S
C670 C671 1.363 . S
C670 H673 0.929 . S
C671 C670 1.363 . S
C671 C677 1.428 . S
H672 C668 0.930 . S
H673 C670 0.929 . S
S674 N675 1.613 . S
S674 N676 1.610 . S
N675 S674 1.613 . S
N675 C678 1.350 . S
N676 S674 1.610 . S
N676 C677 1.351 . S
C677 C671 1.428 . S
C677 N676 1.351 . S
C677 C678 1.434 . S
C678 C669 1.429 . S
C678 N675 1.350 . S
C678 C677 1.434 . S
C679 C680 1.369 . S
C679 C681 1.419 . S
C679 H683 0.930 . S
C680 C679 1.369 . S
C680 C689 1.429 . S
C681 C679 1.419 . S
C681 C682 1.363 . S
C681 H684 0.929 . S
C682 C681 1.363 . S
C682 C688 1.428 . S
H683 C679 0.930 . S
H684 C681 0.929 . S
S685 N686 1.613 . S
S685 N687 1.610 1_655 S
N686 S685 1.613 . S
N686 C689 1.350 1_655 S
N687 S685 1.610 1_455 S
N687 C688 1.351 . S
C688 C682 1.428 . S
C688 N687 1.351 . S
C688 C689 1.434 . S
C689 C680 1.429 . S
C689 N686 1.350 1_455 S
C689 C688 1.434 . S
C690 C691 1.369 . S
C690 C692 1.419 . S
C690 H694 0.930 . S
C691 C690 1.369 . S
C691 C700 1.429 . S
C692 C690 1.419 . S
C692 C693 1.363 . S
C692 H695 0.929 . S
C693 C692 1.363 . S
C693 C699 1.428 . S
H694 C690 0.930 . S
H695 C692 0.929 . S
S696 N697 1.613 . S
S696 N698 1.610 . S
N697 S696 1.613 . S
N697 C700 1.350 . S
N698 S696 1.610 . S
N698 C699 1.351 . S
C699 C693 1.428 . S
C699 N698 1.351 . S
C699 C700 1.434 . S
C700 C691 1.429 . S
C700 N697 1.350 . S
C700 C699 1.434 . S
C701 C702 1.369 1_545 S
C701 C703 1.419 . S
C701 H705 0.930 . S
C702 C701 1.369 1_565 S
C702 C711 1.429 . S
C703 C701 1.419 . S
C703 C704 1.364 . S
C703 H706 0.929 . S
C704 C703 1.364 . S
C704 C710 1.426 1_545 S
H705 C701 0.930 . S
H706 C703 0.929 . S
S707 N708 1.613 . S
S707 N709 1.610 . S
N708 S707 1.613 . S
N708 C711 1.350 . S
N709 S707 1.610 . S
N709 C710 1.351 . S
C710 C704 1.426 1_565 S
C710 N709 1.351 . S
C710 C711 1.434 . S
C711 C702 1.429 . S
C711 N708 1.350 . S
C711 C710 1.434 . S
C712 C713 1.369 . S
C712 C714 1.419 . S
C712 H716 0.930 . S
C713 C712 1.369 . S
C713 C722 1.429 . S
C714 C712 1.419 . S
C714 C715 1.363 . S
C714 H717 0.929 . S
C715 C714 1.363 . S
C715 C721 1.428 . S
H716 C712 0.930 . S
H717 C714 0.929 . S
S718 N719 1.613 . S
S718 N720 1.610 . S
N719 S718 1.613 . S
N719 C722 1.350 . S
N720 S718 1.610 . S
N720 C721 1.351 . S
C721 C715 1.428 . S
C721 N720 1.351 . S
C721 C722 1.434 . S
C722 C713 1.429 . S
C722 N719 1.350 . S
C722 C721 1.434 . S
C723 C724 1.369 . S
C723 C725 1.419 . S
C723 H727 0.930 . S
C724 C723 1.369 . S
C724 C733 1.429 . S
C725 C723 1.419 . S
C725 C726 1.363 . S
C725 H728 0.929 . S
C726 C725 1.363 . S
C726 C732 1.428 . S
H727 C723 0.930 . S
H728 C725 0.929 . S
S729 N730 1.613 . S
S729 N731 1.610 . S
N730 S729 1.613 . S
N730 C733 1.350 . S
N731 S729 1.610 . S
N731 C732 1.351 . S
C732 C726 1.428 . S
C732 N731 1.351 . S
C732 C733 1.434 . S
C733 C724 1.429 . S
C733 N730 1.350 . S
C733 C732 1.434 . S
C734 C735 1.369 . S
C734 C736 1.419 . S
C734 H738 0.930 . S
C735 C734 1.369 . S
C735 C744 1.429 . S
C736 C734 1.419 . S
C736 C737 1.363 . S
C736 H739 0.929 . S
C737 C736 1.363 . S
C737 C743 1.428 . S
H738 C734 0.930 . S
H739 C736 0.929 . S
S740 N741 1.613 . S
S740 N742 1.610 . S
N741 S740 1.613 . S
N741 C744 1.350 . S
N742 S740 1.610 . S
N742 C743 1.351 . S
C743 C737 1.428 . S
C743 N742 1.351 . S
C743 C744 1.434 . S
C744 C735 1.429 . S
C744 N741 1.350 . S
C744 C743 1.434 . S
C745 C746 1.369 1_545 S
C745 C747 1.419 . S
C745 H749 0.930 . S
C746 C745 1.369 1_565 S
C746 C755 1.429 . S
C747 C745 1.419 . S
C747 C748 1.363 1_545 S
C747 H750 0.929 . S
C748 C747 1.363 1_565 S
C748 C754 1.428 . S
H749 C745 0.930 . S
H750 C747 0.929 . S
S751 N752 1.613 . S
S751 N753 1.610 . S
N752 S751 1.613 . S
N752 C755 1.350 . S
N753 S751 1.610 . S
N753 C754 1.351 . S
C754 C748 1.428 . S
C754 N753 1.351 . S
C754 C755 1.434 . S
C755 C746 1.429 . S
C755 N752 1.350 . S
C755 C754 1.434 . S
C756 C757 1.369 . S
C756 C758 1.419 . S
C756 H760 0.930 . S
C757 C756 1.369 . S
C757 C766 1.429 . S
C758 C756 1.419 . S
C758 C759 1.363 . S
C758 H761 0.929 . S
C759 C758 1.363 . S
C759 C765 1.428 . S
H760 C756 0.930 . S
H761 C758 0.929 . S
S762 N763 1.613 . S
S762 N764 1.610 . S
N763 S762 1.613 . S
N763 C766 1.350 . S
N764 S762 1.610 . S
N764 C765 1.351 . S
C765 C759 1.428 . S
C765 N764 1.351 . S
C765 C766 1.434 . S
C766 C757 1.429 . S
C766 N763 1.350 . S
C766 C765 1.434 . S
C767 C768 1.369 . S
C767 C769 1.419 . S
C767 H771 0.930 . S
C768 C767 1.369 . S
C768 C777 1.429 . S
C769 C767 1.419 . S
C769 C770 1.363 . S
C769 H772 0.929 . S
C770 C769 1.363 . S
C770 C776 1.428 . S
H771 C767 0.930 . S
H772 C769 0.929 . S
S773 N774 1.613 . S
S773 N775 1.610 . S
N774 S773 1.613 . S
N774 C777 1.350 . S
N775 S773 1.610 . S
N775 C776 1.351 . S
C776 C770 1.428 . S
C776 N775 1.351 . S
C776 C777 1.434 . S
C777 C768 1.429 . S
C777 N774 1.350 . S
C777 C776 1.434 . S
C778 C779 1.369 . S
C778 C780 1.419 . S
C778 H782 0.930 . S
C779 C778 1.369 . S
C779 C788 1.429 . S
C780 C778 1.419 . S
C780 C781 1.363 . S
C780 H783 0.929 . S
C781 C780 1.363 . S
C781 C787 1.428 . S
H782 C778 0.930 . S
H783 C780 0.929 . S
S784 N785 1.613 . S
S784 N786 1.610 . S
N785 S784 1.613 . S
N785 C788 1.350 . S
N786 S784 1.610 . S
N786 C787 1.351 . S
C787 C781 1.428 . S
C787 N786 1.351 . S
C787 C788 1.434 . S
C788 C779 1.429 . S
C788 N785 1.350 . S
C788 C787 1.434 . S
C789 C790 1.369 . S
C789 C791 1.419 . S
C789 H793 0.930 . S
C790 C789 1.369 . S
C790 C799 1.429 . S
C791 C789 1.419 . S
C791 C792 1.363 . S
C791 H794 0.929 . S
C792 C791 1.363 . S
C792 C798 1.428 . S
H793 C789 0.930 . S
H794 C791 0.929 . S
S795 N796 1.613 . S
S795 N797 1.610 . S
N796 S795 1.613 . S
N796 C799 1.350 . S
N797 S795 1.610 . S
N797 C798 1.351 . S
C798 C792 1.428 . S
C798 N797 1.351 . S
C798 C799 1.434 . S
C799 C790 1.429 . S
C799 N796 1.350 . S
C799 C798 1.434 . S
C800 C801 1.369 . S
C800 C802 1.419 . S
C800 H804 0.930 . S
C801 C800 1.369 . S
C801 C810 1.429 . S
C802 C800 1.419 . S
C802 C803 1.363 . S
C802 H805 0.929 . S
C803 C802 1.363 . S
C803 C809 1.428 . S
H804 C800 0.930 . S
H805 C802 0.929 . S
S806 N807 1.613 . S
S806 N808 1.610 . S
N807 S806 1.613 . S
N807 C810 1.350 . S
N808 S806 1.610 . S
N808 C809 1.351 . S
C809 C803 1.428 . S
C809 N808 1.351 . S
C809 C810 1.434 . S
C810 C801 1.429 . S
C810 N807 1.350 . S
C810 C809 1.434 . S
C811 C812 1.369 1_655 S
C811 C813 1.419 . S
C811 H815 0.930 . S
C812 C811 1.369 1_455 S
C812 C821 1.429 . S
C813 C811 1.419 . S
C813 C814 1.363 1_655 S
C813 H816 0.929 . S
C814 C813 1.363 1_455 S
C814 C820 1.428 . S
H815 C811 0.930 . S
H816 C813 0.929 . S
S817 N818 1.613 . S
S817 N819 1.610 . S
N818 S817 1.613 . S
N818 C821 1.350 . S
N819 S817 1.610 . S
N819 C820 1.351 . S
C820 C814 1.428 . S
C820 N819 1.351 . S
C820 C821 1.434 . S
C821 C812 1.429 . S
C821 N818 1.350 . S
C821 C820 1.434 . S
C822 C823 1.369 . S
C822 C824 1.419 . S
C822 H826 0.930 . S
C823 C822 1.369 . S
C823 C832 1.429 . S
C824 C822 1.419 . S
C824 C825 1.363 . S
C824 H827 0.929 . S
C825 C824 1.363 . S
C825 C831 1.428 . S
H826 C822 0.930 . S
H827 C824 0.929 . S
S828 N829 1.613 . S
S828 N830 1.610 . S
N829 S828 1.613 . S
N829 C832 1.350 . S
N830 S828 1.610 . S
N830 C831 1.351 . S
C831 C825 1.428 . S
C831 N830 1.351 . S
C831 C832 1.434 . S
C832 C823 1.429 . S
C832 N829 1.350 . S
C832 C831 1.434 . S
C833 C834 1.369 . S
C833 C835 1.419 . S
C833 H837 0.930 . S
C834 C833 1.369 . S
C834 C843 1.429 1_655 S
C835 C833 1.419 . S
C835 C836 1.363 . S
C835 H838 0.929 . S
C836 C835 1.363 . S
C836 C842 1.428 1_655 S
H837 C833 0.930 . S
H838 C835 0.929 . S
S839 N840 1.613 . S
S839 N841 1.610 . S
N840 S839 1.613 . S
N840 C843 1.350 . S
N841 S839 1.610 . S
N841 C842 1.351 . S
C842 C836 1.428 1_455 S
C842 N841 1.351 . S
C842 C843 1.434 . S
C843 C834 1.429 1_455 S
C843 N840 1.350 . S
C843 C842 1.434 . S
C844 C845 1.369 . S
C844 C846 1.419 . S
C844 H848 0.930 . S
C845 C844 1.369 . S
C845 C854 1.429 . S
C846 C844 1.419 . S
C846 C847 1.363 . S
C846 H849 0.929 . S
C847 C846 1.363 . S
C847 C853 1.428 . S
H848 C844 0.930 . S
H849 C846 0.929 . S
S850 N851 1.613 . S
S850 N852 1.610 . S
N851 S850 1.613 . S
N851 C854 1.350 . S
N852 S850 1.610 . S
N852 C853 1.351 . S
C853 C847 1.428 . S
C853 N852 1.351 . S
C853 C854 1.434 . S
C854 C845 1.429 . S
C854 N851 1.350 . S
C854 C853 1.434 . S
C855 C856 1.369 . S
C855 C857 1.419 . S
C855 H859 0.930 . S
C856 C855 1.369 . S
C856 C865 1.429 . S
C857 C855 1.419 . S
C857 C858 1.363 . S
C857 H860 0.929 . S
C858 C857 1.363 . S
C858 C864 1.428 . S
H859 C855 0.930 . S
H860 C857 0.929 . S
S861 N862 1.613 . S
S861 N863 1.610 . S
N862 S861 1.613 . S
N862 C865 1.350 . S
N863 S861 1.610 . S
N863 C864 1.351 . S
C864 C858 1.428 . S
C864 N863 1.351 . S
C864 C865 1.434 . S
C865 C856 1.429 . S
C865 N862 1.350 . S
C865 C864 1.434 . S
C866 C867 1.369 . S
C866 C868 1.419 . S
C866 H870 0.930 . S
C867 C866 1.369 . S
C867 C876 1.429 1_556 S
C868 C866 1.419 . S
C868 C869 1.369 . S
C868 H871 0.929 . S
C869 C868 1.369 . S
C869 C875 1.423 1_556 S
H870 C866 0.930 . S
H871 C868 0.929 . S
S872 N873 1.613 . S
S872 N874 1.610 . S
N873 S872 1.613 . S
N873 C876 1.350 . S
N874 S872 1.610 . S
N874 C875 1.351 . S
C875 C869 1.423 1_554 S
C875 N874 1.351 . S
C875 C876 1.434 . S
C876 C867 1.429 1_554 S
C876 N873 1.350 . S
C876 C875 1.434 . S
C877 C878 1.369 . S
C877 C879 1.419 . S
C877 H881 0.930 . S
C878 C877 1.369 . S
C878 C887 1.429 . S
C879 C877 1.419 . S
C879 C880 1.363 . S
C879 H882 0.929 . S
C880 C879 1.363 . S
C880 C886 1.428 . S
H881 C877 0.930 . S
H882 C879 0.929 . S
S883 N884 1.613 . S
S883 N885 1.610 . S
N884 S883 1.613 . S
N884 C887 1.350 . S
N885 S883 1.610 . S
N885 C886 1.351 . S
C886 C880 1.428 . S
C886 N885 1.351 . S
C886 C887 1.434 . S
C887 C878 1.429 . S
C887 N884 1.350 . S
C887 C886 1.434 . S
C888 C889 1.369 . S
C888 C890 1.419 . S
C888 H892 0.930 . S
C889 C888 1.369 . S
C889 C898 1.429 . S
C890 C888 1.419 . S
C890 C891 1.363 . S
C890 H893 0.929 . S
C891 C890 1.363 . S
C891 C897 1.428 . S
H892 C888 0.930 . S
H893 C890 0.929 . S
S894 N895 1.613 . S
S894 N896 1.610 . S
N895 S894 1.613 . S
N895 C898 1.350 . S
N896 S894 1.610 . S
N896 C897 1.351 . S
C897 C891 1.428 . S
C897 N896 1.351 . S
C897 C898 1.434 . S
C898 C889 1.429 . S
C898 N895 1.350 . S
C898 C897 1.434 . S
C899 C900 1.369 . S
C899 C901 1.419 . S
C899 H903 0.930 . S
C900 C899 1.369 . S
C900 C909 1.429 . S
C901 C899 1.419 . S
C901 C902 1.363 . S
C901 H904 0.929 . S
C902 C901 1.363 . S
C902 C908 1.428 . S
H903 C899 0.930 . S
H904 C901 0.929 . S
S905 N906 1.613 . S
S905 N907 1.610 . S
N906 S905 1.613 . S
N906 C909 1.350 . S
N907 S905 1.610 . S
N907 C908 1.351 . S
C908 C902 1.428 . S
C908 N907 1.351 . S
C908 C909 1.434 . S
C909 C900 1.429 . S
C909 N906 1.350 . S
C909 C908 1.434 . S
C910 C911 1.369 . S
C910 C912 1.419 . S
C910 H914 0.930 . S
C911 C910 1.369 . S
C911 C920 1.429 . S
C912 C910 1.419 . S
C912 C913 1.363 . S
C912 H915 0.929 . S
C913 C912 1.363 . S
C913 C919 1.428 . S
H914 C910 0.930 . S
H915 C912 0.929 . S
S916 N917 1.613 . S
S916 N918 1.610 . S
N917 S916 1.613 . S
N917 C920 1.350 . S
N918 S916 1.610 . S
N918 C919 1.351 . S
C919 C913 1.428 . S
C919 N918 1.351 . S
C919 C920 1.434 . S
C920 C911 1.429 . S
C920 N917 1.350 . S
C920 C919 1.434 . S
C921 C922 1.369 . S
C921 C923 1.419 . S
C921 H925 0.930 . S
C922 C921 1.369 . S
C922 C931 1.429 . S
C923 C921 1.419 . S
C923 C924 1.363 . S
C923 H926 0.929 . S
C924 C923 1.363 . S
C924 C930 1.428 . S
H925 C921 0.930 . S
H926 C923 0.929 . S
S927 N928 1.613 . S
S927 N929 1.610 . S
N928 S927 1.613 . S
N928 C931 1.350 . S
N929 S927 1.610 . S
N929 C930 1.351 . S
C930 C924 1.428 . S
C930 N929 1.351 . S
C930 C931 1.434 . S
C931 C922 1.429 . S
C931 N928 1.350 . S
C931 C930 1.434 . S
C932 C933 1.369 . S
C932 C934 1.419 . S
C932 H936 0.930 . S
C933 C932 1.369 . S
C933 C942 1.429 . S
C934 C932 1.419 . S
C934 C935 1.363 . S
C934 H937 0.929 . S
C935 C934 1.363 . S
C935 C941 1.428 . S
H936 C932 0.930 . S
H937 C934 0.929 . S
S938 N939 1.613 . S
S938 N940 1.610 . S
N939 S938 1.613 . S
N939 C942 1.350 . S
N940 S938 1.610 . S
N940 C941 1.351 . S
C941 C935 1.428 . S
C941 N940 1.351 . S
C941 C942 1.434 . S
C942 C933 1.429 . S
C942 N939 1.350 . S
C942 C941 1.434 . S
C943 C944 1.369 1_565 S
C943 C945 1.419 . S
C943 H947 0.930 . S
C944 C943 1.369 1_545 S
C944 C953 1.429 . S
C945 C943 1.419 . S
C945 C946 1.363 1_565 S
C945 H948 0.929 . S
C946 C945 1.363 1_545 S
C946 C952 1.428 . S
H947 C943 0.930 . S
H948 C945 0.929 . S
S949 N950 1.613 . S
S949 N951 1.610 . S
N950 S949 1.613 . S
N950 C953 1.350 . S
N951 S949 1.610 . S
N951 C952 1.351 . S
C952 C946 1.428 . S
C952 N951 1.351 . S
C952 C953 1.434 . S
C953 C944 1.429 . S
C953 N950 1.350 . S
C953 C952 1.434 . S
C954 C955 1.369 . S
C954 C956 1.419 . S
C954 H958 0.930 . S
C955 C954 1.369 . S
C955 C964 1.429 . S
C956 C954 1.419 . S
C956 C957 1.363 . S
C956 H959 0.929 . S
C957 C956 1.363 . S
C957 C963 1.428 . S
H958 C954 0.930 . S
H959 C956 0.929 . S
S960 N961 1.613 . S
S960 N962 1.610 . S
N961 S960 1.613 . S
N961 C964 1.350 . S
N962 S960 1.610 . S
N962 C963 1.351 . S
C963 C957 1.428 . S
C963 N962 1.351 . S
C963 C964 1.434 . S
C964 C955 1.429 . S
C964 N961 1.350 . S
C964 C963 1.434 . S
C965 C966 1.369 . S
C965 C967 1.419 . S
C965 H969 0.930 . S
C966 C965 1.369 . S
C966 C975 1.429 . S
C967 C965 1.419 . S
C967 C968 1.363 . S
C967 H970 0.929 . S
C968 C967 1.363 . S
C968 C974 1.428 . S
H969 C965 0.930 . S
H970 C967 0.929 . S
S971 N972 1.613 . S
S971 N973 1.610 . S
N972 S971 1.613 . S
N972 C975 1.350 . S
N973 S971 1.610 . S
N973 C974 1.351 . S
C974 C968 1.428 . S
C974 N973 1.351 . S
C974 C975 1.434 . S
C975 C966 1.429 . S
C975 N972 1.350 . S
C975 C974 1.434 . S
C976 C977 1.369 . S
C976 C978 1.419 . S
C976 H980 0.930 . S
C977 C976 1.369 . S
C977 C986 1.429 . S
C978 C976 1.419 . S
C978 C979 1.363 . S
C978 H981 0.929 . S
C979 C978 1.363 . S
C979 C985 1.428 . S
H980 C976 0.930 . S
H981 C978 0.929 . S
S982 N983 1.613 . S
S982 N984 1.610 . S
N983 S982 1.613 . S
N983 C986 1.350 . S
N984 S982 1.610 . S
N984 C985 1.351 . S
C985 C979 1.428 . S
C985 N984 1.351 . S
C985 C986 1.434 . S
C986 C977 1.429 . S
C986 N983 1.350 . S
C986 C985 1.434 . S
C987 C988 1.369 . S
C987 C989 1.419 . S
C987 H991 0.930 . S
C988 C987 1.369 . S
C988 C997 1.429 . S
C989 C987 1.419 . S
C989 C990 1.363 . S
C989 H992 0.929 . S
C990 C989 1.363 . S
C990 C996 1.449 . S
H991 C987 0.930 . S
H992 C989 0.929 . S
S993 N994 1.613 . S
S993 N995 1.610 . S
N994 S993 1.613 . S
N994 C997 1.350 1_565 S
N995 S993 1.610 . S
N995 C996 1.326 1_565 S
C996 C990 1.449 . S
C996 N995 1.326 1_545 S
C996 C997 1.437 . S
C997 C988 1.429 . S
C997 N994 1.350 1_545 S
C997 C996 1.437 . S
C998 C999 1.369 . S
C998 C1000 1.419 . S
C998 H1002 0.930 . S
C999 C998 1.369 . S
C999 C1008 1.429 . S
C1000 C998 1.419 . S
C1000 C1001 1.363 . S
C1000 H1003 0.929 . S
C1001 C1000 1.363 . S
C1001 C1007 1.428 . S
H1002 C998 0.930 . S
H1003 C1000 0.929 . S
S1004 N1005 1.613 . S
S1004 N1006 1.610 . S
N1005 S1004 1.613 . S
N1005 C1008 1.350 . S
N1006 S1004 1.610 . S
N1006 C1007 1.351 . S
C1007 C1001 1.428 . S
C1007 N1006 1.351 . S
C1007 C1008 1.434 . S
C1008 C999 1.429 . S
C1008 N1005 1.350 . S
C1008 C1007 1.434 . S
C1009 C1010 1.369 . S
C1009 C1011 1.419 . S
C1009 H1013 0.930 . S
C1010 C1009 1.369 . S
C1010 C1019 1.429 . S
C1011 C1009 1.419 . S
C1011 C1012 1.363 . S
C1011 H1014 0.929 . S
C1012 C1011 1.363 . S
C1012 C1018 1.428 . S
H1013 C1009 0.930 . S
H1014 C1011 0.929 . S
S1015 N1016 1.613 . S
S1015 N1017 1.610 . S
N1016 S1015 1.613 . S
N1016 C1019 1.350 . S
N1017 S1015 1.610 . S
N1017 C1018 1.351 . S
C1018 C1012 1.428 . S
C1018 N1017 1.351 . S
C1018 C1019 1.434 . S
C1019 C1010 1.429 . S
C1019 N1016 1.350 . S
C1019 C1018 1.434 . S
C1020 C1021 1.369 . S
C1020 C1022 1.419 . S
C1020 H1024 0.930 . S
C1021 C1020 1.369 . S
C1021 C1030 1.429 . S
C1022 C1020 1.419 . S
C1022 C1023 1.363 . S
C1022 H1025 0.929 . S
C1023 C1022 1.363 . S
C1023 C1029 1.428 . S
H1024 C1020 0.930 . S
H1025 C1022 0.929 . S
S1026 N1027 1.613 . S
S1026 N1028 1.610 . S
N1027 S1026 1.613 . S
N1027 C1030 1.350 . S
N1028 S1026 1.610 . S
N1028 C1029 1.351 . S
C1029 C1023 1.428 . S
C1029 N1028 1.351 . S
C1029 C1030 1.434 . S
C1030 C1021 1.429 . S
C1030 N1027 1.350 . S
C1030 C1029 1.434 . S
C1031 C1032 1.369 . S
C1031 C1033 1.419 1_655 S
C1031 H1035 0.930 1_655 S
C1032 C1031 1.369 . S
C1032 C1041 1.429 . S
C1033 C1031 1.419 1_455 S
C1033 C1034 1.363 1_455 S
C1033 H1036 0.929 . S
C1034 C1033 1.363 1_655 S
C1034 C1040 1.428 . S
H1035 C1031 0.930 1_455 S
H1036 C1033 0.929 . S
S1037 N1038 1.613 . S
S1037 N1039 1.610 1_554 S
N1038 S1037 1.613 . S
N1038 C1041 1.350 1_554 S
N1039 S1037 1.610 1_556 S
N1039 C1040 1.351 . S
C1040 C1034 1.428 . S
C1040 N1039 1.351 . S
C1040 C1041 1.434 . S
C1041 C1032 1.429 . S
C1041 N1038 1.350 1_556 S
C1041 C1040 1.434 . S
C1042 C1043 1.369 . S
C1042 C1044 1.419 . S
C1042 H1046 0.930 . S
C1043 C1042 1.369 . S
C1043 C1052 1.429 . S
C1044 C1042 1.419 . S
C1044 C1045 1.363 . S
C1044 H1047 0.929 . S
C1045 C1044 1.363 . S
C1045 C1051 1.428 . S
H1046 C1042 0.930 . S
H1047 C1044 0.929 . S
S1048 N1049 1.613 . S
S1048 N1050 1.610 . S
N1049 S1048 1.613 . S
N1049 C1052 1.350 . S
N1050 S1048 1.610 . S
N1050 C1051 1.351 . S
C1051 C1045 1.428 . S
C1051 N1050 1.351 . S
C1051 C1052 1.434 . S
C1052 C1043 1.429 . S
C1052 N1049 1.350 . S
C1052 C1051 1.434 . S
C1053 C1054 1.369 . S
C1053 C1055 1.419 . S
C1053 H1057 0.930 . S
C1054 C1053 1.369 . S
C1054 C1063 1.429 . S
C1055 C1053 1.419 . S
C1055 C1056 1.363 . S
C1055 H1058 0.929 . S
C1056 C1055 1.363 . S
C1056 C1062 1.428 . S
H1057 C1053 0.930 . S
H1058 C1055 0.929 . S
S1059 N1060 1.613 1_655 S
S1059 N1061 1.610 1_554 S
N1060 S1059 1.613 1_455 S
N1060 C1063 1.350 1_554 S
N1061 S1059 1.610 1_556 S
N1061 C1062 1.351 1_655 S
C1062 C1056 1.428 . S
C1062 N1061 1.351 1_455 S
C1062 C1063 1.434 . S
C1063 C1054 1.429 . S
C1063 N1060 1.350 1_556 S
C1063 C1062 1.434 . S
C1064 C1065 1.369 . S
C1064 C1066 1.419 . S
C1064 H1068 0.930 . S
C1065 C1064 1.369 . S
C1065 C1074 1.429 . S
C1066 C1064 1.419 . S
C1066 C1067 1.363 . S
C1066 H1069 0.929 . S
C1067 C1066 1.363 . S
C1067 C1073 1.428 . S
H1068 C1064 0.930 . S
H1069 C1066 0.929 . S
S1070 N1071 1.613 . S
S1070 N1072 1.610 . S
N1071 S1070 1.613 . S
N1071 C1074 1.350 . S
N1072 S1070 1.610 . S
N1072 C1073 1.351 . S
C1073 C1067 1.428 . S
C1073 N1072 1.351 . S
C1073 C1074 1.434 . S
C1074 C1065 1.429 . S
C1074 N1071 1.350 . S
C1074 C1073 1.434 . S
C1075 C1076 1.369 . S
C1075 C1077 1.419 . S
C1075 H1079 0.930 . S
C1076 C1075 1.369 . S
C1076 C1085 1.429 . S
C1077 C1075 1.419 . S
C1077 C1078 1.363 . S
C1077 H1080 0.929 . S
C1078 C1077 1.363 . S
C1078 C1084 1.428 . S
H1079 C1075 0.930 . S
H1080 C1077 0.929 . S
S1081 N1082 1.613 . S
S1081 N1083 1.610 . S
N1082 S1081 1.613 . S
N1082 C1085 1.350 . S
N1083 S1081 1.610 . S
N1083 C1084 1.351 . S
C1084 C1078 1.428 . S
C1084 N1083 1.351 . S
C1084 C1085 1.434 . S
C1085 C1076 1.429 . S
C1085 N1082 1.350 . S
C1085 C1084 1.434 . S
C1086 C1087 1.369 . S
C1086 C1088 1.419 . S
C1086 H1090 0.930 . S
C1087 C1086 1.369 . S
C1087 C1096 1.429 . S
C1088 C1086 1.419 . S
C1088 C1089 1.363 . S
C1088 H1091 0.929 . S
C1089 C1088 1.363 . S
C1089 C1095 1.428 . S
H1090 C1086 0.930 . S
H1091 C1088 0.929 . S
S1092 N1093 1.613 . S
S1092 N1094 1.610 . S
N1093 S1092 1.613 . S
N1093 C1096 1.350 . S
N1094 S1092 1.610 . S
N1094 C1095 1.351 . S
C1095 C1089 1.428 . S
C1095 N1094 1.351 . S
C1095 C1096 1.434 . S
C1096 C1087 1.429 . S
C1096 N1093 1.350 . S
C1096 C1095 1.434 . S
C1097 C1098 1.369 . S
C1097 C1099 1.419 . S
C1097 H1101 0.930 . S
C1098 C1097 1.369 . S
C1098 C1107 1.429 . S
C1099 C1097 1.419 . S
C1099 C1100 1.363 . S
C1099 H1102 0.929 . S
C1100 C1099 1.363 . S
C1100 C1106 1.428 . S
H1101 C1097 0.930 . S
H1102 C1099 0.929 . S
S1103 N1104 1.613 . S
S1103 N1105 1.610 . S
N1104 S1103 1.613 . S
N1104 C1107 1.350 . S
N1105 S1103 1.610 . S
N1105 C1106 1.351 . S
C1106 C1100 1.428 . S
C1106 N1105 1.351 . S
C1106 C1107 1.434 . S
C1107 C1098 1.429 . S
C1107 N1104 1.350 . S
C1107 C1106 1.434 . S
C1108 C1109 1.369 . S
C1108 C1110 1.419 . S
C1108 H1112 0.930 . S
C1109 C1108 1.369 . S
C1109 C1118 1.429 . S
C1110 C1108 1.419 . S
C1110 C1111 1.363 . S
C1110 H1113 0.929 . S
C1111 C1110 1.363 . S
C1111 C1117 1.428 . S
H1112 C1108 0.930 . S
H1113 C1110 0.929 . S
S1114 N1115 1.613 . S
S1114 N1116 1.610 . S
N1115 S1114 1.613 . S
N1115 C1118 1.350 . S
N1116 S1114 1.610 . S
N1116 C1117 1.351 . S
C1117 C1111 1.428 . S
C1117 N1116 1.351 . S
C1117 C1118 1.434 . S
C1118 C1109 1.429 . S
C1118 N1115 1.350 . S
C1118 C1117 1.434 . S
C1119 C1120 1.369 . S
C1119 C1121 1.419 . S
C1119 H1123 0.930 . S
C1120 C1119 1.369 . S
C1120 C1129 1.429 . S
C1121 C1119 1.419 . S
C1121 C1122 1.363 . S
C1121 H1124 0.929 . S
C1122 C1121 1.363 . S
C1122 C1128 1.428 . S
H1123 C1119 0.930 . S
H1124 C1121 0.929 . S
S1125 N1126 1.613 . S
S1125 N1127 1.610 . S
N1126 S1125 1.613 . S
N1126 C1129 1.350 . S
N1127 S1125 1.610 . S
N1127 C1128 1.351 . S
C1128 C1122 1.428 . S
C1128 N1127 1.351 . S
C1128 C1129 1.434 . S
C1129 C1120 1.429 . S
C1129 N1126 1.350 . S
C1129 C1128 1.434 . S
C1130 C1131 1.369 . S
C1130 C1132 1.419 . S
C1130 H1134 0.930 . S
C1131 C1130 1.369 . S
C1131 C1140 1.429 . S
C1132 C1130 1.419 . S
C1132 C1133 1.363 . S
C1132 H1135 0.929 . S
C1133 C1132 1.363 . S
C1133 C1139 1.428 . S
H1134 C1130 0.930 . S
H1135 C1132 0.929 . S
S1136 N1137 1.613 . S
S1136 N1138 1.610 . S
N1137 S1136 1.613 . S
N1137 C1140 1.350 . S
N1138 S1136 1.610 . S
N1138 C1139 1.351 . S
C1139 C1133 1.428 . S
C1139 N1138 1.351 . S
C1139 C1140 1.434 . S
C1140 C1131 1.429 . S
C1140 N1137 1.350 . S
C1140 C1139 1.434 . S
C1141 C1142 1.369 . S
C1141 C1143 1.419 . S
C1141 H1145 0.930 . S
C1142 C1141 1.369 . S
C1142 C1151 1.429 . S
C1143 C1141 1.419 . S
C1143 C1144 1.363 . S
C1143 H1146 0.929 . S
C1144 C1143 1.363 . S
C1144 C1150 1.428 . S
H1145 C1141 0.930 . S
H1146 C1143 0.929 . S
S1147 N1148 1.613 . S
S1147 N1149 1.610 . S
N1148 S1147 1.613 . S
N1148 C1151 1.350 . S
N1149 S1147 1.610 . S
N1149 C1150 1.351 . S
C1150 C1144 1.428 . S
C1150 N1149 1.351 . S
C1150 C1151 1.434 . S
C1151 C1142 1.429 . S
C1151 N1148 1.350 . S
C1151 C1150 1.434 . S
C1152 C1153 1.369 1_554 S
C1152 C1154 1.419 . S
C1152 H1156 0.930 . S
C1153 C1152 1.369 1_556 S
C1153 C1162 1.429 . S
C1154 C1152 1.419 . S
C1154 C1155 1.363 1_554 S
C1154 H1157 0.929 . S
C1155 C1154 1.363 1_556 S
C1155 C1161 1.428 . S
H1156 C1152 0.930 . S
H1157 C1154 0.929 . S
S1158 N1159 1.613 . S
S1158 N1160 1.610 . S
N1159 S1158 1.613 . S
N1159 C1162 1.350 . S
N1160 S1158 1.610 . S
N1160 C1161 1.351 . S
C1161 C1155 1.428 . S
C1161 N1160 1.351 . S
C1161 C1162 1.434 . S
C1162 C1153 1.429 . S
C1162 N1159 1.350 . S
C1162 C1161 1.434 . S
C1163 C1164 1.369 . S
C1163 C1165 1.419 . S
C1163 H1167 0.930 . S
C1164 C1163 1.369 . S
C1164 C1173 1.429 . S
C1165 C1163 1.419 . S
C1165 C1166 1.363 . S
C1165 H1168 0.929 . S
C1166 C1165 1.363 . S
C1166 C1172 1.428 . S
H1167 C1163 0.930 . S
H1168 C1165 0.929 . S
S1169 N1170 1.613 . S
S1169 N1171 1.610 . S
N1170 S1169 1.613 . S
N1170 C1173 1.350 . S
N1171 S1169 1.610 . S
N1171 C1172 1.351 . S
C1172 C1166 1.428 . S
C1172 N1171 1.351 . S
C1172 C1173 1.434 . S
C1173 C1164 1.429 . S
C1173 N1170 1.350 . S
C1173 C1172 1.434 . S
C1174 C1175 1.369 . S
C1174 C1176 1.419 . S
C1174 H1178 0.930 . S
C1175 C1174 1.369 . S
C1175 C1184 1.429 1_554 S
C1176 C1174 1.419 . S
C1176 C1177 1.363 . S
C1176 H1179 0.929 . S
C1177 C1176 1.363 . S
C1177 C1183 1.428 1_554 S
H1178 C1174 0.930 . S
H1179 C1176 0.929 . S
S1180 N1181 1.613 . S
S1180 N1182 1.610 . S
N1181 S1180 1.613 . S
N1181 C1184 1.350 . S
N1182 S1180 1.610 . S
N1182 C1183 1.351 . S
C1183 C1177 1.428 1_556 S
C1183 N1182 1.351 . S
C1183 C1184 1.434 . S
C1184 C1175 1.429 1_556 S
C1184 N1181 1.350 . S
C1184 C1183 1.434 . S
C1185 C1186 1.369 . S
C1185 C1187 1.419 . S
C1185 H1189 0.930 1_554 S
C1186 C1185 1.369 . S
C1186 C1195 1.429 . S
C1187 C1185 1.419 . S
C1187 C1188 1.363 . S
C1187 H1190 0.929 1_554 S
C1188 C1187 1.363 . S
C1188 C1194 1.428 . S
H1189 C1185 0.930 1_556 S
H1190 C1187 0.929 1_556 S
S1191 N1192 1.613 . S
S1191 N1193 1.610 . S
N1192 S1191 1.613 . S
N1192 C1195 1.350 . S
N1193 S1191 1.610 . S
N1193 C1194 1.351 . S
C1194 C1188 1.428 . S
C1194 N1193 1.351 . S
C1194 C1195 1.434 . S
C1195 C1186 1.429 . S
C1195 N1192 1.350 . S
C1195 C1194 1.434 . S
C671 C522 1.414 . S
C669 C177 1.383 . S
C682 C535 1.599 . S
C680 C209 1.592 . S
C691 C253 1.399 . S
C693 C548 1.424 . S
C704 C561 1.523 . S
C702 C157 1.498 . S
C715 C569 1.473 . S
C713 C343 1.487 . S
C726 C582 1.421 . S
C724 C401 1.406 . S
C735 C369 1.517 . S
C737 C595 1.513 . S
C748 C608 1.505 . S
C746 C317 1.497 . S
C757 C375 1.443 . S
C759 C626 1.457 . S
C770 C637 1.532 . S
C768 C305 1.551 . S
C779 C349 1.471 . S
C781 C621 1.461 . S
C792 C629 1.463 . S
C790 C413 1.450 . S
C801 C241 1.463 . S
C803 C652 1.477 . S
C812 C151 1.453 . S
C814 C642 1.460 . S
C823 C189 1.469 . S
C825 C647 1.488 . S
C834 C215 1.535 . S
C836 C650 1.520 . S
C845 C113 1.445 . S
C847 C559 1.431 . S
C856 C471 1.393 . S
C858 C551 1.420 . S
C869 C520 1.534 1_556 S
C867 C509 1.537 . S
C880 C525 1.496 . S
C878 C279 1.480 . S
C889 C145 1.472 . S
C891 C572 1.471 . S
C902 C611 1.538 . S
C900 C381 1.542 . S
C913 C564 1.488 . S
C911 C311 1.502 . S
C924 C590 1.441 . S
C922 C407 1.444 . S
C935 C600 1.413 . S
C933 C465 1.382 . S
C944 C497 1.590 . S
C946 C613 1.596 . S
C955 C285 1.399 . S
C957 C574 1.425 . S
C968 C587 1.524 . S
C966 C445 1.502 . S
C977 C119 1.492 . S
C979 C543 1.478 . S
C990 C556 1.419 . S
C988 C17 1.409 . S
C1001 C517 1.509 . S
C999 C49 1.515 . S
C1012 C530 1.505 . S
C1010 C93 1.494 . S
C1021 C55 1.442 . S
C1023 C639 1.457 . S
C1032 C81 1.554 . S
C1034 C624 1.535 1_655 S
C1043 C125 1.472 . S
C1045 C634 1.463 . S
C1054 C29 1.470 . S
C1056 C616 1.461 . S
C1067 C665 1.478 . S
C1065 C273 1.461 . S
C1078 C655 1.454 . S
C1076 C439 1.460 . S
C1089 C660 1.484 . S
C1087 C477 1.475 . S
C1098 C503 1.536 . S
C1100 C663 1.521 . S
C1109 C337 1.446 . S
C1111 C585 1.430 . S
C1122 C577 1.420 . S
C1120 C183 1.393 . S
C1133 C598 1.539 . S
C1131 C221 1.541 . S
C1144 C603 1.497 . S
C1142 C247 1.484 . S
C1153 C433 1.466 . S
C1155 C546 1.475 . S
C1166 C533 1.540 . S
C1164 C61 1.537 . S
C1175 C87 1.503 . S
C1177 C538 1.489 . S
C1188 C512 1.445 . S
C1186 C23 1.438 . S
