# Generated by pormake.
# Topology wbl, (4,4)-cn, num edge types: 1
# Building blocks:
#     Node 0, Type 0, BuildingBlock: NAWXER_clean_linker_0, # of connection points: 4
#     Node 1, Type 0, BuildingBlock: NAWXER_clean_linker_0, # of connection points: 4
#     Node 2, Type 0, BuildingBlock: NAWXER_clean_linker_0, # of connection points: 4
#     Node 3, Type 0, BuildingBlock: NAWXER_clean_linker_0, # of connection points: 4
#     Node 4, Type 0, BuildingBlock: NAWXER_clean_linker_0, # of connection points: 4
#     Node 5, Type 0, BuildingBlock: NAWXER_clean_linker_0, # of connection points: 4
#     Node 6, Type 0, BuildingBlock: NAWXER_clean_linker_0, # of connection points: 4
#     Node 7, Type 0, BuildingBlock: NAWXER_clean_linker_0, # of connection points: 4
#     Node 8, Type 1, BuildingBlock: GALJAG_clean_sbu_0, # of connection points: 4
#     Node 9, Type 1, BuildingBlock: GALJAG_clean_sbu_0, # of connection points: 4
#     Node 10, Type 1, BuildingBlock: GALJAG_clean_sbu_0, # of connection points: 4
#     Node 11, Type 1, BuildingBlock: GALJAG_clean_sbu_0, # of connection points: 4
#     Node 12, Type 1, BuildingBlock: GALJAG_clean_sbu_0, # of connection points: 4
#     Node 13, Type 1, BuildingBlock: GALJAG_clean_sbu_0, # of connection points: 4
#     Node 14, Type 1, BuildingBlock: GALJAG_clean_sbu_0, # of connection points: 4
#     Node 15, Type 1, BuildingBlock: GALJAG_clean_sbu_0, # of connection points: 4
#     Edge 16, Type (0, 1), BuildingBlock: AJUNOK_clean_linker_0, # of connection points: 2
#     Edge 17, Type (0, 1), BuildingBlock: AJUNOK_clean_linker_0, # of connection points: 2
#     Edge 18, Type (0, 1), BuildingBlock: AJUNOK_clean_linker_0, # of connection points: 2
#     Edge 19, Type (0, 1), BuildingBlock: AJUNOK_clean_linker_0, # of connection points: 2
#     Edge 20, Type (0, 1), BuildingBlock: AJUNOK_clean_linker_0, # of connection points: 2
#     Edge 21, Type (0, 1), BuildingBlock: AJUNOK_clean_linker_0, # of connection points: 2
#     Edge 22, Type (0, 1), BuildingBlock: AJUNOK_clean_linker_0, # of connection points: 2
#     Edge 23, Type (0, 1), BuildingBlock: AJUNOK_clean_linker_0, # of connection points: 2
#     Edge 24, Type (0, 1), BuildingBlock: AJUNOK_clean_linker_0, # of connection points: 2
#     Edge 25, Type (0, 1), BuildingBlock: AJUNOK_clean_linker_0, # of connection points: 2
#     Edge 26, Type (0, 1), BuildingBlock: AJUNOK_clean_linker_0, # of connection points: 2
#     Edge 27, Type (0, 1), BuildingBlock: AJUNOK_clean_linker_0, # of connection points: 2
#     Edge 28, Type (0, 1), BuildingBlock: AJUNOK_clean_linker_0, # of connection points: 2
#     Edge 29, Type (0, 1), BuildingBlock: AJUNOK_clean_linker_0, # of connection points: 2
#     Edge 30, Type (0, 1), BuildingBlock: AJUNOK_clean_linker_0, # of connection points: 2
#     Edge 31, Type (0, 1), BuildingBlock: AJUNOK_clean_linker_0, # of connection points: 2
#     Edge 32, Type (0, 1), BuildingBlock: AJUNOK_clean_linker_0, # of connection points: 2
#     Edge 33, Type (0, 1), BuildingBlock: AJUNOK_clean_linker_0, # of connection points: 2
#     Edge 34, Type (0, 1), BuildingBlock: AJUNOK_clean_linker_0, # of connection points: 2
#     Edge 35, Type (0, 1), BuildingBlock: AJUNOK_clean_linker_0, # of connection points: 2
#     Edge 36, Type (0, 1), BuildingBlock: AJUNOK_clean_linker_0, # of connection points: 2
#     Edge 37, Type (0, 1), BuildingBlock: AJUNOK_clean_linker_0, # of connection points: 2
#     Edge 38, Type (0, 1), BuildingBlock: AJUNOK_clean_linker_0, # of connection points: 2
#     Edge 39, Type (0, 1), BuildingBlock: AJUNOK_clean_linker_0, # of connection points: 2
#     Edge 40, Type (0, 1), BuildingBlock: AJUNOK_clean_linker_0, # of connection points: 2
#     Edge 41, Type (0, 1), BuildingBlock: AJUNOK_clean_linker_0, # of connection points: 2
#     Edge 42, Type (0, 1), BuildingBlock: AJUNOK_clean_linker_0, # of connection points: 2
#     Edge 43, Type (0, 1), BuildingBlock: AJUNOK_clean_linker_0, # of connection points: 2
#     Edge 44, Type (0, 1), BuildingBlock: AJUNOK_clean_linker_0, # of connection points: 2
#     Edge 45, Type (0, 1), BuildingBlock: AJUNOK_clean_linker_0, # of connection points: 2
#     Edge 46, Type (0, 1), BuildingBlock: AJUNOK_clean_linker_0, # of connection points: 2
#     Edge 47, Type (0, 1), BuildingBlock: AJUNOK_clean_linker_0, # of connection points: 2
# Relax obj value: 0.140
# Max RMSD: 0.149
# Mean RMSD: 0.132
data_MOF--net-wbl--node1-GALJAG_clean_sbu_0--node2-NAWXER_clean_linker_0--edge1-AJUNOK_clean_linker_0
_symmetry_space_group_name_H-M    P1
_symmetry_Int_Tables_number       1
_symmetry_cell_setting            triclinic
loop_
_symmetry_equiv_pos_as_xyz
'x, y, z'
_cell_length_a     34.16184
_cell_length_b     34.272053
_cell_length_c     66.507683
_cell_angle_alpha  90.015026
_cell_angle_beta   90.072481
_cell_angle_gamma 90.034668
loop_
_atom_site_label
_atom_site_type_symbol
_atom_site_fract_x
_atom_site_fract_y
_atom_site_fract_z
_atom_type_partial_charge
C0 C 0.07012 0.89914 0.38554 0.0
C1 C 0.09055 0.9178 0.40116 0.0
C2 C 0.0529 0.92116 0.37014 0.0
C3 C 0.05641 0.96204 0.37007 0.0
C4 C 0.09571 0.9584 0.40046 0.0
C5 C 0.07863 0.9803 0.38514 0.0
C6 C 0.03262 0.98652 0.35641 0.0
C7 C 0.11815 0.92522 0.31717 0.0
C8 C 0.10259 0.90339 0.30123 0.0
C9 C 0.09431 0.95026 0.32824 0.0
C10 C 0.05405 0.95303 0.32404 0.0
C11 C 0.06268 0.90674 0.29655 0.0
C12 C 0.03854 0.93132 0.30793 0.0
C13 C 0.02877 0.98039 0.33548 0.0
C14 C 0.92524 0.11497 0.31009 0.0
C15 C 0.89754 0.09503 0.29827 0.0
C16 C 0.95253 0.09429 0.32161 0.0
C17 C 0.95248 0.05329 0.32159 0.0
C18 C 0.89795 0.05397 0.29813 0.0
C19 C 0.92544 0.03336 0.30949 0.0
C20 C 0.98037 0.03086 0.33408 0.0
C21 C 0.90119 0.08604 0.38189 0.0
C22 C 0.92155 0.10783 0.39645 0.0
C23 C 0.92173 0.06523 0.36716 0.0
C24 C 0.96285 0.06628 0.36675 0.0
C25 C 0.96246 0.1105 0.39528 0.0
C26 C 0.98289 0.08989 0.3806 0.0
C27 C 0.98554 0.03781 0.35482 0.0
H28 H 0.06577 0.86783 0.3858 0.0
H29 H 0.03525 0.90645 0.35892 0.0
H30 H 0.11195 0.97335 0.41216 0.0
H31 H 0.08168 0.01177 0.38543 0.0
H32 H 0.14909 0.92368 0.32071 0.0
H33 H 0.10772 0.96805 0.3398 0.0
H34 H 0.05026 0.89036 0.28416 0.0
H35 H 0.00777 0.9334 0.30412 0.0
H36 H 0.92577 0.14656 0.31044 0.0
H37 H 0.97365 0.11032 0.33054 0.0
H38 H 0.87635 0.03767 0.28966 0.0
H39 H 0.92485 0.00175 0.30927 0.0
H40 H 0.86966 0.0831 0.38267 0.0
H41 H 0.90565 0.0464 0.35701 0.0
H42 H 0.97876 0.12723 0.4063 0.0
H43 H 0.0146 0.09087 0.38067 0.0
N44 N 0.01123 0.01523 0.36507 0.0
N45 N 0.0023 0.0025 0.32517 0.0
C46 C 0.90877 0.42533 0.63592 0.0
C47 C 0.92783 0.40378 0.65101 0.0
C48 C 0.93037 0.44285 0.62049 0.0
C49 C 0.97128 0.43888 0.61991 0.0
C50 C 0.96841 0.39778 0.6496 0.0
C51 C 0.98996 0.41553 0.63433 0.0
C52 C 0.99529 0.4637 0.60659 0.0
C53 C 0.94076 0.37665 0.56525 0.0
C54 C 0.91285 0.39226 0.55204 0.0
C55 C 0.96496 0.40124 0.57644 0.0
C56 C 0.96182 0.44191 0.57453 0.0
C57 C 0.90933 0.43287 0.55017 0.0
C58 C 0.93401 0.45759 0.56121 0.0
C59 C 0.98891 0.46769 0.58572 0.0
C60 C 0.12566 0.56981 0.56166 0.0
C61 C 0.10702 0.59619 0.54862 0.0
C62 C 0.10368 0.54342 0.57303 0.0
C63 C 0.06261 0.54314 0.57172 0.0
C64 C 0.06595 0.5952 0.547 0.0
C65 C 0.04401 0.56867 0.5583 0.0
C66 C 0.03897 0.51637 0.58429 0.0
C67 C 0.08699 0.60064 0.63138 0.0
C68 C 0.11142 0.58299 0.64575 0.0
C69 C 0.06739 0.57789 0.61709 0.0
C70 C 0.07176 0.53714 0.61709 0.0
C71 C 0.11717 0.54246 0.64509 0.0
C72 C 0.09728 0.51972 0.63098 0.0
C73 C 0.0452 0.51219 0.60516 0.0
H74 H 0.87751 0.43036 0.63665 0.0
H75 H 0.91538 0.46134 0.60975 0.0
H76 H 0.98369 0.38041 0.66071 0.0
H77 H 0.02149 0.41211 0.63417 0.0
H78 H 0.94405 0.34534 0.56676 0.0
H79 H 0.98675 0.38842 0.58627 0.0
H80 H 0.88813 0.44535 0.53989 0.0
H81 H 0.93136 0.4889 0.5594 0.0
H82 H 0.15724 0.56974 0.56314 0.0
H83 H 0.11881 0.52329 0.58289 0.0
H84 H 0.05064 0.61574 0.53745 0.0
H85 H 0.01239 0.56891 0.55701 0.0
H86 H 0.08196 0.63184 0.63169 0.0
H87 H 0.04713 0.59188 0.60683 0.0
H88 H 0.13528 0.52808 0.65623 0.0
H89 H 0.1006 0.48829 0.63141 0.0
N90 N 0.0232 0.48601 0.61542 0.0
N91 N 0.01091 0.49401 0.57532 0.0
C92 C 0.56112 0.38882 0.88106 0.0
C93 C 0.5869 0.40246 0.89593 0.0
C94 C 0.54476 0.41484 0.8672 0.0
C95 C 0.55361 0.45485 0.86825 0.0
C96 C 0.5968 0.44218 0.8965 0.0
C97 C 0.57989 0.46825 0.88293 0.0
C98 C 0.53227 0.48328 0.85567 0.0
C99 C 0.61789 0.42472 0.81582 0.0
C100 C 0.60259 0.40522 0.79904 0.0
C101 C 0.5943 0.44943 0.82719 0.0
C102 C 0.55446 0.45418 0.82244 0.0
C103 C 0.56319 0.41074 0.79377 0.0
C104 C 0.53923 0.435 0.80544 0.0
C105 C 0.52947 0.48074 0.83455 0.0
C106 C 0.41903 0.61634 0.81551 0.0
C107 C 0.39602 0.59711 0.80102 0.0
C108 C 0.4483 0.59618 0.82599 0.0
C109 C 0.45418 0.55604 0.82269 0.0
C110 C 0.40378 0.55764 0.79685 0.0
C111 C 0.43238 0.53738 0.80759 0.0
C112 C 0.48257 0.53272 0.83464 0.0
C113 C 0.4059 0.58405 0.88534 0.0
C114 C 0.42773 0.60601 0.89926 0.0
C115 C 0.42491 0.56306 0.87013 0.0
C116 C 0.4659 0.56428 0.86855 0.0
C117 C 0.46844 0.60889 0.89689 0.0
C118 C 0.48734 0.588 0.88177 0.0
C119 C 0.48736 0.53648 0.8557 0.0
H120 H 0.55302 0.35828 0.88049 0.0
H121 H 0.52399 0.40403 0.85621 0.0
H122 H 0.61639 0.45325 0.908 0.0
H123 H 0.58676 0.49904 0.8841 0.0
H124 H 0.64848 0.42157 0.81983 0.0
H125 H 0.60759 0.46535 0.83949 0.0
H126 H 0.55101 0.39622 0.78071 0.0
H127 H 0.50882 0.43869 0.80122 0.0
H128 H 0.41368 0.64661 0.81925 0.0
H129 H 0.46584 0.61197 0.83683 0.0
H130 H 0.38709 0.54211 0.78553 0.0
H131 H 0.43666 0.50666 0.80442 0.0
H132 H 0.37447 0.58133 0.88694 0.0
H133 H 0.40788 0.54433 0.86033 0.0
H134 H 0.48581 0.62608 0.90727 0.0
H135 H 0.519 0.58913 0.88088 0.0
N136 N 0.51175 0.51143 0.86529 0.0
N137 N 0.5042 0.50513 0.82489 0.0
C138 C 0.42244 0.87687 0.06824 0.0
C139 C 0.3979 0.89312 0.05352 0.0
C140 C 0.45006 0.8999 0.07813 0.0
C141 C 0.45312 0.93997 0.07391 0.0
C142 C 0.40182 0.93279 0.04866 0.0
C143 C 0.42917 0.95609 0.05884 0.0
C144 C 0.48228 0.96457 0.08461 0.0
C145 C 0.40155 0.92607 0.13509 0.0
C146 C 0.41964 0.90294 0.14988 0.0
C147 C 0.4239 0.94373 0.11999 0.0
C148 C 0.46468 0.93848 0.11945 0.0
C149 C 0.46028 0.89689 0.14891 0.0
C150 C 0.48258 0.91469 0.13394 0.0
C151 C 0.48943 0.96127 0.1055 0.0
C152 C 0.58508 0.09476 0.1291 0.0
C153 C 0.61149 0.07665 0.14233 0.0
C154 C 0.56429 0.0726 0.11502 0.0
C155 C 0.56933 0.03198 0.11417 0.0
C156 C 0.61824 0.0364 0.14063 0.0
C157 C 0.59699 0.01417 0.12679 0.0
C158 C 0.54127 0.00751 0.10292 0.0
C159 C 0.61868 0.06468 0.05788 0.0
C160 C 0.59929 0.09432 0.04718 0.0
C161 C 0.59738 0.03733 0.06899 0.0
C162 C 0.55631 0.03884 0.06941 0.0
C163 C 0.55809 0.09476 0.04704 0.0
C164 C 0.53682 0.06709 0.05794 0.0
C165 C 0.53363 0.01177 0.0822 0.0
H166 H 0.42081 0.84605 0.07178 0.0
H167 H 0.46936 0.88613 0.08893 0.0
H168 H 0.38357 0.94574 0.03713 0.0
H169 H 0.4314 0.98674 0.05504 0.0
H170 H 0.37043 0.93194 0.13569 0.0
H171 H 0.40957 0.96281 0.1093 0.0
H172 H 0.47496 0.87903 0.16004 0.0
H173 H 0.51401 0.91049 0.13389 0.0
H174 H 0.57923 0.12573 0.1303 0.0
H175 H 0.54249 0.08683 0.10573 0.0
H176 H 0.63803 0.02177 0.1509 0.0
H177 H 0.60086 0.9828 0.12654 0.0
H178 H 0.65032 0.06278 0.0578 0.0
H179 H 0.61299 0.01516 0.07739 0.0
H180 H 0.54225 0.11727 0.03901 0.0
H181 H 0.50514 0.06864 0.05799 0.0
N182 N 0.50443 0.99011 0.07376 0.0
N183 N 0.51884 0.98255 0.11372 0.0
C184 C 0.06945 0.60668 0.87107 0.0
C185 C 0.08529 0.58915 0.85383 0.0
C186 C 0.05281 0.58362 0.88621 0.0
C187 C 0.05239 0.54271 0.8844 0.0
C188 C 0.08674 0.54831 0.85258 0.0
C189 C 0.07034 0.52534 0.86767 0.0
C190 C 0.02801 0.51818 0.89778 0.0
C191 C 0.1224 0.56136 0.9386 0.0
C192 C 0.10988 0.58748 0.95351 0.0
C193 C 0.09517 0.54084 0.92707 0.0
C194 C 0.05489 0.546 0.93028 0.0
C195 C 0.06966 0.59318 0.95659 0.0
C196 C 0.0423 0.57215 0.9452 0.0
C197 C 0.0263 0.52228 0.91886 0.0
C198 C 0.9082 0.39542 0.94089 0.0
C199 C 0.88739 0.41601 0.9557 0.0
C200 C 0.9376 0.41386 0.92977 0.0
C201 C 0.94602 0.45363 0.93283 0.0
C202 C 0.89817 0.45478 0.95988 0.0
C203 C 0.92692 0.47345 0.94847 0.0
C204 C 0.97475 0.47496 0.92015 0.0
C205 C 0.88975 0.43024 0.87126 0.0
C206 C 0.90769 0.4029 0.85847 0.0
C207 C 0.91198 0.45061 0.88552 0.0
C208 C 0.95245 0.44413 0.887 0.0
C209 C 0.94789 0.39549 0.86055 0.0
C210 C 0.9701 0.41616 0.87458 0.0
C211 C 0.97762 0.47006 0.89909 0.0
H212 H 0.06804 0.63817 0.87231 0.0
H213 H 0.0383 0.59787 0.89867 0.0
H214 H 0.09941 0.53416 0.83955 0.0
H215 H 0.07031 0.49391 0.86588 0.0
H216 H 0.15334 0.55659 0.93601 0.0
H217 H 0.10563 0.52024 0.91595 0.0
H218 H 0.05951 0.61312 0.96809 0.0
H219 H 0.01135 0.57629 0.94801 0.0
H220 H 0.90105 0.36534 0.93749 0.0
H221 H 0.95338 0.39697 0.91869 0.0
H222 H 0.88389 0.471 0.97176 0.0
H223 H 0.93354 0.50378 0.95159 0.0
H224 H 0.85882 0.43658 0.8698 0.0
H225 H 0.89799 0.47264 0.89472 0.0
H226 H 0.96254 0.37514 0.85063 0.0
H227 H 0.00141 0.41123 0.8753 0.0
N228 N 0.00393 0.49194 0.88885 0.0
N229 N 0.99942 0.50088 0.92922 0.0
C230 C 0.40637 0.58768 0.12282 0.0
C231 C 0.42466 0.60775 0.10695 0.0
C232 C 0.42874 0.56749 0.13707 0.0
C233 C 0.46982 0.56741 0.13581 0.0
C234 C 0.46573 0.6079 0.1059 0.0
C235 C 0.488 0.58804 0.12017 0.0
C236 C 0.49403 0.542 0.14885 0.0
C237 C 0.43654 0.62829 0.18898 0.0
C238 C 0.413 0.61242 0.20417 0.0
C239 C 0.46208 0.60455 0.17815 0.0
C240 C 0.46362 0.5642 0.18184 0.0
C241 C 0.41556 0.57246 0.20854 0.0
C242 C 0.44067 0.54848 0.19741 0.0
C243 C 0.48976 0.53858 0.16991 0.0
C244 C 0.61812 0.42011 0.18966 0.0
C245 C 0.5981 0.39945 0.20475 0.0
C246 C 0.59941 0.4499 0.17894 0.0
C247 C 0.55974 0.45855 0.18247 0.0
C248 C 0.55926 0.41004 0.20916 0.0
C249 C 0.54031 0.43907 0.19811 0.0
C250 C 0.538 0.48775 0.17025 0.0
C251 C 0.58043 0.40525 0.1201 0.0
C252 C 0.60294 0.42422 0.10538 0.0
C253 C 0.56268 0.42682 0.13548 0.0
C254 C 0.56781 0.46746 0.13642 0.0
C255 C 0.60989 0.46442 0.10709 0.0
C256 C 0.59235 0.48585 0.12242 0.0
C257 C 0.54264 0.49203 0.14923 0.0
H258 H 0.37475 0.58685 0.12392 0.0
H259 H 0.41388 0.55082 0.1486 0.0
H260 H 0.48073 0.62203 0.09354 0.0
H261 H 0.51959 0.58784 0.11866 0.0
H262 H 0.43553 0.65924 0.18569 0.0
H263 H 0.48068 0.61787 0.1669 0.0
H264 H 0.3978 0.55981 0.22034 0.0
H265 H 0.44176 0.51757 0.20077 0.0
H266 H 0.64784 0.41255 0.18562 0.0
H267 H 0.61599 0.46567 0.16773 0.0
H268 H 0.54315 0.39527 0.22094 0.0
H269 H 0.50999 0.44557 0.2015 0.0
H270 H 0.57465 0.37424 0.11897 0.0
H271 H 0.5432 0.41217 0.14587 0.0
H272 H 0.62751 0.47952 0.09601 0.0
H273 H 0.59645 0.5172 0.12279 0.0
N274 N 0.52052 0.5189 0.13954 0.0
N275 N 0.51164 0.51131 0.17973 0.0
C276 C 0.42016 0.89927 0.37105 0.0
C277 C 0.39675 0.91859 0.35677 0.0
C278 C 0.44014 0.92051 0.38584 0.0
C279 C 0.43722 0.96136 0.38644 0.0
C280 C 0.39218 0.95925 0.35821 0.0
C281 C 0.41248 0.98042 0.37279 0.0
C282 C 0.46439 0.98477 0.39884 0.0
C283 C 0.37795 0.93837 0.44262 0.0
C284 C 0.39267 0.90958 0.45555 0.0
C285 C 0.40327 0.96043 0.43078 0.0
C286 C 0.44385 0.95421 0.43168 0.0
C287 C 0.43318 0.90296 0.45643 0.0
C288 C 0.45872 0.92553 0.44471 0.0
C289 C 0.47031 0.979 0.4196 0.0
C290 C 0.57489 0.1137 0.44166 0.0
C291 C 0.6052 0.09507 0.45229 0.0
C292 C 0.54724 0.0918 0.431 0.0
C293 C 0.54905 0.05088 0.43099 0.0
C294 C 0.60624 0.05401 0.45264 0.0
C295 C 0.57822 0.03214 0.44223 0.0
C296 C 0.52057 0.02756 0.41933 0.0
C297 C 0.59835 0.07948 0.37021 0.0
C298 C 0.57786 0.09949 0.35509 0.0
C299 C 0.57787 0.05999 0.38544 0.0
C300 C 0.53671 0.06087 0.38584 0.0
C301 C 0.53699 0.10218 0.35616 0.0
C302 C 0.51662 0.08307 0.37139 0.0
C303 C 0.51397 0.03371 0.3986 0.0
H304 H 0.42487 0.86808 0.3701 0.0
H305 H 0.45977 0.90527 0.39595 0.0
H306 H 0.37404 0.97488 0.34755 0.0
H307 H 0.40997 0.01194 0.37294 0.0
H308 H 0.34677 0.94394 0.4418 0.0
H309 H 0.39116 0.98291 0.42116 0.0
H310 H 0.445 0.88095 0.46641 0.0
H311 H 0.48996 0.92052 0.44573 0.0
H312 H 0.57247 0.14519 0.4416 0.0
H313 H 0.52435 0.10683 0.42279 0.0
H314 H 0.62925 0.03873 0.46062 0.0
H315 H 0.57996 0.00058 0.44251 0.0
H316 H 0.62992 0.07687 0.36949 0.0
H317 H 0.59409 0.04224 0.39603 0.0
H318 H 0.52071 0.11757 0.34463 0.0
H319 H 0.48491 0.08402 0.37131 0.0
N320 N 0.48626 0.01195 0.38925 0.0
N321 N 0.49842 0.00042 0.42911 0.0
C322 C 0.09717 0.92149 0.62251 0.0
C323 C 0.07931 0.90367 0.60578 0.0
C324 C 0.07461 0.94155 0.6367 0.0
C325 C 0.03362 0.94295 0.63483 0.0
C326 C 0.03831 0.90479 0.60412 0.0
C327 C 0.0158 0.92408 0.61848 0.0
C328 C 0.00918 0.96747 0.64825 0.0
C329 C 0.06751 0.88042 0.68795 0.0
C330 C 0.0914 0.89596 0.70315 0.0
C331 C 0.042 0.90443 0.67721 0.0
C332 C 0.04075 0.94476 0.681 0.0
C333 C 0.08926 0.93597 0.70752 0.0
C334 C 0.06412 0.96021 0.6965 0.0
C335 C 0.0142 0.97054 0.66934 0.0
C336 C 0.8794 0.07513 0.69304 0.0
C337 C 0.89881 0.10234 0.70535 0.0
C338 C 0.90069 0.04796 0.68182 0.0
C339 C 0.94178 0.04759 0.68264 0.0
C340 C 0.93995 0.10144 0.70635 0.0
C341 C 0.96118 0.07403 0.69528 0.0
C342 C 0.96472 0.01988 0.67035 0.0
C343 C 0.91741 0.10261 0.62195 0.0
C344 C 0.89123 0.08431 0.60864 0.0
C345 C 0.93754 0.08073 0.63639 0.0
C346 C 0.93208 0.04018 0.63751 0.0
C347 C 0.88431 0.04411 0.6105 0.0
C348 C 0.90488 0.02217 0.6247 0.0
C349 C 0.95897 0.01574 0.64947 0.0
H350 H 0.1286 0.92049 0.6245 0.0
H351 H 0.08939 0.95681 0.64878 0.0
H352 H 0.02358 0.89177 0.59134 0.0
H353 H 0.98431 0.92504 0.61652 0.0
H354 H 0.06812 0.84948 0.68462 0.0
H355 H 0.02316 0.89135 0.66597 0.0
H356 H 0.10729 0.94848 0.71928 0.0
H357 H 0.06327 0.9911 0.69994 0.0
H358 H 0.84775 0.07495 0.69205 0.0
H359 H 0.88504 0.02725 0.67248 0.0
H360 H 0.95588 0.12264 0.71524 0.0
H361 H 0.99285 0.07426 0.69611 0.0
H362 H 0.92336 0.13357 0.62065 0.0
H363 H 0.95899 0.09507 0.64587 0.0
H364 H 0.86471 0.02929 0.6002 0.0
H365 H 0.9007 0.99084 0.62515 0.0
N366 N 0.98148 0.9899 0.63931 0.0
N367 N 0.99208 0.99709 0.67953 0.0
In368 In 0.3102 0.69403 0.00265 0.0
O369 O 0.29235 0.74638 0.02174 0.0
O370 O 0.33275 0.756 0.99808 0.0
C371 C 0.23905 0.66392 0.99383 0.0
C372 C 0.34358 0.66775 0.03679 0.0
C373 C 0.35072 0.66963 0.97001 0.0
O374 O 0.24695 0.69956 0.99108 0.0
O375 O 0.26639 0.64453 0.00168 0.0
O376 O 0.35624 0.65632 0.98744 0.0
O377 O 0.32503 0.69597 0.969 0.0
C378 C 0.31524 0.76997 0.01314 0.0
O379 O 0.3615 0.68861 0.02418 0.0
O380 O 0.30891 0.65896 0.03195 0.0
In381 In 0.30432 0.80832 0.25223 0.0
O382 O 0.29621 0.75065 0.23542 0.0
O383 O 0.34306 0.75471 0.25622 0.0
C384 C 0.22878 0.82534 0.2607 0.0
C385 C 0.33667 0.84134 0.21938 0.0
C386 C 0.33488 0.84001 0.28589 0.0
O387 O 0.24588 0.79569 0.26768 0.0
O388 O 0.24914 0.84514 0.24866 0.0
O389 O 0.33296 0.85803 0.26937 0.0
O390 O 0.32192 0.80551 0.28539 0.0
C391 C 0.32569 0.73441 0.24318 0.0
O392 O 0.35383 0.8396 0.23618 0.0
O393 O 0.30256 0.82708 0.21923 0.0
In394 In 0.19096 0.80684 0.50323 0.0
O395 O 0.1401 0.81638 0.52471 0.0
O396 O 0.19536 0.84045 0.5328 0.0
C397 C 0.15306 0.83699 0.47097 0.0
C398 C 0.18047 0.73045 0.51178 0.0
C399 C 0.26431 0.83234 0.49524 0.0
O400 O 0.14821 0.84913 0.48866 0.0
O401 O 0.17665 0.80886 0.46949 0.0
O402 O 0.25332 0.79817 0.49083 0.0
O403 O 0.23888 0.85238 0.50421 0.0
C404 C 0.15981 0.83565 0.53734 0.0
O405 O 0.20478 0.7515 0.52113 0.0
O406 O 0.16353 0.74737 0.49737 0.0
In407 In 0.18814 0.69631 0.75254 0.0
O408 O 0.14031 0.65994 0.76694 0.0
O409 O 0.17345 0.6971 0.78608 0.0
C410 C 0.16635 0.66231 0.71761 0.0
C411 C 0.25836 0.66885 0.76474 0.0
C412 C 0.17456 0.77199 0.74308 0.0
O413 O 0.14207 0.67443 0.73045 0.0
O414 O 0.20175 0.66709 0.72246 0.0
O415 O 0.20017 0.75169 0.73433 0.0
O416 O 0.15779 0.7549 0.75746 0.0
C417 C 0.14676 0.6717 0.78463 0.0
O418 O 0.25208 0.70505 0.7629 0.0
O419 O 0.22995 0.64743 0.75985 0.0
In420 In 0.80978 0.19365 0.50181 0.0
O421 O 0.79935 0.25346 0.51676 0.0
O422 O 0.8517 0.24485 0.50039 0.0
C423 C 0.7368 0.17201 0.49095 0.0
C424 C 0.8326 0.15918 0.53634 0.0
C425 C 0.84418 0.16764 0.46786 0.0
O426 O 0.75042 0.20542 0.48701 0.0
O427 O 0.75913 0.15059 0.50124 0.0
O428 O 0.84924 0.15155 0.48474 0.0
O429 O 0.82215 0.19715 0.46816 0.0
C430 C 0.8319 0.26734 0.51133 0.0
O431 O 0.85505 0.16349 0.52145 0.0
O432 O 0.79821 0.17175 0.53375 0.0
In433 In 0.80599 0.31074 0.75187 0.0
O434 O 0.85712 0.34355 0.73787 0.0
O435 O 0.80917 0.32961 0.7189 0.0
C436 C 0.83523 0.33797 0.78687 0.0
C437 C 0.82442 0.2364 0.74216 0.0
C438 C 0.73006 0.32771 0.75945 0.0
O439 O 0.82606 0.36006 0.77242 0.0
O440 O 0.82992 0.30206 0.78358 0.0
O441 O 0.74695 0.29824 0.76678 0.0
O442 O 0.75091 0.34733 0.74755 0.0
C443 C 0.84263 0.34492 0.72044 0.0
O444 O 0.79538 0.25384 0.73461 0.0
O445 O 0.84293 0.25589 0.75512 0.0
In446 In 0.68279 0.30614 1.00058 0.0
O447 O 0.69914 0.24867 0.01607 0.0
O448 O 0.64773 0.24968 0.99826 0.0
C449 C 0.75205 0.34016 0.99191 0.0
C450 C 0.65643 0.34317 0.03378 0.0
C451 C 0.64758 0.3212 0.9652 0.0
O452 O 0.74753 0.30355 0.99105 0.0
O453 O 0.72255 0.35861 0.99808 0.0
O454 O 0.63052 0.32558 0.9819 0.0
O455 O 0.68188 0.30764 0.96632 0.0
C456 C 0.6693 0.23045 0.00999 0.0
O457 O 0.64202 0.34846 0.01654 0.0
O458 O 0.6843 0.31909 0.03432 0.0
In459 In 0.6892 0.18601 0.24975 0.0
O460 O 0.65583 0.13918 0.26689 0.0
O461 O 0.67086 0.19077 0.28276 0.0
C462 C 0.66832 0.15184 0.21485 0.0
C463 C 0.76338 0.16723 0.25996 0.0
C464 C 0.66471 0.25872 0.24002 0.0
O465 O 0.6463 0.15298 0.23006 0.0
O466 O 0.7015 0.16752 0.21725 0.0
O467 O 0.7004 0.24925 0.2392 0.0
O468 O 0.64243 0.23227 0.2464 0.0
C469 C 0.65461 0.15773 0.28325 0.0
O470 O 0.74675 0.19764 0.26643 0.0
O471 O 0.74315 0.14739 0.24783 0.0
C472 C 0.14933 0.8479 0.29835 0.0
C473 C 0.12905 0.87873 0.28913 0.0
C474 C 0.17964 0.82847 0.28831 0.0
C475 C 0.19127 0.83987 0.26888 0.0
H476 H 0.14275 0.83984 0.31374 0.0
H477 H 0.19568 0.80612 0.29636 0.0
S478 S 0.14491 0.9168 0.23768 0.0
N479 N 0.12031 0.91781 0.25905 0.0
N480 N 0.17793 0.88194 0.24023 0.0
C481 C 0.16974 0.8693 0.25912 0.0
C482 C 0.13845 0.88861 0.26925 0.0
C483 C 0.15769 0.64905 0.54837 0.0
C484 C 0.13001 0.62649 0.53782 0.0
C485 C 0.17607 0.68114 0.53933 0.0
C486 C 0.16732 0.69201 0.51942 0.0
H487 H 0.16377 0.64311 0.56407 0.0
H488 H 0.19559 0.69879 0.54841 0.0
S489 S 0.10186 0.63868 0.48431 0.0
N490 N 0.09858 0.61422 0.50563 0.0
N491 N 0.13253 0.67496 0.48871 0.0
C492 C 0.14166 0.66818 0.5083 0.0
C493 C 0.1231 0.63538 0.51749 0.0
C494 C 0.32632 0.59648 0.78968 0.0
C495 C 0.36202 0.61674 0.79128 0.0
C496 C 0.29346 0.61362 0.78083 0.0
C497 C 0.29455 0.65201 0.7734 0.0
H498 H 0.32346 0.56718 0.79561 0.0
H499 H 0.26669 0.59669 0.78017 0.0
S500 S 0.38103 0.71742 0.7731 0.0
N501 N 0.39692 0.677 0.7839 0.0
N502 N 0.3344 0.70973 0.76779 0.0
C503 C 0.32991 0.67281 0.77485 0.0
C504 C 0.36376 0.6551 0.78369 0.0
C505 C 0.37366 0.86222 0.02182 0.0
C506 C 0.36998 0.8676 0.04267 0.0
C507 C 0.35314 0.83234 0.01193 0.0
C508 C 0.32794 0.80713 0.02254 0.0
H509 H 0.39445 0.8795 0.01335 0.0
H510 H 0.35883 0.82756 0.9961 0.0
S511 S 0.30413 0.81328 0.07692 0.0
N512 N 0.33639 0.84844 0.07324 0.0
N513 N 0.29735 0.79263 0.05475 0.0
C514 C 0.3216 0.81449 0.04311 0.0
C515 C 0.34285 0.84458 0.05318 0.0
C516 C 0.14419 0.64814 0.96499 0.0
C517 C 0.1393 0.6075 0.96615 0.0
C518 C 0.17555 0.66665 0.97483 0.0
C519 C 0.2028 0.6451 0.98623 0.0
H520 H 0.12471 0.66542 0.95572 0.0
H521 H 0.17929 0.6978 0.97283 0.0
S522 S 0.19932 0.53831 0.99579 0.0
N523 N 0.16173 0.5467 0.98079 0.0
N524 N 0.22025 0.58114 0.99952 0.0
C525 C 0.19661 0.60466 0.9884 0.0
C526 C 0.16498 0.58593 0.97827 0.0
C527 C 0.35652 0.65828 0.20535 0.0
C528 C 0.38648 0.63831 0.21552 0.0
C529 C 0.33475 0.68741 0.215 0.0
C530 C 0.34284 0.69813 0.23501 0.0
H531 H 0.35086 0.65226 0.18962 0.0
H532 H 0.31312 0.70322 0.2063 0.0
S533 S 0.41634 0.65217 0.26858 0.0
N534 N 0.42127 0.6289 0.24698 0.0
N535 N 0.38099 0.68435 0.26509 0.0
C536 C 0.37147 0.67697 0.24561 0.0
C537 C 0.39317 0.64686 0.23586 0.0
C538 C 0.35622 0.84855 0.46426 0.0
C539 C 0.36511 0.88776 0.46842 0.0
C540 C 0.32488 0.82978 0.47395 0.0
C541 C 0.30158 0.84968 0.4881 0.0
H542 H 0.37221 0.83303 0.4527 0.0
H543 H 0.31769 0.80019 0.46957 0.0
S544 S 0.3169 0.9513 0.50597 0.0
N545 N 0.35105 0.94472 0.48876 0.0
N546 N 0.29264 0.90969 0.50722 0.0
C547 C 0.31213 0.88814 0.4933 0.0
C548 C 0.34376 0.90715 0.48336 0.0
C549 C 0.14532 0.84694 0.70426 0.0
C550 C 0.1176 0.86965 0.71457 0.0
C551 C 0.16622 0.8174 0.71412 0.0
C552 C 0.15954 0.80899 0.73455 0.0
H553 H 0.14978 0.85111 0.68828 0.0
H554 H 0.18587 0.79945 0.70531 0.0
S555 S 0.09258 0.86266 0.76863 0.0
N556 N 0.08682 0.88412 0.74659 0.0
N557 N 0.12553 0.82808 0.76513 0.0
C558 C 0.13349 0.83302 0.74528 0.0
C559 C 0.11263 0.86349 0.73528 0.0
C560 C 0.64756 0.34843 0.79565 0.0
C561 C 0.62895 0.38071 0.78681 0.0
C562 C 0.67831 0.32923 0.78584 0.0
C563 C 0.69205 0.34223 0.76705 0.0
H564 H 0.63941 0.3391 0.81064 0.0
H565 H 0.69303 0.30572 0.79367 0.0
S566 S 0.65043 0.42333 0.73687 0.0
N567 N 0.62395 0.4229 0.75764 0.0
N568 N 0.68226 0.38735 0.73924 0.0
C569 C 0.67205 0.37307 0.75756 0.0
C570 C 0.64036 0.39222 0.76745 0.0
C571 C 0.60998 0.13831 0.01754 0.0
C572 C 0.62154 0.12579 0.0368 0.0
C573 C 0.6272 0.17098 0.00846 0.0
C574 C 0.65694 0.19222 0.0182 0.0
H575 H 0.58666 0.12335 0.00961 0.0
H576 H 0.61623 0.18039 0.99396 0.0
S577 S 0.69877 0.17096 0.06854 0.0
N578 N 0.6652 0.13692 0.06517 0.0
N579 N 0.69832 0.19757 0.04785 0.0
C580 C 0.67014 0.17897 0.03704 0.0
C581 C 0.65227 0.14594 0.0464 0.0
C582 C 0.84585 0.1469 0.29659 0.0
C583 C 0.86679 0.11677 0.28703 0.0
C584 C 0.81372 0.16476 0.28721 0.0
C585 C 0.80114 0.15293 0.26801 0.0
H586 H 0.8532 0.15557 0.31179 0.0
H587 H 0.79746 0.18659 0.29551 0.0
S588 S 0.84953 0.07975 0.23532 0.0
N589 N 0.87557 0.07943 0.25626 0.0
N590 N 0.8145 0.11218 0.2389 0.0
C591 C 0.82307 0.1244 0.25784 0.0
C592 C 0.85602 0.10651 0.26729 0.0
C593 C 0.90754 0.34379 0.52446 0.0
C594 C 0.88916 0.36549 0.53962 0.0
C595 C 0.88767 0.31381 0.51444 0.0
C596 C 0.84882 0.30399 0.51945 0.0
H597 H 0.93799 0.34914 0.52083 0.0
H598 H 0.90365 0.297 0.50337 0.0
S599 S 0.787 0.35446 0.55723 0.0
N600 N 0.82952 0.37738 0.55838 0.0
N601 N 0.79193 0.32051 0.53977 0.0
C602 C 0.82949 0.3269 0.53394 0.0
C603 C 0.84977 0.35776 0.54401 0.0
C604 C 0.64897 0.10684 0.48203 0.0
C605 C 0.63619 0.11804 0.46274 0.0
C606 C 0.68051 0.12564 0.49145 0.0
C607 C 0.70012 0.15678 0.48209 0.0
H608 H 0.63495 0.08283 0.48979 0.0
H609 H 0.69012 0.11516 0.50601 0.0
S610 S 0.67869 0.19736 0.43158 0.0
N611 N 0.6462 0.16214 0.43452 0.0
N612 N 0.70453 0.19828 0.45257 0.0
C613 C 0.68691 0.16923 0.46313 0.0
C614 C 0.65518 0.14968 0.45337 0.0
C615 C 0.84731 0.1544 0.70591 0.0
C616 C 0.87645 0.13314 0.71613 0.0
C617 C 0.82887 0.18647 0.71492 0.0
C618 C 0.8391 0.19868 0.73442 0.0
H619 H 0.8399 0.14732 0.69049 0.0
H620 H 0.80789 0.20296 0.70614 0.0
S621 S 0.90917 0.14947 0.7687 0.0
N622 N 0.91112 0.12374 0.74772 0.0
N623 N 0.87725 0.18469 0.76445 0.0
C624 C 0.8666 0.17645 0.74521 0.0
C625 C 0.8851 0.14357 0.73611 0.0
C626 C 0.85538 0.35883 0.97294 0.0
C627 C 0.85338 0.39767 0.96604 0.0
C628 C 0.82277 0.34049 0.98169 0.0
C629 C 0.78714 0.36047 0.98406 0.0
H630 H 0.88229 0.34238 0.97147 0.0
H631 H 0.82544 0.31042 0.98651 0.0
S632 S 0.76578 0.46172 0.96746 0.0
N633 N 0.812 0.45467 0.96131 0.0
N634 N 0.75145 0.42088 0.97833 0.0
C635 C 0.78485 0.39939 0.9774 0.0
C636 C 0.81777 0.41781 0.96826 0.0
C637 C 0.59352 0.33105 0.21759 0.0
C638 C 0.61614 0.36496 0.2148 0.0
C639 C 0.60945 0.29745 0.22623 0.0
C640 C 0.64892 0.29593 0.23218 0.0
H641 H 0.56333 0.33002 0.21262 0.0
H642 H 0.5908 0.27204 0.22771 0.0
S643 S 0.72035 0.37721 0.22957 0.0
N644 N 0.6797 0.39561 0.22001 0.0
N645 N 0.71007 0.33155 0.23552 0.0
C646 C 0.67196 0.32956 0.22975 0.0
C647 C 0.6555 0.36423 0.22122 0.0
C648 C 0.1294 0.86353 0.41677 0.0
C649 C 0.10426 0.89568 0.41896 0.0
C650 C 0.14441 0.84404 0.43368 0.0
C651 C 0.13451 0.85589 0.45332 0.0
H652 H 0.13836 0.8541 0.40193 0.0
H653 H 0.16451 0.82005 0.43133 0.0
S654 S 0.06619 0.93594 0.46685 0.0
N655 N 0.06765 0.93663 0.44205 0.0
N656 N 0.09567 0.90024 0.47379 0.0
C657 C 0.10814 0.88711 0.4556 0.0
C658 C 0.09307 0.90694 0.43843 0.0
C659 C 0.10133 0.62723 0.67504 0.0
C660 C 0.12716 0.60587 0.66284 0.0
C661 C 0.11443 0.64568 0.6926 0.0
C662 C 0.15395 0.64379 0.69851 0.0
H663 H 0.07046 0.62862 0.67135 0.0
H664 H 0.09327 0.66119 0.70171 0.0
S665 S 0.23376 0.59343 0.67097 0.0
N666 N 0.19422 0.58511 0.6573 0.0
N667 N 0.21916 0.62013 0.69022 0.0
C668 C 0.18034 0.62349 0.68609 0.0
C669 C 0.16686 0.60438 0.66829 0.0
C670 C 0.37684 0.64836 0.91552 0.0
C671 C 0.40882 0.62283 0.91733 0.0
C672 C 0.35869 0.66409 0.93264 0.0
C673 C 0.37154 0.65433 0.95214 0.0
H674 H 0.36595 0.65635 0.90078 0.0
H675 H 0.33404 0.68355 0.93056 0.0
S676 S 0.45352 0.58759 0.96482 0.0
N677 N 0.45215 0.58784 0.94002 0.0
N678 N 0.41817 0.61716 0.97213 0.0
C679 C 0.40347 0.62868 0.95408 0.0
C680 C 0.42205 0.61298 0.93669 0.0
C681 C 0.41157 0.89264 0.18681 0.0
C682 C 0.39703 0.88744 0.16719 0.0
C683 C 0.3915 0.87806 0.20352 0.0
C684 C 0.35593 0.85781 0.20134 0.0
H685 H 0.4387 0.90831 0.18931 0.0
H686 H 0.4041 0.88269 0.21828 0.0
S687 S 0.30565 0.83563 0.15314 0.0
N688 N 0.34523 0.86006 0.14645 0.0
N689 N 0.30703 0.83303 0.17793 0.0
C690 C 0.34078 0.85266 0.18181 0.0
C691 C 0.3614 0.86742 0.16474 0.0
C692 C 0.12728 0.64147 0.83865 0.0
C693 C 0.098 0.61298 0.83646 0.0
C694 C 0.14188 0.66161 0.82187 0.0
C695 C 0.1275 0.65405 0.80238 0.0
H696 H 0.13992 0.64718 0.85331 0.0
H697 H 0.16549 0.68227 0.82412 0.0
S698 S 0.04689 0.58588 0.78926 0.0
N699 N 0.05241 0.58092 0.81379 0.0
N700 N 0.07962 0.61862 0.78228 0.0
C701 C 0.09673 0.62705 0.80023 0.0
C702 C 0.08205 0.60655 0.81727 0.0
C703 C 0.37073 0.60444 0.08139 0.0
C704 C 0.40127 0.62569 0.09051 0.0
C705 C 0.35129 0.61876 0.06432 0.0
C706 C 0.36208 0.65456 0.05566 0.0
H707 H 0.36276 0.57585 0.087 0.0
H708 H 0.32868 0.60101 0.05745 0.0
S709 S 0.43583 0.72414 0.07547 0.0
N710 N 0.43801 0.68652 0.09095 0.0
N711 N 0.40228 0.71282 0.05855 0.0
C712 C 0.39128 0.67689 0.06511 0.0
C713 C 0.41068 0.66261 0.08262 0.0
C714 C 0.38542 0.91316 0.31978 0.0
C715 C 0.38036 0.89744 0.33915 0.0
C716 C 0.37078 0.89419 0.30274 0.0
C717 C 0.35069 0.85852 0.30431 0.0
H718 H 0.40123 0.94028 0.31771 0.0
H719 H 0.37546 0.90761 0.28819 0.0
S720 S 0.32861 0.80541 0.3516 0.0
N721 N 0.35299 0.8445 0.35899 0.0
N722 N 0.32595 0.80832 0.32684 0.0
C723 C 0.34551 0.84226 0.32356 0.0
C724 C 0.36027 0.8618 0.341 0.0
C725 C 0.09015 0.84983 0.5809 0.0
C726 C 0.10285 0.88517 0.58955 0.0
C727 C 0.10915 0.83376 0.5642 0.0
C728 C 0.14207 0.85196 0.55573 0.0
H729 H 0.06487 0.8347 0.58689 0.0
H730 H 0.09784 0.80693 0.55782 0.0
S731 S 0.18739 0.94476 0.57248 0.0
N732 N 0.15037 0.9381 0.58804 0.0
N733 N 0.18708 0.90678 0.55721 0.0
C734 C 0.15597 0.88657 0.56453 0.0
C735 C 0.13616 0.90341 0.58132 0.0
C736 C 0.64152 0.36948 0.91417 0.0
C737 C 0.60122 0.37632 0.91197 0.0
C738 C 0.65608 0.34922 0.93089 0.0
C739 C 0.63087 0.33604 0.94619 0.0
H740 H 0.66195 0.38085 0.90318 0.0
H741 H 0.68748 0.34575 0.93236 0.0
S742 S 0.5227 0.34505 0.94679 0.0
N743 N 0.53614 0.36669 0.9257 0.0
N744 N 0.5635 0.32946 0.95745 0.0
C745 C 0.59038 0.34158 0.94376 0.0
C746 C 0.57554 0.36154 0.92655 0.0
C747 C 0.60134 0.11431 0.17382 0.0
C748 C 0.62742 0.09834 0.15974 0.0
C749 C 0.61502 0.13165 0.19154 0.0
C750 C 0.65532 0.13428 0.19567 0.0
H751 H 0.57002 0.11232 0.1714 0.0
H752 H 0.59377 0.14301 0.20211 0.0
S753 S 0.73565 0.09805 0.16318 0.0
N754 N 0.69528 0.08661 0.1508 0.0
N755 N 0.72126 0.12028 0.18395 0.0
C756 C 0.6818 0.11933 0.18145 0.0
C757 C 0.66777 0.10098 0.16353 0.0
C758 C 0.91393 0.11357 0.43357 0.0
C759 C 0.90104 0.12397 0.41421 0.0
C760 C 0.89514 0.12766 0.45078 0.0
C761 C 0.86303 0.15312 0.4493 0.0
H762 H 0.93852 0.09394 0.43544 0.0
H763 H 0.90612 0.11874 0.46536 0.0
S764 S 0.81777 0.18906 0.40202 0.0
N765 N 0.85411 0.16089 0.39445 0.0
N766 N 0.81882 0.1879 0.42685 0.0
C767 C 0.84981 0.16382 0.43001 0.0
C768 C 0.86874 0.14904 0.41245 0.0
C769 C 0.87066 0.36903 0.66657 0.0
C770 C 0.90597 0.38967 0.66888 0.0
C771 C 0.85001 0.35517 0.68335 0.0
C772 C 0.86391 0.3615 0.70303 0.0
H773 H 0.85924 0.36301 0.65169 0.0
H774 H 0.82328 0.33886 0.68084 0.0
S775 S 0.95303 0.41717 0.71719 0.0
N776 N 0.95245 0.41824 0.69238 0.0
N777 N 0.9141 0.39173 0.72383 0.0
C778 C 0.89872 0.38289 0.70553 0.0
C779 C 0.91963 0.39707 0.68848 0.0
C780 C 0.62498 0.14458 0.33794 0.0
C781 C 0.59822 0.11354 0.33691 0.0
C782 C 0.64306 0.15888 0.32046 0.0
C783 C 0.63544 0.1421 0.3015 0.0
H784 H 0.63144 0.15823 0.35226 0.0
H785 H 0.66326 0.18311 0.32184 0.0
S786 S 0.5685 0.05905 0.29124 0.0
N787 N 0.56545 0.06591 0.31576 0.0
N788 N 0.59972 0.09215 0.28299 0.0
C789 C 0.60919 0.11052 0.30045 0.0
C790 C 0.5905 0.09641 0.31815 0.0
C791 C 0.9006 0.12304 0.57734 0.0
C792 C 0.87493 0.10586 0.59126 0.0
C793 C 0.88651 0.14025 0.55966 0.0
C794 C 0.84618 0.14148 0.5554 0.0
H795 H 0.93193 0.12212 0.57985 0.0
H796 H 0.90746 0.15261 0.54924 0.0
S797 S 0.76678 0.10189 0.58751 0.0
N798 N 0.8074 0.09169 0.59995 0.0
N799 N 0.78064 0.1249 0.56688 0.0
C800 C 0.8201 0.12527 0.56947 0.0
C801 C 0.83455 0.10717 0.58735 0.0
C802 C 0.86716 0.40919 0.8274 0.0
C803 C 0.8858 0.38506 0.84156 0.0
C804 C 0.85047 0.39358 0.8099 0.0
C805 C 0.85142 0.35321 0.80601 0.0
H806 H 0.86675 0.44054 0.82951 0.0
H807 H 0.83717 0.41343 0.79922 0.0
S808 S 0.89443 0.27737 0.8392 0.0
N809 N 0.9027 0.31882 0.85114 0.0
N810 N 0.87097 0.28924 0.81835 0.0
C811 C 0.8688 0.32862 0.82043 0.0
C812 C 0.88612 0.34462 0.83816 0.0
C813 C 0.64058 0.37063 0.08855 0.0
C814 C 0.61589 0.40325 0.08713 0.0
C815 C 0.65373 0.35138 0.07119 0.0
C816 C 0.64206 0.36377 0.05188 0.0
H817 H 0.65024 0.36034 0.10314 0.0
H818 H 0.67304 0.32654 0.07292 0.0
S819 S 0.57593 0.44676 0.04038 0.0
N820 N 0.57922 0.44646 0.06515 0.0
N821 N 0.60351 0.41027 0.03256 0.0
C822 C 0.61676 0.39599 0.05038 0.0
C823 C 0.60378 0.41574 0.068 0.0
loop_
_geom_bond_atom_site_label_1
_geom_bond_atom_site_label_2
_geom_bond_distance
_geom_bond_site_symmetry_2
_ccdc_geom_bond_type
C0 C1 1.384 . S
C0 C2 1.384 . S
C0 H28 0.931 . S
C1 C0 1.384 . S
C1 C4 1.382 . S
C2 C0 1.384 . S
C2 C3 1.381 . S
C2 H29 0.930 . S
C3 C2 1.381 . S
C3 C5 1.381 . S
C3 C6 1.487 . S
C4 C1 1.382 . S
C4 C5 1.387 . S
C4 H30 0.930 . S
C5 C3 1.381 . S
C5 C4 1.387 . S
C5 H31 0.931 1_565 S
C6 C3 1.487 . S
C6 C13 1.399 . S
C6 N44 1.343 1_565 S
C7 C8 1.384 . S
C7 C9 1.384 . S
C7 H32 0.931 . S
C8 C7 1.384 . S
C8 C11 1.382 . S
C9 C7 1.384 . S
C9 C10 1.381 . S
C9 H33 0.930 . S
C10 C9 1.381 . S
C10 C12 1.381 . S
C10 C13 1.487 . S
C11 C8 1.382 . S
C11 C12 1.387 . S
C11 H34 0.930 . S
C12 C10 1.381 . S
C12 C11 1.387 . S
C12 H35 0.931 . S
C13 C6 1.399 . S
C13 C10 1.487 . S
C13 N45 1.343 1_455 S
C14 C15 1.384 . S
C14 C16 1.384 . S
C14 H36 0.931 . S
C15 C14 1.384 . S
C15 C18 1.382 . S
C16 C14 1.384 . S
C16 C17 1.381 . S
C16 H37 0.930 . S
C17 C16 1.381 . S
C17 C19 1.381 . S
C17 C20 1.487 . S
C18 C15 1.382 . S
C18 C19 1.387 . S
C18 H38 0.930 . S
C19 C17 1.381 . S
C19 C18 1.387 . S
C19 H39 0.931 1_545 S
C20 C17 1.487 . S
C20 C27 1.399 . S
C20 N45 1.343 1_545 S
C21 C22 1.384 . S
C21 C23 1.384 . S
C21 H40 0.931 . S
C22 C21 1.384 . S
C22 C25 1.382 . S
C23 C21 1.384 . S
C23 C24 1.381 . S
C23 H41 0.930 . S
C24 C23 1.381 . S
C24 C26 1.381 . S
C24 C27 1.487 . S
C25 C22 1.382 . S
C25 C26 1.387 . S
C25 H42 0.930 . S
C26 C24 1.381 . S
C26 C25 1.387 . S
C26 H43 0.931 . S
C27 C20 1.399 . S
C27 C24 1.487 . S
C27 N44 1.343 1_655 S
H28 C0 0.931 . S
H29 C2 0.930 . S
H30 C4 0.930 . S
H31 C5 0.931 1_545 S
H32 C7 0.931 . S
H33 C9 0.930 . S
H34 C11 0.930 . S
H35 C12 0.931 . S
H36 C14 0.931 . S
H37 C16 0.930 . S
H38 C18 0.930 . S
H39 C19 0.931 1_565 S
H40 C21 0.931 . S
H41 C23 0.930 . S
H42 C25 0.930 . S
H43 C26 0.931 . S
N44 C6 1.343 1_545 S
N44 C27 1.343 1_455 S
N45 C13 1.343 1_655 S
N45 C20 1.343 1_565 S
C46 C47 1.384 . S
C46 C48 1.384 . S
C46 H74 0.931 . S
C47 C46 1.384 . S
C47 C50 1.382 . S
C48 C46 1.384 . S
C48 C49 1.381 . S
C48 H75 0.930 . S
C49 C48 1.381 . S
C49 C51 1.381 . S
C49 C52 1.487 . S
C50 C47 1.382 . S
C50 C51 1.387 . S
C50 H76 0.930 . S
C51 C49 1.381 . S
C51 C50 1.387 . S
C51 H77 0.931 1_655 S
C52 C49 1.487 . S
C52 C59 1.399 . S
C52 N90 1.343 1_655 S
C53 C54 1.384 . S
C53 C55 1.384 . S
C53 H78 0.931 . S
C54 C53 1.384 . S
C54 C57 1.382 . S
C55 C53 1.384 . S
C55 C56 1.381 . S
C55 H79 0.930 . S
C56 C55 1.381 . S
C56 C58 1.381 . S
C56 C59 1.487 . S
C57 C54 1.382 . S
C57 C58 1.387 . S
C57 H80 0.930 . S
C58 C56 1.381 . S
C58 C57 1.387 . S
C58 H81 0.931 . S
C59 C52 1.399 . S
C59 C56 1.487 . S
C59 N91 1.343 . S
C60 C61 1.384 . S
C60 C62 1.384 . S
C60 H82 0.931 . S
C61 C60 1.384 . S
C61 C64 1.382 . S
C62 C60 1.384 . S
C62 C63 1.381 . S
C62 H83 0.930 . S
C63 C62 1.381 . S
C63 C65 1.381 . S
C63 C66 1.487 . S
C64 C61 1.382 . S
C64 C65 1.387 . S
C64 H84 0.930 . S
C65 C63 1.381 . S
C65 C64 1.387 . S
C65 H85 0.931 1_455 S
C66 C63 1.487 . S
C66 C73 1.399 . S
C66 N91 1.343 1_455 S
C67 C68 1.384 . S
C67 C69 1.384 . S
C67 H86 0.931 . S
C68 C67 1.384 . S
C68 C71 1.382 . S
C69 C67 1.384 . S
C69 C70 1.381 . S
C69 H87 0.930 . S
C70 C69 1.381 . S
C70 C72 1.381 . S
C70 C73 1.487 . S
C71 C68 1.382 . S
C71 C72 1.387 . S
C71 H88 0.930 . S
C72 C70 1.381 . S
C72 C71 1.387 . S
C72 H89 0.931 . S
C73 C66 1.399 . S
C73 C70 1.487 . S
C73 N90 1.343 . S
H74 C46 0.931 . S
H75 C48 0.930 . S
H76 C50 0.930 . S
H77 C51 0.931 1_455 S
H78 C53 0.931 . S
H79 C55 0.930 . S
H80 C57 0.930 . S
H81 C58 0.931 . S
H82 C60 0.931 . S
H83 C62 0.930 . S
H84 C64 0.930 . S
H85 C65 0.931 1_655 S
H86 C67 0.931 . S
H87 C69 0.930 . S
H88 C71 0.930 . S
H89 C72 0.931 . S
N90 C52 1.343 1_455 S
N90 C73 1.343 . S
N91 C59 1.343 . S
N91 C66 1.343 1_655 S
C92 C93 1.384 . S
C92 C94 1.384 . S
C92 H120 0.931 . S
C93 C92 1.384 . S
C93 C96 1.382 . S
C94 C92 1.384 . S
C94 C95 1.381 . S
C94 H121 0.930 . S
C95 C94 1.381 . S
C95 C97 1.381 . S
C95 C98 1.487 . S
C96 C93 1.382 . S
C96 C97 1.387 . S
C96 H122 0.930 . S
C97 C95 1.381 . S
C97 C96 1.387 . S
C97 H123 0.931 . S
C98 C95 1.487 . S
C98 C105 1.399 . S
C98 N136 1.343 . S
C99 C100 1.384 . S
C99 C101 1.384 . S
C99 H124 0.931 . S
C100 C99 1.384 . S
C100 C103 1.382 . S
C101 C99 1.384 . S
C101 C102 1.381 . S
C101 H125 0.930 . S
C102 C101 1.381 . S
C102 C104 1.381 . S
C102 C105 1.487 . S
C103 C100 1.382 . S
C103 C104 1.387 . S
C103 H126 0.930 . S
C104 C102 1.381 . S
C104 C103 1.387 . S
C104 H127 0.931 . S
C105 C98 1.399 . S
C105 C102 1.487 . S
C105 N137 1.343 . S
C106 C107 1.384 . S
C106 C108 1.384 . S
C106 H128 0.931 . S
C107 C106 1.384 . S
C107 C110 1.382 . S
C108 C106 1.384 . S
C108 C109 1.381 . S
C108 H129 0.930 . S
C109 C108 1.381 . S
C109 C111 1.381 . S
C109 C112 1.487 . S
C110 C107 1.382 . S
C110 C111 1.387 . S
C110 H130 0.930 . S
C111 C109 1.381 . S
C111 C110 1.387 . S
C111 H131 0.931 . S
C112 C109 1.487 . S
C112 C119 1.399 . S
C112 N137 1.343 . S
C113 C114 1.384 . S
C113 C115 1.384 . S
C113 H132 0.931 . S
C114 C113 1.384 . S
C114 C117 1.382 . S
C115 C113 1.384 . S
C115 C116 1.381 . S
C115 H133 0.930 . S
C116 C115 1.381 . S
C116 C118 1.381 . S
C116 C119 1.487 . S
C117 C114 1.382 . S
C117 C118 1.387 . S
C117 H134 0.930 . S
C118 C116 1.381 . S
C118 C117 1.387 . S
C118 H135 0.931 . S
C119 C112 1.399 . S
C119 C116 1.487 . S
C119 N136 1.343 . S
H120 C92 0.931 . S
H121 C94 0.930 . S
H122 C96 0.930 . S
H123 C97 0.931 . S
H124 C99 0.931 . S
H125 C101 0.930 . S
H126 C103 0.930 . S
H127 C104 0.931 . S
H128 C106 0.931 . S
H129 C108 0.930 . S
H130 C110 0.930 . S
H131 C111 0.931 . S
H132 C113 0.931 . S
H133 C115 0.930 . S
H134 C117 0.930 . S
H135 C118 0.931 . S
N136 C98 1.343 . S
N136 C119 1.343 . S
N137 C105 1.343 . S
N137 C112 1.343 . S
C138 C139 1.384 . S
C138 C140 1.384 . S
C138 H166 0.931 . S
C139 C138 1.384 . S
C139 C142 1.382 . S
C140 C138 1.384 . S
C140 C141 1.381 . S
C140 H167 0.930 . S
C141 C140 1.381 . S
C141 C143 1.381 . S
C141 C144 1.487 . S
C142 C139 1.382 . S
C142 C143 1.387 . S
C142 H168 0.930 . S
C143 C141 1.381 . S
C143 C142 1.387 . S
C143 H169 0.931 . S
C144 C141 1.487 . S
C144 C151 1.399 . S
C144 N182 1.343 1_565 S
C145 C146 1.384 . S
C145 C147 1.384 . S
C145 H170 0.931 . S
C146 C145 1.384 . S
C146 C149 1.382 . S
C147 C145 1.384 . S
C147 C148 1.381 . S
C147 H171 0.930 . S
C148 C147 1.381 . S
C148 C150 1.381 . S
C148 C151 1.487 . S
C149 C146 1.382 . S
C149 C150 1.387 . S
C149 H172 0.930 . S
C150 C148 1.381 . S
C150 C149 1.387 . S
C150 H173 0.931 . S
C151 C144 1.399 . S
C151 C148 1.487 . S
C151 N183 1.356 . S
C152 C153 1.384 . S
C152 C154 1.384 . S
C152 H174 0.931 . S
C153 C152 1.384 . S
C153 C156 1.382 . S
C154 C152 1.384 . S
C154 C155 1.381 . S
C154 H175 0.930 . S
C155 C154 1.381 . S
C155 C157 1.381 . S
C155 C158 1.487 . S
C156 C153 1.382 . S
C156 C157 1.387 . S
C156 H176 0.930 . S
C157 C155 1.381 . S
C157 C156 1.387 . S
C157 H177 0.931 . S
C158 C155 1.487 . S
C158 C165 1.399 . S
C158 N183 1.329 1_545 S
C159 C160 1.384 . S
C159 C161 1.384 . S
C159 H178 0.931 . S
C160 C159 1.384 . S
C160 C163 1.382 . S
C161 C159 1.384 . S
C161 C162 1.381 . S
C161 H179 0.930 . S
C162 C161 1.381 . S
C162 C164 1.381 . S
C162 C165 1.487 . S
C163 C160 1.382 . S
C163 C164 1.387 . S
C163 H180 0.930 . S
C164 C162 1.381 . S
C164 C163 1.387 . S
C164 H181 0.931 . S
C165 C158 1.399 . S
C165 C162 1.487 . S
C165 N182 1.343 . S
H166 C138 0.931 . S
H167 C140 0.930 . S
H168 C142 0.930 . S
H169 C143 0.931 . S
H170 C145 0.931 . S
H171 C147 0.930 . S
H172 C149 0.930 . S
H173 C150 0.931 . S
H174 C152 0.931 . S
H175 C154 0.930 . S
H176 C156 0.930 . S
H177 C157 0.931 . S
H178 C159 0.931 . S
H179 C161 0.930 . S
H180 C163 0.930 . S
H181 C164 0.931 . S
N182 C144 1.343 1_545 S
N182 C165 1.343 . S
N183 C151 1.356 . S
N183 C158 1.329 1_565 S
C184 C185 1.384 . S
C184 C186 1.384 . S
C184 H212 0.931 . S
C185 C184 1.384 . S
C185 C188 1.382 . S
C186 C184 1.384 . S
C186 C187 1.381 . S
C186 H213 0.930 . S
C187 C186 1.381 . S
C187 C189 1.381 . S
C187 C190 1.487 . S
C188 C185 1.382 . S
C188 C189 1.387 . S
C188 H214 0.930 . S
C189 C187 1.381 . S
C189 C188 1.387 . S
C189 H215 0.931 . S
C190 C187 1.487 . S
C190 C197 1.399 . S
C190 N228 1.343 . S
C191 C192 1.384 . S
C191 C193 1.384 . S
C191 H216 0.931 . S
C192 C191 1.384 . S
C192 C195 1.382 . S
C193 C191 1.384 . S
C193 C194 1.381 . S
C193 H217 0.930 . S
C194 C193 1.381 . S
C194 C196 1.381 . S
C194 C197 1.487 . S
C195 C192 1.382 . S
C195 C196 1.387 . S
C195 H218 0.930 . S
C196 C194 1.381 . S
C196 C195 1.387 . S
C196 H219 0.931 . S
C197 C190 1.399 . S
C197 C194 1.487 . S
C197 N229 1.343 1_455 S
C198 C199 1.384 . S
C198 C200 1.384 . S
C198 H220 0.931 . S
C199 C198 1.384 . S
C199 C202 1.382 . S
C200 C198 1.384 . S
C200 C201 1.381 . S
C200 H221 0.930 . S
C201 C200 1.381 . S
C201 C203 1.381 . S
C201 C204 1.487 . S
C202 C199 1.382 . S
C202 C203 1.387 . S
C202 H222 0.930 . S
C203 C201 1.381 . S
C203 C202 1.387 . S
C203 H223 0.931 . S
C204 C201 1.487 . S
C204 C211 1.399 . S
C204 N229 1.343 . S
C205 C206 1.384 . S
C205 C207 1.384 . S
C205 H224 0.931 . S
C206 C205 1.384 . S
C206 C209 1.382 . S
C207 C205 1.384 . S
C207 C208 1.381 . S
C207 H225 0.930 . S
C208 C207 1.381 . S
C208 C210 1.381 . S
C208 C211 1.487 . S
C209 C206 1.382 . S
C209 C210 1.387 . S
C209 H226 0.930 . S
C210 C208 1.381 . S
C210 C209 1.387 . S
C210 H227 0.931 . S
C211 C204 1.399 . S
C211 C208 1.487 . S
C211 N228 1.343 1_655 S
H212 C184 0.931 . S
H213 C186 0.930 . S
H214 C188 0.930 . S
H215 C189 0.931 . S
H216 C191 0.931 . S
H217 C193 0.930 . S
H218 C195 0.930 . S
H219 C196 0.931 . S
H220 C198 0.931 . S
H221 C200 0.930 . S
H222 C202 0.930 . S
H223 C203 0.931 . S
H224 C205 0.931 . S
H225 C207 0.930 . S
H226 C209 0.930 . S
H227 C210 0.931 . S
N228 C190 1.343 . S
N228 C211 1.343 1_455 S
N229 C197 1.343 1_655 S
N229 C204 1.343 . S
C230 C231 1.384 . S
C230 C232 1.384 . S
C230 H258 0.931 . S
C231 C230 1.384 . S
C231 C234 1.382 . S
C232 C230 1.384 . S
C232 C233 1.381 . S
C232 H259 0.930 . S
C233 C232 1.381 . S
C233 C235 1.381 . S
C233 C236 1.487 . S
C234 C231 1.382 . S
C234 C235 1.387 . S
C234 H260 0.930 . S
C235 C233 1.381 . S
C235 C234 1.387 . S
C235 H261 0.931 . S
C236 C233 1.487 . S
C236 C243 1.399 . S
C236 N274 1.343 . S
C237 C238 1.384 . S
C237 C239 1.384 . S
C237 H262 0.931 . S
C238 C237 1.384 . S
C238 C241 1.382 . S
C239 C237 1.384 . S
C239 C240 1.381 . S
C239 H263 0.930 . S
C240 C239 1.381 . S
C240 C242 1.381 . S
C240 C243 1.487 . S
C241 C238 1.382 . S
C241 C242 1.387 . S
C241 H264 0.930 . S
C242 C240 1.381 . S
C242 C241 1.387 . S
C242 H265 0.931 . S
C243 C236 1.399 . S
C243 C240 1.487 . S
C243 N275 1.343 . S
C244 C245 1.384 . S
C244 C246 1.384 . S
C244 H266 0.931 . S
C245 C244 1.384 . S
C245 C248 1.382 . S
C246 C244 1.384 . S
C246 C247 1.381 . S
C246 H267 0.930 . S
C247 C246 1.381 . S
C247 C249 1.381 . S
C247 C250 1.487 . S
C248 C245 1.382 . S
C248 C249 1.387 . S
C248 H268 0.930 . S
C249 C247 1.381 . S
C249 C248 1.387 . S
C249 H269 0.931 . S
C250 C247 1.487 . S
C250 C257 1.399 . S
C250 N275 1.343 . S
C251 C252 1.384 . S
C251 C253 1.384 . S
C251 H270 0.931 . S
C252 C251 1.384 . S
C252 C255 1.382 . S
C253 C251 1.384 . S
C253 C254 1.381 . S
C253 H271 0.930 . S
C254 C253 1.381 . S
C254 C256 1.381 . S
C254 C257 1.487 . S
C255 C252 1.382 . S
C255 C256 1.387 . S
C255 H272 0.930 . S
C256 C254 1.381 . S
C256 C255 1.387 . S
C256 H273 0.931 . S
C257 C250 1.399 . S
C257 C254 1.487 . S
C257 N274 1.343 . S
H258 C230 0.931 . S
H259 C232 0.930 . S
H260 C234 0.930 . S
H261 C235 0.931 . S
H262 C237 0.931 . S
H263 C239 0.930 . S
H264 C241 0.930 . S
H265 C242 0.931 . S
H266 C244 0.931 . S
H267 C246 0.930 . S
H268 C248 0.930 . S
H269 C249 0.931 . S
H270 C251 0.931 . S
H271 C253 0.930 . S
H272 C255 0.930 . S
H273 C256 0.931 . S
N274 C236 1.343 . S
N274 C257 1.343 . S
N275 C243 1.343 . S
N275 C250 1.343 . S
C276 C277 1.384 . S
C276 C278 1.384 . S
C276 H304 0.931 . S
C277 C276 1.384 . S
C277 C280 1.382 . S
C278 C276 1.384 . S
C278 C279 1.381 . S
C278 H305 0.930 . S
C279 C278 1.381 . S
C279 C281 1.381 . S
C279 C282 1.487 . S
C280 C277 1.382 . S
C280 C281 1.387 . S
C280 H306 0.930 . S
C281 C279 1.381 . S
C281 C280 1.387 . S
C281 H307 0.931 1_565 S
C282 C279 1.487 . S
C282 C289 1.399 . S
C282 N320 1.343 1_565 S
C283 C284 1.384 . S
C283 C285 1.384 . S
C283 H308 0.931 . S
C284 C283 1.384 . S
C284 C287 1.382 . S
C285 C283 1.384 . S
C285 C286 1.381 . S
C285 H309 0.930 . S
C286 C285 1.381 . S
C286 C288 1.381 . S
C286 C289 1.487 . S
C287 C284 1.382 . S
C287 C288 1.387 . S
C287 H310 0.930 . S
C288 C286 1.381 . S
C288 C287 1.387 . S
C288 H311 0.931 . S
C289 C282 1.399 . S
C289 C286 1.487 . S
C289 N321 1.343 . S
C290 C291 1.384 . S
C290 C292 1.384 . S
C290 H312 0.931 . S
C291 C290 1.384 . S
C291 C294 1.382 . S
C292 C290 1.384 . S
C292 C293 1.381 . S
C292 H313 0.930 . S
C293 C292 1.381 . S
C293 C295 1.381 . S
C293 C296 1.487 . S
C294 C291 1.382 . S
C294 C295 1.387 . S
C294 H314 0.930 . S
C295 C293 1.381 . S
C295 C294 1.387 . S
C295 H315 0.931 1_545 S
C296 C293 1.487 . S
C296 C303 1.399 . S
C296 N321 1.343 1_545 S
C297 C298 1.384 . S
C297 C299 1.384 . S
C297 H316 0.931 . S
C298 C297 1.384 . S
C298 C301 1.382 . S
C299 C297 1.384 . S
C299 C300 1.381 . S
C299 H317 0.930 . S
C300 C299 1.381 . S
C300 C302 1.381 . S
C300 C303 1.487 . S
C301 C298 1.382 . S
C301 C302 1.387 . S
C301 H318 0.930 . S
C302 C300 1.381 . S
C302 C301 1.387 . S
C302 H319 0.931 . S
C303 C296 1.399 . S
C303 C300 1.487 . S
C303 N320 1.343 . S
H304 C276 0.931 . S
H305 C278 0.930 . S
H306 C280 0.930 . S
H307 C281 0.931 1_545 S
H308 C283 0.931 . S
H309 C285 0.930 . S
H310 C287 0.930 . S
H311 C288 0.931 . S
H312 C290 0.931 . S
H313 C292 0.930 . S
H314 C294 0.930 . S
H315 C295 0.931 1_565 S
H316 C297 0.931 . S
H317 C299 0.930 . S
H318 C301 0.930 . S
H319 C302 0.931 . S
N320 C282 1.343 1_545 S
N320 C303 1.343 . S
N321 C289 1.343 . S
N321 C296 1.343 1_565 S
C322 C323 1.384 . S
C322 C324 1.384 . S
C322 H350 0.931 . S
C323 C322 1.384 . S
C323 C326 1.382 . S
C324 C322 1.384 . S
C324 C325 1.381 . S
C324 H351 0.930 . S
C325 C324 1.381 . S
C325 C327 1.381 . S
C325 C328 1.487 . S
C326 C323 1.382 . S
C326 C327 1.387 . S
C326 H352 0.930 . S
C327 C325 1.381 . S
C327 C326 1.387 . S
C327 H353 0.931 1_455 S
C328 C325 1.487 . S
C328 C335 1.399 . S
C328 N366 1.343 1_455 S
C329 C330 1.384 . S
C329 C331 1.384 . S
C329 H354 0.931 . S
C330 C329 1.384 . S
C330 C333 1.382 . S
C331 C329 1.384 . S
C331 C332 1.381 . S
C331 H355 0.930 . S
C332 C331 1.381 . S
C332 C334 1.381 . S
C332 C335 1.487 . S
C333 C330 1.382 . S
C333 C334 1.387 . S
C333 H356 0.930 . S
C334 C332 1.381 . S
C334 C333 1.387 . S
C334 H357 0.931 . S
C335 C328 1.399 . S
C335 C332 1.487 . S
C335 N367 1.343 1_565 S
C336 C337 1.384 . S
C336 C338 1.384 . S
C336 H358 0.931 . S
C337 C336 1.384 . S
C337 C340 1.382 . S
C338 C336 1.384 . S
C338 C339 1.381 . S
C338 H359 0.930 . S
C339 C338 1.381 . S
C339 C341 1.381 . S
C339 C342 1.487 . S
C340 C337 1.382 . S
C340 C341 1.387 . S
C340 H360 0.930 . S
C341 C339 1.381 . S
C341 C340 1.387 . S
C341 H361 0.931 1_655 S
C342 C339 1.487 . S
C342 C349 1.399 . S
C342 N367 1.343 1_655 S
C343 C344 1.384 . S
C343 C345 1.384 . S
C343 H362 0.931 . S
C344 C343 1.384 . S
C344 C347 1.382 . S
C345 C343 1.384 . S
C345 C346 1.381 . S
C345 H363 0.930 . S
C346 C345 1.381 . S
C346 C348 1.381 . S
C346 C349 1.487 . S
C347 C344 1.382 . S
C347 C348 1.387 . S
C347 H364 0.930 . S
C348 C346 1.381 . S
C348 C347 1.387 . S
C348 H365 0.931 . S
C349 C342 1.399 . S
C349 C346 1.487 . S
C349 N366 1.343 1_545 S
H350 C322 0.931 . S
H351 C324 0.930 . S
H352 C326 0.930 . S
H353 C327 0.931 1_655 S
H354 C329 0.931 . S
H355 C331 0.930 . S
H356 C333 0.930 . S
H357 C334 0.931 . S
H358 C336 0.931 . S
H359 C338 0.930 . S
H360 C340 0.930 . S
H361 C341 0.931 1_455 S
H362 C343 0.931 . S
H363 C345 0.930 . S
H364 C347 0.930 . S
H365 C348 0.931 . S
N366 C328 1.343 1_655 S
N366 C349 1.343 1_565 S
N367 C335 1.343 1_545 S
N367 C342 1.343 1_455 S
In368 O369 2.294 . S
In368 O370 2.326 . S
In368 O374 2.266 1_554 S
In368 O375 2.326 1_554 S
In368 O376 2.266 1_554 S
In368 O377 2.326 1_554 S
In368 O379 2.294 . S
In368 O380 2.326 . S
O369 In368 2.294 . S
O369 C378 1.240 . S
O370 In368 2.326 . S
O370 C378 1.252 . S
C371 O374 1.252 . S
C371 O375 1.260 . S
C372 O379 1.240 . S
C372 O380 1.252 . S
C373 O376 1.252 . S
C373 O377 1.260 . S
O374 In368 2.266 1_556 S
O374 C371 1.252 . S
O375 In368 2.326 1_556 S
O375 C371 1.260 . S
O376 In368 2.266 1_556 S
O376 C373 1.252 . S
O377 In368 2.326 1_556 S
O377 C373 1.260 . S
C378 O369 1.240 . S
C378 O370 1.252 . S
O379 In368 2.294 . S
O379 C372 1.240 . S
O380 In368 2.326 . S
O380 C372 1.252 . S
In381 O382 2.294 . S
In381 O383 2.326 . S
In381 O387 2.266 . S
In381 O388 2.326 . S
In381 O389 2.266 . S
In381 O390 2.326 . S
In381 O392 2.294 . S
In381 O393 2.326 . S
O382 In381 2.294 . S
O382 C391 1.240 . S
O383 In381 2.326 . S
O383 C391 1.252 . S
C384 O387 1.252 . S
C384 O388 1.260 . S
C385 O392 1.240 . S
C385 O393 1.252 . S
C386 O389 1.252 . S
C386 O390 1.260 . S
O387 In381 2.266 . S
O387 C384 1.252 . S
O388 In381 2.326 . S
O388 C384 1.260 . S
O389 In381 2.266 . S
O389 C386 1.252 . S
O390 In381 2.326 . S
O390 C386 1.260 . S
C391 O382 1.240 . S
C391 O383 1.252 . S
O392 In381 2.294 . S
O392 C385 1.240 . S
O393 In381 2.326 . S
O393 C385 1.252 . S
In394 O395 2.294 . S
In394 O396 2.326 . S
In394 O400 2.266 . S
In394 O401 2.326 . S
In394 O402 2.266 . S
In394 O403 2.326 . S
In394 O405 2.294 . S
In394 O406 2.326 . S
O395 In394 2.294 . S
O395 C404 1.240 . S
O396 In394 2.326 . S
O396 C404 1.252 . S
C397 O400 1.252 . S
C397 O401 1.260 . S
C398 O405 1.240 . S
C398 O406 1.252 . S
C399 O402 1.252 . S
C399 O403 1.260 . S
O400 In394 2.266 . S
O400 C397 1.252 . S
O401 In394 2.326 . S
O401 C397 1.260 . S
O402 In394 2.266 . S
O402 C399 1.252 . S
O403 In394 2.326 . S
O403 C399 1.260 . S
C404 O395 1.240 . S
C404 O396 1.252 . S
O405 In394 2.294 . S
O405 C398 1.240 . S
O406 In394 2.326 . S
O406 C398 1.252 . S
In407 O408 2.294 . S
In407 O409 2.326 . S
In407 O413 2.266 . S
In407 O414 2.326 . S
In407 O415 2.266 . S
In407 O416 2.326 . S
In407 O418 2.294 . S
In407 O419 2.326 . S
O408 In407 2.294 . S
O408 C417 1.240 . S
O409 In407 2.326 . S
O409 C417 1.252 . S
C410 O413 1.252 . S
C410 O414 1.260 . S
C411 O418 1.240 . S
C411 O419 1.252 . S
C412 O415 1.252 . S
C412 O416 1.260 . S
O413 In407 2.266 . S
O413 C410 1.252 . S
O414 In407 2.326 . S
O414 C410 1.260 . S
O415 In407 2.266 . S
O415 C412 1.252 . S
O416 In407 2.326 . S
O416 C412 1.260 . S
C417 O408 1.240 . S
C417 O409 1.252 . S
O418 In407 2.294 . S
O418 C411 1.240 . S
O419 In407 2.326 . S
O419 C411 1.252 . S
In420 O421 2.294 . S
In420 O422 2.326 . S
In420 O426 2.266 . S
In420 O427 2.326 . S
In420 O428 2.266 . S
In420 O429 2.326 . S
In420 O431 2.294 . S
In420 O432 2.326 . S
O421 In420 2.294 . S
O421 C430 1.240 . S
O422 In420 2.326 . S
O422 C430 1.252 . S
C423 O426 1.252 . S
C423 O427 1.260 . S
C424 O431 1.240 . S
C424 O432 1.252 . S
C425 O428 1.252 . S
C425 O429 1.260 . S
O426 In420 2.266 . S
O426 C423 1.252 . S
O427 In420 2.326 . S
O427 C423 1.260 . S
O428 In420 2.266 . S
O428 C425 1.252 . S
O429 In420 2.326 . S
O429 C425 1.260 . S
C430 O421 1.240 . S
C430 O422 1.252 . S
O431 In420 2.294 . S
O431 C424 1.240 . S
O432 In420 2.326 . S
O432 C424 1.252 . S
In433 O434 2.294 . S
In433 O435 2.326 . S
In433 O439 2.266 . S
In433 O440 2.326 . S
In433 O441 2.266 . S
In433 O442 2.326 . S
In433 O444 2.294 . S
In433 O445 2.326 . S
O434 In433 2.294 . S
O434 C443 1.240 . S
O435 In433 2.326 . S
O435 C443 1.252 . S
C436 O439 1.252 . S
C436 O440 1.260 . S
C437 O444 1.240 . S
C437 O445 1.252 . S
C438 O441 1.252 . S
C438 O442 1.260 . S
O439 In433 2.266 . S
O439 C436 1.252 . S
O440 In433 2.326 . S
O440 C436 1.260 . S
O441 In433 2.266 . S
O441 C438 1.252 . S
O442 In433 2.326 . S
O442 C438 1.260 . S
C443 O434 1.240 . S
C443 O435 1.252 . S
O444 In433 2.294 . S
O444 C437 1.240 . S
O445 In433 2.326 . S
O445 C437 1.252 . S
In446 O447 2.294 . S
In446 O448 2.326 . S
In446 O452 2.266 1_554 S
In446 O453 2.326 1_554 S
In446 O454 2.266 1_554 S
In446 O455 2.326 1_554 S
In446 O457 2.294 . S
In446 O458 2.326 . S
O447 In446 2.294 . S
O447 C456 1.240 . S
O448 In446 2.326 . S
O448 C456 1.252 . S
C449 O452 1.252 . S
C449 O453 1.260 . S
C450 O457 1.240 . S
C450 O458 1.252 . S
C451 O454 1.252 . S
C451 O455 1.260 . S
O452 In446 2.266 1_556 S
O452 C449 1.252 . S
O453 In446 2.326 1_556 S
O453 C449 1.260 . S
O454 In446 2.266 1_556 S
O454 C451 1.252 . S
O455 In446 2.326 1_556 S
O455 C451 1.260 . S
C456 O447 1.240 . S
C456 O448 1.252 . S
O457 In446 2.294 . S
O457 C450 1.240 . S
O458 In446 2.326 . S
O458 C450 1.252 . S
In459 O460 2.294 . S
In459 O461 2.326 . S
In459 O465 2.266 . S
In459 O466 2.326 . S
In459 O467 2.266 . S
In459 O468 2.326 . S
In459 O470 2.294 . S
In459 O471 2.326 . S
O460 In459 2.294 . S
O460 C469 1.240 . S
O461 In459 2.326 . S
O461 C469 1.252 . S
C462 O465 1.252 . S
C462 O466 1.260 . S
C463 O470 1.240 . S
C463 O471 1.252 . S
C464 O467 1.252 . S
C464 O468 1.260 . S
O465 In459 2.266 . S
O465 C462 1.252 . S
O466 In459 2.326 . S
O466 C462 1.260 . S
O467 In459 2.266 . S
O467 C464 1.252 . S
O468 In459 2.326 . S
O468 C464 1.260 . S
C469 O460 1.240 . S
C469 O461 1.252 . S
O470 In459 2.294 . S
O470 C463 1.240 . S
O471 In459 2.326 . S
O471 C463 1.252 . S
C472 C473 1.369 . S
C472 C474 1.419 . S
C472 H476 0.930 . S
C473 C472 1.369 . S
C473 C482 1.429 . S
C474 C472 1.419 . S
C474 C475 1.363 . S
C474 H477 0.929 . S
C475 C474 1.363 . S
C475 C481 1.428 . S
H476 C472 0.930 . S
H477 C474 0.929 . S
S478 N479 1.613 . S
S478 N480 1.610 . S
N479 S478 1.613 . S
N479 C482 1.350 . S
N480 S478 1.610 . S
N480 C481 1.351 . S
C481 C475 1.428 . S
C481 N480 1.351 . S
C481 C482 1.434 . S
C482 C473 1.429 . S
C482 N479 1.350 . S
C482 C481 1.434 . S
C483 C484 1.369 . S
C483 C485 1.419 . S
C483 H487 0.930 . S
C484 C483 1.369 . S
C484 C493 1.429 . S
C485 C483 1.419 . S
C485 C486 1.363 . S
C485 H488 0.929 . S
C486 C485 1.363 . S
C486 C492 1.428 . S
H487 C483 0.930 . S
H488 C485 0.929 . S
S489 N490 1.613 . S
S489 N491 1.610 . S
N490 S489 1.613 . S
N490 C493 1.350 . S
N491 S489 1.610 . S
N491 C492 1.351 . S
C492 C486 1.428 . S
C492 N491 1.351 . S
C492 C493 1.434 . S
C493 C484 1.429 . S
C493 N490 1.350 . S
C493 C492 1.434 . S
C494 C495 1.369 . S
C494 C496 1.419 . S
C494 H498 0.930 . S
C495 C494 1.369 . S
C495 C504 1.429 . S
C496 C494 1.419 . S
C496 C497 1.363 . S
C496 H499 0.929 . S
C497 C496 1.363 . S
C497 C503 1.428 . S
H498 C494 0.930 . S
H499 C496 0.929 . S
S500 N501 1.613 . S
S500 N502 1.610 . S
N501 S500 1.613 . S
N501 C504 1.350 . S
N502 S500 1.610 . S
N502 C503 1.351 . S
C503 C497 1.428 . S
C503 N502 1.351 . S
C503 C504 1.434 . S
C504 C495 1.429 . S
C504 N501 1.350 . S
C504 C503 1.434 . S
C505 C506 1.369 . S
C505 C507 1.419 . S
C505 H509 0.930 . S
C506 C505 1.369 . S
C506 C515 1.429 . S
C507 C505 1.419 . S
C507 C508 1.363 . S
C507 H510 0.929 1_554 S
C508 C507 1.363 . S
C508 C514 1.428 . S
H509 C505 0.930 . S
H510 C507 0.929 1_556 S
S511 N512 1.613 . S
S511 N513 1.610 . S
N512 S511 1.613 . S
N512 C515 1.350 . S
N513 S511 1.610 . S
N513 C514 1.351 . S
C514 C508 1.428 . S
C514 N513 1.351 . S
C514 C515 1.434 . S
C515 C506 1.429 . S
C515 N512 1.350 . S
C515 C514 1.434 . S
C516 C517 1.369 . S
C516 C518 1.419 . S
C516 H520 0.930 . S
C517 C516 1.369 . S
C517 C526 1.429 . S
C518 C516 1.419 . S
C518 C519 1.363 . S
C518 H521 0.929 . S
C519 C518 1.363 . S
C519 C525 1.428 . S
H520 C516 0.930 . S
H521 C518 0.929 . S
S522 N523 1.613 . S
S522 N524 1.610 . S
N523 S522 1.613 . S
N523 C526 1.350 . S
N524 S522 1.610 . S
N524 C525 1.351 . S
C525 C519 1.428 . S
C525 N524 1.351 . S
C525 C526 1.434 . S
C526 C517 1.429 . S
C526 N523 1.350 . S
C526 C525 1.434 . S
C527 C528 1.369 . S
C527 C529 1.419 . S
C527 H531 0.930 . S
C528 C527 1.369 . S
C528 C537 1.429 . S
C529 C527 1.419 . S
C529 C530 1.363 . S
C529 H532 0.929 . S
C530 C529 1.363 . S
C530 C536 1.428 . S
H531 C527 0.930 . S
H532 C529 0.929 . S
S533 N534 1.613 . S
S533 N535 1.610 . S
N534 S533 1.613 . S
N534 C537 1.350 . S
N535 S533 1.610 . S
N535 C536 1.351 . S
C536 C530 1.428 . S
C536 N535 1.351 . S
C536 C537 1.434 . S
C537 C528 1.429 . S
C537 N534 1.350 . S
C537 C536 1.434 . S
C538 C539 1.369 . S
C538 C540 1.419 . S
C538 H542 0.930 . S
C539 C538 1.369 . S
C539 C548 1.429 . S
C540 C538 1.419 . S
C540 C541 1.363 . S
C540 H543 0.929 . S
C541 C540 1.363 . S
C541 C547 1.428 . S
H542 C538 0.930 . S
H543 C540 0.929 . S
S544 N545 1.613 . S
S544 N546 1.610 . S
N545 S544 1.613 . S
N545 C548 1.350 . S
N546 S544 1.610 . S
N546 C547 1.351 . S
C547 C541 1.428 . S
C547 N546 1.351 . S
C547 C548 1.434 . S
C548 C539 1.429 . S
C548 N545 1.350 . S
C548 C547 1.434 . S
C549 C550 1.369 . S
C549 C551 1.419 . S
C549 H553 0.930 . S
C550 C549 1.369 . S
C550 C559 1.429 . S
C551 C549 1.419 . S
C551 C552 1.363 . S
C551 H554 0.929 . S
C552 C551 1.363 . S
C552 C558 1.428 . S
H553 C549 0.930 . S
H554 C551 0.929 . S
S555 N556 1.613 . S
S555 N557 1.610 . S
N556 S555 1.613 . S
N556 C559 1.350 . S
N557 S555 1.610 . S
N557 C558 1.351 . S
C558 C552 1.428 . S
C558 N557 1.351 . S
C558 C559 1.434 . S
C559 C550 1.429 . S
C559 N556 1.350 . S
C559 C558 1.434 . S
C560 C561 1.369 . S
C560 C562 1.419 . S
C560 H564 0.930 . S
C561 C560 1.369 . S
C561 C570 1.429 . S
C562 C560 1.419 . S
C562 C563 1.363 . S
C562 H565 0.929 . S
C563 C562 1.363 . S
C563 C569 1.428 . S
H564 C560 0.930 . S
H565 C562 0.929 . S
S566 N567 1.613 . S
S566 N568 1.610 . S
N567 S566 1.613 . S
N567 C570 1.350 . S
N568 S566 1.610 . S
N568 C569 1.351 . S
C569 C563 1.428 . S
C569 N568 1.351 . S
C569 C570 1.434 . S
C570 C561 1.429 . S
C570 N567 1.350 . S
C570 C569 1.434 . S
C571 C572 1.369 . S
C571 C573 1.419 . S
C571 H575 0.930 . S
C572 C571 1.369 . S
C572 C581 1.429 . S
C573 C571 1.419 . S
C573 C574 1.363 . S
C573 H576 0.929 1_554 S
C574 C573 1.363 . S
C574 C580 1.428 . S
H575 C571 0.930 . S
H576 C573 0.929 1_556 S
S577 N578 1.613 . S
S577 N579 1.610 . S
N578 S577 1.613 . S
N578 C581 1.350 . S
N579 S577 1.610 . S
N579 C580 1.351 . S
C580 C574 1.428 . S
C580 N579 1.351 . S
C580 C581 1.434 . S
C581 C572 1.429 . S
C581 N578 1.350 . S
C581 C580 1.434 . S
C582 C583 1.369 . S
C582 C584 1.419 . S
C582 H586 0.930 . S
C583 C582 1.369 . S
C583 C592 1.429 . S
C584 C582 1.419 . S
C584 C585 1.363 . S
C584 H587 0.929 . S
C585 C584 1.363 . S
C585 C591 1.428 . S
H586 C582 0.930 . S
H587 C584 0.929 . S
S588 N589 1.613 . S
S588 N590 1.610 . S
N589 S588 1.613 . S
N589 C592 1.350 . S
N590 S588 1.610 . S
N590 C591 1.351 . S
C591 C585 1.428 . S
C591 N590 1.351 . S
C591 C592 1.434 . S
C592 C583 1.429 . S
C592 N589 1.350 . S
C592 C591 1.434 . S
C593 C594 1.369 . S
C593 C595 1.419 . S
C593 H597 0.930 . S
C594 C593 1.369 . S
C594 C603 1.429 . S
C595 C593 1.419 . S
C595 C596 1.363 . S
C595 H598 0.929 . S
C596 C595 1.363 . S
C596 C602 1.428 . S
H597 C593 0.930 . S
H598 C595 0.929 . S
S599 N600 1.613 . S
S599 N601 1.610 . S
N600 S599 1.613 . S
N600 C603 1.350 . S
N601 S599 1.610 . S
N601 C602 1.351 . S
C602 C596 1.428 . S
C602 N601 1.351 . S
C602 C603 1.434 . S
C603 C594 1.429 . S
C603 N600 1.350 . S
C603 C602 1.434 . S
C604 C605 1.369 . S
C604 C606 1.419 . S
C604 H608 0.930 . S
C605 C604 1.369 . S
C605 C614 1.429 . S
C606 C604 1.419 . S
C606 C607 1.363 . S
C606 H609 0.929 . S
C607 C606 1.363 . S
C607 C613 1.428 . S
H608 C604 0.930 . S
H609 C606 0.929 . S
S610 N611 1.613 . S
S610 N612 1.610 . S
N611 S610 1.613 . S
N611 C614 1.350 . S
N612 S610 1.610 . S
N612 C613 1.351 . S
C613 C607 1.428 . S
C613 N612 1.351 . S
C613 C614 1.434 . S
C614 C605 1.429 . S
C614 N611 1.350 . S
C614 C613 1.434 . S
C615 C616 1.369 . S
C615 C617 1.419 . S
C615 H619 0.930 . S
C616 C615 1.369 . S
C616 C625 1.429 . S
C617 C615 1.419 . S
C617 C618 1.363 . S
C617 H620 0.929 . S
C618 C617 1.363 . S
C618 C624 1.428 . S
H619 C615 0.930 . S
H620 C617 0.929 . S
S621 N622 1.613 . S
S621 N623 1.610 . S
N622 S621 1.613 . S
N622 C625 1.350 . S
N623 S621 1.610 . S
N623 C624 1.351 . S
C624 C618 1.428 . S
C624 N623 1.351 . S
C624 C625 1.434 . S
C625 C616 1.429 . S
C625 N622 1.350 . S
C625 C624 1.434 . S
C626 C627 1.369 . S
C626 C628 1.419 . S
C626 H630 0.930 . S
C627 C626 1.369 . S
C627 C636 1.429 . S
C628 C626 1.419 . S
C628 C629 1.363 . S
C628 H631 0.929 . S
C629 C628 1.363 . S
C629 C635 1.428 . S
H630 C626 0.930 . S
H631 C628 0.929 . S
S632 N633 1.613 . S
S632 N634 1.610 . S
N633 S632 1.613 . S
N633 C636 1.350 . S
N634 S632 1.610 . S
N634 C635 1.351 . S
C635 C629 1.428 . S
C635 N634 1.351 . S
C635 C636 1.434 . S
C636 C627 1.429 . S
C636 N633 1.350 . S
C636 C635 1.434 . S
C637 C638 1.369 . S
C637 C639 1.419 . S
C637 H641 0.930 . S
C638 C637 1.369 . S
C638 C647 1.429 . S
C639 C637 1.419 . S
C639 C640 1.363 . S
C639 H642 0.929 . S
C640 C639 1.363 . S
C640 C646 1.428 . S
H641 C637 0.930 . S
H642 C639 0.929 . S
S643 N644 1.613 . S
S643 N645 1.610 . S
N644 S643 1.613 . S
N644 C647 1.350 . S
N645 S643 1.610 . S
N645 C646 1.351 . S
C646 C640 1.428 . S
C646 N645 1.351 . S
C646 C647 1.434 . S
C647 C638 1.429 . S
C647 N644 1.350 . S
C647 C646 1.434 . S
C648 C649 1.369 . S
C648 C650 1.419 . S
C648 H652 0.930 . S
C649 C648 1.369 . S
C649 C658 1.429 . S
C650 C648 1.419 . S
C650 C651 1.363 . S
C650 H653 0.929 . S
C651 C650 1.363 . S
C651 C657 1.428 . S
H652 C648 0.930 . S
H653 C650 0.929 . S
S654 N655 1.613 . S
S654 N656 1.610 . S
N655 S654 1.613 . S
N655 C658 1.350 . S
N656 S654 1.610 . S
N656 C657 1.351 . S
C657 C651 1.428 . S
C657 N656 1.351 . S
C657 C658 1.434 . S
C658 C649 1.429 . S
C658 N655 1.350 . S
C658 C657 1.434 . S
C659 C660 1.369 . S
C659 C661 1.419 . S
C659 H663 0.930 . S
C660 C659 1.369 . S
C660 C669 1.429 . S
C661 C659 1.419 . S
C661 C662 1.363 . S
C661 H664 0.929 . S
C662 C661 1.363 . S
C662 C668 1.428 . S
H663 C659 0.930 . S
H664 C661 0.929 . S
S665 N666 1.613 . S
S665 N667 1.610 . S
N666 S665 1.613 . S
N666 C669 1.350 . S
N667 S665 1.610 . S
N667 C668 1.351 . S
C668 C662 1.428 . S
C668 N667 1.351 . S
C668 C669 1.434 . S
C669 C660 1.429 . S
C669 N666 1.350 . S
C669 C668 1.434 . S
C670 C671 1.369 . S
C670 C672 1.419 . S
C670 H674 0.930 . S
C671 C670 1.369 . S
C671 C680 1.429 . S
C672 C670 1.419 . S
C672 C673 1.363 . S
C672 H675 0.929 . S
C673 C672 1.363 . S
C673 C679 1.428 . S
H674 C670 0.930 . S
H675 C672 0.929 . S
S676 N677 1.613 . S
S676 N678 1.610 . S
N677 S676 1.613 . S
N677 C680 1.350 . S
N678 S676 1.610 . S
N678 C679 1.351 . S
C679 C673 1.428 . S
C679 N678 1.351 . S
C679 C680 1.434 . S
C680 C671 1.429 . S
C680 N677 1.350 . S
C680 C679 1.434 . S
C681 C682 1.369 . S
C681 C683 1.419 . S
C681 H685 0.930 . S
C682 C681 1.369 . S
C682 C691 1.429 . S
C683 C681 1.419 . S
C683 C684 1.363 . S
C683 H686 0.929 . S
C684 C683 1.363 . S
C684 C690 1.428 . S
H685 C681 0.930 . S
H686 C683 0.929 . S
S687 N688 1.613 . S
S687 N689 1.610 . S
N688 S687 1.613 . S
N688 C691 1.350 . S
N689 S687 1.610 . S
N689 C690 1.351 . S
C690 C684 1.428 . S
C690 N689 1.351 . S
C690 C691 1.434 . S
C691 C682 1.429 . S
C691 N688 1.350 . S
C691 C690 1.434 . S
C692 C693 1.369 . S
C692 C694 1.419 . S
C692 H696 0.930 . S
C693 C692 1.369 . S
C693 C702 1.429 . S
C694 C692 1.419 . S
C694 C695 1.363 . S
C694 H697 0.929 . S
C695 C694 1.363 . S
C695 C701 1.428 . S
H696 C692 0.930 . S
H697 C694 0.929 . S
S698 N699 1.613 . S
S698 N700 1.610 . S
N699 S698 1.613 . S
N699 C702 1.350 . S
N700 S698 1.610 . S
N700 C701 1.351 . S
C701 C695 1.428 . S
C701 N700 1.351 . S
C701 C702 1.434 . S
C702 C693 1.429 . S
C702 N699 1.350 . S
C702 C701 1.434 . S
C703 C704 1.369 . S
C703 C705 1.419 . S
C703 H707 0.930 . S
C704 C703 1.369 . S
C704 C713 1.429 . S
C705 C703 1.419 . S
C705 C706 1.363 . S
C705 H708 0.929 . S
C706 C705 1.363 . S
C706 C712 1.428 . S
H707 C703 0.930 . S
H708 C705 0.929 . S
S709 N710 1.613 . S
S709 N711 1.610 . S
N710 S709 1.613 . S
N710 C713 1.350 . S
N711 S709 1.610 . S
N711 C712 1.351 . S
C712 C706 1.428 . S
C712 N711 1.351 . S
C712 C713 1.434 . S
C713 C704 1.429 . S
C713 N710 1.350 . S
C713 C712 1.434 . S
C714 C715 1.369 . S
C714 C716 1.419 . S
C714 H718 0.930 . S
C715 C714 1.369 . S
C715 C724 1.429 . S
C716 C714 1.419 . S
C716 C717 1.363 . S
C716 H719 0.929 . S
C717 C716 1.363 . S
C717 C723 1.428 . S
H718 C714 0.930 . S
H719 C716 0.929 . S
S720 N721 1.613 . S
S720 N722 1.610 . S
N721 S720 1.613 . S
N721 C724 1.350 . S
N722 S720 1.610 . S
N722 C723 1.351 . S
C723 C717 1.428 . S
C723 N722 1.351 . S
C723 C724 1.434 . S
C724 C715 1.429 . S
C724 N721 1.350 . S
C724 C723 1.434 . S
C725 C726 1.369 . S
C725 C727 1.419 . S
C725 H729 0.930 . S
C726 C725 1.369 . S
C726 C735 1.429 . S
C727 C725 1.419 . S
C727 C728 1.363 . S
C727 H730 0.929 . S
C728 C727 1.363 . S
C728 C734 1.428 . S
H729 C725 0.930 . S
H730 C727 0.929 . S
S731 N732 1.613 . S
S731 N733 1.610 . S
N732 S731 1.613 . S
N732 C735 1.350 . S
N733 S731 1.610 . S
N733 C734 1.351 . S
C734 C728 1.428 . S
C734 N733 1.351 . S
C734 C735 1.434 . S
C735 C726 1.429 . S
C735 N732 1.350 . S
C735 C734 1.434 . S
C736 C737 1.369 . S
C736 C738 1.419 . S
C736 H740 0.930 . S
C737 C736 1.369 . S
C737 C746 1.429 . S
C738 C736 1.419 . S
C738 C739 1.363 . S
C738 H741 0.929 . S
C739 C738 1.363 . S
C739 C745 1.428 . S
H740 C736 0.930 . S
H741 C738 0.929 . S
S742 N743 1.613 . S
S742 N744 1.610 . S
N743 S742 1.613 . S
N743 C746 1.350 . S
N744 S742 1.610 . S
N744 C745 1.351 . S
C745 C739 1.428 . S
C745 N744 1.351 . S
C745 C746 1.434 . S
C746 C737 1.429 . S
C746 N743 1.350 . S
C746 C745 1.434 . S
C747 C748 1.369 . S
C747 C749 1.419 . S
C747 H751 0.930 . S
C748 C747 1.369 . S
C748 C757 1.429 . S
C749 C747 1.419 . S
C749 C750 1.363 . S
C749 H752 0.929 . S
C750 C749 1.363 . S
C750 C756 1.428 . S
H751 C747 0.930 . S
H752 C749 0.929 . S
S753 N754 1.613 . S
S753 N755 1.610 . S
N754 S753 1.613 . S
N754 C757 1.350 . S
N755 S753 1.610 . S
N755 C756 1.351 . S
C756 C750 1.428 . S
C756 N755 1.351 . S
C756 C757 1.434 . S
C757 C748 1.429 . S
C757 N754 1.350 . S
C757 C756 1.434 . S
C758 C759 1.369 . S
C758 C760 1.419 . S
C758 H762 0.930 . S
C759 C758 1.369 . S
C759 C768 1.429 . S
C760 C758 1.419 . S
C760 C761 1.363 . S
C760 H763 0.929 . S
C761 C760 1.363 . S
C761 C767 1.428 . S
H762 C758 0.930 . S
H763 C760 0.929 . S
S764 N765 1.613 . S
S764 N766 1.610 . S
N765 S764 1.613 . S
N765 C768 1.350 . S
N766 S764 1.610 . S
N766 C767 1.351 . S
C767 C761 1.428 . S
C767 N766 1.351 . S
C767 C768 1.434 . S
C768 C759 1.429 . S
C768 N765 1.350 . S
C768 C767 1.434 . S
C769 C770 1.369 . S
C769 C771 1.419 . S
C769 H773 0.930 . S
C770 C769 1.369 . S
C770 C779 1.429 . S
C771 C769 1.419 . S
C771 C772 1.363 . S
C771 H774 0.929 . S
C772 C771 1.363 . S
C772 C778 1.428 . S
H773 C769 0.930 . S
H774 C771 0.929 . S
S775 N776 1.613 . S
S775 N777 1.610 . S
N776 S775 1.613 . S
N776 C779 1.350 . S
N777 S775 1.610 . S
N777 C778 1.351 . S
C778 C772 1.428 . S
C778 N777 1.351 . S
C778 C779 1.434 . S
C779 C770 1.429 . S
C779 N776 1.350 . S
C779 C778 1.434 . S
C780 C781 1.369 . S
C780 C782 1.419 . S
C780 H784 0.930 . S
C781 C780 1.369 . S
C781 C790 1.429 . S
C782 C780 1.419 . S
C782 C783 1.363 . S
C782 H785 0.929 . S
C783 C782 1.363 . S
C783 C789 1.428 . S
H784 C780 0.930 . S
H785 C782 0.929 . S
S786 N787 1.613 . S
S786 N788 1.610 . S
N787 S786 1.613 . S
N787 C790 1.350 . S
N788 S786 1.610 . S
N788 C789 1.351 . S
C789 C783 1.428 . S
C789 N788 1.351 . S
C789 C790 1.434 . S
C790 C781 1.429 . S
C790 N787 1.350 . S
C790 C789 1.434 . S
C791 C792 1.369 . S
C791 C793 1.419 . S
C791 H795 0.930 . S
C792 C791 1.369 . S
C792 C801 1.429 . S
C793 C791 1.419 . S
C793 C794 1.363 . S
C793 H796 0.929 . S
C794 C793 1.363 . S
C794 C800 1.428 . S
H795 C791 0.930 . S
H796 C793 0.929 . S
S797 N798 1.613 . S
S797 N799 1.610 . S
N798 S797 1.613 . S
N798 C801 1.350 . S
N799 S797 1.610 . S
N799 C800 1.351 . S
C800 C794 1.428 . S
C800 N799 1.351 . S
C800 C801 1.434 . S
C801 C792 1.429 . S
C801 N798 1.350 . S
C801 C800 1.434 . S
C802 C803 1.369 . S
C802 C804 1.419 . S
C802 H806 0.930 . S
C803 C802 1.369 . S
C803 C812 1.429 . S
C804 C802 1.419 . S
C804 C805 1.363 . S
C804 H807 0.929 . S
C805 C804 1.363 . S
C805 C811 1.428 . S
H806 C802 0.930 . S
H807 C804 0.929 . S
S808 N809 1.613 . S
S808 N810 1.610 . S
N809 S808 1.613 . S
N809 C812 1.350 . S
N810 S808 1.610 . S
N810 C811 1.351 . S
C811 C805 1.428 . S
C811 N810 1.351 . S
C811 C812 1.434 . S
C812 C803 1.429 . S
C812 N809 1.350 . S
C812 C811 1.434 . S
C813 C814 1.369 . S
C813 C815 1.419 . S
C813 H817 0.930 . S
C814 C813 1.369 . S
C814 C823 1.429 . S
C815 C813 1.419 . S
C815 C816 1.363 . S
C815 H818 0.929 . S
C816 C815 1.363 . S
C816 C822 1.428 . S
H817 C813 0.930 . S
H818 C815 0.929 . S
S819 N820 1.613 . S
S819 N821 1.610 . S
N820 S819 1.613 . S
N820 C823 1.350 . S
N821 S819 1.610 . S
N821 C822 1.351 . S
C822 C816 1.428 . S
C822 N821 1.351 . S
C822 C823 1.434 . S
C823 C814 1.429 . S
C823 N820 1.350 . S
C823 C822 1.434 . S
C475 C384 1.405 . S
C473 C8 1.386 . S
C486 C398 1.404 . S
C484 C61 1.380 . S
C497 C411 1.409 . S
C495 C107 1.382 . S
C506 C139 1.383 . S
C508 C378 1.410 . S
C517 C192 1.390 . S
C519 C371 1.412 . S
C528 C238 1.389 . S
C530 C391 1.413 . S
C541 C399 1.404 . S
C539 C284 1.384 . S
C552 C412 1.409 . S
C550 C330 1.390 . S
C561 C100 1.384 . S
C563 C438 1.403 . S
C574 C456 1.403 . S
C572 C160 1.373 . S
C583 C15 1.384 . S
C585 C463 1.407 . S
C596 C430 1.411 . S
C594 C54 1.382 . S
C605 C291 1.383 . S
C607 C423 1.413 . S
C616 C337 1.387 . S
C618 C437 1.413 . S
C629 C449 1.404 . S
C627 C199 1.382 . S
C638 C245 1.383 . S
C640 C464 1.411 . S
C651 C397 1.740 . S
C649 C1 1.757 . S
C662 C410 1.746 . S
C660 C68 1.744 . S
C671 C114 1.741 . S
C673 C373 1.736 . S
C682 C146 1.750 . S
C684 C385 1.730 . S
C693 C185 1.744 . S
C695 C417 1.724 . S
C706 C372 1.723 . S
C704 C231 1.749 . S
C717 C386 1.741 . S
C715 C277 1.756 . S
C728 C404 1.731 . S
C726 C323 1.749 . S
C739 C451 1.744 . S
C737 C93 1.755 . S
C750 C462 1.746 . S
C748 C153 1.744 . S
C759 C22 1.742 . S
C761 C425 1.741 . S
C772 C443 1.726 . S
C770 C47 1.751 . S
C783 C469 1.721 . S
C781 C298 1.733 . S
C792 C344 1.733 . S
C794 C424 1.726 . S
C805 C436 1.741 . S
C803 C206 1.739 . S
C816 C450 1.729 . S
C814 C252 1.737 . S
