# Generated by pormake.
# Topology apo, (3,6)-cn, num edge types: 1
# Building blocks:
#     Node 0, Type 0, BuildingBlock: BETDAH_clean_linker_0, # of connection points: 3
#     Node 1, Type 0, BuildingBlock: BETDAH_clean_linker_0, # of connection points: 3
#     Node 2, Type 0, BuildingBlock: BETDAH_clean_linker_0, # of connection points: 3
#     Node 3, Type 0, BuildingBlock: BETDAH_clean_linker_0, # of connection points: 3
#     Node 4, Type 0, BuildingBlock: BETDAH_clean_linker_0, # of connection points: 3
#     Node 5, Type 0, BuildingBlock: BETDAH_clean_linker_0, # of connection points: 3
#     Node 6, Type 0, BuildingBlock: BETDAH_clean_linker_0, # of connection points: 3
#     Node 7, Type 0, BuildingBlock: BETDAH_clean_linker_0, # of connection points: 3
#     Node 8, Type 1, BuildingBlock: MIDCAF_clean_sbu_0, # of connection points: 6
#     Node 9, Type 1, BuildingBlock: MIDCAF_clean_sbu_0, # of connection points: 6
#     Node 10, Type 1, BuildingBlock: MIDCAF_clean_sbu_0, # of connection points: 6
#     Node 11, Type 1, BuildingBlock: MIDCAF_clean_sbu_0, # of connection points: 6
#     Edge 12, Type (0, 1), BuildingBlock: OJICUG_clean_linker_0, # of connection points: 2
#     Edge 13, Type (0, 1), BuildingBlock: OJICUG_clean_linker_0, # of connection points: 2
#     Edge 14, Type (0, 1), BuildingBlock: OJICUG_clean_linker_0, # of connection points: 2
#     Edge 15, Type (0, 1), BuildingBlock: OJICUG_clean_linker_0, # of connection points: 2
#     Edge 16, Type (0, 1), BuildingBlock: OJICUG_clean_linker_0, # of connection points: 2
#     Edge 17, Type (0, 1), BuildingBlock: OJICUG_clean_linker_0, # of connection points: 2
#     Edge 18, Type (0, 1), BuildingBlock: OJICUG_clean_linker_0, # of connection points: 2
#     Edge 19, Type (0, 1), BuildingBlock: OJICUG_clean_linker_0, # of connection points: 2
#     Edge 20, Type (0, 1), BuildingBlock: OJICUG_clean_linker_0, # of connection points: 2
#     Edge 21, Type (0, 1), BuildingBlock: OJICUG_clean_linker_0, # of connection points: 2
#     Edge 22, Type (0, 1), BuildingBlock: OJICUG_clean_linker_0, # of connection points: 2
#     Edge 23, Type (0, 1), BuildingBlock: OJICUG_clean_linker_0, # of connection points: 2
#     Edge 24, Type (0, 1), BuildingBlock: OJICUG_clean_linker_0, # of connection points: 2
#     Edge 25, Type (0, 1), BuildingBlock: OJICUG_clean_linker_0, # of connection points: 2
#     Edge 26, Type (0, 1), BuildingBlock: OJICUG_clean_linker_0, # of connection points: 2
#     Edge 27, Type (0, 1), BuildingBlock: OJICUG_clean_linker_0, # of connection points: 2
#     Edge 28, Type (0, 1), BuildingBlock: OJICUG_clean_linker_0, # of connection points: 2
#     Edge 29, Type (0, 1), BuildingBlock: OJICUG_clean_linker_0, # of connection points: 2
#     Edge 30, Type (0, 1), BuildingBlock: OJICUG_clean_linker_0, # of connection points: 2
#     Edge 31, Type (0, 1), BuildingBlock: OJICUG_clean_linker_0, # of connection points: 2
#     Edge 32, Type (0, 1), BuildingBlock: OJICUG_clean_linker_0, # of connection points: 2
#     Edge 33, Type (0, 1), BuildingBlock: OJICUG_clean_linker_0, # of connection points: 2
#     Edge 34, Type (0, 1), BuildingBlock: OJICUG_clean_linker_0, # of connection points: 2
#     Edge 35, Type (0, 1), BuildingBlock: OJICUG_clean_linker_0, # of connection points: 2
# Relax obj value: 0.013
# Max RMSD: 0.063
# Mean RMSD: 0.050
data_MOF--net-apo--node1-MIDCAF_clean_sbu_0--node2-BETDAH_clean_linker_0--edge1-OJICUG_clean_linker_0
_symmetry_space_group_name_H-M    P1
_symmetry_Int_Tables_number       1
_symmetry_cell_setting            triclinic
loop_
_symmetry_equiv_pos_as_xyz
'x, y, z'
_cell_length_a     26.820299
_cell_length_b     30.321308
_cell_length_c     24.24249
_cell_angle_alpha  88.278405
_cell_angle_beta   90.218692
_cell_angle_gamma 89.740868
loop_
_atom_site_label
_atom_site_type_symbol
_atom_site_fract_x
_atom_site_fract_y
_atom_site_fract_z
_atom_type_partial_charge
H0 H 0.41272 0.38616 0.47393 0.0
H1 H 0.37572 0.34812 0.30887 0.0
H2 H 0.37856 0.25093 0.44112 0.0
C3 C 0.40057 0.36142 0.44555 0.0
C4 C 0.39448 0.31759 0.46532 0.0
C5 C 0.39434 0.3731 0.3891 0.0
C6 C 0.38101 0.34011 0.35235 0.0
C7 C 0.37523 0.29628 0.37118 0.0
C8 C 0.38235 0.28506 0.42731 0.0
N9 N 0.36605 0.26279 0.33299 0.0
C10 C 0.31898 0.2566 0.31044 0.0
H11 H 0.12647 0.09491 0.97631 0.0
H12 H 0.15321 0.10873 0.80179 0.0
H13 H 0.20307 0.20902 0.91062 0.0
C14 C 0.14308 0.11251 0.94144 0.0
C15 C 0.1668 0.15292 0.95023 0.0
C16 C 0.13777 0.09593 0.8883 0.0
C17 C 0.15643 0.12083 0.84324 0.0
C18 C 0.18082 0.16093 0.85096 0.0
C19 C 0.18588 0.17724 0.90465 0.0
N20 N 0.19761 0.18498 0.80352 0.0
C21 C 0.24495 0.20313 0.79973 0.0
H22 H 0.9265 0.10247 0.59076 0.0
H23 H 0.89306 0.15947 0.74694 0.0
H24 H 0.88086 0.23837 0.59704 0.0
C25 C 0.91428 0.13036 0.61427 0.0
C26 C 0.90258 0.17042 0.58636 0.0
C27 C 0.91191 0.12608 0.67217 0.0
C28 C 0.89507 0.16208 0.70233 0.0
C29 C 0.88381 0.20252 0.67521 0.0
C30 C 0.88863 0.20682 0.61753 0.0
N31 N 0.87153 0.24013 0.70582 0.0
C32 C 0.82997 0.24171 0.7399 0.0
H33 H 0.60777 0.37973 0.08501 0.0
H34 H 0.66165 0.38566 0.25212 0.0
H35 H 0.71989 0.28828 0.14354 0.0
C36 C 0.63239 0.36819 0.11798 0.0
C37 C 0.66517 0.33323 0.10771 0.0
C38 C 0.63076 0.38808 0.16956 0.0
C39 C 0.66127 0.37065 0.21215 0.0
C40 C 0.69314 0.33472 0.20366 0.0
C41 C 0.69528 0.31586 0.15096 0.0
N42 N 0.72239 0.31928 0.24943 0.0
C43 C 0.7597 0.28745 0.24778 0.0
H44 H 0.57809 0.61347 0.57593 0.0
H45 H 0.69151 0.59494 0.70144 0.0
H46 H 0.71909 0.67879 0.55937 0.0
C47 C 0.61447 0.62085 0.59289 0.0
C48 C 0.64625 0.64892 0.56242 0.0
C49 C 0.63045 0.59994 0.64263 0.0
C50 C 0.67738 0.61123 0.66418 0.0
C51 C 0.70879 0.64036 0.63488 0.0
C52 C 0.69372 0.6582 0.5833 0.0
N53 N 0.75828 0.6467 0.65327 0.0
C54 C 0.76959 0.67179 0.69865 0.0
H55 H 0.90543 0.88223 0.09132 0.0
H56 H 0.81376 0.77288 0.14353 0.0
H57 H 0.88425 0.85302 0.26445 0.0
C58 C 0.88878 0.86247 0.12431 0.0
C59 C 0.89868 0.87247 0.1795 0.0
C60 C 0.85886 0.8264 0.11074 0.0
C61 C 0.83642 0.80107 0.15343 0.0
C62 C 0.84485 0.81158 0.20907 0.0
C63 C 0.87683 0.84633 0.22154 0.0
N64 N 0.8233 0.78704 0.25368 0.0
C65 C 0.77563 0.76938 0.25203 0.0
H66 H 0.09849 0.88061 0.46567 0.0
H67 H 0.14256 0.8307 0.30899 0.0
H68 H 0.12283 0.74126 0.44851 0.0
C69 C 0.10974 0.85307 0.44093 0.0
C70 C 0.11117 0.81027 0.4647 0.0
C71 C 0.12017 0.86045 0.3848 0.0
C72 C 0.13447 0.82505 0.35239 0.0
C73 C 0.13573 0.78196 0.37543 0.0
C74 C 0.12288 0.77462 0.43116 0.0
N75 N 0.14737 0.74542 0.34255 0.0
C76 C 0.18876 0.74482 0.30814 0.0
H77 H 0.39265 0.59372 0.95898 0.0
H78 H 0.31242 0.70757 0.89564 0.0
H79 H 0.36771 0.61081 0.78436 0.0
C80 C 0.37605 0.61201 0.9244 0.0
C81 C 0.38226 0.59654 0.87078 0.0
C82 C 0.35079 0.65169 0.93418 0.0
C83 C 0.33118 0.67649 0.8889 0.0
C84 C 0.3374 0.6615 0.83466 0.0
C85 C 0.36358 0.62214 0.82608 0.0
N86 N 0.31929 0.68581 0.78765 0.0
C87 C 0.27269 0.70609 0.78538 0.0
Zn88 Zn 0.07624 0.12575 0.34889 0.0
Zn89 Zn 0.99209 0.12345 0.17193 0.0
Zn90 Zn 0.03299 0.12668 0.2644 0.0
C91 C 0.07862 0.1665 0.1483 0.0
C92 C 0.99786 0.03723 0.20427 0.0
O93 O 0.98322 0.15939 0.32578 0.0
O94 O 0.01978 0.12947 0.39964 0.0
C95 C 0.12767 0.18553 0.29081 0.0
O96 O 0.08516 0.15648 0.20007 0.0
O97 O 0.03771 0.15796 0.12539 0.0
O98 O 0.98843 0.05937 0.16063 0.0
O99 O 0.01455 0.05656 0.24728 0.0
O100 O 0.11517 0.18014 0.34054 0.0
O101 O 0.10501 0.16361 0.25345 0.0
O102 O 0.04864 0.05696 0.29222 0.0
O103 O 0.11266 0.06863 0.3469 0.0
C104 C 0.08561 0.04197 0.32155 0.0
O105 O 0.96144 0.1645 0.27162 0.0
O106 O 0.92907 0.15224 0.18967 0.0
C107 C 0.98417 0.15132 0.3784 0.0
C108 C 0.92546 0.16916 0.23634 0.0
Zn109 Zn 0.57588 0.34035 0.70098 0.0
Zn110 Zn 0.48755 0.33477 0.87552 0.0
Zn111 Zn 0.5297 0.34591 0.78823 0.0
C112 C 0.47311 0.42395 0.84485 0.0
C113 C 0.435 0.28225 0.81087 0.0
O114 O 0.60501 0.31289 0.80401 0.0
O115 O 0.6352 0.30693 0.71979 0.0
C116 C 0.5628 0.431 0.7199 0.0
O117 O 0.50579 0.41414 0.80826 0.0
O118 O 0.45697 0.39398 0.87724 0.0
O119 O 0.44338 0.28593 0.86158 0.0
O120 O 0.46112 0.30464 0.7753 0.0
O121 O 0.58283 0.40445 0.68747 0.0
O122 O 0.53906 0.41627 0.76266 0.0
O123 O 0.4813 0.31459 0.72194 0.0
O124 O 0.53176 0.3115 0.65039 0.0
C125 C 0.48933 0.30517 0.67092 0.0
O126 O 0.58335 0.31881 0.85548 0.0
O127 O 0.53754 0.32089 0.93086 0.0
C128 C 0.63931 0.29959 0.7709 0.0
C129 C 0.57881 0.3134 0.90849 0.0
Zn130 Zn 0.03298 0.83473 0.87842 0.0
Zn131 Zn 0.93084 0.86574 0.70991 0.0
Zn132 Zn 0.98772 0.85266 0.79178 0.0
C133 C 0.95059 0.94885 0.74203 0.0
C134 C 0.87605 0.81055 0.77303 0.0
O135 O 0.05649 0.81273 0.77172 0.0
O136 O 0.0777 0.78838 0.85536 0.0
C137 C 0.04567 0.92539 0.85774 0.0
O138 O 0.97847 0.92621 0.7762 0.0
O139 O 0.92402 0.92969 0.70731 0.0
O140 O 0.87101 0.83319 0.72899 0.0
O141 O 0.91607 0.81431 0.8025 0.0
O142 O 0.06218 0.89387 0.88784 0.0
O143 O 0.01319 0.91773 0.81985 0.0
O144 O 0.93558 0.8225 0.85642 0.0
O145 O 0.98271 0.816 0.9311 0.0
C146 C 0.94072 0.81252 0.9084 0.0
O147 O 0.02923 0.82371 0.72219 0.0
O148 O 0.97493 0.83816 0.65512 0.0
C149 C 0.0843 0.78834 0.80401 0.0
C150 C 0.01628 0.82222 0.671 0.0
Zn151 Zn 0.52445 0.64637 0.16693 0.0
Zn152 Zn 0.44046 0.64547 0.34123 0.0
Zn153 Zn 0.48283 0.6356 0.25521 0.0
C154 C 0.53183 0.66838 0.37136 0.0
C155 C 0.43529 0.55483 0.32013 0.0
O156 O 0.42914 0.66366 0.18846 0.0
O157 O 0.47511 0.66486 0.11308 0.0
C158 C 0.58324 0.69401 0.22991 0.0
O159 O 0.53582 0.66444 0.3185 0.0
O160 O 0.49104 0.65991 0.39465 0.0
O161 O 0.41454 0.58431 0.34789 0.0
O162 O 0.46722 0.56624 0.28272 0.0
O163 O 0.57493 0.69045 0.17918 0.0
O164 O 0.55478 0.67396 0.26554 0.0
O165 O 0.50152 0.56662 0.23702 0.0
O166 O 0.54711 0.58447 0.16425 0.0
C167 C 0.531 0.55543 0.19799 0.0
O168 O 0.40947 0.67184 0.24113 0.0
O169 O 0.39337 0.69313 0.3254 0.0
C170 C 0.43372 0.67107 0.13577 0.0
C171 C 0.38288 0.69431 0.2748 0.0
C172 C 0.15254 0.93485 0.35766 0.0
C173 C 0.11284 0.90504 0.36015 0.0
H174 H 0.17491 0.00184 0.34263 0.0
C175 C 0.06474 0.91952 0.34517 0.0
H176 H 0.18978 0.9243 0.36966 0.0
C177 C 0.05612 0.96375 0.32975 0.0
C178 C 0.09543 0.99413 0.32926 0.0
H179 H 0.03352 0.897 0.34772 0.0
H180 H 0.01834 0.97469 0.3217 0.0
C181 C 0.14389 0.97908 0.34243 0.0
C182 C 0.43897 0.54533 0.81805 0.0
C183 C 0.40669 0.5529 0.86264 0.0
H184 H 0.48524 0.49858 0.77683 0.0
C185 C 0.39735 0.51798 0.90044 0.0
H186 H 0.44714 0.57154 0.78818 0.0
C187 C 0.41994 0.47705 0.89465 0.0
C188 C 0.45221 0.46913 0.85035 0.0
H189 H 0.37184 0.52197 0.93447 0.0
H190 H 0.41138 0.45132 0.92507 0.0
C191 C 0.46142 0.50373 0.81189 0.0
C192 C 0.60399 0.54979 0.72321 0.0
C193 C 0.60248 0.56126 0.66631 0.0
H194 H 0.59146 0.49904 0.78576 0.0
C195 C 0.57928 0.532 0.63037 0.0
H196 H 0.62081 0.57171 0.75232 0.0
C197 C 0.56187 0.4913 0.64972 0.0
C198 C 0.56729 0.47835 0.70541 0.0
H199 H 0.57788 0.53871 0.5863 0.0
H200 H 0.54726 0.4685 0.62015 0.0
C201 C 0.58661 0.5085 0.74262 0.0
C202 C 0.91856 0.93842 0.2364 0.0
C203 C 0.93074 0.91092 0.1926 0.0
H204 H 0.93169 3e-05 0.27512 0.0
C205 C 0.97144 0.92255 0.15865 0.0
H206 H 0.88729 0.9309 0.26312 0.0
C207 C 0.99627 0.96248 0.16521 0.0
C208 C 0.98201 0.99091 0.20688 0.0
H209 H 0.98291 0.90167 0.1255 0.0
H210 H 0.02512 0.9721 0.13614 0.0
C211 C 0.94405 0.97801 0.24348 0.0
C212 C 0.97082 0.06181 0.68187 0.0
C213 C 0.92798 0.08395 0.70013 0.0
H214 H 0.01221 0.00117 0.68236 0.0
C215 C 0.89858 0.06355 0.74138 0.0
H216 H 0.99476 0.07694 0.65087 0.0
C217 C 0.90938 0.02038 0.76025 0.0
C218 C 0.9501 -0.00271 0.73881 0.0
H219 H 0.86527 0.07967 0.75611 0.0
H220 H 0.88381 0.00387 0.78844 0.0
C221 C 0.9814 0.01876 0.70055 0.0
C222 C 0.59234 0.45859 0.13254 0.0
C223 C 0.59988 0.42867 0.17727 0.0
H224 H 0.56288 0.52035 0.10382 0.0
C225 C 0.57997 0.4394 0.22909 0.0
H226 H 0.60793 0.4528 0.0923 0.0
C227 C 0.55537 0.47985 0.2362 0.0
C228 C 0.54909 0.50973 0.19134 0.0
H229 H 0.58423 0.4171 0.26451 0.0
H230 H 0.54324 0.48844 0.27706 0.0
C231 C 0.56682 0.49801 0.13932 0.0
C232 C 0.42657 0.42914 0.31796 0.0
C233 C 0.40306 0.41951 0.36892 0.0
H234 H 0.45374 0.47943 0.26136 0.0
C235 C 0.38876 0.45482 0.40156 0.0
H236 H 0.43822 0.40283 0.2916 0.0
C237 C 0.39908 0.49822 0.38499 0.0
C238 C 0.4237 0.508 0.33489 0.0
H239 H 0.3695 0.44903 0.44027 0.0
H240 H 0.38807 0.52421 0.41218 0.0
C241 C 0.43643 0.47299 0.30097 0.0
C242 C 0.11848 0.01827 0.92006 0.0
C243 C 0.11266 0.05274 0.8804 0.0
H244 H 0.10106 0.95205 0.9447 0.0
C245 C 0.08309 0.04526 0.83349 0.0
H246 H 0.14179 0.02215 0.95612 0.0
C247 C 0.06064 0.0042 0.82625 0.0
C248 C 0.06629 0.97003 0.86607 0.0
H249 H 0.07725 0.07101 0.80218 0.0
H250 H 0.0402 -0.00116 0.78889 0.0
C251 C 0.09533 0.97772 0.91321 0.0
C252 C 0.18053 0.14424 0.05205 0.0
C253 C 0.16424 0.17065 1.00664 0.0
H254 H 0.16698 0.1241 0.13618 0.0
C255 C 0.13187 0.20606 1.01614 0.0
H256 H 0.2054 0.1166 0.04571 0.0
C257 C 0.10965 0.21015 0.06793 0.0
C258 C 0.11982 0.17913 0.11092 0.0
H259 H 0.11845 0.22671 0.98193 0.0
H260 H 0.07949 0.23372 0.07201 0.0
C261 C 0.15877 0.14874 0.10409 0.0
C262 C 0.4371 0.26953 0.53787 0.0
C263 C 0.40604 0.30579 0.52444 0.0
H264 H 0.48682 0.23966 0.59756 0.0
C265 C 0.39196 0.33391 0.56704 0.0
H266 H 0.44882 0.2472 0.50634 0.0
C267 C 0.4131 0.32892 0.61997 0.0
C268 C 0.44914 0.29606 0.63103 0.0
H269 H 0.36736 0.36171 0.55838 0.0
H270 H 0.4058 0.35394 0.64992 0.0
C271 C 0.45853 0.26486 0.59052 0.0
C272 C 0.6776 0.34333 1.00625 0.0
C273 C 0.66444 0.31539 0.05131 0.0
H274 H 0.66188 0.3629 0.92211 0.0
C275 C 0.6356 0.278 0.04137 0.0
H276 H 0.69932 0.37273 1.01304 0.0
C277 C 0.61403 0.27251 0.98929 0.0
C278 C 0.62109 0.30424 0.94643 0.0
H279 H 0.62433 0.25635 0.07539 0.0
H280 H 0.58649 0.24681 0.9848 0.0
C281 C 0.65636 0.33757 0.95396 0.0
C282 C 0.93867 0.20785 0.50152 0.0
C283 C 0.90933 0.17404 0.52529 0.0
H284 H 0.98447 0.22786 0.43289 0.0
C285 C 0.89354 0.13964 0.49171 0.0
H286 H 0.95159 0.23471 0.52625 0.0
C287 C 0.91184 0.13614 0.438 0.0
C288 C 0.94608 0.16701 0.41677 0.0
H289 H 0.87034 0.11341 0.50858 0.0
H290 H 0.90369 0.10663 0.41555 0.0
C291 C 0.95706 0.20423 0.44772 0.0
C292 C 0.88236 0.77392 0.03818 0.0
C293 C 0.85812 0.81311 0.05219 0.0
H294 H 0.92715 0.74209 0.97804 0.0
C295 C 0.8472 0.84467 1.01001 0.0
H296 H 0.89157 0.7492 0.06984 0.0
C297 C 0.86677 0.84013 0.95691 0.0
C298 C 0.89825 0.80442 0.94576 0.0
H299 H 0.82861 0.87524 1.01979 0.0
H300 H 0.86343 0.86763 0.92751 0.0
C301 C 0.90255 0.76973 0.98538 0.0
C302 C 0.5951 0.6988 0.50121 0.0
C303 C 0.63018 0.66455 0.50668 0.0
H304 H 0.53745 0.72848 0.45109 0.0
C305 C 0.64093 0.63904 0.4607 0.0
H306 H 0.58577 0.71843 0.53636 0.0
C307 C 0.61328 0.64478 0.41173 0.0
C308 C 0.57465 0.67617 0.40818 0.0
H309 H 0.66726 0.6119 0.46445 0.0
H310 H 0.61817 0.62129 0.37936 0.0
C311 C 0.56775 0.7047 0.45226 0.0
C312 C 0.37758 0.70652 1.00303 0.0
C313 C 0.35123 0.66797 0.99159 0.0
H314 H 0.42363 0.73903 0.06146 0.0
C315 C 0.33821 0.63924 0.03597 0.0
H316 H 0.38834 0.72915 0.96979 0.0
C317 C 0.35782 0.64533 0.08894 0.0
C318 C 0.39128 0.67983 0.09794 0.0
H319 H 0.31777 0.60929 0.02831 0.0
H320 H 0.35279 0.61949 0.12026 0.0
C321 C 0.39755 0.71233 0.05583 0.0
C322 C 0.05464 0.7766 0.53599 0.0
C323 C 0.09576 0.8034 0.52315 0.0
H324 H 0.9972 0.76122 0.59463 0.0
C325 C 0.1168 0.82883 0.56488 0.0
H326 H 0.0375 0.75695 0.50456 0.0
C327 C 0.09451 0.83031 0.61704 0.0
C328 C 0.0503 0.80709 0.62775 0.0
H329 H 0.14859 0.84975 0.55597 0.0
H330 H 0.1089 0.85301 0.64682 0.0
C331 C 0.03176 0.77885 0.58762 0.0
C332 C 0.22863 0.26626 0.31844 0.0
C333 C 0.26906 0.24624 0.29279 0.0
H334 H 0.15062 0.26313 0.33591 0.0
C335 C 0.26059 0.21177 0.2565 0.0
H336 H 0.23454 0.29284 0.34665 0.0
C337 C 0.21233 0.195 0.24966 0.0
C338 C 0.17251 0.21227 0.27978 0.0
H339 H 0.29162 0.19584 0.23653 0.0
H340 H 0.20716 0.16596 0.22535 0.0
C341 C 0.1807 0.24941 0.31199 0.0
C342 C 0.33231 0.20034 0.82885 0.0
C343 C 0.2952 0.21936 0.79519 0.0
H344 H 0.40724 0.20483 0.85827 0.0
C345 C 0.30702 0.25467 0.75881 0.0
H346 H 0.32388 0.17274 0.85667 0.0
C347 C 0.35509 0.27281 0.75901 0.0
C348 C 0.39134 0.25579 0.7959 0.0
H349 H 0.27864 0.26941 0.73212 0.0
H350 H 0.36263 0.30206 0.73372 0.0
C351 C 0.38 0.2184 0.82922 0.0
C352 C 0.74317 0.22092 0.75908 0.0
C353 C 0.78325 0.24935 0.7676 0.0
H354 H 0.66372 0.21451 0.75708 0.0
C355 C 0.77485 0.28962 0.79317 0.0
H356 H 0.74892 0.18986 0.73898 0.0
C357 C 0.72607 0.3035 0.80434 0.0
C358 C 0.68541 0.27733 0.7895 0.0
H359 H 0.80542 0.31215 0.79965 0.0
H360 H 0.72001 0.33682 0.81793 0.0
C361 C 0.6945 0.23481 0.77011 0.0
C362 C 0.79813 0.21999 0.21415 0.0
C363 C 0.79953 0.2554 0.24952 0.0
H364 H 0.83654 0.16416 0.18359 0.0
C365 C 0.84024 0.25999 0.28553 0.0
H366 H 0.76674 0.21572 0.18656 0.0
C367 C 0.8805 0.2303 0.28427 0.0
C368 C 0.88037 0.19599 0.24663 0.0
H369 H 0.84151 0.28718 0.31351 0.0
H370 H 0.9125 0.23545 0.31067 0.0
C371 C 0.8381 0.19052 0.21274 0.0
C372 C 0.83457 0.69517 0.76342 0.0
C373 C 0.78807 0.70259 0.738 0.0
H374 H 0.89913 0.72502 0.79871 0.0
C375 C 0.76539 0.74408 0.74095 0.0
H376 H 0.85269 0.66326 0.76128 0.0
C377 C 0.79174 0.7793 0.76259 0.0
C378 C 0.84124 0.77342 0.78093 0.0
H379 H 0.72954 0.7504 0.72141 0.0
H380 H 0.77581 0.81216 0.75843 0.0
C381 C 0.86091 0.73044 0.78544 0.0
C382 C 0.71108 0.71765 0.28685 0.0
C383 C 0.72519 0.75322 0.252 0.0
H384 H 0.6537 0.6709 0.30767 0.0
C385 C 0.69018 0.77278 0.21604 0.0
H386 H 0.73785 0.70231 0.31508 0.0
C387 C 0.64219 0.75549 0.21265 0.0
C388 C 0.62839 0.71841 0.24533 0.0
H389 H 0.70041 0.80049 0.1892 0.0
H390 H 0.61649 0.76981 0.18244 0.0
C391 C 0.66281 0.70027 0.2835 0.0
C392 C 0.24645 0.70136 0.2519 0.0
C393 C 0.23613 0.73974 0.28088 0.0
H394 H 0.30347 0.65747 0.22384 0.0
C395 C 0.27495 0.76858 0.29299 0.0
H396 H 0.21682 0.67856 0.24254 0.0
C397 C 0.32426 0.75666 0.28216 0.0
C398 C 0.3353 0.71571 0.25919 0.0
H399 H 0.26768 0.79823 0.31558 0.0
H400 H 0.354 0.77709 0.29752 0.0
C401 C 0.29594 0.68955 0.24061 0.0
C402 C 0.21289 0.76377 0.75202 0.0
C403 C 0.22287 0.72416 0.78168 0.0
H404 H 0.15902 0.81513 0.73397 0.0
C405 C 0.18419 0.7023 0.8094 0.0
H406 H 0.24244 0.78082 0.7299 0.0
C407 C 0.13681 0.72137 0.81101 0.0
C408 C 0.12726 0.7626 0.78482 0.0
H409 H 0.19113 0.67146 0.83195 0.0
H410 H 0.10839 0.70529 0.83599 0.0
C411 C 0.16512 0.78293 0.75345 0.0
loop_
_geom_bond_atom_site_label_1
_geom_bond_atom_site_label_2
_geom_bond_distance
_geom_bond_site_symmetry_2
_ccdc_geom_bond_type
H0 C3 0.929 . S
H1 C6 0.929 . S
H2 C8 0.930 . S
C3 H0 0.929 . S
C3 C4 1.398 . S
C3 C5 1.396 . S
C4 C3 1.398 . S
C4 C8 1.407 . S
C5 C3 1.396 . S
C5 C6 1.394 . S
C6 H1 0.929 . S
C6 C5 1.394 . S
C6 C7 1.382 . S
C7 C6 1.382 . S
C7 C8 1.392 . S
C7 N9 1.420 . S
C8 H2 0.930 . S
C8 C4 1.407 . S
C8 C7 1.392 . S
N9 C7 1.420 . S
N9 C10 1.244 . S
C10 N9 1.244 . S
H11 C14 0.929 . S
H12 C17 0.929 . S
H13 C19 0.930 . S
C14 H11 0.929 . S
C14 C15 1.398 . S
C14 C16 1.396 . S
C15 C14 1.398 . S
C15 C19 1.407 . S
C16 C14 1.396 . S
C16 C17 1.394 . S
C17 H12 0.929 . S
C17 C16 1.394 . S
C17 C18 1.382 . S
C18 C17 1.382 . S
C18 C19 1.392 . S
C18 N20 1.420 . S
C19 H13 0.930 . S
C19 C15 1.407 . S
C19 C18 1.392 . S
N20 C18 1.420 . S
N20 C21 1.244 . S
C21 N20 1.244 . S
H22 C25 0.929 . S
H23 C28 0.929 . S
H24 C30 0.930 . S
C25 H22 0.929 . S
C25 C26 1.398 . S
C25 C27 1.396 . S
C26 C25 1.398 . S
C26 C30 1.407 . S
C27 C25 1.396 . S
C27 C28 1.394 . S
C28 H23 0.929 . S
C28 C27 1.394 . S
C28 C29 1.382 . S
C29 C28 1.382 . S
C29 C30 1.392 . S
C29 N31 1.420 . S
C30 H24 0.930 . S
C30 C26 1.407 . S
C30 C29 1.392 . S
N31 C29 1.420 . S
N31 C32 1.244 . S
C32 N31 1.244 . S
H33 C36 0.929 . S
H34 C39 0.929 . S
H35 C41 0.930 . S
C36 H33 0.929 . S
C36 C37 1.398 . S
C36 C38 1.396 . S
C37 C36 1.398 . S
C37 C41 1.407 . S
C38 C36 1.396 . S
C38 C39 1.394 . S
C39 H34 0.929 . S
C39 C38 1.394 . S
C39 C40 1.382 . S
C40 C39 1.382 . S
C40 C41 1.392 . S
C40 N42 1.420 . S
C41 H35 0.930 . S
C41 C37 1.407 . S
C41 C40 1.392 . S
N42 C40 1.420 . S
N42 C43 1.244 . S
C43 N42 1.244 . S
H44 C47 0.929 . S
H45 C50 0.929 . S
H46 C52 0.930 . S
C47 H44 0.929 . S
C47 C48 1.398 . S
C47 C49 1.396 . S
C48 C47 1.398 . S
C48 C52 1.407 . S
C49 C47 1.396 . S
C49 C50 1.394 . S
C50 H45 0.929 . S
C50 C49 1.394 . S
C50 C51 1.382 . S
C51 C50 1.382 . S
C51 C52 1.392 . S
C51 N53 1.420 . S
C52 H46 0.930 . S
C52 C48 1.407 . S
C52 C51 1.392 . S
N53 C51 1.420 . S
N53 C54 1.244 . S
C54 N53 1.244 . S
H55 C58 0.929 . S
H56 C61 0.929 . S
H57 C63 0.930 . S
C58 H55 0.929 . S
C58 C59 1.398 . S
C58 C60 1.396 . S
C59 C58 1.398 . S
C59 C63 1.407 . S
C60 C58 1.396 . S
C60 C61 1.394 . S
C61 H56 0.929 . S
C61 C60 1.394 . S
C61 C62 1.382 . S
C62 C61 1.382 . S
C62 C63 1.392 . S
C62 N64 1.420 . S
C63 H57 0.930 . S
C63 C59 1.407 . S
C63 C62 1.392 . S
N64 C62 1.420 . S
N64 C65 1.244 . S
C65 N64 1.244 . S
H66 C69 0.929 . S
H67 C72 0.929 . S
H68 C74 0.930 . S
C69 H66 0.929 . S
C69 C70 1.398 . S
C69 C71 1.396 . S
C70 C69 1.398 . S
C70 C74 1.407 . S
C71 C69 1.396 . S
C71 C72 1.394 . S
C72 H67 0.929 . S
C72 C71 1.394 . S
C72 C73 1.382 . S
C73 C72 1.382 . S
C73 C74 1.392 . S
C73 N75 1.420 . S
C74 H68 0.930 . S
C74 C70 1.407 . S
C74 C73 1.392 . S
N75 C73 1.420 . S
N75 C76 1.244 . S
C76 N75 1.244 . S
H77 C80 0.929 . S
H78 C83 0.929 . S
H79 C85 0.930 . S
C80 H77 0.929 . S
C80 C81 1.398 . S
C80 C82 1.396 . S
C81 C80 1.398 . S
C81 C85 1.407 . S
C82 C80 1.396 . S
C82 C83 1.394 . S
C83 H78 0.929 . S
C83 C82 1.394 . S
C83 C84 1.382 . S
C84 C83 1.382 . S
C84 C85 1.392 . S
C84 N86 1.420 . S
C85 H79 0.930 . S
C85 C81 1.407 . S
C85 C84 1.392 . S
N86 C84 1.420 . S
N86 C87 1.244 . S
C87 N86 1.244 . S
Zn88 O94 1.920 . S
Zn88 O100 1.898 . S
Zn88 O103 1.905 . S
Zn89 O97 1.905 1_655 S
Zn89 O98 1.898 . S
Zn89 O106 1.920 . S
Zn90 O93 2.080 1_455 S
Zn90 O96 2.114 . S
Zn90 O99 2.120 1_455 S
Zn90 O101 2.120 . S
Zn90 O102 2.114 . S
Zn90 O105 2.080 1_455 S
C91 O96 1.166 . S
C91 O97 1.182 . S
C92 O98 1.167 . S
C92 O99 1.299 . S
O93 Zn90 2.080 1_655 S
O93 C107 1.305 . S
O94 Zn88 1.920 . S
O94 C107 1.234 1_455 S
C95 O100 1.167 . S
C95 O101 1.299 . S
O96 Zn90 2.114 . S
O96 C91 1.166 . S
O97 Zn89 1.905 1_455 S
O97 C91 1.182 . S
O98 Zn89 1.898 . S
O98 C92 1.167 . S
O99 Zn90 2.120 1_655 S
O99 C92 1.299 . S
O100 Zn88 1.898 . S
O100 C95 1.167 . S
O101 Zn90 2.120 . S
O101 C95 1.299 . S
O102 Zn90 2.114 . S
O102 C104 1.166 . S
O103 Zn88 1.905 . S
O103 C104 1.182 . S
C104 O102 1.166 . S
C104 O103 1.182 . S
O105 Zn90 2.080 1_655 S
O105 C108 1.305 . S
O106 Zn89 1.920 . S
O106 C108 1.234 . S
C107 O93 1.305 . S
C107 O94 1.234 1_655 S
C108 O105 1.305 . S
C108 O106 1.234 . S
Zn109 O115 1.920 . S
Zn109 O121 1.898 . S
Zn109 O124 1.905 . S
Zn110 O118 1.905 . S
Zn110 O119 1.898 . S
Zn110 O127 1.920 . S
Zn111 O114 2.080 . S
Zn111 O117 2.114 . S
Zn111 O120 2.120 . S
Zn111 O122 2.120 . S
Zn111 O123 2.114 . S
Zn111 O126 2.080 . S
C112 O117 1.166 . S
C112 O118 1.182 . S
C113 O119 1.167 . S
C113 O120 1.299 . S
O114 Zn111 2.080 . S
O114 C128 1.305 . S
O115 Zn109 1.920 . S
O115 C128 1.234 . S
C116 O121 1.167 . S
C116 O122 1.299 . S
O117 Zn111 2.114 . S
O117 C112 1.166 . S
O118 Zn110 1.905 . S
O118 C112 1.182 . S
O119 Zn110 1.898 . S
O119 C113 1.167 . S
O120 Zn111 2.120 . S
O120 C113 1.299 . S
O121 Zn109 1.898 . S
O121 C116 1.167 . S
O122 Zn111 2.120 . S
O122 C116 1.299 . S
O123 Zn111 2.114 . S
O123 C125 1.166 . S
O124 Zn109 1.905 . S
O124 C125 1.182 . S
C125 O123 1.166 . S
C125 O124 1.182 . S
O126 Zn111 2.080 . S
O126 C129 1.305 . S
O127 Zn110 1.920 . S
O127 C129 1.234 . S
C128 O114 1.305 . S
C128 O115 1.234 . S
C129 O126 1.305 . S
C129 O127 1.234 . S
Zn130 O136 1.920 . S
Zn130 O142 1.898 . S
Zn130 O145 1.905 1_455 S
Zn131 O139 1.905 . S
Zn131 O140 1.898 . S
Zn131 O148 1.920 1_655 S
Zn132 O135 2.080 . S
Zn132 O138 2.114 1_455 S
Zn132 O141 2.120 1_455 S
Zn132 O143 2.120 . S
Zn132 O144 2.114 1_455 S
Zn132 O147 2.080 . S
C133 O138 1.166 . S
C133 O139 1.182 . S
C134 O140 1.167 . S
C134 O141 1.299 . S
O135 Zn132 2.080 . S
O135 C149 1.305 . S
O136 Zn130 1.920 . S
O136 C149 1.234 . S
C137 O142 1.167 . S
C137 O143 1.299 . S
O138 Zn132 2.114 1_655 S
O138 C133 1.166 . S
O139 Zn131 1.905 . S
O139 C133 1.182 . S
O140 Zn131 1.898 . S
O140 C134 1.167 . S
O141 Zn132 2.120 1_655 S
O141 C134 1.299 . S
O142 Zn130 1.898 . S
O142 C137 1.167 . S
O143 Zn132 2.120 . S
O143 C137 1.299 . S
O144 Zn132 2.114 1_655 S
O144 C146 1.166 . S
O145 Zn130 1.905 1_655 S
O145 C146 1.182 . S
C146 O144 1.166 . S
C146 O145 1.182 . S
O147 Zn132 2.080 . S
O147 C150 1.305 . S
O148 Zn131 1.920 1_455 S
O148 C150 1.234 . S
C149 O135 1.305 . S
C149 O136 1.234 . S
C150 O147 1.305 . S
C150 O148 1.234 . S
Zn151 O157 1.920 . S
Zn151 O163 1.898 . S
Zn151 O166 1.905 . S
Zn152 O160 1.905 . S
Zn152 O161 1.898 . S
Zn152 O169 1.920 . S
Zn153 O156 2.080 . S
Zn153 O159 2.114 . S
Zn153 O162 2.120 . S
Zn153 O164 2.120 . S
Zn153 O165 2.114 . S
Zn153 O168 2.080 . S
C154 O159 1.166 . S
C154 O160 1.182 . S
C155 O161 1.167 . S
C155 O162 1.299 . S
O156 Zn153 2.080 . S
O156 C170 1.305 . S
O157 Zn151 1.920 . S
O157 C170 1.234 . S
C158 O163 1.167 . S
C158 O164 1.299 . S
O159 Zn153 2.114 . S
O159 C154 1.166 . S
O160 Zn152 1.905 . S
O160 C154 1.182 . S
O161 Zn152 1.898 . S
O161 C155 1.167 . S
O162 Zn153 2.120 . S
O162 C155 1.299 . S
O163 Zn151 1.898 . S
O163 C158 1.167 . S
O164 Zn153 2.120 . S
O164 C158 1.299 . S
O165 Zn153 2.114 . S
O165 C167 1.166 . S
O166 Zn151 1.905 . S
O166 C167 1.182 . S
C167 O165 1.166 . S
C167 O166 1.182 . S
O168 Zn153 2.080 . S
O168 C171 1.305 . S
O169 Zn152 1.920 . S
O169 C171 1.234 . S
C170 O156 1.305 . S
C170 O157 1.234 . S
C171 O168 1.305 . S
C171 O169 1.234 . S
C172 C173 1.387 . S
C172 H176 0.950 . S
C172 C181 1.390 . S
C173 C172 1.387 . S
C173 C175 1.387 . S
H174 C181 0.950 1_545 S
C175 C173 1.387 . S
C175 C177 1.390 . S
C175 H179 0.950 . S
H176 C172 0.950 . S
C177 C175 1.390 . S
C177 C178 1.387 . S
C177 H180 0.950 . S
C178 C177 1.387 . S
C178 C181 1.387 . S
H179 C175 0.950 . S
H180 C177 0.950 . S
C181 C172 1.390 . S
C181 H174 0.950 1_565 S
C181 C178 1.387 . S
C182 C183 1.387 . S
C182 H186 0.950 . S
C182 C191 1.390 . S
C183 C182 1.387 . S
C183 C185 1.387 . S
H184 C191 0.950 . S
C185 C183 1.387 . S
C185 C187 1.390 . S
C185 H189 0.950 . S
H186 C182 0.950 . S
C187 C185 1.390 . S
C187 C188 1.387 . S
C187 H190 0.950 . S
C188 C187 1.387 . S
C188 C191 1.387 . S
H189 C185 0.950 . S
H190 C187 0.950 . S
C191 C182 1.390 . S
C191 H184 0.950 . S
C191 C188 1.387 . S
C192 C193 1.387 . S
C192 H196 0.950 . S
C192 C201 1.390 . S
C193 C192 1.387 . S
C193 C195 1.387 . S
H194 C201 0.950 . S
C195 C193 1.387 . S
C195 C197 1.390 . S
C195 H199 0.950 . S
H196 C192 0.950 . S
C197 C195 1.390 . S
C197 C198 1.387 . S
C197 H200 0.950 . S
C198 C197 1.387 . S
C198 C201 1.387 . S
H199 C195 0.950 . S
H200 C197 0.950 . S
C201 C192 1.390 . S
C201 H194 0.950 . S
C201 C198 1.387 . S
C202 C203 1.387 . S
C202 H206 0.950 . S
C202 C211 1.390 . S
C203 C202 1.387 . S
C203 C205 1.387 . S
H204 C211 0.950 . S
C205 C203 1.387 . S
C205 C207 1.390 . S
C205 H209 0.950 . S
H206 C202 0.950 . S
C207 C205 1.390 . S
C207 C208 1.387 . S
C207 H210 0.950 . S
C208 C207 1.387 . S
C208 C211 1.387 . S
H209 C205 0.950 . S
H210 C207 0.950 . S
C211 C202 1.390 . S
C211 H204 0.950 . S
C211 C208 1.387 . S
C212 C213 1.387 . S
C212 H216 0.950 . S
C212 C221 1.390 . S
C213 C212 1.387 . S
C213 C215 1.387 . S
H214 C221 0.950 . S
C215 C213 1.387 . S
C215 C217 1.390 . S
C215 H219 0.950 . S
H216 C212 0.950 . S
C217 C215 1.390 . S
C217 C218 1.387 . S
C217 H220 0.950 1_545 S
C218 C217 1.387 . S
C218 C221 1.387 . S
H219 C215 0.950 . S
H220 C217 0.950 1_565 S
C221 C212 1.390 . S
C221 H214 0.950 . S
C221 C218 1.387 . S
C222 C223 1.387 . S
C222 H226 0.950 . S
C222 C231 1.390 . S
C223 C222 1.387 . S
C223 C225 1.387 . S
H224 C231 0.950 . S
C225 C223 1.387 . S
C225 C227 1.390 . S
C225 H229 0.950 . S
H226 C222 0.950 . S
C227 C225 1.390 . S
C227 C228 1.387 . S
C227 H230 0.950 . S
C228 C227 1.387 . S
C228 C231 1.387 . S
H229 C225 0.950 . S
H230 C227 0.950 . S
C231 C222 1.390 . S
C231 H224 0.950 . S
C231 C228 1.387 . S
C232 C233 1.387 . S
C232 H236 0.950 . S
C232 C241 1.390 . S
C233 C232 1.387 . S
C233 C235 1.387 . S
H234 C241 0.950 . S
C235 C233 1.387 . S
C235 C237 1.390 . S
C235 H239 0.950 . S
H236 C232 0.950 . S
C237 C235 1.390 . S
C237 C238 1.387 . S
C237 H240 0.950 . S
C238 C237 1.387 . S
C238 C241 1.387 . S
H239 C235 0.950 . S
H240 C237 0.950 . S
C241 C232 1.390 . S
C241 H234 0.950 . S
C241 C238 1.387 . S
C242 C243 1.387 . S
C242 H246 0.950 . S
C242 C251 1.390 . S
C243 C242 1.387 . S
C243 C245 1.387 . S
H244 C251 0.950 1_565 S
C245 C243 1.387 . S
C245 C247 1.390 . S
C245 H249 0.950 . S
H246 C242 0.950 . S
C247 C245 1.390 . S
C247 C248 1.387 . S
C247 H250 0.950 . S
C248 C247 1.387 . S
C248 C251 1.387 . S
H249 C245 0.950 . S
H250 C247 0.950 . S
C251 C242 1.390 . S
C251 H244 0.950 1_545 S
C251 C248 1.387 . S
C252 C253 1.387 . S
C252 H256 0.950 . S
C252 C261 1.390 . S
C253 C252 1.387 . S
C253 C255 1.387 . S
H254 C261 0.950 . S
C255 C253 1.387 . S
C255 C257 1.390 . S
C255 H259 0.950 . S
H256 C252 0.950 . S
C257 C255 1.390 . S
C257 C258 1.387 . S
C257 H260 0.950 . S
C258 C257 1.387 . S
C258 C261 1.387 . S
H259 C255 0.950 . S
H260 C257 0.950 . S
C261 C252 1.390 . S
C261 H254 0.950 . S
C261 C258 1.387 . S
C262 C263 1.387 . S
C262 H266 0.950 . S
C262 C271 1.390 . S
C263 C262 1.387 . S
C263 C265 1.387 . S
H264 C271 0.950 . S
C265 C263 1.387 . S
C265 C267 1.390 . S
C265 H269 0.950 . S
H266 C262 0.950 . S
C267 C265 1.390 . S
C267 C268 1.387 . S
C267 H270 0.950 . S
C268 C267 1.387 . S
C268 C271 1.387 . S
H269 C265 0.950 . S
H270 C267 0.950 . S
C271 C262 1.390 . S
C271 H264 0.950 . S
C271 C268 1.387 . S
C272 C273 1.387 . S
C272 H276 0.956 . S
C272 C281 1.390 . S
C273 C272 1.387 . S
C273 C275 1.387 . S
H274 C281 0.950 . S
C275 C273 1.387 . S
C275 C277 1.390 . S
C275 H279 0.950 . S
H276 C272 0.956 . S
C277 C275 1.390 . S
C277 C278 1.387 . S
C277 H280 0.950 . S
C278 C277 1.387 . S
C278 C281 1.387 . S
H279 C275 0.950 . S
H280 C277 0.950 . S
C281 C272 1.390 . S
C281 H274 0.950 . S
C281 C278 1.387 . S
C282 C283 1.387 . S
C282 H286 0.950 . S
C282 C291 1.390 . S
C283 C282 1.387 . S
C283 C285 1.387 . S
H284 C291 0.950 . S
C285 C283 1.387 . S
C285 C287 1.390 . S
C285 H289 0.950 . S
H286 C282 0.950 . S
C287 C285 1.390 . S
C287 C288 1.387 . S
C287 H290 0.950 . S
C288 C287 1.387 . S
C288 C291 1.387 . S
H289 C285 0.950 . S
H290 C287 0.950 . S
C291 C282 1.390 . S
C291 H284 0.950 . S
C291 C288 1.387 . S
C292 C293 1.387 . S
C292 H296 0.950 . S
C292 C301 1.390 . S
C293 C292 1.387 . S
C293 C295 1.387 . S
H294 C301 0.950 . S
C295 C293 1.387 . S
C295 C297 1.390 . S
C295 H299 0.950 1_556 S
H296 C292 0.950 . S
C297 C295 1.390 . S
C297 C298 1.387 . S
C297 H300 0.950 . S
C298 C297 1.387 . S
C298 C301 1.387 . S
H299 C295 0.950 1_554 S
H300 C297 0.950 . S
C301 C292 1.390 . S
C301 H294 0.950 . S
C301 C298 1.387 . S
C302 C303 1.387 . S
C302 H306 0.950 . S
C302 C311 1.390 . S
C303 C302 1.387 . S
C303 C305 1.387 . S
H304 C311 0.950 . S
C305 C303 1.387 . S
C305 C307 1.390 . S
C305 H309 0.950 . S
H306 C302 0.950 . S
C307 C305 1.390 . S
C307 C308 1.387 . S
C307 H310 0.950 . S
C308 C307 1.387 . S
C308 C311 1.387 . S
H309 C305 0.950 . S
H310 C307 0.950 . S
C311 C302 1.390 . S
C311 H304 0.950 . S
C311 C308 1.387 . S
C312 C313 1.387 1_554 S
C312 H316 0.950 . S
C312 C321 1.390 . S
C313 C312 1.387 1_556 S
C313 C315 1.387 1_556 S
H314 C321 0.950 . S
C315 C313 1.387 1_554 S
C315 C317 1.390 . S
C315 H319 0.950 1_554 S
H316 C312 0.950 . S
C317 C315 1.390 . S
C317 C318 1.387 . S
C317 H320 0.950 . S
C318 C317 1.387 . S
C318 C321 1.387 . S
H319 C315 0.950 1_556 S
H320 C317 0.950 . S
C321 C312 1.390 . S
C321 H314 0.950 . S
C321 C318 1.387 . S
C322 C323 1.387 . S
C322 H326 0.950 . S
C322 C331 1.390 . S
C323 C322 1.387 . S
C323 C325 1.387 . S
H324 C331 0.950 . S
C325 C323 1.387 . S
C325 C327 1.390 . S
C325 H329 0.950 . S
H326 C322 0.950 . S
C327 C325 1.390 . S
C327 C328 1.387 . S
C327 H330 0.950 . S
C328 C327 1.387 . S
C328 C331 1.387 . S
H329 C325 0.950 . S
H330 C327 0.950 . S
C331 C322 1.390 . S
C331 H324 0.950 . S
C331 C328 1.387 . S
C332 C333 1.387 . S
C332 H336 0.950 . S
C332 C341 1.390 . S
C333 C332 1.387 . S
C333 C335 1.387 . S
H334 C341 0.950 . S
C335 C333 1.387 . S
C335 C337 1.390 . S
C335 H339 0.950 . S
H336 C332 0.950 . S
C337 C335 1.390 . S
C337 C338 1.387 . S
C337 H340 0.950 . S
C338 C337 1.387 . S
C338 C341 1.387 . S
H339 C335 0.950 . S
H340 C337 0.950 . S
C341 C332 1.390 . S
C341 H334 0.950 . S
C341 C338 1.387 . S
C342 C343 1.387 . S
C342 H346 0.950 . S
C342 C351 1.390 . S
C343 C342 1.387 . S
C343 C345 1.387 . S
H344 C351 0.950 . S
C345 C343 1.387 . S
C345 C347 1.390 . S
C345 H349 0.950 . S
H346 C342 0.950 . S
C347 C345 1.390 . S
C347 C348 1.387 . S
C347 H350 0.950 . S
C348 C347 1.387 . S
C348 C351 1.387 . S
H349 C345 0.950 . S
H350 C347 0.950 . S
C351 C342 1.390 . S
C351 H344 0.950 . S
C351 C348 1.387 . S
C352 C353 1.387 . S
C352 H356 0.950 . S
C352 C361 1.390 . S
C353 C352 1.387 . S
C353 C355 1.387 . S
H354 C361 0.950 . S
C355 C353 1.387 . S
C355 C357 1.390 . S
C355 H359 0.950 . S
H356 C352 0.950 . S
C357 C355 1.390 . S
C357 C358 1.387 . S
C357 H360 0.950 . S
C358 C357 1.387 . S
C358 C361 1.387 . S
H359 C355 0.950 . S
H360 C357 0.950 . S
C361 C352 1.390 . S
C361 H354 0.950 . S
C361 C358 1.387 . S
C362 C363 1.387 . S
C362 H366 0.950 . S
C362 C371 1.390 . S
C363 C362 1.387 . S
C363 C365 1.387 . S
H364 C371 0.950 . S
C365 C363 1.387 . S
C365 C367 1.390 . S
C365 H369 0.950 . S
H366 C362 0.950 . S
C367 C365 1.390 . S
C367 C368 1.387 . S
C367 H370 0.950 . S
C368 C367 1.387 . S
C368 C371 1.387 . S
H369 C365 0.950 . S
H370 C367 0.950 . S
C371 C362 1.390 . S
C371 H364 0.950 . S
C371 C368 1.387 . S
C372 C373 1.387 . S
C372 H376 0.950 . S
C372 C381 1.390 . S
C373 C372 1.387 . S
C373 C375 1.387 . S
H374 C381 0.950 . S
C375 C373 1.387 . S
C375 C377 1.390 . S
C375 H379 0.950 . S
H376 C372 0.950 . S
C377 C375 1.390 . S
C377 C378 1.387 . S
C377 H380 0.950 . S
C378 C377 1.387 . S
C378 C381 1.387 . S
H379 C375 0.950 . S
H380 C377 0.950 . S
C381 C372 1.390 . S
C381 H374 0.950 . S
C381 C378 1.387 . S
C382 C383 1.387 . S
C382 H386 0.950 . S
C382 C391 1.390 . S
C383 C382 1.387 . S
C383 C385 1.387 . S
H384 C391 0.950 . S
C385 C383 1.387 . S
C385 C387 1.390 . S
C385 H389 0.950 . S
H386 C382 0.950 . S
C387 C385 1.390 . S
C387 C388 1.387 . S
C387 H390 0.950 . S
C388 C387 1.387 . S
C388 C391 1.387 . S
H389 C385 0.950 . S
H390 C387 0.950 . S
C391 C382 1.390 . S
C391 H384 0.950 . S
C391 C388 1.387 . S
C392 C393 1.387 . S
C392 H396 0.950 . S
C392 C401 1.390 . S
C393 C392 1.387 . S
C393 C395 1.387 . S
H394 C401 0.950 . S
C395 C393 1.387 . S
C395 C397 1.390 . S
C395 H399 0.950 . S
H396 C392 0.950 . S
C397 C395 1.390 . S
C397 C398 1.387 . S
C397 H400 0.950 . S
C398 C397 1.387 . S
C398 C401 1.387 . S
H399 C395 0.950 . S
H400 C397 0.950 . S
C401 C392 1.390 . S
C401 H394 0.950 . S
C401 C398 1.387 . S
C402 C403 1.387 . S
C402 H406 0.950 . S
C402 C411 1.390 . S
C403 C402 1.387 . S
C403 C405 1.387 . S
H404 C411 0.950 . S
C405 C403 1.387 . S
C405 C407 1.390 . S
C405 H409 0.950 . S
H406 C402 0.950 . S
C407 C405 1.390 . S
C407 C408 1.387 . S
C407 H410 0.950 . S
C408 C407 1.387 . S
C408 C411 1.387 . S
H409 C405 0.950 . S
H410 C407 0.950 . S
C411 C402 1.390 . S
C411 H404 0.950 . S
C411 C408 1.387 . S
C173 C71 1.446 . S
C178 C104 1.407 1_565 S
C188 C112 1.313 . S
C183 C81 1.393 . S
C198 C116 1.401 . S
C193 C49 1.447 . S
C203 C59 1.393 . S
C208 C92 1.309 1_565 S
C218 C133 1.383 1_545 S
C213 C27 1.425 . S
C228 C167 1.430 . S
C223 C38 1.466 . S
C233 C5 1.426 . S
C238 C155 1.372 . S
C243 C16 1.465 . S
C248 C137 1.420 1_545 S
C258 C91 1.300 . S
C253 C15 1.443 1_554 S
C268 C125 1.320 . S
C263 C4 1.467 . S
C278 C129 1.298 . S
C273 C37 1.442 1_556 S
C288 C107 1.317 . S
C283 C26 1.466 . S
C298 C146 1.389 . S
C293 C60 1.498 1_556 S
C303 C48 1.506 . S
C308 C154 1.369 . S
C318 C170 1.386 . S
C313 C82 1.498 . S
C323 C70 1.504 . S
C328 C150 1.364 . S
C338 C95 1.335 . S
C333 C10 1.486 . S
C348 C113 1.371 . S
C343 C21 1.529 . S
C353 C32 1.483 . S
C358 C128 1.338 . S
C368 C108 1.376 . S
C363 C43 1.527 . S
C378 C134 1.374 . S
C373 C54 1.553 . S
C383 C65 1.515 . S
C388 C158 1.336 . S
C393 C76 1.550 . S
C398 C171 1.383 . S
C403 C87 1.508 . S
C408 C149 1.338 . S
