# Generated by pormake.
# Topology zzz, (3,6)-cn, num edge types: 1
# Building blocks:
#     Node 0, Type 0, BuildingBlock: KAKCAD_clean_linker_0, # of connection points: 3
#     Node 1, Type 0, BuildingBlock: KAKCAD_clean_linker_0, # of connection points: 3
#     Node 2, Type 0, BuildingBlock: KAKCAD_clean_linker_0, # of connection points: 3
#     Node 3, Type 0, BuildingBlock: KAKCAD_clean_linker_0, # of connection points: 3
#     Node 4, Type 0, BuildingBlock: KAKCAD_clean_linker_0, # of connection points: 3
#     Node 5, Type 0, BuildingBlock: KAKCAD_clean_linker_0, # of connection points: 3
#     Node 6, Type 0, BuildingBlock: KAKCAD_clean_linker_0, # of connection points: 3
#     Node 7, Type 0, BuildingBlock: KAKCAD_clean_linker_0, # of connection points: 3
#     Node 8, Type 1, BuildingBlock: CUKXOW_clean_sbu_0, # of connection points: 6
#     Node 9, Type 1, BuildingBlock: CUKXOW_clean_sbu_0, # of connection points: 6
#     Node 10, Type 1, BuildingBlock: CUKXOW_clean_sbu_0, # of connection points: 6
#     Node 11, Type 1, BuildingBlock: CUKXOW_clean_sbu_0, # of connection points: 6
#     Edge 12, Type (0, 1), BuildingBlock: AJUNOK_clean_linker_0, # of connection points: 2
#     Edge 13, Type (0, 1), BuildingBlock: AJUNOK_clean_linker_0, # of connection points: 2
#     Edge 14, Type (0, 1), BuildingBlock: AJUNOK_clean_linker_0, # of connection points: 2
#     Edge 15, Type (0, 1), BuildingBlock: AJUNOK_clean_linker_0, # of connection points: 2
#     Edge 16, Type (0, 1), BuildingBlock: AJUNOK_clean_linker_0, # of connection points: 2
#     Edge 17, Type (0, 1), BuildingBlock: AJUNOK_clean_linker_0, # of connection points: 2
#     Edge 18, Type (0, 1), BuildingBlock: AJUNOK_clean_linker_0, # of connection points: 2
#     Edge 19, Type (0, 1), BuildingBlock: AJUNOK_clean_linker_0, # of connection points: 2
#     Edge 20, Type (0, 1), BuildingBlock: AJUNOK_clean_linker_0, # of connection points: 2
#     Edge 21, Type (0, 1), BuildingBlock: AJUNOK_clean_linker_0, # of connection points: 2
#     Edge 22, Type (0, 1), BuildingBlock: AJUNOK_clean_linker_0, # of connection points: 2
#     Edge 23, Type (0, 1), BuildingBlock: AJUNOK_clean_linker_0, # of connection points: 2
#     Edge 24, Type (0, 1), BuildingBlock: AJUNOK_clean_linker_0, # of connection points: 2
#     Edge 25, Type (0, 1), BuildingBlock: AJUNOK_clean_linker_0, # of connection points: 2
#     Edge 26, Type (0, 1), BuildingBlock: AJUNOK_clean_linker_0, # of connection points: 2
#     Edge 27, Type (0, 1), BuildingBlock: AJUNOK_clean_linker_0, # of connection points: 2
#     Edge 28, Type (0, 1), BuildingBlock: AJUNOK_clean_linker_0, # of connection points: 2
#     Edge 29, Type (0, 1), BuildingBlock: AJUNOK_clean_linker_0, # of connection points: 2
#     Edge 30, Type (0, 1), BuildingBlock: AJUNOK_clean_linker_0, # of connection points: 2
#     Edge 31, Type (0, 1), BuildingBlock: AJUNOK_clean_linker_0, # of connection points: 2
#     Edge 32, Type (0, 1), BuildingBlock: AJUNOK_clean_linker_0, # of connection points: 2
#     Edge 33, Type (0, 1), BuildingBlock: AJUNOK_clean_linker_0, # of connection points: 2
#     Edge 34, Type (0, 1), BuildingBlock: AJUNOK_clean_linker_0, # of connection points: 2
#     Edge 35, Type (0, 1), BuildingBlock: AJUNOK_clean_linker_0, # of connection points: 2
# Relax obj value: 0.209
# Max RMSD: 0.228
# Mean RMSD: 0.185
data_MOF--net-zzz--node1-CUKXOW_clean_sbu_0--node2-KAKCAD_clean_linker_0--edge1-AJUNOK_clean_linker_0
_symmetry_space_group_name_H-M    P1
_symmetry_Int_Tables_number       1
_symmetry_cell_setting            triclinic
loop_
_symmetry_equiv_pos_as_xyz
'x, y, z'
_cell_length_a     45.833671
_cell_length_b     45.49193
_cell_length_c     16.323477
_cell_angle_alpha  92.96441
_cell_angle_beta   87.870708
_cell_angle_gamma 95.602217
loop_
_atom_site_label
_atom_site_type_symbol
_atom_site_fract_x
_atom_site_fract_y
_atom_site_fract_z
_atom_type_partial_charge
C0 C 0.85511 0.48487 0.91758 0.0
C1 C 0.8727 0.46142 0.92138 0.0
C2 C 0.82714 0.48307 0.95511 0.0
C3 C 0.8167 0.45798 0.99781 0.0
C4 C 0.8336 0.43382 0.99709 0.0
C5 C 0.86135 0.43543 0.95841 0.0
C6 C 0.79154 0.4595 0.05624 0.0
C7 C 0.76354 0.4637 0.03064 0.0
C8 C 0.74048 0.46765 0.08858 0.0
C9 C 0.74633 0.46874 0.17332 0.0
C10 C 0.77452 0.46417 0.19894 0.0
C11 C 0.79666 0.45928 0.13984 0.0
C12 C 0.78306 0.46642 0.28593 0.0
C13 C 0.78478 0.49396 0.32927 0.0
C14 C 0.7975 0.44354 0.31612 0.0
C15 C 0.81628 0.4491 0.38178 0.0
C16 C 0.82091 0.47766 0.41892 0.0
C17 C 0.71062 0.47038 0.05855 0.0
C18 C 0.69403 0.49335 0.08797 0.0
C19 C 0.6994 0.45081 0.99531 0.0
C20 C 0.67269 0.45452 0.96065 0.0
C21 C 0.65639 0.47788 0.98837 0.0
C22 C 0.66725 0.49721 0.0527 0.0
C23 C 0.80345 0.49949 0.39569 0.0
H24 H 0.86361 0.50509 0.88911 0.0
H25 H 0.8146 0.50209 0.95605 0.0
H26 H 0.82599 0.41441 0.03049 0.0
H27 H 0.87471 0.41719 0.9621 0.0
H28 H 0.7598 0.46411 0.96553 0.0
H29 H 0.81867 0.45682 0.15918 0.0
H30 H 0.72906 0.47247 0.21872 0.0
H31 H 0.77402 0.51202 0.30701 0.0
H32 H 0.79661 0.42213 0.28348 0.0
H33 H 0.82919 0.43171 0.39821 0.0
H34 H 0.70223 0.5089 0.13617 0.0
H35 H 0.71158 0.43278 0.9716 0.0
H36 H 0.8058 0.52147 0.42491 0.0
H37 H 0.65513 0.51543 0.07518 0.0
H38 H 0.66521 0.43956 0.91032 0.0
C39 C 0.98441 0.83247 0.93437 0.0
C40 C 0.96841 0.85697 0.92854 0.0
C41 C 0.9714 0.80696 0.96994 0.0
C42 C 0.94231 0.80577 0.00094 0.0
C43 C 0.92596 0.82986 0.99193 0.0
C44 C 0.93885 0.85521 0.95535 0.0
C45 C 0.93083 0.78144 0.05314 0.0
C46 C 0.93349 0.75193 0.02804 0.0
C47 C 0.92793 0.72934 0.08383 0.0
C48 C 0.92023 0.73671 0.16619 0.0
C49 C 0.91679 0.76622 0.19083 0.0
C50 C 0.92144 0.78824 0.13367 0.0
C51 C 0.9143 0.77619 0.27774 0.0
C52 C 0.8901 0.791 0.30557 0.0
C53 C 0.93993 0.77962 0.32285 0.0
C54 C 0.94276 0.80065 0.3881 0.0
C55 C 0.91981 0.81825 0.40979 0.0
C56 C 0.93305 0.69873 0.05611 0.0
C57 C 0.92249 0.68703 0.98036 0.0
C58 C 0.9512 0.68241 0.0999 0.0
C59 C 0.9601 0.65573 0.06594 0.0
C60 C 0.95093 0.64501 0.98783 0.0
C61 C 0.9313 0.66042 0.94663 0.0
C62 C 0.89268 0.81155 0.3722 0.0
H63 H 0.00714 0.83333 0.9131 0.0
H64 H 0.98455 0.78879 0.97722 0.0
H65 H 0.90354 0.82944 0.01573 0.0
H66 H 0.92613 0.8739 0.95108 0.0
H67 H 0.9413 0.74677 0.96589 0.0
H68 H 0.92054 0.81122 0.15424 0.0
H69 H 0.91749 0.71981 0.21097 0.0
H70 H 0.87019 0.78875 0.27109 0.0
H71 H 0.95899 0.76871 0.30154 0.0
H72 H 0.96393 0.80508 0.41587 0.0
H73 H 0.90826 0.69907 0.94576 0.0
H74 H 0.95975 0.69101 0.15829 0.0
H75 H 0.87421 0.82391 0.38972 0.0
H76 H 0.92387 0.65263 0.88638 0.0
H77 H 0.97483 0.64394 0.09955 0.0
C78 C 0.64 0.98867 0.9781 0.0
C79 C 0.63861 0.01684 0.9477 0.0
C80 C 0.6647 0.98227 0.01875 0.0
C81 C 0.68868 0.00367 0.02793 0.0
C82 C 0.68822 0.03107 0.99274 0.0
C83 C 0.66333 0.03767 0.95327 0.0
C84 C 0.71133 -0.00024 0.08696 0.0
C85 C 0.74118 0.00284 0.06489 0.0
C86 C 0.76253 0.00272 0.12478 0.0
C87 C 0.75348 0.00042 0.20828 0.0
C88 C 0.72333 0.99816 0.23031 0.0
C89 C 0.70267 0.99676 0.169 0.0
C90 C 0.71173 0.00138 0.31567 0.0
C91 C 0.70681 0.9768 0.36453 0.0
C92 C 0.69719 0.02656 0.33692 0.0
C93 C 0.67553 0.02598 0.39913 0.0
C94 C 0.66835 0.00044 0.44377 0.0
C95 C 0.79396 0.00585 0.09795 0.0
C96 C 0.81277 0.98472 0.11668 0.0
C97 C 0.80432 0.02811 0.04452 0.0
C98 C 0.83221 0.02827 0.00688 0.0
C99 C 0.85035 0.00606 0.02127 0.0
C100 C 0.84072 0.98476 0.07845 0.0
C101 C 0.6857 0.97657 0.42926 0.0
H102 H 0.62176 0.97181 0.97236 0.0
H103 H 0.66464 0.96102 0.04587 0.0
H104 H 0.70634 0.04806 0.00046 0.0
H105 H 0.66296 0.05956 0.93043 0.0
H106 H 0.74774 0.00534 0.00092 0.0
H107 H 0.67947 0.99553 0.18617 0.0
H108 H 0.76963 0.00175 0.25548 0.0
H109 H 0.71759 0.95702 0.34885 0.0
H110 H 0.70031 0.04563 0.29925 0.0
H111 H 0.6629 0.04487 0.40732 0.0
H112 H 0.80531 0.96729 0.15746 0.0
H113 H 0.79034 0.0448 0.02944 0.0
H114 H 0.68203 0.95707 0.46487 0.0
H115 H 0.85448 0.96769 0.09188 0.0
H116 H 0.83901 0.04499 0.96335 0.0
C117 C 0.57595 0.70421 0.44189 0.0
C118 C 0.59966 0.68847 0.46006 0.0
C119 C 0.57842 0.7235 0.37762 0.0
C120 C 0.60453 0.72717 0.3302 0.0
C121 C 0.62922 0.7142 0.35413 0.0
C122 C 0.62694 0.69537 0.41961 0.0
C123 C 0.60288 0.73579 0.24491 0.0
C124 C 0.60087 0.76517 0.2249 0.0
C125 C 0.59484 0.77156 0.14397 0.0
C126 C 0.58956 0.74812 0.08497 0.0
C127 C 0.59091 0.71879 0.10535 0.0
C128 C 0.59849 0.71291 0.18457 0.0
C129 C 0.57998 0.69392 0.04935 0.0
C130 C 0.55149 0.69288 0.0199 0.0
C131 C 0.59613 0.66943 0.03426 0.0
C132 C 0.58351 0.64382 0.9935 0.0
C133 C 0.55425 0.642 0.96906 0.0
C134 C 0.5912 0.80208 0.121 0.0
C135 C 0.5732 0.81998 0.16902 0.0
C136 C 0.6029 0.81208 0.04547 0.0
C137 C 0.59506 0.83832 0.01572 0.0
C138 C 0.5753 0.85509 0.06078 0.0
C139 C 0.56532 0.84629 0.13911 0.0
C140 C 0.5387 0.66711 0.98045 0.0
H141 H 0.55464 0.69951 0.47183 0.0
H142 H 0.55899 0.73294 0.35927 0.0
H143 H 0.64949 0.71658 0.31776 0.0
H144 H 0.64589 0.68439 0.43411 0.0
H145 H 0.60354 0.78277 0.27213 0.0
H146 H 0.59848 0.69015 0.20149 0.0
H147 H 0.58306 0.75256 0.02395 0.0
H148 H 0.53847 0.71137 0.03173 0.0
H149 H 0.61821 0.66984 0.05612 0.0
H150 H 0.59642 0.62519 0.98296 0.0
H151 H 0.56383 0.81281 0.22739 0.0
H152 H 0.61712 0.79888 0.00767 0.0
H153 H 0.51613 0.66642 0.96234 0.0
H154 H 0.55048 0.85914 0.17575 0.0
H155 H 0.60313 0.84457 0.95525 0.0
C156 C 0.17512 0.55407 0.47101 0.0
C157 C 0.14956 0.54387 0.42906 0.0
C158 C 0.20207 0.55909 0.42791 0.0
C159 C 0.20403 0.55341 0.34221 0.0
C160 C 0.17812 0.54348 0.30119 0.0
C161 C 0.15133 0.53984 0.34341 0.0
C162 C 0.23264 0.55637 0.29471 0.0
C163 C 0.25908 0.55101 0.3294 0.0
C164 C 0.2851 0.54964 0.28073 0.0
C165 C 0.28356 0.55076 0.19443 0.0
C166 C 0.2572 0.55659 0.1595 0.0
C167 C 0.23292 0.56155 0.2109 0.0
C168 C 0.25147 0.55244 0.07056 0.0
C169 C 0.23858 0.57469 0.03205 0.0
C170 C 0.24789 0.52342 0.03621 0.0
C171 C 0.22841 0.51609 0.97247 0.0
C172 C 0.21228 0.53768 0.94175 0.0
C173 C 0.31312 0.5462 0.32185 0.0
C174 C 0.31863 0.56069 0.39896 0.0
C175 C 0.33387 0.52781 0.28752 0.0
C176 C 0.35886 0.52325 0.33081 0.0
C177 C 0.36335 0.53679 0.40923 0.0
C178 C 0.34325 0.55581 0.44233 0.0
C179 C 0.21897 0.56736 0.9688 0.0
H180 H 0.17438 0.55769 0.53707 0.0
H181 H 0.22126 0.5672 0.46199 0.0
H182 H 0.17819 0.5377 0.23611 0.0
H183 H 0.13194 0.53334 0.3084 0.0
H184 H 0.25932 0.5467 0.39394 0.0
H185 H 0.21317 0.56713 0.18338 0.0
H186 H 0.30256 0.54748 0.15484 0.0
H187 H 0.24062 0.59716 0.05811 0.0
H188 H 0.25722 0.50576 0.06524 0.0
H189 H 0.22409 0.49308 0.95215 0.0
H190 H 0.30366 0.57563 0.42657 0.0
H191 H 0.33037 0.51616 0.22866 0.0
H192 H 0.20682 0.58459 0.94758 0.0
H193 H 0.34647 0.56672 0.50237 0.0
H194 H 0.37418 0.50845 0.30427 0.0
C195 C 0.04116 0.16801 0.5045 0.0
C196 C 0.05676 0.14335 0.51341 0.0
C197 C 0.05443 0.19277 0.46607 0.0
C198 C 0.08343 0.19318 0.43482 0.0
C199 C 0.09961 0.16929 0.44795 0.0
C200 C 0.08641 0.14462 0.48726 0.0
C201 C 0.0947 0.2161 0.37762 0.0
C202 C 0.09031 0.24574 0.39532 0.0
C203 C 0.09479 0.26647 0.33435 0.0
C204 C 0.1044 0.25753 0.25493 0.0
C205 C 0.10901 0.22769 0.2363 0.0
C206 C 0.10469 0.20742 0.29888 0.0
C207 C 0.11225 0.2157 0.15026 0.0
C208 C 0.09344 0.22336 0.09039 0.0
C209 C 0.12887 0.19159 0.1328 0.0
C210 C 0.12344 0.17291 0.06337 0.0
C211 C 0.10193 0.17849 0.0085 0.0
C212 C 0.08528 0.2962 0.3527 0.0
C213 C 0.10546 0.32145 0.35375 0.0
C214 C 0.05607 0.29877 0.37863 0.0
C215 C 0.04737 0.32585 0.40873 0.0
C216 C 0.06771 0.35096 0.41347 0.0
C217 C 0.09676 0.34869 0.38453 0.0
C218 C 0.08849 0.205 0.01988 0.0
H219 H 0.0181 0.16745 0.5221 0.0
H220 H 0.04127 0.21064 0.45539 0.0
H221 H 0.12202 0.16914 0.42445 0.0
H222 H 0.09897 0.12597 0.49386 0.0
H223 H 0.08188 0.25244 0.4557 0.0
H224 H 0.10606 0.18407 0.28419 0.0
H225 H 0.10654 0.27329 0.20698 0.0
H226 H 0.08032 0.24178 0.10157 0.0
H227 H 0.14394 0.18544 0.17709 0.0
H228 H 0.13409 0.15266 0.05748 0.0
H229 H 0.12814 0.3198 0.33454 0.0
H230 H 0.0402 0.27947 0.37855 0.0
H231 H 0.07223 0.21026 0.97783 0.0
H232 H 0.11284 0.36778 0.38775 0.0
H233 H 0.02502 0.3268 0.43204 0.0
C234 C 0.34415 0.95545 0.46614 0.0
C235 C 0.3718 0.96982 0.44497 0.0
C236 C 0.31974 0.95853 0.41908 0.0
C237 C 0.32252 0.97643 0.35099 0.0
C238 C 0.35005 0.99148 0.3321 0.0
C239 C 0.37436 0.98779 0.37733 0.0
C240 C 0.29737 0.97964 0.29809 0.0
C241 C 0.26882 0.98174 0.33053 0.0
C242 C 0.24611 0.98821 0.28008 0.0
C243 C 0.25274 0.99387 0.19663 0.0
C244 C 0.28121 0.99105 0.1639 0.0
C245 C 0.30269 0.98278 0.21404 0.0
C246 C 0.29139 -0.00063 0.08067 0.0
C247 C 0.29687 0.97675 0.02184 0.0
C248 C 0.30666 0.02747 0.07324 0.0
C249 C 0.32962 0.0318 0.01495 0.0
C250 C 0.33718 0.00826 0.96197 0.0
C251 C 0.21597 0.98963 0.31675 0.0
C252 C 0.20437 0.9681 0.37099 0.0
C253 C 0.19923 0.01302 0.30192 0.0
C254 C 0.172 0.01533 0.34283 0.0
C255 C 0.16092 0.99422 0.39901 0.0
C256 C 0.17722 0.97034 0.41143 0.0
C257 C 0.31954 0.98123 0.96249 0.0
H258 H 0.34125 0.94215 0.51948 0.0
H259 H 0.29887 0.9467 0.43557 0.0
H260 H 0.35299 0.00634 0.28209 0.0
H261 H 0.39528 -0.00082 0.35912 0.0
H262 H 0.26444 0.97949 0.3957 0.0
H263 H 0.32438 0.98018 0.1873 0.0
H264 H 0.23601 0.00013 0.15755 0.0
H265 H 0.286 0.95468 0.02777 0.0
H266 H 0.30338 0.04501 0.11918 0.0
H267 H 0.34293 0.05284 0.01556 0.0
H268 H 0.21651 0.94959 0.38297 0.0
H269 H 0.20757 0.03001 0.26071 0.0
H270 H 0.32511 0.9627 0.92254 0.0
H271 H 0.16931 0.95372 0.45424 0.0
H272 H 0.15969 0.03372 0.3309 0.0
C273 C 0.39046 0.31191 0.97144 0.0
C274 C 0.41733 0.31972 0.92997 0.0
C275 C 0.38916 0.29262 0.03576 0.0
C276 C 0.41451 0.28032 0.05779 0.0
C277 C 0.43993 0.28423 0.00746 0.0
C278 C 0.44141 0.30394 0.94422 0.0
C279 C 0.41815 0.27439 0.14458 0.0
C280 C 0.42451 0.24671 0.16996 0.0
C281 C 0.43383 0.24406 0.25037 0.0
C282 C 0.43724 0.26937 0.30381 0.0
C283 C 0.43189 0.29712 0.27783 0.0
C284 C 0.42111 0.29912 0.1995 0.0
C285 C 0.44179 0.32442 0.32677 0.0
C286 C 0.43767 0.32644 0.41262 0.0
C287 C 0.45744 0.34811 0.2873 0.0
C288 C 0.46883 0.37313 0.33234 0.0
C289 C 0.46508 0.37502 0.418 0.0
C290 C 0.44222 0.2157 0.27861 0.0
C291 C 0.42318 0.1896 0.27142 0.0
C292 C 0.46842 0.21542 0.32054 0.0
C293 C 0.47449 0.19032 0.35954 0.0
C294 C 0.4547 0.16481 0.35671 0.0
C295 C 0.4294 0.16425 0.31035 0.0
C296 C 0.44921 0.3516 0.45793 0.0
H297 H 0.37123 0.32293 0.95976 0.0
H298 H 0.36935 0.29003 0.07409 0.0
H299 H 0.45985 0.27526 0.02392 0.0
H300 H 0.46238 0.30924 0.913 0.0
H301 H 0.42343 0.22778 0.12666 0.0
H302 H 0.41716 0.3206 0.17859 0.0
H303 H 0.44555 0.26767 0.36452 0.0
H304 H 0.42561 0.30859 0.44462 0.0
H305 H 0.46173 0.34701 0.22157 0.0
H306 H 0.48126 0.39075 0.30023 0.0
H307 H 0.40284 0.18927 0.2395 0.0
H308 H 0.4838 0.23504 0.3256 0.0
H309 H 0.44571 0.35279 0.52397 0.0
H310 H 0.4138 0.14476 0.30763 0.0
H311 H 0.49432 0.1911 0.39407 0.0
Tb312 Tb 0.98848 0.97759 0.64789 0.0
C313 C 0.05396 -0.00027 0.60365 0.0
Tb314 Tb 0.02173 0.02466 0.766 0.0
O315 O 0.991 0.009 0.55009 0.0
O316 O 0.99081 0.02365 0.67289 0.0
O317 O 0.03289 0.97763 0.5952 0.0
C318 C 0.04912 0.07476 0.82903 0.0
O319 O 0.0522 0.02185 0.65966 0.0
C320 C 0.01736 0.97029 0.81429 0.0
C321 C 0.95589 0.00355 0.80985 0.0
O322 O 0.06146 0.05069 0.81012 0.0
O323 O 0.02143 0.07027 0.81414 0.0
O324 O 0.02292 0.9933 0.86387 0.0
O325 O 0.01881 0.97868 0.74192 0.0
O326 O 0.97775 0.02463 0.82154 0.0
O327 O 0.95647 0.9826 0.74996 0.0
C328 C 0.96205 0.92798 0.57981 0.0
O329 O 0.95204 0.95377 0.58134 0.0
O330 O 0.98707 0.93025 0.61527 0.0
C331 C 0.99389 0.03208 0.60066 0.0
Tb332 Tb 0.49942 0.03289 0.66323 0.0
C333 C 0.55658 0.00016 0.62651 0.0
Tb334 Tb 0.50894 0.97855 0.76427 0.0
O335 O 0.53524 0.05942 0.72505 0.0
O336 O 0.51172 0.02496 0.7834 0.0
O337 O 0.53941 0.01964 0.60161 0.0
C338 C 0.52885 0.9429 0.8702 0.0
O339 O 0.54949 0.9826 0.6883 0.0
C340 C 0.47517 0.96606 0.63832 0.0
C341 C 0.45192 0.01017 0.79608 0.0
O342 O 0.54466 0.96347 0.8321 0.0
O343 O 0.50191 0.94234 0.84817 0.0
O344 O 0.47607 0.94878 0.69879 0.0
O345 O 0.49592 0.98626 0.64545 0.0
O346 O 0.47268 0.99753 0.83242 0.0
O347 O 0.45656 0.02215 0.72378 0.0
C348 C 0.48233 0.07239 0.56416 0.0
O349 O 0.48062 0.07427 0.64383 0.0
O350 O 0.49392 0.04837 0.54007 0.0
C351 C 0.53396 0.04336 0.78872 0.0
Tb352 Tb 0.52633 0.53187 0.66345 0.0
C353 C 0.46065 0.51715 0.61318 0.0
Tb354 Tb 0.48857 0.48147 0.75015 0.0
O355 O 0.52403 0.50588 0.54721 0.0
O356 O 0.52217 0.48521 0.65852 0.0
O357 O 0.48378 0.53727 0.61345 0.0
C358 C 0.45705 0.43113 0.78855 0.0
O359 O 0.45902 0.49305 0.65674 0.0
C360 C 0.49533 0.53272 0.83141 0.0
C361 C 0.55405 0.49596 0.80038 0.0
O362 O 0.45322 0.45727 0.82052 0.0
O363 O 0.47859 0.43347 0.7348 0.0
O364 O 0.4911 0.50759 0.86658 0.0
O365 O 0.49286 0.5281 0.75525 0.0
O366 O 0.53139 0.47538 0.79625 0.0
O367 O 0.5552 0.5208 0.75991 0.0
C368 C 0.55846 0.58136 0.6214 0.0
O369 O 0.56382 0.55464 0.59819 0.0
O370 O 0.53505 0.58013 0.66876 0.0
C371 C 0.52001 0.48076 0.58223 0.0
Tb372 Tb 0.98514 0.49947 0.64734 0.0
C373 C 0.02946 0.45222 0.60526 0.0
Tb374 Tb 0.04253 0.50286 0.74662 0.0
O375 O 0.01091 0.51097 0.5366 0.0
O376 O 0.02591 0.52566 0.65182 0.0
O377 O 1.0017 0.45828 0.60265 0.0
C378 C 0.09842 0.51066 0.79336 0.0
O379 O 0.04922 0.46805 0.65157 0.0
C380 C 0.9949 0.477 0.81608 0.0
C381 C 0.99664 0.54797 0.7939 0.0
O382 O 0.07866 0.49027 0.81806 0.0
O383 O 0.0866 0.52663 0.74243 0.0
O384 O 0.01654 0.49033 0.85728 0.0
O385 O 1.00209 0.4766 0.74108 0.0
O386 O 0.02476 0.5431 0.79458 0.0
O387 O 0.97725 0.53169 0.74776 0.0
C388 C 0.93058 0.4965 0.59152 0.0
O389 O 0.95125 0.5176 0.57967 0.0
O390 O 0.94068 0.47689 0.63527 0.0
C391 C 0.03273 0.52442 0.57641 0.0
C392 C 0.11179 0.9725 0.45201 0.0
C393 C 0.13284 0.99707 0.44659 0.0
C394 C 0.08619 0.9738 0.50145 0.0
C395 C 0.08063 -0.00036 0.54841 0.0
H396 H 0.11526 0.95196 0.41814 0.0
H397 H 0.07096 0.95408 0.50401 0.0
S398 S 0.12858 0.07049 0.55415 0.0
N399 N 0.14623 0.04824 0.49119 0.0
N400 N 0.09817 0.05088 0.5837 0.0
C401 C 0.10128 0.02462 0.54222 0.0
C402 C 0.1273 0.0233 0.4914 0.0
C403 C 0.46323 0.14563 0.49288 0.0
C404 C 0.45969 0.14005 0.4081 0.0
C405 C 0.46981 0.12332 0.54311 0.0
C406 C 0.47357 0.09477 0.51013 0.0
H407 H 0.46109 0.16753 0.52048 0.0
H408 H 0.47268 0.12873 0.60792 0.0
S409 S 0.46527 0.06847 0.29254 0.0
N410 N 0.45918 0.1037 0.29375 0.0
N411 N 0.47206 0.06166 0.38811 0.0
C412 C 0.46951 0.08868 0.42573 0.0
C413 C 0.46238 0.11136 0.37469 0.0
C414 C 0.41701 0.54153 0.43857 0.0
C415 C 0.38815 0.53033 0.459 0.0
C416 C 0.44033 0.5374 0.48915 0.0
C417 C 0.43563 0.52152 0.56116 0.0
H418 H 0.42147 0.55405 0.38407 0.0
H419 H 0.46222 0.54653 0.47131 0.0
S420 S 0.36383 0.48741 0.64015 0.0
N421 N 0.35599 0.50274 0.55513 0.0
N422 N 0.39964 0.49438 0.64932 0.0
C423 C 0.40681 0.50983 0.5812 0.0
C424 C 0.38312 0.51443 0.53039 0.0
C425 C 0.07547 0.39174 0.52115 0.0
C426 C 0.059 0.37851 0.45581 0.0
C427 C 0.06578 0.41559 0.5689 0.0
C428 C 0.03917 0.42704 0.5533 0.0
H429 H 0.09553 0.38297 0.5373 0.0
H430 H 0.07903 0.4247 0.61939 0.0
S431 S 0.98985 0.40232 0.38237 0.0
N432 N 0.01626 0.38005 0.37314 0.0
N433 N 0.99779 0.42474 0.46289 0.0
C434 C 0.02301 0.4146 0.48613 0.0
C435 C 0.033 0.3904 0.43738 0.0
C436 C 0.89819 0.02963 0.96396 0.0
C437 C 0.87825 0.0043 0.97217 0.0
C438 C 0.92342 0.02908 0.91252 0.0
C439 C 0.92953 0.00329 0.86615 0.0
H440 H 0.89412 0.05014 0.99719 0.0
H441 H 0.9379 0.04926 0.90786 0.0
S442 S 0.88453 0.93073 0.86725 0.0
N443 N 0.86653 0.95256 0.93057 0.0
N444 N 0.91381 0.95137 0.83439 0.0
C445 C 0.90995 0.97765 0.87486 0.0
C446 C 0.88441 0.97818 0.92776 0.0
C447 C 0.58177 0.90111 0.98109 0.0
C448 C 0.56304 0.87974 0.02168 0.0
C449 C 0.57046 0.92211 0.93426 0.0
C450 C 0.54007 0.92236 0.92592 0.0
H451 H 0.60535 0.90113 0.98399 0.0
H452 H 0.58565 0.93762 0.90215 0.0
S453 S 0.48168 0.87183 0.0218 0.0
N454 N 0.51258 0.86062 0.05184 0.0
N455 N 0.4914 0.90028 0.96466 0.0
C456 C 0.52109 0.90178 0.96824 0.0
C457 C 0.53257 0.88045 0.01603 0.0
C458 C 0.62526 0.51032 0.91626 0.0
C459 C 0.62892 0.48263 0.94693 0.0
C460 C 0.60095 0.51446 0.86962 0.0
C461 C 0.57917 0.4911 0.85213 0.0
H462 H 0.64179 0.52875 0.92625 0.0
H463 H 0.5994 0.53615 0.84669 0.0
S464 S 0.57738 0.41478 0.92489 0.0
N465 N 0.60789 0.43201 0.9614 0.0
N466 N 0.56235 0.43949 0.8738 0.0
C467 C 0.58214 0.46351 0.88505 0.0
C468 C 0.60695 0.45934 0.93225 0.0
C469 C 0.94432 0.59668 0.90774 0.0
C470 C 0.96315 0.61905 0.9459 0.0
C471 C 0.95541 0.57367 0.8598 0.0
C472 C 0.98586 0.57212 0.84789 0.0
H473 H 0.92072 0.5972 0.91412 0.0
H474 H 0.93988 0.55709 0.83157 0.0
S475 S 0.04451 0.62538 0.93552 0.0
N476 N 0.01364 0.63833 0.96939 0.0
N477 N 0.03468 0.5949 0.88003 0.0
C478 C 0.00496 0.59402 0.88749 0.0
C479 C 0.99359 0.6175 0.93632 0.0
C480 C 0.04447 0.08899 0.49195 0.0
C481 C 0.04116 0.11517 0.53977 0.0
C482 C 0.0284 0.06235 0.51083 0.0
C483 C 0.00862 0.06087 0.57857 0.0
H484 H 0.05921 0.08915 0.43848 0.0
H485 H 0.03192 0.04267 0.47289 0.0
S486 S 0.99109 0.12302 0.72175 0.0
N487 N 0.01643 0.13789 0.65773 0.0
N488 N 0.98549 0.08776 0.69149 0.0
C489 C 0.00482 0.08679 0.62648 0.0
C490 C 0.02127 0.11397 0.60751 0.0
C491 C 0.41694 0.99325 0.51141 0.0
C492 C 0.39802 0.96761 0.49428 0.0
C493 C 0.44229 0.99219 0.55533 0.0
C494 C 0.44971 0.96577 0.58541 0.0
H495 H 0.41189 0.01458 0.4922 0.0
H496 H 0.45527 0.01253 0.56928 0.0
S497 S 0.40835 0.892 0.55578 0.0
N498 N 0.38913 0.91445 0.50826 0.0
N499 N 0.4365 0.91297 0.59438 0.0
C500 C 0.4311 0.93986 0.56917 0.0
C501 C 0.40532 0.94071 0.52301 0.0
C502 C 0.47374 0.42978 0.43875 0.0
C503 C 0.47817 0.40154 0.46436 0.0
C504 C 0.48766 0.4553 0.47689 0.0
C505 C 0.50635 0.45347 0.54226 0.0
H506 H 0.45946 0.43213 0.38854 0.0
H507 H 0.48349 0.47662 0.45557 0.0
S508 S 0.52649 0.38503 0.62996 0.0
N509 N 0.50332 0.37326 0.55751 0.0
N510 N 0.52954 0.4215 0.6294 0.0
C511 C 0.51106 0.4255 0.56858 0.0
C512 C 0.49687 0.39944 0.52974 0.0
C513 C 0.11102 0.55666 0.53539 0.0
C514 C 0.12087 0.53714 0.47285 0.0
C515 C 0.08252 0.55218 0.5701 0.0
C516 C 0.06287 0.5285 0.54194 0.0
H517 H 0.12504 0.57599 0.55586 0.0
H518 H 0.07553 0.56781 0.61743 0.0
S519 S 0.07896 0.46906 0.38757 0.0
N520 N 0.10981 0.4909 0.39299 0.0
N521 N 0.05558 0.48442 0.45175 0.0
C522 C 0.07265 0.50849 0.48115 0.0
C523 C 0.10186 0.51227 0.44846 0.0
C524 C 0.97043 0.89744 0.83135 0.0
C525 C 0.98259 0.88483 0.89708 0.0
C526 C 0.98232 0.92472 0.80367 0.0
C527 C 0.00662 0.94053 0.8407 0.0
H528 H 0.95131 0.88632 0.80186 0.0
H529 H 0.97139 0.93388 0.75551 0.0
S530 S 0.04605 0.91729 0.01678 0.0
N531 N 0.02008 0.89005 -0.00028 0.0
N532 N 0.04224 0.94177 0.94755 0.0
C533 C 0.01895 0.92819 0.90677 0.0
C534 C 0.00707 0.90015 0.93467 0.0
C535 C 0.61324 0.04047 0.83899 0.0
C536 C 0.61139 0.02477 0.91127 0.0
C537 C 0.588 0.04783 0.80247 0.0
C538 C 0.55994 0.0391 0.83549 0.0
H539 H 0.63432 0.04663 0.8093 0.0
H540 H 0.59051 0.05966 0.7465 0.0
S541 S 0.54299 0.00153 0.02986 0.0
N542 N 0.57913 0.0039 0.01997 0.0
N543 N 0.5316 0.01677 0.94861 0.0
C544 C 0.55767 0.0246 0.90947 0.0
C545 C 0.58341 0.01749 0.94771 0.0
C546 C 0.52159 0.61362 0.86668 0.0
C547 C 0.53938 0.61373 0.93519 0.0
C548 C 0.50673 0.58736 0.83499 0.0
C549 C 0.50931 0.56025 0.8701 0.0
H550 H 0.51933 0.63396 0.83678 0.0
H551 H 0.49324 0.58826 0.78223 0.0
S552 S 0.55193 0.54847 0.05231 0.0
N553 N 0.55745 0.58438 0.03966 0.0
N554 N 0.53025 0.53496 0.97814 0.0
C555 C 0.52655 0.55999 0.93932 0.0
C556 C 0.54156 0.58673 0.97202 0.0
C557 C 0.9148 0.44785 0.83019 0.0
C558 C 0.90394 0.46532 0.89561 0.0
C559 C 0.94456 0.45135 0.80599 0.0
C560 C 0.96437 0.472 0.84746 0.0
H561 H 0.90012 0.43173 0.79696 0.0
H562 H 0.95212 0.43791 0.75422 0.0
S563 S 0.94678 0.52183 0.02569 0.0
N564 N 0.91509 0.50327 0.00301 0.0
N565 N 0.97118 0.50937 0.95893 0.0
C566 C 0.95386 0.48895 0.91454 0.0
C567 C 0.92353 0.48578 0.93811 0.0
C568 C 0.05884 0.14818 0.9483 0.0
C569 C 0.08954 0.15439 0.95086 0.0
C570 C 0.04609 0.12286 0.90627 0.0
C571 C 0.06348 0.10244 0.86613 0.0
H572 H 0.0444 0.16218 0.98244 0.0
H573 H 0.0224 0.11867 0.90821 0.0
S574 S 0.14458 0.11016 0.84344 0.0
N575 N 0.13687 0.13959 0.90073 0.0
N576 N 0.11274 0.09132 0.82391 0.0
C577 C 0.09408 0.1089 0.86447 0.0
C578 C 0.10714 0.13501 0.90636 0.0
C579 C 0.3919 0.01475 0.96185 0.0
C580 C 0.36601 0.01026 0.91717 0.0
C581 C 0.41964 0.01458 0.9224 0.0
C582 C 0.42248 0.01061 0.83663 0.0
H583 H 0.39066 0.01771 0.02815 0.0
H584 H 0.43897 0.01776 0.95926 0.0
S585 S 0.3614 0.99769 0.69188 0.0
N586 N 0.34488 0.00119 0.7831 0.0
N587 N 0.39694 0.00183 0.70833 0.0
C588 C 0.39673 0.00645 0.7912 0.0
C589 C 0.3685 0.00598 0.83162 0.0
C590 C 0.43941 0.34879 0.81217 0.0
C591 C 0.42222 0.34765 0.88545 0.0
C592 C 0.44933 0.37592 0.77861 0.0
C593 C 0.44246 0.40288 0.81715 0.0
H594 H 0.44622 0.32864 0.78235 0.0
H595 H 0.46342 0.37579 0.72385 0.0
S596 S 0.39688 0.41219 0.00746 0.0
N597 N 0.39792 0.37611 0.99368 0.0
N598 N 0.41596 0.42679 0.92935 0.0
C599 C 0.42397 0.40204 0.8877 0.0
C600 C 0.414 0.37449 0.92216 0.0
C601 C 0.16498 0.50581 0.92206 0.0
C602 C 0.18524 0.52882 0.89439 0.0
C603 C 0.13738 0.49956 0.88728 0.0
C604 C 0.12875 0.5161 0.82351 0.0
H605 H 0.16992 0.4933 0.97367 0.0
H606 H 0.12234 0.48221 0.91248 0.0
S607 S 0.1745 0.57661 0.72259 0.0
N608 N 0.19545 0.56657 0.79437 0.0
N609 N 0.14343 0.55509 0.72977 0.0
C610 C 0.14913 0.53834 0.79277 0.0
C611 C 0.17735 0.54466 0.82806 0.0
C612 C 0.94386 0.84637 0.52951 0.0
C613 C 0.92609 0.84606 0.46089 0.0
C614 C 0.95475 0.87304 0.56911 0.0
C615 C 0.94787 0.90034 0.54244 0.0
H616 H 0.95026 0.82588 0.55106 0.0
H617 H 0.96912 0.87229 0.62006 0.0
S618 S 0.90169 0.91212 0.36791 0.0
N619 N 0.90199 0.87588 0.36873 0.0
N620 N 0.92141 0.92575 0.44609 0.0
C621 C 0.929 0.90046 0.47687 0.0
C622 C 0.91833 0.87337 0.4354 0.0
C623 C 0.63258 0.02415 0.54116 0.0
C624 C 0.64125 0.99844 0.49864 0.0
C625 C 0.60507 0.02447 0.58147 0.0
C626 C 0.5856 0.99877 0.5849 0.0
H627 H 0.64683 0.04459 0.54173 0.0
H628 H 0.59897 0.0451 0.60985 0.0
S629 S 0.59685 0.92536 0.48723 0.0
N630 N 0.62695 0.94641 0.46226 0.0
N631 N 0.57654 0.94675 0.54523 0.0
C632 C 0.59418 0.97257 0.54663 0.0
C633 C 0.62172 0.97241 0.50224 0.0
C634 C 0.57618 0.66254 0.58162 0.0
C635 C 0.59423 0.66184 0.50994 0.0
C636 C 0.5659 0.63646 0.6201 0.0
C637 C 0.57342 0.60875 0.58857 0.0
H638 H 0.56896 0.68329 0.60625 0.0
H639 H 0.55105 0.63794 0.67307 0.0
S640 S 0.62136 0.5947 0.40554 0.0
N641 N 0.61996 0.63086 0.41091 0.0
N642 N 0.60144 0.5822 0.48491 0.0
C643 C 0.59281 0.60783 0.52003 0.0
C644 C 0.60304 0.63429 0.48031 0.0
C645 C 0.85367 0.4659 0.53132 0.0
C646 C 0.8468 0.48526 0.47166 0.0
C647 C 0.88039 0.4702 0.57201 0.0
C648 C 0.90128 0.494 0.55457 0.0
H649 H 0.8386 0.44681 0.54507 0.0
H650 H 0.88501 0.45431 0.61585 0.0
S651 S 0.89403 0.55138 0.40499 0.0
N652 N 0.8633 0.52937 0.39818 0.0
N653 N 0.91292 0.53775 0.47579 0.0
C654 C 0.89429 0.51411 0.49742 0.0
C655 C 0.86721 0.50969 0.45576 0.0
loop_
_geom_bond_atom_site_label_1
_geom_bond_atom_site_label_2
_geom_bond_distance
_geom_bond_site_symmetry_2
_ccdc_geom_bond_type
C0 C1 1.386 . S
C0 C2 1.397 . S
C0 H24 0.931 . S
C1 C0 1.386 . S
C1 C5 1.397 . S
C2 C0 1.397 . S
C2 C3 1.384 . S
C2 H25 0.930 . S
C3 C2 1.384 . S
C3 C4 1.377 . S
C3 C6 1.481 . S
C4 C3 1.377 . S
C4 C5 1.389 . S
C4 H26 0.929 . S
C5 C1 1.397 . S
C5 C4 1.389 . S
C5 H27 0.931 . S
C6 C3 1.481 . S
C6 C7 1.387 . S
C6 C11 1.390 1_556 S
C7 C6 1.387 . S
C7 C8 1.401 1_556 S
C7 H28 0.930 . S
C8 C7 1.401 1_554 S
C8 C9 1.376 . S
C8 C17 1.511 . S
C9 C8 1.376 . S
C9 C10 1.392 . S
C9 H30 0.931 . S
C10 C9 1.392 . S
C10 C11 1.361 . S
C10 C12 1.500 . S
C11 C6 1.390 1_554 S
C11 C10 1.361 . S
C11 H29 0.931 . S
C12 C10 1.500 . S
C12 C13 1.371 . S
C12 C14 1.365 . S
C13 C12 1.371 . S
C13 C23 1.386 . S
C13 H31 0.931 . S
C14 C12 1.365 . S
C14 C15 1.409 . S
C14 H32 0.929 . S
C15 C14 1.409 . S
C15 C16 1.380 . S
C15 H33 0.930 . S
C16 C15 1.380 . S
C16 C23 1.357 . S
C17 C8 1.511 . S
C17 C18 1.341 1_554 S
C17 C19 1.371 . S
C18 C17 1.341 1_556 S
C18 C22 1.394 . S
C18 H34 0.930 . S
C19 C17 1.371 . S
C19 C20 1.392 . S
C19 H35 0.931 . S
C20 C19 1.392 . S
C20 C21 1.331 1_554 S
C20 H38 0.932 . S
C21 C20 1.331 1_556 S
C21 C22 1.336 . S
C22 C18 1.394 . S
C22 C21 1.336 . S
C22 H37 0.929 . S
C23 C13 1.386 . S
C23 C16 1.357 . S
C23 H36 0.928 . S
H24 C0 0.931 . S
H25 C2 0.930 . S
H26 C4 0.929 . S
H27 C5 0.931 . S
H28 C7 0.930 . S
H29 C11 0.931 . S
H30 C9 0.931 . S
H31 C13 0.931 . S
H32 C14 0.929 . S
H33 C15 0.930 . S
H34 C18 0.930 . S
H35 C19 0.931 . S
H36 C23 0.928 . S
H37 C22 0.929 . S
H38 C20 0.932 . S
C39 C40 1.386 . S
C39 C41 1.397 . S
C39 H63 0.931 . S
C40 C39 1.386 . S
C40 C44 1.397 . S
C41 C39 1.397 . S
C41 C42 1.384 . S
C41 H64 0.930 . S
C42 C41 1.384 . S
C42 C43 1.377 . S
C42 C45 1.481 . S
C43 C42 1.377 . S
C43 C44 1.389 . S
C43 H65 0.929 . S
C44 C40 1.397 . S
C44 C43 1.389 . S
C44 H66 0.931 . S
C45 C42 1.481 . S
C45 C46 1.387 . S
C45 C50 1.390 1_556 S
C46 C45 1.387 . S
C46 C47 1.401 1_556 S
C46 H67 0.930 . S
C47 C46 1.401 1_554 S
C47 C48 1.376 . S
C47 C56 1.511 1_554 S
C48 C47 1.376 . S
C48 C49 1.392 . S
C48 H69 0.931 . S
C49 C48 1.392 . S
C49 C50 1.361 . S
C49 C51 1.500 . S
C50 C45 1.390 1_554 S
C50 C49 1.361 . S
C50 H68 0.931 . S
C51 C49 1.500 . S
C51 C52 1.371 . S
C51 C53 1.365 . S
C52 C51 1.371 . S
C52 C62 1.386 . S
C52 H70 0.931 . S
C53 C51 1.365 . S
C53 C54 1.409 . S
C53 H71 0.929 . S
C54 C53 1.409 . S
C54 C55 1.380 . S
C54 H72 0.930 . S
C55 C54 1.380 . S
C55 C62 1.357 . S
C56 C47 1.511 1_556 S
C56 C57 1.341 . S
C56 C58 1.371 1_556 S
C57 C56 1.341 . S
C57 C61 1.394 . S
C57 H73 0.930 . S
C58 C56 1.371 1_554 S
C58 C59 1.392 . S
C58 H74 0.931 . S
C59 C58 1.392 . S
C59 C60 1.331 1_554 S
C59 H77 0.932 . S
C60 C59 1.331 1_556 S
C60 C61 1.336 . S
C61 C57 1.394 . S
C61 C60 1.336 . S
C61 H76 0.929 . S
C62 C52 1.386 . S
C62 C55 1.357 . S
C62 H75 0.928 . S
H63 C39 0.931 . S
H64 C41 0.930 . S
H65 C43 0.929 . S
H66 C44 0.931 . S
H67 C46 0.930 . S
H68 C50 0.931 . S
H69 C48 0.931 . S
H70 C52 0.931 . S
H71 C53 0.929 . S
H72 C54 0.930 . S
H73 C57 0.930 . S
H74 C58 0.931 . S
H75 C62 0.928 . S
H76 C61 0.929 . S
H77 C59 0.932 . S
C78 C79 1.395 . S
C78 C80 1.397 . S
C78 H102 0.931 . S
C79 C78 1.395 . S
C79 C83 1.389 1_565 S
C80 C78 1.397 . S
C80 C81 1.388 . S
C80 H103 0.930 . S
C81 C80 1.388 . S
C81 C82 1.372 1_565 S
C81 C84 1.478 1_556 S
C82 C81 1.372 1_545 S
C82 C83 1.389 . S
C82 H104 0.929 1_556 S
C83 C79 1.389 1_545 S
C83 C82 1.389 . S
C83 H105 0.931 . S
C84 C81 1.478 1_554 S
C84 C85 1.391 . S
C84 C89 1.391 . S
C85 C84 1.391 . S
C85 C86 1.399 . S
C85 H106 0.930 1_554 S
C86 C85 1.399 . S
C86 C87 1.377 . S
C86 C95 1.516 . S
C87 C86 1.377 . S
C87 C88 1.393 . S
C87 H108 0.931 . S
C88 C87 1.393 . S
C88 C89 1.362 . S
C88 C90 1.500 1_565 S
C89 C84 1.391 . S
C89 C88 1.362 . S
C89 H107 0.930 . S
C90 C88 1.500 1_545 S
C90 C91 1.359 1_545 S
C90 C92 1.378 . S
C91 C90 1.359 1_565 S
C91 C101 1.386 . S
C91 H109 0.931 . S
C92 C90 1.378 . S
C92 C93 1.409 . S
C92 H110 0.929 . S
C93 C92 1.409 . S
C93 C94 1.380 . S
C93 H111 0.930 . S
C94 C93 1.380 . S
C94 C101 1.357 1_545 S
C95 C86 1.516 . S
C95 C96 1.341 1_554 S
C95 C97 1.371 1_565 S
C96 C95 1.341 1_556 S
C96 C100 1.394 . S
C96 H112 0.930 . S
C97 C95 1.371 1_545 S
C97 C98 1.392 . S
C97 H113 0.931 . S
C98 C97 1.392 . S
C98 C99 1.323 1_545 S
C98 H116 0.932 . S
C99 C98 1.323 1_565 S
C99 C100 1.342 1_554 S
C100 C96 1.394 . S
C100 C99 1.342 1_556 S
C100 H115 0.929 . S
C101 C91 1.386 . S
C101 C94 1.357 1_565 S
C101 H114 0.928 . S
H102 C78 0.931 . S
H103 C80 0.930 . S
H104 C82 0.929 1_554 S
H105 C83 0.931 . S
H106 C85 0.930 1_556 S
H107 C89 0.930 . S
H108 C87 0.931 . S
H109 C91 0.931 . S
H110 C92 0.929 . S
H111 C93 0.930 . S
H112 C96 0.930 . S
H113 C97 0.931 . S
H114 C101 0.928 . S
H115 C100 0.929 . S
H116 C98 0.932 . S
C117 C118 1.386 . S
C117 C119 1.397 . S
C117 H141 0.931 . S
C118 C117 1.386 . S
C118 C122 1.397 . S
C119 C117 1.397 . S
C119 C120 1.384 . S
C119 H142 0.930 . S
C120 C119 1.384 . S
C120 C121 1.377 . S
C120 C123 1.481 . S
C121 C120 1.377 . S
C121 C122 1.389 . S
C121 H143 0.929 . S
C122 C118 1.397 . S
C122 C121 1.389 . S
C122 H144 0.931 . S
C123 C120 1.481 . S
C123 C124 1.387 . S
C123 C128 1.390 . S
C124 C123 1.387 . S
C124 C125 1.401 . S
C124 H145 0.930 . S
C125 C124 1.401 . S
C125 C126 1.376 . S
C125 C134 1.511 . S
C126 C125 1.376 . S
C126 C127 1.392 . S
C126 H147 0.931 1_554 S
C127 C126 1.392 . S
C127 C128 1.361 . S
C127 C129 1.500 1_554 S
C128 C123 1.390 . S
C128 C127 1.361 . S
C128 H146 0.931 . S
C129 C127 1.500 1_556 S
C129 C130 1.371 . S
C129 C131 1.365 . S
C130 C129 1.371 . S
C130 C140 1.386 . S
C130 H148 0.931 . S
C131 C129 1.365 . S
C131 C132 1.409 . S
C131 H149 0.929 1_556 S
C132 C131 1.409 . S
C132 C133 1.380 . S
C132 H150 0.930 . S
C133 C132 1.380 . S
C133 C140 1.357 . S
C134 C125 1.511 . S
C134 C135 1.341 . S
C134 C136 1.371 1_554 S
C135 C134 1.341 . S
C135 C139 1.394 . S
C135 H151 0.930 . S
C136 C134 1.371 1_556 S
C136 C137 1.392 . S
C136 H152 0.931 . S
C137 C136 1.392 . S
C137 C138 1.331 1_556 S
C137 H155 0.932 . S
C138 C137 1.331 1_554 S
C138 C139 1.336 . S
C139 C135 1.394 . S
C139 C138 1.336 . S
C139 H154 0.929 . S
C140 C130 1.386 . S
C140 C133 1.357 . S
C140 H153 0.928 . S
H141 C117 0.931 . S
H142 C119 0.930 . S
H143 C121 0.929 . S
H144 C122 0.931 . S
H145 C124 0.930 . S
H146 C128 0.931 . S
H147 C126 0.931 1_556 S
H148 C130 0.931 . S
H149 C131 0.929 1_554 S
H150 C132 0.930 . S
H151 C135 0.930 . S
H152 C136 0.931 . S
H153 C140 0.928 . S
H154 C139 0.929 . S
H155 C137 0.932 . S
C156 C157 1.386 . S
C156 C158 1.397 . S
C156 H180 0.931 . S
C157 C156 1.386 . S
C157 C161 1.397 . S
C158 C156 1.397 . S
C158 C159 1.384 . S
C158 H181 0.930 . S
C159 C158 1.384 . S
C159 C160 1.377 . S
C159 C162 1.481 . S
C160 C159 1.377 . S
C160 C161 1.389 . S
C160 H182 0.929 . S
C161 C157 1.397 . S
C161 C160 1.389 . S
C161 H183 0.931 . S
C162 C159 1.481 . S
C162 C163 1.387 . S
C162 C167 1.390 . S
C163 C162 1.387 . S
C163 C164 1.401 . S
C163 H184 0.930 . S
C164 C163 1.401 . S
C164 C165 1.376 . S
C164 C173 1.511 . S
C165 C164 1.376 . S
C165 C166 1.392 . S
C165 H186 0.931 . S
C166 C165 1.392 . S
C166 C167 1.361 . S
C166 C168 1.500 . S
C167 C162 1.390 . S
C167 C166 1.361 . S
C167 H185 0.931 . S
C168 C166 1.500 . S
C168 C169 1.371 . S
C168 C170 1.365 . S
C169 C168 1.371 . S
C169 C179 1.386 . S
C169 H187 0.931 . S
C170 C168 1.365 . S
C170 C171 1.409 . S
C170 H188 0.929 . S
C171 C170 1.409 . S
C171 C172 1.380 . S
C171 H189 0.930 . S
C172 C171 1.380 . S
C172 C179 1.357 . S
C173 C164 1.511 . S
C173 C174 1.341 . S
C173 C175 1.371 . S
C174 C173 1.341 . S
C174 C178 1.394 . S
C174 H190 0.930 . S
C175 C173 1.371 . S
C175 C176 1.392 . S
C175 H191 0.931 . S
C176 C175 1.392 . S
C176 C177 1.331 . S
C176 H194 0.932 . S
C177 C176 1.331 . S
C177 C178 1.336 . S
C178 C174 1.394 . S
C178 C177 1.336 . S
C178 H193 0.929 . S
C179 C169 1.386 . S
C179 C172 1.357 . S
C179 H192 0.929 . S
H180 C156 0.931 . S
H181 C158 0.930 . S
H182 C160 0.929 . S
H183 C161 0.931 . S
H184 C163 0.930 . S
H185 C167 0.931 . S
H186 C165 0.931 . S
H187 C169 0.931 . S
H188 C170 0.929 . S
H189 C171 0.930 . S
H190 C174 0.930 . S
H191 C175 0.931 . S
H192 C179 0.929 . S
H193 C178 0.929 . S
H194 C176 0.932 . S
C195 C196 1.386 . S
C195 C197 1.397 . S
C195 H219 0.931 . S
C196 C195 1.386 . S
C196 C200 1.397 . S
C197 C195 1.397 . S
C197 C198 1.384 . S
C197 H220 0.930 . S
C198 C197 1.384 . S
C198 C199 1.377 . S
C198 C201 1.481 . S
C199 C198 1.377 . S
C199 C200 1.389 . S
C199 H221 0.929 . S
C200 C196 1.397 . S
C200 C199 1.389 . S
C200 H222 0.931 . S
C201 C198 1.481 . S
C201 C202 1.387 . S
C201 C206 1.390 . S
C202 C201 1.387 . S
C202 C203 1.401 . S
C202 H223 0.930 . S
C203 C202 1.401 . S
C203 C204 1.376 . S
C203 C212 1.511 . S
C204 C203 1.376 . S
C204 C205 1.392 . S
C204 H225 0.931 . S
C205 C204 1.392 . S
C205 C206 1.361 . S
C205 C207 1.500 . S
C206 C201 1.390 . S
C206 C205 1.361 . S
C206 H224 0.931 . S
C207 C205 1.500 . S
C207 C208 1.371 . S
C207 C209 1.365 . S
C208 C207 1.371 . S
C208 C218 1.386 . S
C208 H226 0.931 . S
C209 C207 1.365 . S
C209 C210 1.409 . S
C209 H227 0.929 . S
C210 C209 1.409 . S
C210 C211 1.380 . S
C210 H228 0.930 . S
C211 C210 1.380 . S
C211 C218 1.357 . S
C212 C203 1.511 . S
C212 C213 1.341 . S
C212 C214 1.371 . S
C213 C212 1.341 . S
C213 C217 1.394 . S
C213 H229 0.930 . S
C214 C212 1.371 . S
C214 C215 1.392 . S
C214 H230 0.931 . S
C215 C214 1.392 . S
C215 C216 1.331 . S
C215 H233 0.932 . S
C216 C215 1.331 . S
C216 C217 1.336 . S
C217 C213 1.394 . S
C217 C216 1.336 . S
C217 H232 0.929 . S
C218 C208 1.386 . S
C218 C211 1.357 . S
C218 H231 0.928 . S
H219 C195 0.931 . S
H220 C197 0.930 . S
H221 C199 0.929 . S
H222 C200 0.931 . S
H223 C202 0.930 . S
H224 C206 0.931 . S
H225 C204 0.931 . S
H226 C208 0.931 . S
H227 C209 0.929 . S
H228 C210 0.930 . S
H229 C213 0.930 . S
H230 C214 0.931 . S
H231 C218 0.928 . S
H232 C217 0.929 . S
H233 C215 0.932 . S
C234 C235 1.386 1_565 S
C234 C236 1.397 . S
C234 H258 0.931 . S
C235 C234 1.386 1_545 S
C235 C239 1.397 . S
C236 C234 1.397 . S
C236 C237 1.384 1_565 S
C236 H259 0.930 . S
C237 C236 1.384 1_545 S
C237 C238 1.377 . S
C237 C240 1.481 . S
C238 C237 1.377 . S
C238 C239 1.389 . S
C238 H260 0.929 . S
C239 C235 1.397 . S
C239 C238 1.389 . S
C239 H261 0.931 . S
C240 C237 1.481 . S
C240 C241 1.387 . S
C240 C245 1.390 . S
C241 C240 1.387 . S
C241 C242 1.401 . S
C241 H262 0.930 . S
C242 C241 1.401 . S
C242 C243 1.376 . S
C242 C251 1.511 . S
C243 C242 1.376 . S
C243 C244 1.392 . S
C243 H264 0.931 . S
C244 C243 1.392 . S
C244 C245 1.361 . S
C244 C246 1.500 . S
C245 C240 1.390 . S
C245 C244 1.361 . S
C245 H263 0.931 . S
C246 C244 1.500 . S
C246 C247 1.371 1_545 S
C246 C248 1.365 . S
C247 C246 1.371 1_565 S
C247 C257 1.386 1_554 S
C247 H265 0.931 . S
C248 C246 1.365 . S
C248 C249 1.409 . S
C248 H266 0.929 . S
C249 C248 1.409 . S
C249 C250 1.380 1_554 S
C249 H267 0.930 . S
C250 C249 1.380 1_556 S
C250 C257 1.357 1_545 S
C251 C242 1.511 . S
C251 C252 1.341 1_545 S
C251 C253 1.371 . S
C252 C251 1.341 1_565 S
C252 C256 1.394 . S
C252 H268 0.930 . S
C253 C251 1.371 . S
C253 C254 1.392 . S
C253 H269 0.931 . S
C254 C253 1.392 . S
C254 C255 1.331 . S
C254 H272 0.932 . S
C255 C254 1.331 . S
C255 C256 1.336 1_545 S
C256 C252 1.394 . S
C256 C255 1.336 1_565 S
C256 H271 0.929 . S
C257 C247 1.386 1_556 S
C257 C250 1.357 1_565 S
C257 H270 0.928 . S
H258 C234 0.931 . S
H259 C236 0.930 . S
H260 C238 0.929 . S
H261 C239 0.931 . S
H262 C241 0.930 . S
H263 C245 0.931 . S
H264 C243 0.931 . S
H265 C247 0.931 . S
H266 C248 0.929 . S
H267 C249 0.930 . S
H268 C252 0.930 . S
H269 C253 0.931 . S
H270 C257 0.928 . S
H271 C256 0.929 . S
H272 C254 0.932 . S
C273 C274 1.386 1_554 S
C273 C275 1.397 . S
C273 H297 0.931 1_554 S
C274 C273 1.386 1_556 S
C274 C278 1.397 1_556 S
C275 C273 1.397 . S
C275 C276 1.384 . S
C275 H298 0.930 . S
C276 C275 1.384 . S
C276 C277 1.377 . S
C276 C279 1.481 . S
C277 C276 1.377 . S
C277 C278 1.389 . S
C277 H299 0.929 . S
C278 C274 1.397 1_554 S
C278 C277 1.389 . S
C278 H300 0.931 . S
C279 C276 1.481 . S
C279 C280 1.387 . S
C279 C284 1.390 . S
C280 C279 1.387 . S
C280 C281 1.401 . S
C280 H301 0.930 . S
C281 C280 1.401 . S
C281 C282 1.376 . S
C281 C290 1.511 . S
C282 C281 1.376 . S
C282 C283 1.392 . S
C282 H303 0.931 . S
C283 C282 1.392 . S
C283 C284 1.361 . S
C283 C285 1.500 . S
C284 C279 1.390 . S
C284 C283 1.361 . S
C284 H302 0.931 . S
C285 C283 1.500 . S
C285 C286 1.371 . S
C285 C287 1.365 . S
C286 C285 1.371 . S
C286 C296 1.386 . S
C286 H304 0.931 . S
C287 C285 1.365 . S
C287 C288 1.409 . S
C287 H305 0.929 . S
C288 C287 1.409 . S
C288 C289 1.380 . S
C288 H306 0.930 . S
C289 C288 1.380 . S
C289 C296 1.357 . S
C290 C281 1.511 . S
C290 C291 1.341 . S
C290 C292 1.371 . S
C291 C290 1.341 . S
C291 C295 1.394 . S
C291 H307 0.930 . S
C292 C290 1.371 . S
C292 C293 1.392 . S
C292 H308 0.931 . S
C293 C292 1.392 . S
C293 C294 1.331 . S
C293 H311 0.932 . S
C294 C293 1.331 . S
C294 C295 1.336 . S
C295 C291 1.394 . S
C295 C294 1.336 . S
C295 H310 0.929 . S
C296 C286 1.386 . S
C296 C289 1.357 . S
C296 H309 0.928 . S
H297 C273 0.931 1_556 S
H298 C275 0.930 . S
H299 C277 0.929 . S
H300 C278 0.931 . S
H301 C280 0.930 . S
H302 C284 0.931 . S
H303 C282 0.931 . S
H304 C286 0.931 . S
H305 C287 0.929 . S
H306 C288 0.930 . S
H307 C291 0.930 . S
H308 C292 0.931 . S
H309 C296 0.928 . S
H310 C295 0.929 . S
H311 C293 0.932 . S
Tb312 O315 2.453 1_665 S
Tb312 O316 2.596 1_665 S
Tb312 O317 2.374 1_655 S
Tb312 O325 2.343 . S
Tb312 O327 2.353 1_565 S
Tb312 O329 2.427 . S
Tb312 O330 2.513 . S
C313 O317 1.251 . S
C313 O319 1.263 . S
Tb314 O316 2.343 . S
Tb314 O319 2.353 1_545 S
Tb314 O322 2.427 . S
Tb314 O323 2.513 . S
Tb314 O324 2.453 1_545 S
Tb314 O325 2.596 1_445 S
Tb314 O326 2.374 1_455 S
O315 Tb312 2.453 1_445 S
O315 C331 1.245 . S
O316 Tb312 2.596 1_445 S
O316 Tb314 2.343 . S
O316 C331 1.259 . S
O317 Tb312 2.374 1_455 S
O317 C313 1.251 . S
C318 O322 1.275 . S
C318 O323 1.246 . S
O319 C313 1.263 . S
O319 Tb314 2.353 1_565 S
C320 O324 1.245 1_655 S
C320 O325 1.259 . S
C321 O326 1.250 . S
C321 O327 1.263 . S
O322 Tb314 2.427 . S
O322 C318 1.275 . S
O323 Tb314 2.513 . S
O323 C318 1.246 . S
O324 Tb314 2.453 1_565 S
O324 C320 1.245 1_455 S
O325 Tb312 2.343 . S
O325 Tb314 2.596 1_665 S
O325 C320 1.259 . S
O326 Tb314 2.374 1_655 S
O326 C321 1.250 . S
O327 Tb312 2.353 1_545 S
O327 C321 1.263 . S
C328 O329 1.275 . S
C328 O330 1.246 . S
O329 Tb312 2.427 . S
O329 C328 1.275 . S
O330 Tb312 2.513 . S
O330 C328 1.246 . S
C331 O315 1.245 . S
C331 O316 1.259 . S
Tb332 O335 2.453 . S
Tb332 O336 2.596 1_545 S
Tb332 O337 2.374 . S
Tb332 O345 2.343 . S
Tb332 O347 2.353 . S
Tb332 O349 2.427 . S
Tb332 O350 2.513 . S
C333 O337 1.251 . S
C333 O339 1.263 1_545 S
Tb334 O336 2.343 . S
Tb334 O339 2.353 . S
Tb334 O342 2.427 . S
Tb334 O343 2.513 . S
Tb334 O344 2.453 . S
Tb334 O345 2.596 1_565 S
Tb334 O346 2.374 . S
O335 Tb332 2.453 . S
O335 C351 1.245 . S
O336 Tb332 2.596 1_565 S
O336 Tb334 2.343 . S
O336 C351 1.259 1_565 S
O337 Tb332 2.374 . S
O337 C333 1.251 . S
C338 O342 1.275 . S
C338 O343 1.246 . S
O339 C333 1.263 1_565 S
O339 Tb334 2.353 . S
C340 O344 1.245 . S
C340 O345 1.259 1_565 S
C341 O346 1.250 1_545 S
C341 O347 1.263 . S
O342 Tb334 2.427 . S
O342 C338 1.275 . S
O343 Tb334 2.513 . S
O343 C338 1.246 . S
O344 Tb334 2.453 . S
O344 C340 1.245 . S
O345 Tb332 2.343 . S
O345 Tb334 2.596 1_545 S
O345 C340 1.259 1_545 S
O346 Tb334 2.374 . S
O346 C341 1.250 1_565 S
O347 Tb332 2.353 . S
O347 C341 1.263 . S
C348 O349 1.275 . S
C348 O350 1.246 . S
O349 Tb332 2.427 . S
O349 C348 1.275 . S
O350 Tb332 2.513 . S
O350 C348 1.246 . S
C351 O335 1.245 . S
C351 O336 1.259 1_545 S
Tb352 O355 2.453 . S
Tb352 O356 2.596 . S
Tb352 O357 2.374 . S
Tb352 O365 2.343 . S
Tb352 O367 2.353 . S
Tb352 O369 2.427 . S
Tb352 O370 2.513 . S
C353 O357 1.251 . S
C353 O359 1.263 . S
Tb354 O356 2.343 . S
Tb354 O359 2.353 . S
Tb354 O362 2.427 . S
Tb354 O363 2.513 . S
Tb354 O364 2.453 . S
Tb354 O365 2.596 . S
Tb354 O366 2.374 . S
O355 Tb352 2.453 . S
O355 C371 1.245 . S
O356 Tb352 2.596 . S
O356 Tb354 2.343 . S
O356 C371 1.259 . S
O357 Tb352 2.374 . S
O357 C353 1.251 . S
C358 O362 1.275 . S
C358 O363 1.246 . S
O359 C353 1.263 . S
O359 Tb354 2.353 . S
C360 O364 1.245 . S
C360 O365 1.259 . S
C361 O366 1.250 . S
C361 O367 1.263 . S
O362 Tb354 2.427 . S
O362 C358 1.275 . S
O363 Tb354 2.513 . S
O363 C358 1.246 . S
O364 Tb354 2.453 . S
O364 C360 1.245 . S
O365 Tb352 2.343 . S
O365 Tb354 2.596 . S
O365 C360 1.259 . S
O366 Tb354 2.374 . S
O366 C361 1.250 . S
O367 Tb352 2.353 . S
O367 C361 1.263 . S
C368 O369 1.275 . S
C368 O370 1.246 . S
O369 Tb352 2.427 . S
O369 C368 1.275 . S
O370 Tb352 2.513 . S
O370 C368 1.246 . S
C371 O355 1.245 . S
C371 O356 1.259 . S
Tb372 O375 2.453 1_655 S
Tb372 O376 2.596 1_655 S
Tb372 O377 2.374 1_655 S
Tb372 O385 2.343 . S
Tb372 O387 2.353 . S
Tb372 O389 2.427 . S
Tb372 O390 2.513 . S
C373 O377 1.251 . S
C373 O379 1.263 . S
Tb374 O376 2.343 . S
Tb374 O379 2.353 . S
Tb374 O382 2.427 . S
Tb374 O383 2.513 . S
Tb374 O384 2.453 1_455 S
Tb374 O385 2.596 1_455 S
Tb374 O386 2.374 . S
O375 Tb372 2.453 1_455 S
O375 C391 1.245 . S
O376 Tb372 2.596 1_455 S
O376 Tb374 2.343 . S
O376 C391 1.259 . S
O377 Tb372 2.374 1_455 S
O377 C373 1.251 . S
C378 O382 1.275 . S
C378 O383 1.246 . S
O379 C373 1.263 . S
O379 Tb374 2.353 . S
C380 O384 1.245 . S
C380 O385 1.259 . S
C381 O386 1.250 1_655 S
C381 O387 1.263 . S
O382 Tb374 2.427 . S
O382 C378 1.275 . S
O383 Tb374 2.513 . S
O383 C378 1.246 . S
O384 Tb374 2.453 1_655 S
O384 C380 1.245 . S
O385 Tb372 2.343 . S
O385 Tb374 2.596 1_655 S
O385 C380 1.259 . S
O386 Tb374 2.374 . S
O386 C381 1.250 1_455 S
O387 Tb372 2.353 . S
O387 C381 1.263 . S
C388 O389 1.275 . S
C388 O390 1.246 . S
O389 Tb372 2.427 . S
O389 C388 1.275 . S
O390 Tb372 2.513 . S
O390 C388 1.246 . S
C391 O375 1.245 . S
C391 O376 1.259 . S
C392 C393 1.369 1_565 S
C392 C394 1.419 . S
C392 H396 0.930 . S
C393 C392 1.369 1_545 S
C393 C402 1.429 . S
C394 C392 1.419 . S
C394 C395 1.346 1_565 S
C394 H397 0.929 . S
C395 C394 1.346 1_545 S
C395 C401 1.448 . S
H396 C392 0.930 . S
H397 C394 0.929 . S
S398 N399 1.613 . S
S398 N400 1.610 . S
N399 S398 1.613 . S
N399 C402 1.350 . S
N400 S398 1.610 . S
N400 C401 1.351 . S
C401 C395 1.448 . S
C401 N400 1.351 . S
C401 C402 1.434 . S
C402 C393 1.429 . S
C402 N399 1.350 . S
C402 C401 1.434 . S
C403 C404 1.369 . S
C403 C405 1.419 . S
C403 H407 0.930 . S
C404 C403 1.369 . S
C404 C413 1.429 . S
C405 C403 1.419 . S
C405 C406 1.363 . S
C405 H408 0.929 . S
C406 C405 1.363 . S
C406 C412 1.428 . S
H407 C403 0.930 . S
H408 C405 0.929 . S
S409 N410 1.613 . S
S409 N411 1.610 . S
N410 S409 1.613 . S
N410 C413 1.350 . S
N411 S409 1.610 . S
N411 C412 1.351 . S
C412 C406 1.428 . S
C412 N411 1.351 . S
C412 C413 1.434 . S
C413 C404 1.429 . S
C413 N410 1.350 . S
C413 C412 1.434 . S
C414 C415 1.369 . S
C414 C416 1.419 . S
C414 H418 0.930 . S
C415 C414 1.369 . S
C415 C424 1.429 . S
C416 C414 1.419 . S
C416 C417 1.363 . S
C416 H419 0.929 . S
C417 C416 1.363 . S
C417 C423 1.428 . S
H418 C414 0.930 . S
H419 C416 0.929 . S
S420 N421 1.613 . S
S420 N422 1.610 . S
N421 S420 1.613 . S
N421 C424 1.350 . S
N422 S420 1.610 . S
N422 C423 1.351 . S
C423 C417 1.428 . S
C423 N422 1.351 . S
C423 C424 1.434 . S
C424 C415 1.429 . S
C424 N421 1.350 . S
C424 C423 1.434 . S
C425 C426 1.369 . S
C425 C427 1.419 . S
C425 H429 0.930 . S
C426 C425 1.369 . S
C426 C435 1.429 . S
C427 C425 1.419 . S
C427 C428 1.363 . S
C427 H430 0.929 . S
C428 C427 1.363 . S
C428 C434 1.428 . S
H429 C425 0.930 . S
H430 C427 0.929 . S
S431 N432 1.613 . S
S431 N433 1.610 . S
N432 S431 1.613 . S
N432 C435 1.350 . S
N433 S431 1.610 . S
N433 C434 1.351 . S
C434 C428 1.428 . S
C434 N433 1.351 . S
C434 C435 1.434 . S
C435 C426 1.429 . S
C435 N432 1.350 . S
C435 C434 1.434 . S
C436 C437 1.369 . S
C436 C438 1.419 . S
C436 H440 0.930 1_556 S
C437 C436 1.369 . S
C437 C446 1.429 . S
C438 C436 1.419 . S
C438 C439 1.363 . S
C438 H441 0.929 . S
C439 C438 1.363 . S
C439 C445 1.428 . S
H440 C436 0.930 1_554 S
H441 C438 0.929 . S
S442 N443 1.613 . S
S442 N444 1.610 1_565 S
N443 S442 1.613 . S
N443 C446 1.350 1_565 S
N444 S442 1.610 1_545 S
N444 C445 1.351 . S
C445 C439 1.428 . S
C445 N444 1.351 . S
C445 C446 1.434 . S
C446 C437 1.429 . S
C446 N443 1.350 1_545 S
C446 C445 1.434 . S
C447 C448 1.369 . S
C447 C449 1.419 . S
C447 H451 0.930 . S
C448 C447 1.369 . S
C448 C457 1.429 . S
C449 C447 1.419 . S
C449 C450 1.363 . S
C449 H452 0.929 . S
C450 C449 1.363 . S
C450 C456 1.428 . S
H451 C447 0.930 . S
H452 C449 0.929 . S
S453 N454 1.613 . S
S453 N455 1.610 1_554 S
N454 S453 1.613 . S
N454 C457 1.350 1_554 S
N455 S453 1.610 1_556 S
N455 C456 1.351 . S
C456 C450 1.428 . S
C456 N455 1.351 . S
C456 C457 1.434 . S
C457 C448 1.429 . S
C457 N454 1.350 1_556 S
C457 C456 1.434 . S
C458 C459 1.369 . S
C458 C460 1.419 . S
C458 H462 0.930 . S
C459 C458 1.369 . S
C459 C468 1.429 . S
C460 C458 1.419 . S
C460 C461 1.363 . S
C460 H463 0.929 . S
C461 C460 1.363 . S
C461 C467 1.428 . S
H462 C458 0.930 . S
H463 C460 0.929 . S
S464 N465 1.613 1_556 S
S464 N466 1.610 . S
N465 S464 1.613 1_554 S
N465 C468 1.350 1_554 S
N466 S464 1.610 . S
N466 C467 1.351 . S
C467 C461 1.428 . S
C467 N466 1.351 . S
C467 C468 1.434 . S
C468 C459 1.429 . S
C468 N465 1.350 1_556 S
C468 C467 1.434 . S
C469 C470 1.369 . S
C469 C471 1.419 . S
C469 H473 0.930 . S
C470 C469 1.369 . S
C470 C479 1.429 . S
C471 C469 1.419 . S
C471 C472 1.363 . S
C471 H474 0.929 . S
C472 C471 1.363 . S
C472 C478 1.428 . S
H473 C469 0.930 . S
H474 C471 0.929 . S
S475 N476 1.613 . S
S475 N477 1.610 . S
N476 S475 1.613 . S
N476 C479 1.350 . S
N477 S475 1.610 . S
N477 C478 1.351 . S
C478 C472 1.428 . S
C478 N477 1.351 . S
C478 C479 1.434 . S
C479 C470 1.429 . S
C479 N476 1.350 . S
C479 C478 1.434 . S
C480 C481 1.369 . S
C480 C482 1.419 . S
C480 H484 0.930 . S
C481 C480 1.369 . S
C481 C490 1.429 . S
C482 C480 1.419 . S
C482 C483 1.363 . S
C482 H485 0.929 . S
C483 C482 1.363 . S
C483 C489 1.428 . S
H484 C480 0.930 . S
H485 C482 0.929 . S
S486 N487 1.613 . S
S486 N488 1.610 . S
N487 S486 1.613 . S
N487 C490 1.350 . S
N488 S486 1.610 . S
N488 C489 1.351 . S
C489 C483 1.428 . S
C489 N488 1.351 . S
C489 C490 1.434 . S
C490 C481 1.429 . S
C490 N487 1.350 . S
C490 C489 1.434 . S
C491 C492 1.369 . S
C491 C493 1.419 . S
C491 H495 0.930 . S
C492 C491 1.369 . S
C492 C501 1.429 1_545 S
C493 C491 1.419 . S
C493 C494 1.363 . S
C493 H496 0.929 . S
C494 C493 1.363 . S
C494 C500 1.428 1_545 S
H495 C491 0.930 . S
H496 C493 0.929 . S
S497 N498 1.613 . S
S497 N499 1.610 . S
N498 S497 1.613 . S
N498 C501 1.350 . S
N499 S497 1.610 . S
N499 C500 1.351 . S
C500 C494 1.428 1_565 S
C500 N499 1.351 . S
C500 C501 1.434 . S
C501 C492 1.429 1_565 S
C501 N498 1.350 . S
C501 C500 1.434 . S
C502 C503 1.369 . S
C502 C504 1.419 . S
C502 H506 0.930 . S
C503 C502 1.369 . S
C503 C512 1.429 . S
C504 C502 1.419 . S
C504 C505 1.363 . S
C504 H507 0.929 . S
C505 C504 1.363 . S
C505 C511 1.428 . S
H506 C502 0.930 . S
H507 C504 0.929 . S
S508 N509 1.613 . S
S508 N510 1.610 . S
N509 S508 1.613 . S
N509 C512 1.350 . S
N510 S508 1.610 . S
N510 C511 1.351 . S
C511 C505 1.428 . S
C511 N510 1.351 . S
C511 C512 1.434 . S
C512 C503 1.429 . S
C512 N509 1.350 . S
C512 C511 1.434 . S
C513 C514 1.369 . S
C513 C515 1.419 . S
C513 H517 0.930 . S
C514 C513 1.369 . S
C514 C523 1.429 . S
C515 C513 1.419 . S
C515 C516 1.363 . S
C515 H518 0.929 . S
C516 C515 1.363 . S
C516 C522 1.428 . S
H517 C513 0.930 . S
H518 C515 0.929 . S
S519 N520 1.613 . S
S519 N521 1.610 . S
N520 S519 1.613 . S
N520 C523 1.350 . S
N521 S519 1.610 . S
N521 C522 1.351 . S
C522 C516 1.428 . S
C522 N521 1.351 . S
C522 C523 1.434 . S
C523 C514 1.429 . S
C523 N520 1.350 . S
C523 C522 1.434 . S
C524 C525 1.369 . S
C524 C526 1.419 . S
C524 H528 0.930 . S
C525 C524 1.369 . S
C525 C534 1.429 . S
C526 C524 1.419 . S
C526 C527 1.363 . S
C526 H529 0.929 . S
C527 C526 1.363 . S
C527 C533 1.428 . S
H528 C524 0.930 . S
H529 C526 0.929 . S
S530 N531 1.613 . S
S530 N532 1.610 . S
N531 S530 1.613 . S
N531 C534 1.350 . S
N532 S530 1.610 . S
N532 C533 1.351 . S
C533 C527 1.428 . S
C533 N532 1.351 . S
C533 C534 1.434 . S
C534 C525 1.429 . S
C534 N531 1.350 . S
C534 C533 1.434 . S
C535 C536 1.368 . S
C535 C537 1.419 . S
C535 H539 0.930 . S
C536 C535 1.368 . S
C536 C545 1.430 1_545 S
C537 C535 1.419 . S
C537 C538 1.363 . S
C537 H540 0.929 . S
C538 C537 1.363 . S
C538 C544 1.428 1_545 S
H539 C535 0.930 . S
H540 C537 0.929 . S
S541 N542 1.613 . S
S541 N543 1.610 . S
N542 S541 1.613 . S
N542 C545 1.350 . S
N543 S541 1.610 . S
N543 C544 1.351 . S
C544 C538 1.428 1_565 S
C544 N543 1.351 . S
C544 C545 1.434 . S
C545 C536 1.430 1_565 S
C545 N542 1.350 . S
C545 C544 1.434 . S
C546 C547 1.369 . S
C546 C548 1.419 . S
C546 H550 0.930 . S
C547 C546 1.369 . S
C547 C556 1.429 . S
C548 C546 1.419 . S
C548 C549 1.363 . S
C548 H551 0.929 . S
C549 C548 1.363 . S
C549 C555 1.428 . S
H550 C546 0.930 . S
H551 C548 0.929 . S
S552 N553 1.613 . S
S552 N554 1.610 . S
N553 S552 1.613 . S
N553 C556 1.350 . S
N554 S552 1.610 . S
N554 C555 1.351 . S
C555 C549 1.428 . S
C555 N554 1.351 . S
C555 C556 1.434 . S
C556 C547 1.429 . S
C556 N553 1.350 . S
C556 C555 1.434 . S
C557 C558 1.369 . S
C557 C559 1.419 . S
C557 H561 0.930 . S
C558 C557 1.369 . S
C558 C567 1.429 . S
C559 C557 1.419 . S
C559 C560 1.363 . S
C559 H562 0.929 . S
C560 C559 1.363 . S
C560 C566 1.428 . S
H561 C557 0.930 . S
H562 C559 0.929 . S
S563 N564 1.613 . S
S563 N565 1.610 . S
N564 S563 1.613 . S
N564 C567 1.350 . S
N565 S563 1.610 . S
N565 C566 1.351 . S
C566 C560 1.428 . S
C566 N565 1.351 . S
C566 C567 1.434 . S
C567 C558 1.429 . S
C567 N564 1.350 . S
C567 C566 1.434 . S
C568 C569 1.369 . S
C568 C570 1.419 . S
C568 H572 0.930 . S
C569 C568 1.369 . S
C569 C578 1.429 . S
C570 C568 1.419 . S
C570 C571 1.363 . S
C570 H573 0.929 . S
C571 C570 1.363 . S
C571 C577 1.428 . S
H572 C568 0.930 . S
H573 C570 0.929 . S
S574 N575 1.613 . S
S574 N576 1.610 1_554 S
N575 S574 1.613 . S
N575 C578 1.350 1_554 S
N576 S574 1.610 1_556 S
N576 C577 1.351 . S
C577 C571 1.428 . S
C577 N576 1.351 . S
C577 C578 1.434 . S
C578 C569 1.429 . S
C578 N575 1.350 1_556 S
C578 C577 1.434 . S
C579 C580 1.369 . S
C579 C581 1.419 . S
C579 H583 0.930 1_556 S
C580 C579 1.369 . S
C580 C589 1.429 1_545 S
C581 C579 1.419 . S
C581 C582 1.363 . S
C581 H584 0.929 . S
C582 C581 1.363 . S
C582 C588 1.428 1_545 S
H583 C579 0.930 1_554 S
H584 C581 0.929 . S
S585 N586 1.613 . S
S585 N587 1.610 . S
N586 S585 1.613 . S
N586 C589 1.350 . S
N587 S585 1.610 . S
N587 C588 1.351 . S
C588 C582 1.428 1_565 S
C588 N587 1.351 . S
C588 C589 1.434 . S
C589 C580 1.429 1_565 S
C589 N586 1.350 . S
C589 C588 1.434 . S
C590 C591 1.369 . S
C590 C592 1.419 . S
C590 H594 0.930 . S
C591 C590 1.369 . S
C591 C600 1.429 . S
C592 C590 1.419 . S
C592 C593 1.363 . S
C592 H595 0.929 . S
C593 C592 1.363 . S
C593 C599 1.428 . S
H594 C590 0.930 . S
H595 C592 0.929 . S
S596 N597 1.613 . S
S596 N598 1.610 . S
N597 S596 1.613 . S
N597 C600 1.350 . S
N598 S596 1.610 . S
N598 C599 1.351 . S
C599 C593 1.428 . S
C599 N598 1.351 . S
C599 C600 1.434 . S
C600 C591 1.429 . S
C600 N597 1.350 . S
C600 C599 1.434 . S
C601 C602 1.369 1_554 S
C601 C603 1.419 1_554 S
C601 H605 0.930 . S
C602 C601 1.369 1_556 S
C602 C611 1.429 . S
C603 C601 1.419 1_556 S
C603 C604 1.363 . S
C603 H606 0.929 1_556 S
C604 C603 1.363 . S
C604 C610 1.428 . S
H605 C601 0.930 . S
H606 C603 0.929 1_554 S
S607 N608 1.613 . S
S607 N609 1.610 . S
N608 S607 1.613 . S
N608 C611 1.350 . S
N609 S607 1.610 . S
N609 C610 1.351 . S
C610 C604 1.428 . S
C610 N609 1.351 . S
C610 C611 1.434 . S
C611 C602 1.429 . S
C611 N608 1.350 . S
C611 C610 1.434 . S
C612 C613 1.369 . S
C612 C614 1.419 . S
C612 H616 0.930 . S
C613 C612 1.369 . S
C613 C622 1.429 . S
C614 C612 1.419 . S
C614 C615 1.363 . S
C614 H617 0.929 . S
C615 C614 1.363 . S
C615 C621 1.428 . S
H616 C612 0.930 . S
H617 C614 0.929 . S
S618 N619 1.613 . S
S618 N620 1.610 . S
N619 S618 1.613 . S
N619 C622 1.350 . S
N620 S618 1.610 . S
N620 C621 1.351 . S
C621 C615 1.428 . S
C621 N620 1.351 . S
C621 C622 1.434 . S
C622 C613 1.429 . S
C622 N619 1.350 . S
C622 C621 1.434 . S
C623 C624 1.372 . S
C623 C625 1.419 . S
C623 H627 0.930 . S
C624 C623 1.372 . S
C624 C633 1.426 1_545 S
C625 C623 1.419 . S
C625 C626 1.385 . S
C625 H628 0.929 . S
C626 C625 1.385 . S
C626 C632 1.403 1_545 S
H627 C623 0.930 . S
H628 C625 0.929 . S
S629 N630 1.613 . S
S629 N631 1.610 . S
N630 S629 1.613 . S
N630 C633 1.350 . S
N631 S629 1.610 . S
N631 C632 1.351 . S
C632 C626 1.403 1_565 S
C632 N631 1.351 . S
C632 C633 1.434 . S
C633 C624 1.426 1_565 S
C633 N630 1.350 . S
C633 C632 1.434 . S
C634 C635 1.369 . S
C634 C636 1.419 . S
C634 H638 0.930 . S
C635 C634 1.369 . S
C635 C644 1.429 . S
C636 C634 1.419 . S
C636 C637 1.363 . S
C636 H639 0.929 . S
C637 C636 1.363 . S
C637 C643 1.428 . S
H638 C634 0.930 . S
H639 C636 0.929 . S
S640 N641 1.613 . S
S640 N642 1.610 . S
N641 S640 1.613 . S
N641 C644 1.350 . S
N642 S640 1.610 . S
N642 C643 1.351 . S
C643 C637 1.428 . S
C643 N642 1.351 . S
C643 C644 1.434 . S
C644 C635 1.429 . S
C644 N641 1.350 . S
C644 C643 1.434 . S
C645 C646 1.369 . S
C645 C647 1.419 . S
C645 H649 0.930 . S
C646 C645 1.369 . S
C646 C655 1.429 . S
C647 C645 1.419 . S
C647 C648 1.363 . S
C647 H650 0.929 . S
C648 C647 1.363 . S
C648 C654 1.428 . S
H649 C645 0.930 . S
H650 C647 0.929 . S
S651 N652 1.613 . S
S651 N653 1.610 . S
N652 S651 1.613 . S
N652 C655 1.350 . S
N653 S651 1.610 . S
N653 C654 1.351 . S
C654 C648 1.428 . S
C654 N653 1.351 . S
C654 C655 1.434 . S
C655 C646 1.429 . S
C655 N652 1.350 . S
C655 C654 1.434 . S
C393 C255 1.607 . S
C395 C313 1.640 1_545 S
C406 C348 2.360 . S
C404 C294 2.133 . S
C417 C353 1.530 . S
C415 C177 1.523 . S
C428 C373 2.095 . S
C426 C216 1.912 . S
C439 C321 1.643 . S
C437 C99 1.608 1_546 S
C448 C138 2.093 1_556 S
C450 C338 2.361 . S
C459 C21 1.518 . S
C461 C361 1.526 . S
C470 C60 1.933 . S
C472 C381 2.098 . S
C483 C331 1.971 . S
C481 C196 1.667 . S
C494 C340 0.966 1_545 S
C492 C235 0.952 . S
C505 C371 2.062 . S
C503 C289 1.756 . S
C514 C157 1.123 . S
C516 C391 1.211 . S
C525 C40 1.672 . S
C527 C320 1.970 . S
C538 C351 0.975 . S
C536 C79 0.946 1_545 S
C549 C360 2.059 . S
C547 C133 1.766 . S
C558 C1 1.130 . S
C560 C380 1.213 . S
C569 C211 2.067 1_556 S
C571 C318 2.300 . S
C580 C250 1.881 . S
C582 C341 2.118 . S
C593 C358 2.503 . S
C591 C274 2.210 . S
C604 C378 2.219 . S
C602 C172 1.989 1_556 S
C613 C55 2.054 . S
C615 C328 2.301 . S
C626 C333 2.126 . S
C624 C94 1.870 . S
C637 C368 2.503 . S
C635 C118 2.188 . S
C646 C16 1.986 . S
C648 C388 2.218 . S
