# Generated by pormake.
# Topology eea, (3,6)-cn, num edge types: 1
# Building blocks:
#     Node 0, Type 0, BuildingBlock: MIDCAF_clean_linker_0, # of connection points: 3
#     Node 1, Type 0, BuildingBlock: MIDCAF_clean_linker_0, # of connection points: 3
#     Node 2, Type 0, BuildingBlock: MIDCAF_clean_linker_0, # of connection points: 3
#     Node 3, Type 0, BuildingBlock: MIDCAF_clean_linker_0, # of connection points: 3
#     Node 4, Type 0, BuildingBlock: MIDCAF_clean_linker_0, # of connection points: 3
#     Node 5, Type 0, BuildingBlock: MIDCAF_clean_linker_0, # of connection points: 3
#     Node 6, Type 0, BuildingBlock: MIDCAF_clean_linker_0, # of connection points: 3
#     Node 7, Type 0, BuildingBlock: MIDCAF_clean_linker_0, # of connection points: 3
#     Node 8, Type 0, BuildingBlock: MIDCAF_clean_linker_0, # of connection points: 3
#     Node 9, Type 0, BuildingBlock: MIDCAF_clean_linker_0, # of connection points: 3
#     Node 10, Type 0, BuildingBlock: MIDCAF_clean_linker_0, # of connection points: 3
#     Node 11, Type 0, BuildingBlock: MIDCAF_clean_linker_0, # of connection points: 3
#     Node 12, Type 0, BuildingBlock: MIDCAF_clean_linker_0, # of connection points: 3
#     Node 13, Type 0, BuildingBlock: MIDCAF_clean_linker_0, # of connection points: 3
#     Node 14, Type 0, BuildingBlock: MIDCAF_clean_linker_0, # of connection points: 3
#     Node 15, Type 0, BuildingBlock: MIDCAF_clean_linker_0, # of connection points: 3
#     Node 16, Type 0, BuildingBlock: MIDCAF_clean_linker_0, # of connection points: 3
#     Node 17, Type 0, BuildingBlock: MIDCAF_clean_linker_0, # of connection points: 3
#     Node 18, Type 1, BuildingBlock: LEVNOQ01_clean_sbu_1, # of connection points: 6
#     Node 19, Type 1, BuildingBlock: LEVNOQ01_clean_sbu_1, # of connection points: 6
#     Node 20, Type 1, BuildingBlock: LEVNOQ01_clean_sbu_1, # of connection points: 6
#     Node 21, Type 1, BuildingBlock: LEVNOQ01_clean_sbu_1, # of connection points: 6
#     Node 22, Type 1, BuildingBlock: LEVNOQ01_clean_sbu_1, # of connection points: 6
#     Node 23, Type 1, BuildingBlock: LEVNOQ01_clean_sbu_1, # of connection points: 6
#     Node 24, Type 1, BuildingBlock: LEVNOQ01_clean_sbu_1, # of connection points: 6
#     Node 25, Type 1, BuildingBlock: LEVNOQ01_clean_sbu_1, # of connection points: 6
#     Node 26, Type 1, BuildingBlock: LEVNOQ01_clean_sbu_1, # of connection points: 6
#     Edge 27, Type (0, 1), BuildingBlock: EZIPEK_clean_linker_0, # of connection points: 2
#     Edge 28, Type (0, 1), BuildingBlock: EZIPEK_clean_linker_0, # of connection points: 2
#     Edge 29, Type (0, 1), BuildingBlock: EZIPEK_clean_linker_0, # of connection points: 2
#     Edge 30, Type (0, 1), BuildingBlock: EZIPEK_clean_linker_0, # of connection points: 2
#     Edge 31, Type (0, 1), BuildingBlock: EZIPEK_clean_linker_0, # of connection points: 2
#     Edge 32, Type (0, 1), BuildingBlock: EZIPEK_clean_linker_0, # of connection points: 2
#     Edge 33, Type (0, 1), BuildingBlock: EZIPEK_clean_linker_0, # of connection points: 2
#     Edge 34, Type (0, 1), BuildingBlock: EZIPEK_clean_linker_0, # of connection points: 2
#     Edge 35, Type (0, 1), BuildingBlock: EZIPEK_clean_linker_0, # of connection points: 2
#     Edge 36, Type (0, 1), BuildingBlock: EZIPEK_clean_linker_0, # of connection points: 2
#     Edge 37, Type (0, 1), BuildingBlock: EZIPEK_clean_linker_0, # of connection points: 2
#     Edge 38, Type (0, 1), BuildingBlock: EZIPEK_clean_linker_0, # of connection points: 2
#     Edge 39, Type (0, 1), BuildingBlock: EZIPEK_clean_linker_0, # of connection points: 2
#     Edge 40, Type (0, 1), BuildingBlock: EZIPEK_clean_linker_0, # of connection points: 2
#     Edge 41, Type (0, 1), BuildingBlock: EZIPEK_clean_linker_0, # of connection points: 2
#     Edge 42, Type (0, 1), BuildingBlock: EZIPEK_clean_linker_0, # of connection points: 2
#     Edge 43, Type (0, 1), BuildingBlock: EZIPEK_clean_linker_0, # of connection points: 2
#     Edge 44, Type (0, 1), BuildingBlock: EZIPEK_clean_linker_0, # of connection points: 2
#     Edge 45, Type (0, 1), BuildingBlock: EZIPEK_clean_linker_0, # of connection points: 2
#     Edge 46, Type (0, 1), BuildingBlock: EZIPEK_clean_linker_0, # of connection points: 2
#     Edge 47, Type (0, 1), BuildingBlock: EZIPEK_clean_linker_0, # of connection points: 2
#     Edge 48, Type (0, 1), BuildingBlock: EZIPEK_clean_linker_0, # of connection points: 2
#     Edge 49, Type (0, 1), BuildingBlock: EZIPEK_clean_linker_0, # of connection points: 2
#     Edge 50, Type (0, 1), BuildingBlock: EZIPEK_clean_linker_0, # of connection points: 2
#     Edge 51, Type (0, 1), BuildingBlock: EZIPEK_clean_linker_0, # of connection points: 2
#     Edge 52, Type (0, 1), BuildingBlock: EZIPEK_clean_linker_0, # of connection points: 2
#     Edge 53, Type (0, 1), BuildingBlock: EZIPEK_clean_linker_0, # of connection points: 2
#     Edge 54, Type (0, 1), BuildingBlock: EZIPEK_clean_linker_0, # of connection points: 2
#     Edge 55, Type (0, 1), BuildingBlock: EZIPEK_clean_linker_0, # of connection points: 2
#     Edge 56, Type (0, 1), BuildingBlock: EZIPEK_clean_linker_0, # of connection points: 2
#     Edge 57, Type (0, 1), BuildingBlock: EZIPEK_clean_linker_0, # of connection points: 2
#     Edge 58, Type (0, 1), BuildingBlock: EZIPEK_clean_linker_0, # of connection points: 2
#     Edge 59, Type (0, 1), BuildingBlock: EZIPEK_clean_linker_0, # of connection points: 2
#     Edge 60, Type (0, 1), BuildingBlock: EZIPEK_clean_linker_0, # of connection points: 2
#     Edge 61, Type (0, 1), BuildingBlock: EZIPEK_clean_linker_0, # of connection points: 2
#     Edge 62, Type (0, 1), BuildingBlock: EZIPEK_clean_linker_0, # of connection points: 2
#     Edge 63, Type (0, 1), BuildingBlock: EZIPEK_clean_linker_0, # of connection points: 2
#     Edge 64, Type (0, 1), BuildingBlock: EZIPEK_clean_linker_0, # of connection points: 2
#     Edge 65, Type (0, 1), BuildingBlock: EZIPEK_clean_linker_0, # of connection points: 2
#     Edge 66, Type (0, 1), BuildingBlock: EZIPEK_clean_linker_0, # of connection points: 2
#     Edge 67, Type (0, 1), BuildingBlock: EZIPEK_clean_linker_0, # of connection points: 2
#     Edge 68, Type (0, 1), BuildingBlock: EZIPEK_clean_linker_0, # of connection points: 2
#     Edge 69, Type (0, 1), BuildingBlock: EZIPEK_clean_linker_0, # of connection points: 2
#     Edge 70, Type (0, 1), BuildingBlock: EZIPEK_clean_linker_0, # of connection points: 2
#     Edge 71, Type (0, 1), BuildingBlock: EZIPEK_clean_linker_0, # of connection points: 2
#     Edge 72, Type (0, 1), BuildingBlock: EZIPEK_clean_linker_0, # of connection points: 2
#     Edge 73, Type (0, 1), BuildingBlock: EZIPEK_clean_linker_0, # of connection points: 2
#     Edge 74, Type (0, 1), BuildingBlock: EZIPEK_clean_linker_0, # of connection points: 2
#     Edge 75, Type (0, 1), BuildingBlock: EZIPEK_clean_linker_0, # of connection points: 2
#     Edge 76, Type (0, 1), BuildingBlock: EZIPEK_clean_linker_0, # of connection points: 2
#     Edge 77, Type (0, 1), BuildingBlock: EZIPEK_clean_linker_0, # of connection points: 2
#     Edge 78, Type (0, 1), BuildingBlock: EZIPEK_clean_linker_0, # of connection points: 2
#     Edge 79, Type (0, 1), BuildingBlock: EZIPEK_clean_linker_0, # of connection points: 2
#     Edge 80, Type (0, 1), BuildingBlock: EZIPEK_clean_linker_0, # of connection points: 2
# Relax obj value: 0.095
# Max RMSD: 0.182
# Mean RMSD: 0.092
data_MOF--net-eea--node1-LEVNOQ01_clean_sbu_1--node2-MIDCAF_clean_linker_0--edge1-EZIPEK_clean_linker_0
_symmetry_space_group_name_H-M    P1
_symmetry_Int_Tables_number       1
_symmetry_cell_setting            triclinic
loop_
_symmetry_equiv_pos_as_xyz
'x, y, z'
_cell_length_a     51.633141
_cell_length_b     51.112779
_cell_length_c     52.512609
_cell_angle_alpha  90.331049
_cell_angle_beta   90.305843
_cell_angle_gamma 119.95403
loop_
_atom_site_label
_atom_site_type_symbol
_atom_site_fract_x
_atom_site_fract_y
_atom_site_fract_z
_atom_type_partial_charge
C0 C 0.2145 0.02803 0.39165 0.0
C1 C 0.21526 0.01796 0.36696 0.0
C2 C 0.23439 0.03845 0.34878 0.0
C3 C 0.25303 0.06874 0.35545 0.0
H4 H 0.22151 0.13345 0.35584 0.0
H5 H 0.19405 0.1574 0.34137 0.0
H6 H 0.25467 0.23879 0.38248 0.0
H7 H 0.28237 0.21431 0.3983 0.0
H8 H 0.29353 0.18157 0.45803 0.0
H9 H 0.30446 0.17903 0.50311 0.0
H10 H 0.3398 0.12079 0.48432 0.0
H11 H 0.32929 0.12335 0.43924 0.0
H12 H 0.23308 0.06538 0.41774 0.0
H13 H 0.19977 0.01243 0.40581 0.0
H14 H 0.23514 0.03088 0.32962 0.0
H15 H 0.26736 0.08454 0.34122 0.0
N16 N 0.26164 0.12872 0.37701 0.0
N17 N 0.28657 0.16466 0.40938 0.0
N18 N 0.28696 0.11888 0.40893 0.0
C19 C 0.26953 0.15588 0.3877 0.0
C20 C 0.29599 0.14632 0.41969 0.0
C21 C 0.27012 0.11019 0.38747 0.0
C22 C 0.25447 0.17208 0.37816 0.0
C23 C 0.22934 0.15648 0.36199 0.0
C24 C 0.21329 0.16998 0.35378 0.0
C25 C 0.22234 0.19969 0.36089 0.0
C26 C 0.24742 0.21569 0.37692 0.0
C27 C 0.26328 0.20182 0.38576 0.0
C28 C 0.31017 0.15233 0.44516 0.0
C29 C 0.30461 0.16913 0.46335 0.0
C30 C 0.3106 0.16749 0.48909 0.0
C31 C 0.32246 0.14935 0.49684 0.0
C32 C 0.33046 0.13471 0.47857 0.0
C33 C 0.32447 0.13629 0.45288 0.0
C34 C 0.2533 0.07834 0.38052 0.0
C35 C 0.23383 0.05795 0.39852 0.0
C36 C 0.96077 0.17538 0.38566 0.0
C37 C 0.97034 0.19587 0.36545 0.0
C38 C 0.9493 0.19994 0.35156 0.0
C39 C 0.91918 0.1845 0.35848 0.0
H40 H 0.85218 0.07935 0.3444 0.0
H41 H 0.82812 0.02682 0.33024 0.0
H42 H 0.7532 0.00495 0.37897 0.0
H43 H 0.77708 0.05746 0.39366 0.0
H44 H 0.7978 0.08923 0.44661 0.0
H45 H 0.788 0.09147 0.4917 0.0
H46 H 0.85467 0.18596 0.49412 0.0
H47 H 0.86526 0.18395 0.44894 0.0
H48 H 0.92403 0.14546 0.409 0.0
H49 H 0.97671 0.17197 0.39654 0.0
H50 H 0.95635 0.21567 0.3359 0.0
H51 H 0.90311 0.18773 0.34762 0.0
N52 N 0.86073 0.12292 0.37331 0.0
N53 N 0.82383 0.1084 0.40428 0.0
N54 N 0.86945 0.15337 0.40955 0.0
C55 C 0.83321 0.10285 0.38193 0.0
C56 C 0.8416 0.13364 0.41814 0.0
C57 C 0.87872 0.1483 0.3868 0.0
C58 C 0.8166 0.07257 0.37028 0.0
C59 C 0.83049 0.06354 0.35204 0.0
C60 C 0.81709 0.03351 0.3442 0.0
C61 C 0.78948 0.01227 0.3542 0.0
C62 C 0.77493 0.0212 0.37163 0.0
C63 C 0.78842 0.05121 0.37968 0.0
C64 C 0.83255 0.13645 0.44421 0.0
C65 C 0.81001 0.11074 0.4565 0.0
C66 C 0.80427 0.11187 0.48227 0.0
C67 C 0.8205 0.13885 0.49605 0.0
C68 C 0.84183 0.16498 0.48361 0.0
C69 C 0.84792 0.16378 0.45788 0.0
C70 C 0.91015 0.16562 0.37974 0.0
C71 C 0.93094 0.16072 0.393 0.0
C72 C 0.81425 0.77704 0.36834 0.0
C73 C 0.78412 0.76144 0.36102 0.0
C74 C 0.76927 0.73001 0.35731 0.0
C75 C 0.78407 0.71403 0.36261 0.0
H76 H 0.90106 0.75452 0.34693 0.0
H77 H 0.95263 0.77751 0.33331 0.0
H78 H 0.96773 0.72128 0.38511 0.0
H79 H 0.91566 0.69805 0.39948 0.0
H80 H 0.8719 0.68414 0.45323 0.0
H81 H 0.86197 0.67619 0.49892 0.0
H82 H 0.77813 0.67404 0.48819 0.0
H83 H 0.7873 0.68131 0.44262 0.0
H84 H 0.85206 0.77347 0.37995 0.0
H85 H 0.82574 0.80123 0.37163 0.0
H86 H 0.74587 0.71781 0.35181 0.0
H87 H 0.77208 0.68962 0.36108 0.0
N88 N 0.85528 0.72036 0.37141 0.0
N89 N 0.86513 0.69966 0.40739 0.0
N90 N 0.82019 0.70048 0.40388 0.0
C91 C 0.87357 0.71301 0.38417 0.0
C92 C 0.83816 0.69312 0.41728 0.0
C93 C 0.82854 0.7138 0.38092 0.0
C94 C 0.90416 0.72438 0.37444 0.0
C95 C 0.91502 0.74654 0.35532 0.0
C96 C 0.94455 0.75985 0.34745 0.0
C97 C 0.96374 0.75099 0.35817 0.0
C98 C 0.95299 0.72826 0.37665 0.0
C99 C 0.92336 0.71508 0.38483 0.0
C100 C 0.83054 0.68355 0.44414 0.0
C101 C 0.85107 0.68137 0.46044 0.0
C102 C 0.84551 0.67699 0.48656 0.0
C103 C 0.81938 0.67468 0.4968 0.0
C104 C 0.79838 0.67576 0.48057 0.0
C105 C 0.80376 0.67989 0.45448 0.0
C106 C 0.81389 0.72965 0.37093 0.0
C107 C 0.82915 0.76122 0.37306 0.0
C108 C 0.03274 0.25245 0.62149 0.0
C109 C 0.02372 0.23253 0.6421 0.0
C110 C 0.04468 0.22778 0.65509 0.0
C111 C 0.07441 0.24274 0.6475 0.0
H112 H 0.14947 0.25117 0.6686 0.0
H113 H 0.17168 0.22251 0.68549 0.0
H114 H 0.23833 0.25778 0.62679 0.0
H115 H 0.21587 0.28604 0.60911 0.0
H116 H 0.20393 0.31516 0.5606 0.0
H117 H 0.21535 0.32804 0.5157 0.0
H118 H 0.1269 0.3144 0.50325 0.0
H119 H 0.11502 0.30141 0.54806 0.0
H120 H 0.06886 0.28212 0.59744 0.0
H121 H 0.0166 0.2562 0.61127 0.0
H122 H 0.03794 0.21232 0.67093 0.0
H123 H 0.08994 0.23817 0.65779 0.0
N124 N 0.13461 0.27222 0.63165 0.0
N125 N 0.16999 0.29241 0.59935 0.0
N126 N 0.1227 0.28785 0.59376 0.0
C127 C 0.16216 0.28039 0.62297 0.0
C128 C 0.15053 0.29656 0.5847 0.0
C129 C 0.11472 0.27573 0.61739 0.0
C130 C 0.18046 0.27035 0.63704 0.0
C131 C 0.16928 0.25349 0.65951 0.0
C132 C 0.1819 0.23709 0.66932 0.0
C133 C 0.20631 0.23792 0.65718 0.0
C134 C 0.21934 0.25693 0.63628 0.0
C135 C 0.20652 0.27308 0.62624 0.0
C136 C 0.15843 0.30706 0.55804 0.0
C137 C 0.18688 0.31506 0.54844 0.0
C138 C 0.19351 0.3224 0.52278 0.0
C139 C 0.17187 0.3219 0.50627 0.0
C140 C 0.1438 0.31475 0.51579 0.0
C141 C 0.13712 0.30742 0.54144 0.0
C142 C 0.08364 0.26235 0.62647 0.0
C143 C 0.06251 0.26723 0.61365 0.0
C144 C 0.77707 0.80635 0.60906 0.0
C145 C 0.77436 0.79504 0.6338 0.0
C146 C 0.75395 0.79629 0.65063 0.0
C147 C 0.73734 0.80975 0.64311 0.0
H148 H 0.76812 0.90568 0.65997 0.0
H149 H 0.79345 0.95606 0.67972 0.0
H150 H 0.74974 0.98558 0.62646 0.0
H151 H 0.72416 0.93569 0.60672 0.0
H152 H 0.72121 0.90504 0.54959 0.0
H153 H 0.70575 0.90232 0.5051 0.0
H154 H 0.64784 0.80605 0.51167 0.0
H155 H 0.66441 0.80842 0.55594 0.0
H156 H 0.76271 0.82808 0.58232 0.0
H157 H 0.79274 0.80563 0.59584 0.0
H158 H 0.75147 0.78755 0.66976 0.0
H159 H 0.72281 0.81192 0.65671 0.0
N160 N 0.73634 0.86556 0.62621 0.0
N161 N 0.71575 0.88354 0.59601 0.0
N162 N 0.71322 0.83692 0.58933 0.0
C163 C 0.73049 0.88728 0.61836 0.0
C164 C 0.70669 0.85835 0.58159 0.0
C165 C 0.72767 0.84035 0.61191 0.0
C166 C 0.74407 0.91665 0.63176 0.0
C167 C 0.76384 0.92287 0.65247 0.0
C168 C 0.77865 0.95164 0.66356 0.0
C169 C 0.77385 0.97438 0.65402 0.0
C170 C 0.75405 0.96825 0.63359 0.0
C171 C 0.73923 0.93963 0.62257 0.0
C172 C 0.69416 0.85683 0.55603 0.0
C173 C 0.70477 0.88335 0.54167 0.0
C174 C 0.6959 0.88192 0.51632 0.0
C175 C 0.67557 0.85408 0.5052 0.0
C176 C 0.66346 0.8278 0.52004 0.0
C177 C 0.67305 0.82909 0.54517 0.0
C178 C 0.74014 0.82103 0.61837 0.0
C179 C 0.75966 0.81873 0.60125 0.0
C180 C 0.204 0.95501 0.60572 0.0
C181 C 0.20865 0.9643 0.63125 0.0
C182 C 0.19839 0.94276 0.65068 0.0
C183 C 0.1837 0.91205 0.64458 0.0
H184 H 0.10208 0.83177 0.66231 0.0
H185 H 0.05099 0.8054 0.67855 0.0
H186 H 0.02295 0.74402 0.61443 0.0
H187 H 0.07372 0.77001 0.5979 0.0
H188 H 0.1115 0.79721 0.54513 0.0
H189 H 0.11992 0.79886 0.49913 0.0
H190 H 0.21444 0.85788 0.51152 0.0
H191 H 0.20635 0.85629 0.55748 0.0
H192 H 0.18668 0.91772 0.57973 0.0
H193 H 0.21163 0.97146 0.59059 0.0
H194 H 0.20182 0.94978 0.67051 0.0
H195 H 0.17574 0.89565 0.65976 0.0
N196 N 0.13906 0.85105 0.62516 0.0
N197 N 0.12764 0.81395 0.59366 0.0
N198 N 0.17029 0.86164 0.59008 0.0
C199 C 0.12099 0.82255 0.61618 0.0
C200 C 0.15273 0.83335 0.58085 0.0
C201 C 0.16364 0.87064 0.6121 0.0
C202 C 0.09192 0.80328 0.62855 0.0
C203 C 0.0852 0.81233 0.65184 0.0
C204 C 0.05609 0.79736 0.66121 0.0
C205 C 0.03343 0.77317 0.64743 0.0
C206 C 0.04035 0.76285 0.62514 0.0
C207 C 0.06939 0.77769 0.61579 0.0
C208 C 0.15826 0.8268 0.55478 0.0
C209 C 0.13418 0.80956 0.53814 0.0
C210 C 0.13891 0.81072 0.51192 0.0
C211 C 0.16772 0.82881 0.5022 0.0
C212 C 0.19209 0.84397 0.51885 0.0
C213 C 0.18739 0.84292 0.545 0.0
C214 C 0.1798 0.90274 0.61902 0.0
C215 C 0.19003 0.92442 0.59963 0.0
C216 C 0.8711 0.34552 0.74551 0.0
C217 C 0.87002 0.33372 0.72115 0.0
C218 C 0.88395 0.35331 0.70071 0.0
C219 C 0.90004 0.38443 0.70477 0.0
H220 H 0.89294 0.46918 0.68975 0.0
H221 H 0.87119 0.49997 0.67679 0.0
H222 H 0.91212 0.5586 0.7418 0.0
H223 H 0.93429 0.52816 0.75497 0.0
H224 H 0.96967 0.51332 0.7936 0.0
H225 H 0.98486 0.51496 0.83788 0.0
H226 H 0.00254 0.44231 0.8232 0.0
H227 H 0.98723 0.44027 0.77871 0.0
H228 H 0.88959 0.38549 0.76881 0.0
H229 H 0.86012 0.33063 0.76134 0.0
H230 H 0.88304 0.34441 0.68173 0.0
H231 H 0.91117 0.39928 0.68894 0.0
N232 N 0.91341 0.44763 0.72403 0.0
N233 N 0.94898 0.48671 0.75003 0.0
N234 N 0.94285 0.43823 0.75241 0.0
C235 C 0.92724 0.47692 0.73181 0.0
C236 C 0.95728 0.46753 0.76005 0.0
C237 C 0.92119 0.42832 0.73433 0.0
C238 C 0.91548 0.49638 0.72329 0.0
C239 C 0.89719 0.4885 0.70141 0.0
C240 C 0.88444 0.50575 0.69415 0.0
C241 C 0.8896 0.53092 0.70875 0.0
C242 C 0.90749 0.53875 0.73074 0.0
C243 C 0.92053 0.52168 0.7379 0.0
C244 C 0.97642 0.47604 0.78295 0.0
C245 C 0.97796 0.49852 0.79943 0.0
C246 C 0.98651 0.49943 0.82475 0.0
C247 C -0.00597 0.47826 0.83363 0.0
C248 C -0.00354 0.45855 0.81651 0.0
C249 C 0.98767 0.45744 0.79119 0.0
C250 C 0.90284 0.39604 0.72942 0.0
C251 C 0.88798 0.3766 0.74971 0.0
C252 C 0.63785 0.54127 0.722 0.0
C253 C 0.64279 0.54016 0.69585 0.0
C254 C 0.61874 0.52208 0.67958 0.0
C255 C 0.59007 0.5049 0.68948 0.0
H256 H 0.52743 0.41501 0.68454 0.0
H257 H 0.4984 0.36457 0.66561 0.0
H258 H 0.4329 0.33939 0.72483 0.0
H259 H 0.46136 0.38957 0.74394 0.0
H260 H 0.51886 0.44055 0.80174 0.0
H261 H 0.50799 0.44906 0.84526 0.0
H262 H 0.49268 0.52012 0.81891 0.0
H263 H 0.50561 0.5128 0.77528 0.0
H264 H 0.60601 0.52557 0.75211 0.0
H265 H 0.65622 0.55551 0.73473 0.0
H266 H 0.62215 0.52151 0.65929 0.0
H267 H 0.5718 0.4907 0.67665 0.0
N268 N 0.53868 0.45811 0.71553 0.0
N269 N 0.50474 0.44362 0.74902 0.0
N270 N 0.54688 0.49222 0.74887 0.0
C271 C 0.5133 0.43698 0.72669 0.0
C272 C 0.52111 0.47128 0.75993 0.0
C273 C 0.55558 0.48565 0.72646 0.0
C274 C 0.49652 0.40639 0.71563 0.0
C275 C 0.507 0.39868 0.69373 0.0
C276 C 0.49077 0.36985 0.68305 0.0
C277 C 0.464 0.34849 0.69418 0.0
C278 C 0.45392 0.35569 0.71639 0.0
C279 C 0.47004 0.38444 0.72706 0.0
C280 C 0.51341 0.47635 0.78554 0.0
C281 C 0.51328 0.45805 0.80534 0.0
C282 C 0.50692 0.46278 0.83008 0.0
C283 C 0.49973 0.48534 0.83533 0.0
C284 C 0.49844 0.50277 0.81524 0.0
C285 C 0.5059 0.49873 0.7905 0.0
C286 C 0.58507 0.50612 0.71567 0.0
C287 C 0.60916 0.52461 0.73181 0.0
C288 C 0.48199 0.11307 0.6934 0.0
C289 C 0.45084 0.09632 0.69102 0.0
C290 C 0.43591 0.06471 0.69294 0.0
C291 C 0.45193 0.05025 0.69927 0.0
H292 H 0.56535 0.07912 0.6709 0.0
H293 H 0.61612 0.10377 0.65497 0.0
H294 H 0.64653 0.08321 0.72459 0.0
H295 H 0.59543 0.05885 0.74135 0.0
H296 H 0.54377 0.02626 0.78779 0.0
H297 H 0.53161 0.01495 0.83298 0.0
H298 H 0.44755 0.01187 0.82079 0.0
H299 H 0.45892 0.02247 0.77586 0.0
H300 H 0.52196 0.11212 0.70199 0.0
H301 H 0.49369 0.13748 0.69222 0.0
H302 H 0.41178 0.05161 0.69122 0.0
H303 H 0.44008 0.02609 0.70234 0.0
N304 N 0.52666 0.06145 0.70484 0.0
N305 N 0.53794 0.04314 0.74165 0.0
N306 N 0.49171 0.04128 0.73738 0.0
C307 C 0.54584 0.05572 0.71806 0.0
C308 C 0.51056 0.03559 0.75132 0.0
C309 C 0.49962 0.05407 0.71419 0.0
C310 C 0.57622 0.0671 0.70762 0.0
C311 C 0.58264 0.07959 0.68299 0.0
C312 C 0.61169 0.09379 0.67373 0.0
C313 C 0.6349 0.09535 0.68863 0.0
C314 C 0.6287 0.08218 0.71288 0.0
C315 C 0.59952 0.06813 0.72235 0.0
C316 C 0.50246 0.0254 0.77805 0.0
C317 C 0.5225 0.02271 0.7946 0.0
C318 C 0.51563 0.01634 0.82042 0.0
C319 C 0.48867 0.01259 0.83012 0.0
C320 C 0.46838 0.01458 0.81362 0.0
C321 C 0.47505 0.02066 0.78788 0.0
C322 C 0.48299 0.06728 0.7028 0.0
C323 C 0.49802 0.09857 0.69891 0.0
C324 C 0.69226 0.54025 0.94911 0.0
C325 C 0.68222 0.55028 0.96973 0.0
C326 C 0.70225 0.57738 0.98233 0.0
C327 C 0.73196 0.5941 0.97443 0.0
H328 H 0.80791 0.57588 0.99823 0.0
H329 H 0.83195 0.54931 0.01615 0.0
H330 H 0.89902 0.58604 0.95788 0.0
H331 H 0.87503 0.61244 0.93942 0.0
H332 H 0.86276 0.64028 0.88942 0.0
H333 H 0.87358 0.6532 0.84432 0.0
H334 H 0.7846 0.63854 0.83284 0.0
H335 H 0.7735 0.62585 0.87763 0.0
H336 H 0.7289 0.54937 0.92472 0.0
H337 H 0.67722 0.51932 0.93928 0.0
H338 H 0.69492 0.58544 0.99833 0.0
H339 H 0.74738 0.61454 0.9847 0.0
N340 N 0.79264 0.59672 0.96091 0.0
N341 N 0.82877 0.61763 0.92901 0.0
N342 N 0.78111 0.61158 0.92239 0.0
C343 C 0.82059 0.60544 0.95262 0.0
C344 C 0.80925 0.62115 0.91388 0.0
C345 C 0.77298 0.59992 0.94604 0.0
C346 C 0.83918 0.59585 0.96699 0.0
C347 C 0.82814 0.57891 0.98944 0.0
C348 C 0.84177 0.56364 -0.00022 0.0
C349 C 0.86692 0.56551 0.9881 0.0
C350 C 0.87944 0.58429 0.967 0.0
C351 C 0.86574 0.59943 0.95653 0.0
C352 C 0.81712 0.63172 0.88722 0.0
C353 C 0.84552 0.64 0.87739 0.0
C354 C 0.85178 0.64733 0.85163 0.0
C355 C 0.82972 0.64638 0.83529 0.0
C356 C 0.80179 0.63911 0.84516 0.0
C357 C 0.79554 0.63192 0.87084 0.0
C358 C 0.74154 0.5844 0.95333 0.0
C359 C 0.72156 0.55749 0.94068 0.0
C360 C 0.4298 0.12641 0.92904 0.0
C361 C 0.43495 0.12066 0.9541 0.0
C362 C 0.42279 0.12873 0.97445 0.0
C363 C 0.40625 0.14304 0.96987 0.0
H364 H 0.42679 0.23076 0.99132 0.0
H365 H 0.45255 0.28083 0.01172 0.0
H366 H 0.4041 0.30977 0.96331 0.0
H367 H 0.37805 0.26022 0.94307 0.0
H368 H 0.38387 0.23494 0.8819 0.0
H369 H 0.37121 0.23461 0.8369 0.0
H370 H 0.30575 0.13984 0.84165 0.0
H371 H 0.31983 0.13968 0.88635 0.0
H372 H 0.40959 0.14506 0.90496 0.0
H373 H 0.43907 0.12029 0.91316 0.0
H374 H 0.42647 0.12431 0.9939 0.0
H375 H 0.39782 0.14988 0.98592 0.0
N376 N 0.39547 0.19205 0.95625 0.0
N377 N 0.37277 0.21047 0.92863 0.0
N378 N 0.37289 0.16587 0.91827 0.0
C379 C 0.38789 0.21319 0.95055 0.0
C380 C 0.36482 0.18676 0.91265 0.0
C381 C 0.388 0.16833 0.94028 0.0
C382 C 0.40052 0.24155 0.9654 0.0
C383 C 0.42143 0.24769 0.98515 0.0
C384 C 0.43642 0.27628 0.99662 0.0
C385 C 0.43064 0.29887 0.9884 0.0
C386 C 0.40916 0.29256 0.96939 0.0
C387 C 0.39413 0.26414 0.95805 0.0
C388 C 0.35298 0.1872 0.8873 0.0
C389 C 0.3663 0.2142 0.87344 0.0
C390 C 0.35898 0.21414 0.84783 0.0
C391 C 0.33748 0.18729 0.83603 0.0
C392 C 0.32232 0.16084 0.85053 0.0
C393 C 0.33045 0.16065 0.8759 0.0
C394 C 0.40123 0.14907 0.94483 0.0
C395 C 0.41268 0.14015 0.92441 0.0
C396 C 0.84432 0.2918 0.94681 0.0
C397 C 0.85847 0.30083 0.97066 0.0
C398 C 0.85759 0.27917 0.98752 0.0
C399 C 0.84414 0.24891 0.97998 0.0
H400 H 0.76088 0.15788 0.99405 0.0
H401 H 0.70884 0.12875 0.00739 0.0
H402 H 0.6855 0.07944 0.93624 0.0
H403 H 0.73744 0.10863 0.92244 0.0
H404 H 0.78114 0.14038 0.87373 0.0
H405 H 0.79414 0.14542 0.82848 0.0
H406 H 0.88479 0.2131 0.84711 0.0
H407 H 0.87204 0.20842 0.89233 0.0
H408 H 0.82205 0.25534 0.92007 0.0
H409 H 0.84476 0.3083 0.93369 0.0
H410 H 0.8684 0.28591 0.00603 0.0
H411 H 0.8443 0.23249 0.99283 0.0
N412 N 0.79672 0.18658 0.95748 0.0
N413 N 0.79188 0.1542 0.92356 0.0
N414 N 0.8302 0.2048 0.92363 0.0
C415 C 0.78225 0.15875 0.94642 0.0
C416 C 0.81642 0.17713 0.91243 0.0
C417 C 0.82055 0.20956 0.9461 0.0
C418 C 0.75319 0.13598 0.95694 0.0
C419 C 0.74486 0.14038 0.98141 0.0
C420 C 0.71518 0.12381 0.98912 0.0
C421 C 0.69353 0.10241 0.9726 0.0
C422 C 0.7021 0.09609 0.94911 0.0
C423 C 0.7318 0.11267 0.94134 0.0
C424 C 0.82551 0.17423 0.88647 0.0
C425 C 0.80404 0.15563 0.86828 0.0
C426 C 0.81136 0.15864 0.84246 0.0
C427 C 0.84028 0.17994 0.83466 0.0
C428 C 0.86235 0.19675 0.8529 0.0
C429 C 0.85499 0.19398 0.87865 0.0
C430 C 0.83221 0.24042 0.95535 0.0
C431 C 0.83173 0.2618 0.93902 0.0
C432 C 0.54122 0.69806 0.05103 0.0
C433 C 0.55026 0.68962 0.02887 0.0
C434 C 0.57319 0.71174 0.01399 0.0
C435 C 0.58832 0.74187 0.02218 0.0
H436 H 0.58454 0.83577 0.01818 0.0
H437 H 0.56358 0.86844 0.01017 0.0
H438 H 0.58927 0.90645 0.08577 0.0
H439 H 0.61061 0.87383 0.09412 0.0
H440 H 0.64127 0.85014 0.13008 0.0
H441 H 0.65095 0.84453 0.17464 0.0
H442 H 0.65188 0.76272 0.15631 0.0
H443 H 0.64204 0.76787 0.11149 0.0
H444 H 0.55045 0.73393 0.07729 0.0
H445 H 0.52368 0.68117 0.06273 0.0
H446 H 0.58043 0.7054 0.99687 0.0
H447 H 0.60692 0.75857 0.01123 0.0
N448 N 0.59506 0.80285 0.04915 0.0
N449 N 0.6233 0.83156 0.08439 0.0
N450 N 0.61478 0.78251 0.07805 0.0
C451 C 0.60739 0.829 0.06289 0.0
C452 C 0.62743 0.80849 0.0919 0.0
C453 C 0.59897 0.77975 0.05658 0.0
C454 C 0.59903 0.85202 0.05685 0.0
C455 C 0.58605 0.85124 0.03308 0.0
C456 C 0.57395 0.86976 0.02849 0.0
C457 C 0.57452 0.88931 0.04756 0.0
C458 C 0.58842 0.89115 0.07101 0.0
C459 C 0.6008 0.87271 0.07559 0.0
C460 C 0.64024 0.80911 0.11728 0.0
C461 C 0.64421 0.8313 0.13528 0.0
C462 C 0.64963 0.82811 0.16077 0.0
C463 C 0.65149 0.80293 0.16858 0.0
C464 C 0.65016 0.78209 0.15047 0.0
C465 C 0.64454 0.78515 0.12494 0.0
C466 C 0.58065 0.74978 0.04534 0.0
C467 C 0.55656 0.72798 0.05936 0.0
C468 C 0.29523 0.84641 0.05012 0.0
C469 C 0.30413 0.8673 0.03025 0.0
C470 C 0.28272 0.87168 0.01735 0.0
C471 C 0.2529 0.85629 0.02509 0.0
H472 H 0.1824 0.75413 0.00792 0.0
H473 H 0.15672 0.70302 0.99044 0.0
H474 H 0.08915 0.67573 0.04808 0.0
H475 H 0.11484 0.72684 0.06622 0.0
H476 H 0.1353 0.76254 0.11702 0.0
H477 H 0.1277 0.76628 0.16239 0.0
H478 H 0.19555 0.86035 0.16241 0.0
H479 H 0.20389 0.85686 0.11689 0.0
H480 H 0.25938 0.81634 0.07412 0.0
H481 H 0.31152 0.84284 0.06027 0.0
H482 H 0.28929 0.88777 0.00199 0.0
H483 H 0.2365 0.85982 0.0151 0.0
N484 N 0.19507 0.79462 0.04123 0.0
N485 N 0.15981 0.78015 0.07366 0.0
N486 N 0.20552 0.82541 0.07743 0.0
C487 C 0.1681 0.7745 0.05075 0.0
C488 C 0.1782 0.8057 0.08701 0.0
C489 C 0.21365 0.8201 0.05426 0.0
C490 C 0.15066 0.7446 0.03851 0.0
C491 C 0.16204 0.73741 0.01694 0.0
C492 C 0.14766 0.7082 0.00704 0.0
C493 C 0.1215 0.68587 0.01831 0.0
C494 C 0.10964 0.69286 0.03948 0.0
C495 C 0.12415 0.72208 0.04957 0.0
C496 C 0.17047 0.80938 0.11336 0.0
C497 C 0.14828 0.78424 0.12645 0.0
C498 C 0.14383 0.78625 0.15239 0.0
C499 C 0.16107 0.81352 0.16556 0.0
C500 C 0.18201 0.83915 0.15238 0.0
C501 C 0.18681 0.83707 0.12645 0.0
C502 C 0.24466 0.83719 0.04618 0.0
C503 C 0.26575 0.83181 0.05829 0.0
C504 C 0.15447 0.45578 0.04342 0.0
C505 C 0.12926 0.44291 0.02741 0.0
C506 C 0.11705 0.41285 0.019 0.0
C507 C 0.12942 0.39548 0.02727 0.0
H508 H 0.23063 0.41162 0.00697 0.0
H509 H 0.28199 0.43654 0.99221 0.0
H510 H 0.30812 0.40528 0.05827 0.0
H511 H 0.25667 0.38083 0.07387 0.0
H512 H 0.20798 0.35028 0.11946 0.0
H513 H 0.1997 0.33939 0.165 0.0
H514 H 0.12039 0.34705 0.16126 0.0
H515 H 0.12799 0.35749 0.11582 0.0
H516 H 0.18578 0.44843 0.0646 0.0
H517 H 0.16405 0.47891 0.05006 0.0
H518 H 0.0976 0.40272 0.00655 0.0
H519 H 0.11978 0.37226 0.02086 0.0
N520 N 0.19263 0.39502 0.04197 0.0
N521 N 0.20174 0.37119 0.07604 0.0
N522 N 0.15947 0.37711 0.07602 0.0
C523 C 0.20986 0.3851 0.05302 0.0
C524 C 0.17621 0.36674 0.08751 0.0
C525 C 0.16741 0.39082 0.05315 0.0
C526 C 0.23952 0.39454 0.04189 0.0
C527 C 0.2471 0.40964 0.01836 0.0
C528 C 0.27646 0.42397 0.0098 0.0
C529 C 0.29872 0.4229 0.02425 0.0
C530 C 0.29108 0.40636 0.04694 0.0
C531 C 0.26167 0.39226 0.05574 0.0
C532 C 0.16892 0.3552 0.11393 0.0
C533 C 0.18841 0.34902 0.12812 0.0
C534 C 0.18372 0.34277 0.15414 0.0
C535 C 0.15952 0.34257 0.16635 0.0
C536 C 0.13915 0.3471 0.15207 0.0
C537 C 0.14368 0.35315 0.12608 0.0
C538 C 0.15392 0.40815 0.04404 0.0
C539 C 0.16662 0.43839 0.05181 0.0
C540 C 0.36018 0.88919 0.27712 0.0
C541 C 0.35392 0.88829 0.30319 0.0
C542 C 0.37738 0.89959 0.32102 0.0
C543 C 0.40688 0.9123 0.31281 0.0
H544 H 0.48544 0.91713 0.33484 0.0
H545 H 0.51417 0.89724 0.35622 0.0
H546 H 0.57734 0.92887 0.29478 0.0
H547 H 0.54925 0.949 0.2733 0.0
H548 H 0.53633 0.97413 0.22425 0.0
H549 H 0.54976 0.98943 0.18003 0.0
H550 H 0.45879 0.96554 0.16314 0.0
H551 H 0.44489 0.9501 0.20731 0.0
H552 H 0.39392 0.90323 0.24864 0.0
H553 H 0.34225 0.88085 0.26312 0.0
H554 H 0.37292 0.89952 0.34117 0.0
H555 H 0.42467 0.92131 0.32695 0.0
N556 N 0.46536 0.9282 0.29388 0.0
N557 N 0.50145 0.94982 0.26212 0.0
N558 N 0.45234 0.93895 0.25403 0.0
C559 C 0.49382 0.93892 0.2861 0.0
C560 C 0.48096 0.95018 0.246 0.0
C561 C 0.44453 0.92812 0.27806 0.0
C562 C 0.51464 0.93395 0.30198 0.0
C563 C 0.50585 0.92053 0.32613 0.0
C564 C 0.52217 0.90918 0.33844 0.0
C565 C 0.54729 0.9111 0.32666 0.0
C566 C 0.55768 0.92695 0.30387 0.0
C567 C 0.54158 0.93845 0.29165 0.0
C568 C 0.48943 0.96075 0.21943 0.0
C569 C 0.51908 0.97214 0.21123 0.0
C570 C 0.52688 0.98088 0.18596 0.0
C571 C 0.50521 0.9784 0.16844 0.0
C572 C 0.47574 0.96745 0.17648 0.0
C573 C 0.46789 0.95872 0.20176 0.0
C574 C 0.41332 0.91437 0.28663 0.0
C575 C 0.38967 0.90237 0.26888 0.0
C576 C 0.10035 0.46619 0.26811 0.0
C577 C 0.10183 0.45764 0.29317 0.0
C578 C 0.08542 0.46199 0.31229 0.0
C579 C 0.06826 0.47536 0.30654 0.0
H580 H 0.09643 0.56717 0.32222 0.0
H581 H 0.12665 0.61795 0.33965 0.0
H582 H 0.07943 0.64931 0.29229 0.0
H583 H 0.04939 0.59858 0.27398 0.0
H584 H 0.06078 0.55647 0.20864 0.0
H585 H 0.04626 0.54965 0.16366 0.0
H586 H 0.95975 0.47461 0.18271 0.0
H587 H 0.97532 0.48013 0.22778 0.0
H588 H 0.08218 0.4858 0.24286 0.0
H589 H 0.11304 0.46314 0.25318 0.0
H590 H 0.08635 0.45551 0.33174 0.0
H591 H 0.05669 0.47965 0.32171 0.0
N592 N 0.06195 0.52761 0.29055 0.0
N593 N 0.04017 0.54544 0.26131 0.0
N594 N 0.03785 0.49894 0.2541 0.0
C595 C 0.05561 0.54922 0.28332 0.0
C596 C 0.03056 0.51998 0.24705 0.0
C597 C 0.05322 0.50253 0.27611 0.0
C598 C 0.07051 0.57878 0.29656 0.0
C599 C 0.09217 0.58469 0.31554 0.0
C600 C 0.10968 0.61372 0.32543 0.0
C601 C 0.10534 0.63719 0.31703 0.0
C602 C 0.08311 0.63133 0.29879 0.0
C603 C 0.06584 0.60233 0.28855 0.0
C604 C 0.01911 0.51872 0.22131 0.0
C605 C 0.03851 0.53885 0.20318 0.0
C606 C 0.03022 0.535 0.17757 0.0
C607 C 0.00205 0.51147 0.16983 0.0
C608 C 0.98167 0.49278 0.18833 0.0
C609 C 0.99047 0.4959 0.21392 0.0
C610 C 0.06666 0.48375 0.28145 0.0
C611 C 0.08244 0.47867 0.2622 0.0
C612 C 0.53807 0.6242 0.27155 0.0
C613 C 0.54257 0.63395 0.29699 0.0
C614 C 0.53179 0.6127 0.31665 0.0
C615 C 0.51636 0.5819 0.3109 0.0
H616 H 0.42996 0.51104 0.32568 0.0
H617 H 0.37949 0.48812 0.34253 0.0
H618 H 0.34898 0.41763 0.28556 0.0
H619 H 0.39946 0.44065 0.26802 0.0
H620 H 0.44032 0.46833 0.21139 0.0
H621 H 0.45178 0.46923 0.16603 0.0
H622 H 0.54608 0.51754 0.18362 0.0
H623 H 0.53491 0.5167 0.22891 0.0
H624 H 0.51992 0.58638 0.24601 0.0
H625 H 0.54608 0.64041 0.25623 0.0
H626 H 0.53508 0.62002 0.33639 0.0
H627 H 0.50767 0.56576 0.32626 0.0
N628 N 0.46832 0.52259 0.29155 0.0
N629 N 0.45449 0.48387 0.26113 0.0
N630 N 0.50012 0.52916 0.25775 0.0
C631 C 0.44841 0.49445 0.2829 0.0
C632 C 0.48081 0.50106 0.24886 0.0
C633 C 0.49405 0.54001 0.27899 0.0
C634 C 0.4188 0.47786 0.29524 0.0
C635 C 0.4127 0.49048 0.31677 0.0
C636 C 0.38387 0.47747 0.32651 0.0
C637 C 0.36067 0.45135 0.31522 0.0
C638 C 0.36676 0.43787 0.29447 0.0
C639 C 0.39562 0.451 0.28454 0.0
C640 C 0.48673 0.49268 0.22357 0.0
C641 C 0.46342 0.478 0.20571 0.0
C642 C 0.46993 0.47874 0.17983 0.0
C643 C 0.49974 0.49381 0.17169 0.0
C644 C 0.52299 0.50594 0.18967 0.0
C645 C 0.51652 0.50534 0.21547 0.0
C646 C 0.51224 0.57212 0.28545 0.0
C647 C 0.52341 0.59346 0.26582 0.0
O648 O 0.49018 0.96582 0.9328 0.0
Mg649 Mg 0.52198 0.97052 0.95951 0.0
O650 O 0.48696 -9e-05 0.9561 0.0
Mg651 Mg 0.49803 -0.00195 -0.00031 0.0
O652 O 0.50984 0.96014 0.99615 0.0
O653 O 0.52107 0.93202 0.97093 0.0
O654 O 0.50983 -0.00208 0.04338 0.0
O655 O 0.44825 0.96058 0.00638 0.0
Mg656 Mg 0.46556 0.02195 0.03601 0.0
O657 O 0.48716 0.03696 0.0029 0.0
O658 O 0.49025 0.01981 0.06652 0.0
O659 O 0.42621 0.98239 0.02672 0.0
O660 O 0.46989 0.06211 0.02559 0.0
C661 C 0.56771 0.03382 0.97896 0.0
C662 C 0.4835 0.9863 0.9348 0.0
C663 C 0.51636 0.93882 0.99348 0.0
C664 C 0.50574 0.00699 0.06495 0.0
C665 C 0.42502 0.95958 0.01585 0.0
C666 C 0.48107 0.05873 0.00473 0.0
O667 O 0.56246 0.01258 0.9633 0.0
O668 O 0.54761 0.03316 0.99345 0.0
O669 O 0.976 0.50541 0.94059 0.0
Mg670 Mg 0.99127 0.52988 0.97484 0.0
O671 O -0.00193 0.48401 0.95912 0.0
Mg672 Mg 0.99232 0.4951 0.00086 0.0
O673 O 0.02878 0.54738 0.99815 0.0
O674 O 0.02736 0.56529 0.9601 0.0
O675 O 0.98735 0.50162 0.04387 0.0
O676 O 0.03847 0.49641 0.00722 0.0
Mg677 Mg 0.99313 0.44942 0.02036 0.0
O678 O 0.95656 0.44326 0.0009 0.0
O679 O 0.00316 0.47104 0.05637 0.0
O680 O 0.02695 0.45035 0.99808 0.0
O681 O 0.95902 0.40687 0.02298 0.0
C682 C 0.94245 0.51973 0.99585 0.0
C683 C 0.98747 0.48889 0.93915 0.0
C684 C 0.0416 0.56793 0.98086 0.0
C685 C -0.00489 0.49009 0.06168 0.0
C686 C 0.04669 0.47744 0.0016 0.0
C687 C 0.94501 0.41524 0.00766 0.0
O688 O 0.96362 0.54439 0.98827 0.0
O689 O 0.94614 0.49684 0.99784 0.0
O690 O 0.46819 0.48347 0.06228 0.0
Mg691 Mg 0.46205 0.45973 0.02809 0.0
O692 O 0.51194 0.50176 0.04575 0.0
Mg693 Mg 0.49416 0.49323 0.00333 0.0
O694 O 0.47767 0.44031 0.00296 0.0
O695 O 0.46722 0.42598 0.04337 0.0
O696 O 0.48199 0.48918 0.96032 0.0
O697 O 0.53866 0.49127 0.99484 0.0
Mg698 Mg 0.53859 0.53724 0.98708 0.0
O699 O 0.50929 0.54574 0.00538 0.0
O700 O 0.5287 0.51892 0.94973 0.0
O701 O 0.57149 0.53536 0.00934 0.0
O702 O 0.54966 0.58058 0.9842 0.0
C703 C 0.42035 0.46758 0.01075 0.0
C704 C 0.49596 0.49788 0.06511 0.0
C705 C 0.47173 0.42042 0.02053 0.0
C706 C 0.50183 0.50109 0.94322 0.0
C707 C 0.56538 0.50945 0.00201 0.0
C708 C 0.52691 0.57349 0.99843 0.0
O709 O 0.41871 0.4431 0.01685 0.0
O710 O 0.44611 0.49119 0.00833 0.0
O711 O 0.19576 0.34058 0.278 0.0
Mg712 Mg 0.20123 0.32546 0.31366 0.0
O713 O 0.15142 0.32712 0.29258 0.0
Mg714 Mg 0.16403 0.33115 0.33595 0.0
O715 O 0.17228 0.28878 0.33446 0.0
O716 O 0.20149 0.28815 0.30347 0.0
O717 O 0.17607 0.33402 0.37976 0.0
O718 O 0.11467 0.29099 0.34225 0.0
Mg719 Mg 0.12705 0.34902 0.36634 0.0
O720 O 0.1527 0.3705 0.33592 0.0
O721 O 0.14673 0.34664 0.40031 0.0
O722 O 0.08778 0.31121 0.35494 0.0
O723 O 0.12901 0.38859 0.35984 0.0
C724 C 0.23964 0.37591 0.33396 0.0
C725 C 0.16941 0.33483 0.27404 0.0
C726 C 0.18285 0.27447 0.32146 0.0
C727 C 0.16686 0.3395 0.40056 0.0
C728 C 0.08946 0.28851 0.34772 0.0
C729 C 0.14437 0.39043 0.33993 0.0
O730 O 0.24114 0.35221 0.33216 0.0
O731 O 0.21409 0.37413 0.33208 0.0
O732 O 0.65308 0.84526 0.2699 0.0
Mg733 Mg 0.67761 0.87851 0.29712 0.0
O734 O 0.65991 0.81416 0.29361 0.0
Mg735 Mg 0.66135 0.82826 0.33579 0.0
O736 O 0.69739 0.87751 0.33147 0.0
O737 O 0.72042 0.88165 0.29567 0.0
O738 O 0.66549 0.84105 0.38062 0.0
O739 O 0.69907 0.81804 0.33932 0.0
Mg740 Mg 0.64005 0.78686 0.3699 0.0
O741 O 0.62383 0.77707 0.33421 0.0
O742 O 0.62196 0.80649 0.39399 0.0
O743 O 0.6845 0.79448 0.37537 0.0
O744 O 0.61109 0.74257 0.36525 0.0
C745 C 0.62515 0.86607 0.32788 0.0
C746 C 0.65389 0.82127 0.27225 0.0
C747 C 0.72178 0.88974 0.31877 0.0
C748 C 0.64584 0.83081 0.39817 0.0
C749 C 0.70466 0.80725 0.35881 0.0
C750 C 0.60863 0.74946 0.34213 0.0
O751 O 0.64707 0.88717 0.31626 0.0
O752 O 0.62425 0.84125 0.33326 0.0
O753 O 0.1322 0.80826 0.39112 0.0
Mg754 Mg 0.12754 0.78684 0.35574 0.0
O755 O 0.1765 0.83784 0.37623 0.0
Mg756 Mg 0.16092 0.82685 0.33407 0.0
O757 O 0.15569 0.77707 0.33583 0.0
O758 O 0.12927 0.75159 0.36945 0.0
O759 O 0.14812 0.81715 0.29135 0.0
O760 O 0.21076 0.83702 0.32533 0.0
Mg761 Mg 0.19777 0.87584 0.3146 0.0
O762 O 0.16538 0.8756 0.33526 0.0
O763 O 0.19032 0.85542 0.27818 0.0
O764 O 0.2343 0.88392 0.33758 0.0
O765 O 0.19729 0.91451 0.31099 0.0
C766 C 0.08573 0.79373 0.33855 0.0
C767 C 0.15886 0.82836 0.39492 0.0
C768 C 0.1467 0.75425 0.35112 0.0
C769 C 0.16594 0.83159 0.27341 0.0
C770 C 0.23524 0.86065 0.33145 0.0
C771 C 0.1768 0.90348 0.32805 0.0
O772 O 0.0857 0.76916 0.33904 0.0
O773 O 0.11068 0.81839 0.33994 0.0
O774 O 0.83674 0.64059 0.59862 0.0
Mg775 Mg 0.86007 0.64284 0.63086 0.0
O776 O 0.82445 0.66732 0.62316 0.0
Mg777 Mg 0.8367 0.66544 0.66672 0.0
O778 O 0.84532 0.62402 0.66583 0.0
O779 O 0.85469 0.60142 0.63304 0.0
O780 O 0.8473 0.66681 0.70995 0.0
O781 O 0.78582 0.62575 0.67333 0.0
Mg782 Mg 0.80079 0.67642 0.68444 0.0
O783 O 0.83376 0.71148 0.66678 0.0
O784 O 0.80424 0.6614 0.7215 0.0
O785 O 0.76607 0.65086 0.65806 0.0
O786 O 0.79892 0.71408 0.69051 0.0
C787 C 0.90857 0.70018 0.65039 0.0
C788 C 0.825 0.65672 0.60125 0.0
C789 C 0.85014 0.60295 0.65695 0.0
C790 C 0.82843 0.66224 0.72728 0.0
C791 C 0.76266 0.62611 0.66545 0.0
C792 C 0.82041 0.72603 0.67443 0.0
O793 O 0.90403 0.67911 0.63502 0.0
O794 O 0.88717 0.69993 0.66253 0.0
O795 O 0.31815 0.17949 0.60052 0.0
Mg796 Mg 0.32729 0.20103 0.6353 0.0
O797 O 0.32303 0.14643 0.62297 0.0
Mg798 Mg 0.32468 0.16057 0.66601 0.0
O799 O 0.36063 0.21233 0.66221 0.0
O800 O 0.36471 0.23931 0.62722 0.0
O801 O 0.33105 0.17457 0.71043 0.0
O802 O 0.36489 0.1535 0.66845 0.0
Mg803 Mg 0.30684 0.12054 0.70046 0.0
O804 O 0.28951 0.10847 0.66535 0.0
O805 O 0.28885 0.13958 0.72542 0.0
O806 O 0.35159 0.12902 0.70431 0.0
O807 O 0.27874 0.07589 0.69771 0.0
C808 C 0.27633 0.18716 0.66092 0.0
C809 C 0.31958 0.15581 0.60159 0.0
C810 C 0.37452 0.23709 0.64917 0.0
C811 C 0.31252 0.16437 0.72872 0.0
C812 C 0.37115 0.14224 0.68734 0.0
C813 C 0.27539 0.08129 0.67435 0.0
O814 O 0.29483 0.20942 0.64823 0.0
O815 O 0.28171 0.16612 0.66676 0.0
O816 O 0.80397 0.15624 0.72902 0.0
Mg817 Mg 0.79649 0.13076 0.69622 0.0
O818 O 0.84539 0.18201 0.70848 0.0
Mg819 Mg 0.83051 0.16581 0.66587 0.0
O820 O 0.81658 0.11437 0.67235 0.0
O821 O 0.80141 0.09734 0.71177 0.0
O822 O 0.82163 0.15351 0.62212 0.0
O823 O 0.87876 0.17441 0.66218 0.0
Mg824 Mg 0.87025 0.22493 0.62694 0.0
O825 O 0.84585 0.21401 0.6585 0.0
O826 O 0.84018 0.19577 0.59921 0.0
O827 O 0.90437 0.21512 0.63778 0.0
O828 O 0.86693 0.2604 0.64432 0.0
C829 C 0.7552 0.13668 0.67236 0.0
C830 C 0.83082 0.17649 0.72903 0.0
C831 C 0.80904 0.0936 0.68945 0.0
C832 C 0.8252 0.16722 0.60092 0.0
C833 C 0.90284 0.19391 0.65147 0.0
C834 C 0.85169 0.24129 0.66169 0.0
O835 O 0.7538 0.11443 0.68365 0.0
O836 O 0.78072 0.15927 0.66683 0.0
C837 C 0.35025 0.88831 0.00284 0.0
C838 C 0.33636 0.88812 0.02619 0.0
C839 C 0.38448 0.9254 0.04384 0.0
C840 C 0.397 0.93066 0.01924 0.0
N841 N 0.39205 0.91717 0.97464 0.0
N842 N 0.33972 0.91179 0.06714 0.0
C843 C 0.38016 0.91184 -0.00153 0.0
C844 C 0.35333 0.90797 0.04632 0.0
N845 N 0.33506 0.86599 0.98517 0.0
N846 N 0.40247 0.93743 0.06484 0.0
H847 H 0.31658 0.90099 0.0692 0.0
H848 H 0.35137 0.92835 0.08099 0.0
H849 H 0.42576 0.94955 0.06365 0.0
H850 H 0.3944 0.93239 0.08337 0.0
H851 H 0.34495 0.8634 0.96883 0.0
H852 H 0.31321 0.84854 0.988 0.0
H853 H 0.37969 0.9061 0.95837 0.0
H854 H 0.41395 0.9339 0.97096 0.0
C855 C 0.09845 0.46598 0.0403 0.0
C856 C 0.11414 0.46012 0.02107 0.0
C857 C 0.09352 0.47885 0.98861 0.0
C858 C 0.07696 0.48329 0.0078 0.0
N859 N 0.07363 0.49372 0.05203 0.0
N860 N 0.13371 0.46896 0.97846 0.0
C861 C 0.08315 0.48148 0.03374 0.0
C862 C 0.11416 0.46939 0.99565 0.0
N863 N 0.09619 0.45484 0.0643 0.0
N864 N 0.08834 0.48244 0.96372 0.0
H865 H 0.14908 0.46216 0.98331 0.0
H866 H 0.1364 0.47766 0.96017 0.0
H867 H 0.07431 0.49081 0.95859 0.0
H868 H 0.09712 0.47642 0.94844 0.0
H869 H 0.08209 0.45561 0.07804 0.0
H870 H 0.10614 0.44233 0.06987 0.0
H871 H 0.07923 0.49465 0.07124 0.0
H872 H 0.06341 0.50629 0.04755 0.0
C873 C 0.51871 0.64256 0.00311 0.0
C874 C 0.53912 0.65732 0.02349 0.0
C875 C 0.54038 0.61115 0.03271 0.0
C876 C 0.52438 0.59837 0.00982 0.0
N877 N 0.49752 0.60043 0.97308 0.0
N878 N 0.57191 0.657 0.05645 0.0
C879 C 0.51292 0.61349 0.99511 0.0
C880 C 0.55028 0.64185 0.03828 0.0
N881 N 0.50493 0.65634 0.99162 0.0
N882 N 0.5467 0.59408 0.04878 0.0
H883 H 0.58036 0.67973 0.06098 0.0
H884 H 0.5834 0.64779 0.06562 0.0
H885 H 0.54023 0.57159 0.04489 0.0
H886 H 0.55569 0.60119 0.06698 0.0
H887 H 0.48792 0.6458 0.97809 0.0
H888 H 0.50899 0.67773 0.9971 0.0
H889 H 0.49141 0.61153 0.95988 0.0
H890 H 0.49179 0.5785 0.96761 0.0
C891 C 0.90478 0.3504 0.96363 0.0
C892 C 0.87748 0.33325 0.97681 0.0
C893 C 0.8915 0.37477 0.00714 0.0
C894 C 0.91881 0.39147 0.99413 0.0
N895 N 0.94762 0.3996 0.95602 0.0
N896 N 0.84133 0.3313 0.00669 0.0
C897 C 0.92389 0.38087 0.97081 0.0
C898 C 0.86961 0.34625 0.99713 0.0
N899 N 0.91373 0.33701 0.94579 0.0
N900 N 0.88713 0.38578 0.02947 0.0
H901 H 0.8249 0.31041 -0.00049 0.0
H902 H 0.83344 0.34061 0.02014 0.0
H903 H 0.90234 0.40734 0.03639 0.0
H904 H 0.86921 0.3733 0.04151 0.0
H905 H 0.93499 0.34764 0.93787 0.0
H906 H 0.90117 0.31434 0.94047 0.0
H907 H 0.95061 0.39398 0.93759 0.0
H908 H 0.96265 0.42192 0.96109 0.0
C909 C 0.62745 0.52781 0.95987 0.0
C910 C 0.65043 0.53287 0.97755 0.0
C911 C 0.61321 0.51054 0.0113 0.0
C912 C 0.59067 0.50593 0.99346 0.0
N913 N 0.57497 0.4973 0.94945 0.0
N914 N 0.66393 0.52063 0.01806 0.0
C915 C 0.59733 0.50992 0.96724 0.0
C916 C 0.64291 0.5214 0.00269 0.0
N917 N 0.63413 0.54183 0.9368 0.0
N918 N 0.60626 0.50551 0.03649 0.0
H919 H 0.68566 0.52777 0.01201 0.0
H920 H 0.65907 0.51036 0.03582 0.0
H921 H 0.58425 0.49601 0.04279 0.0
H922 H 0.62222 0.51167 0.05094 0.0
H923 H 0.61782 0.541 0.92448 0.0
H924 H 0.65587 0.55695 0.93113 0.0
H925 H 0.57904 0.4983 0.92995 0.0
H926 H 0.55285 0.48249 0.95431 0.0
C927 C 0.43971 0.07422 0.95567 0.0
C928 C 0.45277 0.10581 0.95948 0.0
C929 C 0.49373 0.10703 0.98421 0.0
C930 C 0.47914 0.07515 0.98241 0.0
N931 N 0.44388 0.02942 0.96036 0.0
N932 N 0.49555 0.15352 0.9712 0.0
C933 C 0.4544 0.05925 0.96563 0.0
C934 C 0.48114 0.12268 0.97155 0.0
N935 N 0.41197 0.05809 0.94465 0.0
N936 N 0.51854 0.12187 -0.00057 0.0
H937 H 0.48664 0.16534 0.96197 0.0
H938 H 0.51708 0.16738 0.97827 0.0
H939 H 0.52868 0.11069 0.00775 0.0
H940 H 0.52854 0.14465 0.00431 0.0
H941 H 0.39949 0.03461 0.94438 0.0
H942 H 0.40028 0.06804 0.93713 0.0
H943 H 0.42834 0.01754 0.94598 0.0
H944 H 0.45242 0.01707 0.96895 0.0
C945 C 0.64428 0.09951 0.96569 0.0
C946 C 0.66146 0.08887 0.97856 0.0
C947 C 0.61663 0.05071 -0.00018 0.0
C948 C 0.59913 0.05715 0.98293 0.0
N949 N 0.59508 0.08844 0.95105 0.0
N950 N 0.66451 0.05421 0.00774 0.0
C951 C 0.61262 0.0821 0.96645 0.0
C952 C 0.64789 0.06474 0.99598 0.0
N953 N 0.65833 0.12631 0.95302 0.0
N954 N 0.60324 0.03117 0.01943 0.0
H955 H 0.68759 0.06419 0.00556 0.0
H956 H 0.6552 0.03441 0.01828 0.0
H957 H 0.5803 0.02072 0.02267 0.0
H958 H 0.61506 0.02735 0.03367 0.0
H959 H 0.64717 0.13661 0.94515 0.0
H960 H 0.68156 0.13965 0.95227 0.0
H961 H 0.60336 0.1041 0.93641 0.0
H962 H 0.57184 0.07703 0.95253 0.0
C963 C 0.8727 0.52056 0.98022 0.0
C964 C 0.87866 0.54562 0.99601 0.0
C965 C 0.91463 0.53815 0.02063 0.0
C966 C 0.914 0.51864 0.00115 0.0
N967 N 0.89086 0.48814 0.9639 0.0
N968 N 0.90327 0.57721 0.03264 0.0
C969 C 0.89187 0.50814 0.98179 0.0
C970 C 0.89847 0.55363 0.01712 0.0
N971 N 0.84908 0.50919 0.96355 0.0
N972 N 0.93175 0.54251 0.04186 0.0
H973 H 0.89142 0.58869 0.03071 0.0
H974 H 0.91982 0.58629 0.04669 0.0
H975 H 0.94371 0.53116 0.0443 0.0
H976 H 0.932 0.55493 0.05773 0.0
H977 H 0.84213 0.48959 0.9528 0.0
H978 H 0.83477 0.51803 0.9621 0.0
H979 H 0.87788 0.48237 0.94738 0.0
H980 H 0.90396 0.47793 0.9654 0.0
C981 C 0.47262 0.35246 0.99145 0.0
C982 C 0.44504 0.32889 0.00066 0.0
C983 C 0.4351 0.36506 0.02202 0.0
C984 C 0.46325 0.38907 0.01382 0.0
N985 N 0.51139 0.40514 0.99506 0.0
N986 N 0.40261 0.31202 0.02831 0.0
C987 C 0.48287 0.38266 -0.00021 0.0
C988 C 0.42765 0.33505 0.01759 0.0
N989 N 0.48826 0.34609 0.974 0.0
N990 N 0.41371 0.36973 0.03272 0.0
H991 H 0.39635 0.28934 0.02579 0.0
H992 H 0.38907 0.31583 0.04073 0.0
H993 H 0.41506 0.39067 0.03478 0.0
H994 H 0.41506 0.39067 0.03478 0.0
H995 H 0.50661 0.36259 0.96423 0.0
H996 H 0.48183 0.32407 0.96826 0.0
H997 H 0.5276 0.40134 0.98698 0.0
H998 H 0.51964 0.42738 0.00118 0.0
C999 C 0.10617 0.63096 0.01818 0.0
C1000 C 0.10529 0.65558 0.00666 0.0
C1001 C 0.07428 0.62282 0.97226 0.0
C1002 C 0.06906 0.59735 0.98667 0.0
N1003 N 0.08679 0.57667 0.01891 0.0
N1004 N 0.0866 0.67496 0.97383 0.0
C1005 C 0.08717 0.60123 0.00839 0.0
C1006 C 0.08928 0.6517 0.98373 0.0
N1007 N 0.12545 0.63629 0.03808 0.0
N1008 N 0.06511 0.6188 0.94746 0.0
H1009 H 0.09698 0.69662 0.9818 0.0
H1010 H 0.07174 0.67205 0.95913 0.0
H1011 H 0.06998 0.63633 0.93485 0.0
H1012 H 0.06998 0.63633 0.93485 0.0
H1013 H 0.12851 0.61981 0.04678 0.0
H1014 H 0.13976 0.65793 0.04528 0.0
H1015 H 0.09672 0.57689 0.03624 0.0
H1016 H 0.07718 0.55587 0.00946 0.0
C1017 C 0.35062 0.46613 0.03133 0.0
C1018 C 0.33042 0.4406 0.01649 0.0
C1019 C 0.37165 0.44725 0.98954 0.0
C1020 C 0.392 0.46758 0.00785 0.0
N1021 N 0.40195 0.49834 0.04543 0.0
N1022 N 0.32134 0.40643 0.98119 0.0
C1023 C 0.38186 0.47825 0.0282 0.0
C1024 C 0.34069 0.43143 0.99508 0.0
N1025 N 0.33986 0.47864 0.04832 0.0
N1026 N 0.38238 0.44254 0.96731 0.0
H1027 H 0.29853 0.39387 0.98492 0.0
H1028 H 0.32818 0.39684 0.96711 0.0
H1029 H 0.40521 0.45411 0.96328 0.0
H1030 H 0.36877 0.42972 0.95216 0.0
H1031 H 0.35337 0.49876 0.05814 0.0
H1032 H 0.31704 0.47032 0.05087 0.0
H1033 H 0.39586 0.50403 0.06256 0.0
H1034 H 0.42499 0.50853 0.0429 0.0
C1035 C 0.57748 0.93536 0.02945 0.0
C1036 C 0.56038 0.9077 0.04214 0.0
C1037 C 0.51405 0.90754 0.03105 0.0
C1038 C 0.53082 0.93174 0.01446 0.0
N1039 N 0.57694 0.96871 0.9968 0.0
N1040 N 0.51336 0.86883 0.05831 0.0
C1041 C 0.56239 0.94624 0.01403 0.0
C1042 C 0.52889 0.89451 0.04439 0.0
N1043 N 0.60794 0.95054 0.03177 0.0
N1044 N 0.48412 0.89693 0.03345 0.0
H1045 H 0.52404 0.85973 0.06898 0.0
H1046 H 0.49017 0.8563 0.0591 0.0
H1047 H 0.47332 0.90654 0.02364 0.0
H1048 H 0.47049 0.88036 0.04626 0.0
H1049 H 0.6217 0.97227 0.02503 0.0
H1050 H 0.61934 0.94246 0.0427 0.0
H1051 H 0.59971 0.97909 0.99291 0.0
H1052 H 0.59971 0.97909 0.99291 0.0
C1053 C 0.02017 0.23671 0.38085 0.0
C1054 C 0.00276 0.21605 0.36127 0.0
C1055 C 0.04596 0.23871 0.33277 0.0
C1056 C 0.06295 0.25889 0.35269 0.0
N1057 N 0.06985 0.26902 0.39777 0.0
N1058 N 0.00076 0.19215 0.32097 0.0
C1059 C 0.05122 0.25481 0.37751 0.0
C1060 C 0.01623 0.21527 0.33792 0.0
N1061 N 0.00696 0.24091 0.40179 0.0
N1062 N 0.05771 0.24271 0.30895 0.0
H1063 H 0.97909 0.17466 0.32445 0.0
H1064 H 0.01024 0.18896 0.30464 0.0
H1065 H 0.07973 0.25913 0.30509 0.0
H1066 H 0.04536 0.23071 0.29297 0.0
H1067 H 0.01872 0.25805 0.41517 0.0
H1068 H 0.98392 0.2297 0.40446 0.0
H1069 H 0.06268 0.26499 0.4166 0.0
H1070 H 0.09299 0.28219 0.39576 0.0
C1071 C 0.75268 0.77812 0.38358 0.0
C1072 C 0.76734 0.77771 0.36097 0.0
C1073 C 0.75105 0.80967 0.33973 0.0
C1074 C 0.73273 0.80581 0.36114 0.0
N1075 N 0.73086 0.80317 0.40682 0.0
N1076 N 0.78519 0.79646 0.31895 0.0
C1077 C 0.73811 0.79521 0.38422 0.0
C1078 C 0.76817 0.79477 0.33944 0.0
N1079 N 0.75199 0.76162 0.40424 0.0
N1080 N 0.75314 0.82862 0.32061 0.0
H1081 H 0.79786 0.78573 0.31839 0.0
H1082 H 0.78688 0.8081 0.30232 0.0
H1083 H 0.74615 0.8444 0.32287 0.0
H1084 H 0.76432 0.83124 0.3036 0.0
H1085 H 0.73845 0.7583 0.41994 0.0
H1086 H 0.76332 0.74952 0.40508 0.0
H1087 H 0.73626 0.79799 0.42452 0.0
H1088 H 0.72311 0.81851 0.40769 0.0
C1089 C 0.20694 0.96598 0.37289 0.0
C1090 C 0.19844 0.98538 0.36093 0.0
C1091 C 0.16452 0.94439 0.33237 0.0
C1092 C 0.17381 0.92553 0.34398 0.0
N1093 N 0.19454 0.9147 0.38103 0.0
N1094 N 0.16369 0.99148 0.33424 0.0
C1095 C 0.19139 0.935 0.3665 0.0
C1096 C 0.1752 0.97398 0.34234 0.0
N1097 N 0.23148 0.97739 0.38862 0.0
N1098 N 0.14672 0.93434 0.31114 0.0
H1099 H 0.17117 0.0132 0.34141 0.0
H1100 H 0.14523 0.98363 0.32211 0.0
H1101 H 0.13771 0.91216 0.30447 0.0
H1102 H 0.14177 0.94801 0.29988 0.0
H1103 H 0.24052 0.9645 0.39538 0.0
H1104 H 0.24481 0.00028 0.39295 0.0
H1105 H 0.20509 0.92008 0.39881 0.0
H1106 H 0.18362 0.89177 0.37674 0.0
C1107 C 0.54276 0.67917 0.31536 0.0
C1108 C 0.55854 0.66649 0.30333 0.0
C1109 C 0.60516 0.71458 0.30763 0.0
C1110 C 0.59045 0.72478 0.32421 0.0
N1111 N 0.54546 0.71845 0.3433 0.0
N1112 N 0.6051 0.67122 0.28896 0.0
C1113 C 0.55917 0.70771 0.32764 0.0
C1114 C 0.58976 0.68413 0.29916 0.0
N1115 N 0.5122 0.66394 0.31484 0.0
N1116 N 0.63403 0.73367 0.30058 0.0
H1117 H 0.5949 0.64875 0.28299 0.0
H1118 H 0.62834 0.68207 0.28829 0.0
H1119 H 0.6464 0.7559 0.3071 0.0
H1120 H 0.64476 0.7284 0.28641 0.0
H1121 H 0.49937 0.67302 0.32146 0.0
H1122 H 0.49965 0.64311 0.30563 0.0
H1123 H 0.52338 0.70561 0.34916 0.0
H1124 H 0.55675 0.74015 0.35125 0.0
C1125 C 0.30497 0.85315 0.32469 0.0
C1126 C 0.32341 0.88018 0.31121 0.0
C1127 C 0.28181 0.88942 0.30669 0.0
C1128 C 0.26438 0.86486 0.32307 0.0
N1129 N 0.25997 0.82463 0.34971 0.0
N1130 N 0.33147 0.92799 0.29548 0.0
C1131 C 0.27603 0.84688 0.33261 0.0
C1132 C 0.31246 0.89951 0.30408 0.0
N1133 N 0.31485 0.83333 0.32941 0.0
N1134 N 0.26888 0.90236 0.29265 0.0
H1135 H 0.35448 0.9368 0.29391 0.0
H1136 H 0.3248 0.94393 0.29255 0.0
H1137 H 0.24598 0.89437 0.29247 0.0
H1138 H 0.28035 0.91854 0.27879 0.0
H1139 H 0.30139 0.81194 0.33695 0.0
H1140 H 0.33598 0.83748 0.32403 0.0
H1141 H 0.26853 0.8128 0.35933 0.0
H1142 H 0.23863 0.81934 0.35554 0.0
C1143 C 0.14492 0.459 0.31671 0.0
C1144 C 0.1203 0.4438 0.29961 0.0
C1145 C 0.12824 0.40058 0.29867 0.0
C1146 C 0.14693 0.41232 0.3204 0.0
N1147 N 0.17665 0.45403 0.34845 0.0
N1148 N 0.08728 0.399 0.27505 0.0
C1149 C 0.15696 0.44236 0.32849 0.0
C1150 C 0.11204 0.41455 0.29025 0.0
N1151 N 0.15642 0.48907 0.32173 0.0
N1152 N 0.12519 0.37552 0.28668 0.0
H1153 H 0.07389 0.40775 0.26907 0.0
H1154 H 0.07843 0.37632 0.27017 0.0
H1155 H 0.13733 0.36544 0.29248 0.0
H1156 H 0.11383 0.36729 0.26942 0.0
H1157 H 0.1756 0.50196 0.33267 0.0
H1158 H 0.14808 0.50174 0.3131 0.0
H1159 H 0.18233 0.47436 0.35756 0.0
H1160 H 0.18662 0.44243 0.3563 0.0
C1161 C 0.30876 0.44195 0.30829 0.0
C1162 C 0.3295 0.4389 0.32402 0.0
C1163 C 0.2893 0.40765 0.35325 0.0
C1164 C 0.26822 0.40476 0.33453 0.0
N1165 N 0.25715 0.42057 0.29471 0.0
N1166 N 0.34013 0.41947 0.36204 0.0
C1167 C 0.27766 0.42299 0.31249 0.0
C1168 C 0.32009 0.42251 0.34704 0.0
N1169 N 0.31891 0.46293 0.28937 0.0
N1170 N 0.27941 0.39523 0.37665 0.0
H1171 H 0.36289 0.42994 0.35804 0.0
H1172 H 0.33397 0.40504 0.37755 0.0
H1173 H 0.25674 0.38429 0.38124 0.0
H1174 H 0.29357 0.39829 0.39197 0.0
H1175 H 0.30507 0.46817 0.27871 0.0
H1176 H 0.34163 0.47715 0.28593 0.0
H1177 H 0.26281 0.42988 0.27662 0.0
H1178 H 0.23421 0.40833 0.29775 0.0
C1179 C 0.55154 0.86493 0.32557 0.0
C1180 C 0.56141 0.89401 0.33607 0.0
C1181 C 0.60764 0.89688 0.35073 0.0
C1182 C 0.60062 0.87125 0.3353 0.0
N1183 N 0.56578 0.82988 0.30845 0.0
N1184 N 0.59649 0.93657 0.3612 0.0
C1185 C 0.57215 0.85437 0.32346 0.0
C1186 C 0.58852 0.90936 0.34999 0.0
N1187 N 0.52275 0.84797 0.31696 0.0
N1188 N 0.63287 0.90936 0.36562 0.0
H1189 H 0.58202 0.94529 0.36178 0.0
H1190 H 0.61741 0.95082 0.36926 0.0
H1191 H 0.64734 0.90064 0.36619 0.0
H1192 H 0.63829 0.92664 0.37881 0.0
H1193 H 0.51331 0.82553 0.31112 0.0
H1194 H 0.50738 0.85552 0.31792 0.0
H1195 H 0.54698 0.81904 0.2967 0.0
H1196 H 0.58014 0.8212 0.30653 0.0
C1197 C 0.12031 0.67374 0.35344 0.0
C1198 C 0.12382 0.66796 0.32765 0.0
C1199 C 0.15745 0.72212 0.32068 0.0
C1200 C 0.15009 0.72753 0.34533 0.0
N1201 N 0.14074 0.71041 0.38814 0.0
N1202 N 0.15221 0.68474 0.28894 0.0
C1203 C 0.13721 0.7036 0.36279 0.0
C1204 C 0.14467 0.69164 0.31191 0.0
N1205 N 0.09901 0.6516 0.36824 0.0
N1206 N 0.17665 0.74591 0.30611 0.0
H1207 H 0.14362 0.66254 0.28254 0.0
H1208 H 0.16814 0.70056 0.27685 0.0
H1209 H 0.18973 0.76752 0.31386 0.0
H1210 H 0.18068 0.74424 0.28696 0.0
H1211 H 0.0931 0.65587 0.38608 0.0
H1212 H 0.08516 0.6295 0.36184 0.0
H1213 H 0.13342 0.6943 0.40249 0.0
H1214 H 0.13342 0.6943 0.40249 0.0
C1215 C 0.75993 0.97518 0.32054 0.0
C1216 C 0.77443 0.9811 0.34442 0.0
C1217 C 0.75856 0.92756 0.34948 0.0
C1218 C 0.74377 0.92143 0.32543 0.0
N1219 N 0.73356 0.9423 0.28665 0.0
N1220 N 0.7923 0.96518 0.38018 0.0
C1221 C 0.74574 0.94575 0.31041 0.0
C1222 C 0.77518 0.95792 0.35851 0.0
N1223 N 0.75911 -0.00219 0.30731 0.0
N1224 N 0.75595 0.90417 0.36393 0.0
H1225 H 0.80428 0.98718 0.38742 0.0
H1226 H 0.7963 0.95002 0.39017 0.0
H1227 H 0.74569 0.88194 0.35721 0.0
H1228 H 0.76287 0.9064 0.38285 0.0
H1229 H 0.74855 0.9944 0.2896 0.0
H1230 H 0.76829 0.01991 0.31412 0.0
H1231 H 0.72246 0.92249 0.27595 0.0
H1232 H 0.72246 0.92249 0.27595 0.0
C1233 C 0.00444 0.7613 0.32706 0.0
C1234 C -0.00434 0.76698 0.35108 0.0
C1235 C 0.04799 0.79957 0.36374 0.0
C1236 C 0.05669 0.79255 0.34025 0.0
N1237 N 0.04476 0.77516 0.29697 0.0
N1238 N 0.008 0.79757 0.38921 0.0
C1239 C 0.03527 0.77628 0.32099 0.0
C1240 C 0.01715 0.78817 0.36843 0.0
N1241 N 0.98351 0.74046 0.31071 0.0
N1242 N 0.06898 0.81553 0.38213 0.0
H1243 H 0.98553 0.78953 0.3933 0.0
H1244 H 0.02251 0.81513 0.40125 0.0
H1245 H 0.09186 0.82599 0.37892 0.0
H1246 H 0.06378 0.81759 0.40089 0.0
H1247 H 0.98882 0.73305 0.29408 0.0
H1248 H 0.96069 0.72892 0.31457 0.0
H1249 H 0.03046 0.76578 0.28135 0.0
H1250 H 0.06741 0.78639 0.2923 0.0
C1251 C 0.18735 0.22037 0.36583 0.0
C1252 C 0.20602 0.21406 0.35012 0.0
C1253 C 0.19046 0.23128 0.31303 0.0
C1254 C 0.17889 0.2448 0.32942 0.0
N1255 N 0.15222 0.23912 0.36807 0.0
N1256 N 0.22666 0.21501 0.30856 0.0
C1257 C 0.17294 0.2354 0.35501 0.0
C1258 C 0.20746 0.2193 0.32352 0.0
N1259 N 0.18396 0.21248 0.39092 0.0
N1260 N 0.18525 0.23033 0.28744 0.0
H1261 H 0.24081 0.20764 0.31563 0.0
H1262 H 0.23059 0.22154 0.28957 0.0
H1263 H 0.17179 0.23832 0.27982 0.0
H1264 H 0.19128 0.21876 0.27455 0.0
H1265 H 0.1729 0.21865 0.40403 0.0
H1266 H 0.19298 0.20012 0.39893 0.0
H1267 H 0.14544 0.23159 0.3865 0.0
H1268 H 0.1392 0.24683 0.35918 0.0
C1269 C 0.69154 0.55034 0.67612 0.0
C1270 C 0.67267 0.56098 0.68554 0.0
C1271 C 0.71415 0.61236 0.68586 0.0
C1272 C 0.73231 0.60275 0.67322 0.0
N1273 N 0.73712 0.56267 0.65346 0.0
N1274 N 0.66402 0.60275 0.69209 0.0
C1275 C 0.72072 0.57167 0.66751 0.0
C1276 C 0.68333 0.59222 0.68789 0.0
N1277 N 0.68199 0.52014 0.67614 0.0
N1278 N 0.72649 0.63997 0.69767 0.0
H1279 H 0.64092 0.58856 0.69319 0.0
H1280 H 0.67076 0.62568 0.69167 0.0
H1281 H 0.74945 0.65433 0.69953 0.0
H1282 H 0.71408 0.64667 0.70874 0.0
H1283 H 0.69586 0.51135 0.67197 0.0
H1284 H 0.66072 0.50401 0.68215 0.0
H1285 H 0.72865 0.54067 0.64669 0.0
H1286 H 0.75848 0.57775 0.6469 0.0
C1287 C 0.42153 0.11619 0.71297 0.0
C1288 C 0.43388 0.1125 0.69009 0.0
C1289 C 0.41531 0.14135 0.66669 0.0
C1290 C 0.39937 0.1409 0.68887 0.0
N1291 N 0.40071 0.14329 0.73462 0.0
N1292 N 0.44683 0.1246 0.64603 0.0
C1293 C 0.40669 0.13308 0.71255 0.0
C1294 C 0.43228 0.12627 0.66716 0.0
N1295 N 0.42338 0.10304 0.73501 0.0
N1296 N 0.41507 0.157 0.64577 0.0
H1297 H 0.45887 0.1132 0.6458 0.0
H1298 H 0.44709 0.13408 0.62853 0.0
H1299 H 0.40847 0.17317 0.64663 0.0
H1300 H 0.42399 0.15659 0.6282 0.0
H1301 H 0.41123 0.10156 0.75125 0.0
H1302 H 0.43561 0.09194 0.73675 0.0
H1303 H 0.40754 0.1404 0.75258 0.0
H1304 H 0.39218 0.15801 0.73456 0.0
C1305 C 0.82987 0.2862 0.70168 0.0
C1306 C 0.85636 0.30094 0.71658 0.0
C1307 C 0.87002 0.26341 0.70432 0.0
C1308 C 0.84676 0.25245 0.68588 0.0
N1309 N 0.79959 0.24546 0.67169 0.0
N1310 N 0.89613 0.29887 0.73894 0.0
C1311 C 0.82463 0.26092 0.68652 0.0
C1312 C 0.87424 0.28746 0.72061 0.0
N1313 N 0.81113 0.29783 0.70101 0.0
N1314 N 0.88934 0.25243 0.70457 0.0
H1315 H 0.89988 0.31684 0.75082 0.0
H1316 H 0.90929 0.2895 0.74376 0.0
H1317 H 0.88645 0.23478 0.69265 0.0
H1318 H 0.90832 0.26072 0.71606 0.0
H1319 H 0.79244 0.28987 0.68918 0.0
H1320 H 0.81456 0.31587 0.71275 0.0
H1321 H 0.78185 0.24966 0.6714 0.0
H1322 H 0.79595 0.2268 0.6607 0.0
C1323 C 0.25609 0.01406 0.63357 0.0
C1324 C 0.22486 -0.00327 0.63781 0.0
C1325 C 0.22585 0.0386 0.66129 0.0
C1326 C 0.25709 0.05554 0.6575 0.0
N1327 N 0.30062 0.06345 0.63435 0.0
N1328 N 0.1787 0.99449 0.64946 0.0
C1329 C 0.27169 0.0447 0.64148 0.0
C1330 C 0.20926 0.00972 0.64965 0.0
N1331 N 0.27121 0.00072 0.62372 0.0
N1332 N 0.21235 0.04987 0.67664 0.0
H1333 H 0.16598 0.97334 0.6408 0.0
H1334 H 0.16596 0.00377 0.65588 0.0
H1335 H 0.22373 0.0718 0.68411 0.0
H1336 H 0.19036 0.03725 0.68277 0.0
H1337 H 0.29443 0.01136 0.623 0.0
H1338 H 0.26082 0.9781 0.61813 0.0
H1339 H 0.31136 0.05767 0.62057 0.0
H1340 H 0.31308 0.08587 0.64042 0.0
C1341 C 0.97131 0.19114 0.63405 0.0
C1342 C 0.99191 0.21585 0.64943 0.0
C1343 C 0.95086 0.21314 0.67441 0.0
C1344 C 0.93078 0.19344 0.6557 0.0
N1345 N 0.9193 0.15797 0.62158 0.0
N1346 N 0.00234 0.24896 0.68573 0.0
C1347 C 0.94023 0.18026 0.6369 0.0
C1348 C 0.98203 0.22596 0.6705 0.0
N1349 N 0.98169 0.17849 0.6168 0.0
N1350 N 0.93979 0.21958 0.69562 0.0
H1351 H 0.02537 0.25865 0.68356 0.0
H1352 H -0.00345 0.25946 0.69981 0.0
H1353 H 0.91685 0.20969 0.69867 0.0
H1354 H 0.95286 0.23215 0.71108 0.0
H1355 H 0.96809 0.15969 0.60555 0.0
H1356 H 0.00441 0.18593 0.6147 0.0
H1357 H 0.92413 0.14896 0.60572 0.0
H1358 H 0.89649 0.14816 0.62527 0.0
C1359 C 0.81287 0.79382 0.66283 0.0
C1360 C 0.7926 0.78142 0.64188 0.0
C1361 C 0.80846 0.74428 0.63551 0.0
C1362 C 0.82244 0.75157 0.65978 0.0
N1363 N 0.83957 0.78426 0.69644 0.0
N1364 N 0.76768 0.74122 0.61067 0.0
C1365 C 0.82557 0.77706 0.67324 0.0
C1366 C 0.7897 0.75587 0.62859 0.0
N1367 N 0.8201 0.82152 0.67254 0.0
N1368 N 0.81233 0.72555 0.61941 0.0
H1369 H 0.75204 0.74768 0.60602 0.0
H1370 H 0.76293 0.72067 0.60244 0.0
H1371 H 0.82737 0.71827 0.62354 0.0
H1372 H 0.80397 0.72092 0.60081 0.0
H1373 H 0.83647 0.83263 0.68652 0.0
H1374 H 0.81167 0.83461 0.66494 0.0
H1375 H 0.8396 0.80033 0.70874 0.0
H1376 H 0.85023 0.773 0.70359 0.0
C1377 C 0.98394 0.76993 0.64251 0.0
C1378 C 0.00178 0.75974 0.65479 0.0
C1379 C 0.95715 0.71681 0.67224 0.0
C1380 C 0.93956 0.72372 0.6558 0.0
N1381 N 0.93458 0.75741 0.62708 0.0
N1382 N 0.00669 0.72563 0.68316 0.0
C1383 C 0.95243 0.75084 0.64186 0.0
C1384 C 0.98878 0.7341 0.67067 0.0
N1385 N -0.00268 0.79768 0.63136 0.0
N1386 N 0.94342 0.69366 0.68913 0.0
H1387 H 0.02997 0.73865 0.68308 0.0
H1388 H -0.00126 0.70538 0.69284 0.0
H1389 H 0.9202 0.68075 0.69054 0.0
H1390 H 0.95473 0.68879 0.70308 0.0
H1391 H 0.98566 0.80762 0.62382 0.0
H1392 H 0.02045 0.81199 0.63148 0.0
H1393 H 0.94263 0.77496 0.61407 0.0
H1394 H 0.9113 0.74441 0.62723 0.0
C1395 C 0.23425 0.2208 0.68554 0.0
C1396 C 0.21594 0.21605 0.66383 0.0
C1397 C 0.22695 0.17798 0.64726 0.0
C1398 C 0.24804 0.18571 0.66714 0.0
N1399 N 0.26314 0.2036 0.70975 0.0
N1400 N 0.18661 0.18342 0.62909 0.0
C1401 C 0.2484 0.20327 0.68805 0.0
C1402 C 0.20929 0.19207 0.64647 0.0
N1403 N 0.23963 0.24323 0.70265 0.0
N1404 N 0.22566 0.15896 0.62829 0.0
H1405 H 0.1733 0.19346 0.6283 0.0
H1406 H 0.17935 0.16481 0.617 0.0
H1407 H 0.2378 0.14767 0.62935 0.0
H1408 H 0.21346 0.15506 0.61146 0.0
H1409 H 0.25525 0.24977 0.71741 0.0
H1410 H 0.22942 0.25637 0.70135 0.0
H1411 H 0.26307 0.21457 0.7265 0.0
H1412 H 0.2728 0.18995 0.71136 0.0
C1413 C 0.81443 0.02832 0.65979 0.0
C1414 C 0.78634 0.00384 0.66702 0.0
C1415 C 0.77327 0.03802 0.68783 0.0
C1416 C 0.80198 0.06287 0.68194 0.0
N1417 N 0.85192 0.08106 0.66632 0.0
N1418 N 0.74121 0.98455 0.69163 0.0
C1419 C 0.82326 0.05787 0.66907 0.0
C1420 C 0.76697 0.00849 0.68276 0.0
N1421 N 0.83199 0.02341 0.64332 0.0
N1422 N 0.75035 0.04145 0.69669 0.0
H1423 H 0.73562 0.96214 0.68857 0.0
H1424 H 0.72629 0.9873 0.70314 0.0
H1425 H 0.75086 0.062 0.69873 0.0
H1426 H 0.75086 0.062 0.69873 0.0
H1427 H 0.85102 0.04071 0.6349 0.0
H1428 H 0.82654 0.00185 0.63699 0.0
H1429 H 0.86912 0.07821 0.65914 0.0
H1430 H 0.85914 0.10284 0.67318 0.0
C1431 C 0.41937 0.31929 0.66721 0.0
C1432 C 0.44367 0.32037 0.68054 0.0
C1433 C 0.42407 0.26654 0.67202 0.0
C1434 C 0.39813 0.26502 0.66111 0.0
N1435 N 0.36908 0.29021 0.65369 0.0
N1436 N 0.46835 0.29521 0.69849 0.0
C1437 C 0.3952 0.29124 0.66012 0.0
C1438 C 0.44592 0.29404 0.68373 0.0
N1439 N 0.41853 0.3451 0.6622 0.0
N1440 N 0.42834 0.24226 0.67038 0.0
H1441 H 0.48516 0.31527 0.70662 0.0
H1442 H 0.46927 0.27613 0.70394 0.0
H1443 H 0.41295 0.22194 0.66167 0.0
H1444 H 0.44811 0.24299 0.67585 0.0
H1445 H 0.4008 0.34486 0.65234 0.0
H1446 H 0.4361 0.36665 0.66669 0.0
H1447 H 0.34875 0.27044 0.65049 0.0
H1448 H 0.34875 0.27044 0.65049 0.0
C1449 C 0.67473 0.09763 0.6599 0.0
C1450 C 0.66594 0.11129 0.67901 0.0
C1451 C 0.71794 0.15123 0.68545 0.0
C1452 C 0.72675 0.13606 0.66794 0.0
N1453 N 0.71454 0.10189 0.63265 0.0
N1454 N 0.67722 0.15542 0.70412 0.0
C1455 C 0.70525 0.11183 0.65293 0.0
C1456 C 0.68696 0.1397 0.68977 0.0
N1457 N 0.65443 0.07015 0.64976 0.0
N1458 N 0.7392 0.17523 0.69918 0.0
H1459 H 0.65461 0.14741 0.70758 0.0
H1460 H 0.69114 0.17737 0.71074 0.0
H1461 H 0.76198 0.18479 0.69559 0.0
H1462 H 0.73443 0.18499 0.71458 0.0
H1463 H 0.6602 0.05758 0.63781 0.0
H1464 H 0.63188 0.05879 0.65459 0.0
H1465 H 0.70004 0.08591 0.61947 0.0
H1466 H 0.73709 0.11195 0.62789 0.0
C1467 C 0.85146 0.54743 0.70405 0.0
C1468 C 0.88025 0.55173 0.69859 0.0
C1469 C 0.89059 0.59308 0.67 0.0
C1470 C 0.86101 0.58765 0.67404 0.0
N1471 N 0.81466 0.56335 0.69684 0.0
N1472 N 0.92903 0.58069 0.67987 0.0
C1473 C 0.8419 0.5661 0.69192 0.0
C1474 C 0.90033 0.57518 0.68257 0.0
N1475 N 0.83327 0.52499 0.72031 0.0
N1476 N 0.9092 0.61515 0.6536 0.0
H1477 H 0.93685 0.56729 0.68787 0.0
H1478 H 0.94598 0.5995 0.67091 0.0
H1479 H 0.90535 0.63221 0.64738 0.0
H1480 H 0.92822 0.61648 0.64565 0.0
H1481 H 0.8113 0.51902 0.72421 0.0
H1482 H 0.84014 0.51161 0.72985 0.0
H1483 H 0.80005 0.54943 0.71069 0.0
H1484 H 0.807 0.57625 0.68763 0.0
C1485 C 0.52306 0.01764 0.13439 0.0
C1486 C 0.51326 0.98743 0.14151 0.0
C1487 C 0.51187 0.97293 0.09654 0.0
C1488 C 0.5174 0.00206 0.08948 0.0
N1489 N 0.53993 0.0546 0.10054 0.0
N1490 N 0.50068 0.93662 0.13055 0.0
C1491 C 0.52692 0.02523 0.10819 0.0
C1492 C 0.50893 0.96527 0.1229 0.0
N1493 N 0.52691 0.03858 0.15257 0.0
N1494 N 0.51006 0.95298 0.07824 0.0
H1495 H 0.49957 0.93078 0.14968 0.0
H1496 H 0.49396 0.91827 0.11829 0.0
H1497 H 0.51412 0.95855 0.05913 0.0
H1498 H 0.50773 0.93197 0.082 0.0
H1499 H 0.53028 0.05995 0.14845 0.0
H1500 H 0.52511 0.03405 0.17203 0.0
H1501 H 0.54947 0.07306 0.11295 0.0
H1502 H 0.5438 0.06048 0.08136 0.0
C1503 C 0.989 0.47662 0.13197 0.0
C1504 C -0.00453 0.505 0.1422 0.0
C1505 C 0.00058 0.52472 0.09895 0.0
C1506 C 0.99183 0.49554 0.08896 0.0
N1507 N 0.9655 0.44177 0.09707 0.0
N1508 N -0.00169 0.55299 0.13525 0.0
C1509 C 0.982 0.47082 0.10584 0.0
C1510 C -0.00181 0.52807 0.1256 0.0
N1511 N 0.99137 0.45581 0.14652 0.0
N1512 N 0.01282 0.54948 0.08365 0.0
H1513 H -0.00419 0.55565 0.15464 0.0
H1514 H -0.00235 0.56921 0.12375 0.0
H1515 H 0.01646 0.54855 0.06428 0.0
H1516 H 0.02207 0.57144 0.09078 0.0
H1517 H 0.98936 0.43602 0.13881 0.0
H1518 H -0.00128 0.45972 0.1654 0.0
H1519 H 0.95637 0.42326 0.1092 0.0
H1520 H 0.95773 0.43651 0.0783 0.0
C1521 C 0.51437 0.48193 0.12953 0.0
C1522 C 0.50642 0.50006 0.14433 0.0
C1523 C 0.50221 0.52477 0.10605 0.0
C1524 C 0.50823 0.50527 0.09118 0.0
N1525 N 0.52877 0.47213 0.0882 0.0
N1526 N 0.50119 0.54426 0.14803 0.0
C1527 C 0.51755 0.48633 0.10279 0.0
C1528 C 0.50325 0.52346 0.13298 0.0
N1529 N 0.51718 0.45944 0.14085 0.0
N1530 N 0.49411 0.54342 0.09425 0.0
H1531 H 0.50169 0.54375 0.16788 0.0
H1532 H 0.50146 0.56339 0.141 0.0
H1533 H 0.4947 0.54582 0.07449 0.0
H1534 H 0.48583 0.55558 0.10376 0.0
H1535 H 0.51941 0.44308 0.13079 0.0
H1536 H 0.51553 0.45601 0.16048 0.0
H1537 H 0.53827 0.46003 0.09572 0.0
H1538 H 0.53126 0.47483 0.06856 0.0
C1539 C 0.02083 0.49091 0.87553 0.0
C1540 C -0.00582 0.4737 0.86129 0.0
C1541 C 0.96442 0.45852 0.90007 0.0
C1542 C 0.99065 0.47804 0.91407 0.0
N1543 N 0.04452 0.5069 0.91712 0.0
N1544 N 0.94208 0.43536 0.85932 0.0
C1545 C 0.0192 0.49197 0.90247 0.0
C1546 C 0.96643 0.45534 0.87344 0.0
N1547 N 0.04726 0.50752 0.86307 0.0
N1548 N 0.93753 0.44421 0.91226 0.0
H1549 H 0.94276 0.43293 0.83965 0.0
H1550 H 0.92169 0.41967 0.86705 0.0
H1551 H 0.9358 0.44487 0.93203 0.0
H1552 H 0.91691 0.43233 0.90306 0.0
H1553 H 0.06711 0.52339 0.87186 0.0
H1554 H 0.04912 0.50612 0.8434 0.0
H1555 H 0.06602 0.51513 0.9102 0.0
H1556 H 0.04415 0.50935 0.93678 0.0
C1557 C 0.5144 0.51929 0.87407 0.0
C1558 C 0.49503 0.49108 0.86222 0.0
C1559 C 0.47549 0.46891 0.90395 0.0
C1560 C 0.49445 0.49747 0.91558 0.0
N1561 N 0.52127 0.55161 0.91014 0.0
N1562 N 0.45029 0.44243 0.86503 0.0
C1563 C 0.51027 0.52327 0.90006 0.0
C1564 C 0.47316 0.46701 0.87692 0.0
N1565 N 0.53807 0.54162 0.86134 0.0
N1566 N 0.46127 0.44336 0.91822 0.0
H1567 H 0.44779 0.44082 0.84525 0.0
H1568 H 0.43231 0.42541 0.87482 0.0
H1569 H 0.46277 0.4433 0.93798 0.0
H1570 H 0.44985 0.42177 0.91017 0.0
H1571 H 0.55432 0.5613 0.87036 0.0
H1572 H 0.54336 0.53934 0.84266 0.0
H1573 H 0.53117 0.57101 0.89904 0.0
H1574 H 0.51713 0.55531 0.92888 0.0
C1575 C 0.46029 0.97953 0.86711 0.0
C1576 C 0.48236 0.00804 0.85785 0.0
C1577 C 0.49825 0.02651 0.90157 0.0
C1578 C 0.47732 -0.00265 0.91071 0.0
N1579 N 0.4321 0.95034 0.90358 0.0
N1580 N 0.51535 0.0611 0.86599 0.0
C1581 C 0.45606 0.97538 0.89382 0.0
C1582 C 0.49902 0.03237 0.87505 0.0
N1583 N 0.44468 0.95596 0.85056 0.0
N1584 N 0.51873 0.04801 0.91775 0.0
H1585 H 0.51636 0.06611 0.84666 0.0
H1586 H 0.52555 0.0802 0.87769 0.0
H1587 H 0.51788 0.04593 0.93745 0.0
H1588 H 0.53732 0.06773 0.91155 0.0
H1589 H 0.43063 0.93386 0.85639 0.0
H1590 H 0.44734 0.958 0.83087 0.0
H1591 H 0.41432 0.93445 0.89252 0.0
H1592 H 0.42876 0.94731 0.92319 0.0
C1593 C 0.17281 0.30467 0.46153 0.0
C1594 C 0.17822 0.32842 0.47875 0.0
C1595 C 0.18727 0.36258 0.44313 0.0
C1596 C 0.17905 0.33805 0.42592 0.0
N1597 N 0.1738 0.28911 0.41795 0.0
N1598 N 0.19688 0.38125 0.48688 0.0
C1599 C 0.17523 0.31021 0.43486 0.0
C1600 C 0.18769 0.35792 0.46979 0.0
N1601 N 0.16382 0.27642 0.47067 0.0
N1602 N 0.19375 0.39007 0.4337 0.0
H1603 H 0.19715 0.37833 0.50651 0.0
H1604 H 0.20591 0.40378 0.48187 0.0
H1605 H 0.19617 0.39462 0.41423 0.0
H1606 H 0.19644 0.40819 0.44478 0.0
H1607 H 0.15589 0.25722 0.45921 0.0
H1608 H 0.16271 0.27176 0.49008 0.0
H1609 H 0.17386 0.26958 0.42334 0.0
H1610 H 0.17573 0.29248 0.39839 0.0
C1611 C 0.65488 0.86449 0.46494 0.0
C1612 C 0.67027 0.85145 0.47725 0.0
C1613 C 0.66727 0.82375 0.43859 0.0
C1614 C 0.6549 0.83907 0.42517 0.0
N1615 N 0.63959 0.87647 0.4248 0.0
N1616 N 0.69952 0.82671 0.47308 0.0
C1617 C 0.64975 0.86046 0.43808 0.0
C1618 C 0.67931 0.83382 0.46314 0.0
N1619 N 0.64394 0.87935 0.47899 0.0
N1620 N 0.66553 0.79807 0.42895 0.0
H1621 H 0.70969 0.83447 0.49087 0.0
H1622 H 0.7086 0.816 0.46241 0.0
H1623 H 0.65367 0.78751 0.41247 0.0
H1624 H 0.67212 0.78494 0.43921 0.0
H1625 H 0.63005 0.88676 0.47147 0.0
H1626 H 0.64691 0.88227 0.49866 0.0
H1627 H 0.63821 0.89453 0.43256 0.0
H1628 H 0.63438 0.87281 0.40543 0.0
C1629 C 0.18262 0.81847 0.45964 0.0
C1630 C 0.17179 0.83408 0.47454 0.0
C1631 C 0.15932 0.85257 0.43624 0.0
C1632 C 0.16951 0.83641 0.42132 0.0
N1633 N 0.19776 0.81056 0.41802 0.0
N1634 N 0.15809 0.87269 0.47783 0.0
C1635 C 0.18379 0.82182 0.4328 0.0
C1636 C 0.16294 0.85347 0.46305 0.0
N1637 N 0.19011 0.79912 0.47102 0.0
N1638 N 0.1449 0.86578 0.42483 0.0
H1639 H 0.1605 0.87379 0.49762 0.0
H1640 H 0.15435 0.88938 0.47041 0.0
H1641 H 0.14255 0.86613 0.40512 0.0
H1642 H 0.13385 0.87487 0.43487 0.0
H1643 H 0.19464 0.78427 0.46097 0.0
H1644 H 0.18989 0.79642 0.4907 0.0
H1645 H 0.21091 0.80219 0.42541 0.0
H1646 H 0.19848 0.812 0.39822 0.0
C1647 C 0.68004 0.81179 0.2093 0.0
C1648 C 0.6523 0.79764 0.19611 0.0
C1649 C 0.62514 0.78777 0.23614 0.0
C1650 C 0.65285 0.8049 0.24887 0.0
N1651 N 0.70599 0.82476 0.25017 0.0
N1652 N 0.59886 0.76488 0.19649 0.0
C1653 C 0.68013 0.81376 0.23627 0.0
C1654 C 0.62491 0.78285 0.20948 0.0
N1655 N 0.70608 0.82481 0.19589 0.0
N1656 N 0.59929 0.77779 0.24949 0.0
H1657 H 0.59817 0.76125 0.17687 0.0
H1658 H 0.57829 0.75183 0.20517 0.0
H1659 H 0.5993 0.78002 0.26928 0.0
H1660 H 0.5781 0.76799 0.24119 0.0
H1661 H 0.72707 0.83858 0.20403 0.0
H1662 H 0.70652 0.82262 0.17615 0.0
H1663 H 0.7265 0.82989 0.24247 0.0
H1664 H 0.70635 0.82622 0.27 0.0
C1665 C 0.13691 0.8183 0.20536 0.0
C1666 C 0.15948 0.81438 0.19366 0.0
C1667 C 0.17946 0.81223 0.23547 0.0
C1668 C 0.15975 0.82047 0.2469 0.0
N1669 N 0.12008 0.83215 0.24358 0.0
N1670 N 0.20296 0.80848 0.19691 0.0
C1671 C 0.13818 0.82323 0.23215 0.0
C1672 C 0.18085 0.81136 0.20855 0.0
N1673 N 0.11443 0.8174 0.19082 0.0
N1674 N 0.19643 0.80474 0.25055 0.0
H1675 H 0.20393 0.80615 0.17725 0.0
H1676 H 0.2214 0.81013 0.20655 0.0
H1677 H 0.19546 0.80476 0.2704 0.0
H1678 H 0.20927 0.79582 0.24359 0.0
H1679 H 0.0956 0.8169 0.19838 0.0
H1680 H 0.11356 0.81508 0.17104 0.0
H1681 H 0.10635 0.83811 0.23363 0.0
H1682 H 0.11985 0.83508 0.26323 0.0
C1683 C 0.17434 0.36763 0.20924 0.0
C1684 C 0.15743 0.34089 0.19452 0.0
C1685 C 0.14251 0.31039 0.23324 0.0
C1686 C 0.16032 0.33702 0.2478 0.0
N1687 N 0.1869 0.39119 0.25121 0.0
N1688 N 0.12021 0.28813 0.19216 0.0
C1689 C 0.17417 0.36576 0.23622 0.0
C1690 C 0.13966 0.31266 0.20647 0.0
N1691 N 0.19137 0.39463 0.19735 0.0
N1692 N 0.1298 0.28287 0.2448 0.0
H1693 H 0.11829 0.28895 0.17244 0.0
H1694 H 0.10444 0.26762 0.1999 0.0
H1695 H 0.13071 0.28044 0.26443 0.0
H1696 H 0.11959 0.26237 0.23495 0.0
H1697 H 0.20704 0.41427 0.2067 0.0
H1698 H 0.191 0.39719 0.17768 0.0
H1699 H 0.19501 0.41292 0.2443 0.0
H1700 H 0.18694 0.39034 0.27106 0.0
C1701 C 0.83334 0.62988 0.79078 0.0
C1702 C 0.83533 0.65267 0.80764 0.0
C1703 C 0.83806 0.68396 0.77141 0.0
C1704 C 0.8353 0.66085 0.75453 0.0
N1705 N 0.83725 0.61525 0.74747 0.0
N1706 N 0.84638 0.7038 0.81469 0.0
C1707 C 0.83544 0.635 0.76403 0.0
C1708 C 0.83987 0.68053 0.79811 0.0
N1709 N 0.82775 0.6027 0.80027 0.0
N1710 N 0.83834 0.70894 0.76183 0.0
H1711 H 0.84794 0.70193 0.83434 0.0
H1712 H 0.85265 0.72564 0.80904 0.0
H1713 H 0.83961 0.71347 0.74239 0.0
H1714 H 0.83624 0.72468 0.77296 0.0
H1715 H 0.82254 0.58388 0.78898 0.0
H1716 H 0.82646 0.59823 0.81972 0.0
H1717 H 0.84049 0.59761 0.75316 0.0
H1718 H 0.83792 0.6179 0.72777 0.0
C1719 C 0.34224 0.16547 0.79515 0.0
C1720 C 0.33474 0.1852 0.80786 0.0
C1721 C 0.32196 0.19841 0.7667 0.0
C1722 C 0.32295 0.17375 0.75528 0.0
N1723 N 0.32985 0.13039 0.76055 0.0
N1724 N 0.31539 0.21952 0.80599 0.0
C1725 C 0.33203 0.15636 0.76998 0.0
C1726 C 0.32426 0.20173 0.79371 0.0
N1727 N 0.35963 0.15584 0.80693 0.0
N1728 N 0.31921 0.21868 0.75182 0.0
H1729 H 0.31627 0.22201 0.82575 0.0
H1730 H 0.30494 0.22976 0.79671 0.0
H1731 H 0.31896 0.21735 0.73198 0.0
H1732 H 0.32055 0.23837 0.75899 0.0
H1733 H 0.36796 0.14365 0.79745 0.0
H1734 H 0.36865 0.16303 0.82516 0.0
H1735 H 0.3333 0.11558 0.77173 0.0
H1736 H 0.3217 0.12189 0.74251 0.0
C1737 C 0.83867 0.20635 0.79531 0.0
C1738 C 0.84648 0.18635 0.80723 0.0
C1739 C 0.85919 0.1738 0.76589 0.0
C1740 C 0.84527 0.18842 0.75393 0.0
N1741 N 0.82355 0.22034 0.75617 0.0
N1742 N 0.86513 0.15163 0.80468 0.0
C1743 C 0.8362 0.20586 0.76835 0.0
C1744 C 0.85765 0.1707 0.79279 0.0
N1745 N 0.8332 0.22531 0.80984 0.0
N1746 N 0.87301 0.16216 0.7514 0.0
H1747 H 0.86498 0.14952 0.82443 0.0
H1748 H 0.86996 0.13675 0.79503 0.0
H1749 H 0.87443 0.16423 0.73165 0.0
H1750 H 0.88547 0.1531 0.75897 0.0
H1751 H 0.82988 0.24221 0.80232 0.0
H1752 H 0.83435 0.22575 0.82969 0.0
H1753 H 0.81328 0.23074 0.76547 0.0
H1754 H 0.82239 0.22088 0.73635 0.0
C1755 C 0.35061 0.15994 0.53823 0.0
C1756 C 0.32356 0.14339 0.52424 0.0
C1757 C 0.29546 0.12374 0.5636 0.0
C1758 C 0.32191 0.1427 0.5774 0.0
N1759 N 0.37544 0.17052 0.57959 0.0
N1760 N 0.27232 0.10294 0.52247 0.0
C1761 C 0.34987 0.15768 0.56516 0.0
C1762 C 0.29663 0.12285 0.53662 0.0
N1763 N 0.37643 0.17911 0.52592 0.0
N1764 N 0.26916 0.10811 0.57639 0.0
H1765 H 0.27265 0.10196 0.50263 0.0
H1766 H 0.25266 0.08593 0.5303 0.0
H1767 H 0.26846 0.1076 0.59627 0.0
H1768 H 0.24827 0.0964 0.56757 0.0
H1769 H 0.3962 0.19431 0.53523 0.0
H1770 H 0.37774 0.18086 0.50613 0.0
H1771 H 0.39683 0.18018 0.57203 0.0
H1772 H 0.37494 0.16892 0.59942 0.0
C1773 C 0.84205 0.14162 0.53913 0.0
C1774 C 0.81803 0.13911 0.52412 0.0
C1775 C 0.79324 0.14283 0.56256 0.0
C1776 C 0.81962 0.15072 0.5766 0.0
N1777 N 0.86998 0.15927 0.57859 0.0
N1778 N 0.77017 0.13647 0.52083 0.0
C1779 C 0.84406 0.14998 0.56509 0.0
C1780 C 0.79309 0.13885 0.53568 0.0
N1781 N 0.86288 0.1359 0.5285 0.0
N1782 N 0.76876 0.1398 0.57501 0.0
H1783 H 0.76936 0.13341 0.50113 0.0
H1784 H 0.75272 0.13906 0.5277 0.0
H1785 H 0.76896 0.14332 0.59462 0.0
H1786 H 0.74784 0.13161 0.5665 0.0
H1787 H 0.87936 0.13462 0.53902 0.0
H1788 H 0.862 0.12957 0.50945 0.0
H1789 H 0.88994 0.16333 0.57037 0.0
H1790 H 0.87203 0.1648 0.59791 0.0
C1791 C 0.79394 0.64501 0.53609 0.0
C1792 C 0.81497 0.67268 0.52478 0.0
C1793 C 0.83643 0.69397 0.56661 0.0
C1794 C 0.81611 0.66593 0.57777 0.0
N1795 N 0.77035 0.6186 0.57507 0.0
N1796 N 0.84911 0.7261 0.52961 0.0
C1797 C 0.79285 0.64288 0.56306 0.0
C1798 C 0.83371 0.69813 0.54024 0.0
N1799 N 0.77649 0.62029 0.52115 0.0
N1800 N 0.85982 0.71559 0.58059 0.0
H1801 H 0.84751 0.72975 0.51027 0.0
H1802 H 0.86102 0.74589 0.5403 0.0
H1803 H 0.86276 0.71326 0.59993 0.0
H1804 H 0.87734 0.73497 0.5727 0.0
H1805 H 0.76321 0.5987 0.52837 0.0
H1806 H 0.77679 0.62089 0.50131 0.0
H1807 H 0.7514 0.60189 0.56572 0.0
H1808 H 0.76951 0.61695 0.59491 0.0
loop_
_geom_bond_atom_site_label_1
_geom_bond_atom_site_label_2
_geom_bond_distance
_geom_bond_site_symmetry_2
_ccdc_geom_bond_type
C0 C1 1.384 . S
C0 H13 0.947 . S
C0 C35 1.382 . S
C1 C0 1.384 . S
C1 C2 1.378 . S
C2 C1 1.378 . S
C2 C3 1.378 . S
C2 H14 0.952 . S
C3 C2 1.378 . S
C3 H15 0.950 . S
C3 C34 1.383 . S
H4 C23 0.947 . S
H5 C24 0.946 . S
H6 C26 0.953 . S
H7 C27 0.945 . S
H8 C29 0.952 . S
H9 C30 0.949 . S
H10 C32 0.950 . S
H11 C33 0.948 . S
H12 C35 0.951 . S
H13 C0 0.947 . S
H14 C2 0.952 . S
H15 C3 0.950 . S
N16 C19 1.382 . S
N16 C21 1.363 . S
N17 C19 1.371 . S
N17 C20 1.372 . S
N18 C20 1.361 . S
N18 C21 1.377 . S
C19 N16 1.382 . S
C19 N17 1.371 . S
C19 C22 1.480 . S
C20 N17 1.372 . S
C20 N18 1.361 . S
C20 C28 1.457 . S
C21 N16 1.363 . S
C21 N18 1.377 . S
C21 C34 1.479 . S
C22 C19 1.480 . S
C22 C23 1.383 . S
C22 C27 1.385 . S
C23 H4 0.947 . S
C23 C22 1.383 . S
C23 C24 1.388 . S
C24 H5 0.946 . S
C24 C23 1.388 . S
C24 C25 1.384 . S
C25 C24 1.384 . S
C25 C26 1.377 . S
C26 H6 0.953 . S
C26 C25 1.377 . S
C26 C27 1.369 . S
C27 H7 0.945 . S
C27 C22 1.385 . S
C27 C26 1.369 . S
C28 C20 1.457 . S
C28 C29 1.372 . S
C28 C33 1.364 . S
C29 H8 0.952 . S
C29 C28 1.372 . S
C29 C30 1.389 . S
C30 H9 0.949 . S
C30 C29 1.389 . S
C30 C31 1.387 . S
C31 C30 1.387 . S
C31 C32 1.372 . S
C32 H10 0.950 . S
C32 C31 1.372 . S
C32 C33 1.379 . S
C33 H11 0.948 . S
C33 C28 1.364 . S
C33 C32 1.379 . S
C34 C3 1.383 . S
C34 C21 1.479 . S
C34 C35 1.398 . S
C35 C0 1.382 . S
C35 H12 0.951 . S
C35 C34 1.398 . S
C36 C37 1.384 . S
C36 H49 0.947 . S
C36 C71 1.382 . S
C37 C36 1.384 . S
C37 C38 1.378 . S
C38 C37 1.378 . S
C38 C39 1.378 . S
C38 H50 0.952 . S
C39 C38 1.378 . S
C39 H51 0.950 . S
C39 C70 1.383 . S
H40 C59 0.947 . S
H41 C60 0.946 . S
H42 C62 0.953 . S
H43 C63 0.945 . S
H44 C65 0.952 . S
H45 C66 0.949 . S
H46 C68 0.950 . S
H47 C69 0.948 . S
H48 C71 0.951 . S
H49 C36 0.947 . S
H50 C38 0.952 . S
H51 C39 0.950 . S
N52 C55 1.382 . S
N52 C57 1.363 . S
N53 C55 1.371 . S
N53 C56 1.372 . S
N54 C56 1.361 . S
N54 C57 1.377 . S
C55 N52 1.382 . S
C55 N53 1.371 . S
C55 C58 1.480 . S
C56 N53 1.372 . S
C56 N54 1.361 . S
C56 C64 1.457 . S
C57 N52 1.363 . S
C57 N54 1.377 . S
C57 C70 1.479 . S
C58 C55 1.480 . S
C58 C59 1.383 . S
C58 C63 1.385 . S
C59 H40 0.947 . S
C59 C58 1.383 . S
C59 C60 1.388 . S
C60 H41 0.946 . S
C60 C59 1.388 . S
C60 C61 1.384 . S
C61 C60 1.384 . S
C61 C62 1.377 . S
C62 H42 0.953 . S
C62 C61 1.377 . S
C62 C63 1.369 . S
C63 H43 0.945 . S
C63 C58 1.385 . S
C63 C62 1.369 . S
C64 C56 1.457 . S
C64 C65 1.372 . S
C64 C69 1.364 . S
C65 H44 0.952 . S
C65 C64 1.372 . S
C65 C66 1.389 . S
C66 H45 0.949 . S
C66 C65 1.389 . S
C66 C67 1.387 . S
C67 C66 1.387 . S
C67 C68 1.372 . S
C68 H46 0.950 . S
C68 C67 1.372 . S
C68 C69 1.379 . S
C69 H47 0.948 . S
C69 C64 1.364 . S
C69 C68 1.379 . S
C70 C39 1.383 . S
C70 C57 1.479 . S
C70 C71 1.398 . S
C71 C36 1.382 . S
C71 H48 0.951 . S
C71 C70 1.398 . S
C72 C73 1.384 . S
C72 H85 0.947 . S
C72 C107 1.382 . S
C73 C72 1.384 . S
C73 C74 1.378 . S
C74 C73 1.378 . S
C74 C75 1.378 . S
C74 H86 0.952 . S
C75 C74 1.378 . S
C75 H87 0.950 . S
C75 C106 1.383 . S
H76 C95 0.947 . S
H77 C96 0.946 . S
H78 C98 0.953 . S
H79 C99 0.945 . S
H80 C101 0.952 . S
H81 C102 0.949 . S
H82 C104 0.950 . S
H83 C105 0.948 . S
H84 C107 0.951 . S
H85 C72 0.947 . S
H86 C74 0.952 . S
H87 C75 0.950 . S
N88 C91 1.382 . S
N88 C93 1.363 . S
N89 C91 1.371 . S
N89 C92 1.372 . S
N90 C92 1.361 . S
N90 C93 1.377 . S
C91 N88 1.382 . S
C91 N89 1.371 . S
C91 C94 1.480 . S
C92 N89 1.372 . S
C92 N90 1.361 . S
C92 C100 1.457 . S
C93 N88 1.363 . S
C93 N90 1.377 . S
C93 C106 1.479 . S
C94 C91 1.480 . S
C94 C95 1.383 . S
C94 C99 1.385 . S
C95 H76 0.947 . S
C95 C94 1.383 . S
C95 C96 1.388 . S
C96 H77 0.946 . S
C96 C95 1.388 . S
C96 C97 1.384 . S
C97 C96 1.384 . S
C97 C98 1.377 . S
C98 H78 0.953 . S
C98 C97 1.377 . S
C98 C99 1.369 . S
C99 H79 0.945 . S
C99 C94 1.385 . S
C99 C98 1.369 . S
C100 C92 1.457 . S
C100 C101 1.372 . S
C100 C105 1.364 . S
C101 H80 0.952 . S
C101 C100 1.372 . S
C101 C102 1.389 . S
C102 H81 0.949 . S
C102 C101 1.389 . S
C102 C103 1.387 . S
C103 C102 1.387 . S
C103 C104 1.372 . S
C104 H82 0.950 . S
C104 C103 1.372 . S
C104 C105 1.379 . S
C105 H83 0.948 . S
C105 C100 1.364 . S
C105 C104 1.379 . S
C106 C75 1.383 . S
C106 C93 1.479 . S
C106 C107 1.398 . S
C107 C72 1.382 . S
C107 H84 0.951 . S
C107 C106 1.398 . S
C108 C109 1.384 . S
C108 H121 0.947 . S
C108 C143 1.382 . S
C109 C108 1.384 . S
C109 C110 1.378 . S
C110 C109 1.378 . S
C110 C111 1.378 . S
C110 H122 0.952 . S
C111 C110 1.378 . S
C111 H123 0.950 . S
C111 C142 1.383 . S
H112 C131 0.947 . S
H113 C132 0.946 . S
H114 C134 0.953 . S
H115 C135 0.945 . S
H116 C137 0.952 . S
H117 C138 0.949 . S
H118 C140 0.950 . S
H119 C141 0.948 . S
H120 C143 0.951 . S
H121 C108 0.947 . S
H122 C110 0.952 . S
H123 C111 0.950 . S
N124 C127 1.382 . S
N124 C129 1.363 . S
N125 C127 1.371 . S
N125 C128 1.372 . S
N126 C128 1.361 . S
N126 C129 1.377 . S
C127 N124 1.382 . S
C127 N125 1.371 . S
C127 C130 1.480 . S
C128 N125 1.372 . S
C128 N126 1.361 . S
C128 C136 1.457 . S
C129 N124 1.363 . S
C129 N126 1.377 . S
C129 C142 1.479 . S
C130 C127 1.480 . S
C130 C131 1.383 . S
C130 C135 1.385 . S
C131 H112 0.947 . S
C131 C130 1.383 . S
C131 C132 1.388 . S
C132 H113 0.946 . S
C132 C131 1.388 . S
C132 C133 1.384 . S
C133 C132 1.384 . S
C133 C134 1.377 . S
C134 H114 0.953 . S
C134 C133 1.377 . S
C134 C135 1.369 . S
C135 H115 0.945 . S
C135 C130 1.385 . S
C135 C134 1.369 . S
C136 C128 1.457 . S
C136 C137 1.372 . S
C136 C141 1.364 . S
C137 H116 0.952 . S
C137 C136 1.372 . S
C137 C138 1.389 . S
C138 H117 0.949 . S
C138 C137 1.389 . S
C138 C139 1.387 . S
C139 C138 1.387 . S
C139 C140 1.372 . S
C140 H118 0.950 . S
C140 C139 1.372 . S
C140 C141 1.379 . S
C141 H119 0.948 . S
C141 C136 1.364 . S
C141 C140 1.379 . S
C142 C111 1.383 . S
C142 C129 1.479 . S
C142 C143 1.398 . S
C143 C108 1.382 . S
C143 H120 0.951 . S
C143 C142 1.398 . S
C144 C145 1.384 . S
C144 H157 0.947 . S
C144 C179 1.382 . S
C145 C144 1.384 . S
C145 C146 1.378 . S
C146 C145 1.378 . S
C146 C147 1.378 . S
C146 H158 0.952 . S
C147 C146 1.378 . S
C147 H159 0.950 . S
C147 C178 1.383 . S
H148 C167 0.947 . S
H149 C168 0.946 . S
H150 C170 0.953 . S
H151 C171 0.945 . S
H152 C173 0.952 . S
H153 C174 0.949 . S
H154 C176 0.950 . S
H155 C177 0.948 . S
H156 C179 0.951 . S
H157 C144 0.947 . S
H158 C146 0.952 . S
H159 C147 0.950 . S
N160 C163 1.382 . S
N160 C165 1.363 . S
N161 C163 1.371 . S
N161 C164 1.372 . S
N162 C164 1.361 . S
N162 C165 1.377 . S
C163 N160 1.382 . S
C163 N161 1.371 . S
C163 C166 1.480 . S
C164 N161 1.372 . S
C164 N162 1.361 . S
C164 C172 1.457 . S
C165 N160 1.363 . S
C165 N162 1.377 . S
C165 C178 1.479 . S
C166 C163 1.480 . S
C166 C167 1.383 . S
C166 C171 1.385 . S
C167 H148 0.947 . S
C167 C166 1.383 . S
C167 C168 1.388 . S
C168 H149 0.946 . S
C168 C167 1.388 . S
C168 C169 1.384 . S
C169 C168 1.384 . S
C169 C170 1.377 . S
C170 H150 0.953 . S
C170 C169 1.377 . S
C170 C171 1.369 . S
C171 H151 0.945 . S
C171 C166 1.385 . S
C171 C170 1.369 . S
C172 C164 1.457 . S
C172 C173 1.372 . S
C172 C177 1.364 . S
C173 H152 0.952 . S
C173 C172 1.372 . S
C173 C174 1.389 . S
C174 H153 0.949 . S
C174 C173 1.389 . S
C174 C175 1.387 . S
C175 C174 1.387 . S
C175 C176 1.372 . S
C176 H154 0.950 . S
C176 C175 1.372 . S
C176 C177 1.379 . S
C177 H155 0.948 . S
C177 C172 1.364 . S
C177 C176 1.379 . S
C178 C147 1.383 . S
C178 C165 1.479 . S
C178 C179 1.398 . S
C179 C144 1.382 . S
C179 H156 0.951 . S
C179 C178 1.398 . S
C180 C181 1.384 . S
C180 H193 0.947 . S
C180 C215 1.382 . S
C181 C180 1.384 . S
C181 C182 1.378 . S
C182 C181 1.378 . S
C182 C183 1.378 . S
C182 H194 0.952 . S
C183 C182 1.378 . S
C183 H195 0.950 . S
C183 C214 1.383 . S
H184 C203 0.947 . S
H185 C204 0.946 . S
H186 C206 0.953 . S
H187 C207 0.945 . S
H188 C209 0.952 . S
H189 C210 0.949 . S
H190 C212 0.950 . S
H191 C213 0.948 . S
H192 C215 0.951 . S
H193 C180 0.947 . S
H194 C182 0.952 . S
H195 C183 0.950 . S
N196 C199 1.382 . S
N196 C201 1.363 . S
N197 C199 1.371 . S
N197 C200 1.372 . S
N198 C200 1.361 . S
N198 C201 1.377 . S
C199 N196 1.382 . S
C199 N197 1.371 . S
C199 C202 1.480 . S
C200 N197 1.372 . S
C200 N198 1.361 . S
C200 C208 1.457 . S
C201 N196 1.363 . S
C201 N198 1.377 . S
C201 C214 1.479 . S
C202 C199 1.480 . S
C202 C203 1.383 . S
C202 C207 1.385 . S
C203 H184 0.947 . S
C203 C202 1.383 . S
C203 C204 1.388 . S
C204 H185 0.946 . S
C204 C203 1.388 . S
C204 C205 1.384 . S
C205 C204 1.384 . S
C205 C206 1.377 . S
C206 H186 0.953 . S
C206 C205 1.377 . S
C206 C207 1.369 . S
C207 H187 0.945 . S
C207 C202 1.385 . S
C207 C206 1.369 . S
C208 C200 1.457 . S
C208 C209 1.372 . S
C208 C213 1.364 . S
C209 H188 0.952 . S
C209 C208 1.372 . S
C209 C210 1.389 . S
C210 H189 0.949 . S
C210 C209 1.389 . S
C210 C211 1.387 . S
C211 C210 1.387 . S
C211 C212 1.372 . S
C212 H190 0.950 . S
C212 C211 1.372 . S
C212 C213 1.379 . S
C213 H191 0.948 . S
C213 C208 1.364 . S
C213 C212 1.379 . S
C214 C183 1.383 . S
C214 C201 1.479 . S
C214 C215 1.398 . S
C215 C180 1.382 . S
C215 H192 0.951 . S
C215 C214 1.398 . S
C216 C217 1.384 . S
C216 H229 0.947 . S
C216 C251 1.382 . S
C217 C216 1.384 . S
C217 C218 1.378 . S
C218 C217 1.378 . S
C218 C219 1.378 . S
C218 H230 0.952 . S
C219 C218 1.378 . S
C219 H231 0.950 . S
C219 C250 1.383 . S
H220 C239 0.947 . S
H221 C240 0.946 . S
H222 C242 0.953 . S
H223 C243 0.945 . S
H224 C245 0.952 . S
H225 C246 0.949 . S
H226 C248 0.950 . S
H227 C249 0.948 . S
H228 C251 0.951 . S
H229 C216 0.947 . S
H230 C218 0.952 . S
H231 C219 0.950 . S
N232 C235 1.382 . S
N232 C237 1.363 . S
N233 C235 1.371 . S
N233 C236 1.372 . S
N234 C236 1.361 . S
N234 C237 1.377 . S
C235 N232 1.382 . S
C235 N233 1.371 . S
C235 C238 1.480 . S
C236 N233 1.372 . S
C236 N234 1.361 . S
C236 C244 1.457 . S
C237 N232 1.363 . S
C237 N234 1.377 . S
C237 C250 1.479 . S
C238 C235 1.480 . S
C238 C239 1.383 . S
C238 C243 1.385 . S
C239 H220 0.947 . S
C239 C238 1.383 . S
C239 C240 1.388 . S
C240 H221 0.946 . S
C240 C239 1.388 . S
C240 C241 1.384 . S
C241 C240 1.384 . S
C241 C242 1.377 . S
C242 H222 0.953 . S
C242 C241 1.377 . S
C242 C243 1.369 . S
C243 H223 0.945 . S
C243 C238 1.385 . S
C243 C242 1.369 . S
C244 C236 1.457 . S
C244 C245 1.372 . S
C244 C249 1.364 . S
C245 H224 0.952 . S
C245 C244 1.372 . S
C245 C246 1.389 . S
C246 H225 0.949 . S
C246 C245 1.389 . S
C246 C247 1.387 . S
C247 C246 1.387 . S
C247 C248 1.372 . S
C248 H226 0.950 . S
C248 C247 1.372 . S
C248 C249 1.379 . S
C249 H227 0.948 . S
C249 C244 1.364 . S
C249 C248 1.379 . S
C250 C219 1.383 . S
C250 C237 1.479 . S
C250 C251 1.398 . S
C251 C216 1.382 . S
C251 H228 0.951 . S
C251 C250 1.398 . S
C252 C253 1.384 . S
C252 H265 0.947 . S
C252 C287 1.382 . S
C253 C252 1.384 . S
C253 C254 1.378 . S
C254 C253 1.378 . S
C254 C255 1.378 . S
C254 H266 0.952 . S
C255 C254 1.378 . S
C255 H267 0.950 . S
C255 C286 1.383 . S
H256 C275 0.947 . S
H257 C276 0.946 . S
H258 C278 0.953 . S
H259 C279 0.945 . S
H260 C281 0.952 . S
H261 C282 0.949 . S
H262 C284 0.950 . S
H263 C285 0.948 . S
H264 C287 0.951 . S
H265 C252 0.947 . S
H266 C254 0.952 . S
H267 C255 0.950 . S
N268 C271 1.382 . S
N268 C273 1.363 . S
N269 C271 1.371 . S
N269 C272 1.372 . S
N270 C272 1.361 . S
N270 C273 1.377 . S
C271 N268 1.382 . S
C271 N269 1.371 . S
C271 C274 1.480 . S
C272 N269 1.372 . S
C272 N270 1.361 . S
C272 C280 1.457 . S
C273 N268 1.363 . S
C273 N270 1.377 . S
C273 C286 1.479 . S
C274 C271 1.480 . S
C274 C275 1.383 . S
C274 C279 1.385 . S
C275 H256 0.947 . S
C275 C274 1.383 . S
C275 C276 1.388 . S
C276 H257 0.946 . S
C276 C275 1.388 . S
C276 C277 1.384 . S
C277 C276 1.384 . S
C277 C278 1.377 . S
C278 H258 0.953 . S
C278 C277 1.377 . S
C278 C279 1.369 . S
C279 H259 0.945 . S
C279 C274 1.385 . S
C279 C278 1.369 . S
C280 C272 1.457 . S
C280 C281 1.372 . S
C280 C285 1.364 . S
C281 H260 0.952 . S
C281 C280 1.372 . S
C281 C282 1.389 . S
C282 H261 0.949 . S
C282 C281 1.389 . S
C282 C283 1.387 . S
C283 C282 1.387 . S
C283 C284 1.372 . S
C284 H262 0.950 . S
C284 C283 1.372 . S
C284 C285 1.379 . S
C285 H263 0.948 . S
C285 C280 1.364 . S
C285 C284 1.379 . S
C286 C255 1.383 . S
C286 C273 1.479 . S
C286 C287 1.398 . S
C287 C252 1.382 . S
C287 H264 0.951 . S
C287 C286 1.398 . S
C288 C289 1.384 . S
C288 H301 0.947 . S
C288 C323 1.382 . S
C289 C288 1.384 . S
C289 C290 1.378 . S
C290 C289 1.378 . S
C290 C291 1.378 . S
C290 H302 0.952 . S
C291 C290 1.378 . S
C291 H303 0.950 . S
C291 C322 1.383 . S
H292 C311 0.947 . S
H293 C312 0.946 . S
H294 C314 0.953 . S
H295 C315 0.945 . S
H296 C317 0.952 . S
H297 C318 0.949 . S
H298 C320 0.950 . S
H299 C321 0.948 . S
H300 C323 0.951 . S
H301 C288 0.947 . S
H302 C290 0.952 . S
H303 C291 0.950 . S
N304 C307 1.382 . S
N304 C309 1.363 . S
N305 C307 1.371 . S
N305 C308 1.372 . S
N306 C308 1.361 . S
N306 C309 1.377 . S
C307 N304 1.382 . S
C307 N305 1.371 . S
C307 C310 1.480 . S
C308 N305 1.372 . S
C308 N306 1.361 . S
C308 C316 1.457 . S
C309 N304 1.363 . S
C309 N306 1.377 . S
C309 C322 1.479 . S
C310 C307 1.480 . S
C310 C311 1.383 . S
C310 C315 1.385 . S
C311 H292 0.947 . S
C311 C310 1.383 . S
C311 C312 1.388 . S
C312 H293 0.946 . S
C312 C311 1.388 . S
C312 C313 1.384 . S
C313 C312 1.384 . S
C313 C314 1.377 . S
C314 H294 0.953 . S
C314 C313 1.377 . S
C314 C315 1.369 . S
C315 H295 0.945 . S
C315 C310 1.385 . S
C315 C314 1.369 . S
C316 C308 1.457 . S
C316 C317 1.372 . S
C316 C321 1.364 . S
C317 H296 0.952 . S
C317 C316 1.372 . S
C317 C318 1.389 . S
C318 H297 0.949 . S
C318 C317 1.389 . S
C318 C319 1.387 . S
C319 C318 1.387 . S
C319 C320 1.372 . S
C320 H298 0.950 . S
C320 C319 1.372 . S
C320 C321 1.379 . S
C321 H299 0.948 . S
C321 C316 1.364 . S
C321 C320 1.379 . S
C322 C291 1.383 . S
C322 C309 1.479 . S
C322 C323 1.398 . S
C323 C288 1.382 . S
C323 H300 0.951 . S
C323 C322 1.398 . S
C324 C325 1.384 . S
C324 H337 0.947 . S
C324 C359 1.382 . S
C325 C324 1.384 . S
C325 C326 1.378 . S
C326 C325 1.378 . S
C326 C327 1.378 . S
C326 H338 0.952 1_556 S
C327 C326 1.378 . S
C327 H339 0.950 . S
C327 C358 1.383 . S
H328 C347 0.947 . S
H329 C348 0.946 1_554 S
H330 C350 0.953 . S
H331 C351 0.945 . S
H332 C353 0.952 . S
H333 C354 0.949 . S
H334 C356 0.950 . S
H335 C357 0.948 . S
H336 C359 0.951 . S
H337 C324 0.947 . S
H338 C326 0.952 1_554 S
H339 C327 0.950 . S
N340 C343 1.382 . S
N340 C345 1.363 . S
N341 C343 1.371 . S
N341 C344 1.372 . S
N342 C344 1.361 . S
N342 C345 1.377 . S
C343 N340 1.382 . S
C343 N341 1.371 . S
C343 C346 1.480 . S
C344 N341 1.372 . S
C344 N342 1.361 . S
C344 C352 1.457 . S
C345 N340 1.363 . S
C345 N342 1.377 . S
C345 C358 1.479 . S
C346 C343 1.480 . S
C346 C347 1.383 . S
C346 C351 1.385 . S
C347 H328 0.947 . S
C347 C346 1.383 . S
C347 C348 1.388 . S
C348 H329 0.946 1_556 S
C348 C347 1.388 . S
C348 C349 1.384 . S
C349 C348 1.384 . S
C349 C350 1.377 . S
C350 H330 0.953 . S
C350 C349 1.377 . S
C350 C351 1.369 . S
C351 H331 0.945 . S
C351 C346 1.385 . S
C351 C350 1.369 . S
C352 C344 1.457 . S
C352 C353 1.372 . S
C352 C357 1.364 . S
C353 H332 0.952 . S
C353 C352 1.372 . S
C353 C354 1.389 . S
C354 H333 0.949 . S
C354 C353 1.389 . S
C354 C355 1.387 . S
C355 C354 1.387 . S
C355 C356 1.372 . S
C356 H334 0.950 . S
C356 C355 1.372 . S
C356 C357 1.379 . S
C357 H335 0.948 . S
C357 C352 1.364 . S
C357 C356 1.379 . S
C358 C327 1.383 . S
C358 C345 1.479 . S
C358 C359 1.398 . S
C359 C324 1.382 . S
C359 H336 0.951 . S
C359 C358 1.398 . S
C360 C361 1.384 . S
C360 H373 0.947 . S
C360 C395 1.382 . S
C361 C360 1.384 . S
C361 C362 1.379 1_556 S
C362 C361 1.379 1_554 S
C362 C363 1.378 1_554 S
C362 H374 0.951 . S
C363 C362 1.378 1_556 S
C363 H375 0.969 . S
C363 C394 1.383 . S
H364 C383 0.947 . S
H365 C384 0.946 1_554 S
H366 C386 0.953 . S
H367 C387 0.945 . S
H368 C389 0.952 . S
H369 C390 0.949 . S
H370 C392 0.950 . S
H371 C393 0.948 . S
H372 C395 0.951 . S
H373 C360 0.947 . S
H374 C362 0.951 . S
H375 C363 0.969 . S
N376 C379 1.382 . S
N376 C381 1.363 . S
N377 C379 1.371 . S
N377 C380 1.372 . S
N378 C380 1.361 . S
N378 C381 1.377 . S
C379 N376 1.382 . S
C379 N377 1.371 . S
C379 C382 1.480 . S
C380 N377 1.372 . S
C380 N378 1.361 . S
C380 C388 1.457 . S
C381 N376 1.363 . S
C381 N378 1.377 . S
C381 C394 1.479 . S
C382 C379 1.480 . S
C382 C383 1.383 . S
C382 C387 1.385 . S
C383 H364 0.947 . S
C383 C382 1.383 . S
C383 C384 1.388 . S
C384 H365 0.946 1_556 S
C384 C383 1.388 . S
C384 C385 1.384 . S
C385 C384 1.384 . S
C385 C386 1.377 . S
C386 H366 0.953 . S
C386 C385 1.377 . S
C386 C387 1.369 . S
C387 H367 0.945 . S
C387 C382 1.385 . S
C387 C386 1.369 . S
C388 C380 1.457 . S
C388 C389 1.372 . S
C388 C393 1.364 . S
C389 H368 0.952 . S
C389 C388 1.372 . S
C389 C390 1.389 . S
C390 H369 0.949 . S
C390 C389 1.389 . S
C390 C391 1.387 . S
C391 C390 1.387 . S
C391 C392 1.372 . S
C392 H370 0.950 . S
C392 C391 1.372 . S
C392 C393 1.379 . S
C393 H371 0.948 . S
C393 C388 1.364 . S
C393 C392 1.379 . S
C394 C363 1.383 . S
C394 C381 1.479 . S
C394 C395 1.398 . S
C395 C360 1.382 . S
C395 H372 0.951 . S
C395 C394 1.398 . S
C396 C397 1.384 . S
C396 H409 0.947 . S
C396 C431 1.382 . S
C397 C396 1.384 . S
C397 C398 1.378 . S
C398 C397 1.378 . S
C398 C399 1.378 . S
C398 H410 0.952 1_556 S
C399 C398 1.378 . S
C399 H411 0.950 . S
C399 C430 1.383 . S
H400 C419 0.947 . S
H401 C420 0.946 1_554 S
H402 C422 0.953 . S
H403 C423 0.945 . S
H404 C425 0.952 . S
H405 C426 0.949 . S
H406 C428 0.950 . S
H407 C429 0.948 . S
H408 C431 0.951 . S
H409 C396 0.947 . S
H410 C398 0.952 1_554 S
H411 C399 0.950 . S
N412 C415 1.382 . S
N412 C417 1.363 . S
N413 C415 1.371 . S
N413 C416 1.372 . S
N414 C416 1.361 . S
N414 C417 1.377 . S
C415 N412 1.382 . S
C415 N413 1.371 . S
C415 C418 1.480 . S
C416 N413 1.372 . S
C416 N414 1.361 . S
C416 C424 1.457 . S
C417 N412 1.363 . S
C417 N414 1.377 . S
C417 C430 1.479 . S
C418 C415 1.480 . S
C418 C419 1.383 . S
C418 C423 1.385 . S
C419 H400 0.947 . S
C419 C418 1.383 . S
C419 C420 1.388 . S
C420 H401 0.946 1_556 S
C420 C419 1.388 . S
C420 C421 1.384 . S
C421 C420 1.384 . S
C421 C422 1.377 . S
C422 H402 0.953 . S
C422 C421 1.377 . S
C422 C423 1.369 . S
C423 H403 0.945 . S
C423 C418 1.385 . S
C423 C422 1.369 . S
C424 C416 1.457 . S
C424 C425 1.372 . S
C424 C429 1.364 . S
C425 H404 0.952 . S
C425 C424 1.372 . S
C425 C426 1.389 . S
C426 H405 0.949 . S
C426 C425 1.389 . S
C426 C427 1.387 . S
C427 C426 1.387 . S
C427 C428 1.372 . S
C428 H406 0.950 . S
C428 C427 1.372 . S
C428 C429 1.379 . S
C429 H407 0.948 . S
C429 C424 1.364 . S
C429 C428 1.379 . S
C430 C399 1.383 . S
C430 C417 1.479 . S
C430 C431 1.398 . S
C431 C396 1.382 . S
C431 H408 0.951 . S
C431 C430 1.398 . S
C432 C433 1.384 . S
C432 H445 0.947 . S
C432 C467 1.382 . S
C433 C432 1.384 . S
C433 C434 1.378 . S
C434 C433 1.378 . S
C434 C435 1.378 . S
C434 H446 0.952 1_554 S
C435 C434 1.378 . S
C435 H447 0.950 . S
C435 C466 1.383 . S
H436 C455 0.947 . S
H437 C456 0.946 1_556 S
H438 C458 0.953 . S
H439 C459 0.945 . S
H440 C461 0.952 . S
H441 C462 0.949 . S
H442 C464 0.950 . S
H443 C465 0.948 . S
H444 C467 0.951 . S
H445 C432 0.947 . S
H446 C434 0.952 1_556 S
H447 C435 0.950 . S
N448 C451 1.382 . S
N448 C453 1.363 . S
N449 C451 1.371 . S
N449 C452 1.372 . S
N450 C452 1.361 . S
N450 C453 1.377 . S
C451 N448 1.382 . S
C451 N449 1.371 . S
C451 C454 1.480 . S
C452 N449 1.372 . S
C452 N450 1.361 . S
C452 C460 1.457 . S
C453 N448 1.363 . S
C453 N450 1.377 . S
C453 C466 1.479 . S
C454 C451 1.480 . S
C454 C455 1.383 . S
C454 C459 1.385 . S
C455 H436 0.947 . S
C455 C454 1.383 . S
C455 C456 1.388 . S
C456 H437 0.946 1_554 S
C456 C455 1.388 . S
C456 C457 1.384 . S
C457 C456 1.384 . S
C457 C458 1.377 . S
C458 H438 0.953 . S
C458 C457 1.377 . S
C458 C459 1.369 . S
C459 H439 0.945 . S
C459 C454 1.385 . S
C459 C458 1.369 . S
C460 C452 1.457 . S
C460 C461 1.372 . S
C460 C465 1.364 . S
C461 H440 0.952 . S
C461 C460 1.372 . S
C461 C462 1.389 . S
C462 H441 0.949 . S
C462 C461 1.389 . S
C462 C463 1.387 . S
C463 C462 1.387 . S
C463 C464 1.372 . S
C464 H442 0.950 . S
C464 C463 1.372 . S
C464 C465 1.379 . S
C465 H443 0.948 . S
C465 C460 1.364 . S
C465 C464 1.379 . S
C466 C435 1.383 . S
C466 C453 1.479 . S
C466 C467 1.398 . S
C467 C432 1.382 . S
C467 H444 0.951 . S
C467 C466 1.398 . S
C468 C469 1.384 . S
C468 H481 0.947 . S
C468 C503 1.382 . S
C469 C468 1.384 . S
C469 C470 1.378 . S
C470 C469 1.378 . S
C470 C471 1.378 . S
C470 H482 0.952 1_554 S
C471 C470 1.378 . S
C471 H483 0.950 . S
C471 C502 1.383 . S
H472 C491 0.947 . S
H473 C492 0.946 1_556 S
H474 C494 0.953 . S
H475 C495 0.945 . S
H476 C497 0.952 . S
H477 C498 0.949 . S
H478 C500 0.950 . S
H479 C501 0.948 . S
H480 C503 0.951 . S
H481 C468 0.947 . S
H482 C470 0.952 1_556 S
H483 C471 0.950 . S
N484 C487 1.382 . S
N484 C489 1.363 . S
N485 C487 1.371 . S
N485 C488 1.372 . S
N486 C488 1.361 . S
N486 C489 1.377 . S
C487 N484 1.382 . S
C487 N485 1.371 . S
C487 C490 1.480 . S
C488 N485 1.372 . S
C488 N486 1.361 . S
C488 C496 1.457 . S
C489 N484 1.363 . S
C489 N486 1.377 . S
C489 C502 1.479 . S
C490 C487 1.480 . S
C490 C491 1.383 . S
C490 C495 1.385 . S
C491 H472 0.947 . S
C491 C490 1.383 . S
C491 C492 1.388 . S
C492 H473 0.946 1_554 S
C492 C491 1.388 . S
C492 C493 1.384 . S
C493 C492 1.384 . S
C493 C494 1.377 . S
C494 H474 0.953 . S
C494 C493 1.377 . S
C494 C495 1.369 . S
C495 H475 0.945 . S
C495 C490 1.385 . S
C495 C494 1.369 . S
C496 C488 1.457 . S
C496 C497 1.372 . S
C496 C501 1.364 . S
C497 H476 0.952 . S
C497 C496 1.372 . S
C497 C498 1.389 . S
C498 H477 0.949 . S
C498 C497 1.389 . S
C498 C499 1.387 . S
C499 C498 1.387 . S
C499 C500 1.372 . S
C500 H478 0.950 . S
C500 C499 1.372 . S
C500 C501 1.379 . S
C501 H479 0.948 . S
C501 C496 1.364 . S
C501 C500 1.379 . S
C502 C471 1.383 . S
C502 C489 1.479 . S
C502 C503 1.398 . S
C503 C468 1.382 . S
C503 H480 0.951 . S
C503 C502 1.398 . S
C504 C505 1.384 . S
C504 H517 0.947 . S
C504 C539 1.382 . S
C505 C504 1.384 . S
C505 C506 1.378 . S
C506 C505 1.378 . S
C506 C507 1.378 . S
C506 H518 0.952 1_554 S
C507 C506 1.378 . S
C507 H519 0.950 . S
C507 C538 1.383 . S
H508 C527 0.947 . S
H509 C528 0.946 . S
H510 C530 0.953 . S
H511 C531 0.945 . S
H512 C533 0.952 . S
H513 C534 0.949 . S
H514 C536 0.950 . S
H515 C537 0.948 . S
H516 C539 0.951 . S
H517 C504 0.947 . S
H518 C506 0.952 1_556 S
H519 C507 0.950 . S
N520 C523 1.382 . S
N520 C525 1.363 . S
N521 C523 1.371 . S
N521 C524 1.372 . S
N522 C524 1.361 . S
N522 C525 1.377 . S
C523 N520 1.382 . S
C523 N521 1.371 . S
C523 C526 1.480 . S
C524 N521 1.372 . S
C524 N522 1.361 . S
C524 C532 1.457 . S
C525 N520 1.363 . S
C525 N522 1.377 . S
C525 C538 1.479 . S
C526 C523 1.480 . S
C526 C527 1.383 . S
C526 C531 1.385 . S
C527 H508 0.947 . S
C527 C526 1.383 . S
C527 C528 1.388 . S
C528 H509 0.946 . S
C528 C527 1.388 . S
C528 C529 1.384 . S
C529 C528 1.384 . S
C529 C530 1.377 . S
C530 H510 0.953 . S
C530 C529 1.377 . S
C530 C531 1.369 . S
C531 H511 0.945 . S
C531 C526 1.385 . S
C531 C530 1.369 . S
C532 C524 1.457 . S
C532 C533 1.372 . S
C532 C537 1.364 . S
C533 H512 0.952 . S
C533 C532 1.372 . S
C533 C534 1.389 . S
C534 H513 0.949 . S
C534 C533 1.389 . S
C534 C535 1.387 . S
C535 C534 1.387 . S
C535 C536 1.372 . S
C536 H514 0.950 . S
C536 C535 1.372 . S
C536 C537 1.379 . S
C537 H515 0.948 . S
C537 C532 1.364 . S
C537 C536 1.379 . S
C538 C507 1.383 . S
C538 C525 1.479 . S
C538 C539 1.398 . S
C539 C504 1.382 . S
C539 H516 0.951 . S
C539 C538 1.398 . S
C540 C541 1.384 . S
C540 H553 0.947 . S
C540 C575 1.382 . S
C541 C540 1.384 . S
C541 C542 1.378 . S
C542 C541 1.378 . S
C542 C543 1.378 . S
C542 H554 0.952 . S
C543 C542 1.378 . S
C543 H555 0.950 . S
C543 C574 1.383 . S
H544 C563 0.947 . S
H545 C564 0.946 . S
H546 C566 0.953 . S
H547 C567 0.945 . S
H548 C569 0.952 . S
H549 C570 0.949 . S
H550 C572 0.950 . S
H551 C573 0.948 . S
H552 C575 0.951 . S
H553 C540 0.947 . S
H554 C542 0.952 . S
H555 C543 0.950 . S
N556 C559 1.382 . S
N556 C561 1.363 . S
N557 C559 1.371 . S
N557 C560 1.372 . S
N558 C560 1.361 . S
N558 C561 1.377 . S
C559 N556 1.382 . S
C559 N557 1.371 . S
C559 C562 1.480 . S
C560 N557 1.372 . S
C560 N558 1.361 . S
C560 C568 1.457 . S
C561 N556 1.363 . S
C561 N558 1.377 . S
C561 C574 1.479 . S
C562 C559 1.480 . S
C562 C563 1.383 . S
C562 C567 1.385 . S
C563 H544 0.947 . S
C563 C562 1.383 . S
C563 C564 1.388 . S
C564 H545 0.946 . S
C564 C563 1.388 . S
C564 C565 1.384 . S
C565 C564 1.384 . S
C565 C566 1.377 . S
C566 H546 0.953 . S
C566 C565 1.377 . S
C566 C567 1.369 . S
C567 H547 0.945 . S
C567 C562 1.385 . S
C567 C566 1.369 . S
C568 C560 1.457 . S
C568 C569 1.372 . S
C568 C573 1.364 . S
C569 H548 0.952 . S
C569 C568 1.372 . S
C569 C570 1.389 . S
C570 H549 0.949 . S
C570 C569 1.389 . S
C570 C571 1.387 . S
C571 C570 1.387 . S
C571 C572 1.372 . S
C572 H550 0.950 . S
C572 C571 1.372 . S
C572 C573 1.379 . S
C573 H551 0.948 . S
C573 C568 1.364 . S
C573 C572 1.379 . S
C574 C543 1.383 . S
C574 C561 1.479 . S
C574 C575 1.398 . S
C575 C540 1.382 . S
C575 H552 0.951 . S
C575 C574 1.398 . S
C576 C577 1.384 . S
C576 H589 0.947 . S
C576 C611 1.382 . S
C577 C576 1.384 . S
C577 C578 1.378 . S
C578 C577 1.378 . S
C578 C579 1.378 . S
C578 H590 0.952 . S
C579 C578 1.378 . S
C579 H591 0.950 . S
C579 C610 1.383 . S
H580 C599 0.947 . S
H581 C600 0.946 . S
H582 C602 0.953 . S
H583 C603 0.945 . S
H584 C605 0.952 . S
H585 C606 0.949 . S
H586 C608 0.950 . S
H587 C609 0.948 . S
H588 C611 0.951 . S
H589 C576 0.947 . S
H590 C578 0.952 . S
H591 C579 0.950 . S
N592 C595 1.382 . S
N592 C597 1.363 . S
N593 C595 1.371 . S
N593 C596 1.372 . S
N594 C596 1.361 . S
N594 C597 1.377 . S
C595 N592 1.382 . S
C595 N593 1.371 . S
C595 C598 1.480 . S
C596 N593 1.372 . S
C596 N594 1.361 . S
C596 C604 1.457 . S
C597 N592 1.363 . S
C597 N594 1.377 . S
C597 C610 1.479 . S
C598 C595 1.480 . S
C598 C599 1.383 . S
C598 C603 1.385 . S
C599 H580 0.947 . S
C599 C598 1.383 . S
C599 C600 1.388 . S
C600 H581 0.946 . S
C600 C599 1.388 . S
C600 C601 1.384 . S
C601 C600 1.384 . S
C601 C602 1.377 . S
C602 H582 0.953 . S
C602 C601 1.377 . S
C602 C603 1.369 . S
C603 H583 0.945 . S
C603 C598 1.385 . S
C603 C602 1.369 . S
C604 C596 1.457 . S
C604 C605 1.372 . S
C604 C609 1.364 . S
C605 H584 0.952 . S
C605 C604 1.372 . S
C605 C606 1.389 . S
C606 H585 0.949 . S
C606 C605 1.389 . S
C606 C607 1.387 . S
C607 C606 1.387 . S
C607 C608 1.372 . S
C608 H586 0.950 . S
C608 C607 1.372 . S
C608 C609 1.379 . S
C609 H587 0.948 . S
C609 C604 1.364 . S
C609 C608 1.379 . S
C610 C579 1.383 . S
C610 C597 1.479 . S
C610 C611 1.398 . S
C611 C576 1.382 . S
C611 H588 0.951 . S
C611 C610 1.398 . S
C612 C613 1.384 . S
C612 H625 0.947 . S
C612 C647 1.382 . S
C613 C612 1.384 . S
C613 C614 1.378 . S
C614 C613 1.378 . S
C614 C615 1.378 . S
C614 H626 0.952 . S
C615 C614 1.378 . S
C615 H627 0.950 . S
C615 C646 1.383 . S
H616 C635 0.947 . S
H617 C636 0.946 . S
H618 C638 0.953 . S
H619 C639 0.945 . S
H620 C641 0.952 . S
H621 C642 0.949 . S
H622 C644 0.950 . S
H623 C645 0.948 . S
H624 C647 0.951 . S
H625 C612 0.947 . S
H626 C614 0.952 . S
H627 C615 0.950 . S
N628 C631 1.382 . S
N628 C633 1.363 . S
N629 C631 1.371 . S
N629 C632 1.372 . S
N630 C632 1.361 . S
N630 C633 1.377 . S
C631 N628 1.382 . S
C631 N629 1.371 . S
C631 C634 1.480 . S
C632 N629 1.372 . S
C632 N630 1.361 . S
C632 C640 1.457 . S
C633 N628 1.363 . S
C633 N630 1.377 . S
C633 C646 1.479 . S
C634 C631 1.480 . S
C634 C635 1.383 . S
C634 C639 1.385 . S
C635 H616 0.947 . S
C635 C634 1.383 . S
C635 C636 1.388 . S
C636 H617 0.946 . S
C636 C635 1.388 . S
C636 C637 1.384 . S
C637 C636 1.384 . S
C637 C638 1.377 . S
C638 H618 0.953 . S
C638 C637 1.377 . S
C638 C639 1.369 . S
C639 H619 0.945 . S
C639 C634 1.385 . S
C639 C638 1.369 . S
C640 C632 1.457 . S
C640 C641 1.372 . S
C640 C645 1.364 . S
C641 H620 0.952 . S
C641 C640 1.372 . S
C641 C642 1.389 . S
C642 H621 0.949 . S
C642 C641 1.389 . S
C642 C643 1.387 . S
C643 C642 1.387 . S
C643 C644 1.372 . S
C644 H622 0.950 . S
C644 C643 1.372 . S
C644 C645 1.379 . S
C645 H623 0.948 . S
C645 C640 1.364 . S
C645 C644 1.379 . S
C646 C615 1.383 . S
C646 C633 1.479 . S
C646 C647 1.398 . S
C647 C612 1.382 . S
C647 H624 0.951 . S
C647 C646 1.398 . S
O648 Mg649 1.990 . S
O648 C662 1.249 1_565 S
Mg649 O648 1.990 . S
Mg649 O652 2.180 1_556 S
Mg649 O653 2.117 . S
Mg649 O667 2.030 1_565 S
O650 Mg651 2.072 1_556 S
O650 C662 1.262 . S
Mg651 O650 2.072 1_554 S
Mg651 O652 2.099 1_545 S
Mg651 O654 2.079 . S
Mg651 O655 2.072 1_545 S
Mg651 O657 2.099 . S
Mg651 O668 2.079 . S
O652 Mg649 2.180 1_554 S
O652 Mg651 2.099 1_565 S
O652 C663 1.279 . S
O653 Mg649 2.117 . S
O653 C663 1.252 1_556 S
O654 Mg651 2.079 . S
O654 C664 1.264 . S
O655 Mg651 2.072 1_565 S
O655 C665 1.260 . S
Mg656 O657 2.180 . S
Mg656 O658 2.035 . S
Mg656 O659 1.990 1_545 S
Mg656 O660 2.117 . S
O657 Mg651 2.099 . S
O657 Mg656 2.180 . S
O657 C666 1.289 . S
O658 Mg656 2.035 . S
O658 C664 1.244 . S
O659 Mg656 1.990 1_565 S
O659 C665 1.253 . S
O660 Mg656 2.117 . S
O660 C666 1.257 . S
C661 O667 1.248 . S
C661 O668 1.264 1_556 S
C662 O648 1.249 1_545 S
C662 O650 1.262 . S
C663 O652 1.279 . S
C663 O653 1.252 1_554 S
C664 O654 1.264 . S
C664 O658 1.244 . S
C665 O655 1.260 . S
C665 O659 1.253 . S
C666 O657 1.289 . S
C666 O660 1.257 . S
O667 Mg649 2.030 1_545 S
O667 C661 1.248 . S
O668 Mg651 2.079 . S
O668 C661 1.264 1_554 S
O669 Mg670 1.990 . S
O669 C683 1.253 . S
Mg670 O669 1.990 . S
Mg670 O673 2.180 1_556 S
Mg670 O674 2.117 . S
Mg670 O688 2.030 1_455 S
O671 Mg672 2.072 1_556 S
O671 C683 1.260 1_655 S
Mg672 O671 2.072 1_554 S
Mg672 O673 2.097 1_655 S
Mg672 O675 2.080 . S
Mg672 O676 2.051 1_655 S
Mg672 O678 2.101 . S
Mg672 O689 2.099 . S
O673 Mg670 2.180 1_554 S
O673 Mg672 2.097 1_455 S
O673 C684 1.283 . S
O674 Mg670 2.117 . S
O674 C684 1.226 1_556 S
O675 Mg672 2.080 . S
O675 C685 1.264 1_655 S
O676 Mg672 2.051 1_455 S
O676 C686 1.260 . S
Mg677 O678 2.180 . S
Mg677 O679 2.030 1_655 S
Mg677 O680 1.990 1_655 S
Mg677 O681 2.117 . S
O678 Mg672 2.101 . S
O678 Mg677 2.180 . S
O678 C687 1.280 1_554 S
O679 Mg677 2.030 1_455 S
O679 C685 1.248 . S
O680 Mg677 1.990 1_455 S
O680 C686 1.253 . S
O681 Mg677 2.117 . S
O681 C687 1.251 1_554 S
C682 O688 1.248 . S
C682 O689 1.264 1_556 S
C683 O669 1.253 . S
C683 O671 1.260 1_455 S
C684 O673 1.283 . S
C684 O674 1.226 1_554 S
C685 O675 1.264 1_455 S
C685 O679 1.248 . S
C686 O676 1.260 . S
C686 O680 1.253 . S
C687 O678 1.280 1_556 S
C687 O681 1.251 1_556 S
O688 Mg670 2.030 1_655 S
O688 C682 1.248 . S
O689 Mg672 2.099 . S
O689 C682 1.264 1_554 S
O690 Mg691 1.990 . S
O690 C704 1.253 . S
Mg691 O690 1.990 . S
Mg691 O694 2.180 . S
Mg691 O695 2.117 . S
Mg691 O709 2.030 . S
O692 Mg693 2.052 1_554 S
O692 C704 1.260 . S
Mg693 O692 2.052 1_556 S
Mg693 O694 2.097 1_556 S
Mg693 O696 2.099 . S
Mg693 O697 2.074 . S
Mg693 O699 2.102 . S
Mg693 O710 2.077 1_556 S
O694 Mg691 2.180 . S
O694 Mg693 2.097 1_554 S
O694 C705 1.279 . S
O695 Mg691 2.117 . S
O695 C705 1.250 . S
O696 Mg693 2.099 . S
O696 C706 1.264 . S
O697 Mg693 2.074 . S
O697 C707 1.260 . S
Mg698 O699 2.180 . S
Mg698 O700 2.030 . S
Mg698 O701 1.990 . S
Mg698 O702 2.138 . S
O699 Mg693 2.102 . S
O699 Mg698 2.180 . S
O699 C708 1.279 1_556 S
O700 Mg698 2.030 . S
O700 C706 1.248 . S
O701 Mg698 1.990 . S
O701 C707 1.253 . S
O702 Mg698 2.138 . S
O702 C708 1.242 1_556 S
C703 O709 1.248 . S
C703 O710 1.290 . S
C704 O690 1.253 . S
C704 O692 1.260 . S
C705 O694 1.279 . S
C705 O695 1.250 . S
C706 O696 1.264 . S
C706 O700 1.248 . S
C707 O697 1.260 . S
C707 O701 1.253 . S
C708 O699 1.279 1_554 S
C708 O702 1.242 1_554 S
O709 Mg691 2.030 . S
O709 C703 1.248 . S
O710 Mg693 2.077 1_554 S
O710 C703 1.290 . S
O711 Mg712 1.990 . S
O711 C725 1.253 . S
Mg712 O711 1.990 . S
Mg712 O715 2.180 . S
Mg712 O716 2.117 . S
Mg712 O730 2.030 . S
O713 Mg714 2.072 . S
O713 C725 1.260 . S
Mg714 O713 2.072 . S
Mg714 O715 2.099 . S
Mg714 O717 2.079 . S
Mg714 O718 2.072 . S
Mg714 O720 2.099 . S
Mg714 O731 2.079 . S
O715 Mg712 2.180 . S
O715 Mg714 2.099 . S
O715 C726 1.279 . S
O716 Mg712 2.117 . S
O716 C726 1.250 . S
O717 Mg714 2.079 . S
O717 C727 1.264 . S
O718 Mg714 2.072 . S
O718 C728 1.260 . S
Mg719 O720 2.180 . S
Mg719 O721 2.030 . S
Mg719 O722 1.990 . S
Mg719 O723 2.117 . S
O720 Mg714 2.099 . S
O720 Mg719 2.180 . S
O720 C729 1.279 . S
O721 Mg719 2.030 . S
O721 C727 1.248 . S
O722 Mg719 1.990 . S
O722 C728 1.253 . S
O723 Mg719 2.117 . S
O723 C729 1.250 . S
C724 O730 1.248 . S
C724 O731 1.264 . S
C725 O711 1.253 . S
C725 O713 1.260 . S
C726 O715 1.279 . S
C726 O716 1.250 . S
C727 O717 1.264 . S
C727 O721 1.248 . S
C728 O718 1.260 . S
C728 O722 1.253 . S
C729 O720 1.279 . S
C729 O723 1.250 . S
O730 Mg712 2.030 . S
O730 C724 1.248 . S
O731 Mg714 2.079 . S
O731 C724 1.264 . S
O732 Mg733 1.990 . S
O732 C746 1.253 . S
Mg733 O732 1.990 . S
Mg733 O736 2.180 . S
Mg733 O737 2.117 . S
Mg733 O751 2.030 . S
O734 Mg735 2.072 . S
O734 C746 1.260 . S
Mg735 O734 2.072 . S
Mg735 O736 2.099 . S
Mg735 O738 2.079 . S
Mg735 O739 2.072 . S
Mg735 O741 2.099 . S
Mg735 O752 2.079 . S
O736 Mg733 2.180 . S
O736 Mg735 2.099 . S
O736 C747 1.279 . S
O737 Mg733 2.117 . S
O737 C747 1.250 . S
O738 Mg735 2.079 . S
O738 C748 1.264 . S
O739 Mg735 2.072 . S
O739 C749 1.260 . S
Mg740 O741 2.180 . S
Mg740 O742 2.030 . S
Mg740 O743 1.990 . S
Mg740 O744 2.117 . S
O741 Mg735 2.099 . S
O741 Mg740 2.180 . S
O741 C750 1.279 . S
O742 Mg740 2.030 . S
O742 C748 1.248 . S
O743 Mg740 1.990 . S
O743 C749 1.253 . S
O744 Mg740 2.117 . S
O744 C750 1.250 . S
C745 O751 1.248 . S
C745 O752 1.264 . S
C746 O732 1.253 . S
C746 O734 1.260 . S
C747 O736 1.279 . S
C747 O737 1.250 . S
C748 O738 1.264 . S
C748 O742 1.248 . S
C749 O739 1.260 . S
C749 O743 1.253 . S
C750 O741 1.279 . S
C750 O744 1.250 . S
O751 Mg733 2.030 . S
O751 C745 1.248 . S
O752 Mg735 2.079 . S
O752 C745 1.264 . S
O753 Mg754 1.990 . S
O753 C767 1.253 . S
Mg754 O753 1.990 . S
Mg754 O757 2.180 . S
Mg754 O758 2.117 . S
Mg754 O772 2.030 . S
O755 Mg756 2.072 . S
O755 C767 1.260 . S
Mg756 O755 2.072 . S
Mg756 O757 2.099 . S
Mg756 O759 2.079 . S
Mg756 O760 2.072 . S
Mg756 O762 2.099 . S
Mg756 O773 2.079 . S
O757 Mg754 2.180 . S
O757 Mg756 2.099 . S
O757 C768 1.279 . S
O758 Mg754 2.117 . S
O758 C768 1.250 . S
O759 Mg756 2.079 . S
O759 C769 1.264 . S
O760 Mg756 2.072 . S
O760 C770 1.260 . S
Mg761 O762 2.180 . S
Mg761 O763 2.030 . S
Mg761 O764 1.990 . S
Mg761 O765 2.117 . S
O762 Mg756 2.099 . S
O762 Mg761 2.180 . S
O762 C771 1.279 . S
O763 Mg761 2.030 . S
O763 C769 1.248 . S
O764 Mg761 1.990 . S
O764 C770 1.253 . S
O765 Mg761 2.117 . S
O765 C771 1.250 . S
C766 O772 1.248 . S
C766 O773 1.264 . S
C767 O753 1.253 . S
C767 O755 1.260 . S
C768 O757 1.279 . S
C768 O758 1.250 . S
C769 O759 1.264 . S
C769 O763 1.248 . S
C770 O760 1.260 . S
C770 O764 1.253 . S
C771 O762 1.279 . S
C771 O765 1.250 . S
O772 Mg754 2.030 . S
O772 C766 1.248 . S
O773 Mg756 2.079 . S
O773 C766 1.264 . S
O774 Mg775 1.990 . S
O774 C788 1.253 . S
Mg775 O774 1.990 . S
Mg775 O778 2.180 . S
Mg775 O779 2.117 . S
Mg775 O793 2.030 . S
O776 Mg777 2.072 . S
O776 C788 1.260 . S
Mg777 O776 2.072 . S
Mg777 O778 2.099 . S
Mg777 O780 2.079 . S
Mg777 O781 2.072 . S
Mg777 O783 2.099 . S
Mg777 O794 2.079 . S
O778 Mg775 2.180 . S
O778 Mg777 2.099 . S
O778 C789 1.279 . S
O779 Mg775 2.117 . S
O779 C789 1.250 . S
O780 Mg777 2.079 . S
O780 C790 1.264 . S
O781 Mg777 2.072 . S
O781 C791 1.260 . S
Mg782 O783 2.180 . S
Mg782 O784 2.030 . S
Mg782 O785 1.990 . S
Mg782 O786 2.117 . S
O783 Mg777 2.099 . S
O783 Mg782 2.180 . S
O783 C792 1.279 . S
O784 Mg782 2.030 . S
O784 C790 1.248 . S
O785 Mg782 1.990 . S
O785 C791 1.253 . S
O786 Mg782 2.117 . S
O786 C792 1.250 . S
C787 O793 1.248 . S
C787 O794 1.264 . S
C788 O774 1.253 . S
C788 O776 1.260 . S
C789 O778 1.279 . S
C789 O779 1.250 . S
C790 O780 1.264 . S
C790 O784 1.248 . S
C791 O781 1.260 . S
C791 O785 1.253 . S
C792 O783 1.279 . S
C792 O786 1.250 . S
O793 Mg775 2.030 . S
O793 C787 1.248 . S
O794 Mg777 2.079 . S
O794 C787 1.264 . S
O795 Mg796 1.990 . S
O795 C809 1.253 . S
Mg796 O795 1.990 . S
Mg796 O799 2.180 . S
Mg796 O800 2.117 . S
Mg796 O814 2.030 . S
O797 Mg798 2.072 . S
O797 C809 1.260 . S
Mg798 O797 2.072 . S
Mg798 O799 2.099 . S
Mg798 O801 2.079 . S
Mg798 O802 2.072 . S
Mg798 O804 2.099 . S
Mg798 O815 2.079 . S
O799 Mg796 2.180 . S
O799 Mg798 2.099 . S
O799 C810 1.279 . S
O800 Mg796 2.117 . S
O800 C810 1.250 . S
O801 Mg798 2.079 . S
O801 C811 1.264 . S
O802 Mg798 2.072 . S
O802 C812 1.260 . S
Mg803 O804 2.180 . S
Mg803 O805 2.030 . S
Mg803 O806 1.990 . S
Mg803 O807 2.117 . S
O804 Mg798 2.099 . S
O804 Mg803 2.180 . S
O804 C813 1.279 . S
O805 Mg803 2.030 . S
O805 C811 1.248 . S
O806 Mg803 1.990 . S
O806 C812 1.253 . S
O807 Mg803 2.117 . S
O807 C813 1.250 . S
C808 O814 1.248 . S
C808 O815 1.264 . S
C809 O795 1.253 . S
C809 O797 1.260 . S
C810 O799 1.279 . S
C810 O800 1.250 . S
C811 O801 1.264 . S
C811 O805 1.248 . S
C812 O802 1.260 . S
C812 O806 1.253 . S
C813 O804 1.279 . S
C813 O807 1.250 . S
O814 Mg796 2.030 . S
O814 C808 1.248 . S
O815 Mg798 2.079 . S
O815 C808 1.264 . S
O816 Mg817 1.990 . S
O816 C830 1.253 . S
Mg817 O816 1.990 . S
Mg817 O820 2.180 . S
Mg817 O821 2.117 . S
Mg817 O835 2.030 . S
O818 Mg819 2.072 . S
O818 C830 1.260 . S
Mg819 O818 2.072 . S
Mg819 O820 2.099 . S
Mg819 O822 2.079 . S
Mg819 O823 2.072 . S
Mg819 O825 2.099 . S
Mg819 O836 2.079 . S
O820 Mg817 2.180 . S
O820 Mg819 2.099 . S
O820 C831 1.279 . S
O821 Mg817 2.117 . S
O821 C831 1.250 . S
O822 Mg819 2.079 . S
O822 C832 1.264 . S
O823 Mg819 2.072 . S
O823 C833 1.260 . S
Mg824 O825 2.180 . S
Mg824 O826 2.030 . S
Mg824 O827 1.990 . S
Mg824 O828 2.117 . S
O825 Mg819 2.099 . S
O825 Mg824 2.180 . S
O825 C834 1.279 . S
O826 Mg824 2.030 . S
O826 C832 1.248 . S
O827 Mg824 1.990 . S
O827 C833 1.253 . S
O828 Mg824 2.117 . S
O828 C834 1.250 . S
C829 O835 1.248 . S
C829 O836 1.264 . S
C830 O816 1.253 . S
C830 O818 1.260 . S
C831 O820 1.279 . S
C831 O821 1.250 . S
C832 O822 1.264 . S
C832 O826 1.248 . S
C833 O823 1.260 . S
C833 O827 1.253 . S
C834 O825 1.279 . S
C834 O828 1.250 . S
O835 Mg817 2.030 . S
O835 C829 1.248 . S
O836 Mg819 2.079 . S
O836 C829 1.264 . S
C837 C838 1.345 1_556 S
C837 C843 1.378 . S
C837 N845 1.370 . S
C838 C837 1.345 1_554 S
C838 C844 1.363 . S
C839 C840 1.363 . S
C839 C844 1.379 . S
C839 N846 1.356 . S
C840 C839 1.363 . S
C840 C843 1.338 1_554 S
N841 C843 1.377 . S
N841 H853 0.984 . S
N841 H854 0.985 . S
N842 C844 1.356 . S
N842 H847 0.984 . S
N842 H848 0.985 . S
C843 C837 1.378 . S
C843 C840 1.338 1_556 S
C843 N841 1.377 . S
C844 C838 1.363 . S
C844 C839 1.379 . S
C844 N842 1.356 . S
N845 C837 1.370 . S
N845 H851 0.984 . S
N845 H852 0.984 . S
N846 C839 1.356 . S
N846 H849 0.984 . S
N846 H850 0.985 . S
H847 N842 0.984 . S
H848 N842 0.985 . S
H849 N846 0.984 . S
H850 N846 0.985 . S
H851 N845 0.984 . S
H852 N845 0.984 . S
H853 N841 0.984 . S
H854 N841 0.985 . S
C855 C856 1.363 . S
C855 C861 1.379 . S
C855 N863 1.356 . S
C856 C855 1.363 . S
C856 C862 1.392 . S
C857 C858 1.359 1_556 S
C857 C862 1.378 1_556 S
C857 N864 1.360 . S
C858 C857 1.359 1_554 S
C858 C861 1.363 . S
N859 C861 1.356 . S
N859 H871 0.984 . S
N859 H872 0.985 . S
N860 C862 1.335 1_556 S
N860 H865 0.984 . S
N860 H866 0.985 . S
C861 C855 1.379 . S
C861 C858 1.363 . S
C861 N859 1.356 . S
C862 C856 1.392 . S
C862 C857 1.378 1_554 S
C862 N860 1.335 1_554 S
N863 C855 1.356 . S
N863 H869 0.984 . S
N863 H870 0.984 . S
N864 C857 1.360 . S
N864 H867 0.984 . S
N864 H868 0.985 . S
H865 N860 0.984 . S
H866 N860 0.985 . S
H867 N864 0.984 . S
H868 N864 0.985 . S
H869 N863 0.984 . S
H870 N863 0.984 . S
H871 N859 0.984 . S
H872 N859 0.985 . S
C873 C874 1.363 1_556 S
C873 C879 1.379 . S
C873 N881 1.356 . S
C874 C873 1.363 1_554 S
C874 C880 1.363 . S
C875 C876 1.363 . S
C875 C880 1.379 . S
C875 N882 1.356 . S
C876 C875 1.363 . S
C876 C879 1.363 1_554 S
N877 C879 1.356 . S
N877 H889 0.984 . S
N877 H890 0.985 . S
N878 C880 1.356 . S
N878 H883 0.984 . S
N878 H884 0.985 . S
C879 C873 1.379 . S
C879 C876 1.363 1_556 S
C879 N877 1.356 . S
C880 C874 1.363 . S
C880 C875 1.379 . S
C880 N878 1.356 . S
N881 C873 1.356 . S
N881 H887 0.984 . S
N881 H888 0.984 . S
N882 C875 1.356 . S
N882 H885 0.984 . S
N882 H886 0.985 . S
H883 N878 0.984 . S
H884 N878 0.985 . S
H885 N882 0.984 . S
H886 N882 0.985 . S
H887 N881 0.984 . S
H888 N881 0.984 . S
H889 N877 0.984 . S
H890 N877 0.985 . S
C891 C892 1.363 . S
C891 C897 1.379 . S
C891 N899 1.356 . S
C892 C891 1.363 . S
C892 C898 1.363 1_556 S
C893 C894 1.363 1_554 S
C893 C898 1.379 . S
C893 N900 1.356 . S
C894 C893 1.363 1_556 S
C894 C897 1.363 . S
N895 C897 1.356 . S
N895 H907 0.984 . S
N895 H908 0.985 . S
N896 C898 1.356 . S
N896 H901 0.984 . S
N896 H902 0.985 . S
C897 C891 1.379 . S
C897 C894 1.363 . S
C897 N895 1.356 . S
C898 C892 1.363 1_554 S
C898 C893 1.379 . S
C898 N896 1.356 . S
N899 C891 1.356 . S
N899 H905 0.984 . S
N899 H906 0.984 . S
N900 C893 1.356 . S
N900 H903 0.984 . S
N900 H904 0.985 . S
H901 N896 0.984 . S
H902 N896 0.985 . S
H903 N900 0.984 . S
H904 N900 0.985 . S
H905 N899 0.984 . S
H906 N899 0.984 . S
H907 N895 0.984 . S
H908 N895 0.985 . S
C909 C910 1.363 . S
C909 C915 1.379 . S
C909 N917 1.356 . S
C910 C909 1.363 . S
C910 C916 1.363 1_556 S
C911 C912 1.363 1_554 S
C911 C916 1.379 . S
C911 N918 1.356 . S
C912 C911 1.363 1_556 S
C912 C915 1.363 . S
N913 C915 1.356 . S
N913 H925 0.984 . S
N913 H926 0.985 . S
N914 C916 1.356 . S
N914 H919 0.984 . S
N914 H920 0.985 . S
C915 C909 1.379 . S
C915 C912 1.363 . S
C915 N913 1.356 . S
C916 C910 1.363 1_554 S
C916 C911 1.379 . S
C916 N914 1.356 . S
N917 C909 1.356 . S
N917 H923 0.984 . S
N917 H924 0.984 . S
N918 C911 1.356 . S
N918 H921 0.984 . S
N918 H922 0.985 . S
H919 N914 0.984 . S
H920 N914 0.985 . S
H921 N918 0.984 . S
H922 N918 0.985 . S
H923 N917 0.984 . S
H924 N917 0.984 . S
H925 N913 0.984 . S
H926 N913 0.985 . S
C927 C928 1.363 . S
C927 C933 1.379 . S
C927 N935 1.356 . S
C928 C927 1.363 . S
C928 C934 1.363 1_556 S
C929 C930 1.363 1_554 S
C929 C934 1.379 . S
C929 N936 1.356 . S
C930 C929 1.363 1_556 S
C930 C933 1.363 . S
N931 C933 1.356 . S
N931 H943 0.984 . S
N931 H944 0.985 . S
N932 C934 1.356 . S
N932 H937 0.984 . S
N932 H938 0.985 . S
C933 C927 1.379 . S
C933 C930 1.363 . S
C933 N931 1.356 . S
C934 C928 1.363 1_554 S
C934 C929 1.379 . S
C934 N932 1.356 . S
N935 C927 1.356 . S
N935 H941 0.984 . S
N935 H942 0.984 . S
N936 C929 1.356 . S
N936 H939 0.984 . S
N936 H940 0.985 . S
H937 N932 0.984 . S
H938 N932 0.985 . S
H939 N936 0.984 . S
H940 N936 0.985 . S
H941 N935 0.984 . S
H942 N935 0.984 . S
H943 N931 0.984 . S
H944 N931 0.985 . S
C945 C946 1.363 . S
C945 C951 1.379 . S
C945 N953 1.356 . S
C946 C945 1.363 . S
C946 C952 1.363 1_556 S
C947 C948 1.363 1_554 S
C947 C952 1.379 . S
C947 N954 1.356 . S
C948 C947 1.363 1_556 S
C948 C951 1.363 . S
N949 C951 1.356 . S
N949 H961 0.984 . S
N949 H962 0.985 . S
N950 C952 1.356 . S
N950 H955 0.984 . S
N950 H956 0.985 . S
C951 C945 1.379 . S
C951 C948 1.363 . S
C951 N949 1.356 . S
C952 C946 1.363 1_554 S
C952 C947 1.379 . S
C952 N950 1.356 . S
N953 C945 1.356 . S
N953 H959 0.984 . S
N953 H960 0.984 . S
N954 C947 1.356 . S
N954 H957 0.984 . S
N954 H958 0.985 . S
H955 N950 0.984 . S
H956 N950 0.985 . S
H957 N954 0.984 . S
H958 N954 0.985 . S
H959 N953 0.984 . S
H960 N953 0.984 . S
H961 N949 0.984 . S
H962 N949 0.985 . S
C963 C964 1.363 . S
C963 C969 1.379 . S
C963 N971 1.356 . S
C964 C963 1.363 . S
C964 C970 1.363 1_556 S
C965 C966 1.363 1_554 S
C965 C970 1.379 . S
C965 N972 1.356 . S
C966 C965 1.363 1_556 S
C966 C969 1.363 . S
N967 C969 1.356 . S
N967 H979 0.984 . S
N967 H980 0.985 . S
N968 C970 1.356 . S
N968 H973 0.984 . S
N968 H974 0.985 . S
C969 C963 1.379 . S
C969 C966 1.363 . S
C969 N967 1.356 . S
C970 C964 1.363 1_554 S
C970 C965 1.379 . S
C970 N968 1.356 . S
N971 C963 1.356 . S
N971 H977 0.984 . S
N971 H978 0.984 . S
N972 C965 1.356 . S
N972 H975 0.984 . S
N972 H976 0.985 . S
H973 N968 0.984 . S
H974 N968 0.985 . S
H975 N972 0.984 . S
H976 N972 0.985 . S
H977 N971 0.984 . S
H978 N971 0.984 . S
H979 N967 0.984 . S
H980 N967 0.985 . S
C981 C982 1.363 . S
C981 C987 1.379 . S
C981 N989 1.356 . S
C982 C981 1.363 . S
C982 C988 1.363 1_556 S
C983 C984 1.363 1_554 S
C983 C988 1.379 . S
C983 N990 1.356 . S
C984 C983 1.363 1_556 S
C984 C987 1.363 . S
N985 C987 1.356 . S
N985 H997 0.984 . S
N985 H998 0.985 . S
N986 C988 1.356 . S
N986 H991 0.984 . S
N986 H992 0.985 . S
C987 C981 1.379 . S
C987 C984 1.363 . S
C987 N985 1.356 . S
C988 C982 1.363 1_554 S
C988 C983 1.379 . S
C988 N986 1.356 . S
N989 C981 1.356 . S
N989 H995 0.984 . S
N989 H996 0.984 . S
N990 C983 1.356 . S
N990 H993 0.984 . S
N990 H994 0.985 . S
H991 N986 0.984 . S
H992 N986 0.985 . S
H993 N990 0.984 . S
H994 N990 0.985 . S
H995 N989 0.984 . S
H996 N989 0.984 . S
H997 N985 0.984 . S
H998 N985 0.985 . S
C999 C1000 1.363 . S
C999 C1005 1.379 . S
C999 N1007 1.356 . S
C1000 C999 1.363 . S
C1000 C1006 1.363 1_554 S
C1001 C1002 1.363 1_556 S
C1001 C1006 1.379 . S
C1001 N1008 1.356 . S
C1002 C1001 1.363 1_554 S
C1002 C1005 1.363 . S
N1003 C1005 1.356 . S
N1003 H1015 0.984 . S
N1003 H1016 0.985 . S
N1004 C1006 1.356 . S
N1004 H1009 0.984 . S
N1004 H1010 0.985 . S
C1005 C999 1.379 . S
C1005 C1002 1.363 . S
C1005 N1003 1.356 . S
C1006 C1000 1.363 1_556 S
C1006 C1001 1.379 . S
C1006 N1004 1.356 . S
N1007 C999 1.356 . S
N1007 H1013 0.984 . S
N1007 H1014 0.984 . S
N1008 C1001 1.356 . S
N1008 H1011 0.984 . S
N1008 H1012 0.985 . S
H1009 N1004 0.984 . S
H1010 N1004 0.985 . S
H1011 N1008 0.984 . S
H1012 N1008 0.985 . S
H1013 N1007 0.984 . S
H1014 N1007 0.984 . S
H1015 N1003 0.984 . S
H1016 N1003 0.985 . S
C1017 C1018 1.363 . S
C1017 C1023 1.379 . S
C1017 N1025 1.356 . S
C1018 C1017 1.363 . S
C1018 C1024 1.354 1_554 S
C1019 C1020 1.363 1_556 S
C1019 C1024 1.380 . S
C1019 N1026 1.356 . S
C1020 C1019 1.363 1_554 S
C1020 C1023 1.363 . S
N1021 C1023 1.356 . S
N1021 H1033 0.984 . S
N1021 H1034 0.985 . S
N1022 C1024 1.362 . S
N1022 H1027 0.984 . S
N1022 H1028 0.985 . S
C1023 C1017 1.379 . S
C1023 C1020 1.363 . S
C1023 N1021 1.356 . S
C1024 C1018 1.354 1_556 S
C1024 C1019 1.380 . S
C1024 N1022 1.362 . S
N1025 C1017 1.356 . S
N1025 H1031 0.984 . S
N1025 H1032 0.984 . S
N1026 C1019 1.356 . S
N1026 H1029 0.984 . S
N1026 H1030 0.985 . S
H1027 N1022 0.984 . S
H1028 N1022 0.985 . S
H1029 N1026 0.984 . S
H1030 N1026 0.985 . S
H1031 N1025 0.984 . S
H1032 N1025 0.984 . S
H1033 N1021 0.984 . S
H1034 N1021 0.985 . S
C1035 C1036 1.363 1_556 S
C1035 C1041 1.379 . S
C1035 N1043 1.356 . S
C1036 C1035 1.363 1_554 S
C1036 C1042 1.363 . S
C1037 C1038 1.363 . S
C1037 C1042 1.379 . S
C1037 N1044 1.356 . S
C1038 C1037 1.363 . S
C1038 C1041 1.363 1_554 S
N1039 C1041 1.356 . S
N1039 H1051 0.984 . S
N1039 H1052 0.985 . S
N1040 C1042 1.356 . S
N1040 H1045 0.984 . S
N1040 H1046 0.985 . S
C1041 C1035 1.379 . S
C1041 C1038 1.363 1_556 S
C1041 N1039 1.356 . S
C1042 C1036 1.363 . S
C1042 C1037 1.379 . S
C1042 N1040 1.356 . S
N1043 C1035 1.356 . S
N1043 H1049 0.984 . S
N1043 H1050 0.984 . S
N1044 C1037 1.356 . S
N1044 H1047 0.984 . S
N1044 H1048 0.985 . S
H1045 N1040 0.984 . S
H1046 N1040 0.985 . S
H1047 N1044 0.984 . S
H1048 N1044 0.985 . S
H1049 N1043 0.984 . S
H1050 N1043 0.984 . S
H1051 N1039 0.984 . S
H1052 N1039 0.985 . S
C1053 C1054 1.363 . S
C1053 C1059 1.379 . S
C1053 N1061 1.356 . S
C1054 C1053 1.363 . S
C1054 C1060 1.363 . S
C1055 C1056 1.363 . S
C1055 C1060 1.379 . S
C1055 N1062 1.356 . S
C1056 C1055 1.363 . S
C1056 C1059 1.363 . S
N1057 C1059 1.356 . S
N1057 H1069 0.984 . S
N1057 H1070 0.985 . S
N1058 C1060 1.356 . S
N1058 H1063 0.984 1_455 S
N1058 H1064 0.985 . S
C1059 C1053 1.379 . S
C1059 C1056 1.363 . S
C1059 N1057 1.356 . S
C1060 C1054 1.363 . S
C1060 C1055 1.379 . S
C1060 N1058 1.356 . S
N1061 C1053 1.356 . S
N1061 H1067 0.984 . S
N1061 H1068 0.984 1_455 S
N1062 C1055 1.356 . S
N1062 H1065 0.984 . S
N1062 H1066 0.985 . S
H1063 N1058 0.984 1_655 S
H1064 N1058 0.985 . S
H1065 N1062 0.984 . S
H1066 N1062 0.985 . S
H1067 N1061 0.984 . S
H1068 N1061 0.984 1_655 S
H1069 N1057 0.984 . S
H1070 N1057 0.985 . S
C1071 C1072 1.363 . S
C1071 C1077 1.379 . S
C1071 N1079 1.356 . S
C1072 C1071 1.363 . S
C1072 C1078 1.363 . S
C1073 C1074 1.363 . S
C1073 C1078 1.379 . S
C1073 N1080 1.356 . S
C1074 C1073 1.363 . S
C1074 C1077 1.363 . S
N1075 C1077 1.356 . S
N1075 H1087 0.984 . S
N1075 H1088 0.985 . S
N1076 C1078 1.356 . S
N1076 H1081 0.984 . S
N1076 H1082 0.985 . S
C1077 C1071 1.379 . S
C1077 C1074 1.363 . S
C1077 N1075 1.356 . S
C1078 C1072 1.363 . S
C1078 C1073 1.379 . S
C1078 N1076 1.356 . S
N1079 C1071 1.356 . S
N1079 H1085 0.984 . S
N1079 H1086 0.984 . S
N1080 C1073 1.356 . S
N1080 H1083 0.984 . S
N1080 H1084 0.985 . S
H1081 N1076 0.984 . S
H1082 N1076 0.985 . S
H1083 N1080 0.984 . S
H1084 N1080 0.985 . S
H1085 N1079 0.984 . S
H1086 N1079 0.984 . S
H1087 N1075 0.984 . S
H1088 N1075 0.985 . S
C1089 C1090 1.363 . S
C1089 C1095 1.379 . S
C1089 N1097 1.362 . S
C1090 C1089 1.363 . S
C1090 C1096 1.363 . S
C1091 C1092 1.363 . S
C1091 C1096 1.379 . S
C1091 N1098 1.356 . S
C1092 C1091 1.363 . S
C1092 C1095 1.363 . S
N1093 C1095 1.356 . S
N1093 H1105 0.984 . S
N1093 H1106 0.985 . S
N1094 C1096 1.356 . S
N1094 H1099 0.984 1_565 S
N1094 H1100 0.985 . S
C1095 C1089 1.379 . S
C1095 C1092 1.363 . S
C1095 N1093 1.356 . S
C1096 C1090 1.363 . S
C1096 C1091 1.379 . S
C1096 N1094 1.356 . S
N1097 C1089 1.362 . S
N1097 H1103 0.990 . S
N1097 H1104 0.973 1_565 S
N1098 C1091 1.356 . S
N1098 H1101 0.984 . S
N1098 H1102 0.985 . S
H1099 N1094 0.984 1_545 S
H1100 N1094 0.985 . S
H1101 N1098 0.984 . S
H1102 N1098 0.985 . S
H1103 N1097 0.990 . S
H1104 N1097 0.973 1_545 S
H1105 N1093 0.984 . S
H1106 N1093 0.985 . S
C1107 C1108 1.363 . S
C1107 C1113 1.379 . S
C1107 N1115 1.356 . S
C1108 C1107 1.363 . S
C1108 C1114 1.363 . S
C1109 C1110 1.363 . S
C1109 C1114 1.379 . S
C1109 N1116 1.356 . S
C1110 C1109 1.363 . S
C1110 C1113 1.363 . S
N1111 C1113 1.356 . S
N1111 H1123 0.984 . S
N1111 H1124 0.985 . S
N1112 C1114 1.356 . S
N1112 H1117 0.984 . S
N1112 H1118 0.985 . S
C1113 C1107 1.379 . S
C1113 C1110 1.363 . S
C1113 N1111 1.356 . S
C1114 C1108 1.363 . S
C1114 C1109 1.379 . S
C1114 N1112 1.356 . S
N1115 C1107 1.356 . S
N1115 H1121 0.984 . S
N1115 H1122 0.984 . S
N1116 C1109 1.356 . S
N1116 H1119 0.984 . S
N1116 H1120 0.985 . S
H1117 N1112 0.984 . S
H1118 N1112 0.985 . S
H1119 N1116 0.984 . S
H1120 N1116 0.985 . S
H1121 N1115 0.984 . S
H1122 N1115 0.984 . S
H1123 N1111 0.984 . S
H1124 N1111 0.985 . S
C1125 C1126 1.363 . S
C1125 C1131 1.379 . S
C1125 N1133 1.356 . S
C1126 C1125 1.363 . S
C1126 C1132 1.363 . S
C1127 C1128 1.363 . S
C1127 C1132 1.379 . S
C1127 N1134 1.356 . S
C1128 C1127 1.363 . S
C1128 C1131 1.363 . S
N1129 C1131 1.356 . S
N1129 H1141 0.984 . S
N1129 H1142 0.985 . S
N1130 C1132 1.356 . S
N1130 H1135 0.984 . S
N1130 H1136 0.985 . S
C1131 C1125 1.379 . S
C1131 C1128 1.363 . S
C1131 N1129 1.356 . S
C1132 C1126 1.363 . S
C1132 C1127 1.379 . S
C1132 N1130 1.356 . S
N1133 C1125 1.356 . S
N1133 H1139 0.984 . S
N1133 H1140 0.984 . S
N1134 C1127 1.356 . S
N1134 H1137 0.984 . S
N1134 H1138 0.985 . S
H1135 N1130 0.984 . S
H1136 N1130 0.985 . S
H1137 N1134 0.984 . S
H1138 N1134 0.985 . S
H1139 N1133 0.984 . S
H1140 N1133 0.984 . S
H1141 N1129 0.984 . S
H1142 N1129 0.985 . S
C1143 C1144 1.363 . S
C1143 C1149 1.379 . S
C1143 N1151 1.356 . S
C1144 C1143 1.363 . S
C1144 C1150 1.363 . S
C1145 C1146 1.363 . S
C1145 C1150 1.379 . S
C1145 N1152 1.356 . S
C1146 C1145 1.363 . S
C1146 C1149 1.363 . S
N1147 C1149 1.356 . S
N1147 H1159 0.984 . S
N1147 H1160 0.985 . S
N1148 C1150 1.356 . S
N1148 H1153 0.984 . S
N1148 H1154 0.985 . S
C1149 C1143 1.379 . S
C1149 C1146 1.363 . S
C1149 N1147 1.356 . S
C1150 C1144 1.363 . S
C1150 C1145 1.379 . S
C1150 N1148 1.356 . S
N1151 C1143 1.356 . S
N1151 H1157 0.984 . S
N1151 H1158 0.984 . S
N1152 C1145 1.356 . S
N1152 H1155 0.984 . S
N1152 H1156 0.985 . S
H1153 N1148 0.984 . S
H1154 N1148 0.985 . S
H1155 N1152 0.984 . S
H1156 N1152 0.985 . S
H1157 N1151 0.984 . S
H1158 N1151 0.984 . S
H1159 N1147 0.984 . S
H1160 N1147 0.985 . S
C1161 C1162 1.363 . S
C1161 C1167 1.379 . S
C1161 N1169 1.356 . S
C1162 C1161 1.363 . S
C1162 C1168 1.363 . S
C1163 C1164 1.363 . S
C1163 C1168 1.379 . S
C1163 N1170 1.356 . S
C1164 C1163 1.363 . S
C1164 C1167 1.363 . S
N1165 C1167 1.356 . S
N1165 H1177 0.984 . S
N1165 H1178 0.985 . S
N1166 C1168 1.356 . S
N1166 H1171 0.984 . S
N1166 H1172 0.985 . S
C1167 C1161 1.379 . S
C1167 C1164 1.363 . S
C1167 N1165 1.356 . S
C1168 C1162 1.363 . S
C1168 C1163 1.379 . S
C1168 N1166 1.356 . S
N1169 C1161 1.356 . S
N1169 H1175 0.984 . S
N1169 H1176 0.984 . S
N1170 C1163 1.356 . S
N1170 H1173 0.984 . S
N1170 H1174 0.985 . S
H1171 N1166 0.984 . S
H1172 N1166 0.985 . S
H1173 N1170 0.984 . S
H1174 N1170 0.985 . S
H1175 N1169 0.984 . S
H1176 N1169 0.984 . S
H1177 N1165 0.984 . S
H1178 N1165 0.985 . S
C1179 C1180 1.363 . S
C1179 C1185 1.379 . S
C1179 N1187 1.356 . S
C1180 C1179 1.363 . S
C1180 C1186 1.363 . S
C1181 C1182 1.363 . S
C1181 C1186 1.379 . S
C1181 N1188 1.356 . S
C1182 C1181 1.363 . S
C1182 C1185 1.363 . S
N1183 C1185 1.356 . S
N1183 H1195 0.984 . S
N1183 H1196 0.985 . S
N1184 C1186 1.356 . S
N1184 H1189 0.984 . S
N1184 H1190 0.985 . S
C1185 C1179 1.379 . S
C1185 C1182 1.363 . S
C1185 N1183 1.356 . S
C1186 C1180 1.363 . S
C1186 C1181 1.379 . S
C1186 N1184 1.356 . S
N1187 C1179 1.356 . S
N1187 H1193 0.984 . S
N1187 H1194 0.984 . S
N1188 C1181 1.356 . S
N1188 H1191 0.984 . S
N1188 H1192 0.985 . S
H1189 N1184 0.984 . S
H1190 N1184 0.985 . S
H1191 N1188 0.984 . S
H1192 N1188 0.985 . S
H1193 N1187 0.984 . S
H1194 N1187 0.984 . S
H1195 N1183 0.984 . S
H1196 N1183 0.985 . S
C1197 C1198 1.363 . S
C1197 C1203 1.379 . S
C1197 N1205 1.356 . S
C1198 C1197 1.363 . S
C1198 C1204 1.363 . S
C1199 C1200 1.363 . S
C1199 C1204 1.379 . S
C1199 N1206 1.356 . S
C1200 C1199 1.363 . S
C1200 C1203 1.363 . S
N1201 C1203 1.356 . S
N1201 H1213 0.984 . S
N1201 H1214 0.985 . S
N1202 C1204 1.356 . S
N1202 H1207 0.984 . S
N1202 H1208 0.985 . S
C1203 C1197 1.379 . S
C1203 C1200 1.363 . S
C1203 N1201 1.356 . S
C1204 C1198 1.363 . S
C1204 C1199 1.379 . S
C1204 N1202 1.356 . S
N1205 C1197 1.356 . S
N1205 H1211 0.984 . S
N1205 H1212 0.984 . S
N1206 C1199 1.356 . S
N1206 H1209 0.984 . S
N1206 H1210 0.985 . S
H1207 N1202 0.984 . S
H1208 N1202 0.985 . S
H1209 N1206 0.984 . S
H1210 N1206 0.985 . S
H1211 N1205 0.984 . S
H1212 N1205 0.984 . S
H1213 N1201 0.984 . S
H1214 N1201 0.985 . S
C1215 C1216 1.363 . S
C1215 C1221 1.379 . S
C1215 N1223 1.356 . S
C1216 C1215 1.363 . S
C1216 C1222 1.363 . S
C1217 C1218 1.363 . S
C1217 C1222 1.379 . S
C1217 N1224 1.356 . S
C1218 C1217 1.363 . S
C1218 C1221 1.363 . S
N1219 C1221 1.356 . S
N1219 H1231 0.984 . S
N1219 H1232 0.985 . S
N1220 C1222 1.356 . S
N1220 H1225 0.984 1_565 S
N1220 H1226 0.985 . S
C1221 C1215 1.379 . S
C1221 C1218 1.363 . S
C1221 N1219 1.356 . S
C1222 C1216 1.363 . S
C1222 C1217 1.379 . S
C1222 N1220 1.356 . S
N1223 C1215 1.356 . S
N1223 H1229 0.984 . S
N1223 H1230 0.984 1_565 S
N1224 C1217 1.356 . S
N1224 H1227 0.984 . S
N1224 H1228 0.985 . S
H1225 N1220 0.984 1_545 S
H1226 N1220 0.985 . S
H1227 N1224 0.984 . S
H1228 N1224 0.985 . S
H1229 N1223 0.984 . S
H1230 N1223 0.984 1_545 S
H1231 N1219 0.984 . S
H1232 N1219 0.985 . S
C1233 C1234 1.363 . S
C1233 C1239 1.379 . S
C1233 N1241 1.356 1_455 S
C1234 C1233 1.363 . S
C1234 C1240 1.363 . S
C1235 C1236 1.363 . S
C1235 C1240 1.379 . S
C1235 N1242 1.356 . S
C1236 C1235 1.363 . S
C1236 C1239 1.363 . S
N1237 C1239 1.356 . S
N1237 H1249 0.984 . S
N1237 H1250 0.985 . S
N1238 C1240 1.356 . S
N1238 H1243 0.984 1_455 S
N1238 H1244 0.985 . S
C1239 C1233 1.379 . S
C1239 C1236 1.363 . S
C1239 N1237 1.356 . S
C1240 C1234 1.363 . S
C1240 C1235 1.379 . S
C1240 N1238 1.356 . S
N1241 C1233 1.356 1_655 S
N1241 H1247 0.984 . S
N1241 H1248 0.984 . S
N1242 C1235 1.356 . S
N1242 H1245 0.984 . S
N1242 H1246 0.985 . S
H1243 N1238 0.984 1_655 S
H1244 N1238 0.985 . S
H1245 N1242 0.984 . S
H1246 N1242 0.985 . S
H1247 N1241 0.984 . S
H1248 N1241 0.984 . S
H1249 N1237 0.984 . S
H1250 N1237 0.985 . S
C1251 C1252 1.363 . S
C1251 C1257 1.379 . S
C1251 N1259 1.356 . S
C1252 C1251 1.363 . S
C1252 C1258 1.363 . S
C1253 C1254 1.363 . S
C1253 C1258 1.379 . S
C1253 N1260 1.356 . S
C1254 C1253 1.363 . S
C1254 C1257 1.363 . S
N1255 C1257 1.356 . S
N1255 H1267 0.984 . S
N1255 H1268 0.985 . S
N1256 C1258 1.356 . S
N1256 H1261 0.984 . S
N1256 H1262 0.985 . S
C1257 C1251 1.379 . S
C1257 C1254 1.363 . S
C1257 N1255 1.356 . S
C1258 C1252 1.363 . S
C1258 C1253 1.379 . S
C1258 N1256 1.356 . S
N1259 C1251 1.356 . S
N1259 H1265 0.984 . S
N1259 H1266 0.984 . S
N1260 C1253 1.356 . S
N1260 H1263 0.984 . S
N1260 H1264 0.985 . S
H1261 N1256 0.984 . S
H1262 N1256 0.985 . S
H1263 N1260 0.984 . S
H1264 N1260 0.985 . S
H1265 N1259 0.984 . S
H1266 N1259 0.984 . S
H1267 N1255 0.984 . S
H1268 N1255 0.985 . S
C1269 C1270 1.363 . S
C1269 C1275 1.379 . S
C1269 N1277 1.356 . S
C1270 C1269 1.363 . S
C1270 C1276 1.363 . S
C1271 C1272 1.363 . S
C1271 C1276 1.379 . S
C1271 N1278 1.356 . S
C1272 C1271 1.363 . S
C1272 C1275 1.363 . S
N1273 C1275 1.356 . S
N1273 H1285 0.984 . S
N1273 H1286 0.985 . S
N1274 C1276 1.356 . S
N1274 H1279 0.984 . S
N1274 H1280 0.985 . S
C1275 C1269 1.379 . S
C1275 C1272 1.363 . S
C1275 N1273 1.356 . S
C1276 C1270 1.363 . S
C1276 C1271 1.379 . S
C1276 N1274 1.356 . S
N1277 C1269 1.356 . S
N1277 H1283 0.984 . S
N1277 H1284 0.984 . S
N1278 C1271 1.356 . S
N1278 H1281 0.984 . S
N1278 H1282 0.985 . S
H1279 N1274 0.984 . S
H1280 N1274 0.985 . S
H1281 N1278 0.984 . S
H1282 N1278 0.985 . S
H1283 N1277 0.984 . S
H1284 N1277 0.984 . S
H1285 N1273 0.984 . S
H1286 N1273 0.985 . S
C1287 C1288 1.363 . S
C1287 C1293 1.379 . S
C1287 N1295 1.356 . S
C1288 C1287 1.363 . S
C1288 C1294 1.363 . S
C1289 C1290 1.363 . S
C1289 C1294 1.379 . S
C1289 N1296 1.356 . S
C1290 C1289 1.363 . S
C1290 C1293 1.363 . S
N1291 C1293 1.356 . S
N1291 H1303 0.984 . S
N1291 H1304 0.985 . S
N1292 C1294 1.356 . S
N1292 H1297 0.984 . S
N1292 H1298 0.985 . S
C1293 C1287 1.379 . S
C1293 C1290 1.363 . S
C1293 N1291 1.356 . S
C1294 C1288 1.363 . S
C1294 C1289 1.379 . S
C1294 N1292 1.356 . S
N1295 C1287 1.356 . S
N1295 H1301 0.984 . S
N1295 H1302 0.984 . S
N1296 C1289 1.356 . S
N1296 H1299 0.984 . S
N1296 H1300 0.985 . S
H1297 N1292 0.984 . S
H1298 N1292 0.985 . S
H1299 N1296 0.984 . S
H1300 N1296 0.985 . S
H1301 N1295 0.984 . S
H1302 N1295 0.984 . S
H1303 N1291 0.984 . S
H1304 N1291 0.985 . S
C1305 C1306 1.363 . S
C1305 C1311 1.379 . S
C1305 N1313 1.356 . S
C1306 C1305 1.363 . S
C1306 C1312 1.363 . S
C1307 C1308 1.363 . S
C1307 C1312 1.379 . S
C1307 N1314 1.356 . S
C1308 C1307 1.363 . S
C1308 C1311 1.363 . S
N1309 C1311 1.356 . S
N1309 H1321 0.984 . S
N1309 H1322 0.985 . S
N1310 C1312 1.356 . S
N1310 H1315 0.984 . S
N1310 H1316 0.985 . S
C1311 C1305 1.379 . S
C1311 C1308 1.363 . S
C1311 N1309 1.356 . S
C1312 C1306 1.363 . S
C1312 C1307 1.379 . S
C1312 N1310 1.356 . S
N1313 C1305 1.356 . S
N1313 H1319 0.984 . S
N1313 H1320 0.984 . S
N1314 C1307 1.356 . S
N1314 H1317 0.984 . S
N1314 H1318 0.985 . S
H1315 N1310 0.984 . S
H1316 N1310 0.985 . S
H1317 N1314 0.984 . S
H1318 N1314 0.985 . S
H1319 N1313 0.984 . S
H1320 N1313 0.984 . S
H1321 N1309 0.984 . S
H1322 N1309 0.985 . S
C1323 C1324 1.363 . S
C1323 C1329 1.379 . S
C1323 N1331 1.356 . S
C1324 C1323 1.363 . S
C1324 C1330 1.363 . S
C1325 C1326 1.363 . S
C1325 C1330 1.379 . S
C1325 N1332 1.356 . S
C1326 C1325 1.363 . S
C1326 C1329 1.363 . S
N1327 C1329 1.356 . S
N1327 H1339 0.984 . S
N1327 H1340 0.985 . S
N1328 C1330 1.356 . S
N1328 H1333 0.984 1_545 S
N1328 H1334 0.985 . S
C1329 C1323 1.379 . S
C1329 C1326 1.363 . S
C1329 N1327 1.356 . S
C1330 C1324 1.363 . S
C1330 C1325 1.379 . S
C1330 N1328 1.356 . S
N1331 C1323 1.356 . S
N1331 H1337 0.984 . S
N1331 H1338 0.984 1_545 S
N1332 C1325 1.356 . S
N1332 H1335 0.984 . S
N1332 H1336 0.985 . S
H1333 N1328 0.984 1_565 S
H1334 N1328 0.985 . S
H1335 N1332 0.984 . S
H1336 N1332 0.985 . S
H1337 N1331 0.984 . S
H1338 N1331 0.984 1_565 S
H1339 N1327 0.984 . S
H1340 N1327 0.985 . S
C1341 C1342 1.363 . S
C1341 C1347 1.379 . S
C1341 N1349 1.356 . S
C1342 C1341 1.363 . S
C1342 C1348 1.363 . S
C1343 C1344 1.363 . S
C1343 C1348 1.379 . S
C1343 N1350 1.356 . S
C1344 C1343 1.363 . S
C1344 C1347 1.363 . S
N1345 C1347 1.356 . S
N1345 H1357 0.984 . S
N1345 H1358 0.985 . S
N1346 C1348 1.356 1_455 S
N1346 H1351 0.984 . S
N1346 H1352 0.985 1_455 S
C1347 C1341 1.379 . S
C1347 C1344 1.363 . S
C1347 N1345 1.356 . S
C1348 C1342 1.363 . S
C1348 C1343 1.379 . S
C1348 N1346 1.356 1_655 S
N1349 C1341 1.356 . S
N1349 H1355 0.984 . S
N1349 H1356 0.984 1_655 S
N1350 C1343 1.356 . S
N1350 H1353 0.984 . S
N1350 H1354 0.985 . S
H1351 N1346 0.984 . S
H1352 N1346 0.985 1_655 S
H1353 N1350 0.984 . S
H1354 N1350 0.985 . S
H1355 N1349 0.984 . S
H1356 N1349 0.984 1_455 S
H1357 N1345 0.984 . S
H1358 N1345 0.985 . S
C1359 C1360 1.363 . S
C1359 C1365 1.379 . S
C1359 N1367 1.356 . S
C1360 C1359 1.363 . S
C1360 C1366 1.363 . S
C1361 C1362 1.363 . S
C1361 C1366 1.379 . S
C1361 N1368 1.356 . S
C1362 C1361 1.363 . S
C1362 C1365 1.363 . S
N1363 C1365 1.356 . S
N1363 H1375 0.984 . S
N1363 H1376 0.985 . S
N1364 C1366 1.356 . S
N1364 H1369 0.984 . S
N1364 H1370 0.985 . S
C1365 C1359 1.379 . S
C1365 C1362 1.363 . S
C1365 N1363 1.356 . S
C1366 C1360 1.363 . S
C1366 C1361 1.379 . S
C1366 N1364 1.356 . S
N1367 C1359 1.356 . S
N1367 H1373 0.984 . S
N1367 H1374 0.984 . S
N1368 C1361 1.356 . S
N1368 H1371 0.984 . S
N1368 H1372 0.985 . S
H1369 N1364 0.984 . S
H1370 N1364 0.985 . S
H1371 N1368 0.984 . S
H1372 N1368 0.985 . S
H1373 N1367 0.984 . S
H1374 N1367 0.984 . S
H1375 N1363 0.984 . S
H1376 N1363 0.985 . S
C1377 C1378 1.366 . S
C1377 C1383 1.379 . S
C1377 N1385 1.356 1_655 S
C1378 C1377 1.366 . S
C1378 C1384 1.364 . S
C1379 C1380 1.363 . S
C1379 C1384 1.379 . S
C1379 N1386 1.356 . S
C1380 C1379 1.363 . S
C1380 C1383 1.363 . S
N1381 C1383 1.356 . S
N1381 H1393 0.984 . S
N1381 H1394 0.985 . S
N1382 C1384 1.356 1_455 S
N1382 H1387 0.984 . S
N1382 H1388 0.985 . S
C1383 C1377 1.379 . S
C1383 C1380 1.363 . S
C1383 N1381 1.356 . S
C1384 C1378 1.364 . S
C1384 C1379 1.379 . S
C1384 N1382 1.356 1_655 S
N1385 C1377 1.356 1_455 S
N1385 H1391 0.984 . S
N1385 H1392 0.984 . S
N1386 C1379 1.356 . S
N1386 H1389 0.984 . S
N1386 H1390 0.985 . S
H1387 N1382 0.984 . S
H1388 N1382 0.985 . S
H1389 N1386 0.984 . S
H1390 N1386 0.985 . S
H1391 N1385 0.984 . S
H1392 N1385 0.984 . S
H1393 N1381 0.984 . S
H1394 N1381 0.985 . S
C1395 C1396 1.363 . S
C1395 C1401 1.379 . S
C1395 N1403 1.356 . S
C1396 C1395 1.363 . S
C1396 C1402 1.363 . S
C1397 C1398 1.363 . S
C1397 C1402 1.379 . S
C1397 N1404 1.356 . S
C1398 C1397 1.363 . S
C1398 C1401 1.363 . S
N1399 C1401 1.356 . S
N1399 H1411 0.984 . S
N1399 H1412 0.985 . S
N1400 C1402 1.356 . S
N1400 H1405 0.984 . S
N1400 H1406 0.985 . S
C1401 C1395 1.379 . S
C1401 C1398 1.363 . S
C1401 N1399 1.356 . S
C1402 C1396 1.363 . S
C1402 C1397 1.379 . S
C1402 N1400 1.356 . S
N1403 C1395 1.356 . S
N1403 H1409 0.984 . S
N1403 H1410 0.984 . S
N1404 C1397 1.356 . S
N1404 H1407 0.984 . S
N1404 H1408 0.985 . S
H1405 N1400 0.984 . S
H1406 N1400 0.985 . S
H1407 N1404 0.984 . S
H1408 N1404 0.985 . S
H1409 N1403 0.984 . S
H1410 N1403 0.984 . S
H1411 N1399 0.984 . S
H1412 N1399 0.985 . S
C1413 C1414 1.363 . S
C1413 C1419 1.379 . S
C1413 N1421 1.356 . S
C1414 C1413 1.363 . S
C1414 C1420 1.363 . S
C1415 C1416 1.363 . S
C1415 C1420 1.379 . S
C1415 N1422 1.356 . S
C1416 C1415 1.363 . S
C1416 C1419 1.363 . S
N1417 C1419 1.356 . S
N1417 H1429 0.984 . S
N1417 H1430 0.985 . S
N1418 C1420 1.356 . S
N1418 H1423 0.984 1_545 S
N1418 H1424 0.985 . S
C1419 C1413 1.379 . S
C1419 C1416 1.363 . S
C1419 N1417 1.356 . S
C1420 C1414 1.363 . S
C1420 C1415 1.379 . S
C1420 N1418 1.356 . S
N1421 C1413 1.356 . S
N1421 H1427 0.984 . S
N1421 H1428 0.984 1_545 S
N1422 C1415 1.356 . S
N1422 H1425 0.984 . S
N1422 H1426 0.985 . S
H1423 N1418 0.984 1_565 S
H1424 N1418 0.985 . S
H1425 N1422 0.984 . S
H1426 N1422 0.985 . S
H1427 N1421 0.984 . S
H1428 N1421 0.984 1_565 S
H1429 N1417 0.984 . S
H1430 N1417 0.985 . S
C1431 C1432 1.363 . S
C1431 C1437 1.379 . S
C1431 N1439 1.356 . S
C1432 C1431 1.363 . S
C1432 C1438 1.363 . S
C1433 C1434 1.363 . S
C1433 C1438 1.379 . S
C1433 N1440 1.356 . S
C1434 C1433 1.363 . S
C1434 C1437 1.363 . S
N1435 C1437 1.356 . S
N1435 H1447 0.984 . S
N1435 H1448 0.985 . S
N1436 C1438 1.356 . S
N1436 H1441 0.984 . S
N1436 H1442 0.985 . S
C1437 C1431 1.379 . S
C1437 C1434 1.363 . S
C1437 N1435 1.356 . S
C1438 C1432 1.363 . S
C1438 C1433 1.379 . S
C1438 N1436 1.356 . S
N1439 C1431 1.356 . S
N1439 H1445 0.984 . S
N1439 H1446 0.984 . S
N1440 C1433 1.356 . S
N1440 H1443 0.984 . S
N1440 H1444 0.985 . S
H1441 N1436 0.984 . S
H1442 N1436 0.985 . S
H1443 N1440 0.984 . S
H1444 N1440 0.985 . S
H1445 N1439 0.984 . S
H1446 N1439 0.984 . S
H1447 N1435 0.984 . S
H1448 N1435 0.985 . S
C1449 C1450 1.363 . S
C1449 C1455 1.379 . S
C1449 N1457 1.356 . S
C1450 C1449 1.363 . S
C1450 C1456 1.363 . S
C1451 C1452 1.363 . S
C1451 C1456 1.379 . S
C1451 N1458 1.356 . S
C1452 C1451 1.363 . S
C1452 C1455 1.363 . S
N1453 C1455 1.356 . S
N1453 H1465 0.984 . S
N1453 H1466 0.985 . S
N1454 C1456 1.356 . S
N1454 H1459 0.984 . S
N1454 H1460 0.985 . S
C1455 C1449 1.379 . S
C1455 C1452 1.363 . S
C1455 N1453 1.356 . S
C1456 C1450 1.363 . S
C1456 C1451 1.379 . S
C1456 N1454 1.356 . S
N1457 C1449 1.356 . S
N1457 H1463 0.984 . S
N1457 H1464 0.984 . S
N1458 C1451 1.356 . S
N1458 H1461 0.984 . S
N1458 H1462 0.985 . S
H1459 N1454 0.984 . S
H1460 N1454 0.985 . S
H1461 N1458 0.984 . S
H1462 N1458 0.985 . S
H1463 N1457 0.984 . S
H1464 N1457 0.984 . S
H1465 N1453 0.984 . S
H1466 N1453 0.985 . S
C1467 C1468 1.363 . S
C1467 C1473 1.379 . S
C1467 N1475 1.356 . S
C1468 C1467 1.363 . S
C1468 C1474 1.363 . S
C1469 C1470 1.363 . S
C1469 C1474 1.379 . S
C1469 N1476 1.356 . S
C1470 C1469 1.363 . S
C1470 C1473 1.363 . S
N1471 C1473 1.356 . S
N1471 H1483 0.984 . S
N1471 H1484 0.985 . S
N1472 C1474 1.356 . S
N1472 H1477 0.984 . S
N1472 H1478 0.985 . S
C1473 C1467 1.379 . S
C1473 C1470 1.363 . S
C1473 N1471 1.356 . S
C1474 C1468 1.363 . S
C1474 C1469 1.379 . S
C1474 N1472 1.356 . S
N1475 C1467 1.356 . S
N1475 H1481 0.984 . S
N1475 H1482 0.984 . S
N1476 C1469 1.356 . S
N1476 H1479 0.984 . S
N1476 H1480 0.985 . S
H1477 N1472 0.984 . S
H1478 N1472 0.985 . S
H1479 N1476 0.984 . S
H1480 N1476 0.985 . S
H1481 N1475 0.984 . S
H1482 N1475 0.984 . S
H1483 N1471 0.984 . S
H1484 N1471 0.985 . S
C1485 C1486 1.363 1_545 S
C1485 C1491 1.379 . S
C1485 N1493 1.356 . S
C1486 C1485 1.363 1_565 S
C1486 C1492 1.363 . S
C1487 C1488 1.363 . S
C1487 C1492 1.379 . S
C1487 N1494 1.356 . S
C1488 C1487 1.363 . S
C1488 C1491 1.363 1_565 S
N1489 C1491 1.356 . S
N1489 H1501 0.984 . S
N1489 H1502 0.985 . S
N1490 C1492 1.356 . S
N1490 H1495 0.984 . S
N1490 H1496 0.985 . S
C1491 C1485 1.379 . S
C1491 C1488 1.363 1_545 S
C1491 N1489 1.356 . S
C1492 C1486 1.363 . S
C1492 C1487 1.379 . S
C1492 N1490 1.356 . S
N1493 C1485 1.356 . S
N1493 H1499 0.984 . S
N1493 H1500 0.984 . S
N1494 C1487 1.356 . S
N1494 H1497 0.984 . S
N1494 H1498 0.985 . S
H1495 N1490 0.984 . S
H1496 N1490 0.985 . S
H1497 N1494 0.984 . S
H1498 N1494 0.985 . S
H1499 N1493 0.984 . S
H1500 N1493 0.984 . S
H1501 N1489 0.984 . S
H1502 N1489 0.985 . S
C1503 C1504 1.363 . S
C1503 C1509 1.379 . S
C1503 N1511 1.356 . S
C1504 C1503 1.363 . S
C1504 C1510 1.363 . S
C1505 C1506 1.363 . S
C1505 C1510 1.379 . S
C1505 N1512 1.356 . S
C1506 C1505 1.363 . S
C1506 C1509 1.363 . S
N1507 C1509 1.356 . S
N1507 H1519 0.984 . S
N1507 H1520 0.985 . S
N1508 C1510 1.356 . S
N1508 H1513 0.984 . S
N1508 H1514 0.985 . S
C1509 C1503 1.379 . S
C1509 C1506 1.363 . S
C1509 N1507 1.356 . S
C1510 C1504 1.363 . S
C1510 C1505 1.379 . S
C1510 N1508 1.356 . S
N1511 C1503 1.356 . S
N1511 H1517 0.984 . S
N1511 H1518 0.984 . S
N1512 C1505 1.356 . S
N1512 H1515 0.983 . S
N1512 H1516 0.985 . S
H1513 N1508 0.984 . S
H1514 N1508 0.985 . S
H1515 N1512 0.983 . S
H1516 N1512 0.985 . S
H1517 N1511 0.984 . S
H1518 N1511 0.984 . S
H1519 N1507 0.984 . S
H1520 N1507 0.985 . S
C1521 C1522 1.363 . S
C1521 C1527 1.379 . S
C1521 N1529 1.356 . S
C1522 C1521 1.363 . S
C1522 C1528 1.363 . S
C1523 C1524 1.363 . S
C1523 C1528 1.379 . S
C1523 N1530 1.356 . S
C1524 C1523 1.363 . S
C1524 C1527 1.363 . S
N1525 C1527 1.356 . S
N1525 H1537 0.984 . S
N1525 H1538 0.985 . S
N1526 C1528 1.356 . S
N1526 H1531 0.984 . S
N1526 H1532 0.985 . S
C1527 C1521 1.379 . S
C1527 C1524 1.363 . S
C1527 N1525 1.356 . S
C1528 C1522 1.363 . S
C1528 C1523 1.379 . S
C1528 N1526 1.356 . S
N1529 C1521 1.356 . S
N1529 H1535 0.984 . S
N1529 H1536 0.984 . S
N1530 C1523 1.356 . S
N1530 H1533 0.984 . S
N1530 H1534 0.985 . S
H1531 N1526 0.984 . S
H1532 N1526 0.985 . S
H1533 N1530 0.984 . S
H1534 N1530 0.985 . S
H1535 N1529 0.984 . S
H1536 N1529 0.984 . S
H1537 N1525 0.984 . S
H1538 N1525 0.985 . S
C1539 C1540 1.363 1_455 S
C1539 C1545 1.379 . S
C1539 N1547 1.356 . S
C1540 C1539 1.363 1_655 S
C1540 C1546 1.363 . S
C1541 C1542 1.363 . S
C1541 C1546 1.379 . S
C1541 N1548 1.356 . S
C1542 C1541 1.363 . S
C1542 C1545 1.363 1_655 S
N1543 C1545 1.356 . S
N1543 H1555 0.984 . S
N1543 H1556 0.985 . S
N1544 C1546 1.356 . S
N1544 H1549 0.984 . S
N1544 H1550 0.985 . S
C1545 C1539 1.379 . S
C1545 C1542 1.363 1_455 S
C1545 N1543 1.356 . S
C1546 C1540 1.363 . S
C1546 C1541 1.379 . S
C1546 N1544 1.356 . S
N1547 C1539 1.356 . S
N1547 H1553 0.984 . S
N1547 H1554 0.984 . S
N1548 C1541 1.356 . S
N1548 H1551 0.984 . S
N1548 H1552 0.985 . S
H1549 N1544 0.984 . S
H1550 N1544 0.985 . S
H1551 N1548 0.984 . S
H1552 N1548 0.985 . S
H1553 N1547 0.984 . S
H1554 N1547 0.984 . S
H1555 N1543 0.984 . S
H1556 N1543 0.985 . S
C1557 C1558 1.363 . S
C1557 C1563 1.379 . S
C1557 N1565 1.356 . S
C1558 C1557 1.363 . S
C1558 C1564 1.363 . S
C1559 C1560 1.363 . S
C1559 C1564 1.379 . S
C1559 N1566 1.356 . S
C1560 C1559 1.363 . S
C1560 C1563 1.363 . S
N1561 C1563 1.356 . S
N1561 H1573 0.984 . S
N1561 H1574 0.985 . S
N1562 C1564 1.356 . S
N1562 H1567 0.984 . S
N1562 H1568 0.985 . S
C1563 C1557 1.379 . S
C1563 C1560 1.363 . S
C1563 N1561 1.356 . S
C1564 C1558 1.363 . S
C1564 C1559 1.379 . S
C1564 N1562 1.356 . S
N1565 C1557 1.356 . S
N1565 H1571 0.984 . S
N1565 H1572 0.984 . S
N1566 C1559 1.356 . S
N1566 H1569 0.984 . S
N1566 H1570 0.985 . S
H1567 N1562 0.984 . S
H1568 N1562 0.985 . S
H1569 N1566 0.984 . S
H1570 N1566 0.985 . S
H1571 N1565 0.984 . S
H1572 N1565 0.984 . S
H1573 N1561 0.984 . S
H1574 N1561 0.985 . S
C1575 C1576 1.363 1_565 S
C1575 C1581 1.379 . S
C1575 N1583 1.356 . S
C1576 C1575 1.363 1_545 S
C1576 C1582 1.363 . S
C1577 C1578 1.363 . S
C1577 C1582 1.379 . S
C1577 N1584 1.356 . S
C1578 C1577 1.363 . S
C1578 C1581 1.363 1_545 S
N1579 C1581 1.356 . S
N1579 H1591 0.984 . S
N1579 H1592 0.985 . S
N1580 C1582 1.356 . S
N1580 H1585 0.984 . S
N1580 H1586 0.985 . S
C1581 C1575 1.379 . S
C1581 C1578 1.363 1_565 S
C1581 N1579 1.356 . S
C1582 C1576 1.363 . S
C1582 C1577 1.379 . S
C1582 N1580 1.356 . S
N1583 C1575 1.356 . S
N1583 H1589 0.984 . S
N1583 H1590 0.984 . S
N1584 C1577 1.356 . S
N1584 H1587 0.984 . S
N1584 H1588 0.985 . S
H1585 N1580 0.984 . S
H1586 N1580 0.985 . S
H1587 N1584 0.984 . S
H1588 N1584 0.985 . S
H1589 N1583 0.984 . S
H1590 N1583 0.984 . S
H1591 N1579 0.984 . S
H1592 N1579 0.985 . S
C1593 C1594 1.363 . S
C1593 C1599 1.379 . S
C1593 N1601 1.356 . S
C1594 C1593 1.363 . S
C1594 C1600 1.363 . S
C1595 C1596 1.363 . S
C1595 C1600 1.379 . S
C1595 N1602 1.356 . S
C1596 C1595 1.363 . S
C1596 C1599 1.363 . S
N1597 C1599 1.356 . S
N1597 H1609 0.984 . S
N1597 H1610 0.985 . S
N1598 C1600 1.356 . S
N1598 H1603 0.984 . S
N1598 H1604 0.985 . S
C1599 C1593 1.379 . S
C1599 C1596 1.363 . S
C1599 N1597 1.356 . S
C1600 C1594 1.363 . S
C1600 C1595 1.379 . S
C1600 N1598 1.356 . S
N1601 C1593 1.356 . S
N1601 H1607 0.984 . S
N1601 H1608 0.984 . S
N1602 C1595 1.356 . S
N1602 H1605 0.984 . S
N1602 H1606 0.985 . S
H1603 N1598 0.984 . S
H1604 N1598 0.985 . S
H1605 N1602 0.984 . S
H1606 N1602 0.985 . S
H1607 N1601 0.984 . S
H1608 N1601 0.984 . S
H1609 N1597 0.984 . S
H1610 N1597 0.985 . S
C1611 C1612 1.363 . S
C1611 C1617 1.379 . S
C1611 N1619 1.356 . S
C1612 C1611 1.363 . S
C1612 C1618 1.363 . S
C1613 C1614 1.363 . S
C1613 C1618 1.379 . S
C1613 N1620 1.356 . S
C1614 C1613 1.363 . S
C1614 C1617 1.363 . S
N1615 C1617 1.356 . S
N1615 H1627 0.984 . S
N1615 H1628 0.985 . S
N1616 C1618 1.356 . S
N1616 H1621 0.984 . S
N1616 H1622 0.985 . S
C1617 C1611 1.379 . S
C1617 C1614 1.363 . S
C1617 N1615 1.356 . S
C1618 C1612 1.363 . S
C1618 C1613 1.379 . S
C1618 N1616 1.356 . S
N1619 C1611 1.356 . S
N1619 H1625 0.984 . S
N1619 H1626 0.984 . S
N1620 C1613 1.356 . S
N1620 H1623 0.984 . S
N1620 H1624 0.985 . S
H1621 N1616 0.984 . S
H1622 N1616 0.985 . S
H1623 N1620 0.984 . S
H1624 N1620 0.985 . S
H1625 N1619 0.984 . S
H1626 N1619 0.984 . S
H1627 N1615 0.984 . S
H1628 N1615 0.985 . S
C1629 C1630 1.363 . S
C1629 C1635 1.379 . S
C1629 N1637 1.356 . S
C1630 C1629 1.363 . S
C1630 C1636 1.363 . S
C1631 C1632 1.363 . S
C1631 C1636 1.379 . S
C1631 N1638 1.356 . S
C1632 C1631 1.363 . S
C1632 C1635 1.363 . S
N1633 C1635 1.356 . S
N1633 H1645 0.984 . S
N1633 H1646 0.985 . S
N1634 C1636 1.356 . S
N1634 H1639 0.984 . S
N1634 H1640 0.985 . S
C1635 C1629 1.379 . S
C1635 C1632 1.363 . S
C1635 N1633 1.356 . S
C1636 C1630 1.363 . S
C1636 C1631 1.379 . S
C1636 N1634 1.356 . S
N1637 C1629 1.356 . S
N1637 H1643 0.984 . S
N1637 H1644 0.984 . S
N1638 C1631 1.356 . S
N1638 H1641 0.984 . S
N1638 H1642 0.985 . S
H1639 N1634 0.984 . S
H1640 N1634 0.985 . S
H1641 N1638 0.984 . S
H1642 N1638 0.985 . S
H1643 N1637 0.984 . S
H1644 N1637 0.984 . S
H1645 N1633 0.984 . S
H1646 N1633 0.985 . S
C1647 C1648 1.363 . S
C1647 C1653 1.379 . S
C1647 N1655 1.356 . S
C1648 C1647 1.363 . S
C1648 C1654 1.363 . S
C1649 C1650 1.363 . S
C1649 C1654 1.379 . S
C1649 N1656 1.356 . S
C1650 C1649 1.363 . S
C1650 C1653 1.363 . S
N1651 C1653 1.356 . S
N1651 H1663 0.984 . S
N1651 H1664 0.985 . S
N1652 C1654 1.356 . S
N1652 H1657 0.984 . S
N1652 H1658 0.985 . S
C1653 C1647 1.379 . S
C1653 C1650 1.363 . S
C1653 N1651 1.356 . S
C1654 C1648 1.363 . S
C1654 C1649 1.379 . S
C1654 N1652 1.356 . S
N1655 C1647 1.356 . S
N1655 H1661 0.984 . S
N1655 H1662 0.984 . S
N1656 C1649 1.356 . S
N1656 H1659 0.984 . S
N1656 H1660 0.985 . S
H1657 N1652 0.984 . S
H1658 N1652 0.985 . S
H1659 N1656 0.984 . S
H1660 N1656 0.985 . S
H1661 N1655 0.984 . S
H1662 N1655 0.984 . S
H1663 N1651 0.984 . S
H1664 N1651 0.985 . S
C1665 C1666 1.363 . S
C1665 C1671 1.379 . S
C1665 N1673 1.356 . S
C1666 C1665 1.363 . S
C1666 C1672 1.363 . S
C1667 C1668 1.363 . S
C1667 C1672 1.379 . S
C1667 N1674 1.356 . S
C1668 C1667 1.363 . S
C1668 C1671 1.363 . S
N1669 C1671 1.356 . S
N1669 H1681 0.984 . S
N1669 H1682 0.985 . S
N1670 C1672 1.356 . S
N1670 H1675 0.984 . S
N1670 H1676 0.985 . S
C1671 C1665 1.379 . S
C1671 C1668 1.363 . S
C1671 N1669 1.356 . S
C1672 C1666 1.363 . S
C1672 C1667 1.379 . S
C1672 N1670 1.356 . S
N1673 C1665 1.356 . S
N1673 H1679 0.984 . S
N1673 H1680 0.984 . S
N1674 C1667 1.356 . S
N1674 H1677 0.984 . S
N1674 H1678 0.985 . S
H1675 N1670 0.984 . S
H1676 N1670 0.985 . S
H1677 N1674 0.984 . S
H1678 N1674 0.985 . S
H1679 N1673 0.984 . S
H1680 N1673 0.984 . S
H1681 N1669 0.984 . S
H1682 N1669 0.985 . S
C1683 C1684 1.363 . S
C1683 C1689 1.379 . S
C1683 N1691 1.356 . S
C1684 C1683 1.363 . S
C1684 C1690 1.363 . S
C1685 C1686 1.363 . S
C1685 C1690 1.379 . S
C1685 N1692 1.356 . S
C1686 C1685 1.363 . S
C1686 C1689 1.363 . S
N1687 C1689 1.356 . S
N1687 H1699 0.984 . S
N1687 H1700 0.985 . S
N1688 C1690 1.356 . S
N1688 H1693 0.984 . S
N1688 H1694 0.985 . S
C1689 C1683 1.379 . S
C1689 C1686 1.363 . S
C1689 N1687 1.356 . S
C1690 C1684 1.363 . S
C1690 C1685 1.379 . S
C1690 N1688 1.356 . S
N1691 C1683 1.356 . S
N1691 H1697 0.984 . S
N1691 H1698 0.984 . S
N1692 C1685 1.356 . S
N1692 H1695 0.984 . S
N1692 H1696 0.985 . S
H1693 N1688 0.984 . S
H1694 N1688 0.985 . S
H1695 N1692 0.984 . S
H1696 N1692 0.985 . S
H1697 N1691 0.984 . S
H1698 N1691 0.984 . S
H1699 N1687 0.984 . S
H1700 N1687 0.985 . S
C1701 C1702 1.363 . S
C1701 C1707 1.379 . S
C1701 N1709 1.356 . S
C1702 C1701 1.363 . S
C1702 C1708 1.363 . S
C1703 C1704 1.363 . S
C1703 C1708 1.379 . S
C1703 N1710 1.356 . S
C1704 C1703 1.363 . S
C1704 C1707 1.363 . S
N1705 C1707 1.356 . S
N1705 H1717 0.984 . S
N1705 H1718 0.985 . S
N1706 C1708 1.356 . S
N1706 H1711 0.984 . S
N1706 H1712 0.985 . S
C1707 C1701 1.379 . S
C1707 C1704 1.363 . S
C1707 N1705 1.356 . S
C1708 C1702 1.363 . S
C1708 C1703 1.379 . S
C1708 N1706 1.356 . S
N1709 C1701 1.356 . S
N1709 H1715 0.984 . S
N1709 H1716 0.984 . S
N1710 C1703 1.356 . S
N1710 H1713 0.984 . S
N1710 H1714 0.985 . S
H1711 N1706 0.984 . S
H1712 N1706 0.985 . S
H1713 N1710 0.984 . S
H1714 N1710 0.985 . S
H1715 N1709 0.984 . S
H1716 N1709 0.984 . S
H1717 N1705 0.984 . S
H1718 N1705 0.985 . S
C1719 C1720 1.363 . S
C1719 C1725 1.379 . S
C1719 N1727 1.356 . S
C1720 C1719 1.363 . S
C1720 C1726 1.363 . S
C1721 C1722 1.363 . S
C1721 C1726 1.379 . S
C1721 N1728 1.356 . S
C1722 C1721 1.363 . S
C1722 C1725 1.363 . S
N1723 C1725 1.356 . S
N1723 H1735 0.984 . S
N1723 H1736 0.985 . S
N1724 C1726 1.356 . S
N1724 H1729 0.984 . S
N1724 H1730 0.985 . S
C1725 C1719 1.379 . S
C1725 C1722 1.363 . S
C1725 N1723 1.356 . S
C1726 C1720 1.363 . S
C1726 C1721 1.379 . S
C1726 N1724 1.356 . S
N1727 C1719 1.356 . S
N1727 H1733 0.984 . S
N1727 H1734 0.984 . S
N1728 C1721 1.356 . S
N1728 H1731 0.984 . S
N1728 H1732 0.985 . S
H1729 N1724 0.984 . S
H1730 N1724 0.985 . S
H1731 N1728 0.984 . S
H1732 N1728 0.985 . S
H1733 N1727 0.984 . S
H1734 N1727 0.984 . S
H1735 N1723 0.984 . S
H1736 N1723 0.985 . S
C1737 C1738 1.363 . S
C1737 C1743 1.379 . S
C1737 N1745 1.356 . S
C1738 C1737 1.363 . S
C1738 C1744 1.363 . S
C1739 C1740 1.363 . S
C1739 C1744 1.379 . S
C1739 N1746 1.356 . S
C1740 C1739 1.363 . S
C1740 C1743 1.363 . S
N1741 C1743 1.356 . S
N1741 H1753 0.984 . S
N1741 H1754 0.985 . S
N1742 C1744 1.356 . S
N1742 H1747 0.984 . S
N1742 H1748 0.985 . S
C1743 C1737 1.379 . S
C1743 C1740 1.363 . S
C1743 N1741 1.356 . S
C1744 C1738 1.363 . S
C1744 C1739 1.379 . S
C1744 N1742 1.356 . S
N1745 C1737 1.356 . S
N1745 H1751 0.984 . S
N1745 H1752 0.984 . S
N1746 C1739 1.356 . S
N1746 H1749 0.984 . S
N1746 H1750 0.985 . S
H1747 N1742 0.984 . S
H1748 N1742 0.985 . S
H1749 N1746 0.984 . S
H1750 N1746 0.985 . S
H1751 N1745 0.984 . S
H1752 N1745 0.984 . S
H1753 N1741 0.984 . S
H1754 N1741 0.985 . S
C1755 C1756 1.363 . S
C1755 C1761 1.379 . S
C1755 N1763 1.356 . S
C1756 C1755 1.363 . S
C1756 C1762 1.363 . S
C1757 C1758 1.363 . S
C1757 C1762 1.379 . S
C1757 N1764 1.356 . S
C1758 C1757 1.363 . S
C1758 C1761 1.363 . S
N1759 C1761 1.356 . S
N1759 H1771 0.984 . S
N1759 H1772 0.985 . S
N1760 C1762 1.356 . S
N1760 H1765 0.984 . S
N1760 H1766 0.985 . S
C1761 C1755 1.379 . S
C1761 C1758 1.363 . S
C1761 N1759 1.356 . S
C1762 C1756 1.363 . S
C1762 C1757 1.379 . S
C1762 N1760 1.356 . S
N1763 C1755 1.356 . S
N1763 H1769 0.984 . S
N1763 H1770 0.984 . S
N1764 C1757 1.356 . S
N1764 H1767 0.984 . S
N1764 H1768 0.985 . S
H1765 N1760 0.984 . S
H1766 N1760 0.985 . S
H1767 N1764 0.984 . S
H1768 N1764 0.985 . S
H1769 N1763 0.984 . S
H1770 N1763 0.984 . S
H1771 N1759 0.984 . S
H1772 N1759 0.985 . S
C1773 C1774 1.363 . S
C1773 C1779 1.379 . S
C1773 N1781 1.356 . S
C1774 C1773 1.363 . S
C1774 C1780 1.363 . S
C1775 C1776 1.363 . S
C1775 C1780 1.379 . S
C1775 N1782 1.356 . S
C1776 C1775 1.363 . S
C1776 C1779 1.363 . S
N1777 C1779 1.356 . S
N1777 H1789 0.984 . S
N1777 H1790 0.985 . S
N1778 C1780 1.356 . S
N1778 H1783 0.984 . S
N1778 H1784 0.985 . S
C1779 C1773 1.379 . S
C1779 C1776 1.363 . S
C1779 N1777 1.356 . S
C1780 C1774 1.363 . S
C1780 C1775 1.379 . S
C1780 N1778 1.356 . S
N1781 C1773 1.356 . S
N1781 H1787 0.984 . S
N1781 H1788 0.984 . S
N1782 C1775 1.356 . S
N1782 H1785 0.984 . S
N1782 H1786 0.985 . S
H1783 N1778 0.984 . S
H1784 N1778 0.985 . S
H1785 N1782 0.984 . S
H1786 N1782 0.985 . S
H1787 N1781 0.984 . S
H1788 N1781 0.984 . S
H1789 N1777 0.984 . S
H1790 N1777 0.985 . S
C1791 C1792 1.363 . S
C1791 C1797 1.379 . S
C1791 N1799 1.356 . S
C1792 C1791 1.363 . S
C1792 C1798 1.363 . S
C1793 C1794 1.363 . S
C1793 C1798 1.379 . S
C1793 N1800 1.356 . S
C1794 C1793 1.363 . S
C1794 C1797 1.363 . S
N1795 C1797 1.356 . S
N1795 H1807 0.984 . S
N1795 H1808 0.985 . S
N1796 C1798 1.356 . S
N1796 H1801 0.984 . S
N1796 H1802 0.985 . S
C1797 C1791 1.379 . S
C1797 C1794 1.363 . S
C1797 N1795 1.356 . S
C1798 C1792 1.363 . S
C1798 C1793 1.379 . S
C1798 N1796 1.356 . S
N1799 C1791 1.356 . S
N1799 H1805 0.984 . S
N1799 H1806 0.984 . S
N1800 C1793 1.356 . S
N1800 H1803 0.984 . S
N1800 H1804 0.985 . S
H1801 N1796 0.984 . S
H1802 N1796 0.985 . S
H1803 N1800 0.984 . S
H1804 N1800 0.985 . S
H1805 N1799 0.984 . S
H1806 N1799 0.984 . S
H1807 N1795 0.984 . S
H1808 N1795 0.985 . S
C838 C469 1.535 . S
C840 C665 1.423 . S
C856 C505 1.539 . S
C858 C686 1.418 . S
C874 C433 1.483 . S
C876 C708 1.187 . S
C892 C397 1.502 . S
C894 C687 1.187 . S
C912 C707 1.429 . S
C910 C325 1.557 . S
C928 C361 1.501 . S
C930 C666 1.179 1_556 S
C948 C661 1.403 . S
C946 C421 1.508 . S
C966 C682 1.401 . S
C964 C349 1.482 . S
C982 C385 1.553 . S
C984 C705 1.227 1_556 S
C1000 C493 1.499 . S
C1002 C684 1.215 . S
C1018 C529 1.456 . S
C1020 C703 1.366 . S
C1038 C663 1.222 . S
C1036 C457 1.531 . S
C1056 C728 1.423 . S
C1054 C37 1.535 1_455 S
C1072 C73 1.539 . S
C1074 C749 1.418 . S
C1090 C1 1.483 1_565 S
C1092 C771 1.187 . S
C1108 C613 1.501 . S
C1110 C750 1.188 . S
C1126 C541 1.557 . S
C1128 C770 1.429 . S
C1144 C577 1.501 . S
C1146 C729 1.188 . S
C1162 C637 1.508 . S
C1164 C724 1.403 . S
C1180 C565 1.482 . S
C1182 C745 1.401 . S
C1200 C768 1.227 . S
C1198 C601 1.553 . S
C1216 C61 1.499 1_565 S
C1218 C747 1.201 . S
C1236 C766 1.366 . S
C1234 C97 1.456 1_455 S
C1252 C25 1.531 . S
C1254 C726 1.223 . S
C1272 C791 1.423 . S
C1270 C253 1.535 . S
C1288 C289 1.539 . S
C1290 C812 1.418 . S
C1308 C834 1.187 . S
C1306 C217 1.483 . S
C1326 C813 1.189 . S
C1324 C181 1.502 1_545 S
C1344 C833 1.429 . S
C1342 C109 1.557 1_655 S
C1360 C145 1.501 . S
C1362 C792 1.188 . S
C1378 C205 1.505 1_655 S
C1380 C787 1.403 . S
C1396 C133 1.482 . S
C1398 C808 1.401 . S
C1416 C831 1.227 . S
C1414 C169 1.553 1_545 S
C1432 C277 1.499 . S
C1434 C810 1.200 . S
C1450 C313 1.456 . S
C1452 C829 1.366 . S
C1468 C241 1.531 . S
C1470 C789 1.223 . S
C1486 C571 1.450 . S
C1488 C664 1.403 1_565 S
C1506 C685 1.444 . S
C1504 C607 1.488 . S
C1522 C643 1.536 . S
C1524 C704 1.493 . S
C1540 C247 1.575 . S
C1542 C683 1.531 1_655 S
C1558 C283 1.495 . S
C1560 C706 1.444 . S
C1578 C662 1.497 . S
C1576 C319 1.535 . S
C1594 C139 1.450 . S
C1596 C727 1.403 . S
C1612 C175 1.488 . S
C1614 C748 1.444 . S
C1630 C211 1.536 . S
C1632 C767 1.493 . S
C1648 C463 1.575 . S
C1650 C746 1.531 . S
C1668 C769 1.444 . S
C1666 C499 1.495 . S
C1684 C535 1.535 . S
C1686 C725 1.496 . S
C1702 C355 1.450 . S
C1704 C790 1.403 . S
C1720 C391 1.488 . S
C1722 C811 1.444 . S
C1740 C830 1.493 . S
C1738 C427 1.536 . S
C1756 C31 1.575 . S
C1758 C809 1.531 . S
C1774 C67 1.495 . S
C1776 C832 1.444 . S
C1792 C103 1.535 . S
C1794 C788 1.496 . S
