# Generated by pormake.
# Topology ctn, (3,4)-cn, num edge types: 1
# Building blocks:
#     Node 0, Type 0, BuildingBlock: ESEHIV_clean_linker_0, # of connection points: 3
#     Node 1, Type 0, BuildingBlock: ESEHIV_clean_linker_0, # of connection points: 3
#     Node 2, Type 0, BuildingBlock: ESEHIV_clean_linker_0, # of connection points: 3
#     Node 3, Type 0, BuildingBlock: ESEHIV_clean_linker_0, # of connection points: 3
#     Node 4, Type 0, BuildingBlock: ESEHIV_clean_linker_0, # of connection points: 3
#     Node 5, Type 0, BuildingBlock: ESEHIV_clean_linker_0, # of connection points: 3
#     Node 6, Type 0, BuildingBlock: ESEHIV_clean_linker_0, # of connection points: 3
#     Node 7, Type 0, BuildingBlock: ESEHIV_clean_linker_0, # of connection points: 3
#     Node 8, Type 0, BuildingBlock: ESEHIV_clean_linker_0, # of connection points: 3
#     Node 9, Type 0, BuildingBlock: ESEHIV_clean_linker_0, # of connection points: 3
#     Node 10, Type 0, BuildingBlock: ESEHIV_clean_linker_0, # of connection points: 3
#     Node 11, Type 0, BuildingBlock: ESEHIV_clean_linker_0, # of connection points: 3
#     Node 12, Type 0, BuildingBlock: ESEHIV_clean_linker_0, # of connection points: 3
#     Node 13, Type 0, BuildingBlock: ESEHIV_clean_linker_0, # of connection points: 3
#     Node 14, Type 0, BuildingBlock: ESEHIV_clean_linker_0, # of connection points: 3
#     Node 15, Type 0, BuildingBlock: ESEHIV_clean_linker_0, # of connection points: 3
#     Node 16, Type 1, BuildingBlock: KUFVIS_clean_sbu_0, # of connection points: 4
#     Node 17, Type 1, BuildingBlock: KUFVIS_clean_sbu_0, # of connection points: 4
#     Node 18, Type 1, BuildingBlock: KUFVIS_clean_sbu_0, # of connection points: 4
#     Node 19, Type 1, BuildingBlock: KUFVIS_clean_sbu_0, # of connection points: 4
#     Node 20, Type 1, BuildingBlock: KUFVIS_clean_sbu_0, # of connection points: 4
#     Node 21, Type 1, BuildingBlock: KUFVIS_clean_sbu_0, # of connection points: 4
#     Node 22, Type 1, BuildingBlock: KUFVIS_clean_sbu_0, # of connection points: 4
#     Node 23, Type 1, BuildingBlock: KUFVIS_clean_sbu_0, # of connection points: 4
#     Node 24, Type 1, BuildingBlock: KUFVIS_clean_sbu_0, # of connection points: 4
#     Node 25, Type 1, BuildingBlock: KUFVIS_clean_sbu_0, # of connection points: 4
#     Node 26, Type 1, BuildingBlock: KUFVIS_clean_sbu_0, # of connection points: 4
#     Node 27, Type 1, BuildingBlock: KUFVIS_clean_sbu_0, # of connection points: 4
#     Edge 28, Type (0, 1), BuildingBlock: TEMPAE_clean_linker_10, # of connection points: 2
#     Edge 29, Type (0, 1), BuildingBlock: TEMPAE_clean_linker_10, # of connection points: 2
#     Edge 30, Type (0, 1), BuildingBlock: TEMPAE_clean_linker_10, # of connection points: 2
#     Edge 31, Type (0, 1), BuildingBlock: TEMPAE_clean_linker_10, # of connection points: 2
#     Edge 32, Type (0, 1), BuildingBlock: TEMPAE_clean_linker_10, # of connection points: 2
#     Edge 33, Type (0, 1), BuildingBlock: TEMPAE_clean_linker_10, # of connection points: 2
#     Edge 34, Type (0, 1), BuildingBlock: TEMPAE_clean_linker_10, # of connection points: 2
#     Edge 35, Type (0, 1), BuildingBlock: TEMPAE_clean_linker_10, # of connection points: 2
#     Edge 36, Type (0, 1), BuildingBlock: TEMPAE_clean_linker_10, # of connection points: 2
#     Edge 37, Type (0, 1), BuildingBlock: TEMPAE_clean_linker_10, # of connection points: 2
#     Edge 38, Type (0, 1), BuildingBlock: TEMPAE_clean_linker_10, # of connection points: 2
#     Edge 39, Type (0, 1), BuildingBlock: TEMPAE_clean_linker_10, # of connection points: 2
#     Edge 40, Type (0, 1), BuildingBlock: TEMPAE_clean_linker_10, # of connection points: 2
#     Edge 41, Type (0, 1), BuildingBlock: TEMPAE_clean_linker_10, # of connection points: 2
#     Edge 42, Type (0, 1), BuildingBlock: TEMPAE_clean_linker_10, # of connection points: 2
#     Edge 43, Type (0, 1), BuildingBlock: TEMPAE_clean_linker_10, # of connection points: 2
#     Edge 44, Type (0, 1), BuildingBlock: TEMPAE_clean_linker_10, # of connection points: 2
#     Edge 45, Type (0, 1), BuildingBlock: TEMPAE_clean_linker_10, # of connection points: 2
#     Edge 46, Type (0, 1), BuildingBlock: TEMPAE_clean_linker_10, # of connection points: 2
#     Edge 47, Type (0, 1), BuildingBlock: TEMPAE_clean_linker_10, # of connection points: 2
#     Edge 48, Type (0, 1), BuildingBlock: TEMPAE_clean_linker_10, # of connection points: 2
#     Edge 49, Type (0, 1), BuildingBlock: TEMPAE_clean_linker_10, # of connection points: 2
#     Edge 50, Type (0, 1), BuildingBlock: TEMPAE_clean_linker_10, # of connection points: 2
#     Edge 51, Type (0, 1), BuildingBlock: TEMPAE_clean_linker_10, # of connection points: 2
#     Edge 52, Type (0, 1), BuildingBlock: TEMPAE_clean_linker_10, # of connection points: 2
#     Edge 53, Type (0, 1), BuildingBlock: TEMPAE_clean_linker_10, # of connection points: 2
#     Edge 54, Type (0, 1), BuildingBlock: TEMPAE_clean_linker_10, # of connection points: 2
#     Edge 55, Type (0, 1), BuildingBlock: TEMPAE_clean_linker_10, # of connection points: 2
#     Edge 56, Type (0, 1), BuildingBlock: TEMPAE_clean_linker_10, # of connection points: 2
#     Edge 57, Type (0, 1), BuildingBlock: TEMPAE_clean_linker_10, # of connection points: 2
#     Edge 58, Type (0, 1), BuildingBlock: TEMPAE_clean_linker_10, # of connection points: 2
#     Edge 59, Type (0, 1), BuildingBlock: TEMPAE_clean_linker_10, # of connection points: 2
#     Edge 60, Type (0, 1), BuildingBlock: TEMPAE_clean_linker_10, # of connection points: 2
#     Edge 61, Type (0, 1), BuildingBlock: TEMPAE_clean_linker_10, # of connection points: 2
#     Edge 62, Type (0, 1), BuildingBlock: TEMPAE_clean_linker_10, # of connection points: 2
#     Edge 63, Type (0, 1), BuildingBlock: TEMPAE_clean_linker_10, # of connection points: 2
#     Edge 64, Type (0, 1), BuildingBlock: TEMPAE_clean_linker_10, # of connection points: 2
#     Edge 65, Type (0, 1), BuildingBlock: TEMPAE_clean_linker_10, # of connection points: 2
#     Edge 66, Type (0, 1), BuildingBlock: TEMPAE_clean_linker_10, # of connection points: 2
#     Edge 67, Type (0, 1), BuildingBlock: TEMPAE_clean_linker_10, # of connection points: 2
#     Edge 68, Type (0, 1), BuildingBlock: TEMPAE_clean_linker_10, # of connection points: 2
#     Edge 69, Type (0, 1), BuildingBlock: TEMPAE_clean_linker_10, # of connection points: 2
#     Edge 70, Type (0, 1), BuildingBlock: TEMPAE_clean_linker_10, # of connection points: 2
#     Edge 71, Type (0, 1), BuildingBlock: TEMPAE_clean_linker_10, # of connection points: 2
#     Edge 72, Type (0, 1), BuildingBlock: TEMPAE_clean_linker_10, # of connection points: 2
#     Edge 73, Type (0, 1), BuildingBlock: TEMPAE_clean_linker_10, # of connection points: 2
#     Edge 74, Type (0, 1), BuildingBlock: TEMPAE_clean_linker_10, # of connection points: 2
#     Edge 75, Type (0, 1), BuildingBlock: TEMPAE_clean_linker_10, # of connection points: 2
# Relax obj value: 0.012
# Max RMSD: 0.062
# Mean RMSD: 0.030
data_MOF--net-ctn--node1-KUFVIS_clean_sbu_0--node2-ESEHIV_clean_linker_0--edge1-TEMPAE_clean_linker_10
_symmetry_space_group_name_H-M    P1
_symmetry_Int_Tables_number       1
_symmetry_cell_setting            triclinic
loop_
_symmetry_equiv_pos_as_xyz
'x, y, z'
_cell_length_a     51.68752
_cell_length_b     51.559603
_cell_length_c     51.764396
_cell_angle_alpha  90.859192
_cell_angle_beta   90.323693
_cell_angle_gamma 91.68146
loop_
_atom_site_label
_atom_site_type_symbol
_atom_site_fract_x
_atom_site_fract_y
_atom_site_fract_z
_atom_type_partial_charge
H0 H 0.00625 0.0692 0.05658 0.0
H1 H 0.05794 0.00787 0.07493 0.0
H2 H 0.07333 0.05648 0.0097 0.0
C3 C 0.02338 0.05828 0.05242 0.0
C4 C 0.03906 0.06537 0.03141 0.0
C5 C 0.03024 0.03781 0.06856 0.0
C6 C 0.05271 0.02405 0.06301 0.0
C7 C 0.06809 0.03052 0.04167 0.0
C8 C 0.06137 0.05137 0.02611 0.0
H9 H 0.31916 0.65931 0.22019 0.0
H10 H 0.35126 0.72787 0.18473 0.0
H11 H 0.28106 0.69148 0.15484 0.0
C12 C 0.31853 0.67384 0.20533 0.0
C13 C 0.29794 0.67294 0.18751 0.0
C14 C 0.33769 0.69381 0.2049 0.0
C15 C 0.33663 0.71245 0.18529 0.0
C16 C 0.3164 0.71174 0.16685 0.0
C17 C 0.29713 0.69191 0.16834 0.0
H18 H 0.95382 0.51142 0.06851 0.0
H19 H 0.99996 0.4454 0.05265 0.0
H20 H 0.94094 0.46716 0.99831 0.0
C21 C 0.95865 0.49533 0.05586 0.0
C22 C 0.94456 0.49075 0.03288 0.0
C23 C 0.97887 0.47922 0.06271 0.0
C24 C 0.98484 0.45814 0.04663 0.0
C25 C 0.97155 0.45352 0.02307 0.0
C26 C 0.95147 0.47021 0.01629 0.0
H27 H 0.6559 0.78234 0.18975 0.0
H28 H 0.72611 0.82148 0.16639 0.0
H29 H 0.69017 0.84335 0.23771 0.0
C30 C 0.67114 0.79678 0.19353 0.0
C31 C 0.67022 0.81263 0.21595 0.0
C32 C 0.69143 0.79959 0.1757 0.0
C33 C 0.71051 0.81912 0.18009 0.0
C34 C 0.71013 0.83522 0.20222 0.0
C35 C 0.68995 0.83175 0.22009 0.0
H36 H 0.00691 0.93733 0.46884 0.0
H37 H 0.04969 0.00891 0.45582 0.0
H38 H 0.06801 0.96225 0.5211 0.0
C39 C 0.02182 0.95154 0.47448 0.0
C40 C 0.03653 0.9475 0.49696 0.0
C41 C 0.02632 0.97376 0.45938 0.0
C42 C 0.04605 0.99165 0.46707 0.0
C43 C 0.06141 0.98749 0.489 0.0
C44 C 0.05642 0.96545 0.50398 0.0
H45 H 0.175 0.72998 0.82093 0.0
H46 H 0.24527 0.69537 0.84555 0.0
H47 H 0.19785 0.6581 0.7862 0.0
C48 C 0.18843 0.71429 0.81957 0.0
C49 C 0.1839 0.69418 0.80137 0.0
C50 C 0.21025 0.71466 0.83584 0.0
C51 C 0.22792 0.69454 0.8337 0.0
C52 C 0.22391 0.67407 0.8156 0.0
C53 C 0.20163 0.67402 0.79971 0.0
H54 H 0.9577 0.54575 0.51545 0.0
H55 H 0.01483 0.56895 0.45966 0.0
H56 H 0.96566 0.50167 0.44522 0.0
C57 C 0.96689 0.54318 0.49689 0.0
C58 C 0.95881 0.52207 0.4811 0.0
C59 C 0.98626 0.56109 0.48896 0.0
C60 C 0.9995 0.55582 0.46584 0.0
C61 C 0.99296 0.53381 0.45037 0.0
C62 C 0.97211 0.51748 0.4579 0.0
H63 H 0.78077 0.82935 0.84543 0.0
H64 H 0.82264 0.85391 0.77784 0.0
H65 H 0.84815 0.78898 0.82119 0.0
C66 C 0.7965 0.82711 0.83191 0.0
C67 C 0.81393 0.80703 0.83564 0.0
C68 C 0.7993 0.8443 0.81112 0.0
C69 C 0.82037 0.84131 0.79426 0.0
C70 C 0.83843 0.82183 0.79807 0.0
C71 C 0.83502 0.80479 0.81882 0.0
H72 H 0.28068 0.32302 0.34284 0.0
H73 H 0.32718 0.35417 0.28112 0.0
H74 H 0.35177 0.28729 0.32212 0.0
C75 C 0.2979 0.32271 0.33103 0.0
C76 C 0.31625 0.30358 0.33542 0.0
C77 C 0.30143 0.3411 0.31138 0.0
C78 C 0.3238 0.33994 0.29599 0.0
C79 C 0.34202 0.32057 0.29961 0.0
C80 C 0.33821 0.30271 0.3196 0.0
H81 H 0.45909 0.01466 0.56152 0.0
H82 H 0.50654 0.94966 0.54431 0.0
H83 H 0.43805 0.9626 0.49879 0.0
C84 C 0.46304 0.99766 0.54977 0.0
C85 C 0.44642 0.99068 0.5291 0.0
C86 C 0.48456 0.98273 0.55553 0.0
C87 C 0.4897 0.9609 0.54003 0.0
C88 C 0.47309 0.95327 0.51945 0.0
C89 C 0.45132 0.96829 0.51428 0.0
H90 H 0.16591 0.28152 0.69574 0.0
H91 H 0.22452 0.33 0.66108 0.0
H92 H 0.18982 0.35392 0.73232 0.0
C93 C 0.17734 0.29945 0.69563 0.0
C94 C 0.17429 0.31799 0.71565 0.0
C95 C 0.19571 0.30337 0.67603 0.0
C96 C 0.21119 0.32619 0.67672 0.0
C97 C 0.21023 0.34392 0.69755 0.0
C98 C 0.19118 0.34002 0.71657 0.0
H99 H 0.82081 0.17096 0.72854 0.0
H100 H 0.85417 0.23773 0.69096 0.0
H101 H 0.78494 0.1998 0.66035 0.0
C102 C 0.82069 0.18473 0.71293 0.0
C103 C 0.80087 0.18283 0.69433 0.0
C104 C 0.83977 0.20472 0.71221 0.0
C105 C 0.83946 0.22239 0.6917 0.0
C106 C 0.81984 0.22078 0.67261 0.0
C107 C 0.80059 0.20095 0.67434 0.0
H108 H 0.50874 0.57337 0.55803 0.0
H109 H 0.55927 0.51104 0.57582 0.0
H110 H 0.57065 0.55444 0.50635 0.0
C111 C 0.52513 0.56163 0.55316 0.0
C112 C 0.53894 0.56658 0.53031 0.0
C113 C 0.53218 0.54155 0.56969 0.0
C114 C 0.55371 0.52669 0.56337 0.0
C115 C 0.56745 0.53107 0.54043 0.0
C116 C 0.55983 0.55086 0.52388 0.0
H117 H 0.50855 0.43309 0.96857 0.0
H118 H 0.55193 0.50417 0.95507 0.0
H119 H 0.57039 0.45738 0.02027 0.0
C120 C 0.52372 0.44709 0.97404 0.0
C121 C 0.53863 0.44285 0.99634 0.0
C122 C 0.52828 0.46926 0.95893 0.0
C123 C 0.54827 0.48694 0.96637 0.0
C124 C 0.56374 0.48269 0.98822 0.0
C125 C 0.55873 0.46066 0.00321 0.0
H126 H 0.67066 0.22265 0.32534 0.0
H127 H 0.73857 0.1865 0.35399 0.0
H128 H 0.69873 0.15525 0.28639 0.0
C129 C 0.68455 0.20737 0.32398 0.0
C130 C 0.68194 0.1887 0.30409 0.0
C131 C 0.70516 0.20709 0.34174 0.0
C132 C 0.72293 0.18698 0.34004 0.0
C133 C 0.72096 0.16795 0.32014 0.0
C134 C 0.70039 0.16925 0.30214 0.0
H135 H 0.45373 0.0509 0.00629 0.0
H136 H 0.51953 0.06656 0.95862 0.0
H137 H 0.46611 0.00352 0.93862 0.0
C138 C 0.4652 0.0458 0.98961 0.0
C139 C 0.45736 0.02479 0.97353 0.0
C140 C 0.48751 0.06084 0.98426 0.0
C141 C 0.50197 0.05522 0.96217 0.0
C142 C 0.49438 0.03462 0.94529 0.0
C143 C 0.47208 0.01947 0.95131 0.0
Mn144 Mn 0.25618 0.87651 0.00705 0.0
Mn145 Mn 0.25684 0.90781 0.95017 0.0
C146 C 0.23848 0.85658 0.97024 0.0
C147 C 0.27412 0.84946 0.03782 0.0
C148 C 0.21988 0.92051 0.99347 0.0
O149 O 0.2844 0.90465 0.01283 0.0
O150 O 0.28375 0.92332 0.97361 0.0
C151 C 0.30838 0.89283 0.93133 0.0
N152 N 0.28229 0.89371 0.9278 0.0
C153 C 0.28536 0.87553 0.8849 0.0
C154 C 0.31228 0.87449 0.88802 0.0
C155 C 0.32381 0.88303 0.9114 0.0
C156 C 0.27096 0.8852 0.90554 0.0
H157 H 0.31735 0.89962 0.94917 0.0
C158 C 0.2928 0.92121 0.99652 0.0
O159 O 0.25688 0.86623 0.0439 0.0
O160 O 0.28164 0.84886 0.01392 0.0
N161 N 0.23201 0.89451 0.92549 0.0
C162 C 0.2057 0.89523 0.92627 0.0
C163 C 0.19112 0.88666 0.90466 0.0
C164 C 0.20375 0.87785 0.88237 0.0
C165 C 0.23085 0.87721 0.88208 0.0
C166 C 0.24433 0.88575 0.90426 0.0
H167 H 0.19594 0.9024 0.94321 0.0
O168 O 0.23101 0.84956 0.99307 0.0
O169 O 0.25584 0.87532 0.96961 0.0
O170 O 0.22762 0.90331 0.0089 0.0
O171 O 0.22968 0.92394 0.97118 0.0
C172 C 0.24503 0.86847 0.86065 0.0
C173 C 0.27224 0.86732 0.86216 0.0
H174 H 0.32425 0.86706 0.87265 0.0
H175 H 0.34456 0.88224 0.91399 0.0
H176 H 0.1702 0.88709 0.90507 0.0
H177 H 0.19243 0.87148 0.86565 0.0
H178 H 0.23519 0.86245 0.84294 0.0
H179 H 0.28287 0.86006 0.84573 0.0
Mn180 Mn 0.14002 0.50452 0.25173 0.0
Mn181 Mn 0.11113 0.5625 0.25339 0.0
C182 C 0.15914 0.53996 0.23148 0.0
C183 C 0.16758 0.47388 0.26894 0.0
C184 C 0.09383 0.51861 0.2174 0.0
O185 O 0.11451 0.50031 0.28148 0.0
O186 O 0.09632 0.53951 0.28029 0.0
C187 C 0.13098 0.58063 0.30451 0.0
N188 N 0.12808 0.58444 0.27868 0.0
C189 C 0.14834 0.62695 0.28208 0.0
C190 C 0.15146 0.62355 0.30873 0.0
C191 C 0.14288 0.60022 0.31996 0.0
C192 C 0.13663 0.60663 0.26762 0.0
H193 H 0.12421 0.56282 0.31325 0.0
C194 C 0.0985 0.51687 0.28967 0.0
O195 O 0.14882 0.46717 0.25323 0.0
O196 O 0.16995 0.49831 0.27521 0.0
N197 N 0.12335 0.58714 0.22873 0.0
C198 C 0.12006 0.58677 0.2026 0.0
C199 C 0.12798 0.60851 0.18833 0.0
C200 C 0.13877 0.63052 0.20111 0.0
C201 C 0.14204 0.63042 0.22802 0.0
C202 C 0.13389 0.60816 0.24119 0.0
H203 H 0.11131 0.57007 0.19276 0.0
O204 O 0.16463 0.51646 0.22454 0.0
O205 O 0.14263 0.54212 0.25026 0.0
O206 O 0.11039 0.50246 0.22502 0.0
O207 O 0.09245 0.54163 0.2266 0.0
C208 C 0.15298 0.65152 0.24232 0.0
C209 C 0.1564 0.64968 0.26928 0.0
H210 H 0.1605 0.63868 0.32074 0.0
H211 H 0.14527 0.59742 0.34051 0.0
H212 H 0.12549 0.60842 0.16755 0.0
H213 H 0.14448 0.64739 0.19007 0.0
H214 H 0.15903 0.66921 0.23277 0.0
H215 H 0.16528 0.66586 0.27997 0.0
Mn216 Mn 0.7554 0.63158 0.00397 0.0
Mn217 Mn 0.70419 0.65727 0.97356 0.0
C218 C 0.71505 0.61019 0.00481 0.0
C219 C 0.79252 0.60642 0.00441 0.0
C220 C 0.72345 0.67622 0.02599 0.0
O221 O 0.77273 0.65823 0.98032 0.0
O222 O 0.73707 0.67351 0.96135 0.0
C223 C 0.71496 0.63646 0.9212 0.0
N224 N 0.69841 0.63956 0.9413 0.0
C225 C 0.66317 0.61941 0.91716 0.0
C226 C 0.67981 0.616 0.89614 0.0
C227 C 0.70587 0.6244 0.89825 0.0
C228 C 0.6735 0.631 0.9397 0.0
H229 H 0.73489 0.64324 0.92266 0.0
C230 C 0.76156 0.67318 0.96464 0.0
O231 O 0.78926 0.6251 0.02103 0.0
O232 O 0.77438 0.60253 0.9872 0.0
N233 N 0.67058 0.64426 0.98272 0.0
C234 C 0.65731 0.64851 0.00498 0.0
C235 C 0.63071 0.6424 0.00579 0.0
C236 C 0.61802 0.63223 0.98366 0.0
C237 C 0.63223 0.6272 0.96124 0.0
C238 C 0.6586 0.63404 0.96147 0.0
H239 H 0.66683 0.657 0.02181 0.0
O240 O 0.73264 0.60573 0.02204 0.0
O241 O 0.72166 0.62675 0.98705 0.0
O242 O 0.74235 0.6609 0.02754 0.0
O243 O 0.70807 0.67643 0.00663 0.0
C244 C 0.62119 0.61612 0.93853 0.0
C245 C 0.63673 0.61189 0.91662 0.0
H246 H 0.67278 0.60699 0.87831 0.0
H247 H 0.71883 0.62183 0.88212 0.0
H248 H 0.6199 0.64601 0.02326 0.0
H249 H 0.59734 0.62831 0.98415 0.0
H250 H 0.60082 0.61059 0.93776 0.0
H251 H 0.62812 0.60303 0.89939 0.0
Mn252 Mn 0.87823 1.00076 0.2607 0.0
Mn253 Mn 0.90301 0.94097 0.25582 0.0
C254 C 0.8547 0.96687 0.24047 0.0
C255 C 0.85391 0.03303 0.28037 0.0
C256 C 0.91978 0.98528 0.22148 0.0
O257 O 0.90646 1.00235 0.28878 0.0
O258 O 0.92114 0.96203 0.28298 0.0
C259 C 0.88745 0.92149 0.30718 0.0
N260 N 0.88768 0.91868 0.28097 0.0
C261 C 0.86764 0.8761 0.2832 0.0
C262 C 0.86722 0.87849 0.31022 0.0
C263 C 0.87699 0.90137 0.32224 0.0
C264 C 0.87784 0.89699 0.2692 0.0
H265 H 0.89529 0.93888 0.31652 0.0
C266 C 0.92151 0.98405 0.29474 0.0
O267 O 0.87193 0.03848 0.26384 0.0
O268 O 0.85082 0.00883 0.28665 0.0
N269 N 0.88718 0.91796 0.23071 0.0
C270 C 0.88765 0.91941 0.20446 0.0
C271 C 0.87826 0.89823 0.18946 0.0
C272 C 0.86896 0.87565 0.2016 0.0
C273 C 0.86844 0.87472 0.22865 0.0
C274 C 0.87782 0.8965 0.24257 0.0
H275 H 0.8954 0.93648 0.19507 0.0
O276 O 0.85052 0.99085 0.23491 0.0
O277 O 0.87281 0.96325 0.25746 0.0
O278 O 0.90551 1.00206 0.23208 0.0
O279 O 0.92013 0.96175 0.22867 0.0
C280 C 0.85916 0.85297 0.24238 0.0
C281 C 0.85841 0.8538 0.26962 0.0
H282 H 0.8594 0.8629 0.32191 0.0
H283 H 0.87671 0.90338 0.34308 0.0
H284 H 0.87857 0.89913 0.16859 0.0
H285 H 0.86216 0.85918 0.18994 0.0
H286 H 0.85229 0.83559 0.23219 0.0
H287 H 0.85071 0.83718 0.27992 0.0
Mn288 Mn 0.25625 0.13142 0.50652 0.0
Mn289 Mn 0.2067 0.15974 0.47576 0.0
C290 C 0.21544 0.11116 0.50576 0.0
C291 C 0.29272 0.10545 0.50702 0.0
C292 C 0.2259 0.17669 0.5289 0.0
O293 O 0.27471 0.15887 0.4844 0.0
O294 O 0.24017 0.17428 0.46344 0.0
C295 C 0.21603 0.1387 0.42322 0.0
N296 N 0.19984 0.14238 0.44352 0.0
C297 C 0.16368 0.12355 0.41977 0.0
C298 C 0.17993 0.11956 0.39855 0.0
C299 C 0.20626 0.12701 0.40036 0.0
C300 C 0.17464 0.13478 0.44219 0.0
H301 H 0.2362 0.14475 0.42447 0.0
C302 C 0.26447 0.17364 0.46787 0.0
O303 O 0.28912 0.12329 0.52443 0.0
O304 O 0.27538 0.10298 0.48879 0.0
N305 N 0.17267 0.14821 0.48524 0.0
C306 C 0.15983 0.1529 0.50767 0.0
C307 C 0.13314 0.14733 0.50891 0.0
C308 C 0.1199 0.13739 0.487 0.0
C309 C 0.1336 0.1322 0.46429 0.0
C310 C 0.16013 0.13833 0.46415 0.0
H311 H 0.16978 0.16134 0.5243 0.0
O312 O 0.23263 0.10524 0.52288 0.0
O313 O 0.22285 0.12825 0.4888 0.0
O314 O 0.24306 0.15958 0.53112 0.0
O315 O 0.21179 0.17891 0.50879 0.0
C316 C 0.12194 0.12156 0.44168 0.0
C317 C 0.13703 0.11692 0.41955 0.0
H318 H 0.1724 0.11079 0.3808 0.0
H319 H 0.21893 0.12399 0.38408 0.0
H320 H 0.12269 0.1512 0.52655 0.0
H321 H 0.09917 0.13384 0.48784 0.0
H322 H 0.10141 0.1167 0.44115 0.0
H323 H 0.12793 0.10838 0.40241 0.0
Mn324 Mn 0.37963 0.5048 0.76176 0.0
Mn325 Mn 0.40233 0.44445 0.75419 0.0
C326 C 0.35569 0.47315 0.73866 0.0
C327 C 0.35538 0.5363 0.78283 0.0
C328 C 0.42196 0.49009 0.72306 0.0
O329 O 0.40665 0.5036 0.79084 0.0
O330 O 0.42043 0.46329 0.78297 0.0
C331 C 0.38442 0.42274 0.8039 0.0
N332 N 0.38538 0.42137 0.77762 0.0
C333 C 0.36365 0.37948 0.77694 0.0
C334 C 0.36247 0.38039 0.804 0.0
C335 C 0.37273 0.40222 0.81752 0.0
C336 C 0.3751 0.40073 0.76441 0.0
H337 H 0.39263 0.4393 0.81439 0.0
C338 C 0.42105 0.48457 0.79604 0.0
O339 O 0.37441 0.54256 0.7677 0.0
O340 O 0.35128 0.51172 0.78683 0.0
N341 N 0.38647 0.42344 0.72745 0.0
C342 C 0.38784 0.42631 0.70137 0.0
C343 C 0.37815 0.40632 0.68499 0.0
C344 C 0.3676 0.38346 0.69559 0.0
C345 C 0.36612 0.38108 0.7225 0.0
C346 C 0.37589 0.40171 0.73783 0.0
H347 H 0.39653 0.44359 0.69316 0.0
O348 O 0.35275 0.49763 0.73437 0.0
O349 O 0.37297 0.46778 0.75598 0.0
O350 O 0.4082 0.50693 0.73433 0.0
O351 O 0.42097 0.46611 0.72878 0.0
C352 C 0.35552 0.35898 0.73473 0.0
C353 C 0.35396 0.35833 0.76191 0.0
H354 H 0.35368 0.36449 0.81458 0.0
H355 H 0.37187 0.40309 0.83839 0.0
H356 H 0.37919 0.40835 0.66424 0.0
H357 H 0.36056 0.36791 0.68287 0.0
H358 H 0.34828 0.34245 0.72343 0.0
H359 H 0.34529 0.34146 0.77105 0.0
Mn360 Mn 0.75476 0.376 0.50653 0.0
Mn361 Mn 0.75187 0.40279 0.44754 0.0
C362 C 0.73556 0.35295 0.4721 0.0
C363 C 0.77495 0.3518 0.53826 0.0
C364 C 0.71736 0.41844 0.49199 0.0
O365 O 0.78249 0.40535 0.50887 0.0
O366 O 0.78057 0.4192 0.46785 0.0
C367 C 0.80163 0.3858 0.42591 0.0
N368 N 0.77538 0.38689 0.42427 0.0
C369 C 0.77506 0.36704 0.38193 0.0
C370 C 0.8021 0.36571 0.38312 0.0
C371 C 0.81542 0.37496 0.4053 0.0
C372 C 0.76234 0.37761 0.40325 0.0
H373 H 0.81197 0.39326 0.44276 0.0
C374 C 0.79077 0.41962 0.49045 0.0
O375 O 0.75761 0.36858 0.54396 0.0
O376 O 0.78138 0.34965 0.51411 0.0
N377 N 0.72513 0.38823 0.42566 0.0
C378 C 0.69898 0.3893 0.42838 0.0
C379 C 0.68274 0.38013 0.40819 0.0
C380 C 0.69357 0.37047 0.38529 0.0
C381 C 0.72056 0.36947 0.38302 0.0
C382 C 0.73573 0.37847 0.40393 0.0
H383 H 0.6906 0.39727 0.44571 0.0
O384 O 0.72966 0.34742 0.49578 0.0
O385 O 0.75235 0.37192 0.46928 0.0
O386 O 0.72544 0.40189 0.5079 0.0
O387 O 0.72651 0.42092 0.46931 0.0
C388 C 0.73301 0.36 0.36081 0.0
C389 C 0.76021 0.35839 0.3604 0.0
H390 H 0.81281 0.35758 0.36716 0.0
H391 H 0.83628 0.37398 0.40638 0.0
H392 H 0.66194 0.38086 0.41013 0.0
H393 H 0.68099 0.36369 0.36964 0.0
H394 H 0.72183 0.35373 0.34399 0.0
H395 H 0.7695 0.3505 0.34344 0.0
Mn396 Mn 0.64196 0.01021 0.74738 0.0
Mn397 Mn 0.61327 0.06823 0.75025 0.0
C398 C 0.66226 0.04662 0.72998 0.0
C399 C 0.66852 0.97844 0.76397 0.0
C400 C 0.59803 0.02647 0.71108 0.0
O401 O 0.61517 0.00457 0.77564 0.0
O402 O 0.59668 0.04361 0.77475 0.0
C403 C 0.62965 0.08307 0.80352 0.0
N404 N 0.62843 0.08853 0.77789 0.0
C405 C 0.64819 0.13084 0.78521 0.0
C406 C 0.64959 0.12572 0.8117 0.0
C407 C 0.6404 0.10166 0.82087 0.0
C408 C 0.63758 0.11143 0.76882 0.0
H409 H 0.62242 0.0647 0.81069 0.0
C410 C 0.59853 0.02065 0.78349 0.0
O411 O 0.65072 0.97288 0.74684 0.0
O412 O 0.67051 1.00239 0.77205 0.0
N413 N 0.62707 0.09445 0.72806 0.0
C414 C 0.62544 0.09581 0.70184 0.0
C415 C 0.63381 0.11862 0.68955 0.0
C416 C 0.64341 0.13986 0.70436 0.0
C417 C 0.64523 0.13788 0.73129 0.0
C418 C 0.63654 0.1147 0.74246 0.0
H419 H 0.61768 0.07969 0.69043 0.0
O420 O 0.66788 0.02348 0.72205 0.0
O421 O 0.64487 0.04794 0.74804 0.0
O422 O 0.61348 0.0096 0.71942 0.0
O423 O 0.59667 0.04921 0.72094 0.0
C424 C 0.65521 0.15802 0.7475 0.0
C425 C 0.65695 0.1544 0.77441 0.0
H426 H 0.65773 0.14007 0.82516 0.0
H427 H 0.64145 0.09753 0.84128 0.0
H428 H 0.63254 0.11994 0.66874 0.0
H429 H 0.64936 0.15758 0.69482 0.0
H430 H 0.66183 0.17631 0.73948 0.0
H431 H 0.66507 0.16987 0.78662 0.0
Mn432 Mn 0.0075 0.2537 0.87615 0.0
Mn433 Mn 0.9493 0.25283 0.90557 0.0
C434 C 0.97144 0.23502 0.8554 0.0
C435 C 0.03961 0.27219 0.84998 0.0
C436 C 0.99208 0.21671 0.91983 0.0
O437 O 0.01213 0.28214 0.90402 0.0
O438 O 0.97213 0.28032 0.92141 0.0
C439 C 0.9311 0.30405 0.88932 0.0
N440 N 0.92748 0.27782 0.8905 0.0
C441 C 0.88516 0.27993 0.87122 0.0
C442 C 0.88838 0.30698 0.86985 0.0
C443 C 0.91152 0.31906 0.87879 0.0
C444 C 0.90548 0.26596 0.88158 0.0
H445 H 0.94874 0.31344 0.89643 0.0
C446 C 0.99512 0.2901 0.91991 0.0
O447 O 0.04483 0.25514 0.86725 0.0
O448 O 0.01576 0.27934 0.84845 0.0
N449 N 0.92507 0.22738 0.89194 0.0
C450 C 0.92575 0.20104 0.89316 0.0
C451 C 0.90431 0.18594 0.88441 0.0
C452 C 0.88229 0.1981 0.87495 0.0
C453 C 0.88212 0.22525 0.87378 0.0
C454 C 0.90414 0.23925 0.88251 0.0
H455 H 0.94244 0.19163 0.90088 0.0
O456 O 0.9946 0.22819 0.84923 0.0
O457 O 0.97002 0.2524 0.87377 0.0
O458 O 0.00817 0.22494 0.90308 0.0
O459 O 0.96969 0.22605 0.92268 0.0
C460 C 0.86096 0.23899 0.86439 0.0
C461 C 0.8626 0.26627 0.86276 0.0
H462 H 0.87326 0.31864 0.86189 0.0
H463 H 0.91418 0.33992 0.87776 0.0
H464 H 0.90464 0.16499 0.88525 0.0
H465 H 0.86569 0.18639 0.86849 0.0
H466 H 0.84336 0.22874 0.85823 0.0
H467 H 0.84639 0.27656 0.85499 0.0
Mn468 Mn 0.49966 0.7517 0.3723 0.0
Mn469 Mn 0.43998 0.74518 0.39799 0.0
C470 C 0.46663 0.72929 0.34971 0.0
C471 C 0.53114 0.77277 0.34721 0.0
C472 C 0.48515 0.71339 0.41521 0.0
O473 O 0.50007 0.78074 0.39981 0.0
O474 O 0.45973 0.77429 0.41504 0.0
C475 C 0.4187 0.7949 0.38096 0.0
N476 N 0.41699 0.76852 0.382 0.0
C477 C 0.37495 0.76759 0.36182 0.0
C478 C 0.3762 0.79475 0.36058 0.0
C479 C 0.39827 0.80844 0.37001 0.0
C480 C 0.39611 0.75514 0.3725 0.0
H481 H 0.43546 0.80553 0.38853 0.0
C482 C 0.48152 0.78678 0.4148 0.0
O483 O 0.53729 0.75712 0.36549 0.0
O484 O 0.50669 0.77706 0.34415 0.0
N485 N 0.41834 0.71815 0.38313 0.0
C486 C 0.42091 0.69197 0.38433 0.0
C487 C 0.40071 0.67541 0.37525 0.0
C488 C 0.37794 0.68593 0.3655 0.0
C489 C 0.37585 0.71294 0.36425 0.0
C490 C 0.39673 0.72845 0.3733 0.0
H491 H 0.43814 0.68382 0.39236 0.0
O492 O 0.49074 0.72453 0.34529 0.0
O493 O 0.4625 0.74661 0.36759 0.0
O494 O 0.50171 0.72397 0.40024 0.0
O495 O 0.46152 0.71983 0.41581 0.0
C496 C 0.35381 0.7251 0.35459 0.0
C497 C 0.35351 0.75238 0.353 0.0
H498 H 0.36038 0.80527 0.35237 0.0
H499 H 0.39941 0.8294 0.36909 0.0
H500 H 0.40252 0.65458 0.37612 0.0
H501 H 0.36225 0.67308 0.35885 0.0
H502 H 0.33701 0.71366 0.34822 0.0
H503 H 0.33667 0.76146 0.34502 0.0
Mn504 Mn 0.01267 0.75267 0.63486 0.0
Mn505 Mn 0.98228 0.69881 0.65781 0.0
C506 C 0.01434 0.71341 0.61194 0.0
C507 C 0.01332 0.79096 0.61098 0.0
C508 C 0.03401 0.71941 0.67846 0.0
O509 O 0.98825 0.76782 0.66196 0.0
O510 O 0.96879 0.73051 0.67403 0.0
C511 C 0.93037 0.70829 0.63611 0.0
N512 N 0.95091 0.69256 0.63877 0.0
C513 C 0.92798 0.65719 0.61718 0.0
C514 C 0.90657 0.67298 0.61417 0.0
C515 C 0.90789 0.69874 0.62343 0.0
C516 C 0.95026 0.66814 0.62896 0.0
H517 H 0.93106 0.72788 0.64381 0.0
C518 C 0.97154 0.7552 0.67528 0.0
O519 O 0.02984 0.78725 0.62941 0.0
O520 O 0.99585 0.77273 0.60683 0.0
N521 N 0.99254 0.66594 0.64439 0.0
C522 C 0.01379 0.65246 0.65114 0.0
C523 C 0.01529 0.62619 0.64397 0.0
C524 C 0.99456 0.61374 0.6307 0.0
C525 C 0.97238 0.62761 0.62504 0.0
C526 C 0.97218 0.65391 0.63223 0.0
H527 H 0.02952 0.66165 0.66196 0.0
O528 O 0.0313 0.73196 0.60815 0.0
O529 O 0.99635 0.71852 0.62856 0.0
O530 O 0.03591 0.73879 0.66346 0.0
O531 O 0.01465 0.70341 0.67813 0.0
C532 C 0.94996 0.616 0.61374 0.0
C533 C 0.92783 0.63083 0.60965 0.0
H534 H 0.88896 0.66547 0.60498 0.0
H535 H 0.89143 0.71104 0.62125 0.0
H536 H 0.03225 0.61548 0.64895 0.0
H537 H 0.99565 0.59338 0.62551 0.0
H538 H 0.94951 0.59566 0.60814 0.0
H539 H 0.91076 0.62172 0.60081 0.0
Mn540 Mn 0.51275 0.24843 0.13451 0.0
Mn541 Mn 0.48269 0.19527 0.15929 0.0
C542 C 0.51304 0.20882 0.11202 0.0
C543 C 0.51355 0.28642 0.11018 0.0
C544 C 0.5352 0.21566 0.17786 0.0
O545 O 0.48925 0.26428 0.16204 0.0
O546 O 0.46993 0.22736 0.17549 0.0
C547 C 0.42991 0.2043 0.1394 0.0
N548 N 0.45039 0.18852 0.14205 0.0
C549 C 0.42648 0.15238 0.12286 0.0
C550 C 0.40509 0.16821 0.11989 0.0
C551 C 0.40689 0.19434 0.12802 0.0
C552 C 0.44908 0.16356 0.13373 0.0
H553 H 0.4311 0.22425 0.14607 0.0
C554 C 0.47289 0.25206 0.17613 0.0
O555 O 0.53037 0.28257 0.12829 0.0
O556 O 0.49564 0.2685 0.1066 0.0
N557 N 0.49244 0.16232 0.14585 0.0
C558 C 0.51512 0.14998 0.14934 0.0
C559 C 0.51638 0.12347 0.14317 0.0
C560 C 0.49426 0.1099 0.13374 0.0
C561 C 0.47137 0.12318 0.12948 0.0
C562 C 0.47122 0.14953 0.13623 0.0
H563 H 0.53194 0.16016 0.1573 0.0
O564 O 0.53036 0.22694 0.10771 0.0
O565 O 0.49562 0.21441 0.12913 0.0
O566 O 0.53675 0.23486 0.16266 0.0
O567 O 0.51576 0.19986 0.17826 0.0
C568 C 0.44858 0.11125 0.11925 0.0
C569 C 0.42627 0.12593 0.11558 0.0
H570 H 0.3872 0.16051 0.11142 0.0
H571 H 0.39047 0.20668 0.12581 0.0
H572 H 0.53419 0.11339 0.14617 0.0
H573 H 0.49514 0.08928 0.12969 0.0
H574 H 0.44806 0.09084 0.11393 0.0
H575 H 0.409 0.11664 0.10732 0.0
C576 C 0.21031 0.76206 0.84721 0.0
C577 C 0.21462 0.73651 0.85465 0.0
C578 C 0.21314 0.78287 0.86485 0.0
C579 C 0.221 0.7782 0.89056 0.0
C580 C 0.22559 0.75242 0.89818 0.0
C581 C 0.22236 0.73189 0.88014 0.0
C582 C 0.20843 0.80977 0.85529 0.0
C583 C 0.23374 0.74652 0.92547 0.0
C584 C 0.2535 0.83133 0.93209 0.0
C585 C 0.23311 0.83911 0.94786 0.0
C586 C 0.24957 0.81235 0.91263 0.0
C587 C 0.22485 0.80013 0.90949 0.0
C588 C 0.20407 0.8082 0.92515 0.0
C589 C 0.2085 0.82752 0.94427 0.0
C590 C 0.272 0.80495 0.89579 0.0
C591 C 0.1773 0.7961 0.92195 0.0
H592 H 0.20486 0.76591 0.82741 0.0
H593 H 0.22547 0.71216 0.8861 0.0
H594 H 0.2266 0.81738 0.84657 0.0
H595 H 0.19324 0.80942 0.84001 0.0
H596 H 0.20261 0.82319 0.87096 0.0
H597 H 0.23621 0.72543 0.92842 0.0
H598 H 0.25229 0.75694 0.93019 0.0
H599 H 0.21906 0.75352 0.93927 0.0
H600 H 0.27277 0.83955 0.9355 0.0
H601 H 0.19282 0.83329 0.95673 0.0
H602 H 0.26682 0.80745 0.87516 0.0
H603 H 0.27627 0.78419 0.89844 0.0
H604 H 0.28981 0.81683 0.9002 0.0
H605 H 0.17046 0.7985 0.90179 0.0
H606 H 0.16312 0.80484 0.9353 0.0
H607 H 0.17784 0.77496 0.92556 0.0
C608 C 0.01239 0.50245 0.41851 0.0
C609 C 0.00761 0.52816 0.42615 0.0
C610 C 0.02651 0.49691 0.39604 0.0
C611 C 0.03676 0.51754 0.38116 0.0
C612 C 0.03211 0.54349 0.38873 0.0
C613 C 0.01728 0.54845 0.4108 0.0
C614 C 0.0305 0.46899 0.38825 0.0
C615 C 0.04295 0.56612 0.37359 0.0
C616 C 0.0944 0.50944 0.33675 0.0
C617 C 0.08262 0.51102 0.31245 0.0
C618 C 0.07957 0.51035 0.35941 0.0
C619 C 0.05231 0.51229 0.35756 0.0
C620 C 0.04026 0.51197 0.3329 0.0
C621 C 0.05563 0.51185 0.31062 0.0
C622 C 0.09326 0.51127 0.38526 0.0
C623 C 0.01125 0.51325 0.33003 0.0
H624 H 0.00538 0.48656 0.43028 0.0
H625 H 0.01321 0.56836 0.4159 0.0
H626 H 0.02347 0.46542 0.36818 0.0
H627 H 0.05143 0.46487 0.38857 0.0
H628 H 0.02025 0.45517 0.40121 0.0
H629 H 0.03864 0.58512 0.38273 0.0
H630 H 0.06426 0.56472 0.37183 0.0
H631 H 0.03474 0.56561 0.35374 0.0
H632 H 0.11535 0.50937 0.33806 0.0
H633 H 0.04662 0.51335 0.29175 0.0
H634 H 0.08415 0.49717 0.39864 0.0
H635 H 0.09152 0.53088 0.39411 0.0
H636 H 0.11414 0.50705 0.38352 0.0
H637 H 1.00141 0.49932 0.34312 0.0
H638 H 0.00473 0.50896 0.30989 0.0
H639 H 0.00497 0.53296 0.33552 0.0
C640 C 0.82973 0.77901 0.87163 0.0
C641 C 0.8093 0.7875 0.8562 0.0
C642 C 0.82549 0.7601 0.8906 0.0
C643 C 0.80027 0.74927 0.8941 0.0
C644 C 0.77963 0.75773 0.87852 0.0
C645 C 0.78437 0.77674 0.85985 0.0
C646 C 0.84795 0.75176 0.90695 0.0
C647 C 0.75246 0.74659 0.88146 0.0
C648 C 0.78685 0.68397 0.92537 0.0
C649 C 0.77701 0.69167 0.94931 0.0
C650 C 0.79597 0.7025 0.90767 0.0
C651 C 0.79511 0.72929 0.91417 0.0
C652 C 0.78657 0.73695 0.93903 0.0
C653 C 0.77738 0.71802 0.95621 0.0
C654 C 0.8048 0.69348 0.88138 0.0
C655 C 0.78548 0.76521 0.94685 0.0
H656 H 0.84901 0.78736 0.86902 0.0
H657 H 0.76858 0.78285 0.84772 0.0
H658 H 0.84394 0.75569 0.92766 0.0
H659 H 0.85041 0.73054 0.9047 0.0
H660 H 0.86639 0.76194 0.90176 0.0
H661 H 0.73862 0.75504 0.86765 0.0
H662 H 0.75233 0.72525 0.87832 0.0
H663 H 0.74551 0.75024 0.90138 0.0
H664 H 0.786 0.66357 0.91991 0.0
H665 H 0.76929 0.72389 0.97461 0.0
H666 H 0.82341 0.70328 0.87625 0.0
H667 H 0.7903 0.69872 0.8666 0.0
H668 H 0.80721 0.67214 0.88042 0.0
H669 H 0.80399 0.77554 0.9423 0.0
H670 H 0.78148 0.7678 0.96778 0.0
H671 H 0.76996 0.77453 0.93573 0.0
C672 C 0.98423 0.97191 0.43438 0.0
C673 C 0.0108 0.97836 0.43549 0.0
C674 C 0.96967 0.97567 0.41177 0.0
C675 C 0.98182 0.9865 0.38978 0.0
C676 C 0.00839 0.99386 0.39103 0.0
C677 C 0.02258 0.98942 0.41367 0.0
C678 C 0.94145 0.96722 0.41113 0.0
C679 C 0.02209 0.0056 0.36811 0.0
C680 C 0.95433 0.96571 0.32444 0.0
C681 C 0.93882 0.98663 0.31784 0.0
C682 C 0.96844 0.96565 0.34759 0.0
C683 C 0.96758 0.98725 0.36466 0.0
C684 C 0.95289 0.00895 0.35781 0.0
C685 C 0.93852 0.00834 0.33453 0.0
C686 C 0.98369 0.94201 0.35411 0.0
C687 C 0.95194 0.03255 0.37532 0.0
H688 H 0.97475 0.96384 0.45118 0.0
H689 H 0.04315 0.9941 0.41398 0.0
H690 H 0.9294 0.98338 0.40471 0.0
H691 H 0.9385 0.95103 0.39695 0.0
H692 H 0.93447 0.96064 0.43027 0.0
H693 H 0.04184 0.0132 0.37317 0.0
H694 H 0.02375 0.99071 0.35257 0.0
H695 H 0.01078 0.02166 0.36017 0.0
H696 H 0.95494 0.94878 0.31182 0.0
H697 H 0.92666 0.02458 0.32972 0.0
H698 H 0.97635 0.93346 0.3723 0.0
H699 H 0.00435 0.94758 0.35732 0.0
H700 H 0.98247 0.92684 0.33864 0.0
H701 H 0.94249 0.02726 0.39377 0.0
H702 H 0.94111 0.0485 0.36647 0.0
H703 H 0.97185 0.03979 0.38008 0.0
C704 C 0.22469 0.27915 0.64581 0.0
C705 C 0.1997 0.28337 0.65531 0.0
C706 C 0.22886 0.26146 0.62552 0.0
C707 C 0.20769 0.24682 0.61494 0.0
C708 C 0.18255 0.25017 0.625 0.0
C709 C 0.1788 0.26861 0.64482 0.0
C710 C 0.25592 0.2588 0.61511 0.0
C711 C 0.15958 0.23445 0.61462 0.0
C712 C 0.21376 0.21998 0.54652 0.0
C713 C 0.22155 0.1946 0.55093 0.0
C714 C 0.20927 0.23718 0.56718 0.0
C715 C 0.21188 0.22855 0.59288 0.0
C716 C 0.21928 0.20277 0.59744 0.0
C717 C 0.22441 0.18621 0.57639 0.0
C718 C 0.20214 0.26472 0.56148 0.0
C719 C 0.22162 0.19263 0.62455 0.0
H720 H 0.24117 0.28974 0.6542 0.0
H721 H 0.15939 0.27174 0.65178 0.0
H722 H 0.2622 0.23855 0.61717 0.0
H723 H 0.25616 0.26319 0.59419 0.0
H724 H 0.27022 0.27197 0.62517 0.0
H725 H 0.14168 0.23798 0.62575 0.0
H726 H 0.15604 0.23935 0.59414 0.0
H727 H 0.1636 0.21344 0.61517 0.0
H728 H 0.21164 0.22655 0.52683 0.0
H729 H 0.23008 0.16648 0.57985 0.0
H730 H 0.2166 0.27848 0.57043 0.0
H731 H 0.18309 0.26893 0.57009 0.0
H732 H 0.20118 0.26844 0.54042 0.0
H733 H 0.23693 0.20384 0.63532 0.0
H734 H 0.22637 0.17176 0.62477 0.0
H735 H 0.2032 0.19525 0.63505 0.0
C736 C 0.4894 0.53371 0.59136 0.0
C737 C 0.5165 0.53552 0.59305 0.0
C738 C 0.47431 0.52703 0.6129 0.0
C739 C 0.48655 0.52228 0.63686 0.0
C740 C 0.51389 0.52453 0.6388 0.0
C741 C 0.52853 0.53096 0.61685 0.0
C742 C 0.44526 0.52454 0.60987 0.0
C743 C 0.52768 0.51994 0.66403 0.0
C744 C 0.44472 0.5249 0.69728 0.0
C745 C 0.43929 0.49847 0.70164 0.0
C746 C 0.46044 0.53292 0.6766 0.0
C747 C 0.47076 0.51413 0.6596 0.0
C748 C 0.46548 0.48745 0.66396 0.0
C749 C 0.44999 0.47996 0.68495 0.0
C750 C 0.46585 0.56154 0.6728 0.0
C751 C 0.47584 0.46678 0.64616 0.0
H752 H 0.47999 0.53689 0.57296 0.0
H753 H 0.54945 0.53258 0.61834 0.0
H754 H 0.43863 0.50439 0.6141 0.0
H755 H 0.43573 0.53754 0.62393 0.0
H756 H 0.43869 0.52938 0.5901 0.0
H757 H 0.54893 0.52349 0.66262 0.0
H758 H 0.52005 0.5328 0.6794 0.0
H759 H 0.524 0.49964 0.67014 0.0
H760 H 0.43669 0.53938 0.71007 0.0
H761 H 0.44589 0.4595 0.68797 0.0
H762 H 0.45791 0.56747 0.6539 0.0
H763 H 0.48704 0.56562 0.67244 0.0
H764 H 0.45724 0.57366 0.68826 0.0
H765 H 0.46853 0.46956 0.62623 0.0
H766 H 0.47016 0.44687 0.65232 0.0
H767 H 0.49727 0.46843 0.64547 0.0
C768 C 0.82531 0.26664 0.65639 0.0
C769 C 0.81833 0.24043 0.65164 0.0
C770 C 0.82165 0.28557 0.63752 0.0
C771 C 0.80992 0.27836 0.61359 0.0
C772 C 0.8036 0.2519 0.60832 0.0
C773 C 0.80836 0.23328 0.62714 0.0
C774 C 0.82941 0.31345 0.64362 0.0
C775 C 0.79059 0.24337 0.58327 0.0
C776 C 0.76974 0.32826 0.57962 0.0
C777 C 0.78506 0.3344 0.55818 0.0
C778 C 0.77772 0.3102 0.59781 0.0
C779 C 0.80206 0.29858 0.59501 0.0
C780 C 0.81811 0.30549 0.57393 0.0
C781 C 0.80919 0.32298 0.55546 0.0
C782 C 0.75965 0.30289 0.61953 0.0
C783 C 0.84455 0.29425 0.57078 0.0
H784 H 0.8328 0.27268 0.67519 0.0
H785 H 0.80364 0.21307 0.62279 0.0
H786 H 0.8401 0.32214 0.62718 0.0
H787 H 0.81184 0.32492 0.6467 0.0
H788 H 0.84172 0.31531 0.66125 0.0
H789 H 0.78767 0.22197 0.58179 0.0
H790 H 0.77143 0.25243 0.58173 0.0
H791 H 0.80225 0.24996 0.56657 0.0
H792 H 0.75095 0.33686 0.58167 0.0
H793 H 0.82114 0.32782 0.53898 0.0
H794 H 0.7692 0.30693 0.63846 0.0
H795 H 0.75488 0.28177 0.61849 0.0
H796 H 0.74132 0.31359 0.61888 0.0
H797 H 0.85591 0.29693 0.58893 0.0
H798 H 0.85556 0.30335 0.55474 0.0
H799 H 0.84262 0.27309 0.56683 0.0
C800 C 0.49018 0.99308 0.60266 0.0
C801 C 0.50125 0.98939 0.57826 0.0
C802 C 0.50571 0.99853 0.62455 0.0
C803 C 0.53294 1.00082 0.6219 0.0
C804 C 0.54419 0.99736 0.59723 0.0
C805 C 0.52822 0.99143 0.57575 0.0
C806 C 0.49298 1.00164 0.65055 0.0
C807 C 0.57308 1.00013 0.59349 0.0
C808 C 0.57027 0.0394 0.67384 0.0
C809 C 0.58121 0.01972 0.68844 0.0
C810 C 0.5548 0.03352 0.65203 0.0
C811 C 0.54961 0.00727 0.64486 0.0
C812 C 0.56029 0.98727 0.65967 0.0
C813 C 0.57616 0.99373 0.68111 0.0
C814 C 0.54417 0.05544 0.63653 0.0
C815 C 0.55481 0.95904 0.65294 0.0
H816 H 0.46935 0.99118 0.60468 0.0
H817 H 0.53678 0.98872 0.55686 0.0
H818 H 0.50091 0.98759 0.66433 0.0
H819 H 0.4973 0.02137 0.65857 0.0
H820 H 0.47163 0.99857 0.64945 0.0
H821 H 0.57875 0.99711 0.57302 0.0
H822 H 0.58001 0.01977 0.59993 0.0
H823 H 0.58314 0.9859 0.60553 0.0
H824 H 0.57409 0.05955 0.67922 0.0
H825 H 0.58437 0.97838 0.69234 0.0
H826 H 0.52271 0.05423 0.63646 0.0
H827 H 0.55052 0.05375 0.61614 0.0
H828 H 0.55053 0.07481 0.64429 0.0
H829 H 0.53362 0.9549 0.65294 0.0
H830 H 0.56414 0.94582 0.66668 0.0
H831 H 0.56185 0.95465 0.6332 0.0
C832 C 0.85101 0.20375 0.75937 0.0
C833 C 0.85892 0.20787 0.73383 0.0
C834 C 0.86842 0.20652 0.78015 0.0
C835 C 0.89442 0.21444 0.77558 0.0
C836 C 0.90263 0.21866 0.74985 0.0
C837 C 0.88484 0.21523 0.72929 0.0
C838 C 0.85825 0.20191 0.80692 0.0
C839 C 0.9302 0.227 0.74406 0.0
C840 C 0.93411 0.24874 0.82875 0.0
C841 C 0.9497 0.22885 0.83746 0.0
C842 C 0.91543 0.24409 0.80928 0.0
C843 C 0.91284 0.21912 0.79763 0.0
C844 C 0.92828 0.19884 0.80668 0.0
C845 C 0.94668 0.204 0.82637 0.0
C846 C 0.89882 0.26604 0.80084 0.0
C847 C 0.9255 0.17177 0.79535 0.0
H848 H 0.83091 0.19877 0.76333 0.0
H849 H 0.89128 0.2182 0.70964 0.0
H850 H 0.87362 0.19651 0.82063 0.0
H851 H 0.84938 0.22001 0.81389 0.0
H852 H 0.84288 0.18638 0.80674 0.0
H853 H 0.93369 0.229 0.72302 0.0
H854 H 0.93487 0.24591 0.75378 0.0
H855 H 0.94371 0.21267 0.75184 0.0
H856 H 0.93707 0.2682 0.83663 0.0
H857 H 0.95898 0.1887 0.83288 0.0
H858 H 0.87807 0.26043 0.80313 0.0
H859 H 0.90206 0.26996 0.78007 0.0
H860 H 0.90292 0.28419 0.81215 0.0
H861 H 0.90523 0.16443 0.79748 0.0
H862 H 0.93861 0.15803 0.80479 0.0
H863 H 0.92978 0.17209 0.77437 0.0
C864 C 0.48732 0.90703 0.51582 0.0
C865 C 0.47813 0.9293 0.50388 0.0
C866 C 0.49118 0.88402 0.50165 0.0
C867 C 0.48533 0.88299 0.4749 0.0
C868 C 0.4767 0.90554 0.46257 0.0
C869 C 0.47335 0.92841 0.47715 0.0
C870 C 0.50053 0.86049 0.51555 0.0
C871 C 0.47003 0.90523 0.43413 0.0
C872 C 0.50646 0.82631 0.43229 0.0
C873 C 0.48385 0.81051 0.43158 0.0
C874 C 0.50751 0.84976 0.44671 0.0
C875 C 0.48539 0.8577 0.46049 0.0
C876 C 0.46275 0.84162 0.46019 0.0
C877 C 0.46232 0.8183 0.44595 0.0
C878 C 0.53212 0.86624 0.44688 0.0
C879 C 0.43865 0.84933 0.47445 0.0
H880 H 0.49077 0.90726 0.53649 0.0
H881 H 0.46677 0.94559 0.46758 0.0
H882 H 0.48461 0.84562 0.51648 0.0
H883 H 0.51669 0.85169 0.50484 0.0
H884 H 0.50715 0.86526 0.53556 0.0
H885 H 0.46535 0.92479 0.42705 0.0
H886 H 0.48637 0.89776 0.42268 0.0
H887 H 0.45308 0.89194 0.43047 0.0
H888 H 0.5232 0.82057 0.42132 0.0
H889 H 0.44466 0.80643 0.44566 0.0
H890 H 0.53851 0.87039 0.46706 0.0
H891 H 0.52853 0.88515 0.43778 0.0
H892 H 0.54804 0.85674 0.43636 0.0
H893 H 0.44305 0.85235 0.49529 0.0
H894 H 0.42269 0.83452 0.47247 0.0
H895 H 0.43176 0.86798 0.46695 0.0
C896 C 0.15837 0.32165 0.7617 0.0
C897 C 0.15401 0.31374 0.73588 0.0
C898 C 0.13958 0.31722 0.78081 0.0
C899 C 0.1161 0.30381 0.77424 0.0
C900 C 0.11146 0.29591 0.74828 0.0
C901 C 0.13021 0.30133 0.72942 0.0
C902 C 0.14507 0.32646 0.80816 0.0
C903 C 0.08693 0.28109 0.74049 0.0
C904 C 0.08119 0.26607 0.82681 0.0
C905 C 0.0597 0.28136 0.83167 0.0
C906 C 0.09966 0.27322 0.80825 0.0
C907 C 0.09704 0.29665 0.79469 0.0
C908 C 0.07581 0.31262 0.80011 0.0
C909 C 0.05715 0.30458 0.81826 0.0
C910 C 0.12159 0.25527 0.80264 0.0
C911 C 0.07273 0.3381 0.78661 0.0
H912 H 0.17671 0.33085 0.76724 0.0
H913 H 0.12618 0.29566 0.70953 0.0
H914 H 0.1286 0.33762 0.81564 0.0
H915 H 0.14728 0.30953 0.82087 0.0
H916 H 0.16297 0.33887 0.80962 0.0
H917 H 0.0862 0.27639 0.71948 0.0
H918 H 0.08541 0.26269 0.75132 0.0
H919 H 0.06978 0.29252 0.74552 0.0
H920 H 0.08315 0.24798 0.83694 0.0
H921 H 0.04063 0.31651 0.82205 0.0
H922 H 0.14046 0.2656 0.80592 0.0
H923 H 0.12085 0.24898 0.78204 0.0
H924 H 0.12084 0.23773 0.81486 0.0
H925 H 0.09067 0.3503 0.78885 0.0
H926 H 0.05618 0.34908 0.79425 0.0
H927 H 0.06963 0.33457 0.76562 0.0
C928 C 0.52924 0.58443 0.48648 0.0
C929 C 0.5316 0.58827 0.51329 0.0
C930 C 0.52197 0.60469 0.47029 0.0
C931 C 0.51727 0.62951 0.48111 0.0
C932 C 0.51995 0.63356 0.50814 0.0
C933 C 0.52692 0.61288 0.52389 0.0
C934 C 0.51901 0.59944 0.44164 0.0
C935 C 0.51546 0.65977 0.52044 0.0
C936 C 0.51985 0.68788 0.43666 0.0
C937 C 0.49348 0.69216 0.43232 0.0
C938 C 0.52787 0.66771 0.4526 0.0
C939 C 0.50911 0.65113 0.46424 0.0
C940 C 0.48249 0.65525 0.45985 0.0
C941 C 0.47501 0.67577 0.44413 0.0
C942 C 0.55644 0.66418 0.45705 0.0
C943 C 0.46185 0.63787 0.47163 0.0
H944 H 0.53261 0.5654 0.4782 0.0
H945 H 0.52903 0.61605 0.54455 0.0
H946 H 0.4989 0.60324 0.43546 0.0
H947 H 0.53203 0.61275 0.43076 0.0
H948 H 0.52348 0.57913 0.43624 0.0
H949 H 0.51898 0.65992 0.54163 0.0
H950 H 0.52839 0.6747 0.51161 0.0
H951 H 0.49526 0.6655 0.51682 0.0
H952 H 0.53431 0.70044 0.42776 0.0
H953 H 0.45459 0.67873 0.44084 0.0
H954 H 0.56192 0.6446 0.45027 0.0
H955 H 0.5609 0.66554 0.47803 0.0
H956 H 0.56858 0.6789 0.44689 0.0
H957 H 0.46466 0.61743 0.46552 0.0
H958 H 0.44201 0.64338 0.46599 0.0
H959 H 0.46346 0.63872 0.493 0.0
C960 C 0.85566 0.81893 0.75284 0.0
C961 C 0.8601 0.81821 0.77959 0.0
C962 C 0.87522 0.81282 0.7352 0.0
C963 C 0.89981 0.80574 0.74451 0.0
C964 C 0.90485 0.80646 0.77144 0.0
C965 C 0.88493 0.81263 0.78864 0.0
C966 C 0.86896 0.81221 0.70667 0.0
C967 C 0.93079 0.79913 0.78221 0.0
C968 C 0.93424 0.75452 0.70571 0.0
C969 C 0.95364 0.76898 0.6929 0.0
C970 C 0.91679 0.76635 0.72239 0.0
C971 C 0.91856 0.79349 0.72661 0.0
C972 C 0.93798 0.80839 0.71382 0.0
C973 C 0.95531 0.79595 0.69705 0.0
C974 C 0.89638 0.74965 0.7355 0.0
C975 C 0.94039 0.83739 0.71788 0.0
H976 H 0.8365 0.82303 0.74564 0.0
H977 H 0.88864 0.81249 0.80927 0.0
H978 H 0.88472 0.82186 0.69559 0.0
H979 H 0.86727 0.79175 0.69975 0.0
H980 H 0.85049 0.8218 0.70235 0.0
H981 H 0.9328 0.80414 0.80309 0.0
H982 H 0.93312 0.77792 0.77972 0.0
H983 H 0.94673 0.80901 0.77156 0.0
H984 H 0.93248 0.7337 0.7027 0.0
H985 H 0.97014 0.80733 0.68727 0.0
H986 H 0.8768 0.75623 0.73032 0.0
H987 H 0.89847 0.75158 0.75679 0.0
H988 H 0.89759 0.72879 0.73007 0.0
H989 H 0.92208 0.84651 0.71222 0.0
H990 H 0.95649 0.84622 0.70656 0.0
H991 H 0.94373 0.84201 0.73866 0.0
C992 C 0.03305 0.89938 0.50292 0.0
C993 C 0.03119 0.92452 0.51324 0.0
C994 C 0.02932 0.8775 0.51855 0.0
C995 C 0.02291 0.88088 0.54497 0.0
C996 C 0.02025 0.90629 0.55523 0.0
C997 C 0.02479 0.92781 0.53933 0.0
C998 C 0.03296 0.85083 0.50697 0.0
C999 C 0.01285 0.91078 0.58307 0.0
C1000 C 0.99399 0.82246 0.5803 0.0
C1001 C 0.01531 0.81431 0.59461 0.0
C1002 C 0.99602 0.84434 0.56438 0.0
C1003 C 0.02014 0.85792 0.56215 0.0
C1004 C 0.04176 0.84957 0.5764 0.0
C1005 C 0.03899 0.82812 0.59269 0.0
C1006 C 0.97235 0.853 0.55006 0.0
C1007 C 0.06797 0.86307 0.57416 0.0
H1008 H 0.03815 0.89689 0.48276 0.0
H1009 H 0.02317 0.94728 0.54724 0.0
H1010 H 0.0489 0.84121 0.51719 0.0
H1011 H 0.01518 0.83858 0.5095 0.0
H1012 H 0.03758 0.85148 0.48605 0.0
H1013 H 0.00978 0.9316 0.58757 0.0
H1014 H 0.99484 0.89952 0.58754 0.0
H1015 H 0.02827 0.90383 0.59601 0.0
H1016 H 0.97562 0.81191 0.58178 0.0
H1017 H 0.05562 0.82177 0.6035 0.0
H1018 H 0.97572 0.85205 0.52894 0.0
H1019 H 0.96854 0.87352 0.55516 0.0
H1020 H 0.95485 0.8409 0.55452 0.0
H1021 H 0.07421 0.86297 0.55368 0.0
H1022 H 0.083 0.85373 0.58596 0.0
H1023 H 0.06679 0.88364 0.58048 0.0
C1024 C 0.16338 0.68844 0.75735 0.0
C1025 C 0.16106 0.69498 0.78364 0.0
C1026 C 0.14257 0.69119 0.74008 0.0
C1027 C 0.11896 0.70101 0.74924 0.0
C1028 C 0.11629 0.70708 0.77582 0.0
C1029 C 0.13725 0.70378 0.7927 0.0
C1030 C 0.14607 0.68416 0.71192 0.0
C1031 C 0.09148 0.7177 0.78636 0.0
C1032 C 0.075 0.73401 0.70138 0.0
C1033 C 0.05561 0.71483 0.6968 0.0
C1034 C 0.09566 0.72978 0.71842 0.0
C1035 C 0.09724 0.70563 0.73094 0.0
C1036 C 0.07787 0.68613 0.72631 0.0
C1037 C 0.05719 0.69103 0.70952 0.0
C1038 C 0.11573 0.75123 0.72315 0.0
C1039 C 0.07903 0.66001 0.73902 0.0
H1040 H 0.18173 0.6819 0.75006 0.0
H1041 H 0.13504 0.70838 0.81305 0.0
H1042 H 0.13038 0.67042 0.70536 0.0
H1043 H 0.14475 0.70181 0.70005 0.0
H1044 H 0.16501 0.67522 0.70819 0.0
H1045 H 0.0924 0.72111 0.8076 0.0
H1046 H 0.08734 0.73632 0.77691 0.0
H1047 H 0.07501 0.70406 0.78192 0.0
H1048 H 0.07396 0.7525 0.69179 0.0
H1049 H 0.04239 0.67603 0.70618 0.0
H1050 H 0.13517 0.74448 0.7177 0.0
H1051 H 0.1165 0.75646 0.74401 0.0
H1052 H 0.11164 0.76893 0.71204 0.0
H1053 H 0.09759 0.6508 0.73429 0.0
H1054 H 0.06283 0.64666 0.73284 0.0
H1055 H 0.07838 0.66248 0.76033 0.0
C1056 C 0.01584 0.59871 0.50418 0.0
C1057 C 0.99158 0.58561 0.50439 0.0
C1058 C 0.02041 0.62182 0.51852 0.0
C1059 C 1.00094 0.63118 0.53522 0.0
C1060 C 0.9762 0.61849 0.53484 0.0
C1061 C 0.97172 0.59658 0.51897 0.0
C1062 C 0.04596 0.63617 0.51469 0.0
C1063 C 0.95371 0.62775 0.55058 0.0
C1064 C 0.02638 0.6703 0.59368 0.0
C1065 C 0.01142 0.69237 0.59251 0.0
C1066 C 0.02305 0.65007 0.57533 0.0
C1067 C 0.00643 0.65333 0.5537 0.0
C1068 C 0.99381 0.67725 0.55096 0.0
C1069 C 0.9956 0.69595 0.57094 0.0
C1070 C 0.03711 0.62518 0.57948 0.0
C1071 C 0.9781 0.68348 0.5273 0.0
H1072 H 0.03153 0.59111 0.49287 0.0
H1073 H 0.95231 0.58811 0.51814 0.0
H1074 H 0.04766 0.65491 0.52542 0.0
H1075 H 0.06205 0.62364 0.52048 0.0
H1076 H 0.04857 0.64008 0.49381 0.0
H1077 H 0.94222 0.61095 0.55802 0.0
H1078 H 0.95971 0.6405 0.56703 0.0
H1079 H 0.9406 0.63858 0.53789 0.0
H1080 H 0.04017 0.66856 0.60934 0.0
H1081 H 0.98515 0.7138 0.56929 0.0
H1082 H 0.05351 0.62402 0.56592 0.0
H1083 H 0.02398 0.60805 0.57595 0.0
H1084 H 0.0453 0.6241 0.59928 0.0
H1085 H 0.98147 0.6701 0.51076 0.0
H1086 H 0.98282 0.70361 0.52113 0.0
H1087 H 0.95723 0.68277 0.53222 0.0
C1088 C 0.72658 0.87947 0.21749 0.0
C1089 C 0.73149 0.85488 0.2069 0.0
C1090 C 0.74678 0.89797 0.2218 0.0
C1091 C 0.77248 0.89184 0.21516 0.0
C1092 C 0.77736 0.86733 0.20387 0.0
C1093 C 0.75701 0.84906 0.20039 0.0
C1094 C 0.74065 0.92404 0.23353 0.0
C1095 C 0.8042 0.85982 0.19626 0.0
C1096 C 0.82325 0.94655 0.20879 0.0
C1097 C 0.83534 0.94638 0.23306 0.0
C1098 C 0.80285 0.92882 0.20258 0.0
C1099 C 0.7944 0.91054 0.22113 0.0
C1100 C 0.80678 0.91021 0.24559 0.0
C1101 C 0.8267 0.92848 0.25142 0.0
C1102 C 0.79016 0.92983 0.17631 0.0
C1103 C 0.79876 0.89076 0.26576 0.0
H1104 H 0.7069 0.88436 0.22224 0.0
H1105 H 0.76128 0.82995 0.19283 0.0
H1106 H 0.75082 0.92667 0.25236 0.0
H1107 H 0.74773 0.9398 0.22077 0.0
H1108 H 0.71957 0.92619 0.23667 0.0
H1109 H 0.81502 0.87625 0.18739 0.0
H1110 H 0.81463 0.85423 0.21391 0.0
H1111 H 0.80395 0.84304 0.18254 0.0
H1112 H 0.82957 0.96076 0.19476 0.0
H1113 H 0.83515 0.92916 0.27062 0.0
H1114 H 0.76921 0.9334 0.17847 0.0
H1115 H 0.79184 0.91088 0.16611 0.0
H1116 H 0.79892 0.94525 0.1641 0.0
H1117 H 0.77809 0.89304 0.27072 0.0
H1118 H 0.81053 0.89292 0.28373 0.0
H1119 H 0.80079 0.87078 0.25793 0.0
C1120 C 0.73383 0.12261 0.3073 0.0
C1121 C 0.74073 0.14729 0.31755 0.0
C1122 C 0.75247 0.10376 0.30286 0.0
C1123 C 0.77863 0.10916 0.30979 0.0
C1124 C 0.7856 0.13345 0.32134 0.0
C1125 C 0.76675 0.15234 0.32459 0.0
C1126 C 0.74427 0.07838 0.28988 0.0
C1127 C 0.81313 0.13976 0.32968 0.0
C1128 C 0.82266 0.05104 0.31259 0.0
C1129 C 0.83591 0.05315 0.28914 0.0
C1130 C 0.80459 0.06963 0.32006 0.0
C1131 C 0.79894 0.09017 0.30319 0.0
C1132 C 0.8123 0.09226 0.27946 0.0
C1133 C 0.83091 0.07403 0.27297 0.0
C1134 C 0.79147 0.06725 0.34592 0.0
C1135 C 0.80637 0.11332 0.26051 0.0
H1136 H 0.71381 0.11796 0.30243 0.0
H1137 H 0.77272 0.1713 0.33208 0.0
H1138 H 0.75473 0.07617 0.27134 0.0
H1139 H 0.74948 0.06187 0.30216 0.0
H1140 H 0.72314 0.07706 0.28586 0.0
H1141 H 0.81476 0.15801 0.34134 0.0
H1142 H 0.82083 0.12372 0.34124 0.0
H1143 H 0.82559 0.14191 0.31243 0.0
H1144 H 0.82655 0.03496 0.32515 0.0
H1145 H 0.84087 0.07557 0.25466 0.0
H1146 H 0.77041 0.06345 0.3431 0.0
H1147 H 0.79382 0.08576 0.35703 0.0
H1148 H 0.79937 0.05136 0.35759 0.0
H1149 H 0.78559 0.11204 0.255 0.0
H1150 H 0.81815 0.11197 0.24268 0.0
H1151 H 0.81007 0.1327 0.26959 0.0
C1152 C 0.4175 0.99817 0.96043 0.0
C1153 C 0.43372 0.00871 0.98001 0.0
C1154 C 0.39509 0.98342 0.96633 0.0
C1155 C 0.38811 0.97978 0.99249 0.0
C1156 C 0.40422 0.99038 0.01237 0.0
C1157 C 0.42701 0.00426 0.00592 0.0
C1158 C 0.37872 0.97193 0.94451 0.0
C1159 C 0.39715 0.98742 0.04046 0.0
C1160 C 0.31649 0.96368 0.99996 0.0
C1161 C 0.31649 0.93669 1.00238 0.0
C1162 C 0.33983 0.97823 0.99872 0.0
C1163 C 0.36363 0.96527 0.99879 0.0
C1164 C 0.36368 0.93808 1.00242 0.0
C1165 C 0.34003 0.92414 0.00451 0.0
C1166 C 0.33892 0.00727 0.99574 0.0
C1167 C 0.38851 0.9234 1.0019 0.0
H1168 H 0.42201 1.00175 0.94036 0.0
H1169 H 0.43957 0.01164 0.02134 0.0
H1170 H 0.37542 0.95079 0.94733 0.0
H1171 H 0.35949 0.98093 0.9444 0.0
H1172 H 0.3878 0.9749 0.92534 0.0
H1173 H 0.41154 0.9972 0.05364 0.0
H1174 H 0.37791 0.99574 0.04404 0.0
H1175 H 0.39565 0.96658 0.04538 0.0
H1176 H 0.2982 0.97326 0.99793 0.0
H1177 H 0.33992 0.90315 0.0057 0.0
H1178 H 0.34421 0.01247 0.97569 0.0
H1179 H 0.35315 0.01725 0.00891 0.0
H1180 H 0.31938 0.0147 0.99982 0.0
H1181 H 0.39646 0.92357 0.98203 0.0
H1182 H 0.38553 0.90289 0.00778 0.0
H1183 H 0.40327 0.93285 0.01483 0.0
C1184 C 0.27618 0.3689 0.28111 0.0
C1185 C 0.28149 0.361 0.30643 0.0
C1186 C 0.25766 0.38761 0.27608 0.0
C1187 C 0.24342 0.39829 0.29674 0.0
C1188 C 0.24832 0.39022 0.32229 0.0
C1189 C 0.26748 0.37199 0.32685 0.0
C1190 C 0.25334 0.39595 0.24858 0.0
C1191 C 0.23322 0.40076 0.34481 0.0
C1192 C 0.21134 0.46283 0.28571 0.0
C1193 C 0.1863 0.45472 0.27801 0.0
C1194 C 0.23005 0.44471 0.29214 0.0
C1195 C 0.22337 0.41785 0.29148 0.0
C1196 C 0.19779 0.40964 0.28468 0.0
C1197 C 0.17968 0.42815 0.27768 0.0
C1198 C 0.25722 0.45426 0.2987 0.0
C1199 C 0.18967 0.38127 0.28438 0.0
H1200 H 0.2863 0.36024 0.26502 0.0
H1201 H 0.27157 0.3665 0.34654 0.0
H1202 H 0.23321 0.39087 0.24245 0.0
H1203 H 0.25592 0.41733 0.24725 0.0
H1204 H 0.26682 0.38668 0.23484 0.0
H1205 H 0.2387 0.39185 0.36338 0.0
H1206 H 0.23651 0.42207 0.34656 0.0
H1207 H 0.21218 0.39717 0.34147 0.0
H1208 H 0.21661 0.48334 0.28581 0.0
H1209 H 0.1603 0.4218 0.27188 0.0
H1210 H 0.27092 0.44654 0.28427 0.0
H1211 H 0.26314 0.447 0.31784 0.0
H1212 H 0.25913 0.47578 0.29903 0.0
H1213 H 0.20044 0.37079 0.2692 0.0
H1214 H 0.1686 0.37824 0.28062 0.0
H1215 H 0.19449 0.37242 0.30315 0.0
C1216 C 0.10804 0.99764 0.50003 0.0
C1217 C 0.08292 0.0062 0.49564 0.0
C1218 C 0.12901 0.01548 0.5032 0.0
C1219 C 0.12469 0.04248 0.50204 0.0
C1220 C 0.09908 0.05106 0.49903 0.0
C1221 C 0.07861 0.03287 0.49568 0.0
C1222 C 0.15587 0.00542 0.50698 0.0
C1223 C 0.09324 0.07939 0.49792 0.0
C1224 C 0.17761 0.08962 0.52705 0.0
C1225 C 0.19074 0.09598 0.50429 0.0
C1226 C 0.15587 0.07257 0.52661 0.0
C1227 C 0.14704 0.06158 0.50279 0.0
C1228 C 0.16008 0.06827 0.47969 0.0
C1229 C 0.18209 0.08497 0.4808 0.0
C1230 C 0.14269 0.06586 0.55168 0.0
C1231 C 0.15107 0.05741 0.45384 0.0
H1232 H 0.11146 0.977 0.49995 0.0
H1233 H 0.05915 0.03956 0.4926 0.0
H1234 H 0.16517 0.01479 0.52425 0.0
H1235 H 0.15574 0.98404 0.50936 0.0
H1236 H 0.16801 0.01044 0.49007 0.0
H1237 H 0.07248 0.08297 0.5016 0.0
H1238 H 0.10511 0.09088 0.51212 0.0
H1239 H 0.0979 0.08628 0.47829 0.0
H1240 H 0.18465 0.09771 0.54532 0.0
H1241 H 0.19292 0.08893 0.46337 0.0
H1242 H 0.14357 0.04468 0.55493 0.0
H1243 H 0.12194 0.0707 0.55068 0.0
H1244 H 0.15171 0.07632 0.56852 0.0
H1245 H 0.15233 0.03597 0.4536 0.0
H1246 H 0.16271 0.06527 0.43761 0.0
H1247 H 0.13047 0.06201 0.45059 0.0
C1248 C 0.7849 0.13744 0.70401 0.0
C1249 C 0.7796 0.16287 0.69674 0.0
C1250 C 0.76481 0.11899 0.70795 0.0
C1251 C 0.73875 0.12607 0.70448 0.0
C1252 C 0.73338 0.15143 0.6963 0.0
C1253 C 0.75379 0.16955 0.69275 0.0
C1254 C 0.77146 0.09202 0.71624 0.0
C1255 C 0.70605 0.15988 0.69226 0.0
C1256 C 0.68827 0.07105 0.69745 0.0
C1257 C 0.67928 0.06885 0.72282 0.0
C1258 C 0.70708 0.09007 0.69099 0.0
C1259 C 0.71722 0.10719 0.71044 0.0
C1260 C 0.70776 0.10533 0.736 0.0
C1261 C 0.68927 0.08586 0.74196 0.0
C1262 C 0.71671 0.0913 0.66355 0.0
C1263 C 0.71772 0.12341 0.75724 0.0
H1264 H 0.80481 0.13199 0.70674 0.0
H1265 H 0.74942 0.18924 0.68757 0.0
H1266 H 0.76344 0.08826 0.73571 0.0
H1267 H 0.76253 0.07736 0.70276 0.0
H1268 H 0.79268 0.08923 0.7169 0.0
H1269 H 0.70524 0.17859 0.68197 0.0
H1270 H 0.69462 0.14495 0.68115 0.0
H1271 H 0.69689 0.16234 0.71138 0.0
H1272 H 0.68089 0.05752 0.68275 0.0
H1273 H 0.68315 0.08345 0.76179 0.0
H1274 H 0.73756 0.08678 0.66306 0.0
H1275 H 0.71482 0.11119 0.65602 0.0
H1276 H 0.70598 0.07744 0.65047 0.0
H1277 H 0.73869 0.12059 0.7604 0.0
H1278 H 0.70748 0.1202 0.77579 0.0
H1279 H 0.71539 0.14386 0.75153 0.0
C1280 C 0.42731 0.03323 0.51828 0.0
C1281 C 0.42377 0.00674 0.52332 0.0
C1282 C 0.40605 0.04898 0.51374 0.0
C1283 C 0.38058 0.03812 0.51498 0.0
C1284 C 0.37696 0.01127 0.51986 0.0
C1285 C 0.39863 0.99583 0.52366 0.0
C1286 C 0.41085 0.07733 0.50803 0.0
C1287 C 0.35018 0.99903 0.52197 0.0
C1288 C 0.32755 0.08484 0.53251 0.0
C1289 C 0.31513 0.08819 0.50868 0.0
C1290 C 0.3485 0.06827 0.53486 0.0
C1291 C 0.3578 0.05518 0.51269 0.0
C1292 C 0.34551 0.05868 0.48848 0.0
C1293 C 0.32408 0.07487 0.48682 0.0
C1294 C 0.36059 0.06467 0.56115 0.0
C1295 C 0.35521 0.04558 0.46428 0.0
H1296 H 0.44679 0.0416 0.51784 0.0
H1297 H 0.39591 0.97537 0.52773 0.0
H1298 H 0.40041 0.08255 0.49014 0.0
H1299 H 0.40326 0.08945 0.52399 0.0
H1300 H 0.43176 0.08228 0.50564 0.0
H1301 H 0.35065 0.97777 0.52507 0.0
H1302 H 0.33981 0.00809 0.53835 0.0
H1303 H 0.33881 1.00256 0.5042 0.0
H1304 H 0.32058 0.09488 0.54954 0.0
H1305 H 0.31462 0.07747 0.46834 0.0
H1306 H 0.38113 0.0715 0.561 0.0
H1307 H 0.36031 0.04376 0.56596 0.0
H1308 H 0.3504 0.0754 0.57663 0.0
H1309 H 0.37578 0.05138 0.46108 0.0
H1310 H 0.34379 0.05057 0.4469 0.0
H1311 H 0.35437 0.02422 0.46649 0.0
C1312 C 0.61141 0.51429 0.54979 0.0
C1313 C 0.58963 0.51475 0.5336 0.0
C1314 C 0.63269 0.4991 0.54341 0.0
C1315 C 0.63181 0.48342 0.52067 0.0
C1316 C 0.6096 0.48357 0.50447 0.0
C1317 C 0.58893 0.49953 0.51095 0.0
C1318 C 0.65622 0.50005 0.56084 0.0
C1319 C 0.60755 0.46668 0.48043 0.0
C1320 C 0.69409 0.46034 0.48997 0.0
C1321 C 0.69589 0.43528 0.49989 0.0
C1322 C 0.67368 0.4764 0.49701 0.0
C1323 C 0.65411 0.4669 0.51376 0.0
C1324 C 0.65572 0.44151 0.52366 0.0
C1325 C 0.67678 0.42617 0.51691 0.0
C1326 C 0.67311 0.50357 0.48658 0.0
C1327 C 0.63494 0.43037 0.54099 0.0
H1328 H 0.61195 0.5262 0.56724 0.0
H1329 H 0.57197 0.49979 0.49855 0.0
H1330 H 0.65968 0.48048 0.56853 0.0
H1331 H 0.67361 0.50598 0.54966 0.0
H1332 H 0.65415 0.5138 0.57738 0.0
H1333 H 0.58863 0.46837 0.47039 0.0
H1334 H 0.6232 0.4721 0.46679 0.0
H1335 H 0.61009 0.44607 0.4855 0.0
H1336 H 0.7089 0.46755 0.47694 0.0
H1337 H 0.67792 0.40672 0.52442 0.0
H1338 H 0.67208 0.51785 0.50278 0.0
H1339 H 0.65556 0.50574 0.47447 0.0
H1340 H 0.6904 0.50844 0.47476 0.0
H1341 H 0.63335 0.44254 0.55873 0.0
H1342 H 0.63882 0.41017 0.54673 0.0
H1343 H 0.61591 0.4305 0.53096 0.0
C1344 C 0.70355 0.25423 0.35385 0.0
C1345 C 0.70856 0.22873 0.36107 0.0
C1346 C 0.70608 0.27501 0.37147 0.0
C1347 C 0.71482 0.2706 0.39694 0.0
C1348 C 0.72001 0.24492 0.40446 0.0
C1349 C 0.71671 0.22427 0.3865 0.0
C1350 C 0.70021 0.30164 0.36194 0.0
C1351 C 0.72921 0.23929 0.43147 0.0
C1352 C 0.74889 0.3256 0.43474 0.0
C1353 C 0.72928 0.33395 0.45118 0.0
C1354 C 0.74423 0.30551 0.41655 0.0
C1355 C 0.71958 0.29283 0.41535 0.0
C1356 C 0.6996 0.30137 0.43179 0.0
C1357 C 0.70475 0.32174 0.44966 0.0
C1358 C 0.76578 0.29766 0.39878 0.0
C1359 C 0.67283 0.28895 0.43047 0.0
H1360 H 0.69794 0.25818 0.33412 0.0
H1361 H 0.72036 0.20464 0.39242 0.0
H1362 H 0.69678 0.31575 0.37778 0.0
H1363 H 0.71682 0.30858 0.35022 0.0
H1364 H 0.68292 0.30081 0.34907 0.0
H1365 H 0.73175 0.21823 0.43453 0.0
H1366 H 0.74797 0.24969 0.43531 0.0
H1367 H 0.71515 0.24652 0.4458 0.0
H1368 H 0.76815 0.33431 0.43659 0.0
H1369 H 0.68968 0.32798 0.46263 0.0
H1370 H 0.7596 0.29988 0.37838 0.0
H1371 H 0.77006 0.27692 0.40153 0.0
H1372 H 0.78383 0.3095 0.40213 0.0
H1373 H 0.66471 0.29098 0.41073 0.0
H1374 H 0.65943 0.29777 0.44457 0.0
H1375 H 0.67384 0.26788 0.4343 0.0
C1376 C 0.52182 0.04948 0.90792 0.0
C1377 C 0.50965 0.02909 0.92141 0.0
C1378 C 0.53639 0.04476 0.88564 0.0
C1379 C 0.53819 0.01909 0.87586 0.0
C1380 C 0.52575 0.99841 0.88903 0.0
C1381 C 0.51202 0.00358 0.91183 0.0
C1382 C 0.54978 0.06737 0.87247 0.0
C1383 C 0.52669 0.97086 0.87886 0.0
C1384 C 0.5556 0.01817 0.8048 0.0
C1385 C 0.58225 0.01419 0.80587 0.0
C1386 C 0.54058 0.0177 0.82731 0.0
C1387 C 0.55277 0.01426 0.85156 0.0
C1388 C 0.57955 0.00907 0.85254 0.0
C1389 C 0.59392 0.00874 0.82956 0.0
C1390 C 0.51196 0.02242 0.82528 0.0
C1391 C 0.59347 0.00603 0.87798 0.0
H1392 H 0.51976 0.06932 0.91457 0.0
H1393 H 0.50327 0.98752 0.92219 0.0
H1394 H 0.57064 0.06354 0.86995 0.0
H1395 H 0.54133 0.06985 0.85295 0.0
H1396 H 0.548 0.08586 0.88353 0.0
H1397 H 0.51546 0.95702 0.891 0.0
H1398 H 0.51882 0.96972 0.85887 0.0
H1399 H 0.54702 0.96463 0.878 0.0
H1400 H 0.54667 0.02257 0.78643 0.0
H1401 H 0.61466 0.0062 0.83038 0.0
H1402 H 0.50799 0.04221 0.83267 0.0
H1403 H 0.5008 0.00844 0.83727 0.0
H1404 H 0.50483 0.02073 0.80502 0.0
H1405 H 0.59442 0.025 0.88842 0.0
H1406 H 0.61351 0.99928 0.87533 0.0
H1407 H 0.5828 0.9921 0.89041 0.0
C1408 C 0.33235 0.27711 0.37237 0.0
C1409 C 0.31202 0.28389 0.35591 0.0
C1410 C 0.32851 0.25867 0.39186 0.0
C1411 C 0.30378 0.24659 0.39488 0.0
C1412 C 0.28328 0.25312 0.3781 0.0
C1413 C 0.28764 0.27168 0.3589 0.0
C1414 C 0.35079 0.25237 0.40942 0.0
C1415 C 0.25664 0.24058 0.3805 0.0
C1416 C 0.29206 0.18289 0.42977 0.0
C1417 C 0.28073 0.19157 0.45268 0.0
C1418 C 0.30121 0.20067 0.41132 0.0
C1419 C 0.29883 0.22767 0.416 0.0
C1420 C 0.28891 0.23642 0.43995 0.0
C1421 C 0.27975 0.21823 0.4579 0.0
C1422 C 0.31155 0.19049 0.38605 0.0
C1423 C 0.28619 0.26497 0.44588 0.0
H1424 H 0.35121 0.28659 0.37029 0.0
H1425 H 0.27196 0.27645 0.34598 0.0
H1426 H 0.34603 0.25766 0.42967 0.0
H1427 H 0.35407 0.2312 0.40884 0.0
H1428 H 0.36903 0.26282 0.40403 0.0
H1429 H 0.24299 0.24728 0.36553 0.0
H1430 H 0.25785 0.21917 0.3788 0.0
H1431 H 0.24856 0.24506 0.39981 0.0
H1432 H 0.29218 0.16223 0.42552 0.0
H1433 H 0.27046 0.22485 0.47544 0.0
H1434 H 0.32972 0.20109 0.38085 0.0
H1435 H 0.29725 0.19369 0.37043 0.0
H1436 H 0.31535 0.16941 0.38674 0.0
H1437 H 0.30438 0.27589 0.44138 0.0
H1438 H 0.28124 0.26865 0.46644 0.0
H1439 H 0.27067 0.27275 0.43357 0.0
C1440 C 0.48563 0.46853 0.93497 0.0
C1441 C 0.51239 0.47411 0.93536 0.0
C1442 C 0.47063 0.47268 0.91274 0.0
C1443 C 0.48256 0.4829 0.89035 0.0
C1444 C 0.50939 0.48924 0.89082 0.0
C1445 C 0.52397 0.48457 0.91316 0.0
C1446 C 0.44212 0.46541 0.91297 0.0
C1447 C 0.52289 0.50019 0.86742 0.0
C1448 C 0.45231 0.46366 0.8257 0.0
C1449 C 0.43812 0.48559 0.81938 0.0
C1450 C 0.46683 0.46272 0.84857 0.0
C1451 C 0.4676 0.48435 0.86569 0.0
C1452 C 0.45397 0.50687 0.85927 0.0
C1453 C 0.43927 0.5072 0.83623 0.0
C1454 C 0.48095 0.43825 0.85463 0.0
C1455 C 0.45463 0.53044 0.87691 0.0
H1456 H 0.47635 0.46091 0.95209 0.0
H1457 H 0.54466 0.48861 0.913 0.0
H1458 H 0.43059 0.48209 0.90687 0.0
H1459 H 0.43807 0.44932 0.89891 0.0
H1460 H 0.43545 0.45918 0.93233 0.0
H1461 H 0.54317 0.50664 0.87174 0.0
H1462 H 0.5231 0.48523 0.8518 0.0
H1463 H 0.51226 0.51691 0.85992 0.0
H1464 H 0.45171 0.44675 0.813 0.0
H1465 H 0.42842 0.52421 0.83163 0.0
H1466 H 0.47372 0.43008 0.87303 0.0
H1467 H 0.50193 0.44274 0.85724 0.0
H1468 H 0.47849 0.42316 0.8392 0.0
H1469 H 0.44595 0.5254 0.8958 0.0
H1470 H 0.44396 0.54681 0.86867 0.0
H1471 H 0.47496 0.53697 0.8807 0.0
C1472 C 0.68846 0.75478 0.15573 0.0
C1473 C 0.6937 0.78149 0.15309 0.0
C1474 C 0.69264 0.73725 0.13521 0.0
C1475 C 0.70266 0.74657 0.11158 0.0
C1476 C 0.70758 0.7735 0.10862 0.0
C1477 C 0.70278 0.79062 0.12927 0.0
C1478 C 0.68672 0.70871 0.13897 0.0
C1479 C 0.71837 0.78422 0.08378 0.0
C1480 C 0.73725 0.69956 0.06706 0.0
C1481 C 0.71839 0.69424 0.04796 0.0
C1482 C 0.73243 0.71657 0.08786 0.0
C1483 C 0.70799 0.72819 0.08987 0.0
C1484 C 0.68878 0.72266 0.07085 0.0
C1485 C 0.69429 0.70602 0.05003 0.0
C1486 C 0.75356 0.72233 0.10754 0.0
C1487 C 0.66235 0.7343 0.07249 0.0
H1488 H 0.68175 0.74743 0.1741 0.0
H1489 H 0.70641 0.81124 0.1268 0.0
H1490 H 0.67332 0.70122 0.1236 0.0
H1491 H 0.70478 0.69771 0.13735 0.0
H1492 H 0.67787 0.70474 0.15807 0.0
H1493 H 0.72139 0.80564 0.08468 0.0
H1494 H 0.73716 0.77528 0.07943 0.0
H1495 H 0.70504 0.77922 0.06747 0.0
H1496 H 0.75595 0.69067 0.0656 0.0
H1497 H 0.67949 0.70203 0.03549 0.0
H1498 H 0.74681 0.71684 0.12707 0.0
H1499 H 0.75827 0.74347 0.10818 0.0
H1500 H 0.77151 0.71181 0.10319 0.0
H1501 H 0.65324 0.72943 0.09123 0.0
H1502 H 0.64924 0.72731 0.05662 0.0
H1503 H 0.6642 0.75576 0.07167 0.0
C1504 C 0.98704 0.02764 0.08859 0.0
C1505 C 0.01398 0.03072 0.09119 0.0
C1506 C 0.97155 0.02039 0.1097 0.0
C1507 C 0.98324 0.01648 0.13411 0.0
C1508 C 0.01042 0.0199 0.13691 0.0
C1509 C 0.02546 0.0268 0.11539 0.0
C1510 C 0.94272 0.0166 0.1058 0.0
C1511 C 0.02362 0.01631 0.16265 0.0
C1512 C 0.94065 0.0197 0.1939 0.0
C1513 C 0.93634 0.99332 0.19936 0.0
C1514 C 0.95599 0.02751 0.17288 0.0
C1515 C 0.9671 0.00852 0.15666 0.0
C1516 C 0.96278 0.98188 0.162 0.0
C1517 C 0.94763 0.97462 0.18333 0.0
C1518 C 0.96037 0.0561 0.16805 0.0
C1519 C 0.97402 0.961 0.14505 0.0
H1520 H 0.97811 0.03041 0.06988 0.0
H1521 H 0.04625 0.02944 0.11756 0.0
H1522 H 0.9367 0.99643 0.11066 0.0
H1523 H 0.93223 0.02974 0.11899 0.0
H1524 H 0.93662 0.0204 0.08563 0.0
H1525 H 0.04483 0.0203 0.16175 0.0
H1526 H 0.01529 0.02943 0.1774 0.0
H1527 H 0.0202 0.99614 0.16927 0.0
H1528 H 0.93215 0.03434 0.20617 0.0
H1529 H 0.94435 0.95419 0.18721 0.0
H1530 H 0.95291 0.06094 0.14863 0.0
H1531 H 0.98141 0.06103 0.16831 0.0
H1532 H 0.95072 0.06845 0.18266 0.0
H1533 H 0.96721 0.9631 0.12484 0.0
H1534 H 0.9686 0.94117 0.1516 0.0
H1535 H 0.99544 0.96312 0.14492 0.0
C1536 C 0.30394 0.72622 0.12227 0.0
C1537 C 0.31438 0.7323 0.14683 0.0
C1538 C 0.29923 0.74563 0.10423 0.0
C1539 C 0.30598 0.77181 0.1104 0.0
C1540 C 0.31791 0.77799 0.13449 0.0
C1541 C 0.32159 0.75828 0.15254 0.0
C1542 C 0.28602 0.73821 0.07897 0.0
C1543 C 0.32602 0.80556 0.14157 0.0
C1544 C 0.30708 0.81871 0.05407 0.0
C1545 C 0.28325 0.8307 0.05699 0.0
C1546 C 0.31522 0.80016 0.07183 0.0
C1547 C 0.29873 0.79283 0.09244 0.0
C1548 C 0.27468 0.80496 0.09542 0.0
C1549 C 0.26743 0.82401 0.07791 0.0
C1550 C 0.34136 0.7883 0.06848 0.0
C1551 C 0.25619 0.79729 0.11667 0.0
H1552 H 0.29895 0.70623 0.1172 0.0
H1553 H 0.32937 0.76349 0.17145 0.0
H1554 H 0.26713 0.74782 0.07772 0.0
H1555 H 0.29787 0.74503 0.06248 0.0
H1556 H 0.28256 0.71692 0.07683 0.0
H1557 H 0.338 0.80669 0.15947 0.0
H1558 H 0.3372 0.81453 0.12561 0.0
H1559 H 0.30861 0.81727 0.14463 0.0
H1560 H 0.31942 0.82396 0.038 0.0
H1561 H 0.24889 0.83306 0.08012 0.0
H1562 H 0.33891 0.76724 0.06412 0.0
H1563 H 0.35271 0.79032 0.0867 0.0
H1564 H 0.35265 0.79744 0.05266 0.0
H1565 H 0.25092 0.77631 0.11481 0.0
H1566 H 0.23815 0.80847 0.11623 0.0
H1567 H 0.26561 0.80038 0.13581 0.0
C1568 C 0.9938 0.46713 0.10683 0.0
C1569 C 0.99432 0.48465 0.08642 0.0
C1570 C 0.00904 0.47177 0.1291 0.0
C1571 C 0.02571 0.49408 0.13057 0.0
C1572 C 0.02635 0.51173 0.10983 0.0
C1573 C 0.01037 0.50695 0.08813 0.0
C1574 C 0.00729 0.45286 0.15104 0.0
C1575 C 0.04424 0.53542 0.11035 0.0
C1576 C 0.05103 0.52111 0.19497 0.0
C1577 C 0.07582 0.51082 0.19613 0.0
C1578 C 0.03418 0.51508 0.17421 0.0
C1579 C 0.04261 0.49899 0.15369 0.0
C1580 C 0.06758 0.48838 0.15486 0.0
C1581 C 0.08374 0.49414 0.17625 0.0
C1582 C 0.00748 0.52619 0.17407 0.0
C1583 C 0.07755 0.47166 0.13311 0.0
H1584 H 0.9813 0.4499 0.10539 0.0
H1585 H 0.01086 0.52032 0.07215 0.0
H1586 H 0.02635 0.44405 0.15421 0.0
H1587 H 1.00223 0.46321 0.16918 0.0
H1588 H 0.99262 0.43705 0.1473 0.0
H1589 H 0.04282 0.54688 0.09242 0.0
H1590 H 0.03962 0.54813 0.12707 0.0
H1591 H 0.06456 0.52949 0.11281 0.0
H1592 H 0.04476 0.53388 0.2104 0.0
H1593 H 0.10299 0.48635 0.17695 0.0
H1594 H 0.99262 0.51044 0.17108 0.0
H1595 H 0.00566 0.53979 0.15781 0.0
H1596 H 1.0032 0.53675 0.19234 0.0
H1597 H 0.0643 0.45464 0.12969 0.0
H1598 H 0.09726 0.46463 0.13713 0.0
H1599 H 0.07812 0.4829 0.11499 0.0
C1600 C 0.38293 0.70535 0.22132 0.0
C1601 C 0.35758 0.69607 0.22604 0.0
C1602 C 0.40104 0.70887 0.2416 0.0
C1603 C 0.39386 0.7026 0.2672 0.0
C1604 C 0.36875 0.69209 0.27181 0.0
C1605 C 0.35087 0.68952 0.25142 0.0
C1606 C 0.42773 0.7198 0.23572 0.0
C1607 C 0.35982 0.6846 0.29836 0.0
C1608 C 0.4467 0.69678 0.31852 0.0
C1609 C 0.44661 0.72139 0.33036 0.0
C1610 C 0.42944 0.69021 0.29813 0.0
C1611 C 0.4119 0.7088 0.28927 0.0
C1612 C 0.41158 0.73354 0.30148 0.0
C1613 C 0.42924 0.73966 0.32152 0.0
C1614 C 0.42994 0.66343 0.28606 0.0
C1615 C 0.39273 0.75368 0.29323 0.0
H1616 H 0.38862 0.71002 0.20179 0.0
H1617 H 0.33128 0.68298 0.25574 0.0
H1618 H 0.43064 0.73895 0.24555 0.0
H1619 H 0.44267 0.70684 0.2433 0.0
H1620 H 0.43084 0.7223 0.21467 0.0
H1621 H 0.34657 0.66725 0.29734 0.0
H1622 H 0.37607 0.68046 0.31153 0.0
H1623 H 0.3487 0.70079 0.30647 0.0
H1624 H 0.46041 0.68276 0.32508 0.0
H1625 H 0.42989 0.75907 0.32986 0.0
H1626 H 0.43385 0.66486 0.26506 0.0
H1627 H 0.4107 0.65356 0.28817 0.0
H1628 H 0.44484 0.65125 0.29499 0.0
H1629 H 0.39559 0.75822 0.27254 0.0
H1630 H 0.39488 0.77195 0.30478 0.0
H1631 H 0.37262 0.74588 0.29534 0.0
C1632 C 0.00408 0.42271 0.00464 0.0
C1633 C 0.97838 0.4309 0.00614 0.0
C1634 C 0.01045 0.40026 0.99059 0.0
C1635 C 0.99085 0.38595 0.97697 0.0
C1636 C 0.96511 0.39468 0.97741 0.0
C1637 C 0.95914 0.41677 0.99221 0.0
C1638 C 0.03804 0.39142 0.99097 0.0
C1639 C 0.94367 0.38027 0.96273 0.0
C1640 C 0.00631 0.33725 0.92356 0.0
C1641 C 1.00041 0.31372 0.93568 0.0
C1642 C 0.0043 0.36103 0.93702 0.0
C1643 C 0.99679 0.36112 0.96333 0.0
C1644 C 0.99276 0.33722 0.97607 0.0
C1645 C 0.99415 0.31383 0.96196 0.0
C1646 C 0.00821 0.386 0.92252 0.0
C1647 C 0.98548 0.33634 0.00426 0.0
H1648 H 0.01933 0.43372 0.01467 0.0
H1649 H 0.93918 0.4225 0.99337 0.0
H1650 H 0.03881 0.37207 1.00001 0.0
H1651 H 0.04536 0.38928 0.97097 0.0
H1652 H 0.0512 0.40511 1.00186 0.0
H1653 H 0.92523 0.3908 0.96315 0.0
H1654 H 0.94934 0.37719 0.94229 0.0
H1655 H 0.94023 0.36086 0.97123 0.0
H1656 H 0.01053 0.33717 0.90306 0.0
H1657 H 0.98931 0.29561 0.97122 0.0
H1658 H 0.02085 0.39991 0.93366 0.0
H1659 H 0.98924 0.3952 0.91989 0.0
H1660 H 0.01686 0.38276 0.90319 0.0
H1661 H 0.9986 0.34937 0.01591 0.0
H1662 H 0.98627 0.31641 0.01204 0.0
H1663 H 0.96553 0.3433 0.00672 0.0
C1664 C 0.63907 0.82983 0.24907 0.0
C1665 C 0.64918 0.80867 0.2354 0.0
C1666 C 0.61978 0.82621 0.26785 0.0
C1667 C 0.60985 0.8009 0.27277 0.0
C1668 C 0.61964 0.77951 0.25883 0.0
C1669 C 0.63932 0.78361 0.2406 0.0
C1670 C 0.61015 0.84948 0.28257 0.0
C1671 C 0.60942 0.7522 0.26326 0.0
C1672 C 0.57727 0.78331 0.33613 0.0
C1673 C 0.55099 0.7831 0.32922 0.0
C1674 C 0.59657 0.79025 0.31829 0.0
C1675 C 0.58947 0.79654 0.29271 0.0
C1676 C 0.56291 0.79707 0.28585 0.0
C1677 C 0.54398 0.79062 0.30428 0.0
C1678 C 0.62462 0.79003 0.32659 0.0
C1679 C 0.55451 0.80323 0.2587 0.0
H1680 H 0.64614 0.84932 0.24503 0.0
H1681 H 0.64724 0.767 0.2307 0.0
H1682 H 0.58906 0.8513 0.27931 0.0
H1683 H 0.61313 0.84687 0.30361 0.0
H1684 H 0.62015 0.86784 0.27679 0.0
H1685 H 0.6182 0.73784 0.24999 0.0
H1686 H 0.61346 0.74656 0.28344 0.0
H1687 H 0.5881 0.75121 0.26051 0.0
H1688 H 0.5828 0.77764 0.35543 0.0
H1689 H 0.52371 0.79029 0.29876 0.0
H1690 H 0.63464 0.80855 0.32145 0.0
H1691 H 0.63452 0.77419 0.31625 0.0
H1692 H 0.62681 0.78712 0.34771 0.0
H1693 H 0.56344 0.82196 0.2526 0.0
H1694 H 0.53315 0.8043 0.25684 0.0
H1695 H 0.56127 0.78802 0.24515 0.0
C1696 C 0.00968 0.0865 1.00002 0.0
C1697 C 0.03226 0.08757 0.01511 0.0
C1698 C 1.00323 0.10731 0.98419 0.0
C1699 C 0.0194 0.13001 0.98405 0.0
C1700 C 0.04207 0.13125 0.99962 0.0
C1701 C 0.04841 0.10985 0.01469 0.0
C1702 C 0.97926 0.10491 0.96743 0.0
C1703 C 0.05948 0.15527 1.00056 0.0
C1704 C 0.01639 0.17608 0.92724 0.0
C1705 C 0.99945 0.19484 0.93642 0.0
C1706 C 0.02279 0.15474 0.94239 0.0
C1707 C 0.01259 0.15246 0.96764 0.0
C1708 C 0.99585 0.17161 0.97717 0.0
C1709 C 0.98919 0.19234 0.96132 0.0
C1710 C 0.04016 0.13443 0.93122 0.0
C1711 C 0.98509 0.1703 0.00419 0.0
H1712 H 0.9973 0.06916 1.00032 0.0
H1713 H 0.06581 0.11065 0.02651 0.0
H1714 H 0.96555 0.12019 0.97284 0.0
H1715 H 0.98448 0.10787 0.94689 0.0
H1716 H 0.96921 0.08568 0.96914 0.0
H1717 H 0.07594 0.15342 0.01423 0.0
H1718 H 0.06733 0.15923 0.98107 0.0
H1719 H 0.0482 0.17233 0.00648 0.0
H1720 H 0.02417 0.17774 0.90791 0.0
H1721 H 0.97621 0.20686 0.96859 0.0
H1722 H 0.03009 0.11513 0.93144 0.0
H1723 H 0.05788 0.1331 0.94324 0.0
H1724 H 0.04598 0.13871 0.91107 0.0
H1725 H 0.97305 0.15232 0.00633 0.0
H1726 H 0.9731 0.18721 0.00904 0.0
H1727 H 1.00117 0.16953 0.01844 0.0
C1728 C 0.35987 0.31935 0.25461 0.0
C1729 C 0.36402 0.31768 0.28135 0.0
C1730 C 0.37933 0.31307 0.23694 0.0
C1731 C 0.40355 0.30487 0.24619 0.0
C1732 C 0.40845 0.30488 0.27315 0.0
C1733 C 0.38862 0.31123 0.29039 0.0
C1734 C 0.37321 0.31328 0.20839 0.0
C1735 C 0.43403 0.29643 0.28386 0.0
C1736 C 0.43565 0.25262 0.20662 0.0
C1737 C 0.4556 0.26641 0.19393 0.0
C1738 C 0.4188 0.265 0.22352 0.0
C1739 C 0.42177 0.29202 0.22813 0.0
C1740 C 0.44176 0.30624 0.21546 0.0
C1741 C 0.45845 0.29327 0.19843 0.0
C1742 C 0.39771 0.24901 0.23644 0.0
C1743 C 0.44549 0.33509 0.21995 0.0
H1744 H 0.3409 0.32414 0.2474 0.0
H1745 H 0.39213 0.31035 0.31102 0.0
H1746 H 0.38945 0.32233 0.19751 0.0
H1747 H 0.37051 0.29302 0.20112 0.0
H1748 H 0.35529 0.32388 0.2042 0.0
H1749 H 0.43621 0.30127 0.30475 0.0
H1750 H 0.43545 0.27511 0.28129 0.0
H1751 H 0.45036 0.30567 0.27325 0.0
H1752 H 0.43296 0.23192 0.20329 0.0
H1753 H 0.47372 0.30413 0.18875 0.0
H1754 H 0.37846 0.25653 0.23138 0.0
H1755 H 0.39988 0.25057 0.25775 0.0
H1756 H 0.39799 0.22817 0.23072 0.0
H1757 H 0.42763 0.34513 0.21445 0.0
H1758 H 0.46194 0.34336 0.20873 0.0
H1759 H 0.44903 0.33925 0.24078 0.0
C1760 C 0.53414 0.39477 1.00208 0.0
C1761 C 0.53314 0.4199 0.01261 0.0
C1762 C 0.53001 0.37287 0.01759 0.0
C1763 C 0.52407 0.37623 0.04412 0.0
C1764 C 0.52228 0.40166 0.05461 0.0
C1765 C 0.5272 0.42317 0.03881 0.0
C1766 C 0.53273 0.34616 0.00575 0.0
C1767 C 0.51541 0.40615 0.0826 0.0
C1768 C 0.4944 0.3183 0.07971 0.0
C1769 C 0.51576 0.30961 0.09361 0.0
C1770 C 0.49667 0.34019 0.06381 0.0
C1771 C 0.52104 0.35322 0.06119 0.0
C1772 C 0.54269 0.34428 0.07498 0.0
C1773 C 0.53971 0.32285 0.09125 0.0
C1774 C 0.47297 0.34948 0.04997 0.0
C1775 C 0.56915 0.35716 0.07232 0.0
H1776 H 0.53886 0.39227 0.98182 0.0
H1777 H 0.5262 0.44265 0.04689 0.0
H1778 H 0.54859 0.33605 0.01561 0.0
H1779 H 0.51471 0.33436 0.00853 0.0
H1780 H 0.537 0.34684 0.98476 0.0
H1781 H 0.51294 0.42702 0.08728 0.0
H1782 H 0.49721 0.3953 0.08727 0.0
H1783 H 0.53083 0.39872 0.09524 0.0
H1784 H 0.47583 0.30819 0.08153 0.0
H1785 H 0.55636 0.31609 0.10174 0.0
H1786 H 0.47598 0.34866 0.02878 0.0
H1787 H 0.46968 0.37004 0.05533 0.0
H1788 H 0.45531 0.33771 0.05461 0.0
H1789 H 0.57498 0.3571 0.05171 0.0
H1790 H 0.58417 0.34735 0.08372 0.0
H1791 H 0.5686 0.37772 0.07884 0.0
C1792 C 0.6644 0.18606 0.25853 0.0
C1793 C 0.66028 0.19037 0.28502 0.0
C1794 C 0.64446 0.18929 0.24035 0.0
C1795 C 0.61992 0.19742 0.2488 0.0
C1796 C 0.61554 0.20146 0.2755 0.0
C1797 C 0.63562 0.1976 0.29325 0.0
C1798 C 0.64975 0.18437 0.21208 0.0
C1799 C 0.58972 0.21029 0.28531 0.0
C1800 C 0.5756 0.2308 0.2015 0.0
C1801 C 0.55718 0.21101 0.19566 0.0
C1802 C 0.59622 0.2266 0.21863 0.0
C1803 C 0.59879 0.20188 0.2298 0.0
C1804 C 0.58057 0.1817 0.22358 0.0
C1805 C 0.55987 0.18657 0.20685 0.0
C1806 C 0.61497 0.24877 0.22515 0.0
C1807 C 0.58287 0.15495 0.23472 0.0
H1808 H 0.6834 0.18077 0.25188 0.0
H1809 H 0.63202 0.20046 0.31368 0.0
H1810 H 0.63525 0.17016 0.20394 0.0
H1811 H 0.64789 0.20262 0.20123 0.0
H1812 H 0.66941 0.17687 0.20878 0.0
H1813 H 0.58955 0.21286 0.30666 0.0
H1814 H 0.58492 0.22899 0.27638 0.0
H1815 H 0.57422 0.19595 0.27968 0.0
H1816 H 0.57365 0.24976 0.19306 0.0
H1817 H 0.54586 0.17108 0.2024 0.0
H1818 H 0.635 0.24327 0.22041 0.0
H1819 H 0.61447 0.25309 0.2462 0.0
H1820 H 0.6105 0.26671 0.21458 0.0
H1821 H 0.60229 0.14733 0.23055 0.0
H1822 H 0.56795 0.14099 0.22683 0.0
H1823 H 0.58086 0.15596 0.25603 0.0
C1824 C 0.49995 0.1075 0.99395 0.0
C1825 C 0.49575 0.08204 1.00243 0.0
C1826 C 0.50502 0.12797 0.01175 0.0
C1827 C 0.50608 0.12273 0.03856 0.0
C1828 C 0.50353 0.09672 0.04682 0.0
C1829 C 0.49808 0.07682 0.02875 0.0
C1830 C 0.50841 0.15527 1.00196 0.0
C1831 C 0.50494 0.08967 0.07483 0.0
C1832 C 0.53365 0.17387 0.08606 0.0
C1833 C 0.51116 0.18571 0.09472 0.0
C1834 C 0.53237 0.15339 0.06777 0.0
C1835 C 0.50799 0.1445 0.05797 0.0
C1836 C 0.48523 0.15644 0.06674 0.0
C1837 C 0.48717 0.17727 0.08454 0.0
C1838 C 0.55708 0.14133 0.05883 0.0
C1839 C 0.45881 0.14729 0.05722 0.0
H1840 H 0.49826 0.11152 0.97352 0.0
H1841 H 0.49518 0.05706 0.03529 0.0
H1842 H 0.49188 0.167 0.0083 0.0
H1843 H 0.52627 0.16461 0.01025 0.0
H1844 H 0.5095 0.1558 0.98055 0.0
H1845 H 0.51822 0.10296 0.08592 0.0
H1846 H 0.48522 0.09081 0.08291 0.0
H1847 H 0.51139 0.06949 0.07726 0.0
H1848 H 0.5523 0.18079 0.09348 0.0
H1849 H 0.46991 0.18727 0.0902 0.0
H1850 H 0.55862 0.14255 0.03751 0.0
H1851 H 0.55683 0.12046 0.06376 0.0
H1852 H 0.57454 0.15093 0.06775 0.0
H1853 H 0.4575 0.14936 0.03596 0.0
H1854 H 0.443 0.15831 0.06628 0.0
H1855 H 0.45576 0.12639 0.06148 0.0
C1856 C 0.22548 0.38929 0.71139 0.0
C1857 C 0.23065 0.36499 0.70024 0.0
C1858 C 0.24544 0.40813 0.71559 0.0
C1859 C 0.27112 0.40267 0.70824 0.0
C1860 C 0.27608 0.37882 0.69568 0.0
C1861 C 0.25607 0.36018 0.69241 0.0
C1862 C 0.23917 0.43362 0.72845 0.0
C1863 C 0.30278 0.37195 0.68694 0.0
C1864 C 0.32347 0.45636 0.70575 0.0
C1865 C 0.33546 0.45405 0.72992 0.0
C1866 C 0.30234 0.43995 0.69843 0.0
C1867 C 0.29311 0.42075 0.71568 0.0
C1868 C 0.30528 0.41837 0.74008 0.0
C1869 C 0.32587 0.43543 0.74709 0.0
C1870 C 0.28991 0.44312 0.67227 0.0
C1871 C 0.29651 0.39783 0.75885 0.0
H1872 H 0.2059 0.39356 0.71708 0.0
H1873 H 0.26075 0.34137 0.68439 0.0
H1874 H 0.24695 0.45003 0.71692 0.0
H1875 H 0.21801 0.43585 0.73091 0.0
H1876 H 0.24858 0.435 0.74776 0.0
H1877 H 0.30197 0.35788 0.67047 0.0
H1878 H 0.31444 0.38925 0.68114 0.0
H1879 H 0.31266 0.36262 0.70318 0.0
H1880 H 0.33047 0.47118 0.69267 0.0
H1881 H 0.33415 0.43454 0.76631 0.0
H1882 H 0.2689 0.44636 0.67452 0.0
H1883 H 0.29185 0.42508 0.66058 0.0
H1884 H 0.29873 0.45958 0.66149 0.0
H1885 H 0.27582 0.4002 0.76366 0.0
H1886 H 0.30798 0.39858 0.77706 0.0
H1887 H 0.29828 0.37832 0.74979 0.0
C1888 C 0.25656 0.644 0.83448 0.0
C1889 C 0.2433 0.6532 0.81282 0.0
C1890 C 0.27538 0.62497 0.83193 0.0
C1891 C 0.28081 0.61444 0.8072 0.0
C1892 C 0.26728 0.62332 0.78533 0.0
C1893 C 0.24896 0.64272 0.78836 0.0
C1894 C 0.28961 0.61628 0.85568 0.0
C1895 C 0.27227 0.61244 0.75862 0.0
C1896 C 0.34453 0.58256 0.79184 0.0
C1897 C 0.33743 0.55612 0.79249 0.0
C1898 C 0.32661 0.60173 0.79777 0.0
C1899 C 0.3008 0.59431 0.80398 0.0
C1900 C 0.29377 0.56761 0.80547 0.0
C1901 C 0.31223 0.54884 0.79996 0.0
C1902 C 0.33508 0.62996 0.7965 0.0
C1903 C 0.26639 0.55885 0.81163 0.0
H1904 H 0.25215 0.65156 0.85354 0.0
H1905 H 0.23934 0.64994 0.77138 0.0
H1906 H 0.28626 0.59514 0.85833 0.0
H1907 H 0.31075 0.61966 0.85324 0.0
H1908 H 0.28344 0.62665 0.87347 0.0
H1909 H 0.25936 0.62061 0.74377 0.0
H1910 H 0.29265 0.61669 0.75311 0.0
H1911 H 0.26939 0.59102 0.75848 0.0
H1912 H 0.364 0.58832 0.78618 0.0
H1913 H 0.30655 0.52844 0.8003 0.0
H1914 H 0.32954 0.6404 0.81444 0.0
H1915 H 0.32513 0.63924 0.78016 0.0
H1916 H 0.35631 0.63248 0.79382 0.0
H1917 H 0.2599 0.56823 0.82979 0.0
H1918 H 0.26442 0.53746 0.81364 0.0
H1919 H 0.25318 0.56487 0.79599 0.0
C1920 C 0.91392 0.51785 0.49943 0.0
C1921 C 0.93534 0.50606 0.48805 0.0
C1922 C 0.89087 0.50371 0.50418 0.0
C1923 C 0.88881 0.47719 0.49684 0.0
C1924 C 0.9106 0.46486 0.48633 0.0
C1925 C 0.93363 0.47937 0.48223 0.0
C1926 C 0.86821 0.5176 0.51565 0.0
C1927 C 0.90914 0.43665 0.47803 0.0
C1928 C 0.83028 0.43492 0.51615 0.0
C1929 C 0.81467 0.43618 0.49394 0.0
C1930 C 0.85431 0.44856 0.51774 0.0
C1931 C 0.86297 0.46353 0.49654 0.0
C1932 C 0.84699 0.46539 0.47444 0.0
C1933 C 0.8231 0.45193 0.47351 0.0
C1934 C 0.87067 0.44653 0.54181 0.0
C1935 C 0.8554 0.48108 0.45134 0.0
H1936 H 0.91469 0.5385 0.5037 0.0
H1937 H 0.95014 0.46989 0.47394 0.0
H1938 H 0.85344 0.5205 0.50041 0.0
H1939 H 0.85892 0.5058 0.53096 0.0
H1940 H 0.87407 0.53688 0.52399 0.0
H1941 H 0.92839 0.42926 0.47268 0.0
H1942 H 0.90097 0.42454 0.4937 0.0
H1943 H 0.896 0.43424 0.46108 0.0
H1944 H 0.82405 0.42282 0.53203 0.0
H1945 H 0.81128 0.4533 0.45624 0.0
H1946 H 0.87624 0.46618 0.54935 0.0
H1947 H 0.88882 0.43655 0.53712 0.0
H1948 H 0.86047 0.43563 0.55726 0.0
H1949 H 0.85925 0.50161 0.45722 0.0
H1950 H 0.84065 0.48054 0.43564 0.0
H1951 H 0.87369 0.47353 0.44349 0.0
C1952 C 0.78737 0.88869 0.79571 0.0
C1953 C 0.77984 0.86476 0.80647 0.0
C1954 C 0.76911 0.90737 0.78971 0.0
C1955 C 0.74265 0.90253 0.79537 0.0
C1956 C 0.73497 0.87895 0.80713 0.0
C1957 C 0.75352 0.86023 0.81212 0.0
C1958 C 0.77806 0.93204 0.77669 0.0
C1959 C 0.70705 0.87327 0.81404 0.0
C1960 C 0.69931 0.96113 0.79666 0.0
C1961 C 0.68664 0.9586 0.77269 0.0
C1962 C 0.71706 0.94264 0.80464 0.0
C1963 C 0.7229 0.92164 0.78789 0.0
C1964 C 0.71019 0.91912 0.76362 0.0
C1965 C 0.69194 0.9374 0.75651 0.0
C1966 C 0.72957 0.94556 0.83099 0.0
C1967 C 0.71632 0.89745 0.74488 0.0
H1968 H 0.80762 0.89287 0.7918 0.0
H1969 H 0.74717 0.84177 0.81996 0.0
H1970 H 0.76811 0.93365 0.75775 0.0
H1971 H 0.77286 0.94916 0.78858 0.0
H1972 H 0.7993 0.93283 0.77346 0.0
H1973 H 0.70463 0.85521 0.82532 0.0
H1974 H 0.6993 0.88964 0.82548 0.0
H1975 H 0.69518 0.87117 0.79617 0.0
H1976 H 0.69513 0.97743 0.80927 0.0
H1977 H 0.68237 0.93551 0.73786 0.0
H1978 H 0.75078 0.94859 0.82897 0.0
H1979 H 0.72633 0.92753 0.8421 0.0
H1980 H 0.72189 0.96212 0.84226 0.0
H1981 H 0.73725 0.89832 0.74016 0.0
H1982 H 0.70502 0.89845 0.72662 0.0
H1983 H 0.71216 0.87838 0.75381 0.0
C1984 C 0.58048 0.52813 0.99535 0.0
C1985 C 0.58511 0.50153 0.99499 0.0
C1986 C 0.60072 0.54654 0.99891 0.0
C1987 C 0.62646 0.5383 1.00178 0.0
C1988 C 0.63112 0.51134 1.00265 0.0
C1989 C 0.61036 0.49326 0.9993 0.0
C1990 C 0.59441 0.57476 0.99798 0.0
C1991 C 0.65812 0.50161 0.00631 0.0
C1992 C 0.68266 0.58234 0.98029 0.0
C1993 C 0.69112 0.59367 0.00371 0.0
C1994 C 0.66122 0.56488 0.97932 0.0
C1995 C 0.64858 0.55772 1.0025 0.0
C1996 C 0.65732 0.5689 0.02627 0.0
C1997 C 0.67849 0.58671 0.02658 0.0
C1998 C 0.65229 0.55387 0.9535 0.0
C1999 C 0.64447 0.56182 0.05141 0.0
H2000 H 0.56093 0.53462 0.99235 0.0
H2001 H 0.61403 0.47266 0.99902 0.0
H2002 H 0.60696 0.58662 0.01128 0.0
H2003 H 0.59755 0.58138 0.97796 0.0
H2004 H 0.57388 0.57802 0.00298 0.0
H2005 H 0.65826 0.48022 0.00858 0.0
H2006 H 0.67015 0.50685 0.98937 0.0
H2007 H 0.66736 0.51101 0.02358 0.0
H2008 H 0.69314 0.58675 0.96276 0.0
H2009 H 0.68536 0.59506 0.04479 0.0
H2010 H 0.63159 0.55809 0.95036 0.0
H2011 H 0.65395 0.53247 0.95324 0.0
H2012 H 0.66371 0.56196 0.93722 0.0
H2013 H 0.62372 0.56671 0.05071 0.0
H2014 H 0.65369 0.57205 0.06827 0.0
H2015 H 0.64536 0.54058 0.05435 0.0
C2016 C 0.25058 0.66034 0.18689 0.0
C2017 C 0.27639 0.65323 0.19015 0.0
C2018 C 0.22997 0.64262 0.19118 0.0
C2019 C 0.23512 0.61728 0.19957 0.0
C2020 C 0.26112 0.60969 0.20213 0.0
C2021 C 0.28141 0.62768 0.19726 0.0
C2022 C 0.2027 0.65153 0.18786 0.0
C2023 C 0.26753 0.58273 0.21066 0.0
C2024 C 0.18687 0.57938 0.24067 0.0
C2025 C 0.17579 0.56181 0.22264 0.0
C2026 C 0.20528 0.59833 0.23316 0.0
C2027 C 0.2135 0.59912 0.2071 0.0
C2028 C 0.20215 0.58152 0.18874 0.0
C2029 C 0.18349 0.56299 0.19677 0.0
C2030 C 0.21656 0.61694 0.2533 0.0
C2031 C 0.21036 0.58167 0.16082 0.0
H2032 H 0.24636 0.68009 0.18181 0.0
H2033 H 0.30125 0.62178 0.19933 0.0
H2034 H 0.19437 0.65491 0.20721 0.0
H2035 H 0.2019 0.66987 0.17693 0.0
H2036 H 0.19051 0.63647 0.17775 0.0
H2037 H 0.28867 0.5794 0.21032 0.0
H2038 H 0.26044 0.57964 0.2306 0.0
H2039 H 0.25759 0.56799 0.19798 0.0
H2040 H 0.18175 0.57776 0.26087 0.0
H2041 H 0.17526 0.54904 0.18292 0.0
H2042 H 0.21427 0.63723 0.24702 0.0
H2043 H 0.23759 0.61383 0.25555 0.0
H2044 H 0.20719 0.61458 0.27242 0.0
H2045 H 0.2088 0.60142 0.15285 0.0
H2046 H 0.19852 0.56786 0.14866 0.0
H2047 H 0.23096 0.57636 0.1594 0.0
C2048 C 0.9021 0.50957 0.04464 0.0
C2049 C 0.92215 0.50707 0.02674 0.0
C2050 C 0.8809 0.52522 0.03958 0.0
C2051 C 0.87999 0.53927 0.01629 0.0
C2052 C 0.90022 0.53678 0.9981 0.0
C2053 C 0.92091 0.52044 0.00341 0.0
C2054 C 0.85953 0.52681 0.05926 0.0
C2055 C 0.90031 0.55183 0.97332 0.0
C2056 C 0.81462 0.56461 0.99516 0.0
C2057 C 0.81548 0.58982 0.00576 0.0
C2058 C 0.83558 0.54803 0.99812 0.0
C2059 C 0.8582 0.55709 0.01146 0.0
C2060 C 0.85947 0.58287 0.02135 0.0
C2061 C 0.83801 0.59878 0.01869 0.0
C2062 C 0.83315 0.52053 0.98778 0.0
C2063 C 0.88339 0.59355 0.03516 0.0
H2064 H 0.90293 0.49904 0.06259 0.0
H2065 H 0.93649 0.51863 0.98962 0.0
H2066 H 0.85853 0.54694 0.06697 0.0
H2067 H 0.84058 0.52183 0.05 0.0
H2068 H 0.86243 0.51357 0.0757 0.0
H2069 H 0.91728 0.54753 0.96106 0.0
H2070 H 0.8824 0.54725 0.96206 0.0
H2071 H 0.90058 0.57295 0.97781 0.0
H2072 H 0.79721 0.55752 0.98529 0.0
H2073 H 0.83886 0.61831 0.02677 0.0
H2074 H 0.8342 0.50677 0.004 0.0
H2075 H 0.84947 0.51641 0.97466 0.0
H2076 H 0.81468 0.51672 0.97712 0.0
H2077 H 0.88629 0.58291 0.05337 0.0
H2078 H 0.88209 0.61455 0.03992 0.0
H2079 H 0.90074 0.59065 0.02305 0.0
C2080 C 0.08823 0.9951 0.01629 0.0
C2081 C 0.09066 0.01482 0.03508 0.0
C2082 C 0.10931 0.97966 0.00999 0.0
C2083 C 0.13345 0.9843 0.02261 0.0
C2084 C 0.13594 0.00437 0.04158 0.0
C2085 C 0.11441 0.01931 0.04771 0.0
C2086 C 0.10573 0.95833 0.98987 0.0
C2087 C 0.16137 0.01015 0.05526 0.0
C2088 C 0.18211 0.93013 0.02217 0.0
C2089 C 0.19819 0.93716 1.00149 0.0
C2090 C 0.16106 0.94531 0.02932 0.0
C2091 C 0.15612 0.96831 0.01573 0.0
C2092 C 0.17252 0.97575 0.99514 0.0
C2093 C 0.1932 0.96003 0.98817 0.0
C2094 C 0.14384 0.93651 0.05116 0.0
C2095 C 0.16816 1.00029 0.98036 0.0
H2096 H 0.06972 0.99168 0.00667 0.0
H2097 H 0.11612 0.03462 0.06227 0.0
H2098 H 0.11907 0.96185 0.9735 0.0
H2099 H 0.11065 0.9394 0.99826 0.0
H2100 H 0.08559 0.95688 0.98226 0.0
H2101 H 0.16014 0.0265 0.06938 0.0
H2102 H 0.16764 0.99271 0.06562 0.0
H2103 H 0.17656 0.01505 0.04094 0.0
H2104 H 0.18568 0.91245 0.03252 0.0
H2105 H 0.20555 0.96578 0.97227 0.0
H2106 H 0.12373 0.93325 0.04396 0.0
H2107 H 0.14332 0.95183 0.06641 0.0
H2108 H 0.15043 0.91831 0.05998 0.0
H2109 H 0.14894 0.99909 0.97069 0.0
H2110 H 0.1832 0.00386 0.96548 0.0
H2111 H 0.16811 0.01721 0.99386 0.0
loop_
_geom_bond_atom_site_label_1
_geom_bond_atom_site_label_2
_geom_bond_distance
_geom_bond_site_symmetry_2
_ccdc_geom_bond_type
H0 C3 0.931 . S
H1 C6 0.928 . S
H2 C8 0.918 1_556 S
C3 H0 0.931 . S
C3 C4 1.413 . S
C3 C5 1.360 . S
C4 C3 1.413 . S
C4 C8 1.429 . S
C5 C3 1.360 . S
C5 C6 1.372 . S
C6 H1 0.928 . S
C6 C5 1.372 . S
C6 C7 1.404 . S
C7 C6 1.404 . S
C7 C8 1.391 . S
C8 H2 0.918 1_554 S
C8 C4 1.429 . S
C8 C7 1.391 . S
H9 C12 0.931 . S
H10 C15 0.928 . S
H11 C17 0.930 . S
C12 H9 0.931 . S
C12 C13 1.413 . S
C12 C14 1.360 . S
C13 C12 1.413 . S
C13 C17 1.429 . S
C14 C12 1.360 . S
C14 C15 1.372 . S
C15 H10 0.928 . S
C15 C14 1.372 . S
C15 C16 1.404 . S
C16 C15 1.404 . S
C16 C17 1.391 . S
C17 H11 0.930 . S
C17 C13 1.429 . S
C17 C16 1.391 . S
H18 C21 0.931 . S
H19 C24 0.928 1_455 S
H20 C26 0.910 1_556 S
C21 H18 0.931 . S
C21 C22 1.413 . S
C21 C23 1.360 . S
C22 C21 1.413 . S
C22 C26 1.429 . S
C23 C21 1.360 . S
C23 C24 1.372 . S
C24 H19 0.928 1_655 S
C24 C23 1.372 . S
C24 C25 1.404 . S
C25 C24 1.404 . S
C25 C26 1.391 . S
C26 H20 0.910 1_554 S
C26 C22 1.429 . S
C26 C25 1.391 . S
H27 C30 0.931 . S
H28 C33 0.928 . S
H29 C35 0.930 . S
C30 H27 0.931 . S
C30 C31 1.413 . S
C30 C32 1.360 . S
C31 C30 1.413 . S
C31 C35 1.429 . S
C32 C30 1.360 . S
C32 C33 1.372 . S
C33 H28 0.928 . S
C33 C32 1.372 . S
C33 C34 1.404 . S
C34 C33 1.404 . S
C34 C35 1.391 . S
C35 H29 0.930 . S
C35 C31 1.429 . S
C35 C34 1.391 . S
H36 C39 0.931 . S
H37 C42 0.928 1_545 S
H38 C44 0.930 . S
C39 H36 0.931 . S
C39 C40 1.413 . S
C39 C41 1.360 . S
C40 C39 1.413 . S
C40 C44 1.429 . S
C41 C39 1.360 . S
C41 C42 1.372 . S
C42 H37 0.928 1_565 S
C42 C41 1.372 . S
C42 C43 1.404 . S
C43 C42 1.404 . S
C43 C44 1.391 . S
C44 H38 0.930 . S
C44 C40 1.429 . S
C44 C43 1.391 . S
H45 C48 0.931 . S
H46 C51 0.928 . S
H47 C53 0.930 . S
C48 H45 0.931 . S
C48 C49 1.413 . S
C48 C50 1.360 . S
C49 C48 1.413 . S
C49 C53 1.429 . S
C50 C48 1.360 . S
C50 C51 1.372 . S
C51 H46 0.928 . S
C51 C50 1.372 . S
C51 C52 1.404 . S
C52 C51 1.404 . S
C52 C53 1.391 . S
C53 H47 0.930 . S
C53 C49 1.429 . S
C53 C52 1.391 . S
H54 C57 0.931 . S
H55 C60 0.928 1_455 S
H56 C62 0.930 . S
C57 H54 0.931 . S
C57 C58 1.413 . S
C57 C59 1.360 . S
C58 C57 1.413 . S
C58 C62 1.429 . S
C59 C57 1.360 . S
C59 C60 1.372 . S
C60 H55 0.928 1_655 S
C60 C59 1.372 . S
C60 C61 1.404 . S
C61 C60 1.404 . S
C61 C62 1.391 . S
C62 H56 0.930 . S
C62 C58 1.429 . S
C62 C61 1.391 . S
H63 C66 0.931 . S
H64 C69 0.928 . S
H65 C71 0.930 . S
C66 H63 0.931 . S
C66 C67 1.413 . S
C66 C68 1.360 . S
C67 C66 1.413 . S
C67 C71 1.429 . S
C68 C66 1.360 . S
C68 C69 1.372 . S
C69 H64 0.928 . S
C69 C68 1.372 . S
C69 C70 1.404 . S
C70 C69 1.404 . S
C70 C71 1.391 . S
C71 H65 0.930 . S
C71 C67 1.429 . S
C71 C70 1.391 . S
H72 C75 0.931 . S
H73 C78 0.928 . S
H74 C80 0.930 . S
C75 H72 0.931 . S
C75 C76 1.413 . S
C75 C77 1.360 . S
C76 C75 1.413 . S
C76 C80 1.429 . S
C77 C75 1.360 . S
C77 C78 1.372 . S
C78 H73 0.928 . S
C78 C77 1.372 . S
C78 C79 1.404 . S
C79 C78 1.404 . S
C79 C80 1.391 . S
C80 H74 0.930 . S
C80 C76 1.429 . S
C80 C79 1.391 . S
H81 C84 0.931 1_545 S
H82 C87 0.928 . S
H83 C89 0.930 . S
C84 H81 0.931 1_565 S
C84 C85 1.413 . S
C84 C86 1.360 . S
C85 C84 1.413 . S
C85 C89 1.429 . S
C86 C84 1.360 . S
C86 C87 1.372 . S
C87 H82 0.928 . S
C87 C86 1.372 . S
C87 C88 1.404 . S
C88 C87 1.404 . S
C88 C89 1.391 . S
C89 H83 0.930 . S
C89 C85 1.429 . S
C89 C88 1.391 . S
H90 C93 0.931 . S
H91 C96 0.928 . S
H92 C98 0.930 . S
C93 H90 0.931 . S
C93 C94 1.413 . S
C93 C95 1.360 . S
C94 C93 1.413 . S
C94 C98 1.429 . S
C95 C93 1.360 . S
C95 C96 1.372 . S
C96 H91 0.928 . S
C96 C95 1.372 . S
C96 C97 1.404 . S
C97 C96 1.404 . S
C97 C98 1.391 . S
C98 H92 0.930 . S
C98 C94 1.429 . S
C98 C97 1.391 . S
H99 C102 0.931 . S
H100 C105 0.928 . S
H101 C107 0.930 . S
C102 H99 0.931 . S
C102 C103 1.413 . S
C102 C104 1.360 . S
C103 C102 1.413 . S
C103 C107 1.429 . S
C104 C102 1.360 . S
C104 C105 1.372 . S
C105 H100 0.928 . S
C105 C104 1.372 . S
C105 C106 1.404 . S
C106 C105 1.404 . S
C106 C107 1.391 . S
C107 H101 0.930 . S
C107 C103 1.429 . S
C107 C106 1.391 . S
H108 C111 0.931 . S
H109 C114 0.928 . S
H110 C116 0.930 . S
C111 H108 0.931 . S
C111 C112 1.413 . S
C111 C113 1.360 . S
C112 C111 1.413 . S
C112 C116 1.429 . S
C113 C111 1.360 . S
C113 C114 1.372 . S
C114 H109 0.928 . S
C114 C113 1.372 . S
C114 C115 1.404 . S
C115 C114 1.404 . S
C115 C116 1.391 . S
C116 H110 0.930 . S
C116 C112 1.429 . S
C116 C115 1.391 . S
H117 C120 0.931 . S
H118 C123 0.928 . S
H119 C125 0.930 1_554 S
C120 H117 0.931 . S
C120 C121 1.413 . S
C120 C122 1.360 . S
C121 C120 1.413 . S
C121 C125 1.429 . S
C122 C120 1.360 . S
C122 C123 1.372 . S
C123 H118 0.928 . S
C123 C122 1.372 . S
C123 C124 1.404 . S
C124 C123 1.404 . S
C124 C125 1.391 . S
C125 H119 0.930 1_556 S
C125 C121 1.429 . S
C125 C124 1.391 . S
H126 C129 0.931 . S
H127 C132 0.928 . S
H128 C134 0.930 . S
C129 H126 0.931 . S
C129 C130 1.413 . S
C129 C131 1.360 . S
C130 C129 1.413 . S
C130 C134 1.429 . S
C131 C129 1.360 . S
C131 C132 1.372 . S
C132 H127 0.928 . S
C132 C131 1.372 . S
C132 C133 1.404 . S
C133 C132 1.404 . S
C133 C134 1.391 . S
C134 H128 0.930 . S
C134 C130 1.429 . S
C134 C133 1.391 . S
H135 C138 0.931 1_554 S
H136 C141 0.928 . S
H137 C143 0.930 . S
C138 H135 0.931 1_556 S
C138 C139 1.413 . S
C138 C140 1.360 . S
C139 C138 1.413 . S
C139 C143 1.429 . S
C140 C138 1.360 . S
C140 C141 1.372 . S
C141 H136 0.928 . S
C141 C140 1.372 . S
C141 C142 1.404 . S
C142 C141 1.404 . S
C142 C143 1.391 . S
C143 H137 0.930 . S
C143 C139 1.429 . S
C143 C142 1.391 . S
Mn144 O149 2.095 . S
Mn144 O159 2.162 . S
Mn144 O160 2.297 . S
Mn144 O168 2.385 1_554 S
Mn144 O169 2.209 1_554 S
Mn144 O170 2.094 . S
Mn145 O150 2.121 . S
Mn145 N152 2.257 . S
Mn145 N161 2.282 . S
Mn145 O169 2.215 . S
Mn145 O171 2.117 . S
C146 O168 1.234 . S
C146 O169 1.283 . S
C147 O159 1.281 . S
C147 O160 1.236 . S
C148 O170 1.240 . S
C148 O171 1.264 1_554 S
O149 Mn144 2.095 . S
O149 C158 1.238 1_554 S
O150 Mn145 2.121 . S
O150 C158 1.274 . S
C151 N152 1.326 . S
C151 C155 1.460 . S
C151 H157 0.929 . S
N152 Mn145 2.257 . S
N152 C151 1.326 . S
N152 C156 1.362 . S
C153 C154 1.258 . S
C153 C156 1.431 . S
C153 C173 1.449 . S
C154 C153 1.258 . S
C154 C155 1.477 . S
C154 H174 0.931 . S
C155 C151 1.460 . S
C155 C154 1.477 . S
C155 H175 0.930 . S
C156 N152 1.362 . S
C156 C153 1.431 . S
C156 C166 1.476 . S
H157 C151 0.929 . S
C158 O149 1.238 1_556 S
C158 O150 1.274 . S
O159 Mn144 2.162 . S
O159 C147 1.281 . S
O160 Mn144 2.297 . S
O160 C147 1.236 . S
N161 Mn145 2.282 . S
N161 C162 1.328 . S
N161 C166 1.318 . S
C162 N161 1.328 . S
C162 C163 1.457 . S
C162 H167 0.929 . S
C163 C162 1.457 . S
C163 C164 1.291 . S
C163 H176 0.931 . S
C164 C163 1.291 . S
C164 C165 1.373 . S
C164 H177 0.929 . S
C165 C164 1.373 . S
C165 C166 1.396 . S
C165 C172 1.403 . S
C166 C156 1.476 . S
C166 N161 1.318 . S
C166 C165 1.396 . S
H167 C162 0.929 . S
O168 Mn144 2.385 1_556 S
O168 C146 1.234 . S
O169 Mn144 2.209 1_556 S
O169 Mn145 2.215 . S
O169 C146 1.283 . S
O170 Mn144 2.094 . S
O170 C148 1.240 . S
O171 Mn145 2.117 . S
O171 C148 1.264 1_556 S
C172 C165 1.403 . S
C172 C173 1.399 . S
C172 H178 0.929 . S
C173 C153 1.449 . S
C173 C172 1.399 . S
C173 H179 0.930 . S
H174 C154 0.931 . S
H175 C155 0.930 . S
H176 C163 0.931 . S
H177 C164 0.929 . S
H178 C172 0.929 . S
H179 C173 0.930 . S
Mn180 O185 2.095 . S
Mn180 O195 2.162 . S
Mn180 O196 2.297 . S
Mn180 O204 2.385 . S
Mn180 O205 2.209 . S
Mn180 O206 2.094 . S
Mn181 O186 2.121 . S
Mn181 N188 2.257 . S
Mn181 N197 2.282 . S
Mn181 O205 2.215 . S
Mn181 O207 2.117 . S
C182 O204 1.234 . S
C182 O205 1.283 . S
C183 O195 1.281 . S
C183 O196 1.236 . S
C184 O206 1.240 . S
C184 O207 1.264 . S
O185 Mn180 2.095 . S
O185 C194 1.250 . S
O186 Mn181 2.121 . S
O186 C194 1.258 . S
C187 N188 1.326 . S
C187 C191 1.460 . S
C187 H193 0.929 . S
N188 Mn181 2.257 . S
N188 C187 1.326 . S
N188 C192 1.362 . S
C189 C190 1.258 . S
C189 C192 1.431 . S
C189 C209 1.449 . S
C190 C189 1.258 . S
C190 C191 1.477 . S
C190 H210 0.931 . S
C191 C187 1.460 . S
C191 C190 1.477 . S
C191 H211 0.930 . S
C192 N188 1.362 . S
C192 C189 1.431 . S
C192 C202 1.476 . S
H193 C187 0.929 . S
C194 O185 1.250 . S
C194 O186 1.258 . S
O195 Mn180 2.162 . S
O195 C183 1.281 . S
O196 Mn180 2.297 . S
O196 C183 1.236 . S
N197 Mn181 2.282 . S
N197 C198 1.328 . S
N197 C202 1.318 . S
C198 N197 1.328 . S
C198 C199 1.457 . S
C198 H203 0.929 . S
C199 C198 1.457 . S
C199 C200 1.291 . S
C199 H212 0.931 . S
C200 C199 1.291 . S
C200 C201 1.373 . S
C200 H213 0.929 . S
C201 C200 1.373 . S
C201 C202 1.396 . S
C201 C208 1.403 . S
C202 C192 1.476 . S
C202 N197 1.318 . S
C202 C201 1.396 . S
H203 C198 0.929 . S
O204 Mn180 2.385 . S
O204 C182 1.234 . S
O205 Mn180 2.209 . S
O205 Mn181 2.215 . S
O205 C182 1.283 . S
O206 Mn180 2.094 . S
O206 C184 1.240 . S
O207 Mn181 2.117 . S
O207 C184 1.264 . S
C208 C201 1.403 . S
C208 C209 1.399 . S
C208 H214 0.929 . S
C209 C189 1.449 . S
C209 C208 1.399 . S
C209 H215 0.930 . S
H210 C190 0.931 . S
H211 C191 0.930 . S
H212 C199 0.931 . S
H213 C200 0.929 . S
H214 C208 0.929 . S
H215 C209 0.930 . S
Mn216 O221 2.095 1_554 S
Mn216 O231 2.162 . S
Mn216 O232 2.297 1_554 S
Mn216 O240 2.385 . S
Mn216 O241 2.209 1_554 S
Mn216 O242 2.094 . S
Mn217 O222 2.121 . S
Mn217 N224 2.257 . S
Mn217 N233 2.282 . S
Mn217 O241 2.215 . S
Mn217 O243 2.117 1_556 S
C218 O240 1.268 . S
C218 O241 1.260 1_554 S
C219 O231 1.281 . S
C219 O232 1.236 1_554 S
C220 O242 1.240 . S
C220 O243 1.264 . S
O221 Mn216 2.095 1_556 S
O221 C230 1.250 . S
O222 Mn217 2.121 . S
O222 C230 1.258 . S
C223 N224 1.326 . S
C223 C227 1.460 . S
C223 H229 0.929 . S
N224 Mn217 2.257 . S
N224 C223 1.326 . S
N224 C228 1.362 . S
C225 C226 1.258 . S
C225 C228 1.431 . S
C225 C245 1.449 . S
C226 C225 1.258 . S
C226 C227 1.477 . S
C226 H246 0.931 . S
C227 C223 1.460 . S
C227 C226 1.477 . S
C227 H247 0.930 . S
C228 N224 1.362 . S
C228 C225 1.431 . S
C228 C238 1.476 . S
H229 C223 0.929 . S
C230 O221 1.250 . S
C230 O222 1.258 . S
O231 Mn216 2.162 . S
O231 C219 1.281 . S
O232 Mn216 2.297 1_556 S
O232 C219 1.236 1_556 S
N233 Mn217 2.282 . S
N233 C234 1.328 1_556 S
N233 C238 1.318 . S
C234 N233 1.328 1_554 S
C234 C235 1.457 . S
C234 H239 0.929 . S
C235 C234 1.457 . S
C235 C236 1.291 . S
C235 H248 0.931 . S
C236 C235 1.291 . S
C236 C237 1.373 1_554 S
C236 H249 0.929 . S
C237 C236 1.373 1_556 S
C237 C238 1.396 . S
C237 C244 1.403 . S
C238 C228 1.476 . S
C238 N233 1.318 . S
C238 C237 1.396 . S
H239 C234 0.929 . S
O240 Mn216 2.385 . S
O240 C218 1.268 . S
O241 Mn216 2.209 1_556 S
O241 Mn217 2.215 . S
O241 C218 1.260 1_556 S
O242 Mn216 2.094 . S
O242 C220 1.240 . S
O243 Mn217 2.117 1_554 S
O243 C220 1.264 . S
C244 C237 1.403 . S
C244 C245 1.399 . S
C244 H250 0.929 . S
C245 C225 1.449 . S
C245 C244 1.399 . S
C245 H251 0.930 . S
H246 C226 0.931 . S
H247 C227 0.930 . S
H248 C235 0.931 . S
H249 C236 0.929 . S
H250 C244 0.929 . S
H251 C245 0.930 . S
Mn252 O257 2.095 . S
Mn252 O267 2.162 . S
Mn252 O268 2.297 . S
Mn252 O276 2.385 1_545 S
Mn252 O277 2.209 1_545 S
Mn252 O278 2.094 . S
Mn253 O258 2.121 . S
Mn253 N260 2.257 . S
Mn253 N269 2.282 . S
Mn253 O277 2.215 . S
Mn253 O279 2.117 . S
C254 O276 1.234 . S
C254 O277 1.283 . S
C255 O267 1.281 . S
C255 O268 1.236 . S
C256 O278 1.240 . S
C256 O279 1.264 1_545 S
O257 Mn252 2.095 . S
O257 C266 1.250 1_545 S
O258 Mn253 2.121 . S
O258 C266 1.258 . S
C259 N260 1.326 . S
C259 C263 1.460 . S
C259 H265 0.929 . S
N260 Mn253 2.257 . S
N260 C259 1.326 . S
N260 C264 1.362 . S
C261 C262 1.258 . S
C261 C264 1.431 . S
C261 C281 1.449 . S
C262 C261 1.258 . S
C262 C263 1.477 . S
C262 H282 0.931 . S
C263 C259 1.460 . S
C263 C262 1.477 . S
C263 H283 0.930 . S
C264 N260 1.362 . S
C264 C261 1.431 . S
C264 C274 1.476 . S
H265 C259 0.929 . S
C266 O257 1.250 1_565 S
C266 O258 1.258 . S
O267 Mn252 2.162 . S
O267 C255 1.281 . S
O268 Mn252 2.297 . S
O268 C255 1.236 . S
N269 Mn253 2.282 . S
N269 C270 1.328 . S
N269 C274 1.318 . S
C270 N269 1.328 . S
C270 C271 1.457 . S
C270 H275 0.929 . S
C271 C270 1.457 . S
C271 C272 1.291 . S
C271 H284 0.931 . S
C272 C271 1.291 . S
C272 C273 1.373 . S
C272 H285 0.929 . S
C273 C272 1.373 . S
C273 C274 1.396 . S
C273 C280 1.403 . S
C274 C264 1.476 . S
C274 N269 1.318 . S
C274 C273 1.396 . S
H275 C270 0.929 . S
O276 Mn252 2.385 1_565 S
O276 C254 1.234 . S
O277 Mn252 2.209 1_565 S
O277 Mn253 2.215 . S
O277 C254 1.283 . S
O278 Mn252 2.094 . S
O278 C256 1.240 . S
O279 Mn253 2.117 . S
O279 C256 1.264 1_565 S
C280 C273 1.403 . S
C280 C281 1.399 . S
C280 H286 0.929 . S
C281 C261 1.449 . S
C281 C280 1.399 . S
C281 H287 0.930 . S
H282 C262 0.931 . S
H283 C263 0.930 . S
H284 C271 0.931 . S
H285 C272 0.929 . S
H286 C280 0.929 . S
H287 C281 0.930 . S
Mn288 O293 2.095 . S
Mn288 O303 2.162 . S
Mn288 O304 2.297 . S
Mn288 O312 2.385 . S
Mn288 O313 2.209 . S
Mn288 O314 2.094 . S
Mn289 O294 2.121 . S
Mn289 N296 2.257 . S
Mn289 N305 2.282 . S
Mn289 O313 2.215 . S
Mn289 O315 2.117 . S
C290 O312 1.234 . S
C290 O313 1.283 . S
C291 O303 1.281 . S
C291 O304 1.236 . S
C292 O314 1.240 . S
C292 O315 1.264 . S
O293 Mn288 2.095 . S
O293 C302 1.250 . S
O294 Mn289 2.121 . S
O294 C302 1.258 . S
C295 N296 1.326 . S
C295 C299 1.460 . S
C295 H301 0.929 . S
N296 Mn289 2.257 . S
N296 C295 1.326 . S
N296 C300 1.362 . S
C297 C298 1.258 . S
C297 C300 1.431 . S
C297 C317 1.449 . S
C298 C297 1.258 . S
C298 C299 1.477 . S
C298 H318 0.931 . S
C299 C295 1.460 . S
C299 C298 1.477 . S
C299 H319 0.930 . S
C300 N296 1.362 . S
C300 C297 1.431 . S
C300 C310 1.476 . S
H301 C295 0.929 . S
C302 O293 1.250 . S
C302 O294 1.258 . S
O303 Mn288 2.162 . S
O303 C291 1.281 . S
O304 Mn288 2.297 . S
O304 C291 1.236 . S
N305 Mn289 2.282 . S
N305 C306 1.328 . S
N305 C310 1.318 . S
C306 N305 1.328 . S
C306 C307 1.457 . S
C306 H311 0.929 . S
C307 C306 1.457 . S
C307 C308 1.291 . S
C307 H320 0.931 . S
C308 C307 1.291 . S
C308 C309 1.373 . S
C308 H321 0.929 . S
C309 C308 1.373 . S
C309 C310 1.396 . S
C309 C316 1.403 . S
C310 C300 1.476 . S
C310 N305 1.318 . S
C310 C309 1.396 . S
H311 C306 0.929 . S
O312 Mn288 2.385 . S
O312 C290 1.234 . S
O313 Mn288 2.209 . S
O313 Mn289 2.215 . S
O313 C290 1.283 . S
O314 Mn288 2.094 . S
O314 C292 1.240 . S
O315 Mn289 2.117 . S
O315 C292 1.264 . S
C316 C309 1.403 . S
C316 C317 1.399 . S
C316 H322 0.929 . S
C317 C297 1.449 . S
C317 C316 1.399 . S
C317 H323 0.930 . S
H318 C298 0.931 . S
H319 C299 0.930 . S
H320 C307 0.931 . S
H321 C308 0.929 . S
H322 C316 0.929 . S
H323 C317 0.930 . S
Mn324 O329 2.095 . S
Mn324 O339 2.162 . S
Mn324 O340 2.297 . S
Mn324 O348 2.385 . S
Mn324 O349 2.209 . S
Mn324 O350 2.094 . S
Mn325 O330 2.121 . S
Mn325 N332 2.257 . S
Mn325 N341 2.282 . S
Mn325 O349 2.215 . S
Mn325 O351 2.117 . S
C326 O348 1.234 . S
C326 O349 1.283 . S
C327 O339 1.281 . S
C327 O340 1.236 . S
C328 O350 1.240 . S
C328 O351 1.264 . S
O329 Mn324 2.095 . S
O329 C338 1.250 . S
O330 Mn325 2.121 . S
O330 C338 1.258 . S
C331 N332 1.326 . S
C331 C335 1.460 . S
C331 H337 0.929 . S
N332 Mn325 2.257 . S
N332 C331 1.326 . S
N332 C336 1.362 . S
C333 C334 1.258 . S
C333 C336 1.431 . S
C333 C353 1.449 . S
C334 C333 1.258 . S
C334 C335 1.477 . S
C334 H354 0.931 . S
C335 C331 1.460 . S
C335 C334 1.477 . S
C335 H355 0.930 . S
C336 N332 1.362 . S
C336 C333 1.431 . S
C336 C346 1.476 . S
H337 C331 0.929 . S
C338 O329 1.250 . S
C338 O330 1.258 . S
O339 Mn324 2.162 . S
O339 C327 1.281 . S
O340 Mn324 2.297 . S
O340 C327 1.236 . S
N341 Mn325 2.282 . S
N341 C342 1.328 . S
N341 C346 1.318 . S
C342 N341 1.328 . S
C342 C343 1.457 . S
C342 H347 0.929 . S
C343 C342 1.457 . S
C343 C344 1.291 . S
C343 H356 0.931 . S
C344 C343 1.291 . S
C344 C345 1.373 . S
C344 H357 0.929 . S
C345 C344 1.373 . S
C345 C346 1.396 . S
C345 C352 1.403 . S
C346 C336 1.476 . S
C346 N341 1.318 . S
C346 C345 1.396 . S
H347 C342 0.929 . S
O348 Mn324 2.385 . S
O348 C326 1.234 . S
O349 Mn324 2.209 . S
O349 Mn325 2.215 . S
O349 C326 1.283 . S
O350 Mn324 2.094 . S
O350 C328 1.240 . S
O351 Mn325 2.117 . S
O351 C328 1.264 . S
C352 C345 1.403 . S
C352 C353 1.399 . S
C352 H358 0.929 . S
C353 C333 1.449 . S
C353 C352 1.399 . S
C353 H359 0.930 . S
H354 C334 0.931 . S
H355 C335 0.930 . S
H356 C343 0.931 . S
H357 C344 0.929 . S
H358 C352 0.929 . S
H359 C353 0.930 . S
Mn360 O365 2.095 . S
Mn360 O375 2.162 . S
Mn360 O376 2.297 . S
Mn360 O384 2.385 . S
Mn360 O385 2.209 . S
Mn360 O386 2.094 . S
Mn361 O366 2.121 . S
Mn361 N368 2.257 . S
Mn361 N377 2.282 . S
Mn361 O385 2.215 . S
Mn361 O387 2.117 . S
C362 O384 1.234 . S
C362 O385 1.283 . S
C363 O375 1.281 . S
C363 O376 1.236 . S
C364 O386 1.240 . S
C364 O387 1.264 . S
O365 Mn360 2.095 . S
O365 C374 1.250 . S
O366 Mn361 2.121 . S
O366 C374 1.258 . S
C367 N368 1.326 . S
C367 C371 1.460 . S
C367 H373 0.929 . S
N368 Mn361 2.257 . S
N368 C367 1.326 . S
N368 C372 1.362 . S
C369 C370 1.258 . S
C369 C372 1.431 . S
C369 C389 1.449 . S
C370 C369 1.258 . S
C370 C371 1.477 . S
C370 H390 0.931 . S
C371 C367 1.460 . S
C371 C370 1.477 . S
C371 H391 0.930 . S
C372 N368 1.362 . S
C372 C369 1.431 . S
C372 C382 1.476 . S
H373 C367 0.929 . S
C374 O365 1.250 . S
C374 O366 1.258 . S
O375 Mn360 2.162 . S
O375 C363 1.281 . S
O376 Mn360 2.297 . S
O376 C363 1.236 . S
N377 Mn361 2.282 . S
N377 C378 1.328 . S
N377 C382 1.318 . S
C378 N377 1.328 . S
C378 C379 1.457 . S
C378 H383 0.929 . S
C379 C378 1.457 . S
C379 C380 1.291 . S
C379 H392 0.931 . S
C380 C379 1.291 . S
C380 C381 1.373 . S
C380 H393 0.929 . S
C381 C380 1.373 . S
C381 C382 1.396 . S
C381 C388 1.403 . S
C382 C372 1.476 . S
C382 N377 1.318 . S
C382 C381 1.396 . S
H383 C378 0.929 . S
O384 Mn360 2.385 . S
O384 C362 1.234 . S
O385 Mn360 2.209 . S
O385 Mn361 2.215 . S
O385 C362 1.283 . S
O386 Mn360 2.094 . S
O386 C364 1.240 . S
O387 Mn361 2.117 . S
O387 C364 1.264 . S
C388 C381 1.403 . S
C388 C389 1.399 . S
C388 H394 0.929 . S
C389 C369 1.449 . S
C389 C388 1.399 . S
C389 H395 0.930 . S
H390 C370 0.931 . S
H391 C371 0.930 . S
H392 C379 0.931 . S
H393 C380 0.929 . S
H394 C388 0.929 . S
H395 C389 0.930 . S
Mn396 O401 2.095 . S
Mn396 O411 2.162 . S
Mn396 O412 2.297 . S
Mn396 O420 2.385 1_565 S
Mn396 O421 2.209 1_565 S
Mn396 O422 2.094 . S
Mn397 O402 2.121 . S
Mn397 N404 2.257 . S
Mn397 N413 2.282 . S
Mn397 O421 2.215 . S
Mn397 O423 2.117 . S
C398 O420 1.234 . S
C398 O421 1.283 . S
C399 O411 1.281 . S
C399 O412 1.236 . S
C400 O422 1.223 1_545 S
C400 O423 1.286 . S
O401 Mn396 2.095 . S
O401 C410 1.250 1_565 S
O402 Mn397 2.121 . S
O402 C410 1.258 . S
C403 N404 1.326 . S
C403 C407 1.460 . S
C403 H409 0.929 . S
N404 Mn397 2.257 . S
N404 C403 1.326 . S
N404 C408 1.362 . S
C405 C406 1.258 . S
C405 C408 1.431 . S
C405 C425 1.449 . S
C406 C405 1.258 . S
C406 C407 1.477 . S
C406 H426 0.931 . S
C407 C403 1.460 . S
C407 C406 1.477 . S
C407 H427 0.930 . S
C408 N404 1.362 . S
C408 C405 1.431 . S
C408 C418 1.476 . S
H409 C403 0.929 . S
C410 O401 1.250 1_545 S
C410 O402 1.258 . S
O411 Mn396 2.162 . S
O411 C399 1.281 . S
O412 Mn396 2.297 . S
O412 C399 1.236 . S
N413 Mn397 2.282 . S
N413 C414 1.328 . S
N413 C418 1.318 . S
C414 N413 1.328 . S
C414 C415 1.457 . S
C414 H419 0.929 . S
C415 C414 1.457 . S
C415 C416 1.291 . S
C415 H428 0.931 . S
C416 C415 1.291 . S
C416 C417 1.373 . S
C416 H429 0.929 . S
C417 C416 1.373 . S
C417 C418 1.396 . S
C417 C424 1.403 . S
C418 C408 1.476 . S
C418 N413 1.318 . S
C418 C417 1.396 . S
H419 C414 0.929 . S
O420 Mn396 2.385 1_545 S
O420 C398 1.234 . S
O421 Mn396 2.209 1_545 S
O421 Mn397 2.215 . S
O421 C398 1.283 . S
O422 Mn396 2.094 . S
O422 C400 1.223 1_565 S
O423 Mn397 2.117 . S
O423 C400 1.286 . S
C424 C417 1.403 . S
C424 C425 1.399 . S
C424 H430 0.929 . S
C425 C405 1.449 . S
C425 C424 1.399 . S
C425 H431 0.930 . S
H426 C406 0.931 . S
H427 C407 0.930 . S
H428 C415 0.931 . S
H429 C416 0.929 . S
H430 C424 0.929 . S
H431 C425 0.930 . S
Mn432 O437 2.095 . S
Mn432 O447 2.162 . S
Mn432 O448 2.297 . S
Mn432 O456 2.385 1_455 S
Mn432 O457 2.209 1_455 S
Mn432 O458 2.094 . S
Mn433 O438 2.121 . S
Mn433 N440 2.257 . S
Mn433 N449 2.282 . S
Mn433 O457 2.215 . S
Mn433 O459 2.117 . S
C434 O456 1.234 . S
C434 O457 1.283 . S
C435 O447 1.281 . S
C435 O448 1.236 . S
C436 O458 1.240 . S
C436 O459 1.264 1_455 S
O437 Mn432 2.095 . S
O437 C446 1.250 1_455 S
O438 Mn433 2.121 . S
O438 C446 1.258 . S
C439 N440 1.326 . S
C439 C443 1.460 . S
C439 H445 0.929 . S
N440 Mn433 2.257 . S
N440 C439 1.326 . S
N440 C444 1.362 . S
C441 C442 1.258 . S
C441 C444 1.431 . S
C441 C461 1.449 . S
C442 C441 1.258 . S
C442 C443 1.477 . S
C442 H462 0.931 . S
C443 C439 1.460 . S
C443 C442 1.477 . S
C443 H463 0.930 . S
C444 N440 1.362 . S
C444 C441 1.431 . S
C444 C454 1.476 . S
H445 C439 0.929 . S
C446 O437 1.250 1_655 S
C446 O438 1.258 . S
O447 Mn432 2.162 . S
O447 C435 1.281 . S
O448 Mn432 2.297 . S
O448 C435 1.236 . S
N449 Mn433 2.282 . S
N449 C450 1.328 . S
N449 C454 1.318 . S
C450 N449 1.328 . S
C450 C451 1.457 . S
C450 H455 0.929 . S
C451 C450 1.457 . S
C451 C452 1.291 . S
C451 H464 0.931 . S
C452 C451 1.291 . S
C452 C453 1.373 . S
C452 H465 0.929 . S
C453 C452 1.373 . S
C453 C454 1.396 . S
C453 C460 1.403 . S
C454 C444 1.476 . S
C454 N449 1.318 . S
C454 C453 1.396 . S
H455 C450 0.929 . S
O456 Mn432 2.385 1_655 S
O456 C434 1.234 . S
O457 Mn432 2.209 1_655 S
O457 Mn433 2.215 . S
O457 C434 1.283 . S
O458 Mn432 2.094 . S
O458 C436 1.240 . S
O459 Mn433 2.117 . S
O459 C436 1.264 1_655 S
C460 C453 1.403 . S
C460 C461 1.399 . S
C460 H466 0.929 . S
C461 C441 1.449 . S
C461 C460 1.399 . S
C461 H467 0.930 . S
H462 C442 0.931 . S
H463 C443 0.930 . S
H464 C451 0.931 . S
H465 C452 0.929 . S
H466 C460 0.929 . S
H467 C461 0.930 . S
Mn468 O473 2.095 . S
Mn468 O483 2.162 . S
Mn468 O484 2.297 . S
Mn468 O492 2.385 . S
Mn468 O493 2.209 . S
Mn468 O494 2.094 . S
Mn469 O474 2.121 . S
Mn469 N476 2.257 . S
Mn469 N485 2.282 . S
Mn469 O493 2.215 . S
Mn469 O495 2.117 . S
C470 O492 1.234 . S
C470 O493 1.283 . S
C471 O483 1.281 . S
C471 O484 1.236 . S
C472 O494 1.240 . S
C472 O495 1.264 . S
O473 Mn468 2.095 . S
O473 C482 1.250 . S
O474 Mn469 2.121 . S
O474 C482 1.258 . S
C475 N476 1.326 . S
C475 C479 1.460 . S
C475 H481 0.929 . S
N476 Mn469 2.257 . S
N476 C475 1.326 . S
N476 C480 1.362 . S
C477 C478 1.258 . S
C477 C480 1.431 . S
C477 C497 1.449 . S
C478 C477 1.258 . S
C478 C479 1.477 . S
C478 H498 0.931 . S
C479 C475 1.460 . S
C479 C478 1.477 . S
C479 H499 0.930 . S
C480 N476 1.362 . S
C480 C477 1.431 . S
C480 C490 1.476 . S
H481 C475 0.929 . S
C482 O473 1.250 . S
C482 O474 1.258 . S
O483 Mn468 2.162 . S
O483 C471 1.281 . S
O484 Mn468 2.297 . S
O484 C471 1.236 . S
N485 Mn469 2.282 . S
N485 C486 1.328 . S
N485 C490 1.318 . S
C486 N485 1.328 . S
C486 C487 1.457 . S
C486 H491 0.929 . S
C487 C486 1.457 . S
C487 C488 1.291 . S
C487 H500 0.931 . S
C488 C487 1.291 . S
C488 C489 1.373 . S
C488 H501 0.929 . S
C489 C488 1.373 . S
C489 C490 1.396 . S
C489 C496 1.403 . S
C490 C480 1.476 . S
C490 N485 1.318 . S
C490 C489 1.396 . S
H491 C486 0.929 . S
O492 Mn468 2.385 . S
O492 C470 1.234 . S
O493 Mn468 2.209 . S
O493 Mn469 2.215 . S
O493 C470 1.283 . S
O494 Mn468 2.094 . S
O494 C472 1.240 . S
O495 Mn469 2.117 . S
O495 C472 1.264 . S
C496 C489 1.403 . S
C496 C497 1.399 . S
C496 H502 0.929 . S
C497 C477 1.449 . S
C497 C496 1.399 . S
C497 H503 0.930 . S
H498 C478 0.931 . S
H499 C479 0.930 . S
H500 C487 0.931 . S
H501 C488 0.929 . S
H502 C496 0.929 . S
H503 C497 0.930 . S
Mn504 O509 2.095 1_455 S
Mn504 O519 2.162 . S
Mn504 O520 2.297 1_455 S
Mn504 O528 2.385 . S
Mn504 O529 2.209 1_455 S
Mn504 O530 2.094 . S
Mn505 O510 2.121 . S
Mn505 N512 2.257 . S
Mn505 N521 2.282 1_655 S
Mn505 O529 2.215 . S
Mn505 O531 2.117 1_655 S
C506 O528 1.234 . S
C506 O529 1.283 1_455 S
C507 O519 1.281 . S
C507 O520 1.236 1_455 S
C508 O530 1.240 . S
C508 O531 1.264 . S
O509 Mn504 2.095 1_655 S
O509 C518 1.250 . S
O510 Mn505 2.121 . S
O510 C518 1.258 . S
C511 N512 1.326 . S
C511 C515 1.460 . S
C511 H517 0.929 . S
N512 Mn505 2.257 . S
N512 C511 1.326 . S
N512 C516 1.362 . S
C513 C514 1.258 . S
C513 C516 1.431 . S
C513 C533 1.449 . S
C514 C513 1.258 . S
C514 C515 1.477 . S
C514 H534 0.931 . S
C515 C511 1.460 . S
C515 C514 1.477 . S
C515 H535 0.930 . S
C516 N512 1.362 . S
C516 C513 1.431 . S
C516 C526 1.476 . S
H517 C511 0.929 . S
C518 O509 1.250 . S
C518 O510 1.258 . S
O519 Mn504 2.162 . S
O519 C507 1.281 . S
O520 Mn504 2.297 1_655 S
O520 C507 1.236 1_655 S
N521 Mn505 2.282 1_455 S
N521 C522 1.328 . S
N521 C526 1.318 1_455 S
C522 N521 1.328 . S
C522 C523 1.457 . S
C522 H527 0.929 . S
C523 C522 1.457 . S
C523 C524 1.291 . S
C523 H536 0.931 . S
C524 C523 1.291 . S
C524 C525 1.373 1_455 S
C524 H537 0.929 . S
C525 C524 1.373 1_655 S
C525 C526 1.396 . S
C525 C532 1.403 . S
C526 C516 1.476 . S
C526 N521 1.318 1_655 S
C526 C525 1.396 . S
H527 C522 0.929 . S
O528 Mn504 2.385 . S
O528 C506 1.234 . S
O529 Mn504 2.209 1_655 S
O529 Mn505 2.215 . S
O529 C506 1.283 1_655 S
O530 Mn504 2.094 . S
O530 C508 1.240 . S
O531 Mn505 2.117 1_455 S
O531 C508 1.264 . S
C532 C525 1.403 . S
C532 C533 1.399 . S
C532 H538 0.929 . S
C533 C513 1.449 . S
C533 C532 1.399 . S
C533 H539 0.930 . S
H534 C514 0.931 . S
H535 C515 0.930 . S
H536 C523 0.931 . S
H537 C524 0.929 . S
H538 C532 0.929 . S
H539 C533 0.930 . S
Mn540 O545 2.095 . S
Mn540 O555 2.162 . S
Mn540 O556 2.297 . S
Mn540 O564 2.385 . S
Mn540 O565 2.209 . S
Mn540 O566 2.094 . S
Mn541 O546 2.121 . S
Mn541 N548 2.257 . S
Mn541 N557 2.282 . S
Mn541 O565 2.215 . S
Mn541 O567 2.117 . S
C542 O564 1.234 . S
C542 O565 1.283 . S
C543 O555 1.281 . S
C543 O556 1.236 . S
C544 O566 1.240 . S
C544 O567 1.264 . S
O545 Mn540 2.095 . S
O545 C554 1.250 . S
O546 Mn541 2.121 . S
O546 C554 1.258 . S
C547 N548 1.326 . S
C547 C551 1.460 . S
C547 H553 0.929 . S
N548 Mn541 2.257 . S
N548 C547 1.326 . S
N548 C552 1.362 . S
C549 C550 1.258 . S
C549 C552 1.431 . S
C549 C569 1.449 . S
C550 C549 1.258 . S
C550 C551 1.477 . S
C550 H570 0.931 . S
C551 C547 1.460 . S
C551 C550 1.477 . S
C551 H571 0.930 . S
C552 N548 1.362 . S
C552 C549 1.431 . S
C552 C562 1.476 . S
H553 C547 0.929 . S
C554 O545 1.250 . S
C554 O546 1.258 . S
O555 Mn540 2.162 . S
O555 C543 1.281 . S
O556 Mn540 2.297 . S
O556 C543 1.236 . S
N557 Mn541 2.282 . S
N557 C558 1.328 . S
N557 C562 1.318 . S
C558 N557 1.328 . S
C558 C559 1.457 . S
C558 H563 0.929 . S
C559 C558 1.457 . S
C559 C560 1.291 . S
C559 H572 0.931 . S
C560 C559 1.291 . S
C560 C561 1.373 . S
C560 H573 0.929 . S
C561 C560 1.373 . S
C561 C562 1.396 . S
C561 C568 1.403 . S
C562 C552 1.476 . S
C562 N557 1.318 . S
C562 C561 1.396 . S
H563 C558 0.929 . S
O564 Mn540 2.385 . S
O564 C542 1.234 . S
O565 Mn540 2.209 . S
O565 Mn541 2.215 . S
O565 C542 1.283 . S
O566 Mn540 2.094 . S
O566 C544 1.240 . S
O567 Mn541 2.117 . S
O567 C544 1.264 . S
C568 C561 1.403 . S
C568 C569 1.399 . S
C568 H574 0.929 . S
C569 C549 1.449 . S
C569 C568 1.399 . S
C569 H575 0.930 . S
H570 C550 0.931 . S
H571 C551 0.930 . S
H572 C559 0.931 . S
H573 C560 0.929 . S
H574 C568 0.929 . S
H575 C569 0.930 . S
C576 C577 1.391 . S
C576 C578 1.394 . S
C576 H592 0.931 . S
C577 C576 1.391 . S
C577 C581 1.376 . S
C578 C576 1.394 . S
C578 C579 1.369 . S
C578 C582 1.531 . S
C579 C578 1.369 . S
C579 C580 1.410 . S
C579 C587 1.503 . S
C580 C579 1.410 . S
C580 C581 1.392 . S
C580 C583 1.511 . S
C581 C577 1.376 . S
C581 C580 1.392 . S
C581 H593 0.929 . S
C582 C578 1.531 . S
C582 H594 0.960 . S
C582 H595 0.962 . S
C582 H596 0.960 . S
C583 C580 1.511 . S
C583 H597 0.961 . S
C583 H598 0.961 . S
C583 H599 0.961 . S
C584 C585 1.370 . S
C584 C586 1.363 . S
C584 H600 0.931 . S
C585 C584 1.370 . S
C585 C589 1.408 . S
C586 C584 1.363 . S
C586 C587 1.370 . S
C586 C590 1.524 . S
C587 C579 1.503 . S
C587 C586 1.370 . S
C587 C588 1.403 . S
C588 C587 1.403 . S
C588 C589 1.404 . S
C588 C591 1.539 . S
C589 C585 1.408 . S
C589 C588 1.404 . S
C589 H601 0.930 . S
C590 C586 1.524 . S
C590 H602 0.956 . S
C590 H603 0.961 . S
C590 H604 0.961 . S
C591 C588 1.539 . S
C591 H605 0.958 . S
C591 H606 0.961 . S
C591 H607 0.960 . S
H592 C576 0.931 . S
H593 C581 0.929 . S
H594 C582 0.960 . S
H595 C582 0.962 . S
H596 C582 0.960 . S
H597 C583 0.961 . S
H598 C583 0.961 . S
H599 C583 0.961 . S
H600 C584 0.931 . S
H601 C589 0.930 . S
H602 C590 0.956 . S
H603 C590 0.961 . S
H604 C590 0.961 . S
H605 C591 0.958 . S
H606 C591 0.961 . S
H607 C591 0.960 . S
C608 C609 1.391 . S
C608 C610 1.394 . S
C608 H624 0.931 . S
C609 C608 1.391 . S
C609 C613 1.376 . S
C610 C608 1.394 . S
C610 C611 1.369 . S
C610 C614 1.531 . S
C611 C610 1.369 . S
C611 C612 1.410 . S
C611 C619 1.503 . S
C612 C611 1.410 . S
C612 C613 1.392 . S
C612 C615 1.511 . S
C613 C609 1.376 . S
C613 C612 1.392 . S
C613 H625 0.929 1_455 S
C614 C610 1.531 . S
C614 H626 0.960 . S
C614 H627 0.962 . S
C614 H628 0.960 . S
C615 C612 1.511 . S
C615 H629 0.965 . S
C615 H630 0.961 . S
C615 H631 0.961 1_455 S
C616 C617 1.370 . S
C616 C618 1.363 . S
C616 H632 0.931 . S
C617 C616 1.370 . S
C617 C621 1.408 . S
C618 C616 1.363 . S
C618 C619 1.370 . S
C618 C622 1.524 . S
C619 C611 1.503 . S
C619 C618 1.370 . S
C619 C620 1.403 . S
C620 C619 1.403 . S
C620 C621 1.404 . S
C620 C623 1.539 . S
C621 C617 1.408 . S
C621 C620 1.404 . S
C621 H633 0.930 . S
C622 C618 1.524 . S
C622 H634 0.956 . S
C622 H635 0.961 . S
C622 H636 0.961 . S
C623 C620 1.539 . S
C623 H637 0.958 . S
C623 H638 0.961 . S
C623 H639 0.960 . S
H624 C608 0.931 . S
H625 C613 0.929 1_655 S
H626 C614 0.960 . S
H627 C614 0.962 . S
H628 C614 0.960 . S
H629 C615 0.965 . S
H630 C615 0.961 . S
H631 C615 0.961 1_655 S
H632 C616 0.931 . S
H633 C621 0.930 . S
H634 C622 0.956 . S
H635 C622 0.961 . S
H636 C622 0.961 . S
H637 C623 0.958 . S
H638 C623 0.961 . S
H639 C623 0.960 . S
C640 C641 1.391 . S
C640 C642 1.394 . S
C640 H656 0.931 . S
C641 C640 1.391 . S
C641 C645 1.376 . S
C642 C640 1.394 . S
C642 C643 1.369 . S
C642 C646 1.531 . S
C643 C642 1.369 . S
C643 C644 1.410 . S
C643 C651 1.503 . S
C644 C643 1.410 . S
C644 C645 1.392 . S
C644 C647 1.511 . S
C645 C641 1.376 . S
C645 C644 1.392 . S
C645 H657 0.929 . S
C646 C642 1.531 . S
C646 H658 0.960 . S
C646 H659 0.962 . S
C646 H660 0.960 . S
C647 C644 1.511 . S
C647 H661 0.961 . S
C647 H662 0.961 . S
C647 H663 0.961 . S
C648 C649 1.370 . S
C648 C650 1.363 . S
C648 H664 0.931 . S
C649 C648 1.370 . S
C649 C653 1.408 . S
C650 C648 1.363 . S
C650 C651 1.370 . S
C650 C654 1.524 . S
C651 C643 1.503 . S
C651 C650 1.370 . S
C651 C652 1.403 . S
C652 C651 1.403 . S
C652 C653 1.404 . S
C652 C655 1.539 . S
C653 C649 1.408 . S
C653 C652 1.404 . S
C653 H665 0.930 . S
C654 C650 1.524 . S
C654 H666 0.956 . S
C654 H667 0.961 . S
C654 H668 0.961 . S
C655 C652 1.539 . S
C655 H669 0.958 . S
C655 H670 0.961 . S
C655 H671 0.960 . S
H656 C640 0.931 . S
H657 C645 0.929 . S
H658 C646 0.960 . S
H659 C646 0.962 . S
H660 C646 0.960 . S
H661 C647 0.961 . S
H662 C647 0.961 . S
H663 C647 0.961 . S
H664 C648 0.931 . S
H665 C653 0.930 . S
H666 C654 0.956 . S
H667 C654 0.961 . S
H668 C654 0.961 . S
H669 C655 0.958 . S
H670 C655 0.961 . S
H671 C655 0.960 . S
C672 C673 1.391 1_655 S
C672 C674 1.394 . S
C672 H688 0.931 . S
C673 C672 1.391 1_455 S
C673 C677 1.376 . S
C674 C672 1.394 . S
C674 C675 1.369 . S
C674 C678 1.531 . S
C675 C674 1.369 . S
C675 C676 1.410 . S
C675 C683 1.503 . S
C676 C675 1.410 . S
C676 C677 1.392 1_655 S
C676 C679 1.511 1_665 S
C677 C673 1.376 . S
C677 C676 1.392 1_455 S
C677 H689 0.929 . S
C678 C674 1.531 . S
C678 H690 0.963 . S
C678 H691 0.962 . S
C678 H692 0.960 . S
C679 C676 1.511 1_445 S
C679 H693 0.961 1_545 S
C679 H694 0.958 1_445 S
C679 H695 0.961 . S
C680 C681 1.357 1_565 S
C680 C682 1.363 . S
C680 H696 0.931 . S
C681 C680 1.357 1_545 S
C681 C685 1.420 . S
C682 C680 1.363 . S
C682 C683 1.370 . S
C682 C686 1.524 . S
C683 C675 1.503 . S
C683 C682 1.370 . S
C683 C684 1.403 1_565 S
C684 C683 1.403 1_545 S
C684 C685 1.404 . S
C684 C687 1.539 . S
C685 C681 1.420 . S
C685 C684 1.404 . S
C685 H697 0.930 . S
C686 C682 1.524 . S
C686 H698 0.956 . S
C686 H699 0.961 . S
C686 H700 0.961 . S
C687 C684 1.539 . S
C687 H701 0.958 . S
C687 H702 0.961 . S
C687 H703 0.960 . S
H688 C672 0.931 . S
H689 C677 0.929 . S
H690 C678 0.963 . S
H691 C678 0.962 . S
H692 C678 0.960 . S
H693 C679 0.961 1_565 S
H694 C679 0.958 1_665 S
H695 C679 0.961 . S
H696 C680 0.931 . S
H697 C685 0.930 . S
H698 C686 0.956 . S
H699 C686 0.961 . S
H700 C686 0.961 . S
H701 C687 0.958 . S
H702 C687 0.961 . S
H703 C687 0.960 . S
C704 C705 1.391 . S
C704 C706 1.394 . S
C704 H720 0.931 . S
C705 C704 1.391 . S
C705 C709 1.376 . S
C706 C704 1.394 . S
C706 C707 1.369 . S
C706 C710 1.531 . S
C707 C706 1.369 . S
C707 C708 1.410 . S
C707 C715 1.503 . S
C708 C707 1.410 . S
C708 C709 1.392 . S
C708 C711 1.511 . S
C709 C705 1.376 . S
C709 C708 1.392 . S
C709 H721 0.929 . S
C710 C706 1.531 . S
C710 H722 0.960 . S
C710 H723 0.962 . S
C710 H724 0.960 . S
C711 C708 1.511 . S
C711 H725 0.961 . S
C711 H726 0.961 . S
C711 H727 0.961 . S
C712 C713 1.370 . S
C712 C714 1.363 . S
C712 H728 0.931 . S
C713 C712 1.370 . S
C713 C717 1.408 . S
C714 C712 1.363 . S
C714 C715 1.370 . S
C714 C718 1.524 . S
C715 C707 1.503 . S
C715 C714 1.370 . S
C715 C716 1.403 . S
C716 C715 1.403 . S
C716 C717 1.404 . S
C716 C719 1.539 . S
C717 C713 1.408 . S
C717 C716 1.404 . S
C717 H729 0.930 . S
C718 C714 1.524 . S
C718 H730 0.956 . S
C718 H731 0.961 . S
C718 H732 0.961 . S
C719 C716 1.539 . S
C719 H733 0.958 . S
C719 H734 0.961 . S
C719 H735 0.960 . S
H720 C704 0.931 . S
H721 C709 0.929 . S
H722 C710 0.960 . S
H723 C710 0.962 . S
H724 C710 0.960 . S
H725 C711 0.961 . S
H726 C711 0.961 . S
H727 C711 0.961 . S
H728 C712 0.931 . S
H729 C717 0.930 . S
H730 C718 0.956 . S
H731 C718 0.961 . S
H732 C718 0.961 . S
H733 C719 0.958 . S
H734 C719 0.961 . S
H735 C719 0.960 . S
C736 C737 1.391 . S
C736 C738 1.394 . S
C736 H752 0.931 . S
C737 C736 1.391 . S
C737 C741 1.376 . S
C738 C736 1.394 . S
C738 C739 1.369 . S
C738 C742 1.531 . S
C739 C738 1.369 . S
C739 C740 1.410 . S
C739 C747 1.503 . S
C740 C739 1.410 . S
C740 C741 1.392 . S
C740 C743 1.511 . S
C741 C737 1.376 . S
C741 C740 1.392 . S
C741 H753 0.929 . S
C742 C738 1.531 . S
C742 H754 0.960 . S
C742 H755 0.962 . S
C742 H756 0.960 . S
C743 C740 1.511 . S
C743 H757 0.961 . S
C743 H758 0.961 . S
C743 H759 0.961 . S
C744 C745 1.370 . S
C744 C746 1.363 . S
C744 H760 0.931 . S
C745 C744 1.370 . S
C745 C749 1.408 . S
C746 C744 1.363 . S
C746 C747 1.370 . S
C746 C750 1.524 . S
C747 C739 1.503 . S
C747 C746 1.370 . S
C747 C748 1.403 . S
C748 C747 1.403 . S
C748 C749 1.404 . S
C748 C751 1.539 . S
C749 C745 1.408 . S
C749 C748 1.404 . S
C749 H761 0.930 . S
C750 C746 1.524 . S
C750 H762 0.956 . S
C750 H763 0.961 . S
C750 H764 0.961 . S
C751 C748 1.539 . S
C751 H765 0.958 . S
C751 H766 0.961 . S
C751 H767 0.960 . S
H752 C736 0.931 . S
H753 C741 0.929 . S
H754 C742 0.960 . S
H755 C742 0.962 . S
H756 C742 0.960 . S
H757 C743 0.961 . S
H758 C743 0.961 . S
H759 C743 0.961 . S
H760 C744 0.931 . S
H761 C749 0.930 . S
H762 C750 0.956 . S
H763 C750 0.961 . S
H764 C750 0.961 . S
H765 C751 0.958 . S
H766 C751 0.961 . S
H767 C751 0.960 . S
C768 C769 1.391 . S
C768 C770 1.394 . S
C768 H784 0.931 . S
C769 C768 1.391 . S
C769 C773 1.376 . S
C770 C768 1.394 . S
C770 C771 1.369 . S
C770 C774 1.531 . S
C771 C770 1.369 . S
C771 C772 1.410 . S
C771 C779 1.503 . S
C772 C771 1.410 . S
C772 C773 1.392 . S
C772 C775 1.511 . S
C773 C769 1.376 . S
C773 C772 1.392 . S
C773 H785 0.929 . S
C774 C770 1.531 . S
C774 H786 0.960 . S
C774 H787 0.962 . S
C774 H788 0.960 . S
C775 C772 1.511 . S
C775 H789 0.961 . S
C775 H790 0.961 . S
C775 H791 0.961 . S
C776 C777 1.370 . S
C776 C778 1.363 . S
C776 H792 0.931 . S
C777 C776 1.370 . S
C777 C781 1.408 . S
C778 C776 1.363 . S
C778 C779 1.370 . S
C778 C782 1.524 . S
C779 C771 1.503 . S
C779 C778 1.370 . S
C779 C780 1.403 . S
C780 C779 1.403 . S
C780 C781 1.404 . S
C780 C783 1.539 . S
C781 C777 1.408 . S
C781 C780 1.404 . S
C781 H793 0.930 . S
C782 C778 1.524 . S
C782 H794 0.956 . S
C782 H795 0.961 . S
C782 H796 0.961 . S
C783 C780 1.539 . S
C783 H797 0.958 . S
C783 H798 0.961 . S
C783 H799 0.960 . S
H784 C768 0.931 . S
H785 C773 0.929 . S
H786 C774 0.960 . S
H787 C774 0.962 . S
H788 C774 0.960 . S
H789 C775 0.961 . S
H790 C775 0.961 . S
H791 C775 0.961 . S
H792 C776 0.931 . S
H793 C781 0.930 . S
H794 C782 0.956 . S
H795 C782 0.961 . S
H796 C782 0.961 . S
H797 C783 0.958 . S
H798 C783 0.961 . S
H799 C783 0.960 . S
C800 C801 1.391 . S
C800 C802 1.394 . S
C800 H816 0.931 . S
C801 C800 1.391 . S
C801 C805 1.376 . S
C802 C800 1.394 . S
C802 C803 1.369 . S
C802 C806 1.531 . S
C803 C802 1.369 . S
C803 C804 1.410 . S
C803 C811 1.503 . S
C804 C803 1.410 . S
C804 C805 1.392 . S
C804 C807 1.511 . S
C805 C801 1.376 . S
C805 C804 1.392 . S
C805 H817 0.929 . S
C806 C802 1.531 . S
C806 H818 0.960 . S
C806 H819 0.962 . S
C806 H820 0.960 . S
C807 C804 1.511 . S
C807 H821 0.961 . S
C807 H822 0.961 . S
C807 H823 0.961 . S
C808 C809 1.370 1_545 S
C808 C810 1.363 . S
C808 H824 0.931 . S
C809 C808 1.370 1_565 S
C809 C813 1.408 . S
C810 C808 1.363 . S
C810 C811 1.370 1_545 S
C810 C814 1.524 . S
C811 C803 1.503 . S
C811 C810 1.370 1_565 S
C811 C812 1.403 . S
C812 C811 1.403 . S
C812 C813 1.404 . S
C812 C815 1.539 . S
C813 C809 1.408 . S
C813 C812 1.404 . S
C813 H825 0.930 . S
C814 C810 1.524 . S
C814 H826 0.956 . S
C814 H827 0.961 . S
C814 H828 0.961 . S
C815 C812 1.539 . S
C815 H829 0.958 . S
C815 H830 0.961 . S
C815 H831 0.960 . S
H816 C800 0.931 . S
H817 C805 0.929 . S
H818 C806 0.960 . S
H819 C806 0.962 . S
H820 C806 0.960 . S
H821 C807 0.961 . S
H822 C807 0.961 . S
H823 C807 0.961 . S
H824 C808 0.931 . S
H825 C813 0.930 . S
H826 C814 0.956 . S
H827 C814 0.961 . S
H828 C814 0.961 . S
H829 C815 0.958 . S
H830 C815 0.961 . S
H831 C815 0.960 . S
C832 C833 1.391 . S
C832 C834 1.394 . S
C832 H848 0.931 . S
C833 C832 1.391 . S
C833 C837 1.376 . S
C834 C832 1.394 . S
C834 C835 1.369 . S
C834 C838 1.531 . S
C835 C834 1.369 . S
C835 C836 1.410 . S
C835 C843 1.503 . S
C836 C835 1.410 . S
C836 C837 1.392 . S
C836 C839 1.511 . S
C837 C833 1.376 . S
C837 C836 1.392 . S
C837 H849 0.929 . S
C838 C834 1.531 . S
C838 H850 0.960 . S
C838 H851 0.962 . S
C838 H852 0.960 . S
C839 C836 1.511 . S
C839 H853 0.961 . S
C839 H854 0.961 . S
C839 H855 0.961 . S
C840 C841 1.370 . S
C840 C842 1.363 . S
C840 H856 0.931 . S
C841 C840 1.370 . S
C841 C845 1.408 . S
C842 C840 1.363 . S
C842 C843 1.370 . S
C842 C846 1.524 . S
C843 C835 1.503 . S
C843 C842 1.370 . S
C843 C844 1.403 . S
C844 C843 1.403 . S
C844 C845 1.404 . S
C844 C847 1.539 . S
C845 C841 1.408 . S
C845 C844 1.404 . S
C845 H857 0.930 . S
C846 C842 1.524 . S
C846 H858 0.956 . S
C846 H859 0.961 . S
C846 H860 0.961 . S
C847 C844 1.539 . S
C847 H861 0.958 . S
C847 H862 0.961 . S
C847 H863 0.960 . S
H848 C832 0.931 . S
H849 C837 0.929 . S
H850 C838 0.960 . S
H851 C838 0.962 . S
H852 C838 0.960 . S
H853 C839 0.961 . S
H854 C839 0.961 . S
H855 C839 0.961 . S
H856 C840 0.931 . S
H857 C845 0.930 . S
H858 C846 0.956 . S
H859 C846 0.961 . S
H860 C846 0.961 . S
H861 C847 0.958 . S
H862 C847 0.961 . S
H863 C847 0.960 . S
C864 C865 1.391 . S
C864 C866 1.394 . S
C864 H880 0.931 . S
C865 C864 1.391 . S
C865 C869 1.376 . S
C866 C864 1.394 . S
C866 C867 1.369 . S
C866 C870 1.531 . S
C867 C866 1.369 . S
C867 C868 1.410 . S
C867 C875 1.503 . S
C868 C867 1.410 . S
C868 C869 1.392 . S
C868 C871 1.511 . S
C869 C865 1.376 . S
C869 C868 1.392 . S
C869 H881 0.929 . S
C870 C866 1.531 . S
C870 H882 0.960 . S
C870 H883 0.962 . S
C870 H884 0.960 . S
C871 C868 1.511 . S
C871 H885 0.961 . S
C871 H886 0.961 . S
C871 H887 0.961 . S
C872 C873 1.370 . S
C872 C874 1.363 . S
C872 H888 0.931 . S
C873 C872 1.370 . S
C873 C877 1.408 . S
C874 C872 1.363 . S
C874 C875 1.370 . S
C874 C878 1.524 . S
C875 C867 1.503 . S
C875 C874 1.370 . S
C875 C876 1.403 . S
C876 C875 1.403 . S
C876 C877 1.404 . S
C876 C879 1.539 . S
C877 C873 1.408 . S
C877 C876 1.404 . S
C877 H889 0.930 . S
C878 C874 1.524 . S
C878 H890 0.956 . S
C878 H891 0.961 . S
C878 H892 0.961 . S
C879 C876 1.539 . S
C879 H893 0.958 . S
C879 H894 0.961 . S
C879 H895 0.960 . S
H880 C864 0.931 . S
H881 C869 0.929 . S
H882 C870 0.960 . S
H883 C870 0.962 . S
H884 C870 0.960 . S
H885 C871 0.961 . S
H886 C871 0.961 . S
H887 C871 0.961 . S
H888 C872 0.931 . S
H889 C877 0.930 . S
H890 C878 0.956 . S
H891 C878 0.961 . S
H892 C878 0.961 . S
H893 C879 0.958 . S
H894 C879 0.961 . S
H895 C879 0.960 . S
C896 C897 1.391 . S
C896 C898 1.394 . S
C896 H912 0.931 . S
C897 C896 1.391 . S
C897 C901 1.376 . S
C898 C896 1.394 . S
C898 C899 1.369 . S
C898 C902 1.531 . S
C899 C898 1.369 . S
C899 C900 1.410 . S
C899 C907 1.503 . S
C900 C899 1.410 . S
C900 C901 1.392 . S
C900 C903 1.511 . S
C901 C897 1.376 . S
C901 C900 1.392 . S
C901 H913 0.929 . S
C902 C898 1.531 . S
C902 H914 0.960 . S
C902 H915 0.962 . S
C902 H916 0.960 . S
C903 C900 1.511 . S
C903 H917 0.961 . S
C903 H918 0.961 . S
C903 H919 0.961 . S
C904 C905 1.370 . S
C904 C906 1.363 . S
C904 H920 0.931 . S
C905 C904 1.370 . S
C905 C909 1.408 . S
C906 C904 1.363 . S
C906 C907 1.370 . S
C906 C910 1.524 . S
C907 C899 1.503 . S
C907 C906 1.370 . S
C907 C908 1.403 . S
C908 C907 1.403 . S
C908 C909 1.404 . S
C908 C911 1.539 . S
C909 C905 1.408 . S
C909 C908 1.404 . S
C909 H921 0.930 . S
C910 C906 1.524 . S
C910 H922 0.956 . S
C910 H923 0.961 . S
C910 H924 0.961 . S
C911 C908 1.539 . S
C911 H925 0.958 . S
C911 H926 0.961 . S
C911 H927 0.960 . S
H912 C896 0.931 . S
H913 C901 0.929 . S
H914 C902 0.960 . S
H915 C902 0.962 . S
H916 C902 0.960 . S
H917 C903 0.961 . S
H918 C903 0.961 . S
H919 C903 0.961 . S
H920 C904 0.931 . S
H921 C909 0.930 . S
H922 C910 0.956 . S
H923 C910 0.961 . S
H924 C910 0.961 . S
H925 C911 0.958 . S
H926 C911 0.961 . S
H927 C911 0.960 . S
C928 C929 1.391 . S
C928 C930 1.394 . S
C928 H944 0.931 . S
C929 C928 1.391 . S
C929 C933 1.376 . S
C930 C928 1.394 . S
C930 C931 1.369 . S
C930 C934 1.531 . S
C931 C930 1.369 . S
C931 C932 1.410 . S
C931 C939 1.503 . S
C932 C931 1.410 . S
C932 C933 1.392 . S
C932 C935 1.511 . S
C933 C929 1.376 . S
C933 C932 1.392 . S
C933 H945 0.929 . S
C934 C930 1.531 . S
C934 H946 0.960 . S
C934 H947 0.962 . S
C934 H948 0.960 . S
C935 C932 1.511 . S
C935 H949 0.961 . S
C935 H950 0.961 . S
C935 H951 0.961 . S
C936 C937 1.370 . S
C936 C938 1.363 . S
C936 H952 0.931 . S
C937 C936 1.370 . S
C937 C941 1.408 . S
C938 C936 1.363 . S
C938 C939 1.370 . S
C938 C942 1.524 . S
C939 C931 1.503 . S
C939 C938 1.370 . S
C939 C940 1.403 . S
C940 C939 1.403 . S
C940 C941 1.404 . S
C940 C943 1.539 . S
C941 C937 1.408 . S
C941 C940 1.404 . S
C941 H953 0.930 . S
C942 C938 1.524 . S
C942 H954 0.956 . S
C942 H955 0.961 . S
C942 H956 0.961 . S
C943 C940 1.539 . S
C943 H957 0.958 . S
C943 H958 0.961 . S
C943 H959 0.960 . S
H944 C928 0.931 . S
H945 C933 0.929 . S
H946 C934 0.960 . S
H947 C934 0.962 . S
H948 C934 0.960 . S
H949 C935 0.961 . S
H950 C935 0.961 . S
H951 C935 0.961 . S
H952 C936 0.931 . S
H953 C941 0.930 . S
H954 C942 0.956 . S
H955 C942 0.961 . S
H956 C942 0.961 . S
H957 C943 0.958 . S
H958 C943 0.961 . S
H959 C943 0.960 . S
C960 C961 1.391 . S
C960 C962 1.394 . S
C960 H976 0.931 . S
C961 C960 1.391 . S
C961 C965 1.376 . S
C962 C960 1.394 . S
C962 C963 1.369 . S
C962 C966 1.531 . S
C963 C962 1.369 . S
C963 C964 1.410 . S
C963 C971 1.503 . S
C964 C963 1.410 . S
C964 C965 1.392 . S
C964 C967 1.511 . S
C965 C961 1.376 . S
C965 C964 1.392 . S
C965 H977 0.929 . S
C966 C962 1.531 . S
C966 H978 0.960 . S
C966 H979 0.962 . S
C966 H980 0.960 . S
C967 C964 1.511 . S
C967 H981 0.961 . S
C967 H982 0.961 . S
C967 H983 0.961 . S
C968 C969 1.370 . S
C968 C970 1.363 . S
C968 H984 0.931 . S
C969 C968 1.370 . S
C969 C973 1.408 . S
C970 C968 1.363 . S
C970 C971 1.370 . S
C970 C974 1.524 . S
C971 C963 1.503 . S
C971 C970 1.370 . S
C971 C972 1.403 . S
C972 C971 1.403 . S
C972 C973 1.404 . S
C972 C975 1.539 . S
C973 C969 1.408 . S
C973 C972 1.404 . S
C973 H985 0.930 . S
C974 C970 1.524 . S
C974 H986 0.956 . S
C974 H987 0.961 . S
C974 H988 0.961 . S
C975 C972 1.539 . S
C975 H989 0.958 . S
C975 H990 0.961 . S
C975 H991 0.960 . S
H976 C960 0.931 . S
H977 C965 0.929 . S
H978 C966 0.960 . S
H979 C966 0.962 . S
H980 C966 0.960 . S
H981 C967 0.961 . S
H982 C967 0.961 . S
H983 C967 0.961 . S
H984 C968 0.931 . S
H985 C973 0.930 . S
H986 C974 0.956 . S
H987 C974 0.961 . S
H988 C974 0.961 . S
H989 C975 0.958 . S
H990 C975 0.961 . S
H991 C975 0.960 . S
C992 C993 1.391 . S
C992 C994 1.394 . S
C992 H1008 0.931 . S
C993 C992 1.391 . S
C993 C997 1.376 . S
C994 C992 1.394 . S
C994 C995 1.369 . S
C994 C998 1.531 1_455 S
C995 C994 1.369 . S
C995 C996 1.410 . S
C995 C1003 1.503 . S
C996 C995 1.410 . S
C996 C997 1.392 . S
C996 C999 1.511 . S
C997 C993 1.376 . S
C997 C996 1.392 . S
C997 H1009 0.929 . S
C998 C994 1.531 1_655 S
C998 H1010 0.960 . S
C998 H1011 0.962 . S
C998 H1012 0.960 . S
C999 C996 1.511 . S
C999 H1013 0.961 . S
C999 H1014 0.961 . S
C999 H1015 0.961 . S
C1000 C1001 1.369 . S
C1000 C1002 1.363 . S
C1000 H1016 0.932 1_455 S
C1001 C1000 1.369 . S
C1001 C1005 1.408 . S
C1002 C1000 1.363 . S
C1002 C1003 1.370 . S
C1002 C1006 1.524 1_455 S
C1003 C995 1.503 . S
C1003 C1002 1.370 . S
C1003 C1004 1.403 . S
C1004 C1003 1.403 . S
C1004 C1005 1.404 . S
C1004 C1007 1.539 . S
C1005 C1001 1.408 . S
C1005 C1004 1.404 . S
C1005 H1017 0.930 . S
C1006 C1002 1.524 1_655 S
C1006 H1018 0.956 . S
C1006 H1019 0.961 1_655 S
C1006 H1020 0.961 . S
C1007 C1004 1.539 . S
C1007 H1021 0.958 . S
C1007 H1022 0.961 . S
C1007 H1023 0.960 . S
H1008 C992 0.931 . S
H1009 C997 0.929 . S
H1010 C998 0.960 . S
H1011 C998 0.962 . S
H1012 C998 0.960 . S
H1013 C999 0.961 . S
H1014 C999 0.961 . S
H1015 C999 0.961 . S
H1016 C1000 0.932 1_655 S
H1017 C1005 0.930 . S
H1018 C1006 0.956 . S
H1019 C1006 0.961 1_455 S
H1020 C1006 0.961 . S
H1021 C1007 0.958 . S
H1022 C1007 0.961 . S
H1023 C1007 0.960 . S
C1024 C1025 1.391 . S
C1024 C1026 1.394 . S
C1024 H1040 0.931 . S
C1025 C1024 1.391 . S
C1025 C1029 1.376 . S
C1026 C1024 1.394 . S
C1026 C1027 1.369 . S
C1026 C1030 1.531 . S
C1027 C1026 1.369 . S
C1027 C1028 1.410 . S
C1027 C1035 1.503 . S
C1028 C1027 1.410 . S
C1028 C1029 1.392 . S
C1028 C1031 1.511 . S
C1029 C1025 1.376 . S
C1029 C1028 1.392 . S
C1029 H1041 0.929 . S
C1030 C1026 1.531 . S
C1030 H1042 0.960 . S
C1030 H1043 0.962 . S
C1030 H1044 0.960 . S
C1031 C1028 1.511 . S
C1031 H1045 0.961 . S
C1031 H1046 0.961 . S
C1031 H1047 0.961 . S
C1032 C1033 1.370 . S
C1032 C1034 1.363 . S
C1032 H1048 0.931 . S
C1033 C1032 1.370 . S
C1033 C1037 1.408 . S
C1034 C1032 1.363 . S
C1034 C1035 1.370 . S
C1034 C1038 1.524 . S
C1035 C1027 1.503 . S
C1035 C1034 1.370 . S
C1035 C1036 1.403 . S
C1036 C1035 1.403 . S
C1036 C1037 1.404 . S
C1036 C1039 1.539 . S
C1037 C1033 1.408 . S
C1037 C1036 1.404 . S
C1037 H1049 0.930 . S
C1038 C1034 1.524 . S
C1038 H1050 0.956 . S
C1038 H1051 0.961 . S
C1038 H1052 0.961 . S
C1039 C1036 1.539 . S
C1039 H1053 0.958 . S
C1039 H1054 0.961 . S
C1039 H1055 0.960 . S
H1040 C1024 0.931 . S
H1041 C1029 0.929 . S
H1042 C1030 0.960 . S
H1043 C1030 0.962 . S
H1044 C1030 0.960 . S
H1045 C1031 0.961 . S
H1046 C1031 0.961 . S
H1047 C1031 0.961 . S
H1048 C1032 0.931 . S
H1049 C1037 0.930 . S
H1050 C1038 0.956 . S
H1051 C1038 0.961 . S
H1052 C1038 0.961 . S
H1053 C1039 0.958 . S
H1054 C1039 0.961 . S
H1055 C1039 0.960 . S
C1056 C1057 1.391 1_455 S
C1056 C1058 1.394 . S
C1056 H1072 0.931 . S
C1057 C1056 1.391 1_655 S
C1057 C1061 1.376 . S
C1058 C1056 1.394 . S
C1058 C1059 1.369 1_455 S
C1058 C1062 1.531 . S
C1059 C1058 1.369 1_655 S
C1059 C1060 1.410 . S
C1059 C1067 1.503 . S
C1060 C1059 1.410 . S
C1060 C1061 1.392 . S
C1060 C1063 1.511 . S
C1061 C1057 1.376 . S
C1061 C1060 1.392 . S
C1061 H1073 0.929 . S
C1062 C1058 1.531 . S
C1062 H1074 0.960 . S
C1062 H1075 0.962 . S
C1062 H1076 0.960 . S
C1063 C1060 1.511 . S
C1063 H1077 0.961 . S
C1063 H1078 0.961 . S
C1063 H1079 0.961 . S
C1064 C1065 1.370 1_455 S
C1064 C1066 1.363 1_455 S
C1064 H1080 0.931 . S
C1065 C1064 1.370 1_655 S
C1065 C1069 1.408 . S
C1066 C1064 1.363 1_655 S
C1066 C1067 1.370 . S
C1066 C1070 1.524 1_655 S
C1067 C1059 1.503 . S
C1067 C1066 1.370 . S
C1067 C1068 1.403 . S
C1068 C1067 1.403 . S
C1068 C1069 1.404 . S
C1068 C1071 1.539 . S
C1069 C1065 1.408 . S
C1069 C1068 1.404 . S
C1069 H1081 0.930 . S
C1070 C1066 1.524 1_455 S
C1070 H1082 0.956 . S
C1070 H1083 0.961 1_455 S
C1070 H1084 0.961 . S
C1071 C1068 1.539 . S
C1071 H1085 0.958 . S
C1071 H1086 0.961 . S
C1071 H1087 0.960 . S
H1072 C1056 0.931 . S
H1073 C1061 0.929 . S
H1074 C1062 0.960 . S
H1075 C1062 0.962 . S
H1076 C1062 0.960 . S
H1077 C1063 0.961 . S
H1078 C1063 0.961 . S
H1079 C1063 0.961 . S
H1080 C1064 0.931 . S
H1081 C1069 0.930 . S
H1082 C1070 0.956 . S
H1083 C1070 0.961 1_655 S
H1084 C1070 0.961 . S
H1085 C1071 0.958 . S
H1086 C1071 0.961 . S
H1087 C1071 0.960 . S
C1088 C1089 1.391 . S
C1088 C1090 1.394 . S
C1088 H1104 0.931 . S
C1089 C1088 1.391 . S
C1089 C1093 1.376 . S
C1090 C1088 1.394 . S
C1090 C1091 1.369 . S
C1090 C1094 1.531 . S
C1091 C1090 1.369 . S
C1091 C1092 1.410 . S
C1091 C1099 1.503 . S
C1092 C1091 1.410 . S
C1092 C1093 1.392 . S
C1092 C1095 1.511 . S
C1093 C1089 1.376 . S
C1093 C1092 1.392 . S
C1093 H1105 0.929 . S
C1094 C1090 1.531 . S
C1094 H1106 0.960 . S
C1094 H1107 0.962 . S
C1094 H1108 0.960 . S
C1095 C1092 1.511 . S
C1095 H1109 0.961 . S
C1095 H1110 0.961 . S
C1095 H1111 0.961 . S
C1096 C1097 1.370 . S
C1096 C1098 1.363 . S
C1096 H1112 0.931 . S
C1097 C1096 1.370 . S
C1097 C1101 1.408 . S
C1098 C1096 1.363 . S
C1098 C1099 1.370 . S
C1098 C1102 1.524 . S
C1099 C1091 1.503 . S
C1099 C1098 1.370 . S
C1099 C1100 1.403 . S
C1100 C1099 1.403 . S
C1100 C1101 1.404 . S
C1100 C1103 1.539 . S
C1101 C1097 1.408 . S
C1101 C1100 1.404 . S
C1101 H1113 0.930 . S
C1102 C1098 1.524 . S
C1102 H1114 0.956 . S
C1102 H1115 0.961 . S
C1102 H1116 0.961 . S
C1103 C1100 1.539 . S
C1103 H1117 0.958 . S
C1103 H1118 0.961 . S
C1103 H1119 0.960 . S
H1104 C1088 0.931 . S
H1105 C1093 0.929 . S
H1106 C1094 0.960 . S
H1107 C1094 0.962 . S
H1108 C1094 0.960 . S
H1109 C1095 0.961 . S
H1110 C1095 0.961 . S
H1111 C1095 0.961 . S
H1112 C1096 0.931 . S
H1113 C1101 0.930 . S
H1114 C1102 0.956 . S
H1115 C1102 0.961 . S
H1116 C1102 0.961 . S
H1117 C1103 0.958 . S
H1118 C1103 0.961 . S
H1119 C1103 0.960 . S
C1120 C1121 1.391 . S
C1120 C1122 1.394 . S
C1120 H1136 0.931 . S
C1121 C1120 1.391 . S
C1121 C1125 1.376 . S
C1122 C1120 1.394 . S
C1122 C1123 1.369 . S
C1122 C1126 1.531 . S
C1123 C1122 1.369 . S
C1123 C1124 1.410 . S
C1123 C1131 1.503 . S
C1124 C1123 1.410 . S
C1124 C1125 1.392 . S
C1124 C1127 1.511 . S
C1125 C1121 1.376 . S
C1125 C1124 1.392 . S
C1125 H1137 0.929 . S
C1126 C1122 1.531 . S
C1126 H1138 0.960 . S
C1126 H1139 0.962 . S
C1126 H1140 0.960 . S
C1127 C1124 1.511 . S
C1127 H1141 0.961 . S
C1127 H1142 0.961 . S
C1127 H1143 0.961 . S
C1128 C1129 1.370 . S
C1128 C1130 1.363 . S
C1128 H1144 0.931 . S
C1129 C1128 1.370 . S
C1129 C1133 1.408 . S
C1130 C1128 1.363 . S
C1130 C1131 1.370 . S
C1130 C1134 1.524 . S
C1131 C1123 1.503 . S
C1131 C1130 1.370 . S
C1131 C1132 1.403 . S
C1132 C1131 1.403 . S
C1132 C1133 1.404 . S
C1132 C1135 1.539 . S
C1133 C1129 1.408 . S
C1133 C1132 1.404 . S
C1133 H1145 0.930 . S
C1134 C1130 1.524 . S
C1134 H1146 0.956 . S
C1134 H1147 0.961 . S
C1134 H1148 0.961 . S
C1135 C1132 1.539 . S
C1135 H1149 0.958 . S
C1135 H1150 0.961 . S
C1135 H1151 0.960 . S
H1136 C1120 0.931 . S
H1137 C1125 0.929 . S
H1138 C1126 0.960 . S
H1139 C1126 0.962 . S
H1140 C1126 0.960 . S
H1141 C1127 0.961 . S
H1142 C1127 0.961 . S
H1143 C1127 0.961 . S
H1144 C1128 0.931 . S
H1145 C1133 0.930 . S
H1146 C1134 0.956 . S
H1147 C1134 0.961 . S
H1148 C1134 0.961 . S
H1149 C1135 0.958 . S
H1150 C1135 0.961 . S
H1151 C1135 0.960 . S
C1152 C1153 1.393 . S
C1152 C1154 1.394 1_545 S
C1152 H1168 0.931 . S
C1153 C1152 1.393 . S
C1153 C1157 1.362 1_545 S
C1154 C1152 1.394 1_565 S
C1154 C1155 1.369 . S
C1154 C1158 1.531 . S
C1155 C1154 1.369 . S
C1155 C1156 1.410 1_556 S
C1155 C1163 1.503 . S
C1156 C1155 1.410 1_554 S
C1156 C1157 1.392 1_554 S
C1156 C1159 1.511 . S
C1157 C1153 1.362 1_565 S
C1157 C1156 1.392 1_556 S
C1157 H1169 0.929 1_556 S
C1158 C1154 1.531 . S
C1158 H1170 0.960 . S
C1158 H1171 0.962 . S
C1158 H1172 0.960 . S
C1159 C1156 1.511 . S
C1159 H1173 0.961 . S
C1159 H1174 0.961 . S
C1159 H1175 0.961 . S
C1160 C1161 1.382 . S
C1160 C1162 1.363 . S
C1160 H1176 0.931 . S
C1161 C1160 1.382 . S
C1161 C1165 1.390 1_554 S
C1162 C1160 1.363 . S
C1162 C1163 1.370 1_554 S
C1162 C1166 1.524 . S
C1163 C1155 1.503 . S
C1163 C1162 1.370 1_556 S
C1163 C1164 1.403 . S
C1164 C1163 1.403 . S
C1164 C1165 1.404 . S
C1164 C1167 1.539 . S
C1165 C1161 1.390 1_556 S
C1165 C1164 1.404 . S
C1165 H1177 0.930 . S
C1166 C1162 1.524 . S
C1166 H1178 0.980 . S
C1166 H1179 0.961 . S
C1166 H1180 0.961 . S
C1167 C1164 1.539 . S
C1167 H1181 0.958 . S
C1167 H1182 0.961 . S
C1167 H1183 0.960 . S
H1168 C1152 0.931 . S
H1169 C1157 0.929 1_554 S
H1170 C1158 0.960 . S
H1171 C1158 0.962 . S
H1172 C1158 0.960 . S
H1173 C1159 0.961 . S
H1174 C1159 0.961 . S
H1175 C1159 0.961 . S
H1176 C1160 0.931 . S
H1177 C1165 0.930 . S
H1178 C1166 0.980 . S
H1179 C1166 0.961 . S
H1180 C1166 0.961 . S
H1181 C1167 0.958 . S
H1182 C1167 0.961 . S
H1183 C1167 0.960 . S
C1184 C1185 1.391 . S
C1184 C1186 1.394 . S
C1184 H1200 0.931 . S
C1185 C1184 1.391 . S
C1185 C1189 1.376 . S
C1186 C1184 1.394 . S
C1186 C1187 1.369 . S
C1186 C1190 1.531 . S
C1187 C1186 1.369 . S
C1187 C1188 1.410 . S
C1187 C1195 1.503 . S
C1188 C1187 1.410 . S
C1188 C1189 1.392 . S
C1188 C1191 1.511 . S
C1189 C1185 1.376 . S
C1189 C1188 1.392 . S
C1189 H1201 0.929 . S
C1190 C1186 1.531 . S
C1190 H1202 0.960 . S
C1190 H1203 0.962 . S
C1190 H1204 0.960 . S
C1191 C1188 1.511 . S
C1191 H1205 0.961 . S
C1191 H1206 0.961 . S
C1191 H1207 0.961 . S
C1192 C1193 1.370 . S
C1192 C1194 1.363 . S
C1192 H1208 0.931 . S
C1193 C1192 1.370 . S
C1193 C1197 1.408 . S
C1194 C1192 1.363 . S
C1194 C1195 1.370 . S
C1194 C1198 1.524 . S
C1195 C1187 1.503 . S
C1195 C1194 1.370 . S
C1195 C1196 1.403 . S
C1196 C1195 1.403 . S
C1196 C1197 1.404 . S
C1196 C1199 1.539 . S
C1197 C1193 1.408 . S
C1197 C1196 1.404 . S
C1197 H1209 0.930 . S
C1198 C1194 1.524 . S
C1198 H1210 0.956 . S
C1198 H1211 0.961 . S
C1198 H1212 0.961 . S
C1199 C1196 1.539 . S
C1199 H1213 0.958 . S
C1199 H1214 0.961 . S
C1199 H1215 0.960 . S
H1200 C1184 0.931 . S
H1201 C1189 0.929 . S
H1202 C1190 0.960 . S
H1203 C1190 0.962 . S
H1204 C1190 0.960 . S
H1205 C1191 0.961 . S
H1206 C1191 0.961 . S
H1207 C1191 0.961 . S
H1208 C1192 0.931 . S
H1209 C1197 0.930 . S
H1210 C1198 0.956 . S
H1211 C1198 0.961 . S
H1212 C1198 0.961 . S
H1213 C1199 0.958 . S
H1214 C1199 0.961 . S
H1215 C1199 0.960 . S
C1216 C1217 1.391 . S
C1216 C1218 1.394 . S
C1216 H1232 0.942 . S
C1217 C1216 1.391 . S
C1217 C1221 1.376 . S
C1218 C1216 1.394 . S
C1218 C1219 1.369 . S
C1218 C1222 1.531 . S
C1219 C1218 1.369 . S
C1219 C1220 1.410 . S
C1219 C1227 1.503 . S
C1220 C1219 1.410 . S
C1220 C1221 1.392 . S
C1220 C1223 1.511 . S
C1221 C1217 1.376 . S
C1221 C1220 1.392 . S
C1221 H1233 0.929 . S
C1222 C1218 1.531 . S
C1222 H1234 0.960 . S
C1222 H1235 0.962 . S
C1222 H1236 0.960 . S
C1223 C1220 1.511 . S
C1223 H1237 0.961 . S
C1223 H1238 0.961 . S
C1223 H1239 0.961 . S
C1224 C1225 1.370 . S
C1224 C1226 1.363 . S
C1224 H1240 0.931 . S
C1225 C1224 1.370 . S
C1225 C1229 1.408 . S
C1226 C1224 1.363 . S
C1226 C1227 1.370 . S
C1226 C1230 1.524 . S
C1227 C1219 1.503 . S
C1227 C1226 1.370 . S
C1227 C1228 1.403 . S
C1228 C1227 1.403 . S
C1228 C1229 1.404 . S
C1228 C1231 1.539 . S
C1229 C1225 1.408 . S
C1229 C1228 1.404 . S
C1229 H1241 0.930 . S
C1230 C1226 1.524 . S
C1230 H1242 0.956 . S
C1230 H1243 0.961 . S
C1230 H1244 0.961 . S
C1231 C1228 1.539 . S
C1231 H1245 0.958 . S
C1231 H1246 0.961 . S
C1231 H1247 0.960 . S
H1232 C1216 0.942 . S
H1233 C1221 0.929 . S
H1234 C1222 0.960 . S
H1235 C1222 0.962 . S
H1236 C1222 0.960 . S
H1237 C1223 0.961 . S
H1238 C1223 0.961 . S
H1239 C1223 0.961 . S
H1240 C1224 0.931 . S
H1241 C1229 0.930 . S
H1242 C1230 0.956 . S
H1243 C1230 0.961 . S
H1244 C1230 0.961 . S
H1245 C1231 0.958 . S
H1246 C1231 0.961 . S
H1247 C1231 0.960 . S
C1248 C1249 1.391 . S
C1248 C1250 1.394 . S
C1248 H1264 0.931 . S
C1249 C1248 1.391 . S
C1249 C1253 1.376 . S
C1250 C1248 1.394 . S
C1250 C1251 1.369 . S
C1250 C1254 1.531 . S
C1251 C1250 1.369 . S
C1251 C1252 1.410 . S
C1251 C1259 1.503 . S
C1252 C1251 1.410 . S
C1252 C1253 1.392 . S
C1252 C1255 1.511 . S
C1253 C1249 1.376 . S
C1253 C1252 1.392 . S
C1253 H1265 0.929 . S
C1254 C1250 1.531 . S
C1254 H1266 0.960 . S
C1254 H1267 0.962 . S
C1254 H1268 0.960 . S
C1255 C1252 1.511 . S
C1255 H1269 0.961 . S
C1255 H1270 0.961 . S
C1255 H1271 0.961 . S
C1256 C1257 1.370 . S
C1256 C1258 1.363 . S
C1256 H1272 0.931 . S
C1257 C1256 1.370 . S
C1257 C1261 1.408 . S
C1258 C1256 1.363 . S
C1258 C1259 1.370 . S
C1258 C1262 1.524 . S
C1259 C1251 1.503 . S
C1259 C1258 1.370 . S
C1259 C1260 1.403 . S
C1260 C1259 1.403 . S
C1260 C1261 1.404 . S
C1260 C1263 1.539 . S
C1261 C1257 1.408 . S
C1261 C1260 1.404 . S
C1261 H1273 0.930 . S
C1262 C1258 1.524 . S
C1262 H1274 0.956 . S
C1262 H1275 0.961 . S
C1262 H1276 0.961 . S
C1263 C1260 1.539 . S
C1263 H1277 0.958 . S
C1263 H1278 0.961 . S
C1263 H1279 0.960 . S
H1264 C1248 0.931 . S
H1265 C1253 0.929 . S
H1266 C1254 0.960 . S
H1267 C1254 0.962 . S
H1268 C1254 0.960 . S
H1269 C1255 0.961 . S
H1270 C1255 0.961 . S
H1271 C1255 0.961 . S
H1272 C1256 0.931 . S
H1273 C1261 0.930 . S
H1274 C1262 0.956 . S
H1275 C1262 0.961 . S
H1276 C1262 0.961 . S
H1277 C1263 0.958 . S
H1278 C1263 0.961 . S
H1279 C1263 0.960 . S
C1280 C1281 1.391 . S
C1280 C1282 1.394 . S
C1280 H1296 0.931 . S
C1281 C1280 1.391 . S
C1281 C1285 1.373 1_545 S
C1282 C1280 1.394 . S
C1282 C1283 1.369 . S
C1282 C1286 1.531 . S
C1283 C1282 1.369 . S
C1283 C1284 1.410 . S
C1283 C1291 1.503 . S
C1284 C1283 1.410 . S
C1284 C1285 1.377 1_545 S
C1284 C1287 1.511 . S
C1285 C1281 1.373 1_565 S
C1285 C1284 1.377 1_565 S
C1285 H1297 0.948 . S
C1286 C1282 1.531 . S
C1286 H1298 0.960 . S
C1286 H1299 0.962 . S
C1286 H1300 0.960 . S
C1287 C1284 1.511 . S
C1287 H1301 0.961 1_545 S
C1287 H1302 0.961 . S
C1287 H1303 0.961 . S
C1288 C1289 1.370 . S
C1288 C1290 1.363 . S
C1288 H1304 0.931 . S
C1289 C1288 1.370 . S
C1289 C1293 1.408 . S
C1290 C1288 1.363 . S
C1290 C1291 1.370 . S
C1290 C1294 1.524 . S
C1291 C1283 1.503 . S
C1291 C1290 1.370 . S
C1291 C1292 1.403 . S
C1292 C1291 1.403 . S
C1292 C1293 1.404 . S
C1292 C1295 1.539 . S
C1293 C1289 1.408 . S
C1293 C1292 1.404 . S
C1293 H1305 0.930 . S
C1294 C1290 1.524 . S
C1294 H1306 0.956 . S
C1294 H1307 0.961 . S
C1294 H1308 0.961 . S
C1295 C1292 1.539 . S
C1295 H1309 0.958 . S
C1295 H1310 0.961 . S
C1295 H1311 0.960 . S
H1296 C1280 0.931 . S
H1297 C1285 0.948 . S
H1298 C1286 0.960 . S
H1299 C1286 0.962 . S
H1300 C1286 0.960 . S
H1301 C1287 0.961 1_565 S
H1302 C1287 0.961 . S
H1303 C1287 0.961 . S
H1304 C1288 0.931 . S
H1305 C1293 0.930 . S
H1306 C1294 0.956 . S
H1307 C1294 0.961 . S
H1308 C1294 0.961 . S
H1309 C1295 0.958 . S
H1310 C1295 0.961 . S
H1311 C1295 0.960 . S
C1312 C1313 1.391 . S
C1312 C1314 1.394 . S
C1312 H1328 0.931 . S
C1313 C1312 1.391 . S
C1313 C1317 1.376 . S
C1314 C1312 1.394 . S
C1314 C1315 1.369 . S
C1314 C1318 1.531 . S
C1315 C1314 1.369 . S
C1315 C1316 1.410 . S
C1315 C1323 1.503 . S
C1316 C1315 1.410 . S
C1316 C1317 1.392 . S
C1316 C1319 1.511 . S
C1317 C1313 1.376 . S
C1317 C1316 1.392 . S
C1317 H1329 0.929 . S
C1318 C1314 1.531 . S
C1318 H1330 0.960 . S
C1318 H1331 0.962 . S
C1318 H1332 0.960 . S
C1319 C1316 1.511 . S
C1319 H1333 0.961 . S
C1319 H1334 0.961 . S
C1319 H1335 0.961 . S
C1320 C1321 1.370 . S
C1320 C1322 1.363 . S
C1320 H1336 0.931 . S
C1321 C1320 1.370 . S
C1321 C1325 1.408 . S
C1322 C1320 1.363 . S
C1322 C1323 1.370 . S
C1322 C1326 1.524 . S
C1323 C1315 1.503 . S
C1323 C1322 1.370 . S
C1323 C1324 1.403 . S
C1324 C1323 1.403 . S
C1324 C1325 1.404 . S
C1324 C1327 1.539 . S
C1325 C1321 1.408 . S
C1325 C1324 1.404 . S
C1325 H1337 0.930 . S
C1326 C1322 1.524 . S
C1326 H1338 0.956 . S
C1326 H1339 0.961 . S
C1326 H1340 0.961 . S
C1327 C1324 1.539 . S
C1327 H1341 0.958 . S
C1327 H1342 0.961 . S
C1327 H1343 0.960 . S
H1328 C1312 0.931 . S
H1329 C1317 0.929 . S
H1330 C1318 0.960 . S
H1331 C1318 0.962 . S
H1332 C1318 0.960 . S
H1333 C1319 0.961 . S
H1334 C1319 0.961 . S
H1335 C1319 0.961 . S
H1336 C1320 0.931 . S
H1337 C1325 0.930 . S
H1338 C1326 0.956 . S
H1339 C1326 0.961 . S
H1340 C1326 0.961 . S
H1341 C1327 0.958 . S
H1342 C1327 0.961 . S
H1343 C1327 0.960 . S
C1344 C1345 1.391 . S
C1344 C1346 1.394 . S
C1344 H1360 0.931 . S
C1345 C1344 1.391 . S
C1345 C1349 1.376 . S
C1346 C1344 1.394 . S
C1346 C1347 1.369 . S
C1346 C1350 1.531 . S
C1347 C1346 1.369 . S
C1347 C1348 1.410 . S
C1347 C1355 1.503 . S
C1348 C1347 1.410 . S
C1348 C1349 1.392 . S
C1348 C1351 1.511 . S
C1349 C1345 1.376 . S
C1349 C1348 1.392 . S
C1349 H1361 0.929 . S
C1350 C1346 1.531 . S
C1350 H1362 0.960 . S
C1350 H1363 0.962 . S
C1350 H1364 0.960 . S
C1351 C1348 1.511 . S
C1351 H1365 0.961 . S
C1351 H1366 0.961 . S
C1351 H1367 0.961 . S
C1352 C1353 1.370 . S
C1352 C1354 1.363 . S
C1352 H1368 0.931 . S
C1353 C1352 1.370 . S
C1353 C1357 1.408 . S
C1354 C1352 1.363 . S
C1354 C1355 1.370 . S
C1354 C1358 1.524 . S
C1355 C1347 1.503 . S
C1355 C1354 1.370 . S
C1355 C1356 1.403 . S
C1356 C1355 1.403 . S
C1356 C1357 1.404 . S
C1356 C1359 1.539 . S
C1357 C1353 1.408 . S
C1357 C1356 1.404 . S
C1357 H1369 0.930 . S
C1358 C1354 1.524 . S
C1358 H1370 0.956 . S
C1358 H1371 0.961 . S
C1358 H1372 0.961 . S
C1359 C1356 1.539 . S
C1359 H1373 0.958 . S
C1359 H1374 0.961 . S
C1359 H1375 0.960 . S
H1360 C1344 0.931 . S
H1361 C1349 0.929 . S
H1362 C1350 0.960 . S
H1363 C1350 0.962 . S
H1364 C1350 0.960 . S
H1365 C1351 0.961 . S
H1366 C1351 0.961 . S
H1367 C1351 0.961 . S
H1368 C1352 0.931 . S
H1369 C1357 0.930 . S
H1370 C1358 0.956 . S
H1371 C1358 0.961 . S
H1372 C1358 0.961 . S
H1373 C1359 0.958 . S
H1374 C1359 0.961 . S
H1375 C1359 0.960 . S
C1376 C1377 1.391 . S
C1376 C1378 1.394 . S
C1376 H1392 0.931 . S
C1377 C1376 1.391 . S
C1377 C1381 1.376 . S
C1378 C1376 1.394 . S
C1378 C1379 1.369 . S
C1378 C1382 1.531 . S
C1379 C1378 1.369 . S
C1379 C1380 1.410 . S
C1379 C1387 1.503 . S
C1380 C1379 1.410 . S
C1380 C1381 1.392 . S
C1380 C1383 1.511 1_545 S
C1381 C1377 1.376 . S
C1381 C1380 1.392 . S
C1381 H1393 0.929 . S
C1382 C1378 1.531 . S
C1382 H1394 0.960 . S
C1382 H1395 0.962 . S
C1382 H1396 0.960 . S
C1383 C1380 1.511 1_565 S
C1383 H1397 0.961 . S
C1383 H1398 0.961 . S
C1383 H1399 0.961 1_565 S
C1384 C1385 1.370 1_565 S
C1384 C1386 1.358 1_565 S
C1384 H1400 0.931 . S
C1385 C1384 1.370 1_545 S
C1385 C1389 1.408 . S
C1386 C1384 1.358 1_545 S
C1386 C1387 1.392 . S
C1386 C1390 1.508 1_545 S
C1387 C1379 1.503 . S
C1387 C1386 1.392 . S
C1387 C1388 1.403 . S
C1388 C1387 1.403 . S
C1388 C1389 1.404 . S
C1388 C1391 1.539 . S
C1389 C1385 1.408 . S
C1389 C1388 1.404 . S
C1389 H1401 0.930 . S
C1390 C1386 1.508 1_565 S
C1390 H1402 0.956 . S
C1390 H1403 0.961 . S
C1390 H1404 0.961 . S
C1391 C1388 1.539 . S
C1391 H1405 0.958 . S
C1391 H1406 0.961 . S
C1391 H1407 0.960 . S
H1392 C1376 0.931 . S
H1393 C1381 0.929 . S
H1394 C1382 0.960 . S
H1395 C1382 0.962 . S
H1396 C1382 0.960 . S
H1397 C1383 0.961 . S
H1398 C1383 0.961 . S
H1399 C1383 0.961 1_545 S
H1400 C1384 0.931 . S
H1401 C1389 0.930 . S
H1402 C1390 0.956 . S
H1403 C1390 0.961 . S
H1404 C1390 0.961 . S
H1405 C1391 0.958 . S
H1406 C1391 0.961 . S
H1407 C1391 0.960 . S
C1408 C1409 1.391 . S
C1408 C1410 1.394 . S
C1408 H1424 0.931 . S
C1409 C1408 1.391 . S
C1409 C1413 1.376 . S
C1410 C1408 1.394 . S
C1410 C1411 1.369 . S
C1410 C1414 1.531 . S
C1411 C1410 1.369 . S
C1411 C1412 1.410 . S
C1411 C1419 1.503 . S
C1412 C1411 1.410 . S
C1412 C1413 1.392 . S
C1412 C1415 1.511 . S
C1413 C1409 1.376 . S
C1413 C1412 1.392 . S
C1413 H1425 0.929 . S
C1414 C1410 1.531 . S
C1414 H1426 0.960 . S
C1414 H1427 0.962 . S
C1414 H1428 0.960 . S
C1415 C1412 1.511 . S
C1415 H1429 0.961 . S
C1415 H1430 0.961 . S
C1415 H1431 0.961 . S
C1416 C1417 1.370 . S
C1416 C1418 1.363 . S
C1416 H1432 0.931 . S
C1417 C1416 1.370 . S
C1417 C1421 1.408 . S
C1418 C1416 1.363 . S
C1418 C1419 1.370 . S
C1418 C1422 1.524 . S
C1419 C1411 1.503 . S
C1419 C1418 1.370 . S
C1419 C1420 1.403 . S
C1420 C1419 1.403 . S
C1420 C1421 1.404 . S
C1420 C1423 1.539 . S
C1421 C1417 1.408 . S
C1421 C1420 1.404 . S
C1421 H1433 0.930 . S
C1422 C1418 1.524 . S
C1422 H1434 0.956 . S
C1422 H1435 0.961 . S
C1422 H1436 0.961 . S
C1423 C1420 1.539 . S
C1423 H1437 0.958 . S
C1423 H1438 0.961 . S
C1423 H1439 0.960 . S
H1424 C1408 0.931 . S
H1425 C1413 0.929 . S
H1426 C1414 0.960 . S
H1427 C1414 0.962 . S
H1428 C1414 0.960 . S
H1429 C1415 0.961 . S
H1430 C1415 0.961 . S
H1431 C1415 0.961 . S
H1432 C1416 0.931 . S
H1433 C1421 0.930 . S
H1434 C1422 0.956 . S
H1435 C1422 0.961 . S
H1436 C1422 0.961 . S
H1437 C1423 0.958 . S
H1438 C1423 0.961 . S
H1439 C1423 0.960 . S
C1440 C1441 1.391 . S
C1440 C1442 1.394 . S
C1440 H1456 0.931 . S
C1441 C1440 1.391 . S
C1441 C1445 1.376 . S
C1442 C1440 1.394 . S
C1442 C1443 1.369 . S
C1442 C1446 1.531 . S
C1443 C1442 1.369 . S
C1443 C1444 1.410 . S
C1443 C1451 1.503 . S
C1444 C1443 1.410 . S
C1444 C1445 1.392 . S
C1444 C1447 1.511 . S
C1445 C1441 1.376 . S
C1445 C1444 1.392 . S
C1445 H1457 0.929 . S
C1446 C1442 1.531 . S
C1446 H1458 0.960 . S
C1446 H1459 0.962 . S
C1446 H1460 0.960 . S
C1447 C1444 1.511 . S
C1447 H1461 0.961 . S
C1447 H1462 0.961 . S
C1447 H1463 0.961 . S
C1448 C1449 1.370 . S
C1448 C1450 1.363 . S
C1448 H1464 0.931 . S
C1449 C1448 1.370 . S
C1449 C1453 1.408 . S
C1450 C1448 1.363 . S
C1450 C1451 1.370 . S
C1450 C1454 1.524 . S
C1451 C1443 1.503 . S
C1451 C1450 1.370 . S
C1451 C1452 1.403 . S
C1452 C1451 1.403 . S
C1452 C1453 1.404 . S
C1452 C1455 1.539 . S
C1453 C1449 1.408 . S
C1453 C1452 1.404 . S
C1453 H1465 0.930 . S
C1454 C1450 1.524 . S
C1454 H1466 0.956 . S
C1454 H1467 0.961 . S
C1454 H1468 0.961 . S
C1455 C1452 1.539 . S
C1455 H1469 0.958 . S
C1455 H1470 0.961 . S
C1455 H1471 0.960 . S
H1456 C1440 0.931 . S
H1457 C1445 0.929 . S
H1458 C1446 0.960 . S
H1459 C1446 0.962 . S
H1460 C1446 0.960 . S
H1461 C1447 0.961 . S
H1462 C1447 0.961 . S
H1463 C1447 0.961 . S
H1464 C1448 0.931 . S
H1465 C1453 0.930 . S
H1466 C1454 0.956 . S
H1467 C1454 0.961 . S
H1468 C1454 0.961 . S
H1469 C1455 0.958 . S
H1470 C1455 0.961 . S
H1471 C1455 0.960 . S
C1472 C1473 1.391 . S
C1472 C1474 1.394 . S
C1472 H1488 0.931 . S
C1473 C1472 1.391 . S
C1473 C1477 1.376 . S
C1474 C1472 1.394 . S
C1474 C1475 1.369 . S
C1474 C1478 1.531 . S
C1475 C1474 1.369 . S
C1475 C1476 1.410 . S
C1475 C1483 1.503 . S
C1476 C1475 1.410 . S
C1476 C1477 1.392 . S
C1476 C1479 1.511 . S
C1477 C1473 1.376 . S
C1477 C1476 1.392 . S
C1477 H1489 0.929 . S
C1478 C1474 1.531 . S
C1478 H1490 0.960 . S
C1478 H1491 0.962 . S
C1478 H1492 0.960 . S
C1479 C1476 1.511 . S
C1479 H1493 0.961 . S
C1479 H1494 0.961 . S
C1479 H1495 0.961 . S
C1480 C1481 1.370 . S
C1480 C1482 1.363 . S
C1480 H1496 0.931 . S
C1481 C1480 1.370 . S
C1481 C1485 1.408 . S
C1482 C1480 1.363 . S
C1482 C1483 1.370 . S
C1482 C1486 1.524 . S
C1483 C1475 1.503 . S
C1483 C1482 1.370 . S
C1483 C1484 1.403 . S
C1484 C1483 1.403 . S
C1484 C1485 1.404 . S
C1484 C1487 1.539 . S
C1485 C1481 1.408 . S
C1485 C1484 1.404 . S
C1485 H1497 0.930 . S
C1486 C1482 1.524 . S
C1486 H1498 0.956 . S
C1486 H1499 0.961 . S
C1486 H1500 0.961 . S
C1487 C1484 1.539 . S
C1487 H1501 0.958 . S
C1487 H1502 0.961 . S
C1487 H1503 0.960 . S
H1488 C1472 0.931 . S
H1489 C1477 0.929 . S
H1490 C1478 0.960 . S
H1491 C1478 0.962 . S
H1492 C1478 0.960 . S
H1493 C1479 0.961 . S
H1494 C1479 0.961 . S
H1495 C1479 0.961 . S
H1496 C1480 0.931 . S
H1497 C1485 0.930 . S
H1498 C1486 0.956 . S
H1499 C1486 0.961 . S
H1500 C1486 0.961 . S
H1501 C1487 0.958 . S
H1502 C1487 0.961 . S
H1503 C1487 0.960 . S
C1504 C1505 1.391 1_655 S
C1504 C1506 1.394 1_545 S
C1504 H1520 0.931 1_545 S
C1505 C1504 1.391 1_455 S
C1505 C1509 1.376 . S
C1506 C1504 1.394 1_565 S
C1506 C1507 1.371 1_565 S
C1506 C1510 1.528 . S
C1507 C1506 1.371 1_545 S
C1507 C1508 1.410 . S
C1507 C1515 1.503 . S
C1508 C1507 1.410 . S
C1508 C1509 1.392 1_655 S
C1508 C1511 1.511 . S
C1509 C1505 1.376 . S
C1509 C1508 1.392 1_455 S
C1509 H1521 0.929 . S
C1510 C1506 1.528 . S
C1510 H1522 0.960 . S
C1510 H1523 0.962 . S
C1510 H1524 0.960 . S
C1511 C1508 1.511 . S
C1511 H1525 0.961 1_655 S
C1511 H1526 0.961 . S
C1511 H1527 0.961 1_655 S
C1512 C1513 1.370 . S
C1512 C1514 1.363 . S
C1512 H1528 0.931 . S
C1513 C1512 1.370 . S
C1513 C1517 1.409 1_545 S
C1514 C1512 1.363 . S
C1514 C1515 1.370 . S
C1514 C1518 1.524 . S
C1515 C1507 1.503 . S
C1515 C1514 1.370 . S
C1515 C1516 1.403 . S
C1516 C1515 1.403 . S
C1516 C1517 1.404 1_545 S
C1516 C1519 1.539 1_545 S
C1517 C1513 1.409 1_565 S
C1517 C1516 1.404 1_565 S
C1517 H1529 0.929 . S
C1518 C1514 1.524 . S
C1518 H1530 0.956 . S
C1518 H1531 0.961 . S
C1518 H1532 0.961 . S
C1519 C1516 1.539 1_565 S
C1519 H1533 0.958 . S
C1519 H1534 0.971 . S
C1519 H1535 0.965 1_655 S
H1520 C1504 0.931 1_565 S
H1521 C1509 0.929 . S
H1522 C1510 0.960 . S
H1523 C1510 0.962 . S
H1524 C1510 0.960 . S
H1525 C1511 0.961 1_455 S
H1526 C1511 0.961 . S
H1527 C1511 0.961 1_455 S
H1528 C1512 0.931 . S
H1529 C1517 0.929 . S
H1530 C1518 0.956 . S
H1531 C1518 0.961 . S
H1532 C1518 0.961 . S
H1533 C1519 0.958 . S
H1534 C1519 0.971 . S
H1535 C1519 0.965 1_455 S
C1536 C1537 1.391 . S
C1536 C1538 1.394 . S
C1536 H1552 0.931 . S
C1537 C1536 1.391 . S
C1537 C1541 1.376 . S
C1538 C1536 1.394 . S
C1538 C1539 1.369 . S
C1538 C1542 1.531 . S
C1539 C1538 1.369 . S
C1539 C1540 1.410 . S
C1539 C1547 1.503 . S
C1540 C1539 1.410 . S
C1540 C1541 1.392 . S
C1540 C1543 1.511 . S
C1541 C1537 1.376 . S
C1541 C1540 1.392 . S
C1541 H1553 0.929 . S
C1542 C1538 1.531 . S
C1542 H1554 0.960 . S
C1542 H1555 0.962 . S
C1542 H1556 0.960 . S
C1543 C1540 1.511 . S
C1543 H1557 0.961 . S
C1543 H1558 0.961 . S
C1543 H1559 0.961 . S
C1544 C1545 1.370 . S
C1544 C1546 1.363 . S
C1544 H1560 0.931 . S
C1545 C1544 1.370 . S
C1545 C1549 1.408 . S
C1546 C1544 1.363 . S
C1546 C1547 1.370 . S
C1546 C1550 1.524 . S
C1547 C1539 1.503 . S
C1547 C1546 1.370 . S
C1547 C1548 1.403 . S
C1548 C1547 1.403 . S
C1548 C1549 1.404 . S
C1548 C1551 1.539 . S
C1549 C1545 1.408 . S
C1549 C1548 1.404 . S
C1549 H1561 0.930 . S
C1550 C1546 1.524 . S
C1550 H1562 0.956 . S
C1550 H1563 0.961 . S
C1550 H1564 0.961 . S
C1551 C1548 1.539 . S
C1551 H1565 0.958 . S
C1551 H1566 0.961 . S
C1551 H1567 0.960 . S
H1552 C1536 0.931 . S
H1553 C1541 0.929 . S
H1554 C1542 0.960 . S
H1555 C1542 0.962 . S
H1556 C1542 0.960 . S
H1557 C1543 0.961 . S
H1558 C1543 0.961 . S
H1559 C1543 0.961 . S
H1560 C1544 0.931 . S
H1561 C1549 0.930 . S
H1562 C1550 0.956 . S
H1563 C1550 0.961 . S
H1564 C1550 0.961 . S
H1565 C1551 0.958 . S
H1566 C1551 0.961 . S
H1567 C1551 0.960 . S
C1568 C1569 1.391 . S
C1568 C1570 1.394 . S
C1568 H1584 0.947 . S
C1569 C1568 1.391 . S
C1569 C1573 1.376 . S
C1570 C1568 1.394 . S
C1570 C1571 1.369 . S
C1570 C1574 1.531 . S
C1571 C1570 1.369 . S
C1571 C1572 1.410 . S
C1571 C1579 1.503 . S
C1572 C1571 1.410 . S
C1572 C1573 1.392 . S
C1572 C1575 1.511 . S
C1573 C1569 1.376 . S
C1573 C1572 1.392 . S
C1573 H1585 0.929 . S
C1574 C1570 1.531 . S
C1574 H1586 0.960 . S
C1574 H1587 0.962 . S
C1574 H1588 0.960 . S
C1575 C1572 1.511 . S
C1575 H1589 0.961 . S
C1575 H1590 0.961 . S
C1575 H1591 0.961 . S
C1576 C1577 1.370 . S
C1576 C1578 1.363 . S
C1576 H1592 0.931 . S
C1577 C1576 1.370 . S
C1577 C1581 1.408 . S
C1578 C1576 1.363 . S
C1578 C1579 1.370 . S
C1578 C1582 1.524 . S
C1579 C1571 1.503 . S
C1579 C1578 1.370 . S
C1579 C1580 1.403 . S
C1580 C1579 1.403 . S
C1580 C1581 1.404 . S
C1580 C1583 1.539 . S
C1581 C1577 1.408 . S
C1581 C1580 1.404 . S
C1581 H1593 0.930 . S
C1582 C1578 1.524 . S
C1582 H1594 0.956 . S
C1582 H1595 0.961 . S
C1582 H1596 0.961 . S
C1583 C1580 1.539 . S
C1583 H1597 0.958 . S
C1583 H1598 0.961 . S
C1583 H1599 0.960 . S
H1584 C1568 0.947 . S
H1585 C1573 0.929 . S
H1586 C1574 0.960 . S
H1587 C1574 0.962 . S
H1588 C1574 0.960 . S
H1589 C1575 0.961 . S
H1590 C1575 0.961 . S
H1591 C1575 0.961 . S
H1592 C1576 0.931 . S
H1593 C1581 0.930 . S
H1594 C1582 0.956 . S
H1595 C1582 0.961 . S
H1596 C1582 0.961 . S
H1597 C1583 0.958 . S
H1598 C1583 0.961 . S
H1599 C1583 0.960 . S
C1600 C1601 1.391 . S
C1600 C1602 1.394 . S
C1600 H1616 0.931 . S
C1601 C1600 1.391 . S
C1601 C1605 1.376 . S
C1602 C1600 1.394 . S
C1602 C1603 1.369 . S
C1602 C1606 1.531 . S
C1603 C1602 1.369 . S
C1603 C1604 1.410 . S
C1603 C1611 1.503 . S
C1604 C1603 1.410 . S
C1604 C1605 1.392 . S
C1604 C1607 1.511 . S
C1605 C1601 1.376 . S
C1605 C1604 1.392 . S
C1605 H1617 0.929 . S
C1606 C1602 1.531 . S
C1606 H1618 0.960 . S
C1606 H1619 0.962 . S
C1606 H1620 0.960 . S
C1607 C1604 1.511 . S
C1607 H1621 0.961 . S
C1607 H1622 0.961 . S
C1607 H1623 0.961 . S
C1608 C1609 1.370 . S
C1608 C1610 1.363 . S
C1608 H1624 0.931 . S
C1609 C1608 1.370 . S
C1609 C1613 1.408 . S
C1610 C1608 1.363 . S
C1610 C1611 1.370 . S
C1610 C1614 1.524 . S
C1611 C1603 1.503 . S
C1611 C1610 1.370 . S
C1611 C1612 1.403 . S
C1612 C1611 1.403 . S
C1612 C1613 1.404 . S
C1612 C1615 1.539 . S
C1613 C1609 1.408 . S
C1613 C1612 1.404 . S
C1613 H1625 0.930 . S
C1614 C1610 1.524 . S
C1614 H1626 0.956 . S
C1614 H1627 0.961 . S
C1614 H1628 0.961 . S
C1615 C1612 1.539 . S
C1615 H1629 0.958 . S
C1615 H1630 0.961 . S
C1615 H1631 0.960 . S
H1616 C1600 0.931 . S
H1617 C1605 0.929 . S
H1618 C1606 0.960 . S
H1619 C1606 0.962 . S
H1620 C1606 0.960 . S
H1621 C1607 0.961 . S
H1622 C1607 0.961 . S
H1623 C1607 0.961 . S
H1624 C1608 0.931 . S
H1625 C1613 0.930 . S
H1626 C1614 0.956 . S
H1627 C1614 0.961 . S
H1628 C1614 0.961 . S
H1629 C1615 0.958 . S
H1630 C1615 0.961 . S
H1631 C1615 0.960 . S
C1632 C1633 1.395 . S
C1632 C1634 1.400 1_554 S
C1632 H1648 0.931 1_655 S
C1633 C1632 1.395 . S
C1633 C1637 1.363 1_554 S
C1634 C1632 1.400 1_556 S
C1634 C1635 1.398 . S
C1634 C1638 1.495 1_655 S
C1635 C1634 1.398 . S
C1635 C1636 1.410 . S
C1635 C1643 1.503 . S
C1636 C1635 1.410 . S
C1636 C1637 1.392 . S
C1636 C1639 1.511 . S
C1637 C1633 1.363 1_556 S
C1637 C1636 1.392 . S
C1637 H1649 0.929 . S
C1638 C1634 1.495 1_455 S
C1638 H1650 0.960 . S
C1638 H1651 0.962 . S
C1638 H1652 0.960 1_556 S
C1639 C1636 1.511 . S
C1639 H1653 0.961 . S
C1639 H1654 0.961 . S
C1639 H1655 0.961 . S
C1640 C1641 1.370 1_455 S
C1640 C1642 1.364 1_455 S
C1640 H1656 0.931 . S
C1641 C1640 1.370 1_655 S
C1641 C1645 1.408 . S
C1642 C1640 1.364 1_655 S
C1642 C1643 1.369 . S
C1642 C1646 1.525 1_655 S
C1643 C1635 1.503 . S
C1643 C1642 1.369 . S
C1643 C1644 1.403 . S
C1644 C1643 1.403 . S
C1644 C1645 1.404 . S
C1644 C1647 1.539 . S
C1645 C1641 1.408 . S
C1645 C1644 1.404 . S
C1645 H1657 0.930 . S
C1646 C1642 1.525 1_455 S
C1646 H1658 0.956 . S
C1646 H1659 0.961 1_455 S
C1646 H1660 0.961 . S
C1647 C1644 1.539 . S
C1647 H1661 0.958 . S
C1647 H1662 0.961 . S
C1647 H1663 0.960 . S
H1648 C1632 0.931 1_455 S
H1649 C1637 0.929 . S
H1650 C1638 0.960 . S
H1651 C1638 0.962 . S
H1652 C1638 0.960 1_554 S
H1653 C1639 0.961 . S
H1654 C1639 0.961 . S
H1655 C1639 0.961 . S
H1656 C1640 0.931 . S
H1657 C1645 0.930 . S
H1658 C1646 0.956 . S
H1659 C1646 0.961 1_655 S
H1660 C1646 0.961 . S
H1661 C1647 0.958 . S
H1662 C1647 0.961 . S
H1663 C1647 0.960 . S
C1664 C1665 1.391 . S
C1664 C1666 1.394 . S
C1664 H1680 0.931 . S
C1665 C1664 1.391 . S
C1665 C1669 1.376 . S
C1666 C1664 1.394 . S
C1666 C1667 1.369 . S
C1666 C1670 1.531 . S
C1667 C1666 1.369 . S
C1667 C1668 1.410 . S
C1667 C1675 1.503 . S
C1668 C1667 1.410 . S
C1668 C1669 1.392 . S
C1668 C1671 1.511 . S
C1669 C1665 1.376 . S
C1669 C1668 1.392 . S
C1669 H1681 0.929 . S
C1670 C1666 1.531 . S
C1670 H1682 0.960 . S
C1670 H1683 0.962 . S
C1670 H1684 0.960 . S
C1671 C1668 1.511 . S
C1671 H1685 0.961 . S
C1671 H1686 0.961 . S
C1671 H1687 0.961 . S
C1672 C1673 1.370 . S
C1672 C1674 1.363 . S
C1672 H1688 0.931 . S
C1673 C1672 1.370 . S
C1673 C1677 1.408 . S
C1674 C1672 1.363 . S
C1674 C1675 1.370 . S
C1674 C1678 1.524 . S
C1675 C1667 1.503 . S
C1675 C1674 1.370 . S
C1675 C1676 1.403 . S
C1676 C1675 1.403 . S
C1676 C1677 1.404 . S
C1676 C1679 1.539 . S
C1677 C1673 1.408 . S
C1677 C1676 1.404 . S
C1677 H1689 0.930 . S
C1678 C1674 1.524 . S
C1678 H1690 0.956 . S
C1678 H1691 0.961 . S
C1678 H1692 0.961 . S
C1679 C1676 1.539 . S
C1679 H1693 0.958 . S
C1679 H1694 0.961 . S
C1679 H1695 0.960 . S
H1680 C1664 0.931 . S
H1681 C1669 0.929 . S
H1682 C1670 0.960 . S
H1683 C1670 0.962 . S
H1684 C1670 0.960 . S
H1685 C1671 0.961 . S
H1686 C1671 0.961 . S
H1687 C1671 0.961 . S
H1688 C1672 0.931 . S
H1689 C1677 0.930 . S
H1690 C1678 0.956 . S
H1691 C1678 0.961 . S
H1692 C1678 0.961 . S
H1693 C1679 0.958 . S
H1694 C1679 0.961 . S
H1695 C1679 0.960 . S
C1696 C1697 1.391 1_556 S
C1696 C1698 1.391 1_455 S
C1696 H1712 0.931 1_455 S
C1697 C1696 1.391 1_554 S
C1697 C1701 1.376 . S
C1698 C1696 1.391 1_655 S
C1698 C1699 1.358 1_655 S
C1698 C1702 1.545 . S
C1699 C1698 1.358 1_455 S
C1699 C1700 1.410 . S
C1699 C1707 1.503 . S
C1700 C1699 1.410 . S
C1700 C1701 1.392 1_556 S
C1700 C1703 1.511 . S
C1701 C1697 1.376 . S
C1701 C1700 1.392 1_554 S
C1701 H1713 0.929 . S
C1702 C1698 1.545 . S
C1702 H1714 0.960 . S
C1702 H1715 0.962 . S
C1702 H1716 0.960 . S
C1703 C1700 1.511 . S
C1703 H1717 0.961 . S
C1703 H1718 0.961 . S
C1703 H1719 0.961 1_556 S
C1704 C1705 1.370 . S
C1704 C1706 1.363 . S
C1704 H1720 0.931 . S
C1705 C1704 1.370 . S
C1705 C1709 1.408 1_455 S
C1706 C1704 1.363 . S
C1706 C1707 1.370 . S
C1706 C1710 1.524 . S
C1707 C1699 1.503 . S
C1707 C1706 1.370 . S
C1707 C1708 1.421 . S
C1708 C1707 1.421 . S
C1708 C1709 1.400 1_455 S
C1708 C1711 1.527 1_455 S
C1709 C1705 1.408 1_655 S
C1709 C1708 1.400 1_655 S
C1709 H1721 0.930 . S
C1710 C1706 1.524 . S
C1710 H1722 0.956 . S
C1710 H1723 0.961 . S
C1710 H1724 0.961 . S
C1711 C1708 1.527 1_655 S
C1711 H1725 0.958 . S
C1711 H1726 0.961 . S
C1711 H1727 0.949 1_656 S
H1712 C1696 0.931 1_655 S
H1713 C1701 0.929 . S
H1714 C1702 0.960 . S
H1715 C1702 0.962 . S
H1716 C1702 0.960 . S
H1717 C1703 0.961 . S
H1718 C1703 0.961 . S
H1719 C1703 0.961 1_554 S
H1720 C1704 0.931 . S
H1721 C1709 0.930 . S
H1722 C1710 0.956 . S
H1723 C1710 0.961 . S
H1724 C1710 0.961 . S
H1725 C1711 0.958 . S
H1726 C1711 0.961 . S
H1727 C1711 0.949 1_454 S
C1728 C1729 1.391 . S
C1728 C1730 1.394 . S
C1728 H1744 0.931 . S
C1729 C1728 1.391 . S
C1729 C1733 1.376 . S
C1730 C1728 1.394 . S
C1730 C1731 1.369 . S
C1730 C1734 1.531 . S
C1731 C1730 1.369 . S
C1731 C1732 1.410 . S
C1731 C1739 1.503 . S
C1732 C1731 1.410 . S
C1732 C1733 1.392 . S
C1732 C1735 1.511 . S
C1733 C1729 1.376 . S
C1733 C1732 1.392 . S
C1733 H1745 0.929 . S
C1734 C1730 1.531 . S
C1734 H1746 0.960 . S
C1734 H1747 0.962 . S
C1734 H1748 0.960 . S
C1735 C1732 1.511 . S
C1735 H1749 0.961 . S
C1735 H1750 0.961 . S
C1735 H1751 0.961 . S
C1736 C1737 1.370 . S
C1736 C1738 1.363 . S
C1736 H1752 0.931 . S
C1737 C1736 1.370 . S
C1737 C1741 1.408 . S
C1738 C1736 1.363 . S
C1738 C1739 1.370 . S
C1738 C1742 1.524 . S
C1739 C1731 1.503 . S
C1739 C1738 1.370 . S
C1739 C1740 1.403 . S
C1740 C1739 1.403 . S
C1740 C1741 1.404 . S
C1740 C1743 1.539 . S
C1741 C1737 1.408 . S
C1741 C1740 1.404 . S
C1741 H1753 0.930 . S
C1742 C1738 1.524 . S
C1742 H1754 0.956 . S
C1742 H1755 0.961 . S
C1742 H1756 0.961 . S
C1743 C1740 1.539 . S
C1743 H1757 0.958 . S
C1743 H1758 0.961 . S
C1743 H1759 0.960 . S
H1744 C1728 0.931 . S
H1745 C1733 0.929 . S
H1746 C1734 0.960 . S
H1747 C1734 0.962 . S
H1748 C1734 0.960 . S
H1749 C1735 0.961 . S
H1750 C1735 0.961 . S
H1751 C1735 0.961 . S
H1752 C1736 0.931 . S
H1753 C1741 0.930 . S
H1754 C1742 0.956 . S
H1755 C1742 0.961 . S
H1756 C1742 0.961 . S
H1757 C1743 0.958 . S
H1758 C1743 0.961 . S
H1759 C1743 0.960 . S
C1760 C1761 1.391 1_556 S
C1760 C1762 1.394 1_556 S
C1760 H1776 0.931 . S
C1761 C1760 1.391 1_554 S
C1761 C1765 1.376 . S
C1762 C1760 1.394 1_554 S
C1762 C1763 1.369 . S
C1762 C1766 1.531 1_554 S
C1763 C1762 1.369 . S
C1763 C1764 1.410 . S
C1763 C1771 1.503 . S
C1764 C1763 1.410 . S
C1764 C1765 1.392 . S
C1764 C1767 1.511 . S
C1765 C1761 1.376 . S
C1765 C1764 1.392 . S
C1765 H1777 0.929 . S
C1766 C1762 1.531 1_556 S
C1766 H1778 0.960 1_556 S
C1766 H1779 0.962 . S
C1766 H1780 0.960 . S
C1767 C1764 1.511 . S
C1767 H1781 0.961 . S
C1767 H1782 0.961 . S
C1767 H1783 0.961 . S
C1768 C1769 1.370 . S
C1768 C1770 1.363 . S
C1768 H1784 0.931 . S
C1769 C1768 1.370 . S
C1769 C1773 1.408 . S
C1770 C1768 1.363 . S
C1770 C1771 1.370 . S
C1770 C1774 1.524 . S
C1771 C1763 1.503 . S
C1771 C1770 1.370 . S
C1771 C1772 1.403 . S
C1772 C1771 1.403 . S
C1772 C1773 1.404 . S
C1772 C1775 1.539 . S
C1773 C1769 1.408 . S
C1773 C1772 1.404 . S
C1773 H1785 0.930 . S
C1774 C1770 1.524 . S
C1774 H1786 0.956 . S
C1774 H1787 0.961 . S
C1774 H1788 0.961 . S
C1775 C1772 1.539 . S
C1775 H1789 0.958 . S
C1775 H1790 0.961 . S
C1775 H1791 0.960 . S
H1776 C1760 0.931 . S
H1777 C1765 0.929 . S
H1778 C1766 0.960 1_554 S
H1779 C1766 0.962 . S
H1780 C1766 0.960 . S
H1781 C1767 0.961 . S
H1782 C1767 0.961 . S
H1783 C1767 0.961 . S
H1784 C1768 0.931 . S
H1785 C1773 0.930 . S
H1786 C1774 0.956 . S
H1787 C1774 0.961 . S
H1788 C1774 0.961 . S
H1789 C1775 0.958 . S
H1790 C1775 0.961 . S
H1791 C1775 0.960 . S
C1792 C1793 1.391 . S
C1792 C1794 1.394 . S
C1792 H1808 0.931 . S
C1793 C1792 1.391 . S
C1793 C1797 1.376 . S
C1794 C1792 1.394 . S
C1794 C1795 1.369 . S
C1794 C1798 1.531 . S
C1795 C1794 1.369 . S
C1795 C1796 1.410 . S
C1795 C1803 1.503 . S
C1796 C1795 1.410 . S
C1796 C1797 1.392 . S
C1796 C1799 1.511 . S
C1797 C1793 1.376 . S
C1797 C1796 1.392 . S
C1797 H1809 0.929 . S
C1798 C1794 1.531 . S
C1798 H1810 0.960 . S
C1798 H1811 0.962 . S
C1798 H1812 0.960 . S
C1799 C1796 1.511 . S
C1799 H1813 0.961 . S
C1799 H1814 0.961 . S
C1799 H1815 0.961 . S
C1800 C1801 1.370 . S
C1800 C1802 1.363 . S
C1800 H1816 0.931 . S
C1801 C1800 1.370 . S
C1801 C1805 1.408 . S
C1802 C1800 1.363 . S
C1802 C1803 1.370 . S
C1802 C1806 1.524 . S
C1803 C1795 1.503 . S
C1803 C1802 1.370 . S
C1803 C1804 1.403 . S
C1804 C1803 1.403 . S
C1804 C1805 1.404 . S
C1804 C1807 1.539 . S
C1805 C1801 1.408 . S
C1805 C1804 1.404 . S
C1805 H1817 0.930 . S
C1806 C1802 1.524 . S
C1806 H1818 0.956 . S
C1806 H1819 0.961 . S
C1806 H1820 0.961 . S
C1807 C1804 1.539 . S
C1807 H1821 0.958 . S
C1807 H1822 0.961 . S
C1807 H1823 0.960 . S
H1808 C1792 0.931 . S
H1809 C1797 0.929 . S
H1810 C1798 0.960 . S
H1811 C1798 0.962 . S
H1812 C1798 0.960 . S
H1813 C1799 0.961 . S
H1814 C1799 0.961 . S
H1815 C1799 0.961 . S
H1816 C1800 0.931 . S
H1817 C1805 0.930 . S
H1818 C1806 0.956 . S
H1819 C1806 0.961 . S
H1820 C1806 0.961 . S
H1821 C1807 0.958 . S
H1822 C1807 0.961 . S
H1823 C1807 0.960 . S
C1824 C1825 1.391 1_556 S
C1824 C1826 1.394 1_556 S
C1824 H1840 0.931 . S
C1825 C1824 1.391 1_554 S
C1825 C1829 1.376 . S
C1826 C1824 1.394 1_554 S
C1826 C1827 1.369 . S
C1826 C1830 1.531 . S
C1827 C1826 1.369 . S
C1827 C1828 1.410 . S
C1827 C1835 1.503 . S
C1828 C1827 1.410 . S
C1828 C1829 1.392 . S
C1828 C1831 1.511 . S
C1829 C1825 1.376 . S
C1829 C1828 1.392 . S
C1829 H1841 0.929 . S
C1830 C1826 1.531 . S
C1830 H1842 0.960 . S
C1830 H1843 0.962 . S
C1830 H1844 0.960 1_554 S
C1831 C1828 1.511 . S
C1831 H1845 0.961 . S
C1831 H1846 0.961 . S
C1831 H1847 0.961 . S
C1832 C1833 1.370 . S
C1832 C1834 1.363 . S
C1832 H1848 0.931 . S
C1833 C1832 1.370 . S
C1833 C1837 1.408 . S
C1834 C1832 1.363 . S
C1834 C1835 1.370 . S
C1834 C1838 1.524 . S
C1835 C1827 1.503 . S
C1835 C1834 1.370 . S
C1835 C1836 1.403 . S
C1836 C1835 1.403 . S
C1836 C1837 1.404 . S
C1836 C1839 1.539 . S
C1837 C1833 1.408 . S
C1837 C1836 1.404 . S
C1837 H1849 0.930 . S
C1838 C1834 1.524 . S
C1838 H1850 0.956 . S
C1838 H1851 0.961 . S
C1838 H1852 0.961 . S
C1839 C1836 1.539 . S
C1839 H1853 0.958 . S
C1839 H1854 0.961 . S
C1839 H1855 0.960 . S
H1840 C1824 0.931 . S
H1841 C1829 0.929 . S
H1842 C1830 0.960 . S
H1843 C1830 0.962 . S
H1844 C1830 0.960 1_556 S
H1845 C1831 0.961 . S
H1846 C1831 0.961 . S
H1847 C1831 0.961 . S
H1848 C1832 0.931 . S
H1849 C1837 0.930 . S
H1850 C1838 0.956 . S
H1851 C1838 0.961 . S
H1852 C1838 0.961 . S
H1853 C1839 0.958 . S
H1854 C1839 0.961 . S
H1855 C1839 0.960 . S
C1856 C1857 1.391 . S
C1856 C1858 1.394 . S
C1856 H1872 0.931 . S
C1857 C1856 1.391 . S
C1857 C1861 1.376 . S
C1858 C1856 1.394 . S
C1858 C1859 1.369 . S
C1858 C1862 1.531 . S
C1859 C1858 1.369 . S
C1859 C1860 1.410 . S
C1859 C1867 1.503 . S
C1860 C1859 1.410 . S
C1860 C1861 1.392 . S
C1860 C1863 1.511 . S
C1861 C1857 1.376 . S
C1861 C1860 1.392 . S
C1861 H1873 0.929 . S
C1862 C1858 1.531 . S
C1862 H1874 0.960 . S
C1862 H1875 0.962 . S
C1862 H1876 0.960 . S
C1863 C1860 1.511 . S
C1863 H1877 0.961 . S
C1863 H1878 0.961 . S
C1863 H1879 0.961 . S
C1864 C1865 1.370 . S
C1864 C1866 1.363 . S
C1864 H1880 0.931 . S
C1865 C1864 1.370 . S
C1865 C1869 1.408 . S
C1866 C1864 1.363 . S
C1866 C1867 1.370 . S
C1866 C1870 1.524 . S
C1867 C1859 1.503 . S
C1867 C1866 1.370 . S
C1867 C1868 1.403 . S
C1868 C1867 1.403 . S
C1868 C1869 1.404 . S
C1868 C1871 1.539 . S
C1869 C1865 1.408 . S
C1869 C1868 1.404 . S
C1869 H1881 0.930 . S
C1870 C1866 1.524 . S
C1870 H1882 0.956 . S
C1870 H1883 0.961 . S
C1870 H1884 0.961 . S
C1871 C1868 1.539 . S
C1871 H1885 0.958 . S
C1871 H1886 0.961 . S
C1871 H1887 0.960 . S
H1872 C1856 0.931 . S
H1873 C1861 0.929 . S
H1874 C1862 0.960 . S
H1875 C1862 0.962 . S
H1876 C1862 0.960 . S
H1877 C1863 0.961 . S
H1878 C1863 0.961 . S
H1879 C1863 0.961 . S
H1880 C1864 0.931 . S
H1881 C1869 0.930 . S
H1882 C1870 0.956 . S
H1883 C1870 0.961 . S
H1884 C1870 0.961 . S
H1885 C1871 0.958 . S
H1886 C1871 0.961 . S
H1887 C1871 0.960 . S
C1888 C1889 1.391 . S
C1888 C1890 1.394 . S
C1888 H1904 0.931 . S
C1889 C1888 1.391 . S
C1889 C1893 1.376 . S
C1890 C1888 1.394 . S
C1890 C1891 1.369 . S
C1890 C1894 1.531 . S
C1891 C1890 1.369 . S
C1891 C1892 1.410 . S
C1891 C1899 1.503 . S
C1892 C1891 1.410 . S
C1892 C1893 1.392 . S
C1892 C1895 1.511 . S
C1893 C1889 1.376 . S
C1893 C1892 1.392 . S
C1893 H1905 0.929 . S
C1894 C1890 1.531 . S
C1894 H1906 0.960 . S
C1894 H1907 0.962 . S
C1894 H1908 0.960 . S
C1895 C1892 1.511 . S
C1895 H1909 0.961 . S
C1895 H1910 0.961 . S
C1895 H1911 0.961 . S
C1896 C1897 1.370 . S
C1896 C1898 1.363 . S
C1896 H1912 0.931 . S
C1897 C1896 1.370 . S
C1897 C1901 1.408 . S
C1898 C1896 1.363 . S
C1898 C1899 1.370 . S
C1898 C1902 1.524 . S
C1899 C1891 1.503 . S
C1899 C1898 1.370 . S
C1899 C1900 1.403 . S
C1900 C1899 1.403 . S
C1900 C1901 1.404 . S
C1900 C1903 1.539 . S
C1901 C1897 1.408 . S
C1901 C1900 1.404 . S
C1901 H1913 0.930 . S
C1902 C1898 1.524 . S
C1902 H1914 0.956 . S
C1902 H1915 0.961 . S
C1902 H1916 0.961 . S
C1903 C1900 1.539 . S
C1903 H1917 0.958 . S
C1903 H1918 0.961 . S
C1903 H1919 0.960 . S
H1904 C1888 0.931 . S
H1905 C1893 0.929 . S
H1906 C1894 0.960 . S
H1907 C1894 0.962 . S
H1908 C1894 0.960 . S
H1909 C1895 0.961 . S
H1910 C1895 0.961 . S
H1911 C1895 0.961 . S
H1912 C1896 0.931 . S
H1913 C1901 0.930 . S
H1914 C1902 0.956 . S
H1915 C1902 0.961 . S
H1916 C1902 0.961 . S
H1917 C1903 0.958 . S
H1918 C1903 0.961 . S
H1919 C1903 0.960 . S
C1920 C1921 1.391 . S
C1920 C1922 1.394 . S
C1920 H1936 0.931 . S
C1921 C1920 1.391 . S
C1921 C1925 1.376 . S
C1922 C1920 1.394 . S
C1922 C1923 1.369 . S
C1922 C1926 1.531 . S
C1923 C1922 1.369 . S
C1923 C1924 1.410 . S
C1923 C1931 1.503 . S
C1924 C1923 1.410 . S
C1924 C1925 1.392 . S
C1924 C1927 1.511 . S
C1925 C1921 1.376 . S
C1925 C1924 1.392 . S
C1925 H1937 0.929 . S
C1926 C1922 1.531 . S
C1926 H1938 0.960 . S
C1926 H1939 0.962 . S
C1926 H1940 0.960 . S
C1927 C1924 1.511 . S
C1927 H1941 0.961 . S
C1927 H1942 0.961 . S
C1927 H1943 0.961 . S
C1928 C1929 1.370 . S
C1928 C1930 1.363 . S
C1928 H1944 0.931 . S
C1929 C1928 1.370 . S
C1929 C1933 1.408 . S
C1930 C1928 1.363 . S
C1930 C1931 1.370 . S
C1930 C1934 1.524 . S
C1931 C1923 1.503 . S
C1931 C1930 1.370 . S
C1931 C1932 1.403 . S
C1932 C1931 1.403 . S
C1932 C1933 1.404 . S
C1932 C1935 1.539 . S
C1933 C1929 1.408 . S
C1933 C1932 1.404 . S
C1933 H1945 0.930 . S
C1934 C1930 1.524 . S
C1934 H1946 0.956 . S
C1934 H1947 0.961 . S
C1934 H1948 0.961 . S
C1935 C1932 1.539 . S
C1935 H1949 0.958 . S
C1935 H1950 0.961 . S
C1935 H1951 0.960 . S
H1936 C1920 0.931 . S
H1937 C1925 0.929 . S
H1938 C1926 0.960 . S
H1939 C1926 0.962 . S
H1940 C1926 0.960 . S
H1941 C1927 0.961 . S
H1942 C1927 0.961 . S
H1943 C1927 0.961 . S
H1944 C1928 0.931 . S
H1945 C1933 0.930 . S
H1946 C1934 0.956 . S
H1947 C1934 0.961 . S
H1948 C1934 0.961 . S
H1949 C1935 0.958 . S
H1950 C1935 0.961 . S
H1951 C1935 0.960 . S
C1952 C1953 1.391 . S
C1952 C1954 1.394 . S
C1952 H1968 0.931 . S
C1953 C1952 1.391 . S
C1953 C1957 1.376 . S
C1954 C1952 1.394 . S
C1954 C1955 1.369 . S
C1954 C1958 1.531 . S
C1955 C1954 1.369 . S
C1955 C1956 1.410 . S
C1955 C1963 1.503 . S
C1956 C1955 1.410 . S
C1956 C1957 1.392 . S
C1956 C1959 1.511 . S
C1957 C1953 1.376 . S
C1957 C1956 1.392 . S
C1957 H1969 0.929 . S
C1958 C1954 1.531 . S
C1958 H1970 0.960 . S
C1958 H1971 0.962 . S
C1958 H1972 0.960 . S
C1959 C1956 1.511 . S
C1959 H1973 0.961 . S
C1959 H1974 0.961 . S
C1959 H1975 0.961 . S
C1960 C1961 1.370 . S
C1960 C1962 1.363 . S
C1960 H1976 0.931 . S
C1961 C1960 1.370 . S
C1961 C1965 1.408 . S
C1962 C1960 1.363 . S
C1962 C1963 1.370 . S
C1962 C1966 1.524 . S
C1963 C1955 1.503 . S
C1963 C1962 1.370 . S
C1963 C1964 1.403 . S
C1964 C1963 1.403 . S
C1964 C1965 1.404 . S
C1964 C1967 1.539 . S
C1965 C1961 1.408 . S
C1965 C1964 1.404 . S
C1965 H1977 0.930 . S
C1966 C1962 1.524 . S
C1966 H1978 0.956 . S
C1966 H1979 0.961 . S
C1966 H1980 0.961 . S
C1967 C1964 1.539 . S
C1967 H1981 0.958 . S
C1967 H1982 0.961 . S
C1967 H1983 0.960 . S
H1968 C1952 0.931 . S
H1969 C1957 0.929 . S
H1970 C1958 0.960 . S
H1971 C1958 0.962 . S
H1972 C1958 0.960 . S
H1973 C1959 0.961 . S
H1974 C1959 0.961 . S
H1975 C1959 0.961 . S
H1976 C1960 0.931 . S
H1977 C1965 0.930 . S
H1978 C1966 0.956 . S
H1979 C1966 0.961 . S
H1980 C1966 0.961 . S
H1981 C1967 0.958 . S
H1982 C1967 0.961 . S
H1983 C1967 0.960 . S
C1984 C1985 1.391 . S
C1984 C1986 1.394 . S
C1984 H2000 0.931 . S
C1985 C1984 1.391 . S
C1985 C1989 1.376 . S
C1986 C1984 1.394 . S
C1986 C1987 1.369 . S
C1986 C1990 1.531 . S
C1987 C1986 1.369 . S
C1987 C1988 1.410 . S
C1987 C1995 1.503 . S
C1988 C1987 1.410 . S
C1988 C1989 1.392 . S
C1988 C1991 1.511 1_556 S
C1989 C1985 1.376 . S
C1989 C1988 1.392 . S
C1989 H2001 0.929 . S
C1990 C1986 1.531 . S
C1990 H2002 0.960 . S
C1990 H2003 0.962 . S
C1990 H2004 0.960 . S
C1991 C1988 1.511 1_554 S
C1991 H2005 0.961 1_554 S
C1991 H2006 0.961 1_554 S
C1991 H2007 0.961 . S
C1992 C1993 1.370 . S
C1992 C1994 1.363 . S
C1992 H2008 0.931 . S
C1993 C1992 1.370 . S
C1993 C1997 1.408 1_556 S
C1994 C1992 1.363 . S
C1994 C1995 1.370 . S
C1994 C1998 1.524 . S
C1995 C1987 1.503 . S
C1995 C1994 1.370 . S
C1995 C1996 1.403 1_556 S
C1996 C1995 1.403 1_554 S
C1996 C1997 1.404 . S
C1996 C1999 1.539 . S
C1997 C1993 1.408 1_554 S
C1997 C1996 1.404 . S
C1997 H2009 0.930 . S
C1998 C1994 1.524 . S
C1998 H2010 0.956 . S
C1998 H2011 0.961 . S
C1998 H2012 0.961 . S
C1999 C1996 1.539 . S
C1999 H2013 0.958 . S
C1999 H2014 0.961 . S
C1999 H2015 0.960 . S
H2000 C1984 0.931 . S
H2001 C1989 0.929 . S
H2002 C1990 0.960 . S
H2003 C1990 0.962 . S
H2004 C1990 0.960 . S
H2005 C1991 0.961 1_556 S
H2006 C1991 0.961 1_556 S
H2007 C1991 0.961 . S
H2008 C1992 0.931 . S
H2009 C1997 0.930 . S
H2010 C1998 0.956 . S
H2011 C1998 0.961 . S
H2012 C1998 0.961 . S
H2013 C1999 0.958 . S
H2014 C1999 0.961 . S
H2015 C1999 0.960 . S
C2016 C2017 1.391 . S
C2016 C2018 1.394 . S
C2016 H2032 0.931 . S
C2017 C2016 1.391 . S
C2017 C2021 1.376 . S
C2018 C2016 1.394 . S
C2018 C2019 1.369 . S
C2018 C2022 1.531 . S
C2019 C2018 1.369 . S
C2019 C2020 1.410 . S
C2019 C2027 1.503 . S
C2020 C2019 1.410 . S
C2020 C2021 1.392 . S
C2020 C2023 1.511 . S
C2021 C2017 1.376 . S
C2021 C2020 1.392 . S
C2021 H2033 0.929 . S
C2022 C2018 1.531 . S
C2022 H2034 0.960 . S
C2022 H2035 0.962 . S
C2022 H2036 0.960 . S
C2023 C2020 1.511 . S
C2023 H2037 0.961 . S
C2023 H2038 0.961 . S
C2023 H2039 0.961 . S
C2024 C2025 1.370 . S
C2024 C2026 1.363 . S
C2024 H2040 0.931 . S
C2025 C2024 1.370 . S
C2025 C2029 1.408 . S
C2026 C2024 1.363 . S
C2026 C2027 1.370 . S
C2026 C2030 1.524 . S
C2027 C2019 1.503 . S
C2027 C2026 1.370 . S
C2027 C2028 1.403 . S
C2028 C2027 1.403 . S
C2028 C2029 1.404 . S
C2028 C2031 1.539 . S
C2029 C2025 1.408 . S
C2029 C2028 1.404 . S
C2029 H2041 0.930 . S
C2030 C2026 1.524 . S
C2030 H2042 0.956 . S
C2030 H2043 0.961 . S
C2030 H2044 0.961 . S
C2031 C2028 1.539 . S
C2031 H2045 0.958 . S
C2031 H2046 0.961 . S
C2031 H2047 0.960 . S
H2032 C2016 0.931 . S
H2033 C2021 0.929 . S
H2034 C2022 0.960 . S
H2035 C2022 0.962 . S
H2036 C2022 0.960 . S
H2037 C2023 0.961 . S
H2038 C2023 0.961 . S
H2039 C2023 0.961 . S
H2040 C2024 0.931 . S
H2041 C2029 0.930 . S
H2042 C2030 0.956 . S
H2043 C2030 0.961 . S
H2044 C2030 0.961 . S
H2045 C2031 0.958 . S
H2046 C2031 0.961 . S
H2047 C2031 0.960 . S
C2048 C2049 1.391 . S
C2048 C2050 1.394 . S
C2048 H2064 0.931 . S
C2049 C2048 1.391 . S
C2049 C2053 1.376 . S
C2050 C2048 1.394 . S
C2050 C2051 1.369 . S
C2050 C2054 1.531 . S
C2051 C2050 1.369 . S
C2051 C2052 1.410 1_554 S
C2051 C2059 1.503 . S
C2052 C2051 1.410 1_556 S
C2052 C2053 1.392 1_556 S
C2052 C2055 1.511 . S
C2053 C2049 1.376 . S
C2053 C2052 1.392 1_554 S
C2053 H2065 0.929 1_554 S
C2054 C2050 1.531 . S
C2054 H2066 0.960 . S
C2054 H2067 0.962 . S
C2054 H2068 0.960 . S
C2055 C2052 1.511 . S
C2055 H2069 0.961 . S
C2055 H2070 0.961 . S
C2055 H2071 0.961 . S
C2056 C2057 1.370 . S
C2056 C2058 1.363 . S
C2056 H2072 0.931 . S
C2057 C2056 1.370 . S
C2057 C2061 1.408 . S
C2058 C2056 1.363 . S
C2058 C2059 1.370 . S
C2058 C2062 1.524 . S
C2059 C2051 1.503 . S
C2059 C2058 1.370 . S
C2059 C2060 1.403 . S
C2060 C2059 1.403 . S
C2060 C2061 1.404 . S
C2060 C2063 1.539 . S
C2061 C2057 1.408 . S
C2061 C2060 1.404 . S
C2061 H2073 0.930 . S
C2062 C2058 1.524 . S
C2062 H2074 0.956 . S
C2062 H2075 0.961 . S
C2062 H2076 0.961 . S
C2063 C2060 1.539 . S
C2063 H2077 0.958 . S
C2063 H2078 0.961 . S
C2063 H2079 0.960 . S
H2064 C2048 0.931 . S
H2065 C2053 0.929 1_556 S
H2066 C2054 0.960 . S
H2067 C2054 0.962 . S
H2068 C2054 0.960 . S
H2069 C2055 0.961 . S
H2070 C2055 0.961 . S
H2071 C2055 0.961 . S
H2072 C2056 0.931 . S
H2073 C2061 0.930 . S
H2074 C2062 0.956 . S
H2075 C2062 0.961 . S
H2076 C2062 0.961 . S
H2077 C2063 0.958 . S
H2078 C2063 0.961 . S
H2079 C2063 0.960 . S
C2080 C2081 1.383 1_565 S
C2080 C2082 1.394 . S
C2080 H2096 0.931 1_554 S
C2081 C2080 1.383 1_545 S
C2081 C2085 1.378 . S
C2082 C2080 1.394 . S
C2082 C2083 1.369 . S
C2082 C2086 1.531 1_554 S
C2083 C2082 1.369 . S
C2083 C2084 1.410 . S
C2083 C2091 1.503 . S
C2084 C2083 1.410 . S
C2084 C2085 1.392 1_565 S
C2084 C2087 1.511 1_565 S
C2085 C2081 1.378 . S
C2085 C2084 1.392 1_545 S
C2085 H2097 0.929 . S
C2086 C2082 1.531 1_556 S
C2086 H2098 0.960 . S
C2086 H2099 0.962 . S
C2086 H2100 0.960 . S
C2087 C2084 1.511 1_545 S
C2087 H2101 0.961 . S
C2087 H2102 0.961 1_545 S
C2087 H2103 0.961 . S
C2088 C2089 1.370 . S
C2088 C2090 1.363 . S
C2088 H2104 0.931 . S
C2089 C2088 1.370 . S
C2089 C2093 1.408 1_554 S
C2090 C2088 1.363 . S
C2090 C2091 1.370 . S
C2090 C2094 1.524 . S
C2091 C2083 1.503 . S
C2091 C2090 1.370 . S
C2091 C2092 1.403 1_554 S
C2092 C2091 1.403 1_556 S
C2092 C2093 1.404 . S
C2092 C2095 1.539 . S
C2093 C2089 1.408 1_556 S
C2093 C2092 1.404 . S
C2093 H2105 0.930 . S
C2094 C2090 1.524 . S
C2094 H2106 0.956 . S
C2094 H2107 0.961 . S
C2094 H2108 0.961 . S
C2095 C2092 1.539 . S
C2095 H2109 0.958 . S
C2095 H2110 0.961 . S
C2095 H2111 0.960 . S
H2096 C2080 0.931 1_556 S
H2097 C2085 0.929 . S
H2098 C2086 0.960 . S
H2099 C2086 0.962 . S
H2100 C2086 0.960 . S
H2101 C2087 0.961 . S
H2102 C2087 0.961 1_565 S
H2103 C2087 0.961 . S
H2104 C2088 0.931 . S
H2105 C2093 0.930 . S
H2106 C2094 0.956 . S
H2107 C2094 0.961 . S
H2108 C2094 0.961 . S
H2109 C2095 0.958 . S
H2110 C2095 0.961 . S
H2111 C2095 0.960 . S
C585 C146 1.432 . S
C577 C50 1.423 . S
C617 C194 1.585 . S
C609 C61 1.632 1_455 S
C641 C67 1.439 . S
C649 C230 1.361 . S
C681 C266 1.550 1_545 S
C673 C41 1.588 . S
C713 C292 1.444 . S
C705 C95 1.428 . S
C745 C328 1.560 . S
C737 C113 1.558 . S
C769 C106 1.463 . S
C777 C363 1.476 . S
C809 C400 1.587 1_565 S
C801 C86 1.589 . S
C833 C104 1.433 . S
C841 C434 1.418 . S
C873 C482 1.520 . S
C865 C88 1.577 . S
C897 C94 1.439 . S
C905 C435 1.442 . S
C937 C472 1.574 . S
C929 C112 1.578 . S
C961 C70 1.451 . S
C969 C518 1.406 . S
C993 C40 1.597 . S
C1001 C507 1.599 . S
C1025 C49 1.480 . S
C1033 C508 1.469 . S
C1057 C59 1.619 . S
C1065 C506 1.624 1_655 S
C1089 C34 1.425 . S
C1097 C254 1.416 . S
C1121 C133 1.407 . S
C1129 C255 1.423 . S
C1161 C158 1.570 1_554 S
C1153 C139 1.633 . S
C1193 C183 1.474 . S
C1185 C77 1.461 . S
C1217 C43 1.593 1_545 S
C1225 C290 1.592 . S
C1257 C398 1.467 . S
C1249 C103 1.448 . S
C1289 C291 1.579 . S
C1281 C85 1.583 1_545 S
C1321 C364 1.572 . S
C1313 C115 1.579 . S
C1353 C362 1.423 . S
C1345 C131 1.444 . S
C1377 C142 1.634 . S
C1385 C410 1.583 . S
C1409 C76 1.437 . S
C1417 C302 1.358 . S
C1449 C338 1.549 . S
C1441 C122 1.587 . S
C1473 C32 1.449 . S
C1481 C220 1.437 . S
C1513 C256 1.562 . S
C1505 C5 1.554 . S
C1545 C147 1.474 . S
C1537 C16 1.454 . S
C1577 C184 1.589 . S
C1569 C23 1.590 1_455 S
C1601 C14 1.414 . S
C1609 C470 1.428 . S
C1633 C25 1.584 . S
C1641 C446 1.519 . S
C1665 C31 1.442 . S
C1673 C471 1.441 . S
C1697 C4 1.571 . S
C1705 C436 1.578 . S
C1737 C554 1.405 . S
C1729 C79 1.451 . S
C1769 C543 1.597 . S
C1761 C121 1.597 1_554 S
C1801 C544 1.469 . S
C1793 C130 1.477 . S
C1825 C140 1.620 1_554 S
C1833 C542 1.626 . S
C1857 C97 1.403 . S
C1865 C326 1.424 . S
C1897 C327 1.425 . S
C1889 C52 1.428 . S
C1929 C374 1.558 . S
C1921 C58 1.616 . S
C1961 C399 1.471 . S
C1953 C68 1.462 . S
C1985 C124 1.594 . S
C1993 C218 1.581 1_556 S
C2025 C182 1.464 . S
C2017 C13 1.455 . S
C2049 C22 1.584 . S
C2057 C219 1.577 . S
C2089 C148 1.575 . S
C2081 C7 1.579 . S
