# Generated by pormake.
# Topology apo, (3,6)-cn, num edge types: 1
# Building blocks:
#     Node 0, Type 0, BuildingBlock: MIDCAF_clean_linker_0, # of connection points: 3
#     Node 1, Type 0, BuildingBlock: MIDCAF_clean_linker_0, # of connection points: 3
#     Node 2, Type 0, BuildingBlock: MIDCAF_clean_linker_0, # of connection points: 3
#     Node 3, Type 0, BuildingBlock: MIDCAF_clean_linker_0, # of connection points: 3
#     Node 4, Type 0, BuildingBlock: MIDCAF_clean_linker_0, # of connection points: 3
#     Node 5, Type 0, BuildingBlock: MIDCAF_clean_linker_0, # of connection points: 3
#     Node 6, Type 0, BuildingBlock: MIDCAF_clean_linker_0, # of connection points: 3
#     Node 7, Type 0, BuildingBlock: MIDCAF_clean_linker_0, # of connection points: 3
#     Node 8, Type 1, BuildingBlock: MIDCAF_clean_sbu_0, # of connection points: 6
#     Node 9, Type 1, BuildingBlock: MIDCAF_clean_sbu_0, # of connection points: 6
#     Node 10, Type 1, BuildingBlock: MIDCAF_clean_sbu_0, # of connection points: 6
#     Node 11, Type 1, BuildingBlock: MIDCAF_clean_sbu_0, # of connection points: 6
#     Edge 12, Type (0, 1), BuildingBlock: UVAHIK_clean_linker_0, # of connection points: 2
#     Edge 13, Type (0, 1), BuildingBlock: UVAHIK_clean_linker_0, # of connection points: 2
#     Edge 14, Type (0, 1), BuildingBlock: UVAHIK_clean_linker_0, # of connection points: 2
#     Edge 15, Type (0, 1), BuildingBlock: UVAHIK_clean_linker_0, # of connection points: 2
#     Edge 16, Type (0, 1), BuildingBlock: UVAHIK_clean_linker_0, # of connection points: 2
#     Edge 17, Type (0, 1), BuildingBlock: UVAHIK_clean_linker_0, # of connection points: 2
#     Edge 18, Type (0, 1), BuildingBlock: UVAHIK_clean_linker_0, # of connection points: 2
#     Edge 19, Type (0, 1), BuildingBlock: UVAHIK_clean_linker_0, # of connection points: 2
#     Edge 20, Type (0, 1), BuildingBlock: UVAHIK_clean_linker_0, # of connection points: 2
#     Edge 21, Type (0, 1), BuildingBlock: UVAHIK_clean_linker_0, # of connection points: 2
#     Edge 22, Type (0, 1), BuildingBlock: UVAHIK_clean_linker_0, # of connection points: 2
#     Edge 23, Type (0, 1), BuildingBlock: UVAHIK_clean_linker_0, # of connection points: 2
#     Edge 24, Type (0, 1), BuildingBlock: UVAHIK_clean_linker_0, # of connection points: 2
#     Edge 25, Type (0, 1), BuildingBlock: UVAHIK_clean_linker_0, # of connection points: 2
#     Edge 26, Type (0, 1), BuildingBlock: UVAHIK_clean_linker_0, # of connection points: 2
#     Edge 27, Type (0, 1), BuildingBlock: UVAHIK_clean_linker_0, # of connection points: 2
#     Edge 28, Type (0, 1), BuildingBlock: UVAHIK_clean_linker_0, # of connection points: 2
#     Edge 29, Type (0, 1), BuildingBlock: UVAHIK_clean_linker_0, # of connection points: 2
#     Edge 30, Type (0, 1), BuildingBlock: UVAHIK_clean_linker_0, # of connection points: 2
#     Edge 31, Type (0, 1), BuildingBlock: UVAHIK_clean_linker_0, # of connection points: 2
#     Edge 32, Type (0, 1), BuildingBlock: UVAHIK_clean_linker_0, # of connection points: 2
#     Edge 33, Type (0, 1), BuildingBlock: UVAHIK_clean_linker_0, # of connection points: 2
#     Edge 34, Type (0, 1), BuildingBlock: UVAHIK_clean_linker_0, # of connection points: 2
#     Edge 35, Type (0, 1), BuildingBlock: UVAHIK_clean_linker_0, # of connection points: 2
# Relax obj value: 0.088
# Max RMSD: 0.101
# Mean RMSD: 0.091
data_MOF--net-apo--node1-MIDCAF_clean_sbu_0--node2-MIDCAF_clean_linker_0--edge1-UVAHIK_clean_linker_0
_symmetry_space_group_name_H-M    P1
_symmetry_Int_Tables_number       1
_symmetry_cell_setting            triclinic
loop_
_symmetry_equiv_pos_as_xyz
'x, y, z'
_cell_length_a     52.15136
_cell_length_b     62.473356
_cell_length_c     55.970894
_cell_angle_alpha  90.173227
_cell_angle_beta   89.935519
_cell_angle_gamma 90.312651
loop_
_atom_site_label
_atom_site_type_symbol
_atom_site_fract_x
_atom_site_fract_y
_atom_site_fract_z
_atom_type_partial_charge
C0 C 0.34814 0.35931 0.49349 0.0
C1 C 0.32935 0.35815 0.51145 0.0
C2 C 0.30346 0.35597 0.50469 0.0
C3 C 0.2965 0.35624 0.48045 0.0
H4 H 0.24301 0.33409 0.4246 0.0
H5 H 0.20394 0.3205 0.40592 0.0
H6 H 0.22331 0.35398 0.34089 0.0
H7 H 0.26248 0.3672 0.35924 0.0
H8 H 0.31469 0.39184 0.35382 0.0
H9 H 0.34157 0.41793 0.33281 0.0
H10 H 0.39024 0.42357 0.39484 0.0
H11 H 0.36372 0.39771 0.41585 0.0
H12 H 0.35629 0.36127 0.45623 0.0
H13 H 0.3683 0.36033 0.49801 0.0
H14 H 0.28854 0.35498 0.51813 0.0
H15 H 0.27637 0.35549 0.47573 0.0
N16 N 0.28609 0.35533 0.42771 0.0
N17 N 0.29699 0.37144 0.39109 0.0
N18 N 0.32486 0.37415 0.4236 0.0
C19 C 0.2803 0.35962 0.40444 0.0
C20 C 0.31931 0.37878 0.40058 0.0
C21 C 0.30854 0.36249 0.43731 0.0
C22 C 0.25606 0.35169 0.39348 0.0
C23 C 0.23895 0.3386 0.40636 0.0
C24 C 0.21644 0.3309 0.39566 0.0
C25 C 0.21048 0.33611 0.37186 0.0
C26 C 0.22745 0.34938 0.35911 0.0
C27 C 0.24992 0.35705 0.36976 0.0
C28 C 0.33679 0.39283 0.38667 0.0
C29 C 0.33129 0.39845 0.3629 0.0
C30 C 0.34672 0.4133 0.3508 0.0
C31 C 0.36779 0.4229 0.36232 0.0
C32 C 0.37388 0.41663 0.38567 0.0
C33 C 0.35866 0.40173 0.39767 0.0
C34 C 0.31533 0.35878 0.46266 0.0
C35 C 0.34123 0.35972 0.46948 0.0
C36 C 0.15766 0.11077 0.97202 0.0
C37 C 0.17571 0.11409 0.99034 0.0
C38 C 0.20146 0.11784 0.98394 0.0
C39 C 0.20899 0.11787 0.95987 0.0
H40 H 0.26449 0.14275 0.91064 0.0
H41 H 0.30503 0.15746 0.89624 0.0
H42 H 0.2919 0.12819 0.82727 0.0
H43 H 0.25121 0.11398 0.84135 0.0
H44 H 0.19936 0.09255 0.82943 0.0
H45 H 0.1722 0.07271 0.80164 0.0
H46 H 0.11437 0.06601 0.85643 0.0
H47 H 0.14123 0.08607 0.88417 0.0
H48 H 0.15068 0.10781 0.93456 0.0
H49 H 0.13755 0.1084 0.97612 0.0
H50 H 0.21596 0.12029 0.99752 0.0
H51 H 0.22902 0.12047 0.9556 0.0
N52 N 0.22206 0.12039 0.90883 0.0
N53 N 0.213 0.1094 0.86957 0.0
N54 N 0.18288 0.1035 0.8999 0.0
C55 C 0.22923 0.11881 0.88547 0.0
C56 C 0.1898 0.10172 0.87659 0.0
C57 C 0.19883 0.11277 0.91616 0.0
C58 C 0.25442 0.12724 0.87718 0.0
C59 C 0.27026 0.13939 0.89242 0.0
C60 C 0.29362 0.14774 0.88419 0.0
C61 C 0.30177 0.14407 0.86054 0.0
C62 C 0.28608 0.13166 0.84544 0.0
C63 C 0.26273 0.1234 0.85362 0.0
C64 C 0.17263 0.09081 0.85917 0.0
C65 C 0.18076 0.08703 0.83555 0.0
C66 C 0.16524 0.07558 0.8196 0.0
C67 C 0.14116 0.06771 0.82683 0.0
C68 C 0.13268 0.07205 0.8502 0.0
C69 C 0.14823 0.08343 0.86618 0.0
C70 C 0.19096 0.11398 0.94166 0.0
C71 C 0.16519 0.11059 0.94807 0.0
C72 C 0.83812 0.1251 0.50846 0.0
C73 C 0.81984 0.1282 0.4904 0.0
C74 C 0.79399 0.13097 0.49698 0.0
C75 C 0.78646 0.12926 0.52102 0.0
H76 H 0.7366 0.15316 0.58199 0.0
H77 H 0.69964 0.16757 0.60351 0.0
H78 H 0.7092 0.11966 0.65822 0.0
H79 H 0.7461 0.10561 0.63722 0.0
H80 H 0.79219 0.07562 0.63798 0.0
H81 H 0.81635 0.04678 0.65648 0.0
H82 H 0.87716 0.05568 0.605 0.0
H83 H 0.85319 0.08459 0.58648 0.0
H84 H 0.84522 0.1201 0.54555 0.0
H85 H 0.85827 0.12355 0.50414 0.0
H86 H 0.77946 0.13343 0.48348 0.0
H87 H 0.7663 0.1304 0.52549 0.0
N88 N 0.77493 0.12649 0.57357 0.0
N89 N 0.78317 0.10609 0.60792 0.0
N90 N 0.81179 0.10513 0.57586 0.0
C91 C 0.76807 0.12015 0.59602 0.0
C92 C 0.80504 0.09852 0.59801 0.0
C93 C 0.79696 0.11901 0.56347 0.0
C94 C 0.74456 0.12834 0.60791 0.0
C95 C 0.73072 0.14564 0.59854 0.0
C96 C 0.70947 0.15385 0.61084 0.0
C97 C 0.70158 0.14489 0.63274 0.0
C98 C 0.71504 0.12725 0.6417 0.0
C99 C 0.73621 0.11912 0.62951 0.0
C100 C 0.82063 0.08232 0.61059 0.0
C101 C 0.81083 0.07163 0.63073 0.0
C102 C 0.82458 0.05503 0.64128 0.0
C103 C 0.84853 0.04891 0.63208 0.0
C104 C 0.85881 0.06014 0.61256 0.0
C105 C 0.84497 0.07661 0.60187 0.0
C106 C 0.80466 0.12466 0.53877 0.0
C107 C 0.83063 0.12325 0.53227 0.0
C108 C 0.67045 0.38184 0.029 0.0
C109 C 0.68786 0.37669 0.01067 0.0
C110 C 0.71349 0.37245 0.0169 0.0
C111 C 0.72159 0.37389 0.04076 0.0
H112 H 0.77762 0.3526 0.09121 0.0
H113 H 0.81689 0.33698 0.10692 0.0
H114 H 0.80331 0.36776 0.17493 0.0
H115 H 0.76395 0.38302 0.15953 0.0
H116 H 0.71814 0.41432 0.16626 0.0
H117 H 0.69321 0.43865 0.19108 0.0
H118 H 0.63174 0.43663 0.13942 0.0
H119 H 0.65683 0.41282 0.11431 0.0
H120 H 0.66456 0.38773 0.06618 0.0
H121 H 0.65042 0.38461 0.0251 0.0
H122 H 0.72749 0.36856 1.00328 0.0
H123 H 0.74155 0.37097 0.04488 0.0
N124 N 0.73539 0.37477 0.09195 0.0
N125 N 0.72804 0.38998 0.12977 0.0
N126 N 0.69805 0.39458 0.09919 0.0
C127 C 0.74306 0.37815 0.11495 0.0
C128 C 0.70551 0.39825 0.12206 0.0
C129 C 0.7128 0.38293 0.08399 0.0
C130 C 0.76745 0.36904 0.12406 0.0
C131 C 0.783 0.35609 0.1095 0.0
C132 C 0.80563 0.34722 0.11847 0.0
C133 C 0.81325 0.35107 0.14223 0.0
C134 C 0.79784 0.36419 0.15668 0.0
C135 C 0.77528 0.37305 0.14774 0.0
C136 C 0.68965 0.41175 0.13811 0.0
C137 C 0.69924 0.41894 0.16023 0.0
C138 C 0.68487 0.43282 0.17457 0.0
C139 C 0.66055 0.43977 0.16717 0.0
C140 C 0.65063 0.43198 0.14545 0.0
C141 C 0.66501 0.41821 0.13107 0.0
C142 C 0.70427 0.37978 0.05888 0.0
C143 C 0.67856 0.38348 0.05269 0.0
C144 C 0.63978 0.61412 0.54383 0.0
C145 C 0.63791 0.63428 0.53295 0.0
C146 C 0.64669 0.65241 0.54557 0.0
C147 C 0.65696 0.6504 0.56861 0.0
H148 H 0.70819 0.67978 0.62034 0.0
H149 H 0.73771 0.70502 0.63986 0.0
H150 H 0.73748 0.6657 0.70312 0.0
H151 H 0.70837 0.64068 0.68401 0.0
H152 H 0.67413 0.59961 0.68748 0.0
H153 H 0.66772 0.56582 0.70858 0.0
H154 H 0.65236 0.534 0.64152 0.0
H155 H 0.65857 0.56773 0.62033 0.0
H156 H 0.65058 0.59631 0.57468 0.0
H157 H 0.63295 0.59986 0.53474 0.0
H158 H 0.64567 0.66816 0.53759 0.0
H159 H 0.66337 0.66469 0.5779 0.0
N160 N 0.68145 0.64389 0.61553 0.0
N161 N 0.6849 0.62279 0.65 0.0
N162 N 0.66336 0.60935 0.61653 0.0
C163 C 0.69004 0.64138 0.63835 0.0
C164 C 0.67162 0.60673 0.6393 0.0
C165 C 0.66799 0.62787 0.60452 0.0
C166 C 0.70606 0.65799 0.65041 0.0
C167 C 0.71425 0.67663 0.63849 0.0
C168 C 0.73109 0.69113 0.64968 0.0
C169 C 0.74017 0.68717 0.67291 0.0
C170 C 0.73122 0.66899 0.68506 0.0
C171 C 0.71439 0.65465 0.67402 0.0
C172 C 0.66692 0.58638 0.65219 0.0
C173 C 0.66934 0.58543 0.67721 0.0
C174 C 0.66556 0.56612 0.68933 0.0
C175 C 0.65969 0.5473 0.67666 0.0
C176 C 0.65714 0.54824 0.65169 0.0
C177 C 0.66053 0.5676 0.6396 0.0
C178 C 0.65835 0.63024 0.57965 0.0
C179 C 0.64975 0.61214 0.56687 0.0
C180 C 0.8251 0.88048 0.02198 0.0
C181 C 0.82298 0.85948 0.01313 0.0
C182 C 0.81307 0.84345 0.02816 0.0
C183 C 0.80532 0.84836 0.05153 0.0
H184 H 0.76542 0.82416 0.11629 0.0
H185 H 0.73439 0.80341 0.14005 0.0
H186 H 0.7121 0.86098 0.17726 0.0
H187 H 0.74307 0.88154 0.15409 0.0
H188 H 0.80337 0.90674 0.16642 0.0
H189 H 0.81768 0.9395 0.18612 0.0
H190 H 0.83837 0.96633 0.11774 0.0
H191 H 0.82412 0.93343 0.09784 0.0
H192 H 0.81985 0.90167 0.05163 0.0
H193 H 0.83291 0.89313 0.01089 0.0
H194 H 0.81114 0.82713 0.02178 0.0
H195 H 0.79776 0.83565 0.06266 0.0
N196 N 0.78346 0.86185 0.09761 0.0
N197 N 0.78566 0.8852 0.13045 0.0
N198 N 0.80943 0.89274 0.09599 0.0
C199 C 0.77599 0.86724 0.12015 0.0
C200 C 0.80246 0.89796 0.11866 0.0
C201 C 0.80013 0.87466 0.08537 0.0
C202 C 0.75675 0.85444 0.13339 0.0
C203 C 0.75379 0.83234 0.12948 0.0
C204 C 0.7362 0.82048 0.14311 0.0
C205 C 0.72091 0.83067 0.16042 0.0
C206 C 0.72355 0.85279 0.16394 0.0
C207 C 0.7414 0.8645 0.15074 0.0
C208 C 0.81247 0.91751 0.13051 0.0
C209 C 0.81104 0.91957 0.15553 0.0
C210 C 0.81937 0.93827 0.16687 0.0
C211 C 0.82902 0.95546 0.15345 0.0
C212 C 0.83078 0.95336 0.12848 0.0
C213 C 0.82277 0.9345 0.11712 0.0
C214 C 0.80779 0.86934 0.06048 0.0
C215 C 0.81779 0.88532 0.0454 0.0
C216 C 0.16689 0.89932 0.48454 0.0
C217 C 0.17914 0.88688 0.50198 0.0
C218 C 0.20226 0.87667 0.49589 0.0
C219 C 0.21295 0.87903 0.47304 0.0
H220 H 0.27076 0.85545 0.42581 0.0
H221 H 0.3076 0.83534 0.41072 0.0
H222 H 0.3088 0.87464 0.3474 0.0
H223 H 0.27218 0.89441 0.36207 0.0
H224 H 0.23444 0.93407 0.35774 0.0
H225 H 0.2151 0.95946 0.33048 0.0
H226 H 0.14128 0.94856 0.36378 0.0
H227 H 0.16111 0.92409 0.39195 0.0
H228 H 0.16743 0.91146 0.44894 0.0
H229 H 0.14882 0.90709 0.48838 0.0
H230 H 0.21236 0.86711 0.50892 0.0
H231 H 0.23088 0.8711 0.4691 0.0
N232 N 0.23414 0.8845 0.42496 0.0
N233 N 0.23329 0.90184 0.38784 0.0
N234 N 0.20098 0.90847 0.41588 0.0
C235 C 0.24475 0.88794 0.40302 0.0
C236 C 0.21144 0.91209 0.39403 0.0
C237 C 0.21224 0.89482 0.43155 0.0
C238 C 0.26821 0.87644 0.3951 0.0
C239 C 0.27899 0.85987 0.40874 0.0
C240 C 0.30017 0.8484 0.40014 0.0
C241 C 0.31095 0.85322 0.37771 0.0
C242 C 0.30065 0.8702 0.36451 0.0
C243 C 0.27962 0.88162 0.37304 0.0
C244 C 0.19934 0.92715 0.3771 0.0
C245 C 0.21407 0.9371 0.35922 0.0
C246 C 0.20287 0.95158 0.34341 0.0
C247 C 0.17651 0.95619 0.34475 0.0
C248 C 0.16172 0.94586 0.36242 0.0
C249 C 0.17304 0.9317 0.37855 0.0
C250 C 0.20077 0.89167 0.45569 0.0
C251 C 0.17754 0.9017 0.46177 0.0
C252 C 0.34473 0.60095 0.97827 0.0
C253 C 0.34235 0.6212 0.98913 0.0
C254 C 0.33054 0.6377 0.97612 0.0
C255 C 0.32131 0.63401 0.95299 0.0
H256 H 0.26854 0.65697 0.90301 0.0
H257 H 0.23719 0.68049 0.8845 0.0
H258 H 0.22942 0.63629 0.82545 0.0
H259 H 0.26042 0.61262 0.84396 0.0
H260 H 0.28892 0.56615 0.84798 0.0
H261 H 0.30521 0.53661 0.82413 0.0
H262 H 0.3787 0.54266 0.85944 0.0
H263 H 0.3617 0.57129 0.88427 0.0
H264 H 0.338 0.58155 0.94733 0.0
H265 H 0.35318 0.58769 0.9878 0.0
H266 H 0.32874 0.65362 0.98362 0.0
H267 H 0.3124 0.6471 0.9435 0.0
N268 N 0.29615 0.62277 0.90797 0.0
N269 N 0.2957 0.6018 0.87317 0.0
N270 N 0.32326 0.59301 0.90466 0.0
C271 C 0.28672 0.61879 0.88574 0.0
C272 C 0.31402 0.58894 0.88241 0.0
C273 C 0.3143 0.60984 0.91762 0.0
C274 C 0.26712 0.63291 0.87498 0.0
C275 C 0.26009 0.65219 0.88615 0.0
C276 C 0.24223 0.66574 0.87547 0.0
C277 C 0.23092 0.66026 0.85347 0.0
C278 C 0.23763 0.64086 0.8425 0.0
C279 C 0.25556 0.62736 0.85309 0.0
C280 C 0.324 0.57092 0.86808 0.0
C281 C 0.30853 0.56107 0.85068 0.0
C282 C 0.31799 0.54422 0.83683 0.0
C283 C 0.34337 0.53713 0.8397 0.0
C284 C 0.3589 0.54726 0.857 0.0
C285 C 0.34922 0.56378 0.87121 0.0
C286 C 0.324 0.61383 0.94214 0.0
C287 C 0.33588 0.59737 0.95503 0.0
Zn288 Zn 0.02444 0.15772 0.2884 0.0
Zn289 Zn 0.98634 0.16363 0.20134 0.0
Zn290 Zn 0.00537 0.16141 0.24473 0.0
C291 C 0.03117 0.14053 0.19687 0.0
C292 C 0.94982 0.14259 0.22884 0.0
O293 O 0.97576 0.14692 0.26853 0.0
O294 O 0.99481 0.14308 0.30354 0.0
C295 C 0.02381 0.20141 0.27733 0.0
O296 O 0.03193 0.14493 0.2194 0.0
O297 O 0.01223 0.14621 0.18445 0.0
O298 O 0.95262 0.15021 0.20814 0.0
O299 O 0.96748 0.14528 0.24467 0.0
O300 O 0.02871 0.18878 0.29425 0.0
O301 O 0.01512 0.1942 0.25731 0.0
O302 O 0.03987 0.14085 0.24295 0.0
O303 O 0.05496 0.14049 0.27987 0.0
C304 C 0.05654 0.13452 0.25835 0.0
O305 O 1.00151 0.19588 0.23558 0.0
O306 O 0.98815 0.19507 0.19807 0.0
C307 C 0.97514 0.14104 0.2906 0.0
C308 C 0.99462 0.20563 0.21638 0.0
Zn309 Zn 0.53255 0.32678 0.71564 0.0
Zn310 Zn 0.48928 0.32814 0.80192 0.0
Zn311 Zn 0.51171 0.32595 0.75887 0.0
C312 C 0.45834 0.35081 0.77072 0.0
C313 C 0.49372 0.2846 0.78902 0.0
O314 O 0.51846 0.29209 0.7487 0.0
O315 O 0.53451 0.29536 0.71225 0.0
C316 C 0.56546 0.34963 0.74559 0.0
O317 O 0.47618 0.34483 0.75625 0.0
O318 O 0.4587 0.34491 0.79228 0.0
O319 O 0.48634 0.29669 0.80577 0.0
O320 O 0.50382 0.29255 0.76997 0.0
O321 O 0.5639 0.34309 0.72427 0.0
O322 O 0.54795 0.34456 0.76087 0.0
O323 O 0.48468 0.34051 0.73284 0.0
O324 O 0.50489 0.3416 0.69809 0.0
C325 C 0.48504 0.34511 0.71038 0.0
O326 O 0.5388 0.34167 0.78431 0.0
O327 O 0.51761 0.34337 0.81855 0.0
C328 C 0.52751 0.28366 0.72944 0.0
C329 C 0.53771 0.34695 0.80659 0.0
Zn330 Zn 0.02172 0.84837 0.79111 0.0
Zn331 Zn 0.99115 0.81701 0.72198 0.0
Zn332 Zn 1.00037 0.83615 0.75565 0.0
C333 C 0.97482 0.85892 0.71428 0.0
C334 C 0.95769 0.80261 0.75204 0.0
O335 O 0.02865 0.81151 0.75932 0.0
O336 O 0.05098 0.82804 0.78712 0.0
C337 C 0.02174 0.88352 0.76005 0.0
O338 O 0.99416 0.86074 0.7285 0.0
O339 O 0.96613 0.84036 0.70986 0.0
O340 O 0.9748 0.79273 0.74035 0.0
O341 O 0.96181 0.82223 0.75788 0.0
O342 O 0.02687 0.87894 0.78147 0.0
O343 O 0.01237 0.86914 0.7459 0.0
O344 O 0.96815 0.83677 0.78061 0.0
O345 O 0.99218 0.8407 0.8127 0.0
C346 C 0.97036 0.8376 0.80341 0.0
O347 O 0.02173 0.85225 0.72648 0.0
O348 O 0.0285 0.82027 0.71127 0.0
C349 C 0.04847 0.81263 0.77259 0.0
C350 C 0.03494 0.83986 0.71269 0.0
Zn351 Zn 0.52886 0.65936 0.22601 0.0
Zn352 Zn 0.46064 0.65979 0.27734 0.0
Zn353 Zn 0.49814 0.65901 0.258 0.0
C354 C 0.50088 0.64895 0.30954 0.0
C355 C 0.46815 0.61815 0.27033 0.0
O356 O 0.47265 0.65572 0.22824 0.0
O357 O 0.50173 0.66012 0.20023 0.0
C358 C 0.53837 0.69595 0.25429 0.0
O359 O 0.50771 0.64005 0.28968 0.0
O360 O 0.48132 0.66094 0.30925 0.0
O361 O 0.44939 0.63034 0.26598 0.0
O362 O 0.49067 0.62654 0.27265 0.0
O363 O 0.54652 0.68617 0.23605 0.0
O364 O 0.51886 0.68879 0.2658 0.0
O365 O 0.51998 0.6301 0.26737 0.0
O366 O 0.5453 0.63165 0.23561 0.0
C367 C 0.53834 0.62232 0.25458 0.0
O368 O 0.49097 0.69096 0.27356 0.0
O369 O 0.45048 0.68807 0.26326 0.0
C370 C 0.47851 0.65749 0.20621 0.0
C371 C 0.46901 0.69973 0.27012 0.0
C372 C 0.14467 0.98539 0.33619 0.0
C373 C 0.16472 0.97213 0.32826 0.0
C374 C 0.13418 0.00082 0.32113 0.0
C375 C 0.15025 0.0365 0.27292 0.0
H376 H 0.07664 0.044 0.26837 0.0
C377 C 0.0674 0.09988 0.23861 0.0
C378 C 0.0751 0.11756 0.25246 0.0
C379 C 0.08123 0.08075 0.23957 0.0
C380 C 0.09724 0.04191 0.26898 0.0
H381 H 0.18882 0.96458 0.29768 0.0
H382 H 0.17119 0.99231 0.27186 0.0
H383 H 0.09378 0.01205 0.2875 0.0
H384 H 0.10468 0.13004 0.27585 0.0
H385 H 0.12916 0.09696 0.277 0.0
H386 H 0.15366 0.06707 0.25577 0.0
C387 C 0.16361 0.99048 0.28977 0.0
C388 C 0.10702 0.02373 0.28014 0.0
C389 C 0.17381 0.97472 0.30469 0.0
C390 C 0.09835 0.11661 0.26503 0.0
C391 C 0.11239 0.09766 0.26563 0.0
C392 C 0.14046 0.05489 0.26208 0.0
C393 C 0.14372 0.00367 0.29789 0.0
C394 C 0.13358 0.02114 0.2828 0.0
C395 C 0.10319 0.0792 0.25401 0.0
C396 C 0.11383 0.05803 0.26057 0.0
H397 H 0.13746 0.98434 0.35429 0.0
H398 H 0.11912 0.01104 0.32796 0.0
H399 H 0.17082 0.03489 0.27482 0.0
H400 H 0.04943 0.10013 0.22893 0.0
H401 H 0.07383 0.06678 0.2303 0.0
C402 C 0.37132 0.50471 0.83477 0.0
C403 C 0.35347 0.51906 0.82502 0.0
C404 C 0.38079 0.48775 0.82118 0.0
C405 C 0.36497 0.44999 0.7758 0.0
H406 H 0.43848 0.44161 0.77155 0.0
C407 C 0.44769 0.38396 0.7482 0.0
C408 C 0.43991 0.36746 0.76364 0.0
C409 C 0.43365 0.40291 0.74693 0.0
C410 C 0.4179 0.44388 0.77204 0.0
H411 H 0.33187 0.52666 0.79294 0.0
H412 H 0.34759 0.4962 0.76972 0.0
H413 H 0.4218 0.47509 0.78761 0.0
H414 H 0.41006 0.35684 0.78785 0.0
H415 H 0.38544 0.38984 0.78553 0.0
H416 H 0.36113 0.4181 0.76179 0.0
C417 C 0.35432 0.49848 0.78786 0.0
C418 C 0.40842 0.46296 0.78142 0.0
C419 C 0.34522 0.51578 0.80129 0.0
C420 C 0.41649 0.36934 0.77585 0.0
C421 C 0.40233 0.3882 0.77441 0.0
C422 C 0.37449 0.43068 0.76676 0.0
C423 C 0.37229 0.48444 0.79769 0.0
C424 C 0.38193 0.46592 0.78401 0.0
C425 C 0.41154 0.40559 0.76097 0.0
C426 C 0.40107 0.42724 0.76542 0.0
H427 H 0.3777 0.50626 0.85309 0.0
H428 H 0.39438 0.47689 0.82924 0.0
H429 H 0.34445 0.45195 0.77774 0.0
H430 H 0.46582 0.3831 0.73881 0.0
H431 H 0.44107 0.41603 0.73631 0.0
C432 C 0.66868 0.5082 0.68087 0.0
C433 C 0.65637 0.52665 0.68933 0.0
C434 C 0.6646 0.48847 0.69193 0.0
C435 C 0.63655 0.46208 0.74594 0.0
H436 H 0.62737 0.41488 0.70166 0.0
C437 C 0.57814 0.38448 0.76408 0.0
C438 C 0.58497 0.3661 0.75108 0.0
C439 C 0.59272 0.40329 0.76197 0.0
C440 C 0.63042 0.4277 0.71443 0.0
H441 H 0.63067 0.53909 0.71637 0.0
H442 H 0.62281 0.50447 0.7353 0.0
H443 H 0.64077 0.44941 0.68674 0.0
H444 H 0.61407 0.35195 0.7285 0.0
H445 H 0.63999 0.3844 0.72554 0.0
H446 H 0.62491 0.44021 0.77352 0.0
C447 C 0.63609 0.50527 0.72045 0.0
C448 C 0.63812 0.44762 0.70582 0.0
C449 C 0.64046 0.5251 0.70953 0.0
C450 C 0.60826 0.36599 0.7385 0.0
C451 C 0.62295 0.38464 0.73664 0.0
C452 C 0.62864 0.44205 0.75459 0.0
C453 C 0.64778 0.48663 0.71152 0.0
C454 C 0.64112 0.46515 0.72137 0.0
C455 C 0.61441 0.40386 0.74698 0.0
C456 C 0.62535 0.42465 0.73887 0.0
H457 H 0.68143 0.50902 0.6656 0.0
H458 H 0.67443 0.47458 0.6849 0.0
H459 H 0.63893 0.47517 0.75848 0.0
H460 H 0.56018 0.38504 0.7738 0.0
H461 H 0.58564 0.41779 0.77025 0.0
C462 C 0.82807 0.99539 0.15661 0.0
C463 C 0.83662 0.97569 0.16546 0.0
C464 C 0.8352 0.01451 0.1678 0.0
C465 C 0.86439 0.03728 0.22331 0.0
H466 H 0.88241 0.08372 0.18064 0.0
C467 C 0.93218 0.10853 0.24544 0.0
C468 C 0.92824 0.12768 0.23291 0.0
C469 C 0.91535 0.0912 0.2423 0.0
C470 C 0.87695 0.07113 0.19293 0.0
H471 H 0.85912 0.96047 0.19306 0.0
H472 H 0.87235 0.99393 0.21221 0.0
H473 H 0.86508 0.05085 0.1643 0.0
H474 H 0.90199 0.14485 0.21006 0.0
H475 H 0.87225 0.11494 0.20518 0.0
H476 H 0.87756 0.05759 0.25187 0.0
C477 C 0.8596 0.99463 0.19699 0.0
C478 C 0.86699 0.05218 0.18351 0.0
C479 C 0.85218 0.97546 0.18593 0.0
C480 C 0.90561 0.13015 0.21969 0.0
C481 C 0.88871 0.11297 0.21676 0.0
C482 C 0.87459 0.0563 0.23277 0.0
C483 C 0.85138 0.01442 0.18792 0.0
C484 C 0.86072 0.03493 0.1985 0.0
C485 C 0.89431 0.09291 0.22671 0.0
C486 C 0.88109 0.0734 0.21762 0.0
H487 H 0.81564 0.996 0.14114 0.0
H488 H 0.82804 0.02939 0.16062 0.0
H489 H 0.85949 0.0244 0.23542 0.0
H490 H 0.94956 0.10616 0.25566 0.0
H491 H 0.92017 0.07598 0.25028 0.0
C492 C 0.84861 0.01097 0.64614 0.0
C493 C 0.86209 0.0301 0.64189 0.0
C494 C 0.86144 0.9928 0.65411 0.0
C495 C 0.92624 0.96893 0.65721 0.0
H496 H 0.8929 0.93003 0.70146 0.0
C497 C 0.97708 0.89748 0.70267 0.0
C498 C 0.96331 0.8781 0.70345 0.0
C499 C 0.96541 0.91613 0.69447 0.0
C500 C 0.90234 0.94067 0.68893 0.0
H501 H 0.89943 0.04542 0.64322 0.0
H502 H 0.92185 0.0138 0.65771 0.0
H503 H 0.87138 0.9629 0.68986 0.0
H504 H 0.92683 0.86284 0.69566 0.0
H505 H 0.90638 0.89549 0.68135 0.0
H506 H 0.95743 0.94671 0.65675 0.0
C507 C 0.90145 0.01266 0.65434 0.0
C508 C 0.89002 0.95949 0.68224 0.0
C509 C 0.88862 0.03081 0.64615 0.0
C510 C 0.9379 0.87756 0.69522 0.0
C511 C 0.92614 0.89626 0.68724 0.0
C512 C 0.93868 0.95017 0.66411 0.0
C513 C 0.88804 0.99337 0.65824 0.0
C514 C 0.9017 0.97378 0.66613 0.0
C515 C 0.93969 0.91577 0.68707 0.0
C516 C 0.92674 0.93578 0.67988 0.0
H517 H 0.82822 0.00986 0.64263 0.0
H518 H 0.85055 0.97815 0.65646 0.0
H519 H 0.93565 0.97937 0.64449 0.0
H520 H 0.9968 0.89829 0.70861 0.0
H521 H 0.97628 0.93096 0.69459 0.0
C522 C 0.63277 0.47233 0.16976 0.0
C523 C 0.64603 0.45584 0.1814 0.0
C524 C 0.61942 0.4877 0.18283 0.0
C525 C 0.6161 0.51387 0.24156 0.0
H526 H 0.55134 0.53415 0.21663 0.0
C527 C 0.57524 0.59787 0.26012 0.0
C528 C 0.54864 0.60085 0.25897 0.0
C529 C 0.58569 0.57746 0.25702 0.0
C530 C 0.56912 0.52847 0.22425 0.0
H531 H 0.65549 0.44263 0.21607 0.0
H532 H 0.63221 0.46974 0.23899 0.0
H533 H 0.57179 0.50346 0.19825 0.0
H534 H 0.51224 0.5851 0.25331 0.0
H535 H 0.52999 0.54928 0.24985 0.0
H536 H 0.61348 0.53916 0.26744 0.0
C537 C 0.63232 0.47071 0.21967 0.0
C538 C 0.58105 0.51103 0.21342 0.0
C539 C 0.64567 0.45521 0.20654 0.0
C540 C 0.53259 0.58302 0.25589 0.0
C541 C 0.54293 0.56259 0.25311 0.0
C542 C 0.60411 0.5314 0.25246 0.0
C543 C 0.61898 0.48709 0.20792 0.0
C544 C 0.605 0.50388 0.2215 0.0
C545 C 0.56967 0.55969 0.25248 0.0
C546 C 0.58074 0.53922 0.24358 0.0
H547 H 0.63313 0.47365 0.15047 0.0
H548 H 0.60985 0.50038 0.17322 0.0
H549 H 0.63458 0.50876 0.24818 0.0
H550 H 0.58802 0.61153 0.26176 0.0
H551 H 0.60635 0.57595 0.25633 0.0
C552 C 0.39113 0.43883 0.3272 0.0
C553 C 0.38235 0.44052 0.35085 0.0
C554 C 0.40466 0.45577 0.31665 0.0
C555 C 0.43873 0.50681 0.33192 0.0
H556 H 0.42428 0.52121 0.26604 0.0
C557 C 0.47994 0.58384 0.29047 0.0
C558 C 0.46325 0.59538 0.27572 0.0
C559 C 0.47409 0.56279 0.29702 0.0
C560 C 0.42845 0.5175 0.28451 0.0
H561 H 0.3802 0.46134 0.38181 0.0
H562 H 0.40293 0.49098 0.36338 0.0
H563 H 0.4059 0.48884 0.2831 0.0
H564 H 0.42729 0.59405 0.25641 0.0
H565 H 0.41641 0.55789 0.26871 0.0
H566 H 0.45971 0.53615 0.33394 0.0
C567 C 0.40037 0.47641 0.35311 0.0
C568 C 0.4182 0.49871 0.29421 0.0
C569 C 0.38717 0.45944 0.36368 0.0
C570 C 0.44064 0.58547 0.26763 0.0
C571 C 0.43456 0.5646 0.27449 0.0
C572 C 0.44865 0.52572 0.32235 0.0
C573 C 0.40938 0.47482 0.32948 0.0
C574 C 0.42269 0.49339 0.31823 0.0
C575 C 0.45105 0.55302 0.28951 0.0
C576 C 0.44316 0.53159 0.29867 0.0
H577 H 0.38776 0.42434 0.31697 0.0
H578 H 0.41153 0.45388 0.2985 0.0
H579 H 0.44316 0.50299 0.35031 0.0
H580 H 0.49732 0.5912 0.29729 0.0
H581 H 0.48746 0.55432 0.30831 0.0
C582 C 0.13736 0.03759 0.79728 0.0
C583 C 0.1256 0.05389 0.81067 0.0
C584 C 0.12259 0.02305 0.7841 0.0
C585 C 0.0583 -0.00091 0.78476 0.0
H586 H 0.08239 0.97082 0.72726 0.0
C587 C 0.01032 0.92164 0.75472 0.0
C588 C 0.02804 0.90509 0.75165 0.0
C589 C 0.01849 0.94299 0.75399 0.0
C590 C 0.07532 0.97864 0.74324 0.0
H591 H 0.08919 0.06854 0.81944 0.0
H592 H 0.06336 0.0432 0.79631 0.0
H593 H 0.10419 0.00313 0.74157 0.0
H594 H 0.06753 0.8974 0.74388 0.0
H595 H 0.08199 0.93457 0.74272 0.0
H596 H 0.03023 0.97422 0.78715 0.0
C597 C 0.08401 0.04142 0.79638 0.0
C598 C 0.08784 0.9971 0.75148 0.0
C599 C 0.09879 0.05593 0.80965 0.0
C600 C 0.05354 0.91004 0.74596 0.0
C601 C 0.06175 0.93135 0.74528 0.0
C602 C 0.04579 0.98069 0.77653 0.0
C603 C 0.09569 0.02448 0.78391 0.0
C604 C 0.07998 0.00715 0.77278 0.0
C605 C 0.04458 0.94804 0.75049 0.0
C606 C 0.05464 0.96983 0.7561 0.0
H607 H 0.15794 0.0354 0.7979 0.0
H608 H 0.13225 0.01004 0.77505 0.0
H609 H 0.05188 0.00619 0.80139 0.0
H610 H 0.99059 0.91804 0.75934 0.0
H611 H 0.0047 0.95548 0.75767 0.0
C612 C 0.17817 0.12749 0.03297 0.0
C613 C 0.1675 0.11345 0.01592 0.0
C614 C 0.16939 0.12745 0.05666 0.0
C615 C 0.12889 0.09602 0.09977 0.0
H616 H 0.11881 0.15143 0.12957 0.0
C617 C 0.04815 0.11631 0.16544 0.0
C618 C 0.05299 0.1305 0.18442 0.0
C619 C 0.06766 0.11076 0.14955 0.0
C620 C 0.12199 0.13578 0.12175 0.0
H621 H 0.13997 0.08763 0.01095 0.0
H622 H 0.12392 0.08828 0.05156 0.0
H623 H 0.14225 0.14907 0.09203 0.0
H624 H 0.08227 0.149 0.20264 0.0
H625 H 0.11651 0.1397 0.17428 0.0
H626 H 0.10698 0.08305 0.12884 0.0
C627 C 0.13941 0.0991 0.04692 0.0
C628 C 0.13546 0.13439 0.10017 0.0
C629 C 0.14832 0.09901 0.02338 0.0
C630 C 0.07814 0.13791 0.18822 0.0
C631 C 0.09762 0.13272 0.17193 0.0
C632 C 0.11511 0.09748 0.12117 0.0
C633 C 0.14961 0.11346 0.06389 0.0
C634 C 0.13848 0.11456 0.0885 0.0
C635 C 0.09232 0.11964 0.152 0.0
C636 C 0.11097 0.11744 0.13207 0.0
H637 H 0.19287 0.13892 0.02793 0.0
H638 H 0.178 0.13855 0.06923 0.0
H639 H 0.13138 0.08039 0.09172 0.0
H640 H 0.02889 0.11043 0.16213 0.0
H641 H 0.06293 0.10076 0.13431 0.0
C642 C 0.32664 0.34704 0.55479 0.0
C643 C 0.33714 0.36025 0.53694 0.0
C644 C 0.33582 0.34821 0.57832 0.0
C645 C 0.37704 0.38169 0.6189 0.0
H646 H 0.39232 0.32738 0.64884 0.0
C647 C 0.46427 0.36616 0.67813 0.0
C648 C 0.46181 0.35273 0.69806 0.0
C649 C 0.4432 0.37021 0.6635 0.0
C650 C 0.3877 0.34272 0.64101 0.0
H651 H 0.36428 0.38597 0.53019 0.0
H652 H 0.38074 0.3875 0.57056 0.0
H653 H 0.3657 0.3281 0.6131 0.0
H654 H 0.4352 0.33382 0.71908 0.0
H655 H 0.39829 0.34048 0.69298 0.0
H656 H 0.40066 0.39606 0.64594 0.0
C657 C 0.36529 0.37637 0.56672 0.0
C658 C 0.37239 0.34315 0.62049 0.0
C659 C 0.35612 0.37524 0.54337 0.0
C660 C 0.43754 0.34434 0.70388 0.0
C661 C 0.41651 0.34804 0.68891 0.0
C662 C 0.3926 0.38121 0.6392 0.0
C663 C 0.35558 0.36267 0.58449 0.0
C664 C 0.36763 0.36258 0.60866 0.0
C665 C 0.41934 0.36057 0.66824 0.0
C666 C 0.39875 0.36165 0.65 0.0
H667 H 0.31196 0.33535 0.55042 0.0
H668 H 0.32769 0.33757 0.59159 0.0
H669 H 0.37322 0.39701 0.61067 0.0
H670 H 0.48277 0.37283 0.67327 0.0
H671 H 0.44602 0.37979 0.6476 0.0
C672 C 0.68829 0.36068 0.96908 0.0
C673 C 0.6791 0.37613 0.98526 0.0
C674 C 0.6789 0.35969 0.94563 0.0
C675 C 0.63981 0.3904 0.90116 0.0
H676 H 0.62481 0.33404 0.8754 0.0
C677 C 0.55653 0.37063 0.83782 0.0
C678 C 0.56024 0.35578 0.81928 0.0
C679 C 0.57647 0.37574 0.85347 0.0
C680 C 0.62935 0.3499 0.8821 0.0
H681 H 0.65366 0.40334 0.98884 0.0
H682 H 0.63655 0.40101 0.94875 0.0
H683 H 0.64928 0.33737 0.91229 0.0
H684 H 0.58801 0.33545 0.8017 0.0
H685 H 0.62294 0.34395 0.8297 0.0
H686 H 0.61825 0.40273 0.87167 0.0
C687 C 0.65133 0.38981 0.95385 0.0
C688 C 0.64342 0.35185 0.90329 0.0
C689 C 0.66084 0.39091 0.97714 0.0
C690 C 0.58473 0.34705 0.81578 0.0
C691 C 0.60461 0.35179 0.83186 0.0
C692 C 0.62542 0.38841 0.88017 0.0
C693 C 0.66002 0.37408 0.93777 0.0
C694 C 0.64823 0.37211 0.9135 0.0
C695 C 0.60041 0.36575 0.85124 0.0
C696 C 0.61951 0.36813 0.87075 0.0
H697 H 0.70227 0.34897 0.97468 0.0
H698 H 0.68634 0.34752 0.93373 0.0
H699 H 0.6437 0.4063 0.90803 0.0
H700 H 0.53781 0.37757 0.84088 0.0
H701 H 0.5726 0.38644 0.8683 0.0
C702 C 0.81856 0.1417 0.44784 0.0
C703 C 0.82794 0.12722 0.46488 0.0
C704 C 0.82764 0.14117 0.42422 0.0
C705 C 0.86497 0.10714 0.38145 0.0
H706 H 0.8851 0.16143 0.35362 0.0
C707 C 0.95212 0.11912 0.32088 0.0
C708 C 0.95107 0.13386 0.30204 0.0
C709 C 0.93085 0.11577 0.33557 0.0
C710 C 0.87909 0.14614 0.36085 0.0
H711 H 0.8531 0.1001 0.47008 0.0
H712 H 0.86935 0.09958 0.42956 0.0
H713 H 0.85924 0.16098 0.38995 0.0
H714 H 0.92658 0.15579 0.28287 0.0
H715 H 0.88931 0.15028 0.30907 0.0
H716 H 0.88631 0.09238 0.35316 0.0
C717 C 0.85486 0.11125 0.43412 0.0
C718 C 0.86424 0.14587 0.38171 0.0
C719 C 0.84582 0.11177 0.45756 0.0
C720 C 0.92781 0.14422 0.29719 0.0
C721 C 0.90659 0.1412 0.31226 0.0
C722 C 0.88001 0.10743 0.36077 0.0
C723 C 0.84614 0.12606 0.41714 0.0
C724 C 0.85778 0.12636 0.39277 0.0
C725 C 0.90819 0.1274 0.33202 0.0
C726 C 0.88793 0.12693 0.35069 0.0
H727 H 0.80476 0.15379 0.4529 0.0
H728 H 0.82034 0.15271 0.41157 0.0
H729 H 0.85979 0.09181 0.38909 0.0
H730 H 0.96985 0.11096 0.325 0.0
H731 H 0.93277 0.10516 0.35073 0.0
C732 C 0.84818 0.83703 0.98431 0.0
C733 C 0.83175 0.85437 0.9885 0.0
C734 C 0.85799 0.83316 0.96143 0.0
C735 C 0.86977 0.86075 0.90351 0.0
H736 H 0.88926 0.80367 0.88341 0.0
C737 C 0.92453 0.84465 0.81491 0.0
C738 C 0.94813 0.83477 0.81949 0.0
C739 C 0.90537 0.84498 0.83257 0.0
C740 C 0.88369 0.81968 0.8887 0.0
H741 H 0.81176 0.88067 0.97182 0.0
H742 H 0.8281 0.87356 0.93174 0.0
H743 H 0.86467 0.80842 0.92015 0.0
H744 H 0.96961 0.81621 0.84517 0.0
H745 H 0.93604 0.81611 0.87546 0.0
H746 H 0.88901 0.87189 0.87198 0.0
C747 C 0.83416 0.86329 0.9462 0.0
C748 C 0.86982 0.82247 0.90989 0.0
C749 C 0.82466 0.86734 0.96916 0.0
C750 C 0.9516 0.824 0.84123 0.0
C751 C 0.93234 0.82386 0.85853 0.0
C752 C 0.8833 0.85791 0.88213 0.0
C753 C 0.85133 0.84635 0.94204 0.0
C754 C 0.86331 0.84311 0.918 0.0
C755 C 0.90933 0.83488 0.85472 0.0
C756 C 0.89101 0.83741 0.87485 0.0
H757 H 0.85419 0.8269 0.99893 0.0
H758 H 0.87151 0.82022 0.9592 0.0
H759 H 0.8655 0.87693 0.90917 0.0
H760 H 0.92147 0.85314 0.79831 0.0
H761 H 0.88775 0.85355 0.82919 0.0
C762 C 0.63207 0.62156 0.49057 0.0
C763 C 0.62614 0.63626 0.50881 0.0
C764 C 0.61995 0.62268 0.4683 0.0
C765 C 0.58106 0.65894 0.43002 0.0
H766 H 0.56154 0.60615 0.39802 0.0
C767 C 0.50885 0.65755 0.35254 0.0
C768 C 0.51505 0.64541 0.33215 0.0
C769 C 0.52325 0.65579 0.37345 0.0
C770 C 0.56711 0.62102 0.40662 0.0
H771 H 0.60276 0.66366 0.51791 0.0
H772 H 0.58133 0.66546 0.47932 0.0
H773 H 0.58522 0.60473 0.43561 0.0
H774 H 0.54092 0.62145 0.318 0.0
H775 H 0.56601 0.61818 0.35487 0.0
H776 H 0.56239 0.67517 0.4013 0.0
C777 C 0.59577 0.65331 0.48194 0.0
C778 C 0.58075 0.62024 0.42816 0.0
C779 C 0.60804 0.65228 0.50414 0.0
C780 C 0.53564 0.631 0.3334 0.0
C781 C 0.54996 0.6291 0.35451 0.0
C782 C 0.56725 0.65969 0.40864 0.0
C783 C 0.60143 0.63845 0.46373 0.0
C784 C 0.58775 0.63921 0.44028 0.0
C785 C 0.54415 0.64176 0.37464 0.0
C786 C 0.5599 0.64075 0.39679 0.0
H787 H 0.64618 0.60918 0.49349 0.0
H788 H 0.62522 0.61121 0.45463 0.0
H789 H 0.58656 0.67389 0.43846 0.0
H790 H 0.49314 0.66881 0.35224 0.0
H791 H 0.51801 0.66551 0.38874 0.0
C792 C 0.33976 0.63916 0.02957 0.0
C793 C 0.35235 0.62509 0.01377 0.0
C794 C 0.34948 0.64304 0.05249 0.0
C795 C 0.39059 0.62039 0.09911 0.0
H796 H 0.403 0.67922 0.11837 0.0
C797 C 0.4366 0.6435 0.19021 0.0
C798 C 0.45881 0.65607 0.1873 0.0
C799 C 0.41965 0.64046 0.17104 0.0
C800 C 0.39938 0.66273 0.11332 0.0
H801 H 0.38536 0.60427 0.00999 0.0
H802 H 0.40168 0.61053 0.05013 0.0
H803 H 0.3809 0.67169 0.08068 0.0
H804 H 0.48003 0.67616 0.16261 0.0
H805 H 0.45019 0.67132 0.12954 0.0
H806 H 0.40955 0.61144 0.13153 0.0
C807 C 0.3842 0.61845 0.04472 0.0
C808 C 0.38667 0.65842 0.09184 0.0
C809 C 0.37475 0.61483 0.0217 0.0
C810 C 0.46312 0.66631 0.16533 0.0
C811 C 0.44597 0.66365 0.14644 0.0
C812 C 0.40293 0.6247 0.12079 0.0
C813 C 0.37177 0.63268 0.06029 0.0
C814 C 0.3827 0.63721 0.08425 0.0
C815 C 0.42434 0.65038 0.14892 0.0
C816 C 0.40797 0.64591 0.12783 0.0
H817 H 0.32223 0.64708 0.02436 0.0
H818 H 0.33944 0.65399 0.06421 0.0
H819 H 0.38759 0.60388 0.09375 0.0
H820 H 0.43289 0.63536 0.20694 0.0
H821 H 0.40306 0.63016 0.17339 0.0
C822 C 0.16797 0.86471 0.53815 0.0
C823 C 0.16764 0.88452 0.52628 0.0
C824 C 0.15637 0.86236 0.56057 0.0
C825 C 0.10677 0.88634 0.5994 0.0
H826 H 0.13701 0.85 0.64767 0.0
C827 C 0.05583 0.87 0.68985 0.0
C828 C 0.05475 0.84824 0.69612 0.0
C829 C 0.07229 0.87695 0.67152 0.0
C830 C 0.12826 0.86017 0.63436 0.0
H831 H 0.15551 0.9176 0.52926 0.0
H832 H 0.1352 0.91345 0.56825 0.0
H833 H 0.1603 0.857 0.61068 0.0
H834 H 0.07107 0.81699 0.68909 0.0
H835 H 0.09949 0.82899 0.65746 0.0
H836 H 0.07445 0.88908 0.62286 0.0
C837 C 0.1441 0.89964 0.56003 0.0
C838 C 0.1416 0.86413 0.61312 0.0
C839 C 0.15574 0.902 0.53763 0.0
C840 C 0.07134 0.83385 0.68462 0.0
C841 C 0.08782 0.84078 0.66654 0.0
C842 C 0.0934 0.88235 0.62066 0.0
C843 C 0.14413 0.87976 0.57174 0.0
C844 C 0.13083 0.87694 0.59515 0.0
C845 C 0.08815 0.86231 0.65936 0.0
C846 C 0.10375 0.86885 0.63821 0.0
H847 H 0.17662 0.85083 0.52985 0.0
H848 H 0.15642 0.84673 0.56887 0.0
H849 H 0.09777 0.89612 0.58588 0.0
H850 H 0.04326 0.88147 0.69837 0.0
H851 H 0.07227 0.8937 0.6666 0.0
C852 C 0.16369 0.32603 0.37288 0.0
C853 C 0.18692 0.32746 0.3602 0.0
C854 C 0.14184 0.31718 0.36218 0.0
C855 C 0.11326 0.30135 0.30381 0.0
H856 H 0.07677 0.25971 0.3423 0.0
C857 C 0.04999 0.233 0.26546 0.0
C858 C 0.03134 0.22396 0.28049 0.0
C859 C 0.0645 0.25064 0.27325 0.0
C860 C 0.0862 0.27166 0.33135 0.0
H861 H 0.20522 0.32084 0.32616 0.0
H862 H 0.16715 0.30537 0.30754 0.0
H863 H 0.11115 0.28049 0.36 0.0
H864 H 0.01086 0.22759 0.31385 0.0
H865 H 0.03485 0.25912 0.32679 0.0
H866 H 0.08852 0.29203 0.27495 0.0
C867 C 0.16573 0.31141 0.32565 0.0
C868 C 0.10609 0.28355 0.34157 0.0
C869 C 0.18758 0.32025 0.33637 0.0
C870 C 0.02523 0.2343 0.302 0.0
C871 C 0.03927 0.25215 0.30954 0.0
C872 C 0.09319 0.28947 0.29356 0.0
C873 C 0.14267 0.30952 0.33852 0.0
C874 C 0.12013 0.29833 0.32788 0.0
C875 C 0.06024 0.25963 0.29603 0.0
C876 C 0.07959 0.27425 0.30715 0.0
H877 H 0.16236 0.33179 0.39111 0.0
H878 H 0.12429 0.31623 0.37248 0.0
H879 H 0.12354 0.3128 0.29284 0.0
H880 H 0.05519 0.22511 0.2489 0.0
H881 H 0.08043 0.25593 0.26231 0.0
C882 C 0.34811 0.1545 0.86616 0.0
C883 C 0.32625 0.15346 0.8515 0.0
C884 C 0.37076 0.16408 0.85794 0.0
C885 C 0.40497 0.18247 0.80343 0.0
H886 H 0.436 0.22342 0.84687 0.0
C887 C 0.47044 0.25262 0.7737 0.0
C888 C 0.48687 0.26179 0.79076 0.0
C889 C 0.45568 0.23455 0.77951 0.0
C890 C 0.42814 0.21168 0.8346 0.0
H891 H 0.3113 0.1616 0.81652 0.0
H892 H 0.3508 0.17818 0.80221 0.0
H893 H 0.40044 0.20154 0.8604 0.0
H894 H 0.50337 0.25798 0.8259 0.0
H895 H 0.47912 0.22568 0.83547 0.0
H896 H 0.43251 0.19299 0.77744 0.0
C897 C 0.35051 0.17132 0.81996 0.0
C898 C 0.40756 0.19916 0.8424 0.0
C899 C 0.32783 0.16182 0.82821 0.0
C900 C 0.49074 0.25117 0.81248 0.0
C901 C 0.47649 0.23288 0.81808 0.0
C902 C 0.42577 0.19494 0.79562 0.0
C903 C 0.37215 0.17281 0.83483 0.0
C904 C 0.39545 0.18464 0.82684 0.0
C905 C 0.45748 0.22522 0.80235 0.0
C906 C 0.43743 0.20994 0.81103 0.0
H907 H 0.34777 0.14788 0.88401 0.0
H908 H 0.38719 0.16473 0.86974 0.0
H909 H 0.3962 0.17125 0.79108 0.0
H910 H 0.46694 0.2607 0.75692 0.0
H911 H 0.44132 0.22914 0.76687 0.0
C912 C 0.6813 0.15591 0.67162 0.0
C913 C 0.67983 0.15408 0.64658 0.0
C914 C 0.66107 0.16465 0.68474 0.0
C915 C 0.59206 0.17894 0.68106 0.0
H916 H 0.61008 0.22125 0.72907 0.0
C917 C 0.53036 0.25074 0.705 0.0
C918 C 0.53285 0.2606 0.72744 0.0
C919 C 0.5434 0.23186 0.69988 0.0
C920 C 0.60458 0.20907 0.71623 0.0
H921 H 0.65562 0.15975 0.61581 0.0
H922 H 0.62054 0.17551 0.63863 0.0
H923 H 0.64364 0.20044 0.71004 0.0
H924 H 0.54853 0.25737 0.76302 0.0
H925 H 0.5715 0.22411 0.75412 0.0
H926 H 0.55303 0.18831 0.68659 0.0
C927 C 0.63724 0.16985 0.64816 0.0
C928 C 0.6239 0.19718 0.70518 0.0
C929 C 0.6575 0.1611 0.63502 0.0
C930 C 0.54626 0.25001 0.74559 0.0
C931 C 0.55963 0.23113 0.74039 0.0
C932 C 0.57271 0.19083 0.69213 0.0
C933 C 0.63883 0.17184 0.67318 0.0
C934 C 0.61796 0.18243 0.68695 0.0
C935 C 0.55943 0.22253 0.71707 0.0
C936 C 0.57882 0.20653 0.70931 0.0
H937 H 0.69832 0.15091 0.68111 0.0
H938 H 0.66289 0.16582 0.70397 0.0
H939 H 0.58678 0.16737 0.66746 0.0
H940 H 0.52009 0.25863 0.69072 0.0
H941 H 0.5428 0.2258 0.68174 0.0
C942 C 0.83718 0.33275 0.17534 0.0
C943 C 0.83692 0.34117 0.15205 0.0
C944 C 0.85909 0.32278 0.18431 0.0
C945 C 0.91644 0.29443 0.16352 0.0
H946 H 0.93757 0.29849 0.22982 0.0
C947 C 0.99581 0.24043 0.19542 0.0
C948 C 0.98968 0.22879 0.21606 0.0
C949 C 0.98286 0.25932 0.19012 0.0
C950 C 0.93192 0.29717 0.21126 0.0
H951 H 0.85996 0.34644 0.12032 0.0
H952 H 0.89814 0.32897 0.13591 0.0
H953 H 0.90285 0.32111 0.21514 0.0
H954 H 0.96729 0.22877 0.2486 0.0
H955 H 0.94404 0.26146 0.23914 0.0
H956 H 0.94448 0.27001 0.15963 0.0
C957 C 0.88124 0.32982 0.14713 0.0
C958 C 0.912 0.31011 0.20286 0.0
C959 C 0.85932 0.33978 0.13815 0.0
C960 C 0.97252 0.23759 0.23267 0.0
C961 C 0.9591 0.25632 0.22713 0.0
C962 C 0.9362 0.2815 0.17189 0.0
C963 C 0.88131 0.32097 0.17021 0.0
C964 C 0.90381 0.30867 0.17894 0.0
C965 C 0.963 0.26663 0.20505 0.0
C966 C 0.94407 0.28247 0.19593 0.0
H967 H 0.82017 0.33329 0.18644 0.0
H968 H 0.85832 0.31585 0.20201 0.0
H969 H 0.91035 0.29257 0.14514 0.0
H970 H 0.00905 0.23394 0.18236 0.0
H971 H 0.98705 0.26726 0.17338 0.0
C972 C 0.75765 0.7236 0.68411 0.0
C973 C 0.75984 0.70119 0.68429 0.0
C974 C 0.77601 0.73646 0.69564 0.0
C975 C 0.82922 0.73337 0.74033 0.0
H976 H 0.85271 0.78579 0.71038 0.0
C977 C 0.92942 0.77032 0.75344 0.0
C978 C 0.93201 0.79269 0.75444 0.0
C979 C 0.90537 0.76084 0.75008 0.0
C980 C 0.84602 0.7714 0.71922 0.0
H981 H 0.78347 0.67475 0.69588 0.0
H982 H 0.81561 0.69697 0.71531 0.0
H983 H 0.81672 0.76605 0.6931 0.0
H984 H 0.91128 0.82267 0.75415 0.0
H985 H 0.86913 0.80602 0.7478 0.0
H986 H 0.85951 0.73822 0.76568 0.0
C987 C 0.79935 0.70474 0.70711 0.0
C988 C 0.82537 0.76005 0.70931 0.0
C989 C 0.78096 0.69196 0.69582 0.0
C990 C 0.90984 0.80537 0.75357 0.0
C991 C 0.88577 0.79588 0.74972 0.0
C992 C 0.85004 0.74458 0.75004 0.0
C993 C 0.79707 0.72717 0.7074 0.0
C994 C 0.81709 0.74059 0.71939 0.0
C995 C 0.88344 0.77354 0.74725 0.0
C996 C 0.85901 0.76347 0.7393 0.0
H997 H 0.74149 0.73115 0.67548 0.0
H998 H 0.77349 0.75365 0.69561 0.0
H999 H 0.82298 0.71878 0.74901 0.0
H1000 H 0.94618 0.76016 0.75406 0.0
H1001 H 0.90422 0.7436 0.74814 0.0
C1002 C 0.71028 0.80038 0.18797 0.0
C1003 C 0.70238 0.81842 0.17512 0.0
C1004 C 0.69305 0.78953 0.20284 0.0
C1005 C 0.62835 0.79453 0.2317 0.0
H1006 H 0.63296 0.7327 0.23395 0.0
C1007 C 0.54571 0.73481 0.25038 0.0
C1008 C 0.55212 0.71543 0.26137 0.0
C1009 C 0.56437 0.75077 0.24733 0.0
C1010 C 0.63168 0.75 0.23396 0.0
H1011 H 0.67032 0.83912 0.16737 0.0
H1012 H 0.63986 0.81966 0.19232 0.0
H1013 H 0.66504 0.75291 0.21215 0.0
H1014 H 0.58186 0.69813 0.27986 0.0
H1015 H 0.61434 0.72611 0.27501 0.0
H1016 H 0.59383 0.79117 0.25238 0.0
C1017 C 0.65953 0.81424 0.19174 0.0
C1018 C 0.65015 0.76166 0.22141 0.0
C1019 C 0.67689 0.82529 0.17721 0.0
C1020 C 0.57643 0.71315 0.27169 0.0
C1021 C 0.59507 0.72902 0.26862 0.0
C1022 C 0.60959 0.78278 0.24399 0.0
C1023 C 0.66737 0.79624 0.20486 0.0
C1024 C 0.64861 0.78407 0.2198 0.0
C1025 C 0.58967 0.74734 0.25506 0.0
C1026 C 0.61096 0.76037 0.24503 0.0
H1027 H 0.72996 0.79498 0.18692 0.0
H1028 H 0.7 0.776 0.21294 0.0
H1029 H 0.62677 0.81179 0.23132 0.0
H1030 H 0.52721 0.73665 0.24184 0.0
H1031 H 0.55967 0.76469 0.23675 0.0
C1032 C 0.35313 0.83384 0.38155 0.0
C1033 C 0.33223 0.84027 0.36748 0.0
C1034 C 0.37325 0.82204 0.37144 0.0
C1035 C 0.40176 0.80732 0.31248 0.0
H1036 H 0.42881 0.75854 0.34665 0.0
C1037 C 0.44331 0.73297 0.26702 0.0
C1038 C 0.46348 0.72184 0.27787 0.0
C1039 C 0.43324 0.75133 0.27766 0.0
C1040 C 0.4219 0.77238 0.33704 0.0
H1041 H 0.3157 0.83868 0.33198 0.0
H1042 H 0.35035 0.81807 0.31454 0.0
H1043 H 0.39879 0.7825 0.3666 0.0
H1044 H 0.49008 0.72189 0.30756 0.0
H1045 H 0.47217 0.75402 0.32648 0.0
H1046 H 0.42394 0.79655 0.28256 0.0
C1047 C 0.35174 0.82262 0.33318 0.0
C1048 C 0.40462 0.78612 0.34848 0.0
C1049 C 0.33176 0.83441 0.34322 0.0
C1050 C 0.47464 0.73028 0.29873 0.0
C1051 C 0.46423 0.74851 0.30966 0.0
C1052 C 0.41888 0.79352 0.30103 0.0
C1053 C 0.37285 0.81637 0.34707 0.0
C1054 C 0.39375 0.8034 0.3361 0.0
C1055 C 0.44287 0.7588 0.29961 0.0
C1056 C 0.42861 0.77557 0.31296 0.0
H1057 H 0.35415 0.83824 0.40026 0.0
H1058 H 0.38926 0.8176 0.38265 0.0
H1059 H 0.3943 0.82079 0.30259 0.0
H1060 H 0.43433 0.72678 0.25095 0.0
H1061 H 0.41671 0.75876 0.26952 0.0
C1062 C 0.21751 0.69703 0.84121 0.0
C1063 C 0.21251 0.67494 0.84182 0.0
C1064 C 0.20012 0.71097 0.83061 0.0
C1065 C 0.14488 0.71383 0.78923 0.0
H1066 H 0.13217 0.76677 0.82343 0.0
C1067 C 0.06204 0.77422 0.76923 0.0
C1068 C 0.0683 0.79593 0.77243 0.0
C1069 C 0.08024 0.75839 0.77424 0.0
C1070 C 0.13572 0.75218 0.81347 0.0
H1071 H 0.18548 0.65007 0.83156 0.0
H1072 H 0.15486 0.67452 0.81321 0.0
H1073 H 0.16242 0.74124 0.8395 0.0
H1074 H 0.09894 0.81828 0.78086 0.0
H1075 H 0.13064 0.7909 0.78893 0.0
H1076 H 0.11768 0.72494 0.76331 0.0
C1077 C 0.17243 0.68101 0.82065 0.0
C1078 C 0.1531 0.73754 0.82269 0.0
C1079 C 0.18992 0.66703 0.83121 0.0
C1080 C 0.09349 0.80162 0.77866 0.0
C1081 C 0.1116 0.78595 0.7834 0.0
C1082 C 0.12733 0.72856 0.77997 0.0
C1083 C 0.17723 0.70317 0.82047 0.0
C1084 C 0.15814 0.7183 0.81059 0.0
C1085 C 0.10488 0.76418 0.78232 0.0
C1086 C 0.12287 0.74802 0.79188 0.0
H1087 H 0.235 0.70356 0.84878 0.0
H1088 H 0.20465 0.72791 0.83032 0.0
H1089 H 0.14843 0.69916 0.77945 0.0
H1090 H 0.04271 0.76946 0.76444 0.0
H1091 H 0.07457 0.74171 0.77319 0.0
loop_
_geom_bond_atom_site_label_1
_geom_bond_atom_site_label_2
_geom_bond_distance
_geom_bond_site_symmetry_2
_ccdc_geom_bond_type
C0 C1 1.384 . S
C0 H13 0.947 . S
C0 C35 1.382 . S
C1 C0 1.384 . S
C1 C2 1.378 . S
C2 C1 1.378 . S
C2 C3 1.378 . S
C2 H14 0.952 . S
C3 C2 1.378 . S
C3 H15 0.950 . S
C3 C34 1.383 . S
H4 C23 0.947 . S
H5 C24 0.946 . S
H6 C26 0.953 . S
H7 C27 0.945 . S
H8 C29 0.952 . S
H9 C30 0.949 . S
H10 C32 0.950 . S
H11 C33 0.948 . S
H12 C35 0.951 . S
H13 C0 0.947 . S
H14 C2 0.952 . S
H15 C3 0.950 . S
N16 C19 1.382 . S
N16 C21 1.363 . S
N17 C19 1.371 . S
N17 C20 1.372 . S
N18 C20 1.361 . S
N18 C21 1.377 . S
C19 N16 1.382 . S
C19 N17 1.371 . S
C19 C22 1.480 . S
C20 N17 1.372 . S
C20 N18 1.361 . S
C20 C28 1.457 . S
C21 N16 1.363 . S
C21 N18 1.377 . S
C21 C34 1.479 . S
C22 C19 1.480 . S
C22 C23 1.383 . S
C22 C27 1.385 . S
C23 H4 0.947 . S
C23 C22 1.383 . S
C23 C24 1.388 . S
C24 H5 0.946 . S
C24 C23 1.388 . S
C24 C25 1.384 . S
C25 C24 1.384 . S
C25 C26 1.377 . S
C26 H6 0.953 . S
C26 C25 1.377 . S
C26 C27 1.369 . S
C27 H7 0.945 . S
C27 C22 1.385 . S
C27 C26 1.369 . S
C28 C20 1.457 . S
C28 C29 1.372 . S
C28 C33 1.364 . S
C29 H8 0.952 . S
C29 C28 1.372 . S
C29 C30 1.389 . S
C30 H9 0.949 . S
C30 C29 1.389 . S
C30 C31 1.387 . S
C31 C30 1.387 . S
C31 C32 1.372 . S
C32 H10 0.950 . S
C32 C31 1.372 . S
C32 C33 1.379 . S
C33 H11 0.948 . S
C33 C28 1.364 . S
C33 C32 1.379 . S
C34 C3 1.383 . S
C34 C21 1.479 . S
C34 C35 1.398 . S
C35 C0 1.382 . S
C35 H12 0.951 . S
C35 C34 1.398 . S
C36 C37 1.384 . S
C36 H49 0.947 . S
C36 C71 1.382 . S
C37 C36 1.384 . S
C37 C38 1.378 . S
C38 C37 1.378 . S
C38 C39 1.378 . S
C38 H50 0.952 . S
C39 C38 1.378 . S
C39 H51 0.950 . S
C39 C70 1.383 . S
H40 C59 0.947 . S
H41 C60 0.946 . S
H42 C62 0.953 . S
H43 C63 0.945 . S
H44 C65 0.952 . S
H45 C66 0.949 . S
H46 C68 0.950 . S
H47 C69 0.948 . S
H48 C71 0.951 . S
H49 C36 0.947 . S
H50 C38 0.952 . S
H51 C39 0.950 . S
N52 C55 1.382 . S
N52 C57 1.363 . S
N53 C55 1.371 . S
N53 C56 1.372 . S
N54 C56 1.361 . S
N54 C57 1.377 . S
C55 N52 1.382 . S
C55 N53 1.371 . S
C55 C58 1.480 . S
C56 N53 1.372 . S
C56 N54 1.361 . S
C56 C64 1.457 . S
C57 N52 1.363 . S
C57 N54 1.377 . S
C57 C70 1.479 . S
C58 C55 1.480 . S
C58 C59 1.383 . S
C58 C63 1.385 . S
C59 H40 0.947 . S
C59 C58 1.383 . S
C59 C60 1.388 . S
C60 H41 0.946 . S
C60 C59 1.388 . S
C60 C61 1.384 . S
C61 C60 1.384 . S
C61 C62 1.377 . S
C62 H42 0.953 . S
C62 C61 1.377 . S
C62 C63 1.369 . S
C63 H43 0.945 . S
C63 C58 1.385 . S
C63 C62 1.369 . S
C64 C56 1.457 . S
C64 C65 1.372 . S
C64 C69 1.364 . S
C65 H44 0.952 . S
C65 C64 1.372 . S
C65 C66 1.389 . S
C66 H45 0.949 . S
C66 C65 1.389 . S
C66 C67 1.387 . S
C67 C66 1.387 . S
C67 C68 1.372 . S
C68 H46 0.950 . S
C68 C67 1.372 . S
C68 C69 1.379 . S
C69 H47 0.948 . S
C69 C64 1.364 . S
C69 C68 1.379 . S
C70 C39 1.383 . S
C70 C57 1.479 . S
C70 C71 1.398 . S
C71 C36 1.382 . S
C71 H48 0.951 . S
C71 C70 1.398 . S
C72 C73 1.384 . S
C72 H85 0.947 . S
C72 C107 1.382 . S
C73 C72 1.384 . S
C73 C74 1.378 . S
C74 C73 1.378 . S
C74 C75 1.378 . S
C74 H86 0.952 . S
C75 C74 1.378 . S
C75 H87 0.950 . S
C75 C106 1.383 . S
H76 C95 0.947 . S
H77 C96 0.946 . S
H78 C98 0.953 . S
H79 C99 0.945 . S
H80 C101 0.952 . S
H81 C102 0.949 . S
H82 C104 0.950 . S
H83 C105 0.948 . S
H84 C107 0.951 . S
H85 C72 0.947 . S
H86 C74 0.952 . S
H87 C75 0.950 . S
N88 C91 1.382 . S
N88 C93 1.363 . S
N89 C91 1.371 . S
N89 C92 1.372 . S
N90 C92 1.361 . S
N90 C93 1.377 . S
C91 N88 1.382 . S
C91 N89 1.371 . S
C91 C94 1.480 . S
C92 N89 1.372 . S
C92 N90 1.361 . S
C92 C100 1.457 . S
C93 N88 1.363 . S
C93 N90 1.377 . S
C93 C106 1.479 . S
C94 C91 1.480 . S
C94 C95 1.383 . S
C94 C99 1.385 . S
C95 H76 0.947 . S
C95 C94 1.383 . S
C95 C96 1.388 . S
C96 H77 0.946 . S
C96 C95 1.388 . S
C96 C97 1.384 . S
C97 C96 1.384 . S
C97 C98 1.377 . S
C98 H78 0.953 . S
C98 C97 1.377 . S
C98 C99 1.369 . S
C99 H79 0.945 . S
C99 C94 1.385 . S
C99 C98 1.369 . S
C100 C92 1.457 . S
C100 C101 1.372 . S
C100 C105 1.364 . S
C101 H80 0.952 . S
C101 C100 1.372 . S
C101 C102 1.389 . S
C102 H81 0.949 . S
C102 C101 1.389 . S
C102 C103 1.387 . S
C103 C102 1.387 . S
C103 C104 1.372 . S
C104 H82 0.950 . S
C104 C103 1.372 . S
C104 C105 1.379 . S
C105 H83 0.948 . S
C105 C100 1.364 . S
C105 C104 1.379 . S
C106 C75 1.383 . S
C106 C93 1.479 . S
C106 C107 1.398 . S
C107 C72 1.382 . S
C107 H84 0.951 . S
C107 C106 1.398 . S
C108 C109 1.384 . S
C108 H121 0.947 . S
C108 C143 1.382 . S
C109 C108 1.384 . S
C109 C110 1.378 . S
C110 C109 1.378 . S
C110 C111 1.378 . S
C110 H122 0.952 . S
C111 C110 1.378 . S
C111 H123 0.950 . S
C111 C142 1.383 . S
H112 C131 0.947 . S
H113 C132 0.946 . S
H114 C134 0.953 . S
H115 C135 0.945 . S
H116 C137 0.952 . S
H117 C138 0.949 . S
H118 C140 0.950 . S
H119 C141 0.948 . S
H120 C143 0.951 . S
H121 C108 0.947 . S
H122 C110 0.952 . S
H123 C111 0.950 . S
N124 C127 1.382 . S
N124 C129 1.363 . S
N125 C127 1.371 . S
N125 C128 1.372 . S
N126 C128 1.361 . S
N126 C129 1.377 . S
C127 N124 1.382 . S
C127 N125 1.371 . S
C127 C130 1.480 . S
C128 N125 1.372 . S
C128 N126 1.361 . S
C128 C136 1.457 . S
C129 N124 1.363 . S
C129 N126 1.377 . S
C129 C142 1.479 . S
C130 C127 1.480 . S
C130 C131 1.383 . S
C130 C135 1.385 . S
C131 H112 0.947 . S
C131 C130 1.383 . S
C131 C132 1.388 . S
C132 H113 0.946 . S
C132 C131 1.388 . S
C132 C133 1.384 . S
C133 C132 1.384 . S
C133 C134 1.377 . S
C134 H114 0.953 . S
C134 C133 1.377 . S
C134 C135 1.369 . S
C135 H115 0.945 . S
C135 C130 1.385 . S
C135 C134 1.369 . S
C136 C128 1.457 . S
C136 C137 1.372 . S
C136 C141 1.364 . S
C137 H116 0.952 . S
C137 C136 1.372 . S
C137 C138 1.389 . S
C138 H117 0.949 . S
C138 C137 1.389 . S
C138 C139 1.387 . S
C139 C138 1.387 . S
C139 C140 1.372 . S
C140 H118 0.950 . S
C140 C139 1.372 . S
C140 C141 1.379 . S
C141 H119 0.948 . S
C141 C136 1.364 . S
C141 C140 1.379 . S
C142 C111 1.383 . S
C142 C129 1.479 . S
C142 C143 1.398 . S
C143 C108 1.382 . S
C143 H120 0.951 . S
C143 C142 1.398 . S
C144 C145 1.384 . S
C144 H157 0.947 . S
C144 C179 1.382 . S
C145 C144 1.384 . S
C145 C146 1.378 . S
C146 C145 1.378 . S
C146 C147 1.378 . S
C146 H158 0.952 . S
C147 C146 1.378 . S
C147 H159 0.950 . S
C147 C178 1.383 . S
H148 C167 0.947 . S
H149 C168 0.946 . S
H150 C170 0.953 . S
H151 C171 0.945 . S
H152 C173 0.952 . S
H153 C174 0.949 . S
H154 C176 0.950 . S
H155 C177 0.948 . S
H156 C179 0.951 . S
H157 C144 0.947 . S
H158 C146 0.952 . S
H159 C147 0.950 . S
N160 C163 1.382 . S
N160 C165 1.363 . S
N161 C163 1.371 . S
N161 C164 1.372 . S
N162 C164 1.361 . S
N162 C165 1.377 . S
C163 N160 1.382 . S
C163 N161 1.371 . S
C163 C166 1.480 . S
C164 N161 1.372 . S
C164 N162 1.361 . S
C164 C172 1.457 . S
C165 N160 1.363 . S
C165 N162 1.377 . S
C165 C178 1.479 . S
C166 C163 1.480 . S
C166 C167 1.383 . S
C166 C171 1.385 . S
C167 H148 0.947 . S
C167 C166 1.383 . S
C167 C168 1.388 . S
C168 H149 0.946 . S
C168 C167 1.388 . S
C168 C169 1.384 . S
C169 C168 1.384 . S
C169 C170 1.377 . S
C170 H150 0.953 . S
C170 C169 1.377 . S
C170 C171 1.369 . S
C171 H151 0.945 . S
C171 C166 1.385 . S
C171 C170 1.369 . S
C172 C164 1.457 . S
C172 C173 1.372 . S
C172 C177 1.364 . S
C173 H152 0.952 . S
C173 C172 1.372 . S
C173 C174 1.389 . S
C174 H153 0.949 . S
C174 C173 1.389 . S
C174 C175 1.387 . S
C175 C174 1.387 . S
C175 C176 1.372 . S
C176 H154 0.950 . S
C176 C175 1.372 . S
C176 C177 1.379 . S
C177 H155 0.948 . S
C177 C172 1.364 . S
C177 C176 1.379 . S
C178 C147 1.383 . S
C178 C165 1.479 . S
C178 C179 1.398 . S
C179 C144 1.382 . S
C179 H156 0.951 . S
C179 C178 1.398 . S
C180 C181 1.384 . S
C180 H193 0.947 . S
C180 C215 1.382 . S
C181 C180 1.384 . S
C181 C182 1.378 . S
C182 C181 1.378 . S
C182 C183 1.378 . S
C182 H194 0.952 . S
C183 C182 1.378 . S
C183 H195 0.950 . S
C183 C214 1.383 . S
H184 C203 0.947 . S
H185 C204 0.946 . S
H186 C206 0.953 . S
H187 C207 0.945 . S
H188 C209 0.952 . S
H189 C210 0.949 . S
H190 C212 0.950 . S
H191 C213 0.948 . S
H192 C215 0.951 . S
H193 C180 0.947 . S
H194 C182 0.952 . S
H195 C183 0.950 . S
N196 C199 1.382 . S
N196 C201 1.363 . S
N197 C199 1.371 . S
N197 C200 1.372 . S
N198 C200 1.361 . S
N198 C201 1.377 . S
C199 N196 1.382 . S
C199 N197 1.371 . S
C199 C202 1.480 . S
C200 N197 1.372 . S
C200 N198 1.361 . S
C200 C208 1.457 . S
C201 N196 1.363 . S
C201 N198 1.377 . S
C201 C214 1.479 . S
C202 C199 1.480 . S
C202 C203 1.383 . S
C202 C207 1.385 . S
C203 H184 0.947 . S
C203 C202 1.383 . S
C203 C204 1.388 . S
C204 H185 0.946 . S
C204 C203 1.388 . S
C204 C205 1.384 . S
C205 C204 1.384 . S
C205 C206 1.377 . S
C206 H186 0.953 . S
C206 C205 1.377 . S
C206 C207 1.369 . S
C207 H187 0.945 . S
C207 C202 1.385 . S
C207 C206 1.369 . S
C208 C200 1.457 . S
C208 C209 1.372 . S
C208 C213 1.364 . S
C209 H188 0.952 . S
C209 C208 1.372 . S
C209 C210 1.389 . S
C210 H189 0.949 . S
C210 C209 1.389 . S
C210 C211 1.387 . S
C211 C210 1.387 . S
C211 C212 1.372 . S
C212 H190 0.950 . S
C212 C211 1.372 . S
C212 C213 1.379 . S
C213 H191 0.948 . S
C213 C208 1.364 . S
C213 C212 1.379 . S
C214 C183 1.383 . S
C214 C201 1.479 . S
C214 C215 1.398 . S
C215 C180 1.382 . S
C215 H192 0.951 . S
C215 C214 1.398 . S
C216 C217 1.384 . S
C216 H229 0.947 . S
C216 C251 1.382 . S
C217 C216 1.384 . S
C217 C218 1.378 . S
C218 C217 1.378 . S
C218 C219 1.378 . S
C218 H230 0.952 . S
C219 C218 1.378 . S
C219 H231 0.950 . S
C219 C250 1.383 . S
H220 C239 0.947 . S
H221 C240 0.946 . S
H222 C242 0.953 . S
H223 C243 0.945 . S
H224 C245 0.952 . S
H225 C246 0.949 . S
H226 C248 0.950 . S
H227 C249 0.948 . S
H228 C251 0.951 . S
H229 C216 0.947 . S
H230 C218 0.952 . S
H231 C219 0.950 . S
N232 C235 1.382 . S
N232 C237 1.363 . S
N233 C235 1.371 . S
N233 C236 1.372 . S
N234 C236 1.361 . S
N234 C237 1.377 . S
C235 N232 1.382 . S
C235 N233 1.371 . S
C235 C238 1.480 . S
C236 N233 1.372 . S
C236 N234 1.361 . S
C236 C244 1.457 . S
C237 N232 1.363 . S
C237 N234 1.377 . S
C237 C250 1.479 . S
C238 C235 1.480 . S
C238 C239 1.383 . S
C238 C243 1.385 . S
C239 H220 0.947 . S
C239 C238 1.383 . S
C239 C240 1.388 . S
C240 H221 0.946 . S
C240 C239 1.388 . S
C240 C241 1.384 . S
C241 C240 1.384 . S
C241 C242 1.377 . S
C242 H222 0.953 . S
C242 C241 1.377 . S
C242 C243 1.369 . S
C243 H223 0.945 . S
C243 C238 1.385 . S
C243 C242 1.369 . S
C244 C236 1.457 . S
C244 C245 1.372 . S
C244 C249 1.364 . S
C245 H224 0.952 . S
C245 C244 1.372 . S
C245 C246 1.389 . S
C246 H225 0.949 . S
C246 C245 1.389 . S
C246 C247 1.387 . S
C247 C246 1.387 . S
C247 C248 1.372 . S
C248 H226 0.950 . S
C248 C247 1.372 . S
C248 C249 1.379 . S
C249 H227 0.948 . S
C249 C244 1.364 . S
C249 C248 1.379 . S
C250 C219 1.383 . S
C250 C237 1.479 . S
C250 C251 1.398 . S
C251 C216 1.382 . S
C251 H228 0.951 . S
C251 C250 1.398 . S
C252 C253 1.384 . S
C252 H265 0.947 . S
C252 C287 1.382 . S
C253 C252 1.384 . S
C253 C254 1.378 . S
C254 C253 1.378 . S
C254 C255 1.378 . S
C254 H266 0.952 . S
C255 C254 1.378 . S
C255 H267 0.950 . S
C255 C286 1.383 . S
H256 C275 0.947 . S
H257 C276 0.946 . S
H258 C278 0.953 . S
H259 C279 0.945 . S
H260 C281 0.952 . S
H261 C282 0.949 . S
H262 C284 0.950 . S
H263 C285 0.948 . S
H264 C287 0.951 . S
H265 C252 0.947 . S
H266 C254 0.952 . S
H267 C255 0.950 . S
N268 C271 1.382 . S
N268 C273 1.363 . S
N269 C271 1.371 . S
N269 C272 1.372 . S
N270 C272 1.361 . S
N270 C273 1.377 . S
C271 N268 1.382 . S
C271 N269 1.371 . S
C271 C274 1.480 . S
C272 N269 1.372 . S
C272 N270 1.361 . S
C272 C280 1.457 . S
C273 N268 1.363 . S
C273 N270 1.377 . S
C273 C286 1.479 . S
C274 C271 1.480 . S
C274 C275 1.383 . S
C274 C279 1.385 . S
C275 H256 0.947 . S
C275 C274 1.383 . S
C275 C276 1.388 . S
C276 H257 0.946 . S
C276 C275 1.388 . S
C276 C277 1.384 . S
C277 C276 1.384 . S
C277 C278 1.377 . S
C278 H258 0.953 . S
C278 C277 1.377 . S
C278 C279 1.369 . S
C279 H259 0.945 . S
C279 C274 1.385 . S
C279 C278 1.369 . S
C280 C272 1.457 . S
C280 C281 1.372 . S
C280 C285 1.364 . S
C281 H260 0.952 . S
C281 C280 1.372 . S
C281 C282 1.389 . S
C282 H261 0.949 . S
C282 C281 1.389 . S
C282 C283 1.387 . S
C283 C282 1.387 . S
C283 C284 1.372 . S
C284 H262 0.950 . S
C284 C283 1.372 . S
C284 C285 1.379 . S
C285 H263 0.948 . S
C285 C280 1.364 . S
C285 C284 1.379 . S
C286 C255 1.383 . S
C286 C273 1.479 . S
C286 C287 1.398 . S
C287 C252 1.382 . S
C287 H264 0.951 . S
C287 C286 1.398 . S
Zn288 O294 1.920 1_455 S
Zn288 O300 1.898 . S
Zn288 O303 1.905 . S
Zn289 O297 1.905 1_655 S
Zn289 O298 1.898 . S
Zn289 O306 1.920 . S
Zn290 O293 2.060 1_455 S
Zn290 O296 2.135 . S
Zn290 O299 2.092 1_455 S
Zn290 O301 2.145 . S
Zn290 O302 2.142 . S
Zn290 O305 2.056 1_455 S
C291 O296 1.166 . S
C291 O297 1.182 . S
C292 O298 1.167 . S
C292 O299 1.299 . S
O293 Zn290 2.060 1_655 S
O293 C307 1.305 . S
O294 Zn288 1.920 1_655 S
O294 C307 1.234 . S
C295 O300 1.167 . S
C295 O301 1.299 . S
O296 Zn290 2.135 . S
O296 C291 1.166 . S
O297 Zn289 1.905 1_455 S
O297 C291 1.182 . S
O298 Zn289 1.898 . S
O298 C292 1.167 . S
O299 Zn290 2.092 1_655 S
O299 C292 1.299 . S
O300 Zn288 1.898 . S
O300 C295 1.167 . S
O301 Zn290 2.145 . S
O301 C295 1.299 . S
O302 Zn290 2.142 . S
O302 C304 1.166 . S
O303 Zn288 1.905 . S
O303 C304 1.182 . S
C304 O302 1.166 . S
C304 O303 1.182 . S
O305 Zn290 2.056 1_655 S
O305 C308 1.305 . S
O306 Zn289 1.920 . S
O306 C308 1.234 . S
C307 O293 1.305 . S
C307 O294 1.234 . S
C308 O305 1.305 . S
C308 O306 1.234 . S
Zn309 O315 1.920 . S
Zn309 O321 1.898 . S
Zn309 O324 1.905 . S
Zn310 O318 1.905 . S
Zn310 O319 1.898 . S
Zn310 O327 1.920 . S
Zn311 O314 2.080 . S
Zn311 O317 2.114 . S
Zn311 O320 2.120 . S
Zn311 O322 2.120 . S
Zn311 O323 2.114 . S
Zn311 O326 2.080 . S
C312 O317 1.166 . S
C312 O318 1.182 . S
C313 O319 1.167 . S
C313 O320 1.299 . S
O314 Zn311 2.080 . S
O314 C328 1.305 . S
O315 Zn309 1.920 . S
O315 C328 1.234 . S
C316 O321 1.167 . S
C316 O322 1.299 . S
O317 Zn311 2.114 . S
O317 C312 1.166 . S
O318 Zn310 1.905 . S
O318 C312 1.182 . S
O319 Zn310 1.898 . S
O319 C313 1.167 . S
O320 Zn311 2.120 . S
O320 C313 1.299 . S
O321 Zn309 1.898 . S
O321 C316 1.167 . S
O322 Zn311 2.120 . S
O322 C316 1.299 . S
O323 Zn311 2.114 . S
O323 C325 1.166 . S
O324 Zn309 1.905 . S
O324 C325 1.182 . S
C325 O323 1.166 . S
C325 O324 1.182 . S
O326 Zn311 2.080 . S
O326 C329 1.305 . S
O327 Zn310 1.920 . S
O327 C329 1.234 . S
C328 O314 1.305 . S
C328 O315 1.234 . S
C329 O326 1.305 . S
C329 O327 1.234 . S
Zn330 O336 1.920 . S
Zn330 O342 1.898 . S
Zn330 O345 1.905 1_455 S
Zn331 O339 1.905 . S
Zn331 O340 1.898 . S
Zn331 O348 1.920 1_655 S
Zn332 O335 2.080 . S
Zn332 O338 2.114 1_455 S
Zn332 O341 2.120 1_455 S
Zn332 O343 2.120 . S
Zn332 O344 2.114 1_455 S
Zn332 O347 2.080 . S
C333 O338 1.166 . S
C333 O339 1.182 . S
C334 O340 1.167 . S
C334 O341 1.299 . S
O335 Zn332 2.080 . S
O335 C349 1.305 . S
O336 Zn330 1.920 . S
O336 C349 1.234 . S
C337 O342 1.167 . S
C337 O343 1.299 . S
O338 Zn332 2.114 1_655 S
O338 C333 1.166 . S
O339 Zn331 1.905 . S
O339 C333 1.182 . S
O340 Zn331 1.898 . S
O340 C334 1.167 . S
O341 Zn332 2.120 1_655 S
O341 C334 1.299 . S
O342 Zn330 1.898 . S
O342 C337 1.167 . S
O343 Zn332 2.120 . S
O343 C337 1.299 . S
O344 Zn332 2.114 1_655 S
O344 C346 1.166 . S
O345 Zn330 1.905 1_655 S
O345 C346 1.182 . S
C346 O344 1.166 . S
C346 O345 1.182 . S
O347 Zn332 2.080 . S
O347 C350 1.305 . S
O348 Zn331 1.920 1_455 S
O348 C350 1.234 . S
C349 O335 1.305 . S
C349 O336 1.234 . S
C350 O347 1.305 . S
C350 O348 1.234 . S
Zn351 O357 1.920 . S
Zn351 O363 1.898 . S
Zn351 O366 1.905 . S
Zn352 O360 1.905 . S
Zn352 O361 1.898 . S
Zn352 O369 1.920 . S
Zn353 O356 2.080 . S
Zn353 O359 2.114 . S
Zn353 O362 2.120 . S
Zn353 O364 2.120 . S
Zn353 O365 2.114 . S
Zn353 O368 2.080 . S
C354 O359 1.166 . S
C354 O360 1.182 . S
C355 O361 1.167 . S
C355 O362 1.299 . S
O356 Zn353 2.080 . S
O356 C370 1.305 . S
O357 Zn351 1.920 . S
O357 C370 1.234 . S
C358 O363 1.167 . S
C358 O364 1.299 . S
O359 Zn353 2.114 . S
O359 C354 1.166 . S
O360 Zn352 1.905 . S
O360 C354 1.182 . S
O361 Zn352 1.898 . S
O361 C355 1.167 . S
O362 Zn353 2.120 . S
O362 C355 1.299 . S
O363 Zn351 1.898 . S
O363 C358 1.167 . S
O364 Zn353 2.120 . S
O364 C358 1.299 . S
O365 Zn353 2.114 . S
O365 C367 1.166 . S
O366 Zn351 1.905 . S
O366 C367 1.182 . S
C367 O365 1.166 . S
C367 O366 1.182 . S
O368 Zn353 2.080 . S
O368 C371 1.305 . S
O369 Zn352 1.920 . S
O369 C371 1.234 . S
C370 O356 1.305 . S
C370 O357 1.234 . S
C371 O368 1.305 . S
C371 O369 1.234 . S
C372 C373 1.349 . S
C372 C374 1.327 . S
C372 H397 0.950 . S
C373 C372 1.349 . S
C373 C389 1.349 . S
C374 C372 1.327 . S
C374 C393 1.429 . S
C374 H398 0.950 . S
C375 C392 1.574 1_565 S
C375 C394 1.368 . S
C375 H399 0.949 . S
H376 C380 0.949 . S
C377 C378 1.349 . S
C377 C379 1.327 . S
C377 H400 0.950 . S
C378 C377 1.349 . S
C378 C390 1.349 . S
C379 C377 1.327 . S
C379 C395 1.429 . S
C379 H401 0.950 . S
C380 H376 0.949 . S
C380 C388 1.574 . S
C380 C396 1.368 . S
H381 C389 0.950 . S
H382 C387 0.950 . S
H383 C388 0.949 . S
H384 C390 0.950 . S
H385 C391 0.950 . S
H386 C392 0.949 . S
C387 H382 0.950 . S
C387 C389 1.327 . S
C387 C393 1.429 . S
C388 C380 1.574 . S
C388 H383 0.949 . S
C388 C394 1.368 1_545 S
C389 C373 1.349 . S
C389 H381 0.950 . S
C389 C387 1.327 . S
C390 C378 1.349 . S
C390 H384 0.950 . S
C390 C391 1.327 . S
C391 H385 0.950 . S
C391 C390 1.327 . S
C391 C395 1.429 . S
C392 C375 1.574 1_545 S
C392 H386 0.949 . S
C392 C396 1.368 . S
C393 C374 1.429 . S
C393 C387 1.429 . S
C393 C394 1.523 . S
C394 C375 1.368 . S
C394 C388 1.368 1_565 S
C394 C393 1.523 . S
C395 C379 1.429 . S
C395 C391 1.429 . S
C395 C396 1.523 . S
C396 C380 1.368 . S
C396 C392 1.368 . S
C396 C395 1.523 . S
H397 C372 0.950 . S
H398 C374 0.950 . S
H399 C375 0.949 . S
H400 C377 0.950 . S
H401 C379 0.950 . S
C402 C403 1.349 . S
C402 C404 1.327 . S
C402 H427 0.950 . S
C403 C402 1.349 . S
C403 C419 1.349 . S
C404 C402 1.327 . S
C404 C423 1.429 . S
C404 H428 0.950 . S
C405 C422 1.574 . S
C405 C424 1.368 . S
C405 H429 0.949 . S
H406 C410 0.949 . S
C407 C408 1.349 . S
C407 C409 1.327 . S
C407 H430 0.950 . S
C408 C407 1.349 . S
C408 C420 1.349 . S
C409 C407 1.327 . S
C409 C425 1.429 . S
C409 H431 0.950 . S
C410 H406 0.949 . S
C410 C418 1.574 . S
C410 C426 1.368 . S
H411 C419 0.950 . S
H412 C417 0.950 . S
H413 C418 0.949 . S
H414 C420 0.950 . S
H415 C421 0.950 . S
H416 C422 0.949 . S
C417 H412 0.950 . S
C417 C419 1.327 . S
C417 C423 1.429 . S
C418 C410 1.574 . S
C418 H413 0.949 . S
C418 C424 1.368 . S
C419 C403 1.349 . S
C419 H411 0.950 . S
C419 C417 1.327 . S
C420 C408 1.349 . S
C420 H414 0.950 . S
C420 C421 1.327 . S
C421 H415 0.950 . S
C421 C420 1.327 . S
C421 C425 1.429 . S
C422 C405 1.574 . S
C422 H416 0.949 . S
C422 C426 1.368 . S
C423 C404 1.429 . S
C423 C417 1.429 . S
C423 C424 1.523 . S
C424 C405 1.368 . S
C424 C418 1.368 . S
C424 C423 1.523 . S
C425 C409 1.429 . S
C425 C421 1.429 . S
C425 C426 1.523 . S
C426 C410 1.368 . S
C426 C422 1.368 . S
C426 C425 1.523 . S
H427 C402 0.950 . S
H428 C404 0.950 . S
H429 C405 0.949 . S
H430 C407 0.950 . S
H431 C409 0.950 . S
C432 C433 1.349 . S
C432 C434 1.327 . S
C432 H457 0.950 . S
C433 C432 1.349 . S
C433 C449 1.349 . S
C434 C432 1.327 . S
C434 C453 1.429 . S
C434 H458 0.950 . S
C435 C452 1.574 . S
C435 C454 1.368 . S
C435 H459 0.949 . S
H436 C440 0.949 . S
C437 C438 1.349 . S
C437 C439 1.327 . S
C437 H460 0.950 . S
C438 C437 1.349 . S
C438 C450 1.349 . S
C439 C437 1.327 . S
C439 C455 1.429 . S
C439 H461 0.950 . S
C440 H436 0.949 . S
C440 C448 1.574 . S
C440 C456 1.368 . S
H441 C449 0.950 . S
H442 C447 0.950 . S
H443 C448 0.949 . S
H444 C450 0.950 . S
H445 C451 0.950 . S
H446 C452 0.949 . S
C447 H442 0.950 . S
C447 C449 1.327 . S
C447 C453 1.429 . S
C448 C440 1.574 . S
C448 H443 0.949 . S
C448 C454 1.368 . S
C449 C433 1.349 . S
C449 H441 0.950 . S
C449 C447 1.327 . S
C450 C438 1.349 . S
C450 H444 0.950 . S
C450 C451 1.327 . S
C451 H445 0.950 . S
C451 C450 1.327 . S
C451 C455 1.429 . S
C452 C435 1.574 . S
C452 H446 0.949 . S
C452 C456 1.368 . S
C453 C434 1.429 . S
C453 C447 1.429 . S
C453 C454 1.523 . S
C454 C435 1.368 . S
C454 C448 1.368 . S
C454 C453 1.523 . S
C455 C439 1.429 . S
C455 C451 1.429 . S
C455 C456 1.523 . S
C456 C440 1.368 . S
C456 C452 1.368 . S
C456 C455 1.523 . S
H457 C432 0.950 . S
H458 C434 0.950 . S
H459 C435 0.949 . S
H460 C437 0.950 . S
H461 C439 0.950 . S
C462 C463 1.349 . S
C462 C464 1.327 . S
C462 H487 0.950 . S
C463 C462 1.349 . S
C463 C479 1.349 . S
C464 C462 1.327 . S
C464 C483 1.429 . S
C464 H488 0.950 . S
C465 C482 1.574 1_565 S
C465 C484 1.368 . S
C465 H489 0.949 . S
H466 C470 0.949 . S
C467 C468 1.349 . S
C467 C469 1.327 . S
C467 H490 0.950 . S
C468 C467 1.349 . S
C468 C480 1.349 . S
C469 C467 1.327 . S
C469 C485 1.429 . S
C469 H491 0.950 . S
C470 H466 0.949 . S
C470 C478 1.574 . S
C470 C486 1.368 . S
H471 C479 0.950 . S
H472 C477 0.950 . S
H473 C478 0.949 . S
H474 C480 0.950 . S
H475 C481 0.950 . S
H476 C482 0.949 . S
C477 H472 0.950 . S
C477 C479 1.327 . S
C477 C483 1.429 . S
C478 C470 1.574 . S
C478 H473 0.949 . S
C478 C484 1.368 1_545 S
C479 C463 1.349 . S
C479 H471 0.950 . S
C479 C477 1.327 . S
C480 C468 1.349 . S
C480 H474 0.950 . S
C480 C481 1.327 . S
C481 H475 0.950 . S
C481 C480 1.327 . S
C481 C485 1.429 . S
C482 C465 1.574 1_545 S
C482 H476 0.949 . S
C482 C486 1.368 . S
C483 C464 1.429 . S
C483 C477 1.429 . S
C483 C484 1.523 . S
C484 C465 1.368 . S
C484 C478 1.368 1_565 S
C484 C483 1.523 . S
C485 C469 1.429 . S
C485 C481 1.429 . S
C485 C486 1.523 . S
C486 C470 1.368 . S
C486 C482 1.368 . S
C486 C485 1.523 . S
H487 C462 0.950 . S
H488 C464 0.950 . S
H489 C465 0.949 . S
H490 C467 0.950 . S
H491 C469 0.950 . S
C492 C493 1.349 . S
C492 C494 1.327 . S
C492 H517 0.950 . S
C493 C492 1.349 . S
C493 C509 1.349 . S
C494 C492 1.327 . S
C494 C513 1.429 . S
C494 H518 0.950 . S
C495 C512 1.574 1_545 S
C495 C514 1.368 . S
C495 H519 0.949 . S
H496 C500 0.949 . S
C497 C498 1.349 . S
C497 C499 1.327 . S
C497 H520 0.950 . S
C498 C497 1.349 . S
C498 C510 1.349 . S
C499 C497 1.327 . S
C499 C515 1.429 . S
C499 H521 0.950 . S
C500 H496 0.949 . S
C500 C508 1.574 . S
C500 C516 1.368 . S
H501 C509 0.950 . S
H502 C507 0.950 . S
H503 C508 0.949 . S
H504 C510 0.950 . S
H505 C511 0.950 . S
H506 C512 0.949 . S
C507 H502 0.950 . S
C507 C509 1.327 . S
C507 C513 1.429 . S
C508 C500 1.574 . S
C508 H503 0.949 . S
C508 C514 1.368 1_565 S
C509 C493 1.349 . S
C509 H501 0.950 . S
C509 C507 1.327 . S
C510 C498 1.349 . S
C510 H504 0.950 . S
C510 C511 1.327 . S
C511 H505 0.950 . S
C511 C510 1.327 . S
C511 C515 1.429 . S
C512 C495 1.574 1_565 S
C512 H506 0.949 . S
C512 C516 1.368 . S
C513 C494 1.429 . S
C513 C507 1.429 . S
C513 C514 1.523 . S
C514 C495 1.368 . S
C514 C508 1.368 1_545 S
C514 C513 1.523 . S
C515 C499 1.429 . S
C515 C511 1.429 . S
C515 C516 1.523 . S
C516 C500 1.368 . S
C516 C512 1.368 . S
C516 C515 1.523 . S
H517 C492 0.950 . S
H518 C494 0.950 . S
H519 C495 0.949 . S
H520 C497 0.950 . S
H521 C499 0.950 . S
C522 C523 1.349 . S
C522 C524 1.327 . S
C522 H547 0.950 . S
C523 C522 1.349 . S
C523 C539 1.349 . S
C524 C522 1.327 . S
C524 C543 1.429 . S
C524 H548 0.950 . S
C525 C542 1.574 . S
C525 C544 1.368 . S
C525 H549 0.949 . S
H526 C530 0.949 . S
C527 C528 1.349 . S
C527 C529 1.327 . S
C527 H550 0.950 . S
C528 C527 1.349 . S
C528 C540 1.349 . S
C529 C527 1.327 . S
C529 C545 1.429 . S
C529 H551 0.950 . S
C530 H526 0.949 . S
C530 C538 1.574 . S
C530 C546 1.368 . S
H531 C539 0.950 . S
H532 C537 0.950 . S
H533 C538 0.949 . S
H534 C540 0.950 . S
H535 C541 0.950 . S
H536 C542 0.949 . S
C537 H532 0.950 . S
C537 C539 1.327 . S
C537 C543 1.429 . S
C538 C530 1.574 . S
C538 H533 0.949 . S
C538 C544 1.368 . S
C539 C523 1.349 . S
C539 H531 0.950 . S
C539 C537 1.327 . S
C540 C528 1.349 . S
C540 H534 0.950 . S
C540 C541 1.327 . S
C541 H535 0.950 . S
C541 C540 1.327 . S
C541 C545 1.429 . S
C542 C525 1.574 . S
C542 H536 0.949 . S
C542 C546 1.368 . S
C543 C524 1.429 . S
C543 C537 1.429 . S
C543 C544 1.523 . S
C544 C525 1.368 . S
C544 C538 1.368 . S
C544 C543 1.523 . S
C545 C529 1.429 . S
C545 C541 1.429 . S
C545 C546 1.523 . S
C546 C530 1.368 . S
C546 C542 1.368 . S
C546 C545 1.523 . S
H547 C522 0.950 . S
H548 C524 0.950 . S
H549 C525 0.949 . S
H550 C527 0.950 . S
H551 C529 0.950 . S
C552 C553 1.349 . S
C552 C554 1.327 . S
C552 H577 0.950 . S
C553 C552 1.349 . S
C553 C569 1.349 . S
C554 C552 1.327 . S
C554 C573 1.429 . S
C554 H578 0.950 . S
C555 C572 1.574 . S
C555 C574 1.368 . S
C555 H579 0.949 . S
H556 C560 0.949 . S
C557 C558 1.349 . S
C557 C559 1.327 . S
C557 H580 0.950 . S
C558 C557 1.349 . S
C558 C570 1.349 . S
C559 C557 1.327 . S
C559 C575 1.429 . S
C559 H581 0.950 . S
C560 H556 0.949 . S
C560 C568 1.574 . S
C560 C576 1.368 . S
H561 C569 0.950 . S
H562 C567 0.950 . S
H563 C568 0.949 . S
H564 C570 0.950 . S
H565 C571 0.950 . S
H566 C572 0.949 . S
C567 H562 0.950 . S
C567 C569 1.327 . S
C567 C573 1.429 . S
C568 C560 1.574 . S
C568 H563 0.949 . S
C568 C574 1.368 . S
C569 C553 1.349 . S
C569 H561 0.950 . S
C569 C567 1.327 . S
C570 C558 1.349 . S
C570 H564 0.950 . S
C570 C571 1.327 . S
C571 H565 0.950 . S
C571 C570 1.327 . S
C571 C575 1.429 . S
C572 C555 1.574 . S
C572 H566 0.949 . S
C572 C576 1.368 . S
C573 C554 1.429 . S
C573 C567 1.429 . S
C573 C574 1.523 . S
C574 C555 1.368 . S
C574 C568 1.368 . S
C574 C573 1.523 . S
C575 C559 1.429 . S
C575 C571 1.429 . S
C575 C576 1.523 . S
C576 C560 1.368 . S
C576 C572 1.368 . S
C576 C575 1.523 . S
H577 C552 0.950 . S
H578 C554 0.950 . S
H579 C555 0.949 . S
H580 C557 0.950 . S
H581 C559 0.950 . S
C582 C583 1.349 . S
C582 C584 1.327 . S
C582 H607 0.950 . S
C583 C582 1.349 . S
C583 C599 1.349 . S
C584 C582 1.327 . S
C584 C603 1.429 . S
C584 H608 0.950 . S
C585 C602 1.574 1_545 S
C585 C604 1.368 . S
C585 H609 0.949 . S
H586 C590 0.949 . S
C587 C588 1.349 . S
C587 C589 1.327 . S
C587 H610 0.950 . S
C588 C587 1.349 . S
C588 C600 1.349 . S
C589 C587 1.327 . S
C589 C605 1.429 . S
C589 H611 0.950 . S
C590 H586 0.949 . S
C590 C598 1.574 . S
C590 C606 1.368 . S
H591 C599 0.950 . S
H592 C597 0.950 . S
H593 C598 0.949 1_545 S
H594 C600 0.950 . S
H595 C601 0.950 . S
H596 C602 0.949 . S
C597 H592 0.950 . S
C597 C599 1.327 . S
C597 C603 1.429 . S
C598 C590 1.574 . S
C598 H593 0.949 1_565 S
C598 C604 1.368 1_565 S
C599 C583 1.349 . S
C599 H591 0.950 . S
C599 C597 1.327 . S
C600 C588 1.349 . S
C600 H594 0.950 . S
C600 C601 1.327 . S
C601 H595 0.950 . S
C601 C600 1.327 . S
C601 C605 1.429 . S
C602 C585 1.574 1_565 S
C602 H596 0.949 . S
C602 C606 1.368 . S
C603 C584 1.429 . S
C603 C597 1.429 . S
C603 C604 1.523 . S
C604 C585 1.368 . S
C604 C598 1.368 1_545 S
C604 C603 1.523 . S
C605 C589 1.429 . S
C605 C601 1.429 . S
C605 C606 1.523 . S
C606 C590 1.368 . S
C606 C602 1.368 . S
C606 C605 1.523 . S
H607 C582 0.950 . S
H608 C584 0.950 . S
H609 C585 0.949 . S
H610 C587 0.950 . S
H611 C589 0.950 . S
C612 C613 1.349 . S
C612 C614 1.327 . S
C612 H637 0.953 . S
C613 C612 1.349 . S
C613 C629 1.349 . S
C614 C612 1.327 . S
C614 C633 1.429 . S
C614 H638 0.950 . S
C615 C632 1.574 . S
C615 C634 1.368 . S
C615 H639 0.949 . S
H616 C620 0.949 . S
C617 C618 1.349 . S
C617 C619 1.327 . S
C617 H640 0.950 . S
C618 C617 1.349 . S
C618 C630 1.349 . S
C619 C617 1.327 . S
C619 C635 1.429 . S
C619 H641 0.950 . S
C620 H616 0.949 . S
C620 C628 1.574 . S
C620 C636 1.368 . S
H621 C629 0.950 . S
H622 C627 0.950 . S
H623 C628 0.949 . S
H624 C630 0.950 . S
H625 C631 0.950 . S
H626 C632 0.949 . S
C627 H622 0.950 . S
C627 C629 1.327 . S
C627 C633 1.429 . S
C628 C620 1.574 . S
C628 H623 0.949 . S
C628 C634 1.368 . S
C629 C613 1.349 . S
C629 H621 0.950 . S
C629 C627 1.327 . S
C630 C618 1.349 . S
C630 H624 0.950 . S
C630 C631 1.327 . S
C631 H625 0.950 . S
C631 C630 1.327 . S
C631 C635 1.429 . S
C632 C615 1.574 . S
C632 H626 0.949 . S
C632 C636 1.368 . S
C633 C614 1.429 . S
C633 C627 1.429 . S
C633 C634 1.523 . S
C634 C615 1.368 . S
C634 C628 1.368 . S
C634 C633 1.523 . S
C635 C619 1.429 . S
C635 C631 1.429 . S
C635 C636 1.523 . S
C636 C620 1.368 . S
C636 C632 1.368 . S
C636 C635 1.523 . S
H637 C612 0.953 . S
H638 C614 0.950 . S
H639 C615 0.949 . S
H640 C617 0.950 . S
H641 C619 0.950 . S
C642 C643 1.349 . S
C642 C644 1.327 . S
C642 H667 0.950 . S
C643 C642 1.349 . S
C643 C659 1.349 . S
C644 C642 1.327 . S
C644 C663 1.429 . S
C644 H668 0.950 . S
C645 C662 1.574 . S
C645 C664 1.368 . S
C645 H669 0.949 . S
H646 C650 0.949 . S
C647 C648 1.349 . S
C647 C649 1.327 . S
C647 H670 0.950 . S
C648 C647 1.349 . S
C648 C660 1.349 . S
C649 C647 1.327 . S
C649 C665 1.429 . S
C649 H671 0.950 . S
C650 H646 0.949 . S
C650 C658 1.574 . S
C650 C666 1.368 . S
H651 C659 0.950 . S
H652 C657 0.950 . S
H653 C658 0.949 . S
H654 C660 0.950 . S
H655 C661 0.950 . S
H656 C662 0.949 . S
C657 H652 0.950 . S
C657 C659 1.327 . S
C657 C663 1.429 . S
C658 C650 1.574 . S
C658 H653 0.949 . S
C658 C664 1.368 . S
C659 C643 1.349 . S
C659 H651 0.950 . S
C659 C657 1.327 . S
C660 C648 1.349 . S
C660 H654 0.950 . S
C660 C661 1.327 . S
C661 H655 0.950 . S
C661 C660 1.327 . S
C661 C665 1.429 . S
C662 C645 1.574 . S
C662 H656 0.949 . S
C662 C666 1.368 . S
C663 C644 1.429 . S
C663 C657 1.429 . S
C663 C664 1.523 . S
C664 C645 1.368 . S
C664 C658 1.368 . S
C664 C663 1.523 . S
C665 C649 1.429 . S
C665 C661 1.429 . S
C665 C666 1.523 . S
C666 C650 1.368 . S
C666 C662 1.368 . S
C666 C665 1.523 . S
H667 C642 0.950 . S
H668 C644 0.950 . S
H669 C645 0.949 . S
H670 C647 0.950 . S
H671 C649 0.950 . S
C672 C673 1.349 . S
C672 C674 1.327 . S
C672 H697 0.931 1_556 S
C673 C672 1.349 . S
C673 C689 1.349 . S
C674 C672 1.327 . S
C674 C693 1.429 . S
C674 H698 0.950 . S
C675 C692 1.574 . S
C675 C694 1.368 . S
C675 H699 0.949 . S
H676 C680 0.949 . S
C677 C678 1.349 . S
C677 C679 1.327 . S
C677 H700 0.950 . S
C678 C677 1.349 . S
C678 C690 1.349 . S
C679 C677 1.327 . S
C679 C695 1.429 . S
C679 H701 0.950 . S
C680 H676 0.949 . S
C680 C688 1.574 . S
C680 C696 1.368 . S
H681 C689 0.950 . S
H682 C687 0.950 . S
H683 C688 0.949 . S
H684 C690 0.950 . S
H685 C691 0.950 . S
H686 C692 0.949 . S
C687 H682 0.950 . S
C687 C689 1.327 . S
C687 C693 1.429 . S
C688 C680 1.574 . S
C688 H683 0.949 . S
C688 C694 1.368 . S
C689 C673 1.349 . S
C689 H681 0.950 . S
C689 C687 1.327 . S
C690 C678 1.349 . S
C690 H684 0.950 . S
C690 C691 1.327 . S
C691 H685 0.950 . S
C691 C690 1.327 . S
C691 C695 1.429 . S
C692 C675 1.574 . S
C692 H686 0.949 . S
C692 C696 1.368 . S
C693 C674 1.429 . S
C693 C687 1.429 . S
C693 C694 1.523 . S
C694 C675 1.368 . S
C694 C688 1.368 . S
C694 C693 1.523 . S
C695 C679 1.429 . S
C695 C691 1.429 . S
C695 C696 1.523 . S
C696 C680 1.368 . S
C696 C692 1.368 . S
C696 C695 1.523 . S
H697 C672 0.931 1_554 S
H698 C674 0.950 . S
H699 C675 0.949 . S
H700 C677 0.950 . S
H701 C679 0.950 . S
C702 C703 1.349 . S
C702 C704 1.327 . S
C702 H727 0.950 . S
C703 C702 1.349 . S
C703 C719 1.349 . S
C704 C702 1.327 . S
C704 C723 1.429 . S
C704 H728 0.950 . S
C705 C722 1.574 . S
C705 C724 1.368 . S
C705 H729 0.949 . S
H706 C710 0.949 . S
C707 C708 1.349 . S
C707 C709 1.327 . S
C707 H730 0.950 . S
C708 C707 1.349 . S
C708 C720 1.349 . S
C709 C707 1.327 . S
C709 C725 1.429 . S
C709 H731 0.950 . S
C710 H706 0.949 . S
C710 C718 1.574 . S
C710 C726 1.368 . S
H711 C719 0.950 . S
H712 C717 0.950 . S
H713 C718 0.949 . S
H714 C720 0.950 . S
H715 C721 0.950 . S
H716 C722 0.949 . S
C717 H712 0.950 . S
C717 C719 1.327 . S
C717 C723 1.429 . S
C718 C710 1.574 . S
C718 H713 0.949 . S
C718 C724 1.368 . S
C719 C703 1.349 . S
C719 H711 0.950 . S
C719 C717 1.327 . S
C720 C708 1.349 . S
C720 H714 0.950 . S
C720 C721 1.327 . S
C721 H715 0.950 . S
C721 C720 1.327 . S
C721 C725 1.429 . S
C722 C705 1.574 . S
C722 H716 0.949 . S
C722 C726 1.368 . S
C723 C704 1.429 . S
C723 C717 1.429 . S
C723 C724 1.523 . S
C724 C705 1.368 . S
C724 C718 1.368 . S
C724 C723 1.523 . S
C725 C709 1.429 . S
C725 C721 1.429 . S
C725 C726 1.523 . S
C726 C710 1.368 . S
C726 C722 1.368 . S
C726 C725 1.523 . S
H727 C702 0.950 . S
H728 C704 0.950 . S
H729 C705 0.949 . S
H730 C707 0.950 . S
H731 C709 0.950 . S
C732 C733 1.349 . S
C732 C734 1.327 . S
C732 H757 0.950 . S
C733 C732 1.349 . S
C733 C749 1.349 . S
C734 C732 1.327 . S
C734 C753 1.429 . S
C734 H758 0.950 . S
C735 C752 1.574 . S
C735 C754 1.368 . S
C735 H759 0.949 . S
H736 C740 0.949 . S
C737 C738 1.349 . S
C737 C739 1.327 . S
C737 H760 0.950 . S
C738 C737 1.349 . S
C738 C750 1.349 . S
C739 C737 1.327 . S
C739 C755 1.429 . S
C739 H761 0.950 . S
C740 H736 0.949 . S
C740 C748 1.574 . S
C740 C756 1.368 . S
H741 C749 0.950 1_554 S
H742 C747 0.950 . S
H743 C748 0.949 . S
H744 C750 0.950 . S
H745 C751 0.950 . S
H746 C752 0.949 . S
C747 H742 0.950 . S
C747 C749 1.327 . S
C747 C753 1.429 . S
C748 C740 1.574 . S
C748 H743 0.949 . S
C748 C754 1.368 . S
C749 C733 1.349 . S
C749 H741 0.950 1_556 S
C749 C747 1.327 . S
C750 C738 1.349 . S
C750 H744 0.950 . S
C750 C751 1.327 . S
C751 H745 0.950 . S
C751 C750 1.327 . S
C751 C755 1.429 . S
C752 C735 1.574 . S
C752 H746 0.949 . S
C752 C756 1.368 . S
C753 C734 1.429 . S
C753 C747 1.429 . S
C753 C754 1.523 . S
C754 C735 1.368 . S
C754 C748 1.368 . S
C754 C753 1.523 . S
C755 C739 1.429 . S
C755 C751 1.429 . S
C755 C756 1.523 . S
C756 C740 1.368 . S
C756 C752 1.368 . S
C756 C755 1.523 . S
H757 C732 0.950 . S
H758 C734 0.950 . S
H759 C735 0.949 . S
H760 C737 0.950 . S
H761 C739 0.950 . S
C762 C763 1.349 . S
C762 C764 1.327 . S
C762 H787 0.950 . S
C763 C762 1.349 . S
C763 C779 1.349 . S
C764 C762 1.327 . S
C764 C783 1.429 . S
C764 H788 0.950 . S
C765 C782 1.574 . S
C765 C784 1.368 . S
C765 H789 0.949 . S
H766 C770 0.949 . S
C767 C768 1.349 . S
C767 C769 1.327 . S
C767 H790 0.950 . S
C768 C767 1.349 . S
C768 C780 1.349 . S
C769 C767 1.327 . S
C769 C785 1.429 . S
C769 H791 0.950 . S
C770 H766 0.949 . S
C770 C778 1.574 . S
C770 C786 1.368 . S
H771 C779 0.950 . S
H772 C777 0.950 . S
H773 C778 0.949 . S
H774 C780 0.950 . S
H775 C781 0.950 . S
H776 C782 0.949 . S
C777 H772 0.950 . S
C777 C779 1.327 . S
C777 C783 1.429 . S
C778 C770 1.574 . S
C778 H773 0.949 . S
C778 C784 1.368 . S
C779 C763 1.349 . S
C779 H771 0.950 . S
C779 C777 1.327 . S
C780 C768 1.349 . S
C780 H774 0.950 . S
C780 C781 1.327 . S
C781 H775 0.950 . S
C781 C780 1.327 . S
C781 C785 1.429 . S
C782 C765 1.574 . S
C782 H776 0.949 . S
C782 C786 1.368 . S
C783 C764 1.429 . S
C783 C777 1.429 . S
C783 C784 1.523 . S
C784 C765 1.368 . S
C784 C778 1.368 . S
C784 C783 1.523 . S
C785 C769 1.429 . S
C785 C781 1.429 . S
C785 C786 1.523 . S
C786 C770 1.368 . S
C786 C782 1.368 . S
C786 C785 1.523 . S
H787 C762 0.950 . S
H788 C764 0.950 . S
H789 C765 0.949 . S
H790 C767 0.950 . S
H791 C769 0.950 . S
C792 C793 1.349 . S
C792 C794 1.327 . S
C792 H817 0.950 . S
C793 C792 1.349 . S
C793 C809 1.349 . S
C794 C792 1.327 . S
C794 C813 1.429 . S
C794 H818 0.950 . S
C795 C812 1.574 . S
C795 C814 1.368 . S
C795 H819 0.949 . S
H796 C800 0.949 . S
C797 C798 1.349 . S
C797 C799 1.327 . S
C797 H820 0.950 . S
C798 C797 1.349 . S
C798 C810 1.349 . S
C799 C797 1.327 . S
C799 C815 1.429 . S
C799 H821 0.950 . S
C800 H796 0.949 . S
C800 C808 1.574 . S
C800 C816 1.368 . S
H801 C809 0.950 1_556 S
H802 C807 0.950 . S
H803 C808 0.949 . S
H804 C810 0.950 . S
H805 C811 0.950 . S
H806 C812 0.949 . S
C807 H802 0.950 . S
C807 C809 1.327 . S
C807 C813 1.429 . S
C808 C800 1.574 . S
C808 H803 0.949 . S
C808 C814 1.368 . S
C809 C793 1.349 . S
C809 H801 0.950 1_554 S
C809 C807 1.327 . S
C810 C798 1.349 . S
C810 H804 0.950 . S
C810 C811 1.327 . S
C811 H805 0.950 . S
C811 C810 1.327 . S
C811 C815 1.429 . S
C812 C795 1.574 . S
C812 H806 0.949 . S
C812 C816 1.368 . S
C813 C794 1.429 . S
C813 C807 1.429 . S
C813 C814 1.523 . S
C814 C795 1.368 . S
C814 C808 1.368 . S
C814 C813 1.523 . S
C815 C799 1.429 . S
C815 C811 1.429 . S
C815 C816 1.523 . S
C816 C800 1.368 . S
C816 C812 1.368 . S
C816 C815 1.523 . S
H817 C792 0.950 . S
H818 C794 0.950 . S
H819 C795 0.949 . S
H820 C797 0.950 . S
H821 C799 0.950 . S
C822 C823 1.349 . S
C822 C824 1.327 . S
C822 H847 0.950 . S
C823 C822 1.349 . S
C823 C839 1.349 . S
C824 C822 1.327 . S
C824 C843 1.429 . S
C824 H848 0.950 . S
C825 C842 1.574 . S
C825 C844 1.368 . S
C825 H849 0.949 . S
H826 C830 0.949 . S
C827 C828 1.349 . S
C827 C829 1.327 . S
C827 H850 0.950 . S
C828 C827 1.349 . S
C828 C840 1.349 . S
C829 C827 1.327 . S
C829 C845 1.429 . S
C829 H851 0.950 . S
C830 H826 0.949 . S
C830 C838 1.574 . S
C830 C846 1.368 . S
H831 C839 0.950 . S
H832 C837 0.950 . S
H833 C838 0.949 . S
H834 C840 0.950 . S
H835 C841 0.950 . S
H836 C842 0.949 . S
C837 H832 0.950 . S
C837 C839 1.327 . S
C837 C843 1.429 . S
C838 C830 1.574 . S
C838 H833 0.949 . S
C838 C844 1.368 . S
C839 C823 1.349 . S
C839 H831 0.950 . S
C839 C837 1.327 . S
C840 C828 1.349 . S
C840 H834 0.950 . S
C840 C841 1.327 . S
C841 H835 0.950 . S
C841 C840 1.327 . S
C841 C845 1.429 . S
C842 C825 1.574 . S
C842 H836 0.949 . S
C842 C846 1.368 . S
C843 C824 1.429 . S
C843 C837 1.429 . S
C843 C844 1.523 . S
C844 C825 1.368 . S
C844 C838 1.368 . S
C844 C843 1.523 . S
C845 C829 1.429 . S
C845 C841 1.429 . S
C845 C846 1.523 . S
C846 C830 1.368 . S
C846 C842 1.368 . S
C846 C845 1.523 . S
H847 C822 0.950 . S
H848 C824 0.950 . S
H849 C825 0.949 . S
H850 C827 0.950 . S
H851 C829 0.950 . S
C852 C853 1.349 . S
C852 C854 1.327 . S
C852 H877 0.950 . S
C853 C852 1.349 . S
C853 C869 1.349 . S
C854 C852 1.327 . S
C854 C873 1.429 . S
C854 H878 0.950 . S
C855 C872 1.574 . S
C855 C874 1.368 . S
C855 H879 0.949 . S
H856 C860 0.949 . S
C857 C858 1.349 . S
C857 C859 1.327 . S
C857 H880 0.950 . S
C858 C857 1.349 . S
C858 C870 1.349 . S
C859 C857 1.327 . S
C859 C875 1.429 . S
C859 H881 0.950 . S
C860 H856 0.949 . S
C860 C868 1.574 . S
C860 C876 1.368 . S
H861 C869 0.950 . S
H862 C867 0.950 . S
H863 C868 0.949 . S
H864 C870 0.950 . S
H865 C871 0.950 . S
H866 C872 0.949 . S
C867 H862 0.950 . S
C867 C869 1.327 . S
C867 C873 1.429 . S
C868 C860 1.574 . S
C868 H863 0.949 . S
C868 C874 1.368 . S
C869 C853 1.349 . S
C869 H861 0.950 . S
C869 C867 1.327 . S
C870 C858 1.349 . S
C870 H864 0.950 . S
C870 C871 1.327 . S
C871 H865 0.950 . S
C871 C870 1.327 . S
C871 C875 1.429 . S
C872 C855 1.574 . S
C872 H866 0.949 . S
C872 C876 1.368 . S
C873 C854 1.429 . S
C873 C867 1.429 . S
C873 C874 1.523 . S
C874 C855 1.368 . S
C874 C868 1.368 . S
C874 C873 1.523 . S
C875 C859 1.429 . S
C875 C871 1.429 . S
C875 C876 1.523 . S
C876 C860 1.368 . S
C876 C872 1.368 . S
C876 C875 1.523 . S
H877 C852 0.950 . S
H878 C854 0.950 . S
H879 C855 0.949 . S
H880 C857 0.950 . S
H881 C859 0.950 . S
C882 C883 1.349 . S
C882 C884 1.327 . S
C882 H907 0.950 . S
C883 C882 1.349 . S
C883 C899 1.349 . S
C884 C882 1.327 . S
C884 C903 1.429 . S
C884 H908 0.950 . S
C885 C902 1.574 . S
C885 C904 1.368 . S
C885 H909 0.949 . S
H886 C890 0.949 . S
C887 C888 1.349 . S
C887 C889 1.327 . S
C887 H910 0.950 . S
C888 C887 1.349 . S
C888 C900 1.349 . S
C889 C887 1.327 . S
C889 C905 1.429 . S
C889 H911 0.950 . S
C890 H886 0.949 . S
C890 C898 1.574 . S
C890 C906 1.368 . S
H891 C899 0.950 . S
H892 C897 0.950 . S
H893 C898 0.949 . S
H894 C900 0.950 . S
H895 C901 0.950 . S
H896 C902 0.949 . S
C897 H892 0.950 . S
C897 C899 1.327 . S
C897 C903 1.429 . S
C898 C890 1.574 . S
C898 H893 0.949 . S
C898 C904 1.368 . S
C899 C883 1.349 . S
C899 H891 0.950 . S
C899 C897 1.327 . S
C900 C888 1.349 . S
C900 H894 0.950 . S
C900 C901 1.327 . S
C901 H895 0.950 . S
C901 C900 1.327 . S
C901 C905 1.429 . S
C902 C885 1.574 . S
C902 H896 0.949 . S
C902 C906 1.368 . S
C903 C884 1.429 . S
C903 C897 1.429 . S
C903 C904 1.523 . S
C904 C885 1.368 . S
C904 C898 1.368 . S
C904 C903 1.523 . S
C905 C889 1.429 . S
C905 C901 1.429 . S
C905 C906 1.523 . S
C906 C890 1.368 . S
C906 C902 1.368 . S
C906 C905 1.523 . S
H907 C882 0.950 . S
H908 C884 0.950 . S
H909 C885 0.949 . S
H910 C887 0.950 . S
H911 C889 0.950 . S
C912 C913 1.349 . S
C912 C914 1.327 . S
C912 H937 0.950 . S
C913 C912 1.349 . S
C913 C929 1.349 . S
C914 C912 1.327 . S
C914 C933 1.429 . S
C914 H938 0.950 . S
C915 C932 1.574 . S
C915 C934 1.368 . S
C915 H939 0.949 . S
H916 C920 0.949 . S
C917 C918 1.349 . S
C917 C919 1.327 . S
C917 H940 0.950 . S
C918 C917 1.349 . S
C918 C930 1.349 . S
C919 C917 1.327 . S
C919 C935 1.429 . S
C919 H941 0.950 . S
C920 H916 0.949 . S
C920 C928 1.574 . S
C920 C936 1.368 . S
H921 C929 0.950 . S
H922 C927 0.950 . S
H923 C928 0.949 . S
H924 C930 0.950 . S
H925 C931 0.950 . S
H926 C932 0.949 . S
C927 H922 0.950 . S
C927 C929 1.327 . S
C927 C933 1.429 . S
C928 C920 1.574 . S
C928 H923 0.949 . S
C928 C934 1.368 . S
C929 C913 1.349 . S
C929 H921 0.950 . S
C929 C927 1.327 . S
C930 C918 1.349 . S
C930 H924 0.950 . S
C930 C931 1.327 . S
C931 H925 0.950 . S
C931 C930 1.327 . S
C931 C935 1.429 . S
C932 C915 1.574 . S
C932 H926 0.949 . S
C932 C936 1.368 . S
C933 C914 1.429 . S
C933 C927 1.429 . S
C933 C934 1.523 . S
C934 C915 1.368 . S
C934 C928 1.368 . S
C934 C933 1.523 . S
C935 C919 1.429 . S
C935 C931 1.429 . S
C935 C936 1.523 . S
C936 C920 1.368 . S
C936 C932 1.368 . S
C936 C935 1.523 . S
H937 C912 0.950 . S
H938 C914 0.950 . S
H939 C915 0.949 . S
H940 C917 0.950 . S
H941 C919 0.950 . S
C942 C943 1.349 . S
C942 C944 1.327 . S
C942 H967 0.950 . S
C943 C942 1.349 . S
C943 C959 1.349 . S
C944 C942 1.327 . S
C944 C963 1.429 . S
C944 H968 0.950 . S
C945 C962 1.574 . S
C945 C964 1.368 . S
C945 H969 0.949 . S
H946 C950 0.949 . S
C947 C948 1.349 . S
C947 C949 1.327 . S
C947 H970 0.950 . S
C948 C947 1.349 . S
C948 C960 1.349 . S
C949 C947 1.327 . S
C949 C965 1.429 . S
C949 H971 0.950 . S
C950 H946 0.949 . S
C950 C958 1.574 . S
C950 C966 1.368 . S
H951 C959 0.950 . S
H952 C957 0.950 . S
H953 C958 0.949 . S
H954 C960 0.950 . S
H955 C961 0.950 . S
H956 C962 0.949 . S
C957 H952 0.950 . S
C957 C959 1.327 . S
C957 C963 1.429 . S
C958 C950 1.574 . S
C958 H953 0.949 . S
C958 C964 1.368 . S
C959 C943 1.349 . S
C959 H951 0.950 . S
C959 C957 1.327 . S
C960 C948 1.349 . S
C960 H954 0.950 . S
C960 C961 1.327 . S
C961 H955 0.950 . S
C961 C960 1.327 . S
C961 C965 1.429 . S
C962 C945 1.574 . S
C962 H956 0.949 . S
C962 C966 1.368 . S
C963 C944 1.429 . S
C963 C957 1.429 . S
C963 C964 1.523 . S
C964 C945 1.368 . S
C964 C958 1.368 . S
C964 C963 1.523 . S
C965 C949 1.429 . S
C965 C961 1.429 . S
C965 C966 1.523 . S
C966 C950 1.368 . S
C966 C962 1.368 . S
C966 C965 1.523 . S
H967 C942 0.950 . S
H968 C944 0.950 . S
H969 C945 0.949 . S
H970 C947 0.950 . S
H971 C949 0.950 . S
C972 C973 1.349 . S
C972 C974 1.327 . S
C972 H997 0.950 . S
C973 C972 1.349 . S
C973 C989 1.349 . S
C974 C972 1.327 . S
C974 C993 1.429 . S
C974 H998 0.950 . S
C975 C992 1.574 . S
C975 C994 1.368 . S
C975 H999 0.949 . S
H976 C980 0.949 . S
C977 C978 1.349 . S
C977 C979 1.327 . S
C977 H1000 0.950 . S
C978 C977 1.349 . S
C978 C990 1.349 . S
C979 C977 1.327 . S
C979 C995 1.429 . S
C979 H1001 0.950 . S
C980 H976 0.949 . S
C980 C988 1.574 . S
C980 C996 1.368 . S
H981 C989 0.950 . S
H982 C987 0.950 . S
H983 C988 0.949 . S
H984 C990 0.950 . S
H985 C991 0.950 . S
H986 C992 0.949 . S
C987 H982 0.950 . S
C987 C989 1.327 . S
C987 C993 1.429 . S
C988 C980 1.574 . S
C988 H983 0.949 . S
C988 C994 1.368 . S
C989 C973 1.349 . S
C989 H981 0.950 . S
C989 C987 1.327 . S
C990 C978 1.349 . S
C990 H984 0.950 . S
C990 C991 1.327 . S
C991 H985 0.950 . S
C991 C990 1.327 . S
C991 C995 1.429 . S
C992 C975 1.574 . S
C992 H986 0.949 . S
C992 C996 1.368 . S
C993 C974 1.429 . S
C993 C987 1.429 . S
C993 C994 1.523 . S
C994 C975 1.368 . S
C994 C988 1.368 . S
C994 C993 1.523 . S
C995 C979 1.429 . S
C995 C991 1.429 . S
C995 C996 1.523 . S
C996 C980 1.368 . S
C996 C992 1.368 . S
C996 C995 1.523 . S
H997 C972 0.950 . S
H998 C974 0.950 . S
H999 C975 0.949 . S
H1000 C977 0.950 . S
H1001 C979 0.950 . S
C1002 C1003 1.349 . S
C1002 C1004 1.327 . S
C1002 H1027 0.950 . S
C1003 C1002 1.349 . S
C1003 C1019 1.349 . S
C1004 C1002 1.327 . S
C1004 C1023 1.429 . S
C1004 H1028 0.950 . S
C1005 C1022 1.574 . S
C1005 C1024 1.368 . S
C1005 H1029 0.949 . S
H1006 C1010 0.949 . S
C1007 C1008 1.349 . S
C1007 C1009 1.327 . S
C1007 H1030 0.950 . S
C1008 C1007 1.349 . S
C1008 C1020 1.349 . S
C1009 C1007 1.327 . S
C1009 C1025 1.429 . S
C1009 H1031 0.950 . S
C1010 H1006 0.949 . S
C1010 C1018 1.574 . S
C1010 C1026 1.368 . S
H1011 C1019 0.950 . S
H1012 C1017 0.950 . S
H1013 C1018 0.949 . S
H1014 C1020 0.950 . S
H1015 C1021 0.950 . S
H1016 C1022 0.949 . S
C1017 H1012 0.950 . S
C1017 C1019 1.327 . S
C1017 C1023 1.429 . S
C1018 C1010 1.574 . S
C1018 H1013 0.949 . S
C1018 C1024 1.368 . S
C1019 C1003 1.349 . S
C1019 H1011 0.950 . S
C1019 C1017 1.327 . S
C1020 C1008 1.349 . S
C1020 H1014 0.950 . S
C1020 C1021 1.327 . S
C1021 H1015 0.950 . S
C1021 C1020 1.327 . S
C1021 C1025 1.429 . S
C1022 C1005 1.574 . S
C1022 H1016 0.949 . S
C1022 C1026 1.368 . S
C1023 C1004 1.429 . S
C1023 C1017 1.429 . S
C1023 C1024 1.523 . S
C1024 C1005 1.368 . S
C1024 C1018 1.368 . S
C1024 C1023 1.523 . S
C1025 C1009 1.429 . S
C1025 C1021 1.429 . S
C1025 C1026 1.523 . S
C1026 C1010 1.368 . S
C1026 C1022 1.368 . S
C1026 C1025 1.523 . S
H1027 C1002 0.950 . S
H1028 C1004 0.950 . S
H1029 C1005 0.949 . S
H1030 C1007 0.950 . S
H1031 C1009 0.950 . S
C1032 C1033 1.349 . S
C1032 C1034 1.327 . S
C1032 H1057 0.950 . S
C1033 C1032 1.349 . S
C1033 C1049 1.349 . S
C1034 C1032 1.327 . S
C1034 C1053 1.429 . S
C1034 H1058 0.950 . S
C1035 C1052 1.574 . S
C1035 C1054 1.368 . S
C1035 H1059 0.949 . S
H1036 C1040 0.949 . S
C1037 C1038 1.349 . S
C1037 C1039 1.327 . S
C1037 H1060 0.950 . S
C1038 C1037 1.349 . S
C1038 C1050 1.349 . S
C1039 C1037 1.327 . S
C1039 C1055 1.429 . S
C1039 H1061 0.950 . S
C1040 H1036 0.949 . S
C1040 C1048 1.574 . S
C1040 C1056 1.368 . S
H1041 C1049 0.950 . S
H1042 C1047 0.950 . S
H1043 C1048 0.949 . S
H1044 C1050 0.950 . S
H1045 C1051 0.950 . S
H1046 C1052 0.949 . S
C1047 H1042 0.950 . S
C1047 C1049 1.327 . S
C1047 C1053 1.429 . S
C1048 C1040 1.574 . S
C1048 H1043 0.949 . S
C1048 C1054 1.368 . S
C1049 C1033 1.349 . S
C1049 H1041 0.950 . S
C1049 C1047 1.327 . S
C1050 C1038 1.349 . S
C1050 H1044 0.950 . S
C1050 C1051 1.327 . S
C1051 H1045 0.950 . S
C1051 C1050 1.327 . S
C1051 C1055 1.429 . S
C1052 C1035 1.574 . S
C1052 H1046 0.949 . S
C1052 C1056 1.368 . S
C1053 C1034 1.429 . S
C1053 C1047 1.429 . S
C1053 C1054 1.523 . S
C1054 C1035 1.368 . S
C1054 C1048 1.368 . S
C1054 C1053 1.523 . S
C1055 C1039 1.429 . S
C1055 C1051 1.429 . S
C1055 C1056 1.523 . S
C1056 C1040 1.368 . S
C1056 C1052 1.368 . S
C1056 C1055 1.523 . S
H1057 C1032 0.950 . S
H1058 C1034 0.950 . S
H1059 C1035 0.949 . S
H1060 C1037 0.950 . S
H1061 C1039 0.950 . S
C1062 C1063 1.349 . S
C1062 C1064 1.327 . S
C1062 H1087 0.950 . S
C1063 C1062 1.349 . S
C1063 C1079 1.349 . S
C1064 C1062 1.327 . S
C1064 C1083 1.429 . S
C1064 H1088 0.950 . S
C1065 C1082 1.574 . S
C1065 C1084 1.368 . S
C1065 H1089 0.949 . S
H1066 C1070 0.949 . S
C1067 C1068 1.349 . S
C1067 C1069 1.327 . S
C1067 H1090 0.950 . S
C1068 C1067 1.349 . S
C1068 C1080 1.349 . S
C1069 C1067 1.327 . S
C1069 C1085 1.429 . S
C1069 H1091 0.950 . S
C1070 H1066 0.949 . S
C1070 C1078 1.574 . S
C1070 C1086 1.368 . S
H1071 C1079 0.950 . S
H1072 C1077 0.950 . S
H1073 C1078 0.949 . S
H1074 C1080 0.950 . S
H1075 C1081 0.950 . S
H1076 C1082 0.949 . S
C1077 H1072 0.950 . S
C1077 C1079 1.327 . S
C1077 C1083 1.429 . S
C1078 C1070 1.574 . S
C1078 H1073 0.949 . S
C1078 C1084 1.368 . S
C1079 C1063 1.349 . S
C1079 H1071 0.950 . S
C1079 C1077 1.327 . S
C1080 C1068 1.349 . S
C1080 H1074 0.950 . S
C1080 C1081 1.327 . S
C1081 H1075 0.950 . S
C1081 C1080 1.327 . S
C1081 C1085 1.429 . S
C1082 C1065 1.574 . S
C1082 H1076 0.949 . S
C1082 C1086 1.368 . S
C1083 C1064 1.429 . S
C1083 C1077 1.429 . S
C1083 C1084 1.523 . S
C1084 C1065 1.368 . S
C1084 C1078 1.368 . S
C1084 C1083 1.523 . S
C1085 C1069 1.429 . S
C1085 C1081 1.429 . S
C1085 C1086 1.523 . S
C1086 C1070 1.368 . S
C1086 C1082 1.368 . S
C1086 C1085 1.523 . S
H1087 C1062 0.950 . S
H1088 C1064 0.950 . S
H1089 C1065 0.949 . S
H1090 C1067 0.950 . S
H1091 C1069 0.950 . S
C373 C247 1.352 . S
C378 C304 1.306 . S
C408 C312 1.306 . S
C403 C283 1.352 . S
C438 C316 1.288 . S
C433 C175 1.341 . S
C463 C211 1.341 . S
C468 C292 1.288 . S
C498 C333 1.306 . S
C493 C103 1.363 . S
C528 C367 1.306 . S
C523 C139 1.362 . S
C553 C31 1.353 . S
C558 C355 1.288 . S
C583 C67 1.353 . S
C588 C337 1.288 . S
C618 C291 1.267 . S
C613 C37 1.420 1_554 S
C648 C325 1.267 . S
C643 C1 1.420 . S
C678 C329 1.270 . S
C673 C109 1.424 1_556 S
C708 C307 1.270 . S
C703 C73 1.424 . S
C738 C346 1.267 . S
C733 C181 1.412 1_556 S
C763 C145 1.412 . S
C768 C354 1.267 . S
C798 C370 1.270 . S
C793 C253 1.418 1_554 S
C823 C217 1.418 . S
C828 C350 1.270 . S
C858 C295 1.310 . S
C853 C25 1.492 . S
C888 C313 1.310 . S
C883 C61 1.492 . S
C913 C97 1.476 . S
C918 C328 1.304 . S
C948 C308 1.304 . S
C943 C133 1.476 . S
C978 C334 1.310 . S
C973 C169 1.482 . S
C1003 C205 1.482 . S
C1008 C358 1.310 . S
C1033 C241 1.468 . S
C1038 C371 1.304 . S
C1063 C277 1.468 . S
C1068 C349 1.304 . S
