# Generated by pormake.
# Topology pth, (4,4)-cn, num edge types: 1
# Building blocks:
#     Node 0, Type 0, BuildingBlock: AZAVOO_clean_sbu_0, # of connection points: 4
#     Node 1, Type 0, BuildingBlock: AZAVOO_clean_sbu_0, # of connection points: 4
#     Node 2, Type 0, BuildingBlock: AZAVOO_clean_sbu_0, # of connection points: 4
#     Node 3, Type 1, BuildingBlock: AZAVOO_clean_linker_0, # of connection points: 4
#     Node 4, Type 1, BuildingBlock: AZAVOO_clean_linker_0, # of connection points: 4
#     Node 5, Type 1, BuildingBlock: AZAVOO_clean_linker_0, # of connection points: 4
#     Edge 6, Type (0, 1), BuildingBlock: ZUJKAS_clean_linker_0, # of connection points: 2
#     Edge 7, Type (0, 1), BuildingBlock: ZUJKAS_clean_linker_0, # of connection points: 2
#     Edge 8, Type (0, 1), BuildingBlock: ZUJKAS_clean_linker_0, # of connection points: 2
#     Edge 9, Type (0, 1), BuildingBlock: ZUJKAS_clean_linker_0, # of connection points: 2
#     Edge 10, Type (0, 1), BuildingBlock: ZUJKAS_clean_linker_0, # of connection points: 2
#     Edge 11, Type (0, 1), BuildingBlock: ZUJKAS_clean_linker_0, # of connection points: 2
#     Edge 12, Type (0, 1), BuildingBlock: ZUJKAS_clean_linker_0, # of connection points: 2
#     Edge 13, Type (0, 1), BuildingBlock: ZUJKAS_clean_linker_0, # of connection points: 2
#     Edge 14, Type (0, 1), BuildingBlock: ZUJKAS_clean_linker_0, # of connection points: 2
#     Edge 15, Type (0, 1), BuildingBlock: ZUJKAS_clean_linker_0, # of connection points: 2
#     Edge 16, Type (0, 1), BuildingBlock: ZUJKAS_clean_linker_0, # of connection points: 2
#     Edge 17, Type (0, 1), BuildingBlock: ZUJKAS_clean_linker_0, # of connection points: 2
# Relax obj value: 0.166
# Max RMSD: 0.230
# Mean RMSD: 0.224
data_MOF--net-pth--node1-AZAVOO_clean_sbu_0--node2-AZAVOO_clean_linker_0--edge1-ZUJKAS_clean_linker_0
_symmetry_space_group_name_H-M    P1
_symmetry_Int_Tables_number       1
_symmetry_cell_setting            triclinic
loop_
_symmetry_equiv_pos_as_xyz
'x, y, z'
_cell_length_a     32.479869
_cell_length_b     33.188607
_cell_length_c     87.083406
_cell_angle_alpha  92.190154
_cell_angle_beta   91.979268
_cell_angle_gamma 121.97272
loop_
_atom_site_label
_atom_site_type_symbol
_atom_site_fract_x
_atom_site_fract_y
_atom_site_fract_z
_atom_type_partial_charge
Mg0 Mg 0.08305 0.04673 0.06016 0.0
O1 O 0.05267 0.06317 0.03919 0.0
O2 O 0.10462 0.13498 0.03112 0.0
Mg3 Mg 0.16644 0.16917 0.05021 0.0
C4 C 0.06427 0.09504 0.02964 0.0
C5 C 0.99454 0.94151 0.06684 0.0
O6 O 0.94863 0.90675 0.0651 0.0
O7 O 0.06332 0.08969 0.0757 0.0
O8 O 0.11465 0.16332 0.06867 0.0
O9 O 0.12253 0.02644 0.04414 0.0
O10 O 0.15345 0.09867 0.05526 0.0
C11 C 0.08054 0.13438 0.07684 0.0
C12 C 0.1572 0.07093 0.04548 0.0
O13 O 0.00722 0.9807 0.06106 0.0
Mg14 Mg 0.9426 0.0243 0.38609 0.0
O15 O 0.01648 0.05916 0.39977 0.0
O16 O 0.0273 0.12167 0.41414 0.0
Mg17 Mg 0.96168 0.12804 0.40923 0.0
C18 C 0.04165 0.09433 0.40963 0.0
C19 C 0.93421 0.93486 0.37074 0.0
O20 O 0.89392 0.91634 0.37801 0.0
O21 O 0.97342 0.08355 0.36937 0.0
O22 O 0.98296 0.14452 0.38438 0.0
O23 O 0.90791 0.98088 0.40605 0.0
O24 O 0.91764 0.05113 0.40283 0.0
C25 C 0.98595 0.12701 0.37145 0.0
C26 C 0.90485 0.01608 0.4114 0.0
O27 O 0.96289 0.97982 0.37152 0.0
Mg28 Mg 0.02923 0.0394 0.72632 0.0
O29 O 0.07483 0.10711 0.74202 0.0
O30 O 0.02548 0.11889 0.75606 0.0
Mg31 Mg 0.94742 0.058 0.74917 0.0
C32 C 0.068 0.13129 0.7522 0.0
C33 C 0.11662 0.03721 0.71376 0.0
O34 O 0.09896 0.00087 0.72246 0.0
O35 O 0.00587 0.07816 0.7106 0.0
O36 O 0.95402 0.08526 0.72496 0.0
O37 O 0.03143 0.99624 0.74511 0.0
O38 O 0.97415 0.01243 0.74154 0.0
C39 C 0.97563 0.09117 0.71249 0.0
C40 C 0.99252 0.99347 0.74965 0.0
O41 O 0.0958 0.06049 0.71284 0.0
H42 H 0.09885 0.55747 0.11792 0.0
H43 H 0.15407 0.89087 0.25195 0.0
H44 H 0.01175 0.49748 0.19542 0.0
H45 H 0.99725 0.42391 0.18268 0.0
H46 H 0.12961 0.44818 0.2055 0.0
H47 H 0.14437 0.52274 0.21795 0.0
H48 H 0.043 0.58575 0.17862 0.0
H49 H 0.05404 0.57317 0.15159 0.0
H50 H 0.18789 0.58151 0.1651 0.0
H51 H 0.17668 0.59467 0.19208 0.0
H52 H 0.04303 0.66278 0.19753 0.0
H53 H 0.05574 0.71889 0.17808 0.0
H54 H 0.20542 0.75864 0.17644 0.0
H55 H 0.19236 0.70224 0.19605 0.0
H56 H 0.02451 0.65755 0.23243 0.0
H57 H 0.02797 0.7296 0.24202 0.0
H58 H 0.18359 0.81091 0.23794 0.0
H59 H 0.17968 0.73838 0.22859 0.0
H60 H 0.00165 0.56274 0.24764 0.0
H61 H 0.97808 0.58627 0.27104 0.0
H62 H 0.1268 0.70314 0.28061 0.0
H63 H 0.15031 0.67767 0.25767 0.0
H64 H 0.00306 0.47989 0.22948 0.0
H65 H 0.99003 0.41652 0.24584 0.0
H66 H 0.12808 0.51354 0.27087 0.0
H67 H 0.14203 0.57564 0.25377 0.0
O68 O 0.09532 0.5627 0.12867 0.0
O69 O 0.16372 0.56698 0.13622 0.0
O70 O 0.07166 0.81832 0.25019 0.0
O71 O 0.15164 0.86186 0.24813 0.0
C72 C 0.08968 0.56231 0.21379 0.0
C73 C 0.10235 0.59888 0.20369 0.0
C74 C 0.10743 0.64196 0.2091 0.0
C75 C 0.09981 0.64856 0.22459 0.0
C76 C 0.08865 0.61253 0.23488 0.0
C77 C 0.08391 0.56945 0.22949 0.0
C78 C 0.07925 0.51547 0.20749 0.0
C79 C 0.03733 0.48661 0.19778 0.0
C80 C 0.02891 0.44439 0.19063 0.0
C81 C 0.06229 0.4302 0.19308 0.0
C82 C 0.10349 0.45844 0.20328 0.0
C83 C 0.11188 0.50081 0.21044 0.0
C84 C 0.10924 0.59148 0.18727 0.0
C85 C 0.07486 0.58522 0.17569 0.0
C86 C 0.08118 0.57786 0.16027 0.0
C87 C 0.12189 0.57639 0.15617 0.0
C88 C 0.15617 0.58251 0.16785 0.0
C89 C 0.14986 0.59 0.18326 0.0
C90 C 0.11678 0.67858 0.19816 0.0
C91 C 0.07868 0.68398 0.19309 0.0
C92 C 0.08592 0.71572 0.18194 0.0
C93 C 0.13147 0.74274 0.1757 0.0
C94 C 0.17006 0.73833 0.18113 0.0
C95 C 0.16266 0.70619 0.19224 0.0
C96 C 0.10188 0.69274 0.2299 0.0
C97 C 0.05931 0.69095 0.23365 0.0
C98 C 0.06139 0.73216 0.2391 0.0
C99 C 0.10611 0.77603 0.24077 0.0
C100 C 0.1486 0.77773 0.23681 0.0
C101 C 0.14648 0.73642 0.23142 0.0
C102 C 0.07757 0.61886 0.25087 0.0
C103 C 0.02945 0.5922 0.25514 0.0
C104 C 0.01596 0.60616 0.2684 0.0
C105 C 0.05029 0.64731 0.27751 0.0
C106 C 0.09937 0.67121 0.27394 0.0
C107 C 0.11292 0.65684 0.26078 0.0
C108 C 0.07379 0.53218 0.2403 0.0
C109 C 0.03058 0.48729 0.23845 0.0
C110 C 0.02301 0.45125 0.24793 0.0
C111 C 0.05817 0.45969 0.25964 0.0
C112 C 0.10072 0.50533 0.26176 0.0
C113 C 0.10853 0.54111 0.25213 0.0
C114 C 0.12841 0.56842 0.13978 0.0
C115 C 0.10855 0.81988 0.24665 0.0
H116 H 0.57403 0.06201 0.45361 0.0
H117 H 0.31986 0.18505 0.5719 0.0
H118 H 0.57906 0.04016 0.53792 0.0
H119 H 0.64006 0.02381 0.52953 0.0
H120 H 0.75322 0.17007 0.54213 0.0
H121 H 0.69141 0.18625 0.55029 0.0
H122 H 0.50793 0.04983 0.51586 0.0
H123 H 0.52333 0.04174 0.48896 0.0
H124 H 0.65466 0.18175 0.49412 0.0
H125 H 0.6385 0.18956 0.52097 0.0
H126 H 0.43109 0.05775 0.53187 0.0
H127 H 0.37587 0.05637 0.5117 0.0
H128 H 0.4876 0.19791 0.50072 0.0
H129 H 0.54244 0.19913 0.52109 0.0
H130 H 0.43136 0.06452 0.568 0.0
H131 H 0.36119 0.06858 0.57488 0.0
H132 H 0.43042 0.21081 0.55905 0.0
H133 H 0.50068 0.20651 0.55243 0.0
H134 H 0.51558 0.06176 0.58703 0.0
H135 H 0.47851 0.05456 0.6115 0.0
H136 H 0.50646 0.19675 0.60896 0.0
H137 H 0.54577 0.20443 0.58488 0.0
H138 H 0.59144 0.05548 0.57336 0.0
H139 H 0.65248 0.05919 0.59165 0.0
H140 H 0.71437 0.21019 0.6006 0.0
H141 H 0.65351 0.20616 0.58206 0.0
O142 O 0.56853 0.06604 0.46426 0.0
O143 O 0.6358 0.1381 0.46753 0.0
O144 O 0.3133 0.10942 0.57737 0.0
O145 O 0.34712 0.18247 0.56926 0.0
C146 C 0.59296 0.12422 0.54854 0.0
C147 C 0.56274 0.12506 0.53668 0.0
C148 C 0.52338 0.12955 0.54039 0.0
C149 C 0.51416 0.13308 0.55596 0.0
C150 C 0.54516 0.13331 0.56786 0.0
C151 C 0.58481 0.12929 0.56411 0.0
C152 C 0.63092 0.11441 0.54456 0.0
C153 C 0.61709 0.06851 0.53899 0.0
C154 C 0.65203 0.05916 0.53437 0.0
C155 C 0.70147 0.09565 0.53522 0.0
C156 C 0.71536 0.14136 0.54127 0.0
C157 C 0.68027 0.15065 0.54594 0.0
C158 C 0.57196 0.12037 0.52031 0.0
C159 C 0.53981 0.07882 0.51112 0.0
C160 C 0.5488 0.07424 0.49577 0.0
C161 C 0.59022 0.11112 0.48938 0.0
C162 C 0.62241 0.1527 0.49867 0.0
C163 C 0.61331 0.15725 0.51401 0.0
C164 C 0.49054 0.12861 0.52795 0.0
C165 C 0.44356 0.08839 0.52509 0.0
C166 C 0.41229 0.08754 0.5135 0.0
C167 C 0.42749 0.12702 0.50462 0.0
C168 C 0.47481 0.16716 0.50747 0.0
C169 C 0.50616 0.16787 0.51902 0.0
C170 C 0.47112 0.13528 0.55978 0.0
C171 C 0.43132 0.09655 0.56607 0.0
C172 C 0.39127 0.09894 0.56996 0.0
C173 C 0.39022 0.14007 0.56753 0.0
C174 C 0.43006 0.17864 0.56109 0.0
C175 C 0.47018 0.17626 0.55726 0.0
C176 C 0.53308 0.1335 0.58414 0.0
C177 C 0.51536 0.092 0.59206 0.0
C178 C 0.49358 0.08773 0.60593 0.0
C179 C 0.48862 0.12471 0.61203 0.0
C180 C 0.50986 0.16767 0.60465 0.0
C181 C 0.53215 0.17209 0.59085 0.0
C182 C 0.61821 0.13055 0.57641 0.0
C183 C 0.61791 0.08921 0.5794 0.0
C184 C 0.65267 0.09141 0.58987 0.0
C185 C 0.68836 0.13505 0.5975 0.0
C186 C 0.68773 0.1762 0.59474 0.0
C187 C 0.6528 0.17391 0.5843 0.0
C188 C 0.59972 0.10609 0.47308 0.0
C189 C 0.34783 0.14287 0.5717 0.0
H190 H 0.60945 0.62357 0.00592 0.0
H191 H 0.33022 0.26618 0.86984 0.0
H192 H 0.59549 0.67089 0.92536 0.0
H193 H 0.65924 0.75079 0.93545 0.0
H194 H 0.76804 0.72835 0.9171 0.0
H195 H 0.70371 0.64821 0.90697 0.0
H196 H 0.52639 0.57814 0.94237 0.0
H197 H 0.54857 0.59627 0.97001 0.0
H198 H 0.68418 0.60517 0.96284 0.0
H199 H 0.6613 0.58649 0.93523 0.0
H200 H 0.44625 0.48902 0.92287 0.0
H201 H 0.39907 0.42138 0.93857 0.0
H202 H 0.52398 0.40869 0.94575 0.0
H203 H 0.5709 0.47648 0.93003 0.0
H204 H 0.43762 0.49929 0.8876 0.0
H205 H 0.36669 0.42398 0.87701 0.0
H206 H 0.44334 0.35274 0.88646 0.0
H207 H 0.51438 0.42852 0.89676 0.0
H208 H 0.5119 0.58955 0.87158 0.0
H209 H 0.46301 0.5565 0.84716 0.0
H210 H 0.50399 0.45213 0.84378 0.0
H211 H 0.55384 0.48638 0.86789 0.0
H212 H 0.61201 0.68414 0.88931 0.0
H213 H 0.67035 0.74222 0.87234 0.0
H214 H 0.70266 0.63859 0.85542 0.0
H215 H 0.64586 0.58143 0.87275 0.0
O216 O 0.60131 0.61623 0.99496 0.0
O217 O 0.67056 0.62047 0.99066 0.0
O218 O 0.32026 0.33492 0.86915 0.0
O219 O 0.35766 0.29638 0.87406 0.0
C220 C 0.60562 0.60523 0.90955 0.0
C221 C 0.57872 0.57027 0.92003 0.0
C222 C 0.53886 0.52523 0.91452 0.0
C223 C 0.52491 0.51566 0.89864 0.0
C224 C 0.55244 0.55016 0.88813 0.0
C225 C 0.59338 0.59459 0.89353 0.0
C226 C 0.64501 0.65372 0.91551 0.0
C227 C 0.63311 0.68321 0.92356 0.0
C228 C 0.66956 0.72878 0.92931 0.0
C229 C 0.71869 0.74582 0.92711 0.0
C230 C 0.73049 0.7164 0.91884 0.0
C231 C 0.69391 0.6706 0.91313 0.0
C232 C 0.5922 0.58093 0.93682 0.0
C233 C 0.56074 0.58376 0.94681 0.0
C234 C 0.57357 0.59426 0.96258 0.0
C235 C 0.61817 0.6022 0.96864 0.0
C236 C 0.64959 0.59928 0.95856 0.0
C237 C 0.63665 0.58869 0.94279 0.0
C238 C 0.51187 0.48746 0.92529 0.0
C239 C 0.46345 0.47179 0.92794 0.0
C240 C 0.43653 0.433 0.9368 0.0
C241 C 0.4577 0.40943 0.94326 0.0
C242 C 0.50677 0.42628 0.94099 0.0
C243 C 0.5336 0.46495 0.93205 0.0
C244 C 0.48111 0.46932 0.89291 0.0
C245 C 0.43898 0.46736 0.88737 0.0
C246 C 0.39853 0.4243 0.88134 0.0
C247 C 0.39937 0.38232 0.88087 0.0
C248 C 0.44149 0.38438 0.88664 0.0
C249 C 0.48204 0.42755 0.89258 0.0
C250 C 0.53585 0.53994 0.87156 0.0
C251 C 0.51189 0.56085 0.86522 0.0
C252 C 0.48355 0.54156 0.85137 0.0
C253 C 0.4788 0.50106 0.8437 0.0
C254 C 0.50696 0.4834 0.84933 0.0
C255 C 0.53543 0.50285 0.86313 0.0
C256 C 0.62495 0.62866 0.88234 0.0
C257 C 0.63174 0.67405 0.88195 0.0
C258 C 0.66498 0.7071 0.8723 0.0
C259 C 0.69095 0.69477 0.86265 0.0
C260 C 0.68283 0.64881 0.86269 0.0
C261 C 0.65038 0.61617 0.87254 0.0
C262 C 0.63176 0.61352 0.98539 0.0
C263 C 0.35663 0.33656 0.87434 0.0
H264 H 0.10159 0.22552 0.08066 0.0
H265 H 0.08262 0.261 0.10211 0.0
H266 H 0.00218 0.12454 0.12163 0.0
H267 H 0.02141 0.08845 0.10019 0.0
H268 H 0.99265 0.23927 0.11398 0.0
H269 H 0.10964 0.213 0.15549 0.0
H270 H 0.11225 0.20706 0.13491 0.0
H271 H 0.062 0.16119 0.14439 0.0
C272 C 0.07946 0.20279 0.08941 0.0
C273 C 0.06355 0.15422 0.0888 0.0
C274 C 0.06853 0.22316 0.10164 0.0
C275 C 0.04165 0.19551 0.11353 0.0
C276 C 0.0236 0.14656 0.11264 0.0
H277 H 0.97814 0.34345 0.18634 0.0
H278 H 0.96649 0.27881 0.16847 0.0
C279 C 0.03443 0.126 0.10035 0.0
C280 C 0.03544 0.21921 0.12719 0.0
H281 H 0.07785 0.25781 0.1646 0.0
C282 C 0.01046 0.24268 0.12514 0.0
C283 C 0.05919 0.22379 0.14166 0.0
C284 C 0.0876 0.20025 0.14433 0.0
C285 C 0.01023 0.27228 0.13704 0.0
C286 C 0.03522 0.278 0.15137 0.0
C287 C 0.05854 0.25301 0.15361 0.0
C288 C 0.04226 0.31392 0.16349 0.0
C289 C 0.98567 0.29934 0.1339 0.0
C290 C 0.08897 0.35408 0.167 0.0
C291 C 0.09574 0.39097 0.17715 0.0
C292 C 0.05589 0.38827 0.18401 0.0
C293 C 0.00943 0.34686 0.18104 0.0
C294 C 0.00269 0.30994 0.17086 0.0
H295 H 0.97464 0.2966 0.1215 0.0
H296 H 0.95258 0.28476 0.14049 0.0
H297 H 0.0102 0.33755 0.13773 0.0
H298 H 0.11995 0.35777 0.16139 0.0
H299 H 0.13186 0.42254 0.17904 0.0
H300 H 0.88919 0.95494 0.43402 0.0
H301 H 0.86659 0.95977 0.46036 0.0
H302 H 0.86721 0.08659 0.45081 0.0
H303 H 0.88892 0.08183 0.42463 0.0
H304 H 0.91961 0.08768 0.48056 0.0
H305 H 0.72762 0.93546 0.46978 0.0
H306 H 0.77672 0.92861 0.46433 0.0
H307 H 0.76378 0.96686 0.45407 0.0
C308 C 0.88451 0.98383 0.43756 0.0
C309 C 0.89111 0.01818 0.42726 0.0
C310 C 0.87177 0.98657 0.45259 0.0
C311 C 0.86553 0.02365 0.45746 0.0
C312 C 0.87238 0.05799 0.44726 0.0
H313 H 0.77254 0.15212 0.51653 0.0
H314 H 0.82102 0.13132 0.5014 0.0
C315 C 0.88482 0.05519 0.43229 0.0
C316 C 0.84968 0.02638 0.47293 0.0
H317 H 0.74648 0.98516 0.49208 0.0
C318 C 0.88204 0.06463 0.48331 0.0
C319 C 0.80087 0.9959 0.47649 0.0
C320 C 0.76493 0.95435 0.46564 0.0
C321 C 0.86597 0.07507 0.49675 0.0
C322 C 0.81611 0.04719 0.49961 0.0
C323 C 0.78468 0.00664 0.48984 0.0
C324 C 0.79416 0.06314 0.51106 0.0
C325 C 0.90219 0.11686 0.50746 0.0
C326 C 0.76306 0.03191 0.52163 0.0
C327 C 0.73494 0.04367 0.53025 0.0
C328 C 0.73731 0.08676 0.52838 0.0
C329 C 0.77048 0.11905 0.51843 0.0
C330 C 0.79841 0.10723 0.5098 0.0
H331 H 0.93886 0.12198 0.50725 0.0
H332 H 0.90521 0.14973 0.50356 0.0
H333 H 0.89097 0.11221 0.51948 0.0
H334 H 0.75901 0.99759 0.5227 0.0
H335 H 0.70998 0.01829 0.53795 0.0
H336 H 0.90274 0.96753 0.75839 0.0
H337 H 0.86238 0.9244 0.78061 0.0
H338 H 0.9901 0.92326 0.79517 0.0
H339 H 0.03039 0.96531 0.77247 0.0
H340 H 0.91199 0.8384 0.79646 0.0
H341 H 0.87576 0.96678 0.82486 0.0
H342 H 0.85199 0.95394 0.80522 0.0
H343 H 0.91661 0.98266 0.80953 0.0
C344 C 0.92261 0.95876 0.76642 0.0
C345 C 0.96987 0.97005 0.76373 0.0
C346 C 0.89956 0.93438 0.77921 0.0
C347 C 0.92359 0.92161 0.78979 0.0
C348 C 0.97103 0.93319 0.78723 0.0
H349 H 0.76534 0.78546 0.87101 0.0
H350 H 0.82771 0.84215 0.85474 0.0
C351 C 0.99399 0.95716 0.77428 0.0
C352 C 0.89735 0.89286 0.80277 0.0
H353 H 0.82246 0.8843 0.83069 0.0
C354 C 0.89313 0.84884 0.80413 0.0
C355 C 0.87359 0.90681 0.81304 0.0
C356 C 0.88022 0.9554 0.8132 0.0
C357 C 0.86351 0.81724 0.81486 0.0
C358 C 0.83606 0.82931 0.8241 0.0
C359 C 0.84261 0.87452 0.82338 0.0
C360 C 0.79891 0.79492 0.83405 0.0
C361 C 0.86192 0.77121 0.81612 0.0
C362 C 0.76148 0.74997 0.82778 0.0
C363 C 0.72631 0.71752 0.83707 0.0
C364 C 0.72723 0.72984 0.85273 0.0
C365 C 0.76378 0.77529 0.85894 0.0
C366 C 0.79944 0.80753 0.84968 0.0
H367 H 0.89645 0.77502 0.81275 0.0
H368 H 0.85534 0.75916 0.828 0.0
H369 H 0.83218 0.74323 0.80815 0.0
H370 H 0.75923 0.74003 0.81565 0.0
H371 H 0.69807 0.68291 0.83199 0.0
H372 H 0.07854 0.0081 0.08356 0.0
H373 H 0.13173 0.99324 0.09975 0.0
H374 H 0.04088 0.84314 0.0865 0.0
H375 H 0.98876 0.85792 0.07003 0.0
H376 H 0.10098 0.93936 0.12426 0.0
H377 H 0.17453 0.86339 0.08452 0.0
H378 H 0.1491 0.89722 0.07797 0.0
H379 H 0.11014 0.83455 0.08065 0.0
C380 C 0.07107 0.97226 0.08363 0.0
C381 C 0.0299 0.93424 0.07536 0.0
C382 C 0.10127 0.96377 0.09298 0.0
C383 C 0.09091 0.91723 0.09408 0.0
C384 C 0.05051 0.87952 0.08549 0.0
H385 H 0.07239 0.71991 0.14987 0.0
H386 H 0.07797 0.77243 0.13006 0.0
C387 C 0.02036 0.88793 0.07622 0.0
C388 C 0.11742 0.90637 0.1057 0.0
H389 H 0.16109 0.83382 0.11047 0.0
C390 C 0.11577 0.91768 0.12127 0.0
C391 C 0.13706 0.87843 0.10178 0.0
C392 C 0.14329 0.86819 0.08529 0.0
C393 C 0.12844 0.89762 0.133 0.0
C394 C 0.14334 0.86582 0.12897 0.0
C395 C 0.14924 0.85797 0.11348 0.0
C396 C 0.14423 0.83421 0.14026 0.0
C397 C 0.12177 0.9072 0.14952 0.0
C398 C 0.18022 0.85154 0.15239 0.0
C399 C 0.17706 0.82149 0.16377 0.0
C400 C 0.13764 0.774 0.16318 0.0
C401 C 0.1027 0.75655 0.15072 0.0
C402 C 0.10607 0.78636 0.13935 0.0
H403 H 0.10777 0.93124 0.15063 0.0
H404 H 0.09603 0.87319 0.1546 0.0
H405 H 0.15711 0.92383 0.15634 0.0
H406 H 0.21 0.88841 0.15321 0.0
H407 H 0.20443 0.83572 0.17328 0.0
H408 H 0.07539 0.03416 0.40802 0.0
H409 H 0.14588 0.04294 0.42253 0.0
H410 H 0.182 0.18019 0.44193 0.0
H411 H 0.11124 0.17144 0.42777 0.0
H412 H 0.24555 0.11121 0.42395 0.0
H413 H 0.16679 0.10643 0.47992 0.0
H414 H 0.13174 0.09061 0.46175 0.0
H415 H 0.17226 0.15216 0.46821 0.0
C416 C 0.09857 0.06643 0.41526 0.0
C417 C 0.08727 0.10181 0.4169 0.0
C418 C 0.13882 0.07136 0.42354 0.0
C419 C 0.16845 0.11172 0.43355 0.0
C420 C 0.15884 0.14822 0.43455 0.0
H421 H 0.41083 0.19796 0.4995 0.0
H422 H 0.35078 0.19558 0.48107 0.0
C423 C 0.11848 0.14322 0.42639 0.0
C424 C 0.20823 0.11488 0.44341 0.0
H425 H 0.248 0.12479 0.48096 0.0
C426 C 0.2461 0.11406 0.43641 0.0
C427 C 0.20856 0.11823 0.45967 0.0
C428 C 0.16745 0.11645 0.46786 0.0
C429 C 0.28492 0.1175 0.44529 0.0
C430 C 0.28546 0.1215 0.46152 0.0
C431 C 0.24755 0.12213 0.4685 0.0
C432 C 0.32454 0.12424 0.47159 0.0
C433 C 0.3254 0.11757 0.43729 0.0
C434 C 0.32957 0.08491 0.47229 0.0
C435 C 0.36375 0.08613 0.4828 0.0
C436 C 0.39343 0.12674 0.49278 0.0
C437 C 0.3889 0.16642 0.49183 0.0
C438 C 0.35453 0.16506 0.48137 0.0
H439 H 0.32487 0.12439 0.42491 0.0
H440 H 0.36136 0.14494 0.44294 0.0
H441 H 0.32128 0.08233 0.43808 0.0
H442 H 0.30621 0.05283 0.46498 0.0
H443 H 0.3667 0.05516 0.48322 0.0
H444 H 0.16428 0.16668 0.74809 0.0
H445 H 0.23487 0.23513 0.76201 0.0
H446 H 0.14003 0.26247 0.78768 0.0
H447 H 0.06906 0.19371 0.774 0.0
H448 H 0.26518 0.33242 0.76503 0.0
H449 H 0.22364 0.24948 0.82118 0.0
H450 H 0.1946 0.21587 0.80312 0.0
H451 H 0.17476 0.25199 0.812 0.0
C452 C 0.1583 0.18725 0.75666 0.0
C453 C 0.11088 0.17432 0.76003 0.0
C454 C 0.19875 0.22645 0.76458 0.0
C455 C 0.1926 0.25335 0.77602 0.0
C456 C 0.14548 0.24156 0.77908 0.0
H457 H 0.38581 0.48086 0.84298 0.0
H458 H 0.31784 0.42534 0.82505 0.0
C459 C 0.10497 0.20233 0.7712 0.0
C460 C 0.23545 0.29295 0.78505 0.0
H461 H 0.28839 0.32984 0.82151 0.0
C462 C 0.2704 0.33194 0.77738 0.0
C463 C 0.24217 0.29195 0.80113 0.0
C464 C 0.20709 0.24993 0.80986 0.0
C465 C 0.31154 0.37054 0.78546 0.0
C466 C 0.31797 0.36964 0.80155 0.0
C467 C 0.28311 0.33054 0.80917 0.0
C468 C 0.36072 0.40846 0.81084 0.0
C469 C 0.34729 0.41229 0.77679 0.0
C470 C 0.40761 0.4181 0.8086 0.0
C471 C 0.44682 0.45029 0.81877 0.0
C472 C 0.43967 0.47317 0.83139 0.0
C473 C 0.39289 0.46469 0.83322 0.0
C474 C 0.35385 0.43261 0.82306 0.0
H475 H 0.33131 0.41283 0.76537 0.0
H476 H 0.3599 0.44643 0.78349 0.0
H477 H 0.3795 0.40981 0.77488 0.0
H478 H 0.41354 0.39922 0.79939 0.0
H479 H 0.48241 0.45613 0.81705 0.0
H480 H 0.00445 0.1003 0.68283 0.0
H481 H 0.9727 0.12205 0.66087 0.0
H482 H 0.88263 0.1448 0.69073 0.0
H483 H 0.91464 0.12433 0.71265 0.0
H484 H 0.87945 0.0731 0.65012 0.0
H485 H 0.93293 0.25819 0.66522 0.0
H486 H 0.9608 0.23046 0.67488 0.0
H487 H 0.90406 0.2215 0.68082 0.0
C488 C 0.97872 0.111 0.68478 0.0
C489 C 0.96192 0.11029 0.69951 0.0
C490 C 0.96061 0.12339 0.67221 0.0
C491 C 0.92576 0.13567 0.67418 0.0
C492 C 0.91038 0.13667 0.68896 0.0
H493 H 0.67729 0.07379 0.61935 0.0
H494 H 0.74059 0.07686 0.63628 0.0
C495 C 0.92845 0.12443 0.7015 0.0
C496 C 0.90084 0.14176 0.66072 0.0
H497 H 0.86018 0.21146 0.64802 0.0
C498 C 0.87609 0.10382 0.64948 0.0
C499 C 0.89701 0.18212 0.65972 0.0
C500 C 0.92561 0.22556 0.67073 0.0
C501 C 0.84501 0.10375 0.63788 0.0
C502 C 0.83771 0.14213 0.63776 0.0
C503 C 0.86506 0.18158 0.64832 0.0
C504 C 0.79972 0.14061 0.62739 0.0
C505 C 0.8196 0.0621 0.62605 0.0
C506 C 0.81177 0.17633 0.61715 0.0
C507 C 0.77555 0.17482 0.60753 0.0
C508 C 0.72666 0.13764 0.60804 0.0
C509 C 0.7147 0.10239 0.6185 0.0
C510 C 0.75086 0.10402 0.62814 0.0
H511 H 0.84046 0.04452 0.6246 0.0
H512 H 0.7834 0.03533 0.62995 0.0
H513 H 0.81426 0.07337 0.61469 0.0
H514 H 0.84925 0.20505 0.61649 0.0
H515 H 0.78592 0.20225 0.59948 0.0
H516 H 0.08887 0.11763 7e-05 0.0
H517 H 0.03503 0.07852 0.97666 0.0
H518 H 0.9128 0.00197 0.00463 0.0
H519 H 0.96606 0.04045 0.02785 0.0
H520 H 0.9862 0.97947 0.97217 0.0
H521 H 0.85383 0.03553 0.96895 0.0
H522 H 0.91209 0.07045 0.97968 0.0
H523 H 0.86139 0.0211 0.98806 0.0
C524 C 0.05018 0.09388 0.00114 0.0
C525 C 0.03149 0.08196 0.01572 0.0
C526 C 0.01956 0.07142 0.98779 0.0
C527 C 0.96984 0.03771 0.9889 0.0
C528 C 0.95078 0.02857 0.00346 0.0
H529 H 0.72451 0.78493 0.95579 0.0
H530 H 0.78871 0.86219 0.96747 0.0
C531 C 0.98131 0.05037 0.01674 0.0
C532 C 0.93907 0.00596 0.97543 0.0
H533 H 0.82487 0.95525 0.95829 0.0
C534 C 0.95151 0.97498 0.96874 0.0
C535 C 0.8939 0.00022 0.97101 0.0
C536 C 0.87974 0.03397 0.9772 0.0
C537 C 0.91812 0.93572 0.95883 0.0
C538 C 0.87148 0.92793 0.95533 0.0
C539 C 0.86052 0.96108 0.96108 0.0
C540 C 0.83169 0.88266 0.94752 0.0
C541 C 0.93164 0.9009 0.95317 0.0
C542 C 0.8343 0.86871 0.93234 0.0
C543 C 0.79754 0.82432 0.92562 0.0
C544 C 0.75741 0.79344 0.93393 0.0
C545 C 0.75459 0.80809 0.94901 0.0
C546 C 0.7913 0.85222 0.95571 0.0
H547 H 0.9663 0.90831 0.95889 0.0
H548 H 0.90248 0.8639 0.95521 0.0
H549 H 0.93595 0.90315 0.9406 0.0
H550 H 0.86482 0.892 0.92574 0.0
H551 H 0.80035 0.81426 0.9139 0.0
H552 H 0.01694 0.96102 0.35592 0.0
H553 H 0.0362 0.90909 0.34144 0.0
H554 H 0.89798 0.78656 0.35115 0.0
H555 H 0.87869 0.83804 0.36587 0.0
H556 H 0.97503 0.77275 0.35522 0.0
H557 H 0.97569 0.845 0.29871 0.0
H558 H 0.01594 0.88927 0.31346 0.0
H559 H 0.95136 0.85706 0.31535 0.0
C560 C 0.99058 0.92304 0.35496 0.0
C561 C 0.94612 0.90369 0.36195 0.0
C562 C 0.0016 0.89345 0.34664 0.0
C563 C 0.96821 0.84409 0.34505 0.0
C564 C 0.92416 0.8246 0.35221 0.0
H565 H 0.96918 0.65244 0.27571 0.0
H566 H 0.94739 0.69589 0.29333 0.0
C567 C 0.91316 0.85411 0.36057 0.0
C568 C 0.97896 0.81273 0.33582 0.0
H569 H 0.0026 0.79126 0.29958 0.0
C570 C 0.98098 0.77665 0.34305 0.0
C571 C 0.98605 0.81758 0.31991 0.0
C572 C 0.98173 0.854 0.31134 0.0
C573 C 0.99045 0.74552 0.33479 0.0
C574 C -0.00117 0.75124 0.31896 0.0
C575 C 0.99643 0.78711 0.31174 0.0
C576 C 0.00934 0.72009 0.30948 0.0
C577 C 0.99042 0.70628 0.34298 0.0
C578 C 0.05098 0.71845 0.31287 0.0
C579 C 0.0632 0.69283 0.30291 0.0
C580 C 0.03423 0.66881 0.2893 0.0
C581 C 0.99182 0.66955 0.28622 0.0
C582 C 0.97953 0.69486 0.29621 0.0
H583 H 0.97087 0.69889 0.35374 0.0
H584 H 0.97325 0.6729 0.33545 0.0
H585 H 0.0285 0.71719 0.34613 0.0
H586 H 0.07497 0.73834 0.32292 0.0
H587 H 0.09596 0.69283 0.30567 0.0
H588 H 0.16492 0.11272 0.69581 0.0
H589 H 0.23363 0.13187 0.68029 0.0
H590 H 0.23358 0.01004 0.69585 0.0
H591 H 0.16539 0.99098 0.7116 0.0
H592 H 0.32726 0.09231 0.69549 0.0
H593 H 0.21863 0.05501 0.64023 0.0
H594 H 0.21893 0.09827 0.65334 0.0
H595 H 0.19104 0.0376 0.65838 0.0
C596 C 0.17958 0.09005 0.69597 0.0
C597 C 0.15937 0.05003 0.70482 0.0
C598 C 0.21876 0.101 0.68707 0.0
C599 C 0.23813 0.07194 0.68676 0.0
C600 C 0.219 0.03281 0.69591 0.0
H601 H 0.4015 0.0443 0.61639 0.0
H602 H 0.34456 0.03257 0.63578 0.0
C603 C 0.17993 0.0219 0.70486 0.0
C604 C 0.2773 0.08133 0.67652 0.0
H605 H 0.3025 0.08571 0.6387 0.0
C606 C 0.322 0.09097 0.68307 0.0
C607 C 0.26998 0.07897 0.66032 0.0
C608 C 0.22195 0.06649 0.6526 0.0
C609 C 0.35972 0.09846 0.67381 0.0
C610 C 0.35257 0.09678 0.65764 0.0
C611 C 0.30791 0.08721 0.65112 0.0
C612 C 0.39001 0.10295 0.6471 0.0
C613 C 0.40637 0.10686 0.68136 0.0
C614 C 0.43487 0.14627 0.64718 0.0
C615 C 0.46799 0.15295 0.63617 0.0
C616 C 0.45661 0.11648 0.62487 0.0
C617 C 0.41202 0.07281 0.6251 0.0
C618 C 0.37914 0.06616 0.63609 0.0
H619 H 0.40196 0.09634 0.69344 0.0
H620 H 0.41937 0.08675 0.67483 0.0
H621 H 0.43483 0.1453 0.6815 0.0
H622 H 0.44363 0.17539 0.65543 0.0
H623 H 0.50208 0.18692 0.63634 0.0
H624 H 0.15166 0.03993 0.01541 0.0
H625 H 0.20618 0.0869 0.99554 0.0
H626 H 0.30004 0.19777 0.03019 0.0
H627 H 0.24596 0.15154 0.04998 0.0
H628 H 0.24017 0.20928 0.00077 0.0
H629 H 0.37067 0.15164 0.99094 0.0
H630 H 0.30816 0.10924 0.99477 0.0
H631 H 0.34925 0.15084 0.00987 0.0
C632 C 0.18483 0.07353 0.01883 0.0
C633 C 0.19461 0.0923 0.03419 0.0
C634 C 0.21576 0.10031 0.00749 0.0
C635 C 0.25696 0.1456 0.01149 0.0
C636 C 0.26851 0.16272 0.02696 0.0
H637 H 0.48433 0.38804 0.97044 0.0
H638 H 0.43419 0.3197 0.98559 0.0
C639 C 0.23759 0.13631 0.03822 0.0
C640 C 0.28395 0.17843 -0.00044 0.0
H641 H 0.38336 0.21896 0.97839 0.0
C642 C 0.27109 0.21109 0.99567 0.0
C643 C 0.32442 0.18075 0.99321 0.0
C644 C 0.3393 0.14634 0.99732 0.0
C645 C 0.29854 0.24708 0.98581 0.0
C646 C 0.33942 0.24981 0.97948 0.0
C647 C 0.35183 0.21654 0.9832 0.0
C648 C 0.37085 0.28849 0.96959 0.0
C649 C 0.28475 0.28308 0.98277 0.0
C650 C 0.35207 0.29294 0.95546 0.0
C651 C 0.3805 0.33195 0.94683 0.0
C652 C 0.42836 0.36702 0.95214 0.0
C653 C 0.44766 0.36152 0.96604 0.0
C654 C 0.4191 0.32254 0.97469 0.0
H655 H 0.25931 0.28221 0.99116 0.0
H656 H 0.31753 0.31967 0.9833 0.0
H657 H 0.26654 0.27511 0.97107 0.0
H658 H 0.31516 0.26656 0.95121 0.0
H659 H 0.365 0.33469 0.936 0.0
H660 H 0.04475 0.22339 0.37269 0.0
H661 H 0.0593 0.27559 0.35184 0.0
H662 H 0.97401 0.1531 0.31992 0.0
H663 H 0.96058 0.1004 0.34073 0.0
H664 H 0.05283 0.22585 0.3068 0.0
H665 H 0.95145 0.29376 0.3366 0.0
H666 H 0.00231 0.30236 0.34833 0.0
H667 H 0.9525 0.24293 0.34264 0.0
C668 C 0.02966 0.20753 0.36119 0.0
C669 C 0.00095 0.15783 0.35837 0.0
C670 C 0.03777 0.2374 0.3493 0.0
C671 C 0.01644 0.2182 0.33445 0.0
C672 C 0.99036 0.16861 0.33135 0.0
H673 H 0.97297 0.39009 0.27087 0.0
H674 H 0.96103 0.32725 0.28726 0.0
C675 C 0.98282 0.13857 0.34323 0.0
C676 C 0.01926 0.24995 0.32247 0.0
H677 H 0.99559 0.33645 0.31552 0.0
C678 C 0.04004 0.24984 0.30862 0.0
C679 C 0.00146 0.28039 0.32473 0.0
C680 C 0.9752 0.27958 0.33881 0.0
C681 C 0.04496 0.28054 0.29717 0.0
C682 C 0.02978 0.31298 0.29985 0.0
C683 C 0.00773 0.31199 0.31352 0.0
C684 C 0.03674 0.34874 0.28881 0.0
C685 C 0.06573 0.27739 0.28226 0.0
C686 C 0.08327 0.3818 0.28419 0.0
C687 C 0.0901 0.41726 0.27455 0.0
C688 C 0.05065 0.42106 0.26956 0.0
C689 C 0.00408 0.38788 0.27424 0.0
C690 C 0.99722 0.35208 0.28372 0.0
H691 H 0.06032 0.24166 0.28001 0.0
H692 H 0.04885 0.28481 0.27235 0.0
H693 H 0.10544 0.30396 0.28301 0.0
H694 H 0.11456 0.38079 0.28827 0.0
H695 H 0.12637 0.44172 0.27103 0.0
loop_
_geom_bond_atom_site_label_1
_geom_bond_atom_site_label_2
_geom_bond_distance
_geom_bond_site_symmetry_2
_ccdc_geom_bond_type
Mg0 O1 2.028 . S
Mg0 O7 1.986 . S
Mg0 O9 2.114 . S
Mg0 O10 2.251 . S
Mg0 O13 2.010 . S
O1 Mg0 2.028 . S
O1 C4 1.250 . S
O2 Mg3 2.028 . S
O2 C4 1.248 . S
Mg3 O2 2.028 . S
Mg3 O8 2.032 . S
Mg3 O10 2.079 . S
C4 O1 1.250 . S
C4 O2 1.248 . S
C5 O6 1.264 . S
C5 O13 1.249 . S
O6 C5 1.264 . S
O7 Mg0 1.986 . S
O7 C11 1.246 . S
O8 Mg3 2.032 . S
O8 C11 1.259 . S
O9 Mg0 2.114 . S
O9 C12 1.252 . S
O10 Mg0 2.251 . S
O10 Mg3 2.079 . S
O10 C12 1.273 . S
C11 O7 1.246 . S
C11 O8 1.259 . S
C12 O9 1.252 . S
C12 O10 1.273 . S
O13 Mg0 2.010 . S
O13 C5 1.249 . S
Mg14 O15 2.028 1_655 S
Mg14 O21 1.986 1_655 S
Mg14 O23 2.114 1_545 S
Mg14 O24 2.251 . S
Mg14 O27 2.010 1_545 S
O15 Mg14 2.028 1_455 S
O15 C18 1.250 . S
O16 Mg17 2.028 . S
O16 C18 1.248 . S
Mg17 O16 2.028 . S
Mg17 O22 2.032 . S
Mg17 O24 2.079 1_455 S
C18 O15 1.250 . S
C18 O16 1.248 . S
C19 O20 1.264 . S
C19 O27 1.249 . S
O20 C19 1.264 . S
O21 Mg14 1.986 1_455 S
O21 C25 1.246 . S
O22 Mg17 2.032 . S
O22 C25 1.259 . S
O23 Mg14 2.114 1_565 S
O23 C26 1.252 1_565 S
O24 Mg14 2.251 . S
O24 Mg17 2.079 1_655 S
O24 C26 1.273 . S
C25 O21 1.246 . S
C25 O22 1.259 . S
C26 O23 1.252 1_545 S
C26 O24 1.273 . S
O27 Mg14 2.010 1_565 S
O27 C19 1.249 . S
Mg28 O29 2.028 . S
Mg28 O35 1.986 . S
Mg28 O37 2.114 . S
Mg28 O38 2.251 . S
Mg28 O41 2.010 . S
O29 Mg28 2.028 . S
O29 C32 1.250 . S
O30 Mg31 2.028 . S
O30 C32 1.248 . S
Mg31 O30 2.028 . S
Mg31 O36 2.032 . S
Mg31 O38 2.079 . S
C32 O29 1.250 . S
C32 O30 1.248 . S
C33 O34 1.264 . S
C33 O41 1.249 . S
O34 C33 1.264 . S
O35 Mg28 1.986 . S
O35 C39 1.246 . S
O36 Mg31 2.032 . S
O36 C39 1.259 . S
O37 Mg28 2.114 . S
O37 C40 1.252 . S
O38 Mg28 2.251 . S
O38 Mg31 2.079 . S
O38 C40 1.273 . S
C39 O35 1.246 . S
C39 O36 1.259 . S
C40 O37 1.252 . S
C40 O38 1.273 . S
O41 Mg28 2.010 . S
O41 C33 1.249 . S
H42 O68 0.856 . S
H43 O71 0.854 . S
H44 C79 0.930 1_655 S
H45 C80 0.930 1_655 S
H46 C82 0.930 . S
H47 C83 0.930 . S
H48 C85 0.931 . S
H49 C86 0.930 . S
H50 C88 0.930 . S
H51 C89 0.929 . S
H52 C91 0.930 . S
H53 C92 0.931 . S
H54 C94 0.930 . S
H55 C95 0.929 . S
H56 C97 0.931 1_655 S
H57 C98 0.930 1_655 S
H58 C100 0.930 . S
H59 C101 0.932 . S
H60 C103 0.930 . S
H61 C104 0.929 . S
H62 C106 0.931 . S
H63 C107 0.930 . S
H64 C109 0.929 1_655 S
H65 C110 0.931 1_655 S
H66 C112 0.930 . S
H67 C113 0.929 . S
O68 H42 0.856 . S
O68 C114 1.300 . S
O69 C114 1.209 . S
O70 C115 1.199 . S
O71 H43 0.854 . S
O71 C115 1.297 . S
C72 C73 1.404 . S
C72 C77 1.397 . S
C72 C78 1.492 . S
C73 C72 1.404 . S
C73 C74 1.396 . S
C73 C84 1.492 . S
C74 C73 1.396 . S
C74 C75 1.397 . S
C74 C90 1.509 . S
C75 C74 1.397 . S
C75 C76 1.412 . S
C75 C96 1.485 . S
C76 C75 1.412 . S
C76 C77 1.388 . S
C76 C102 1.490 . S
C77 C72 1.397 . S
C77 C76 1.388 . S
C77 C108 1.519 . S
C78 C72 1.492 . S
C78 C79 1.363 . S
C78 C83 1.390 . S
C79 H44 0.930 1_455 S
C79 C78 1.363 . S
C79 C80 1.372 . S
C80 H45 0.930 1_455 S
C80 C79 1.372 . S
C80 C81 1.383 . S
C81 C80 1.383 . S
C81 C82 1.395 . S
C82 H46 0.930 . S
C82 C81 1.395 . S
C82 C83 1.362 . S
C83 H47 0.930 . S
C83 C78 1.390 . S
C83 C82 1.362 . S
C84 C73 1.492 . S
C84 C85 1.377 . S
C84 C89 1.397 . S
C85 H48 0.931 . S
C85 C84 1.377 . S
C85 C86 1.376 . S
C86 H49 0.930 . S
C86 C85 1.376 . S
C86 C87 1.376 . S
C87 C86 1.376 . S
C87 C88 1.378 . S
C87 C114 1.486 . S
C88 H50 0.930 . S
C88 C87 1.378 . S
C88 C89 1.376 . S
C89 H51 0.929 . S
C89 C84 1.397 . S
C89 C88 1.376 . S
C90 C74 1.509 . S
C90 C91 1.391 . S
C90 C95 1.386 . S
C91 H52 0.930 . S
C91 C90 1.391 . S
C91 C92 1.375 . S
C92 H53 0.931 . S
C92 C91 1.375 . S
C92 C93 1.375 . S
C93 C92 1.375 . S
C93 C94 1.361 . S
C94 H54 0.930 . S
C94 C93 1.361 . S
C94 C95 1.399 . S
C95 H55 0.929 . S
C95 C90 1.386 . S
C95 C94 1.399 . S
C96 C75 1.485 . S
C96 C97 1.394 . S
C96 C101 1.360 . S
C97 H56 0.931 1_455 S
C97 C96 1.394 . S
C97 C98 1.372 . S
C98 H57 0.930 1_455 S
C98 C97 1.372 . S
C98 C99 1.397 . S
C99 C98 1.397 . S
C99 C100 1.390 . S
C99 C115 1.476 . S
C100 H58 0.930 . S
C100 C99 1.390 . S
C100 C101 1.366 . S
C101 H59 0.932 . S
C101 C96 1.360 . S
C101 C100 1.366 . S
C102 C76 1.490 . S
C102 C103 1.380 1_455 S
C102 C107 1.386 . S
C103 H60 0.930 . S
C103 C102 1.380 1_655 S
C103 C104 1.381 . S
C104 H61 0.929 . S
C104 C103 1.381 . S
C104 C105 1.371 1_655 S
C105 C104 1.371 1_455 S
C105 C106 1.380 . S
C106 H62 0.931 . S
C106 C105 1.380 . S
C106 C107 1.387 . S
C107 H63 0.930 . S
C107 C102 1.386 . S
C107 C106 1.387 . S
C108 C77 1.519 . S
C108 C109 1.377 . S
C108 C113 1.361 . S
C109 H64 0.929 1_455 S
C109 C108 1.377 . S
C109 C110 1.386 . S
C110 H65 0.931 1_455 S
C110 C109 1.386 . S
C110 C111 1.363 . S
C111 C110 1.363 . S
C111 C112 1.385 . S
C112 H66 0.930 . S
C112 C111 1.385 . S
C112 C113 1.396 . S
C113 H67 0.929 . S
C113 C108 1.361 . S
C113 C112 1.396 . S
C114 O68 1.300 . S
C114 O69 1.209 . S
C114 C87 1.486 . S
C115 O70 1.199 . S
C115 O71 1.297 . S
C115 C99 1.476 . S
H116 O142 0.856 . S
H117 O145 0.854 . S
H118 C153 0.930 . S
H119 C154 0.930 . S
H120 C156 0.930 . S
H121 C157 0.930 . S
H122 C159 0.931 . S
H123 C160 0.930 . S
H124 C162 0.930 . S
H125 C163 0.929 . S
H126 C165 0.930 . S
H127 C166 0.931 . S
H128 C168 0.930 . S
H129 C169 0.929 . S
H130 C171 0.931 . S
H131 C172 0.930 . S
H132 C174 0.930 . S
H133 C175 0.932 . S
H134 C177 0.930 . S
H135 C178 0.929 . S
H136 C180 0.931 . S
H137 C181 0.930 . S
H138 C183 0.929 . S
H139 C184 0.931 . S
H140 C186 0.930 . S
H141 C187 0.929 . S
O142 H116 0.856 . S
O142 C188 1.300 . S
O143 C188 1.209 . S
O144 C189 1.199 . S
O145 H117 0.854 . S
O145 C189 1.297 . S
C146 C147 1.404 . S
C146 C151 1.397 . S
C146 C152 1.492 . S
C147 C146 1.404 . S
C147 C148 1.396 . S
C147 C158 1.492 . S
C148 C147 1.396 . S
C148 C149 1.397 . S
C148 C164 1.509 . S
C149 C148 1.397 . S
C149 C150 1.412 . S
C149 C170 1.485 . S
C150 C149 1.412 . S
C150 C151 1.388 . S
C150 C176 1.490 . S
C151 C146 1.397 . S
C151 C150 1.388 . S
C151 C182 1.519 . S
C152 C146 1.492 . S
C152 C153 1.363 . S
C152 C157 1.390 . S
C153 H118 0.930 . S
C153 C152 1.363 . S
C153 C154 1.372 . S
C154 H119 0.930 . S
C154 C153 1.372 . S
C154 C155 1.383 . S
C155 C154 1.383 . S
C155 C156 1.395 . S
C156 H120 0.930 . S
C156 C155 1.395 . S
C156 C157 1.362 . S
C157 H121 0.930 . S
C157 C152 1.390 . S
C157 C156 1.362 . S
C158 C147 1.492 . S
C158 C159 1.377 . S
C158 C163 1.397 . S
C159 H122 0.931 . S
C159 C158 1.377 . S
C159 C160 1.376 . S
C160 H123 0.930 . S
C160 C159 1.376 . S
C160 C161 1.376 . S
C161 C160 1.376 . S
C161 C162 1.378 . S
C161 C188 1.486 . S
C162 H124 0.930 . S
C162 C161 1.378 . S
C162 C163 1.376 . S
C163 H125 0.929 . S
C163 C158 1.397 . S
C163 C162 1.376 . S
C164 C148 1.509 . S
C164 C165 1.391 . S
C164 C169 1.386 . S
C165 H126 0.930 . S
C165 C164 1.391 . S
C165 C166 1.375 . S
C166 H127 0.931 . S
C166 C165 1.375 . S
C166 C167 1.375 . S
C167 C166 1.375 . S
C167 C168 1.361 . S
C168 H128 0.930 . S
C168 C167 1.361 . S
C168 C169 1.399 . S
C169 H129 0.929 . S
C169 C164 1.386 . S
C169 C168 1.399 . S
C170 C149 1.485 . S
C170 C171 1.394 . S
C170 C175 1.360 . S
C171 H130 0.931 . S
C171 C170 1.394 . S
C171 C172 1.372 . S
C172 H131 0.930 . S
C172 C171 1.372 . S
C172 C173 1.397 . S
C173 C172 1.397 . S
C173 C174 1.390 . S
C173 C189 1.476 . S
C174 H132 0.930 . S
C174 C173 1.390 . S
C174 C175 1.366 . S
C175 H133 0.932 . S
C175 C170 1.360 . S
C175 C174 1.366 . S
C176 C150 1.490 . S
C176 C177 1.380 . S
C176 C181 1.386 . S
C177 H134 0.930 . S
C177 C176 1.380 . S
C177 C178 1.381 . S
C178 H135 0.929 . S
C178 C177 1.381 . S
C178 C179 1.371 . S
C179 C178 1.371 . S
C179 C180 1.380 . S
C180 H136 0.931 . S
C180 C179 1.380 . S
C180 C181 1.387 . S
C181 H137 0.930 . S
C181 C176 1.386 . S
C181 C180 1.387 . S
C182 C151 1.519 . S
C182 C183 1.377 . S
C182 C187 1.361 . S
C183 H138 0.929 . S
C183 C182 1.377 . S
C183 C184 1.386 . S
C184 H139 0.931 . S
C184 C183 1.386 . S
C184 C185 1.363 . S
C185 C184 1.363 . S
C185 C186 1.385 . S
C186 H140 0.930 . S
C186 C185 1.385 . S
C186 C187 1.396 . S
C187 H141 0.929 . S
C187 C182 1.361 . S
C187 C186 1.396 . S
C188 O142 1.300 . S
C188 O143 1.209 . S
C188 C161 1.486 . S
C189 O144 1.199 . S
C189 O145 1.297 . S
C189 C173 1.476 . S
H190 O216 0.856 1_554 S
H191 O219 0.854 . S
H192 C227 0.930 . S
H193 C228 0.930 . S
H194 C230 0.930 . S
H195 C231 0.930 . S
H196 C233 0.931 . S
H197 C234 0.930 . S
H198 C236 0.930 . S
H199 C237 0.929 . S
H200 C239 0.930 . S
H201 C240 0.931 . S
H202 C242 0.930 . S
H203 C243 0.929 . S
H204 C245 0.931 . S
H205 C246 0.930 . S
H206 C248 0.930 . S
H207 C249 0.932 . S
H208 C251 0.930 . S
H209 C252 0.929 . S
H210 C254 0.931 . S
H211 C255 0.930 . S
H212 C257 0.929 . S
H213 C258 0.931 . S
H214 C260 0.930 . S
H215 C261 0.929 . S
O216 H190 0.856 1_556 S
O216 C262 1.300 . S
O217 C262 1.209 . S
O218 C263 1.199 . S
O219 H191 0.854 . S
O219 C263 1.297 . S
C220 C221 1.404 . S
C220 C225 1.397 . S
C220 C226 1.492 . S
C221 C220 1.404 . S
C221 C222 1.396 . S
C221 C232 1.492 . S
C222 C221 1.396 . S
C222 C223 1.397 . S
C222 C238 1.509 . S
C223 C222 1.397 . S
C223 C224 1.412 . S
C223 C244 1.485 . S
C224 C223 1.412 . S
C224 C225 1.388 . S
C224 C250 1.490 . S
C225 C220 1.397 . S
C225 C224 1.388 . S
C225 C256 1.519 . S
C226 C220 1.492 . S
C226 C227 1.363 . S
C226 C231 1.390 . S
C227 H192 0.930 . S
C227 C226 1.363 . S
C227 C228 1.372 . S
C228 H193 0.930 . S
C228 C227 1.372 . S
C228 C229 1.383 . S
C229 C228 1.383 . S
C229 C230 1.395 . S
C230 H194 0.930 . S
C230 C229 1.395 . S
C230 C231 1.362 . S
C231 H195 0.930 . S
C231 C226 1.390 . S
C231 C230 1.362 . S
C232 C221 1.492 . S
C232 C233 1.377 . S
C232 C237 1.397 . S
C233 H196 0.931 . S
C233 C232 1.377 . S
C233 C234 1.376 . S
C234 H197 0.930 . S
C234 C233 1.376 . S
C234 C235 1.376 . S
C235 C234 1.376 . S
C235 C236 1.378 . S
C235 C262 1.486 . S
C236 H198 0.930 . S
C236 C235 1.378 . S
C236 C237 1.376 . S
C237 H199 0.929 . S
C237 C232 1.397 . S
C237 C236 1.376 . S
C238 C222 1.509 . S
C238 C239 1.391 . S
C238 C243 1.386 . S
C239 H200 0.930 . S
C239 C238 1.391 . S
C239 C240 1.375 . S
C240 H201 0.931 . S
C240 C239 1.375 . S
C240 C241 1.375 . S
C241 C240 1.375 . S
C241 C242 1.361 . S
C242 H202 0.930 . S
C242 C241 1.361 . S
C242 C243 1.399 . S
C243 H203 0.929 . S
C243 C238 1.386 . S
C243 C242 1.399 . S
C244 C223 1.485 . S
C244 C245 1.394 . S
C244 C249 1.360 . S
C245 H204 0.931 . S
C245 C244 1.394 . S
C245 C246 1.372 . S
C246 H205 0.930 . S
C246 C245 1.372 . S
C246 C247 1.397 . S
C247 C246 1.397 . S
C247 C248 1.390 . S
C247 C263 1.476 . S
C248 H206 0.930 . S
C248 C247 1.390 . S
C248 C249 1.366 . S
C249 H207 0.932 . S
C249 C244 1.360 . S
C249 C248 1.366 . S
C250 C224 1.490 . S
C250 C251 1.380 . S
C250 C255 1.386 . S
C251 H208 0.930 . S
C251 C250 1.380 . S
C251 C252 1.381 . S
C252 H209 0.929 . S
C252 C251 1.381 . S
C252 C253 1.371 . S
C253 C252 1.371 . S
C253 C254 1.380 . S
C254 H210 0.931 . S
C254 C253 1.380 . S
C254 C255 1.387 . S
C255 H211 0.930 . S
C255 C250 1.386 . S
C255 C254 1.387 . S
C256 C225 1.519 . S
C256 C257 1.377 . S
C256 C261 1.361 . S
C257 H212 0.929 . S
C257 C256 1.377 . S
C257 C258 1.386 . S
C258 H213 0.931 . S
C258 C257 1.386 . S
C258 C259 1.363 . S
C259 C258 1.363 . S
C259 C260 1.385 . S
C260 H214 0.930 . S
C260 C259 1.385 . S
C260 C261 1.396 . S
C261 H215 0.929 . S
C261 C256 1.361 . S
C261 C260 1.396 . S
C262 O216 1.300 . S
C262 O217 1.209 . S
C262 C235 1.486 . S
C263 O218 1.199 . S
C263 O219 1.297 . S
C263 C247 1.476 . S
H264 C272 0.929 . S
H265 C274 0.930 . S
H266 C276 0.930 1_655 S
H267 C279 0.919 1_655 S
H268 C282 0.930 . S
H269 C284 0.960 . S
H270 C284 0.960 . S
H271 C284 0.960 . S
C272 H264 0.929 . S
C272 C273 1.377 . S
C272 C274 1.384 . S
C273 C272 1.377 . S
C273 C279 1.390 . S
C274 H265 0.930 . S
C274 C272 1.384 . S
C274 C275 1.372 . S
C275 C274 1.372 . S
C275 C276 1.400 . S
C275 C280 1.490 . S
C276 H266 0.930 1_455 S
C276 C275 1.400 . S
C276 C279 1.386 . S
H277 C293 0.930 1_655 S
H278 C294 0.931 1_655 S
C279 H267 0.919 1_455 S
C279 C273 1.390 . S
C279 C276 1.386 . S
C280 C275 1.490 . S
C280 C282 1.395 . S
C280 C283 1.403 . S
H281 C287 0.930 . S
C282 H268 0.930 . S
C282 C280 1.395 . S
C282 C285 1.403 . S
C283 C280 1.403 . S
C283 C284 1.524 . S
C283 C287 1.400 . S
C284 H269 0.960 . S
C284 H270 0.960 . S
C284 H271 0.960 . S
C284 C283 1.524 . S
C285 C282 1.403 . S
C285 C286 1.392 . S
C285 C289 1.495 . S
C286 C285 1.392 . S
C286 C287 1.385 . S
C286 C288 1.478 . S
C287 H281 0.930 . S
C287 C283 1.400 . S
C287 C286 1.385 . S
C288 C286 1.478 . S
C288 C290 1.381 . S
C288 C294 1.383 . S
C289 C285 1.495 . S
C289 H295 0.959 . S
C289 H296 0.961 . S
C289 H297 0.960 . S
C290 C288 1.381 . S
C290 C291 1.394 . S
C290 H298 0.930 . S
C291 C290 1.394 . S
C291 C292 1.383 . S
C291 H299 0.929 . S
C292 C291 1.383 . S
C292 C293 1.377 . S
C293 H277 0.930 1_455 S
C293 C292 1.377 . S
C293 C294 1.379 . S
C294 H278 0.931 1_455 S
C294 C288 1.383 . S
C294 C293 1.379 . S
H295 C289 0.959 . S
H296 C289 0.961 . S
H297 C289 0.960 . S
H298 C290 0.930 . S
H299 C291 0.929 . S
H300 C308 0.929 . S
H301 C310 0.930 . S
H302 C312 0.930 . S
H303 C315 0.929 . S
H304 C318 0.930 . S
H305 C320 0.960 . S
H306 C320 0.960 1_565 S
H307 C320 0.960 . S
C308 H300 0.929 . S
C308 C309 1.377 1_565 S
C308 C310 1.384 . S
C309 C308 1.377 1_545 S
C309 C315 1.390 . S
C310 H301 0.930 . S
C310 C308 1.384 . S
C310 C311 1.372 1_565 S
C311 C310 1.372 1_545 S
C311 C312 1.400 . S
C311 C316 1.490 . S
C312 H302 0.930 . S
C312 C311 1.400 . S
C312 C315 1.386 . S
H313 C329 0.930 . S
H314 C330 0.931 . S
C315 H303 0.929 . S
C315 C309 1.390 . S
C315 C312 1.386 . S
C316 C311 1.490 . S
C316 C318 1.395 . S
C316 C319 1.403 . S
H317 C323 0.930 . S
C318 H304 0.930 . S
C318 C316 1.395 . S
C318 C321 1.403 . S
C319 C316 1.403 . S
C319 C320 1.524 . S
C319 C323 1.400 . S
C320 H305 0.960 . S
C320 H306 0.960 1_545 S
C320 H307 0.960 . S
C320 C319 1.524 . S
C321 C318 1.403 . S
C321 C322 1.392 . S
C321 C325 1.495 . S
C322 C321 1.392 . S
C322 C323 1.385 . S
C322 C324 1.478 . S
C323 H317 0.930 . S
C323 C319 1.400 . S
C323 C322 1.385 . S
C324 C322 1.478 . S
C324 C326 1.381 . S
C324 C330 1.383 . S
C325 C321 1.495 . S
C325 H331 0.959 . S
C325 H332 0.961 . S
C325 H333 0.960 . S
C326 C324 1.381 . S
C326 C327 1.394 . S
C326 H334 0.930 . S
C327 C326 1.394 . S
C327 C328 1.383 . S
C327 H335 0.929 . S
C328 C327 1.383 . S
C328 C329 1.377 . S
C329 H313 0.930 . S
C329 C328 1.377 . S
C329 C330 1.379 . S
C330 H314 0.931 . S
C330 C324 1.383 . S
C330 C329 1.379 . S
H331 C325 0.959 . S
H332 C325 0.961 . S
H333 C325 0.960 . S
H334 C326 0.930 . S
H335 C327 0.929 . S
H336 C344 0.929 . S
H337 C346 0.930 . S
H338 C348 0.930 . S
H339 C351 0.929 1_545 S
H340 C354 0.930 . S
H341 C356 0.960 . S
H342 C356 0.960 . S
H343 C356 0.960 . S
C344 H336 0.929 . S
C344 C345 1.377 . S
C344 C346 1.384 . S
C345 C344 1.377 . S
C345 C351 1.390 1_655 S
C346 H337 0.930 . S
C346 C344 1.384 . S
C346 C347 1.372 . S
C347 C346 1.372 . S
C347 C348 1.400 . S
C347 C352 1.490 . S
C348 H338 0.930 . S
C348 C347 1.400 . S
C348 C351 1.386 1_655 S
H349 C365 0.930 . S
H350 C366 0.931 . S
C351 H339 0.929 1_565 S
C351 C345 1.390 1_455 S
C351 C348 1.386 1_455 S
C352 C347 1.490 . S
C352 C354 1.395 . S
C352 C355 1.403 . S
H353 C359 0.930 . S
C354 H340 0.930 . S
C354 C352 1.395 . S
C354 C357 1.403 . S
C355 C352 1.403 . S
C355 C356 1.524 . S
C355 C359 1.400 . S
C356 H341 0.960 . S
C356 H342 0.960 . S
C356 H343 0.960 . S
C356 C355 1.524 . S
C357 C354 1.403 . S
C357 C358 1.392 . S
C357 C361 1.495 . S
C358 C357 1.392 . S
C358 C359 1.385 . S
C358 C360 1.478 . S
C359 H353 0.930 . S
C359 C355 1.400 . S
C359 C358 1.385 . S
C360 C358 1.478 . S
C360 C362 1.381 . S
C360 C366 1.383 . S
C361 C357 1.495 . S
C361 H367 0.959 . S
C361 H368 0.961 . S
C361 H369 0.960 . S
C362 C360 1.381 . S
C362 C363 1.394 . S
C362 H370 0.930 . S
C363 C362 1.394 . S
C363 C364 1.383 . S
C363 H371 0.929 . S
C364 C363 1.383 . S
C364 C365 1.377 . S
C365 H349 0.930 . S
C365 C364 1.377 . S
C365 C366 1.379 . S
C366 H350 0.931 . S
C366 C360 1.383 . S
C366 C365 1.379 . S
H367 C361 0.959 . S
H368 C361 0.961 . S
H369 C361 0.960 . S
H370 C362 0.930 . S
H371 C363 0.929 . S
H372 C380 0.929 . S
H373 C382 0.930 . S
H374 C384 0.930 . S
H375 C387 0.929 . S
H376 C390 0.930 . S
H377 C392 0.960 . S
H378 C392 0.960 . S
H379 C392 0.960 . S
C380 H372 0.929 . S
C380 C381 1.377 . S
C380 C382 1.384 1_545 S
C381 C380 1.377 . S
C381 C387 1.390 1_545 S
C382 H373 0.930 . S
C382 C380 1.384 1_565 S
C382 C383 1.372 . S
C383 C382 1.372 . S
C383 C384 1.400 . S
C383 C388 1.490 . S
C384 H374 0.930 . S
C384 C383 1.400 . S
C384 C387 1.386 . S
H385 C401 0.930 . S
H386 C402 0.931 . S
C387 H375 0.929 . S
C387 C381 1.390 1_565 S
C387 C384 1.386 . S
C388 C383 1.490 . S
C388 C390 1.395 . S
C388 C391 1.403 . S
H389 C395 0.930 . S
C390 H376 0.930 . S
C390 C388 1.395 . S
C390 C393 1.403 . S
C391 C388 1.403 . S
C391 C392 1.524 . S
C391 C395 1.400 . S
C392 H377 0.960 . S
C392 H378 0.960 . S
C392 H379 0.960 . S
C392 C391 1.524 . S
C393 C390 1.403 . S
C393 C394 1.392 . S
C393 C397 1.495 . S
C394 C393 1.392 . S
C394 C395 1.385 . S
C394 C396 1.478 . S
C395 H389 0.930 . S
C395 C391 1.400 . S
C395 C394 1.385 . S
C396 C394 1.478 . S
C396 C398 1.381 . S
C396 C402 1.383 . S
C397 C393 1.495 . S
C397 H403 0.959 . S
C397 H404 0.961 . S
C397 H405 0.960 . S
C398 C396 1.381 . S
C398 C399 1.394 . S
C398 H406 0.930 . S
C399 C398 1.394 . S
C399 C400 1.383 . S
C399 H407 0.929 . S
C400 C399 1.383 . S
C400 C401 1.377 . S
C401 H385 0.930 . S
C401 C400 1.377 . S
C401 C402 1.379 . S
C402 H386 0.931 . S
C402 C396 1.383 . S
C402 C401 1.379 . S
H403 C397 0.959 . S
H404 C397 0.961 . S
H405 C397 0.960 . S
H406 C398 0.930 . S
H407 C399 0.929 . S
H408 C416 0.929 1_565 S
H409 C418 0.930 1_565 S
H410 C420 0.930 . S
H411 C423 0.929 . S
H412 C426 0.930 . S
H413 C428 0.960 . S
H414 C428 0.960 . S
H415 C428 0.960 . S
C416 H408 0.929 1_545 S
C416 C417 1.377 . S
C416 C418 1.384 . S
C417 C416 1.377 . S
C417 C423 1.390 . S
C418 H409 0.930 1_545 S
C418 C416 1.384 . S
C418 C419 1.372 . S
C419 C418 1.372 . S
C419 C420 1.400 . S
C419 C424 1.490 . S
C420 H410 0.930 . S
C420 C419 1.400 . S
C420 C423 1.386 . S
H421 C437 0.930 . S
H422 C438 0.931 . S
C423 H411 0.929 . S
C423 C417 1.390 . S
C423 C420 1.386 . S
C424 C419 1.490 . S
C424 C426 1.395 . S
C424 C427 1.403 . S
H425 C431 0.930 . S
C426 H412 0.930 . S
C426 C424 1.395 . S
C426 C429 1.403 . S
C427 C424 1.403 . S
C427 C428 1.524 . S
C427 C431 1.400 . S
C428 H413 0.960 . S
C428 H414 0.960 . S
C428 H415 0.960 . S
C428 C427 1.524 . S
C429 C426 1.403 . S
C429 C430 1.392 . S
C429 C433 1.495 . S
C430 C429 1.392 . S
C430 C431 1.385 . S
C430 C432 1.478 . S
C431 H425 0.930 . S
C431 C427 1.400 . S
C431 C430 1.385 . S
C432 C430 1.478 . S
C432 C434 1.381 . S
C432 C438 1.383 . S
C433 C429 1.495 . S
C433 H439 0.959 . S
C433 H440 0.961 . S
C433 H441 0.960 . S
C434 C432 1.381 . S
C434 C435 1.394 . S
C434 H442 0.930 . S
C435 C434 1.394 . S
C435 C436 1.383 . S
C435 H443 0.929 . S
C436 C435 1.383 . S
C436 C437 1.377 . S
C437 H421 0.930 . S
C437 C436 1.377 . S
C437 C438 1.379 . S
C438 H422 0.931 . S
C438 C432 1.383 . S
C438 C437 1.379 . S
H439 C433 0.959 . S
H440 C433 0.961 . S
H441 C433 0.960 . S
H442 C434 0.930 . S
H443 C435 0.929 . S
H444 C452 0.929 . S
H445 C454 0.930 . S
H446 C456 0.930 . S
H447 C459 0.929 . S
H448 C462 0.930 . S
H449 C464 0.960 . S
H450 C464 0.960 . S
H451 C464 0.960 . S
C452 H444 0.929 . S
C452 C453 1.377 . S
C452 C454 1.384 . S
C453 C452 1.377 . S
C453 C459 1.390 . S
C454 H445 0.930 . S
C454 C452 1.384 . S
C454 C455 1.372 . S
C455 C454 1.372 . S
C455 C456 1.400 . S
C455 C460 1.490 . S
C456 H446 0.930 . S
C456 C455 1.400 . S
C456 C459 1.386 . S
H457 C473 0.930 . S
H458 C474 0.931 . S
C459 H447 0.929 . S
C459 C453 1.390 . S
C459 C456 1.386 . S
C460 C455 1.490 . S
C460 C462 1.395 . S
C460 C463 1.403 . S
H461 C467 0.930 . S
C462 H448 0.930 . S
C462 C460 1.395 . S
C462 C465 1.403 . S
C463 C460 1.403 . S
C463 C464 1.524 . S
C463 C467 1.400 . S
C464 H449 0.960 . S
C464 H450 0.960 . S
C464 H451 0.960 . S
C464 C463 1.524 . S
C465 C462 1.403 . S
C465 C466 1.392 . S
C465 C469 1.495 . S
C466 C465 1.392 . S
C466 C467 1.385 . S
C466 C468 1.478 . S
C467 H461 0.930 . S
C467 C463 1.400 . S
C467 C466 1.385 . S
C468 C466 1.478 . S
C468 C470 1.381 . S
C468 C474 1.383 . S
C469 C465 1.495 . S
C469 H475 0.959 . S
C469 H476 0.961 . S
C469 H477 0.960 . S
C470 C468 1.381 . S
C470 C471 1.394 . S
C470 H478 0.930 . S
C471 C470 1.394 . S
C471 C472 1.383 . S
C471 H479 0.929 . S
C472 C471 1.383 . S
C472 C473 1.377 . S
C473 H457 0.930 . S
C473 C472 1.377 . S
C473 C474 1.379 . S
C474 H458 0.931 . S
C474 C468 1.383 . S
C474 C473 1.379 . S
H475 C469 0.959 . S
H476 C469 0.961 . S
H477 C469 0.960 . S
H478 C470 0.930 . S
H479 C471 0.929 . S
H480 C488 0.929 . S
H481 C490 0.930 . S
H482 C492 0.930 . S
H483 C495 0.929 . S
H484 C498 0.930 . S
H485 C500 0.960 . S
H486 C500 0.960 . S
H487 C500 0.960 . S
C488 H480 0.929 . S
C488 C489 1.377 1_455 S
C488 C490 1.384 1_455 S
C489 C488 1.377 1_655 S
C489 C495 1.390 . S
C490 H481 0.930 . S
C490 C488 1.384 1_655 S
C490 C491 1.372 . S
C491 C490 1.372 . S
C491 C492 1.400 . S
C491 C496 1.490 . S
C492 H482 0.930 . S
C492 C491 1.400 . S
C492 C495 1.386 . S
H493 C509 0.930 . S
H494 C510 0.931 . S
C495 H483 0.929 . S
C495 C489 1.390 . S
C495 C492 1.386 . S
C496 C491 1.490 . S
C496 C498 1.395 . S
C496 C499 1.403 . S
H497 C503 0.930 . S
C498 H484 0.930 . S
C498 C496 1.395 . S
C498 C501 1.403 . S
C499 C496 1.403 . S
C499 C500 1.524 . S
C499 C503 1.400 . S
C500 H485 0.960 . S
C500 H486 0.960 . S
C500 H487 0.960 . S
C500 C499 1.524 . S
C501 C498 1.403 . S
C501 C502 1.392 . S
C501 C505 1.495 . S
C502 C501 1.392 . S
C502 C503 1.385 . S
C502 C504 1.478 . S
C503 H497 0.930 . S
C503 C499 1.400 . S
C503 C502 1.385 . S
C504 C502 1.478 . S
C504 C506 1.381 . S
C504 C510 1.383 . S
C505 C501 1.495 . S
C505 H511 0.959 . S
C505 H512 0.961 . S
C505 H513 0.960 . S
C506 C504 1.381 . S
C506 C507 1.394 . S
C506 H514 0.930 . S
C507 C506 1.394 . S
C507 C508 1.383 . S
C507 H515 0.929 . S
C508 C507 1.383 . S
C508 C509 1.377 . S
C509 H493 0.930 . S
C509 C508 1.377 . S
C509 C510 1.379 . S
C510 H494 0.931 . S
C510 C504 1.383 . S
C510 C509 1.379 . S
H511 C505 0.959 . S
H512 C505 0.961 . S
H513 C505 0.960 . S
H514 C506 0.930 . S
H515 C507 0.929 . S
H516 C524 0.929 . S
H517 C526 0.942 1_445 S
H518 C528 0.930 . S
H519 C531 0.929 . S
H520 C534 0.930 . S
H521 C536 0.960 1_556 S
H522 C536 0.972 . S
H523 C536 0.960 . S
C524 H516 0.929 . S
C524 C525 1.377 . S
C524 C526 1.384 1_445 S
C525 C524 1.377 . S
C525 C531 1.390 1_445 S
C526 H517 0.942 1_665 S
C526 C524 1.384 1_665 S
C526 C527 1.372 . S
C527 C526 1.372 . S
C527 C528 1.400 . S
C527 C532 1.490 1_554 S
C528 H518 0.930 . S
C528 C527 1.400 . S
C528 C531 1.386 . S
H529 C545 0.930 . S
H530 C546 0.931 . S
C531 H519 0.929 . S
C531 C525 1.390 1_665 S
C531 C528 1.386 . S
C532 C527 1.490 1_556 S
C532 C534 1.395 . S
C532 C535 1.403 . S
H533 C539 0.930 . S
C534 H520 0.930 . S
C534 C532 1.395 . S
C534 C537 1.403 . S
C535 C532 1.403 . S
C535 C536 1.524 1_556 S
C535 C539 1.400 . S
C536 H521 0.960 1_554 S
C536 H522 0.972 . S
C536 H523 0.960 . S
C536 C535 1.524 1_554 S
C537 C534 1.403 . S
C537 C538 1.392 . S
C537 C541 1.495 . S
C538 C537 1.392 . S
C538 C539 1.385 . S
C538 C540 1.478 . S
C539 H533 0.930 . S
C539 C535 1.400 . S
C539 C538 1.385 . S
C540 C538 1.478 . S
C540 C542 1.381 . S
C540 C546 1.383 . S
C541 C537 1.495 . S
C541 H547 0.959 . S
C541 H548 0.961 . S
C541 H549 0.960 . S
C542 C540 1.381 . S
C542 C543 1.394 . S
C542 H550 0.930 . S
C543 C542 1.394 . S
C543 C544 1.383 . S
C543 H551 0.929 . S
C544 C543 1.383 . S
C544 C545 1.377 . S
C545 H529 0.930 . S
C545 C544 1.377 . S
C545 C546 1.379 . S
C546 H530 0.931 . S
C546 C540 1.383 . S
C546 C545 1.379 . S
H547 C541 0.959 . S
H548 C541 0.961 . S
H549 C541 0.960 . S
H550 C542 0.930 . S
H551 C543 0.929 . S
H552 C560 0.929 . S
H553 C562 0.930 . S
H554 C564 0.930 . S
H555 C567 0.929 . S
H556 C570 0.930 . S
H557 C572 0.960 . S
H558 C572 0.960 . S
H559 C572 0.960 . S
C560 H552 0.929 . S
C560 C561 1.377 1_455 S
C560 C562 1.384 . S
C561 C560 1.377 1_655 S
C561 C567 1.390 . S
C562 H553 0.930 . S
C562 C560 1.384 . S
C562 C563 1.372 1_455 S
C563 C562 1.372 1_655 S
C563 C564 1.400 . S
C563 C568 1.490 . S
C564 H554 0.930 . S
C564 C563 1.400 . S
C564 C567 1.386 . S
H565 C581 0.930 . S
H566 C582 0.931 . S
C567 H555 0.929 . S
C567 C561 1.390 . S
C567 C564 1.386 . S
C568 C563 1.490 . S
C568 C570 1.395 1_655 S
C568 C571 1.403 . S
H569 C575 0.930 . S
C570 H556 0.930 . S
C570 C568 1.395 1_455 S
C570 C573 1.403 . S
C571 C568 1.403 . S
C571 C572 1.524 . S
C571 C575 1.400 . S
C572 H557 0.960 . S
C572 H558 0.960 . S
C572 H559 0.960 . S
C572 C571 1.524 . S
C573 C570 1.403 . S
C573 C574 1.392 . S
C573 C577 1.495 . S
C574 C573 1.392 . S
C574 C575 1.385 1_455 S
C574 C576 1.478 . S
C575 H569 0.930 . S
C575 C571 1.400 . S
C575 C574 1.385 1_655 S
C576 C574 1.478 . S
C576 C578 1.381 . S
C576 C582 1.383 1_455 S
C577 C573 1.495 . S
C577 H583 0.959 . S
C577 H584 0.961 . S
C577 H585 0.960 . S
C578 C576 1.381 . S
C578 C579 1.394 . S
C578 H586 0.930 . S
C579 C578 1.394 . S
C579 C580 1.383 . S
C579 H587 0.929 . S
C580 C579 1.383 . S
C580 C581 1.377 1_455 S
C581 H565 0.930 . S
C581 C580 1.377 1_655 S
C581 C582 1.379 . S
C582 H566 0.931 . S
C582 C576 1.383 1_655 S
C582 C581 1.379 . S
H583 C577 0.959 . S
H584 C577 0.961 . S
H585 C577 0.960 . S
H586 C578 0.930 . S
H587 C579 0.929 . S
H588 C596 0.929 . S
H589 C598 0.930 . S
H590 C600 0.930 . S
H591 C603 0.929 . S
H592 C606 0.930 . S
H593 C608 0.960 . S
H594 C608 0.960 . S
H595 C608 0.960 . S
C596 H588 0.929 . S
C596 C597 1.377 . S
C596 C598 1.384 . S
C597 C596 1.377 . S
C597 C603 1.390 . S
C598 H589 0.930 . S
C598 C596 1.384 . S
C598 C599 1.372 . S
C599 C598 1.372 . S
C599 C600 1.400 . S
C599 C604 1.490 . S
C600 H590 0.930 . S
C600 C599 1.400 . S
C600 C603 1.386 . S
H601 C617 0.930 . S
H602 C618 0.931 . S
C603 H591 0.929 . S
C603 C597 1.390 . S
C603 C600 1.386 . S
C604 C599 1.490 . S
C604 C606 1.395 . S
C604 C607 1.403 . S
H605 C611 0.930 . S
C606 H592 0.930 . S
C606 C604 1.395 . S
C606 C609 1.403 . S
C607 C604 1.403 . S
C607 C608 1.524 . S
C607 C611 1.400 . S
C608 H593 0.960 . S
C608 H594 0.960 . S
C608 H595 0.960 . S
C608 C607 1.524 . S
C609 C606 1.403 . S
C609 C610 1.392 . S
C609 C613 1.495 . S
C610 C609 1.392 . S
C610 C611 1.385 . S
C610 C612 1.478 . S
C611 H605 0.930 . S
C611 C607 1.400 . S
C611 C610 1.385 . S
C612 C610 1.478 . S
C612 C614 1.381 . S
C612 C618 1.383 . S
C613 C609 1.495 . S
C613 H619 0.959 . S
C613 H620 0.961 . S
C613 H621 0.960 . S
C614 C612 1.381 . S
C614 C615 1.394 . S
C614 H622 0.930 . S
C615 C614 1.394 . S
C615 C616 1.383 . S
C615 H623 0.929 . S
C616 C615 1.383 . S
C616 C617 1.377 . S
C617 H601 0.930 . S
C617 C616 1.377 . S
C617 C618 1.379 . S
C618 H602 0.931 . S
C618 C612 1.383 . S
C618 C617 1.379 . S
H619 C613 0.959 . S
H620 C613 0.961 . S
H621 C613 0.960 . S
H622 C614 0.930 . S
H623 C615 0.929 . S
H624 C632 0.929 . S
H625 C634 0.930 . S
H626 C636 0.930 . S
H627 C639 0.929 . S
H628 C642 0.930 . S
H629 C644 0.938 1_556 S
H630 C644 0.953 1_556 S
H631 C644 0.990 . S
C632 H624 0.929 . S
C632 C633 1.377 . S
C632 C634 1.384 . S
C633 C632 1.377 . S
C633 C639 1.390 . S
C634 H625 0.930 . S
C634 C632 1.384 . S
C634 C635 1.372 . S
C635 C634 1.372 . S
C635 C636 1.400 . S
C635 C640 1.490 . S
C636 H626 0.930 . S
C636 C635 1.400 . S
C636 C639 1.386 . S
H637 C653 0.930 . S
H638 C654 0.931 . S
C639 H627 0.929 . S
C639 C633 1.390 . S
C639 C636 1.386 . S
C640 C635 1.490 . S
C640 C642 1.395 . S
C640 C643 1.451 . S
H641 C647 0.930 . S
C642 H628 0.930 . S
C642 C640 1.395 . S
C642 C645 1.401 1_554 S
C643 C640 1.451 . S
C643 C644 1.525 . S
C643 C647 1.351 1_554 S
C644 H629 0.938 1_554 S
C644 H630 0.953 1_554 S
C644 H631 0.990 . S
C644 C643 1.525 . S
C645 C642 1.401 1_556 S
C645 C646 1.395 . S
C645 C649 1.495 . S
C646 C645 1.395 . S
C646 C647 1.385 . S
C646 C648 1.478 . S
C647 H641 0.930 . S
C647 C643 1.351 1_556 S
C647 C646 1.385 . S
C648 C646 1.478 . S
C648 C650 1.381 . S
C648 C654 1.383 . S
C649 C645 1.495 . S
C649 H655 0.951 1_556 S
C649 H656 0.959 1_556 S
C649 H657 0.971 . S
C650 C648 1.381 . S
C650 C651 1.394 . S
C650 H658 0.930 . S
C651 C650 1.394 . S
C651 C652 1.383 . S
C651 H659 0.929 . S
C652 C651 1.383 . S
C652 C653 1.377 . S
C653 H637 0.930 . S
C653 C652 1.377 . S
C653 C654 1.379 . S
C654 H638 0.931 . S
C654 C648 1.383 . S
C654 C653 1.379 . S
H655 C649 0.951 1_554 S
H656 C649 0.959 1_554 S
H657 C649 0.971 . S
H658 C650 0.930 . S
H659 C651 0.929 . S
H660 C668 0.929 . S
H661 C670 0.930 . S
H662 C672 0.930 . S
H663 C675 0.929 . S
H664 C678 0.930 . S
H665 C680 0.960 . S
H666 C680 0.960 1_455 S
H667 C680 0.960 . S
C668 H660 0.929 . S
C668 C669 1.377 . S
C668 C670 1.384 . S
C669 C668 1.377 . S
C669 C675 1.390 1_455 S
C670 H661 0.930 . S
C670 C668 1.384 . S
C670 C671 1.372 . S
C671 C670 1.372 . S
C671 C672 1.400 1_455 S
C671 C676 1.490 . S
C672 H662 0.930 . S
C672 C671 1.400 1_655 S
C672 C675 1.386 . S
H673 C689 0.930 1_655 S
H674 C690 0.931 1_655 S
C675 H663 0.929 . S
C675 C669 1.390 1_655 S
C675 C672 1.386 . S
C676 C671 1.490 . S
C676 C678 1.395 . S
C676 C679 1.403 . S
H677 C683 0.930 . S
C678 H664 0.930 . S
C678 C676 1.395 . S
C678 C681 1.403 . S
C679 C676 1.403 . S
C679 C680 1.524 1_455 S
C679 C683 1.400 . S
C680 H665 0.960 . S
C680 H666 0.960 1_655 S
C680 H667 0.960 . S
C680 C679 1.524 1_655 S
C681 C678 1.403 . S
C681 C682 1.392 . S
C681 C685 1.495 . S
C682 C681 1.392 . S
C682 C683 1.385 . S
C682 C684 1.478 . S
C683 H677 0.930 . S
C683 C679 1.400 . S
C683 C682 1.385 . S
C684 C682 1.478 . S
C684 C686 1.381 . S
C684 C690 1.383 . S
C685 C681 1.495 . S
C685 H691 0.959 . S
C685 H692 0.961 . S
C685 H693 0.960 . S
C686 C684 1.381 . S
C686 C687 1.394 . S
C686 H694 0.930 . S
C687 C686 1.394 . S
C687 C688 1.383 . S
C687 H695 0.929 . S
C688 C687 1.383 . S
C688 C689 1.377 . S
C689 H673 0.930 1_455 S
C689 C688 1.377 . S
C689 C690 1.379 . S
C690 H674 0.931 1_455 S
C690 C684 1.383 . S
C690 C689 1.379 . S
H691 C685 0.959 . S
H692 C685 0.961 . S
H693 C685 0.960 . S
H694 C686 0.930 . S
H695 C687 0.929 . S
C292 C81 1.179 . S
C273 C11 1.271 . S
C309 C26 1.365 . S
C328 C155 1.352 . S
C345 C40 2.066 1_665 S
C364 C259 2.075 . S
C381 C5 0.675 . S
C400 C93 0.544 . S
C436 C167 0.750 . S
C417 C18 0.746 . S
C453 C32 1.317 . S
C472 C253 1.288 . S
C508 C185 1.990 . S
C489 C39 1.992 1_655 S
C525 C4 1.300 . S
C544 C229 1.274 . S
C580 C105 1.275 . S
C561 C19 1.172 . S
C616 C179 1.148 . S
C597 C33 1.039 . S
C652 C241 0.602 . S
C633 C12 0.606 . S
C669 C25 2.150 . S
C688 C111 2.164 . S
