# Generated by pormake.
# Topology ctn, (3,4)-cn, num edge types: 1
# Building blocks:
#     Node 0, Type 0, BuildingBlock: INOVEN_clean_linker_0, # of connection points: 3
#     Node 1, Type 0, BuildingBlock: INOVEN_clean_linker_0, # of connection points: 3
#     Node 2, Type 0, BuildingBlock: INOVEN_clean_linker_0, # of connection points: 3
#     Node 3, Type 0, BuildingBlock: INOVEN_clean_linker_0, # of connection points: 3
#     Node 4, Type 0, BuildingBlock: INOVEN_clean_linker_0, # of connection points: 3
#     Node 5, Type 0, BuildingBlock: INOVEN_clean_linker_0, # of connection points: 3
#     Node 6, Type 0, BuildingBlock: INOVEN_clean_linker_0, # of connection points: 3
#     Node 7, Type 0, BuildingBlock: INOVEN_clean_linker_0, # of connection points: 3
#     Node 8, Type 0, BuildingBlock: INOVEN_clean_linker_0, # of connection points: 3
#     Node 9, Type 0, BuildingBlock: INOVEN_clean_linker_0, # of connection points: 3
#     Node 10, Type 0, BuildingBlock: INOVEN_clean_linker_0, # of connection points: 3
#     Node 11, Type 0, BuildingBlock: INOVEN_clean_linker_0, # of connection points: 3
#     Node 12, Type 0, BuildingBlock: INOVEN_clean_linker_0, # of connection points: 3
#     Node 13, Type 0, BuildingBlock: INOVEN_clean_linker_0, # of connection points: 3
#     Node 14, Type 0, BuildingBlock: INOVEN_clean_linker_0, # of connection points: 3
#     Node 15, Type 0, BuildingBlock: INOVEN_clean_linker_0, # of connection points: 3
#     Node 16, Type 1, BuildingBlock: QUQFOY_clean_sbu_1, # of connection points: 4
#     Node 17, Type 1, BuildingBlock: QUQFOY_clean_sbu_1, # of connection points: 4
#     Node 18, Type 1, BuildingBlock: QUQFOY_clean_sbu_1, # of connection points: 4
#     Node 19, Type 1, BuildingBlock: QUQFOY_clean_sbu_1, # of connection points: 4
#     Node 20, Type 1, BuildingBlock: QUQFOY_clean_sbu_1, # of connection points: 4
#     Node 21, Type 1, BuildingBlock: QUQFOY_clean_sbu_1, # of connection points: 4
#     Node 22, Type 1, BuildingBlock: QUQFOY_clean_sbu_1, # of connection points: 4
#     Node 23, Type 1, BuildingBlock: QUQFOY_clean_sbu_1, # of connection points: 4
#     Node 24, Type 1, BuildingBlock: QUQFOY_clean_sbu_1, # of connection points: 4
#     Node 25, Type 1, BuildingBlock: QUQFOY_clean_sbu_1, # of connection points: 4
#     Node 26, Type 1, BuildingBlock: QUQFOY_clean_sbu_1, # of connection points: 4
#     Node 27, Type 1, BuildingBlock: QUQFOY_clean_sbu_1, # of connection points: 4
#     Edge 28, Type (0, 1), None
#     Edge 29, Type (0, 1), None
#     Edge 30, Type (0, 1), None
#     Edge 31, Type (0, 1), None
#     Edge 32, Type (0, 1), None
#     Edge 33, Type (0, 1), None
#     Edge 34, Type (0, 1), None
#     Edge 35, Type (0, 1), None
#     Edge 36, Type (0, 1), None
#     Edge 37, Type (0, 1), None
#     Edge 38, Type (0, 1), None
#     Edge 39, Type (0, 1), None
#     Edge 40, Type (0, 1), None
#     Edge 41, Type (0, 1), None
#     Edge 42, Type (0, 1), None
#     Edge 43, Type (0, 1), None
#     Edge 44, Type (0, 1), None
#     Edge 45, Type (0, 1), None
#     Edge 46, Type (0, 1), None
#     Edge 47, Type (0, 1), None
#     Edge 48, Type (0, 1), None
#     Edge 49, Type (0, 1), None
#     Edge 50, Type (0, 1), None
#     Edge 51, Type (0, 1), None
#     Edge 52, Type (0, 1), None
#     Edge 53, Type (0, 1), None
#     Edge 54, Type (0, 1), None
#     Edge 55, Type (0, 1), None
#     Edge 56, Type (0, 1), None
#     Edge 57, Type (0, 1), None
#     Edge 58, Type (0, 1), None
#     Edge 59, Type (0, 1), None
#     Edge 60, Type (0, 1), None
#     Edge 61, Type (0, 1), None
#     Edge 62, Type (0, 1), None
#     Edge 63, Type (0, 1), None
#     Edge 64, Type (0, 1), None
#     Edge 65, Type (0, 1), None
#     Edge 66, Type (0, 1), None
#     Edge 67, Type (0, 1), None
#     Edge 68, Type (0, 1), None
#     Edge 69, Type (0, 1), None
#     Edge 70, Type (0, 1), None
#     Edge 71, Type (0, 1), None
#     Edge 72, Type (0, 1), None
#     Edge 73, Type (0, 1), None
#     Edge 74, Type (0, 1), None
#     Edge 75, Type (0, 1), None
# Relax obj value: 0.077
# Max RMSD: 0.183
# Mean RMSD: 0.105
data_MOF--net-ctn--node1-QUQFOY_clean_sbu_1--node2-INOVEN_clean_linker_0--edge1-none
_symmetry_space_group_name_H-M    P1
_symmetry_Int_Tables_number       1
_symmetry_cell_setting            triclinic
loop_
_symmetry_equiv_pos_as_xyz
'x, y, z'
_cell_length_a     24.042696
_cell_length_b     23.579034
_cell_length_c     24.932691
_cell_angle_alpha  102.6494
_cell_angle_beta   88.50654
_cell_angle_gamma 98.677113
loop_
_atom_site_label
_atom_site_type_symbol
_atom_site_fract_x
_atom_site_fract_y
_atom_site_fract_z
_atom_type_partial_charge
H0 H -0.00622 0.06684 0.11061 0.0
H1 H 0.12301 0.96479 0.12972 0.0
H2 H 0.11283 0.02923 -0.01851 0.0
N3 N 0.02146 0.08417 0.01415 0.0
N4 N 0.03952 0.09976 0.97151 0.0
C5 C 0.03032 0.04664 0.09508 0.0
C6 C 0.05621 0.01571 0.12672 0.0
C7 C 0.05012 0.05149 0.04298 0.0
C8 C 0.09719 0.02508 0.0218 0.0
C9 C 0.12406 -0.00639 0.05303 0.0
C10 C 0.10303 -0.01092 0.10546 0.0
H11 H 0.22714 0.70449 0.19167 0.0
H12 H 0.31047 0.64111 0.31277 0.0
H13 H 0.39346 0.78592 0.24742 0.0
N14 N 0.30883 0.78598 0.17763 0.0
N15 N 0.35267 0.81273 0.16181 0.0
C16 C 0.26302 0.7072 0.21804 0.0
C17 C 0.2631 0.66728 0.25217 0.0
C18 C 0.30986 0.74956 0.21584 0.0
C19 C 0.35723 0.75294 0.24913 0.0
C20 C 0.3575 0.71424 0.28492 0.0
C21 C 0.31023 0.67158 0.28598 0.0
H22 H 0.93597 0.3946 0.95011 0.0
H23 H 0.06178 0.3892 0.06773 0.0
H24 H 0.9861 0.54631 0.0777 0.0
N25 N 0.91935 0.50207 -0.01172 0.0
N26 N 0.90712 0.55096 0.01128 0.0
C27 C 0.96115 0.41556 -0.01343 0.0
C28 C -0.00156 0.38506 0.00665 0.0
C29 C 0.9568 0.47332 0.01172 0.0
C30 C 0.9899 0.50129 0.05816 0.0
C31 C 0.02781 0.47133 0.07921 0.0
C32 C 0.03221 0.41277 0.05288 0.0
H33 H 0.77418 0.88466 0.30846 0.0
H34 H 0.86591 0.84043 0.1577 0.0
H35 H 0.70465 0.74151 0.18005 0.0
N36 N 0.68641 0.80541 0.28002 0.0
N37 N 0.65556 0.75764 0.27822 0.0
C38 C 0.77872 0.85651 0.26839 0.0
C39 C 0.82633 0.86722 0.23645 0.0
C40 C 0.73594 0.81038 0.24893 0.0
C41 C 0.73958 0.77516 0.19641 0.0
C42 C 0.78625 0.78607 0.16338 0.0
C43 C 0.83057 0.83102 0.1839 0.0
H44 H 0.97321 0.97842 0.46845 0.0
H45 H 0.1119 0.07506 0.39897 0.0
H46 H 0.13397 0.02355 0.55163 0.0
N47 N 0.0277 0.95991 0.55088 0.0
N48 N 0.05584 0.94573 0.58597 0.0
C49 C 0.01643 0.00022 0.47117 0.0
C50 C 0.03845 0.02791 0.42918 0.0
C51 C 0.05073 -0.00357 0.5146 0.0
C52 C 0.10712 0.0248 0.51781 0.0
C53 C 0.12896 0.05374 0.47609 0.0
C54 C 0.09487 0.05355 0.4314 0.0
H55 H 0.26378 0.62951 0.76838 0.0
H56 H 0.35472 0.72297 0.9159 0.0
H57 H 0.2206 0.79475 0.85579 0.0
N58 N 0.19047 0.70571 0.77261 0.0
N59 N 0.17128 0.74978 0.7652 0.0
C60 C 0.27191 0.66795 0.80169 0.0
C61 C 0.31492 0.67219 0.8403 0.0
C62 C 0.23815 0.71252 0.80712 0.0
C63 C 0.24759 0.76114 0.85122 0.0
C64 C 0.28885 0.76536 0.89101 0.0
C65 C 0.32284 0.72068 0.88522 0.0
H66 H 0.93122 0.51192 0.42494 0.0
H67 H 0.90576 0.60274 0.59081 0.0
H68 H 0.03379 0.67704 0.4919 0.0
N69 N 0.02258 0.58688 0.40758 0.0
N70 N 0.00766 0.55563 0.36179 0.0
C71 C 0.94085 0.55052 0.45788 0.0
C72 C 0.91237 0.55338 0.50789 0.0
C73 C 0.98536 0.5948 0.45239 0.0
C74 C -0.00124 0.64339 0.49578 0.0
C75 C 0.9694 0.64677 0.54521 0.0
C76 C 0.92703 0.60117 0.5517 0.0
H77 H 0.75478 0.80971 0.89516 0.0
H78 H 0.89983 0.7295 0.83356 0.0
H79 H 0.84816 0.86466 0.76224 0.0
N80 N 0.75927 0.88043 0.82738 0.0
N81 N 0.74175 0.88875 0.78357 0.0
C82 C 0.79 0.80583 0.86722 0.0
C83 C 0.82589 0.76462 0.86873 0.0
C84 C 0.79705 0.8402 0.82794 0.0
C85 C 0.84252 0.83653 0.79159 0.0
C86 C 0.88109 0.79792 0.79402 0.0
C87 C 0.87163 0.76091 0.8321 0.0
H88 H 0.25477 0.30971 0.39516 0.0
H89 H 0.39983 0.2295 0.33356 0.0
H90 H 0.34816 0.36466 0.26224 0.0
N91 N 0.25927 0.38043 0.32738 0.0
N92 N 0.24175 0.38875 0.28357 0.0
C93 C 0.29 0.30583 0.36722 0.0
C94 C 0.32589 0.26462 0.36873 0.0
C95 C 0.29705 0.3402 0.32794 0.0
C96 C 0.34251 0.33653 0.29159 0.0
C97 C 0.38109 0.29792 0.29402 0.0
C98 C 0.37163 0.26091 0.3321 0.0
H99 H 0.43597 0.8946 0.45011 0.0
H100 H 0.56178 0.8892 0.56773 0.0
H101 H 0.4861 0.04631 0.5777 0.0
N102 N 0.41935 0.00207 0.48828 0.0
N103 N 0.40712 0.05096 0.51128 0.0
C104 C 0.46115 0.91556 0.48657 0.0
C105 C 0.49844 0.88506 0.50665 0.0
C106 C 0.4568 0.97332 0.51172 0.0
C107 C 0.4899 0.00129 0.55816 0.0
C108 C 0.52781 0.97133 0.57921 0.0
C109 C 0.53221 0.91277 0.55288 0.0
H110 H 0.27418 0.38466 0.80846 0.0
H111 H 0.36591 0.34043 0.6577 0.0
H112 H 0.20465 0.24151 0.68005 0.0
N113 N 0.18641 0.30541 0.78002 0.0
N114 N 0.15556 0.25764 0.77822 0.0
C115 C 0.27872 0.35651 0.76839 0.0
C116 C 0.32633 0.36722 0.73645 0.0
C117 C 0.23594 0.31038 0.74893 0.0
C118 C 0.23958 0.27516 0.69641 0.0
C119 C 0.28625 0.28607 0.66338 0.0
C120 C 0.33057 0.33102 0.6839 0.0
H121 H 0.72714 0.20449 0.69167 0.0
H122 H 0.81047 0.14111 0.81277 0.0
H123 H 0.89346 0.28592 0.74742 0.0
N124 N 0.80883 0.28598 0.67763 0.0
N125 N 0.85267 0.31273 0.66181 0.0
C126 C 0.76302 0.2072 0.71804 0.0
C127 C 0.7631 0.16728 0.75217 0.0
C128 C 0.80986 0.24956 0.71584 0.0
C129 C 0.85723 0.25294 0.74913 0.0
C130 C 0.8575 0.21424 0.78492 0.0
C131 C 0.81023 0.17158 0.78598 0.0
H132 H 0.49378 0.56684 0.61061 0.0
H133 H 0.62301 0.46479 0.62972 0.0
H134 H 0.61283 0.52923 0.48149 0.0
N135 N 0.52146 0.58417 0.51415 0.0
N136 N 0.53952 0.59976 0.47151 0.0
C137 C 0.53032 0.54665 0.59508 0.0
C138 C 0.55621 0.51571 0.62672 0.0
C139 C 0.55012 0.55149 0.54298 0.0
C140 C 0.59719 0.52508 0.5218 0.0
C141 C 0.62406 0.49361 0.55303 0.0
C142 C 0.60303 0.48908 0.60546 0.0
H143 H 0.47321 0.47842 0.96845 0.0
H144 H 0.6119 0.57506 0.89897 0.0
H145 H 0.63397 0.52355 0.05163 0.0
N146 N 0.5277 0.45991 0.05088 0.0
N147 N 0.55584 0.44573 0.08597 0.0
C148 C 0.51643 0.50022 0.97117 0.0
C149 C 0.53845 0.52791 0.92918 0.0
C150 C 0.55073 0.49643 0.0146 0.0
C151 C 0.60712 0.5248 0.01781 0.0
C152 C 0.62896 0.55374 0.97609 0.0
C153 C 0.59487 0.55355 0.9314 0.0
H154 H 0.76378 0.12951 0.26838 0.0
H155 H 0.85471 0.22297 0.4159 0.0
H156 H 0.7206 0.29475 0.35579 0.0
N157 N 0.69046 0.20571 0.27261 0.0
N158 N 0.67128 0.24978 0.2652 0.0
C159 C 0.77191 0.16795 0.30169 0.0
C160 C 0.81492 0.17219 0.3403 0.0
C161 C 0.73815 0.21252 0.30712 0.0
C162 C 0.74759 0.26114 0.35123 0.0
C163 C 0.78885 0.26536 0.39101 0.0
C164 C 0.82284 0.22068 0.38522 0.0
H165 H 0.43122 0.01192 0.92494 0.0
H166 H 0.40576 0.10274 0.09081 0.0
H167 H 0.53379 0.17704 -0.0081 0.0
N168 N 0.52258 0.08688 0.90758 0.0
N169 N 0.50766 0.05563 0.86179 0.0
C170 C 0.44085 0.05052 0.95788 0.0
C171 C 0.41237 0.05338 0.00789 0.0
C172 C 0.48536 0.0948 0.95239 0.0
C173 C 0.49876 0.14339 -0.00422 0.0
C174 C 0.4694 0.14677 0.04521 0.0
C175 C 0.42703 0.10117 0.0517 0.0
O176 O 0.33552 0.82525 0.97168 0.0
Cd177 Cd 0.34466 0.88635 0.04508 0.0
Cd178 Cd 0.25789 0.93058 -0.00113 0.0
O179 O 0.25667 0.84977 0.94611 0.0
O180 O 0.39371 0.85456 0.09097 0.0
O181 O 0.30404 0.86214 0.10964 0.0
C182 C 0.35035 0.84544 0.12098 0.0
C183 C 0.17458 0.96675 0.03162 0.0
C184 C 0.29405 0.81582 0.93881 0.0
C185 C 0.37129 0.00375 0.0157 0.0
O186 O 0.32445 -0.00658 -0.00936 0.0
O187 O 0.38487 0.96964 0.04447 0.0
O188 O 0.19052 0.96471 -0.01844 0.0
O189 O 0.20495 0.94614 0.06271 0.0
O190 O 0.21558 0.58653 0.28502 0.0
Cd191 Cd 0.16148 0.51217 0.28692 0.0
Cd192 Cd 0.10293 0.54955 0.21327 0.0
O193 O 0.17516 0.61112 0.21693 0.0
O194 O 0.20522 0.47245 0.32946 0.0
O195 O 0.18161 0.43645 0.24182 0.0
C196 C 0.20782 0.43286 0.28518 0.0
C197 C 0.06077 0.50164 0.1293 0.0
C198 C 0.2152 0.61982 0.25156 0.0
C199 C 0.04887 0.5442 0.32153 0.0
O200 O 0.04592 0.56019 0.27652 0.0
O201 O 0.09059 0.52165 0.33269 0.0
O202 O 0.05862 0.55638 0.1499 0.0
O203 O 0.08982 0.47418 0.15528 0.0
O204 O 0.78715 0.74154 0.95184 0.0
Cd205 Cd 0.76678 0.69943 0.01694 0.0
Cd206 Cd 0.80343 0.61422 0.94422 0.0
O207 O 0.82779 0.67399 0.89599 0.0
O208 O 0.74199 0.76129 0.07575 0.0
O209 O 0.81721 0.72005 0.08433 0.0
C210 C 0.7831 0.75605 0.10539 0.0
C211 C 0.86929 0.57664 -0.0147 0.0
C212 C 0.81392 0.72507 0.90773 0.0
C213 C 0.68625 0.58672 -0.02111 0.0
O214 O 0.72151 0.57184 0.94162 0.0
O215 O 0.69724 0.63469 0.01409 0.0
O216 O 0.85414 0.55448 0.93476 0.0
O217 O 0.84783 0.62133 0.01226 0.0
O218 O 0.02302 0.0079 0.33332 0.0
Cd219 Cd 0.98362 -0.01095 0.25769 0.0
Cd220 Cd 0.89647 0.0426 0.32858 0.0
O221 O 0.95509 0.0414 0.38761 0.0
O222 O 0.04188 0.96623 0.20178 0.0
O223 O -0.00379 0.04171 0.20456 0.0
C224 C 0.03163 0.00851 0.18018 0.0
C225 C 0.848 0.12358 0.33645 0.0
C226 C 0.00388 0.02638 0.38095 0.0
C227 C 0.86828 0.91936 0.25664 0.0
O228 O 0.85288 0.96277 0.29053 0.0
O229 O 0.9185 0.92071 0.23955 0.0
O230 O 0.83816 0.08806 0.36927 0.0
O231 O 0.88635 0.11437 0.29966 0.0
O232 O 0.28715 0.24154 0.45184 0.0
Cd233 Cd 0.26678 0.19944 0.51694 0.0
Cd234 Cd 0.30343 0.11422 0.44422 0.0
O235 O 0.32779 0.17399 0.39599 0.0
O236 O 0.24199 0.26129 0.57575 0.0
O237 O 0.31721 0.22005 0.58433 0.0
C238 C 0.2831 0.25605 0.60539 0.0
C239 C 0.36929 0.07664 0.4853 0.0
C240 C 0.31392 0.22507 0.40773 0.0
C241 C 0.18625 0.08672 0.47889 0.0
O242 O 0.22151 0.07184 0.44162 0.0
O243 O 0.19724 0.13469 0.51409 0.0
O244 O 0.35414 0.05448 0.43476 0.0
O245 O 0.34783 0.12133 0.51226 0.0
O246 O 0.52302 0.5079 0.83332 0.0
Cd247 Cd 0.48362 0.48905 0.75769 0.0
Cd248 Cd 0.39647 0.5426 0.82858 0.0
O249 O 0.45509 0.5414 0.88761 0.0
O250 O 0.54188 0.46623 0.70178 0.0
O251 O 0.49621 0.54171 0.70456 0.0
C252 C 0.53163 0.50851 0.68018 0.0
C253 C 0.348 0.62358 0.83645 0.0
C254 C 0.50388 0.52638 0.88095 0.0
C255 C 0.36828 0.41936 0.75664 0.0
O256 O 0.35288 0.46277 0.79053 0.0
O257 O 0.4185 0.42071 0.73955 0.0
O258 O 0.33816 0.58806 0.86927 0.0
O259 O 0.38635 0.61437 0.79966 0.0
O260 O 0.83552 0.32525 0.47168 0.0
Cd261 Cd 0.84466 0.38635 0.54508 0.0
Cd262 Cd 0.75789 0.43058 0.49887 0.0
O263 O 0.75667 0.34977 0.44611 0.0
O264 O 0.89371 0.35456 0.59097 0.0
O265 O 0.80404 0.36214 0.60965 0.0
C266 C 0.85035 0.34544 0.62098 0.0
C267 C 0.67458 0.46675 0.53162 0.0
C268 C 0.79405 0.31582 0.43881 0.0
C269 C 0.87129 0.50375 0.5157 0.0
O270 O 0.82445 0.49342 0.49064 0.0
O271 O 0.88487 0.46964 0.54447 0.0
O272 O 0.69052 0.46471 0.48156 0.0
O273 O 0.70495 0.44614 0.56271 0.0
O274 O 0.71558 0.08653 0.78502 0.0
Cd275 Cd 0.66148 0.01217 0.78692 0.0
Cd276 Cd 0.60293 0.04955 0.71327 0.0
O277 O 0.67516 0.11112 0.71693 0.0
O278 O 0.70522 0.97245 0.82946 0.0
O279 O 0.68161 0.93645 0.74182 0.0
C280 C 0.70782 0.93286 0.78518 0.0
C281 C 0.56077 0.00164 0.6293 0.0
C282 C 0.7152 0.11982 0.75156 0.0
C283 C 0.54887 0.0442 0.82153 0.0
O284 O 0.54592 0.06019 0.77652 0.0
O285 O 0.59059 0.02165 0.83269 0.0
O286 O 0.55862 0.05638 0.6499 0.0
O287 O 0.58982 0.97418 0.65528 0.0
O288 O 0.96645 0.28401 0.97497 0.0
Cd289 Cd 0.96376 0.20411 0.92021 0.0
Cd290 Cd 0.02485 0.26416 0.86017 0.0
O291 O 0.0371 0.32551 0.93275 0.0
O292 O 0.95833 0.14212 0.96358 0.0
O293 O 0.03286 0.16479 0.91352 0.0
C294 C 0.00895 0.13497 0.94771 0.0
C295 C 0.1047 0.25787 0.80725 0.0
C296 C 0.00465 0.3271 0.97363 0.0
C297 C 0.90651 0.21875 0.82155 0.0
O298 O 0.95021 0.25537 0.81801 0.0
O299 O 0.90444 0.18749 0.85749 0.0
O300 O 0.07954 0.30337 0.81498 0.0
O301 O 0.08381 0.21419 0.8284 0.0
O302 O 0.46645 0.78401 0.47497 0.0
Cd303 Cd 0.46376 0.70411 0.42021 0.0
Cd304 Cd 0.52485 0.76416 0.36017 0.0
O305 O 0.5371 0.82551 0.43275 0.0
O306 O 0.45833 0.64212 0.46358 0.0
O307 O 0.53286 0.66479 0.41352 0.0
C308 C 0.50895 0.63497 0.44771 0.0
C309 C 0.6047 0.75787 0.30725 0.0
C310 C 0.50465 0.8271 0.47363 0.0
C311 C 0.40651 0.71875 0.32155 0.0
O312 O 0.45021 0.75537 0.31801 0.0
O313 O 0.40444 0.68749 0.35749 0.0
O314 O 0.57954 0.80337 0.31498 0.0
O315 O 0.58381 0.71419 0.3284 0.0
O316 O 0.96356 0.75897 0.75801 0.0
Cd317 Cd 0.02902 0.74086 0.70573 0.0
Cd318 Cd 0.99051 0.8221 0.65174 0.0
O319 O 0.93499 0.82527 0.71861 0.0
O320 O 0.08026 0.7006 0.741 0.0
O321 O 0.10596 0.78741 0.71965 0.0
C322 C 0.11861 0.74481 0.73961 0.0
C323 C 0.03027 0.90425 0.61639 0.0
C324 C 0.92945 0.79459 0.75543 0.0
C325 C 0.98608 0.69499 0.59186 0.0
O326 O 0.9772 0.74642 0.59075 0.0
O327 O 0.00688 0.68367 0.6337 0.0
O328 O 0.97741 0.88371 0.6107 0.0
O329 O 0.06024 0.88117 0.64565 0.0
O330 O 0.46356 0.25897 0.25801 0.0
Cd331 Cd 0.52901 0.24086 0.20573 0.0
Cd332 Cd 0.49051 0.3221 0.15174 0.0
O333 O 0.43499 0.32527 0.21861 0.0
O334 O 0.58026 0.2006 0.241 0.0
O335 O 0.60596 0.28741 0.21965 0.0
C336 C 0.61861 0.24481 0.23961 0.0
C337 C 0.53027 0.40425 0.11639 0.0
C338 C 0.42945 0.29459 0.25543 0.0
C339 C 0.48608 0.19499 0.09186 0.0
O340 O 0.4772 0.24642 0.09075 0.0
O341 O 0.50688 0.18367 0.1337 0.0
O342 O 0.47741 0.38371 0.1107 0.0
O343 O 0.56024 0.38117 0.14565 0.0
loop_
_geom_bond_atom_site_label_1
_geom_bond_atom_site_label_2
_geom_bond_distance
_geom_bond_site_symmetry_2
_ccdc_geom_bond_type
H0 C5 0.929 . S
H1 C10 0.931 . S
H2 C8 0.930 . S
N3 N4 1.234 . S
N3 C7 1.453 . S
N4 N3 1.234 . S
C5 H0 0.929 . S
C5 C6 1.373 . S
C5 C7 1.368 . S
C6 C5 1.373 . S
C6 C10 1.397 . S
C7 N3 1.453 . S
C7 C5 1.368 . S
C7 C8 1.373 . S
C8 H2 0.930 . S
C8 C7 1.373 . S
C8 C9 1.371 . S
C9 C8 1.371 . S
C9 C10 1.383 . S
C10 H1 0.931 . S
C10 C6 1.397 . S
C10 C9 1.383 . S
H11 C16 0.929 . S
H12 C21 0.931 . S
H13 C19 0.930 . S
N14 N15 1.234 . S
N14 C18 1.453 . S
N15 N14 1.234 . S
C16 H11 0.929 . S
C16 C17 1.373 . S
C16 C18 1.368 . S
C17 C16 1.373 . S
C17 C21 1.397 . S
C18 N14 1.453 . S
C18 C16 1.368 . S
C18 C19 1.373 . S
C19 H13 0.930 . S
C19 C18 1.373 . S
C19 C20 1.371 . S
C20 C19 1.371 . S
C20 C21 1.383 . S
C21 H12 0.931 . S
C21 C17 1.397 . S
C21 C20 1.383 . S
H22 C27 0.929 1_556 S
H23 C32 0.931 . S
H24 C30 0.930 . S
N25 N26 1.234 . S
N25 C29 1.453 . S
N26 N25 1.234 . S
C27 H22 0.929 1_554 S
C27 C28 1.373 . S
C27 C29 1.368 . S
C28 C27 1.373 . S
C28 C32 1.397 . S
C29 N25 1.453 . S
C29 C27 1.368 . S
C29 C30 1.373 . S
C30 H24 0.930 . S
C30 C29 1.373 . S
C30 C31 1.371 . S
C31 C30 1.371 . S
C31 C32 1.383 . S
C32 H23 0.931 . S
C32 C28 1.397 . S
C32 C31 1.383 . S
H33 C38 0.929 . S
H34 C43 0.931 . S
H35 C41 0.930 . S
N36 N37 1.234 . S
N36 C40 1.453 . S
N37 N36 1.234 . S
C38 H33 0.929 . S
C38 C39 1.373 . S
C38 C40 1.368 . S
C39 C38 1.373 . S
C39 C43 1.397 . S
C40 N36 1.453 . S
C40 C38 1.368 . S
C40 C41 1.373 . S
C41 H35 0.930 . S
C41 C40 1.373 . S
C41 C42 1.371 . S
C42 C41 1.371 . S
C42 C43 1.383 . S
C43 H34 0.931 . S
C43 C39 1.397 . S
C43 C42 1.383 . S
H44 C49 0.929 . S
H45 C54 0.931 . S
H46 C52 0.930 . S
N47 N48 1.234 . S
N47 C51 1.453 . S
N48 N47 1.234 . S
C49 H44 0.929 . S
C49 C50 1.371 1_565 S
C49 C51 1.368 . S
C50 C49 1.371 1_545 S
C50 C54 1.398 . S
C51 N47 1.453 . S
C51 C49 1.368 . S
C51 C52 1.373 . S
C52 H46 0.930 . S
C52 C51 1.373 . S
C52 C53 1.371 1_565 S
C53 C52 1.371 1_545 S
C53 C54 1.383 . S
C54 H45 0.931 . S
C54 C50 1.398 . S
C54 C53 1.383 . S
H55 C60 0.929 . S
H56 C65 0.931 . S
H57 C63 0.930 . S
N58 N59 1.234 . S
N58 C62 1.453 . S
N59 N58 1.234 . S
C60 H55 0.929 . S
C60 C61 1.373 . S
C60 C62 1.368 . S
C61 C60 1.373 . S
C61 C65 1.397 . S
C62 N58 1.453 . S
C62 C60 1.368 . S
C62 C63 1.373 . S
C63 H57 0.930 . S
C63 C62 1.373 . S
C63 C64 1.371 . S
C64 C63 1.371 . S
C64 C65 1.383 . S
C65 H56 0.931 . S
C65 C61 1.397 . S
C65 C64 1.383 . S
H66 C71 0.929 . S
H67 C76 0.931 . S
H68 C74 0.930 1_455 S
N69 N70 1.234 1_655 S
N69 C73 1.453 . S
N70 N69 1.234 1_455 S
C71 H66 0.929 . S
C71 C72 1.373 . S
C71 C73 1.368 . S
C72 C71 1.373 . S
C72 C76 1.397 . S
C73 N69 1.453 . S
C73 C71 1.368 . S
C73 C74 1.373 . S
C74 H68 0.930 1_655 S
C74 C73 1.373 . S
C74 C75 1.371 . S
C75 C74 1.371 . S
C75 C76 1.383 . S
C76 H67 0.931 . S
C76 C72 1.397 . S
C76 C75 1.383 . S
H77 C82 0.929 . S
H78 C87 0.931 . S
H79 C85 0.930 . S
N80 N81 1.234 . S
N80 C84 1.453 . S
N81 N80 1.234 . S
C82 H77 0.929 . S
C82 C83 1.373 . S
C82 C84 1.368 . S
C83 C82 1.373 . S
C83 C87 1.397 . S
C84 N80 1.453 . S
C84 C82 1.368 . S
C84 C85 1.373 . S
C85 H79 0.930 . S
C85 C84 1.373 . S
C85 C86 1.371 . S
C86 C85 1.371 . S
C86 C87 1.383 . S
C87 H78 0.931 . S
C87 C83 1.397 . S
C87 C86 1.383 . S
H88 C93 0.929 . S
H89 C98 0.931 . S
H90 C96 0.930 . S
N91 N92 1.234 . S
N91 C95 1.453 . S
N92 N91 1.234 . S
C93 H88 0.929 . S
C93 C94 1.373 . S
C93 C95 1.368 . S
C94 C93 1.373 . S
C94 C98 1.397 . S
C95 N91 1.453 . S
C95 C93 1.368 . S
C95 C96 1.373 . S
C96 H90 0.930 . S
C96 C95 1.373 . S
C96 C97 1.371 . S
C97 C96 1.371 . S
C97 C98 1.383 . S
C98 H89 0.931 . S
C98 C94 1.397 . S
C98 C97 1.383 . S
H99 C104 0.929 . S
H100 C109 0.931 . S
H101 C107 0.930 . S
N102 N103 1.243 . S
N102 C106 1.453 . S
N103 N102 1.243 . S
C104 H99 0.929 . S
C104 C105 1.373 . S
C104 C106 1.368 . S
C105 C104 1.373 . S
C105 C109 1.397 . S
C106 N102 1.453 . S
C106 C104 1.368 . S
C106 C107 1.373 . S
C107 H101 0.930 . S
C107 C106 1.373 . S
C107 C108 1.371 . S
C108 C107 1.371 . S
C108 C109 1.383 . S
C109 H100 0.931 . S
C109 C105 1.397 . S
C109 C108 1.383 . S
H110 C115 0.929 . S
H111 C120 0.931 . S
H112 C118 0.930 . S
N113 N114 1.234 . S
N113 C117 1.453 . S
N114 N113 1.234 . S
C115 H110 0.929 . S
C115 C116 1.373 . S
C115 C117 1.368 . S
C116 C115 1.373 . S
C116 C120 1.397 . S
C117 N113 1.453 . S
C117 C115 1.368 . S
C117 C118 1.373 . S
C118 H112 0.930 . S
C118 C117 1.373 . S
C118 C119 1.371 . S
C119 C118 1.371 . S
C119 C120 1.383 . S
C120 H111 0.931 . S
C120 C116 1.397 . S
C120 C119 1.383 . S
H121 C126 0.929 . S
H122 C131 0.931 . S
H123 C129 0.930 . S
N124 N125 1.234 . S
N124 C128 1.453 . S
N125 N124 1.234 . S
C126 H121 0.929 . S
C126 C127 1.373 . S
C126 C128 1.368 . S
C127 C126 1.373 . S
C127 C131 1.397 . S
C128 N124 1.453 . S
C128 C126 1.368 . S
C128 C129 1.373 . S
C129 H123 0.930 . S
C129 C128 1.373 . S
C129 C130 1.371 . S
C130 C129 1.371 . S
C130 C131 1.383 . S
C131 H122 0.931 . S
C131 C127 1.397 . S
C131 C130 1.383 . S
H132 C137 0.929 . S
H133 C142 0.931 . S
H134 C140 0.930 . S
N135 N136 1.234 . S
N135 C139 1.453 . S
N136 N135 1.234 . S
C137 H132 0.929 . S
C137 C138 1.373 . S
C137 C139 1.368 . S
C138 C137 1.373 . S
C138 C142 1.397 . S
C139 N135 1.453 . S
C139 C137 1.368 . S
C139 C140 1.373 . S
C140 H134 0.930 . S
C140 C139 1.373 . S
C140 C141 1.371 . S
C141 C140 1.371 . S
C141 C142 1.383 . S
C142 H133 0.931 . S
C142 C138 1.397 . S
C142 C141 1.383 . S
H143 C148 0.929 . S
H144 C153 0.931 . S
H145 C151 0.930 . S
N146 N147 1.234 1_556 S
N146 C150 1.453 . S
N147 N146 1.234 1_554 S
C148 H143 0.929 . S
C148 C149 1.373 . S
C148 C150 1.368 . S
C149 C148 1.373 . S
C149 C153 1.397 . S
C150 N146 1.453 . S
C150 C148 1.368 . S
C150 C151 1.373 . S
C151 H145 0.930 . S
C151 C150 1.373 . S
C151 C152 1.371 . S
C152 C151 1.371 . S
C152 C153 1.383 . S
C153 H144 0.931 . S
C153 C149 1.397 . S
C153 C152 1.383 . S
H154 C159 0.929 . S
H155 C164 0.931 . S
H156 C162 0.930 . S
N157 N158 1.234 . S
N157 C161 1.453 . S
N158 N157 1.234 . S
C159 H154 0.929 . S
C159 C160 1.373 . S
C159 C161 1.368 . S
C160 C159 1.373 . S
C160 C164 1.397 . S
C161 N157 1.453 . S
C161 C159 1.368 . S
C161 C162 1.373 . S
C162 H156 0.930 . S
C162 C161 1.373 . S
C162 C163 1.371 . S
C163 C162 1.371 . S
C163 C164 1.383 . S
C164 H155 0.931 . S
C164 C160 1.397 . S
C164 C163 1.383 . S
H165 C170 0.929 1_565 S
H166 C175 0.931 . S
H167 C173 0.930 . S
N168 N169 1.234 . S
N168 C172 1.453 . S
N169 N168 1.234 . S
C170 H165 0.929 1_545 S
C170 C171 1.373 1_556 S
C170 C172 1.368 . S
C171 C170 1.373 1_554 S
C171 C175 1.397 . S
C172 N168 1.453 . S
C172 C170 1.368 . S
C172 C173 1.373 . S
C173 H167 0.930 . S
C173 C172 1.373 . S
C173 C174 1.371 1_556 S
C174 C173 1.371 1_554 S
C174 C175 1.383 . S
C175 H166 0.931 . S
C175 C171 1.397 . S
C175 C174 1.383 . S
O176 Cd177 2.223 . S
O176 C184 1.315 . S
Cd177 O176 2.223 . S
Cd177 O180 2.297 . S
Cd177 O181 2.439 . S
Cd177 O187 2.240 1_565 S
Cd178 O179 2.240 . S
Cd178 O186 2.223 1_565 S
Cd178 O188 2.297 1_565 S
Cd178 O189 2.439 1_565 S
O179 Cd178 2.240 . S
O179 C184 1.279 . S
O180 Cd177 2.297 . S
O180 C182 1.247 . S
O181 Cd177 2.439 . S
O181 C182 1.208 . S
C182 O180 1.247 . S
C182 O181 1.208 . S
C183 O188 1.247 . S
C183 O189 1.208 . S
C184 O176 1.315 . S
C184 O179 1.279 . S
C185 O186 1.315 . S
C185 O187 1.279 . S
O186 Cd178 2.223 1_545 S
O186 C185 1.315 . S
O187 Cd177 2.240 1_545 S
O187 C185 1.279 . S
O188 Cd178 2.297 1_545 S
O188 C183 1.247 . S
O189 Cd178 2.439 1_545 S
O189 C183 1.208 . S
O190 Cd191 2.223 . S
O190 C198 1.315 . S
Cd191 O190 2.223 . S
Cd191 O194 2.297 . S
Cd191 O195 2.439 . S
Cd191 O201 2.240 . S
Cd192 O193 2.240 . S
Cd192 O200 2.223 . S
Cd192 O202 2.297 . S
Cd192 O203 2.439 . S
O193 Cd192 2.240 . S
O193 C198 1.279 . S
O194 Cd191 2.297 . S
O194 C196 1.247 . S
O195 Cd191 2.439 . S
O195 C196 1.208 . S
C196 O194 1.247 . S
C196 O195 1.208 . S
C197 O202 1.247 . S
C197 O203 1.208 . S
C198 O190 1.315 . S
C198 O193 1.279 . S
C199 O200 1.315 . S
C199 O201 1.279 . S
O200 Cd192 2.223 . S
O200 C199 1.315 . S
O201 Cd191 2.240 . S
O201 C199 1.279 . S
O202 Cd192 2.297 . S
O202 C197 1.247 . S
O203 Cd192 2.439 . S
O203 C197 1.208 . S
O204 Cd205 2.223 1_556 S
O204 C212 1.315 . S
Cd205 O204 2.223 1_554 S
Cd205 O208 2.297 . S
Cd205 O209 2.439 . S
Cd205 O215 2.240 1_554 S
Cd206 O207 2.240 . S
Cd206 O214 2.223 . S
Cd206 O216 2.297 . S
Cd206 O217 2.439 1_556 S
O207 Cd206 2.240 . S
O207 C212 1.279 . S
O208 Cd205 2.297 . S
O208 C210 1.247 . S
O209 Cd205 2.439 . S
O209 C210 1.208 . S
C210 O208 1.247 . S
C210 O209 1.208 . S
C211 O216 1.247 1_554 S
C211 O217 1.208 . S
C212 O204 1.315 . S
C212 O207 1.279 . S
C213 O214 1.315 . S
C213 O215 1.279 . S
O214 Cd206 2.223 . S
O214 C213 1.315 . S
O215 Cd205 2.240 1_556 S
O215 C213 1.279 . S
O216 Cd206 2.297 . S
O216 C211 1.247 1_556 S
O217 Cd206 2.439 1_554 S
O217 C211 1.208 . S
O218 Cd219 2.223 1_465 S
O218 C226 1.315 1_565 S
Cd219 O218 2.223 1_645 S
Cd219 O222 2.297 1_655 S
Cd219 O223 2.439 1_655 S
Cd219 O229 2.240 . S
Cd220 O221 2.240 1_655 S
Cd220 O228 2.223 . S
Cd220 O230 2.297 . S
Cd220 O231 2.439 . S
O221 Cd220 2.240 1_455 S
O221 C226 1.279 . S
O222 Cd219 2.297 1_455 S
O222 C224 1.247 . S
O223 Cd219 2.439 1_455 S
O223 C224 1.208 . S
C224 O222 1.247 . S
C224 O223 1.208 . S
C225 O230 1.247 . S
C225 O231 1.208 . S
C226 O218 1.315 1_545 S
C226 O221 1.279 . S
C227 O228 1.315 1_565 S
C227 O229 1.279 1_565 S
O228 Cd220 2.223 . S
O228 C227 1.315 1_545 S
O229 Cd219 2.240 . S
O229 C227 1.279 1_545 S
O230 Cd220 2.297 . S
O230 C225 1.247 . S
O231 Cd220 2.439 . S
O231 C225 1.208 . S
O232 Cd233 2.223 . S
O232 C240 1.315 . S
Cd233 O232 2.223 . S
Cd233 O236 2.297 . S
Cd233 O237 2.439 . S
Cd233 O243 2.240 . S
Cd234 O235 2.240 . S
Cd234 O242 2.223 . S
Cd234 O244 2.297 . S
Cd234 O245 2.439 . S
O235 Cd234 2.240 . S
O235 C240 1.279 . S
O236 Cd233 2.297 . S
O236 C238 1.247 . S
O237 Cd233 2.439 . S
O237 C238 1.208 . S
C238 O236 1.247 . S
C238 O237 1.208 . S
C239 O244 1.247 . S
C239 O245 1.208 . S
C240 O232 1.315 . S
C240 O235 1.279 . S
C241 O242 1.315 . S
C241 O243 1.279 . S
O242 Cd234 2.223 . S
O242 C241 1.315 . S
O243 Cd233 2.240 . S
O243 C241 1.279 . S
O244 Cd234 2.297 . S
O244 C239 1.247 . S
O245 Cd234 2.439 . S
O245 C239 1.208 . S
O246 Cd247 2.223 . S
O246 C254 1.315 . S
Cd247 O246 2.223 . S
Cd247 O250 2.297 . S
Cd247 O251 2.439 . S
Cd247 O257 2.240 . S
Cd248 O249 2.240 . S
Cd248 O256 2.223 . S
Cd248 O258 2.297 . S
Cd248 O259 2.439 . S
O249 Cd248 2.240 . S
O249 C254 1.279 . S
O250 Cd247 2.297 . S
O250 C252 1.247 . S
O251 Cd247 2.439 . S
O251 C252 1.208 . S
C252 O250 1.247 . S
C252 O251 1.208 . S
C253 O258 1.247 . S
C253 O259 1.208 . S
C254 O246 1.315 . S
C254 O249 1.279 . S
C255 O256 1.315 . S
C255 O257 1.279 . S
O256 Cd248 2.223 . S
O256 C255 1.315 . S
O257 Cd247 2.240 . S
O257 C255 1.279 . S
O258 Cd248 2.297 . S
O258 C253 1.247 . S
O259 Cd248 2.439 . S
O259 C253 1.208 . S
O260 Cd261 2.223 . S
O260 C268 1.315 . S
Cd261 O260 2.223 . S
Cd261 O264 2.297 . S
Cd261 O265 2.439 . S
Cd261 O271 2.240 . S
Cd262 O263 2.240 . S
Cd262 O270 2.223 . S
Cd262 O272 2.297 . S
Cd262 O273 2.439 . S
O263 Cd262 2.240 . S
O263 C268 1.279 . S
O264 Cd261 2.297 . S
O264 C266 1.247 . S
O265 Cd261 2.439 . S
O265 C266 1.208 . S
C266 O264 1.247 . S
C266 O265 1.208 . S
C267 O272 1.247 . S
C267 O273 1.208 . S
C268 O260 1.315 . S
C268 O263 1.279 . S
C269 O270 1.315 . S
C269 O271 1.279 . S
O270 Cd262 2.223 . S
O270 C269 1.315 . S
O271 Cd261 2.240 . S
O271 C269 1.279 . S
O272 Cd262 2.297 . S
O272 C267 1.247 . S
O273 Cd262 2.439 . S
O273 C267 1.208 . S
O274 Cd275 2.223 1_545 S
O274 C282 1.315 . S
Cd275 O274 2.223 1_565 S
Cd275 O278 2.297 . S
Cd275 O279 2.439 . S
Cd275 O285 2.240 1_565 S
Cd276 O277 2.240 . S
Cd276 O284 2.223 . S
Cd276 O286 2.297 1_545 S
Cd276 O287 2.439 1_545 S
O277 Cd276 2.240 . S
O277 C282 1.279 . S
O278 Cd275 2.297 . S
O278 C280 1.247 . S
O279 Cd275 2.439 . S
O279 C280 1.208 . S
C280 O278 1.247 . S
C280 O279 1.208 . S
C281 O286 1.247 . S
C281 O287 1.208 . S
C282 O274 1.315 . S
C282 O277 1.279 . S
C283 O284 1.315 . S
C283 O285 1.279 . S
O284 Cd276 2.223 . S
O284 C283 1.315 . S
O285 Cd275 2.240 1_545 S
O285 C283 1.279 . S
O286 Cd276 2.297 1_565 S
O286 C281 1.247 . S
O287 Cd276 2.439 1_565 S
O287 C281 1.208 . S
O288 Cd289 2.223 . S
O288 C296 1.315 . S
Cd289 O288 2.223 . S
Cd289 O292 2.297 1_656 S
Cd289 O293 2.439 1_655 S
Cd289 O299 2.240 . S
Cd290 O291 2.240 . S
Cd290 O298 2.223 1_455 S
Cd290 O300 2.297 . S
Cd290 O301 2.439 . S
O291 Cd290 2.240 . S
O291 C296 1.279 1_455 S
O292 Cd289 2.297 1_454 S
O292 C294 1.247 . S
O293 Cd289 2.439 1_455 S
O293 C294 1.208 1_556 S
C294 O292 1.247 . S
C294 O293 1.208 1_554 S
C295 O300 1.247 . S
C295 O301 1.208 . S
C296 O288 1.315 . S
C296 O291 1.279 1_655 S
C297 O298 1.315 . S
C297 O299 1.279 . S
O298 Cd290 2.223 1_655 S
O298 C297 1.315 . S
O299 Cd289 2.240 . S
O299 C297 1.279 . S
O300 Cd290 2.297 . S
O300 C295 1.247 . S
O301 Cd290 2.439 . S
O301 C295 1.208 . S
O302 Cd303 2.223 . S
O302 C310 1.315 . S
Cd303 O302 2.223 . S
Cd303 O306 2.297 . S
Cd303 O307 2.439 . S
Cd303 O313 2.240 . S
Cd304 O305 2.240 . S
Cd304 O312 2.223 . S
Cd304 O314 2.297 . S
Cd304 O315 2.439 . S
O305 Cd304 2.240 . S
O305 C310 1.279 . S
O306 Cd303 2.297 . S
O306 C308 1.247 . S
O307 Cd303 2.439 . S
O307 C308 1.208 . S
C308 O306 1.247 . S
C308 O307 1.208 . S
C309 O314 1.247 . S
C309 O315 1.208 . S
C310 O302 1.315 . S
C310 O305 1.279 . S
C311 O312 1.315 . S
C311 O313 1.279 . S
O312 Cd304 2.223 . S
O312 C311 1.315 . S
O313 Cd303 2.240 . S
O313 C311 1.279 . S
O314 Cd304 2.297 . S
O314 C309 1.247 . S
O315 Cd304 2.439 . S
O315 C309 1.208 . S
O316 Cd317 2.223 1_655 S
O316 C324 1.315 . S
Cd317 O316 2.223 1_455 S
Cd317 O320 2.297 . S
Cd317 O321 2.439 . S
Cd317 O327 2.240 . S
Cd318 O319 2.240 . S
Cd318 O326 2.223 . S
Cd318 O328 2.297 1_655 S
Cd318 O329 2.439 1_655 S
O319 Cd318 2.240 . S
O319 C324 1.279 . S
O320 Cd317 2.297 . S
O320 C322 1.247 . S
O321 Cd317 2.439 . S
O321 C322 1.208 . S
C322 O320 1.247 . S
C322 O321 1.208 . S
C323 O328 1.247 . S
C323 O329 1.208 . S
C324 O316 1.315 . S
C324 O319 1.279 . S
C325 O326 1.315 . S
C325 O327 1.279 1_655 S
O326 Cd318 2.223 . S
O326 C325 1.315 . S
O327 Cd317 2.240 . S
O327 C325 1.279 1_455 S
O328 Cd318 2.297 1_455 S
O328 C323 1.247 . S
O329 Cd318 2.439 1_455 S
O329 C323 1.208 . S
O330 Cd331 2.223 . S
O330 C338 1.315 . S
Cd331 O330 2.223 . S
Cd331 O334 2.297 . S
Cd331 O335 2.439 . S
Cd331 O341 2.240 . S
Cd332 O333 2.240 . S
Cd332 O340 2.223 . S
Cd332 O342 2.297 . S
Cd332 O343 2.439 . S
O333 Cd332 2.240 . S
O333 C338 1.279 . S
O334 Cd331 2.297 . S
O334 C336 1.247 . S
O335 Cd331 2.439 . S
O335 C336 1.208 . S
C336 O334 1.247 . S
C336 O335 1.208 . S
C337 O342 1.247 . S
C337 O343 1.208 . S
C338 O330 1.315 . S
C338 O333 1.279 . S
C339 O340 1.315 . S
C339 O341 1.279 . S
O340 Cd332 2.223 . S
O340 C339 1.315 . S
O341 Cd331 2.240 . S
O341 C339 1.279 . S
O342 Cd332 2.297 . S
O342 C337 1.247 . S
O343 Cd332 2.439 . S
O343 C337 1.208 . S
C184 C64 1.729 1_554 S
C199 N70 1.709 . S
C83 C212 2.102 . S
C226 C50 1.526 . S
C238 C119 1.793 . S
C252 C138 1.359 . S
N125 C266 1.568 . S
C281 C108 1.452 . S
C130 C297 1.791 . S
C310 C105 1.451 . S
N114 C295 1.412 . S
C308 N136 2.184 . S
C86 C324 1.977 . S
N48 C323 1.830 . S
N59 C322 1.530 . S
C75 C325 1.401 . S
C39 C227 2.179 . S
C160 C225 1.789 . S
C185 C171 1.444 . S
C196 N92 1.560 . S
C53 C241 1.929 . S
C282 C127 1.975 . S
C239 N103 2.037 1_545 S
C267 C141 1.668 . S
C268 C163 1.729 . S
N169 C283 1.709 . S
C94 C240 2.102 . S
C254 C149 1.524 . S
C42 C210 1.793 . S
C224 C6 1.359 . S
C182 N15 1.568 . S
C197 C31 1.452 1_455 S
C20 C311 1.791 . S
C28 C296 1.451 1_554 S
N37 C309 1.412 . S
N4 C294 2.184 . S
C338 C97 1.977 . S
C337 N147 1.830 . S
C336 N158 1.530 . S
C174 C339 1.401 . S
C116 C255 2.179 . S
C253 C61 1.789 . S
C269 C72 1.444 . S
C280 N81 1.560 . S
C152 C213 1.929 . S
C198 C17 1.975 . S
N26 C211 2.049 . S
C183 C9 1.669 . S
