# Generated by pormake.
# Topology apo, (3,6)-cn, num edge types: 1
# Building blocks:
#     Node 0, Type 0, BuildingBlock: ESEHIV_clean_linker_0, # of connection points: 3
#     Node 1, Type 0, BuildingBlock: ESEHIV_clean_linker_0, # of connection points: 3
#     Node 2, Type 0, BuildingBlock: ESEHIV_clean_linker_0, # of connection points: 3
#     Node 3, Type 0, BuildingBlock: ESEHIV_clean_linker_0, # of connection points: 3
#     Node 4, Type 0, BuildingBlock: ESEHIV_clean_linker_0, # of connection points: 3
#     Node 5, Type 0, BuildingBlock: ESEHIV_clean_linker_0, # of connection points: 3
#     Node 6, Type 0, BuildingBlock: ESEHIV_clean_linker_0, # of connection points: 3
#     Node 7, Type 0, BuildingBlock: ESEHIV_clean_linker_0, # of connection points: 3
#     Node 8, Type 1, BuildingBlock: KUMJIN_clean_sbu_1, # of connection points: 6
#     Node 9, Type 1, BuildingBlock: KUMJIN_clean_sbu_1, # of connection points: 6
#     Node 10, Type 1, BuildingBlock: KUMJIN_clean_sbu_1, # of connection points: 6
#     Node 11, Type 1, BuildingBlock: KUMJIN_clean_sbu_1, # of connection points: 6
#     Edge 12, Type (0, 1), BuildingBlock: XUDNAN_clean_linker_2, # of connection points: 2
#     Edge 13, Type (0, 1), BuildingBlock: XUDNAN_clean_linker_2, # of connection points: 2
#     Edge 14, Type (0, 1), BuildingBlock: XUDNAN_clean_linker_2, # of connection points: 2
#     Edge 15, Type (0, 1), BuildingBlock: XUDNAN_clean_linker_2, # of connection points: 2
#     Edge 16, Type (0, 1), BuildingBlock: XUDNAN_clean_linker_2, # of connection points: 2
#     Edge 17, Type (0, 1), BuildingBlock: XUDNAN_clean_linker_2, # of connection points: 2
#     Edge 18, Type (0, 1), BuildingBlock: XUDNAN_clean_linker_2, # of connection points: 2
#     Edge 19, Type (0, 1), BuildingBlock: XUDNAN_clean_linker_2, # of connection points: 2
#     Edge 20, Type (0, 1), BuildingBlock: XUDNAN_clean_linker_2, # of connection points: 2
#     Edge 21, Type (0, 1), BuildingBlock: XUDNAN_clean_linker_2, # of connection points: 2
#     Edge 22, Type (0, 1), BuildingBlock: XUDNAN_clean_linker_2, # of connection points: 2
#     Edge 23, Type (0, 1), BuildingBlock: XUDNAN_clean_linker_2, # of connection points: 2
#     Edge 24, Type (0, 1), BuildingBlock: XUDNAN_clean_linker_2, # of connection points: 2
#     Edge 25, Type (0, 1), BuildingBlock: XUDNAN_clean_linker_2, # of connection points: 2
#     Edge 26, Type (0, 1), BuildingBlock: XUDNAN_clean_linker_2, # of connection points: 2
#     Edge 27, Type (0, 1), BuildingBlock: XUDNAN_clean_linker_2, # of connection points: 2
#     Edge 28, Type (0, 1), BuildingBlock: XUDNAN_clean_linker_2, # of connection points: 2
#     Edge 29, Type (0, 1), BuildingBlock: XUDNAN_clean_linker_2, # of connection points: 2
#     Edge 30, Type (0, 1), BuildingBlock: XUDNAN_clean_linker_2, # of connection points: 2
#     Edge 31, Type (0, 1), BuildingBlock: XUDNAN_clean_linker_2, # of connection points: 2
#     Edge 32, Type (0, 1), BuildingBlock: XUDNAN_clean_linker_2, # of connection points: 2
#     Edge 33, Type (0, 1), BuildingBlock: XUDNAN_clean_linker_2, # of connection points: 2
#     Edge 34, Type (0, 1), BuildingBlock: XUDNAN_clean_linker_2, # of connection points: 2
#     Edge 35, Type (0, 1), BuildingBlock: XUDNAN_clean_linker_2, # of connection points: 2
# Relax obj value: 0.008
# Max RMSD: 0.114
# Mean RMSD: 0.087
data_MOF--net-apo--node1-KUMJIN_clean_sbu_1--node2-ESEHIV_clean_linker_0--edge1-XUDNAN_clean_linker_2
_symmetry_space_group_name_H-M    P1
_symmetry_Int_Tables_number       1
_symmetry_cell_setting            triclinic
loop_
_symmetry_equiv_pos_as_xyz
'x, y, z'
_cell_length_a     22.654329
_cell_length_b     39.919282
_cell_length_c     51.072576
_cell_angle_alpha  89.869126
_cell_angle_beta   89.890231
_cell_angle_gamma 90.021603
loop_
_atom_site_label
_atom_site_type_symbol
_atom_site_fract_x
_atom_site_fract_y
_atom_site_fract_z
_atom_type_partial_charge
H0 H 0.31648 0.43016 0.43127 0.0
H1 H 0.26301 0.38542 0.35888 0.0
H2 H 0.26987 0.32515 0.42843 0.0
C3 C 0.30299 0.40801 0.42066 0.0
C4 C 0.29372 0.37731 0.43388 0.0
C5 C 0.29262 0.41075 0.39365 0.0
C6 C 0.27158 0.38308 0.3797 0.0
C7 C 0.26319 0.35221 0.39224 0.0
C8 C 0.27544 0.34933 0.4191 0.0
H9 H 0.1739 0.07253 0.91773 0.0
H10 H 0.24969 0.12686 0.85357 0.0
H11 H 0.28373 0.15893 0.9324 0.0
C12 C 0.20192 0.09272 0.91086 0.0
C13 C 0.22781 0.11511 0.9288 0.0
C14 C 0.20979 0.09691 0.88382 0.0
C15 C 0.24328 0.12391 0.8745 0.0
C16 C 0.27001 0.14644 0.89188 0.0
C17 C 0.26252 0.14175 0.91901 0.0
H18 H 0.82309 0.06937 0.58761 0.0
H19 H 0.75787 0.11502 0.65825 0.0
H20 H 0.76491 0.172 0.58695 0.0
C21 C 0.80412 0.09071 0.59764 0.0
C22 C 0.79471 0.12068 0.58376 0.0
C23 C 0.79094 0.0883 0.62452 0.0
C24 C 0.7684 0.11649 0.63757 0.0
C25 C 0.7599 0.14678 0.62413 0.0
C26 C 0.773 0.14873 0.59731 0.0
H27 H 0.66762 0.42853 0.08937 0.0
H28 H 0.73361 0.38529 0.16063 0.0
H29 H 0.72738 0.32667 0.08994 0.0
C30 C 0.6863 0.4074 0.09981 0.0
C31 C 0.69508 0.37708 0.08658 0.0
C32 C 0.70049 0.41072 0.12642 0.0
C33 C 0.72372 0.38299 0.13998 0.0
C34 C 0.73376 0.35236 0.12702 0.0
C35 C 0.71977 0.34994 0.10022 0.0
H36 H 0.66783 0.57895 0.584 0.0
H37 H 0.75512 0.67349 0.58527 0.0
H38 H 0.71363 0.62407 0.65805 0.0
C39 C 0.6871 0.59905 0.59532 0.0
C40 C 0.68793 0.59753 0.62291 0.0
C41 C 0.70882 0.62706 0.58197 0.0
C42 C 0.73617 0.65267 0.59603 0.0
C43 C 0.739 0.65175 0.62352 0.0
C44 C 0.71433 0.62412 0.63686 0.0
H45 H 0.83934 0.92618 0.09912 0.0
H46 H 0.75696 0.8767 0.16435 0.0
H47 H 0.75029 0.83165 0.08816 0.0
C48 C 0.81533 0.90486 0.10688 0.0
C49 C 0.79748 0.87878 0.09015 0.0
C50 C 0.80016 0.90438 0.13351 0.0
C51 C 0.76942 0.87687 0.14383 0.0
C52 C 0.75229 0.85034 0.12761 0.0
C53 C 0.76585 0.85156 0.10078 0.0
H54 H 0.14274 0.92233 0.42932 0.0
H55 H 0.21317 0.82288 0.42909 0.0
H56 H 0.23702 0.88655 0.36158 0.0
C57 C 0.16678 0.90273 0.41924 0.0
C58 C 0.18725 0.90788 0.39351 0.0
C59 C 0.17618 0.87215 0.43201 0.0
C60 C 0.20631 0.84648 0.41901 0.0
C61 C 0.22943 0.85142 0.3937 0.0
C62 C 0.21875 0.88211 0.38089 0.0
H63 H 0.31821 0.57259 0.93259 0.0
H64 H 0.26441 0.61033 0.85767 0.0
H65 H 0.252 0.67341 0.92559 0.0
C66 C 0.29969 0.59248 0.92071 0.0
C67 C 0.2837 0.62297 0.9326 0.0
C68 C 0.29363 0.58779 0.89363 0.0
C69 C 0.27143 0.61417 0.87843 0.0
C70 C 0.2578 0.64543 0.88952 0.0
C71 C 0.26327 0.64958 0.91678 0.0
Eu72 Eu 0.06889 0.1348 0.23115 0.0
C73 C 0.80566 0.12866 0.27386 0.0
N74 N 0.84086 0.15588 0.27023 0.0
C75 C 0.7598 0.18674 0.25221 0.0
C76 C 0.74589 0.12934 0.26618 0.0
C77 C 0.81873 0.18491 0.26012 0.0
C78 C 0.72326 0.15879 0.25514 0.0
C79 C 0.7946 0.07077 0.28788 0.0
C80 C 0.8299 0.09961 0.28458 0.0
C81 C 0.73506 0.07146 0.2803 0.0
C82 C 0.7108 0.10063 0.26949 0.0
Eu83 Eu 0.93918 0.15031 0.28445 0.0
N84 N 0.88828 0.09922 0.29098 0.0
C85 C 0.82028 0.04196 0.29858 0.0
C86 C 0.91276 0.07164 0.30244 0.0
C87 C 0.87946 0.04251 0.30608 0.0
H88 H 0.84622 0.20693 0.25866 0.0
H89 H 0.89935 0.0206 0.31492 0.0
H90 H 0.16988 0.08288 0.25601 0.0
H91 H 0.08744 0.26764 0.20434 0.0
H92 H 0.95745 0.07198 0.30939 0.0
H93 H 0.79464 0.01932 0.30141 0.0
H94 H 0.04085 0.2122 0.20547 0.0
H95 H 0.74251 0.20976 0.24403 0.0
H96 H 0.70741 0.0495 0.28264 0.0
H97 H 0.66484 0.10068 0.26364 0.0
H98 H 0.27236 0.0854 0.27259 0.0
H99 H 0.6776 0.16027 0.24896 0.0
H100 H 0.18753 0.27544 0.22258 0.0
N101 N 0.16712 0.13453 0.24605 0.0
C102 C 0.19641 0.16427 0.24512 0.0
C103 C 0.25147 0.10775 0.26494 0.0
C104 C 0.25473 0.16687 0.25443 0.0
C105 C 0.19353 0.1064 0.25564 0.0
C106 C 0.28219 0.13811 0.26439 0.0
N107 N 0.11029 0.18921 0.22696 0.0
C108 C 0.08283 0.21539 0.21487 0.0
C109 C 0.19637 0.22356 0.23439 0.0
C110 C 0.16714 0.1924 0.23542 0.0
C111 C 0.1666 0.25106 0.22371 0.0
C112 C 0.10995 0.24682 0.21355 0.0
H113 H 0.32699 0.1391 0.27173 0.0
H114 H 0.32829 0.20053 0.2609 0.0
H115 H 0.27742 0.25006 0.24324 0.0
O116 O 0.06129 0.13577 0.18851 0.0
O117 O 0.09114 0.15939 0.26994 0.0
O118 O 0.00928 0.19043 0.27938 0.0
O119 O 0.12565 0.10346 0.20651 0.0
O120 O 0.98431 0.16086 0.21839 0.0
O121 O 0.95566 0.19094 0.25454 0.0
O122 O 0.94152 0.14852 0.3279 0.0
O123 O 0.91637 0.11917 0.24822 0.0
O124 O 0.00339 0.09289 0.23715 0.0
O125 O 0.88834 0.18586 0.30713 0.0
O126 O 0.01967 0.12029 0.29727 0.0
O127 O 0.05762 0.09266 0.26077 0.0
C128 C 0.06581 0.18448 0.28197 0.0
C129 C 0.14954 0.12732 0.16526 0.0
C130 C 0.18352 0.13177 0.11991 0.0
C131 C 0.22911 0.15316 0.12818 0.0
C132 C 0.19577 0.14845 0.17297 0.0
C133 C 0.23519 0.16131 0.15455 0.0
C134 C 0.14371 0.11882 0.13865 0.0
C135 C 0.95342 0.18491 0.22937 0.0
C136 C 0.10562 0.11567 0.18459 0.0
C137 C 0.2835 0.19801 0.25375 0.0
C138 C 0.25445 0.22625 0.24376 0.0
C139 C 0.9457 0.09537 0.23596 0.0
C140 C 0.88508 0.18923 0.35421 0.0
C141 C 0.86248 0.18637 0.40103 0.0
C142 C 0.8424 0.21972 0.39987 0.0
C143 C 0.86519 0.22254 0.35377 0.0
C144 C 0.884 0.17118 0.37795 0.0
C145 C 0.84413 0.23763 0.37647 0.0
C146 C 0.05191 0.09649 0.28636 0.0
C147 C 0.90508 0.17376 0.32954 0.0
H148 H 0.26081 0.16312 0.11429 0.0
H149 H 0.20142 0.15511 0.1932 0.0
H150 H 0.27066 0.17763 0.16075 0.0
H151 H 0.10785 0.10266 0.13252 0.0
H152 H 0.8242 0.23192 0.41699 0.0
H153 H 0.86572 0.23701 0.33579 0.0
H154 H 0.89947 0.1455 0.3784 0.0
H155 H 0.82849 0.26324 0.37586 0.0
Eu156 Eu 0.4415 0.36342 0.73338 0.0
C157 C 0.70218 0.40395 0.76941 0.0
N158 N 0.67782 0.37278 0.76833 0.0
C159 C 0.76825 0.35066 0.75096 0.0
C160 C 0.76018 0.40976 0.76032 0.0
C161 C 0.71093 0.346 0.76047 0.0
C162 C 0.7927 0.38273 0.75053 0.0
C163 C 0.69508 0.46225 0.78288 0.0
C164 C 0.67013 0.42999 0.78067 0.0
C165 C 0.75214 0.46819 0.77319 0.0
C166 C 0.78455 0.44205 0.76191 0.0
Eu167 Eu 0.58097 0.36818 0.78551 0.0
N168 N 0.61432 0.42387 0.78935 0.0
C169 C 0.66185 0.4876 0.79478 0.0
C170 C 0.58319 0.4479 0.80241 0.0
C171 C 0.60591 0.48029 0.80482 0.0
H172 H 0.694 0.32079 0.76193 0.0
H173 H 0.58052 0.49951 0.81465 0.0
H174 H 0.343 0.41552 0.76109 0.0
H175 H 0.41112 0.2348 0.69869 0.0
H176 H 0.54088 0.44206 0.81095 0.0
H177 H 0.67939 0.51273 0.79671 0.0
H178 H 0.4624 0.28871 0.70287 0.0
H179 H 0.79385 0.32941 0.74434 0.0
H180 H 0.77179 0.49288 0.77447 0.0
H181 H 0.82885 0.44696 0.75484 0.0
H182 H 0.24374 0.41269 0.78067 0.0
H183 H 0.83736 0.38619 0.74338 0.0
H184 H 0.31217 0.22711 0.71832 0.0
N185 N 0.34581 0.3637 0.75153 0.0
C186 C 0.31469 0.33474 0.74947 0.0
C187 C 0.26345 0.39045 0.77229 0.0
C188 C 0.25701 0.33223 0.75978 0.0
C189 C 0.32025 0.3918 0.76162 0.0
C190 C 0.23194 0.36041 0.77168 0.0
N191 N 0.39557 0.31094 0.7265 0.0
C192 C 0.42041 0.28553 0.71245 0.0
C193 C 0.30855 0.2774 0.73402 0.0
C194 C 0.34023 0.30764 0.73664 0.0
C195 C 0.33498 0.25078 0.72064 0.0
C196 C 0.39092 0.25498 0.70962 0.0
H197 H 0.18778 0.35948 0.77984 0.0
H198 H 0.18165 0.29956 0.76543 0.0
H199 H 0.22665 0.25161 0.74287 0.0
O200 O 0.40963 0.3605 0.69257 0.0
O201 O 0.4308 0.33575 0.77211 0.0
O202 O 0.52684 0.32062 0.78116 0.0
O203 O 0.40979 0.40825 0.71368 0.0
O204 O 0.52106 0.33165 0.72141 0.0
O205 O 0.59053 0.3261 0.75548 0.0
O206 O 0.56918 0.36938 0.82817 0.0
O207 O 0.56758 0.41106 0.75659 0.0
O208 O 0.53403 0.37924 0.72337 0.0
O209 O 0.64985 0.34993 0.81154 0.0
O210 O 0.49024 0.38388 0.79885 0.0
O211 O 0.45013 0.40736 0.76167 0.0
C212 C 0.46962 0.31757 0.78502 0.0
C213 C 0.37426 0.41023 0.66881 0.0
C214 C 0.35216 0.41286 0.62195 0.0
C215 C 0.33973 0.44717 0.62455 0.0
C216 C 0.36112 0.44454 0.6708 0.0
C217 C 0.34384 0.46277 0.64883 0.0
C218 C 0.36889 0.39428 0.64428 0.0
C219 C 0.56859 0.3181 0.73226 0.0
C220 C 0.39867 0.39254 0.69187 0.0
C221 C 0.22584 0.302 0.7575 0.0
C222 C 0.25146 0.2747 0.74461 0.0
C223 C 0.55636 0.40732 0.73166 0.0
C224 C 0.62515 0.33169 0.85432 0.0
C225 C 0.63181 0.32149 0.90131 0.0
C226 C 0.64333 0.28751 0.89628 0.0
C227 C 0.63738 0.29775 0.84961 0.0
C228 C 0.6221 0.34335 0.88016 0.0
C229 C 0.64569 0.27574 0.87057 0.0
C230 C 0.45382 0.40468 0.78731 0.0
C231 C 0.62056 0.35612 0.83287 0.0
H232 H 0.32615 0.46189 0.60776 0.0
H233 H 0.36514 0.45753 0.68931 0.0
H234 H 0.33407 0.4892 0.6506 0.0
H235 H 0.37949 0.36792 0.64234 0.0
H236 H 0.65039 0.27006 0.91225 0.0
H237 H 0.64074 0.28832 0.8298 0.0
H238 H 0.61434 0.36976 0.88376 0.0
H239 H 0.65473 0.24955 0.86687 0.0
Eu240 Eu 0.07009 0.86882 0.73276 0.0
C241 C 0.80326 0.83708 0.77086 0.0
N242 N 0.83486 0.86592 0.77298 0.0
C243 C 0.74953 0.89816 0.76137 0.0
C244 C 0.74327 0.83774 0.76358 0.0
C245 C 0.80884 0.89629 0.76877 0.0
C246 C 0.71665 0.86876 0.75865 0.0
C247 C 0.79919 0.77645 0.77457 0.0
C248 C 0.83085 0.80675 0.7762 0.0
C249 C 0.73961 0.77698 0.76705 0.0
C250 C 0.71174 0.80754 0.76155 0.0
Eu251 Eu 0.93498 0.86006 0.78491 0.0
N252 N 0.88911 0.80691 0.78272 0.0
C253 C 0.82829 0.74652 0.78071 0.0
C254 C 0.91715 0.77795 0.78963 0.0
C255 C 0.88738 0.74731 0.78845 0.0
H256 H 0.83357 0.91917 0.77142 0.0
H257 H 0.90998 0.72433 0.79355 0.0
H258 H 0.18164 0.83782 0.76816 0.0
H259 H 0.03765 0.99489 0.69328 0.0
H260 H 0.96243 0.77841 0.796 0.0
H261 H 0.80536 0.72273 0.77981 0.0
H262 H 0.01707 0.93483 0.69815 0.0
H263 H 0.72913 0.92227 0.75792 0.0
H264 H 0.71463 0.75392 0.76554 0.0
H265 H 0.66567 0.80755 0.75589 0.0
H266 H 0.27115 0.85851 0.79064 0.0
H267 H 0.67066 0.87032 0.75299 0.0
H268 H 0.11989 0.02087 0.71758 0.0
N269 N 0.15627 0.88588 0.75456 0.0
C270 C 0.17019 0.91891 0.75247 0.0
C271 C 0.24298 0.87577 0.7801 0.0
C272 C 0.22079 0.93183 0.76491 0.0
C273 C 0.19229 0.8641 0.7675 0.0
C274 C 0.2571 0.90982 0.77896 0.0
N275 N 0.08373 0.92699 0.72679 0.0
C276 C 0.05114 0.94598 0.70996 0.0
C277 C 0.14664 0.97432 0.73585 0.0
C278 C 0.13284 0.93999 0.73835 0.0
C279 C 0.11052 0.99446 0.72018 0.0
C280 C 0.06348 0.98002 0.7067 0.0
H281 H 0.29629 0.91882 0.78883 0.0
H282 H 0.27208 0.97656 0.7725 0.0
H283 H 0.20741 0.01369 0.74701 0.0
O284 O 0.08829 0.87631 0.69094 0.0
O285 O 0.0743 0.88759 0.77506 0.0
O286 O 0.98291 0.9091 0.78117 0.0
O287 O 0.14439 0.84294 0.71419 0.0
O288 O 0.97796 0.88472 0.71988 0.0
O289 O 0.93532 0.9052 0.75758 0.0
O290 O 0.95859 0.85435 0.82619 0.0
O291 O 0.92744 0.82639 0.74941 0.0
O292 O 0.0105 0.82574 0.72234 0.0
O293 O 0.87686 0.87866 0.81577 0.0
O294 O 0.02144 0.83291 0.79437 0.0
O295 O 0.06932 0.82034 0.75531 0.0
C296 C 0.03998 0.91141 0.78389 0.0
C297 C 0.16948 0.84905 0.66801 0.0
C298 C 0.18226 0.84777 0.62058 0.0
C299 C 0.24094 0.83746 0.62404 0.0
C300 C 0.22801 0.83821 0.67103 0.0
C301 C 0.26349 0.83254 0.64914 0.0
C302 C 0.14643 0.85354 0.64262 0.0
C303 C 0.93858 0.90341 0.73192 0.0
C304 C 0.13348 0.85621 0.69139 0.0
C305 C 0.23348 0.96616 0.76302 0.0
C306 C 0.19656 0.98733 0.74854 0.0
C307 C 0.95825 0.81487 0.72959 0.0
C308 C 0.87837 0.84867 0.85544 0.0
C309 C 0.84763 0.84352 0.90112 0.0
C310 C 0.81751 0.81378 0.89477 0.0
C311 C 0.84803 0.81902 0.84961 0.0
C312 C 0.87812 0.86088 0.8812 0.0
C313 C 0.8179 0.80166 0.8692 0.0
C314 C 0.05926 0.81515 0.78038 0.0
C315 C 0.90944 0.86735 0.83476 0.0
H316 H 0.26909 0.83285 0.60725 0.0
H317 H 0.24663 0.83456 0.69035 0.0
H318 H 0.30869 0.82438 0.65163 0.0
H319 H 0.10114 0.86163 0.63997 0.0
H320 H 0.79269 0.80015 0.90948 0.0
H321 H 0.84716 0.80935 0.82997 0.0
H322 H 0.9019 0.88373 0.88569 0.0
H323 H 0.79434 0.77886 0.86449 0.0
Eu324 Eu 0.4207 0.64538 0.23189 0.0
C325 C 0.69203 0.64903 0.27041 0.0
N326 N 0.65495 0.62238 0.26834 0.0
C327 C 0.73339 0.58846 0.25149 0.0
C328 C 0.75162 0.64642 0.26268 0.0
C329 C 0.67467 0.59224 0.2594 0.0
C330 C 0.77202 0.61568 0.25307 0.0
C331 C 0.70724 0.70747 0.28176 0.0
C332 C 0.67005 0.67925 0.27989 0.0
C333 C 0.76668 0.70489 0.27416 0.0
C334 C 0.78878 0.67447 0.26464 0.0
Eu335 Eu 0.55773 0.63094 0.28308 0.0
N336 N 0.61171 0.68139 0.28619 0.0
C337 C 0.68329 0.73765 0.29076 0.0
C338 C 0.58844 0.71054 0.29547 0.0
C339 C 0.6237 0.73914 0.2977 0.0
H340 H 0.64539 0.57091 0.25889 0.0
H341 H 0.60493 0.76231 0.30488 0.0
H342 H 0.31612 0.6946 0.25705 0.0
H343 H 0.40727 0.51425 0.19998 0.0
H344 H 0.54296 0.71187 0.30137 0.0
H345 H 0.71038 0.75992 0.2924 0.0
H346 H 0.45218 0.56972 0.20375 0.0
H347 H 0.74891 0.56452 0.24436 0.0
H348 H 0.79581 0.72636 0.27535 0.0
H349 H 0.83467 0.67294 0.25874 0.0
H350 H 0.21243 0.69049 0.27179 0.0
H351 H 0.81752 0.61266 0.24694 0.0
H352 H 0.30583 0.50466 0.21627 0.0
N353 N 0.32145 0.6437 0.24558 0.0
C354 C 0.2928 0.61404 0.24279 0.0
C355 C 0.23455 0.66876 0.26378 0.0
C356 C 0.23353 0.61051 0.25087 0.0
C357 C 0.29336 0.67098 0.25565 0.0
C358 C 0.20451 0.63836 0.26145 0.0
N359 N 0.38094 0.59094 0.22526 0.0
C360 C 0.40984 0.56571 0.21258 0.0
C361 C 0.29494 0.55561 0.22988 0.0
C362 C 0.32349 0.58684 0.2326 0.0
C363 C 0.32618 0.52902 0.2187 0.0
C364 C 0.38357 0.53426 0.20966 0.0
H365 H 0.15899 0.63664 0.26788 0.0
H366 H 0.15999 0.57612 0.25468 0.0
H367 H 0.2136 0.52812 0.23618 0.0
O368 O 0.41974 0.64546 0.18846 0.0
O369 O 0.39963 0.61841 0.27002 0.0
O370 O 0.4869 0.5915 0.27751 0.0
O371 O 0.36951 0.68253 0.21071 0.0
O372 O 0.50528 0.62018 0.21738 0.0
O373 O 0.53793 0.59091 0.25338 0.0
O374 O 0.55946 0.63558 0.32589 0.0
O375 O 0.57879 0.66204 0.24658 0.0
O376 O 0.48833 0.68525 0.24019 0.0
O377 O 0.60219 0.59361 0.30704 0.0
O378 O 0.47818 0.66014 0.29781 0.0
O379 O 0.42828 0.68584 0.26322 0.0
C380 C 0.43069 0.59582 0.28262 0.0
C381 C 0.36378 0.68781 0.16366 0.0
C382 C 0.34197 0.68734 0.11669 0.0
C383 C 0.32489 0.72117 0.11847 0.0
C384 C 0.34668 0.72157 0.16472 0.0
C385 C 0.32752 0.73808 0.14226 0.0
C386 C 0.36168 0.67074 0.13954 0.0
C387 C 0.53871 0.59693 0.22815 0.0
C388 C 0.38454 0.67125 0.18782 0.0
C389 C 0.20542 0.57934 0.24849 0.0
C390 C 0.23603 0.55197 0.23803 0.0
C391 C 0.54413 0.68298 0.23409 0.0
C392 C 0.6448 0.61307 0.34644 0.0
C393 C 0.68396 0.61878 0.39065 0.0
C394 C 0.74134 0.61453 0.3808 0.0
C395 C 0.70273 0.60942 0.33689 0.0
C396 C 0.63575 0.61827 0.37336 0.0
C397 C 0.7506 0.61019 0.35402 0.0
C398 C 0.44116 0.68272 0.28841 0.0
C399 C 0.59348 0.60952 0.32892 0.0
H400 H 0.3083 0.73453 0.10155 0.0
H401 H 0.34844 0.73535 0.18295 0.0
H402 H 0.31424 0.76409 0.14333 0.0
H403 H 0.37537 0.64476 0.13858 0.0
H404 H 0.77904 0.615 0.39382 0.0
H405 H 0.71115 0.60539 0.31628 0.0
H406 H 0.59127 0.62108 0.38093 0.0
H407 H 0.79501 0.60715 0.34654 0.0
H408 H 0.15377 0.91894 0.34241 0.0
H409 H 0.19637 0.97059 0.41469 0.0
H410 H 0.17247 0.0246 0.39383 0.0
H411 H 0.21305 0.98397 0.29812 0.0
H412 H 0.15542 0.97803 0.27429 0.0
H413 H 0.17917 0.94339 0.29438 0.0
H414 H 0.07148 0.93435 0.31017 0.0
H415 H 0.0475 0.96891 0.29016 0.0
H416 H 0.03191 0.96877 0.32478 0.0
H417 H 0.13757 0.07214 0.36673 0.0
H418 H 0.09429 0.11102 0.33453 0.0
H419 H 0.07729 0.02971 0.2788 0.0
C420 C 0.15915 0.94168 0.35367 0.0
C421 C 0.1767 0.9405 0.38024 0.0
C422 C 0.1822 0.97079 0.39445 0.0
C423 C 0.16919 1.00163 0.38272 0.0
C424 C 0.15127 1.00186 0.35666 0.0
C425 C 0.14652 0.97279 0.34222 0.0
C426 C 0.12406 0.98008 0.31482 0.0
C427 C 0.17071 0.97082 0.29418 0.0
C428 C 0.06525 0.96195 0.3097 0.0
C429 C 0.11561 0.0177 0.31638 0.0
C430 C 0.13197 0.02967 0.34069 0.0
C431 C 0.12524 0.06318 0.34752 0.0
C432 C 0.1004 0.08501 0.32915 0.0
C433 C 0.08271 0.07332 0.30422 0.0
C434 C 0.09137 0.03934 0.29759 0.0
H435 H 0.34738 0.57896 0.84571 0.0
H436 H 0.27988 0.52369 0.91277 0.0
H437 H 0.3093 0.4707 0.89168 0.0
H438 H 0.29738 0.5197 0.79663 0.0
H439 H 0.36128 0.52578 0.77607 0.0
H440 H 0.33522 0.55944 0.79651 0.0
H441 H 0.43858 0.56407 0.81795 0.0
H442 H 0.46501 0.53054 0.79755 0.0
H443 H 0.47136 0.52743 0.83263 0.0
H444 H 0.34995 0.42406 0.86426 0.0
H445 H 0.39888 0.38688 0.83226 0.0
H446 H 0.43284 0.47197 0.78154 0.0
C447 C 0.33781 0.55575 0.85587 0.0
C448 C 0.31111 0.55566 0.88098 0.0
C449 C 0.30093 0.5246 0.89373 0.0
C450 C 0.317 0.49431 0.8818 0.0
C451 C 0.34266 0.49542 0.85699 0.0
C452 C 0.35284 0.52532 0.84413 0.0
C453 C 0.38165 0.51964 0.81769 0.0
C454 C 0.34148 0.53186 0.79541 0.0
C455 C 0.44277 0.53641 0.81639 0.0
C456 C 0.38677 0.48183 0.8178 0.0
C457 C 0.36409 0.46838 0.84071 0.0
C458 C 0.36712 0.43424 0.84613 0.0
C459 C 0.39495 0.41337 0.82789 0.0
C460 C 0.41873 0.42664 0.80442 0.0
C461 C 0.41363 0.46119 0.79908 0.0
H462 H 0.71635 0.56871 0.67098 0.0
H463 H 0.59019 0.56189 0.607 0.0
H464 H 0.54602 0.51247 0.62748 0.0
H465 H 0.73459 0.482 0.68301 0.0
H466 H 0.73515 0.48519 0.71816 0.0
H467 H 0.75999 0.51992 0.69847 0.0
H468 H 0.68447 0.55912 0.72092 0.0
H469 H 0.66011 0.52475 0.74116 0.0
H470 H 0.60753 0.54759 0.72159 0.0
H471 H 0.52203 0.46062 0.65197 0.0
H472 H 0.50799 0.4146 0.68332 0.0
H473 H 0.63389 0.4605 0.73592 0.0
C474 C 0.67893 0.55729 0.66136 0.0
C475 C 0.65851 0.56896 0.63674 0.0
C476 C 0.60915 0.55285 0.62511 0.0
C477 C 0.58295 0.52485 0.63677 0.0
C478 C 0.60498 0.51374 0.66059 0.0
C479 C 0.65072 0.52985 0.67318 0.0
C480 C 0.66394 0.51327 0.6993 0.0
C481 C 0.72717 0.49928 0.69974 0.0
C482 C 0.65335 0.53764 0.72209 0.0
C483 C 0.61859 0.48528 0.69917 0.0
C484 C 0.58609 0.4857 0.67634 0.0
C485 C 0.54566 0.46066 0.67037 0.0
C486 C 0.53751 0.43472 0.68845 0.0
C487 C 0.56751 0.4347 0.71273 0.0
C488 C 0.60882 0.46033 0.71803 0.0
H489 H 0.9066 0.93325 0.14556 0.0
H490 H 0.71803 0.94222 0.15819 0.0
H491 H 0.73435 0.99295 0.18498 0.0
H492 H 0.94832 0.95745 0.21097 0.0
H493 H 0.0134 0.97993 0.20069 0.0
H494 H 0.98681 0.94521 0.18158 0.0
H495 H 0.98175 0.9834 0.14053 0.0
H496 H 0.00825 0.01826 0.15954 0.0
H497 H 0.93973 0.02171 0.14186 0.0
H498 H 0.77085 0.04404 0.2084 0.0
H499 H 0.82541 0.08897 0.2306 0.0
H500 H 0.99109 0.04364 0.20677 0.0
C501 C 0.86897 0.94603 0.15401 0.0
C502 C 0.81109 0.93409 0.14996 0.0
C503 C 0.76267 0.95108 0.16132 0.0
C504 C 0.7715 0.97991 0.17641 0.0
C505 C 0.82911 0.99109 0.18016 0.0
C506 C 0.87711 0.97451 0.16957 0.0
C507 C 0.93452 0.99109 0.17752 0.0
C508 C 0.97302 0.96698 0.19365 0.0
C509 C 0.96802 0.0044 0.15343 0.0
C510 C 0.91121 0.01953 0.19419 0.0
C511 C 0.85029 0.01935 0.19513 0.0
C512 C 0.81862 0.04403 0.20828 0.0
C513 C 0.8501 0.06935 0.22111 0.0
C514 C 0.91262 0.0693 0.22143 0.0
C515 C 0.94333 0.04412 0.20748 0.0
H516 H 0.83847 0.07982 0.67372 0.0
H517 H 0.76798 0.02461 0.60762 0.0
H518 H 0.79088 0.97146 0.63003 0.0
H519 H 0.95572 0.02872 0.68561 0.0
H520 H 0.95459 0.02889 0.72099 0.0
H521 H 0.92611 0.06408 0.70291 0.0
H522 H 0.82432 0.06023 0.7243 0.0
H523 H 0.85117 0.02656 0.74462 0.0
H524 H 0.7857 0.02076 0.72512 0.0
H525 H 0.82716 0.92479 0.65762 0.0
H526 H 0.8765 0.88689 0.68876 0.0
H527 H 0.9215 0.9712 0.73803 0.0
C528 C 0.82652 0.05656 0.66423 0.0
C529 C 0.8014 0.05641 0.63887 0.0
C530 C 0.78786 0.02539 0.62687 0.0
C531 C 0.80017 0.99506 0.63956 0.0
C532 C 0.82545 0.99611 0.66437 0.0
C533 C 0.83813 0.02599 0.67672 0.0
C534 C 0.86844 0.01997 0.70279 0.0
C535 C 0.92991 0.03633 0.70312 0.0
C536 C 0.8301 0.03262 0.72556 0.0
C537 C 0.87222 0.98199 0.7028 0.0
C538 C 0.84651 0.96887 0.68052 0.0
C539 C 0.84688 0.93469 0.67527 0.0
C540 C 0.87518 0.91333 0.69298 0.0
C541 C 0.90245 0.92607 0.7157 0.0
C542 C 0.89988 0.96079 0.721 0.0
H543 H 0.65162 0.42076 0.17518 0.0
H544 H 0.72205 0.47393 0.10777 0.0
H545 H 0.69245 0.52765 0.12753 0.0
H546 H 0.52709 0.47099 0.18486 0.0
H547 H 0.52973 0.47013 0.22012 0.0
H548 H 0.56005 0.43588 0.20161 0.0
H549 H 0.66094 0.4436 0.22479 0.0
H550 H 0.63069 0.47777 0.24352 0.0
H551 H 0.69639 0.48404 0.22416 0.0
H552 H 0.64659 0.57496 0.15236 0.0
H553 H 0.59324 0.6131 0.18234 0.0
H554 H 0.55794 0.52985 0.23476 0.0
C555 C 0.66218 0.44373 0.16488 0.0
C556 C 0.6889 0.44308 0.13985 0.0
C557 C 0.70086 0.47374 0.12679 0.0
C558 C 0.68454 0.50442 0.13791 0.0
C559 C 0.65702 0.50412 0.1623 0.0
C560 C 0.6466 0.47465 0.1758 0.0
C561 C 0.61461 0.48128 0.20135 0.0
C562 C 0.55431 0.46351 0.202 0.0
C563 C 0.65296 0.47107 0.22485 0.0
C564 C 0.60753 0.51895 0.19977 0.0
C565 C 0.63229 0.53164 0.17707 0.0
C566 C 0.62788 0.56543 0.17041 0.0
C567 C 0.59732 0.58684 0.18742 0.0
C568 C 0.57221 0.57437 0.21085 0.0
C569 C 0.57781 0.54007 0.21717 0.0
H570 H 0.39816 0.43782 0.37863 0.0
H571 H 0.20923 0.45403 0.37625 0.0
H572 H 0.22446 0.50495 0.34921 0.0
H573 H 0.44274 0.52674 0.38002 0.0
H574 H 0.50551 0.52006 0.35894 0.0
H575 H 0.48021 0.4869 0.38018 0.0
H576 H 0.47029 0.44752 0.34016 0.0
H577 H 0.4952 0.48059 0.31882 0.0
H578 H 0.42549 0.46028 0.31276 0.0
H579 H 0.25995 0.55285 0.3217 0.0
H580 H 0.31254 0.59373 0.29417 0.0
H581 H 0.47869 0.54439 0.31165 0.0
C582 C 0.36032 0.45262 0.3728 0.0
C583 C 0.30257 0.44266 0.37972 0.0
C584 C 0.2537 0.4618 0.37131 0.0
C585 C 0.262 0.49061 0.35599 0.0
C586 C 0.31945 0.49966 0.34914 0.0
C587 C 0.36785 0.48127 0.35722 0.0
C588 C 0.42454 0.49535 0.34577 0.0
C589 C 0.46567 0.50801 0.36753 0.0
C590 C 0.45569 0.46939 0.32834 0.0
C591 C 0.40032 0.52419 0.3297 0.0
C592 C 0.33972 0.52645 0.33222 0.0
C593 C 0.30737 0.5512 0.31946 0.0
C594 C 0.33769 0.57419 0.30363 0.0
C595 C 0.39965 0.57192 0.30015 0.0
C596 C 0.43124 0.54665 0.31361 0.0
H597 H 0.22071 0.02847 0.88164 0.0
H598 H 0.13612 0.11314 0.8439 0.0
H599 H 0.08816 0.07482 0.81246 0.0
H600 H 0.2488 0.98191 0.82139 0.0
H601 H 0.23461 0.94145 0.83581 0.0
H602 H 0.26339 0.97498 0.85564 0.0
H603 H 0.17631 0.96906 0.88807 0.0
H604 H 0.14761 0.93497 0.8689 0.0
H605 H 0.10168 0.97072 0.87593 0.0
H606 H 0.043 0.0276 0.78794 0.0
H607 H 0.00708 0.97399 0.76992 0.0
H608 H 0.12722 0.91963 0.82044 0.0
C609 C 0.19212 0.03879 0.86668 0.0
C610 C 0.18173 0.07365 0.8651 0.0
C611 C 0.14458 0.08648 0.84526 0.0
C612 C 0.11728 0.06495 0.82737 0.0
C613 C 0.12846 0.03072 0.82935 0.0
C614 C 0.1654 0.01766 0.8483 0.0
C615 C 0.16959 0.97982 0.84607 0.0
C616 C 0.23286 0.96889 0.83932 0.0
C617 C 0.14747 0.96264 0.87124 0.0
C618 C 0.12799 0.97365 0.82336 0.0
C619 C 0.10466 0.00342 0.81412 0.0
C620 C 0.06159 0.00418 0.79472 0.0
C621 C 0.04125 0.97369 0.78472 0.0
C622 C 0.06488 0.94298 0.79371 0.0
C623 C 0.10942 0.94294 0.81297 0.0
H624 H 0.21741 0.16426 0.96669 0.0
H625 H 0.21596 0.05616 0.95657 0.0
H626 H 0.19517 0.04907 1.00356 0.0
H627 H 0.29528 0.16249 0.02769 0.0
H628 H 0.25591 0.19772 0.04114 0.0
H629 H 0.26612 0.19439 1.00628 0.0
H630 H 0.15296 0.1988 0.99967 0.0
H631 H 0.14238 0.2018 0.03456 0.0
H632 H 0.10486 0.16965 0.01627 0.0
H633 H 0.17554 0.05351 0.05206 0.0
H634 H 0.16935 0.06921 0.09887 0.0
H635 H 0.18979 0.17382 0.07757 0.0
C636 C 0.21334 0.13901 0.97424 0.0
C637 C 0.21766 0.11082 0.95755 0.0
C638 C 0.21131 0.07832 0.96857 0.0
C639 C 0.19978 0.07395 0.99535 0.0
C640 C 0.19538 0.10227 0.01108 0.0
C641 C 0.20276 0.13415 1.001 0.0
C642 C 0.19926 0.16032 0.02237 0.0
C643 C 0.25762 0.17987 0.02449 0.0
C644 C 0.14673 0.18404 0.01794 0.0
C645 C 0.18931 0.13814 0.04606 0.0
C646 C 0.18629 0.10476 0.03912 0.0
C647 C 0.17785 0.07958 0.05774 0.0
C648 C 0.17398 0.08871 0.08423 0.0
C649 C 0.17932 0.12267 0.09181 0.0
C650 C 0.18596 0.14763 0.07235 0.0
H651 H 0.36889 0.41319 0.46651 0.0
H652 H 0.23285 0.33623 0.46821 0.0
H653 H 0.2434 0.3319 0.51584 0.0
H654 H 0.45844 0.38274 0.52047 0.0
H655 H 0.47204 0.42408 0.53324 0.0
H656 H 0.4601 0.4183 0.49866 0.0
H657 H 0.37448 0.46133 0.4998 0.0
H658 H 0.38654 0.46746 0.53427 0.0
H659 H 0.31459 0.45534 0.52264 0.0
H660 H 0.26502 0.3374 0.56399 0.0
H661 H 0.2878 0.35741 0.60877 0.0
H662 H 0.40207 0.43396 0.57606 0.0
C663 C 0.34104 0.39539 0.47669 0.0
C664 C 0.30088 0.37458 0.46301 0.0
C665 C 0.26575 0.35167 0.47765 0.0
C666 C 0.27099 0.34914 0.50493 0.0
C667 C 0.31083 0.37002 0.51763 0.0
C668 C 0.34462 0.39306 0.50403 0.0
C669 C 0.37996 0.41478 0.52257 0.0
C670 C 0.44659 0.40965 0.51848 0.0
C671 C 0.36284 0.45192 0.51964 0.0
C672 C 0.35998 0.40069 0.5487 0.0
C673 C 0.32105 0.3744 0.54544 0.0
C674 C 0.29563 0.3579 0.5668 0.0
C675 C 0.30902 0.36925 0.59213 0.0
C676 C 0.34657 0.39716 0.59578 0.0
C677 C 0.37324 0.41252 0.57377 0.0
H678 H 0.75137 0.3424 0.04708 0.0
H679 H 0.59636 0.40318 0.06302 0.0
H680 H 0.56546 0.39736 0.01707 0.0
H681 H 0.77882 0.37165 0.98164 0.0
H682 H 0.79985 0.331 0.96949 0.0
H683 H 0.81162 0.34131 1.00339 0.0
H684 H 0.75122 0.28914 0.01752 0.0
H685 H 0.73934 0.27861 0.98367 0.0
H686 H 0.67717 0.28376 1.00536 0.0
H687 H 0.55066 0.38458 0.96947 0.0
H688 H 0.5511 0.36349 0.92396 0.0
H689 H 0.71269 0.30882 0.9398 0.0
C690 C 0.71069 0.35432 0.04105 0.0
C691 C 0.67671 0.37355 0.05875 0.0
C692 C 0.62405 0.38899 0.04979 0.0
C693 C 0.6058 0.38563 0.02374 0.0
C694 C 0.64028 0.36647 1.0069 0.0
C695 C 0.69139 0.35089 0.01521 0.0
C696 C 0.71944 0.33084 0.99337 0.0
C697 C 0.78108 0.34453 0.98657 0.0
C698 C 0.72191 0.29337 1.0004 0.0
C699 C 0.67591 0.33745 0.97153 0.0
C700 C 0.63084 0.3583 0.97966 0.0
C701 C 0.58563 0.36816 0.96287 0.0
C702 C 0.58633 0.35617 0.93708 0.0
C703 C 0.63163 0.33434 0.92849 0.0
C704 C 0.67701 0.32506 0.94598 0.0
H705 H 0.84304 0.17323 0.55608 0.0
H706 H 0.77344 0.07264 0.54647 0.0
H707 H 0.79138 0.07638 0.49887 0.0
H708 H 0.77621 0.20704 0.49912 0.0
H709 H 0.83725 0.23429 0.49133 0.0
H710 H 0.82326 0.22256 0.52481 0.0
H711 H 0.93018 0.19996 0.52877 0.0
H712 H 0.94443 0.21152 0.49523 0.0
H713 H 0.95611 0.16895 0.50586 0.0
H714 H 0.81141 0.09262 0.45168 0.0
H715 H 0.82892 0.12077 0.40915 0.0
H716 H 0.88596 0.21019 0.45018 0.0
C717 C 0.83146 0.15194 0.54403 0.0
C718 C 0.80705 0.12257 0.55514 0.0
C719 C 0.79316 0.09522 0.53856 0.0
C720 C 0.80293 0.09714 0.51145 0.0
C721 C 0.82667 0.12657 0.50117 0.0
C722 C 0.84068 0.15347 0.51698 0.0
C723 C 0.86308 0.18282 0.50103 0.0
C724 C 0.82253 0.21348 0.50427 0.0
C725 C 0.92727 0.19129 0.50815 0.0
C726 C 0.85889 0.16837 0.47375 0.0
C727 C 0.83811 0.13585 0.47416 0.0
C728 C 0.82826 0.11799 0.45113 0.0
C729 C 0.83874 0.1341 0.42706 0.0
C730 C 0.85867 0.16775 0.42626 0.0
C731 C 0.87012 0.1846 0.45004 0.0
H732 H 0.82576 0.82751 0.05632 0.0
H733 H 0.79301 0.93469 0.05867 0.0
H734 H 0.80907 0.93803 0.01102 0.0
H735 H 0.93739 0.82826 1.00561 0.0
H736 H 0.91074 0.79045 0.99045 0.0
H737 H 0.90073 0.79675 0.02509 0.0
H738 H 0.78795 0.78786 0.01991 0.0
H739 H 0.79767 0.78146 0.98529 0.0
H740 H 0.74763 0.81328 0.99685 0.0
H741 H 0.82449 0.92935 0.96264 0.0
H742 H 0.83463 0.90877 0.91724 0.0
H743 H 0.85573 0.80736 0.94666 0.0
C744 C 0.82188 0.85173 0.04689 0.0
C745 C 0.80875 0.88089 0.06145 0.0
C746 C 0.80446 0.91207 0.04818 0.0
C747 C 0.81309 0.91422 0.02104 0.0
C748 C 0.82571 0.88497 1.00734 0.0
C749 C 0.82988 0.8543 0.0198 0.0
C750 C 0.84135 0.82641 1.00043 0.0
C751 C 0.90112 0.80948 1.00572 0.0
C752 C 0.79062 0.80075 1.00064 0.0
C753 C 0.84258 0.84617 0.97513 0.0
C754 C 0.83383 0.87993 0.9795 0.0
C755 C 0.83175 0.90298 0.95898 0.0
C756 C 0.83793 0.89108 0.93328 0.0
C757 C 0.84587 0.85644 0.92836 0.0
C758 C 0.84905 0.83393 0.94971 0.0
H759 H 0.73406 0.58252 0.54257 0.0
H760 H 0.6595 0.68068 0.55757 0.0
H761 H 0.63903 0.6877 0.51038 0.0
H762 H 0.80712 0.6048 0.48313 0.0
H763 H 0.79328 0.56527 0.46729 0.0
H764 H 0.79878 0.56719 0.5024 0.0
H765 H 0.69552 0.53972 0.50668 0.0
H766 H 0.68953 0.53787 0.47153 0.0
H767 H 0.63323 0.55863 0.49046 0.0
H768 H 0.62573 0.68386 0.46178 0.0
H769 H 0.63073 0.67194 0.41422 0.0
H770 H 0.7186 0.57778 0.43057 0.0
C771 C 0.71316 0.60536 0.53585 0.0
C772 C 0.69833 0.63109 0.55357 0.0
C773 C 0.6716 0.66083 0.54417 0.0
C774 C 0.65939 0.66492 0.51749 0.0
C775 C 0.67446 0.63909 0.50048 0.0
C776 C 0.70134 0.61004 0.5092 0.0
C777 C 0.71584 0.58693 0.48663 0.0
C778 C 0.78273 0.5807 0.48475 0.0
C779 C 0.68147 0.55383 0.48897 0.0
C780 C 0.69374 0.60777 0.46386 0.0
C781 C 0.66893 0.63746 0.47232 0.0
C782 C 0.64513 0.66073 0.45489 0.0
C783 C 0.64789 0.65375 0.42801 0.0
C784 C 0.67518 0.6241 0.41897 0.0
C785 C 0.69773 0.6007 0.43713 0.0
H786 H 0.32724 0.6766 0.96065 0.0
H787 H 0.25233 0.57718 0.97 0.0
H788 H 0.26504 0.58121 0.01784 0.0
H789 H 0.43591 0.66955 0.01204 0.0
H790 H 0.42749 0.71228 0.02275 0.0
H791 H 0.41375 0.7015 0.98907 0.0
H792 H 0.30869 0.72691 0.99232 0.0
H793 H 0.32233 0.73798 0.02593 0.0
H794 H 0.25931 0.71255 0.0177 0.0
H795 H 0.28415 0.59638 0.06489 0.0
H796 H 0.30333 0.62302 0.10767 0.0
H797 H 0.3675 0.71197 0.06763 0.0
C798 C 0.31307 0.6558 0.97277 0.0
C799 C 0.28906 0.62649 0.96151 0.0
C800 C 0.27162 0.5997 0.97811 0.0
C801 C 0.27854 0.60176 1.00533 0.0
C802 C 0.30301 0.63078 0.01576 0.0
C803 C 0.31978 0.65739 1.00003 0.0
C804 C 0.344 0.68595 0.01628 0.0
C805 C 0.40916 0.6927 0.00963 0.0
C806 C 0.30632 0.71772 0.01285 0.0
C807 C 0.33743 0.67139 0.04355 0.0
C808 C 0.3141 0.63947 0.04285 0.0
C809 C 0.30274 0.62133 0.06569 0.0
C810 C 0.31423 0.63658 0.08992 0.0
C811 C 0.33673 0.66967 0.09112 0.0
C812 C 0.34959 0.68683 0.06749 0.0
H813 H 0.21018 0.90941 0.47386 0.0
H814 H 0.10488 0.8233 0.45217 0.0
H815 H 0.0829 0.81239 0.49898 0.0
H816 H 0.27852 0.87148 0.52674 0.0
H817 H 0.281 0.90833 0.54704 0.0
H818 H 0.27996 0.91257 0.512 0.0
H819 H 0.18732 0.95044 0.51525 0.0
H820 H 0.18797 0.94624 0.5504 0.0
H821 H 0.12267 0.93534 0.53219 0.0
H822 H 0.07909 0.80842 0.54822 0.0
H823 H 0.10199 0.80832 0.59571 0.0
H824 H 0.2146 0.89491 0.58492 0.0
C825 C 0.18107 0.88889 0.47903 0.0
C826 C 0.15812 0.86753 0.4596 0.0
C827 C 0.12208 0.84012 0.46692 0.0
C828 C 0.10925 0.83387 0.49338 0.0
C829 C 0.1332 0.85516 0.5122 0.0
C830 C 0.1687 0.88201 0.50534 0.0
C831 C 0.19457 0.89874 0.52929 0.0
C832 C 0.26252 0.89769 0.52873 0.0
C833 C 0.17176 0.93483 0.53193 0.0
C834 C 0.1697 0.87649 0.55065 0.0
C835 C 0.13312 0.85203 0.54049 0.0
C836 C 0.10707 0.82769 0.55642 0.0
C837 C 0.12004 0.82786 0.5833 0.0
C838 C 0.15945 0.8518 0.59373 0.0
C839 C 0.18363 0.87671 0.57731 0.0
H840 H 0.16617 0.34856 0.3603 0.0
H841 H 0.31199 0.28981 0.39055 0.0
H842 H 0.27752 0.24084 0.3652 0.0
H843 H 0.0583 0.28221 0.36257 0.0
H844 H 0.02178 0.29492 0.33284 0.0
H845 H 0.05871 0.32563 0.35275 0.0
H846 H 0.12171 0.34397 0.31276 0.0
H847 H 0.08489 0.31331 0.29275 0.0
H848 H 0.16423 0.31306 0.29526 0.0
H849 H 0.22971 0.19922 0.33556 0.0
H850 H 0.16688 0.16562 0.30635 0.0
H851 H 0.04824 0.25014 0.29684 0.0
C852 C 0.19088 0.32538 0.36143 0.0
C853 C 0.24191 0.32287 0.37722 0.0
C854 C 0.27273 0.2921 0.3786 0.0
C855 C 0.25362 0.26428 0.36422 0.0
C856 C 0.20326 0.26757 0.34879 0.0
C857 C 0.17189 0.29719 0.34749 0.0
C858 C 0.11823 0.29367 0.32996 0.0
C859 C 0.06087 0.29944 0.34546 0.0
C860 C 0.12255 0.31741 0.30628 0.0
C861 C 0.12426 0.25739 0.32168 0.0
C862 C 0.17411 0.24301 0.33251 0.0
C863 C 0.1903 0.2101 0.32716 0.0
C864 C 0.15437 0.19127 0.31048 0.0
C865 C 0.10243 0.20521 0.29952 0.0
C866 C 0.08723 0.23872 0.30524 0.0
H867 H 0.24389 0.18867 0.85111 0.0
H868 H 0.37947 0.16655 0.90847 0.0
H869 H 0.44424 0.2093 0.88817 0.0
H870 H 0.33995 0.19811 0.79764 0.0
H871 H 0.30052 0.23187 0.78226 0.0
H872 H 0.26132 0.20206 0.80225 0.0
H873 H 0.22034 0.24909 0.83164 0.0
H874 H 0.25731 0.27983 0.81159 0.0
H875 H 0.27041 0.27865 0.84637 0.0
H876 H 0.4972 0.25093 0.85918 0.0
H877 H 0.53113 0.29153 0.82583 0.0
H878 H 0.36003 0.28766 0.78842 0.0
C879 C 0.28703 0.19304 0.85955 0.0
C880 C 0.30672 0.17428 0.88137 0.0
C881 C 0.36328 0.18087 0.89194 0.0
C882 C 0.40046 0.20495 0.88045 0.0
C883 C 0.38013 0.22244 0.85859 0.0
C884 C 0.32443 0.2171 0.84846 0.0
C885 C 0.31381 0.23844 0.82437 0.0
C886 C 0.30325 0.2163 0.80021 0.0
C887 C 0.26241 0.26296 0.82877 0.0
C888 C 0.37227 0.25669 0.82248 0.0
C889 C 0.41011 0.24688 0.84226 0.0
C890 C 0.46762 0.25904 0.8438 0.0
C891 C 0.4867 0.28196 0.82473 0.0
C892 C 0.44846 0.29285 0.80458 0.0
C893 C 0.39033 0.28008 0.80361 0.0
H894 H 0.65863 0.1533 0.6531 0.0
H895 H 0.81385 0.20746 0.62689 0.0
H896 H 0.78133 0.25725 0.65184 0.0
H897 H 0.55894 0.22552 0.64931 0.0
H898 H 0.51679 0.21288 0.67762 0.0
H899 H 0.55181 0.18172 0.65739 0.0
H900 H 0.60618 0.15813 0.69803 0.0
H901 H 0.57151 0.18928 0.71835 0.0
H902 H 0.65084 0.18577 0.71764 0.0
H903 H 0.7338 0.30024 0.68038 0.0
H904 H 0.67128 0.33509 0.70922 0.0
H905 H 0.54633 0.25347 0.71698 0.0
C906 C 0.68554 0.17573 0.65266 0.0
C907 C 0.73881 0.17673 0.63827 0.0
C908 C 0.77281 0.20644 0.63779 0.0
C909 C 0.75477 0.23471 0.65191 0.0
C910 C 0.70221 0.23292 0.66606 0.0
C911 C 0.66763 0.20438 0.6663 0.0
C912 C 0.61256 0.20934 0.68277 0.0
C913 C 0.55673 0.20724 0.66576 0.0
C914 C 0.61018 0.18414 0.70556 0.0
C915 C 0.62258 0.24474 0.69244 0.0
C916 C 0.67443 0.25789 0.68241 0.0
C917 C 0.69322 0.29019 0.6884 0.0
C918 C 0.65791 0.30964 0.70497 0.0
C919 C 0.60499 0.29659 0.71554 0.0
C920 C 0.58685 0.26384 0.70913 0.0
H921 H 0.81597 0.35103 0.16717 0.0
H922 H 0.70596 0.28593 0.11961 0.0
H923 H 0.7505 0.23668 0.14058 0.0
H924 H 0.94436 0.30071 0.16862 0.0
H925 H 0.9615 0.30882 0.20246 0.0
H926 H 0.92163 0.33949 0.18358 0.0
H927 H 0.83705 0.33897 0.21783 0.0
H928 H 0.87686 0.30845 0.23693 0.0
H929 H 0.80245 0.29979 0.22649 0.0
H930 H 0.81119 0.19433 0.16433 0.0
H931 H 0.87815 0.1615 0.19271 0.0
H932 H 0.94085 0.2532 0.22847 0.0
C933 C 0.80038 0.32651 0.16139 0.0
C934 C 0.75802 0.32266 0.14124 0.0
C935 C 0.73962 0.28985 0.13429 0.0
C936 C 0.76423 0.26158 0.1463 0.0
C937 C 0.80633 0.26633 0.16572 0.0
C938 C 0.8236 0.29792 0.17358 0.0
C939 C 0.86892 0.29591 0.19536 0.0
C940 C 0.92756 0.3122 0.18699 0.0
C941 C 0.84487 0.31171 0.22065 0.0
C942 C 0.87512 0.25826 0.19812 0.0
C943 C 0.8389 0.24171 0.18064 0.0
C944 C 0.83919 0.20694 0.17834 0.0
C945 C 0.87749 0.18855 0.19436 0.0
C946 C 0.91405 0.20495 0.2127 0.0
C947 C 0.91256 0.24019 0.21477 0.0
H948 H 0.80525 0.65102 0.6693 0.0
H949 H 0.73183 0.7183 0.6107 0.0
H950 H 0.78381 0.76545 0.6308 0.0
H951 H 0.79016 0.71115 0.72377 0.0
H952 H 0.85711 0.69667 0.73915 0.0
H953 H 0.81386 0.66835 0.71963 0.0
H954 H 0.90804 0.65609 0.69202 0.0
H955 H 0.9498 0.68571 0.71106 0.0
H956 H 0.94563 0.69029 0.676 0.0
H957 H 0.84998 0.80413 0.65379 0.0
H958 H 0.9138 0.83539 0.68419 0.0
H959 H 0.9332 0.74699 0.73265 0.0
C960 C 0.79936 0.67572 0.66091 0.0
C961 C 0.76567 0.68054 0.63783 0.0
C962 C 0.75918 0.71344 0.62764 0.0
C963 C 0.78818 0.74058 0.63905 0.0
C964 C 0.8223 0.73478 0.66115 0.0
C965 C 0.82695 0.70347 0.67249 0.0
C966 C 0.86503 0.70484 0.69694 0.0
C967 C 0.82935 0.69467 0.72132 0.0
C968 C 0.9204 0.68293 0.6938 0.0
C969 C 0.8809 0.74182 0.6974 0.0
C970 C 0.85663 0.75825 0.67614 0.0
C971 C 0.86798 0.79183 0.6709 0.0
C972 C 0.90396 0.80942 0.68823 0.0
C973 C 0.9265 0.79381 0.71088 0.0
C974 C 0.91538 0.7595 0.71557 0.0
H975 H 0.77738 0.80891 0.16905 0.0
H976 H 0.64406 0.83083 0.11067 0.0
H977 H 0.57794 0.78866 0.13076 0.0
H978 H 0.74814 0.71785 0.17218 0.0
H979 H 0.76153 0.71564 0.20693 0.0
H980 H 0.79941 0.74644 0.18725 0.0
H981 H 0.7598 0.79352 0.21743 0.0
H982 H 0.7219 0.76275 0.23703 0.0
H983 H 0.6814 0.79714 0.22288 0.0
H984 H 0.52283 0.74938 0.15975 0.0
H985 H 0.48534 0.71012 0.19309 0.0
H986 H 0.65697 0.70891 0.23045 0.0
C987 C 0.7345 0.80441 0.16039 0.0
C988 C 0.71552 0.82295 0.13835 0.0
C989 C 0.65933 0.81659 0.12743 0.0
C990 C 0.62153 0.79283 0.13874 0.0
C991 C 0.64112 0.77527 0.16067 0.0
C992 C 0.69666 0.78022 0.17113 0.0
C993 C 0.70647 0.75801 0.19488 0.0
C994 C 0.75688 0.733 0.19001 0.0
C995 C 0.71805 0.77913 0.21951 0.0
C996 C 0.64728 0.74036 0.19642 0.0
C997 C 0.61018 0.751 0.17662 0.0
C998 C 0.55184 0.74032 0.17502 0.0
C999 C 0.53088 0.71806 0.19408 0.0
C1000 C 0.56833 0.70614 0.21419 0.0
C1001 C 0.62751 0.71723 0.21518 0.0
H1002 H 0.23656 0.83242 0.34151 0.0
H1003 H 0.31029 0.81146 0.41836 0.0
H1004 H 0.37071 0.76657 0.39952 0.0
H1005 H 0.23151 0.74821 0.31814 0.0
H1006 H 0.25455 0.75833 0.28527 0.0
H1007 H 0.2156 0.78894 0.30457 0.0
H1008 H 0.30086 0.83137 0.29769 0.0
H1009 H 0.33988 0.80098 0.2782 0.0
H1010 H 0.37512 0.8195 0.30628 0.0
H1011 H 0.4201 0.72292 0.37352 0.0
H1012 H 0.46117 0.68436 0.34105 0.0
H1013 H 0.36428 0.73597 0.27956 0.0
C1014 C 0.26578 0.81862 0.35435 0.0
C1015 C 0.26746 0.82518 0.38161 0.0
C1016 C 0.30644 0.80637 0.39763 0.0
C1017 C 0.34152 0.78095 0.38707 0.0
C1018 C 0.33813 0.77487 0.36034 0.0
C1019 C 0.30195 0.79332 0.34406 0.0
C1020 C 0.30802 0.78178 0.31586 0.0
C1021 C 0.2489 0.76853 0.30535 0.0
C1022 C 0.33244 0.81009 0.29848 0.0
C1023 C 0.35266 0.7537 0.31903 0.0
C1024 C 0.36898 0.75019 0.34492 0.0
C1025 C 0.40804 0.72551 0.35313 0.0
C1026 C 0.4311 0.70365 0.3344 0.0
C1027 C 0.41564 0.70666 0.30758 0.0
C1028 C 0.3763 0.73242 0.29985 0.0
H1029 H 0.16802 0.69239 0.89613 0.0
H1030 H 0.30747 0.66177 0.8428 0.0
H1031 H 0.2713 0.70164 0.80991 0.0
H1032 H 0.05551 0.70375 0.8494 0.0
H1033 H 0.0246 0.74126 0.86342 0.0
H1034 H 0.06219 0.7115 0.88404 0.0
H1035 H 0.13292 0.75802 0.90022 0.0
H1036 H 0.09497 0.78803 0.8799 0.0
H1037 H 0.17362 0.78257 0.87664 0.0
H1038 H 0.2151 0.73887 0.78104 0.0
H1039 H 0.15023 0.77927 0.75925 0.0
H1040 H 0.05062 0.7915 0.83149 0.0
C1041 C 0.19155 0.69463 0.87773 0.0
C1042 C 0.23986 0.67334 0.87184 0.0
C1043 C 0.26945 0.67708 0.84752 0.0
C1044 C 0.24943 0.69978 0.82871 0.0
C1045 C 0.20047 0.71931 0.83462 0.0
C1046 C 0.17258 0.71775 0.85867 0.0
C1047 C 0.12089 0.74207 0.85958 0.0
C1048 C 0.06234 0.72352 0.8644 0.0
C1049 C 0.13123 0.76929 0.88032 0.0
C1050 C 0.1235 0.75665 0.83207 0.0
C1051 C 0.16964 0.74284 0.81809 0.0
C1052 C 0.17956 0.7505 0.7919 0.0
C1053 C 0.14213 0.7735 0.77967 0.0
C1054 C 0.09577 0.78927 0.79369 0.0
C1055 C 0.08618 0.7804 0.82028 0.0
loop_
_geom_bond_atom_site_label_1
_geom_bond_atom_site_label_2
_geom_bond_distance
_geom_bond_site_symmetry_2
_ccdc_geom_bond_type
H0 C3 0.931 . S
H1 C6 0.928 . S
H2 C8 0.930 . S
C3 H0 0.931 . S
C3 C4 1.413 . S
C3 C5 1.360 . S
C4 C3 1.413 . S
C4 C8 1.429 . S
C5 C3 1.360 . S
C5 C6 1.372 . S
C6 H1 0.928 . S
C6 C5 1.372 . S
C6 C7 1.404 . S
C7 C6 1.404 . S
C7 C8 1.391 . S
C8 H2 0.930 . S
C8 C4 1.429 . S
C8 C7 1.391 . S
H9 C12 0.931 . S
H10 C15 0.928 . S
H11 C17 0.930 . S
C12 H9 0.931 . S
C12 C13 1.413 . S
C12 C14 1.360 . S
C13 C12 1.413 . S
C13 C17 1.429 . S
C14 C12 1.360 . S
C14 C15 1.372 . S
C15 H10 0.928 . S
C15 C14 1.372 . S
C15 C16 1.404 . S
C16 C15 1.404 . S
C16 C17 1.391 . S
C17 H11 0.930 . S
C17 C13 1.429 . S
C17 C16 1.391 . S
H18 C21 0.931 . S
H19 C24 0.928 . S
H20 C26 0.930 . S
C21 H18 0.931 . S
C21 C22 1.413 . S
C21 C23 1.360 . S
C22 C21 1.413 . S
C22 C26 1.429 . S
C23 C21 1.360 . S
C23 C24 1.372 . S
C24 H19 0.928 . S
C24 C23 1.372 . S
C24 C25 1.404 . S
C25 C24 1.404 . S
C25 C26 1.391 . S
C26 H20 0.930 . S
C26 C22 1.429 . S
C26 C25 1.391 . S
H27 C30 0.931 . S
H28 C33 0.928 . S
H29 C35 0.930 . S
C30 H27 0.931 . S
C30 C31 1.413 . S
C30 C32 1.360 . S
C31 C30 1.413 . S
C31 C35 1.429 . S
C32 C30 1.360 . S
C32 C33 1.372 . S
C33 H28 0.928 . S
C33 C32 1.372 . S
C33 C34 1.404 . S
C34 C33 1.404 . S
C34 C35 1.391 . S
C35 H29 0.930 . S
C35 C31 1.429 . S
C35 C34 1.391 . S
H36 C39 0.931 . S
H37 C42 0.928 . S
H38 C44 0.930 . S
C39 H36 0.931 . S
C39 C40 1.413 . S
C39 C41 1.360 . S
C40 C39 1.413 . S
C40 C44 1.429 . S
C41 C39 1.360 . S
C41 C42 1.372 . S
C42 H37 0.928 . S
C42 C41 1.372 . S
C42 C43 1.404 . S
C43 C42 1.404 . S
C43 C44 1.391 . S
C44 H38 0.930 . S
C44 C40 1.429 . S
C44 C43 1.391 . S
H45 C48 0.931 . S
H46 C51 0.928 . S
H47 C53 0.930 . S
C48 H45 0.931 . S
C48 C49 1.413 . S
C48 C50 1.360 . S
C49 C48 1.413 . S
C49 C53 1.429 . S
C50 C48 1.360 . S
C50 C51 1.372 . S
C51 H46 0.928 . S
C51 C50 1.372 . S
C51 C52 1.404 . S
C52 C51 1.404 . S
C52 C53 1.391 . S
C53 H47 0.930 . S
C53 C49 1.429 . S
C53 C52 1.391 . S
H54 C57 0.931 . S
H55 C60 0.928 . S
H56 C62 0.930 . S
C57 H54 0.931 . S
C57 C58 1.413 . S
C57 C59 1.360 . S
C58 C57 1.413 . S
C58 C62 1.429 . S
C59 C57 1.360 . S
C59 C60 1.372 . S
C60 H55 0.928 . S
C60 C59 1.372 . S
C60 C61 1.404 . S
C61 C60 1.404 . S
C61 C62 1.391 . S
C62 H56 0.930 . S
C62 C58 1.429 . S
C62 C61 1.391 . S
H63 C66 0.931 . S
H64 C69 0.928 . S
H65 C71 0.930 . S
C66 H63 0.931 . S
C66 C67 1.413 . S
C66 C68 1.360 . S
C67 C66 1.413 . S
C67 C71 1.429 . S
C68 C66 1.360 . S
C68 C69 1.372 . S
C69 H64 0.928 . S
C69 C68 1.372 . S
C69 C70 1.404 . S
C70 C69 1.404 . S
C70 C71 1.391 . S
C71 H65 0.930 . S
C71 C67 1.429 . S
C71 C70 1.391 . S
Eu72 N101 2.600 . S
Eu72 N107 2.562 . S
Eu72 O116 2.462 . S
Eu72 O117 2.373 . S
Eu72 O119 2.432 . S
Eu72 O120 2.288 1_455 S
Eu72 O124 2.347 . S
Eu72 O127 2.372 . S
Eu72 C136 2.787 . S
C73 N74 1.365 . S
C73 C76 1.405 . S
C73 C80 1.448 . S
N74 C73 1.365 . S
N74 C77 1.319 . S
N74 Eu83 2.600 . S
C75 C77 1.397 . S
C75 C78 1.367 . S
C75 H95 0.931 . S
C76 C73 1.405 . S
C76 C78 1.403 . S
C76 C82 1.439 . S
C77 N74 1.319 . S
C77 C75 1.397 . S
C77 H88 0.930 . S
C78 C75 1.367 . S
C78 C76 1.403 . S
C78 H99 0.929 . S
C79 C80 1.430 . S
C79 C81 1.387 . S
C79 C85 1.404 . S
C80 C73 1.448 . S
C80 C79 1.430 . S
C80 N84 1.351 . S
C81 C79 1.387 . S
C81 C82 1.374 . S
C81 H96 0.931 . S
C82 C76 1.439 . S
C82 C81 1.374 . S
C82 H97 0.931 . S
Eu83 N74 2.600 . S
Eu83 N84 2.562 . S
Eu83 O118 2.334 . S
Eu83 O121 2.372 . S
Eu83 O122 2.462 . S
Eu83 O123 2.373 . S
Eu83 O125 2.432 . S
Eu83 O126 2.291 1_655 S
Eu83 C147 2.787 . S
N84 C80 1.351 . S
N84 Eu83 2.562 . S
N84 C86 1.325 . S
C85 C79 1.404 . S
C85 C87 1.366 . S
C85 H93 0.930 . S
C86 N84 1.325 . S
C86 C87 1.416 . S
C86 H92 0.929 . S
C87 C85 1.366 . S
C87 C86 1.416 . S
C87 H89 0.930 . S
H88 C77 0.930 . S
H89 C87 0.930 . S
H90 C105 0.930 . S
H91 C112 0.930 . S
H92 C86 0.929 . S
H93 C85 0.930 . S
H94 C108 0.929 . S
H95 C75 0.931 . S
H96 C81 0.931 . S
H97 C82 0.931 . S
H98 C103 0.931 . S
H99 C78 0.929 . S
H100 C111 0.930 . S
N101 Eu72 2.600 . S
N101 C102 1.365 . S
N101 C105 1.319 . S
C102 N101 1.365 . S
C102 C104 1.405 . S
C102 C110 1.448 . S
C103 H98 0.931 . S
C103 C105 1.397 . S
C103 C106 1.367 . S
C104 C102 1.405 . S
C104 C106 1.403 . S
C104 C137 1.439 . S
C105 H90 0.930 . S
C105 N101 1.319 . S
C105 C103 1.397 . S
C106 C103 1.367 . S
C106 C104 1.403 . S
C106 H113 0.929 . S
N107 Eu72 2.562 . S
N107 C108 1.325 . S
N107 C110 1.351 . S
C108 H94 0.929 . S
C108 N107 1.325 . S
C108 C112 1.416 . S
C109 C110 1.430 . S
C109 C111 1.404 . S
C109 C138 1.387 . S
C110 C102 1.448 . S
C110 N107 1.351 . S
C110 C109 1.430 . S
C111 H100 0.930 . S
C111 C109 1.404 . S
C111 C112 1.366 . S
C112 H91 0.930 . S
C112 C108 1.416 . S
C112 C111 1.366 . S
H113 C106 0.929 . S
H114 C137 0.931 . S
H115 C138 0.931 . S
O116 Eu72 2.462 . S
O116 C136 1.252 . S
O117 Eu72 2.373 . S
O117 C128 1.249 . S
O118 Eu83 2.334 . S
O118 C128 1.266 1_655 S
O119 Eu72 2.432 . S
O119 C136 1.268 . S
O120 Eu72 2.288 1_655 S
O120 C135 1.259 . S
O121 Eu83 2.372 . S
O121 C135 1.257 . S
O122 Eu83 2.462 . S
O122 C147 1.252 . S
O123 Eu83 2.373 . S
O123 C139 1.249 . S
O124 Eu72 2.347 . S
O124 C139 1.249 1_455 S
O125 Eu83 2.432 . S
O125 C147 1.268 . S
O126 Eu83 2.291 1_455 S
O126 C146 1.255 . S
O127 Eu72 2.372 . S
O127 C146 1.257 . S
C128 O117 1.249 . S
C128 O118 1.266 1_455 S
C129 C132 1.382 . S
C129 C134 1.390 . S
C129 C136 1.506 . S
C130 C131 1.398 . S
C130 C134 1.392 . S
C131 C130 1.398 . S
C131 C133 1.372 . S
C131 H148 0.931 . S
C132 C129 1.382 . S
C132 C133 1.390 . S
C132 H149 0.931 . S
C133 C131 1.372 . S
C133 C132 1.390 . S
C133 H150 0.929 . S
C134 C129 1.390 . S
C134 C130 1.392 . S
C134 H151 0.930 . S
C135 O120 1.259 . S
C135 O121 1.257 . S
C136 Eu72 2.787 . S
C136 O116 1.252 . S
C136 O119 1.268 . S
C136 C129 1.506 . S
C137 C104 1.439 . S
C137 H114 0.931 . S
C137 C138 1.374 . S
C138 C109 1.387 . S
C138 H115 0.931 . S
C138 C137 1.374 . S
C139 O123 1.249 . S
C139 O124 1.249 1_655 S
C140 C143 1.382 . S
C140 C144 1.390 . S
C140 C147 1.506 . S
C141 C142 1.398 . S
C141 C144 1.392 . S
C142 C141 1.398 . S
C142 C145 1.372 . S
C142 H152 0.931 . S
C143 C140 1.382 . S
C143 C145 1.390 . S
C143 H153 0.931 . S
C144 C140 1.390 . S
C144 C141 1.392 . S
C144 H154 0.930 . S
C145 C142 1.372 . S
C145 C143 1.390 . S
C145 H155 0.929 . S
C146 O126 1.255 . S
C146 O127 1.257 . S
C147 Eu83 2.787 . S
C147 O122 1.252 . S
C147 O125 1.268 . S
C147 C140 1.506 . S
H148 C131 0.931 . S
H149 C132 0.931 . S
H150 C133 0.929 . S
H151 C134 0.930 . S
H152 C142 0.931 . S
H153 C143 0.931 . S
H154 C144 0.930 . S
H155 C145 0.929 . S
Eu156 N185 2.600 . S
Eu156 N191 2.562 . S
Eu156 O200 2.462 . S
Eu156 O201 2.373 . S
Eu156 O203 2.432 . S
Eu156 O204 2.291 . S
Eu156 O208 2.335 . S
Eu156 O211 2.372 . S
Eu156 C220 2.787 . S
C157 N158 1.365 . S
C157 C160 1.405 . S
C157 C164 1.448 . S
N158 C157 1.365 . S
N158 C161 1.319 . S
N158 Eu167 2.600 . S
C159 C161 1.397 . S
C159 C162 1.367 . S
C159 H179 0.931 . S
C160 C157 1.405 . S
C160 C162 1.403 . S
C160 C166 1.439 . S
C161 N158 1.319 . S
C161 C159 1.397 . S
C161 H172 0.930 . S
C162 C159 1.367 . S
C162 C160 1.403 . S
C162 H183 0.929 . S
C163 C164 1.430 . S
C163 C165 1.387 . S
C163 C169 1.404 . S
C164 C157 1.448 . S
C164 C163 1.430 . S
C164 N168 1.351 . S
C165 C163 1.387 . S
C165 C166 1.374 . S
C165 H180 0.931 . S
C166 C160 1.439 . S
C166 C165 1.374 . S
C166 H181 0.931 . S
Eu167 N158 2.600 . S
Eu167 N168 2.562 . S
Eu167 O202 2.335 . S
Eu167 O205 2.372 . S
Eu167 O206 2.462 . S
Eu167 O207 2.373 . S
Eu167 O209 2.432 . S
Eu167 O210 2.291 . S
Eu167 C231 2.787 . S
N168 C164 1.351 . S
N168 Eu167 2.562 . S
N168 C170 1.325 . S
C169 C163 1.404 . S
C169 C171 1.366 . S
C169 H177 0.930 . S
C170 N168 1.325 . S
C170 C171 1.416 . S
C170 H176 0.929 . S
C171 C169 1.366 . S
C171 C170 1.416 . S
C171 H173 0.930 . S
H172 C161 0.930 . S
H173 C171 0.930 . S
H174 C189 0.930 . S
H175 C196 0.930 . S
H176 C170 0.929 . S
H177 C169 0.930 . S
H178 C192 0.929 . S
H179 C159 0.931 . S
H180 C165 0.931 . S
H181 C166 0.931 . S
H182 C187 0.931 . S
H183 C162 0.929 . S
H184 C195 0.930 . S
N185 Eu156 2.600 . S
N185 C186 1.365 . S
N185 C189 1.319 . S
C186 N185 1.365 . S
C186 C188 1.405 . S
C186 C194 1.448 . S
C187 H182 0.931 . S
C187 C189 1.397 . S
C187 C190 1.367 . S
C188 C186 1.405 . S
C188 C190 1.403 . S
C188 C221 1.439 . S
C189 H174 0.930 . S
C189 N185 1.319 . S
C189 C187 1.397 . S
C190 C187 1.367 . S
C190 C188 1.403 . S
C190 H197 0.929 . S
N191 Eu156 2.562 . S
N191 C192 1.325 . S
N191 C194 1.351 . S
C192 H178 0.929 . S
C192 N191 1.325 . S
C192 C196 1.416 . S
C193 C194 1.430 . S
C193 C195 1.404 . S
C193 C222 1.387 . S
C194 C186 1.448 . S
C194 N191 1.351 . S
C194 C193 1.430 . S
C195 H184 0.930 . S
C195 C193 1.404 . S
C195 C196 1.366 . S
C196 H175 0.930 . S
C196 C192 1.416 . S
C196 C195 1.366 . S
H197 C190 0.929 . S
H198 C221 0.931 . S
H199 C222 0.931 . S
O200 Eu156 2.462 . S
O200 C220 1.252 . S
O201 Eu156 2.373 . S
O201 C212 1.249 . S
O202 Eu167 2.335 . S
O202 C212 1.264 . S
O203 Eu156 2.432 . S
O203 C220 1.268 . S
O204 Eu156 2.291 . S
O204 C219 1.255 . S
O205 Eu167 2.372 . S
O205 C219 1.257 . S
O206 Eu167 2.462 . S
O206 C231 1.252 . S
O207 Eu167 2.373 . S
O207 C223 1.249 . S
O208 Eu156 2.335 . S
O208 C223 1.264 . S
O209 Eu167 2.432 . S
O209 C231 1.268 . S
O210 Eu167 2.291 . S
O210 C230 1.255 . S
O211 Eu156 2.372 . S
O211 C230 1.257 . S
C212 O201 1.249 . S
C212 O202 1.264 . S
C213 C216 1.382 . S
C213 C218 1.390 . S
C213 C220 1.506 . S
C214 C215 1.398 . S
C214 C218 1.392 . S
C215 C214 1.398 . S
C215 C217 1.372 . S
C215 H232 0.931 . S
C216 C213 1.382 . S
C216 C217 1.390 . S
C216 H233 0.931 . S
C217 C215 1.372 . S
C217 C216 1.390 . S
C217 H234 0.929 . S
C218 C213 1.390 . S
C218 C214 1.392 . S
C218 H235 0.930 . S
C219 O204 1.255 . S
C219 O205 1.257 . S
C220 Eu156 2.787 . S
C220 O200 1.252 . S
C220 O203 1.268 . S
C220 C213 1.506 . S
C221 C188 1.439 . S
C221 H198 0.931 . S
C221 C222 1.374 . S
C222 C193 1.387 . S
C222 H199 0.931 . S
C222 C221 1.374 . S
C223 O207 1.249 . S
C223 O208 1.264 . S
C224 C227 1.382 . S
C224 C228 1.390 . S
C224 C231 1.506 . S
C225 C226 1.398 . S
C225 C228 1.392 . S
C226 C225 1.398 . S
C226 C229 1.372 . S
C226 H236 0.931 . S
C227 C224 1.382 . S
C227 C229 1.390 . S
C227 H237 0.931 . S
C228 C224 1.390 . S
C228 C225 1.392 . S
C228 H238 0.930 . S
C229 C226 1.372 . S
C229 C227 1.390 . S
C229 H239 0.929 . S
C230 O210 1.255 . S
C230 O211 1.257 . S
C231 Eu167 2.787 . S
C231 O206 1.252 . S
C231 O209 1.268 . S
C231 C224 1.506 . S
H232 C215 0.931 . S
H233 C216 0.931 . S
H234 C217 0.929 . S
H235 C218 0.930 . S
H236 C226 0.931 . S
H237 C227 0.931 . S
H238 C228 0.930 . S
H239 C229 0.929 . S
Eu240 N269 2.600 . S
Eu240 N275 2.562 . S
Eu240 O284 2.462 . S
Eu240 O285 2.373 . S
Eu240 O287 2.432 . S
Eu240 O288 2.291 . S
Eu240 O292 2.335 . S
Eu240 O295 2.372 . S
Eu240 C304 2.787 . S
C241 N242 1.365 . S
C241 C244 1.405 . S
C241 C248 1.448 . S
N242 C241 1.365 . S
N242 C245 1.319 . S
N242 Eu251 2.600 . S
C243 C245 1.397 . S
C243 C246 1.367 . S
C243 H263 0.931 . S
C244 C241 1.405 . S
C244 C246 1.403 . S
C244 C250 1.439 . S
C245 N242 1.319 . S
C245 C243 1.397 . S
C245 H256 0.930 . S
C246 C243 1.367 . S
C246 C244 1.403 . S
C246 H267 0.929 . S
C247 C248 1.430 . S
C247 C249 1.387 . S
C247 C253 1.404 . S
C248 C241 1.448 . S
C248 C247 1.430 . S
C248 N252 1.351 . S
C249 C247 1.387 . S
C249 C250 1.374 . S
C249 H264 0.931 . S
C250 C244 1.439 . S
C250 C249 1.374 . S
C250 H265 0.931 . S
Eu251 N242 2.600 . S
Eu251 N252 2.562 . S
Eu251 O286 2.335 1_655 S
Eu251 O289 2.372 . S
Eu251 O290 2.462 . S
Eu251 O291 2.373 . S
Eu251 O293 2.432 . S
Eu251 O294 2.291 1_655 S
Eu251 C315 2.787 . S
N252 C248 1.351 . S
N252 Eu251 2.562 . S
N252 C254 1.325 . S
C253 C247 1.404 . S
C253 C255 1.366 . S
C253 H261 0.930 . S
C254 N252 1.325 . S
C254 C255 1.416 . S
C254 H260 0.929 . S
C255 C253 1.366 . S
C255 C254 1.416 . S
C255 H257 0.930 . S
H256 C245 0.930 . S
H257 C255 0.930 . S
H258 C273 0.930 . S
H259 C280 0.930 . S
H260 C254 0.929 . S
H261 C253 0.930 . S
H262 C276 0.929 . S
H263 C243 0.931 . S
H264 C249 0.931 . S
H265 C250 0.931 . S
H266 C271 0.931 . S
H267 C246 0.929 . S
H268 C279 0.930 . S
N269 Eu240 2.600 . S
N269 C270 1.365 . S
N269 C273 1.319 . S
C270 N269 1.365 . S
C270 C272 1.405 . S
C270 C278 1.448 . S
C271 H266 0.931 . S
C271 C273 1.397 . S
C271 C274 1.367 . S
C272 C270 1.405 . S
C272 C274 1.403 . S
C272 C305 1.439 . S
C273 H258 0.930 . S
C273 N269 1.319 . S
C273 C271 1.397 . S
C274 C271 1.367 . S
C274 C272 1.403 . S
C274 H281 0.929 . S
N275 Eu240 2.562 . S
N275 C276 1.325 . S
N275 C278 1.351 . S
C276 H262 0.929 . S
C276 N275 1.325 . S
C276 C280 1.416 . S
C277 C278 1.430 . S
C277 C279 1.404 . S
C277 C306 1.387 . S
C278 C270 1.448 . S
C278 N275 1.351 . S
C278 C277 1.430 . S
C279 H268 0.930 . S
C279 C277 1.404 . S
C279 C280 1.366 . S
C280 H259 0.930 . S
C280 C276 1.416 . S
C280 C279 1.366 . S
H281 C274 0.929 . S
H282 C305 0.931 . S
H283 C306 0.931 . S
O284 Eu240 2.462 . S
O284 C304 1.252 . S
O285 Eu240 2.373 . S
O285 C296 1.249 . S
O286 Eu251 2.335 1_455 S
O286 C296 1.264 . S
O287 Eu240 2.432 . S
O287 C304 1.268 . S
O288 Eu240 2.291 . S
O288 C303 1.255 1_455 S
O289 Eu251 2.372 . S
O289 C303 1.257 . S
O290 Eu251 2.462 . S
O290 C315 1.252 . S
O291 Eu251 2.373 . S
O291 C307 1.249 . S
O292 Eu240 2.335 . S
O292 C307 1.264 1_455 S
O293 Eu251 2.432 . S
O293 C315 1.268 . S
O294 Eu251 2.291 1_455 S
O294 C314 1.255 . S
O295 Eu240 2.372 . S
O295 C314 1.257 . S
C296 O285 1.249 . S
C296 O286 1.264 . S
C297 C300 1.382 . S
C297 C302 1.390 . S
C297 C304 1.506 . S
C298 C299 1.398 . S
C298 C302 1.392 . S
C299 C298 1.398 . S
C299 C301 1.372 . S
C299 H316 0.931 . S
C300 C297 1.382 . S
C300 C301 1.390 . S
C300 H317 0.931 . S
C301 C299 1.372 . S
C301 C300 1.390 . S
C301 H318 0.929 . S
C302 C297 1.390 . S
C302 C298 1.392 . S
C302 H319 0.930 . S
C303 O288 1.255 1_655 S
C303 O289 1.257 . S
C304 Eu240 2.787 . S
C304 O284 1.252 . S
C304 O287 1.268 . S
C304 C297 1.506 . S
C305 C272 1.439 . S
C305 H282 0.931 . S
C305 C306 1.374 . S
C306 C277 1.387 . S
C306 H283 0.931 . S
C306 C305 1.374 . S
C307 O291 1.249 . S
C307 O292 1.264 1_655 S
C308 C311 1.382 . S
C308 C312 1.390 . S
C308 C315 1.506 . S
C309 C310 1.398 . S
C309 C312 1.392 . S
C310 C309 1.398 . S
C310 C313 1.372 . S
C310 H320 0.931 . S
C311 C308 1.382 . S
C311 C313 1.390 . S
C311 H321 0.931 . S
C312 C308 1.390 . S
C312 C309 1.392 . S
C312 H322 0.930 . S
C313 C310 1.372 . S
C313 C311 1.390 . S
C313 H323 0.929 . S
C314 O294 1.255 . S
C314 O295 1.257 . S
C315 Eu251 2.787 . S
C315 O290 1.252 . S
C315 O293 1.268 . S
C315 C308 1.506 . S
H316 C299 0.931 . S
H317 C300 0.931 . S
H318 C301 0.929 . S
H319 C302 0.930 . S
H320 C310 0.931 . S
H321 C311 0.931 . S
H322 C312 0.930 . S
H323 C313 0.929 . S
Eu324 N353 2.600 . S
Eu324 N359 2.562 . S
Eu324 O368 2.462 . S
Eu324 O369 2.373 . S
Eu324 O371 2.432 . S
Eu324 O372 2.291 . S
Eu324 O376 2.335 . S
Eu324 O379 2.372 . S
Eu324 C388 2.787 . S
C325 N326 1.365 . S
C325 C328 1.405 . S
C325 C332 1.448 . S
N326 C325 1.365 . S
N326 C329 1.319 . S
N326 Eu335 2.600 . S
C327 C329 1.397 . S
C327 C330 1.367 . S
C327 H347 0.931 . S
C328 C325 1.405 . S
C328 C330 1.403 . S
C328 C334 1.439 . S
C329 N326 1.319 . S
C329 C327 1.397 . S
C329 H340 0.930 . S
C330 C327 1.367 . S
C330 C328 1.403 . S
C330 H351 0.929 . S
C331 C332 1.430 . S
C331 C333 1.387 . S
C331 C337 1.404 . S
C332 C325 1.448 . S
C332 C331 1.430 . S
C332 N336 1.351 . S
C333 C331 1.387 . S
C333 C334 1.374 . S
C333 H348 0.931 . S
C334 C328 1.439 . S
C334 C333 1.374 . S
C334 H349 0.931 . S
Eu335 N326 2.600 . S
Eu335 N336 2.562 . S
Eu335 O370 2.335 . S
Eu335 O373 2.372 . S
Eu335 O374 2.462 . S
Eu335 O375 2.373 . S
Eu335 O377 2.432 . S
Eu335 O378 2.291 . S
Eu335 C399 2.787 . S
N336 C332 1.351 . S
N336 Eu335 2.562 . S
N336 C338 1.325 . S
C337 C331 1.404 . S
C337 C339 1.366 . S
C337 H345 0.930 . S
C338 N336 1.325 . S
C338 C339 1.416 . S
C338 H344 0.929 . S
C339 C337 1.366 . S
C339 C338 1.416 . S
C339 H341 0.930 . S
H340 C329 0.930 . S
H341 C339 0.930 . S
H342 C357 0.930 . S
H343 C364 0.930 . S
H344 C338 0.929 . S
H345 C337 0.930 . S
H346 C360 0.929 . S
H347 C327 0.931 . S
H348 C333 0.931 . S
H349 C334 0.931 . S
H350 C355 0.931 . S
H351 C330 0.929 . S
H352 C363 0.930 . S
N353 Eu324 2.600 . S
N353 C354 1.365 . S
N353 C357 1.319 . S
C354 N353 1.365 . S
C354 C356 1.405 . S
C354 C362 1.448 . S
C355 H350 0.931 . S
C355 C357 1.397 . S
C355 C358 1.367 . S
C356 C354 1.405 . S
C356 C358 1.403 . S
C356 C389 1.439 . S
C357 H342 0.930 . S
C357 N353 1.319 . S
C357 C355 1.397 . S
C358 C355 1.367 . S
C358 C356 1.403 . S
C358 H365 0.929 . S
N359 Eu324 2.562 . S
N359 C360 1.325 . S
N359 C362 1.351 . S
C360 H346 0.929 . S
C360 N359 1.325 . S
C360 C364 1.416 . S
C361 C362 1.430 . S
C361 C363 1.404 . S
C361 C390 1.387 . S
C362 C354 1.448 . S
C362 N359 1.351 . S
C362 C361 1.430 . S
C363 H352 0.930 . S
C363 C361 1.404 . S
C363 C364 1.366 . S
C364 H343 0.930 . S
C364 C360 1.416 . S
C364 C363 1.366 . S
H365 C358 0.929 . S
H366 C389 0.931 . S
H367 C390 0.931 . S
O368 Eu324 2.462 . S
O368 C388 1.252 . S
O369 Eu324 2.373 . S
O369 C380 1.249 . S
O370 Eu335 2.335 . S
O370 C380 1.264 . S
O371 Eu324 2.432 . S
O371 C388 1.268 . S
O372 Eu324 2.291 . S
O372 C387 1.255 . S
O373 Eu335 2.372 . S
O373 C387 1.257 . S
O374 Eu335 2.462 . S
O374 C399 1.252 . S
O375 Eu335 2.373 . S
O375 C391 1.249 . S
O376 Eu324 2.335 . S
O376 C391 1.264 . S
O377 Eu335 2.432 . S
O377 C399 1.268 . S
O378 Eu335 2.291 . S
O378 C398 1.255 . S
O379 Eu324 2.372 . S
O379 C398 1.257 . S
C380 O369 1.249 . S
C380 O370 1.264 . S
C381 C384 1.382 . S
C381 C386 1.390 . S
C381 C388 1.506 . S
C382 C383 1.398 . S
C382 C386 1.392 . S
C383 C382 1.398 . S
C383 C385 1.372 . S
C383 H400 0.931 . S
C384 C381 1.382 . S
C384 C385 1.390 . S
C384 H401 0.931 . S
C385 C383 1.372 . S
C385 C384 1.390 . S
C385 H402 0.929 . S
C386 C381 1.390 . S
C386 C382 1.392 . S
C386 H403 0.930 . S
C387 O372 1.255 . S
C387 O373 1.257 . S
C388 Eu324 2.787 . S
C388 O368 1.252 . S
C388 O371 1.268 . S
C388 C381 1.506 . S
C389 C356 1.439 . S
C389 H366 0.931 . S
C389 C390 1.374 . S
C390 C361 1.387 . S
C390 H367 0.931 . S
C390 C389 1.374 . S
C391 O375 1.249 . S
C391 O376 1.264 . S
C392 C395 1.382 . S
C392 C396 1.390 . S
C392 C399 1.506 . S
C393 C394 1.398 . S
C393 C396 1.392 . S
C394 C393 1.398 . S
C394 C397 1.372 . S
C394 H404 0.931 . S
C395 C392 1.382 . S
C395 C397 1.390 . S
C395 H405 0.931 . S
C396 C392 1.390 . S
C396 C393 1.392 . S
C396 H406 0.930 . S
C397 C394 1.372 . S
C397 C395 1.390 . S
C397 H407 0.929 . S
C398 O378 1.255 . S
C398 O379 1.257 . S
C399 Eu335 2.787 . S
C399 O374 1.252 . S
C399 O377 1.268 . S
C399 C392 1.506 . S
H400 C383 0.931 . S
H401 C384 0.931 . S
H402 C385 0.929 . S
H403 C386 0.930 . S
H404 C394 0.931 . S
H405 C395 0.931 . S
H406 C396 0.930 . S
H407 C397 0.929 . S
H408 C420 0.930 . S
H409 C422 0.930 . S
H410 C423 0.930 1_545 S
H411 C427 0.979 . S
H412 C427 0.959 . S
H413 C427 0.961 . S
H414 C428 0.960 . S
H415 C428 0.961 . S
H416 C428 0.959 . S
H417 C431 0.929 . S
H418 C432 0.931 . S
H419 C434 0.930 . S
C420 H408 0.930 . S
C420 C421 1.399 . S
C420 C425 1.399 . S
C421 C420 1.399 . S
C421 C422 1.376 . S
C422 H409 0.930 . S
C422 C421 1.376 . S
C422 C423 1.388 . S
C423 H410 0.930 1_565 S
C423 C422 1.388 . S
C423 C424 1.390 . S
C424 C423 1.390 . S
C424 C425 1.394 . S
C424 C430 1.465 1_565 S
C425 C420 1.399 . S
C425 C424 1.394 . S
C425 C426 1.516 . S
C426 C425 1.516 . S
C426 C427 1.502 . S
C426 C428 1.561 . S
C426 C429 1.526 1_565 S
C427 H411 0.979 . S
C427 H412 0.959 . S
C427 H413 0.961 . S
C427 C426 1.502 . S
C428 H414 0.960 . S
C428 H415 0.961 . S
C428 H416 0.959 . S
C428 C426 1.561 . S
C429 C426 1.526 1_545 S
C429 C430 1.396 . S
C429 C434 1.390 . S
C430 C424 1.465 1_545 S
C430 C429 1.396 . S
C430 C431 1.399 . S
C431 H417 0.929 . S
C431 C430 1.399 . S
C431 C432 1.385 . S
C432 H418 0.931 . S
C432 C431 1.385 . S
C432 C433 1.389 . S
C433 C432 1.389 . S
C433 C434 1.387 . S
C434 H419 0.930 . S
C434 C429 1.390 . S
C434 C433 1.387 . S
H435 C447 0.930 . S
H436 C449 0.930 . S
H437 C450 0.930 . S
H438 C454 0.959 . S
H439 C454 0.959 . S
H440 C454 0.961 . S
H441 C455 0.960 . S
H442 C455 0.961 . S
H443 C455 0.959 . S
H444 C458 0.929 . S
H445 C459 0.931 . S
H446 C461 0.930 . S
C447 H435 0.930 . S
C447 C448 1.399 . S
C447 C452 1.399 . S
C448 C447 1.399 . S
C448 C449 1.376 . S
C449 H436 0.930 . S
C449 C448 1.376 . S
C449 C450 1.388 . S
C450 H437 0.930 . S
C450 C449 1.388 . S
C450 C451 1.390 . S
C451 C450 1.390 . S
C451 C452 1.394 . S
C451 C457 1.465 . S
C452 C447 1.399 . S
C452 C451 1.394 . S
C452 C453 1.516 . S
C453 C452 1.516 . S
C453 C454 1.502 . S
C453 C455 1.561 . S
C453 C456 1.526 . S
C454 H438 0.959 . S
C454 H439 0.959 . S
C454 H440 0.961 . S
C454 C453 1.502 . S
C455 H441 0.960 . S
C455 H442 0.961 . S
C455 H443 0.959 . S
C455 C453 1.561 . S
C456 C453 1.526 . S
C456 C457 1.396 . S
C456 C461 1.390 . S
C457 C451 1.465 . S
C457 C456 1.396 . S
C457 C458 1.399 . S
C458 H444 0.929 . S
C458 C457 1.399 . S
C458 C459 1.385 . S
C459 H445 0.931 . S
C459 C458 1.385 . S
C459 C460 1.389 . S
C460 C459 1.389 . S
C460 C461 1.387 . S
C461 H446 0.930 . S
C461 C456 1.390 . S
C461 C460 1.387 . S
H462 C474 0.930 . S
H463 C476 0.930 . S
H464 C477 0.930 . S
H465 C481 0.959 . S
H466 C481 0.959 . S
H467 C481 0.961 . S
H468 C482 0.960 . S
H469 C482 0.961 . S
H470 C482 0.959 . S
H471 C485 0.929 . S
H472 C486 0.931 . S
H473 C488 0.930 . S
C474 H462 0.930 . S
C474 C475 1.399 . S
C474 C479 1.399 . S
C475 C474 1.399 . S
C475 C476 1.376 . S
C476 H463 0.930 . S
C476 C475 1.376 . S
C476 C477 1.388 . S
C477 H464 0.930 . S
C477 C476 1.388 . S
C477 C478 1.390 . S
C478 C477 1.390 . S
C478 C479 1.394 . S
C478 C484 1.465 . S
C479 C474 1.399 . S
C479 C478 1.394 . S
C479 C480 1.516 . S
C480 C479 1.516 . S
C480 C481 1.502 . S
C480 C482 1.561 . S
C480 C483 1.526 . S
C481 H465 0.959 . S
C481 H466 0.959 . S
C481 H467 0.961 . S
C481 C480 1.502 . S
C482 H468 0.960 . S
C482 H469 0.961 . S
C482 H470 0.959 . S
C482 C480 1.561 . S
C483 C480 1.526 . S
C483 C484 1.396 . S
C483 C488 1.390 . S
C484 C478 1.465 . S
C484 C483 1.396 . S
C484 C485 1.399 . S
C485 H471 0.929 . S
C485 C484 1.399 . S
C485 C486 1.385 . S
C486 H472 0.931 . S
C486 C485 1.385 . S
C486 C487 1.389 . S
C487 C486 1.389 . S
C487 C488 1.387 . S
C488 H473 0.930 . S
C488 C483 1.390 . S
C488 C487 1.387 . S
H489 C501 0.930 . S
H490 C503 0.930 . S
H491 C504 0.930 . S
H492 C508 0.959 . S
H493 C508 0.959 1_445 S
H494 C508 0.961 . S
H495 C509 0.960 . S
H496 C509 0.961 . S
H497 C509 0.959 . S
H498 C512 0.929 . S
H499 C513 0.931 . S
H500 C515 0.930 . S
C501 H489 0.930 . S
C501 C502 1.399 . S
C501 C506 1.399 . S
C502 C501 1.399 . S
C502 C503 1.376 . S
C503 H490 0.930 . S
C503 C502 1.376 . S
C503 C504 1.388 . S
C504 H491 0.930 . S
C504 C503 1.388 . S
C504 C505 1.390 . S
C505 C504 1.390 . S
C505 C506 1.394 . S
C505 C511 1.465 1_565 S
C506 C501 1.399 . S
C506 C505 1.394 . S
C506 C507 1.516 1_565 S
C507 C506 1.516 1_545 S
C507 C508 1.502 1_545 S
C507 C509 1.561 . S
C507 C510 1.526 . S
C508 H492 0.959 . S
C508 H493 0.959 1_665 S
C508 H494 0.961 . S
C508 C507 1.502 1_565 S
C509 H495 0.960 . S
C509 H496 0.961 . S
C509 H497 0.959 . S
C509 C507 1.561 . S
C510 C507 1.526 . S
C510 C511 1.396 . S
C510 C515 1.390 . S
C511 C505 1.465 1_545 S
C511 C510 1.396 . S
C511 C512 1.399 . S
C512 H498 0.929 . S
C512 C511 1.399 . S
C512 C513 1.385 . S
C513 H499 0.931 . S
C513 C512 1.385 . S
C513 C514 1.389 . S
C514 C513 1.389 . S
C514 C515 1.387 . S
C515 H500 0.930 . S
C515 C510 1.390 . S
C515 C514 1.387 . S
H516 C528 0.930 . S
H517 C530 0.930 . S
H518 C531 0.930 . S
H519 C535 0.959 . S
H520 C535 0.959 . S
H521 C535 0.961 . S
H522 C536 0.960 . S
H523 C536 0.961 . S
H524 C536 0.959 . S
H525 C539 0.929 . S
H526 C540 0.931 . S
H527 C542 0.930 . S
C528 H516 0.930 . S
C528 C529 1.399 . S
C528 C533 1.399 . S
C529 C528 1.399 . S
C529 C530 1.376 . S
C530 H517 0.930 . S
C530 C529 1.376 . S
C530 C531 1.388 1_545 S
C531 H518 0.930 . S
C531 C530 1.388 1_565 S
C531 C532 1.390 . S
C532 C531 1.390 . S
C532 C533 1.387 1_565 S
C532 C538 1.471 . S
C533 C528 1.399 . S
C533 C532 1.387 1_545 S
C533 C534 1.516 . S
C534 C533 1.516 . S
C534 C535 1.502 . S
C534 C536 1.561 . S
C534 C537 1.526 1_545 S
C535 H519 0.959 . S
C535 H520 0.959 . S
C535 H521 0.961 . S
C535 C534 1.502 . S
C536 H522 0.960 . S
C536 H523 0.961 . S
C536 H524 0.959 . S
C536 C534 1.561 . S
C537 C534 1.526 1_565 S
C537 C538 1.396 . S
C537 C542 1.390 . S
C538 C532 1.471 . S
C538 C537 1.396 . S
C538 C539 1.399 . S
C539 H525 0.929 . S
C539 C538 1.399 . S
C539 C540 1.385 . S
C540 H526 0.931 . S
C540 C539 1.385 . S
C540 C541 1.389 . S
C541 C540 1.389 . S
C541 C542 1.387 . S
C542 H527 0.930 . S
C542 C537 1.390 . S
C542 C541 1.387 . S
H543 C555 0.930 . S
H544 C557 0.930 . S
H545 C558 0.930 . S
H546 C562 0.959 . S
H547 C562 0.959 . S
H548 C562 0.961 . S
H549 C563 0.960 . S
H550 C563 0.961 . S
H551 C563 0.959 . S
H552 C566 0.929 . S
H553 C567 0.931 . S
H554 C569 0.930 . S
C555 H543 0.930 . S
C555 C556 1.399 . S
C555 C560 1.399 . S
C556 C555 1.399 . S
C556 C557 1.376 . S
C557 H544 0.930 . S
C557 C556 1.376 . S
C557 C558 1.388 . S
C558 H545 0.930 . S
C558 C557 1.388 . S
C558 C559 1.390 . S
C559 C558 1.390 . S
C559 C560 1.394 . S
C559 C565 1.465 . S
C560 C555 1.399 . S
C560 C559 1.394 . S
C560 C561 1.516 . S
C561 C560 1.516 . S
C561 C562 1.502 . S
C561 C563 1.561 . S
C561 C564 1.526 . S
C562 H546 0.959 . S
C562 H547 0.959 . S
C562 H548 0.961 . S
C562 C561 1.502 . S
C563 H549 0.960 . S
C563 H550 0.961 . S
C563 H551 0.959 . S
C563 C561 1.561 . S
C564 C561 1.526 . S
C564 C565 1.396 . S
C564 C569 1.390 . S
C565 C559 1.465 . S
C565 C564 1.396 . S
C565 C566 1.399 . S
C566 H552 0.929 . S
C566 C565 1.399 . S
C566 C567 1.385 . S
C567 H553 0.931 . S
C567 C566 1.385 . S
C567 C568 1.389 . S
C568 C567 1.389 . S
C568 C569 1.387 . S
C569 H554 0.930 . S
C569 C564 1.390 . S
C569 C568 1.387 . S
H570 C582 0.930 . S
H571 C584 0.930 . S
H572 C585 0.930 . S
H573 C589 0.959 . S
H574 C589 0.959 . S
H575 C589 0.961 . S
H576 C590 0.960 . S
H577 C590 0.961 . S
H578 C590 0.959 . S
H579 C593 0.929 . S
H580 C594 0.931 . S
H581 C596 0.930 . S
C582 H570 0.930 . S
C582 C583 1.399 . S
C582 C587 1.399 . S
C583 C582 1.399 . S
C583 C584 1.376 . S
C584 H571 0.930 . S
C584 C583 1.376 . S
C584 C585 1.388 . S
C585 H572 0.930 . S
C585 C584 1.388 . S
C585 C586 1.390 . S
C586 C585 1.390 . S
C586 C587 1.394 . S
C586 C592 1.465 . S
C587 C582 1.399 . S
C587 C586 1.394 . S
C587 C588 1.516 . S
C588 C587 1.516 . S
C588 C589 1.502 . S
C588 C590 1.561 . S
C588 C591 1.526 . S
C589 H573 0.959 . S
C589 H574 0.959 . S
C589 H575 0.961 . S
C589 C588 1.502 . S
C590 H576 0.960 . S
C590 H577 0.961 . S
C590 H578 0.959 . S
C590 C588 1.561 . S
C591 C588 1.526 . S
C591 C592 1.396 . S
C591 C596 1.390 . S
C592 C586 1.465 . S
C592 C591 1.396 . S
C592 C593 1.399 . S
C593 H579 0.929 . S
C593 C592 1.399 . S
C593 C594 1.385 . S
C594 H580 0.931 . S
C594 C593 1.385 . S
C594 C595 1.389 . S
C595 C594 1.389 . S
C595 C596 1.387 . S
C596 H581 0.930 . S
C596 C591 1.390 . S
C596 C595 1.387 . S
H597 C609 0.930 . S
H598 C611 0.930 . S
H599 C612 0.930 . S
H600 C616 0.959 . S
H601 C616 0.959 . S
H602 C616 0.961 . S
H603 C617 0.960 . S
H604 C617 0.961 . S
H605 C617 0.959 . S
H606 C620 0.929 1_545 S
H607 C621 0.931 . S
H608 C623 0.930 . S
C609 H597 0.930 . S
C609 C610 1.399 . S
C609 C614 1.399 . S
C610 C609 1.399 . S
C610 C611 1.376 . S
C611 H598 0.930 . S
C611 C610 1.376 . S
C611 C612 1.388 . S
C612 H599 0.930 . S
C612 C611 1.388 . S
C612 C613 1.390 . S
C613 C612 1.390 . S
C613 C614 1.394 . S
C613 C619 1.465 1_545 S
C614 C609 1.399 . S
C614 C613 1.394 . S
C614 C615 1.516 1_545 S
C615 C614 1.516 1_565 S
C615 C616 1.502 . S
C615 C617 1.561 . S
C615 C618 1.526 . S
C616 H600 0.959 . S
C616 H601 0.959 . S
C616 H602 0.961 . S
C616 C615 1.502 . S
C617 H603 0.960 . S
C617 H604 0.961 . S
C617 H605 0.959 . S
C617 C615 1.561 . S
C618 C615 1.526 . S
C618 C619 1.396 . S
C618 C623 1.390 . S
C619 C613 1.465 1_565 S
C619 C618 1.396 . S
C619 C620 1.399 . S
C620 H606 0.929 1_565 S
C620 C619 1.399 . S
C620 C621 1.385 . S
C621 H607 0.931 . S
C621 C620 1.385 . S
C621 C622 1.389 . S
C622 C621 1.389 . S
C622 C623 1.387 . S
C623 H608 0.930 . S
C623 C618 1.390 . S
C623 C622 1.387 . S
H624 C636 0.930 . S
H625 C638 0.930 . S
H626 C639 0.930 . S
H627 C643 0.959 . S
H628 C643 0.959 . S
H629 C643 0.961 . S
H630 C644 0.960 1_556 S
H631 C644 0.961 . S
H632 C644 0.959 . S
H633 C647 0.929 . S
H634 C648 0.931 . S
H635 C650 0.930 . S
C636 H624 0.930 . S
C636 C637 1.399 . S
C636 C641 1.399 . S
C637 C636 1.399 . S
C637 C638 1.376 . S
C638 H625 0.930 . S
C638 C637 1.376 . S
C638 C639 1.388 . S
C639 H626 0.930 . S
C639 C638 1.388 . S
C639 C640 1.390 1_556 S
C640 C639 1.390 1_554 S
C640 C641 1.394 1_554 S
C640 C646 1.465 . S
C641 C636 1.399 . S
C641 C640 1.394 1_556 S
C641 C642 1.516 1_556 S
C642 C641 1.516 1_554 S
C642 C643 1.502 . S
C642 C644 1.561 . S
C642 C645 1.526 . S
C643 H627 0.959 . S
C643 H628 0.959 . S
C643 H629 0.961 . S
C643 C642 1.502 . S
C644 H630 0.960 1_554 S
C644 H631 0.961 . S
C644 H632 0.959 . S
C644 C642 1.561 . S
C645 C642 1.526 . S
C645 C646 1.396 . S
C645 C650 1.390 . S
C646 C640 1.465 . S
C646 C645 1.396 . S
C646 C647 1.399 . S
C647 H633 0.929 . S
C647 C646 1.399 . S
C647 C648 1.385 . S
C648 H634 0.931 . S
C648 C647 1.385 . S
C648 C649 1.389 . S
C649 C648 1.389 . S
C649 C650 1.387 . S
C650 H635 0.930 . S
C650 C645 1.390 . S
C650 C649 1.387 . S
H651 C663 0.930 . S
H652 C665 0.930 . S
H653 C666 0.930 . S
H654 C670 0.959 . S
H655 C670 0.959 . S
H656 C670 0.961 . S
H657 C671 0.960 . S
H658 C671 0.961 . S
H659 C671 0.959 . S
H660 C674 0.929 . S
H661 C675 0.931 . S
H662 C677 0.930 . S
C663 H651 0.930 . S
C663 C664 1.399 . S
C663 C668 1.399 . S
C664 C663 1.399 . S
C664 C665 1.376 . S
C665 H652 0.930 . S
C665 C664 1.376 . S
C665 C666 1.388 . S
C666 H653 0.930 . S
C666 C665 1.388 . S
C666 C667 1.390 . S
C667 C666 1.390 . S
C667 C668 1.394 . S
C667 C673 1.465 . S
C668 C663 1.399 . S
C668 C667 1.394 . S
C668 C669 1.516 . S
C669 C668 1.516 . S
C669 C670 1.502 . S
C669 C671 1.561 . S
C669 C672 1.526 . S
C670 H654 0.959 . S
C670 H655 0.959 . S
C670 H656 0.961 . S
C670 C669 1.502 . S
C671 H657 0.960 . S
C671 H658 0.961 . S
C671 H659 0.959 . S
C671 C669 1.561 . S
C672 C669 1.526 . S
C672 C673 1.396 . S
C672 C677 1.390 . S
C673 C667 1.465 . S
C673 C672 1.396 . S
C673 C674 1.399 . S
C674 H660 0.929 . S
C674 C673 1.399 . S
C674 C675 1.385 . S
C675 H661 0.931 . S
C675 C674 1.385 . S
C675 C676 1.389 . S
C676 C675 1.389 . S
C676 C677 1.387 . S
C677 H662 0.930 . S
C677 C672 1.390 . S
C677 C676 1.387 . S
H678 C690 0.930 . S
H679 C692 0.930 . S
H680 C693 0.930 . S
H681 C697 0.959 . S
H682 C697 0.959 . S
H683 C697 0.961 . S
H684 C698 0.960 1_554 S
H685 C698 0.961 . S
H686 C698 0.959 . S
H687 C701 0.929 . S
H688 C702 0.931 . S
H689 C704 0.930 . S
C690 H678 0.930 . S
C690 C691 1.399 . S
C690 C695 1.399 . S
C691 C690 1.399 . S
C691 C692 1.376 . S
C692 H679 0.930 . S
C692 C691 1.376 . S
C692 C693 1.388 . S
C693 H680 0.930 . S
C693 C692 1.388 . S
C693 C694 1.390 . S
C694 C693 1.390 . S
C694 C695 1.394 . S
C694 C700 1.465 1_554 S
C695 C690 1.399 . S
C695 C694 1.394 . S
C695 C696 1.516 1_554 S
C696 C695 1.516 1_556 S
C696 C697 1.502 . S
C696 C698 1.561 . S
C696 C699 1.526 . S
C697 H681 0.959 . S
C697 H682 0.959 . S
C697 H683 0.961 . S
C697 C696 1.502 . S
C698 H684 0.960 1_556 S
C698 H685 0.961 . S
C698 H686 0.959 . S
C698 C696 1.561 . S
C699 C696 1.526 . S
C699 C700 1.396 . S
C699 C704 1.390 . S
C700 C694 1.465 1_556 S
C700 C699 1.396 . S
C700 C701 1.399 . S
C701 H687 0.929 . S
C701 C700 1.399 . S
C701 C702 1.385 . S
C702 H688 0.931 . S
C702 C701 1.385 . S
C702 C703 1.389 . S
C703 C702 1.389 . S
C703 C704 1.387 . S
C704 H689 0.930 . S
C704 C699 1.390 . S
C704 C703 1.387 . S
H705 C717 0.930 . S
H706 C719 0.930 . S
H707 C720 0.930 . S
H708 C724 0.959 . S
H709 C724 0.959 . S
H710 C724 0.961 . S
H711 C725 0.960 . S
H712 C725 0.961 . S
H713 C725 0.959 . S
H714 C728 0.929 . S
H715 C729 0.931 . S
H716 C731 0.930 . S
C717 H705 0.930 . S
C717 C718 1.399 . S
C717 C722 1.399 . S
C718 C717 1.399 . S
C718 C719 1.376 . S
C719 H706 0.930 . S
C719 C718 1.376 . S
C719 C720 1.388 . S
C720 H707 0.930 . S
C720 C719 1.388 . S
C720 C721 1.390 . S
C721 C720 1.390 . S
C721 C722 1.394 . S
C721 C727 1.465 . S
C722 C717 1.399 . S
C722 C721 1.394 . S
C722 C723 1.516 . S
C723 C722 1.516 . S
C723 C724 1.502 . S
C723 C725 1.561 . S
C723 C726 1.526 . S
C724 H708 0.959 . S
C724 H709 0.959 . S
C724 H710 0.961 . S
C724 C723 1.502 . S
C725 H711 0.960 . S
C725 H712 0.961 . S
C725 H713 0.959 . S
C725 C723 1.561 . S
C726 C723 1.526 . S
C726 C727 1.396 . S
C726 C731 1.390 . S
C727 C721 1.465 . S
C727 C726 1.396 . S
C727 C728 1.399 . S
C728 H714 0.929 . S
C728 C727 1.399 . S
C728 C729 1.385 . S
C729 H715 0.931 . S
C729 C728 1.385 . S
C729 C730 1.389 . S
C730 C729 1.389 . S
C730 C731 1.387 . S
C731 H716 0.930 . S
C731 C726 1.390 . S
C731 C730 1.387 . S
H732 C744 0.930 . S
H733 C746 0.930 . S
H734 C747 0.930 1_556 S
H735 C751 0.959 1_556 S
H736 C751 0.961 1_556 S
H737 C751 0.958 . S
H738 C752 0.960 1_554 S
H739 C752 0.961 . S
H740 C752 0.959 . S
H741 C755 0.929 . S
H742 C756 0.931 . S
H743 C758 0.930 . S
C744 H732 0.930 . S
C744 C745 1.399 . S
C744 C749 1.399 . S
C745 C744 1.399 . S
C745 C746 1.376 . S
C746 H733 0.930 . S
C746 C745 1.376 . S
C746 C747 1.388 . S
C747 H734 0.930 1_554 S
C747 C746 1.388 . S
C747 C748 1.390 1_554 S
C748 C747 1.390 1_556 S
C748 C749 1.394 1_556 S
C748 C754 1.465 . S
C749 C744 1.399 . S
C749 C748 1.394 1_554 S
C749 C750 1.516 1_554 S
C750 C749 1.516 1_556 S
C750 C751 1.503 1_556 S
C750 C752 1.561 . S
C750 C753 1.526 . S
C751 H735 0.959 1_554 S
C751 H736 0.961 1_554 S
C751 H737 0.958 . S
C751 C750 1.503 1_554 S
C752 H738 0.960 1_556 S
C752 H739 0.961 . S
C752 H740 0.959 . S
C752 C750 1.561 . S
C753 C750 1.526 . S
C753 C754 1.396 . S
C753 C758 1.390 . S
C754 C748 1.465 . S
C754 C753 1.396 . S
C754 C755 1.399 . S
C755 H741 0.929 . S
C755 C754 1.399 . S
C755 C756 1.385 . S
C756 H742 0.931 . S
C756 C755 1.385 . S
C756 C757 1.389 . S
C757 C756 1.389 . S
C757 C758 1.387 . S
C758 H743 0.930 . S
C758 C753 1.390 . S
C758 C757 1.387 . S
H759 C771 0.930 . S
H760 C773 0.930 . S
H761 C774 0.930 . S
H762 C778 0.959 . S
H763 C778 0.959 . S
H764 C778 0.961 . S
H765 C779 0.960 . S
H766 C779 0.961 . S
H767 C779 0.959 . S
H768 C782 0.929 . S
H769 C783 0.931 . S
H770 C785 0.930 . S
C771 H759 0.930 . S
C771 C772 1.399 . S
C771 C776 1.399 . S
C772 C771 1.399 . S
C772 C773 1.376 . S
C773 H760 0.930 . S
C773 C772 1.376 . S
C773 C774 1.388 . S
C774 H761 0.930 . S
C774 C773 1.388 . S
C774 C775 1.390 . S
C775 C774 1.390 . S
C775 C776 1.394 . S
C775 C781 1.465 . S
C776 C771 1.399 . S
C776 C775 1.394 . S
C776 C777 1.516 . S
C777 C776 1.516 . S
C777 C778 1.502 . S
C777 C779 1.561 . S
C777 C780 1.526 . S
C778 H762 0.959 . S
C778 H763 0.959 . S
C778 H764 0.961 . S
C778 C777 1.502 . S
C779 H765 0.960 . S
C779 H766 0.961 . S
C779 H767 0.959 . S
C779 C777 1.561 . S
C780 C777 1.526 . S
C780 C781 1.396 . S
C780 C785 1.390 . S
C781 C775 1.465 . S
C781 C780 1.396 . S
C781 C782 1.399 . S
C782 H768 0.929 . S
C782 C781 1.399 . S
C782 C783 1.385 . S
C783 H769 0.931 . S
C783 C782 1.385 . S
C783 C784 1.389 . S
C784 C783 1.389 . S
C784 C785 1.387 . S
C785 H770 0.930 . S
C785 C780 1.390 . S
C785 C784 1.387 . S
H786 C798 0.930 . S
H787 C800 0.930 . S
H788 C801 0.947 . S
H789 C805 0.959 . S
H790 C805 0.980 . S
H791 C805 0.932 1_556 S
H792 C806 0.960 1_556 S
H793 C806 0.961 . S
H794 C806 0.959 . S
H795 C809 0.929 . S
H796 C810 0.931 . S
H797 C812 0.930 . S
C798 H786 0.930 . S
C798 C799 1.399 . S
C798 C803 1.399 . S
C799 C798 1.399 . S
C799 C800 1.376 . S
C800 H787 0.930 . S
C800 C799 1.376 . S
C800 C801 1.388 . S
C801 H788 0.947 . S
C801 C800 1.388 . S
C801 C802 1.390 1_556 S
C802 C801 1.390 1_554 S
C802 C803 1.394 1_554 S
C802 C808 1.465 . S
C803 C798 1.399 . S
C803 C802 1.394 1_556 S
C803 C804 1.516 1_556 S
C804 C803 1.516 1_554 S
C804 C805 1.511 . S
C804 C806 1.561 . S
C804 C807 1.526 . S
C805 H789 0.959 . S
C805 H790 0.980 . S
C805 H791 0.932 1_554 S
C805 C804 1.511 . S
C806 H792 0.960 1_554 S
C806 H793 0.961 . S
C806 H794 0.959 . S
C806 C804 1.561 . S
C807 C804 1.526 . S
C807 C808 1.396 . S
C807 C812 1.390 . S
C808 C802 1.465 . S
C808 C807 1.396 . S
C808 C809 1.399 . S
C809 H795 0.929 . S
C809 C808 1.399 . S
C809 C810 1.385 . S
C810 H796 0.931 . S
C810 C809 1.385 . S
C810 C811 1.389 . S
C811 C810 1.389 . S
C811 C812 1.387 . S
C812 H797 0.930 . S
C812 C807 1.390 . S
C812 C811 1.387 . S
H813 C825 0.930 . S
H814 C827 0.930 . S
H815 C828 0.930 . S
H816 C832 0.959 . S
H817 C832 0.959 . S
H818 C832 0.961 . S
H819 C833 0.960 . S
H820 C833 0.961 . S
H821 C833 0.959 . S
H822 C836 0.929 . S
H823 C837 0.931 . S
H824 C839 0.930 . S
C825 H813 0.930 . S
C825 C826 1.399 . S
C825 C830 1.399 . S
C826 C825 1.399 . S
C826 C827 1.376 . S
C827 H814 0.930 . S
C827 C826 1.376 . S
C827 C828 1.388 . S
C828 H815 0.930 . S
C828 C827 1.388 . S
C828 C829 1.390 . S
C829 C828 1.390 . S
C829 C830 1.394 . S
C829 C835 1.465 . S
C830 C825 1.399 . S
C830 C829 1.394 . S
C830 C831 1.516 . S
C831 C830 1.516 . S
C831 C832 1.502 . S
C831 C833 1.561 . S
C831 C834 1.526 . S
C832 H816 0.959 . S
C832 H817 0.959 . S
C832 H818 0.961 . S
C832 C831 1.502 . S
C833 H819 0.960 . S
C833 H820 0.961 . S
C833 H821 0.959 . S
C833 C831 1.561 . S
C834 C831 1.526 . S
C834 C835 1.396 . S
C834 C839 1.390 . S
C835 C829 1.465 . S
C835 C834 1.396 . S
C835 C836 1.399 . S
C836 H822 0.929 . S
C836 C835 1.399 . S
C836 C837 1.385 . S
C837 H823 0.931 . S
C837 C836 1.385 . S
C837 C838 1.389 . S
C838 C837 1.389 . S
C838 C839 1.387 . S
C839 H824 0.930 . S
C839 C834 1.390 . S
C839 C838 1.387 . S
H840 C852 0.930 . S
H841 C854 0.930 . S
H842 C855 0.930 . S
H843 C859 0.959 . S
H844 C859 0.959 . S
H845 C859 0.961 . S
H846 C860 0.960 . S
H847 C860 0.961 . S
H848 C860 0.959 . S
H849 C863 0.929 . S
H850 C864 0.931 . S
H851 C866 0.930 . S
C852 H840 0.930 . S
C852 C853 1.399 . S
C852 C857 1.399 . S
C853 C852 1.399 . S
C853 C854 1.376 . S
C854 H841 0.930 . S
C854 C853 1.376 . S
C854 C855 1.388 . S
C855 H842 0.930 . S
C855 C854 1.388 . S
C855 C856 1.390 . S
C856 C855 1.390 . S
C856 C857 1.394 . S
C856 C862 1.465 . S
C857 C852 1.399 . S
C857 C856 1.394 . S
C857 C858 1.516 . S
C858 C857 1.516 . S
C858 C859 1.502 . S
C858 C860 1.561 . S
C858 C861 1.526 . S
C859 H843 0.959 . S
C859 H844 0.959 . S
C859 H845 0.961 . S
C859 C858 1.502 . S
C860 H846 0.960 . S
C860 H847 0.961 . S
C860 H848 0.959 . S
C860 C858 1.561 . S
C861 C858 1.526 . S
C861 C862 1.396 . S
C861 C866 1.390 . S
C862 C856 1.465 . S
C862 C861 1.396 . S
C862 C863 1.399 . S
C863 H849 0.929 . S
C863 C862 1.399 . S
C863 C864 1.385 . S
C864 H850 0.931 . S
C864 C863 1.385 . S
C864 C865 1.389 . S
C865 C864 1.389 . S
C865 C866 1.387 . S
C866 H851 0.930 . S
C866 C861 1.390 . S
C866 C865 1.387 . S
H867 C879 0.930 . S
H868 C881 0.930 . S
H869 C882 0.930 . S
H870 C886 0.959 . S
H871 C886 0.959 . S
H872 C886 0.961 . S
H873 C887 0.960 . S
H874 C887 0.961 . S
H875 C887 0.959 . S
H876 C890 0.929 . S
H877 C891 0.931 . S
H878 C893 0.930 . S
C879 H867 0.930 . S
C879 C880 1.399 . S
C879 C884 1.399 . S
C880 C879 1.399 . S
C880 C881 1.376 . S
C881 H868 0.930 . S
C881 C880 1.376 . S
C881 C882 1.388 . S
C882 H869 0.930 . S
C882 C881 1.388 . S
C882 C883 1.390 . S
C883 C882 1.390 . S
C883 C884 1.394 . S
C883 C889 1.465 . S
C884 C879 1.399 . S
C884 C883 1.394 . S
C884 C885 1.516 . S
C885 C884 1.516 . S
C885 C886 1.502 . S
C885 C887 1.561 . S
C885 C888 1.526 . S
C886 H870 0.959 . S
C886 H871 0.959 . S
C886 H872 0.961 . S
C886 C885 1.502 . S
C887 H873 0.960 . S
C887 H874 0.961 . S
C887 H875 0.959 . S
C887 C885 1.561 . S
C888 C885 1.526 . S
C888 C889 1.396 . S
C888 C893 1.390 . S
C889 C883 1.465 . S
C889 C888 1.396 . S
C889 C890 1.399 . S
C890 H876 0.929 . S
C890 C889 1.399 . S
C890 C891 1.385 . S
C891 H877 0.931 . S
C891 C890 1.385 . S
C891 C892 1.389 . S
C892 C891 1.389 . S
C892 C893 1.387 . S
C893 H878 0.930 . S
C893 C888 1.390 . S
C893 C892 1.387 . S
H894 C906 0.930 . S
H895 C908 0.930 . S
H896 C909 0.930 . S
H897 C913 0.959 . S
H898 C913 0.959 . S
H899 C913 0.961 . S
H900 C914 0.960 . S
H901 C914 0.961 . S
H902 C914 0.959 . S
H903 C917 0.929 . S
H904 C918 0.931 . S
H905 C920 0.930 . S
C906 H894 0.930 . S
C906 C907 1.399 . S
C906 C911 1.399 . S
C907 C906 1.399 . S
C907 C908 1.376 . S
C908 H895 0.930 . S
C908 C907 1.376 . S
C908 C909 1.388 . S
C909 H896 0.930 . S
C909 C908 1.388 . S
C909 C910 1.390 . S
C910 C909 1.390 . S
C910 C911 1.394 . S
C910 C916 1.465 . S
C911 C906 1.399 . S
C911 C910 1.394 . S
C911 C912 1.516 . S
C912 C911 1.516 . S
C912 C913 1.502 . S
C912 C914 1.561 . S
C912 C915 1.526 . S
C913 H897 0.959 . S
C913 H898 0.959 . S
C913 H899 0.961 . S
C913 C912 1.502 . S
C914 H900 0.960 . S
C914 H901 0.961 . S
C914 H902 0.959 . S
C914 C912 1.561 . S
C915 C912 1.526 . S
C915 C916 1.396 . S
C915 C920 1.390 . S
C916 C910 1.465 . S
C916 C915 1.396 . S
C916 C917 1.399 . S
C917 H903 0.929 . S
C917 C916 1.399 . S
C917 C918 1.385 . S
C918 H904 0.931 . S
C918 C917 1.385 . S
C918 C919 1.389 . S
C919 C918 1.389 . S
C919 C920 1.387 . S
C920 H905 0.930 . S
C920 C915 1.390 . S
C920 C919 1.387 . S
H921 C933 0.930 . S
H922 C935 0.930 . S
H923 C936 0.930 . S
H924 C940 0.959 . S
H925 C940 0.959 . S
H926 C940 0.961 . S
H927 C941 0.960 . S
H928 C941 0.961 . S
H929 C941 0.959 . S
H930 C944 0.929 . S
H931 C945 0.931 . S
H932 C947 0.930 . S
C933 H921 0.930 . S
C933 C934 1.399 . S
C933 C938 1.399 . S
C934 C933 1.399 . S
C934 C935 1.376 . S
C935 H922 0.930 . S
C935 C934 1.376 . S
C935 C936 1.388 . S
C936 H923 0.930 . S
C936 C935 1.388 . S
C936 C937 1.390 . S
C937 C936 1.390 . S
C937 C938 1.394 . S
C937 C943 1.465 . S
C938 C933 1.399 . S
C938 C937 1.394 . S
C938 C939 1.516 . S
C939 C938 1.516 . S
C939 C940 1.502 . S
C939 C941 1.561 . S
C939 C942 1.526 . S
C940 H924 0.959 . S
C940 H925 0.959 . S
C940 H926 0.961 . S
C940 C939 1.502 . S
C941 H927 0.960 . S
C941 H928 0.961 . S
C941 H929 0.959 . S
C941 C939 1.561 . S
C942 C939 1.526 . S
C942 C943 1.396 . S
C942 C947 1.390 . S
C943 C937 1.465 . S
C943 C942 1.396 . S
C943 C944 1.399 . S
C944 H930 0.929 . S
C944 C943 1.399 . S
C944 C945 1.385 . S
C945 H931 0.931 . S
C945 C944 1.385 . S
C945 C946 1.389 . S
C946 C945 1.389 . S
C946 C947 1.387 . S
C947 H932 0.930 . S
C947 C942 1.390 . S
C947 C946 1.387 . S
H948 C960 0.930 . S
H949 C962 0.930 . S
H950 C963 0.930 . S
H951 C967 0.959 . S
H952 C967 0.959 . S
H953 C967 0.961 . S
H954 C968 0.960 . S
H955 C968 0.961 . S
H956 C968 0.959 . S
H957 C971 0.929 . S
H958 C972 0.931 . S
H959 C974 0.930 . S
C960 H948 0.930 . S
C960 C961 1.399 . S
C960 C965 1.399 . S
C961 C960 1.399 . S
C961 C962 1.376 . S
C962 H949 0.930 . S
C962 C961 1.376 . S
C962 C963 1.388 . S
C963 H950 0.930 . S
C963 C962 1.388 . S
C963 C964 1.390 . S
C964 C963 1.390 . S
C964 C965 1.394 . S
C964 C970 1.465 . S
C965 C960 1.399 . S
C965 C964 1.394 . S
C965 C966 1.516 . S
C966 C965 1.516 . S
C966 C967 1.502 . S
C966 C968 1.561 . S
C966 C969 1.526 . S
C967 H951 0.959 . S
C967 H952 0.959 . S
C967 H953 0.961 . S
C967 C966 1.502 . S
C968 H954 0.960 . S
C968 H955 0.961 . S
C968 H956 0.959 . S
C968 C966 1.561 . S
C969 C966 1.526 . S
C969 C970 1.396 . S
C969 C974 1.390 . S
C970 C964 1.465 . S
C970 C969 1.396 . S
C970 C971 1.399 . S
C971 H957 0.929 . S
C971 C970 1.399 . S
C971 C972 1.385 . S
C972 H958 0.931 . S
C972 C971 1.385 . S
C972 C973 1.389 . S
C973 C972 1.389 . S
C973 C974 1.387 . S
C974 H959 0.930 . S
C974 C969 1.390 . S
C974 C973 1.387 . S
H975 C987 0.930 . S
H976 C989 0.930 . S
H977 C990 0.930 . S
H978 C994 0.959 . S
H979 C994 0.959 . S
H980 C994 0.961 . S
H981 C995 0.960 . S
H982 C995 0.961 . S
H983 C995 0.959 . S
H984 C998 0.929 . S
H985 C999 0.931 . S
H986 C1001 0.930 . S
C987 H975 0.930 . S
C987 C988 1.399 . S
C987 C992 1.399 . S
C988 C987 1.399 . S
C988 C989 1.376 . S
C989 H976 0.930 . S
C989 C988 1.376 . S
C989 C990 1.388 . S
C990 H977 0.930 . S
C990 C989 1.388 . S
C990 C991 1.390 . S
C991 C990 1.390 . S
C991 C992 1.394 . S
C991 C997 1.465 . S
C992 C987 1.399 . S
C992 C991 1.394 . S
C992 C993 1.516 . S
C993 C992 1.516 . S
C993 C994 1.502 . S
C993 C995 1.561 . S
C993 C996 1.526 . S
C994 H978 0.959 . S
C994 H979 0.959 . S
C994 H980 0.961 . S
C994 C993 1.502 . S
C995 H981 0.960 . S
C995 H982 0.961 . S
C995 H983 0.959 . S
C995 C993 1.561 . S
C996 C993 1.526 . S
C996 C997 1.396 . S
C996 C1001 1.390 . S
C997 C991 1.465 . S
C997 C996 1.396 . S
C997 C998 1.399 . S
C998 H984 0.929 . S
C998 C997 1.399 . S
C998 C999 1.385 . S
C999 H985 0.931 . S
C999 C998 1.385 . S
C999 C1000 1.389 . S
C1000 C999 1.389 . S
C1000 C1001 1.387 . S
C1001 H986 0.930 . S
C1001 C996 1.390 . S
C1001 C1000 1.387 . S
H1002 C1014 0.930 . S
H1003 C1016 0.930 . S
H1004 C1017 0.930 . S
H1005 C1021 0.959 . S
H1006 C1021 0.959 . S
H1007 C1021 0.961 . S
H1008 C1022 0.960 . S
H1009 C1022 0.961 . S
H1010 C1022 0.959 . S
H1011 C1025 0.929 . S
H1012 C1026 0.931 . S
H1013 C1028 0.930 . S
C1014 H1002 0.930 . S
C1014 C1015 1.399 . S
C1014 C1019 1.399 . S
C1015 C1014 1.399 . S
C1015 C1016 1.376 . S
C1016 H1003 0.930 . S
C1016 C1015 1.376 . S
C1016 C1017 1.388 . S
C1017 H1004 0.930 . S
C1017 C1016 1.388 . S
C1017 C1018 1.390 . S
C1018 C1017 1.390 . S
C1018 C1019 1.394 . S
C1018 C1024 1.465 . S
C1019 C1014 1.399 . S
C1019 C1018 1.394 . S
C1019 C1020 1.516 . S
C1020 C1019 1.516 . S
C1020 C1021 1.502 . S
C1020 C1022 1.561 . S
C1020 C1023 1.526 . S
C1021 H1005 0.959 . S
C1021 H1006 0.959 . S
C1021 H1007 0.961 . S
C1021 C1020 1.502 . S
C1022 H1008 0.960 . S
C1022 H1009 0.961 . S
C1022 H1010 0.959 . S
C1022 C1020 1.561 . S
C1023 C1020 1.526 . S
C1023 C1024 1.396 . S
C1023 C1028 1.390 . S
C1024 C1018 1.465 . S
C1024 C1023 1.396 . S
C1024 C1025 1.399 . S
C1025 H1011 0.929 . S
C1025 C1024 1.399 . S
C1025 C1026 1.385 . S
C1026 H1012 0.931 . S
C1026 C1025 1.385 . S
C1026 C1027 1.389 . S
C1027 C1026 1.389 . S
C1027 C1028 1.387 . S
C1028 H1013 0.930 . S
C1028 C1023 1.390 . S
C1028 C1027 1.387 . S
H1029 C1041 0.930 . S
H1030 C1043 0.930 . S
H1031 C1044 0.930 . S
H1032 C1048 0.959 . S
H1033 C1048 0.959 . S
H1034 C1048 0.961 . S
H1035 C1049 0.960 . S
H1036 C1049 0.961 . S
H1037 C1049 0.959 . S
H1038 C1052 0.929 . S
H1039 C1053 0.931 . S
H1040 C1055 0.930 . S
C1041 H1029 0.930 . S
C1041 C1042 1.399 . S
C1041 C1046 1.399 . S
C1042 C1041 1.399 . S
C1042 C1043 1.376 . S
C1043 H1030 0.930 . S
C1043 C1042 1.376 . S
C1043 C1044 1.388 . S
C1044 H1031 0.930 . S
C1044 C1043 1.388 . S
C1044 C1045 1.390 . S
C1045 C1044 1.390 . S
C1045 C1046 1.394 . S
C1045 C1051 1.465 . S
C1046 C1041 1.399 . S
C1046 C1045 1.394 . S
C1046 C1047 1.516 . S
C1047 C1046 1.516 . S
C1047 C1048 1.502 . S
C1047 C1049 1.561 . S
C1047 C1050 1.526 . S
C1048 H1032 0.959 . S
C1048 H1033 0.959 . S
C1048 H1034 0.961 . S
C1048 C1047 1.502 . S
C1049 H1035 0.960 . S
C1049 H1036 0.961 . S
C1049 H1037 0.959 . S
C1049 C1047 1.561 . S
C1050 C1047 1.526 . S
C1050 C1051 1.396 . S
C1050 C1055 1.390 . S
C1051 C1045 1.465 . S
C1051 C1050 1.396 . S
C1051 C1052 1.399 . S
C1052 H1038 0.929 . S
C1052 C1051 1.399 . S
C1052 C1053 1.385 . S
C1053 H1039 0.931 . S
C1053 C1052 1.385 . S
C1053 C1054 1.389 . S
C1054 C1053 1.389 . S
C1054 C1055 1.387 . S
C1055 H1040 0.930 . S
C1055 C1050 1.390 . S
C1055 C1054 1.387 . S
C421 C58 1.466 . S
C433 C146 1.468 . S
C460 C230 1.469 . S
C448 C68 1.465 . S
C487 C223 1.455 . S
C475 C40 1.451 . S
C502 C50 1.461 . S
C514 C139 1.454 . S
C541 C303 1.464 . S
C529 C23 1.472 . S
C568 C387 1.459 . S
C556 C32 1.470 . S
C583 C5 1.456 . S
C595 C380 1.458 . S
C610 C14 1.449 . S
C622 C296 1.464 . S
C649 C130 1.300 . S
C637 C13 1.493 . S
C676 C214 1.330 . S
C664 C4 1.499 . S
C703 C225 1.447 . S
C691 C31 1.509 . S
C730 C141 1.436 . S
C718 C22 1.512 . S
C757 C309 1.264 . S
C745 C49 1.503 . S
C772 C41 1.490 . S
C784 C393 1.391 . S
C811 C382 1.401 . S
C799 C67 1.521 . S
C826 C59 1.511 . S
C838 C298 1.373 . S
C865 C128 1.514 . S
C853 C7 1.519 . S
C892 C212 1.518 . S
C880 C16 1.530 . S
C907 C25 1.508 . S
C919 C219 1.489 . S
C946 C135 1.514 . S
C934 C34 1.514 . S
C973 C307 1.515 . S
C961 C43 1.530 . S
C988 C52 1.527 . S
C1000 C391 1.529 . S
C1015 C61 1.529 . S
C1027 C398 1.526 . S
C1042 C70 1.506 . S
C1054 C314 1.485 . S
