# Generated by pormake.
# Topology anh, (6,3)-cn, num edge types: 1
# Building blocks:
#     Node 0, Type 0, BuildingBlock: BETDAH_clean_sbu_0, # of connection points: 6
#     Node 1, Type 0, BuildingBlock: BETDAH_clean_sbu_0, # of connection points: 6
#     Node 2, Type 0, BuildingBlock: BETDAH_clean_sbu_0, # of connection points: 6
#     Node 3, Type 1, BuildingBlock: ESEHIV_clean_linker_0, # of connection points: 3
#     Node 4, Type 1, BuildingBlock: ESEHIV_clean_linker_0, # of connection points: 3
#     Node 5, Type 1, BuildingBlock: ESEHIV_clean_linker_0, # of connection points: 3
#     Node 6, Type 1, BuildingBlock: ESEHIV_clean_linker_0, # of connection points: 3
#     Node 7, Type 1, BuildingBlock: ESEHIV_clean_linker_0, # of connection points: 3
#     Node 8, Type 1, BuildingBlock: ESEHIV_clean_linker_0, # of connection points: 3
#     Edge 9, Type (0, 1), BuildingBlock: KIFKEQ_clean_linker_1, # of connection points: 2
#     Edge 10, Type (0, 1), BuildingBlock: KIFKEQ_clean_linker_1, # of connection points: 2
#     Edge 11, Type (0, 1), BuildingBlock: KIFKEQ_clean_linker_1, # of connection points: 2
#     Edge 12, Type (0, 1), BuildingBlock: KIFKEQ_clean_linker_1, # of connection points: 2
#     Edge 13, Type (0, 1), BuildingBlock: KIFKEQ_clean_linker_1, # of connection points: 2
#     Edge 14, Type (0, 1), BuildingBlock: KIFKEQ_clean_linker_1, # of connection points: 2
#     Edge 15, Type (0, 1), BuildingBlock: KIFKEQ_clean_linker_1, # of connection points: 2
#     Edge 16, Type (0, 1), BuildingBlock: KIFKEQ_clean_linker_1, # of connection points: 2
#     Edge 17, Type (0, 1), BuildingBlock: KIFKEQ_clean_linker_1, # of connection points: 2
#     Edge 18, Type (0, 1), BuildingBlock: KIFKEQ_clean_linker_1, # of connection points: 2
#     Edge 19, Type (0, 1), BuildingBlock: KIFKEQ_clean_linker_1, # of connection points: 2
#     Edge 20, Type (0, 1), BuildingBlock: KIFKEQ_clean_linker_1, # of connection points: 2
#     Edge 21, Type (0, 1), BuildingBlock: KIFKEQ_clean_linker_1, # of connection points: 2
#     Edge 22, Type (0, 1), BuildingBlock: KIFKEQ_clean_linker_1, # of connection points: 2
#     Edge 23, Type (0, 1), BuildingBlock: KIFKEQ_clean_linker_1, # of connection points: 2
#     Edge 24, Type (0, 1), BuildingBlock: KIFKEQ_clean_linker_1, # of connection points: 2
#     Edge 25, Type (0, 1), BuildingBlock: KIFKEQ_clean_linker_1, # of connection points: 2
#     Edge 26, Type (0, 1), BuildingBlock: KIFKEQ_clean_linker_1, # of connection points: 2
# Relax obj value: 0.212
# Max RMSD: 0.226
# Mean RMSD: 0.165
data_MOF--net-anh--node1-BETDAH_clean_sbu_0--node2-ESEHIV_clean_linker_0--edge1-KIFKEQ_clean_linker_1
_symmetry_space_group_name_H-M    P1
_symmetry_Int_Tables_number       1
_symmetry_cell_setting            triclinic
loop_
_symmetry_equiv_pos_as_xyz
'x, y, z'
_cell_length_a     28.143567
_cell_length_b     35.359994
_cell_length_c     52.499122
_cell_angle_alpha  92.42928
_cell_angle_beta   89.012632
_cell_angle_gamma 130.06472
loop_
_atom_site_label
_atom_site_type_symbol
_atom_site_fract_x
_atom_site_fract_y
_atom_site_fract_z
_atom_type_partial_charge
Ho0 Ho 0.15937 0.5286 0.14098 0.0
Ho1 Ho 1.07721 0.54966 0.16172 0.0
C2 C 0.21648 0.64327 0.15306 0.0
C3 C 0.24266 0.53105 0.11801 0.0
C4 C 0.30764 0.55609 0.12527 0.0
C5 C 0.35722 0.60117 0.11474 0.0
C6 C 0.4186 0.62443 0.12168 0.0
C7 C 0.43137 0.60297 0.13925 0.0
C8 C 0.38149 0.55869 0.15027 0.0
C9 C 0.32056 0.53553 0.14335 0.0
C10 C 0.15031 0.52833 0.19214 0.0
C11 C 1.01977 0.43577 0.1484 0.0
C12 C 0.99402 0.54151 0.18864 0.0
C13 C 0.92834 0.49733 0.19063 0.0
C14 C 0.89669 0.48606 0.21372 0.0
C15 C 0.83532 0.44187 0.21563 0.0
C16 C 0.8054 0.40819 0.19455 0.0
C17 C 0.83797 0.41961 0.17165 0.0
C18 C 0.89862 0.46353 0.16974 0.0
C19 C 1.08713 0.55022 0.11041 0.0
O20 O 0.22079 0.61232 0.1404 0.0
O21 O 0.16636 0.62718 0.16608 0.0
O22 O 0.19995 0.49484 0.13223 0.0
O23 O 0.23031 0.55955 0.11215 0.0
O24 O 0.15581 0.49963 0.179 0.0
O25 O 0.15488 0.55806 0.17785 0.0
O26 O 1.01768 0.46634 0.16276 0.0
O27 O 1.06778 0.45287 0.13363 0.0
O28 O 1.0112 0.56162 0.16636 0.0
O29 O 1.0328 0.53707 0.1981 0.0
O30 O 1.08043 0.57852 0.12346 0.0
O31 O 1.08262 0.52064 0.12483 0.0
H32 H 0.34863 0.61807 0.10089 0.0
H33 H 0.45605 0.6584 0.11278 0.0
H34 H 0.38939 0.54022 0.1633 0.0
H35 H 0.28366 0.50088 0.15189 0.0
H36 H 0.91937 0.51135 0.23019 0.0
H37 H 0.81103 0.43428 0.2334 0.0
H38 H 0.81595 0.39531 0.1548 0.0
H39 H 0.92242 0.47092 0.15183 0.0
Ho40 Ho 0.68257 0.0409 0.47179 0.0
Ho41 Ho 0.59416 0.05947 0.46243 0.0
C42 C 0.53551 0.9482 0.46244 0.0
C43 C 0.73931 1.01055 0.48728 0.0
C44 C 0.72402 0.96318 0.49245 0.0
C45 C 0.67204 0.92725 0.50681 0.0
C46 C 0.66004 0.88338 0.51209 0.0
C47 C 0.69949 0.87442 0.50295 0.0
C48 C 0.75053 0.91007 0.48803 0.0
C49 C 0.76275 0.95403 0.48295 0.0
C50 C 0.67327 0.05607 0.42291 0.0
C51 C 0.74294 0.15312 0.47082 0.0
C52 C 0.53939 0.09204 0.448 0.0
C53 C 0.5471 0.13678 0.45493 0.0
C54 C 0.60027 0.18412 0.44806 0.0
C55 C 0.60875 0.22619 0.45653 0.0
C56 C 0.56442 0.22192 0.47212 0.0
C57 C 0.51058 0.17437 0.47838 0.0
C58 C 0.5019 0.13237 0.46976 0.0
C59 C 0.60523 0.04639 0.51155 0.0
O60 O 0.58748 0.96494 0.47419 0.0
O61 O 0.53081 0.97878 0.45169 0.0
O62 O 0.73646 0.01797 0.4634 0.0
O63 O 0.71673 0.02542 0.50273 0.0
O64 O 0.72495 0.07327 0.43389 0.0
O65 O 0.62866 0.03025 0.43797 0.0
O66 O 0.68822 0.13665 0.46232 0.0
O67 O 0.75108 0.12272 0.47882 0.0
O68 O 0.51845 0.06055 0.46603 0.0
O69 O 0.58407 0.0982 0.43515 0.0
O70 O 0.55374 0.03068 0.50114 0.0
O71 O 0.64876 0.07088 0.49598 0.0
H72 H 0.64111 0.93327 0.51421 0.0
H73 H 0.62068 0.85706 0.52385 0.0
H74 H 0.78119 0.90406 0.48025 0.0
H75 H 0.80279 0.9811 0.47165 0.0
H76 H 0.6359 0.18887 0.4365 0.0
H77 H 0.65026 0.26208 0.45095 0.0
H78 H 0.4758 0.16949 0.49064 0.0
H79 H 0.46041 0.09637 0.47528 0.0
Ho80 Ho 0.66615 0.57437 0.83814 0.0
Ho81 Ho 0.57537 0.46297 0.84268 0.0
C82 C 0.51728 0.51615 0.84506 0.0
C83 C 0.72704 0.66481 0.8256 0.0
C84 C 0.71512 0.69843 0.81989 0.0
C85 C 0.66201 0.682 0.8062 0.0
C86 C 0.65379 0.71554 0.7999 0.0
C87 C 0.69836 0.76599 0.8073 0.0
C88 C 0.7504 0.78176 0.82171 0.0
C89 C 0.75873 0.74832 0.82785 0.0
C90 C 0.65309 0.54193 0.88514 0.0
C91 C 0.72575 0.52211 0.83793 0.0
C92 C 0.51888 0.37269 0.85413 0.0
C93 C 0.53132 0.33837 0.849 0.0
C94 C 0.58726 0.35027 0.85678 0.0
C95 C 0.60061 0.31951 0.8495 0.0
C96 C 0.55837 0.27625 0.83427 0.0
C97 C 0.50159 0.26371 0.82724 0.0
C98 C 0.4882 0.29436 0.8346 0.0
C99 C 0.59037 0.49454 0.7951 0.0
O100 O 0.5715 0.5553 0.83622 0.0
O101 O 0.51001 0.47741 0.85261 0.0
O102 O 0.71894 0.65166 0.84922 0.0
O103 O 0.7062 0.62827 0.80904 0.0
O104 O 0.70572 0.57989 0.87629 0.0
O105 O 0.60994 0.52481 0.86927 0.0
O106 O 0.66945 0.48112 0.84375 0.0
O107 O 0.73527 0.5626 0.83212 0.0
O108 O 0.50465 0.38455 0.83411 0.0
O109 O 0.55691 0.41066 0.86983 0.0
O110 O 0.53795 0.45623 0.80379 0.0
O111 O 0.63282 0.51229 0.81147 0.0
H112 H 0.62748 0.6435 0.80001 0.0
H113 H 0.61344 0.70216 0.78861 0.0
H114 H 0.78498 0.82007 0.82818 0.0
H115 H 0.79973 0.76157 0.83862 0.0
H116 H 0.62133 0.38382 0.86805 0.0
H117 H 0.64433 0.32992 0.85561 0.0
H118 H 0.46828 0.23111 0.81524 0.0
H119 H 0.44479 0.28441 0.82835 0.0
H120 H 0.559 0.96769 0.22918 0.0
H121 H 0.72409 0.12065 0.22661 0.0
H122 H 0.6266 0.03732 0.15722 0.0
C123 C 0.59357 1.00017 0.21855 0.0
C124 C 0.58826 0.99699 0.19188 0.0
C125 C 0.64184 0.04469 0.23149 0.0
C126 C 0.68553 0.08621 0.21712 0.0
C127 C 0.68006 0.08404 0.19045 0.0
C128 C 0.63076 0.0394 0.17781 0.0
H129 H 0.64416 0.60967 0.6057 0.0
H130 H 0.62343 0.47808 0.60077 0.0
H131 H 0.63544 0.54638 0.53227 0.0
C132 C 0.63952 0.58114 0.59429 0.0
C133 C 0.64043 0.58251 0.56757 0.0
C134 C 0.63405 0.54394 0.60643 0.0
C135 C 0.62876 0.50744 0.59153 0.0
C136 C 0.6292 0.50802 0.56478 0.0
C137 C 0.63604 0.54614 0.55291 0.0
H138 H 1.05865 0.54643 0.91288 0.0
H139 H 0.19446 0.52863 0.9194 0.0
H140 H 0.1266 0.52305 0.84483 0.0
C141 C 1.08892 0.54109 0.90372 0.0
C142 C 1.08763 0.5353 0.87704 0.0
C143 C 0.1265 0.53798 0.91889 0.0
C144 C 0.16474 0.53002 0.90735 0.0
C145 C 0.16634 0.52507 0.88064 0.0
C146 C 0.12694 0.52747 0.86538 0.0
H147 H 1.06683 0.4617 0.38751 0.0
H148 H 0.21541 0.61853 0.38689 0.0
H149 H 0.14225 0.5474 0.45851 0.0
C150 C 1.0995 0.49693 0.39784 0.0
C151 C 1.09918 0.49918 0.42463 0.0
C152 C 0.14044 0.53989 0.38422 0.0
C153 C 0.18272 0.58537 0.39745 0.0
C154 C 0.18423 0.58834 0.42418 0.0
C155 C 0.14136 0.54529 0.43785 0.0
H156 H 0.63217 0.091 0.70772 0.0
H157 H 0.65298 0.98108 0.70028 0.0
H158 H 0.65183 0.03601 0.77485 0.0
C159 C 0.63922 0.06773 0.71651 0.0
C160 C 0.64137 0.06735 0.74323 0.0
C161 C 0.64357 0.03685 0.70095 0.0
C162 C 0.65013 1.00523 0.7123 0.0
C163 C 0.65308 1.00456 0.73896 0.0
C164 C 0.64846 0.03565 0.7543 0.0
H165 H 0.62063 0.50408 0.06993 0.0
H166 H 0.57131 0.36114 0.06209 0.0
H167 H 0.57737 0.42123 0.13635 0.0
C168 C 0.60806 0.47149 0.07861 0.0
C169 C 0.6002 0.46718 0.10503 0.0
C170 C 0.59837 0.43381 0.06304 0.0
C171 C 0.57822 0.39015 0.07401 0.0
C172 C 0.56963 0.38494 0.10053 0.0
C173 C 0.58097 0.4238 0.11581 0.0
H174 H 0.51905 0.63514 0.10294 0.0
H175 H 0.48737 0.6093 0.18348 0.0
H176 H 0.59665 0.6258 0.10434 0.0
H177 H 0.56483 0.59873 0.18475 0.0
H178 H 0.52985 0.4568 0.14502 0.0
H179 H 0.52589 0.51875 0.16298 0.0
H180 H 0.68437 0.63009 0.1185 0.0
H181 H 0.68967 0.56783 0.10092 0.0
C182 C 0.531 0.6302 0.12129 0.0
C183 C 0.49502 0.62055 0.14285 0.0
C184 C 0.57591 0.62489 0.12213 0.0
C185 C 0.58485 0.60943 0.14446 0.0
C186 C 0.55753 0.60932 0.16712 0.0
C187 C 0.51294 0.61509 0.16634 0.0
C188 C 0.56572 0.49481 0.13989 0.0
C189 C 0.60867 0.507 0.12085 0.0
C190 C 0.56374 0.53064 0.15036 0.0
C191 C 0.60422 0.57922 0.14178 0.0
C192 C 0.65212 0.59278 0.12518 0.0
C193 C 0.65452 0.55697 0.11489 0.0
H194 H 0.74381 0.22868 0.45969 0.0
H195 H 0.86513 0.19932 0.48022 0.0
H196 H 0.83405 0.3152 0.45382 0.0
H197 H 0.95513 0.28587 0.47451 0.0
H198 H 1.08549 0.41599 0.41979 0.0
H199 H 1.00148 0.33471 0.43578 0.0
H200 H 0.9258 0.39502 0.47505 0.0
H201 H 1.01062 0.47687 0.45886 0.0
C202 C 0.7896 0.24074 0.4633 0.0
C203 C 0.79712 0.20681 0.47017 0.0
C204 C 0.84135 0.29048 0.46012 0.0
C205 C 0.90182 0.30737 0.46355 0.0
C206 C 0.90919 0.27389 0.47145 0.0
C207 C 0.8575 0.22428 0.47481 0.0
C208 C 1.05158 0.41203 0.43228 0.0
C209 C 1.05442 0.45258 0.43811 0.0
C210 C 1.00357 0.36554 0.44152 0.0
C211 C 0.95676 0.35831 0.45662 0.0
C212 C 0.96094 0.39938 0.46331 0.0
C213 C 1.00967 0.44623 0.45428 0.0
H214 H 0.79006 0.85955 0.79135 0.0
H215 H 0.59257 0.75498 0.80463 0.0
H216 H 0.78035 0.91883 0.77715 0.0
H217 H 0.58239 0.81358 0.7891 0.0
H218 H 0.59489 0.948 0.78076 0.0
H219 H 0.60706 0.89222 0.79903 0.0
H220 H 0.73987 0.92899 0.74085 0.0
H221 H 0.72989 0.9862 0.72342 0.0
C222 C 0.74455 0.84926 0.79141 0.0
C223 C 0.69209 0.80242 0.79918 0.0
C224 C 0.73888 0.88308 0.78292 0.0
C225 C 0.68053 0.87088 0.7818 0.0
C226 C 0.62811 0.82434 0.78992 0.0
C227 C 0.63383 0.7905 0.79852 0.0
C228 C 0.62731 0.94464 0.77212 0.0
C229 C 0.66128 0.97144 0.75059 0.0
C230 C 0.63373 0.91224 0.7824 0.0
C231 C 0.67435 0.90603 0.77139 0.0
C232 C 0.70872 0.93327 0.75002 0.0
C233 C 0.7024 0.96564 0.73981 0.0
H234 H 0.74476 0.31367 0.17515 0.0
H235 H 0.7129 0.40628 0.21286 0.0
H236 H 0.64191 0.26333 0.1554 0.0
H237 H 0.61115 0.3566 0.19346 0.0
H238 H 0.49192 0.33186 0.14029 0.0
H239 H 0.51229 0.29512 0.17193 0.0
H240 H 0.64379 0.30779 0.12097 0.0
H241 H 0.62402 0.3445 0.08994 0.0
C242 C 0.71455 0.32171 0.18028 0.0
C243 C 0.7379 0.36545 0.19434 0.0
C244 C 0.65547 0.29273 0.16903 0.0
C245 C 0.6199 0.30775 0.17156 0.0
C246 C 0.63778 0.34451 0.19041 0.0
C247 C 0.69676 0.37346 0.20163 0.0
C248 C 0.52313 0.32467 0.13549 0.0
C249 C 0.55888 0.34339 0.11326 0.0
C250 C 0.53447 0.30331 0.15356 0.0
C251 C 0.58202 0.30092 0.14959 0.0
C252 C 0.60769 0.30989 0.12507 0.0
C253 C 0.59653 0.33135 0.10708 0.0
H254 H 0.41925 0.90085 0.44279 0.0
H255 H 0.53082 0.87304 0.47854 0.0
H256 H 0.33296 0.81217 0.43865 0.0
H257 H 0.44403 0.78419 0.47457 0.0
H258 H 0.17183 0.65048 0.44957 0.0
H259 H 0.25598 0.73733 0.46282 0.0
H260 H 0.39099 0.72226 0.439 0.0
H261 H 0.30696 0.63591 0.42598 0.0
C262 C 0.42531 0.87588 0.44993 0.0
C263 C 0.48225 0.89419 0.46082 0.0
C264 C 0.37553 0.82498 0.44778 0.0
C265 C 0.38146 0.79102 0.45633 0.0
C266 C 0.43806 0.80933 0.46762 0.0
C267 C 0.48779 0.8603 0.46992 0.0
C268 C 0.21958 0.66562 0.44793 0.0
C269 C 0.23326 0.63674 0.43705 0.0
C270 C 0.26771 0.71534 0.4552 0.0
C271 C 0.33026 0.73685 0.45182 0.0
C272 C 0.3435 0.70686 0.44214 0.0
C273 C 0.29549 0.65745 0.43469 0.0
H274 H 0.67125 0.30799 0.81764 0.0
H275 H 0.48206 0.17513 0.82866 0.0
H276 H 0.69599 0.25845 0.79893 0.0
H277 H 0.50592 0.12587 0.8086 0.0
H278 H 0.57572 0.04442 0.78738 0.0
H279 H 0.56076 0.0956 0.81245 0.0
H280 H 0.67479 0.213 0.75983 0.0
H281 H 0.69241 0.16296 0.73564 0.0
C282 C 0.63503 0.26817 0.81633 0.0
C283 C 0.57453 0.24563 0.82458 0.0
C284 C 0.64904 0.23979 0.80525 0.0
C285 C 0.60285 0.18815 0.802 0.0
C286 C 0.54284 0.16546 0.81097 0.0
C287 C 0.52891 0.19382 0.82218 0.0
C288 C 0.59858 0.08152 0.78145 0.0
C289 C 0.63499 0.09944 0.7594 0.0
C290 C 0.58937 0.11066 0.79566 0.0
C291 C 0.61622 0.15837 0.78811 0.0
C292 C 0.65389 0.17669 0.76641 0.0
C293 C 0.66331 0.14768 0.7523 0.0
H294 H 0.58824 0.78007 0.50659 0.0
H295 H 0.78645 0.86569 0.51469 0.0
H296 H 0.57117 0.70682 0.51983 0.0
H297 H 0.76918 0.79227 0.52726 0.0
H298 H 0.71677 0.6404 0.52883 0.0
H299 H 0.72855 0.70854 0.51049 0.0
H300 H 0.58666 0.68119 0.56049 0.0
H301 H 0.57445 0.61295 0.57854 0.0
C302 C 0.62816 0.78336 0.51118 0.0
C303 C 0.68874 0.82895 0.50964 0.0
C304 C 0.61834 0.74133 0.51865 0.0
C305 C 0.66885 0.74384 0.52454 0.0
C306 C 0.72937 0.78903 0.52246 0.0
C307 C 0.73921 0.83111 0.5152 0.0
C308 C 0.68764 0.64865 0.53563 0.0
C309 C 0.64504 0.62168 0.55521 0.0
C310 C 0.69465 0.68778 0.52528 0.0
C311 C 0.65865 0.70025 0.53412 0.0
C312 C 0.6147 0.67222 0.55315 0.0
C313 C 0.60814 0.63349 0.56364 0.0
H314 H 0.72709 0.44753 0.85006 0.0
H315 H 0.84864 0.59929 0.82789 0.0
H316 H 0.81632 0.45142 0.85456 0.0
H317 H 0.93767 0.60291 0.83176 0.0
H318 H 1.08578 0.61116 0.87582 0.0
H319 H 0.99978 0.60732 0.86339 0.0
H320 H 0.89809 0.4564 0.83535 0.0
H321 H 0.98472 0.46045 0.84843 0.0
C322 C 0.77269 0.48164 0.84585 0.0
C323 C 0.78007 0.52317 0.83877 0.0
C324 C 0.82421 0.48379 0.84826 0.0
C325 C 0.88507 0.5276 0.84368 0.0
C326 C 0.8921 0.56867 0.83592 0.0
C327 C 0.84063 0.56651 0.83353 0.0
C328 C 1.04588 0.57766 0.86623 0.0
C329 C 1.04276 0.5364 0.86278 0.0
C330 C 0.9961 0.5753 0.85913 0.0
C331 C 0.94096 0.53138 0.84844 0.0
C332 C 0.93908 0.49073 0.84383 0.0
C333 C 0.98929 0.49324 0.85088 0.0
H334 H 0.33379 0.68835 0.13592 0.0
H335 H 0.22303 0.71994 0.17218 0.0
H336 H 0.42532 0.77573 0.14018 0.0
H337 H 0.31487 0.80739 0.17645 0.0
H338 H 0.48612 0.96857 0.16555 0.0
H339 H 0.39546 0.88369 0.15193 0.0
H340 H 0.4879 0.83108 0.17794 0.0
H341 H 0.57754 0.9154 0.19153 0.0
C342 C 0.32871 0.71392 0.14457 0.0
C343 C 0.27102 0.69696 0.15391 0.0
C344 C 0.3813 0.76402 0.14706 0.0
C345 C 0.37741 0.79848 0.1587 0.0
C346 C 0.31929 0.78186 0.16716 0.0
C347 C 0.26675 0.73165 0.16489 0.0
C348 C 0.48729 0.93884 0.1677 0.0
C349 C 0.53863 0.94825 0.17938 0.0
C350 C 0.43538 0.89033 0.16018 0.0
C351 C 0.43446 0.85066 0.16393 0.0
C352 C 0.48733 0.86078 0.17451 0.0
C353 C 0.53861 0.90897 0.18231 0.0
H354 H 0.67431 0.31063 0.48888 0.0
H355 H 0.47876 0.23481 0.47959 0.0
H356 H 0.69021 0.38151 0.50905 0.0
H357 H 0.49471 0.30514 0.50054 0.0
H358 H 0.53966 0.40904 0.57046 0.0
H359 H 0.52468 0.34181 0.5459 0.0
H360 H 0.68239 0.44813 0.49968 0.0
H361 H 0.69744 0.51569 0.52439 0.0
C362 C 0.63485 0.30924 0.49075 0.0
C363 C 0.5751 0.26668 0.48271 0.0
C364 C 0.64403 0.34986 0.5024 0.0
C365 C 0.59362 0.34863 0.50652 0.0
C366 C 0.53425 0.30676 0.49793 0.0
C367 C 0.52515 0.2664 0.48603 0.0
C368 C 0.57116 0.41803 0.55508 0.0
C369 C 0.61987 0.46752 0.54938 0.0
C370 C 0.56227 0.37958 0.54089 0.0
C371 C 0.60229 0.38978 0.52086 0.0
C372 C 0.65104 0.43928 0.5151 0.0
C373 C 0.65943 0.47783 0.52911 0.0
H374 H 0.51677 0.59353 0.83996 0.0
H375 H 0.39504 0.43785 0.85442 0.0
H376 H 0.42978 0.59296 0.84519 0.0
H377 H 0.30793 0.43657 0.85853 0.0
H378 H 0.18119 0.46038 0.89592 0.0
H379 H 0.26381 0.45835 0.8858 0.0
H380 H 0.33511 0.57078 0.83081 0.0
H381 H 0.25277 0.57418 0.84209 0.0
C382 C 0.47137 0.559 0.84402 0.0
C383 C 0.46359 0.51586 0.84706 0.0
C384 C 0.421 0.55853 0.84683 0.0
C385 C 0.36092 0.5148 0.85257 0.0
C386 C 0.35317 0.47145 0.85481 0.0
C387 C 0.40349 0.47206 0.85228 0.0
C388 C 0.21401 0.48438 0.88142 0.0
C389 C 0.21004 0.51761 0.86996 0.0
C390 C 0.26167 0.48301 0.87541 0.0
C391 C 0.30735 0.51453 0.85744 0.0
C392 C 0.30186 0.54638 0.84506 0.0
C393 C 0.25386 0.54782 0.85119 0.0
H394 H 0.91082 0.38996 0.17359 0.0
H395 H 1.00992 0.3589 0.12618 0.0
H396 H 0.82608 0.302 0.17741 0.0
H397 H 0.92495 0.26999 0.13073 0.0
H398 H 0.80283 0.13147 0.18541 0.0
H399 H 0.88333 0.21468 0.16999 0.0
H400 H 0.7425 0.2236 0.15042 0.0
H401 H 0.66196 0.13985 0.16551 0.0
C402 C 0.91413 0.36444 0.16356 0.0
C403 C 0.96706 0.38174 0.14933 0.0
C404 C 0.86533 0.31385 0.16575 0.0
C405 C 0.86856 0.27906 0.15418 0.0
C406 C 0.92118 0.29604 0.13978 0.0
C407 C 0.96973 0.34691 0.13718 0.0
C408 C 0.78917 0.15076 0.17706 0.0
C409 C 0.72644 0.12941 0.17644 0.0
C410 C 0.8351 0.19827 0.16822 0.0
C411 C 0.81921 0.22569 0.15909 0.0
C412 C 0.75606 0.20333 0.15742 0.0
C413 C 0.71001 0.15542 0.16586 0.0
H414 H 1.06919 0.59459 0.07506 0.0
H415 H 0.12222 0.50518 0.08296 0.0
H416 H 1.07882 0.59173 0.02891 0.0
H417 H 0.13663 0.50521 0.0372 0.0
H418 H 1.09668 0.4696 0.95257 0.0
H419 H 1.08648 0.47262 -0.00139 0.0
H420 H 0.1441 0.61902 0.99462 0.0
H421 H 0.14994 0.61389 0.94831 0.0
C422 C 1.08375 0.57489 0.06689 0.0
C423 C 1.09484 0.55004 0.08253 0.0
C424 C 1.08988 0.57355 0.0404 0.0
C425 C 0.10858 0.54819 0.029 0.0
C426 C 0.12074 0.52416 0.04496 0.0
C427 C 0.11317 0.52456 0.07132 0.0
C428 C 0.10726 0.50237 0.96168 0.0
C429 C 0.1241 0.5415 0.94703 0.0
C430 C 1.10188 0.5044 0.98814 0.0
C431 C 0.1146 0.54619 0.00068 0.0
C432 C 0.13258 0.58574 0.98582 0.0
C433 C 0.13656 0.58314 0.95928 0.0
H434 H 0.76312 0.12128 0.39007 0.0
H435 H 0.56841 0.99342 0.3936 0.0
H436 H 0.75415 0.12016 0.34363 0.0
H437 H 0.55994 0.99157 0.34706 0.0
H438 H 0.61284 0.97318 0.26368 0.0
H439 H 0.61662 0.97744 0.31013 0.0
H440 H 0.68782 0.12789 0.31053 0.0
H441 H 0.68067 0.12318 0.26406 0.0
C442 C 0.71842 0.09315 0.38088 0.0
C443 C 0.66651 0.05735 0.39529 0.0
C444 C 0.71329 0.09262 0.35442 0.0
C445 C 0.65647 0.05565 0.34191 0.0
C446 C 0.6043 0.02026 0.35635 0.0
C447 C 0.6091 0.02146 0.38289 0.0
C448 C 0.62818 1.00695 0.27353 0.0
C449 C 0.64619 0.04777 0.25991 0.0
C450 C 0.63059 1.00935 0.30016 0.0
C451 C 0.6523 0.05291 0.31377 0.0
C452 C 0.67117 0.09397 0.30036 0.0
C453 C 0.66755 0.09129 0.27373 0.0
H454 H 0.70058 0.55684 0.77027 0.0
H455 H 0.50197 0.46276 0.75951 0.0
H456 H 0.71503 0.57407 0.72476 0.0
H457 H 0.51626 0.47989 0.71425 0.0
H458 H 0.56669 0.55523 0.63879 0.0
H459 H 0.56028 0.54956 0.68512 0.0
H460 H 0.69 0.52285 0.68404 0.0
H461 H 0.69705 0.52918 0.63768 0.0
C462 C 0.66016 0.54027 0.75821 0.0
C463 C 0.60016 0.50828 0.76827 0.0
C464 C 0.66838 0.5499 0.73221 0.0
C465 C 0.61675 0.52822 0.71598 0.0
C466 C 0.55693 0.49747 0.72632 0.0
C467 C 0.54872 0.48745 0.75218 0.0
C468 C 0.5944 0.54876 0.6485 0.0
C469 C 0.63218 0.54244 0.63464 0.0
C470 C 0.59043 0.54521 0.67497 0.0
C471 C 0.62455 0.53568 0.68816 0.0
C472 C 0.66358 0.53063 0.67439 0.0
C473 C 0.66711 0.53373 0.64787 0.0
H474 H 0.51405 0.98928 0.54568 0.0
H475 H 0.71345 0.09526 0.53869 0.0
H476 H 0.52551 0.9857 0.59131 0.0
H477 H 0.72501 0.09179 0.5845 0.0
H478 H 0.70684 0.11708 0.67112 0.0
H479 H 0.69971 0.11779 0.6248 0.0
H480 H 0.56655 0.95813 0.62103 0.0
H481 H 0.57329 0.95745 0.66737 0.0
C482 C 0.56033 1.0116 0.55393 0.0
C483 C 0.61287 0.04272 0.53878 0.0
C484 C 0.56689 1.00935 0.57999 0.0
C485 C 0.62614 0.03856 0.59144 0.0
C486 C 0.67879 0.06923 0.57618 0.0
C487 C 0.67221 0.07105 0.55002 0.0
C488 C 0.67606 0.08219 0.66036 0.0
C489 C 0.64048 0.03722 0.67281 0.0
C490 C 0.67242 0.08258 0.63387 0.0
C491 C 0.63261 0.03801 0.61935 0.0
C492 C 0.59735 0.99303 0.63179 0.0
C493 C 0.6015 0.99263 0.65824 0.0
H494 H 0.54582 0.47429 0.91024 0.0
H495 H 0.74391 0.55808 0.91412 0.0
H496 H 0.53478 0.44114 0.95181 0.0
H497 H 0.73299 0.52334 0.95506 0.0
H498 H 0.52548 0.37042 0.02274 0.0
H499 H 0.54046 0.38981 0.97756 0.0
H500 H 0.71295 0.53589 0.99676 0.0
H501 H 0.69934 0.51557 0.04119 0.0
C502 C 0.58684 0.48501 0.9199 0.0
C503 C 0.6458 0.51935 0.90934 0.0
C504 C 0.58053 0.46562 0.94357 0.0
C505 C 0.63308 0.47983 0.95693 0.0
C506 C 0.6917 0.51243 0.94559 0.0
C507 C 0.69803 0.53231 0.92214 0.0
C508 C 0.56726 0.4061 0.01706 0.0
C509 C 0.61084 0.44174 0.03543 0.0
C510 C 0.57555 0.41747 0.99129 0.0
C511 C 0.62758 0.46462 0.98351 0.0
C512 C 0.67265 0.49905 0.00187 0.0
C513 C 0.66454 0.48763 0.02745 0.0
H514 H 0.17925 0.60411 0.22345 0.0
H515 H 0.11123 0.45454 0.22352 0.0
H516 H 0.17687 0.60692 0.26987 0.0
H517 H 0.10446 0.45559 0.26979 0.0
H518 H 0.16077 0.48828 0.35324 0.0
H519 H 0.16302 0.48588 0.30679 0.0
H520 H 0.11631 0.581 0.30575 0.0
H521 H 0.11848 0.58567 0.35226 0.0
C522 C 0.16297 0.5716 0.23349 0.0
C523 C 0.14593 0.52928 0.22007 0.0
C524 C 0.16106 0.57295 0.26011 0.0
C525 C 0.14063 0.53151 0.27383 0.0
C526 C 0.122 0.4887 0.2601 0.0
C527 C 0.12533 0.48784 0.23354 0.0
C528 C 0.1511 0.5086 0.34291 0.0
C529 C 0.13964 0.53723 0.3561 0.0
C530 C 0.15183 0.507 0.31629 0.0
C531 C 0.13965 0.53314 0.30227 0.0
C532 C 0.12721 0.5612 0.31572 0.0
C533 C 0.12792 0.56365 0.34236 0.0
loop_
_geom_bond_atom_site_label_1
_geom_bond_atom_site_label_2
_geom_bond_distance
_geom_bond_site_symmetry_2
_ccdc_geom_bond_type
Ho0 C3 2.811 . S
Ho0 O20 2.322 . S
Ho0 O22 2.378 . S
Ho0 O23 2.524 . S
Ho0 O24 2.381 . S
Ho0 O25 2.669 . S
Ho0 O27 2.346 1_455 S
Ho0 O31 2.305 . S
Ho1 C12 2.811 . S
Ho1 O21 2.346 1_655 S
Ho1 O25 2.305 1_655 S
Ho1 O26 2.322 . S
Ho1 O28 2.378 . S
Ho1 O29 2.524 . S
Ho1 O30 2.381 . S
Ho1 O31 2.669 1_655 S
C2 O20 1.259 . S
C2 O21 1.268 . S
C3 Ho0 2.811 . S
C3 C4 1.488 . S
C3 O22 1.215 . S
C3 O23 1.289 . S
C4 C3 1.488 . S
C4 C5 1.348 . S
C4 C9 1.413 . S
C5 C4 1.348 . S
C5 C6 1.442 . S
C5 H32 0.930 . S
C6 C5 1.442 . S
C6 C7 1.381 . S
C6 H33 0.931 . S
C7 C6 1.381 . S
C7 C8 1.321 . S
C8 C7 1.321 . S
C8 C9 1.403 . S
C8 H34 0.934 . S
C9 C4 1.413 . S
C9 C8 1.403 . S
C9 H35 0.930 . S
C10 O24 1.275 . S
C10 O25 1.256 . S
C11 O26 1.259 . S
C11 O27 1.268 . S
C12 Ho1 2.811 . S
C12 C13 1.488 . S
C12 O28 1.215 . S
C12 O29 1.289 . S
C13 C12 1.488 . S
C13 C14 1.348 . S
C13 C18 1.413 . S
C14 C13 1.348 . S
C14 C15 1.442 . S
C14 H36 0.930 . S
C15 C14 1.442 . S
C15 C16 1.381 . S
C15 H37 0.931 . S
C16 C15 1.381 . S
C16 C17 1.321 . S
C17 C16 1.321 . S
C17 C18 1.403 . S
C17 H38 0.934 . S
C18 C13 1.413 . S
C18 C17 1.403 . S
C18 H39 0.930 . S
C19 O30 1.275 1_455 S
C19 O31 1.256 . S
O20 Ho0 2.322 . S
O20 C2 1.259 . S
O21 Ho1 2.346 1_455 S
O21 C2 1.268 . S
O22 Ho0 2.378 . S
O22 C3 1.215 . S
O23 Ho0 2.524 . S
O23 C3 1.289 . S
O24 Ho0 2.381 . S
O24 C10 1.275 . S
O25 Ho0 2.669 . S
O25 Ho1 2.305 1_455 S
O25 C10 1.256 . S
O26 Ho1 2.322 . S
O26 C11 1.259 . S
O27 Ho0 2.346 1_655 S
O27 C11 1.268 . S
O28 Ho1 2.378 . S
O28 C12 1.215 . S
O29 Ho1 2.524 . S
O29 C12 1.289 . S
O30 Ho1 2.381 . S
O30 C19 1.275 1_655 S
O31 Ho0 2.305 . S
O31 Ho1 2.669 1_455 S
O31 C19 1.256 . S
H32 C5 0.930 . S
H33 C6 0.931 . S
H34 C8 0.934 . S
H35 C9 0.930 . S
H36 C14 0.930 . S
H37 C15 0.931 . S
H38 C17 0.934 . S
H39 C18 0.930 . S
Ho40 C43 2.811 . S
Ho40 O60 2.322 . S
Ho40 O62 2.378 . S
Ho40 O63 2.524 . S
Ho40 O64 2.381 . S
Ho40 O65 2.669 1_565 S
Ho40 O67 2.346 1_565 S
Ho40 O71 2.317 . S
Ho41 C52 2.811 . S
Ho41 O61 2.346 1_545 S
Ho41 O65 2.305 . S
Ho41 O66 2.322 . S
Ho41 O68 2.378 . S
Ho41 O69 2.524 . S
Ho41 O70 2.381 . S
Ho41 O71 2.650 1_545 S
C42 O60 1.259 . S
C42 O61 1.268 . S
C43 Ho40 2.811 . S
C43 C44 1.488 . S
C43 O62 1.215 . S
C43 O63 1.289 . S
C44 C43 1.488 . S
C44 C45 1.348 . S
C44 C49 1.413 . S
C45 C44 1.348 . S
C45 C46 1.442 . S
C45 H72 0.930 . S
C46 C45 1.442 . S
C46 C47 1.381 . S
C46 H73 0.931 . S
C47 C46 1.381 . S
C47 C48 1.321 . S
C48 C47 1.321 . S
C48 C49 1.403 . S
C48 H74 0.934 . S
C49 C44 1.413 . S
C49 C48 1.403 . S
C49 H75 0.930 . S
C50 O64 1.275 1_545 S
C50 O65 1.256 . S
C51 O66 1.259 . S
C51 O67 1.268 . S
C52 Ho41 2.811 . S
C52 C53 1.488 . S
C52 O68 1.215 . S
C52 O69 1.289 . S
C53 C52 1.488 . S
C53 C54 1.348 . S
C53 C58 1.413 . S
C54 C53 1.348 . S
C54 C55 1.442 . S
C54 H76 0.930 . S
C55 C54 1.442 . S
C55 C56 1.381 . S
C55 H77 0.931 . S
C56 C55 1.381 . S
C56 C57 1.321 . S
C57 C56 1.321 . S
C57 C58 1.403 . S
C57 H78 0.934 . S
C58 C53 1.413 . S
C58 C57 1.403 . S
C58 H79 0.930 . S
C59 O70 1.275 . S
C59 O71 1.245 1_545 S
O60 Ho40 2.322 . S
O60 C42 1.259 . S
O61 Ho41 2.346 1_565 S
O61 C42 1.268 . S
O62 Ho40 2.378 . S
O62 C43 1.215 . S
O63 Ho40 2.524 . S
O63 C43 1.289 . S
O64 Ho40 2.381 . S
O64 C50 1.275 1_565 S
O65 Ho40 2.669 1_545 S
O65 Ho41 2.305 . S
O65 C50 1.256 . S
O66 Ho41 2.322 . S
O66 C51 1.259 . S
O67 Ho40 2.346 1_545 S
O67 C51 1.268 . S
O68 Ho41 2.378 . S
O68 C52 1.215 . S
O69 Ho41 2.524 . S
O69 C52 1.289 . S
O70 Ho41 2.381 . S
O70 C59 1.275 . S
O71 Ho40 2.317 . S
O71 Ho41 2.650 1_565 S
O71 C59 1.245 1_565 S
H72 C45 0.930 . S
H73 C46 0.931 . S
H74 C48 0.934 . S
H75 C49 0.930 . S
H76 C54 0.930 . S
H77 C55 0.931 . S
H78 C57 0.934 . S
H79 C58 0.930 . S
Ho80 C83 2.811 . S
Ho80 O100 2.322 . S
Ho80 O102 2.378 . S
Ho80 O103 2.524 . S
Ho80 O104 2.381 . S
Ho80 O105 2.669 . S
Ho80 O107 2.346 . S
Ho80 O111 2.305 . S
Ho81 C92 2.811 . S
Ho81 O101 2.346 . S
Ho81 O105 2.305 . S
Ho81 O106 2.322 . S
Ho81 O108 2.378 . S
Ho81 O109 2.524 . S
Ho81 O110 2.381 . S
Ho81 O111 2.669 . S
C82 O100 1.259 . S
C82 O101 1.268 . S
C83 Ho80 2.811 . S
C83 C84 1.488 . S
C83 O102 1.215 . S
C83 O103 1.289 . S
C84 C83 1.488 . S
C84 C85 1.348 . S
C84 C89 1.413 . S
C85 C84 1.348 . S
C85 C86 1.442 . S
C85 H112 0.930 . S
C86 C85 1.442 . S
C86 C87 1.381 . S
C86 H113 0.931 . S
C87 C86 1.381 . S
C87 C88 1.321 . S
C88 C87 1.321 . S
C88 C89 1.403 . S
C88 H114 0.934 . S
C89 C84 1.413 . S
C89 C88 1.403 . S
C89 H115 0.930 . S
C90 O104 1.275 . S
C90 O105 1.256 . S
C91 O106 1.259 . S
C91 O107 1.268 . S
C92 Ho81 2.811 . S
C92 C93 1.488 . S
C92 O108 1.215 . S
C92 O109 1.289 . S
C93 C92 1.488 . S
C93 C94 1.348 . S
C93 C98 1.413 . S
C94 C93 1.348 . S
C94 C95 1.442 . S
C94 H116 0.930 . S
C95 C94 1.442 . S
C95 C96 1.381 . S
C95 H117 0.931 . S
C96 C95 1.381 . S
C96 C97 1.321 . S
C97 C96 1.321 . S
C97 C98 1.403 . S
C97 H118 0.934 . S
C98 C93 1.413 . S
C98 C97 1.403 . S
C98 H119 0.930 . S
C99 O110 1.275 . S
C99 O111 1.256 . S
O100 Ho80 2.322 . S
O100 C82 1.259 . S
O101 Ho81 2.346 . S
O101 C82 1.268 . S
O102 Ho80 2.378 . S
O102 C83 1.215 . S
O103 Ho80 2.524 . S
O103 C83 1.289 . S
O104 Ho80 2.381 . S
O104 C90 1.275 . S
O105 Ho80 2.669 . S
O105 Ho81 2.305 . S
O105 C90 1.256 . S
O106 Ho81 2.322 . S
O106 C91 1.259 . S
O107 Ho80 2.346 . S
O107 C91 1.268 . S
O108 Ho81 2.378 . S
O108 C92 1.215 . S
O109 Ho81 2.524 . S
O109 C92 1.289 . S
O110 Ho81 2.381 . S
O110 C99 1.275 . S
O111 Ho80 2.305 . S
O111 Ho81 2.669 . S
O111 C99 1.256 . S
H112 C85 0.930 . S
H113 C86 0.931 . S
H114 C88 0.934 . S
H115 C89 0.930 . S
H116 C94 0.930 . S
H117 C95 0.931 . S
H118 C97 0.934 . S
H119 C98 0.930 . S
H120 C123 0.931 . S
H121 C126 0.928 . S
H122 C128 0.930 . S
C123 H120 0.931 . S
C123 C124 1.413 . S
C123 C125 1.360 1_565 S
C124 C123 1.413 . S
C124 C128 1.429 1_565 S
C125 C123 1.360 1_545 S
C125 C126 1.372 . S
C126 H121 0.928 . S
C126 C125 1.372 . S
C126 C127 1.404 . S
C127 C126 1.404 . S
C127 C128 1.391 . S
C128 H122 0.930 . S
C128 C124 1.429 1_545 S
C128 C127 1.391 . S
H129 C132 0.931 . S
H130 C135 0.928 . S
H131 C137 0.930 . S
C132 H129 0.931 . S
C132 C133 1.413 . S
C132 C134 1.360 . S
C133 C132 1.413 . S
C133 C137 1.429 . S
C134 C132 1.360 . S
C134 C135 1.372 . S
C135 H130 0.928 . S
C135 C134 1.372 . S
C135 C136 1.404 . S
C136 C135 1.404 . S
C136 C137 1.391 . S
C137 H131 0.930 . S
C137 C133 1.429 . S
C137 C136 1.391 . S
H138 C141 0.931 1_655 S
H139 C144 0.928 . S
H140 C146 0.930 . S
C141 H138 0.931 1_455 S
C141 C142 1.413 . S
C141 C143 1.360 . S
C142 C141 1.413 . S
C142 C146 1.429 . S
C143 C141 1.360 . S
C143 C144 1.372 . S
C144 H139 0.928 . S
C144 C143 1.372 . S
C144 C145 1.404 . S
C145 C144 1.404 . S
C145 C146 1.391 . S
C146 H140 0.930 . S
C146 C142 1.429 . S
C146 C145 1.391 . S
H147 C150 0.931 . S
H148 C153 0.928 . S
H149 C155 0.930 . S
C150 H147 0.931 . S
C150 C151 1.413 . S
C150 C152 1.360 1_655 S
C151 C150 1.413 . S
C151 C155 1.429 1_655 S
C152 C150 1.360 1_455 S
C152 C153 1.372 . S
C153 H148 0.928 . S
C153 C152 1.372 . S
C153 C154 1.404 . S
C154 C153 1.404 . S
C154 C155 1.391 . S
C155 H149 0.930 . S
C155 C151 1.429 1_455 S
C155 C154 1.391 . S
H156 C159 0.931 . S
H157 C162 0.928 . S
H158 C164 0.930 . S
C159 H156 0.931 . S
C159 C160 1.413 . S
C159 C161 1.360 1_545 S
C160 C159 1.413 . S
C160 C164 1.429 . S
C161 C159 1.360 1_565 S
C161 C162 1.372 . S
C162 H157 0.928 . S
C162 C161 1.372 . S
C162 C163 1.404 . S
C163 C162 1.404 . S
C163 C164 1.391 1_565 S
C164 H158 0.930 . S
C164 C160 1.429 . S
C164 C163 1.391 1_545 S
H165 C168 0.931 . S
H166 C171 0.928 . S
H167 C173 0.930 . S
C168 H165 0.931 . S
C168 C169 1.413 . S
C168 C170 1.360 . S
C169 C168 1.413 . S
C169 C173 1.429 . S
C170 C168 1.360 . S
C170 C171 1.372 . S
C171 H166 0.928 . S
C171 C170 1.372 . S
C171 C172 1.404 . S
C172 C171 1.404 . S
C172 C173 1.391 . S
C173 H167 0.930 . S
C173 C169 1.429 . S
C173 C172 1.391 . S
H174 C182 0.950 . S
H175 C187 0.950 . S
H176 C184 0.950 . S
H177 C186 0.950 . S
H178 C188 0.950 . S
H179 C190 0.950 . S
H180 C192 0.950 . S
H181 C193 0.950 . S
C182 H174 0.950 . S
C182 C183 1.386 . S
C182 C184 1.391 . S
C183 C182 1.386 . S
C183 C187 1.393 . S
C184 H176 0.950 . S
C184 C182 1.391 . S
C184 C185 1.400 . S
C185 C184 1.400 . S
C185 C186 1.398 . S
C185 C191 1.491 . S
C186 H177 0.950 . S
C186 C185 1.398 . S
C186 C187 1.391 . S
C187 H175 0.950 . S
C187 C183 1.393 . S
C187 C186 1.391 . S
C188 H178 0.950 . S
C188 C189 1.386 . S
C188 C190 1.391 . S
C189 C188 1.386 . S
C189 C193 1.393 . S
C190 H179 0.950 . S
C190 C188 1.391 . S
C190 C191 1.400 . S
C191 C185 1.491 . S
C191 C190 1.400 . S
C191 C192 1.398 . S
C192 H180 0.950 . S
C192 C191 1.398 . S
C192 C193 1.391 . S
C193 H181 0.950 . S
C193 C189 1.393 . S
C193 C192 1.391 . S
H194 C202 0.950 . S
H195 C207 0.950 . S
H196 C204 0.950 . S
H197 C206 0.950 . S
H198 C208 0.950 . S
H199 C210 0.950 . S
H200 C212 0.950 . S
H201 C213 0.950 . S
C202 H194 0.950 . S
C202 C203 1.386 . S
C202 C204 1.391 . S
C203 C202 1.386 . S
C203 C207 1.393 . S
C204 H196 0.950 . S
C204 C202 1.391 . S
C204 C205 1.400 . S
C205 C204 1.400 . S
C205 C206 1.398 . S
C205 C211 1.491 . S
C206 H197 0.950 . S
C206 C205 1.398 . S
C206 C207 1.391 . S
C207 H195 0.950 . S
C207 C203 1.393 . S
C207 C206 1.391 . S
C208 H198 0.950 . S
C208 C209 1.386 . S
C208 C210 1.391 . S
C209 C208 1.386 . S
C209 C213 1.393 . S
C210 H199 0.950 . S
C210 C208 1.391 . S
C210 C211 1.400 . S
C211 C205 1.491 . S
C211 C210 1.400 . S
C211 C212 1.398 . S
C212 H200 0.950 . S
C212 C211 1.398 . S
C212 C213 1.391 . S
C213 H201 0.950 . S
C213 C209 1.393 . S
C213 C212 1.391 . S
H214 C222 0.950 . S
H215 C227 0.950 . S
H216 C224 0.950 . S
H217 C226 0.950 . S
H218 C228 0.950 . S
H219 C230 0.950 . S
H220 C232 0.950 . S
H221 C233 0.950 . S
C222 H214 0.950 . S
C222 C223 1.386 . S
C222 C224 1.391 . S
C223 C222 1.386 . S
C223 C227 1.393 . S
C224 H216 0.950 . S
C224 C222 1.391 . S
C224 C225 1.400 . S
C225 C224 1.400 . S
C225 C226 1.398 . S
C225 C231 1.491 . S
C226 H217 0.950 . S
C226 C225 1.398 . S
C226 C227 1.391 . S
C227 H215 0.950 . S
C227 C223 1.393 . S
C227 C226 1.391 . S
C228 H218 0.950 . S
C228 C229 1.386 . S
C228 C230 1.391 . S
C229 C228 1.386 . S
C229 C233 1.393 . S
C230 H219 0.950 . S
C230 C228 1.391 . S
C230 C231 1.400 . S
C231 C225 1.491 . S
C231 C230 1.400 . S
C231 C232 1.398 . S
C232 H220 0.950 . S
C232 C231 1.398 . S
C232 C233 1.391 . S
C233 H221 0.950 . S
C233 C229 1.393 . S
C233 C232 1.391 . S
H234 C242 0.950 . S
H235 C247 0.950 . S
H236 C244 0.950 . S
H237 C246 0.950 . S
H238 C248 0.950 . S
H239 C250 0.950 . S
H240 C252 0.950 . S
H241 C253 0.950 . S
C242 H234 0.950 . S
C242 C243 1.386 . S
C242 C244 1.391 . S
C243 C242 1.386 . S
C243 C247 1.393 . S
C244 H236 0.950 . S
C244 C242 1.391 . S
C244 C245 1.400 . S
C245 C244 1.400 . S
C245 C246 1.398 . S
C245 C251 1.491 . S
C246 H237 0.950 . S
C246 C245 1.398 . S
C246 C247 1.391 . S
C247 H235 0.950 . S
C247 C243 1.393 . S
C247 C246 1.391 . S
C248 H238 0.950 . S
C248 C249 1.386 . S
C248 C250 1.391 . S
C249 C248 1.386 . S
C249 C253 1.393 . S
C250 H239 0.950 . S
C250 C248 1.391 . S
C250 C251 1.400 . S
C251 C245 1.491 . S
C251 C250 1.400 . S
C251 C252 1.398 . S
C252 H240 0.950 . S
C252 C251 1.398 . S
C252 C253 1.391 . S
C253 H241 0.950 . S
C253 C249 1.393 . S
C253 C252 1.391 . S
H254 C262 0.950 . S
H255 C267 0.950 . S
H256 C264 0.950 . S
H257 C266 0.950 . S
H258 C268 0.950 . S
H259 C270 0.950 . S
H260 C272 0.950 . S
H261 C273 0.950 . S
C262 H254 0.950 . S
C262 C263 1.386 . S
C262 C264 1.391 . S
C263 C262 1.386 . S
C263 C267 1.393 . S
C264 H256 0.950 . S
C264 C262 1.391 . S
C264 C265 1.400 . S
C265 C264 1.400 . S
C265 C266 1.398 . S
C265 C271 1.491 . S
C266 H257 0.950 . S
C266 C265 1.398 . S
C266 C267 1.391 . S
C267 H255 0.950 . S
C267 C263 1.393 . S
C267 C266 1.391 . S
C268 H258 0.950 . S
C268 C269 1.386 . S
C268 C270 1.391 . S
C269 C268 1.386 . S
C269 C273 1.393 . S
C270 H259 0.950 . S
C270 C268 1.391 . S
C270 C271 1.400 . S
C271 C265 1.491 . S
C271 C270 1.400 . S
C271 C272 1.398 . S
C272 H260 0.950 . S
C272 C271 1.398 . S
C272 C273 1.391 . S
C273 H261 0.950 . S
C273 C269 1.393 . S
C273 C272 1.391 . S
H274 C282 0.950 . S
H275 C287 0.950 . S
H276 C284 0.950 . S
H277 C286 0.950 . S
H278 C288 0.950 . S
H279 C290 0.950 . S
H280 C292 0.950 . S
H281 C293 0.950 . S
C282 H274 0.950 . S
C282 C283 1.386 . S
C282 C284 1.391 . S
C283 C282 1.386 . S
C283 C287 1.393 . S
C284 H276 0.950 . S
C284 C282 1.391 . S
C284 C285 1.400 . S
C285 C284 1.400 . S
C285 C286 1.398 . S
C285 C291 1.491 . S
C286 H277 0.950 . S
C286 C285 1.398 . S
C286 C287 1.391 . S
C287 H275 0.950 . S
C287 C283 1.393 . S
C287 C286 1.391 . S
C288 H278 0.950 . S
C288 C289 1.386 . S
C288 C290 1.391 . S
C289 C288 1.386 . S
C289 C293 1.393 . S
C290 H279 0.950 . S
C290 C288 1.391 . S
C290 C291 1.400 . S
C291 C285 1.491 . S
C291 C290 1.400 . S
C291 C292 1.398 . S
C292 H280 0.950 . S
C292 C291 1.398 . S
C292 C293 1.391 . S
C293 H281 0.950 . S
C293 C289 1.393 . S
C293 C292 1.391 . S
H294 C302 0.950 . S
H295 C307 0.950 . S
H296 C304 0.950 . S
H297 C306 0.950 . S
H298 C308 0.950 . S
H299 C310 0.950 . S
H300 C312 0.950 . S
H301 C313 0.950 . S
C302 H294 0.950 . S
C302 C303 1.386 . S
C302 C304 1.391 . S
C303 C302 1.386 . S
C303 C307 1.393 . S
C304 H296 0.950 . S
C304 C302 1.391 . S
C304 C305 1.400 . S
C305 C304 1.400 . S
C305 C306 1.398 . S
C305 C311 1.491 . S
C306 H297 0.950 . S
C306 C305 1.398 . S
C306 C307 1.391 . S
C307 H295 0.950 . S
C307 C303 1.393 . S
C307 C306 1.391 . S
C308 H298 0.950 . S
C308 C309 1.386 . S
C308 C310 1.391 . S
C309 C308 1.386 . S
C309 C313 1.393 . S
C310 H299 0.950 . S
C310 C308 1.391 . S
C310 C311 1.400 . S
C311 C305 1.491 . S
C311 C310 1.400 . S
C311 C312 1.398 . S
C312 H300 0.950 . S
C312 C311 1.398 . S
C312 C313 1.391 . S
C313 H301 0.950 . S
C313 C309 1.393 . S
C313 C312 1.391 . S
H314 C322 0.950 . S
H315 C327 0.950 . S
H316 C324 0.950 . S
H317 C326 0.950 . S
H318 C328 0.950 . S
H319 C330 0.950 . S
H320 C332 0.950 . S
H321 C333 0.950 . S
C322 H314 0.950 . S
C322 C323 1.386 . S
C322 C324 1.391 . S
C323 C322 1.386 . S
C323 C327 1.393 . S
C324 H316 0.950 . S
C324 C322 1.391 . S
C324 C325 1.400 . S
C325 C324 1.400 . S
C325 C326 1.398 . S
C325 C331 1.491 . S
C326 H317 0.950 . S
C326 C325 1.398 . S
C326 C327 1.391 . S
C327 H315 0.950 . S
C327 C323 1.393 . S
C327 C326 1.391 . S
C328 H318 0.950 . S
C328 C329 1.386 . S
C328 C330 1.391 . S
C329 C328 1.386 . S
C329 C333 1.393 . S
C330 H319 0.950 . S
C330 C328 1.391 . S
C330 C331 1.400 . S
C331 C325 1.491 . S
C331 C330 1.400 . S
C331 C332 1.398 . S
C332 H320 0.950 . S
C332 C331 1.398 . S
C332 C333 1.391 . S
C333 H321 0.950 . S
C333 C329 1.393 . S
C333 C332 1.391 . S
H334 C342 0.950 . S
H335 C347 0.950 . S
H336 C344 0.950 . S
H337 C346 0.950 . S
H338 C348 0.950 . S
H339 C350 0.950 . S
H340 C352 0.950 . S
H341 C353 0.950 . S
C342 H334 0.950 . S
C342 C343 1.386 . S
C342 C344 1.391 . S
C343 C342 1.386 . S
C343 C347 1.393 . S
C344 H336 0.950 . S
C344 C342 1.391 . S
C344 C345 1.400 . S
C345 C344 1.400 . S
C345 C346 1.398 . S
C345 C351 1.491 . S
C346 H337 0.950 . S
C346 C345 1.398 . S
C346 C347 1.391 . S
C347 H335 0.950 . S
C347 C343 1.393 . S
C347 C346 1.391 . S
C348 H338 0.950 . S
C348 C349 1.386 . S
C348 C350 1.391 . S
C349 C348 1.386 . S
C349 C353 1.393 . S
C350 H339 0.950 . S
C350 C348 1.391 . S
C350 C351 1.400 . S
C351 C345 1.491 . S
C351 C350 1.400 . S
C351 C352 1.398 . S
C352 H340 0.950 . S
C352 C351 1.398 . S
C352 C353 1.391 . S
C353 H341 0.950 . S
C353 C349 1.393 . S
C353 C352 1.391 . S
H354 C362 0.950 . S
H355 C367 0.950 . S
H356 C364 0.950 . S
H357 C366 0.950 . S
H358 C368 0.950 . S
H359 C370 0.950 . S
H360 C372 0.950 . S
H361 C373 0.950 . S
C362 H354 0.950 . S
C362 C363 1.386 . S
C362 C364 1.391 . S
C363 C362 1.386 . S
C363 C367 1.393 . S
C364 H356 0.950 . S
C364 C362 1.391 . S
C364 C365 1.400 . S
C365 C364 1.400 . S
C365 C366 1.398 . S
C365 C371 1.491 . S
C366 H357 0.950 . S
C366 C365 1.398 . S
C366 C367 1.391 . S
C367 H355 0.950 . S
C367 C363 1.393 . S
C367 C366 1.391 . S
C368 H358 0.950 . S
C368 C369 1.386 . S
C368 C370 1.391 . S
C369 C368 1.386 . S
C369 C373 1.393 . S
C370 H359 0.950 . S
C370 C368 1.391 . S
C370 C371 1.400 . S
C371 C365 1.491 . S
C371 C370 1.400 . S
C371 C372 1.398 . S
C372 H360 0.950 . S
C372 C371 1.398 . S
C372 C373 1.391 . S
C373 H361 0.950 . S
C373 C369 1.393 . S
C373 C372 1.391 . S
H374 C382 0.950 . S
H375 C387 0.950 . S
H376 C384 0.950 . S
H377 C386 0.950 . S
H378 C388 0.950 . S
H379 C390 0.950 . S
H380 C392 0.950 . S
H381 C393 0.950 . S
C382 H374 0.950 . S
C382 C383 1.386 . S
C382 C384 1.391 . S
C383 C382 1.386 . S
C383 C387 1.393 . S
C384 H376 0.950 . S
C384 C382 1.391 . S
C384 C385 1.400 . S
C385 C384 1.400 . S
C385 C386 1.398 . S
C385 C391 1.491 . S
C386 H377 0.950 . S
C386 C385 1.398 . S
C386 C387 1.391 . S
C387 H375 0.950 . S
C387 C383 1.393 . S
C387 C386 1.391 . S
C388 H378 0.950 . S
C388 C389 1.386 . S
C388 C390 1.391 . S
C389 C388 1.386 . S
C389 C393 1.393 . S
C390 H379 0.950 . S
C390 C388 1.391 . S
C390 C391 1.400 . S
C391 C385 1.491 . S
C391 C390 1.400 . S
C391 C392 1.398 . S
C392 H380 0.950 . S
C392 C391 1.398 . S
C392 C393 1.391 . S
C393 H381 0.950 . S
C393 C389 1.393 . S
C393 C392 1.391 . S
H394 C402 0.950 . S
H395 C407 0.950 . S
H396 C404 0.950 . S
H397 C406 0.950 . S
H398 C408 0.950 . S
H399 C410 0.950 . S
H400 C412 0.950 . S
H401 C413 0.950 . S
C402 H394 0.950 . S
C402 C403 1.386 . S
C402 C404 1.391 . S
C403 C402 1.386 . S
C403 C407 1.393 . S
C404 H396 0.950 . S
C404 C402 1.391 . S
C404 C405 1.400 . S
C405 C404 1.400 . S
C405 C406 1.398 . S
C405 C411 1.491 . S
C406 H397 0.950 . S
C406 C405 1.398 . S
C406 C407 1.391 . S
C407 H395 0.950 . S
C407 C403 1.393 . S
C407 C406 1.391 . S
C408 H398 0.950 . S
C408 C409 1.386 . S
C408 C410 1.391 . S
C409 C408 1.386 . S
C409 C413 1.393 . S
C410 H399 0.950 . S
C410 C408 1.391 . S
C410 C411 1.400 . S
C411 C405 1.491 . S
C411 C410 1.400 . S
C411 C412 1.398 . S
C412 H400 0.950 . S
C412 C411 1.398 . S
C412 C413 1.391 . S
C413 H401 0.950 . S
C413 C409 1.393 . S
C413 C412 1.391 . S
H414 C422 0.950 1_655 S
H415 C427 0.950 . S
H416 C424 0.950 1_655 S
H417 C426 0.950 . S
H418 C428 0.950 . S
H419 C430 0.954 . S
H420 C432 0.966 1_655 S
H421 C433 0.950 1_655 S
C422 H414 0.950 1_455 S
C422 C423 1.386 . S
C422 C424 1.391 . S
C423 C422 1.386 . S
C423 C427 1.393 . S
C424 H416 0.950 1_455 S
C424 C422 1.391 . S
C424 C425 1.400 . S
C425 C424 1.400 . S
C425 C426 1.398 . S
C425 C431 1.491 . S
C426 H417 0.950 . S
C426 C425 1.398 . S
C426 C427 1.391 . S
C427 H415 0.950 . S
C427 C423 1.393 . S
C427 C426 1.391 . S
C428 H418 0.950 . S
C428 C429 1.386 . S
C428 C430 1.391 . S
C429 C428 1.386 . S
C429 C433 1.393 . S
C430 H419 0.954 . S
C430 C428 1.391 . S
C430 C431 1.400 1_556 S
C431 C425 1.491 . S
C431 C430 1.400 1_554 S
C431 C432 1.398 1_554 S
C432 H420 0.966 1_455 S
C432 C431 1.398 1_556 S
C432 C433 1.391 . S
C433 H421 0.950 1_455 S
C433 C429 1.393 . S
C433 C432 1.391 . S
H434 C442 0.950 . S
H435 C447 0.950 . S
H436 C444 0.950 . S
H437 C446 0.950 . S
H438 C448 0.950 . S
H439 C450 0.950 . S
H440 C452 0.950 . S
H441 C453 0.950 . S
C442 H434 0.950 . S
C442 C443 1.386 . S
C442 C444 1.391 . S
C443 C442 1.386 . S
C443 C447 1.393 1_545 S
C444 H436 0.950 . S
C444 C442 1.391 . S
C444 C445 1.400 . S
C445 C444 1.400 . S
C445 C446 1.398 1_545 S
C445 C451 1.491 . S
C446 H437 0.950 . S
C446 C445 1.398 1_565 S
C446 C447 1.391 . S
C447 H435 0.950 . S
C447 C443 1.393 1_565 S
C447 C446 1.391 . S
C448 H438 0.950 . S
C448 C449 1.386 1_565 S
C448 C450 1.391 . S
C449 C448 1.386 1_545 S
C449 C453 1.393 . S
C450 H439 0.950 . S
C450 C448 1.391 . S
C450 C451 1.400 1_565 S
C451 C445 1.491 . S
C451 C450 1.400 1_545 S
C451 C452 1.398 . S
C452 H440 0.950 . S
C452 C451 1.398 . S
C452 C453 1.391 . S
C453 H441 0.950 . S
C453 C449 1.393 . S
C453 C452 1.391 . S
H454 C462 0.950 . S
H455 C467 0.950 . S
H456 C464 0.950 . S
H457 C466 0.950 . S
H458 C468 0.950 . S
H459 C470 0.950 . S
H460 C472 0.950 . S
H461 C473 0.950 . S
C462 H454 0.950 . S
C462 C463 1.386 . S
C462 C464 1.391 . S
C463 C462 1.386 . S
C463 C467 1.393 . S
C464 H456 0.950 . S
C464 C462 1.391 . S
C464 C465 1.400 . S
C465 C464 1.400 . S
C465 C466 1.398 . S
C465 C471 1.491 . S
C466 H457 0.950 . S
C466 C465 1.398 . S
C466 C467 1.391 . S
C467 H455 0.950 . S
C467 C463 1.393 . S
C467 C466 1.391 . S
C468 H458 0.950 . S
C468 C469 1.386 . S
C468 C470 1.391 . S
C469 C468 1.386 . S
C469 C473 1.393 . S
C470 H459 0.950 . S
C470 C468 1.391 . S
C470 C471 1.400 . S
C471 C465 1.491 . S
C471 C470 1.400 . S
C471 C472 1.398 . S
C472 H460 0.950 . S
C472 C471 1.398 . S
C472 C473 1.391 . S
C473 H461 0.950 . S
C473 C469 1.393 . S
C473 C472 1.391 . S
H474 C482 0.950 . S
H475 C487 0.950 . S
H476 C484 0.950 . S
H477 C486 0.950 . S
H478 C488 0.950 . S
H479 C490 0.950 . S
H480 C492 0.950 . S
H481 C493 0.950 . S
C482 H474 0.950 . S
C482 C483 1.386 . S
C482 C484 1.391 . S
C483 C482 1.386 . S
C483 C487 1.393 1_545 S
C484 H476 0.950 . S
C484 C482 1.391 . S
C484 C485 1.400 . S
C485 C484 1.400 . S
C485 C486 1.398 1_545 S
C485 C491 1.491 . S
C486 H477 0.950 . S
C486 C485 1.398 1_565 S
C486 C487 1.391 . S
C487 H475 0.950 . S
C487 C483 1.393 1_565 S
C487 C486 1.391 . S
C488 H478 0.950 . S
C488 C489 1.369 1_565 S
C488 C490 1.391 . S
C489 C488 1.369 1_545 S
C489 C493 1.411 . S
C490 H479 0.950 . S
C490 C488 1.391 . S
C490 C491 1.400 1_565 S
C491 C485 1.491 . S
C491 C490 1.400 1_545 S
C491 C492 1.398 . S
C492 H480 0.950 . S
C492 C491 1.398 . S
C492 C493 1.391 . S
C493 H481 0.950 . S
C493 C489 1.411 . S
C493 C492 1.391 . S
H494 C502 0.950 . S
H495 C507 0.950 . S
H496 C504 0.950 . S
H497 C506 0.950 . S
H498 C508 0.950 . S
H499 C510 0.950 . S
H500 C512 0.950 . S
H501 C513 0.950 . S
C502 H494 0.950 . S
C502 C503 1.386 . S
C502 C504 1.391 . S
C503 C502 1.386 . S
C503 C507 1.393 . S
C504 H496 0.950 . S
C504 C502 1.391 . S
C504 C505 1.400 . S
C505 C504 1.400 . S
C505 C506 1.398 . S
C505 C511 1.491 . S
C506 H497 0.950 . S
C506 C505 1.398 . S
C506 C507 1.391 . S
C507 H495 0.950 . S
C507 C503 1.393 . S
C507 C506 1.391 . S
C508 H498 0.950 . S
C508 C509 1.386 . S
C508 C510 1.391 1_554 S
C509 C508 1.386 . S
C509 C513 1.393 . S
C510 H499 0.950 . S
C510 C508 1.391 1_556 S
C510 C511 1.400 . S
C511 C505 1.491 . S
C511 C510 1.400 . S
C511 C512 1.398 . S
C512 H500 0.950 . S
C512 C511 1.398 . S
C512 C513 1.391 1_556 S
C513 H501 0.950 . S
C513 C509 1.393 . S
C513 C512 1.391 1_554 S
H514 C522 0.950 . S
H515 C527 0.950 . S
H516 C524 0.950 . S
H517 C526 0.950 . S
H518 C528 0.950 . S
H519 C530 0.950 . S
H520 C532 0.950 . S
H521 C533 0.950 . S
C522 H514 0.950 . S
C522 C523 1.386 1_655 S
C522 C524 1.391 . S
C523 C522 1.386 1_455 S
C523 C527 1.393 . S
C524 H516 0.950 . S
C524 C522 1.391 . S
C524 C525 1.400 1_655 S
C525 C524 1.400 1_455 S
C525 C526 1.398 . S
C525 C531 1.491 . S
C526 H517 0.950 . S
C526 C525 1.398 . S
C526 C527 1.391 . S
C527 H515 0.950 . S
C527 C523 1.393 . S
C527 C526 1.391 . S
C528 H518 0.950 . S
C528 C529 1.386 . S
C528 C530 1.391 . S
C529 C528 1.386 . S
C529 C533 1.393 1_455 S
C530 H519 0.950 . S
C530 C528 1.391 . S
C530 C531 1.400 . S
C531 C525 1.491 . S
C531 C530 1.400 . S
C531 C532 1.398 1_455 S
C532 H520 0.950 . S
C532 C531 1.398 1_655 S
C532 C533 1.391 . S
C533 H521 0.950 . S
C533 C529 1.393 1_655 S
C533 C532 1.391 . S
C183 C7 0.745 . S
C189 C169 0.722 . S
C203 C51 1.819 . S
C209 C151 1.797 . S
C223 C87 1.311 . S
C229 C163 1.353 . S
C243 C16 0.635 . S
C249 C172 0.529 . S
C269 C154 1.832 . S
C263 C42 1.846 . S
C289 C160 1.387 . S
C283 C96 1.361 . S
C303 C47 1.289 . S
C309 C133 1.307 . S
C323 C91 2.995 . S
C329 C142 2.958 1_655 S
C343 C2 1.882 . S
C349 C124 1.885 . S
C369 C136 1.378 . S
C363 C56 1.341 . S
C389 C145 2.895 . S
C383 C82 2.895 . S
C403 C11 1.807 . S
C409 C127 1.788 . S
C429 C143 1.790 . S
C423 C19 1.726 . S
C443 C50 1.316 . S
C449 C125 1.366 . S
C463 C99 1.443 . S
C469 C134 1.507 . S
C489 C161 1.478 1_545 S
C483 C59 1.440 . S
C509 C170 1.052 . S
C503 C90 1.055 . S
C523 C10 1.317 . S
C529 C152 1.350 . S
