# Generated by pormake.
# Topology pth, (4,4)-cn, num edge types: 1
# Building blocks:
#     Node 0, Type 0, BuildingBlock: QUQFOY_clean_sbu_1, # of connection points: 4
#     Node 1, Type 0, BuildingBlock: QUQFOY_clean_sbu_1, # of connection points: 4
#     Node 2, Type 0, BuildingBlock: QUQFOY_clean_sbu_1, # of connection points: 4
#     Node 3, Type 1, BuildingBlock: NAWXER_clean_linker_0, # of connection points: 4
#     Node 4, Type 1, BuildingBlock: NAWXER_clean_linker_0, # of connection points: 4
#     Node 5, Type 1, BuildingBlock: NAWXER_clean_linker_0, # of connection points: 4
#     Edge 6, Type (0, 1), BuildingBlock: KIFKEQ_clean_linker_1, # of connection points: 2
#     Edge 7, Type (0, 1), BuildingBlock: KIFKEQ_clean_linker_1, # of connection points: 2
#     Edge 8, Type (0, 1), BuildingBlock: KIFKEQ_clean_linker_1, # of connection points: 2
#     Edge 9, Type (0, 1), BuildingBlock: KIFKEQ_clean_linker_1, # of connection points: 2
#     Edge 10, Type (0, 1), BuildingBlock: KIFKEQ_clean_linker_1, # of connection points: 2
#     Edge 11, Type (0, 1), BuildingBlock: KIFKEQ_clean_linker_1, # of connection points: 2
#     Edge 12, Type (0, 1), BuildingBlock: KIFKEQ_clean_linker_1, # of connection points: 2
#     Edge 13, Type (0, 1), BuildingBlock: KIFKEQ_clean_linker_1, # of connection points: 2
#     Edge 14, Type (0, 1), BuildingBlock: KIFKEQ_clean_linker_1, # of connection points: 2
#     Edge 15, Type (0, 1), BuildingBlock: KIFKEQ_clean_linker_1, # of connection points: 2
#     Edge 16, Type (0, 1), BuildingBlock: KIFKEQ_clean_linker_1, # of connection points: 2
#     Edge 17, Type (0, 1), BuildingBlock: KIFKEQ_clean_linker_1, # of connection points: 2
# Relax obj value: 0.022
# Max RMSD: 0.123
# Mean RMSD: 0.072
data_MOF--net-pth--node1-QUQFOY_clean_sbu_1--node2-NAWXER_clean_linker_0--edge1-KIFKEQ_clean_linker_1
_symmetry_space_group_name_H-M    P1
_symmetry_Int_Tables_number       1
_symmetry_cell_setting            triclinic
loop_
_symmetry_equiv_pos_as_xyz
'x, y, z'
_cell_length_a     28.543535
_cell_length_b     30.51595
_cell_length_c     67.938684
_cell_angle_alpha  89.953319
_cell_angle_beta   90.080353
_cell_angle_gamma 120.02327
loop_
_atom_site_label
_atom_site_type_symbol
_atom_site_fract_x
_atom_site_fract_y
_atom_site_fract_z
_atom_type_partial_charge
O0 O 0.02931 0.07666 0.06527 0.0
Cd1 Cd 0.96909 0.0279 0.08412 0.0
Cd2 Cd 0.02869 0.98447 0.08425 0.0
O3 O 0.08791 0.05227 0.0727 0.0
O4 O 0.93421 0.06615 0.09394 0.0
O5 O 0.98167 0.0437 0.11299 0.0
C6 C 0.95511 0.06748 0.11094 0.0
C7 C 0.0437 0.9437 0.11047 0.0
C8 C 0.07657 0.08264 0.06394 0.0
C9 C 0.92165 0.9301 0.06364 0.0
O10 O 0.96896 0.9363 0.06517 0.0
O11 O 0.90982 0.96011 0.07239 0.0
O12 O 0.06397 0.94585 0.0933 0.0
O13 O 0.01714 0.9673 0.11306 0.0
O14 O 0.96338 0.04294 0.42806 0.0
Cd15 Cd 0.0248 0.05367 0.40918 0.0
Cd16 Cd 0.97016 0.95422 0.40965 0.0
O17 O 0.90846 0.96238 0.42142 0.0
O18 O 0.05724 0.1251 0.40021 0.0
O19 O 0.01352 0.05956 0.38025 0.0
C20 C 0.0382 0.10798 0.38292 0.0
C21 C 0.95697 0.89876 0.38388 0.0
C22 C 0.91759 1.003 0.42992 0.0
C23 C 0.07725 1.00577 0.43035 0.0
O24 O 0.03129 0.96594 0.42882 0.0
O25 O 0.08666 0.04582 0.42129 0.0
O26 O 0.93849 0.88244 0.40129 0.0
O27 O 0.98088 0.947 0.38081 0.0
O28 O 0.92016 0.96588 0.73048 0.0
Cd29 Cd 0.96959 0.95174 0.74816 0.0
Cd30 Cd 0.02657 0.05259 0.75017 0.0
O31 O 0.96002 0.04795 0.73596 0.0
O32 O 0.92424 0.88038 0.75697 0.0
O33 O 0.95663 0.9456 0.77739 0.0
C34 C 0.92743 0.89734 0.7746 0.0
C35 C 0.06579 0.10663 0.77701 0.0
C36 C 0.92234 0.00812 0.72801 0.0
C37 C 0.07736 0.99978 0.72909 0.0
O38 O 0.07969 0.04145 0.73321 0.0
O39 O 0.03749 0.95813 0.73482 0.0
O40 O 0.06965 0.12388 0.75941 0.0
O41 O 0.03782 0.05823 0.77957 0.0
C42 C 0.97129 0.34063 0.27748 0.0
C43 C 0.01232 0.35584 0.29173 0.0
C44 C 0.96702 0.37668 0.26606 0.0
C45 C 0.00454 0.42851 0.26834 0.0
C46 C 0.04893 0.40777 0.29429 0.0
C47 C 0.04498 0.44366 0.28275 0.0
C48 C 0.00186 0.46763 0.25623 0.0
C49 C 0.02671 0.36521 0.21543 0.0
C50 C 0.9845 0.34038 0.20168 0.0
C51 C 0.03221 0.40671 0.22611 0.0
C52 C 0.99497 0.42362 0.22357 0.0
C53 C 0.94862 0.35879 0.19866 0.0
C54 C 0.95389 0.39998 0.20946 0.0
C55 C 0.99822 0.46581 0.23543 0.0
C56 C 0.05439 0.67912 0.21663 0.0
C57 C 0.01861 0.67158 0.20107 0.0
C58 C 0.04878 0.63815 0.22767 0.0
C59 C 0.00704 0.58875 0.2235 0.0
C60 C 0.97732 0.62198 0.19672 0.0
C61 C 0.97187 0.58091 0.20775 0.0
C62 C 0.00101 0.54536 0.23531 0.0
C63 C 0.95483 0.6345 0.27507 0.0
C64 C 0.98879 0.65647 0.29145 0.0
C65 C 0.95913 0.5988 0.26352 0.0
C66 C 0.998 0.5848 0.26793 0.0
C67 C 0.02743 0.64213 0.29592 0.0
C68 C 0.03178 0.60648 0.28433 0.0
C69 C 0.00167 0.54579 0.2561 0.0
H70 H 0.94195 0.30093 0.27542 0.0
H71 H 0.93439 0.36406 0.25547 0.0
H72 H 0.08117 0.42065 0.30506 0.0
H73 H 0.07413 0.4834 0.2849 0.0
H74 H 0.05505 0.35212 0.2182 0.0
H75 H 0.06521 0.4252 0.23653 0.0
H76 H 0.9165 0.34155 0.18785 0.0
H77 H 0.9252 0.41286 0.20701 0.0
H78 H 0.08646 0.71681 0.22041 0.0
H79 H 0.07725 0.64509 0.23946 0.0
H80 H 0.94965 0.61485 0.18463 0.0
H81 H 0.93979 0.54309 0.20412 0.0
H82 H 0.92391 0.64388 0.27146 0.0
H83 H 0.93131 0.58144 0.25135 0.0
H84 H 0.05451 0.65863 0.30834 0.0
H85 H 0.06179 0.59604 0.28811 0.0
N86 N 0.00315 0.50745 0.26572 0.0
N87 N 0.99819 0.50492 0.22577 0.0
C88 C 0.67359 0.03972 0.54381 0.0
C89 C 0.65602 0.99869 0.5307 0.0
C90 C 0.63736 0.04217 0.55697 0.0
C91 C 0.58293 1.00364 0.55728 0.0
C92 C 0.60178 0.95949 0.53152 0.0
C93 C 0.56556 0.9622 0.54455 0.0
C94 C 0.54258 0.00861 0.56917 0.0
C95 C 0.6441 0.98632 0.61487 0.0
C96 C 0.67163 0.0273 0.62792 0.0
C97 C 0.60558 0.98487 0.60177 0.0
C98 C 0.5938 0.02433 0.60144 0.0
C99 C 0.66053 0.0673 0.62719 0.0
C100 C 0.62164 0.06555 0.61421 0.0
C101 C 0.54877 0.02045 0.5894 0.0
C102 C 0.33037 0.97538 0.61474 0.0
C103 C 0.34419 0.01472 0.62832 0.0
C104 C 0.36881 0.97765 0.60142 0.0
C105 C 0.42174 0.01916 0.60157 0.0
C106 C 0.39681 0.05674 0.62812 0.0
C107 C 0.4354 0.05866 0.615 0.0
C108 C 0.46438 0.01902 0.58935 0.0
C109 C 0.35844 0.04045 0.54563 0.0
C110 C 0.34014 0.00707 0.52956 0.0
C111 C 0.39595 0.04036 0.55887 0.0
C112 C 0.41459 1.00581 0.55657 0.0
C113 C 0.35845 0.97243 0.5273 0.0
C114 C 0.39513 0.9717 0.54071 0.0
C115 C 0.45892 0.00866 0.56894 0.0
H116 H 0.71483 0.07096 0.54339 0.0
H117 H 0.65138 0.07515 0.56631 0.0
H118 H 0.58706 0.9269 0.52192 0.0
H119 H 0.52365 0.93214 0.5445 0.0
H120 H 0.65077 0.95439 0.61526 0.0
H121 H 0.58352 0.95198 0.59243 0.0
H122 H 0.68153 0.09982 0.63676 0.0
H123 H 0.61289 0.09625 0.61427 0.0
H124 H 0.29001 0.94265 0.61457 0.0
H125 H 0.3577 0.94624 0.59146 0.0
H126 H 0.40864 0.08732 0.63857 0.0
H127 H 0.47621 0.0907 0.61551 0.0
H128 H 0.34533 0.06794 0.54751 0.0
H129 H 0.41181 0.06866 0.57038 0.0
H130 H 0.3446 0.94609 0.51508 0.0
H131 H 0.40912 0.94498 0.53844 0.0
N132 N 0.49812 1.00347 0.55976 0.0
N133 N 0.50935 0.02504 0.5987 0.0
C134 C 0.35063 0.34059 0.89027 0.0
C135 C 0.32688 0.35595 0.87569 0.0
C136 C 0.39198 0.37644 0.90224 0.0
C137 C 0.40946 0.42825 0.90017 0.0
C138 C 0.34467 0.40776 0.87356 0.0
C139 C 0.38554 0.44349 0.88565 0.0
C140 C 0.45459 0.46728 0.91212 0.0
C141 C 0.32684 0.37082 0.95716 0.0
C142 C 0.34394 0.34606 0.97039 0.0
C143 C 0.36385 0.40832 0.94451 0.0
C144 C 0.41853 0.42155 0.94481 0.0
C145 C 0.39871 0.3592 0.97044 0.0
C146 C 0.43565 0.39684 0.9579 0.0
C147 C 0.45908 0.46359 0.93269 0.0
C148 C 0.63621 0.67221 0.95482 0.0
C149 C 0.65738 0.65922 0.97109 0.0
C150 C 0.59925 0.63484 0.94212 0.0
C151 C 0.58365 0.58375 0.94511 0.0
C152 C 0.64121 0.60796 0.97413 0.0
C153 C 0.60485 0.57076 0.96129 0.0
C154 C 0.54145 0.54306 0.93277 0.0
C155 C 0.67561 0.63662 0.89017 0.0
C156 C 0.6615 0.65884 0.87484 0.0
C157 C 0.63579 0.60054 0.90252 0.0
C158 C 0.58115 0.58645 0.89995 0.0
C159 C 0.6068 0.64485 0.8724 0.0
C160 C 0.56707 0.60885 0.88475 0.0
C161 C 0.53811 0.54601 0.91209 0.0
H162 H 0.33839 0.30099 0.89199 0.0
H163 H 0.41101 0.36366 0.9128 0.0
H164 H 0.32689 0.4207 0.86253 0.0
H165 H 0.39853 0.48319 0.88364 0.0
H166 H 0.28517 0.36226 0.95695 0.0
H167 H 0.35002 0.42781 0.93485 0.0
H168 H 0.41315 0.3404 0.98019 0.0
H169 H 0.47776 0.40672 0.95842 0.0
H170 H 0.64799 0.71128 0.9519 0.0
H171 H 0.58207 0.64593 0.93023 0.0
H172 H 0.65564 0.59628 0.98671 0.0
H173 H 0.59277 0.53156 0.96415 0.0
H174 H 0.7172 0.64588 0.89224 0.0
H175 H 0.64761 0.58276 0.91376 0.0
H176 H 0.59463 0.66163 0.86087 0.0
H177 H 0.52519 0.5984 0.8824 0.0
N178 N 0.49443 0.50834 0.90265 0.0
N179 N 0.50215 0.50162 0.94214 0.0
H180 H 0.01449 0.09758 0.14497 0.0
H181 H 0.89137 0.11048 0.11272 0.0
H182 H 0.01934 0.1597 0.16884 0.0
H183 H 0.89632 0.17241 0.1365 0.0
H184 H 0.89014 0.25459 0.1915 0.0
H185 H 0.87922 0.18354 0.17164 0.0
H186 H 0.05278 0.25301 0.16688 0.0
H187 H 0.06392 0.32468 0.18635 0.0
C188 C 0.98782 0.11298 0.14316 0.0
C189 C 0.95269 0.09926 0.12691 0.0
C190 C 0.99093 0.14884 0.15673 0.0
C191 C 0.95849 0.17119 0.15447 0.0
C192 C 0.92157 0.15563 0.13874 0.0
C193 C 0.91888 0.12025 0.12507 0.0
C194 C 0.92604 0.25498 0.18613 0.0
C195 C 0.97794 0.29573 0.19042 0.0
C196 C 0.91972 0.21409 0.17483 0.0
C197 C 0.96511 0.21267 0.1677 0.0
C198 C 0.01701 0.25266 0.1724 0.0
C199 C 0.02336 0.29377 0.18358 0.0
H200 H 0.92957 0.07933 0.45409 0.0
H201 H 0.81342 0.92669 0.43626 0.0
H202 H 0.86544 0.07739 0.47815 0.0
H203 H 0.74925 0.92495 0.46047 0.0
H204 H 0.63313 0.96701 0.49238 0.0
H205 H 0.6947 0.96749 0.46745 0.0
H206 H 0.82535 0.03043 0.50968 0.0
H207 H 0.76363 0.0289 0.53482 0.0
C208 C 0.89022 0.04548 0.45517 0.0
C209 C 0.87669 1.00308 0.44327 0.0
C210 C 0.85367 0.04429 0.46908 0.0
C211 C 0.80261 1.00087 0.4713 0.0
C212 C 0.78832 0.95899 0.45902 0.0
C213 C 0.8251 0.95999 0.44519 0.0
C214 C 0.67476 0.98019 0.49649 0.0
C215 C 0.69337 0.99785 0.51566 0.0
C216 C 0.71003 0.98063 0.48215 0.0
C217 C 0.7648 0.9992 0.48661 0.0
C218 C 0.78345 0.01661 0.50576 0.0
C219 C 0.7481 0.01579 0.52015 0.0
H220 H 0.86772 0.79443 0.77322 0.0
H221 H 0.91384 0.92127 0.81229 0.0
H222 H 0.80691 0.73725 0.79821 0.0
H223 H 0.85192 0.86383 0.83728 0.0
H224 H 0.7642 0.73607 0.88314 0.0
H225 H 0.83302 0.79339 0.85985 0.0
H226 H 0.72101 0.7206 0.81185 0.0
H227 H 0.65328 0.66254 0.83492 0.0
C228 C 0.86518 0.81012 0.78721 0.0
C229 C 0.89534 0.86249 0.7907 0.0
C230 C 0.82999 0.77732 0.80149 0.0
C231 C 0.82393 0.79604 0.81963 0.0
C232 C 0.85581 0.84818 0.82349 0.0
C233 C 0.89118 0.8811 0.80915 0.0
C234 C 0.75452 0.73215 0.86759 0.0
C235 C 0.70322 0.69476 0.86089 0.0
C236 C 0.79376 0.76524 0.85428 0.0
C237 C 0.78263 0.7614 0.83398 0.0
C238 C 0.73124 0.72414 0.82735 0.0
C239 C 0.6921 0.69126 0.84062 0.0
H240 H 0.98963 0.91598 0.14564 0.0
H241 H 0.1039 0.897 0.11026 0.0
H242 H 0.98615 0.85362 0.1691 0.0
H243 H 0.10001 0.83457 0.13353 0.0
H244 H 0.1122 0.75169 0.18708 0.0
H245 H 0.12244 0.82283 0.16735 0.0
H246 H 0.94928 0.76079 0.16829 0.0
H247 H 0.93916 0.69028 0.18845 0.0
C248 C 0.01459 0.89909 0.14301 0.0
C249 C 0.04689 0.91131 0.12605 0.0
C250 C 0.01224 0.86307 0.15636 0.0
C251 C 0.04249 0.83887 0.1531 0.0
C252 C 0.07654 0.85277 0.13657 0.0
C253 C 0.0786 0.88846 0.12318 0.0
C254 C 0.07638 0.75356 0.18328 0.0
C255 C 0.02484 0.71526 0.18929 0.0
C256 C 0.08222 0.79411 0.17185 0.0
C257 C 0.03669 0.79747 0.16625 0.0
C258 C 0.98522 0.75961 0.17254 0.0
C259 C 0.97935 0.71889 0.18387 0.0
H260 H 0.06028 0.93804 0.45942 0.0
H261 H 0.18596 0.07462 0.43225 0.0
H262 H 0.12538 0.94075 0.48333 0.0
H263 H 0.25145 0.07661 0.45617 0.0
H264 H 0.35315 0.01508 0.48979 0.0
H265 H 0.2911 0.01655 0.46516 0.0
H266 H 0.18204 1.0049 0.51148 0.0
H267 H 0.24444 1.0041 0.53612 0.0
C268 C 0.10191 0.96839 0.45842 0.0
C269 C 0.118 1.00615 0.44393 0.0
C270 C 0.139 0.97007 0.47221 0.0
C271 C 0.19317 0.00903 0.47162 0.0
C272 C 0.20981 0.04616 0.45687 0.0
C273 C 0.17239 0.04502 0.44324 0.0
C274 C 0.31593 0.01293 0.49465 0.0
C275 C 0.30326 0.00923 0.51479 0.0
C276 C 0.28075 0.01412 0.48062 0.0
C277 C 0.23191 0.01069 0.48648 0.0
C278 C 0.2194 0.0073 0.50662 0.0
C279 C 0.25505 0.00706 0.52068 0.0
H280 H 0.10655 0.20842 0.77812 0.0
H281 H 0.09366 0.08395 0.81261 0.0
H282 H 0.16497 0.2678 0.80306 0.0
H283 H 0.15422 0.14362 0.83731 0.0
H284 H 0.23777 0.26487 0.88497 0.0
H285 H 0.16911 0.20394 0.86246 0.0
H286 H 0.25531 0.30126 0.81336 0.0
H287 H 0.3225 0.36223 0.83585 0.0
C288 C 0.11609 0.19374 0.7911 0.0
C289 C 0.09584 0.14157 0.79334 0.0
C290 C 0.15001 0.22783 0.80535 0.0
C291 C 0.16529 0.21072 0.82207 0.0
C292 C 0.14313 0.15823 0.82471 0.0
C293 C 0.1085 0.12398 0.81052 0.0
C294 C 0.24183 0.27303 0.86934 0.0
C295 C 0.28523 0.31845 0.86217 0.0
C296 C 0.2026 0.23812 0.85644 0.0
C297 C 0.20625 0.24775 0.83606 0.0
C298 C 0.2502 0.29303 0.82897 0.0
C299 C 0.28896 0.328 0.84185 0.0
H300 H 0.9078 0.0893 0.72147 0.0
H301 H 0.84846 0.93402 0.70403 0.0
H302 H 0.84756 0.09552 0.69739 0.0
H303 H 0.78873 0.9405 0.68007 0.0
H304 H 0.74398 0.99371 0.62343 0.0
H305 H 0.80303 0.9893 0.64836 0.0
H306 H 0.74639 0.05724 0.69086 0.0
H307 H 0.686 0.06035 0.66619 0.0
C308 C 0.8817 0.05644 0.71264 0.0
C309 C 0.88307 0.01122 0.71465 0.0
C310 C 0.84719 0.06 0.69889 0.0
C311 C 0.81391 0.01862 0.68676 0.0
C312 C 0.81453 0.9732 0.68904 0.0
C313 C 0.8485 0.96944 0.70289 0.0
C314 C 0.74368 0.00733 0.63812 0.0
C315 C 0.70999 0.02721 0.64277 0.0
C316 C 0.77762 1.00491 0.65237 0.0
C317 C 0.77907 0.02274 0.67155 0.0
C318 C 0.74641 0.04365 0.67614 0.0
C319 C 0.71201 0.0456 0.66194 0.0
H320 H 0.94066 0.87477 0.03678 0.0
H321 H 0.8122 0.89338 0.06142 0.0
H322 H 0.87663 0.81021 0.01466 0.0
H323 H 0.74718 0.82676 0.03976 0.0
H324 H 0.6564 0.7441 0.98398 0.0
H325 H 0.71957 0.80905 1.00638 0.0
H326 H 0.80509 0.72648 0.01348 0.0
H327 H 0.7446 0.66374 0.98999 0.0
C328 C 0.8985 0.86456 0.03767 0.0
C329 C 0.88152 0.8892 0.05089 0.0
C330 C 0.86161 0.82721 0.02502 0.0
C331 C 0.80653 0.81293 0.02543 0.0
C332 C 0.7894 0.83726 0.03882 0.0
C333 C 0.82656 0.8752 0.05134 0.0
C334 C 0.68921 0.7402 0.99005 0.0
C335 C 0.69544 0.69867 0.98504 0.0
C336 C 0.72496 0.77709 1.00319 0.0
C337 C 0.76755 0.77315 0.01179 0.0
C338 C 0.77334 0.7313 1.00694 0.0
C339 C 0.73805 0.69479 0.99365 0.0
H340 H 0.00438 0.92122 0.34738 0.0
H341 H 0.90503 0.79583 0.38587 0.0
H342 H 0.01023 0.86281 0.32425 0.0
H343 H 0.9101 0.73765 0.36269 0.0
H344 H 0.99146 0.66124 0.33163 0.0
H345 H 0.98072 0.72008 0.35267 0.0
H346 H 0.95927 0.79192 0.30135 0.0
H347 H 0.97193 0.73391 0.28018 0.0
C348 C 0.98302 0.88115 0.35074 0.0
C349 C 0.95462 0.86324 0.36854 0.0
C350 C 0.9863 0.84767 0.33747 0.0
C351 C 0.96126 0.79565 0.34176 0.0
C352 C 0.93085 0.77762 0.35915 0.0
C353 C 0.92761 0.81098 0.37237 0.0
C354 C 0.98506 0.68991 0.3248 0.0
C355 C 0.98268 0.6929 0.30421 0.0
C356 C 0.97816 0.72324 0.33688 0.0
C357 C 0.96866 0.76046 0.3287 0.0
C358 C 0.96673 0.76382 0.30811 0.0
C359 C 0.97351 0.73031 0.29599 0.0
H360 H 0.17785 0.0791 0.72097 0.0
H361 H 0.07091 0.92098 0.70782 0.0
H362 H 0.24332 0.08157 0.69743 0.0
H363 H 0.13518 0.92386 0.68362 0.0
H364 H 0.28176 0.935 0.65238 0.0
H365 H 0.2199 0.93043 0.67809 0.0
H366 H 0.25494 0.0817 0.66316 0.0
H367 H 0.31823 0.08662 0.63802 0.0
C368 C 0.16838 0.04482 0.71306 0.0
C369 C 0.11916 0.99989 0.71622 0.0
C370 C 0.2057 0.04632 0.69941 0.0
C371 C 0.19437 1.00311 0.68837 0.0
C372 C 0.14568 0.95777 0.69197 0.0
C373 C 0.10868 0.95611 0.70583 0.0
C374 C 0.27586 0.96707 0.65457 0.0
C375 C 0.30467 0.01116 0.64324 0.0
C376 C 0.24037 0.9645 0.66928 0.0
C377 C 0.23245 1.00577 0.67282 0.0
C378 C 0.26086 0.04959 0.66121 0.0
C379 C 0.29685 0.05237 0.64669 0.0
H380 H 0.1834 0.1109 0.05913 0.0
H381 H 0.06166 0.14632 0.03988 0.0
H382 H 0.24854 0.17491 0.03667 0.0
H383 H 0.1268 0.21022 0.01759 0.0
H384 H 0.23859 0.27294 0.96362 0.0
H385 H 0.17488 0.21066 0.98683 0.0
H386 H 0.29799 0.26908 0.03197 0.0
H387 H 0.36148 0.33206 0.00896 0.0
C388 C 0.17062 0.13251 0.05023 0.0
C389 C 0.11728 0.12339 0.05127 0.0
C390 C 0.20797 0.16925 0.03742 0.0
C391 C 0.1926 0.19729 0.0253 0.0
C392 C 0.13956 0.18868 0.02656 0.0
C393 C 0.10238 0.15229 0.03944 0.0
C394 C 0.25196 0.27289 0.97855 0.0
C395 C 0.30519 0.30754 0.9844 0.0
C396 C 0.21548 0.23715 0.99182 0.0
C397 C 0.2315 0.23507 0.01121 0.0
C398 C 0.28474 0.2694 0.01705 0.0
C399 C 0.32111 0.30538 1.00383 0.0
H400 H 0.10247 0.21046 0.38194 0.0
H401 H 0.97911 0.08476 0.34882 0.0
H402 H 0.09882 0.26939 0.35874 0.0
H403 H 0.97392 0.14388 0.32589 0.0
H404 H 0.00639 0.26715 0.28015 0.0
H405 H 0.01704 0.20672 0.30063 0.0
H406 H 0.0376 0.2986 0.35187 0.0
H407 H 0.02816 0.35908 0.33138 0.0
C408 C 0.07477 0.19539 0.36961 0.0
C409 C 0.04082 0.14296 0.36729 0.0
C410 C 0.07229 0.22922 0.35638 0.0
C411 C 0.03531 0.21153 0.34062 0.0
C412 C 0.00307 0.15892 0.33779 0.0
C413 C 0.00596 0.12498 0.35095 0.0
C414 C 0.01296 0.27416 0.29581 0.0
C415 C 0.01681 0.31801 0.30414 0.0
C416 C 0.01905 0.23956 0.30756 0.0
C417 C 0.02878 0.24796 0.3279 0.0
C418 C 0.03163 0.29147 0.3362 0.0
C419 C 0.02596 0.32611 0.32447 0.0
loop_
_geom_bond_atom_site_label_1
_geom_bond_atom_site_label_2
_geom_bond_distance
_geom_bond_site_symmetry_2
_ccdc_geom_bond_type
O0 Cd1 2.223 1_455 S
O0 C8 1.315 . S
Cd1 O0 2.223 1_655 S
Cd1 O4 2.297 . S
Cd1 O5 2.439 . S
Cd1 O11 2.240 1_545 S
Cd2 O3 2.240 1_565 S
Cd2 O10 2.223 1_455 S
Cd2 O12 2.297 . S
Cd2 O13 2.439 . S
O3 Cd2 2.240 1_545 S
O3 C8 1.279 . S
O4 Cd1 2.297 . S
O4 C6 1.247 . S
O5 Cd1 2.439 . S
O5 C6 1.208 . S
C6 O4 1.247 . S
C6 O5 1.208 . S
C7 O12 1.247 . S
C7 O13 1.208 . S
C8 O0 1.315 . S
C8 O3 1.279 . S
C9 O10 1.315 . S
C9 O11 1.279 . S
O10 Cd2 2.223 1_655 S
O10 C9 1.315 . S
O11 Cd1 2.240 1_565 S
O11 C9 1.279 . S
O12 Cd2 2.297 . S
O12 C7 1.247 . S
O13 Cd2 2.439 . S
O13 C7 1.208 . S
O14 Cd15 2.223 1_655 S
O14 C22 1.315 . S
Cd15 O14 2.223 1_455 S
Cd15 O18 2.297 . S
Cd15 O19 2.439 . S
Cd15 O25 2.240 . S
Cd16 O17 2.240 . S
Cd16 O24 2.223 1_655 S
Cd16 O26 2.297 . S
Cd16 O27 2.439 . S
O17 Cd16 2.240 . S
O17 C22 1.279 1_565 S
O18 Cd15 2.297 . S
O18 C20 1.247 . S
O19 Cd15 2.439 . S
O19 C20 1.208 . S
C20 O18 1.247 . S
C20 O19 1.208 . S
C21 O26 1.247 . S
C21 O27 1.208 . S
C22 O14 1.315 . S
C22 O17 1.279 1_545 S
C23 O24 1.315 . S
C23 O25 1.279 1_565 S
O24 Cd16 2.223 1_455 S
O24 C23 1.315 . S
O25 Cd15 2.240 . S
O25 C23 1.279 1_545 S
O26 Cd16 2.297 . S
O26 C21 1.247 . S
O27 Cd16 2.439 . S
O27 C21 1.208 . S
O28 Cd29 2.223 . S
O28 C36 1.315 . S
Cd29 O28 2.223 . S
Cd29 O32 2.297 . S
Cd29 O33 2.439 . S
Cd29 O39 2.240 1_655 S
Cd30 O31 2.240 1_455 S
Cd30 O38 2.223 . S
Cd30 O40 2.297 . S
Cd30 O41 2.439 . S
O31 Cd30 2.240 1_655 S
O31 C36 1.279 1_545 S
O32 Cd29 2.297 . S
O32 C34 1.247 . S
O33 Cd29 2.439 . S
O33 C34 1.208 . S
C34 O32 1.247 . S
C34 O33 1.208 . S
C35 O40 1.247 . S
C35 O41 1.208 . S
C36 O28 1.315 . S
C36 O31 1.279 1_565 S
C37 O38 1.315 . S
C37 O39 1.279 1_545 S
O38 Cd30 2.223 . S
O38 C37 1.315 . S
O39 Cd29 2.240 1_455 S
O39 C37 1.279 1_565 S
O40 Cd30 2.297 . S
O40 C35 1.247 . S
O41 Cd30 2.439 . S
O41 C35 1.208 . S
C42 C43 1.384 1_655 S
C42 C44 1.384 . S
C42 H70 0.931 . S
C43 C42 1.384 1_455 S
C43 C46 1.382 . S
C44 C42 1.384 . S
C44 C45 1.381 1_655 S
C44 H71 0.930 . S
C45 C44 1.381 1_455 S
C45 C47 1.381 . S
C45 C48 1.487 . S
C46 C43 1.382 . S
C46 C47 1.387 . S
C46 H72 0.930 . S
C47 C45 1.381 . S
C47 C46 1.387 . S
C47 H73 0.931 . S
C48 C45 1.487 . S
C48 C55 1.399 1_455 S
C48 N86 1.343 . S
C49 C50 1.384 1_455 S
C49 C51 1.384 . S
C49 H74 0.931 . S
C50 C49 1.384 1_655 S
C50 C53 1.382 . S
C51 C49 1.384 . S
C51 C52 1.381 1_455 S
C51 H75 0.930 . S
C52 C51 1.381 1_655 S
C52 C54 1.381 . S
C52 C55 1.487 . S
C53 C50 1.382 . S
C53 C54 1.387 . S
C53 H76 0.930 . S
C54 C52 1.381 . S
C54 C53 1.387 . S
C54 H77 0.931 . S
C55 C48 1.399 1_655 S
C55 C52 1.487 . S
C55 N87 1.343 . S
C56 C57 1.384 1_455 S
C56 C58 1.384 . S
C56 H78 0.931 . S
C57 C56 1.384 1_655 S
C57 C60 1.382 . S
C58 C56 1.384 . S
C58 C59 1.381 1_455 S
C58 H79 0.930 . S
C59 C58 1.381 1_655 S
C59 C61 1.381 . S
C59 C62 1.487 . S
C60 C57 1.382 . S
C60 C61 1.387 . S
C60 H80 0.930 . S
C61 C59 1.381 . S
C61 C60 1.387 . S
C61 H81 0.931 . S
C62 C59 1.487 . S
C62 C69 1.399 1_655 S
C62 N87 1.343 . S
C63 C64 1.384 1_655 S
C63 C65 1.384 . S
C63 H82 0.931 . S
C64 C63 1.384 1_455 S
C64 C67 1.382 . S
C65 C63 1.384 . S
C65 C66 1.381 1_655 S
C65 H83 0.930 . S
C66 C65 1.381 1_455 S
C66 C68 1.381 . S
C66 C69 1.487 . S
C67 C64 1.382 . S
C67 C68 1.387 . S
C67 H84 0.930 . S
C68 C66 1.381 . S
C68 C67 1.387 . S
C68 H85 0.931 . S
C69 C62 1.399 1_455 S
C69 C66 1.487 . S
C69 N86 1.343 . S
H70 C42 0.931 . S
H71 C44 0.930 . S
H72 C46 0.930 . S
H73 C47 0.931 . S
H74 C49 0.931 . S
H75 C51 0.930 . S
H76 C53 0.930 . S
H77 C54 0.931 . S
H78 C56 0.931 . S
H79 C58 0.930 . S
H80 C60 0.930 . S
H81 C61 0.931 . S
H82 C63 0.931 . S
H83 C65 0.930 . S
H84 C67 0.930 . S
H85 C68 0.931 . S
N86 C48 1.343 . S
N86 C69 1.343 . S
N87 C55 1.343 . S
N87 C62 1.343 . S
C88 C89 1.384 1_545 S
C88 C90 1.384 . S
C88 H116 0.931 . S
C89 C88 1.384 1_565 S
C89 C92 1.382 . S
C90 C88 1.384 . S
C90 C91 1.381 1_545 S
C90 H117 0.930 . S
C91 C90 1.381 1_565 S
C91 C93 1.381 . S
C91 C94 1.487 . S
C92 C89 1.382 . S
C92 C93 1.387 . S
C92 H118 0.930 . S
C93 C91 1.381 . S
C93 C92 1.387 . S
C93 H119 0.931 . S
C94 C91 1.487 . S
C94 C101 1.399 1_565 S
C94 N132 1.343 . S
C95 C96 1.384 1_565 S
C95 C97 1.384 . S
C95 H120 0.931 . S
C96 C95 1.384 1_545 S
C96 C99 1.382 . S
C97 C95 1.384 . S
C97 C98 1.381 1_565 S
C97 H121 0.930 . S
C98 C97 1.381 1_545 S
C98 C100 1.381 . S
C98 C101 1.487 . S
C99 C96 1.382 . S
C99 C100 1.387 . S
C99 H122 0.930 . S
C100 C98 1.381 . S
C100 C99 1.387 . S
C100 H123 0.931 . S
C101 C94 1.399 1_545 S
C101 C98 1.487 . S
C101 N133 1.343 . S
C102 C103 1.384 1_565 S
C102 C104 1.384 . S
C102 H124 0.931 . S
C103 C102 1.384 1_545 S
C103 C106 1.382 . S
C104 C102 1.384 . S
C104 C105 1.381 1_565 S
C104 H125 0.930 . S
C105 C104 1.381 1_545 S
C105 C107 1.381 . S
C105 C108 1.487 . S
C106 C103 1.382 . S
C106 C107 1.387 . S
C106 H126 0.930 . S
C107 C105 1.381 . S
C107 C106 1.387 . S
C107 H127 0.931 . S
C108 C105 1.487 . S
C108 C115 1.399 1_545 S
C108 N133 1.343 . S
C109 C110 1.384 1_545 S
C109 C111 1.384 . S
C109 H128 0.931 . S
C110 C109 1.384 1_565 S
C110 C113 1.382 . S
C111 C109 1.384 . S
C111 C112 1.381 1_545 S
C111 H129 0.930 . S
C112 C111 1.381 1_565 S
C112 C114 1.381 . S
C112 C115 1.487 . S
C113 C110 1.382 . S
C113 C114 1.387 . S
C113 H130 0.930 . S
C114 C112 1.381 . S
C114 C113 1.387 . S
C114 H131 0.931 . S
C115 C108 1.399 1_565 S
C115 C112 1.487 . S
C115 N132 1.343 . S
H116 C88 0.931 . S
H117 C90 0.930 . S
H118 C92 0.930 . S
H119 C93 0.931 . S
H120 C95 0.931 . S
H121 C97 0.930 . S
H122 C99 0.930 . S
H123 C100 0.931 . S
H124 C102 0.931 . S
H125 C104 0.930 . S
H126 C106 0.930 . S
H127 C107 0.931 . S
H128 C109 0.931 . S
H129 C111 0.930 . S
H130 C113 0.930 . S
H131 C114 0.931 . S
N132 C94 1.343 . S
N132 C115 1.343 . S
N133 C101 1.343 . S
N133 C108 1.343 . S
C134 C135 1.384 . S
C134 C136 1.384 . S
C134 H162 0.931 . S
C135 C134 1.384 . S
C135 C138 1.382 . S
C136 C134 1.384 . S
C136 C137 1.381 . S
C136 H163 0.930 . S
C137 C136 1.381 . S
C137 C139 1.381 . S
C137 C140 1.487 . S
C138 C135 1.382 . S
C138 C139 1.387 . S
C138 H164 0.930 . S
C139 C137 1.381 . S
C139 C138 1.387 . S
C139 H165 0.931 . S
C140 C137 1.487 . S
C140 C147 1.399 . S
C140 N178 1.343 . S
C141 C142 1.384 . S
C141 C143 1.384 . S
C141 H166 0.931 . S
C142 C141 1.384 . S
C142 C145 1.382 . S
C143 C141 1.384 . S
C143 C144 1.381 . S
C143 H167 0.930 . S
C144 C143 1.381 . S
C144 C146 1.381 . S
C144 C147 1.487 . S
C145 C142 1.382 . S
C145 C146 1.387 . S
C145 H168 0.930 . S
C146 C144 1.381 . S
C146 C145 1.387 . S
C146 H169 0.931 . S
C147 C140 1.399 . S
C147 C144 1.487 . S
C147 N179 1.343 . S
C148 C149 1.384 . S
C148 C150 1.384 . S
C148 H170 0.931 . S
C149 C148 1.384 . S
C149 C152 1.382 . S
C150 C148 1.384 . S
C150 C151 1.381 . S
C150 H171 0.930 . S
C151 C150 1.381 . S
C151 C153 1.381 . S
C151 C154 1.487 . S
C152 C149 1.382 . S
C152 C153 1.387 . S
C152 H172 0.930 . S
C153 C151 1.381 . S
C153 C152 1.387 . S
C153 H173 0.931 . S
C154 C151 1.487 . S
C154 C161 1.399 . S
C154 N179 1.343 . S
C155 C156 1.384 . S
C155 C157 1.384 . S
C155 H174 0.931 . S
C156 C155 1.384 . S
C156 C159 1.382 . S
C157 C155 1.384 . S
C157 C158 1.381 . S
C157 H175 0.930 . S
C158 C157 1.381 . S
C158 C160 1.381 . S
C158 C161 1.487 . S
C159 C156 1.382 . S
C159 C160 1.387 . S
C159 H176 0.930 . S
C160 C158 1.381 . S
C160 C159 1.387 . S
C160 H177 0.931 . S
C161 C154 1.399 . S
C161 C158 1.487 . S
C161 N178 1.343 . S
H162 C134 0.931 . S
H163 C136 0.930 . S
H164 C138 0.930 . S
H165 C139 0.931 . S
H166 C141 0.931 . S
H167 C143 0.930 . S
H168 C145 0.930 . S
H169 C146 0.931 . S
H170 C148 0.931 . S
H171 C150 0.930 . S
H172 C152 0.930 . S
H173 C153 0.931 . S
H174 C155 0.931 . S
H175 C157 0.930 . S
H176 C159 0.930 . S
H177 C160 0.931 . S
N178 C140 1.343 . S
N178 C161 1.343 . S
N179 C147 1.343 . S
N179 C154 1.343 . S
H180 C188 0.950 . S
H181 C193 0.950 . S
H182 C190 0.950 . S
H183 C192 0.950 . S
H184 C194 0.950 . S
H185 C196 0.950 . S
H186 C198 0.950 . S
H187 C199 0.950 . S
C188 H180 0.950 . S
C188 C189 1.386 . S
C188 C190 1.391 . S
C189 C188 1.386 . S
C189 C193 1.393 1_455 S
C190 H182 0.950 . S
C190 C188 1.391 . S
C190 C191 1.403 . S
C191 C190 1.403 . S
C191 C192 1.397 1_455 S
C191 C197 1.496 . S
C192 H183 0.950 . S
C192 C191 1.397 1_655 S
C192 C193 1.391 . S
C193 H181 0.950 . S
C193 C189 1.393 1_655 S
C193 C192 1.391 . S
C194 H184 0.950 . S
C194 C195 1.376 1_655 S
C194 C196 1.391 . S
C195 C194 1.376 1_455 S
C195 C199 1.410 . S
C196 H185 0.950 . S
C196 C194 1.391 . S
C196 C197 1.386 1_655 S
C197 C191 1.496 . S
C197 C196 1.386 1_455 S
C197 C198 1.406 . S
C198 H186 0.950 . S
C198 C197 1.406 . S
C198 C199 1.391 . S
C199 H187 0.950 . S
C199 C195 1.410 . S
C199 C198 1.391 . S
H200 C208 0.950 . S
H201 C213 0.950 . S
H202 C210 0.950 . S
H203 C212 0.950 . S
H204 C214 0.950 . S
H205 C216 0.950 . S
H206 C218 0.950 . S
H207 C219 0.950 . S
C208 H200 0.950 . S
C208 C209 1.386 . S
C208 C210 1.391 . S
C209 C208 1.386 . S
C209 C213 1.393 1_545 S
C210 H202 0.950 . S
C210 C208 1.391 . S
C210 C211 1.400 . S
C211 C210 1.400 . S
C211 C212 1.398 1_545 S
C211 C217 1.483 . S
C212 H203 0.950 . S
C212 C211 1.398 1_565 S
C212 C213 1.391 . S
C213 H201 0.950 . S
C213 C209 1.393 1_565 S
C213 C212 1.391 . S
C214 H204 0.950 . S
C214 C215 1.386 . S
C214 C216 1.391 . S
C215 C214 1.386 . S
C215 C219 1.393 1_565 S
C216 H205 0.950 . S
C216 C214 1.391 . S
C216 C217 1.404 1_565 S
C217 C211 1.483 . S
C217 C216 1.404 1_545 S
C217 C218 1.403 . S
C218 H206 0.950 . S
C218 C217 1.403 . S
C218 C219 1.391 . S
C219 H207 0.950 . S
C219 C215 1.393 1_545 S
C219 C218 1.391 . S
H220 C228 0.950 . S
H221 C233 0.950 . S
H222 C230 0.950 . S
H223 C232 0.950 . S
H224 C234 0.950 . S
H225 C236 0.950 . S
H226 C238 0.950 . S
H227 C239 0.950 . S
C228 H220 0.950 . S
C228 C229 1.386 . S
C228 C230 1.391 . S
C229 C228 1.386 . S
C229 C233 1.393 . S
C230 H222 0.950 . S
C230 C228 1.391 . S
C230 C231 1.400 . S
C231 C230 1.400 . S
C231 C232 1.398 . S
C231 C237 1.491 . S
C232 H223 0.950 . S
C232 C231 1.398 . S
C232 C233 1.391 . S
C233 H221 0.950 . S
C233 C229 1.393 . S
C233 C232 1.391 . S
C234 H224 0.950 . S
C234 C235 1.386 . S
C234 C236 1.391 . S
C235 C234 1.386 . S
C235 C239 1.393 . S
C236 H225 0.950 . S
C236 C234 1.391 . S
C236 C237 1.400 . S
C237 C231 1.491 . S
C237 C236 1.400 . S
C237 C238 1.398 . S
C238 H226 0.950 . S
C238 C237 1.398 . S
C238 C239 1.391 . S
C239 H227 0.950 . S
C239 C235 1.393 . S
C239 C238 1.391 . S
H240 C248 0.950 . S
H241 C253 0.950 . S
H242 C250 0.950 . S
H243 C252 0.950 . S
H244 C254 0.950 . S
H245 C256 0.950 . S
H246 C258 0.950 . S
H247 C259 0.950 . S
C248 H240 0.950 . S
C248 C249 1.384 1_655 S
C248 C250 1.391 . S
C249 C248 1.384 1_455 S
C249 C253 1.395 . S
C250 H242 0.950 . S
C250 C248 1.391 . S
C250 C251 1.401 1_655 S
C251 C250 1.401 1_455 S
C251 C252 1.398 . S
C251 C257 1.495 1_455 S
C252 H243 0.950 . S
C252 C251 1.398 . S
C252 C253 1.391 . S
C253 H241 0.950 . S
C253 C249 1.395 . S
C253 C252 1.391 . S
C254 H244 0.950 . S
C254 C255 1.378 1_455 S
C254 C256 1.391 . S
C255 C254 1.378 1_655 S
C255 C259 1.407 . S
C256 H245 0.950 . S
C256 C254 1.391 . S
C256 C257 1.390 1_455 S
C257 C251 1.495 1_655 S
C257 C256 1.390 1_655 S
C257 C258 1.404 . S
C258 H246 0.950 . S
C258 C257 1.404 . S
C258 C259 1.391 . S
C259 H247 0.950 . S
C259 C255 1.407 . S
C259 C258 1.391 . S
H260 C268 0.950 . S
H261 C273 0.950 . S
H262 C270 0.950 . S
H263 C272 0.950 . S
H264 C274 0.950 . S
H265 C276 0.950 . S
H266 C278 0.950 . S
H267 C279 0.950 . S
C268 H260 0.950 . S
C268 C269 1.386 . S
C268 C270 1.391 . S
C269 C268 1.386 . S
C269 C273 1.393 1_565 S
C270 H262 0.950 . S
C270 C268 1.391 . S
C270 C271 1.400 . S
C271 C270 1.400 . S
C271 C272 1.398 1_565 S
C271 C277 1.483 . S
C272 H263 0.950 . S
C272 C271 1.398 1_545 S
C272 C273 1.391 . S
C273 H261 0.950 . S
C273 C269 1.393 1_545 S
C273 C272 1.391 . S
C274 H264 0.950 . S
C274 C275 1.386 . S
C274 C276 1.391 . S
C275 C274 1.386 . S
C275 C279 1.393 1_545 S
C276 H265 0.950 . S
C276 C274 1.391 . S
C276 C277 1.399 1_545 S
C277 C271 1.483 . S
C277 C276 1.399 1_565 S
C277 C278 1.407 . S
C278 H266 0.950 . S
C278 C277 1.407 . S
C278 C279 1.391 . S
C279 H267 0.950 . S
C279 C275 1.393 1_565 S
C279 C278 1.391 . S
H280 C288 0.950 . S
H281 C293 0.950 . S
H282 C290 0.950 . S
H283 C292 0.950 . S
H284 C294 0.950 . S
H285 C296 0.950 . S
H286 C298 0.950 . S
H287 C299 0.950 . S
C288 H280 0.950 . S
C288 C289 1.386 . S
C288 C290 1.391 . S
C289 C288 1.386 . S
C289 C293 1.393 . S
C290 H282 0.950 . S
C290 C288 1.391 . S
C290 C291 1.400 . S
C291 C290 1.400 . S
C291 C292 1.398 . S
C291 C297 1.491 . S
C292 H283 0.950 . S
C292 C291 1.398 . S
C292 C293 1.391 . S
C293 H281 0.950 . S
C293 C289 1.393 . S
C293 C292 1.391 . S
C294 H284 0.950 . S
C294 C295 1.386 . S
C294 C296 1.391 . S
C295 C294 1.386 . S
C295 C299 1.393 . S
C296 H285 0.950 . S
C296 C294 1.391 . S
C296 C297 1.400 . S
C297 C291 1.491 . S
C297 C296 1.400 . S
C297 C298 1.398 . S
C298 H286 0.950 . S
C298 C297 1.398 . S
C298 C299 1.391 . S
C299 H287 0.950 . S
C299 C295 1.393 . S
C299 C298 1.391 . S
H300 C308 0.950 . S
H301 C313 0.950 . S
H302 C310 0.950 . S
H303 C312 0.950 . S
H304 C314 0.950 . S
H305 C316 0.950 . S
H306 C318 0.950 . S
H307 C319 0.950 . S
C308 H300 0.950 . S
C308 C309 1.386 1_545 S
C308 C310 1.391 . S
C309 C308 1.386 1_565 S
C309 C313 1.393 . S
C310 H302 0.950 . S
C310 C308 1.391 . S
C310 C311 1.400 1_545 S
C311 C310 1.400 1_565 S
C311 C312 1.398 . S
C311 C317 1.491 . S
C312 H303 0.950 . S
C312 C311 1.398 . S
C312 C313 1.391 . S
C313 H301 0.950 . S
C313 C309 1.393 . S
C313 C312 1.391 . S
C314 H304 0.950 . S
C314 C315 1.386 . S
C314 C316 1.391 . S
C315 C314 1.386 . S
C315 C319 1.393 1_565 S
C316 H305 0.950 . S
C316 C314 1.391 . S
C316 C317 1.400 . S
C317 C311 1.491 . S
C317 C316 1.400 . S
C317 C318 1.398 1_565 S
C318 H306 0.950 . S
C318 C317 1.398 1_545 S
C318 C319 1.391 . S
C319 H307 0.950 . S
C319 C315 1.393 1_545 S
C319 C318 1.391 . S
H320 C328 0.950 . S
H321 C333 0.950 . S
H322 C330 0.950 . S
H323 C332 0.950 . S
H324 C334 0.950 . S
H325 C336 0.950 1_554 S
H326 C338 0.950 . S
H327 C339 0.950 . S
C328 H320 0.950 . S
C328 C329 1.386 . S
C328 C330 1.391 . S
C329 C328 1.386 . S
C329 C333 1.393 . S
C330 H322 0.950 . S
C330 C328 1.391 . S
C330 C331 1.400 . S
C331 C330 1.400 . S
C331 C332 1.398 . S
C331 C337 1.491 1_554 S
C332 H323 0.950 . S
C332 C331 1.398 . S
C332 C333 1.391 . S
C333 H321 0.950 . S
C333 C329 1.393 . S
C333 C332 1.391 . S
C334 H324 0.950 . S
C334 C335 1.386 . S
C334 C336 1.391 . S
C335 C334 1.386 . S
C335 C339 1.393 . S
C336 H325 0.950 1_556 S
C336 C334 1.391 . S
C336 C337 1.400 . S
C337 C331 1.491 1_556 S
C337 C336 1.400 . S
C337 C338 1.398 . S
C338 H326 0.950 . S
C338 C337 1.398 . S
C338 C339 1.391 . S
C339 H327 0.950 . S
C339 C335 1.393 . S
C339 C338 1.391 . S
H340 C348 0.950 . S
H341 C353 0.950 . S
H342 C350 0.950 . S
H343 C352 0.950 . S
H344 C354 0.950 . S
H345 C356 0.950 . S
H346 C358 0.950 . S
H347 C359 0.950 . S
C348 H340 0.950 . S
C348 C349 1.386 . S
C348 C350 1.391 . S
C349 C348 1.386 . S
C349 C353 1.393 1_455 S
C350 H342 0.950 . S
C350 C348 1.391 . S
C350 C351 1.400 . S
C351 C350 1.400 . S
C351 C352 1.398 1_455 S
C351 C357 1.491 . S
C352 H343 0.950 . S
C352 C351 1.398 1_655 S
C352 C353 1.391 . S
C353 H341 0.950 . S
C353 C349 1.393 1_655 S
C353 C352 1.391 . S
C354 H344 0.950 . S
C354 C355 1.386 . S
C354 C356 1.391 . S
C355 C354 1.386 . S
C355 C359 1.393 1_655 S
C356 H345 0.950 . S
C356 C354 1.391 . S
C356 C357 1.400 1_655 S
C357 C351 1.491 . S
C357 C356 1.400 1_455 S
C357 C358 1.398 . S
C358 H346 0.950 . S
C358 C357 1.398 . S
C358 C359 1.391 . S
C359 H347 0.950 . S
C359 C355 1.393 1_455 S
C359 C358 1.391 . S
H360 C368 0.950 . S
H361 C373 0.950 . S
H362 C370 0.950 . S
H363 C372 0.950 . S
H364 C374 0.950 . S
H365 C376 0.950 . S
H366 C378 0.950 . S
H367 C379 0.950 . S
C368 H360 0.950 . S
C368 C369 1.386 . S
C368 C370 1.391 . S
C369 C368 1.386 . S
C369 C373 1.393 1_545 S
C370 H362 0.950 . S
C370 C368 1.391 . S
C370 C371 1.400 . S
C371 C370 1.400 . S
C371 C372 1.398 1_545 S
C371 C377 1.491 . S
C372 H363 0.950 . S
C372 C371 1.398 1_565 S
C372 C373 1.391 . S
C373 H361 0.950 . S
C373 C369 1.393 1_565 S
C373 C372 1.391 . S
C374 H364 0.950 . S
C374 C375 1.386 1_565 S
C374 C376 1.391 . S
C375 C374 1.386 1_545 S
C375 C379 1.393 . S
C376 H365 0.950 . S
C376 C374 1.391 . S
C376 C377 1.400 1_565 S
C377 C371 1.491 . S
C377 C376 1.400 1_545 S
C377 C378 1.398 . S
C378 H366 0.950 . S
C378 C377 1.398 . S
C378 C379 1.391 . S
C379 H367 0.950 . S
C379 C375 1.393 . S
C379 C378 1.391 . S
H380 C388 0.950 . S
H381 C393 0.950 . S
H382 C390 0.950 . S
H383 C392 0.950 1_556 S
H384 C394 0.950 . S
H385 C396 0.950 . S
H386 C398 0.950 . S
H387 C399 0.950 . S
C388 H380 0.950 . S
C388 C389 1.386 . S
C388 C390 1.391 . S
C389 C388 1.386 . S
C389 C393 1.393 . S
C390 H382 0.950 . S
C390 C388 1.391 . S
C390 C391 1.400 . S
C391 C390 1.400 . S
C391 C392 1.398 . S
C391 C397 1.491 1_554 S
C392 H383 0.950 1_554 S
C392 C391 1.398 . S
C392 C393 1.391 . S
C393 H381 0.950 . S
C393 C389 1.393 . S
C393 C392 1.391 . S
C394 H384 0.950 . S
C394 C395 1.386 . S
C394 C396 1.391 . S
C395 C394 1.386 . S
C395 C399 1.393 . S
C396 H385 0.950 . S
C396 C394 1.391 . S
C396 C397 1.400 . S
C397 C391 1.491 1_556 S
C397 C396 1.400 . S
C397 C398 1.398 1_556 S
C398 H386 0.950 . S
C398 C397 1.398 1_554 S
C398 C399 1.391 1_554 S
C399 H387 0.950 . S
C399 C395 1.393 . S
C399 C398 1.391 1_556 S
H400 C408 0.950 . S
H401 C413 0.950 . S
H402 C410 0.950 . S
H403 C412 0.950 . S
H404 C414 0.950 . S
H405 C416 0.950 . S
H406 C418 0.950 . S
H407 C419 0.950 . S
C408 H400 0.950 . S
C408 C409 1.386 1_455 S
C408 C410 1.391 . S
C409 C408 1.386 1_655 S
C409 C413 1.393 . S
C410 H402 0.950 . S
C410 C408 1.391 . S
C410 C411 1.400 1_455 S
C411 C410 1.400 1_655 S
C411 C412 1.398 . S
C411 C417 1.491 . S
C412 H403 0.950 . S
C412 C411 1.398 . S
C412 C413 1.391 . S
C413 H401 0.950 . S
C413 C409 1.393 . S
C413 C412 1.391 . S
C414 H404 0.950 . S
C414 C415 1.386 . S
C414 C416 1.391 . S
C415 C414 1.386 . S
C415 C419 1.393 1_655 S
C416 H405 0.950 . S
C416 C414 1.391 . S
C416 C417 1.400 . S
C417 C411 1.491 . S
C417 C416 1.400 . S
C417 C418 1.398 1_655 S
C418 H406 0.950 . S
C418 C417 1.398 1_455 S
C418 C419 1.391 . S
C419 H407 0.950 . S
C419 C415 1.393 1_455 S
C419 C418 1.391 . S
C195 C50 1.476 1_455 S
C189 C6 1.454 1_455 S
C209 C22 1.571 . S
C215 C89 1.604 . S
C229 C34 1.244 . S
C235 C156 1.269 . S
C249 C7 1.455 . S
C255 C57 1.479 . S
C275 C110 1.603 1_545 S
C269 C23 1.569 . S
C289 C35 1.248 . S
C295 C135 1.268 . S
C315 C96 1.602 1_565 S
C309 C36 1.592 . S
C329 C9 1.790 . S
C335 C149 1.832 . S
C355 C64 1.482 1_655 S
C349 C21 1.461 1_455 S
C375 C103 1.599 . S
C369 C37 1.583 . S
C395 C142 1.833 . S
C389 C8 1.801 . S
C409 C20 1.453 1_655 S
C415 C43 1.481 1_655 S
