# Generated by pormake.
# Topology hwx, (6,3)-cn, num edge types: 1
# Building blocks:
#     Node 0, Type 0, BuildingBlock: IZENUY_clean_sbu_0, # of connection points: 6
#     Node 1, Type 0, BuildingBlock: IZENUY_clean_sbu_0, # of connection points: 6
#     Node 2, Type 0, BuildingBlock: IZENUY_clean_sbu_0, # of connection points: 6
#     Node 3, Type 0, BuildingBlock: IZENUY_clean_sbu_0, # of connection points: 6
#     Node 4, Type 1, BuildingBlock: BETDIP_clean_linker_0, # of connection points: 3
#     Node 5, Type 1, BuildingBlock: BETDIP_clean_linker_0, # of connection points: 3
#     Node 6, Type 1, BuildingBlock: BETDIP_clean_linker_0, # of connection points: 3
#     Node 7, Type 1, BuildingBlock: BETDIP_clean_linker_0, # of connection points: 3
#     Node 8, Type 1, BuildingBlock: BETDIP_clean_linker_0, # of connection points: 3
#     Node 9, Type 1, BuildingBlock: BETDIP_clean_linker_0, # of connection points: 3
#     Node 10, Type 1, BuildingBlock: BETDIP_clean_linker_0, # of connection points: 3
#     Node 11, Type 1, BuildingBlock: BETDIP_clean_linker_0, # of connection points: 3
#     Edge 12, Type (0, 1), BuildingBlock: XIVTED_clean_linker_0, # of connection points: 2
#     Edge 13, Type (0, 1), BuildingBlock: XIVTED_clean_linker_0, # of connection points: 2
#     Edge 14, Type (0, 1), BuildingBlock: XIVTED_clean_linker_0, # of connection points: 2
#     Edge 15, Type (0, 1), BuildingBlock: XIVTED_clean_linker_0, # of connection points: 2
#     Edge 16, Type (0, 1), BuildingBlock: XIVTED_clean_linker_0, # of connection points: 2
#     Edge 17, Type (0, 1), BuildingBlock: XIVTED_clean_linker_0, # of connection points: 2
#     Edge 18, Type (0, 1), BuildingBlock: XIVTED_clean_linker_0, # of connection points: 2
#     Edge 19, Type (0, 1), BuildingBlock: XIVTED_clean_linker_0, # of connection points: 2
#     Edge 20, Type (0, 1), BuildingBlock: XIVTED_clean_linker_0, # of connection points: 2
#     Edge 21, Type (0, 1), BuildingBlock: XIVTED_clean_linker_0, # of connection points: 2
#     Edge 22, Type (0, 1), BuildingBlock: XIVTED_clean_linker_0, # of connection points: 2
#     Edge 23, Type (0, 1), BuildingBlock: XIVTED_clean_linker_0, # of connection points: 2
#     Edge 24, Type (0, 1), BuildingBlock: XIVTED_clean_linker_0, # of connection points: 2
#     Edge 25, Type (0, 1), BuildingBlock: XIVTED_clean_linker_0, # of connection points: 2
#     Edge 26, Type (0, 1), BuildingBlock: XIVTED_clean_linker_0, # of connection points: 2
#     Edge 27, Type (0, 1), BuildingBlock: XIVTED_clean_linker_0, # of connection points: 2
#     Edge 28, Type (0, 1), BuildingBlock: XIVTED_clean_linker_0, # of connection points: 2
#     Edge 29, Type (0, 1), BuildingBlock: XIVTED_clean_linker_0, # of connection points: 2
#     Edge 30, Type (0, 1), BuildingBlock: XIVTED_clean_linker_0, # of connection points: 2
#     Edge 31, Type (0, 1), BuildingBlock: XIVTED_clean_linker_0, # of connection points: 2
#     Edge 32, Type (0, 1), BuildingBlock: XIVTED_clean_linker_0, # of connection points: 2
#     Edge 33, Type (0, 1), BuildingBlock: XIVTED_clean_linker_0, # of connection points: 2
#     Edge 34, Type (0, 1), BuildingBlock: XIVTED_clean_linker_0, # of connection points: 2
#     Edge 35, Type (0, 1), BuildingBlock: XIVTED_clean_linker_0, # of connection points: 2
# Relax obj value: 0.003
# Max RMSD: 0.061
# Mean RMSD: 0.048
data_MOF--net-hwx--node1-IZENUY_clean_sbu_0--node2-BETDIP_clean_linker_0--edge1-XIVTED_clean_linker_0
_symmetry_space_group_name_H-M    P1
_symmetry_Int_Tables_number       1
_symmetry_cell_setting            triclinic
loop_
_symmetry_equiv_pos_as_xyz
'x, y, z'
_cell_length_a     52.077771
_cell_length_b     52.023083
_cell_length_c     20.834661
_cell_angle_alpha  91.474776
_cell_angle_beta   91.584573
_cell_angle_gamma 90.049164
loop_
_atom_site_label
_atom_site_type_symbol
_atom_site_fract_x
_atom_site_fract_y
_atom_site_fract_z
_atom_type_partial_charge
Fe0 Fe 0.23811 0.23318 0.07795 0.0
Fe1 Fe 0.23692 0.23682 0.93142 0.0
O2 O 0.22511 0.22328 0.00201 0.0
Fe3 Fe 0.20027 0.19994 0.99654 0.0
O4 O 0.17917 0.21985 0.04453 0.0
O5 O 0.208 0.22954 0.12029 0.0
O6 O 0.22875 0.26632 0.06529 0.0
C7 C 0.2359 0.27931 0.01877 0.0
C8 C 0.23361 0.18136 0.09459 0.0
O9 O 0.24458 0.26838 0.96895 0.0
C10 C 0.22899 0.18444 0.89533 0.0
O11 O 0.27066 0.23858 0.04925 0.0
O12 O 0.26912 0.225 0.94838 0.0
O13 O 0.21169 0.18209 0.06674 0.0
O14 O 0.24824 0.20071 0.09556 0.0
C15 C 0.18541 0.23602 0.90273 0.0
O16 O 0.23143 0.2078 0.88091 0.0
O17 O 0.21969 0.17842 0.94809 0.0
C18 C 0.28178 0.2301 -0.00031 0.0
O19 O 0.20549 0.24952 0.91005 0.0
O20 O 0.18437 0.21366 0.92537 0.0
C21 C 0.18493 0.22915 0.09951 0.0
Fe22 Fe 0.26027 0.73382 0.6035 0.0
Fe23 Fe 0.29817 0.69793 0.53488 0.0
O24 O 0.27442 0.72229 0.53205 0.0
Fe25 Fe 0.2648 0.73525 0.45749 0.0
O26 O 0.25783 0.76753 0.49025 0.0
O27 O 0.27132 0.76636 0.59078 0.0
O28 O 0.28926 0.72964 0.65433 0.0
C29 C 0.31267 0.72763 0.64 0.0
C30 C 0.21836 0.73109 0.5137 0.0
O31 O 0.319 0.7175 0.5872 0.0
C32 C 0.27126 0.68226 0.42693 0.0
O33 O 0.24834 0.70211 0.621 0.0
O34 O 0.28433 0.68143 0.60285 0.0
O35 O 0.23194 0.72472 0.46665 0.0
O36 O 0.22868 0.74006 0.5654 0.0
C37 C 0.31665 0.73236 0.44326 0.0
O38 O 0.27898 0.67657 0.4826 0.0
O39 O 0.27013 0.7055 0.4105 0.0
C40 C 0.26193 0.68214 0.62514 0.0
O41 O 0.31629 0.71021 0.46736 0.0
O42 O 0.29703 0.74654 0.44417 0.0
C43 C 0.26612 0.77891 0.54112 0.0
Fe44 Fe 0.76177 0.7765 0.92562 0.0
Fe45 Fe 0.76333 0.77304 0.07204 0.0
O46 O 0.77415 0.78733 0.00149 0.0
Fe47 Fe 0.79734 0.81234 0.00685 0.0
O48 O 0.78448 0.82939 0.93675 0.0
O49 O 0.74932 0.80812 0.90817 0.0
O50 O 0.72979 0.76864 0.95444 0.0
C51 C 0.71807 0.77642 0.00373 0.0
C52 C 0.81449 0.7843 0.90374 0.0
O53 O 0.73036 0.7826 0.05488 0.0
C54 C 0.8147 0.77725 0.10055 0.0
O55 O 0.77347 0.74413 0.9383 0.0
O56 O 0.75809 0.741 0.03479 0.0
O57 O 0.81966 0.79394 0.95869 0.0
O58 O 0.79147 0.78234 0.88304 0.0
C59 C 0.76782 0.82582 0.10833 0.0
O60 O 0.7955 0.76257 0.09342 0.0
O61 O 0.81434 0.79965 0.0779 0.0
C62 C 0.76765 0.73067 0.98523 0.0
O63 O 0.76677 0.80233 0.12246 0.0
O64 O 0.77668 0.8325 0.05559 0.0
C65 C 0.7625 0.82849 0.90909 0.0
Fe66 Fe 0.70173 0.31184 0.49138 0.0
Fe67 Fe 0.73568 0.27421 0.56688 0.0
O68 O 0.72504 0.2869 0.49274 0.0
Fe69 Fe 0.73772 0.2746 0.4202 0.0
O70 O 0.73606 0.30529 0.37906 0.0
O71 O 0.72331 0.33343 0.45205 0.0
O72 O 0.71284 0.32697 0.56801 0.0
C73 C 0.73424 0.32551 0.59822 0.0
C74 C 0.68694 0.27964 0.38487 0.0
O75 O 0.74759 0.30533 0.59482 0.0
C76 C 0.73116 0.23006 0.49366 0.0
O77 O 0.6784 0.29203 0.5305 0.0
O78 O 0.70501 0.2789 0.60637 0.0
O79 O 0.70612 0.26498 0.39006 0.0
O80 O 0.68653 0.30119 0.41456 0.0
C81 C 0.78131 0.27602 0.49636 0.0
O82 O 0.72446 0.24225 0.54352 0.0
O83 O 0.7416 0.24159 0.4483 0.0
C84 C 0.68244 0.28109 0.5831 0.0
O85 O 0.76836 0.26706 0.54119 0.0
O86 O 0.7703 0.28338 0.4454 0.0
C87 C 0.73453 0.32823 0.40046 0.0
H88 H 0.22368 0.51485 0.90936 0.0
H89 H 0.24298 0.5184 0.11177 0.0
H90 H 0.23627 0.58797 0.00556 0.0
H91 H 0.26575 0.48 0.07118 0.0
C92 C 0.24878 0.47111 0.04854 0.0
C93 C 0.22797 0.52609 0.95289 0.0
C94 C 0.22936 0.55298 0.95076 0.0
C95 C 0.23287 0.51352 0.01074 0.0
C96 C 0.23904 0.52804 0.06711 0.0
C97 C 0.24045 0.55499 0.06552 0.0
C98 C 0.23516 0.56719 0.00733 0.0
N99 N 0.23174 0.48626 0.01093 0.0
H100 H 0.97888 0.74353 0.61637 0.0
H101 H 0.97976 0.74368 0.40942 0.0
H102 H 0.90809 0.74597 0.50532 0.0
H103 H 0.01753 0.72432 0.42382 0.0
C104 C 0.02592 0.73235 0.46821 0.0
C105 C 0.96869 0.74379 0.57031 0.0
C106 C 0.94173 0.74455 0.56773 0.0
C107 C 0.98265 0.74262 0.51359 0.0
C108 C 0.96941 0.74348 0.45369 0.0
C109 C 0.94248 0.74424 0.45067 0.0
C110 C 0.92888 0.74462 0.50771 0.0
N111 N 0.00989 0.74093 0.51862 0.0
H112 H 0.77338 0.49287 0.11364 0.0
H113 H 0.77098 0.49072 0.90657 0.0
H114 H 0.77081 0.42045 0.00936 0.0
H115 H 0.78911 0.52952 0.91859 0.0
C116 C 0.78096 0.53813 0.96143 0.0
C117 C 0.77289 0.482 0.06855 0.0
C118 C 0.77256 0.455 0.06856 0.0
C119 C 0.7731 0.49513 0.01052 0.0
C120 C 0.77187 0.481 0.95183 0.0
C121 C 0.77148 0.45402 0.95129 0.0
C122 C 0.77199 0.44127 0.00973 0.0
N123 N 0.77386 0.52247 0.01304 0.0
H124 H 0.02096 0.27095 0.38773 0.0
H125 H 0.021 0.27303 0.59477 0.0
H126 H 0.09223 0.26992 0.49695 0.0
H127 H 0.98133 0.25829 0.58067 0.0
C128 C 0.97364 0.26609 0.53633 0.0
C129 C 0.03136 0.27115 0.43353 0.0
C130 C 0.05833 0.27087 0.43538 0.0
C131 C 0.0176 0.27157 0.4905 0.0
C132 C 0.03112 0.27201 0.55018 0.0
C133 C 0.0581 0.27176 0.55262 0.0
C134 C 0.07144 0.27117 0.49512 0.0
N135 N 0.99028 0.27195 0.48575 0.0
H136 H 0.72036 0.99422 0.61868 0.0
H137 H 0.73454 0.98906 0.41579 0.0
H138 H 0.72913 0.92052 0.52469 0.0
H139 H 0.72016 0.02848 0.41315 0.0
C140 C 0.72242 0.03747 0.46051 0.0
C141 C 0.7233 0.98276 0.57532 0.0
C142 C 0.72434 0.95589 0.57826 0.0
C143 C 0.72586 0.99498 0.51654 0.0
C144 C 0.73084 0.98002 0.46071 0.0
C145 C 0.73237 0.9531 0.46343 0.0
C146 C 0.72832 0.94129 0.52209 0.0
N147 N 0.7243 0.02229 0.51626 0.0
H148 H 0.51806 0.24032 0.86936 0.0
H149 H 0.5223 0.24359 0.07664 0.0
H150 H 0.59128 0.24406 0.96966 0.0
H151 H 0.48362 0.22745 0.07019 0.0
C152 C 0.47444 0.23252 0.02491 0.0
C153 C 0.52929 0.24123 0.91396 0.0
C154 C 0.5562 0.24197 0.91258 0.0
C155 C 0.51673 0.24093 0.97275 0.0
C156 C 0.53143 0.24272 0.03071 0.0
C157 C 0.55836 0.24342 0.02969 0.0
C158 C 0.5705 0.24286 0.97057 0.0
N159 N 0.48944 0.23891 0.97152 0.0
H160 H 0.27204 0.01422 0.38706 0.0
H161 H 0.25958 0.01924 0.59063 0.0
H162 H 0.26081 0.08774 0.48047 0.0
H163 H 0.28067 0.9816 0.59131 0.0
C164 C 0.27489 0.97189 0.54647 0.0
C165 C 0.26892 0.0257 0.43028 0.0
C166 C 0.26679 0.05253 0.42685 0.0
C167 C 0.26738 0.01355 0.48949 0.0
C168 C 0.2624 0.02841 0.54538 0.0
C169 C 0.25969 0.05522 0.5423 0.0
C170 C 0.26258 0.06703 0.48315 0.0
N171 N 0.26972 0.98631 0.49047 0.0
H172 H 0.48243 0.76517 0.1542 0.0
H173 H 0.47744 0.76543 0.94725 0.0
H174 H 0.40882 0.76317 0.05613 0.0
H175 H 0.51733 0.75117 0.95399 0.0
C176 C 0.526 0.75956 0.99763 0.0
C177 C 0.47101 0.76493 0.10988 0.0
C178 C 0.44412 0.76479 0.11193 0.0
C179 C 0.48334 0.76483 0.05084 0.0
C180 C 0.4684 0.76469 0.99324 0.0
C181 C 0.44144 0.76425 0.99475 0.0
C182 C 0.42958 0.76434 0.05436 0.0
N183 N 0.51066 0.76549 0.05142 0.0
H184 H 0.19031 0.26114 0.20421 0.0
H185 H 0.04934 0.23972 0.32845 0.0
H186 H 0.13318 0.21806 0.09246 0.0
H187 H 0.10161 0.29749 0.40719 0.0
H188 H 0.07838 0.23226 0.23914 0.0
H189 H 0.15731 0.2748 0.27807 0.0
C190 C 0.17077 0.25455 0.19521 0.0
C191 C 0.16454 0.23821 0.14249 0.0
C192 C 0.08328 0.2468 0.27555 0.0
C193 C 0.1265 0.25381 0.22718 0.0
C194 C 0.06666 0.25117 0.32629 0.0
C195 C 0.07328 0.26898 0.37581 0.0
C196 C 0.10669 0.26024 0.27474 0.0
C197 C 0.09603 0.28317 0.3708 0.0
C198 C 0.15187 0.2625 0.23722 0.0
C199 C 0.13881 0.23059 0.1327 0.0
N200 N 0.11203 0.27827 0.32172 0.0
N201 N 0.12074 0.23822 0.17515 0.0
H202 H 0.21824 0.67929 0.69539 0.0
H203 H 0.25551 0.54306 0.84105 0.0
H204 H 0.28441 0.63492 0.63961 0.0
H205 H 0.19974 0.59471 0.92246 0.0
H206 H 0.25967 0.57188 0.75061 0.0
H207 H 0.20528 0.64423 0.7633 0.0
C208 C 0.22997 0.66212 0.697 0.0
C209 C 0.25271 0.66026 0.6625 0.0
C210 C 0.24618 0.57668 0.78768 0.0
C211 C 0.23785 0.61996 0.74 0.0
C212 C 0.24361 0.56011 0.83887 0.0
C213 C 0.22743 0.56669 0.88938 0.0
C214 C 0.23239 0.59989 0.78709 0.0
C215 C 0.21264 0.58913 0.88468 0.0
C216 C 0.22253 0.64209 0.73578 0.0
C217 C 0.26694 0.63739 0.66606 0.0
N218 N 0.21567 0.60507 0.83484 0.0
N219 N 0.25939 0.61822 0.7045 0.0
H220 H 0.82024 0.73247 0.16586 0.0
H221 H 0.94978 0.77723 0.35237 0.0
H222 H 0.85904 0.80399 0.13114 0.0
H223 H 0.90212 0.71436 0.40896 0.0
H224 H 0.92137 0.78289 0.25776 0.0
H225 H 0.85462 0.72141 0.24197 0.0
C226 C 0.83606 0.74581 0.17388 0.0
C227 C 0.83652 0.7694 0.1427 0.0
C228 C 0.91733 0.76767 0.2905 0.0
C229 C 0.87604 0.75677 0.22993 0.0
C230 C 0.93362 0.76432 0.34411 0.0
C231 C 0.92808 0.74546 0.3886 0.0
C232 C 0.89553 0.7519 0.28137 0.0
C233 C 0.90683 0.72934 0.3761 0.0
C234 C 0.8557 0.73946 0.21741 0.0
C235 C 0.85771 0.78574 0.15463 0.0
N236 N 0.89124 0.73304 0.32391 0.0
N237 N 0.87654 0.77921 0.19768 0.0
H238 H 0.77737 0.32789 0.67656 0.0
H239 H 0.73829 0.46099 0.84877 0.0
H240 H 0.70993 0.37141 0.62247 0.0
H241 H 0.79958 0.41198 0.91607 0.0
H242 H 0.73142 0.43183 0.75551 0.0
H243 H 0.78924 0.36172 0.75499 0.0
C244 C 0.76508 0.34459 0.68094 0.0
C245 C 0.74242 0.34661 0.64334 0.0
C246 C 0.74654 0.42761 0.79037 0.0
C247 C 0.75599 0.38554 0.73321 0.0
C248 C 0.75058 0.44433 0.84326 0.0
C249 C 0.76937 0.43872 0.89037 0.0
C250 C 0.76147 0.40521 0.78456 0.0
C251 C 0.78464 0.41679 0.88125 0.0
C252 C 0.7719 0.36394 0.72578 0.0
C253 C 0.72743 0.36889 0.65084 0.0
N254 N 0.78024 0.40076 0.82969 0.0
N255 N 0.7344 0.3874 0.69519 0.0
H256 H 0.64208 0.30582 0.36094 0.0
H257 H 0.59989 0.21436 0.06306 0.0
H258 H 0.68324 0.23725 0.30421 0.0
H259 H 0.55329 0.27719 0.13184 0.0
H260 H 0.62937 0.22122 0.15506 0.0
H261 H 0.60832 0.29476 0.28107 0.0
C262 C 0.64401 0.2884 0.33189 0.0
C263 C 0.66571 0.27259 0.33892 0.0
C264 C 0.61259 0.23338 0.15057 0.0
C265 C 0.62708 0.25982 0.24739 0.0
C266 C 0.59578 0.22947 0.09802 0.0
C267 C 0.57427 0.24536 0.08972 0.0
C268 C 0.60805 0.25354 0.19493 0.0
C269 C 0.56965 0.26448 0.13667 0.0
C270 C 0.62467 0.28206 0.28641 0.0
C271 C 0.667 0.25014 0.30025 0.0
N272 N 0.58659 0.26825 0.18696 0.0
N273 N 0.64807 0.24455 0.25592 0.0
H274 H 0.22866 0.18995 0.76597 0.0
H275 H 0.27784 0.05155 0.66768 0.0
H276 H 0.23938 0.13313 0.91172 0.0
H277 H 0.22604 0.09539 0.54774 0.0
H278 H 0.26947 0.08168 0.75773 0.0
H279 H 0.2347 0.15661 0.68354 0.0
C280 C 0.23244 0.17045 0.78068 0.0
C281 C 0.23348 0.16427 0.84578 0.0
C282 C 0.25989 0.08445 0.71163 0.0
C283 C 0.24052 0.12603 0.75147 0.0
C284 C 0.26455 0.06728 0.66038 0.0
C285 C 0.25308 0.07127 0.59959 0.0
C286 C 0.24396 0.1058 0.70145 0.0
C287 C 0.23603 0.092 0.59298 0.0
C288 C 0.2357 0.15142 0.73357 0.0
C289 C 0.23831 0.13862 0.86195 0.0
N290 N 0.2323 0.10865 0.6429 0.0
N291 N 0.24186 0.12037 0.81497 0.0
H292 H 0.3234 0.77766 0.38187 0.0
H293 H 0.45156 0.73144 0.21032 0.0
H294 H 0.36093 0.7054 0.41982 0.0
H295 H 0.40559 0.79608 0.1519 0.0
H296 H 0.42367 0.72609 0.30224 0.0
H297 H 0.35832 0.78887 0.31227 0.0
C298 C 0.33906 0.76419 0.37595 0.0
C299 C 0.33897 0.74034 0.40596 0.0
C300 C 0.41994 0.74167 0.2698 0.0
C301 C 0.37912 0.75313 0.32611 0.0
C302 C 0.43594 0.74483 0.21777 0.0
C303 C 0.43064 0.76407 0.17342 0.0
C304 C 0.39866 0.75798 0.27743 0.0
C305 C 0.41009 0.78082 0.18475 0.0
C306 C 0.35903 0.77063 0.33617 0.0
C307 C 0.36002 0.72386 0.39706 0.0
N308 N 0.39473 0.77726 0.23531 0.0
N309 N 0.37913 0.73046 0.35743 0.0
H310 H 0.78527 0.87576 0.8993 0.0
H311 H 0.69307 0.91628 0.60886 0.0
H312 H 0.71879 0.83187 0.83329 0.0
H313 H 0.75453 0.96434 0.68598 0.0
H314 H 0.69874 0.88799 0.69999 0.0
H315 H 0.77158 0.91072 0.8302 0.0
C316 C 0.76771 0.8735 0.8706 0.0
C317 C 0.75339 0.85062 0.87137 0.0
C318 C 0.71071 0.90496 0.6978 0.0
C319 C 0.73759 0.89065 0.79216 0.0
C320 C 0.70739 0.92114 0.64594 0.0
C321 C 0.72348 0.94251 0.63994 0.0
C322 C 0.73056 0.90996 0.74346 0.0
C323 C 0.74171 0.94805 0.68912 0.0
C324 C 0.75985 0.89354 0.83131 0.0
C325 C 0.73063 0.84899 0.83374 0.0
N326 N 0.74508 0.9316 0.73835 0.0
N327 N 0.72361 0.8686 0.7952 0.0
H328 H 0.86584 0.79713 0.91348 0.0
H329 H 0.89917 0.71666 0.59398 0.0
H330 H 0.81089 0.75314 0.79698 0.0
H331 H 0.94928 0.77579 0.67516 0.0
H332 H 0.86997 0.72394 0.68204 0.0
H333 H 0.89954 0.78434 0.83887 0.0
C334 C 0.86088 0.78472 0.87246 0.0
C335 C 0.83545 0.77643 0.86099 0.0
C336 C 0.88744 0.73522 0.68102 0.0
C337 C 0.87384 0.76151 0.77639 0.0
C338 C 0.90412 0.73104 0.6308 0.0
C339 C 0.92645 0.74595 0.62675 0.0
C340 C 0.89303 0.75447 0.72775 0.0
C341 C 0.93222 0.76393 0.67649 0.0
C342 C 0.8801 0.77746 0.82999 0.0
C343 C 0.83013 0.76029 0.80728 0.0
N344 N 0.91543 0.76793 0.72471 0.0
N345 N 0.84912 0.7534 0.7671 0.0
H346 H 0.76962 0.32468 0.30641 0.0
H347 H 0.74225 0.46404 0.17271 0.0
H348 H 0.72117 0.37946 0.40408 0.0
H349 H 0.80075 0.41297 0.10146 0.0
H350 H 0.73629 0.43541 0.26295 0.0
H351 H 0.78291 0.35823 0.23513 0.0
C352 C 0.76183 0.34385 0.31299 0.0
C353 C 0.74402 0.3492 0.36074 0.0
C354 C 0.75069 0.43069 0.22805 0.0
C355 C 0.7591 0.38786 0.27881 0.0
C356 C 0.75419 0.44709 0.1768 0.0
C357 C 0.77174 0.44063 0.12907 0.0
C358 C 0.76478 0.4077 0.23122 0.0
C359 C 0.78663 0.41839 0.13649 0.0
C360 C 0.76953 0.36307 0.27241 0.0
C361 C 0.73486 0.37449 0.36765 0.0
N362 N 0.7826 0.4026 0.18603 0.0
N363 N 0.74225 0.39285 0.3265 0.0
H364 H 0.18321 0.2797 0.83147 0.0
H365 H 0.04989 0.24064 0.65423 0.0
H366 H 0.13891 0.21271 0.87713 0.0
H367 H 0.10006 0.30037 0.59104 0.0
H368 H 0.07844 0.23489 0.74828 0.0
H369 H 0.14931 0.29192 0.75487 0.0
C370 C 0.16629 0.26765 0.82581 0.0
C371 C 0.16411 0.24493 0.86022 0.0
C372 C 0.08304 0.24946 0.71421 0.0
C373 C 0.12516 0.25887 0.77253 0.0
C374 C 0.06665 0.25288 0.66085 0.0
C375 C 0.07279 0.27082 0.61454 0.0
C376 C 0.10565 0.26417 0.72132 0.0
C377 C 0.09485 0.28604 0.62517 0.0
C378 C 0.14693 0.27464 0.78199 0.0
C379 C 0.14159 0.23022 0.85113 0.0
N380 N 0.11058 0.28224 0.67712 0.0
N381 N 0.1231 0.23734 0.80787 0.0
H382 H 0.26006 0.63113 0.44339 0.0
H383 H 0.27366 0.59554 0.07198 0.0
H384 H 0.27343 0.68667 0.29746 0.0
H385 H 0.22512 0.55045 0.1906 0.0
H386 H 0.28205 0.62507 0.16265 0.0
H387 H 0.25429 0.59765 0.35834 0.0
C388 C 0.2618 0.63626 0.39363 0.0
C389 C 0.26715 0.66172 0.37739 0.0
C390 C 0.26961 0.60867 0.16895 0.0
C391 C 0.2611 0.62369 0.28088 0.0
C392 C 0.26475 0.59183 0.1172 0.0
C393 C 0.24812 0.57083 0.12324 0.0
C394 C 0.25808 0.60444 0.22774 0.0
C395 C 0.23792 0.56649 0.18378 0.0
C396 C 0.25846 0.61721 0.34536 0.0
C397 C 0.26915 0.66736 0.31225 0.0
N398 N 0.24292 0.58331 0.23383 0.0
N399 N 0.26631 0.64849 0.26655 0.0
H400 H 0.30706 0.75742 0.74846 0.0
H401 H 0.44921 0.73471 0.88571 0.0
H402 H 0.36418 0.71612 0.64069 0.0
H403 H 0.3967 0.78984 0.96752 0.0
H404 H 0.41922 0.72815 0.79407 0.0
H405 H 0.34003 0.76937 0.82906 0.0
C406 C 0.32655 0.75086 0.74172 0.0
C407 C 0.3328 0.73556 0.68799 0.0
C408 C 0.41442 0.74188 0.8318 0.0
C409 C 0.37076 0.7492 0.78031 0.0
C410 C 0.4316 0.74575 0.88392 0.0
C411 C 0.42531 0.7626 0.93481 0.0
C412 C 0.39075 0.75483 0.83085 0.0
C413 C 0.40209 0.77623 0.93011 0.0
C414 C 0.34543 0.75781 0.78764 0.0
C415 C 0.35848 0.72787 0.68149 0.0
N416 N 0.38557 0.77184 0.87951 0.0
N417 N 0.3765 0.73458 0.72744 0.0
H418 H 0.76611 0.8193 0.23718 0.0
H419 H 0.71633 0.95782 0.3366 0.0
H420 H 0.75683 0.87718 0.09349 0.0
H421 H 0.76446 0.91165 0.46017 0.0
H422 H 0.72548 0.92804 0.24639 0.0
H423 H 0.75848 0.85186 0.32038 0.0
C424 C 0.76231 0.83886 0.22303 0.0
C425 C 0.76218 0.84555 0.15825 0.0
C426 C 0.73406 0.92465 0.29336 0.0
C427 C 0.75335 0.88296 0.25364 0.0
C428 C 0.72895 0.94163 0.34472 0.0
C429 C 0.73919 0.93695 0.40646 0.0
C430 C 0.74921 0.9028 0.30431 0.0
C431 C 0.75541 0.91562 0.41409 0.0
C432 C 0.75813 0.85746 0.27065 0.0
C433 C 0.75724 0.87128 0.14296 0.0
N434 N 0.75962 0.89922 0.36395 0.0
N435 N 0.75285 0.88912 0.19042 0.0
H436 H 0.63168 0.29617 0.57614 0.0
H437 H 0.59587 0.21148 0.87641 0.0
H438 H 0.68385 0.24571 0.67655 0.0
H439 H 0.54834 0.2739 0.81095 0.0
H440 H 0.62397 0.21768 0.78637 0.0
H441 H 0.59721 0.28282 0.64656 0.0
C442 C 0.63581 0.28215 0.61253 0.0
C443 C 0.66074 0.27231 0.62121 0.0
C444 C 0.60725 0.22988 0.7911 0.0
C445 C 0.62153 0.25681 0.70089 0.0
C446 C 0.59119 0.22628 0.84236 0.0
C447 C 0.57002 0.24245 0.85147 0.0
C448 C 0.60228 0.24994 0.74871 0.0
C449 C 0.56455 0.26109 0.80554 0.0
C450 C 0.61618 0.27458 0.65263 0.0
C451 C 0.66504 0.25412 0.66884 0.0
N452 N 0.58084 0.26461 0.75646 0.0
N453 N 0.64569 0.24705 0.70688 0.0
H454 H 0.20659 0.13657 0.10625 0.0
H455 H 0.24062 0.03976 0.31445 0.0
H456 H 0.27726 0.17405 0.16885 0.0
H457 H 0.29325 0.09599 0.39851 0.0
H458 H 0.23473 0.06679 0.22099 0.0
H459 H 0.21707 0.10085 0.17501 0.0
C460 C 0.22453 0.13713 0.13384 0.0
C461 C 0.24091 0.15855 0.13219 0.0
C462 C 0.24748 0.07338 0.25983 0.0
C463 C 0.25352 0.11713 0.2105 0.0
C464 C 0.25122 0.05765 0.31273 0.0
C465 C 0.26705 0.0659 0.36479 0.0
C466 C 0.25955 0.09761 0.25946 0.0
C467 C 0.2804 0.08919 0.35998 0.0
C468 C 0.2307 0.11646 0.1728 0.0
C469 C 0.26392 0.15808 0.1689 0.0
N470 N 0.27612 0.10434 0.30871 0.0
N471 N 0.26936 0.13787 0.20702 0.0
H472 H 0.20232 0.31155 0.07944 0.0
H473 H 0.28738 0.43659 0.06189 0.0
H474 H 0.27229 0.31114 0.97334 0.0
H475 H 0.20531 0.44159 0.03188 0.0
H476 H 0.28406 0.38945 0.05579 0.0
H477 H 0.20479 0.35884 0.08812 0.0
C478 C 0.21822 0.32143 0.05832 0.0
C479 C 0.23709 0.30758 0.02541 0.0
C480 C 0.26683 0.40095 0.05072 0.0
C481 C 0.24028 0.36108 0.03645 0.0
C482 C 0.26868 0.4277 0.05438 0.0
C483 C 0.24662 0.44282 0.04678 0.0
C484 C 0.24265 0.38933 0.0414 0.0
C485 C 0.22278 0.43051 0.03728 0.0
C486 C 0.21954 0.34827 0.06304 0.0
C487 C 0.25727 0.32118 0.99867 0.0
N488 N 0.22136 0.40437 0.03538 0.0
N489 N 0.25851 0.3472 0.00538 0.0
H490 H 0.18889 0.71482 0.409 0.0
H491 H 0.0553 0.74865 0.57349 0.0
H492 H 0.18303 0.74593 0.60224 0.0
H493 H 0.06075 0.71578 0.38215 0.0
H494 H 0.10214 0.74784 0.5848 0.0
H495 H 0.14204 0.71489 0.39818 0.0
C496 C 0.17778 0.72166 0.44919 0.0
C497 C 0.18998 0.73048 0.50655 0.0
C498 C 0.09312 0.74078 0.54032 0.0
C499 C 0.13627 0.73061 0.49443 0.0
C500 C 0.06636 0.74125 0.53384 0.0
C501 C 0.05419 0.73224 0.47673 0.0
C502 C 0.10779 0.73126 0.48931 0.0
C503 C 0.06947 0.72289 0.42695 0.0
C504 C 0.15101 0.72168 0.44296 0.0
C505 C 0.17453 0.73902 0.55703 0.0
N506 N 0.09547 0.72265 0.43434 0.0
N507 N 0.14853 0.73891 0.54972 0.0
H508 H 0.78591 0.70097 0.88549 0.0
H509 H 0.76297 0.56797 0.06151 0.0
H510 H 0.75493 0.69564 0.07486 0.0
H511 H 0.79442 0.57262 0.87276 0.0
H512 H 0.76003 0.61483 0.06713 0.0
H513 H 0.78937 0.65408 0.8797 0.0
C514 C 0.77981 0.68997 0.92582 0.0
C515 C 0.77002 0.70231 0.98065 0.0
C516 C 0.7676 0.60564 0.02445 0.0
C517 C 0.77398 0.64861 0.97436 0.0
C518 C 0.76928 0.57886 0.02123 0.0
C519 C 0.77899 0.56645 0.96651 0.0
C520 C 0.77564 0.62011 0.97257 0.0
C521 C 0.78684 0.58152 0.91578 0.0
C522 C 0.78181 0.66319 0.92249 0.0
C523 C 0.76252 0.68702 0.03152 0.0
N524 N 0.785 0.60757 0.91998 0.0
N525 N 0.76464 0.66102 0.02708 0.0
H526 H 0.81086 0.26149 0.59942 0.0
H527 H 0.94545 0.28314 0.43162 0.0
H528 H 0.81667 0.28966 0.40716 0.0
H529 H 0.93781 0.25479 0.62291 0.0
H530 H 0.89858 0.28647 0.42143 0.0
H531 H 0.85747 0.25985 0.60866 0.0
C532 C 0.82193 0.26735 0.55901 0.0
C533 C 0.80974 0.2756 0.50224 0.0
C534 C 0.90716 0.27955 0.46564 0.0
C535 C 0.86345 0.27376 0.51265 0.0
C536 C 0.93391 0.27763 0.47148 0.0
C537 C 0.94546 0.26861 0.52826 0.0
C538 C 0.89194 0.2724 0.51692 0.0
C539 C 0.92962 0.26179 0.57834 0.0
C540 C 0.84863 0.26641 0.56438 0.0
C541 C 0.82521 0.28308 0.45175 0.0
N542 N 0.9037 0.2638 0.5715 0.0
N543 N 0.85128 0.28192 0.45809 0.0
H544 H 0.71879 0.19733 0.58959 0.0
H545 H 0.72346 0.07088 0.36303 0.0
H546 H 0.738 0.19809 0.38933 0.0
H547 H 0.72232 0.06853 0.56974 0.0
H548 H 0.72472 0.1179 0.37069 0.0
H549 H 0.7159 0.15038 0.58216 0.0
C550 C 0.72236 0.18766 0.54405 0.0
C551 C 0.7288 0.20169 0.49008 0.0
C552 C 0.72421 0.10711 0.41439 0.0
C553 C 0.72538 0.148 0.48126 0.0
C554 C 0.72345 0.08031 0.41001 0.0
C555 C 0.72289 0.06586 0.46574 0.0
C556 C 0.7242 0.11955 0.47504 0.0
C557 C 0.72285 0.07895 0.52551 0.0
C558 C 0.72077 0.16086 0.53992 0.0
C559 C 0.73316 0.18809 0.43231 0.0
N560 N 0.72346 0.10509 0.52858 0.0
N561 N 0.73134 0.16204 0.42943 0.0
H562 H 0.31406 0.22537 0.89757 0.0
H563 H 0.44169 0.22458 0.12084 0.0
H564 H 0.31428 0.23179 0.10461 0.0
H565 H 0.44283 0.23757 0.91731 0.0
H566 H 0.39479 0.22262 0.11402 0.0
H567 H 0.36119 0.22516 0.90207 0.0
C568 C 0.32398 0.22661 0.94393 0.0
C569 C 0.31019 0.22875 0.0008 0.0
C570 C 0.40526 0.22593 0.0708 0.0
C571 C 0.36398 0.22843 0.00621 0.0
C572 C 0.432 0.22701 0.0747 0.0
C573 C 0.44609 0.23135 0.01971 0.0
C574 C 0.39245 0.229 0.01127 0.0
C575 C 0.43267 0.23431 0.96099 0.0
C576 C 0.35086 0.22659 0.94642 0.0
C577 C 0.32408 0.23032 0.0595 0.0
N578 N 0.40655 0.23304 0.95827 0.0
N579 N 0.35015 0.2301 0.06065 0.0
H580 H 0.28074 0.81084 0.64296 0.0
H581 H 0.26194 0.93967 0.44374 0.0
H582 H 0.25555 0.81195 0.44382 0.0
H583 H 0.28543 0.93953 0.64391 0.0
H584 H 0.26016 0.89274 0.44279 0.0
H585 H 0.28324 0.85783 0.64433 0.0
C586 C 0.2757 0.82093 0.59956 0.0
C587 C 0.26781 0.80737 0.54327 0.0
C588 C 0.26573 0.90293 0.48697 0.0
C589 C 0.27071 0.86118 0.54448 0.0
C590 C 0.26677 0.92975 0.48751 0.0
C591 C 0.27387 0.94346 0.54408 0.0
C592 C 0.27184 0.8897 0.54338 0.0
C593 C 0.27988 0.92961 0.59934 0.0
C594 C 0.27715 0.84777 0.60037 0.0
C595 C 0.26163 0.82152 0.48842 0.0
N596 N 0.27872 0.90348 0.59767 0.0
N597 N 0.2632 0.84759 0.49045 0.0
H598 H 0.68589 0.76338 0.90239 0.0
H599 H 0.55656 0.77768 0.09938 0.0
H600 H 0.68526 0.78732 0.10239 0.0
H601 H 0.5594 0.74977 0.90294 0.0
H602 H 0.60334 0.78302 0.10125 0.0
H603 H 0.6393 0.76024 0.90137 0.0
C604 C 0.67597 0.76803 0.9462 0.0
C605 C 0.68962 0.77548 0.00272 0.0
C606 C 0.59372 0.77575 0.05774 0.0
C607 C 0.63594 0.77188 0.00179 0.0
C608 C 0.56703 0.77269 0.05664 0.0
C609 C 0.55416 0.7632 0.00084 0.0
C610 C 0.60755 0.76932 0.00264 0.0
C611 C 0.56864 0.75709 0.9469 0.0
C612 C 0.64928 0.7662 0.94555 0.0
C613 C 0.67557 0.7814 0.05779 0.0
N614 N 0.59453 0.76024 0.94914 0.0
N615 N 0.64949 0.7794 0.056 0.0
loop_
_geom_bond_atom_site_label_1
_geom_bond_atom_site_label_2
_geom_bond_distance
_geom_bond_site_symmetry_2
_ccdc_geom_bond_type
Fe0 O2 1.918 . S
Fe0 O5 1.997 . S
Fe0 O6 2.002 . S
Fe0 O11 1.976 . S
Fe0 O14 1.996 . S
Fe1 O2 1.918 1_556 S
Fe1 O9 1.997 . S
Fe1 O12 1.996 . S
Fe1 O16 1.976 . S
Fe1 O19 2.002 . S
O2 Fe0 1.918 . S
O2 Fe1 1.918 1_554 S
O2 Fe3 1.918 . S
Fe3 O2 1.918 . S
Fe3 O4 2.003 . S
Fe3 O13 1.977 . S
Fe3 O17 1.995 1_554 S
Fe3 O20 1.996 1_554 S
O4 Fe3 2.003 . S
O4 C21 1.295 . S
O5 Fe0 1.997 . S
O5 C21 1.235 . S
O6 Fe0 2.002 . S
O6 C7 1.295 . S
C7 O6 1.295 . S
C7 O9 1.235 1_554 S
C8 O13 1.287 . S
C8 O14 1.255 . S
O9 Fe1 1.997 . S
O9 C7 1.235 1_556 S
C10 O16 1.287 . S
C10 O17 1.255 . S
O11 Fe0 1.976 . S
O11 C18 1.287 . S
O12 Fe1 1.996 . S
O12 C18 1.255 1_556 S
O13 Fe3 1.977 . S
O13 C8 1.287 . S
O14 Fe0 1.996 . S
O14 C8 1.255 . S
C15 O19 1.295 . S
C15 O20 1.235 . S
O16 Fe1 1.976 . S
O16 C10 1.287 . S
O17 Fe3 1.995 1_556 S
O17 C10 1.255 . S
C18 O11 1.287 . S
C18 O12 1.255 1_554 S
O19 Fe1 2.002 . S
O19 C15 1.295 . S
O20 Fe3 1.996 1_556 S
O20 C15 1.235 . S
C21 O4 1.295 . S
C21 O5 1.235 . S
Fe22 O24 1.918 . S
Fe22 O27 1.997 . S
Fe22 O28 2.002 . S
Fe22 O33 1.976 . S
Fe22 O36 1.996 . S
Fe23 O24 1.918 . S
Fe23 O31 1.997 . S
Fe23 O34 1.996 . S
Fe23 O38 1.976 . S
Fe23 O41 2.002 . S
O24 Fe22 1.918 . S
O24 Fe23 1.918 . S
O24 Fe25 1.918 . S
Fe25 O24 1.918 . S
Fe25 O26 2.002 . S
Fe25 O35 1.976 . S
Fe25 O39 1.996 . S
Fe25 O42 1.997 . S
O26 Fe25 2.002 . S
O26 C43 1.295 . S
O27 Fe22 1.997 . S
O27 C43 1.235 . S
O28 Fe22 2.002 . S
O28 C29 1.295 . S
C29 O28 1.295 . S
C29 O31 1.235 . S
C30 O35 1.287 . S
C30 O36 1.255 . S
O31 Fe23 1.997 . S
O31 C29 1.235 . S
C32 O38 1.287 . S
C32 O39 1.255 . S
O33 Fe22 1.976 . S
O33 C40 1.287 . S
O34 Fe23 1.996 . S
O34 C40 1.255 . S
O35 Fe25 1.976 . S
O35 C30 1.287 . S
O36 Fe22 1.996 . S
O36 C30 1.255 . S
C37 O41 1.295 . S
C37 O42 1.235 . S
O38 Fe23 1.976 . S
O38 C32 1.287 . S
O39 Fe25 1.996 . S
O39 C32 1.255 . S
C40 O33 1.287 . S
C40 O34 1.255 . S
O41 Fe23 2.002 . S
O41 C37 1.295 . S
O42 Fe25 1.997 . S
O42 C37 1.235 . S
C43 O26 1.295 . S
C43 O27 1.235 . S
Fe44 O46 1.918 1_556 S
Fe44 O49 1.997 . S
Fe44 O50 2.002 . S
Fe44 O55 1.976 . S
Fe44 O58 1.996 . S
Fe45 O46 1.918 . S
Fe45 O53 1.997 . S
Fe45 O56 1.996 . S
Fe45 O60 1.976 . S
Fe45 O63 2.002 . S
O46 Fe44 1.918 1_554 S
O46 Fe45 1.918 . S
O46 Fe47 1.918 . S
Fe47 O46 1.918 . S
Fe47 O48 2.002 1_554 S
Fe47 O57 1.976 1_554 S
Fe47 O61 1.996 . S
Fe47 O64 1.997 . S
O48 Fe47 2.002 1_556 S
O48 C65 1.295 . S
O49 Fe44 1.997 . S
O49 C65 1.235 . S
O50 Fe44 2.002 . S
O50 C51 1.295 1_556 S
C51 O50 1.295 1_554 S
C51 O53 1.235 . S
C52 O57 1.287 . S
C52 O58 1.255 . S
O53 Fe45 1.997 . S
O53 C51 1.235 . S
C54 O60 1.287 . S
C54 O61 1.255 . S
O55 Fe44 1.976 . S
O55 C62 1.287 1_556 S
O56 Fe45 1.996 . S
O56 C62 1.255 . S
O57 Fe47 1.976 1_556 S
O57 C52 1.287 . S
O58 Fe44 1.996 . S
O58 C52 1.255 . S
C59 O63 1.295 . S
C59 O64 1.235 . S
O60 Fe45 1.976 . S
O60 C54 1.287 . S
O61 Fe47 1.996 . S
O61 C54 1.255 . S
C62 O55 1.287 1_554 S
C62 O56 1.255 . S
O63 Fe45 2.002 . S
O63 C59 1.295 . S
O64 Fe47 1.997 . S
O64 C59 1.235 . S
C65 O48 1.295 . S
C65 O49 1.235 . S
Fe66 O68 1.918 . S
Fe66 O71 1.997 . S
Fe66 O72 2.002 . S
Fe66 O77 1.976 . S
Fe66 O80 1.996 . S
Fe67 O68 1.918 . S
Fe67 O75 1.997 . S
Fe67 O78 1.996 . S
Fe67 O82 1.976 . S
Fe67 O85 2.002 . S
O68 Fe66 1.918 . S
O68 Fe67 1.918 . S
O68 Fe69 1.918 . S
Fe69 O68 1.918 . S
Fe69 O70 2.002 . S
Fe69 O79 1.976 . S
Fe69 O83 1.996 . S
Fe69 O86 1.997 . S
O70 Fe69 2.002 . S
O70 C87 1.295 . S
O71 Fe66 1.997 . S
O71 C87 1.235 . S
O72 Fe66 2.002 . S
O72 C73 1.295 . S
C73 O72 1.295 . S
C73 O75 1.235 . S
C74 O79 1.287 . S
C74 O80 1.255 . S
O75 Fe67 1.997 . S
O75 C73 1.235 . S
C76 O82 1.287 . S
C76 O83 1.255 . S
O77 Fe66 1.976 . S
O77 C84 1.287 . S
O78 Fe67 1.996 . S
O78 C84 1.255 . S
O79 Fe69 1.976 . S
O79 C74 1.287 . S
O80 Fe66 1.996 . S
O80 C74 1.255 . S
C81 O85 1.295 . S
C81 O86 1.235 . S
O82 Fe67 1.976 . S
O82 C76 1.287 . S
O83 Fe69 1.996 . S
O83 C76 1.255 . S
C84 O77 1.287 . S
C84 O78 1.255 . S
O85 Fe67 2.002 . S
O85 C81 1.295 . S
O86 Fe69 1.997 . S
O86 C81 1.235 . S
C87 O70 1.295 . S
C87 O71 1.235 . S
H88 C93 0.930 . S
H89 C96 0.930 . S
H90 C98 0.930 1_554 S
H91 C92 1.016 . S
C92 H91 1.016 . S
C92 N99 1.286 1_554 S
C93 H88 0.930 . S
C93 C94 1.397 . S
C93 C95 1.361 . S
C94 C93 1.397 . S
C94 C98 1.397 . S
C95 C93 1.361 . S
C95 C96 1.393 1_556 S
C95 N99 1.413 . S
C96 H89 0.930 . S
C96 C95 1.393 1_554 S
C96 C97 1.399 . S
C97 C96 1.399 . S
C97 C98 1.375 1_554 S
C98 H90 0.930 1_556 S
C98 C94 1.397 . S
C98 C97 1.375 1_556 S
N99 C92 1.286 1_556 S
N99 C95 1.413 . S
H100 C105 0.930 . S
H101 C108 0.939 . S
H102 C110 0.930 . S
H103 C104 1.016 . S
C104 H103 1.016 . S
C104 N111 1.286 . S
C105 H100 0.930 . S
C105 C106 1.397 . S
C105 C107 1.361 1_655 S
C106 C105 1.397 . S
C106 C110 1.390 . S
C107 C105 1.361 1_455 S
C107 C108 1.393 1_455 S
C107 N111 1.413 . S
C108 H101 0.939 . S
C108 C107 1.393 1_655 S
C108 C109 1.399 . S
C109 C108 1.399 . S
C109 C110 1.381 . S
C110 H102 0.930 . S
C110 C106 1.390 . S
C110 C109 1.381 . S
N111 C104 1.286 . S
N111 C107 1.413 . S
H112 C117 0.930 . S
H113 C120 0.930 . S
H114 C122 0.930 . S
H115 C116 1.016 1_556 S
C116 H115 1.016 1_554 S
C116 N123 1.286 . S
C117 H112 0.930 . S
C117 C118 1.397 . S
C117 C119 1.361 . S
C118 C117 1.397 . S
C118 C122 1.390 . S
C119 C117 1.361 . S
C119 C120 1.393 1_554 S
C119 N123 1.413 . S
C120 H113 0.930 . S
C120 C119 1.393 1_556 S
C120 C121 1.399 . S
C121 C120 1.399 . S
C121 C122 1.381 1_556 S
C122 H114 0.930 . S
C122 C118 1.390 . S
C122 C121 1.381 1_554 S
N123 C116 1.286 . S
N123 C119 1.413 . S
H124 C129 0.930 . S
H125 C132 0.930 . S
H126 C134 0.930 . S
H127 C128 1.016 . S
C128 H127 1.016 . S
C128 N135 1.286 . S
C129 H124 0.930 . S
C129 C130 1.397 . S
C129 C131 1.357 1_455 S
C130 C129 1.397 . S
C130 C134 1.390 . S
C131 C129 1.357 1_655 S
C131 C132 1.391 1_655 S
C131 N135 1.419 . S
C132 H125 0.930 . S
C132 C131 1.391 1_455 S
C132 C133 1.399 . S
C133 C132 1.399 . S
C133 C134 1.381 . S
C134 H126 0.930 . S
C134 C130 1.390 . S
C134 C133 1.381 . S
N135 C128 1.286 . S
N135 C131 1.419 . S
H136 C141 0.930 . S
H137 C144 0.924 1_545 S
H138 C146 0.930 . S
H139 C140 1.016 . S
C140 H139 1.016 . S
C140 N147 1.286 . S
C141 H136 0.930 . S
C141 C142 1.397 . S
C141 C143 1.361 1_565 S
C142 C141 1.397 . S
C142 C146 1.390 . S
C143 C141 1.361 1_545 S
C143 C144 1.393 1_545 S
C143 N147 1.413 . S
C144 H137 0.924 1_565 S
C144 C143 1.393 1_565 S
C144 C145 1.399 . S
C145 C144 1.399 . S
C145 C146 1.381 . S
C146 H138 0.930 . S
C146 C142 1.390 . S
C146 C145 1.381 . S
N147 C140 1.286 . S
N147 C143 1.413 . S
H148 C153 0.930 . S
H149 C156 0.930 . S
H150 C158 0.930 . S
H151 C152 1.016 . S
C152 H151 1.016 . S
C152 N159 1.286 1_554 S
C153 H148 0.930 . S
C153 C154 1.397 . S
C153 C155 1.361 . S
C154 C153 1.397 . S
C154 C158 1.390 1_556 S
C155 C153 1.361 . S
C155 C156 1.393 1_556 S
C155 N159 1.413 . S
C156 H149 0.930 . S
C156 C155 1.393 1_554 S
C156 C157 1.399 . S
C157 C156 1.399 . S
C157 C158 1.381 . S
C158 H150 0.930 . S
C158 C154 1.390 1_554 S
C158 C157 1.381 . S
N159 C152 1.286 1_556 S
N159 C155 1.413 . S
H160 C165 0.930 . S
H161 C168 0.930 1_565 S
H162 C170 0.930 . S
H163 C164 1.016 . S
C164 H163 1.016 . S
C164 N171 1.286 . S
C165 H160 0.930 . S
C165 C166 1.397 . S
C165 C167 1.361 1_545 S
C166 C165 1.397 . S
C166 C170 1.390 . S
C167 C165 1.361 1_565 S
C167 C168 1.393 1_565 S
C167 N171 1.413 . S
C168 H161 0.930 1_545 S
C168 C167 1.393 1_545 S
C168 C169 1.399 . S
C169 C168 1.399 . S
C169 C170 1.381 . S
C170 H162 0.930 . S
C170 C166 1.390 . S
C170 C169 1.381 . S
N171 C164 1.286 . S
N171 C167 1.413 . S
H172 C177 0.930 . S
H173 C180 0.930 . S
H174 C182 0.930 . S
H175 C176 1.019 . S
C176 H175 1.019 . S
C176 N183 1.284 1_556 S
C177 H172 0.930 . S
C177 C178 1.397 . S
C177 C179 1.361 . S
C178 C177 1.397 . S
C178 C182 1.390 . S
C179 C177 1.361 . S
C179 C180 1.393 1_554 S
C179 N183 1.413 . S
C180 H173 0.930 . S
C180 C179 1.393 1_556 S
C180 C181 1.399 . S
C181 C180 1.399 . S
C181 C182 1.381 1_556 S
C182 H174 0.930 . S
C182 C178 1.390 . S
C182 C181 1.381 1_554 S
N183 C176 1.284 1_554 S
N183 C179 1.413 . S
H184 C190 0.930 . S
H185 C194 0.930 . S
H186 C199 0.929 . S
H187 C197 0.929 . S
H188 C192 0.929 . S
H189 C198 0.929 . S
C190 H184 0.930 . S
C190 C191 1.367 . S
C190 C198 1.378 . S
C191 C190 1.367 . S
C191 C199 1.433 . S
C192 H188 0.929 . S
C192 C194 1.378 . S
C192 C196 1.350 . S
C193 C196 1.463 . S
C193 C198 1.350 . S
C193 N201 1.427 . S
C194 H185 0.930 . S
C194 C192 1.378 . S
C194 C195 1.367 . S
C195 C194 1.367 . S
C195 C197 1.433 . S
C196 C192 1.350 . S
C196 C193 1.463 . S
C196 N200 1.427 . S
C197 H187 0.929 . S
C197 C195 1.433 . S
C197 N200 1.384 . S
C198 H189 0.929 . S
C198 C190 1.378 . S
C198 C193 1.350 . S
C199 H186 0.929 . S
C199 C191 1.433 . S
C199 N201 1.384 . S
N200 C196 1.427 . S
N200 C197 1.384 . S
N201 C193 1.427 . S
N201 C199 1.384 . S
H202 C208 0.930 . S
H203 C212 0.930 . S
H204 C217 0.929 . S
H205 C215 0.929 . S
H206 C210 0.929 . S
H207 C216 0.929 . S
C208 H202 0.930 . S
C208 C209 1.367 . S
C208 C216 1.378 . S
C209 C208 1.367 . S
C209 C217 1.433 . S
C210 H206 0.929 . S
C210 C212 1.378 . S
C210 C214 1.350 . S
C211 C214 1.463 . S
C211 C216 1.350 . S
C211 N219 1.427 . S
C212 H203 0.930 . S
C212 C210 1.378 . S
C212 C213 1.367 . S
C213 C212 1.367 . S
C213 C215 1.433 . S
C214 C210 1.350 . S
C214 C211 1.463 . S
C214 N218 1.427 . S
C215 H205 0.929 . S
C215 C213 1.433 . S
C215 N218 1.384 . S
C216 H207 0.929 . S
C216 C208 1.378 . S
C216 C211 1.350 . S
C217 H204 0.929 . S
C217 C209 1.433 . S
C217 N219 1.384 . S
N218 C214 1.427 . S
N218 C215 1.384 . S
N219 C211 1.427 . S
N219 C217 1.384 . S
H220 C226 0.930 . S
H221 C230 0.930 . S
H222 C235 0.929 . S
H223 C233 0.929 . S
H224 C228 0.929 . S
H225 C234 0.929 . S
C226 H220 0.930 . S
C226 C227 1.367 . S
C226 C234 1.378 . S
C227 C226 1.367 . S
C227 C235 1.433 . S
C228 H224 0.929 . S
C228 C230 1.378 . S
C228 C232 1.350 . S
C229 C232 1.463 . S
C229 C234 1.350 . S
C229 N237 1.427 . S
C230 H221 0.930 . S
C230 C228 1.378 . S
C230 C231 1.367 . S
C231 C230 1.367 . S
C231 C233 1.433 . S
C232 C228 1.350 . S
C232 C229 1.463 . S
C232 N236 1.427 . S
C233 H223 0.929 . S
C233 C231 1.433 . S
C233 N236 1.384 . S
C234 H225 0.929 . S
C234 C226 1.378 . S
C234 C229 1.350 . S
C235 H222 0.929 . S
C235 C227 1.433 . S
C235 N237 1.384 . S
N236 C232 1.427 . S
N236 C233 1.384 . S
N237 C229 1.427 . S
N237 C235 1.384 . S
H238 C244 0.930 . S
H239 C248 0.930 . S
H240 C253 0.929 . S
H241 C251 0.929 . S
H242 C246 0.929 . S
H243 C252 0.929 . S
C244 H238 0.930 . S
C244 C245 1.367 . S
C244 C252 1.378 . S
C245 C244 1.367 . S
C245 C253 1.433 . S
C246 H242 0.929 . S
C246 C248 1.378 . S
C246 C250 1.350 . S
C247 C250 1.463 . S
C247 C252 1.350 . S
C247 N255 1.427 . S
C248 H239 0.930 . S
C248 C246 1.378 . S
C248 C249 1.367 . S
C249 C248 1.367 . S
C249 C251 1.433 . S
C250 C246 1.350 . S
C250 C247 1.463 . S
C250 N254 1.427 . S
C251 H241 0.929 . S
C251 C249 1.433 . S
C251 N254 1.384 . S
C252 H243 0.929 . S
C252 C244 1.378 . S
C252 C247 1.350 . S
C253 H240 0.929 . S
C253 C245 1.433 . S
C253 N255 1.384 . S
N254 C250 1.427 . S
N254 C251 1.384 . S
N255 C247 1.427 . S
N255 C253 1.384 . S
H256 C262 0.930 . S
H257 C266 0.930 . S
H258 C271 0.929 . S
H259 C269 0.929 . S
H260 C264 0.929 . S
H261 C270 0.929 . S
C262 H256 0.930 . S
C262 C263 1.367 . S
C262 C270 1.378 . S
C263 C262 1.367 . S
C263 C271 1.433 . S
C264 H260 0.929 . S
C264 C266 1.378 . S
C264 C268 1.350 . S
C265 C268 1.463 . S
C265 C270 1.350 . S
C265 N273 1.427 . S
C266 H257 0.930 . S
C266 C264 1.378 . S
C266 C267 1.367 . S
C267 C266 1.367 . S
C267 C269 1.433 . S
C268 C264 1.350 . S
C268 C265 1.463 . S
C268 N272 1.427 . S
C269 H259 0.929 . S
C269 C267 1.433 . S
C269 N272 1.384 . S
C270 H261 0.929 . S
C270 C262 1.378 . S
C270 C265 1.350 . S
C271 H258 0.929 . S
C271 C263 1.433 . S
C271 N273 1.384 . S
N272 C268 1.427 . S
N272 C269 1.384 . S
N273 C265 1.427 . S
N273 C271 1.384 . S
H274 C280 0.930 . S
H275 C284 0.930 . S
H276 C289 0.929 . S
H277 C287 0.929 . S
H278 C282 0.929 . S
H279 C288 0.929 . S
C280 H274 0.930 . S
C280 C281 1.367 . S
C280 C288 1.378 . S
C281 C280 1.367 . S
C281 C289 1.433 . S
C282 H278 0.929 . S
C282 C284 1.378 . S
C282 C286 1.350 . S
C283 C286 1.463 . S
C283 C288 1.350 . S
C283 N291 1.427 . S
C284 H275 0.930 . S
C284 C282 1.378 . S
C284 C285 1.367 . S
C285 C284 1.367 . S
C285 C287 1.433 . S
C286 C282 1.350 . S
C286 C283 1.463 . S
C286 N290 1.427 . S
C287 H277 0.929 . S
C287 C285 1.433 . S
C287 N290 1.384 . S
C288 H279 0.929 . S
C288 C280 1.378 . S
C288 C283 1.350 . S
C289 H276 0.929 . S
C289 C281 1.433 . S
C289 N291 1.384 . S
N290 C286 1.427 . S
N290 C287 1.384 . S
N291 C283 1.427 . S
N291 C289 1.384 . S
H292 C298 0.930 . S
H293 C302 0.930 . S
H294 C307 0.929 . S
H295 C305 0.929 . S
H296 C300 0.929 . S
H297 C306 0.929 . S
C298 H292 0.930 . S
C298 C299 1.367 . S
C298 C306 1.378 . S
C299 C298 1.367 . S
C299 C307 1.433 . S
C300 H296 0.929 . S
C300 C302 1.378 . S
C300 C304 1.350 . S
C301 C304 1.463 . S
C301 C306 1.350 . S
C301 N309 1.427 . S
C302 H293 0.930 . S
C302 C300 1.378 . S
C302 C303 1.367 . S
C303 C302 1.367 . S
C303 C305 1.433 . S
C304 C300 1.350 . S
C304 C301 1.463 . S
C304 N308 1.427 . S
C305 H295 0.929 . S
C305 C303 1.433 . S
C305 N308 1.384 . S
C306 H297 0.929 . S
C306 C298 1.378 . S
C306 C301 1.350 . S
C307 H294 0.929 . S
C307 C299 1.433 . S
C307 N309 1.384 . S
N308 C304 1.427 . S
N308 C305 1.384 . S
N309 C301 1.427 . S
N309 C307 1.384 . S
H310 C316 0.930 . S
H311 C320 0.930 . S
H312 C325 0.929 . S
H313 C323 0.929 . S
H314 C318 0.929 . S
H315 C324 0.929 . S
C316 H310 0.930 . S
C316 C317 1.367 . S
C316 C324 1.378 . S
C317 C316 1.367 . S
C317 C325 1.433 . S
C318 H314 0.929 . S
C318 C320 1.378 . S
C318 C322 1.350 . S
C319 C322 1.463 . S
C319 C324 1.350 . S
C319 N327 1.427 . S
C320 H311 0.930 . S
C320 C318 1.378 . S
C320 C321 1.367 . S
C321 C320 1.367 . S
C321 C323 1.433 . S
C322 C318 1.350 . S
C322 C319 1.463 . S
C322 N326 1.427 . S
C323 H313 0.929 . S
C323 C321 1.433 . S
C323 N326 1.384 . S
C324 H315 0.929 . S
C324 C316 1.378 . S
C324 C319 1.350 . S
C325 H312 0.929 . S
C325 C317 1.433 . S
C325 N327 1.384 . S
N326 C322 1.427 . S
N326 C323 1.384 . S
N327 C319 1.427 . S
N327 C325 1.384 . S
H328 C334 0.930 . S
H329 C338 0.930 . S
H330 C343 0.929 . S
H331 C341 0.929 . S
H332 C336 0.929 . S
H333 C342 0.929 . S
C334 H328 0.930 . S
C334 C335 1.367 . S
C334 C342 1.378 . S
C335 C334 1.367 . S
C335 C343 1.433 . S
C336 H332 0.929 . S
C336 C338 1.378 . S
C336 C340 1.350 . S
C337 C340 1.463 . S
C337 C342 1.350 . S
C337 N345 1.427 . S
C338 H329 0.930 . S
C338 C336 1.378 . S
C338 C339 1.367 . S
C339 C338 1.367 . S
C339 C341 1.433 . S
C340 C336 1.350 . S
C340 C337 1.463 . S
C340 N344 1.427 . S
C341 H331 0.929 . S
C341 C339 1.433 . S
C341 N344 1.384 . S
C342 H333 0.929 . S
C342 C334 1.378 . S
C342 C337 1.350 . S
C343 H330 0.929 . S
C343 C335 1.433 . S
C343 N345 1.384 . S
N344 C340 1.427 . S
N344 C341 1.384 . S
N345 C337 1.427 . S
N345 C343 1.384 . S
H346 C352 0.930 . S
H347 C356 0.930 . S
H348 C361 0.929 . S
H349 C359 0.929 . S
H350 C354 0.929 . S
H351 C360 0.929 . S
C352 H346 0.930 . S
C352 C353 1.367 . S
C352 C360 1.378 . S
C353 C352 1.367 . S
C353 C361 1.433 . S
C354 H350 0.929 . S
C354 C356 1.378 . S
C354 C358 1.350 . S
C355 C358 1.463 . S
C355 C360 1.350 . S
C355 N363 1.427 . S
C356 H347 0.930 . S
C356 C354 1.378 . S
C356 C357 1.367 . S
C357 C356 1.367 . S
C357 C359 1.433 . S
C358 C354 1.350 . S
C358 C355 1.463 . S
C358 N362 1.427 . S
C359 H349 0.929 . S
C359 C357 1.433 . S
C359 N362 1.384 . S
C360 H351 0.929 . S
C360 C352 1.378 . S
C360 C355 1.350 . S
C361 H348 0.929 . S
C361 C353 1.433 . S
C361 N363 1.384 . S
N362 C358 1.427 . S
N362 C359 1.384 . S
N363 C355 1.427 . S
N363 C361 1.384 . S
H364 C370 0.930 . S
H365 C374 0.930 . S
H366 C379 0.929 . S
H367 C377 0.929 . S
H368 C372 0.929 . S
H369 C378 0.929 . S
C370 H364 0.930 . S
C370 C371 1.367 . S
C370 C378 1.378 . S
C371 C370 1.367 . S
C371 C379 1.433 . S
C372 H368 0.929 . S
C372 C374 1.378 . S
C372 C376 1.350 . S
C373 C376 1.463 . S
C373 C378 1.350 . S
C373 N381 1.427 . S
C374 H365 0.930 . S
C374 C372 1.378 . S
C374 C375 1.367 . S
C375 C374 1.367 . S
C375 C377 1.433 . S
C376 C372 1.350 . S
C376 C373 1.463 . S
C376 N380 1.427 . S
C377 H367 0.929 . S
C377 C375 1.433 . S
C377 N380 1.384 . S
C378 H369 0.929 . S
C378 C370 1.378 . S
C378 C373 1.350 . S
C379 H366 0.929 . S
C379 C371 1.433 . S
C379 N381 1.384 . S
N380 C376 1.427 . S
N380 C377 1.384 . S
N381 C373 1.427 . S
N381 C379 1.384 . S
H382 C388 0.930 . S
H383 C392 0.930 . S
H384 C397 0.929 . S
H385 C395 0.929 . S
H386 C390 0.929 . S
H387 C396 0.929 . S
C388 H382 0.930 . S
C388 C389 1.367 . S
C388 C396 1.378 . S
C389 C388 1.367 . S
C389 C397 1.433 . S
C390 H386 0.929 . S
C390 C392 1.378 . S
C390 C394 1.350 . S
C391 C394 1.463 . S
C391 C396 1.350 . S
C391 N399 1.427 . S
C392 H383 0.930 . S
C392 C390 1.378 . S
C392 C393 1.367 . S
C393 C392 1.367 . S
C393 C395 1.433 . S
C394 C390 1.350 . S
C394 C391 1.463 . S
C394 N398 1.427 . S
C395 H385 0.929 . S
C395 C393 1.433 . S
C395 N398 1.384 . S
C396 H387 0.929 . S
C396 C388 1.378 . S
C396 C391 1.350 . S
C397 H384 0.929 . S
C397 C389 1.433 . S
C397 N399 1.384 . S
N398 C394 1.427 . S
N398 C395 1.384 . S
N399 C391 1.427 . S
N399 C397 1.384 . S
H400 C406 0.930 . S
H401 C410 0.930 . S
H402 C415 0.929 . S
H403 C413 0.929 . S
H404 C408 0.929 . S
H405 C414 0.929 . S
C406 H400 0.930 . S
C406 C407 1.367 . S
C406 C414 1.378 . S
C407 C406 1.367 . S
C407 C415 1.433 . S
C408 H404 0.929 . S
C408 C410 1.378 . S
C408 C412 1.350 . S
C409 C412 1.463 . S
C409 C414 1.350 . S
C409 N417 1.427 . S
C410 H401 0.930 . S
C410 C408 1.378 . S
C410 C411 1.367 . S
C411 C410 1.367 . S
C411 C413 1.433 . S
C412 C408 1.350 . S
C412 C409 1.463 . S
C412 N416 1.427 . S
C413 H403 0.929 . S
C413 C411 1.433 . S
C413 N416 1.384 . S
C414 H405 0.929 . S
C414 C406 1.378 . S
C414 C409 1.350 . S
C415 H402 0.929 . S
C415 C407 1.433 . S
C415 N417 1.384 . S
N416 C412 1.427 . S
N416 C413 1.384 . S
N417 C409 1.427 . S
N417 C415 1.384 . S
H418 C424 0.930 . S
H419 C428 0.930 . S
H420 C433 0.929 . S
H421 C431 0.929 . S
H422 C426 0.929 . S
H423 C432 0.929 . S
C424 H418 0.930 . S
C424 C425 1.367 . S
C424 C432 1.378 . S
C425 C424 1.367 . S
C425 C433 1.433 . S
C426 H422 0.929 . S
C426 C428 1.378 . S
C426 C430 1.350 . S
C427 C430 1.463 . S
C427 C432 1.350 . S
C427 N435 1.427 . S
C428 H419 0.930 . S
C428 C426 1.378 . S
C428 C429 1.367 . S
C429 C428 1.367 . S
C429 C431 1.433 . S
C430 C426 1.350 . S
C430 C427 1.463 . S
C430 N434 1.427 . S
C431 H421 0.929 . S
C431 C429 1.433 . S
C431 N434 1.384 . S
C432 H423 0.929 . S
C432 C424 1.378 . S
C432 C427 1.350 . S
C433 H420 0.929 . S
C433 C425 1.433 . S
C433 N435 1.384 . S
N434 C430 1.427 . S
N434 C431 1.384 . S
N435 C427 1.427 . S
N435 C433 1.384 . S
H436 C442 0.930 . S
H437 C446 0.930 . S
H438 C451 0.929 . S
H439 C449 0.929 . S
H440 C444 0.929 . S
H441 C450 0.929 . S
C442 H436 0.930 . S
C442 C443 1.367 . S
C442 C450 1.378 . S
C443 C442 1.367 . S
C443 C451 1.433 . S
C444 H440 0.929 . S
C444 C446 1.378 . S
C444 C448 1.350 . S
C445 C448 1.463 . S
C445 C450 1.350 . S
C445 N453 1.427 . S
C446 H437 0.930 . S
C446 C444 1.378 . S
C446 C447 1.367 . S
C447 C446 1.367 . S
C447 C449 1.433 . S
C448 C444 1.350 . S
C448 C445 1.463 . S
C448 N452 1.427 . S
C449 H439 0.929 . S
C449 C447 1.433 . S
C449 N452 1.384 . S
C450 H441 0.929 . S
C450 C442 1.378 . S
C450 C445 1.350 . S
C451 H438 0.929 . S
C451 C443 1.433 . S
C451 N453 1.384 . S
N452 C448 1.427 . S
N452 C449 1.384 . S
N453 C445 1.427 . S
N453 C451 1.384 . S
H454 C460 0.930 . S
H455 C464 0.930 . S
H456 C469 0.929 . S
H457 C467 0.929 . S
H458 C462 0.929 . S
H459 C468 0.929 . S
C460 H454 0.930 . S
C460 C461 1.367 . S
C460 C468 1.378 . S
C461 C460 1.367 . S
C461 C469 1.433 . S
C462 H458 0.929 . S
C462 C464 1.378 . S
C462 C466 1.350 . S
C463 C466 1.463 . S
C463 C468 1.350 . S
C463 N471 1.427 . S
C464 H455 0.930 . S
C464 C462 1.378 . S
C464 C465 1.367 . S
C465 C464 1.367 . S
C465 C467 1.433 . S
C466 C462 1.350 . S
C466 C463 1.463 . S
C466 N470 1.427 . S
C467 H457 0.929 . S
C467 C465 1.433 . S
C467 N470 1.384 . S
C468 H459 0.929 . S
C468 C460 1.378 . S
C468 C463 1.350 . S
C469 H456 0.929 . S
C469 C461 1.433 . S
C469 N471 1.384 . S
N470 C466 1.427 . S
N470 C467 1.384 . S
N471 C463 1.427 . S
N471 C469 1.384 . S
H472 C478 0.930 . S
H473 C482 0.930 . S
H474 C487 0.929 . S
H475 C485 0.929 . S
H476 C480 0.929 . S
H477 C486 0.929 . S
C478 H472 0.930 . S
C478 C479 1.367 . S
C478 C486 1.378 . S
C479 C478 1.367 . S
C479 C487 1.433 1_554 S
C480 H476 0.929 . S
C480 C482 1.378 . S
C480 C484 1.350 1_556 S
C481 C484 1.463 . S
C481 C486 1.350 . S
C481 N489 1.427 1_554 S
C482 H473 0.930 . S
C482 C480 1.378 . S
C482 C483 1.367 1_556 S
C483 C482 1.367 1_554 S
C483 C485 1.433 . S
C484 C480 1.350 1_554 S
C484 C481 1.463 . S
C484 N488 1.427 . S
C485 H475 0.929 . S
C485 C483 1.433 . S
C485 N488 1.384 . S
C486 H477 0.929 . S
C486 C478 1.378 . S
C486 C481 1.350 . S
C487 H474 0.929 . S
C487 C479 1.433 1_556 S
C487 N489 1.384 . S
N488 C484 1.427 . S
N488 C485 1.384 . S
N489 C481 1.427 1_556 S
N489 C487 1.384 . S
H490 C496 0.930 . S
H491 C500 0.930 . S
H492 C505 0.929 . S
H493 C503 0.929 . S
H494 C498 0.929 . S
H495 C504 0.929 . S
C496 H490 0.930 . S
C496 C497 1.367 . S
C496 C504 1.378 . S
C497 C496 1.367 . S
C497 C505 1.433 . S
C498 H494 0.929 . S
C498 C500 1.378 . S
C498 C502 1.350 . S
C499 C502 1.463 . S
C499 C504 1.350 . S
C499 N507 1.427 . S
C500 H491 0.930 . S
C500 C498 1.378 . S
C500 C501 1.367 . S
C501 C500 1.367 . S
C501 C503 1.433 . S
C502 C498 1.350 . S
C502 C499 1.463 . S
C502 N506 1.427 . S
C503 H493 0.929 . S
C503 C501 1.433 . S
C503 N506 1.384 . S
C504 H495 0.929 . S
C504 C496 1.378 . S
C504 C499 1.350 . S
C505 H492 0.929 . S
C505 C497 1.433 . S
C505 N507 1.384 . S
N506 C502 1.427 . S
N506 C503 1.384 . S
N507 C499 1.427 . S
N507 C505 1.384 . S
H508 C514 0.930 . S
H509 C518 0.930 . S
H510 C523 0.929 . S
H511 C521 0.929 . S
H512 C516 0.929 . S
H513 C522 0.929 . S
C514 H508 0.930 . S
C514 C515 1.367 . S
C514 C522 1.378 . S
C515 C514 1.367 . S
C515 C523 1.433 1_554 S
C516 H512 0.929 . S
C516 C518 1.378 . S
C516 C520 1.350 1_556 S
C517 C520 1.463 . S
C517 C522 1.350 . S
C517 N525 1.427 1_554 S
C518 H509 0.930 . S
C518 C516 1.378 . S
C518 C519 1.367 1_556 S
C519 C518 1.367 1_554 S
C519 C521 1.433 . S
C520 C516 1.350 1_554 S
C520 C517 1.463 . S
C520 N524 1.427 . S
C521 H511 0.929 . S
C521 C519 1.433 . S
C521 N524 1.384 . S
C522 H513 0.929 . S
C522 C514 1.378 . S
C522 C517 1.350 . S
C523 H510 0.929 . S
C523 C515 1.433 1_556 S
C523 N525 1.384 . S
N524 C520 1.427 . S
N524 C521 1.384 . S
N525 C517 1.427 1_556 S
N525 C523 1.384 . S
H526 C532 0.930 . S
H527 C536 0.930 . S
H528 C541 0.929 . S
H529 C539 0.929 . S
H530 C534 0.929 . S
H531 C540 0.929 . S
C532 H526 0.930 . S
C532 C533 1.367 . S
C532 C540 1.378 . S
C533 C532 1.367 . S
C533 C541 1.433 . S
C534 H530 0.929 . S
C534 C536 1.378 . S
C534 C538 1.350 . S
C535 C538 1.463 . S
C535 C540 1.350 . S
C535 N543 1.427 . S
C536 H527 0.930 . S
C536 C534 1.378 . S
C536 C537 1.367 . S
C537 C536 1.367 . S
C537 C539 1.433 . S
C538 C534 1.350 . S
C538 C535 1.463 . S
C538 N542 1.427 . S
C539 H529 0.929 . S
C539 C537 1.433 . S
C539 N542 1.384 . S
C540 H531 0.929 . S
C540 C532 1.378 . S
C540 C535 1.350 . S
C541 H528 0.929 . S
C541 C533 1.433 . S
C541 N543 1.384 . S
N542 C538 1.427 . S
N542 C539 1.384 . S
N543 C535 1.427 . S
N543 C541 1.384 . S
H544 C550 0.930 . S
H545 C554 0.930 . S
H546 C559 0.929 . S
H547 C557 0.929 . S
H548 C552 0.929 . S
H549 C558 0.929 . S
C550 H544 0.930 . S
C550 C551 1.367 . S
C550 C558 1.378 . S
C551 C550 1.367 . S
C551 C559 1.433 . S
C552 H548 0.929 . S
C552 C554 1.378 . S
C552 C556 1.350 . S
C553 C556 1.463 . S
C553 C558 1.350 . S
C553 N561 1.427 . S
C554 H545 0.930 . S
C554 C552 1.378 . S
C554 C555 1.367 . S
C555 C554 1.367 . S
C555 C557 1.433 . S
C556 C552 1.350 . S
C556 C553 1.463 . S
C556 N560 1.427 . S
C557 H547 0.929 . S
C557 C555 1.433 . S
C557 N560 1.384 . S
C558 H549 0.929 . S
C558 C550 1.378 . S
C558 C553 1.350 . S
C559 H546 0.929 . S
C559 C551 1.433 . S
C559 N561 1.384 . S
N560 C556 1.427 . S
N560 C557 1.384 . S
N561 C553 1.427 . S
N561 C559 1.384 . S
H562 C568 0.930 . S
H563 C572 0.930 . S
H564 C577 0.929 . S
H565 C575 0.929 . S
H566 C570 0.929 . S
H567 C576 0.929 . S
C568 H562 0.930 . S
C568 C569 1.367 1_556 S
C568 C576 1.378 . S
C569 C568 1.367 1_554 S
C569 C577 1.433 . S
C570 H566 0.929 . S
C570 C572 1.378 . S
C570 C574 1.350 . S
C571 C574 1.463 . S
C571 C576 1.350 1_554 S
C571 N579 1.427 . S
C572 H563 0.930 . S
C572 C570 1.378 . S
C572 C573 1.367 . S
C573 C572 1.367 . S
C573 C575 1.433 1_554 S
C574 C570 1.350 . S
C574 C571 1.463 . S
C574 N578 1.427 1_554 S
C575 H565 0.929 . S
C575 C573 1.433 1_556 S
C575 N578 1.384 . S
C576 H567 0.929 . S
C576 C568 1.378 . S
C576 C571 1.350 1_556 S
C577 H564 0.929 . S
C577 C569 1.433 . S
C577 N579 1.384 . S
N578 C574 1.427 1_556 S
N578 C575 1.384 . S
N579 C571 1.427 . S
N579 C577 1.384 . S
H580 C586 0.930 . S
H581 C590 0.930 . S
H582 C595 0.929 . S
H583 C593 0.929 . S
H584 C588 0.929 . S
H585 C594 0.929 . S
C586 H580 0.930 . S
C586 C587 1.367 . S
C586 C594 1.378 . S
C587 C586 1.367 . S
C587 C595 1.433 . S
C588 H584 0.929 . S
C588 C590 1.378 . S
C588 C592 1.350 . S
C589 C592 1.463 . S
C589 C594 1.350 . S
C589 N597 1.427 . S
C590 H581 0.930 . S
C590 C588 1.378 . S
C590 C591 1.367 . S
C591 C590 1.367 . S
C591 C593 1.433 . S
C592 C588 1.350 . S
C592 C589 1.463 . S
C592 N596 1.427 . S
C593 H583 0.929 . S
C593 C591 1.433 . S
C593 N596 1.384 . S
C594 H585 0.929 . S
C594 C586 1.378 . S
C594 C589 1.350 . S
C595 H582 0.929 . S
C595 C587 1.433 . S
C595 N597 1.384 . S
N596 C592 1.427 . S
N596 C593 1.384 . S
N597 C589 1.427 . S
N597 C595 1.384 . S
H598 C604 0.930 . S
H599 C608 0.930 . S
H600 C613 0.929 . S
H601 C611 0.929 . S
H602 C606 0.929 . S
H603 C612 0.929 . S
C604 H598 0.930 . S
C604 C605 1.367 1_556 S
C604 C612 1.378 . S
C605 C604 1.367 1_554 S
C605 C613 1.433 . S
C606 H602 0.929 . S
C606 C608 1.378 . S
C606 C610 1.350 . S
C607 C610 1.463 . S
C607 C612 1.350 1_554 S
C607 N615 1.427 . S
C608 H599 0.930 . S
C608 C606 1.378 . S
C608 C609 1.367 . S
C609 C608 1.367 . S
C609 C611 1.433 1_554 S
C610 C606 1.350 . S
C610 C607 1.463 . S
C610 N614 1.427 1_554 S
C611 H601 0.929 . S
C611 C609 1.433 1_556 S
C611 N614 1.384 . S
C612 H603 0.929 . S
C612 C604 1.378 . S
C612 C607 1.350 1_556 S
C613 H600 0.929 . S
C613 C605 1.433 . S
C613 N615 1.384 . S
N614 C610 1.427 1_556 S
N614 C611 1.384 . S
N615 C607 1.427 . S
N615 C613 1.384 . S
C191 C21 1.490 . S
C195 C130 1.497 . S
C209 C40 1.493 . S
C213 C94 1.483 . S
C231 C109 1.446 . S
C227 C54 1.472 . S
C245 C73 1.523 . S
C249 C121 1.506 . S
C267 C157 1.444 . S
C263 C74 1.460 . S
C285 C169 1.483 . S
C281 C10 1.508 . S
C303 C178 1.502 . S
C299 C37 1.501 . S
C321 C142 1.513 . S
C317 C65 1.502 . S
C335 C52 1.445 . S
C339 C106 1.439 . S
C353 C87 1.513 . S
C357 C118 1.506 . S
C371 C15 1.515 . S
C375 C133 1.507 . S
C393 C97 1.469 . S
C389 C32 1.499 . S
C407 C29 1.505 . S
C411 C181 1.500 . S
C429 C145 1.521 . S
C425 C59 1.527 . S
C447 C154 1.446 . S
C443 C84 1.452 . S
C461 C8 1.481 . S
C465 C166 1.462 . S
C483 C92 1.521 . S
C479 C7 1.532 . S
C501 C104 1.483 . S
C497 C30 1.487 . S
C515 C62 1.532 . S
C519 C116 1.522 . S
C533 C81 1.500 . S
C537 C128 1.509 . S
C555 C140 1.513 . S
C551 C76 1.532 . S
C569 C18 1.484 . S
C573 C152 1.477 . S
C587 C43 1.531 . S
C591 C164 1.531 . S
C605 C51 1.502 . S
C609 C176 1.512 1_554 S
