# Generated by pormake.
# Topology pto, (3,4)-cn, num edge types: 1
# Building blocks:
#     Node 0, Type 0, BuildingBlock: MIDCAF_clean_linker_0, # of connection points: 3
#     Node 1, Type 0, BuildingBlock: MIDCAF_clean_linker_0, # of connection points: 3
#     Node 2, Type 0, BuildingBlock: MIDCAF_clean_linker_0, # of connection points: 3
#     Node 3, Type 0, BuildingBlock: MIDCAF_clean_linker_0, # of connection points: 3
#     Node 4, Type 0, BuildingBlock: MIDCAF_clean_linker_0, # of connection points: 3
#     Node 5, Type 0, BuildingBlock: MIDCAF_clean_linker_0, # of connection points: 3
#     Node 6, Type 0, BuildingBlock: MIDCAF_clean_linker_0, # of connection points: 3
#     Node 7, Type 0, BuildingBlock: MIDCAF_clean_linker_0, # of connection points: 3
#     Node 8, Type 1, BuildingBlock: NAWXER_clean_sbu_0, # of connection points: 4
#     Node 9, Type 1, BuildingBlock: NAWXER_clean_sbu_0, # of connection points: 4
#     Node 10, Type 1, BuildingBlock: NAWXER_clean_sbu_0, # of connection points: 4
#     Node 11, Type 1, BuildingBlock: NAWXER_clean_sbu_0, # of connection points: 4
#     Node 12, Type 1, BuildingBlock: NAWXER_clean_sbu_0, # of connection points: 4
#     Node 13, Type 1, BuildingBlock: NAWXER_clean_sbu_0, # of connection points: 4
#     Edge 14, Type (0, 1), BuildingBlock: TEMPAE_clean_linker_10, # of connection points: 2
#     Edge 15, Type (0, 1), BuildingBlock: TEMPAE_clean_linker_10, # of connection points: 2
#     Edge 16, Type (0, 1), BuildingBlock: TEMPAE_clean_linker_10, # of connection points: 2
#     Edge 17, Type (0, 1), BuildingBlock: TEMPAE_clean_linker_10, # of connection points: 2
#     Edge 18, Type (0, 1), BuildingBlock: TEMPAE_clean_linker_10, # of connection points: 2
#     Edge 19, Type (0, 1), BuildingBlock: TEMPAE_clean_linker_10, # of connection points: 2
#     Edge 20, Type (0, 1), BuildingBlock: TEMPAE_clean_linker_10, # of connection points: 2
#     Edge 21, Type (0, 1), BuildingBlock: TEMPAE_clean_linker_10, # of connection points: 2
#     Edge 22, Type (0, 1), BuildingBlock: TEMPAE_clean_linker_10, # of connection points: 2
#     Edge 23, Type (0, 1), BuildingBlock: TEMPAE_clean_linker_10, # of connection points: 2
#     Edge 24, Type (0, 1), BuildingBlock: TEMPAE_clean_linker_10, # of connection points: 2
#     Edge 25, Type (0, 1), BuildingBlock: TEMPAE_clean_linker_10, # of connection points: 2
#     Edge 26, Type (0, 1), BuildingBlock: TEMPAE_clean_linker_10, # of connection points: 2
#     Edge 27, Type (0, 1), BuildingBlock: TEMPAE_clean_linker_10, # of connection points: 2
#     Edge 28, Type (0, 1), BuildingBlock: TEMPAE_clean_linker_10, # of connection points: 2
#     Edge 29, Type (0, 1), BuildingBlock: TEMPAE_clean_linker_10, # of connection points: 2
#     Edge 30, Type (0, 1), BuildingBlock: TEMPAE_clean_linker_10, # of connection points: 2
#     Edge 31, Type (0, 1), BuildingBlock: TEMPAE_clean_linker_10, # of connection points: 2
#     Edge 32, Type (0, 1), BuildingBlock: TEMPAE_clean_linker_10, # of connection points: 2
#     Edge 33, Type (0, 1), BuildingBlock: TEMPAE_clean_linker_10, # of connection points: 2
#     Edge 34, Type (0, 1), BuildingBlock: TEMPAE_clean_linker_10, # of connection points: 2
#     Edge 35, Type (0, 1), BuildingBlock: TEMPAE_clean_linker_10, # of connection points: 2
#     Edge 36, Type (0, 1), BuildingBlock: TEMPAE_clean_linker_10, # of connection points: 2
#     Edge 37, Type (0, 1), BuildingBlock: TEMPAE_clean_linker_10, # of connection points: 2
# Relax obj value: 0.000
# Max RMSD: 0.002
# Mean RMSD: 0.001
data_MOF--net-pto--node1-NAWXER_clean_sbu_0--node2-MIDCAF_clean_linker_0--edge1-TEMPAE_clean_linker_10
_symmetry_space_group_name_H-M    P1
_symmetry_Int_Tables_number       1
_symmetry_cell_setting            triclinic
loop_
_symmetry_equiv_pos_as_xyz
'x, y, z'
_cell_length_a     54.379178
_cell_length_b     51.052921
_cell_length_c     47.662468
_cell_angle_alpha  89.751146
_cell_angle_beta   90.116773
_cell_angle_gamma 90.166864
loop_
_atom_site_label
_atom_site_type_symbol
_atom_site_fract_x
_atom_site_fract_y
_atom_site_fract_z
_atom_type_partial_charge
C0 C 0.32817 0.27237 0.20439 0.0
C1 C 0.32831 0.29402 0.18608 0.0
C2 C 0.30854 0.31168 0.18692 0.0
C3 C 0.28902 0.3077 0.20557 0.0
H4 H 0.22431 0.34154 0.23449 0.0
H5 H 0.19027 0.37238 0.23831 0.0
H6 H 0.15853 0.32524 0.30448 0.0
H7 H 0.19209 0.29425 0.30045 0.0
H8 H 0.21369 0.24177 0.31654 0.0
H9 H 0.2094 0.20087 0.34234 0.0
H10 H 0.27039 0.16831 0.29647 0.0
H11 H 0.27469 0.20931 0.27023 0.0
H12 H 0.30908 0.25125 0.23651 0.0
H13 H 0.34298 0.25824 0.20401 0.0
H14 H 0.30821 0.32866 0.17322 0.0
H15 H 0.27408 0.32167 0.20555 0.0
N16 N 0.24993 0.29968 0.24613 0.0
N17 N 0.22939 0.27262 0.27829 0.0
N18 N 0.26602 0.25835 0.25775 0.0
C19 C 0.2307 0.29551 0.26381 0.0
C20 C 0.24685 0.25393 0.27542 0.0
C21 C 0.26775 0.28122 0.24306 0.0
C22 C 0.21091 0.31524 0.26697 0.0
C23 C 0.21016 0.33781 0.24996 0.0
C24 C 0.1907 0.35557 0.25224 0.0
C25 C 0.17161 0.35116 0.27159 0.0
C26 C 0.17272 0.32897 0.28904 0.0
C27 C 0.19208 0.31124 0.28676 0.0
C28 C 0.24459 0.22894 0.29126 0.0
C29 C 0.22624 0.22596 0.31182 0.0
C30 C 0.2238 0.20253 0.32675 0.0
C31 C 0.23956 0.1814 0.32145 0.0
C32 C 0.25783 0.1842 0.30081 0.0
C33 C 0.26039 0.20776 0.28593 0.0
C34 C 0.28872 0.28584 0.22367 0.0
C35 C 0.3086 0.26828 0.22289 0.0
C36 C 0.19135 0.68747 0.81257 0.0
C37 C 0.17833 0.67695 0.78976 0.0
C38 C 0.18268 0.68673 0.7627 0.0
C39 C 0.19968 0.70685 0.75842 0.0
H40 H 0.20267 0.78425 0.72099 0.0
H41 H 0.19606 0.81392 0.68144 0.0
H42 H 0.27372 0.83136 0.67926 0.0
H43 H 0.28048 0.80185 0.71915 0.0
H44 H 0.31571 0.77111 0.77085 0.0
H45 H 0.35255 0.77206 0.79992 0.0
H46 H 0.30826 0.75483 0.87313 0.0
H47 H 0.27191 0.7519 0.84347 0.0
H48 H 0.21884 0.71498 0.82605 0.0
H49 H 0.18819 0.68014 0.83362 0.0
H50 H 0.17272 0.67894 0.74486 0.0
H51 H 0.2026 0.71398 0.73724 0.0
N52 N 0.22875 0.75429 0.75346 0.0
N53 N 0.26618 0.77491 0.76407 0.0
N54 N 0.25134 0.74089 0.7929 0.0
C55 C 0.24591 0.77281 0.74746 0.0
C56 C 0.2689 0.75911 0.78693 0.0
C57 C 0.23136 0.7382 0.77599 0.0
C58 C 0.24214 0.79067 0.72324 0.0
C59 C 0.2184 0.79433 0.71208 0.0
C60 C 0.21454 0.8114 0.68953 0.0
C61 C 0.23437 0.82485 0.67734 0.0
C62 C 0.25815 0.82104 0.68821 0.0
C63 C 0.26197 0.80428 0.71111 0.0
C64 C 0.291 0.76128 0.80489 0.0
C65 C 0.31395 0.76756 0.79319 0.0
C66 C 0.33507 0.76829 0.80999 0.0
C67 C 0.33366 0.76346 0.8391 0.0
C68 C 0.31041 0.75795 0.85079 0.0
C69 C 0.28944 0.75649 0.83384 0.0
C70 C 0.21305 0.71725 0.78108 0.0
C71 C 0.20885 0.70727 0.80821 0.0
C72 C 0.69953 0.73718 0.18318 0.0
C73 C 0.68094 0.75625 0.18355 0.0
C74 C 0.68154 0.7755 0.20453 0.0
C75 C 0.70045 0.77586 0.22449 0.0
H76 H 0.72621 0.81359 0.29928 0.0
H77 H 0.7317 0.84974 0.33237 0.0
H78 H 0.80912 0.83228 0.3383 0.0
H79 H 0.80372 0.79593 0.3057 0.0
H80 H 0.81418 0.73341 0.30064 0.0
H81 H 0.84359 0.69782 0.30388 0.0
H82 H 0.80595 0.65732 0.23694 0.0
H83 H 0.77607 0.69279 0.2339 0.0
H84 H 0.73236 0.72243 0.20219 0.0
H85 H 0.69942 0.7219 0.16748 0.0
H86 H 0.66758 0.79058 0.20525 0.0
H87 H 0.70039 0.79111 0.24021 0.0
N88 N 0.7422 0.77825 0.26248 0.0
N89 N 0.77743 0.75908 0.28206 0.0
N90 N 0.75593 0.73741 0.24637 0.0
C91 C 0.76123 0.77921 0.28099 0.0
C92 C 0.77489 0.73803 0.265 0.0
C93 C 0.7395 0.75745 0.24493 0.0
C94 C 0.7645 0.80184 0.29996 0.0
C95 C 0.74441 0.81754 0.30754 0.0
C96 C 0.74751 0.83811 0.32654 0.0
C97 C 0.77083 0.84369 0.33783 0.0
C98 C 0.79099 0.82842 0.32978 0.0
C99 C 0.78783 0.80756 0.31123 0.0
C100 C 0.79271 0.7161 0.26691 0.0
C101 C 0.81205 0.71695 0.28657 0.0
C102 C 0.82903 0.69657 0.28839 0.0
C103 C 0.82717 0.67478 0.27063 0.0
C104 C 0.80773 0.67372 0.25115 0.0
C105 C 0.7907 0.69416 0.24929 0.0
C106 C 0.71913 0.75684 0.22408 0.0
C107 C 0.71834 0.73742 0.20323 0.0
C108 C 0.78611 0.20214 0.71677 0.0
C109 C 0.76511 0.19242 0.70314 0.0
C110 C 0.74215 0.20377 0.70882 0.0
C111 C 0.74024 0.22452 0.7278 0.0
H112 H 0.6914 0.26191 0.78449 0.0
H113 H 0.65425 0.27096 0.81142 0.0
H114 H 0.69336 0.32989 0.85858 0.0
H115 H 0.7305 0.32089 0.83199 0.0
H116 H 0.78371 0.33672 0.81555 0.0
H117 H 0.81937 0.36531 0.82056 0.0
H118 H 0.85966 0.31743 0.76209 0.0
H119 H 0.8243 0.28851 0.75743 0.0
H120 H 0.8009 0.23037 0.74523 0.0
H121 H 0.80404 0.19381 0.71263 0.0
H122 H 0.72566 0.1965 0.69867 0.0
H123 H 0.72232 0.23297 0.73167 0.0
N124 N 0.73831 0.26342 0.77324 0.0
N125 N 0.75757 0.29917 0.79505 0.0
N126 N 0.77996 0.27248 0.76463 0.0
C127 C 0.73713 0.28428 0.7909 0.0
C128 C 0.77902 0.29348 0.78194 0.0
C129 C 0.75975 0.25737 0.76013 0.0
C130 C 0.71407 0.29052 0.80613 0.0
C131 C 0.69209 0.2769 0.80049 0.0
C132 C 0.67073 0.2822 0.81578 0.0
C133 C 0.67092 0.30109 0.83716 0.0
C134 C 0.69272 0.31504 0.84243 0.0
C135 C 0.714 0.3099 0.82706 0.0
C136 C 0.80102 0.31031 0.78597 0.0
C137 C 0.8002 0.33214 0.80386 0.0
C138 C 0.82061 0.34863 0.80666 0.0
C139 C 0.84232 0.34368 0.79167 0.0
C140 C 0.84332 0.3216 0.77421 0.0
C141 C 0.82293 0.30511 0.77141 0.0
C142 C 0.76134 0.23463 0.74101 0.0
C143 C 0.78429 0.22316 0.73531 0.0
C144 C 0.67291 0.72285 0.79071 0.0
C145 C 0.6756 0.70273 0.81067 0.0
C146 C 0.69687 0.68716 0.80999 0.0
C147 C 0.71516 0.69179 0.78992 0.0
H148 H 0.7717 0.65479 0.73328 0.0
H149 H 0.80754 0.62646 0.73104 0.0
H150 H 0.85407 0.69451 0.71891 0.0
H151 H 0.81785 0.72238 0.71897 0.0
H152 H 0.76404 0.75421 0.66122 0.0
H153 H 0.75798 0.79314 0.63225 0.0
H154 H 0.72501 0.83255 0.70302 0.0
H155 H 0.72949 0.79296 0.731 0.0
H156 H 0.68851 0.74349 0.75601 0.0
H157 H 0.6569 0.73543 0.79091 0.0
H158 H 0.69937 0.6714 0.82501 0.0
H159 H 0.73141 0.67958 0.79013 0.0
N160 N 0.75199 0.70201 0.74676 0.0
N161 N 0.76878 0.7302 0.71261 0.0
N162 N 0.73122 0.74041 0.73399 0.0
C163 C 0.77028 0.70795 0.72835 0.0
C164 C 0.74919 0.74645 0.71534 0.0
C165 C 0.73238 0.71822 0.74972 0.0
C166 C 0.79201 0.69075 0.72625 0.0
C167 C 0.78962 0.66358 0.7299 0.0
C168 C 0.81028 0.64737 0.72888 0.0
C169 C 0.834 0.65801 0.72505 0.0
C170 C 0.83623 0.68533 0.72133 0.0
C171 C 0.81546 0.70143 0.72155 0.0
C172 C 0.74716 0.77057 0.69828 0.0
C173 C 0.75554 0.77128 0.67047 0.0
C174 C 0.75214 0.79371 0.65394 0.0
C175 C 0.74086 0.81622 0.66509 0.0
C176 C 0.73311 0.81553 0.69327 0.0
C177 C 0.73591 0.79289 0.70949 0.0
C178 C 0.71263 0.71226 0.77026 0.0
C179 C 0.69118 0.72758 0.77081 0.0
C180 C 0.75547 0.2146 0.33109 0.0
C181 C 0.74802 0.18829 0.32775 0.0
C182 C 0.74412 0.17887 0.30039 0.0
C183 C 0.74644 0.19544 0.27723 0.0
H184 H 0.68972 0.23737 0.22333 0.0
H185 H 0.65568 0.23375 0.1908 0.0
H186 H 0.70396 0.25518 0.12232 0.0
H187 H 0.73786 0.26045 0.15564 0.0
H188 H 0.78998 0.29342 0.17983 0.0
H189 H 0.82224 0.32652 0.17377 0.0
H190 H 0.83144 0.33062 0.26356 0.0
H191 H 0.79957 0.29721 0.26976 0.0
H192 H 0.76371 0.25131 0.31084 0.0
H193 H 0.75844 0.22273 0.35175 0.0
H194 H 0.73926 0.1586 0.29669 0.0
H195 H 0.74282 0.18764 0.25651 0.0
N196 N 0.73659 0.2364 0.23587 0.0
N197 N 0.755 0.26954 0.20894 0.0
N198 N 0.77191 0.25762 0.25268 0.0
C199 C 0.73677 0.25158 0.21248 0.0
C200 C 0.77261 0.27274 0.22904 0.0
C201 C 0.75407 0.23916 0.25592 0.0
C202 C 0.71647 0.24913 0.19201 0.0
C203 C 0.6931 0.24125 0.20131 0.0
C204 C 0.67357 0.23894 0.18251 0.0
C205 C 0.67696 0.24381 0.1537 0.0
C206 C 0.70048 0.25157 0.14435 0.0
C207 C 0.71997 0.25449 0.16338 0.0
C208 C 0.7922 0.29269 0.22529 0.0
C209 C 0.79888 0.30137 0.19829 0.0
C210 C 0.8174 0.3202 0.19477 0.0
C211 C 0.82921 0.33112 0.2182 0.0
C212 C 0.82247 0.32259 0.24518 0.0
C213 C 0.80433 0.30339 0.24869 0.0
C214 C 0.75345 0.22169 0.28064 0.0
C215 C 0.75844 0.23106 0.30769 0.0
C216 C 0.27405 0.17419 0.68096 0.0
C217 C 0.25929 0.17325 0.65679 0.0
C218 C 0.24229 0.1935 0.65194 0.0
C219 C 0.24024 0.21433 0.6708 0.0
H220 H 0.18924 0.27246 0.71324 0.0
H221 H 0.15741 0.30582 0.71182 0.0
H222 H 0.21167 0.36476 0.73309 0.0
H223 H 0.24287 0.33084 0.73668 0.0
H224 H 0.29021 0.30382 0.77896 0.0
H225 H 0.32127 0.30471 0.8164 0.0
H226 H 0.32258 0.22022 0.81753 0.0
H227 H 0.29209 0.21919 0.77989 0.0
H228 H 0.28396 0.19504 0.71797 0.0
H229 H 0.28751 0.15907 0.68515 0.0
H230 H 0.23044 0.19316 0.63365 0.0
H231 H 0.22707 0.22968 0.66634 0.0
N232 N 0.23724 0.25731 0.71097 0.0
N233 N 0.25426 0.28004 0.74924 0.0
N234 N 0.27064 0.23966 0.73567 0.0
C235 C 0.23725 0.27842 0.72834 0.0
C236 C 0.27084 0.26052 0.75316 0.0
C237 C 0.25414 0.23795 0.71437 0.0
C238 C 0.21845 0.29907 0.72521 0.0
C239 C 0.19428 0.2926 0.7175 0.0
C240 C 0.17605 0.31187 0.7165 0.0
C241 C 0.18171 0.33826 0.72242 0.0
C242 C 0.20625 0.3447 0.72916 0.0
C243 C 0.22428 0.32529 0.73097 0.0
C244 C 0.28882 0.26145 0.77644 0.0
C245 C 0.29708 0.28547 0.7873 0.0
C246 C 0.31486 0.286 0.80857 0.0
C247 C 0.32418 0.26252 0.81973 0.0
C248 C 0.31554 0.23855 0.80931 0.0
C249 C 0.29821 0.23802 0.78769 0.0
C250 C 0.25523 0.2154 0.69484 0.0
C251 C 0.27206 0.19497 0.69973 0.0
C252 C 0.19218 0.65284 0.21019 0.0
C253 C 0.17085 0.65887 0.22538 0.0
C254 C 0.17137 0.68026 0.24387 0.0
C255 C 0.19282 0.69518 0.24721 0.0
H256 H 0.24066 0.74083 0.30971 0.0
H257 H 0.2466 0.7751 0.34463 0.0
H258 H 0.28681 0.82121 0.28353 0.0
H259 H 0.28237 0.78611 0.2497 0.0
H260 H 0.32289 0.73789 0.2217 0.0
H261 H 0.35766 0.73004 0.19094 0.0
H262 H 0.31522 0.67258 0.14537 0.0
H263 H 0.28012 0.68055 0.17599 0.0
H264 H 0.22958 0.66249 0.20124 0.0
H265 H 0.1923 0.63665 0.19557 0.0
H266 H 0.15529 0.68522 0.2561 0.0
H267 H 0.19258 0.71147 0.26168 0.0
N268 N 0.23852 0.72448 0.25446 0.0
N269 N 0.27842 0.73464 0.23906 0.0
N270 N 0.25648 0.70051 0.21791 0.0
C271 C 0.25923 0.73939 0.25644 0.0
C272 C 0.2773 0.71513 0.21986 0.0
C273 C 0.23697 0.70505 0.23501 0.0
C274 C 0.26115 0.76079 0.2771 0.0
C275 C 0.25074 0.75836 0.30389 0.0
C276 C 0.25409 0.77813 0.32385 0.0
C277 C 0.26738 0.8011 0.31718 0.0
C278 C 0.27714 0.80364 0.28995 0.0
C279 C 0.27437 0.7836 0.27035 0.0
C280 C 0.2986 0.70992 0.20133 0.0
C281 C 0.32088 0.72352 0.20519 0.0
C282 C 0.34093 0.71888 0.18769 0.0
C283 C 0.33921 0.70061 0.16582 0.0
C284 C 0.31702 0.6869 0.16196 0.0
C285 C 0.29695 0.69143 0.17958 0.0
C286 C 0.2142 0.68912 0.23199 0.0
C287 C 0.21355 0.66778 0.2134 0.0
C288 C 0.96232 0.46826 0.21789 0.0
C289 C 0.02284 0.53948 0.22175 0.0
O290 O 0.96842 0.47463 0.24295 0.0
Zn291 Zn 0.99122 0.5029 0.26356 0.0
O292 O 0.97135 0.48078 0.19719 0.0
Zn293 Zn 0.99202 0.50447 0.21874 0.0
O294 O 0.01836 0.47875 0.23808 0.0
O295 O 0.01394 0.48086 0.28406 0.0
O296 O 0.0135 0.5294 0.19979 0.0
O297 O 0.01585 0.53132 0.24593 0.0
O298 O 0.96774 0.52427 0.28375 0.0
O299 O 0.96551 0.52939 0.23787 0.0
C300 C 0.02502 0.47164 0.2628 0.0
C301 C 0.95793 0.53521 0.2625 0.0
C302 C 0.98339 0.47175 0.78045 0.0
C303 C 0.04567 0.54036 0.78236 0.0
O304 O 0.9934 0.48233 0.8017 0.0
Zn305 Zn 0.01485 0.50564 0.7814 0.0
O306 O 0.9899 0.47901 0.75573 0.0
Zn307 Zn 0.01493 0.50699 0.73717 0.0
O308 O 0.03746 0.48559 0.71601 0.0
O309 O 0.03989 0.47882 0.76168 0.0
O310 O 0.03904 0.53472 0.75725 0.0
O311 O 0.03649 0.52782 0.80289 0.0
O312 O 0.98905 0.53286 0.76258 0.0
O313 O 0.99249 0.52898 0.7166 0.0
C314 C 0.04683 0.4734 0.73668 0.0
C315 C 0.98229 0.53945 0.73771 0.0
C316 C 0.2297 0.95585 0.52017 0.0
C317 C 0.23551 0.02042 0.44427 0.0
O318 O 0.21202 0.96405 0.50503 0.0
Zn319 Zn 0.23156 0.98711 0.48102 0.0
O320 O 0.25169 0.9634 0.51495 0.0
Zn321 Zn 0.2708 0.98776 0.48597 0.0
O322 O 0.2863 0.01259 0.51116 0.0
O323 O 0.24578 0.01541 0.5101 0.0
O324 O 0.25638 0.01361 0.45451 0.0
O325 O 0.21594 0.00971 0.45349 0.0
O326 O 0.25082 0.96021 0.45517 0.0
O327 O 0.29045 0.96272 0.46511 0.0
C328 C 0.26658 0.0233 0.51967 0.0
C329 C 0.27293 0.95255 0.4512 0.0
C330 C 0.54715 0.74652 0.03611 0.0
C331 C 0.48381 0.75122 0.96342 0.0
O332 O 0.54023 0.72378 0.02777 0.0
Zn333 Zn 0.51477 0.70772 0.99759 0.0
O334 O 0.5376 0.7668 0.02509 0.0
Zn335 Zn 0.51569 0.74912 0.99941 0.0
O336 O 0.48965 0.73052 0.02684 0.0
O337 O 0.49235 0.68782 0.02088 0.0
O338 O 0.49414 0.77008 0.97621 0.0
O339 O 0.49 0.72755 0.96917 0.0
O340 O 0.53597 0.68892 0.97244 0.0
O341 O 0.54059 0.73179 0.96973 0.0
C342 C 0.48242 0.70725 0.03294 0.0
C343 C 0.54654 0.70873 0.96159 0.0
C344 C 0.73422 0.98159 0.54996 0.0
C345 C 0.73924 0.05364 0.48256 0.0
O346 O 0.71641 0.99242 0.53711 0.0
Zn347 Zn 0.73584 0.01819 0.51686 0.0
O348 O 0.75628 0.9895 0.5457 0.0
Zn349 Zn 0.77505 0.01774 0.52016 0.0
O350 O 0.79122 0.04008 0.54743 0.0
O351 O 0.75072 0.04228 0.54936 0.0
O352 O 0.76035 0.04551 0.49077 0.0
O353 O 0.71976 0.04377 0.49294 0.0
O354 O 0.75441 0.99394 0.48713 0.0
O355 O 0.79432 0.99511 0.49605 0.0
C356 C 0.77188 0.04919 0.55868 0.0
C357 C 0.77637 0.98663 0.48149 0.0
C358 C 0.52546 0.25255 0.03301 0.0
C359 C 0.459 0.26136 0.965 0.0
O360 O 0.51453 0.23426 0.0199 0.0
Zn361 Zn 0.4922 0.25634 0.99902 0.0
O362 O 0.51917 0.27644 0.02888 0.0
Zn363 Zn 0.49363 0.29791 0.00328 0.0
O364 O 0.47363 0.31529 0.03111 0.0
O365 O 0.46848 0.27239 0.03065 0.0
O366 O 0.46627 0.28349 0.97466 0.0
O367 O 0.4694 0.24039 0.97313 0.0
O368 O 0.51712 0.27572 0.9715 0.0
O369 O 0.51554 0.31822 0.979 0.0
C370 C 0.46304 0.29491 0.04075 0.0
C371 C 0.52458 0.29893 0.96577 0.0
C372 C 0.15339 0.39631 0.27165 0.0
C373 C 0.15015 0.36907 0.27295 0.0
C374 C 0.13311 0.41328 0.27193 0.0
C375 C 0.10903 0.40273 0.27346 0.0
C376 C 0.10566 0.37528 0.27533 0.0
C377 C 0.12625 0.3588 0.27502 0.0
C378 C 0.13742 0.44246 0.26997 0.0
C379 C 0.08028 0.36327 0.2768 0.0
C380 C 0.05565 0.44729 0.29259 0.0
C381 C 0.04604 0.45344 0.26603 0.0
C382 C 0.0762 0.43081 0.29541 0.0
C383 C 0.0873 0.42024 0.27111 0.0
C384 C 0.07754 0.42621 0.24432 0.0
C385 C 0.05708 0.44271 0.24211 0.0
C386 C 0.08613 0.42484 0.32432 0.0
C387 C 0.08877 0.41524 0.21789 0.0
H388 H 0.17182 0.40437 0.27041 0.0
H389 H 0.12357 0.33776 0.27565 0.0
H390 H 0.12945 0.45011 0.25012 0.0
H391 H 0.12801 0.45257 0.28747 0.0
H392 H 0.15728 0.44759 0.27056 0.0
H393 H 0.08087 0.34171 0.27996 0.0
H394 H 0.06966 0.37209 0.2942 0.0
H395 H 0.07014 0.36746 0.25706 0.0
H396 H 0.04728 0.45554 0.31117 0.0
H397 H 0.04981 0.44728 0.22148 0.0
H398 H 0.10556 0.43138 0.32586 0.0
H399 H 0.08588 0.40339 0.32813 0.0
H400 H 0.07539 0.43455 0.3411 0.0
H401 H 0.10827 0.42147 0.21624 0.0
H402 H 0.07889 0.42171 0.19866 0.0
H403 H 0.08853 0.39352 0.2187 0.0
C404 C 0.13865 0.66047 0.80934 0.0
C405 C 0.16001 0.65589 0.79379 0.0
C406 C 0.11968 0.64174 0.81025 0.0
C407 C 0.12249 0.61778 0.79572 0.0
C408 C 0.14465 0.61263 0.78119 0.0
C409 C 0.16303 0.63192 0.78011 0.0
C410 C 0.09617 0.64815 0.82551 0.0
C411 C 0.14858 0.58713 0.76592 0.0
C412 C 0.07973 0.56029 0.81057 0.0
C413 C 0.06425 0.56106 0.78703 0.0
C414 C 0.09863 0.57885 0.81397 0.0
C415 C 0.10164 0.59895 0.79368 0.0
C416 C 0.08541 0.60035 0.77046 0.0
C417 C 0.06712 0.5812 0.76723 0.0
C418 C 0.1159 0.5764 0.83867 0.0
C419 C 0.08766 0.62181 0.74868 0.0
H420 H 0.13635 0.67917 0.81969 0.0
H421 H 0.17965 0.62847 0.76817 0.0
H422 H 0.08092 0.65003 0.81012 0.0
H423 H 0.09119 0.63209 0.84019 0.0
H424 H 0.09762 0.66671 0.83749 0.0
H425 H 0.16771 0.58515 0.7581 0.0
H426 H 0.14442 0.5703 0.77995 0.0
H427 H 0.13584 0.58593 0.74776 0.0
H428 H 0.07763 0.54463 0.82582 0.0
H429 H 0.05501 0.58198 0.74915 0.0
H430 H 0.11666 0.59507 0.85045 0.0
H431 H 0.13478 0.57237 0.83105 0.0
H432 H 0.11036 0.56045 0.85328 0.0
H433 H 0.08773 0.64127 0.75896 0.0
H434 H 0.07244 0.62127 0.73311 0.0
H435 H 0.10534 0.61985 0.73733 0.0
C436 C 0.87089 0.65981 0.27442 0.0
C437 C 0.84583 0.65358 0.272 0.0
C438 C 0.88885 0.64015 0.27485 0.0
C439 C 0.88161 0.61357 0.2728 0.0
C440 C 0.85633 0.60709 0.27096 0.0
C441 C 0.83873 0.62718 0.27053 0.0
C442 C 0.91564 0.64788 0.27663 0.0
C443 C 0.8479 0.57896 0.26881 0.0
C444 C 0.92816 0.56694 0.24163 0.0
C445 C 0.93801 0.55476 0.2656 0.0
C446 C 0.90965 0.58584 0.24374 0.0
C447 C 0.90062 0.59279 0.27049 0.0
C448 C 0.91021 0.58041 0.29481 0.0
C449 C 0.92884 0.56153 0.29208 0.0
C450 C 0.89996 0.59862 0.21729 0.0
C451 C 0.90095 0.5873 0.32367 0.0
H452 H 0.87654 0.68017 0.27522 0.0
H453 H 0.81938 0.62222 0.26906 0.0
H454 H 0.92476 0.63727 0.29413 0.0
H455 H 0.92517 0.64228 0.257 0.0
H456 H 0.91813 0.66927 0.27985 0.0
H457 H 0.82754 0.57711 0.26928 0.0
H458 H 0.85469 0.57036 0.24895 0.0
H459 H 0.85573 0.56721 0.28628 0.0
H460 H 0.93506 0.56186 0.22104 0.0
H461 H 0.93629 0.55219 0.31069 0.0
H462 H 0.9034 0.62004 0.21798 0.0
H463 H 0.87978 0.59573 0.21573 0.0
H464 H 0.90864 0.59066 0.19806 0.0
H465 H 0.90462 0.60828 0.32799 0.0
H466 H 0.90974 0.57532 0.34039 0.0
H467 H 0.88074 0.58439 0.32472 0.0
C468 C 0.88769 0.35244 0.79463 0.0
C469 C 0.86355 0.36201 0.7933 0.0
C470 C 0.90792 0.36957 0.79432 0.0
C471 C 0.9039 0.39691 0.79265 0.0
C472 C 0.87959 0.40673 0.79207 0.0
C473 C 0.85971 0.38916 0.79237 0.0
C474 C 0.93359 0.35839 0.79506 0.0
C475 C 0.87456 0.43577 0.79022 0.0
C476 C 0.95535 0.44459 0.81065 0.0
C477 C 0.96384 0.45173 0.78389 0.0
C478 C 0.93607 0.42645 0.81389 0.0
C479 C 0.92507 0.41523 0.78982 0.0
C480 C 0.93383 0.42202 0.76281 0.0
C481 C 0.95309 0.44016 0.76018 0.0
C482 C 0.9272 0.41964 0.84303 0.0
C483 C 0.9226 0.41042 0.73662 0.0
H484 H 0.89076 0.3315 0.79575 0.0
H485 H 0.84113 0.3967 0.79098 0.0
H486 H 0.94322 0.36314 0.77517 0.0
H487 H 0.94435 0.36738 0.81234 0.0
H488 H 0.93357 0.33678 0.79794 0.0
H489 H 0.85463 0.44028 0.79165 0.0
H490 H 0.88436 0.44624 0.80727 0.0
H491 H 0.88162 0.44359 0.77002 0.0
H492 H 0.96356 0.45341 0.82908 0.0
H493 H 0.95953 0.44549 0.73941 0.0
H494 H 0.92793 0.39814 0.84637 0.0
H495 H 0.90773 0.42566 0.84541 0.0
H496 H 0.9383 0.42934 0.85962 0.0
H497 H 0.92351 0.38873 0.73753 0.0
H498 H 0.93198 0.41722 0.71722 0.0
H499 H 0.90289 0.41585 0.73523 0.0
C500 C 0.23422 0.15767 0.36707 0.0
C501 C 0.23716 0.15674 0.33787 0.0
C502 C 0.23244 0.13462 0.38307 0.0
C503 C 0.2335 0.11002 0.36954 0.0
C504 C 0.23597 0.10894 0.33999 0.0
C505 C 0.23789 0.13233 0.32451 0.0
C506 C 0.23014 0.13663 0.41457 0.0
C507 C 0.23699 0.08307 0.32482 0.0
C508 C 0.25664 0.05386 0.41447 0.0
C509 C 0.23466 0.04182 0.42314 0.0
C510 C 0.25648 0.0756 0.39646 0.0
C511 C 0.23379 0.08556 0.38662 0.0
C512 C 0.21155 0.07299 0.39441 0.0
C513 C 0.21223 0.05127 0.41267 0.0
C514 C 0.28061 0.08848 0.38876 0.0
C515 C 0.18702 0.08296 0.38411 0.0
H516 H 0.23391 0.17648 0.37752 0.0
H517 H 0.23985 0.13155 0.3019 0.0
H518 H 0.21384 0.12546 0.42192 0.0
H519 H 0.24655 0.12784 0.42475 0.0
H520 H 0.22842 0.15723 0.42171 0.0
H521 H 0.23735 0.0856 0.30166 0.0
H522 H 0.25369 0.07218 0.33133 0.0
H523 H 0.22087 0.07081 0.33053 0.0
H524 H 0.2741 0.0467 0.42232 0.0
H525 H 0.19517 0.04207 0.41919 0.0
H526 H 0.28114 0.10872 0.39713 0.0
H527 H 0.2824 0.08992 0.36563 0.0
H528 H 0.29672 0.07762 0.39717 0.0
H529 H 0.18357 0.10271 0.39286 0.0
H530 H 0.1716 0.06984 0.39028 0.0
H531 H 0.18716 0.08493 0.36092 0.0
C532 C 0.35821 0.74677 0.88039 0.0
C533 C 0.35632 0.76358 0.85704 0.0
C534 C 0.37931 0.74654 0.8974 0.0
C535 C 0.39953 0.76281 0.89046 0.0
C536 C 0.39798 0.77964 0.86686 0.0
C537 C 0.3763 0.78015 0.85074 0.0
C538 C 0.38001 0.72866 0.92274 0.0
C539 C 0.41937 0.79684 0.85838 0.0
C540 C 0.44668 0.77608 0.94784 0.0
C541 C 0.46374 0.75606 0.94315 0.0
C542 C 0.42583 0.77881 0.93059 0.0
C543 C 0.42245 0.76163 0.90762 0.0
C544 C 0.44034 0.74223 0.90202 0.0
C545 C 0.46053 0.73938 0.92016 0.0
C546 C 0.40685 0.79923 0.93777 0.0
C547 C 0.43785 0.72406 0.87726 0.0
H548 H 0.34333 0.73339 0.88528 0.0
H549 H 0.37507 0.79364 0.83321 0.0
H550 H 0.39435 0.71351 0.91989 0.0
H551 H 0.38494 0.73999 0.94176 0.0
H552 H 0.36212 0.71868 0.92644 0.0
H553 H 0.41542 0.80846 0.83914 0.0
H554 H 0.42406 0.81051 0.87561 0.0
H555 H 0.43584 0.78459 0.85455 0.0
H556 H 0.44901 0.7888 0.96581 0.0
H557 H 0.47381 0.72399 0.91644 0.0
H558 H 0.38932 0.78942 0.94352 0.0
H559 H 0.40304 0.81188 0.91931 0.0
H560 H 0.41275 0.81182 0.95552 0.0
H561 H 0.42185 0.71085 0.88038 0.0
H562 H 0.45451 0.71187 0.87422 0.0
H563 H 0.43442 0.73549 0.85778 0.0
C564 C 0.792 0.88442 0.35433 0.0
C565 C 0.77405 0.86503 0.35847 0.0
C566 C 0.79491 0.90497 0.37357 0.0
C567 C 0.77984 0.90576 0.39775 0.0
C568 C 0.76211 0.88581 0.40232 0.0
C569 C 0.75926 0.86583 0.38245 0.0
C570 C 0.81362 0.92618 0.36767 0.0
C571 C 0.74597 0.8857 0.42807 0.0
C572 C 0.79694 0.94734 0.461 0.0
C573 C 0.78004 0.96786 0.45846 0.0
C574 C 0.79764 0.92723 0.44093 0.0
C575 C 0.78149 0.92816 0.41756 0.0
C576 C 0.76547 0.94975 0.41415 0.0
C577 C 0.76471 0.96913 0.43484 0.0
C578 C 0.81466 0.90431 0.44555 0.0
C579 C 0.7484 0.95186 0.3892 0.0
H580 H 0.80337 0.88381 0.33569 0.0
H581 H 0.74559 0.85063 0.38579 0.0
H582 H 0.80414 0.94526 0.36501 0.0
H583 H 0.82642 0.9282 0.38567 0.0
H584 H 0.8245 0.92219 0.34846 0.0
H585 H 0.73428 0.86785 0.42943 0.0
H586 H 0.75745 0.88691 0.44729 0.0
H587 H 0.73381 0.90311 0.42778 0.0
H588 H 0.80864 0.94627 0.47941 0.0
H589 H 0.75176 0.98515 0.43278 0.0
H590 H 0.82565 0.90055 0.42642 0.0
H591 H 0.80362 0.88641 0.4498 0.0
H592 H 0.8274 0.90751 0.46347 0.0
H593 H 0.75873 0.94893 0.36942 0.0
H594 H 0.73901 0.97114 0.38818 0.0
H595 H 0.73417 0.93628 0.39043 0.0
C596 C 0.65118 0.30628 0.88417 0.0
C597 C 0.64884 0.30529 0.85488 0.0
C598 C 0.63042 0.30821 0.90146 0.0
C599 C 0.60671 0.30936 0.88917 0.0
C600 C 0.60429 0.30951 0.85958 0.0
C601 C 0.62539 0.30729 0.84277 0.0
C602 C 0.63381 0.30762 0.93292 0.0
C603 C 0.57936 0.31099 0.84568 0.0
C604 C 0.55523 0.28014 0.93271 0.0
C605 C 0.54451 0.30238 0.94481 0.0
C606 C 0.57511 0.28228 0.91423 0.0
C607 C 0.58452 0.30734 0.90733 0.0
C608 C 0.57341 0.32999 0.91876 0.0
C609 C 0.55357 0.32725 0.93751 0.0
C610 C 0.58648 0.25759 0.90269 0.0
C611 C 0.58282 0.35704 0.91161 0.0
H612 H 0.66923 0.30448 0.89366 0.0
H613 H 0.62353 0.30688 0.82013 0.0
H614 H 0.62374 0.32404 0.94276 0.0
H615 H 0.62603 0.28915 0.94152 0.0
H616 H 0.65348 0.30889 0.93912 0.0
H617 H 0.58077 0.31392 0.82263 0.0
H618 H 0.56905 0.29258 0.84971 0.0
H619 H 0.56848 0.32726 0.85468 0.0
H620 H 0.54842 0.26079 0.93812 0.0
H621 H 0.54537 0.34453 0.94668 0.0
H622 H 0.60591 0.25614 0.90966 0.0
H623 H 0.5865 0.25821 0.87943 0.0
H624 H 0.57658 0.23963 0.9096 0.0
H625 H 0.60183 0.35943 0.9197 0.0
H626 H 0.57115 0.37269 0.92065 0.0
H627 H 0.58357 0.35968 0.88851 0.0
C628 C 0.24447 0.84116 0.62919 0.0
C629 C 0.23022 0.84308 0.65353 0.0
C630 C 0.2414 0.85891 0.60691 0.0
C631 C 0.224 0.87939 0.6093 0.0
C632 C 0.20917 0.88105 0.63361 0.0
C633 C 0.21234 0.86272 0.65537 0.0
C634 C 0.25731 0.85623 0.58115 0.0
C635 C 0.19077 0.90286 0.6372 0.0
C636 C 0.24098 0.94003 0.56766 0.0
C637 C 0.22569 0.93791 0.54408 0.0
C638 C 0.23974 0.92176 0.58959 0.0
C639 C 0.22318 0.90042 0.5876 0.0
C640 C 0.2071 0.89858 0.56422 0.0
C641 C 0.20836 0.9176 0.54278 0.0
C642 C 0.2568 0.92484 0.61443 0.0
C643 C 0.18946 0.8759 0.56122 0.0
H644 H 0.25808 0.82576 0.62763 0.0
H645 H 0.20139 0.86427 0.67428 0.0
H646 H 0.24578 0.85661 0.56192 0.0
H647 H 0.27024 0.87303 0.57984 0.0
H648 H 0.26817 0.83783 0.5814 0.0
H649 H 0.17928 0.90014 0.65624 0.0
H650 H 0.20064 0.92185 0.63889 0.0
H651 H 0.17853 0.90416 0.61861 0.0
H652 H 0.25423 0.95592 0.56879 0.0
H653 H 0.19665 0.91589 0.52444 0.0
H654 H 0.27032 0.90861 0.61473 0.0
H655 H 0.24625 0.92374 0.6343 0.0
H656 H 0.26703 0.9437 0.61387 0.0
H657 H 0.19999 0.85751 0.55843 0.0
H658 H 0.1769 0.87839 0.54299 0.0
H659 H 0.17828 0.87357 0.58051 0.0
C660 C 0.63645 0.75966 0.16984 0.0
C661 C 0.66107 0.75604 0.16205 0.0
C662 C 0.61747 0.7589 0.14979 0.0
C663 C 0.62327 0.75461 0.12122 0.0
C664 C 0.64812 0.75133 0.11318 0.0
C665 C 0.66669 0.75199 0.13369 0.0
C666 C 0.59119 0.76225 0.15924 0.0
C667 C 0.65509 0.74693 0.08291 0.0
C668 C 0.57444 0.72647 0.07266 0.0
C669 C 0.56625 0.74886 0.05827 0.0
C670 C 0.59275 0.72814 0.0934 0.0
C671 C 0.60331 0.75278 0.09982 0.0
C672 C 0.59507 0.77549 0.08549 0.0
C673 C 0.57657 0.77328 0.06497 0.0
C674 C 0.60088 0.70348 0.10833 0.0
C675 C 0.60599 0.80208 0.09163 0.0
H676 H 0.63196 0.76254 0.19176 0.0
H677 H 0.68571 0.74955 0.12748 0.0
H678 H 0.58251 0.77874 0.14772 0.0
H679 H 0.58045 0.74433 0.15431 0.0
H680 H 0.58981 0.76606 0.18212 0.0
H681 H 0.67531 0.74551 0.08 0.0
H682 H 0.64647 0.72859 0.0752 0.0
H683 H 0.64806 0.76319 0.06966 0.0
H684 H 0.56653 0.70752 0.06775 0.0
H685 H 0.5704 0.79068 0.05394 0.0
H686 H 0.59853 0.7057 0.13131 0.0
H687 H 0.62071 0.70004 0.10443 0.0
H688 H 0.5904 0.68595 0.1014 0.0
H689 H 0.60368 0.80681 0.11417 0.0
H690 H 0.59739 0.81787 0.07889 0.0
H691 H 0.62603 0.80189 0.0873 0.0
C692 C 0.75726 0.17337 0.65574 0.0
C693 C 0.76731 0.17077 0.68268 0.0
C694 C 0.75956 0.15326 0.63594 0.0
C695 C 0.77178 0.12978 0.64349 0.0
C696 C 0.78191 0.12704 0.67074 0.0
C697 C 0.77975 0.1477 0.68994 0.0
C698 C 0.74886 0.15711 0.60696 0.0
C699 C 0.79459 0.10212 0.67977 0.0
C700 C 0.75353 0.07036 0.60064 0.0
C701 C 0.77324 0.06827 0.58187 0.0
C702 C 0.7533 0.08967 0.62146 0.0
C703 C 0.77302 0.10775 0.62317 0.0
C704 C 0.79325 0.10542 0.60465 0.0
C705 C 0.79325 0.08547 0.58438 0.0
C706 C 0.73165 0.0911 0.64119 0.0
C707 C 0.81442 0.12459 0.60553 0.0
H708 H 0.7479 0.19135 0.65003 0.0
H709 H 0.78741 0.14565 0.71085 0.0
H710 H 0.76324 0.15391 0.59085 0.0
H711 H 0.73409 0.14249 0.60321 0.0
H712 H 0.74105 0.17701 0.60398 0.0
H713 H 0.80181 0.10327 0.70156 0.0
H714 H 0.78152 0.08543 0.67849 0.0
H715 H 0.81007 0.09776 0.66543 0.0
H716 H 0.73812 0.05693 0.59893 0.0
H717 H 0.80844 0.08401 0.56977 0.0
H718 H 0.7214 0.10955 0.63748 0.0
H719 H 0.73813 0.09133 0.66328 0.0
H720 H 0.71876 0.07437 0.63848 0.0
H721 H 0.80767 0.14453 0.60036 0.0
H722 H 0.82923 0.11942 0.59054 0.0
H723 H 0.82235 0.12539 0.62697 0.0
C724 C 0.34358 0.30389 0.13753 0.0
C725 C 0.34869 0.29765 0.16564 0.0
C726 C 0.36248 0.30551 0.11755 0.0
C727 C 0.38712 0.30092 0.12589 0.0
C728 C 0.39248 0.29553 0.15442 0.0
C729 C 0.3732 0.29387 0.17392 0.0
C730 C 0.35597 0.31111 0.08731 0.0
C731 C 0.41852 0.29074 0.1642 0.0
C732 C 0.43085 0.27429 0.07106 0.0
C733 C 0.44403 0.29676 0.06298 0.0
C734 C 0.41238 0.27544 0.0915 0.0
C735 C 0.40696 0.29965 0.10441 0.0
C736 C 0.42031 0.32241 0.09661 0.0
C737 C 0.43865 0.32072 0.0759 0.0
C738 C 0.39852 0.25073 0.0991 0.0
C739 C 0.41514 0.34852 0.11006 0.0
H740 H 0.32467 0.3066 0.13094 0.0
H741 H 0.37729 0.28942 0.19569 0.0
H742 H 0.36724 0.32758 0.07912 0.0
H743 H 0.36013 0.2937 0.07432 0.0
H744 H 0.33622 0.31605 0.08459 0.0
H745 H 0.41983 0.28887 0.18738 0.0
H746 H 0.42557 0.27247 0.15465 0.0
H747 H 0.4307 0.30697 0.15723 0.0
H748 H 0.43478 0.25567 0.06121 0.0
H749 H 0.44875 0.33817 0.06983 0.0
H750 H 0.3786 0.25341 0.09496 0.0
H751 H 0.40065 0.2465 0.12182 0.0
H752 H 0.40498 0.23346 0.0871 0.0
H753 H 0.39579 0.35428 0.106 0.0
H754 H 0.42745 0.36427 0.10207 0.0
H755 H 0.41744 0.34699 0.13314 0.0
C756 C 0.8569 0.61823 0.74251 0.0
C757 C 0.85627 0.64082 0.72553 0.0
C758 C 0.87761 0.60189 0.74324 0.0
C759 C 0.8987 0.60869 0.72743 0.0
C760 C 0.89844 0.63154 0.71053 0.0
C761 C 0.87714 0.64705 0.7094 0.0
C762 C 0.87695 0.57737 0.76109 0.0
C763 C 0.92076 0.63978 0.69385 0.0
C764 C 0.95847 0.57849 0.75322 0.0
C765 C 0.96195 0.55825 0.73388 0.0
C766 C 0.93848 0.59569 0.75071 0.0
C767 C 0.92109 0.59196 0.72891 0.0
C768 C 0.92461 0.5716 0.70923 0.0
C769 C 0.94525 0.55524 0.71169 0.0
C770 C 0.93582 0.61766 0.77158 0.0
C771 C 0.90611 0.56646 0.68622 0.0
H772 H 0.8413 0.61335 0.75563 0.0
H773 H 0.87691 0.66404 0.69574 0.0
H774 H 0.88177 0.56007 0.74822 0.0
H775 H 0.89079 0.57879 0.77814 0.0
H776 H 0.85861 0.57396 0.77068 0.0
H777 H 0.91788 0.65856 0.68247 0.0
H778 H 0.93683 0.64199 0.70805 0.0
H779 H 0.92546 0.62444 0.67837 0.0
H780 H 0.97149 0.58093 0.77028 0.0
H781 H 0.94779 0.53942 0.69689 0.0
H782 H 0.91911 0.61448 0.78448 0.0
H783 H 0.93352 0.63662 0.76041 0.0
H784 H 0.95194 0.61918 0.78584 0.0
H785 H 0.88802 0.56151 0.69562 0.0
H786 H 0.91177 0.55015 0.67232 0.0
H787 H 0.9035 0.58431 0.67323 0.0
C788 C 0.86891 0.3468 0.19744 0.0
C789 C 0.84852 0.35141 0.21464 0.0
C790 C 0.88802 0.36531 0.19525 0.0
C791 C 0.88638 0.38918 0.21018 0.0
C792 C 0.86534 0.39426 0.22677 0.0
C793 C 0.84681 0.37519 0.22905 0.0
C794 C 0.91035 0.35891 0.17785 0.0
C795 C 0.86265 0.41965 0.24261 0.0
C796 C 0.94332 0.4263 0.23348 0.0
C797 C 0.94445 0.44674 0.21379 0.0
C798 C 0.92519 0.40679 0.23172 0.0
C799 C 0.90729 0.40812 0.21015 0.0
C800 C 0.90868 0.42838 0.18977 0.0
C801 C 0.92748 0.44731 0.19163 0.0
C802 C 0.92478 0.38519 0.25347 0.0
C803 C 0.88967 0.43074 0.16679 0.0
H804 H 0.87028 0.32833 0.18642 0.0
H805 H 0.8309 0.37884 0.24212 0.0
H806 H 0.91401 0.37482 0.16248 0.0
H807 H 0.92674 0.35745 0.19167 0.0
H808 H 0.90821 0.34018 0.16632 0.0
H809 H 0.84431 0.42145 0.25265 0.0
H810 H 0.87695 0.4209 0.25918 0.0
H811 H 0.86541 0.43655 0.22824 0.0
H812 H 0.95657 0.42568 0.2505 0.0
H813 H 0.92822 0.46321 0.1765 0.0
H814 H 0.92382 0.36579 0.24312 0.0
H815 H 0.90815 0.38709 0.26674 0.0
H816 H 0.94124 0.38565 0.26731 0.0
H817 H 0.88796 0.412 0.15525 0.0
H818 H 0.89419 0.44658 0.15158 0.0
H819 H 0.87145 0.43493 0.17617 0.0
C820 C 0.14162 0.35684 0.70433 0.0
C821 C 0.16204 0.35875 0.72239 0.0
C822 C 0.1224 0.37517 0.70529 0.0
C823 C 0.12394 0.39652 0.72405 0.0
C824 C 0.14478 0.39914 0.74164 0.0
C825 C 0.16329 0.38004 0.74098 0.0
C826 C 0.1002 0.37134 0.68665 0.0
C827 C 0.14739 0.42195 0.76152 0.0
C828 C 0.08355 0.45623 0.71128 0.0
C829 C 0.06577 0.45318 0.73227 0.0
C830 C 0.10263 0.43793 0.70829 0.0
C831 C 0.10337 0.41564 0.72611 0.0
C832 C 0.08487 0.41205 0.74666 0.0
C833 C 0.06656 0.43112 0.74982 0.0
C834 C 0.12244 0.4429 0.68675 0.0
C835 C 0.08452 0.38817 0.76547 0.0
H836 H 0.14052 0.34096 0.6894 0.0
H837 H 0.17852 0.38165 0.75553 0.0
H838 H 0.0834 0.36956 0.69972 0.0
H839 H 0.0977 0.38864 0.67279 0.0
H840 H 0.10173 0.3536 0.67337 0.0
H841 H 0.16567 0.42239 0.77197 0.0
H842 H 0.14472 0.4407 0.75005 0.0
H843 H 0.133 0.42077 0.77793 0.0
H844 H 0.08305 0.47343 0.69787 0.0
H845 H 0.05266 0.42866 0.76592 0.0
H846 H 0.1238 0.42606 0.67223 0.0
H847 H 0.14051 0.44486 0.69741 0.0
H848 H 0.11899 0.46094 0.67425 0.0
H849 H 0.08527 0.3701 0.75264 0.0
H850 H 0.06784 0.38735 0.77887 0.0
H851 H 0.10096 0.38821 0.77927 0.0
C852 C 0.12508 0.6542 0.21989 0.0
C853 C 0.14832 0.64253 0.22229 0.0
C854 C 0.10367 0.63885 0.21759 0.0
C855 C 0.10555 0.61119 0.21794 0.0
C856 C 0.129 0.59933 0.21991 0.0
C857 C 0.15007 0.61513 0.22201 0.0
C858 C 0.07901 0.65222 0.21536 0.0
C859 C 0.1318 0.56991 0.22065 0.0
C860 C 0.05235 0.57013 0.2449 0.0
C861 C 0.04264 0.55952 0.22008 0.0
C862 C 0.07237 0.58746 0.24436 0.0
C863 C 0.083 0.59455 0.21835 0.0
C864 C 0.07284 0.58465 0.19311 0.0
C865 C 0.05277 0.56719 0.19426 0.0
C866 C 0.08263 0.59753 0.27177 0.0
C867 C 0.0836 0.59193 0.16496 0.0
H868 H 0.12364 0.67537 0.21972 0.0
H869 H 0.16795 0.60598 0.22417 0.0
H870 H 0.06876 0.64479 0.19687 0.0
H871 H 0.06783 0.64763 0.2342 0.0
H872 H 0.0808 0.67384 0.21349 0.0
H873 H 0.15138 0.56377 0.22077 0.0
H874 H 0.12277 0.56189 0.23971 0.0
H875 H 0.12255 0.56101 0.20223 0.0
H876 H 0.04463 0.56447 0.26498 0.0
H877 H 0.04539 0.55915 0.17499 0.0
H878 H 0.08329 0.61925 0.27153 0.0
H879 H 0.10176 0.59048 0.2746 0.0
H880 H 0.07158 0.59105 0.29012 0.0
H881 H 0.08487 0.61354 0.16283 0.0
H882 H 0.07254 0.58413 0.14724 0.0
H883 H 0.10256 0.58411 0.16335 0.0
C884 C 0.75441 0.84732 0.62684 0.0
C885 C 0.73727 0.84033 0.64761 0.0
C886 C 0.75151 0.87015 0.61067 0.0
C887 C 0.73141 0.88698 0.61592 0.0
C888 C 0.71398 0.88013 0.63669 0.0
C889 C 0.71688 0.85672 0.65191 0.0
C890 C 0.77025 0.8765 0.58828 0.0
C891 C 0.69259 0.89784 0.64333 0.0
C892 C 0.74324 0.95735 0.59398 0.0
C893 C 0.73027 0.95895 0.56864 0.0
C894 C 0.7426 0.93448 0.61036 0.0
C895 C 0.72943 0.91236 0.60057 0.0
C896 C 0.71577 0.91412 0.57527 0.0
C897 C 0.71604 0.93763 0.55978 0.0
C898 C 0.75676 0.93372 0.63765 0.0
C899 C 0.70209 0.89075 0.56372 0.0
H900 H 0.77047 0.83524 0.62349 0.0
H901 H 0.70311 0.85136 0.66729 0.0
H902 H 0.7609 0.88072 0.56805 0.0
H903 H 0.78072 0.89431 0.59422 0.0
H904 H 0.78349 0.86026 0.58506 0.0
H905 H 0.68049 0.88957 0.65991 0.0
H906 H 0.69956 0.91717 0.65044 0.0
H907 H 0.6814 0.90136 0.62421 0.0
H908 H 0.75424 0.97393 0.60076 0.0
H909 H 0.70634 0.93881 0.53992 0.0
H910 H 0.77265 0.92029 0.63567 0.0
H911 H 0.74494 0.92605 0.65478 0.0
H912 H 0.76376 0.95337 0.64373 0.0
H913 H 0.71546 0.87534 0.55786 0.0
H914 H 0.69096 0.89585 0.5449 0.0
H915 H 0.68976 0.88224 0.57987 0.0
C916 C 0.65326 0.25875 0.11109 0.0
C917 C 0.65575 0.24146 0.1339 0.0
C918 C 0.63241 0.258 0.09368 0.0
C919 C 0.61323 0.24002 0.09966 0.0
C920 C 0.61585 0.22204 0.1221 0.0
C921 C 0.63722 0.22268 0.13861 0.0
C922 C 0.63055 0.27708 0.06948 0.0
C923 C 0.59563 0.20288 0.12944 0.0
C924 C 0.55011 0.26219 0.07565 0.0
C925 C 0.54646 0.24697 0.05163 0.0
C926 C 0.57133 0.2593 0.09209 0.0
C927 C 0.58972 0.24139 0.08371 0.0
C928 C 0.58594 0.22565 0.05967 0.0
C929 C 0.5641 0.22836 0.04411 0.0
C930 C 0.57432 0.27588 0.11805 0.0
C931 C 0.60541 0.20688 0.04965 0.0
H932 H 0.6672 0.27353 0.10728 0.0
H933 H 0.63917 0.20866 0.15559 0.0
H934 H 0.6252 0.26669 0.04999 0.0
H935 H 0.61604 0.29172 0.07389 0.0
H936 H 0.64812 0.28767 0.0657 0.0
H937 H 0.60098 0.1894 0.14675 0.0
H938 H 0.57896 0.21378 0.13591 0.0
H939 H 0.59054 0.19104 0.11085 0.0
H940 H 0.53639 0.27655 0.08146 0.0
H941 H 0.5614 0.21688 0.02526 0.0
H942 H 0.5898 0.28982 0.11515 0.0
H943 H 0.57884 0.26332 0.1364 0.0
H944 H 0.55747 0.28724 0.1229 0.0
H945 H 0.62207 0.21805 0.04337 0.0
H946 H 0.59909 0.19508 0.03147 0.0
H947 H 0.6109 0.19339 0.06683 0.0
C948 C 0.2641 0.12542 0.64658 0.0
C949 C 0.2618 0.15123 0.63671 0.0
C950 C 0.26643 0.10439 0.62792 0.0
C951 C 0.26644 0.10929 0.59866 0.0
C952 C 0.26447 0.13532 0.58856 0.0
C953 C 0.26213 0.15598 0.60771 0.0
C954 C 0.26829 0.07689 0.6395 0.0
C955 C 0.26444 0.14131 0.55751 0.0
C956 C 0.28926 0.05612 0.54938 0.0
C957 C 0.26704 0.04498 0.54028 0.0
C958 C 0.28942 0.0771 0.56842 0.0
C959 C 0.26685 0.08703 0.57862 0.0
C960 C 0.24442 0.07571 0.56968 0.0
C961 C 0.24479 0.0549 0.55065 0.0
C962 C 0.31369 0.08874 0.57752 0.0
C963 C 0.21996 0.08563 0.58015 0.0
H964 H 0.2636 0.12158 0.66895 0.0
H965 H 0.26074 0.17592 0.59998 0.0
H966 H 0.25201 0.0653 0.63288 0.0
H967 H 0.28479 0.06701 0.63094 0.0
H968 H 0.26938 0.07653 0.66277 0.0
H969 H 0.26399 0.1627 0.55311 0.0
H970 H 0.28104 0.13291 0.54752 0.0
H971 H 0.24819 0.13207 0.54746 0.0
H972 H 0.30651 0.04861 0.54145 0.0
H973 H 0.2275 0.04641 0.54386 0.0
H974 H 0.31554 0.08743 0.60067 0.0
H975 H 0.31438 0.10982 0.5718 0.0
H976 H 0.32962 0.07872 0.56777 0.0
H977 H 0.21924 0.08421 0.60337 0.0
H978 H 0.20418 0.07451 0.57132 0.0
H979 H 0.21778 0.1066 0.5745 0.0
C980 C 0.35659 0.69621 0.11746 0.0
C981 C 0.3603 0.69672 0.14657 0.0
C982 C 0.37658 0.6952 0.09892 0.0
C983 C 0.40083 0.69462 0.10979 0.0
C984 C 0.40463 0.6939 0.13916 0.0
C985 C 0.38432 0.69501 0.15721 0.0
C986 C 0.37178 0.6961 0.06771 0.0
C987 C 0.4302 0.69311 0.15156 0.0
C988 C 0.4535 0.67844 0.06035 0.0
C989 C 0.46209 0.70355 0.05325 0.0
C990 C 0.43366 0.67512 0.07892 0.0
C991 C 0.42217 0.69743 0.09054 0.0
C992 C 0.43091 0.72277 0.08362 0.0
C993 C 0.45074 0.72551 0.06514 0.0
C994 C 0.42486 0.64781 0.08596 0.0
C995 C 0.41914 0.74708 0.09553 0.0
H996 H 0.33809 0.69773 0.10912 0.0
H997 H 0.38724 0.69498 0.17972 0.0
H998 H 0.37842 0.71504 0.05904 0.0
H999 H 0.38204 0.68032 0.05697 0.0
H1000 H 0.35192 0.69403 0.06264 0.0
H1001 H 0.42995 0.69006 0.17465 0.0
H1002 H 0.44107 0.6772 0.14184 0.0
H1003 H 0.43984 0.71183 0.14701 0.0
H1004 H 0.46215 0.66137 0.05126 0.0
H1005 H 0.4572 0.745 0.0598 0.0
H1006 H 0.40544 0.64539 0.07925 0.0
H1007 H 0.42546 0.64463 0.10899 0.0
H1008 H 0.43612 0.63248 0.07567 0.0
H1009 H 0.39945 0.74782 0.08944 0.0
H1010 H 0.42824 0.76535 0.08814 0.0
H1011 H 0.41994 0.74653 0.11878 0.0
C1012 C 0.75914 0.1726 0.37644 0.0
C1013 C 0.74425 0.17056 0.35243 0.0
C1014 C 0.75656 0.15498 0.39899 0.0
C1015 C 0.73918 0.13434 0.3972 0.0
C1016 C 0.7237 0.13252 0.37341 0.0
C1017 C 0.72611 0.15089 0.35163 0.0
C1018 C 0.773 0.15796 0.42435 0.0
C1019 C 0.70529 0.11049 0.3704 0.0
C1020 C 0.7546 0.07256 0.43793 0.0
C1021 C 0.7381 0.07379 0.4604 0.0
C1022 C 0.75473 0.09187 0.41696 0.0
C1023 C 0.73856 0.11345 0.41907 0.0
C1024 C 0.72191 0.11487 0.44187 0.0
C1025 C 0.72158 0.0947 0.46207 0.0
C1026 C 0.77219 0.08913 0.39254 0.0
C1027 C 0.70493 0.13797 0.44525 0.0
H1028 H 0.77336 0.18747 0.37739 0.0
H1029 H 0.71389 0.14953 0.33371 0.0
H1030 H 0.76197 0.15691 0.44389 0.0
H1031 H 0.78644 0.14166 0.42507 0.0
H1032 H 0.78333 0.17677 0.42406 0.0
H1033 H 0.69404 0.11235 0.35101 0.0
H1034 H 0.71509 0.09146 0.36985 0.0
H1035 H 0.69277 0.10993 0.38873 0.0
H1036 H 0.76726 0.05623 0.43661 0.0
H1037 H 0.70902 0.09572 0.47967 0.0
H1038 H 0.78547 0.10565 0.39238 0.0
H1039 H 0.76182 0.08992 0.37247 0.0
H1040 H 0.78267 0.07049 0.39335 0.0
H1041 H 0.71591 0.15628 0.44677 0.0
H1042 H 0.69321 0.13619 0.46423 0.0
H1043 H 0.69286 0.13994 0.4266 0.0
C1044 C 0.3655 0.27614 0.83728 0.0
C1045 C 0.34331 0.26282 0.84179 0.0
C1046 C 0.38437 0.27539 0.85739 0.0
C1047 C 0.38067 0.26146 0.88281 0.0
C1048 C 0.35807 0.24837 0.88764 0.0
C1049 C 0.33974 0.24896 0.86688 0.0
C1050 C 0.40838 0.28918 0.85127 0.0
C1051 C 0.35321 0.23387 0.91475 0.0
C1052 C 0.43653 0.24023 0.92518 0.0
C1053 C 0.43856 0.26066 0.94458 0.0
C1054 C 0.41778 0.24025 0.90485 0.0
C1055 C 0.40038 0.26085 0.90446 0.0
C1056 C 0.402 0.28114 0.92452 0.0
C1057 C 0.42126 0.28096 0.94411 0.0
C1058 C 0.4169 0.21855 0.88345 0.0
C1059 C 0.38345 0.30309 0.92521 0.0
H1060 H 0.36828 0.28661 0.8177 0.0
H1061 H 0.32248 0.23876 0.87033 0.0
H1062 H 0.4119 0.30445 0.86728 0.0
H1063 H 0.42379 0.27501 0.85248 0.0
H1064 H 0.40852 0.29858 0.8302 0.0
H1065 H 0.33444 0.22525 0.91547 0.0
H1066 H 0.3668 0.21789 0.9175 0.0
H1067 H 0.35545 0.24735 0.93278 0.0
H1068 H 0.44998 0.2246 0.92541 0.0
H1069 H 0.42265 0.29667 0.95928 0.0
H1070 H 0.41852 0.22695 0.86202 0.0
H1071 H 0.39897 0.2082 0.88456 0.0
H1072 H 0.43184 0.20402 0.88658 0.0
H1073 H 0.38426 0.31447 0.90536 0.0
H1074 H 0.38667 0.31669 0.94299 0.0
H1075 H 0.36458 0.29493 0.92699 0.0
C1076 C 0.29238 0.83795 0.33805 0.0
C1077 C 0.27094 0.82243 0.33826 0.0
C1078 C 0.29524 0.85919 0.3564 0.0
C1079 C 0.27664 0.8646 0.37622 0.0
C1080 C 0.2555 0.84839 0.3775 0.0
C1081 C 0.25272 0.82783 0.35827 0.0
C1082 C 0.31781 0.87635 0.35396 0.0
C1083 C 0.23546 0.85317 0.39875 0.0
C1084 C 0.28982 0.90875 0.43873 0.0
C1085 C 0.27726 0.93151 0.43082 0.0
C1086 C 0.29022 0.88683 0.42094 0.0
C1087 C 0.27842 0.88818 0.39442 0.0
C1088 C 0.26696 0.91177 0.38582 0.0
C1089 C 0.26611 0.93297 0.40438 0.0
C1090 C 0.30201 0.86182 0.43119 0.0
C1091 C 0.25485 0.91435 0.3574 0.0
H1092 H 0.30697 0.83368 0.32334 0.0
H1093 H 0.23591 0.81641 0.35857 0.0
H1094 H 0.31226 0.89657 0.34816 0.0
H1095 H 0.32746 0.8775 0.37444 0.0
H1096 H 0.33093 0.86909 0.33795 0.0
H1097 H 0.2215 0.83725 0.39896 0.0
H1098 H 0.24348 0.85493 0.4201 0.0
H1099 H 0.22605 0.8719 0.39391 0.0
H1100 H 0.29807 0.90758 0.45942 0.0
H1101 H 0.25638 0.95066 0.39838 0.0
H1102 H 0.31512 0.85429 0.41539 0.0
H1103 H 0.28762 0.84661 0.43416 0.0
H1104 H 0.31192 0.86453 0.45138 0.0
H1105 H 0.26763 0.90792 0.34068 0.0
H1106 H 0.24904 0.93478 0.35286 0.0
H1107 H 0.2384 0.9015 0.35644 0.0
C1108 C 0.63157 0.70014 0.82582 0.0
C1109 C 0.65663 0.69894 0.83271 0.0
C1110 C 0.61346 0.69935 0.84673 0.0
C1111 C 0.62059 0.69737 0.87524 0.0
C1112 C 0.64581 0.69503 0.88226 0.0
C1113 C 0.66354 0.69581 0.86089 0.0
C1114 C 0.58675 0.70171 0.83838 0.0
C1115 C 0.65414 0.69292 0.91242 0.0
C1116 C 0.57774 0.72757 0.92873 0.0
C1117 C 0.56563 0.7055 0.93971 0.0
C1118 C 0.59576 0.7251 0.90793 0.0
C1119 C 0.60183 0.69994 0.89774 0.0
C1120 C 0.58979 0.67754 0.90875 0.0
C1121 C 0.57182 0.68058 0.92965 0.0
C1122 C 0.60821 0.74948 0.89675 0.0
C1123 C 0.59578 0.65042 0.89835 0.0
H1124 H 0.62613 0.70215 0.80403 0.0
H1125 H 0.68289 0.69509 0.86637 0.0
H1126 H 0.57579 0.68576 0.84815 0.0
H1127 H 0.57928 0.72053 0.84613 0.0
H1128 H 0.58415 0.70097 0.81527 0.0
H1129 H 0.67415 0.68892 0.91423 0.0
H1130 H 0.65011 0.7115 0.92347 0.0
H1131 H 0.6439 0.67711 0.9234 0.0
H1132 H 0.57314 0.7469 0.93638 0.0
H1133 H 0.56257 0.66342 0.938 0.0
H1134 H 0.60479 0.75136 0.87387 0.0
H1135 H 0.62839 0.74805 0.89979 0.0
H1136 H 0.60162 0.76756 0.90719 0.0
H1137 H 0.59199 0.64915 0.87551 0.0
H1138 H 0.58498 0.63498 0.9093 0.0
H1139 H 0.61564 0.64636 0.90139 0.0
loop_
_geom_bond_atom_site_label_1
_geom_bond_atom_site_label_2
_geom_bond_distance
_geom_bond_site_symmetry_2
_ccdc_geom_bond_type
C0 C1 1.384 . S
C0 H13 0.947 . S
C0 C35 1.382 . S
C1 C0 1.384 . S
C1 C2 1.378 . S
C2 C1 1.378 . S
C2 C3 1.378 . S
C2 H14 0.952 . S
C3 C2 1.378 . S
C3 H15 0.950 . S
C3 C34 1.383 . S
H4 C23 0.947 . S
H5 C24 0.946 . S
H6 C26 0.953 . S
H7 C27 0.945 . S
H8 C29 0.952 . S
H9 C30 0.949 . S
H10 C32 0.950 . S
H11 C33 0.948 . S
H12 C35 0.951 . S
H13 C0 0.947 . S
H14 C2 0.952 . S
H15 C3 0.950 . S
N16 C19 1.382 . S
N16 C21 1.363 . S
N17 C19 1.371 . S
N17 C20 1.372 . S
N18 C20 1.361 . S
N18 C21 1.377 . S
C19 N16 1.382 . S
C19 N17 1.371 . S
C19 C22 1.480 . S
C20 N17 1.372 . S
C20 N18 1.361 . S
C20 C28 1.457 . S
C21 N16 1.363 . S
C21 N18 1.377 . S
C21 C34 1.479 . S
C22 C19 1.480 . S
C22 C23 1.383 . S
C22 C27 1.385 . S
C23 H4 0.947 . S
C23 C22 1.383 . S
C23 C24 1.388 . S
C24 H5 0.946 . S
C24 C23 1.388 . S
C24 C25 1.384 . S
C25 C24 1.384 . S
C25 C26 1.377 . S
C26 H6 0.953 . S
C26 C25 1.377 . S
C26 C27 1.369 . S
C27 H7 0.945 . S
C27 C22 1.385 . S
C27 C26 1.369 . S
C28 C20 1.457 . S
C28 C29 1.372 . S
C28 C33 1.364 . S
C29 H8 0.952 . S
C29 C28 1.372 . S
C29 C30 1.389 . S
C30 H9 0.949 . S
C30 C29 1.389 . S
C30 C31 1.387 . S
C31 C30 1.387 . S
C31 C32 1.372 . S
C32 H10 0.950 . S
C32 C31 1.372 . S
C32 C33 1.379 . S
C33 H11 0.948 . S
C33 C28 1.364 . S
C33 C32 1.379 . S
C34 C3 1.383 . S
C34 C21 1.479 . S
C34 C35 1.398 . S
C35 C0 1.382 . S
C35 H12 0.951 . S
C35 C34 1.398 . S
C36 C37 1.384 . S
C36 H49 0.947 . S
C36 C71 1.382 . S
C37 C36 1.384 . S
C37 C38 1.378 . S
C38 C37 1.378 . S
C38 C39 1.378 . S
C38 H50 0.952 . S
C39 C38 1.378 . S
C39 H51 0.950 . S
C39 C70 1.383 . S
H40 C59 0.947 . S
H41 C60 0.946 . S
H42 C62 0.953 . S
H43 C63 0.945 . S
H44 C65 0.952 . S
H45 C66 0.949 . S
H46 C68 0.950 . S
H47 C69 0.948 . S
H48 C71 0.951 . S
H49 C36 0.947 . S
H50 C38 0.952 . S
H51 C39 0.950 . S
N52 C55 1.382 . S
N52 C57 1.363 . S
N53 C55 1.371 . S
N53 C56 1.372 . S
N54 C56 1.361 . S
N54 C57 1.377 . S
C55 N52 1.382 . S
C55 N53 1.371 . S
C55 C58 1.480 . S
C56 N53 1.372 . S
C56 N54 1.361 . S
C56 C64 1.457 . S
C57 N52 1.363 . S
C57 N54 1.377 . S
C57 C70 1.479 . S
C58 C55 1.480 . S
C58 C59 1.383 . S
C58 C63 1.385 . S
C59 H40 0.947 . S
C59 C58 1.383 . S
C59 C60 1.388 . S
C60 H41 0.946 . S
C60 C59 1.388 . S
C60 C61 1.384 . S
C61 C60 1.384 . S
C61 C62 1.377 . S
C62 H42 0.953 . S
C62 C61 1.377 . S
C62 C63 1.369 . S
C63 H43 0.945 . S
C63 C58 1.385 . S
C63 C62 1.369 . S
C64 C56 1.457 . S
C64 C65 1.372 . S
C64 C69 1.364 . S
C65 H44 0.952 . S
C65 C64 1.372 . S
C65 C66 1.389 . S
C66 H45 0.949 . S
C66 C65 1.389 . S
C66 C67 1.387 . S
C67 C66 1.387 . S
C67 C68 1.372 . S
C68 H46 0.950 . S
C68 C67 1.372 . S
C68 C69 1.379 . S
C69 H47 0.948 . S
C69 C64 1.364 . S
C69 C68 1.379 . S
C70 C39 1.383 . S
C70 C57 1.479 . S
C70 C71 1.398 . S
C71 C36 1.382 . S
C71 H48 0.951 . S
C71 C70 1.398 . S
C72 C73 1.384 . S
C72 H85 0.947 . S
C72 C107 1.382 . S
C73 C72 1.384 . S
C73 C74 1.378 . S
C74 C73 1.378 . S
C74 C75 1.378 . S
C74 H86 0.952 . S
C75 C74 1.378 . S
C75 H87 0.950 . S
C75 C106 1.383 . S
H76 C95 0.947 . S
H77 C96 0.946 . S
H78 C98 0.953 . S
H79 C99 0.945 . S
H80 C101 0.952 . S
H81 C102 0.949 . S
H82 C104 0.950 . S
H83 C105 0.948 . S
H84 C107 0.951 . S
H85 C72 0.947 . S
H86 C74 0.952 . S
H87 C75 0.950 . S
N88 C91 1.382 . S
N88 C93 1.363 . S
N89 C91 1.371 . S
N89 C92 1.372 . S
N90 C92 1.361 . S
N90 C93 1.377 . S
C91 N88 1.382 . S
C91 N89 1.371 . S
C91 C94 1.480 . S
C92 N89 1.372 . S
C92 N90 1.361 . S
C92 C100 1.457 . S
C93 N88 1.363 . S
C93 N90 1.377 . S
C93 C106 1.479 . S
C94 C91 1.480 . S
C94 C95 1.383 . S
C94 C99 1.385 . S
C95 H76 0.947 . S
C95 C94 1.383 . S
C95 C96 1.388 . S
C96 H77 0.946 . S
C96 C95 1.388 . S
C96 C97 1.384 . S
C97 C96 1.384 . S
C97 C98 1.377 . S
C98 H78 0.953 . S
C98 C97 1.377 . S
C98 C99 1.369 . S
C99 H79 0.945 . S
C99 C94 1.385 . S
C99 C98 1.369 . S
C100 C92 1.457 . S
C100 C101 1.372 . S
C100 C105 1.364 . S
C101 H80 0.952 . S
C101 C100 1.372 . S
C101 C102 1.389 . S
C102 H81 0.949 . S
C102 C101 1.389 . S
C102 C103 1.387 . S
C103 C102 1.387 . S
C103 C104 1.372 . S
C104 H82 0.950 . S
C104 C103 1.372 . S
C104 C105 1.379 . S
C105 H83 0.948 . S
C105 C100 1.364 . S
C105 C104 1.379 . S
C106 C75 1.383 . S
C106 C93 1.479 . S
C106 C107 1.398 . S
C107 C72 1.382 . S
C107 H84 0.951 . S
C107 C106 1.398 . S
C108 C109 1.384 . S
C108 H121 0.947 . S
C108 C143 1.382 . S
C109 C108 1.384 . S
C109 C110 1.378 . S
C110 C109 1.378 . S
C110 C111 1.378 . S
C110 H122 0.952 . S
C111 C110 1.378 . S
C111 H123 0.950 . S
C111 C142 1.383 . S
H112 C131 0.947 . S
H113 C132 0.946 . S
H114 C134 0.953 . S
H115 C135 0.945 . S
H116 C137 0.952 . S
H117 C138 0.949 . S
H118 C140 0.950 . S
H119 C141 0.948 . S
H120 C143 0.951 . S
H121 C108 0.947 . S
H122 C110 0.952 . S
H123 C111 0.950 . S
N124 C127 1.382 . S
N124 C129 1.363 . S
N125 C127 1.371 . S
N125 C128 1.372 . S
N126 C128 1.361 . S
N126 C129 1.377 . S
C127 N124 1.382 . S
C127 N125 1.371 . S
C127 C130 1.480 . S
C128 N125 1.372 . S
C128 N126 1.361 . S
C128 C136 1.457 . S
C129 N124 1.363 . S
C129 N126 1.377 . S
C129 C142 1.479 . S
C130 C127 1.480 . S
C130 C131 1.383 . S
C130 C135 1.385 . S
C131 H112 0.947 . S
C131 C130 1.383 . S
C131 C132 1.388 . S
C132 H113 0.946 . S
C132 C131 1.388 . S
C132 C133 1.384 . S
C133 C132 1.384 . S
C133 C134 1.377 . S
C134 H114 0.953 . S
C134 C133 1.377 . S
C134 C135 1.369 . S
C135 H115 0.945 . S
C135 C130 1.385 . S
C135 C134 1.369 . S
C136 C128 1.457 . S
C136 C137 1.372 . S
C136 C141 1.364 . S
C137 H116 0.952 . S
C137 C136 1.372 . S
C137 C138 1.389 . S
C138 H117 0.949 . S
C138 C137 1.389 . S
C138 C139 1.387 . S
C139 C138 1.387 . S
C139 C140 1.372 . S
C140 H118 0.950 . S
C140 C139 1.372 . S
C140 C141 1.379 . S
C141 H119 0.948 . S
C141 C136 1.364 . S
C141 C140 1.379 . S
C142 C111 1.383 . S
C142 C129 1.479 . S
C142 C143 1.398 . S
C143 C108 1.382 . S
C143 H120 0.951 . S
C143 C142 1.398 . S
C144 C145 1.384 . S
C144 H157 0.947 . S
C144 C179 1.382 . S
C145 C144 1.384 . S
C145 C146 1.378 . S
C146 C145 1.378 . S
C146 C147 1.378 . S
C146 H158 0.952 . S
C147 C146 1.378 . S
C147 H159 0.950 . S
C147 C178 1.383 . S
H148 C167 0.947 . S
H149 C168 0.946 . S
H150 C170 0.953 . S
H151 C171 0.945 . S
H152 C173 0.952 . S
H153 C174 0.949 . S
H154 C176 0.950 . S
H155 C177 0.948 . S
H156 C179 0.951 . S
H157 C144 0.947 . S
H158 C146 0.952 . S
H159 C147 0.950 . S
N160 C163 1.382 . S
N160 C165 1.363 . S
N161 C163 1.371 . S
N161 C164 1.372 . S
N162 C164 1.361 . S
N162 C165 1.377 . S
C163 N160 1.382 . S
C163 N161 1.371 . S
C163 C166 1.480 . S
C164 N161 1.372 . S
C164 N162 1.361 . S
C164 C172 1.457 . S
C165 N160 1.363 . S
C165 N162 1.377 . S
C165 C178 1.479 . S
C166 C163 1.480 . S
C166 C167 1.383 . S
C166 C171 1.385 . S
C167 H148 0.947 . S
C167 C166 1.383 . S
C167 C168 1.388 . S
C168 H149 0.946 . S
C168 C167 1.388 . S
C168 C169 1.384 . S
C169 C168 1.384 . S
C169 C170 1.377 . S
C170 H150 0.953 . S
C170 C169 1.377 . S
C170 C171 1.369 . S
C171 H151 0.945 . S
C171 C166 1.385 . S
C171 C170 1.369 . S
C172 C164 1.457 . S
C172 C173 1.372 . S
C172 C177 1.364 . S
C173 H152 0.952 . S
C173 C172 1.372 . S
C173 C174 1.389 . S
C174 H153 0.949 . S
C174 C173 1.389 . S
C174 C175 1.387 . S
C175 C174 1.387 . S
C175 C176 1.372 . S
C176 H154 0.950 . S
C176 C175 1.372 . S
C176 C177 1.379 . S
C177 H155 0.948 . S
C177 C172 1.364 . S
C177 C176 1.379 . S
C178 C147 1.383 . S
C178 C165 1.479 . S
C178 C179 1.398 . S
C179 C144 1.382 . S
C179 H156 0.951 . S
C179 C178 1.398 . S
C180 C181 1.384 . S
C180 H193 0.947 . S
C180 C215 1.382 . S
C181 C180 1.384 . S
C181 C182 1.378 . S
C182 C181 1.378 . S
C182 C183 1.378 . S
C182 H194 0.952 . S
C183 C182 1.378 . S
C183 H195 0.950 . S
C183 C214 1.383 . S
H184 C203 0.947 . S
H185 C204 0.946 . S
H186 C206 0.953 . S
H187 C207 0.945 . S
H188 C209 0.952 . S
H189 C210 0.949 . S
H190 C212 0.950 . S
H191 C213 0.948 . S
H192 C215 0.951 . S
H193 C180 0.947 . S
H194 C182 0.952 . S
H195 C183 0.950 . S
N196 C199 1.382 . S
N196 C201 1.363 . S
N197 C199 1.371 . S
N197 C200 1.372 . S
N198 C200 1.361 . S
N198 C201 1.377 . S
C199 N196 1.382 . S
C199 N197 1.371 . S
C199 C202 1.480 . S
C200 N197 1.372 . S
C200 N198 1.361 . S
C200 C208 1.457 . S
C201 N196 1.363 . S
C201 N198 1.377 . S
C201 C214 1.479 . S
C202 C199 1.480 . S
C202 C203 1.383 . S
C202 C207 1.385 . S
C203 H184 0.947 . S
C203 C202 1.383 . S
C203 C204 1.388 . S
C204 H185 0.946 . S
C204 C203 1.388 . S
C204 C205 1.384 . S
C205 C204 1.384 . S
C205 C206 1.377 . S
C206 H186 0.953 . S
C206 C205 1.377 . S
C206 C207 1.369 . S
C207 H187 0.945 . S
C207 C202 1.385 . S
C207 C206 1.369 . S
C208 C200 1.457 . S
C208 C209 1.372 . S
C208 C213 1.364 . S
C209 H188 0.952 . S
C209 C208 1.372 . S
C209 C210 1.389 . S
C210 H189 0.949 . S
C210 C209 1.389 . S
C210 C211 1.387 . S
C211 C210 1.387 . S
C211 C212 1.372 . S
C212 H190 0.950 . S
C212 C211 1.372 . S
C212 C213 1.379 . S
C213 H191 0.948 . S
C213 C208 1.364 . S
C213 C212 1.379 . S
C214 C183 1.383 . S
C214 C201 1.479 . S
C214 C215 1.398 . S
C215 C180 1.382 . S
C215 H192 0.951 . S
C215 C214 1.398 . S
C216 C217 1.384 . S
C216 H229 0.947 . S
C216 C251 1.382 . S
C217 C216 1.384 . S
C217 C218 1.378 . S
C218 C217 1.378 . S
C218 C219 1.378 . S
C218 H230 0.952 . S
C219 C218 1.378 . S
C219 H231 0.950 . S
C219 C250 1.383 . S
H220 C239 0.947 . S
H221 C240 0.946 . S
H222 C242 0.953 . S
H223 C243 0.945 . S
H224 C245 0.952 . S
H225 C246 0.949 . S
H226 C248 0.950 . S
H227 C249 0.948 . S
H228 C251 0.951 . S
H229 C216 0.947 . S
H230 C218 0.952 . S
H231 C219 0.950 . S
N232 C235 1.382 . S
N232 C237 1.363 . S
N233 C235 1.371 . S
N233 C236 1.372 . S
N234 C236 1.361 . S
N234 C237 1.377 . S
C235 N232 1.382 . S
C235 N233 1.371 . S
C235 C238 1.480 . S
C236 N233 1.372 . S
C236 N234 1.361 . S
C236 C244 1.457 . S
C237 N232 1.363 . S
C237 N234 1.377 . S
C237 C250 1.479 . S
C238 C235 1.480 . S
C238 C239 1.383 . S
C238 C243 1.385 . S
C239 H220 0.947 . S
C239 C238 1.383 . S
C239 C240 1.388 . S
C240 H221 0.946 . S
C240 C239 1.388 . S
C240 C241 1.384 . S
C241 C240 1.384 . S
C241 C242 1.377 . S
C242 H222 0.953 . S
C242 C241 1.377 . S
C242 C243 1.369 . S
C243 H223 0.945 . S
C243 C238 1.385 . S
C243 C242 1.369 . S
C244 C236 1.457 . S
C244 C245 1.372 . S
C244 C249 1.364 . S
C245 H224 0.952 . S
C245 C244 1.372 . S
C245 C246 1.389 . S
C246 H225 0.949 . S
C246 C245 1.389 . S
C246 C247 1.387 . S
C247 C246 1.387 . S
C247 C248 1.372 . S
C248 H226 0.950 . S
C248 C247 1.372 . S
C248 C249 1.379 . S
C249 H227 0.948 . S
C249 C244 1.364 . S
C249 C248 1.379 . S
C250 C219 1.383 . S
C250 C237 1.479 . S
C250 C251 1.398 . S
C251 C216 1.382 . S
C251 H228 0.951 . S
C251 C250 1.398 . S
C252 C253 1.384 . S
C252 H265 0.947 . S
C252 C287 1.382 . S
C253 C252 1.384 . S
C253 C254 1.378 . S
C254 C253 1.378 . S
C254 C255 1.378 . S
C254 H266 0.952 . S
C255 C254 1.378 . S
C255 H267 0.950 . S
C255 C286 1.383 . S
H256 C275 0.947 . S
H257 C276 0.946 . S
H258 C278 0.953 . S
H259 C279 0.945 . S
H260 C281 0.952 . S
H261 C282 0.949 . S
H262 C284 0.950 . S
H263 C285 0.948 . S
H264 C287 0.951 . S
H265 C252 0.947 . S
H266 C254 0.952 . S
H267 C255 0.950 . S
N268 C271 1.382 . S
N268 C273 1.363 . S
N269 C271 1.371 . S
N269 C272 1.372 . S
N270 C272 1.361 . S
N270 C273 1.377 . S
C271 N268 1.382 . S
C271 N269 1.371 . S
C271 C274 1.480 . S
C272 N269 1.372 . S
C272 N270 1.361 . S
C272 C280 1.457 . S
C273 N268 1.363 . S
C273 N270 1.377 . S
C273 C286 1.479 . S
C274 C271 1.480 . S
C274 C275 1.383 . S
C274 C279 1.385 . S
C275 H256 0.947 . S
C275 C274 1.383 . S
C275 C276 1.388 . S
C276 H257 0.946 . S
C276 C275 1.388 . S
C276 C277 1.384 . S
C277 C276 1.384 . S
C277 C278 1.377 . S
C278 H258 0.953 . S
C278 C277 1.377 . S
C278 C279 1.369 . S
C279 H259 0.945 . S
C279 C274 1.385 . S
C279 C278 1.369 . S
C280 C272 1.457 . S
C280 C281 1.372 . S
C280 C285 1.364 . S
C281 H260 0.952 . S
C281 C280 1.372 . S
C281 C282 1.389 . S
C282 H261 0.949 . S
C282 C281 1.389 . S
C282 C283 1.387 . S
C283 C282 1.387 . S
C283 C284 1.372 . S
C284 H262 0.950 . S
C284 C283 1.372 . S
C284 C285 1.379 . S
C285 H263 0.948 . S
C285 C280 1.364 . S
C285 C284 1.379 . S
C286 C255 1.383 . S
C286 C273 1.479 . S
C286 C287 1.398 . S
C287 C252 1.382 . S
C287 H264 0.951 . S
C287 C286 1.398 . S
C288 O290 1.247 . S
C288 O292 1.258 . S
C289 O296 1.247 . S
C289 O297 1.258 . S
O290 C288 1.247 . S
O290 Zn291 2.028 1_655 S
Zn291 O290 2.028 1_455 S
Zn291 O295 2.035 . S
Zn291 O297 2.035 . S
Zn291 O298 2.028 1_455 S
O292 C288 1.258 . S
O292 Zn293 2.035 1_655 S
Zn293 O292 2.035 1_455 S
Zn293 O294 2.028 . S
Zn293 O296 2.028 . S
Zn293 O299 2.035 1_455 S
O294 Zn293 2.028 . S
O294 C300 1.247 . S
O295 Zn291 2.035 . S
O295 C300 1.258 . S
O296 C289 1.247 . S
O296 Zn293 2.028 . S
O297 C289 1.258 . S
O297 Zn291 2.035 . S
O298 Zn291 2.028 1_655 S
O298 C301 1.247 . S
O299 Zn293 2.035 1_655 S
O299 C301 1.258 . S
C300 O294 1.247 . S
C300 O295 1.258 . S
C301 O298 1.247 . S
C301 O299 1.258 . S
C302 O304 1.247 . S
C302 O306 1.258 . S
C303 O310 1.247 . S
C303 O311 1.258 . S
O304 C302 1.247 . S
O304 Zn305 2.028 1_655 S
Zn305 O304 2.028 1_455 S
Zn305 O309 2.035 . S
Zn305 O311 2.035 . S
Zn305 O312 2.028 1_455 S
O306 C302 1.258 . S
O306 Zn307 2.035 1_655 S
Zn307 O306 2.035 1_455 S
Zn307 O308 2.028 . S
Zn307 O310 2.028 . S
Zn307 O313 2.035 1_455 S
O308 Zn307 2.028 . S
O308 C314 1.247 . S
O309 Zn305 2.035 . S
O309 C314 1.258 . S
O310 C303 1.247 . S
O310 Zn307 2.028 . S
O311 C303 1.258 . S
O311 Zn305 2.035 . S
O312 Zn305 2.028 1_655 S
O312 C315 1.247 . S
O313 Zn307 2.035 1_655 S
O313 C315 1.258 . S
C314 O308 1.247 . S
C314 O309 1.258 . S
C315 O312 1.247 . S
C315 O313 1.258 . S
C316 O318 1.247 . S
C316 O320 1.258 . S
C317 O324 1.247 . S
C317 O325 1.258 . S
O318 C316 1.247 . S
O318 Zn319 2.028 1_565 S
Zn319 O318 2.028 1_545 S
Zn319 O323 2.035 . S
Zn319 O325 2.035 . S
Zn319 O326 2.028 1_545 S
O320 C316 1.258 . S
O320 Zn321 2.035 1_565 S
Zn321 O320 2.035 1_545 S
Zn321 O322 2.028 . S
Zn321 O324 2.028 . S
Zn321 O327 2.035 1_545 S
O322 Zn321 2.028 . S
O322 C328 1.247 . S
O323 Zn319 2.035 . S
O323 C328 1.258 . S
O324 C317 1.247 . S
O324 Zn321 2.028 . S
O325 C317 1.258 . S
O325 Zn319 2.035 . S
O326 Zn319 2.028 1_565 S
O326 C329 1.247 . S
O327 Zn321 2.035 1_565 S
O327 C329 1.258 . S
C328 O322 1.247 . S
C328 O323 1.258 . S
C329 O326 1.247 . S
C329 O327 1.258 . S
C330 O332 1.247 . S
C330 O334 1.258 . S
C331 O338 1.247 . S
C331 O339 1.258 . S
O332 C330 1.247 . S
O332 Zn333 2.028 . S
Zn333 O332 2.028 . S
Zn333 O337 2.035 . S
Zn333 O339 2.035 1_554 S
Zn333 O340 2.028 1_554 S
O334 C330 1.258 . S
O334 Zn335 2.035 . S
Zn335 O334 2.035 . S
Zn335 O336 2.028 . S
Zn335 O338 2.028 1_554 S
Zn335 O341 2.035 1_554 S
O336 Zn335 2.028 . S
O336 C342 1.247 . S
O337 Zn333 2.035 . S
O337 C342 1.258 . S
O338 C331 1.247 . S
O338 Zn335 2.028 1_556 S
O339 C331 1.258 . S
O339 Zn333 2.035 1_556 S
O340 Zn333 2.028 1_556 S
O340 C343 1.247 . S
O341 Zn335 2.035 1_556 S
O341 C343 1.258 . S
C342 O336 1.247 . S
C342 O337 1.258 . S
C343 O340 1.247 . S
C343 O341 1.258 . S
C344 O346 1.247 . S
C344 O348 1.258 . S
C345 O352 1.247 . S
C345 O353 1.258 . S
O346 C344 1.247 . S
O346 Zn347 2.002 1_565 S
Zn347 O346 2.002 1_545 S
Zn347 O351 2.062 . S
Zn347 O353 2.062 . S
Zn347 O354 2.002 1_545 S
O348 C344 1.258 . S
O348 Zn349 2.035 1_565 S
Zn349 O348 2.035 1_545 S
Zn349 O350 2.028 . S
Zn349 O352 2.028 . S
Zn349 O355 2.035 1_545 S
O350 Zn349 2.028 . S
O350 C356 1.247 . S
O351 Zn347 2.062 . S
O351 C356 1.258 . S
O352 C345 1.247 . S
O352 Zn349 2.028 . S
O353 C345 1.258 . S
O353 Zn347 2.062 . S
O354 Zn347 2.002 1_565 S
O354 C357 1.247 . S
O355 Zn349 2.035 1_565 S
O355 C357 1.258 . S
C356 O350 1.247 . S
C356 O351 1.258 . S
C357 O354 1.247 . S
C357 O355 1.258 . S
C358 O360 1.247 . S
C358 O362 1.258 . S
C359 O366 1.247 . S
C359 O367 1.258 . S
O360 C358 1.247 . S
O360 Zn361 2.035 . S
Zn361 O360 2.035 . S
Zn361 O365 2.042 . S
Zn361 O367 2.029 1_554 S
Zn361 O368 2.021 1_554 S
O362 C358 1.258 . S
O362 Zn363 2.035 1_554 S
Zn363 O362 2.035 1_556 S
Zn363 O364 2.028 1_556 S
Zn363 O366 2.028 . S
Zn363 O369 2.035 . S
O364 Zn363 2.028 1_554 S
O364 C370 1.247 . S
O365 Zn361 2.042 . S
O365 C370 1.258 . S
O366 C359 1.247 . S
O366 Zn363 2.028 . S
O367 C359 1.258 . S
O367 Zn361 2.029 1_556 S
O368 Zn361 2.021 1_556 S
O368 C371 1.247 . S
O369 Zn363 2.035 . S
O369 C371 1.258 . S
C370 O364 1.247 . S
C370 O365 1.258 . S
C371 O368 1.247 . S
C371 O369 1.258 . S
C372 C373 1.391 . S
C372 C374 1.394 . S
C372 H388 0.931 . S
C373 C372 1.391 . S
C373 C377 1.376 . S
C374 C372 1.394 . S
C374 C375 1.369 . S
C374 C378 1.531 . S
C375 C374 1.369 . S
C375 C376 1.410 . S
C375 C383 1.503 . S
C376 C375 1.410 . S
C376 C377 1.392 . S
C376 C379 1.511 . S
C377 C373 1.376 . S
C377 C376 1.392 . S
C377 H389 0.929 . S
C378 C374 1.531 . S
C378 H390 0.960 . S
C378 H391 0.962 . S
C378 H392 0.960 . S
C379 C376 1.511 . S
C379 H393 0.961 . S
C379 H394 0.961 . S
C379 H395 0.961 . S
C380 C381 1.370 . S
C380 C382 1.363 . S
C380 H396 0.931 . S
C381 C380 1.370 . S
C381 C385 1.408 . S
C382 C380 1.363 . S
C382 C383 1.370 . S
C382 C386 1.524 . S
C383 C375 1.503 . S
C383 C382 1.370 . S
C383 C384 1.403 . S
C384 C383 1.403 . S
C384 C385 1.404 . S
C384 C387 1.539 . S
C385 C381 1.408 . S
C385 C384 1.404 . S
C385 H397 0.930 . S
C386 C382 1.524 . S
C386 H398 0.956 . S
C386 H399 0.961 . S
C386 H400 0.961 . S
C387 C384 1.539 . S
C387 H401 0.958 . S
C387 H402 0.961 . S
C387 H403 0.960 . S
H388 C372 0.931 . S
H389 C377 0.929 . S
H390 C378 0.960 . S
H391 C378 0.962 . S
H392 C378 0.960 . S
H393 C379 0.961 . S
H394 C379 0.961 . S
H395 C379 0.961 . S
H396 C380 0.931 . S
H397 C385 0.930 . S
H398 C386 0.956 . S
H399 C386 0.961 . S
H400 C386 0.961 . S
H401 C387 0.958 . S
H402 C387 0.961 . S
H403 C387 0.960 . S
C404 C405 1.391 . S
C404 C406 1.394 . S
C404 H420 0.931 . S
C405 C404 1.391 . S
C405 C409 1.376 . S
C406 C404 1.394 . S
C406 C407 1.369 . S
C406 C410 1.531 . S
C407 C406 1.369 . S
C407 C408 1.410 . S
C407 C415 1.503 . S
C408 C407 1.410 . S
C408 C409 1.392 . S
C408 C411 1.511 . S
C409 C405 1.376 . S
C409 C408 1.392 . S
C409 H421 0.929 . S
C410 C406 1.531 . S
C410 H422 0.960 . S
C410 H423 0.962 . S
C410 H424 0.960 . S
C411 C408 1.511 . S
C411 H425 0.961 . S
C411 H426 0.961 . S
C411 H427 0.961 . S
C412 C413 1.370 . S
C412 C414 1.363 . S
C412 H428 0.931 . S
C413 C412 1.370 . S
C413 C417 1.408 . S
C414 C412 1.363 . S
C414 C415 1.370 . S
C414 C418 1.524 . S
C415 C407 1.503 . S
C415 C414 1.370 . S
C415 C416 1.403 . S
C416 C415 1.403 . S
C416 C417 1.404 . S
C416 C419 1.539 . S
C417 C413 1.408 . S
C417 C416 1.404 . S
C417 H429 0.930 . S
C418 C414 1.524 . S
C418 H430 0.956 . S
C418 H431 0.961 . S
C418 H432 0.961 . S
C419 C416 1.539 . S
C419 H433 0.958 . S
C419 H434 0.961 . S
C419 H435 0.960 . S
H420 C404 0.931 . S
H421 C409 0.929 . S
H422 C410 0.960 . S
H423 C410 0.962 . S
H424 C410 0.960 . S
H425 C411 0.961 . S
H426 C411 0.961 . S
H427 C411 0.961 . S
H428 C412 0.931 . S
H429 C417 0.930 . S
H430 C418 0.956 . S
H431 C418 0.961 . S
H432 C418 0.961 . S
H433 C419 0.958 . S
H434 C419 0.961 . S
H435 C419 0.960 . S
C436 C437 1.391 . S
C436 C438 1.394 . S
C436 H452 0.931 . S
C437 C436 1.391 . S
C437 C441 1.376 . S
C438 C436 1.394 . S
C438 C439 1.369 . S
C438 C442 1.531 . S
C439 C438 1.369 . S
C439 C440 1.410 . S
C439 C447 1.503 . S
C440 C439 1.410 . S
C440 C441 1.392 . S
C440 C443 1.511 . S
C441 C437 1.376 . S
C441 C440 1.392 . S
C441 H453 0.929 . S
C442 C438 1.531 . S
C442 H454 0.960 . S
C442 H455 0.962 . S
C442 H456 0.960 . S
C443 C440 1.511 . S
C443 H457 0.961 . S
C443 H458 0.961 . S
C443 H459 0.961 . S
C444 C445 1.370 . S
C444 C446 1.363 . S
C444 H460 0.931 . S
C445 C444 1.370 . S
C445 C449 1.408 . S
C446 C444 1.363 . S
C446 C447 1.370 . S
C446 C450 1.524 . S
C447 C439 1.503 . S
C447 C446 1.370 . S
C447 C448 1.403 . S
C448 C447 1.403 . S
C448 C449 1.404 . S
C448 C451 1.539 . S
C449 C445 1.408 . S
C449 C448 1.404 . S
C449 H461 0.930 . S
C450 C446 1.524 . S
C450 H462 0.956 . S
C450 H463 0.961 . S
C450 H464 0.961 . S
C451 C448 1.539 . S
C451 H465 0.958 . S
C451 H466 0.961 . S
C451 H467 0.960 . S
H452 C436 0.931 . S
H453 C441 0.929 . S
H454 C442 0.960 . S
H455 C442 0.962 . S
H456 C442 0.960 . S
H457 C443 0.961 . S
H458 C443 0.961 . S
H459 C443 0.961 . S
H460 C444 0.931 . S
H461 C449 0.930 . S
H462 C450 0.956 . S
H463 C450 0.961 . S
H464 C450 0.961 . S
H465 C451 0.958 . S
H466 C451 0.961 . S
H467 C451 0.960 . S
C468 C469 1.391 . S
C468 C470 1.394 . S
C468 H484 0.931 . S
C469 C468 1.391 . S
C469 C473 1.376 . S
C470 C468 1.394 . S
C470 C471 1.369 . S
C470 C474 1.531 . S
C471 C470 1.369 . S
C471 C472 1.410 . S
C471 C479 1.503 . S
C472 C471 1.410 . S
C472 C473 1.392 . S
C472 C475 1.511 . S
C473 C469 1.376 . S
C473 C472 1.392 . S
C473 H485 0.929 . S
C474 C470 1.531 . S
C474 H486 0.960 . S
C474 H487 0.962 . S
C474 H488 0.960 . S
C475 C472 1.511 . S
C475 H489 0.961 . S
C475 H490 0.961 . S
C475 H491 0.961 . S
C476 C477 1.370 . S
C476 C478 1.363 . S
C476 H492 0.931 . S
C477 C476 1.370 . S
C477 C481 1.408 . S
C478 C476 1.363 . S
C478 C479 1.370 . S
C478 C482 1.524 . S
C479 C471 1.503 . S
C479 C478 1.370 . S
C479 C480 1.403 . S
C480 C479 1.403 . S
C480 C481 1.404 . S
C480 C483 1.539 . S
C481 C477 1.408 . S
C481 C480 1.404 . S
C481 H493 0.930 . S
C482 C478 1.524 . S
C482 H494 0.956 . S
C482 H495 0.961 . S
C482 H496 0.961 . S
C483 C480 1.539 . S
C483 H497 0.958 . S
C483 H498 0.961 . S
C483 H499 0.960 . S
H484 C468 0.931 . S
H485 C473 0.929 . S
H486 C474 0.960 . S
H487 C474 0.962 . S
H488 C474 0.960 . S
H489 C475 0.961 . S
H490 C475 0.961 . S
H491 C475 0.961 . S
H492 C476 0.931 . S
H493 C481 0.930 . S
H494 C482 0.956 . S
H495 C482 0.961 . S
H496 C482 0.961 . S
H497 C483 0.958 . S
H498 C483 0.961 . S
H499 C483 0.960 . S
C500 C501 1.391 . S
C500 C502 1.394 . S
C500 H516 0.931 . S
C501 C500 1.391 . S
C501 C505 1.376 . S
C502 C500 1.394 . S
C502 C503 1.369 . S
C502 C506 1.531 . S
C503 C502 1.369 . S
C503 C504 1.410 . S
C503 C511 1.503 . S
C504 C503 1.410 . S
C504 C505 1.392 . S
C504 C507 1.511 . S
C505 C501 1.376 . S
C505 C504 1.392 . S
C505 H517 0.929 . S
C506 C502 1.531 . S
C506 H518 0.960 . S
C506 H519 0.962 . S
C506 H520 0.960 . S
C507 C504 1.511 . S
C507 H521 0.961 . S
C507 H522 0.961 . S
C507 H523 0.961 . S
C508 C509 1.370 . S
C508 C510 1.363 . S
C508 H524 0.931 . S
C509 C508 1.370 . S
C509 C513 1.408 . S
C510 C508 1.363 . S
C510 C511 1.370 . S
C510 C514 1.524 . S
C511 C503 1.503 . S
C511 C510 1.370 . S
C511 C512 1.403 . S
C512 C511 1.403 . S
C512 C513 1.404 . S
C512 C515 1.539 . S
C513 C509 1.408 . S
C513 C512 1.404 . S
C513 H525 0.930 . S
C514 C510 1.524 . S
C514 H526 0.956 . S
C514 H527 0.961 . S
C514 H528 0.961 . S
C515 C512 1.539 . S
C515 H529 0.958 . S
C515 H530 0.961 . S
C515 H531 0.960 . S
H516 C500 0.931 . S
H517 C505 0.929 . S
H518 C506 0.960 . S
H519 C506 0.962 . S
H520 C506 0.960 . S
H521 C507 0.961 . S
H522 C507 0.961 . S
H523 C507 0.961 . S
H524 C508 0.931 . S
H525 C513 0.930 . S
H526 C514 0.956 . S
H527 C514 0.961 . S
H528 C514 0.961 . S
H529 C515 0.958 . S
H530 C515 0.961 . S
H531 C515 0.960 . S
C532 C533 1.391 . S
C532 C534 1.394 . S
C532 H548 0.931 . S
C533 C532 1.391 . S
C533 C537 1.376 . S
C534 C532 1.394 . S
C534 C535 1.369 . S
C534 C538 1.531 . S
C535 C534 1.369 . S
C535 C536 1.410 . S
C535 C543 1.503 . S
C536 C535 1.410 . S
C536 C537 1.392 . S
C536 C539 1.511 . S
C537 C533 1.376 . S
C537 C536 1.392 . S
C537 H549 0.929 . S
C538 C534 1.531 . S
C538 H550 0.960 . S
C538 H551 0.962 . S
C538 H552 0.960 . S
C539 C536 1.511 . S
C539 H553 0.961 . S
C539 H554 0.961 . S
C539 H555 0.961 . S
C540 C541 1.370 . S
C540 C542 1.363 . S
C540 H556 0.931 . S
C541 C540 1.370 . S
C541 C545 1.408 . S
C542 C540 1.363 . S
C542 C543 1.370 . S
C542 C546 1.524 . S
C543 C535 1.503 . S
C543 C542 1.370 . S
C543 C544 1.403 . S
C544 C543 1.403 . S
C544 C545 1.404 . S
C544 C547 1.539 . S
C545 C541 1.408 . S
C545 C544 1.404 . S
C545 H557 0.930 . S
C546 C542 1.524 . S
C546 H558 0.956 . S
C546 H559 0.961 . S
C546 H560 0.961 . S
C547 C544 1.539 . S
C547 H561 0.958 . S
C547 H562 0.961 . S
C547 H563 0.960 . S
H548 C532 0.931 . S
H549 C537 0.929 . S
H550 C538 0.960 . S
H551 C538 0.962 . S
H552 C538 0.960 . S
H553 C539 0.961 . S
H554 C539 0.961 . S
H555 C539 0.961 . S
H556 C540 0.931 . S
H557 C545 0.930 . S
H558 C546 0.956 . S
H559 C546 0.961 . S
H560 C546 0.961 . S
H561 C547 0.958 . S
H562 C547 0.961 . S
H563 C547 0.960 . S
C564 C565 1.391 . S
C564 C566 1.394 . S
C564 H580 0.931 . S
C565 C564 1.391 . S
C565 C569 1.376 . S
C566 C564 1.394 . S
C566 C567 1.369 . S
C566 C570 1.531 . S
C567 C566 1.369 . S
C567 C568 1.410 . S
C567 C575 1.503 . S
C568 C567 1.410 . S
C568 C569 1.392 . S
C568 C571 1.511 . S
C569 C565 1.376 . S
C569 C568 1.392 . S
C569 H581 0.929 . S
C570 C566 1.531 . S
C570 H582 0.960 . S
C570 H583 0.962 . S
C570 H584 0.960 . S
C571 C568 1.511 . S
C571 H585 0.961 . S
C571 H586 0.961 . S
C571 H587 0.961 . S
C572 C573 1.370 . S
C572 C574 1.363 . S
C572 H588 0.931 . S
C573 C572 1.370 . S
C573 C577 1.408 . S
C574 C572 1.363 . S
C574 C575 1.370 . S
C574 C578 1.524 . S
C575 C567 1.503 . S
C575 C574 1.370 . S
C575 C576 1.403 . S
C576 C575 1.403 . S
C576 C577 1.404 . S
C576 C579 1.539 . S
C577 C573 1.408 . S
C577 C576 1.404 . S
C577 H589 0.930 . S
C578 C574 1.524 . S
C578 H590 0.956 . S
C578 H591 0.961 . S
C578 H592 0.961 . S
C579 C576 1.539 . S
C579 H593 0.958 . S
C579 H594 0.961 . S
C579 H595 0.960 . S
H580 C564 0.931 . S
H581 C569 0.929 . S
H582 C570 0.960 . S
H583 C570 0.962 . S
H584 C570 0.960 . S
H585 C571 0.961 . S
H586 C571 0.961 . S
H587 C571 0.961 . S
H588 C572 0.931 . S
H589 C577 0.930 . S
H590 C578 0.956 . S
H591 C578 0.961 . S
H592 C578 0.961 . S
H593 C579 0.958 . S
H594 C579 0.961 . S
H595 C579 0.960 . S
C596 C597 1.391 . S
C596 C598 1.394 . S
C596 H612 0.931 . S
C597 C596 1.391 . S
C597 C601 1.376 . S
C598 C596 1.394 . S
C598 C599 1.369 . S
C598 C602 1.531 . S
C599 C598 1.369 . S
C599 C600 1.410 . S
C599 C607 1.503 . S
C600 C599 1.410 . S
C600 C601 1.392 . S
C600 C603 1.511 . S
C601 C597 1.376 . S
C601 C600 1.392 . S
C601 H613 0.929 . S
C602 C598 1.531 . S
C602 H614 0.960 . S
C602 H615 0.962 . S
C602 H616 0.960 . S
C603 C600 1.511 . S
C603 H617 0.961 . S
C603 H618 0.961 . S
C603 H619 0.961 . S
C604 C605 1.370 . S
C604 C606 1.363 . S
C604 H620 0.931 . S
C605 C604 1.370 . S
C605 C609 1.408 . S
C606 C604 1.363 . S
C606 C607 1.370 . S
C606 C610 1.524 . S
C607 C599 1.503 . S
C607 C606 1.370 . S
C607 C608 1.403 . S
C608 C607 1.403 . S
C608 C609 1.404 . S
C608 C611 1.539 . S
C609 C605 1.408 . S
C609 C608 1.404 . S
C609 H621 0.930 . S
C610 C606 1.524 . S
C610 H622 0.956 . S
C610 H623 0.961 . S
C610 H624 0.961 . S
C611 C608 1.539 . S
C611 H625 0.958 . S
C611 H626 0.961 . S
C611 H627 0.960 . S
H612 C596 0.931 . S
H613 C601 0.929 . S
H614 C602 0.960 . S
H615 C602 0.962 . S
H616 C602 0.960 . S
H617 C603 0.961 . S
H618 C603 0.961 . S
H619 C603 0.961 . S
H620 C604 0.931 . S
H621 C609 0.930 . S
H622 C610 0.956 . S
H623 C610 0.961 . S
H624 C610 0.961 . S
H625 C611 0.958 . S
H626 C611 0.961 . S
H627 C611 0.960 . S
C628 C629 1.391 . S
C628 C630 1.394 . S
C628 H644 0.931 . S
C629 C628 1.391 . S
C629 C633 1.376 . S
C630 C628 1.394 . S
C630 C631 1.369 . S
C630 C634 1.531 . S
C631 C630 1.369 . S
C631 C632 1.410 . S
C631 C639 1.503 . S
C632 C631 1.410 . S
C632 C633 1.392 . S
C632 C635 1.511 . S
C633 C629 1.376 . S
C633 C632 1.392 . S
C633 H645 0.929 . S
C634 C630 1.531 . S
C634 H646 0.960 . S
C634 H647 0.962 . S
C634 H648 0.960 . S
C635 C632 1.511 . S
C635 H649 0.961 . S
C635 H650 0.961 . S
C635 H651 0.961 . S
C636 C637 1.370 . S
C636 C638 1.363 . S
C636 H652 0.931 . S
C637 C636 1.370 . S
C637 C641 1.408 . S
C638 C636 1.363 . S
C638 C639 1.370 . S
C638 C642 1.524 . S
C639 C631 1.503 . S
C639 C638 1.370 . S
C639 C640 1.403 . S
C640 C639 1.403 . S
C640 C641 1.404 . S
C640 C643 1.539 . S
C641 C637 1.408 . S
C641 C640 1.404 . S
C641 H653 0.930 . S
C642 C638 1.524 . S
C642 H654 0.956 . S
C642 H655 0.961 . S
C642 H656 0.961 . S
C643 C640 1.539 . S
C643 H657 0.958 . S
C643 H658 0.961 . S
C643 H659 0.960 . S
H644 C628 0.931 . S
H645 C633 0.929 . S
H646 C634 0.960 . S
H647 C634 0.962 . S
H648 C634 0.960 . S
H649 C635 0.961 . S
H650 C635 0.961 . S
H651 C635 0.961 . S
H652 C636 0.931 . S
H653 C641 0.930 . S
H654 C642 0.956 . S
H655 C642 0.961 . S
H656 C642 0.961 . S
H657 C643 0.958 . S
H658 C643 0.961 . S
H659 C643 0.960 . S
C660 C661 1.391 . S
C660 C662 1.394 . S
C660 H676 0.931 . S
C661 C660 1.391 . S
C661 C665 1.376 . S
C662 C660 1.394 . S
C662 C663 1.369 . S
C662 C666 1.531 . S
C663 C662 1.369 . S
C663 C664 1.410 . S
C663 C671 1.503 . S
C664 C663 1.410 . S
C664 C665 1.392 . S
C664 C667 1.511 . S
C665 C661 1.376 . S
C665 C664 1.392 . S
C665 H677 0.929 . S
C666 C662 1.531 . S
C666 H678 0.960 . S
C666 H679 0.962 . S
C666 H680 0.960 . S
C667 C664 1.511 . S
C667 H681 0.961 . S
C667 H682 0.961 . S
C667 H683 0.961 . S
C668 C669 1.370 . S
C668 C670 1.363 . S
C668 H684 0.931 . S
C669 C668 1.370 . S
C669 C673 1.408 . S
C670 C668 1.363 . S
C670 C671 1.370 . S
C670 C674 1.524 . S
C671 C663 1.503 . S
C671 C670 1.370 . S
C671 C672 1.403 . S
C672 C671 1.403 . S
C672 C673 1.404 . S
C672 C675 1.539 . S
C673 C669 1.408 . S
C673 C672 1.404 . S
C673 H685 0.930 . S
C674 C670 1.524 . S
C674 H686 0.956 . S
C674 H687 0.961 . S
C674 H688 0.961 . S
C675 C672 1.539 . S
C675 H689 0.958 . S
C675 H690 0.961 . S
C675 H691 0.960 . S
H676 C660 0.931 . S
H677 C665 0.929 . S
H678 C666 0.960 . S
H679 C666 0.962 . S
H680 C666 0.960 . S
H681 C667 0.961 . S
H682 C667 0.961 . S
H683 C667 0.961 . S
H684 C668 0.931 . S
H685 C673 0.930 . S
H686 C674 0.956 . S
H687 C674 0.961 . S
H688 C674 0.961 . S
H689 C675 0.958 . S
H690 C675 0.961 . S
H691 C675 0.960 . S
C692 C693 1.391 . S
C692 C694 1.394 . S
C692 H708 0.931 . S
C693 C692 1.391 . S
C693 C697 1.376 . S
C694 C692 1.394 . S
C694 C695 1.369 . S
C694 C698 1.531 . S
C695 C694 1.369 . S
C695 C696 1.410 . S
C695 C703 1.503 . S
C696 C695 1.410 . S
C696 C697 1.392 . S
C696 C699 1.511 . S
C697 C693 1.376 . S
C697 C696 1.392 . S
C697 H709 0.929 . S
C698 C694 1.531 . S
C698 H710 0.960 . S
C698 H711 0.962 . S
C698 H712 0.960 . S
C699 C696 1.511 . S
C699 H713 0.961 . S
C699 H714 0.961 . S
C699 H715 0.961 . S
C700 C701 1.370 . S
C700 C702 1.363 . S
C700 H716 0.931 . S
C701 C700 1.370 . S
C701 C705 1.408 . S
C702 C700 1.363 . S
C702 C703 1.370 . S
C702 C706 1.524 . S
C703 C695 1.503 . S
C703 C702 1.370 . S
C703 C704 1.403 . S
C704 C703 1.403 . S
C704 C705 1.404 . S
C704 C707 1.539 . S
C705 C701 1.408 . S
C705 C704 1.404 . S
C705 H717 0.930 . S
C706 C702 1.524 . S
C706 H718 0.956 . S
C706 H719 0.961 . S
C706 H720 0.961 . S
C707 C704 1.539 . S
C707 H721 0.958 . S
C707 H722 0.961 . S
C707 H723 0.960 . S
H708 C692 0.931 . S
H709 C697 0.929 . S
H710 C698 0.960 . S
H711 C698 0.962 . S
H712 C698 0.960 . S
H713 C699 0.961 . S
H714 C699 0.961 . S
H715 C699 0.961 . S
H716 C700 0.931 . S
H717 C705 0.930 . S
H718 C706 0.956 . S
H719 C706 0.961 . S
H720 C706 0.961 . S
H721 C707 0.958 . S
H722 C707 0.961 . S
H723 C707 0.960 . S
C724 C725 1.391 . S
C724 C726 1.394 . S
C724 H740 0.931 . S
C725 C724 1.391 . S
C725 C729 1.376 . S
C726 C724 1.394 . S
C726 C727 1.369 . S
C726 C730 1.531 . S
C727 C726 1.369 . S
C727 C728 1.410 . S
C727 C735 1.503 . S
C728 C727 1.410 . S
C728 C729 1.392 . S
C728 C731 1.511 . S
C729 C725 1.376 . S
C729 C728 1.392 . S
C729 H741 0.929 . S
C730 C726 1.531 . S
C730 H742 0.960 . S
C730 H743 0.962 . S
C730 H744 0.960 . S
C731 C728 1.511 . S
C731 H745 0.961 . S
C731 H746 0.961 . S
C731 H747 0.961 . S
C732 C733 1.370 . S
C732 C734 1.363 . S
C732 H748 0.931 . S
C733 C732 1.370 . S
C733 C737 1.408 . S
C734 C732 1.363 . S
C734 C735 1.370 . S
C734 C738 1.524 . S
C735 C727 1.503 . S
C735 C734 1.370 . S
C735 C736 1.403 . S
C736 C735 1.403 . S
C736 C737 1.404 . S
C736 C739 1.539 . S
C737 C733 1.408 . S
C737 C736 1.404 . S
C737 H749 0.930 . S
C738 C734 1.524 . S
C738 H750 0.956 . S
C738 H751 0.961 . S
C738 H752 0.961 . S
C739 C736 1.539 . S
C739 H753 0.958 . S
C739 H754 0.961 . S
C739 H755 0.960 . S
H740 C724 0.931 . S
H741 C729 0.929 . S
H742 C730 0.960 . S
H743 C730 0.962 . S
H744 C730 0.960 . S
H745 C731 0.961 . S
H746 C731 0.961 . S
H747 C731 0.961 . S
H748 C732 0.931 . S
H749 C737 0.930 . S
H750 C738 0.956 . S
H751 C738 0.961 . S
H752 C738 0.961 . S
H753 C739 0.958 . S
H754 C739 0.961 . S
H755 C739 0.960 . S
C756 C757 1.391 . S
C756 C758 1.394 . S
C756 H772 0.931 . S
C757 C756 1.391 . S
C757 C761 1.376 . S
C758 C756 1.394 . S
C758 C759 1.369 . S
C758 C762 1.531 . S
C759 C758 1.369 . S
C759 C760 1.410 . S
C759 C767 1.503 . S
C760 C759 1.410 . S
C760 C761 1.392 . S
C760 C763 1.511 . S
C761 C757 1.376 . S
C761 C760 1.392 . S
C761 H773 0.929 . S
C762 C758 1.531 . S
C762 H774 0.960 . S
C762 H775 0.962 . S
C762 H776 0.960 . S
C763 C760 1.511 . S
C763 H777 0.961 . S
C763 H778 0.961 . S
C763 H779 0.961 . S
C764 C765 1.370 . S
C764 C766 1.363 . S
C764 H780 0.931 . S
C765 C764 1.370 . S
C765 C769 1.408 . S
C766 C764 1.363 . S
C766 C767 1.370 . S
C766 C770 1.524 . S
C767 C759 1.503 . S
C767 C766 1.370 . S
C767 C768 1.403 . S
C768 C767 1.403 . S
C768 C769 1.404 . S
C768 C771 1.539 . S
C769 C765 1.408 . S
C769 C768 1.404 . S
C769 H781 0.930 . S
C770 C766 1.524 . S
C770 H782 0.956 . S
C770 H783 0.961 . S
C770 H784 0.961 . S
C771 C768 1.539 . S
C771 H785 0.958 . S
C771 H786 0.961 . S
C771 H787 0.960 . S
H772 C756 0.931 . S
H773 C761 0.929 . S
H774 C762 0.960 . S
H775 C762 0.962 . S
H776 C762 0.960 . S
H777 C763 0.961 . S
H778 C763 0.961 . S
H779 C763 0.961 . S
H780 C764 0.931 . S
H781 C769 0.930 . S
H782 C770 0.956 . S
H783 C770 0.961 . S
H784 C770 0.961 . S
H785 C771 0.958 . S
H786 C771 0.961 . S
H787 C771 0.960 . S
C788 C789 1.391 . S
C788 C790 1.394 . S
C788 H804 0.931 . S
C789 C788 1.391 . S
C789 C793 1.376 . S
C790 C788 1.394 . S
C790 C791 1.369 . S
C790 C794 1.531 . S
C791 C790 1.369 . S
C791 C792 1.410 . S
C791 C799 1.503 . S
C792 C791 1.410 . S
C792 C793 1.392 . S
C792 C795 1.511 . S
C793 C789 1.376 . S
C793 C792 1.392 . S
C793 H805 0.929 . S
C794 C790 1.531 . S
C794 H806 0.960 . S
C794 H807 0.962 . S
C794 H808 0.960 . S
C795 C792 1.511 . S
C795 H809 0.961 . S
C795 H810 0.961 . S
C795 H811 0.961 . S
C796 C797 1.370 . S
C796 C798 1.363 . S
C796 H812 0.931 . S
C797 C796 1.370 . S
C797 C801 1.408 . S
C798 C796 1.363 . S
C798 C799 1.370 . S
C798 C802 1.524 . S
C799 C791 1.503 . S
C799 C798 1.370 . S
C799 C800 1.403 . S
C800 C799 1.403 . S
C800 C801 1.404 . S
C800 C803 1.539 . S
C801 C797 1.408 . S
C801 C800 1.404 . S
C801 H813 0.930 . S
C802 C798 1.524 . S
C802 H814 0.956 . S
C802 H815 0.961 . S
C802 H816 0.961 . S
C803 C800 1.539 . S
C803 H817 0.958 . S
C803 H818 0.961 . S
C803 H819 0.960 . S
H804 C788 0.931 . S
H805 C793 0.929 . S
H806 C794 0.960 . S
H807 C794 0.962 . S
H808 C794 0.960 . S
H809 C795 0.961 . S
H810 C795 0.961 . S
H811 C795 0.961 . S
H812 C796 0.931 . S
H813 C801 0.930 . S
H814 C802 0.956 . S
H815 C802 0.961 . S
H816 C802 0.961 . S
H817 C803 0.958 . S
H818 C803 0.961 . S
H819 C803 0.960 . S
C820 C821 1.391 . S
C820 C822 1.394 . S
C820 H836 0.931 . S
C821 C820 1.391 . S
C821 C825 1.376 . S
C822 C820 1.394 . S
C822 C823 1.369 . S
C822 C826 1.531 . S
C823 C822 1.369 . S
C823 C824 1.410 . S
C823 C831 1.503 . S
C824 C823 1.410 . S
C824 C825 1.392 . S
C824 C827 1.511 . S
C825 C821 1.376 . S
C825 C824 1.392 . S
C825 H837 0.929 . S
C826 C822 1.531 . S
C826 H838 0.960 . S
C826 H839 0.962 . S
C826 H840 0.960 . S
C827 C824 1.511 . S
C827 H841 0.961 . S
C827 H842 0.961 . S
C827 H843 0.961 . S
C828 C829 1.370 . S
C828 C830 1.363 . S
C828 H844 0.931 . S
C829 C828 1.370 . S
C829 C833 1.408 . S
C830 C828 1.363 . S
C830 C831 1.370 . S
C830 C834 1.524 . S
C831 C823 1.503 . S
C831 C830 1.370 . S
C831 C832 1.403 . S
C832 C831 1.403 . S
C832 C833 1.404 . S
C832 C835 1.539 . S
C833 C829 1.408 . S
C833 C832 1.404 . S
C833 H845 0.930 . S
C834 C830 1.524 . S
C834 H846 0.956 . S
C834 H847 0.961 . S
C834 H848 0.961 . S
C835 C832 1.539 . S
C835 H849 0.958 . S
C835 H850 0.961 . S
C835 H851 0.960 . S
H836 C820 0.931 . S
H837 C825 0.929 . S
H838 C826 0.960 . S
H839 C826 0.962 . S
H840 C826 0.960 . S
H841 C827 0.961 . S
H842 C827 0.961 . S
H843 C827 0.961 . S
H844 C828 0.931 . S
H845 C833 0.930 . S
H846 C834 0.956 . S
H847 C834 0.961 . S
H848 C834 0.961 . S
H849 C835 0.958 . S
H850 C835 0.961 . S
H851 C835 0.960 . S
C852 C853 1.391 . S
C852 C854 1.394 . S
C852 H868 0.931 . S
C853 C852 1.391 . S
C853 C857 1.376 . S
C854 C852 1.394 . S
C854 C855 1.369 . S
C854 C858 1.531 . S
C855 C854 1.369 . S
C855 C856 1.410 . S
C855 C863 1.503 . S
C856 C855 1.410 . S
C856 C857 1.392 . S
C856 C859 1.511 . S
C857 C853 1.376 . S
C857 C856 1.392 . S
C857 H869 0.929 . S
C858 C854 1.531 . S
C858 H870 0.960 . S
C858 H871 0.962 . S
C858 H872 0.960 . S
C859 C856 1.511 . S
C859 H873 0.961 . S
C859 H874 0.961 . S
C859 H875 0.961 . S
C860 C861 1.370 . S
C860 C862 1.363 . S
C860 H876 0.931 . S
C861 C860 1.370 . S
C861 C865 1.408 . S
C862 C860 1.363 . S
C862 C863 1.370 . S
C862 C866 1.524 . S
C863 C855 1.503 . S
C863 C862 1.370 . S
C863 C864 1.403 . S
C864 C863 1.403 . S
C864 C865 1.404 . S
C864 C867 1.539 . S
C865 C861 1.408 . S
C865 C864 1.404 . S
C865 H877 0.930 . S
C866 C862 1.524 . S
C866 H878 0.956 . S
C866 H879 0.961 . S
C866 H880 0.961 . S
C867 C864 1.539 . S
C867 H881 0.958 . S
C867 H882 0.961 . S
C867 H883 0.960 . S
H868 C852 0.931 . S
H869 C857 0.929 . S
H870 C858 0.960 . S
H871 C858 0.962 . S
H872 C858 0.960 . S
H873 C859 0.961 . S
H874 C859 0.961 . S
H875 C859 0.961 . S
H876 C860 0.931 . S
H877 C865 0.930 . S
H878 C866 0.956 . S
H879 C866 0.961 . S
H880 C866 0.961 . S
H881 C867 0.958 . S
H882 C867 0.961 . S
H883 C867 0.960 . S
C884 C885 1.391 . S
C884 C886 1.394 . S
C884 H900 0.931 . S
C885 C884 1.391 . S
C885 C889 1.376 . S
C886 C884 1.394 . S
C886 C887 1.369 . S
C886 C890 1.531 . S
C887 C886 1.369 . S
C887 C888 1.410 . S
C887 C895 1.503 . S
C888 C887 1.410 . S
C888 C889 1.392 . S
C888 C891 1.511 . S
C889 C885 1.376 . S
C889 C888 1.392 . S
C889 H901 0.929 . S
C890 C886 1.531 . S
C890 H902 0.960 . S
C890 H903 0.962 . S
C890 H904 0.960 . S
C891 C888 1.511 . S
C891 H905 0.961 . S
C891 H906 0.961 . S
C891 H907 0.961 . S
C892 C893 1.370 . S
C892 C894 1.363 . S
C892 H908 0.931 . S
C893 C892 1.370 . S
C893 C897 1.408 . S
C894 C892 1.363 . S
C894 C895 1.370 . S
C894 C898 1.524 . S
C895 C887 1.503 . S
C895 C894 1.370 . S
C895 C896 1.403 . S
C896 C895 1.403 . S
C896 C897 1.404 . S
C896 C899 1.539 . S
C897 C893 1.408 . S
C897 C896 1.404 . S
C897 H909 0.930 . S
C898 C894 1.524 . S
C898 H910 0.956 . S
C898 H911 0.961 . S
C898 H912 0.961 . S
C899 C896 1.539 . S
C899 H913 0.958 . S
C899 H914 0.961 . S
C899 H915 0.960 . S
H900 C884 0.931 . S
H901 C889 0.929 . S
H902 C890 0.960 . S
H903 C890 0.962 . S
H904 C890 0.960 . S
H905 C891 0.961 . S
H906 C891 0.961 . S
H907 C891 0.961 . S
H908 C892 0.931 . S
H909 C897 0.930 . S
H910 C898 0.956 . S
H911 C898 0.961 . S
H912 C898 0.961 . S
H913 C899 0.958 . S
H914 C899 0.961 . S
H915 C899 0.960 . S
C916 C917 1.391 . S
C916 C918 1.394 . S
C916 H932 0.931 . S
C917 C916 1.391 . S
C917 C921 1.376 . S
C918 C916 1.394 . S
C918 C919 1.369 . S
C918 C922 1.531 . S
C919 C918 1.369 . S
C919 C920 1.410 . S
C919 C927 1.503 . S
C920 C919 1.410 . S
C920 C921 1.392 . S
C920 C923 1.511 . S
C921 C917 1.376 . S
C921 C920 1.392 . S
C921 H933 0.929 . S
C922 C918 1.531 . S
C922 H934 0.960 . S
C922 H935 0.962 . S
C922 H936 0.960 . S
C923 C920 1.511 . S
C923 H937 0.961 . S
C923 H938 0.961 . S
C923 H939 0.961 . S
C924 C925 1.370 . S
C924 C926 1.363 . S
C924 H940 0.931 . S
C925 C924 1.370 . S
C925 C929 1.408 . S
C926 C924 1.363 . S
C926 C927 1.370 . S
C926 C930 1.524 . S
C927 C919 1.503 . S
C927 C926 1.370 . S
C927 C928 1.403 . S
C928 C927 1.403 . S
C928 C929 1.404 . S
C928 C931 1.539 . S
C929 C925 1.408 . S
C929 C928 1.404 . S
C929 H941 0.930 . S
C930 C926 1.524 . S
C930 H942 0.956 . S
C930 H943 0.961 . S
C930 H944 0.961 . S
C931 C928 1.539 . S
C931 H945 0.958 . S
C931 H946 0.961 . S
C931 H947 0.960 . S
H932 C916 0.931 . S
H933 C921 0.929 . S
H934 C922 0.960 . S
H935 C922 0.962 . S
H936 C922 0.960 . S
H937 C923 0.961 . S
H938 C923 0.961 . S
H939 C923 0.961 . S
H940 C924 0.931 . S
H941 C929 0.930 . S
H942 C930 0.956 . S
H943 C930 0.961 . S
H944 C930 0.961 . S
H945 C931 0.958 . S
H946 C931 0.961 . S
H947 C931 0.960 . S
C948 C949 1.391 . S
C948 C950 1.394 . S
C948 H964 0.931 . S
C949 C948 1.391 . S
C949 C953 1.376 . S
C950 C948 1.394 . S
C950 C951 1.369 . S
C950 C954 1.531 . S
C951 C950 1.369 . S
C951 C952 1.410 . S
C951 C959 1.503 . S
C952 C951 1.410 . S
C952 C953 1.392 . S
C952 C955 1.511 . S
C953 C949 1.376 . S
C953 C952 1.392 . S
C953 H965 0.929 . S
C954 C950 1.531 . S
C954 H966 0.960 . S
C954 H967 0.962 . S
C954 H968 0.960 . S
C955 C952 1.511 . S
C955 H969 0.961 . S
C955 H970 0.961 . S
C955 H971 0.961 . S
C956 C957 1.370 . S
C956 C958 1.363 . S
C956 H972 0.931 . S
C957 C956 1.370 . S
C957 C961 1.408 . S
C958 C956 1.363 . S
C958 C959 1.370 . S
C958 C962 1.524 . S
C959 C951 1.503 . S
C959 C958 1.370 . S
C959 C960 1.403 . S
C960 C959 1.403 . S
C960 C961 1.404 . S
C960 C963 1.539 . S
C961 C957 1.408 . S
C961 C960 1.404 . S
C961 H973 0.930 . S
C962 C958 1.524 . S
C962 H974 0.956 . S
C962 H975 0.961 . S
C962 H976 0.961 . S
C963 C960 1.539 . S
C963 H977 0.958 . S
C963 H978 0.961 . S
C963 H979 0.960 . S
H964 C948 0.931 . S
H965 C953 0.929 . S
H966 C954 0.960 . S
H967 C954 0.962 . S
H968 C954 0.960 . S
H969 C955 0.961 . S
H970 C955 0.961 . S
H971 C955 0.961 . S
H972 C956 0.931 . S
H973 C961 0.930 . S
H974 C962 0.956 . S
H975 C962 0.961 . S
H976 C962 0.961 . S
H977 C963 0.958 . S
H978 C963 0.961 . S
H979 C963 0.960 . S
C980 C981 1.391 . S
C980 C982 1.394 . S
C980 H996 0.931 . S
C981 C980 1.391 . S
C981 C985 1.376 . S
C982 C980 1.394 . S
C982 C983 1.369 . S
C982 C986 1.531 . S
C983 C982 1.369 . S
C983 C984 1.410 . S
C983 C991 1.503 . S
C984 C983 1.410 . S
C984 C985 1.392 . S
C984 C987 1.511 . S
C985 C981 1.376 . S
C985 C984 1.392 . S
C985 H997 0.929 . S
C986 C982 1.531 . S
C986 H998 0.960 . S
C986 H999 0.962 . S
C986 H1000 0.960 . S
C987 C984 1.511 . S
C987 H1001 0.961 . S
C987 H1002 0.961 . S
C987 H1003 0.961 . S
C988 C989 1.370 . S
C988 C990 1.363 . S
C988 H1004 0.931 . S
C989 C988 1.370 . S
C989 C993 1.408 . S
C990 C988 1.363 . S
C990 C991 1.370 . S
C990 C994 1.524 . S
C991 C983 1.503 . S
C991 C990 1.370 . S
C991 C992 1.403 . S
C992 C991 1.403 . S
C992 C993 1.404 . S
C992 C995 1.539 . S
C993 C989 1.408 . S
C993 C992 1.404 . S
C993 H1005 0.930 . S
C994 C990 1.524 . S
C994 H1006 0.956 . S
C994 H1007 0.961 . S
C994 H1008 0.961 . S
C995 C992 1.539 . S
C995 H1009 0.958 . S
C995 H1010 0.961 . S
C995 H1011 0.960 . S
H996 C980 0.931 . S
H997 C985 0.929 . S
H998 C986 0.960 . S
H999 C986 0.962 . S
H1000 C986 0.960 . S
H1001 C987 0.961 . S
H1002 C987 0.961 . S
H1003 C987 0.961 . S
H1004 C988 0.931 . S
H1005 C993 0.930 . S
H1006 C994 0.956 . S
H1007 C994 0.961 . S
H1008 C994 0.961 . S
H1009 C995 0.958 . S
H1010 C995 0.961 . S
H1011 C995 0.960 . S
C1012 C1013 1.391 . S
C1012 C1014 1.394 . S
C1012 H1028 0.931 . S
C1013 C1012 1.391 . S
C1013 C1017 1.376 . S
C1014 C1012 1.394 . S
C1014 C1015 1.369 . S
C1014 C1018 1.531 . S
C1015 C1014 1.369 . S
C1015 C1016 1.410 . S
C1015 C1023 1.503 . S
C1016 C1015 1.410 . S
C1016 C1017 1.392 . S
C1016 C1019 1.511 . S
C1017 C1013 1.376 . S
C1017 C1016 1.392 . S
C1017 H1029 0.929 . S
C1018 C1014 1.531 . S
C1018 H1030 0.960 . S
C1018 H1031 0.962 . S
C1018 H1032 0.960 . S
C1019 C1016 1.511 . S
C1019 H1033 0.961 . S
C1019 H1034 0.961 . S
C1019 H1035 0.961 . S
C1020 C1021 1.370 . S
C1020 C1022 1.363 . S
C1020 H1036 0.931 . S
C1021 C1020 1.370 . S
C1021 C1025 1.408 . S
C1022 C1020 1.363 . S
C1022 C1023 1.370 . S
C1022 C1026 1.524 . S
C1023 C1015 1.503 . S
C1023 C1022 1.370 . S
C1023 C1024 1.403 . S
C1024 C1023 1.403 . S
C1024 C1025 1.404 . S
C1024 C1027 1.539 . S
C1025 C1021 1.408 . S
C1025 C1024 1.404 . S
C1025 H1037 0.930 . S
C1026 C1022 1.524 . S
C1026 H1038 0.956 . S
C1026 H1039 0.961 . S
C1026 H1040 0.961 . S
C1027 C1024 1.539 . S
C1027 H1041 0.958 . S
C1027 H1042 0.961 . S
C1027 H1043 0.960 . S
H1028 C1012 0.931 . S
H1029 C1017 0.929 . S
H1030 C1018 0.960 . S
H1031 C1018 0.962 . S
H1032 C1018 0.960 . S
H1033 C1019 0.961 . S
H1034 C1019 0.961 . S
H1035 C1019 0.961 . S
H1036 C1020 0.931 . S
H1037 C1025 0.930 . S
H1038 C1026 0.956 . S
H1039 C1026 0.961 . S
H1040 C1026 0.961 . S
H1041 C1027 0.958 . S
H1042 C1027 0.961 . S
H1043 C1027 0.960 . S
C1044 C1045 1.391 . S
C1044 C1046 1.394 . S
C1044 H1060 0.931 . S
C1045 C1044 1.391 . S
C1045 C1049 1.376 . S
C1046 C1044 1.394 . S
C1046 C1047 1.369 . S
C1046 C1050 1.531 . S
C1047 C1046 1.369 . S
C1047 C1048 1.410 . S
C1047 C1055 1.503 . S
C1048 C1047 1.410 . S
C1048 C1049 1.392 . S
C1048 C1051 1.511 . S
C1049 C1045 1.376 . S
C1049 C1048 1.392 . S
C1049 H1061 0.929 . S
C1050 C1046 1.531 . S
C1050 H1062 0.960 . S
C1050 H1063 0.962 . S
C1050 H1064 0.960 . S
C1051 C1048 1.511 . S
C1051 H1065 0.961 . S
C1051 H1066 0.961 . S
C1051 H1067 0.961 . S
C1052 C1053 1.370 . S
C1052 C1054 1.363 . S
C1052 H1068 0.931 . S
C1053 C1052 1.370 . S
C1053 C1057 1.408 . S
C1054 C1052 1.363 . S
C1054 C1055 1.370 . S
C1054 C1058 1.524 . S
C1055 C1047 1.503 . S
C1055 C1054 1.370 . S
C1055 C1056 1.403 . S
C1056 C1055 1.403 . S
C1056 C1057 1.404 . S
C1056 C1059 1.539 . S
C1057 C1053 1.408 . S
C1057 C1056 1.404 . S
C1057 H1069 0.930 . S
C1058 C1054 1.524 . S
C1058 H1070 0.956 . S
C1058 H1071 0.961 . S
C1058 H1072 0.961 . S
C1059 C1056 1.539 . S
C1059 H1073 0.958 . S
C1059 H1074 0.961 . S
C1059 H1075 0.960 . S
H1060 C1044 0.931 . S
H1061 C1049 0.929 . S
H1062 C1050 0.960 . S
H1063 C1050 0.962 . S
H1064 C1050 0.960 . S
H1065 C1051 0.961 . S
H1066 C1051 0.961 . S
H1067 C1051 0.961 . S
H1068 C1052 0.931 . S
H1069 C1057 0.930 . S
H1070 C1058 0.956 . S
H1071 C1058 0.961 . S
H1072 C1058 0.961 . S
H1073 C1059 0.958 . S
H1074 C1059 0.961 . S
H1075 C1059 0.960 . S
C1076 C1077 1.391 . S
C1076 C1078 1.394 . S
C1076 H1092 0.931 . S
C1077 C1076 1.391 . S
C1077 C1081 1.376 . S
C1078 C1076 1.394 . S
C1078 C1079 1.369 . S
C1078 C1082 1.531 . S
C1079 C1078 1.369 . S
C1079 C1080 1.410 . S
C1079 C1087 1.503 . S
C1080 C1079 1.410 . S
C1080 C1081 1.392 . S
C1080 C1083 1.511 . S
C1081 C1077 1.376 . S
C1081 C1080 1.392 . S
C1081 H1093 0.929 . S
C1082 C1078 1.531 . S
C1082 H1094 0.960 . S
C1082 H1095 0.962 . S
C1082 H1096 0.960 . S
C1083 C1080 1.511 . S
C1083 H1097 0.961 . S
C1083 H1098 0.961 . S
C1083 H1099 0.961 . S
C1084 C1085 1.370 . S
C1084 C1086 1.363 . S
C1084 H1100 0.931 . S
C1085 C1084 1.370 . S
C1085 C1089 1.408 . S
C1086 C1084 1.363 . S
C1086 C1087 1.370 . S
C1086 C1090 1.524 . S
C1087 C1079 1.503 . S
C1087 C1086 1.370 . S
C1087 C1088 1.403 . S
C1088 C1087 1.403 . S
C1088 C1089 1.404 . S
C1088 C1091 1.539 . S
C1089 C1085 1.408 . S
C1089 C1088 1.404 . S
C1089 H1101 0.930 . S
C1090 C1086 1.524 . S
C1090 H1102 0.956 . S
C1090 H1103 0.961 . S
C1090 H1104 0.961 . S
C1091 C1088 1.539 . S
C1091 H1105 0.958 . S
C1091 H1106 0.961 . S
C1091 H1107 0.960 . S
H1092 C1076 0.931 . S
H1093 C1081 0.929 . S
H1094 C1082 0.960 . S
H1095 C1082 0.962 . S
H1096 C1082 0.960 . S
H1097 C1083 0.961 . S
H1098 C1083 0.961 . S
H1099 C1083 0.961 . S
H1100 C1084 0.931 . S
H1101 C1089 0.930 . S
H1102 C1090 0.956 . S
H1103 C1090 0.961 . S
H1104 C1090 0.961 . S
H1105 C1091 0.958 . S
H1106 C1091 0.961 . S
H1107 C1091 0.960 . S
C1108 C1109 1.391 . S
C1108 C1110 1.394 . S
C1108 H1124 0.931 . S
C1109 C1108 1.391 . S
C1109 C1113 1.376 . S
C1110 C1108 1.394 . S
C1110 C1111 1.369 . S
C1110 C1114 1.531 . S
C1111 C1110 1.369 . S
C1111 C1112 1.410 . S
C1111 C1119 1.503 . S
C1112 C1111 1.410 . S
C1112 C1113 1.392 . S
C1112 C1115 1.511 . S
C1113 C1109 1.376 . S
C1113 C1112 1.392 . S
C1113 H1125 0.929 . S
C1114 C1110 1.531 . S
C1114 H1126 0.960 . S
C1114 H1127 0.962 . S
C1114 H1128 0.960 . S
C1115 C1112 1.511 . S
C1115 H1129 0.961 . S
C1115 H1130 0.961 . S
C1115 H1131 0.961 . S
C1116 C1117 1.370 . S
C1116 C1118 1.363 . S
C1116 H1132 0.931 . S
C1117 C1116 1.370 . S
C1117 C1121 1.408 . S
C1118 C1116 1.363 . S
C1118 C1119 1.370 . S
C1118 C1122 1.524 . S
C1119 C1111 1.503 . S
C1119 C1118 1.370 . S
C1119 C1120 1.403 . S
C1120 C1119 1.403 . S
C1120 C1121 1.404 . S
C1120 C1123 1.539 . S
C1121 C1117 1.408 . S
C1121 C1120 1.404 . S
C1121 H1133 0.930 . S
C1122 C1118 1.524 . S
C1122 H1134 0.956 . S
C1122 H1135 0.961 . S
C1122 H1136 0.961 . S
C1123 C1120 1.539 . S
C1123 H1137 0.958 . S
C1123 H1138 0.961 . S
C1123 H1139 0.960 . S
H1124 C1108 0.931 . S
H1125 C1113 0.929 . S
H1126 C1114 0.960 . S
H1127 C1114 0.962 . S
H1128 C1114 0.960 . S
H1129 C1115 0.961 . S
H1130 C1115 0.961 . S
H1131 C1115 0.961 . S
H1132 C1116 0.931 . S
H1133 C1121 0.930 . S
H1134 C1122 0.956 . S
H1135 C1122 0.961 . S
H1136 C1122 0.961 . S
H1137 C1123 0.958 . S
H1138 C1123 0.961 . S
H1139 C1123 0.960 . S
C381 C300 1.506 . S
C373 C25 1.509 . S
C413 C303 1.502 . S
C405 C37 1.501 . S
C445 C301 1.515 . S
C437 C103 1.518 . S
C477 C302 1.507 . S
C469 C139 1.498 . S
C509 C317 1.502 . S
C501 C31 1.501 . S
C541 C331 1.504 . S
C533 C67 1.497 . S
C565 C97 1.490 . S
C573 C357 1.507 . S
C605 C371 1.502 . S
C597 C133 1.491 . S
C637 C316 1.502 . S
C629 C61 1.495 . S
C661 C73 1.498 . S
C669 C330 1.510 . S
C701 C356 1.506 . S
C693 C109 1.501 . S
C733 C370 1.501 . S
C725 C1 1.490 . S
C757 C169 1.507 . S
C765 C315 1.505 . S
C797 C288 1.507 . S
C789 C211 1.505 . S
C821 C241 1.499 . S
C829 C314 1.499 . S
C853 C253 1.505 . S
C861 C289 1.510 . S
C893 C344 1.509 . S
C885 C175 1.510 . S
C925 C358 1.504 . S
C917 C205 1.482 . S
C957 C328 1.500 . S
C949 C217 1.496 . S
C981 C283 1.506 . S
C989 C342 1.510 . S
C1021 C345 1.507 . S
C1013 C181 1.508 . S
C1053 C359 1.507 . S
C1045 C247 1.508 . S
C1085 C329 1.502 . S
C1077 C277 1.484 . S
C1109 C145 1.502 . S
C1117 C343 1.512 . S
