# Generated by pormake.
# Topology pyr, (3,6)-cn, num edge types: 1
# Building blocks:
#     Node 0, Type 0, BuildingBlock: CUQRIR_clean_linker_1, # of connection points: 3
#     Node 1, Type 0, BuildingBlock: CUQRIR_clean_linker_1, # of connection points: 3
#     Node 2, Type 0, BuildingBlock: CUQRIR_clean_linker_1, # of connection points: 3
#     Node 3, Type 0, BuildingBlock: CUQRIR_clean_linker_1, # of connection points: 3
#     Node 4, Type 0, BuildingBlock: CUQRIR_clean_linker_1, # of connection points: 3
#     Node 5, Type 0, BuildingBlock: CUQRIR_clean_linker_1, # of connection points: 3
#     Node 6, Type 0, BuildingBlock: CUQRIR_clean_linker_1, # of connection points: 3
#     Node 7, Type 0, BuildingBlock: CUQRIR_clean_linker_1, # of connection points: 3
#     Node 8, Type 1, BuildingBlock: PAMTUU_clean_sbu_0, # of connection points: 6
#     Node 9, Type 1, BuildingBlock: PAMTUU_clean_sbu_0, # of connection points: 6
#     Node 10, Type 1, BuildingBlock: PAMTUU_clean_sbu_0, # of connection points: 6
#     Node 11, Type 1, BuildingBlock: PAMTUU_clean_sbu_0, # of connection points: 6
#     Edge 12, Type (0, 1), BuildingBlock: XIVTED_clean_linker_0, # of connection points: 2
#     Edge 13, Type (0, 1), BuildingBlock: XIVTED_clean_linker_0, # of connection points: 2
#     Edge 14, Type (0, 1), BuildingBlock: XIVTED_clean_linker_0, # of connection points: 2
#     Edge 15, Type (0, 1), BuildingBlock: XIVTED_clean_linker_0, # of connection points: 2
#     Edge 16, Type (0, 1), BuildingBlock: XIVTED_clean_linker_0, # of connection points: 2
#     Edge 17, Type (0, 1), BuildingBlock: XIVTED_clean_linker_0, # of connection points: 2
#     Edge 18, Type (0, 1), BuildingBlock: XIVTED_clean_linker_0, # of connection points: 2
#     Edge 19, Type (0, 1), BuildingBlock: XIVTED_clean_linker_0, # of connection points: 2
#     Edge 20, Type (0, 1), BuildingBlock: XIVTED_clean_linker_0, # of connection points: 2
#     Edge 21, Type (0, 1), BuildingBlock: XIVTED_clean_linker_0, # of connection points: 2
#     Edge 22, Type (0, 1), BuildingBlock: XIVTED_clean_linker_0, # of connection points: 2
#     Edge 23, Type (0, 1), BuildingBlock: XIVTED_clean_linker_0, # of connection points: 2
#     Edge 24, Type (0, 1), BuildingBlock: XIVTED_clean_linker_0, # of connection points: 2
#     Edge 25, Type (0, 1), BuildingBlock: XIVTED_clean_linker_0, # of connection points: 2
#     Edge 26, Type (0, 1), BuildingBlock: XIVTED_clean_linker_0, # of connection points: 2
#     Edge 27, Type (0, 1), BuildingBlock: XIVTED_clean_linker_0, # of connection points: 2
#     Edge 28, Type (0, 1), BuildingBlock: XIVTED_clean_linker_0, # of connection points: 2
#     Edge 29, Type (0, 1), BuildingBlock: XIVTED_clean_linker_0, # of connection points: 2
#     Edge 30, Type (0, 1), BuildingBlock: XIVTED_clean_linker_0, # of connection points: 2
#     Edge 31, Type (0, 1), BuildingBlock: XIVTED_clean_linker_0, # of connection points: 2
#     Edge 32, Type (0, 1), BuildingBlock: XIVTED_clean_linker_0, # of connection points: 2
#     Edge 33, Type (0, 1), BuildingBlock: XIVTED_clean_linker_0, # of connection points: 2
#     Edge 34, Type (0, 1), BuildingBlock: XIVTED_clean_linker_0, # of connection points: 2
#     Edge 35, Type (0, 1), BuildingBlock: XIVTED_clean_linker_0, # of connection points: 2
# Relax obj value: 0.194
# Max RMSD: 0.251
# Mean RMSD: 0.164
data_MOF--net-pyr--node1-PAMTUU_clean_sbu_0--node2-CUQRIR_clean_linker_1--edge1-XIVTED_clean_linker_0
_symmetry_space_group_name_H-M    P1
_symmetry_Int_Tables_number       1
_symmetry_cell_setting            triclinic
loop_
_symmetry_equiv_pos_as_xyz
'x, y, z'
_cell_length_a     36.563443
_cell_length_b     36.11171
_cell_length_c     33.096705
_cell_angle_alpha  89.191967
_cell_angle_beta   89.97945
_cell_angle_gamma 106.78485
loop_
_atom_site_label
_atom_site_type_symbol
_atom_site_fract_x
_atom_site_fract_y
_atom_site_fract_z
_atom_type_partial_charge
C0 C 0.34335 0.37036 0.24676 0.0
N1 N 0.36644 0.34726 0.25147 0.0
N2 N 0.34323 0.38219 0.20773 0.0
C3 C 0.31587 0.37565 0.27879 0.0
C4 C 0.36666 0.36496 0.18876 0.0
N5 N 0.38082 0.34373 0.21527 0.0
C6 C 0.37443 0.36786 0.14408 0.0
H7 H 0.29244 0.38594 0.26623 0.0
H8 H 0.33184 0.39704 0.30093 0.0
H9 H 0.30284 0.34802 0.2953 0.0
H10 H 0.37274 0.39612 0.13193 0.0
H11 H 0.35252 0.34464 0.12865 0.0
H12 H 0.403 0.36438 0.13742 0.0
C13 C 0.15976 0.82115 0.74886 0.0
N14 N 0.15098 0.84851 0.77118 0.0
N15 N 0.18262 0.80421 0.76968 0.0
C16 C 0.14685 0.81172 0.70609 0.0
C17 C 0.18703 0.82202 0.80589 0.0
N18 N 0.16744 0.84868 0.80697 0.0
C19 C 0.21541 0.8177 0.83742 0.0
H20 H 0.11771 0.81469 0.70179 0.0
H21 H 0.147 0.78191 0.69859 0.0
H22 H 0.16641 0.83229 0.68498 0.0
H23 H 0.24188 0.81504 0.82294 0.0
H24 H 0.20266 0.79085 0.85531 0.0
H25 H 0.2234 0.84243 0.8583 0.0
C26 C 0.62484 0.39341 0.89511 0.0
N27 N 0.64775 0.38981 0.92637 0.0
N28 N 0.63707 0.42915 0.87785 0.0
C29 C 0.58835 0.36341 0.88389 0.0
C30 C 0.66808 0.44734 0.89992 0.0
N31 N 0.67432 0.42374 0.9298 0.0
C32 C 0.69445 0.48683 0.88972 0.0
H33 H 0.59467 0.34428 0.86063 0.0
H34 H 0.56735 0.37724 0.87121 0.0
H35 H 0.57542 0.3454 0.91055 0.0
H36 H 0.6852 0.50893 0.90657 0.0
H37 H 0.69368 0.49336 0.85693 0.0
H38 H 0.7243 0.48893 0.89833 0.0
C39 C 0.83233 0.70141 0.39144 0.0
N40 N 0.86586 0.72753 0.3805 0.0
N41 N 0.81485 0.71537 0.42127 0.0
C42 C 0.81587 0.66287 0.37178 0.0
C43 C 0.83901 0.75084 0.42826 0.0
N44 N 0.86984 0.75855 0.40335 0.0
C45 C 0.83343 0.77737 0.46095 0.0
H46 H 0.82519 0.66371 0.3398 0.0
H47 H 0.7842 0.65396 0.3731 0.0
H48 H 0.82615 0.64081 0.38818 0.0
H49 H 0.8157 0.76076 0.48604 0.0
H50 H 0.81878 0.79773 0.44798 0.0
H51 H 0.8613 0.79457 0.47323 0.0
C52 C 0.64866 0.81332 0.95699 0.0
N53 N 0.67345 0.8035 0.93184 0.0
N54 N 0.62884 0.83422 0.93694 0.0
C55 C 0.64629 0.80585 1.00192 0.0
C56 C 0.64184 0.83567 0.89841 0.0
N57 N 0.66919 0.81738 0.8953 0.0
C58 C 0.63131 0.85921 0.86483 0.0
H59 H 0.6161 0.79699 1.01206 0.0
H60 H 0.66125 0.83292 1.01766 0.0
H61 H 0.65927 0.78273 1.01073 0.0
H62 H 0.65584 0.885 0.8582 0.0
H63 H 0.60592 0.86859 0.87286 0.0
H64 H 0.62497 0.84187 0.83697 0.0
C65 C 0.86769 0.35757 0.49512 0.0
N66 N 0.88361 0.33851 0.46845 0.0
N67 N 0.84388 0.37462 0.47612 0.0
C68 C 0.87288 0.3573 0.54011 0.0
C69 C 0.8457 0.36505 0.43692 0.0
N70 N 0.86966 0.34293 0.43214 0.0
C71 C 0.81864 0.37113 0.40476 0.0
H72 H 0.8499 0.33322 0.55369 0.0
H73 H 0.87053 0.38475 0.55297 0.0
H74 H 0.90097 0.35323 0.54804 0.0
H75 H 0.80028 0.38865 0.41547 0.0
H76 H 0.80017 0.34268 0.39466 0.0
H77 H 0.8352 0.38619 0.37825 0.0
C78 C 0.32946 0.69678 0.28579 0.0
N79 N 0.36121 0.72407 0.29837 0.0
N80 N 0.31155 0.71119 0.25632 0.0
C81 C 0.31492 0.65665 0.30369 0.0
C82 C 0.33357 0.7481 0.25126 0.0
N83 N 0.3635 0.7562 0.27703 0.0
C84 C 0.3268 0.77591 0.21974 0.0
H85 H 0.32714 0.63693 0.28635 0.0
H86 H 0.28332 0.64588 0.30185 0.0
H87 H 0.32371 0.65587 0.33569 0.0
H88 H 0.31012 0.79381 0.23344 0.0
H89 H 0.31059 0.76023 0.19378 0.0
H90 H 0.35428 0.79558 0.20855 0.0
C91 C 0.11821 0.3942 0.78464 0.0
N92 N 0.14179 0.38912 0.75476 0.0
N93 N 0.13312 0.42853 0.80334 0.0
C94 C 0.08262 0.36376 0.79834 0.0
C95 C 0.16688 0.44394 0.78376 0.0
N96 N 0.17242 0.41991 0.75467 0.0
C97 C 0.19312 0.48395 0.7906 0.0
H98 H 0.05769 0.368 0.78186 0.0
H99 H 0.07777 0.36579 0.83122 0.0
H100 H 0.0846 0.33433 0.79186 0.0
H101 H 0.21473 0.48235 0.81356 0.0
H102 H 0.17698 0.50356 0.80158 0.0
H103 H 0.20839 0.49631 0.76231 0.0
Tb104 Tb 0.06393 0.0851 0.53541 0.0
Tb105 Tb 0.98311 0.06648 0.58531 0.0
C106 C 0.99598 1.00975 0.51986 0.0
C107 C 0.15993 0.12452 0.48159 0.0
C108 C 0.22931 0.17415 0.45212 0.0
C109 C 0.20701 0.14425 0.42813 0.0
C110 C 0.1728 0.11969 0.44278 0.0
C111 C 0.18157 0.15473 0.50563 0.0
C112 C 0.21605 0.1795 0.49089 0.0
C113 C 0.1255 0.09557 0.49666 0.0
O114 O 0.03827 0.13061 0.5178 0.0
O115 O 0.97739 0.09268 0.52728 0.0
O116 O 0.01435 0.1262 0.59946 0.0
O117 O 0.07579 0.12526 0.58585 0.0
O118 O 0.92326 1.04598 0.58265 0.0
O119 O 0.9518 0.06962 0.63759 0.0
O120 O 0.02032 1.04531 0.62455 0.0
O121 O 0.06183 1.03678 0.57609 0.0
O122 O 0.02292 1.03849 0.50365 0.0
O123 O 0.98169 1.01253 0.55576 0.0
C124 C 1.00133 0.12474 0.5136 0.0
O125 O 0.12225 0.08943 0.53559 0.0
O126 O 0.09308 0.09483 0.47972 0.0
C127 C 0.0516 0.14129 0.60279 0.0
C128 C 0.89602 1.0175 0.64371 0.0
C129 C 0.85084 0.95426 0.6889 0.0
C130 C 0.88993 0.95864 0.68281 0.0
C131 C 0.91234 0.98995 0.66018 0.0
C132 C 0.85695 1.01278 0.64889 0.0
C133 C 0.83447 0.98135 0.67125 0.0
C134 C 0.91943 0.05118 0.62107 0.0
C135 C 0.04747 1.03083 0.61278 0.0
H136 H 0.21576 0.13999 0.39769 0.0
H137 H 0.15651 0.09649 0.42386 0.0
H138 H 0.17214 0.15885 0.53583 0.0
H139 H 0.23254 0.2024 0.50996 0.0
H140 H 0.9032 0.93806 0.69584 0.0
H141 H 0.94246 0.99296 0.65599 0.0
H142 H 0.84395 1.03372 0.63615 0.0
H143 H 0.80456 0.97902 0.67591 0.0
Tb144 Tb 0.55712 0.08729 0.15906 0.0
Tb145 Tb 0.4842 0.07199 0.09617 0.0
C146 C 0.5486 1.03579 0.08364 0.0
C147 C 0.64875 0.12297 0.21854 0.0
C148 C 0.71974 0.17089 0.24449 0.0
C149 C 0.70594 0.1763 0.20584 0.0
C150 C 0.67065 0.15241 0.19288 0.0
C151 C 0.66204 0.11817 0.25728 0.0
C152 C 0.69709 0.14191 0.2702 0.0
C153 C 0.61359 0.09481 0.20499 0.0
O154 O 0.57843 0.13014 0.11117 0.0
O155 O 0.52217 0.12819 0.07801 0.0
O156 O 0.46952 0.09516 0.15179 0.0
O157 O 0.52909 0.13208 0.1692 0.0
O158 O 0.45091 1.0386 1.05096 0.0
O159 O 0.44007 0.09141 0.07084 0.0
O160 O 0.47156 1.01988 0.1347 0.0
O161 O 0.51142 1.04311 0.18856 0.0
O162 O 0.55314 1.03657 0.12282 0.0
O163 O 0.53105 0.0583 0.06599 0.0
C164 C 0.5588 0.14417 0.08476 0.0
O165 O 0.58115 0.09946 0.2169 0.0
O166 O 0.6128 0.08433 0.16736 0.0
C167 C 0.49194 0.12634 0.16816 0.0
C168 C 0.38795 1.04395 1.04112 0.0
C169 C 0.31405 1.01145 1.00966 0.0
C170 C 0.32901 0.05175 1.01332 0.0
C171 C 0.36565 0.06781 1.02877 0.0
C172 C 0.37188 1.00361 1.04061 0.0
C173 C 0.33525 0.98753 1.02508 0.0
C174 C 0.42928 0.06157 1.0473 0.0
C175 C 0.4838 1.01619 0.17164 0.0
H176 H 0.72268 0.19849 0.18545 0.0
H177 H 0.66079 0.15646 0.16272 0.0
H178 H 0.64548 0.09559 0.27743 0.0
H179 H 0.70629 0.13768 0.30058 0.0
H180 H 0.31319 0.07095 1.0023 0.0
H181 H 0.37744 0.099 1.02874 0.0
H182 H 0.38839 0.98443 1.04983 0.0
H183 H 0.32481 0.95639 1.02245 0.0
Tb184 Tb 0.48977 0.52788 0.55719 0.0
Tb185 Tb 0.49269 0.60397 0.61061 0.0
C186 C 0.45957 0.59614 0.52384 0.0
C187 C 0.53032 0.4554 0.52039 0.0
C188 C 0.59841 0.4335 0.51987 0.0
C189 C 0.56952 0.4184 0.49135 0.0
C190 C 0.53578 0.42952 0.49145 0.0
C191 C 0.55858 0.46943 0.54963 0.0
C192 C 0.5923 0.45873 0.54929 0.0
C193 C 0.49721 0.47082 0.51872 0.0
O194 O 0.54931 0.56136 0.56131 0.0
O195 O 0.54145 0.62127 0.56926 0.0
O196 O 0.53131 0.57715 0.64109 0.0
O197 O 0.5036 0.51556 0.61924 0.0
O198 O 0.49962 0.6636 0.61394 0.0
O199 O 0.48778 0.62728 0.66749 0.0
O200 O 0.44378 0.5569 0.63136 0.0
O201 O 0.43035 0.51931 0.57489 0.0
O202 O 0.47823 0.57093 0.51555 0.0
O203 O 0.45355 0.60412 0.56136 0.0
C204 C 0.56222 0.59905 0.55775 0.0
O205 O 0.47748 0.46751 0.55209 0.0
O206 O 0.50458 0.50559 0.50327 0.0
C207 C 0.52535 0.53964 0.64485 0.0
C208 C 0.45729 0.67589 0.66221 0.0
C209 C 0.39288 0.69901 0.68417 0.0
C210 C 0.42231 0.70095 0.71212 0.0
C211 C 0.45435 0.68956 0.70114 0.0
C212 C 0.42787 0.67387 0.63429 0.0
C213 C 0.39609 0.68557 0.6451 0.0
C214 C 0.4895 0.66105 0.65191 0.0
C215 C 0.42028 0.52954 0.61023 0.0
H216 H 0.57358 0.39907 0.46817 0.0
H217 H 0.51444 0.41865 0.46847 0.0
H218 H 0.55496 0.48941 0.5723 0.0
H219 H 0.61375 0.47043 0.57194 0.0
H220 H 0.42067 0.71151 0.74234 0.0
H221 H 0.47658 0.69093 0.72319 0.0
H222 H 0.42916 0.66272 0.6043 0.0
H223 H 0.37363 0.68335 0.62312 0.0
Tb224 Tb 0.99313 0.6083 0.06517 0.0
Tb225 Tb 0.98973 0.53224 0.12127 0.0
C226 C 0.0207 0.54064 1.03189 0.0
C227 C 0.96275 0.68459 1.01322 0.0
C228 C 0.9014 0.71446 0.99541 0.0
C229 C 0.92776 0.71257 0.96513 0.0
C230 C 0.9583 0.69783 0.97404 0.0
C231 C 0.93658 0.6867 1.04354 0.0
C232 C 0.90633 0.70171 1.03478 0.0
C233 C 0.99283 0.66599 1.02157 0.0
O234 O 0.93953 0.56486 1.05084 0.0
O235 O 0.93025 0.52358 0.10621 0.0
O236 O 0.97882 0.57574 0.16174 0.0
O237 O 0.95699 0.61256 0.11599 0.0
O238 O 0.97693 0.47203 0.13003 0.0
O239 O 1.00545 0.51139 0.17617 0.0
O240 O 0.04936 0.56409 0.11311 0.0
O241 O 0.04157 0.62414 0.10613 0.0
O242 O 0.02914 0.57838 1.03481 0.0
O243 O 0.99851 0.51765 1.05873 0.0
C244 C 0.91788 0.53635 0.07308 0.0
O245 O 1.00569 0.66853 1.05847 0.0
O246 O 0.98639 0.63109 1.00777 0.0
C247 C 0.96196 0.60268 0.15347 0.0
C248 C 0.02962 0.4595 0.16317 0.0
C249 C 0.09983 0.44171 0.1639 0.0
C250 C 0.08161 0.44574 0.20032 0.0
C251 C 0.04674 0.45445 0.19994 0.0
C252 C 0.04721 0.45422 0.12675 0.0
C253 C 0.08183 0.44511 0.12714 0.0
C254 C 0.99725 0.47616 0.16295 0.0
C255 C 0.0625 0.60162 0.11662 0.0
H256 H 0.92472 0.72243 0.93459 0.0
H257 H 0.97804 0.69612 0.9502 0.0
H258 H 0.93905 0.67606 0.07387 0.0
H259 H 0.88615 0.7023 1.05856 0.0
H260 H 0.09468 0.44285 0.22911 0.0
H261 H 0.03395 0.45886 0.22833 0.0
H262 H 0.03509 0.45872 0.09787 0.0
H263 H 0.09536 0.4425 0.09863 0.0
H264 H 0.34337 0.26924 0.25098 0.0
H265 H 0.25613 0.25322 0.4578 0.0
H266 H 0.38222 0.36674 0.32954 0.0
H267 H 0.28401 0.15507 0.40745 0.0
H268 H 0.30628 0.2962 0.41592 0.0
H269 H 0.32633 0.2266 0.30963 0.0
C270 C 0.34994 0.28148 0.28065 0.0
C271 C 0.36472 0.32148 0.2855 0.0
C272 C 0.30212 0.26528 0.41497 0.0
C273 C 0.34267 0.27313 0.35292 0.0
C274 C 0.2735 0.24073 0.43886 0.0
C275 C 0.26509 0.20047 0.43511 0.0
C276 C 0.3218 0.24931 0.38684 0.0
C277 C 0.2886 0.18592 0.41011 0.0
C278 C 0.33977 0.25715 0.31425 0.0
C279 C 0.37079 0.33596 0.32482 0.0
N280 N 0.31521 0.21028 0.38609 0.0
N281 N 0.35864 0.31192 0.3572 0.0
H282 H 0.14513 0.83856 0.88475 0.0
H283 H 0.29426 1.03988 0.93851 0.0
H284 H 0.20332 0.92475 0.79738 0.0
H285 H 0.25584 0.94423 1.02297 0.0
H286 H 0.24552 1.00605 0.89111 0.0
H287 H 0.16974 0.88472 0.93908 0.0
C288 C 0.16193 0.86778 0.87712 0.0
C289 C 0.1723 0.87815 0.83689 0.0
C290 C 0.24726 0.99276 0.92031 0.0
C291 C 0.2011 0.93058 0.89824 0.0
C292 C 0.27493 1.01221 0.94764 0.0
C293 C 0.2796 0.99464 0.98468 0.0
C294 C 0.22414 0.95534 0.92988 0.0
C295 C 0.25384 0.9585 0.99442 0.0
C296 C 0.17622 0.89394 0.90796 0.0
C297 C 0.19446 0.91599 0.8281 0.0
N298 N 0.22757 0.93978 0.96694 0.0
N299 N 0.20865 0.94072 0.85861 0.0
H300 H 0.61805 0.39625 0.80482 0.0
H301 H 0.55965 0.57744 0.7124 0.0
H302 H 0.61939 0.49694 0.87359 0.0
H303 H 0.5313 0.46605 0.65532 0.0
H304 H 0.58708 0.55053 0.76911 0.0
H305 H 0.59091 0.42297 0.74738 0.0
C306 C 0.61239 0.4239 0.8078 0.0
C307 C 0.62087 0.44444 0.84391 0.0
C308 C 0.57484 0.53197 0.74419 0.0
C309 C 0.59055 0.47559 0.77829 0.0
C310 C 0.55929 0.54736 0.71168 0.0
C311 C 0.54298 0.52397 0.67902 0.0
C312 C 0.5745 0.49296 0.74398 0.0
C313 C 0.54331 0.48514 0.67992 0.0
C314 C 0.59709 0.43924 0.77504 0.0
C315 C 0.61362 0.48046 0.84609 0.0
N316 N 0.55888 0.4709 0.71178 0.0
N317 N 0.599 0.49494 0.81374 0.0
H318 H 0.91668 0.68714 0.38824 0.0
H319 H 0.92544 0.65949 0.14844 0.0
H320 H 0.86862 0.74959 0.30196 0.0
H321 H 0.97215 0.59579 0.23561 0.0
H322 H 0.90879 0.69619 0.20347 0.0
H323 H 0.94354 0.65884 0.33256 0.0
C324 C 0.91322 0.69607 0.35745 0.0
C325 C 0.89136 0.72149 0.34962 0.0
C326 C 0.92273 0.67424 0.21062 0.0
C327 C 0.92024 0.68778 0.28539 0.0
C328 C 0.93217 0.65305 0.17911 0.0
C329 C 0.95015 0.62414 0.18713 0.0
C330 C 0.93127 0.66672 0.25078 0.0
C331 C 0.95814 0.6175 0.22774 0.0
C332 C 0.92793 0.67942 0.32561 0.0
C333 C 0.88623 0.73095 0.30918 0.0
N334 N 0.94864 0.6385 0.25788 0.0
N335 N 0.90018 0.71384 0.2786 0.0
H336 H 0.44592 0.33745 0.24925 0.0
H337 H 0.41876 0.12887 0.15686 0.0
H338 H 0.35971 0.28558 0.16208 0.0
H339 H 0.52753 0.19577 0.20409 0.0
H340 H 0.3937 0.18352 0.16734 0.0
H341 H 0.47449 0.28409 0.2399 0.0
C342 C 0.43363 0.31518 0.22755 0.0
C343 C 0.40103 0.31609 0.20577 0.0
C344 C 0.42302 0.18623 0.17555 0.0
C345 C 0.43238 0.25481 0.19587 0.0
C346 C 0.43732 0.15487 0.16993 0.0
C347 C 0.47543 0.15769 0.17952 0.0
C348 C 0.44675 0.2207 0.19128 0.0
C349 C 0.49801 0.19233 0.19623 0.0
C350 C 0.44969 0.28478 0.22237 0.0
C351 C 0.38548 0.2864 0.17851 0.0
N352 N 0.48332 0.22256 0.2016 0.0
N353 N 0.40107 0.25677 0.17463 0.0
H354 H 0.08604 0.8645 0.79352 0.0
H355 H 0.02075 1.00472 0.6889 0.0
H356 H 0.18247 0.89998 0.71287 0.0
H357 H 0.1067 1.00035 0.60103 0.0
H358 H 0.04493 0.96329 0.73417 0.0
H359 H 0.05798 0.91096 0.75993 0.0
C360 C 0.1014 0.8827 0.7691 0.0
C361 C 0.13611 0.87844 0.75534 0.0
C362 C 0.05825 0.97093 0.70487 0.0
C363 C 0.10507 0.93172 0.71706 0.0
C364 C 0.04459 0.99491 0.67904 0.0
C365 C 0.06153 1.00586 0.64093 0.0
C366 C 0.08907 0.95783 0.69235 0.0
C367 C 0.09248 0.9925 0.62992 0.0
C368 C 0.08559 0.9093 0.74994 0.0
C369 C 0.15527 0.90226 0.72368 0.0
N370 N 0.10517 0.9693 0.65547 0.0
N371 N 0.13937 0.92761 0.7054 0.0
H372 H 0.68885 0.48502 0.97868 0.0
H373 H 0.87854 0.45925 0.07772 0.0
H374 H 0.7279 0.38723 0.94836 0.0
H375 H 0.8687 0.5694 1.03528 0.0
H376 H 0.81551 0.42744 1.04831 0.0
H377 H 0.74656 0.51082 1.0191 0.0
C378 C 0.7094 0.46871 0.9812 0.0
C379 C 0.70407 0.43435 0.95977 0.0
C380 C 0.82715 0.45858 1.04588 0.0
C381 C 0.76966 0.46323 1.00635 0.0
C382 C 0.86285 0.47675 0.06278 0.0
C383 C 0.87875 0.517 1.05885 0.0
C384 C 0.80688 0.48103 1.02605 0.0
C385 C 0.85751 0.53831 1.03883 0.0
C386 C 0.74223 0.48343 1.00409 0.0
C387 C 0.7311 0.41383 0.96447 0.0
N388 N 0.82257 0.52011 1.02343 0.0
N389 N 0.76301 0.42872 0.98715 0.0
H390 H 0.75675 0.74711 0.42749 0.0
H391 H 0.6164 0.56276 0.53988 0.0
H392 H 0.78916 0.64449 0.45702 0.0
H393 H 0.59545 0.67439 0.53334 0.0
H394 H 0.67793 0.59055 0.50629 0.0
H395 H 0.69554 0.71929 0.4622 0.0
C396 C 0.75084 0.71867 0.4414 0.0
C397 C 0.77797 0.69809 0.43971 0.0
C398 C 0.65997 0.60902 0.51237 0.0
C399 C 0.70793 0.66579 0.47908 0.0
C400 C 0.62476 0.59319 0.53158 0.0
C401 C 0.6006 0.61628 0.53955 0.0
C402 C 0.6711 0.6482 0.50059 0.0
C403 C 0.61312 0.6555 0.528 0.0
C404 C 0.71597 0.70278 0.46116 0.0
C405 C 0.76882 0.66109 0.45754 0.0
N406 N 0.64737 0.67014 0.50894 0.0
N407 N 0.73455 0.64608 0.47651 0.0
H408 H 0.33324 0.45212 0.22039 0.0
H409 H 0.12563 0.39068 0.11951 0.0
H410 H 0.28752 0.34584 0.15664 0.0
H411 H 0.16183 0.48007 0.20831 0.0
H412 H 0.18938 0.38128 0.12134 0.0
H413 H 0.27567 0.47109 0.20335 0.0
C414 C 0.31148 0.43347 0.20168 0.0
C415 C 0.31486 0.39758 0.18971 0.0
C416 C 0.18339 0.40306 0.14027 0.0
C417 C 0.24895 0.41829 0.17086 0.0
C418 C 0.14707 0.40845 0.13922 0.0
C419 C 0.13833 0.43583 0.16419 0.0
C420 C 0.21126 0.42552 0.16617 0.0
C421 C 0.16715 0.45809 0.18917 0.0
C422 C 0.27855 0.44397 0.19235 0.0
C423 C 0.28593 0.37393 0.16597 0.0
N424 N 0.20229 0.45239 0.18958 0.0
N425 N 0.25391 0.38449 0.15767 0.0
H426 H 0.64184 0.31856 0.89887 0.0
H427 H 0.61431 0.20788 0.11141 0.0
H428 H 0.64488 0.38208 1.00853 0.0
H429 H 0.5467 0.16263 1.00685 0.0
H430 H 0.64204 0.26926 0.07403 0.0
H431 H 0.62436 0.25799 0.93832 0.0
C432 C 0.63923 0.31967 0.93139 0.0
C433 C 0.64409 0.35519 0.95044 0.0
C434 C 0.62134 0.24569 1.05936 0.0
C435 C 0.62501 0.28621 0.99583 0.0
C436 C 0.60573 0.21069 0.08047 0.0
C437 C 0.57815 0.18021 0.06213 0.0
C438 C 0.61011 0.24962 1.01935 0.0
C439 C 0.56773 0.18545 1.02214 0.0
C440 C 0.6293 0.28521 0.95381 0.0
C441 C 0.64132 0.35524 0.99277 0.0
N442 N 0.5839 0.21932 1.00202 0.0
N443 N 0.63175 0.32116 1.01417 0.0
H444 H 0.94218 0.77538 0.43178 0.0
H445 H 0.9223 0.96385 0.5156 0.0
H446 H 0.86113 0.82553 0.37615 0.0
H447 H 0.03572 0.97299 0.47196 0.0
H448 H 0.89777 0.90438 0.47665 0.0
H449 H 0.97846 0.84017 0.45556 0.0
C450 C 0.93322 0.80035 0.42277 0.0
C451 C 0.89896 0.79531 0.40148 0.0
C452 C 0.92802 0.91953 0.47563 0.0
C453 C 0.93856 0.86848 0.43058 0.0
C454 C 0.94204 0.95325 0.49797 0.0
C455 C 0.98105 0.97346 0.49684 0.0
C456 C 0.9533 0.9051 0.45305 0.0
C457 C 1.00538 0.95838 0.47336 0.0
C458 C 0.95348 0.8371 0.43688 0.0
C459 C 0.88774 0.82843 0.39189 0.0
N460 N 0.99123 0.92474 0.45281 0.0
N461 N 0.90666 0.86331 0.40759 0.0
H462 H 0.22846 0.82597 0.70466 0.0
H463 H 0.34976 0.68072 0.75329 0.0
H464 H 0.19541 0.73839 0.79808 0.0
H465 H 0.35878 0.7446 0.64078 0.0
H466 H 0.29426 0.7022 0.77169 0.0
H467 H 0.27661 0.79655 0.68107 0.0
C468 C 0.23071 0.79982 0.71945 0.0
C469 C 0.20759 0.78405 0.75284 0.0
C470 C 0.30824 0.71125 0.74286 0.0
C471 C 0.26378 0.75117 0.72727 0.0
C472 C 0.34005 0.6993 0.73253 0.0
C473 C 0.35892 0.71108 0.69556 0.0
C474 C 0.29561 0.73554 0.71624 0.0
C475 C 0.34491 0.73469 0.66947 0.0
C476 C 0.25847 0.78326 0.70631 0.0
C477 C 0.21268 0.7511 0.77209 0.0
N478 N 0.31429 0.74638 0.68045 0.0
N479 N 0.24057 0.73588 0.75928 0.0
H480 H 0.66111 0.79697 0.81661 0.0
H481 H 0.87091 0.93208 0.76278 0.0
H482 H 0.74247 0.85904 0.90374 0.0
H483 H 0.77806 0.90701 0.67744 0.0
H484 H 0.82932 0.88851 0.8118 0.0
H485 H 0.70885 0.82161 0.76267 0.0
C486 C 0.68931 0.81512 0.82429 0.0
C487 C 0.69818 0.82603 0.86435 0.0
C488 C 0.81823 0.89213 0.78213 0.0
C489 C 0.75251 0.85379 0.80373 0.0
C490 C 0.842 0.91677 0.75405 0.0
C491 C 0.82772 0.92352 0.7162 0.0
C492 C 0.77996 0.87405 0.77226 0.0
C493 C 0.78992 0.90312 0.70662 0.0
C494 C 0.71641 0.82911 0.79375 0.0
C495 C 0.73493 0.84951 0.87322 0.0
N496 N 0.76716 0.87953 0.73465 0.0
N497 N 0.76073 0.86278 0.84313 0.0
H498 H 0.84425 0.26525 0.43672 0.0
H499 H 0.74985 0.24955 0.23459 0.0
H500 H 0.88475 0.36048 0.35269 0.0
H501 H 0.77397 0.14959 0.28834 0.0
H502 H 0.80312 0.29127 0.27239 0.0
H503 H 0.82364 0.22178 0.38071 0.0
C504 C 0.85045 0.27674 0.40635 0.0
C505 C 0.86662 0.31644 0.39929 0.0
C506 C 0.79741 0.26017 0.27495 0.0
C507 C 0.84029 0.26724 0.33483 0.0
C508 C 0.76697 0.23633 0.25342 0.0
C509 C 0.75671 0.19607 0.25936 0.0
C510 C 0.81709 0.24351 0.30291 0.0
C511 C 0.78 0.18056 0.28408 0.0
C512 C 0.83817 0.25195 0.37423 0.0
C513 C 0.87207 0.33001 0.35917 0.0
N514 N 0.80849 0.20431 0.30577 0.0
N515 N 0.85778 0.30563 0.3283 0.0
H516 H 0.41537 0.68802 0.29055 0.0
H517 H 0.41938 0.64954 0.5295 0.0
H518 H 0.36075 0.74224 0.37712 0.0
H519 H 0.47213 0.59356 0.44191 0.0
H520 H 0.40214 0.68757 0.475 0.0
H521 H 0.44294 0.6592 0.34605 0.0
C522 C 0.41057 0.69506 0.32143 0.0
C523 C 0.38663 0.71819 0.32944 0.0
C524 C 0.41752 0.66702 0.46765 0.0
C525 C 0.41632 0.68388 0.3933 0.0
C526 C 0.42728 0.64507 0.49883 0.0
C527 C 0.44714 0.61796 0.49047 0.0
C528 C 0.42764 0.66206 0.42755 0.0
C529 C 0.45662 0.6138 0.44995 0.0
C530 C 0.4257 0.67811 0.35313 0.0
C531 C 0.3799 0.72533 0.36987 0.0
N532 N 0.44678 0.63551 0.42012 0.0
N533 N 0.3943 0.70792 0.40032 0.0
H534 H 0.16987 0.46265 0.87068 0.0
H535 H 0.98781 0.47322 0.99219 0.0
H536 H 0.05983 0.43096 0.81285 0.0
H537 H 0.09051 0.56904 0.99488 0.0
H538 H 0.01494 0.44581 0.93582 0.0
H539 H 0.14278 0.49125 0.92595 0.0
C540 C 0.1401 0.46188 0.86944 0.0
C541 C 0.11721 0.4446 0.83677 0.0
C542 C 0.03144 0.47283 0.94884 0.0
C543 C 0.08569 0.4757 0.9009 0.0
C544 C 0.01611 0.48838 0.98104 0.0
C545 C 0.03687 0.52357 0.99809 0.0
C546 C 0.0683 0.4919 0.93448 0.0
C547 C 0.07342 0.54203 0.9824 0.0
C548 C 0.12465 0.47797 0.9011 0.0
C549 C 0.07843 0.44343 0.83757 0.0
N550 N 0.08817 0.52576 0.95181 0.0
N551 N 0.0638 0.4584 0.86925 0.0
H552 H 0.56653 0.82031 0.98572 0.0
H553 H 0.57177 1.04031 1.00492 0.0
H554 H 0.65613 0.91166 0.9303 0.0
H555 H 0.5476 0.96347 0.10883 0.0
H556 H 0.58833 0.98966 0.96637 0.0
H557 H 0.54445 0.86949 1.02143 0.0
C558 C 0.58124 0.85067 0.98092 0.0
C559 C 0.61301 0.86214 0.95512 0.0
C560 C 0.57926 0.98403 0.99759 0.0
C561 C 0.5876 0.9179 0.99439 0.0
C562 C 0.56986 1.01275 1.01948 0.0
C563 C 0.55882 1.00603 1.06009 0.0
C564 C 0.57643 0.94816 1.01621 0.0
C565 C 0.55658 0.96986 0.07768 0.0
C566 C 0.56869 0.87853 1.00106 0.0
C567 C 0.63105 0.9018 0.94937 0.0
N568 N 0.56508 0.94205 1.05551 0.0
N569 N 0.61796 0.92834 0.96868 0.0
H570 H 0.9505 0.33722 0.43477 0.0
H571 H 0.92648 0.12335 0.51197 0.0
H572 H 0.86433 0.27761 0.52052 0.0
H573 H 0.03972 0.19916 0.48786 0.0
H574 H 0.90063 0.17764 0.50213 0.0
H575 H 0.98213 0.28574 0.44337 0.0
C576 C 0.93883 0.31367 0.45601 0.0
C577 C 0.90532 0.31186 0.4776 0.0
C578 C 0.93112 0.18238 0.49878 0.0
C579 C 0.94009 0.25271 0.4864 0.0
C580 C 0.946 0.1513 0.50403 0.0
C581 C 0.98552 0.15661 0.50097 0.0
C582 C 0.95566 0.2192 0.48976 0.0
C583 C 0.00911 0.19372 0.49054 0.0
C584 C 0.95668 0.28441 0.46077 0.0
C585 C 0.89068 0.28057 0.50423 0.0
N586 N 0.99381 0.22373 0.48527 0.0
N587 N 0.90786 0.25198 0.50747 0.0
H588 H 0.29046 0.6429 0.21721 0.0
H589 H 0.09474 0.67615 0.14049 0.0
H590 H 0.25081 0.73902 0.25248 0.0
H591 H 0.11672 0.56507 0.1349 0.0
H592 H 0.15562 0.70206 0.17493 0.0
H593 H 0.22971 0.61522 0.1817 0.0
C594 C 0.26876 0.65791 0.21762 0.0
C595 C 0.27546 0.69328 0.23739 0.0
C596 C 0.14715 0.67203 0.1661 0.0
C597 C 0.20673 0.66259 0.19657 0.0
C598 C 0.11248 0.65727 0.14619 0.0
C599 C 0.10055 0.61836 0.13481 0.0
C600 C 0.17027 0.64785 0.17446 0.0
C601 C 0.12474 0.59524 0.14319 0.0
C602 C 0.23432 0.64233 0.1973 0.0
C603 C 0.24679 0.71197 0.23697 0.0
N604 N 0.15849 0.61034 0.16249 0.0
N605 N 0.21379 0.69656 0.21666 0.0
H606 H 0.24254 0.42795 0.78376 0.0
H607 H 0.35421 0.48571 0.57305 0.0
H608 H 0.18113 0.42653 0.67273 0.0
H609 H 0.40047 0.52556 0.6898 0.0
H610 H 0.29252 0.45282 0.60601 0.0
H611 H 0.30291 0.45053 0.74655 0.0
C612 C 0.24197 0.43179 0.75128 0.0
C613 C 0.20704 0.42564 0.73126 0.0
C614 C 0.31632 0.46874 0.62423 0.0
C615 C 0.27601 0.45197 0.68823 0.0
C616 C 0.35151 0.48742 0.60551 0.0
C617 C 0.38262 0.50866 0.62862 0.0
C618 C 0.31257 0.47062 0.66639 0.0
C619 C 0.37738 0.5099 0.67058 0.0
C620 C 0.27633 0.44493 0.73006 0.0
C621 C 0.20761 0.43089 0.68911 0.0
N622 N 0.3433 0.4911 0.68797 0.0
N623 N 0.24165 0.44409 0.6689 0.0
H624 H 0.69205 0.74455 0.89684 0.0
H625 H 0.87382 0.7645 1.03879 0.0
H626 H 0.72632 0.82949 0.98996 0.0
H627 H 0.85305 0.69596 0.93091 0.0
H628 H 0.81698 0.78499 1.02445 0.0
H629 H 0.74816 0.7223 0.91188 0.0
C630 C 0.71118 0.75796 0.92089 0.0
C631 C 0.70424 0.78803 0.94297 0.0
C632 C 0.8249 0.76557 1.00382 0.0
C633 C 0.76837 0.76351 0.96001 0.0
C634 C 0.85724 0.75378 1.01207 0.0
C635 C 0.86811 0.72853 0.98597 0.0
C636 C 0.80305 0.75176 0.96939 0.0
C637 C 0.84586 0.7158 0.95156 0.0
C638 C 0.74318 0.74554 0.92932 0.0
C639 C 0.73004 0.80527 0.9733 0.0
N640 N 0.81425 0.72741 0.94434 0.0
N641 N 0.76095 0.79272 0.981 0.0
H642 H 0.3478 0.81807 0.30732 0.0
H643 H 0.5252 0.97607 0.21187 0.0
H644 H 0.43696 0.78086 0.25134 0.0
H645 H 0.40935 0.97161 0.18174 0.0
H646 H 0.5014 0.91337 0.24754 0.0
H647 H 0.38001 0.88487 0.28568 0.0
C648 C 0.37536 0.82445 0.29244 0.0
C649 C 0.38997 0.79411 0.28134 0.0
C650 C 0.48131 0.92639 0.2334 0.0
C651 C 0.42654 0.87003 0.25594 0.0
C652 C 0.49471 0.96207 0.2132 0.0
C653 C 0.4691 0.97898 0.19394 0.0
C654 C 0.44194 0.9082 0.23554 0.0
C655 C 0.42997 0.95949 0.19613 0.0
C656 C 0.39321 0.86228 0.27937 0.0
C657 C 0.42518 0.80357 0.26096 0.0
N658 N 0.41752 0.92529 0.21697 0.0
N659 N 0.44218 0.84076 0.24844 0.0
H660 H 0.18482 0.34034 0.74001 0.0
H661 H 0.01202 0.19139 0.6258 0.0
H662 H 0.0798 0.36421 0.70783 0.0
H663 H 0.12541 0.17764 0.62721 0.0
H664 H 0.03656 0.25346 0.65895 0.0
H665 H 0.16489 0.28037 0.70048 0.0
C666 C 0.15793 0.33325 0.724 0.0
C667 C 0.13377 0.35702 0.72722 0.0
C668 C 0.0562 0.23698 0.652 0.0
C669 C 0.11035 0.28838 0.68298 0.0
C670 C 0.0421 0.20129 0.63321 0.0
C671 C 0.06657 0.17897 0.62372 0.0
C672 C 0.09511 0.25067 0.66198 0.0
C673 C 0.10542 0.19376 0.63391 0.0
C674 C 0.14641 0.29897 0.70174 0.0
C675 C 0.099 0.34639 0.70636 0.0
N676 N 0.11844 0.22853 0.65268 0.0
N677 N 0.08819 0.3128 0.68557 0.0
H678 H 0.83606 0.44612 0.48413 0.0
H679 H 0.61058 0.36261 0.51063 0.0
H680 H 0.77916 0.32541 0.50482 0.0
H681 H 0.6704 0.48341 0.52547 0.0
H682 H 0.67215 0.34848 0.50735 0.0
H683 H 0.77617 0.46119 0.49999 0.0
C684 C 0.81109 0.42305 0.49326 0.0
C685 C 0.81226 0.38468 0.49391 0.0
C686 C 0.6718 0.37805 0.51163 0.0
C687 C 0.74369 0.40106 0.5104 0.0
C688 C 0.63669 0.38613 0.51317 0.0
C689 C 0.63539 0.42421 0.5183 0.0
C690 C 0.70592 0.40835 0.51463 0.0
C691 C 0.6701 0.45358 0.52182 0.0
C692 C 0.77692 0.43146 0.50193 0.0
C693 C 0.77917 0.35539 0.50474 0.0
N694 N 0.70393 0.44509 0.5196 0.0
N695 N 0.74604 0.36409 0.51209 0.0
loop_
_geom_bond_atom_site_label_1
_geom_bond_atom_site_label_2
_geom_bond_distance
_geom_bond_site_symmetry_2
_ccdc_geom_bond_type
C0 N1 1.317 . S
C0 N2 1.348 . S
C0 C3 1.485 . S
N1 C0 1.317 . S
N1 N5 1.370 . S
N2 C0 1.348 . S
N2 C4 1.346 . S
C3 C0 1.485 . S
C3 H7 0.960 . S
C3 H8 0.961 . S
C3 H9 0.960 . S
C4 N2 1.346 . S
C4 N5 1.307 . S
C4 C6 1.486 . S
N5 N1 1.370 . S
N5 C4 1.307 . S
C6 C4 1.486 . S
C6 H10 0.960 . S
C6 H11 0.960 . S
C6 H12 0.959 . S
H7 C3 0.960 . S
H8 C3 0.961 . S
H9 C3 0.960 . S
H10 C6 0.960 . S
H11 C6 0.960 . S
H12 C6 0.959 . S
C13 N14 1.317 . S
C13 N15 1.348 . S
C13 C16 1.485 . S
N14 C13 1.317 . S
N14 N18 1.370 . S
N15 C13 1.348 . S
N15 C17 1.346 . S
C16 C13 1.485 . S
C16 H20 0.960 . S
C16 H21 0.961 . S
C16 H22 0.960 . S
C17 N15 1.346 . S
C17 N18 1.307 . S
C17 C19 1.486 . S
N18 N14 1.370 . S
N18 C17 1.307 . S
C19 C17 1.486 . S
C19 H23 0.960 . S
C19 H24 0.960 . S
C19 H25 0.959 . S
H20 C16 0.960 . S
H21 C16 0.961 . S
H22 C16 0.960 . S
H23 C19 0.960 . S
H24 C19 0.960 . S
H25 C19 0.959 . S
C26 N27 1.317 . S
C26 N28 1.348 . S
C26 C29 1.485 . S
N27 C26 1.317 . S
N27 N31 1.370 . S
N28 C26 1.348 . S
N28 C30 1.346 . S
C29 C26 1.485 . S
C29 H33 0.960 . S
C29 H34 0.961 . S
C29 H35 0.960 . S
C30 N28 1.346 . S
C30 N31 1.307 . S
C30 C32 1.486 . S
N31 N27 1.370 . S
N31 C30 1.307 . S
C32 C30 1.486 . S
C32 H36 0.960 . S
C32 H37 0.960 . S
C32 H38 0.959 . S
H33 C29 0.960 . S
H34 C29 0.961 . S
H35 C29 0.960 . S
H36 C32 0.960 . S
H37 C32 0.960 . S
H38 C32 0.959 . S
C39 N40 1.317 . S
C39 N41 1.348 . S
C39 C42 1.485 . S
N40 C39 1.317 . S
N40 N44 1.370 . S
N41 C39 1.348 . S
N41 C43 1.346 . S
C42 C39 1.485 . S
C42 H46 0.960 . S
C42 H47 0.961 . S
C42 H48 0.960 . S
C43 N41 1.346 . S
C43 N44 1.307 . S
C43 C45 1.486 . S
N44 N40 1.370 . S
N44 C43 1.307 . S
C45 C43 1.486 . S
C45 H49 0.960 . S
C45 H50 0.960 . S
C45 H51 0.959 . S
H46 C42 0.960 . S
H47 C42 0.961 . S
H48 C42 0.960 . S
H49 C45 0.960 . S
H50 C45 0.960 . S
H51 C45 0.959 . S
C52 N53 1.317 . S
C52 N54 1.348 . S
C52 C55 1.485 . S
N53 C52 1.317 . S
N53 N57 1.370 . S
N54 C52 1.348 . S
N54 C56 1.346 . S
C55 C52 1.485 . S
C55 H59 0.960 . S
C55 H60 0.961 . S
C55 H61 0.960 . S
C56 N54 1.346 . S
C56 N57 1.307 . S
C56 C58 1.486 . S
N57 N53 1.370 . S
N57 C56 1.307 . S
C58 C56 1.486 . S
C58 H62 0.960 . S
C58 H63 0.960 . S
C58 H64 0.959 . S
H59 C55 0.960 . S
H60 C55 0.961 . S
H61 C55 0.960 . S
H62 C58 0.960 . S
H63 C58 0.960 . S
H64 C58 0.959 . S
C65 N66 1.317 . S
C65 N67 1.348 . S
C65 C68 1.485 . S
N66 C65 1.317 . S
N66 N70 1.370 . S
N67 C65 1.348 . S
N67 C69 1.346 . S
C68 C65 1.485 . S
C68 H72 0.960 . S
C68 H73 0.961 . S
C68 H74 0.960 . S
C69 N67 1.346 . S
C69 N70 1.307 . S
C69 C71 1.486 . S
N70 N66 1.370 . S
N70 C69 1.307 . S
C71 C69 1.486 . S
C71 H75 0.960 . S
C71 H76 0.960 . S
C71 H77 0.959 . S
H72 C68 0.960 . S
H73 C68 0.961 . S
H74 C68 0.960 . S
H75 C71 0.960 . S
H76 C71 0.960 . S
H77 C71 0.959 . S
C78 N79 1.317 . S
C78 N80 1.348 . S
C78 C81 1.485 . S
N79 C78 1.317 . S
N79 N83 1.370 . S
N80 C78 1.348 . S
N80 C82 1.346 . S
C81 C78 1.485 . S
C81 H85 0.960 . S
C81 H86 0.961 . S
C81 H87 0.960 . S
C82 N80 1.346 . S
C82 N83 1.307 . S
C82 C84 1.486 . S
N83 N79 1.370 . S
N83 C82 1.307 . S
C84 C82 1.486 . S
C84 H88 0.960 . S
C84 H89 0.960 . S
C84 H90 0.959 . S
H85 C81 0.960 . S
H86 C81 0.961 . S
H87 C81 0.960 . S
H88 C84 0.960 . S
H89 C84 0.960 . S
H90 C84 0.959 . S
C91 N92 1.317 . S
C91 N93 1.348 . S
C91 C94 1.485 . S
N92 C91 1.317 . S
N92 N96 1.370 . S
N93 C91 1.348 . S
N93 C95 1.346 . S
C94 C91 1.485 . S
C94 H98 0.960 . S
C94 H99 0.961 . S
C94 H100 0.960 . S
C95 N93 1.346 . S
C95 N96 1.307 . S
C95 C97 1.486 . S
N96 N92 1.370 . S
N96 C95 1.307 . S
C97 C95 1.486 . S
C97 H101 0.960 . S
C97 H102 0.960 . S
C97 H103 0.959 . S
H98 C94 0.960 . S
H99 C94 0.961 . S
H100 C94 0.960 . S
H101 C97 0.960 . S
H102 C97 0.960 . S
H103 C97 0.959 . S
Tb104 C113 2.764 . S
Tb104 O114 2.325 . S
Tb104 O117 2.303 . S
Tb104 O121 2.322 1_545 S
Tb104 O122 2.349 1_545 S
Tb104 O125 2.415 . S
Tb104 O126 2.399 . S
Tb105 O115 2.322 . S
Tb105 O116 2.349 1_655 S
Tb105 O118 2.415 1_545 S
Tb105 O119 2.399 1_545 S
Tb105 O120 2.325 1_645 S
Tb105 O123 2.303 1_645 S
Tb105 C134 2.764 1_545 S
C106 O122 1.261 . S
C106 O123 1.257 . S
C107 C110 1.358 . S
C107 C111 1.332 . S
C107 C113 1.504 . S
C108 C109 1.373 . S
C108 C112 1.308 . S
C109 C108 1.373 . S
C109 C110 1.429 . S
C109 H136 0.932 . S
C110 C107 1.358 . S
C110 C109 1.429 . S
C110 H137 0.930 . S
C111 C107 1.332 . S
C111 C112 1.394 . S
C111 H138 0.932 . S
C112 C108 1.308 . S
C112 C111 1.394 . S
C112 H139 0.929 . S
C113 Tb104 2.764 . S
C113 C107 1.504 . S
C113 O125 1.239 . S
C113 O126 1.263 . S
O114 Tb104 2.325 . S
O114 C124 1.236 . S
O115 Tb105 2.322 . S
O115 C124 1.257 1_655 S
O116 Tb105 2.349 1_455 S
O116 C127 1.261 . S
O117 Tb104 2.303 . S
O117 C127 1.257 . S
O118 Tb105 2.415 1_565 S
O118 C134 1.239 . S
O119 Tb105 2.399 1_565 S
O119 C134 1.263 . S
O120 Tb105 2.325 1_465 S
O120 C135 1.236 . S
O121 Tb104 2.322 1_565 S
O121 C135 1.257 . S
O122 Tb104 2.349 1_565 S
O122 C106 1.261 . S
O123 Tb105 2.303 1_465 S
O123 C106 1.257 . S
C124 O114 1.236 . S
C124 O115 1.257 1_455 S
O125 Tb104 2.415 . S
O125 C113 1.239 . S
O126 Tb104 2.399 . S
O126 C113 1.263 . S
C127 O116 1.261 . S
C127 O117 1.257 . S
C128 C131 1.358 . S
C128 C132 1.332 . S
C128 C134 1.504 . S
C129 C130 1.373 . S
C129 C133 1.308 . S
C130 C129 1.373 . S
C130 C131 1.429 . S
C130 H140 0.932 . S
C131 C128 1.358 . S
C131 C130 1.429 . S
C131 H141 0.930 . S
C132 C128 1.332 . S
C132 C133 1.394 . S
C132 H142 0.932 . S
C133 C129 1.308 . S
C133 C132 1.394 . S
C133 H143 0.929 . S
C134 Tb105 2.764 1_565 S
C134 O118 1.239 . S
C134 O119 1.263 . S
C134 C128 1.504 . S
C135 O120 1.236 . S
C135 O121 1.257 . S
H136 C109 0.932 . S
H137 C110 0.930 . S
H138 C111 0.932 . S
H139 C112 0.929 . S
H140 C130 0.932 . S
H141 C131 0.930 . S
H142 C132 0.932 . S
H143 C133 0.929 . S
Tb144 C153 2.764 . S
Tb144 O154 2.325 . S
Tb144 O157 2.303 . S
Tb144 O161 2.322 1_545 S
Tb144 O162 2.346 1_545 S
Tb144 O165 2.415 . S
Tb144 O166 2.399 . S
Tb145 O155 2.322 . S
Tb145 O156 2.349 . S
Tb145 O158 2.415 1_544 S
Tb145 O159 2.399 1_545 S
Tb145 O160 2.325 1_545 S
Tb145 O163 2.303 . S
Tb145 C174 2.764 1_544 S
C146 O162 1.262 . S
C146 O163 1.257 1_565 S
C147 C150 1.358 . S
C147 C151 1.332 . S
C147 C153 1.504 . S
C148 C149 1.373 . S
C148 C152 1.308 . S
C149 C148 1.373 . S
C149 C150 1.429 . S
C149 H176 0.932 . S
C150 C147 1.358 . S
C150 C149 1.429 . S
C150 H177 0.930 . S
C151 C147 1.332 . S
C151 C152 1.394 . S
C151 H178 0.932 . S
C152 C148 1.308 . S
C152 C151 1.394 . S
C152 H179 0.929 . S
C153 Tb144 2.764 . S
C153 C147 1.504 . S
C153 O165 1.239 . S
C153 O166 1.263 . S
O154 Tb144 2.325 . S
O154 C164 1.236 . S
O155 Tb145 2.322 . S
O155 C164 1.257 . S
O156 Tb145 2.349 . S
O156 C167 1.261 . S
O157 Tb144 2.303 . S
O157 C167 1.257 . S
O158 Tb145 2.415 1_566 S
O158 C174 1.239 . S
O159 Tb145 2.399 1_565 S
O159 C174 1.263 1_554 S
O160 Tb145 2.325 1_565 S
O160 C175 1.236 . S
O161 Tb144 2.322 1_565 S
O161 C175 1.257 . S
O162 Tb144 2.346 1_565 S
O162 C146 1.262 . S
O163 Tb145 2.303 . S
O163 C146 1.257 1_545 S
C164 O154 1.236 . S
C164 O155 1.257 . S
O165 Tb144 2.415 . S
O165 C153 1.239 . S
O166 Tb144 2.399 . S
O166 C153 1.263 . S
C167 O156 1.261 . S
C167 O157 1.257 . S
C168 C171 1.358 . S
C168 C172 1.332 . S
C168 C174 1.504 . S
C169 C170 1.373 . S
C169 C173 1.308 . S
C170 C169 1.373 . S
C170 C171 1.429 . S
C170 H180 0.932 . S
C171 C168 1.358 . S
C171 C170 1.429 . S
C171 H181 0.930 . S
C172 C168 1.332 . S
C172 C173 1.394 . S
C172 H182 0.932 . S
C173 C169 1.308 . S
C173 C172 1.394 . S
C173 H183 0.929 . S
C174 Tb145 2.764 1_566 S
C174 O158 1.239 . S
C174 O159 1.263 1_556 S
C174 C168 1.504 . S
C175 O160 1.236 . S
C175 O161 1.257 . S
H176 C149 0.932 . S
H177 C150 0.930 . S
H178 C151 0.932 . S
H179 C152 0.929 . S
H180 C170 0.932 . S
H181 C171 0.930 . S
H182 C172 0.932 . S
H183 C173 0.929 . S
Tb184 C193 2.764 . S
Tb184 O194 2.325 . S
Tb184 O197 2.303 . S
Tb184 O201 2.322 . S
Tb184 O202 2.349 . S
Tb184 O205 2.415 . S
Tb184 O206 2.399 . S
Tb185 O195 2.322 . S
Tb185 O196 2.349 . S
Tb185 O198 2.415 . S
Tb185 O199 2.399 . S
Tb185 O200 2.325 . S
Tb185 O203 2.303 . S
Tb185 C214 2.764 . S
C186 O202 1.261 . S
C186 O203 1.257 . S
C187 C190 1.358 . S
C187 C191 1.332 . S
C187 C193 1.504 . S
C188 C189 1.373 . S
C188 C192 1.308 . S
C189 C188 1.373 . S
C189 C190 1.429 . S
C189 H216 0.932 . S
C190 C187 1.358 . S
C190 C189 1.429 . S
C190 H217 0.930 . S
C191 C187 1.332 . S
C191 C192 1.394 . S
C191 H218 0.932 . S
C192 C188 1.308 . S
C192 C191 1.394 . S
C192 H219 0.929 . S
C193 Tb184 2.764 . S
C193 C187 1.504 . S
C193 O205 1.239 . S
C193 O206 1.263 . S
O194 Tb184 2.325 . S
O194 C204 1.236 . S
O195 Tb185 2.322 . S
O195 C204 1.257 . S
O196 Tb185 2.349 . S
O196 C207 1.261 . S
O197 Tb184 2.303 . S
O197 C207 1.257 . S
O198 Tb185 2.415 . S
O198 C214 1.239 . S
O199 Tb185 2.399 . S
O199 C214 1.263 . S
O200 Tb185 2.325 . S
O200 C215 1.236 . S
O201 Tb184 2.322 . S
O201 C215 1.257 . S
O202 Tb184 2.349 . S
O202 C186 1.261 . S
O203 Tb185 2.303 . S
O203 C186 1.257 . S
C204 O194 1.236 . S
C204 O195 1.257 . S
O205 Tb184 2.415 . S
O205 C193 1.239 . S
O206 Tb184 2.399 . S
O206 C193 1.263 . S
C207 O196 1.261 . S
C207 O197 1.257 . S
C208 C211 1.358 . S
C208 C212 1.332 . S
C208 C214 1.504 . S
C209 C210 1.373 . S
C209 C213 1.308 . S
C210 C209 1.373 . S
C210 C211 1.429 . S
C210 H220 0.932 . S
C211 C208 1.358 . S
C211 C210 1.429 . S
C211 H221 0.930 . S
C212 C208 1.332 . S
C212 C213 1.394 . S
C212 H222 0.932 . S
C213 C209 1.308 . S
C213 C212 1.394 . S
C213 H223 0.929 . S
C214 Tb185 2.764 . S
C214 O198 1.239 . S
C214 O199 1.263 . S
C214 C208 1.504 . S
C215 O200 1.236 . S
C215 O201 1.257 . S
H216 C189 0.932 . S
H217 C190 0.930 . S
H218 C191 0.932 . S
H219 C192 0.929 . S
H220 C210 0.932 . S
H221 C211 0.930 . S
H222 C212 0.932 . S
H223 C213 0.929 . S
Tb224 C233 2.764 . S
Tb224 O234 2.325 . S
Tb224 O237 2.303 1_556 S
Tb224 O241 2.322 1_656 S
Tb224 O242 2.349 1_655 S
Tb224 O245 2.415 . S
Tb224 O246 2.399 . S
Tb225 O235 2.322 1_455 S
Tb225 O236 2.349 1_455 S
Tb225 O238 2.415 . S
Tb225 O239 2.399 . S
Tb225 O240 2.325 . S
Tb225 O243 2.303 1_554 S
Tb225 C254 2.764 . S
C226 O242 1.261 . S
C226 O243 1.257 . S
C227 C230 1.358 . S
C227 C231 1.332 . S
C227 C233 1.504 . S
C228 C229 1.373 . S
C228 C232 1.308 . S
C229 C228 1.373 . S
C229 C230 1.429 . S
C229 H256 0.932 . S
C230 C227 1.358 . S
C230 C229 1.429 . S
C230 H257 0.930 . S
C231 C227 1.332 . S
C231 C232 1.394 . S
C231 H258 0.932 . S
C232 C228 1.308 . S
C232 C231 1.394 . S
C232 H259 0.929 . S
C233 Tb224 2.764 . S
C233 C227 1.504 . S
C233 O245 1.239 . S
C233 O246 1.263 . S
O234 Tb224 2.325 . S
O234 C244 1.236 . S
O235 Tb225 2.322 1_655 S
O235 C244 1.257 1_554 S
O236 Tb225 2.349 1_655 S
O236 C247 1.261 . S
O237 Tb224 2.303 1_554 S
O237 C247 1.257 . S
O238 Tb225 2.415 . S
O238 C254 1.239 . S
O239 Tb225 2.399 . S
O239 C254 1.263 . S
O240 Tb225 2.325 . S
O240 C255 1.236 . S
O241 Tb224 2.322 1_454 S
O241 C255 1.257 . S
O242 Tb224 2.349 1_455 S
O242 C226 1.261 . S
O243 Tb225 2.303 1_556 S
O243 C226 1.257 . S
C244 O234 1.236 . S
C244 O235 1.257 1_556 S
O245 Tb224 2.415 . S
O245 C233 1.239 . S
O246 Tb224 2.399 . S
O246 C233 1.263 . S
C247 O236 1.261 . S
C247 O237 1.257 . S
C248 C251 1.358 . S
C248 C252 1.332 . S
C248 C254 1.504 . S
C249 C250 1.373 . S
C249 C253 1.308 . S
C250 C249 1.373 . S
C250 C251 1.429 . S
C250 H260 0.932 . S
C251 C248 1.358 . S
C251 C250 1.429 . S
C251 H261 0.930 . S
C252 C248 1.332 . S
C252 C253 1.394 . S
C252 H262 0.932 . S
C253 C249 1.308 . S
C253 C252 1.394 . S
C253 H263 0.929 . S
C254 Tb225 2.764 . S
C254 O238 1.239 . S
C254 O239 1.263 . S
C254 C248 1.504 . S
C255 O240 1.236 . S
C255 O241 1.257 . S
H256 C229 0.932 . S
H257 C230 0.930 . S
H258 C231 0.932 . S
H259 C232 0.929 . S
H260 C250 0.932 . S
H261 C251 0.930 . S
H262 C252 0.932 . S
H263 C253 0.929 . S
H264 C270 0.930 . S
H265 C274 0.930 . S
H266 C279 0.929 . S
H267 C277 0.929 . S
H268 C272 0.929 . S
H269 C278 0.929 . S
C270 H264 0.930 . S
C270 C271 1.367 . S
C270 C278 1.378 . S
C271 C270 1.367 . S
C271 C279 1.433 . S
C272 H268 0.929 . S
C272 C274 1.378 . S
C272 C276 1.350 . S
C273 C276 1.463 . S
C273 C278 1.350 . S
C273 N281 1.427 . S
C274 H265 0.930 . S
C274 C272 1.378 . S
C274 C275 1.367 . S
C275 C274 1.367 . S
C275 C277 1.433 . S
C276 C272 1.350 . S
C276 C273 1.463 . S
C276 N280 1.427 . S
C277 H267 0.929 . S
C277 C275 1.433 . S
C277 N280 1.384 . S
C278 H269 0.929 . S
C278 C270 1.378 . S
C278 C273 1.350 . S
C279 H266 0.929 . S
C279 C271 1.433 . S
C279 N281 1.384 . S
N280 C276 1.427 . S
N280 C277 1.384 . S
N281 C273 1.427 . S
N281 C279 1.384 . S
H282 C288 0.930 . S
H283 C292 0.930 . S
H284 C297 0.929 . S
H285 C295 0.929 . S
H286 C290 0.929 . S
H287 C296 0.929 . S
C288 H282 0.930 . S
C288 C289 1.367 . S
C288 C296 1.378 . S
C289 C288 1.367 . S
C289 C297 1.433 . S
C290 H286 0.929 . S
C290 C292 1.378 . S
C290 C294 1.350 . S
C291 C294 1.463 . S
C291 C296 1.350 . S
C291 N299 1.427 . S
C292 H283 0.930 . S
C292 C290 1.378 . S
C292 C293 1.367 . S
C293 C292 1.367 . S
C293 C295 1.433 . S
C294 C290 1.350 . S
C294 C291 1.463 . S
C294 N298 1.427 . S
C295 H285 0.929 . S
C295 C293 1.433 . S
C295 N298 1.384 . S
C296 H287 0.929 . S
C296 C288 1.378 . S
C296 C291 1.350 . S
C297 H284 0.929 . S
C297 C289 1.433 . S
C297 N299 1.384 . S
N298 C294 1.427 . S
N298 C295 1.384 . S
N299 C291 1.427 . S
N299 C297 1.384 . S
H300 C306 0.930 . S
H301 C310 0.930 . S
H302 C315 0.929 . S
H303 C313 0.929 . S
H304 C308 0.929 . S
H305 C314 0.929 . S
C306 H300 0.930 . S
C306 C307 1.367 . S
C306 C314 1.378 . S
C307 C306 1.367 . S
C307 C315 1.433 . S
C308 H304 0.929 . S
C308 C310 1.378 . S
C308 C312 1.350 . S
C309 C312 1.463 . S
C309 C314 1.350 . S
C309 N317 1.427 . S
C310 H301 0.930 . S
C310 C308 1.378 . S
C310 C311 1.367 . S
C311 C310 1.367 . S
C311 C313 1.433 . S
C312 C308 1.350 . S
C312 C309 1.463 . S
C312 N316 1.427 . S
C313 H303 0.929 . S
C313 C311 1.433 . S
C313 N316 1.384 . S
C314 H305 0.929 . S
C314 C306 1.378 . S
C314 C309 1.350 . S
C315 H302 0.929 . S
C315 C307 1.433 . S
C315 N317 1.384 . S
N316 C312 1.427 . S
N316 C313 1.384 . S
N317 C309 1.427 . S
N317 C315 1.384 . S
H318 C324 0.930 . S
H319 C328 0.930 . S
H320 C333 0.929 . S
H321 C331 0.929 . S
H322 C326 0.929 . S
H323 C332 0.929 . S
C324 H318 0.930 . S
C324 C325 1.367 . S
C324 C332 1.378 . S
C325 C324 1.367 . S
C325 C333 1.433 . S
C326 H322 0.929 . S
C326 C328 1.378 . S
C326 C330 1.350 . S
C327 C330 1.463 . S
C327 C332 1.350 . S
C327 N335 1.427 . S
C328 H319 0.930 . S
C328 C326 1.378 . S
C328 C329 1.367 . S
C329 C328 1.367 . S
C329 C331 1.433 . S
C330 C326 1.350 . S
C330 C327 1.463 . S
C330 N334 1.427 . S
C331 H321 0.929 . S
C331 C329 1.433 . S
C331 N334 1.384 . S
C332 H323 0.929 . S
C332 C324 1.378 . S
C332 C327 1.350 . S
C333 H320 0.929 . S
C333 C325 1.433 . S
C333 N335 1.384 . S
N334 C330 1.427 . S
N334 C331 1.384 . S
N335 C327 1.427 . S
N335 C333 1.384 . S
H336 C342 0.930 . S
H337 C346 0.930 . S
H338 C351 0.929 . S
H339 C349 0.929 . S
H340 C344 0.929 . S
H341 C350 0.929 . S
C342 H336 0.930 . S
C342 C343 1.367 . S
C342 C350 1.378 . S
C343 C342 1.367 . S
C343 C351 1.433 . S
C344 H340 0.929 . S
C344 C346 1.378 . S
C344 C348 1.350 . S
C345 C348 1.463 . S
C345 C350 1.350 . S
C345 N353 1.427 . S
C346 H337 0.930 . S
C346 C344 1.378 . S
C346 C347 1.367 . S
C347 C346 1.367 . S
C347 C349 1.433 . S
C348 C344 1.350 . S
C348 C345 1.463 . S
C348 N352 1.427 . S
C349 H339 0.929 . S
C349 C347 1.433 . S
C349 N352 1.384 . S
C350 H341 0.929 . S
C350 C342 1.378 . S
C350 C345 1.350 . S
C351 H338 0.929 . S
C351 C343 1.433 . S
C351 N353 1.384 . S
N352 C348 1.427 . S
N352 C349 1.384 . S
N353 C345 1.427 . S
N353 C351 1.384 . S
H354 C360 0.930 . S
H355 C364 0.930 . S
H356 C369 0.929 . S
H357 C367 0.929 . S
H358 C362 0.929 . S
H359 C368 0.929 . S
C360 H354 0.930 . S
C360 C361 1.367 . S
C360 C368 1.378 . S
C361 C360 1.367 . S
C361 C369 1.433 . S
C362 H358 0.929 . S
C362 C364 1.378 . S
C362 C366 1.350 . S
C363 C366 1.463 . S
C363 C368 1.350 . S
C363 N371 1.427 . S
C364 H355 0.930 . S
C364 C362 1.378 . S
C364 C365 1.367 . S
C365 C364 1.367 . S
C365 C367 1.433 . S
C366 C362 1.350 . S
C366 C363 1.463 . S
C366 N370 1.427 . S
C367 H357 0.929 . S
C367 C365 1.433 . S
C367 N370 1.384 . S
C368 H359 0.929 . S
C368 C360 1.378 . S
C368 C363 1.350 . S
C369 H356 0.929 . S
C369 C361 1.433 . S
C369 N371 1.384 . S
N370 C366 1.427 . S
N370 C367 1.384 . S
N371 C363 1.427 . S
N371 C369 1.384 . S
H372 C378 0.930 . S
H373 C382 0.930 . S
H374 C387 0.929 . S
H375 C385 0.929 . S
H376 C380 0.929 . S
H377 C386 0.929 . S
C378 H372 0.930 . S
C378 C379 1.367 . S
C378 C386 1.378 . S
C379 C378 1.367 . S
C379 C387 1.433 . S
C380 H376 0.929 . S
C380 C382 1.378 . S
C380 C384 1.350 . S
C381 C384 1.463 . S
C381 C386 1.350 . S
C381 N389 1.427 . S
C382 H373 0.930 . S
C382 C380 1.378 . S
C382 C383 1.367 . S
C383 C382 1.367 . S
C383 C385 1.433 . S
C384 C380 1.350 . S
C384 C381 1.463 . S
C384 N388 1.427 . S
C385 H375 0.929 . S
C385 C383 1.433 . S
C385 N388 1.384 . S
C386 H377 0.929 . S
C386 C378 1.378 . S
C386 C381 1.350 . S
C387 H374 0.929 . S
C387 C379 1.433 . S
C387 N389 1.384 . S
N388 C384 1.427 . S
N388 C385 1.384 . S
N389 C381 1.427 . S
N389 C387 1.384 . S
H390 C396 0.930 . S
H391 C400 0.930 . S
H392 C405 0.929 . S
H393 C403 0.929 . S
H394 C398 0.929 . S
H395 C404 0.929 . S
C396 H390 0.930 . S
C396 C397 1.367 . S
C396 C404 1.378 . S
C397 C396 1.367 . S
C397 C405 1.433 . S
C398 H394 0.929 . S
C398 C400 1.378 . S
C398 C402 1.350 . S
C399 C402 1.463 . S
C399 C404 1.350 . S
C399 N407 1.427 . S
C400 H391 0.930 . S
C400 C398 1.378 . S
C400 C401 1.367 . S
C401 C400 1.367 . S
C401 C403 1.433 . S
C402 C398 1.350 . S
C402 C399 1.463 . S
C402 N406 1.427 . S
C403 H393 0.929 . S
C403 C401 1.433 . S
C403 N406 1.384 . S
C404 H395 0.929 . S
C404 C396 1.378 . S
C404 C399 1.350 . S
C405 H392 0.929 . S
C405 C397 1.433 . S
C405 N407 1.384 . S
N406 C402 1.427 . S
N406 C403 1.384 . S
N407 C399 1.427 . S
N407 C405 1.384 . S
H408 C414 0.930 . S
H409 C418 0.930 . S
H410 C423 0.929 . S
H411 C421 0.929 . S
H412 C416 0.929 . S
H413 C422 0.929 . S
C414 H408 0.930 . S
C414 C415 1.367 . S
C414 C422 1.378 . S
C415 C414 1.367 . S
C415 C423 1.433 . S
C416 H412 0.929 . S
C416 C418 1.378 . S
C416 C420 1.350 . S
C417 C420 1.463 . S
C417 C422 1.350 . S
C417 N425 1.427 . S
C418 H409 0.930 . S
C418 C416 1.378 . S
C418 C419 1.367 . S
C419 C418 1.367 . S
C419 C421 1.433 . S
C420 C416 1.350 . S
C420 C417 1.463 . S
C420 N424 1.427 . S
C421 H411 0.929 . S
C421 C419 1.433 . S
C421 N424 1.384 . S
C422 H413 0.929 . S
C422 C414 1.378 . S
C422 C417 1.350 . S
C423 H410 0.929 . S
C423 C415 1.433 . S
C423 N425 1.384 . S
N424 C420 1.427 . S
N424 C421 1.384 . S
N425 C417 1.427 . S
N425 C423 1.384 . S
H426 C432 0.930 . S
H427 C436 0.930 . S
H428 C441 0.929 . S
H429 C439 0.929 . S
H430 C434 0.929 1_554 S
H431 C440 0.929 . S
C432 H426 0.930 . S
C432 C433 1.367 . S
C432 C440 1.378 . S
C433 C432 1.367 . S
C433 C441 1.433 . S
C434 H430 0.929 1_556 S
C434 C436 1.378 1_556 S
C434 C438 1.350 . S
C435 C438 1.463 . S
C435 C440 1.350 . S
C435 N443 1.427 . S
C436 H427 0.930 . S
C436 C434 1.378 1_554 S
C436 C437 1.367 . S
C437 C436 1.367 . S
C437 C439 1.433 1_554 S
C438 C434 1.350 . S
C438 C435 1.463 . S
C438 N442 1.427 . S
C439 H429 0.929 . S
C439 C437 1.433 1_556 S
C439 N442 1.384 . S
C440 H431 0.929 . S
C440 C432 1.378 . S
C440 C435 1.350 . S
C441 H428 0.929 . S
C441 C433 1.433 . S
C441 N443 1.384 . S
N442 C438 1.427 . S
N442 C439 1.384 . S
N443 C435 1.427 . S
N443 C441 1.384 . S
H444 C450 0.930 . S
H445 C454 0.930 . S
H446 C459 0.929 . S
H447 C457 0.929 1_455 S
H448 C452 0.929 . S
H449 C458 0.929 . S
C450 H444 0.930 . S
C450 C451 1.367 . S
C450 C458 1.378 . S
C451 C450 1.367 . S
C451 C459 1.433 . S
C452 H448 0.929 . S
C452 C454 1.378 . S
C452 C456 1.350 . S
C453 C456 1.463 . S
C453 C458 1.350 . S
C453 N461 1.427 . S
C454 H445 0.930 . S
C454 C452 1.378 . S
C454 C455 1.367 . S
C455 C454 1.367 . S
C455 C457 1.433 . S
C456 C452 1.350 . S
C456 C453 1.463 . S
C456 N460 1.427 . S
C457 H447 0.929 1_655 S
C457 C455 1.433 . S
C457 N460 1.384 . S
C458 H449 0.929 . S
C458 C450 1.378 . S
C458 C453 1.350 . S
C459 H446 0.929 . S
C459 C451 1.433 . S
C459 N461 1.384 . S
N460 C456 1.427 . S
N460 C457 1.384 . S
N461 C453 1.427 . S
N461 C459 1.384 . S
H462 C468 0.930 . S
H463 C472 0.930 . S
H464 C477 0.929 . S
H465 C475 0.929 . S
H466 C470 0.929 . S
H467 C476 0.929 . S
C468 H462 0.930 . S
C468 C469 1.367 . S
C468 C476 1.378 . S
C469 C468 1.367 . S
C469 C477 1.433 . S
C470 H466 0.929 . S
C470 C472 1.378 . S
C470 C474 1.350 . S
C471 C474 1.463 . S
C471 C476 1.350 . S
C471 N479 1.427 . S
C472 H463 0.930 . S
C472 C470 1.378 . S
C472 C473 1.367 . S
C473 C472 1.367 . S
C473 C475 1.433 . S
C474 C470 1.350 . S
C474 C471 1.463 . S
C474 N478 1.427 . S
C475 H465 0.929 . S
C475 C473 1.433 . S
C475 N478 1.384 . S
C476 H467 0.929 . S
C476 C468 1.378 . S
C476 C471 1.350 . S
C477 H464 0.929 . S
C477 C469 1.433 . S
C477 N479 1.384 . S
N478 C474 1.427 . S
N478 C475 1.384 . S
N479 C471 1.427 . S
N479 C477 1.384 . S
H480 C486 0.930 . S
H481 C490 0.930 . S
H482 C495 0.929 . S
H483 C493 0.929 . S
H484 C488 0.929 . S
H485 C494 0.929 . S
C486 H480 0.930 . S
C486 C487 1.367 . S
C486 C494 1.378 . S
C487 C486 1.367 . S
C487 C495 1.433 . S
C488 H484 0.929 . S
C488 C490 1.378 . S
C488 C492 1.350 . S
C489 C492 1.463 . S
C489 C494 1.350 . S
C489 N497 1.427 . S
C490 H481 0.930 . S
C490 C488 1.378 . S
C490 C491 1.367 . S
C491 C490 1.367 . S
C491 C493 1.433 . S
C492 C488 1.350 . S
C492 C489 1.463 . S
C492 N496 1.427 . S
C493 H483 0.929 . S
C493 C491 1.433 . S
C493 N496 1.384 . S
C494 H485 0.929 . S
C494 C486 1.378 . S
C494 C489 1.350 . S
C495 H482 0.929 . S
C495 C487 1.433 . S
C495 N497 1.384 . S
N496 C492 1.427 . S
N496 C493 1.384 . S
N497 C489 1.427 . S
N497 C495 1.384 . S
H498 C504 0.930 . S
H499 C508 0.930 . S
H500 C513 0.929 . S
H501 C511 0.929 . S
H502 C506 0.929 . S
H503 C512 0.929 . S
C504 H498 0.930 . S
C504 C505 1.367 . S
C504 C512 1.378 . S
C505 C504 1.367 . S
C505 C513 1.433 . S
C506 H502 0.929 . S
C506 C508 1.378 . S
C506 C510 1.350 . S
C507 C510 1.463 . S
C507 C512 1.350 . S
C507 N515 1.427 . S
C508 H499 0.930 . S
C508 C506 1.378 . S
C508 C509 1.367 . S
C509 C508 1.367 . S
C509 C511 1.433 . S
C510 C506 1.350 . S
C510 C507 1.463 . S
C510 N514 1.427 . S
C511 H501 0.929 . S
C511 C509 1.433 . S
C511 N514 1.384 . S
C512 H503 0.929 . S
C512 C504 1.378 . S
C512 C507 1.350 . S
C513 H500 0.929 . S
C513 C505 1.433 . S
C513 N515 1.384 . S
N514 C510 1.427 . S
N514 C511 1.384 . S
N515 C507 1.427 . S
N515 C513 1.384 . S
H516 C522 0.930 . S
H517 C526 0.930 . S
H518 C531 0.929 . S
H519 C529 0.929 . S
H520 C524 0.929 . S
H521 C530 0.929 . S
C522 H516 0.930 . S
C522 C523 1.367 . S
C522 C530 1.378 . S
C523 C522 1.367 . S
C523 C531 1.433 . S
C524 H520 0.929 . S
C524 C526 1.378 . S
C524 C528 1.350 . S
C525 C528 1.463 . S
C525 C530 1.350 . S
C525 N533 1.427 . S
C526 H517 0.930 . S
C526 C524 1.378 . S
C526 C527 1.367 . S
C527 C526 1.367 . S
C527 C529 1.433 . S
C528 C524 1.350 . S
C528 C525 1.463 . S
C528 N532 1.427 . S
C529 H519 0.929 . S
C529 C527 1.433 . S
C529 N532 1.384 . S
C530 H521 0.929 . S
C530 C522 1.378 . S
C530 C525 1.350 . S
C531 H518 0.929 . S
C531 C523 1.433 . S
C531 N533 1.384 . S
N532 C528 1.427 . S
N532 C529 1.384 . S
N533 C525 1.427 . S
N533 C531 1.384 . S
H534 C540 0.930 . S
H535 C544 0.930 . S
H536 C549 0.929 . S
H537 C547 0.929 . S
H538 C542 0.929 . S
H539 C548 0.929 . S
C540 H534 0.930 . S
C540 C541 1.367 . S
C540 C548 1.378 . S
C541 C540 1.367 . S
C541 C549 1.433 . S
C542 H538 0.929 . S
C542 C544 1.378 . S
C542 C546 1.350 . S
C543 C546 1.463 . S
C543 C548 1.350 . S
C543 N551 1.427 . S
C544 H535 0.930 . S
C544 C542 1.378 . S
C544 C545 1.367 . S
C545 C544 1.367 . S
C545 C547 1.433 . S
C546 C542 1.350 . S
C546 C543 1.463 . S
C546 N550 1.427 . S
C547 H537 0.929 . S
C547 C545 1.433 . S
C547 N550 1.384 . S
C548 H539 0.929 . S
C548 C540 1.378 . S
C548 C543 1.350 . S
C549 H536 0.929 . S
C549 C541 1.433 . S
C549 N551 1.384 . S
N550 C546 1.427 . S
N550 C547 1.384 . S
N551 C543 1.427 . S
N551 C549 1.384 . S
H552 C558 0.930 . S
H553 C562 0.930 1_545 S
H554 C567 0.929 . S
H555 C565 0.929 . S
H556 C560 0.929 . S
H557 C566 0.929 . S
C558 H552 0.930 . S
C558 C559 1.367 . S
C558 C566 1.378 . S
C559 C558 1.367 . S
C559 C567 1.433 . S
C560 H556 0.929 . S
C560 C562 1.378 . S
C560 C564 1.350 . S
C561 C564 1.463 . S
C561 C566 1.350 . S
C561 N569 1.427 . S
C562 H553 0.930 1_565 S
C562 C560 1.378 . S
C562 C563 1.367 1_556 S
C563 C562 1.367 1_554 S
C563 C565 1.433 . S
C564 C560 1.350 . S
C564 C561 1.463 . S
C564 N568 1.427 1_556 S
C565 H555 0.929 . S
C565 C563 1.433 . S
C565 N568 1.384 . S
C566 H557 0.929 . S
C566 C558 1.378 . S
C566 C561 1.350 . S
C567 H554 0.929 . S
C567 C559 1.433 . S
C567 N569 1.384 . S
N568 C564 1.427 1_554 S
N568 C565 1.384 . S
N569 C561 1.427 . S
N569 C567 1.384 . S
H570 C576 0.930 . S
H571 C580 0.930 . S
H572 C585 0.929 . S
H573 C583 0.929 1_455 S
H574 C578 0.929 . S
H575 C584 0.929 . S
C576 H570 0.930 . S
C576 C577 1.367 . S
C576 C584 1.378 . S
C577 C576 1.367 . S
C577 C585 1.433 . S
C578 H574 0.929 . S
C578 C580 1.378 . S
C578 C582 1.350 . S
C579 C582 1.463 . S
C579 C584 1.350 . S
C579 N587 1.427 . S
C580 H571 0.930 . S
C580 C578 1.378 . S
C580 C581 1.367 . S
C581 C580 1.367 . S
C581 C583 1.433 . S
C582 C578 1.350 . S
C582 C579 1.463 . S
C582 N586 1.427 . S
C583 H573 0.929 1_655 S
C583 C581 1.433 . S
C583 N586 1.384 . S
C584 H575 0.929 . S
C584 C576 1.378 . S
C584 C579 1.350 . S
C585 H572 0.929 . S
C585 C577 1.433 . S
C585 N587 1.384 . S
N586 C582 1.427 . S
N586 C583 1.384 . S
N587 C579 1.427 . S
N587 C585 1.384 . S
H588 C594 0.930 . S
H589 C598 0.930 . S
H590 C603 0.929 . S
H591 C601 0.929 . S
H592 C596 0.929 . S
H593 C602 0.929 . S
C594 H588 0.930 . S
C594 C595 1.367 . S
C594 C602 1.378 . S
C595 C594 1.367 . S
C595 C603 1.433 . S
C596 H592 0.929 . S
C596 C598 1.378 . S
C596 C600 1.350 . S
C597 C600 1.463 . S
C597 C602 1.350 . S
C597 N605 1.427 . S
C598 H589 0.930 . S
C598 C596 1.378 . S
C598 C599 1.367 . S
C599 C598 1.367 . S
C599 C601 1.433 . S
C600 C596 1.350 . S
C600 C597 1.463 . S
C600 N604 1.427 . S
C601 H591 0.929 . S
C601 C599 1.433 . S
C601 N604 1.384 . S
C602 H593 0.929 . S
C602 C594 1.378 . S
C602 C597 1.350 . S
C603 H590 0.929 . S
C603 C595 1.433 . S
C603 N605 1.384 . S
N604 C600 1.427 . S
N604 C601 1.384 . S
N605 C597 1.427 . S
N605 C603 1.384 . S
H606 C612 0.930 . S
H607 C616 0.930 . S
H608 C621 0.929 . S
H609 C619 0.929 . S
H610 C614 0.929 . S
H611 C620 0.929 . S
C612 H606 0.930 . S
C612 C613 1.367 . S
C612 C620 1.378 . S
C613 C612 1.367 . S
C613 C621 1.433 . S
C614 H610 0.929 . S
C614 C616 1.378 . S
C614 C618 1.350 . S
C615 C618 1.463 . S
C615 C620 1.350 . S
C615 N623 1.427 . S
C616 H607 0.930 . S
C616 C614 1.378 . S
C616 C617 1.367 . S
C617 C616 1.367 . S
C617 C619 1.433 . S
C618 C614 1.350 . S
C618 C615 1.463 . S
C618 N622 1.427 . S
C619 H609 0.929 . S
C619 C617 1.433 . S
C619 N622 1.384 . S
C620 H611 0.929 . S
C620 C612 1.378 . S
C620 C615 1.350 . S
C621 H608 0.929 . S
C621 C613 1.433 . S
C621 N623 1.384 . S
N622 C618 1.427 . S
N622 C619 1.384 . S
N623 C615 1.427 . S
N623 C621 1.384 . S
H624 C630 0.930 . S
H625 C634 0.930 . S
H626 C639 0.929 . S
H627 C637 0.929 . S
H628 C632 0.929 . S
H629 C638 0.929 . S
C630 H624 0.930 . S
C630 C631 1.367 . S
C630 C638 1.378 . S
C631 C630 1.367 . S
C631 C639 1.433 . S
C632 H628 0.929 . S
C632 C634 1.378 . S
C632 C636 1.350 . S
C633 C636 1.463 . S
C633 C638 1.350 . S
C633 N641 1.427 . S
C634 H625 0.930 . S
C634 C632 1.378 . S
C634 C635 1.367 . S
C635 C634 1.367 . S
C635 C637 1.433 . S
C636 C632 1.350 . S
C636 C633 1.463 . S
C636 N640 1.427 . S
C637 H627 0.929 . S
C637 C635 1.433 . S
C637 N640 1.384 . S
C638 H629 0.929 . S
C638 C630 1.378 . S
C638 C633 1.350 . S
C639 H626 0.929 . S
C639 C631 1.433 . S
C639 N641 1.384 . S
N640 C636 1.427 . S
N640 C637 1.384 . S
N641 C633 1.427 . S
N641 C639 1.384 . S
H642 C648 0.930 . S
H643 C652 0.930 . S
H644 C657 0.929 . S
H645 C655 0.929 . S
H646 C650 0.929 . S
H647 C656 0.929 . S
C648 H642 0.930 . S
C648 C649 1.367 . S
C648 C656 1.378 . S
C649 C648 1.367 . S
C649 C657 1.433 . S
C650 H646 0.929 . S
C650 C652 1.378 . S
C650 C654 1.350 . S
C651 C654 1.463 . S
C651 C656 1.350 . S
C651 N659 1.427 . S
C652 H643 0.930 . S
C652 C650 1.378 . S
C652 C653 1.367 . S
C653 C652 1.367 . S
C653 C655 1.433 . S
C654 C650 1.350 . S
C654 C651 1.463 . S
C654 N658 1.427 . S
C655 H645 0.929 . S
C655 C653 1.433 . S
C655 N658 1.384 . S
C656 H647 0.929 . S
C656 C648 1.378 . S
C656 C651 1.350 . S
C657 H644 0.929 . S
C657 C649 1.433 . S
C657 N659 1.384 . S
N658 C654 1.427 . S
N658 C655 1.384 . S
N659 C651 1.427 . S
N659 C657 1.384 . S
H660 C666 0.930 . S
H661 C670 0.930 . S
H662 C675 0.929 . S
H663 C673 0.929 . S
H664 C668 0.929 . S
H665 C674 0.929 . S
C666 H660 0.930 . S
C666 C667 1.367 . S
C666 C674 1.378 . S
C667 C666 1.367 . S
C667 C675 1.433 . S
C668 H664 0.929 . S
C668 C670 1.378 . S
C668 C672 1.350 . S
C669 C672 1.463 . S
C669 C674 1.350 . S
C669 N677 1.427 . S
C670 H661 0.930 . S
C670 C668 1.378 . S
C670 C671 1.367 . S
C671 C670 1.367 . S
C671 C673 1.433 . S
C672 C668 1.350 . S
C672 C669 1.463 . S
C672 N676 1.427 . S
C673 H663 0.929 . S
C673 C671 1.433 . S
C673 N676 1.384 . S
C674 H665 0.929 . S
C674 C666 1.378 . S
C674 C669 1.350 . S
C675 H662 0.929 . S
C675 C667 1.433 . S
C675 N677 1.384 . S
N676 C672 1.427 . S
N676 C673 1.384 . S
N677 C669 1.427 . S
N677 C675 1.384 . S
H678 C684 0.930 . S
H679 C688 0.930 . S
H680 C693 0.929 . S
H681 C691 0.929 . S
H682 C686 0.929 . S
H683 C692 0.929 . S
C684 H678 0.930 . S
C684 C685 1.367 . S
C684 C692 1.378 . S
C685 C684 1.367 . S
C685 C693 1.433 . S
C686 H682 0.929 . S
C686 C688 1.378 . S
C686 C690 1.350 . S
C687 C690 1.463 . S
C687 C692 1.350 . S
C687 N695 1.427 . S
C688 H679 0.930 . S
C688 C686 1.378 . S
C688 C689 1.367 . S
C689 C688 1.367 . S
C689 C691 1.433 . S
C690 C686 1.350 . S
C690 C687 1.463 . S
C690 N694 1.427 . S
C691 H681 0.929 . S
C691 C689 1.433 . S
C691 N694 1.384 . S
C692 H683 0.929 . S
C692 C684 1.378 . S
C692 C687 1.350 . S
C693 H680 0.929 . S
C693 C685 1.433 . S
C693 N695 1.384 . S
N694 C690 1.427 . S
N694 C691 1.384 . S
N695 C687 1.427 . S
N695 C693 1.384 . S
C271 N1 0.775 . S
C275 C108 0.764 . S
C289 N18 1.175 . S
C293 C169 1.226 . S
C311 C207 2.087 . S
C307 N28 2.150 . S
C325 N40 2.594 . S
C329 C247 2.608 . S
C347 C167 1.482 . S
C343 N5 1.508 . S
C365 C135 1.715 . S
C361 N14 1.607 . S
C383 C244 1.808 . S
C379 N31 1.800 . S
C401 C204 1.628 . S
C397 N41 1.642 . S
C415 N2 0.940 . S
C419 C249 0.950 . S
C437 C164 2.570 . S
C433 N27 2.553 . S
C451 N44 2.374 . S
C455 C106 2.401 1_655 S
C469 N15 1.074 . S
C473 C209 1.110 . S
C491 C129 1.314 . S
C487 N57 1.325 . S
C505 N70 0.857 . S
C509 C148 0.897 . S
C523 N79 2.382 . S
C527 C186 2.393 . S
C541 N93 2.318 . S
C545 C226 2.298 . S
C559 N54 1.129 . S
C563 C146 1.160 . S
C581 C124 2.310 1_655 S
C577 N66 2.282 . S
C599 C255 1.308 . S
C595 N80 1.335 . S
C617 C215 1.897 . S
C613 N96 1.896 . S
C631 N53 1.142 . S
C635 C228 1.126 . S
C653 C175 2.108 . S
C649 N83 2.034 . S
C671 C127 2.415 . S
C667 N92 2.467 . S
C685 N67 1.289 . S
C689 C188 1.317 . S
