# Generated by pormake.
# Topology tsx, (6,3)-cn, num edge types: 1
# Building blocks:
#     Node 0, Type 0, BuildingBlock: VOLQOD_clean_sbu_1, # of connection points: 6
#     Node 1, Type 0, BuildingBlock: VOLQOD_clean_sbu_1, # of connection points: 6
#     Node 2, Type 1, BuildingBlock: BELTOD_clean_linker_0, # of connection points: 3
#     Node 3, Type 1, BuildingBlock: BELTOD_clean_linker_0, # of connection points: 3
#     Node 4, Type 1, BuildingBlock: BELTOD_clean_linker_0, # of connection points: 3
#     Node 5, Type 1, BuildingBlock: BELTOD_clean_linker_0, # of connection points: 3
#     Edge 6, Type (0, 1), BuildingBlock: MIFKUJ_clean_linker_0, # of connection points: 2
#     Edge 7, Type (0, 1), BuildingBlock: MIFKUJ_clean_linker_0, # of connection points: 2
#     Edge 8, Type (0, 1), BuildingBlock: MIFKUJ_clean_linker_0, # of connection points: 2
#     Edge 9, Type (0, 1), BuildingBlock: MIFKUJ_clean_linker_0, # of connection points: 2
#     Edge 10, Type (0, 1), BuildingBlock: MIFKUJ_clean_linker_0, # of connection points: 2
#     Edge 11, Type (0, 1), BuildingBlock: MIFKUJ_clean_linker_0, # of connection points: 2
#     Edge 12, Type (0, 1), BuildingBlock: MIFKUJ_clean_linker_0, # of connection points: 2
#     Edge 13, Type (0, 1), BuildingBlock: MIFKUJ_clean_linker_0, # of connection points: 2
#     Edge 14, Type (0, 1), BuildingBlock: MIFKUJ_clean_linker_0, # of connection points: 2
#     Edge 15, Type (0, 1), BuildingBlock: MIFKUJ_clean_linker_0, # of connection points: 2
#     Edge 16, Type (0, 1), BuildingBlock: MIFKUJ_clean_linker_0, # of connection points: 2
#     Edge 17, Type (0, 1), BuildingBlock: MIFKUJ_clean_linker_0, # of connection points: 2
# Relax obj value: 0.067
# Max RMSD: 0.102
# Mean RMSD: 0.074
data_MOF--net-tsx--node1-VOLQOD_clean_sbu_1--node2-BELTOD_clean_linker_0--edge1-MIFKUJ_clean_linker_0
_symmetry_space_group_name_H-M    P1
_symmetry_Int_Tables_number       1
_symmetry_cell_setting            triclinic
loop_
_symmetry_equiv_pos_as_xyz
'x, y, z'
_cell_length_a     29.039939
_cell_length_b     30.048892
_cell_length_c     56.836787
_cell_angle_alpha  90.998032
_cell_angle_beta   89.941217
_cell_angle_gamma 90.17714
loop_
_atom_site_label
_atom_site_type_symbol
_atom_site_fract_x
_atom_site_fract_y
_atom_site_fract_z
_atom_type_partial_charge
O0 O 0.01989 -0.0003 0.05834 0.0
Zn1 Zn 0.03625 0.99639 0.02407 0.0
O2 O 0.98202 0.00242 0.00436 0.0
Zn3 Zn 0.97378 0.94773 0.98567 0.0
Zn4 Zn 0.92802 0.01312 0.02441 0.0
Zn5 Zn 0.99098 0.05238 0.98333 0.0
O6 O 0.97455 0.96026 0.95097 0.0
O7 O 0.99526 0.03136 0.94942 0.0
O8 O 0.06917 0.93934 0.0176 0.0
O9 O 0.0258 0.90454 0.99096 0.0
O10 O 0.91486 0.91684 0.99433 0.0
O11 O 0.88434 0.9608 0.02201 0.0
O12 O 0.89381 0.06851 0.01476 0.0
O13 O 0.08162 0.04527 0.01815 0.0
O14 O 0.93748 0.09389 0.9858 0.0
O15 O 0.04819 0.08786 0.99157 0.0
C16 C 0.98363 0.01115 0.06946 0.0
C17 C 0.9859 0.99432 0.93922 0.0
C18 C 0.88327 0.92546 0.00928 0.0
C19 C 0.06131 0.90606 0.00407 0.0
C20 C 0.90196 0.09691 0.99887 0.0
C21 C 0.08144 0.07959 0.00537 0.0
O22 O 0.94631 0.01974 0.05869 0.0
O23 O 0.50303 0.49258 0.5617 0.0
Zn24 Zn 0.52408 0.49526 0.52826 0.0
O25 O 0.47259 0.50208 0.50684 0.0
Zn26 Zn 0.46726 0.44823 0.48749 0.0
Zn27 Zn 0.4161 0.51086 0.52529 0.0
Zn28 Zn 0.48403 0.55297 0.48656 0.0
O29 O 0.46697 0.46261 0.45317 0.0
O30 O 0.48651 0.53405 0.45217 0.0
O31 O 0.56151 0.44087 0.52054 0.0
O32 O 0.52135 0.40759 0.4921 0.0
O33 O 0.40985 0.41436 0.49538 0.0
O34 O 0.37263 0.45876 0.52053 0.0
O35 O 0.38403 0.56762 0.51614 0.0
O36 O 0.56651 0.54759 0.52641 0.0
O37 O 0.43226 0.59691 0.4902 0.0
O38 O 0.54301 0.58545 0.49547 0.0
C39 C 0.46555 0.50313 0.57195 0.0
C40 C 0.47711 0.4973 0.44167 0.0
C41 C 0.37529 0.42262 0.50853 0.0
C42 C 0.55613 0.40907 0.50571 0.0
C43 C 0.39514 0.59862 0.50217 0.0
C44 C 0.57098 0.57992 0.51242 0.0
O45 O 0.42995 0.51385 0.56025 0.0
P46 P 0.07203 0.09715 0.39779 0.0
H47 H 0.0426 0.09824 0.44694 0.0
H48 H 0.97302 0.12536 0.46661 0.0
H49 H 0.91441 0.15678 0.39908 0.0
H50 H 0.98379 0.12968 0.37957 0.0
H51 H 0.16643 0.07691 0.41146 0.0
H52 H 0.20088 0.01434 0.43145 0.0
H53 H 0.068 0.94881 0.43318 0.0
H54 H 0.0334 0.01327 0.41455 0.0
H55 H 0.07238 0.1557 0.35754 0.0
H56 H 0.05171 0.01581 0.36987 0.0
O57 O 0.10741 0.14066 0.40116 0.0
H58 H 0.05748 0.1432 0.3156 0.0
H59 H 0.03689 0.00313 0.32798 0.0
C60 C 0.01837 0.11154 0.41178 0.0
C61 C 0.01461 0.11052 0.43635 0.0
C62 C 0.97488 0.12615 0.44759 0.0
C63 C 0.93822 0.14314 0.43439 0.0
C64 C 0.94176 0.14324 0.40972 0.0
C65 C 0.98161 0.12784 0.39853 0.0
C66 C 0.09734 0.04986 0.41176 0.0
C67 C 0.14469 0.04918 0.41627 0.0
C68 C 0.16442 0.01306 0.42756 0.0
C69 C 0.13736 0.97618 0.43393 0.0
C70 C 0.08985 0.97683 0.42899 0.0
C71 C 0.07003 0.01348 0.41811 0.0
C72 C 0.06403 0.08659 0.36678 0.0
C73 C 0.06515 0.12222 0.35119 0.0
C74 C 0.05623 0.11512 0.32728 0.0
C75 C 0.04613 0.07217 0.31853 0.0
C76 C 0.04517 0.03648 0.3342 0.0
C77 C 0.05364 0.04372 0.35817 0.0
P78 P 0.09281 0.90321 0.61177 0.0
H79 H 0.07451 0.85343 0.56838 0.0
H80 H 0.0042 0.82112 0.55141 0.0
H81 H 0.92577 0.87414 0.61011 0.0
H82 H 0.996 0.90584 0.62701 0.0
H83 H 0.18242 0.93937 0.59866 0.0
H84 H 0.20568 0.00881 0.5802 0.0
H85 H 0.06279 0.0465 0.57402 0.0
H86 H 0.03975 0.97678 0.59245 0.0
H87 H 0.10022 0.84705 0.65285 0.0
H88 H 0.06649 0.9837 0.63882 0.0
O89 O 0.13417 0.86521 0.60832 0.0
H90 H 0.08659 0.86056 0.69482 0.0
H91 H 0.05181 0.99723 0.68056 0.0
C92 C 0.04062 0.88105 0.59919 0.0
C93 C 0.04213 0.85798 0.57757 0.0
C94 C 0.00191 0.83988 0.56782 0.0
C95 C 0.95951 0.84474 0.57955 0.0
C96 C 0.95805 0.86911 0.60089 0.0
C97 C 0.99823 0.88729 0.61056 0.0
C98 C 0.1094 0.95278 0.59664 0.0
C99 C 0.15609 0.96229 0.59304 0.0
C100 C 0.16931 0.00192 0.58244 0.0
C101 C 0.13601 0.03301 0.57562 0.0
C102 C 0.08918 0.02325 0.5792 0.0
C103 C 0.07599 0.98336 0.58958 0.0
C104 C 0.08537 0.91455 0.64277 0.0
C105 C 0.09024 0.88006 0.65882 0.0
C106 C 0.08198 0.88774 0.68278 0.0
C107 C 0.06818 0.93004 0.69108 0.0
C108 C 0.06316 0.96449 0.67485 0.0
C109 C 0.0715 0.95675 0.6509 0.0
P110 P 0.57535 0.59556 0.89651 0.0
H111 H 0.55927 0.6264 0.94447 0.0
H112 H 0.49012 0.65095 0.96553 0.0
H113 H 0.40904 0.62448 0.90301 0.0
H114 H 0.47757 0.59832 0.88258 0.0
H115 H 0.67061 0.56853 0.90311 0.0
H116 H 0.70552 0.50392 0.92137 0.0
H117 H 0.57008 0.45293 0.93779 0.0
H118 H 0.53546 0.51832 0.91988 0.0
H119 H 0.55574 0.65294 0.8572 0.0
H120 H 0.56683 0.51191 0.86891 0.0
O121 O 0.61213 0.63827 0.89817 0.0
H122 H 0.53478 0.63784 0.81611 0.0
H123 H 0.54599 0.49666 0.82792 0.0
C124 C 0.5237 0.61128 0.9119 0.0
C125 C 0.52645 0.62562 0.93542 0.0
C126 C 0.48695 0.63976 0.94738 0.0
C127 C 0.44403 0.64 0.93592 0.0
C128 C 0.44135 0.62425 0.9125 0.0
C129 C 0.4808 0.60979 0.90065 0.0
C130 C 0.6006 0.54847 0.91054 0.0
C131 C 0.64848 0.54364 0.91083 0.0
C132 C 0.66834 0.5065 0.9211 0.0
C133 C 0.64053 0.47327 0.93102 0.0
C134 C 0.59242 0.47825 0.93062 0.0
C135 C 0.57261 0.51551 0.92034 0.0
C136 C 0.56354 0.58364 0.86598 0.0
C137 C 0.55413 0.61877 0.85085 0.0
C138 C 0.54177 0.6101 0.82748 0.0
C139 C 0.53876 0.56607 0.81885 0.0
C140 C 0.54853 0.53092 0.83404 0.0
C141 C 0.56047 0.53964 0.85749 0.0
P142 P 0.58887 0.41136 0.11546 0.0
H143 H 0.56631 0.31906 0.10385 0.0
H144 H 0.50076 0.28402 0.08415 0.0
H145 H 0.44068 0.41366 0.07348 0.0
H146 H 0.50572 0.44823 0.09421 0.0
H147 H 0.63241 0.49131 0.13523 0.0
H148 H 0.65769 0.56095 0.11798 0.0
H149 H 0.61228 0.51366 0.04958 0.0
H150 H 0.58765 0.44355 0.06697 0.0
H151 H 0.60557 0.36161 0.15837 0.0
H152 H 0.53198 0.47951 0.13843 0.0
O153 O 0.63391 0.37702 0.1145 0.0
H154 H 0.5836 0.37469 0.19946 0.0
H155 H 0.50993 0.49293 0.17959 0.0
C156 C 0.54137 0.38625 0.0999 0.0
C157 C 0.53922 0.33995 0.09708 0.0
C158 C 0.50177 0.31999 0.08567 0.0
C159 C 0.46565 0.34603 0.07687 0.0
C160 C 0.46774 0.39255 0.08008 0.0
C161 C 0.5051 0.41242 0.09172 0.0
C162 C 0.60645 0.46297 0.10256 0.0
C163 C 0.62718 0.49614 0.11659 0.0
C164 C 0.64157 0.536 0.1067 0.0
C165 C 0.63619 0.54315 0.08248 0.0
C166 C 0.61669 0.50922 0.06831 0.0
C167 C 0.60222 0.46931 0.07827 0.0
C168 C 0.5713 0.42021 0.14552 0.0
C169 C 0.58472 0.39034 0.16285 0.0
C170 C 0.57187 0.39768 0.18629 0.0
C171 C 0.54533 0.43502 0.19274 0.0
C172 C 0.53096 0.46426 0.17517 0.0
C173 C 0.54346 0.45661 0.1517 0.0
H174 H 0.07846 0.16975 0.01059 0.0
H175 H 0.14333 0.21974 0.01908 0.0
H176 H 0.23716 0.10902 0.01159 0.0
H177 H 0.17195 0.05879 0.00503 0.0
H178 H 0.2595 0.14996 0.04776 0.0
H179 H 0.22519 0.201 0.97021 0.0
H180 H 0.17675 0.22992 0.93835 0.0
H181 H 0.1479 0.34726 0.9799 0.0
H182 H 0.19572 0.31878 0.01215 0.0
H183 H 0.46609 0.27402 0.04664 0.0
H184 H 0.39974 0.23368 0.0306 0.0
H185 H 0.30824 0.3291 0.06324 0.0
H186 H 0.3743 0.36888 0.0802 0.0
H187 H 0.28521 0.29917 0.01404 0.0
H188 H 0.32079 0.24321 0.09167 0.0
H189 H 0.37351 0.21329 0.12144 0.0
H190 H 0.40455 0.10218 0.07566 0.0
H191 H 0.35252 0.13185 0.04546 0.0
C192 C 0.1131 0.15644 0.01048 0.0
C193 C 0.1205 0.11064 0.00722 0.0
C194 C 0.15023 0.18501 0.01517 0.0
C195 C 0.19549 0.16842 0.01575 0.0
C196 C 0.20272 0.12275 0.01142 0.0
C197 C 0.16555 0.09406 0.00756 0.0
C198 C 0.23499 0.19753 0.02265 0.0
C199 C 0.26531 0.18219 0.03996 0.0
C200 C 0.24235 0.24028 0.01307 0.0
C201 C 0.2137 0.25755 0.99368 0.0
C202 C 0.20827 0.23283 0.97262 0.0
C203 C 0.18096 0.24917 0.95448 0.0
C204 C 0.15917 0.29035 0.95712 0.0
C205 C 0.16475 0.31534 0.97789 0.0
C206 C 0.192 0.29914 0.99609 0.0
C207 C 0.43191 0.28648 0.05049 0.0
C208 C 0.42558 0.32438 0.06502 0.0
C209 C 0.39409 0.26362 0.04109 0.0
C210 C 0.34926 0.27841 0.04586 0.0
C211 C 0.3427 0.31742 0.0593 0.0
C212 C 0.38053 0.34011 0.06893 0.0
C213 C 0.30938 0.25084 0.03857 0.0
C214 C 0.2791 0.26667 0.02147 0.0
C215 C 0.3024 0.20814 0.04794 0.0
C216 C 0.33312 0.18997 0.06624 0.0
C217 C 0.33913 0.21258 0.08789 0.0
C218 C 0.36884 0.19564 0.10485 0.0
C219 C 0.39246 0.15592 0.10042 0.0
C220 C 0.38629 0.13297 0.07906 0.0
C221 C 0.35666 0.14982 0.06202 0.0
H222 H 0.41546 0.14286 0.11357 0.0
H223 H 0.13803 0.30294 0.94306 0.0
H224 H 0.05454 0.82539 0.98085 0.0
H225 H 0.1167 0.77179 0.97355 0.0
H226 H 0.20952 0.85369 0.01478 0.0
H227 H 0.14796 0.90693 0.02246 0.0
H228 H 0.23705 0.83363 0.96675 0.0
H229 H 0.18186 0.76235 0.03691 0.0
H230 H 0.12321 0.7268 0.06178 0.0
H231 H 0.10234 0.62499 0.00888 0.0
H232 H 0.16044 0.66034 0.98352 0.0
H233 H 0.44036 0.71374 0.96466 0.0
H234 H 0.37212 0.75068 0.9803 0.0
H235 H 0.28584 0.64941 0.94835 0.0
H236 H 0.35436 0.61078 0.93354 0.0
H237 H 0.25163 0.67627 0.99072 0.0
H238 H 0.30318 0.74467 0.92034 0.0
H239 H 0.35882 0.77919 0.89336 0.0
H240 H 0.38187 0.88559 0.94342 0.0
H241 H 0.32684 0.85132 0.97087 0.0
C242 C 0.08797 0.83158 0.9887 0.0
C243 C 0.09639 0.87062 0.00207 0.0
C244 C 0.12331 0.80088 0.98458 0.0
C245 C 0.16752 0.80902 0.99362 0.0
C246 C 0.17553 0.84696 0.00769 0.0
C247 C 0.14023 0.87729 0.01206 0.0
C248 C 0.20666 0.78062 0.98653 0.0
C249 C 0.24062 0.7994 0.97224 0.0
C250 C 0.21005 0.73555 0.99298 0.0
C251 C 0.17511 0.7143 0.0082 0.0
C252 C 0.16442 0.73266 0.03046 0.0
C253 C 0.13136 0.71248 0.04468 0.0
C254 C 0.10895 0.67374 0.03688 0.0
C255 C 0.11967 0.65504 0.01488 0.0
C256 C 0.15269 0.67512 0.00059 0.0
C257 C 0.40706 0.69853 0.96146 0.0
C258 C 0.40285 0.65948 0.94763 0.0
C259 C 0.368 0.71997 0.97024 0.0
C260 C 0.32393 0.70326 0.96505 0.0
C261 C 0.31957 0.66301 0.95239 0.0
C262 C 0.35872 0.64127 0.94374 0.0
C263 C 0.28267 0.72967 0.97138 0.0
C264 C 0.24814 0.71051 0.98528 0.0
C265 C 0.27819 0.77435 0.96425 0.0
C266 C 0.31122 0.79519 0.94776 0.0
C267 C 0.32038 0.77524 0.92568 0.0
C268 C 0.35178 0.79479 0.91029 0.0
C269 C 0.37396 0.8345 0.9167 0.0
C270 C 0.36471 0.8548 0.93849 0.0
C271 C 0.3334 0.83534 0.95397 0.0
H272 H 0.39824 0.84959 0.90475 0.0
H273 H 0.08338 0.65816 0.04792 0.0
H274 H 0.86773 0.84794 0.98449 0.0
H275 H 0.81438 0.78821 0.99436 0.0
H276 H 0.763 0.8666 0.05296 0.0
H277 H 0.81651 0.92652 0.04335 0.0
H278 H 0.78996 0.78494 0.06605 0.0
H279 H 0.69526 0.84493 0.00582 0.0
H280 H 0.67641 0.8725 0.9664 0.0
H281 H 0.70904 0.74476 0.93584 0.0
H282 H 0.72881 0.71659 0.97504 0.0
H283 H 0.62453 0.62736 0.10026 0.0
H284 H 0.6567 0.69651 0.0852 0.0
H285 H 0.71542 0.62419 0.02626 0.0
H286 H 0.68357 0.55472 0.04132 0.0
H287 H 0.67974 0.70553 0.01338 0.0
H288 H 0.78112 0.64798 0.07222 0.0
H289 H 0.80135 0.61932 0.11125 0.0
H290 H 0.758 0.74227 0.14378 0.0
H291 H 0.73684 0.77142 0.10494 0.0
C292 C 0.8446 0.85286 0.99926 0.0
C293 C 0.84672 0.89191 0.01326 0.0
C294 C 0.81391 0.81872 0.00479 0.0
C295 C 0.78465 0.82303 0.02435 0.0
C296 C 0.78532 0.86266 0.03778 0.0
C297 C 0.81589 0.89689 0.03223 0.0
C298 C 0.75685 0.78456 0.03214 0.0
C299 C 0.76513 0.76817 0.05469 0.0
C300 C 0.72559 0.76188 0.01702 0.0
C301 C 0.71395 0.77877 0.99338 0.0
C302 C 0.69886 0.82283 0.99068 0.0
C303 C 0.68792 0.83854 0.96837 0.0
C304 C 0.69164 0.81044 0.94862 0.0
C305 C 0.70623 0.76652 0.95115 0.0
C306 C 0.71727 0.75064 0.97342 0.0
C307 C 0.64423 0.62618 0.08407 0.0
C308 C 0.65203 0.58552 0.07213 0.0
C309 C 0.66237 0.66572 0.07543 0.0
C310 C 0.68891 0.66532 0.05479 0.0
C311 C 0.69498 0.62516 0.04222 0.0
C312 C 0.67675 0.58553 0.05084 0.0
C313 C 0.71288 0.70622 0.04725 0.0
C314 C 0.70414 0.72278 0.02477 0.0
C315 C 0.74402 0.72904 0.06234 0.0
C316 C 0.75691 0.71168 0.08571 0.0
C317 C 0.77554 0.66876 0.08772 0.0
C318 C 0.78723 0.65245 0.1098 0.0
C319 C 0.78083 0.67891 0.12999 0.0
C320 C 0.76285 0.72179 0.12813 0.0
C321 C 0.75102 0.73823 0.10609 0.0
H322 H 0.78993 0.66623 0.14707 0.0
H323 H 0.68311 0.82266 0.93137 0.0
H324 H 0.82659 0.12099 0.02557 0.0
H325 H 0.77604 0.18519 0.01989 0.0
H326 H 0.85464 0.22147 0.95865 0.0
H327 H 0.90532 0.15841 0.9643 0.0
H328 H 0.8402 0.29198 0.98698 0.0
H329 H 0.74899 0.16888 0.95468 0.0
H330 H 0.70788 0.09712 0.957 0.0
H331 H 0.62166 0.15032 0.01203 0.0
H332 H 0.66269 0.22225 0.01022 0.0
H333 H 0.71231 0.42491 0.91339 0.0
H334 H 0.75038 0.36152 0.93105 0.0
H335 H 0.65486 0.36654 0.98919 0.0
H336 H 0.61673 0.43086 0.97173 0.0
H337 H 0.67245 0.27905 0.97162 0.0
H338 H 0.75628 0.40563 -0.0005 0.0
H339 H 0.79627 0.47776 0.99631 0.0
H340 H 0.8962 0.41832 0.94985 0.0
H341 H 0.8564 0.34595 0.95247 0.0
C342 C 0.83298 0.14262 0.01087 0.0
C343 C 0.87011 0.13461 0.99544 0.0
C344 C 0.80402 0.17919 0.00763 0.0
C345 C 0.81159 0.20803 0.98883 0.0
C346 C 0.84836 0.19981 0.97336 0.0
C347 C 0.87727 0.16358 0.97661 0.0
C348 C 0.78206 0.24735 0.98503 0.0
C349 C 0.80354 0.28911 0.98358 0.0
C350 C 0.73391 0.24389 0.9815 0.0
C351 C 0.70927 0.20071 0.98252 0.0
C352 C 0.72152 0.16514 0.96741 0.0
C353 C 0.69819 0.12447 0.9686 0.0
C354 C 0.66229 0.11911 0.98471 0.0
C355 C 0.64955 0.15448 -0.0004 0.0
C356 C 0.67281 0.1952 0.99849 0.0
C357 C 0.69954 0.41283 0.93002 0.0
C358 C 0.66191 0.43329 0.94132 0.0
C359 C 0.72119 0.37647 0.94003 0.0
C360 C 0.70577 0.35984 0.96156 0.0
C361 C 0.66726 0.37906 0.97257 0.0
C362 C 0.64553 0.41567 0.96256 0.0
C363 C 0.73115 0.32303 0.97254 0.0
C364 C 0.70892 0.28199 0.97549 0.0
C365 C 0.77869 0.32704 0.97749 0.0
C366 C 0.80319 0.37038 0.9761 0.0
C367 C 0.78663 0.40799 0.98849 0.0
C368 C 0.80928 0.44892 0.98679 0.0
C369 C 0.84872 0.45263 0.97286 0.0
C370 C 0.86565 0.41539 0.96064 0.0
C371 C 0.84309 0.37438 0.96226 0.0
H372 H 0.8662 0.48436 0.97155 0.0
H373 H 0.64427 0.08761 0.98561 0.0
H374 H 0.60969 0.638 0.48121 0.0
H375 H 0.67363 0.69013 0.48873 0.0
H376 H 0.68075 0.6469 0.56057 0.0
H377 H 0.61787 0.59452 0.5532 0.0
H378 H 0.68137 0.74187 0.55479 0.0
H379 H 0.75635 0.60741 0.52582 0.0
H380 H 0.77026 0.5471 0.49676 0.0
H381 H 0.80621 0.64331 0.44478 0.0
H382 H 0.79204 0.70427 0.47355 0.0
H383 H 0.8946 0.79863 0.60383 0.0
H384 H 0.82582 0.76171 0.58845 0.0
H385 H 0.85996 0.80436 0.51844 0.0
H386 H 0.92935 0.84138 0.5338 0.0
H387 H 0.83464 0.71897 0.51791 0.0
H388 H 0.77137 0.85334 0.54895 0.0
H389 H 0.75808 0.91345 0.57822 0.0
H390 H 0.69894 0.81953 0.62574 0.0
H391 H 0.71247 0.7587 0.59689 0.0
C392 C 0.62489 0.63972 0.49859 0.0
C393 C 0.60891 0.61204 0.51658 0.0
C394 C 0.66135 0.6694 0.50283 0.0
C395 C 0.68174 0.67224 0.5252 0.0
C396 C 0.66532 0.64521 0.54322 0.0
C397 C 0.62956 0.61514 0.53892 0.0
C398 C 0.72082 0.70269 0.53002 0.0
C399 C 0.71496 0.73694 0.5468 0.0
C400 C 0.76409 0.69689 0.51901 0.0
C401 C 0.77254 0.66036 0.50171 0.0
C402 C 0.76678 0.6157 0.50812 0.0
C403 C 0.77482 0.5814 0.49172 0.0
C404 C 0.78892 0.59136 0.46889 0.0
C405 C 0.79517 0.63565 0.46245 0.0
C406 C 0.78718 0.67009 0.4788 0.0
C407 C 0.88718 0.80072 0.58521 0.0
C408 C 0.91722 0.82321 0.57005 0.0
C409 C 0.84783 0.77959 0.57642 0.0
C410 C 0.8373 0.78091 0.55234 0.0
C411 C 0.86734 0.80308 0.5371 0.0
C412 C 0.90697 0.8241 0.54588 0.0
C413 C 0.79565 0.7577 0.54321 0.0
C414 C 0.80093 0.72474 0.5256 0.0
C415 C 0.7517 0.76486 0.55339 0.0
C416 C 0.7432 0.80139 0.57078 0.0
C417 C 0.7558 0.84544 0.5657 0.0
C418 C 0.74818 0.87965 0.58221 0.0
C419 C 0.72774 0.8703 0.60384 0.0
C420 C 0.71478 0.82672 0.60898 0.0
C421 C 0.72235 0.79237 0.59253 0.0
H422 H 0.72188 0.89684 0.6166 0.0
H423 H 0.79516 0.56476 0.45621 0.0
H424 H 0.63843 0.40524 0.529 0.0
H425 H 0.70188 0.35382 0.52145 0.0
H426 H 0.6205 0.2847 0.46887 0.0
H427 H 0.55659 0.33577 0.47636 0.0
H428 H 0.67181 0.22703 0.49565 0.0
H429 H 0.69486 0.36008 0.45155 0.0
H430 H 0.70187 0.44095 0.44577 0.0
H431 H 0.81727 0.44631 0.49292 0.0
H432 H 0.81054 0.36544 0.49922 0.0
H433 H 0.8474 0.13296 0.42263 0.0
H434 H 0.78139 0.17225 0.43978 0.0
H435 H 0.87118 0.2379 0.48996 0.0
H436 H 0.93744 0.19944 0.4726 0.0
H437 H 0.81654 0.2961 0.46723 0.0
H438 H 0.79671 0.15935 0.50798 0.0
H439 H 0.78912 0.07806 0.51182 0.0
H440 H 0.66727 0.07891 0.46911 0.0
H441 H 0.67449 0.16016 0.46472 0.0
C442 C 0.63369 0.37878 0.51604 0.0
C443 C 0.59256 0.37496 0.50309 0.0
C444 C 0.67006 0.34947 0.51173 0.0
C445 C 0.66603 0.31588 0.49439 0.0
C446 C 0.62426 0.31048 0.4823 0.0
C447 C 0.58786 0.33984 0.48655 0.0
C448 C 0.70638 0.28846 0.48771 0.0
C449 C 0.70339 0.242 0.48928 0.0
C450 C 0.74773 0.3082 0.47975 0.0
C451 C 0.75186 0.35681 0.47606 0.0
C452 C 0.72147 0.37856 0.46085 0.0
C453 C 0.72544 0.42437 0.45745 0.0
C454 C 0.75992 0.44875 0.46901 0.0
C455 C 0.79054 0.42736 0.484 0.0
C456 C 0.78668 0.38154 0.48748 0.0
C457 C 0.85299 0.15555 0.43742 0.0
C458 C 0.89758 0.16321 0.44624 0.0
C459 C 0.81523 0.17766 0.44733 0.0
C460 C 0.82139 0.20776 0.46623 0.0
C461 C 0.86571 0.21466 0.47543 0.0
C462 C 0.90345 0.19244 0.4656 0.0
C463 C 0.78218 0.23451 0.4752 0.0
C464 C 0.78527 0.281 0.47391 0.0
C465 C 0.7409 0.2147 0.48322 0.0
C466 C 0.73638 0.16583 0.48586 0.0
C467 C 0.7685 0.14217 0.49924 0.0
C468 C 0.76423 0.0961 0.50155 0.0
C469 C 0.7278 0.07332 0.49067 0.0
C470 C 0.6955 0.09659 0.47751 0.0
C471 C 0.69963 0.14267 0.47513 0.0
H472 H 0.72454 0.03765 0.49248 0.0
H473 H 0.76301 0.48416 0.46627 0.0
H474 H 0.29495 0.42787 0.53392 0.0
H475 H 0.2413 0.36725 0.54228 0.0
H476 H 0.32186 0.27792 0.49869 0.0
H477 H 0.37484 0.33831 0.48975 0.0
H478 H 0.23209 0.26082 0.49342 0.0
H479 H 0.33695 0.28555 0.55915 0.0
H480 H 0.37303 0.3316 0.59047 0.0
H481 H 0.24031 0.35623 0.62133 0.0
H482 H 0.2034 0.31074 0.59002 0.0
H483 H 0.20089 0.04767 0.54176 0.0
H484 H 0.22872 0.11938 0.5277 0.0
H485 H 0.13165 0.18753 0.57303 0.0
H486 H 0.10407 0.11583 0.58741 0.0
H487 H 0.21825 0.2212 0.57753 0.0
H488 H 0.11429 0.18881 0.51502 0.0
H489 H 0.07733 0.14365 0.48368 0.0
H490 H 0.20629 0.13343 0.44701 0.0
H491 H 0.24422 0.17823 0.47827 0.0
C492 C 0.30089 0.39549 0.52583 0.0
C493 C 0.33956 0.38784 0.5114 0.0
C494 C 0.27025 0.36085 0.53069 0.0
C495 C 0.27809 0.31787 0.52147 0.0
C496 C 0.3152 0.31078 0.50606 0.0
C497 C 0.34559 0.34539 0.50104 0.0
C498 C 0.24991 0.27943 0.52904 0.0
C499 C 0.22922 0.25202 0.51179 0.0
C500 C 0.24509 0.26862 0.55307 0.0
C501 C 0.2674 0.2952 0.57212 0.0
C502 C 0.31547 0.30098 0.57256 0.0
C503 C 0.33606 0.32695 0.59031 0.0
C504 C 0.30895 0.34696 0.60782 0.0
C505 C 0.26124 0.3408 0.60772 0.0
C506 C 0.24047 0.31491 0.58999 0.0
C507 C 0.18534 0.07794 0.54863 0.0
C508 C 0.15038 0.0762 0.56571 0.0
C509 C 0.20098 0.11885 0.54045 0.0
C510 C 0.18198 0.15875 0.5492 0.0
C511 C 0.1466 0.1571 0.56599 0.0
C512 C 0.13072 0.11616 0.57407 0.0
C513 C 0.20127 0.20207 0.54187 0.0
C514 C 0.22043 0.23033 0.55918 0.0
C515 C 0.20465 0.21363 0.51792 0.0
C516 C 0.18214 0.18663 0.49908 0.0
C517 C 0.13486 0.17667 0.50037 0.0
C518 C 0.11372 0.15122 0.4826 0.0
C519 C 0.13951 0.13568 0.46343 0.0
C520 C 0.18643 0.14556 0.46191 0.0
C521 C 0.20774 0.17105 0.47962 0.0
H522 H 0.1231 0.1161 0.44972 0.0
H523 H 0.32487 0.36723 0.62148 0.0
H524 H 0.30734 0.60979 0.51927 0.0
H525 H 0.25668 0.67393 0.51399 0.0
H526 H 0.363 0.73949 0.47432 0.0
H527 H 0.41371 0.67592 0.47947 0.0
H528 H 0.32074 0.79609 0.50655 0.0
H529 H 0.2773 0.68684 0.4463 0.0
H530 H 0.25015 0.61318 0.4323 0.0
H531 H 0.12586 0.62888 0.47256 0.0
H532 H 0.1526 0.70245 0.48704 0.0
H533 H 0.22289 0.94098 0.42551 0.0
H534 H 0.25892 0.87798 0.44444 0.0
H535 H 0.13654 0.85707 0.48579 0.0
H536 H 0.10069 0.92196 0.4679 0.0
H537 H 0.17653 0.77786 0.46052 0.0
H538 H 0.21428 0.89178 0.51603 0.0
H539 H 0.24034 0.96612 0.52945 0.0
H540 H 0.37342 0.94228 0.49881 0.0
H541 H 0.34794 0.86797 0.48491 0.0
C542 C 0.32 0.63795 0.50951 0.0
C543 C 0.36451 0.63759 0.49968 0.0
C544 C 0.29099 0.67451 0.5065 0.0
C545 C 0.30608 0.71133 0.4937 0.0
C546 C 0.35076 0.71144 0.48432 0.0
C547 C 0.3796 0.67491 0.48718 0.0
C548 C 0.27517 0.74935 0.48918 0.0
C549 C 0.28922 0.79212 0.4965 0.0
C550 C 0.23327 0.74396 0.47672 0.0
C551 C 0.21719 0.69983 0.46799 0.0
C552 C 0.24437 0.6744 0.45233 0.0
C553 C 0.22902 0.63271 0.44427 0.0
C554 C 0.18638 0.61629 0.4516 0.0
C555 C 0.15893 0.64159 0.46694 0.0
C556 C 0.17415 0.68329 0.47507 0.0
C557 C 0.20374 0.92377 0.43895 0.0
C558 C 0.15888 0.93703 0.44525 0.0
C559 C 0.22434 0.88748 0.44962 0.0
C560 C 0.20041 0.86319 0.46655 0.0
C561 C 0.15544 0.87554 0.47271 0.0
C562 C 0.13498 0.91245 0.46232 0.0
C563 C 0.22289 0.82451 0.47732 0.0
C564 C 0.20741 0.78168 0.47111 0.0
C565 C 0.26332 0.8298 0.49089 0.0
C566 C 0.27906 0.87439 0.49927 0.0
C567 C 0.24898 0.90252 0.51197 0.0
C568 C 0.26368 0.94463 0.51971 0.0
C569 C 0.30848 0.95896 0.51493 0.0
C570 C 0.33871 0.93114 0.50248 0.0
C571 C 0.32418 0.88898 0.4947 0.0
H572 H 0.3198 0.99158 0.52093 0.0
H573 H 0.17455 0.58401 0.44534 0.0
H574 H 0.92744 0.06009 0.09862 0.0
H575 H 0.93384 0.06947 0.14146 0.0
H576 H 0.04978 0.9802 0.14169 0.0
H577 H 0.04427 0.97129 0.09892 0.0
H578 H 0.9798 0.96515 0.17785 0.0
H579 H 0.07485 0.08116 0.14494 0.0
H580 H 0.08983 0.14545 0.11963 0.0
H581 H 0.9846 0.21999 0.15575 0.0
H582 H 0.96852 0.15582 0.18105 0.0
H583 H 0.08013 0.00688 0.28942 0.0
H584 H 0.06467 0.99545 0.24746 0.0
H585 H 0.97378 0.10886 0.24858 0.0
H586 H 0.98993 0.12091 0.29046 0.0
H587 H 0.02611 0.11205 0.21152 0.0
H588 H 0.93265 -0.00026 0.24595 0.0
H589 H 0.91462 0.93601 0.27114 0.0
H590 H 0.01119 0.85505 0.23255 0.0
H591 H 0.03031 0.91851 0.20733 0.0
C592 C 0.95408 0.04225 0.10782 0.0
C593 C 0.98549 0.01512 0.09541 0.0
C594 C 0.95773 0.04771 0.13224 0.0
C595 C 0.99235 0.02559 0.14462 0.0
C596 C 0.02283 0.99748 0.13239 0.0
C597 C 0.01974 0.99262 0.10797 0.0
C598 C 0.99792 0.03287 0.17025 0.0
C599 C 0.9903 0.9971 0.18529 0.0
C600 C 0.01039 0.07491 0.17983 0.0
C601 C 0.02009 0.11352 0.16468 0.0
C602 C 0.05459 0.1111 0.14733 0.0
C603 C 0.06335 0.14755 0.13302 0.0
C604 C 0.03808 0.18673 0.13603 0.0
C605 C 0.00408 0.18958 0.15341 0.0
C606 C 0.99514 0.1532 0.16774 0.0
C607 C 0.05658 0.02913 0.28073 0.0
C608 C 0.03618 0.06474 0.29319 0.0
C609 C 0.04766 0.02253 0.25677 0.0
C610 C 0.01751 0.05092 0.2449 0.0
C611 C 0.99715 0.08653 0.25734 0.0
C612 C 0.00644 0.09343 0.28124 0.0
C613 C 0.00823 0.04418 0.21938 0.0
C614 C 0.01522 0.08008 0.20427 0.0
C615 C 0.99465 0.00233 0.20978 0.0
C616 C 0.98321 0.96403 0.22488 0.0
C617 C 0.95031 0.96845 0.24295 0.0
C618 C 0.93985 0.93235 0.25721 0.0
C619 C 0.96183 0.89154 0.25348 0.0
C620 C 0.99424 0.88671 0.23544 0.0
C621 C 0.00486 0.92272 0.22113 0.0
H622 H 0.95367 0.86363 0.26454 0.0
H623 H 0.04492 0.21492 0.12495 0.0
H624 H 0.02007 0.05564 0.90853 0.0
H625 H 0.03163 0.0464 0.86616 0.0
H626 H 0.97281 0.91455 0.86868 0.0
H627 H 0.96203 0.92309 0.91111 0.0
H628 H 0.04968 0.91326 0.84402 0.0
H629 H 0.91363 0.00356 0.84527 0.0
H630 H 0.8659 0.06831 0.85643 0.0
H631 H 0.96296 0.15575 0.82363 0.0
H632 H 0.01161 0.09155 0.81254 0.0
H633 H 0.02315 0.8751 0.72146 0.0
H634 H 0.00791 0.88784 0.76331 0.0
H635 H 0.07488 0.01591 0.7601 0.0
H636 H 0.09075 0.00322 0.71823 0.0
H637 H 0.99433 0.02013 0.78488 0.0
H638 H 0.13015 0.92949 0.78373 0.0
H639 H 0.1775 0.86454 0.77247 0.0
H640 H 0.07996 0.77745 0.80516 0.0
H641 H 0.03166 0.84186 0.81633 0.0
C642 C 0.00922 0.0248 0.90007 0.0
C643 C 0.99015 0.99008 0.91327 0.0
C644 C 0.01571 0.01963 0.87579 0.0
C645 C 0.00274 0.97991 0.86417 0.0
C646 C 0.98314 0.94547 0.87726 0.0
C647 C 0.97689 0.95048 0.90153 0.0
C648 C 0.01125 0.97344 0.83856 0.0
C649 C 0.03695 0.9363 0.83108 0.0
C650 C 0.99576 0.00413 0.8217 0.0
C651 C 0.96649 0.04277 0.82828 0.0
C652 C 0.92498 0.03663 0.8406 0.0
C653 C 0.89773 0.07322 0.84688 0.0
C654 C 0.91145 0.11613 0.8408 0.0
C655 C 0.9524 0.12251 0.82836 0.0
C656 C 0.97981 0.08602 0.82205 0.0
C657 C 0.03508 0.90579 0.72968 0.0
C658 C 0.05846 0.93801 0.7165 0.0
C659 C 0.02618 0.91309 0.75359 0.0
C660 C 0.04067 0.95264 0.76487 0.0
C661 C 0.06335 0.98519 0.75172 0.0
C662 C 0.07229 0.97791 0.72779 0.0
C663 C 0.03239 0.95983 0.79041 0.0
C664 C 0.00691 0.99711 0.79787 0.0
C665 C 0.04799 0.92925 0.80727 0.0
C666 C 0.07707 0.89047 0.80067 0.0
C667 C 0.11861 0.89646 0.78835 0.0
C668 C 0.14565 0.85975 0.78202 0.0
C669 C 0.13169 0.81689 0.78804 0.0
C670 C 0.0907 0.81067 0.80048 0.0
C671 C 0.0635 0.84726 0.80683 0.0
H672 H 0.15267 0.78851 0.78312 0.0
H673 H 0.8903 0.14442 0.84568 0.0
H674 H 0.52699 0.46598 0.60198 0.0
H675 H 0.52903 0.47294 0.64477 0.0
H676 H 0.40444 0.5506 0.64385 0.0
H677 H 0.40195 0.5437 0.60081 0.0
H678 H 0.47585 0.59005 0.66984 0.0
H679 H 0.39897 0.449 0.66476 0.0
H680 H 0.38718 0.37151 0.65106 0.0
H681 H 0.51672 0.33427 0.68108 0.0
H682 H 0.5296 0.41165 0.69477 0.0
H683 H 0.4679 0.60292 0.79447 0.0
H684 H 0.44669 0.58901 0.75335 0.0
H685 H 0.55818 0.49506 0.74623 0.0
H686 H 0.57895 0.5083 0.78748 0.0
H687 H 0.48445 0.46364 0.72466 0.0
H688 H 0.56651 0.6027 0.72582 0.0
H689 H 0.58311 0.67993 0.73861 0.0
H690 H 0.44977 0.72074 0.71472 0.0
H691 H 0.43214 0.64357 0.70207 0.0
C692 C 0.49971 0.48421 0.61084 0.0
C693 C 0.46438 0.50446 0.59798 0.0
C694 C 0.50082 0.48793 0.63533 0.0
C695 C 0.46675 0.51205 0.64745 0.0
C696 C 0.43096 0.53172 0.63476 0.0
C697 C 0.42954 0.52763 0.61021 0.0
C698 C 0.47054 0.51898 0.67323 0.0
C699 C 0.47672 0.56253 0.68194 0.0
C700 C 0.47309 0.48287 0.6888 0.0
C701 C 0.46539 0.43624 0.68065 0.0
C702 C 0.42512 0.42438 0.66829 0.0
C703 C 0.4182 0.38045 0.66055 0.0
C704 C 0.45122 0.34802 0.66512 0.0
C705 C 0.49118 0.35943 0.67752 0.0
C706 C 0.49827 0.4033 0.68532 0.0
C707 C 0.48792 0.5794 0.78409 0.0
C708 C 0.52527 0.55691 0.79409 0.0
C709 C 0.47578 0.57146 0.76061 0.0
C710 C 0.50124 0.54144 0.7466 0.0
C711 C 0.538 0.51831 0.75671 0.0
C712 C 0.54986 0.52591 0.78025 0.0
C713 C 0.49029 0.53475 0.72128 0.0
C714 C 0.48292 0.49125 0.71264 0.0
C715 C 0.48728 0.57087 0.70568 0.0
C716 C 0.49781 0.61728 0.71325 0.0
C717 C 0.54059 0.62808 0.72347 0.0
C718 C 0.55021 0.67185 0.73067 0.0
C719 C 0.51746 0.70519 0.72755 0.0
C720 C 0.47507 0.69486 0.71717 0.0
C721 C 0.46525 0.65112 0.70997 0.0
H722 H 0.52497 0.73907 0.73313 0.0
H723 H 0.44578 0.31404 0.6591 0.0
H724 H 0.50184 0.56223 0.41059 0.0
H725 H 0.51001 0.55461 0.36784 0.0
H726 H 0.4662 0.41757 0.37113 0.0
H727 H 0.45843 0.4246 0.41372 0.0
H728 H 0.54293 0.42603 0.34518 0.0
H729 H 0.39498 0.49791 0.35023 0.0
H730 H 0.34081 0.55683 0.36269 0.0
H731 H 0.42161 0.65403 0.32644 0.0
H732 H 0.47663 0.59576 0.31403 0.0
H733 H 0.51295 0.37604 0.22487 0.0
H734 H 0.49797 0.38972 0.26671 0.0
H735 H 0.53718 0.52737 0.25913 0.0
H736 H 0.55149 0.51397 0.21713 0.0
H737 H 0.46435 0.52122 0.28724 0.0
H738 H 0.61196 0.45104 0.28207 0.0
H739 H 0.66767 0.39338 0.26977 0.0
H740 H 0.59001 0.29474 0.30668 0.0
H741 H 0.53344 0.35172 0.31892 0.0
C742 C 0.49361 0.53056 0.40221 0.0
C743 C 0.47958 0.49401 0.41564 0.0
C744 C 0.49816 0.52632 0.37775 0.0
C745 C 0.4885 0.48557 0.36629 0.0
C746 C 0.47392 0.44929 0.37962 0.0
C747 C 0.4694 0.45345 0.40399 0.0
C748 C 0.49525 0.47993 0.34054 0.0
C749 C 0.52526 0.44646 0.3325 0.0
C750 C 0.47334 0.50752 0.32405 0.0
C751 C 0.44017 0.54254 0.33141 0.0
C752 C 0.4014 0.53191 0.34508 0.0
C753 C 0.3705 0.56518 0.3521 0.0
C754 C 0.37783 0.60917 0.34542 0.0
C755 C 0.41601 0.61995 0.33164 0.0
C756 C 0.44704 0.58681 0.32458 0.0
C757 C 0.51834 0.40921 0.23214 0.0
C758 C 0.53371 0.44386 0.2178 0.0
C759 C 0.50981 0.417 0.25604 0.0
C760 C 0.51726 0.4594 0.26615 0.0
C761 C 0.53128 0.49438 0.25172 0.0
C762 C 0.53939 0.4867 0.22774 0.0
C763 C 0.51155 0.46688 0.29188 0.0
C764 C 0.48198 0.50078 0.29993 0.0
C765 C 0.53411 0.43988 0.30844 0.0
C766 C 0.56824 0.40558 0.30123 0.0
C767 C 0.60659 0.41699 0.28742 0.0
C768 C 0.63834 0.38444 0.28048 0.0
C769 C 0.63232 0.3404 0.28739 0.0
C770 C 0.5946 0.32885 0.30132 0.0
C771 C 0.5627 0.36127 0.30828 0.0
H772 H 0.65695 0.31525 0.282 0.0
H773 H 0.35388 0.63488 0.35087 0.0
loop_
_geom_bond_atom_site_label_1
_geom_bond_atom_site_label_2
_geom_bond_distance
_geom_bond_site_symmetry_2
_ccdc_geom_bond_type
O0 Zn1 1.953 . S
O0 C16 1.225 1_565 S
Zn1 O0 1.953 . S
Zn1 O2 1.949 1_565 S
Zn1 O8 1.919 . S
Zn1 O13 1.924 1_565 S
O2 Zn1 1.949 1_545 S
O2 Zn3 1.923 1_444 S
O2 Zn4 1.950 1_455 S
O2 Zn5 1.945 1_554 S
Zn3 O2 1.923 1_666 S
Zn3 O6 1.933 . S
Zn3 O9 1.941 1_655 S
Zn3 O10 1.965 . S
Zn4 O2 1.950 1_655 S
Zn4 O11 1.938 1_545 S
Zn4 O12 1.906 . S
Zn4 O22 1.953 . S
Zn5 O2 1.945 1_556 S
Zn5 O7 1.932 . S
Zn5 O14 1.977 1_455 S
Zn5 O15 1.910 . S
O6 Zn3 1.933 . S
O6 C17 1.226 1_665 S
O7 Zn5 1.932 . S
O7 C17 1.307 . S
O8 Zn1 1.919 . S
O8 C19 1.253 1_554 S
O9 Zn3 1.941 1_455 S
O9 C19 1.283 . S
O10 Zn3 1.965 . S
O10 C18 1.303 1_556 S
O11 Zn4 1.938 1_565 S
O11 C18 1.247 . S
O12 Zn4 1.906 . S
O12 C20 1.271 1_554 S
O13 Zn1 1.924 1_545 S
O13 C21 1.311 . S
O14 Zn5 1.977 1_655 S
O14 C20 1.289 . S
O15 Zn5 1.910 . S
O15 C21 1.231 1_556 S
C16 O0 1.225 1_545 S
C16 O22 1.298 1_455 S
C17 O6 1.226 1_445 S
C17 O7 1.307 . S
C18 O10 1.303 1_554 S
C18 O11 1.247 . S
C19 O8 1.253 1_556 S
C19 O9 1.283 . S
C20 O12 1.271 1_556 S
C20 O14 1.289 . S
C21 O13 1.311 . S
C21 O15 1.231 1_554 S
O22 Zn4 1.953 . S
O22 C16 1.298 1_655 S
O23 Zn24 1.953 . S
O23 C39 1.225 . S
Zn24 O23 1.953 . S
Zn24 O25 1.949 . S
Zn24 O31 1.919 . S
Zn24 O36 1.924 . S
O25 Zn24 1.949 . S
O25 Zn26 1.923 . S
O25 Zn27 1.950 . S
O25 Zn28 1.945 . S
Zn26 O25 1.923 . S
Zn26 O29 1.933 . S
Zn26 O32 1.941 . S
Zn26 O33 1.965 . S
Zn27 O25 1.950 . S
Zn27 O34 1.938 . S
Zn27 O35 1.906 . S
Zn27 O45 1.953 . S
Zn28 O25 1.945 . S
Zn28 O30 1.932 . S
Zn28 O37 1.977 . S
Zn28 O38 1.910 . S
O29 Zn26 1.933 . S
O29 C40 1.226 . S
O30 Zn28 1.932 . S
O30 C40 1.307 . S
O31 Zn24 1.919 . S
O31 C42 1.253 . S
O32 Zn26 1.941 . S
O32 C42 1.283 . S
O33 Zn26 1.965 . S
O33 C41 1.303 . S
O34 Zn27 1.938 . S
O34 C41 1.247 . S
O35 Zn27 1.906 . S
O35 C43 1.304 . S
O36 Zn24 1.924 . S
O36 C44 1.311 . S
O37 Zn28 1.977 . S
O37 C43 1.272 . S
O38 Zn28 1.910 . S
O38 C44 1.231 . S
C39 O23 1.225 . S
C39 O45 1.298 . S
C40 O29 1.226 . S
C40 O30 1.307 . S
C41 O33 1.303 . S
C41 O34 1.247 . S
C42 O31 1.253 . S
C42 O32 1.283 . S
C43 O35 1.304 . S
C43 O37 1.272 . S
C44 O36 1.311 . S
C44 O38 1.231 . S
O45 Zn27 1.953 . S
O45 C39 1.298 . S
P46 O57 1.490 . S
P46 C60 1.812 1_455 S
P46 C66 1.803 1_545 S
P46 C72 1.819 . S
H47 C61 0.941 1_455 S
H48 C62 0.939 . S
H49 C64 0.940 . S
H50 C65 0.940 . S
H51 C67 0.939 1_545 S
H52 C68 0.942 . S
H53 C70 0.940 . S
H54 C71 0.939 . S
H55 C73 0.941 . S
H56 C77 0.939 . S
O57 P46 1.490 . S
H58 C74 0.939 . S
H59 C76 0.940 . S
C60 P46 1.812 1_655 S
C60 C61 1.389 . S
C60 C65 1.391 . S
C61 H47 0.941 1_655 S
C61 C60 1.389 . S
C61 C62 1.397 . S
C62 H48 0.939 . S
C62 C61 1.397 . S
C62 C63 1.378 . S
C63 C62 1.378 . S
C63 C64 1.378 . S
C64 H49 0.940 . S
C64 C63 1.378 . S
C64 C65 1.396 . S
C65 H50 0.940 . S
C65 C60 1.391 . S
C65 C64 1.396 . S
C66 P46 1.803 1_565 S
C66 C67 1.378 . S
C66 C71 1.400 . S
C67 H51 0.939 1_565 S
C67 C66 1.378 . S
C67 C68 1.361 . S
C68 H52 0.942 . S
C68 C67 1.361 . S
C68 C69 1.369 . S
C69 C68 1.369 . S
C69 C70 1.404 . S
C70 H53 0.940 . S
C70 C69 1.404 . S
C70 C71 1.389 . S
C71 H54 0.939 . S
C71 C66 1.400 . S
C71 C70 1.389 . S
C72 P46 1.819 . S
C72 C73 1.391 . S
C72 C77 1.391 1_545 S
C73 H55 0.941 . S
C73 C72 1.391 . S
C73 C74 1.396 . S
C74 H58 0.939 . S
C74 C73 1.396 . S
C74 C75 1.397 . S
C75 C74 1.397 . S
C75 C76 1.385 1_545 S
C76 H59 0.940 . S
C76 C75 1.385 1_565 S
C76 C77 1.388 . S
C77 H56 0.939 . S
C77 C72 1.391 1_565 S
C77 C76 1.388 . S
P78 O89 1.490 . S
P78 C92 1.812 . S
P78 C98 1.803 1_565 S
P78 C104 1.819 . S
H79 C93 0.941 . S
H80 C94 0.939 . S
H81 C96 0.940 . S
H82 C97 0.940 . S
H83 C99 0.939 . S
H84 C100 0.942 . S
H85 C102 0.940 . S
H86 C103 0.939 . S
H87 C105 0.941 . S
H88 C109 0.939 . S
O89 P78 1.490 . S
H90 C106 0.939 . S
H91 C108 0.940 . S
C92 P78 1.812 . S
C92 C93 1.389 . S
C92 C97 1.391 1_455 S
C93 H79 0.941 . S
C93 C92 1.389 . S
C93 C94 1.397 1_455 S
C94 H80 0.939 . S
C94 C93 1.397 1_655 S
C94 C95 1.378 . S
C95 C94 1.378 . S
C95 C96 1.378 . S
C96 H81 0.940 . S
C96 C95 1.378 . S
C96 C97 1.396 . S
C97 H82 0.940 . S
C97 C92 1.391 1_655 S
C97 C96 1.396 . S
C98 P78 1.803 1_545 S
C98 C99 1.378 . S
C98 C103 1.400 . S
C99 H83 0.939 . S
C99 C98 1.378 . S
C99 C100 1.361 . S
C100 H84 0.942 . S
C100 C99 1.361 . S
C100 C101 1.369 . S
C101 C100 1.369 . S
C101 C102 1.404 . S
C102 H85 0.940 . S
C102 C101 1.404 . S
C102 C103 1.389 . S
C103 H86 0.939 . S
C103 C98 1.400 . S
C103 C102 1.389 . S
C104 P78 1.819 . S
C104 C105 1.391 . S
C104 C109 1.391 1_565 S
C105 H87 0.941 . S
C105 C104 1.391 . S
C105 C106 1.396 . S
C106 H90 0.939 . S
C106 C105 1.396 . S
C106 C107 1.397 . S
C107 C106 1.397 . S
C107 C108 1.385 1_565 S
C108 H91 0.940 . S
C108 C107 1.385 1_545 S
C108 C109 1.388 . S
C109 H88 0.939 . S
C109 C104 1.391 1_545 S
C109 C108 1.388 . S
P110 O121 1.490 . S
P110 C124 1.812 . S
P110 C130 1.803 . S
P110 C136 1.819 . S
H111 C125 0.941 . S
H112 C126 0.939 . S
H113 C128 0.940 . S
H114 C129 0.940 . S
H115 C131 0.939 . S
H116 C132 0.942 . S
H117 C134 0.940 . S
H118 C135 0.939 . S
H119 C137 0.941 . S
H120 C141 0.939 . S
O121 P110 1.490 . S
H122 C138 0.939 . S
H123 C140 0.940 . S
C124 P110 1.812 . S
C124 C125 1.389 . S
C124 C129 1.391 . S
C125 H111 0.941 . S
C125 C124 1.389 . S
C125 C126 1.397 . S
C126 H112 0.939 . S
C126 C125 1.397 . S
C126 C127 1.378 . S
C127 C126 1.378 . S
C127 C128 1.378 . S
C128 H113 0.940 . S
C128 C127 1.378 . S
C128 C129 1.396 . S
C129 H114 0.940 . S
C129 C124 1.391 . S
C129 C128 1.396 . S
C130 P110 1.803 . S
C130 C131 1.378 . S
C130 C135 1.400 . S
C131 H115 0.939 . S
C131 C130 1.378 . S
C131 C132 1.361 . S
C132 H116 0.942 . S
C132 C131 1.361 . S
C132 C133 1.369 . S
C133 C132 1.369 . S
C133 C134 1.404 . S
C134 H117 0.940 . S
C134 C133 1.404 . S
C134 C135 1.389 . S
C135 H118 0.939 . S
C135 C130 1.400 . S
C135 C134 1.389 . S
C136 P110 1.819 . S
C136 C137 1.391 . S
C136 C141 1.391 . S
C137 H119 0.941 . S
C137 C136 1.391 . S
C137 C138 1.396 . S
C138 H122 0.939 . S
C138 C137 1.396 . S
C138 C139 1.397 . S
C139 C138 1.397 . S
C139 C140 1.385 . S
C140 H123 0.940 . S
C140 C139 1.385 . S
C140 C141 1.388 . S
C141 H120 0.939 . S
C141 C136 1.391 . S
C141 C140 1.388 . S
P142 O153 1.490 . S
P142 C156 1.812 . S
P142 C162 1.803 . S
P142 C168 1.819 . S
H143 C157 0.941 . S
H144 C158 0.939 . S
H145 C160 0.940 . S
H146 C161 0.940 . S
H147 C163 0.939 . S
H148 C164 0.942 . S
H149 C166 0.940 . S
H150 C167 0.939 . S
H151 C169 0.941 . S
H152 C173 0.939 . S
O153 P142 1.490 . S
H154 C170 0.939 . S
H155 C172 0.940 . S
C156 P142 1.812 . S
C156 C157 1.389 . S
C156 C161 1.391 . S
C157 H143 0.941 . S
C157 C156 1.389 . S
C157 C158 1.397 . S
C158 H144 0.939 . S
C158 C157 1.397 . S
C158 C159 1.378 . S
C159 C158 1.378 . S
C159 C160 1.378 . S
C160 H145 0.940 . S
C160 C159 1.378 . S
C160 C161 1.396 . S
C161 H146 0.940 . S
C161 C156 1.391 . S
C161 C160 1.396 . S
C162 P142 1.803 . S
C162 C163 1.378 . S
C162 C167 1.400 . S
C163 H147 0.939 . S
C163 C162 1.378 . S
C163 C164 1.361 . S
C164 H148 0.942 . S
C164 C163 1.361 . S
C164 C165 1.369 . S
C165 C164 1.369 . S
C165 C166 1.404 . S
C166 H149 0.940 . S
C166 C165 1.404 . S
C166 C167 1.389 . S
C167 H150 0.939 . S
C167 C162 1.400 . S
C167 C166 1.389 . S
C168 P142 1.819 . S
C168 C169 1.391 . S
C168 C173 1.391 . S
C169 H151 0.941 . S
C169 C168 1.391 . S
C169 C170 1.396 . S
C170 H154 0.939 . S
C170 C169 1.396 . S
C170 C171 1.397 . S
C171 C170 1.397 . S
C171 C172 1.385 . S
C172 H155 0.940 . S
C172 C171 1.385 . S
C172 C173 1.388 . S
C173 H152 0.939 . S
C173 C168 1.391 . S
C173 C172 1.388 . S
H174 C192 0.951 . S
H175 C194 0.951 . S
H176 C196 0.950 . S
H177 C197 0.950 . S
H178 C199 0.950 . S
H179 C202 0.951 . S
H180 C203 0.950 . S
H181 C205 0.950 . S
H182 C206 0.950 . S
H183 C207 0.951 . S
H184 C209 0.951 . S
H185 C211 0.950 . S
H186 C212 0.950 . S
H187 C214 0.950 . S
H188 C217 0.950 . S
H189 C218 0.950 . S
H190 C220 0.950 . S
H191 C221 0.950 . S
C192 H174 0.951 . S
C192 C193 1.366 . S
C192 C194 1.388 . S
C193 C192 1.366 . S
C193 C197 1.385 . S
C194 H175 0.951 . S
C194 C192 1.388 . S
C194 C195 1.366 . S
C195 C194 1.366 . S
C195 C196 1.414 . S
C195 C198 1.499 . S
C196 H176 0.950 . S
C196 C195 1.414 . S
C196 C197 1.374 . S
C197 H177 0.950 . S
C197 C193 1.385 . S
C197 C196 1.374 . S
C198 C195 1.499 . S
C198 C199 1.373 . S
C198 C200 1.389 . S
C199 H178 0.950 . S
C199 C198 1.373 . S
C199 C215 1.377 . S
C200 C198 1.389 . S
C200 C201 1.524 . S
C200 C214 1.377 . S
C201 C200 1.524 . S
C201 C202 1.397 . S
C201 C206 1.363 . S
C202 H179 0.951 . S
C202 C201 1.397 . S
C202 C203 1.334 1_554 S
C203 H180 0.950 . S
C203 C202 1.334 1_556 S
C203 C204 1.287 1_556 S
C204 C203 1.287 1_554 S
C204 C205 1.524 . S
C204 H223 0.913 . S
C205 H181 0.950 . S
C205 C204 1.524 . S
C205 C206 1.415 . S
C206 H182 0.950 . S
C206 C201 1.363 . S
C206 C205 1.415 . S
C207 H183 0.951 . S
C207 C208 1.366 . S
C207 C209 1.388 . S
C208 C207 1.366 . S
C208 C212 1.385 . S
C209 H184 0.951 . S
C209 C207 1.388 . S
C209 C210 1.366 . S
C210 C209 1.366 . S
C210 C211 1.414 . S
C210 C213 1.499 . S
C211 H185 0.950 . S
C211 C210 1.414 . S
C211 C212 1.374 . S
C212 H186 0.950 . S
C212 C208 1.385 . S
C212 C211 1.374 . S
C213 C210 1.499 . S
C213 C214 1.373 . S
C213 C215 1.389 . S
C214 H187 0.950 . S
C214 C200 1.377 . S
C214 C213 1.373 . S
C215 C199 1.377 . S
C215 C213 1.389 . S
C215 C216 1.524 . S
C216 C215 1.524 . S
C216 C217 1.397 . S
C216 C221 1.363 . S
C217 H188 0.950 . S
C217 C216 1.397 . S
C217 C218 1.334 . S
C218 H189 0.950 . S
C218 C217 1.334 . S
C218 C219 1.287 . S
C219 C218 1.287 . S
C219 C220 1.524 . S
C219 H222 0.999 . S
C220 H190 0.950 . S
C220 C219 1.524 . S
C220 C221 1.415 . S
C221 H191 0.950 . S
C221 C216 1.363 . S
C221 C220 1.415 . S
H222 C219 0.999 . S
H223 C204 0.913 . S
H224 C242 0.951 . S
H225 C244 0.951 . S
H226 C246 0.950 . S
H227 C247 0.950 . S
H228 C249 0.950 . S
H229 C252 0.950 . S
H230 C253 0.950 . S
H231 C255 0.950 . S
H232 C256 0.950 1_556 S
H233 C257 0.951 . S
H234 C259 0.951 . S
H235 C261 0.950 . S
H236 C262 0.950 . S
H237 C264 0.950 . S
H238 C267 0.950 . S
H239 C268 0.950 . S
H240 C270 0.950 . S
H241 C271 0.950 . S
C242 H224 0.951 . S
C242 C243 1.366 . S
C242 C244 1.388 . S
C243 C242 1.366 . S
C243 C247 1.385 . S
C244 H225 0.951 . S
C244 C242 1.388 . S
C244 C245 1.366 . S
C245 C244 1.366 . S
C245 C246 1.414 . S
C245 C248 1.499 . S
C246 H226 0.950 . S
C246 C245 1.414 . S
C246 C247 1.374 . S
C247 H227 0.950 . S
C247 C243 1.385 . S
C247 C246 1.374 . S
C248 C245 1.499 . S
C248 C249 1.373 . S
C248 C250 1.389 . S
C249 H228 0.950 . S
C249 C248 1.373 . S
C249 C265 1.377 . S
C250 C248 1.389 . S
C250 C251 1.524 1_556 S
C250 C264 1.377 . S
C251 C250 1.524 1_554 S
C251 C252 1.397 . S
C251 C256 1.363 . S
C252 H229 0.950 . S
C252 C251 1.397 . S
C252 C253 1.334 . S
C253 H230 0.950 . S
C253 C252 1.334 . S
C253 C254 1.287 . S
C254 C253 1.287 . S
C254 C255 1.524 . S
C254 H273 0.913 . S
C255 H231 0.950 . S
C255 C254 1.524 . S
C255 C256 1.415 . S
C256 H232 0.950 1_554 S
C256 C251 1.363 . S
C256 C255 1.415 . S
C257 H233 0.951 . S
C257 C258 1.366 . S
C257 C259 1.388 . S
C258 C257 1.366 . S
C258 C262 1.385 . S
C259 H234 0.951 . S
C259 C257 1.388 . S
C259 C260 1.366 . S
C260 C259 1.366 . S
C260 C261 1.414 . S
C260 C263 1.499 . S
C261 H235 0.950 . S
C261 C260 1.414 . S
C261 C262 1.374 . S
C262 H236 0.950 . S
C262 C258 1.385 . S
C262 C261 1.374 . S
C263 C260 1.499 . S
C263 C264 1.373 . S
C263 C265 1.389 . S
C264 H237 0.950 . S
C264 C250 1.377 . S
C264 C263 1.373 . S
C265 C249 1.377 . S
C265 C263 1.389 . S
C265 C266 1.524 . S
C266 C265 1.524 . S
C266 C267 1.397 . S
C266 C271 1.363 . S
C267 H238 0.950 . S
C267 C266 1.397 . S
C267 C268 1.334 . S
C268 H239 0.950 . S
C268 C267 1.334 . S
C268 C269 1.287 . S
C269 C268 1.287 . S
C269 C270 1.524 . S
C269 H272 0.999 . S
C270 H240 0.950 . S
C270 C269 1.524 . S
C270 C271 1.415 . S
C271 H241 0.950 . S
C271 C266 1.363 . S
C271 C270 1.415 . S
H272 C269 0.999 . S
H273 C254 0.913 . S
H274 C292 0.951 1_556 S
H275 C294 0.955 . S
H276 C296 0.950 . S
H277 C297 0.950 . S
H278 C299 0.950 . S
H279 C302 0.950 . S
H280 C303 0.950 . S
H281 C305 0.950 . S
H282 C306 0.950 . S
H283 C307 0.951 . S
H284 C309 0.951 . S
H285 C311 0.950 . S
H286 C312 0.950 . S
H287 C314 0.950 . S
H288 C317 0.950 . S
H289 C318 0.950 . S
H290 C320 0.950 . S
H291 C321 0.950 . S
C292 H274 0.951 1_554 S
C292 C293 1.366 . S
C292 C294 1.388 . S
C293 C292 1.366 . S
C293 C297 1.385 . S
C294 H275 0.955 . S
C294 C292 1.388 . S
C294 C295 1.366 . S
C295 C294 1.366 . S
C295 C296 1.414 . S
C295 C298 1.499 . S
C296 H276 0.950 . S
C296 C295 1.414 . S
C296 C297 1.374 . S
C297 H277 0.950 . S
C297 C293 1.385 . S
C297 C296 1.374 . S
C298 C295 1.499 . S
C298 C299 1.373 . S
C298 C300 1.389 . S
C299 H278 0.950 . S
C299 C298 1.373 . S
C299 C315 1.377 . S
C300 C298 1.389 . S
C300 C301 1.524 . S
C300 C314 1.377 . S
C301 C300 1.524 . S
C301 C302 1.397 . S
C301 C306 1.363 1_554 S
C302 H279 0.950 . S
C302 C301 1.397 . S
C302 C303 1.334 . S
C303 H280 0.950 . S
C303 C302 1.334 . S
C303 C304 1.287 1_554 S
C304 C303 1.287 1_556 S
C304 C305 1.524 . S
C304 H323 0.913 . S
C305 H281 0.950 . S
C305 C304 1.524 . S
C305 C306 1.415 . S
C306 H282 0.950 . S
C306 C301 1.363 1_556 S
C306 C305 1.415 . S
C307 H283 0.951 . S
C307 C308 1.366 . S
C307 C309 1.388 . S
C308 C307 1.366 . S
C308 C312 1.385 . S
C309 H284 0.951 . S
C309 C307 1.388 . S
C309 C310 1.366 . S
C310 C309 1.366 . S
C310 C311 1.414 . S
C310 C313 1.499 . S
C311 H285 0.950 . S
C311 C310 1.414 . S
C311 C312 1.374 . S
C312 H286 0.950 . S
C312 C308 1.385 . S
C312 C311 1.374 . S
C313 C310 1.499 . S
C313 C314 1.373 . S
C313 C315 1.389 . S
C314 H287 0.950 . S
C314 C300 1.377 . S
C314 C313 1.373 . S
C315 C299 1.377 . S
C315 C313 1.389 . S
C315 C316 1.524 . S
C316 C315 1.524 . S
C316 C317 1.397 . S
C316 C321 1.363 . S
C317 H288 0.950 . S
C317 C316 1.397 . S
C317 C318 1.334 . S
C318 H289 0.950 . S
C318 C317 1.334 . S
C318 C319 1.287 . S
C319 C318 1.287 . S
C319 C320 1.524 . S
C319 H322 0.999 . S
C320 H290 0.950 . S
C320 C319 1.524 . S
C320 C321 1.415 . S
C321 H291 0.950 . S
C321 C316 1.363 . S
C321 C320 1.415 . S
H322 C319 0.999 . S
H323 C304 0.913 . S
H324 C342 0.951 . S
H325 C344 0.951 . S
H326 C346 0.950 . S
H327 C347 0.950 . S
H328 C349 0.950 . S
H329 C352 0.950 . S
H330 C353 0.950 . S
H331 C355 0.950 . S
H332 C356 0.950 . S
H333 C357 0.951 . S
H334 C359 0.951 . S
H335 C361 0.950 . S
H336 C362 0.950 . S
H337 C364 0.950 . S
H338 C367 0.950 . S
H339 C368 0.950 . S
H340 C370 0.950 . S
H341 C371 0.950 . S
C342 H324 0.951 . S
C342 C343 1.366 1_554 S
C342 C344 1.388 . S
C343 C342 1.366 1_556 S
C343 C347 1.385 . S
C344 H325 0.951 . S
C344 C342 1.388 . S
C344 C345 1.366 1_554 S
C345 C344 1.366 1_556 S
C345 C346 1.414 . S
C345 C348 1.499 . S
C346 H326 0.950 . S
C346 C345 1.414 . S
C346 C347 1.374 . S
C347 H327 0.950 . S
C347 C343 1.385 . S
C347 C346 1.374 . S
C348 C345 1.499 . S
C348 C349 1.373 . S
C348 C350 1.389 . S
C349 H328 0.950 . S
C349 C348 1.373 . S
C349 C365 1.377 . S
C350 C348 1.389 . S
C350 C351 1.524 . S
C350 C364 1.377 . S
C351 C350 1.524 . S
C351 C352 1.397 . S
C351 C356 1.363 1_556 S
C352 H329 0.950 . S
C352 C351 1.397 . S
C352 C353 1.334 . S
C353 H330 0.950 . S
C353 C352 1.334 . S
C353 C354 1.287 1_556 S
C354 C353 1.287 1_554 S
C354 C355 1.524 . S
C354 H373 0.913 . S
C355 H331 0.950 . S
C355 C354 1.524 . S
C355 C356 1.415 . S
C356 H332 0.950 . S
C356 C351 1.363 1_554 S
C356 C355 1.415 . S
C357 H333 0.951 . S
C357 C358 1.366 . S
C357 C359 1.388 . S
C358 C357 1.366 . S
C358 C362 1.385 . S
C359 H334 0.951 . S
C359 C357 1.388 . S
C359 C360 1.366 . S
C360 C359 1.366 . S
C360 C361 1.414 . S
C360 C363 1.499 . S
C361 H335 0.950 . S
C361 C360 1.414 . S
C361 C362 1.374 . S
C362 H336 0.950 . S
C362 C358 1.385 . S
C362 C361 1.374 . S
C363 C360 1.499 . S
C363 C364 1.373 . S
C363 C365 1.389 . S
C364 H337 0.950 . S
C364 C350 1.377 . S
C364 C363 1.373 . S
C365 C349 1.377 . S
C365 C363 1.389 . S
C365 C366 1.524 . S
C366 C365 1.524 . S
C366 C367 1.397 . S
C366 C371 1.363 . S
C367 H338 0.950 . S
C367 C366 1.397 . S
C367 C368 1.334 . S
C368 H339 0.950 . S
C368 C367 1.334 . S
C368 C369 1.287 . S
C369 C368 1.287 . S
C369 C370 1.524 . S
C369 H372 0.999 . S
C370 H340 0.950 . S
C370 C369 1.524 . S
C370 C371 1.415 . S
C371 H341 0.950 . S
C371 C366 1.363 . S
C371 C370 1.415 . S
H372 C369 0.999 . S
H373 C354 0.913 . S
H374 C392 0.951 . S
H375 C394 0.951 . S
H376 C396 0.950 . S
H377 C397 0.950 . S
H378 C399 0.950 . S
H379 C402 0.950 . S
H380 C403 0.950 . S
H381 C405 0.950 . S
H382 C406 0.950 . S
H383 C407 0.951 . S
H384 C409 0.951 . S
H385 C411 0.950 . S
H386 C412 0.950 . S
H387 C414 0.950 . S
H388 C417 0.950 . S
H389 C418 0.950 . S
H390 C420 0.950 . S
H391 C421 0.950 . S
C392 H374 0.951 . S
C392 C393 1.366 . S
C392 C394 1.388 . S
C393 C392 1.366 . S
C393 C397 1.385 . S
C394 H375 0.951 . S
C394 C392 1.388 . S
C394 C395 1.366 . S
C395 C394 1.366 . S
C395 C396 1.414 . S
C395 C398 1.499 . S
C396 H376 0.950 . S
C396 C395 1.414 . S
C396 C397 1.374 . S
C397 H377 0.950 . S
C397 C393 1.385 . S
C397 C396 1.374 . S
C398 C395 1.499 . S
C398 C399 1.373 . S
C398 C400 1.389 . S
C399 H378 0.950 . S
C399 C398 1.373 . S
C399 C415 1.377 . S
C400 C398 1.389 . S
C400 C401 1.524 . S
C400 C414 1.377 . S
C401 C400 1.524 . S
C401 C402 1.397 . S
C401 C406 1.363 . S
C402 H379 0.950 . S
C402 C401 1.397 . S
C402 C403 1.334 . S
C403 H380 0.950 . S
C403 C402 1.334 . S
C403 C404 1.287 . S
C404 C403 1.287 . S
C404 C405 1.524 . S
C404 H423 0.913 . S
C405 H381 0.950 . S
C405 C404 1.524 . S
C405 C406 1.415 . S
C406 H382 0.950 . S
C406 C401 1.363 . S
C406 C405 1.415 . S
C407 H383 0.951 . S
C407 C408 1.366 . S
C407 C409 1.388 . S
C408 C407 1.366 . S
C408 C412 1.385 . S
C409 H384 0.951 . S
C409 C407 1.388 . S
C409 C410 1.366 . S
C410 C409 1.366 . S
C410 C411 1.414 . S
C410 C413 1.499 . S
C411 H385 0.950 . S
C411 C410 1.414 . S
C411 C412 1.374 . S
C412 H386 0.950 . S
C412 C408 1.385 . S
C412 C411 1.374 . S
C413 C410 1.499 . S
C413 C414 1.373 . S
C413 C415 1.389 . S
C414 H387 0.950 . S
C414 C400 1.377 . S
C414 C413 1.373 . S
C415 C399 1.377 . S
C415 C413 1.389 . S
C415 C416 1.524 . S
C416 C415 1.524 . S
C416 C417 1.397 . S
C416 C421 1.363 . S
C417 H388 0.950 . S
C417 C416 1.397 . S
C417 C418 1.334 . S
C418 H389 0.950 . S
C418 C417 1.334 . S
C418 C419 1.287 . S
C419 C418 1.287 . S
C419 C420 1.524 . S
C419 H422 0.999 . S
C420 H390 0.950 . S
C420 C419 1.524 . S
C420 C421 1.415 . S
C421 H391 0.950 . S
C421 C416 1.363 . S
C421 C420 1.415 . S
H422 C419 0.999 . S
H423 C404 0.913 . S
H424 C442 0.951 . S
H425 C444 0.951 . S
H426 C446 0.950 . S
H427 C447 0.950 . S
H428 C449 0.950 . S
H429 C452 0.950 . S
H430 C453 0.950 . S
H431 C455 0.950 . S
H432 C456 0.950 . S
H433 C457 0.951 . S
H434 C459 0.951 . S
H435 C461 0.950 . S
H436 C462 0.950 . S
H437 C464 0.950 . S
H438 C467 0.950 . S
H439 C468 0.950 . S
H440 C470 0.950 . S
H441 C471 0.950 . S
C442 H424 0.951 . S
C442 C443 1.366 . S
C442 C444 1.388 . S
C443 C442 1.366 . S
C443 C447 1.385 . S
C444 H425 0.951 . S
C444 C442 1.388 . S
C444 C445 1.366 . S
C445 C444 1.366 . S
C445 C446 1.414 . S
C445 C448 1.499 . S
C446 H426 0.950 . S
C446 C445 1.414 . S
C446 C447 1.374 . S
C447 H427 0.950 . S
C447 C443 1.385 . S
C447 C446 1.374 . S
C448 C445 1.499 . S
C448 C449 1.373 . S
C448 C450 1.389 . S
C449 H428 0.950 . S
C449 C448 1.373 . S
C449 C465 1.377 . S
C450 C448 1.389 . S
C450 C451 1.524 . S
C450 C464 1.377 . S
C451 C450 1.524 . S
C451 C452 1.397 . S
C451 C456 1.363 . S
C452 H429 0.950 . S
C452 C451 1.397 . S
C452 C453 1.334 . S
C453 H430 0.950 . S
C453 C452 1.334 . S
C453 C454 1.287 . S
C454 C453 1.287 . S
C454 C455 1.524 . S
C454 H473 0.913 . S
C455 H431 0.950 . S
C455 C454 1.524 . S
C455 C456 1.415 . S
C456 H432 0.950 . S
C456 C451 1.363 . S
C456 C455 1.415 . S
C457 H433 0.951 . S
C457 C458 1.366 . S
C457 C459 1.388 . S
C458 C457 1.366 . S
C458 C462 1.385 . S
C459 H434 0.951 . S
C459 C457 1.388 . S
C459 C460 1.366 . S
C460 C459 1.366 . S
C460 C461 1.414 . S
C460 C463 1.499 . S
C461 H435 0.950 . S
C461 C460 1.414 . S
C461 C462 1.374 . S
C462 H436 0.950 . S
C462 C458 1.385 . S
C462 C461 1.374 . S
C463 C460 1.499 . S
C463 C464 1.373 . S
C463 C465 1.389 . S
C464 H437 0.950 . S
C464 C450 1.377 . S
C464 C463 1.373 . S
C465 C449 1.377 . S
C465 C463 1.389 . S
C465 C466 1.524 . S
C466 C465 1.524 . S
C466 C467 1.397 . S
C466 C471 1.363 . S
C467 H438 0.950 . S
C467 C466 1.397 . S
C467 C468 1.334 . S
C468 H439 0.950 . S
C468 C467 1.334 . S
C468 C469 1.287 . S
C469 C468 1.287 . S
C469 C470 1.524 . S
C469 H472 0.999 . S
C470 H440 0.950 . S
C470 C469 1.524 . S
C470 C471 1.415 . S
C471 H441 0.950 . S
C471 C466 1.363 . S
C471 C470 1.415 . S
H472 C469 0.999 . S
H473 C454 0.913 . S
H474 C492 0.951 . S
H475 C494 0.951 . S
H476 C496 0.950 . S
H477 C497 0.950 . S
H478 C499 0.950 . S
H479 C502 0.950 . S
H480 C503 0.950 . S
H481 C505 0.950 . S
H482 C506 0.950 . S
H483 C507 0.951 . S
H484 C509 0.951 . S
H485 C511 0.950 . S
H486 C512 0.950 . S
H487 C514 0.950 . S
H488 C517 0.950 . S
H489 C518 0.950 . S
H490 C520 0.950 . S
H491 C521 0.950 . S
C492 H474 0.951 . S
C492 C493 1.366 . S
C492 C494 1.388 . S
C493 C492 1.366 . S
C493 C497 1.385 . S
C494 H475 0.951 . S
C494 C492 1.388 . S
C494 C495 1.366 . S
C495 C494 1.366 . S
C495 C496 1.414 . S
C495 C498 1.499 . S
C496 H476 0.950 . S
C496 C495 1.414 . S
C496 C497 1.374 . S
C497 H477 0.950 . S
C497 C493 1.385 . S
C497 C496 1.374 . S
C498 C495 1.499 . S
C498 C499 1.373 . S
C498 C500 1.389 . S
C499 H478 0.950 . S
C499 C498 1.373 . S
C499 C515 1.377 . S
C500 C498 1.389 . S
C500 C501 1.524 . S
C500 C514 1.377 . S
C501 C500 1.524 . S
C501 C502 1.397 . S
C501 C506 1.363 . S
C502 H479 0.950 . S
C502 C501 1.397 . S
C502 C503 1.334 . S
C503 H480 0.950 . S
C503 C502 1.334 . S
C503 C504 1.287 . S
C504 C503 1.287 . S
C504 C505 1.524 . S
C504 H523 0.913 . S
C505 H481 0.950 . S
C505 C504 1.524 . S
C505 C506 1.415 . S
C506 H482 0.950 . S
C506 C501 1.363 . S
C506 C505 1.415 . S
C507 H483 0.951 . S
C507 C508 1.366 . S
C507 C509 1.388 . S
C508 C507 1.366 . S
C508 C512 1.385 . S
C509 H484 0.951 . S
C509 C507 1.388 . S
C509 C510 1.366 . S
C510 C509 1.366 . S
C510 C511 1.414 . S
C510 C513 1.499 . S
C511 H485 0.950 . S
C511 C510 1.414 . S
C511 C512 1.374 . S
C512 H486 0.950 . S
C512 C508 1.385 . S
C512 C511 1.374 . S
C513 C510 1.499 . S
C513 C514 1.373 . S
C513 C515 1.389 . S
C514 H487 0.950 . S
C514 C500 1.377 . S
C514 C513 1.373 . S
C515 C499 1.377 . S
C515 C513 1.389 . S
C515 C516 1.524 . S
C516 C515 1.524 . S
C516 C517 1.397 . S
C516 C521 1.363 . S
C517 H488 0.950 . S
C517 C516 1.397 . S
C517 C518 1.334 . S
C518 H489 0.950 . S
C518 C517 1.334 . S
C518 C519 1.287 . S
C519 C518 1.287 . S
C519 C520 1.524 . S
C519 H522 0.999 . S
C520 H490 0.950 . S
C520 C519 1.524 . S
C520 C521 1.415 . S
C521 H491 0.950 . S
C521 C516 1.363 . S
C521 C520 1.415 . S
H522 C519 0.999 . S
H523 C504 0.913 . S
H524 C542 0.951 . S
H525 C544 0.951 . S
H526 C546 0.950 . S
H527 C547 0.950 . S
H528 C549 0.950 . S
H529 C552 0.950 . S
H530 C553 0.950 . S
H531 C555 0.950 . S
H532 C556 0.950 . S
H533 C557 0.951 . S
H534 C559 0.951 . S
H535 C561 0.950 . S
H536 C562 0.950 . S
H537 C564 0.950 . S
H538 C567 0.950 . S
H539 C568 0.950 . S
H540 C570 0.950 . S
H541 C571 0.950 . S
C542 H524 0.951 . S
C542 C543 1.366 . S
C542 C544 1.388 . S
C543 C542 1.366 . S
C543 C547 1.385 . S
C544 H525 0.951 . S
C544 C542 1.388 . S
C544 C545 1.366 . S
C545 C544 1.366 . S
C545 C546 1.414 . S
C545 C548 1.499 . S
C546 H526 0.950 . S
C546 C545 1.414 . S
C546 C547 1.374 . S
C547 H527 0.950 . S
C547 C543 1.385 . S
C547 C546 1.374 . S
C548 C545 1.499 . S
C548 C549 1.373 . S
C548 C550 1.389 . S
C549 H528 0.950 . S
C549 C548 1.373 . S
C549 C565 1.377 . S
C550 C548 1.389 . S
C550 C551 1.524 . S
C550 C564 1.377 . S
C551 C550 1.524 . S
C551 C552 1.397 . S
C551 C556 1.363 . S
C552 H529 0.950 . S
C552 C551 1.397 . S
C552 C553 1.334 . S
C553 H530 0.950 . S
C553 C552 1.334 . S
C553 C554 1.287 . S
C554 C553 1.287 . S
C554 C555 1.524 . S
C554 H573 0.913 . S
C555 H531 0.950 . S
C555 C554 1.524 . S
C555 C556 1.415 . S
C556 H532 0.950 . S
C556 C551 1.363 . S
C556 C555 1.415 . S
C557 H533 0.951 . S
C557 C558 1.366 . S
C557 C559 1.388 . S
C558 C557 1.366 . S
C558 C562 1.385 . S
C559 H534 0.951 . S
C559 C557 1.388 . S
C559 C560 1.366 . S
C560 C559 1.366 . S
C560 C561 1.414 . S
C560 C563 1.499 . S
C561 H535 0.950 . S
C561 C560 1.414 . S
C561 C562 1.374 . S
C562 H536 0.950 . S
C562 C558 1.385 . S
C562 C561 1.374 . S
C563 C560 1.499 . S
C563 C564 1.373 . S
C563 C565 1.389 . S
C564 H537 0.950 . S
C564 C550 1.377 . S
C564 C563 1.373 . S
C565 C549 1.377 . S
C565 C563 1.389 . S
C565 C566 1.524 . S
C566 C565 1.524 . S
C566 C567 1.397 . S
C566 C571 1.363 . S
C567 H538 0.950 . S
C567 C566 1.397 . S
C567 C568 1.334 . S
C568 H539 0.950 . S
C568 C567 1.334 . S
C568 C569 1.287 . S
C569 C568 1.287 . S
C569 C570 1.524 . S
C569 H572 0.999 . S
C570 H540 0.950 . S
C570 C569 1.524 . S
C570 C571 1.415 . S
C571 H541 0.950 . S
C571 C566 1.363 . S
C571 C570 1.415 . S
H572 C569 0.999 . S
H573 C554 0.913 . S
H574 C592 0.951 1_655 S
H575 C594 0.951 1_655 S
H576 C596 0.950 . S
H577 C597 0.950 . S
H578 C599 0.950 . S
H579 C602 0.950 . S
H580 C603 0.950 . S
H581 C605 0.950 . S
H582 C606 0.950 . S
H583 C607 0.951 . S
H584 C609 0.951 . S
H585 C611 0.950 . S
H586 C612 0.950 . S
H587 C614 0.950 . S
H588 C617 0.950 . S
H589 C618 0.950 . S
H590 C620 0.950 . S
H591 C621 0.950 . S
C592 H574 0.951 1_455 S
C592 C593 1.366 . S
C592 C594 1.388 . S
C593 C592 1.366 . S
C593 C597 1.385 1_545 S
C594 H575 0.951 1_455 S
C594 C592 1.388 . S
C594 C595 1.366 . S
C595 C594 1.366 . S
C595 C596 1.414 1_545 S
C595 C598 1.499 . S
C596 H576 0.950 . S
C596 C595 1.414 1_565 S
C596 C597 1.374 . S
C597 H577 0.950 . S
C597 C593 1.385 1_565 S
C597 C596 1.374 . S
C598 C595 1.499 . S
C598 C599 1.373 1_445 S
C598 C600 1.389 . S
C599 H578 0.950 . S
C599 C598 1.373 1_665 S
C599 C615 1.377 . S
C600 C598 1.389 . S
C600 C601 1.524 . S
C600 C614 1.377 . S
C601 C600 1.524 . S
C601 C602 1.397 . S
C601 C606 1.363 . S
C602 H579 0.950 . S
C602 C601 1.397 . S
C602 C603 1.334 . S
C603 H580 0.950 . S
C603 C602 1.334 . S
C603 C604 1.287 . S
C604 C603 1.287 . S
C604 C605 1.524 . S
C604 H623 0.913 . S
C605 H581 0.950 . S
C605 C604 1.524 . S
C605 C606 1.415 . S
C606 H582 0.950 . S
C606 C601 1.363 . S
C606 C605 1.415 . S
C607 H583 0.951 . S
C607 C608 1.365 1_465 S
C607 C609 1.388 . S
C608 C607 1.365 1_645 S
C608 C612 1.386 . S
C609 H584 0.951 . S
C609 C607 1.388 . S
C609 C610 1.366 1_465 S
C610 C609 1.366 1_645 S
C610 C611 1.414 . S
C610 C613 1.499 . S
C611 H585 0.950 . S
C611 C610 1.414 . S
C611 C612 1.374 . S
C612 H586 0.950 . S
C612 C608 1.386 . S
C612 C611 1.374 . S
C613 C610 1.499 . S
C613 C614 1.364 1_655 S
C613 C615 1.397 1_545 S
C614 H587 0.950 . S
C614 C600 1.377 . S
C614 C613 1.364 1_455 S
C615 C599 1.377 . S
C615 C613 1.397 1_565 S
C615 C616 1.524 . S
C616 C615 1.524 . S
C616 C617 1.397 . S
C616 C621 1.363 . S
C617 H588 0.950 . S
C617 C616 1.397 . S
C617 C618 1.334 . S
C618 H589 0.950 . S
C618 C617 1.334 . S
C618 C619 1.287 . S
C619 C618 1.287 . S
C619 C620 1.524 . S
C619 H622 0.999 . S
C620 H590 0.950 . S
C620 C619 1.524 . S
C620 C621 1.415 . S
C621 H591 0.950 . S
C621 C616 1.363 . S
C621 C620 1.415 . S
H622 C619 0.999 . S
H623 C604 0.913 . S
H624 C642 0.951 . S
H625 C644 0.951 . S
H626 C646 0.950 . S
H627 C647 0.950 . S
H628 C649 0.950 . S
H629 C652 0.950 . S
H630 C653 0.950 . S
H631 C655 0.950 . S
H632 C656 0.950 1_455 S
H633 C657 0.951 . S
H634 C659 0.951 . S
H635 C661 0.950 . S
H636 C662 0.950 . S
H637 C664 0.950 1_655 S
H638 C667 0.950 . S
H639 C668 0.950 . S
H640 C670 0.950 . S
H641 C671 0.950 . S
C642 H624 0.951 . S
C642 C643 1.366 . S
C642 C644 1.388 . S
C643 C642 1.366 . S
C643 C647 1.385 1_445 S
C644 H625 0.951 . S
C644 C642 1.388 . S
C644 C645 1.366 . S
C645 C644 1.366 . S
C645 C646 1.414 1_445 S
C645 C648 1.499 . S
C646 H626 0.950 . S
C646 C645 1.414 1_665 S
C646 C647 1.374 . S
C647 H627 0.950 . S
C647 C643 1.385 1_665 S
C647 C646 1.374 . S
C648 C645 1.499 . S
C648 C649 1.373 1_545 S
C648 C650 1.389 1_455 S
C649 H628 0.950 . S
C649 C648 1.373 1_565 S
C649 C665 1.377 . S
C650 C648 1.389 1_655 S
C650 C651 1.524 . S
C650 C664 1.376 1_655 S
C651 C650 1.524 . S
C651 C652 1.397 . S
C651 C656 1.363 . S
C652 H629 0.950 . S
C652 C651 1.397 . S
C652 C653 1.334 . S
C653 H630 0.950 . S
C653 C652 1.334 . S
C653 C654 1.287 . S
C654 C653 1.287 . S
C654 C655 1.524 . S
C654 H673 0.913 . S
C655 H631 0.950 . S
C655 C654 1.524 . S
C655 C656 1.415 . S
C656 H632 0.950 1_655 S
C656 C651 1.363 . S
C656 C655 1.415 . S
C657 H633 0.951 . S
C657 C658 1.366 1_665 S
C657 C659 1.388 . S
C658 C657 1.366 1_445 S
C658 C662 1.385 . S
C659 H634 0.951 . S
C659 C657 1.388 . S
C659 C660 1.366 1_665 S
C660 C659 1.366 1_445 S
C660 C661 1.414 . S
C660 C663 1.499 . S
C661 H635 0.950 . S
C661 C660 1.414 . S
C661 C662 1.374 . S
C662 H636 0.950 . S
C662 C658 1.385 . S
C662 C661 1.374 . S
C663 C660 1.499 . S
C663 C664 1.374 . S
C663 C665 1.389 1_545 S
C664 H637 0.950 1_455 S
C664 C650 1.376 1_455 S
C664 C663 1.374 . S
C665 C649 1.377 . S
C665 C663 1.389 1_565 S
C665 C666 1.524 . S
C666 C665 1.524 . S
C666 C667 1.397 . S
C666 C671 1.363 . S
C667 H638 0.950 . S
C667 C666 1.397 . S
C667 C668 1.334 . S
C668 H639 0.950 . S
C668 C667 1.334 . S
C668 C669 1.287 . S
C669 C668 1.287 . S
C669 C670 1.524 . S
C669 H672 0.999 . S
C670 H640 0.950 . S
C670 C669 1.524 . S
C670 C671 1.415 . S
C671 H641 0.950 . S
C671 C666 1.363 . S
C671 C670 1.415 . S
H672 C669 0.999 . S
H673 C654 0.913 . S
H674 C692 0.951 . S
H675 C694 0.951 . S
H676 C696 0.950 . S
H677 C697 0.950 . S
H678 C699 0.950 . S
H679 C702 0.950 . S
H680 C703 0.950 . S
H681 C705 0.950 . S
H682 C706 0.950 . S
H683 C707 0.951 . S
H684 C709 0.951 . S
H685 C711 0.950 . S
H686 C712 0.950 . S
H687 C714 0.950 . S
H688 C717 0.950 . S
H689 C718 0.950 . S
H690 C720 0.950 . S
H691 C721 0.950 . S
C692 H674 0.951 . S
C692 C693 1.366 . S
C692 C694 1.388 . S
C693 C692 1.366 . S
C693 C697 1.385 . S
C694 H675 0.951 . S
C694 C692 1.388 . S
C694 C695 1.366 . S
C695 C694 1.366 . S
C695 C696 1.414 . S
C695 C698 1.499 . S
C696 H676 0.950 . S
C696 C695 1.414 . S
C696 C697 1.374 . S
C697 H677 0.950 . S
C697 C693 1.385 . S
C697 C696 1.374 . S
C698 C695 1.499 . S
C698 C699 1.373 . S
C698 C700 1.389 . S
C699 H678 0.950 . S
C699 C698 1.373 . S
C699 C715 1.377 . S
C700 C698 1.389 . S
C700 C701 1.524 . S
C700 C714 1.377 . S
C701 C700 1.524 . S
C701 C702 1.397 . S
C701 C706 1.363 . S
C702 H679 0.950 . S
C702 C701 1.397 . S
C702 C703 1.334 . S
C703 H680 0.950 . S
C703 C702 1.334 . S
C703 C704 1.287 . S
C704 C703 1.287 . S
C704 C705 1.524 . S
C704 H723 0.913 . S
C705 H681 0.950 . S
C705 C704 1.524 . S
C705 C706 1.415 . S
C706 H682 0.950 . S
C706 C701 1.363 . S
C706 C705 1.415 . S
C707 H683 0.951 . S
C707 C708 1.366 . S
C707 C709 1.388 . S
C708 C707 1.366 . S
C708 C712 1.385 . S
C709 H684 0.951 . S
C709 C707 1.388 . S
C709 C710 1.366 . S
C710 C709 1.366 . S
C710 C711 1.414 . S
C710 C713 1.499 . S
C711 H685 0.950 . S
C711 C710 1.414 . S
C711 C712 1.374 . S
C712 H686 0.950 . S
C712 C708 1.385 . S
C712 C711 1.374 . S
C713 C710 1.499 . S
C713 C714 1.373 . S
C713 C715 1.389 . S
C714 H687 0.950 . S
C714 C700 1.377 . S
C714 C713 1.373 . S
C715 C699 1.377 . S
C715 C713 1.389 . S
C715 C716 1.524 . S
C716 C715 1.524 . S
C716 C717 1.397 . S
C716 C721 1.363 . S
C717 H688 0.950 . S
C717 C716 1.397 . S
C717 C718 1.334 . S
C718 H689 0.950 . S
C718 C717 1.334 . S
C718 C719 1.287 . S
C719 C718 1.287 . S
C719 C720 1.524 . S
C719 H722 0.999 . S
C720 H690 0.950 . S
C720 C719 1.524 . S
C720 C721 1.415 . S
C721 H691 0.950 . S
C721 C716 1.363 . S
C721 C720 1.415 . S
H722 C719 0.999 . S
H723 C704 0.913 . S
H724 C742 0.951 . S
H725 C744 0.951 . S
H726 C746 0.950 . S
H727 C747 0.950 . S
H728 C749 0.950 . S
H729 C752 0.950 . S
H730 C753 0.950 . S
H731 C755 0.950 . S
H732 C756 0.950 . S
H733 C757 0.951 . S
H734 C759 0.951 . S
H735 C761 0.950 . S
H736 C762 0.950 . S
H737 C764 0.950 . S
H738 C767 0.950 . S
H739 C768 0.950 . S
H740 C770 0.950 . S
H741 C771 0.950 . S
C742 H724 0.951 . S
C742 C743 1.366 . S
C742 C744 1.388 . S
C743 C742 1.366 . S
C743 C747 1.385 . S
C744 H725 0.951 . S
C744 C742 1.388 . S
C744 C745 1.366 . S
C745 C744 1.366 . S
C745 C746 1.414 . S
C745 C748 1.499 . S
C746 H726 0.950 . S
C746 C745 1.414 . S
C746 C747 1.374 . S
C747 H727 0.950 . S
C747 C743 1.385 . S
C747 C746 1.374 . S
C748 C745 1.499 . S
C748 C749 1.373 . S
C748 C750 1.389 . S
C749 H728 0.950 . S
C749 C748 1.373 . S
C749 C765 1.377 . S
C750 C748 1.389 . S
C750 C751 1.524 . S
C750 C764 1.377 . S
C751 C750 1.524 . S
C751 C752 1.397 . S
C751 C756 1.363 . S
C752 H729 0.950 . S
C752 C751 1.397 . S
C752 C753 1.334 . S
C753 H730 0.950 . S
C753 C752 1.334 . S
C753 C754 1.287 . S
C754 C753 1.287 . S
C754 C755 1.524 . S
C754 H773 0.913 . S
C755 H731 0.950 . S
C755 C754 1.524 . S
C755 C756 1.415 . S
C756 H732 0.950 . S
C756 C751 1.363 . S
C756 C755 1.415 . S
C757 H733 0.951 . S
C757 C758 1.366 . S
C757 C759 1.388 . S
C758 C757 1.366 . S
C758 C762 1.385 . S
C759 H734 0.951 . S
C759 C757 1.388 . S
C759 C760 1.366 . S
C760 C759 1.366 . S
C760 C761 1.414 . S
C760 C763 1.499 . S
C761 H735 0.950 . S
C761 C760 1.414 . S
C761 C762 1.374 . S
C762 H736 0.950 . S
C762 C758 1.385 . S
C762 C761 1.374 . S
C763 C760 1.499 . S
C763 C764 1.373 . S
C763 C765 1.389 . S
C764 H737 0.950 . S
C764 C750 1.377 . S
C764 C763 1.373 . S
C765 C749 1.377 . S
C765 C763 1.389 . S
C765 C766 1.524 . S
C766 C765 1.524 . S
C766 C767 1.397 . S
C766 C771 1.363 . S
C767 H738 0.950 . S
C767 C766 1.397 . S
C767 C768 1.334 . S
C768 H739 0.950 . S
C768 C767 1.334 . S
C768 C769 1.287 . S
C769 C768 1.287 . S
C769 C770 1.524 . S
C769 H772 0.999 . S
C770 H740 0.950 . S
C770 C769 1.524 . S
C770 C771 1.415 . S
C771 H741 0.950 . S
C771 C766 1.363 . S
C771 C770 1.415 . S
H772 C769 0.999 . S
H773 C754 0.913 . S
C208 C159 1.397 . S
C193 C21 1.411 . S
C243 C19 1.401 . S
C258 C127 1.387 . S
C293 C18 1.363 . S
C308 C165 1.353 . S
C343 C20 1.401 . S
C358 C133 1.363 . S
C393 C44 1.411 . S
C408 C95 1.397 . S
C443 C42 1.401 . S
C458 C63 1.387 . S
C508 C101 1.352 . S
C493 C41 1.363 . S
C558 C69 1.363 . S
C543 C43 1.385 . S
C593 C16 1.493 . S
C608 C75 1.456 1_655 S
C643 C17 1.454 . S
C658 C107 1.425 1_545 S
C708 C139 1.458 . S
C693 C39 1.493 . S
C743 C40 1.454 . S
C758 C171 1.426 . S
