# Generated by pormake.
# Topology pyr, (3,6)-cn, num edge types: 1
# Building blocks:
#     Node 0, Type 0, BuildingBlock: ESEHIV_clean_linker_0, # of connection points: 3
#     Node 1, Type 0, BuildingBlock: ESEHIV_clean_linker_0, # of connection points: 3
#     Node 2, Type 0, BuildingBlock: ESEHIV_clean_linker_0, # of connection points: 3
#     Node 3, Type 0, BuildingBlock: ESEHIV_clean_linker_0, # of connection points: 3
#     Node 4, Type 0, BuildingBlock: ESEHIV_clean_linker_0, # of connection points: 3
#     Node 5, Type 0, BuildingBlock: ESEHIV_clean_linker_0, # of connection points: 3
#     Node 6, Type 0, BuildingBlock: ESEHIV_clean_linker_0, # of connection points: 3
#     Node 7, Type 0, BuildingBlock: ESEHIV_clean_linker_0, # of connection points: 3
#     Node 8, Type 1, BuildingBlock: JUFBIX_clean_sbu_0, # of connection points: 6
#     Node 9, Type 1, BuildingBlock: JUFBIX_clean_sbu_0, # of connection points: 6
#     Node 10, Type 1, BuildingBlock: JUFBIX_clean_sbu_0, # of connection points: 6
#     Node 11, Type 1, BuildingBlock: JUFBIX_clean_sbu_0, # of connection points: 6
#     Edge 12, Type (0, 1), BuildingBlock: XIVTED_clean_linker_0, # of connection points: 2
#     Edge 13, Type (0, 1), BuildingBlock: XIVTED_clean_linker_0, # of connection points: 2
#     Edge 14, Type (0, 1), BuildingBlock: XIVTED_clean_linker_0, # of connection points: 2
#     Edge 15, Type (0, 1), BuildingBlock: XIVTED_clean_linker_0, # of connection points: 2
#     Edge 16, Type (0, 1), BuildingBlock: XIVTED_clean_linker_0, # of connection points: 2
#     Edge 17, Type (0, 1), BuildingBlock: XIVTED_clean_linker_0, # of connection points: 2
#     Edge 18, Type (0, 1), BuildingBlock: XIVTED_clean_linker_0, # of connection points: 2
#     Edge 19, Type (0, 1), BuildingBlock: XIVTED_clean_linker_0, # of connection points: 2
#     Edge 20, Type (0, 1), BuildingBlock: XIVTED_clean_linker_0, # of connection points: 2
#     Edge 21, Type (0, 1), BuildingBlock: XIVTED_clean_linker_0, # of connection points: 2
#     Edge 22, Type (0, 1), BuildingBlock: XIVTED_clean_linker_0, # of connection points: 2
#     Edge 23, Type (0, 1), BuildingBlock: XIVTED_clean_linker_0, # of connection points: 2
#     Edge 24, Type (0, 1), BuildingBlock: XIVTED_clean_linker_0, # of connection points: 2
#     Edge 25, Type (0, 1), BuildingBlock: XIVTED_clean_linker_0, # of connection points: 2
#     Edge 26, Type (0, 1), BuildingBlock: XIVTED_clean_linker_0, # of connection points: 2
#     Edge 27, Type (0, 1), BuildingBlock: XIVTED_clean_linker_0, # of connection points: 2
#     Edge 28, Type (0, 1), BuildingBlock: XIVTED_clean_linker_0, # of connection points: 2
#     Edge 29, Type (0, 1), BuildingBlock: XIVTED_clean_linker_0, # of connection points: 2
#     Edge 30, Type (0, 1), BuildingBlock: XIVTED_clean_linker_0, # of connection points: 2
#     Edge 31, Type (0, 1), BuildingBlock: XIVTED_clean_linker_0, # of connection points: 2
#     Edge 32, Type (0, 1), BuildingBlock: XIVTED_clean_linker_0, # of connection points: 2
#     Edge 33, Type (0, 1), BuildingBlock: XIVTED_clean_linker_0, # of connection points: 2
#     Edge 34, Type (0, 1), BuildingBlock: XIVTED_clean_linker_0, # of connection points: 2
#     Edge 35, Type (0, 1), BuildingBlock: XIVTED_clean_linker_0, # of connection points: 2
# Relax obj value: 0.067
# Max RMSD: 0.101
# Mean RMSD: 0.035
data_MOF--net-pyr--node1-JUFBIX_clean_sbu_0--node2-ESEHIV_clean_linker_0--edge1-XIVTED_clean_linker_0
_symmetry_space_group_name_H-M    P1
_symmetry_Int_Tables_number       1
_symmetry_cell_setting            triclinic
loop_
_symmetry_equiv_pos_as_xyz
'x, y, z'
_cell_length_a     35.759791
_cell_length_b     33.593427
_cell_length_c     35.697643
_cell_angle_alpha  83.673131
_cell_angle_beta   89.782645
_cell_angle_gamma 91.557619
loop_
_atom_site_label
_atom_site_type_symbol
_atom_site_fract_x
_atom_site_fract_y
_atom_site_fract_z
_atom_type_partial_charge
H0 H 0.14105 0.18917 0.21 0.0
H1 H 0.22902 0.10398 0.21628 0.0
H2 H 0.22641 0.19836 0.12418 0.0
C3 C 0.16636 0.17826 0.19843 0.0
C4 C 0.18151 0.19809 0.16474 0.0
C5 C 0.18319 0.14447 0.21751 0.0
C6 C 0.21619 0.13035 0.20222 0.0
C7 C 0.23166 0.14904 0.16792 0.0
C8 C 0.21408 0.18301 0.14972 0.0
H9 H 0.41289 0.94772 0.64357 0.0
H10 H 0.50197 0.86412 0.64242 0.0
H11 H 0.40215 0.8486 0.57819 0.0
C12 C 0.42542 0.92241 0.63244 0.0
C13 C 0.40408 0.90034 0.60878 0.0
C14 C 0.46093 0.90998 0.64471 0.0
C15 C 0.47526 0.87515 0.63222 0.0
C16 C 0.45438 0.85354 0.60761 0.0
C17 C 0.41912 0.86662 0.59541 0.0
H18 H 0.71937 0.33443 0.91652 0.0
H19 H 0.73226 0.42028 0.81844 0.0
H20 H 0.63953 0.33504 0.82712 0.0
C21 C 0.70957 0.3469 0.88915 0.0
C22 C 0.67731 0.33033 0.87395 0.0
C23 C 0.72953 0.37938 0.86948 0.0
C24 C 0.71678 0.39548 0.8338 0.0
C25 C 0.68405 0.37984 0.81812 0.0
C26 C 0.66468 0.34733 0.83867 0.0
H27 H 0.91992 0.66243 0.47838 0.0
H28 H 1.01498 0.65853 0.40458 0.0
H29 H 0.9272 0.56865 0.40641 0.0
C30 C 0.9359 0.64674 0.45902 0.0
C31 C 0.91986 0.61305 0.44455 0.0
C32 C 0.97053 0.66307 0.445 0.0
C33 C 0.98928 0.64494 0.41688 0.0
C34 C 0.97394 0.6106 0.4031 0.0
C35 C 0.94001 0.59411 0.41816 0.0
H36 H 0.80908 0.91572 0.83128 0.0
H37 H 0.89688 0.83061 0.83479 0.0
H38 H 0.81272 0.8198 0.92194 0.0
C39 C 0.82198 0.88908 0.84474 0.0
C40 C 0.80689 0.86978 0.87893 0.0
C41 C 0.85469 0.87529 0.82872 0.0
C42 C 0.87174 0.84122 0.84695 0.0
C43 C 0.85703 0.82076 0.88057 0.0
C44 C 0.82469 0.83556 0.89641 0.0
H45 H 0.53527 0.15927 0.40414 0.0
H46 H 0.6153 0.0656 0.41732 0.0
H47 H 0.61953 0.15954 0.48943 0.0
C48 C 0.55818 0.14463 0.41932 0.0
C49 C 0.57614 0.16359 0.44773 0.0
C50 C 0.57167 0.10859 0.40854 0.0
C51 C 0.60268 0.09134 0.42749 0.0
C52 C 0.62026 0.10944 0.45661 0.0
C53 C 0.60604 0.145 0.46722 0.0
H54 H 0.31568 0.69341 0.12786 0.0
H55 H 0.30584 0.60204 0.22218 0.0
H56 H 0.39962 0.68568 0.21353 0.0
C57 C 0.32686 0.67856 0.15373 0.0
C58 C 0.35958 0.69409 0.16893 0.0
C59 C 0.30759 0.64488 0.17232 0.0
C60 C 0.321 0.62735 0.20731 0.0
C61 C 0.35388 0.64247 0.22303 0.0
C62 C 0.37329 0.67507 0.20288 0.0
H63 H 0.03372 0.37294 0.64215 0.0
H64 H 0.1001 0.36252 0.54326 0.0
H65 H 0.12313 0.45831 0.61068 0.0
C66 C 0.05516 0.38513 0.62226 0.0
C67 C 0.07689 0.41883 0.62977 0.0
C68 C 0.06287 0.36523 0.59053 0.0
C69 C 0.09262 0.37925 0.56635 0.0
C70 C 0.11514 0.41223 0.57397 0.0
C71 C 0.10574 0.43297 0.60453 0.0
Co72 Co 0.98763 0.0185 0.50705 0.0
C73 C 0.01674 0.94217 0.50645 0.0
Co74 Co 0.04071 0.00951 0.5369 0.0
C75 C 0.91119 0.03702 0.49357 0.0
C76 C 0.93507 0.0096 0.448 0.0
N77 N 0.94346 0.02322 0.48121 0.0
N78 N 0.88283 0.03198 0.46973 0.0
C79 C 0.89763 0.01479 0.44093 0.0
H80 H 0.90819 0.04883 0.52042 0.0
H81 H 0.95464 0.99557 0.43073 0.0
C82 C 1.01126 0.08593 0.5375 0.0
N83 N 0.08441 1.00456 0.56354 0.0
C84 C 0.11593 0.98606 0.55543 0.0
C85 C 0.09071 0.01807 0.59721 0.0
N86 N 0.14153 0.98723 0.58296 0.0
C87 C 0.12578 0.00747 0.60922 0.0
C88 C 0.05057 0.03793 0.46081 0.0
O89 O 0.98497 0.07236 0.51832 0.0
O90 O 0.03809 0.06344 0.54799 0.0
O91 O 0.06821 0.02728 0.49106 0.0
O92 O 1.01495 0.03657 0.46173 0.0
O93 O 0.04297 0.95529 0.52602 0.0
H94 H 0.07084 0.03422 0.61227 0.0
H95 H 0.11959 0.97118 0.53032 0.0
O96 O 0.99036 0.96504 0.49554 0.0
O97 O 0.96028 1.0001 0.55296 0.0
O98 O 1.01349 0.99184 0.58218 0.0
C99 C 0.97799 0.98982 0.58318 0.0
H100 H 0.88238 1.00621 0.4168 0.0
H101 H 0.13872 0.01428 0.63521 0.0
Co102 Co 0.50512 0.011 0.99695 0.0
C103 C 0.49171 0.94407 0.04799 0.0
Co104 Co 0.53608 0.01314 0.0499 0.0
C105 C 0.4978 0.00853 0.91757 0.0
C106 C 0.44409 1.00673 0.94441 0.0
N107 N 0.4811 0.00926 0.9514 0.0
N108 N 0.4729 1.0052 0.88992 0.0
C109 C 0.43896 1.00435 0.90646 0.0
H110 H 0.52778 0.00979 0.91315 0.0
H111 H 0.42229 1.00546 0.96562 0.0
C112 C 0.54937 0.08018 0.99896 0.0
N113 N 0.56034 0.01491 0.09539 0.0
C114 C 0.54414 0.01683 0.1293 0.0
C115 C 0.59747 0.01567 0.10213 0.0
N116 N 0.56953 0.01902 0.15674 0.0
C117 C 0.6032 0.01804 0.13997 0.0
C118 C 0.57726 0.9782 0.99655 0.0
O119 O 0.52608 0.06233 0.97929 0.0
O120 O 0.55807 0.06379 0.03146 0.0
O121 O 0.57808 0.98696 0.03028 0.0
O122 O 0.54795 0.98589 0.97737 0.0
O123 O 0.51408 0.96264 0.06804 0.0
H124 H 0.61905 0.01554 0.08084 0.0
H125 H 0.51424 0.01701 0.13396 0.0
O126 O 0.48412 0.95963 0.01489 0.0
O127 O 0.46264 0.03591 0.01696 0.0
O128 O 0.49362 0.03933 0.06915 0.0
C129 C 0.46381 0.04568 0.05036 0.0
H130 H 0.41255 1.00028 0.89246 0.0
H131 H 0.62992 0.02066 0.15378 0.0
Co132 Co 0.54261 0.52329 0.50853 0.0
C133 C 0.48012 0.53129 0.46138 0.0
Co134 Co 0.48977 0.49895 0.53527 0.0
C135 C 0.62169 0.53913 0.49104 0.0
C136 C 0.5854 0.5807 0.46061 0.0
N137 N 0.58522 0.54756 0.48572 0.0
N138 N 0.64433 0.56554 0.46985 0.0
C139 C 0.62158 0.5916 0.45064 0.0
H140 H 0.63143 0.51426 0.51003 0.0
H141 H 0.5608 0.59662 0.45079 0.0
C142 C 0.5524 0.49054 0.58227 0.0
N143 N 0.44664 0.47495 0.55745 0.0
C144 C 0.41072 0.48251 0.54825 0.0
C145 C 0.44484 0.44117 0.58169 0.0
N146 N 0.38675 0.45433 0.56512 0.0
C147 C 0.40812 0.42846 0.58646 0.0
C148 C 0.53033 0.44472 0.49855 0.0
O149 O 0.5696 0.50901 0.55402 0.0
O150 O 0.51744 0.48328 0.57998 0.0
O151 O 0.50077 0.45017 0.51689 0.0
O152 O 0.55412 0.47345 0.49151 0.0
O153 O 0.46276 0.51447 0.49015 0.0
H154 H 0.4688 0.42537 0.59341 0.0
H155 H 0.40246 0.50666 0.52761 0.0
O156 O 0.51521 0.53745 0.46331 0.0
O157 O 0.53078 0.57244 0.52544 0.0
O158 O 0.47893 0.54847 0.55359 0.0
C159 C 0.50182 0.57767 0.54473 0.0
H160 H 0.63055 0.61739 0.43152 0.0
H161 H 0.3981 0.40147 0.60327 0.0
Co162 Co 0.03651 0.50823 0.99289 0.0
C163 C 0.96475 0.47435 0.99087 0.0
Co164 Co 1.00499 0.50947 0.04586 0.0
C165 C 0.04993 0.50781 0.91294 0.0
C166 C 0.10023 0.50326 0.9453 0.0
N167 N 0.06299 0.50741 0.94842 0.0
N168 N 0.07759 0.50393 0.88784 0.0
C169 C 0.10928 0.50122 0.90818 0.0
H170 H 0.02064 0.51019 0.90578 0.0
H171 H 0.11946 0.50045 0.9687 0.0
C172 C 0.07679 0.54362 0.04761 0.0
N173 N 0.97938 0.50914 0.09113 0.0
C174 C 0.98638 0.53263 0.11878 0.0
C175 C 0.95503 0.48053 0.10657 0.0
N176 N 0.96828 0.51922 0.15111 0.0
C177 C 0.94818 0.48663 0.14342 0.0
C178 C 0.04822 0.44132 0.04447 0.0
O179 O 0.07781 0.53561 1.0137 0.0
O180 O 0.04722 0.53484 0.0668 0.0
O181 O 0.02479 0.45854 0.06368 0.0
O182 O 0.0573 0.45773 1.01176 0.0
O183 O 0.96303 0.48403 0.02427 0.0
H184 H 0.94484 0.45529 0.09279 0.0
H185 H 1.00658 0.55735 0.11619 0.0
O186 O 0.9951 0.48109 0.97234 0.0
O187 O 0.01544 0.55856 0.9744 0.0
O188 O 0.98535 0.5606 0.02786 0.0
C189 C 0.99313 0.57637 0.99452 0.0
H190 H 0.13685 0.49619 0.89734 0.0
H191 H 0.93108 0.46749 0.16342 0.0
H192 H 0.21681 0.11525 0.28443 0.0
H193 H 0.02055 0.0612 0.39161 0.0
H194 H 0.10866 0.12761 0.23204 0.0
H195 H 0.12688 0.0461 0.44736 0.0
H196 H 0.05333 0.08402 0.33282 0.0
H197 H 0.1857 0.08754 0.34361 0.0
C198 C 0.18661 0.11182 0.28519 0.0
C199 C 0.16542 0.12428 0.2531 0.0
C200 C 0.06964 0.0757 0.35782 0.0
C201 C 0.12951 0.09284 0.321 0.0
C202 C 0.05085 0.06264 0.39158 0.0
C203 C 0.07084 0.0517 0.42477 0.0
C204 C 0.10897 0.07805 0.3568 0.0
C205 C 0.11019 0.05425 0.4226 0.0
C206 C 0.16883 0.09622 0.3191 0.0
C207 C 0.12627 0.11925 0.25606 0.0
N208 N 0.12792 0.06719 0.3893 0.0
N209 N 0.10975 0.10418 0.28921 0.0
H210 H 0.46567 0.99036 0.65225 0.0
H211 H 0.52649 0.95781 0.86754 0.0
H212 H 0.49669 0.87515 0.7074 0.0
H213 H 0.43789 0.03512 0.82653 0.0
H214 H 0.53622 0.94001 0.80339 0.0
H215 H 0.47766 0.01975 0.71093 0.0
C216 C 0.47587 0.97142 0.67637 0.0
C217 C 0.47912 0.92997 0.67521 0.0
C218 C 0.51516 0.96141 0.80844 0.0
C219 C 0.49359 0.96362 0.74179 0.0
C220 C 0.50964 0.97161 0.84481 0.0
C221 C 0.48116 0.9977 0.85205 0.0
C222 C 0.49254 0.97813 0.77917 0.0
C223 C 0.4598 0.01456 0.82191 0.0
C224 C 0.48267 0.98825 0.70972 0.0
C225 C 0.49354 0.90715 0.70696 0.0
N226 N 0.46588 1.00443 0.78664 0.0
N227 N 0.49972 0.92419 0.73924 0.0
H228 H 0.68592 0.45912 0.78654 0.0
H229 H 0.533 0.42716 0.63356 0.0
H230 H 0.64819 0.34091 0.76375 0.0
H231 H 0.61869 0.5194 0.60928 0.0
H232 H 0.56792 0.40073 0.68923 0.0
H233 H 0.65626 0.48707 0.7279 0.0
C234 C 0.67184 0.4389 0.76926 0.0
C235 C 0.6692 0.39745 0.78085 0.0
C236 C 0.57903 0.42679 0.67172 0.0
C237 C 0.63421 0.42969 0.71435 0.0
C238 C 0.55903 0.44206 0.64011 0.0
C239 C 0.57296 0.47555 0.61675 0.0
C240 C 0.61282 0.44563 0.6807 0.0
C241 C 0.60704 0.49344 0.62651 0.0
C242 C 0.65474 0.45502 0.7359 0.0
C243 C 0.65005 0.3731 0.75708 0.0
N244 N 0.6257 0.4785 0.65801 0.0
N245 N 0.63289 0.38961 0.72543 0.0
H246 H 0.98473 0.53335 0.38877 0.0
H247 H 0.98729 0.59458 0.16601 0.0
H248 H 0.99322 0.65557 0.33717 0.0
H249 H 0.96477 0.47468 0.2193 0.0
H250 H 0.99979 0.61652 0.22799 0.0
H251 H 0.9899 0.51026 0.32642 0.0
C252 C 0.98868 0.55527 0.36435 0.0
C253 C 0.98816 0.59639 0.36805 0.0
C254 C 0.99223 0.58538 0.22607 0.0
C255 C 0.99326 0.57034 0.29665 0.0
C256 C 0.98506 0.57287 0.19072 0.0
C257 C 0.97455 0.53284 0.18749 0.0
C258 C 0.98902 0.55762 0.25842 0.0
C259 C 0.97197 0.50598 0.22048 0.0
C260 C 0.99133 0.54213 0.32876 0.0
C261 C 0.9936 0.62358 0.33559 0.0
N262 N 0.97907 0.51888 0.25453 0.0
N263 N 0.99529 0.61008 0.30114 0.0
H264 H 0.24528 0.14126 0.09317 0.0
H265 H 0.45433 0.06225 0.12364 0.0
H266 H 0.29622 0.12037 0.20265 0.0
H267 H 0.39652 0.06673 0.01747 0.0
H268 H 0.39834 0.08674 0.15247 0.0
H269 H 0.30152 0.11728 0.06474 0.0
C270 C 0.26833 0.13181 0.11131 0.0
C271 C 0.26579 0.13314 0.15051 0.0
C272 C 0.39789 0.08243 0.12286 0.0
C273 C 0.33081 0.10522 0.1178 0.0
C274 C 0.42998 0.06855 0.10626 0.0
C275 C 0.43039 0.06237 0.0679 0.0
C276 C 0.36576 0.09054 0.10104 0.0
C277 C 0.39772 0.07101 0.04706 0.0
C278 C 0.30047 0.11787 0.09499 0.0
C279 C 0.29659 0.1197 0.17241 0.0
N280 N 0.36692 0.08464 0.06382 0.0
N281 N 0.32774 0.10655 0.15579 0.0
H282 H 0.3533 0.90714 0.66362 0.0
H283 H 0.1872 0.97514 0.52446 0.0
H284 H 0.36417 0.9116 0.54286 0.0
H285 H 0.17836 0.9591 0.64578 0.0
H286 H 0.2506 0.94893 0.5292 0.0
H287 H 0.28783 0.92356 0.65648 0.0
C288 C 0.34175 0.91182 0.6355 0.0
C289 C 0.36411 0.90885 0.60371 0.0
C290 C 0.23462 0.95097 0.55471 0.0
C291 C 0.289 0.92744 0.59518 0.0
C292 C 0.19847 0.96576 0.55202 0.0
C293 C 0.17777 0.96979 0.58482 0.0
C294 C 0.24991 0.94017 0.59045 0.0
C295 C 0.19365 0.95742 0.61983 0.0
C296 C 0.30431 0.92095 0.6314 0.0
C297 C 0.3477 0.91406 0.56797 0.0
N298 N 0.22878 0.94338 0.6217 0.0
N299 N 0.31102 0.92356 0.56457 0.0
H300 H 0.73915 0.39552 0.94238 0.0
H301 H 0.95688 0.45689 0.91786 0.0
H302 H 0.79793 0.40051 0.83615 0.0
H303 H 0.89542 0.45608 0.02227 0.0
H304 H 0.89974 0.4351 0.88754 0.0
H305 H 0.79645 0.41739 0.97184 0.0
C306 C 0.76416 0.40123 0.92521 0.0
C307 C 0.76372 0.39587 0.88673 0.0
C308 C 0.89879 0.43958 0.9171 0.0
C309 C 0.82976 0.42117 0.92044 0.0
C310 C 0.93147 0.45185 0.93452 0.0
C311 C 0.93105 0.45832 0.97277 0.0
C312 C 0.86534 0.43364 0.93801 0.0
C313 C 0.89718 0.45147 0.99278 0.0
C314 C 0.79691 0.41384 0.94207 0.0
C315 C 0.79689 0.40445 0.86582 0.0
N316 N 0.86578 0.43959 0.97518 0.0
N317 N 0.8286 0.41646 0.88297 0.0
H318 H 0.86897 0.60198 0.39056 0.0
H319 H 0.69313 0.54922 0.52742 0.0
H320 H 0.87881 0.60131 0.51108 0.0
H321 H 0.68673 0.58592 0.40814 0.0
H322 H 0.76182 0.5581 0.52347 0.0
H323 H 0.80282 0.58572 0.39808 0.0
C324 C 0.85723 0.59787 0.41879 0.0
C325 C 0.87958 0.60241 0.45033 0.0
C326 C 0.74526 0.56403 0.49824 0.0
C327 C 0.80308 0.58459 0.45911 0.0
C328 C 0.70628 0.55866 0.50042 0.0
C329 C 0.68447 0.56707 0.46804 0.0
C330 C 0.76219 0.57724 0.46333 0.0
C331 C 0.70257 0.57958 0.43377 0.0
C332 C 0.81928 0.58891 0.42303 0.0
C333 C 0.8625 0.59791 0.48609 0.0
N334 N 0.74028 0.58425 0.43233 0.0
N335 N 0.82509 0.58911 0.48959 0.0
H336 H 0.17396 0.22157 0.08828 0.0
H337 H 0.04315 0.40581 0.1172 0.0
H338 H 0.14656 0.25822 0.19707 0.0
H339 H 0.09534 0.39217 1.01035 0.0
H340 H 0.07585 0.34722 0.14559 0.0
H341 H 0.14172 0.28005 0.05817 0.0
C342 C 0.16147 0.24189 0.10594 0.0
C343 C 0.16298 0.23441 0.1455 0.0
C344 C 0.08015 0.35693 0.11591 0.0
C345 C 0.12517 0.30124 0.11092 0.0
C346 C 0.06128 0.39035 0.09956 0.0
C347 C 0.06641 0.40411 0.06122 0.0
C348 C 0.10422 0.33658 0.09383 0.0
C349 C 0.09049 0.38274 0.03999 0.0
C350 C 0.14283 0.27521 0.08863 0.0
C351 C 0.1456 0.26184 0.1666 0.0
N352 N 0.10842 0.35004 0.05652 0.0
N353 N 0.12738 0.2937 0.14912 0.0
H354 H 0.60128 0.31332 0.87781 0.0
H355 H 0.61452 0.11497 0.02124 0.0
H356 H 0.70694 0.26611 0.91763 0.0
H357 H 0.52488 0.1331 0.94109 0.0
H358 H 0.6452 0.17719 0.99256 0.0
H359 H 0.56942 0.25358 0.90945 0.0
C360 C 0.61792 0.29048 0.89299 0.0
C361 C 0.6571 0.29494 0.89464 0.0
C362 C 0.61874 0.16755 0.98141 0.0
C363 C 0.62036 0.22693 0.93196 0.0
C364 C 0.60113 0.13221 0.99785 0.0
C365 C 0.56715 0.11881 0.98344 0.0
C366 C 0.60191 0.18999 0.95083 0.0
C367 C 0.55115 0.14224 0.95295 0.0
C368 C 0.59958 0.25649 0.91125 0.0
C369 C 0.67676 0.26456 0.91586 0.0
N370 N 0.56859 0.17679 0.93774 0.0
N371 N 0.65819 0.23196 0.93371 0.0
H372 H 0.98069 0.68692 0.51548 0.0
H373 H 0.98873 0.91629 0.4428 0.0
H374 H 0.98947 0.7292 0.39715 0.0
H375 H 0.04243 0.87438 0.54721 0.0
H376 H 0.98277 0.84724 0.4277 0.0
H377 H 0.99775 0.75488 0.53052 0.0
C378 C 0.9866 0.71043 0.49277 0.0
C379 C 0.98389 0.70258 0.45507 0.0
C380 C 0.99618 0.85315 0.45376 0.0
C381 C 1.00257 0.77984 0.47192 0.0
C382 C 0.99946 0.89246 0.46244 0.0
C383 C 0.01608 0.90086 0.49627 0.0
C384 C 1.00871 0.82187 0.47953 0.0
C385 C 0.02963 0.86898 0.52074 0.0
C386 C 0.99644 0.74897 0.50133 0.0
C387 C 0.99167 0.73395 0.42659 0.0
N388 N 0.02512 0.83063 0.51216 0.0
N389 N 1.00016 0.77132 0.43559 0.0
H390 H 0.47379 0.83175 0.5392 0.0
H391 H 0.45913 0.5986 0.60324 0.0
H392 H 0.45967 0.78609 0.65615 0.0
H393 H 0.52914 0.64826 0.50989 0.0
H394 H 0.45003 0.66684 0.61994 0.0
H395 H 0.48625 0.76363 0.52438 0.0
C396 C 0.4739 0.80732 0.56171 0.0
C397 C 0.46635 0.81413 0.5989 0.0
C398 C 0.46745 0.66254 0.59591 0.0
C399 C 0.47911 0.73671 0.58226 0.0
C400 C 0.47242 0.62382 0.58628 0.0
C401 C 0.49498 0.61794 0.55528 0.0
C402 C 0.48447 0.69531 0.57381 0.0
C403 C 0.51173 0.65151 0.53419 0.0
C404 C 0.48083 0.76865 0.55333 0.0
C405 C 0.46602 0.78174 0.62722 0.0
N406 N 0.5059 0.68882 0.54367 0.0
N407 N 0.47193 0.74415 0.61827 0.0
H408 H 0.92887 0.89325 0.81384 0.0
H409 H 0.90186 0.97987 0.59684 0.0
H410 H 0.82016 0.90533 0.76259 0.0
H411 H 1.00865 0.96666 0.65203 0.0
H412 H 0.87072 0.95481 0.65671 0.0
H413 H 0.95765 0.92237 0.75478 0.0
C414 C 0.91096 0.90199 0.79011 0.0
C415 C 0.87194 0.8963 0.79329 0.0
C416 C 0.90095 0.9575 0.65568 0.0
C417 C 0.90504 0.93024 0.7249 0.0
C418 C 0.91878 0.9718 0.62147 0.0
C419 C 0.95804 0.97536 0.61918 0.0
C420 C 0.92248 0.94664 0.68794 0.0
C421 C 0.97839 0.96444 0.65218 0.0
C422 C 0.92748 0.91883 0.75629 0.0
C423 C 0.85031 0.90918 0.76159 0.0
N424 N 0.96045 0.95061 0.68493 0.0
N425 N 0.86713 0.92526 0.7287 0.0
H426 H 0.54809 0.14998 0.34231 0.0
H427 H 0.60386 0.98638 0.21949 0.0
H428 H 0.56508 0.02966 0.39483 0.0
H429 H 0.51896 0.0692 0.1801 0.0
H430 H 0.59414 1.00381 0.28386 0.0
H431 H 0.53878 0.12337 0.2822 0.0
C432 C 0.54889 0.11788 0.34163 0.0
C433 C 0.55804 0.09215 0.37386 0.0
C434 C 0.57725 0.01763 0.26116 0.0
C435 C 0.54892 0.06196 0.30458 0.0
C436 C 0.583 0.00795 0.22461 0.0
C437 C 0.56221 0.02649 0.1948 0.0
C438 C 0.55134 0.04687 0.26748 0.0
C439 C 0.53533 0.05417 0.20256 0.0
C440 C 0.54385 0.1028 0.30711 0.0
C441 C 0.55926 0.05083 0.3706 0.0
N442 N 0.53111 0.06415 0.23814 0.0
N443 N 0.55574 0.03711 0.33638 0.0
H444 H 0.38862 0.68221 0.27708 0.0
H445 H 0.41349 0.50216 0.43569 0.0
H446 H 0.35204 0.56327 0.2554 0.0
H447 H 0.50022 0.59255 0.40812 0.0
H448 H 0.38005 0.52763 0.37803 0.0
H449 H 0.4185 0.65358 0.33457 0.0
C450 C 0.38693 0.65002 0.28413 0.0
C451 C 0.36849 0.62512 0.26042 0.0
C452 C 0.40646 0.54163 0.38473 0.0
C453 C 0.40162 0.59241 0.32758 0.0
C454 C 0.42546 0.5273 0.41754 0.0
C455 C 0.45974 0.54523 0.42657 0.0
C456 C 0.42137 0.57481 0.36161 0.0
C457 C 0.47403 0.57768 0.40212 0.0
C458 C 0.40386 0.63381 0.3172 0.0
C459 C 0.36592 0.58377 0.27251 0.0
N460 N 0.45458 0.59171 0.37103 0.0
N461 N 0.38236 0.56865 0.30529 0.0
H462 H 1.01305 0.43175 0.67045 0.0
H463 H 0.13001 0.52217 0.83349 0.0
H464 H 0.13361 0.44306 0.67378 0.0
H465 H 0.0174 0.47442 0.85198 0.0
H466 H 0.12723 0.50584 0.76878 0.0
H467 H 1.01014 0.45776 0.73219 0.0
C468 C 0.03881 0.4399 0.6839 0.0
C469 C 0.07358 0.43578 0.66643 0.0
C470 C 0.10301 0.49909 0.78691 0.0
C471 C 0.07036 0.46589 0.73644 0.0
C472 C 0.10464 0.50834 0.8239 0.0
C473 C 0.07418 0.49901 0.84842 0.0
C474 C 0.07067 0.48032 0.77414 0.0
C475 C 0.04156 0.48211 0.83407 0.0
C476 C 0.03709 0.45484 0.71899 0.0
C477 C 0.10605 0.44684 0.68526 0.0
N478 N 0.04076 0.47291 0.79787 0.0
N479 N 0.10359 0.46141 0.71902 0.0
H480 H 0.7932 0.87593 0.9541 0.0
H481 H 0.58682 0.96239 0.92315 0.0
H482 H 0.74269 0.89969 0.84466 0.0
H483 H 0.64367 0.9545 0.02998 0.0
H484 H 0.64204 0.9361 0.89462 0.0
H485 H 0.73751 0.90102 0.98277 0.0
C486 C 0.77035 0.88619 0.93602 0.0
C487 C 0.77289 0.88547 0.89674 0.0
C488 C 0.64247 0.94005 0.92432 0.0
C489 C 0.70861 0.91469 0.92969 0.0
C490 C 0.61082 0.955 0.94073 0.0
C491 C 0.61037 0.96076 0.97918 0.0
C492 C 0.67413 0.93043 0.9464 0.0
C493 C 0.64256 0.95063 1.0003 0.0
C494 C 0.73856 0.90078 0.95248 0.0
C495 C 0.74237 0.89992 0.87495 0.0
N496 N 0.67296 0.93598 0.9837 0.0
N497 N 0.71161 0.91372 0.89167 0.0
H498 H 0.64272 0.03158 0.47153 0.0
H499 H 0.85633 0.09454 0.50211 0.0
H500 H 0.68194 0.15418 0.47356 0.0
H501 H 0.82202 0.98939 0.45054 0.0
H502 H 0.79041 0.11057 0.50946 0.0
H503 H 0.70692 0.00967 0.48214 0.0
C504 C 0.66461 0.05383 0.47477 0.0
C505 C 0.65689 0.09486 0.47102 0.0
C506 C 0.79739 0.08382 0.49683 0.0
C507 C 0.72995 0.06989 0.48376 0.0
C508 C 0.83484 0.0747 0.49268 0.0
C509 C 0.84438 0.04095 0.47525 0.0
C510 C 0.76945 0.05866 0.48393 0.0
C511 C 0.81566 0.01611 0.46342 0.0
C512 C 0.70113 0.04128 0.48088 0.0
C513 C 0.68627 0.12224 0.47645 0.0
N514 N 0.77937 0.0255 0.46792 0.0
N515 N 0.72157 0.10927 0.48219 0.0
H516 H 0.24076 0.61892 0.20667 0.0
H517 H 0.14449 0.56662 1.01458 0.0
H518 H 0.29614 0.63417 0.09823 0.0
H519 H 0.08579 0.55864 0.12114 0.0
H520 H 0.20045 0.59077 0.0451 0.0
H521 H 0.18424 0.595 0.17651 0.0
C522 C 0.24115 0.61697 0.17659 0.0
C523 C 0.27329 0.62873 0.15498 0.0
C524 C 0.17531 0.58387 0.06182 0.0
C525 C 0.2085 0.60172 0.12016 0.0
C526 C 0.14327 0.57015 0.04436 0.0
C527 C 0.1103 0.56059 0.06526 0.0
C528 C 0.17457 0.58796 0.10059 0.0
C529 C 0.11052 0.5657 0.10384 0.0
C530 C 0.20877 0.60358 0.15933 0.0
C531 C 0.27192 0.62598 0.11599 0.0
N532 N 0.14214 0.57889 0.12025 0.0
N533 N 0.24017 0.61281 0.09991 0.0
H534 H 0.16518 0.3566 0.55741 0.0
H535 H 0.33737 0.5133 0.54715 0.0
H536 H 0.1518 0.48446 0.55198 0.0
H537 H 0.34646 0.38489 0.56554 0.0
H538 H 0.27001 0.50446 0.53671 0.0
H539 H 0.23171 0.36788 0.54553 0.0
C540 C 0.17593 0.38718 0.55255 0.0
C541 C 0.15277 0.41962 0.55629 0.0
C542 C 0.28685 0.47825 0.54277 0.0
C543 C 0.22961 0.43265 0.54413 0.0
C544 C 0.32522 0.48329 0.54873 0.0
C545 C 0.34738 0.4498 0.55788 0.0
C546 C 0.27068 0.43943 0.54573 0.0
C547 C 0.3303 0.41156 0.55955 0.0
C548 C 0.21419 0.39357 0.5463 0.0
C549 C 0.16874 0.45852 0.55015 0.0
N550 N 0.293 0.40745 0.55372 0.0
N551 N 0.20632 0.46395 0.54507 0.0
H552 H 0.86625 0.79591 0.95657 0.0
H553 H 0.99463 0.6112 0.92129 0.0
H554 H 0.89095 0.76128 0.84639 0.0
H555 H 0.94874 0.62643 0.0306 0.0
H556 H 0.96121 0.67 0.89435 0.0
H557 H 0.89931 0.73718 0.98498 0.0
C558 C 0.87832 0.77597 0.93826 0.0
C559 C 0.87583 0.78412 0.89882 0.0
C560 C 0.95847 0.66058 0.92426 0.0
C561 C 0.91454 0.71693 0.93141 0.0
C562 C 0.97775 0.62704 0.93975 0.0
C563 C 0.97461 0.61367 0.97837 0.0
C564 C 0.93593 0.6814 0.94745 0.0
C565 C 0.95205 0.63552 1.0007 0.0
C566 C 0.89744 0.74251 0.95458 0.0
C567 C 0.89267 0.75712 0.87681 0.0
N568 N 0.93366 0.66826 0.98497 0.0
N569 N 0.91133 0.72508 0.89333 0.0
H570 H 0.39256 0.75547 0.20252 0.0
H571 H 0.44744 0.89208 1.01194 0.0
H572 H 0.37069 0.71733 0.09285 0.0
H573 H 0.49398 0.90905 0.12066 0.0
H574 H 0.41531 0.83056 0.04041 0.0
H575 H 0.4257 0.81473 0.17241 0.0
C576 C 0.39497 0.75929 0.17208 0.0
C577 C 0.37908 0.7309 0.1503 0.0
C578 C 0.43272 0.84771 0.0579 0.0
C579 C 0.41655 0.79965 0.11544 0.0
C580 C 0.45104 0.88282 0.04171 0.0
C581 C 0.47345 0.90579 0.06394 0.0
C582 C 0.43651 0.83581 0.09665 0.0
C583 C 0.47708 0.89233 0.10237 0.0
C584 C 0.41379 0.79336 0.15488 0.0
C585 C 0.38224 0.73842 0.11084 0.0
N586 N 0.45866 0.85843 0.11748 0.0
N587 N 0.40059 0.77208 0.09467 0.0
H588 H 0.05401 0.30082 0.64356 0.0
H589 H 0.97626 0.15082 0.50124 0.0
H590 H 0.03201 0.33991 0.52675 0.0
H591 H 0.04631 0.11519 0.59657 0.0
H592 H 0.98104 0.22045 0.51647 0.0
H593 H 0.03435 0.23264 0.63301 0.0
C594 C 0.04411 0.29523 0.61592 0.0
C595 C 0.04466 0.32595 0.58593 0.0
C596 C 0.99502 0.1972 0.53414 0.0
C597 C 0.0226 0.24809 0.57363 0.0
C598 C 0.99225 0.15759 0.52558 0.0
C599 C 1.01124 0.12739 0.54749 0.0
C600 C 0.01623 0.2063 0.56528 0.0
C601 C 0.0316 0.13768 0.5787 0.0
C602 C 0.03327 0.25629 0.60985 0.0
C603 C 0.03215 0.31691 0.55052 0.0
N604 N 0.03353 0.17625 0.58667 0.0
N605 N 0.02177 0.27868 0.54525 0.0
H606 H 0.50754 0.19645 0.45646 0.0
H607 H 0.59472 0.41668 0.47017 0.0
H608 H 0.62578 0.22581 0.45029 0.0
H609 H 0.48038 0.38189 0.50007 0.0
H610 H 0.60507 0.34859 0.45477 0.0
H611 H 0.49541 0.26649 0.465 0.0
C612 C 0.53085 0.21766 0.45695 0.0
C613 C 0.56768 0.20535 0.45333 0.0
C614 C 0.57769 0.35598 0.46458 0.0
C615 C 0.5542 0.28509 0.46263 0.0
C616 C 0.57176 0.39483 0.47323 0.0
C617 C 0.53676 0.40482 0.48668 0.0
C618 C 0.54832 0.32713 0.46923 0.0
C619 C 0.50794 0.37537 0.4901 0.0
C620 C 0.524 0.25749 0.46185 0.0
C621 C 0.59699 0.23394 0.45388 0.0
N622 N 0.51439 0.33782 0.48152 0.0
N623 N 0.58963 0.27246 0.45847 0.0
loop_
_geom_bond_atom_site_label_1
_geom_bond_atom_site_label_2
_geom_bond_distance
_geom_bond_site_symmetry_2
_ccdc_geom_bond_type
H0 C3 0.931 . S
H1 C6 0.928 . S
H2 C8 0.930 . S
C3 H0 0.931 . S
C3 C4 1.413 . S
C3 C5 1.360 . S
C4 C3 1.413 . S
C4 C8 1.429 . S
C5 C3 1.360 . S
C5 C6 1.372 . S
C6 H1 0.928 . S
C6 C5 1.372 . S
C6 C7 1.404 . S
C7 C6 1.404 . S
C7 C8 1.391 . S
C8 H2 0.930 . S
C8 C4 1.429 . S
C8 C7 1.391 . S
H9 C12 0.931 . S
H10 C15 0.928 . S
H11 C17 0.930 . S
C12 H9 0.931 . S
C12 C13 1.413 . S
C12 C14 1.360 . S
C13 C12 1.413 . S
C13 C17 1.429 . S
C14 C12 1.360 . S
C14 C15 1.372 . S
C15 H10 0.928 . S
C15 C14 1.372 . S
C15 C16 1.404 . S
C16 C15 1.404 . S
C16 C17 1.391 . S
C17 H11 0.930 . S
C17 C13 1.429 . S
C17 C16 1.391 . S
H18 C21 0.931 . S
H19 C24 0.928 . S
H20 C26 0.930 . S
C21 H18 0.931 . S
C21 C22 1.413 . S
C21 C23 1.360 . S
C22 C21 1.413 . S
C22 C26 1.429 . S
C23 C21 1.360 . S
C23 C24 1.372 . S
C24 H19 0.928 . S
C24 C23 1.372 . S
C24 C25 1.404 . S
C25 C24 1.404 . S
C25 C26 1.391 . S
C26 H20 0.930 . S
C26 C22 1.429 . S
C26 C25 1.391 . S
H27 C30 0.931 . S
H28 C33 0.928 . S
H29 C35 0.930 . S
C30 H27 0.931 . S
C30 C31 1.413 . S
C30 C32 1.360 . S
C31 C30 1.413 . S
C31 C35 1.429 . S
C32 C30 1.360 . S
C32 C33 1.372 . S
C33 H28 0.928 . S
C33 C32 1.372 . S
C33 C34 1.404 . S
C34 C33 1.404 . S
C34 C35 1.391 . S
C35 H29 0.930 . S
C35 C31 1.429 . S
C35 C34 1.391 . S
H36 C39 0.931 . S
H37 C42 0.928 . S
H38 C44 0.930 . S
C39 H36 0.931 . S
C39 C40 1.413 . S
C39 C41 1.360 . S
C40 C39 1.413 . S
C40 C44 1.429 . S
C41 C39 1.360 . S
C41 C42 1.372 . S
C42 H37 0.928 . S
C42 C41 1.372 . S
C42 C43 1.404 . S
C43 C42 1.404 . S
C43 C44 1.391 . S
C44 H38 0.930 . S
C44 C40 1.429 . S
C44 C43 1.391 . S
H45 C48 0.931 . S
H46 C51 0.928 . S
H47 C53 0.930 . S
C48 H45 0.931 . S
C48 C49 1.413 . S
C48 C50 1.360 . S
C49 C48 1.413 . S
C49 C53 1.429 . S
C50 C48 1.360 . S
C50 C51 1.372 . S
C51 H46 0.928 . S
C51 C50 1.372 . S
C51 C52 1.404 . S
C52 C51 1.404 . S
C52 C53 1.391 . S
C53 H47 0.930 . S
C53 C49 1.429 . S
C53 C52 1.391 . S
H54 C57 0.931 . S
H55 C60 0.928 . S
H56 C62 0.930 . S
C57 H54 0.931 . S
C57 C58 1.413 . S
C57 C59 1.360 . S
C58 C57 1.413 . S
C58 C62 1.429 . S
C59 C57 1.360 . S
C59 C60 1.372 . S
C60 H55 0.928 . S
C60 C59 1.372 . S
C60 C61 1.404 . S
C61 C60 1.404 . S
C61 C62 1.391 . S
C62 H56 0.930 . S
C62 C58 1.429 . S
C62 C61 1.391 . S
H63 C66 0.931 . S
H64 C69 0.928 . S
H65 C71 0.930 . S
C66 H63 0.931 . S
C66 C67 1.413 . S
C66 C68 1.360 . S
C67 C66 1.413 . S
C67 C71 1.429 . S
C68 C66 1.360 . S
C68 C69 1.372 . S
C69 H64 0.928 . S
C69 C68 1.372 . S
C69 C70 1.404 . S
C70 C69 1.404 . S
C70 C71 1.391 . S
C71 H65 0.930 . S
C71 C67 1.429 . S
C71 C70 1.391 . S
Co72 N77 2.057 . S
Co72 O89 2.021 . S
Co72 O92 2.062 . S
Co72 O96 2.117 1_545 S
Co72 O97 2.020 1_545 S
C73 O93 1.259 1_655 S
C73 O96 1.258 . S
Co74 N83 2.057 . S
Co74 O90 2.117 1_565 S
Co74 O91 2.020 1_565 S
Co74 O93 2.021 . S
Co74 O98 2.062 . S
C75 N77 1.316 . S
C75 N78 1.347 . S
C75 H80 0.931 . S
C76 N77 1.375 1_565 S
C76 C79 1.350 1_565 S
C76 H81 0.930 . S
N77 Co72 2.057 . S
N77 C75 1.316 . S
N77 C76 1.375 1_545 S
N78 C75 1.347 . S
N78 C79 1.373 . S
C79 C76 1.350 1_545 S
C79 N78 1.373 . S
C79 H100 0.931 . S
H80 C75 0.931 . S
H81 C76 0.930 . S
C82 O89 1.259 1_455 S
C82 O90 1.258 . S
N83 Co74 2.057 . S
N83 C84 1.316 . S
N83 C85 1.375 1_565 S
C84 N83 1.316 . S
C84 N86 1.347 . S
C84 H95 0.931 . S
C85 N83 1.375 1_545 S
C85 C87 1.350 1_545 S
C85 H94 0.930 . S
N86 C84 1.347 . S
N86 C87 1.373 . S
C87 C85 1.350 1_565 S
C87 N86 1.373 . S
C87 H101 0.931 1_565 S
C88 O91 1.256 . S
C88 O92 1.255 1_455 S
O89 Co72 2.021 . S
O89 C82 1.259 1_655 S
O90 Co74 2.117 1_545 S
O90 C82 1.258 . S
O91 Co74 2.020 1_545 S
O91 C88 1.256 . S
O92 Co72 2.062 . S
O92 C88 1.255 1_655 S
O93 C73 1.259 1_455 S
O93 Co74 2.021 . S
H94 C85 0.930 . S
H95 C84 0.931 . S
O96 Co72 2.117 1_565 S
O96 C73 1.258 . S
O97 Co72 2.020 1_565 S
O97 C99 1.256 . S
O98 Co74 2.062 . S
O98 C99 1.255 1_455 S
C99 O97 1.256 . S
C99 O98 1.255 1_655 S
H100 C79 0.931 . S
H101 C87 0.931 1_545 S
Co102 N107 2.069 . S
Co102 O119 1.999 1_565 S
Co102 O122 2.070 . S
Co102 O126 2.136 1_556 S
Co102 O127 2.010 1_565 S
C103 O123 1.259 . S
C103 O126 1.258 . S
Co104 N113 2.057 . S
Co104 O120 2.117 . S
Co104 O121 2.020 1_545 S
Co104 O123 2.021 1_545 S
Co104 O128 2.062 . S
C105 N107 1.316 . S
C105 N108 1.347 . S
C105 H110 0.931 1_565 S
C106 N107 1.375 . S
C106 C109 1.350 . S
C106 H111 0.930 . S
N107 Co102 2.069 . S
N107 C105 1.316 . S
N107 C106 1.375 . S
N108 C105 1.347 . S
N108 C109 1.373 . S
C109 C106 1.350 . S
C109 N108 1.373 . S
C109 H130 0.931 . S
H110 C105 0.931 1_545 S
H111 C106 0.930 . S
C112 O119 1.259 . S
C112 O120 1.258 1_556 S
N113 Co104 2.057 . S
N113 C114 1.316 . S
N113 C115 1.375 . S
C114 N113 1.316 . S
C114 N116 1.347 . S
C114 H125 0.909 1_545 S
C115 N113 1.375 . S
C115 C117 1.350 . S
C115 H124 0.930 . S
N116 C114 1.347 . S
N116 C117 1.373 . S
C117 C115 1.350 . S
C117 N116 1.373 . S
C117 H131 0.931 . S
C118 O121 1.256 1_556 S
C118 O122 1.255 . S
O119 Co102 1.999 1_545 S
O119 C112 1.259 . S
O120 Co104 2.117 . S
O120 C112 1.258 1_554 S
O121 Co104 2.020 1_565 S
O121 C118 1.256 1_554 S
O122 Co102 2.070 . S
O122 C118 1.255 . S
O123 C103 1.259 . S
O123 Co104 2.021 1_565 S
H124 C115 0.930 . S
H125 C114 0.909 1_565 S
O126 Co102 2.136 1_554 S
O126 C103 1.258 . S
O127 Co102 2.010 1_545 S
O127 C129 1.256 1_556 S
O128 Co104 2.062 . S
O128 C129 1.255 . S
C129 O127 1.256 1_554 S
C129 O128 1.255 . S
H130 C109 0.931 . S
H131 C117 0.931 . S
Co132 N137 2.057 . S
Co132 O149 2.021 . S
Co132 O152 2.062 . S
Co132 O156 2.117 . S
Co132 O157 2.020 . S
C133 O153 1.259 . S
C133 O156 1.258 . S
Co134 N143 2.057 . S
Co134 O150 2.117 . S
Co134 O151 2.020 . S
Co134 O153 2.021 . S
Co134 O158 2.062 . S
C135 N137 1.316 . S
C135 N138 1.347 . S
C135 H140 0.931 . S
C136 N137 1.375 . S
C136 C139 1.350 . S
C136 H141 0.930 . S
N137 Co132 2.057 . S
N137 C135 1.316 . S
N137 C136 1.375 . S
N138 C135 1.347 . S
N138 C139 1.373 . S
C139 C136 1.350 . S
C139 N138 1.373 . S
C139 H160 0.931 . S
H140 C135 0.931 . S
H141 C136 0.930 . S
C142 O149 1.259 . S
C142 O150 1.258 . S
N143 Co134 2.057 . S
N143 C144 1.316 . S
N143 C145 1.375 . S
C144 N143 1.316 . S
C144 N146 1.347 . S
C144 H155 0.931 . S
C145 N143 1.375 . S
C145 C147 1.350 . S
C145 H154 0.930 . S
N146 C144 1.347 . S
N146 C147 1.373 . S
C147 C145 1.350 . S
C147 N146 1.373 . S
C147 H161 0.931 . S
C148 O151 1.256 . S
C148 O152 1.255 . S
O149 Co132 2.021 . S
O149 C142 1.259 . S
O150 Co134 2.117 . S
O150 C142 1.258 . S
O151 Co134 2.020 . S
O151 C148 1.256 . S
O152 Co132 2.062 . S
O152 C148 1.255 . S
O153 C133 1.259 . S
O153 Co134 2.021 . S
H154 C145 0.930 . S
H155 C144 0.931 . S
O156 Co132 2.117 . S
O156 C133 1.258 . S
O157 Co132 2.020 . S
O157 C159 1.256 . S
O158 Co134 2.062 . S
O158 C159 1.255 . S
C159 O157 1.256 . S
C159 O158 1.255 . S
H160 C139 0.931 . S
H161 C147 0.931 . S
Co162 N167 2.057 . S
Co162 O179 2.021 . S
Co162 O182 2.062 . S
Co162 O186 2.117 1_455 S
Co162 O187 2.020 1_455 S
C163 O183 1.259 1_556 S
C163 O186 1.258 . S
Co164 N173 2.057 . S
Co164 O180 2.117 1_655 S
Co164 O181 2.020 1_655 S
Co164 O183 2.021 . S
Co164 O188 2.062 . S
C165 N167 1.316 . S
C165 N168 1.347 . S
C165 H170 0.931 . S
C166 N167 1.375 1_655 S
C166 C169 1.350 1_655 S
C166 H171 0.930 . S
N167 Co162 2.057 . S
N167 C165 1.316 . S
N167 C166 1.375 1_455 S
N168 C165 1.347 . S
N168 C169 1.373 . S
C169 C166 1.350 1_455 S
C169 N168 1.373 . S
C169 H190 0.931 1_455 S
H170 C165 0.931 . S
H171 C166 0.930 . S
C172 O179 1.259 1_554 S
C172 O180 1.258 . S
N173 Co164 2.057 . S
N173 C174 1.316 . S
N173 C175 1.375 1_655 S
C174 N173 1.316 . S
C174 N176 1.347 . S
C174 H185 0.931 . S
C175 N173 1.375 1_455 S
C175 C177 1.350 1_455 S
C175 H184 0.930 . S
N176 C174 1.347 . S
N176 C177 1.373 . S
C177 C175 1.350 1_655 S
C177 N176 1.373 . S
C177 H191 0.931 1_655 S
C178 O181 1.256 . S
C178 O182 1.255 1_554 S
O179 Co162 2.021 . S
O179 C172 1.259 1_556 S
O180 Co164 2.117 1_455 S
O180 C172 1.258 . S
O181 Co164 2.020 1_455 S
O181 C178 1.256 . S
O182 Co162 2.062 . S
O182 C178 1.255 1_556 S
O183 C163 1.259 1_554 S
O183 Co164 2.021 . S
H184 C175 0.930 . S
H185 C174 0.931 . S
O186 Co162 2.117 1_655 S
O186 C163 1.258 . S
O187 Co162 2.020 1_655 S
O187 C189 1.256 . S
O188 Co164 2.062 . S
O188 C189 1.255 1_554 S
C189 O187 1.256 . S
C189 O188 1.255 1_556 S
H190 C169 0.931 1_655 S
H191 C177 0.931 1_455 S
H192 C198 0.930 . S
H193 C202 0.930 . S
H194 C207 0.929 . S
H195 C205 0.929 1_565 S
H196 C200 0.929 . S
H197 C206 0.929 . S
C198 H192 0.930 . S
C198 C199 1.367 . S
C198 C206 1.378 . S
C199 C198 1.367 . S
C199 C207 1.433 . S
C200 H196 0.929 . S
C200 C202 1.378 . S
C200 C204 1.350 . S
C201 C204 1.463 . S
C201 C206 1.350 . S
C201 N209 1.427 . S
C202 H193 0.930 . S
C202 C200 1.378 . S
C202 C203 1.367 . S
C203 C202 1.367 . S
C203 C205 1.433 . S
C204 C200 1.350 . S
C204 C201 1.463 . S
C204 N208 1.427 . S
C205 H195 0.929 1_545 S
C205 C203 1.433 . S
C205 N208 1.384 . S
C206 H197 0.929 . S
C206 C198 1.378 . S
C206 C201 1.350 . S
C207 H194 0.929 . S
C207 C199 1.433 . S
C207 N209 1.384 . S
N208 C204 1.427 . S
N208 C205 1.384 . S
N209 C201 1.427 . S
N209 C207 1.384 . S
H210 C216 0.930 . S
H211 C220 0.930 . S
H212 C225 0.929 . S
H213 C223 0.929 . S
H214 C218 0.929 . S
H215 C224 0.929 . S
C216 H210 0.930 . S
C216 C217 1.367 . S
C216 C224 1.378 . S
C217 C216 1.367 . S
C217 C225 1.433 . S
C218 H214 0.929 . S
C218 C220 1.378 . S
C218 C222 1.350 . S
C219 C222 1.463 . S
C219 C224 1.350 . S
C219 N227 1.427 . S
C220 H211 0.930 . S
C220 C218 1.378 . S
C220 C221 1.367 . S
C221 C220 1.367 . S
C221 C223 1.433 . S
C222 C218 1.350 . S
C222 C219 1.463 . S
C222 N226 1.427 . S
C223 H213 0.929 . S
C223 C221 1.433 . S
C223 N226 1.384 . S
C224 H215 0.929 . S
C224 C216 1.378 . S
C224 C219 1.350 . S
C225 H212 0.929 . S
C225 C217 1.433 . S
C225 N227 1.384 . S
N226 C222 1.427 . S
N226 C223 1.384 . S
N227 C219 1.427 . S
N227 C225 1.384 . S
H228 C234 0.930 . S
H229 C238 0.930 . S
H230 C243 0.929 . S
H231 C241 0.929 . S
H232 C236 0.929 . S
H233 C242 0.929 . S
C234 H228 0.930 . S
C234 C235 1.367 . S
C234 C242 1.378 . S
C235 C234 1.367 . S
C235 C243 1.433 . S
C236 H232 0.929 . S
C236 C238 1.378 . S
C236 C240 1.350 . S
C237 C240 1.463 . S
C237 C242 1.350 . S
C237 N245 1.427 . S
C238 H229 0.930 . S
C238 C236 1.378 . S
C238 C239 1.367 . S
C239 C238 1.367 . S
C239 C241 1.433 . S
C240 C236 1.350 . S
C240 C237 1.463 . S
C240 N244 1.427 . S
C241 H231 0.929 . S
C241 C239 1.433 . S
C241 N244 1.384 . S
C242 H233 0.929 . S
C242 C234 1.378 . S
C242 C237 1.350 . S
C243 H230 0.929 . S
C243 C235 1.433 . S
C243 N245 1.384 . S
N244 C240 1.427 . S
N244 C241 1.384 . S
N245 C237 1.427 . S
N245 C243 1.384 . S
H246 C252 0.930 . S
H247 C256 0.930 . S
H248 C261 0.929 . S
H249 C259 0.929 . S
H250 C254 0.929 . S
H251 C260 0.929 . S
C252 H246 0.930 . S
C252 C253 1.367 . S
C252 C260 1.378 . S
C253 C252 1.367 . S
C253 C261 1.433 . S
C254 H250 0.929 . S
C254 C256 1.378 . S
C254 C258 1.350 . S
C255 C258 1.463 . S
C255 C260 1.350 . S
C255 N263 1.427 . S
C256 H247 0.930 . S
C256 C254 1.378 . S
C256 C257 1.367 . S
C257 C256 1.367 . S
C257 C259 1.433 . S
C258 C254 1.350 . S
C258 C255 1.463 . S
C258 N262 1.427 . S
C259 H249 0.929 . S
C259 C257 1.433 . S
C259 N262 1.384 . S
C260 H251 0.929 . S
C260 C252 1.378 . S
C260 C255 1.350 . S
C261 H248 0.929 . S
C261 C253 1.433 . S
C261 N263 1.384 . S
N262 C258 1.427 . S
N262 C259 1.384 . S
N263 C255 1.427 . S
N263 C261 1.384 . S
H264 C270 0.930 . S
H265 C274 0.930 . S
H266 C279 0.929 . S
H267 C277 0.929 1_556 S
H268 C272 0.929 . S
H269 C278 0.929 . S
C270 H264 0.930 . S
C270 C271 1.367 . S
C270 C278 1.378 . S
C271 C270 1.367 . S
C271 C279 1.433 . S
C272 H268 0.929 . S
C272 C274 1.378 . S
C272 C276 1.350 . S
C273 C276 1.463 . S
C273 C278 1.350 . S
C273 N281 1.427 . S
C274 H265 0.930 . S
C274 C272 1.378 . S
C274 C275 1.367 . S
C275 C274 1.367 . S
C275 C277 1.433 . S
C276 C272 1.350 . S
C276 C273 1.463 . S
C276 N280 1.427 . S
C277 H267 0.929 1_554 S
C277 C275 1.433 . S
C277 N280 1.384 . S
C278 H269 0.929 . S
C278 C270 1.378 . S
C278 C273 1.350 . S
C279 H266 0.929 . S
C279 C271 1.433 . S
C279 N281 1.384 . S
N280 C276 1.427 . S
N280 C277 1.384 . S
N281 C273 1.427 . S
N281 C279 1.384 . S
H282 C288 0.930 . S
H283 C292 0.930 . S
H284 C297 0.929 . S
H285 C295 0.929 . S
H286 C290 0.929 . S
H287 C296 0.929 . S
C288 H282 0.930 . S
C288 C289 1.367 . S
C288 C296 1.378 . S
C289 C288 1.367 . S
C289 C297 1.433 . S
C290 H286 0.929 . S
C290 C292 1.378 . S
C290 C294 1.350 . S
C291 C294 1.463 . S
C291 C296 1.350 . S
C291 N299 1.427 . S
C292 H283 0.930 . S
C292 C290 1.378 . S
C292 C293 1.367 . S
C293 C292 1.367 . S
C293 C295 1.433 . S
C294 C290 1.350 . S
C294 C291 1.463 . S
C294 N298 1.427 . S
C295 H285 0.929 . S
C295 C293 1.433 . S
C295 N298 1.384 . S
C296 H287 0.929 . S
C296 C288 1.378 . S
C296 C291 1.350 . S
C297 H284 0.929 . S
C297 C289 1.433 . S
C297 N299 1.384 . S
N298 C294 1.427 . S
N298 C295 1.384 . S
N299 C291 1.427 . S
N299 C297 1.384 . S
H300 C306 0.930 . S
H301 C310 0.930 . S
H302 C315 0.929 . S
H303 C313 0.929 . S
H304 C308 0.929 . S
H305 C314 0.929 . S
C306 H300 0.930 . S
C306 C307 1.367 . S
C306 C314 1.378 . S
C307 C306 1.367 . S
C307 C315 1.433 . S
C308 H304 0.929 . S
C308 C310 1.378 . S
C308 C312 1.350 . S
C309 C312 1.463 . S
C309 C314 1.350 . S
C309 N317 1.427 . S
C310 H301 0.930 . S
C310 C308 1.378 . S
C310 C311 1.367 . S
C311 C310 1.367 . S
C311 C313 1.433 1_556 S
C312 C308 1.350 . S
C312 C309 1.463 . S
C312 N316 1.427 . S
C313 H303 0.929 . S
C313 C311 1.433 1_554 S
C313 N316 1.384 1_554 S
C314 H305 0.929 . S
C314 C306 1.378 . S
C314 C309 1.350 . S
C315 H302 0.929 . S
C315 C307 1.433 . S
C315 N317 1.384 . S
N316 C312 1.427 . S
N316 C313 1.384 1_556 S
N317 C309 1.427 . S
N317 C315 1.384 . S
H318 C324 0.930 . S
H319 C328 0.930 . S
H320 C333 0.929 . S
H321 C331 0.929 . S
H322 C326 0.929 . S
H323 C332 0.929 . S
C324 H318 0.930 . S
C324 C325 1.367 . S
C324 C332 1.378 . S
C325 C324 1.367 . S
C325 C333 1.433 . S
C326 H322 0.929 . S
C326 C328 1.378 . S
C326 C330 1.350 . S
C327 C330 1.463 . S
C327 C332 1.350 . S
C327 N335 1.427 . S
C328 H319 0.930 . S
C328 C326 1.378 . S
C328 C329 1.367 . S
C329 C328 1.367 . S
C329 C331 1.433 . S
C330 C326 1.350 . S
C330 C327 1.463 . S
C330 N334 1.427 . S
C331 H321 0.929 . S
C331 C329 1.433 . S
C331 N334 1.384 . S
C332 H323 0.929 . S
C332 C324 1.378 . S
C332 C327 1.350 . S
C333 H320 0.929 . S
C333 C325 1.433 . S
C333 N335 1.384 . S
N334 C330 1.427 . S
N334 C331 1.384 . S
N335 C327 1.427 . S
N335 C333 1.384 . S
H336 C342 0.930 . S
H337 C346 0.930 . S
H338 C351 0.929 . S
H339 C349 0.929 . S
H340 C344 0.929 . S
H341 C350 0.929 . S
C342 H336 0.930 . S
C342 C343 1.367 . S
C342 C350 1.378 . S
C343 C342 1.367 . S
C343 C351 1.433 . S
C344 H340 0.929 . S
C344 C346 1.378 . S
C344 C348 1.350 . S
C345 C348 1.463 . S
C345 C350 1.350 . S
C345 N353 1.427 . S
C346 H337 0.930 . S
C346 C344 1.378 . S
C346 C347 1.367 . S
C347 C346 1.367 . S
C347 C349 1.433 . S
C348 C344 1.350 . S
C348 C345 1.463 . S
C348 N352 1.427 . S
C349 H339 0.929 . S
C349 C347 1.433 . S
C349 N352 1.384 . S
C350 H341 0.929 . S
C350 C342 1.378 . S
C350 C345 1.350 . S
C351 H338 0.929 . S
C351 C343 1.433 . S
C351 N353 1.384 . S
N352 C348 1.427 . S
N352 C349 1.384 . S
N353 C345 1.427 . S
N353 C351 1.384 . S
H354 C360 0.930 . S
H355 C364 0.930 . S
H356 C369 0.929 . S
H357 C367 0.929 . S
H358 C362 0.929 . S
H359 C368 0.929 . S
C360 H354 0.930 . S
C360 C361 1.367 . S
C360 C368 1.378 . S
C361 C360 1.367 . S
C361 C369 1.433 . S
C362 H358 0.929 . S
C362 C364 1.378 . S
C362 C366 1.350 . S
C363 C366 1.463 . S
C363 C368 1.350 . S
C363 N371 1.427 . S
C364 H355 0.930 . S
C364 C362 1.378 . S
C364 C365 1.367 . S
C365 C364 1.367 . S
C365 C367 1.433 . S
C366 C362 1.350 . S
C366 C363 1.463 . S
C366 N370 1.427 . S
C367 H357 0.929 . S
C367 C365 1.433 . S
C367 N370 1.384 . S
C368 H359 0.929 . S
C368 C360 1.378 . S
C368 C363 1.350 . S
C369 H356 0.929 . S
C369 C361 1.433 . S
C369 N371 1.384 . S
N370 C366 1.427 . S
N370 C367 1.384 . S
N371 C363 1.427 . S
N371 C369 1.384 . S
H372 C378 0.930 . S
H373 C382 0.930 . S
H374 C387 0.929 . S
H375 C385 0.929 1_455 S
H376 C380 0.929 . S
H377 C386 0.929 . S
C378 H372 0.930 . S
C378 C379 1.367 . S
C378 C386 1.378 . S
C379 C378 1.367 . S
C379 C387 1.433 . S
C380 H376 0.929 . S
C380 C382 1.378 . S
C380 C384 1.350 . S
C381 C384 1.463 . S
C381 C386 1.350 . S
C381 N389 1.427 . S
C382 H373 0.930 . S
C382 C380 1.378 . S
C382 C383 1.367 . S
C383 C382 1.367 . S
C383 C385 1.433 . S
C384 C380 1.350 . S
C384 C381 1.463 . S
C384 N388 1.427 . S
C385 H375 0.929 1_655 S
C385 C383 1.433 . S
C385 N388 1.384 . S
C386 H377 0.929 . S
C386 C378 1.378 . S
C386 C381 1.350 . S
C387 H374 0.929 . S
C387 C379 1.433 . S
C387 N389 1.384 . S
N388 C384 1.427 . S
N388 C385 1.384 . S
N389 C381 1.427 . S
N389 C387 1.384 . S
H390 C396 0.930 . S
H391 C400 0.930 . S
H392 C405 0.929 . S
H393 C403 0.929 . S
H394 C398 0.929 . S
H395 C404 0.929 . S
C396 H390 0.930 . S
C396 C397 1.367 . S
C396 C404 1.378 . S
C397 C396 1.367 . S
C397 C405 1.433 . S
C398 H394 0.929 . S
C398 C400 1.378 . S
C398 C402 1.350 . S
C399 C402 1.463 . S
C399 C404 1.350 . S
C399 N407 1.427 . S
C400 H391 0.930 . S
C400 C398 1.378 . S
C400 C401 1.367 . S
C401 C400 1.367 . S
C401 C403 1.433 . S
C402 C398 1.350 . S
C402 C399 1.463 . S
C402 N406 1.427 . S
C403 H393 0.929 . S
C403 C401 1.433 . S
C403 N406 1.384 . S
C404 H395 0.929 . S
C404 C396 1.378 . S
C404 C399 1.350 . S
C405 H392 0.929 . S
C405 C397 1.433 . S
C405 N407 1.384 . S
N406 C402 1.427 . S
N406 C403 1.384 . S
N407 C399 1.427 . S
N407 C405 1.384 . S
H408 C414 0.930 . S
H409 C418 0.930 . S
H410 C423 0.929 . S
H411 C421 0.929 1_455 S
H412 C416 0.929 . S
H413 C422 0.929 . S
C414 H408 0.930 . S
C414 C415 1.367 . S
C414 C422 1.378 . S
C415 C414 1.367 . S
C415 C423 1.433 . S
C416 H412 0.929 . S
C416 C418 1.378 . S
C416 C420 1.350 . S
C417 C420 1.463 . S
C417 C422 1.350 . S
C417 N425 1.427 . S
C418 H409 0.930 . S
C418 C416 1.378 . S
C418 C419 1.367 . S
C419 C418 1.367 . S
C419 C421 1.433 . S
C420 C416 1.350 . S
C420 C417 1.463 . S
C420 N424 1.427 . S
C421 H411 0.929 1_655 S
C421 C419 1.433 . S
C421 N424 1.384 . S
C422 H413 0.929 . S
C422 C414 1.378 . S
C422 C417 1.350 . S
C423 H410 0.929 . S
C423 C415 1.433 . S
C423 N425 1.384 . S
N424 C420 1.427 . S
N424 C421 1.384 . S
N425 C417 1.427 . S
N425 C423 1.384 . S
H426 C432 0.930 . S
H427 C436 0.930 . S
H428 C441 0.929 . S
H429 C439 0.929 . S
H430 C434 0.929 . S
H431 C440 0.929 . S
C432 H426 0.930 . S
C432 C433 1.367 . S
C432 C440 1.378 . S
C433 C432 1.367 . S
C433 C441 1.433 . S
C434 H430 0.929 . S
C434 C436 1.378 . S
C434 C438 1.350 . S
C435 C438 1.463 . S
C435 C440 1.350 . S
C435 N443 1.427 . S
C436 H427 0.930 . S
C436 C434 1.378 . S
C436 C437 1.367 . S
C437 C436 1.367 . S
C437 C439 1.433 . S
C438 C434 1.350 . S
C438 C435 1.463 . S
C438 N442 1.427 . S
C439 H429 0.929 . S
C439 C437 1.433 . S
C439 N442 1.384 . S
C440 H431 0.929 . S
C440 C432 1.378 . S
C440 C435 1.350 . S
C441 H428 0.929 . S
C441 C433 1.433 . S
C441 N443 1.384 . S
N442 C438 1.427 . S
N442 C439 1.384 . S
N443 C435 1.427 . S
N443 C441 1.384 . S
H444 C450 0.930 . S
H445 C454 0.930 . S
H446 C459 0.929 . S
H447 C457 0.929 . S
H448 C452 0.929 . S
H449 C458 0.929 . S
C450 H444 0.930 . S
C450 C451 1.367 . S
C450 C458 1.378 . S
C451 C450 1.367 . S
C451 C459 1.433 . S
C452 H448 0.929 . S
C452 C454 1.378 . S
C452 C456 1.350 . S
C453 C456 1.463 . S
C453 C458 1.350 . S
C453 N461 1.427 . S
C454 H445 0.930 . S
C454 C452 1.378 . S
C454 C455 1.367 . S
C455 C454 1.367 . S
C455 C457 1.433 . S
C456 C452 1.350 . S
C456 C453 1.463 . S
C456 N460 1.427 . S
C457 H447 0.929 . S
C457 C455 1.433 . S
C457 N460 1.384 . S
C458 H449 0.929 . S
C458 C450 1.378 . S
C458 C453 1.350 . S
C459 H446 0.929 . S
C459 C451 1.433 . S
C459 N461 1.384 . S
N460 C456 1.427 . S
N460 C457 1.384 . S
N461 C453 1.427 . S
N461 C459 1.384 . S
H462 C468 0.930 . S
H463 C472 0.930 . S
H464 C477 0.929 . S
H465 C475 0.929 . S
H466 C470 0.929 . S
H467 C476 0.929 . S
C468 H462 0.930 . S
C468 C469 1.367 . S
C468 C476 1.378 . S
C469 C468 1.367 . S
C469 C477 1.433 . S
C470 H466 0.929 . S
C470 C472 1.378 . S
C470 C474 1.350 . S
C471 C474 1.463 . S
C471 C476 1.350 . S
C471 N479 1.427 . S
C472 H463 0.930 . S
C472 C470 1.378 . S
C472 C473 1.367 . S
C473 C472 1.367 . S
C473 C475 1.433 . S
C474 C470 1.350 . S
C474 C471 1.463 . S
C474 N478 1.427 . S
C475 H465 0.929 . S
C475 C473 1.433 . S
C475 N478 1.384 . S
C476 H467 0.929 . S
C476 C468 1.378 . S
C476 C471 1.350 . S
C477 H464 0.929 . S
C477 C469 1.433 . S
C477 N479 1.384 . S
N478 C474 1.427 . S
N478 C475 1.384 . S
N479 C471 1.427 . S
N479 C477 1.384 . S
H480 C486 0.930 . S
H481 C490 0.930 . S
H482 C495 0.929 . S
H483 C493 0.929 1_554 S
H484 C488 0.929 . S
H485 C494 0.929 . S
C486 H480 0.930 . S
C486 C487 1.367 . S
C486 C494 1.378 . S
C487 C486 1.367 . S
C487 C495 1.433 . S
C488 H484 0.929 . S
C488 C490 1.378 . S
C488 C492 1.350 . S
C489 C492 1.463 . S
C489 C494 1.350 . S
C489 N497 1.427 . S
C490 H481 0.930 . S
C490 C488 1.378 . S
C490 C491 1.367 . S
C491 C490 1.367 . S
C491 C493 1.433 . S
C492 C488 1.350 . S
C492 C489 1.463 . S
C492 N496 1.427 . S
C493 H483 0.929 1_556 S
C493 C491 1.433 . S
C493 N496 1.384 . S
C494 H485 0.929 . S
C494 C486 1.378 . S
C494 C489 1.350 . S
C495 H482 0.929 . S
C495 C487 1.433 . S
C495 N497 1.384 . S
N496 C492 1.427 . S
N496 C493 1.384 . S
N497 C489 1.427 . S
N497 C495 1.384 . S
H498 C504 0.930 . S
H499 C508 0.930 . S
H500 C513 0.929 . S
H501 C511 0.929 . S
H502 C506 0.929 . S
H503 C512 0.929 . S
C504 H498 0.930 . S
C504 C505 1.367 . S
C504 C512 1.378 . S
C505 C504 1.367 . S
C505 C513 1.433 . S
C506 H502 0.929 . S
C506 C508 1.378 . S
C506 C510 1.350 . S
C507 C510 1.463 . S
C507 C512 1.350 . S
C507 N515 1.427 . S
C508 H499 0.930 . S
C508 C506 1.378 . S
C508 C509 1.367 . S
C509 C508 1.367 . S
C509 C511 1.433 . S
C510 C506 1.350 . S
C510 C507 1.463 . S
C510 N514 1.427 . S
C511 H501 0.929 . S
C511 C509 1.433 . S
C511 N514 1.384 . S
C512 H503 0.929 . S
C512 C504 1.378 . S
C512 C507 1.350 . S
C513 H500 0.929 . S
C513 C505 1.433 . S
C513 N515 1.384 . S
N514 C510 1.427 . S
N514 C511 1.384 . S
N515 C507 1.427 . S
N515 C513 1.384 . S
H516 C522 0.930 . S
H517 C526 0.930 1_556 S
H518 C531 0.929 . S
H519 C529 0.929 . S
H520 C524 0.929 . S
H521 C530 0.929 . S
C522 H516 0.930 . S
C522 C523 1.367 . S
C522 C530 1.378 . S
C523 C522 1.367 . S
C523 C531 1.433 . S
C524 H520 0.929 . S
C524 C526 1.378 . S
C524 C528 1.350 . S
C525 C528 1.463 . S
C525 C530 1.350 . S
C525 N533 1.427 . S
C526 H517 0.930 1_554 S
C526 C524 1.378 . S
C526 C527 1.367 . S
C527 C526 1.367 . S
C527 C529 1.433 . S
C528 C524 1.350 . S
C528 C525 1.463 . S
C528 N532 1.427 . S
C529 H519 0.929 . S
C529 C527 1.433 . S
C529 N532 1.384 . S
C530 H521 0.929 . S
C530 C522 1.378 . S
C530 C525 1.350 . S
C531 H518 0.929 . S
C531 C523 1.433 . S
C531 N533 1.384 . S
N532 C528 1.427 . S
N532 C529 1.384 . S
N533 C525 1.427 . S
N533 C531 1.384 . S
H534 C540 0.930 . S
H535 C544 0.930 . S
H536 C549 0.929 . S
H537 C547 0.929 . S
H538 C542 0.929 . S
H539 C548 0.929 . S
C540 H534 0.930 . S
C540 C541 1.367 . S
C540 C548 1.378 . S
C541 C540 1.367 . S
C541 C549 1.433 . S
C542 H538 0.929 . S
C542 C544 1.378 . S
C542 C546 1.350 . S
C543 C546 1.463 . S
C543 C548 1.350 . S
C543 N551 1.427 . S
C544 H535 0.930 . S
C544 C542 1.378 . S
C544 C545 1.367 . S
C545 C544 1.367 . S
C545 C547 1.433 . S
C546 C542 1.350 . S
C546 C543 1.463 . S
C546 N550 1.427 . S
C547 H537 0.929 . S
C547 C545 1.433 . S
C547 N550 1.384 . S
C548 H539 0.929 . S
C548 C540 1.378 . S
C548 C543 1.350 . S
C549 H536 0.929 . S
C549 C541 1.433 . S
C549 N551 1.384 . S
N550 C546 1.427 . S
N550 C547 1.384 . S
N551 C543 1.427 . S
N551 C549 1.384 . S
H552 C558 0.930 . S
H553 C562 0.930 . S
H554 C567 0.929 . S
H555 C565 0.929 1_554 S
H556 C560 0.929 . S
H557 C566 0.929 . S
C558 H552 0.930 . S
C558 C559 1.367 . S
C558 C566 1.378 . S
C559 C558 1.367 . S
C559 C567 1.433 . S
C560 H556 0.929 . S
C560 C562 1.378 . S
C560 C564 1.350 . S
C561 C564 1.463 . S
C561 C566 1.350 . S
C561 N569 1.427 . S
C562 H553 0.930 . S
C562 C560 1.378 . S
C562 C563 1.367 . S
C563 C562 1.367 . S
C563 C565 1.433 . S
C564 C560 1.350 . S
C564 C561 1.463 . S
C564 N568 1.427 . S
C565 H555 0.929 1_556 S
C565 C563 1.433 . S
C565 N568 1.384 . S
C566 H557 0.929 . S
C566 C558 1.378 . S
C566 C561 1.350 . S
C567 H554 0.929 . S
C567 C559 1.433 . S
C567 N569 1.384 . S
N568 C564 1.427 . S
N568 C565 1.384 . S
N569 C561 1.427 . S
N569 C567 1.384 . S
H570 C576 0.930 . S
H571 C580 0.930 . S
H572 C585 0.929 . S
H573 C583 0.929 . S
H574 C578 0.929 . S
H575 C584 0.929 . S
C576 H570 0.930 . S
C576 C577 1.367 . S
C576 C584 1.378 . S
C577 C576 1.367 . S
C577 C585 1.433 . S
C578 H574 0.929 . S
C578 C580 1.378 . S
C578 C582 1.350 . S
C579 C582 1.463 . S
C579 C584 1.350 . S
C579 N587 1.427 . S
C580 H571 0.930 . S
C580 C578 1.378 . S
C580 C581 1.367 . S
C581 C580 1.367 . S
C581 C583 1.433 . S
C582 C578 1.350 . S
C582 C579 1.463 . S
C582 N586 1.427 . S
C583 H573 0.929 . S
C583 C581 1.433 . S
C583 N586 1.384 . S
C584 H575 0.929 . S
C584 C576 1.378 . S
C584 C579 1.350 . S
C585 H572 0.929 . S
C585 C577 1.433 . S
C585 N587 1.384 . S
N586 C582 1.427 . S
N586 C583 1.384 . S
N587 C579 1.427 . S
N587 C585 1.384 . S
H588 C594 0.930 . S
H589 C598 0.930 1_655 S
H590 C603 0.929 . S
H591 C601 0.929 . S
H592 C596 0.929 . S
H593 C602 0.929 . S
C594 H588 0.930 . S
C594 C595 1.367 . S
C594 C602 1.378 . S
C595 C594 1.367 . S
C595 C603 1.433 . S
C596 H592 0.929 . S
C596 C598 1.378 . S
C596 C600 1.350 . S
C597 C600 1.463 . S
C597 C602 1.350 . S
C597 N605 1.427 . S
C598 H589 0.930 1_455 S
C598 C596 1.378 . S
C598 C599 1.367 . S
C599 C598 1.367 . S
C599 C601 1.433 . S
C600 C596 1.350 . S
C600 C597 1.463 . S
C600 N604 1.427 . S
C601 H591 0.929 . S
C601 C599 1.433 . S
C601 N604 1.384 . S
C602 H593 0.929 . S
C602 C594 1.378 . S
C602 C597 1.350 . S
C603 H590 0.929 . S
C603 C595 1.433 . S
C603 N605 1.384 . S
N604 C600 1.427 . S
N604 C601 1.384 . S
N605 C597 1.427 . S
N605 C603 1.384 . S
H606 C612 0.930 . S
H607 C616 0.930 . S
H608 C621 0.929 . S
H609 C619 0.929 . S
H610 C614 0.929 . S
H611 C620 0.929 . S
C612 H606 0.930 . S
C612 C613 1.367 . S
C612 C620 1.378 . S
C613 C612 1.367 . S
C613 C621 1.433 . S
C614 H610 0.929 . S
C614 C616 1.378 . S
C614 C618 1.350 . S
C615 C618 1.463 . S
C615 C620 1.350 . S
C615 N623 1.427 . S
C616 H607 0.930 . S
C616 C614 1.378 . S
C616 C617 1.367 . S
C617 C616 1.367 . S
C617 C619 1.433 . S
C618 C614 1.350 . S
C618 C615 1.463 . S
C618 N622 1.427 . S
C619 H609 0.929 . S
C619 C617 1.433 . S
C619 N622 1.384 . S
C620 H611 0.929 . S
C620 C612 1.378 . S
C620 C615 1.350 . S
C621 H608 0.929 . S
C621 C613 1.433 . S
C621 N623 1.384 . S
N622 C618 1.427 . S
N622 C619 1.384 . S
N623 C615 1.427 . S
N623 C621 1.384 . S
C199 C5 2.100 . S
C203 C88 2.111 . S
C217 C14 1.092 . S
C221 N108 1.066 . S
C239 C142 1.959 . S
C235 C25 1.955 . S
C253 C34 1.228 . S
C257 N176 1.179 . S
C275 C129 2.251 . S
C271 C7 2.241 . S
C293 N86 1.098 . S
C289 C13 1.132 . S
C311 C163 1.991 . S
C307 C23 1.985 . S
C329 N138 0.978 . S
C325 C31 0.978 . S
C343 C4 1.767 . S
C347 C178 1.773 . S
C365 C112 1.675 . S
C361 C22 1.666 . S
C379 C32 1.371 . S
C383 C73 1.382 . S
C397 C16 1.367 . S
C401 C159 1.373 . S
C419 C99 2.095 . S
C415 C41 2.084 . S
C433 C50 1.102 . S
C437 N116 1.079 . S
C451 C61 1.943 . S
C455 C133 1.951 . S
C469 C67 1.240 . S
C473 N168 1.197 . S
C487 C40 2.258 . S
C491 C118 2.267 . S
C509 N78 1.099 . S
C505 C52 1.123 . S
C527 C172 1.994 . S
C523 C59 1.983 . S
C545 N146 0.975 . S
C541 C70 0.977 . S
C559 C43 1.762 . S
C563 C189 1.772 . S
C581 C103 1.682 . S
C577 C58 1.668 . S
C599 C82 1.367 . S
C595 C68 1.348 . S
C613 C49 1.376 . S
C617 C148 1.383 . S
