# Generated by pormake.
# Topology ptr, (4,4)-cn, num edge types: 1
# Building blocks:
#     Node 0, Type 0, BuildingBlock: AZAVOO_clean_sbu_0, # of connection points: 4
#     Node 1, Type 0, BuildingBlock: AZAVOO_clean_sbu_0, # of connection points: 4
#     Node 2, Type 0, BuildingBlock: AZAVOO_clean_sbu_0, # of connection points: 4
#     Node 3, Type 0, BuildingBlock: AZAVOO_clean_sbu_0, # of connection points: 4
#     Node 4, Type 0, BuildingBlock: AZAVOO_clean_sbu_0, # of connection points: 4
#     Node 5, Type 0, BuildingBlock: AZAVOO_clean_sbu_0, # of connection points: 4
#     Node 6, Type 0, BuildingBlock: AZAVOO_clean_sbu_0, # of connection points: 4
#     Node 7, Type 0, BuildingBlock: AZAVOO_clean_sbu_0, # of connection points: 4
#     Node 8, Type 0, BuildingBlock: AZAVOO_clean_sbu_0, # of connection points: 4
#     Node 9, Type 0, BuildingBlock: AZAVOO_clean_sbu_0, # of connection points: 4
#     Node 10, Type 0, BuildingBlock: AZAVOO_clean_sbu_0, # of connection points: 4
#     Node 11, Type 0, BuildingBlock: AZAVOO_clean_sbu_0, # of connection points: 4
#     Node 12, Type 0, BuildingBlock: AZAVOO_clean_sbu_0, # of connection points: 4
#     Node 13, Type 0, BuildingBlock: AZAVOO_clean_sbu_0, # of connection points: 4
#     Node 14, Type 0, BuildingBlock: AZAVOO_clean_sbu_0, # of connection points: 4
#     Node 15, Type 0, BuildingBlock: AZAVOO_clean_sbu_0, # of connection points: 4
#     Node 16, Type 0, BuildingBlock: AZAVOO_clean_sbu_0, # of connection points: 4
#     Node 17, Type 0, BuildingBlock: AZAVOO_clean_sbu_0, # of connection points: 4
#     Node 18, Type 1, BuildingBlock: MUDLON_clean_linker_0, # of connection points: 4
#     Node 19, Type 1, BuildingBlock: MUDLON_clean_linker_0, # of connection points: 4
#     Node 20, Type 1, BuildingBlock: MUDLON_clean_linker_0, # of connection points: 4
#     Node 21, Type 1, BuildingBlock: MUDLON_clean_linker_0, # of connection points: 4
#     Node 22, Type 1, BuildingBlock: MUDLON_clean_linker_0, # of connection points: 4
#     Node 23, Type 1, BuildingBlock: MUDLON_clean_linker_0, # of connection points: 4
#     Node 24, Type 1, BuildingBlock: MUDLON_clean_linker_0, # of connection points: 4
#     Node 25, Type 1, BuildingBlock: MUDLON_clean_linker_0, # of connection points: 4
#     Node 26, Type 1, BuildingBlock: MUDLON_clean_linker_0, # of connection points: 4
#     Node 27, Type 1, BuildingBlock: MUDLON_clean_linker_0, # of connection points: 4
#     Node 28, Type 1, BuildingBlock: MUDLON_clean_linker_0, # of connection points: 4
#     Node 29, Type 1, BuildingBlock: MUDLON_clean_linker_0, # of connection points: 4
#     Node 30, Type 1, BuildingBlock: MUDLON_clean_linker_0, # of connection points: 4
#     Node 31, Type 1, BuildingBlock: MUDLON_clean_linker_0, # of connection points: 4
#     Node 32, Type 1, BuildingBlock: MUDLON_clean_linker_0, # of connection points: 4
#     Node 33, Type 1, BuildingBlock: MUDLON_clean_linker_0, # of connection points: 4
#     Node 34, Type 1, BuildingBlock: MUDLON_clean_linker_0, # of connection points: 4
#     Node 35, Type 1, BuildingBlock: MUDLON_clean_linker_0, # of connection points: 4
#     Edge 36, Type (0, 1), BuildingBlock: CIFDUS_clean_linker_0, # of connection points: 2
#     Edge 37, Type (0, 1), BuildingBlock: CIFDUS_clean_linker_0, # of connection points: 2
#     Edge 38, Type (0, 1), BuildingBlock: CIFDUS_clean_linker_0, # of connection points: 2
#     Edge 39, Type (0, 1), BuildingBlock: CIFDUS_clean_linker_0, # of connection points: 2
#     Edge 40, Type (0, 1), BuildingBlock: CIFDUS_clean_linker_0, # of connection points: 2
#     Edge 41, Type (0, 1), BuildingBlock: CIFDUS_clean_linker_0, # of connection points: 2
#     Edge 42, Type (0, 1), BuildingBlock: CIFDUS_clean_linker_0, # of connection points: 2
#     Edge 43, Type (0, 1), BuildingBlock: CIFDUS_clean_linker_0, # of connection points: 2
#     Edge 44, Type (0, 1), BuildingBlock: CIFDUS_clean_linker_0, # of connection points: 2
#     Edge 45, Type (0, 1), BuildingBlock: CIFDUS_clean_linker_0, # of connection points: 2
#     Edge 46, Type (0, 1), BuildingBlock: CIFDUS_clean_linker_0, # of connection points: 2
#     Edge 47, Type (0, 1), BuildingBlock: CIFDUS_clean_linker_0, # of connection points: 2
#     Edge 48, Type (0, 1), BuildingBlock: CIFDUS_clean_linker_0, # of connection points: 2
#     Edge 49, Type (0, 1), BuildingBlock: CIFDUS_clean_linker_0, # of connection points: 2
#     Edge 50, Type (0, 1), BuildingBlock: CIFDUS_clean_linker_0, # of connection points: 2
#     Edge 51, Type (0, 1), BuildingBlock: CIFDUS_clean_linker_0, # of connection points: 2
#     Edge 52, Type (0, 1), BuildingBlock: CIFDUS_clean_linker_0, # of connection points: 2
#     Edge 53, Type (0, 1), BuildingBlock: CIFDUS_clean_linker_0, # of connection points: 2
#     Edge 54, Type (0, 1), BuildingBlock: CIFDUS_clean_linker_0, # of connection points: 2
#     Edge 55, Type (0, 1), BuildingBlock: CIFDUS_clean_linker_0, # of connection points: 2
#     Edge 56, Type (0, 1), BuildingBlock: CIFDUS_clean_linker_0, # of connection points: 2
#     Edge 57, Type (0, 1), BuildingBlock: CIFDUS_clean_linker_0, # of connection points: 2
#     Edge 58, Type (0, 1), BuildingBlock: CIFDUS_clean_linker_0, # of connection points: 2
#     Edge 59, Type (0, 1), BuildingBlock: CIFDUS_clean_linker_0, # of connection points: 2
#     Edge 60, Type (0, 1), BuildingBlock: CIFDUS_clean_linker_0, # of connection points: 2
#     Edge 61, Type (0, 1), BuildingBlock: CIFDUS_clean_linker_0, # of connection points: 2
#     Edge 62, Type (0, 1), BuildingBlock: CIFDUS_clean_linker_0, # of connection points: 2
#     Edge 63, Type (0, 1), BuildingBlock: CIFDUS_clean_linker_0, # of connection points: 2
#     Edge 64, Type (0, 1), BuildingBlock: CIFDUS_clean_linker_0, # of connection points: 2
#     Edge 65, Type (0, 1), BuildingBlock: CIFDUS_clean_linker_0, # of connection points: 2
#     Edge 66, Type (0, 1), BuildingBlock: CIFDUS_clean_linker_0, # of connection points: 2
#     Edge 67, Type (0, 1), BuildingBlock: CIFDUS_clean_linker_0, # of connection points: 2
#     Edge 68, Type (0, 1), BuildingBlock: CIFDUS_clean_linker_0, # of connection points: 2
#     Edge 69, Type (0, 1), BuildingBlock: CIFDUS_clean_linker_0, # of connection points: 2
#     Edge 70, Type (0, 1), BuildingBlock: CIFDUS_clean_linker_0, # of connection points: 2
#     Edge 71, Type (0, 1), BuildingBlock: CIFDUS_clean_linker_0, # of connection points: 2
#     Edge 72, Type (0, 1), BuildingBlock: CIFDUS_clean_linker_0, # of connection points: 2
#     Edge 73, Type (0, 1), BuildingBlock: CIFDUS_clean_linker_0, # of connection points: 2
#     Edge 74, Type (0, 1), BuildingBlock: CIFDUS_clean_linker_0, # of connection points: 2
#     Edge 75, Type (0, 1), BuildingBlock: CIFDUS_clean_linker_0, # of connection points: 2
#     Edge 76, Type (0, 1), BuildingBlock: CIFDUS_clean_linker_0, # of connection points: 2
#     Edge 77, Type (0, 1), BuildingBlock: CIFDUS_clean_linker_0, # of connection points: 2
#     Edge 78, Type (0, 1), BuildingBlock: CIFDUS_clean_linker_0, # of connection points: 2
#     Edge 79, Type (0, 1), BuildingBlock: CIFDUS_clean_linker_0, # of connection points: 2
#     Edge 80, Type (0, 1), BuildingBlock: CIFDUS_clean_linker_0, # of connection points: 2
#     Edge 81, Type (0, 1), BuildingBlock: CIFDUS_clean_linker_0, # of connection points: 2
#     Edge 82, Type (0, 1), BuildingBlock: CIFDUS_clean_linker_0, # of connection points: 2
#     Edge 83, Type (0, 1), BuildingBlock: CIFDUS_clean_linker_0, # of connection points: 2
#     Edge 84, Type (0, 1), BuildingBlock: CIFDUS_clean_linker_0, # of connection points: 2
#     Edge 85, Type (0, 1), BuildingBlock: CIFDUS_clean_linker_0, # of connection points: 2
#     Edge 86, Type (0, 1), BuildingBlock: CIFDUS_clean_linker_0, # of connection points: 2
#     Edge 87, Type (0, 1), BuildingBlock: CIFDUS_clean_linker_0, # of connection points: 2
#     Edge 88, Type (0, 1), BuildingBlock: CIFDUS_clean_linker_0, # of connection points: 2
#     Edge 89, Type (0, 1), BuildingBlock: CIFDUS_clean_linker_0, # of connection points: 2
#     Edge 90, Type (0, 1), BuildingBlock: CIFDUS_clean_linker_0, # of connection points: 2
#     Edge 91, Type (0, 1), BuildingBlock: CIFDUS_clean_linker_0, # of connection points: 2
#     Edge 92, Type (0, 1), BuildingBlock: CIFDUS_clean_linker_0, # of connection points: 2
#     Edge 93, Type (0, 1), BuildingBlock: CIFDUS_clean_linker_0, # of connection points: 2
#     Edge 94, Type (0, 1), BuildingBlock: CIFDUS_clean_linker_0, # of connection points: 2
#     Edge 95, Type (0, 1), BuildingBlock: CIFDUS_clean_linker_0, # of connection points: 2
#     Edge 96, Type (0, 1), BuildingBlock: CIFDUS_clean_linker_0, # of connection points: 2
#     Edge 97, Type (0, 1), BuildingBlock: CIFDUS_clean_linker_0, # of connection points: 2
#     Edge 98, Type (0, 1), BuildingBlock: CIFDUS_clean_linker_0, # of connection points: 2
#     Edge 99, Type (0, 1), BuildingBlock: CIFDUS_clean_linker_0, # of connection points: 2
#     Edge 100, Type (0, 1), BuildingBlock: CIFDUS_clean_linker_0, # of connection points: 2
#     Edge 101, Type (0, 1), BuildingBlock: CIFDUS_clean_linker_0, # of connection points: 2
#     Edge 102, Type (0, 1), BuildingBlock: CIFDUS_clean_linker_0, # of connection points: 2
#     Edge 103, Type (0, 1), BuildingBlock: CIFDUS_clean_linker_0, # of connection points: 2
#     Edge 104, Type (0, 1), BuildingBlock: CIFDUS_clean_linker_0, # of connection points: 2
#     Edge 105, Type (0, 1), BuildingBlock: CIFDUS_clean_linker_0, # of connection points: 2
#     Edge 106, Type (0, 1), BuildingBlock: CIFDUS_clean_linker_0, # of connection points: 2
#     Edge 107, Type (0, 1), BuildingBlock: CIFDUS_clean_linker_0, # of connection points: 2
# Relax obj value: 0.069
# Max RMSD: 0.228
# Mean RMSD: 0.111
data_MOF--net-ptr--node1-AZAVOO_clean_sbu_0--node2-MUDLON_clean_linker_0--edge1-CIFDUS_clean_linker_0
_symmetry_space_group_name_H-M    P1
_symmetry_Int_Tables_number       1
_symmetry_cell_setting            triclinic
loop_
_symmetry_equiv_pos_as_xyz
'x, y, z'
_cell_length_a     96.862689
_cell_length_b     95.473868
_cell_length_c     54.26176
_cell_angle_alpha  91.027906
_cell_angle_beta   91.052001
_cell_angle_gamma 120.02705
loop_
_atom_site_label
_atom_site_type_symbol
_atom_site_fract_x
_atom_site_fract_y
_atom_site_fract_z
_atom_type_partial_charge
Mg0 Mg 0.01121 0.36272 0.98195 0.0
O1 O 0.00229 0.37076 0.01575 0.0
O2 O 0.97963 0.36967 0.00292 0.0
Mg3 Mg 0.97504 0.36303 0.96189 0.0
C4 C 0.99008 0.37221 0.01977 0.0
C5 C 0.04223 0.36372 0.99727 0.0
O6 O 0.0459 0.37219 0.97719 0.0
O7 O 0.99121 0.33649 0.98533 0.0
O8 O 0.96999 0.3375 0.97079 0.0
O9 O 0.02564 0.38836 0.97017 0.0
O10 O 0.00062 0.37178 0.95834 0.0
C11 C 0.97639 0.32961 0.97929 0.0
C12 C 0.01304 0.38599 0.95786 0.0
O13 O 0.02829 0.35818 0.00552 0.0
Mg14 Mg 0.64048 0.63172 0.04869 0.0
O15 O 0.62374 0.62176 0.01467 0.0
O16 O 0.60044 0.61958 0.02463 0.0
Mg17 Mg 0.60169 0.62561 0.06609 0.0
C18 C 0.60953 0.61839 0.009 0.0
C19 C 0.67035 0.63262 0.02548 0.0
O20 O 0.66592 0.61994 0.03918 0.0
O21 O 0.6425 0.65634 0.04483 0.0
O22 O 0.6195 0.65254 0.0595 0.0
O23 O 0.63309 0.60669 0.06006 0.0
O24 O 0.62126 0.62031 0.07153 0.0
C25 C 0.63338 0.66175 0.05123 0.0
C26 C 0.62181 0.60711 0.07194 0.0
O27 O 0.66207 0.63955 0.02503 0.0
Mg28 Mg 0.34891 0.98555 0.97326 0.0
O29 O 0.36568 0.99195 0.00678 0.0
O30 O 0.39037 0.01142 0.99932 0.0
Mg31 Mg 0.38893 0.01841 0.95949 0.0
C32 C 0.38016 0.00124 0.01372 0.0
C33 C 0.32998 0.96105 0.01229 0.0
O34 O 0.34293 0.95993 0.01093 0.0
O35 O 0.34725 0.00828 0.98039 0.0
O36 O 0.37171 0.02735 0.97027 0.0
O37 O 0.35639 0.96832 0.95898 0.0
O38 O 0.36827 0.99422 0.95019 0.0
C39 C 0.35766 0.0231 0.97733 0.0
C40 C 0.36772 0.9805 0.94809 0.0
O41 O 0.3282 0.97051 0.99809 0.0
Mg42 Mg 0.99056 0.64749 0.03617 0.0
O43 O 0.99436 0.6359 0.0012 0.0
O44 O 0.01582 0.63349 0.00911 0.0
Mg45 Mg 0.02544 0.64293 0.0483 0.0
C46 C 0.00437 0.6316 0.99474 0.0
C47 C 0.95909 0.64464 0.01158 0.0
O48 O 0.95256 0.62959 0.01857 0.0
O49 O 0.01186 0.672 0.02767 0.0
O50 O 0.03259 0.66898 0.03815 0.0
O51 O 0.97506 0.62302 0.05184 0.0
O52 O 0.00123 0.63733 0.05733 0.0
C53 C 0.02685 0.67773 0.03077 0.0
C54 C 0.98809 0.62409 0.06059 0.0
O55 O 0.97397 0.65412 0.01549 0.0
Mg56 Mg 0.37208 0.36259 0.9858 0.0
O57 O 0.38839 0.37099 0.02091 0.0
O58 O 0.41035 0.37023 0.01113 0.0
Mg59 Mg 0.40898 0.36299 0.97044 0.0
C60 C 0.40209 0.37285 0.02667 0.0
C61 C 0.3416 0.36314 0.99704 0.0
O62 O 0.34532 0.36939 0.97512 0.0
O63 O 0.36603 0.33632 0.99045 0.0
O64 O 0.38838 0.33752 0.97773 0.0
O65 O 0.38305 0.3881 0.97304 0.0
O66 O 0.39206 0.37153 0.9641 0.0
C67 C 0.37407 0.32947 0.98501 0.0
C68 C 0.39364 0.38569 0.96265 0.0
O69 O 0.35059 0.35874 0.00757 0.0
Mg70 Mg 0.63673 0.00357 0.0326 0.0
O71 O 0.61965 0.9969 0.99903 0.0
O72 O 0.59575 0.97667 0.00893 0.0
Mg73 Mg 0.59734 0.97113 0.04932 0.0
C74 C 0.60508 0.98669 0.99346 0.0
C75 C 0.66901 0.03124 0.01375 0.0
O76 O 0.66855 0.03796 0.03484 0.0
O77 O 0.63805 0.98061 0.02753 0.0
O78 O 0.61414 0.96144 0.03965 0.0
O79 O 0.63014 0.02161 0.04593 0.0
O80 O 0.61773 0.99592 0.0561 0.0
C81 C 0.62809 0.96589 0.03196 0.0
C82 C 0.61875 0.00989 0.05752 0.0
O83 O 0.65768 0.01716 0.00771 0.0
Mg84 Mg 0.67567 0.6899 0.32922 0.0
O85 O 0.67081 0.70356 0.36025 0.0
O86 O 0.65251 0.70917 0.34533 0.0
Mg87 Mg 0.64579 0.69943 0.30558 0.0
C88 C 0.6619 0.70981 0.36271 0.0
C89 C 0.69913 0.67939 0.34651 0.0
O90 O 0.70138 0.6813 0.32271 0.0
O91 O 0.65188 0.66683 0.33464 0.0
O92 O 0.63438 0.67312 0.31831 0.0
O93 O 0.69462 0.7134 0.3151 0.0
O94 O 0.6693 0.70129 0.30273 0.0
C95 C 0.63762 0.66306 0.32839 0.0
C96 C 0.68348 0.71359 0.30181 0.0
O97 O 0.68879 0.68211 0.35609 0.0
Mg98 Mg 0.31169 0.96942 0.39316 0.0
O99 O 0.29472 0.95993 0.35936 0.0
O100 O 0.27129 0.95745 0.36908 0.0
Mg101 Mg 0.27397 0.96667 0.40918 0.0
C102 C 0.28038 0.95605 0.3537 0.0
C103 C 0.34113 0.96826 0.37382 0.0
O104 O 0.33867 0.9601 0.39407 0.0
O105 O 0.31584 0.99467 0.38763 0.0
O106 O 0.2929 0.99277 0.39891 0.0
O107 O 0.30229 0.94434 0.40583 0.0
O108 O 0.29245 0.95997 0.41658 0.0
C109 C 0.30718 0.00104 0.39145 0.0
C110 C 0.29166 0.9461 0.41744 0.0
O111 O 0.33213 0.97398 0.36846 0.0
Mg112 Mg 0.03578 0.33367 0.31385 0.0
O113 O 0.04981 0.33792 0.3501 0.0
O114 O 0.07433 0.35908 0.34738 0.0
Mg115 Mg 0.07614 0.36825 0.30814 0.0
C116 C 0.06361 0.34757 0.35953 0.0
C117 C 0.0135 0.30515 0.34456 0.0
O118 O 0.02641 0.30398 0.34314 0.0
O119 O 0.03288 0.35556 0.32195 0.0
O120 O 0.05741 0.37585 0.31501 0.0
O121 O 0.04465 0.31771 0.29908 0.0
O122 O 0.05703 0.34416 0.29467 0.0
C123 C 0.0428 0.37064 0.31996 0.0
C124 C 0.05676 0.33065 0.29116 0.0
O125 O 0.01308 0.31661 0.33366 0.0
Mg126 Mg 0.65939 0.9769 0.3658 0.0
O127 O 0.66503 0.96618 0.33179 0.0
O128 O 0.68538 0.96248 0.3421 0.0
Mg129 Mg 0.69239 0.97037 0.38259 0.0
C130 C 0.67499 0.96161 0.32638 0.0
C131 C 0.63241 0.98382 0.3507 0.0
O132 O 0.62825 0.97851 0.37306 0.0
O133 O 0.68161 0.00127 0.36143 0.0
O134 O 0.70143 0.99718 0.37373 0.0
O135 O 0.64218 0.95223 0.3781 0.0
O136 O 0.66784 0.96546 0.38884 0.0
C137 C 0.69636 0.00647 0.36617 0.0
C138 C 0.65412 0.95244 0.38963 0.0
O139 O 0.64478 0.98444 0.34195 0.0
Mg140 Mg 0.0223 0.69852 0.3092 0.0
O141 O 0.04105 0.70922 0.34123 0.0
O142 O 0.06418 0.71396 0.32563 0.0
Mg143 Mg 0.06072 0.70779 0.28434 0.0
C144 C 0.05593 0.71401 0.3437 0.0
C145 C 0.9885 0.67775 0.32714 0.0
O146 O 0.98781 0.67164 0.30496 0.0
O147 O 0.02221 0.67458 0.31046 0.0
O148 O 0.04518 0.68089 0.29282 0.0
O149 O 0.02713 0.72317 0.29918 0.0
O150 O 0.04 0.71136 0.28441 0.0
C151 C 0.03211 0.6706 0.30234 0.0
C152 C 0.03833 0.72391 0.28562 0.0
O153 O 0.00174 0.68939 0.3354 0.0
Mg154 Mg 0.29909 0.33769 0.37482 0.0
O155 O 0.28319 0.33261 0.34056 0.0
O156 O 0.25928 0.31095 0.34623 0.0
Mg157 Mg 0.25946 0.30379 0.3864 0.0
C158 C 0.26912 0.3223 0.33287 0.0
C159 C 0.33479 0.35839 0.36041 0.0
O160 O 0.33698 0.35524 0.38315 0.0
O161 O 0.30111 0.3153 0.36745 0.0
O162 O 0.27729 0.29515 0.37794 0.0
O163 O 0.29146 0.35455 0.38945 0.0
O164 O 0.27931 0.32839 0.39682 0.0
C165 C 0.29155 0.30033 0.37105 0.0
C166 C 0.27991 0.34212 0.39959 0.0
O167 O 0.32066 0.35295 0.35189 0.0
Mg168 Mg 0.3353 0.02539 0.64838 0.0
O169 O 0.3331 0.03866 0.68244 0.0
O170 O 0.31279 0.04302 0.67518 0.0
Mg171 Mg 0.3028 0.03357 0.636 0.0
C172 C 0.32409 0.04416 0.68915 0.0
C173 C 0.3656 0.02437 0.66783 0.0
O174 O 0.37258 0.0362 0.65238 0.0
O175 O 0.31273 0.00205 0.65731 0.0
O176 O 0.29322 0.00706 0.64696 0.0
O177 O 0.35219 0.04905 0.6323 0.0
O178 O 0.32605 0.03638 0.62591 0.0
C179 C 0.29794 0.99748 0.65446 0.0
C180 C 0.33981 0.04889 0.62248 0.0
O181 O 0.35063 0.01784 0.67055 0.0
Mg182 Mg 0.97248 0.30894 0.71436 0.0
O183 O 0.95633 0.29671 0.68033 0.0
O184 O 0.93216 0.29329 0.687 0.0
Mg185 Mg 0.93262 0.30184 0.72698 0.0
C186 C 0.94201 0.29199 0.67319 0.0
C187 C 0.00399 0.31121 0.69596 0.0
O188 O 0.00209 0.3027 0.71567 0.0
O189 O 0.97384 0.33297 0.70692 0.0
O190 O 0.94981 0.32842 0.71756 0.0
O191 O 0.9655 0.28471 0.72896 0.0
O192 O 0.95288 0.29814 0.73681 0.0
C193 C 0.96394 0.33788 0.71041 0.0
C194 C 0.95378 0.28521 0.73923 0.0
O195 O 0.99395 0.31566 0.69083 0.0
Mg196 Mg 0.70606 0.66187 0.65531 0.0
O197 O 0.72435 0.66874 0.68748 0.0
O198 O 0.74862 0.68466 0.67277 0.0
Mg199 Mg 0.74593 0.68831 0.6319 0.0
C200 C 0.73952 0.67719 0.69043 0.0
C201 C 0.67289 0.63921 0.6763 0.0
O202 O 0.67223 0.63125 0.6559 0.0
O203 O 0.70894 0.68705 0.65768 0.0
O204 O 0.73285 0.70208 0.64148 0.0
O205 O 0.70848 0.64045 0.64388 0.0
O206 O 0.72338 0.66515 0.63044 0.0
C207 C 0.72015 0.70063 0.65065 0.0
C208 C 0.72021 0.65036 0.63069 0.0
O209 O 0.68559 0.65243 0.68184 0.0
Mg210 Mg 0.33063 0.31444 0.69845 0.0
O211 O 0.33617 0.30261 0.66549 0.0
O212 O 0.35222 0.29383 0.67977 0.0
Mg213 Mg 0.3573 0.3003 0.72088 0.0
C214 C 0.34433 0.29559 0.66219 0.0
C215 C 0.31092 0.32988 0.68303 0.0
O216 O 0.30964 0.32911 0.7071 0.0
O217 O 0.35544 0.33692 0.69683 0.0
O218 O 0.37052 0.32737 0.71238 0.0
O219 O 0.30992 0.29064 0.70883 0.0
O220 O 0.3346 0.30013 0.72291 0.0
C221 C 0.369 0.33894 0.7039 0.0
C222 C 0.31996 0.28862 0.72216 0.0
O223 O 0.31954 0.325 0.67282 0.0
Mg224 Mg 0.69159 0.02739 0.63445 0.0
O225 O 0.70646 0.03966 0.66972 0.0
O226 O 0.73186 0.04725 0.66253 0.0
Mg227 Mg 0.73331 0.04086 0.62209 0.0
C228 C 0.72107 0.04614 0.67688 0.0
C229 C 0.66238 0.02434 0.66305 0.0
O230 O 0.6689 0.03961 0.65728 0.0
O231 O 0.69405 0.0052 0.64031 0.0
O232 O 0.71903 0.01353 0.62931 0.0
O233 O 0.69512 0.05103 0.62128 0.0
O234 O 0.71129 0.04154 0.61352 0.0
C235 C 0.7054 0.00242 0.63613 0.0
C236 C 0.70811 0.05308 0.61167 0.0
O237 O 0.66892 0.01627 0.65631 0.0
Mg238 Mg 0.96306 0.67607 0.71352 0.0
O239 O 0.94363 0.66816 0.68269 0.0
O240 O 0.92081 0.64919 0.69831 0.0
Mg241 Mg 0.92502 0.64576 0.73857 0.0
C242 C 0.92871 0.65785 0.68048 0.0
C243 C 0.99465 0.68698 0.68483 0.0
O244 O 0.99529 0.67618 0.69872 0.0
O245 O 0.96305 0.65217 0.70831 0.0
O246 O 0.94025 0.63501 0.72603 0.0
O247 O 0.95813 0.69527 0.72779 0.0
O248 O 0.94606 0.67012 0.74022 0.0
C249 C 0.95306 0.63801 0.71537 0.0
C250 C 0.94756 0.68429 0.74142 0.0
O251 O 0.98276 0.68915 0.6861 0.0
H252 H 0.26536 0.37703 0.15821 0.0
N253 N 0.23955 0.35785 0.13056 0.0
H254 H 0.27261 0.37211 0.19899 0.0
H255 H 0.22182 0.33096 0.15776 0.0
H256 H 0.22817 0.32648 0.19954 0.0
H257 H 0.2401 0.33005 0.11991 0.0
H258 H 0.2589 0.32756 0.09309 0.0
H259 H 0.25953 0.37977 0.1001 0.0
H260 H 0.27844 0.3775 0.07339 0.0
H261 H 0.22283 0.36912 0.15298 0.0
H262 H 0.21861 0.33517 0.09561 0.0
H263 H 0.19478 0.36048 0.14711 0.0
H264 H 0.19095 0.32753 0.08802 0.0
H265 H 0.1212 0.34452 0.13783 0.0
H266 H 0.10939 0.3428 0.17743 0.0
H267 H 0.10117 0.29418 0.1846 0.0
H268 H 0.11256 0.29585 0.14403 0.0
H269 H 0.09508 0.29921 0.09173 0.0
H270 H 0.07717 0.30521 0.06763 0.0
H271 H 0.11312 0.3559 0.07009 0.0
H272 H 0.13096 0.34982 0.09327 0.0
H273 H 0.14698 0.35122 0.12465 0.0
H274 H 0.17531 0.361 0.12452 0.0
H275 H 0.16564 0.31312 0.10192 0.0
N276 N 0.12287 0.32019 0.11312 0.0
H277 H 0.1372 0.30398 0.09946 0.0
C278 C 0.24299 0.35458 0.15513 0.0
C279 C 0.25724 0.36598 0.16721 0.0
C280 C 0.26125 0.36316 0.19068 0.0
C281 C 0.25089 0.34897 0.20299 0.0
C282 C 0.23658 0.33746 0.19071 0.0
C283 C 0.23279 0.34011 0.16687 0.0
C284 C 0.24849 0.35516 0.11195 0.0
C285 C 0.24824 0.34034 0.10943 0.0
C286 C 0.25906 0.33898 0.09425 0.0
C287 C 0.27026 0.35238 0.08127 0.0
C288 C 0.26989 0.36691 0.08292 0.0
C289 C 0.25911 0.36825 0.09815 0.0
C290 C 0.223 0.35286 0.125 0.0
C291 C 0.2159 0.35999 0.13879 0.0
C292 C 0.19981 0.35514 0.13512 0.0
C293 C 0.19038 0.3433 0.11688 0.0
C294 C 0.19762 0.33643 0.10257 0.0
C295 C 0.21366 0.34097 0.10677 0.0
C296 C 0.11762 0.3202 0.13781 0.0
C297 C 0.11706 0.33355 0.14795 0.0
C298 C 0.11038 0.33258 0.17084 0.0
C299 C 0.10428 0.31833 0.1843 0.0
C300 C 0.10553 0.30525 0.1746 0.0
C301 C 0.11212 0.3062 0.15154 0.0
C302 C 0.11439 0.32393 0.09454 0.0
C303 C 0.09925 0.31154 0.08641 0.0
C304 C 0.08895 0.31503 0.07294 0.0
C305 C 0.0936 0.33108 0.06729 0.0
C306 C 0.10916 0.34338 0.07402 0.0
C307 C 0.11945 0.33987 0.08747 0.0
C308 C 0.13986 0.3269 0.11127 0.0
C309 C 0.1509 0.34296 0.11862 0.0
C310 C 0.16725 0.34847 0.11917 0.0
C311 C 0.17301 0.33788 0.11353 0.0
C312 C 0.16188 0.32183 0.10595 0.0
C313 C 0.14554 0.3165 0.10464 0.0
H314 H 0.71611 0.79022 0.15114 0.0
N315 N 0.69624 0.79841 0.12977 0.0
H316 H 0.71167 0.77454 0.18834 0.0
H317 H 0.67256 0.79097 0.16266 0.0
H318 H 0.66824 0.77571 0.20005 0.0
H319 H 0.66386 0.78345 0.12038 0.0
H320 H 0.6476 0.75765 0.09857 0.0
H321 H 0.70646 0.78249 0.10189 0.0
H322 H 0.69027 0.75597 0.08178 0.0
H323 H 0.70688 0.82296 0.16405 0.0
H324 H 0.68313 0.8079 0.09223 0.0
H325 H 0.70164 0.84529 0.1654 0.0
H326 H 0.6773 0.82977 0.09421 0.0
H327 H 0.69336 0.90509 0.15897 0.0
H328 H 0.69897 0.92218 0.19631 0.0
H329 H 0.64843 0.89897 0.2091 0.0
H330 H 0.64298 0.88221 0.17156 0.0
H331 H 0.63738 0.87895 0.11907 0.0
H332 H 0.63488 0.8964 0.08951 0.0
H333 H 0.68629 0.92349 0.0841 0.0
H334 H 0.68853 0.90654 0.11527 0.0
H335 H 0.66766 0.86539 0.1754 0.0
H336 H 0.67787 0.84693 0.17152 0.0
H337 H 0.68685 0.85822 0.09471 0.0
N338 N 0.66385 0.88264 0.14013 0.0
H339 H 0.67619 0.87627 0.0982 0.0
C340 C 0.69471 0.79173 0.154 0.0
C341 C 0.70583 0.78736 0.16206 0.0
C342 C 0.70328 0.77845 0.18335 0.0
C343 C 0.68952 0.77375 0.19703 0.0
C344 C 0.67882 0.7789 0.18968 0.0
C345 C 0.68132 0.78771 0.16836 0.0
C346 C 0.68652 0.78508 0.11259 0.0
C347 C 0.66977 0.77784 0.11119 0.0
C348 C 0.66043 0.76288 0.09898 0.0
C349 C 0.6675 0.7544 0.08876 0.0
C350 C 0.68428 0.76208 0.08904 0.0
C351 C 0.69363 0.77729 0.10063 0.0
C352 C 0.69398 0.81244 0.12924 0.0
C353 C 0.70016 0.82409 0.14881 0.0
C354 C 0.69724 0.83698 0.14956 0.0
C355 C 0.68847 0.83895 0.1304 0.0
C356 C 0.68381 0.82844 0.10956 0.0
C357 C 0.68685 0.81559 0.10873 0.0
C358 C 0.66771 0.89238 0.16259 0.0
C359 C 0.68353 0.90373 0.16984 0.0
C360 C 0.68671 0.91342 0.19122 0.0
C361 C 0.67414 0.912 0.20559 0.0
C362 C 0.65836 0.90056 0.19825 0.0
C363 C 0.65522 0.89088 0.17698 0.0
C364 C 0.66304 0.89137 0.11926 0.0
C365 C 0.64805 0.88847 0.11108 0.0
C366 C 0.6467 0.89845 0.09394 0.0
C367 C 0.66039 0.9115 0.0842 0.0
C368 C 0.67546 0.91382 0.09146 0.0
C369 C 0.6768 0.90404 0.10915 0.0
C370 C 0.67173 0.87312 0.13759 0.0
C371 C 0.67223 0.86434 0.15782 0.0
C372 C 0.6781 0.85371 0.15558 0.0
C373 C 0.68342 0.85126 0.13288 0.0
C374 C 0.68288 0.85986 0.11251 0.0
C375 C 0.67695 0.8705 0.1147 0.0
H376 H 0.10707 0.77858 0.12969 0.0
N377 N 0.11034 0.80773 0.11683 0.0
H378 H 0.0969 0.76471 0.16777 0.0
H379 H 0.09999 0.81754 0.15519 0.0
H380 H 0.08998 0.80367 0.19414 0.0
H381 H 0.08051 0.79305 0.09906 0.0
H382 H 0.06765 0.7691 0.07203 0.0
H383 H 0.12635 0.7977 0.08507 0.0
H384 H 0.11369 0.77441 0.05707 0.0
H385 H 0.13401 0.80142 0.13117 0.0
H386 H 0.12522 0.83922 0.10745 0.0
H387 H 0.16177 0.82103 0.13943 0.0
H388 H 0.15361 0.85914 0.11449 0.0
H389 H 0.23254 0.9165 0.16968 0.0
H390 H 0.23968 0.92936 0.21077 0.0
H391 H 0.23068 0.88434 0.2416 0.0
H392 H 0.22419 0.87155 0.20007 0.0
H393 H 0.22366 0.90728 0.1278 0.0
H394 H 0.24257 0.92305 0.09643 0.0
H395 H 0.26889 0.89834 0.11139 0.0
H396 H 0.25054 0.88359 0.1439 0.0
H397 H 0.21352 0.8565 0.13547 0.0
H398 H 0.18605 0.83811 0.12137 0.0
H399 H 0.17267 0.87258 0.14772 0.0
N400 N 0.22529 0.88532 0.15749 0.0
H401 H 0.20048 0.89128 0.16041 0.0
C402 C 0.10422 0.79916 0.13943 0.0
C403 C 0.10338 0.78422 0.14353 0.0
C404 C 0.0977 0.77634 0.16552 0.0
C405 C 0.09279 0.78317 0.18412 0.0
C406 C 0.09362 0.79809 0.18011 0.0
C407 C 0.09933 0.80601 0.15795 0.0
C408 C 0.10432 0.79702 0.09509 0.0
C409 C 0.08788 0.78931 0.08944 0.0
C410 C 0.08054 0.77558 0.0738 0.0
C411 C 0.08956 0.76943 0.06283 0.0
C412 C 0.10628 0.77839 0.06596 0.0
C413 C 0.11359 0.79192 0.08205 0.0
C414 C 0.12736 0.81884 0.11881 0.0
C415 C 0.13805 0.81394 0.12742 0.0
C416 C 0.1541 0.82524 0.13189 0.0
C417 C 0.16002 0.84173 0.12763 0.0
C418 C 0.14944 0.84657 0.11831 0.0
C419 C 0.13326 0.83521 0.11401 0.0
C420 C 0.22816 0.89304 0.18164 0.0
C421 C 0.23214 0.90931 0.18506 0.0
C422 C 0.23615 0.91668 0.2086 0.0
C423 C 0.23576 0.90781 0.22916 0.0
C424 C 0.23101 0.89138 0.22595 0.0
C425 C 0.22736 0.88411 0.20234 0.0
C426 C 0.23598 0.89454 0.13849 0.0
C427 C 0.23366 0.90548 0.12449 0.0
C428 C 0.24438 0.91433 0.10633 0.0
C429 C 0.25741 0.91212 0.10141 0.0
C430 C 0.25933 0.90076 0.11505 0.0
C431 C 0.2488 0.8922 0.13352 0.0
C432 C 0.20894 0.87502 0.14941 0.0
C433 C 0.20463 0.86006 0.13808 0.0
C434 C 0.1889 0.84956 0.13016 0.0
C435 C 0.17703 0.85371 0.13377 0.0
C436 C 0.18149 0.869 0.1445 0.0
C437 C 0.19735 0.87964 0.15207 0.0
H438 H 0.32706 0.22962 0.88269 0.0
N439 N 0.30074 0.20042 0.89228 0.0
H440 H 0.33201 0.24481 0.84544 0.0
H441 H 0.28181 0.19231 0.85167 0.0
H442 H 0.28699 0.20747 0.8135 0.0
H443 H 0.28614 0.21585 0.90908 0.0
H444 H 0.29684 0.23849 0.93869 0.0
H445 H 0.32581 0.20858 0.92593 0.0
H446 H 0.33566 0.23004 0.95711 0.0
H447 H 0.32795 0.20369 0.87113 0.0
H448 H 0.28684 0.17126 0.9122 0.0
H449 H 0.33642 0.18404 0.86951 0.0
H450 H 0.2962 0.1517 0.91257 0.0
H451 H 0.35218 0.10257 0.867 0.0
H452 H 0.3459 0.08619 0.82939 0.0
H453 H 0.31722 0.10612 0.80266 0.0
H454 H 0.32265 0.1217 0.84067 0.0
H455 H 0.31879 0.09108 0.89334 0.0
H456 H 0.32305 0.07512 0.92381 0.0
H457 H 0.36567 0.11828 0.95115 0.0
H458 H 0.36213 0.13363 0.91869 0.0
H459 H 0.35782 0.15384 0.88604 0.0
H460 H 0.3482 0.1728 0.89182 0.0
H461 H 0.2996 0.13271 0.88999 0.0
N462 N 0.34084 0.12195 0.88132 0.0
H463 H 0.30971 0.11382 0.88641 0.0
C464 C 0.3039 0.20976 0.87016 0.0
C465 C 0.31812 0.22467 0.86787 0.0
C466 C 0.32105 0.23329 0.84633 0.0
C467 C 0.30998 0.22727 0.82636 0.0
C468 C 0.29573 0.21245 0.82861 0.0
C469 C 0.29276 0.20377 0.85032 0.0
C470 C 0.30518 0.21059 0.91459 0.0
C471 C 0.29679 0.21869 0.91987 0.0
C472 C 0.30294 0.23165 0.93703 0.0
C473 C 0.31745 0.23654 0.94998 0.0
C474 C 0.32483 0.22715 0.9468 0.0
C475 C 0.319 0.21456 0.92903 0.0
C476 C 0.30638 0.18891 0.89137 0.0
C477 C 0.32064 0.19235 0.87992 0.0
C478 C 0.32574 0.18106 0.87941 0.0
C479 C 0.31715 0.16621 0.89113 0.0
C480 C 0.30304 0.16286 0.90298 0.0
C481 C 0.2977 0.17407 0.90295 0.0
C482 C 0.33722 0.11281 0.85795 0.0
C483 C 0.34423 0.10321 0.85333 0.0
C484 C 0.34082 0.09397 0.83149 0.0
C485 C 0.33081 0.09455 0.81295 0.0
C486 C 0.3245 0.10484 0.81683 0.0
C487 C 0.32766 0.11386 0.83892 0.0
C488 C 0.3406 0.11337 0.90308 0.0
C489 C 0.32895 0.09709 0.90611 0.0
C490 C 0.33135 0.08801 0.92384 0.0
C491 C 0.3451 0.09522 0.93953 0.0
C492 C 0.35538 0.11208 0.93868 0.0
C493 C 0.3533 0.12097 0.92034 0.0
C494 C 0.33448 0.13257 0.88515 0.0
C495 C 0.34511 0.14922 0.88705 0.0
C496 C 0.33951 0.16001 0.8901 0.0
C497 C 0.32302 0.15441 0.89064 0.0
C498 C 0.31236 0.13756 0.88971 0.0
C499 C 0.31807 0.12671 0.88742 0.0
H500 H 0.75321 0.11741 0.84209 0.0
N501 N 0.77334 0.11732 0.87571 0.0
H502 H 0.74534 0.10311 0.80188 0.0
H503 H 0.7842 0.098 0.85628 0.0
H504 H 0.77629 0.08352 0.81631 0.0
H505 H 0.76627 0.08748 0.89187 0.0
H506 H 0.74808 0.07263 0.92459 0.0
H507 H 0.7581 0.1274 0.90464 0.0
H508 H 0.73977 0.11258 0.93738 0.0
H509 H 0.79009 0.14849 0.8665 0.0
H510 H 0.79421 0.10962 0.89816 0.0
H511 H 0.81839 0.16716 0.87585 0.0
H512 H 0.82249 0.12825 0.90801 0.0
H513 H 0.87389 0.19998 0.86349 0.0
H514 H 0.88546 0.21198 0.82464 0.0
H515 H 0.92966 0.21452 0.84747 0.0
H516 H 0.91773 0.20185 0.88614 0.0
H517 H 0.9071 0.20116 0.94425 0.0
H518 H 0.92085 0.22651 0.96924 0.0
H519 H 0.89999 0.24736 0.9219 0.0
H520 H 0.8865 0.22239 0.8974 0.0
H521 H 0.87634 0.16409 0.89216 0.0
H522 H 0.8479 0.1441 0.88717 0.0
H523 H 0.83628 0.18022 0.91131 0.0
N524 N 0.88957 0.19556 0.90279 0.0
H525 H 0.86425 0.19999 0.91583 0.0
C526 C 0.76931 0.10887 0.85209 0.0
C527 C 0.7583 0.11005 0.83648 0.0
C528 C 0.75375 0.10179 0.81364 0.0
C529 C 0.76016 0.09214 0.80595 0.0
C530 C 0.77126 0.09099 0.82161 0.0
C531 C 0.77577 0.09924 0.84452 0.0
C532 C 0.76341 0.10853 0.89572 0.0
C533 C 0.76062 0.09309 0.90177 0.0
C534 C 0.75018 0.08459 0.92043 0.0
C535 C 0.74245 0.09142 0.93348 0.0
C536 C 0.74565 0.10706 0.92783 0.0
C537 C 0.75603 0.11549 0.9091 0.0
C538 C 0.79005 0.12776 0.88164 0.0
C539 C 0.79713 0.14404 0.87558 0.0
C540 C 0.81325 0.15468 0.88112 0.0
C541 C 0.82266 0.14921 0.8929 0.0
C542 C 0.81557 0.1328 0.89883 0.0
C543 C 0.79939 0.12215 0.89328 0.0
C544 C 0.89498 0.19997 0.87792 0.0
C545 C 0.8859 0.20263 0.85996 0.0
C546 C 0.8926 0.20967 0.83775 0.0
C547 C 0.90856 0.21443 0.83307 0.0
C548 C 0.91729 0.21088 0.85036 0.0
C549 C 0.91053 0.20369 0.87251 0.0
C550 C 0.89563 0.20971 0.9191 0.0
C551 C 0.90526 0.21112 0.93969 0.0
C552 C 0.91316 0.2256 0.95381 0.0
C553 C 0.91142 0.23889 0.94763 0.0
C554 C 0.90136 0.23727 0.92748 0.0
C555 C 0.89366 0.22294 0.91331 0.0
C556 C 0.87274 0.18369 0.90406 0.0
C557 C 0.86764 0.16761 0.89676 0.0
C558 C 0.85139 0.1562 0.89395 0.0
C559 C 0.83985 0.16067 0.89847 0.0
C560 C 0.8449 0.17651 0.9071 0.0
C561 C 0.8611 0.1879 0.90982 0.0
H562 H 0.77521 0.7185 0.87992 0.0
N563 N 0.78958 0.70523 0.90415 0.0
H564 H 0.76245 0.71092 0.83865 0.0
H565 H 0.79001 0.68297 0.87191 0.0
H566 H 0.77765 0.67567 0.83029 0.0
H567 H 0.76859 0.6728 0.90724 0.0
H568 H 0.74532 0.66035 0.93311 0.0
H569 H 0.78258 0.71961 0.94019 0.0
H570 H 0.75948 0.70719 0.96669 0.0
H571 H 0.81773 0.72936 0.89203 0.0
H572 H 0.79586 0.68335 0.92738 0.0
H573 H 0.84387 0.73199 0.89859 0.0
H574 H 0.82193 0.6864 0.93569 0.0
H575 H 0.92644 0.73691 0.90186 0.0
H576 H 0.93639 0.73585 0.86109 0.0
H577 H 0.88911 0.6982 0.83763 0.0
H578 H 0.8795 0.69871 0.87818 0.0
H579 H 0.89209 0.68607 0.90974 0.0
H580 H 0.90499 0.67324 0.93112 0.0
H581 H 0.92749 0.71403 0.98283 0.0
H582 H 0.91479 0.72699 0.96083 0.0
H583 H 0.89057 0.74003 0.92632 0.0
H584 H 0.86413 0.73726 0.92668 0.0
H585 H 0.8428 0.68529 0.91788 0.0
N586 N 0.8977 0.71691 0.91883 0.0
H587 H 0.86916 0.6882 0.91949 0.0
C588 C 0.7837 0.70149 0.87888 0.0
C589 C 0.77592 0.70926 0.86906 0.0
C590 C 0.76856 0.70485 0.84566 0.0
C591 C 0.76905 0.69269 0.83144 0.0
C592 C 0.77719 0.68514 0.84092 0.0
C593 C 0.78431 0.68935 0.86461 0.0
C594 C 0.77727 0.69719 0.92177 0.0
C595 C 0.76682 0.68035 0.92043 0.0
C596 C 0.75355 0.67323 0.93532 0.0
C597 C 0.75047 0.68282 0.95177 0.0
C598 C 0.76139 0.69953 0.9539 0.0
C599 C 0.77465 0.70663 0.939 0.0
C600 C 0.80479 0.70631 0.90927 0.0
C601 C 0.81861 0.71995 0.90157 0.0
C602 C 0.83358 0.7215 0.90564 0.0
C603 C 0.83517 0.7095 0.918 0.0
C604 C 0.82126 0.69582 0.92587 0.0
C605 C 0.80622 0.69413 0.9213 0.0
C606 C 0.90228 0.71792 0.89341 0.0
C607 C 0.91818 0.72868 0.88772 0.0
C608 C 0.92381 0.72812 0.86438 0.0
C609 C 0.91356 0.71679 0.84623 0.0
C610 C 0.89737 0.70685 0.85138 0.0
C611 C 0.89182 0.70725 0.87473 0.0
C612 C 0.90255 0.70761 0.93367 0.0
C613 C 0.89948 0.69211 0.926 0.0
C614 C 0.90689 0.68475 0.9383 0.0
C615 C 0.91747 0.6927 0.9585 0.0
C616 C 0.91967 0.70772 0.96703 0.0
C617 C 0.9123 0.71507 0.95469 0.0
C618 C 0.88193 0.71443 0.9226 0.0
C619 C 0.88014 0.72804 0.92508 0.0
C620 C 0.86498 0.72641 0.92489 0.0
C621 C 0.8512 0.71106 0.92166 0.0
C622 C 0.85303 0.69732 0.92056 0.0
C623 C 0.86821 0.69897 0.92135 0.0
H624 H 0.73746 0.60309 0.46219 0.0
N625 N 0.76801 0.6189 0.45006 0.0
H626 H 0.7264 0.60301 0.50225 0.0
H627 H 0.78505 0.63004 0.49496 0.0
H628 H 0.77409 0.62909 0.53472 0.0
H629 H 0.76999 0.64794 0.46164 0.0
H630 H 0.75926 0.66168 0.43679 0.0
H631 H 0.75565 0.61097 0.40439 0.0
H632 H 0.7449 0.62466 0.37937 0.0
H633 H 0.7774 0.59776 0.43955 0.0
H634 H 0.79541 0.64844 0.45551 0.0
H635 H 0.80465 0.60254 0.43965 0.0
H636 H 0.82256 0.65325 0.45722 0.0
H637 H 0.88525 0.6205 0.49869 0.0
H638 H 0.89623 0.62801 0.54102 0.0
H639 H 0.8963 0.67313 0.53583 0.0
H640 H 0.88484 0.66527 0.49367 0.0
H641 H 0.89866 0.66955 0.45695 0.0
H642 H 0.92123 0.67977 0.42985 0.0
H643 H 0.90965 0.63071 0.41194 0.0
H644 H 0.88675 0.62057 0.43874 0.0
H645 H 0.8512 0.61157 0.47579 0.0
H646 H 0.82447 0.60733 0.46861 0.0
H647 H 0.84476 0.65503 0.43833 0.0
N648 N 0.87878 0.63778 0.4679 0.0
H649 H 0.87143 0.65945 0.44713 0.0
C650 C 0.7621 0.6169 0.47492 0.0
C651 C 0.74553 0.60866 0.47802 0.0
C652 C 0.73921 0.6085 0.50104 0.0
C653 C 0.74936 0.61632 0.52172 0.0
C654 C 0.76592 0.6234 0.51906 0.0
C655 C 0.77224 0.62388 0.49599 0.0
C656 C 0.76352 0.62833 0.43482 0.0
C657 C 0.76473 0.6429 0.44356 0.0
C658 C 0.75849 0.65068 0.42944 0.0
C659 C 0.75114 0.64418 0.40622 0.0
C660 C 0.75059 0.63002 0.39712 0.0
C661 C 0.75669 0.62217 0.41134 0.0
C662 C 0.78432 0.62263 0.44771 0.0
C663 C 0.78728 0.60994 0.44294 0.0
C664 C 0.80287 0.6127 0.44331 0.0
C665 C 0.81591 0.62825 0.44895 0.0
C666 C 0.81294 0.64114 0.45257 0.0
C667 C 0.79733 0.63841 0.45169 0.0
C668 C 0.88438 0.64234 0.49308 0.0
C669 C 0.8875 0.63192 0.50683 0.0
C670 C 0.89373 0.63622 0.53091 0.0
C671 C 0.89714 0.65117 0.54158 0.0
C672 C 0.8939 0.66161 0.52789 0.0
C673 C 0.88739 0.65715 0.50386 0.0
C674 C 0.89093 0.64421 0.44975 0.0
C675 C 0.90074 0.66095 0.44687 0.0
C676 C 0.91378 0.66681 0.43152 0.0
C677 C 0.91734 0.65607 0.41888 0.0
C678 C 0.90717 0.63932 0.42118 0.0
C679 C 0.8941 0.63348 0.43647 0.0
C680 C 0.86331 0.63568 0.46184 0.0
C681 C 0.84982 0.62105 0.46749 0.0
C682 C 0.83453 0.61862 0.46311 0.0
C683 C 0.83232 0.63076 0.45259 0.0
C684 C 0.84593 0.64544 0.44668 0.0
C685 C 0.86127 0.64795 0.45149 0.0
H686 H 0.38323 0.1278 0.47037 0.0
N687 N 0.36341 0.13773 0.45505 0.0
H688 H 0.38264 0.11482 0.50912 0.0
H689 H 0.34498 0.13495 0.49441 0.0
H690 H 0.34444 0.12221 0.53336 0.0
H691 H 0.33142 0.11643 0.45905 0.0
H692 H 0.3165 0.09031 0.43765 0.0
H693 H 0.37188 0.12861 0.41409 0.0
H694 H 0.3566 0.10283 0.39108 0.0
H695 H 0.38459 0.16615 0.47555 0.0
H696 H 0.34007 0.14283 0.43326 0.0
H697 H 0.3836 0.19103 0.47765 0.0
H698 H 0.33963 0.16797 0.43374 0.0
H699 H 0.37587 0.27127 0.48576 0.0
H700 H 0.37267 0.28034 0.52682 0.0
H701 H 0.33875 0.23099 0.54367 0.0
H702 H 0.34147 0.22203 0.50274 0.0
H703 H 0.32979 0.23459 0.46505 0.0
H704 H 0.31803 0.24543 0.43655 0.0
H705 H 0.36138 0.26706 0.39538 0.0
H706 H 0.37331 0.2568 0.42496 0.0
H707 H 0.38612 0.23797 0.4621 0.0
H708 H 0.38682 0.21292 0.45654 0.0
H709 H 0.33523 0.18564 0.45751 0.0
N710 N 0.36077 0.24142 0.46613 0.0
H711 H 0.33479 0.21091 0.46102 0.0
C712 C 0.36417 0.13228 0.47945 0.0
C713 C 0.37496 0.12687 0.48428 0.0
C714 C 0.37463 0.11953 0.50646 0.0
C715 C 0.36343 0.11742 0.52427 0.0
C716 C 0.35307 0.12348 0.51987 0.0
C717 C 0.35342 0.13084 0.49768 0.0
C718 C 0.35297 0.12436 0.43853 0.0
C719 C 0.33695 0.11367 0.44404 0.0
C720 C 0.32833 0.09871 0.4315 0.0
C721 C 0.33541 0.09419 0.41287 0.0
C722 C 0.35089 0.10563 0.4058 0.0
C723 C 0.3596 0.12049 0.41867 0.0
C724 C 0.36237 0.15237 0.45471 0.0
C725 C 0.37466 0.16642 0.46652 0.0
C726 C 0.37415 0.18075 0.46742 0.0
C727 C 0.36154 0.18167 0.4558 0.0
C728 C 0.34938 0.16772 0.44338 0.0
C729 C 0.3497 0.15321 0.44297 0.0
C730 C 0.35918 0.24598 0.49105 0.0
C731 C 0.3678 0.26241 0.49837 0.0
C732 C 0.3659 0.26757 0.52169 0.0
C733 C 0.35549 0.25633 0.53832 0.0
C734 C 0.34694 0.23986 0.53119 0.0
C735 C 0.34858 0.23474 0.50768 0.0
C736 C 0.35257 0.24523 0.44735 0.0
C737 C 0.33667 0.24148 0.44971 0.0
C738 C 0.32991 0.24759 0.43318 0.0
C739 C 0.33882 0.25734 0.41376 0.0
C740 C 0.3543 0.25994 0.41042 0.0
C741 C 0.36111 0.254 0.42716 0.0
C742 C 0.3605 0.22629 0.46243 0.0
C743 C 0.37501 0.22654 0.46094 0.0
C744 C 0.37533 0.21216 0.458 0.0
C745 C 0.36108 0.19708 0.45702 0.0
C746 C 0.34647 0.19692 0.45795 0.0
C747 C 0.34617 0.21139 0.46027 0.0
H748 H 0.78871 0.10728 0.47094 0.0
N749 N 0.79037 0.13402 0.44942 0.0
H750 H 0.77624 0.0954 0.50885 0.0
H751 H 0.77595 0.14433 0.48041 0.0
H752 H 0.7634 0.13233 0.51947 0.0
H753 H 0.76688 0.12915 0.41807 0.0
H754 H 0.75268 0.10664 0.38843 0.0
H755 H 0.80085 0.11364 0.43324 0.0
H756 H 0.78573 0.08996 0.40646 0.0
H757 H 0.81401 0.1314 0.47463 0.0
H758 H 0.80544 0.16187 0.42641 0.0
H759 H 0.84169 0.15184 0.47923 0.0
H760 H 0.83383 0.18213 0.42913 0.0
H761 H 0.93387 0.22847 0.49706 0.0
H762 H 0.94305 0.24285 0.53675 0.0
H763 H 0.89649 0.23764 0.54663 0.0
H764 H 0.8879 0.22451 0.50629 0.0
H765 H 0.91048 0.24757 0.46384 0.0
H766 H 0.9288 0.26591 0.43353 0.0
H767 H 0.93808 0.22824 0.40847 0.0
H768 H 0.92033 0.21037 0.43947 0.0
H769 H 0.89371 0.18585 0.47243 0.0
H770 H 0.86622 0.16493 0.46278 0.0
H771 H 0.85337 0.20204 0.45444 0.0
N772 N 0.90579 0.21761 0.47407 0.0
H773 H 0.88126 0.22277 0.46197 0.0
C774 C 0.7833 0.12684 0.47249 0.0
C775 C 0.78328 0.11298 0.48107 0.0
C776 C 0.77625 0.10623 0.50315 0.0
C777 C 0.76901 0.11304 0.51737 0.0
C778 C 0.76892 0.12683 0.50889 0.0
C779 C 0.77609 0.1337 0.48668 0.0
C780 C 0.78452 0.12275 0.42855 0.0
C781 C 0.77129 0.12087 0.41489 0.0
C782 C 0.76301 0.10775 0.39827 0.0
C783 C 0.76742 0.09578 0.39573 0.0
C784 C 0.78169 0.09864 0.40775 0.0
C785 C 0.79033 0.11217 0.42353 0.0
C786 C 0.80737 0.14521 0.45057 0.0
C787 C 0.81803 0.14241 0.46473 0.0
C788 C 0.83413 0.15417 0.46707 0.0
C789 C 0.8402 0.16884 0.45467 0.0
C790 C 0.82964 0.17124 0.43953 0.0
C791 C 0.81341 0.1596 0.4377 0.0
C792 C 0.91022 0.22527 0.49843 0.0
C793 C 0.92567 0.23046 0.50782 0.0
C794 C 0.93084 0.23859 0.53069 0.0
C795 C 0.92052 0.24141 0.54522 0.0
C796 C 0.90493 0.23602 0.53592 0.0
C797 C 0.89989 0.22823 0.5127 0.0
C798 C 0.91436 0.22774 0.45408 0.0
C799 C 0.91634 0.24327 0.45156 0.0
C800 C 0.92674 0.25368 0.43416 0.0
C801 C 0.93515 0.24864 0.41891 0.0
C802 C 0.93214 0.23266 0.42037 0.0
C803 C 0.92192 0.22238 0.43788 0.0
C804 C 0.88938 0.20574 0.46851 0.0
C805 C 0.8849 0.18937 0.46841 0.0
C806 C 0.86911 0.17745 0.46307 0.0
C807 C 0.85732 0.18165 0.45824 0.0
C808 C 0.86201 0.19821 0.45779 0.0
C809 C 0.87794 0.21014 0.46245 0.0
H810 H 0.03672 0.57298 0.18586 0.0
N811 N 0.01438 0.54925 0.21122 0.0
H812 H 0.03295 0.58547 0.1495 0.0
H813 H 0.98657 0.53763 0.18358 0.0
H814 H 0.98277 0.54938 0.14648 0.0
H815 H 0.99246 0.55804 0.22302 0.0
H816 H 0.9976 0.58064 0.25066 0.0
H817 H 0.03706 0.56213 0.24653 0.0
H818 H 0.04182 0.58395 0.27579 0.0
H819 H 0.03313 0.53651 0.21143 0.0
H820 H 0.98438 0.52454 0.21975 0.0
H821 H 0.02549 0.50821 0.2155 0.0
H822 H 0.97612 0.49584 0.2211 0.0
H823 H 0.0068 0.42827 0.20636 0.0
H824 H 0.0114 0.41722 0.16875 0.0
H825 H 0.96761 0.41137 0.13636 0.0
H826 H 0.96259 0.42149 0.1749 0.0
H827 H 0.96472 0.40167 0.23273 0.0
H828 H 0.97337 0.38979 0.26435 0.0
H829 H 0.01401 0.43704 0.28253 0.0
H830 H 0.00612 0.44841 0.2493 0.0
H831 H 0.00684 0.4563 0.19426 0.0
H832 H 0.01414 0.48439 0.19409 0.0
H833 H 0.97484 0.47436 0.24122 0.0
N834 N 0.98075 0.4315 0.21613 0.0
H835 H 0.96664 0.44564 0.23921 0.0
C836 C 0.01204 0.55434 0.18741 0.0
C837 C 0.02499 0.5676 0.177 0.0
C838 C 0.02278 0.57467 0.15611 0.0
C839 C 0.0075 0.56849 0.14496 0.0
C840 C 0.99465 0.55465 0.15476 0.0
C841 C 0.99685 0.54774 0.1759 0.0
C842 C 0.01467 0.55879 0.23224 0.0
C843 C 0.00309 0.56343 0.23485 0.0
C844 C 0.00602 0.57633 0.25089 0.0
C845 C 0.0204 0.58452 0.265 0.0
C846 C 0.03091 0.57835 0.26458 0.0
C847 C 0.02814 0.56574 0.24811 0.0
C848 C 0.00929 0.53248 0.21451 0.0
C849 C 0.02069 0.52763 0.21374 0.0
C850 C 0.01621 0.51137 0.21577 0.0
C851 C 5e-05 0.49945 0.21792 0.0
C852 C 0.98867 0.50451 0.2195 0.0
C853 C 0.9933 0.52093 0.21825 0.0
C854 C 0.98409 0.4254 0.19369 0.0
C855 C 0.99804 0.42439 0.19134 0.0
C856 C 0.00079 0.41825 0.16958 0.0
C857 C 0.98986 0.41328 0.1494 0.0
C858 C 0.97612 0.41468 0.15164 0.0
C859 C 0.97326 0.42059 0.17358 0.0
C860 C 0.98471 0.42585 0.23831 0.0
C861 C 0.97537 0.40947 0.24383 0.0
C862 C 0.98032 0.40274 0.26218 0.0
C863 C 0.99461 0.41234 0.27599 0.0
C864 C 0.00324 0.42908 0.27185 0.0
C865 C 0.99856 0.43571 0.25293 0.0
C866 C 0.98584 0.4486 0.21633 0.0
C867 C 0.99955 0.45995 0.20426 0.0
C868 C 0.00394 0.47627 0.20457 0.0
C869 C 0.99518 0.4819 0.21775 0.0
C870 C 0.98174 0.47058 0.23039 0.0
C871 C 0.97707 0.45413 0.22946 0.0
H872 H 0.58263 0.53664 0.22635 0.0
N873 N 0.55589 0.52942 0.24896 0.0
H874 H 0.59174 0.5504 0.18734 0.0
H875 H 0.53821 0.53631 0.21623 0.0
H876 H 0.54698 0.54956 0.1772 0.0
H877 H 0.55065 0.55503 0.2532 0.0
H878 H 0.56652 0.57924 0.27875 0.0
H879 H 0.57389 0.53184 0.28815 0.0
H880 H 0.589 0.5556 0.31551 0.0
H881 H 0.55126 0.49974 0.2503 0.0
H882 H 0.52645 0.52655 0.25391 0.0
H883 H 0.52592 0.47437 0.24966 0.0
H884 H 0.50089 0.50132 0.25093 0.0
H885 H 0.44532 0.39719 0.21273 0.0
H886 H 0.43307 0.38782 0.17147 0.0
H887 H 0.43209 0.43223 0.16295 0.0
H888 H 0.44431 0.44145 0.20445 0.0
H889 H 0.42895 0.43226 0.24206 0.0
H890 H 0.40807 0.42125 0.2724 0.0
H891 H 0.42865 0.39412 0.3032 0.0
H892 H 0.44968 0.40545 0.27289 0.0
H893 H 0.48057 0.43282 0.21789 0.0
H894 H 0.50535 0.45853 0.22243 0.0
H895 H 0.48168 0.4775 0.26752 0.0
N896 N 0.45246 0.42467 0.23625 0.0
H897 H 0.45673 0.45223 0.26121 0.0
C898 C 0.55979 0.53538 0.22433 0.0
C899 C 0.5747 0.53917 0.21543 0.0
C900 C 0.57983 0.54695 0.1931 0.0
C901 C 0.57009 0.55113 0.17922 0.0
C902 C 0.55484 0.54667 0.18761 0.0
C903 C 0.54974 0.53893 0.20995 0.0
C904 C 0.56144 0.54176 0.26829 0.0
C905 C 0.55879 0.55493 0.26699 0.0
C906 C 0.56786 0.56882 0.28192 0.0
C907 C 0.57947 0.56968 0.29892 0.0
C908 C 0.58065 0.55569 0.30207 0.0
C909 C 0.57185 0.54197 0.28671 0.0
C910 C 0.54073 0.51496 0.25163 0.0
C911 C 0.54027 0.50009 0.25091 0.0
C912 C 0.52572 0.48561 0.25014 0.0
C913 C 0.5112 0.48566 0.24945 0.0
C914 C 0.51173 0.50068 0.25141 0.0
C915 C 0.52637 0.51519 0.25284 0.0
C916 C 0.44574 0.41996 0.21154 0.0
C917 C 0.44252 0.4049 0.20185 0.0
C918 C 0.43557 0.39962 0.1783 0.0
C919 C 0.43165 0.40931 0.16391 0.0
C920 C 0.43484 0.42443 0.17368 0.0
C921 C 0.44188 0.42975 0.1973 0.0
C922 C 0.44083 0.41956 0.2552 0.0
C923 C 0.42903 0.42404 0.25543 0.0
C924 C 0.41707 0.41769 0.27275 0.0
C925 C 0.41663 0.40671 0.29009 0.0
C926 C 0.42874 0.40267 0.29027 0.0
C927 C 0.44071 0.40905 0.27295 0.0
C928 C 0.46673 0.44037 0.23922 0.0
C929 C 0.48072 0.44259 0.22858 0.0
C930 C 0.49497 0.45729 0.23153 0.0
C931 C 0.49574 0.47015 0.24579 0.0
C932 C 0.48163 0.468 0.25625 0.0
C933 C 0.46725 0.45336 0.25279 0.0
H934 H 0.54907 0.99037 0.21769 0.0
N935 N 0.54639 0.01662 0.23156 0.0
H936 H 0.55906 0.98639 0.17905 0.0
H937 H 0.55475 0.03553 0.19276 0.0
H938 H 0.5641 0.03127 0.15319 0.0
H939 H 0.57602 0.03646 0.24796 0.0
H940 H 0.59162 0.03088 0.27816 0.0
H941 H 0.53442 0.99061 0.26295 0.0
H942 H 0.54989 0.9851 0.29271 0.0
H943 H 0.52182 0.98542 0.22404 0.0
H944 H 0.53279 0.03449 0.23861 0.0
H945 H 0.49358 0.97649 0.22162 0.0
H946 H 0.50452 0.02597 0.23409 0.0
H947 H 0.40827 0.96076 0.17587 0.0
H948 H 0.40155 0.96781 0.13605 0.0
H949 H 0.43826 0.01767 0.14959 0.0
H950 H 0.44508 0.01039 0.18924 0.0
H951 H 0.42747 0.00622 0.22439 0.0
H952 H 0.4102 0.00635 0.25644 0.0
H953 H 0.3946 0.95622 0.27015 0.0
H954 H 0.41215 0.95628 0.23813 0.0
H955 H 0.44676 0.968 0.18878 0.0
H956 H 0.47485 0.97662 0.19543 0.0
H957 H 0.47919 0.01266 0.24938 0.0
N958 N 0.43032 0.98029 0.20898 0.0
H959 H 0.45153 0.00484 0.24108 0.0
C960 C 0.55141 0.01345 0.20826 0.0
C961 C 0.55231 0.99938 0.20376 0.0
C962 C 0.55788 0.99702 0.18144 0.0
C963 C 0.56243 0.00852 0.16291 0.0
C964 C 0.56098 0.02231 0.16717 0.0
C965 C 0.55557 0.02474 0.18967 0.0
C966 C 0.55405 0.01405 0.2528 0.0
C967 C 0.57015 0.02539 0.25809 0.0
C968 C 0.57907 0.02213 0.27515 0.0
C969 C 0.572 0.00747 0.28755 0.0
C970 C 0.55564 0.99653 0.28348 0.0
C971 C 0.54675 0.99971 0.26622 0.0
C972 C 0.52946 0.01065 0.2321 0.0
C973 C 0.51814 0.99429 0.22699 0.0
C974 C 0.50192 0.98923 0.22514 0.0
C975 C 0.49661 0.00049 0.22739 0.0
C976 C 0.508 0.01684 0.2327 0.0
C977 C 0.52421 0.02179 0.23519 0.0
C978 C 0.4271 0.98498 0.18543 0.0
C979 C 0.41487 0.97318 0.17014 0.0
C980 C 0.411 0.97727 0.14753 0.0
C981 C 0.4193 0.99334 0.13976 0.0
C982 C 0.43173 0.00518 0.15499 0.0
C983 C 0.43559 0.00105 0.17768 0.0
C984 C 0.42101 0.98114 0.22879 0.0
C985 C 0.42039 0.99527 0.23431 0.0
C986 C 0.41047 0.99532 0.25261 0.0
C987 C 0.40097 0.98128 0.26576 0.0
C988 C 0.4019 0.96729 0.26055 0.0
C989 C 0.41183 0.96726 0.24224 0.0
C990 C 0.44688 0.98555 0.21447 0.0
C991 C 0.45383 0.97777 0.20202 0.0
C992 C 0.46989 0.98264 0.2061 0.0
C993 C 0.4794 0.99527 0.22322 0.0
C994 C 0.47238 0.00304 0.23583 0.0
C995 C 0.45638 0.9984 0.23128 0.0
H996 H 0.41852 0.95683 0.79682 0.0
N997 N 0.44511 0.97925 0.77709 0.0
H998 H 0.40671 0.95928 0.83494 0.0
H999 H 0.45956 0.00398 0.81193 0.0
H1000 H 0.44831 0.00622 0.85035 0.0
H1001 H 0.45666 0.0116 0.7705 0.0
H1002 H 0.44453 0.02314 0.74391 0.0
H1003 H 0.42254 0.96373 0.74253 0.0
H1004 H 0.41028 0.97519 0.71581 0.0
H1005 H 0.44802 0.95371 0.76678 0.0
H1006 H 0.47574 0.00507 0.78224 0.0
H1007 H 0.47241 0.95217 0.76662 0.0
H1008 H 0.49995 0.00353 0.78453 0.0
H1009 H 0.54877 0.94965 0.80972 0.0
H1010 H 0.55787 0.94972 0.85227 0.0
H1011 H 0.56078 0.99573 0.86701 0.0
H1012 H 0.55121 0.99533 0.82466 0.0
H1013 H 0.56906 0.00385 0.79177 0.0
H1014 H 0.59175 0.01656 0.76505 0.0
H1015 H 0.57249 0.97219 0.72113 0.0
H1016 H 0.54985 0.95935 0.74854 0.0
H1017 H 0.51493 0.95012 0.7977 0.0
H1018 H 0.49098 0.95222 0.79347 0.0
H1019 H 0.51921 0.00037 0.76551 0.0
N1020 N 0.54469 0.97224 0.78863 0.0
H1021 H 0.54312 0.99864 0.77174 0.0
C1022 C 0.4399 0.98011 0.80146 0.0
C1023 C 0.42518 0.96748 0.80873 0.0
C1024 C 0.41851 0.96889 0.83058 0.0
C1025 C 0.42652 0.98301 0.84567 0.0
C1026 C 0.4417 0.99529 0.83898 0.0
C1027 C 0.44827 0.99394 0.817 0.0
C1028 C 0.44053 0.98674 0.75836 0.0
C1029 C 0.4469 0.0036 0.7581 0.0
C1030 C 0.4399 0.01019 0.74292 0.0
C1031 C 0.42635 4e-05 0.728 0.0
C1032 C 0.42059 0.98329 0.72735 0.0
C1033 C 0.42765 0.97674 0.74237 0.0
C1034 C 0.45994 0.97935 0.77504 0.0
C1035 C 0.4594 0.96464 0.77027 0.0
C1036 C 0.47337 0.96379 0.77054 0.0
C1037 C 0.48826 0.97765 0.77616 0.0
C1038 C 0.48881 0.99256 0.78002 0.0
C1039 C 0.47482 0.99344 0.77912 0.0
C1040 C 0.54948 0.9725 0.81401 0.0
C1041 C 0.55126 0.95966 0.82223 0.0
C1042 C 0.55641 0.95971 0.84646 0.0
C1043 C 0.56008 0.97277 0.86279 0.0
C1044 C 0.55817 0.9856 0.85464 0.0
C1045 C 0.55274 0.9854 0.83051 0.0
C1046 C 0.55775 0.98052 0.77223 0.0
C1047 C 0.56965 0.9968 0.77646 0.0
C1048 C 0.58259 0.00414 0.76098 0.0
C1049 C 0.58394 0.99537 0.741 0.0
C1050 C 0.57188 0.9792 0.73656 0.0
C1051 C 0.55892 0.97188 0.75205 0.0
C1052 C 0.53086 0.97405 0.78494 0.0
C1053 C 0.5159 0.96113 0.79071 0.0
C1054 C 0.50218 0.96232 0.78798 0.0
C1055 C 0.503 0.97642 0.77884 0.0
C1056 C 0.51804 0.98939 0.77292 0.0
C1057 C 0.53183 0.98832 0.77624 0.0
H1058 H 0.96994 0.55516 0.8337 0.0
N1059 N 0.99148 0.55419 0.80525 0.0
H1060 H 0.97457 0.57004 0.87304 0.0
H1061 H 0.02023 0.57205 0.82993 0.0
H1062 H 0.0251 0.58736 0.86878 0.0
H1063 H 0.01367 0.58564 0.79538 0.0
H1064 H 0.01039 0.60217 0.76514 0.0
H1065 H 0.97081 0.5436 0.76711 0.0
H1066 H 0.96819 0.55977 0.73494 0.0
H1067 H 0.97665 0.52354 0.81774 0.0
H1068 H 0.01984 0.56027 0.7861 0.0
H1069 H 0.98581 0.50404 0.8133 0.0
H1070 H 0.02896 0.54067 0.78062 0.0
H1071 H 0.00745 0.46671 0.83063 0.0
H1072 H 0.00828 0.455 0.86977 0.0
H1073 H 0.05198 0.45665 0.84945 0.0
H1074 H 0.05126 0.46875 0.81042 0.0
H1075 H 0.03996 0.46946 0.75071 0.0
H1076 H 0.0293 0.44495 0.72406 0.0
H1077 H 0.98858 0.42116 0.77051 0.0
H1078 H 0.99902 0.44545 0.79641 0.0
H1079 H 0.99789 0.46842 0.78132 0.0
H1080 H 0.98995 0.4887 0.78252 0.0
H1081 H 0.03824 0.52533 0.80331 0.0
N1082 N 0.02802 0.47319 0.79263 0.0
H1083 H 0.04638 0.50486 0.80107 0.0
C1084 C 0.99466 0.56242 0.829 0.0
C1085 C 0.98197 0.56206 0.84147 0.0
C1086 C 0.98468 0.5707 0.86378 0.0
C1087 C 0.00023 0.58 0.87404 0.0
C1088 C 0.01295 0.58018 0.8616 0.0
C1089 C 0.0102 0.57146 0.83933 0.0
C1090 C 0.99201 0.56347 0.78423 0.0
C1091 C 0.00372 0.57985 0.78228 0.0
C1092 C 0.00196 0.5893 0.76453 0.0
C1093 C 0.98872 0.58248 0.74789 0.0
C1094 C 0.97817 0.56564 0.74804 0.0
C1095 C 0.9797 0.55631 0.76625 0.0
C1096 C 0.99746 0.54321 0.80209 0.0
C1097 C 0.98807 0.5273 0.80963 0.0
C1098 C 0.99329 0.51617 0.80687 0.0
C1099 C 0.00805 0.52071 0.7963 0.0
C1100 C 0.01758 0.53679 0.78895 0.0
C1101 C 0.01235 0.54798 0.79191 0.0
C1102 C 0.02937 0.46863 0.81746 0.0
C1103 C 0.01744 0.46495 0.83476 0.0
C1104 C 0.01785 0.45812 0.85712 0.0
C1105 C 0.03011 0.45475 0.86264 0.0
C1106 C 0.04245 0.45924 0.84591 0.0
C1107 C 0.04205 0.4661 0.82356 0.0
C1108 C 0.02039 0.4594 0.77555 0.0
C1109 C 0.02857 0.45904 0.75473 0.0
C1110 C 0.02251 0.44502 0.73965 0.0
C1111 C 0.00808 0.43109 0.74513 0.0
C1112 C 0.99958 0.43172 0.76543 0.0
C1113 C 0.00565 0.44565 0.78048 0.0
C1114 C 0.02291 0.48505 0.79105 0.0
C1115 C 0.00695 0.48076 0.78579 0.0
C1116 C 0.00232 0.49244 0.78672 0.0
C1117 C 0.0134 0.50864 0.7933 0.0
C1118 C 0.02941 0.513 0.79794 0.0
C1119 C 0.03408 0.50132 0.79677 0.0
H1120 H 0.46486 0.43602 0.8131 0.0
N1121 N 0.46832 0.46172 0.78985 0.0
H1122 H 0.45068 0.42488 0.85094 0.0
H1123 H 0.45606 0.4759 0.82029 0.0
H1124 H 0.44263 0.46538 0.8587 0.0
H1125 H 0.43828 0.45709 0.78196 0.0
H1126 H 0.41801 0.43662 0.754 0.0
H1127 H 0.47376 0.44789 0.75123 0.0
H1128 H 0.45385 0.42826 0.72164 0.0
H1129 H 0.49948 0.47367 0.79383 0.0
H1130 H 0.46389 0.48726 0.78028 0.0
H1131 H 0.52044 0.50203 0.79368 0.0
H1132 H 0.48463 0.51586 0.78173 0.0
H1133 H 0.58199 0.58482 0.82005 0.0
H1134 H 0.59141 0.5947 0.86165 0.0
H1135 H 0.54699 0.59334 0.87638 0.0
H1136 H 0.53823 0.58486 0.83351 0.0
H1137 H 0.56721 0.60665 0.77569 0.0
H1138 H 0.58941 0.61664 0.74727 0.0
H1139 H 0.58922 0.57145 0.75189 0.0
H1140 H 0.56742 0.56167 0.78037 0.0
H1141 H 0.55159 0.55302 0.82339 0.0
H1142 H 0.53057 0.52492 0.81955 0.0
H1143 H 0.50676 0.53731 0.76306 0.0
N1144 N 0.5533 0.57852 0.79827 0.0
H1145 H 0.52753 0.56579 0.76824 0.0
C1146 C 0.46168 0.45681 0.81387 0.0
C1147 C 0.46024 0.44259 0.82323 0.0
C1148 C 0.45219 0.43631 0.84496 0.0
C1149 C 0.4455 0.44424 0.858 0.0
C1150 C 0.44745 0.45884 0.84902 0.0
C1151 C 0.45534 0.465 0.8271 0.0
C1152 C 0.45744 0.45358 0.76919 0.0
C1153 C 0.44183 0.45105 0.76858 0.0
C1154 C 0.43023 0.43938 0.75232 0.0
C1155 C 0.43413 0.43033 0.73598 0.0
C1156 C 0.45025 0.43451 0.73458 0.0
C1157 C 0.46172 0.44588 0.75124 0.0
C1158 C 0.48022 0.47844 0.78744 0.0
C1159 C 0.49625 0.48286 0.79084 0.0
C1160 C 0.50817 0.4991 0.79104 0.0
C1161 C 0.50427 0.51135 0.78825 0.0
C1162 C 0.48814 0.50681 0.78386 0.0
C1163 C 0.47623 0.49047 0.78324 0.0
C1164 C 0.55938 0.58435 0.82322 0.0
C1165 C 0.5743 0.5869 0.83189 0.0
C1166 C 0.57962 0.59233 0.85612 0.0
C1167 C 0.56999 0.5948 0.87276 0.0
C1168 C 0.55497 0.59196 0.86416 0.0
C1169 C 0.54983 0.58697 0.83965 0.0
C1170 C 0.56542 0.58338 0.77996 0.0
C1171 C 0.57186 0.59886 0.7703 0.0
C1172 C 0.58456 0.60456 0.75425 0.0
C1173 C 0.59098 0.59478 0.74737 0.0
C1174 C 0.58436 0.57915 0.75663 0.0
C1175 C 0.57181 0.57353 0.77291 0.0
C1176 C 0.54101 0.56164 0.79633 0.0
C1177 C 0.54176 0.54979 0.81041 0.0
C1178 C 0.52979 0.53359 0.80789 0.0
C1179 C 0.51693 0.52872 0.79086 0.0
C1180 C 0.51631 0.54059 0.77662 0.0
C1181 C 0.5282 0.55686 0.77943 0.0
H1182 H 0.67807 0.89852 0.54366 0.0
N1183 N 0.65198 0.87023 0.55737 0.0
H1184 H 0.68074 0.91276 0.50607 0.0
H1185 H 0.63168 0.86017 0.51842 0.0
H1186 H 0.63466 0.87405 0.4796 0.0
H1187 H 0.63411 0.88155 0.57553 0.0
H1188 H 0.64276 0.9049 0.60341 0.0
H1189 H 0.67968 0.8844 0.58616 0.0
H1190 H 0.68814 0.90719 0.61514 0.0
H1191 H 0.6784 0.8718 0.53611 0.0
H1192 H 0.63861 0.84287 0.58197 0.0
H1193 H 0.68612 0.85144 0.53683 0.0
H1194 H 0.64716 0.82279 0.58464 0.0
H1195 H 0.71017 0.78879 0.52987 0.0
H1196 H 0.70735 0.77316 0.49192 0.0
H1197 H 0.6561 0.75146 0.49413 0.0
H1198 H 0.6591 0.76742 0.53135 0.0
H1199 H 0.66372 0.75765 0.56991 0.0
H1200 H 0.66669 0.74125 0.60095 0.0
H1201 H 0.71161 0.78256 0.62584 0.0
H1202 H 0.70909 0.79843 0.59306 0.0
H1203 H 0.7056 0.81948 0.55631 0.0
H1204 H 0.69771 0.83999 0.55931 0.0
H1205 H 0.64835 0.80214 0.56381 0.0
N1206 N 0.68709 0.78772 0.55684 0.0
H1207 H 0.65677 0.78193 0.56331 0.0
C1208 C 0.65446 0.87832 0.53416 0.0
C1209 C 0.66846 0.89305 0.52993 0.0
C1210 C 0.67009 0.90112 0.50809 0.0
C1211 C 0.65792 0.8946 0.48966 0.0
C1212 C 0.64417 0.87957 0.49352 0.0
C1213 C 0.64247 0.87156 0.5156 0.0
C1214 C 0.65617 0.88122 0.57851 0.0
C1215 C 0.64575 0.88682 0.58467 0.0
C1216 C 0.65074 0.90018 0.60076 0.0
C1217 C 0.66629 0.90816 0.61133 0.0
C1218 C 0.67623 0.9016 0.6069 0.0
C1219 C 0.6713 0.88837 0.5905 0.0
C1220 C 0.65758 0.85876 0.5586 0.0
C1221 C 0.67131 0.86112 0.54654 0.0
C1222 C 0.67592 0.84944 0.54731 0.0
C1223 C 0.66732 0.83532 0.56083 0.0
C1224 C 0.65391 0.83326 0.57356 0.0
C1225 C 0.64907 0.8448 0.57227 0.0
C1226 C 0.68493 0.77939 0.53342 0.0
C1227 C 0.69837 0.78082 0.52187 0.0
C1228 C 0.69671 0.77175 0.50037 0.0
C1229 C 0.68148 0.76095 0.49002 0.0
C1230 C 0.66802 0.75979 0.50137 0.0
C1231 C 0.66972 0.76894 0.5228 0.0
C1232 C 0.68656 0.77908 0.57856 0.0
C1233 C 0.67415 0.76322 0.58212 0.0
C1234 C 0.67578 0.75389 0.60025 0.0
C1235 C 0.68966 0.7604 0.61555 0.0
C1236 C 0.70106 0.77693 0.61381 0.0
C1237 C 0.6996 0.78609 0.59527 0.0
C1238 C 0.68176 0.79927 0.55884 0.0
C1239 C 0.6931 0.81571 0.55806 0.0
C1240 C 0.68849 0.82738 0.55953 0.0
C1241 C 0.67229 0.82282 0.56123 0.0
C1242 C 0.66094 0.80622 0.56261 0.0
C1243 C 0.66567 0.79456 0.56181 0.0
H1244 H 0.23622 0.87394 0.56729 0.0
N1245 N 0.2076 0.8672 0.582 0.0
H1246 H 0.24974 0.88838 0.53045 0.0
H1247 H 0.19387 0.87464 0.54341 0.0
H1248 H 0.20719 0.88888 0.50669 0.0
H1249 H 0.19916 0.89061 0.58132 0.0
H1250 H 0.21219 0.91566 0.60579 0.0
H1251 H 0.22386 0.87193 0.62423 0.0
H1252 H 0.23614 0.89658 0.65032 0.0
H1253 H 0.20418 0.83834 0.58881 0.0
H1254 H 0.17729 0.8624 0.57594 0.0
H1255 H 0.17979 0.81211 0.58467 0.0
H1256 H 0.15291 0.83622 0.5697 0.0
H1257 H 0.1052 0.73419 0.52566 0.0
H1258 H 0.09314 0.7266 0.48397 0.0
H1259 H 0.08814 0.76909 0.48387 0.0
H1260 H 0.10033 0.77664 0.52555 0.0
H1261 H 0.08163 0.75976 0.55739 0.0
H1262 H 0.06014 0.74401 0.58475 0.0
H1263 H 0.08941 0.72761 0.62116 0.0
H1264 H 0.11042 0.74241 0.59193 0.0
H1265 H 0.13968 0.76893 0.54451 0.0
H1266 H 0.16296 0.79549 0.55299 0.0
H1267 H 0.13274 0.81185 0.58521 0.0
N1268 N 0.10956 0.75914 0.55386 0.0
H1269 H 0.10937 0.78542 0.57506 0.0
C1270 C 0.21409 0.8732 0.55825 0.0
C1271 C 0.22972 0.87684 0.55381 0.0
C1272 C 0.23739 0.88505 0.53275 0.0
C1273 C 0.22954 0.88986 0.51577 0.0
C1274 C 0.21359 0.88549 0.5196 0.0
C1275 C 0.20592 0.87722 0.54061 0.0
C1276 C 0.21087 0.87953 0.60057 0.0
C1277 C 0.20693 0.89164 0.59664 0.0
C1278 C 0.21438 0.90602 0.61091 0.0
C1279 C 0.22566 0.90845 0.62974 0.0
C1280 C 0.228 0.89544 0.63545 0.0
C1281 C 0.2208 0.88121 0.62083 0.0
C1282 C 0.19262 0.85225 0.58217 0.0
C1283 C 0.19295 0.8379 0.58505 0.0
C1284 C 0.17899 0.82292 0.58233 0.0
C1285 C 0.16434 0.82193 0.5761 0.0
C1286 C 0.16391 0.83643 0.57443 0.0
C1287 C 0.17791 0.85147 0.5777 0.0
C1288 C 0.10364 0.7559 0.52863 0.0
C1289 C 0.10168 0.74194 0.51646 0.0
C1290 C 0.09482 0.73766 0.4927 0.0
C1291 C 0.08966 0.74724 0.48072 0.0
C1292 C 0.09187 0.76141 0.49277 0.0
C1293 C 0.09891 0.76578 0.51648 0.0
C1294 C 0.09755 0.75193 0.57219 0.0
C1295 C 0.08345 0.75274 0.57113 0.0
C1296 C 0.07115 0.74382 0.58717 0.0
C1297 C 0.07283 0.73428 0.60516 0.0
C1298 C 0.08741 0.73437 0.60713 0.0
C1299 C 0.09954 0.74299 0.59066 0.0
C1300 C 0.12287 0.77509 0.55943 0.0
C1301 C 0.13812 0.77829 0.55337 0.0
C1302 C 0.15144 0.79347 0.55852 0.0
C1303 C 0.14988 0.80585 0.5703 0.0
C1304 C 0.13446 0.80269 0.57607 0.0
C1305 C 0.12106 0.7875 0.57048 0.0
H1306 H 0.20835 0.34788 0.53982 0.0
N1307 N 0.22585 0.37119 0.57599 0.0
H1308 H 0.21685 0.34625 0.49872 0.0
H1309 H 0.25209 0.39302 0.55439 0.0
H1310 H 0.26117 0.39094 0.51347 0.0
H1311 H 0.24239 0.38649 0.61713 0.0
H1312 H 0.25865 0.37927 0.64342 0.0
H1313 H 0.22781 0.34353 0.57174 0.0
H1314 H 0.2439 0.33628 0.59777 0.0
H1315 H 0.21057 0.38757 0.57076 0.0
H1316 H 0.20302 0.34058 0.58965 0.0
H1317 H 0.18175 0.37687 0.57022 0.0
H1318 H 0.17445 0.33003 0.58982 0.0
H1319 H 0.08983 0.30626 0.52395 0.0
H1320 H 0.08344 0.31317 0.48372 0.0
H1321 H 0.11353 0.364 0.50295 0.0
H1322 H 0.12008 0.35696 0.54278 0.0
H1323 H 0.10214 0.34942 0.57709 0.0
H1324 H 0.08351 0.3461 0.60913 0.0
H1325 H 0.07307 0.29692 0.61844 0.0
H1326 H 0.09205 0.30049 0.58656 0.0
H1327 H 0.12599 0.31265 0.54921 0.0
H1328 H 0.15452 0.32357 0.55736 0.0
H1329 H 0.15748 0.36573 0.59361 0.0
N1330 N 0.10876 0.3263 0.55977 0.0
H1331 H 0.12906 0.35486 0.58489 0.0
C1332 C 0.2296 0.37072 0.5504 0.0
C1333 C 0.2197 0.35762 0.53417 0.0
C1334 C 0.22468 0.35658 0.51059 0.0
C1335 C 0.23979 0.36834 0.50282 0.0
C1336 C 0.24937 0.38175 0.51866 0.0
C1337 C 0.24427 0.38293 0.54213 0.0
C1338 C 0.23396 0.36568 0.59243 0.0
C1339 C 0.24254 0.37542 0.61304 0.0
C1340 C 0.2518 0.37128 0.628 0.0
C1341 C 0.25268 0.3573 0.62247 0.0
C1342 C 0.24369 0.34728 0.60223 0.0
C1343 C 0.2344 0.35138 0.5874 0.0
C1344 C 0.2091 0.36502 0.58019 0.0
C1345 C 0.20274 0.37509 0.57545 0.0
C1346 C 0.18627 0.36895 0.5752 0.0
C1347 C 0.17579 0.35255 0.57975 0.0
C1348 C 0.1822 0.34265 0.58583 0.0
C1349 C 0.19866 0.34878 0.58599 0.0
C1350 C 0.10541 0.331 0.53632 0.0
C1351 C 0.09503 0.31887 0.51939 0.0
C1352 C 0.09133 0.32286 0.49653 0.0
C1353 C 0.09794 0.33915 0.49016 0.0
C1354 C 0.10838 0.35134 0.50718 0.0
C1355 C 0.11207 0.34731 0.53006 0.0
C1356 C 0.09843 0.32511 0.57937 0.0
C1357 C 0.09597 0.33797 0.5861 0.0
C1358 C 0.08523 0.33603 0.60437 0.0
C1359 C 0.07675 0.32122 0.61625 0.0
C1360 C 0.07953 0.30853 0.60984 0.0
C1361 C 0.09028 0.31049 0.59158 0.0
C1362 C 0.12538 0.33285 0.56639 0.0
C1363 C 0.13281 0.32417 0.5591 0.0
C1364 C 0.14907 0.3304 0.56395 0.0
C1365 C 0.15828 0.34551 0.57626 0.0
C1366 C 0.15075 0.35412 0.58393 0.0
C1367 C 0.13445 0.34786 0.57904 0.0
H1368 H 0.01282 0.39361 0.05263 0.0
H1369 H 0.96203 0.36212 0.04217 0.0
H1370 H 0.95754 0.37146 0.08178 0.0
H1371 H 0.96789 0.38908 0.1187 0.0
H1372 H 0.01849 0.42257 0.1276 0.0
H1373 H 0.0232 0.41175 0.08966 0.0
C1374 C 0.00081 0.3887 0.05922 0.0
C1375 C 0.98778 0.37717 0.04459 0.0
C1376 C 0.99826 0.3945 0.08172 0.0
C1377 C 0.97224 0.37105 0.05311 0.0
C1378 C 0.96966 0.37638 0.07574 0.0
C1379 C 0.97995 0.3942 0.11227 0.0
C1380 C 0.99277 0.40667 0.12617 0.0
C1381 C 0.98256 0.38827 0.09003 0.0
C1382 C 0.00835 0.41281 0.11763 0.0
C1383 C 0.01108 0.40671 0.09577 0.0
H1384 H 0.59868 0.60565 0.10106 0.0
H1385 H 0.62051 0.57807 0.07724 0.0
H1386 H 0.60529 0.55743 0.10706 0.0
H1387 H 0.58769 0.54857 0.14253 0.0
H1388 H 0.56685 0.57694 0.16711 0.0
H1389 H 0.57952 0.59571 0.13406 0.0
C1390 C 0.59993 0.595 0.10206 0.0
C1391 C 0.61082 0.59348 0.08708 0.0
C1392 C 0.59136 0.58334 0.11951 0.0
C1393 C 0.61226 0.57958 0.08864 0.0
C1394 C 0.6036 0.5678 0.10576 0.0
C1395 C 0.58587 0.55882 0.14055 0.0
C1396 C 0.5764 0.56137 0.15736 0.0
C1397 C 0.59345 0.56978 0.12174 0.0
C1398 C 0.57393 0.57456 0.15431 0.0
C1399 C 0.58129 0.58541 0.13552 0.0
H1400 H 0.41048 0.01458 0.03356 0.0
H1401 H 0.36094 0.98392 0.05079 0.0
H1402 H 0.36872 0.97935 0.09135 0.0
H1403 H 0.38943 0.98321 0.12153 0.0
H1404 H 0.43902 0.01317 0.1046 0.0
H1405 H 0.43136 0.0191 0.06458 0.0
C1406 C 0.40139 0.00701 0.04625 0.0
C1407 C 0.38515 0.99953 0.03896 0.0
C1408 C 0.40593 0.00429 0.06965 0.0
C1409 C 0.37353 0.98974 0.05571 0.0
C1410 C 0.37795 0.98711 0.079 0.0
C1411 C 0.39858 0.99096 0.10903 0.0
C1412 C 0.41476 0.99761 0.11595 0.0
C1413 C 0.3941 0.99415 0.08603 0.0
C1414 C 0.42647 0.00796 0.09978 0.0
C1415 C 0.4221 0.01128 0.07684 0.0
H1416 H 0.39106 0.00356 0.92137 0.0
H1417 H 0.37035 0.95348 0.94054 0.0
H1418 H 0.38778 0.95011 0.91188 0.0
H1419 H 0.40754 0.96101 0.87921 0.0
H1420 H 0.42695 0.01085 0.85922 0.0
H1421 H 0.41169 0.01477 0.8909 0.0
C1422 C 0.39049 0.99195 0.91964 0.0
C1423 C 0.37938 0.97878 0.93303 0.0
C1424 C 0.40034 0.99006 0.90295 0.0
C1425 C 0.37878 0.96381 0.93039 0.0
C1426 C 0.38871 0.96187 0.91397 0.0
C1427 C 0.40846 0.97273 0.88184 0.0
C1428 C 0.4184 0.98559 0.86678 0.0
C1429 C 0.39931 0.97484 0.89977 0.0
C1430 C 0.41962 0.00078 0.87072 0.0
C1431 C 0.41076 0.00302 0.8887 0.0
H1432 H 0.03827 0.41576 0.94896 0.0
H1433 H 0.988 0.38471 0.9319 0.0
H1434 H 0.98866 0.40407 0.90275 0.0
H1435 H 0.00392 0.42836 0.87906 0.0
H1436 H 0.05434 0.45925 0.89472 0.0
H1437 H 0.05322 0.44135 0.9273 0.0
C1438 C 0.02741 0.41334 0.93914 0.0
C1439 C 0.01312 0.39875 0.94264 0.0
C1440 C 0.02793 0.4244 0.92189 0.0
C1441 C 0.99917 0.39581 0.92968 0.0
C1442 C 0.99954 0.40686 0.91287 0.0
C1443 C 0.01461 0.43142 0.88997 0.0
C1444 C 0.0292 0.44512 0.88441 0.0
C1445 C 0.01391 0.421 0.90842 0.0
C1446 C 0.04299 0.44868 0.89844 0.0
C1447 C 0.04235 0.43847 0.9171 0.0
H1448 H 0.58869 0.62376 0.98236 0.0
H1449 H 0.61659 0.60003 0.97872 0.0
H1450 H 0.6062 0.58998 0.93683 0.0
H1451 H 0.58913 0.58778 0.9016 0.0
H1452 H 0.56365 0.61419 0.9032 0.0
H1453 H 0.57277 0.6229 0.94576 0.0
C1454 C 0.59244 0.61636 0.97236 0.0
C1455 C 0.60331 0.61257 0.98359 0.0
C1456 C 0.58676 0.61099 0.94802 0.0
C1457 C 0.60827 0.60315 0.97039 0.0
C1458 C 0.6023 0.59737 0.94648 0.0
C1459 C 0.58576 0.59569 0.91092 0.0
C1460 C 0.57562 0.60022 0.89888 0.0
C1461 C 0.59158 0.60126 0.9351 0.0
C1462 C 0.57112 0.61015 0.9119 0.0
C1463 C 0.57648 0.61531 0.93626 0.0
H1464 H 0.01964 0.616 0.97845 0.0
H1465 H 0.98418 0.62846 0.9562 0.0
H1466 H 0.98002 0.61388 0.91678 0.0
H1467 H 0.98622 0.59731 0.88889 0.0
H1468 H 0.02086 0.584 0.9122 0.0
H1469 H 0.02572 0.59944 0.95082 0.0
C1470 C 0.01106 0.61565 0.96496 0.0
C1471 C 0.00226 0.62337 0.97034 0.0
C1472 C 0.00858 0.6071 0.94249 0.0
C1473 C 0.99112 0.62264 0.95262 0.0
C1474 C 0.98872 0.61429 0.93006 0.0
C1475 C 0.99472 0.59765 0.9025 0.0
C1476 C 0.00316 0.58947 0.89756 0.0
C1477 C 0.9973 0.60637 0.92488 0.0
C1478 C 0.01435 0.59033 0.91529 0.0
C1479 C 0.01707 0.59908 0.93748 0.0
H1480 H 0.39231 0.40869 0.93609 0.0
H1481 H 0.42366 0.39069 0.95668 0.0
H1482 H 0.44331 0.40862 0.92779 0.0
H1483 H 0.45049 0.42753 0.89407 0.0
H1484 H 0.41798 0.44367 0.87084 0.0
H1485 H 0.40019 0.4288 0.90376 0.0
C1486 C 0.40359 0.40894 0.93456 0.0
C1487 C 0.40648 0.39828 0.94827 0.0
C1488 C 0.41462 0.41893 0.91734 0.0
C1489 C 0.42105 0.39859 0.94601 0.0
C1490 C 0.43231 0.40887 0.92952 0.0
C1491 C 0.43951 0.4278 0.89615 0.0
C1492 C 0.43559 0.43664 0.87978 0.0
C1493 C 0.42901 0.41873 0.91457 0.0
C1494 C 0.42147 0.43714 0.88325 0.0
C1495 C 0.41117 0.4285 0.90197 0.0
H1496 H 0.57779 0.96291 0.97104 0.0
H1497 H 0.61816 0.0103 0.95944 0.0
H1498 H 0.6075 0.0104 0.91836 0.0
H1499 H 0.58676 0.99693 0.88553 0.0
H1500 H 0.54707 0.94913 0.89647 0.0
H1501 H 0.55738 0.94928 0.93806 0.0
C1502 C 0.58425 0.97328 0.95957 0.0
C1503 C 0.59873 0.9866 0.96837 0.0
C1504 C 0.57816 0.97319 0.93585 0.0
C1505 C 0.60701 0.99987 0.95312 0.0
C1506 C 0.60091 0.99996 0.92964 0.0
C1507 C 0.58034 0.98663 0.89715 0.0
C1508 C 0.56616 0.97308 0.88812 0.0
C1509 C 0.58649 0.98669 0.92082 0.0
C1510 C 0.55804 0.95967 0.9031 0.0
C1511 C 0.56392 0.95976 0.92684 0.0
H1512 H 0.59042 0.98733 0.07551 0.0
H1513 H 0.62322 0.03878 0.07543 0.0
H1514 H 0.60788 0.0431 0.1069 0.0
H1515 H 0.587 0.03189 0.13756 0.0
H1516 H 0.55365 0.98045 0.1364 0.0
H1517 H 0.56752 0.9765 0.10233 0.0
C1518 C 0.59411 0.9995 0.08209 0.0
C1519 C 0.60805 0.01267 0.07336 0.0
C1520 C 0.58529 0.00188 0.1002 0.0
C1521 C 0.61254 0.02841 0.08188 0.0
C1522 C 0.60383 0.03089 0.09998 0.0
C1523 C 0.58249 0.01985 0.12951 0.0
C1524 C 0.56945 0.00646 0.13992 0.0
C1525 C 0.59043 0.01766 0.10973 0.0
C1526 C 0.56392 0.99094 0.12926 0.0
C1527 C 0.57178 0.98866 0.10966 0.0
H1528 H 0.01084 0.61541 0.06198 0.0
H1529 H 0.96492 0.60303 0.09017 0.0
H1530 H 0.9663 0.58373 0.11776 0.0
H1531 H 0.98188 0.57268 0.13675 0.0
H1532 H 0.02733 0.5842 0.10706 0.0
H1533 H 0.02491 0.60178 0.07741 0.0
C1534 C 0.00113 0.60847 0.07411 0.0
C1535 C 0.98796 0.61086 0.07444 0.0
C1536 C 0.002 0.5974 0.08983 0.0
C1537 C 0.97521 0.60141 0.08968 0.0
C1538 C 0.97604 0.59045 0.10554 0.0
C1539 C 0.9911 0.57867 0.12343 0.0
C1540 C 0.00491 0.57727 0.12455 0.0
C1541 C 0.98956 0.58863 0.10617 0.0
C1542 C 0.01677 0.58535 0.10717 0.0
C1543 C 0.01536 0.59535 0.09007 0.0
H1544 H 0.39281 0.38707 0.06189 0.0
H1545 H 0.42699 0.37155 0.04834 0.0
H1546 H 0.43909 0.38154 0.08925 0.0
H1547 H 0.44032 0.39495 0.1287 0.0
H1548 H 0.40654 0.41083 0.14273 0.0
H1549 H 0.39412 0.40068 0.10172 0.0
C1550 C 0.40284 0.38579 0.06795 0.0
C1551 C 0.40893 0.37853 0.052 0.0
C1552 C 0.40992 0.39175 0.09152 0.0
C1553 C 0.42205 0.37712 0.06012 0.0
C1554 C 0.42901 0.38283 0.08356 0.0
C1555 C 0.43016 0.39608 0.12287 0.0
C1556 C 0.42433 0.40357 0.13879 0.0
C1557 C 0.42309 0.3902 0.09937 0.0
C1558 C 0.41135 0.40523 0.13075 0.0
C1559 C 0.40418 0.39934 0.10737 0.0
H1560 H 0.68217 0.71651 0.40259 0.0
H1561 H 0.64417 0.72377 0.37496 0.0
H1562 H 0.6469 0.74011 0.41164 0.0
H1563 H 0.66056 0.75313 0.45092 0.0
H1564 H 0.69819 0.74555 0.47918 0.0
H1565 H 0.69527 0.72883 0.44271 0.0
C1566 C 0.6744 0.72156 0.40463 0.0
C1567 C 0.66301 0.71888 0.3859 0.0
C1568 C 0.67607 0.73108 0.42579 0.0
C1569 C 0.65308 0.7256 0.38896 0.0
C1570 C 0.65464 0.735 0.40996 0.0
C1571 C 0.66801 0.74769 0.44928 0.0
C1572 C 0.67962 0.7507 0.46778 0.0
C1573 C 0.66616 0.73793 0.42839 0.0
C1574 C 0.68933 0.74371 0.46506 0.0
C1575 C 0.68759 0.73402 0.44429 0.0
H1576 H 0.26761 0.94603 0.44261 0.0
H1577 H 0.28851 0.91648 0.42533 0.0
H1578 H 0.27041 0.8959 0.45311 0.0
H1579 H 0.2499 0.88718 0.48454 0.0
H1580 H 0.2293 0.91698 0.50184 0.0
H1581 H 0.24581 0.93641 0.47149 0.0
C1582 C 0.26808 0.93501 0.44462 0.0
C1583 C 0.27947 0.93287 0.432 0.0
C1584 C 0.25769 0.92325 0.46069 0.0
C1585 C 0.27988 0.91847 0.43486 0.0
C1586 C 0.26956 0.9067 0.45081 0.0
C1587 C 0.24899 0.89789 0.48154 0.0
C1588 C 0.23843 0.90065 0.49547 0.0
C1589 C 0.25864 0.90911 0.46419 0.0
C1590 C 0.23721 0.91447 0.49118 0.0
C1591 C 0.24673 0.92566 0.47395 0.0
H1592 H 0.09235 0.36322 0.38463 0.0
H1593 H 0.04326 0.32567 0.39183 0.0
H1594 H 0.04949 0.32012 0.43292 0.0
H1595 H 0.0689 0.32542 0.46651 0.0
H1596 H 0.11811 0.36238 0.4591 0.0
H1597 H 0.11172 0.3688 0.4186 0.0
C1598 C 0.08298 0.35389 0.39521 0.0
C1599 C 0.06737 0.34487 0.38502 0.0
C1600 C 0.08665 0.35064 0.41885 0.0
C1601 C 0.05541 0.3328 0.39909 0.0
C1602 C 0.05894 0.32959 0.42263 0.0
C1603 C 0.07826 0.33481 0.45597 0.0
C1604 C 0.09397 0.34335 0.46581 0.0
C1605 C 0.07454 0.33832 0.4326 0.0
C1606 C 0.10588 0.35571 0.45209 0.0
C1607 C 0.10226 0.35933 0.42885 0.0
H1608 H 0.05401 0.30466 0.26576 0.0
H1609 H 0.08718 0.35496 0.28367 0.0
H1610 H 0.10589 0.35485 0.25438 0.0
H1611 H 0.11149 0.34138 0.22046 0.0
H1612 H 0.07712 0.29183 0.19965 0.0
H1613 H 0.06054 0.29058 0.23373 0.0
C1614 C 0.06547 0.3155 0.2636 0.0
C1615 C 0.06913 0.32984 0.27671 0.0
C1616 C 0.07597 0.3155 0.24608 0.0
C1617 C 0.08398 0.34382 0.27363 0.0
C1618 C 0.0947 0.34377 0.25684 0.0
C1619 C 0.10039 0.33028 0.22338 0.0
C1620 C 0.09551 0.31681 0.20725 0.0
C1621 C 0.09058 0.32983 0.24239 0.0
C1622 C 0.08129 0.30238 0.2118 0.0
C1623 C 0.07169 0.30169 0.23118 0.0
H1624 H 0.66282 0.71631 0.27057 0.0
H1625 H 0.71195 0.74153 0.29672 0.0
H1626 H 0.71804 0.76295 0.26756 0.0
H1627 H 0.70964 0.77375 0.23306 0.0
H1628 H 0.66055 0.74781 0.20658 0.0
H1629 H 0.65417 0.72766 0.23783 0.0
C1630 C 0.67482 0.72658 0.27018 0.0
C1631 C 0.6869 0.72728 0.28579 0.0
C1632 C 0.67826 0.73876 0.25328 0.0
C1633 C 0.70242 0.74066 0.28487 0.0
C1634 C 0.70592 0.75291 0.26817 0.0
C1635 C 0.69755 0.7637 0.23417 0.0
C1636 C 0.68561 0.76233 0.21748 0.0
C1637 C 0.69398 0.75195 0.25201 0.0
C1638 C 0.66994 0.74933 0.21939 0.0
C1639 C 0.66629 0.7377 0.23714 0.0
H1640 H 0.24995 0.93358 0.33992 0.0
H1641 H 0.29683 0.96342 0.31135 0.0
H1642 H 0.28685 0.95179 0.26994 0.0
H1643 H 0.26501 0.93244 0.24207 0.0
H1644 H 0.21873 0.90089 0.27102 0.0
H1645 H 0.22816 0.91384 0.31209 0.0
C1646 C 0.25791 0.93761 0.32455 0.0
C1647 C 0.27406 0.94939 0.3286 0.0
C1648 C 0.2522 0.93052 0.30093 0.0
C1649 C 0.28435 0.95434 0.30866 0.0
C1650 C 0.27866 0.94771 0.28499 0.0
C1651 C 0.25701 0.92855 0.2574 0.0
C1652 C 0.24121 0.9159 0.25371 0.0
C1653 C 0.26265 0.93571 0.28096 0.0
C1654 C 0.23094 0.91067 0.27362 0.0
C1655 C 0.23633 0.91806 0.29701 0.0
H1656 H 0.69332 0.94962 0.30869 0.0
H1657 H 0.654 0.95674 0.28822 0.0
H1658 H 0.65078 0.94267 0.24873 0.0
H1659 H 0.65832 0.92731 0.22071 0.0
H1660 H 0.6972 0.91966 0.24151 0.0
H1661 H 0.70153 0.93519 0.28 0.0
C1662 C 0.6841 0.94822 0.29557 0.0
C1663 C 0.67386 0.95418 0.3016 0.0
C1664 C 0.68222 0.93999 0.27292 0.0
C1665 C 0.66204 0.95226 0.28421 0.0
C1666 C 0.66015 0.94418 0.26159 0.0
C1667 C 0.66771 0.929 0.23371 0.0
C1668 C 0.67735 0.92223 0.22831 0.0
C1669 C 0.67002 0.9378 0.25591 0.0
C1670 C 0.68968 0.92482 0.24512 0.0
C1671 C 0.6921 0.93362 0.2672 0.0
H1672 H 0.06822 0.73413 0.26998 0.0
H1673 H 0.03064 0.74584 0.26834 0.0
H1674 H 0.04508 0.76669 0.23829 0.0
H1675 H 0.06675 0.77903 0.20874 0.0
H1676 H 0.10436 0.76725 0.21111 0.0
H1677 H 0.09147 0.74887 0.24457 0.0
C1678 C 0.06323 0.74129 0.2632 0.0
C1679 C 0.04825 0.73822 0.27095 0.0
C1680 C 0.07152 0.75311 0.24586 0.0
C1681 C 0.04215 0.74794 0.26254 0.0
C1682 C 0.05035 0.75979 0.24525 0.0
C1683 C 0.07232 0.77274 0.21697 0.0
C1684 C 0.08632 0.77425 0.20708 0.0
C1685 C 0.06482 0.76214 0.23623 0.0
C1686 C 0.09336 0.76598 0.21795 0.0
C1687 C 0.08604 0.75551 0.23714 0.0
H1688 H 0.27625 0.35029 0.31175 0.0
H1689 H 0.25015 0.29859 0.29882 0.0
H1690 H 0.24233 0.3022 0.25717 0.0
H1691 H 0.24368 0.32024 0.22429 0.0
H1692 H 0.26731 0.37184 0.23977 0.0
H1693 H 0.27559 0.36806 0.28039 0.0
C1694 C 0.26887 0.33982 0.29975 0.0
C1695 C 0.26392 0.32422 0.30808 0.0
C1696 C 0.2641 0.34198 0.27626 0.0
C1697 C 0.2541 0.31072 0.29268 0.0
C1698 C 0.24968 0.31279 0.26891 0.0
C1699 C 0.25039 0.33067 0.23659 0.0
C1700 C 0.25506 0.34635 0.22849 0.0
C1701 C 0.25465 0.3284 0.26048 0.0
C1702 C 0.26394 0.35966 0.24491 0.0
C1703 C 0.26858 0.35752 0.26837 0.0
H1704 H 0.27895 0.36955 0.41055 0.0
H1705 H 0.2558 0.31855 0.42523 0.0
H1706 H 0.24026 0.32204 0.45699 0.0
H1707 H 0.23571 0.33997 0.48382 0.0
H1708 H 0.25855 0.391 0.46957 0.0
H1709 H 0.27193 0.3871 0.43456 0.0
C1710 C 0.27031 0.35916 0.42041 0.0
C1711 C 0.26867 0.34385 0.41568 0.0
C1712 C 0.26156 0.36128 0.439 0.0
C1713 C 0.25737 0.33048 0.42853 0.0
C1714 C 0.24851 0.33248 0.44682 0.0
C1715 C 0.24324 0.35021 0.47271 0.0
C1716 C 0.24619 0.36579 0.47951 0.0
C1717 C 0.25086 0.34789 0.45267 0.0
C1718 C 0.25628 0.37892 0.46506 0.0
C1719 C 0.26388 0.37669 0.44496 0.0
H1720 H 0.67675 0.94567 0.40644 0.0
H1721 H 0.6262 0.92835 0.40664 0.0
H1722 H 0.62263 0.90793 0.43626 0.0
H1723 H 0.63432 0.89708 0.46534 0.0
H1724 H 0.68471 0.91348 0.46358 0.0
H1725 H 0.68787 0.93226 0.43142 0.0
C1726 C 0.66493 0.93732 0.41272 0.0
C1727 C 0.65181 0.93868 0.4046 0.0
C1728 C 0.66295 0.92557 0.42971 0.0
C1729 C 0.63652 0.92759 0.41266 0.0
C1730 C 0.63447 0.91595 0.42969 0.0
C1731 C 0.64594 0.90443 0.45754 0.0
C1732 C 0.65931 0.90405 0.46735 0.0
C1733 C 0.64767 0.9151 0.4388 0.0
C1734 C 0.67427 0.91382 0.45698 0.0
C1735 C 0.67609 0.92452 0.43845 0.0
H1736 H 0.0464 0.72488 0.38312 0.0
H1737 H 0.08392 0.71637 0.35923 0.0
H1738 H 0.0977 0.72608 0.39923 0.0
H1739 H 0.09915 0.7369 0.44109 0.0
H1740 H 0.06215 0.74611 0.46503 0.0
H1741 H 0.04824 0.73644 0.42488 0.0
C1742 C 0.05756 0.7251 0.38671 0.0
C1743 C 0.06406 0.71983 0.36821 0.0
C1744 C 0.06558 0.73092 0.40972 0.0
C1745 C 0.07864 0.72038 0.37308 0.0
C1746 C 0.08655 0.72592 0.39598 0.0
C1747 C 0.08802 0.73674 0.4375 0.0
C1748 C 0.08166 0.74215 0.45598 0.0
C1749 C 0.08013 0.73121 0.41442 0.0
C1750 C 0.06735 0.74213 0.451 0.0
C1751 C 0.05935 0.7365 0.42812 0.0
H1752 H 0.30446 0.05164 0.71441 0.0
H1753 H 0.35131 0.05667 0.71806 0.0
H1754 H 0.35756 0.07282 0.7563 0.0
H1755 H 0.35016 0.08637 0.78777 0.0
H1756 H 0.30266 0.07984 0.78565 0.0
H1757 H 0.29647 0.06382 0.7474 0.0
C1758 C 0.31603 0.05622 0.72361 0.0
C1759 C 0.32741 0.05298 0.71327 0.0
C1760 C 0.31953 0.06542 0.74571 0.0
C1761 C 0.34228 0.0589 0.72559 0.0
C1762 C 0.34591 0.06822 0.74743 0.0
C1763 C 0.33834 0.08125 0.77926 0.0
C1764 C 0.32697 0.0845 0.78971 0.0
C1765 C 0.33467 0.07164 0.75756 0.0
C1766 C 0.31184 0.07793 0.77791 0.0
C1767 C 0.3082 0.0686 0.75609 0.0
H1768 H 0.95338 0.25716 0.74924 0.0
H1769 H 0.92846 0.28326 0.76336 0.0
H1770 H 0.91139 0.26282 0.79198 0.0
H1771 H 0.90528 0.23912 0.8159 0.0
H1772 H 0.9302 0.21294 0.80267 0.0
H1773 H 0.94565 0.23195 0.77093 0.0
C1774 C 0.94408 0.25826 0.75833 0.0
C1775 C 0.94227 0.27178 0.75421 0.0
C1776 C 0.93444 0.24657 0.77514 0.0
C1777 C 0.93014 0.27301 0.76614 0.0
C1778 C 0.9204 0.26135 0.78262 0.0
C1779 C 0.91379 0.23729 0.80568 0.0
C1780 C 0.91658 0.22462 0.81172 0.0
C1781 C 0.92267 0.24828 0.78764 0.0
C1782 C 0.92794 0.2227 0.7986 0.0
C1783 C 0.93675 0.23353 0.78041 0.0
H1784 H 0.72576 0.67435 0.73463 0.0
H1785 H 0.76989 0.68424 0.70188 0.0
H1786 H 0.78266 0.68885 0.74277 0.0
H1787 H 0.78168 0.69142 0.78786 0.0
H1788 H 0.73811 0.68332 0.82035 0.0
H1789 H 0.72469 0.67661 0.77964 0.0
C1790 C 0.73812 0.67735 0.73647 0.0
C1791 C 0.74686 0.67894 0.71527 0.0
C1792 C 0.74551 0.68038 0.76001 0.0
C1793 C 0.76292 0.68302 0.71792 0.0
C1794 C 0.77023 0.68564 0.74129 0.0
C1795 C 0.76921 0.68802 0.78595 0.0
C1796 C 0.76085 0.68784 0.80692 0.0
C1797 C 0.76171 0.68456 0.76245 0.0
C1798 C 0.74476 0.68361 0.80434 0.0
C1799 C 0.7371 0.67976 0.78112 0.0
H1800 H 0.70947 0.6205 0.6095 0.0
H1801 H 0.75102 0.66813 0.61697 0.0
H1802 H 0.76413 0.66122 0.58521 0.0
H1803 H 0.76253 0.64303 0.55203 0.0
H1804 H 0.72139 0.59507 0.54394 0.0
H1805 H 0.70933 0.60077 0.5791 0.0
C1806 C 0.72152 0.62922 0.60452 0.0
C1807 C 0.72913 0.64494 0.61521 0.0
C1808 C 0.72896 0.6252 0.58586 0.0
C1809 C 0.74473 0.65612 0.60859 0.0
C1810 C 0.75227 0.65215 0.59045 0.0
C1811 C 0.75114 0.63358 0.55829 0.0
C1812 C 0.74288 0.61867 0.54514 0.0
C1813 C 0.7443 0.63692 0.57842 0.0
C1814 C 0.72793 0.60677 0.55339 0.0
C1815 C 0.72105 0.61 0.57359 0.0
H1816 H 0.36723 0.07587 0.61037 0.0
H1817 H 0.31608 0.05153 0.59899 0.0
H1818 H 0.3189 0.07155 0.56926 0.0
H1819 H 0.33593 0.09432 0.54357 0.0
H1820 H 0.38709 0.11843 0.55403 0.0
H1821 H 0.38422 0.10008 0.58695 0.0
C1822 C 0.35668 0.07506 0.60164 0.0
C1823 C 0.34147 0.06216 0.60685 0.0
C1824 C 0.3584 0.08647 0.58417 0.0
C1825 C 0.32794 0.06131 0.59537 0.0
C1826 C 0.32953 0.07274 0.57825 0.0
C1827 C 0.34645 0.09582 0.55342 0.0
C1828 C 0.36171 0.10769 0.54627 0.0
C1829 C 0.34471 0.08514 0.57212 0.0
C1830 C 0.37522 0.10926 0.55897 0.0
C1831 C 0.37358 0.0988 0.57782 0.0
H1832 H 0.95143 0.27312 0.6499 0.0
H1833 H 0.91995 0.29257 0.64174 0.0
H1834 H 0.91079 0.27899 0.60108 0.0
H1835 H 0.91202 0.26183 0.56789 0.0
H1836 H 0.94144 0.24005 0.57862 0.0
H1837 H 0.95134 0.2546 0.61799 0.0
C1838 C 0.94263 0.27445 0.63914 0.0
C1839 C 0.93648 0.28394 0.64861 0.0
C1840 C 0.93711 0.26626 0.6162 0.0
C1841 C 0.92486 0.28533 0.63475 0.0
C1842 C 0.91964 0.27758 0.61154 0.0
C1843 C 0.92039 0.26 0.57892 0.0
C1844 C 0.92605 0.24991 0.56987 0.0
C1845 C 0.92566 0.26798 0.6021 0.0
C1846 C 0.93713 0.24802 0.58453 0.0
C1847 C 0.94273 0.25624 0.60727 0.0
H1848 H 0.3514 0.27222 0.65034 0.0
H1849 H 0.33873 0.30534 0.61783 0.0
H1850 H 0.34127 0.29627 0.57656 0.0
H1851 H 0.34766 0.27925 0.54969 0.0
H1852 H 0.35901 0.24528 0.58242 0.0
H1853 H 0.35645 0.25436 0.62368 0.0
C1854 C 0.34919 0.27746 0.63423 0.0
C1855 C 0.345 0.28953 0.63717 0.0
C1856 C 0.35048 0.27206 0.61062 0.0
C1857 C 0.34194 0.29602 0.61609 0.0
C1858 C 0.34346 0.29088 0.59249 0.0
C1859 C 0.34959 0.2739 0.56592 0.0
C1860 C 0.35362 0.26172 0.56316 0.0
C1861 C 0.34782 0.27899 0.58954 0.0
C1862 C 0.35587 0.25467 0.5842 0.0
C1863 C 0.35444 0.25987 0.60774 0.0
H1864 H 0.73996 0.06687 0.60575 0.0
H1865 H 0.69934 0.07184 0.58615 0.0
H1866 H 0.71532 0.09267 0.55688 0.0
H1867 H 0.7398 0.10656 0.53291 0.0
H1868 H 0.78034 0.10149 0.55322 0.0
H1869 H 0.76543 0.08361 0.58621 0.0
C1870 C 0.73464 0.0726 0.59525 0.0
C1871 C 0.71844 0.0676 0.59767 0.0
C1872 C 0.74385 0.08444 0.57842 0.0
C1873 C 0.71181 0.07546 0.58448 0.0
C1874 C 0.72091 0.0873 0.56764 0.0
C1875 C 0.7455 0.10188 0.54497 0.0
C1876 C 0.76103 0.10506 0.54028 0.0
C1877 C 0.73681 0.09149 0.56388 0.0
C1878 C 0.76825 0.0989 0.55609 0.0
C1879 C 0.75976 0.0887 0.57498 0.0
H1880 H 0.93824 0.6775 0.64081 0.0
H1881 H 0.90027 0.63189 0.66562 0.0
H1882 H 0.88692 0.62619 0.62525 0.0
H1883 H 0.88648 0.63346 0.58233 0.0
H1884 H 0.92377 0.67916 0.5572 0.0
H1885 H 0.93683 0.68562 0.59827 0.0
C1886 C 0.92702 0.66635 0.63739 0.0
C1887 C 0.92035 0.65511 0.65621 0.0
C1888 C 0.91926 0.66316 0.61408 0.0
C1889 C 0.9057 0.64079 0.65153 0.0
C1890 C 0.89804 0.63747 0.6284 0.0
C1891 C 0.89744 0.64486 0.58594 0.0
C1892 C 0.90425 0.65577 0.56686 0.0
C1893 C 0.90479 0.64846 0.60949 0.0
C1894 C 0.91831 0.67061 0.57173 0.0
C1895 C 0.92581 0.67425 0.59513 0.0
H1896 H 0.95183 0.71389 0.75504 0.0
H1897 H 0.92198 0.6628 0.76707 0.0
H1898 H 0.90807 0.66851 0.79876 0.0
H1899 H 0.90599 0.68779 0.82581 0.0
H1900 H 0.93605 0.73905 0.81593 0.0
H1901 H 0.94841 0.7335 0.78088 0.0
C1902 C 0.94211 0.70401 0.76434 0.0
C1903 C 0.93798 0.68791 0.75855 0.0
C1904 C 0.93434 0.70741 0.7832 0.0
C1905 C 0.92545 0.67527 0.77094 0.0
C1906 C 0.91748 0.67853 0.78924 0.0
C1907 C 0.91495 0.6978 0.81565 0.0
C1908 C 0.92002 0.71381 0.8234 0.0
C1909 C 0.92206 0.69453 0.79586 0.0
C1910 C 0.932 0.7266 0.81041 0.0
C1911 C 0.93904 0.72343 0.79036 0.0
H1912 H 0.33831 0.27737 0.74216 0.0
H1913 H 0.28977 0.26746 0.73648 0.0
H1914 H 0.28189 0.24635 0.76687 0.0
H1915 H 0.28958 0.23295 0.79845 0.0
H1916 H 0.33823 0.24291 0.80306 0.0
H1917 H 0.34529 0.26181 0.76968 0.0
C1918 C 0.32599 0.27051 0.7473 0.0
C1919 C 0.31472 0.27417 0.73732 0.0
C1920 C 0.32159 0.25851 0.76483 0.0
C1921 C 0.29871 0.26492 0.74394 0.0
C1922 C 0.29421 0.2529 0.76143 0.0
C1923 C 0.30163 0.239 0.79179 0.0
C1924 C 0.31343 0.23677 0.80362 0.0
C1925 C 0.30565 0.2499 0.77249 0.0
C1926 C 0.32901 0.24472 0.79474 0.0
C1927 C 0.33306 0.25549 0.77558 0.0
H1928 H 0.75077 0.06095 0.69892 0.0
H1929 H 0.70179 0.0471 0.71231 0.0
H1930 H 0.70953 0.0597 0.75348 0.0
H1931 H 0.73023 0.07524 0.78536 0.0
H1932 H 0.77922 0.08944 0.7719 0.0
H1933 H 0.77138 0.0759 0.73122 0.0
C1934 C 0.74175 0.06061 0.71084 0.0
C1935 C 0.72572 0.05312 0.70237 0.0
C1936 C 0.74627 0.06793 0.73453 0.0
C1937 C 0.71422 0.05279 0.71821 0.0
C1938 C 0.71863 0.06001 0.7418 0.0
C1939 C 0.7392 0.07545 0.77347 0.0
C1940 C 0.7553 0.08341 0.78161 0.0
C1941 C 0.73463 0.06774 0.75006 0.0
C1942 C 0.76674 0.08329 0.76617 0.0
C1943 C 0.76227 0.07563 0.74285 0.0
H1944 H 0.03693 0.34197 0.03301 0.0
H1945 H 0.07366 0.37659 0.98711 0.0
H1946 H 0.09265 0.36939 0.00427 0.0
H1947 H 0.0988 0.35297 0.03178 0.0
H1948 H 0.06216 0.31847 0.07789 0.0
H1949 H 0.04316 0.32568 0.06082 0.0
C1950 C 0.04911 0.34801 0.02687 0.0
C1951 C 0.05384 0.35982 0.00883 0.0
C1952 C 0.05998 0.3437 0.03663 0.0
C1953 C 0.06966 0.36744 0.00097 0.0
C1954 C 0.08055 0.36332 0.01074 0.0
C1955 C 0.08668 0.34709 0.03819 0.0
C1956 C 0.08194 0.33513 0.05601 0.0
C1957 C 0.07583 0.35141 0.02849 0.0
C1958 C 0.0661 0.3275 0.06387 0.0
C1959 C 0.05524 0.33173 0.05428 0.0
H1960 H 0.62298 0.67873 0.07789 0.0
H1961 H 0.65833 0.68458 0.02549 0.0
H1962 H 0.6709 0.71401 0.03018 0.0
H1963 H 0.67316 0.73793 0.05187 0.0
H1964 H 0.63933 0.73136 0.10776 0.0
H1965 H 0.62462 0.70253 0.09826 0.0
C1966 C 0.63327 0.68642 0.06716 0.0
C1967 C 0.63973 0.67945 0.05145 0.0
C1968 C 0.64074 0.70328 0.07055 0.0
C1969 C 0.65317 0.68963 0.03784 0.0
C1970 C 0.66037 0.70646 0.04054 0.0
C1971 C 0.6626 0.73024 0.06206 0.0
C1972 C 0.65751 0.73704 0.08059 0.0
C1973 C 0.65451 0.71342 0.05735 0.0
C1974 C 0.64351 0.72675 0.09307 0.0
C1975 C 0.63513 0.71012 0.08788 0.0
H1976 H 0.29835 0.95141 0.01134 0.0
H1977 H 0.33548 0.95075 0.05562 0.0
H1978 H 0.31645 0.93614 0.08741 0.0
H1979 H 0.28947 0.92375 0.10268 0.0
H1980 H 0.25162 0.92209 0.05707 0.0
H1981 H 0.27082 0.93779 0.02607 0.0
C1982 C 0.30223 0.94807 0.02798 0.0
C1983 C 0.31825 0.95212 0.03116 0.0
C1984 C 0.29115 0.93937 0.04601 0.0
C1985 C 0.32316 0.94764 0.05268 0.0
C1986 C 0.31231 0.93934 0.07091 0.0
C1987 C 0.28529 0.92654 0.08582 0.0
C1988 C 0.26904 0.92166 0.08235 0.0
C1989 C 0.29627 0.9351 0.06771 0.0
C1990 C 0.26405 0.92586 0.06055 0.0
C1991 C 0.27501 0.93474 0.04266 0.0
H1992 H 0.3769 0.05551 0.97446 0.0
H1993 H 0.32763 0.01892 0.98275 0.0
H1994 H 0.31947 0.03901 0.9757 0.0
H1995 H 0.32611 0.06596 0.96125 0.0
H1996 H 0.37547 0.10113 0.94876 0.0
H1997 H 0.38369 0.0828 0.96422 0.0
C1998 C 0.36437 0.05191 0.97512 0.0
C1999 C 0.35289 0.03563 0.97862 0.0
C2000 C 0.35973 0.06334 0.97022 0.0
C2001 C 0.33675 0.03133 0.97987 0.0
C2002 C 0.33205 0.04281 0.97569 0.0
C2003 C 0.33867 0.06969 0.96197 0.0
C2004 C 0.35003 0.085 0.95349 0.0
C2005 C 0.3434 0.0587 0.96981 0.0
C2006 C 0.36632 0.08964 0.95538 0.0
C2007 C 0.37111 0.07903 0.96395 0.0
H2008 H 0.9442 0.31194 0.98104 0.0
H2009 H 0.98618 0.30721 0.97865 0.0
H2010 H 0.96942 0.27793 0.97186 0.0
H2011 H 0.94305 0.25442 0.96069 0.0
H2012 H 0.90124 0.25948 0.96293 0.0
H2013 H 0.91774 0.28789 0.97583 0.0
C2014 C 0.94969 0.30448 0.97939 0.0
C2015 C 0.96641 0.31177 0.9799 0.0
C2016 C 0.94001 0.28773 0.97522 0.0
C2017 C 0.97333 0.30191 0.97821 0.0
C2018 C 0.96376 0.28517 0.97418 0.0
C2019 C 0.93751 0.26162 0.96468 0.0
C2020 C 0.92098 0.25492 0.96046 0.0
C2021 C 0.94711 0.27804 0.97182 0.0
C2022 C 0.91398 0.26444 0.96559 0.0
C2023 C 0.9234 0.28068 0.97296 0.0
H2024 H 0.68486 0.66104 0.00192 0.0
H2025 H 0.68979 0.61976 0.01916 0.0
H2026 H 0.71515 0.63172 0.99816 0.0
H2027 H 0.73608 0.65411 0.9753 0.0
H2028 H 0.73085 0.69525 0.95828 0.0
H2029 H 0.70558 0.68323 0.97922 0.0
C2030 C 0.69142 0.6546 0.00101 0.0
C2031 C 0.68541 0.63951 0.01204 0.0
C2032 C 0.70603 0.6616 0.98917 0.0
C2033 C 0.69414 0.63139 0.01081 0.0
C2034 C 0.70866 0.63823 0.99884 0.0
C2035 C 0.72936 0.6604 0.9761 0.0
C2036 C 0.7354 0.6756 0.96536 0.0
C2037 C 0.71474 0.65336 0.98803 0.0
C2038 C 0.72663 0.68368 0.96677 0.0
C2039 C 0.7121 0.67675 0.97855 0.0
H2040 H 0.96826 0.67582 0.0015 0.0
H2041 H 0.9274 0.62754 0.99773 0.0
H2042 H 0.91083 0.63809 0.98135 0.0
H2043 H 0.90789 0.66115 0.96851 0.0
H2044 H 0.949 0.70929 0.97234 0.0
H2045 H 0.96539 0.69867 0.98869 0.0
C2046 C 0.95575 0.66756 0.99701 0.0
C2047 C 0.94912 0.65089 0.0008 0.0
C2048 C 0.94626 0.67371 0.98784 0.0
C2049 C 0.93284 0.64042 0.99499 0.0
C2050 C 0.92334 0.64645 0.98566 0.0
C2051 C 0.92044 0.6693 0.97284 0.0
C2052 C 0.92713 0.68603 0.96935 0.0
C2053 C 0.92991 0.66309 0.98208 0.0
C2054 C 0.94342 0.69642 0.97528 0.0
C2055 C 0.95287 0.69034 0.98443 0.0
H2056 H 0.34283 0.30722 0.99376 0.0
H2057 H 0.3876 0.3112 0.97363 0.0
H2058 H 0.37414 0.28242 0.96355 0.0
H2059 H 0.34954 0.25729 0.95462 0.0
H2060 H 0.30456 0.25216 0.97629 0.0
H2061 H 0.31832 0.28032 0.99127 0.0
C2062 C 0.3497 0.30174 0.98763 0.0
C2063 C 0.36618 0.31153 0.98397 0.0
C2064 C 0.34185 0.28504 0.98166 0.0
C2065 C 0.37488 0.30412 0.97629 0.0
C2066 C 0.36719 0.2876 0.97044 0.0
C2067 C 0.34265 0.26198 0.96338 0.0
C2068 C 0.3259 0.25249 0.9638 0.0
C2069 C 0.35062 0.27809 0.97221 0.0
C2070 C 0.31739 0.2592 0.97495 0.0
C2071 C 0.32528 0.27532 0.98369 0.0
H2072 H 0.694 0.06201 0.01967 0.0
H2073 H 0.67384 0.02027 0.96979 0.0
H2074 H 0.69518 0.03499 0.94119 0.0
H2075 H 0.71894 0.06 0.92953 0.0
H2076 H 0.73904 0.10186 0.979 0.0
H2077 H 0.7183 0.08681 0.00854 0.0
C2078 C 0.6943 0.0561 0.0026 0.0
C2079 C 0.6823 0.04007 0.99688 0.0
C2080 C 0.70656 0.06467 0.98611 0.0
C2081 C 0.68289 0.03261 0.97465 0.0
C2082 C 0.6951 0.04101 0.95826 0.0
C2083 C 0.71892 0.06575 0.94694 0.0
C2084 C 0.7305 0.08201 0.95208 0.0
C2085 C 0.70692 0.05707 0.96372 0.0
C2086 C 0.73015 0.08939 0.97453 0.0
C2087 C 0.71833 0.08079 0.99144 0.0
H2088 H 0.65734 0.97154 0.04587 0.0
H2089 H 0.6109 0.93362 0.02014 0.0
H2090 H 0.61826 0.91321 0.02981 0.0
H2091 H 0.63635 0.90617 0.05112 0.0
H2092 H 0.68098 0.94434 0.08304 0.0
H2093 H 0.67621 0.96451 0.06446 0.0
C2094 C 0.64901 0.95883 0.04173 0.0
C2095 C 0.63361 0.95404 0.03234 0.0
C2096 C 0.653 0.94717 0.04864 0.0
C2097 C 0.62281 0.93754 0.02742 0.0
C2098 C 0.627 0.9259 0.03306 0.0
C2099 C 0.64507 0.91889 0.0541 0.0
C2100 C 0.65888 0.92357 0.06896 0.0
C2101 C 0.6418 0.93055 0.04468 0.0
C2102 C 0.67028 0.94017 0.07164 0.0
C2103 C 0.66747 0.95182 0.06124 0.0
H2104 H 0.05868 0.69472 0.04187 0.0
H2105 H 0.01962 0.70066 0.01558 0.0
H2106 H 0.03656 0.73003 0.01963 0.0
H2107 H 0.06135 0.75377 0.03557 0.0
H2108 H 0.09925 0.74704 0.06539 0.0
H2109 H 0.08408 0.71845 0.05415 0.0
C2110 C 0.05389 0.7024 0.03661 0.0
C2111 C 0.03779 0.69542 0.02881 0.0
C2112 C 0.06353 0.71925 0.03964 0.0
C2113 C 0.03191 0.70565 0.0219 0.0
C2114 C 0.04158 0.72248 0.02428 0.0
C2115 C 0.06636 0.74609 0.03951 0.0
C2116 C 0.08144 0.75271 0.05158 0.0
C2117 C 0.05724 0.72938 0.03398 0.0
C2118 C 0.08782 0.74253 0.05588 0.0
C2119 C 0.07904 0.72603 0.04973 0.0
H2120 H 0.32888 0.3484 0.04013 0.0
H2121 H 0.32222 0.37441 0.98114 0.0
H2122 H 0.29917 0.3727 0.00131 0.0
H2123 H 0.28131 0.36453 0.03624 0.0
H2124 H 0.28801 0.33876 0.09549 0.0
H2125 H 0.31038 0.33939 0.07446 0.0
C2126 C 0.32237 0.35367 0.03167 0.0
C2127 C 0.32736 0.3616 0.00922 0.0
C2128 C 0.30905 0.35261 0.04335 0.0
C2129 C 0.3187 0.36826 0.99843 0.0
C2130 C 0.30549 0.36729 0.00996 0.0
C2131 C 0.28767 0.35905 0.04455 0.0
C2132 C 0.28299 0.35164 0.06742 0.0
C2133 C 0.30064 0.35961 0.0325 0.0
C2134 C 0.29122 0.34438 0.07776 0.0
C2135 C 0.30411 0.34485 0.06585 0.0
H2136 H 0.7205 0.67104 0.33046 0.0
H2137 H 0.69835 0.67517 0.3964 0.0
H2138 H 0.71306 0.66535 0.42083 0.0
H2139 H 0.73155 0.65471 0.4232 0.0
H2140 H 0.75326 0.65023 0.35705 0.0
H2141 H 0.73934 0.66105 0.33294 0.0
C2142 C 0.7189 0.66986 0.35019 0.0
C2143 C 0.70829 0.67381 0.36155 0.0
C2144 C 0.7273 0.6641 0.36408 0.0
C2145 C 0.7064 0.67218 0.38715 0.0
C2146 C 0.71482 0.66657 0.40115 0.0
C2147 C 0.73339 0.65631 0.40356 0.0
C2148 C 0.74343 0.65168 0.39193 0.0
C2149 C 0.72523 0.6624 0.38978 0.0
C2150 C 0.74549 0.65358 0.3664 0.0
C2151 C 0.73757 0.65979 0.35262 0.0
H2152 H 0.2923 0.01899 0.39196 0.0
H2153 H 0.33873 0.02326 0.38737 0.0
H2154 H 0.35142 0.05258 0.39111 0.0
H2155 H 0.34957 0.07659 0.4008 0.0
H2156 H 0.30334 0.07292 0.4038 0.0
H2157 H 0.29042 0.04376 0.39577 0.0
C2158 C 0.30519 0.02634 0.39145 0.0
C2159 C 0.31452 0.01885 0.38978 0.0
C2160 C 0.31249 0.0433 0.39366 0.0
C2161 C 0.3312 0.02861 0.38878 0.0
C2162 C 0.33851 0.04543 0.39102 0.0
C2163 C 0.33667 0.06961 0.39896 0.0
C2164 C 0.32751 0.07706 0.40333 0.0
C2165 C 0.3293 0.05286 0.39416 0.0
C2166 C 0.31076 0.06754 0.40117 0.0
C2167 C 0.30333 0.05084 0.39646 0.0
H2168 H 0.98429 0.30269 0.34966 0.0
H2169 H 0.01246 0.28133 0.37241 0.0
H2170 H 0.99073 0.26209 0.397 0.0
H2171 H 0.9641 0.25158 0.41273 0.0
H2172 H 0.93523 0.27209 0.39001 0.0
H2173 H 0.95697 0.29157 0.36502 0.0
C2174 C 0.98564 0.29381 0.35998 0.0
C2175 C 0.0 0.29347 0.35914 0.0
C2176 C 0.97302 0.28266 0.37416 0.0
C2177 C 0.00156 0.28187 0.37262 0.0
C2178 C 0.98913 0.27084 0.38675 0.0
C2179 C 0.96241 0.26011 0.40199 0.0
C2180 C 0.94799 0.26026 0.40306 0.0
C2181 C 0.97485 0.27114 0.38765 0.0
C2182 C 0.94623 0.27175 0.38959 0.0
C2183 C 0.95863 0.28285 0.37524 0.0
H2184 H 0.01239 0.36463 0.32708 0.0
H2185 H 0.0597 0.40279 0.31016 0.0
H2186 H 0.049 0.41989 0.29783 0.0
H2187 H 0.02605 0.42209 0.28494 0.0
H2188 H 0.97865 0.38493 0.30358 0.0
H2189 H 0.98968 0.36933 0.32181 0.0
C2190 C 0.02042 0.37682 0.32125 0.0
C2191 C 0.03678 0.38219 0.31895 0.0
C2192 C 0.01418 0.38666 0.31389 0.0
C2193 C 0.04702 0.39816 0.31177 0.0
C2194 C 0.04091 0.40798 0.30456 0.0
C2195 C 0.01804 0.41089 0.29372 0.0
C2196 C 0.00142 0.4046 0.29212 0.0
C2197 C 0.02445 0.40207 0.30451 0.0
C2198 C 0.99144 0.38989 0.30358 0.0
C2199 C 0.99774 0.38097 0.31423 0.0
H2200 H 0.64049 0.6362 0.32928 0.0
H2201 H 0.60553 0.65159 0.3297 0.0
H2202 H 0.58408 0.6235 0.32418 0.0
H2203 H 0.57553 0.59503 0.31443 0.0
H2204 H 0.61111 0.58049 0.30943 0.0
H2205 H 0.63178 0.60751 0.32241 0.0
C2206 C 0.62816 0.63338 0.32872 0.0
C2207 C 0.62464 0.64599 0.32975 0.0
C2208 C 0.61592 0.61727 0.32461 0.0
C2209 C 0.60859 0.64212 0.32878 0.0
C2210 C 0.5963 0.62606 0.32555 0.0
C2211 C 0.58778 0.59771 0.31618 0.0
C2212 C 0.59158 0.58556 0.31069 0.0
C2213 C 0.59987 0.61359 0.32257 0.0
C2214 C 0.60758 0.58933 0.3138 0.0
C2215 C 0.61955 0.60493 0.32096 0.0
H2216 H 0.34867 0.98377 0.33036 0.0
H2217 H 0.36184 0.95686 0.37917 0.0
H2218 H 0.3818 0.95889 0.3504 0.0
H2219 H 0.3951 0.96777 0.31092 0.0
H2220 H 0.38149 0.99419 0.26186 0.0
H2221 H 0.36228 0.99307 0.29137 0.0
C2222 C 0.35594 0.9784 0.33478 0.0
C2223 C 0.3537 0.97013 0.35687 0.0
C2224 C 0.36735 0.97954 0.31812 0.0
C2225 C 0.36327 0.96327 0.36229 0.0
C2226 C 0.37469 0.96441 0.34584 0.0
C2227 C 0.38787 0.97322 0.30665 0.0
C2228 C 0.38973 0.98104 0.28421 0.0
C2229 C 0.37674 0.9724 0.32361 0.0
C2230 C 0.38045 0.98826 0.27912 0.0
C2231 C 0.36938 0.98754 0.29592 0.0
H2232 H 0.60458 0.98233 0.36294 0.0
H2233 H 0.63913 0.99767 0.30565 0.0
H2234 H 0.6238 0.00689 0.28167 0.0
H2235 H 0.60036 0.01015 0.27654 0.0
H2236 H 0.56551 0.99442 0.33327 0.0
H2237 H 0.58118 0.98577 0.35791 0.0
C2238 C 0.60878 0.98771 0.34522 0.0
C2239 C 0.623 0.98929 0.33613 0.0
C2240 C 0.59986 0.99293 0.33144 0.0
C2241 C 0.62822 0.99626 0.31309 0.0
C2242 C 0.61948 0.00157 0.29936 0.0
C2243 C 0.59632 0.00504 0.29446 0.0
C2244 C 0.58187 0.00303 0.30317 0.0
C2245 C 0.60528 0.99995 0.30834 0.0
C2246 C 0.57658 0.99605 0.32616 0.0
C2247 C 0.58554 0.99113 0.34024 0.0
H2248 H 0.05156 0.65858 0.29241 0.0
H2249 H 0.00312 0.64379 0.31115 0.0
H2250 H 0.99552 0.6154 0.30414 0.0
H2251 H 0.00211 0.59507 0.2884 0.0
H2252 H 0.05042 0.61083 0.26726 0.0
H2253 H 0.05856 0.63836 0.28018 0.0
C2254 C 0.03935 0.64917 0.29523 0.0
C2255 C 0.02789 0.65336 0.30191 0.0
C2256 C 0.035 0.63296 0.29076 0.0
C2257 C 0.0122 0.64095 0.30586 0.0
C2258 C 0.00782 0.6247 0.30176 0.0
C2259 C 0.01443 0.6045 0.28675 0.0
C2260 C 0.02555 0.60071 0.27674 0.0
C2261 C 0.01903 0.62059 0.29348 0.0
C2262 C 0.04156 0.61314 0.27523 0.0
C2263 C 0.04625 0.62902 0.28235 0.0
H2264 H 0.36641 0.37183 0.37267 0.0
H2265 H 0.33404 0.36613 0.31244 0.0
H2266 H 0.35651 0.38097 0.28579 0.0
H2267 H 0.3852 0.39475 0.27908 0.0
H2268 H 0.41775 0.40075 0.33909 0.0
H2269 H 0.39532 0.38647 0.36626 0.0
C2270 C 0.36426 0.37387 0.35374 0.0
C2271 C 0.34855 0.36782 0.34459 0.0
C2272 C 0.37725 0.38241 0.33843 0.0
C2273 C 0.346 0.37062 0.32 0.0
C2274 C 0.35885 0.37911 0.30471 0.0
C2275 C 0.38742 0.39317 0.29821 0.0
C2276 C 0.40313 0.39883 0.30704 0.0
C2277 C 0.3745 0.38498 0.31369 0.0
C2278 C 0.40576 0.39637 0.33176 0.0
C2279 C 0.39295 0.38826 0.34733 0.0
H2280 H 0.32264 0.3081 0.37048 0.0
H2281 H 0.27482 0.26725 0.37298 0.0
H2282 H 0.28551 0.24962 0.38308 0.0
H2283 H 0.30821 0.24669 0.39694 0.0
H2284 H 0.35572 0.28834 0.39791 0.0
H2285 H 0.34539 0.30454 0.38009 0.0
C2286 C 0.31452 0.29527 0.37265 0.0
C2287 C 0.29793 0.28908 0.37134 0.0
C2288 C 0.32071 0.28531 0.37932 0.0
C2289 C 0.28764 0.2724 0.37416 0.0
C2290 C 0.29374 0.2623 0.38005 0.0
C2291 C 0.31633 0.25928 0.39312 0.0
C2292 C 0.33272 0.26625 0.39908 0.0
C2293 C 0.31023 0.26878 0.38369 0.0
C2294 C 0.34308 0.28251 0.39337 0.0
C2295 C 0.33716 0.29189 0.38338 0.0
H2296 H 0.72856 0.02238 0.35959 0.0
H2297 H 0.68922 0.03024 0.37394 0.0
H2298 H 0.70773 0.0589 0.38227 0.0
H2299 H 0.7348 0.08061 0.39093 0.0
H2300 H 0.77455 0.07405 0.37266 0.0
H2301 H 0.75604 0.0459 0.36081 0.0
C2302 C 0.72406 0.03045 0.36412 0.0
C2303 C 0.70755 0.02413 0.36649 0.0
C2304 C 0.73479 0.04705 0.36866 0.0
C2305 C 0.70186 0.03475 0.37201 0.0
C2306 C 0.71245 0.05116 0.37695 0.0
C2307 C 0.73964 0.0734 0.38357 0.0
C2308 C 0.75628 0.07966 0.38346 0.0
C2309 C 0.72894 0.05733 0.37604 0.0
C2310 C 0.7619 0.06963 0.37402 0.0
C2311 C 0.75129 0.05347 0.36698 0.0
H2312 H 0.98522 0.68937 0.37153 0.0
H2313 H 0.9589 0.65234 0.3152 0.0
H2314 H 0.93458 0.64256 0.33834 0.0
H2315 H 0.92067 0.64466 0.37431 0.0
H2316 H 0.94704 0.68141 0.43094 0.0
H2317 H 0.97135 0.69132 0.40769 0.0
C2318 C 0.97418 0.67913 0.36434 0.0
C2319 C 0.97391 0.67161 0.34167 0.0
C2320 C 0.96019 0.67359 0.37768 0.0
C2321 C 0.95948 0.65837 0.33261 0.0
C2322 C 0.94553 0.65277 0.3458 0.0
C2323 C 0.93176 0.65477 0.38165 0.0
C2324 C 0.93199 0.6623 0.4043 0.0
C2325 C 0.94574 0.6603 0.36833 0.0
C2326 C 0.94644 0.67554 0.41336 0.0
C2327 C 0.96039 0.68114 0.40018 0.0
H2328 H 0.39777 0.03643 0.66806 0.0
H2329 H 0.35423 0.99824 0.69727 0.0
H2330 H 0.36919 0.98731 0.71792 0.0
H2331 H 0.39453 0.98847 0.72768 0.0
H2332 H 0.43822 0.02672 0.69933 0.0
H2333 H 0.42331 0.03781 0.67841 0.0
C2334 C 0.39155 0.02573 0.67897 0.0
C2335 C 0.37488 0.01816 0.68102 0.0
C2336 C 0.40024 0.0195 0.6909 0.0
C2337 C 0.36704 0.00434 0.69534 0.0
C2338 C 0.37558 0.99804 0.70714 0.0
C2339 C 0.40076 0.99913 0.71669 0.0
C2340 C 0.41742 0.00667 0.71481 0.0
C2341 C 0.39215 0.00547 0.70496 0.0
C2342 C 0.4254 0.02071 0.70103 0.0
C2343 C 0.41688 0.02702 0.68906 0.0
H2344 H 0.99462 0.36266 0.70799 0.0
H2345 H 0.94605 0.35274 0.71171 0.0
H2346 H 0.95561 0.38145 0.71928 0.0
H2347 H 0.97766 0.40865 0.73054 0.0
H2348 H 0.02613 0.41814 0.72963 0.0
H2349 H 0.01671 0.39049 0.71462 0.0
C2350 C 0.98609 0.36679 0.70992 0.0
C2351 C 0.96963 0.35547 0.70967 0.0
C2352 C 0.99167 0.38328 0.71497 0.0
C2353 C 0.95879 0.36112 0.71211 0.0
C2354 C 0.96424 0.37755 0.71652 0.0
C2355 C 0.98617 0.40471 0.72682 0.0
C2356 C 0.00256 0.41541 0.73155 0.0
C2357 C 0.98065 0.38863 0.71895 0.0
C2358 C 0.01346 0.41022 0.72607 0.0
C2359 C 0.00807 0.39433 0.7177 0.0
H2360 H 0.6451 0.61051 0.67145 0.0
H2361 H 0.6691 0.65438 0.71666 0.0
H2362 H 0.64571 0.6447 0.74213 0.0
H2363 H 0.61847 0.62369 0.75175 0.0
H2364 H 0.59472 0.57964 0.70711 0.0
H2365 H 0.61799 0.58947 0.68121 0.0
C2366 C 0.64524 0.61796 0.68687 0.0
C2367 C 0.65884 0.63316 0.6921 0.0
C2368 C 0.63178 0.6123 0.70152 0.0
C2369 C 0.65881 0.64262 0.71223 0.0
C2370 C 0.64542 0.63711 0.72679 0.0
C2371 C 0.61836 0.61633 0.73619 0.0
C2372 C 0.6049 0.60101 0.73124 0.0
C2373 C 0.63183 0.62199 0.72158 0.0
C2374 C 0.60499 0.59145 0.71132 0.0
C2375 C 0.61827 0.59707 0.69651 0.0
H2376 H 0.69278 0.70145 0.65904 0.0
H2377 H 0.74225 0.73179 0.64117 0.0
H2378 H 0.73744 0.75384 0.63205 0.0
H2379 H 0.7186 0.76283 0.62274 0.0
H2380 H 0.66906 0.73311 0.64059 0.0
H2381 H 0.67456 0.71245 0.65601 0.0
C2382 C 0.70259 0.71299 0.65366 0.0
C2383 C 0.71778 0.7148 0.65027 0.0
C2384 C 0.6997 0.72564 0.64801 0.0
C2385 C 0.73037 0.72991 0.64351 0.0
C2386 C 0.72764 0.74256 0.63824 0.0
C2387 C 0.70903 0.75215 0.63078 0.0
C2388 C 0.69336 0.74951 0.63007 0.0
C2389 C 0.71224 0.74033 0.63949 0.0
C2390 C 0.68117 0.73535 0.6403 0.0
C2391 C 0.68432 0.72353 0.64921 0.0
H2392 H 0.26544 0.98334 0.65485 0.0
H2393 H 0.30354 0.97227 0.65864 0.0
H2394 H 0.28421 0.94349 0.65409 0.0
H2395 H 0.25717 0.92203 0.64313 0.0
H2396 H 0.21867 0.93255 0.64067 0.0
H2397 H 0.2376 0.96103 0.65039 0.0
C2398 C 0.26951 0.97463 0.6551 0.0
C2399 C 0.28598 0.98005 0.65664 0.0
C2400 C 0.25831 0.95801 0.65229 0.0
C2401 C 0.29098 0.96853 0.65731 0.0
C2402 C 0.27992 0.95202 0.65458 0.0
C2403 C 0.25271 0.93033 0.64548 0.0
C2404 C 0.23644 0.92503 0.64067 0.0
C2405 C 0.26363 0.94668 0.65123 0.0
C2406 C 0.23114 0.93626 0.64356 0.0
C2407 C 0.24196 0.95258 0.64925 0.0
H2408 H 0.0271 0.30303 0.70082 0.0
H2409 H 0.01079 0.32812 0.65361 0.0
H2410 H 0.03209 0.33379 0.62531 0.0
H2411 H 0.05474 0.33084 0.61315 0.0
H2412 H 0.07129 0.30595 0.66022 0.0
H2413 H 0.05039 0.30086 0.68926 0.0
C2414 C 0.02823 0.3098 0.68439 0.0
C2415 C 0.01732 0.3151 0.67935 0.0
C2416 C 0.0405 0.31298 0.66809 0.0
C2417 C 0.01899 0.32386 0.65797 0.0
C2418 C 0.03117 0.32711 0.64173 0.0
C2419 C 0.05394 0.32451 0.62994 0.0
C2420 C 0.06456 0.31879 0.6345 0.0
C2421 C 0.04193 0.32164 0.64653 0.0
C2422 C 0.06315 0.31033 0.65613 0.0
C2423 C 0.05125 0.30747 0.67279 0.0
H2424 H 0.29212 0.34143 0.69971 0.0
H2425 H 0.30882 0.3306 0.63275 0.0
H2426 H 0.29241 0.33829 0.60821 0.0
H2427 H 0.27288 0.34754 0.60577 0.0
H2428 H 0.25612 0.35826 0.67269 0.0
H2429 H 0.27312 0.35128 0.69726 0.0
C2430 C 0.29224 0.3408 0.67975 0.0
C2431 C 0.30166 0.33538 0.66811 0.0
C2432 C 0.28274 0.3452 0.66575 0.0
C2433 C 0.30169 0.33472 0.64221 0.0
C2434 C 0.29227 0.33908 0.62815 0.0
C2435 C 0.27288 0.34824 0.62574 0.0
C2436 C 0.26318 0.35331 0.6374 0.0
C2437 C 0.28266 0.34421 0.63973 0.0
C2438 C 0.26354 0.35448 0.66328 0.0
C2439 C 0.2732 0.35043 0.67733 0.0
H2440 H 0.67889 0.97571 0.65226 0.0
H2441 H 0.72435 0.99086 0.61943 0.0
H2442 H 0.71689 0.96273 0.61166 0.0
H2443 H 0.69614 0.93429 0.60857 0.0
H2444 H 0.65079 0.91872 0.64201 0.0
H2445 H 0.65958 0.94662 0.655 0.0
C2446 C 0.68728 0.97288 0.64378 0.0
C2447 C 0.70204 0.98546 0.63602 0.0
C2448 C 0.68287 0.95661 0.63911 0.0
C2449 C 0.71285 0.9815 0.62542 0.0
C2450 C 0.70857 0.96537 0.62084 0.0
C2451 C 0.68829 0.93681 0.6194 0.0
C2452 C 0.67268 0.92435 0.62387 0.0
C2453 C 0.69341 0.95287 0.62682 0.0
C2454 C 0.66272 0.92808 0.63772 0.0
C2455 C 0.66775 0.94405 0.64524 0.0
H2456 H 0.01803 0.68146 0.66909 0.0
H2457 H 0.00177 0.71605 0.666 0.0
H2458 H 0.02488 0.73403 0.64224 0.0
H2459 H 0.04986 0.74015 0.62309 0.0
H2460 H 0.06482 0.70441 0.6228 0.0
H2461 H 0.04237 0.68699 0.64785 0.0
C2462 C 0.01953 0.69292 0.66316 0.0
C2463 C 0.00822 0.69742 0.66935 0.0
C2464 C 0.03274 0.70313 0.64921 0.0
C2465 C 0.01026 0.71225 0.66138 0.0
C2466 C 0.02352 0.72259 0.64789 0.0
C2467 C 0.04816 0.72847 0.62811 0.0
C2468 C 0.05923 0.72378 0.62102 0.0
C2469 C 0.03484 0.71816 0.64174 0.0
C2470 C 0.05684 0.70866 0.62836 0.0
C2471 C 0.04384 0.69853 0.6425 0.0
H2472 H 0.9822 0.64052 0.70881 0.0
H2473 H 0.93248 0.60579 0.71884 0.0
H2474 H 0.9391 0.58478 0.72622 0.0
H2475 H 0.9591 0.57764 0.737 0.0
H2476 H 0.00898 0.61166 0.72666 0.0
H2477 H 0.00211 0.63159 0.71234 0.0
C2478 C 0.97278 0.62827 0.71199 0.0
C2479 C 0.95691 0.62485 0.71386 0.0
C2480 C 0.97669 0.61619 0.71668 0.0
C2481 C 0.94484 0.60886 0.7178 0.0
C2482 C 0.9486 0.5968 0.72207 0.0
C2483 C 0.96854 0.58914 0.73079 0.0
C2484 C 0.9846 0.59315 0.73349 0.0
C2485 C 0.96454 0.60052 0.72263 0.0
C2486 C 0.99653 0.60833 0.72554 0.0
C2487 C 0.99261 0.61974 0.71723 0.0
H2488 H 0.37035 0.36815 0.69873 0.0
H2489 H 0.39994 0.34675 0.71097 0.0
H2490 H 0.42301 0.3734 0.71929 0.0
H2491 H 0.43395 0.40204 0.72839 0.0
H2492 H 0.40508 0.4242 0.71601 0.0
H2493 H 0.38256 0.39792 0.70264 0.0
C2494 C 0.3819 0.36934 0.70276 0.0
C2495 C 0.38329 0.35538 0.70461 0.0
C2496 C 0.39521 0.3848 0.70789 0.0
C2497 C 0.39841 0.35721 0.70976 0.0
C2498 C 0.41165 0.37247 0.71456 0.0
C2499 C 0.42295 0.40137 0.72202 0.0
C2500 C 0.42129 0.4152 0.72346 0.0
C2501 C 0.41008 0.38627 0.71443 0.0
C2502 C 0.40669 0.41377 0.71558 0.0
C2503 C 0.39379 0.39873 0.70785 0.0
H2504 H 0.64474 0.03761 0.67846 0.0
H2505 H 0.64681 0.99348 0.67955 0.0
H2506 H 0.62258 0.98059 0.70319 0.0
H2507 H 0.60112 0.98196 0.7243 0.0
H2508 H 0.59879 0.02591 0.72295 0.0
H2509 H 0.62288 0.03878 0.69882 0.0
C2510 C 0.63989 0.02517 0.68384 0.0
C2511 C 0.64761 0.01656 0.67725 0.0
C2512 C 0.62593 0.0178 0.69745 0.0
C2513 C 0.64113 0.00042 0.68436 0.0
C2514 C 0.62726 0.99302 0.6979 0.0
C2515 C 0.60575 0.99428 0.71844 0.0
C2516 C 0.59816 0.00295 0.72541 0.0
C2517 C 0.61958 0.00159 0.70457 0.0
C2518 C 0.6045 0.01902 0.71805 0.0
C2519 C 0.61824 0.02637 0.70418 0.0
loop_
_geom_bond_atom_site_label_1
_geom_bond_atom_site_label_2
_geom_bond_distance
_geom_bond_site_symmetry_2
_ccdc_geom_bond_type
Mg0 O1 2.028 1_556 S
Mg0 O7 1.982 1_456 S
Mg0 O9 2.114 . S
Mg0 O10 2.251 1_455 S
Mg0 O13 2.010 1_556 S
O1 Mg0 2.028 1_554 S
O1 C4 1.250 1_455 S
O2 Mg3 2.028 1_554 S
O2 C4 1.248 . S
Mg3 O2 2.028 1_556 S
Mg3 O8 2.032 . S
Mg3 O10 2.079 . S
C4 O1 1.250 1_655 S
C4 O2 1.248 . S
C5 O6 1.280 . S
C5 O13 1.249 . S
O6 C5 1.280 . S
O7 Mg0 1.982 1_654 S
O7 C11 1.240 1_554 S
O8 Mg3 2.032 . S
O8 C11 1.259 . S
O9 Mg0 2.114 . S
O9 C12 1.252 . S
O10 Mg0 2.251 1_655 S
O10 Mg3 2.079 . S
O10 C12 1.273 1_655 S
C11 O7 1.240 1_556 S
C11 O8 1.259 . S
C12 O9 1.252 . S
C12 O10 1.273 1_455 S
O13 Mg0 2.010 1_554 S
O13 C5 1.249 . S
Mg14 O15 2.028 1_554 S
Mg14 O21 1.986 . S
Mg14 O23 2.114 . S
Mg14 O24 2.251 . S
Mg14 O27 2.010 . S
O15 Mg14 2.028 1_556 S
O15 C18 1.250 . S
O16 Mg17 2.028 1_556 S
O16 C18 1.248 . S
Mg17 O16 2.028 1_554 S
Mg17 O22 2.032 . S
Mg17 O24 2.079 . S
C18 O15 1.250 . S
C18 O16 1.248 . S
C19 O20 1.264 . S
C19 O27 1.249 . S
O20 C19 1.264 . S
O21 Mg14 1.986 . S
O21 C25 1.246 . S
O22 Mg17 2.032 . S
O22 C25 1.259 . S
O23 Mg14 2.114 . S
O23 C26 1.252 . S
O24 Mg14 2.251 . S
O24 Mg17 2.079 . S
O24 C26 1.273 . S
C25 O21 1.246 . S
C25 O22 1.259 . S
C26 O23 1.252 . S
C26 O24 1.273 . S
O27 Mg14 2.010 . S
O27 C19 1.249 . S
Mg28 O29 2.021 1_556 S
Mg28 O35 1.986 1_566 S
Mg28 O37 2.114 . S
Mg28 O38 2.251 1_565 S
Mg28 O41 2.010 1_556 S
O29 Mg28 2.021 1_554 S
O29 C32 1.243 1_565 S
O30 Mg31 2.028 1_554 S
O30 C32 1.248 . S
Mg31 O30 2.028 1_556 S
Mg31 O36 2.032 . S
Mg31 O38 2.079 . S
C32 O29 1.243 1_545 S
C32 O30 1.248 . S
C33 O34 1.262 1_554 S
C33 O41 1.249 . S
O34 C33 1.262 1_556 S
O35 Mg28 1.986 1_544 S
O35 C39 1.238 1_554 S
O36 Mg31 2.032 . S
O36 C39 1.263 . S
O37 Mg28 2.114 . S
O37 C40 1.252 . S
O38 Mg28 2.251 1_545 S
O38 Mg31 2.079 . S
O38 C40 1.273 1_545 S
C39 O35 1.238 1_556 S
C39 O36 1.263 . S
C40 O37 1.252 . S
C40 O38 1.273 1_565 S
O41 Mg28 2.010 1_554 S
O41 C33 1.249 . S
Mg42 O43 2.028 1_554 S
Mg42 O49 1.986 1_655 S
Mg42 O51 2.114 . S
Mg42 O52 2.251 1_655 S
Mg42 O55 2.010 . S
O43 Mg42 2.028 1_556 S
O43 C46 1.250 1_655 S
O44 Mg45 2.028 1_556 S
O44 C46 1.248 . S
Mg45 O44 2.028 1_554 S
Mg45 O50 2.032 . S
Mg45 O52 2.079 . S
C46 O43 1.250 1_455 S
C46 O44 1.248 . S
C47 O48 1.264 . S
C47 O55 1.249 . S
O48 C47 1.264 . S
O49 Mg42 1.986 1_455 S
O49 C53 1.246 . S
O50 Mg45 2.032 . S
O50 C53 1.259 . S
O51 Mg42 2.114 . S
O51 C54 1.252 . S
O52 Mg42 2.251 1_455 S
O52 Mg45 2.079 . S
O52 C54 1.273 1_455 S
C53 O49 1.246 . S
C53 O50 1.259 . S
C54 O51 1.252 . S
C54 O52 1.273 1_655 S
O55 Mg42 2.010 . S
O55 C47 1.249 . S
Mg56 O57 2.025 . S
Mg56 O63 1.985 . S
Mg56 O65 2.115 1_554 S
Mg56 O66 2.254 1_554 S
Mg56 O69 2.009 . S
O57 Mg56 2.025 . S
O57 C60 1.250 . S
O58 Mg59 2.028 1_554 S
O58 C60 1.248 . S
Mg59 O58 2.028 1_556 S
Mg59 O64 2.032 . S
Mg59 O66 2.079 . S
C60 O57 1.250 . S
C60 O58 1.248 . S
C61 O62 1.264 . S
C61 O69 1.249 . S
O62 C61 1.264 . S
O63 Mg56 1.985 . S
O63 C67 1.246 1_554 S
O64 Mg59 2.032 . S
O64 C67 1.259 . S
O65 Mg56 2.115 1_556 S
O65 C68 1.252 . S
O66 Mg56 2.254 1_556 S
O66 Mg59 2.079 . S
O66 C68 1.273 . S
C67 O63 1.246 1_556 S
C67 O64 1.259 . S
C68 O65 1.252 . S
C68 O66 1.273 . S
O69 Mg56 2.009 . S
O69 C61 1.249 . S
Mg70 O71 2.028 1_554 S
Mg70 O77 1.986 1_545 S
Mg70 O79 2.114 . S
Mg70 O80 2.251 1_545 S
Mg70 O83 2.010 . S
O71 Mg70 2.028 1_556 S
O71 C74 1.250 1_545 S
O72 Mg73 2.028 1_556 S
O72 C74 1.248 . S
Mg73 O72 2.028 1_554 S
Mg73 O78 2.032 . S
Mg73 O80 2.079 . S
C74 O71 1.250 1_565 S
C74 O72 1.248 . S
C75 O76 1.264 . S
C75 O83 1.249 . S
O76 C75 1.264 . S
O77 Mg70 1.986 1_565 S
O77 C81 1.246 . S
O78 Mg73 2.032 . S
O78 C81 1.259 . S
O79 Mg70 2.114 . S
O79 C82 1.252 . S
O80 Mg70 2.251 1_565 S
O80 Mg73 2.079 . S
O80 C82 1.273 1_565 S
C81 O77 1.246 . S
C81 O78 1.259 . S
C82 O79 1.252 . S
C82 O80 1.273 1_545 S
O83 Mg70 2.010 . S
O83 C75 1.249 . S
Mg84 O85 2.028 . S
Mg84 O91 1.986 . S
Mg84 O93 2.114 . S
Mg84 O94 2.251 . S
Mg84 O97 2.010 . S
O85 Mg84 2.028 . S
O85 C88 1.250 . S
O86 Mg87 2.028 . S
O86 C88 1.248 . S
Mg87 O86 2.028 . S
Mg87 O92 2.032 . S
Mg87 O94 2.079 . S
C88 O85 1.250 . S
C88 O86 1.248 . S
C89 O90 1.264 . S
C89 O97 1.249 . S
O90 C89 1.264 . S
O91 Mg84 1.986 . S
O91 C95 1.246 . S
O92 Mg87 2.032 . S
O92 C95 1.259 . S
O93 Mg84 2.114 . S
O93 C96 1.252 . S
O94 Mg84 2.251 . S
O94 Mg87 2.079 . S
O94 C96 1.273 . S
C95 O91 1.246 . S
C95 O92 1.259 . S
C96 O93 1.252 . S
C96 O94 1.273 . S
O97 Mg84 2.010 . S
O97 C89 1.249 . S
Mg98 O99 2.028 . S
Mg98 O105 1.986 . S
Mg98 O107 2.114 . S
Mg98 O108 2.251 . S
Mg98 O111 2.010 . S
O99 Mg98 2.028 . S
O99 C102 1.250 . S
O100 Mg101 2.028 . S
O100 C102 1.248 . S
Mg101 O100 2.028 . S
Mg101 O106 2.032 . S
Mg101 O108 2.079 . S
C102 O99 1.250 . S
C102 O100 1.248 . S
C103 O104 1.264 . S
C103 O111 1.249 . S
O104 C103 1.264 . S
O105 Mg98 1.986 . S
O105 C109 1.246 1_565 S
O106 Mg101 2.032 . S
O106 C109 1.259 1_565 S
O107 Mg98 2.114 . S
O107 C110 1.252 . S
O108 Mg98 2.251 . S
O108 Mg101 2.079 . S
O108 C110 1.273 . S
C109 O105 1.246 1_545 S
C109 O106 1.259 1_545 S
C110 O107 1.252 . S
C110 O108 1.273 . S
O111 Mg98 2.010 . S
O111 C103 1.249 . S
Mg112 O113 2.028 . S
Mg112 O119 1.986 . S
Mg112 O121 2.114 . S
Mg112 O122 2.251 . S
Mg112 O125 1.993 1_455 S
O113 Mg112 2.028 . S
O113 C116 1.250 . S
O114 Mg115 2.028 . S
O114 C116 1.248 . S
Mg115 O114 2.028 . S
Mg115 O120 2.032 . S
Mg115 O122 2.079 . S
C116 O113 1.250 . S
C116 O114 1.248 . S
C117 O118 1.264 . S
C117 O125 1.260 . S
O118 C117 1.264 . S
O119 Mg112 1.986 . S
O119 C123 1.246 . S
O120 Mg115 2.032 . S
O120 C123 1.259 . S
O121 Mg112 2.114 . S
O121 C124 1.252 . S
O122 Mg112 2.251 . S
O122 Mg115 2.079 . S
O122 C124 1.273 . S
C123 O119 1.246 . S
C123 O120 1.259 . S
C124 O121 1.252 . S
C124 O122 1.273 . S
O125 Mg112 1.993 1_655 S
O125 C117 1.260 . S
Mg126 O127 2.028 . S
Mg126 O133 1.986 . S
Mg126 O135 2.114 . S
Mg126 O136 2.251 . S
Mg126 O139 2.010 . S
O127 Mg126 2.028 . S
O127 C130 1.250 . S
O128 Mg129 2.028 . S
O128 C130 1.248 . S
Mg129 O128 2.028 . S
Mg129 O134 2.032 . S
Mg129 O136 2.079 . S
C130 O127 1.250 . S
C130 O128 1.248 . S
C131 O132 1.264 . S
C131 O139 1.249 . S
O132 C131 1.264 . S
O133 Mg126 1.986 . S
O133 C137 1.246 1_565 S
O134 Mg129 2.032 . S
O134 C137 1.259 1_565 S
O135 Mg126 2.114 . S
O135 C138 1.252 . S
O136 Mg126 2.251 . S
O136 Mg129 2.079 . S
O136 C138 1.273 . S
C137 O133 1.246 1_545 S
C137 O134 1.259 1_545 S
C138 O135 1.252 . S
C138 O136 1.273 . S
O139 Mg126 2.010 . S
O139 C131 1.249 . S
Mg140 O141 2.028 . S
Mg140 O147 1.986 . S
Mg140 O149 2.114 . S
Mg140 O150 2.251 . S
Mg140 O153 2.010 . S
O141 Mg140 2.028 . S
O141 C144 1.250 . S
O142 Mg143 2.028 . S
O142 C144 1.248 . S
Mg143 O142 2.028 . S
Mg143 O148 2.032 . S
Mg143 O150 2.079 . S
C144 O141 1.250 . S
C144 O142 1.248 . S
C145 O146 1.264 . S
C145 O153 1.249 1_655 S
O146 C145 1.264 . S
O147 Mg140 1.986 . S
O147 C151 1.246 . S
O148 Mg143 2.032 . S
O148 C151 1.259 . S
O149 Mg140 2.114 . S
O149 C152 1.252 . S
O150 Mg140 2.251 . S
O150 Mg143 2.079 . S
O150 C152 1.273 . S
C151 O147 1.246 . S
C151 O148 1.259 . S
C152 O149 1.252 . S
C152 O150 1.273 . S
O153 Mg140 2.010 . S
O153 C145 1.249 1_455 S
Mg154 O155 2.028 . S
Mg154 O161 1.986 . S
Mg154 O163 2.114 . S
Mg154 O164 2.251 . S
Mg154 O167 2.010 . S
O155 Mg154 2.028 . S
O155 C158 1.250 . S
O156 Mg157 2.028 . S
O156 C158 1.248 . S
Mg157 O156 2.028 . S
Mg157 O162 2.032 . S
Mg157 O164 2.079 . S
C158 O155 1.250 . S
C158 O156 1.248 . S
C159 O160 1.264 . S
C159 O167 1.249 . S
O160 C159 1.264 . S
O161 Mg154 1.986 . S
O161 C165 1.246 . S
O162 Mg157 2.032 . S
O162 C165 1.259 . S
O163 Mg154 2.114 . S
O163 C166 1.252 . S
O164 Mg154 2.251 . S
O164 Mg157 2.079 . S
O164 C166 1.273 . S
C165 O161 1.246 . S
C165 O162 1.259 . S
C166 O163 1.252 . S
C166 O164 1.273 . S
O167 Mg154 2.010 . S
O167 C159 1.249 . S
Mg168 O169 2.028 . S
Mg168 O175 1.986 . S
Mg168 O177 2.114 . S
Mg168 O178 2.251 . S
Mg168 O181 2.010 . S
O169 Mg168 2.028 . S
O169 C172 1.250 . S
O170 Mg171 2.028 . S
O170 C172 1.248 . S
Mg171 O170 2.028 . S
Mg171 O176 2.032 . S
Mg171 O178 2.079 . S
C172 O169 1.250 . S
C172 O170 1.248 . S
C173 O174 1.264 . S
C173 O181 1.249 . S
O174 C173 1.264 . S
O175 Mg168 1.986 . S
O175 C179 1.239 . S
O176 Mg171 2.032 . S
O176 C179 1.308 . S
O177 Mg168 2.114 . S
O177 C180 1.252 . S
O178 Mg168 2.251 . S
O178 Mg171 2.079 . S
O178 C180 1.273 . S
C179 O175 1.239 . S
C179 O176 1.308 . S
C180 O177 1.252 . S
C180 O178 1.273 . S
O181 Mg168 2.010 . S
O181 C173 1.249 . S
Mg182 O183 2.028 . S
Mg182 O189 1.986 . S
Mg182 O191 2.114 . S
Mg182 O192 2.251 . S
Mg182 O195 1.938 1_655 S
O183 Mg182 2.028 . S
O183 C186 1.250 . S
O184 Mg185 2.028 . S
O184 C186 1.248 . S
Mg185 O184 2.028 . S
Mg185 O190 2.032 . S
Mg185 O192 2.079 . S
C186 O183 1.250 . S
C186 O184 1.248 . S
C187 O188 1.264 . S
C187 O195 1.324 . S
O188 C187 1.264 . S
O189 Mg182 1.986 . S
O189 C193 1.246 . S
O190 Mg185 2.032 . S
O190 C193 1.259 . S
O191 Mg182 2.114 . S
O191 C194 1.252 . S
O192 Mg182 2.251 . S
O192 Mg185 2.079 . S
O192 C194 1.273 . S
C193 O189 1.246 . S
C193 O190 1.259 . S
C194 O191 1.252 . S
C194 O192 1.273 . S
O195 Mg182 1.938 1_455 S
O195 C187 1.324 . S
Mg196 O197 2.028 . S
Mg196 O203 1.986 . S
Mg196 O205 2.114 . S
Mg196 O206 2.251 . S
Mg196 O209 2.010 . S
O197 Mg196 2.028 . S
O197 C200 1.250 . S
O198 Mg199 2.028 . S
O198 C200 1.248 . S
Mg199 O198 2.028 . S
Mg199 O204 2.032 . S
Mg199 O206 2.079 . S
C200 O197 1.250 . S
C200 O198 1.248 . S
C201 O202 1.264 . S
C201 O209 1.249 . S
O202 C201 1.264 . S
O203 Mg196 1.986 . S
O203 C207 1.246 . S
O204 Mg199 2.032 . S
O204 C207 1.259 . S
O205 Mg196 2.114 . S
O205 C208 1.252 . S
O206 Mg196 2.251 . S
O206 Mg199 2.079 . S
O206 C208 1.273 . S
C207 O203 1.246 . S
C207 O204 1.259 . S
C208 O205 1.252 . S
C208 O206 1.273 . S
O209 Mg196 2.010 . S
O209 C201 1.249 . S
Mg210 O211 2.028 . S
Mg210 O217 1.986 . S
Mg210 O219 2.114 . S
Mg210 O220 2.251 . S
Mg210 O223 2.010 . S
O211 Mg210 2.028 . S
O211 C214 1.250 . S
O212 Mg213 2.028 . S
O212 C214 1.248 . S
Mg213 O212 2.028 . S
Mg213 O218 2.032 . S
Mg213 O220 2.079 . S
C214 O211 1.250 . S
C214 O212 1.248 . S
C215 O216 1.264 . S
C215 O223 1.249 . S
O216 C215 1.264 . S
O217 Mg210 1.986 . S
O217 C221 1.246 . S
O218 Mg213 2.032 . S
O218 C221 1.259 . S
O219 Mg210 2.114 . S
O219 C222 1.252 . S
O220 Mg210 2.251 . S
O220 Mg213 2.079 . S
O220 C222 1.273 . S
C221 O217 1.246 . S
C221 O218 1.259 . S
C222 O219 1.252 . S
C222 O220 1.273 . S
O223 Mg210 2.010 . S
O223 C215 1.249 . S
Mg224 O225 2.028 . S
Mg224 O231 1.986 . S
Mg224 O233 2.114 . S
Mg224 O234 2.251 . S
Mg224 O237 2.010 . S
O225 Mg224 2.028 . S
O225 C228 1.250 . S
O226 Mg227 2.028 . S
O226 C228 1.248 . S
Mg227 O226 2.028 . S
Mg227 O232 2.032 . S
Mg227 O234 2.079 . S
C228 O225 1.250 . S
C228 O226 1.248 . S
C229 O230 1.264 . S
C229 O237 1.249 . S
O230 C229 1.264 . S
O231 Mg224 1.986 . S
O231 C235 1.246 1_545 S
O232 Mg227 2.032 . S
O232 C235 1.259 1_545 S
O233 Mg224 2.114 . S
O233 C236 1.252 . S
O234 Mg224 2.251 . S
O234 Mg227 2.079 . S
O234 C236 1.273 . S
C235 O231 1.246 1_565 S
C235 O232 1.259 1_565 S
C236 O233 1.252 . S
C236 O234 1.273 . S
O237 Mg224 2.010 . S
O237 C229 1.249 . S
Mg238 O239 2.028 . S
Mg238 O245 1.986 . S
Mg238 O247 2.114 . S
Mg238 O248 2.251 . S
Mg238 O251 2.010 1_655 S
O239 Mg238 2.028 . S
O239 C242 1.250 . S
O240 Mg241 2.028 . S
O240 C242 1.248 . S
Mg241 O240 2.028 . S
Mg241 O246 2.032 . S
Mg241 O248 2.079 . S
C242 O239 1.250 . S
C242 O240 1.248 . S
C243 O244 1.264 . S
C243 O251 1.249 . S
O244 C243 1.264 . S
O245 Mg238 1.986 . S
O245 C249 1.246 . S
O246 Mg241 2.032 . S
O246 C249 1.259 . S
O247 Mg238 2.114 . S
O247 C250 1.252 . S
O248 Mg238 2.251 . S
O248 Mg241 2.079 . S
O248 C250 1.273 . S
C249 O245 1.246 . S
C249 O246 1.259 . S
C250 O247 1.252 . S
C250 O248 1.273 . S
O251 Mg238 2.010 1_455 S
O251 C243 1.249 . S
H252 C279 0.929 . S
N253 C278 1.433 . S
N253 C284 1.435 . S
N253 C290 1.423 . S
H254 C280 0.930 . S
H255 C283 0.931 . S
H256 C282 0.929 . S
H257 C285 0.930 . S
H258 C286 0.932 . S
H259 C289 0.929 . S
H260 C288 0.931 . S
H261 C291 0.929 . S
H262 C295 0.932 . S
H263 C292 0.931 . S
H264 C294 0.929 . S
H265 C297 0.929 . S
H266 C298 0.930 . S
H267 C300 0.929 . S
H268 C301 0.931 . S
H269 C303 0.930 . S
H270 C304 0.932 . S
H271 C306 0.931 . S
H272 C307 0.929 . S
H273 C309 0.929 . S
H274 C310 0.931 . S
H275 C312 0.929 . S
N276 C296 1.433 . S
N276 C302 1.435 . S
N276 C308 1.423 . S
H277 C313 0.932 . S
C278 N253 1.433 . S
C278 C279 1.363 . S
C278 C283 1.370 . S
C279 H252 0.929 . S
C279 C278 1.363 . S
C279 C280 1.385 . S
C280 H254 0.930 . S
C280 C279 1.385 . S
C280 C281 1.357 . S
C281 C280 1.357 . S
C281 C282 1.406 . S
C282 H256 0.929 . S
C282 C281 1.406 . S
C282 C283 1.391 . S
C283 H255 0.931 . S
C283 C278 1.370 . S
C283 C282 1.391 . S
C284 N253 1.435 . S
C284 C285 1.358 . S
C284 C289 1.371 . S
C285 H257 0.930 . S
C285 C284 1.358 . S
C285 C286 1.405 . S
C286 H258 0.932 . S
C286 C285 1.405 . S
C286 C287 1.383 . S
C287 C286 1.383 . S
C287 C288 1.393 . S
C288 H260 0.931 . S
C288 C287 1.393 . S
C288 C289 1.382 . S
C289 H259 0.929 . S
C289 C284 1.371 . S
C289 C288 1.382 . S
C290 N253 1.423 . S
C290 C291 1.362 . S
C290 C295 1.388 . S
C291 H261 0.929 . S
C291 C290 1.362 . S
C291 C292 1.376 . S
C292 H263 0.931 . S
C292 C291 1.376 . S
C292 C293 1.396 . S
C293 C292 1.396 . S
C293 C294 1.348 . S
C293 C311 1.472 . S
C294 H264 0.929 . S
C294 C293 1.348 . S
C294 C295 1.443 . S
C295 H262 0.932 . S
C295 C290 1.388 . S
C295 C294 1.443 . S
C296 N276 1.433 . S
C296 C297 1.363 . S
C296 C301 1.370 . S
C297 H265 0.929 . S
C297 C296 1.363 . S
C297 C298 1.385 . S
C298 H266 0.930 . S
C298 C297 1.385 . S
C298 C299 1.357 . S
C299 C298 1.357 . S
C299 C300 1.406 . S
C300 H267 0.929 . S
C300 C299 1.406 . S
C300 C301 1.391 . S
C301 H268 0.931 . S
C301 C296 1.370 . S
C301 C300 1.391 . S
C302 N276 1.435 . S
C302 C303 1.358 . S
C302 C307 1.371 . S
C303 H269 0.930 . S
C303 C302 1.358 . S
C303 C304 1.405 . S
C304 H270 0.932 . S
C304 C303 1.405 . S
C304 C305 1.383 . S
C305 C304 1.383 . S
C305 C306 1.393 . S
C306 H271 0.931 . S
C306 C305 1.393 . S
C306 C307 1.382 . S
C307 H272 0.929 . S
C307 C302 1.371 . S
C307 C306 1.382 . S
C308 N276 1.423 . S
C308 C309 1.362 . S
C308 C313 1.388 . S
C309 H273 0.929 . S
C309 C308 1.362 . S
C309 C310 1.376 . S
C310 H274 0.931 . S
C310 C309 1.376 . S
C310 C311 1.396 . S
C311 C293 1.472 . S
C311 C310 1.396 . S
C311 C312 1.348 . S
C312 H275 0.929 . S
C312 C311 1.348 . S
C312 C313 1.443 . S
C313 H277 0.932 . S
C313 C308 1.388 . S
C313 C312 1.443 . S
H314 C341 0.929 . S
N315 C340 1.433 . S
N315 C346 1.435 . S
N315 C352 1.423 . S
H316 C342 0.930 . S
H317 C345 0.931 . S
H318 C344 0.929 . S
H319 C347 0.930 . S
H320 C348 0.932 . S
H321 C351 0.929 . S
H322 C350 0.931 . S
H323 C353 0.929 . S
H324 C357 0.932 . S
H325 C354 0.931 . S
H326 C356 0.929 . S
H327 C359 0.929 . S
H328 C360 0.930 . S
H329 C362 0.929 . S
H330 C363 0.931 . S
H331 C365 0.930 . S
H332 C366 0.932 . S
H333 C368 0.931 . S
H334 C369 0.929 . S
H335 C371 0.929 . S
H336 C372 0.931 . S
H337 C374 0.929 . S
N338 C358 1.433 . S
N338 C364 1.435 . S
N338 C370 1.423 . S
H339 C375 0.932 . S
C340 N315 1.433 . S
C340 C341 1.363 . S
C340 C345 1.370 . S
C341 H314 0.929 . S
C341 C340 1.363 . S
C341 C342 1.385 . S
C342 H316 0.930 . S
C342 C341 1.385 . S
C342 C343 1.357 . S
C343 C342 1.357 . S
C343 C344 1.406 . S
C344 H318 0.929 . S
C344 C343 1.406 . S
C344 C345 1.391 . S
C345 H317 0.931 . S
C345 C340 1.370 . S
C345 C344 1.391 . S
C346 N315 1.435 . S
C346 C347 1.358 . S
C346 C351 1.371 . S
C347 H319 0.930 . S
C347 C346 1.358 . S
C347 C348 1.405 . S
C348 H320 0.932 . S
C348 C347 1.405 . S
C348 C349 1.383 . S
C349 C348 1.383 . S
C349 C350 1.393 . S
C350 H322 0.931 . S
C350 C349 1.393 . S
C350 C351 1.382 . S
C351 H321 0.929 . S
C351 C346 1.371 . S
C351 C350 1.382 . S
C352 N315 1.423 . S
C352 C353 1.362 . S
C352 C357 1.388 . S
C353 H323 0.929 . S
C353 C352 1.362 . S
C353 C354 1.376 . S
C354 H325 0.931 . S
C354 C353 1.376 . S
C354 C355 1.396 . S
C355 C354 1.396 . S
C355 C356 1.348 . S
C355 C373 1.472 . S
C356 H326 0.929 . S
C356 C355 1.348 . S
C356 C357 1.443 . S
C357 H324 0.932 . S
C357 C352 1.388 . S
C357 C356 1.443 . S
C358 N338 1.433 . S
C358 C359 1.363 . S
C358 C363 1.370 . S
C359 H327 0.929 . S
C359 C358 1.363 . S
C359 C360 1.385 . S
C360 H328 0.930 . S
C360 C359 1.385 . S
C360 C361 1.357 . S
C361 C360 1.357 . S
C361 C362 1.406 . S
C362 H329 0.929 . S
C362 C361 1.406 . S
C362 C363 1.391 . S
C363 H330 0.931 . S
C363 C358 1.370 . S
C363 C362 1.391 . S
C364 N338 1.435 . S
C364 C365 1.358 . S
C364 C369 1.371 . S
C365 H331 0.930 . S
C365 C364 1.358 . S
C365 C366 1.405 . S
C366 H332 0.932 . S
C366 C365 1.405 . S
C366 C367 1.383 . S
C367 C366 1.383 . S
C367 C368 1.393 . S
C368 H333 0.931 . S
C368 C367 1.393 . S
C368 C369 1.382 . S
C369 H334 0.929 . S
C369 C364 1.371 . S
C369 C368 1.382 . S
C370 N338 1.423 . S
C370 C371 1.362 . S
C370 C375 1.388 . S
C371 H335 0.929 . S
C371 C370 1.362 . S
C371 C372 1.376 . S
C372 H336 0.931 . S
C372 C371 1.376 . S
C372 C373 1.396 . S
C373 C355 1.472 . S
C373 C372 1.396 . S
C373 C374 1.348 . S
C374 H337 0.929 . S
C374 C373 1.348 . S
C374 C375 1.443 . S
C375 H339 0.932 . S
C375 C370 1.388 . S
C375 C374 1.443 . S
H376 C403 0.929 . S
N377 C402 1.433 . S
N377 C408 1.435 . S
N377 C414 1.423 . S
H378 C404 0.930 . S
H379 C407 0.931 . S
H380 C406 0.929 . S
H381 C409 0.930 . S
H382 C410 0.932 . S
H383 C413 0.929 . S
H384 C412 0.931 . S
H385 C415 0.929 . S
H386 C419 0.932 . S
H387 C416 0.931 . S
H388 C418 0.929 . S
H389 C421 0.929 . S
H390 C422 0.930 . S
H391 C424 0.929 . S
H392 C425 0.931 . S
H393 C427 0.930 . S
H394 C428 0.932 . S
H395 C430 0.931 . S
H396 C431 0.929 . S
H397 C433 0.929 . S
H398 C434 0.931 . S
H399 C436 0.929 . S
N400 C420 1.433 . S
N400 C426 1.435 . S
N400 C432 1.423 . S
H401 C437 0.932 . S
C402 N377 1.433 . S
C402 C403 1.363 . S
C402 C407 1.370 . S
C403 H376 0.929 . S
C403 C402 1.363 . S
C403 C404 1.385 . S
C404 H378 0.930 . S
C404 C403 1.385 . S
C404 C405 1.357 . S
C405 C404 1.357 . S
C405 C406 1.406 . S
C406 H380 0.929 . S
C406 C405 1.406 . S
C406 C407 1.391 . S
C407 H379 0.931 . S
C407 C402 1.370 . S
C407 C406 1.391 . S
C408 N377 1.435 . S
C408 C409 1.358 . S
C408 C413 1.371 . S
C409 H381 0.930 . S
C409 C408 1.358 . S
C409 C410 1.405 . S
C410 H382 0.932 . S
C410 C409 1.405 . S
C410 C411 1.383 . S
C411 C410 1.383 . S
C411 C412 1.393 . S
C412 H384 0.931 . S
C412 C411 1.393 . S
C412 C413 1.382 . S
C413 H383 0.929 . S
C413 C408 1.371 . S
C413 C412 1.382 . S
C414 N377 1.423 . S
C414 C415 1.362 . S
C414 C419 1.388 . S
C415 H385 0.929 . S
C415 C414 1.362 . S
C415 C416 1.376 . S
C416 H387 0.931 . S
C416 C415 1.376 . S
C416 C417 1.396 . S
C417 C416 1.396 . S
C417 C418 1.348 . S
C417 C435 1.472 . S
C418 H388 0.929 . S
C418 C417 1.348 . S
C418 C419 1.443 . S
C419 H386 0.932 . S
C419 C414 1.388 . S
C419 C418 1.443 . S
C420 N400 1.433 . S
C420 C421 1.363 . S
C420 C425 1.370 . S
C421 H389 0.929 . S
C421 C420 1.363 . S
C421 C422 1.385 . S
C422 H390 0.930 . S
C422 C421 1.385 . S
C422 C423 1.357 . S
C423 C422 1.357 . S
C423 C424 1.406 . S
C424 H391 0.929 . S
C424 C423 1.406 . S
C424 C425 1.391 . S
C425 H392 0.931 . S
C425 C420 1.370 . S
C425 C424 1.391 . S
C426 N400 1.435 . S
C426 C427 1.358 . S
C426 C431 1.371 . S
C427 H393 0.930 . S
C427 C426 1.358 . S
C427 C428 1.405 . S
C428 H394 0.932 . S
C428 C427 1.405 . S
C428 C429 1.383 . S
C429 C428 1.383 . S
C429 C430 1.393 . S
C430 H395 0.931 . S
C430 C429 1.393 . S
C430 C431 1.382 . S
C431 H396 0.929 . S
C431 C426 1.371 . S
C431 C430 1.382 . S
C432 N400 1.423 . S
C432 C433 1.362 . S
C432 C437 1.388 . S
C433 H397 0.929 . S
C433 C432 1.362 . S
C433 C434 1.376 . S
C434 H398 0.931 . S
C434 C433 1.376 . S
C434 C435 1.396 . S
C435 C417 1.472 . S
C435 C434 1.396 . S
C435 C436 1.348 . S
C436 H399 0.929 . S
C436 C435 1.348 . S
C436 C437 1.443 . S
C437 H401 0.932 . S
C437 C432 1.388 . S
C437 C436 1.443 . S
H438 C465 0.929 . S
N439 C464 1.433 . S
N439 C470 1.435 . S
N439 C476 1.423 . S
H440 C466 0.930 . S
H441 C469 0.931 . S
H442 C468 0.929 . S
H443 C471 0.930 . S
H444 C472 0.932 . S
H445 C475 0.929 . S
H446 C474 0.931 . S
H447 C477 0.929 . S
H448 C481 0.932 . S
H449 C478 0.931 . S
H450 C480 0.929 . S
H451 C483 0.929 . S
H452 C484 0.930 . S
H453 C486 0.929 . S
H454 C487 0.931 . S
H455 C489 0.930 . S
H456 C490 0.932 . S
H457 C492 0.931 . S
H458 C493 0.929 . S
H459 C495 0.929 . S
H460 C496 0.931 . S
H461 C498 0.929 . S
N462 C482 1.433 . S
N462 C488 1.435 . S
N462 C494 1.423 . S
H463 C499 0.932 . S
C464 N439 1.433 . S
C464 C465 1.363 . S
C464 C469 1.370 . S
C465 H438 0.929 . S
C465 C464 1.363 . S
C465 C466 1.385 . S
C466 H440 0.930 . S
C466 C465 1.385 . S
C466 C467 1.357 . S
C467 C466 1.357 . S
C467 C468 1.406 . S
C468 H442 0.929 . S
C468 C467 1.406 . S
C468 C469 1.391 . S
C469 H441 0.931 . S
C469 C464 1.370 . S
C469 C468 1.391 . S
C470 N439 1.435 . S
C470 C471 1.358 . S
C470 C475 1.371 . S
C471 H443 0.930 . S
C471 C470 1.358 . S
C471 C472 1.405 . S
C472 H444 0.932 . S
C472 C471 1.405 . S
C472 C473 1.383 . S
C473 C472 1.383 . S
C473 C474 1.393 . S
C474 H446 0.931 . S
C474 C473 1.393 . S
C474 C475 1.382 . S
C475 H445 0.929 . S
C475 C470 1.371 . S
C475 C474 1.382 . S
C476 N439 1.423 . S
C476 C477 1.362 . S
C476 C481 1.388 . S
C477 H447 0.929 . S
C477 C476 1.362 . S
C477 C478 1.376 . S
C478 H449 0.931 . S
C478 C477 1.376 . S
C478 C479 1.396 . S
C479 C478 1.396 . S
C479 C480 1.348 . S
C479 C497 1.472 . S
C480 H450 0.929 . S
C480 C479 1.348 . S
C480 C481 1.443 . S
C481 H448 0.932 . S
C481 C476 1.388 . S
C481 C480 1.443 . S
C482 N462 1.433 . S
C482 C483 1.363 . S
C482 C487 1.370 . S
C483 H451 0.929 . S
C483 C482 1.363 . S
C483 C484 1.385 . S
C484 H452 0.930 . S
C484 C483 1.385 . S
C484 C485 1.357 . S
C485 C484 1.357 . S
C485 C486 1.406 . S
C486 H453 0.929 . S
C486 C485 1.406 . S
C486 C487 1.391 . S
C487 H454 0.931 . S
C487 C482 1.370 . S
C487 C486 1.391 . S
C488 N462 1.435 . S
C488 C489 1.358 . S
C488 C493 1.371 . S
C489 H455 0.930 . S
C489 C488 1.358 . S
C489 C490 1.405 . S
C490 H456 0.932 . S
C490 C489 1.405 . S
C490 C491 1.383 . S
C491 C490 1.383 . S
C491 C492 1.393 . S
C492 H457 0.931 . S
C492 C491 1.393 . S
C492 C493 1.382 . S
C493 H458 0.929 . S
C493 C488 1.371 . S
C493 C492 1.382 . S
C494 N462 1.423 . S
C494 C495 1.362 . S
C494 C499 1.388 . S
C495 H459 0.929 . S
C495 C494 1.362 . S
C495 C496 1.376 . S
C496 H460 0.931 . S
C496 C495 1.376 . S
C496 C497 1.396 . S
C497 C479 1.472 . S
C497 C496 1.396 . S
C497 C498 1.348 . S
C498 H461 0.929 . S
C498 C497 1.348 . S
C498 C499 1.443 . S
C499 H463 0.932 . S
C499 C494 1.388 . S
C499 C498 1.443 . S
H500 C527 0.929 . S
N501 C526 1.433 . S
N501 C532 1.435 . S
N501 C538 1.423 . S
H502 C528 0.930 . S
H503 C531 0.931 . S
H504 C530 0.929 . S
H505 C533 0.930 . S
H506 C534 0.932 . S
H507 C537 0.929 . S
H508 C536 0.931 . S
H509 C539 0.929 . S
H510 C543 0.932 . S
H511 C540 0.931 . S
H512 C542 0.929 . S
H513 C545 0.929 . S
H514 C546 0.930 . S
H515 C548 0.929 . S
H516 C549 0.931 . S
H517 C551 0.930 . S
H518 C552 0.932 . S
H519 C554 0.931 . S
H520 C555 0.929 . S
H521 C557 0.929 . S
H522 C558 0.931 . S
H523 C560 0.929 . S
N524 C544 1.433 . S
N524 C550 1.435 . S
N524 C556 1.423 . S
H525 C561 0.932 . S
C526 N501 1.433 . S
C526 C527 1.363 . S
C526 C531 1.370 . S
C527 H500 0.929 . S
C527 C526 1.363 . S
C527 C528 1.385 . S
C528 H502 0.930 . S
C528 C527 1.385 . S
C528 C529 1.357 . S
C529 C528 1.357 . S
C529 C530 1.406 . S
C530 H504 0.929 . S
C530 C529 1.406 . S
C530 C531 1.391 . S
C531 H503 0.931 . S
C531 C526 1.370 . S
C531 C530 1.391 . S
C532 N501 1.435 . S
C532 C533 1.358 . S
C532 C537 1.371 . S
C533 H505 0.930 . S
C533 C532 1.358 . S
C533 C534 1.405 . S
C534 H506 0.932 . S
C534 C533 1.405 . S
C534 C535 1.383 . S
C535 C534 1.383 . S
C535 C536 1.393 . S
C536 H508 0.931 . S
C536 C535 1.393 . S
C536 C537 1.382 . S
C537 H507 0.929 . S
C537 C532 1.371 . S
C537 C536 1.382 . S
C538 N501 1.423 . S
C538 C539 1.362 . S
C538 C543 1.388 . S
C539 H509 0.929 . S
C539 C538 1.362 . S
C539 C540 1.376 . S
C540 H511 0.931 . S
C540 C539 1.376 . S
C540 C541 1.396 . S
C541 C540 1.396 . S
C541 C542 1.348 . S
C541 C559 1.472 . S
C542 H512 0.929 . S
C542 C541 1.348 . S
C542 C543 1.443 . S
C543 H510 0.932 . S
C543 C538 1.388 . S
C543 C542 1.443 . S
C544 N524 1.433 . S
C544 C545 1.363 . S
C544 C549 1.370 . S
C545 H513 0.929 . S
C545 C544 1.363 . S
C545 C546 1.385 . S
C546 H514 0.930 . S
C546 C545 1.385 . S
C546 C547 1.357 . S
C547 C546 1.357 . S
C547 C548 1.406 . S
C548 H515 0.929 . S
C548 C547 1.406 . S
C548 C549 1.391 . S
C549 H516 0.931 . S
C549 C544 1.370 . S
C549 C548 1.391 . S
C550 N524 1.435 . S
C550 C551 1.358 . S
C550 C555 1.371 . S
C551 H517 0.930 . S
C551 C550 1.358 . S
C551 C552 1.405 . S
C552 H518 0.932 . S
C552 C551 1.405 . S
C552 C553 1.383 . S
C553 C552 1.383 . S
C553 C554 1.393 . S
C554 H519 0.931 . S
C554 C553 1.393 . S
C554 C555 1.382 . S
C555 H520 0.929 . S
C555 C550 1.371 . S
C555 C554 1.382 . S
C556 N524 1.423 . S
C556 C557 1.362 . S
C556 C561 1.388 . S
C557 H521 0.929 . S
C557 C556 1.362 . S
C557 C558 1.376 . S
C558 H522 0.931 . S
C558 C557 1.376 . S
C558 C559 1.396 . S
C559 C541 1.472 . S
C559 C558 1.396 . S
C559 C560 1.348 . S
C560 H523 0.929 . S
C560 C559 1.348 . S
C560 C561 1.443 . S
C561 H525 0.932 . S
C561 C556 1.388 . S
C561 C560 1.443 . S
H562 C589 0.929 . S
N563 C588 1.433 . S
N563 C594 1.435 . S
N563 C600 1.423 . S
H564 C590 0.930 . S
H565 C593 0.931 . S
H566 C592 0.929 . S
H567 C595 0.930 . S
H568 C596 0.932 . S
H569 C599 0.929 . S
H570 C598 0.931 . S
H571 C601 0.929 . S
H572 C605 0.932 . S
H573 C602 0.931 . S
H574 C604 0.929 . S
H575 C607 0.929 . S
H576 C608 0.930 . S
H577 C610 0.929 . S
H578 C611 0.931 . S
H579 C613 0.930 . S
H580 C614 0.932 . S
H581 C616 0.931 . S
H582 C617 0.929 . S
H583 C619 0.929 . S
H584 C620 0.931 . S
H585 C622 0.929 . S
N586 C606 1.433 . S
N586 C612 1.435 . S
N586 C618 1.423 . S
H587 C623 0.932 . S
C588 N563 1.433 . S
C588 C589 1.363 . S
C588 C593 1.370 . S
C589 H562 0.929 . S
C589 C588 1.363 . S
C589 C590 1.385 . S
C590 H564 0.930 . S
C590 C589 1.385 . S
C590 C591 1.357 . S
C591 C590 1.357 . S
C591 C592 1.406 . S
C592 H566 0.929 . S
C592 C591 1.406 . S
C592 C593 1.391 . S
C593 H565 0.931 . S
C593 C588 1.370 . S
C593 C592 1.391 . S
C594 N563 1.435 . S
C594 C595 1.358 . S
C594 C599 1.371 . S
C595 H567 0.930 . S
C595 C594 1.358 . S
C595 C596 1.405 . S
C596 H568 0.932 . S
C596 C595 1.405 . S
C596 C597 1.383 . S
C597 C596 1.383 . S
C597 C598 1.393 . S
C598 H570 0.931 . S
C598 C597 1.393 . S
C598 C599 1.382 . S
C599 H569 0.929 . S
C599 C594 1.371 . S
C599 C598 1.382 . S
C600 N563 1.423 . S
C600 C601 1.362 . S
C600 C605 1.388 . S
C601 H571 0.929 . S
C601 C600 1.362 . S
C601 C602 1.376 . S
C602 H573 0.931 . S
C602 C601 1.376 . S
C602 C603 1.396 . S
C603 C602 1.396 . S
C603 C604 1.348 . S
C603 C621 1.472 . S
C604 H574 0.929 . S
C604 C603 1.348 . S
C604 C605 1.443 . S
C605 H572 0.932 . S
C605 C600 1.388 . S
C605 C604 1.443 . S
C606 N586 1.433 . S
C606 C607 1.363 . S
C606 C611 1.370 . S
C607 H575 0.929 . S
C607 C606 1.363 . S
C607 C608 1.385 . S
C608 H576 0.930 . S
C608 C607 1.385 . S
C608 C609 1.357 . S
C609 C608 1.357 . S
C609 C610 1.406 . S
C610 H577 0.929 . S
C610 C609 1.406 . S
C610 C611 1.391 . S
C611 H578 0.931 . S
C611 C606 1.370 . S
C611 C610 1.391 . S
C612 N586 1.435 . S
C612 C613 1.358 . S
C612 C617 1.371 . S
C613 H579 0.930 . S
C613 C612 1.358 . S
C613 C614 1.405 . S
C614 H580 0.932 . S
C614 C613 1.405 . S
C614 C615 1.383 . S
C615 C614 1.383 . S
C615 C616 1.393 . S
C616 H581 0.931 . S
C616 C615 1.393 . S
C616 C617 1.382 . S
C617 H582 0.929 . S
C617 C612 1.371 . S
C617 C616 1.382 . S
C618 N586 1.423 . S
C618 C619 1.362 . S
C618 C623 1.388 . S
C619 H583 0.929 . S
C619 C618 1.362 . S
C619 C620 1.376 . S
C620 H584 0.931 . S
C620 C619 1.376 . S
C620 C621 1.396 . S
C621 C603 1.472 . S
C621 C620 1.396 . S
C621 C622 1.348 . S
C622 H585 0.929 . S
C622 C621 1.348 . S
C622 C623 1.443 . S
C623 H587 0.932 . S
C623 C618 1.388 . S
C623 C622 1.443 . S
H624 C651 0.929 . S
N625 C650 1.433 . S
N625 C656 1.435 . S
N625 C662 1.423 . S
H626 C652 0.930 . S
H627 C655 0.931 . S
H628 C654 0.929 . S
H629 C657 0.930 . S
H630 C658 0.932 . S
H631 C661 0.929 . S
H632 C660 0.931 . S
H633 C663 0.929 . S
H634 C667 0.932 . S
H635 C664 0.931 . S
H636 C666 0.929 . S
H637 C669 0.929 . S
H638 C670 0.930 . S
H639 C672 0.929 . S
H640 C673 0.931 . S
H641 C675 0.930 . S
H642 C676 0.932 . S
H643 C678 0.931 . S
H644 C679 0.929 . S
H645 C681 0.929 . S
H646 C682 0.931 . S
H647 C684 0.929 . S
N648 C668 1.433 . S
N648 C674 1.435 . S
N648 C680 1.423 . S
H649 C685 0.932 . S
C650 N625 1.433 . S
C650 C651 1.363 . S
C650 C655 1.370 . S
C651 H624 0.929 . S
C651 C650 1.363 . S
C651 C652 1.385 . S
C652 H626 0.930 . S
C652 C651 1.385 . S
C652 C653 1.357 . S
C653 C652 1.357 . S
C653 C654 1.406 . S
C654 H628 0.929 . S
C654 C653 1.406 . S
C654 C655 1.391 . S
C655 H627 0.931 . S
C655 C650 1.370 . S
C655 C654 1.391 . S
C656 N625 1.435 . S
C656 C657 1.358 . S
C656 C661 1.371 . S
C657 H629 0.930 . S
C657 C656 1.358 . S
C657 C658 1.405 . S
C658 H630 0.932 . S
C658 C657 1.405 . S
C658 C659 1.383 . S
C659 C658 1.383 . S
C659 C660 1.393 . S
C660 H632 0.931 . S
C660 C659 1.393 . S
C660 C661 1.382 . S
C661 H631 0.929 . S
C661 C656 1.371 . S
C661 C660 1.382 . S
C662 N625 1.423 . S
C662 C663 1.362 . S
C662 C667 1.388 . S
C663 H633 0.929 . S
C663 C662 1.362 . S
C663 C664 1.376 . S
C664 H635 0.931 . S
C664 C663 1.376 . S
C664 C665 1.396 . S
C665 C664 1.396 . S
C665 C666 1.348 . S
C665 C683 1.472 . S
C666 H636 0.929 . S
C666 C665 1.348 . S
C666 C667 1.443 . S
C667 H634 0.932 . S
C667 C662 1.388 . S
C667 C666 1.443 . S
C668 N648 1.433 . S
C668 C669 1.363 . S
C668 C673 1.370 . S
C669 H637 0.929 . S
C669 C668 1.363 . S
C669 C670 1.385 . S
C670 H638 0.930 . S
C670 C669 1.385 . S
C670 C671 1.357 . S
C671 C670 1.357 . S
C671 C672 1.406 . S
C672 H639 0.929 . S
C672 C671 1.406 . S
C672 C673 1.391 . S
C673 H640 0.931 . S
C673 C668 1.370 . S
C673 C672 1.391 . S
C674 N648 1.435 . S
C674 C675 1.358 . S
C674 C679 1.371 . S
C675 H641 0.930 . S
C675 C674 1.358 . S
C675 C676 1.405 . S
C676 H642 0.932 . S
C676 C675 1.405 . S
C676 C677 1.383 . S
C677 C676 1.383 . S
C677 C678 1.393 . S
C678 H643 0.931 . S
C678 C677 1.393 . S
C678 C679 1.382 . S
C679 H644 0.929 . S
C679 C674 1.371 . S
C679 C678 1.382 . S
C680 N648 1.423 . S
C680 C681 1.362 . S
C680 C685 1.388 . S
C681 H645 0.929 . S
C681 C680 1.362 . S
C681 C682 1.376 . S
C682 H646 0.931 . S
C682 C681 1.376 . S
C682 C683 1.396 . S
C683 C665 1.472 . S
C683 C682 1.396 . S
C683 C684 1.348 . S
C684 H647 0.929 . S
C684 C683 1.348 . S
C684 C685 1.443 . S
C685 H649 0.932 . S
C685 C680 1.388 . S
C685 C684 1.443 . S
H686 C713 0.929 . S
N687 C712 1.433 . S
N687 C718 1.435 . S
N687 C724 1.423 . S
H688 C714 0.930 . S
H689 C717 0.931 . S
H690 C716 0.929 . S
H691 C719 0.930 . S
H692 C720 0.932 . S
H693 C723 0.929 . S
H694 C722 0.931 . S
H695 C725 0.929 . S
H696 C729 0.932 . S
H697 C726 0.931 . S
H698 C728 0.929 . S
H699 C731 0.929 . S
H700 C732 0.930 . S
H701 C734 0.929 . S
H702 C735 0.931 . S
H703 C737 0.930 . S
H704 C738 0.932 . S
H705 C740 0.931 . S
H706 C741 0.929 . S
H707 C743 0.929 . S
H708 C744 0.931 . S
H709 C746 0.929 . S
N710 C730 1.433 . S
N710 C736 1.435 . S
N710 C742 1.423 . S
H711 C747 0.932 . S
C712 N687 1.433 . S
C712 C713 1.363 . S
C712 C717 1.370 . S
C713 H686 0.929 . S
C713 C712 1.363 . S
C713 C714 1.385 . S
C714 H688 0.930 . S
C714 C713 1.385 . S
C714 C715 1.357 . S
C715 C714 1.357 . S
C715 C716 1.406 . S
C716 H690 0.929 . S
C716 C715 1.406 . S
C716 C717 1.391 . S
C717 H689 0.931 . S
C717 C712 1.370 . S
C717 C716 1.391 . S
C718 N687 1.435 . S
C718 C719 1.358 . S
C718 C723 1.371 . S
C719 H691 0.930 . S
C719 C718 1.358 . S
C719 C720 1.405 . S
C720 H692 0.932 . S
C720 C719 1.405 . S
C720 C721 1.383 . S
C721 C720 1.383 . S
C721 C722 1.393 . S
C722 H694 0.931 . S
C722 C721 1.393 . S
C722 C723 1.382 . S
C723 H693 0.929 . S
C723 C718 1.371 . S
C723 C722 1.382 . S
C724 N687 1.423 . S
C724 C725 1.362 . S
C724 C729 1.388 . S
C725 H695 0.929 . S
C725 C724 1.362 . S
C725 C726 1.376 . S
C726 H697 0.931 . S
C726 C725 1.376 . S
C726 C727 1.396 . S
C727 C726 1.396 . S
C727 C728 1.348 . S
C727 C745 1.472 . S
C728 H698 0.929 . S
C728 C727 1.348 . S
C728 C729 1.443 . S
C729 H696 0.932 . S
C729 C724 1.388 . S
C729 C728 1.443 . S
C730 N710 1.433 . S
C730 C731 1.363 . S
C730 C735 1.370 . S
C731 H699 0.929 . S
C731 C730 1.363 . S
C731 C732 1.385 . S
C732 H700 0.930 . S
C732 C731 1.385 . S
C732 C733 1.357 . S
C733 C732 1.357 . S
C733 C734 1.406 . S
C734 H701 0.929 . S
C734 C733 1.406 . S
C734 C735 1.391 . S
C735 H702 0.931 . S
C735 C730 1.370 . S
C735 C734 1.391 . S
C736 N710 1.435 . S
C736 C737 1.358 . S
C736 C741 1.371 . S
C737 H703 0.930 . S
C737 C736 1.358 . S
C737 C738 1.405 . S
C738 H704 0.932 . S
C738 C737 1.405 . S
C738 C739 1.383 . S
C739 C738 1.383 . S
C739 C740 1.393 . S
C740 H705 0.931 . S
C740 C739 1.393 . S
C740 C741 1.382 . S
C741 H706 0.929 . S
C741 C736 1.371 . S
C741 C740 1.382 . S
C742 N710 1.423 . S
C742 C743 1.362 . S
C742 C747 1.388 . S
C743 H707 0.929 . S
C743 C742 1.362 . S
C743 C744 1.376 . S
C744 H708 0.931 . S
C744 C743 1.376 . S
C744 C745 1.396 . S
C745 C727 1.472 . S
C745 C744 1.396 . S
C745 C746 1.348 . S
C746 H709 0.929 . S
C746 C745 1.348 . S
C746 C747 1.443 . S
C747 H711 0.932 . S
C747 C742 1.388 . S
C747 C746 1.443 . S
H748 C775 0.929 . S
N749 C774 1.433 . S
N749 C780 1.435 . S
N749 C786 1.423 . S
H750 C776 0.930 . S
H751 C779 0.931 . S
H752 C778 0.929 . S
H753 C781 0.930 . S
H754 C782 0.932 . S
H755 C785 0.929 . S
H756 C784 0.931 . S
H757 C787 0.929 . S
H758 C791 0.932 . S
H759 C788 0.931 . S
H760 C790 0.929 . S
H761 C793 0.929 . S
H762 C794 0.930 . S
H763 C796 0.929 . S
H764 C797 0.931 . S
H765 C799 0.930 . S
H766 C800 0.932 . S
H767 C802 0.931 . S
H768 C803 0.929 . S
H769 C805 0.929 . S
H770 C806 0.931 . S
H771 C808 0.929 . S
N772 C792 1.433 . S
N772 C798 1.435 . S
N772 C804 1.423 . S
H773 C809 0.932 . S
C774 N749 1.433 . S
C774 C775 1.363 . S
C774 C779 1.370 . S
C775 H748 0.929 . S
C775 C774 1.363 . S
C775 C776 1.385 . S
C776 H750 0.930 . S
C776 C775 1.385 . S
C776 C777 1.357 . S
C777 C776 1.357 . S
C777 C778 1.406 . S
C778 H752 0.929 . S
C778 C777 1.406 . S
C778 C779 1.391 . S
C779 H751 0.931 . S
C779 C774 1.370 . S
C779 C778 1.391 . S
C780 N749 1.435 . S
C780 C781 1.358 . S
C780 C785 1.371 . S
C781 H753 0.930 . S
C781 C780 1.358 . S
C781 C782 1.405 . S
C782 H754 0.932 . S
C782 C781 1.405 . S
C782 C783 1.383 . S
C783 C782 1.383 . S
C783 C784 1.393 . S
C784 H756 0.931 . S
C784 C783 1.393 . S
C784 C785 1.382 . S
C785 H755 0.929 . S
C785 C780 1.371 . S
C785 C784 1.382 . S
C786 N749 1.423 . S
C786 C787 1.362 . S
C786 C791 1.388 . S
C787 H757 0.929 . S
C787 C786 1.362 . S
C787 C788 1.376 . S
C788 H759 0.931 . S
C788 C787 1.376 . S
C788 C789 1.396 . S
C789 C788 1.396 . S
C789 C790 1.348 . S
C789 C807 1.472 . S
C790 H760 0.929 . S
C790 C789 1.348 . S
C790 C791 1.443 . S
C791 H758 0.932 . S
C791 C786 1.388 . S
C791 C790 1.443 . S
C792 N772 1.433 . S
C792 C793 1.363 . S
C792 C797 1.370 . S
C793 H761 0.929 . S
C793 C792 1.363 . S
C793 C794 1.385 . S
C794 H762 0.930 . S
C794 C793 1.385 . S
C794 C795 1.357 . S
C795 C794 1.357 . S
C795 C796 1.406 . S
C796 H763 0.929 . S
C796 C795 1.406 . S
C796 C797 1.391 . S
C797 H764 0.931 . S
C797 C792 1.370 . S
C797 C796 1.391 . S
C798 N772 1.435 . S
C798 C799 1.358 . S
C798 C803 1.371 . S
C799 H765 0.930 . S
C799 C798 1.358 . S
C799 C800 1.405 . S
C800 H766 0.932 . S
C800 C799 1.405 . S
C800 C801 1.383 . S
C801 C800 1.383 . S
C801 C802 1.393 . S
C802 H767 0.931 . S
C802 C801 1.393 . S
C802 C803 1.382 . S
C803 H768 0.929 . S
C803 C798 1.371 . S
C803 C802 1.382 . S
C804 N772 1.423 . S
C804 C805 1.362 . S
C804 C809 1.388 . S
C805 H769 0.929 . S
C805 C804 1.362 . S
C805 C806 1.376 . S
C806 H770 0.931 . S
C806 C805 1.376 . S
C806 C807 1.396 . S
C807 C789 1.472 . S
C807 C806 1.396 . S
C807 C808 1.348 . S
C808 H771 0.929 . S
C808 C807 1.348 . S
C808 C809 1.443 . S
C809 H773 0.932 . S
C809 C804 1.388 . S
C809 C808 1.443 . S
H810 C837 0.929 . S
N811 C836 1.433 . S
N811 C842 1.435 . S
N811 C848 1.423 . S
H812 C838 0.930 . S
H813 C841 0.931 . S
H814 C840 0.929 . S
H815 C843 0.930 . S
H816 C844 0.932 . S
H817 C847 0.929 . S
H818 C846 0.931 . S
H819 C849 0.929 . S
H820 C853 0.932 1_655 S
H821 C850 0.931 . S
H822 C852 0.929 . S
H823 C855 0.929 . S
H824 C856 0.930 . S
H825 C858 0.929 . S
H826 C859 0.931 . S
H827 C861 0.930 . S
H828 C862 0.932 . S
H829 C864 0.931 . S
H830 C865 0.929 . S
H831 C867 0.929 . S
H832 C868 0.931 . S
H833 C870 0.929 . S
N834 C854 1.433 . S
N834 C860 1.435 . S
N834 C866 1.423 . S
H835 C871 0.932 1_655 S
C836 N811 1.433 . S
C836 C837 1.363 . S
C836 C841 1.370 1_455 S
C837 H810 0.929 . S
C837 C836 1.363 . S
C837 C838 1.385 . S
C838 H812 0.930 . S
C838 C837 1.385 . S
C838 C839 1.357 1_455 S
C839 C838 1.357 1_655 S
C839 C840 1.406 . S
C840 H814 0.929 . S
C840 C839 1.406 . S
C840 C841 1.391 . S
C841 H813 0.931 . S
C841 C836 1.370 1_655 S
C841 C840 1.391 . S
C842 N811 1.435 . S
C842 C843 1.358 1_455 S
C842 C847 1.371 . S
C843 H815 0.930 . S
C843 C842 1.358 1_655 S
C843 C844 1.405 . S
C844 H816 0.932 . S
C844 C843 1.405 . S
C844 C845 1.383 1_655 S
C845 C844 1.383 1_455 S
C845 C846 1.393 . S
C846 H818 0.931 . S
C846 C845 1.393 . S
C846 C847 1.382 . S
C847 H817 0.929 . S
C847 C842 1.371 . S
C847 C846 1.382 . S
C848 N811 1.423 . S
C848 C849 1.362 . S
C848 C853 1.388 . S
C849 H819 0.929 . S
C849 C848 1.362 . S
C849 C850 1.376 . S
C850 H821 0.931 . S
C850 C849 1.376 . S
C850 C851 1.396 . S
C851 C850 1.396 . S
C851 C852 1.348 . S
C851 C869 1.472 . S
C852 H822 0.929 . S
C852 C851 1.348 . S
C852 C853 1.443 . S
C853 H820 0.932 1_455 S
C853 C848 1.388 . S
C853 C852 1.443 . S
C854 N834 1.433 . S
C854 C855 1.363 . S
C854 C859 1.370 1_455 S
C855 H823 0.929 . S
C855 C854 1.363 . S
C855 C856 1.385 . S
C856 H824 0.930 . S
C856 C855 1.385 . S
C856 C857 1.357 1_455 S
C857 C856 1.357 1_655 S
C857 C858 1.406 . S
C858 H825 0.929 . S
C858 C857 1.406 . S
C858 C859 1.391 . S
C859 H826 0.931 . S
C859 C854 1.370 1_655 S
C859 C858 1.391 . S
C860 N834 1.435 . S
C860 C861 1.358 1_455 S
C860 C865 1.371 . S
C861 H827 0.930 . S
C861 C860 1.358 1_655 S
C861 C862 1.405 . S
C862 H828 0.932 . S
C862 C861 1.405 . S
C862 C863 1.383 1_655 S
C863 C862 1.383 1_455 S
C863 C864 1.393 . S
C864 H829 0.931 . S
C864 C863 1.393 . S
C864 C865 1.382 . S
C865 H830 0.929 . S
C865 C860 1.371 . S
C865 C864 1.382 . S
C866 N834 1.423 . S
C866 C867 1.362 . S
C866 C871 1.388 . S
C867 H831 0.929 . S
C867 C866 1.362 . S
C867 C868 1.376 . S
C868 H832 0.931 . S
C868 C867 1.376 . S
C868 C869 1.396 . S
C869 C851 1.472 . S
C869 C868 1.396 . S
C869 C870 1.348 . S
C870 H833 0.929 . S
C870 C869 1.348 . S
C870 C871 1.443 . S
C871 H835 0.932 1_455 S
C871 C866 1.388 . S
C871 C870 1.443 . S
H872 C899 0.929 . S
N873 C898 1.433 . S
N873 C904 1.435 . S
N873 C910 1.423 . S
H874 C900 0.930 . S
H875 C903 0.931 . S
H876 C902 0.929 . S
H877 C905 0.930 . S
H878 C906 0.932 . S
H879 C909 0.929 . S
H880 C908 0.931 . S
H881 C911 0.929 . S
H882 C915 0.932 . S
H883 C912 0.931 . S
H884 C914 0.929 . S
H885 C917 0.929 . S
H886 C918 0.930 . S
H887 C920 0.929 . S
H888 C921 0.931 . S
H889 C923 0.930 . S
H890 C924 0.932 . S
H891 C926 0.931 . S
H892 C927 0.929 . S
H893 C929 0.929 . S
H894 C930 0.931 . S
H895 C932 0.929 . S
N896 C916 1.433 . S
N896 C922 1.435 . S
N896 C928 1.423 . S
H897 C933 0.932 . S
C898 N873 1.433 . S
C898 C899 1.363 . S
C898 C903 1.370 . S
C899 H872 0.929 . S
C899 C898 1.363 . S
C899 C900 1.385 . S
C900 H874 0.930 . S
C900 C899 1.385 . S
C900 C901 1.357 . S
C901 C900 1.357 . S
C901 C902 1.406 . S
C902 H876 0.929 . S
C902 C901 1.406 . S
C902 C903 1.391 . S
C903 H875 0.931 . S
C903 C898 1.370 . S
C903 C902 1.391 . S
C904 N873 1.435 . S
C904 C905 1.358 . S
C904 C909 1.371 . S
C905 H877 0.930 . S
C905 C904 1.358 . S
C905 C906 1.405 . S
C906 H878 0.932 . S
C906 C905 1.405 . S
C906 C907 1.383 . S
C907 C906 1.383 . S
C907 C908 1.393 . S
C908 H880 0.931 . S
C908 C907 1.393 . S
C908 C909 1.382 . S
C909 H879 0.929 . S
C909 C904 1.371 . S
C909 C908 1.382 . S
C910 N873 1.423 . S
C910 C911 1.362 . S
C910 C915 1.388 . S
C911 H881 0.929 . S
C911 C910 1.362 . S
C911 C912 1.376 . S
C912 H883 0.931 . S
C912 C911 1.376 . S
C912 C913 1.396 . S
C913 C912 1.396 . S
C913 C914 1.348 . S
C913 C931 1.472 . S
C914 H884 0.929 . S
C914 C913 1.348 . S
C914 C915 1.443 . S
C915 H882 0.932 . S
C915 C910 1.388 . S
C915 C914 1.443 . S
C916 N896 1.433 . S
C916 C917 1.363 . S
C916 C921 1.370 . S
C917 H885 0.929 . S
C917 C916 1.363 . S
C917 C918 1.385 . S
C918 H886 0.930 . S
C918 C917 1.385 . S
C918 C919 1.357 . S
C919 C918 1.357 . S
C919 C920 1.406 . S
C920 H887 0.929 . S
C920 C919 1.406 . S
C920 C921 1.391 . S
C921 H888 0.931 . S
C921 C916 1.370 . S
C921 C920 1.391 . S
C922 N896 1.435 . S
C922 C923 1.358 . S
C922 C927 1.371 . S
C923 H889 0.930 . S
C923 C922 1.358 . S
C923 C924 1.405 . S
C924 H890 0.932 . S
C924 C923 1.405 . S
C924 C925 1.383 . S
C925 C924 1.383 . S
C925 C926 1.393 . S
C926 H891 0.931 . S
C926 C925 1.393 . S
C926 C927 1.382 . S
C927 H892 0.929 . S
C927 C922 1.371 . S
C927 C926 1.382 . S
C928 N896 1.423 . S
C928 C929 1.362 . S
C928 C933 1.388 . S
C929 H893 0.929 . S
C929 C928 1.362 . S
C929 C930 1.376 . S
C930 H894 0.931 . S
C930 C929 1.376 . S
C930 C931 1.396 . S
C931 C913 1.472 . S
C931 C930 1.396 . S
C931 C932 1.348 . S
C932 H895 0.929 . S
C932 C931 1.348 . S
C932 C933 1.443 . S
C933 H897 0.932 . S
C933 C928 1.388 . S
C933 C932 1.443 . S
H934 C961 0.929 . S
N935 C960 1.433 . S
N935 C966 1.435 . S
N935 C972 1.423 . S
H936 C962 0.930 . S
H937 C965 0.931 . S
H938 C964 0.929 . S
H939 C967 0.930 . S
H940 C968 0.932 . S
H941 C971 0.929 . S
H942 C970 0.931 . S
H943 C973 0.929 . S
H944 C977 0.932 1_545 S
H945 C974 0.931 . S
H946 C976 0.929 . S
H947 C979 0.929 . S
H948 C980 0.930 . S
H949 C982 0.929 . S
H950 C983 0.931 . S
H951 C985 0.930 . S
H952 C986 0.932 . S
H953 C988 0.931 . S
H954 C989 0.929 . S
H955 C991 0.929 . S
H956 C992 0.931 . S
H957 C994 0.929 . S
N958 C978 1.433 . S
N958 C984 1.435 . S
N958 C990 1.423 . S
H959 C995 0.932 1_545 S
C960 N935 1.433 . S
C960 C961 1.363 . S
C960 C965 1.370 1_565 S
C961 H934 0.929 . S
C961 C960 1.363 . S
C961 C962 1.385 . S
C962 H936 0.930 . S
C962 C961 1.385 . S
C962 C963 1.357 1_565 S
C963 C962 1.357 1_545 S
C963 C964 1.406 . S
C964 H938 0.929 . S
C964 C963 1.406 . S
C964 C965 1.391 . S
C965 H937 0.931 . S
C965 C960 1.370 1_545 S
C965 C964 1.391 . S
C966 N935 1.435 . S
C966 C967 1.358 1_565 S
C966 C971 1.371 . S
C967 H939 0.930 . S
C967 C966 1.358 1_545 S
C967 C968 1.405 . S
C968 H940 0.932 . S
C968 C967 1.405 . S
C968 C969 1.383 1_545 S
C969 C968 1.383 1_565 S
C969 C970 1.393 . S
C970 H942 0.931 . S
C970 C969 1.393 . S
C970 C971 1.382 . S
C971 H941 0.929 . S
C971 C966 1.371 . S
C971 C970 1.382 . S
C972 N935 1.423 . S
C972 C973 1.362 . S
C972 C977 1.388 . S
C973 H943 0.929 . S
C973 C972 1.362 . S
C973 C974 1.376 . S
C974 H945 0.931 . S
C974 C973 1.376 . S
C974 C975 1.396 . S
C975 C974 1.396 . S
C975 C976 1.348 . S
C975 C993 1.472 . S
C976 H946 0.929 . S
C976 C975 1.348 . S
C976 C977 1.443 . S
C977 H944 0.932 1_565 S
C977 C972 1.388 . S
C977 C976 1.443 . S
C978 N958 1.433 . S
C978 C979 1.363 . S
C978 C983 1.370 1_565 S
C979 H947 0.929 . S
C979 C978 1.363 . S
C979 C980 1.385 . S
C980 H948 0.930 . S
C980 C979 1.385 . S
C980 C981 1.357 1_565 S
C981 C980 1.357 1_545 S
C981 C982 1.406 . S
C982 H949 0.929 . S
C982 C981 1.406 . S
C982 C983 1.391 . S
C983 H950 0.931 . S
C983 C978 1.370 1_545 S
C983 C982 1.391 . S
C984 N958 1.435 . S
C984 C985 1.358 1_565 S
C984 C989 1.371 . S
C985 H951 0.930 . S
C985 C984 1.358 1_545 S
C985 C986 1.405 . S
C986 H952 0.932 . S
C986 C985 1.405 . S
C986 C987 1.383 1_545 S
C987 C986 1.383 1_565 S
C987 C988 1.393 . S
C988 H953 0.931 . S
C988 C987 1.393 . S
C988 C989 1.382 . S
C989 H954 0.929 . S
C989 C984 1.371 . S
C989 C988 1.382 . S
C990 N958 1.423 . S
C990 C991 1.362 . S
C990 C995 1.388 . S
C991 H955 0.929 . S
C991 C990 1.362 . S
C991 C992 1.376 . S
C992 H956 0.931 . S
C992 C991 1.376 . S
C992 C993 1.396 . S
C993 C975 1.472 . S
C993 C992 1.396 . S
C993 C994 1.348 . S
C994 H957 0.929 . S
C994 C993 1.348 . S
C994 C995 1.443 . S
C995 H959 0.932 1_565 S
C995 C990 1.388 . S
C995 C994 1.443 . S
H996 C1023 0.929 . S
N997 C1022 1.433 . S
N997 C1028 1.435 . S
N997 C1034 1.423 . S
H998 C1024 0.930 . S
H999 C1027 0.930 . S
H1000 C1026 0.943 . S
H1001 C1029 0.930 . S
H1002 C1030 0.932 . S
H1003 C1033 0.929 . S
H1004 C1032 0.931 . S
H1005 C1035 0.929 . S
H1006 C1039 0.932 . S
H1007 C1036 0.931 . S
H1008 C1038 0.918 1_545 S
H1009 C1041 0.929 . S
H1010 C1042 0.930 . S
H1011 C1044 0.929 . S
H1012 C1045 0.999 . S
H1013 C1047 0.930 . S
H1014 C1048 0.932 . S
H1015 C1050 0.931 . S
H1016 C1051 0.929 . S
H1017 C1053 0.929 . S
H1018 C1054 0.931 . S
H1019 C1056 0.899 1_545 S
N1020 C1040 1.433 . S
N1020 C1046 1.435 . S
N1020 C1052 1.423 . S
H1021 C1057 0.932 . S
C1022 N997 1.433 . S
C1022 C1023 1.363 . S
C1022 C1027 1.365 1_565 S
C1023 H996 0.929 . S
C1023 C1022 1.363 . S
C1023 C1024 1.385 . S
C1024 H998 0.930 . S
C1024 C1023 1.385 . S
C1024 C1025 1.357 . S
C1025 C1024 1.357 . S
C1025 C1026 1.411 1_565 S
C1026 H1000 0.943 . S
C1026 C1025 1.411 1_545 S
C1026 C1027 1.387 . S
C1027 H999 0.930 . S
C1027 C1022 1.365 1_545 S
C1027 C1026 1.387 . S
C1028 N997 1.435 . S
C1028 C1029 1.358 1_565 S
C1028 C1033 1.371 . S
C1029 H1001 0.930 . S
C1029 C1028 1.358 1_545 S
C1029 C1030 1.405 . S
C1030 H1002 0.932 . S
C1030 C1029 1.405 . S
C1030 C1031 1.383 . S
C1031 C1030 1.383 . S
C1031 C1032 1.393 1_545 S
C1032 H1004 0.931 . S
C1032 C1031 1.393 1_565 S
C1032 C1033 1.382 . S
C1033 H1003 0.929 . S
C1033 C1028 1.371 . S
C1033 C1032 1.382 . S
C1034 N997 1.423 . S
C1034 C1035 1.362 . S
C1034 C1039 1.388 1_565 S
C1035 H1005 0.929 . S
C1035 C1034 1.362 . S
C1035 C1036 1.376 . S
C1036 H1007 0.931 . S
C1036 C1035 1.376 . S
C1036 C1037 1.396 . S
C1037 C1036 1.396 . S
C1037 C1038 1.389 . S
C1037 C1055 1.472 . S
C1038 H1008 0.918 1_565 S
C1038 C1037 1.389 . S
C1038 C1039 1.414 1_565 S
C1039 H1006 0.932 . S
C1039 C1034 1.388 1_545 S
C1039 C1038 1.414 1_545 S
C1040 N1020 1.433 . S
C1040 C1041 1.363 . S
C1040 C1045 1.319 1_565 S
C1041 H1009 0.929 . S
C1041 C1040 1.363 . S
C1041 C1042 1.385 . S
C1042 H1010 0.930 . S
C1042 C1041 1.385 . S
C1042 C1043 1.357 . S
C1043 C1042 1.357 . S
C1043 C1044 1.406 1_565 S
C1044 H1011 0.929 . S
C1044 C1043 1.406 1_545 S
C1044 C1045 1.379 . S
C1045 H1012 0.999 . S
C1045 C1040 1.319 1_545 S
C1045 C1044 1.379 . S
C1046 N1020 1.435 . S
C1046 C1047 1.358 1_565 S
C1046 C1051 1.371 . S
C1047 H1013 0.930 . S
C1047 C1046 1.358 1_545 S
C1047 C1048 1.405 . S
C1048 H1014 0.932 . S
C1048 C1047 1.405 . S
C1048 C1049 1.383 . S
C1049 C1048 1.383 . S
C1049 C1050 1.393 1_545 S
C1050 H1015 0.931 . S
C1050 C1049 1.393 1_565 S
C1050 C1051 1.382 . S
C1051 H1016 0.929 . S
C1051 C1046 1.371 . S
C1051 C1050 1.382 . S
C1052 N1020 1.423 . S
C1052 C1053 1.362 . S
C1052 C1057 1.388 1_565 S
C1053 H1017 0.929 . S
C1053 C1052 1.362 . S
C1053 C1054 1.376 . S
C1054 H1018 0.931 . S
C1054 C1053 1.376 . S
C1054 C1055 1.396 . S
C1055 C1037 1.472 . S
C1055 C1054 1.396 . S
C1055 C1056 1.360 . S
C1056 H1019 0.899 1_565 S
C1056 C1055 1.360 . S
C1056 C1057 1.460 1_565 S
C1057 H1021 0.932 . S
C1057 C1052 1.388 1_545 S
C1057 C1056 1.460 1_545 S
H1058 C1085 0.929 . S
N1059 C1084 1.433 . S
N1059 C1090 1.435 . S
N1059 C1096 1.423 . S
H1060 C1086 0.930 . S
H1061 C1089 0.931 . S
H1062 C1088 0.929 . S
H1063 C1091 0.930 . S
H1064 C1092 0.932 . S
H1065 C1095 0.929 . S
H1066 C1094 0.931 . S
H1067 C1097 0.929 . S
H1068 C1101 0.932 1_455 S
H1069 C1098 0.931 . S
H1070 C1100 0.929 . S
H1071 C1103 0.929 . S
H1072 C1104 0.930 . S
H1073 C1106 0.929 . S
H1074 C1107 0.931 . S
H1075 C1109 0.930 . S
H1076 C1110 0.932 . S
H1077 C1112 0.931 . S
H1078 C1113 0.929 . S
H1079 C1115 0.929 . S
H1080 C1116 0.931 . S
H1081 C1118 0.929 . S
N1082 C1102 1.433 . S
N1082 C1108 1.435 . S
N1082 C1114 1.423 . S
H1083 C1119 0.932 1_455 S
C1084 N1059 1.433 . S
C1084 C1085 1.363 . S
C1084 C1089 1.370 1_655 S
C1085 H1058 0.929 . S
C1085 C1084 1.363 . S
C1085 C1086 1.385 . S
C1086 H1060 0.930 . S
C1086 C1085 1.385 . S
C1086 C1087 1.357 1_655 S
C1087 C1086 1.357 1_455 S
C1087 C1088 1.406 . S
C1088 H1062 0.929 . S
C1088 C1087 1.406 . S
C1088 C1089 1.391 . S
C1089 H1061 0.931 . S
C1089 C1084 1.370 1_455 S
C1089 C1088 1.391 . S
C1090 N1059 1.435 . S
C1090 C1091 1.358 1_655 S
C1090 C1095 1.371 . S
C1091 H1063 0.930 . S
C1091 C1090 1.358 1_455 S
C1091 C1092 1.405 . S
C1092 H1064 0.932 . S
C1092 C1091 1.405 . S
C1092 C1093 1.383 1_455 S
C1093 C1092 1.383 1_655 S
C1093 C1094 1.393 . S
C1094 H1066 0.931 . S
C1094 C1093 1.393 . S
C1094 C1095 1.382 . S
C1095 H1065 0.929 . S
C1095 C1090 1.371 . S
C1095 C1094 1.382 . S
C1096 N1059 1.423 . S
C1096 C1097 1.362 . S
C1096 C1101 1.388 . S
C1097 H1067 0.929 . S
C1097 C1096 1.362 . S
C1097 C1098 1.376 . S
C1098 H1069 0.931 . S
C1098 C1097 1.376 . S
C1098 C1099 1.396 . S
C1099 C1098 1.396 . S
C1099 C1100 1.348 . S
C1099 C1117 1.472 . S
C1100 H1070 0.929 . S
C1100 C1099 1.348 . S
C1100 C1101 1.443 . S
C1101 H1068 0.932 1_655 S
C1101 C1096 1.388 . S
C1101 C1100 1.443 . S
C1102 N1082 1.433 . S
C1102 C1103 1.363 . S
C1102 C1107 1.370 1_655 S
C1103 H1071 0.929 . S
C1103 C1102 1.363 . S
C1103 C1104 1.385 . S
C1104 H1072 0.930 . S
C1104 C1103 1.385 . S
C1104 C1105 1.357 1_655 S
C1105 C1104 1.357 1_455 S
C1105 C1106 1.406 . S
C1106 H1073 0.929 . S
C1106 C1105 1.406 . S
C1106 C1107 1.391 . S
C1107 H1074 0.931 . S
C1107 C1102 1.370 1_455 S
C1107 C1106 1.391 . S
C1108 N1082 1.435 . S
C1108 C1109 1.358 1_655 S
C1108 C1113 1.371 . S
C1109 H1075 0.930 . S
C1109 C1108 1.358 1_455 S
C1109 C1110 1.405 . S
C1110 H1076 0.932 . S
C1110 C1109 1.405 . S
C1110 C1111 1.383 1_455 S
C1111 C1110 1.383 1_655 S
C1111 C1112 1.393 . S
C1112 H1077 0.931 . S
C1112 C1111 1.393 . S
C1112 C1113 1.382 . S
C1113 H1078 0.929 . S
C1113 C1108 1.371 . S
C1113 C1112 1.382 . S
C1114 N1082 1.423 . S
C1114 C1115 1.362 . S
C1114 C1119 1.388 . S
C1115 H1079 0.929 . S
C1115 C1114 1.362 . S
C1115 C1116 1.376 . S
C1116 H1080 0.931 . S
C1116 C1115 1.376 . S
C1116 C1117 1.396 . S
C1117 C1099 1.472 . S
C1117 C1116 1.396 . S
C1117 C1118 1.348 . S
C1118 H1081 0.929 . S
C1118 C1117 1.348 . S
C1118 C1119 1.443 . S
C1119 H1083 0.932 1_655 S
C1119 C1114 1.388 . S
C1119 C1118 1.443 . S
H1120 C1147 0.929 . S
N1121 C1146 1.433 . S
N1121 C1152 1.435 . S
N1121 C1158 1.423 . S
H1122 C1148 0.930 . S
H1123 C1151 0.931 . S
H1124 C1150 0.929 . S
H1125 C1153 0.930 . S
H1126 C1154 0.932 . S
H1127 C1157 0.929 . S
H1128 C1156 0.931 . S
H1129 C1159 0.929 . S
H1130 C1163 0.932 . S
H1131 C1160 0.931 . S
H1132 C1162 0.929 . S
H1133 C1165 0.929 . S
H1134 C1166 0.930 . S
H1135 C1168 0.929 . S
H1136 C1169 0.931 . S
H1137 C1171 0.930 . S
H1138 C1172 0.932 . S
H1139 C1174 0.931 . S
H1140 C1175 0.929 . S
H1141 C1177 0.929 . S
H1142 C1178 0.931 . S
H1143 C1180 0.929 . S
N1144 C1164 1.433 . S
N1144 C1170 1.435 . S
N1144 C1176 1.423 . S
H1145 C1181 0.932 . S
C1146 N1121 1.433 . S
C1146 C1147 1.363 . S
C1146 C1151 1.370 . S
C1147 H1120 0.929 . S
C1147 C1146 1.363 . S
C1147 C1148 1.385 . S
C1148 H1122 0.930 . S
C1148 C1147 1.385 . S
C1148 C1149 1.357 . S
C1149 C1148 1.357 . S
C1149 C1150 1.406 . S
C1150 H1124 0.929 . S
C1150 C1149 1.406 . S
C1150 C1151 1.391 . S
C1151 H1123 0.931 . S
C1151 C1146 1.370 . S
C1151 C1150 1.391 . S
C1152 N1121 1.435 . S
C1152 C1153 1.358 . S
C1152 C1157 1.371 . S
C1153 H1125 0.930 . S
C1153 C1152 1.358 . S
C1153 C1154 1.405 . S
C1154 H1126 0.932 . S
C1154 C1153 1.405 . S
C1154 C1155 1.383 . S
C1155 C1154 1.383 . S
C1155 C1156 1.393 . S
C1156 H1128 0.931 . S
C1156 C1155 1.393 . S
C1156 C1157 1.382 . S
C1157 H1127 0.929 . S
C1157 C1152 1.371 . S
C1157 C1156 1.382 . S
C1158 N1121 1.423 . S
C1158 C1159 1.362 . S
C1158 C1163 1.388 . S
C1159 H1129 0.929 . S
C1159 C1158 1.362 . S
C1159 C1160 1.376 . S
C1160 H1131 0.931 . S
C1160 C1159 1.376 . S
C1160 C1161 1.396 . S
C1161 C1160 1.396 . S
C1161 C1162 1.348 . S
C1161 C1179 1.472 . S
C1162 H1132 0.929 . S
C1162 C1161 1.348 . S
C1162 C1163 1.443 . S
C1163 H1130 0.932 . S
C1163 C1158 1.388 . S
C1163 C1162 1.443 . S
C1164 N1144 1.433 . S
C1164 C1165 1.363 . S
C1164 C1169 1.370 . S
C1165 H1133 0.929 . S
C1165 C1164 1.363 . S
C1165 C1166 1.385 . S
C1166 H1134 0.930 . S
C1166 C1165 1.385 . S
C1166 C1167 1.357 . S
C1167 C1166 1.357 . S
C1167 C1168 1.406 . S
C1168 H1135 0.929 . S
C1168 C1167 1.406 . S
C1168 C1169 1.391 . S
C1169 H1136 0.931 . S
C1169 C1164 1.370 . S
C1169 C1168 1.391 . S
C1170 N1144 1.435 . S
C1170 C1171 1.358 . S
C1170 C1175 1.371 . S
C1171 H1137 0.930 . S
C1171 C1170 1.358 . S
C1171 C1172 1.405 . S
C1172 H1138 0.932 . S
C1172 C1171 1.405 . S
C1172 C1173 1.383 . S
C1173 C1172 1.383 . S
C1173 C1174 1.393 . S
C1174 H1139 0.931 . S
C1174 C1173 1.393 . S
C1174 C1175 1.382 . S
C1175 H1140 0.929 . S
C1175 C1170 1.371 . S
C1175 C1174 1.382 . S
C1176 N1144 1.423 . S
C1176 C1177 1.362 . S
C1176 C1181 1.388 . S
C1177 H1141 0.929 . S
C1177 C1176 1.362 . S
C1177 C1178 1.376 . S
C1178 H1142 0.931 . S
C1178 C1177 1.376 . S
C1178 C1179 1.396 . S
C1179 C1161 1.472 . S
C1179 C1178 1.396 . S
C1179 C1180 1.348 . S
C1180 H1143 0.929 . S
C1180 C1179 1.348 . S
C1180 C1181 1.443 . S
C1181 H1145 0.932 . S
C1181 C1176 1.388 . S
C1181 C1180 1.443 . S
H1182 C1209 0.929 . S
N1183 C1208 1.433 . S
N1183 C1214 1.435 . S
N1183 C1220 1.423 . S
H1184 C1210 0.930 . S
H1185 C1213 0.931 . S
H1186 C1212 0.929 . S
H1187 C1215 0.930 . S
H1188 C1216 0.932 . S
H1189 C1219 0.929 . S
H1190 C1218 0.931 . S
H1191 C1221 0.929 . S
H1192 C1225 0.932 . S
H1193 C1222 0.931 . S
H1194 C1224 0.929 . S
H1195 C1227 0.929 . S
H1196 C1228 0.930 . S
H1197 C1230 0.929 . S
H1198 C1231 0.931 . S
H1199 C1233 0.930 . S
H1200 C1234 0.932 . S
H1201 C1236 0.931 . S
H1202 C1237 0.929 . S
H1203 C1239 0.929 . S
H1204 C1240 0.931 . S
H1205 C1242 0.929 . S
N1206 C1226 1.433 . S
N1206 C1232 1.435 . S
N1206 C1238 1.423 . S
H1207 C1243 0.932 . S
C1208 N1183 1.433 . S
C1208 C1209 1.363 . S
C1208 C1213 1.370 . S
C1209 H1182 0.929 . S
C1209 C1208 1.363 . S
C1209 C1210 1.385 . S
C1210 H1184 0.930 . S
C1210 C1209 1.385 . S
C1210 C1211 1.357 . S
C1211 C1210 1.357 . S
C1211 C1212 1.406 . S
C1212 H1186 0.929 . S
C1212 C1211 1.406 . S
C1212 C1213 1.391 . S
C1213 H1185 0.931 . S
C1213 C1208 1.370 . S
C1213 C1212 1.391 . S
C1214 N1183 1.435 . S
C1214 C1215 1.358 . S
C1214 C1219 1.371 . S
C1215 H1187 0.930 . S
C1215 C1214 1.358 . S
C1215 C1216 1.405 . S
C1216 H1188 0.932 . S
C1216 C1215 1.405 . S
C1216 C1217 1.383 . S
C1217 C1216 1.383 . S
C1217 C1218 1.393 . S
C1218 H1190 0.931 . S
C1218 C1217 1.393 . S
C1218 C1219 1.382 . S
C1219 H1189 0.929 . S
C1219 C1214 1.371 . S
C1219 C1218 1.382 . S
C1220 N1183 1.423 . S
C1220 C1221 1.362 . S
C1220 C1225 1.388 . S
C1221 H1191 0.929 . S
C1221 C1220 1.362 . S
C1221 C1222 1.376 . S
C1222 H1193 0.931 . S
C1222 C1221 1.376 . S
C1222 C1223 1.396 . S
C1223 C1222 1.396 . S
C1223 C1224 1.348 . S
C1223 C1241 1.472 . S
C1224 H1194 0.929 . S
C1224 C1223 1.348 . S
C1224 C1225 1.443 . S
C1225 H1192 0.932 . S
C1225 C1220 1.388 . S
C1225 C1224 1.443 . S
C1226 N1206 1.433 . S
C1226 C1227 1.363 . S
C1226 C1231 1.370 . S
C1227 H1195 0.929 . S
C1227 C1226 1.363 . S
C1227 C1228 1.385 . S
C1228 H1196 0.930 . S
C1228 C1227 1.385 . S
C1228 C1229 1.357 . S
C1229 C1228 1.357 . S
C1229 C1230 1.406 . S
C1230 H1197 0.929 . S
C1230 C1229 1.406 . S
C1230 C1231 1.391 . S
C1231 H1198 0.931 . S
C1231 C1226 1.370 . S
C1231 C1230 1.391 . S
C1232 N1206 1.435 . S
C1232 C1233 1.358 . S
C1232 C1237 1.371 . S
C1233 H1199 0.930 . S
C1233 C1232 1.358 . S
C1233 C1234 1.405 . S
C1234 H1200 0.932 . S
C1234 C1233 1.405 . S
C1234 C1235 1.383 . S
C1235 C1234 1.383 . S
C1235 C1236 1.393 . S
C1236 H1201 0.931 . S
C1236 C1235 1.393 . S
C1236 C1237 1.382 . S
C1237 H1202 0.929 . S
C1237 C1232 1.371 . S
C1237 C1236 1.382 . S
C1238 N1206 1.423 . S
C1238 C1239 1.362 . S
C1238 C1243 1.388 . S
C1239 H1203 0.929 . S
C1239 C1238 1.362 . S
C1239 C1240 1.376 . S
C1240 H1204 0.931 . S
C1240 C1239 1.376 . S
C1240 C1241 1.396 . S
C1241 C1223 1.472 . S
C1241 C1240 1.396 . S
C1241 C1242 1.348 . S
C1242 H1205 0.929 . S
C1242 C1241 1.348 . S
C1242 C1243 1.443 . S
C1243 H1207 0.932 . S
C1243 C1238 1.388 . S
C1243 C1242 1.443 . S
H1244 C1271 0.929 . S
N1245 C1270 1.433 . S
N1245 C1276 1.435 . S
N1245 C1282 1.423 . S
H1246 C1272 0.930 . S
H1247 C1275 0.931 . S
H1248 C1274 0.929 . S
H1249 C1277 0.930 . S
H1250 C1278 0.932 . S
H1251 C1281 0.929 . S
H1252 C1280 0.931 . S
H1253 C1283 0.929 . S
H1254 C1287 0.932 . S
H1255 C1284 0.931 . S
H1256 C1286 0.929 . S
H1257 C1289 0.929 . S
H1258 C1290 0.930 . S
H1259 C1292 0.929 . S
H1260 C1293 0.931 . S
H1261 C1295 0.930 . S
H1262 C1296 0.932 . S
H1263 C1298 0.931 . S
H1264 C1299 0.929 . S
H1265 C1301 0.929 . S
H1266 C1302 0.931 . S
H1267 C1304 0.929 . S
N1268 C1288 1.433 . S
N1268 C1294 1.435 . S
N1268 C1300 1.423 . S
H1269 C1305 0.932 . S
C1270 N1245 1.433 . S
C1270 C1271 1.363 . S
C1270 C1275 1.370 . S
C1271 H1244 0.929 . S
C1271 C1270 1.363 . S
C1271 C1272 1.385 . S
C1272 H1246 0.930 . S
C1272 C1271 1.385 . S
C1272 C1273 1.357 . S
C1273 C1272 1.357 . S
C1273 C1274 1.406 . S
C1274 H1248 0.929 . S
C1274 C1273 1.406 . S
C1274 C1275 1.391 . S
C1275 H1247 0.931 . S
C1275 C1270 1.370 . S
C1275 C1274 1.391 . S
C1276 N1245 1.435 . S
C1276 C1277 1.358 . S
C1276 C1281 1.371 . S
C1277 H1249 0.930 . S
C1277 C1276 1.358 . S
C1277 C1278 1.405 . S
C1278 H1250 0.932 . S
C1278 C1277 1.405 . S
C1278 C1279 1.383 . S
C1279 C1278 1.383 . S
C1279 C1280 1.393 . S
C1280 H1252 0.931 . S
C1280 C1279 1.393 . S
C1280 C1281 1.382 . S
C1281 H1251 0.929 . S
C1281 C1276 1.371 . S
C1281 C1280 1.382 . S
C1282 N1245 1.423 . S
C1282 C1283 1.362 . S
C1282 C1287 1.388 . S
C1283 H1253 0.929 . S
C1283 C1282 1.362 . S
C1283 C1284 1.376 . S
C1284 H1255 0.931 . S
C1284 C1283 1.376 . S
C1284 C1285 1.396 . S
C1285 C1284 1.396 . S
C1285 C1286 1.348 . S
C1285 C1303 1.472 . S
C1286 H1256 0.929 . S
C1286 C1285 1.348 . S
C1286 C1287 1.443 . S
C1287 H1254 0.932 . S
C1287 C1282 1.388 . S
C1287 C1286 1.443 . S
C1288 N1268 1.433 . S
C1288 C1289 1.363 . S
C1288 C1293 1.370 . S
C1289 H1257 0.929 . S
C1289 C1288 1.363 . S
C1289 C1290 1.385 . S
C1290 H1258 0.930 . S
C1290 C1289 1.385 . S
C1290 C1291 1.357 . S
C1291 C1290 1.357 . S
C1291 C1292 1.406 . S
C1292 H1259 0.929 . S
C1292 C1291 1.406 . S
C1292 C1293 1.391 . S
C1293 H1260 0.931 . S
C1293 C1288 1.370 . S
C1293 C1292 1.391 . S
C1294 N1268 1.435 . S
C1294 C1295 1.358 . S
C1294 C1299 1.371 . S
C1295 H1261 0.930 . S
C1295 C1294 1.358 . S
C1295 C1296 1.405 . S
C1296 H1262 0.932 . S
C1296 C1295 1.405 . S
C1296 C1297 1.383 . S
C1297 C1296 1.383 . S
C1297 C1298 1.393 . S
C1298 H1263 0.931 . S
C1298 C1297 1.393 . S
C1298 C1299 1.382 . S
C1299 H1264 0.929 . S
C1299 C1294 1.371 . S
C1299 C1298 1.382 . S
C1300 N1268 1.423 . S
C1300 C1301 1.362 . S
C1300 C1305 1.388 . S
C1301 H1265 0.929 . S
C1301 C1300 1.362 . S
C1301 C1302 1.376 . S
C1302 H1266 0.931 . S
C1302 C1301 1.376 . S
C1302 C1303 1.396 . S
C1303 C1285 1.472 . S
C1303 C1302 1.396 . S
C1303 C1304 1.348 . S
C1304 H1267 0.929 . S
C1304 C1303 1.348 . S
C1304 C1305 1.443 . S
C1305 H1269 0.932 . S
C1305 C1300 1.388 . S
C1305 C1304 1.443 . S
H1306 C1333 0.929 . S
N1307 C1332 1.433 . S
N1307 C1338 1.435 . S
N1307 C1344 1.423 . S
H1308 C1334 0.930 . S
H1309 C1337 0.931 . S
H1310 C1336 0.929 . S
H1311 C1339 0.930 . S
H1312 C1340 0.932 . S
H1313 C1343 0.929 . S
H1314 C1342 0.931 . S
H1315 C1345 0.929 . S
H1316 C1349 0.932 . S
H1317 C1346 0.931 . S
H1318 C1348 0.929 . S
H1319 C1351 0.929 . S
H1320 C1352 0.930 . S
H1321 C1354 0.929 . S
H1322 C1355 0.931 . S
H1323 C1357 0.930 . S
H1324 C1358 0.932 . S
H1325 C1360 0.931 . S
H1326 C1361 0.929 . S
H1327 C1363 0.929 . S
H1328 C1364 0.931 . S
H1329 C1366 0.929 . S
N1330 C1350 1.433 . S
N1330 C1356 1.435 . S
N1330 C1362 1.423 . S
H1331 C1367 0.932 . S
C1332 N1307 1.433 . S
C1332 C1333 1.363 . S
C1332 C1337 1.370 . S
C1333 H1306 0.929 . S
C1333 C1332 1.363 . S
C1333 C1334 1.385 . S
C1334 H1308 0.930 . S
C1334 C1333 1.385 . S
C1334 C1335 1.357 . S
C1335 C1334 1.357 . S
C1335 C1336 1.406 . S
C1336 H1310 0.929 . S
C1336 C1335 1.406 . S
C1336 C1337 1.391 . S
C1337 H1309 0.931 . S
C1337 C1332 1.370 . S
C1337 C1336 1.391 . S
C1338 N1307 1.435 . S
C1338 C1339 1.358 . S
C1338 C1343 1.371 . S
C1339 H1311 0.930 . S
C1339 C1338 1.358 . S
C1339 C1340 1.405 . S
C1340 H1312 0.932 . S
C1340 C1339 1.405 . S
C1340 C1341 1.383 . S
C1341 C1340 1.383 . S
C1341 C1342 1.393 . S
C1342 H1314 0.931 . S
C1342 C1341 1.393 . S
C1342 C1343 1.382 . S
C1343 H1313 0.929 . S
C1343 C1338 1.371 . S
C1343 C1342 1.382 . S
C1344 N1307 1.423 . S
C1344 C1345 1.362 . S
C1344 C1349 1.388 . S
C1345 H1315 0.929 . S
C1345 C1344 1.362 . S
C1345 C1346 1.376 . S
C1346 H1317 0.931 . S
C1346 C1345 1.376 . S
C1346 C1347 1.396 . S
C1347 C1346 1.396 . S
C1347 C1348 1.348 . S
C1347 C1365 1.472 . S
C1348 H1318 0.929 . S
C1348 C1347 1.348 . S
C1348 C1349 1.443 . S
C1349 H1316 0.932 . S
C1349 C1344 1.388 . S
C1349 C1348 1.443 . S
C1350 N1330 1.433 . S
C1350 C1351 1.363 . S
C1350 C1355 1.370 . S
C1351 H1319 0.929 . S
C1351 C1350 1.363 . S
C1351 C1352 1.385 . S
C1352 H1320 0.930 . S
C1352 C1351 1.385 . S
C1352 C1353 1.357 . S
C1353 C1352 1.357 . S
C1353 C1354 1.406 . S
C1354 H1321 0.929 . S
C1354 C1353 1.406 . S
C1354 C1355 1.391 . S
C1355 H1322 0.931 . S
C1355 C1350 1.370 . S
C1355 C1354 1.391 . S
C1356 N1330 1.435 . S
C1356 C1357 1.358 . S
C1356 C1361 1.371 . S
C1357 H1323 0.930 . S
C1357 C1356 1.358 . S
C1357 C1358 1.405 . S
C1358 H1324 0.932 . S
C1358 C1357 1.405 . S
C1358 C1359 1.383 . S
C1359 C1358 1.383 . S
C1359 C1360 1.393 . S
C1360 H1325 0.931 . S
C1360 C1359 1.393 . S
C1360 C1361 1.382 . S
C1361 H1326 0.929 . S
C1361 C1356 1.371 . S
C1361 C1360 1.382 . S
C1362 N1330 1.423 . S
C1362 C1363 1.362 . S
C1362 C1367 1.388 . S
C1363 H1327 0.929 . S
C1363 C1362 1.362 . S
C1363 C1364 1.376 . S
C1364 H1328 0.931 . S
C1364 C1363 1.376 . S
C1364 C1365 1.396 . S
C1365 C1347 1.472 . S
C1365 C1364 1.396 . S
C1365 C1366 1.348 . S
C1366 H1329 0.929 . S
C1366 C1365 1.348 . S
C1366 C1367 1.443 . S
C1367 H1331 0.932 . S
C1367 C1362 1.388 . S
C1367 C1366 1.443 . S
H1368 C1374 0.930 . S
H1369 C1377 0.930 . S
H1370 C1378 0.930 . S
H1371 C1379 0.930 . S
H1372 C1382 0.930 . S
H1373 C1383 0.930 . S
C1374 H1368 0.930 . S
C1374 C1375 1.355 1_455 S
C1374 C1376 1.415 . S
C1375 C1374 1.355 1_655 S
C1375 C1377 1.419 . S
C1376 C1374 1.415 . S
C1376 C1381 1.425 1_455 S
C1376 C1383 1.409 . S
C1377 H1369 0.930 . S
C1377 C1375 1.419 . S
C1377 C1378 1.362 . S
C1378 H1370 0.930 . S
C1378 C1377 1.362 . S
C1378 C1381 1.409 . S
C1379 H1371 0.930 . S
C1379 C1380 1.355 . S
C1379 C1381 1.415 . S
C1380 C1379 1.355 . S
C1380 C1382 1.419 1_655 S
C1381 C1376 1.425 1_655 S
C1381 C1378 1.409 . S
C1381 C1379 1.415 . S
C1382 H1372 0.930 . S
C1382 C1380 1.419 1_455 S
C1382 C1383 1.362 . S
C1383 H1373 0.930 . S
C1383 C1376 1.409 . S
C1383 C1382 1.362 . S
H1384 C1390 0.930 . S
H1385 C1393 0.930 . S
H1386 C1394 0.930 . S
H1387 C1395 0.930 . S
H1388 C1398 0.930 . S
H1389 C1399 0.930 . S
C1390 H1384 0.930 . S
C1390 C1391 1.355 . S
C1390 C1392 1.415 . S
C1391 C1390 1.355 . S
C1391 C1393 1.419 . S
C1392 C1390 1.415 . S
C1392 C1397 1.425 . S
C1392 C1399 1.409 . S
C1393 H1385 0.930 . S
C1393 C1391 1.419 . S
C1393 C1394 1.362 . S
C1394 H1386 0.930 . S
C1394 C1393 1.362 . S
C1394 C1397 1.409 . S
C1395 H1387 0.930 . S
C1395 C1396 1.355 . S
C1395 C1397 1.415 . S
C1396 C1395 1.355 . S
C1396 C1398 1.419 . S
C1397 C1392 1.425 . S
C1397 C1394 1.409 . S
C1397 C1395 1.415 . S
C1398 H1388 0.930 . S
C1398 C1396 1.419 . S
C1398 C1399 1.362 . S
C1399 H1389 0.930 . S
C1399 C1392 1.409 . S
C1399 C1398 1.362 . S
H1400 C1406 0.968 . S
H1401 C1409 0.930 . S
H1402 C1410 0.930 . S
H1403 C1411 0.930 . S
H1404 C1414 0.930 . S
H1405 C1415 0.930 . S
C1406 H1400 0.968 . S
C1406 C1407 1.305 1_565 S
C1406 C1408 1.429 1_565 S
C1407 C1406 1.305 1_545 S
C1407 C1409 1.419 . S
C1408 C1406 1.429 1_545 S
C1408 C1413 1.425 . S
C1408 C1415 1.409 1_545 S
C1409 H1401 0.930 . S
C1409 C1407 1.419 . S
C1409 C1410 1.362 . S
C1410 H1402 0.930 . S
C1410 C1409 1.362 . S
C1410 C1413 1.409 . S
C1411 H1403 0.930 . S
C1411 C1412 1.355 . S
C1411 C1413 1.415 . S
C1412 C1411 1.355 . S
C1412 C1414 1.419 1_545 S
C1413 C1408 1.425 . S
C1413 C1410 1.409 . S
C1413 C1411 1.415 . S
C1414 H1404 0.930 . S
C1414 C1412 1.419 1_565 S
C1414 C1415 1.362 . S
C1415 H1405 0.930 . S
C1415 C1408 1.409 1_565 S
C1415 C1414 1.362 . S
H1416 C1422 0.930 . S
H1417 C1425 0.930 . S
H1418 C1426 0.930 . S
H1419 C1427 0.930 . S
H1420 C1430 0.930 . S
H1421 C1431 0.930 . S
C1422 H1416 0.930 . S
C1422 C1423 1.355 . S
C1422 C1424 1.415 . S
C1423 C1422 1.355 . S
C1423 C1425 1.419 . S
C1424 C1422 1.415 . S
C1424 C1429 1.425 . S
C1424 C1431 1.409 . S
C1425 H1417 0.930 . S
C1425 C1423 1.419 . S
C1425 C1426 1.362 . S
C1426 H1418 0.930 . S
C1426 C1425 1.362 . S
C1426 C1429 1.409 . S
C1427 H1419 0.930 . S
C1427 C1428 1.355 . S
C1427 C1429 1.415 . S
C1428 C1427 1.355 . S
C1428 C1430 1.419 . S
C1429 C1424 1.425 . S
C1429 C1426 1.409 . S
C1429 C1427 1.415 . S
C1430 H1420 0.930 . S
C1430 C1428 1.419 . S
C1430 C1431 1.362 . S
C1431 H1421 0.930 . S
C1431 C1424 1.409 . S
C1431 C1430 1.362 . S
H1432 C1438 0.930 . S
H1433 C1441 0.930 . S
H1434 C1442 0.930 . S
H1435 C1443 0.930 . S
H1436 C1446 0.930 . S
H1437 C1447 0.930 . S
C1438 H1432 0.930 . S
C1438 C1439 1.355 . S
C1438 C1440 1.415 . S
C1439 C1438 1.355 . S
C1439 C1441 1.419 . S
C1440 C1438 1.415 . S
C1440 C1445 1.425 . S
C1440 C1447 1.409 . S
C1441 H1433 0.930 . S
C1441 C1439 1.419 . S
C1441 C1442 1.362 . S
C1442 H1434 0.930 . S
C1442 C1441 1.362 . S
C1442 C1445 1.409 . S
C1443 H1435 0.930 . S
C1443 C1444 1.355 . S
C1443 C1445 1.415 . S
C1444 C1443 1.355 . S
C1444 C1446 1.419 . S
C1445 C1440 1.425 . S
C1445 C1442 1.409 . S
C1445 C1443 1.415 . S
C1446 H1436 0.930 . S
C1446 C1444 1.419 . S
C1446 C1447 1.362 . S
C1447 H1437 0.930 . S
C1447 C1440 1.409 . S
C1447 C1446 1.362 . S
H1448 C1454 0.930 . S
H1449 C1457 0.930 . S
H1450 C1458 0.930 . S
H1451 C1459 0.930 . S
H1452 C1462 0.930 . S
H1453 C1463 0.930 . S
C1454 H1448 0.930 . S
C1454 C1455 1.355 . S
C1454 C1456 1.415 . S
C1455 C1454 1.355 . S
C1455 C1457 1.419 . S
C1456 C1454 1.415 . S
C1456 C1461 1.425 . S
C1456 C1463 1.409 . S
C1457 H1449 0.930 . S
C1457 C1455 1.419 . S
C1457 C1458 1.362 . S
C1458 H1450 0.930 . S
C1458 C1457 1.362 . S
C1458 C1461 1.409 . S
C1459 H1451 0.930 . S
C1459 C1460 1.355 . S
C1459 C1461 1.415 . S
C1460 C1459 1.355 . S
C1460 C1462 1.419 . S
C1461 C1456 1.425 . S
C1461 C1458 1.409 . S
C1461 C1459 1.415 . S
C1462 H1452 0.930 . S
C1462 C1460 1.419 . S
C1462 C1463 1.362 . S
C1463 H1453 0.930 . S
C1463 C1456 1.409 . S
C1463 C1462 1.362 . S
H1464 C1470 0.930 . S
H1465 C1473 0.930 . S
H1466 C1474 0.930 . S
H1467 C1475 0.927 1_655 S
H1468 C1478 0.930 . S
H1469 C1479 0.930 . S
C1470 H1464 0.930 . S
C1470 C1471 1.355 . S
C1470 C1472 1.415 . S
C1471 C1470 1.355 . S
C1471 C1473 1.419 1_455 S
C1472 C1470 1.415 . S
C1472 C1477 1.425 . S
C1472 C1479 1.409 . S
C1473 H1465 0.930 . S
C1473 C1471 1.419 1_655 S
C1473 C1474 1.362 . S
C1474 H1466 0.930 . S
C1474 C1473 1.362 . S
C1474 C1477 1.409 1_655 S
C1475 H1467 0.927 1_455 S
C1475 C1476 1.358 . S
C1475 C1477 1.414 . S
C1476 C1475 1.358 . S
C1476 C1478 1.419 . S
C1477 C1472 1.425 . S
C1477 C1474 1.409 1_455 S
C1477 C1475 1.414 . S
C1478 H1468 0.930 . S
C1478 C1476 1.419 . S
C1478 C1479 1.362 . S
C1479 H1469 0.930 . S
C1479 C1472 1.409 . S
C1479 C1478 1.362 . S
H1480 C1486 0.930 . S
H1481 C1489 0.930 . S
H1482 C1490 0.930 . S
H1483 C1491 0.930 . S
H1484 C1494 0.930 . S
H1485 C1495 0.930 . S
C1486 H1480 0.930 . S
C1486 C1487 1.355 . S
C1486 C1488 1.415 . S
C1487 C1486 1.355 . S
C1487 C1489 1.419 . S
C1488 C1486 1.415 . S
C1488 C1493 1.425 . S
C1488 C1495 1.409 . S
C1489 H1481 0.930 . S
C1489 C1487 1.419 . S
C1489 C1490 1.362 . S
C1490 H1482 0.930 . S
C1490 C1489 1.362 . S
C1490 C1493 1.409 . S
C1491 H1483 0.930 . S
C1491 C1492 1.355 . S
C1491 C1493 1.415 . S
C1492 C1491 1.355 . S
C1492 C1494 1.419 . S
C1493 C1488 1.425 . S
C1493 C1490 1.409 . S
C1493 C1491 1.415 . S
C1494 H1484 0.930 . S
C1494 C1492 1.419 . S
C1494 C1495 1.362 . S
C1495 H1485 0.930 . S
C1495 C1488 1.409 . S
C1495 C1494 1.362 . S
H1496 C1502 0.930 . S
H1497 C1505 0.930 . S
H1498 C1506 0.930 . S
H1499 C1507 0.930 . S
H1500 C1510 0.930 . S
H1501 C1511 0.930 . S
C1502 H1496 0.930 . S
C1502 C1503 1.355 . S
C1502 C1504 1.415 . S
C1503 C1502 1.355 . S
C1503 C1505 1.419 1_565 S
C1504 C1502 1.415 . S
C1504 C1509 1.425 1_565 S
C1504 C1511 1.409 . S
C1505 H1497 0.930 . S
C1505 C1503 1.419 1_545 S
C1505 C1506 1.362 . S
C1506 H1498 0.930 . S
C1506 C1505 1.362 . S
C1506 C1509 1.409 . S
C1507 H1499 0.930 . S
C1507 C1508 1.355 1_545 S
C1507 C1509 1.415 . S
C1508 C1507 1.355 1_565 S
C1508 C1510 1.419 . S
C1509 C1504 1.425 1_545 S
C1509 C1506 1.409 . S
C1509 C1507 1.415 . S
C1510 H1500 0.930 . S
C1510 C1508 1.419 . S
C1510 C1511 1.362 . S
C1511 H1501 0.930 . S
C1511 C1504 1.409 . S
C1511 C1510 1.362 . S
H1512 C1518 0.930 . S
H1513 C1521 0.930 . S
H1514 C1522 0.930 . S
H1515 C1523 0.930 . S
H1516 C1526 0.930 . S
H1517 C1527 0.930 . S
C1518 H1512 0.930 . S
C1518 C1519 1.355 . S
C1518 C1520 1.415 . S
C1519 C1518 1.355 . S
C1519 C1521 1.419 . S
C1520 C1518 1.415 . S
C1520 C1525 1.425 . S
C1520 C1527 1.409 . S
C1521 H1513 0.930 . S
C1521 C1519 1.419 . S
C1521 C1522 1.362 . S
C1522 H1514 0.930 . S
C1522 C1521 1.362 . S
C1522 C1525 1.409 . S
C1523 H1515 0.930 . S
C1523 C1524 1.355 . S
C1523 C1525 1.415 . S
C1524 C1523 1.355 . S
C1524 C1526 1.419 . S
C1525 C1520 1.425 . S
C1525 C1522 1.409 . S
C1525 C1523 1.415 . S
C1526 H1516 0.930 . S
C1526 C1524 1.419 . S
C1526 C1527 1.362 . S
C1527 H1517 0.930 . S
C1527 C1520 1.409 . S
C1527 C1526 1.362 . S
H1528 C1534 0.930 . S
H1529 C1537 0.930 . S
H1530 C1538 0.930 . S
H1531 C1539 0.930 . S
H1532 C1542 0.930 . S
H1533 C1543 0.930 . S
C1534 H1528 0.930 . S
C1534 C1535 1.355 . S
C1534 C1536 1.415 . S
C1535 C1534 1.355 . S
C1535 C1537 1.419 . S
C1536 C1534 1.415 . S
C1536 C1541 1.425 . S
C1536 C1543 1.409 . S
C1537 H1529 0.930 . S
C1537 C1535 1.419 . S
C1537 C1538 1.362 . S
C1538 H1530 0.930 . S
C1538 C1537 1.362 . S
C1538 C1541 1.409 . S
C1539 H1531 0.930 . S
C1539 C1540 1.355 . S
C1539 C1541 1.415 . S
C1540 C1539 1.355 . S
C1540 C1542 1.419 . S
C1541 C1536 1.425 . S
C1541 C1538 1.409 . S
C1541 C1539 1.415 . S
C1542 H1532 0.930 . S
C1542 C1540 1.419 . S
C1542 C1543 1.362 . S
C1543 H1533 0.930 . S
C1543 C1536 1.409 . S
C1543 C1542 1.362 . S
H1544 C1550 0.930 . S
H1545 C1553 0.930 . S
H1546 C1554 0.930 . S
H1547 C1555 0.930 . S
H1548 C1558 0.930 . S
H1549 C1559 0.930 . S
C1550 H1544 0.930 . S
C1550 C1551 1.355 . S
C1550 C1552 1.415 . S
C1551 C1550 1.355 . S
C1551 C1553 1.419 . S
C1552 C1550 1.415 . S
C1552 C1557 1.425 . S
C1552 C1559 1.409 . S
C1553 H1545 0.930 . S
C1553 C1551 1.419 . S
C1553 C1554 1.362 . S
C1554 H1546 0.930 . S
C1554 C1553 1.362 . S
C1554 C1557 1.409 . S
C1555 H1547 0.930 . S
C1555 C1556 1.355 . S
C1555 C1557 1.415 . S
C1556 C1555 1.355 . S
C1556 C1558 1.419 . S
C1557 C1552 1.425 . S
C1557 C1554 1.409 . S
C1557 C1555 1.415 . S
C1558 H1548 0.930 . S
C1558 C1556 1.419 . S
C1558 C1559 1.362 . S
C1559 H1549 0.930 . S
C1559 C1552 1.409 . S
C1559 C1558 1.362 . S
H1560 C1566 0.930 . S
H1561 C1569 0.930 . S
H1562 C1570 0.930 . S
H1563 C1571 0.930 . S
H1564 C1574 0.930 . S
H1565 C1575 0.930 . S
C1566 H1560 0.930 . S
C1566 C1567 1.355 . S
C1566 C1568 1.415 . S
C1567 C1566 1.355 . S
C1567 C1569 1.419 . S
C1568 C1566 1.415 . S
C1568 C1573 1.425 . S
C1568 C1575 1.409 . S
C1569 H1561 0.930 . S
C1569 C1567 1.419 . S
C1569 C1570 1.362 . S
C1570 H1562 0.930 . S
C1570 C1569 1.362 . S
C1570 C1573 1.409 . S
C1571 H1563 0.930 . S
C1571 C1572 1.355 . S
C1571 C1573 1.415 . S
C1572 C1571 1.355 . S
C1572 C1574 1.419 . S
C1573 C1568 1.425 . S
C1573 C1570 1.409 . S
C1573 C1571 1.415 . S
C1574 H1564 0.930 . S
C1574 C1572 1.419 . S
C1574 C1575 1.362 . S
C1575 H1565 0.930 . S
C1575 C1568 1.409 . S
C1575 C1574 1.362 . S
H1576 C1582 0.930 . S
H1577 C1585 0.930 . S
H1578 C1586 0.930 . S
H1579 C1587 0.930 . S
H1580 C1590 0.930 . S
H1581 C1591 0.930 . S
C1582 H1576 0.930 . S
C1582 C1583 1.355 . S
C1582 C1584 1.415 . S
C1583 C1582 1.355 . S
C1583 C1585 1.419 . S
C1584 C1582 1.415 . S
C1584 C1589 1.425 . S
C1584 C1591 1.409 . S
C1585 H1577 0.930 . S
C1585 C1583 1.419 . S
C1585 C1586 1.362 . S
C1586 H1578 0.930 . S
C1586 C1585 1.362 . S
C1586 C1589 1.409 . S
C1587 H1579 0.930 . S
C1587 C1588 1.355 . S
C1587 C1589 1.415 . S
C1588 C1587 1.355 . S
C1588 C1590 1.419 . S
C1589 C1584 1.425 . S
C1589 C1586 1.409 . S
C1589 C1587 1.415 . S
C1590 H1580 0.930 . S
C1590 C1588 1.419 . S
C1590 C1591 1.362 . S
C1591 H1581 0.930 . S
C1591 C1584 1.409 . S
C1591 C1590 1.362 . S
H1592 C1598 0.930 . S
H1593 C1601 0.930 . S
H1594 C1602 0.930 . S
H1595 C1603 0.930 . S
H1596 C1606 0.930 . S
H1597 C1607 0.930 . S
C1598 H1592 0.930 . S
C1598 C1599 1.355 . S
C1598 C1600 1.415 . S
C1599 C1598 1.355 . S
C1599 C1601 1.419 . S
C1600 C1598 1.415 . S
C1600 C1605 1.425 . S
C1600 C1607 1.409 . S
C1601 H1593 0.930 . S
C1601 C1599 1.419 . S
C1601 C1602 1.362 . S
C1602 H1594 0.930 . S
C1602 C1601 1.362 . S
C1602 C1605 1.409 . S
C1603 H1595 0.930 . S
C1603 C1604 1.355 . S
C1603 C1605 1.415 . S
C1604 C1603 1.355 . S
C1604 C1606 1.419 . S
C1605 C1600 1.425 . S
C1605 C1602 1.409 . S
C1605 C1603 1.415 . S
C1606 H1596 0.930 . S
C1606 C1604 1.419 . S
C1606 C1607 1.362 . S
C1607 H1597 0.930 . S
C1607 C1600 1.409 . S
C1607 C1606 1.362 . S
H1608 C1614 0.930 . S
H1609 C1617 0.930 . S
H1610 C1618 0.930 . S
H1611 C1619 0.930 . S
H1612 C1622 0.930 . S
H1613 C1623 0.930 . S
C1614 H1608 0.930 . S
C1614 C1615 1.355 . S
C1614 C1616 1.415 . S
C1615 C1614 1.355 . S
C1615 C1617 1.419 . S
C1616 C1614 1.415 . S
C1616 C1621 1.425 . S
C1616 C1623 1.409 . S
C1617 H1609 0.930 . S
C1617 C1615 1.419 . S
C1617 C1618 1.362 . S
C1618 H1610 0.930 . S
C1618 C1617 1.362 . S
C1618 C1621 1.409 . S
C1619 H1611 0.930 . S
C1619 C1620 1.355 . S
C1619 C1621 1.415 . S
C1620 C1619 1.355 . S
C1620 C1622 1.419 . S
C1621 C1616 1.425 . S
C1621 C1618 1.409 . S
C1621 C1619 1.415 . S
C1622 H1612 0.930 . S
C1622 C1620 1.419 . S
C1622 C1623 1.362 . S
C1623 H1613 0.930 . S
C1623 C1616 1.409 . S
C1623 C1622 1.362 . S
H1624 C1630 0.930 . S
H1625 C1633 0.930 . S
H1626 C1634 0.930 . S
H1627 C1635 0.930 . S
H1628 C1638 0.930 . S
H1629 C1639 0.930 . S
C1630 H1624 0.930 . S
C1630 C1631 1.355 . S
C1630 C1632 1.415 . S
C1631 C1630 1.355 . S
C1631 C1633 1.419 . S
C1632 C1630 1.415 . S
C1632 C1637 1.425 . S
C1632 C1639 1.409 . S
C1633 H1625 0.930 . S
C1633 C1631 1.419 . S
C1633 C1634 1.362 . S
C1634 H1626 0.930 . S
C1634 C1633 1.362 . S
C1634 C1637 1.409 . S
C1635 H1627 0.930 . S
C1635 C1636 1.355 . S
C1635 C1637 1.415 . S
C1636 C1635 1.355 . S
C1636 C1638 1.419 . S
C1637 C1632 1.425 . S
C1637 C1634 1.409 . S
C1637 C1635 1.415 . S
C1638 H1628 0.930 . S
C1638 C1636 1.419 . S
C1638 C1639 1.362 . S
C1639 H1629 0.930 . S
C1639 C1632 1.409 . S
C1639 C1638 1.362 . S
H1640 C1646 0.930 . S
H1641 C1649 0.930 . S
H1642 C1650 0.930 . S
H1643 C1651 0.930 . S
H1644 C1654 0.930 . S
H1645 C1655 0.930 . S
C1646 H1640 0.930 . S
C1646 C1647 1.355 . S
C1646 C1648 1.415 . S
C1647 C1646 1.355 . S
C1647 C1649 1.419 . S
C1648 C1646 1.415 . S
C1648 C1653 1.425 . S
C1648 C1655 1.409 . S
C1649 H1641 0.930 . S
C1649 C1647 1.419 . S
C1649 C1650 1.362 . S
C1650 H1642 0.930 . S
C1650 C1649 1.362 . S
C1650 C1653 1.409 . S
C1651 H1643 0.930 . S
C1651 C1652 1.355 . S
C1651 C1653 1.415 . S
C1652 C1651 1.355 . S
C1652 C1654 1.419 . S
C1653 C1648 1.425 . S
C1653 C1650 1.409 . S
C1653 C1651 1.415 . S
C1654 H1644 0.930 . S
C1654 C1652 1.419 . S
C1654 C1655 1.362 . S
C1655 H1645 0.930 . S
C1655 C1648 1.409 . S
C1655 C1654 1.362 . S
H1656 C1662 0.930 . S
H1657 C1665 0.930 . S
H1658 C1666 0.930 . S
H1659 C1667 0.930 . S
H1660 C1670 0.930 . S
H1661 C1671 0.930 . S
C1662 H1656 0.930 . S
C1662 C1663 1.355 . S
C1662 C1664 1.415 . S
C1663 C1662 1.355 . S
C1663 C1665 1.419 . S
C1664 C1662 1.415 . S
C1664 C1669 1.425 . S
C1664 C1671 1.409 . S
C1665 H1657 0.930 . S
C1665 C1663 1.419 . S
C1665 C1666 1.362 . S
C1666 H1658 0.930 . S
C1666 C1665 1.362 . S
C1666 C1669 1.409 . S
C1667 H1659 0.930 . S
C1667 C1668 1.355 . S
C1667 C1669 1.415 . S
C1668 C1667 1.355 . S
C1668 C1670 1.419 . S
C1669 C1664 1.425 . S
C1669 C1666 1.409 . S
C1669 C1667 1.415 . S
C1670 H1660 0.930 . S
C1670 C1668 1.419 . S
C1670 C1671 1.362 . S
C1671 H1661 0.930 . S
C1671 C1664 1.409 . S
C1671 C1670 1.362 . S
H1672 C1678 0.930 . S
H1673 C1681 0.930 . S
H1674 C1682 0.930 . S
H1675 C1683 0.930 . S
H1676 C1686 0.930 . S
H1677 C1687 0.930 . S
C1678 H1672 0.930 . S
C1678 C1679 1.355 . S
C1678 C1680 1.415 . S
C1679 C1678 1.355 . S
C1679 C1681 1.419 . S
C1680 C1678 1.415 . S
C1680 C1685 1.425 . S
C1680 C1687 1.409 . S
C1681 H1673 0.930 . S
C1681 C1679 1.419 . S
C1681 C1682 1.362 . S
C1682 H1674 0.930 . S
C1682 C1681 1.362 . S
C1682 C1685 1.409 . S
C1683 H1675 0.930 . S
C1683 C1684 1.355 . S
C1683 C1685 1.415 . S
C1684 C1683 1.355 . S
C1684 C1686 1.419 . S
C1685 C1680 1.425 . S
C1685 C1682 1.409 . S
C1685 C1683 1.415 . S
C1686 H1676 0.930 . S
C1686 C1684 1.419 . S
C1686 C1687 1.362 . S
C1687 H1677 0.930 . S
C1687 C1680 1.409 . S
C1687 C1686 1.362 . S
H1688 C1694 0.930 . S
H1689 C1697 0.930 . S
H1690 C1698 0.930 . S
H1691 C1699 0.930 . S
H1692 C1702 0.930 . S
H1693 C1703 0.930 . S
C1694 H1688 0.930 . S
C1694 C1695 1.355 . S
C1694 C1696 1.415 . S
C1695 C1694 1.355 . S
C1695 C1697 1.419 . S
C1696 C1694 1.415 . S
C1696 C1701 1.425 . S
C1696 C1703 1.409 . S
C1697 H1689 0.930 . S
C1697 C1695 1.419 . S
C1697 C1698 1.362 . S
C1698 H1690 0.930 . S
C1698 C1697 1.362 . S
C1698 C1701 1.409 . S
C1699 H1691 0.930 . S
C1699 C1700 1.355 . S
C1699 C1701 1.415 . S
C1700 C1699 1.355 . S
C1700 C1702 1.419 . S
C1701 C1696 1.425 . S
C1701 C1698 1.409 . S
C1701 C1699 1.415 . S
C1702 H1692 0.930 . S
C1702 C1700 1.419 . S
C1702 C1703 1.362 . S
C1703 H1693 0.930 . S
C1703 C1696 1.409 . S
C1703 C1702 1.362 . S
H1704 C1710 0.930 . S
H1705 C1713 0.930 . S
H1706 C1714 0.930 . S
H1707 C1715 0.930 . S
H1708 C1718 0.930 . S
H1709 C1719 0.930 . S
C1710 H1704 0.930 . S
C1710 C1711 1.355 . S
C1710 C1712 1.415 . S
C1711 C1710 1.355 . S
C1711 C1713 1.419 . S
C1712 C1710 1.415 . S
C1712 C1717 1.425 . S
C1712 C1719 1.409 . S
C1713 H1705 0.930 . S
C1713 C1711 1.419 . S
C1713 C1714 1.362 . S
C1714 H1706 0.930 . S
C1714 C1713 1.362 . S
C1714 C1717 1.409 . S
C1715 H1707 0.930 . S
C1715 C1716 1.355 . S
C1715 C1717 1.415 . S
C1716 C1715 1.355 . S
C1716 C1718 1.419 . S
C1717 C1712 1.425 . S
C1717 C1714 1.409 . S
C1717 C1715 1.415 . S
C1718 H1708 0.930 . S
C1718 C1716 1.419 . S
C1718 C1719 1.362 . S
C1719 H1709 0.930 . S
C1719 C1712 1.409 . S
C1719 C1718 1.362 . S
H1720 C1726 0.930 . S
H1721 C1729 0.930 . S
H1722 C1730 0.930 . S
H1723 C1731 0.930 . S
H1724 C1734 0.930 . S
H1725 C1735 0.930 . S
C1726 H1720 0.930 . S
C1726 C1727 1.355 . S
C1726 C1728 1.415 . S
C1727 C1726 1.355 . S
C1727 C1729 1.419 . S
C1728 C1726 1.415 . S
C1728 C1733 1.425 . S
C1728 C1735 1.409 . S
C1729 H1721 0.930 . S
C1729 C1727 1.419 . S
C1729 C1730 1.362 . S
C1730 H1722 0.930 . S
C1730 C1729 1.362 . S
C1730 C1733 1.409 . S
C1731 H1723 0.930 . S
C1731 C1732 1.355 . S
C1731 C1733 1.415 . S
C1732 C1731 1.355 . S
C1732 C1734 1.419 . S
C1733 C1728 1.425 . S
C1733 C1730 1.409 . S
C1733 C1731 1.415 . S
C1734 H1724 0.930 . S
C1734 C1732 1.419 . S
C1734 C1735 1.362 . S
C1735 H1725 0.930 . S
C1735 C1728 1.409 . S
C1735 C1734 1.362 . S
H1736 C1742 0.930 . S
H1737 C1745 0.930 . S
H1738 C1746 0.930 . S
H1739 C1747 0.930 . S
H1740 C1750 0.930 . S
H1741 C1751 0.930 . S
C1742 H1736 0.930 . S
C1742 C1743 1.355 . S
C1742 C1744 1.415 . S
C1743 C1742 1.355 . S
C1743 C1745 1.419 . S
C1744 C1742 1.415 . S
C1744 C1749 1.425 . S
C1744 C1751 1.409 . S
C1745 H1737 0.930 . S
C1745 C1743 1.419 . S
C1745 C1746 1.362 . S
C1746 H1738 0.930 . S
C1746 C1745 1.362 . S
C1746 C1749 1.409 . S
C1747 H1739 0.930 . S
C1747 C1748 1.355 . S
C1747 C1749 1.415 . S
C1748 C1747 1.355 . S
C1748 C1750 1.419 . S
C1749 C1744 1.425 . S
C1749 C1746 1.409 . S
C1749 C1747 1.415 . S
C1750 H1740 0.930 . S
C1750 C1748 1.419 . S
C1750 C1751 1.362 . S
C1751 H1741 0.930 . S
C1751 C1744 1.409 . S
C1751 C1750 1.362 . S
H1752 C1758 0.930 . S
H1753 C1761 0.930 . S
H1754 C1762 0.930 . S
H1755 C1763 0.930 . S
H1756 C1766 0.930 . S
H1757 C1767 0.930 . S
C1758 H1752 0.930 . S
C1758 C1759 1.355 . S
C1758 C1760 1.415 . S
C1759 C1758 1.355 . S
C1759 C1761 1.419 . S
C1760 C1758 1.415 . S
C1760 C1765 1.425 . S
C1760 C1767 1.409 . S
C1761 H1753 0.930 . S
C1761 C1759 1.419 . S
C1761 C1762 1.362 . S
C1762 H1754 0.930 . S
C1762 C1761 1.362 . S
C1762 C1765 1.409 . S
C1763 H1755 0.930 . S
C1763 C1764 1.355 . S
C1763 C1765 1.415 . S
C1764 C1763 1.355 . S
C1764 C1766 1.419 . S
C1765 C1760 1.425 . S
C1765 C1762 1.409 . S
C1765 C1763 1.415 . S
C1766 H1756 0.930 . S
C1766 C1764 1.419 . S
C1766 C1767 1.362 . S
C1767 H1757 0.930 . S
C1767 C1760 1.409 . S
C1767 C1766 1.362 . S
H1768 C1774 0.930 . S
H1769 C1777 0.930 . S
H1770 C1778 0.930 . S
H1771 C1779 0.930 . S
H1772 C1782 0.930 . S
H1773 C1783 0.930 . S
C1774 H1768 0.930 . S
C1774 C1775 1.355 . S
C1774 C1776 1.415 . S
C1775 C1774 1.355 . S
C1775 C1777 1.419 . S
C1776 C1774 1.415 . S
C1776 C1781 1.425 . S
C1776 C1783 1.409 . S
C1777 H1769 0.930 . S
C1777 C1775 1.419 . S
C1777 C1778 1.362 . S
C1778 H1770 0.930 . S
C1778 C1777 1.362 . S
C1778 C1781 1.409 . S
C1779 H1771 0.930 . S
C1779 C1780 1.355 . S
C1779 C1781 1.415 . S
C1780 C1779 1.355 . S
C1780 C1782 1.419 . S
C1781 C1776 1.425 . S
C1781 C1778 1.409 . S
C1781 C1779 1.415 . S
C1782 H1772 0.930 . S
C1782 C1780 1.419 . S
C1782 C1783 1.362 . S
C1783 H1773 0.930 . S
C1783 C1776 1.409 . S
C1783 C1782 1.362 . S
H1784 C1790 0.930 . S
H1785 C1793 0.930 . S
H1786 C1794 0.930 . S
H1787 C1795 0.930 . S
H1788 C1798 0.930 . S
H1789 C1799 0.930 . S
C1790 H1784 0.930 . S
C1790 C1791 1.355 . S
C1790 C1792 1.415 . S
C1791 C1790 1.355 . S
C1791 C1793 1.419 . S
C1792 C1790 1.415 . S
C1792 C1797 1.425 . S
C1792 C1799 1.409 . S
C1793 H1785 0.930 . S
C1793 C1791 1.419 . S
C1793 C1794 1.362 . S
C1794 H1786 0.930 . S
C1794 C1793 1.362 . S
C1794 C1797 1.409 . S
C1795 H1787 0.930 . S
C1795 C1796 1.355 . S
C1795 C1797 1.415 . S
C1796 C1795 1.355 . S
C1796 C1798 1.419 . S
C1797 C1792 1.425 . S
C1797 C1794 1.409 . S
C1797 C1795 1.415 . S
C1798 H1788 0.930 . S
C1798 C1796 1.419 . S
C1798 C1799 1.362 . S
C1799 H1789 0.930 . S
C1799 C1792 1.409 . S
C1799 C1798 1.362 . S
H1800 C1806 0.930 . S
H1801 C1809 0.930 . S
H1802 C1810 0.930 . S
H1803 C1811 0.930 . S
H1804 C1814 0.930 . S
H1805 C1815 0.930 . S
C1806 H1800 0.930 . S
C1806 C1807 1.355 . S
C1806 C1808 1.415 . S
C1807 C1806 1.355 . S
C1807 C1809 1.419 . S
C1808 C1806 1.415 . S
C1808 C1813 1.425 . S
C1808 C1815 1.409 . S
C1809 H1801 0.930 . S
C1809 C1807 1.419 . S
C1809 C1810 1.362 . S
C1810 H1802 0.930 . S
C1810 C1809 1.362 . S
C1810 C1813 1.409 . S
C1811 H1803 0.930 . S
C1811 C1812 1.355 . S
C1811 C1813 1.415 . S
C1812 C1811 1.355 . S
C1812 C1814 1.419 . S
C1813 C1808 1.425 . S
C1813 C1810 1.409 . S
C1813 C1811 1.415 . S
C1814 H1804 0.930 . S
C1814 C1812 1.419 . S
C1814 C1815 1.362 . S
C1815 H1805 0.930 . S
C1815 C1808 1.409 . S
C1815 C1814 1.362 . S
H1816 C1822 0.930 . S
H1817 C1825 0.930 . S
H1818 C1826 0.930 . S
H1819 C1827 0.930 . S
H1820 C1830 0.930 . S
H1821 C1831 0.930 . S
C1822 H1816 0.930 . S
C1822 C1823 1.355 . S
C1822 C1824 1.415 . S
C1823 C1822 1.355 . S
C1823 C1825 1.419 . S
C1824 C1822 1.415 . S
C1824 C1829 1.425 . S
C1824 C1831 1.409 . S
C1825 H1817 0.930 . S
C1825 C1823 1.419 . S
C1825 C1826 1.362 . S
C1826 H1818 0.930 . S
C1826 C1825 1.362 . S
C1826 C1829 1.409 . S
C1827 H1819 0.930 . S
C1827 C1828 1.355 . S
C1827 C1829 1.415 . S
C1828 C1827 1.355 . S
C1828 C1830 1.419 . S
C1829 C1824 1.425 . S
C1829 C1826 1.409 . S
C1829 C1827 1.415 . S
C1830 H1820 0.930 . S
C1830 C1828 1.419 . S
C1830 C1831 1.362 . S
C1831 H1821 0.930 . S
C1831 C1824 1.409 . S
C1831 C1830 1.362 . S
H1832 C1838 0.930 . S
H1833 C1841 0.930 . S
H1834 C1842 0.930 . S
H1835 C1843 0.930 . S
H1836 C1846 0.930 . S
H1837 C1847 0.930 . S
C1838 H1832 0.930 . S
C1838 C1839 1.355 . S
C1838 C1840 1.415 . S
C1839 C1838 1.355 . S
C1839 C1841 1.419 . S
C1840 C1838 1.415 . S
C1840 C1845 1.425 . S
C1840 C1847 1.409 . S
C1841 H1833 0.930 . S
C1841 C1839 1.419 . S
C1841 C1842 1.362 . S
C1842 H1834 0.930 . S
C1842 C1841 1.362 . S
C1842 C1845 1.409 . S
C1843 H1835 0.930 . S
C1843 C1844 1.355 . S
C1843 C1845 1.415 . S
C1844 C1843 1.355 . S
C1844 C1846 1.419 . S
C1845 C1840 1.425 . S
C1845 C1842 1.409 . S
C1845 C1843 1.415 . S
C1846 H1836 0.930 . S
C1846 C1844 1.419 . S
C1846 C1847 1.362 . S
C1847 H1837 0.930 . S
C1847 C1840 1.409 . S
C1847 C1846 1.362 . S
H1848 C1854 0.930 . S
H1849 C1857 0.930 . S
H1850 C1858 0.930 . S
H1851 C1859 0.930 . S
H1852 C1862 0.930 . S
H1853 C1863 0.930 . S
C1854 H1848 0.930 . S
C1854 C1855 1.355 . S
C1854 C1856 1.415 . S
C1855 C1854 1.355 . S
C1855 C1857 1.419 . S
C1856 C1854 1.415 . S
C1856 C1861 1.425 . S
C1856 C1863 1.409 . S
C1857 H1849 0.930 . S
C1857 C1855 1.419 . S
C1857 C1858 1.362 . S
C1858 H1850 0.930 . S
C1858 C1857 1.362 . S
C1858 C1861 1.409 . S
C1859 H1851 0.930 . S
C1859 C1860 1.355 . S
C1859 C1861 1.415 . S
C1860 C1859 1.355 . S
C1860 C1862 1.419 . S
C1861 C1856 1.425 . S
C1861 C1858 1.409 . S
C1861 C1859 1.415 . S
C1862 H1852 0.930 . S
C1862 C1860 1.419 . S
C1862 C1863 1.362 . S
C1863 H1853 0.930 . S
C1863 C1856 1.409 . S
C1863 C1862 1.362 . S
H1864 C1870 0.930 . S
H1865 C1873 0.930 . S
H1866 C1874 0.930 . S
H1867 C1875 0.930 . S
H1868 C1878 0.930 . S
H1869 C1879 0.930 . S
C1870 H1864 0.930 . S
C1870 C1871 1.355 . S
C1870 C1872 1.415 . S
C1871 C1870 1.355 . S
C1871 C1873 1.419 . S
C1872 C1870 1.415 . S
C1872 C1877 1.425 . S
C1872 C1879 1.409 . S
C1873 H1865 0.930 . S
C1873 C1871 1.419 . S
C1873 C1874 1.362 . S
C1874 H1866 0.930 . S
C1874 C1873 1.362 . S
C1874 C1877 1.409 . S
C1875 H1867 0.930 . S
C1875 C1876 1.355 . S
C1875 C1877 1.415 . S
C1876 C1875 1.355 . S
C1876 C1878 1.419 . S
C1877 C1872 1.425 . S
C1877 C1874 1.409 . S
C1877 C1875 1.415 . S
C1878 H1868 0.930 . S
C1878 C1876 1.419 . S
C1878 C1879 1.362 . S
C1879 H1869 0.930 . S
C1879 C1872 1.409 . S
C1879 C1878 1.362 . S
H1880 C1886 0.930 . S
H1881 C1889 0.930 . S
H1882 C1890 0.930 . S
H1883 C1891 0.930 . S
H1884 C1894 0.930 . S
H1885 C1895 0.930 . S
C1886 H1880 0.930 . S
C1886 C1887 1.355 . S
C1886 C1888 1.415 . S
C1887 C1886 1.355 . S
C1887 C1889 1.419 . S
C1888 C1886 1.415 . S
C1888 C1893 1.425 . S
C1888 C1895 1.409 . S
C1889 H1881 0.930 . S
C1889 C1887 1.419 . S
C1889 C1890 1.362 . S
C1890 H1882 0.930 . S
C1890 C1889 1.362 . S
C1890 C1893 1.409 . S
C1891 H1883 0.930 . S
C1891 C1892 1.355 . S
C1891 C1893 1.415 . S
C1892 C1891 1.355 . S
C1892 C1894 1.419 . S
C1893 C1888 1.425 . S
C1893 C1890 1.409 . S
C1893 C1891 1.415 . S
C1894 H1884 0.930 . S
C1894 C1892 1.419 . S
C1894 C1895 1.362 . S
C1895 H1885 0.930 . S
C1895 C1888 1.409 . S
C1895 C1894 1.362 . S
H1896 C1902 0.930 . S
H1897 C1905 0.930 . S
H1898 C1906 0.930 . S
H1899 C1907 0.930 . S
H1900 C1910 0.930 . S
H1901 C1911 0.930 . S
C1902 H1896 0.930 . S
C1902 C1903 1.355 . S
C1902 C1904 1.415 . S
C1903 C1902 1.355 . S
C1903 C1905 1.419 . S
C1904 C1902 1.415 . S
C1904 C1909 1.425 . S
C1904 C1911 1.409 . S
C1905 H1897 0.930 . S
C1905 C1903 1.419 . S
C1905 C1906 1.362 . S
C1906 H1898 0.930 . S
C1906 C1905 1.362 . S
C1906 C1909 1.409 . S
C1907 H1899 0.930 . S
C1907 C1908 1.355 . S
C1907 C1909 1.415 . S
C1908 C1907 1.355 . S
C1908 C1910 1.419 . S
C1909 C1904 1.425 . S
C1909 C1906 1.409 . S
C1909 C1907 1.415 . S
C1910 H1900 0.930 . S
C1910 C1908 1.419 . S
C1910 C1911 1.362 . S
C1911 H1901 0.930 . S
C1911 C1904 1.409 . S
C1911 C1910 1.362 . S
H1912 C1918 0.930 . S
H1913 C1921 0.930 . S
H1914 C1922 0.930 . S
H1915 C1923 0.930 . S
H1916 C1926 0.930 . S
H1917 C1927 0.930 . S
C1918 H1912 0.930 . S
C1918 C1919 1.355 . S
C1918 C1920 1.415 . S
C1919 C1918 1.355 . S
C1919 C1921 1.419 . S
C1920 C1918 1.415 . S
C1920 C1925 1.425 . S
C1920 C1927 1.409 . S
C1921 H1913 0.930 . S
C1921 C1919 1.419 . S
C1921 C1922 1.362 . S
C1922 H1914 0.930 . S
C1922 C1921 1.362 . S
C1922 C1925 1.409 . S
C1923 H1915 0.930 . S
C1923 C1924 1.355 . S
C1923 C1925 1.415 . S
C1924 C1923 1.355 . S
C1924 C1926 1.419 . S
C1925 C1920 1.425 . S
C1925 C1922 1.409 . S
C1925 C1923 1.415 . S
C1926 H1916 0.930 . S
C1926 C1924 1.419 . S
C1926 C1927 1.362 . S
C1927 H1917 0.930 . S
C1927 C1920 1.409 . S
C1927 C1926 1.362 . S
H1928 C1934 0.930 . S
H1929 C1937 0.930 . S
H1930 C1938 0.930 . S
H1931 C1939 0.930 . S
H1932 C1942 0.930 . S
H1933 C1943 0.930 . S
C1934 H1928 0.930 . S
C1934 C1935 1.355 . S
C1934 C1936 1.415 . S
C1935 C1934 1.355 . S
C1935 C1937 1.419 . S
C1936 C1934 1.415 . S
C1936 C1941 1.425 . S
C1936 C1943 1.409 . S
C1937 H1929 0.930 . S
C1937 C1935 1.419 . S
C1937 C1938 1.362 . S
C1938 H1930 0.930 . S
C1938 C1937 1.362 . S
C1938 C1941 1.409 . S
C1939 H1931 0.930 . S
C1939 C1940 1.355 . S
C1939 C1941 1.415 . S
C1940 C1939 1.355 . S
C1940 C1942 1.419 . S
C1941 C1936 1.425 . S
C1941 C1938 1.409 . S
C1941 C1939 1.415 . S
C1942 H1932 0.930 . S
C1942 C1940 1.419 . S
C1942 C1943 1.362 . S
C1943 H1933 0.930 . S
C1943 C1936 1.409 . S
C1943 C1942 1.362 . S
H1944 C1950 0.930 . S
H1945 C1953 0.930 1_556 S
H1946 C1954 0.930 1_556 S
H1947 C1955 0.930 . S
H1948 C1958 0.930 . S
H1949 C1959 0.930 . S
C1950 H1944 0.930 . S
C1950 C1951 1.355 . S
C1950 C1952 1.415 . S
C1951 C1950 1.355 . S
C1951 C1953 1.419 . S
C1952 C1950 1.415 . S
C1952 C1957 1.425 . S
C1952 C1959 1.409 . S
C1953 H1945 0.930 1_554 S
C1953 C1951 1.419 . S
C1953 C1954 1.362 . S
C1954 H1946 0.930 1_554 S
C1954 C1953 1.362 . S
C1954 C1957 1.409 . S
C1955 H1947 0.930 . S
C1955 C1956 1.355 . S
C1955 C1957 1.415 . S
C1956 C1955 1.355 . S
C1956 C1958 1.419 . S
C1957 C1952 1.425 . S
C1957 C1954 1.409 . S
C1957 C1955 1.415 . S
C1958 H1948 0.930 . S
C1958 C1956 1.419 . S
C1958 C1959 1.362 . S
C1959 H1949 0.930 . S
C1959 C1952 1.409 . S
C1959 C1958 1.362 . S
H1960 C1966 0.930 . S
H1961 C1969 0.930 1_556 S
H1962 C1970 0.930 1_556 S
H1963 C1971 0.930 . S
H1964 C1974 0.930 . S
H1965 C1975 0.930 . S
C1966 H1960 0.930 . S
C1966 C1967 1.355 . S
C1966 C1968 1.415 . S
C1967 C1966 1.355 . S
C1967 C1969 1.419 . S
C1968 C1966 1.415 . S
C1968 C1973 1.425 . S
C1968 C1975 1.409 . S
C1969 H1961 0.930 1_554 S
C1969 C1967 1.419 . S
C1969 C1970 1.362 . S
C1970 H1962 0.930 1_554 S
C1970 C1969 1.362 . S
C1970 C1973 1.409 . S
C1971 H1963 0.930 . S
C1971 C1972 1.355 . S
C1971 C1973 1.415 . S
C1972 C1971 1.355 . S
C1972 C1974 1.419 . S
C1973 C1968 1.425 . S
C1973 C1970 1.409 . S
C1973 C1971 1.415 . S
C1974 H1964 0.930 . S
C1974 C1972 1.419 . S
C1974 C1975 1.362 . S
C1975 H1965 0.930 . S
C1975 C1968 1.409 . S
C1975 C1974 1.362 . S
H1976 C1982 0.930 . S
H1977 C1985 0.930 . S
H1978 C1986 0.930 . S
H1979 C1987 0.930 . S
H1980 C1990 0.930 . S
H1981 C1991 0.930 . S
C1982 H1976 0.930 . S
C1982 C1983 1.355 . S
C1982 C1984 1.415 . S
C1983 C1982 1.355 . S
C1983 C1985 1.419 . S
C1984 C1982 1.415 . S
C1984 C1989 1.425 . S
C1984 C1991 1.409 . S
C1985 H1977 0.930 . S
C1985 C1983 1.419 . S
C1985 C1986 1.362 . S
C1986 H1978 0.930 . S
C1986 C1985 1.362 . S
C1986 C1989 1.409 . S
C1987 H1979 0.930 . S
C1987 C1988 1.355 . S
C1987 C1989 1.415 . S
C1988 C1987 1.355 . S
C1988 C1990 1.419 . S
C1989 C1984 1.425 . S
C1989 C1986 1.409 . S
C1989 C1987 1.415 . S
C1990 H1980 0.930 . S
C1990 C1988 1.419 . S
C1990 C1991 1.362 . S
C1991 H1981 0.930 . S
C1991 C1984 1.409 . S
C1991 C1990 1.362 . S
H1992 C1998 0.930 . S
H1993 C2001 0.930 . S
H1994 C2002 0.930 . S
H1995 C2003 0.930 . S
H1996 C2006 0.930 . S
H1997 C2007 0.930 . S
C1998 H1992 0.930 . S
C1998 C1999 1.355 . S
C1998 C2000 1.415 . S
C1999 C1998 1.355 . S
C1999 C2001 1.419 . S
C2000 C1998 1.415 . S
C2000 C2005 1.425 . S
C2000 C2007 1.409 . S
C2001 H1993 0.930 . S
C2001 C1999 1.419 . S
C2001 C2002 1.362 . S
C2002 H1994 0.930 . S
C2002 C2001 1.362 . S
C2002 C2005 1.409 . S
C2003 H1995 0.930 . S
C2003 C2004 1.355 . S
C2003 C2005 1.415 . S
C2004 C2003 1.355 . S
C2004 C2006 1.419 . S
C2005 C2000 1.425 . S
C2005 C2002 1.409 . S
C2005 C2003 1.415 . S
C2006 H1996 0.930 . S
C2006 C2004 1.419 . S
C2006 C2007 1.362 . S
C2007 H1997 0.930 . S
C2007 C2000 1.409 . S
C2007 C2006 1.362 . S
H2008 C2014 0.930 . S
H2009 C2017 0.930 . S
H2010 C2018 0.930 . S
H2011 C2019 0.930 . S
H2012 C2022 0.930 1_554 S
H2013 C2023 0.930 . S
C2014 H2008 0.930 . S
C2014 C2015 1.355 1_554 S
C2014 C2016 1.415 1_554 S
C2015 C2014 1.355 1_556 S
C2015 C2017 1.419 . S
C2016 C2014 1.415 1_556 S
C2016 C2021 1.425 . S
C2016 C2023 1.409 1_556 S
C2017 H2009 0.930 . S
C2017 C2015 1.419 . S
C2017 C2018 1.362 . S
C2018 H2010 0.930 . S
C2018 C2017 1.362 . S
C2018 C2021 1.409 . S
C2019 H2011 0.930 . S
C2019 C2020 1.355 . S
C2019 C2021 1.415 . S
C2020 C2019 1.355 . S
C2020 C2022 1.419 . S
C2021 C2016 1.425 . S
C2021 C2018 1.409 . S
C2021 C2019 1.415 . S
C2022 H2012 0.930 1_556 S
C2022 C2020 1.419 . S
C2022 C2023 1.362 1_556 S
C2023 H2013 0.930 . S
C2023 C2016 1.409 1_554 S
C2023 C2022 1.362 1_554 S
H2024 C2030 0.930 . S
H2025 C2033 0.943 . S
H2026 C2034 0.930 1_554 S
H2027 C2035 0.930 . S
H2028 C2038 0.930 . S
H2029 C2039 0.930 . S
C2030 H2024 0.930 . S
C2030 C2031 1.355 . S
C2030 C2032 1.415 . S
C2031 C2030 1.355 . S
C2031 C2033 1.411 1_556 S
C2032 C2030 1.415 . S
C2032 C2037 1.425 . S
C2032 C2039 1.409 . S
C2033 H2025 0.943 . S
C2033 C2031 1.411 1_554 S
C2033 C2034 1.358 1_554 S
C2034 H2026 0.930 1_556 S
C2034 C2033 1.358 1_556 S
C2034 C2037 1.409 . S
C2035 H2027 0.930 . S
C2035 C2036 1.355 . S
C2035 C2037 1.415 . S
C2036 C2035 1.355 . S
C2036 C2038 1.419 . S
C2037 C2032 1.425 . S
C2037 C2034 1.409 . S
C2037 C2035 1.415 . S
C2038 H2028 0.930 . S
C2038 C2036 1.419 . S
C2038 C2039 1.362 . S
C2039 H2029 0.930 . S
C2039 C2032 1.409 . S
C2039 C2038 1.362 . S
H2040 C2046 0.930 . S
H2041 C2049 0.930 . S
H2042 C2050 0.916 1_554 S
H2043 C2051 0.930 . S
H2044 C2054 0.930 . S
H2045 C2055 0.930 . S
C2046 H2040 0.930 . S
C2046 C2047 1.355 . S
C2046 C2048 1.415 . S
C2047 C2046 1.355 . S
C2047 C2049 1.419 1_556 S
C2048 C2046 1.415 . S
C2048 C2053 1.425 . S
C2048 C2055 1.409 . S
C2049 H2041 0.930 . S
C2049 C2047 1.419 1_554 S
C2049 C2050 1.357 1_554 S
C2050 H2042 0.916 1_556 S
C2050 C2049 1.357 1_556 S
C2050 C2053 1.430 . S
C2051 H2043 0.930 . S
C2051 C2052 1.355 . S
C2051 C2053 1.415 . S
C2052 C2051 1.355 . S
C2052 C2054 1.419 . S
C2053 C2048 1.425 . S
C2053 C2050 1.430 . S
C2053 C2051 1.415 . S
C2054 H2044 0.930 . S
C2054 C2052 1.419 . S
C2054 C2055 1.362 . S
C2055 H2045 0.930 . S
C2055 C2048 1.409 . S
C2055 C2054 1.362 . S
H2056 C2062 0.909 1_554 S
H2057 C2065 0.930 . S
H2058 C2066 0.930 . S
H2059 C2067 0.930 . S
H2060 C2070 0.930 . S
H2061 C2071 0.930 1_554 S
C2062 H2056 0.909 1_556 S
C2062 C2063 1.365 . S
C2062 C2064 1.426 . S
C2063 C2062 1.365 . S
C2063 C2065 1.419 . S
C2064 C2062 1.426 . S
C2064 C2069 1.425 . S
C2064 C2071 1.409 . S
C2065 H2057 0.930 . S
C2065 C2063 1.419 . S
C2065 C2066 1.362 . S
C2066 H2058 0.930 . S
C2066 C2065 1.362 . S
C2066 C2069 1.409 . S
C2067 H2059 0.930 . S
C2067 C2068 1.355 . S
C2067 C2069 1.415 . S
C2068 C2067 1.355 . S
C2068 C2070 1.419 . S
C2069 C2064 1.425 . S
C2069 C2066 1.409 . S
C2069 C2067 1.415 . S
C2070 H2060 0.930 . S
C2070 C2068 1.419 . S
C2070 C2071 1.362 . S
C2071 H2061 0.930 1_556 S
C2071 C2064 1.409 . S
C2071 C2070 1.362 . S
H2072 C2078 0.930 . S
H2073 C2081 0.930 . S
H2074 C2082 0.930 . S
H2075 C2083 0.930 . S
H2076 C2086 0.930 1_554 S
H2077 C2087 0.930 . S
C2078 H2072 0.930 . S
C2078 C2079 1.355 1_554 S
C2078 C2080 1.415 1_554 S
C2079 C2078 1.355 1_556 S
C2079 C2081 1.419 . S
C2080 C2078 1.415 1_556 S
C2080 C2085 1.425 . S
C2080 C2087 1.409 1_556 S
C2081 H2073 0.930 . S
C2081 C2079 1.419 . S
C2081 C2082 1.362 . S
C2082 H2074 0.930 . S
C2082 C2081 1.362 . S
C2082 C2085 1.409 . S
C2083 H2075 0.930 . S
C2083 C2084 1.355 . S
C2083 C2085 1.415 . S
C2084 C2083 1.355 . S
C2084 C2086 1.419 . S
C2085 C2080 1.425 . S
C2085 C2082 1.409 . S
C2085 C2083 1.415 . S
C2086 H2076 0.930 1_556 S
C2086 C2084 1.419 . S
C2086 C2087 1.362 1_556 S
C2087 H2077 0.930 . S
C2087 C2080 1.409 1_554 S
C2087 C2086 1.362 1_554 S
H2088 C2094 0.930 . S
H2089 C2097 0.930 . S
H2090 C2098 0.930 . S
H2091 C2099 0.930 . S
H2092 C2102 0.930 . S
H2093 C2103 0.930 . S
C2094 H2088 0.930 . S
C2094 C2095 1.355 . S
C2094 C2096 1.415 . S
C2095 C2094 1.355 . S
C2095 C2097 1.419 . S
C2096 C2094 1.415 . S
C2096 C2101 1.425 . S
C2096 C2103 1.409 . S
C2097 H2089 0.930 . S
C2097 C2095 1.419 . S
C2097 C2098 1.362 . S
C2098 H2090 0.930 . S
C2098 C2097 1.362 . S
C2098 C2101 1.409 . S
C2099 H2091 0.930 . S
C2099 C2100 1.355 . S
C2099 C2101 1.415 . S
C2100 C2099 1.355 . S
C2100 C2102 1.419 . S
C2101 C2096 1.425 . S
C2101 C2098 1.409 . S
C2101 C2099 1.415 . S
C2102 H2092 0.930 . S
C2102 C2100 1.419 . S
C2102 C2103 1.362 . S
C2103 H2093 0.930 . S
C2103 C2096 1.409 . S
C2103 C2102 1.362 . S
H2104 C2110 0.930 . S
H2105 C2113 0.930 . S
H2106 C2114 0.930 . S
H2107 C2115 0.930 . S
H2108 C2118 0.930 . S
H2109 C2119 0.930 . S
C2110 H2104 0.930 . S
C2110 C2111 1.355 . S
C2110 C2112 1.415 . S
C2111 C2110 1.355 . S
C2111 C2113 1.419 . S
C2112 C2110 1.415 . S
C2112 C2117 1.425 . S
C2112 C2119 1.409 . S
C2113 H2105 0.930 . S
C2113 C2111 1.419 . S
C2113 C2114 1.362 . S
C2114 H2106 0.930 . S
C2114 C2113 1.362 . S
C2114 C2117 1.409 . S
C2115 H2107 0.930 . S
C2115 C2116 1.355 . S
C2115 C2117 1.415 . S
C2116 C2115 1.355 . S
C2116 C2118 1.419 . S
C2117 C2112 1.425 . S
C2117 C2114 1.409 . S
C2117 C2115 1.415 . S
C2118 H2108 0.930 . S
C2118 C2116 1.419 . S
C2118 C2119 1.362 . S
C2119 H2109 0.930 . S
C2119 C2112 1.409 . S
C2119 C2118 1.362 . S
H2120 C2126 0.930 . S
H2121 C2129 0.930 . S
H2122 C2130 0.930 . S
H2123 C2131 0.930 . S
H2124 C2134 0.930 . S
H2125 C2135 0.930 . S
C2126 H2120 0.930 . S
C2126 C2127 1.355 . S
C2126 C2128 1.415 . S
C2127 C2126 1.355 . S
C2127 C2129 1.419 . S
C2128 C2126 1.415 . S
C2128 C2133 1.425 . S
C2128 C2135 1.409 . S
C2129 H2121 0.930 . S
C2129 C2127 1.419 . S
C2129 C2130 1.362 . S
C2130 H2122 0.930 . S
C2130 C2129 1.362 . S
C2130 C2133 1.409 . S
C2131 H2123 0.930 . S
C2131 C2132 1.355 . S
C2131 C2133 1.415 . S
C2132 C2131 1.355 . S
C2132 C2134 1.419 . S
C2133 C2128 1.425 . S
C2133 C2130 1.409 . S
C2133 C2131 1.415 . S
C2134 H2124 0.930 . S
C2134 C2132 1.419 . S
C2134 C2135 1.362 . S
C2135 H2125 0.930 . S
C2135 C2128 1.409 . S
C2135 C2134 1.362 . S
H2136 C2142 0.930 . S
H2137 C2145 0.930 . S
H2138 C2146 0.930 . S
H2139 C2147 0.930 . S
H2140 C2150 0.930 . S
H2141 C2151 0.930 . S
C2142 H2136 0.930 . S
C2142 C2143 1.355 . S
C2142 C2144 1.415 . S
C2143 C2142 1.355 . S
C2143 C2145 1.419 . S
C2144 C2142 1.415 . S
C2144 C2149 1.425 . S
C2144 C2151 1.409 . S
C2145 H2137 0.930 . S
C2145 C2143 1.419 . S
C2145 C2146 1.362 . S
C2146 H2138 0.930 . S
C2146 C2145 1.362 . S
C2146 C2149 1.409 . S
C2147 H2139 0.930 . S
C2147 C2148 1.355 . S
C2147 C2149 1.415 . S
C2148 C2147 1.355 . S
C2148 C2150 1.419 . S
C2149 C2144 1.425 . S
C2149 C2146 1.409 . S
C2149 C2147 1.415 . S
C2150 H2140 0.930 . S
C2150 C2148 1.419 . S
C2150 C2151 1.362 . S
C2151 H2141 0.930 . S
C2151 C2144 1.409 . S
C2151 C2150 1.362 . S
H2152 C2158 0.930 . S
H2153 C2161 0.930 . S
H2154 C2162 0.930 . S
H2155 C2163 0.930 . S
H2156 C2166 0.930 . S
H2157 C2167 0.930 . S
C2158 H2152 0.930 . S
C2158 C2159 1.355 . S
C2158 C2160 1.415 . S
C2159 C2158 1.355 . S
C2159 C2161 1.419 . S
C2160 C2158 1.415 . S
C2160 C2165 1.425 . S
C2160 C2167 1.409 . S
C2161 H2153 0.930 . S
C2161 C2159 1.419 . S
C2161 C2162 1.362 . S
C2162 H2154 0.930 . S
C2162 C2161 1.362 . S
C2162 C2165 1.409 . S
C2163 H2155 0.930 . S
C2163 C2164 1.355 . S
C2163 C2165 1.415 . S
C2164 C2163 1.355 . S
C2164 C2166 1.419 . S
C2165 C2160 1.425 . S
C2165 C2162 1.409 . S
C2165 C2163 1.415 . S
C2166 H2156 0.930 . S
C2166 C2164 1.419 . S
C2166 C2167 1.362 . S
C2167 H2157 0.930 . S
C2167 C2160 1.409 . S
C2167 C2166 1.362 . S
H2168 C2174 0.930 . S
H2169 C2177 0.930 . S
H2170 C2178 0.930 . S
H2171 C2179 0.930 . S
H2172 C2182 0.930 . S
H2173 C2183 0.930 . S
C2174 H2168 0.930 . S
C2174 C2175 1.355 . S
C2174 C2176 1.415 . S
C2175 C2174 1.355 . S
C2175 C2177 1.419 . S
C2176 C2174 1.415 . S
C2176 C2181 1.425 . S
C2176 C2183 1.409 . S
C2177 H2169 0.930 . S
C2177 C2175 1.419 . S
C2177 C2178 1.362 . S
C2178 H2170 0.930 . S
C2178 C2177 1.362 . S
C2178 C2181 1.409 . S
C2179 H2171 0.930 . S
C2179 C2180 1.355 . S
C2179 C2181 1.415 . S
C2180 C2179 1.355 . S
C2180 C2182 1.419 . S
C2181 C2176 1.425 . S
C2181 C2178 1.409 . S
C2181 C2179 1.415 . S
C2182 H2172 0.930 . S
C2182 C2180 1.419 . S
C2182 C2183 1.362 . S
C2183 H2173 0.930 . S
C2183 C2176 1.409 . S
C2183 C2182 1.362 . S
H2184 C2190 0.930 . S
H2185 C2193 0.930 . S
H2186 C2194 0.930 . S
H2187 C2195 0.930 . S
H2188 C2198 0.999 . S
H2189 C2199 0.930 1_655 S
C2190 H2184 0.930 . S
C2190 C2191 1.355 . S
C2190 C2192 1.415 . S
C2191 C2190 1.355 . S
C2191 C2193 1.419 . S
C2192 C2190 1.415 . S
C2192 C2197 1.425 . S
C2192 C2199 1.409 . S
C2193 H2185 0.930 . S
C2193 C2191 1.419 . S
C2193 C2194 1.362 . S
C2194 H2186 0.930 . S
C2194 C2193 1.362 . S
C2194 C2197 1.409 . S
C2195 H2187 0.930 . S
C2195 C2196 1.355 . S
C2195 C2197 1.415 . S
C2196 C2195 1.355 . S
C2196 C2198 1.396 1_455 S
C2197 C2192 1.425 . S
C2197 C2194 1.409 . S
C2197 C2195 1.415 . S
C2198 H2188 0.999 . S
C2198 C2196 1.396 1_655 S
C2198 C2199 1.320 1_655 S
C2199 H2189 0.930 1_455 S
C2199 C2192 1.409 . S
C2199 C2198 1.320 1_455 S
H2200 C2206 0.930 . S
H2201 C2209 0.930 . S
H2202 C2210 0.930 . S
H2203 C2211 0.930 . S
H2204 C2214 0.930 . S
H2205 C2215 0.930 . S
C2206 H2200 0.930 . S
C2206 C2207 1.355 . S
C2206 C2208 1.415 . S
C2207 C2206 1.355 . S
C2207 C2209 1.419 . S
C2208 C2206 1.415 . S
C2208 C2213 1.425 . S
C2208 C2215 1.409 . S
C2209 H2201 0.930 . S
C2209 C2207 1.419 . S
C2209 C2210 1.362 . S
C2210 H2202 0.930 . S
C2210 C2209 1.362 . S
C2210 C2213 1.409 . S
C2211 H2203 0.930 . S
C2211 C2212 1.355 . S
C2211 C2213 1.415 . S
C2212 C2211 1.355 . S
C2212 C2214 1.419 . S
C2213 C2208 1.425 . S
C2213 C2210 1.409 . S
C2213 C2211 1.415 . S
C2214 H2204 0.930 . S
C2214 C2212 1.419 . S
C2214 C2215 1.362 . S
C2215 H2205 0.930 . S
C2215 C2208 1.409 . S
C2215 C2214 1.362 . S
H2216 C2222 0.930 . S
H2217 C2225 0.930 . S
H2218 C2226 0.930 . S
H2219 C2227 0.930 . S
H2220 C2230 0.930 . S
H2221 C2231 0.930 . S
C2222 H2216 0.930 . S
C2222 C2223 1.355 . S
C2222 C2224 1.415 . S
C2223 C2222 1.355 . S
C2223 C2225 1.419 . S
C2224 C2222 1.415 . S
C2224 C2229 1.425 . S
C2224 C2231 1.409 1_565 S
C2225 H2217 0.930 . S
C2225 C2223 1.419 . S
C2225 C2226 1.362 . S
C2226 H2218 0.930 . S
C2226 C2225 1.362 . S
C2226 C2229 1.409 . S
C2227 H2219 0.930 . S
C2227 C2228 1.355 . S
C2227 C2229 1.415 . S
C2228 C2227 1.355 . S
C2228 C2230 1.419 1_565 S
C2229 C2224 1.425 . S
C2229 C2226 1.409 . S
C2229 C2227 1.415 . S
C2230 H2220 0.930 . S
C2230 C2228 1.419 1_545 S
C2230 C2231 1.362 . S
C2231 H2221 0.930 . S
C2231 C2224 1.409 1_545 S
C2231 C2230 1.362 . S
H2232 C2238 0.930 . S
H2233 C2241 0.930 . S
H2234 C2242 0.930 . S
H2235 C2243 0.930 . S
H2236 C2246 0.930 . S
H2237 C2247 0.930 . S
C2238 H2232 0.930 . S
C2238 C2239 1.355 . S
C2238 C2240 1.415 . S
C2239 C2238 1.355 . S
C2239 C2241 1.419 . S
C2240 C2238 1.415 . S
C2240 C2245 1.425 . S
C2240 C2247 1.409 . S
C2241 H2233 0.930 . S
C2241 C2239 1.419 . S
C2241 C2242 1.362 . S
C2242 H2234 0.930 . S
C2242 C2241 1.362 . S
C2242 C2245 1.409 . S
C2243 H2235 0.930 . S
C2243 C2244 1.355 . S
C2243 C2245 1.415 . S
C2244 C2243 1.355 . S
C2244 C2246 1.419 . S
C2245 C2240 1.425 . S
C2245 C2242 1.409 . S
C2245 C2243 1.415 . S
C2246 H2236 0.930 . S
C2246 C2244 1.419 . S
C2246 C2247 1.362 . S
C2247 H2237 0.930 . S
C2247 C2240 1.409 . S
C2247 C2246 1.362 . S
H2248 C2254 0.930 . S
H2249 C2257 0.930 . S
H2250 C2258 0.908 1_655 S
H2251 C2259 0.930 1_655 S
H2252 C2262 0.930 . S
H2253 C2263 0.930 . S
C2254 H2248 0.930 . S
C2254 C2255 1.355 . S
C2254 C2256 1.415 . S
C2255 C2254 1.355 . S
C2255 C2257 1.419 . S
C2256 C2254 1.415 . S
C2256 C2261 1.425 . S
C2256 C2263 1.409 . S
C2257 H2249 0.930 . S
C2257 C2255 1.419 . S
C2257 C2258 1.361 . S
C2258 H2250 0.908 1_455 S
C2258 C2257 1.361 . S
C2258 C2261 1.432 . S
C2259 H2251 0.930 1_455 S
C2259 C2260 1.355 . S
C2259 C2261 1.415 . S
C2260 C2259 1.355 . S
C2260 C2262 1.419 . S
C2261 C2256 1.425 . S
C2261 C2258 1.432 . S
C2261 C2259 1.415 . S
C2262 H2252 0.930 . S
C2262 C2260 1.419 . S
C2262 C2263 1.362 . S
C2263 H2253 0.930 . S
C2263 C2256 1.409 . S
C2263 C2262 1.362 . S
H2264 C2270 0.930 . S
H2265 C2273 0.930 . S
H2266 C2274 0.930 . S
H2267 C2275 0.930 . S
H2268 C2278 0.930 . S
H2269 C2279 0.930 . S
C2270 H2264 0.930 . S
C2270 C2271 1.355 . S
C2270 C2272 1.415 . S
C2271 C2270 1.355 . S
C2271 C2273 1.419 . S
C2272 C2270 1.415 . S
C2272 C2277 1.425 . S
C2272 C2279 1.409 . S
C2273 H2265 0.930 . S
C2273 C2271 1.419 . S
C2273 C2274 1.362 . S
C2274 H2266 0.930 . S
C2274 C2273 1.362 . S
C2274 C2277 1.409 . S
C2275 H2267 0.930 . S
C2275 C2276 1.355 . S
C2275 C2277 1.415 . S
C2276 C2275 1.355 . S
C2276 C2278 1.419 . S
C2277 C2272 1.425 . S
C2277 C2274 1.409 . S
C2277 C2275 1.415 . S
C2278 H2268 0.930 . S
C2278 C2276 1.419 . S
C2278 C2279 1.362 . S
C2279 H2269 0.930 . S
C2279 C2272 1.409 . S
C2279 C2278 1.362 . S
H2280 C2286 0.930 . S
H2281 C2289 0.930 . S
H2282 C2290 0.930 . S
H2283 C2291 0.930 . S
H2284 C2294 0.930 . S
H2285 C2295 0.930 . S
C2286 H2280 0.930 . S
C2286 C2287 1.355 . S
C2286 C2288 1.415 . S
C2287 C2286 1.355 . S
C2287 C2289 1.419 . S
C2288 C2286 1.415 . S
C2288 C2293 1.425 . S
C2288 C2295 1.409 . S
C2289 H2281 0.930 . S
C2289 C2287 1.419 . S
C2289 C2290 1.362 . S
C2290 H2282 0.930 . S
C2290 C2289 1.362 . S
C2290 C2293 1.409 . S
C2291 H2283 0.930 . S
C2291 C2292 1.355 . S
C2291 C2293 1.415 . S
C2292 C2291 1.355 . S
C2292 C2294 1.419 . S
C2293 C2288 1.425 . S
C2293 C2290 1.409 . S
C2293 C2291 1.415 . S
C2294 H2284 0.930 . S
C2294 C2292 1.419 . S
C2294 C2295 1.362 . S
C2295 H2285 0.930 . S
C2295 C2288 1.409 . S
C2295 C2294 1.362 . S
H2296 C2302 0.930 . S
H2297 C2305 0.930 . S
H2298 C2306 0.930 . S
H2299 C2307 0.930 . S
H2300 C2310 0.930 . S
H2301 C2311 0.930 . S
C2302 H2296 0.930 . S
C2302 C2303 1.355 . S
C2302 C2304 1.415 . S
C2303 C2302 1.355 . S
C2303 C2305 1.419 . S
C2304 C2302 1.415 . S
C2304 C2309 1.425 . S
C2304 C2311 1.409 . S
C2305 H2297 0.930 . S
C2305 C2303 1.419 . S
C2305 C2306 1.362 . S
C2306 H2298 0.930 . S
C2306 C2305 1.362 . S
C2306 C2309 1.409 . S
C2307 H2299 0.930 . S
C2307 C2308 1.355 . S
C2307 C2309 1.415 . S
C2308 C2307 1.355 . S
C2308 C2310 1.419 . S
C2309 C2304 1.425 . S
C2309 C2306 1.409 . S
C2309 C2307 1.415 . S
C2310 H2300 0.930 . S
C2310 C2308 1.419 . S
C2310 C2311 1.362 . S
C2311 H2301 0.930 . S
C2311 C2304 1.409 . S
C2311 C2310 1.362 . S
H2312 C2318 0.930 . S
H2313 C2321 0.930 . S
H2314 C2322 0.930 . S
H2315 C2323 0.930 . S
H2316 C2326 0.930 . S
H2317 C2327 0.930 . S
C2318 H2312 0.930 . S
C2318 C2319 1.355 . S
C2318 C2320 1.415 . S
C2319 C2318 1.355 . S
C2319 C2321 1.419 . S
C2320 C2318 1.415 . S
C2320 C2325 1.425 . S
C2320 C2327 1.409 . S
C2321 H2313 0.930 . S
C2321 C2319 1.419 . S
C2321 C2322 1.362 . S
C2322 H2314 0.930 . S
C2322 C2321 1.362 . S
C2322 C2325 1.409 . S
C2323 H2315 0.930 . S
C2323 C2324 1.355 . S
C2323 C2325 1.415 . S
C2324 C2323 1.355 . S
C2324 C2326 1.419 . S
C2325 C2320 1.425 . S
C2325 C2322 1.409 . S
C2325 C2323 1.415 . S
C2326 H2316 0.930 . S
C2326 C2324 1.419 . S
C2326 C2327 1.362 . S
C2327 H2317 0.930 . S
C2327 C2320 1.409 . S
C2327 C2326 1.362 . S
H2328 C2334 0.930 . S
H2329 C2337 0.934 . S
H2330 C2338 0.989 . S
H2331 C2339 0.882 1_565 S
H2332 C2342 0.930 . S
H2333 C2343 0.930 . S
C2334 H2328 0.930 . S
C2334 C2335 1.355 . S
C2334 C2336 1.415 . S
C2335 C2334 1.355 . S
C2335 C2337 1.419 . S
C2336 C2334 1.415 . S
C2336 C2341 1.425 . S
C2336 C2343 1.409 . S
C2337 H2329 0.934 . S
C2337 C2335 1.419 . S
C2337 C2338 1.309 1_545 S
C2338 H2330 0.989 . S
C2338 C2337 1.309 1_565 S
C2338 C2341 1.407 1_565 S
C2339 H2331 0.882 1_545 S
C2339 C2340 1.360 . S
C2339 C2341 1.458 . S
C2340 C2339 1.360 . S
C2340 C2342 1.419 . S
C2341 C2336 1.425 . S
C2341 C2338 1.407 1_545 S
C2341 C2339 1.458 . S
C2342 H2332 0.930 . S
C2342 C2340 1.419 . S
C2342 C2343 1.362 . S
C2343 H2333 0.930 . S
C2343 C2336 1.409 . S
C2343 C2342 1.362 . S
H2344 C2350 0.930 . S
H2345 C2353 0.930 . S
H2346 C2354 0.930 . S
H2347 C2355 0.930 . S
H2348 C2358 0.930 . S
H2349 C2359 0.930 . S
C2350 H2344 0.930 . S
C2350 C2351 1.355 . S
C2350 C2352 1.415 . S
C2351 C2350 1.355 . S
C2351 C2353 1.419 . S
C2352 C2350 1.415 . S
C2352 C2357 1.425 . S
C2352 C2359 1.409 . S
C2353 H2345 0.930 . S
C2353 C2351 1.419 . S
C2353 C2354 1.362 . S
C2354 H2346 0.930 . S
C2354 C2353 1.362 . S
C2354 C2357 1.409 . S
C2355 H2347 0.930 . S
C2355 C2356 1.355 . S
C2355 C2357 1.415 . S
C2356 C2355 1.355 . S
C2356 C2358 1.419 . S
C2357 C2352 1.425 . S
C2357 C2354 1.409 . S
C2357 C2355 1.415 . S
C2358 H2348 0.930 . S
C2358 C2356 1.419 . S
C2358 C2359 1.362 . S
C2359 H2349 0.930 . S
C2359 C2352 1.409 . S
C2359 C2358 1.362 . S
H2360 C2366 0.930 . S
H2361 C2369 0.930 . S
H2362 C2370 0.930 . S
H2363 C2371 0.930 . S
H2364 C2374 0.930 . S
H2365 C2375 0.930 . S
C2366 H2360 0.930 . S
C2366 C2367 1.355 . S
C2366 C2368 1.415 . S
C2367 C2366 1.355 . S
C2367 C2369 1.419 . S
C2368 C2366 1.415 . S
C2368 C2373 1.425 . S
C2368 C2375 1.409 . S
C2369 H2361 0.930 . S
C2369 C2367 1.419 . S
C2369 C2370 1.362 . S
C2370 H2362 0.930 . S
C2370 C2369 1.362 . S
C2370 C2373 1.409 . S
C2371 H2363 0.930 . S
C2371 C2372 1.355 . S
C2371 C2373 1.415 . S
C2372 C2371 1.355 . S
C2372 C2374 1.419 . S
C2373 C2368 1.425 . S
C2373 C2370 1.409 . S
C2373 C2371 1.415 . S
C2374 H2364 0.930 . S
C2374 C2372 1.419 . S
C2374 C2375 1.362 . S
C2375 H2365 0.930 . S
C2375 C2368 1.409 . S
C2375 C2374 1.362 . S
H2376 C2382 0.930 . S
H2377 C2385 0.930 . S
H2378 C2386 0.930 . S
H2379 C2387 0.930 . S
H2380 C2390 0.930 . S
H2381 C2391 0.930 . S
C2382 H2376 0.930 . S
C2382 C2383 1.355 . S
C2382 C2384 1.415 . S
C2383 C2382 1.355 . S
C2383 C2385 1.419 . S
C2384 C2382 1.415 . S
C2384 C2389 1.425 . S
C2384 C2391 1.409 . S
C2385 H2377 0.930 . S
C2385 C2383 1.419 . S
C2385 C2386 1.362 . S
C2386 H2378 0.930 . S
C2386 C2385 1.362 . S
C2386 C2389 1.409 . S
C2387 H2379 0.930 . S
C2387 C2388 1.355 . S
C2387 C2389 1.415 . S
C2388 C2387 1.355 . S
C2388 C2390 1.419 . S
C2389 C2384 1.425 . S
C2389 C2386 1.409 . S
C2389 C2387 1.415 . S
C2390 H2380 0.930 . S
C2390 C2388 1.419 . S
C2390 C2391 1.362 . S
C2391 H2381 0.930 . S
C2391 C2384 1.409 . S
C2391 C2390 1.362 . S
H2392 C2398 0.930 . S
H2393 C2401 0.930 . S
H2394 C2402 0.930 . S
H2395 C2403 0.930 . S
H2396 C2406 0.930 . S
H2397 C2407 0.930 . S
C2398 H2392 0.930 . S
C2398 C2399 1.355 . S
C2398 C2400 1.415 . S
C2399 C2398 1.355 . S
C2399 C2401 1.419 . S
C2400 C2398 1.415 . S
C2400 C2405 1.425 . S
C2400 C2407 1.409 . S
C2401 H2393 0.930 . S
C2401 C2399 1.419 . S
C2401 C2402 1.362 . S
C2402 H2394 0.930 . S
C2402 C2401 1.362 . S
C2402 C2405 1.409 . S
C2403 H2395 0.930 . S
C2403 C2404 1.355 . S
C2403 C2405 1.415 . S
C2404 C2403 1.355 . S
C2404 C2406 1.419 . S
C2405 C2400 1.425 . S
C2405 C2402 1.409 . S
C2405 C2403 1.415 . S
C2406 H2396 0.930 . S
C2406 C2404 1.419 . S
C2406 C2407 1.362 . S
C2407 H2397 0.930 . S
C2407 C2400 1.409 . S
C2407 C2406 1.362 . S
H2408 C2414 0.930 . S
H2409 C2417 0.930 . S
H2410 C2418 0.930 . S
H2411 C2419 0.930 . S
H2412 C2422 0.930 . S
H2413 C2423 0.930 . S
C2414 H2408 0.930 . S
C2414 C2415 1.355 . S
C2414 C2416 1.415 . S
C2415 C2414 1.355 . S
C2415 C2417 1.419 . S
C2416 C2414 1.415 . S
C2416 C2421 1.425 . S
C2416 C2423 1.409 . S
C2417 H2409 0.930 . S
C2417 C2415 1.419 . S
C2417 C2418 1.362 . S
C2418 H2410 0.930 . S
C2418 C2417 1.362 . S
C2418 C2421 1.409 . S
C2419 H2411 0.930 . S
C2419 C2420 1.355 . S
C2419 C2421 1.415 . S
C2420 C2419 1.355 . S
C2420 C2422 1.419 . S
C2421 C2416 1.425 . S
C2421 C2418 1.409 . S
C2421 C2419 1.415 . S
C2422 H2412 0.930 . S
C2422 C2420 1.419 . S
C2422 C2423 1.362 . S
C2423 H2413 0.930 . S
C2423 C2416 1.409 . S
C2423 C2422 1.362 . S
H2424 C2430 0.930 . S
H2425 C2433 0.930 . S
H2426 C2434 0.930 . S
H2427 C2435 0.930 . S
H2428 C2438 0.930 . S
H2429 C2439 0.930 . S
C2430 H2424 0.930 . S
C2430 C2431 1.355 . S
C2430 C2432 1.415 . S
C2431 C2430 1.355 . S
C2431 C2433 1.419 . S
C2432 C2430 1.415 . S
C2432 C2437 1.425 . S
C2432 C2439 1.409 . S
C2433 H2425 0.930 . S
C2433 C2431 1.419 . S
C2433 C2434 1.362 . S
C2434 H2426 0.930 . S
C2434 C2433 1.362 . S
C2434 C2437 1.409 . S
C2435 H2427 0.930 . S
C2435 C2436 1.355 . S
C2435 C2437 1.415 . S
C2436 C2435 1.355 . S
C2436 C2438 1.419 . S
C2437 C2432 1.425 . S
C2437 C2434 1.409 . S
C2437 C2435 1.415 . S
C2438 H2428 0.930 . S
C2438 C2436 1.419 . S
C2438 C2439 1.362 . S
C2439 H2429 0.930 . S
C2439 C2432 1.409 . S
C2439 C2438 1.362 . S
H2440 C2446 0.930 . S
H2441 C2449 0.930 . S
H2442 C2450 0.930 . S
H2443 C2451 0.930 . S
H2444 C2454 0.930 . S
H2445 C2455 0.930 . S
C2446 H2440 0.930 . S
C2446 C2447 1.355 . S
C2446 C2448 1.415 . S
C2447 C2446 1.355 . S
C2447 C2449 1.419 . S
C2448 C2446 1.415 . S
C2448 C2453 1.425 . S
C2448 C2455 1.409 . S
C2449 H2441 0.930 . S
C2449 C2447 1.419 . S
C2449 C2450 1.362 . S
C2450 H2442 0.930 . S
C2450 C2449 1.362 . S
C2450 C2453 1.409 . S
C2451 H2443 0.930 . S
C2451 C2452 1.355 . S
C2451 C2453 1.415 . S
C2452 C2451 1.355 . S
C2452 C2454 1.419 . S
C2453 C2448 1.425 . S
C2453 C2450 1.409 . S
C2453 C2451 1.415 . S
C2454 H2444 0.930 . S
C2454 C2452 1.419 . S
C2454 C2455 1.362 . S
C2455 H2445 0.930 . S
C2455 C2448 1.409 . S
C2455 C2454 1.362 . S
H2456 C2462 0.930 . S
H2457 C2465 0.930 . S
H2458 C2466 0.930 . S
H2459 C2467 0.930 . S
H2460 C2470 0.930 . S
H2461 C2471 0.930 . S
C2462 H2456 0.930 . S
C2462 C2463 1.355 . S
C2462 C2464 1.415 . S
C2463 C2462 1.355 . S
C2463 C2465 1.419 . S
C2464 C2462 1.415 . S
C2464 C2469 1.425 . S
C2464 C2471 1.409 . S
C2465 H2457 0.930 . S
C2465 C2463 1.419 . S
C2465 C2466 1.362 . S
C2466 H2458 0.930 . S
C2466 C2465 1.362 . S
C2466 C2469 1.409 . S
C2467 H2459 0.930 . S
C2467 C2468 1.355 . S
C2467 C2469 1.415 . S
C2468 C2467 1.355 . S
C2468 C2470 1.419 . S
C2469 C2464 1.425 . S
C2469 C2466 1.409 . S
C2469 C2467 1.415 . S
C2470 H2460 0.930 . S
C2470 C2468 1.419 . S
C2470 C2471 1.362 . S
C2471 H2461 0.930 . S
C2471 C2464 1.409 . S
C2471 C2470 1.362 . S
H2472 C2478 0.930 . S
H2473 C2481 0.930 . S
H2474 C2482 0.930 . S
H2475 C2483 0.930 . S
H2476 C2486 0.930 . S
H2477 C2487 0.936 . S
C2478 H2472 0.930 . S
C2478 C2479 1.355 . S
C2478 C2480 1.415 . S
C2479 C2478 1.355 . S
C2479 C2481 1.419 . S
C2480 C2478 1.415 . S
C2480 C2485 1.425 . S
C2480 C2487 1.395 1_655 S
C2481 H2473 0.930 . S
C2481 C2479 1.419 . S
C2481 C2482 1.362 . S
C2482 H2474 0.930 . S
C2482 C2481 1.362 . S
C2482 C2485 1.409 . S
C2483 H2475 0.930 . S
C2483 C2484 1.355 . S
C2483 C2485 1.415 . S
C2484 C2483 1.355 . S
C2484 C2486 1.419 1_655 S
C2485 C2480 1.425 . S
C2485 C2482 1.409 . S
C2485 C2483 1.415 . S
C2486 H2476 0.930 . S
C2486 C2484 1.419 1_455 S
C2486 C2487 1.371 . S
C2487 H2477 0.936 . S
C2487 C2480 1.395 1_455 S
C2487 C2486 1.371 . S
H2488 C2494 0.930 . S
H2489 C2497 0.930 . S
H2490 C2498 0.930 . S
H2491 C2499 0.930 . S
H2492 C2502 0.930 . S
H2493 C2503 0.930 . S
C2494 H2488 0.930 . S
C2494 C2495 1.355 . S
C2494 C2496 1.415 . S
C2495 C2494 1.355 . S
C2495 C2497 1.419 . S
C2496 C2494 1.415 . S
C2496 C2501 1.425 . S
C2496 C2503 1.409 . S
C2497 H2489 0.930 . S
C2497 C2495 1.419 . S
C2497 C2498 1.362 . S
C2498 H2490 0.930 . S
C2498 C2497 1.362 . S
C2498 C2501 1.409 . S
C2499 H2491 0.930 . S
C2499 C2500 1.355 . S
C2499 C2501 1.415 . S
C2500 C2499 1.355 . S
C2500 C2502 1.419 . S
C2501 C2496 1.425 . S
C2501 C2498 1.409 . S
C2501 C2499 1.415 . S
C2502 H2492 0.930 . S
C2502 C2500 1.419 . S
C2502 C2503 1.362 . S
C2503 H2493 0.930 . S
C2503 C2496 1.409 . S
C2503 C2502 1.362 . S
H2504 C2510 0.930 . S
H2505 C2513 0.930 1_565 S
H2506 C2514 0.930 . S
H2507 C2515 0.912 1_565 S
H2508 C2518 0.930 . S
H2509 C2519 0.930 . S
C2510 H2504 0.930 . S
C2510 C2511 1.355 . S
C2510 C2512 1.415 . S
C2511 C2510 1.355 . S
C2511 C2513 1.419 . S
C2512 C2510 1.415 . S
C2512 C2517 1.425 . S
C2512 C2519 1.409 . S
C2513 H2505 0.930 1_545 S
C2513 C2511 1.419 . S
C2513 C2514 1.362 1_545 S
C2514 H2506 0.930 . S
C2514 C2513 1.362 1_565 S
C2514 C2517 1.409 1_565 S
C2515 H2507 0.912 1_545 S
C2515 C2516 1.374 . S
C2515 C2517 1.413 . S
C2516 C2515 1.374 . S
C2516 C2518 1.419 . S
C2517 C2512 1.425 . S
C2517 C2514 1.409 1_545 S
C2517 C2515 1.413 . S
C2518 H2508 0.930 . S
C2518 C2516 1.419 . S
C2518 C2519 1.362 . S
C2519 H2509 0.930 . S
C2519 C2512 1.409 . S
C2519 C2518 1.362 . S
C1375 C4 1.600 . S
C1380 C857 1.577 . S
C1391 C26 1.599 . S
C1396 C901 1.554 . S
C1412 C981 1.517 . S
C1407 C32 1.543 . S
C1423 C40 1.510 . S
C1428 C1025 1.432 . S
C1439 C12 1.560 . S
C1444 C1105 1.542 . S
C1455 C18 1.577 . S
C1460 C1167 1.565 . S
C1471 C46 1.597 . S
C1476 C1087 1.581 . S
C1492 C1149 1.549 . S
C1487 C68 1.588 . S
C1508 C1043 1.521 . S
C1503 C74 1.543 . S
C1519 C82 1.518 . S
C1524 C963 1.473 . S
C1540 C839 1.536 . S
C1535 C54 1.584 . S
C1551 C60 1.533 . S
C1556 C919 1.547 . S
C1567 C88 1.593 . S
C1572 C1229 1.566 . S
C1583 C110 1.617 . S
C1588 C1273 1.579 . S
C1604 C1353 1.561 . S
C1599 C116 1.596 . S
C1615 C124 1.531 . S
C1620 C299 1.426 . S
C1631 C96 1.579 . S
C1636 C343 1.509 . S
C1647 C102 1.582 . S
C1652 C423 1.567 . S
C1663 C130 1.604 . S
C1668 C361 1.593 . S
C1679 C152 1.620 . S
C1684 C405 1.505 . S
C1700 C281 1.539 . S
C1695 C158 1.578 . S
C1716 C1335 1.518 . S
C1711 C166 1.559 . S
C1732 C1211 1.479 . S
C1727 C138 1.576 . S
C1748 C1291 1.572 . S
C1743 C144 1.557 . S
C1759 C172 1.621 . S
C1764 C485 1.604 . S
C1775 C194 1.618 . S
C1780 C547 1.575 . S
C1791 C200 1.559 . S
C1796 C591 1.559 . S
C1807 C208 1.544 . S
C1812 C653 1.516 . S
C1828 C715 1.540 . S
C1823 C180 1.577 . S
C1844 C795 1.535 . S
C1839 C186 1.566 . S
C1860 C733 1.660 . S
C1855 C214 1.655 . S
C1876 C777 1.545 . S
C1871 C236 1.621 . S
C1887 C242 1.544 . S
C1892 C671 1.549 . S
C1908 C609 1.513 . S
C1903 C250 1.535 . S
C1919 C222 1.588 . S
C1924 C467 1.525 . S
C1940 C529 1.528 . S
C1935 C228 1.561 . S
C1956 C305 1.345 . S
C1951 C5 1.153 . S
C1967 C25 1.432 . S
C1972 C349 1.291 . S
C1988 C429 1.384 . S
C1983 C33 1.229 . S
C2004 C491 1.235 . S
C1999 C39 1.358 . S
C2020 C553 1.349 . S
C2015 C11 1.419 . S
C2036 C597 1.340 . S
C2031 C19 1.168 1_556 S
C2047 C47 1.177 1_556 S
C2052 C615 1.394 . S
C2063 C67 1.417 . S
C2068 C473 1.344 . S
C2079 C75 1.261 1_556 S
C2084 C535 1.406 . S
C2095 C81 1.364 . S
C2100 C367 1.292 . S
C2116 C411 1.292 . S
C2111 C53 1.406 . S
C2127 C61 1.091 . S
C2132 C287 1.285 . S
C2148 C659 1.426 . S
C2143 C89 1.240 . S
C2159 C109 1.461 . S
C2164 C721 1.403 . S
C2175 C117 1.241 . S
C2180 C801 1.396 . S
C2196 C863 1.310 . S
C2191 C123 1.319 . S
C2207 C95 1.401 . S
C2212 C907 1.282 . S
C2223 C103 1.103 . S
C2228 C987 1.250 . S
C2239 C131 1.202 . S
C2244 C969 1.323 . S
C2255 C151 1.393 . S
C2260 C845 1.273 . S
C2276 C925 1.392 . S
C2271 C159 1.240 . S
C2287 C165 1.381 . S
C2292 C739 1.268 . S
C2303 C137 1.441 . S
C2308 C783 1.373 . S
C2324 C677 1.329 . S
C2319 C145 1.089 . S
C2340 C1031 1.296 . S
C2335 C173 1.069 . S
C2351 C193 1.359 . S
C2356 C1111 1.216 . S
C2367 C201 1.130 . S
C2372 C1173 1.314 . S
C2388 C1235 1.315 . S
C2383 C207 1.354 . S
C2404 C1279 1.333 . S
C2399 C179 1.416 1_565 S
C2415 C187 1.236 . S
C2420 C1359 1.387 . S
C2431 C215 1.255 . S
C2436 C1341 1.414 . S
C2447 C235 1.446 . S
C2452 C1217 1.393 . S
C2468 C1297 1.400 . S
C2463 C243 1.240 . S
C2484 C1093 1.270 . S
C2479 C249 1.283 . S
C2500 C1155 1.360 . S
C2495 C221 1.397 . S
C2511 C229 1.101 . S
C2516 C1049 1.296 . S
