# Generated by pormake.
# Topology zzz, (3,6)-cn, num edge types: 1
# Building blocks:
#     Node 0, Type 0, BuildingBlock: BETDIP_clean_linker_0, # of connection points: 3
#     Node 1, Type 0, BuildingBlock: BETDIP_clean_linker_0, # of connection points: 3
#     Node 2, Type 0, BuildingBlock: BETDIP_clean_linker_0, # of connection points: 3
#     Node 3, Type 0, BuildingBlock: BETDIP_clean_linker_0, # of connection points: 3
#     Node 4, Type 0, BuildingBlock: BETDIP_clean_linker_0, # of connection points: 3
#     Node 5, Type 0, BuildingBlock: BETDIP_clean_linker_0, # of connection points: 3
#     Node 6, Type 0, BuildingBlock: BETDIP_clean_linker_0, # of connection points: 3
#     Node 7, Type 0, BuildingBlock: BETDIP_clean_linker_0, # of connection points: 3
#     Node 8, Type 1, BuildingBlock: HISSIN_clean_sbu_0, # of connection points: 6
#     Node 9, Type 1, BuildingBlock: HISSIN_clean_sbu_0, # of connection points: 6
#     Node 10, Type 1, BuildingBlock: HISSIN_clean_sbu_0, # of connection points: 6
#     Node 11, Type 1, BuildingBlock: HISSIN_clean_sbu_0, # of connection points: 6
#     Edge 12, Type (0, 1), BuildingBlock: OJICUG_clean_linker_0, # of connection points: 2
#     Edge 13, Type (0, 1), BuildingBlock: OJICUG_clean_linker_0, # of connection points: 2
#     Edge 14, Type (0, 1), BuildingBlock: OJICUG_clean_linker_0, # of connection points: 2
#     Edge 15, Type (0, 1), BuildingBlock: OJICUG_clean_linker_0, # of connection points: 2
#     Edge 16, Type (0, 1), BuildingBlock: OJICUG_clean_linker_0, # of connection points: 2
#     Edge 17, Type (0, 1), BuildingBlock: OJICUG_clean_linker_0, # of connection points: 2
#     Edge 18, Type (0, 1), BuildingBlock: OJICUG_clean_linker_0, # of connection points: 2
#     Edge 19, Type (0, 1), BuildingBlock: OJICUG_clean_linker_0, # of connection points: 2
#     Edge 20, Type (0, 1), BuildingBlock: OJICUG_clean_linker_0, # of connection points: 2
#     Edge 21, Type (0, 1), BuildingBlock: OJICUG_clean_linker_0, # of connection points: 2
#     Edge 22, Type (0, 1), BuildingBlock: OJICUG_clean_linker_0, # of connection points: 2
#     Edge 23, Type (0, 1), BuildingBlock: OJICUG_clean_linker_0, # of connection points: 2
#     Edge 24, Type (0, 1), BuildingBlock: OJICUG_clean_linker_0, # of connection points: 2
#     Edge 25, Type (0, 1), BuildingBlock: OJICUG_clean_linker_0, # of connection points: 2
#     Edge 26, Type (0, 1), BuildingBlock: OJICUG_clean_linker_0, # of connection points: 2
#     Edge 27, Type (0, 1), BuildingBlock: OJICUG_clean_linker_0, # of connection points: 2
#     Edge 28, Type (0, 1), BuildingBlock: OJICUG_clean_linker_0, # of connection points: 2
#     Edge 29, Type (0, 1), BuildingBlock: OJICUG_clean_linker_0, # of connection points: 2
#     Edge 30, Type (0, 1), BuildingBlock: OJICUG_clean_linker_0, # of connection points: 2
#     Edge 31, Type (0, 1), BuildingBlock: OJICUG_clean_linker_0, # of connection points: 2
#     Edge 32, Type (0, 1), BuildingBlock: OJICUG_clean_linker_0, # of connection points: 2
#     Edge 33, Type (0, 1), BuildingBlock: OJICUG_clean_linker_0, # of connection points: 2
#     Edge 34, Type (0, 1), BuildingBlock: OJICUG_clean_linker_0, # of connection points: 2
#     Edge 35, Type (0, 1), BuildingBlock: OJICUG_clean_linker_0, # of connection points: 2
# Relax obj value: 0.364
# Max RMSD: 0.209
# Mean RMSD: 0.100
data_MOF--net-zzz--node1-HISSIN_clean_sbu_0--node2-BETDIP_clean_linker_0--edge1-OJICUG_clean_linker_0
_symmetry_space_group_name_H-M    P1
_symmetry_Int_Tables_number       1
_symmetry_cell_setting            triclinic
loop_
_symmetry_equiv_pos_as_xyz
'x, y, z'
_cell_length_a     37.149471
_cell_length_b     37.129343
_cell_length_c     12.229356
_cell_angle_alpha  90.069271
_cell_angle_beta   91.695733
_cell_angle_gamma 90.495671
loop_
_atom_site_label
_atom_site_type_symbol
_atom_site_fract_x
_atom_site_fract_y
_atom_site_fract_z
_atom_type_partial_charge
H0 H 0.7868 0.55315 0.47738 0.0
H1 H 0.75327 0.47219 0.24082 0.0
H2 H 0.84943 0.45714 0.43679 0.0
H3 H 0.75291 0.53882 0.14996 0.0
C4 C 0.72935 0.5405 0.20042 0.0
C5 C 0.7905 0.52709 0.43979 0.0
C6 C 0.82092 0.50568 0.47171 0.0
C7 C 0.76547 0.51474 0.35618 0.0
C8 C 0.77147 0.48142 0.30612 0.0
C9 C 0.80155 0.46075 0.33435 0.0
C10 C 0.82532 0.47256 0.41852 0.0
N11 N 0.73544 0.53579 0.31626 0.0
H12 H 0.0471 0.78096 0.48019 0.0
H13 H 0.96806 0.75416 0.22673 0.0
H14 H 0.96559 0.85698 0.38399 0.0
H15 H 0.97721 0.69335 0.33159 0.0
C16 C 1.00368 0.69616 0.29678 0.0
C17 C 0.02274 0.78738 0.43381 0.0
C18 C 1.00629 0.82205 0.44752 0.0
C19 C 1.00756 0.76149 0.3567 0.0
C20 C 0.97775 0.77197 0.29159 0.0
C21 C 0.96636 0.80783 0.29002 0.0
C22 C 0.97658 0.83012 0.37889 0.0
N23 N 0.02456 0.72766 0.33006 0.0
H24 H 0.77844 0.0404 0.43 0.0
H25 H 0.80662 0.95918 0.19462 0.0
H26 H 0.70498 0.95363 0.34992 0.0
H27 H 0.86672 0.97484 0.28254 0.0
C28 C 0.86249 1.00087 0.24385 0.0
C29 C 0.77226 0.01554 0.38685 0.0
C30 C 0.73902 0.99632 0.40861 0.0
C31 C 0.79781 1.00145 0.30992 0.0
C32 C 0.78853 0.96946 0.25472 0.0
C33 C 0.75398 0.95426 0.2599 0.0
C34 C 0.73126 0.966 0.34294 0.0
N35 N 0.83047 0.02018 0.27645 0.0
H36 H 0.56591 0.77553 0.4164 0.0
H37 H 0.4711 0.81262 0.23957 0.0
H38 H 0.46788 0.71357 0.42094 0.0
H39 H 0.52162 0.81248 0.10477 0.0
C40 C 0.53337 0.83455 0.15277 0.0
C41 C 0.5377 0.77238 0.39348 0.0
C42 C 0.51759 0.74234 0.43475 0.0
C43 C 0.52088 0.79782 0.31989 0.0
C44 C 0.4842 0.79292 0.29194 0.0
C45 C 0.46502 0.76212 0.32352 0.0
C46 C 0.48178 0.73796 0.39735 0.0
N47 N 0.54011 0.82702 0.26762 0.0
H48 H 0.2762 0.5086 0.1239 0.0
H49 H 0.30583 0.59541 0.34496 0.0
H50 H 0.20809 0.6012 0.15071 0.0
H51 H 0.3653 0.5777 0.25807 0.0
C52 C 0.3615 0.5518 0.29732 0.0
C53 C 0.27115 0.53502 0.15736 0.0
C54 C 0.23954 0.55412 0.12298 0.0
C55 C 0.29645 0.55077 0.23446 0.0
C56 C 0.28834 0.58429 0.28068 0.0
C57 C 0.25643 0.60222 0.25223 0.0
C58 C 0.23325 0.58772 0.17061 0.0
N59 N 0.32851 0.53243 0.27251 0.0
H60 H 0.07101 0.26915 0.14049 0.0
H61 H 0.9799 0.30821 0.31559 0.0
H62 H 0.96918 0.21289 0.11824 0.0
H63 H 0.01744 0.3679 0.22731 0.0
C64 C 0.03446 0.35838 0.29461 0.0
C65 C 0.04283 0.26719 0.15993 0.0
C66 C 0.02098 0.23854 0.11307 0.0
C67 C 0.02746 0.29373 0.23066 0.0
C68 C 0.99122 0.28976 0.25731 0.0
C69 C 0.97059 0.26016 0.22057 0.0
C70 C 0.98509 0.23604 0.14523 0.0
N71 N 0.04819 0.3222 0.2847 0.0
H72 H 0.29687 0.06436 0.11283 0.0
H73 H 0.25788 0.97108 0.28648 0.0
H74 H 0.3515 0.96273 0.09188 0.0
H75 H 0.1998 1.00128 0.22824 0.0
C76 C 0.20877 0.02346 0.28068 0.0
C77 C 0.29859 0.03601 0.13247 0.0
C78 C 0.32699 0.01466 0.08631 0.0
C79 C 0.27201 0.01987 0.2029 0.0
C80 C 0.27595 0.98332 0.22908 0.0
C81 C 0.30488 0.9631 0.19228 0.0
C82 C 0.32887 0.97845 0.11834 0.0
N83 N 0.24347 0.03978 0.25577 0.0
H84 H 0.50728 0.29568 0.12309 0.0
H85 H 0.5996 0.25797 0.31131 0.0
H86 H 0.6059 0.35679 0.12969 0.0
H87 H 0.57051 0.20048 0.23365 0.0
C88 C 0.54795 0.20729 0.28416 0.0
C89 C 0.53521 0.29869 0.14949 0.0
C90 C 0.55595 0.32867 0.111 0.0
C91 C 0.55137 0.27215 0.22075 0.0
C92 C 0.5875 0.27722 0.25528 0.0
C93 C 0.60721 0.308 0.22602 0.0
C94 C 0.59143 0.33252 0.15146 0.0
N95 N 0.53147 0.24197 0.26493 0.0
Eu96 Eu 1.00744 0.04712 0.67065 0.0
Eu97 Eu 0.06364 0.01945 0.85398 0.0
C98 C 0.04117 0.10536 0.85584 0.0
C99 C 0.93242 0.09302 0.49618 0.0
C100 C 0.92066 0.09767 0.38766 0.0
C101 C 0.90475 0.14947 0.54428 0.0
C102 C 0.90396 0.12956 0.35571 0.0
C103 C 0.92223 0.11774 0.5759 0.0
C104 C 0.89906 0.15748 0.43227 0.0
C105 C 0.96091 0.0669 0.51866 0.0
O106 O 1.00935 1.01164 0.93771 0.0
O107 O 0.9706 0.04015 0.81875 0.0
C108 C 0.97692 0.0244 0.91416 0.0
O109 O 1.01542 0.98818 0.6216 0.0
O110 O 0.08247 0.01646 0.02479 0.0
O111 O 0.11118 0.98806 0.90111 0.0
O112 O 0.04435 0.96615 0.77398 0.0
C113 C 0.02893 0.9608 0.67685 0.0
O114 O 0.06082 0.04524 0.57785 0.0
O115 O 0.10217 0.0344 0.71601 0.0
O116 O 0.06178 0.07953 0.89648 0.0
O117 O 0.99331 0.08053 0.53074 0.0
O118 O 0.95458 0.04125 0.58853 0.0
O119 O 0.01951 0.09907 0.76963 0.0
C120 C 0.08866 0.9542 0.0472 0.0
C121 C 0.06723 0.95497 0.13986 0.0
C122 C 0.05766 0.8994 0.9871 0.0
C123 C 0.03959 0.9297 0.15154 0.0
C124 C 0.08549 0.92438 0.9762 0.0
C125 C 0.03309 0.9029 0.0715 0.0
C126 C 0.10233 0.98863 1.00362 0.0
C127 C 0.09471 0.04073 0.61145 0.0
H128 H 0.92784 0.07841 0.3254 0.0
H129 H 0.89962 0.16937 0.60655 0.0
H130 H 0.89953 0.13371 0.26885 0.0
H131 H 0.93058 0.1141 0.66079 0.0
H132 H 0.06932 0.97724 0.19715 0.0
H133 H 0.05443 0.87864 0.92544 0.0
H134 H 0.02257 0.93207 0.2215 0.0
H135 H 0.10191 0.9224 0.90473 0.0
Eu136 Eu 0.54766 0.05301 0.82791 0.0
Eu137 Eu 0.5177 1.00096 0.6469 0.0
C138 C 0.53646 0.96716 0.8814 0.0
C139 C 0.61762 0.06598 0.01629 0.0
C140 C 0.64224 0.05774 0.93461 0.0
C141 C 0.64019 0.01521 0.12173 0.0
C142 C 0.66315 0.02686 0.942 0.0
C143 C 0.61845 0.04562 0.11287 0.0
C144 C 0.66142 1.00442 0.03393 0.0
C145 C 0.58386 0.0841 0.98306 0.0
O146 O 0.46558 1.01328 0.74184 0.0
O147 O 0.48808 0.05181 0.87444 0.0
C148 C 0.46071 0.03316 0.83095 0.0
O149 O 0.52545 0.09392 0.70396 0.0
O150 O 0.52235 0.94949 0.56288 0.0
O151 O 0.48481 0.98958 0.50035 0.0
O152 O 0.52718 0.05502 0.56017 0.0
C153 C 0.52545 0.08836 0.59745 0.0
O154 O 0.59514 0.04826 0.70981 0.0
O155 O 0.57935 0.994 0.63929 0.0
O156 O 0.51327 0.96691 0.79867 0.0
O157 O 0.58273 0.09749 0.8844 0.0
O158 O 0.55501 0.06516 1.00221 0.0
O159 O 0.55842 0.99518 0.89342 0.0
C160 C 0.47077 0.92878 0.4643 0.0
C161 C 0.46534 0.91831 0.35535 0.0
C162 C 0.41684 0.89608 0.51241 0.0
C163 C 0.43419 0.89947 0.32345 0.0
C164 C 0.44784 0.91555 0.54407 0.0
C165 C 0.40771 0.89131 0.40042 0.0
C166 C 0.49739 0.95703 0.48956 0.0
C167 C 0.60378 0.01974 0.65255 0.0
H168 H 0.64291 0.07308 0.85945 0.0
H169 H 0.63963 0.99976 0.19671 0.0
H170 H 0.67951 0.01999 0.87337 0.0
H171 H 0.59986 0.05124 0.17727 0.0
H172 H 0.48346 0.92756 0.2932 0.0
H173 H 0.39816 0.8885 0.57482 0.0
H174 H 0.42922 0.89578 0.23656 0.0
H175 H 0.45237 0.92261 0.6294 0.0
Eu176 Eu 0.51027 0.54801 0.86202 0.0
Eu177 Eu 0.56688 0.52276 0.68097 0.0
C178 C 0.59622 0.54421 0.92628 0.0
C179 C 0.43948 0.6036 1.00063 0.0
C180 C 0.45023 0.63615 0.95378 0.0
C181 C 0.3901 0.63419 0.08565 0.0
C182 C 0.43287 0.66793 0.97991 0.0
C183 C 0.40787 0.6023 0.06 0.0
C184 C 0.40438 0.6678 0.05401 0.0
C185 C 0.46323 0.57225 0.99772 0.0
O186 O 0.55551 0.47073 0.77949 0.0
O187 O 0.51515 0.48882 0.90686 0.0
C188 C 0.5351 0.46358 0.86424 0.0
O189 O 0.47386 0.53111 0.71716 0.0
O190 O 0.62212 0.52307 0.62326 0.0
O191 O 0.58073 0.4919 0.53728 0.0
O192 O 0.5146 0.52921 0.58047 0.0
C193 C 0.48107 0.52943 0.61265 0.0
O194 O 0.52268 0.60035 0.76637 0.0
O195 O 0.55941 0.58128 0.63033 0.0
O196 O 0.60174 0.54497 0.82074 0.0
O197 O 0.45553 0.54797 0.92363 0.0
O198 O 0.49769 0.57936 1.00576 0.0
O199 O 0.56321 0.54105 0.96198 0.0
C200 C 0.6391 0.46833 0.54266 0.0
C201 C 0.63059 0.4369 0.59939 0.0
C202 C 0.68526 0.43604 0.44764 0.0
C203 C 0.64706 0.40459 0.57344 0.0
C204 C 0.66816 0.46837 0.47237 0.0
C205 C 0.67241 0.40303 0.48948 0.0
C206 C 0.61507 0.49941 0.54683 0.0
C207 C 0.54109 0.607 0.67708 0.0
H208 H 0.47396 0.63752 0.90453 0.0
H209 H 0.36715 0.63265 0.13794 0.0
H210 H 0.44485 0.69268 0.95118 0.0
H211 H 0.39836 0.57694 0.09234 0.0
H212 H 0.60894 0.43664 0.6568 0.0
H213 H 0.7063 0.43683 0.38845 0.0
H214 H 0.63649 0.38068 0.61161 0.0
H215 H 0.67603 0.49285 0.43102 0.0
Eu216 Eu 0.04067 0.55734 0.71153 0.0
Eu217 Eu 0.02016 0.49662 0.8899 0.0
C218 C 0.10399 0.52703 0.88145 0.0
C219 C 0.08377 0.63269 0.54457 0.0
C220 C 0.11017 0.64126 0.6249 0.0
C221 C 0.12125 0.65832 0.40592 0.0
C222 C 0.14288 0.65668 0.59463 0.0
C223 C 0.08851 0.64347 0.43653 0.0
C224 C 0.14994 0.66244 0.48329 0.0
C225 C 0.05503 0.60672 0.5664 0.0
O226 O 1.00983 0.55075 0.97531 0.0
O227 O 0.04285 0.58931 0.87217 0.0
C228 C 0.02536 0.58257 0.96209 0.0
O229 O 0.97931 0.55311 0.69297 0.0
O230 O 0.99587 0.48304 0.04438 0.0
O231 O 0.02208 0.44151 0.95304 0.0
O232 O 0.96795 0.50113 0.78717 0.0
C233 C 0.95715 0.52688 0.71989 0.0
O234 O 0.04004 0.50464 0.6115 0.0
O235 O 0.03483 0.46153 0.74409 0.0
O236 O 0.07931 0.50821 0.93221 0.0
O237 O 0.06431 0.57308 0.55822 0.0
O238 O 0.03535 0.61254 0.65101 0.0
O239 O 0.0958 0.54541 0.79168 0.0
C240 C 0.97175 0.42509 0.05687 0.0
C241 C 0.94701 0.41538 0.97274 0.0
C242 C 0.93077 0.40245 0.19087 0.0
C243 C 0.91336 0.40093 0.99845 0.0
C244 C 0.96396 0.41716 0.16516 0.0
C245 C 0.90403 0.39654 0.10856 0.0
C246 C 1.00252 0.44882 0.03662 0.0
C247 C 0.0392 0.47037 0.64099 0.0
H248 H 0.10674 0.63332 0.70922 0.0
H249 H 0.12509 0.66233 0.3194 0.0
H250 H 0.16382 0.66064 0.65706 0.0
H251 H 0.06827 0.63708 0.37369 0.0
H252 H 0.95255 0.42153 0.88827 0.0
H253 H 0.92486 0.40002 0.27672 0.0
H254 H 0.89356 0.39636 0.933 0.0
H255 H 0.98227 0.42524 0.23115 0.0
C256 C 0.14406 0.03303 0.33616 0.0
C257 C 0.18121 0.03513 0.36514 0.0
H258 H 0.08894 0.03388 0.38606 0.0
C259 C 0.1897 0.04085 0.47748 0.0
H260 H 0.13591 0.0277 0.25184 0.0
C261 C 0.16217 0.04335 0.55679 0.0
C262 C 0.12492 0.04084 0.52718 0.0
H263 H 0.21765 0.04148 0.50519 0.0
H264 H 0.17021 0.04657 0.64207 0.0
C265 C 0.11676 0.03636 0.41431 0.0
C266 C 0.52461 0.18463 0.46969 0.0
C267 C 0.53598 0.17798 0.36234 0.0
H268 H 0.51287 0.16229 0.62845 0.0
C269 C 0.54182 0.14177 0.33343 0.0
H270 H 0.52061 0.21207 0.49648 0.0
C271 C 0.53701 0.11331 0.40799 0.0
C272 C 0.52699 0.11964 0.51669 0.0
H273 H 0.55111 0.13536 0.25257 0.0
H274 H 0.54253 0.08619 0.38085 0.0
C275 C 0.52051 0.15593 0.54594 0.0
C276 C 0.42744 0.54883 0.34706 0.0
C277 C 0.3918 0.53953 0.37259 0.0
H278 H 0.48304 0.55212 0.39958 0.0
C279 C 0.38595 0.52451 0.47631 0.0
H280 H 0.43297 0.56104 0.26887 0.0
C281 C 0.41483 0.52042 0.5536 0.0
C282 C 0.45048 0.5304 0.52832 0.0
H283 H 0.35884 0.51782 0.49996 0.0
H284 H 0.4091 0.51008 0.63406 0.0
C285 C 0.45629 0.54381 0.42258 0.0
C286 C 0.04487 0.42232 0.36102 0.0
C287 C 0.04236 0.38531 0.38663 0.0
H288 H 0.04603 0.47726 0.41717 0.0
C289 C 0.04106 0.37633 0.49855 0.0
H290 H 0.04587 0.43058 0.27623 0.0
C291 C 0.04086 0.40354 0.58085 0.0
C292 C 0.04208 0.44076 0.55443 0.0
H293 H 0.03835 0.34838 0.52232 0.0
H294 H 0.03875 0.39533 0.66534 0.0
C295 C 0.04484 0.44936 0.44261 0.0
C296 C 0.92536 0.99437 0.17105 0.0
C297 C 0.89158 1.01169 0.16241 0.0
H298 H 0.97743 0.98467 0.105 0.0
C299 C 0.8862 0.03424 0.0702 0.0
H300 H 0.93094 0.97644 0.23918 0.0
C301 C 0.91331 0.03845 0.98984 0.0
C302 C 0.94705 0.02061 0.99881 0.0
H303 H 0.86067 0.0477 0.05798 0.0
H304 H 0.90768 0.05563 0.92007 0.0
C305 C 0.95234 0.99893 0.09259 0.0
C306 C 0.5174 0.87214 0.98941 0.0
C307 C 0.53541 0.87038 0.0923 0.0
H308 H 0.50357 0.90232 0.84608 0.0
C309 C 0.55473 0.90155 0.12735 0.0
H310 H 0.50222 0.84905 0.95841 0.0
C311 C 0.55597 0.93305 0.05999 0.0
C312 C 0.53752 0.93436 0.95665 0.0
H313 H 0.5692 0.9015 0.2055 0.0
H314 H 0.57112 0.95637 0.08914 0.0
C315 C 0.51822 0.90314 0.92397 0.0
C316 C 0.6595 0.53855 0.18469 0.0
C317 C 0.69358 0.54449 0.13943 0.0
H318 H 0.60191 0.53378 0.1543 0.0
C319 C 0.69447 0.55211 0.02683 0.0
H320 H 0.65758 0.53238 0.2708 0.0
C321 C 0.66301 0.55293 0.96071 0.0
C322 C 0.62887 0.54608 1.00368 0.0
H323 H 0.72 0.55682 0.98844 0.0
H324 H 0.66577 0.55839 0.87437 0.0
C325 C 0.62752 0.53933 0.11755 0.0
C326 C 0.03817 0.67149 0.13066 0.0
C327 C 1.0136 0.66687 0.21556 0.0
H328 H 0.06091 0.6494 0.98429 0.0
C329 C 0.99426 0.63395 0.21705 0.0
H330 H 0.05333 0.69642 0.12503 0.0
C331 C 0.99866 0.60694 0.13724 0.0
C332 C 0.02226 0.61164 0.05013 0.0
H333 H 0.97492 0.62916 0.28015 0.0
H334 H 0.98275 0.58247 0.14284 0.0
C335 C 0.04225 0.64443 0.04903 0.0
C336 C 0.90994 0.22992 0.22735 0.0
C337 C 0.93835 0.24868 0.28104 0.0
H338 H 0.87149 0.18702 0.23787 0.0
C339 C 0.94125 0.24686 0.39564 0.0
H340 H 0.90597 0.23201 0.13948 0.0
C341 C 0.92221 0.22057 0.45156 0.0
C342 C 0.90011 0.19566 0.39331 0.0
H343 H 0.96218 0.2616 0.4406 0.0
H344 H 0.92967 0.2166 0.53681 0.0
C345 C 0.89037 0.20394 0.28394 0.0
C346 C 0.31789 0.93043 0.3656 0.0
C347 C 0.31574 0.92966 0.25077 0.0
H348 H 0.34864 0.91669 0.50733 0.0
C349 C 0.33386 0.90219 0.19614 0.0
H350 H 0.30351 0.95041 0.41139 0.0
C351 C 0.36003 0.882 0.25257 0.0
C352 C 0.36907 0.89037 0.3625 0.0
H353 H 0.33136 0.89967 0.10798 0.0
H354 H 0.3768 0.86426 0.20604 0.0
C355 C 0.34426 0.91067 0.4214 0.0
C356 C 0.6441 0.31201 0.40167 0.0
C357 C 0.64081 0.31894 0.28864 0.0
H358 H 0.66252 0.33159 0.5574 0.0
C359 C 0.66452 0.34447 0.24461 0.0
H360 H 0.62832 0.29123 0.44007 0.0
C361 C 0.68182 0.36966 0.31331 0.0
C362 C 0.67664 0.36848 0.42711 0.0
H363 H 0.66559 0.34844 0.15704 0.0
H364 H 0.69457 0.39238 0.27466 0.0
C365 C 0.66328 0.33597 0.47006 0.0
C366 C 0.22245 0.65937 0.27933 0.0
C367 C 0.24238 0.63068 0.32409 0.0
H368 H 0.17798 0.6947 0.29948 0.0
C369 C 0.23981 0.6232 0.43603 0.0
H370 H 0.22472 0.6664 0.19384 0.0
C371 C 0.21257 0.63869 0.49578 0.0
C372 C 0.18763 0.66201 0.44431 0.0
H373 H 0.25515 0.60157 0.47354 0.0
H374 H 0.20826 0.62808 0.57675 0.0
C375 C 0.1955 0.67535 0.33982 0.0
C376 C 0.94862 0.86168 0.17991 0.0
C377 C 0.96017 0.82567 0.18146 0.0
H378 H 0.96508 0.91597 0.14847 0.0
C379 C 0.98348 0.81526 0.09832 0.0
H380 H 0.9278 0.87039 0.23393 0.0
C381 C 1.00588 0.84105 0.05257 0.0
C382 C 1.00224 0.87745 0.08114 0.0
H383 H 0.99057 0.78735 0.08638 0.0
H384 H 0.02849 0.83165 1.00706 0.0
C385 C 0.97065 0.88787 0.13332 0.0
C386 C 0.70204 0.92337 0.1658 0.0
C387 C 0.73769 0.93621 0.15979 0.0
H388 H 0.64721 0.93917 0.1359 0.0
C389 C 0.74633 0.95264 0.05995 0.0
H390 H 0.6946 0.90547 0.23141 0.0
C391 C 0.71992 0.9731 1.00658 0.0
C392 C 0.68456 0.97212 0.04459 0.0
H393 H 0.77398 0.95789 0.03915 0.0
H394 H 0.7285 0.99288 0.94772 0.0
C395 C 0.67488 0.94326 0.11279 0.0
C396 C 0.42695 0.75892 0.14977 0.0
C397 C 0.43131 0.75066 0.26192 0.0
H398 H 0.40974 0.73973 0.99212 0.0
C399 C 0.40916 0.72332 0.30383 0.0
H400 H 0.44136 0.78096 0.11279 0.0
C401 C 0.39308 0.69804 0.23276 0.0
C402 C 0.39771 0.7011 0.11917 0.0
H403 H 0.40863 0.71814 0.39088 0.0
H404 H 0.38218 0.67382 0.26857 0.0
C405 C 0.40899 0.73474 0.07925 0.0
C406 C 0.81666 0.43951 0.14926 0.0
C407 C 0.81325 0.43165 0.26079 0.0
H408 H 0.8485 0.43303 1.00935 0.0
C409 C 0.83041 0.40102 0.30397 0.0
H410 H 0.80327 0.46257 0.11282 0.0
C411 C 0.85619 0.38335 0.24319 0.0
C412 C 0.86573 0.39709 0.14065 0.0
H413 H 0.82732 0.39368 0.38891 0.0
H414 H 0.87237 0.36278 0.28308 0.0
C415 C 0.84276 0.42225 0.08925 0.0
C416 C 1.01377 0.20213 0.93684 0.0
C417 C 0.03334 0.20883 0.03604 0.0
H418 H 1.00076 0.16584 0.80363 0.0
C419 C 0.05789 0.18199 0.07034 0.0
H420 H 0.99398 0.22146 0.90809 0.0
C421 C 0.06155 0.14938 0.01024 0.0
C422 C 0.04076 0.14212 0.91331 0.0
H423 H 0.07275 0.18521 0.14729 0.0
H424 H 0.07977 0.12915 0.04255 0.0
C425 C 0.01745 0.16975 0.87685 0.0
C426 C 0.38598 0.04965 0.04582 0.0
C427 C 0.35703 0.0272 1.00963 0.0
H428 H 0.44011 0.06932 0.02073 0.0
C429 C 0.36215 1.00878 0.90946 0.0
H430 H 0.38438 0.06339 0.12363 0.0
C431 C 0.39453 1.01176 0.85034 0.0
C432 C 0.42404 0.03314 0.88828 0.0
H433 H 0.34145 0.99031 0.87904 0.0
H434 H 0.39687 0.99601 0.77635 0.0
C435 C 0.41854 0.05261 0.9866 0.0
C436 C 0.56178 0.36569 0.93758 0.0
C437 C 0.54283 0.35844 0.03403 0.0
H438 H 0.57442 0.40311 0.8095 0.0
C439 C 0.51907 0.38529 0.06861 0.0
H440 H 0.58112 0.34635 0.90937 0.0
C441 C 0.51554 0.41848 0.01156 0.0
C442 C 0.53579 0.42634 0.91779 0.0
H443 H 0.50487 0.38162 0.1439 0.0
H444 H 0.49789 0.43865 0.04405 0.0
C445 C 0.55826 0.39872 0.88057 0.0
C446 C 0.20079 0.5596 0.9503 0.0
C447 C 0.21018 0.53995 0.04564 0.0
H448 H 0.161 0.57096 0.82386 0.0
C449 C 0.18551 0.51362 0.08016 0.0
H450 H 0.21853 0.58082 0.92276 0.0
C451 C 0.15193 0.50836 0.02441 0.0
C452 C 0.14179 0.52925 0.93195 0.0
H453 H 0.1911 0.49875 0.15481 0.0
H454 H 0.13325 0.48884 0.05687 0.0
C455 C 0.16741 0.55418 0.89404 0.0
C456 C 0.01633 0.85746 0.6284 0.0
C457 C 0.02125 0.85398 0.51457 0.0
H458 H 1.01493 0.89304 0.7689 0.0
C459 C 0.03107 0.88575 0.4585 0.0
H460 H 1.0075 0.83433 0.67464 0.0
C461 C 0.03392 0.91957 0.51148 0.0
C462 C 0.02799 0.92341 0.62423 0.0
H463 H 0.0343 0.8848 0.3708 0.0
H464 H 0.0402 0.94308 0.46299 0.0
C465 C 0.02018 0.89145 0.6825 0.0
C466 C 0.69191 0.97797 0.54819 0.0
C467 C 0.70926 1.00607 0.49016 0.0
H468 H 0.64638 0.95957 0.63903 0.0
C469 C 0.69254 0.04019 0.49542 0.0
H470 H 0.70328 0.9512 0.54839 0.0
C471 C 0.65954 0.0452 0.55164 0.0
C472 C 0.64122 0.01617 0.60241 0.0
H473 H 0.70389 0.06267 0.45149 0.0
H474 H 0.64739 0.0716 0.55046 0.0
C475 C 0.6587 0.98266 0.60055 0.0
C476 C 0.55428 0.68521 0.47032 0.0
C477 C 0.53186 0.71252 0.50967 0.0
H478 H 0.57484 0.63141 0.49025 0.0
C479 C 0.51477 0.70549 0.60948 0.0
H480 H 0.56692 0.68867 0.39232 0.0
C481 C 0.51884 0.67231 0.6655 0.0
C482 C 0.53995 0.6443 0.6238 0.0
H483 H 0.49638 0.72512 0.64136 0.0
H484 H 0.5041 0.66814 0.73953 0.0
C485 C 0.55832 0.65188 0.5263 0.0
C486 C 0.874 0.54623 0.53092 0.0
C487 C 0.85092 0.51687 0.55212 0.0
H488 H 0.92505 0.57253 0.56563 0.0
C489 C 0.86193 0.49295 0.63622 0.0
H490 H 0.86716 0.56473 0.46528 0.0
C491 C 0.89533 0.49708 0.69315 0.0
C492 C 0.9194 0.52528 0.66819 0.0
H493 H 0.84537 0.46965 0.65409 0.0
H494 H 0.90288 0.47714 0.75402 0.0
C495 C 0.90761 0.55038 0.58797 0.0
loop_
_geom_bond_atom_site_label_1
_geom_bond_atom_site_label_2
_geom_bond_distance
_geom_bond_site_symmetry_2
_ccdc_geom_bond_type
H0 C5 0.930 . S
H1 C8 0.930 . S
H2 C10 0.930 . S
H3 C4 1.016 . S
C4 H3 1.016 . S
C4 N11 1.286 . S
C5 H0 0.930 . S
C5 C6 1.397 . S
C5 C7 1.361 . S
C6 C5 1.397 . S
C6 C10 1.390 . S
C7 C5 1.361 . S
C7 C8 1.393 . S
C7 N11 1.413 . S
C8 H1 0.930 . S
C8 C7 1.393 . S
C8 C9 1.399 . S
C9 C8 1.399 . S
C9 C10 1.381 . S
C10 H2 0.930 . S
C10 C6 1.390 . S
C10 C9 1.381 . S
N11 C4 1.286 . S
N11 C7 1.413 . S
H12 C17 0.930 . S
H13 C20 0.930 . S
H14 C22 0.930 . S
H15 C16 1.016 . S
C16 H15 1.016 . S
C16 N23 1.286 . S
C17 H12 0.930 . S
C17 C18 1.397 . S
C17 C19 1.361 . S
C18 C17 1.397 . S
C18 C22 1.390 . S
C19 C17 1.361 . S
C19 C20 1.393 . S
C19 N23 1.413 . S
C20 H13 0.930 . S
C20 C19 1.393 . S
C20 C21 1.399 . S
C21 C20 1.399 . S
C21 C22 1.381 . S
C22 H14 0.930 . S
C22 C18 1.390 . S
C22 C21 1.381 . S
N23 C16 1.286 . S
N23 C19 1.413 . S
H24 C29 0.930 . S
H25 C32 0.930 . S
H26 C34 0.930 . S
H27 C28 1.016 . S
C28 H27 1.016 . S
C28 N35 1.285 1_565 S
C29 H24 0.930 . S
C29 C30 1.397 . S
C29 C31 1.361 . S
C30 C29 1.397 . S
C30 C34 1.390 . S
C31 C29 1.361 . S
C31 C32 1.393 . S
C31 N35 1.413 1_565 S
C32 H25 0.930 . S
C32 C31 1.393 . S
C32 C33 1.399 . S
C33 C32 1.399 . S
C33 C34 1.381 . S
C34 H26 0.930 . S
C34 C30 1.390 . S
C34 C33 1.381 . S
N35 C28 1.285 1_545 S
N35 C31 1.413 1_545 S
H36 C41 0.930 . S
H37 C44 0.930 . S
H38 C46 0.930 . S
H39 C40 1.016 . S
C40 H39 1.016 . S
C40 N47 1.286 . S
C41 H36 0.930 . S
C41 C42 1.397 . S
C41 C43 1.361 . S
C42 C41 1.397 . S
C42 C46 1.390 . S
C43 C41 1.361 . S
C43 C44 1.393 . S
C43 N47 1.413 . S
C44 H37 0.930 . S
C44 C43 1.393 . S
C44 C45 1.399 . S
C45 C44 1.399 . S
C45 C46 1.381 . S
C46 H38 0.930 . S
C46 C42 1.390 . S
C46 C45 1.381 . S
N47 C40 1.286 . S
N47 C43 1.413 . S
H48 C53 0.930 . S
H49 C56 0.930 . S
H50 C58 0.930 . S
H51 C52 1.016 . S
C52 H51 1.016 . S
C52 N59 1.286 . S
C53 H48 0.930 . S
C53 C54 1.397 . S
C53 C55 1.361 1_556 S
C54 C53 1.397 . S
C54 C58 1.390 1_556 S
C55 C53 1.361 1_554 S
C55 C56 1.393 . S
C55 N59 1.413 . S
C56 H49 0.930 . S
C56 C55 1.393 . S
C56 C57 1.399 . S
C57 C56 1.399 . S
C57 C58 1.381 . S
C58 H50 0.930 . S
C58 C54 1.390 1_554 S
C58 C57 1.381 . S
N59 C52 1.286 . S
N59 C55 1.413 . S
H60 C65 0.930 . S
H61 C68 0.930 . S
H62 C70 0.930 . S
H63 C64 1.016 . S
C64 H63 1.016 . S
C64 N71 1.286 . S
C65 H60 0.930 . S
C65 C66 1.397 . S
C65 C67 1.361 1_556 S
C66 C65 1.397 . S
C66 C70 1.390 1_556 S
C67 C65 1.361 1_554 S
C67 C68 1.393 . S
C67 N71 1.413 . S
C68 H61 0.930 . S
C68 C67 1.393 . S
C68 C69 1.399 . S
C69 C68 1.399 . S
C69 C70 1.381 . S
C70 H62 0.930 . S
C70 C66 1.390 1_554 S
C70 C69 1.381 . S
N71 C64 1.286 . S
N71 C67 1.413 . S
H72 C77 0.930 . S
H73 C80 0.930 . S
H74 C82 0.930 . S
H75 C76 1.016 . S
C76 H75 1.016 . S
C76 N83 1.286 . S
C77 H72 0.930 . S
C77 C78 1.397 . S
C77 C79 1.361 1_556 S
C78 C77 1.397 . S
C78 C82 1.390 . S
C79 C77 1.361 1_554 S
C79 C80 1.393 . S
C79 N83 1.413 . S
C80 H73 0.930 . S
C80 C79 1.393 . S
C80 C81 1.399 . S
C81 C80 1.399 . S
C81 C82 1.381 1_554 S
C82 H74 0.930 . S
C82 C78 1.390 . S
C82 C81 1.381 1_556 S
N83 C76 1.286 . S
N83 C79 1.413 . S
H84 C89 0.930 . S
H85 C92 0.930 . S
H86 C94 0.930 . S
H87 C88 1.016 . S
C88 H87 1.016 . S
C88 N95 1.286 . S
C89 H84 0.930 . S
C89 C90 1.397 . S
C89 C91 1.361 1_556 S
C90 C89 1.397 . S
C90 C94 1.390 1_556 S
C91 C89 1.361 1_554 S
C91 C92 1.393 . S
C91 N95 1.413 . S
C92 H85 0.930 . S
C92 C91 1.393 . S
C92 C93 1.399 . S
C93 C92 1.399 . S
C93 C94 1.381 . S
C94 H86 0.930 . S
C94 C90 1.390 1_554 S
C94 C93 1.381 . S
N95 C88 1.286 . S
N95 C91 1.413 . S
Eu96 C105 2.828 . S
Eu96 O107 2.392 . S
Eu96 O109 2.418 1_545 S
Eu96 O114 2.373 1_655 S
Eu96 O117 2.488 . S
Eu96 O118 2.471 . S
Eu96 O119 2.349 1_655 S
Eu97 O106 2.373 1_455 S
Eu97 O110 2.488 1_556 S
Eu97 O111 2.471 . S
Eu97 O112 2.349 . S
Eu97 O115 2.392 1_565 S
Eu97 O116 2.418 1_565 S
Eu97 C126 2.828 1_556 S
C98 O116 1.244 . S
C98 O119 1.265 . S
C99 C100 1.379 1_655 S
C99 C103 1.373 . S
C99 C105 1.505 . S
C100 C99 1.379 1_455 S
C100 C102 1.369 . S
C100 H128 0.930 . S
C101 C103 1.383 . S
C101 C104 1.382 . S
C101 H129 0.930 . S
C102 C100 1.369 . S
C102 C104 1.392 1_455 S
C102 H130 0.930 . S
C103 C99 1.373 . S
C103 C101 1.383 . S
C103 H131 0.931 . S
C104 C101 1.382 . S
C104 C102 1.392 1_655 S
C105 Eu96 2.828 . S
C105 C99 1.505 . S
C105 O117 1.249 . S
C105 O118 1.244 . S
O106 Eu97 2.373 1_655 S
O106 C108 1.258 1_565 S
O107 Eu96 2.392 . S
O107 C108 1.241 . S
C108 O106 1.258 1_545 S
C108 O107 1.241 . S
O109 Eu96 2.418 1_565 S
O109 C113 1.244 . S
O110 Eu97 2.488 1_554 S
O110 C126 1.249 . S
O111 Eu97 2.471 . S
O111 C126 1.244 1_556 S
O112 Eu97 2.349 . S
O112 C113 1.265 1_455 S
C113 O109 1.244 . S
C113 O112 1.265 1_655 S
O114 Eu96 2.373 1_455 S
O114 C127 1.258 . S
O115 Eu97 2.392 1_545 S
O115 C127 1.242 . S
O116 Eu97 2.418 1_545 S
O116 C98 1.244 . S
O117 Eu96 2.488 . S
O117 C105 1.249 . S
O118 Eu96 2.471 . S
O118 C105 1.244 . S
O119 Eu96 2.349 1_455 S
O119 C98 1.265 . S
C120 C121 1.379 . S
C120 C124 1.373 . S
C120 C126 1.505 . S
C121 C120 1.379 . S
C121 C123 1.369 . S
C121 H132 0.931 . S
C122 C124 1.383 . S
C122 C125 1.382 . S
C122 H133 0.930 . S
C123 C121 1.369 . S
C123 C125 1.392 . S
C123 H134 0.930 1_455 S
C124 C120 1.373 . S
C124 C122 1.383 . S
C124 H135 0.931 . S
C125 C122 1.382 . S
C125 C123 1.392 . S
C126 Eu97 2.828 1_554 S
C126 O110 1.249 . S
C126 O111 1.244 1_554 S
C126 C120 1.505 . S
C127 O114 1.258 . S
C127 O115 1.242 . S
H128 C100 0.930 . S
H129 C101 0.930 . S
H130 C102 0.930 . S
H131 C103 0.931 . S
H132 C121 0.931 . S
H133 C122 0.930 . S
H134 C123 0.930 1_655 S
H135 C124 0.931 . S
Eu136 C145 2.828 . S
Eu136 O147 2.392 . S
Eu136 O149 2.418 . S
Eu136 O154 2.373 . S
Eu136 O157 2.488 . S
Eu136 O158 2.471 1_556 S
Eu136 O159 2.349 1_545 S
Eu137 O146 2.373 1_565 S
Eu137 O150 2.488 . S
Eu137 O151 2.471 1_565 S
Eu137 O152 2.349 1_565 S
Eu137 O155 2.392 . S
Eu137 O156 2.418 . S
Eu137 C166 2.828 . S
C138 O156 1.244 . S
C138 O159 1.265 . S
C139 C140 1.379 . S
C139 C143 1.373 . S
C139 C145 1.505 1_554 S
C140 C139 1.379 . S
C140 C142 1.369 . S
C140 H168 0.930 1_545 S
C141 C143 1.383 . S
C141 C144 1.382 . S
C141 H169 0.930 . S
C142 C140 1.369 . S
C142 C144 1.392 . S
C142 H170 0.930 1_545 S
C143 C139 1.373 . S
C143 C141 1.383 . S
C143 H171 0.931 . S
C144 C141 1.382 . S
C144 C142 1.392 . S
C145 Eu136 2.828 . S
C145 C139 1.505 1_556 S
C145 O157 1.249 . S
C145 O158 1.244 1_556 S
O146 Eu137 2.373 1_545 S
O146 C148 1.258 . S
O147 Eu136 2.392 . S
O147 C148 1.242 . S
C148 O146 1.258 . S
C148 O147 1.242 . S
O149 Eu136 2.418 . S
O149 C153 1.244 . S
O150 Eu137 2.488 . S
O150 C166 1.249 . S
O151 Eu137 2.471 1_545 S
O151 C166 1.244 1_545 S
O152 Eu137 2.349 1_545 S
O152 C153 1.265 . S
C153 O149 1.244 . S
C153 O152 1.265 . S
O154 Eu136 2.373 . S
O154 C167 1.258 1_545 S
O155 Eu137 2.392 . S
O155 C167 1.242 . S
O156 Eu137 2.418 . S
O156 C138 1.244 . S
O157 Eu136 2.488 . S
O157 C145 1.249 . S
O158 Eu136 2.471 1_554 S
O158 C145 1.244 1_554 S
O159 Eu136 2.349 1_565 S
O159 C138 1.265 . S
C160 C161 1.379 1_565 S
C160 C164 1.373 . S
C160 C166 1.505 . S
C161 C160 1.379 1_545 S
C161 C163 1.369 . S
C161 H172 0.930 . S
C162 C164 1.383 . S
C162 C165 1.382 . S
C162 H173 0.930 . S
C163 C161 1.369 . S
C163 C165 1.392 1_545 S
C163 H174 0.930 . S
C164 C160 1.373 . S
C164 C162 1.383 . S
C164 H175 0.931 . S
C165 C162 1.382 . S
C165 C163 1.392 1_565 S
C166 Eu137 2.828 . S
C166 O150 1.249 . S
C166 O151 1.244 1_565 S
C166 C160 1.505 . S
C167 O154 1.258 1_565 S
C167 O155 1.242 . S
H168 C140 0.930 1_565 S
H169 C141 0.930 . S
H170 C142 0.930 1_565 S
H171 C143 0.931 . S
H172 C161 0.930 . S
H173 C162 0.930 . S
H174 C163 0.930 . S
H175 C164 0.931 . S
Eu176 C185 2.828 . S
Eu176 O187 2.392 . S
Eu176 O189 2.418 . S
Eu176 O194 2.373 . S
Eu176 O197 2.488 . S
Eu176 O198 2.471 . S
Eu176 O199 2.349 . S
Eu177 O186 2.373 . S
Eu177 O190 2.488 . S
Eu177 O191 2.471 . S
Eu177 O192 2.349 . S
Eu177 O195 2.392 . S
Eu177 O196 2.418 . S
Eu177 C206 2.828 . S
C178 O196 1.244 . S
C178 O199 1.265 . S
C179 C180 1.379 . S
C179 C183 1.373 . S
C179 C185 1.505 1_554 S
C180 C179 1.379 . S
C180 C182 1.369 . S
C180 H208 0.930 . S
C181 C183 1.383 . S
C181 C184 1.382 . S
C181 H209 0.930 . S
C182 C180 1.369 . S
C182 C184 1.392 . S
C182 H210 0.930 . S
C183 C179 1.373 . S
C183 C181 1.383 . S
C183 H211 0.931 . S
C184 C181 1.382 . S
C184 C182 1.392 . S
C185 Eu176 2.828 . S
C185 C179 1.505 1_556 S
C185 O197 1.249 . S
C185 O198 1.244 . S
O186 Eu177 2.373 . S
O186 C188 1.258 . S
O187 Eu176 2.392 . S
O187 C188 1.242 . S
C188 O186 1.258 . S
C188 O187 1.242 . S
O189 Eu176 2.418 . S
O189 C193 1.244 . S
O190 Eu177 2.488 . S
O190 C206 1.249 . S
O191 Eu177 2.471 . S
O191 C206 1.244 . S
O192 Eu177 2.349 . S
O192 C193 1.265 . S
C193 O189 1.244 . S
C193 O192 1.265 . S
O194 Eu176 2.373 . S
O194 C207 1.258 . S
O195 Eu177 2.392 . S
O195 C207 1.242 . S
O196 Eu177 2.418 . S
O196 C178 1.244 . S
O197 Eu176 2.488 . S
O197 C185 1.249 . S
O198 Eu176 2.471 . S
O198 C185 1.244 . S
O199 Eu176 2.349 . S
O199 C178 1.265 . S
C200 C201 1.379 . S
C200 C204 1.373 . S
C200 C206 1.505 . S
C201 C200 1.379 . S
C201 C203 1.369 . S
C201 H212 0.930 . S
C202 C204 1.383 . S
C202 C205 1.382 . S
C202 H213 0.930 . S
C203 C201 1.369 . S
C203 C205 1.392 . S
C203 H214 0.930 . S
C204 C200 1.373 . S
C204 C202 1.383 . S
C204 H215 0.931 . S
C205 C202 1.382 . S
C205 C203 1.392 . S
C206 Eu177 2.828 . S
C206 O190 1.249 . S
C206 O191 1.244 . S
C206 C200 1.505 . S
C207 O194 1.258 . S
C207 O195 1.242 . S
H208 C180 0.930 . S
H209 C181 0.930 . S
H210 C182 0.930 . S
H211 C183 0.931 . S
H212 C201 0.930 . S
H213 C202 0.930 . S
H214 C203 0.930 . S
H215 C204 0.931 . S
Eu216 C225 2.828 . S
Eu216 O227 2.392 . S
Eu216 O229 2.418 1_455 S
Eu216 O234 2.373 . S
Eu216 O237 2.488 . S
Eu216 O238 2.471 . S
Eu216 O239 2.349 . S
Eu217 O226 2.373 . S
Eu217 O230 2.488 1_556 S
Eu217 O231 2.471 . S
Eu217 O232 2.349 . S
Eu217 O235 2.392 1_655 S
Eu217 O236 2.418 1_655 S
Eu217 C246 2.828 1_556 S
C218 O236 1.244 . S
C218 O239 1.265 . S
C219 C220 1.379 . S
C219 C223 1.373 . S
C219 C225 1.505 . S
C220 C219 1.379 . S
C220 C222 1.369 . S
C220 H248 0.930 . S
C221 C223 1.383 . S
C221 C224 1.382 . S
C221 H249 0.930 . S
C222 C220 1.369 . S
C222 C224 1.392 . S
C222 H250 0.930 . S
C223 C219 1.373 . S
C223 C221 1.383 . S
C223 H251 0.931 . S
C224 C221 1.382 . S
C224 C222 1.392 . S
C225 Eu216 2.828 . S
C225 C219 1.505 . S
C225 O237 1.249 . S
C225 O238 1.244 . S
O226 Eu217 2.373 . S
O226 C228 1.260 . S
O227 Eu216 2.392 . S
O227 C228 1.235 1_455 S
C228 O226 1.260 . S
C228 O227 1.235 1_655 S
O229 Eu216 2.418 1_655 S
O229 C233 1.244 . S
O230 Eu217 2.488 1_554 S
O230 C246 1.249 . S
O231 Eu217 2.471 . S
O231 C246 1.244 1_556 S
O232 Eu217 2.349 . S
O232 C233 1.265 . S
C233 O229 1.244 . S
C233 O232 1.265 . S
O234 Eu216 2.373 . S
O234 C247 1.258 . S
O235 Eu217 2.392 1_455 S
O235 C247 1.242 . S
O236 Eu217 2.418 1_455 S
O236 C218 1.244 . S
O237 Eu216 2.488 . S
O237 C225 1.249 . S
O238 Eu216 2.471 . S
O238 C225 1.244 . S
O239 Eu216 2.349 . S
O239 C218 1.265 . S
C240 C241 1.379 . S
C240 C244 1.373 . S
C240 C246 1.505 . S
C241 C240 1.379 . S
C241 C243 1.369 . S
C241 H252 0.930 . S
C242 C244 1.383 . S
C242 C245 1.382 . S
C242 H253 0.930 . S
C243 C241 1.369 . S
C243 C245 1.392 . S
C243 H254 0.930 . S
C244 C240 1.373 . S
C244 C242 1.383 . S
C244 H255 0.931 . S
C245 C242 1.382 . S
C245 C243 1.392 . S
C246 Eu217 2.828 1_554 S
C246 O230 1.249 . S
C246 O231 1.244 1_554 S
C246 C240 1.505 . S
C247 O234 1.258 . S
C247 O235 1.242 . S
H248 C220 0.930 . S
H249 C221 0.930 . S
H250 C222 0.930 . S
H251 C223 0.931 . S
H252 C241 0.930 . S
H253 C242 0.930 . S
H254 C243 0.930 . S
H255 C244 0.931 . S
C256 C257 1.387 . S
C256 H260 0.950 . S
C256 C265 1.390 . S
C257 C256 1.387 . S
C257 C259 1.387 1_545 S
H258 C265 0.950 . S
C259 C257 1.387 1_565 S
C259 C261 1.390 . S
C259 H263 0.950 . S
H260 C256 0.950 . S
C261 C259 1.390 . S
C261 C262 1.387 1_565 S
C261 H264 0.950 . S
C262 C261 1.387 1_545 S
C262 C265 1.387 . S
H263 C259 0.950 . S
H264 C261 0.950 . S
C265 C256 1.390 . S
C265 H258 0.950 . S
C265 C262 1.387 . S
C266 C267 1.387 . S
C266 H270 0.950 . S
C266 C275 1.390 . S
C267 C266 1.387 . S
C267 C269 1.387 . S
H268 C275 0.950 . S
C269 C267 1.387 . S
C269 C271 1.390 . S
C269 H273 0.950 . S
H270 C266 0.950 . S
C271 C269 1.390 . S
C271 C272 1.387 . S
C271 H274 0.950 . S
C272 C271 1.387 . S
C272 C275 1.387 . S
H273 C269 0.950 . S
H274 C271 0.950 . S
C275 C266 1.390 . S
C275 H268 0.950 . S
C275 C272 1.387 . S
C276 C277 1.387 . S
C276 H280 0.950 . S
C276 C285 1.390 . S
C277 C276 1.387 . S
C277 C279 1.387 . S
H278 C285 0.950 . S
C279 C277 1.387 . S
C279 C281 1.390 . S
C279 H283 0.950 . S
H280 C276 0.950 . S
C281 C279 1.390 . S
C281 C282 1.387 . S
C281 H284 0.950 . S
C282 C281 1.387 . S
C282 C285 1.387 . S
H283 C279 0.950 . S
H284 C281 0.950 . S
C285 C276 1.390 . S
C285 H278 0.950 . S
C285 C282 1.387 . S
C286 C287 1.387 . S
C286 H290 0.950 . S
C286 C295 1.390 . S
C287 C286 1.387 . S
C287 C289 1.387 . S
H288 C295 0.950 . S
C289 C287 1.387 . S
C289 C291 1.390 . S
C289 H293 0.950 . S
H290 C286 0.950 . S
C291 C289 1.390 . S
C291 C292 1.387 . S
C291 H294 0.950 . S
C292 C291 1.387 . S
C292 C295 1.387 . S
H293 C289 0.950 . S
H294 C291 0.950 . S
C295 C286 1.390 . S
C295 H288 0.950 . S
C295 C292 1.387 . S
C296 C297 1.387 . S
C296 H300 0.950 . S
C296 C305 1.390 . S
C297 C296 1.387 . S
C297 C299 1.387 1_565 S
H298 C305 0.950 . S
C299 C297 1.387 1_545 S
C299 C301 1.390 . S
C299 H303 0.950 . S
H300 C296 0.950 . S
C301 C299 1.390 . S
C301 C302 1.387 1_545 S
C301 H304 0.950 . S
C302 C301 1.387 1_565 S
C302 C305 1.387 . S
H303 C299 0.950 . S
H304 C301 0.950 . S
C305 C296 1.390 . S
C305 H298 0.950 . S
C305 C302 1.387 . S
C306 C307 1.387 . S
C306 H310 0.950 . S
C306 C315 1.390 . S
C307 C306 1.387 . S
C307 C309 1.387 . S
H308 C315 0.950 1_556 S
C309 C307 1.387 . S
C309 C311 1.390 . S
C309 H313 0.950 . S
H310 C306 0.950 . S
C311 C309 1.390 . S
C311 C312 1.387 . S
C311 H314 0.950 . S
C312 C311 1.387 . S
C312 C315 1.387 . S
H313 C309 0.950 . S
H314 C311 0.950 . S
C315 C306 1.390 . S
C315 H308 0.950 1_554 S
C315 C312 1.387 . S
C316 C317 1.387 . S
C316 H320 0.950 . S
C316 C325 1.390 . S
C317 C316 1.387 . S
C317 C319 1.387 . S
H318 C325 0.950 . S
C319 C317 1.387 . S
C319 C321 1.390 . S
C319 H323 0.950 . S
H320 C316 0.950 . S
C321 C319 1.390 . S
C321 C322 1.387 . S
C321 H324 0.950 . S
C322 C321 1.387 . S
C322 C325 1.387 . S
H323 C319 0.950 . S
H324 C321 0.950 . S
C325 C316 1.390 . S
C325 H318 0.950 . S
C325 C322 1.387 . S
C326 C327 1.387 . S
C326 H330 0.950 . S
C326 C335 1.390 . S
C327 C326 1.387 . S
C327 C329 1.387 . S
H328 C335 0.954 . S
C329 C327 1.387 . S
C329 C331 1.390 . S
C329 H333 0.950 . S
H330 C326 0.950 . S
C331 C329 1.390 . S
C331 C332 1.387 . S
C331 H334 0.950 . S
C332 C331 1.387 . S
C332 C335 1.387 . S
H333 C329 0.950 . S
H334 C331 0.950 . S
C335 C326 1.390 . S
C335 H328 0.954 . S
C335 C332 1.387 . S
C336 C337 1.387 . S
C336 H340 0.950 . S
C336 C345 1.390 . S
C337 C336 1.387 . S
C337 C339 1.387 . S
H338 C345 0.950 1_556 S
C339 C337 1.387 . S
C339 C341 1.390 . S
C339 H343 0.950 . S
H340 C336 0.950 . S
C341 C339 1.390 . S
C341 C342 1.387 . S
C341 H344 0.950 . S
C342 C341 1.387 . S
C342 C345 1.387 . S
H343 C339 0.950 . S
H344 C341 0.950 . S
C345 C336 1.390 . S
C345 H338 0.950 1_554 S
C345 C342 1.387 . S
C346 C347 1.387 . S
C346 H350 0.950 . S
C346 C355 1.390 . S
C347 C346 1.387 . S
C347 C349 1.387 1_545 S
H348 C355 0.950 . S
C349 C347 1.387 1_565 S
C349 C351 1.390 . S
C349 H353 0.950 . S
H350 C346 0.950 . S
C351 C349 1.390 . S
C351 C352 1.387 . S
C351 H354 0.950 . S
C352 C351 1.387 . S
C352 C355 1.387 1_565 S
H353 C349 0.950 . S
H354 C351 0.950 . S
C355 C346 1.390 . S
C355 H348 0.950 . S
C355 C352 1.387 1_545 S
C356 C357 1.387 . S
C356 H360 0.950 . S
C356 C365 1.390 . S
C357 C356 1.387 . S
C357 C359 1.387 . S
H358 C365 0.950 . S
C359 C357 1.387 . S
C359 C361 1.390 . S
C359 H363 0.950 . S
H360 C356 0.950 . S
C361 C359 1.390 . S
C361 C362 1.387 . S
C361 H364 0.950 . S
C362 C361 1.387 . S
C362 C365 1.387 . S
H363 C359 0.950 . S
H364 C361 0.950 . S
C365 C356 1.390 . S
C365 H358 0.950 . S
C365 C362 1.387 . S
C366 C367 1.387 . S
C366 H370 0.950 . S
C366 C375 1.390 . S
C367 C366 1.387 . S
C367 C369 1.387 . S
H368 C375 0.950 . S
C369 C367 1.387 . S
C369 C371 1.390 . S
C369 H373 0.950 . S
H370 C366 0.950 . S
C371 C369 1.390 . S
C371 C372 1.387 . S
C371 H374 0.950 . S
C372 C371 1.387 . S
C372 C375 1.387 . S
H373 C369 0.950 . S
H374 C371 0.950 . S
C375 C366 1.390 . S
C375 H368 0.950 . S
C375 C372 1.387 . S
C376 C377 1.387 . S
C376 H380 0.950 . S
C376 C385 1.390 1_655 S
C377 C376 1.387 . S
C377 C379 1.387 . S
H378 C385 0.950 . S
C379 C377 1.387 . S
C379 C381 1.390 1_655 S
C379 H383 0.950 . S
H380 C376 0.950 . S
C381 C379 1.390 1_455 S
C381 C382 1.387 . S
C381 H384 0.950 . S
C382 C381 1.387 . S
C382 C385 1.387 . S
H383 C379 0.950 . S
H384 C381 0.950 . S
C385 C376 1.390 1_455 S
C385 H378 0.950 . S
C385 C382 1.387 . S
C386 C387 1.387 . S
C386 H390 0.950 . S
C386 C395 1.390 1_565 S
C387 C386 1.387 . S
C387 C389 1.387 1_565 S
H388 C395 0.950 . S
C389 C387 1.387 1_545 S
C389 C391 1.390 . S
C389 H393 0.950 . S
H390 C386 0.950 . S
C391 C389 1.390 . S
C391 C392 1.387 . S
C391 H394 0.950 . S
C392 C391 1.387 . S
C392 C395 1.387 . S
H393 C389 0.950 . S
H394 C391 0.950 . S
C395 C386 1.390 1_545 S
C395 H388 0.950 . S
C395 C392 1.387 . S
C396 C397 1.387 . S
C396 H400 0.950 . S
C396 C405 1.390 . S
C397 C396 1.387 . S
C397 C399 1.387 . S
H398 C405 0.950 . S
C399 C397 1.387 . S
C399 C401 1.390 . S
C399 H403 0.950 . S
H400 C396 0.950 . S
C401 C399 1.390 . S
C401 C402 1.387 . S
C401 H404 0.950 . S
C402 C401 1.387 . S
C402 C405 1.387 . S
H403 C399 0.950 . S
H404 C401 0.950 . S
C405 C396 1.390 . S
C405 H398 0.950 . S
C405 C402 1.387 . S
C406 C407 1.387 . S
C406 H410 0.950 . S
C406 C415 1.390 . S
C407 C406 1.387 . S
C407 C409 1.387 . S
H408 C415 0.950 . S
C409 C407 1.387 . S
C409 C411 1.390 . S
C409 H413 0.950 . S
H410 C406 0.950 . S
C411 C409 1.390 . S
C411 C412 1.387 . S
C411 H414 0.950 . S
C412 C411 1.387 . S
C412 C415 1.387 . S
H413 C409 0.950 . S
H414 C411 0.950 . S
C415 C406 1.390 . S
C415 H408 0.950 . S
C415 C412 1.387 . S
C416 C417 1.387 . S
C416 H420 0.950 . S
C416 C425 1.390 . S
C417 C416 1.387 . S
C417 C419 1.387 . S
H418 C425 0.950 . S
C419 C417 1.387 . S
C419 C421 1.390 . S
C419 H423 0.950 1_556 S
H420 C416 0.950 . S
C421 C419 1.390 . S
C421 C422 1.387 . S
C421 H424 0.950 1_556 S
C422 C421 1.387 . S
C422 C425 1.387 . S
H423 C419 0.950 1_554 S
H424 C421 0.950 1_554 S
C425 C416 1.390 . S
C425 H418 0.950 . S
C425 C422 1.387 . S
C426 C427 1.387 . S
C426 H430 0.950 . S
C426 C435 1.390 . S
C427 C426 1.387 . S
C427 C429 1.387 . S
H428 C435 0.950 . S
C429 C427 1.387 . S
C429 C431 1.390 . S
C429 H433 0.950 1_545 S
H430 C426 0.950 . S
C431 C429 1.390 . S
C431 C432 1.387 . S
C431 H434 0.950 1_545 S
C432 C431 1.387 . S
C432 C435 1.387 . S
H433 C429 0.950 1_565 S
H434 C431 0.950 1_565 S
C435 C426 1.390 . S
C435 H428 0.950 . S
C435 C432 1.387 . S
C436 C437 1.387 . S
C436 H440 0.950 . S
C436 C445 1.390 . S
C437 C436 1.387 . S
C437 C439 1.387 . S
H438 C445 0.950 . S
C439 C437 1.387 . S
C439 C441 1.390 . S
C439 H443 0.950 1_556 S
H440 C436 0.950 . S
C441 C439 1.390 . S
C441 C442 1.387 . S
C441 H444 0.950 1_556 S
C442 C441 1.387 . S
C442 C445 1.387 . S
H443 C439 0.950 1_554 S
H444 C441 0.950 1_554 S
C445 C436 1.390 . S
C445 H438 0.950 . S
C445 C442 1.387 . S
C446 C447 1.387 . S
C446 H450 0.950 . S
C446 C455 1.390 . S
C447 C446 1.387 . S
C447 C449 1.387 . S
H448 C455 0.950 . S
C449 C447 1.387 . S
C449 C451 1.390 . S
C449 H453 0.950 1_556 S
H450 C446 0.950 . S
C451 C449 1.390 . S
C451 C452 1.387 . S
C451 H454 0.950 1_556 S
C452 C451 1.387 . S
C452 C455 1.387 . S
H453 C449 0.950 1_554 S
H454 C451 0.950 1_554 S
C455 C446 1.390 . S
C455 H448 0.950 . S
C455 C452 1.387 . S
C456 C457 1.387 . S
C456 H460 0.950 . S
C456 C465 1.390 . S
C457 C456 1.387 . S
C457 C459 1.387 . S
H458 C465 0.949 . S
C459 C457 1.387 . S
C459 C461 1.390 . S
C459 H463 0.950 . S
H460 C456 0.950 . S
C461 C459 1.390 . S
C461 C462 1.387 . S
C461 H464 0.950 . S
C462 C461 1.387 . S
C462 C465 1.387 . S
H463 C459 0.950 . S
H464 C461 0.950 . S
C465 C456 1.390 . S
C465 H458 0.949 . S
C465 C462 1.387 . S
C466 C467 1.387 . S
C466 H470 0.950 . S
C466 C475 1.390 . S
C467 C466 1.387 . S
C467 C469 1.387 1_565 S
H468 C475 0.950 . S
C469 C467 1.387 1_545 S
C469 C471 1.390 . S
C469 H473 0.950 . S
H470 C466 0.950 . S
C471 C469 1.390 . S
C471 C472 1.387 1_545 S
C471 H474 0.950 . S
C472 C471 1.387 1_565 S
C472 C475 1.387 . S
H473 C469 0.950 . S
H474 C471 0.950 . S
C475 C466 1.390 . S
C475 H468 0.950 . S
C475 C472 1.387 . S
C476 C477 1.387 . S
C476 H480 0.950 . S
C476 C485 1.390 . S
C477 C476 1.387 . S
C477 C479 1.387 . S
H478 C485 0.950 . S
C479 C477 1.387 . S
C479 C481 1.390 . S
C479 H483 0.950 . S
H480 C476 0.950 . S
C481 C479 1.390 . S
C481 C482 1.387 . S
C481 H484 0.950 . S
C482 C481 1.387 . S
C482 C485 1.387 . S
H483 C479 0.950 . S
H484 C481 0.950 . S
C485 C476 1.390 . S
C485 H478 0.950 . S
C485 C482 1.387 . S
C486 C487 1.387 . S
C486 H490 0.950 . S
C486 C495 1.390 . S
C487 C486 1.387 . S
C487 C489 1.387 . S
H488 C495 0.950 . S
C489 C487 1.387 . S
C489 C491 1.390 . S
C489 H493 0.950 . S
H490 C486 0.950 . S
C491 C489 1.390 . S
C491 C492 1.387 . S
C491 H494 0.950 . S
C492 C491 1.387 . S
C492 C495 1.387 . S
H493 C489 0.950 . S
H494 C491 0.950 . S
C495 C486 1.390 . S
C495 H488 0.950 . S
C495 C492 1.387 . S
C257 C76 2.197 . S
C262 C127 2.484 . S
C272 C153 2.219 . S
C267 C88 1.905 . S
C282 C193 2.209 . S
C277 C52 1.931 . S
C292 C247 2.474 . S
C287 C64 2.215 . S
C302 C108 2.486 1_564 S
C297 C28 2.205 . S
C307 C40 1.896 . S
C312 C138 2.218 1_554 S
C317 C4 1.934 . S
C322 C178 2.209 1_554 S
C327 C16 2.221 . S
C332 C228 2.478 1_554 S
C342 C104 0.886 1_455 S
C337 C69 0.876 . S
C352 C165 0.918 . S
C347 C81 0.936 . S
C362 C205 0.771 . S
C357 C93 0.772 . S
C367 C57 0.794 . S
C372 C224 0.798 . S
C377 C21 0.867 . S
C382 C125 0.887 . S
C392 C144 0.919 . S
C387 C33 0.929 . S
C402 C184 0.764 . S
C397 C45 0.768 . S
C407 C9 0.791 . S
C412 C245 0.799 . S
C417 C66 2.089 . S
C422 C98 2.424 . S
C427 C78 2.447 . S
C432 C148 2.729 . S
C442 C188 2.557 . S
C437 C90 2.284 . S
C452 C218 2.229 . S
C447 C54 1.917 . S
C457 C18 2.081 . S
C462 C113 2.425 . S
C472 C167 2.728 . S
C467 C30 2.444 . S
C482 C207 2.557 . S
C477 C42 2.302 . S
C487 C6 1.916 . S
C492 C233 2.229 . S
